36
#
 C -0.08 -1.01 -0.15
 C -0.15 -0.31  1.16
 O  0.93  0.01  1.77
 H  0.59 -0.44 -0.81
 H -1.05 -1.13 -0.64
 H  0.39 -2.00 -0.02
 N -1.30  0.01  1.73
 C -2.69 -0.33  1.43
 C -3.48  0.56  2.43
 O -2.90  0.97  3.46
 H -1.26  0.60  2.57
 H -2.92 -0.04  0.40
 C -3.00 -1.84  1.61
 C -3.54 -2.37  2.96
 C -2.76 -2.14  4.26
 N -1.33 -2.45  4.16
 C -0.28 -1.68  4.49
 N -0.47 -0.30  4.80
 N  0.99 -2.02  4.48
 H -2.10 -2.40  1.33
 H -3.75 -2.11  0.85
 H -3.68 -3.46  2.82
 H -4.56 -1.98  3.14
 H -2.87 -1.10  4.59
 H -3.20 -2.77  5.05
 H -1.10 -3.40  3.88
 H -0.36 -0.14  5.80
 H -1.37  0.11  4.50
 H  1.17 -3.02  4.37
 N -4.77  0.81  2.18
 C -5.58  0.39  1.04
 H -5.23  1.36  2.91
 H -6.42  1.09  0.93
 H -5.99 -0.62  1.19
 H -5.00  0.42  0.11
Ca  1.83 -0.05  3.70
