36
#
 C  1.39  0.21  0.85
 C  0.47  0.99  1.74
 O  0.82  2.17  2.11
 H  2.08 -0.38  1.46
 H  1.99  0.91  0.25
 H  0.82 -0.46  0.19
 N -0.65  0.40  2.12
 C -1.86  0.85  2.82
 C -1.80  2.12  3.66
 O -0.81  2.43  4.40
 H -0.80 -0.59  1.76
 H -2.62  1.01  2.04
 C -2.40 -0.28  3.76
 C -3.11 -1.46  3.07
 C -2.23 -2.60  2.54
 N -1.36 -2.21  1.43
 C -1.83 -2.01  0.09
 N -3.14 -2.35 -0.14
 N -0.99 -1.45 -0.70
 H -3.12  0.18  4.44
 H -1.56 -0.63  4.39
 H -3.76 -1.09  2.26
 H -3.79 -1.91  3.81
 H -2.87 -3.47  2.29
 H -1.57 -2.96  3.35
 H -0.49 -2.73  1.40
 H -3.54 -3.14  0.36
 H -3.47 -2.26 -1.09
 H -1.32 -1.41 -1.67
 N -2.90  2.87  3.70
 C -4.17  2.70  2.99
 H -2.86  3.63  4.38
 H -4.01  2.64  1.90
 H -4.78  3.58  3.18
 H -4.71  1.82  3.34
Ca  1.11  3.18  3.89
