36
#
 C -0.64 -1.40  0.57
 C -0.67 -0.91  1.98
 O -0.07 -1.58  2.90
 H  0.40 -1.54  0.24
 H -1.14 -0.72 -0.13
 H -1.14 -2.38  0.52
 N -1.32  0.21  2.24
 C -1.65  0.83  3.52
 C -2.74  1.88  3.10
 O -2.84  2.15  1.90
 H -1.81  0.74  1.49
 H -2.09  0.07  4.18
 C -0.46  1.49  4.25
 C  0.31  2.60  3.50
 C  1.53  2.13  2.69
 N  2.48  1.41  3.56
 C  2.88  0.15  3.39
 N  3.27 -0.60  4.54
 N  2.83 -0.59  2.30
 H  0.22  0.70  4.59
 H -0.87  1.92  5.18
 H  0.65  3.35  4.23
 H -0.35  3.14  2.81
 H  1.24  1.44  1.89
 H  2.03  2.99  2.23
 H  2.77  1.89  4.41
 H  4.24 -0.90  4.49
 H  3.10 -0.14  5.44
 H  2.70 -0.07  1.44
 N -3.45  2.43  4.09
 C -4.50  3.43  3.86
 H -3.34  2.08  5.03
 H -4.33  4.30  4.51
 H -5.49  3.00  4.07
 H -4.45  3.74  2.81
Ca  1.84 -2.39  3.30
