36
#
 C  0.23  0.04  0.03
 C  0.09 -0.13  1.51
 O  1.06 -0.60  2.18
 H -0.65  0.49 -0.45
 H  0.41 -0.95 -0.41
 H  1.11  0.66 -0.19
 N -1.07  0.23  2.08
 C -1.58  0.06  3.46
 C -0.89  0.91  4.55
 O  0.43  0.86  4.63
 H -1.75  0.63  1.43
 H -2.59  0.46  3.41
 C -1.65 -1.42  3.90
 C -2.88 -2.22  3.44
 C -4.26 -1.57  3.66
 N -4.30 -0.77  4.90
 C -5.04  0.35  5.05
 N -6.27  0.41  4.52
 N -4.48  1.37  5.70
 H -1.59 -1.44  5.00
 H -0.75 -1.96  3.56
 H -2.85 -3.19  3.96
 H -2.81 -2.46  2.37
 H -5.02 -2.36  3.67
 H -4.51 -0.90  2.82
 H -3.51 -0.84  5.52
 H -6.78  1.28  4.50
 H -6.79 -0.44  4.33
 H -5.05  2.15  6.03
 N -1.67  1.51  5.38
 C -1.05  2.22  6.50
 H -3.43  1.48  5.63
 H -1.82  2.47  7.24
 H -0.27  1.62  7.00
 H -0.59  3.16  6.16
Ca  2.13  0.00  3.93
