36
#
 C -0.23  0.22  0.26
 C -0.01  0.03  1.73
 O  1.11 -0.42  2.13
 H -0.15 -0.76 -0.24
 H  0.57  0.85 -0.16
 H -1.20  0.66  0.01
 N -1.01  0.35  2.55
 C -1.19  0.13  4.01
 C -0.29  0.97  4.92
 O  1.01  0.95  4.72
 H -1.83  0.72  2.09
 H -2.20  0.50  4.19
 C -1.14 -1.37  4.39
 C -1.59 -1.63  5.83
 C -3.09 -1.36  6.06
 N -3.45 -1.12  7.45
 C -3.66  0.10  7.99
 N -4.32  0.17  9.17
 N -3.25  1.21  7.38
 H -0.13 -1.77  4.25
 H -1.78 -1.93  3.68
 H -1.00 -1.01  6.52
 H -1.37 -2.68  6.09
 H -3.69 -2.20  5.70
 H -3.43 -0.48  5.49
 H -3.61 -1.92  8.05
 H -4.31  1.02  9.72
 H -4.89 -0.59  9.50
 H -3.60  2.10  7.72
 N -0.88  1.59  5.89
 C -0.04  2.33  6.83
 H -2.43  1.25  6.71
 H -0.65  2.69  7.66
 H  0.42  3.21  6.34
 H  0.78  1.71  7.23
Ca  2.53  0.17  3.60
