36
#
 C  1.18 -0.09  0.85
 C  0.57  0.45  2.10
 O  1.21  1.31  2.81
 H  1.16  0.70  0.08
 H  0.65 -0.97  0.47
 H  2.24 -0.33  1.03
 N -0.64  0.04  2.44
 C -1.46  0.57  3.54
 C -0.87  0.15  4.90
 O  0.05  0.86  5.44
 H -1.21 -0.52  1.73
 H -1.40  1.67  3.53
 C -2.93  0.14  3.35
 C -3.72  0.75  2.17
 C -3.14  0.58  0.75
 N -2.52 -0.73  0.57
 C -1.83 -1.10 -0.64
 N -1.87 -0.17 -1.65
 N -1.17 -2.20 -0.56
 H -3.48  0.40  4.26
 H -2.96 -0.96  3.27
 H -3.87  1.82  2.34
 H -4.72  0.30  2.21
 H -2.38  1.34  0.55
 H -3.97  0.77  0.04
 H -3.08 -1.52  0.88
 H -1.43 -0.45 -2.52
 H -2.72  0.38 -1.78
 H -0.77 -2.49 -1.46
 N -1.33 -0.93  5.50
 C -0.87 -1.46  6.78
 H -2.07 -1.45  5.02
 H -1.73 -1.84  7.34
 H -0.39 -0.66  7.35
 H -0.16 -2.28  6.62
Ca  1.67  2.03  4.70
