36
#
 C  0.45  0.99  0.98
 C  0.13  0.68  2.41
 O  1.10  0.60  3.26
 H  1.07  0.18  0.56
 H  1.06  1.90  0.95
 H -0.44  1.12  0.36
 N -1.09  0.47  2.84
 C -2.38  0.38  2.15
 C -3.39  0.56  3.31
 O -2.99  0.33  4.47
 H -1.27  0.32  3.85
 H -2.47  1.20  1.42
 C -2.59 -0.97  1.42
 C -2.76 -2.23  2.30
 C -1.50 -3.05  2.63
 N -0.52 -2.44  3.54
 C -0.60 -2.36  4.89
 N -1.63 -2.94  5.51
 N  0.37 -1.70  5.56
 H -1.76 -1.11  0.70
 H -3.49 -0.86  0.81
 H -3.41 -2.92  1.76
 H -3.30 -1.98  3.23
 H -0.95 -3.27  1.71
 H -1.80 -4.03  3.03
 H  0.38 -2.21  3.15
 H -1.81 -2.78  6.50
 H -2.30 -3.53  5.02
 H  0.29 -1.92  6.56
 N -4.66  0.88  3.03
 C -5.27  1.19  1.74
 H -5.26  0.92  3.85
 H -4.53  1.59  1.04
 H -6.03  1.97  1.89
 H -5.75  0.31  1.30
Ca  1.83 -0.06  5.11
