36
#
 C -0.65  0.35 -0.60
 C -0.31 -0.20  0.74
 O  0.88 -0.57  1.01
 H -0.30  1.39 -0.69
 H -1.72  0.32 -0.83
 H -0.09 -0.22 -1.36
 N -1.26 -0.33  1.69
 C -2.20  0.74  2.01
 C -1.38  1.87  2.73
 O -0.09  1.74  2.82
 H -0.96 -0.88  2.50
 H -2.57  1.16  1.06
 C -3.40  0.22  2.84
 C -4.74  0.85  2.43
 C -5.76  0.96  3.58
 N -5.23  1.58  4.79
 C -4.70  2.84  4.93
 N -4.71  3.63  3.74
 N -4.10  3.35  5.95
 H -3.22  0.40  3.91
 H -3.45 -0.87  2.70
 H -5.21  0.26  1.62
 H -4.57  1.85  2.00
 H -6.11 -0.04  3.87
 H -6.66  1.49  3.21
 H -5.33  1.06  5.66
 H -4.59  4.61  4.02
 H -5.58  3.55  3.20
 H -4.06  2.72  6.75
 N -2.00  2.91  3.22
 C -1.36  4.00  3.97
 H -3.04  3.02  3.15
 H -1.35  4.91  3.36
 H -0.34  3.72  4.25
 H -1.97  4.17  4.87
Ca  1.75  0.77  2.46
