36
#
 C -0.44  1.85 -0.88
 C  0.02  1.00  0.26
 O  1.28  0.84  0.46
 H -0.17  1.37 -1.83
 H  0.09  2.81 -0.84
 H -1.52  2.03 -0.87
 N -0.80  0.41  1.09
 C -2.25  0.23  1.14
 C -2.45 -0.42  2.54
 O -1.50 -1.06  3.02
 H -0.40 -0.13  1.88
 H -2.75  1.22  1.09
 C -2.83 -0.69  0.03
 C -2.67 -2.22  0.20
 C -1.38 -2.90 -0.26
 N -0.19 -2.57  0.54
 C  1.04 -3.06  0.28
 N  1.16 -4.04 -0.65
 N  2.12 -2.54  0.91
 H -2.43 -0.37 -0.94
 H -3.90 -0.48 -0.01
 H -3.46 -2.68 -0.41
 H -2.89 -2.52  1.23
 H -1.57 -3.98 -0.23
 H -1.17 -2.63 -1.31
 H -0.35 -2.21  1.48
 H  2.07 -4.34 -0.96
 H  0.37 -4.58 -0.95
 H  2.87 -3.24  0.93
 N -3.66 -0.30  3.10
 C -4.04 -0.91  4.37
 H -4.35  0.29  2.63
 H -3.21 -1.54  4.72
 H -4.94 -1.53  4.23
 H -4.25 -0.14  5.11
Ca  2.82 -0.43  1.14
