36
#
 C -1.51 -1.23  0.04
 C -0.58 -0.78  1.11
 O  0.68 -0.93  0.98
 H -2.56 -1.30  0.36
 H -1.18 -2.22 -0.30
 H -1.45 -0.57 -0.84
 N -1.06 -0.21  2.24
 C -2.05  0.86  2.24
 C -1.34  2.13  1.67
 O -0.12  2.08  1.30
 H -0.36 -0.14  2.99
 H -2.85  0.59  1.54
 C -2.65  1.05  3.65
 C -3.39 -0.19  4.13
 C -4.05 -0.00  5.52
 N -4.78 -1.18  5.95
 C -5.90 -1.63  5.23
 N -6.84 -0.63  4.99
 N -5.92 -2.85  4.85
 H -3.34  1.91  3.62
 H -1.84  1.34  4.35
 H -2.71 -1.05  4.18
 H -4.18 -0.45  3.41
 H -4.72  0.86  5.50
 H -3.28  0.22  6.28
 H -4.19 -1.98  6.17
 H -7.70 -0.96  4.57
 H -7.01  0.00  5.77
 H -6.83 -3.13  4.47
 N -2.03  3.25  1.59
 C -1.51  4.52  1.08
 H -3.00  3.23  1.90
 H -2.31  5.26  1.12
 H -1.18  4.41  0.04
 H -0.67  4.86  1.69
Ca  1.68  0.98  0.85
