36
#
 C -1.04 -4.58  3.21
 C -0.38 -3.27  2.92
 O  0.86 -3.11  3.22
 H -0.75 -5.29  2.42
 H -2.13 -4.54  3.24
 H -0.66 -5.00  4.16
 N -1.03 -2.26  2.36
 C -2.41 -2.11  1.88
 C -2.20 -1.47  0.47
 O -1.20 -0.75  0.33
 H -0.47 -1.49  1.96
 H -2.91 -3.09  1.83
 C -3.21 -1.10  2.73
 C -3.56 -1.40  4.20
 C -2.43 -1.61  5.22
 N -1.33 -0.64  5.05
 C -0.04 -0.84  5.34
 N  0.34 -1.98  6.11
 N  1.01 -0.16  4.93
 H -4.16 -0.93  2.21
 H -2.68 -0.13  2.64
 H -4.20 -2.28  4.26
 H -4.18 -0.56  4.54
 H -2.02 -2.62  5.10
 H -2.84 -1.54  6.23
 H -1.53  0.16  4.44
 H  0.71 -1.68  7.02
 H -0.41 -2.65  6.29
 H  0.80  0.72  4.44
 N -3.14 -1.69 -0.45
 C -3.12 -1.10 -1.78
 H -3.90 -2.33 -0.22
 H -2.25 -0.45 -1.86
 H -4.03 -0.50 -1.94
 H -3.06 -1.88 -2.55
Ca  2.23 -2.05  4.44
