36
#
 C -0.23  0.55  0.94
 C -0.53  0.90  2.36
 O  0.38  0.91  3.24
 H  0.07  1.45  0.38
 H -1.09  0.09  0.43
 H  0.62 -0.14  0.92
 N -1.78  1.28  2.73
 C -2.68  2.08  1.92
 C -1.97  3.41  1.57
 O -0.99  3.79  2.29
 H -1.98  1.26  3.75
 H -2.94  1.55  0.99
 C -3.99  2.36  2.70
 C -3.83  3.19  4.00
 C -3.84  2.42  5.32
 N -2.74  1.41  5.54
 C -1.70  1.75  6.41
 N -1.59  1.00  7.53
 N -0.88  2.73  6.08
 H -4.47  1.39  2.91
 H -4.67  2.89  2.02
 H -4.68  3.88  4.07
 H -2.95  3.85  3.96
 H -4.78  1.86  5.41
 H -3.82  3.14  6.15
 H -3.13  0.49  5.75
 H -0.77  1.07  8.12
 H -2.35  0.42  7.87
 H -0.34  3.03  6.90
 N -2.38  4.16  0.56
 C -3.47  3.92 -0.38
 H -1.87  5.04  0.46
 H -4.37  4.48 -0.08
 H -3.71  2.86 -0.45
 H -3.16  4.27 -1.37
Ca  0.18  3.01  4.02
