36
#
 C  0.14  0.41  0.90
 C -0.64  0.67  2.14
 O -0.56  1.78  2.74
 H -0.10  1.18  0.15
 H -0.05 -0.58  0.47
 H  1.21  0.50  1.12
 N -1.46 -0.29  2.62
 C -2.30 -0.10  3.79
 C -1.52 -0.34  5.10
 O -0.95  0.66  5.62
 H -1.50 -1.17  2.12
 H -2.51  0.98  3.83
 C -3.68 -0.74  3.66
 C -4.57  0.03  2.66
 C -4.60  1.56  2.84
 N -4.95  1.97  4.20
 C -4.45  3.06  4.86
 N -5.32  3.71  5.67
 N -3.18  3.45  4.74
 H -4.15 -0.72  4.66
 H -3.62 -1.80  3.37
 H -5.59 -0.37  2.73
 H -4.25 -0.17  1.63
 H -5.32  1.97  2.13
 H -3.63  2.02  2.59
 H -5.88  1.69  4.50
 H -5.00  4.37  6.36
 H -6.33  3.61  5.57
 H -3.13  4.42  5.06
 N -1.44 -1.56  5.60
 C -0.70 -1.93  6.81
 H -1.95 -2.30  5.13
 H  0.07 -2.67  6.56
 H -1.39 -2.36  7.55
 H -0.23 -1.03  7.23
Ca -0.98  2.70  4.69
