36
#
 C  0.36  1.33 -0.13
 C  0.18  0.70  1.22
 O  1.21  0.30  1.88
 H  1.05  2.18 -0.05
 H -0.58  1.68 -0.56
 H  0.81  0.60 -0.80
 N -1.05  0.58  1.69
 C -1.55 -0.04  2.92
 C -3.09  0.20  2.79
 O -3.48  1.03  1.96
 H -1.85  1.02  1.19
 H -1.32 -1.11  2.89
 C -0.97  0.56  4.22
 C -0.95  2.08  4.30
 C -0.31  2.63  5.59
 N  0.97  1.99  5.95
 C  2.04  1.89  5.14
 N  2.99  0.86  5.40
 N  2.29  2.54  4.03
 H  0.05  0.16  4.34
 H -1.55  0.14  5.06
 H -1.97  2.49  4.26
 H -0.44  2.50  3.42
 H -0.97  2.46  6.45
 H -0.17  3.72  5.52
 H  1.02  1.55  6.86
 H  3.89  1.25  5.71
 H  2.69  0.16  6.09
 H  1.70  3.36  3.87
 N -3.92 -0.49  3.58
 C -3.63 -1.57  4.52
 H -4.90 -0.25  3.45
 H -4.44 -2.31  4.47
 H -3.57 -1.21  5.56
 H -2.70 -2.09  4.26
Ca  3.04  0.76  2.82
