36
#
 C -1.29  0.68  2.67
 C -0.59  0.02  3.81
 O  0.52  0.51  4.23
 H -2.15  0.11  2.29
 H -0.59  0.87  1.85
 H -1.65  1.66  3.01
 N -1.09 -1.03  4.44
 C -2.19 -1.93  4.09
 C -2.45 -2.68  5.43
 O -1.55 -2.66  6.28
 H -0.67 -1.36  5.33
 H -3.07 -1.36  3.77
 C -1.74 -2.91  2.97
 C -0.60 -3.85  3.41
 C  0.49 -4.10  2.36
 N  1.22 -2.90  1.92
 C  2.03 -2.14  2.68
 N  2.59 -0.95  2.09
 N  2.34 -2.26  3.94
 H -1.44 -2.30  2.10
 H -2.61 -3.49  2.64
 H -0.14 -3.48  4.33
 H -1.01 -4.83  3.67
 H  0.06 -4.53  1.44
 H  1.21 -4.84  2.74
 H  1.26 -2.73  0.92
 H  3.55 -1.13  1.77
 H  2.06 -0.59  1.29
 H  2.05 -3.13  4.39
 N -3.61 -3.34  5.58
 C -4.75 -3.44  4.68
 H -3.67 -3.84  6.47
 H -5.67 -3.48  5.27
 H -4.69 -4.35  4.06
 H -4.81 -2.56  4.03
Ca  2.55 -0.01  4.44
