36
#
 C -1.00 -0.96 -0.14
 C -0.79 -0.77  1.31
 O  0.30 -1.12  1.90
 H -1.13  0.00 -0.66
 H -1.95 -1.52 -0.29
 H -0.14 -1.48 -0.58
 N -1.77 -0.24  2.08
 C -2.53  0.96  1.75
 C -1.52  2.14  1.81
 O -0.40  1.98  2.42
 H -1.63 -0.39  3.08
 H -2.92  0.88  0.73
 C -3.69  1.07  2.78
 C -4.97  1.84  2.44
 C -5.75  1.39  1.18
 N -5.64 -0.02  0.83
 C -4.70 -0.55 -0.02
 N -4.23  0.34 -1.01
 N -4.16 -1.72  0.01
 H -3.29  1.46  3.73
 H -3.96  0.02  2.98
 H -4.79  2.92  2.39
 H -5.62  1.71  3.32
 H -5.43  1.98  0.31
 H -6.81  1.64  1.32
 H -6.06 -0.68  1.48
 H -3.75 -0.19 -1.73
 H -4.98  0.89 -1.45
 H -4.49 -2.28  0.81
 N -1.78  3.30  1.24
 C -2.89  3.68  0.37
 H -1.07  4.02  1.40
 H -3.62  4.29  0.91
 H -3.37  2.78 -0.04
 H -2.49  4.27 -0.47
Ca  1.19  0.59  2.86
