36
#
 C -0.02  0.35 -0.34
 C -0.39 -0.09  1.04
 O  0.48 -0.48  1.87
 H  0.14  1.44 -0.36
 H -0.80  0.11 -1.07
 H  0.92 -0.12 -0.62
 N -1.68 -0.01  1.50
 C -2.66  0.98  1.07
 C -2.07  2.37  1.40
 O -1.23  2.45  2.35
 H -1.95 -0.70  2.24
 H -2.86  0.87 -0.01
 C -3.98  0.86  1.87
 C -4.50 -0.56  2.19
 C -4.03 -1.15  3.53
 N -2.68 -1.81  3.47
 C -1.89 -1.79  4.63
 N -1.71 -2.96  5.27
 N -1.33 -0.65  4.99
 H -4.74  1.40  1.30
 H -3.86  1.41  2.82
 H -4.31 -1.26  1.37
 H -5.59 -0.49  2.26
 H -4.76 -1.88  3.88
 H -3.97 -0.36  4.29
 H -2.76 -2.75  3.09
 H -1.03 -3.06  6.01
 H -2.32 -3.76  5.09
 H -0.98 -0.70  5.95
 N -2.46  3.46  0.75
 C -3.42  3.58 -0.34
 H -2.06  4.32  1.11
 H -3.06  4.33 -1.05
 H -4.40  3.91  0.04
 H -3.54  2.63 -0.87
Ca -0.21  0.86  3.57
