36
#
 C  0.28 -0.65 -0.41
 C -0.30 -0.03  0.81
 O  0.18  1.03  1.31
 H  0.26  0.08 -1.23
 H -0.25 -1.56 -0.73
 H  1.33 -0.90 -0.22
 N -1.38 -0.61  1.40
 C -2.02  0.03  2.54
 C -1.23 -0.21  3.85
 O -0.56  0.76  4.31
 H -1.78 -1.43  0.97
 H -1.86  1.10  2.36
 C -3.54 -0.10  2.65
 C -4.06  1.04  3.55
 C -3.94  2.43  2.89
 N -3.65  3.51  3.83
 C -2.62  4.40  3.72
 N -2.83  5.61  4.27
 N -1.47  4.07  3.12
 H -3.86 -1.07  3.04
 H -3.97 -0.01  1.64
 H -3.51  1.05  4.50
 H -5.11  0.84  3.81
 H -4.88  2.67  2.36
 H -3.15  2.47  2.13
 H -4.40  3.79  4.45
 H -2.05  6.24  4.45
 H -3.75  5.95  4.50
 H -1.01  4.95  2.85
 N -1.24 -1.38  4.49
 C -1.91 -2.63  4.16
 H -0.68 -1.38  5.35
 H -1.24 -3.46  4.40
 H -2.14 -2.69  3.09
 H -2.84 -2.75  4.73
Ca  0.15  2.43  3.05
