36
#
 C -0.44  0.04 -0.21
 C -0.15  0.62  1.13
 O  0.97  1.14  1.38
 H  0.03  0.61 -1.01
 H -1.52 -0.09 -0.39
 H  0.00 -0.97 -0.22
 N -1.12  0.55  2.11
 C -2.29  1.46  1.95
 C -1.56  2.84  1.95
 O -0.93  3.12  3.06
 H -0.68  0.77  3.02
 H -2.77  1.26  0.99
 C -3.27  1.25  3.10
 C -4.52  2.14  3.01
 C -5.53  1.78  4.10
 N -6.79  2.53  4.02
 C -7.16  3.57  4.78
 N -8.44  3.97  4.79
 N -6.26  4.23  5.53
 H -2.75  1.43  4.05
 H -3.57  0.19  3.09
 H -5.00  2.02  2.02
 H -4.24  3.20  3.09
 H -5.11  1.92  5.11
 H -5.80  0.71  4.03
 H -7.48  2.21  3.34
 H -8.71  4.87  5.17
 H -9.18  3.37  4.45
 H -5.27  4.09  5.41
 N -1.21  3.50  0.87
 C -1.82  3.34 -0.44
 H -6.56  4.85  6.27
 H -1.06  3.05 -1.18
 H -2.22  4.31 -0.77
 H -2.63  2.61 -0.48
Ca  0.88  3.39  1.90
