36
#
 C -2.41 -0.55 -0.09
 C -1.69 -0.80  1.19
 O -0.41 -0.86  1.19
 H -3.49 -0.50  0.03
 H -2.17 -1.35 -0.81
 H -2.04  0.38 -0.53
 N -2.38 -0.96  2.31
 C -1.73 -1.10  3.62
 C -0.97 -2.43  3.71
 O  0.31 -2.39  3.61
 H -3.44 -0.81  2.29
 H -0.94 -0.34  3.67
 C -2.70 -0.83  4.78
 C -3.37  0.56  4.69
 C -4.87  0.56  5.09
 N -5.63 -0.63  4.72
 C -5.69 -1.26  3.50
 N -5.20 -0.50  2.40
 N -6.07 -2.46  3.24
 H -2.14 -0.93  5.72
 H -3.48 -1.60  4.81
 H -3.28  0.95  3.66
 H -2.85  1.28  5.32
 H -5.34  1.47  4.68
 H -4.96  0.64  6.18
 H -6.05 -1.15  5.49
 H -5.62 -0.91  1.56
 H -5.47  0.49  2.45
 H -6.37 -2.98  4.06
 N -1.55 -3.61  3.86
 C -2.97 -3.98  3.93
 H -0.89 -4.38  3.94
 H -3.31 -4.01  4.97
 H -3.08 -4.98  3.50
 H -3.61 -3.29  3.36
Ca  1.42 -1.46  2.04
