36
#
 C  1.92  0.57  0.72
 C  1.13  0.33  1.96
 O  1.64 -0.40  2.90
 H  2.87  1.06  0.98
 H  1.39  1.21 -0.00
 H  2.15 -0.38  0.23
 N -0.07  0.86  2.07
 C -1.11  0.68  3.08
 C -2.39  0.55  2.19
 O -2.33  1.00  1.04
 H -0.51  1.28  1.22
 H -0.91 -0.23  3.65
 C -1.28  1.93  3.98
 C -0.10  2.40  4.84
 C  0.23  1.58  6.09
 N  0.92  0.35  5.73
 C  1.58 -0.49  6.55
 N  1.45 -0.33  7.88
 N  2.34 -1.46  6.01
 H -2.16  1.75  4.62
 H -1.57  2.76  3.31
 H -0.35  3.42  5.18
 H  0.81  2.53  4.23
 H -0.70  1.36  6.64
 H  0.87  2.19  6.75
 H  1.05  0.17  4.74
 H  1.98 -0.90  8.53
 H  0.85  0.38  8.28
 H  2.70 -2.08  6.73
 N -3.50 -0.01  2.71
 C -3.73 -0.54  4.04
 H -4.30  0.02  2.08
 H -2.79 -0.89  4.49
 H -4.40 -1.41  3.98
 H -4.19  0.20  4.71
Ca  2.90 -1.80  3.88
