36
#
 C  0.51 -0.46  0.68
 C -0.29  0.03  1.84
 O  0.23  0.67  2.79
 H  0.85  0.43  0.13
 H -0.07 -1.08 -0.02
 H  1.41 -0.99  1.01
 N -1.64 -0.21  1.93
 C -2.34 -1.49  1.70
 C -1.33 -2.61  1.97
 O -0.65 -2.48  3.04
 H -2.17  0.51  2.44
 H -2.96 -1.61  2.60
 C -3.36 -1.46  0.56
 C -4.40 -0.33  0.77
 C -5.39 -0.41  1.96
 N -4.83 -0.66  3.31
 C -3.88  0.06  3.95
 N -3.66  1.35  3.51
 N -3.04 -0.43  4.86
 H -3.88 -2.44  0.52
 H -2.88 -1.31 -0.42
 H -3.87  0.63  0.78
 H -5.03 -0.28 -0.13
 H -6.11 -1.22  1.80
 H -5.99  0.51  1.97
 H -4.98 -1.60  3.67
 H -3.25  1.96  4.22
 H -4.40  1.80  2.98
 H -3.39 -1.32  5.23
 N -1.26 -3.66  1.18
 C -0.42 -4.84  1.41
 H -1.83 -3.65  0.34
 H -1.04 -5.74  1.45
 H  0.11 -4.72  2.36
 H  0.31 -4.94  0.60
Ca -0.70 -0.65  4.42
