36
#
 C  0.13 -1.97  0.63
 C -0.03 -1.21  1.90
 O  0.83 -1.31  2.84
 H -0.38 -1.51 -0.21
 H -0.31 -2.98  0.79
 H  1.20 -2.10  0.40
 N -1.13 -0.45  2.04
 C -1.78  0.07  3.27
 C -1.03  1.26  3.87
 O  0.17  1.14  4.29
 H -1.73 -0.44  1.22
 H -2.75  0.42  2.92
 C -2.03 -0.99  4.37
 C -3.05 -2.09  4.02
 C -2.65 -2.95  2.82
 N -3.35 -4.23  2.77
 C -3.05 -5.07  1.68
 N -1.66 -5.18  1.44
 N -3.87 -5.70  0.93
 H -2.39 -0.45  5.26
 H -1.08 -1.46  4.67
 H -4.05 -1.65  3.87
 H -3.14 -2.74  4.91
 H -1.58 -3.16  2.87
 H -2.82 -2.38  1.88
 H -4.35 -4.15  2.91
 H -1.52 -5.86  0.69
 H -1.14 -5.47  2.27
 H -4.85 -5.47  1.11
 N -1.65  2.42  4.01
 C -3.02  2.80  3.62
 H -1.10  3.14  4.48
 H -3.18  2.61  2.55
 H -3.13  3.87  3.80
 H -3.76  2.26  4.22
Ca  1.79 -0.22  4.35
