36
#
 C -0.92  1.37  0.87
 C -0.86  0.72  2.21
 O -0.05  1.17  3.09
 H -1.80  1.08  0.29
 H -0.01  1.18  0.29
 H -0.95  2.45  1.06
 N -1.68 -0.30  2.58
 C -1.80 -1.63  1.94
 C -0.63 -2.48  2.50
 O  0.47 -1.89  2.84
 H -1.71 -0.39  3.60
 H -2.73 -2.07  2.33
 C -1.86 -1.65  0.40
 C -3.23 -1.23 -0.19
 C -4.13 -2.40 -0.64
 N -4.40 -3.39  0.41
 C -3.48 -4.33  0.80
 N -2.66 -4.85 -0.17
 N -3.26 -4.71  2.04
 H -1.63 -2.68  0.09
 H -1.05 -1.04 -0.01
 H -3.08 -0.59 -1.06
 H -3.78 -0.61  0.54
 H -3.69 -2.90 -1.51
 H -5.10 -2.00 -0.98
 H -5.01 -3.07  1.15
 H -2.20 -5.71  0.10
 H -3.01 -4.86 -1.13
 H -3.92 -4.30  2.70
 N -0.81 -3.77  2.62
 C  0.22 -4.69  3.10
 H -1.80 -4.21  2.39
 H -0.21 -5.70  3.10
 H  0.52 -4.44  4.13
 H  1.10 -4.67  2.45
Ca  1.49 -0.24  3.66
