36
#
 C -1.60  0.14 -1.81
 C -1.29 -0.69 -0.61
 O -0.38 -1.60 -0.71
 H -0.78  0.86 -1.94
 H -2.55  0.70 -1.71
 H -1.62 -0.49 -2.70
 N -1.96 -0.46  0.51
 C -1.85 -0.97  1.88
 C -1.05 -2.24  2.14
 O -1.14 -3.29  1.42
 H -2.76  0.24  0.45
 H -1.38 -0.18  2.47
 C -3.30 -1.20  2.42
 C -4.00  0.02  3.06
 C -3.92  1.37  2.34
 N -4.14  1.23  0.89
 C -4.09  2.36  0.00
 N -3.80  3.57  0.59
 N -4.21  2.07 -1.24
 H -3.27 -1.99  3.19
 H -3.89 -1.62  1.59
 H -3.61  0.18  4.08
 H -5.06 -0.27  3.19
 H -2.93  1.82  2.48
 H -4.65  2.04  2.82
 H -4.95  0.67  0.64
 H -4.15  3.77  1.52
 H -3.79  4.37 -0.03
 H -4.26  2.90 -1.84
 N -0.33 -2.25  3.25
 C  0.35 -3.41  3.82
 H -0.27 -1.38  3.78
 H  0.29 -3.36  4.91
 H  1.41 -3.42  3.52
 H -0.14 -4.33  3.47
Ca -0.31 -3.66 -0.51
