36
#
 C  1.45  2.08  0.55
 C  0.80  1.05  1.42
 O  1.52  0.39  2.24
 H  0.74  2.63 -0.09
 H  2.19  1.58 -0.10
 H  2.00  2.80  1.16
 N -0.51  0.85  1.29
 C -1.40 -0.19  1.85
 C -1.64 -0.16  3.38
 O -0.65  0.16  4.18
 H -0.96  1.47  0.62
 H -2.37  0.07  1.43
 C -1.03 -1.63  1.39
 C -1.94 -2.20  0.29
 C -3.45 -2.07  0.54
 N -3.88 -2.44  1.89
 C -4.54 -3.54  2.23
 N -4.68 -4.59  1.40
 N -5.08 -3.61  3.47
 H -1.07 -2.30  2.26
 H  0.01 -1.66  1.04
 H -1.67 -3.26  0.15
 H -1.73 -1.71 -0.68
 H -4.01 -2.65 -0.21
 H -3.78 -1.03  0.39
 H -3.63 -1.74  2.64
 H -4.17 -4.64  0.53
 H -5.38 -5.30  1.58
 H -5.46 -4.48  3.83
 N -2.82 -0.56  3.73
 C -3.13 -0.66  5.15
 H -5.22 -2.77  4.02
 H -2.53  0.01  5.78
 H -2.96 -1.69  5.51
 H -4.19 -0.43  5.30
Ca  1.37  0.17  4.36
