36
#
 C -0.57 -1.56  0.92
 C -0.21 -0.40  1.79
 O  1.01 -0.11  2.01
 H -0.61 -1.24 -0.13
 H -1.54 -1.99  1.18
 H  0.21 -2.32  1.01
 N -1.18  0.37  2.34
 C -2.32  0.85  1.54
 C -1.78  1.72  0.35
 O -0.48  1.99  0.35
 H -0.82  1.07  2.99
 H -2.81 -0.02  1.09
 C -3.30  1.62  2.44
 C -4.27  0.75  3.26
 C -5.41  0.07  2.48
 N -6.29  1.02  1.78
 C -5.99  1.60  0.60
 N -6.49  2.81  0.31
 N -5.19  1.00 -0.30
 H -3.85  2.33  1.81
 H -2.72  2.25  3.13
 H -4.72  1.39  4.04
 H -3.72 -0.04  3.80
 H -6.04 -0.49  3.17
 H -5.03 -0.67  1.77
 H -7.08  1.39  2.30
 H -6.53  3.10 -0.66
 H -6.96  3.39  1.00
 H -5.06  0.01 -0.18
 N -2.62  2.08 -0.55
 C -2.16  2.90 -1.67
 H -4.30  1.51 -0.58
 H -2.01  3.94 -1.36
 H -2.92  2.88 -2.46
 H -1.21  2.53 -2.10
Ca  1.49  1.69  0.86
