36
#
 C -0.41  0.76 -0.50
 C -0.16  0.60  0.97
 O  0.98  0.86  1.47
 H -1.17  0.07 -0.87
 H  0.54  0.59 -1.03
 H -0.73  1.79 -0.71
 N -1.16  0.20  1.78
 C -2.50  0.80  1.70
 C -2.40  2.34  1.91
 O -1.23  2.80  2.34
 H -0.86  0.02  2.74
 H -2.88  0.65  0.68
 C -3.44  0.09  2.71
 C -4.09 -1.20  2.16
 C -5.58 -1.03  1.78
 N -5.79  0.17  0.96
 C -6.60  1.20  1.25
 N -7.79  0.97  1.84
 N -6.19  2.43  0.94
 H -4.21  0.81  3.01
 H -2.87 -0.13  3.62
 H -4.04 -2.00  2.90
 H -3.53 -1.56  1.29
 H -6.18 -0.91  2.69
 H -5.94 -1.92  1.26
 H -5.10  0.37  0.24
 H -8.33  1.73  2.23
 H -8.24  0.07  1.76
 H -6.85  3.20  0.91
 N -3.44  3.03  1.61
 C -3.43  4.48  1.79
 H -5.16  2.64  1.04
 H -3.62  4.96  0.82
 H -2.49  4.87  2.20
 H -4.25  4.77  2.46
Ca  0.80  2.74  2.57
