36
#
 C  0.39 -0.33  0.55
 C -0.35 -0.62  1.82
 O -0.29 -1.77  2.34
 H  0.09 -1.05 -0.22
 H  1.47 -0.48  0.72
 H  0.23  0.69  0.17
 N -1.07  0.38  2.37
 C -1.88  0.38  3.61
 C -0.96  0.18  4.84
 O -0.58 -0.97  5.18
 H -1.05  1.26  1.87
 H -2.30  1.39  3.64
 C -3.05 -0.64  3.68
 C -3.63 -1.22  2.39
 C -4.07 -2.68  2.60
 N -2.88 -3.53  2.88
 C -2.92 -4.67  3.71
 N -4.11 -5.26  3.96
 N -1.76 -4.99  4.23
 H -3.85 -0.15  4.26
 H -2.72 -1.47  4.32
 H -2.91 -1.19  1.56
 H -4.50 -0.65  2.05
 H -4.62 -3.04  1.73
 H -4.74 -2.74  3.47
 H -2.35 -3.72  2.03
 H -4.18 -6.01  4.63
 H -4.91 -5.10  3.36
 H -1.74 -5.89  4.71
 N -0.61  1.28  5.52
 C  0.25  1.29  6.70
 H -0.97  2.17  5.18
 H -0.20  1.95  7.46
 H  1.24  1.68  6.44
 H  0.34  0.28  7.09
Ca -0.56 -2.97  4.15
