36
#
 C  0.37 -0.38  0.94
 C -0.10  0.09  2.28
 O  0.52  1.03  2.88
 H  0.32  0.46  0.24
 H -0.22 -1.21  0.55
 H  1.43 -0.68  1.01
 N -1.17 -0.47  2.83
 C -1.89 -0.03  4.04
 C -1.11 -0.44  5.32
 O -0.14  0.32  5.67
 H -1.63 -1.21  2.30
 H -1.83  1.07  4.06
 C -3.36 -0.44  3.97
 C -4.26  0.46  3.13
 C -5.72 -0.06  3.13
 N -6.26 -0.35  4.45
 C -5.90 -1.48  5.19
 N -5.75 -2.64  4.43
 N -5.66 -1.54  6.46
 H -3.74 -0.45  5.00
 H -3.44 -1.48  3.63
 H -3.91  0.54  2.09
 H -4.25  1.48  3.55
 H -5.78 -0.97  2.51
 H -6.37  0.68  2.65
 H -6.45  0.46  5.03
 H -6.43 -2.76  3.69
 H -5.73 -3.46  5.04
 H -5.74 -0.62  6.90
 N -1.40 -1.47  6.09
 C -2.42 -2.54  5.99
 H -0.81 -1.52  6.91
 H -2.07 -3.37  6.62
 H -2.52 -2.90  4.96
 H -3.40 -2.20  6.36
Ca  1.21  1.68  4.77
