36
#
 C  0.66  1.57  1.21
 C  0.28  0.65  2.33
 O  1.13 -0.10  2.86
 H -0.16  2.17  0.82
 H  1.08  0.97  0.39
 H  1.47  2.23  1.55
 N -1.02  0.67  2.72
 C -1.68 -0.18  3.73
 C -1.18  0.18  5.14
 O -0.01 -0.11  5.51
 H -1.62  1.31  2.22
 H -2.74  0.09  3.66
 C -1.55 -1.68  3.38
 C -1.95 -2.66  4.50
 C -1.52 -4.11  4.23
 N -0.14 -4.26  3.73
 C  0.94 -3.68  4.28
 N  2.07 -3.45  3.46
 N  1.05 -3.13  5.47
 H -0.51 -1.88  3.08
 H -2.15 -1.86  2.48
 H -3.04 -2.67  4.63
 H -1.54 -2.32  5.46
 H -2.16 -4.56  3.46
 H -1.66 -4.72  5.14
 H -0.01 -4.82  2.90
 H  2.92 -3.88  3.82
 H  1.95 -3.66  2.47
 H  0.32 -3.40  6.13
 N -2.00  0.82  5.97
 C -3.38  1.27  5.74
 H -1.59  1.04  6.87
 H -3.44  2.01  4.94
 H -3.73  1.75  6.66
 H -4.05  0.43  5.53
Ca  1.83 -1.06  4.73
