36
#
 C  0.56 -0.62  0.66
 C  0.04  0.57  1.40
 O  0.67  1.66  1.38
 H -0.06 -1.51  0.76
 H  1.58 -0.84  1.02
 H  0.65 -0.36 -0.40
 N -1.10  0.43  2.09
 C -1.83  1.42  2.92
 C -2.34  2.59  2.05
 O -1.57  3.52  1.70
 H -1.53 -0.49  2.05
 H -2.69  0.86  3.30
 C -1.06  2.00  4.13
 C  0.07  1.18  4.76
 C  0.94  2.07  5.68
 N  1.47  3.24  4.98
 C  2.53  3.30  4.12
 N  3.61  2.54  4.41
 N  2.42  4.08  3.04
 H -1.81  2.24  4.89
 H -0.65  2.97  3.82
 H  0.72  0.75  3.99
 H -0.32  0.34  5.35
 H  1.77  1.47  6.09
 H  0.37  2.43  6.54
 H  0.88  4.07  4.96
 H  4.38  2.49  3.76
 H  3.80  2.26  5.36
 H  3.34  4.33  2.68
 N -3.62  2.57  1.70
 C -4.29  3.59  0.89
 H -4.19  1.78  2.01
 H -5.30  3.75  1.28
 H -4.35  3.27 -0.16
 H -3.72  4.52  0.95
Ca  0.65  3.83  1.57
