36
#
 C  0.29  0.41  0.36
 C -0.04  0.01  1.76
 O  0.90 -0.16  2.60
 H  0.58 -0.47 -0.24
 H  1.17  1.06  0.41
 H -0.53  0.93 -0.14
 N -1.32 -0.12  2.20
 C -2.37 -0.99  1.65
 C -2.04 -2.44  2.11
 O -0.83 -2.74  2.46
 H -1.34 -0.12  3.22
 H -3.30 -0.70  2.16
 C -2.66 -0.85  0.14
 C -3.47  0.42 -0.19
 C -4.89  0.18 -0.79
 N -5.55 -1.06 -0.40
 C -5.59 -1.54  0.89
 N -5.61 -0.58  1.89
 N -5.51 -2.80  1.24
 H -3.24 -1.74 -0.14
 H -1.74 -0.92 -0.45
 H -2.92  1.05 -0.91
 H -3.56  1.03  0.72
 H -4.84  0.15 -1.89
 H -5.53  1.05 -0.56
 H -5.55 -1.79 -1.10
 H -5.96 -0.96  2.77
 H -6.03  0.31  1.65
 H -5.52 -3.42  0.43
 N -3.02 -3.30  2.18
 C -2.85 -4.68  2.61
 H -4.04 -3.03  1.88
 H -3.82 -5.18  2.55
 H -2.50 -4.73  3.65
 H -2.13 -5.21  1.97
Ca  1.06 -2.22  3.23
