36
#
 C -0.09 -0.13  0.11
 C -0.14 -0.01  1.60
 O  0.94 -0.08  2.28
 H  0.11 -1.17 -0.17
 H  0.75  0.47 -0.26
 H -1.01  0.20 -0.38
 N -1.28  0.17  2.25
 C -2.68  0.05  1.84
 C -3.46  0.51  3.11
 O -2.92  0.45  4.23
 H -1.23  0.33  3.26
 H -2.89  0.77  1.03
 C -3.09 -1.38  1.35
 C -2.33 -2.61  1.88
 C -2.57 -3.08  3.33
 N -2.01 -2.22  4.37
 C -0.71 -2.07  4.63
 N -0.32 -0.93  5.41
 N  0.33 -2.77  4.21
 H -2.96 -1.38  0.26
 H -4.17 -1.49  1.52
 H -1.25 -2.51  1.71
 H -2.64 -3.45  1.24
 H -2.17 -4.10  3.45
 H -3.65 -3.16  3.54
 H -2.61 -1.49  4.73
 H -1.06 -0.21  5.45
 H -0.10 -1.20  6.37
 H  0.09 -3.63  3.72
 N -4.71  0.92  2.90
 C -5.62  1.36  3.96
 H -5.05  0.97  1.95
 H -6.02  2.35  3.73
 H -5.07  1.40  4.91
 H -6.46  0.65  4.06
Ca  1.79 -1.02  4.00
