36
#
 C  0.50  0.53  1.39
 C -0.04  0.47  2.78
 O  0.64  0.84  3.77
 H  0.30  1.52  0.95
 H  0.08 -0.23  0.73
 H  1.59  0.42  1.44
 N -1.32  0.03  3.00
 C -2.46  0.39  2.16
 C -2.61  1.94  2.19
 O -2.03  2.63  3.07
 H -1.53 -0.13  3.99
 H -2.25  0.10  1.12
 C -3.73 -0.38  2.62
 C -3.96 -0.52  4.13
 C -4.22  0.78  4.91
 N -4.02  0.62  6.35
 C -2.81  0.47  6.95
 N -2.81 -0.04  8.20
 N -1.68  0.80  6.31
 H -3.67 -1.38  2.19
 H -4.61  0.10  2.15
 H -3.12 -1.07  4.59
 H -4.82 -1.20  4.27
 H -5.25  1.12  4.77
 H -3.59  1.60  4.56
 H -4.84  0.47  6.92
 H -1.98  0.02  8.78
 H -3.64 -0.41  8.63
 H -0.90  0.39  6.82
 N -3.36  2.50  1.25
 C -3.61  3.94  1.16
 H -3.78  1.90  0.55
 H -2.67  4.48  1.02
 H -4.11  4.30  2.06
 H -4.26  4.12  0.29
Ca -0.70  2.29  4.85
