36
#
 C  0.67 -1.73  0.70
 C  0.44 -0.66  1.71
 O  1.36  0.20  1.94
 H  1.74 -1.87  0.53
 H  0.20 -1.44 -0.25
 H  0.22 -2.68  1.00
 N -0.73 -0.62  2.35
 C -1.19  0.49  3.21
 C -0.53  0.42  4.61
 O  0.69  0.77  4.74
 H -1.48 -1.28  2.03
 H -0.79  1.42  2.78
 C -2.72  0.59  3.17
 C -3.55 -0.69  3.48
 C -4.13 -1.40  2.24
 N -3.09 -1.94  1.35
 C -2.85 -1.47  0.02
 N -3.20 -0.14 -0.21
 N -2.21 -2.12 -0.88
 H -2.97  0.95  2.17
 H -3.01  1.40  3.86
 H -4.40 -0.41  4.12
 H -2.97 -1.43  4.05
 H -4.80 -0.72  1.70
 H -4.76 -2.23  2.58
 H -3.08 -2.96  1.35
 H -3.05  0.09 -1.18
 H -4.14  0.13  0.08
 H -1.95 -3.07 -0.59
 N -1.25  0.05  5.65
 C -0.78 -0.03  7.03
 H -2.21 -0.22  5.48
 H -1.52  0.45  7.69
 H  0.18  0.50  7.12
 H -0.65 -1.07  7.33
Ca  2.36  1.19  3.48
