36
#
 C -1.19  0.68  0.77
 C -1.75 -0.01  1.97
 O -2.19 -1.19  1.89
 H -0.32  0.11  0.41
 H -0.89  1.71  0.96
 H -1.93  0.66 -0.04
 N -1.78  0.67  3.13
 C -2.27  0.24  4.46
 C -1.39 -0.93  4.97
 O -1.65 -2.12  4.64
 H -1.42  1.62  3.09
 H -2.10  1.11  5.09
 C -3.76 -0.16  4.57
 C -4.75  0.34  3.50
 C -5.83 -0.72  3.23
 N -5.22 -1.91  2.61
 C -5.73 -3.23  2.80
 N -6.99 -3.38  3.21
 N -4.83 -4.16  2.61
 H -4.10  0.16  5.56
 H -3.82 -1.26  4.60
 H -4.25  0.58  2.56
 H -5.25  1.27  3.83
 H -6.63 -0.29  2.60
 H -6.29 -1.03  4.18
 H -5.02 -1.76  1.62
 H -7.35 -4.30  3.46
 H -7.68 -2.64  3.13
 H -5.20 -5.11  2.60
 N -0.35 -0.66  5.75
 C  0.12  0.64  6.24
 H  0.19 -1.48  6.04
 H  1.02  0.47  6.84
 H -0.63  1.12  6.88
 H  0.39  1.30  5.41
Ca -2.80 -3.03  2.94
