36
#
 C  0.78 -0.61  2.83
 C  0.08 -1.28  1.69
 O  0.12 -2.53  1.54
 H  0.14 -0.65  3.73
 H  1.04  0.43  2.63
 H  1.68 -1.19  3.07
 N -0.62 -0.54  0.79
 C -1.52  0.54  1.18
 C -2.74 -0.10  1.93
 O -2.83 -1.35  2.07
 H -0.93 -1.08 -0.02
 H -1.00  1.15  1.93
 C -1.86  1.47 -0.01
 C -2.19  0.87 -1.39
 C -3.49  0.07 -1.55
 N -3.44 -1.28 -0.99
 C -2.84 -2.38 -1.52
 N -2.49 -2.35 -2.82
 N -2.56 -3.40 -0.70
 H -0.99  2.12 -0.14
 H -2.68  2.14  0.29
 H -1.34  0.27 -1.77
 H -2.25  1.72 -2.08
 H -3.77  0.03 -2.61
 H -4.33  0.58 -1.06
 H -3.94 -1.45 -0.12
 H -2.94 -1.71 -3.47
 H -1.99 -3.13 -3.23
 H -2.34 -4.24 -1.25
 N -3.63  0.74  2.45
 C -4.79  0.36  3.25
 H -3.47  1.74  2.32
 H -5.70  0.78  2.80
 H -4.69  0.75  4.27
 H -4.87 -0.73  3.28
Ca -1.95 -3.35  1.51
