36
#
 C  2.70 -0.97  3.15
 C  1.38 -0.98  3.85
 O  1.14 -1.82  4.77
 H  3.49 -0.78  3.89
 H  2.77 -0.22  2.36
 H  2.89 -1.96  2.72
 N  0.45 -0.08  3.50
 C -0.83  0.08  4.22
 C -1.73 -1.15  4.00
 O -1.82 -2.00  4.97
 H  0.68  0.60  2.78
 H -0.58  0.04  5.29
 C -1.48  1.44  3.95
 C -2.63  1.71  4.93
 C -3.52  2.90  4.52
 N -4.26  2.66  3.30
 C -3.78  2.98  2.03
 N -3.31  4.27  1.90
 N -3.79  2.05  1.12
 H -1.84  1.50  2.91
 H -0.70  2.21  4.07
 H -2.22  1.89  5.94
 H -3.28  0.82  5.02
 H -2.90  3.81  4.39
 H -4.22  3.12  5.34
 H -4.78  1.79  3.27
 H -3.02  4.55  0.98
 H -3.81  4.99  2.42
 H -3.64  2.43  0.18
 N -2.38 -1.38  2.87
 C -2.36 -0.67  1.59
 H -2.98 -2.21  2.91
 H -2.68 -1.38  0.82
 H -1.34 -0.34  1.36
 H -3.04  0.21  1.56
Ca -0.21 -2.93  5.98
