36
#
 C -1.29  0.28  0.16
 C -1.08  0.50  1.62
 O -0.13  1.27  2.03
 H -1.33  1.26 -0.34
 H -2.20 -0.29 -0.07
 H -0.41 -0.24 -0.25
 N -1.87 -0.11  2.50
 C -1.83  0.18  3.93
 C -0.48 -0.24  4.58
 O  0.31  0.72  4.90
 H -2.77 -0.58  2.18
 H -1.77  1.28  4.04
 C -3.16 -0.18  4.64
 C -3.82 -1.58  4.63
 C -4.07 -2.30  3.29
 N -4.31 -1.39  2.17
 C -4.27 -1.82  0.80
 N -3.63 -3.03  0.59
 N -4.62 -1.09 -0.19
 H -3.87  0.55  4.23
 H -3.04  0.11  5.69
 H -4.79 -1.41  5.12
 H -3.29 -2.27  5.30
 H -4.89 -3.02  3.44
 H -3.19 -2.90  3.02
 H -5.12 -0.78  2.32
 H -3.65 -3.29 -0.39
 H -3.91 -3.81  1.19
 H -4.99 -0.18  0.08
 N -0.09 -1.48  4.81
 C -0.68 -2.75  4.42
 H  0.81 -1.53  5.29
 H -1.22 -3.21  5.26
 H  0.13 -3.43  4.13
 H -1.34 -2.62  3.56
Ca  1.08  2.14  3.50
