36
#
 C  0.01  2.59  0.86
 C -0.05  1.30  1.61
 O  1.01  0.86  2.19
 H  0.96  2.66  0.31
 H  0.01  3.42  1.59
 H -0.82  2.74  0.17
 N -1.16  0.60  1.72
 C -2.53  0.83  1.25
 C -3.37  0.45  2.51
 O -2.90 -0.41  3.26
 H -1.20 -0.14  2.44
 H -2.67  1.88  0.95
 C -2.94 -0.15  0.12
 C -2.24 -0.09 -1.25
 C -0.75 -0.44 -1.35
 N -0.37 -1.60 -0.54
 C  0.82 -1.73  0.06
 N  0.93 -2.58  1.19
 N  1.91 -1.04 -0.17
 H -4.01  0.02 -0.06
 H -2.89 -1.17  0.54
 H -2.36  0.91 -1.70
 H -2.80 -0.77 -1.91
 H -0.12  0.40 -1.01
 H -0.50 -0.62 -2.41
 H -1.06 -2.34 -0.40
 H  1.53 -3.40  1.01
 H  0.04 -2.90  1.59
 H  1.92 -0.53 -1.06
 N -4.57  1.03  2.64
 C -5.51  0.72  3.72
 H -4.84  1.74  1.97
 H -6.45  0.35  3.31
 H -5.70  1.62  4.32
 H -5.06 -0.04  4.36
Ca  2.47 -0.65  2.01
