36
#
 C -1.27  0.61 -0.17
 C -1.04  0.33  1.28
 O  0.16  0.29  1.73
 H -2.33  0.67 -0.44
 H -0.79 -0.20 -0.75
 H -0.76  1.54 -0.45
 N -2.10  0.14  2.07
 C -2.18 -0.31  3.48
 C -1.62  0.69  4.50
 O -0.38  1.00  4.52
 H -3.00  0.20  1.61
 H -3.26 -0.33  3.64
 C -1.65 -1.75  3.67
 C -1.79 -2.36  5.08
 C -3.18 -2.33  5.76
 N -4.33 -2.47  4.88
 C -5.02 -1.41  4.32
 N -5.09 -0.25  5.15
 N -5.54 -1.32  3.15
 H -0.59 -1.81  3.36
 H -2.20 -2.36  2.94
 H -1.07 -1.89  5.77
 H -1.46 -3.40  4.98
 H -3.30 -1.40  6.33
 H -3.21 -3.14  6.51
 H -4.38 -3.33  4.34
 H -5.80  0.37  4.74
 H -5.39 -0.49  6.10
 H -5.39 -2.16  2.58
 N -2.49  1.14  5.37
 C -2.18  2.03  6.48
 H -3.47  0.76  5.30
 H -2.62  1.63  7.40
 H -2.62  3.02  6.30
 H -1.10  2.13  6.60
Ca  1.37  0.82  3.36
