36
#
 C -0.54 -0.07 -0.24
 C -0.40 -0.32  1.21
 O  0.76 -0.43  1.77
 H -0.91  0.96 -0.42
 H -1.31 -0.75 -0.67
 H  0.43 -0.19 -0.73
 N -1.48 -0.45  2.01
 C -2.64  0.44  1.98
 C -2.20  1.76  2.67
 O -0.98  1.94  3.02
 H -1.27 -0.84  2.93
 H -2.86  0.70  0.92
 C -3.85 -0.29  2.61
 C -5.27  0.24  2.37
 C -5.70  0.46  0.90
 N -5.27 -0.59 -0.02
 C -4.11 -0.54 -0.77
 N -3.75  0.76 -1.17
 N -3.33 -1.51 -1.09
 H -3.69 -0.38  3.70
 H -3.80 -1.31  2.20
 H -5.48  1.17  2.94
 H -5.94 -0.49  2.83
 H -5.31  1.41  0.52
 H -6.80  0.55  0.87
 H -5.59 -1.53  0.19
 H -3.07  0.69 -1.94
 H -4.53  1.34 -1.47
 H -3.61 -2.40 -0.69
 N -3.10  2.70  2.87
 C -2.84  4.00  3.48
 H -4.06  2.49  2.58
 H -3.76  4.58  3.48
 H -2.07  4.55  2.91
 H -2.49  3.88  4.51
Ca  1.05  1.22  3.10
