36
#
 C  0.77  1.26  1.08
 C  0.44  0.85  2.47
 O  1.34  0.80  3.37
 H  0.94  2.35  1.03
 H -0.00  0.99  0.35
 H  1.72  0.79  0.80
 N -0.83  0.54  2.82
 C -1.98  1.37  2.45
 C -1.74  2.78  3.05
 O -0.82  2.95  3.93
 H -0.92  0.10  3.74
 H -2.04  1.45  1.35
 C -3.29  0.75  2.99
 C -3.78 -0.52  2.26
 C -2.95 -1.81  2.49
 N -3.69 -3.02  2.28
 C -4.65 -3.46  3.20
 N -5.39 -4.53  2.76
 N -4.89 -2.96  4.37
 H -4.08  1.51  2.93
 H -3.16  0.54  4.07
 H -3.88 -0.32  1.19
 H -4.80 -0.71  2.63
 H -2.57 -1.83  3.52
 H -2.07 -1.83  1.83
 H -3.83 -3.31  1.31
 H -6.00 -4.92  3.47
 H -4.94 -5.22  2.17
 H -4.34 -2.12  4.56
 N -2.47  3.81  2.67
 C -3.55  3.87  1.67
 H -2.27  4.68  3.16
 H -3.49  3.03  0.98
 H -3.44  4.80  1.10
 H -4.53  3.86  2.16
Ca  1.02  2.33  4.87
