36
#
 C -2.47  2.07  0.85
 C -1.80  1.42  2.02
 O -0.62  1.80  2.35
 H -3.49  1.72  0.69
 H -1.88  1.90 -0.06
 H -2.48  3.16  1.02
 N -2.45  0.48  2.69
 C -1.97 -0.09  3.96
 C -0.96 -1.22  3.67
 O  0.21 -0.90  3.27
 H -3.34  0.09  2.24
 H -1.35  0.69  4.44
 C -3.10 -0.42  4.95
 C -4.36 -1.12  4.40
 C -5.43 -0.09  3.96
 N -6.33 -0.54  2.90
 C -6.00 -0.31  1.57
 N -4.64 -0.68  1.27
 N -6.70  0.15  0.61
 H -3.40  0.53  5.42
 H -2.65 -1.00  5.78
 H -4.79 -1.77  5.18
 H -4.12 -1.78  3.56
 H -4.94  0.86  3.67
 H -6.05  0.16  4.83
 H -7.32 -0.37  3.09
 H -4.53 -0.53  0.26
 H -4.52 -1.69  1.44
 H -7.62  0.49  0.90
 N -1.31 -2.48  3.85
 C -0.46 -3.65  3.64
 H -2.25 -2.65  4.19
 H -0.91 -4.30  2.88
 H -0.37 -4.21  4.58
 H  0.53 -3.33  3.31
Ca  1.23  0.90  2.73
