36
#
 C -0.50  0.04  0.58
 C -1.08  0.08  1.95
 O -0.41  0.54  2.93
 H -0.24  1.07  0.28
 H -1.17 -0.39 -0.16
 H  0.44 -0.52  0.60
 N -2.33 -0.36  2.14
 C -3.06 -0.25  3.42
 C -2.46 -1.22  4.47
 O -1.65 -0.70  5.32
 H -2.84 -0.70  1.34
 H -2.82  0.75  3.83
 C -4.58 -0.29  3.19
 C -5.37 -0.07  4.49
 C -6.90 -0.21  4.31
 N -7.30 -1.33  3.47
 C -6.99 -2.65  3.76
 N -7.20 -3.53  2.72
 N -6.39 -3.08  4.83
 H -4.88 -1.24  2.73
 H -4.82  0.50  2.46
 H -5.18  0.93  4.89
 H -5.02 -0.78  5.25
 H -7.36 -0.25  5.31
 H -7.29  0.69  3.83
 H -8.08 -1.16  2.85
 H -7.34 -4.49  3.01
 H -7.77 -3.24  1.94
 H -6.41 -2.38  5.58
 N -2.69 -2.51  4.50
 C -3.52 -3.38  3.67
 H -2.23 -2.98  5.29
 H -3.05 -4.36  3.64
 H -3.59 -2.99  2.65
 H -4.54 -3.47  4.12
Ca  0.00  0.58  5.02
