36
#
 C  0.23 -0.14  0.44
 C  0.11 -0.06  1.93
 O  1.15 -0.12  2.67
 H  0.39  0.86  0.02
 H -0.66 -0.57 -0.03
 H  1.11 -0.75  0.19
 N -1.10  0.11  2.50
 C -2.05  1.11  2.01
 C -1.39  2.52  2.05
 O -0.24  2.62  2.70
 H -1.07  0.04  3.52
 H -2.25  0.90  0.95
 C -3.37  1.02  2.81
 C -4.37 -0.03  2.26
 C -5.55  0.59  1.50
 N -5.10  1.59  0.52
 C -5.47  2.89  0.48
 N -6.73  3.23  0.76
 N -4.54  3.79  0.16
 H -3.82  2.01  2.83
 H -3.12  0.79  3.86
 H -4.79 -0.63  3.07
 H -3.84 -0.74  1.61
 H -6.22  1.11  2.20
 H -6.13 -0.19  1.00
 H -4.26  1.38 -0.01
 H -6.99  4.20  0.92
 H -7.48  2.56  0.67
 H -4.81  4.73 -0.12
 N -1.98  3.47  1.42
 C -1.37  4.80  1.45
 H -3.56  3.63  0.49
 H -2.04  5.52  0.95
 H -0.41  4.81  0.92
 H -1.20  5.15  2.48
Ca  1.53  1.88  3.45
