36
#
 C  0.31  0.43  0.66
 C -0.01  0.39  2.12
 O  0.91  0.57  2.99
 H -0.45 -0.05  0.05
 H  1.28 -0.06  0.51
 H  0.44  1.48  0.33
 N -1.27  0.19  2.54
 C -2.42  0.92  1.98
 C -2.18  2.43  2.21
 O -1.24  2.82  3.02
 H -1.36  0.01  3.54
 H -2.47  0.74  0.90
 C -3.73  0.45  2.63
 C -4.22 -0.91  2.13
 C -5.72 -1.13  2.43
 N -6.56 -0.09  1.86
 C -6.96  1.04  2.57
 N -7.57  0.75  3.78
 N -6.72  2.21  2.08
 H -4.50  1.20  2.42
 H -3.61  0.46  3.73
 H -3.63 -1.74  2.56
 H -4.08 -0.97  1.04
 H -5.89 -1.16  3.52
 H -6.01 -2.12  2.04
 H -6.36  0.15  0.89
 H -7.93  1.54  4.31
 H -8.15 -0.08  3.82
 H -7.25  2.95  2.56
 N -2.92  3.32  1.59
 C -4.01  3.09  0.62
 H -2.74  4.29  1.85
 H -4.12  4.00  0.03
 H -4.97  2.86  1.14
 H -3.75  2.27 -0.05
Ca  0.60  2.45  4.01
