36
#
 C  0.28  1.27  0.12
 C -0.22  0.42  1.23
 O  0.58 -0.33  1.89
 H  0.66  2.23  0.51
 H -0.49  1.49 -0.63
 H  1.13  0.76 -0.36
 N -1.52  0.47  1.59
 C -2.21  1.75  1.79
 C -1.53  2.52  2.97
 O -0.76  1.78  3.76
 H -1.76 -0.23  2.30
 H -2.08  2.35  0.87
 C -3.72  1.56  2.01
 C -4.18  0.84  3.29
 C -4.03  1.56  4.64
 N -4.83  2.80  4.72
 C -4.49  3.90  5.42
 N -5.46  4.66  5.95
 N -3.20  4.24  5.58
 H -4.11  1.01  1.14
 H -4.19  2.55  1.96
 H -3.68 -0.14  3.40
 H -5.24  0.57  3.15
 H -2.99  1.81  4.86
 H -4.38  0.87  5.43
 H -5.82  2.69  4.54
 H -5.28  5.61  6.26
 H -6.40  4.29  6.10
 H -2.98  5.00  6.21
 N -1.75  3.75  3.24
 C -2.47  4.64  2.33
 H -2.49  4.01  4.84
 H -2.02  5.64  2.40
 H -3.52  4.74  2.62
 H -2.44  4.33  1.27
Ca  0.82  0.47  3.91
