36
#
 C -1.04 -0.22 -1.60
 C -0.70 -0.88 -0.31
 O -0.40 -2.13 -0.30
 H -0.58  0.78 -1.73
 H -2.13 -0.05 -1.66
 H -0.76 -0.88 -2.42
 N -0.67 -0.23  0.88
 C -1.70  0.67  1.41
 C -2.95 -0.19  1.73
 O -3.00 -1.43  1.41
 H -0.21 -0.79  1.60
 H -1.30  1.04  2.36
 C -1.99  1.88  0.50
 C -2.24  3.23  1.18
 C -1.98  4.40  0.19
 N -0.59  4.53 -0.20
 C  0.04  3.79 -1.18
 N  1.41  3.87 -1.17
 N -0.54  2.98 -2.04
 H -2.82  1.65 -0.19
 H -1.10  2.00 -0.14
 H -1.56  3.36  2.04
 H -3.27  3.33  1.56
 H -2.28  5.34  0.67
 H -2.63  4.29 -0.70
 H -0.07  5.29  0.23
 H  1.86  3.64 -2.05
 H  1.88  4.55 -0.59
 H -1.55  3.14 -2.06
 N -3.96  0.40  2.34
 C -5.22 -0.27  2.71
 H -3.87  1.39  2.56
 H -5.88  0.48  3.16
 H -5.02 -1.06  3.44
 H -5.70 -0.70  1.82
Ca -2.01 -3.18  0.63
