36
#
 C  0.52  0.47  1.10
 C -0.39 -0.09  2.14
 O  0.09 -0.68  3.17
 H  1.29  1.12  1.55
 H -0.00  1.00  0.30
 H  1.06 -0.38  0.66
 N -1.73  0.02  2.02
 C -2.42  1.28  1.69
 C -1.88  2.36  2.64
 O -1.39  2.01  3.78
 H -2.27 -0.60  2.63
 H -2.25  1.54  0.64
 C -3.93  1.02  1.94
 C -4.93  2.01  1.33
 C -6.39  1.56  1.60
 N -6.70  0.20  1.19
 C -6.30 -0.93  1.91
 N -6.36 -0.77  3.31
 N -5.88 -2.05  1.44
 H -4.10  0.93  3.02
 H -4.13  0.03  1.51
 H -4.77  2.08  0.25
 H -4.82  3.02  1.75
 H -7.07  2.24  1.06
 H -6.62  1.67  2.66
 H -6.73  0.04  0.19
 H -6.27 -1.68  3.75
 H -7.21 -0.29  3.63
 H -5.79 -2.04  0.42
 N -1.92  3.65  2.33
 C -2.34  4.31  1.09
 H -1.59  4.27  3.08
 H -1.52  4.94  0.74
 H -3.21  4.94  1.29
 H -2.59  3.58  0.32
Ca -0.42  0.47  4.92
