36
#
 C -1.86  1.79  1.72
 C -1.44  0.59  2.51
 O -0.32  0.03  2.24
 H -1.86  1.53  0.65
 H -1.13  2.59  1.86
 H -2.85  2.16  2.01
 N -2.24  0.15  3.47
 C -2.12 -1.08  4.28
 C -0.83 -1.13  5.10
 O  0.26 -1.57  4.59
 H -3.21  0.54  3.51
 H -2.94 -1.00  5.00
 C -2.38 -2.37  3.46
 C -3.68 -2.32  2.63
 C -5.02 -2.51  3.37
 N -5.16 -1.80  4.65
 C -5.24 -0.44  4.88
 N -5.10  0.39  3.74
 N -5.31  0.15  6.03
 H -2.41 -3.21  4.16
 H -1.54 -2.56  2.78
 H -3.63 -3.12  1.88
 H -3.69 -1.38  2.04
 H -5.14 -3.57  3.62
 H -5.84 -2.27  2.68
 H -5.45 -2.37  5.44
 H -5.43  1.32  4.00
 H -5.62  0.06  2.93
 H -5.38 -0.51  6.81
 N -0.84 -0.75  6.37
 C -1.93 -0.20  7.19
 H  0.05 -0.88  6.84
 H -2.27 -0.95  7.91
 H -2.77  0.15  6.58
 H -1.53  0.66  7.75
Ca  1.24 -1.27  2.74
