36
#
 C -0.57 -0.21 -0.03
 C -0.27 -0.19  1.43
 O  0.89 -0.48  1.87
 H -0.38 -1.24 -0.38
 H  0.12  0.44 -0.58
 H -1.60  0.05 -0.26
 N -1.23  0.15  2.32
 C -2.04  1.39  2.19
 C -1.04  2.52  1.84
 O  0.14  2.48  2.37
 H -0.98 -0.05  3.29
 H -2.76  1.29  1.37
 C -2.77  1.57  3.54
 C -3.72  2.76  3.75
 C -5.13  2.66  3.15
 N -5.18  2.62  1.68
 C -4.51  3.54  0.92
 N -4.44  4.81  1.41
 N -3.83  3.27 -0.18
 H -1.99  1.62  4.32
 H -3.32  0.63  3.72
 H -3.24  3.70  3.41
 H -3.84  2.88  4.84
 H -5.74  3.50  3.53
 H -5.64  1.75  3.51
 H -5.25  1.70  1.27
 H -4.18  5.51  0.72
 H -5.15  5.11  2.07
 H -3.98  2.31 -0.50
 N -1.39  3.44  0.99
 C -0.53  4.56  0.60
 H -2.37  3.37  0.48
 H -1.07  5.15 -0.15
 H  0.41  4.20  0.17
 H -0.31  5.19  1.47
Ca  1.84  1.27  2.73
