36
#
 C  0.21 -0.75 -0.63
 C -0.25 -0.41  0.75
 O  0.41 -0.86  1.77
 H  1.24 -0.40 -0.78
 H -0.42 -0.30 -1.41
 H  0.20 -1.84 -0.76
 N -1.31  0.34  0.90
 C -1.96  0.78  2.13
 C -3.31  1.37  1.61
 O -3.39  1.63  0.41
 H -1.85  0.71  0.09
 H -2.14 -0.10  2.78
 C -1.10  1.82  2.88
 C -1.47  2.03  4.36
 C -0.23  2.27  5.23
 N  0.61  1.07  5.22
 C  1.96  1.00  5.18
 N  2.68  2.09  5.51
 N  2.52 -0.15  4.77
 H -1.14  2.78  2.33
 H -0.06  1.48  2.82
 H -2.00  1.14  4.75
 H -2.16  2.87  4.48
 H -0.53  2.52  6.26
 H  0.35  3.11  4.84
 H  0.14  0.18  5.37
 H  2.28  2.84  6.06
 H  3.68  2.12  5.35
 H  3.49 -0.22  5.10
 N -4.27  1.59  2.52
 C -5.57  2.17  2.18
 H -4.14  1.25  3.47
 H -5.86  2.90  2.94
 H -6.34  1.39  2.11
 H -5.48  2.66  1.21
Ca  1.86 -1.54  3.11
