36
#
 C  0.48 -0.04  0.15
 C  0.51  0.33  1.58
 O  1.60  0.66  2.16
 H  1.16  0.60 -0.43
 H -0.52 -0.09 -0.31
 H  0.90 -1.06  0.09
 N -0.62  0.30  2.34
 C -1.87  0.93  1.94
 C -1.61  2.45  1.82
 O -0.52  2.96  2.28
 H -0.43  0.36  3.34
 H -2.15  0.56  0.94
 C -2.98  0.60  2.97
 C -3.37 -0.88  3.04
 C -4.41 -1.35  2.01
 N -4.12 -0.93  0.64
 C -3.00 -1.31 -0.10
 N -2.24 -2.33  0.45
 N -2.55 -0.71 -1.15
 H -3.87  1.21  2.74
 H -2.63  0.94  3.95
 H -3.79 -1.08  4.04
 H -2.46 -1.50  2.97
 H -5.39 -0.91  2.26
 H -4.54 -2.44  2.10
 H -4.90 -0.60  0.09
 H -1.57 -2.70 -0.22
 H -2.75 -3.07  0.92
 H -3.17  0.06 -1.45
 N -2.49  3.24  1.24
 C -3.75  2.89  0.59
 H -2.25  4.24  1.24
 H -3.82  1.81  0.44
 H -3.80  3.39 -0.39
 H -4.60  3.23  1.20
Ca  1.55  2.70  2.79
