36
#
 C  0.16  1.39  0.74
 C  0.18  0.23  1.68
 O  1.04  0.13  2.59
 H -0.34  2.25  1.22
 H -0.34  1.17 -0.21
 H  1.20  1.70  0.54
 N -0.77 -0.75  1.59
 C -2.19 -0.50  1.41
 C -2.64  0.45  2.55
 O -1.98  0.45  3.63
 H -0.59 -1.51  2.25
 H -2.36 -0.04  0.42
 C -3.01 -1.81  1.54
 C -2.49 -3.07  0.84
 C -1.40 -3.89  1.57
 N -1.72 -4.17  2.98
 C -1.31 -3.43  4.04
 N -2.06 -3.49  5.17
 N -0.26 -2.60  4.02
 H -4.02 -1.59  1.16
 H -3.16 -2.02  2.61
 H -2.10 -2.83 -0.17
 H -3.35 -3.72  0.68
 H -0.42 -3.42  1.51
 H -1.29 -4.86  1.06
 H -2.39 -4.91  3.15
 H -1.58 -3.39  6.06
 H -2.92 -4.03  5.19
 H  0.45 -2.95  3.36
 N -3.72  1.20  2.43
 C -4.64  1.33  1.29
 H -3.96  1.74  3.26
 H -4.15  1.02  0.36
 H -4.93  2.38  1.19
 H -5.54  0.72  1.45
Ca -0.06 -0.34  4.49
