36
#
 C -0.49 -0.73 -0.05
 C -0.53 -0.76  1.45
 O  0.53 -0.78  2.13
 H -1.48 -0.71 -0.51
 H  0.07 -1.60 -0.41
 H  0.07  0.16 -0.36
 N -1.73 -0.78  2.06
 C -1.84 -0.73  3.52
 C -1.42 -2.07  4.16
 O -0.29 -2.11  4.75
 H -2.57 -0.74  1.49
 H -1.04 -0.05  3.84
 C -3.17 -0.12  4.04
 C -3.01  1.29  4.62
 C -2.31  1.37  5.99
 N -0.90  0.96  6.00
 C  0.16  1.68  5.56
 N  0.03  3.02  5.47
 N  1.26  1.03  5.19
 H -3.61 -0.78  4.80
 H -3.90 -0.09  3.22
 H -4.01  1.73  4.74
 H -2.48  1.94  3.90
 H -2.83  0.72  6.72
 H -2.42  2.39  6.40
 H -0.69  0.02  6.31
 H  0.79  3.58  5.10
 H -0.67  3.52  6.02
 H  2.06  1.67  5.15
 N -2.18 -3.15  4.12
 C -3.50 -3.35  3.52
 H -1.78 -3.96  4.59
 H -3.51 -4.31  2.99
 H -3.72 -2.56  2.79
 H -4.28 -3.36  4.29
Ca  1.52 -0.99  4.10
