36
#
 C -0.55 -0.22  1.70
 C -1.01 -0.42  3.12
 O -0.33  0.16  4.07
 H -0.34 -1.18  1.21
 H  0.36  0.38  1.69
 H -1.32  0.29  1.11
 N -2.03 -1.17  3.55
 C -2.59 -2.28  2.76
 C -1.48 -3.37  2.75
 O -0.67 -3.39  3.73
 H -1.85  2.06  3.97
 H -3.35 -2.73  3.42
 C -3.33 -1.97  1.45
 C -4.62 -1.12  1.64
 C -4.52  0.41  1.52
 N -3.76  1.02  2.62
 C -3.48  2.32  2.74
 N -4.13  3.23  2.00
 N -2.52  2.72  3.59
 H -3.67 -2.92  1.03
 H -2.67 -1.52  0.70
 H -5.10 -1.38  2.59
 H -5.33 -1.42  0.86
 H -5.55  0.80  1.52
 H -4.05  0.69  0.56
 H -3.29  0.37  3.26
 H -3.86  4.20  2.01
 H -4.99  2.99  1.51
 H -2.41  3.69  3.84
 N -1.44 -4.27  1.79
 C -0.51 -5.41  1.73
 H -2.12 -4.20  1.04
 H  0.02 -5.40  0.77
 H -1.07 -6.35  1.83
 H  0.20 -5.32  2.55
Ca -0.55 -1.73  5.23
