36
#
 C -1.38 -0.20  0.40
 C -0.89 -0.26  1.82
 O  0.42 -0.30  1.97
 H -1.03 -1.09 -0.15
 H -0.95  0.67 -0.10
 H -2.47 -0.15  0.35
 N -1.76 -0.26  2.79
 C -1.35 -0.38  4.20
 C -0.33  0.68  4.64
 O  0.92  0.44  4.71
 H -3.34 -0.87  2.66
 H -2.26 -0.17  4.78
 C -0.92 -1.82  4.58
 C -1.89 -2.90  4.08
 C -3.20 -3.11  4.83
 N -4.19 -1.99  4.90
 C -4.93 -1.52  3.86
 N -6.24 -1.33  4.05
 N -4.35 -1.23  2.70
 H -0.80 -1.88  5.67
 H  0.06 -2.04  4.14
 H -1.37 -3.87  4.16
 H -2.08 -2.78  3.00
 H -2.98 -3.34  5.88
 H -3.70 -3.99  4.41
 H -4.68 -1.96  5.79
 H -6.79 -0.77  3.41
 H -6.75 -1.83  4.77
 H -4.95 -1.03  1.90
 N -0.77  1.89  4.96
 C -2.15  2.38  4.92
 H -0.05  2.54  5.27
 H -2.68  1.98  4.05
 H -2.12  3.47  4.84
 H -2.69  2.12  5.85
Ca  2.12 -0.23  3.07
