36
#
 C -0.41  2.40  0.16
 C -0.37  1.25  0.92
 O  0.57  1.04  1.80
 H  0.54  2.91 -0.02
 H -1.22  2.64 -0.53
 H  0.70 -1.05 -1.73
 N -1.44  0.30  0.97
 C -2.82  0.80  1.03
 C -3.08  1.51  2.39
 O -2.15  2.16  2.96
 H -1.24 -0.32  1.76
 H -2.91  1.60  0.27
 C -3.84 -0.29  0.66
 C -3.55 -0.94 -0.71
 C -2.76 -2.26 -0.60
 N -2.11 -2.66 -1.85
 C -0.91 -2.22 -2.24
 N -0.34 -2.73 -3.34
 N -0.28 -1.27 -1.54
 H -4.84  0.16  0.61
 H -3.88 -1.06  1.45
 H -3.01 -0.23 -1.35
 H -4.50 -1.15 -1.23
 H -3.42 -3.08 -0.30
 H -1.98 -2.20  0.18
 H -2.62 -3.25 -2.48
 H  0.50 -2.32 -3.74
 H -0.70 -3.56 -3.79
 H -0.73 -0.77 -0.76
 N -4.29  1.46  2.93
 C -4.66  2.14  4.17
 H -5.00  0.92  2.46
 H -4.03  1.79  5.00
 H -5.70  1.91  4.40
 H -4.54  3.23  4.06
Ca -0.07  2.87  2.72
