36
#
 C -0.36  0.95 -0.06
 C -0.07  0.73  1.39
 O  0.78  1.42  2.01
 H  0.56  1.30 -0.54
 H -1.10  1.76 -0.17
 H -0.73  0.06 -0.57
 N -0.75 -0.23  2.08
 C -2.18 -0.47  1.97
 C -2.93  0.79  2.50
 O -2.28  1.76  2.98
 H -0.39 -0.36  3.03
 H -2.43 -0.54  0.90
 C -2.56 -1.83  2.62
 C -1.88 -2.21  3.94
 C -2.36 -1.50  5.23
 N -1.29 -1.27  6.19
 C -0.41 -0.24  6.10
 N  0.77 -0.35  6.73
 N -0.68  0.85  5.37
 H -2.31 -2.61  1.88
 H -3.65 -1.88  2.73
 H -0.79 -2.09  3.85
 H -2.01 -3.30  4.07
 H -3.12 -2.11  5.73
 H -2.87 -0.55  5.00
 H -1.11 -1.99  6.88
 H  1.30  0.49  6.95
 H  1.05 -1.20  7.20
 H -1.69  0.87  5.23
 N -4.25  0.80  2.38
 C -5.13  1.91  2.76
 H -4.69 -0.01  1.95
 H -5.79  1.60  3.58
 H -5.74  2.20  1.90
 H -4.52  2.76  3.08
Ca -0.24  2.37  3.75
