36
#
 C  2.53 -2.05  2.14
 C  1.55 -1.08  2.72
 O  1.71  0.18  2.35
 H  2.39 -2.12  1.06
 H  2.44 -3.05  2.59
 H  3.56 -1.69  2.31
 N  0.60 -1.50  3.51
 C -0.40 -0.55  4.00
 C  0.18  0.35  5.10
 O  0.74  1.45  4.80
 H  0.08 -3.31  3.47
 H -0.69  0.15  3.20
 C -1.65 -1.34  4.42
 C -2.26 -2.07  3.22
 C -2.99 -3.37  3.55
 N -2.24 -4.36  4.35
 C -1.08 -4.98  4.04
 N -0.92 -6.26  4.42
 N -0.09 -4.35  3.41
 H -2.39 -0.68  4.89
 H -1.36 -2.09  5.18
 H -1.48 -2.27  2.47
 H -2.99 -1.42  2.71
 H -3.33 -3.85  2.62
 H -3.88 -3.16  4.15
 H -2.81 -4.87  5.02
 H -0.00 -6.69  4.46
 H -1.71 -6.86  4.60
 H  0.68 -4.91  3.05
 N  0.11 -0.05  6.36
 C  0.66  0.68  7.51
 H -0.34 -0.94  6.54
 H  0.03  0.48  8.38
 H  0.66  1.75  7.29
 H  1.69  0.35  7.72
Ca  1.73  2.10  3.01
