36
#
 C -0.45 -1.49  0.29
 C -0.37 -0.72  1.58
 O  0.71 -0.17  1.92
 H -0.18 -0.83 -0.54
 H -1.43 -1.94  0.10
 H  0.31 -2.29  0.32
 N -1.50 -0.66  2.31
 C -1.79 -0.03  3.62
 C -1.46  1.47  3.67
 O -0.29  1.93  3.62
 H -2.29 -1.15  1.91
 H -2.89 -0.08  3.68
 C -1.32 -0.86  4.85
 C  0.16 -1.24  5.01
 C  1.06 -0.20  5.70
 N  2.38 -0.10  4.99
 C  3.27  0.92  5.47
 N  4.14  0.60  6.44
 N  3.14  2.06  4.84
 H -1.90 -1.79  4.80
 H -1.69 -0.34  5.75
 H  0.58 -1.50  4.03
 H  0.19 -2.17  5.60
 H  1.21 -0.45  6.76
 H  0.61  0.81  5.68
 H  2.83 -1.02  4.98
 H  4.84  1.26  6.76
 H  4.09 -0.29  6.93
 H  3.71  2.82  5.21
 N -2.50  2.29  3.83
 C -2.39  3.74  3.96
 H -3.43  1.89  3.85
 H -3.28  4.12  4.46
 H -2.31  4.21  2.97
 H -1.50  3.99  4.54
Ca  1.78  1.41  3.03
