36
#
 C  0.58  0.28  1.06
 C -0.28 -0.24  2.18
 O  0.13 -1.17  2.92
 H  0.86 -0.56  0.42
 H  1.50  0.68  1.48
 H  0.09  1.05  0.46
 N -1.49  0.33  2.35
 C -2.51  0.06  3.38
 C -1.93  0.30  4.80
 O -1.24 -0.59  5.38
 H -1.72  1.06  1.69
 H -3.27  0.83  3.19
 C -3.22 -1.33  3.34
 C -3.07 -2.18  2.07
 C -3.52 -3.65  2.30
 N -3.07 -4.23  3.58
 C -1.79 -4.25  4.01
 N -0.75 -4.17  3.06
 N -1.35 -4.22  5.25
 H -4.29 -1.15  3.55
 H -2.85 -1.90  4.20
 H -2.03 -2.16  1.73
 H -3.67 -1.78  1.24
 H -3.19 -4.28  1.46
 H -4.61 -3.73  2.31
 H -3.76 -4.23  4.32
 H -0.07 -4.92  3.20
 H -1.03 -4.13  2.08
 H -2.07 -4.36  5.96
 N -2.20  1.46  5.37
 C -1.74  1.87  6.70
 H -2.77  2.13  4.85
 H -2.53  2.45  7.19
 H -0.84  2.49  6.62
 H -1.53  0.98  7.29
Ca  0.02 -2.34  4.79
