36
#
 C -0.38  0.59 -0.45
 C -0.06  0.53  1.00
 O  1.13  0.72  1.42
 H -0.02  1.53 -0.90
 H -1.43  0.44 -0.68
 H  0.20 -0.21 -0.94
 N -1.03  0.26  1.90
 C -2.31  0.98  1.95
 C -1.99  2.49  1.92
 O -0.86  2.89  2.39
 H -0.67  0.02  2.83
 H -2.94  0.70  1.09
 C -3.01  0.57  3.28
 C -4.37  1.21  3.57
 C -5.54  0.65  2.72
 N -6.59  1.64  2.52
 C -7.42  1.99  3.63
 N -8.39  2.90  3.26
 N -7.35  1.56  4.83
 H -2.32  0.82  4.10
 H -3.11 -0.52  3.25
 H -4.33  2.31  3.46
 H -4.58  1.06  4.64
 H -5.91 -0.28  3.19
 H -5.18  0.37  1.72
 H -7.15  1.45  1.69
 H -8.99  3.21  4.02
 H -8.17  3.60  2.57
 H -6.74  0.75  4.94
 N -2.84  3.36  1.41
 C -4.12  3.14  0.74
 H -2.55  4.34  1.52
 H -4.31  4.00  0.09
 H -4.95  3.03  1.46
 H -4.07  2.24  0.11
Ca  1.23  2.51  2.62
