36
#
 C  0.09  0.18  0.08
 C  0.12 -0.25  1.51
 O  1.24 -0.55  2.04
 H -0.79  0.76 -0.18
 H  0.15 -0.70 -0.59
 H  0.99  0.78 -0.09
 N -0.99 -0.28  2.30
 C -2.23 -1.05  2.04
 C -1.91 -2.54  2.38
 O -0.68 -2.94  2.12
 H -0.71 -0.38  3.28
 H -2.94 -0.70  2.79
 C -2.84 -0.84  0.64
 C -4.26 -1.39  0.48
 C -5.38 -0.53  1.12
 N -6.51 -1.35  1.58
 C -6.34 -2.28  2.53
 N -7.08 -3.40  2.55
 N -5.41 -2.12  3.50
 H -2.20 -1.31 -0.12
 H -2.84  0.24  0.42
 H -4.29 -2.40  0.91
 H -4.47 -1.51 -0.59
 H -5.79  0.19  0.39
 H -5.00  0.08  1.95
 H -7.35 -1.38  1.01
 H -7.16 -3.93  3.41
 H -7.66 -3.67  1.77
 H -5.12 -1.15  3.63
 N -2.84 -3.26  2.90
 C -2.55 -4.66  3.18
 H -4.57 -2.75  3.48
 H -1.92 -5.13  2.41
 H -3.49 -5.22  3.26
 H -2.04 -4.76  4.15
Ca  1.35 -2.71  2.33
