36
#
 C  0.02  2.34  0.20
 C  0.01  1.39  1.34
 O  1.06  1.21  2.05
 H  0.29  3.36  0.54
 H -0.92  2.37 -0.35
 H  0.83  2.03 -0.48
 N -1.10  0.69  1.64
 C -2.42  1.31  1.74
 C -2.36  2.35  2.90
 O -1.34  2.37  3.69
 H -0.95 -0.07  2.31
 H -2.62  1.86  0.80
 C -3.49  0.20  1.90
 C -4.97  0.59  2.02
 C -5.60  1.38  0.86
 N -5.23  2.82  0.85
 C -4.45  3.46 -0.15
 N -3.70  2.60 -0.97
 N -4.27  4.72 -0.25
 H -3.22 -0.41  2.78
 H -3.36 -0.45  1.02
 H -5.16  1.12  2.97
 H -5.52 -0.35  2.11
 H -6.69  1.32  0.95
 H -5.35  0.91 -0.10
 H -6.02  3.41  1.10
 H -3.27  3.16 -1.71
 H -4.22  1.83 -1.38
 H -4.79  5.27  0.44
 N -3.35  3.19  3.01
 C -3.47  4.23  4.01
 H -4.10  3.11  2.27
 H -2.89  3.98  4.90
 H -4.53  4.34  4.29
 H -3.12  5.19  3.61
Ca  0.72  1.95  4.05
