36
#
 C -0.02  0.69 -0.30
 C  0.03  0.72  1.19
 O  1.17  0.80  1.78
 H  0.18  1.71 -0.67
 H -0.99  0.38 -0.69
 H  0.77  0.04 -0.68
 N -1.10  0.69  1.88
 C -1.25  0.87  3.33
 C -0.69 -0.36  4.09
 O  0.56 -0.42  4.35
 H -2.01  0.83  1.35
 H -0.61  1.72  3.65
 C -2.72  1.18  3.67
 C -3.28  2.55  3.24
 C -3.14  2.96  1.77
 N -3.44  1.84  0.86
 C -3.21  1.93 -0.56
 N -2.45  3.02 -0.95
 N -3.52  1.02 -1.40
 H -2.84  1.11  4.76
 H -3.35  0.38  3.23
 H -2.81  3.34  3.85
 H -4.34  2.55  3.53
 H -2.11  3.28  1.56
 H -3.79  3.83  1.59
 H -4.35  1.42  1.03
 H -2.37  3.06 -1.97
 H -2.69  3.93 -0.56
 H -3.98  0.21 -0.98
 N -1.51 -1.32  4.46
 C -1.14 -2.54  5.18
 H -2.50 -1.20  4.23
 H -1.91 -2.76  5.93
 H -0.17 -2.39  5.67
 H -1.07 -3.38  4.48
Ca  2.35  0.24  3.40
