36
#
 C -2.84  2.35  2.84
 C -2.01  1.13  3.15
 O -0.89  1.37  3.81
 H -3.19  2.79  3.78
 H -3.69  2.12  2.20
 H -2.23  3.12  2.35
 N -2.44 -0.03  2.76
 C -1.83 -1.30  3.16
 C -0.32 -1.49  3.05
 O  0.44 -0.73  2.35
 H -4.02 -0.26  1.91
 H -2.07 -1.46  4.23
 C -2.56 -2.40  2.35
 C -2.42 -2.23  0.82
 C -3.72 -2.57  0.05
 N -4.47 -1.42 -0.48
 C -5.25 -0.57  0.22
 N -6.30 -0.00 -0.40
 N -5.00 -0.30  1.50
 H -3.61 -2.34  2.65
 H -2.23 -3.40  2.65
 H -1.61 -2.86  0.45
 H -2.14 -1.19  0.58
 H -4.39 -3.17  0.67
 H -3.48 -3.17 -0.83
 H -4.59 -1.39 -1.49
 H -6.71 -0.42 -1.23
 H -6.76  0.81 -0.02
 H -5.72  0.17  2.04
 N  0.25 -2.52  3.68
 C -0.34 -3.53  4.55
 H  1.24 -2.63  3.47
 H  0.40 -3.81  5.31
 H -0.63 -4.43  3.99
 H -1.22 -3.14  5.07
Ca  0.97  1.24  2.99
