36
#
 C  0.10 -0.09  0.21
 C -0.21  0.08  1.67
 O  0.76  0.31  2.48
 H  0.37 -1.13 -0.00
 H  0.98  0.52 -0.02
 H -0.74  0.20 -0.43
 N -1.46  0.05  2.17
 C -2.45 -1.04  2.00
 C -1.96 -2.25  2.84
 O -0.73 -2.28  3.26
 H -1.49  0.42  3.12
 H -3.37 -0.68  2.50
 C -2.82 -1.42  0.55
 C -3.66 -0.40 -0.23
 C -5.08 -0.11  0.32
 N -5.81 -1.32  0.73
 C -5.62 -1.88  1.98
 N -5.56 -0.98  3.03
 N -5.41 -3.14  2.24
 H -3.38 -2.36  0.61
 H -1.92 -1.67 -0.02
 H -3.76 -0.79 -1.26
 H -3.14  0.57 -0.32
 H -5.67  0.41 -0.45
 H -5.04  0.57  1.18
 H -5.94 -2.00 -0.01
 H -5.70 -1.44  3.93
 H -6.15 -0.15  2.94
 H -5.43 -3.72  1.40
 N -2.81 -3.20  3.14
 C -2.47 -4.38  3.92
 H -3.85 -3.15  2.81
 H -3.36 -5.00  4.00
 H -2.15 -4.09  4.93
 H -1.67 -4.95  3.44
Ca  1.09 -1.38  3.78
