36
#
 C -1.15  1.27 -2.46
 C -1.30  0.26 -1.37
 O -1.60 -0.94 -1.66
 H -0.42  0.91 -3.20
 H -0.85  2.26 -2.11
 H -2.12  1.35 -2.99
 N -1.11  0.67 -0.11
 C -1.30 -0.04  1.18
 C -0.29 -1.16  1.48
 O -0.21 -2.15  0.61
 H -0.82  1.64 -0.02
 H -1.05  0.73  1.92
 C -2.77 -0.49  1.40
 C -3.69  0.62  1.96
 C -3.78  0.66  3.50
 N -2.45  0.77  4.12
 C -1.95  0.00  5.11
 N -2.76 -0.53  6.03
 N -0.63 -0.21  5.11
 H -2.77 -1.35  2.07
 H -3.18 -0.84  0.44
 H -4.71  0.48  1.60
 H -3.38  1.60  1.58
 H -4.24 -0.27  3.87
 H -4.42  1.50  3.81
 H -1.80  1.43  3.72
 H -2.43 -1.24  6.67
 H -3.66 -0.10  6.25
 H -0.18 -0.56  5.95
 N  0.35 -1.07  2.59
 C  1.27 -2.16  2.92
 H -0.15 -0.33  4.18
 H  1.80 -1.91  3.85
 H  2.03 -2.30  2.14
 H  0.75 -3.11  3.05
Ca -0.84 -2.88 -1.18
