36
#
 C  0.48  1.49  0.57
 C  0.27  0.72  1.82
 O  1.26  0.37  2.55
 H  0.57  2.56  0.81
 H -0.33  1.37 -0.15
 H  1.42  1.16  0.11
 N -0.95  0.36  2.22
 C -2.27  0.81  1.74
 C -2.33  2.35  1.65
 O -1.70  3.06  2.47
 H -0.97 -0.22  3.05
 H -2.45  0.36  0.75
 C -3.37  0.27  2.70
 C -3.61  0.97  4.05
 C -2.54  0.88  5.14
 N -1.40  1.76  4.84
 C -0.14  1.67  5.26
 N  0.33  0.52  5.96
 N  0.85  2.50  4.96
 H -3.18 -0.80  2.85
 H -4.31  0.32  2.14
 H -3.88  2.03  3.90
 H -4.51  0.51  4.47
 H -2.21 -0.16  5.25
 H -2.98  1.18  6.10
 H -1.54  2.43  4.06
 H  0.67  0.77  6.90
 H -0.35 -0.23  6.07
 H  0.54  3.38  4.55
 N -3.11  2.88  0.70
 C -3.88  2.21 -0.34
 H -3.16  3.90  0.74
 H -4.32  2.97 -0.99
 H -4.70  1.61  0.07
 H -3.24  1.57 -0.97
Ca  2.30  0.88  4.35
