36
#
 C  0.42  1.75  1.09
 C -0.12  0.67  1.96
 O  0.72 -0.01  2.70
 H  1.00  2.46  1.70
 H -0.36  2.30  0.55
 H  1.11  1.31  0.36
 N -1.39  0.37  2.03
 C -2.56  0.94  1.36
 C -3.70  0.49  2.33
 O -3.50 -0.53  2.99
 H -1.74 -0.39  2.67
 H -2.47  2.03  1.30
 C -2.72  0.30 -0.05
 C -3.92  0.78 -0.87
 C -3.90  0.16 -2.27
 N -5.02  0.61 -3.07
 C -5.01  0.57 -4.46
 N -6.18  0.96 -5.05
 N -4.03  0.19 -5.23
 H -2.76 -0.79  0.08
 H -1.79  0.52 -0.60
 H -3.92  1.87 -0.97
 H -4.85  0.50 -0.36
 H -3.86 -0.95 -2.19
 H -2.97  0.47 -2.79
 H -5.94  0.48 -2.64
 H -6.16  0.98 -6.06
 H -6.79  1.63 -4.59
 H -3.22 -0.15 -4.71
 N -4.84  1.20  2.40
 C -5.21  2.48  1.80
 H -5.52  0.79  3.04
 H -5.59  3.15  2.58
 H -5.98  2.35  1.03
 H -4.34  2.96  1.34
Ca  2.03 -1.02  3.86
