36
#
 C -1.59 -0.35  0.14
 C -1.91 -0.35  1.61
 O -1.60 -1.39  2.32
 H -0.59  0.09 -0.03
 H -2.31  0.23 -0.45
 H -1.55 -1.38 -0.23
 N -2.45  0.65  2.30
 C -2.54  2.03  1.85
 C -1.43  2.78  2.62
 O -0.83  2.18  3.57
 H -3.66 -2.35  2.35
 H -2.35  2.13  0.76
 C -3.94  2.62  2.16
 C -5.10  1.99  1.34
 C -5.94  0.91  2.02
 N -5.15 -0.28  2.35
 C -5.57 -1.55  2.37
 N -6.87 -1.85  2.30
 N -4.66 -2.53  2.47
 H -3.93  3.69  1.96
 H -4.13  2.52  3.24
 H -4.72  1.59  0.38
 H -5.80  2.79  1.06
 H -6.76  0.63  1.34
 H -6.40  1.32  2.94
 H -4.15 -0.10  2.50
 H -7.18 -2.81  2.18
 H -7.59 -1.14  2.40
 H -4.94 -3.50  2.61
 N -1.08  4.02  2.30
 C -1.57  4.88  1.23
 H -0.35  4.41  2.90
 H -2.31  5.60  1.60
 H -2.02  4.28  0.43
 H -0.72  5.43  0.81
Ca -1.06  0.02  4.01
