36
#
 C  0.21  0.88 -1.10
 C -0.18  0.75  0.34
 O  0.47 -0.07  1.11
 H -0.42  1.60 -1.63
 H  0.12 -0.09 -1.59
 H  1.25  1.21 -1.17
 N -1.18  1.46  0.80
 C -1.77  1.47  2.13
 C -3.20  2.03  1.86
 O -3.38  2.63  0.79
 H -1.76  2.07  0.18
 H -1.81  0.44  2.51
 C -0.99  2.39  3.11
 C -1.09  1.96  4.60
 C  0.22  1.43  5.18
 N  0.74  0.32  4.37
 C  1.76 -0.49  4.69
 N  2.27 -0.44  5.94
 N  2.24 -1.34  3.76
 H -1.35  3.42  2.98
 H  0.07  2.42  2.80
 H -1.87  1.20  4.73
 H -1.39  2.82  5.21
 H  0.02  1.07  6.20
 H  0.97  2.24  5.24
 H  0.48  0.32  3.39
 H  3.02 -1.05  6.22
 H  1.91  0.20  6.64
 H  2.97 -1.93  4.17
 N -4.12  1.86  2.82
 C -5.48  2.40  2.73
 H -3.88  1.31  3.63
 H -5.55  3.02  1.83
 H -6.21  1.58  2.66
 H -5.70  3.01  3.61
Ca  1.84 -1.61  1.59
