36
#
 C  0.10  0.48  1.19
 C -0.43  0.26  2.56
 O  0.39  0.27  3.55
 H  0.65  1.43  1.18
 H -0.66  0.51  0.41
 H  0.83 -0.31  0.94
 N -1.71  0.05  2.83
 C -2.88 -0.10  1.96
 C -4.00  0.57  2.81
 O -3.79  0.66  4.03
 H -2.08  0.18  3.80
 H -2.72  0.41  1.00
 C -3.24 -1.59  1.74
 C -2.13 -2.52  1.20
 C -1.56 -3.55  2.19
 N -0.80 -2.92  3.28
 C  0.03 -3.55  4.13
 N  0.15 -4.89  4.06
 N  0.74 -2.81  5.01
 H -4.10 -1.62  1.06
 H -3.63 -1.99  2.70
 H -1.30 -1.94  0.76
 H -2.54 -3.11  0.37
 H -0.89 -4.23  1.64
 H -2.39 -4.15  2.60
 H -1.08 -1.99  3.55
 H  0.86 -5.38  4.58
 H -0.49 -5.45  3.52
 H  1.14 -3.43  5.72
 N -5.13  0.96  2.22
 C -5.52  0.90  0.82
 H -5.82  1.33  2.88
 H -6.10  1.79  0.57
 H -6.13  0.01  0.61
 H -4.63  0.88  0.17
Ca  1.43 -0.68  5.11
