36
#
 C  0.06 -2.02  0.95
 C -0.14 -0.76  1.73
 O  0.87 -0.05  2.06
 H -0.86 -2.57  0.77
 H  0.78 -2.67  1.47
 H  0.51 -1.76 -0.02
 N -1.38 -0.40  2.06
 C -1.82  0.89  2.63
 C -1.56  0.95  4.15
 O -0.34  1.02  4.55
 H -2.13 -1.02  1.76
 H -1.15  1.66  2.21
 C -3.24  1.22  2.16
 C -4.32  0.13  2.40
 C -5.59  0.69  3.05
 N -5.38  1.09  4.46
 C -5.45  2.47  4.80
 N -6.07  2.71  6.01
 N -4.84  3.30  4.03
 H -3.18  1.45  1.09
 H -3.55  2.16  2.66
 H -3.95 -0.69  3.03
 H -4.61 -0.33  1.44
 H -6.38 -0.08  3.03
 H -5.95  1.56  2.49
 H -5.89  0.50  5.11
 H -6.14  3.68  6.29
 H -6.88  2.16  6.26
 H -4.99  4.27  4.30
 N -2.55  0.99  5.00
 C -2.37  1.14  6.44
 H -3.55  0.96  4.68
 H -3.34  1.38  6.88
 H -1.67  1.95  6.66
 H -1.99  0.21  6.89
Ca  1.61  0.97  3.76
