36
#
 C -0.86  0.38 -0.50
 C -0.96 -0.11  0.90
 O -0.13 -0.97  1.35
 H  0.12  0.86 -0.64
 H -1.65  1.10 -0.76
 H -0.90 -0.47 -1.19
 N -1.93  0.36  1.70
 C -2.03  0.04  3.14
 C -2.42 -1.44  3.33
 O -1.48 -2.25  3.67
 H -2.55  1.07  1.33
 H -1.00  0.10  3.54
 C -2.87  1.08  3.89
 C -2.68  0.99  5.42
 C -3.75  1.77  6.23
 N -4.99  1.04  6.44
 C -5.87  0.69  5.42
 N -6.06  1.67  4.44
 N -6.48 -0.44  5.28
 H -3.94  1.00  3.64
 H -2.55  2.07  3.55
 H -1.68  1.38  5.68
 H -2.70 -0.06  5.75
 H -3.95  2.74  5.76
 H -3.34  2.00  7.22
 H -4.93  0.32  7.16
 H -6.89  1.47  3.89
 H -6.08  2.62  4.80
 H -6.22 -1.11  6.01
 N -3.63 -1.91  3.12
 C -4.87 -1.28  2.65
 H -3.72 -2.91  3.33
 H -5.35 -1.97  1.96
 H -4.65 -0.35  2.11
 H -5.54 -1.07  3.50
Ca  0.40 -2.50  2.72
