36
#
 C  0.28  0.52  0.03
 C  0.20  0.29  1.51
 O  1.29  0.19  2.19
 H  0.89  1.41 -0.18
 H -0.71  0.64 -0.43
 H  0.78 -0.34 -0.43
 N -0.98  0.21  2.07
 C -1.36 -0.20  3.42
 C -2.81 -0.76  3.18
 O -3.39 -0.43  2.14
 H -1.85  0.23  1.50
 H -0.69 -1.01  3.75
 C -1.40  0.93  4.48
 C -0.03  1.39  5.00
 C  0.58  2.58  4.24
 N  2.06  2.65  4.49
 C  2.76  3.65  3.72
 N  2.77  4.91  4.18
 N  3.32  3.18  2.65
 H -1.97  0.55  5.33
 H -1.98  1.77  4.08
 H  0.67  0.54  4.98
 H -0.12  1.67  6.06
 H  0.09  3.52  4.53
 H  0.44  2.48  3.15
 H  2.22  2.78  5.49
 H  3.30  5.64  3.71
 H  2.24  5.19  5.00
 H  3.77  3.87  2.04
 N -3.33 -1.53  4.15
 C -4.68 -2.09  4.09
 H -2.75 -1.78  4.94
 H -5.17 -1.72  3.18
 H -5.26 -1.78  4.97
 H -4.64 -3.18  4.05
Ca  3.10  0.91  2.99
