36
#
 C  0.42 -0.18  0.05
 C  0.10 -0.20  1.50
 O  1.00 -0.49  2.35
 H -0.42  0.12 -0.59
 H  0.74 -1.20 -0.25
 H  1.28  0.48 -0.13
 N -1.15  0.10  1.88
 C -1.77  0.01  3.23
 C -1.21  1.06  4.20
 O -0.04  0.93  4.69
 H -1.79  0.32  1.13
 H -2.82  0.25  3.05
 C -1.71 -1.41  3.84
 C -2.52 -1.56  5.13
 C -4.05 -1.50  4.94
 N -4.73 -2.13  6.05
 C -4.74 -3.54  6.15
 N -5.43 -3.97  7.26
 N -4.19 -4.38  5.34
 H -0.67 -1.71  4.01
 H -2.09 -2.11  3.08
 H -2.21 -0.83  5.90
 H -2.29 -2.55  5.54
 H -4.32 -1.97  3.97
 H -4.41 -0.46  4.88
 H -5.60 -1.68  6.34
 H -5.41 -4.98  7.39
 H -5.38 -3.43  8.11
 H -3.91 -3.95  4.46
 N -2.00  2.06  4.54
 C -1.66  3.13  5.49
 H -2.92  2.10  4.12
 H -2.48  3.23  6.21
 H -1.54  4.08  4.96
 H -0.74  2.87  6.02
Ca  1.71 -0.23  4.31
