36
#
 C -2.03 -0.02  1.73
 C -1.17 -0.23  2.95
 O  0.13 -0.12  2.75
 H -1.85  0.98  1.32
 H -3.09 -0.13  1.96
 H -1.74 -0.74  0.95
 N -1.74 -0.49  4.09
 C -0.94 -0.75  5.30
 C  0.03  0.38  5.66
 O  1.27  0.35  5.35
 H -3.35 -1.33  4.13
 H -1.67 -0.76  6.13
 C -0.26 -2.14  5.30
 C -1.20 -3.25  4.80
 C -2.49 -3.42  5.63
 N -3.63 -3.89  4.86
 C -4.53 -3.09  4.25
 N -5.68 -3.64  3.81
 N -4.30 -1.79  4.11
 H  0.09 -2.36  6.32
 H  0.63 -2.15  4.67
 H -0.65 -4.20  4.78
 H -1.47 -3.04  3.76
 H -2.79 -2.47  6.10
 H -2.33 -4.13  6.45
 H -3.77 -4.89  4.76
 H -6.29 -3.13  3.18
 H -6.00 -4.54  4.14
 H -5.08 -1.20  3.83
 N -0.43  1.43  6.32
 C -1.81  1.68  6.76
 H  0.27  2.13  6.56
 H -2.52  1.36  6.00
 H -1.92  2.76  6.92
 H -2.02  1.17  7.71
Ca  2.05  0.10  3.37
