36
#
 C -0.73  0.05 -0.24
 C -0.65 -0.12  1.24
 O  0.37 -0.64  1.79
 H  0.21  0.45 -0.63
 H -1.60  0.62 -0.57
 H -0.81 -0.97 -0.66
 N -1.68  0.27  2.03
 C -2.32  1.58  1.92
 C -1.23  2.64  2.15
 O -0.07  2.31  2.60
 H -1.60 -0.08  2.99
 H -2.71  1.71  0.88
 C -3.47  1.71  2.97
 C -4.92  1.63  2.46
 C -5.36  0.33  1.78
 N -4.72  0.08  0.48
 C -4.73  1.06 -0.51
 N -5.97  1.47 -0.89
 N -3.58  1.53 -0.93
 H -3.36  2.67  3.51
 H -3.31  0.94  3.74
 H -5.13  2.47  1.79
 H -5.57  1.79  3.34
 H -6.45  0.35  1.65
 H -5.16 -0.55  2.41
 H -3.80 -0.35  0.55
 H -6.06  2.16 -1.62
 H -6.74  0.81 -0.82
 H -3.68  2.09 -1.78
 N -1.48  3.91  1.85
 C -2.70  4.47  1.28
 H -0.73  4.56  2.07
 H -3.18  3.73  0.62
 H -2.43  5.34  0.68
 H -3.40  4.78  2.07
Ca  1.44  0.84  2.92
