36
#
 C  0.65  0.70  0.42
 C -0.19  0.94  1.63
 O  0.14  1.84  2.47
 H  0.62  1.56 -0.26
 H  0.37 -0.21 -0.12
 H  1.69  0.61  0.76
 N -1.30  0.20  1.87
 C -2.32  0.00  0.84
 C -3.19  1.30  0.83
 O -2.67  2.40  1.28
 H -1.66  0.31  2.82
 H -1.81 -0.01 -0.13
 C -3.09 -1.31  0.99
 C -3.86 -1.51  2.31
 C -5.12 -2.42  2.16
 N -6.39 -1.70  2.12
 C -6.78 -0.79  1.16
 N -6.18 -0.95 -0.12
 N -7.59  0.20  1.29
 H -2.37 -2.13  0.84
 H -3.78 -1.38  0.13
 H -4.20 -0.55  2.72
 H -3.19 -1.95  3.06
 H -5.18 -3.10  3.02
 H -5.01 -3.07  1.28
 H -6.83 -1.56  3.02
 H -6.80 -0.52 -0.80
 H -6.06 -1.93 -0.38
 H -7.95  0.31  2.24
 N -4.40  1.26  0.33
 C -5.30  2.40  0.18
 H -4.82  0.33  0.05
 H -6.31  2.06  0.46
 H -5.31  2.73 -0.86
 H -4.98  3.22  0.83
Ca -1.25  3.49  2.40
