36
#
 C  0.09 -0.30  0.16
 C -0.02 -0.21  1.63
 O  1.03  0.19  2.32
 H -0.87 -0.09 -0.33
 H  0.39 -1.33 -0.17
 H  0.85  0.40 -0.21
 N -1.10 -0.51  2.30
 C -2.38 -1.03  1.82
 C -3.29 -0.81  3.07
 O -2.74 -0.57  4.15
 H -1.18 -0.41  3.34
 H -2.73 -0.42  0.97
 C -2.26 -2.51  1.42
 C -3.36 -3.05  0.49
 C -2.90 -4.29 -0.31
 N -1.82 -4.00 -1.26
 C -0.49 -3.88 -0.93
 N -0.04 -4.69  0.10
 N  0.36 -3.04 -1.47
 H -2.18 -3.13  2.32
 H -1.29 -2.62  0.91
 H -3.66 -2.27 -0.23
 H -4.26 -3.32  1.06
 H -3.75 -4.69 -0.87
 H -2.58 -5.09  0.38
 H -2.10 -3.43 -2.05
 H  0.98 -4.74  0.12
 H -0.47 -5.61  0.17
 H -0.09 -2.49 -2.20
 N -4.61 -0.93  2.89
 C -5.59 -0.81  3.96
 H -4.96 -1.09  1.95
 H -6.27  0.04  3.77
 H -5.06 -0.63  4.90
 H -6.18 -1.73  4.05
Ca  2.66  0.80  3.27
