36
#
 C -0.45  1.14 -0.05
 C -1.22  0.11  0.71
 O -0.75 -1.04  0.91
 H  0.24  1.66  0.62
 H -1.09  1.88 -0.54
 H  0.17  0.62 -0.80
 N -2.46  0.42  1.21
 C -2.72  1.67  1.90
 C -1.71  1.77  3.09
 O -1.10  0.73  3.48
 H -2.96 -0.38  1.60
 H -2.52  2.50  1.21
 C -4.20  1.79  2.36
 C -4.64  1.05  3.64
 C -5.27 -0.35  3.51
 N -4.42 -1.39  2.90
 C -3.35 -2.01  3.45
 N -2.87 -1.57  4.69
 N -2.56 -2.89  2.87
 H -4.83  1.52  1.50
 H -4.38  2.86  2.52
 H -5.42  1.66  4.12
 H -3.82  1.04  4.38
 H -6.17 -0.29  2.89
 H -5.61 -0.69  4.50
 H -4.76 -1.79  2.02
 H -2.70 -2.35  5.32
 H -3.40 -0.83  5.16
 H -2.92 -3.30  2.01
 N -1.55  2.96  3.65
 C -0.67  3.26  4.78
 H -2.06  3.74  3.25
 H -1.25  3.73  5.58
 H  0.13  3.94  4.46
 H -0.23  2.33  5.15
Ca -0.70 -1.48  3.12
