36
#
 C -2.23 -0.46  0.76
 C -1.36 -0.12  1.93
 O -0.52 -1.00  2.35
 H -2.85  0.39  0.44
 H -2.88 -1.30  1.04
 H -1.61 -0.80 -0.08
 N -1.48  1.08  2.47
 C -0.86  1.64  3.69
 C  0.66  1.84  3.54
 O  1.44  0.83  3.47
 H -2.26  1.68  2.10
 H -1.32  2.63  3.77
 C -1.15  0.89  5.01
 C -2.63  0.66  5.39
 C -3.55  1.90  5.59
 N -4.35  2.25  4.41
 C -3.83  2.93  3.33
 N -3.08  4.07  3.64
 N -3.92  2.59  2.08
 H -0.66  1.47  5.81
 H -0.66 -0.09  5.01
 H -2.61  0.10  6.33
 H -3.10 -0.01  4.66
 H -2.98  2.77  5.92
 H -4.26  1.68  6.40
 H -4.99  1.51  4.13
 H -3.00  4.67  2.83
 H -3.43  4.58  4.45
 H -4.48  1.74  1.97
 N  1.19  3.05  3.52
 C  0.57  4.37  3.58
 H  2.21  3.04  3.45
 H  0.96  4.91  4.44
 H -0.52  4.30  3.66
 H  0.82  4.93  2.66
Ca  1.41 -1.25  3.09
