36
#
 C  0.98  0.97  0.07
 C  0.45  1.03  1.47
 O  1.18  0.62  2.45
 H  1.90  1.56  0.01
 H  0.27  1.35 -0.66
 H  1.23 -0.07 -0.18
 N -0.76  1.50  1.67
 C -1.50  1.65  2.92
 C -2.97  1.83  2.43
 O -3.14  2.21  1.27
 H -1.36  1.82  0.88
 H -1.38  0.73  3.52
 C -1.00  2.89  3.69
 C -1.45  3.04  5.16
 C -1.12  1.87  6.09
 N  0.28  1.44  5.94
 C  0.84  0.33  6.46
 N  0.18 -0.33  7.43
 N  2.00 -0.10  5.94
 H -1.32  3.79  3.14
 H  0.10  2.89  3.64
 H -2.53  3.21  5.21
 H -0.99  3.95  5.55
 H -1.75  0.99  5.89
 H -1.32  2.19  7.13
 H  0.92  2.10  5.52
 H  0.51 -1.23  7.76
 H -0.54  0.12  7.99
 H  2.49 -0.71  6.60
 N -3.95  1.59  3.31
 C -5.37  1.76  2.99
 H -3.71  1.18  4.21
 H -5.88  2.26  3.83
 H -5.84  0.79  2.80
 H -5.45  2.38  2.10
Ca  2.61 -0.14  3.77
