36
#
 C -1.18  1.34 -0.90
 C -1.06  0.20  0.05
 O  0.06 -0.17  0.50
 H -1.31  2.29 -0.34
 H -2.02  1.24 -1.60
 H -0.24  1.43 -1.46
 N -2.18 -0.45  0.48
 C -3.44  0.21  0.78
 C -3.19  1.20  1.95
 O -2.13  1.14  2.63
 H -2.04 -1.35  0.95
 H -3.75  0.80 -0.10
 C -4.55 -0.83  1.06
 C -4.68 -1.43  2.48
 C -3.43 -1.94  3.21
 N -2.60 -2.85  2.40
 C -1.33 -3.21  2.83
 N -0.99 -4.50  2.69
 N -0.51 -2.27  3.28
 H -4.41 -1.63  0.31
 H -5.52 -0.38  0.81
 H -5.41 -2.24  2.40
 H -5.14 -0.70  3.15
 H -3.75 -2.45  4.13
 H -2.80 -1.11  3.53
 H -3.12 -3.63  2.00
 H -0.03 -4.81  2.81
 H -1.67 -5.23  2.54
 H  0.31 -2.71  3.71
 N -4.14  2.09  2.22
 C -4.06  3.07  3.31
 H -4.96  2.11  1.62
 H -4.99  3.65  3.32
 H -3.22  3.75  3.15
 H -3.94  2.56  4.27
Ca -0.21 -0.05  2.71
