36
#
 C -0.64 -0.85  0.32
 C -0.35 -0.07  1.56
 O  0.80 -0.15  2.12
 H -0.17 -0.37 -0.55
 H -1.71 -0.97  0.13
 H -0.17 -1.83  0.42
 N -1.28  0.74  2.10
 C -2.07  1.69  1.31
 C -1.07  2.70  0.67
 O  0.16  2.70  1.06
 H -1.04  1.09  3.03
 H -2.57  1.15  0.50
 C -3.13  2.38  2.19
 C -2.56  3.24  3.33
 C -3.61  4.20  3.94
 N -4.35  4.99  2.97
 C -3.78  5.72  1.93
 N -2.48  6.17  2.17
 N -4.31  5.96  0.78
 H -3.79  1.59  2.58
 H -3.74  3.01  1.54
 H -1.73  3.85  2.95
 H -2.17  2.62  4.15
 H -3.09  4.85  4.67
 H -4.35  3.64  4.51
 H -5.31  4.72  2.81
 H -2.24  6.89  1.49
 H -2.33  6.52  3.12
 H -5.25  5.55  0.68
 N -1.45  3.53 -0.27
 C -2.75  3.71 -0.91
 H -0.72  4.19 -0.57
 H -2.58  3.90 -1.98
 H -3.27  4.58 -0.46
 H -3.36  2.81 -0.81
Ca  1.84  1.74  1.95
