36
#
 C  0.51  0.52 -0.20
 C  0.19  1.04  1.16
 O  1.14  1.31  1.99
 H  1.16  1.24 -0.73
 H -0.38  0.34 -0.81
 H  1.08 -0.42 -0.11
 N -1.07  1.20  1.49
 C -1.66  1.67  2.74
 C -3.17  1.32  2.55
 O -3.57  1.15  1.40
 H -1.85  1.01  0.82
 H -1.23  1.09  3.57
 C -1.42  3.19  2.92
 C -1.73  3.79  4.30
 C -0.98  3.16  5.48
 N  0.44  2.91  5.23
 C  1.44  3.81  5.09
 N  1.23  5.07  5.51
 N  2.58  3.41  4.51
 H -2.02  3.72  2.16
 H -0.37  3.39  2.67
 H -2.81  3.74  4.52
 H -1.50  4.86  4.24
 H -1.40  2.19  5.76
 H -1.11  3.78  6.39
 H  0.73  1.94  5.16
 H  1.92  5.79  5.35
 H  0.47  5.30  6.15
 H  3.34  4.05  4.75
 N -3.94  1.28  3.65
 C -5.38  1.00  3.59
 H -3.50  1.32  4.56
 H -5.89  1.57  4.37
 H -5.57 -0.07  3.74
 H -5.75  1.29  2.61
Ca  2.94  1.95  2.83
