36
#
 C  0.24  1.13  0.50
 C  0.58  1.10  1.96
 O  1.67  1.64  2.37
 H  0.95  0.49 -0.05
 H -0.78  0.81  0.28
 H  0.39  2.15  0.13
 N -0.21  0.53  2.86
 C -1.44 -0.26  2.75
 C -1.95 -0.33  4.21
 O -1.13 -0.15  5.14
 H  0.05  0.63  3.85
 H -2.16  0.28  2.12
 C -1.22 -1.68  2.15
 C -0.59 -2.78  3.02
 C  0.91 -2.69  3.35
 N  1.17 -1.77  4.46
 C  2.20 -0.93  4.55
 N  2.08  0.17  5.46
 N  3.30 -0.87  3.82
 H -0.65 -1.57  1.22
 H -2.21 -2.04  1.85
 H -0.72 -3.72  2.46
 H -1.16 -2.93  3.95
 H  1.49 -2.36  2.48
 H  1.28 -3.69  3.62
 H  0.40 -1.61  5.11
 H  2.70  0.04  6.27
 H  1.13  0.30  5.81
 H  3.48 -1.69  3.24
 N -3.23 -0.62  4.44
 C -4.32 -0.84  3.48
 H -3.46 -0.70  5.43
 H -4.14 -0.29  2.56
 H -5.25 -0.47  3.92
 H -4.44 -1.91  3.25
Ca  3.36  1.40  3.64
