36
#
 C -0.19  2.06  0.87
 C -0.22  0.80  1.67
 O  0.71 -0.06  1.52
 H -1.03  2.72  1.09
 H -0.19  1.81 -0.20
 H  0.75  2.60  1.07
 N -1.23  0.61  2.52
 C -1.57 -0.58  3.32
 C -0.55 -0.83  4.44
 O  0.61 -1.31  4.17
 H -1.95  1.35  2.55
 H -2.51 -0.30  3.80
 C -1.84 -1.87  2.51
 C -2.78 -1.77  1.30
 C -4.25 -1.33  1.53
 N -4.44  0.11  1.61
 C -4.34  0.84  2.76
 N -3.87  2.16  2.57
 N -4.49  0.43  3.98
 H -2.24 -2.60  3.23
 H -0.89 -2.30  2.15
 H -2.81 -2.78  0.86
 H -2.34 -1.12  0.53
 H -4.67 -1.81  2.43
 H -4.86 -1.70  0.69
 H -4.41  0.61  0.73
 H -4.14  2.75  3.36
 H -4.15  2.60  1.70
 H -4.88 -0.51  4.02
 N -0.86 -0.60  5.70
 C -2.08 -0.05  6.31
 H -0.11 -0.84  6.35
 H -2.52 -0.82  6.96
 H -2.81  0.27  5.56
 H -1.80  0.81  6.93
Ca  1.91 -1.46  2.52
