36
#
 C  0.27  0.60  0.87
 C -0.31  0.67  2.24
 O  0.49  0.78  3.25
 H  1.00 -0.21  0.81
 H  0.82  1.53  0.69
 H -0.48  0.48  0.08
 N -1.61  0.62  2.49
 C -2.77  0.39  1.64
 C -3.84  1.32  2.28
 O -3.71  1.58  3.49
 H -1.95  0.86  3.44
 H -2.55  0.65  0.60
 C -3.27 -1.07  1.78
 C -2.26 -2.20  1.50
 C -1.83 -3.02  2.73
 N -0.89 -2.28  3.59
 C -0.65 -2.50  4.90
 N -1.33 -3.47  5.54
 N  0.25 -1.71  5.54
 H -4.13 -1.18  1.11
 H -3.68 -1.18  2.80
 H -1.37 -1.84  0.97
 H -2.71 -2.92  0.81
 H -1.38 -3.97  2.41
 H -2.73 -3.26  3.33
 H -0.16 -1.78  3.11
 H -1.27 -3.57  6.55
 H -1.86 -4.17  5.04
 H  0.46 -2.12  6.45
 N -4.86  1.75  1.53
 C -5.06  1.56  0.09
 H -5.54  2.32  2.03
 H -6.00  2.05 -0.19
 H -5.16  0.49 -0.17
 H -4.26  2.01 -0.50
Ca  1.18  0.30  5.16
