36
#
 C  0.20  1.21  3.18
 C -0.79  0.25  3.76
 O -0.63 -0.22  4.92
 H  0.31  2.07  3.86
 H -0.07  1.57  2.18
 H  1.18  0.72  3.13
 N -1.85 -0.10  3.02
 C -2.90 -1.00  3.51
 C -2.46 -2.48  3.44
 O -1.95 -2.99  4.48
 H -1.95  0.29  2.08
 H -2.97 -0.80  4.59
 C -4.29 -0.67  2.95
 C -4.95  0.49  3.71
 C -5.08  0.26  5.23
 N -4.04  0.97  6.02
 C -3.58  0.52  7.23
 N -3.60  1.41  8.24
 N -3.09 -0.71  7.36
 H -4.92 -1.56  3.05
 H -4.24 -0.45  1.87
 H -5.95  0.63  3.29
 H -4.41  1.43  3.52
 H -5.02 -0.80  5.49
 H -6.07  0.61  5.56
 H -4.15  1.99  5.98
 H -3.08  1.24  9.10
 H -4.21  2.22  8.24
 H -3.13 -0.98  8.35
 N -2.61 -3.15  2.31
 C -2.22 -4.54  2.09
 H -3.06 -2.67  1.53
 H -3.10 -5.13  1.81
 H -1.80 -4.94  3.02
 H -1.48 -4.60  1.29
Ca -1.35 -1.80  6.27
