36
#
 C  0.07 -1.39 -0.17
 C -0.06 -0.62  1.10
 O  0.54  0.52  1.23
 H -0.29 -0.78 -1.01
 H -0.48 -2.33 -0.15
 H  1.13 -1.61 -0.36
 N -0.78 -1.13  2.08
 C -1.06 -0.59  3.41
 C -1.71 -1.81  4.12
 O -2.29 -2.63  3.40
 H -1.30 -2.02  1.96
 H -0.11 -0.27  3.87
 C -2.07  0.58  3.29
 C -2.31  1.45  4.53
 C -1.08  2.20  5.08
 N -0.20  2.77  4.06
 C -0.45  3.82  3.24
 N -1.49  4.63  3.52
 N  0.33  3.98  2.15
 H -3.03  0.16  2.96
 H -1.72  1.23  2.47
 H -2.74  0.87  5.35
 H -3.08  2.18  4.26
 H -0.44  1.53  5.66
 H -1.39  2.97  5.80
 H  0.74  2.39  3.99
 H -1.76  5.36  2.88
 H -1.91  4.64  4.44
 H  0.27  4.94  1.81
 N -1.66 -1.93  5.46
 C -0.88 -1.20  6.45
 H -2.18 -2.74  5.80
 H  0.01 -0.74  5.98
 H -0.52 -1.89  7.21
 H -1.47 -0.42  6.95
Ca  1.27  2.43  0.82
