36
#
 C -0.78  1.32  0.14
 C -0.65  1.40  1.62
 O  0.18  2.22  2.16
 H -1.12  2.30 -0.23
 H -1.48  0.55 -0.20
 H  0.21  1.14 -0.31
 N -1.41  0.61  2.38
 C -1.58  0.69  3.85
 C -0.35  0.08  4.56
 O  0.71  0.78  4.67
 H -2.07  0.00  1.90
 H -1.56  1.76  4.12
 C -2.94  0.10  4.21
 C -3.44  0.41  5.62
 C -4.85 -0.18  5.89
 N -5.87  0.23  4.94
 C -5.94 -0.26  3.63
 N -5.64 -1.62  3.52
 N -6.21  0.41  2.57
 H -2.97 -0.99  4.01
 H -3.66  0.52  3.49
 H -3.49  1.51  5.75
 H -2.76  0.04  6.40
 H -5.17  0.12  6.90
 H -4.79 -1.28  5.91
 H -6.18  1.19  5.02
 H -5.88 -1.95  2.59
 H -6.07 -2.21  4.23
 H -6.33  1.41  2.76
 N -0.43 -1.15  5.04
 C  0.62 -1.88  5.74
 H -1.33 -1.62  4.92
 H  0.23 -2.24  6.69
 H  1.47 -1.21  5.92
 H  0.94 -2.73  5.13
Ca  1.58  2.46  3.71
