36
#
 C -0.93  0.17 -0.47
 C -0.36 -0.15  0.83
 O  0.92 -0.19  0.99
 H -1.74  0.91 -0.38
 H -0.14  0.54 -1.13
 H -1.45 -0.70 -0.99
 N -1.11 -0.38  1.96
 C -2.14 -1.41  2.17
 C -1.40 -2.74  2.49
 O -0.18 -2.90  2.13
 H -0.54 -0.25  2.80
 H -2.69 -1.11  3.07
 C -3.13 -1.63  1.02
 C -4.10 -0.47  0.80
 C -4.91 -0.61 -0.51
 N -4.29 -0.03 -1.71
 C -3.48 -0.72 -2.58
 N -3.54 -0.29 -3.88
 N -2.67 -1.65 -2.12
 H -3.72 -2.53  1.26
 H -2.61 -1.88  0.08
 H -3.58  0.50  0.79
 H -4.81 -0.42  1.64
 H -5.87 -0.09 -0.38
 H -5.13 -1.67 -0.70
 H -4.77  0.78 -2.10
 H -2.92 -0.72 -4.55
 H -4.41  0.07 -4.25
 H -2.24 -2.16 -2.88
 N -2.01 -3.71  3.14
 C -3.38 -3.75  3.68
 H -1.46 -4.56  3.27
 H -4.04 -4.30  3.00
 H -3.77 -2.74  3.84
 H -3.35 -4.27  4.64
Ca  1.69 -2.09  1.50
