36
#
 C -0.30  1.11  0.47
 C -0.80  0.42  1.70
 O -0.28  0.63  2.83
 H -0.14  2.18  0.66
 H -0.94  0.96 -0.41
 H  0.69  0.68  0.24
 N -1.81 -0.49  1.60
 C -3.09 -0.26  0.93
 C -3.53  1.20  1.17
 O -3.11  1.84  2.18
 H -1.88 -1.07  2.44
 H -2.99 -0.42 -0.15
 C -4.13 -1.28  1.47
 C -4.23 -1.47  3.00
 C -5.44 -0.91  3.74
 N -5.59  0.56  3.82
 C -5.13  1.27  4.90
 N -6.00  2.12  5.48
 N -3.86  1.14  5.30
 H -3.87 -2.24  1.00
 H -5.11 -1.01  1.06
 H -3.32 -1.13  3.54
 H -4.25 -2.56  3.19
 H -5.43 -1.32  4.76
 H -6.36 -1.28  3.26
 H -6.48  0.90  3.47
 H -5.69  2.80  6.16
 H -7.01  1.99  5.39
 H -3.79  1.44  6.28
 N -4.36  1.77  0.31
 C -4.89  1.22 -0.94
 H -4.62  2.73  0.54
 H -4.09  0.89 -1.61
 H -5.45  2.02 -1.45
 H -5.58  0.39 -0.76
Ca -1.96  1.56  4.04
