36
#
 C  0.08 -0.36  0.72
 C -0.21 -0.54  2.16
 O  0.73 -0.57  3.03
 H  1.02  0.18  0.58
 H -0.75  0.08  0.14
 H  0.23 -1.38  0.31
 N -1.49 -0.72  2.60
 C -2.60  0.16  2.23
 C -2.44  1.45  3.06
 O -1.36  1.69  3.71
 H -1.53 -1.09  3.55
 H -2.46  0.44  1.15
 C -3.93 -0.62  2.35
 C -5.25 -0.01  1.83
 C -5.30  0.51  0.38
 N -4.75 -0.39 -0.62
 C -3.44 -0.38 -1.01
 N -2.98 -1.54 -1.58
 N -2.58  0.59 -0.81
 H -4.09 -0.91  3.40
 H -3.74 -1.55  1.80
 H -5.63  0.78  2.50
 H -5.99 -0.81  1.94
 H -4.78  1.48  0.29
 H -6.34  0.72  0.12
 H -5.38 -1.09 -1.01
 H -2.20 -1.44 -2.22
 H -3.61 -2.31 -1.76
 H -3.07  1.47 -0.63
 N -3.41  2.34  3.05
 C -3.37  3.63  3.74
 H -4.26  2.10  2.55
 H -4.29  4.17  3.52
 H -2.52  4.23  3.39
 H -3.28  3.49  4.83
Ca  0.60  1.10  4.35
