36
#
 C  0.30  1.06  0.13
 C -0.06  0.17  1.27
 O  0.85 -0.43  1.94
 H  0.65  2.04  0.51
 H -0.52  1.22 -0.56
 H  1.15  0.61 -0.39
 N -1.35 -0.01  1.63
 C -2.30  1.10  1.76
 C -1.80  1.99  2.94
 O -0.76  1.63  3.61
 H -1.50 -0.76  2.30
 H -2.28  1.69  0.84
 C -3.72  0.55  2.00
 C -3.95 -0.04  3.40
 C -5.44  0.03  3.82
 N -5.62  0.07  5.25
 C -5.39  1.22  5.97
 N -5.83  1.17  7.27
 N -4.76  2.22  5.41
 H -3.93 -0.18  1.20
 H -4.43  1.37  1.84
 H -3.41  0.56  4.15
 H -3.59 -1.08  3.47
 H -6.00 -0.83  3.42
 H -5.88  0.94  3.38
 H -6.06 -0.71  5.71
 H -5.77  2.02  7.81
 H -6.65  0.61  7.49
 H -4.76  3.02  6.03
 N -2.41  3.11  3.26
 C -3.62  3.72  2.70
 H -2.06  3.55  4.11
 H -4.49  3.36  3.28
 H -3.72  3.48  1.63
 H -3.53  4.80  2.80
Ca  0.93  0.39  3.94
