36
#
 C -0.10 -0.50  0.58
 C -0.63 -0.78  1.95
 O -0.09 -1.72  2.64
 H -0.04 -1.44  0.01
 H  0.93 -0.13  0.68
 H -0.69  0.23  0.02
 N -1.61 -0.09  2.50
 C -2.37  1.07  2.05
 C -2.50  1.91  3.37
 O -2.44  1.29  4.44
 H -1.75 -0.16  3.53
 H -1.83  1.62  1.27
 C -3.81  0.71  1.59
 C -4.00 -0.29  0.43
 C -4.36 -1.74  0.80
 N -3.22 -2.68  0.84
 C -2.72 -3.37  1.87
 N -3.00 -2.97  3.21
 N -1.85 -4.35  1.82
 H -4.28  1.66  1.31
 H -4.37  0.37  2.47
 H -3.13 -0.28 -0.25
 H -4.83  0.08 -0.18
 H -5.06 -2.14  0.06
 H -4.89 -1.78  1.76
 H -2.87 -2.95 -0.07
 H -3.58 -3.67  3.69
 H -3.43 -2.05  3.31
 H -1.71 -4.77  0.90
 N -2.71  3.22  3.26
 C -2.91  4.09  4.42
 H -2.71  3.65  2.33
 H -2.95  5.13  4.08
 H -2.07  3.97  5.12
 H -3.84  3.83  4.93
Ca -0.52 -3.60  3.52
