36
#
 C  0.54 -0.57  0.20
 C  0.36 -0.30  1.66
 O  1.34 -0.35  2.45
 H  0.94 -1.59  0.08
 H  1.30  0.12 -0.20
 H -0.38 -0.48 -0.38
 N -0.88 -0.02  2.10
 C -1.33  0.17  3.49
 C -0.71  1.45  4.08
 O  0.44  1.44  4.61
 H -1.62 -0.03  1.39
 H -2.41  0.33  3.42
 C -1.10 -1.08  4.37
 C -1.52 -0.91  5.84
 C -0.36 -0.92  6.85
 N  0.38 -2.17  6.86
 C  1.71 -2.33  6.68
 N  2.26 -3.46  7.19
 N  2.44 -1.43  6.00
 H -0.06 -1.43  4.31
 H -1.69 -1.89  3.90
 H -2.23 -1.71  6.11
 H -2.08  0.03  5.99
 H -0.77 -0.74  7.86
 H  0.35 -0.11  6.66
 H -0.11 -2.97  7.27
 H  1.78 -4.02  7.88
 H  3.19 -3.75  6.94
 H  3.43 -1.65  6.16
 N -1.41  2.59  4.03
 C -2.74  2.82  3.46
 H -0.93  3.39  4.44
 H -3.51  2.24  3.98
 H -2.75  2.60  2.38
 H -2.97  3.88  3.59
Ca  2.23  0.18  4.38
