36
#
 C -0.24 -1.27  0.90
 C  0.10 -0.50  2.13
 O  1.27 -0.45  2.58
 H -0.10 -0.64  0.01
 H -1.27 -1.65  0.90
 H  0.47 -2.11  0.81
 N -0.88  0.19  2.79
 C -1.91  0.97  2.13
 C -1.21  2.07  1.28
 O  0.00  2.36  1.50
 H -0.58  0.55  3.71
 H -2.47  0.32  1.44
 C -2.92  1.54  3.16
 C -2.35  2.05  4.50
 C -1.44  3.29  4.43
 N -0.63  3.47  5.62
 C  0.42  2.69  5.96
 N  0.83  2.73  7.25
 N  1.02  1.91  5.05
 H -3.64  0.74  3.39
 H -3.51  2.34  2.68
 H -1.82  1.23  5.01
 H -3.21  2.27  5.15
 H -2.05  4.20  4.31
 H -0.78  3.27  3.55
 H -0.97  4.12  6.32
 H  1.72  2.35  7.52
 H  0.30  3.21  7.97
 H  1.61  1.24  5.55
 N -1.88  2.69  0.31
 C -3.26  2.49 -0.14
 H -1.34  3.40 -0.18
 H -3.28  2.55 -1.23
 H -3.91  3.28  0.26
 H -3.64  1.51  0.16
Ca  1.67  1.74  2.85
