36
#
 C -1.28  1.47 -0.20
 C -1.83  0.43  0.73
 O -2.48 -0.55  0.29
 H -0.64  0.98 -0.94
 H -0.71  2.26  0.30
 H -2.11  1.92 -0.75
 N -1.60  0.60  2.06
 C -2.11 -0.21  3.18
 C -1.40 -1.58  3.21
 O -1.65 -2.47  2.36
 H -1.06  1.42  2.31
 H -1.81  0.33  4.08
 C -3.66 -0.25  3.17
 C -4.38 -1.23  4.11
 C -4.55 -2.69  3.64
 N -5.06 -2.75  2.22
 C -5.31 -4.09  1.75
 N -6.47 -4.67  2.08
 N -4.35 -4.58  1.00
 H -4.01 -0.39  2.14
 H -3.98  0.77  3.43
 H -5.38 -0.81  4.29
 H -3.90 -1.26  5.10
 H -5.25 -3.19  4.33
 H -3.61 -3.25  3.68
 H -5.91 -2.20  2.15
 H -6.73 -5.59  1.73
 H -7.11 -4.24  2.73
 H -4.49 -5.55  0.71
 N -0.51 -1.76  4.18
 C  0.30 -2.97  4.36
 H -0.34 -0.99  4.82
 H  0.24 -3.29  5.41
 H  1.34 -2.76  4.11
 H -0.09 -3.75  3.71
Ca -3.00 -2.69  0.62
