36
#
 C  2.00  0.86  1.40
 C  1.23  0.55  2.64
 O  1.83  0.50  3.77
 H  2.43  1.86  1.48
 H  1.38  0.79  0.50
 H  2.85  0.16  1.32
 N -0.08  0.34  2.55
 C -0.93  0.12  3.73
 C -0.58 -1.24  4.38
 O  0.14 -1.23  5.44
 H -0.53  0.51  1.59
 H -0.64  0.85  4.50
 C -2.43  0.31  3.44
 C -2.88  1.79  3.34
 C -3.88  2.08  2.19
 N -3.23  2.22  0.87
 C -2.47  1.17  0.38
 N -3.14 -0.02  0.22
 N -1.18  1.21  0.14
 H -2.99 -0.18  4.24
 H -2.70 -0.22  2.52
 H -2.01  2.46  3.20
 H -3.34  2.10  4.29
 H -4.40  3.02  2.39
 H -4.65  1.30  2.15
 H -2.72  3.10  0.81
 H -2.66 -0.67 -0.40
 H -4.14  0.06  0.03
 H -0.83  2.15  0.29
 N -0.99 -2.40  3.91
 C -1.77 -2.71  2.70
 H -0.71 -3.20  4.48
 H -1.47 -3.71  2.36
 H -1.57 -1.99  1.91
 H -2.84 -2.73  2.93
Ca  1.99 -0.21  5.73
