36
#
 C -0.89 -2.73  0.81
 C -0.79 -1.59  1.76
 O  0.25 -0.85  1.79
 H -0.82 -2.34 -0.22
 H -1.81 -3.30  0.91
 H -0.03 -3.40  0.95
 N -1.81 -1.34  2.59
 C -1.89 -0.17  3.49
 C -0.88 -0.31  4.65
 O  0.24  0.30  4.53
 H -2.63 -1.94  2.54
 H -1.53  0.69  2.91
 C -3.33  0.08  3.94
 C -4.33  0.50  2.86
 C -5.78  0.41  3.39
 N -6.16 -0.95  3.76
 C -5.93 -1.50  5.01
 N -6.15 -2.87  5.07
 N -5.44 -0.91  6.05
 H -3.28  0.86  4.72
 H -3.71 -0.81  4.45
 H -4.25 -0.15  1.98
 H -4.13  1.53  2.52
 H -6.46  0.75  2.61
 H -5.91  1.10  4.24
 H -6.87 -1.38  3.18
 H -6.34 -3.21  6.00
 H -6.71 -3.30  4.34
 H -5.43  0.11  5.94
 N -1.12 -1.02  5.74
 C -2.24 -1.90  6.11
 H -0.36 -0.96  6.42
 H -1.90 -2.51  6.96
 H -2.49 -2.58  5.28
 H -3.14 -1.35  6.41
Ca  1.55  0.43  2.87
