36
#
 C  0.86 -1.00  0.49
 C  0.37  0.04  1.46
 O  1.00  1.12  1.60
 H  0.88 -0.57 -0.51
 H  0.25 -1.91  0.48
 H  1.89 -1.27  0.75
 N -0.73 -0.25  2.17
 C -1.39  0.54  3.24
 C -2.08  1.78  2.63
 O -1.38  2.75  2.22
 H -1.15 -1.16  1.99
 H -2.15 -0.14  3.63
 C -0.49  0.98  4.42
 C  0.60  0.01  4.88
 C  1.78  0.75  5.52
 N  2.37  1.71  4.58
 C  2.38  3.06  4.69
 N  2.56  3.58  5.92
 N  2.17  3.80  3.60
 H -1.17  1.22  5.25
 H -0.02  1.94  4.16
 H  0.99 -0.58  4.03
 H  0.21 -0.72  5.60
 H  2.54  0.03  5.85
 H  1.45  1.31  6.41
 H  2.52  1.36  3.63
 H  2.47  4.58  6.08
 H  3.04  3.05  6.64
 H  2.51  4.76  3.74
 N -3.40  1.83  2.56
 C -4.38  0.82  2.98
 H -3.77  2.69  2.17
 H -5.38  1.20  2.73
 H -4.35  0.66  4.07
 H -4.24 -0.12  2.45
Ca  0.75  3.28  1.86
