36
#
 C -0.29 -0.86 -0.76
 C -0.03 -0.44  0.65
 O  1.18 -0.38  1.09
 H -0.00 -1.92 -0.88
 H  0.36 -0.28 -1.43
 H -1.33 -0.74 -1.07
 N -0.99 -0.10  1.48
 C -2.45 -0.15  1.42
 C -2.85  0.60  2.73
 O -2.01  0.62  3.66
 H -0.73  0.22  2.43
 H -2.80  0.39  0.53
 C -3.05 -1.58  1.43
 C -3.11 -2.34  2.77
 C -1.88 -3.12  3.25
 N -0.74 -2.29  3.64
 C  0.44 -2.79  4.09
 N  0.50 -4.11  4.35
 N  1.51 -1.99  4.20
 H -2.52 -2.18  0.67
 H -4.08 -1.48  1.07
 H -3.90 -3.10  2.66
 H -3.46 -1.68  3.58
 H -2.22 -3.72  4.12
 H -1.55 -3.82  2.47
 H -0.92 -1.31  3.87
 H  1.39 -4.55  4.56
 H -0.33 -4.68  4.49
 H  2.16 -2.38  4.89
 N -4.07  1.12  2.85
 C -5.15  1.18  1.86
 H -4.26  1.53  3.76
 H -4.75  1.17  0.84
 H -5.70  2.11  2.00
 H -5.84  0.33  1.99
Ca  2.46 -0.57  2.75
