36
#
 C -0.55  0.36 -0.61
 C -0.30  0.74  0.81
 O  0.94  0.96  1.19
 H -0.08  1.09 -1.27
 H -1.61  0.29 -0.85
 H -0.08 -0.61 -0.81
 N -1.24  0.87  1.70
 C -2.70  0.73  1.61
 C -3.16  1.54  2.86
 O -2.33  1.71  3.77
 H -1.04  1.18  2.69
 H -3.06  1.20  0.69
 C -3.10 -0.77  1.69
 C -4.60 -1.08  1.62
 C -5.28 -0.67  0.31
 N -6.69 -0.99  0.34
 C -7.60 -0.40 -0.53
 N -8.88 -0.86 -0.42
 N -7.35  0.52 -1.42
 H -2.69 -1.17  2.62
 H -2.59 -1.29  0.86
 H -5.13 -0.62  2.48
 H -4.70 -2.17  1.76
 H -4.76 -1.14 -0.54
 H -5.20  0.42  0.16
 H -6.93 -1.93  0.65
 H -9.56 -0.41 -1.02
 H -9.22 -1.26  0.44
 H -6.35  0.73 -1.51
 N -4.42  1.98  2.88
 C -5.01  2.71  4.00
 H -5.01  1.81  2.07
 H -5.84  2.13  4.43
 H -5.38  3.68  3.66
 H -4.24  2.85  4.76
Ca  2.83  1.33  1.74
