36
#
 C  0.54 -3.86  0.38
 C  0.45 -2.79  1.43
 O  1.60 -2.46  2.01
 H  1.22 -3.54 -0.42
 H -0.45 -4.06 -0.05
 H  0.95 -4.78  0.81
 N -0.70 -2.26  1.71
 C -0.72 -1.18  2.70
 C -0.41 -1.73  4.09
 O  0.71 -1.43  4.65
 H -3.56  4.37 -0.37
 H  0.10 -0.46  2.51
 C -2.05 -0.40  2.59
 C -2.20  0.21  1.20
 C -3.62  0.69  0.87
 N -4.07  1.87  1.62
 C -4.07  3.14  1.19
 N -4.76  4.07  1.86
 N -3.38  3.49  0.10
 H -2.07  0.37  3.38
 H -2.89 -1.08  2.78
 H -1.48  1.02  1.05
 H -1.96 -0.57  0.46
 H -4.35 -0.10  1.06
 H -3.71  0.93 -0.20
 H -4.47  1.71  2.54
 H -4.63  5.06  1.67
 H -5.49  3.82  2.51
 H -2.73  2.86 -0.34
 N -1.22 -2.57  4.73
 C -2.45 -3.20  4.24
 H -0.89 -2.86  5.64
 H -2.48 -4.23  4.63
 H -2.44 -3.24  3.15
 H -3.34 -2.67  4.61
Ca  2.59 -1.80  3.65
