36
#
 C -0.18 -1.79  1.60
 C -0.32 -0.44  2.22
 O  0.49  0.50  1.88
 H -0.17 -1.67  0.51
 H -0.98 -2.47  1.90
 H  0.80 -2.22  1.88
 N -1.28 -0.25  3.12
 C -1.65  1.06  3.68
 C -0.63  1.54  4.74
 O  0.48  2.03  4.36
 H -1.94 -1.08  3.26
 H -1.52  1.80  2.87
 C -3.15  1.12  4.07
 C -3.69  0.34  5.30
 C -5.06 -0.34  5.07
 N -4.97 -1.71  4.54
 C -4.17 -1.87  3.40
 N -4.68 -1.28  2.28
 N -3.00 -2.43  3.36
 H -3.68  0.80  3.17
 H -3.40  2.19  4.18
 H -3.81  1.04  6.15
 H -2.99 -0.45  5.63
 H -5.69  0.28  4.41
 H -5.60 -0.41  6.02
 H -4.68 -2.36  5.27
 H -4.24 -1.54  1.40
 H -5.69 -1.17  2.23
 H -2.75 -2.82  4.28
 N -0.91  1.45  6.03
 C -0.02  1.89  7.11
 H -1.81  1.05  6.29
 H -0.60  1.94  8.03
 H  0.38  2.89  6.88
 H  0.81  1.19  7.23
Ca  1.67  2.05  2.59
