36
#
 C -0.16 -0.50  0.15
 C -0.07 -0.84  1.61
 O  1.00 -1.08  2.18
 H  0.33  0.47 -0.01
 H -1.18 -0.45 -0.24
 H  0.42 -1.24 -0.43
 N -1.26 -0.88  2.31
 C -1.29 -0.90  3.77
 C -0.97 -2.30  4.36
 O -1.76 -2.86  5.21
 H -2.11 -0.68  1.81
 H -0.46 -0.26  4.12
 C -2.60 -0.31  4.31
 C -3.90 -0.96  3.81
 C -5.13 -0.68  4.68
 N -5.09 -1.40  6.01
 C -4.65 -0.67  7.19
 N -5.12  0.56  7.40
 N -3.81 -1.35  7.92
 H -2.61  0.76  4.07
 H -2.53 -0.35  5.41
 H -3.79 -2.05  3.69
 H -4.15 -0.59  2.80
 H -6.03 -1.04  4.16
 H -5.25  0.40  4.82
 H -6.04 -1.74  6.20
 H -4.83  1.10  8.21
 H -5.86  0.96  6.84
 H -3.53 -0.90  8.80
 N  0.16 -2.84  4.00
 C  0.66 -4.13  4.45
 H  0.72 -2.25  3.33
 H  1.56 -4.38  3.88
 H -0.09 -4.92  4.29
 H  0.92 -4.10  5.52
Ca -3.32 -3.15  6.57
