36
#
 C -1.44  1.22 -0.41
 C -1.23  1.23  1.07
 O -0.90  2.21  1.72
 H -2.37  1.75 -0.64
 H -1.49  0.21 -0.84
 H -0.63  1.79 -0.89
 N -1.42 -0.00  1.73
 C -1.47  0.03  3.18
 C -0.37 -0.80  3.82
 O -0.40 -1.04  5.08
 H -1.91 -0.73  1.23
 H -1.17  1.08  3.40
 C -2.88 -0.16  3.78
 C -3.62 -1.49  3.57
 C -3.20 -2.70  4.42
 N -3.42 -2.44  5.89
 C -3.15 -3.59  6.73
 N -4.08 -4.54  6.83
 N -1.98 -3.53  7.32
 H -3.49  0.64  3.34
 H -2.86  0.11  4.85
 H -3.54 -1.80  2.52
 H -4.69 -1.32  3.73
 H -2.14 -2.95  4.29
 H -3.78 -3.57  4.10
 H -4.40 -2.14  6.02
 H -3.95 -5.34  7.44
 H -4.93 -4.53  6.27
 H -1.73 -4.36  7.86
 N  0.64 -1.17  3.06
 C  1.87 -1.83  3.50
 H  0.54 -0.90  2.08
 H  2.71 -1.15  3.39
 H  2.05 -2.72  2.88
 H  1.77 -2.13  4.55
Ca -1.39 -1.35  6.91
