36
#
 C  1.48  1.23  0.52
 C  0.70  1.14  1.79
 O  1.04  1.86  2.80
 H  1.34  2.24  0.09
 H  2.55  1.13  0.74
 H  1.17  0.48 -0.21
 N -0.34  0.32  1.85
 C -1.25  0.20  3.01
 C -0.53 -0.57  4.14
 O  0.22  0.07  4.96
 H -0.59 -0.19  0.94
 H -1.42  1.21  3.41
 C -2.60 -0.42  2.61
 C -3.51  0.49  1.74
 C -4.29 -0.27  0.64
 N -3.51 -0.50 -0.59
 C -2.28 -1.15 -0.47
 N -2.35 -2.44  0.00
 N -1.11 -0.62 -0.69
 H -3.13 -0.68  3.53
 H -2.41 -1.37  2.07
 H -2.93  1.29  1.26
 H -4.23  1.00  2.40
 H -5.17  0.31  0.35
 H -4.67 -1.23  1.02
 H -3.40  0.37 -1.11
 H -1.51 -2.98 -0.16
 H -3.21 -2.94 -0.22
 H -1.23  0.34 -1.03
 N -0.71 -1.87  4.24
 C -0.10 -2.75  5.24
 H -1.33 -2.30  3.56
 H -0.87 -3.41  5.65
 H  0.32 -2.14  6.05
 H  0.69 -3.35  4.78
Ca  1.36  1.87  4.86
