36
#
 C  0.83 -0.65  0.96
 C  0.33  0.03  2.20
 O  1.12  0.77  2.87
 H  1.14  0.12  0.24
 H  0.09 -1.30  0.49
 H  1.73 -1.24  1.20
 N -0.94 -0.16  2.56
 C -1.68  0.52  3.64
 C -1.36 -0.11  5.02
 O -0.16  0.19  5.48
 H -1.48 -0.80  1.98
 H -1.30  1.55  3.67
 C -3.16  0.53  3.26
 C -4.05  1.36  4.21
 C -5.35  0.65  4.60
 N -5.02 -0.61  5.29
 C -5.91 -1.50  5.70
 N -7.23 -1.25  5.64
 N -5.49 -2.69  6.17
 H -3.51 -0.52  3.22
 H -3.25  0.92  2.24
 H -4.32  2.31  3.74
 H -3.51  1.61  5.13
 H -5.96  0.44  3.71
 H -5.93  1.31  5.27
 H -3.99 -0.81  5.40
 H -7.92 -1.96  5.87
 H -7.58 -0.33  5.41
 H -6.12 -3.33  6.65
 N -2.23 -0.85  5.61
 C -1.88 -1.42  6.91
 H -4.52 -2.95  6.12
 H -2.79 -1.54  7.51
 H -1.17 -0.80  7.48
 H -1.43 -2.42  6.78
Ca  1.63  1.00  4.93
