36
#
 C -0.96 -0.02  3.14
 C -1.72 -0.53  1.96
 O -2.28 -1.65  1.97
 H -1.65  0.20  3.97
 H -0.34  0.85  2.92
 H -0.31 -0.84  3.50
 N -1.83  0.24  0.84
 C -2.13  1.67  0.87
 C -3.27  1.90  1.89
 O -4.10  0.97  2.12
 H -2.17 -0.26  0.02
 H -1.23  2.24  1.16
 C -2.64  2.16 -0.52
 C -2.00  1.53 -1.78
 C -2.89  0.55 -2.57
 N -3.01 -0.82 -2.01
 C -4.00 -1.24 -1.18
 N -3.89 -2.55 -0.66
 N -4.97 -0.55 -0.65
 H -2.47  3.25 -0.54
 H -3.73  2.04 -0.55
 H -1.03  1.07 -1.56
 H -1.77  2.34 -2.48
 H -2.46  0.42 -3.57
 H -3.89  0.97 -2.73
 H -2.47 -1.54 -2.49
 H -4.70 -3.13 -0.90
 H -3.03 -3.06 -0.85
 H -5.14  0.35 -1.09
 N -3.35  3.10  2.46
 C -4.40  3.54  3.38
 H -2.63  3.77  2.23
 H -4.93  4.40  2.95
 H -3.96  3.83  4.33
 H -5.10  2.72  3.54
Ca -4.48 -1.19  1.56
