36
#
 C -0.21 -0.03  1.80
 C -0.90 -0.17  3.12
 O -0.35  0.38  4.16
 H -0.84  0.52  1.08
 H  0.01 -1.01  1.35
 H  0.73  0.52  1.93
 N -2.03 -0.85  3.38
 C -2.52 -1.93  2.53
 C -1.51 -3.09  2.71
 O -0.86 -3.15  3.80
 H -1.71  2.37  3.80
 H -3.41 -2.32  3.05
 C -3.02 -1.60  1.11
 C -4.25 -0.67  1.06
 C -4.03  0.84  0.95
 N -3.44  1.42  2.16
 C -3.09  2.71  2.31
 N -3.55  3.64  1.47
 N -2.27  3.06  3.31
 H -3.34 -2.55  0.65
 H -2.21 -1.21  0.46
 H -4.91 -0.88  1.92
 H -4.84 -0.94  0.17
 H -5.02  1.30  0.77
 H -3.40  1.07  0.08
 H -3.12  0.76  2.87
 H -4.32  3.45  0.84
 H -3.22  4.60  1.51
 H -2.13  4.03  3.57
 N -1.37 -4.03  1.78
 C -0.51 -5.21  1.94
 H -1.90 -3.94  0.93
 H -0.62 -5.84  1.06
 H -0.80 -5.77  2.84
 H  0.54 -4.91  2.04
Ca -0.87 -1.47  5.28
