36
#
 C  0.81  0.73  1.72
 C -0.29 -0.22  1.37
 O -0.21 -1.45  1.62
 H  0.68  1.09  2.75
 H  0.85  1.60  1.05
 H  1.76  0.19  1.69
 N -1.43  0.25  0.78
 C -2.13  1.46  1.15
 C -2.42  1.45  2.68
 O -2.38  0.36  3.33
 H -2.03 -0.50  0.43
 H -1.49  2.34  0.94
 C -3.42  1.61  0.29
 C -4.27  0.37 -0.01
 C -4.98 -0.38  1.14
 N -4.23 -1.60  1.57
 C -4.78 -2.44  2.59
 N -6.10 -2.39  2.83
 N -3.88 -3.14  3.23
 H -3.11  2.03 -0.68
 H -4.05  2.38  0.76
 H -3.72 -0.35 -0.64
 H -5.06  0.73 -0.68
 H -5.98 -0.66  0.78
 H -5.11  0.26  2.02
 H -4.04 -2.19  0.75
 H -6.51 -2.93  3.59
 H -6.75 -1.95  2.19
 H -4.27 -3.85  3.86
 N -2.69  2.61  3.25
 C -3.01  2.82  4.66
 H -2.66  3.44  2.66
 H -4.01  3.26  4.75
 H -2.28  3.50  5.11
 H -2.99  1.86  5.17
Ca -1.99 -1.82  3.00
