36
#
 C -2.04 -0.36  0.74
 C -1.30  0.00  1.99
 O  0.01 -0.11  1.93
 H -3.12 -0.19  0.83
 H -1.85 -1.41  0.48
 H -1.66  0.24 -0.10
 N -1.97  0.39  3.04
 C -1.26  0.71  4.29
 C -0.19  1.80  4.10
 O  1.06  1.53  4.05
 H -3.53 -0.42  3.29
 H -2.01  1.19  4.94
 C -0.75 -0.55  5.03
 C -1.59 -0.92  6.27
 C -3.10 -1.10  6.05
 N -3.47 -2.24  5.20
 C -4.29 -2.18  4.13
 N -5.02 -3.26  3.82
 N -4.36 -1.07  3.40
 H  0.28 -0.40  5.38
 H -0.74 -1.39  4.32
 H -1.48 -0.13  7.03
 H -1.18 -1.83  6.72
 H -3.56 -0.20  5.62
 H -3.57 -1.24  7.03
 H -3.34 -3.16  5.61
 H -5.47 -3.35  2.92
 H -5.24 -3.97  4.51
 H -5.11 -0.98  2.73
 N -0.58  3.06  3.99
 C -1.95  3.59  4.02
 H  0.18  3.74  3.90
 H -1.96  4.54  3.49
 H -2.28  3.76  5.05
 H -2.63  2.90  3.51
Ca  1.90  0.19  2.62
