36
#
 C -1.10  0.08 -0.30
 C -0.82 -0.78  0.90
 O  0.16 -1.62  0.86
 H -1.35 -0.57 -1.15
 H -0.20  0.64 -0.58
 H -1.92  0.78 -0.14
 N -1.60 -0.65  1.95
 C -1.64 -1.38  3.21
 C -2.83 -0.66  3.96
 O -3.26  0.39  3.48
 H -2.33  0.10  1.98
 H -1.92 -2.42  3.01
 C -0.33 -1.36  4.02
 C  0.33  0.01  4.18
 C  1.67 -0.03  4.95
 N  2.58 -1.10  4.51
 C  3.00 -1.29  3.26
 N  3.46 -2.59  2.88
 N  2.93 -0.47  2.23
 H  0.37 -2.06  3.53
 H -0.54 -1.80  5.01
 H -0.33  0.70  4.73
 H  0.47  0.47  3.20
 H  1.49 -0.21  6.02
 H  2.17  0.95  4.89
 H  2.88 -1.76  5.22
 H  4.46 -2.60  2.67
 H  3.27 -3.33  3.57
 H  2.72  0.50  2.48
 N -3.27 -1.25  5.08
 C -4.38 -0.71  5.87
 H -2.92 -2.16  5.33
 H -4.14 -0.78  6.93
 H -5.31 -1.26  5.66
 H -4.53  0.34  5.59
Ca  2.22 -2.00  0.69
