36
#
 C -0.32 -0.25  0.75
 C -0.37 -0.05  2.22
 O  0.70 -0.05  2.92
 H  0.39  0.44  0.27
 H -1.30 -0.19  0.26
 H  0.09 -1.26  0.58
 N -1.55  0.14  2.85
 C -2.55  1.14  2.41
 C -1.80  2.47  2.22
 O -0.74  2.69  2.92
 H -1.49  0.06  3.87
 H -3.01  0.82  1.47
 C -3.62  1.24  3.53
 C -4.83  2.13  3.23
 C -5.89  1.50  2.30
 N -6.79  2.51  1.75
 C -6.61  3.00  0.46
 N -6.59  2.01 -0.52
 N -6.43  4.27  0.30
 H -3.11  1.59  4.44
 H -3.95  0.21  3.72
 H -4.51  3.10  2.82
 H -5.30  2.37  4.19
 H -6.45  0.74  2.86
 H -5.42  0.98  1.45
 H -7.00  3.28  2.38
 H -7.25  1.25 -0.38
 H -6.59  2.35 -1.47
 H -6.53  4.56 -0.68
 N -2.20  3.39  1.36
 C -3.29  3.36  0.39
 H -1.66  4.25  1.39
 H -3.68  2.35  0.25
 H -2.90  3.73 -0.57
 H -4.13  4.01  0.69
Ca  1.05  1.90  3.78
