36
#
 C -3.19 -2.03 -1.68
 C -2.00 -1.42 -0.99
 O -0.82 -1.66 -1.45
 H -3.47 -1.42 -2.55
 H -4.06 -2.12 -1.03
 H -2.90 -3.01 -2.06
 N -2.04 -0.57  0.05
 C -3.20  0.24  0.37
 C -2.86  1.68 -0.09
 O -1.71  1.93 -0.57
 H -1.66 -2.07  1.79
 H -4.10 -0.07 -0.21
 C -3.52  0.14  1.87
 C -4.09 -1.24  2.22
 C -3.94 -1.67  3.68
 N -2.56 -1.69  4.23
 C -1.52 -2.44  3.82
 N -0.67 -2.94  4.74
 N -1.30 -2.69  2.52
 H -4.22  0.93  2.19
 H -2.58  0.33  2.42
 H -3.67 -2.01  1.56
 H -5.17 -1.26  2.01
 H -4.39 -2.67  3.81
 H -4.49 -0.98  4.33
 H -2.50 -1.38  5.19
 H  0.25 -3.27  4.48
 H -0.95 -3.05  5.71
 H -0.66 -3.42  2.25
 N -3.80  2.62  0.01
 C -3.64  4.02 -0.39
 H -4.70  2.34  0.37
 H -3.88  4.67  0.45
 H -4.31  4.24 -1.23
 H -2.61  4.18 -0.70
Ca -0.17  0.37 -0.91
