36
#
 C  0.53  1.44  0.33
 C  0.26  0.79  1.64
 O  1.20  0.18  2.28
 H -0.40  1.57 -0.24
 H  1.26  0.84 -0.23
 H  1.00  2.42  0.51
 N -0.96  0.87  2.16
 C -1.29  0.34  3.48
 C -1.17 -1.20  3.50
 O -0.17 -1.69  4.14
 H -1.72  1.43  1.67
 H -0.46  0.63  4.15
 C -2.54  0.98  4.15
 C -3.87  1.25  3.41
 C -3.91  2.48  2.50
 N -3.13  2.32  1.26
 C -3.59  1.53  0.15
 N -4.91  1.15  0.19
 N -2.67  1.20 -0.69
 H -2.19  1.94  4.56
 H -2.75  0.36  5.03
 H -4.61  1.42  4.20
 H -4.23  0.37  2.86
 H -3.48  3.35  3.02
 H -4.96  2.75  2.30
 H -2.74  3.19  0.91
 H -5.59  1.77  0.61
 H -5.26  0.66 -0.63
 H -3.05  0.73 -1.52
 N -1.99 -2.03  2.89
 C -3.12 -1.78  1.99
 H -1.77 -3.01  3.05
 H -2.99 -0.83  1.47
 H -4.07 -1.79  2.54
 H -3.14 -2.58  1.25
Ca  1.87 -1.18  3.72
