36
#
 C -1.13  0.10  0.33
 C -0.77 -0.03  1.77
 O  0.27 -0.70  2.11
 H -1.29 -0.91 -0.08
 H -0.29  0.53 -0.22
 H -2.03  0.70  0.16
 N -1.56  0.54  2.68
 C -1.55  0.43  4.16
 C -0.38  1.18  4.79
 O  0.83  0.79  4.59
 H -2.38  1.03  2.33
 H -2.50  0.93  4.43
 C -1.64 -1.02  4.70
 C -2.64 -1.08  5.87
 C -4.08 -1.45  5.46
 N -4.54 -0.98  4.15
 C -5.03  0.30  3.93
 N -6.08  0.37  3.04
 N -4.42  1.32  4.48
 H -0.65 -1.38  5.04
 H -1.96 -1.68  3.89
 H -2.64 -0.13  6.41
 H -2.31 -1.84  6.60
 H -4.77 -1.10  6.25
 H -4.17 -2.54  5.42
 H -5.01 -1.69  3.60
 H -6.46  1.28  2.84
 H -6.76 -0.38  3.02
 H -4.95  2.18  4.33
 N -0.58  2.21  5.59
 C -1.82  2.87  6.01
 H  0.28  2.60  5.98
 H -1.86  2.87  7.10
 H -2.70  2.34  5.61
 H -1.81  3.90  5.66
Ca  1.86 -0.67  3.47
