36
#
 C  1.60  1.05  1.00
 C  1.10  1.36  2.37
 O  1.60  2.32  3.05
 H  2.66  1.34  0.94
 H  1.05  1.64  0.26
 H  1.50 -0.01  0.75
 N  0.08  0.64  2.89
 C -1.13  0.33  2.11
 C -1.76  1.66  1.60
 O -1.33  2.78  2.18
 H -0.11  0.86  3.87
 H -0.83 -0.25  1.23
 C -2.07 -0.51  3.01
 C -3.38 -0.96  2.37
 C -3.19 -1.92  1.18
 N -4.40 -2.13  0.40
 C -4.74 -1.39 -0.67
 N -5.76 -1.81 -1.45
 N -4.08 -0.27 -0.97
 H -2.31  0.08  3.91
 H -1.49 -1.38  3.35
 H -3.96 -0.08  2.04
 H -3.99 -1.45  3.14
 H -2.85 -2.91  1.53
 H -2.42 -1.56  0.49
 H -5.05 -2.85  0.70
 H -6.18 -1.20 -2.14
 H -6.11 -2.76 -1.40
 H -4.23  0.15 -1.88
 N -2.63  1.59  0.67
 C -3.26  2.84  0.21
 H -3.48  0.26 -0.30
 H -4.20  2.61 -0.29
 H -2.61  3.35 -0.52
 H -3.46  3.54  1.03
Ca  0.11  3.92  3.10
