36
#
 C -0.28  1.18  2.49
 C -0.04 -0.28  2.29
 O  0.56 -0.98  3.15
 H -1.22  1.33  3.04
 H -0.33  1.74  1.55
 H  0.53  1.58  3.12
 N -0.50 -0.90  1.16
 C -1.80 -0.63  0.56
 C -2.89 -1.03  1.60
 O -2.58 -1.60  2.68
 H -0.15 -1.85  1.04
 H -1.88  0.46  0.42
 C -1.90 -1.29 -0.84
 C -2.58 -2.67 -1.03
 C -2.20 -3.83 -0.11
 N -0.77 -4.09  0.01
 C -0.11 -4.22  1.19
 N  1.25 -4.14  1.16
 N -0.71 -4.29  2.37
 H -0.88 -1.32 -1.23
 H -2.43 -0.59 -1.51
 H -2.39 -2.96 -2.08
 H -3.67 -2.57 -0.96
 H -2.72 -4.74 -0.45
 H -2.57 -3.63  0.91
 H -0.27 -4.32 -0.85
 H  1.76 -4.57  1.92
 H  1.75 -4.02  0.29
 H -1.64 -4.70  2.26
 N -4.15 -0.72  1.29
 C -5.32 -0.98  2.12
 H -4.31 -0.23  0.41
 H -6.09 -1.49  1.53
 H -5.73 -0.04  2.50
 H -5.03 -1.62  2.96
Ca -0.87 -2.54  3.83
