36
#
 C  0.01  0.42 -0.03
 C -0.05  0.17  1.43
 O  1.01  0.16  2.14
 H  0.45  1.41 -0.24
 H -0.96  0.33 -0.53
 H  0.70 -0.32 -0.46
 N -1.24 -0.05  2.04
 C -2.41  0.82  1.86
 C -1.95  2.27  2.14
 O -0.93  2.45  2.91
 H -1.15 -0.42  3.00
 H -2.78  0.74  0.83
 C -3.52  0.34  2.84
 C -4.75  1.24  2.79
 C -5.98  0.85  3.64
 N -6.96  1.94  3.60
 C -7.40  2.36  2.33
 N -8.25  1.45  1.74
 N -6.95  3.47  1.83
 H -3.11  0.31  3.86
 H -3.77 -0.69  2.55
 H -5.10  1.32  1.75
 H -4.47  2.25  3.11
 H -5.70  0.67  4.69
 H -6.43 -0.08  3.27
 H -6.59  2.77  4.08
 H -8.67  1.70  0.85
 H -8.84  0.91  2.36
 H -7.47  3.75  1.00
 N -2.57  3.32  1.62
 C -3.70  3.42  0.70
 H -2.19  4.21  1.95
 H -4.65  3.61  1.23
 H -3.80  2.50  0.11
 H -3.49  4.26  0.02
Ca  1.00  1.81  3.54
