36
#
 C  0.25  0.49  0.20
 C  0.04  0.38  1.67
 O  0.94  0.78  2.49
 H -0.60  1.02 -0.27
 H  0.31 -0.51 -0.26
 H  1.18  1.02 -0.00
 N -1.11 -0.14  2.12
 C -1.56 -0.09  3.51
 C -0.94 -1.24  4.33
 O  0.29 -1.17  4.64
 H -1.78 -0.49  1.39
 H -1.11  0.81  3.96
 C -3.09  0.10  3.59
 C -3.98 -0.94  2.87
 C -5.01 -0.31  1.90
 N -4.47  0.72  1.02
 C -3.47  0.58  0.08
 N -2.97 -0.74 -0.05
 N -2.87  1.50 -0.59
 H -3.28  1.09  3.15
 H -3.36  0.19  4.65
 H -4.56 -1.53  3.60
 H -3.36 -1.67  2.32
 H -5.80  0.17  2.48
 H -5.50 -1.12  1.33
 H -4.91  1.63  1.06
 H -2.46 -0.79 -0.93
 H -3.69 -1.46 -0.05
 H -3.23  2.44 -0.40
 N -1.69 -2.26  4.70
 C -1.25 -3.41  5.49
 H -2.67 -2.24  4.41
 H -1.91 -3.52  6.36
 H -0.22 -3.26  5.81
 H -1.32 -4.32  4.88
Ca  1.96  0.09  4.18
