36
#
 C -1.58  2.55  2.43
 C -1.47  1.25  3.17
 O -1.01  1.22  4.35
 H -2.23  3.22  3.01
 H -1.97  2.45  1.42
 H -0.59  3.03  2.39
 N -1.87  0.14  2.53
 C -1.98 -1.21  3.11
 C -0.80 -1.45  4.06
 O  0.39 -1.11  3.65
 H -2.24  0.26  1.59
 H -2.90 -1.24  3.70
 C -2.13 -2.28  2.01
 C -0.92 -2.55  1.09
 C  0.14 -3.53  1.62
 N -0.39 -4.89  1.84
 C -0.40 -5.58  2.98
 N -0.60 -6.91  2.95
 N -0.23 -4.98  4.17
 H -2.99 -1.99  1.39
 H -2.45 -3.21  2.50
 H -0.39 -1.62  0.85
 H -1.30 -2.93  0.13
 H  0.60 -3.18  2.54
 H  0.95 -3.61  0.88
 H -0.68 -5.40  1.01
 H -0.83 -7.43  3.78
 H -0.50 -7.43  2.09
 H -0.02 -5.54  4.99
 N -0.93 -1.83  5.31
 C -2.24 -2.15  5.90
 H -0.24 -3.98  4.29
 H -2.90 -1.27  5.95
 H -2.09 -2.50  6.92
 H -2.77 -2.94  5.35
Ca  0.48  0.06  5.48
