36
#
 C -0.30 -0.78  0.27
 C -0.57 -1.20  1.69
 O  0.10 -2.12  2.22
 H -0.40 -1.66 -0.38
 H  0.74 -0.44  0.19
 H -0.97  0.01 -0.09
 N -1.55 -0.55  2.35
 C -2.07 -0.76  3.72
 C -0.96 -0.48  4.76
 O -0.08 -1.36  5.00
 H -2.04  0.17  1.81
 H -2.84  0.01  3.82
 C -2.71 -2.14  4.01
 C -3.47 -2.83  2.87
 C -3.83 -4.29  3.22
 N -2.74 -5.03  3.88
 C -1.47 -5.07  3.40
 N -1.31 -5.06  2.05
 N -0.38 -5.04  4.17
 H -3.38 -1.99  4.88
 H -1.92 -2.81  4.37
 H -2.86 -2.81  1.96
 H -4.40 -2.30  2.63
 H -4.16 -4.82  2.31
 H -4.68 -4.33  3.91
 H -2.81 -5.05  4.89
 H -0.42 -5.40  1.71
 H -2.10 -5.27  1.46
 H -0.62 -5.25  5.15
 N -0.96  0.67  5.41
 C -1.88  1.81  5.28
 H -0.20  0.77  6.09
 H -1.90  2.19  4.25
 H -1.52  2.61  5.93
 H -2.89  1.54  5.60
Ca  0.87 -3.10  4.00
