36
#
 C  0.62  0.22  0.36
 C  0.74 -0.49  1.67
 O  1.50 -1.51  1.79
 H  0.72  1.31  0.49
 H -0.37  0.04 -0.08
 H  1.39 -0.14 -0.33
 N  0.02 -0.08  2.74
 C -1.42  0.23  2.65
 C -2.12 -0.88  1.82
 O -1.52 -2.07  1.85
 H  0.30 -0.55  3.60
 H -1.77  0.10  3.69
 C -1.76  1.67  2.23
 C -3.05  2.16  2.91
 C -3.61  3.47  2.35
 N -3.87  3.52  0.89
 C -4.78  2.80  0.21
 N -5.43  3.39 -0.81
 N -5.03  1.53  0.52
 H -1.86  1.73  1.14
 H -0.92  2.32  2.52
 H -2.86  2.34  3.98
 H -3.82  1.38  2.87
 H -2.91  4.29  2.54
 H -4.54  3.72  2.89
 H -3.60  4.39  0.45
 H -5.92  2.84 -1.51
 H -5.52  4.40 -0.87
 H -5.84  1.09  0.11
 N -3.21 -0.61  1.19
 C -3.88 -1.70  0.49
 H -4.29  0.89  0.91
 H -4.57 -1.28 -0.25
 H -3.18 -2.36 -0.04
 H -4.46 -2.31  1.19
Ca  0.16 -3.24  1.89
