36
#
 C  0.03  0.16  0.08
 C -0.29  0.30  1.53
 O  0.71  0.58  2.35
 H  0.59  1.04 -0.26
 H -0.86  0.05 -0.54
 H  0.68 -0.72 -0.07
 N -1.47  0.16  2.04
 C -2.78 -0.11  1.43
 C -3.71  0.38  2.59
 O -3.15  0.55  3.71
 H -1.74  0.35  3.08
 H -2.93  0.52  0.54
 C -2.93 -1.61  1.06
 C -4.05 -1.91  0.05
 C -5.41 -2.28  0.68
 N -6.53 -2.07 -0.21
 C -6.97 -0.82 -0.55
 N -7.94 -0.77 -1.51
 N -6.43  0.23  0.02
 H -3.04 -2.19  1.98
 H -1.97 -1.92  0.62
 H -3.73 -2.74 -0.59
 H -4.20 -1.04 -0.60
 H -5.59 -1.71  1.60
 H -5.42 -3.34  0.98
 H -6.82 -2.85 -0.80
 H -8.41  0.11 -1.67
 H -8.52 -1.59 -1.68
 H -6.88  1.09 -0.28
 N -4.99  0.58  2.35
 C -5.90  1.00  3.40
 H -5.42  0.42  1.38
 H -6.91  1.01  2.98
 H -5.65  2.00  3.77
 H -5.87  0.31  4.25
Ca  2.08  1.05  3.69
