36
#
 C -0.00  0.71  0.24
 C  0.00  0.30  1.68
 O  1.06 -0.12  2.22
 H  0.28 -0.16 -0.38
 H  0.77  1.48  0.08
 H -0.97  1.09 -0.11
 N -1.16  0.39  2.35
 C -1.47 -0.06  3.73
 C -0.69  0.77  4.77
 O  0.53  0.54  5.03
 H -1.95  0.74  1.82
 H -2.53  0.17  3.86
 C -1.27 -1.57  3.91
 C -1.62 -2.09  5.32
 C -0.73 -3.27  5.75
 N  0.66 -2.83  5.83
 C  1.73 -3.33  5.15
 N  1.73 -4.65  4.85
 N  2.69 -2.48  4.78
 H -0.23 -1.83  3.67
 H -1.88 -2.08  3.15
 H -2.67 -2.40  5.37
 H -1.52 -1.29  6.07
 H -0.80 -4.08  5.02
 H -1.07 -3.66  6.72
 H  0.84 -1.97  6.33
 H  1.19 -5.31  5.41
 H  2.44 -5.04  4.25
 H  3.56 -2.98  4.58
 N -1.37  1.72  5.41
 C -0.82  2.61  6.43
 H -2.34  1.85  5.16
 H -1.54  2.71  7.25
 H -0.62  3.60  6.00
 H  0.12  2.19  6.81
Ca  2.28 -0.35  4.02
