36
#
 C  0.61 -1.40  0.96
 C  0.07 -0.55  2.06
 O  0.86  0.11  2.80
 H  1.16 -0.75  0.26
 H -0.16 -1.95  0.41
 H  1.34 -2.11  1.37
 N -1.26 -0.50  2.24
 C -1.99  0.37  3.17
 C -1.94 -0.17  4.62
 O -0.82  0.14  5.25
 H -1.82 -1.08  1.61
 H -1.43  1.32  3.20
 C -3.37  0.71  2.60
 C -4.34 -0.46  2.34
 C -5.62 -0.31  3.18
 N -6.47 -1.50  3.19
 C -6.26 -2.56  3.97
 N -7.14 -3.57  3.97
 N -5.17 -2.61  4.75
 H -3.21  1.27  1.67
 H -3.83  1.43  3.29
 H -3.87 -1.42  2.59
 H -4.62 -0.51  1.28
 H -6.23  0.52  2.81
 H -5.36 -0.07  4.22
 H -7.23 -1.55  2.51
 H -6.97 -4.42  4.50
 H -8.06 -3.47  3.55
 H -5.09 -3.35  5.44
 N -2.91 -0.84  5.13
 C -2.77 -1.25  6.53
 H -4.41 -1.90  4.71
 H -3.76 -1.44  6.96
 H -2.26 -0.49  7.14
 H -2.18 -2.18  6.60
Ca  1.13  0.62  4.86
