36
#
 C -1.28 -0.38 -0.75
 C -0.87  0.09  0.59
 O  0.26  0.68  0.76
 H -1.55 -1.44 -0.75
 H -0.47 -0.20 -1.47
 H -2.20  0.16 -1.10
 N -1.66 -0.04  1.69
 C -2.36 -1.26  2.11
 C -1.28 -2.35  2.37
 O -0.03 -2.06  2.30
 H -1.36  0.55  2.46
 H -2.79 -1.01  3.09
 C -3.53 -1.71  1.20
 C -4.47 -0.55  0.85
 C -5.31 -0.81 -0.41
 N -5.86  0.42 -0.97
 C -5.02  1.44 -1.41
 N -3.95  0.98 -2.23
 N -5.25  2.64 -1.04
 H -4.09 -2.50  1.73
 H -3.14 -2.18  0.29
 H -3.88  0.36  0.67
 H -5.12 -0.32  1.70
 H -6.15 -1.49 -0.21
 H -4.69 -1.31 -1.17
 H -6.63  0.82 -0.44
 H -3.51  1.76 -2.72
 H -4.25  0.28 -2.91
 H -4.69  3.34 -1.55
 N -1.69 -3.57  2.69
 C -0.84 -4.71  3.03
 H -2.69 -3.72  2.71
 H -1.04 -5.53  2.33
 H -1.08 -5.05  4.05
 H  0.21 -4.42  2.97
Ca  1.52 -0.63  1.88
