36
#
 C -0.81  0.48 -0.22
 C -0.49  0.36  1.24
 O  0.69  0.15  1.62
 H -1.87  0.65 -0.43
 H -0.48 -0.43 -0.74
 H -0.23  1.32 -0.64
 N -1.52  0.48  2.11
 C -1.52  0.43  3.58
 C -0.48  1.39  4.20
 O  0.72  1.04  4.39
 H -2.43  0.63  1.68
 H -2.50  0.85  3.85
 C -1.48 -1.00  4.22
 C -0.88 -2.17  3.41
 C  0.19 -2.99  4.13
 N  1.39 -2.17  4.43
 C  2.72 -2.69  4.31
 N  2.91 -4.02  4.43
 N  3.61 -1.78  4.03
 H -2.52 -1.25  4.47
 H -0.98 -0.89  5.19
 H -0.46 -1.83  2.46
 H -1.69 -2.86  3.14
 H  0.50 -3.81  3.47
 H -0.21 -3.44  5.05
 H  1.31 -1.69  5.34
 H  3.82 -4.43  4.25
 H  2.20 -4.62  4.83
 H  4.57 -2.10  4.06
 N -0.92  2.58  4.57
 C -0.11  3.62  5.20
 H -1.90  2.80  4.40
 H -0.73  4.17  5.92
 H  0.28  4.32  4.45
 H  0.73  3.15  5.73
Ca  2.22 -0.07  3.20
