36
#
 C  1.42  1.90  1.05
 C  0.70  0.59  1.04
 O  1.06 -0.31  0.20
 H  1.03  2.56  0.26
 H  2.47  1.70  0.79
 H  1.37  2.41  2.01
 N -0.27  0.28  1.94
 C -1.53  1.02  2.16
 C -2.51  0.70  0.99
 O -1.96  0.27 -0.14
 H -0.45 -0.73  1.92
 H -1.98  0.53  3.04
 C -1.41  2.52  2.46
 C -0.98  2.84  3.91
 C -2.14  3.32  4.80
 N -3.31  2.45  4.67
 C -4.54  2.83  4.25
 N -5.04  4.01  4.64
 N -5.22  1.99  3.46
 H -2.40  2.95  2.25
 H -0.75  3.01  1.73
 H -0.21  3.62  3.92
 H -0.51  1.95  4.36
 H -2.44  4.33  4.50
 H -1.81  3.37  5.85
 H -3.15  1.45  4.64
 H -4.70  4.46  5.48
 H -5.87  4.40  4.20
 H -6.22  2.11  3.34
 N -3.76  0.86  1.24
 C -4.75  0.60  0.19
 H -4.69  1.45  2.74
 H -5.37 -0.25  0.49
 H -4.31  0.40 -0.79
 H -5.41  1.47  0.11
Ca -0.54 -0.70 -1.25
