36
#
 C -2.22  0.23 -0.63
 C -0.98  0.11  0.19
 O  0.16  0.09 -0.38
 H -1.98  0.20 -1.69
 H -2.72  1.19 -0.40
 H -2.95 -0.56 -0.39
 N -1.03  0.03  1.54
 C -1.94 -0.87  2.27
 C -1.73 -2.31  1.70
 O -0.70 -2.54  0.95
 H -0.11  0.14  1.97
 H -1.52 -0.90  3.29
 C -3.41 -0.39  2.38
 C -3.97 -0.31  3.81
 C -3.95 -1.60  4.64
 N -4.58 -2.71  3.90
 C -4.58 -4.06  4.40
 N -3.57 -4.33  5.30
 N -5.31 -5.00  3.93
 H -4.06 -1.01  1.75
 H -3.46  0.63  1.96
 H -5.00  0.06  3.74
 H -3.42  0.46  4.38
 H -4.44 -1.41  5.60
 H -2.91 -1.90  4.86
 H -5.52 -2.47  3.58
 H -3.63 -5.29  5.64
 H -3.43 -3.67  6.06
 H -5.95 -4.69  3.19
 N -2.57 -3.24  2.03
 C -2.43 -4.65  1.65
 H -3.40 -2.99  2.65
 H -3.19 -5.22  2.18
 H -1.44 -5.02  1.93
 H -2.57 -4.77  0.57
Ca  0.91 -1.94 -0.28
