36
#
 C -0.95 -0.95 -0.05
 C -0.89 -0.10  1.18
 O -0.11 -0.45  2.14
 H -1.66 -0.57 -0.79
 H -1.22 -1.97  0.23
 H  0.05 -1.00 -0.51
 N -1.64  0.99  1.23
 C -1.82  1.89  2.39
 C -0.51  2.57  2.79
 O  0.28  2.01  3.63
 H -2.36  1.14  0.47
 H -2.47  2.69  2.00
 C -2.55  1.20  3.57
 C -4.08  1.38  3.61
 C -4.92  1.10  2.34
 N -5.12  2.28  1.49
 C -4.36  2.67  0.41
 N -3.82  1.60 -0.37
 N -4.06  3.86  0.04
 H -2.15  1.60  4.52
 H -2.31  0.13  3.55
 H -4.32  2.40  3.96
 H -4.45  0.72  4.41
 H -5.91  0.75  2.65
 H -4.49  0.29  1.74
 H -5.60  3.05  1.95
 H -3.55  2.00 -1.27
 H -4.51  0.86 -0.54
 H -4.43  4.58  0.67
 N -0.18  3.75  2.29
 C -0.86  4.60  1.31
 H  0.70  4.12  2.65
 H -1.74  4.11  0.86
 H -0.16  4.85  0.51
 H -1.18  5.53  1.80
Ca  0.92  0.01  3.90
