36
#
 C -1.28  1.18  0.35
 C -0.97  0.38  1.58
 O  0.04 -0.39  1.58
 H -2.15  1.84  0.47
 H -1.47  0.48 -0.48
 H -0.41  1.78  0.07
 N -1.77  0.51  2.64
 C -1.79 -0.24  3.92
 C -0.58  0.03  4.81
 O  0.60 -0.34  4.45
 H -2.53  1.18  2.53
 H -2.67  0.15  4.44
 C -2.02 -1.77  3.71
 C -3.49 -2.13  3.44
 C -4.40 -2.25  4.67
 N -4.47 -1.03  5.48
 C -3.63 -0.82  6.57
 N -3.62  0.53  7.01
 N -2.76 -1.60  7.08
 H -1.66 -2.29  4.61
 H -1.40 -2.12  2.87
 H -3.51 -3.11  2.93
 H -3.92 -1.42  2.72
 H -4.09 -3.10  5.29
 H -5.42 -2.49  4.33
 H -5.37 -0.55  5.49
 H -3.45  0.58  8.01
 H -4.43  1.09  6.74
 H -2.86 -2.57  6.76
 N -0.81  0.57  5.98
 C  0.17  0.74  7.05
 H -1.80  0.76  6.24
 H  0.10  1.77  7.43
 H  1.17  0.55  6.67
 H -0.08  0.04  7.86
Ca  1.62 -1.09  2.79
