36
#
 C  0.00  1.58  0.23
 C  0.22  0.98  1.57
 O  1.39  0.93  2.09
 H  0.44  0.86 -0.50
 H  0.57  2.51  0.12
 H -1.05  1.72 -0.04
 N -0.80  0.44  2.27
 C -2.07  1.15  2.47
 C -1.78  2.38  3.36
 O -0.64  2.52  3.93
 H -0.52 -0.15  3.05
 H -2.40  1.53  1.48
 C -3.13  0.15  3.00
 C -4.57  0.64  3.24
 C -5.36  1.18  2.05
 N -4.99  2.54  1.62
 C -4.20  2.77  0.47
 N -4.02  4.10  0.18
 N -3.53  1.88 -0.19
 H -2.76 -0.28  3.94
 H -3.15 -0.67  2.27
 H -4.60  1.38  4.06
 H -5.11 -0.23  3.63
 H -6.42  1.22  2.33
 H -5.31  0.48  1.19
 H -5.76  3.20  1.72
 H -3.68  4.28 -0.76
 H -4.71  4.77  0.49
 H -3.83  0.93  0.03
 N -2.73  3.28  3.47
 C -2.66  4.51  4.25
 H -3.59  3.11  2.90
 H -3.63  4.69  4.73
 H -2.43  5.36  3.59
 H -1.88  4.42  5.01
Ca  1.45  2.08  3.91
