36
#
 C  0.41 -0.21  0.21
 C  0.26 -0.17  1.70
 O  1.30 -0.23  2.45
 H  1.13  0.55 -0.12
 H  0.83 -1.19 -0.07
 H -0.54 -0.08 -0.32
 N -0.96 -0.07  2.20
 C -1.43 -0.16  3.59
 C -2.98 -0.17  3.39
 O -3.42  0.20  2.30
 H -1.79  0.04  1.59
 H -1.08 -1.11  4.01
 C -0.98  0.99  4.53
 C -1.50  2.41  4.26
 C -0.96  3.12  3.01
 N  0.49  2.97  2.82
 C  1.48  3.39  3.65
 N  1.23  4.40  4.49
 N  2.66  2.74  3.61
 H  0.12  0.99  4.57
 H -1.31  0.70  5.54
 H -1.27  3.01  5.15
 H -2.60  2.41  4.18
 H -1.24  4.18  3.04
 H -1.41  2.72  2.10
 H  0.80  2.43  2.03
 H  0.45  5.03  4.34
 H  1.91  4.69  5.18
 H  3.40  3.33  4.01
 N -3.77 -0.56  4.41
 C -3.40 -1.10  5.71
 H -4.76 -0.49  4.19
 H -3.37 -0.32  6.48
 H -2.43 -1.61  5.67
 H -4.15 -1.84  6.00
Ca  3.06  0.56  3.27
