36
#
 C -1.91  0.18  0.64
 C -1.31  0.16  2.00
 O -0.05 -0.02  2.15
 H -2.64  0.99  0.54
 H -2.46 -0.77  0.49
 H -1.13  0.28 -0.12
 N -2.12  0.30  3.06
 C -1.79  0.08  4.48
 C -0.76  1.10  4.98
 O  0.50  0.91  4.84
 H -3.15  0.19  2.87
 H -2.73  0.31  4.99
 C -1.41 -1.39  4.81
 C -2.45 -2.12  5.67
 C -3.88 -2.22  5.10
 N -3.94 -2.79  3.76
 C -4.09 -2.11  2.57
 N -4.68 -0.82  2.67
 N -3.74 -2.49  1.39
 H -0.45 -1.42  5.34
 H -1.27 -1.93  3.86
 H -2.52 -1.65  6.67
 H -2.07 -3.14  5.86
 H -4.36 -1.24  5.08
 H -4.48 -2.83  5.78
 H -3.61 -3.75  3.66
 H -5.02 -0.57  1.74
 H -5.46 -0.78  3.33
 H -3.27 -3.40  1.38
 N -1.17  2.20  5.60
 C -2.55  2.63  5.87
 H -0.42  2.80  5.94
 H -2.51  3.66  6.23
 H -3.02  2.01  6.64
 H -3.15  2.62  4.95
Ca  1.69  0.07  3.29
