36
#
 C  1.26 -0.02  0.82
 C -0.06 -0.32  1.46
 O -0.13 -0.63  2.68
 H  1.19  0.25 -0.24
 H  1.91 -0.90  0.93
 H  1.74  0.80  1.37
 N -1.16 -0.25  0.67
 C -2.56 -0.58  1.04
 C -3.09  0.52  1.98
 O -2.77  0.54  3.20
 H -1.00 -0.00 -0.30
 H -3.12 -0.52  0.10
 C -2.67 -2.03  1.55
 C -4.05 -2.56  1.97
 C -4.64 -2.12  3.32
 N -3.67 -2.07  4.44
 C -2.91 -3.22  4.85
 N -3.42 -4.44  4.66
 N -1.74 -2.90  5.33
 H -1.93 -2.22  2.34
 H -2.32 -2.65  0.71
 H -3.96 -3.66  1.97
 H -4.80 -2.34  1.20
 H -5.51 -2.75  3.55
 H -5.03 -1.09  3.25
 H -4.12 -1.67  5.27
 H -4.41 -4.58  4.48
 H -2.89 -5.27  4.90
 H -1.21 -3.68  5.73
 N -3.89  1.46  1.48
 C -4.35  1.65  0.10
 H -4.17  2.17  2.15
 H -3.52  1.86 -0.58
 H -5.03  2.51  0.08
 H -4.92  0.78 -0.26
Ca -1.43 -0.73  4.46
