36
#
 C -0.83  1.55  0.19
 C -1.02  0.13  0.60
 O -0.08 -0.54  1.11
 H -1.45  1.83 -0.67
 H  0.23  1.71 -0.05
 H -1.07  2.22  1.03
 N -2.23 -0.47  0.47
 C -3.51  0.18  0.68
 C -3.52  0.77  2.12
 O -2.72  0.30  2.99
 H -2.24 -1.51  0.51
 H -3.65  1.00 -0.04
 C -4.67 -0.83  0.51
 C -4.68 -2.02  1.50
 C -4.15 -3.36  1.00
 N -2.70 -3.40  0.59
 C -1.79 -4.02  1.45
 N -1.18 -5.13  1.00
 N -1.55 -3.46  2.63
 H -4.64 -1.19 -0.53
 H -5.61 -0.27  0.60
 H -5.73 -2.22  1.77
 H -4.20 -1.75  2.45
 H -4.72 -3.67  0.11
 H -4.32 -4.12  1.77
 H -2.60 -3.75 -0.37
 H -1.55 -5.66  0.21
 H -0.40 -5.54  1.49
 H -1.08 -4.13  3.24
 N -4.39  1.73  2.39
 C -4.59  2.35  3.70
 H -4.97  2.06  1.63
 H -5.62  2.17  4.04
 H -4.43  3.43  3.62
 H -3.88  1.92  4.41
Ca -1.08 -1.22  3.01
