36
#
 C -0.70  0.88 -1.02
 C -0.12  0.57  0.32
 O  1.15  0.74  0.48
 H -1.57  1.55 -0.96
 H -1.03 -0.04 -1.52
 H  0.07  1.35 -1.65
 N -0.76  0.04  1.39
 C -1.98 -0.77  1.27
 C -1.54 -2.14  0.69
 O -0.33 -2.51  0.85
 H -0.13  3.12  3.59
 H -2.23 -1.02  2.32
 C -3.26 -0.16  0.66
 C -3.61  1.27  1.10
 C -3.65  1.56  2.61
 N -2.31  1.84  3.14
 C -2.05  2.65  4.16
 N -3.01  3.04  5.00
 N -0.78  3.07  4.36
 H -4.10 -0.81  0.94
 H -3.21 -0.17 -0.44
 H -4.61  1.49  0.70
 H -2.94  2.00  0.63
 H -4.12  0.72  3.16
 H -4.28  2.45  2.78
 H -1.52  1.39  2.65
 H -3.91  2.58  5.04
 H -2.86  3.81  5.66
 H -0.53  3.58  5.20
 N -2.43 -2.92  0.10
 C -2.17 -4.27 -0.41
 H -3.38 -2.56 -0.01
 H -2.79 -5.00  0.12
 H -1.11 -4.51 -0.26
 H -2.41 -4.31 -1.48
Ca  1.25 -1.14  1.61
