36
#
 C -1.06  1.71  2.65
 C -1.99  0.68  3.21
 O -1.94  0.44  4.47
 H -0.05  1.30  2.52
 H -0.98  2.52  3.39
 H -1.41  2.13  1.70
 N -2.93  0.05  2.47
 C -2.70 -0.79  1.27
 C -2.17 -2.18  1.75
 O -1.56 -2.21  2.93
 H -3.60 -0.41  3.08
 H -3.71 -0.97  0.86
 C -1.82 -0.17  0.16
 C -2.51  0.89 -0.73
 C -3.13  0.38 -2.05
 N -4.37 -0.40 -1.93
 C -4.45 -1.68 -1.53
 N -5.61 -2.15 -1.04
 N -3.40 -2.51 -1.55
 H -1.46 -1.00 -0.45
 H -0.91  0.25  0.61
 H -1.77  1.64 -1.02
 H -3.28  1.44 -0.16
 H -2.38 -0.18 -2.63
 H -3.39  1.25 -2.67
 H -5.24  0.08 -2.13
 H -5.78 -3.15 -1.06
 H -6.42 -1.55 -0.91
 H -2.60 -2.21 -2.10
 N -2.38 -3.18  0.96
 C -1.89 -4.50  1.32
 H -3.12 -2.98 -0.63
 H -1.57 -5.03  0.42
 H -2.71 -5.09  1.76
 H -1.05 -4.48  2.04
Ca -1.25 -1.60  4.85
