36
#
 C -0.83 -0.32  0.05
 C -0.76 -0.03  1.52
 O  0.37  0.52  1.94
 H -0.76  0.61 -0.52
 H -1.75 -0.84 -0.22
 H  0.03 -0.94 -0.25
 N -1.77 -0.30  2.29
 C -1.63  0.08  3.70
 C -0.50 -0.70  4.41
 O  0.50 -0.03  4.85
 H -3.52 -0.37  1.61
 H -1.25  1.11  3.77
 C -3.00  0.11  4.42
 C -3.97 -1.05  4.15
 C -5.43 -0.61  3.98
 N -5.69  0.44  2.97
 C -5.49  0.37  1.64
 N -6.37  0.99  0.83
 N -4.45 -0.29  1.12
 H -3.46  1.05  4.07
 H -2.84  0.25  5.50
 H -3.96 -1.77  4.97
 H -3.67 -1.60  3.26
 H -5.80 -0.19  4.92
 H -6.04 -1.49  3.75
 H -6.37  1.14  3.26
 H -6.14  1.19 -0.13
 H -7.31  1.21  1.14
 H -4.44 -0.46  0.12
 N -0.48 -2.02  4.58
 C -1.39 -3.05  4.08
 H  0.33 -2.35  5.11
 H -0.79 -3.93  3.82
 H -1.90 -2.70  3.19
 H -2.11 -3.35  4.85
Ca  1.68  1.07  3.42
