36
#
 C  0.21  0.17  0.23
 C -0.02  0.12  1.71
 O  0.85  0.61  2.51
 H -0.75  0.16 -0.31
 H  0.81 -0.70 -0.08
 H  0.77  1.07 -0.01
 N -1.13 -0.45  2.15
 C -1.64 -0.38  3.53
 C -0.93 -1.40  4.44
 O  0.28 -1.20  4.79
 H -1.85 -0.82  1.45
 H -1.32  0.59  3.95
 C -3.18 -0.34  3.52
 C -4.08 -1.53  3.11
 C -3.76 -2.34  1.84
 N -3.21 -1.55  0.74
 C -3.88 -0.44  0.12
 N -5.23 -0.36  0.36
 N -3.11  0.38 -0.50
 H -3.43  0.51  2.87
 H -3.50 -0.02  4.53
 H -5.08 -1.09  3.02
 H -4.21 -2.26  3.93
 H -4.67 -2.91  1.56
 H -3.00 -3.10  2.06
 H -2.78 -2.13  0.02
 H -5.77 -1.22  0.41
 H -5.73  0.40 -0.10
 H -3.62  1.10 -1.02
 N -1.58 -2.47  4.88
 C -1.01 -3.48  5.77
 H -2.55 -2.57  4.59
 H -1.80 -4.17  6.07
 H -0.58 -3.01  6.66
 H -0.22 -4.04  5.25
Ca  1.86  0.16  4.27
