36
#
 C -0.06  0.86 -0.53
 C -0.04  0.56  0.94
 O  1.08  0.32  1.52
 H  0.56  1.74 -0.73
 H -1.07  1.05 -0.90
 H  0.37  0.01 -1.08
 N -1.18  0.56  1.60
 C -1.47  0.26  3.00
 C -3.01 -0.04  2.93
 O -3.61  0.30  1.91
 H -2.09  0.69  1.10
 H -0.92 -0.64  3.31
 C -1.17  1.47  3.94
 C -0.20  1.22  5.11
 C  1.23  0.92  4.67
 N  2.15  0.85  5.78
 C  3.46  0.51  5.63
 N  4.23  0.51  6.73
 N  3.91  0.19  4.41
 H -2.12  1.82  4.37
 H -0.81  2.30  3.33
 H -0.55  0.41  5.75
 H -0.19  2.13  5.73
 H  1.56  1.71  3.96
 H  1.23 -0.05  4.14
 H  1.83  1.18  6.68
 H  5.22  0.27  6.68
 H  3.87  0.72  7.65
 H  4.89 -0.08  4.48
 N -3.61 -0.61  3.99
 C -3.03 -1.06  5.25
 H -4.61 -0.72  3.87
 H -2.03 -1.49  5.09
 H -3.66 -1.86  5.65
 H -2.98 -0.26  5.99
Ca  3.01  0.10  2.32
