36
#
 C -0.34 -0.80 -1.18
 C -0.45  0.40 -0.23
 O  0.74  0.95  0.05
 H -1.28 -1.24 -1.51
 H  0.25 -1.59 -0.71
 H  0.23 -0.47 -2.06
 N -1.04  0.04  1.17
 C -1.90 -1.12  1.47
 C -0.95 -2.34  1.57
 O  0.27 -2.13  1.84
 H -1.47  0.89  1.54
 H -2.22 -0.97  2.52
 C -3.20 -1.28  0.64
 C -4.29 -0.21  0.86
 C -4.05  1.23  0.37
 N -3.72  1.35 -1.05
 C -2.50  1.21 -1.57
 N -2.34  0.85 -2.85
 N -1.38  1.46 -0.83
 H -3.68 -2.23  0.93
 H -2.97 -1.39 -0.43
 H -4.54 -0.15  1.93
 H -5.20 -0.59  0.37
 H -3.28  1.74  0.96
 H -4.97  1.81  0.53
 H -4.51  1.42 -1.70
 H -1.46  1.05 -3.31
 H -3.11  0.50 -3.42
 H -1.49  2.24 -0.18
 N -1.41 -3.57  1.43
 C -0.59 -4.77  1.61
 H -2.40 -3.69  1.21
 H  0.24 -4.78  0.89
 H -1.22 -5.65  1.44
 H -0.18 -4.80  2.62
Ca  1.31 -0.13  1.77
