36
#
 C  1.89  0.83  2.68
 C  0.92  1.43  1.72
 O  1.22  2.48  1.06
 H  2.48  1.64  3.13
 H  2.58  0.18  2.12
 H  1.41  0.24  3.46
 N -0.29  0.89  1.52
 C -0.77 -0.44  1.88
 C  0.16 -1.51  1.26
 O  0.87 -1.22  0.27
 H -0.90  1.42  0.90
 H -0.75 -0.53  2.98
 C -2.24 -0.59  1.42
 C -2.57 -1.22  0.05
 C -1.89 -0.73 -1.24
 N -1.81  0.73 -1.37
 C -0.72  1.47 -1.65
 N  0.58  0.88 -1.59
 N -0.68  2.77 -1.87
 H -2.71  0.40  1.50
 H -2.77 -1.20  2.17
 H -3.66 -1.14 -0.07
 H -2.38 -2.31  0.08
 H -2.46 -1.12 -2.10
 H -0.88 -1.13 -1.32
 H -2.70  1.23 -1.40
 H  0.88  0.56 -2.52
 H  0.66  0.08 -0.92
 H -1.59  3.22 -2.00
 N  0.16 -2.73  1.80
 C -0.62 -3.24  2.93
 H  0.76 -3.40  1.31
 H -1.64 -3.52  2.62
 H -0.12 -4.14  3.31
 H -0.67 -2.51  3.74
Ca  1.39  3.14 -0.98
