36
#
 C  1.07  0.61  1.12
 C  0.23 -0.38  1.85
 O  0.63 -1.56  2.05
 H  0.61  1.60  1.03
 H  1.29  0.23  0.12
 H  2.04  0.71  1.64
 N -0.97  0.02  2.32
 C -1.82 -0.87  3.12
 C -2.62 -1.80  2.18
 O -2.08 -2.88  1.80
 H -1.27  0.97  2.13
 H -1.10 -1.54  3.60
 C -2.59 -0.20  4.26
 C -2.84 -1.22  5.39
 C -1.53 -1.54  6.17
 N -1.32 -2.93  6.60
 C -0.71 -3.86  5.82
 N  0.08 -4.78  6.41
 N -0.87 -3.88  4.49
 H -3.53  0.25  3.93
 H -1.98  0.64  4.65
 H -3.28 -2.14  4.98
 H -3.59 -0.83  6.08
 H -1.49 -0.92  7.07
 H -0.65 -1.25  5.57
 H -1.34 -3.10  7.60
 H  0.38 -4.69  7.38
 H  0.27 -5.65  5.94
 H -1.79 -3.46  4.30
 N -3.83 -1.43  1.77
 C -4.67 -2.18  0.84
 H -4.20 -0.56  2.14
 H -5.64 -2.39  1.31
 H -4.18 -3.12  0.59
 H -4.83 -1.60 -0.07
Ca -0.06 -3.64  2.37
