36
#
 C -1.13 -1.56  2.16
 C -0.82 -0.14  2.50
 O -0.34  0.63  1.60
 H -2.08 -1.57  1.61
 H -1.25 -2.20  3.04
 H -0.36 -1.96  1.50
 N -1.08  0.31  3.73
 C -1.08  1.72  4.14
 C  0.37  2.21  4.44
 O  1.15  2.31  3.43
 H -1.59 -0.36  4.38
 H -1.31  2.31  3.23
 C -2.22  2.00  5.13
 C -2.42  1.08  6.36
 C -3.40 -0.08  6.17
 N -2.85 -1.20  5.37
 C -3.63 -1.76  4.32
 N -3.44 -3.12  4.18
 N -4.32 -1.11  3.46
 H -3.14  1.99  4.53
 H -2.12  3.05  5.45
 H -2.81  1.70  7.18
 H -1.46  0.67  6.72
 H -4.32  0.27  5.68
 H -3.70 -0.46  7.16
 H -2.44 -1.91  5.97
 H -4.02 -3.53  3.45
 H -3.40 -3.69  5.02
 H -4.31 -0.10  3.62
 N  0.87  2.58  5.61
 C  0.34  2.66  6.98
 H  1.84  2.87  5.52
 H -0.65  3.13  7.00
 H  1.03  3.29  7.55
 H  0.30  1.67  7.45
Ca  1.23  1.98  1.33
