36
#
 C  0.33 -0.92  1.04
 C -0.45 -1.03  2.32
 O -0.14 -1.88  3.19
 H -0.03 -0.14  0.37
 H  0.28 -1.89  0.52
 H  1.38 -0.75  1.28
 N -1.49 -0.18  2.48
 C -2.47 -0.13  3.59
 C -1.76  0.25  4.90
 O -1.15 -0.62  5.59
 H -1.66  0.46  1.71
 H -3.16  0.68  3.32
 C -3.27 -1.44  3.71
 C -4.39 -1.43  4.77
 C -4.63 -2.79  5.45
 N -3.61 -3.11  6.46
 C -2.38 -3.62  6.27
 N -2.06 -4.25  5.04
 N -1.33 -3.53  7.06
 H -2.56 -2.25  3.89
 H -3.70 -1.65  2.72
 H -5.33 -1.11  4.31
 H -4.17 -0.70  5.56
 H -4.69 -3.61  4.72
 H -5.59 -2.79  5.97
 H -3.71 -2.60  7.34
 H -1.64 -5.17  5.22
 H -2.82 -4.35  4.38
 H -1.54 -3.14  7.99
 N -1.79  1.52  5.30
 C -2.42  2.67  4.65
 H -1.29  1.70  6.17
 H -2.00  2.86  3.66
 H -2.23  3.55  5.27
 H -3.51  2.55  4.58
Ca -0.08 -2.55  5.30
