36
#
 C -0.42  1.01 -0.76
 C -0.07  0.51  0.56
 O  0.68 -0.54  0.69
 H  0.23  1.95 -0.96
 H -1.45  1.39 -0.85
 H -0.20  0.27 -1.54
 N -0.43  1.12  1.73
 C -1.79  1.58  2.05
 C -2.74  0.34  1.93
 O -2.28 -0.81  1.64
 H  0.07  0.73  2.53
 H -1.76  1.80  3.13
 C -2.28  2.86  1.33
 C -2.00  4.21  2.01
 C -0.53  4.67  2.22
 N  0.46  4.24  1.25
 C  0.39  4.21 -0.12
 N -0.66  4.90 -0.71
 N  1.17  3.50 -0.90
 H -3.37  2.79  1.20
 H -1.88  2.89  0.31
 H -2.49  4.25  3.00
 H -2.53  4.95  1.40
 H -0.17  4.30  3.19
 H -0.55  5.77  2.32
 H  1.28  3.79  1.63
 H -0.54  4.99 -1.71
 H -0.94  5.77 -0.27
 H  1.92  3.05 -0.36
 N -4.02  0.51  2.18
 C -5.02 -0.56  2.18
 H -4.34  1.45  2.42
 H -5.99 -0.13  2.42
 H -4.77 -1.32  2.93
 H -5.07 -1.03  1.19
Ca -0.65 -2.13  1.10
