36
#
 C  1.22 -0.14  1.66
 C  0.28  0.38  2.72
 O  0.83  0.58  3.90
 H  0.74 -0.22  0.68
 H  1.61 -1.12  1.96
 H  2.08  0.54  1.58
 N -0.97  0.58  2.42
 C -1.89  1.07  3.47
 C -1.44  2.45  4.00
 O -0.83  2.60  5.11
 H -1.59 -0.47  0.82
 H -2.84  1.27  2.96
 C -2.19  0.06  4.62
 C -3.56 -0.65  4.54
 C -3.68 -1.84  3.59
 N -3.41 -1.44  2.20
 C -2.68 -2.10  1.29
 N -2.66 -3.44  1.28
 N -1.96 -1.36  0.43
 H -2.18  0.61  5.58
 H -1.39 -0.68  4.67
 H -4.35  0.09  4.31
 H -3.82 -1.03  5.54
 H -4.69 -2.27  3.67
 H -2.96 -2.62  3.86
 H -3.61 -0.48  1.96
 H -1.98 -3.94  0.71
 H -3.42 -3.97  1.68
 H -1.58 -1.75 -0.42
 N -1.70  3.52  3.26
 C -2.37  3.58  1.96
 H -1.40  4.41  3.67
 H -2.06  2.74  1.33
 H -2.07  4.51  1.47
 H -3.47  3.59  2.08
Ca  0.92  1.52  5.70
