36
#
 C  0.30 -0.47  0.31
 C  0.09 -0.15  1.75
 O  1.06  0.18  2.49
 H -0.63 -0.72 -0.22
 H  1.00 -1.32  0.22
 H  0.78  0.38 -0.19
 N -1.16 -0.22  2.25
 C -1.48  0.14  3.64
 C -1.05 -0.99  4.60
 O  0.08 -0.88  5.15
 H -1.91 -0.50  1.63
 H -0.76  0.92  3.89
 C -2.88  0.76  3.78
 C -2.92  2.24  3.35
 C -2.55  3.28  4.43
 N -1.33  2.99  5.20
 C -0.06  2.94  4.72
 N  0.17  3.42  3.47
 N  0.95  2.36  5.37
 H -3.20  0.66  4.83
 H -3.61  0.19  3.20
 H -3.94  2.49  3.03
 H -2.29  2.37  2.45
 H -3.35  3.34  5.18
 H -2.49  4.28  3.99
 H -1.46  2.58  6.12
 H  1.13  3.69  3.27
 H -0.53  4.00  3.02
 H  0.72  2.25  6.37
 N -1.81 -2.06  4.85
 C -3.12 -2.42  4.31
 H -1.39 -2.71  5.51
 H -3.19 -2.17  3.24
 H -3.93 -1.94  4.86
 H -3.23 -3.51  4.40
Ca  1.82  0.39  4.55
