36
#
 C -2.12  1.13 -1.27
 C -1.99  0.46  0.06
 O -1.90 -0.81  0.12
 H -2.25  2.22 -1.20
 H -2.96  0.70 -1.83
 H -1.21  0.92 -1.85
 N -1.96  1.21  1.16
 C -1.65  0.79  2.55
 C -2.90  0.14  3.16
 O -3.27 -1.00  2.69
 H -2.06  2.22  1.02
 H -0.89 -0.01  2.47
 C -1.03  2.02  3.25
 C -0.20  1.79  4.53
 C -0.95  1.36  5.80
 N -2.14  2.20  6.02
 C -3.09  1.92  7.06
 N -3.00  0.64  7.59
 N -4.05  2.69  7.39
 H -1.81  2.77  3.42
 H -0.34  2.46  2.52
 H  0.31  2.74  4.73
 H  0.60  1.06  4.34
 H -0.25  1.40  6.64
 H -1.30  0.32  5.71
 H -1.92  3.20  6.01
 H -3.67  0.52  8.35
 H -2.07  0.33  7.87
 H -4.08  3.57  6.85
 N -3.58  0.75  4.10
 C -4.80  0.21  4.69
 H -3.13  1.55  4.62
 H -5.30  1.01  5.25
 H -5.47 -0.18  3.91
 H -4.56 -0.60  5.40
Ca -2.83 -2.39  1.18
