36
#
 C -0.05 -0.14  0.05
 C -0.09 -0.27  1.54
 O  0.98 -0.47  2.20
 H  0.81 -0.71 -0.33
 H -0.96 -0.49 -0.43
 H  0.10  0.91 -0.21
 N -1.25 -0.18  2.21
 C -2.55  0.27  1.72
 C -2.46  1.73  1.21
 O -1.56  2.49  1.60
 H -1.17 -0.34  3.21
 H -2.85 -0.39  0.89
 C -3.62  0.09  2.83
 C -3.75  1.15  3.95
 C -2.62  1.30  4.98
 N -1.49  2.06  4.43
 C -0.20  1.78  4.52
 N  0.67  2.41  3.56
 N  0.42  0.91  5.28
 H -3.47 -0.91  3.27
 H -4.59  0.04  2.33
 H -4.65  0.87  4.52
 H -3.98  2.14  3.52
 H -2.25  0.32  5.32
 H -3.00  1.82  5.87
 H -1.74  2.73  3.69
 H  1.08  3.27  3.94
 H  0.14  2.64  2.70
 H -0.13  0.51  6.04
 N -3.41  2.15  0.35
 C -4.55  1.43 -0.21
 H -3.31  3.13  0.09
 H -5.43  1.50  0.43
 H -4.31  0.37 -0.38
 H -4.79  1.87 -1.19
Ca  2.10  0.39  3.81
