36
#
 C -1.13  0.83 -1.19
 C -0.31  0.77  0.06
 O  0.90  1.17  0.05
 H -1.40  1.87 -1.42
 H -2.04  0.22 -1.13
 H -0.50  0.48 -2.02
 N -0.83  0.31  1.21
 C -2.14  0.74  1.73
 C -2.04  2.26  2.03
 O -0.91  2.86  1.95
 H -0.14  0.14  1.94
 H -2.90  0.60  0.95
 C -2.54 -0.09  2.96
 C -1.53 -0.09  4.13
 C -2.21 -0.28  5.51
 N -3.22 -1.33  5.55
 C -4.53 -1.19  5.10
 N -5.04  0.13  5.20
 N -5.28 -2.10  4.60
 H -2.73 -1.11  2.62
 H -3.50  0.29  3.32
 H -0.97  0.87  4.18
 H -0.78 -0.88  3.98
 H -2.68  0.67  5.80
 H -1.44 -0.50  6.26
 H -2.88 -2.28  5.54
 H -6.05  0.07  5.02
 H -4.90  0.54  6.13
 H -4.80 -2.99  4.47
 N -3.12  2.94  2.37
 C -4.51  2.48  2.48
 H -2.95  3.92  2.59
 H -5.16  3.35  2.35
 H -4.70  2.02  3.46
 H -4.74  1.76  1.69
Ca  1.12  2.93  1.27
