36
#
 C  0.44 -0.78 -0.11
 C  0.04 -0.34  1.26
 O  0.91 -0.03  2.12
 H  1.03  0.01 -0.58
 H -0.41 -1.02 -0.75
 H  1.09 -1.66 -0.03
 N -1.27 -0.27  1.56
 C -1.75  0.26  2.84
 C -1.61 -0.84  3.92
 O -0.56 -0.87  4.63
 H -1.94 -0.52  0.84
 H -1.02  1.03  3.12
 C -3.13  0.95  2.74
 C -3.21  2.31  3.46
 C -2.95  2.33  4.98
 N -1.56  2.07  5.37
 C -0.48  2.85  5.12
 N -0.69  4.17  4.92
 N  0.72  2.28  5.04
 H -3.94  0.29  3.10
 H -3.35  1.13  1.68
 H -4.22  2.71  3.30
 H -2.53  3.02  2.97
 H -3.56  1.58  5.49
 H -3.29  3.30  5.39
 H -1.35  1.16  5.77
 H -1.53  4.62  5.28
 H  0.08  4.78  4.69
 H  1.45  2.99  5.13
 N -2.57 -1.74  4.06
 C -2.54 -2.88  4.97
 H -3.39 -1.65  3.46
 H -3.46 -2.90  5.57
 H -1.68 -2.78  5.64
 H -2.46 -3.82  4.40
Ca  1.36  0.20  4.27
