36
#
 C  0.73  1.78  1.12
 C  0.30  0.99  2.32
 O  1.12  0.73  3.25
 H  1.04  2.78  1.46
 H -0.05  1.88  0.36
 H  1.62  1.30  0.68
 N -0.98  0.59  2.37
 C -1.63 -0.08  3.52
 C -0.67 -1.10  4.15
 O -0.38 -0.87  5.42
 H -1.58  0.83  1.59
 H -1.75  0.69  4.30
 C -3.02 -0.65  3.17
 C -4.15 -0.04  4.01
 C -4.09 -0.31  5.52
 N -4.30 -1.73  5.85
 C -3.63 -2.44  6.77
 N -4.24 -3.50  7.34
 N -2.37 -2.14  7.11
 H -3.02 -1.74  3.28
 H -3.24 -0.47  2.11
 H -5.12 -0.39  3.62
 H -4.17  1.05  3.88
 H -4.86  0.29  6.03
 H -3.13  0.00  5.95
 H -5.19 -2.12  5.56
 H -3.71 -4.20  7.84
 H -5.25 -3.59  7.34
 H -1.74 -1.59  6.52
 N  0.04 -2.00  3.53
 C -0.14 -2.35  2.13
 H -1.97 -2.58  7.93
 H  0.65 -1.90  1.51
 H -1.11 -2.06  1.71
 H -0.04 -3.44  2.03
Ca  1.69 -0.83  4.70
