36
#
 C  1.16 -1.84  1.22
 C  0.59 -0.56  1.73
 O  1.35  0.43  2.00
 H  1.65 -1.64  0.26
 H  0.42 -2.63  1.08
 H  1.94 -2.19  1.91
 N -0.74 -0.46  1.88
 C -1.52  0.76  2.16
 C -1.47  1.12  3.67
 O -0.35  1.55  4.13
 H -1.28 -1.29  1.66
 H -0.99  1.59  1.67
 C -2.91  0.65  1.52
 C -3.73 -0.63  1.83
 C -5.18 -0.34  2.24
 N -5.24  0.38  3.53
 C -5.65  1.73  3.71
 N -5.56  2.53  2.57
 N -5.90  2.26  4.84
 H -2.77  0.74  0.44
 H -3.48  1.55  1.82
 H -3.28 -1.22  2.64
 H -3.75 -1.29  0.94
 H -5.73 -1.28  2.33
 H -5.70  0.23  1.45
 H -5.64 -0.20  4.27
 H -5.89  3.47  2.78
 H -6.01  2.17  1.73
 H -5.87  1.60  5.62
 N -2.54  1.06  4.41
 C -2.62  1.47  5.81
 H -3.46  0.74  4.00
 H -3.28  2.33  5.89
 H -1.62  1.72  6.19
 H -3.04  0.64  6.40
Ca  1.65  1.84  3.54
