36
#
 C -0.35  0.83  0.25
 C -0.20  0.29  1.64
 O  0.92 -0.09  2.06
 H -0.05  0.05 -0.46
 H  0.35  1.67  0.11
 H -1.37  1.16  0.01
 N -1.31  0.22  2.40
 C -1.47 -0.39  3.74
 C -0.76  0.48  4.78
 O  0.50  0.48  4.89
 H -2.17  0.54  1.96
 H -2.55 -0.34  3.93
 C -1.08 -1.89  3.74
 C -1.48 -2.74  4.95
 C -0.72 -2.52  6.27
 N  0.72 -2.27  6.13
 C  1.62 -3.00  5.42
 N  1.46 -4.34  5.39
 N  2.58 -2.35  4.76
 H -0.01 -2.00  3.54
 H -1.58 -2.31  2.86
 H -1.34 -3.79  4.63
 H -2.55 -2.64  5.16
 H -0.90 -3.38  6.94
 H -1.11 -1.65  6.82
 H  1.02 -1.32  6.32
 H  0.95 -4.81  6.13
 H  2.07 -4.92  4.83
 H  3.35 -2.97  4.52
 N -1.48  1.26  5.58
 C -2.94  1.44  5.63
 H -0.93  1.83  6.22
 H -3.32  1.85  4.69
 H -3.17  2.15  6.43
 H -3.45  0.50  5.86
Ca  2.27 -0.29  3.77
