36
#
 C  0.30  0.41  1.35
 C -0.69 -0.44  2.08
 O -0.32 -1.33  2.89
 H  0.64  1.23  2.01
 H -0.09  0.83  0.42
 H  1.19 -0.20  1.15
 N -2.03 -0.24  1.88
 C -2.63  1.09  1.86
 C -2.23  1.80  3.18
 O -1.90  1.11  4.19
 H -2.61 -0.95  2.33
 H -2.25  1.65  1.00
 C -4.19  1.03  1.80
 C -4.83 -0.09  0.95
 C -5.52 -1.22  1.75
 N -4.60 -2.00  2.58
 C -4.23 -1.77  3.87
 N -4.92 -0.87  4.61
 N -3.14 -2.32  4.42
 H -4.52  2.00  1.43
 H -4.56  0.97  2.84
 H -4.09 -0.54  0.26
 H -5.59  0.35  0.30
 H -6.01 -1.91  1.06
 H -6.33 -0.81  2.37
 H -4.08 -2.73  2.10
 H -4.85 -0.99  5.61
 H -5.84 -0.57  4.29
 H -2.82 -3.13  3.88
 N -2.28  3.13  3.20
 C -2.01  3.98  4.36
 H -2.52  3.60  2.33
 H -1.16  4.63  4.15
 H -1.79  3.35  5.22
 H -2.89  4.60  4.57
Ca -1.33 -0.95  4.86
