36
#
 C  0.90  1.20  0.22
 C  0.45  0.60  1.51
 O  1.29 -0.02  2.25
 H  1.77  1.84  0.39
 H  0.11  1.79 -0.28
 H  1.21  0.39 -0.46
 N -0.82  0.72  1.85
 C -1.53  0.15  3.00
 C -2.95  0.78  2.86
 O -3.08  1.75  2.10
 H -1.47  1.34  1.33
 H -1.58 -0.94  2.88
 C -0.89  0.46  4.38
 C -0.49  1.92  4.62
 C  0.41  2.08  5.85
 N  1.83  1.68  5.56
 C  2.69  2.61  4.86
 N  2.49  3.92  4.99
 N  3.60  2.01  4.14
 H -0.01 -0.21  4.50
 H -1.59  0.13  5.16
 H -1.40  2.52  4.78
 H  0.00  2.35  3.74
 H  0.08  1.43  6.67
 H  0.35  3.11  6.24
 H  2.29  1.44  6.44
 H  3.06  4.59  4.48
 H  1.86  4.30  5.68
 H  4.30  2.62  3.72
 N -3.97  0.26  3.57
 C -4.00 -0.94  4.41
 H -4.85  0.75  3.43
 H -4.97 -1.43  4.27
 H -3.88 -0.70  5.47
 H -3.23 -1.65  4.11
Ca  2.66 -0.06  3.84
