36
#
 C -0.70  1.90  0.96
 C -0.72  0.59  1.66
 O  0.15  0.29  2.53
 H -1.00  2.70  1.65
 H -1.34  1.93  0.07
 H  0.34  2.11  0.67
 N -1.69 -0.33  1.38
 C -3.10  0.02  1.23
 C -3.49  0.96  2.40
 O -2.82  0.92  3.47
 H -1.51 -1.26  1.74
 H -3.26  0.51  0.26
 C -4.01 -1.25  1.33
 C -3.45 -2.57  0.76
 C -2.99 -3.63  1.78
 N -1.66 -3.42  2.40
 C -1.42 -2.79  3.57
 N -0.07 -2.59  3.95
 N -2.27 -2.17  4.35
 H -4.94 -1.00  0.81
 H -4.29 -1.39  2.38
 H -2.65 -2.39  0.02
 H -4.26 -3.05  0.19
 H -2.94 -4.60  1.28
 H -3.74 -3.74  2.58
 H -0.92 -4.01  2.03
 H  0.14 -3.02  4.85
 H  0.63 -2.84  3.26
 H -3.25 -2.39  4.18
 N -4.54  1.77  2.29
 C -5.45  1.95  1.16
 H -4.75  2.30  3.13
 H -4.98  1.67  0.22
 H -5.73  3.01  1.10
 H -6.37  1.35  1.30
Ca -1.07 -0.15  4.41
