36
#
 C -0.69 -1.27  0.04
 C -0.76 -0.74  1.43
 O  0.27 -0.18  1.95
 H  0.19 -1.92 -0.06
 H -0.57 -0.42 -0.65
 H -1.59 -1.83 -0.24
 N -1.89 -0.85  2.12
 C -2.09 -0.21  3.43
 C -1.13 -0.81  4.48
 O -0.12 -0.11  4.84
 H -2.77 -1.04  1.58
 H -1.75  0.83  3.33
 C -3.58 -0.14  3.90
 C -4.67 -0.97  3.19
 C -5.27 -0.39  1.90
 N -4.34 -0.39  0.75
 C -3.70  0.77  0.24
 N -3.58  1.83  1.15
 N -3.11  0.84 -0.89
 H -3.86  0.92  3.86
 H -3.60 -0.39  4.97
 H -5.49 -1.08  3.91
 H -4.33 -2.00  2.99
 H -5.67  0.61  2.09
 H -6.13 -1.01  1.63
 H -4.67 -0.98 -0.01
 H -3.21  2.64  0.66
 H -4.43  2.07  1.65
 H -3.21 -0.00 -1.46
 N -1.31 -2.00  5.03
 C -2.34 -3.01  4.78
 H -0.61 -2.23  5.75
 H -1.94 -3.98  5.08
 H -2.59 -3.05  3.72
 H -3.24 -2.80  5.37
Ca  1.36  0.69  3.52
