36
#
 C  0.13  0.96 -0.24
 C  0.12  0.40  1.14
 O  1.21  0.17  1.75
 H -0.85  0.90 -0.74
 H  0.87  0.41 -0.82
 H  0.46  2.01 -0.23
 N -1.05  0.13  1.77
 C -2.16  1.09  1.83
 C -1.63  2.38  2.51
 O -0.51  2.35  3.13
 H -0.94 -0.41  2.63
 H -2.47  1.34  0.80
 C -3.33  0.47  2.61
 C -3.98 -0.74  1.94
 C -4.68 -0.43  0.59
 N -5.70 -1.37  0.21
 C -6.93 -1.40  0.87
 N -7.71 -2.49  0.53
 N -7.37 -0.56  1.75
 H -4.10  1.25  2.77
 H -2.97  0.21  3.62
 H -4.74 -1.13  2.64
 H -3.25 -1.56  1.80
 H -3.94 -0.39 -0.23
 H -5.14  0.57  0.64
 H -5.38 -2.25 -0.19
 H -8.65 -2.45  0.92
 H -7.67 -2.83 -0.43
 H -6.68  0.16  1.98
 N -2.33  3.49  2.48
 C -3.61  3.77  1.81
 H -1.92  4.27  3.00
 H -3.55  4.77  1.37
 H -4.43  3.75  2.54
 H -3.81  3.04  1.02
Ca  1.45  1.49  3.45
