36
#
 C -0.24 -1.68  1.17
 C  0.08 -0.49  2.00
 O  1.29 -0.14  2.19
 H -0.03 -1.49  0.11
 H -1.28 -2.03  1.28
 H  0.44 -2.49  1.48
 N -0.90  0.23  2.58
 C -2.08  0.69  1.83
 C -1.62  1.93  0.99
 O -0.35  2.08  0.79
 H -0.57  0.90  3.28
 H -2.30 -0.09  1.08
 C -3.32  0.84  2.72
 C -3.23  1.89  3.84
 C -4.61  2.36  4.35
 N -5.53  2.78  3.27
 C -5.03  3.54  2.22
 N -4.29  4.63  2.59
 N -5.12  3.25  0.95
 H -3.54 -0.15  3.14
 H -4.16  1.08  2.05
 H -2.68  2.78  3.48
 H -2.67  1.50  4.70
 H -4.48  3.17  5.07
 H -5.12  1.55  4.89
 H -6.15  2.04  2.95
 H -4.16  5.31  1.85
 H -4.50  5.05  3.49
 H -5.71  2.43  0.78
 N -2.48  2.74  0.44
 C -2.08  3.84 -0.44
 H -3.54  2.75  0.65
 H -1.51  3.47 -1.29
 H -3.00  4.32 -0.79
 H -1.47  4.57  0.11
Ca  1.70  1.70  1.15
