36
#
 C -0.65  1.00 -0.59
 C -0.81  0.69  0.74
 O  0.22  0.37  1.49
 H -1.47  1.23 -1.26
 H  0.34  1.33 -0.91
 H -2.39  3.95  2.78
 N -2.08  0.57  1.40
 C -3.10 -0.40  0.95
 C -2.54 -1.85  0.87
 O -1.37 -2.10  0.47
 H -1.85  0.38  2.38
 H -3.85 -0.40  1.75
 C -3.85 -0.05 -0.35
 C -4.78  1.17 -0.29
 C -4.19  2.57 -0.52
 N -3.38  3.04  0.61
 C -3.14  4.32  0.90
 N -3.54  5.31  0.08
 N -2.50  4.63  2.03
 H -4.47 -0.92 -0.59
 H -3.14  0.03 -1.19
 H -5.35  1.17  0.66
 H -5.54  1.04 -1.08
 H -5.03  3.27 -0.65
 H -3.60  2.58 -1.45
 H -2.85  2.30  1.11
 H -3.53  6.27  0.38
 H -3.85  5.12 -0.87
 H -2.16  5.57  2.21
 N -3.36 -2.83  1.24
 C -3.02 -4.25  1.17
 H -4.29 -2.58  1.58
 H -3.92 -4.83  1.39
 H -2.25 -4.49  1.91
 H -2.66 -4.51  0.17
Ca  0.60 -1.21  0.10
