36
#
 C  2.08  0.66  2.14
 C  1.26 -0.18  3.06
 O  1.85 -0.91  3.94
 H  2.65  1.39  2.74
 H  1.47  1.20  1.41
 H  2.81  0.03  1.63
 N -0.06 -0.13  2.93
 C -1.09 -0.98  3.57
 C -1.13 -0.82  5.10
 O -0.28 -1.37  5.87
 H -0.47  0.33  2.04
 H -2.02 -0.54  3.20
 C -1.06 -2.46  3.14
 C -0.97 -2.71  1.62
 C -2.24 -2.55  0.75
 N -3.06 -1.37  0.97
 C -2.60 -0.08  0.97
 N -3.44  0.86  1.54
 N -1.38  0.30  0.65
 H -1.96 -2.94  3.56
 H -0.20 -2.97  3.61
 H -0.65 -3.75  1.48
 H -0.14 -2.11  1.21
 H -2.90 -3.41  0.95
 H -1.93 -2.64 -0.30
 H -4.07 -1.51  0.95
 H -3.27  1.81  1.21
 H -4.43  0.63  1.62
 H -0.92 -0.42  0.10
 N -2.13 -0.11  5.59
 C -2.38  0.14  7.01
 H -2.76  0.33  4.92
 H -3.47  0.13  7.18
 H -1.98  1.12  7.30
 H -1.91 -0.64  7.60
Ca  1.78 -1.88  5.76
