36
#
 C -0.08 -1.93 -0.14
 C  0.13 -0.79  0.80
 O  0.95  0.14  0.47
 H  0.89 -2.38 -0.41
 H -0.51 -1.53 -1.07
 H -0.74 -2.71  0.24
 N -0.51 -0.70  1.95
 C -1.41 -1.64  2.63
 C -2.17 -0.73  3.64
 O -1.64  0.34  3.98
 H -0.44  0.17  2.51
 H -2.11 -2.06  1.90
 C -0.64 -2.79  3.33
 C  0.00 -2.51  4.71
 C  0.99 -1.35  4.86
 N  2.14 -1.43  3.96
 C  2.66 -0.39  3.30
 N  3.66 -0.65  2.30
 N  2.32  0.88  3.34
 H  0.12 -3.16  2.63
 H -1.34 -3.62  3.47
 H -0.79 -2.33  5.45
 H  0.48 -3.45  5.04
 H  1.35 -1.32  5.90
 H  0.47 -0.40  4.67
 H  2.66 -2.31  3.95
 H  4.59 -0.38  2.63
 H  3.70 -1.62  1.99
 H  1.71  1.13  4.11
 N -3.33 -1.21  4.11
 C -4.15 -0.51  5.10
 H -3.69 -2.07  3.72
 H -4.35 -1.17  5.95
 H -5.10 -0.20  4.65
 H -3.61  0.38  5.44
Ca  2.57  1.33  1.11
