36
#
 C  0.73 -1.55  1.13
 C  0.57 -0.48  2.16
 O  1.54  0.25  2.50
 H  0.98 -1.07  0.17
 H -0.16 -2.17  0.98
 H  1.59 -2.19  1.40
 N -0.65 -0.35  2.72
 C -1.25  0.74  3.51
 C -0.34  1.46  4.50
 O  0.61  0.90  5.13
 H -1.35 -0.99  2.35
 H -1.60  1.49  2.79
 C -2.54  0.20  4.22
 C -2.44 -0.68  5.48
 C -1.74 -2.05  5.39
 N -0.30 -1.88  5.46
 C  0.68 -2.71  5.04
 N  0.34 -4.00  4.78
 N  1.91 -2.21  4.86
 H -3.12 -0.33  3.44
 H -3.15  1.07  4.48
 H -3.48 -0.87  5.79
 H -2.00 -0.12  6.31
 H -2.01 -2.57  4.45
 H -2.10 -2.67  6.22
 H  0.02 -0.96  5.76
 H  1.05 -4.65  4.46
 H -0.47 -4.42  5.21
 H  2.59 -2.97  4.77
 N -0.62  2.74  4.76
 C -1.64  3.61  4.17
 H -0.05  3.14  5.50
 H -1.63  3.56  3.08
 H -1.41  4.64  4.46
 H -2.65  3.37  4.54
Ca  2.50 -0.04  4.45
