36
#
 C -0.69  0.25 -0.73
 C -0.57  0.29  0.75
 O  0.57  0.49  1.31
 H -0.29  1.19 -1.16
 H -1.72  0.11 -1.07
 H -0.07 -0.57 -1.12
 N -1.65  0.11  1.49
 C -1.70  0.08  2.95
 C -3.17 -0.38  3.23
 O -4.00 -0.17  2.35
 H -2.60  0.01  1.09
 H -0.96 -0.65  3.31
 C -1.41  1.48  3.55
 C -0.81  1.49  4.96
 C  0.02  2.76  5.22
 N  1.38  2.65  4.59
 C  1.96  3.83  3.98
 N  1.74  5.02  4.55
 N  2.62  3.58  2.89
 H -2.34  2.08  3.53
 H -0.73  1.99  2.85
 H -0.17  0.61  5.13
 H -1.60  1.44  5.72
 H  0.13  2.93  6.30
 H -0.49  3.63  4.79
 H  2.04  2.32  5.31
 H  1.31  5.11  5.46
 H  2.08  5.88  4.13
 H  3.11  4.38  2.48
 N -3.48 -0.95  4.41
 C -2.62 -1.42  5.49
 H -4.47 -1.16  4.50
 H -2.95 -2.41  5.81
 H -2.65 -0.75  6.36
 H -1.58 -1.52  5.15
Ca  2.09  1.37  2.46
