36
#
 C  0.45 -1.72  0.45
 C  0.33 -0.40  1.13
 O  1.39  0.26  1.43
 H  0.79 -1.54 -0.58
 H -0.48 -2.28  0.41
 H  1.23 -2.32  0.93
 N -0.84  0.14  1.45
 C -2.23 -0.31  1.32
 C -2.96  1.02  0.96
 O -2.38  2.07  1.27
 H -0.90  1.18  1.63
 H -2.32 -1.06  0.52
 C -2.80 -0.83  2.66
 C -2.28 -2.17  3.21
 C -0.93 -2.20  3.95
 N -0.86 -1.39  5.17
 C -0.02 -0.35  5.37
 N  0.32 -0.03  6.63
 N  0.50  0.34  4.34
 H -3.88 -0.94  2.51
 H -2.69 -0.03  3.41
 H -2.22 -2.92  2.41
 H -3.05 -2.56  3.90
 H -0.10 -1.90  3.31
 H -0.73 -3.24  4.24
 H -1.33 -1.77  5.99
 H  0.64  0.91  6.83
 H  0.06 -0.60  7.42
 H -0.11  0.18  3.53
 N -4.17  0.99  0.39
 C -4.96 -0.17 -0.02
 H -4.58  1.91  0.25
 H -4.33 -1.04 -0.19
 H -5.47  0.07 -0.96
 H -5.72 -0.41  0.74
Ca  2.23  1.10  3.18
