36
#
 C -0.04 -0.34 -0.49
 C  0.14  0.07  0.93
 O  1.32  0.18  1.42
 H -0.79 -1.14 -0.61
 H  0.91 -0.66 -0.91
 H -0.41  0.52 -1.07
 N -0.91  0.34  1.74
 C -2.11 -0.52  1.84
 C -1.62 -1.96  2.20
 O -0.37 -2.15  2.50
 H -0.63  0.77  2.62
 H -2.63 -0.15  2.73
 C -3.07 -0.44  0.63
 C -4.54 -0.11  0.94
 C -5.29 -0.98  1.95
 N -5.16 -2.46  1.77
 C -5.53 -3.04  0.51
 N -6.69 -3.77  0.55
 N -4.70 -2.91 -0.46
 H -3.05 -1.38  0.05
 H -2.71  0.35 -0.04
 H -5.07 -0.14 -0.02
 H -4.63  0.92  1.31
 H -6.35 -0.68  1.95
 H -4.92 -0.79  2.98
 H -5.67 -2.92  2.53
 H -7.42 -3.53  1.21
 H -7.01 -4.23 -0.29
 H -5.05 -3.31 -1.34
 N -2.49 -2.92  2.20
 C -2.16 -4.31  2.54
 H -3.53 -2.73  1.97
 H -3.08 -4.89  2.50
 H -1.73 -4.37  3.55
 H -1.45 -4.72  1.81
Ca  1.64 -1.54  2.68
