36
#
 C -2.10 -0.87  0.28
 C -1.58 -0.70  1.68
 O -0.50  0.04  1.79
 H -2.99 -1.50  0.24
 H -1.32 -1.31 -0.36
 H -2.34  0.11 -0.15
 N -2.20 -1.28  2.66
 C -1.67 -1.17  4.04
 C -1.59  0.29  4.51
 O -0.50  0.96  4.52
 H -3.45 -2.73  2.24
 H -2.44 -1.63  4.68
 C -0.34 -1.96  4.25
 C -0.39 -3.20  5.17
 C -1.58 -4.16  5.04
 N -2.08 -4.23  3.65
 C -3.37 -4.42  3.33
 N -4.10 -5.34  3.99
 N -3.89 -3.66  2.37
 H  0.43 -1.29  4.67
 H  0.03 -2.25  3.26
 H -0.36 -2.88  6.22
 H  0.54 -3.75  5.01
 H -2.42 -3.83  5.68
 H -1.28 -5.15  5.39
 H -1.59 -3.65  2.98
 H -3.64 -6.09  4.49
 H -5.10 -5.41  3.86
 H -4.77 -3.89  1.91
 N -2.71  0.89  4.92
 C -4.06  0.33  4.97
 H -2.59  1.85  5.23
 H -4.24 -0.31  4.10
 H -4.77  1.15  4.95
 H -4.21 -0.24  5.90
Ca  0.80  1.21  2.83
