36
#
 C -0.25 -0.43 -0.17
 C -0.37 -0.53  1.31
 O  0.66 -0.75  2.03
 H  0.43  0.41 -0.41
 H -1.20 -0.27 -0.67
 H  0.22 -1.34 -0.56
 N -1.57 -0.37  1.88
 C -1.83 -0.29  3.33
 C -1.70 -1.69  3.98
 O -0.53 -2.00  4.44
 H -2.36 -0.18  1.26
 H -0.99  0.27  3.77
 C -3.10  0.51  3.61
 C -3.45  0.61  5.10
 C -4.91  1.05  5.31
 N -5.40  0.80  6.64
 C -5.75 -0.47  7.06
 N -6.28 -0.51  8.32
 N -5.51 -1.49  6.28
 H -3.95  0.07  3.06
 H -2.95  1.51  3.18
 H -2.76  1.30  5.60
 H -3.34 -0.37  5.58
 H -5.55  0.50  4.60
 H -5.03  2.12  5.10
 H -5.34  1.53  7.34
 H -6.62 -1.41  8.64
 H -6.85  0.27  8.63
 H -5.94 -2.33  6.66
 N -2.67 -2.58  4.06
 C -4.08 -2.52  3.65
 H -2.39 -3.43  4.55
 H -4.41 -3.55  3.50
 H -4.19 -1.99  2.70
 H -4.68 -2.06  4.46
Ca  1.44 -1.65  3.78
