36
#
 C  0.03 -0.03  1.15
 C -0.58  0.07  2.51
 O -0.34  1.05  3.27
 H -0.13  0.89  0.59
 H -0.32 -0.90  0.58
 H  1.12 -0.13  1.30
 N -1.40 -0.92  2.97
 C -2.50 -1.49  2.20
 C -3.24 -0.35  1.46
 O -3.21  0.83  1.92
 H -1.54 -0.88  3.98
 H -2.12 -2.22  1.47
 C -3.49 -2.22  3.15
 C -4.38 -1.34  4.05
 C -3.73 -0.82  5.35
 N -4.60  0.08  6.09
 C -4.40  1.41  6.26
 N -5.14  2.01  7.21
 N -3.52  2.08  5.51
 H -2.91 -2.95  3.74
 H -4.15 -2.83  2.51
 H -5.25 -1.95  4.34
 H -4.80 -0.49  3.49
 H -2.80 -0.25  5.17
 H -3.45 -1.66  5.99
 H -5.35 -0.35  6.62
 H -5.66  1.48  7.90
 H -5.17  3.02  7.29
 H -3.39  3.00  5.94
 N -3.91 -0.68  0.36
 C -4.73  0.23 -0.44
 H -3.85 -1.64  0.05
 H -5.76 -0.14 -0.47
 H -4.33  0.28 -1.46
 H -4.71  1.22  0.01
Ca -2.33  2.08  3.55
