36
#
 C  0.69 -1.64  0.38
 C  0.31 -0.64  1.43
 O  1.15  0.35  1.62
 H  0.58 -1.19 -0.62
 H  0.09 -2.55  0.45
 H  1.75 -1.92  0.48
 N -0.82 -0.79  2.08
 C -1.15  0.24  3.07
 C -0.17  0.22  4.25
 O  0.65  1.19  4.40
 H -1.82 -2.82 -0.59
 H -0.99  1.24  2.62
 C -2.62  0.20  3.51
 C -3.63  0.46  2.37
 C -4.30 -0.78  1.77
 N -3.34 -1.64  1.08
 C -3.68 -2.61  0.24
 N -4.97 -2.97  0.08
 N -2.74 -3.23 -0.49
 H -2.75  0.97  4.29
 H -2.86 -0.76  3.99
 H -3.16  1.05  1.57
 H -4.44  1.09  2.76
 H -5.07 -0.45  1.06
 H -4.81 -1.34  2.58
 H -2.33 -1.50  1.34
 H -5.68 -2.66  0.73
 H -5.25 -3.59 -0.67
 H -2.95 -4.06 -1.03
 N -0.12 -0.79  5.12
 C -0.86 -2.05  5.12
 H  0.55 -0.65  5.87
 H -1.18 -2.30  4.10
 H -1.74 -1.99  5.78
 H -0.20 -2.84  5.48
Ca  1.95  1.82  2.81
