36
#
 C -0.62  0.30  0.03
 C -0.99 -0.24  1.38
 O -0.75 -1.46  1.65
 H  0.45  0.14 -0.15
 H -0.85  1.36 -0.10
 H -1.16 -0.28 -0.73
 N -1.56  0.61  2.25
 C -2.18  0.46  3.57
 C -1.40 -0.40  4.59
 O -0.24 -0.84  4.36
 H -1.67  1.55  1.87
 H -2.09  1.47  4.01
 C -3.71  0.21  3.46
 C -4.26 -1.04  2.77
 C -4.12 -2.39  3.50
 N -2.77 -2.90  3.35
 C -2.20 -3.95  4.01
 N -2.98 -4.67  4.84
 N -0.89 -4.15  3.84
 H -4.11  1.08  2.92
 H -4.16  0.31  4.47
 H -3.85 -1.14  1.75
 H -5.34 -0.87  2.63
 H -4.86 -3.09  3.06
 H -4.36 -2.28  4.57
 H -2.27 -2.60  2.52
 H -2.58 -5.44  5.37
 H -3.99 -4.69  4.74
 H -0.61 -5.06  4.20
 N -1.96 -0.56  5.78
 C -1.31 -1.25  6.89
 H -2.88 -0.15  5.95
 H -1.93 -1.15  7.78
 H -0.33 -0.80  7.09
 H -1.18 -2.31  6.66
Ca  0.51 -2.49  3.15
