36
#
 C -0.04 -0.07 -0.13
 C -0.07 -0.01  1.37
 O  1.01  0.13  2.03
 H  0.37  0.88 -0.50
 H -1.02 -0.25 -0.58
 H  0.66 -0.86 -0.45
 N -1.25 -0.09  1.99
 C -1.54  0.15  3.41
 C -1.15 -1.07  4.29
 O  0.10 -1.39  4.39
 H -2.07 -0.21  1.39
 H -0.91  0.99  3.75
 C -3.02  0.41  3.61
 C -3.79  1.60  3.07
 C -5.26  1.34  3.51
 N -5.43  1.14  4.95
 C -5.55 -0.08  5.60
 N -6.41 -0.04  6.66
 N -4.83 -1.13  5.27
 H -3.16  0.46  4.70
 H -3.55 -0.49  3.29
 H -3.77  1.69  1.97
 H -3.43  2.55  3.48
 H -5.63  0.44  2.98
 H -5.89  2.18  3.21
 H -5.84  1.92  5.45
 H -6.47 -0.84  7.28
 H -7.22  0.56  6.64
 H -5.22 -1.96  5.74
 N -2.08 -1.73  4.94
 C -1.76 -2.87  5.80
 H -3.12 -1.43  4.94
 H -2.70 -3.26  6.20
 H -1.12 -2.57  6.63
 H -1.26 -3.66  5.23
Ca  1.97 -0.77  3.68
