36
#
 C  0.18  0.40 -0.14
 C  0.11 -0.05  1.28
 O  1.16 -0.43  1.90
 H  1.08  1.00 -0.32
 H -0.72  0.93 -0.47
 H  0.28 -0.51 -0.75
 N -1.07 -0.09  1.93
 C -2.02  1.02  1.90
 C -1.33  2.24  2.55
 O -0.21  2.11  3.18
 H -1.05 -0.61  2.80
 H -2.27  1.30  0.85
 C -3.32  0.57  2.61
 C -4.51  1.54  2.63
 C -5.01  2.05  1.27
 N -4.29  3.24  0.75
 C -3.71  3.17 -0.54
 N -3.93  4.27 -1.31
 N -2.96  2.15 -0.82
 H -3.09  0.27  3.64
 H -3.63 -0.34  2.08
 H -4.31  2.40  3.30
 H -5.33  1.00  3.11
 H -6.07  2.31  1.37
 H -4.94  1.25  0.52
 H -4.83  4.09  0.88
 H -3.50  4.31 -2.23
 H -4.79  4.79 -1.23
 H -2.67  2.14 -1.80
 N -1.90  3.41  2.40
 C -1.39  4.66  2.95
 H -2.77  3.44  1.81
 H -2.21  5.39  2.96
 H -0.58  5.06  2.33
 H -1.03  4.52  3.97
Ca  1.55  0.97  3.50
