36
#
 C -0.15 -0.60  0.06
 C -0.11 -0.44  1.55
 O  0.90 -0.85  2.20
 H -1.04 -0.18 -0.40
 H -0.09 -1.67 -0.17
 H  0.74 -0.13 -0.37
 N -1.16  0.13  2.15
 C -1.48  0.30  3.59
 C -0.51  1.28  4.27
 O  0.71  0.95  4.49
 H -1.90  0.44  1.52
 H -2.45  0.79  3.59
 C -1.61 -1.06  4.31
 C -2.16 -1.02  5.75
 C -3.68 -0.87  5.93
 N -4.27  0.34  5.35
 C -3.80  1.61  5.61
 N -3.25  1.79  6.86
 N -3.73  2.60  4.76
 H -0.64 -1.57  4.32
 H -2.26 -1.70  3.68
 H -1.65 -0.23  6.33
 H -1.88 -1.96  6.24
 H -3.92 -0.95  7.00
 H -4.20 -1.72  5.45
 H -4.74  0.24  4.46
 H -3.16  2.77  7.12
 H -3.58  1.20  7.61
 H -4.20  2.38  3.87
 N -0.99  2.45  4.62
 C -0.19  3.48  5.29
 H -2.05  2.63  4.55
 H -0.83  4.35  5.44
 H  0.67  3.76  4.68
 H  0.16  3.12  6.27
Ca  2.17 -0.38  3.82
