36
#
 C  0.70 -1.95  0.30
 C  0.25 -1.03  1.39
 O  0.43  0.27  1.16
 H  1.77 -1.81  0.10
 H  0.17 -1.70 -0.63
 H  0.52 -2.99  0.57
 N -0.27 -1.53  2.47
 C -0.77 -0.63  3.51
 C  0.40 -0.07  4.31
 O  0.94  1.04  3.97
 H -4.78 -5.63  2.00
 H -1.27  0.26  3.07
 C -1.82 -1.39  4.34
 C -3.05 -1.73  3.49
 C -4.15 -2.52  4.22
 N -3.80 -3.91  4.56
 C -4.05 -4.98  3.81
 N -3.96 -6.21  4.35
 N -4.38 -4.86  2.52
 H -2.12 -0.79  5.22
 H -1.37 -2.33  4.71
 H -2.70 -2.27  2.60
 H -3.51 -0.80  3.13
 H -5.06 -2.54  3.62
 H -4.42 -2.03  5.16
 H -3.39 -4.08  5.48
 H -3.95 -7.04  3.77
 H -4.00 -6.35  5.35
 H -4.25 -3.98  2.02
 N  0.89 -0.76  5.33
 C  2.06 -0.39  6.11
 H  0.45 -1.66  5.52
 H  1.96 -0.80  7.12
 H  2.13  0.70  6.17
 H  2.98 -0.79  5.66
Ca  1.12  1.96  2.03
