36
#
 C  0.46 -1.53  1.67
 C -0.63 -1.75  2.66
 O -0.37 -1.93  3.88
 H  0.75 -0.46  1.66
 H  0.18 -1.82  0.65
 H  1.34 -2.09  1.99
 N -1.93 -1.75  2.26
 C -2.48 -0.75  1.36
 C -2.45  0.62  2.10
 O -2.21  0.67  3.34
 H -2.56 -2.02  3.02
 H -1.79 -0.67  0.50
 C -3.86 -1.14  0.78
 C -5.16 -0.86  1.56
 C -5.48 -1.67  2.84
 N -5.34 -0.89  4.07
 C -4.37 -1.00  4.98
 N -4.13  0.09  5.84
 N -3.47 -1.96  5.11
 H -3.80 -2.21  0.52
 H -3.96 -0.62 -0.18
 H -5.98 -1.05  0.85
 H -5.24  0.22  1.80
 H -4.85 -2.57  2.92
 H -6.51 -2.04  2.80
 H -6.05 -0.18  4.23
 H -4.23 -0.16  6.83
 H -4.64  0.95  5.63
 H -3.74 -2.86  4.70
 N -2.68  1.71  1.37
 C -2.67  3.08  1.87
 H -2.84  1.58  0.37
 H -2.48  3.08  2.94
 H -3.64  3.55  1.67
 H -1.89  3.66  1.36
Ca -1.62 -0.57  5.16
