36
#
 C -0.19  0.63  0.01
 C -0.06  0.52  1.50
 O  0.97  0.87  2.10
 H -0.21  1.70 -0.26
 H -1.09  0.15 -0.39
 H  0.70  0.20 -0.47
 N -1.13  0.02  2.19
 C -1.25  0.16  3.64
 C -0.36 -0.85  4.41
 O -0.86 -1.64  5.30
 H -1.96 -0.23  1.66
 H -0.84  1.15  3.91
 C -2.72  0.13  4.10
 C -3.52 -1.13  3.73
 C -4.71 -1.33  4.69
 N -5.43 -2.58  4.50
 C -5.14 -3.75  5.12
 N -6.00 -4.77  4.92
 N -4.06 -3.87  5.89
 H -3.21  1.02  3.69
 H -2.72  0.27  5.19
 H -2.89 -2.03  3.74
 H -3.91 -1.07  2.71
 H -5.43 -0.51  4.57
 H -4.40 -1.27  5.74
 H -6.24 -2.56  3.88
 H -5.81 -5.69  5.28
 H -6.89 -4.65  4.44
 H -4.10 -4.78  6.36
 N  0.92 -0.82  4.15
 C  1.93 -1.66  4.78
 H  1.18 -0.11  3.41
 H  1.74 -2.72  4.56
 H  1.94 -1.51  5.87
 H  2.90 -1.38  4.38
Ca -2.14 -2.82  6.46
