36
#
 C -0.19  0.22  0.96
 C -0.61  0.25  2.29
 O  0.25  0.59  3.22
 H -0.81 -0.11  0.14
 H  0.65  0.88  0.71
 H -3.01  3.53 -1.57
 N -1.83 -0.25  2.78
 C -2.43 -1.50  2.35
 C -1.48 -2.71  2.57
 O -0.23 -2.57  2.68
 H -1.83 -0.15  3.79
 H -3.29 -1.65  3.03
 C -3.00 -1.49  0.91
 C -3.88 -0.26  0.65
 C -4.22 -0.09 -0.83
 N -5.08  1.07 -1.12
 C -4.66  2.31 -1.39
 N -5.52  3.21 -1.88
 N -3.38  2.66 -1.20
 H -3.59 -2.41  0.76
 H -2.18 -1.54  0.18
 H -3.36  0.64  1.03
 H -4.81 -0.33  1.24
 H -4.75 -0.97 -1.21
 H -3.31  0.00 -1.44
 H -6.08  0.92 -1.09
 H -5.30  4.20 -1.88
 H -6.41  2.93 -2.27
 H -2.76  2.12 -0.60
 N -2.03 -3.92  2.67
 C -1.28 -5.15  2.88
 H -3.05 -3.98  2.64
 H -0.75 -5.12  3.84
 H -0.55 -5.30  2.08
 H -1.98 -5.99  2.89
Ca  1.41 -1.07  2.55
