36
#
 C  0.65 -0.34  0.66
 C  0.23  0.10  2.01
 O  1.13  0.71  2.78
 H  1.29  0.42  0.19
 H -0.20 -0.54  0.00
 H  1.24 -1.26  0.74
 N -0.96 -0.07  2.50
 C -2.18 -0.62  1.93
 C -3.22 -0.12  3.00
 O -2.73  0.48  4.00
 H -1.33  0.34  3.46
 H -2.40 -0.11  0.98
 C -2.16 -2.16  1.71
 C -2.46 -2.56  0.25
 C -3.20 -3.90  0.06
 N -4.29 -4.16  1.00
 C -5.24 -3.24  1.39
 N -5.92 -3.55  2.54
 N -5.45 -2.07  0.85
 H -2.90 -2.62  2.38
 H -1.19 -2.55  2.03
 H -1.53 -2.64 -0.33
 H -3.04 -1.76 -0.23
 H -2.50 -4.74  0.19
 H -3.55 -3.95 -0.98
 H -4.38 -5.11  1.34
 H -6.84 -3.14  2.63
 H -5.80 -4.45  2.98
 H -5.06 -2.02 -0.09
 N -4.50 -0.32  2.78
 C -5.52  0.13  3.73
 H -4.85 -0.90  1.96
 H -6.49  0.07  3.23
 H -5.33  1.16  4.03
 H -5.53 -0.50  4.62
Ca  2.32  1.70  4.00
