36
#
 C  0.98  0.72  0.45
 C  0.46  0.26  1.77
 O  1.25 -0.29  2.60
 H  0.22  1.21 -0.17
 H  1.37 -0.15 -0.10
 H  1.82  1.40  0.61
 N -0.84  0.44  2.04
 C -1.63 -0.07  3.18
 C -1.28  0.64  4.50
 O -0.17  0.40  5.08
 H -1.38  0.89  1.30
 H -2.67  0.21  2.93
 C -1.59 -1.60  3.35
 C -2.10 -2.40  2.15
 C -3.61 -2.23  1.86
 N -4.13 -3.39  1.18
 C -4.35 -4.58  1.89
 N -4.83 -5.59  1.09
 N -4.13 -4.78  3.15
 H -2.20 -1.84  4.24
 H -0.57 -1.93  3.58
 H -1.93 -3.46  2.37
 H -1.52 -2.17  1.24
 H -3.80 -1.36  1.22
 H -4.15 -2.04  2.82
 H -4.81 -3.20  0.44
 H -4.95 -6.48  1.57
 H -4.51 -5.65  0.14
 H -3.98 -3.91  3.66
 N -2.18  1.44  5.04
 C -2.06  2.14  6.32
 H -3.05  1.58  4.52
 H -2.02  3.22  6.14
 H -1.15  1.81  6.82
 H -2.93  1.91  6.94
Ca  1.66 -0.60  4.64
