36
#
 C -0.19  1.06  0.34
 C -0.07  0.45  1.70
 O  1.04  0.01  2.11
 H  0.09  0.31 -0.41
 H  0.54  1.88  0.25
 H -1.19  1.44  0.11
 N -1.19  0.38  2.45
 C -1.38 -0.28  3.76
 C -0.66  0.51  4.86
 O  0.60  0.50  4.97
 H -2.03  0.77  2.02
 H -2.46 -0.20  3.95
 C -1.04 -1.79  3.68
 C -1.47 -2.69  4.85
 C -0.71 -2.56  6.19
 N  0.74 -2.34  6.06
 C  1.62 -3.06  5.31
 N  1.42 -4.39  5.20
 N  2.61 -2.39  4.71
 H  0.02 -1.93  3.48
 H -1.56 -2.15  2.78
 H -1.38 -3.72  4.49
 H -2.55 -2.56  5.07
 H -0.92 -3.45  6.80
 H -1.07 -1.71  6.78
 H  1.06 -1.42  6.31
 H  0.88 -4.89  5.90
 H  2.02 -4.95  4.61
 H  3.37 -3.03  4.43
 N -1.42  1.21  5.69
 C -0.94  2.06  6.78
 H -2.43  1.19  5.54
 H -1.41  1.74  7.73
 H -1.20  3.10  6.59
 H  0.15  1.96  6.86
Ca  2.35 -0.27  3.83
