36
#
 C  0.18  0.39  0.03
 C  0.07  0.26  1.51
 O  1.12  0.28  2.23
 H  0.63  1.37 -0.20
 H -0.78  0.32 -0.49
 H  0.86 -0.37 -0.36
 N -1.13  0.12  2.06
 C -1.43  0.14  3.51
 C -1.00 -1.20  4.14
 O  0.20 -1.25  4.60
 H -1.95  0.12  1.45
 H -0.73  0.86  3.96
 C -2.85  0.66  3.71
 C -3.36  0.65  5.16
 C -4.90  0.84  5.23
 N -5.68 -0.38  5.05
 C -6.18 -0.80  3.83
 N -7.35 -1.52  3.93
 N -5.50 -0.59  2.74
 H -3.58  0.11  3.08
 H -2.86  1.69  3.34
 H -2.89  1.47  5.73
 H -3.11 -0.28  5.68
 H -5.21  1.59  4.48
 H -5.15  1.25  6.21
 H -6.21 -0.67  5.86
 H -7.75 -1.87  3.07
 H -8.04 -1.25  4.63
 H -6.05 -0.83  1.91
 N -1.74 -2.29  4.22
 C -3.11 -2.57  3.78
 H -1.26 -3.06  4.68
 H -3.10 -3.52  3.23
 H -3.54 -1.79  3.15
 H -3.76 -2.68  4.66
Ca  2.05 -0.42  4.00
