36
#
 C  1.49  1.80  1.66
 C  0.69  1.32  2.83
 O  1.07  1.55  4.01
 H  1.63  2.89  1.75
 H  1.02  1.57  0.70
 H  2.48  1.35  1.69
 N -0.45  0.64  2.61
 C -1.30  0.19  3.71
 C -0.72 -1.06  4.42
 O -0.14 -0.86  5.53
 H -0.74  0.49  1.65
 H -1.20  0.97  4.47
 C -2.79  0.15  3.36
 C -3.46  1.53  3.55
 C -3.28  2.15  4.95
 N -2.27  3.23  4.98
 C -1.56  3.57  6.11
 N -1.56  4.89  6.43
 N -0.88  2.66  6.79
 H -3.28 -0.57  4.03
 H -2.97 -0.22  2.34
 H -4.53  1.41  3.35
 H -3.09  2.23  2.79
 H -2.98  1.40  5.69
 H -4.24  2.56  5.29
 H -2.54  4.03  4.41
 H -0.90  5.25  7.11
 H -2.28  5.52  6.10
 H -0.71  3.01  7.74
 N -0.81 -2.28  3.91
 C -1.44 -2.73  2.67
 H -0.40 -3.00  4.51
 H -0.97 -3.67  2.37
 H -1.28 -2.00  1.86
 H -2.51 -2.90  2.80
Ca  0.70  1.10  6.14
