36
#
 C -0.07 -0.55  0.03
 C -0.18  0.01  1.41
 O  0.89  0.17  2.10
 H  0.45 -1.51  0.05
 H  0.55  0.13 -0.57
 H -1.03 -0.67 -0.48
 N -1.33  0.35  1.95
 C -2.71  0.18  1.49
 C -3.49  1.18  2.40
 O -2.94  1.54  3.45
 H -1.35  0.87  2.85
 H -2.80  0.46  0.43
 C -3.20 -1.27  1.71
 C -3.29 -1.69  3.20
 C -2.57 -3.00  3.58
 N -1.14 -3.07  3.22
 C -0.10 -2.50  3.84
 N -0.31 -1.44  4.76
 N  1.18 -2.73  3.63
 H -2.53 -1.94  1.15
 H -4.18 -1.38  1.23
 H -4.34 -1.83  3.48
 H -2.95 -0.87  3.84
 H -3.04 -3.85  3.07
 H -2.68 -3.18  4.66
 H -0.90 -3.75  2.50
 H -0.14 -1.75  5.72
 H -1.24 -1.01  4.71
 H  1.39 -3.57  3.08
 N -4.72  1.56  2.04
 C -5.48  1.23  0.84
 H -5.17  2.17  2.72
 H -6.08  2.10  0.55
 H -6.16  0.38  1.01
 H -4.81  0.99  0.01
Ca  1.91 -0.57  3.79
