36
#
 C -1.53 -0.31 -0.20
 C -1.00 -0.14  1.19
 O  0.23 -0.24  1.42
 H -1.26 -1.32 -0.56
 H -1.03  0.40 -0.87
 H -2.61 -0.19 -0.28
 N -1.89  0.12  2.17
 C -1.63  0.24  3.62
 C -0.85  1.54  3.91
 O  0.40  1.60  3.71
 H -2.87  0.18  1.88
 H -2.63  0.35  4.08
 C -0.97 -1.03  4.18
 C -0.33 -0.94  5.58
 C  0.87 -1.89  5.69
 N  2.00 -1.45  4.83
 C  3.03 -0.57  5.31
 N  3.23 -0.46  6.63
 N  3.63  0.09  4.36
 H -0.20 -1.36  3.46
 H -1.72 -1.83  4.16
 H -1.06 -1.21  6.35
 H  0.00  0.08  5.81
 H  0.59 -2.89  5.36
 H  1.17 -1.99  6.74
 H  2.45 -2.24  4.38
 H  3.91  0.19  6.99
 H  2.89 -1.16  7.28
 H  4.47  0.60  4.67
 N -1.54  2.57  4.37
 C -0.99  3.88  4.68
 H -2.54  2.44  4.51
 H -1.33  4.62  3.94
 H  0.10  3.83  4.67
 H -1.33  4.20  5.68
Ca  1.92  0.30  2.77
