36
#
 C  1.39  1.24  0.50
 C  0.93  0.66  1.80
 O  1.74  0.05  2.55
 H  2.21  1.94  0.69
 H  0.60  1.76 -0.05
 H  1.79  0.44 -0.13
 N -0.37  0.80  2.12
 C -1.07  0.23  3.29
 C -0.58  0.92  4.58
 O  0.47  0.53  5.17
 H -0.95  1.29  1.44
 H -2.13  0.50  3.15
 C -0.97 -1.31  3.33
 C -1.51 -2.00  4.59
 C -0.62 -3.18  5.01
 N  0.70 -2.68  5.48
 C  1.88 -3.47  5.42
 N  1.77 -4.80  5.31
 N  2.98 -2.76  5.40
 H  0.08 -1.59  3.17
 H -1.50 -1.68  2.44
 H -2.52 -2.38  4.43
 H -1.58 -1.30  5.44
 H -0.45 -3.84  4.15
 H -1.12 -3.77  5.79
 H  0.62 -2.24  6.40
 H  0.90 -5.28  5.54
 H  2.59 -5.38  5.17
 H  3.84 -3.30  5.50
 N -1.27  1.95  5.06
 C -2.48  2.58  4.53
 H -0.87  2.36  5.90
 H -3.32  1.87  4.49
 H -2.31  3.01  3.53
 H -2.76  3.39  5.20
Ca  2.23 -0.69  4.58
