36
#
 C -0.31  1.32  0.24
 C -0.55  1.28  1.73
 O -0.66  2.47  2.30
 H -1.20  1.73 -0.26
 H -0.10  0.33 -0.17
 H  0.52  1.99 -0.00
 N -0.65  0.13  2.32
 C -1.06 -0.04  3.71
 C -0.52  0.89  4.79
 O  0.59  1.52  4.69
 H -0.69 -1.35  1.34
 H -2.16  0.08  3.74
 C -0.78 -1.51  4.15
 C  0.69 -1.96  4.15
 C  1.30 -2.32  2.79
 N  0.65 -3.46  2.13
 C -0.22 -3.39  1.11
 N -0.55 -4.52  0.47
 N -0.75 -2.22  0.74
 H -1.39 -2.16  3.51
 H -1.19 -1.66  5.16
 H  0.77 -2.84  4.81
 H  1.33 -1.20  4.61
 H  2.36 -2.60  2.94
 H  1.28 -1.47  2.10
 H  0.90 -4.39  2.46
 H -1.31 -4.54 -0.21
 H -0.01 -5.37  0.56
 H -1.30 -2.18 -0.10
 N -1.20  1.02  5.93
 C -2.48  0.43  6.34
 H -0.71  1.56  6.65
 H -3.14  0.30  5.48
 H -2.96  1.11  7.05
 H -2.33 -0.54  6.84
Ca  0.73  3.32  3.53
