36
#
 C -0.75  0.91  0.10
 C -0.66  0.63  1.56
 O  0.40  0.92  2.21
 H -0.68  2.00 -0.05
 H -1.68  0.55 -0.35
 H  0.11  0.46 -0.41
 N -1.70  0.07  2.19
 C -1.83 -0.05  3.66
 C -0.90 -1.17  4.19
 O  0.26 -0.82  4.60
 H -2.55 -0.08  1.65
 H -1.39  0.86  4.09
 C -3.30 -0.06  4.05
 C -3.54 -0.04  5.57
 C -4.96  0.44  5.93
 N -5.26  1.76  5.39
 C -5.83  1.93  4.12
 N -7.07  1.33  4.00
 N -5.15  2.56  3.21
 H -3.84 -0.89  3.59
 H -3.72  0.87  3.62
 H -2.82  0.65  6.04
 H -3.35 -1.02  6.03
 H -5.06  0.45  7.02
 H -5.71 -0.26  5.54
 H -4.51  2.44  5.52
 H -7.56  1.47  3.13
 H -7.66  1.34  4.82
 H -5.74  2.80  2.41
 N -1.23 -2.45  4.23
 C -2.45 -3.14  3.78
 H -0.51 -3.04  4.65
 H -2.20 -4.19  3.64
 H -2.79 -2.74  2.82
 H -3.25 -3.06  4.53
Ca  1.67  0.60  3.87
