36
#
 C  0.28 -0.08  3.42
 C -0.57 -1.28  3.16
 O -0.01 -2.42  3.02
 H  1.29 -0.41  3.70
 H  0.37  0.54  2.51
 H -0.14  0.55  4.21
 N -1.91 -1.20  3.06
 C -2.67 -0.22  2.28
 C -2.31 -0.42  0.81
 O -1.35 -1.21  0.47
 H -2.39 -2.10  3.15
 H -3.72 -0.60  2.44
 C -2.65  1.22  2.83
 C -3.27  1.27  4.24
 C -4.76  1.65  4.28
 N -5.66  1.01  3.30
 C -6.04 -0.33  3.39
 N -7.38 -0.55  3.22
 N -5.12 -1.25  3.52
 H -3.21  1.87  2.15
 H -1.63  1.62  2.84
 H -2.75  2.03  4.84
 H -3.12  0.31  4.75
 H -4.86  2.73  4.09
 H -5.13  1.48  5.31
 H -6.43  1.62  3.05
 H -7.71 -1.50  3.21
 H -8.05  0.14  3.54
 H -5.54 -2.17  3.67
 N -3.02  0.15 -0.15
 C -4.24  0.96 -0.04
 H -2.69 -0.05 -1.09
 H -4.92  0.65 -0.84
 H -4.00  2.02 -0.18
 H -4.72  0.81  0.93
Ca -0.08 -2.86  0.92
