36
#
 C -0.67 -1.33  0.29
 C -0.42 -1.06  1.74
 O  0.71 -1.30  2.27
 H  0.00 -0.73 -0.33
 H -1.71 -1.18 -0.01
 H -0.40 -2.38  0.11
 N -1.40 -0.53  2.52
 C -2.23  0.61  2.10
 C -1.29  1.64  1.43
 O -0.08  1.71  1.81
 H -1.19 -0.62  3.52
 H -3.01  0.26  1.41
 C -2.87  1.36  3.29
 C -3.72  0.63  4.35
 C -2.99 -0.13  5.49
 N -1.74  0.53  5.92
 C -0.50  0.10  5.54
 N -0.35 -1.26  5.40
 N  0.52  0.88  5.21
 H -3.53  2.12  2.83
 H -2.08  1.94  3.80
 H -4.43 -0.07  3.88
 H -4.35  1.40  4.82
 H -2.74 -1.15  5.17
 H -3.66 -0.23  6.35
 H -1.81  1.53  6.10
 H  0.60 -1.59  5.35
 H -0.95 -1.86  5.95
 H  0.30  1.86  5.40
 N -1.75  2.48  0.51
 C -3.10  2.59 -0.05
 H -1.06  3.16  0.18
 H -3.65  1.66  0.06
 H -3.02  2.82 -1.12
 H -3.65  3.41  0.44
Ca  1.44  0.66  3.07
