36
#
 C  1.47 -1.47  1.03
 C  0.95 -0.96  2.32
 O  1.77 -0.59  3.24
 H  1.99 -0.64  0.52
 H  0.69 -1.87  0.36
 H  2.24 -2.23  1.22
 N -0.37 -0.87  2.50
 C -1.03 -0.23  3.64
 C -1.01 -1.13  4.90
 O  0.09 -1.30  5.52
 H -1.01 -1.14  1.69
 H -0.41  0.63  3.94
 C -2.41  0.35  3.24
 C -3.49 -0.56  2.60
 C -3.47 -0.65  1.07
 N -2.33 -1.46  0.60
 C -1.88 -1.41 -0.76
 N -2.43 -0.43 -1.55
 N -0.93 -2.23 -1.04
 H -2.20  1.18  2.55
 H -2.82  0.82  4.14
 H -4.47 -0.15  2.88
 H -3.48 -1.59  3.00
 H -3.37  0.36  0.66
 H -4.43 -1.06  0.73
 H -2.43 -2.44  0.84
 H -3.40 -0.18 -1.43
 H -2.12 -0.40 -2.51
 H -0.67 -2.23 -2.02
 N -2.12 -1.67  5.36
 C -2.19 -2.49  6.57
 H -2.98 -1.50  4.85
 H -3.25 -2.72  6.77
 H -1.78 -1.95  7.43
 H -1.64 -3.43  6.44
Ca  2.17 -0.87  5.25
