36
#
 C -1.80  0.90  1.91
 C -0.65 -0.03  1.68
 O  0.46  0.42  1.24
 H -1.70  1.35  2.91
 H -2.77  0.41  1.86
 H -1.76  1.71  1.17
 N -0.76 -1.34  1.90
 C -1.81 -2.09  2.61
 C -2.14 -1.43  3.97
 O -1.25 -0.88  4.65
 H  0.06 -1.88  1.63
 H -2.71 -2.12  1.98
 C -1.33 -3.55  2.81
 C -0.32 -3.89  3.93
 C  1.12 -3.37  3.81
 N  1.20 -1.93  4.10
 C  2.11 -1.05  3.71
 N  3.11 -1.39  2.74
 N  2.14  0.24  4.00
 H -0.96 -3.92  1.84
 H -2.23 -4.15  3.00
 H -0.73 -3.60  4.91
 H -0.25 -4.98  3.96
 H  1.51 -3.60  2.81
 H  1.75 -3.92  4.53
 H  0.33 -1.51  4.51
 H  4.05 -1.30  3.14
 H  3.02 -2.33  2.35
 H  1.51  0.50  4.77
 N -3.41 -1.54  4.36
 C -3.92 -1.09  5.66
 H -4.08 -1.97  3.72
 H -4.43 -1.92  6.17
 H -4.63 -0.27  5.52
 H -3.08 -0.75  6.26
Ca  2.44  0.93  1.87
