36
#
 C  0.41 -0.34  1.47
 C  0.09  0.43  2.71
 O  1.00  0.87  3.47
 H  0.60  0.36  0.64
 H -0.39 -1.02  1.18
 H  1.34 -0.89  1.64
 N -1.20  0.71  3.04
 C -2.24  1.10  2.10
 C -1.76  2.38  1.38
 O -0.88  3.11  1.94
 H -1.34  1.12  3.97
 H -2.42  0.29  1.38
 C -3.56  1.42  2.88
 C -3.83  0.56  4.13
 C -3.61  1.31  5.46
 N -2.22  1.81  5.61
 C -1.89  3.12  5.93
 N -2.83  3.89  6.51
 N -0.69  3.55  5.60
 H -4.39  1.33  2.16
 H -3.53  2.49  3.16
 H -3.25 -0.37  4.11
 H -4.88  0.24  4.12
 H -3.86  0.65  6.30
 H -4.29  2.16  5.49
 H -1.55  1.15  5.99
 H -2.68  4.88  6.65
 H -3.61  3.48  7.02
 H -0.46  4.41  6.12
 N -2.32  2.68  0.22
 C -2.05  3.89 -0.57
 H -2.99  2.03 -0.16
 H -2.97  4.47 -0.69
 H -1.68  3.60 -1.56
 H -1.30  4.49 -0.06
Ca  0.54  3.06  3.68
