36
#
 C -0.03 -0.34  0.30
 C -0.35  0.47  1.51
 O  0.59  1.11  2.11
 H  0.36 -1.32  0.60
 H  0.76  0.17 -0.26
 H -0.88 -0.49 -0.36
 N -1.54  0.38  2.16
 C -2.34 -0.84  2.30
 C -1.41 -1.94  2.89
 O -0.30 -1.61  3.44
 H -1.64  1.05  2.91
 H -3.05 -0.62  3.12
 C -3.20 -1.24  1.08
 C -4.28 -0.22  0.68
 C -3.82  1.13  0.10
 N -2.95  0.97 -1.06
 C -1.76  1.64 -1.31
 N -1.23  2.39 -0.23
 N -1.02  1.54 -2.36
 H -3.73 -2.17  1.33
 H -2.56 -1.47  0.22
 H -4.94 -0.01  1.54
 H -4.92 -0.72 -0.06
 H -3.28  1.70  0.86
 H -4.71  1.72 -0.15
 H -3.40  0.61 -1.90
 H -0.42  2.90 -0.58
 H -1.89  3.04  0.19
 H -1.41  0.92 -3.08
 N -1.79 -3.20  2.86
 C -1.06 -4.32  3.46
 H -2.67 -3.41  2.39
 H -1.68 -5.22  3.38
 H -0.85 -4.11  4.51
 H -0.12 -4.49  2.92
Ca  1.25 -0.13  3.71
