36
#
 C -1.46 -2.54  0.71
 C -1.04 -1.78  1.91
 O  0.18 -1.84  2.31
 H -0.85 -2.24 -0.15
 H -2.52 -2.40  0.47
 H -1.27 -3.61  0.88
 N -1.92 -1.04  2.58
 C -1.49 -0.21  3.71
 C -0.89 -1.07  4.85
 O  0.35 -0.88  5.11
 H -2.88 -0.90  2.16
 H -0.60  0.33  3.35
 C -2.44  0.94  4.12
 C -3.74  0.77  4.93
 C -5.06  0.51  4.17
 N -5.35 -0.87  3.83
 C -5.04 -1.58  2.69
 N -4.63 -0.79  1.58
 N -5.03 -2.86  2.74
 H -2.64  1.50  3.20
 H -1.78  1.60  4.71
 H -3.63  0.05  5.75
 H -3.88  1.74  5.43
 H -5.10  1.14  3.27
 H -5.88  0.86  4.80
 H -5.74 -1.46  4.55
 H -4.77 -1.29  0.71
 H -5.09  0.12  1.51
 H -4.94 -3.30  1.82
 N -1.55 -1.99  5.54
 C -2.89 -2.56  5.38
 H -0.98 -2.40  6.28
 H -2.80 -3.64  5.48
 H -3.31 -2.34  4.40
 H -3.55 -2.19  6.17
Ca  1.79 -1.43  3.63
