36
#
 C -0.57  1.04  0.44
 C -0.45  0.31  1.74
 O  0.68  0.07  2.24
 H -1.60  1.21  0.11
 H -0.04  0.46 -0.34
 H -0.05  2.00  0.52
 N -1.60 -0.09  2.33
 C -1.75 -0.90  3.56
 C -1.32 -0.09  4.80
 O -0.10  0.07  5.09
 H -2.45  0.16  1.85
 H -2.83 -1.08  3.64
 C -1.04 -2.26  3.43
 C -0.95 -3.11  4.71
 C  0.42 -3.79  4.85
 N  1.47 -2.77  5.09
 C  2.84 -2.99  4.76
 N  3.27 -4.24  4.57
 N  3.52 -1.88  4.60
 H -0.03 -2.09  3.03
 H -1.57 -2.82  2.64
 H -1.72 -3.88  4.72
 H -1.13 -2.50  5.62
 H  0.66 -4.31  3.91
 H  0.39 -4.53  5.66
 H  1.40 -2.39  6.04
 H  2.74 -5.04  4.91
 H  4.21 -4.42  4.24
 H  4.52 -2.01  4.50
 N -2.30  0.43  5.54
 C -2.11  1.25  6.74
 H -3.26  0.26  5.25
 H -2.42  2.28  6.54
 H -1.05  1.23  7.02
 H -2.71  0.84  7.56
Ca  1.83 -0.33  4.08
