36
#
 C -0.08  0.36  0.08
 C -0.02 -0.06  1.51
 O  1.11 -0.26  2.06
 H  0.15 -0.49 -0.58
 H  0.72  1.09 -0.07
 H -1.04  0.80 -0.20
 N -1.13 -0.17  2.30
 C -2.31 -1.02  2.04
 C -1.88 -2.47  2.37
 O -0.64 -2.81  2.35
 H -0.87 -0.17  3.28
 H -3.06 -0.72  2.78
 C -2.97 -0.93  0.65
 C -3.78  0.35  0.45
 C -4.76  0.27 -0.74
 N -5.46 -1.00 -0.89
 C -6.05 -1.72  0.13
 N -6.51 -0.96  1.20
 N -6.15 -3.01  0.20
 H -3.66 -1.78  0.59
 H -2.24 -1.10 -0.15
 H -3.14  1.23  0.31
 H -4.35  0.54  1.37
 H -4.23  0.44 -1.69
 H -5.47  1.11 -0.65
 H -5.18 -1.56 -1.69
 H -7.14 -1.50  1.78
 H -6.92 -0.06  0.95
 H -5.73 -3.48 -0.61
 N -2.80 -3.37  2.68
 C -4.25 -3.21  2.82
 H -2.43 -4.31  2.83
 H -4.59 -3.92  3.58
 H -4.79 -3.41  1.87
 H -4.50 -2.20  3.15
Ca  1.42 -2.32  2.59
