36
#
 C -1.13  0.35  0.44
 C -1.75 -0.13  1.72
 O -2.54 -1.10  1.71
 H -0.44  1.19  0.57
 H -1.94  0.66 -0.24
 H -0.61 -0.48 -0.05
 N -1.42  0.53  2.84
 C -1.93  0.43  4.23
 C -1.56 -0.90  4.91
 O -1.79 -2.02  4.37
 H -0.77  1.30  2.71
 H -1.35  1.20  4.74
 C -3.43  0.83  4.44
 C -4.49 -0.24  4.78
 C -5.21 -0.92  3.60
 N -5.16 -2.41  3.76
 C -5.83 -3.17  2.72
 N -7.15 -3.36  2.82
 N -5.01 -3.60  1.80
 H -3.74  1.41  3.56
 H -3.42  1.55  5.27
 H -5.25  0.26  5.40
 H -4.05 -1.01  5.43
 H -4.74 -0.68  2.64
 H -6.25 -0.57  3.53
 H -5.54 -2.66  4.67
 H -7.66 -3.92  2.15
 H -7.70 -2.90  3.54
 H -5.46 -4.08  1.02
 N -1.04 -0.85  6.13
 C -0.68  0.33  6.93
 H -0.84 -1.76  6.54
 H  0.14  0.90  6.46
 H -0.32 -0.02  7.90
 H -1.54  0.98  7.10
Ca -2.93 -3.01  2.72
