36
#
 C -0.14 -0.12  0.73
 C -1.29  0.37  1.56
 O -1.11  1.34  2.37
 H -0.42 -0.23 -0.32
 H  0.21 -1.10  1.08
 H  0.69  0.59  0.82
 N -2.50 -0.21  1.49
 C -2.76 -1.65  1.44
 C -2.14 -2.28  2.70
 O -1.46 -1.55  3.52
 H -3.28  0.35  1.88
 H -3.87 -1.72  1.60
 C -2.46 -2.34  0.09
 C -2.96 -1.60 -1.17
 C -4.49 -1.42 -1.37
 N -5.07 -0.30 -0.64
 C -5.49 -0.37  0.66
 N -5.48  0.84  1.36
 N -5.76 -1.45  1.34
 H -2.92 -3.34  0.11
 H -1.38 -2.52 -0.03
 H -2.59 -2.19 -2.03
 H -2.49 -0.62 -1.26
 H -5.03 -2.34 -1.14
 H -4.67 -1.23 -2.44
 H -5.01  0.61 -1.08
 H -6.17  0.85  2.11
 H -5.55  1.69  0.80
 H -5.85 -2.26  0.73
 N -2.37 -3.54  3.03
 C -3.25 -4.52  2.39
 H -1.91 -3.83  3.89
 H -2.72 -5.09  1.61
 H -4.13 -4.03  1.97
 H -3.58 -5.22  3.16
Ca -1.05  0.40  4.30
