36
#
 C -0.14 -0.14  0.42
 C -0.35 -0.29  1.90
 O  0.67 -0.82  2.56
 H  0.79  0.41  0.23
 H -0.96  0.38 -0.07
 H -0.01 -1.14 -0.03
 N -1.47  0.10  2.43
 C -1.71 -0.05  3.88
 C -0.75  0.83  4.71
 O  0.36  0.40  5.15
 H -2.98  0.12  1.09
 H -2.70  0.40  4.06
 C -1.78 -1.52  4.40
 C -3.20 -2.06  4.69
 C -4.02 -2.53  3.50
 N -4.26 -1.44  2.54
 C -4.17 -1.50  1.21
 N -4.52 -2.62  0.55
 N -3.71 -0.41  0.58
 H -1.22 -1.58  5.35
 H -1.27 -2.18  3.69
 H -3.77 -1.31  5.26
 H -3.11 -2.92  5.37
 H -4.98 -2.94  3.86
 H -3.50 -3.34  2.96
 H -4.28 -0.50  2.92
 H -4.30 -2.73 -0.43
 H -5.16 -3.29  0.97
 H -3.85 -0.28 -0.42
 N -1.13  2.08  4.93
 C -0.35  3.08  5.65
 H -2.02  2.37  4.54
 H -1.03  3.76  6.17
 H  0.27  3.66  4.95
 H  0.30  2.58  6.38
Ca  1.81 -0.89  4.24
