36
#
 C -1.27 -2.04  0.31
 C -0.81 -0.85  1.07
 O  0.49 -0.59  1.11
 H -2.36 -2.01  0.13
 H -1.03 -2.95  0.86
 H -0.74 -2.09 -0.65
 N -1.60 -0.06  1.72
 C -3.06 -0.08  1.85
 C -3.35  1.39  2.22
 O -2.39  2.09  2.61
 H -1.29  0.84  2.19
 H -3.51 -0.36  0.88
 C -3.47 -1.09  2.94
 C -4.98 -1.29  3.18
 C -5.80 -1.79  1.98
 N -6.19 -0.74  1.02
 C -5.78 -0.80 -0.31
 N -6.66 -0.22 -1.19
 N -4.60 -1.27 -0.58
 H -3.00 -0.80  3.89
 H -3.04 -2.07  2.66
 H -5.43 -0.37  3.58
 H -5.07 -2.03  3.98
 H -6.71 -2.26  2.36
 H -5.24 -2.55  1.42
 H -7.16 -0.44  1.13
 H -6.41 -0.23 -2.18
 H -7.65 -0.28 -1.02
 H -4.45 -1.30 -1.59
 N -4.60  1.80  2.07
 C -5.06  3.15  2.40
 H -5.27  1.12  1.70
 H -5.51  3.62  1.51
 H -4.21  3.74  2.73
 H -5.81  3.12  3.20
Ca  2.41 -0.15  1.17
