36
#
 C -0.62 -1.43 -0.26
 C -0.24 -0.91  1.09
 O  0.93 -0.44  1.28
 H -0.56 -0.61 -0.98
 H -1.62 -1.86 -0.29
 H  0.11 -2.19 -0.58
 N -1.15 -0.92  2.06
 C -1.07 -0.27  3.38
 C -0.22 -1.10  4.37
 O  1.03 -1.26  4.10
 H -2.05 -1.33  1.83
 H -0.50  0.66  3.24
 C -2.49  0.10  3.85
 C -3.54 -1.03  3.81
 C -4.44 -1.03  5.06
 N -3.67 -1.32  6.27
 C -3.46 -2.64  6.78
 N -3.63 -3.65  5.85
 N -2.98 -2.90  7.94
 H -2.83  0.94  3.23
 H -2.40  0.51  4.86
 H -3.07 -2.03  3.74
 H -4.18 -0.93  2.92
 H -5.28 -1.73  4.92
 H -4.90 -0.04  5.18
 H -3.87 -0.68  7.04
 H -3.53 -4.56  6.29
 H -4.46 -3.61  5.27
 H -2.83 -2.07  8.52
 N -0.74 -1.57  5.48
 C  0.02 -2.34  6.47
 H -1.74 -1.38  5.70
 H -0.70 -2.89  7.09
 H  0.61 -1.66  7.10
 H  0.70 -3.04  5.96
Ca  2.49 -0.71  2.69
