36
#
 C  0.22 -0.96 -0.17
 C  0.07 -0.36  1.19
 O  1.10  0.04  1.83
 H  0.68 -0.21 -0.83
 H -0.74 -1.28 -0.60
 H  0.90 -1.81 -0.13
 N -1.14 -0.26  1.73
 C -1.45  0.44  2.99
 C -0.94 -0.39  4.20
 O  0.23 -0.09  4.65
 H -1.94 -0.56  1.18
 H -0.79  1.32  3.01
 C -2.92  0.95  3.07
 C -3.90  0.50  1.97
 C -5.36  0.89  2.30
 N -5.88  0.22  3.48
 C -5.70  0.69  4.78
 N -6.05  2.02  4.96
 N -5.21 -0.12  5.66
 H -2.88  2.04  3.06
 H -3.33  0.68  4.05
 H -3.89 -0.60  1.84
 H -3.63  0.94  1.00
 H -5.99  0.65  1.44
 H -5.42  1.98  2.45
 H -5.85 -0.79  3.45
 H -6.85  2.35  4.44
 H -5.99  2.37  5.90
 H -5.32  0.23  6.62
 N -1.62 -1.36  4.77
 C -2.93 -1.93  4.45
 H -1.14 -1.76  5.58
 H -2.93 -2.97  4.81
 H -3.10 -1.94  3.37
 H -3.74 -1.37  4.97
Ca  2.05  0.37  3.70
