36
#
 C -0.70 -0.29 -0.67
 C -0.34 -0.51  0.74
 O  0.81 -0.85  1.10
 H -1.31  0.62 -0.81
 H -1.35 -1.14 -0.96
 H  0.19 -0.25 -1.30
 N -1.28 -0.44  1.83
 C -2.29  0.65  1.84
 C -1.52  1.95  2.11
 O -0.38  1.87  2.69
 H -1.80 -1.40  1.89
 H -2.83  0.71  0.88
 C -3.32  0.43  3.00
 C -4.79  0.17  2.62
 C -5.19 -1.25  2.21
 N -4.76 -1.67  0.88
 C -3.59 -2.29  0.52
 N -2.77 -2.74  1.61
 N -3.11 -2.47 -0.66
 H -3.30  1.32  3.64
 H -2.94 -0.39  3.63
 H -5.12  0.88  1.85
 H -5.39  0.42  3.51
 H -6.29 -1.32  2.22
 H -4.86 -1.98  2.97
 H -5.36 -1.41  0.11
 H -2.16 -3.47  1.23
 H -3.31 -3.14  2.38
 H -3.72 -2.12 -1.40
 N -2.03  3.13  1.80
 C -3.32  3.43  1.19
 H -1.45  3.92  2.09
 H -3.24  4.39  0.67
 H -4.11  3.51  1.95
 H -3.60  2.66  0.46
Ca  0.72  0.06  3.14
