36
#
 C -0.72 -1.78 -0.06
 C -0.63 -1.18  1.31
 O  0.49 -0.96  1.85
 H -1.74 -1.88 -0.42
 H -0.24 -2.77 -0.04
 H -0.14 -1.16 -0.76
 N -1.77 -0.86  1.95
 C -1.78 -0.24  3.27
 C -1.46 -1.27  4.37
 O -0.25 -1.39  4.74
 H -2.66 -1.08  1.49
 H -0.91  0.41  3.29
 C -3.00  0.65  3.56
 C -3.15  1.95  2.72
 C -1.88  2.75  2.34
 N -0.84  2.78  3.38
 C  0.42  2.30  3.19
 N  0.93  2.36  1.93
 N  1.15  1.69  4.13
 H -2.93  0.92  4.62
 H -3.94  0.09  3.47
 H -3.83  2.60  3.28
 H -3.66  1.73  1.78
 H -2.18  3.77  2.06
 H -1.43  2.29  1.45
 H -1.16  2.82  4.34
 H  1.94  2.29  1.87
 H  0.53  3.02  1.27
 H  0.74  1.82  5.06
 N -2.43 -2.01  4.89
 C -2.27 -3.04  5.92
 H -3.38 -1.83  4.56
 H -2.92 -2.81  6.77
 H -1.22 -3.05  6.25
 H -2.54 -4.02  5.51
Ca  1.56 -0.57  3.74
