36
#
 C -0.49 -0.14 -0.32
 C -0.29 -0.31  1.15
 O  0.85 -0.71  1.60
 H  0.27  0.55 -0.73
 H -1.48  0.24 -0.58
 H -0.35 -1.11 -0.82
 N -1.31 -0.05  1.95
 C -1.50 -0.33  3.37
 C -3.02 -0.71  3.42
 O -3.73 -0.33  2.48
 H -2.25  0.14  1.55
 H -0.86 -1.18  3.67
 C -1.25  0.89  4.29
 C  0.21  1.32  4.48
 C  0.59  2.62  3.75
 N  1.99  3.00  3.94
 C  3.03  2.35  3.36
 N  4.26  2.48  3.90
 N  2.86  1.56  2.29
 H -1.68  0.64  5.27
 H -1.87  1.73  3.92
 H  0.89  0.52  4.16
 H  0.41  1.47  5.55
 H -0.01  3.46  4.14
 H  0.35  2.57  2.68
 H  2.20  3.71  4.63
 H  5.06  2.38  3.29
 H  4.41  3.01  4.76
 H  1.99  1.83  1.84
 N -3.44 -1.39  4.49
 C -4.84 -1.76  4.70
 H -2.77 -1.68  5.19
 H -5.23 -1.30  5.62
 H -4.94 -2.85  4.78
 H -5.43 -1.41  3.85
Ca  2.92 -0.61  1.85
