36
#
 C -0.70 -0.09  0.78
 C -1.00  0.31  2.20
 O -0.31  1.32  2.68
 H -1.29 -0.95  0.47
 H  0.37 -0.33  0.68
 H -0.90  0.76  0.11
 N -1.91 -0.35  2.87
 C -2.20  0.12  4.23
 C -1.02 -0.16  5.18
 O -0.30  0.82  5.58
 H -3.16 -1.52  1.97
 H -2.27  1.23  4.24
 C -3.56 -0.40  4.75
 C -4.76  0.29  4.06
 C -5.96 -0.63  3.71
 N -6.13 -0.86  2.26
 C -5.13 -1.25  1.46
 N -5.12 -0.93  0.16
 N -4.10 -1.98  1.94
 H -3.62 -0.24  5.84
 H -3.61 -1.49  4.62
 H -4.42  0.77  3.13
 H -5.12  1.10  4.70
 H -6.90 -0.17  4.04
 H -5.90 -1.59  4.24
 H -7.00 -0.56  1.84
 H -4.57 -1.48 -0.48
 H -5.78 -0.26 -0.23
 H -4.30 -2.42  2.83
 N -0.70 -1.39  5.57
 C -1.28 -2.67  5.19
 H  0.09 -1.42  6.21
 H -2.08 -2.97  5.88
 H -0.49 -3.43  5.23
 H -1.65 -2.62  4.16
Ca  0.56  2.28  4.26
