36
#
 C -0.89  1.84  0.71
 C -0.69  1.15  2.03
 O  0.52  0.67  2.24
 H -0.21  2.70  0.64
 H -1.92  2.18  0.58
 H -0.61  1.16 -0.11
 N -1.70  1.08  2.85
 C -1.66  0.35  4.13
 C -0.57  0.82  5.10
 O  0.62  0.36  5.10
 H -4.81  2.18  1.69
 H -2.61  0.60  4.63
 C -1.66 -1.19  3.95
 C -3.03 -1.78  3.57
 C -3.56 -1.57  2.14
 N -3.92 -0.18  1.86
 C -4.92  0.22  1.09
 N -5.67 -0.64  0.37
 N -5.21  1.54  1.02
 H -1.37 -1.65  4.91
 H -0.90 -1.48  3.21
 H -3.79 -1.44  4.28
 H -2.96 -2.87  3.70
 H -4.45 -2.20  2.03
 H -2.81 -1.92  1.40
 H -3.20  0.53  2.17
 H -5.38 -1.59  0.23
 H -6.54 -0.35 -0.06
 H -5.84  1.91  0.33
 N -0.93  1.73  6.00
 C -0.05  2.31  7.01
 H -1.89  2.06  5.96
 H -0.65  2.57  7.89
 H  0.45  3.21  6.63
 H  0.71  1.57  7.30
Ca  1.97 -0.01  3.49
