36
#
 C  2.47 -0.28  1.59
 C  1.31  0.27  2.35
 O  1.41  0.47  3.62
 H  3.37  0.32  1.78
 H  2.28 -0.33  0.51
 H  2.68 -1.30  1.96
 N  0.20  0.55  1.71
 C -1.09  0.97  2.25
 C -1.98  1.03  0.97
 O -1.41  1.08 -0.13
 H  0.13  0.49  0.67
 H -1.46  0.18  2.93
 C -1.11  2.31  3.02
 C -0.47  3.53  2.32
 C  1.02  3.76  2.52
 N  1.36  3.98  3.98
 C  2.75  4.35  4.20
 N  3.12  5.61  3.98
 N  3.48  3.36  4.64
 H -0.68  2.16  4.02
 H -2.17  2.55  3.22
 H -1.01  4.44  2.64
 H -0.64  3.47  1.23
 H  1.33  4.63  1.93
 H  1.63  2.91  2.18
 H  0.75  4.73  4.34
 H  4.07  5.93  4.16
 H  2.48  6.29  3.57
 H  4.48  3.56  4.74
 N -3.32  1.05  1.10
 C -4.14  0.90  2.29
 H -3.81  1.13  0.21
 H -5.04  0.33  2.03
 H -4.46  1.87  2.70
 H -3.61  0.34  3.07
Ca  1.89  1.80  5.18
