36
#
 C  0.23 -0.81  0.60
 C -0.08 -0.19  1.92
 O  0.86  0.24  2.66
 H -0.65 -1.23  0.09
 H  0.98 -1.60  0.73
 H  0.69 -0.05 -0.05
 N -1.37 -0.12  2.30
 C -1.89  0.59  3.48
 C -0.92  0.43  4.67
 O -0.41  1.54  5.11
 H -2.06 -0.48  1.64
 H -1.87  1.67  3.26
 C -3.35  0.20  3.77
 C -4.07  1.15  4.73
 C -3.71  1.07  6.22
 N -4.14 -0.20  6.84
 C -3.45 -0.94  7.72
 N -4.13 -1.71  8.59
 N -2.11 -0.93  7.75
 H -3.42 -0.84  4.13
 H -3.89  0.23  2.81
 H -5.15  1.00  4.63
 H -3.90  2.19  4.42
 H -4.21  1.89  6.75
 H -2.64  1.20  6.39
 H -5.14 -0.39  6.79
 H -3.67 -2.46  9.09
 H -5.10 -1.54  8.80
 H -1.63 -1.33  8.54
 N -0.44 -0.70  5.16
 C -0.79 -2.03  4.65
 H -1.54 -0.65  6.94
 H -0.08 -2.36  3.88
 H -1.80 -2.10  4.22
 H -0.72 -2.75  5.47
Ca  1.51  0.63  4.72
