36
#
 C -0.05  0.71 -0.04
 C -0.18  0.49  1.44
 O  0.85  0.17  2.11
 H  0.29 -0.22 -0.50
 H  0.72  1.47 -0.23
 H -0.99  1.02 -0.52
 N -1.39  0.62  1.99
 C -1.89  0.31  3.35
 C -1.37  1.23  4.47
 O -0.07  1.37  4.61
 H -2.12  0.90  1.33
 H -2.96  0.53  3.27
 C -1.74 -1.19  3.69
 C -2.36 -1.63  5.03
 C -3.88 -1.53  5.17
 N -4.34 -0.15  5.36
 C -5.61  0.21  5.55
 N -6.59 -0.70  5.65
 N -5.90  1.52  5.62
 H -0.67 -1.45  3.71
 H -2.18 -1.77  2.87
 H -1.89 -1.10  5.87
 H -2.10 -2.69  5.17
 H -4.18 -2.14  6.04
 H -4.37 -1.97  4.28
 H -3.61  0.62  5.35
 H -7.56 -0.42  5.76
 H -6.39 -1.69  5.68
 H -6.81  1.84  5.94
 N -2.28  1.72  5.25
 C -1.87  2.51  6.41
 H -5.17  2.21  5.54
 H -2.59  2.37  7.22
 H -1.86  3.58  6.14
 H -0.87  2.25  6.78
Ca  1.77  0.84  3.91
