36
#
 C -0.69  0.54  2.28
 C -1.21 -0.08  3.53
 O -0.50 -0.12  4.59
 H -1.45  1.13  1.77
 H -0.34 -0.24  1.59
 H  0.17  1.18  2.53
 N -2.44 -0.64  3.55
 C -2.90 -1.59  2.51
 C -1.76 -2.62  2.30
 O -1.02 -2.91  3.32
 H -2.77 -0.86  4.49
 H -3.69 -2.17  3.03
 C -3.55 -0.99  1.25
 C -4.74 -1.85  0.76
 C -5.06 -1.75 -0.75
 N -4.76 -2.97 -1.51
 C -3.51 -3.53 -1.58
 N -2.44 -2.58 -1.50
 N -3.16 -4.76 -1.67
 H -2.80 -0.87  0.46
 H -3.90  0.02  1.50
 H -5.62 -1.57  1.35
 H -4.55 -2.91  0.99
 H -4.55 -0.89 -1.21
 H -6.13 -1.56 -0.89
 H -5.52 -3.65 -1.54
 H -1.63 -3.00 -1.96
 H -2.66 -1.70 -1.97
 H -3.95 -5.41 -1.65
 N -1.60 -3.19  1.14
 C -0.68 -4.29  0.87
 H -2.08 -2.81  0.27
 H  0.31 -3.91  0.57
 H -1.10 -4.87  0.04
 H -0.57 -4.92  1.75
Ca  0.06 -2.19  4.99
