36
#
 C -0.79 -1.30  0.53
 C -0.35 -0.49  1.70
 O  0.80 -0.79  2.26
 H  0.02 -1.34 -0.21
 H -1.69 -0.90  0.05
 H -0.99 -2.33  0.85
 N -1.03  0.50  2.20
 C -2.30  1.11  1.79
 C -2.19  2.50  2.50
 O -1.31  2.62  3.38
 H -0.67  1.11  2.99
 H -2.32  1.24  0.70
 C -3.51  0.26  2.25
 C -4.84  0.63  1.55
 C -5.82  1.46  2.39
 N -6.93  1.97  1.60
 C -6.73  2.88  0.56
 N -5.75  3.86  0.84
 N -7.31  2.90 -0.58
 H -3.61  0.33  3.34
 H -3.28 -0.79  2.03
 H -5.35 -0.30  1.24
 H -4.63  1.17  0.61
 H -5.31  2.29  2.89
 H -6.25  0.84  3.20
 H -7.68  1.31  1.42
 H -5.74  4.52  0.07
 H -5.95  4.36  1.71
 H -7.96  2.12 -0.73
 N -3.02  3.47  2.13
 C -2.99  4.79  2.76
 H -3.77  3.31  1.45
 H -1.96  5.05  3.02
 H -3.59  4.80  3.68
 H -3.39  5.52  2.06
Ca  2.57 -1.19  3.10
