36
#
 C -2.62 -0.36  0.35
 C -1.88 -0.15  1.63
 O -0.68  0.31  1.60
 H -3.31 -1.21  0.40
 H -1.90 -0.52 -0.46
 H -3.20  0.55  0.11
 N -2.50 -0.43  2.77
 C -1.97 -0.51  4.14
 C -1.51  0.83  4.73
 O -0.51  1.46  4.26
 H -3.42 -0.94  2.70
 H -2.85 -0.83  4.72
 C -0.88 -1.60  4.34
 C -1.22 -2.94  3.69
 C -2.52 -3.64  4.18
 N -3.35 -4.17  3.09
 C -4.04 -3.35  2.21
 N -4.68 -2.22  2.83
 N -4.18 -3.45  0.94
 H -0.73 -1.71  5.43
 H  0.08 -1.25  3.94
 H -0.36 -3.61  3.85
 H -1.29 -2.81  2.60
 H -3.13 -2.97  4.79
 H -2.28 -4.48  4.83
 H -2.97 -4.99  2.64
 H -5.41 -1.91  2.18
 H -5.12 -2.47  3.72
 H -3.64 -4.22  0.54
 N -2.14  1.32  5.79
 C -3.30  0.79  6.51
 H -1.73  2.18  6.15
 H -3.60  1.53  7.25
 H -3.05 -0.14  7.03
 H -4.15  0.63  5.83
Ca  0.72  1.54  2.53
