36
#
 C  0.59  0.47  0.20
 C -0.24  0.75  1.41
 O -0.08  1.81  2.08
 H  0.47  1.29 -0.52
 H  0.34 -0.48 -0.29
 H  1.65  0.46  0.49
 N -1.17 -0.15  1.77
 C -2.06  0.11  2.91
 C -1.34 -0.19  4.24
 O -0.84  0.78  4.88
 H -1.29 -0.99  1.21
 H -2.18  1.20  2.90
 C -3.50 -0.44  2.77
 C -4.50  0.72  2.97
 C -4.37  1.41  4.35
 N -4.76  2.81  4.35
 C -4.04  3.84  3.84
 N -4.72  4.99  3.61
 N -2.73  3.73  3.56
 H -3.70 -1.25  3.48
 H -3.65 -0.86  1.76
 H -5.52  0.36  2.82
 H -4.31  1.47  2.18
 H -3.34  1.34  4.74
 H -5.00  0.90  5.09
 H -5.70  3.02  4.66
 H -4.23  5.87  3.49
 H -5.73  5.04  3.69
 H -2.49  4.54  2.99
 N -1.24 -1.45  4.65
 C -0.53 -1.89  5.86
 H -1.67 -2.17  4.08
 H  0.32 -2.51  5.58
 H -1.22 -2.47  6.49
 H -0.19 -1.01  6.41
Ca -0.66  2.80  3.98
