36
#
 C -0.30 -1.14  0.15
 C -0.32 -0.80  1.60
 O  0.76 -0.84  2.29
 H -0.78 -2.14  0.03
 H  0.73 -1.18 -0.22
 H -0.88 -0.43 -0.44
 N -1.49 -0.46  2.15
 C -1.82 -0.32  3.58
 C -1.11  0.86  4.25
 O  0.12  0.81  4.58
 H -2.34 -0.69  1.58
 H -2.89 -0.07  3.56
 C -1.66 -1.65  4.39
 C -2.99 -2.23  4.90
 C -4.05 -2.57  3.83
 N -3.56 -3.43  2.77
 C -3.17 -3.06  1.50
 N -3.70 -1.82  1.04
 N -2.37 -3.68  0.71
 H -1.00 -1.49  5.25
 H -1.17 -2.39  3.74
 H -3.45 -1.54  5.63
 H -2.75 -3.14  5.47
 H -4.45 -1.65  3.38
 H -4.90 -3.05  4.34
 H -3.26 -4.36  3.05
 H -3.62 -1.82  0.02
 H -4.69 -1.68  1.28
 H -1.97 -4.53  1.12
 N -1.84  1.93  4.51
 C -1.36  3.15  5.18
 H -2.81  1.92  4.21
 H -2.15  3.52  5.85
 H -1.13  3.92  4.44
 H -0.47  2.91  5.77
Ca  1.86 -0.22  3.93
