36
#
 C  0.91  2.16  1.67
 C  0.44  1.53  2.93
 O  1.17  1.57  3.99
 H  0.45  1.69  0.79
 H  2.00  2.11  1.61
 H  0.64  3.23  1.69
 N -0.75  0.94  2.95
 C -1.45  0.45  4.14
 C -0.89 -0.93  4.57
 O  0.25 -0.97  5.14
 H -1.34  0.98  2.06
 H -1.18  1.11  4.98
 C -2.98  0.56  3.98
 C -3.72 -0.08  2.78
 C -3.84  0.80  1.52
 N -2.57  0.98  0.82
 C -2.00  0.00 -0.05
 N -2.77 -1.11 -0.28
 N -0.79  0.23 -0.42
 H -3.22  1.63  4.00
 H -3.41  0.16  4.92
 H -4.74 -0.32  3.11
 H -3.28 -1.05  2.46
 H -4.20  1.80  1.81
 H -4.63  0.39  0.87
 H -2.46  1.91  0.40
 H -2.39 -1.78 -0.94
 H -3.78 -0.99 -0.38
 H -0.45 -0.44 -1.11
 N -1.60 -2.02  4.39
 C -1.21 -3.37  4.78
 H -2.50 -1.91  3.92
 H -2.07 -3.88  5.22
 H -0.40 -3.32  5.51
 H -0.87 -3.94  3.90
Ca  1.91  0.33  5.48
