36
#
 C  1.38 -1.17  1.46
 C  0.54 -1.16  2.70
 O  0.42 -2.21  3.40
 H  1.43 -0.20  0.95
 H  0.97 -1.92  0.76
 H  2.40 -1.50  1.71
 N -0.07 -0.01  3.03
 C -1.01  0.23  4.14
 C -0.27  0.19  5.49
 O  0.11 -0.90  6.00
 H  0.10  0.78  2.40
 H -1.37  1.26  3.99
 C -2.22 -0.73  4.05
 C -3.01 -0.99  5.35
 C -3.78 -2.33  5.26
 N -3.85 -3.06  6.52
 C -3.00 -4.04  6.89
 N -3.43 -4.87  7.87
 N -1.80 -4.17  6.31
 H -1.86 -1.70  3.67
 H -2.89 -0.35  3.27
 H -3.70 -0.16  5.56
 H -2.34 -1.05  6.21
 H -3.30 -3.00  4.53
 H -4.81 -2.17  4.91
 H -4.67 -2.91  7.10
 H -2.79 -5.50  8.34
 H -4.40 -4.93  8.14
 H -1.46 -5.11  6.54
 N -0.05  1.36  6.09
 C  0.65  1.53  7.36
 H -0.38  2.20  5.62
 H  0.07  2.20  8.00
 H  1.64  1.97  7.19
 H  0.76  0.56  7.84
Ca -0.01 -3.02  5.40
