36
#
 C  0.81  0.79  0.81
 C  0.25 -0.39  1.53
 O  0.83 -1.54  1.42
 H  0.29  1.72  1.06
 H  0.71  0.62 -0.27
 H  1.88  0.89  1.02
 N -0.82 -0.24  2.27
 C -1.61 -1.23  3.00
 C -2.67 -0.34  3.74
 O -2.49  0.89  3.76
 H -1.21  0.71  2.46
 H -2.14 -1.86  2.27
 C -0.81 -2.14  3.95
 C  0.16 -1.43  4.90
 C  1.13 -2.41  5.57
 N  2.23 -2.84  4.65
 C  3.36 -1.96  4.43
 N  3.73 -1.11  5.39
 N  3.89 -2.10  3.24
 H -0.29 -2.89  3.34
 H -1.54 -2.72  4.54
 H -0.40 -0.90  5.68
 H  0.73 -0.65  4.37
 H  0.61 -3.33  5.87
 H  1.53 -1.98  6.50
 H  2.61 -3.74  4.98
 H  3.36 -1.17  6.34
 H  4.49 -0.46  5.25
 H  4.76 -1.58  3.09
 N -3.69 -0.98  4.33
 C -4.76 -0.28  5.04
 H -3.81 -1.97  4.16
 H -5.04 -0.84  5.94
 H -5.64 -0.17  4.39
 H -4.40  0.72  5.32
Ca  2.15 -3.03  2.07
