36
#
 C -1.49 -1.59  1.85
 C -0.82 -0.80  2.93
 O  0.46 -0.56  2.74
 H -2.56 -1.71  2.04
 H -1.02 -2.57  1.75
 H -1.36 -1.08  0.89
 N -1.51 -0.41  3.97
 C -0.88  0.32  5.08
 C -0.24  1.65  4.65
 O  0.99  1.77  4.35
 H -2.73 -1.56  4.52
 H -1.73  0.62  5.72
 C  0.05 -0.57  5.94
 C -0.54 -0.96  7.30
 C -1.92 -1.62  7.30
 N -1.98 -2.94  6.65
 C -2.85 -3.30  5.69
 N -3.24 -4.58  5.62
 N -3.32 -2.39  4.82
 H  1.01 -0.06  6.13
 H  0.28 -1.48  5.36
 H -0.64 -0.05  7.93
 H  0.17 -1.61  7.83
 H -2.68 -0.99  6.81
 H -2.26 -1.74  8.34
 H -1.54 -3.70  7.15
 H -3.71 -4.94  4.79
 H -3.18 -5.20  6.42
 H -4.11 -2.64  4.25
 N -1.05  2.71  4.62
 C -0.65  4.06  4.21
 H -2.02  2.55  4.86
 H -1.23  4.78  4.80
 H -0.86  4.21  3.15
 H  0.41  4.20  4.41
Ca  2.16  0.51  3.08
