36
#
 C -0.33 -1.33 -0.16
 C -0.57 -0.75  1.16
 O  0.41 -0.35  1.89
 H -1.21 -1.32 -0.81
 H -0.06 -2.43  0.02
 H  0.53 -0.86 -0.65
 N -1.84 -0.66  1.62
 C -2.29 -0.45  3.01
 C -2.12  1.02  3.46
 O -0.97  1.51  3.67
 H -2.55 -1.00  0.98
 H -3.37 -0.65  2.98
 C -1.66 -1.42  4.04
 C -2.36 -2.78  4.19
 C -2.54 -3.64  2.94
 N -1.31 -3.82  2.20
 C -1.20 -4.41  0.95
 N -2.36 -4.97  0.46
 N -0.07 -4.27  0.33
 H -1.68 -0.93  5.03
 H -0.60 -1.56  3.79
 H -3.35 -2.63  4.64
 H -1.79 -3.35  4.94
 H -3.28 -3.18  2.26
 H -2.99 -4.59  3.27
 H -0.44 -3.85  2.72
 H -2.29 -5.42 -0.45
 H -2.98 -5.47  1.10
 H -0.02 -4.83 -0.52
 N -3.22  1.72  3.66
 C -3.27  3.11  4.13
 H -4.11  1.27  3.46
 H -2.30  3.39  4.54
 H -4.04  3.19  4.91
 H -3.54  3.78  3.30
Ca  1.07  1.07  3.23
