36
#
 C  0.45  0.83  0.79
 C  0.12 -0.07  1.92
 O  0.95 -0.26  2.87
 H -0.20  0.69 -0.08
 H  1.49  0.63  0.49
 H  0.42  1.88  1.10
 N -1.07 -0.71  1.98
 C -2.34 -0.02  1.73
 C -2.54  1.00  2.90
 O -1.68  1.10  3.83
 H -1.12 -1.43  2.69
 H -2.25  0.56  0.80
 C -3.50 -1.04  1.62
 C -3.35 -2.04  0.47
 C -3.35 -1.40 -0.94
 N -3.70 -2.31 -2.01
 C -5.02 -2.74 -2.18
 N -5.15 -3.76 -3.10
 N -6.07 -2.31 -1.56
 H -4.44 -0.48  1.48
 H -3.60 -1.57  2.58
 H -4.21 -2.73  0.53
 H -2.45 -2.66  0.60
 H -2.36 -0.98 -1.19
 H -4.06 -0.56 -0.97
 H -2.98 -2.96 -2.31
 H -6.12 -3.99 -3.31
 H -4.54 -3.77 -3.90
 H -5.86 -1.60 -0.86
 N -3.62  1.75  2.89
 C -3.96  2.75  3.91
 H -4.28  1.62  2.12
 H -4.90  3.23  3.62
 H -3.17  3.50  3.98
 H -4.09  2.26  4.88
Ca  0.24  0.62  4.72
