36
#
 C  0.64 -2.63  2.37
 C  0.26 -1.21  2.65
 O  0.67 -0.33  1.76
 H  0.52 -2.83  1.30
 H  0.03 -3.35  2.92
 H  1.70 -2.80  2.61
 N -0.45 -0.92  3.71
 C -0.92  0.47  3.86
 C  0.19  1.34  4.47
 O  1.09  1.83  3.72
 H -0.63 -2.38  4.94
 H -1.05  0.91  2.86
 C -2.32  0.55  4.55
 C -2.86 -0.73  5.18
 C -2.18 -1.11  6.51
 N -2.37 -2.51  6.89
 C -1.58 -3.50  6.45
 N -1.73 -4.74  6.95
 N -0.65 -3.25  5.53
 H -3.03  0.86  3.78
 H -2.34  1.38  5.28
 H -2.75 -1.56  4.46
 H -3.94 -0.61  5.35
 H -2.57 -0.50  7.33
 H -1.10 -0.95  6.46
 H -3.20 -2.76  7.42
 H -1.29 -5.54  6.52
 H -2.28 -4.91  7.79
 H  0.06 -3.95  5.35
 N  0.22  1.56  5.78
 C  1.24  2.34  6.48
 H -0.54  1.18  6.33
 H  1.96  1.68  6.98
 H  0.75  2.97  7.23
 H  1.77  2.97  5.76
Ca  1.62  1.47  1.66
