36
#
 C  0.72 -0.44 -0.16
 C -0.18 -0.54  1.03
 O -0.44  0.49  1.74
 H  0.26  0.26 -0.88
 H  0.89 -1.40 -0.65
 H  1.68 -0.00  0.15
 N -0.73 -1.72  1.34
 C -1.78 -1.93  2.35
 C -1.18 -1.82  3.77
 O -1.24 -0.67  4.34
 H -0.53 -2.51  0.71
 H -2.46 -1.07  2.29
 C -2.59 -3.18  2.00
 C -3.79 -3.43  2.91
 C -4.59 -4.70  2.50
 N -5.07 -4.70  1.13
 C -4.24 -4.91  0.02
 N -3.24 -5.87  0.24
 N -4.29 -4.31 -1.11
 H -1.95 -4.07  1.94
 H -2.95 -3.02  0.97
 H -4.47 -2.56  2.89
 H -3.48 -3.55  3.96
 H -5.45 -4.80  3.17
 H -3.96 -5.59  2.67
 H -5.84 -4.07  0.94
 H -2.79 -6.10 -0.65
 H -3.57 -6.72  0.70
 H -5.00 -3.57 -1.12
 N -0.61 -2.82  4.42
 C -0.36 -4.21  4.02
 H -0.30 -2.56  5.36
 H  0.42 -4.60  4.68
 H  0.00 -4.26  2.99
 H -1.26 -4.82  4.13
Ca -0.96  1.31  3.61
