36
#
 C  1.55  1.07  1.46
 C  1.12  0.78  2.86
 O  1.75  1.27  3.85
 H  1.07  2.00  1.10
 H  1.30  0.27  0.76
 H  2.63  1.25  1.45
 N  0.03  0.01  3.08
 C -1.23  0.22  2.34
 C -1.66  1.71  2.49
 O -1.11  2.39  3.48
 H -0.10 -0.22  4.06
 H -1.05  0.03  1.28
 C -2.25 -0.80  2.90
 C -3.69 -0.76  2.37
 C -3.91 -1.05  0.88
 N -3.60  0.12  0.06
 C -3.86  0.21 -1.24
 N -4.37 -0.82 -1.93
 N -3.58  1.36 -1.89
 H -2.30 -0.66  3.99
 H -1.83 -1.80  2.73
 H -4.18  0.19  2.63
 H -4.24 -1.53  2.93
 H -4.97 -1.33  0.74
 H -3.29 -1.91  0.57
 H -3.20  0.97  0.56
 H -4.60 -0.74 -2.91
 H -4.57 -1.70 -1.48
 H -3.83  1.49 -2.86
 N -2.50  2.15  1.63
 C -3.00  3.52  1.74
 H -3.31  2.18 -1.37
 H -4.01  3.58  1.33
 H -3.02  3.89  2.78
 H -2.36  4.21  1.16
Ca  0.48  2.82  4.73
