36
#
 C -0.49  1.87 -0.52
 C -0.40  1.68  0.95
 O  0.34  2.44  1.68
 H  0.53  1.96 -0.90
 H -0.98  2.83 -0.76
 H -1.01  1.04 -1.02
 N -1.12  0.72  1.57
 C -2.53  0.47  1.28
 C -3.29  1.75  1.69
 O -2.72  2.60  2.48
 H -0.84  0.54  2.54
 H -2.62  0.27  0.19
 C -2.95 -0.80  2.06
 C -4.20 -1.60  1.65
 C -4.22 -2.22  0.22
 N -2.95 -2.73 -0.25
 C -2.02 -1.96 -0.92
 N -0.74 -2.43 -0.88
 N -2.25 -0.80 -1.49
 H -3.05 -0.56  3.13
 H -2.08 -1.47  1.97
 H -5.12 -1.02  1.80
 H -4.26 -2.42  2.38
 H -4.60 -1.49 -0.51
 H -4.95 -3.04  0.21
 H -2.73 -3.70 -0.06
 H -0.15 -2.14 -1.66
 H -0.54 -3.34 -0.50
 H -3.25 -0.69 -1.68
 N -4.51  2.02  1.26
 C -5.31  1.34  0.24
 H -4.91  2.87  1.65
 H -4.69  0.64 -0.32
 H -5.70  2.09 -0.45
 H -6.15  0.81  0.70
Ca -0.88  3.55  3.05
