36
#
 C -1.68  0.14  0.52
 C -0.80  0.37  1.71
 O  0.46  0.20  1.60
 H -2.74  0.35  0.71
 H -1.58 -0.91  0.21
 H -1.33  0.75 -0.32
 N -1.37  0.75  2.86
 C -0.79  0.90  4.21
 C  0.17  2.09  4.33
 O  1.27  2.12  3.65
 H -2.38  0.88  2.81
 H -1.66  1.17  4.83
 C -0.19 -0.42  4.77
 C -1.24 -1.44  5.25
 C -1.72 -1.30  6.71
 N -2.38 -0.04  7.04
 C -1.72  1.14  7.27
 N -0.45  1.04  7.81
 N -2.14  2.34  6.93
 H  0.49 -0.15  5.60
 H  0.43 -0.88  3.99
 H -0.81 -2.45  5.16
 H -2.11 -1.44  4.57
 H -0.88 -1.47  7.40
 H -2.43 -2.11  6.92
 H -3.32  0.07  6.68
 H -0.14  1.92  8.23
 H -0.28  0.25  8.42
 H -3.08  2.33  6.54
 N -0.14  3.03  5.19
 C  0.71  4.18  5.47
 H -1.00  2.88  5.84
 H  0.23  4.77  6.25
 H  0.84  4.79  4.57
 H  1.70  3.86  5.81
Ca  2.29  1.10  2.15
