36
#
 C  1.03 -3.20  0.38
 C  0.15 -3.24  1.60
 O -0.45 -4.27  1.95
 H  1.94 -3.77  0.60
 H  1.31 -2.19  0.07
 H  0.52 -3.71 -0.44
 N  0.05 -2.07  2.32
 C -0.36 -2.00  3.74
 C -1.86 -2.26  3.98
 O -2.50 -1.59  4.87
 H  0.65 -1.32  2.02
 H  0.13 -2.84  4.27
 C  0.18 -0.71  4.38
 C -0.04  0.65  3.68
 C -1.43  1.27  3.66
 N -2.33  0.68  2.66
 C -3.68  0.86  2.64
 N -4.27  0.96  1.43
 N -4.37  0.87  3.79
 H  1.26 -0.85  4.48
 H -0.20 -0.66  5.41
 H  0.36  0.64  2.65
 H  0.61  1.37  4.20
 H -1.33  2.35  3.46
 H -1.89  1.19  4.65
 H -1.90  0.55  1.74
 H -3.75  1.21  0.60
 H -5.28  0.91  1.34
 H -5.31  1.25  3.63
 N -2.42 -3.26  3.34
 C -3.79 -3.69  3.54
 H -1.74 -3.82  2.74
 H -4.50 -2.89  3.29
 H -3.96 -4.02  4.58
 H -3.99 -4.54  2.88
Ca -3.90 -0.28  5.66
