36
#
 C  2.32 -0.92  0.91
 C  1.15 -1.34  1.73
 O  1.26 -2.35  2.51
 H  2.10 -0.05  0.28
 H  2.64 -1.76  0.28
 H  3.16 -0.68  1.58
 N  0.02 -0.66  1.62
 C -1.31 -0.95  2.19
 C -1.33 -0.86  3.72
 O -0.82 -1.75  4.47
 H -0.05  0.05  0.83
 H -1.92 -0.12  1.82
 C -1.98 -2.26  1.67
 C -3.41 -2.01  1.13
 C -3.51 -1.73 -0.40
 N -2.39 -0.99 -1.00
 C -1.93  0.24 -0.62
 N -2.83  1.04  0.08
 N -0.71  0.67 -0.76
 H -2.03 -3.00  2.48
 H -1.34 -2.70  0.89
 H -3.86 -1.18  1.69
 H -4.04 -2.88  1.33
 H -4.47 -1.24 -0.61
 H -3.54 -2.69 -0.94
 H -1.74 -1.54 -1.54
 H -2.54  2.01  0.06
 H -3.81  0.93 -0.18
 H -0.15  0.02 -1.33
 N -1.96  0.19  4.24
 C -2.13  0.46  5.66
 H -2.33  0.87  3.58
 H -1.97 -0.46  6.23
 H -1.42  1.23  5.99
 H -3.15  0.82  5.83
Ca  0.68 -3.24  4.30
