36
#
 C -0.21 -0.76  0.24
 C  0.07 -0.68  1.70
 O  1.18 -1.11  2.17
 H  0.55 -1.36 -0.26
 H -0.19  0.25 -0.20
 H -1.21 -1.18  0.02
 N -0.84 -0.14  2.55
 C -2.27 -0.50  2.52
 C -2.42 -2.05  2.46
 O -1.33 -2.75  2.73
 H -0.46 -0.03  3.49
 H -2.63 -0.22  3.52
 C -3.10  0.31  1.48
 C -4.00  1.38  2.12
 C -5.30  0.86  2.74
 N -6.33  0.57  1.74
 C -6.89 -0.63  1.47
 N -8.08 -0.65  0.85
 N -6.28 -1.76  1.80
 H -3.70 -0.39  0.87
 H -2.41  0.80  0.79
 H -4.25  2.14  1.36
 H -3.44  1.92  2.90
 H -5.71  1.62  3.42
 H -5.14 -0.04  3.34
 H -6.77  1.37  1.30
 H -8.43 -1.50  0.42
 H -8.69  0.15  0.84
 H -6.81 -2.63  1.76
 N -3.59 -2.52  2.23
 C -3.80 -3.97  2.27
 H -5.25 -1.85  1.98
 H -4.33 -4.28  1.35
 H -4.45 -4.22  3.12
 H -2.88 -4.55  2.35
Ca  0.68 -3.05  3.03
