36
#
 C -2.60  1.94  1.95
 C -3.08  0.68  2.57
 O -3.32  0.65  3.83
 H -2.86  2.78  2.61
 H -3.04  2.11  0.95
 H -1.51  1.93  1.83
 N -3.27 -0.45  1.86
 C -2.32 -1.03  0.90
 C -1.07 -1.42  1.68
 O -0.88 -1.02  2.89
 H -3.80 -1.16  2.37
 H -2.81 -2.01  0.58
 C -2.06 -0.23 -0.38
 C -3.32  0.08 -1.21
 C -4.03 -1.12 -1.86
 N -5.09 -1.75 -1.08
 C -4.96 -2.96 -0.44
 N -6.15 -3.61 -0.23
 N -3.79 -3.36 -0.04
 H -1.38 -0.81 -1.01
 H -1.52  0.71 -0.16
 H -3.00  0.76 -2.02
 H -4.06  0.65 -0.62
 H -3.30 -1.90 -2.14
 H -4.49 -0.78 -2.80
 H -6.03 -1.43 -1.26
 H -6.11 -4.51  0.24
 H -6.90 -3.52 -0.90
 H -3.82 -4.33  0.30
 N -0.18 -2.25  1.15
 C -0.25 -2.97 -0.12
 H  0.64 -2.43  1.73
 H  0.21 -3.96  0.02
 H  0.31 -2.44 -0.90
 H -1.29 -3.11 -0.43
Ca -1.65 -0.34  4.75
