36
#
 C  0.35 -0.28  0.28
 C  0.10 -0.16  1.76
 O  0.98  0.57  2.41
 H -0.53 -0.62 -0.26
 H  1.18 -0.98  0.09
 H  0.66  0.70 -0.11
 N -0.93 -0.76  2.30
 C -1.21 -0.48  3.72
 C -0.34 -1.38  4.61
 O  0.86 -1.05  4.87
 H -1.81 -1.99  1.13
 H -0.85  0.53  3.96
 C -2.74 -0.48  4.03
 C -3.67 -1.02  2.94
 C -3.65 -2.55  2.80
 N -4.18 -3.03  1.53
 C -3.44 -3.12  0.41
 N -3.95 -3.71 -0.68
 N -2.19 -2.65  0.40
 H -3.02  0.57  4.20
 H -2.95 -0.97  5.00
 H -3.41 -0.55  1.99
 H -4.70 -0.70  3.17
 H -4.23 -3.03  3.60
 H -2.62 -2.94  2.88
 H -5.17 -3.20  1.45
 H -3.51 -3.62 -1.59
 H -4.81 -4.25 -0.64
 H -1.58 -2.89 -0.37
 N -0.82 -2.51  5.11
 C -0.05 -3.44  5.94
 H -1.80 -2.73  4.94
 H -0.70 -4.27  6.23
 H  0.31 -2.93  6.84
 H  0.81 -3.83  5.38
Ca  2.15  0.49  4.08
