36
#
 C -1.44  2.58  0.17
 C -0.57  2.04  1.27
 O  0.54  2.54  1.53
 H -1.83  3.56  0.48
 H -2.29  1.93 -0.07
 H -0.84  2.74 -0.73
 N -1.05  0.97  1.97
 C -0.55  0.54  3.28
 C  0.86 -0.12  3.25
 O  1.14 -1.11  4.03
 H -1.96  0.61  1.70
 H -0.39  1.45  3.90
 C -1.60 -0.33  3.99
 C -2.13 -1.53  3.18
 C -2.63 -2.68  4.06
 N -1.48 -3.35  4.68
 C -1.23 -3.57  6.00
 N -2.27 -3.63  6.85
 N  0.05 -3.67  6.38
 H -2.43  0.32  4.28
 H -1.15 -0.69  4.93
 H -1.37 -1.92  2.49
 H -2.97 -1.22  2.54
 H -3.20 -3.40  3.47
 H -3.28 -2.30  4.85
 H -0.76 -3.66  4.05
 H -2.11 -3.66  7.85
 H -3.20 -3.85  6.53
 H  0.13 -4.17  7.27
 N  1.76  0.43  2.47
 C  3.14 -0.01  2.37
 H  1.43  1.33  2.01
 H  3.19 -1.09  2.16
 H  3.70  0.21  3.29
 H  3.61  0.53  1.54
Ca  1.73 -2.44  5.53
