36
#
 C  1.71  0.35  1.26
 C  1.03  0.34  2.59
 O  1.78  0.70  3.62
 H  1.03  0.08  0.45
 H  2.56 -0.35  1.26
 H  2.13  1.35  1.07
 N -0.23 -0.01  2.68
 C -0.91  0.08  3.98
 C -0.52 -1.10  4.88
 O  0.50 -1.02  5.64
 H -1.30 -0.20  1.23
 H -0.58  0.98  4.53
 C -2.42  0.20  3.71
 C -2.76  1.50  2.95
 C -3.76  1.31  1.78
 N -3.21  1.52  0.43
 C -2.51  0.63 -0.28
 N -2.54  0.72 -1.63
 N -1.81 -0.34  0.32
 H -2.98  0.16  4.65
 H -2.74 -0.66  3.11
 H -1.84  1.95  2.53
 H -3.16  2.24  3.65
 H -4.59  2.02  1.87
 H -4.20  0.31  1.81
 H -3.53  2.35 -0.06
 H -1.84  0.26 -2.20
 H -3.28  1.22 -2.11
 H -1.47 -1.09 -0.26
 N -1.25 -2.21  4.85
 C -0.98 -3.41  5.63
 H -2.05 -2.21  4.24
 H -1.93 -3.88  5.91
 H -0.42 -3.15  6.53
 H -0.39 -4.13  5.04
Ca  2.27  0.20  5.53
