36
#
 C  0.11  0.70  1.64
 C -0.89  1.15  2.62
 O -0.64  1.06  3.87
 H  0.09  1.31  0.73
 H -0.01 -0.36  1.32
 H  1.10  0.76  2.11
 N -2.08  1.74  2.27
 C -3.16  1.16  1.45
 C -3.96  0.20  2.37
 O -3.39 -0.32  3.40
 H -2.46  2.25  3.07
 H -3.82  2.01  1.19
 C -2.75  0.42  0.17
 C -2.23  1.32 -0.97
 C -1.66  0.50 -2.15
 N -0.44 -0.23 -1.84
 C -0.37 -1.40 -1.10
 N -1.49 -2.23 -1.18
 N  0.61 -1.76 -0.33
 H -3.62 -0.13 -0.19
 H -2.02 -0.36  0.42
 H -1.46  2.01 -0.61
 H -3.06  1.95 -1.34
 H -1.43  1.19 -2.97
 H -2.42 -0.18 -2.54
 H  0.42  0.31 -1.85
 H -1.27 -3.15 -0.81
 H -1.91 -2.29 -2.10
 H  1.37 -1.08 -0.34
 N -5.21 -0.10  2.11
 C -6.07  0.37  1.01
 H -5.63 -0.77  2.75
 H -5.70  1.31  0.59
 H -7.08  0.54  1.41
 H -6.12 -0.39  0.22
Ca -1.87 -0.34  4.91
