36
#
 C -1.79 -0.12 -0.62
 C -1.23  0.27  0.72
 O  0.07  0.66  0.67
 H -1.63  0.69 -1.34
 H -2.85 -0.36 -0.58
 H -1.25 -1.00 -1.00
 N -1.81  0.30  1.86
 C -3.20 -0.08  2.07
 C -3.72  0.92  3.10
 O -2.81  1.61  3.75
 H -1.96  1.32  3.31
 H -3.82  0.02  1.16
 C -3.29 -1.54  2.63
 C -3.43 -2.66  1.58
 C -4.84 -2.97  1.06
 N -5.45 -1.93  0.23
 C -6.15 -0.86  0.73
 N -6.42  0.14 -0.16
 N -6.45 -0.68  1.99
 H -4.11 -1.60  3.35
 H -2.37 -1.70  3.21
 H -3.07 -3.59  2.05
 H -2.75 -2.49  0.73
 H -5.51 -3.23  1.90
 H -4.79 -3.87  0.44
 H -5.60 -2.16 -0.75
 H -7.21  0.73  0.08
 H -6.28 -0.01 -1.15
 H -6.35 -1.54  2.53
 N -4.98  1.08  3.33
 C -5.51  2.00  4.34
 H -5.69  0.44  2.77
 H -6.60  1.98  4.28
 H -5.15  3.02  4.16
 H -5.20  1.70  5.35
Ca  1.93  1.18  0.76
