36
#
 C  0.43  0.93  0.92
 C -0.02 -0.40  1.41
 O  0.82 -1.37  1.50
 H  1.27  1.29  1.53
 H -0.37  1.68  0.93
 H  0.80  0.82 -0.11
 N -1.27 -0.57  1.77
 C -1.97 -1.81  2.08
 C -3.43 -1.49  1.59
 O -3.74 -0.30  1.45
 H -1.99  0.18  1.61
 H -1.53 -2.63  1.49
 C -2.01 -2.18  3.58
 C -0.70 -2.60  4.27
 C  0.17 -1.44  4.81
 N  1.13 -1.86  5.82
 C  2.42 -2.21  5.62
 N  3.19 -2.34  6.72
 N  2.91 -2.41  4.39
 H -2.72 -3.01  3.68
 H -2.47 -1.34  4.13
 H -0.12 -3.27  3.61
 H -0.97 -3.23  5.13
 H -0.49 -0.70  5.29
 H  0.70 -0.90  4.03
 H  0.80 -1.87  6.78
 H  4.12 -2.75  6.66
 H  2.88 -2.05  7.64
 H  3.93 -2.49  4.45
 N -4.25 -2.53  1.39
 C -5.65 -2.39  0.98
 H -3.88 -3.47  1.50
 H -6.31 -2.84  1.73
 H -5.81 -2.87  0.01
 H -5.87 -1.32  0.90
Ca  2.22 -2.71  2.27
