36
#
 C -0.48  2.26  0.10
 C -0.64  2.07  1.58
 O -0.44  3.16  2.31
 H -1.22  3.00 -0.24
 H -0.63  1.33 -0.47
 H  0.51  2.67 -0.15
 N -0.93  0.89  2.04
 C -1.30  0.67  3.44
 C -0.37  1.18  4.54
 O  0.84  1.56  4.33
 H -1.16 -0.52  0.68
 H -2.26  1.18  3.62
 C -1.52 -0.86  3.65
 C -2.88 -1.33  3.08
 C -2.97 -2.79  2.62
 N -1.87 -3.27  1.75
 C -1.15 -2.54  0.90
 N  0.10 -2.91  0.57
 N -1.63 -1.40  0.35
 H -1.46 -1.14  4.71
 H -0.68 -1.36  3.16
 H -3.18 -0.65  2.27
 H -3.66 -1.21  3.84
 H -3.93 -2.96  2.12
 H -2.94 -3.46  3.49
 H -1.58 -4.24  1.90
 H  0.50 -2.56 -0.29
 H  0.58 -3.66  1.05
 H -2.64 -1.30  0.38
 N -0.83  1.24  5.80
 C -2.15  0.92  6.32
 H -0.12  1.51  6.48
 H -2.93  1.11  5.58
 H -2.34  1.55  7.19
 H -2.21 -0.13  6.64
Ca  1.29  3.42  3.37
