36
#
 C -0.92  3.55  1.26
 C -0.71  2.20  1.07
 O  0.50  1.69  1.00
 H -1.91  3.97  1.41
 H -1.90  1.99 -2.44
 H -0.13  4.24  0.96
 N -1.74  1.22  1.16
 C -2.83  1.39  2.11
 C -2.30  1.68  3.54
 O -1.07  1.54  3.82
 H -1.27  0.32  1.29
 H -3.43  2.26  1.81
 C -3.74  0.14  2.08
 C -4.72  0.05  0.89
 C -4.21 -0.57 -0.42
 N -3.25  0.28 -1.13
 C -3.01  0.26 -2.44
 N -3.59 -0.65 -3.24
 N -2.19  1.18 -2.98
 H -4.35  0.13  2.99
 H -3.11 -0.76  2.14
 H -5.15  1.04  0.68
 H -5.56 -0.59  1.20
 H -5.08 -0.72 -1.08
 H -3.77 -1.56 -0.23
 H -2.59  0.79 -0.51
 H -3.56 -0.55 -4.25
 H -4.05 -1.47 -2.87
 H -1.84  1.09 -3.92
 N -3.14  2.09  4.49
 C -4.57  2.37  4.40
 H -2.71  2.21  5.40
 H -4.80  3.22  5.05
 H -5.16  1.51  4.74
 H -4.86  2.63  3.38
Ca  0.80  2.41  2.98
