36
#
 C -0.89 -0.55 -0.49
 C -0.83 -0.45  1.00
 O  0.30 -0.52  1.59
 H -0.30  0.27 -0.92
 H -1.91 -0.51 -0.89
 H -0.41 -1.48 -0.82
 N -1.96 -0.27  1.67
 C -2.12  0.00  3.12
 C -2.00 -1.30  3.94
 O -0.77 -1.76  4.07
 H -2.82 -0.25  1.12
 H -1.28  0.65  3.41
 C -3.44  0.75  3.31
 C -3.64  1.30  4.73
 C -5.13  1.62  5.04
 N -5.73  0.82  6.11
 C -6.22 -0.43  5.98
 N -7.20 -0.83  6.82
 N -5.77 -1.25  5.02
 H -4.27  0.06  3.05
 H -3.49  1.58  2.59
 H -3.04  2.21  4.86
 H -3.28  0.59  5.48
 H -5.74  1.49  4.13
 H -5.24  2.66  5.35
 H -5.94  1.30  6.98
 H -7.41 -1.81  6.94
 H -7.76 -0.16  7.33
 H -6.31 -2.09  4.84
 N -3.06 -1.83  4.45
 C -2.88 -3.07  5.21
 H -4.76 -1.28  4.72
 H -3.80 -3.28  5.77
 H -2.04 -3.01  5.91
 H -2.69 -3.92  4.53
Ca  1.10 -1.58  3.27
