36
#
 C -2.06  0.87  0.84
 C -2.59  0.13  2.02
 O -2.73  0.70  3.14
 H -2.89  0.99  0.12
 H -1.24  0.33  0.34
 H -1.73  1.86  1.15
 N -2.81 -1.25  2.08
 C -2.17 -2.24  1.19
 C -0.67 -2.25  1.59
 O -0.35 -1.80  2.74
 H -3.81 -1.46  2.35
 H -2.53 -3.22  1.57
 C -2.53 -2.17 -0.32
 C -3.67 -3.10 -0.77
 C -5.03 -2.88 -0.08
 N -5.44 -1.48 -0.07
 C -5.52 -0.65  1.02
 N -5.65 -1.30  2.28
 N -5.34  0.62  0.87
 H -1.65 -2.40 -0.94
 H -2.79 -1.14 -0.57
 H -3.39 -4.16 -0.63
 H -3.79 -2.96 -1.85
 H -5.01 -3.25  0.95
 H -5.79 -3.48 -0.60
 H -5.46 -0.98 -0.95
 H -5.99 -0.65  2.98
 H -6.27 -2.12  2.26
 H -5.60  1.17  1.69
 N  0.22 -2.79  0.78
 C  1.64 -2.97  1.08
 H -0.11 -3.14 -0.11
 H  1.88 -4.04  1.14
 H  1.87 -2.49  2.04
 H  2.24 -2.52  0.28
Ca -1.61 -0.85  4.24
