36
#
 C -0.02  0.73  0.18
 C -0.02  0.40  1.63
 O  1.06  0.47  2.31
 H  0.29  1.78  0.07
 H -0.99  0.59 -0.30
 H  0.74  0.12 -0.34
 N -1.17  0.04  2.21
 C -1.42 -0.13  3.65
 C -0.88 -1.51  4.13
 O  0.38 -1.56  4.32
 H -2.00  0.02  1.62
 H -0.75  0.57  4.17
 C -2.87  0.30  4.00
 C -3.95  0.01  2.95
 C -5.36  0.08  3.56
 N -6.36 -0.19  2.53
 C -7.73 -0.09  2.88
 N -8.08  1.16  3.37
 N -8.45 -1.14  2.74
 H -2.83  1.38  4.18
 H -3.13 -0.15  4.97
 H -3.82 -0.98  2.49
 H -3.91  0.75  2.13
 H -5.54  1.08  3.98
 H -5.43 -0.63  4.41
 H -6.25 -1.13  2.14
 H -7.66  1.96  2.89
 H -9.07  1.29  3.56
 H -9.45 -0.96  2.88
 N -1.59 -2.60  4.37
 C -3.02 -2.92  4.23
 H -1.00 -3.37  4.69
 H -3.17 -3.91  4.66
 H -3.31 -2.95  3.18
 H -3.64 -2.21  4.78
Ca  2.17 -0.54  3.80
