36
#
 C -1.19  0.64 -0.66
 C -1.14  0.86  0.82
 O -0.31  0.08  1.49
 H -1.90  1.30 -1.15
 H -1.45 -0.41 -0.87
 H -0.19  0.80 -1.10
 N -1.90  1.77  1.35
 C -1.98  1.99  2.80
 C -0.64  2.48  3.37
 O  0.23  1.67  3.85
 H -3.39  2.50  0.80
 H -2.66  2.85  2.91
 C -2.60  0.85  3.64
 C -3.53 -0.16  2.94
 C -4.58  0.34  1.93
 N -5.31  1.55  2.30
 C -5.35  2.68  1.56
 N -6.39  3.51  1.69
 N -4.34  2.98  0.73
 H -3.14  1.32  4.47
 H -1.81  0.26  4.13
 H -4.04 -0.72  3.73
 H -2.93 -0.90  2.39
 H -5.31 -0.46  1.77
 H -4.12  0.53  0.96
 H -6.04  1.46  3.01
 H -6.37  4.45  1.30
 H -7.28  3.19  2.06
 H -4.48  3.70  0.03
 N -0.36  3.77  3.35
 C -1.18  4.87  2.83
 H  0.54  4.02  3.75
 H -1.61  4.60  1.86
 H -0.54  5.74  2.69
 H -1.98  5.14  3.54
Ca  0.94 -0.19  3.07
