36
#
 C -0.10 -0.93  0.79
 C -0.11 -0.47  2.20
 O  0.89 -0.69  2.97
 H  0.54 -0.27  0.17
 H -1.10 -0.96  0.34
 H  0.36 -1.92  0.75
 N -1.16  0.22  2.69
 C -1.77  1.34  1.97
 C -0.66  2.41  1.75
 O  0.45  2.32  2.41
 H -1.13  0.35  3.71
 H -2.10  1.00  0.97
 C -3.02  1.83  2.74
 C -4.26  0.95  2.45
 C -5.44  1.66  1.71
 N -5.05  2.76  0.82
 C -4.03  2.70 -0.08
 N -3.75  1.46 -0.62
 N -3.23  3.69 -0.40
 H -3.21  2.87  2.46
 H -2.79  1.85  3.81
 H -4.67  0.55  3.39
 H -3.95  0.07  1.88
 H -6.13  2.10  2.44
 H -6.03  0.90  1.17
 H -5.24  3.69  1.18
 H -3.25  1.53 -1.50
 H -4.54  0.82 -0.68
 H -3.53  4.57  0.04
 N -0.87  3.34  0.86
 C  0.10  4.40  0.56
 H -1.81  3.40  0.30
 H -0.34  5.04 -0.22
 H  1.04  3.97  0.18
 H  0.31  5.00  1.45
Ca  1.90  1.17  3.41
