36
#
 C -2.18  1.80  0.18
 C -0.99  0.91  0.26
 O  0.18  1.39  0.37
 H -2.42  2.20  1.18
 H -3.07  1.30 -0.22
 H -1.93  2.66 -0.45
 N -1.14 -0.45  0.23
 C -2.16 -1.14  1.01
 C -2.10 -0.59  2.46
 O -1.01 -0.11  2.90
 H -0.27 -0.96  0.09
 H -3.15 -0.96  0.57
 C -1.89 -2.68  1.08
 C -1.26 -3.37 -0.15
 C  0.24 -3.73 -0.03
 N  1.16 -2.58 -0.07
 C  1.75 -1.92  0.95
 N  1.41 -2.24  2.28
 N  2.51 -0.85  0.86
 H -2.87 -3.15  1.29
 H -1.29 -2.89  1.98
 H -1.43 -2.79 -1.07
 H -1.78 -4.32 -0.31
 H  0.52 -4.39 -0.86
 H  0.43 -4.32  0.89
 H  1.43 -2.27 -1.00
 H  2.25 -2.36  2.85
 H  0.77 -3.01  2.42
 H  2.85 -0.64 -0.08
 N -3.21 -0.67  3.19
 C -3.33 -0.27  4.59
 H -4.04 -1.04  2.74
 H -3.61 -1.14  5.20
 H -4.11  0.50  4.69
 H -2.38  0.13  4.94
Ca  1.09  0.45  2.21
