36
#
 C -0.83 -0.73  1.57
 C -1.50 -0.40  2.87
 O -1.07 -0.96  3.96
 H -0.00 -0.03  1.38
 H -1.51 -0.68  0.71
 H -0.39 -1.73  1.64
 N -2.50  0.49  3.04
 C -2.71  1.57  2.09
 C -1.92  2.78  2.64
 O -1.49  2.75  3.83
 H -3.79 -1.50  2.91
 H -2.33  1.33  1.09
 C -4.22  1.91  1.96
 C -5.06  0.71  1.50
 C -5.77  0.01  2.67
 N -6.28 -1.33  2.35
 C -5.56 -2.45  2.47
 N -6.14 -3.64  2.24
 N -4.27 -2.40  2.83
 H -4.33  2.74  1.24
 H -4.58  2.30  2.92
 H -4.42 -0.02  0.97
 H -5.81  1.03  0.76
 H -6.64  0.61  3.00
 H -5.11 -0.08  3.54
 H -7.20 -1.40  1.93
 H -5.60 -4.49  2.19
 H -7.14 -3.73  2.12
 H -3.77 -3.23  3.10
 N -1.69  3.85  1.89
 C -2.04  4.10  0.49
 H -1.19  4.60  2.38
 H -2.19  3.16 -0.05
 H -1.22  4.65  0.01
 H -2.95  4.71  0.42
Ca -1.49  0.91  5.07
