36
#
 C -0.75  0.94 -0.53
 C -0.16  0.30  0.66
 O  1.11  0.33  0.83
 H -0.05  1.70 -0.89
 H -1.72  1.39 -0.30
 H -0.93  0.25 -1.38
 N -0.90 -0.29  1.65
 C -1.84 -1.41  1.51
 C -0.99 -2.71  1.37
 O  0.23 -2.66  1.00
 H -0.33 -0.39  2.49
 H -2.38 -1.47  2.47
 C -2.87 -1.33  0.37
 C -3.94 -0.24  0.52
 C -4.81 -0.08 -0.75
 N -4.09  0.44 -1.91
 C -3.21 -0.28 -2.70
 N -3.47 -1.65 -2.79
 N -2.16  0.19 -3.30
 H -3.37 -2.30  0.31
 H -2.34 -1.24 -0.59
 H -3.48  0.73  0.76
 H -4.59 -0.48  1.37
 H -5.63  0.62 -0.53
 H -5.29 -1.04 -0.99
 H -3.95  1.44 -1.93
 H -2.93 -2.05 -3.55
 H -4.45 -1.89 -2.86
 H -2.06  1.20 -3.15
 N -1.57 -3.86  1.64
 C -0.92 -5.18  1.52
 H -2.54 -3.85  1.95
 H -0.53 -5.31  0.50
 H -1.66 -5.95  1.72
 H -0.10 -5.27  2.24
Ca  2.06 -1.57  0.68
