36
#
 C -0.32 -1.18  0.31
 C -0.41 -0.80  1.75
 O  0.62 -0.39  2.38
 H  0.03 -0.30 -0.26
 H -1.26 -1.53 -0.11
 H  0.45 -1.95  0.18
 N -1.59 -0.90  2.37
 C -1.83 -0.43  3.75
 C -1.10 -1.33  4.76
 O  0.01 -0.90  5.24
 H -2.40 -1.18  1.83
 H -1.30  0.53  3.84
 C -3.33 -0.15  4.06
 C -4.37 -0.48  2.98
 C -5.81 -0.16  3.46
 N -6.21 -0.87  4.67
 C -6.36 -2.26  4.70
 N -7.17 -2.76  3.71
 N -5.71 -2.92  5.61
 H -3.41  0.92  4.29
 H -3.60 -0.68  4.98
 H -4.35 -1.55  2.71
 H -4.19  0.10  2.06
 H -6.51 -0.38  2.65
 H -5.90  0.92  3.66
 H -5.79 -0.54  5.53
 H -7.37 -3.76  3.75
 H -7.98 -2.20  3.44
 H -6.04 -3.88  5.69
 N -1.57 -2.50  5.15
 C -2.75 -3.24  4.71
 H -1.00 -2.95  5.88
 H -2.55 -4.31  4.87
 H -2.92 -3.09  3.64
 H -3.67 -2.97  5.27
Ca  1.68 -0.12  4.20
