36
#
 C -0.44  0.25 -0.30
 C -0.25  0.84  1.06
 O  0.55  1.82  1.23
 H -0.83  1.04 -0.96
 H -1.12 -0.60 -0.31
 H  0.53 -0.06 -0.71
 N -0.94  0.33  2.08
 C -1.03  0.83  3.47
 C  0.20  0.38  4.29
 O  1.32  1.01  3.97
 H -1.54 -0.47  1.86
 H -0.98  1.93  3.40
 C -2.38  0.41  4.04
 C -2.68  1.02  5.41
 C -3.91  0.43  6.11
 N -4.01 -1.04  6.17
 C -3.19 -1.89  6.83
 N -3.73 -3.00  7.37
 N -1.88 -1.67  6.92
 H -2.41 -0.69  4.10
 H -3.17  0.71  3.33
 H -2.86  2.10  5.32
 H -1.80  0.92  6.07
 H -4.82  0.74  5.58
 H -3.98  0.84  7.13
 H -4.93 -1.41  5.97
 H -3.15 -3.79  7.64
 H -4.72 -3.05  7.60
 H -1.35 -2.25  7.56
 N  0.07 -0.52  5.19
 C  1.25 -0.95  5.94
 H -1.32 -1.15  6.19
 H  1.24 -2.04  6.01
 H  2.19 -0.63  5.49
 H  1.20 -0.55  6.96
Ca  2.15  2.26  2.58
