36
#
 C  0.44  1.19  0.22
 C -0.06  0.22  1.24
 O  0.73 -0.18  2.19
 H  0.77  2.11  0.72
 H -0.32  1.45 -0.52
 H  1.31  0.76 -0.31
 N -1.30 -0.21  1.14
 C -2.03 -1.19  1.94
 C -3.19 -1.57  0.97
 O -3.40 -0.80  0.02
 H -1.92  0.07  0.34
 H -1.37 -2.05  2.15
 C -2.57 -0.58  3.28
 C -2.40 -1.48  4.53
 C -1.58 -0.83  5.65
 N -0.22 -0.55  5.18
 C  0.86 -0.27  5.93
 N  0.73 -0.21  7.27
 N  2.04 -0.07  5.31
 H -3.62 -0.32  3.14
 H -2.06  0.38  3.43
 H -1.92 -2.43  4.27
 H -3.38 -1.73  4.95
 H -1.53 -1.53  6.50
 H -2.07  0.10  6.00
 H -0.11 -0.41  4.18
 H  1.53 -0.09  7.87
 H -0.18 -0.28  7.72
 H  2.75  0.21  5.99
 N -3.93 -2.66  1.21
 C -3.80 -3.66  2.26
 H -4.70 -2.77  0.55
 H -2.75 -3.83  2.51
 H -4.20 -4.61  1.89
 H -4.35 -3.38  3.16
Ca  2.61 -0.26  3.17
