36
#
 C -0.15  0.64 -0.02
 C -0.25  0.92  1.45
 O  0.82  1.03  2.14
 H -1.13  0.61 -0.50
 H  0.36 -0.32 -0.16
 H  0.47  1.41 -0.49
 N -1.46  1.03  1.98
 C -1.86  1.14  3.39
 C -1.43  2.49  4.01
 O -0.21  2.74  4.28
 H -2.29  0.82  1.33
 H -2.95  1.15  3.34
 C -1.43 -0.03  4.31
 C -1.64 -1.47  3.78
 C -3.08 -2.01  3.64
 N -3.92 -1.31  2.67
 C -3.52 -1.02  1.38
 N -2.66 -1.92  0.80
 N -3.79  0.08  0.72
 H -1.97  0.10  5.26
 H -0.37  0.07  4.56
 H -1.12 -2.14  4.49
 H -1.11 -1.59  2.83
 H -3.60 -1.95  4.60
 H -3.01 -3.08  3.40
 H -4.63 -0.69  3.04
 H -2.73 -2.88  1.10
 H -2.60 -1.81 -0.21
 H -4.48  0.66  1.21
 N -2.39  3.36  4.28
 C -2.19  4.67  4.90
 H -3.34  3.11  4.02
 H -3.01  4.86  5.61
 H -2.20  5.46  4.13
 H -1.24  4.68  5.43
Ca  1.72  2.07  3.70
