36
#
 C  0.54  0.73  1.00
 C -0.13 -0.28  1.87
 O  0.55 -1.15  2.51
 H  0.78  1.62  1.60
 H -0.08  1.04  0.16
 H  1.48  0.31  0.63
 N -1.46 -0.31  2.00
 C -2.45  0.69  1.64
 C -2.14  2.05  2.34
 O -1.48  2.11  3.40
 H -1.80 -1.08  2.58
 H -2.40  0.87  0.56
 C -3.89  0.16  1.95
 C -4.11 -0.86  3.09
 C -4.04 -0.39  4.55
 N -2.74  0.12  4.99
 C -1.63 -0.58  5.18
 N -0.40  0.17  5.27
 N -1.44 -1.88  5.22
 H -4.25 -0.33  1.03
 H -4.55  1.03  2.10
 H -3.49 -1.76  2.94
 H -5.14 -1.24  2.95
 H -4.34 -1.22  5.21
 H -4.77  0.41  4.73
 H -2.60  1.13  4.88
 H -0.48  1.03  4.69
 H -0.21  0.46  6.24
 H -2.29 -2.44  5.23
 N -2.64  3.12  1.72
 C -2.53  4.49  2.22
 H -3.14  2.99  0.85
 H -2.11  5.14  1.44
 H -1.87  4.50  3.09
 H -3.52  4.88  2.50
Ca  0.75 -1.88  4.52
