36
#
 C  0.35 -1.73  0.38
 C  0.06 -0.95  1.62
 O  0.85 -0.02  1.99
 H  0.42 -1.04 -0.47
 H -0.41 -2.49  0.16
 H  1.33 -2.22  0.47
 N -1.03 -1.24  2.32
 C -1.46 -0.48  3.50
 C -0.49 -0.76  4.68
 O  0.42  0.12  4.92
 H -1.64 -2.01  2.00
 H -1.29  0.58  3.25
 C -2.97 -0.64  3.84
 C -3.91 -1.08  2.70
 C -4.21 -2.58  2.55
 N -3.05 -3.43  2.19
 C -2.24 -4.01  3.17
 N -1.18 -4.73  2.69
 N -2.32 -3.79  4.45
 H -3.29  0.34  4.21
 H -3.08 -1.32  4.70
 H -3.57 -0.67  1.73
 H -4.88 -0.60  2.88
 H -4.94 -2.71  1.75
 H -4.69 -2.97  3.47
 H -3.20 -4.00  1.37
 H -0.77 -5.39  3.34
 H -1.19 -5.04  1.72
 H -3.23 -3.39  4.70
 N -0.58 -1.88  5.36
 C  0.30 -2.22  6.47
 H -1.27 -2.64  5.04
 H -0.11 -3.09  6.98
 H  0.38 -1.38  7.17
 H  1.31 -2.47  6.10
Ca  1.70  1.09  3.57
