36
#
 C  0.11 -0.11  0.38
 C  0.19  0.15  1.72
 O  1.07  0.91  2.33
 H  0.76  0.44 -0.30
 H -0.71 -0.68 -0.04
 H  1.10 -2.00  0.09
 N -0.80 -0.33  2.69
 C -2.21 -0.57  2.33
 C -3.04  0.43  3.19
 O -2.46  1.44  3.67
 H -0.41 -1.07  3.28
 H -2.34 -0.21  1.30
 C -2.63 -2.05  2.39
 C -1.98 -2.96  1.33
 C -0.56 -3.45  1.67
 N -0.01 -4.32  0.62
 C  1.05 -4.07 -0.16
 N  1.58 -5.07 -0.88
 N  1.58 -2.85 -0.24
 H -3.72 -2.12  2.23
 H -2.46 -2.44  3.41
 H -1.98 -2.47  0.35
 H -2.62 -3.85  1.22
 H -0.57 -4.02  2.61
 H  0.14 -2.62  1.80
 H -0.45 -5.23  0.50
 H  2.23 -4.89 -1.63
 H  1.36 -6.04 -0.68
 H  2.47 -2.71 -0.70
 N -4.35  0.24  3.32
 C -5.27  1.15  4.01
 H -4.75 -0.60  2.91
 H -5.75  0.63  4.84
 H -6.04  1.49  3.30
 H -4.70  2.00  4.38
Ca -0.27  1.84  3.70
