36
#
 C  1.67  2.98  1.25
 C  1.47  1.51  1.38
 O  2.43  0.71  1.07
 H  1.03  3.59  1.90
 H  1.48  3.29  0.21
 H  2.73  3.18  1.44
 N  0.32  0.94  1.81
 C -1.03  1.27  1.34
 C -1.16  0.73 -0.11
 O -0.14  0.24 -0.72
 H  0.44 -0.04  2.04
 H -1.71  0.68  1.97
 C -1.41  2.76  1.48
 C -2.90  3.09  1.59
 C -3.10  4.44  2.31
 N -2.43  5.57  1.67
 C -1.23  6.09  2.16
 N -1.05  7.42  1.86
 N -0.38  5.31  2.76
 H -0.97  3.35  0.66
 H -0.93  3.13  2.40
 H -3.43  2.33  2.19
 H -3.39  3.13  0.61
 H -2.72  4.35  3.33
 H -4.17  4.66  2.36
 H -3.00  6.20  1.14
 H -0.19  7.85  2.18
 H -1.85  8.04  1.88
 H  0.36  5.86  3.19
 N -2.34  0.77 -0.69
 C -2.62  0.31 -2.05
 H -3.10  1.19 -0.16
 H -3.70  0.42 -2.23
 H -2.35 -0.75 -2.16
 H -2.07  0.91 -2.79
Ca  1.92 -0.36 -0.71
