36
#
 C  0.29 -0.43  0.33
 C -0.38 -0.30  1.67
 O -0.04 -1.08  2.61
 H -0.04  0.31 -0.40
 H  0.09 -1.44 -0.06
 H  1.38 -0.36  0.46
 N -1.32  0.64  1.80
 C -2.26  0.95  2.90
 C -1.67  1.42  4.24
 O -0.95  0.52  4.90
 H -1.47  1.20  0.97
 H -2.84  1.79  2.50
 C -3.29 -0.19  3.16
 C -4.40  0.26  4.13
 C -4.11 -0.02  5.62
 N -4.94  0.77  6.52
 C -4.51  1.71  7.39
 N -5.35  2.11  8.36
 N -3.28  2.23  7.31
 H -2.78 -1.09  3.53
 H -3.73 -0.46  2.20
 H -5.34 -0.26  3.85
 H -4.60  1.33  4.00
 H -3.07  0.18  5.87
 H -4.30 -1.08  5.84
 H -5.94  0.56  6.55
 H -5.18  2.96  8.89
 H -6.17  1.57  8.62
 H -2.96  2.81  8.08
 N -2.00  2.52  4.82
 C -2.67  3.63  4.17
 H -2.71  2.27  6.43
 H -2.12  4.55  4.40
 H -3.68  3.75  4.59
 H -2.76  3.56  3.08
Ca  0.36 -1.02  4.70
