36
#
 C  0.40  1.41  1.66
 C  0.01  0.22  2.47
 O  0.82 -0.31  3.28
 H -0.41  1.78  1.01
 H  1.27  1.16  1.05
 H  0.70  2.22  2.34
 N -1.24 -0.28  2.33
 C -1.71 -1.39  3.16
 C -1.19 -2.74  2.61
 O -0.15 -3.21  3.15
 H -1.88  0.18  1.68
 H -1.15 -1.28  4.09
 C -3.19 -1.29  3.57
 C -3.52 -2.19  4.78
 C -3.02 -1.68  6.14
 N -1.56 -1.71  6.32
 C -0.78 -2.77  6.68
 N -1.39 -3.84  7.24
 N  0.52 -2.70  6.42
 H -3.86 -1.54  2.74
 H -3.39 -0.24  3.82
 H -4.62 -2.25  4.86
 H -3.18 -3.22  4.61
 H -3.51 -2.26  6.94
 H -3.33 -0.64  6.30
 H -1.07 -0.82  6.35
 H -0.85 -4.67  7.44
 H -2.29 -3.76  7.70
 H  1.04 -3.36  7.02
 N -1.75 -3.38  1.60
 C -2.91 -3.02  0.77
 H -1.28 -4.25  1.36
 H -3.84 -3.40  1.19
 H -2.77 -3.46 -0.22
 H -2.98 -1.93  0.64
Ca  1.40 -2.17  4.36
