36
#
 C -0.40 -1.22  0.58
 C -0.44 -0.87  2.03
 O  0.62 -0.89  2.74
 H  0.58 -0.99  0.15
 H -1.20 -0.76 -0.01
 H -0.53 -2.32  0.51
 N -1.61 -0.54  2.63
 C -2.54  0.43  2.05
 C -1.79  1.78  1.90
 O -0.64  1.95  2.47
 H -1.56 -0.51  3.65
 H -2.79  0.11  1.03
 C -3.81  0.56  2.91
 C -4.86 -0.55  2.73
 C -5.80 -0.38  1.51
 N -5.19 -0.61  0.21
 C -4.42  0.27 -0.51
 N -4.67  1.66 -0.28
 N -3.47 -0.00 -1.35
 H -4.27  1.54  2.71
 H -3.50  0.60  3.97
 H -5.50 -0.55  3.62
 H -4.39 -1.54  2.69
 H -6.28  0.61  1.54
 H -6.63 -1.10  1.61
 H -5.01 -1.58 -0.02
 H -4.44  2.15 -1.15
 H -5.64  1.86 -0.03
 H -3.35 -1.01 -1.48
 N -2.38  2.69  1.17
 C -1.87  4.04  0.90
 H -3.27  2.40  0.71
 H -2.69  4.76  1.04
 H -1.52  4.10 -0.13
 H -1.05  4.28  1.59
Ca  1.14  1.14  3.28
