36
#
 C  0.50 -2.41  0.54
 C  0.19 -1.86  1.89
 O  1.11 -1.70  2.76
 H -0.38 -2.48 -0.10
 H  0.94 -3.40  0.66
 H  1.25 -1.77  0.06
 N -1.07 -1.53  2.21
 C -1.47 -1.09  3.55
 C -2.95 -1.41  3.88
 O -3.19 -1.90  4.98
 H -1.80 -1.75  1.53
 H -0.93 -1.74  4.26
 C -1.12  0.39  3.80
 C -1.42  0.89  5.22
 C -0.89  0.06  6.40
 N  0.61 -0.15  6.42
 C  1.43  1.05  6.39
 N  1.14  2.05  7.23
 N  2.39  1.00  5.52
 H -1.67  1.02  3.09
 H -0.06  0.56  3.55
 H -2.50  0.94  5.37
 H -1.06  1.93  5.30
 H -1.33 -0.94  6.39
 H -1.22  0.53  7.34
 H  0.81 -0.65  7.29
 H  1.68  2.91  7.25
 H  0.38  1.98  7.91
 H  3.01  1.81  5.49
 N -3.88 -1.10  2.95
 C -5.31 -1.34  3.18
 H -3.63 -0.51  2.16
 H -5.80 -1.51  2.21
 H -5.78 -0.49  3.68
 H -5.42 -2.23  3.81
Ca  2.06 -1.08  4.57
