36
#
 C -0.14  1.39  0.63
 C -0.76  0.05  0.85
 O -0.84 -0.82 -0.03
 H  0.94  1.25  0.45
 H -0.27  2.09  1.46
 H -0.55  1.83 -0.29
 N -1.26 -0.21  2.11
 C -1.62 -1.58  2.49
 C -3.03 -1.92  1.94
 O -4.04 -2.02  2.72
 H -1.14  0.48  2.84
 H -0.92 -2.25  1.97
 C -1.49 -1.81  4.00
 C -1.48 -3.30  4.39
 C -2.53 -3.76  5.40
 N -2.51 -3.01  6.66
 C -3.53 -2.30  7.19
 N -3.39 -1.93  8.48
 N -4.61 -1.98  6.47
 H -2.28 -1.26  4.54
 H -0.55 -1.34  4.32
 H -0.48 -3.56  4.78
 H -1.60 -3.94  3.50
 H -3.54 -3.69  4.99
 H -2.38 -4.82  5.63
 H -1.70 -3.17  7.25
 H -4.05 -1.29  8.92
 H -2.65 -2.29  9.08
 H -5.31 -1.57  7.11
 N -3.11 -2.07  0.65
 C -4.32 -2.35 -0.11
 H -2.22 -1.82  0.14
 H -4.04 -2.87 -1.04
 H -4.84 -1.42 -0.38
 H -4.99 -2.99  0.47
Ca -5.35 -1.97  4.35
