36
#
 C  0.24  1.13  0.09
 C  0.06  0.52  1.43
 O  1.07  0.24  2.16
 H -0.67  1.14 -0.51
 H  1.01  0.55 -0.44
 H  0.64  2.15  0.17
 N -1.18  0.27  1.92
 C -2.26  1.25  1.90
 C -1.81  2.46  2.74
 O -0.77  2.36  3.50
 H -1.18 -0.32  2.75
 H -2.44  1.57  0.86
 C -3.55  0.60  2.45
 C -4.07 -0.52  1.55
 C -5.38 -1.16  2.07
 N -5.89 -2.19  1.18
 C -6.29 -1.87 -0.13
 N -7.18 -0.80 -0.19
 N -5.78 -2.56 -1.09
 H -4.32  1.38  2.55
 H -3.36  0.24  3.47
 H -3.31 -1.31  1.44
 H -4.26 -0.13  0.54
 H -6.14 -0.38  2.20
 H -5.22 -1.61  3.06
 H -5.32 -3.03  1.15
 H -7.57 -0.64 -1.11
 H -7.90 -0.80  0.53
 H -6.24 -2.37 -1.99
 N -2.48  3.60  2.71
 C -3.65  3.96  1.90
 H -2.13  4.32  3.35
 H -3.52  4.99  1.54
 H -4.56  3.92  2.51
 H -3.75  3.30  1.04
Ca  1.12  1.45  3.95
