36
#
 C -0.43 -0.01 -0.56
 C -0.22 -0.04  0.92
 O  0.87 -0.44  1.39
 H -0.29 -1.03 -0.95
 H  0.34  0.61 -1.03
 H -1.42  0.35 -0.87
 N -1.25  0.38  1.69
 C -1.44  0.43  3.16
 C -0.41  1.32  3.88
 O  0.83  1.11  3.85
 H -2.07  0.67  1.16
 H -2.40  0.96  3.25
 C -1.72 -0.95  3.82
 C -0.63 -2.03  3.95
 C  0.30 -1.90  5.18
 N  1.73 -1.73  4.82
 C  2.43 -2.78  4.14
 N  2.09 -4.05  4.37
 N  3.32 -2.32  3.30
 H -2.54 -1.37  3.23
 H -2.15 -0.74  4.81
 H -0.03 -2.10  3.03
 H -1.16 -2.99  4.02
 H  0.15 -2.75  5.87
 H  0.04 -1.01  5.77
 H  2.27 -1.45  5.64
 H  2.54 -4.81  3.87
 H  1.52 -4.31  5.16
 H  3.92 -3.02  2.87
 N -0.91  2.34  4.58
 C -0.10  3.26  5.36
 H -1.91  2.50  4.55
 H -0.76  3.88  5.97
 H  0.50  3.91  4.70
 H  0.58  2.71  6.02
Ca  2.40 -0.18  2.93
