36
#
 C -1.14 -0.75 -0.10
 C -0.74 -0.27  1.26
 O  0.48 -0.08  1.54
 H -2.22 -0.87 -0.23
 H -0.65 -1.71 -0.29
 H -0.76 -0.05 -0.85
 N -1.72 -0.06  2.16
 C -1.58  0.33  3.58
 C -1.12  1.79  3.70
 O  0.07  2.13  3.44
 H -2.67 -0.23  1.84
 H -2.60  0.27  3.99
 C -0.69 -0.68  4.36
 C -0.08 -0.16  5.67
 C  0.87 -1.16  6.32
 N  1.86 -1.82  5.44
 C  3.05 -1.26  5.04
 N  4.14 -2.05  5.16
 N  3.08 -0.04  4.51
 H  0.11 -1.04  3.71
 H -1.32 -1.56  4.56
 H -0.86  0.07  6.41
 H  0.46  0.78  5.50
 H  0.29 -1.99  6.76
 H  1.39 -0.67  7.16
 H  1.90 -2.83  5.57
 H  5.01 -1.81  4.69
 H  4.17 -2.84  5.79
 H  4.05  0.31  4.56
 N -2.03  2.68  4.08
 C -1.79  4.12  4.24
 H -2.97  2.35  4.27
 H -2.28  4.67  3.44
 H -0.71  4.30  4.21
 H -2.19  4.44  5.21
Ca  1.87  1.01  2.84
