36
#
 C  0.29  0.06 -0.27
 C  0.04  0.01  1.20
 O  1.03 -0.13  1.99
 H -0.53  0.49 -0.84
 H  0.51 -0.95 -0.66
 H  1.20  0.65 -0.42
 N -1.19  0.17  1.74
 C -2.40 -0.64  1.46
 C -2.24 -1.99  2.22
 O -1.00 -2.40  2.45
 H -1.11  0.34  2.74
 H -3.23 -0.10  1.93
 C -2.73 -0.84 -0.03
 C -4.07 -1.54 -0.32
 C -5.34 -0.68 -0.30
 N -5.67  0.06  0.95
 C -6.30 -0.49  2.02
 N -7.25  0.22  2.65
 N -5.95 -1.71  2.44
 H -1.94 -1.44 -0.50
 H -2.72  0.15 -0.52
 H -4.18 -2.41  0.33
 H -4.02 -1.93 -1.34
 H -6.19 -1.32 -0.57
 H -5.27  0.10 -1.07
 H -5.87  1.04  0.82
 H -7.75  0.96  2.18
 H -7.58 -0.04  3.57
 H -6.54 -2.15  3.14
 N -3.31 -2.60  2.57
 C -3.21 -3.90  3.23
 H -4.94 -2.05  2.38
 H -4.15 -4.45  3.10
 H -3.05 -3.77  4.31
 H -2.38 -4.51  2.84
Ca  0.97 -2.09  2.94
