36
#
 C  0.57 -1.20  1.48
 C -0.22 -1.81  2.59
 O  0.37 -2.38  3.57
 H  0.83 -0.16  1.73
 H  0.02 -1.19  0.53
 H  1.51 -1.75  1.37
 N -1.56 -1.72  2.59
 C -2.27 -0.47  2.28
 C -1.76  0.63  3.26
 O -1.09  0.21  4.33
 H -2.00 -2.27  3.34
 H -2.00 -0.16  1.26
 C -3.80 -0.73  2.37
 C -4.71 -0.08  1.32
 C -4.98  1.42  1.44
 N -3.87  2.27  1.00
 C -3.80  2.94 -0.14
 N -4.69  2.78 -1.14
 N -2.79  3.81 -0.32
 H -4.15 -0.46  3.38
 H -3.94 -1.82  2.27
 H -5.68 -0.59  1.40
 H -4.33 -0.32  0.31
 H -5.19  1.68  2.48
 H -5.89  1.69  0.88
 H -3.05  2.26  1.67
 H -4.77  3.45 -1.89
 H -5.40  2.06 -1.10
 H -2.62  4.25 -1.22
 N -2.01  1.86  2.98
 C -1.60  2.91  3.91
 H -2.24  4.14  0.46
 H -2.14  3.83  3.68
 H -0.52  3.12  3.81
 H -1.79  2.64  4.96
Ca  0.16 -1.09  5.31
