36
#
 C  0.13  1.11  0.49
 C  0.01  0.75  1.93
 O  0.98  0.89  2.72
 H  0.92  0.51  0.03
 H  0.44  2.16  0.41
 H -0.80  0.97 -0.07
 N -1.17  0.26  2.38
 C -1.40 -0.08  3.79
 C -0.77 -1.45  4.12
 O  0.41 -1.47  4.58
 H -1.93  0.14  1.71
 H -0.78  0.62  4.36
 C -2.84  0.14  4.26
 C -3.24  1.62  4.39
 C -2.24  2.54  5.11
 N -1.76  2.04  6.40
 C -0.50  1.59  6.67
 N -0.34  0.82  7.78
 N  0.55  1.79  5.88
 H -2.93 -0.35  5.24
 H -3.57 -0.37  3.60
 H -4.21  1.65  4.91
 H -3.42  2.06  3.40
 H -2.71  3.52  5.27
 H -1.37  2.73  4.47
 H -2.43  2.03  7.16
 H  0.56  0.86  8.24
 H -1.12  0.59  8.37
 H  0.41  2.63  5.30
 N -1.48 -2.56  3.92
 C -1.00 -3.92  4.16
 H -2.42 -2.46  3.57
 H -0.96 -4.48  3.22
 H -1.68 -4.43  4.86
 H  0.00 -3.87  4.60
Ca  1.80  0.27  4.68
