36
#
 C -0.44  0.50  2.59
 C -1.14 -0.26  3.67
 O -0.62 -0.36  4.83
 H -1.11  1.21  2.09
 H -0.05 -0.19  1.82
 H  0.41  1.04  3.03
 N -2.33 -0.86  3.45
 C -2.63 -1.69  2.27
 C -1.57 -2.84  2.23
 O -0.74 -2.95  3.21
 H -2.77 -1.19  4.31
 H -3.59 -2.17  2.51
 C -2.82 -0.92  0.94
 C -3.99 -1.45  0.09
 C -3.81 -1.24 -1.42
 N -2.52 -1.69 -1.94
 C -1.99 -2.96 -1.89
 N -2.84 -3.94 -1.31
 N -0.80 -3.34 -2.19
 H -1.90 -0.95  0.35
 H -3.01  0.13  1.19
 H -4.93 -0.97  0.40
 H -4.14 -2.53  0.29
 H -3.88 -0.17 -1.66
 H -4.65 -1.72 -1.95
 H -1.98 -1.01 -2.47
 H -2.49 -4.85 -1.59
 H -3.82 -3.85 -1.60
 H -0.21 -2.59 -2.54
 N -1.54 -3.67  1.22
 C -0.57 -4.75  1.03
 H -2.24 -3.61  0.43
 H  0.28 -4.61  1.70
 H -0.24 -4.72 -0.01
 H -1.05 -5.72  1.24
Ca  0.14 -2.36  5.05
