36
#
 C -1.36  0.38 -0.98
 C -0.39  0.14  0.13
 O  0.84 -0.08 -0.12
 H -2.02  1.23 -0.77
 H -2.00 -0.50 -1.13
 H -0.81  0.57 -1.91
 N -0.81  0.13  1.42
 C -2.00 -0.62  1.87
 C -1.88 -2.06  1.31
 O -0.70 -2.50  1.01
 H -0.03  0.12  2.08
 H -1.85 -0.72  2.96
 C -3.35  0.10  1.67
 C -4.36 -0.10  2.83
 C -5.73 -0.61  2.35
 N -5.60 -1.98  1.85
 C -6.38 -2.50  0.76
 N -7.34 -1.65  0.26
 N -6.02 -3.65  0.33
 H -3.80 -0.21  0.72
 H -3.13  1.17  1.57
 H -4.50  0.85  3.37
 H -3.96 -0.81  3.58
 H -6.08  0.03  1.54
 H -6.46 -0.54  3.17
 H -5.61 -2.67  2.60
 H -7.85 -1.05  0.90
 H -7.90 -2.01 -0.50
 H -6.67 -4.03 -0.37
 N -2.94 -2.81  1.17
 C -2.89 -4.21  0.74
 H -3.90 -2.42  1.39
 H -3.94 -4.53  0.62
 H -2.37 -4.82  1.49
 H -2.37 -4.29 -0.22
Ca  1.26 -2.17  0.29
