36
#
 C  0.13  1.89 -0.80
 C  0.59  1.67  0.60
 O  1.89  1.76  0.83
 H -0.95  2.08 -0.86
 H  0.35  1.00 -1.41
 H  0.67  2.73 -1.25
 N -0.18  1.41  1.60
 C -1.64  1.35  1.73
 C -1.78  1.45  3.28
 O -0.70  1.55  3.93
 H  0.13  1.42  2.65
 H -2.07  2.27  1.30
 C -2.30  0.13  1.05
 C -2.13 -1.24  1.73
 C -3.29 -1.67  2.65
 N -4.59 -1.70  1.98
 C -5.54 -0.72  2.07
 N -6.75 -1.05  1.54
 N -5.24  0.46  2.57
 H -1.92  0.08  0.02
 H -3.37  0.36  0.95
 H -1.20 -1.28  2.33
 H -2.01 -2.00  0.95
 H -3.38 -1.01  3.52
 H -3.08 -2.68  3.03
 H -4.82 -2.53  1.45
 H -7.50 -0.38  1.61
 H -7.05 -2.02  1.55
 H -6.06  1.05  2.64
 N -2.99  1.44  3.81
 C -3.19  1.55  5.25
 H -3.83  1.14  3.23
 H -2.64  0.77  5.79
 H -4.26  1.44  5.45
 H -2.85  2.52  5.62
Ca  3.79  1.98  1.33
