36
#
 C  0.30 -0.19  1.31
 C -0.31  0.23  2.49
 O  0.42  0.71  3.46
 H -0.50  1.60  0.14
 H -0.21 -0.73  0.52
 H  1.30  0.19  1.09
 N -1.65  0.01  2.83
 C -2.40 -1.19  2.48
 C -1.63 -2.49  2.89
 O -0.49 -2.44  3.44
 H -1.79  0.31  3.79
 H -3.28 -1.18  3.14
 C -2.95 -1.21  1.03
 C -3.93 -0.06  0.75
 C -3.33  1.30  0.37
 N -2.82  1.32 -1.02
 C -1.74  1.99 -1.46
 N -1.72  2.44 -2.73
 N -0.69  2.21 -0.66
 H -3.50 -2.15  0.88
 H -2.14 -1.23  0.30
 H -4.57  0.11  1.63
 H -4.62 -0.37 -0.05
 H -2.52  1.57  1.05
 H -4.10  2.07  0.46
 H -3.50  1.07 -1.74
 H -0.85  2.71 -3.17
 H -2.57  2.56 -3.26
 H  0.03  2.86 -0.93
 N -2.24 -3.66  2.71
 C -1.68 -4.94  3.13
 H -3.17 -3.66  2.30
 H -2.41 -5.72  2.93
 H -1.44 -4.93  4.20
 H -0.76 -5.16  2.56
Ca  1.35 -1.21  3.54
