36
#
 C  0.54 -0.71  0.59
 C -0.08 -0.86  1.95
 O  0.61 -1.34  2.91
 H  1.26  0.12  0.58
 H -0.20 -0.56 -0.20
 H  1.11 -1.63  0.39
 N -1.36 -0.50  2.16
 C -1.87  0.81  1.72
 C -1.41  1.87  2.78
 O -0.35  1.54  3.50
 H -1.70 -0.79  3.08
 H -1.32  1.06  0.80
 C -3.36  0.77  1.36
 C -4.37  0.50  2.50
 C -5.06  1.74  3.10
 N -5.86  2.49  2.12
 C -5.54  3.68  1.58
 N -6.49  4.35  0.90
 N -4.32  4.19  1.71
 H -3.46 -0.03  0.60
 H -3.61  1.69  0.83
 H -3.90 -0.04  3.33
 H -5.15 -0.18  2.12
 H -4.34  2.42  3.54
 H -5.74  1.42  3.90
 H -6.75  2.09  1.86
 H -6.26  5.16  0.35
 H -7.47  4.11  0.99
 H -4.16  5.15  1.42
 N -2.04  2.98  2.85
 C -1.55  3.99  3.78
 H -3.49  3.64  2.07
 H -2.28  4.81  3.86
 H -0.60  4.43  3.43
 H -1.38  3.58  4.79
Ca  1.05  0.28  4.31
