36
#
 C -0.33 -0.17  0.08
 C -0.19  0.05  1.55
 O  0.90  0.32  2.08
 H -1.37 -0.24 -0.27
 H  0.19 -1.11 -0.18
 H  0.19  0.63 -0.46
 N -1.34 -0.04  2.30
 C -1.41 -0.15  3.77
 C -0.96  1.13  4.49
 O -1.73  1.63  5.40
 H -2.19 -0.26  1.80
 H -2.48 -0.24  3.98
 C -0.66 -1.42  4.27
 C -0.55 -1.68  5.78
 C -1.83 -2.11  6.52
 N -2.73 -0.98  6.77
 C -3.31 -0.60  7.92
 N -3.51 -1.52  8.88
 N -3.67  0.69  8.06
 H  0.36 -1.38  3.86
 H -1.15 -2.28  3.78
 H -0.09 -0.83  6.30
 H  0.16 -2.51  5.89
 H -1.54 -2.53  7.50
 H -2.36 -2.90  5.97
 H -2.76 -0.27  6.04
 H -3.83 -1.25  9.80
 H -3.45 -2.51  8.69
 H -4.33  0.80  8.83
 N  0.20  1.65  4.20
 C  0.76  2.84  4.81
 H  0.70  1.14  3.39
 H  0.10  3.71  4.65
 H  1.73  3.05  4.33
 H  0.93  2.70  5.88
Ca -2.82  2.46  7.00
