36
#
 C -1.37  0.40 -1.53
 C -0.42  0.25 -0.38
 O  0.84  0.32 -0.58
 H -1.40  1.45 -1.87
 H -2.38  0.07 -1.30
 H -0.97 -0.18 -2.37
 N -0.89  0.01  0.86
 C -1.95  0.85  1.44
 C -1.25  2.13  2.01
 O -0.20  2.55  1.31
 H -0.15 -0.23  1.52
 H -2.57  1.19  0.59
 C -2.83  0.09  2.43
 C -4.22  0.73  2.59
 C -5.06  0.18  3.74
 N -4.42  0.15  5.07
 C -4.05  1.21  5.82
 N -4.17  1.13  7.15
 N -3.57  2.32  5.25
 H -2.32  0.03  3.40
 H -2.95 -0.94  2.06
 H -4.81  0.57  1.67
 H -4.13  1.82  2.68
 H -5.32 -0.87  3.54
 H -6.00  0.74  3.80
 H -4.57 -0.71  5.60
 H -3.67  1.77  7.77
 H -4.80  0.47  7.59
 H -3.47  3.15  5.83
 N -1.73  2.68  3.06
 C -1.12  3.91  3.55
 H -3.02  2.31  4.36
 H -0.51  3.70  4.45
 H -1.91  4.61  3.85
 H -0.48  4.41  2.81
Ca  1.51  2.24  0.23
