36
#
 C  0.40 -1.28  1.88
 C -0.38 -1.63  3.11
 O  0.15 -2.42  3.98
 H  1.38 -0.89  2.20
 H -0.09 -0.53  1.25
 H  0.60 -2.18  1.29
 N -1.59 -1.16  3.34
 C -2.57 -0.53  2.45
 C -3.68 -0.09  3.45
 O -3.71 -0.63  4.56
 H -2.05 -1.33  4.25
 H -2.13  0.34  1.95
 C -3.10 -1.55  1.41
 C -3.69 -2.82  2.07
 C -3.37 -4.12  1.30
 N -3.50 -5.31  2.14
 C -2.63 -5.68  3.10
 N -3.02 -6.62  4.00
 N -1.42 -5.12  3.24
 H -2.26 -1.82  0.75
 H -3.83 -1.05  0.77
 H -4.78 -2.72  2.19
 H -3.30 -2.93  3.08
 H -2.36 -4.08  0.88
 H -4.04 -4.26  0.44
 H -4.33 -5.88  2.01
 H -2.31 -7.25  4.37
 H -3.96 -7.00  3.96
 H -1.19 -4.62  2.37
 N -4.56  0.82  3.00
 C -5.68  1.31  3.79
 H -4.40  1.23  2.09
 H -6.62  1.17  3.23
 H -5.55  2.38  4.01
 H -5.73  0.75  4.72
Ca -0.03 -4.33  4.82
