36
#
 C -1.12 -0.44  0.29
 C -0.95  0.03  1.71
 O  0.19  0.65  1.96
 H -1.14  0.42 -0.39
 H -2.03 -1.05  0.17
 H -0.26 -1.06 -0.01
 N -1.90 -0.19  2.57
 C -1.77  0.31  3.95
 C -0.77 -0.53  4.76
 O  0.48 -0.26  4.72
 H -3.78  0.36 -0.18
 H -1.32  1.32  3.94
 C -3.16  0.45  4.60
 C -4.14 -0.75  4.45
 C -5.26 -0.53  3.42
 N -4.69 -0.34  2.09
 C -5.40 -0.07  1.00
 N -6.74 -0.10  1.03
 N -4.78  0.27 -0.15
 H -3.62  1.35  4.16
 H -3.03  0.69  5.66
 H -4.64 -0.94  5.41
 H -3.61 -1.67  4.17
 H -5.86  0.35  3.70
 H -5.92 -1.42  3.43
 H -3.63 -0.35  2.05
 H -7.25 -0.45  1.84
 H -7.30  0.18  0.23
 H -5.28  0.29 -1.03
 N -1.18 -1.55  5.50
 C -0.30 -2.40  6.29
 H -2.18 -1.75  5.51
 H -0.92 -3.02  6.96
 H  0.38 -1.79  6.90
 H  0.29 -3.06  5.64
Ca  1.71  0.78  3.31
