36
#
 C -0.24 -0.48  0.24
 C -0.01 -0.13  1.67
 O  1.14 -0.13  2.18
 H -0.08  0.40 -0.39
 H -1.25 -0.87  0.05
 H  0.51 -1.23 -0.06
 N -1.06  0.23  2.47
 C -2.11  1.14  2.06
 C -1.45  2.49  1.66
 O -0.24  2.72  1.97
 H -0.78  0.34  3.44
 H -2.59  0.75  1.14
 C -3.23  1.24  3.14
 C -2.87  1.11  4.63
 C -2.59  2.37  5.47
 N -1.49  3.27  5.08
 C -0.19  2.93  4.97
 N  0.71  3.92  4.51
 N  0.38  1.75  5.11
 H -3.93  0.42  2.91
 H -3.81  2.16  2.97
 H -2.10  0.35  4.79
 H -3.75  0.67  5.12
 H -2.44  2.05  6.52
 H -3.48  3.00  5.47
 H -1.69  4.26  5.15
 H  1.41  4.16  5.22
 H  0.29  4.77  4.14
 H -0.18  1.07  5.63
 N -2.14  3.38  0.95
 C -3.51  3.30  0.44
 H -1.62  4.22  0.72
 H -3.54  3.77 -0.55
 H -4.21  3.83  1.10
 H -3.83  2.26  0.33
Ca  1.56  1.89  3.09
