36
#
 C -0.85  0.01 -0.38
 C -0.61  0.07  1.10
 O  0.52  0.45  1.54
 H -0.74  1.02 -0.79
 H -1.85 -0.37 -0.64
 H -0.09 -0.62 -0.85
 N -1.60 -0.28  1.92
 C -1.65 -0.17  3.40
 C -0.89 -1.36  4.03
 O  0.43 -1.25  3.95
 H -2.46 -0.61  1.48
 H -1.09  0.74  3.66
 C -3.13  0.02  3.78
 C -3.44  0.59  5.17
 C -3.14 -0.31  6.38
 N -3.63 -1.67  6.20
 C -4.75 -2.20  6.70
 N -5.65 -1.46  7.37
 N -4.99 -3.51  6.52
 H -3.65 -0.94  3.64
 H -3.56  0.72  3.05
 H -4.51  0.85  5.17
 H -2.91  1.55  5.32
 H -3.55  0.13  7.30
 H -2.06 -0.39  6.55
 H -3.05 -2.19  5.51
 H -6.37 -1.90  7.93
 H -5.56 -0.46  7.45
 H -5.90 -3.91  6.72
 N -1.54 -2.35  4.53
 C -0.78 -3.48  5.06
 H -4.28 -4.12  6.14
 H -1.30 -3.88  5.95
 H  0.25 -3.23  5.34
 H -0.76 -4.29  4.31
Ca  1.92 -0.27  2.97
