36
#
 C  0.28 -0.43  0.65
 C -0.57  0.02  1.79
 O -0.22  0.99  2.52
 H  0.45  0.42 -0.03
 H -0.16 -1.26  0.08
 H  1.26 -0.73  1.02
 N -1.73 -0.63  2.03
 C -2.63 -0.22  3.11
 C -2.10 -0.67  4.49
 O -1.50  0.20  5.18
 H -1.99 -1.40  1.43
 H -2.49  0.87  3.16
 C -4.12 -0.42  2.79
 C -4.70  0.83  2.10
 C -5.32  1.91  3.01
 N -4.60  2.27  4.25
 C -3.39  2.85  4.35
 N -2.83  2.99  5.65
 N -2.56  3.18  3.40
 H -4.67 -0.63  3.73
 H -4.27 -1.30  2.16
 H -5.51  0.53  1.42
 H -3.93  1.26  1.44
 H -6.30  1.56  3.35
 H -5.50  2.82  2.42
 H -5.17  2.27  5.09
 H -2.71  3.98  5.90
 H -3.31  2.50  6.40
 H -2.96  3.22  2.46
 N -2.23 -1.91  4.94
 C -2.89 -3.06  4.30
 H -1.83 -2.07  5.86
 H -3.95 -3.10  4.56
 H -2.40 -3.97  4.65
 H -2.78 -3.02  3.21
Ca -0.67  2.15  4.37
