36
#
 C  0.30 -3.20 -0.11
 C  0.69 -1.96  0.61
 O  1.87 -1.74  0.99
 H -0.77 -3.28 -0.30
 H  0.68 -4.09  0.41
 H  0.81 -3.17 -1.08
 N -0.24 -0.99  0.92
 C -1.59 -1.18  1.46
 C -1.55 -2.48  2.30
 O -0.54 -2.61  3.06
 H  0.13 -0.02  0.94
 H -1.63 -0.48  2.30
 C -2.74 -0.75  0.54
 C -3.45  0.54  1.03
 C -2.60  1.82  1.26
 N -1.76  1.78  2.49
 C -0.43  1.54  2.56
 N  0.34  1.87  1.46
 N  0.18  0.90  3.55
 H -3.52 -1.52  0.42
 H -2.33 -0.60 -0.47
 H -4.21  0.82  0.29
 H -4.00  0.32  1.96
 H -3.28  2.68  1.35
 H -1.96  2.02  0.39
 H -2.28  1.58  3.34
 H -0.03  2.58  0.83
 H  1.32  2.03  1.68
 H -0.44  0.80  4.36
 N -2.55 -3.34  2.27
 C -2.67 -4.53  3.11
 H -3.31 -3.15  1.61
 H -2.70 -5.43  2.48
 H -3.59 -4.48  3.70
 H -1.80 -4.58  3.78
Ca  1.26 -1.20  3.14
