36
#
 C  0.59 -0.70 -0.02
 C  0.48 -0.32  1.42
 O  1.54 -0.26  2.13
 H -0.37 -0.67 -0.55
 H  1.00 -1.71 -0.08
 H  1.30 -0.04 -0.53
 N -0.73 -0.05  1.92
 C -1.18  0.18  3.31
 C -0.77  1.55  3.88
 O  0.51  1.86  3.87
 H -1.48 -0.11  1.24
 H -2.27  0.22  3.22
 C -0.84 -1.00  4.26
 C -1.97 -1.29  5.27
 C -2.06 -0.30  6.46
 N -3.40 -0.19  7.02
 C -4.39  0.56  6.51
 N -5.62  0.47  7.04
 N -4.17  1.38  5.47
 H  0.11 -0.83  4.78
 H -0.70 -1.90  3.65
 H -1.85 -2.31  5.66
 H -2.93 -1.28  4.73
 H -1.72  0.70  6.18
 H -1.40 -0.63  7.28
 H -3.63 -0.77  7.82
 H -6.36  1.11  6.78
 H -5.83 -0.18  7.79
 H -4.95  1.91  5.11
 N -1.71  2.26  4.39
 C -1.36  3.54  5.01
 H -3.23  1.62  5.06
 H -2.19  3.89  5.62
 H -1.17  4.30  4.23
 H -0.45  3.47  5.63
Ca  2.39  1.23  3.39
