36
#
 C  0.06  1.59  0.82
 C -0.28  0.64  1.92
 O  0.48  0.58  2.97
 H -0.66  1.56 -0.00
 H  1.05  1.34  0.42
 H  0.11  2.61  1.21
 N -1.35 -0.10  1.80
 C -1.92 -1.14  2.66
 C -2.99 -1.78  1.71
 O -3.27 -1.18  0.67
 H -1.95 -0.05  0.94
 H -1.14 -1.88  2.90
 C -2.55 -0.58  3.96
 C -1.74 -0.92  5.22
 C -2.10 -0.05  6.44
 N -1.04 -0.04  7.45
 C  0.17  0.50  7.25
 N  1.20  0.13  8.06
 N  0.44  1.33  6.23
 H -3.58 -0.95  4.06
 H -2.64  0.51  3.85
 H -0.68 -0.78  4.99
 H -1.87 -1.98  5.48
 H -3.01 -0.40  6.93
 H -2.32  0.99  6.13
 H -1.22 -0.51  8.33
 H  1.90  0.84  8.27
 H  1.05 -0.55  8.79
 H -0.43  1.74  5.89
 N -3.56 -2.94  2.08
 C -3.29 -3.76  3.25
 H -4.27 -3.27  1.43
 H -2.23 -3.74  3.51
 H -3.56 -4.80  3.02
 H -3.89 -3.44  4.12
Ca  1.83  1.02  4.50
