36
#
 C  0.82 -1.16  0.93
 C  0.08  0.04  1.34
 O  0.66  1.19  1.30
 H  1.73 -0.86  0.39
 H  0.20 -1.81  0.30
 H  1.15 -1.82  1.78
 N -1.24  0.03  1.71
 C -1.84 -0.69  2.84
 C -1.54  0.12  4.13
 O -0.54  0.91  4.19
 H -1.63  0.97  1.63
 H -2.93 -0.67  2.67
 C -1.40 -2.15  3.03
 C -1.92 -3.14  1.97
 C -1.31 -4.56  2.09
 N -0.12 -4.78  1.28
 C  1.13 -4.27  1.55
 N  2.02 -4.32  0.50
 N  1.50 -3.64  2.64
 H -1.77 -2.47  4.02
 H -0.31 -2.19  3.10
 H -1.75 -2.76  0.96
 H -3.02 -3.23  2.09
 H -2.05 -5.29  1.74
 H -1.12 -4.81  3.15
 H -0.20 -5.46  0.53
 H  3.00 -4.30  0.77
 H  1.80 -4.85 -0.33
 H  0.84 -3.83  3.39
 N -2.36 -0.04  5.16
 C -2.23  0.58  6.48
 H -3.16 -0.65  5.02
 H -1.24  1.04  6.57
 H -2.35 -0.19  7.25
 H -3.00  1.35  6.61
Ca  0.97  2.07  3.20
