36
#
 C -0.11 -0.49  0.18
 C -0.28 -0.18  1.64
 O  0.84  0.09  2.28
 H  0.52 -1.38  0.06
 H  0.42  0.34 -0.31
 H -1.06 -0.65 -0.33
 N -1.46 -0.19  2.20
 C -1.49  0.18  3.62
 C -0.84 -0.91  4.49
 O  0.29 -0.68  5.05
 H -2.96 -0.28  0.91
 H -0.82  1.05  3.77
 C -2.89  0.62  4.18
 C -4.08  0.56  3.22
 C -4.04  1.63  2.12
 N -4.96  1.36  1.02
 C -4.76  0.41  0.10
 N -5.67  0.23 -0.87
 N -3.66 -0.35  0.15
 H -2.79  1.65  4.55
 H -3.13  0.03  5.07
 H -5.00  0.69  3.80
 H -4.15 -0.44  2.76
 H -3.03  1.73  1.70
 H -4.30  2.62  2.53
 H -5.85  1.86  1.00
 H -5.55 -0.50 -1.57
 H -6.45  0.85 -0.99
 H -3.50 -1.02 -0.58
 N -1.41 -2.09  4.67
 C -2.65 -2.61  4.11
 H -0.89 -2.71  5.29
 H -2.55 -3.69  3.99
 H -2.82 -2.17  3.12
 H -3.50 -2.40  4.76
Ca  1.97  0.11  3.98
