36
#
 C  0.22  0.17  0.23
 C -0.13 -0.52  1.51
 O  0.65 -1.37  2.01
 H  0.38 -0.59 -0.55
 H  1.17  0.70  0.36
 H -0.54  0.88 -0.11
 N -1.30 -0.19  2.10
 C -1.92 -0.71  3.33
 C -1.05 -0.40  4.57
 O -0.01 -1.08  4.82
 H -1.84  0.51  1.60
 H -2.85 -0.13  3.41
 C -2.29 -2.21  3.33
 C -2.72 -2.85  2.01
 C -2.80 -4.39  2.09
 N -1.67 -5.00  2.82
 C -0.36 -4.71  2.55
 N -0.04 -4.46  1.26
 N  0.59 -4.58  3.48
 H -3.08 -2.34  4.09
 H -1.42 -2.76  3.72
 H -2.02 -2.57  1.21
 H -3.71 -2.48  1.69
 H -2.89 -4.83  1.09
 H -3.70 -4.71  2.63
 H -1.85 -5.19  3.80
 H  0.94 -4.56  1.02
 H -0.68 -4.73  0.52
 H  0.28 -4.99  4.37
 N -1.45  0.59  5.36
 C -0.76  1.01  6.58
 H -2.29  1.10  5.10
 H -1.51  1.33  7.31
 H -0.09  1.85  6.37
 H -0.19  0.17  6.98
Ca  1.40 -2.43  3.75
