36
#
 C  1.38  1.09  2.56
 C  0.47  0.03  3.08
 O  0.86 -0.75  4.01
 H  1.61  1.79  3.38
 H  0.96  1.66  1.72
 H  2.33  0.64  2.25
 N -0.76 -0.07  2.57
 C -1.90 -0.87  3.06
 C -1.76 -2.37  2.66
 O -0.76 -3.03  3.10
 H -0.99  0.58  1.82
 H -1.86 -0.85  4.16
 C -3.20 -0.29  2.54
 C -3.80  1.02  3.04
 C -5.12  1.29  2.25
 N -5.93  0.09  2.01
 C -5.55 -0.89  1.10
 N -5.11 -0.41 -0.12
 N -5.48 -2.18  1.32
 H -3.95 -1.05  2.77
 H -3.13 -0.26  1.44
 H -3.13  1.89  2.91
 H -4.01  0.95  4.12
 H -4.87  1.74  1.28
 H -5.73  2.02  2.79
 H -6.36 -0.30  2.85
 H -5.04 -1.13 -0.83
 H -5.55  0.44 -0.45
 H -5.82 -2.41  2.26
 N -2.68 -2.96  1.92
 C -2.62 -4.37  1.56
 H -3.57 -2.48  1.63
 H -1.75 -4.57  0.92
 H -3.54 -4.61  1.01
 H -2.55 -5.00  2.45
Ca  0.92 -2.83  4.36
