36
#
 C -2.23  2.25  0.10
 C -1.77  1.09  0.92
 O -0.88  0.30  0.50
 H -1.36  2.88 -0.13
 H -3.00  2.85  0.59
 H -2.62  1.88 -0.86
 N -2.33  0.90  2.14
 C -1.90 -0.16  3.05
 C -2.52 -1.50  2.61
 O -1.88 -2.23  1.80
 H -3.05  1.55  2.44
 H -0.82 -0.28  2.86
 C -2.05  0.23  4.52
 C -1.41 -0.75  5.53
 C  0.11 -1.02  5.38
 N  0.44 -2.19  4.56
 C  0.94 -2.19  3.30
 N  0.90 -3.41  2.58
 N  1.33 -1.18  2.57
 H -3.10  0.37  4.80
 H -1.58  1.22  4.64
 H -1.94 -1.72  5.52
 H -1.57 -0.33  6.53
 H  0.54 -1.19  6.37
 H  0.64 -0.14  4.98
 H  0.35 -3.09  5.02
 H  0.37 -4.17  3.02
 H  1.83 -3.73  2.32
 H  1.53 -0.32  3.09
 N -3.72 -1.83  3.07
 C -4.48 -3.02  2.67
 H -4.17 -1.20  3.72
 H -4.74 -3.61  3.57
 H -3.86 -3.63  2.01
 H -5.40 -2.73  2.15
Ca  0.03 -1.71  0.71
