36
#
 C  0.58 -0.40  0.94
 C  0.25  0.13  2.30
 O  1.14  0.38  3.15
 H -0.24 -0.97  0.50
 H  1.47 -1.02  1.02
 H  0.83  0.44  0.27
 N -1.05  0.39  2.64
 C -2.06  0.96  1.76
 C -1.48  2.26  1.15
 O -0.60  2.89  1.82
 H -1.21  0.50  3.65
 H -2.34  0.23  0.99
 C -3.31  1.38  2.57
 C -3.81  0.40  3.64
 C -3.17  0.52  5.04
 N -3.17  1.88  5.58
 C -2.10  2.52  6.11
 N -2.35  3.35  7.15
 N -0.86  2.35  5.61
 H -4.12  1.56  1.84
 H -3.12  2.35  3.05
 H -3.73 -0.65  3.31
 H -4.89  0.57  3.76
 H -2.13  0.16  5.09
 H -3.73 -0.14  5.73
 H -4.08  2.21  5.91
 H -1.66  4.03  7.45
 H -3.19  3.28  7.70
 H -0.21  2.59  6.36
 N -1.91  2.72 -0.01
 C -2.93  2.17 -0.90
 H -1.51  3.62 -0.28
 H -3.89  2.68 -0.75
 H -3.06  1.10 -0.74
 H -2.61  2.32 -1.94
Ca  0.48  2.47  3.73
