36
#
 C -0.08 -0.12  2.24
 C -1.18  0.37  3.15
 O -0.89  1.35  3.95
 H -0.39 -0.14  1.18
 H  0.22 -1.14  2.51
 H  0.79  0.54  2.34
 N -2.41 -0.14  3.29
 C -2.75 -1.53  2.99
 C -2.10 -2.37  4.12
 O -1.91 -1.81  5.24
 H -3.73  3.61 -1.26
 H -3.83 -1.61  3.23
 C -2.62 -2.07  1.55
 C -3.58 -1.42  0.53
 C -3.22 -0.00  0.08
 N -4.14  0.41 -0.99
 C -4.31  1.65 -1.45
 N -5.29  1.91 -2.33
 N -3.53  2.65 -1.02
 H -2.90 -3.13  1.57
 H -1.59 -2.03  1.19
 H -4.60 -1.42  0.94
 H -3.59 -2.07 -0.36
 H -2.18  0.02 -0.29
 H -3.31  0.71  0.91
 H -4.60 -0.34 -1.51
 H -5.32  2.79 -2.85
 H -6.01  1.24 -2.54
 H -2.66  2.46 -0.54
 N -1.78 -3.64  3.94
 C -1.24 -4.50  5.00
 H -1.94 -4.06  3.03
 H -0.31 -4.08  5.39
 H -1.04 -5.49  4.58
 H -1.96 -4.60  5.82
Ca -2.12  0.42  5.49
