36
#
 C -1.29  1.51 -1.89
 C -0.67  0.70 -0.81
 O  0.55  0.39 -0.82
 H -1.05  2.57 -1.74
 H -2.38  1.39 -1.95
 H -0.83  1.22 -2.85
 N -1.40  0.29  0.27
 C -2.43  1.08  0.95
 C -1.82  2.46  1.26
 O -0.57  2.51  1.49
 H -0.97 -0.46  0.83
 H -3.34  1.14  0.34
 C -2.72  0.44  2.33
 C -2.83 -1.10  2.36
 C -2.31 -1.70  3.66
 N -0.91 -1.37  4.06
 C  0.22 -1.75  3.37
 N  1.06 -2.59  4.00
 N  0.49 -1.23  2.16
 H -3.63  0.89  2.74
 H -1.91  0.73  3.01
 H -2.31 -1.56  1.51
 H -3.88 -1.41  2.25
 H -2.43 -2.79  3.61
 H -2.93 -1.35  4.50
 H -0.80 -1.52  5.06
 H  2.00 -2.75  3.66
 H  0.75 -3.16  4.78
 H  1.15 -1.86  1.68
 N -2.58  3.54  1.34
 C -4.03  3.67  1.15
 H -2.08  4.38  1.64
 H -4.24  4.67  0.76
 H -4.56  3.55  2.11
 H -4.40  2.93  0.44
Ca  1.00  0.93  1.33
