36
#
 C  0.96  1.03  0.53
 C  0.43  0.92  1.92
 O  1.21  0.59  2.87
 H  0.19  1.29 -0.21
 H  1.44  0.09  0.24
 H  1.74  1.80  0.51
 N -0.86  1.18  2.14
 C -1.55  1.26  3.45
 C -1.86 -0.16  3.97
 O -0.83 -0.76  4.55
 H -1.42  1.41  1.32
 H -0.83  1.70  4.15
 C -2.74  2.22  3.30
 C -3.42  2.62  4.62
 C -4.68  1.85  5.03
 N -5.81  2.03  4.10
 C -6.28  1.13  3.23
 N -7.47  1.36  2.64
 N -5.58  0.03  2.92
 H -3.47  1.80  2.59
 H -2.34  3.13  2.83
 H -3.68  3.69  4.56
 H -2.71  2.55  5.46
 H -5.02  2.20  6.01
 H -4.49  0.78  5.12
 H -6.31  2.91  4.16
 H -7.80  0.78  1.88
 H -8.12  2.03  3.02
 H -6.04 -0.71  2.40
 N -3.02 -0.68  3.81
 C -3.23 -2.04  4.30
 H -4.58 -0.12  3.23
 H -4.31 -2.24  4.39
 H -2.76 -2.21  5.28
 H -2.81 -2.78  3.60
Ca  1.22 -0.73  4.55
