36
#
 C  0.52  0.14  0.22
 C  0.24  0.11  1.69
 O  1.11  0.49  2.53
 H -0.33 -0.20 -0.39
 H  1.39 -0.49  0.01
 H  0.79  1.16 -0.07
 N -0.96 -0.33  2.11
 C -1.36 -0.31  3.52
 C -0.76 -1.54  4.25
 O  0.35 -1.36  4.84
 H -1.64 -0.61  1.41
 H -0.81  0.52  3.96
 C -2.85  0.04  3.69
 C -3.35  0.15  5.15
 C -2.45  0.90  6.16
 N -1.95  2.19  5.70
 C -0.64  2.48  5.46
 N -0.37  3.57  4.70
 N  0.38  1.72  5.86
 H -3.50 -0.65  3.15
 H -2.97  1.02  3.19
 H -3.52 -0.85  5.57
 H -4.34  0.63  5.11
 H -1.58  0.28  6.41
 H -3.01  1.04  7.09
 H -2.63  2.94  5.58
 H  0.52  4.04  4.85
 H -1.12  4.14  4.32
 H  0.09  1.17  6.68
 N -1.32 -2.74  4.25
 C -2.54 -3.20  3.59
 H -0.79 -3.44  4.77
 H -2.49 -4.29  3.50
 H -2.63 -2.79  2.58
 H -3.44 -2.95  4.18
Ca  1.76  0.37  4.63
