36
#
 C -0.70  0.36  0.30
 C -0.60 -0.06  1.74
 O  0.43 -0.66  2.16
 H -0.62 -0.54 -0.33
 H  0.15  1.00  0.05
 H -1.63  0.88  0.06
 N -1.65  0.23  2.54
 C -1.85 -0.14  3.96
 C -0.87  0.65  4.85
 O  0.37  0.41  4.85
 H -2.42  0.72  2.10
 H -2.86  0.20  4.19
 C -1.80 -1.67  4.15
 C -1.70 -2.15  5.61
 C -1.34 -3.64  5.75
 N -0.24 -4.08  4.87
 C  0.95 -3.45  4.74
 N  1.67 -3.64  3.54
 N  1.46 -2.53  5.52
 H -0.94 -2.06  3.58
 H -2.69 -2.09  3.67
 H -2.66 -2.01  6.13
 H -0.98 -1.53  6.16
 H -2.19 -4.27  5.48
 H -1.10 -3.87  6.80
 H -0.40 -4.91  4.31
 H  2.61 -3.99  3.70
 H  1.21 -4.18  2.81
 H  1.04 -2.48  6.45
 N -1.40  1.58  5.63
 C -0.65  2.44  6.54
 H -2.40  1.74  5.57
 H  0.34  2.00  6.72
 H -1.19  2.53  7.49
 H -0.52  3.44  6.11
Ca  1.81 -0.94  3.85
