36
#
 C -2.19 -0.29  0.12
 C -1.91 -0.78  1.50
 O -1.18 -1.79  1.69
 H -2.89  0.56  0.08
 H -2.60 -1.12 -0.48
 H -1.25  0.01 -0.36
 N -2.46 -0.09  2.53
 C -2.34 -0.35  3.98
 C -0.86 -0.20  4.42
 O -0.05 -1.16  4.27
 H -3.03  0.70  2.27
 H -2.93  0.45  4.44
 C -2.86 -1.72  4.47
 C -4.16 -2.28  3.89
 C -4.20 -3.82  3.98
 N -3.28 -4.48  3.04
 C -1.95 -4.70  3.19
 N -1.35 -4.60  4.46
 N -1.07 -4.89  2.24
 H -2.94 -1.64  5.56
 H -2.05 -2.43  4.30
 H -4.27 -2.00  2.83
 H -5.03 -1.88  4.41
 H -5.21 -4.19  3.74
 H -4.00 -4.17  5.01
 H -3.59 -4.48  2.08
 H -0.77 -5.42  4.64
 H -1.97 -4.44  5.25
 H -1.47 -5.03  1.31
 N -0.45  0.95  4.95
 C -1.23  2.17  5.20
 H  0.53  0.96  5.21
 H -1.67  2.56  4.27
 H -0.55  2.92  5.60
 H -2.02  1.99  5.95
Ca  0.16 -2.99  2.96
