36
#
 C  0.92  0.30  0.30
 C  0.62  0.10  1.75
 O  1.53  0.10  2.61
 H  1.60 -0.49 -0.04
 H  1.46  1.25  0.18
 H  0.03  0.30 -0.34
 N -0.67 -0.07  2.12
 C -1.03 -0.19  3.53
 C -0.73 -1.62  4.04
 O  0.34 -1.78  4.70
 H -1.39 -0.05  1.40
 H -0.27  0.42  4.04
 C -2.37  0.45  3.95
 C -2.27  1.04  5.37
 C -1.39  2.31  5.40
 N -0.56  2.54  6.59
 C  0.69  2.02  6.73
 N  1.61  2.74  7.39
 N  1.02  0.84  6.20
 H -3.21 -0.26  3.90
 H -2.61  1.25  3.24
 H -1.87  0.27  6.06
 H -3.27  1.27  5.74
 H -2.03  3.19  5.30
 H -0.71  2.33  4.53
 H -0.82  3.32  7.19
 H  1.46  3.71  7.65
 H  2.42  2.28  7.79
 H  0.16  0.28  6.16
 N -1.52 -2.65  3.80
 C -2.76 -2.74  3.03
 H -1.19 -3.53  4.21
 H -3.64 -2.74  3.70
 H -2.76 -3.67  2.46
 H -2.85 -1.91  2.32
Ca  2.13 -0.45  4.69
