36
#
 C -0.68 -0.47 -0.93
 C -0.34  0.07  0.42
 O  0.10  1.26  0.55
 H -1.66 -0.08 -1.26
 H -0.71 -1.57 -0.95
 H  0.06 -0.11 -1.64
 N -0.52 -0.68  1.53
 C -1.76 -1.42  1.79
 C -2.92 -0.39  1.83
 O -2.64  0.87  1.89
 H -0.11 -0.27  2.37
 H -1.94 -2.13  0.97
 C -1.66 -2.19  3.12
 C -1.41 -1.30  4.35
 C -2.08 -1.82  5.65
 N -3.46 -2.24  5.49
 C -4.50 -1.38  5.15
 N -5.72 -2.01  4.96
 N -4.41 -0.12  4.88
 H -0.87 -2.95  3.01
 H -2.59 -2.75  3.27
 H -1.79 -0.29  4.15
 H -0.34 -1.21  4.56
 H -1.98 -1.04  6.42
 H -1.53 -2.70  6.01
 H -3.71 -3.11  5.94
 H -6.51 -1.38  5.07
 H -5.87 -2.90  5.44
 H -3.50  0.25  5.15
 N -4.18 -0.77  1.84
 C -4.75 -2.11  1.72
 H -4.84 -0.03  2.08
 H -4.00 -2.83  1.38
 H -5.56 -2.07  0.98
 H -5.16 -2.42  2.69
Ca -1.36  2.51  1.53
