36
#
 C -3.74  0.59 -2.89
 C -2.43  0.90 -2.24
 O -1.44  1.30 -2.94
 H -4.25  1.52 -3.18
 H -4.40 -0.00 -2.25
 H -3.53  0.05 -3.82
 N -2.27  0.77 -0.90
 C -3.23  1.29  0.07
 C -3.28  2.83 -0.11
 O -2.43  3.42 -0.87
 H -1.30  0.81 -0.59
 H -4.23  0.88 -0.16
 C -2.80  0.84  1.49
 C -3.80  1.04  2.63
 C -5.14  0.31  2.46
 N -5.88  0.27  3.70
 C -5.50 -0.66  4.70
 N -6.30 -0.58  5.82
 N -4.53 -1.51  4.66
 H -1.85  1.33  1.74
 H -2.59 -0.24  1.40
 H -3.97  2.11  2.85
 H -3.32  0.65  3.54
 H -4.95 -0.71  2.05
 H -5.79  0.81  1.72
 H -6.88  0.39  3.62
 H -6.03 -1.20  6.57
 H -6.67  0.32  6.10
 H -4.13 -1.60  3.72
 N -4.20  3.50  0.55
 C -4.39  4.95  0.57
 H -4.83  2.95  1.14
 H -5.39  5.20  0.19
 H -3.63  5.42 -0.06
 H -4.29  5.32  1.59
Ca -0.96  3.35 -2.44
