36
#
 C -1.56  1.57  0.04
 C -1.92  0.40  0.89
 O -2.42 -0.64  0.37
 H -1.11  2.40  0.59
 H -2.47  1.93 -0.47
 H -0.87  1.24 -0.75
 N -1.70  0.50  2.22
 C -2.07 -0.46  3.28
 C -1.23 -1.75  3.18
 O -1.51 -2.65  2.33
 H -1.30  1.37  2.53
 H -1.79  0.04  4.21
 C -3.59 -0.72  3.34
 C -4.03 -1.76  4.39
 C -4.51 -3.10  3.82
 N -5.72 -2.97  3.01
 C -5.89 -3.42  1.74
 N -7.17 -3.65  1.36
 N -4.86 -3.59  0.91
 H -3.98 -1.00  2.35
 H -4.05  0.26  3.55
 H -4.83 -1.33  5.01
 H -3.21 -1.97  5.10
 H -4.72 -3.78  4.66
 H -3.74 -3.58  3.22
 H -6.57 -2.74  3.52
 H -7.40 -3.79  0.39
 H -7.92 -3.74  2.03
 H -5.19 -4.12  0.10
 N -0.22 -1.88  4.03
 C  0.70 -3.01  4.09
 H -0.05 -1.11  4.68
 H  1.66 -2.75  3.63
 H  0.26 -3.86  3.55
 H  0.87 -3.29  5.13
Ca -2.74 -2.80  0.52
