36
#
 C  1.07 -1.53  1.24
 C  0.46 -0.42  2.03
 O  1.21  0.42  2.64
 H  1.65 -1.08  0.42
 H  0.34 -2.22  0.82
 H  1.78 -2.09  1.86
 N -0.87 -0.33  2.08
 C -1.69  0.78  2.62
 C -1.78  0.73  4.16
 O -0.69  0.88  4.83
 H -1.39 -1.05  1.59
 H -1.12  1.71  2.42
 C -3.01  0.86  1.84
 C -3.83 -0.45  1.72
 C -5.32 -0.23  2.02
 N -5.48  0.13  3.43
 C -6.21  1.26  3.91
 N -6.90  1.98  2.96
 N -6.04  1.53  5.15
 H -2.77  1.24  0.84
 H -3.62  1.64  2.32
 H -3.46 -1.23  2.41
 H -3.73 -0.87  0.70
 H -5.89 -1.13  1.77
 H -5.69  0.59  1.38
 H -5.66 -0.66  4.04
 H -7.40  1.48  2.24
 H -7.40  2.79  3.31
 H -6.66  2.28  5.49
 N -2.93  0.59  4.76
 C -3.11  0.61  6.22
 H -3.82  0.49  4.20
 H -4.17  0.80  6.40
 H -2.50  1.41  6.66
 H -2.80 -0.35  6.65
Ca  1.35  1.24  4.58
