36
#
 C -0.13 -0.38 -0.19
 C -0.10 -0.09  1.27
 O  1.03  0.08  1.87
 H  0.39  0.42 -0.74
 H -1.15 -0.47 -0.58
 H  0.40 -1.32 -0.39
 N -1.24 -0.03  1.94
 C -1.43  0.19  3.37
 C -2.92 -0.21  3.58
 O -3.66 -0.11  2.60
 H -2.16 -0.13  1.47
 H -0.73 -0.45  3.92
 C -1.18  1.68  3.73
 C -0.80  1.92  5.20
 C -0.13  3.28  5.47
 N  0.95  3.63  4.52
 C  1.97  2.85  4.16
 N  2.69  3.18  2.96
 N  2.37  1.72  4.69
 H -2.07  2.27  3.46
 H -0.37  2.04  3.08
 H -0.15  1.10  5.54
 H -1.68  1.88  5.85
 H  0.26  3.31  6.49
 H -0.86  4.08  5.38
 H  0.89  4.56  4.10
 H  3.62  3.55  3.17
 H  2.21  3.84  2.35
 H  1.98  1.52  5.61
 N -3.35 -0.60  4.79
 C -2.61 -0.94  6.00
 H -4.35 -0.79  4.80
 H -2.95 -1.90  6.38
 H -2.75 -0.18  6.78
 H -1.54 -1.03  5.78
Ca  2.86  0.63  2.73
