36
#
 C -0.93 -1.20  0.89
 C -0.68 -0.33  2.07
 O  0.37  0.39  2.14
 H -0.96 -0.57 -0.01
 H -1.86 -1.77  0.96
 H -0.08 -1.89  0.76
 N -1.58 -0.30  3.06
 C -1.50  0.65  4.18
 C -0.31  0.30  5.12
 O  0.72  1.06  5.02
 H -2.45 -0.82  2.95
 H -1.16  1.60  3.74
 C -2.87  1.01  4.80
 C -3.86 -0.02  5.35
 C -4.42 -1.05  4.34
 N -5.73 -1.51  4.72
 C -6.85 -0.69  4.45
 N -8.03 -1.27  4.85
 N -6.85  0.47  3.89
 H -3.38  1.59  4.02
 H -2.65  1.74  5.60
 H -3.49 -0.53  6.25
 H -4.72  0.57  5.69
 H -3.77 -1.95  4.29
 H -4.43 -0.61  3.32
 H -5.91 -2.50  4.61
 H -8.84 -0.68  4.73
 H -8.02 -1.81  5.71
 H -5.95  0.72  3.47
 N -0.27 -0.71  5.96
 C -1.19 -1.81  6.20
 H  0.60 -0.73  6.51
 H -1.93 -1.88  5.41
 H -1.70 -1.69  7.17
 H -0.61 -2.74  6.23
Ca  1.77  1.56  3.23
