36
#
 C -0.53 -0.18 -0.71
 C -0.63 -0.64  0.70
 O  0.08 -1.61  1.12
 H  0.30  0.55 -0.79
 H -1.44  0.31 -1.07
 H -0.29 -1.03 -1.35
 N -1.47 -0.07  1.57
 C -2.21  1.19  1.48
 C -1.31  2.36  1.01
 O -0.11  2.44  1.35
 H -1.48 -0.51  2.48
 H -3.03  1.08  0.76
 C -2.86  1.50  2.87
 C -2.20  1.00  4.17
 C -0.85  1.58  4.62
 N  0.29  1.31  3.74
 C  1.12  0.27  3.75
 N  0.89 -0.87  4.58
 N  2.16  0.09  2.95
 H -3.88  1.08  2.86
 H -3.00  2.59  2.94
 H -2.15 -0.11  4.18
 H -2.91  1.23  4.98
 H -0.62  1.24  5.64
 H -0.92  2.68  4.69
 H  0.31  1.87  2.86
 H  1.63 -0.99  5.27
 H -0.01 -0.87  5.06
 H  2.43  0.93  2.44
 N -1.93  3.27  0.25
 C -1.31  4.51 -0.22
 H -2.90  3.11 -0.01
 H -1.87  5.37  0.15
 H -1.29  4.53 -1.31
 H -0.28  4.55  0.16
Ca  1.73 -2.05  2.42
