36
#
 C  0.70  1.56 -0.14
 C  0.53  1.11  1.27
 O  1.29  1.57  2.18
 H  0.40  2.62 -0.25
 H  0.14  0.95 -0.86
 H  1.77  1.51 -0.38
 N -0.42  0.20  1.59
 C -1.82  0.40  1.17
 C -2.49  1.36  2.21
 O -1.66  2.24  2.76
 H -0.33 -0.13  2.55
 H -1.78  0.99  0.23
 C -2.55 -0.90  0.84
 C -2.64 -1.92  1.98
 C -3.57 -3.12  1.71
 N -4.89 -2.81  1.13
 C -5.62 -1.71  1.37
 N -6.49 -1.26  0.45
 N -5.48 -1.00  2.51
 H -2.06 -1.35 -0.03
 H -3.55 -0.60  0.49
 H -2.92 -1.42  2.91
 H -1.65 -2.37  2.16
 H -3.70 -3.70  2.64
 H -3.10 -3.80  0.99
 H -5.23 -3.44  0.40
 H -7.24 -0.64  0.75
 H -6.53 -1.63 -0.49
 H -5.03 -1.50  3.27
 N -3.75  1.30  2.43
 C -4.32  2.31  3.33
 H -5.12 -0.03  2.41
 H -5.40  2.15  3.42
 H -4.15  3.33  2.95
 H -3.88  2.26  4.34
Ca  0.14  2.93  3.45
