36
#
 C  0.45 -0.50 -0.28
 C  0.02 -0.07  1.08
 O  0.76 -0.32  2.10
 H  1.42 -0.05 -0.52
 H -0.27 -0.22 -1.06
 H  0.58 -1.59 -0.29
 N -1.13  0.56  1.22
 C -1.78  1.05  2.43
 C -3.28  1.12  1.99
 O -3.51  1.35  0.80
 H -1.73  0.75  0.40
 H -1.62  0.33  3.25
 C -1.24  2.46  2.80
 C -1.73  3.05  4.14
 C -0.73  2.97  5.30
 N -0.40  1.59  5.71
 C  0.73  0.94  5.41
 N  0.77 -0.48  5.68
 N  1.81  1.36  4.81
 H -1.53  3.13  1.97
 H -0.14  2.42  2.77
 H -2.69  2.62  4.44
 H -1.94  4.12  4.00
 H -1.14  3.48  6.18
 H  0.20  3.49  5.05
 H -1.06  1.14  6.33
 H  1.35 -0.67  6.50
 H -0.15 -0.91  5.82
 H  1.87  2.37  4.69
 N -4.21  0.98  2.95
 C -5.65  1.08  2.67
 H -3.93  0.69  3.87
 H -6.14  1.64  3.47
 H -6.10  0.08  2.59
 H -5.78  1.60  1.72
Ca  2.22 -0.53  3.59
