36
#
 C -1.03 -0.35 -0.29
 C -0.73  0.06  1.12
 O  0.37  0.65  1.39
 H -1.98 -0.89 -0.39
 H -0.21 -0.97 -0.67
 H -1.06  0.55 -0.91
 N -1.62 -0.20  2.07
 C -1.61  0.28  3.46
 C -0.62 -0.56  4.31
 O  0.63 -0.26  4.18
 H -2.48 -0.67  1.79
 H -1.10  1.26  3.44
 C -3.03  0.52  3.99
 C -4.16 -0.39  3.45
 C -5.31 -0.59  4.47
 N -5.67  0.58  5.24
 C -5.21  0.77  6.53
 N -5.93  1.70  7.25
 N -4.15  0.14  6.93
 H -3.28  1.56  3.74
 H -3.02  0.48  5.09
 H -3.81 -1.40  3.18
 H -4.57  0.05  2.53
 H -5.03 -1.37  5.19
 H -6.20 -0.95  3.93
 H -6.47  1.13  4.94
 H -6.92  1.81  7.08
 H -5.65  1.85  8.21
 H -3.98  0.29  7.92
 N -0.93 -1.51  5.16
 C -2.22 -2.10  5.55
 H -0.11 -1.89  5.64
 H -2.87 -1.36  6.06
 H -2.00 -2.92  6.24
 H -2.73 -2.52  4.68
Ca  1.91  0.72  2.83
