36
#
 C  0.72  0.47  0.24
 C  0.16 -0.52  1.21
 O  0.80 -1.59  1.49
 H  0.08  1.35  0.11
 H  0.86 -0.02 -0.73
 H  1.71  0.79  0.59
 N -1.02 -0.29  1.78
 C -1.68 -1.25  2.68
 C -3.23 -1.27  2.64
 O -3.75 -2.38  2.60
 H -1.51  0.57  1.54
 H -1.45 -2.24  2.25
 C -1.12 -1.17  4.12
 C -1.65 -2.23  5.09
 C -1.61 -3.70  4.66
 N -0.25 -4.23  4.27
 C  0.82 -4.10  5.25
 N  0.56 -4.38  6.53
 N  1.95 -3.71  4.72
 H -1.33 -0.18  4.54
 H -0.02 -1.21  4.06
 H -2.71 -2.03  5.31
 H -1.12 -2.09  6.05
 H -2.26 -3.85  3.78
 H -2.04 -4.31  5.47
 H -0.38 -5.23  4.09
 H  1.28 -4.30  7.24
 H -0.34 -4.73  6.83
 H  2.74 -3.65  5.37
 N -3.94 -0.12  2.70
 C -3.50  1.27  2.80
 H -4.95 -0.28  2.65
 H -4.29  1.85  3.30
 H -3.33  1.73  1.82
 H -2.60  1.37  3.42
Ca  1.35 -3.37  2.52
