36
#
 C  0.14  0.47 -0.38
 C  0.16 -0.10  1.00
 O  1.04 -0.96  1.33
 H -0.86  0.79 -0.69
 H  0.54 -0.27 -1.08
 H  0.81  1.35 -0.42
 N -0.74  0.31  1.91
 C -1.03  1.74  2.12
 C  0.31  2.49  2.42
 O  1.35  1.74  2.73
 H -0.70 -0.22  2.79
 H -1.42  2.15  1.18
 C -2.08  1.88  3.25
 C -3.56  1.71  2.83
 C -4.35  2.98  2.49
 N -4.02  3.63  1.21
 C -2.93  4.37  0.97
 N -2.50  4.55 -0.30
 N -2.19  4.91  1.95
 H -1.93  2.85  3.74
 H -1.84  1.14  4.02
 H -4.10  1.25  3.67
 H -3.64  0.99  2.00
 H -4.27  3.71  3.31
 H -5.41  2.73  2.42
 H -4.67  3.47  0.44
 H -1.94  5.36 -0.51
 H -2.99  4.12 -1.08
 H -2.63  4.92  2.87
 N  0.30  3.77  2.32
 C  1.52  4.52  2.62
 H -1.15  4.66  1.98
 H  2.23  4.45  1.78
 H  1.27  5.58  2.75
 H  2.02  4.15  3.52
Ca  2.48  0.03  2.65
