36
#
 C -0.08 -0.88  0.25
 C -0.15 -0.74  1.74
 O  0.94 -0.68  2.42
 H  0.74 -1.57 -0.02
 H  0.19  0.10 -0.16
 H -1.03 -1.21 -0.20
 N -1.36 -0.70  2.30
 C -1.82 -0.39  3.66
 C -0.93 -0.78  4.83
 O -0.11 -1.76  4.81
 H -2.19 -0.80  1.64
 H -1.96  0.70  3.71
 C -3.20 -1.10  3.86
 C -4.45 -0.36  3.34
 C -4.42  0.20  1.92
 N -3.81 -0.74  0.97
 C -3.67 -0.44 -0.42
 N -4.10  0.80 -0.81
 N -3.05 -1.34 -1.11
 H -3.35 -1.29  4.93
 H -3.10 -2.10  3.41
 H -4.69  0.47  4.02
 H -5.28 -1.07  3.44
 H -3.82  1.13  1.88
 H -5.45  0.48  1.65
 H -4.16 -1.70  1.06
 H -4.03  1.01 -1.80
 H -4.91  1.22 -0.36
 H -3.04 -1.14 -2.11
 N -1.08 -0.10  5.96
 C -1.96  1.04  6.24
 H -0.55 -0.47  6.75
 H -1.83  1.84  5.50
 H -1.69  1.44  7.23
 H -3.01  0.73  6.27
Ca  1.76 -1.98  3.81
