36
#
 C  1.33 -0.77  0.96
 C  0.79  0.22  1.93
 O  1.53  0.71  2.85
 H  0.79 -0.79  0.01
 H  1.23 -1.78  1.43
 H  2.40 -0.59  0.79
 N -0.51  0.55  1.82
 C -1.41  1.17  2.83
 C -1.15  2.68  2.99
 O -0.06  3.10  3.50
 H -1.00  0.11  1.05
 H -2.41  1.05  2.40
 C -1.41  0.47  4.21
 C -1.99 -0.96  4.24
 C -1.21 -1.95  3.37
 N -1.45 -3.34  3.74
 C -0.79 -4.33  2.97
 N  0.57 -4.03  2.76
 N -1.29 -5.39  2.47
 H -2.01  1.10  4.89
 H -0.39  0.45  4.63
 H -3.05 -0.94  3.96
 H -1.95 -1.30  5.28
 H -0.14 -1.77  3.48
 H -1.46 -1.79  2.30
 H -2.44 -3.57  3.85
 H  1.00 -4.82  2.27
 H  1.07 -3.87  3.64
 H -2.30 -5.46  2.57
 N -2.11  3.51  2.64
 C -2.09  4.96  2.78
 H -2.95  3.10  2.23
 H -3.01  5.29  3.28
 H -2.04  5.43  1.79
 H -1.23  5.26  3.38
Ca  1.89  2.42  4.01
