36
#
 C -0.04 -0.12  1.33
 C -1.23 -1.03  1.43
 O -1.13 -2.17  1.98
 H  0.06  0.46  2.26
 H -0.10  0.57  0.49
 H  0.86 -0.74  1.24
 N -2.44 -0.64  0.96
 C -2.96  0.70  1.15
 C -3.17  0.92  2.68
 O -2.96 -0.02  3.50
 H -3.12 -1.41  0.92
 H -2.16  1.40  0.85
 C -4.18  1.02  0.25
 C -5.64  0.77  0.69
 C -6.23 -0.65  0.70
 N -5.93 -1.40  1.92
 C -5.03 -2.39  2.11
 N -4.42 -2.93  0.99
 N -4.61 -2.81  3.29
 H -3.99  0.53 -0.72
 H -4.12  2.10  0.02
 H -6.26  1.34 -0.01
 H -5.84  1.24  1.67
 H -5.90 -1.21 -0.18
 H -7.32 -0.58  0.62
 H -6.33 -1.02  2.77
 H -4.02 -3.85  1.16
 H -4.93 -2.89  0.11
 H -5.22 -2.47  4.04
 N -3.52  2.14  3.07
 C -3.72  2.58  4.45
 H -3.64  2.85  2.35
 H -4.72  3.01  4.57
 H -2.97  3.33  4.72
 H -3.62  1.72  5.12
Ca -2.43 -2.20  3.77
