36
#
 C -0.79  1.24 -0.41
 C -0.91  0.35  0.78
 O -0.05 -0.58  0.97
 H  0.19  1.73 -0.41
 H -1.57  2.01 -0.46
 H -0.84  0.62 -1.32
 N -1.90  0.55  1.64
 C -2.21 -0.22  2.86
 C -3.38  0.52  3.57
 O -3.14  1.23  4.54
 H -2.53  1.32  1.43
 H -2.53 -1.23  2.55
 C -1.03 -0.37  3.84
 C -0.19  0.89  4.12
 C  1.31  0.64  4.27
 N  1.67 -0.35  5.28
 C  2.29 -1.53  5.06
 N  2.81 -2.15  6.14
 N  2.37 -2.07  3.83
 H -0.38 -1.20  3.50
 H -1.46 -0.74  4.78
 H -0.58  1.39  5.02
 H -0.31  1.63  3.32
 H  1.82  1.59  4.53
 H  1.77  0.32  3.32
 H  1.56 -0.06  6.25
 H  3.14 -3.11  6.09
 H  2.90 -1.69  7.04
 H  3.03 -2.85  3.87
 N -4.61  0.39  3.02
 C -5.07 -0.58  2.02
 H -5.33  0.90  3.53
 H -4.42 -0.59  1.14
 H -6.07 -0.28  1.69
 H -5.14 -1.59  2.43
Ca  1.39 -1.88  1.81
