36
#
 C -0.26  1.41  0.34
 C -0.34  0.91  1.75
 O  0.78  0.42  2.25
 H  0.50  2.20  0.27
 H -1.21  1.81 -0.01
 H  0.08  0.60 -0.33
 N -1.49  0.98  2.37
 C -1.69  0.45  3.73
 C -0.80  1.14  4.79
 O  0.37  0.75  5.08
 H -3.20  0.65  1.46
 H -2.71  0.76  3.99
 C -1.63 -1.10  3.81
 C -2.79 -1.77  4.56
 C -4.21 -1.60  3.97
 N -4.32 -2.01  2.56
 C -4.01 -1.22  1.52
 N -3.60 -1.76  0.36
 N -4.08  0.12  1.60
 H -0.70 -1.42  4.29
 H -1.58 -1.48  2.78
 H -2.84 -1.42  5.60
 H -2.57 -2.85  4.63
 H -4.56 -0.57  4.08
 H -4.92 -2.21  4.54
 H -4.49 -2.99  2.38
 H -3.69 -1.22 -0.49
 H -3.39 -2.75  0.28
 H -4.64  0.50  2.35
 N -1.32  2.20  5.39
 C -0.63  3.03  6.38
 H -2.25  2.49  5.10
 H -1.37  3.48  7.04
 H -0.06  3.83  5.89
 H  0.05  2.40  6.96
Ca  2.00  0.13  3.83
