36
#
 C  1.12  1.77  1.16
 C  0.69  0.83  2.24
 O  1.55  0.39  3.08
 H  1.56  2.67  1.62
 H  1.91  1.30  0.56
 H  0.29  2.08  0.51
 N -0.59  0.47  2.29
 C -1.21 -0.54  3.17
 C -1.13 -0.09  4.64
 O -0.11 -0.34  5.36
 H -1.21  0.72  1.46
 H -2.26 -0.50  2.89
 C -0.73 -2.00  2.95
 C -1.90 -2.96  2.63
 C -2.21 -3.18  1.13
 N -2.05 -2.01  0.26
 C -2.67 -0.80  0.41
 N -3.84 -0.80  1.16
 N -2.20  0.35 -0.00
 H -0.22 -2.37  3.86
 H  0.01 -2.02  2.14
 H -2.80 -2.61  3.15
 H -1.69 -3.96  3.06
 H -3.21 -3.62  1.03
 H -1.52 -3.94  0.72
 H -1.23 -2.00 -0.33
 H -4.39  0.04  0.98
 H -4.40 -1.64  1.11
 H -1.38  0.21 -0.60
 N -2.16  0.54  5.17
 C -3.42  0.95  4.52
 H -2.04  0.80  6.15
 H -4.07  1.38  5.30
 H -3.93  0.10  4.07
 H -3.23  1.72  3.76
Ca  1.98 -0.38  4.96
