36
#
 C  0.09 -0.07  0.14
 C -0.00 -0.27  1.61
 O  1.06 -0.60  2.28
 H  0.28  1.00 -0.06
 H -0.84 -0.36 -0.37
 H  0.94 -0.63 -0.27
 N -1.20 -0.13  2.16
 C -1.71 -0.10  3.54
 C -0.97 -0.89  4.60
 O -0.30 -1.95  4.37
 H -1.99  0.12  1.48
 H -1.71  0.96  3.86
 C -3.19 -0.62  3.50
 C -4.29  0.41  3.19
 C -4.15  1.29  1.94
 N -3.47  0.64  0.81
 C -3.96 -0.54  0.16
 N -5.28 -0.84  0.38
 N -3.07 -1.21 -0.48
 H -3.43 -1.07  4.47
 H -3.21 -1.45  2.77
 H -4.43  1.08  4.05
 H -5.22 -0.18  3.13
 H -3.54  2.18  2.17
 H -5.15  1.69  1.68
 H -3.16  1.31  0.11
 H -5.95 -0.09  0.49
 H -5.65 -1.65 -0.11
 H -3.46 -1.98 -1.03
 N -1.10 -0.49  5.87
 C -1.84  0.67  6.39
 H -0.69 -1.12  6.55
 H -1.59  0.77  7.45
 H -2.92  0.52  6.30
 H -1.54  1.59  5.89
Ca  1.54 -2.30  3.36
