36
#
 C -0.96 -0.51 -0.51
 C -0.85 -0.72  0.96
 O  0.21 -1.23  1.45
 H -1.90 -0.04 -0.81
 H -0.87 -1.49 -1.01
 H -0.12  0.10 -0.86
 N -1.88 -0.37  1.74
 C -2.11 -0.61  3.18
 C -1.18  0.22  4.08
 O  0.07 -0.01  4.11
 H -2.68  0.03  1.24
 H -3.13 -0.27  3.35
 C -2.04 -2.10  3.59
 C -3.08 -3.00  2.91
 C -4.55 -2.68  3.29
 N -5.44 -3.81  3.17
 C -5.32 -4.90  4.05
 N -6.04 -6.01  3.64
 N -4.61 -4.95  5.13
 H -2.19 -2.14  4.69
 H -1.03 -2.50  3.41
 H -2.87 -4.03  3.23
 H -2.95 -2.99  1.82
 H -4.96 -1.88  2.66
 H -4.59 -2.32  4.33
 H -5.76 -4.04  2.23
 H -6.06 -6.74  4.34
 H -6.94 -5.84  3.20
 H -4.07 -4.10  5.29
 N -1.69  1.15  4.87
 C -3.09  1.58  5.01
 H -1.01  1.61  5.48
 H -3.11  2.44  5.69
 H -3.70  0.78  5.46
 H -3.51  1.89  4.05
Ca  1.51 -1.21  3.11
