500
set: 1075.00  0.00  0.00
Si  0.43 -1.08  0.84
Si -0.45  1.24 -0.78
Si -1.25 -1.15 -0.83
Si  1.36  1.22  0.74
Si  2.11 -1.17 -0.83
Si -2.14  1.15  0.87
Si  0.81  0.06 -2.46
Si -0.87 -0.04  2.46
Si  0.01  2.22  2.40
Si -3.05 -1.13  0.81
Si -0.00 -2.34 -2.43
Si  3.10  1.08 -0.83
Si -0.42 -3.44  0.74
Si  2.58  0.01  2.45
Si -2.58 -0.01 -2.48
Si  0.54  3.50 -0.83
Si -1.76  2.31 -2.40
Si  1.78  2.32 -2.43
Si  1.71 -2.36  2.47
Si -1.26  3.53  0.81
Si -1.78 -2.44  2.40
Si  1.31 -3.57 -0.83
Si -3.85  1.08 -0.83
Si  3.91 -1.13  0.81
Si -2.23 -3.42 -0.78
Si  0.89 -0.01  4.06
Si -0.89 -0.11 -4.09
Si  2.22  3.58  0.84
Si  0.02  2.28 -4.03
Si -0.08 -2.27  4.04
Si  3.02 -3.50  0.87
Si -3.06  3.49 -0.83
Si  3.40 -2.35 -2.40
Si  2.60 -0.03 -4.02
Si -3.46  2.29  2.47
Si  3.50  2.29  2.47
Si -2.65 -0.02  4.10
Si -3.55 -2.35 -2.40
Si -1.68  2.32  4.01
Si  1.69 -2.32 -4.04
Si  1.71  2.38  4.04
Si -1.77 -2.37 -4.03
Si -4.37  0.01  2.45
Si  4.81  1.15  0.87
Si  4.38 -0.01 -2.48
Si -4.85 -1.17 -0.83
Si  3.89  3.49 -0.83
Si -0.98 -4.60 -2.46
Si  0.91  4.61  2.46
Si  0.80 -4.65  2.45
Si -0.79  4.65 -2.48
Si -3.93 -3.50  0.87
Si -5.59  1.22  0.74
Si -0.35  1.17  5.66
Si -3.47 -2.33  4.01
Si  3.48 -2.33  4.01
Si  3.48  2.33 -4.04
Si -3.48  2.33 -4.04
Si -2.58  4.66  2.45
Si  0.47 -1.11 -5.75
Si  5.70 -1.15 -0.83
Si  2.59 -4.66 -2.48
Si  4.72 -3.42 -0.78
Si -0.36  5.81  0.87
Si  0.32 -5.82 -0.83
Si  2.60  4.71 -2.46
Si -4.36 -0.03 -4.02
Si -2.66 -4.70  2.46
Si  4.30 -0.02  4.10
Si  1.32  1.25 -5.66
Si -1.36 -5.73  0.84
Si -1.34 -1.09  5.72
Si -4.74  3.58  0.84
Si  1.34  5.89 -0.78
Si -2.06  5.74 -0.83
Si  5.19  2.31 -2.40
Si -5.17  2.32 -2.43
Si  0.90  4.55 -4.09
Si -2.16  1.20 -5.69
Si  5.17 -2.44  2.40
Si  2.21 -1.25  5.67
Si  2.12 -5.78  0.81
Si  0.81 -4.69 -4.02
Si -0.87  4.63  4.10
Si -0.90 -4.66  4.06
Si -5.25 -2.36  2.47
Si -3.04 -1.17 -5.62
Si  3.00  1.16  5.66
Si  6.08 -0.04  2.46
Si -3.04 -5.81 -0.83
Si -0.47 -3.40 -5.66
Si -6.14  0.06 -2.46
Si -2.57  4.62 -4.02
Si -6.53 -1.08  0.84
Si  6.51  1.24 -0.78
Si  2.51 -4.68  4.10
Si  3.15  5.87  0.74
Si  2.68  4.64  4.06
Si -5.64 -3.57 -0.83
Si -1.25  3.48 -5.62
Si  5.69  3.53  0.81
Si  0.45  3.56  5.72
Si  1.22 -3.49  5.66
Si  4.29 -4.70  2.46
Si -2.68 -4.76 -4.09
Si  4.37  4.66  2.45
Si -4.37 -4.66 -2.48
Si -4.36  4.71 -2.46
Si  3.92 -1.17 -5.62
Si -2.14 -3.48  5.66
Si  5.18 -2.37 -4.03
Si -3.95  1.16  5.66
Si  5.27  2.32  4.01
Si -5.27 -2.32 -4.04
Si -3.80  5.87  0.74
Si -5.25  2.38  4.04
Si  3.92 -5.81 -0.83
Si  2.26  3.55 -5.75
Si -2.96  3.41  5.67
Si -6.06 -0.01  4.06
Si  3.01 -3.46 -5.69
Si  6.06 -0.11 -4.09
Si  0.47 -1.11  7.23
Si -6.42  3.50 -0.83
Si  0.02  6.96 -2.40
Si  6.53 -3.44  0.74
Si -0.36  1.17 -7.33
Si -0.08 -7.01  2.47
Si -1.34 -1.09 -7.27
Si -4.74 -1.25  5.67
Si  1.79  6.87  2.40
Si -4.28  4.64  4.06
Si  7.38 -1.08  0.84
Si  4.80  1.20 -5.69
Si  4.39  4.62 -4.02
Si -7.40  1.24 -0.78
Si  1.32  1.25  7.33
Si -1.67  6.95  2.47
Si  1.62 -7.00 -2.40
Si -4.83 -5.78  0.81
Si  4.89  5.74 -0.83
Si  4.28 -4.76 -4.09
Si -1.79 -6.99 -2.43
Si -4.44 -4.68  4.10
Si -6.95  2.22  2.40
Si  6.96  2.22  2.40
Si -2.15  1.20  7.30
Si  6.95 -2.34 -2.43
Si  4.00  3.41  5.67
Si -6.96 -2.34 -2.43
Si -3.94 -3.46 -5.69
Si  2.21 -1.25 -7.32
Si  5.98 -4.60 -2.46
Si -6.04  4.61  2.46
Si  3.00  1.16 -7.32
Si  0.10  6.97  4.01
Si -3.03 -1.18  7.37
Si  5.60 -5.73  0.84
Si -0.10 -6.98 -4.04
Si -5.63  1.25 -5.66
Si  5.62 -1.09  5.72
Si -0.46 -3.40  7.33
Si -6.16 -4.65  2.45
Si  0.45  3.56 -7.27
Si  6.16  4.65 -2.48
Si -3.38  6.97 -2.43
Si  7.76  0.06 -2.46
Si -0.37  5.85 -5.69
Si -7.38 -3.44  0.74
Si -5.61  5.89 -0.78
Si  0.42 -5.90  5.67
Si  1.21 -3.49 -7.32
Si  3.57  6.97 -2.43
Si  4.81 -3.48  5.66
Si -7.83 -0.04  2.46
Si  3.38 -7.09  2.40
Si  1.80  6.94 -4.03
Si -1.87 -6.93  4.04
Si -4.70  3.55 -5.75
Si  1.70 -6.99  4.01
Si  0.53  8.18  0.81
Si -1.25  3.48  7.37
Si  1.43  5.83  5.66
Si -1.69  6.99 -4.04
Si -1.32 -5.76 -5.75
Si -0.47 -8.23 -0.83
Si -1.27  8.14 -0.83
Si  6.87 -2.27  4.04
Si -3.57 -7.09  2.40
Si  1.24 -8.16  0.87
Si  7.49  3.50 -0.83
Si -8.21 -1.15 -0.83
Si -6.94  2.28 -4.03
Si  2.26  3.54  7.23
Si  6.97  2.28 -4.03
Si  2.13 -5.83 -5.62
Si -2.15 -3.48 -7.33
Si -2.16  5.82  5.66
Si -3.96  1.16 -7.32
Si -2.21 -8.09  0.74
Si -7.04 -2.27  4.04
Si  3.92 -1.18  7.37
Si  8.32  1.22  0.74
Si  2.32  8.15 -0.83
Si -2.96  3.41 -7.32
Si -6.06  4.55 -4.09
Si  3.02 -3.46  7.30
Si  2.94 -8.07 -0.78
Si  6.06 -4.66  4.06
Si  6.09  4.63  4.10
Si -3.12 -5.75  5.72
Si -6.14 -4.69 -4.02
Si  5.70  3.48 -5.62
Si -6.49 -1.11 -5.75
Si  3.11  5.91 -5.66
Si  6.60  1.17  5.66
Si  3.40 -7.03 -4.03
Si -2.95  8.23  0.84
Si -5.74 -3.49  5.66
Si -4.75 -1.25 -7.32
Si  4.80  1.20  7.30
Si -3.46  7.04  4.04
Si  6.60  5.81  0.87
Si  3.49  7.04  4.04
Si  7.85 -0.01  4.06
Si -3.56 -7.03 -4.03
Si -7.85 -0.11 -4.09
Si -6.63 -5.82 -0.83
Si -5.16  6.87  2.40
Si -0.89 -0.11  8.89
Si  3.83 -5.75  5.72
Si  0.89 -0.01 -8.92
Si -8.22  3.53  0.81
Si -3.94 -3.46  7.30
Si  3.99  3.41 -7.32
Si  5.16 -6.99 -2.43
Si -3.85  5.91 -5.66
Si  8.27 -3.57 -0.83
Si -4.02 -8.07 -0.78
Si  5.28  6.95  2.47
Si -5.34 -7.00 -2.40
Si  9.06 -1.17 -0.83
Si  4.00  8.23  0.84
Si -9.10  1.15  0.87
Si -0.09 -2.27 -8.95
Si  0.02  2.28  8.96
Si  5.61 -1.09 -7.27
Si  6.49 -3.40 -5.66
Si -2.66 -0.02 -8.89
Si  8.66 -2.36  2.47
Si -7.31  1.17  5.66
Si -4.69  3.54  7.23
Si -5.63  1.25  7.33
Si -8.72  2.31 -2.40
Si  2.60 -0.03  8.96
Si -1.31 -5.76  7.23
Si  7.28 -5.82 -0.83
Si  8.74  2.32 -2.43
Si -0.36  5.85  7.30
Si -6.50  3.56  5.72
Si  7.75 -4.65  2.45
Si -7.75  4.65 -2.48
Si -7.31  5.81  0.87
Si -8.74 -2.44  2.40
Si  1.69 -2.32  8.94
Si  4.75 -8.09  0.74
Si  0.42 -5.90 -7.32
Si -4.63  8.15 -0.83
Si  1.70  2.38 -8.95
Si -1.69  2.32 -8.98
Si  4.79  5.82  5.66
Si -4.83 -5.83 -5.62
Si  4.81 -3.48 -7.33
Si -1.76 -2.37  8.96
Si  7.87  4.61  2.46
Si  7.42 -1.11 -5.75
Si  1.43  5.83 -7.33
Si -7.93 -4.60 -2.46
Si  5.09 -6.93  4.04
Si -5.15  6.94 -4.03
Si -2.17  5.82 -7.32
Si -5.26 -6.99  4.01
Si  2.13 -5.83  7.37
Si  5.26  6.99 -4.04
Si -0.80  9.31  2.45
Si -0.99 -9.30  2.45
Si  0.80 -9.32 -2.48
Si  0.99  9.30 -2.48
Si -6.48 -1.11  7.23
Si -3.13 -5.75 -7.27
Si -8.64  2.32  4.01
Si  8.64 -2.32 -4.04
Si -5.52  5.83  5.66
Si -9.19 -3.42 -0.78
Si  8.66  2.38  4.04
Si  9.54  0.01  2.45
Si -9.54 -0.01 -2.48
Si  4.29 -0.02 -8.89
Si -3.47  2.33  8.94
Si  3.48  2.33  8.94
Si  9.17  3.58  0.84
Si -8.72 -2.37 -4.03
Si  0.53  8.13 -5.62
Si  5.64 -5.76 -5.75
Si -3.48 -2.33 -8.98
Si  3.48 -2.33 -8.98
Si  3.11  5.90  7.33
Si -1.17  8.06  5.67
Si  7.77 -4.69 -4.02
Si  6.59  1.17 -7.33
Si -7.42 -3.40 -5.66
Si -0.57 -8.15  5.66
Si -5.74 -3.49 -7.32
Si  5.71  3.48  7.37
Si  7.85  4.55 -4.09
Si  2.70  9.26  2.46
Si -4.35 -0.03  8.96
Si -2.77 -9.25 -2.46
Si  5.68  8.14 -0.83
Si -7.82  4.63  4.10
Si  1.22 -8.11 -5.69
Si  2.51 -9.35  2.46
Si -7.85 -4.66  4.06
Si -5.72 -8.16  0.87
Si  7.41  3.56  5.72
Si -2.57  9.37 -2.46
Si  3.83 -5.75 -7.27
Si  0.90  4.54  8.89
Si -0.87  4.63 -8.89
Si -10.00 -1.13  0.81
Si -2.25 -8.06 -5.66
Si  8.27  1.25 -5.66
Si -0.90 -4.66 -8.92
Si -6.93  6.96 -2.40
Si  6.88 -7.01  2.47
Si -8.29 -1.09  5.72
Si -8.31 -5.73  0.84
Si -0.78  9.28 -4.02
Si  6.98  6.96 -2.40
Si  0.82 -4.69  8.96
Si 10.06  1.08 -0.83
Si -3.84  5.90  7.33
Si  0.92  9.29  4.10
Si  8.30  5.89 -0.78
Si  0.73 -9.33  4.10
Si -0.97 -9.34 -4.02
Si -7.03 -7.01  2.47
Si  2.24  8.21  5.72
Si  2.51 -4.67 -8.89
Si  3.03 -8.14  5.66
Si  6.49 -3.40  7.33
Si  9.55 -0.03 -4.02
Si -6.51  3.56 -7.27
Si -2.56  4.62  8.96
Si  2.67  4.65 -8.92
Si -7.31  1.17 -7.33
Si  2.68  9.20 -4.09
Si -0.28 10.39 -0.83
Si  7.43 -1.11  7.23
Si -2.91  8.20 -5.75
Si -6.43  8.18  0.81
Si -2.67 -4.76  8.89
Si -9.61 -0.02  4.10
Si -2.49  9.30  4.06
Si  4.19 -9.25 -2.46
Si -6.53 -5.90  5.67
Si  0.33 -10.44  0.81
Si  6.58  5.85 -5.69
Si -4.25  9.26  2.46
Si  4.79  5.82 -7.32
Si  6.48 -8.23 -0.83
Si -2.68 -9.32  4.06
Si  8.17 -3.49  5.66
Si -8.21  3.48 -5.62
Si -4.82 -5.83  7.37
Si -0.88 -0.04 -10.52
Si  0.81  0.05 10.53
Si  2.49 -9.42 -4.09
Si -6.85  6.97  4.01
Si  6.86 -6.98 -4.04
Si  1.43 10.46  0.87
Si -1.47 -10.47 -0.83
Si  9.98 -3.50  0.87
Si  5.19 -2.37  8.96
Si  4.38  9.37 -2.46
Si -5.26 -2.32  8.94
Si -10.02  3.49 -0.83
Si -4.45 -9.35  2.46
Si -5.25  2.38 -8.95
Si -3.93 -8.14  5.66
Si  5.26  2.32 -8.98
Si  7.06  6.97  4.01
Si  2.13 -10.46 -0.83
Si -7.05 -6.98 -4.04
Si -9.02  5.74 -0.83
Si -2.02 10.53  0.74
Si  6.07 -0.11  8.89
Si  9.07 -5.78  0.81
Si -6.07 -0.01 -8.92
Si  4.04  8.20 -5.75
Si -9.11  1.20 -5.69
Si  0.00 -2.34 10.55
Si -2.58 -0.01 10.50
Si -0.00  2.22 -10.59
Si  5.64 -5.76  7.23
Si  2.58  0.01 -10.54
Si  9.17 -1.25  5.67
Si -5.53  5.83 -7.33
Si -3.15 -10.38  0.84
Si 10.36 -2.35 -2.40
Si -10.81  1.08 -0.83
Si -9.54  4.66  2.45
Si  9.54 -4.66 -2.48
Si  4.70 -8.06 -5.66
Si  1.70 -2.36 -10.52
Si  9.55  4.71 -2.46
Si -4.28  4.65 -8.92
Si -4.27  9.20 -4.09
Si -10.41  2.29  2.47
Si 10.86 -1.13  0.81
Si  1.79  2.32 10.55
Si -1.18  8.06 -7.32
Si  4.28 -4.76  8.89
Si -7.33  5.85 -5.69
Si  7.40  3.56 -7.27
Si -0.58 -8.14 -7.32
Si -7.42 -3.40  7.33
Si -1.76  2.30 10.59
Si 10.45  2.29  2.47
Si  1.23 -8.11  7.30
Si -9.62 -4.70  2.46
Si -4.45 -4.67 -8.89
Si  0.54  8.13  7.37
Si  4.39  4.62  8.96
Si -1.79 -2.44 -10.59
Si  7.38 -5.90  5.67
Si  3.13 10.54 -0.78
Si  4.27 -9.32  4.06
Si -10.51 -2.35 -2.40
Si -4.72  8.21  5.72
Si -8.30 -1.09 -7.27
Si  4.47  9.30  4.06
Si  3.81 -10.38  0.84
Si  7.48  8.18  0.81
Si -7.43 -8.23 -0.83
Si -2.25 -8.06  7.33
Si  8.28  1.25  7.33
Si  2.23  8.22 -7.27
Si -4.47 -9.42 -4.09
Si -3.83 10.54 -0.78
Si -9.10 -3.48  5.66
Si -3.46  2.30 -10.52
Si -2.91  8.20  7.23
Si  3.49  2.30 -10.52
Si  5.96 -9.30  2.45
Si -5.96  9.30 -2.48
Si  8.57 -7.00 -2.40
Si -9.52  4.62 -4.02
Si  9.47 -4.68  4.10
Si -0.09 -6.98  8.94
Si -8.63  6.95  2.47
Si  3.02 -8.13 -7.33
Si  0.10  6.98 -8.98
Si  3.41 -2.35 10.59
Si  4.38 -0.01 10.50
Si  8.75  6.87  2.40
Si -4.38  0.01 -10.54
Si -10.43 -2.33  4.01
Si -3.54 -2.35 10.59
Si 10.44 -2.33  4.01
Si  9.21  3.55 -5.75
Si  5.79  8.06  5.67
Si 10.85  3.49 -0.83
Si 10.43  2.33 -4.04
Si -10.43  2.33 -4.04
Si  6.16  9.31  2.45
Si -6.15 -9.32 -2.48
Si  9.63  4.64  4.06
Si  6.59  5.85  7.30
Si -5.73 -8.11 -5.69
Si -6.54 -5.90 -7.32
Si -8.75 -6.99 -2.43
Si -10.88 -3.50  0.87
Si -1.87 -6.92 -8.95
Si  1.81  6.94  8.96
Si -1.69  6.99  8.94
Si -9.63 -4.76 -4.09
Si  1.69 -6.99 -8.98
Si  6.87 -2.27 -8.95
Si -0.79  4.65 10.50
Si  8.16 -3.49 -7.32
Si  9.96  1.16  5.66
Si  0.91  4.61 -10.52
Si -9.99 -1.17 -5.62
Si -0.97 -4.60 10.53
Si  0.79 -4.65 -10.54
Si -4.83 -10.46 -0.83
Si -6.93  2.28  8.96
Si -8.20  3.48  7.37
Si  6.98  2.28  8.96
