500
set: 1330.00  0.00  0.00
Si -0.45  0.05 -0.32
Si -1.26  0.90  1.67
Si  1.90 -1.22 -0.72
Si -2.33 -1.32 -0.32
Si -0.82  1.96 -1.71
Si  0.74  1.52  2.42
Si  2.91  1.98  0.69
Si  3.76  0.17 -0.71
Si -1.47 -3.14 -1.71
Si  2.27 -3.12  0.69
Si -2.82  1.33 -2.46
Si  1.11 -0.38  3.81
Si -1.69  3.77 -0.32
Si -3.06  2.59  1.42
Si -0.77 -1.76  3.81
Si -4.23  0.17 -0.71
Si  0.10 -3.57  2.42
Si -2.67 -0.26  3.42
Si  2.72 -2.08 -2.71
Si  1.35  2.41 -3.44
Si  0.71 -2.69 -3.44
Si  2.54  3.87 -0.72
Si -3.71 -2.51  1.42
Si -1.90 -4.19  1.67
Si -2.02  0.48 -4.45
Si  0.34 -0.79 -4.85
Si -0.13  3.34  3.81
Si  3.46 -1.65  3.41
Si  0.19  5.15 -0.32
Si  4.28 -2.51  1.42
Si -1.10 -5.04 -0.32
Si  3.37  3.02 -2.71
Si  2.20  0.60 -4.84
Si -5.08  1.98  0.69
Si -3.46 -3.76 -2.46
Si  4.93  2.59  1.42
Si  5.66 -1.32 -0.32
Si  0.30  0.47  5.80
Si  3.12 -4.93 -0.71
Si  5.17  1.33 -2.46
Si -4.53 -1.65  3.41
Si -3.90 -0.89 -4.45
Si  4.09 -0.89 -4.45
Si -1.50  2.15  5.54
Si -4.62  3.02 -2.71
Si -3.52  1.54  4.82
Si -3.88  3.44  3.41
Si -6.09 -1.22 -0.72
Si -2.02  4.83  3.42
Si -0.62  6.00  1.67
Si -5.27 -2.08 -2.71
Si  1.75  4.71  3.81
Si  5.32 -0.26  3.42
Si  4.11  3.44  3.41
Si  4.52 -3.76 -2.46
Si -3.58  5.26 -0.71
Si  1.26 -6.32 -0.72
Si -5.72 -3.12  0.69
Si  0.98  4.30 -4.85
Si -2.14 -2.94  5.54
Si  0.47 -5.48  3.81
Si -5.45  3.87 -0.72
Si -2.38  2.39 -5.84
Si  4.47  1.54  4.82
Si  1.56 -4.49 -4.84
Si  4.40  5.26 -0.71
Si -3.25  4.20 -4.45
Si -2.66 -4.61 -4.45
Si -4.87 -4.93 -0.71
Si  6.73  0.90  1.67
Si  2.30  1.09  6.55
Si -2.98 -6.42 -0.32
Si  3.83 -3.55  4.82
Si -3.03 -2.71 -5.84
Si  1.16 -1.64 -6.84
Si -3.31 -5.36  3.42
Si  1.38  6.62  2.42
Si -2.18  6.43 -2.46
Si -0.18  7.05 -1.71
Si -1.37  5.58 -4.45
Si -4.16 -3.55  4.82
Si  6.30  3.77 -0.32
Si -0.34 -4.63  5.80
Si  6.53 -3.14 -1.71
Si  5.97  0.48 -4.45
Si  7.54  0.05 -0.32
Si -5.79  0.60 -4.84
Si  6.09 -4.19  1.67
Si  7.17  1.96 -1.71
Si -0.31 -5.88 -4.85
Si -1.10 -0.70  7.55
Si  3.60  1.77 -6.58
Si  4.74  4.20 -4.45
Si -7.25  1.52  2.42
Si  1.66 -4.00  6.55
Si -6.64  2.41 -3.44
Si -6.88 -0.38  3.81
Si  1.80  3.45 -6.84
Si  4.68 -5.36  3.42
Si  2.08 -7.17 -2.71
Si  3.56  7.07  0.69
Si -0.86 -2.25 -7.57
Si  2.96 -3.33 -6.58
Si -1.41 -6.85  3.81
Si  2.84  5.70 -4.84
Si  2.82 -6.75  3.41
Si -0.21  2.84 -7.57
Si  0.95  5.57  5.80
Si -4.38  1.77 -6.58
Si  4.96 -2.71 -5.84
Si  5.01 -6.42 -0.32
Si -2.42  7.68  1.42
Si  3.45 -5.99 -4.45
Si  0.79 -2.19  7.94
Si  5.33 -4.61 -4.45
Si  7.22 -1.76  3.81
Si -2.96 -2.09  7.54
Si -4.43  7.07  0.69
Si  1.63 -8.21  0.69
Si  5.97  4.83  3.42
Si  2.67 -0.81  7.94
Si  5.61  2.39 -5.84
Si -2.32  3.01  7.54
Si -8.44  0.05 -0.32
Si -7.28 -2.69 -3.44
Si  1.99  7.50 -3.44
Si  0.06 -7.78 -3.44
Si  3.64 -7.60  1.42
Si  6.89 -5.04 -0.32
Si  1.44  2.91  7.94
Si  5.85 -2.94  5.54
Si -2.11 -8.23 -1.71
Si -2.87  6.64  4.82
Si -6.24  4.71  3.81
Si -4.54 -5.99 -4.45
Si -5.69  1.09  6.55
Si -0.46  4.40  7.55
Si  6.49  2.15  5.54
Si -4.35 -7.60  1.42
Si -5.03 -3.33 -6.58
Si -1.05  8.87 -0.32
Si  2.53 -0.46 -8.58
Si -7.89 -3.57  2.42
Si  5.81  6.43 -2.46
Si -0.55 -8.67  2.42
Si  0.64  1.03 -8.97
Si -1.23 -0.36 -8.98
Si -5.15  5.70 -4.84
Si -7.65 -0.79 -4.85
Si -5.17 -6.75  3.41
Si  8.09 -3.57  2.42
Si -0.86  7.25  5.54
Si -8.81  1.96 -1.71
Si  8.73  1.52  2.42
Si -6.43 -4.49 -4.84
Si -1.95  1.11  8.95
Si -6.73 -6.32 -0.72
Si  0.52  8.43  3.81
Si  5.03 -2.09  7.54
Si -3.58  0.92 -8.58
Si -7.80  5.15 -0.32
Si  7.86  3.34  3.81
Si -3.98  8.12 -2.71
Si -9.25  0.90  1.67
Si  4.01  8.12 -2.71
Si  2.95  6.19  6.55
Si  3.19  8.97 -0.72
Si -7.01  4.30 -4.85
Si -8.12  3.34  3.81
Si -5.32 -0.81  7.94
Si  5.57  7.68  1.42
Si  3.31  4.28  7.94
Si  0.52 -6.74 -6.84
Si -7.69  0.47  5.80
Si -1.74  7.48 -5.84
Si  7.37  6.00  1.67
Si -6.61  6.62  2.42
Si  8.33 -0.79 -4.85
Si  5.12  6.64  4.82
Si  8.18  5.15 -0.32
Si -1.75 -5.79  7.55
Si -5.91 -7.17 -2.71
Si  4.41  0.92 -8.58
Si -8.76 -1.76  3.81
Si  8.70 -2.69 -3.44
Si  6.62  5.58 -4.45
Si -3.24  8.54  3.41
Si -2.55 -9.29  1.67
Si -6.83 -1.64 -6.84
Si  0.06  1.72  9.67
Si -0.01 -4.06 -8.97
Si -6.19  3.45 -6.84
Si  9.10 -0.38  3.81
Si  5.67  3.01  7.54
Si -6.33 -4.00  6.55
Si  3.88 -8.86 -2.46
Si  9.89 -1.22 -0.72
Si -7.52 -5.48  3.81
Si -4.11 -8.86 -2.46
Si  2.03 -5.91  7.94
Si  1.86  0.04  9.93
Si -9.45 -3.14 -1.71
Si -2.60 -3.98  8.95
Si  8.29  0.47  5.80
Si -2.79 -8.04  5.54
Si -4.67  4.28  7.94
Si -0.58  4.74 -8.98
Si -5.46 -0.46 -8.58
Si -4.80  8.97 -0.72
Si -6.00  7.50 -3.44
Si -3.74  6.86 -6.58
Si  6.58 -6.85  3.81
Si  9.34  2.41 -3.44
Si  6.89 -0.70  7.55
Si  3.17  4.63 -8.58
Si  3.77 -4.18 -8.58
Si -0.58 -3.37  9.67
Si  5.88 -8.23 -1.71
Si  0.83 10.24 -0.32
Si -1.74 -10.14 -0.32
Si -5.04  6.19  6.55
Si  4.75  8.54  3.41
Si  2.48 -10.02 -0.71
Si  1.89 -5.55 -8.58
Si -9.68  3.77 -0.32
Si  3.19 -8.64  4.82
Si -9.09 -5.04 -0.32
Si -10.32 -1.32 -0.32
Si -6.36 -8.21  0.69
Si -3.67 -7.80 -5.84
Si  4.25  6.86 -6.58
Si -4.22 -4.18 -8.58
Si -1.38  9.93  3.42
Si -8.61  6.00  1.67
Si -2.61  9.30 -4.45
Si  7.13 -2.25 -7.57
Si  7.65 -4.63  5.80
Si -1.50 -7.35 -7.57
Si  4.32 -7.80 -5.84
Si  7.81  7.05 -1.71
Si -1.87 -5.45 -8.98
Si -7.04  5.57  5.80
Si -6.55  2.91  7.94
Si  1.62  9.40 -4.85
Si 10.26 -3.12  0.69
Si  8.46 -5.48  3.81
Si  3.40 -2.28 -9.96
Si  0.15 -7.28  7.94
Si  0.91 -9.59 -4.84
Si  2.40  9.81  3.81
Si -2.94 10.36 -0.71
Si  7.68 -5.88 -4.85
Si  6.04  1.11  8.95
Si -4.82  4.63 -8.58
Si -9.89 -4.19  1.67
Si -2.94  6.01 -8.58
Si  5.44 -9.29  1.67
Si -8.17  7.05 -1.71
Si  1.28  6.13 -8.97
Si -7.20 -2.19  7.94
Si  2.32 -8.42 -6.58
Si -10.01  0.48 -4.45
Si -1.31  6.21  8.95
Si  0.43  7.94 -7.57
Si -4.80 -8.64  4.82
Si -3.61 -7.18  7.54
Si -0.40 -1.21 -10.97
Si  5.20 -8.04  5.54
Si  8.97  4.30 -4.85
Si -3.95  2.82 -9.96
Si 10.90  1.98  0.69
Si  4.04  2.82 -9.96
Si  2.04  2.20 -10.71
Si -8.33 -4.63  5.80
Si -10.81  1.33 -2.46
Si -3.30 -9.71 -4.45
Si  5.39 -3.98  8.95
Si  1.40 -2.90 -10.71
Si -10.65 -0.26  3.42
Si -1.68  8.10  7.54
Si -9.49  2.15  5.54
Si -4.59 -2.28 -9.96
Si  1.22 -5.06  9.93
Si  0.03 11.09  1.67
Si  2.44  8.55 -6.84
Si  7.78  2.84 -7.57
Si  9.25 -6.32 -0.72
Si -0.18 -10.57  3.81
Si 10.71 -2.08 -2.71
Si 10.53  3.87 -0.72
Si  6.76 -0.36 -8.98
Si  1.02 -9.10  6.55
Si  6.94  8.87 -0.32
Si -8.29 -5.88 -4.85
Si 10.19  0.60 -4.84
Si  4.38 -7.18  7.54
Si  6.25  7.48 -5.84
Si -0.98 -9.72  5.80
Si  3.87  0.66 10.68
Si  6.24 -5.79  7.55
Si -11.05  2.59  1.42
Si  0.61 -11.41 -0.72
Si  2.51  5.13  9.93
Si -5.51 -10.02 -0.71
Si  2.08  8.00  7.94
Si -4.12  0.66 10.68
Si  9.74  4.71  3.81
Si -8.20  2.84 -7.57
Si  7.53  4.40  7.55
Si  9.15 -1.64 -6.84
Si  5.05 10.36 -0.71
Si -5.96 -5.91  7.94
Si  7.13  7.25  5.54
Si -0.73 10.67 -4.45
Si  9.54 -4.49 -4.84
Si  5.38  9.30 -4.45
Si -7.93 -7.78 -3.44
Si  5.05  6.01 -8.58
Si -10.01  4.83  3.42
Si  0.24  3.88 -10.97
Si -7.35  1.03 -8.97
Si  4.69 -9.71 -4.45
Si -6.12  0.04  9.93
Si  7.44 -8.67  2.42
Si -3.95 -10.45  3.42
Si  8.05 -7.78 -3.44
Si  4.04 -10.45  3.42
Si  9.37  6.62  2.42
Si  0.46 -1.13 11.68
Si -9.36  5.58 -4.45
Si 11.75  0.17 -0.71
Si -9.09 -0.70  7.55
Si  0.71  6.82  9.67
Si -8.85 -2.25 -7.57
Si -1.54 11.52 -2.46
Si -7.47  8.43  3.81
Si -6.10 -5.55 -8.58
Si  6.25 -10.14 -0.32
Si -5.59  9.81  3.81
Si -10.13 -2.94  5.54
Si -0.76  2.58 11.67
Si  3.22 -4.44 10.68
Si  8.94  5.57  5.80
Si -1.40 -2.52 11.67
Si -0.95 -10.98 -4.85
Si  8.78 -2.19  7.94
Si -11.70 -2.51  1.42
Si 11.35  3.02 -2.71
Si 11.45 -1.65  3.41
Si -3.62 -11.51 -0.32
Si -2.42 -1.82 -11.70
Si -5.67 -8.42 -6.58
Si  0.18  9.49  7.55
Si  2.03 11.71  2.42
Si -10.37  2.39 -5.84
Si -8.45  4.40  7.55
Si  6.12 -5.45 -8.98
Si -7.47 -6.74 -6.84
Si 11.11 -4.93 -0.71
Si -12.22  0.17 -0.71
Si  1.59 10.66  5.80
Si -9.40 -6.85  3.81
Si 10.29  1.09  6.55
Si  2.81 -11.08 -4.45
Si -5.54  8.55 -6.84
Si  0.46 12.14 -1.71
Si -10.17  6.43 -2.46
Si -1.78  3.27 -11.70
Si -11.46 -3.76 -2.46
Si  4.37 -11.51 -0.32
Si  3.48 10.79 -4.84
Si  9.65 -4.00  6.55
Si -6.37  9.40 -4.85
Si  1.10  3.97 11.68
Si  6.49 -7.35 -7.57
Si -8.54 -8.67  2.42
Si  6.61  9.93  3.42
Si -10.65 -4.61 -4.45
Si  9.79  3.45 -6.84
Si -5.95  2.20 -10.71
Si -5.48  5.13  9.93
Si  8.63  1.03 -8.97
Si -7.16 10.24 -0.32
Si -4.77 -4.44 10.68
Si  2.18 -11.84  3.41
Si  7.41  4.74 -8.98
Si -11.51  1.54  4.82
Si  8.51  8.43  3.81
Si  2.35 -2.62 12.07
Si 12.27 -2.51  1.42
Si -3.48  5.75 10.68
Si -7.93  1.72  9.67
Si  7.41 -3.37  9.67
Si  1.44 -12.27 -2.71
Si 10.07 -7.17 -2.71
Si -4.50 10.79 -4.84
Si  9.43  2.91  7.94
Si -9.04  8.87 -0.32
Si  9.62 -8.21  0.69
Si  7.98 -4.06 -8.97
Si  3.00  2.47 12.07
Si -8.00 -4.06 -8.97
Si  2.76 -7.37 -9.96
Si -3.75 -1.25 12.07
Si -1.05 -6.31 -10.97
Si  8.05  1.72  9.67
Si -2.06 -11.95  3.81
Si -10.96 -6.42 -0.32
Si -8.85  7.25  5.54
Si -11.88 -0.89 -4.45
Si -5.91  8.00  7.94
Si -11.57  5.26 -0.71
Si  6.31  8.10  7.54
Si  0.97 -0.03 -12.71
Si -11.02 -2.71 -5.84
Si -3.79 12.17  0.69
Si -6.71  6.13 -8.97
Si  6.68  6.21  8.95
Si -11.24  4.20 -4.45
Si -11.87  3.44  3.41
Si  8.51 -6.74 -6.84
Si -0.65 -9.16 -8.97
Si  4.23 -1.25 12.07
Si -7.08 -9.59 -4.84
Si -9.21 -0.36 -8.98
Si -2.23 11.73  4.82
Si  4.20 12.17  0.69
Si  3.96  9.38  7.94
Si 12.08 -0.89 -4.45
Si -6.59 -2.90 -10.71
Si -1.22 -8.47  9.67
Si -4.03  9.38  7.94
Si  4.51  5.75 10.68
Si  9.98  7.50 -3.44
Si -11.30 -5.36  3.42
Si -1.78 12.78  1.42
Si -10.41  7.68  1.42
Si  3.12 -9.28 -8.58
Si -5.18 -11.08 -4.45
Si 12.10  3.44  3.41
Si -6.77 -5.06  9.93
Si -3.11  3.85 12.07
Si -12.52 -1.65  3.41
Si  5.57 -1.82 -11.70
Si  2.85  1.35 -12.71
Si -0.39  0.68 13.07
Si  3.00 -12.70  1.42
Si -10.31  3.01  7.54
Si -10.10 -8.23 -1.71
Si -3.30  7.92 -9.96
Si -3.24 -9.08  8.95
Si 10.83  5.70 -4.84
Si 10.81 -6.75  3.41
Si -6.97 -9.10  6.55
Si 10.95 -3.33 -6.58
Si -0.93  1.47 -13.10
Si -0.18 -6.22 11.68
Si -13.07  1.98  0.69
Si  2.69  7.29 -10.71
Si 11.82 -3.55  4.82
Si 12.92  2.59  1.42
Si -12.62  3.02 -2.71
Si -8.57  4.74 -8.98
Si -4.99  2.47 12.07
Si 12.51 -3.76 -2.46
Si  7.01 -9.72  5.80
Si  0.06  9.83 -8.98
Si 10.66 -0.81  7.94
Si -7.56  7.94 -7.57
Si  2.63 12.60 -3.44
Si -7.84 -7.28  7.94
Si -0.58 -12.88 -3.44
Si -8.57 -3.37  9.67
Si  0.98 -13.31  0.69
Si -5.96 11.71  2.42
Si  0.76 -7.99 -10.71
Si  7.59 -1.21 -10.97
Si -2.79  0.07 -13.11
Si -9.94  1.11  8.95
Si  2.21 -3.75 -12.71
Si  6.45 11.52 -2.46
Si 11.59  1.77 -6.58
Si 13.16  1.33 -2.46
Si 12.46  1.54  4.82
Si -5.23 -7.37 -9.96
Si -2.39 -10.89  7.55
Si -10.95 -2.09  7.54
Si 12.39  5.26 -0.71
Si  8.14 -7.28  7.94
Si  3.82  9.73 -8.58
Si  8.82 10.24 -0.32
Si  3.59 11.28  6.55
Si -0.21 12.35  5.54
Si -4.86 -9.28 -8.58
Si -12.15 -3.55  4.82
Si 11.54  7.07  0.69
Si  4.69  7.92 -9.96
Si  4.88  3.85 12.07
Si -5.63 -2.62 12.07
Si 10.52 -0.46 -8.58
