500
set: 1332.00  0.00  0.00
Si  0.22 -1.54 -1.23
Si -0.18  2.56  0.27
Si  1.49  1.96 -1.00
Si  2.81 -0.71  0.30
Si -1.09  1.10 -2.54
Si -2.32 -0.50 -1.85
Si -2.87  0.89 -0.40
Si  2.38  0.31  1.94
Si  1.15 -1.29  2.62
Si  1.33  2.42  1.97
Si  1.88 -2.17 -2.51
Si -1.38 -3.42 -1.00
Si -1.54 -2.96  1.97
Si  0.60  0.10  4.08
Si  4.02  0.89 -0.40
Si -1.92  1.16  3.48
Si -4.07 -0.71  0.30
Si -3.04 -2.82  0.27
Si -0.66  0.09 -4.17
Si -0.33  3.04  3.25
Si -2.13  3.21 -2.51
Si  1.15 -4.49 -0.40
Si  0.37 -2.03 -4.20
Si  3.84 -2.82  0.27
Si -1.20  4.67  0.30
Si -4.51  0.31  1.94
Si  4.57 -0.50 -1.85
Si -0.60 -1.50  4.78
Si  3.09  3.84 -1.23
Si -3.20 -2.34  3.25
Si  0.55  1.69 -4.87
Si  0.55  4.88 -1.85
Si  3.69 -2.34  3.25
Si -0.49 -5.07  1.94
Si -3.79  3.84 -1.23
Si -2.86  4.09  2.62
Si  2.92 -4.27 -2.54
Si -5.39  1.96 -1.00
Si  2.09 -4.22  3.48
Si  0.42 -3.62  4.75
Si -5.00 -2.17 -2.51
Si  3.29  1.76  4.75
Si -0.06 -6.09  0.30
Si  4.96  1.16  3.48
Si -3.59  1.76  4.75
Si -1.64  5.69  1.94
Si  4.75  3.21 -2.51
Si  3.24  3.35 -4.20
Si  0.00  6.27 -0.40
Si  4.02  4.09  2.62
Si -3.96 -4.27 -2.54
Si -5.55  2.42  1.97
Si  1.70 -5.88 -1.85
Si  2.04 -2.63 -5.48
Si  5.79  1.10 -2.54
Si  5.34 -2.96  1.97
Si  1.10  0.30 -6.33
Si -5.73 -1.29  2.62
Si -1.97  2.75 -5.48
Si -3.64  3.35 -4.20
Si -1.04 -0.48  6.41
Si -2.32 -3.69 -4.87
Si  2.26  3.88  4.78
Si  5.51 -3.42 -1.00
Si -3.25 -0.75 -5.71
Si  3.63 -0.75 -5.71
Si -6.66 -1.54 -1.23
Si -2.08  1.62  6.45
Si -2.27 -5.28  4.08
Si  6.71  2.56  0.27
Si  1.78  6.48 -2.54
Si  2.21  5.47 -4.17
Si -4.79 -4.22  3.48
Si -5.74 -4.49 -0.40
Si -1.59 -1.37 -6.99
Si  5.68  4.67  0.30
Si -0.38  4.63 -5.71
Si  7.10 -1.54 -1.23
Si -1.72 -6.67  2.62
Si  0.95  6.54  3.48
Si -6.28  0.10  4.08
Si  6.22  0.09 -4.17
Si -7.06  2.56  0.27
Si -2.65 -6.92 -1.23
Si  3.35 -5.29 -4.17
Si -3.53 -5.29 -4.17
Si  4.56 -3.69 -4.87
Si -3.41  5.47  4.08
Si  2.32  1.90 -7.02
Si  3.47  5.47  4.08
Si -4.62  3.88  4.78
Si  1.93 -3.76  6.45
Si -2.26 -2.09  7.10
Si -4.84 -2.63 -5.48
Si -2.52  7.33 -1.00
Si  0.60  3.29  7.10
Si  4.91  2.75 -5.48
Si -0.55 -3.48 -7.02
Si  6.55  3.04  3.25
Si  5.24  5.69  1.94
Si -6.51 -2.03 -4.20
Si -0.99 -7.55 -2.51
Si  6.28 -1.50  4.78
Si -5.19 -5.88 -1.85
Si  1.55  0.36  7.95
Si  4.62 -5.28  4.08
Si  1.28  4.01 -6.99
Si -6.33  1.69 -4.87
Si  4.80  1.62  6.45
Si -6.33  4.88 -1.85
Si  4.23 -6.92 -1.23
Si  0.97 -8.20  0.27
Si  1.83  4.89  6.41
Si -1.77 -5.08 -6.33
Si -4.67  5.47 -4.17
Si  0.27 -3.13  7.72
Si  6.39 -5.07  1.94
Si  2.69  7.93  0.27
Si  0.76 -6.13 -5.71
Si  0.82 -7.72  3.25
Si -7.97  1.10 -2.54
Si -7.21  3.04  3.25
Si -2.68  7.80  1.97
Si  7.48  0.10  4.08
Si  8.03 -1.29  2.62
Si -5.79  0.30 -6.33
Si -4.56  1.90 -7.02
Si  4.36  7.33 -1.00
Si -0.72  7.14  4.75
Si -7.54  0.09 -4.17
Si  7.25 -2.03 -4.20
Si  3.14  2.25  7.72
Si -5.11  6.48 -2.54
Si  8.38  1.96 -1.00
Si  5.84 -0.48  6.41
Si  4.62 -2.09  7.10
Si  8.21  2.42  1.97
Si -6.46 -3.62  4.75
Si  5.16 -6.67  2.62
Si -3.74  2.25  7.72
Si  5.29 -1.37 -6.99
Si -2.50 -7.41 -4.20
Si  2.48 -8.34  1.97
Si -4.95 -3.76  6.45
Si -4.19  7.93  0.27
Si  0.73  8.59 -2.51
Si -2.92  5.68 -6.33
Si -8.26 -3.42 -1.00
Si -7.49 -1.50  4.78
Si -2.81 -0.70  8.56
Si  7.43  1.69 -4.87
Si  3.41 -6.88  4.78
Si  4.20  7.80  1.97
Si -3.47 -6.88  4.78
Si  7.43  4.88 -1.85
Si  2.76  0.88 -8.65
Si -8.42 -2.96  1.97
Si  6.82 -6.09  0.30
Si -7.38 -5.07  1.94
Si  2.97 -5.86  6.41
Si  8.03 -4.49 -0.40
Si  3.42  7.06 -4.87
Si -6.94 -6.09  0.30
Si  2.64 -8.80 -1.00
Si -3.46  7.06 -4.87
Si -0.12  0.97  9.23
Si -3.10 -1.23 -8.68
Si -6.88  6.27 -0.40
Si  6.88  6.27 -0.40
Si -0.93  9.21 -1.23
Si -8.09  4.67  0.30
Si  8.76 -2.17 -2.51
Si  2.54  8.42  3.25
Si  3.97  5.68 -6.33
Si -9.20 -0.50 -1.85
Si  7.30 -3.62  4.75
Si  9.26  0.31  1.94
Si -5.93  6.54  3.48
Si -1.32 -5.01  7.95
Si  4.07 -0.70  8.56
Si -5.05  4.89  6.41
Si -3.91 -5.86  6.41
Si -8.80  1.16  3.48
Si  0.79  7.00  6.45
Si  3.78 -1.23 -8.68
Si  4.38 -7.41 -4.20
Si -5.33  0.36  7.95
Si  5.11 -5.08 -6.33
Si -0.23  4.15 -8.68
Si -4.13  0.88 -8.65
Si -4.41 -8.34  1.97
Si -0.77  8.73 -4.20
Si  9.69 -0.71  0.30
Si -0.83 -8.01 -5.48
Si -0.11 -4.50 -8.65
Si  0.06  4.68  8.56
Si -9.75  0.89 -0.40
Si -5.60  4.01 -6.99
Si  6.50  4.63 -5.71
Si  0.01  9.46  2.62
Si -4.24 -8.80 -1.00
Si -1.15  3.08  9.26
Si  0.90  8.13 -5.48
Si  1.09 -2.90 -9.35
Si  5.89 -7.55 -2.51
Si -9.02  3.21 -2.51
Si  2.86 -2.30  9.26
Si  0.05 -9.65 -2.54
Si  2.42 -6.75 -6.99
Si -4.34  8.42  3.25
Si -1.72 -9.87 -0.40
Si -6.28  3.29  7.10
Si  6.33 -3.48 -7.02
Si -2.92  2.48 -9.35
Si -5.91 -8.20  0.27
Si -2.46  5.74  7.95
Si  0.16  0.05 -10.19
Si  7.98  0.30 -6.33
Si  1.67 10.05  0.30
Si -7.92 -0.48  6.41
Si -1.43 -1.83 -9.96
Si -0.78 -9.60  3.48
Si -1.69  7.28 -7.02
Si -9.93 -2.82  0.27
Si -7.26  4.63 -5.71
Si -6.07 -7.72  3.25
Si -4.02 -2.30  9.26
Si -6.12 -6.13 -5.71
Si -8.52  5.69  1.94
Si  1.69 -9.07 -4.87
Si  1.75 -7.47  7.10
Si  3.96  2.48 -9.35
Si -2.45 -9.00  4.75
Si  8.97 -4.22  3.48
Si  6.16  7.14  4.75
Si  8.58 -5.88 -1.85
Si -1.75  9.26  4.78
Si  1.20 -6.08  8.56
Si -6.61 -3.13  7.72
Si -2.99 -4.41  9.23
Si  1.44  3.54 -9.96
Si -4.46 -6.75 -6.99
Si -1.26  6.26 -8.65
Si  9.97  3.84 -1.23
Si  4.42  5.74  7.95
Si -8.86  2.75 -5.48
Si  7.83  6.54  3.48
Si  8.92 -2.63 -5.48
Si -7.43 -3.48 -7.02
Si  7.49  3.29  7.10
Si -10.08 -2.34  3.25
Si -6.15  8.59 -2.51
Si -0.87  7.62  7.72
Si -9.74  4.09  2.62
Si  5.56 -5.01  7.95
Si 10.90  0.89 -0.40
Si  3.89 -4.41  9.23
Si  0.92 -6.61 -8.68
Si  3.42 10.26 -1.85
Si -10.96 -0.71  0.30
Si  7.15 -3.13  7.72
Si -3.46 10.26 -1.85
Si  9.80 -4.27 -2.54
Si  9.15  3.88  4.78
Si  1.39  0.83 10.92
Si  5.96  9.21 -1.23
Si -9.20 -3.69 -4.87
Si -8.47 -1.37 -6.99
Si 10.72 -2.82  0.27
Si  4.44 -9.00  4.75
Si  8.66  6.48 -2.54
Si -2.37  1.09 -10.81
Si  5.16 -9.87 -0.40
Si -3.36 -10.45  1.94
Si -8.96  1.62  6.45
Si -7.87 -7.55 -2.51
Si  3.52 -10.45  1.94
Si -8.60 -6.67  2.62
Si -0.94 -9.14  6.45
Si  2.43 -1.28 10.89
Si 10.57 -2.34  3.25
Si -6.09  7.00  6.45
Si  1.23 11.07  1.94
Si  5.73  3.08  9.26
Si -9.15 -5.28  4.08
Si -5.22 10.05  0.30
Si  7.64 -6.13 -5.71
Si  7.85 -8.20  0.27
Si 10.17  1.76  4.75
Si  5.19  7.28 -7.02
Si -5.79 -2.90 -9.35
Si  7.70 -7.72  3.25
Si  9.09  5.47 -4.17
Si -10.68  3.84 -1.23
Si  6.05 -8.01 -5.48
Si  6.11  8.73 -4.20
Si 10.12  3.35 -4.20
Si -7.60  7.14  4.75
Si  8.16  4.01 -6.99
Si -1.17 -11.26 -1.85
Si  0.48 -10.67 -4.17
Si  6.76  0.97  9.23
Si -5.99  8.13 -5.48
Si  5.45 -1.83 -9.96
Si -5.13 -7.47  7.10
Si  2.75  6.34  9.23
Si -5.19 -9.07 -4.87
Si  8.81 -3.76  6.45
Si  1.75 -10.66  4.08
Si -11.39  0.31  1.94
Si  8.43  0.36  7.95
Si 11.45 -0.50 -1.85
Si -0.54 10.85  4.08
Si  5.13  9.26  4.78
Si  1.82 -0.58 -11.46
Si -7.00  0.97  9.23
Si -10.47  1.76  4.75
Si -10.13 -0.75 -5.71
Si  6.65  4.15 -8.68
Si -3.41  8.67  7.10
Si  9.20  1.90 -7.02
Si  3.47  8.67  7.10
Si  1.64 -4.29 -10.81
Si -1.58  4.10 10.89
Si  7.62  8.59 -2.51
Si -1.80 10.85 -4.17
Si  4.51  1.09 -10.81
Si -9.15 -2.09  7.10
Si -2.60 -8.51  7.72
Si  2.49 10.01 -5.71
Si -3.42 -8.86 -7.02
Si -2.71 -5.33 -10.19
Si -10.53  3.35 -4.20
Si  3.46 -8.86 -7.02
Si -4.45 -1.28 10.89
Si -2.93 -11.47  0.30
Si -9.53 -6.92 -1.23
Si -1.15  2.69 -11.50
Si -8.65 -5.08 -6.33
Si  6.77 -4.50 -8.65
Si  8.71  4.89  6.41
Si -5.44  3.54 -9.96
Si  6.11 -9.60  3.48
Si -6.83  4.68  8.56
Si -1.48 -4.55 10.92
Si -10.84 -4.27 -2.54
Si  3.03  5.43 -10.19
Si 10.90  4.09  2.62
Si -5.68 -6.08  8.56
Si -4.13  6.34  9.23
Si -7.11  4.15 -8.68
Si -9.40  7.33 -1.00
Si  6.94  4.68  8.56
Si 10.51 -0.75 -5.71
Si -6.88  9.46  2.62
Si  1.20 -2.88 11.58
Si  6.89  9.46  2.62
Si -7.00 -4.50 -8.65
Si  2.87 11.65 -0.40
Si -2.73  9.39 -6.99
Si -0.01 -7.68  9.26
Si  5.62  6.26 -8.65
Si -6.83 -9.65 -2.54
Si  3.95 -11.47  0.30
Si -7.81  9.21 -1.23
Si  2.87 -2.68 -11.50
Si  6.93 -9.65 -2.54
Si -3.85  5.43 -10.19
Si -2.81  2.50 11.58
Si -6.72  0.05 -10.19
Si -0.05  7.86 -9.35
Si  7.67  7.00  6.45
Si  4.18 -5.33 -10.19
Si -5.50  0.83 10.92
Si 10.24 -5.29 -4.17
Si  4.28 -8.51  7.72
Si -0.27  1.45 12.20
Si -2.18 10.27  6.41
Si 11.63  3.21 -2.51
Si -4.01 11.65 -0.40
Si -4.39 10.01 -5.71
Si -2.24 11.86 -2.54
Si -11.89 -2.17 -2.51
Si -7.66  8.73 -4.20
Si -10.29  5.47  4.08
Si  7.05  0.05 -10.19
Si -7.71 -8.01 -5.48
Si 11.84  1.16  3.48
Si -10.41 -5.29 -4.17
Si 10.35  5.47  4.08
Si  6.01  7.62  7.72
Si  4.15  9.39 -6.99
Si  2.24 -10.46 -6.33
Si -5.97 -6.61 -8.68
Si  1.36 -12.30 -1.23
Si  9.58  7.93  0.27
Si -12.27  1.96 -1.00
Si -4.02 -2.68 -11.50
Si -8.20 -5.01  7.95
Si -9.56  7.80  1.97
Si  7.78  8.13 -5.48
Si -5.14 -10.66  4.08
Si  4.07  2.50 11.58
Si -5.06 -0.58 -11.46
Si  2.29 -12.05  2.62
Si  2.58 -7.21 -9.96
Si -5.65 11.07  1.94
Si -1.87 -0.43 12.43
Si  0.50  6.47 -10.81
Si -1.78 -8.28 -9.35
Si -2.19  4.80 -11.46
Si  7.98 -2.90 -9.35
Si -8.03  3.08  9.26
Si  1.72  8.46  9.26
Si  5.94 -9.14  6.45
Si -9.38 -7.41 -4.20
Si  5.08 10.85 -4.17
Si  9.36 -8.34  1.97
Si 12.23 -2.96  1.97
Si -0.05 11.05 -6.33
Si -5.24 -4.29 -10.81
Si  5.71 -11.26 -1.85
Si  0.35 12.71 -1.00
Si -7.66 -9.60  3.48
Si -0.44 -6.66 10.89
Si  5.30  4.10 10.89
Si -3.06 11.92  3.48
Si -12.43  2.42  1.97
Si -2.63  6.21 10.92
Si 10.02  2.25  7.72
Si -11.67 -4.22  3.48
Si 12.39 -3.42 -1.00
Si  0.10 -11.24  6.41
Si -12.61 -1.29  2.62
Si -9.70 -0.70  8.56
Si -1.04 -5.96 -11.46
Si 12.67  1.10 -2.54
Si -9.80  5.68 -6.33
Si 11.44 -3.69 -4.87
Si  9.64  0.88 -8.65
Si  3.82 11.92  3.48
Si  4.70 10.27  6.41
Si  4.64 11.86 -2.54
Si  9.52 -8.80 -1.00
Si  5.40 -4.55 10.92
Si -2.11 -11.51 -5.71
Si -4.30 -7.21 -9.96
Si -11.50  3.88  4.78
Si  9.42  8.42  3.25
Si -4.64 -10.46 -6.33
Si -8.31 -1.83 -9.96
Si -8.61 -9.87 -0.40
Si -6.40 -10.67 -4.17
Si  5.74  2.69 -11.50
Si  0.66 -1.50 13.04
Si  9.86 -5.86  6.41
Si 11.11 -6.92 -1.23
Si  2.64  9.53 -8.68
Si -4.59 -12.05  2.62
Si  0.32 -0.44 -13.16
Si  0.54 -12.26  4.78
Si -3.14 -3.93 12.20
Si  8.55 10.05  0.30
Si -11.72 -2.63 -5.48
Si -5.68 -2.88 11.58
Si  6.34 10.85  4.08
Si  8.08 -6.08  8.56
Si -0.71  1.68 -13.13
Si -8.57  7.28 -7.02
Si  4.25  6.21 10.92
Si 10.29 -6.88  4.78
Si -9.98 -1.23 -8.68
Si  4.69  4.80 -11.46
Si 11.79  2.75 -5.48
Si 11.50 -5.28  4.08
Si  0.19 13.18  1.97
Si -10.36 -6.88  4.78
Si -10.62  2.25  7.72
Si -7.75  7.62  7.72
Si  3.74 -3.93 12.20
Si  2.69 -10.39  7.95
Si -0.59 12.44 -4.87
Si -1.32 13.31  0.27
Si -12.62 -4.49 -0.40
Si  8.57 -9.07 -4.87
Si 12.56  4.67  0.30
Si 10.30  7.06 -4.87
Si  7.80 -6.61 -8.68
Si  5.01 -0.43 12.43
Si  1.00  4.95 12.43
Si -8.14  6.26 -8.65
Si 11.68  1.62  6.45
Si  8.63 -7.47  7.10
Si -10.35  7.06 -4.87
Si -11.55  5.47 -4.17
Si  8.32  3.54 -9.96
Si  9.30 -6.75 -6.99
Si -2.98 -9.88 -8.65
Si 11.25  7.33 -1.00
Si  5.11 -8.28 -9.35
