500
set: 99.00  0.00  0.00
Si  0.00  0.00  0.00
Si -0.08  0.11  2.38
Si  0.08 -0.11 -2.38
Si -1.24 -2.18  0.00
Si  1.24  2.18  0.00
Si -1.37  2.18  0.00
Si  1.37 -2.18  0.00
Si -2.61  0.00  0.00
Si  2.61  0.00  0.00
Si  1.29 -2.07  2.38
Si -1.29  2.07 -2.38
Si -1.32 -2.07  2.38
Si  1.32  2.07 -2.38
Si -2.53 -0.11 -2.38
Si  2.53  0.11  2.38
Si -1.16 -2.28 -2.38
Si  1.16  2.28  2.38
Si -2.69  0.11  2.38
Si  2.69 -0.11 -2.38
Si  1.45 -2.28 -2.38
Si -1.45  2.28  2.38
Si -0.13  4.35  0.00
Si  0.13 -4.35  0.00
Si  3.85  2.18  0.00
Si -3.85 -2.18  0.00
Si -3.98  2.18  0.00
Si  3.98 -2.18  0.00
Si  0.16 -0.21 -4.76
Si -0.16  0.21  4.76
Si  0.06 -4.25  2.38
Si -0.06  4.25 -2.38
Si -3.77 -2.28 -2.38
Si  3.77  2.28  2.38
Si  2.48  4.35  0.00
Si -2.48 -4.35  0.00
Si -3.90  2.07 -2.38
Si  3.90 -2.07  2.38
Si -3.93 -2.07  2.38
Si  3.93  2.07 -2.38
Si  0.21 -4.46 -2.38
Si -0.21  4.46  2.38
Si -2.74  4.35  0.00
Si  2.74 -4.35  0.00
Si  5.22  0.00  0.00
Si -5.22  0.00  0.00
Si  4.06 -2.28 -2.38
Si -4.06  2.28  2.38
Si -1.22  1.96 -4.76
Si  1.22 -1.96  4.76
Si -1.40 -1.96  4.76
Si  1.40  1.96 -4.76
Si -2.45 -0.21 -4.76
Si  2.45  0.21  4.76
Si -1.08 -2.39 -4.76
Si  1.08  2.39  4.76
Si  2.55  4.25 -2.38
Si -2.55 -4.25  2.38
Si  2.77 -0.21 -4.76
Si -2.77  0.21  4.76
Si  1.53 -2.39 -4.76
Si -1.53  2.39  4.76
Si -2.67  4.25 -2.38
Si  2.67 -4.25  2.38
Si -2.40 -4.46 -2.38
Si  2.40  4.46  2.38
Si  5.14  0.11  2.38
Si -5.14 -0.11 -2.38
Si  2.82 -4.46 -2.38
Si -2.82  4.46  2.38
Si  5.30 -0.11 -2.38
Si -5.30  0.11  2.38
Si -0.02 -4.14  4.76
Si  0.02  4.14 -4.76
Si -3.83  1.96 -4.76
Si  3.83 -1.96  4.76
Si -3.69 -2.39 -4.76
Si  3.69  2.39  4.76
Si -4.00 -1.96  4.76
Si  4.00  1.96 -4.76
Si  0.29 -4.56 -4.76
Si -0.29  4.56  4.76
Si -1.10 -6.53  0.00
Si  1.10  6.53  0.00
Si  5.09  4.35  0.00
Si -5.09 -4.35  0.00
Si -1.51  6.53  0.00
Si  1.51 -6.53  0.00
Si  4.14 -2.39 -4.76
Si -4.14  2.39  4.76
Si  6.46  2.18  0.00
Si -6.46 -2.18  0.00
Si  2.59 -4.14  4.76
Si -2.59  4.14 -4.76
Si  2.63  4.14 -4.76
Si -2.63 -4.14  4.76
Si -5.36  4.35  0.00
Si  5.36 -4.35  0.00
Si -6.59  2.18  0.00
Si  6.59 -2.18  0.00
Si -5.06 -0.21 -4.76
Si  5.06  0.21  4.76
Si  1.18  6.42 -2.38
Si -1.18 -6.42  2.38
Si -2.32 -4.56 -4.76
Si  2.32  4.56  4.76
Si  1.43 -6.42  2.38
Si -1.43  6.42 -2.38
Si  5.16  4.25 -2.38
Si -5.16 -4.25  2.38
Si  5.01  4.46  2.38
Si -5.01 -4.46 -2.38
Si -1.02 -6.63 -2.38
Si  1.02  6.63  2.38
Si  0.24 -0.32 -7.13
Si -0.24  0.32  7.13
Si  5.28 -4.25  2.38
Si -5.28  4.25 -2.38
Si -6.38 -2.28 -2.38
Si  6.38  2.28  2.38
Si -5.38  0.21  4.76
Si  5.38 -0.21 -4.76
Si -2.90  4.56  4.76
Si  2.90 -4.56 -4.76
Si -1.58  6.63  2.38
Si  1.58 -6.63 -2.38
Si  6.51 -2.07  2.38
Si -6.51  2.07 -2.38
Si  6.54  2.07 -2.38
Si -6.54 -2.07  2.38
Si -5.43  4.46  2.38
Si  5.43 -4.46 -2.38
Si  6.67 -2.28 -2.38
Si -6.67  2.28  2.38
Si  1.14 -1.86  7.13
Si -1.14  1.86 -7.13
Si  3.71  6.53  0.00
Si -3.71 -6.53  0.00
Si -1.47 -1.86  7.13
Si  1.47  1.86 -7.13
Si -2.37 -0.32 -7.13
Si  2.37  0.32  7.13
Si  1.00  2.49  7.13
Si -1.00 -2.49 -7.13
Si -2.85  0.32  7.13
Si  2.85 -0.32 -7.13
Si  4.12 -6.53  0.00
Si -4.12  6.53  0.00
Si -1.61  2.49  7.13
Si  1.61 -2.49 -7.13
Si  3.79  6.42 -2.38
Si -3.79 -6.42  2.38
Si -7.83  0.00  0.00
Si  7.83  0.00  0.00
Si -3.63 -6.63 -2.38
Si  3.63  6.63  2.38
Si -4.04  6.42 -2.38
Si  4.04 -6.42  2.38
Si  1.26  6.32 -4.76
Si -1.26 -6.32  4.76
Si  1.35 -6.32  4.76
Si -1.35  6.32 -4.76
Si  7.75  0.11  2.38
Si -7.75 -0.11 -2.38
Si  5.20 -4.14  4.76
Si -5.20  4.14 -4.76
Si  0.10  4.04 -7.13
Si -0.10 -4.04  7.13
Si -5.24 -4.14  4.76
Si  5.24  4.14 -4.76
Si  4.20 -6.63 -2.38
Si -4.20  6.63  2.38
Si -4.93 -4.56 -4.76
Si  4.93  4.56  4.76
Si  6.43 -1.96  4.76
Si -6.43  1.96 -4.76
Si -6.30 -2.39 -4.76
Si  6.30  2.39  4.76
Si  7.91 -0.11 -2.38
Si -7.91  0.11  2.38
Si -3.75  1.86 -7.13
Si  3.75 -1.86  7.13
Si -0.95 -6.74 -4.76
Si  0.95  6.74  4.76
Si  3.61  2.49  7.13
Si -3.61 -2.49 -7.13
Si -6.62 -1.96  4.76
Si  6.62  1.96 -4.76
Si  1.66 -6.74 -4.76
Si -1.66  6.74  4.76
Si -4.08 -1.86  7.13
Si  4.08  1.86 -7.13
Si -0.37  4.67  7.13
Si  0.37 -4.67 -7.13
Si  2.51 -4.04  7.13
Si -2.51  4.04 -7.13
Si  5.51 -4.56 -4.76
Si -5.51  4.56  4.76
Si -6.75  2.39  4.76
Si  6.75 -2.39 -4.76
Si -2.71 -4.04  7.13
Si  2.71  4.04 -7.13
Si  4.22 -2.49 -7.13
Si -4.22  2.49  7.13
Si -4.98 -0.32 -7.13
Si  4.98  0.32  7.13
Si -0.27  8.70  0.00
Si  0.27 -8.70  0.00
Si -3.87 -6.32  4.76
Si  3.87  6.32 -4.76
Si -2.24 -4.67 -7.13
Si  2.24  4.67  7.13
Si  7.70  4.35  0.00
Si -7.70 -4.35  0.00
Si -3.96  6.32 -4.76
Si  3.96 -6.32  4.76
Si -0.19  8.60 -2.38
Si  0.19 -8.60  2.38
Si -3.56 -6.74 -4.76
Si  3.56  6.74  4.76
Si  5.46 -0.32 -7.13
Si -5.46  0.32  7.13
Si -2.34 -8.70  0.00
Si  2.34  8.70  0.00
Si  7.67  0.21  4.76
Si -7.67 -0.21 -4.76
Si -2.98  4.67  7.13
Si  2.98 -4.67 -7.13
Si  7.96 -4.35  0.00
Si -7.96  4.35  0.00
Si  6.32  6.53  0.00
Si -6.32 -6.53  0.00
Si -0.35  8.81  2.38
Si  0.35 -8.81 -2.38
Si  7.62  4.46  2.38
Si -7.62 -4.46 -2.38
Si  2.88 -8.70  0.00
Si -2.88  8.70  0.00
Si  7.77  4.25 -2.38
Si -7.77 -4.25  2.38
Si  2.42  8.60 -2.38
Si -2.42 -8.60  2.38
Si  7.89 -4.25  2.38
Si -7.89  4.25 -2.38
Si  4.27 -6.74 -4.76
Si -4.27  6.74  4.76
Si  7.99 -0.21 -4.76
Si -7.99  0.21  4.76
Si -9.07 -2.18  0.00
Si  9.07  2.18  0.00
Si  2.80 -8.60  2.38
Si -2.80  8.60 -2.38
Si -6.73  6.53  0.00
Si  6.73 -6.53  0.00
Si -6.40 -6.42  2.38
Si  6.40  6.42 -2.38
Si  2.26  8.81  2.38
Si -2.26 -8.81 -2.38
Si  6.25  6.63  2.38
Si -6.25 -6.63 -2.38
Si -9.20  2.18  0.00
Si  9.20 -2.18  0.00
Si -8.04  4.46  2.38
Si  8.04 -4.46 -2.38
Si -0.32  0.42  9.51
Si  0.32 -0.42 -9.51
Si  1.27 -6.21  7.13
Si -1.27  6.21 -7.13
Si  6.65 -6.42  2.38
Si -6.65  6.42 -2.38
Si  1.34  6.21 -7.13
Si -1.34 -6.21  7.13
Si  8.99  2.28  2.38
Si -8.99 -2.28 -2.38
Si -2.96  8.81  2.38
Si  2.96 -8.81 -2.38
Si -9.12  2.07 -2.38
Si  9.12 -2.07  2.38
Si -5.12  4.04 -7.13
Si  5.12 -4.04  7.13
Si -9.15 -2.07  2.38
Si  9.15  2.07 -2.38
Si -1.06  1.75 -9.51
Si  1.06 -1.75  9.51
Si  6.36 -1.86  7.13
Si -6.36  1.86 -7.13
Si  0.11 -8.49  4.76
Si -0.11  8.49 -4.76
Si -5.32 -4.04  7.13
Si  5.32  4.04 -7.13
Si -6.22 -2.49 -7.13
Si  6.22  2.49  7.13
Si -2.29 -0.42 -9.51
Si  2.29  0.42  9.51
Si  1.55  1.75 -9.51
Si -1.55 -1.75  9.51
Si  6.80 -6.63 -2.38
Si -6.80  6.63  2.38
Si  4.85  4.67  7.13
Si -4.85 -4.67 -7.13
Si  9.28 -2.28 -2.38
Si -9.28  2.28  2.38
Si  0.92  2.60  9.51
Si -0.92 -2.60 -9.51
Si  0.87  6.85  7.13
Si -0.87 -6.85 -7.13
Si  6.69  1.86 -7.13
Si -6.69 -1.86  7.13
Si  2.92 -0.42 -9.51
Si -2.92  0.42  9.51
Si -1.69  2.60  9.51
Si  1.69 -2.60 -9.51
Si  7.54  4.56  4.76
Si -7.54 -4.56 -4.76
Si  4.95  8.70  0.00
Si -4.95 -8.70  0.00
Si  7.81 -4.14  4.76
Si -7.81  4.14 -4.76
Si -1.74  6.85  7.13
Si  1.74 -6.85 -7.13
Si  2.50  8.49 -4.76
Si -2.50 -8.49  4.76
Si -7.85 -4.14  4.76
Si  7.85  4.14 -4.76
Si  2.72 -8.49  4.76
Si -2.72  8.49 -4.76
Si  0.43 -8.92 -4.76
Si -0.43  8.92  4.76
Si -6.83  2.49  7.13
Si  6.83 -2.49 -7.13
Si  5.59 -4.67 -7.13
Si -5.59  4.67  7.13
Si  6.48  6.32 -4.76
Si -6.48 -6.32  4.76
Si  3.88 -6.21  7.13
Si -3.88  6.21 -7.13
Si -5.03 -8.60  2.38
Si  5.03  8.60 -2.38
Si -3.95 -6.21  7.13
Si  3.95  6.21 -7.13
Si  6.57 -6.32  4.76
Si -6.57  6.32 -4.76
Si -5.49  8.70  0.00
Si  5.49 -8.70  0.00
Si -0.18 -3.93  9.51
Si  0.18  3.93 -9.51
Si -6.17 -6.74 -4.76
Si  6.17  6.74  4.76
Si  2.18  8.92  4.76
Si -2.18 -8.92 -4.76
Si -3.67  1.75 -9.51
Si  3.67 -1.75  9.51
Si -4.87 -8.81 -2.38
Si  4.87  8.81  2.38
Si -8.91 -2.39 -4.76
Si  8.91  2.39  4.76
Si -9.04  1.96 -4.76
Si  9.04 -1.96  4.76
Si -7.59 -0.32 -7.13
Si  7.59  0.32  7.13
Si -5.41  8.60 -2.38
Si  5.41 -8.60  2.38
Si -10.44  0.00  0.00
Si 10.44  0.00  0.00
Si -8.12  4.56  4.76
Si  8.12 -4.56 -4.76
Si  3.53  2.60  9.51
Si -3.53 -2.60 -9.51
Si -3.48 -6.85 -7.13
Si  3.48  6.85  7.13
Si -4.16 -1.75  9.51
Si  4.16  1.75 -9.51
Si  3.04 -8.92 -4.76
Si -3.04  8.92  4.76
Si  9.22  1.96 -4.76
Si -9.22 -1.96  4.76
Si -2.43  3.93 -9.51
Si  2.43 -3.93  9.51
Si 10.36  0.11  2.38
Si -10.36 -0.11 -2.38
Si  0.45 -4.78 -9.51
Si -0.45  4.78  9.51
Si  2.79  3.93 -9.51
Si -2.79 -3.93  9.51
Si  5.57 -8.81 -2.38
Si -5.57  8.81  2.38
Si -4.91 -0.42 -9.51
Si  4.91  0.42  9.51
Si  6.88 -6.74 -4.76
Si -6.88  6.74  4.76
Si -4.30  2.60  9.51
Si  4.30 -2.60 -9.51
Si -9.36  2.39  4.76
Si  9.36 -2.39 -4.76
Si -8.07  0.32  7.13
Si  8.07 -0.32 -7.13
Si 10.52 -0.11 -2.38
Si -10.52  0.11  2.38
Si -4.35  6.85  7.13
Si  4.35 -6.85 -7.13
Si  2.16  4.78  9.51
Si -2.16 -4.78 -9.51
Si -0.97 -10.88  0.00
Si  0.97 10.88  0.00
Si  5.11  8.49 -4.76
Si -5.11 -8.49  4.76
Si  1.64 -10.88  0.00
Si -1.64 10.88  0.00
Si -0.03  8.39 -7.13
Si  0.03 -8.39  7.13
Si -5.54  0.42  9.51
Si  5.54 -0.42 -9.51
Si  8.93  6.53  0.00
Si -8.93 -6.53  0.00
Si -3.06  4.78  9.51
Si  3.06 -4.78 -9.51
Si  1.05 10.78 -2.38
Si -1.05 -10.78  2.38
Si  5.33 -8.49  4.76
Si -5.33  8.49 -4.76
Si  1.56 -10.78  2.38
Si -1.56 10.78 -2.38
Si -4.79 -8.92 -4.76
Si  4.79  8.92  4.76
Si 10.31  4.35  0.00
Si -10.31 -4.35  0.00
Si -7.73  4.04 -7.13
Si  7.73 -4.04  7.13
Si  0.89 10.99  2.38
Si -0.89 -10.99 -2.38
Si  2.58  8.39 -7.13
Si -2.58 -8.39  7.13
Si -8.86 -6.63 -2.38
Si  8.86  6.63  2.38
Si  9.01  6.42 -2.38
Si -9.01 -6.42  2.38
Si -2.64  8.39 -7.13
Si  2.64 -8.39  7.13
Si -7.46 -4.67 -7.13
Si  7.46  4.67  7.13
Si -10.28 -0.21 -4.76
Si 10.28  0.21  4.76
Si  1.19 -6.11  9.51
Si -1.19  6.11 -9.51
Si -1.72 10.99  2.38
Si  1.72 -10.99 -2.38
Si  1.42  6.11 -9.51
Si -1.42 -6.11  9.51
Si -9.34  6.53  0.00
Si  9.34 -6.53  0.00
Si  7.93  4.04 -7.13
Si -7.93 -4.04  7.13
Si 10.23  4.46  2.38
Si -10.23 -4.46 -2.38
Si -10.57  4.35  0.00
Si 10.57 -4.35  0.00
Si -3.58 -10.88  0.00
Si  3.58 10.88  0.00
Si -5.04  3.93 -9.51
Si  5.04 -3.93  9.51
Si -10.38 -4.25  2.38
Si 10.38  4.25 -2.38
Si  6.49 -6.21  7.13
Si -6.49  6.21 -7.13
Si  6.56  6.21 -7.13
Si -6.56 -6.21  7.13
Si -0.51  9.02  7.13
Si  0.51 -9.02 -7.13
Si  9.26 -6.42  2.38
Si -9.26  6.42 -2.38
Si -7.56 -8.70  0.00
Si  7.56  8.70  0.00
Si  6.28 -1.75  9.51
Si -6.28  1.75 -9.51
Si 10.50 -4.25  2.38
Si -10.50  4.25 -2.38
Si -5.65  8.92  4.76
Si  5.65 -8.92 -4.76
Si -8.97  1.86 -7.13
Si  8.97 -1.86  7.13
Si -6.09 -6.85 -7.13
Si  6.09  6.85  7.13
Si -6.14 -2.60 -9.51
Si  6.14  2.60  9.51
Si -10.60  0.21  4.76
Si 10.60 -0.21 -4.76
Si  5.40  3.93 -9.51
Si -5.40 -3.93  9.51
Si -8.83 -2.49 -7.13
Si  8.83  2.49  7.13
Si  3.66 10.78 -2.38
Si -3.66 -10.78  2.38
Si  4.77  4.78  9.51
Si -4.77 -4.78 -9.51
Si -4.25 10.88  0.00
Si  4.25 -10.88  0.00
Si  2.10  9.02  7.13
Si -2.10 -9.02 -7.13
Si -1.13 -10.67  4.76
Si  1.13 10.67 -4.76
Si -7.64 -8.60  2.38
