500
set: 44.00  0.00  0.00
Si  0.00  0.00  0.00
Si  0.15 -0.24  2.34
Si -0.15  0.24 -2.34
Si -2.38  0.00  0.00
Si  2.38  0.00  0.00
Si  1.12 -2.27  0.00
Si -1.12  2.27  0.00
Si  1.26  2.27  0.00
Si -1.26 -2.27  0.00
Si -0.97  2.02  2.34
Si  0.97 -2.02 -2.34
Si  2.23  0.24 -2.34
Si -2.23 -0.24  2.34
Si  1.41  2.02  2.34
Si -1.41 -2.02 -2.34
Si  2.53 -0.24  2.34
Si -2.53  0.24 -2.34
Si  1.11  2.51 -2.34
Si -1.11 -2.51  2.34
Si -1.27  2.51 -2.34
Si  1.27 -2.51  2.34
Si -3.50  2.27  0.00
Si  3.50 -2.27  0.00
Si  3.64  2.27  0.00
Si -3.64 -2.27  0.00
Si  0.14  4.54  0.00
Si -0.14 -4.54  0.00
Si -3.35  2.02  2.34
Si  3.35 -2.02 -2.34
Si -0.30  0.49 -4.68
Si  0.30 -0.49  4.68
Si -4.76  0.00  0.00
Si  4.76  0.00  0.00
Si -3.79 -2.02 -2.34
Si  3.79  2.02  2.34
Si -0.29 -4.29 -2.34
Si  0.29  4.29  2.34
Si -3.49 -2.51  2.34
Si  3.49  2.51 -2.34
Si  3.65 -2.51  2.34
Si -3.65  2.51 -2.34
Si -2.24  4.54  0.00
Si  2.24 -4.54  0.00
Si -0.83  1.78  4.68
Si  0.83 -1.78 -4.68
Si -2.09 -0.49  4.68
Si  2.09  0.49 -4.68
Si -4.62 -0.24  2.34
Si  4.62  0.24 -2.34
Si  2.52  4.54  0.00
Si -2.52 -4.54  0.00
Si  1.56  1.78  4.68
Si -1.56 -1.78 -4.68
Si -2.10  4.29  2.34
Si  2.10 -4.29 -2.34
Si -0.01  4.78 -2.34
Si  0.01 -4.78  2.34
Si -2.68  0.49 -4.68
Si  2.68 -0.49  4.68
Si  4.91 -0.24  2.34
Si -4.91  0.24 -2.34
Si -0.96 -2.75  4.68
Si  0.96  2.75 -4.68
Si  2.67  4.29  2.34
Si -2.67 -4.29 -2.34
Si  1.42 -2.75  4.68
Si -1.42  2.75 -4.68
Si  2.37  4.78 -2.34
Si -2.37 -4.78  2.34
Si  2.39 -4.78  2.34
Si -2.39  4.78 -2.34
Si  3.21 -1.78 -4.68
Si -3.21  1.78  4.68
Si  0.43  4.05  4.68
Si -0.43 -4.05 -4.68
Si -5.88  2.27  0.00
Si  5.88 -2.27  0.00
Si  3.94  1.78  4.68
Si -3.94 -1.78 -4.68
Si -3.35 -2.75  4.68
Si  3.35  2.75 -4.68
Si -6.02 -2.27  0.00
Si  6.02  2.27  0.00
Si  4.62 -4.54  0.00
Si -4.62  4.54  0.00
Si  1.95 -4.05 -4.68
Si -1.95  4.05  4.68
Si -4.47 -0.49  4.68
Si  4.47  0.49 -4.68
Si -5.74  2.02  2.34
Si  5.74 -2.02 -2.34
Si -3.80  2.75 -4.68
Si  3.80 -2.75  4.68
Si  4.48 -4.29 -2.34
Si -4.48  4.29  2.34
Si  4.90  4.54  0.00
Si -4.90 -4.54  0.00
Si -2.82 -4.05 -4.68
Si  2.82  4.05  4.68
Si -5.88 -2.51  2.34
Si  5.88  2.51 -2.34
Si -0.16  5.02 -4.68
Si  0.16 -5.02  4.68
Si  0.98 -6.80  0.00
Si -0.98  6.80  0.00
Si  6.17  2.02  2.34
Si -6.17 -2.02 -2.34
Si -5.06  0.49 -4.68
Si  5.06 -0.49  4.68
Si -6.03  2.51 -2.34
Si  6.03 -2.51  2.34
Si  1.40  6.80  0.00
Si -1.40 -6.80  0.00
Si  0.83 -6.56 -2.34
Si -0.83  6.56  2.34
Si -5.05 -4.29 -2.34
Si  5.05  4.29  2.34
Si  0.44 -0.73  7.02
Si -0.44  0.73 -7.02
Si -1.55 -6.56 -2.34
Si  1.55  6.56  2.34
Si -4.75 -4.78  2.34
Si  4.75  4.78 -2.34
Si  7.14  0.00  0.00
Si -7.14  0.00  0.00
Si  4.77 -4.78  2.34
Si -4.77  4.78 -2.34
Si  2.22  5.02 -4.68
Si -2.22 -5.02  4.68
Si -0.68  1.54  7.02
Si  0.68 -1.54 -7.02
Si  2.54 -5.02  4.68
Si -2.54  5.02 -4.68
Si  1.94  0.73 -7.02
Si -1.94 -0.73  7.02
Si  7.00  0.24 -2.34
Si -7.00 -0.24  2.34
Si  1.70  1.54  7.02
Si -1.70 -1.54 -7.02
Si -5.59  1.78  4.68
Si  5.59 -1.78 -4.68
Si -1.13  7.05 -2.34
Si  1.13 -7.05  2.34
Si  1.25  7.05 -2.34
Si -1.25 -7.05  2.34
Si  4.33 -4.05 -4.68
Si -4.33  4.05  4.68
Si  3.36 -6.80  0.00
Si -3.36  6.80  0.00
Si -2.83  0.73 -7.02
Si  2.83 -0.73  7.02
Si -7.29  0.24 -2.34
Si  7.29 -0.24  2.34
Si -3.22  6.56  2.34
Si  3.22 -6.56 -2.34
Si  0.82  3.00 -7.02
Si -0.82 -3.00  7.02
Si -3.78 -6.80  0.00
Si  3.78  6.80  0.00
Si -1.56  3.00 -7.02
Si  1.56 -3.00  7.02
Si -3.06  1.54  7.02
Si  3.06 -1.54 -7.02
Si  0.69 -6.32 -4.68
Si -0.69  6.32  4.68
Si -5.73 -2.75  4.68
Si  5.73  2.75 -4.68
Si  3.93  6.56  2.34
Si -3.93 -6.56 -2.34
Si  0.58  3.81  7.02
Si -0.58 -3.81 -7.02
Si -1.69 -6.32 -4.68
Si  1.69  6.32  4.68
Si -6.32 -1.78 -4.68
Si  6.32  1.78  4.68
Si -5.20 -4.05 -4.68
Si  5.20  4.05  4.68
Si  1.80 -3.81 -7.02
Si -1.80  3.81  7.02
Si  3.51 -7.05  2.34
Si -3.51  7.05 -2.34
Si -6.18  2.75 -4.68
Si  6.18 -2.75  4.68
Si  3.63  7.05 -2.34
Si -3.63 -7.05  2.34
Si -4.08 -1.54 -7.02
Si  4.08  1.54  7.02
Si  4.61  5.02 -4.68
Si -4.61 -5.02  4.68
Si  4.32  0.73 -7.02
Si -4.32 -0.73  7.02
Si -3.20 -3.00  7.02
Si  3.20  3.00 -7.02
Si  6.85  0.49 -4.68
Si -6.85 -0.49  4.68
Si -7.01  4.54  0.00
Si  7.01 -4.54  0.00
Si  6.86 -4.29 -2.34
Si -6.86  4.29  2.34
Si -3.07  6.32  4.68
Si  3.07 -6.32 -4.68
Si -4.92  5.02 -4.68
Si  4.92 -5.02  4.68
Si -2.96 -3.81 -7.02
Si  2.96  3.81  7.02
Si  8.27 -2.27  0.00
Si -8.27  2.27  0.00
Si -7.28 -4.54  0.00
Si  7.28  4.54  0.00
Si  3.95 -3.00  7.02
Si -3.95  3.00 -7.02
Si -8.12  2.02  2.34
Si  8.12 -2.02 -2.34
Si -8.40 -2.27  0.00
Si  8.40  2.27  0.00
Si -1.10 -7.29  4.68
Si  1.10  7.29 -4.68
Si -1.28  7.29 -4.68
Si  1.28 -7.29  4.68
Si -5.21  0.73 -7.02
Si  5.21 -0.73  7.02
Si -0.30  5.27 -7.02
Si  0.30 -5.27  7.02
Si -7.44  0.49 -4.68
Si  7.44 -0.49  4.68
Si  4.08  6.32  4.68
Si -4.08 -6.32 -4.68
Si  7.43  4.29  2.34
Si -7.43 -4.29 -2.34
Si -7.13 -4.78  2.34
Si  7.13  4.78 -2.34
Si  5.75 -6.80  0.00
Si -5.75  6.80  0.00
Si  7.15 -4.78  2.34
Si -7.15  4.78 -2.34
Si -5.60  6.56  2.34
Si  5.60 -6.56 -2.34
Si -8.26 -2.51  2.34
Si  8.26  2.51 -2.34
Si -4.18  3.81  7.02
Si  4.18 -3.81 -7.02
Si  5.44 -1.54 -7.02
Si -5.44  1.54  7.02
Si -2.08 -5.27  7.02
Si  2.08  5.27 -7.02
Si -0.28 -9.07  0.00
Si  0.28  9.07  0.00
Si  8.41 -2.51  2.34
Si -8.41  2.51 -2.34
Si  8.55  2.02  2.34
Si -8.55 -2.02 -2.34
Si -6.71  4.05  4.68
Si  6.71 -4.05 -4.68
Si -0.42 -8.83 -2.34
Si  0.42  8.83  2.34
Si -6.16 -6.80  0.00
Si  6.16  6.80  0.00
Si  2.69 -5.27  7.02
Si -2.69  5.27 -7.02
Si  0.54 -6.07 -7.02
Si -0.54  6.07  7.02
Si -2.10  9.07  0.00
Si  2.10 -9.07  0.00
Si  3.48  7.29 -4.68
Si -3.48 -7.29  4.68
Si  1.96 -8.83 -2.34
Si -1.96  8.83  2.34
Si -6.31 -6.56 -2.34
Si  6.31  6.56  2.34
Si  3.66 -7.29  4.68
Si -3.66  7.29 -4.68
Si -7.97  1.78  4.68
Si  7.97 -1.78 -4.68
Si -0.59  0.97 -9.36
Si  0.59 -0.97  9.36
Si  2.66  9.07  0.00
Si -2.66 -9.07  0.00
Si -5.58 -3.00  7.02
Si  5.58  3.00 -7.02
Si -1.84 -6.07 -7.02
Si  1.84  6.07  7.02
Si -0.53  1.29  9.36
Si  0.53 -1.29 -9.36
Si -5.89  7.05 -2.34
Si  5.89 -7.05  2.34
Si -9.53  0.00  0.00
Si  9.53  0.00  0.00
Si  2.81  8.83  2.34
Si -2.81 -8.83 -2.34
Si -6.01 -7.05  2.34
Si  6.01  7.05 -2.34
Si -5.45  6.32  4.68
Si  5.45 -6.32 -4.68
Si  1.79  0.97 -9.36
Si -1.79 -0.97  9.36
Si -0.13 -9.32  2.34
Si  0.13  9.32 -2.34
Si -5.34 -3.81 -7.02
Si  5.34  3.81  7.02
Si -1.85 -1.29 -9.36
Si  1.85  1.29  9.36
Si -9.38 -0.24  2.34
Si  9.38  0.24 -2.34
Si  6.47  1.54  7.02
Si -6.47 -1.54 -7.02
Si  2.92 -6.07 -7.02
Si -2.92  6.07  7.02
Si -6.70 -0.73  7.02
Si  6.70  0.73 -7.02
Si  8.11  2.75 -4.68
Si -8.11 -2.75  4.68
Si -7.58 -4.05 -4.68
Si  7.58  4.05  4.68
Si -0.57 -8.59 -4.68
Si  0.57  8.59  4.68
Si -6.99 -5.02  4.68
Si  6.99  5.02 -4.68
Si  4.46  5.27 -7.02
Si -4.46 -5.27  7.02
Si  2.25 -9.32  2.34
Si -2.25  9.32 -2.34
Si  2.97 -0.97  9.36
Si -2.97  0.97 -9.36
Si  2.91 -1.29 -9.36
Si -2.91  1.29  9.36
Si  6.33 -3.00  7.02
Si -6.33  3.00 -7.02
Si -2.51 -9.32  2.34
Si  2.51  9.32 -2.34
Si -0.67 -3.24  9.36
Si  0.67  3.24 -9.36
Si  1.81 -8.59 -4.68
Si -1.81  8.59  4.68
Si  9.67 -0.24  2.34
Si -9.67  0.24 -2.34
Si -7.30  5.02 -4.68
Si  7.30 -5.02  4.68
Si -8.70 -1.78 -4.68
Si  8.70  1.78  4.68
Si -0.73 -3.56 -9.36
Si  0.73  3.56  9.36
Si -1.71  3.24 -9.36
Si  1.71 -3.24  9.36
Si -4.34  8.83  2.34
Si  4.34 -8.83 -2.34
Si  4.49 -9.07  0.00
Si -4.49  9.07  0.00
Si  5.07 -5.27  7.02
Si -5.07  5.27 -7.02
Si  8.56 -2.75  4.68
Si -8.56  2.75 -4.68
Si -1.65  3.56  9.36
Si  1.65 -3.56 -9.36
Si -6.46 -6.32 -4.68
Si  6.46  6.32  4.68
Si  4.22  6.07  7.02
Si -4.22 -6.07 -7.02
Si -2.95 -8.59 -4.68
Si  2.95  8.59  4.68
Si -4.17 -0.97  9.36
Si  4.17  0.97 -9.36
Si -6.56  3.81  7.02
Si  6.56 -3.81 -7.02
Si -0.95 -7.54  7.02
Si  0.95  7.54 -7.02
Si  4.23  1.29  9.36
Si -4.23 -1.29 -9.36
Si  9.23  0.49 -4.68
Si -9.23 -0.49  4.68
Si  7.59 -0.73  7.02
Si -7.59  0.73 -7.02
Si  3.05  3.24 -9.36
Si -3.05 -3.24  9.36
Si  5.04  9.07  0.00
Si -5.04 -9.07  0.00
Si  1.43 -7.54  7.02
Si -1.43  7.54 -7.02
Si  9.39 -4.54  0.00
Si -9.39  4.54  0.00
Si  9.24 -4.29 -2.34
Si -9.24  4.29  2.34
Si  5.87  7.29 -4.68
Si -5.87 -7.29  4.68
Si -3.11 -3.56 -9.36
Si  3.11  3.56  9.36
Si  5.19  8.83  2.34
Si -5.19 -8.83 -2.34
Si -6.04  7.29 -4.68
Si  6.04 -7.29  4.68
Si -7.98  6.56  2.34
Si  7.98 -6.56 -2.34
Si -8.13  6.80  0.00
Si  8.13 -6.80  0.00
Si  7.82 -1.54 -7.02
Si -7.82  1.54  7.02
Si  4.19 -8.59 -4.68
Si -4.19  8.59  4.68
Si -0.02  9.56 -4.68
Si  0.02 -9.56  4.68
Si -4.63  9.32 -2.34
Si  4.63 -9.32  2.34
Si -9.66 -4.54  0.00
Si  9.66  4.54  0.00
Si  5.30 -6.07 -7.02
Si -5.30  6.07  7.02
Si -4.09  3.24 -9.36
Si  4.09 -3.24  9.36
Si  4.89  9.32 -2.34
Si -4.89 -9.32  2.34
Si -4.03  3.56  9.36
Si  4.03 -3.56 -9.36
Si  3.34  7.54 -7.02
Si -3.34 -7.54  7.02
Si -5.35  0.97 -9.36
Si  5.35 -0.97  9.36
Si -5.29  1.29  9.36
Si  5.29 -1.29 -9.36
Si  0.45 -5.51  9.36
Si -0.45  5.51 -9.36
Si -10.65  2.27  0.00
Si 10.65 -2.27  0.00
Si -9.82  0.49 -4.68
Si  9.82 -0.49  4.68
Si  9.52  4.78 -2.34
Si -9.52 -4.78  2.34
Si -2.36 -9.56  4.68
Si  2.36  9.56 -4.68
Si -2.40  9.56 -4.68
Si  2.40 -9.56  4.68
Si  9.54 -4.78  2.34
Si -9.54  4.78 -2.34
Si -8.54 -6.80  0.00
Si  8.54  6.80  0.00
Si  0.72  8.34  7.02
Si -0.72 -8.34 -7.02
Si 10.50 -2.02 -2.34
Si -10.50  2.02  2.34
Si -9.81 -4.29 -2.34
Si  9.81  4.29  2.34
Si  3.81 -7.54  7.02
Si -3.81  7.54 -7.02
Si  9.09 -4.05 -4.68
Si -9.09  4.05  4.68
Si -10.79 -2.27  0.00
Si 10.79  2.27  0.00
Si  1.66 -8.34 -7.02
Si -1.66  8.34  7.02
Si  7.96  3.00 -7.02
Si -7.96 -3.00  7.02
Si -1.93 -5.51  9.36
Si  1.93  5.51 -9.36
Si  0.39 -5.83 -9.36
Si -0.39  5.83  9.36
Si -7.83  6.32  4.68
Si  7.83 -6.32 -4.68
Si -7.73 -3.81 -7.02
Si  7.73  3.81  7.02
Si  8.28 -7.05  2.34
Si -8.28  7.05 -2.34
Si -6.84 -5.27  7.02
Si  6.84  5.27 -7.02
Si  8.69  6.56  2.34
Si -8.69 -6.56 -2.34
Si -5.34 -8.59 -4.68
Si  5.34  8.59  4.68
Si -10.64 -2.51  2.34
Si 10.64  2.51 -2.34
Si  1.99  5.83  9.36
Si -1.99 -5.83 -9.36
Si  8.39  7.05 -2.34
Si -8.39 -7.05  2.34
Si  2.83 -5.51  9.36
Si -2.83  5.51 -9.36
Si -5.43 -3.24  9.36
Si  5.43  3.24 -9.36
Si 10.79 -2.51  2.34
Si -10.79  2.51 -2.34
Si -3.10 -8.34 -7.02
Si  3.10  8.34  7.02
Si  6.72 -8.83 -2.34
Si -6.72  8.83  2.34
Si 10.93  2.02  2.34
Si -10.93 -2.02 -2.34
Si  0.70 -11.10 -2.34
Si -0.70 11.10  2.34
Si  0.84 -11.34  0.00
Si -0.84 11.34  0.00
Si  2.77 -5.83 -9.36
Si -2.77  5.83  9.36
Si -6.87  9.07  0.00
Si  6.87 -9.07  0.00
Si -6.61 -6.07 -7.02
Si  6.61  6.07  7.02
Si  8.85  1.54  7.02
Si -8.85 -1.54 -7.02
Si  5.49  3.56  9.36
Si -5.49 -3.56 -9.36
Si -1.54 -11.34  0.00
Si  1.54 11.34  0.00
Si  1.69 11.10  2.34
