500
set: 1068.00  0.00  0.00
Si -0.32  1.19 -0.82
Si  0.43 -1.20  0.81
Si -1.30 -1.11 -0.81
Si  1.28  1.08  0.94
Si  2.10 -1.21 -0.88
Si -2.20  1.15  0.76
Si -0.87  0.17  2.45
Si  0.88  0.00 -2.46
Si  2.96  1.12 -0.78
Si -3.07 -1.19  0.78
Si -0.03 -2.37 -2.44
Si  0.10  2.48  2.37
Si -2.59  0.03 -2.45
Si -1.68 -2.17  2.37
Si  2.64 -0.07  2.50
Si  0.48  3.54 -0.81
Si -1.68  2.27 -2.39
Si -0.50 -3.57  0.94
Si  1.69 -2.35  2.42
Si  1.75  2.28 -2.44
Si -1.29  3.46  0.78
Si  1.17 -3.53 -0.78
Si  3.88 -1.19  0.78
Si -2.11 -3.46 -0.82
Si  0.86 -0.04  4.05
Si  2.22  3.45  0.81
Si -0.79  0.16 -4.12
Si -3.99  1.12 -0.78
Si  2.97 -3.50  0.76
Si -0.01 -2.33  4.03
Si -3.07  3.45 -0.88
Si  0.02  2.50 -4.04
Si  3.47  2.30  2.42
Si -3.48  2.30  2.42
Si  2.58 -0.03 -4.07
Si -3.47 -2.38 -2.39
Si -2.57 -0.05  4.10
Si  3.48 -2.38 -2.39
Si -1.77 -2.15 -4.04
Si  4.75  1.15  0.76
Si  1.74 -2.39 -3.99
Si -1.69  2.36  4.04
Si  1.77  2.33  4.03
Si -4.32 -0.07  2.50
Si  4.36  0.03 -2.45
Si -4.86 -1.21 -0.88
Si  3.88  3.45 -0.88
Si -0.91 -4.65 -2.46
Si -0.80  4.68 -2.45
Si -3.98 -3.50  0.76
Si  0.85 -4.72  2.50
Si  0.91  4.82  2.45
Si  0.39 -1.25 -5.55
Si -3.42  2.26 -3.99
Si -2.66 -4.48  2.45
Si  3.53  2.26 -3.99
Si -2.53  4.58  2.50
Si  3.47 -2.29  4.04
Si -3.48 -2.29  4.04
Si  5.65 -1.11 -0.81
Si -0.41  1.21  5.68
Si  2.58 -4.62 -2.45
Si -5.67  1.08  0.94
Si -0.41  5.80  0.76
Si  2.66  4.65 -2.46
Si -1.21 -1.14  5.66
Si -4.74  3.45  0.81
Si  0.31 -5.86 -0.88
Si  1.32  1.13 -5.68
Si -4.37 -0.03 -4.07
Si  4.38 -0.05  4.10
Si  4.84 -3.46 -0.82
Si -1.35 -5.85  0.81
Si  1.46  5.84 -0.82
Si  5.27 -2.17  2.37
Si -5.20  2.28 -2.44
Si  2.06 -1.21  5.71
Si -0.79  4.60  4.10
Si -2.18  1.14 -5.71
Si  5.27  2.27 -2.39
Si -2.21  5.77 -0.78
Si -5.26 -2.35  2.42
Si  0.79 -4.68 -4.07
Si  2.09 -5.84  0.78
Si -0.93 -4.70  4.05
Si  0.99  4.81 -4.12
Si  2.99  1.12  5.61
Si -6.07  0.00 -2.46
Si  6.08  0.17  2.45
Si  3.07  5.73  0.94
Si -3.09 -5.77 -0.81
Si -3.09 -1.18 -5.73
Si -2.58 -4.49 -4.12
Si  4.29 -4.48  2.45
Si -6.52 -1.20  0.81
Si  2.65  4.61  4.05
Si -2.59  4.62 -4.07
Si  5.66  3.46  0.78
Si  0.57  3.52  5.66
Si -0.46 -3.52 -5.68
Si  1.20 -3.53  5.61
Si  2.59 -4.71  4.10
Si  6.63  1.19 -0.82
Si -4.29  4.65 -2.46
Si -4.37 -4.62 -2.45
Si -5.78 -3.53 -0.78
Si -1.30  3.48 -5.73
Si  4.42  4.58  2.50
Si  2.18  3.40 -5.55
Si  5.18 -2.15 -4.04
Si -3.96  1.12  5.61
Si -5.18  2.33  4.03
Si -3.88  5.73  0.94
Si -5.21 -2.39 -3.99
Si  3.86 -5.77 -0.81
Si -2.19 -3.44  5.68
Si  3.86 -1.18 -5.73
Si  5.26  2.36  4.04
Si -6.09 -0.04  4.05
Si  0.10  6.92 -2.39
Si  2.98 -3.52 -5.71
Si -3.10  3.44  5.71
Si -0.10 -7.00  2.42
Si -0.41  1.21 -7.30
Si  6.16  0.16 -4.12
Si -7.27  1.19 -0.82
Si -6.47  3.54 -0.81
Si  6.45 -3.57  0.94
Si -4.30  4.61  4.05
Si -1.22 -1.14 -7.32
Si  4.37 -4.49 -4.12
Si  1.32  1.13  7.30
Si  4.74  5.77 -0.78
Si  7.38 -1.20  0.81
Si  4.77  1.14 -5.71
Si  0.39 -1.25  7.43
Si -1.69  6.95  2.42
Si  4.37  4.62 -4.07
Si -4.36 -4.71  4.10
Si -4.89 -1.21  5.71
Si  1.70 -7.03 -2.39
Si -4.86 -5.84  0.78
Si  2.06 -1.21 -7.26
Si -1.82 -7.02 -2.44
Si -6.85  2.48  2.37
Si -2.18  1.14  7.27
Si  3.85  3.44  5.71
Si  6.92 -2.37 -2.44
Si  1.89  7.14  2.37
Si -6.99 -2.37 -2.44
Si -3.97 -3.52 -5.71
Si  7.05  2.48  2.37
Si -3.09 -1.18  7.25
Si -3.47 -6.82  2.37
Si  6.04 -4.65 -2.46
Si  3.48 -6.82  2.37
Si  2.99  1.12 -7.37
Si -5.49  5.84 -0.82
Si -5.63  1.13 -5.68
Si -4.78  3.40 -5.55
Si  0.09  7.01  4.04
Si -0.04 -7.04 -3.99
Si -3.41  6.93 -2.44
Si -6.04  4.82  2.45
Si -6.10 -4.72  2.50
Si  6.15  4.68 -2.45
Si -0.46 -3.52  7.30
Si  0.57  3.52 -7.32
Si  5.60 -5.85  0.81
Si -0.40  5.79 -5.71
Si  5.74 -1.14  5.66
Si -1.64  6.91 -3.99
Si -1.30  3.47  7.25
Si  3.54  6.93 -2.44
Si  0.50  8.11  0.78
Si  4.76 -3.44  5.68
Si  0.28 -5.86  5.71
Si -7.83  0.17  2.45
Si  7.83  0.00 -2.46
Si  1.69 -6.95  4.04
Si -1.40 -5.90 -5.55
Si -0.61 -8.18 -0.78
Si -1.28  8.10 -0.88
Si  1.20 -3.53 -7.37
Si -1.80 -6.98  4.03
Si  7.43  3.54 -0.81
Si  1.18 -8.15  0.76
Si  1.38  5.86  5.68
Si  3.86 -1.18  7.25
Si -7.45 -3.57  0.94
Si -2.17  5.77  5.61
Si  6.94 -2.33  4.03
Si  8.23  1.08  0.94
Si -2.20 -3.44 -7.30
Si -8.25 -1.11 -0.81
Si -6.97 -2.33  4.03
Si -6.93  2.50 -4.04
Si  1.80  7.15 -4.04
Si  2.08 -5.83 -5.73
Si  6.97  2.50 -4.04
Si -3.96  1.12 -7.37
Si  2.18  3.40  7.43
Si  2.27  8.19 -0.81
Si -2.29 -8.22  0.94
Si  2.99 -3.52  7.27
Si  3.40 -6.81 -4.04
Si -3.10  3.44 -7.26
Si -3.00 -5.79  5.66
Si  6.03 -4.70  4.05
Si -2.95  8.11  0.81
Si  3.11  5.78 -5.68
Si -3.55 -6.81 -4.04
Si -6.56 -1.25 -5.55
Si -5.96  4.81 -4.12
Si  3.06 -8.11 -0.82
Si  6.16  4.60  4.10
Si -6.16 -4.68 -4.07
Si -3.40  6.98  4.03
Si  6.54  1.21  5.68
Si  5.65  3.48 -5.73
Si  4.77  1.14  7.27
Si -7.74  0.16 -4.12
Si  6.54  5.80  0.76
Si -5.75 -3.53  5.61
Si  7.81 -0.04  4.05
Si  3.56  6.98  4.03
Si -4.89 -1.21 -7.26
Si  8.12 -3.53 -0.78
Si -0.79  0.16  8.86
Si -6.64 -5.86 -0.88
Si  3.85  3.44 -7.26
Si -3.84  5.78 -5.68
Si -8.24  3.46  0.78
Si  0.86 -0.04 -8.93
Si -3.97 -3.52  7.27
Si  3.95 -5.79  5.66
Si  5.13 -7.02 -2.44
Si -3.89 -8.11 -0.82
Si  5.26  6.95  2.42
Si -5.06  7.14  2.37
Si  4.00  8.11  0.81
Si -5.25 -7.03 -2.39
Si  9.05 -1.21 -0.88
Si -8.63 -2.17  2.37
Si -6.38  3.52  5.66
Si -8.63  2.27 -2.39
Si -0.02 -2.32 -8.95
Si -2.58 -0.05 -8.88
Si -9.15  1.15  0.76
Si  2.58 -0.03  8.91
Si  8.64 -2.35  2.42
Si  0.02  2.50  8.94
Si -5.63  1.13  7.30
Si  7.34 -1.25 -5.55
Si -0.39  5.79  7.27
Si  6.49 -3.52 -5.68
Si  8.70  2.28 -2.44
Si  0.28 -5.86 -7.26
Si  4.78  5.77  5.61
Si -1.77 -2.16  8.94
Si  5.74 -1.14 -7.32
Si  4.75 -3.44 -7.30
Si  7.26 -5.86 -0.88
Si -7.36  1.21  5.68
Si -7.75  4.68 -2.45
Si -1.70  2.36 -8.94
Si -7.36  5.80  0.76
Si  1.77  2.33 -8.95
Si  7.80 -4.72  2.50
Si -7.86 -4.65 -2.46
Si -4.77  3.40  7.43
Si  1.74 -2.39  8.99
Si  1.38  5.86 -7.30
Si -4.68  8.19 -0.81
Si  4.66 -8.22  0.94
Si -4.88 -5.83 -5.73
Si  2.08 -5.83  7.25
Si  7.86  4.82  2.45
Si  5.15 -6.98  4.03
Si -1.39 -5.90  7.43
Si  5.32  6.91 -3.99
Si -0.74  9.24  2.50
Si -2.18  5.77 -7.37
Si -5.26 -6.95  4.04
Si  0.79 -9.27 -2.45
Si -5.15  7.15 -4.04
Si  0.98  9.34 -2.45
Si -9.06 -3.46 -0.82
Si -0.94 -9.37  2.50
Si  2.50 -9.13  2.45
Si -3.00 -5.79 -7.32
Si  3.11  5.78  7.30
Si  5.56 -5.90 -5.55
Si  5.65  3.47  7.25
Si  9.17  3.45  0.81
Si -8.64  2.36  4.04
Si -9.54  0.03 -2.45
Si -8.72 -2.15 -4.04
Si  3.47 -2.29 -8.94
Si -3.48 -2.29 -8.94
Si  8.69 -2.39 -3.99
Si  6.54  1.21 -7.30
Si -3.42  2.26  8.99
Si -5.58  5.86  5.68
Si  8.72  2.33  4.03
Si -7.74  4.60  4.10
Si  4.38 -0.05 -8.88
Si  9.59 -0.07  2.50
Si  3.53  2.26  8.99
Si -4.37 -0.03  8.91
Si  7.74 -4.68 -4.07
Si  5.67  8.10 -0.88
Si -0.58 -8.18  5.61
Si -2.50  9.30 -2.46
Si  0.48  8.13 -5.73
Si -7.41 -3.52 -5.68
Si -6.56 -1.25  7.43
Si -5.75 -3.53 -7.37
Si -2.69 -9.30 -2.46
Si -1.31  8.10  5.71
Si  9.91  1.12 -0.78
Si -8.16 -1.14  5.66
Si -5.77 -8.15  0.76
Si -7.88 -4.70  4.05
Si -6.85  6.92 -2.39
Si -0.79  4.60 -8.88
Si  1.20 -8.17 -5.71
Si  7.52  3.52  5.66
Si -3.84  5.78  7.30
Si  0.79 -4.68  8.91
Si  6.85 -7.00  2.42
Si  8.27  1.13 -5.68
Si -10.03 -1.19  0.78
Si  1.00  4.81  8.86
Si  3.95 -5.79 -7.32
Si -0.93 -4.69 -8.93
Si  2.70  9.47  2.45
Si  7.95  4.81 -4.12
Si -0.80  9.28 -4.07
Si  1.00  9.25  4.10
Si  7.06  6.92 -2.39
Si -8.31 -5.85  0.81
Si -2.25 -8.18 -5.68
Si  2.36  8.17  5.66
Si -7.05 -7.00  2.42
Si -0.99 -9.33 -4.07
Si -2.99  8.06 -5.55
Si  0.81 -9.36  4.10
Si -2.58 -4.49  8.86
Si  8.41  5.84 -0.82
Si  2.97 -8.09  5.68
Si -6.38  3.52 -7.32
Si  2.59 -9.14 -4.12
Si -2.58  4.62  8.91
Si  9.53 -0.03 -4.07
Si -9.53 -0.05  4.10
Si  2.59 -4.71 -8.88
Si  6.34 -8.18 -0.78
Si  6.49 -3.52  7.30
Si  2.65  4.61 -8.93
Si -6.45  8.11  0.78
Si -2.52  9.26  4.05
Si -7.36  1.21 -7.30
Si  6.56  5.79 -5.71
Si -4.45 -9.13  2.45
Si -0.42 10.42 -0.78
Si -4.87 -5.83  7.25
Si  4.77  5.77 -7.37
Si  8.15 -3.53  5.61
Si  7.34 -1.25  7.43
Si  4.26 -9.30 -2.46
Si  0.31 -10.49  0.78
Si -2.71 -9.35  4.05
Si  9.92 -3.50  0.76
Si  5.18 -2.16  8.94
Si  3.96  8.06 -5.55
Si -6.67 -5.86  5.71
Si  0.88  0.00 10.52
Si -0.88  0.17 -10.53
Si  1.38 10.45  0.76
Si -5.18  2.33 -8.95
Si  4.45  9.30 -2.46
Si -6.86  7.01  4.04
Si -8.26  3.48 -5.73
Si  5.26  2.36 -8.94
Si -10.02  3.45 -0.88
Si -2.10 10.38  0.94
Si  6.91 -7.04 -3.99
Si -1.48 -10.51 -0.88
Si  2.08 -10.42 -0.81
Si -3.98 -8.09  5.68
Si -5.21 -2.39  8.99
Si -4.25  9.47  2.45
Si  2.78  9.46 -4.12
Si -6.99 -7.04 -3.99
Si  7.04  7.01  4.04
Si  9.02 -1.21  5.71
Si  6.16  0.16  8.86
Si  9.04 -5.84  0.78
Si -0.03 -2.37 10.54
Si  2.63 -0.07 -10.48
Si -6.09 -0.04 -8.93
Si -9.48  4.58  2.50
Si -9.13  1.14 -5.71
Si -2.59  0.03 10.53
Si  4.38 -4.49  8.86
Si -9.16  5.77 -0.78
Si  9.53 -4.62 -2.45
Si -9.61 -4.48  2.45
Si -5.58  5.86 -7.30
Si  0.10  2.48 -10.61
Si  0.48  8.13  7.25
Si  7.23 -5.86  5.71
Si 10.83 -1.19  0.78
Si  1.75  2.28 10.54
Si -4.31  4.61 -8.93
Si -4.36 -9.14 -4.12
Si  4.37  4.62  8.91
Si 10.42  2.30  2.42
Si -4.59  8.17  5.66
Si -10.43  2.30  2.42
Si -10.42 -2.38 -2.39
Si  1.69 -2.35 -10.56
Si -4.36 -4.71 -8.88
Si -7.35  5.79 -5.71
Si -1.68  2.27 10.59
Si -1.31  8.10 -7.26
Si  9.61  4.65 -2.46
Si -1.69 -2.17 -10.61
Si 10.44 -2.38 -2.39
Si -7.41 -3.52  7.30
Si -3.14 -10.50  0.81
Si  5.56 -5.90  7.43
Si  1.20 -8.17  7.27
Si  4.70 -8.18 -5.68
Si  3.25 10.49 -0.82
Si -8.17 -1.14 -7.32
Si -0.58 -8.18 -7.37
Si -10.95  1.12 -0.78
Si  4.24 -9.35  4.05
Si  4.43  9.26  4.05
Si  7.45  8.11  0.78
Si  7.52  3.52 -7.32
Si  8.28  1.13  7.30
Si -4.17  9.46 -4.12
Si -3.70 10.49 -0.82
Si -7.57 -8.18 -0.78
Si -2.25 -8.18  7.30
Si  3.81 -10.50  0.81
Si  9.13  3.40 -5.55
Si  2.36  8.17 -7.32
Si  2.97 -8.09 -7.30
Si -9.15 -3.44  5.68
Si -9.53 -4.49 -4.12
Si -4.32 -0.07 -10.48
Si -10.37  2.26 -3.99
Si -5.97  9.34 -2.45
Si -8.64  6.95  2.42
Si  3.47  2.30 -10.56
Si -9.54  4.62 -4.07
Si -3.48  2.30 -10.56
Si -2.99  8.06  7.43
Si  0.09  7.01 -8.94
Si  6.56  5.79  7.27
Si  9.60  4.61  4.05
Si -3.47 -2.38 10.59
Si -6.16 -9.27 -2.45
Si  3.48 -2.38 10.59
Si  5.64  8.10  5.71
Si  8.65 -7.03 -2.39
Si  4.37  0.03 10.53
Si  9.54 -4.71  4.10
Si 10.83  3.45 -0.88
Si  6.21  9.24  2.50
Si  6.02 -9.37  2.50
Si 10.42 -2.29  4.04
Si -10.43 -2.29  4.04
Si -0.04 -7.04  8.99
Si 10.48  2.26 -3.99
Si  1.69 -6.95 -8.94
Si -1.64  6.91  8.99
Si  9.94  1.12  5.61
Si -6.67 -5.86 -7.26
Si -1.80 -6.98 -8.95
Si -8.77 -7.02 -2.44
Si  4.86 10.38  0.94
Si -5.75 -8.17 -5.71
Si -10.93 -3.50  0.76
Si -8.25  3.47  7.25
Si  0.85 -4.72 -10.48
Si -4.88 -10.42 -0.81
Si -11.27 -0.07  2.50
Si -0.91 -4.65 10.52
Si  8.15 -3.53 -7.37
Si  8.13 -8.15  0.76
Si -0.80  4.68 10.53
Si  6.93 -2.32 -8.95
Si -6.97 -2.32 -8.95
Si 11.31  0.03 -2.45
Si 10.02  5.73  0.94
