500
set: 1447.00  0.00  0.00
Si -1.08 -0.62  0.15
Si  1.49 -0.61  0.01
Si -1.49  1.59 -0.99
Si  0.31  1.49  1.92
Si -1.17 -0.25 -2.21
Si -0.79 -2.47 -1.07
Si  2.36 -0.25 -2.08
Si  2.43  2.02  0.39
Si  0.79  2.91 -1.07
Si  0.69 -0.74  3.06
Si -2.25  1.48  2.05
Si  0.85 -3.36  0.39
Si  2.87 -1.14  1.67
Si -3.22 -1.14  1.67
Si  0.95  0.28 -3.74
Si  1.39 -2.88 -2.46
Si -1.59 -2.05  3.14
Si -3.66  2.02  0.39
Si -3.73 -0.25 -2.08
Si  0.40  1.12  4.28
Si -1.27 -3.89  1.92
Si -0.01  3.33  3.14
Si  2.97  2.50 -2.46
Si  3.84  1.48  2.05
Si -4.60 -0.61  0.01
Si -3.12  2.50 -2.46
Si  0.01 -2.35 -4.12
Si  0.50  4.76  0.15
Si -1.64  4.24  1.67
Si  3.02 -3.79 -0.99
Si  2.25 -3.90  2.05
Si  4.60  1.59 -0.99
Si -3.07 -3.79 -0.99
Si  5.01 -0.62  0.15
Si -0.97  3.02 -3.98
Si  2.96  1.12  4.13
Si -2.56 -2.36 -3.98
Si -3.13  1.12  4.13
Si  2.33 -1.62  4.51
Si  1.59  3.03 -4.12
Si -0.69  1.17 -5.20
Si  4.92 -0.25 -2.21
Si  0.41  5.13 -2.21
Si -3.02  4.77  0.01
Si  3.07  4.77  0.01
Si  3.53 -2.36 -3.98
Si -3.83 -3.90  2.05
Si  4.50 -2.05  3.14
Si -2.97 -0.14 -5.12
Si -2.15  5.13 -2.08
Si  5.30 -2.47 -1.07
Si -0.10 -5.99  0.01
Si  3.12 -0.14 -5.12
Si  2.27  4.64  3.06
Si -4.70 -2.88 -2.46
Si  0.78 -5.63 -2.08
Si -1.74  0.59  5.80
Si  1.38 -4.25  4.13
Si -3.77 -1.62  4.51
Si -5.30  2.91 -1.07
Si -1.18 -4.26  4.28
Si -5.24 -3.36  0.39
Si -5.40 -0.74  3.06
Si -2.18  3.76  4.51
Si -5.78  1.49  1.92
Si -0.63 -5.09 -3.74
Si -5.14  0.28 -3.74
Si  4.45  4.24  1.67
Si  0.20 -2.15  6.05
Si  4.82 -3.89  1.92
Si -2.66 -6.00  0.15
Si  0.88 -1.99 -6.21
Si -2.75 -5.63 -2.21
Si -3.82  4.64  3.06
Si  3.94  5.13 -2.08
Si  1.49  0.76 -6.58
Si -4.50  3.03 -4.12
Si  6.40  1.49  1.92
Si  1.28 -6.52  1.67
Si -0.90 -6.12  3.06
Si  3.34 -5.63 -2.21
Si  3.43 -6.00  0.15
Si -2.36 -2.16  6.18
Si -0.77  3.22  6.18
Si  0.09  6.97 -0.99
Si  3.91  3.76  4.51
Si -2.27 -4.21 -5.20
Si  1.79  3.23  6.05
Si -2.65 -1.99 -6.33
Si  5.12  3.02 -3.98
Si -0.67  6.86  2.05
Si -7.17 -0.62  0.15
Si -5.69  1.12  4.28
Si  2.53  5.67 -3.74
Si -1.07  3.39 -6.33
Si  4.35  0.59  5.80
Si -0.11 -0.31  7.27
Si -5.59  4.76  0.15
Si  1.89  6.87  1.92
Si -6.88 -2.47 -1.07
Si -1.38  5.24 -5.12
Si  6.78 -0.74  3.06
Si  3.44 -1.99 -6.33
Si  2.46  3.39 -6.21
Si  3.73 -2.16  6.18
Si  6.88  2.91 -1.07
Si  2.16  1.00  7.19
Si -4.71 -4.25  4.13
Si  5.40  1.17 -5.20
Si -7.26 -0.25 -2.21
Si  7.58 -0.61  0.01
Si  6.08  3.33  3.14
Si -6.10  3.33  3.14
Si -3.56  5.67 -3.74
Si  1.54 -5.52 -5.12
Si -2.08  7.40  0.39
Si  3.82 -4.21 -5.20
Si -6.08 -2.35 -4.12
Si  6.94 -3.36  0.39
Si  6.10 -2.35 -4.12
Si  4.91 -4.26  4.28
Si -7.58  1.59 -0.99
Si  6.49  1.12  4.28
Si -1.54  6.50  4.13
Si -3.63  3.39 -6.21
Si -5.68  5.13 -2.21
Si  7.04  0.28 -3.74
Si  2.76 -4.79  5.80
Si -5.31 -5.63 -2.08
Si -0.53 -1.45 -7.87
Si  1.98  6.50  4.28
Si -0.09 -4.62 -6.58
Si -4.60  0.76 -6.58
Si -4.30  3.23  6.05
Si  6.59  4.76  0.15
Si -3.33 -4.79  5.80
Si -3.93  1.00  7.19
Si -4.80 -6.52  1.67
Si -2.38 -7.85 -1.07
Si -4.20  6.87  1.92
Si -0.16  5.97  5.80
Si -5.21 -1.99 -6.21
Si  5.46 -5.09 -3.74
Si  0.11  1.29 -8.25
Si  0.74 -7.00  4.51
Si  7.48 -2.88 -2.46
Si -1.53  7.88 -2.46
Si  0.89  6.55 -5.20
Si  4.01  7.40  0.39
Si  0.58 -4.38  7.19
Si  5.99 -5.99  0.01
Si -7.68 -2.05  3.14
Si -7.37 -3.89  1.92
Si -2.45  1.28 -8.11
Si  6.50  5.13 -2.21
Si  2.91 -7.43  3.14
Si  5.19 -6.12  3.06
Si -6.19 -5.99  0.01
Si -0.19 -8.26 -2.46
Si -6.78  1.17 -5.20
Si -7.06  3.02 -3.98
Si -3.17 -7.43  3.14
Si  2.37  8.29 -1.07
Si  4.71  5.24 -5.12
Si  8.45 -0.25 -2.08
Si -5.89 -2.15  6.05
Si -8.34  1.48  2.05
Si  3.71 -7.85 -1.07
Si  8.52  2.02  0.39
Si  5.32  3.22  6.18
Si  5.02  3.39 -6.33
Si -0.74 -8.74  0.39
Si  0.29 -2.53  8.41
Si -4.11  6.50  4.28
Si -4.55 -5.52 -5.12
Si  1.05  3.93 -7.87
Si -1.65  2.86  8.26
Si -1.57 -7.73 -4.12
Si  1.95 -7.74 -3.98
Si -2.29  0.12  8.64
Si  4.55  6.50  4.13
Si -7.73  4.24  1.67
Si  3.64  1.28 -8.11
Si  1.47  5.07  7.27
Si  5.42  6.86  2.05
Si  6.29 -2.15  6.05
Si  1.88  2.85  8.41
Si  2.86 -2.52  8.26
Si  6.87 -5.63 -2.08
Si -3.72  8.29 -1.07
Si  8.96 -1.14  1.67
Si -3.23 -2.52  8.26
Si -6.72 -5.09 -3.74
Si  7.68  3.03 -4.12
Si -6.00  6.97 -0.99
Si  2.05 -4.09 -8.11
Si  0.61  8.40 -3.98
Si -1.47 -4.09 -8.25
Si  1.44 -9.17 -0.99
Si  6.18  6.97 -0.99
Si -1.70 -5.69  7.27
Si  1.57  8.71  3.14
Si  5.97 -0.31  7.27
Si  4.55  7.88 -2.46
Si  8.35 -3.90  2.05
Si  3.80  0.12  8.64
Si -7.27 -4.26  4.28
Si -3.01  6.14 -6.58
Si  3.08  6.14 -6.58
Si  0.67 -9.28  2.05
Si -9.31 -1.14  1.67
Si  7.47 -4.25  4.13
Si  6.97 -1.99 -6.21
Si -6.20 -0.31  7.27
Si  1.65 -1.88 -9.25
Si -2.17 -0.57 -9.33
Si -4.14 -7.74 -3.98
Si -0.70 -7.37 -6.21
Si  8.41 -1.62  4.51
Si  9.06  2.50 -2.46
Si  5.56 -1.45 -7.87
Si -0.06  9.62  1.67
Si -1.38 -7.53  6.05
Si -7.83  0.59  5.80
Si -6.99 -6.12  3.06
Si -6.86  3.22  6.18
Si -8.65 -2.36 -3.98
Si  4.44  2.86  8.26
Si -2.92  8.41 -4.12
Si -4.21  2.85  8.41
Si -5.20  6.55 -5.20
Si -6.76  6.86  2.05
Si -9.21  2.50 -2.46
Si  4.51 -7.73 -4.12
Si  3.17  8.41 -4.12
Si -2.86 -9.27  1.92
Si  1.86 -7.37 -6.33
Si -2.34  6.38  7.19
Si -5.35 -7.00  4.51
Si  9.11 -3.79 -0.99
Si -8.24  5.13 -2.08
Si -4.04 -4.09 -8.11
Si -9.16 -3.79 -0.99
Si -9.75  2.02  0.39
Si  2.15 -7.54  6.18
Si  7.38 -6.52  1.67
Si -4.62  5.07  7.27
Si  3.23 -9.27  1.92
Si  9.05  1.12  4.13
Si  6.00 -4.62 -6.58
Si  8.36  4.64  3.06
Si -9.82 -0.25 -2.08
Si -5.51 -4.38  7.19
Si  7.58  0.76 -6.58
Si -5.03  3.93 -7.87
Si  3.92 -0.57 -9.33
Si -7.16  3.39 -6.33
Si -6.18 -4.62 -6.58
Si -8.27  3.76  4.51
Si -9.21  1.12  4.13
Si -0.27  2.33  9.93
Si -0.60  9.14  4.51
Si  5.93  5.97  5.80
Si  4.39 -5.69  7.27
Si  9.93  1.48  2.05
Si -1.44 10.15  0.01
Si  5.35 -8.74  0.39
Si -0.70  5.50  8.64
Si -5.98  1.29 -8.25
Si -9.11  4.77  0.01
Si -2.86  3.50 -9.25
Si -4.52  8.71  3.14
Si  4.62 -4.09 -8.25
Si  3.75  6.38  7.19
Si  9.16  4.77  0.01
Si -4.65 -9.17 -0.99
Si  1.68 -0.42 10.18
Si  2.09 10.14  0.15
Si -0.88 -0.42 10.31
Si  2.22 -5.26  8.64
Si -6.62 -1.45 -7.87
Si  3.23  3.50 -9.25
Si  6.20  1.29 -8.25
Si -9.06 -0.14 -5.12
Si -6.25  5.97  5.80
Si -4.45 -1.88 -9.25
Si  5.90 -8.26 -2.46
Si  7.88  3.23  6.05
Si -7.47  5.24 -5.12
Si -0.20 -9.63  4.13
Si -3.94 -7.54  6.18
Si -0.58  4.81 -9.33
Si  0.98  1.65 -10.34
Si -5.79 -2.53  8.41
Si -0.87  6.66 -8.11
Si  9.21 -0.14 -5.12
Si -1.85 -3.05  9.93
Si -4.23 -7.37 -6.33
Si -8.75 -6.00  0.15
Si  0.81  8.60  6.18
Si -2.11 -6.83 -7.87
Si -6.28 -8.26 -2.46
Si  9.62 -2.36 -3.98
Si -8.45 -2.16  6.18
Si  7.98  6.87  1.92
Si -8.36 -4.21 -5.20
Si -10.69 -0.61  0.01
Si -8.84 -5.63 -2.21
Si -2.24 10.02  3.06
Si  7.63 -5.52 -5.12
Si -0.56 10.51 -2.08
Si  6.67 -4.38  7.19
Si  1.69  6.67 -8.25
Si  4.71 -7.53  6.05
Si  0.02 -0.97 -10.71
Si  6.83 -7.00  4.51
Si -5.48  8.40 -3.98
Si  0.52  8.77 -6.33
Si -3.87 -5.26  8.64
Si -7.63  6.50  4.13
Si 10.69  1.59 -0.99
Si  6.38 -2.53  8.41
Si -9.92 -3.90  2.05
Si -2.72  8.60  6.05
Si -2.54  1.66 -10.46
Si  6.98  6.55 -5.20
Si -4.00 10.14  0.15
Si -2.77 -9.64  4.28
Si  2.00 10.51 -2.21
Si -5.42 -9.28  2.05
Si -2.04  8.77 -6.21
Si -9.85 -1.62  4.51
Si -8.74 -1.99 -6.33
Si  8.62  5.67 -3.74
Si  8.25  1.00  7.19
Si -0.60 -3.73 -10.34
Si -8.17  7.40  0.39
Si  5.39 -7.37 -6.21
Si  3.37  8.60  6.05
Si  3.32 -9.64  4.28
Si -6.83 -8.74  0.39
Si  8.55  3.39 -6.21
Si -4.41 -0.42 10.18
Si 11.10 -0.62  0.15
Si  2.24 -9.59 -5.20
Si  3.98 -6.83 -7.87
Si  4.65 10.15  0.01
Si  3.85 10.02  3.06
Si  3.54  1.66 -10.46
Si  9.43 -5.63 -2.21
Si  8.07  6.50  4.28
Si  4.24 -3.05  9.93
Si 11.01 -0.25 -2.21
Si 10.59 -2.05  3.14
Si -7.62  7.88 -2.46
Si -0.81 -11.01 -2.08
Si  9.52 -6.00  0.15
Si  1.96 -3.72 -10.46
Si  2.34 -5.95 -9.33
Si  7.14  3.93 -7.87
Si -2.21 -10.47 -3.74
Si  1.75 -11.01 -2.21
Si -9.91  4.64  3.06
Si -10.79 -2.88 -2.46
Si 10.03  5.13 -2.08
Si  6.70  8.40 -3.98
Si  0.70  4.96 10.31
Si  6.03  9.62  1.67
Si  4.05  8.77 -6.21
Si 10.54  4.24  1.67
Si -4.40  6.67 -8.25
Si -4.09 10.51 -2.21
Si -1.68 -11.37  0.01
Si  1.28 -7.90  8.26
Si  1.84 -11.38  0.15
Si -6.15  9.62  1.67
Si  5.21 -0.42 10.31
Si  1.36  1.43 11.40
Si -3.85 -9.59 -5.20
Si  5.39  5.50  8.64
Si  5.49  9.14  4.51
Si 10.00  3.76  4.51
Si -8.46 -7.85 -1.07
Si -1.29 -7.91  8.41
Si  9.53 -1.99 -6.33
Si  8.85 -4.79  5.80
Si -7.67 -7.73 -4.12
Si  7.56  5.07  7.27
Si -5.10  1.65 -10.34
Si  6.76 -9.28  2.05
Si -0.07  8.24  8.26
Si -2.83  4.96 10.18
Si -7.74  2.86  8.26
Si -3.75 -5.95 -9.33
Si  1.60  4.40 -10.71
Si 11.39 -2.47 -1.07
Si  0.10 -5.80 10.18
Si  5.22  6.66 -8.11
Si 10.90 -3.89  1.92
Si  5.83  2.33  9.93
Si  0.06 -7.26 -9.25
Si -10.59  3.03 -4.12
Si  1.18 -10.16  5.80
Si  3.88 -10.47 -3.74
Si  0.20 10.61 -5.12
Si  3.26  4.96 10.18
Si -6.79 -7.37 -6.21
Si -9.65  5.67 -3.74
Si  2.06 -2.64 11.31
Si -11.39  2.91 -1.07
Si  9.82 -2.16  6.18
Si -11.33 -3.36  0.39
Si -1.97 11.04 -3.74
Si -5.28  8.60  6.18
Si -11.23  0.28 -3.74
Si  8.04 -7.74 -3.98
Si -8.54  1.28 -8.11
Si -4.13 -3.72 -10.46
Si  5.50  4.81 -9.33
Si  8.46  8.29 -1.07
Si -2.45  2.74 11.31
Si  7.53 -9.17 -0.99
Si -7.56 -4.09 -8.25
Si -11.49 -0.74  3.06
Si  7.97  2.85  8.41
Si 10.44  0.59  5.80
Si  9.91 -4.21 -5.20
Si -9.71  3.39 -6.21
Si  7.66  8.71  3.14
Si -6.35  2.33  9.93
Si -0.30 -11.90  1.67
Si  5.89 -9.63  4.13
Si -4.34 -11.01 -2.21
Si -8.38  0.12  8.64
Si -0.04 -10.90 -5.12
Si  5.53 10.51 -2.08
Si -9.41 -4.79  5.80
Si -2.63  8.23  8.41
Si -0.22 -3.96 11.40
Si -7.79 -5.69  7.27
Si -2.46 -5.80 10.31
Si -1.67 -10.00 -6.58
Si  9.00 -7.43  3.14
Si -11.87  1.49  1.92
Si -4.24 -11.38  0.15
Si -2.48 -11.49  3.06
Si -1.00 -9.76  7.19
Si -5.57  8.77 -6.33
Si -6.69  9.14  4.51
Si  4.41 -11.37  0.01
Si  3.64  2.74 11.31
Si  8.14 -4.09 -8.11
Si  7.73 -1.88 -9.25
Si -0.42  2.19 -12.00
Si -7.47 -7.53  6.05
Si -6.29 -9.63  4.13
Si  3.46  8.23  8.41
Si 11.21  3.02 -3.98
Si -9.27 -7.43  3.14
Si  5.49 -3.73 -10.34
Si -6.79  5.50  8.64
Si -4.03 -2.64 11.31
Si -10.80 -4.25  4.13
Si -6.07 -0.97 -10.71
Si  4.12 11.04 -3.74
Si -10.02  1.00  7.19
Si  6.11 -0.97 -10.71
Si  3.63 -5.80 10.31
Si  5.28 -11.01 -2.08
Si -4.81 -7.90  8.26
Si -4.72  1.43 11.40
Si -4.49  4.40 -10.71
Si  3.61 -11.49  3.06
Si  2.16 -0.45 -12.24
Si  8.95 -2.52  8.26
Si -6.67  4.81 -9.33
Si  0.91 12.24  2.05
Si -6.97 -0.42 10.31
Si -10.39  3.23  6.05
Si -1.37 -0.44 -12.38
Si  2.64  9.31 -7.87
Si -8.26 -0.57 -9.33
Si  0.47 -9.47 -8.11
Si  4.80 -7.91  8.41
Si  1.68 12.35 -0.99
Si -10.29  6.87  1.92
Si 10.10  7.40  0.39
Si -1.75 -0.78 12.39
Si 11.00 -4.26  4.28
Si  7.95 -7.37 -6.33
Si -1.57 -6.36 -10.71
Si -10.69  0.76 -6.58
Si -2.01 -3.19 -12.00
Si -11.78  1.12  4.28
Si  0.04 11.88  4.13
Si -6.96  6.66 -8.11
Si  9.80 -7.85 -1.07
Si -6.65 10.51 -2.08
Si -11.68  4.76  0.15
Si  7.08  1.65 -10.34
