500
set: 39.00  0.00  0.00
Si  0.00  0.00  0.00
Si  0.30  0.10  2.36
Si -0.30 -0.10 -2.36
Si -1.27  2.19  0.00
Si  1.27 -2.19  0.00
Si  1.45  2.19  0.00
Si -1.45 -2.19  0.00
Si  2.72  0.00  0.00
Si -2.72  0.00  0.00
Si  1.14  2.09 -2.36
Si -1.14 -2.09  2.36
Si -2.41  0.10  2.36
Si  2.41 -0.10 -2.36
Si  0.96 -2.30 -2.36
Si -0.96  2.30  2.36
Si  1.57 -2.09  2.36
Si -1.57  2.09 -2.36
Si -1.75 -2.30 -2.36
Si  1.75  2.30  2.36
Si  3.02  0.10  2.36
Si -3.02 -0.10 -2.36
Si  0.18  4.39  0.00
Si -0.18 -4.39  0.00
Si -3.98  2.19  0.00
Si  3.98 -2.19  0.00
Si  4.16  2.19  0.00
Si -4.16 -2.19  0.00
Si -0.61 -0.21 -4.72
Si  0.61  0.21  4.72
Si  0.12 -4.28  2.36
Si -0.12  4.28 -2.36
Si  3.68 -2.30 -2.36
Si -3.68  2.30  2.36
Si -3.86 -2.09  2.36
Si  3.86  2.09 -2.36
Si -2.54  4.39  0.00
Si  2.54 -4.39  0.00
Si -0.48 -4.49 -2.36
Si  0.48  4.49  2.36
Si  2.11 -0.21 -4.72
Si -2.11  0.21  4.72
Si  0.84  1.98 -4.72
Si -0.84 -1.98  4.72
Si -2.90 -4.39  0.00
Si  2.90  4.39  0.00
Si -4.29  2.09 -2.36
Si  4.29 -2.09  2.36
Si  0.66 -2.40 -4.72
Si -0.66  2.40  4.72
Si -5.43  0.00  0.00
Si  5.43  0.00  0.00
Si  1.88 -1.98  4.72
Si -1.88  1.98 -4.72
Si  2.59  4.28 -2.36
Si -2.59 -4.28  2.36
Si -2.23  4.49  2.36
Si  2.23 -4.49 -2.36
Si -4.47 -2.30 -2.36
Si  4.47  2.30  2.36
Si -5.13  0.10  2.36
Si  5.13 -0.10 -2.36
Si -2.84  4.28 -2.36
Si  2.84 -4.28  2.36
Si  2.06  2.40  4.72
Si -2.06 -2.40 -4.72
Si -3.33 -0.21 -4.72
Si  3.33  0.21  4.72
Si -3.20 -4.49 -2.36
Si  3.20  4.49  2.36
Si -5.74 -0.10 -2.36
Si  5.74  0.10  2.36
Si  3.55  1.98 -4.72
Si -3.55 -1.98  4.72
Si -3.37  2.40  4.72
Si  3.37 -2.40 -4.72
Si  0.43 -4.18  4.72
Si -0.43  4.18 -4.72
Si  0.79  4.60  4.72
Si -0.79 -4.60 -4.72
Si -1.09  6.58  0.00
Si  1.09 -6.58  0.00
Si  2.29  4.18 -4.72
Si -2.29 -4.18  4.72
Si -4.82  0.21  4.72
Si  4.82 -0.21 -4.72
Si  1.63  6.58  0.00
Si -1.63 -6.58  0.00
Si  5.25 -4.39  0.00
Si -5.25  4.39  0.00
Si -1.93  4.60  4.72
Si  1.93 -4.60 -4.72
Si -4.59  1.98 -4.72
Si  4.59 -1.98  4.72
Si -1.32 -6.47  2.36
Si  1.32  6.47 -2.36
Si  1.39 -6.47  2.36
Si -1.39  6.47 -2.36
Si  3.15 -4.18  4.72
Si -3.15  4.18 -4.72
Si  6.70 -2.19  0.00
Si -6.70  2.19  0.00
Si  4.95 -4.49 -2.36
Si -4.95  4.49  2.36
Si -5.61 -4.39  0.00
Si  5.61  4.39  0.00
Si -4.78 -2.40 -4.72
Si  4.78  2.40  4.72
Si  0.78 -6.68 -2.36
Si -0.78  6.68  2.36
Si  0.92  0.32  7.08
Si -0.92 -0.32 -7.08
Si  6.40 -2.30 -2.36
Si -6.40  2.30  2.36
Si  5.31  4.28 -2.36
Si -5.31 -4.28  2.36
Si  6.88  2.19  0.00
Si -6.88 -2.19  0.00
Si -6.58 -2.09  2.36
Si  6.58  2.09 -2.36
Si -1.80  0.32  7.08
Si  1.80 -0.32 -7.08
Si -0.53 -1.88  7.08
Si  0.53  1.88 -7.08
Si  1.93  6.68  2.36
Si -1.93 -6.68 -2.36
Si  5.56 -4.28  2.36
Si -5.56  4.28 -2.36
Si  3.51  4.60  4.72
Si -3.51 -4.60 -4.72
Si -0.35  2.51  7.08
Si  0.35 -2.51 -7.08
Si  3.81 -6.58  0.00
Si -3.81  6.58  0.00
Si -2.18  1.88 -7.08
Si  2.18 -1.88  7.08
Si -6.04 -0.21 -4.72
Si  6.04  0.21  4.72
Si -7.01  2.09 -2.36
Si  7.01 -2.09  2.36
Si  5.92  4.49  2.36
Si -5.92 -4.49 -2.36
Si  2.36  2.51  7.08
Si -2.36 -2.51 -7.08
Si -4.34 -6.58  0.00
Si  4.34  6.58  0.00
Si  7.19  2.30  2.36
Si -7.19 -2.30 -2.36
Si -3.50  6.68  2.36
Si  3.50 -6.68 -2.36
Si  3.63  0.32  7.08
Si -3.63 -0.32 -7.08
Si -4.04 -6.47  2.36
Si  4.04  6.47 -2.36
Si  1.02  6.37 -4.72
Si -1.02 -6.37  4.72
Si -3.25 -1.88  7.08
Si  3.25  1.88 -7.08
Si -4.11  6.47 -2.36
Si  4.11 -6.47  2.36
Si  5.00  4.18 -4.72
Si -5.00 -4.18  4.72
Si -4.64  4.60  4.72
Si  4.64 -4.60 -4.72
Si -6.09  2.40  4.72
Si  6.09 -2.40 -4.72
Si  6.27  1.98 -4.72
Si -6.27 -1.98  4.72
Si -1.70  6.37 -4.72
Si  1.70 -6.37  4.72
Si -3.07  2.51  7.08
Si  3.07 -2.51 -7.08
Si -8.15  0.00  0.00
Si  8.15  0.00  0.00
Si  7.84 -0.10 -2.36
Si -7.84  0.10  2.36
Si -0.73  4.07 -7.08
Si  0.73 -4.07  7.08
Si  0.48 -6.79 -4.72
Si -0.48  6.79  4.72
Si  1.98  4.07 -7.08
Si -1.98 -4.07  7.08
Si -4.52  0.32  7.08
Si  4.52 -0.32 -7.08
Si -4.65 -6.68 -2.36
Si  4.65  6.68  2.36
Si  2.24  6.79  4.72
Si -2.24 -6.79 -4.72
Si -1.09 -4.70 -7.08
Si  1.09  4.70  7.08
Si -5.86  4.18 -4.72
Si  5.86 -4.18  4.72
Si -1.62  4.70  7.08
Si  1.62 -4.70 -7.08
Si -3.73 -6.37  4.72
Si  3.73  6.37 -4.72
Si -8.45 -0.10 -2.36
Si  8.45  0.10  2.36
Si -0.36 -8.77  0.00
Si  0.36  8.77  0.00
Si  4.90 -1.88  7.08
Si -4.90  1.88 -7.08
Si -3.45  4.07 -7.08
Si  3.45 -4.07  7.08
Si -3.19  6.79  4.72
Si  3.19 -6.79 -4.72
Si  7.54 -0.21 -4.72
Si -7.54  0.21  4.72
Si  7.31 -1.98  4.72
Si -7.31  1.98 -4.72
Si -0.06 -8.67  2.36
Si  0.06  8.67 -2.36
Si -6.22 -4.60 -4.72
Si  6.22  4.60  4.72
Si -5.08 -2.51 -7.08
Si  5.08  2.51  7.08
Si  4.42 -6.37  4.72
Si -4.42  6.37 -4.72
Si  2.36 -8.77  0.00
Si -2.36  8.77  0.00
Si -7.97  4.39  0.00
Si  7.97 -4.39  0.00
Si  7.49  2.40  4.72
Si -7.49 -2.40 -4.72
Si  7.66 -4.49 -2.36
Si -7.66  4.49  2.36
Si  0.67  8.88  2.36
Si -0.67 -8.88 -2.36
Si -6.52  6.58  0.00
Si  6.52 -6.58  0.00
Si -3.08 -8.77  0.00
Si  3.08  8.77  0.00
Si  3.81  4.70  7.08
Si -3.81 -4.70 -7.08
Si -2.66  8.67 -2.36
Si  2.66 -8.67  2.36
Si -8.02 -4.28  2.36
Si  8.02  4.28 -2.36
Si -2.77 -8.67  2.36
Si  2.77  8.67 -2.36
Si  2.05 -8.88 -2.36
Si -2.05  8.88  2.36
Si  8.33  4.39  0.00
Si -8.33 -4.39  0.00
Si  4.70  4.07 -7.08
Si -4.70 -4.07  7.08
Si  6.22 -6.68 -2.36
Si -6.22  6.68  2.36
Si -5.97 -1.88  7.08
Si  5.97  1.88 -7.08
Si  0.71  6.26 -7.08
Si -0.71 -6.26  7.08
Si -5.79  2.51  7.08
Si  5.79 -2.51 -7.08
Si  6.35  0.32  7.08
Si -6.35 -0.32 -7.08
Si -1.22 -0.42 -9.43
Si  1.22  0.42  9.43
Si  4.34 -4.70 -7.08
Si -4.34  4.70  7.08
Si -1.50  0.42  9.43
Si  1.50 -0.42 -9.43
Si -0.23 -1.77  9.43
Si  0.23  1.77 -9.43
Si  8.27 -4.28  2.36
Si -8.27  4.28 -2.36
Si -4.95 -6.79 -4.72
Si  4.95  6.79  4.72
Si  6.75  6.47 -2.36
Si -6.75 -6.47  2.36
Si  7.06  6.58  0.00
Si -7.06 -6.58  0.00
Si  2.00 -6.26  7.08
Si -2.00  6.26 -7.08
Si -9.42  2.19  0.00
Si  9.42 -2.19  0.00
Si  9.11 -2.30 -2.36
Si -9.11  2.30  2.36
Si -6.83  6.47 -2.36
Si  6.83 -6.47  2.36
Si -0.25  8.56 -4.72
Si  0.25 -8.56  4.72
Si  3.38  8.88  2.36
Si -3.38 -8.88 -2.36
Si  0.05 -2.61 -9.43
Si -0.05  2.61  9.43
Si  9.29  2.09 -2.36
Si -9.29 -2.09  2.36
Si  9.60  2.19  0.00
Si -9.60 -2.19  0.00
Si -7.36  4.60  4.72
Si  7.36 -4.60 -4.72
Si  0.17 -6.89 -7.08
Si -0.17  6.89  7.08
Si -2.49  1.77 -9.43
Si  2.49 -1.77  9.43
Si -8.76 -0.21 -4.72
Si  8.76  0.21  4.72
Si  7.72  4.18 -4.72
Si -7.72 -4.18  4.72
Si -8.63 -4.49 -2.36
Si  8.63  4.49  2.36
Si  2.94  1.77 -9.43
Si -2.94 -1.77  9.43
Si  3.43  6.26 -7.08
Si -3.43 -6.26  7.08
Si  2.47  8.56 -4.72
Si -2.47 -8.56  4.72
Si  7.23 -0.32 -7.08
Si -7.23  0.32  7.08
Si -5.07  8.77  0.00
Si  5.07 -8.77  0.00
Si  2.67  2.61  9.43
Si -2.67 -2.61 -9.43
Si  5.91 -6.79 -4.72
Si -5.91  6.79  4.72
Si  2.76 -2.61 -9.43
Si -2.76  2.61  9.43
Si  0.97  8.98  4.72
Si -0.97 -8.98 -4.72
Si  2.54  6.89  7.08
Si -2.54 -6.89 -7.08
Si  2.97 -8.56  4.72
Si -2.97  8.56 -4.72
Si -6.45 -6.37  4.72
Si  6.45  6.37 -4.72
Si  9.72 -2.09  2.36
Si -9.72  2.09 -2.36
Si -7.37 -6.68 -2.36
Si  7.37  6.68  2.36
Si  3.94  0.42  9.43
Si -3.94 -0.42 -9.43
Si  6.17 -4.07  7.08
Si -6.17  4.07 -7.08
Si -8.81  2.40  4.72
Si  8.81 -2.40 -4.72
Si -1.04  3.96 -9.43
Si  1.04 -3.96  9.43
Si -2.89  6.89  7.08
Si  2.89 -6.89 -7.08
Si -1.75  8.98  4.72
Si  1.75 -8.98 -4.72
Si -4.21  0.42  9.43
Si  4.21 -0.42 -9.43
Si  8.99  1.98 -4.72
Si -8.99 -1.98  4.72
Si -4.77  8.88  2.36
Si  4.77 -8.88 -2.36
Si  1.68  3.96 -9.43
Si -1.68 -3.96  9.43
Si -9.90 -2.30 -2.36
Si  9.90  2.30  2.36
Si -5.38  8.67 -2.36
Si  5.38 -8.67  2.36
Si  5.79  8.77  0.00
Si -5.79 -8.77  0.00
Si -5.49 -8.67  2.36
Si  5.49  8.67 -2.36
Si  4.72 -6.26  7.08
Si -4.72  6.26 -7.08
Si -7.62  1.88 -7.08
Si  7.62 -1.88  7.08
Si -8.58  4.18 -4.72
Si  8.58 -4.18  4.72
Si -7.13  6.37 -4.72
Si  7.13 -6.37  4.72
Si -1.32  4.81  9.43
Si  1.32 -4.81 -9.43
Si  1.40  4.81  9.43
Si -1.40 -4.81 -9.43
Si  6.53  4.70  7.08
Si -6.53 -4.70 -7.08
Si  3.69  8.98  4.72
Si -3.69 -8.98 -4.72
Si -10.56  0.10  2.36
Si 10.56 -0.10 -2.36
Si  7.80  2.51  7.08
Si -7.80 -2.51 -7.08
Si 10.87  0.00  0.00
Si -10.87  0.00  0.00
Si  3.76 -3.96  9.43
Si -3.76  3.96 -9.43
Si  5.21 -1.77  9.43
Si -5.21  1.77 -9.43
Si  0.91 -10.97  0.00
Si -0.91 10.97  0.00
Si  6.10  8.88  2.36
Si -6.10 -8.88 -2.36
Si  7.41  4.07 -7.08
Si -7.41 -4.07  7.08
Si -0.56  8.46 -7.08
Si  0.56 -8.46  7.08
Si  7.05 -4.70 -7.08
Si -7.05  4.70  7.08
Si  5.18  8.56 -4.72
Si -5.18 -8.56  4.72
Si -4.46  8.98  4.72
Si  4.46 -8.98 -4.72
Si -8.94 -4.60 -4.72
Si  8.94  4.60  4.72
Si  1.81 10.97  0.00
Si -1.81 -10.97  0.00
Si -4.39 -3.96  9.43
Si  4.39  3.96 -9.43
Si  5.66  1.77 -9.43
Si -5.66 -1.77  9.43
Si  5.38  2.61  9.43
Si -5.38 -2.61 -9.43
Si -1.21 10.86 -2.36
Si  1.21 -10.86  2.36
Si  5.26  6.89  7.08
Si -5.26 -6.89 -7.08
Si -1.50 -10.86  2.36
Si  1.50 10.86 -2.36
Si -5.48  2.61  9.43
Si  5.48 -2.61 -9.43
Si  2.16  8.46 -7.08
Si -2.16 -8.46  7.08
Si -10.03  1.98 -4.72
Si 10.03 -1.98  4.72
Si -6.14 -6.26  7.08
Si  6.14  6.26 -7.08
Si -0.41 -6.16  9.43
Si  0.41  6.16 -9.43
Si -7.67 -6.79 -4.72
Si  7.67  6.79  4.72
Si -10.26  0.21  4.72
Si 10.26 -0.21 -4.72
Si  5.68 -8.56  4.72
Si -5.68  8.56 -4.72
Si -4.03  4.81  9.43
Si  4.03 -4.81 -9.43
Si  0.60 -11.07 -2.36
Si -0.60 11.07  2.36
Si  9.24 -6.58  0.00
Si -9.24  6.58  0.00
Si -8.50  2.51  7.08
Si  8.50 -2.51 -7.08
Si -8.68 -1.88  7.08
Si  8.68  1.88 -7.08
Si  5.61 -6.89 -7.08
Si -5.61  6.89  7.08
Si -4.12 -4.81 -9.43
Si  4.12  4.81  9.43
Si  8.93 -6.68 -2.36
Si -8.93  6.68  2.36
Si -11.17 -0.10 -2.36
Si 11.17  0.10  2.36
Si -10.21 -2.40 -4.72
Si 10.21  2.40  4.72
Si  2.31 -6.16  9.43
Si -2.31  6.16 -9.43
Si  3.27 -8.46  7.08
Si -3.27  8.46 -7.08
Si -9.06 -0.32 -7.08
Si  9.06  0.32  7.08
Si -2.11 -11.07 -2.36
Si  2.11 11.07  2.36
Si  3.62 -10.97  0.00
Si -3.62 10.97  0.00
Si 10.69 -4.39  0.00
Si -10.69  4.39  0.00
Si -6.65 -0.42 -9.43
Si  6.65  0.42  9.43
Si 10.38 -4.49 -2.36
Si -10.38  4.49  2.36
Si  1.27  9.09  7.08
Si -1.27 -9.09 -7.08
Si -1.44  9.09  7.08
Si  1.44 -9.09 -7.08
Si  3.12  6.16 -9.43
Si -3.12 -6.16  9.43
Si -6.93  0.42  9.43
Si  6.93 -0.42 -9.43
Si  9.47  6.47 -2.36
Si -9.47 -6.47  2.36
Si -7.79  8.77  0.00
Si  7.79 -8.77  0.00
Si -0.13 -7.00 -9.43
Si  0.13  7.00  9.43
Si -9.54  6.47 -2.36
Si  9.54 -6.47  2.36
Si  9.78  6.58  0.00
Si -9.78 -6.58  0.00
Si -3.93 10.86 -2.36
Si  3.93 -10.86  2.36
Si  3.32 -11.07 -2.36
Si -3.32 11.07  2.36
Si -10.74 -4.28  2.36
Si 10.74  4.28 -2.36
Si -1.20 -10.76  4.72
Si  1.20 10.76 -4.72
Si  1.52 -10.76  4.72
Si -1.52 10.76 -4.72
Si -7.48  8.88  2.36
Si  7.48 -8.88 -2.36
Si  4.52 10.97  0.00
Si -4.52 -10.97  0.00
Si  1.19 -0.53 -11.79
Si -1.19  0.53 11.79
Si 11.04  4.39  0.00
