500
set: 678.00  0.00  0.00
Si  0.88  0.81 -0.78
Si -1.34  0.22 -1.13
Si -0.40  1.54  1.18
Si  1.94 -0.88 -0.19
Si -0.53 -2.09 -0.85
Si -2.54  0.32  0.83
Si  1.99  0.12  2.02
Si -0.06 -0.17  3.14
Si -0.42 -2.53  1.89
Si  1.40 -1.80 -2.27
Si  1.84  2.80 -0.49
Si  1.21  1.37 -3.03
Si  1.93 -2.69  1.30
Si -0.83  3.58 -0.71
Si  1.24 -3.53 -0.78
Si -2.95 -1.92  1.58
Si -2.66 -0.90 -2.67
Si  3.13 -0.39 -2.39
Si -3.49  1.85 -0.99
Si  2.34  2.36  2.35
Si  3.79  1.45  0.56
Si -3.05  1.73  2.37
Si -2.15 -3.67  0.25
Si -1.64 -3.13 -2.47
Si -0.82  3.44  2.58
Si -2.34  2.09 -3.12
Si  4.34 -0.74  0.61
Si -0.47  3.35 -3.18
Si -1.18 -0.05 -4.54
Si -2.03 -2.15  3.83
Si -4.50 -1.02 -1.51
Si  0.07 -2.57 -4.21
Si  4.33  1.47 -1.95
Si  3.84 -1.13  2.98
Si  1.56  4.42  1.72
Si  1.78  0.68  4.70
Si  0.90  2.76  4.19
Si -0.19 -4.77 -1.99
Si  2.61 -0.93 -4.50
Si  2.79  3.07 -3.57
Si -1.07 -0.35  5.39
Si -2.49  4.71  1.55
Si -3.95 -0.18  3.90
Si  1.67  0.97 -5.23
Si  0.56  5.20 -1.99
Si -2.42  2.34  4.50
Si  1.83 -3.19  4.25
Si -4.37  3.43  0.98
Si -2.98  4.53 -1.58
Si -5.57 -0.74  0.61
Si  5.40 -1.02 -1.51
Si -4.09  0.93 -3.88
Si  3.43 -3.57 -2.97
Si -4.59 -3.55 -0.29
Si  3.03 -4.98 -0.57
Si  0.81 -5.54  1.72
Si  4.84 -2.76  1.89
Si -5.06 -2.76  1.89
Si -5.58  1.47 -1.95
Si -0.20 -4.83  3.77
Si  2.72 -1.23  5.43
Si  3.78  4.99 -0.57
Si  1.21 -4.60 -4.13
Si -4.72 -1.90 -3.72
Si  4.51  3.85 -2.17
Si -6.12  1.45  0.56
Si  3.17 -5.15  1.84
Si -3.24 -5.26  1.55
Si  4.07  1.37  4.73
Si  0.55  5.14  3.77
Si  0.18 -2.87  5.72
Si  5.32 -3.55 -0.29
Si -3.58 -3.99 -3.55
Si -1.41  6.30  0.25
Si  3.92  4.82  1.84
Si -2.53  2.64 -5.44
Si  0.79  3.06 -5.74
Si  5.54  3.43  0.98
Si  1.72 -2.89 -5.68
Si -1.58 -6.39 -0.71
Si -4.93  3.02  3.26
Si  5.18 -1.90 -3.72
Si  4.98  3.02  3.26
Si -2.13 -1.85 -6.10
Si  3.96  1.67 -5.20
Si  6.42  1.85 -0.99
Si -2.79  5.01  3.58
Si  1.99  6.44 -0.78
Si -3.73 -5.44 -1.58
Si -0.16  0.13 -6.79
Si -6.07 -1.13  2.98
Si -4.03  3.96 -4.05
Si -1.16  5.07 -4.63
Si -5.40  3.85 -2.17
Si  4.75 -3.10  4.09
Si -1.91 -4.89 -4.63
Si  1.96  5.37 -4.13
Si  5.82  0.93 -3.88
Si -3.54 -4.95  3.58
Si  1.32  1.07  6.90
Si  5.96 -0.18  3.90
Si -1.56 -6.52  2.58
Si -6.78 -0.39 -2.39
Si -1.05  4.77  5.30
Si  1.09 -7.16 -0.49
Si -4.05  0.12 -6.03
Si -3.98  0.63  6.05
Si -5.16 -3.10  4.09
Si -0.89  6.84 -2.47
Si -2.23  1.79  6.81
Si  6.96 -1.92  1.58
Si -0.36  3.05  6.75
Si  7.37  0.32  0.83
Si -1.22 -6.62 -3.18
Si  6.85  1.73  2.37
Si -3.84  6.41 -0.29
Si -2.83  5.97 -3.55
Si  3.76 -6.12 -2.17
Si  2.89  2.77  6.36
Si -5.84  1.37  4.73
Si -1.80 -5.19  5.30
Si -0.31 -4.53 -6.16
Si  3.66 -5.16  4.33
Si  0.33  7.43  1.89
Si  1.32 -4.90  5.80
Si  7.25 -0.90 -2.67
Si -2.56 -1.20  7.26
Si  4.41  4.80  4.33
Si  2.68  7.28  1.30
Si -5.99  4.82  1.84
Si -6.13  4.99 -0.57
Si  0.22  7.88 -0.85
Si  3.73 -0.83 -6.96
Si -3.92  3.66  5.88
Si  4.64 -2.80 -5.84
Si -6.48 -3.57 -2.97
Si  2.07  5.07  5.80
Si -7.97 -0.88 -0.19
Si  2.04 -6.89 -3.57
Si -4.62 -2.20  6.21
Si -5.94  1.67 -5.20
Si  1.51 -2.10  7.66
Si  1.59 -7.61  2.35
Si  1.89  0.42 -7.91
Si  5.88  3.96 -4.05
Si  4.79 -6.54  0.98
Si -7.92  0.12  2.02
Si  4.17  6.40 -2.97
Si  3.55 -4.86 -5.60
Si  0.44  5.44 -6.16
Si  3.24 -0.69  7.54
Si -7.57  2.36  2.35
Si  6.33 -3.99 -3.55
Si -0.93  3.74 -7.36
Si  0.15 -7.20  4.19
Si  2.23  2.66 -7.58
Si -5.27 -2.80 -5.84
Si -1.53 -3.43  7.46
Si -5.11 -6.54  0.98
Si -0.53 -2.23 -8.04
Si  6.18 -5.44 -1.58
Si  2.58  6.77  4.25
Si  5.85  0.12 -6.03
Si  6.92  4.53 -1.58
Si -3.48 -4.29  6.38
Si -3.16  2.02 -7.56
Si  7.57  2.09 -3.12
Si  5.29 -2.20  6.21
Si -5.50  4.80  4.33
Si -2.20  8.05  1.58
Si  5.93  0.63  6.05
Si -6.88 -4.98 -0.57
Si -7.98 -2.69  1.30
Si -7.12  3.07 -3.57
Si  0.82  7.39 -4.21
Si -8.07  2.80 -0.49
Si -1.15 -8.42  1.18
Si  7.75 -3.67  0.25
Si -4.32  7.20  1.89
Si -7.30 -0.93 -4.50
Si  6.67 -5.26  1.55
Si  8.57  0.22 -1.13
Si -3.64 -4.65 -6.35
Si -4.78 -6.00 -4.05
Si -6.74 -5.15  1.84
Si  4.30  5.10 -5.60
Si  3.54 -3.87  6.96
Si  2.15  8.16 -2.27
Si  4.23 -6.95  3.26
Si -2.90  5.31 -6.35
Si -1.28  7.81  3.83
Si  6.37 -4.95  3.58
Si  6.07  6.41 -0.29
Si  5.13 -6.00 -4.05
Si -1.23 -0.08  8.80
Si  4.87  3.32 -6.67
Si  7.42  4.71  1.55
Si -6.15 -6.12 -2.17
Si -0.51  1.84 -8.75
Si -2.73  5.67  6.38
Si  0.05 -6.90 -5.74
Si -8.51 -1.80 -2.27
Si -5.04  3.32 -6.67
Si -3.09 -7.87 -3.12
Si  7.88 -2.15  3.83
Si -3.06 -1.61 -8.35
Si  7.49  2.34  4.50
Si  3.04 -8.51  0.56
Si -5.73  6.40 -2.97
Si -7.19 -1.23  5.43
Si -9.03  0.81 -0.78
Si  0.46 -8.60 -3.03
Si -4.41  6.87  4.09
Si  1.82 -2.39 -8.63
Si  0.92  7.09  5.72
Si  5.99  3.66  5.88
Si  8.27 -3.13 -2.47
Si  0.13 -9.15 -0.78
Si -6.25 -5.16  4.33
Si -4.23 -8.11 -0.99
Si  4.43  1.17  7.99
Si  0.98  0.51  9.15
Si -8.70  1.37 -3.03
Si  5.59  7.20  1.89
Si -6.17 -0.83 -6.96
Si  0.67  4.90  7.94
Si -3.80 -8.24  2.37
Si -8.67 -3.53 -0.78
Si  2.47  7.07 -5.68
Si -0.42 -2.39  9.08
Si -3.17 -7.63  4.50
Si -8.13  0.68  4.70
Si  7.12  5.01  3.58
Si  3.58 -8.49 -1.95
Si -0.08 -5.07  7.94
Si -5.61  5.10 -5.60
Si  2.69  9.08 -0.19
Si -2.64  0.62 -9.10
Si  7.38  2.64 -5.44
Si -5.68 -6.95  3.26
Si  1.45  4.72 -8.21
Si -4.40 -1.32  8.42
Si -8.35  4.42  1.72
Si -1.91  9.07 -2.67
Si  4.74 -2.46 -8.04
Si  9.38 -2.09 -0.85
Si -8.08 -3.19  4.25
Si -3.38  1.55  8.94
Si -3.28 -7.33 -5.44
Si  4.62  3.55  7.76
Si  9.51  1.54  1.18
Si  5.50  6.87  4.09
Si -1.11 -6.92  6.75
Si -3.98  8.06 -3.72
Si -5.47  1.17  7.99
Si -6.35 -4.86 -5.60
Si  0.70 -5.24 -8.21
Si -1.67 -6.22 -7.36
Si  9.08  3.58 -0.71
Si -2.88  4.22  8.35
Si -4.67 -6.30  5.88
Si -8.24  0.97 -5.23
Si -0.72  3.28  9.22
Si -3.76  8.94 -1.51
Si  2.15 -7.20  6.36
Si  8.73 -0.05 -4.54
Si -7.01  2.77  6.36
Si -5.17 -2.46 -8.04
Si  7.07  5.97 -3.55
Si  3.06 -4.85 -8.09
Si  5.67 -8.11 -0.99
Si -0.78  6.54  7.46
Si  1.95  2.50  9.45
Si  9.49 -2.53  1.89
Si  1.34 -3.83  9.15
Si  2.05 -1.18  9.74
Si  6.43 -4.29  6.38
Si -2.09 -9.75 -1.13
Si -5.29  3.55  7.76
Si  7.77 -1.85 -6.10
Si  9.09  3.44  2.58
Si  6.26 -4.65 -6.35
Si  5.24 -6.30  5.88
Si -6.67 -0.69  7.54
Si -2.60  5.01 -8.38
Si  1.25 -9.85  2.02
Si  5.51 -1.32  8.42
Si  4.28  6.10  6.96
Si -6.37 -3.87  6.96
Si  3.68  1.75 -9.37
Si -3.28 -9.64  0.83
Si -7.92  6.44 -0.78
Si -1.39  8.11 -6.10
Si  4.23 -0.44 -9.32
Si -0.59 10.18 -1.13
Si  4.12 -6.64 -6.67
Si -4.52  7.17 -5.84
Si -3.35 -4.96 -8.38
Si  3.22 -8.29 -5.20
Si  3.81  5.12 -8.09
Si  1.83 -0.58 -10.12
Si -9.01  2.76  4.19
Si  0.69  9.80  3.14
Si  6.75  2.02 -7.56
Si -7.23  7.28  1.30
Si  9.85 -0.17  3.14
Si  3.32 -8.59  4.73
Si  8.84 -0.35  5.39
Si -8.19 -2.89 -5.68
Si  4.59  8.84  2.98
Si  7.35 -1.20  7.26
Si  7.68  1.79  6.81
Si -4.82  9.23  0.61
Si -7.95  5.37 -4.13
Si  0.92 -8.99 -5.23
Si -9.96 -0.17  3.14
Si  8.00 -4.89 -4.63
Si  1.03 -9.29  4.70
Si -1.79 10.29  0.83
Si -10.31  1.54  1.18
Si -2.26 -3.37 -9.69
Si  9.44  3.35 -3.18
Si  8.33 -6.39 -0.71
Si  6.11 -8.24  2.37
Si  5.08  9.23  0.61
Si  8.50  6.30  0.25
Si  3.88  9.57 -2.39
Si  1.48 -7.30 -7.58
Si -0.80 -10.13  3.14
Si  2.74 10.08  2.02
Si  3.36  9.04 -4.50
Si -3.87  7.76  6.21
Si -8.70 -4.60 -4.13
Si -10.43 -2.09 -0.85
Si -4.47  3.73 -8.95
Si  5.93  8.06 -3.72
Si  5.39  7.17 -5.84
Si -5.32  8.84  2.98
Si -3.62 -5.74  8.35
Si -6.33 -8.49 -1.95
Si  3.87 -6.42  7.76
Si -9.10 -5.54  1.72
Si  0.77  1.11 -10.71
Si -10.33 -2.53  1.89
Si -5.62  6.10  6.96
Si 10.79  0.81 -0.78
Si  7.01  5.31 -6.35
Si -7.33  6.77  4.25
Si  3.46  8.74  5.43
Si  6.82 -7.87 -3.12
Si -9.35  5.20 -1.99
Si  2.38 -10.36 -2.39
Si  8.34 -6.52  2.58
Si -0.43  9.91 -4.54
Si  1.19 -10.85 -0.19
Si  6.85 -1.61 -8.35
Si -5.68 -0.44 -9.32
Si  1.63 10.78 -0.78
Si -0.63 -1.79 -10.78
Si -6.87 -8.51  0.56
Si -4.84 -9.03 -3.88
Si  6.15  8.94 -1.51
Si  8.11 -5.19  5.30
Si -7.84  5.07  5.80
Si -3.20  9.78  3.90
Si  1.73  3.10 -10.42
Si  9.72 -4.77 -1.99
Si -9.84 -2.57 -4.21
Si -0.32  9.61  5.39
Si -2.43  0.02 10.76
Si -2.98 -8.17  6.81
Si -5.79 -6.64 -6.67
Si -7.87 -6.89 -3.57
Si  5.07 -9.03 -3.88
Si -8.59  1.07  6.90
Si -7.68  2.66 -7.58
Si -2.04 -3.97 10.18
Si  5.43  3.73 -8.95
Si  8.75  5.07 -4.63
Si  6.74 -7.63  4.50
Si  9.98 -2.57 -4.21
Si  7.18  5.67  6.38
Si  0.22  7.73 -8.04
Si  3.88  4.68  9.36
Si -1.45  0.52 -11.06
Si -1.93 -10.02 -4.54
Si  6.53  1.55  8.94
Si -0.30  1.24 11.11
Si  3.14 -5.28  9.36
Si -9.11  3.06 -5.74
Si  2.26  7.86  7.66
Si  2.09  6.14  9.15
Si  1.13 -3.23 -10.71
Si  3.90  1.15 10.49
Si  7.71  8.05  1.58
Si  0.57 -8.89  6.90
Si -8.02  0.42 -7.91
Si  6.63 -7.33 -5.44
Si  3.59 -10.70  0.61
Si -11.25  0.22 -1.13
Si -4.48 -3.85  9.64
Si -9.36  5.14  3.77
Si -10.74  3.58 -0.71
Si -10.10 -4.77 -1.99
Si -6.10  5.12 -8.09
Si -10.38  3.35 -3.18
Si -0.94  3.88 -10.64
Si  8.85  4.77  5.30
Si -8.82 -7.16 -0.49
Si  8.69 -6.62 -3.18
Si -6.23  1.75 -9.37
Si -8.59 -4.90  5.80
Si  9.71 -4.83  3.77
Si  4.44 -1.04 10.54
Si -7.76  8.16 -2.27
Si -1.47 -6.69  9.22
Si -8.32 -7.61  2.35
Si -1.81  8.77  7.26
Si -10.72  3.44  2.58
Si -8.40 -2.10  7.66
Si -6.03  9.57 -2.39
Si  0.34 11.51  1.18
Si  9.02  6.84 -2.47
Si -7.22  9.08 -0.19
Si 11.12  1.37 -3.03
Si  6.04  7.76  6.21
Si -3.91 -7.94 -7.56
Si -9.73 -2.87  5.72
Si -6.85 -4.85 -8.09
Si  7.26  0.62 -9.10
Si 11.31 -1.80 -2.27
Si -3.41 -10.86 -2.67
Si -3.59  2.15 -10.92
Si  7.03  4.22  8.35
Si -4.69 -3.25 -10.22
Si 11.14 -3.53 -0.78
Si  5.43 -3.85  9.64
Si  6.62 -9.64  0.83
Si -7.44  7.07 -5.68
Si  8.38 -3.43  7.46
Si  6.56 -4.96 -8.38
Si -6.04 -6.42  7.76
Si  2.57  7.58 -8.63
Si -1.82 -10.32  5.39
Si  2.04 -2.99 11.23
Si -6.58 -8.59  4.73
Si -1.51  6.60 -9.69
Si -10.11 -4.83  3.77
Si  0.33  7.58  9.08
Si -4.70 -10.15  3.90
Si -4.42  7.50 -8.04
Si 10.47  5.20 -1.99
Si -6.69 -8.29 -5.20
Si  2.92 -4.68 -10.51
Si  4.69 -6.24 -8.95
Si  9.75  0.13 -6.79
Si 11.85 -0.88 -0.19
Si -1.30  6.00 10.18
Si  1.96 11.34 -3.03
Si  3.09 -11.10  2.98
Si  2.52 10.64  4.70
Si -5.46 -1.04 10.54
Si 10.81  2.76  4.19
Si  6.29 -5.74  8.35
Si  5.21 -3.25 -10.22
Si  1.86 -10.89 -4.50
Si 10.08 -2.87  5.72
Si -11.09 -0.05 -4.54
Si -0.91 -9.83 -6.79
Si  0.66 -11.77 -2.27
Si -1.26 -8.12 -8.75
Si -3.73  6.11  9.64
Si  4.66 -10.99 -1.51
Si -2.31  8.35 -8.35
Si -3.34 10.90 -3.88
Si -6.55  9.04 -4.50
Si  5.21 -10.15  3.90
Si -2.84 -2.21 11.51
Si -8.09 -2.39 -8.63
Si 11.90  0.12  2.02
Si -6.02  4.68  9.36
Si  9.55  3.05  6.75
Si 11.75  2.80 -0.49
Si -4.73 -9.33  6.05
Si -5.22 -6.24 -8.95
Si  1.20 -7.46  9.45
Si -4.26  3.13 10.91
Si  2.10 -0.18 11.95
Si -6.44  8.74  5.43
Si -2.31 11.69  2.37
Si -10.07  0.13 -6.79
Si -6.01  1.15 10.49
Si -1.27 -12.05 -0.85
Si -0.31 -2.83 11.82
Si -2.74 11.82 -0.99
Si  0.59 10.10 -6.79
Si 10.72 -5.54  1.72
Si  7.31  5.01 -8.38
Si  8.98  3.74 -7.36
Si -3.31 10.08 -6.03
