500
set: 1233.00  0.00  0.00
Si  0.61 -0.76 -0.11
Si  0.17  1.01  1.56
Si -1.42 -1.11 -1.11
Si  2.17  0.54 -1.67
Si -2.20  1.17  1.54
Si  1.24  2.58  0.62
Si -3.09  0.47 -0.53
Si  1.44 -2.67  0.96
Si  1.00  2.58 -1.98
Si  1.39  0.61  3.52
Si -1.96 -3.31 -0.66
Si -1.23  2.45 -2.82
Si  1.45 -1.97  3.20
Si -1.47 -1.46 -3.64
Si  3.44  2.39  0.97
Si -2.09  3.40  1.75
Si -3.34  2.55 -1.43
Si  2.40 -0.53 -3.70
Si -3.19 -0.17  3.14
Si -1.20  0.62 -4.39
Si  4.24  1.50 -0.99
Si -0.14 -4.71  0.21
Si -0.14  4.53  1.55
Si  3.72 -3.17  0.59
Si -2.75 -2.74  3.07
Si  3.84  1.23  3.02
Si -0.83 -3.00  4.01
Si -3.94 -3.09  0.91
Si -5.19 -0.26 -0.81
Si  1.80 -2.88 -4.05
Si  0.91  0.71 -5.17
Si  1.12  3.09 -4.53
Si  5.35 -1.44  1.01
Si -3.71  4.25  0.12
Si  4.00  3.61 -1.81
Si -0.61 -3.14 -4.78
Si  0.97  5.47 -1.72
Si  2.85 -4.34 -2.66
Si -2.54  3.33  4.21
Si -3.49 -2.81 -3.93
Si  0.97 -5.63 -1.72
Si  5.92 -0.26 -0.81
Si -2.86  0.92  5.20
Si -5.76 -1.44  1.01
Si -3.79 -4.58 -1.05
Si  0.91  0.71  5.94
Si  2.82 -3.04  4.43
Si -5.32 -2.03 -2.64
Si -0.14  6.40  0.21
Si  5.54 -0.36  3.20
Si  4.65 -0.68 -4.37
Si  0.25 -5.30  3.62
Si -5.56 -0.36  3.20
Si  4.88  4.14  0.55
Si -1.10 -5.23 -3.62
Si  4.88 -4.06 -1.53
Si -5.13  2.73 -3.15
Si -2.86  0.92 -5.91
Si  5.79 -2.03 -2.64
Si -0.14 -6.57  1.55
Si  0.25  5.80  3.62
Si -3.25 -5.03 -3.34
Si -1.20  0.62  6.72
Si -0.75  4.29  5.45
Si -1.10  5.87 -3.62
Si -5.01  1.05 -4.81
Si -4.60 -4.70  2.56
Si -0.61 -3.14  6.32
Si -6.87  1.50 -0.99
Si  2.65 -5.23  4.04
Si -0.75  4.29 -5.66
Si  4.41 -5.23  2.08
Si -4.11 -3.38  4.85
Si  4.86  2.55  4.76
Si  5.07 -1.89  4.87
Si  5.98  2.73 -3.15
Si  1.12  3.09  6.58
Si  4.00  4.91 -3.75
Si  3.02  3.95 -5.54
Si  3.02  3.95  5.57
Si -6.22  4.14  0.55
Si -6.23 -4.06 -1.53
Si  2.65  5.88  4.04
Si -3.79  6.53 -1.05
Si  4.41  5.88  2.08
Si -3.25  6.08 -3.34
Si  1.39  0.61 -7.59
Si -1.47 -1.46  7.47
Si -0.83 -3.00 -7.09
Si -3.71 -6.86  0.12
Si  2.40 -0.53  7.41
Si  2.85  6.77 -2.66
Si -6.46 -0.68 -4.37
Si  1.80 -2.88  7.06
Si  6.09  1.05 -4.81
Si  2.82 -3.04 -6.67
Si  7.17 -3.09  0.91
Si -4.69  4.54  4.45
Si -7.27  1.23  3.02
Si -6.04 -1.89  4.87
Si  8.01  0.47 -0.53
Si -7.39 -3.17  0.59
Si -1.96  7.80 -0.66
Si -2.54  3.33 -6.89
Si -7.67  2.39  0.97
Si -5.01  1.05  6.29
Si -4.82  4.92 -4.35
Si -2.09 -7.70  1.75
Si -7.11  3.61 -1.81
Si  4.65 -0.68  6.73
Si -4.11 -3.38 -6.26
Si  5.07 -1.89 -6.23
Si -6.25  2.55  4.76
Si  4.00 -6.19 -3.75
Si  1.45 -1.97 -7.91
Si -4.60  6.40  2.56
Si  7.76  2.55 -1.43
Si  4.86  2.55 -6.35
Si  6.50 -4.70  2.56
Si -3.49 -2.81  7.18
Si  7.92 -0.17  3.14
Si  4.88 -6.96  0.55
Si  7.40  4.25  0.12
Si -3.19 -0.17 -7.96
Si  1.44  8.44  0.96
Si  1.24 -8.52  0.62
Si  4.00 -7.49 -1.81
Si  7.31 -4.58 -1.05
Si  4.88  7.04 -1.53
Si -1.23  2.45  8.29
Si -6.70 -5.23  2.08
Si -0.75 -6.82  5.45
Si  3.72  7.93  0.59
Si  1.00 -8.53 -1.98
Si  6.09  1.05  6.29
Si -6.04 -1.89 -6.23
Si -0.75 -6.82 -5.66
Si -2.75 -2.74 -8.04
Si -4.82 -6.19 -4.35
Si -3.94  8.02  0.91
Si  7.62 -2.81 -3.93
Si  3.84  1.23 -8.08
Si  6.41  4.54  4.45
Si -0.83  8.10  4.01
Si  6.29  4.92 -4.35
Si -8.94  0.54 -1.67
Si  8.90  1.17  1.54
Si -6.70  5.88  2.08
Si  7.00 -3.38  4.85
Si  0.25 -5.30 -7.49
Si  2.65 -5.23 -7.07
Si -1.23 -8.65 -2.82
Si -1.10 -5.23  7.48
Si -2.54 -7.77  4.21
Si -4.69 -6.56  4.45
Si -6.25  2.55 -6.35
Si  1.12 -8.02 -4.53
Si -3.34 -8.56 -1.43
Si  8.35 -2.74  3.07
Si -0.61  7.96 -4.78
Si -4.69  4.54 -6.65
Si -2.75  8.37  3.07
Si  1.80  8.22 -4.05
Si -6.46 -0.68  6.73
Si -6.22 -6.96  0.55
Si -7.11  4.91 -3.75
Si  3.44 -8.72  0.97
Si -8.70 -0.53 -3.70
Si  0.25  5.80 -7.49
Si  6.50  6.40  2.56
Si -6.23  7.04 -1.53
Si  1.00  2.58  9.12
Si  3.02 -7.16 -5.54
Si  3.02 -7.16  5.57
Si  2.65  5.88 -7.07
Si -1.10  5.87  7.48
Si  0.17  1.01 -9.55
Si  2.82  8.06  4.43
Si -4.82  4.92  6.75
Si  5.54 -0.36 -7.91
Si -5.56 -0.36 -7.91
Si  2.17  0.54  9.43
Si -8.26 -4.34 -2.66
Si  4.00  4.91  7.36
Si  9.15 -3.31 -0.66
Si  8.24  0.92  5.20
Si  1.45  9.14  3.20
Si  9.02  3.40  1.75
Si -3.25 -5.03  7.76
Si  9.68 -1.11 -1.11
Si -3.49  8.30 -3.93
Si  6.29 -6.19 -4.35
Si -5.13  2.73  7.96
Si  7.31  6.53 -1.05
Si -8.28 -3.04  4.43
Si -2.20  1.17 -9.57
Si  7.86 -5.03 -3.34
Si  2.85 -4.34  8.45
Si  7.00 -3.38 -6.26
Si -4.11  7.73  4.85
Si -9.67 -2.67  0.96
Si  7.40 -6.86  0.12
Si  8.56  3.33  4.21
Si -7.11 -6.19 -3.75
Si -1.42 -1.11  9.99
Si -1.42 10.00 -1.11
Si -2.09  3.40 -9.35
Si  8.24  0.92 -5.91
Si -0.61  7.96  6.32
Si  6.41 -6.56  4.45
Si -5.32 -2.03  8.47
Si  0.17 -10.10  1.56
Si -9.87  2.58  0.62
Si -2.20 -9.94  1.54
Si  6.41  4.54 -6.65
Si -5.13 -8.38 -3.15
Si  5.98  2.73  7.96
Si -4.82 -6.19  6.75
Si -9.72  0.61  3.52
Si -9.66 -1.97  3.20
Si  0.61 10.35 -0.11
Si -3.25  6.08  7.76
Si  9.64 -1.46 -3.64
Si -1.47  9.65 -3.64
Si  4.00 -6.19  7.36
Si  1.12 -8.02  6.58
Si  5.79 -2.03  8.47
Si  6.29  4.92  6.75
Si -4.69 -6.56 -6.65
Si -7.11 -7.49 -1.81
Si  7.86  6.08 -3.34
Si -10.50 -0.76 -0.11
Si  4.24 -9.60 -0.99
Si -3.34  2.55  9.68
Si -9.31 -2.88 -4.05
Si  9.87  2.45 -2.82
Si -8.09  3.95 -5.54
Si -0.14  4.53 -9.55
Si -8.09  3.95  5.57
Si  1.44 -2.67 -10.14
Si -10.11  2.58 -1.98
Si -2.54 -7.77 -6.89
Si -8.46 -5.23  4.04
Si  4.00  3.61  9.29
Si -4.11  7.73 -6.26
Si  5.98 -8.38 -3.15
Si -4.60 -4.70 -8.55
Si  7.17  8.02  0.91
Si -0.83  8.10 -7.09
Si  7.62 -2.81  7.18
Si  2.82  8.06 -6.67
Si -5.32  9.07 -2.64
Si  9.91  0.62 -4.39
Si -7.39  7.93  0.59
Si  1.24  2.58 -10.48
Si  0.97  5.47  9.38
Si  2.17 -10.57 -1.67
Si  4.86 -8.55  4.76
Si -7.27  1.23 -8.08
Si  3.44  2.39 -10.13
Si  0.97 -5.63  9.38
Si  1.80  8.22  7.06
Si -8.26  6.77 -2.66
Si  3.84 -9.88  3.02
Si -3.09  0.47 10.58
Si  0.61 -0.76 11.00
Si -8.46  5.88  4.04
Si -8.28 -3.04 -6.67
Si  4.24  1.50 10.12
Si  5.79  9.07 -2.64
Si -3.09 -10.63 -0.53
Si -10.93  1.01  1.56
Si  5.35  9.67  1.01
Si  6.29 -6.19  6.75
Si -1.96 -3.31 10.45
Si  1.39 -10.49  3.52
Si  2.85  6.77  8.45
Si  7.92 -0.17 -7.96
Si  0.61 -0.76 -11.21
Si -5.76  9.67  1.01
Si  4.41 -5.23 -9.02
Si  6.41 -6.56 -6.65
Si -7.11  4.91  7.36
Si -3.94 -3.09 -10.19
Si -9.99  3.09 -4.53
Si 11.28  1.01  1.56
Si 10.27 -3.00  4.01
Si -1.20 -10.49 -4.39
Si -8.70 -0.53  7.41
Si -10.20  0.71 -5.17
Si  2.40 10.58 -3.70
Si  8.56  3.33 -6.89
Si  4.88 -4.06  9.58
Si  7.00  7.73  4.85
Si -3.49  8.30  7.18
Si  5.35 -1.44 -10.10
Si -5.19 -0.26 10.30
Si  5.07  9.21  4.87
Si  3.72 -3.17 -10.52
Si -0.14 -6.57 -9.55
Si -6.25 -8.55  4.76
Si -4.60  6.40 -8.55
Si  4.41  5.88 -9.02
Si  0.91 -10.40 -5.17
Si  7.76 -8.56 -1.43
Si -7.67 -8.72  0.97
Si -10.14  5.47 -1.72
Si -3.79 -4.58 10.05
Si  4.86 -8.55 -6.35
Si -5.76 -1.44 -10.10
Si -10.14 -5.63 -1.72
Si  6.50 -4.70 -8.55
Si 11.72 -0.76 -0.11
Si -2.86 -10.19  5.20
Si -3.19 10.93  3.14
Si -10.20  0.71  5.94
Si -6.87 -9.60 -0.99
Si 10.00 -5.23 -3.62
Si -0.14 -4.71 -10.90
Si  5.92 -0.26 10.30
Si  0.61 -11.87 -0.11
Si  8.35 -2.74 -8.04
Si -2.75  8.37 -8.04
Si  7.62  8.30 -3.93
Si 10.96 -4.71  0.21
Si 10.50 -3.14 -4.78
Si -7.11 -6.19  7.36
Si  2.17 11.64 -1.67
Si 10.97  4.53  1.55
Si  9.91  0.62  6.72
Si  9.02 -7.70  1.75
Si -3.09 11.58 -0.53
Si  0.91 -10.40  5.94
Si -9.31 -2.88  7.06
Si  9.15  7.80 -0.66
Si -1.23 -8.65  8.29
Si -6.04  9.21  4.87
Si -5.19 10.84 -0.81
Si -3.09  0.47 -11.64
Si  1.24  2.58 11.73
Si -2.86 -10.19 -5.91
Si -6.23 -4.06  9.58
Si -3.19 -11.28  3.14
Si  7.86 -5.03  7.76
Si -8.09 -7.16 -5.54
Si 10.00  5.87 -3.62
Si -8.09 -7.16  5.57
Si  7.00  7.73 -6.26
Si  1.45  9.14 -7.91
Si -11.25 -4.71  0.21
Si -8.46 -5.23 -7.07
Si  8.35  8.37  3.07
Si  0.17 12.11  1.56
Si -11.24  4.53  1.55
Si  5.07  9.21 -6.23
Si -5.01 -10.06 -4.81
Si  4.65 10.43 -4.37
Si -7.11  3.61  9.29
Si -0.14 -4.71 11.31
Si  9.64 -1.46  7.47
Si -1.47  9.65  7.47
Si -2.09 -7.70 -9.35
Si  8.56 -7.77  4.21
Si  1.39 11.72  3.52
Si -6.87  1.50 10.12
Si  4.88  4.14 -10.56
Si -9.72  0.61 -7.59
Si -1.42 -12.21 -1.11
Si -6.25 -8.55 -6.35
Si -3.71  4.25 -10.99
Si -1.42 -1.11 -12.22
Si -9.99  3.09  6.58
Si -1.96 -3.31 -11.76
Si  5.92 10.84 -0.81
Si -8.28  8.06  4.43
Si -6.70 -5.23 -9.02
Si  2.40 -11.63 -3.70
Si  1.44 -2.67 12.07
Si 10.36  4.29  5.45
Si -8.46  5.88 -7.07
Si  6.50  6.40 -8.55
Si  5.54 10.75  3.20
Si -1.20 -10.49  6.72
Si -5.56 10.75  3.20
Si -5.19 -11.37 -0.81
Si  1.00 -8.53  9.12
Si 12.11  2.58 -1.98
Si -3.71  4.25 11.22
Si 10.36  4.29 -5.66
Si -2.20 12.28  1.54
Si -1.20 11.72 -4.39
Si -3.79  6.53 10.05
Si -8.26 -4.34  8.45
Si  4.00 -7.49  9.29
Si -10.85 -5.30  3.62
Si  7.86  6.08  7.76
Si 12.34  2.58  0.62
Si -12.53 -1.11 -1.11
Si -7.27 -9.88  3.02
Si -9.66 -1.97 -7.91
Si -0.14  6.40 -10.90
Si -5.13 -8.38  7.96
Si 10.50 -3.14  6.32
Si -6.04  9.21 -6.23
Si  7.76  2.55  9.68
Si  3.72 -3.17 11.70
Si -6.70  5.88 -9.02
Si 10.96  6.40  0.21
Si  0.17  1.01 12.66
Si  6.09 -10.06 -4.81
Si  3.44  2.39 12.08
Si -10.85  5.80  3.62
Si  7.17 -3.09 -10.19
Si  5.92 -11.37 -0.81
Si 10.27 -3.00 -7.09
Si  4.88  7.04  9.58
Si 12.54 -2.67  0.96
Si -9.67  8.44  0.96
Si -5.01 -10.06  6.29
Si 10.97 -6.57  1.55
Si -2.20  1.17 12.64
Si -12.34  2.45 -2.82
Si  4.24  1.50 -12.09
Si  0.91 11.82 -5.17
Si -7.67  2.39 -10.13
Si -6.22  4.14 -10.56
Si -11.25  6.40  0.21
Si -11.94 -3.00  4.01
Si  2.17  0.54 -12.78
Si 12.49  0.61  3.52
Si -5.19 -0.26 -11.91
Si -0.14  6.40 11.31
Si -8.94  0.54  9.43
Si  5.98 -8.38  7.96
Si -3.94 -3.09 12.02
Si -6.46 10.43 -4.37
Si  1.39 -10.49 -7.59
Si -11.71 -3.14 -4.78
Si 11.36 -5.30  3.62
Si -9.87 -8.52  0.62
Si -9.31  8.22 -4.05
Si -12.30  0.62 -4.39
Si 12.02  0.71 -5.17
Si 12.55 -1.97  3.20
Si -11.24 -6.57  1.55
Si  9.87  2.45  8.29
Si  8.90  1.17 -9.57
Si  5.54 -11.46  3.20
Si -5.56 -11.46  3.20
Si  2.40 10.58  7.41
Si -1.47 -12.56 -3.64
Si -12.57 -1.46 -3.64
Si -1.96  7.80 10.45
Si -3.34  2.55 -12.54
Si -7.39 -3.17 -10.52
Si  7.31 -4.58 10.05
Si  4.65 10.43  6.73
Si  0.91 11.82  5.94
Si 11.36  5.80  3.62
Si  3.84 12.34  3.02
Si  1.44  8.44 -10.14
Si  8.01  0.47 10.58
Si  4.88  4.14 11.66
Si  5.92 -0.26 -11.91
Si  5.35 -1.44 12.12
Si  8.01 -10.63 -0.53
Si  3.84 -9.88 -8.08
Si  6.09 -10.06  6.29
Si  4.24 12.61 -0.99
Si -3.34 -8.56  9.68
Si -8.28  8.06 -6.67
Si  7.62  8.30  7.18
Si 12.07  5.47 -1.72
Si -10.11 -8.53 -1.98
Si  1.00  2.58 -13.09
Si 13.28  0.54 -1.67
Si 12.22  3.09 -4.53
Si  4.65 -11.78 -4.37
Si -2.86 12.03  5.20
Si -6.23  7.04  9.58
Si 12.02  0.71  5.94
Si  9.87 -8.65 -2.82
Si  8.90 -9.94  1.54
Si  9.02  3.40 -9.35
Si 12.07 -5.63 -1.72
Si -0.14  4.53 12.66
Si -13.31  1.17  1.54
Si  8.56 -7.77 -6.89
Si -2.09  3.40 12.86
Si -3.71 -6.86 -10.99
Si -5.76 -1.44 12.12
Si -13.06 -3.31 -0.66
Si -5.32  9.07  8.47
Si -3.79 -4.58 -12.16
Si  1.45 -13.07  3.20
Si 10.00 -5.23  7.48
Si 10.36 -6.82  5.45
Si -3.94  8.02 -10.19
Si  4.88 -6.96 -10.56
Si -1.20 11.72  6.72
