500
set: 569.00  0.00  0.00
Si  0.00  0.00  0.00
Si -0.36 -0.19 -2.14
Si -1.80  1.05  0.75
Si  1.83  1.05  0.75
Si -0.02 -2.19  0.75
Si  1.45 -1.24 -2.89
Si -1.45  1.24  2.89
Si -0.33  2.01 -2.89
Si  0.33 -2.01  2.89
Si  3.63  0.00  0.00
Si -3.63  0.00  0.00
Si -1.78  3.25  0.00
Si  1.78 -3.25  0.00
Si -1.85 -3.25  0.00
Si  1.85  3.25  0.00
Si  2.18  1.24  2.89
Si -2.18 -1.24 -2.89
Si  3.27 -0.19 -2.14
Si  1.49  3.06 -2.14
Si -1.47 -0.95  3.63
Si  3.61 -2.19  0.75
Si  1.42 -3.44 -2.14
Si -2.14  3.06 -2.14
Si  0.38  2.30  3.63
Si -3.66 -2.19  0.75
Si  2.16 -0.95  3.63
Si  0.04  4.30  0.75
Si -3.99 -0.19 -2.14
Si -2.21 -3.44 -2.14
Si  3.30  2.01 -2.89
Si -3.30 -2.01  2.89
Si -3.97  2.01 -2.89
Si  3.97 -2.01  2.89
Si  1.09 -1.43 -5.03
Si  0.40  4.49  2.89
Si -0.40 -4.49 -2.89
Si -3.25  2.30  3.63
Si -0.69  1.82 -5.03
Si  0.31 -4.20  3.63
Si -5.44  1.05  0.75
Si  5.46  1.05  0.75
Si -3.59  4.30  0.75
Si  3.68  4.30  0.75
Si  1.76 -5.45  0.75
Si -1.87 -5.45  0.75
Si -2.54 -1.43 -5.03
Si  4.01  2.30  3.63
Si  1.11  0.76 -5.78
Si -1.11 -0.76  5.78
Si -5.08  1.24  2.89
Si  5.08 -1.24 -2.89
Si  2.94  1.82 -5.03
Si  1.52  5.26 -2.89
Si -1.52 -5.26  2.89
Si  3.23 -4.49 -2.89
Si -3.23  4.49  2.89
Si  5.41 -3.25  0.00
Si -5.41  3.25  0.00
Si -0.74 -2.49 -5.78
Si  0.74  2.49  5.78
Si -5.10 -0.95  3.63
Si  5.12  3.06 -2.14
Si -2.52  0.76 -5.78
Si  2.52 -0.76  5.78
Si  2.12 -5.26  2.89
Si -2.12  5.26 -2.89
Si  5.48  3.25  0.00
Si -5.48 -3.25  0.00
Si -3.32 -4.20  3.63
Si  5.06 -3.44 -2.14
Si -0.07 -6.50  0.00
Si  0.07  6.50  0.00
Si  0.71  0.29  6.52
Si  5.82  1.24  2.89
Si -5.82 -1.24 -2.89
Si -0.29  6.31 -2.14
Si -4.03 -4.49 -2.89
Si  4.03  4.49  2.89
Si -1.40  5.55  3.63
Si  3.94 -4.20  3.63
Si -5.77  3.06 -2.14
Si -4.32  1.82 -5.03
Si  5.79 -0.95  3.63
Si -0.76 -4.68 -5.03
Si -2.90  2.49  5.78
Si  2.90 -2.49 -5.78
Si  2.23  5.55  3.63
Si -0.43 -6.69 -2.14
Si  4.72 -1.43 -5.03
Si -0.67  4.01 -5.78
Si  0.67 -4.01  5.78
Si -5.84 -3.44 -2.14
Si -2.92  0.29  6.52
Si  6.91 -0.19 -2.14
Si  1.16  5.07 -5.03
Si -1.14 -2.96  6.52
Si  7.26  0.00  0.00
Si -7.26  0.00  0.00
Si -3.56  6.50  0.00
Si  3.56 -6.50  0.00
Si  2.87 -4.68 -5.03
Si  3.34  6.31 -2.14
Si  3.70  6.50  0.00
Si -3.70 -6.50  0.00
Si -1.07  3.54  6.52
Si  4.75  0.76 -5.78
Si -4.75 -0.76  5.78
Si -2.47  5.07 -5.03
Si  2.49 -2.96  6.52
Si  7.24 -2.19  0.75
Si -2.96 -4.01  5.78
Si  2.96  4.01 -5.78
Si -7.29 -2.19  0.75
Si -4.37 -2.49 -5.78
Si  4.37  2.49  5.78
Si  5.39 -5.45  0.75
Si  3.21 -6.69 -2.14
Si -3.92  6.31 -2.14
Si -6.93 -2.01  2.89
Si  6.93  2.01 -2.89
Si -5.51 -5.45  0.75
Si -1.74  7.55  0.75
Si  1.90  7.55  0.75
Si  4.34  0.29  6.52
Si  2.56  3.54  6.52
Si -5.15 -5.26  2.89
Si  5.15  5.26 -2.89
Si -7.62 -0.19 -2.14
Si  0.76  0.57 -7.92
Si -6.17 -1.43 -5.03
Si -4.06 -6.69 -2.14
Si -6.88  2.30  3.63
Si -4.39 -4.68 -5.03
Si  1.05 -5.74 -5.78
Si -1.05  5.74  5.78
Si -4.30  4.01 -5.78
Si  4.30 -4.01  5.78
Si  5.75 -5.26  2.89
Si -5.75  5.26 -2.89
Si -5.04  5.55  3.63
Si  7.60 -2.01  2.89
Si -7.60  2.01 -2.89
Si  1.38 -7.74 -2.89
Si -1.38  7.74  2.89
Si -1.09 -2.68 -7.92
Si -1.54 -7.45  3.63
Si -7.22  4.30  0.75
Si -2.88  0.57 -7.92
Si -6.15  0.76 -5.78
Si  6.15 -0.76  5.78
Si  6.57  1.82 -5.03
Si  7.31  4.30  0.75
Si -2.59 -5.74 -5.78
Si  2.59  5.74  5.78
Si  2.09 -7.45  3.63
Si -2.25 -7.74 -2.89
Si  2.25  7.74  2.89
Si  4.79  5.07 -5.03
Si -4.77 -2.96  6.52
Si -6.86  4.49  2.89
Si  6.86 -4.49 -2.89
Si -0.09 -8.70  0.75
Si  2.54 -2.68 -7.92
Si -1.07 -0.48 -8.67
Si  1.07  0.48  8.67
Si  7.64  2.30  3.63
Si -4.70  3.54  6.52
Si  5.86  5.55  3.63
Si -1.02  3.82 -7.92
Si -6.95 -4.20  3.63
Si -0.27  8.51 -2.89
Si  0.27 -8.51  2.89
Si  0.64 -6.21  6.52
Si  2.56 -0.48 -8.67
Si -2.56  0.48  8.67
Si -6.53  2.49  5.78
Si  6.53 -2.49 -5.78
Si  4.39  0.57 -7.92
Si  0.78  2.77 -8.67
Si -0.78 -2.77  8.67
Si -9.07  1.05  0.75
Si  2.61  3.82 -7.92
Si  9.09  1.05  0.75
Si -6.55  0.29  6.52
Si -8.71  1.24  2.89
Si  8.71 -1.24 -2.89
Si -5.37  7.55  0.75
Si  7.67  4.49  2.89
Si -7.67 -4.49 -2.89
Si -1.18 -7.26  5.78
Si  1.18  7.26 -5.78
Si -4.68  5.74  5.78
Si  4.68 -5.74 -5.78
Si  5.53  7.55  0.75
Si  7.57 -4.20  3.63
Si -6.11  5.07 -5.03
Si  3.54 -8.70  0.75
Si  6.13 -2.96  6.52
Si  1.02 -7.93 -5.03
Si  0.78  6.79  6.52
Si  0.71 -3.73 -8.67
Si -0.71  3.73  8.67
Si  6.50 -4.68 -5.03
Si -2.99 -6.21  6.52
Si -3.72 -8.70  0.75
Si -8.73 -0.95  3.63
Si  8.76  3.06 -2.14
Si  0.45  8.80  3.63
Si -2.85  2.77 -8.67
Si  2.85 -2.77  8.67
Si -0.73  1.53  9.41
Si  8.69 -3.44 -2.14
Si -7.96  1.82 -5.03
Si -3.37 -8.51  2.89
Si  3.37  8.51 -2.89
Si -2.45  7.26 -5.78
Si  2.45 -7.26  5.78
Si -4.73 -2.68 -7.92
Si  9.05 -3.25  0.00
Si -9.05  3.25  0.00
Si  1.05 -1.72  9.41
Si  6.60  4.01 -5.78
Si -6.60 -4.01  5.78
Si  6.97  6.31 -2.14
Si -5.01  7.74  2.89
Si  5.01 -7.74 -2.89
Si  6.20  3.54  6.52
Si  9.11  3.25  0.00
Si -9.11 -3.25  0.00
Si -7.20  6.50  0.00
Si  7.20 -6.50  0.00
Si -0.62  8.32 -5.03
Si -2.61 -7.93 -5.03
Si -5.17 -7.45  3.63
Si -3.90  8.51 -2.89
Si  3.90 -8.51  2.89
Si -7.33 -6.50  0.00
Si  7.33  6.50  0.00
Si  6.84 -6.69 -2.14
Si -2.85  6.79  6.52
Si  8.35 -1.43 -5.03
Si  4.70  0.48  8.67
Si -4.70 -0.48 -8.67
Si -2.92 -3.73 -8.67
Si  2.92  3.73  8.67
Si  1.71 -9.75  0.00
Si -1.71  9.75  0.00
Si -2.58 -1.72  9.41
Si  0.69 -5.92 -7.92
Si  1.56  9.56 -2.14
Si -1.92 -9.75  0.00
Si  1.92  9.75  0.00
Si -4.66  3.82 -7.92
Si -9.45 -1.24 -2.89
Si  9.45  1.24  2.89
Si  2.90  1.53  9.41
Si  4.28 -6.21  6.52
Si -2.07  9.56 -2.14
Si -3.19  8.80  3.63
Si -7.55  6.31 -2.14
Si  5.72 -7.45  3.63
Si  4.41  2.77 -8.67
Si -4.41 -2.77  8.67
Si -9.40  3.06 -2.14
Si -5.88 -7.74 -2.89
Si  5.88  7.74  2.89
Si  9.42 -0.95  3.63
Si  3.01  8.32 -5.03
Si -8.00 -2.49 -5.78
Si  8.00  2.49  5.78
Si -8.38 -0.76  5.78
Si  8.38  0.76 -5.78
Si -6.22 -5.74 -5.78
Si  6.22  5.74  5.78
Si  1.36 -9.94 -2.14
Si -6.51  0.57 -7.92
Si -9.47 -3.44 -2.14
Si  7.98  0.29  6.52
Si -2.94 -5.92 -7.92
Si  4.08  8.80  3.63
Si -4.34  3.73  8.67
Si  4.34 -3.73 -8.67
Si  6.17 -2.68 -7.92
Si  4.41  6.79  6.52
Si -7.69 -6.69 -2.14
Si -2.28 -9.94 -2.14
Si  4.81  7.26 -5.78
Si -4.81 -7.26  5.78
Si  4.65 -7.93 -5.03
Si -4.37  1.53  9.41
Si  9.02 -5.45  0.75
Si -8.02 -4.68 -5.03
Si -1.00  6.02 -8.67
Si  1.00 -6.02  8.67
Si  7.93 -4.01  5.78
Si -7.93  4.01 -5.78
Si -4.25  8.32 -5.03
Si  1.11  4.79  9.41
Si  8.78  5.26 -2.89
Si -8.78 -5.26  2.89
Si  4.68 -1.72  9.41
Si  0.82  7.07 -7.92
Si -6.19  0.48  8.67
Si  6.19 -0.48 -8.67
Si -9.14 -5.45  0.75
Si -0.80 -4.96  9.41
Si -0.81 -8.99 -5.78
Si  0.81  8.99  5.78
Si 10.54 -0.19 -2.14
Si  6.24  3.82 -7.92
Si  4.32 -5.92 -7.92
Si  0.11 10.80  0.75
Si -2.52  4.79  9.41
Si  2.63  6.02 -8.67
Si -2.63 -6.02  8.67
Si 10.90  0.00  0.00
Si -10.90  0.00  0.00
Si -8.67  5.55  3.63
Si -1.43 -0.67 -10.81
Si -2.81  7.07 -7.92
Si  2.83 -4.96  9.41
Si -8.40 -2.96  6.52
Si  8.42  5.07 -5.03
Si -2.83  8.99  5.78
Si  2.83 -8.99 -5.78
Si  2.20 -0.67 -10.81
Si  5.19  9.56 -2.14
Si -6.08  7.26 -5.78
Si  6.08 -7.26  5.78
Si -9.80 -1.43 -5.03
Si 10.87 -2.19  0.75
Si  5.34 -9.75  0.00
Si -5.34  9.75  0.00
Si  0.42  2.58 -10.81
Si -10.56 -2.01  2.89
Si 10.56  2.01 -2.89
Si -9.38  5.26 -2.89
Si  9.38 -5.26  2.89
Si -8.33  3.54  6.52
Si -10.92 -2.19  0.75
Si -6.48  2.77 -8.67
Si  6.48 -2.77  8.67
Si -6.62 -6.21  6.52
Si -1.14 -6.98 -8.67
Si  1.14  6.98  8.67
Si -5.55 -9.75  0.00
Si  5.55  9.75  0.00
Si -6.24 -7.93 -5.03
Si  8.02  0.57 -7.92
Si  7.17 -8.70  0.75
Si  0.24 -10.70  3.63
Si  4.99 -9.94 -2.14
Si -5.70  9.56 -2.14
Si -10.52  2.30  3.63
Si -0.47 -10.99 -2.89
Si  0.47 10.99  2.89
Si  9.78 -0.76  5.78
Si -9.78  0.76 -5.78
Si -3.52 10.80  0.75
Si -7.00 -8.51  2.89
Si  7.00  8.51 -2.89
Si -2.49  6.98  8.67
Si  2.49 -6.98 -8.67
Si -6.22 -1.72  9.41
Si -7.36 -8.70  0.75
Si -6.48  6.79  6.52
Si -11.25 -0.19 -2.14
Si  3.75 10.80  0.75
Si -6.55 -3.73 -8.67
Si  6.55  3.73  8.67
Si  0.35 -3.92 -10.81
Si  4.46  7.07 -7.92
Si 10.20  1.82 -5.03
Si -4.63  6.02 -8.67
Si  4.63 -6.02  8.67
Si -4.44 -4.96  9.41
Si -1.21 -9.46  6.52
Si  6.53  1.53  9.41
Si -3.21  2.58 -10.81
Si -4.44 -8.99 -5.78
Si  4.44  8.99  5.78
Si  4.75  4.79  9.41
Si  9.49  5.55  3.63
Si  8.31 -5.74 -5.78
Si -8.31  5.74  5.78
Si -0.38  1.72 11.55
Si  0.38 -1.72 -11.55
Si -10.85  4.30  0.75
Si -6.82  8.80  3.63
Si -7.53  8.51 -2.89
Si  7.53 -8.51  2.89
Si -1.40  1.53 -11.55
Si  1.40 -1.53 11.55
Si  2.43 -9.46  6.52
Si -5.91 -9.94 -2.14
Si -11.23  2.01 -2.89
Si 11.23 -2.01  2.89
Si  6.64  8.32 -5.03
Si -9.00  7.55  0.75
Si -10.49  4.49  2.89
Si 10.49 -4.49 -2.89
Si 10.94  4.30  0.75
Si  3.16 -10.99 -2.89
Si -3.16 10.99  2.89
Si -3.39 -10.70  3.63
Si -8.36 -2.68 -7.92
Si  4.05  2.58 -10.81
Si -2.23 -1.53 11.55
Si  2.23  1.53 -11.55
Si -6.58 -5.92 -7.92
Si  9.16  7.55  0.75
Si  3.87 -10.70  3.63
Si -10.16  2.49  5.78
Si 10.16 -2.49 -5.78
Si -5.06 -0.67 -10.81
Si -10.59 -4.20  3.63
Si -3.28 -3.92 -10.81
Si  8.64 -7.74 -2.89
Si -8.64  7.74  2.89
Si  7.91 -6.21  6.52
Si -0.60 10.51 -5.78
Si  0.60 -10.51  5.78
Si -1.00 10.04  6.52
Si  8.33  0.48  8.67
Si -8.33 -0.48 -8.67
Si 11.27  2.30  3.63
Si -9.74  5.07 -5.03
Si  4.10 10.99  2.89
Si -4.10 -10.99 -2.89
Si -8.29  3.82 -7.92
Si  1.69 -11.95  0.75
Si -8.80 -7.45  3.63
Si -10.18  0.29  6.52
Si  9.76 -2.96  6.52
Si -4.77 -6.98 -8.67
Si  4.77  6.98  8.67
Si -1.94 -11.95  0.75
Si  3.25  1.72 11.55
Si -3.25 -1.72 -11.55
Si -8.04 -2.77  8.67
Si  8.04  2.77 -8.67
Si  3.99 -3.92 -10.81
Si -1.16 -9.18 -7.92
Si  1.58 11.76 -2.89
Si -1.58 -11.76  2.89
Si -6.15  4.79  9.41
Si 10.14 -4.68 -5.03
Si  7.71  8.80  3.63
Si  2.63 10.04  6.52
Si  6.26  6.02 -8.67
Si -6.26 -6.02  8.67
Si  2.05 -11.76  2.89
Si -2.05 11.76 -2.89
Si -0.83 -11.18 -5.03
Si  5.84 -0.67 -10.81
Si  9.83  3.54  6.52
Si -0.40 -0.47 12.30
Si  4.01 -1.72 -11.55
Si -4.01  1.72 11.55
Si -7.98  3.73  8.67
Si  7.98 -3.73 -8.67
Si -1.36  5.83 -10.81
Si  2.47 -9.18 -7.92
Si -3.03 -10.51  5.78
Si  3.03 10.51 -5.78
Si  8.04  6.79  6.52
Si -0.67  8.04  9.41
Si -10.23 -4.01  5.78
Si 10.23  4.01 -5.78
Si -6.44  7.07 -7.92
Si -8.00  1.53  9.41
Si  6.46 -4.96  9.41
Si -4.84 -9.46  6.52
Si  6.46 -8.99 -5.78
Si -6.46  8.99  5.78
Si  2.27  5.83 -10.81
Si 11.30  4.49  2.89
Si -11.30 -4.49 -2.89
Si  9.36 -7.45  3.63
Si 11.21 -4.20  3.63
Si  0.45  4.78 -11.55
Si -0.45 -4.78 11.55
Si -7.89  8.32 -5.03
Si  8.29 -7.93 -5.03
Si 10.61  6.31 -2.14
Si  0.98 -8.21  9.41
Si -8.45 -7.26  5.78
Si  8.45  7.26 -5.78
Si  2.80 -11.18 -5.03
Si  9.52  7.74  2.89
Si -9.52 -7.74 -2.89
Si 10.47 -6.69 -2.14
Si 10.83 -6.50  0.00
Si -10.83  6.50  0.00
Si -1.33 12.05  3.63
Si -1.47 -4.97 -11.55
Si  1.47  4.97 11.55
Si  8.31 -1.72  9.41
Si  1.23 11.57 -5.03
Si  7.95 -5.92 -7.92
