500
set: 1496.00  0.00  0.00
Si  0.09 -0.99  1.19
Si -0.36 -0.11 -1.72
Si  1.70  0.79 -0.36
Si -0.32  1.55  1.25
Si -1.07 -2.01 -0.97
Si -0.77  2.42 -1.66
Si  2.15 -0.09  2.54
Si  2.67 -2.14  0.56
Si  2.22 -1.26 -2.35
Si -2.79  1.47  1.49
Si -0.62 -2.89  1.94
Si  2.88  1.47  1.49
Si  0.85 -3.40 -0.83
Si  2.43  2.35 -1.42
Si -3.00 -2.14  0.56
Si  1.25  1.67 -3.27
Si -0.67  3.86  0.58
Si -3.96  0.79 -0.36
Si  0.13  0.67  4.16
Si -3.24  2.35 -1.42
Si -1.52 -1.13 -3.88
Si -3.51 -0.09  2.54
Si -3.44 -1.26 -2.35
Si  0.40 -2.52 -3.74
Si  0.54 -1.87  4.10
Si -0.22  2.98  3.49
Si -0.81  0.77 -4.62
Si  1.30 -4.28  2.08
Si -2.34  0.59  4.40
Si -2.29 -4.49  0.58
Si -2.74 -3.61 -2.32
Si  4.59 -2.01 -0.97
Si  2.92 -3.61 -2.32
Si -2.55 -3.02  3.46
Si -2.74  4.06  2.08
Si -1.12  4.73 -2.32
Si  2.92  4.06  2.08
Si  3.33  0.59  4.40
Si  3.12 -3.02  3.46
Si  1.77 -0.38 -5.26
Si  5.30 -0.11 -1.72
Si  2.47  4.94 -0.83
Si  3.37 -4.49  0.58
Si  5.34  1.55  1.25
Si  4.89  2.42 -1.66
Si -4.41  1.67 -3.27
Si  1.98  3.23 -4.33
Si -1.22  3.30 -4.56
Si  4.14 -1.13 -3.88
Si -5.58 -0.99  1.19
Si  1.00  5.45  1.94
Si -3.19  4.94 -0.83
Si -4.82 -3.40 -0.83
Si  5.75 -0.99  1.19
Si  2.60 -0.96  5.45
Si  5.04 -2.89  1.94
Si -0.17 -3.77  4.84
Si  0.81 -5.99 -1.42
Si -6.03 -0.11 -1.72
Si -5.99  1.55  1.25
Si -3.06 -0.96  5.45
Si  5.00  3.86  0.58
Si -2.29  3.18  4.99
Si -1.37  6.20  0.56
Si  2.47 -2.73 -5.23
Si -0.92  5.32  3.46
Si  0.55  6.33 -0.97
Si -4.37 -4.28  2.08
Si -3.69  3.23 -4.33
Si -3.90 -0.38 -5.26
Si -2.40 -5.92 -1.66
Si -1.84 -5.36  3.49
Si  0.36 -5.11 -4.33
Si -3.19 -2.73 -5.23
Si  0.80  2.55 -6.18
Si  0.23  2.10  6.40
Si  4.85  0.77 -4.62
Si  3.37  3.18  4.99
Si  1.45  4.57  4.84
Si -5.13 -1.87  4.10
Si -0.05 -1.65 -6.64
Si -5.26 -2.52 -3.74
Si  3.27 -5.92 -1.66
Si -5.54  0.67  4.16
Si  4.54  4.73 -2.32
Si -1.97 -0.25 -6.79
Si -6.44  2.42 -1.66
Si  0.58 -0.21  7.07
Si -6.74 -2.01 -0.97
Si  5.45  2.98  3.49
Si  1.25 -6.87  1.49
Si  5.79  0.67  4.16
Si  4.44  3.30 -4.56
Si -1.95 -6.79  1.25
Si -6.29 -2.89  1.94
Si  2.02  5.82 -3.74
Si  2.82 -5.04 -4.56
Si -2.85 -5.04 -4.56
Si  1.75 -5.16  4.99
Si  6.51 -3.40 -0.83
Si  7.37  0.79 -0.36
Si -4.67  5.45  1.94
Si -0.37 -6.67 -3.27
Si -6.33  3.86  0.58
Si  3.82 -5.36  3.49
Si -5.88  2.98  3.49
Si -1.89 -0.29  7.31
Si  0.08 -7.55 -0.36
Si  6.07 -2.52 -3.74
Si  4.29  6.20  0.56
Si  0.98 -2.75  7.01
Si  1.71  7.35  1.19
Si  6.20 -1.87  4.10
Si -1.82  7.08 -2.35
Si  3.69 -0.25 -6.79
Si -2.10 -3.90  6.37
Si -0.47  4.45  6.37
Si -1.26  1.64 -7.53
Si -3.64  5.82 -3.74
Si -1.57  5.61 -5.23
Si  6.92  1.67 -3.27
Si -4.86 -5.99 -1.42
Si  3.72 -6.79  1.25
Si -4.22  4.57  4.84
Si  4.74  5.32  3.46
Si  2.16  6.47  4.10
Si -6.48  0.77 -4.62
Si -3.92 -5.16  4.99
Si  0.10  7.21 -3.88
Si -5.12  6.33 -0.97
Si  7.82 -0.09  2.54
Si  3.78 -0.29  7.31
Si  5.49 -3.77  4.84
Si -7.19 -1.13 -3.88
Si -4.86  2.55 -6.18
Si  3.57 -3.90  6.37
Si  1.32  0.50 -8.17
Si -4.41 -6.87  1.49
Si  7.88 -1.26 -2.35
Si -0.09 -4.23 -7.23
Si  3.84  7.08 -2.35
Si -3.51  6.47  4.10
Si -1.84  2.30  7.89
Si -3.96  7.35  1.19
Si  6.96 -4.28  2.08
Si  1.53  4.11 -7.23
Si -5.84 -3.77  4.84
Si  1.26  8.23 -1.72
Si -0.82 -5.79 -6.18
Si  8.09  2.35 -1.42
Si -5.31 -5.11 -4.33
Si  2.02 -1.85 -8.14
Si -6.79  4.73 -2.32
Si  8.34 -2.14  0.56
Si -5.44  2.10  6.40
Si  4.10  5.61 -5.23
Si -8.45  1.47  1.49
Si -5.09 -0.21  7.07
Si -1.67  4.18 -7.47
Si  1.90  3.69  7.75
Si  8.54  1.47  1.49
Si  0.53 -8.43  2.54
Si  6.66  5.45  1.94
Si -1.89  8.25  2.54
Si -1.99 -8.45 -1.72
Si  5.62 -1.65 -6.64
Si -1.50 -7.67  4.16
Si -4.68 -2.75  7.01
Si  2.37 -4.16 -7.47
Si  4.40  1.64 -7.53
Si -6.89  3.30 -4.56
Si -5.71 -1.65 -6.64
Si  6.21  6.33 -0.97
Si  6.47 -5.99 -1.42
Si -8.66 -2.14  0.56
Si -2.62 -1.84  8.36
Si  5.89  2.10  6.40
Si  6.02 -5.11 -4.33
Si  0.27 -4.65  7.75
Si -1.39 -6.24  6.40
Si  3.82  2.30  7.89
Si  1.71 -7.75  4.40
Si  3.05 -1.84  8.36
Si -3.64 -1.85 -8.14
Si  7.43 -0.38 -5.26
Si  5.29 -6.67 -3.27
Si -8.00  0.59  4.40
Si -6.59  5.32  3.46
Si -7.96 -4.49  0.58
Si -3.29 -4.16 -7.47
Si -2.44 -7.58 -4.62
Si -4.34  0.50 -8.17
Si -1.44  7.38  5.45
Si -4.14  4.11 -7.23
Si  6.47  2.55 -6.18
Si -8.90  2.35 -1.42
Si  2.61  5.59  7.01
Si  5.19  4.45  6.37
Si  7.64  3.23 -4.33
Si -3.77  3.69  7.75
Si  3.68 -8.45 -1.72
Si -5.59 -7.55 -0.36
Si -7.04  6.20  0.56
Si -8.21 -3.02  3.46
Si  0.68  1.22  9.31
Si  3.77  8.25  2.54
Si  6.24 -0.21  7.07
Si -2.34  9.13 -0.36
Si -8.41 -3.61 -2.32
Si  3.23 -7.58 -4.62
Si  3.99  4.18 -7.47
Si -3.06  5.59  7.01
Si -4.41  8.23 -1.72
Si  5.74 -7.55 -0.36
Si -9.11 -1.26 -2.35
Si -9.18 -0.09  2.54
Si -1.54 -9.33  1.19
Si  8.14  4.94 -0.83
Si  1.57  6.70 -6.64
Si -8.41  4.06  2.08
Si -6.04 -6.67 -3.27
Si -0.50 -0.77 -9.55
Si  8.59 -3.61 -2.32
Si -9.63  0.79 -0.36
Si  4.17 -7.67  4.16
Si  0.35  3.43 -9.09
Si  8.59  4.06  2.08
Si  3.32  9.13 -0.36
Si  7.11  4.57  4.84
Si -3.96 -7.75  4.40
Si  4.84 -5.79 -6.18
Si -2.27  7.96 -5.26
Si  6.92 -6.87  1.49
Si -7.51 -5.36  3.49
Si -5.57  7.21 -3.88
Si  0.60 -9.60 -2.35
Si -6.14  4.45  6.37
Si  4.27 -6.24  6.40
Si  8.78 -3.02  3.46
Si -7.96  3.18  4.99
Si -0.02  3.57  9.28
Si  8.27 -0.96  5.45
Si -0.72  8.93  4.40
Si -1.17  9.81  1.49
Si  5.76  7.21 -3.88
Si -2.42  0.62 -9.70
Si  8.99  0.59  4.40
Si  6.65 -2.75  7.01
Si  1.30  9.89  1.25
Si  8.14 -2.73 -5.23
Si  5.57 -4.23 -7.23
Si  1.75  9.01  4.16
Si  1.03 -1.09  9.98
Si  4.22  7.38  5.45
Si  9.04 -4.49  0.58
Si  3.39  7.96 -5.26
Si -8.06 -5.92 -1.66
Si -5.76 -4.23 -7.23
Si -8.86  4.94 -0.83
Si  2.20 -6.04  7.89
Si  0.15 -8.72 -5.26
Si -5.14 -8.43  2.54
Si -7.64 -0.25 -6.79
Si  3.24  0.62 -9.70
Si  0.81  9.11 -4.62
Si  4.13 -9.33  1.19
Si -7.61 -6.79  1.25
Si -4.09  6.70 -6.64
Si  7.41 -5.16  4.99
Si -8.73 -0.96  5.45
Si  7.69  5.82 -3.74
Si -6.93  1.64 -7.53
Si -1.44 -1.17 10.21
Si -1.27 -4.91 -9.09
Si  2.78 -6.70 -7.53
Si  7.37  7.35  1.19
Si -2.89 -6.70 -7.53
Si 10.26 -2.01 -0.97
Si -7.55 -0.29  7.31
Si -5.39 -4.65  7.75
Si -3.47 -6.04  7.89
Si  2.52 -9.47 -3.88
Si  1.05 -10.48  0.56
Si -7.24  5.61 -5.23
Si -0.35  8.09 -6.79
Si -1.65 -4.77  9.28
Si -7.49  7.08 -2.35
Si -2.02  6.49 -8.14
Si  9.80 -1.13 -3.88
Si -4.99  1.22  9.31
Si -0.99  6.50  8.36
Si -8.86 -2.73 -5.23
Si  1.43 -3.63  9.91
Si -6.49 -5.79 -6.18
Si -3.92  9.01  4.16
Si -0.54 -3.36 -10.14
Si -3.15 -9.47 -3.88
Si -10.08  1.67 -3.27
Si -2.70 -10.35 -0.97
Si  6.99  0.50 -8.17
Si  6.19 -8.43  2.54
Si -7.76 -3.90  6.37
Si -9.35  3.23 -4.33
Si  9.04  3.18  4.99
Si  2.97 -10.35 -0.97
Si  5.94 -4.65  7.75
Si  0.98 -9.30  5.45
Si  8.94 -5.92 -1.66
Si  8.48 -5.04 -4.56
Si -1.71  2.52 -10.44
Si -0.27  8.05  7.31
Si -4.37  9.89  1.25
Si  5.17 -0.77 -9.55
Si  6.92  8.23 -1.72
Si -8.51 -5.04 -4.56
Si  4.50  9.81  1.49
Si -2.79 10.01 -3.27
Si -1.61 10.69 -1.42
Si  2.87 10.01 -3.27
Si -9.56 -0.38 -5.26
Si  0.85 10.77 -1.66
Si  7.82  6.47  4.10
Si 10.56  2.42 -1.66
Si -1.39  1.42 10.80
Si  2.20  8.13  7.07
Si  7.19  4.11 -7.23
Si  3.65  6.49 -8.14
Si -10.48 -3.40 -0.83
Si  1.92 -3.28 -10.38
Si -4.64 -1.09  9.98
Si -1.09 -10.21  4.10
Si -5.31  3.43 -9.09
Si 10.97 -0.11 -1.72
Si -10.03 -4.28  2.08
Si -5.07 -9.60 -2.35
Si  4.23 -1.17 10.21
Si  4.95  8.93  4.40
Si -7.51  2.30  7.89
Si -1.05 -8.55  7.07
Si  2.07 -8.60 -6.79
Si  4.02 -4.77  9.28
Si 11.01  1.55  1.25
Si  0.87  1.38 -11.07
Si  1.57 -0.97 -11.05
Si  4.39 -4.91 -9.09
Si 10.71 -2.89  1.94
Si  2.35  2.81 10.66
Si -7.34  4.18 -7.47
Si -2.61  4.71  9.91
Si -7.16 -7.67  4.16
Si -4.86  9.11 -4.62
Si -3.47  8.13  7.07
Si -0.30 -7.84 -8.17
Si  6.34  1.22  9.31
Si  7.69 -1.85 -8.14
Si 10.66  3.86  0.58
Si  1.08  4.99 -10.14
Si -11.24 -0.99  1.19
Si -4.23 -3.63  9.91
Si -7.06 -6.24  6.40
Si  3.06  4.71  9.91
Si -6.17 -0.77 -9.55
Si  6.02  3.43 -9.09
Si  5.64  3.57  9.28
Si  7.56  3.69  7.75
Si  3.95  2.52 -10.44
Si  9.49 -5.36  3.49
Si -5.69  3.57  9.28
Si -4.62 -10.48  0.56
Si -7.56  8.25  2.54
Si 10.21  4.73 -2.32
Si  2.15 -8.63  7.31
Si -3.75 -3.28 -10.38
Si -3.32  2.81 10.66
Si 10.52  0.77 -4.62
Si  4.05 10.69 -1.42
Si 11.41 -0.99  1.19
Si -3.60 -8.60 -6.79
Si -7.65 -8.45 -1.72
Si -1.22 -10.87 -3.74
Si  9.36 -0.25 -6.79
Si  7.37 -7.75  4.40
Si 10.11  3.30 -4.56
Si  4.67  6.50  8.36
Si -5.52 -8.72 -5.26
Si -9.31  5.82 -3.74
Si -7.11  7.38  5.45
Si -2.25 -11.23  1.94
Si  9.38 -6.79  1.25
Si -10.79 -1.87  4.10
Si  6.26 -9.60 -2.35
Si  4.27  1.42 10.80
Si  5.81 -8.72 -5.26
Si  8.04 -4.16 -7.47
Si -2.12  5.06 -10.38
Si  9.96  6.20  0.56
Si -0.94 -7.12  9.31
Si -4.69 -9.30  5.45
Si -2.17 -2.72 11.27
Si -0.77 -11.74 -0.83
Si  5.31  8.09 -6.79
Si -4.09 -0.97 -11.05
Si -11.70 -0.11 -1.72
Si -11.65  1.55  1.25
Si -10.93 -2.52 -3.74
Si -6.38  8.93  4.40
Si -3.51 -8.63  7.31
Si -10.33  5.45  1.94
Si  5.12 -3.36 -10.14
Si -7.20 -9.33  1.19
Si  9.23 -3.90  6.37
Si  7.24  6.70 -6.64
Si  3.42 -11.23  1.94
Si -8.28 -1.84  8.36
Si -4.82 10.77 -1.66
Si  4.58 -10.21  4.10
Si -9.88  4.57  4.84
Si  1.40 11.32  3.49
Si  9.44 -0.29  7.31
Si -9.17  6.47  4.10
Si  1.50 -11.36  3.46
Si -9.58 -5.16  4.99
Si -11.20  0.67  4.16
Si -8.10 -7.58 -4.62
Si  4.62 -8.55  7.07
Si 11.11  2.98  3.49
Si  0.72 -5.53 10.66
Si -6.83  9.81  1.49
Si  6.69 -1.09  9.98
Si  3.54  5.06 -10.38
Si  9.51  7.08 -2.35
Si  6.47  9.11 -4.62
Si  3.50 -2.72 11.27
Si -1.67 -9.99 -6.64
Si  5.40  8.05  7.31
Si -4.79  1.38 -11.07
Si -8.01  9.13 -0.36
Si -6.02  8.09 -6.79
Si  6.96  9.89  1.25
Si -9.62  7.35  1.19
Si  2.33 -5.82 -10.44
Si 10.41  5.32  3.46
Si -10.53 -5.99 -1.42
Si -4.59  4.99 -10.14
Si  8.27  5.59  7.01
Si 11.46  0.67  4.16
Si  8.72 -1.84  8.36
Si  1.30 -11.95 -2.32
Si  1.12  7.57 -9.55
Si  0.95 12.20  0.58
Si  1.13  0.34 12.21
Si  0.85 -11.07 -5.23
Si -10.07 -6.87  1.49
Si  4.44 -10.87 -3.74
Si -2.72  8.84 -8.17
Si -6.21 -3.36 -10.14
Si  1.85 10.44  6.40
Si -8.96 -4.16 -7.47
Si -5.93  8.05  7.31
Si  7.41  9.01  4.16
Si  2.94  8.84 -8.17
Si -3.34 -5.82 -10.44
Si -7.94  7.96 -5.26
Si  9.76  5.61 -5.23
Si -11.55  2.98  3.49
Si -6.93 -4.91 -9.09
Si -11.96 -2.89  1.94
Si -12.10  2.42 -1.66
Si  6.71 -10.48  0.56
Si -10.53  2.55 -6.18
Si  0.18  7.18 10.21
Si  0.43  2.69 12.19
Si -7.10 -1.17 10.21
Si  1.62 -7.72 -9.70
Si -0.95  0.11 -12.46
Si -9.31 -1.85 -8.14
Si -6.66  6.50  8.36
Si -8.72  5.59  7.01
Si  0.36  9.98 -7.53
Si  0.40 11.64 -4.56
Si -2.06 11.57 -4.33
Si  5.36 -7.84 -8.17
Si -10.78  6.33 -0.97
Si  9.49  2.30  7.89
Si  8.89 -7.58 -4.62
Si 11.73 -2.52 -3.74
Si -0.67 11.52  4.99
Si -4.17 -11.36  3.46
Si -4.26 11.32  3.49
Si -0.54  5.62 11.27
Si -12.40 -2.01 -0.97
Si  2.65  7.25  9.98
Si -12.00  3.86  0.58
Si -1.12 12.40  2.08
Si  4.72 -7.12  9.31
Si  3.99 -9.99 -6.64
Si -8.09  0.62 -9.70
Si  6.64 -9.30  5.45
Si  7.86 -6.04  7.89
Si 12.18 -3.40 -0.83
