500
set: 606.00  0.00  0.00
Si -1.57 -0.65 -0.69
Si  1.57  0.65  0.69
Si  0.03  1.84 -0.69
Si -0.03 -1.84  0.69
Si -0.17  0.02  2.27
Si  0.17 -0.02 -2.27
Si  2.20 -0.65 -0.69
Si -2.20  0.65  0.69
Si  0.60 -3.15 -0.69
Si -0.60  3.15  0.69
Si  1.43  2.52  2.27
Si -1.43 -2.52 -2.27
Si  1.76  2.48 -2.27
Si -1.76 -2.48  2.27
Si  2.00 -2.48  2.27
Si -2.00  2.48 -2.27
Si -0.80  1.33  3.66
Si  0.80 -1.33 -3.66
Si -1.37  1.17 -3.66
Si  1.37 -1.17  3.66
Si -2.33  2.52  2.27
Si  2.33 -2.52 -2.27
Si -3.73  1.84 -0.69
Si  3.73 -1.84  0.69
Si  3.59  0.02  2.27
Si -3.59 -0.02 -2.27
Si  3.79  1.84 -0.69
Si -3.79 -1.84  0.69
Si -3.16 -3.15 -0.69
Si  3.16  3.15  0.69
Si  2.40  1.17 -3.66
Si -2.40 -1.17  3.66
Si  3.93 -0.02 -2.27
Si -3.93  0.02  2.27
Si -1.63 -4.34  0.69
Si  1.63  4.34 -0.69
Si  2.13 -4.34  0.69
Si -2.13  4.34 -0.69
Si -2.96 -1.33 -3.66
Si  2.96  1.33  3.66
Si -0.23 -3.67  3.66
Si  0.23  3.67 -3.66
Si -0.80 -3.82 -3.66
Si  0.80  3.82  3.66
Si  5.33  0.65  0.69
Si -5.33 -0.65 -0.69
Si  4.36 -3.15 -0.69
Si -4.36  3.15  0.69
Si  1.23  0.69  5.24
Si -1.23 -0.69 -5.24
Si -0.40  4.97 -2.27
Si  0.40 -4.97  2.27
Si -0.37 -1.80  5.24
Si  0.37  1.80 -5.24
Si -0.73  5.02  2.27
Si  0.73 -5.02 -2.27
Si -1.00 -5.65 -0.69
Si  1.00  5.65  0.69
Si  2.53 -0.69 -5.24
Si -2.53  0.69  5.24
Si  4.56 -1.33 -3.66
Si -4.56  1.33  3.66
Si -5.96  0.65  0.69
Si  5.96 -0.65 -0.69
Si  2.96 -3.82 -3.66
Si -2.96  3.82  3.66
Si  5.19  2.52  2.27
Si -5.19 -2.52 -2.27
Si -0.94  3.19  5.24
Si  0.94 -3.19 -5.24
Si -3.53  3.67 -3.66
Si  3.53 -3.67  3.66
Si  3.03  5.02  2.27
Si -3.03 -5.02 -2.27
Si  2.76 -5.65 -0.69
Si -2.76  5.65  0.69
Si  5.13 -1.17  3.66
Si -5.13  1.17 -3.66
Si  3.36  4.97 -2.27
Si -3.36 -4.97  2.27
Si  5.53  2.48 -2.27
Si -5.53 -2.48  2.27
Si -3.40  1.80 -5.24
Si  3.40 -1.80  5.24
Si  3.99  3.67 -3.66
Si -3.99 -3.67  3.66
Si  5.76 -2.48  2.27
Si -5.76  2.48 -2.27
Si -1.00 -0.50  6.63
Si  1.00  0.50 -6.63
Si  2.83  3.19  5.24
Si -2.83 -3.19 -5.24
Si  4.16 -4.97  2.27
Si -4.16  4.97 -2.27
Si  0.54 -6.84  0.69
Si -0.54  6.84 -0.69
Si  4.13  1.80 -5.24
Si -4.13 -1.80  5.24
Si -0.60 -2.00 -6.63
Si  0.60  2.00  6.63
Si  5.39  4.34 -0.69
Si -5.39 -4.34  0.69
Si -6.09  2.52  2.27
Si  6.09 -2.52 -2.27
Si  4.56  3.82  3.66
Si -4.56 -3.82 -3.66
Si  1.80 -4.30  5.24
Si -1.80  4.30 -5.24
Si  1.97  4.30 -5.24
Si -1.97 -4.30  5.24
Si -4.50  5.02  2.27
Si  4.50 -5.02 -2.27
Si  2.76 -0.50  6.63
Si -2.76  0.50 -6.63
Si  6.16  1.17 -3.66
Si -6.16 -1.17  3.66
Si  4.99  0.69  5.24
Si -4.99 -0.69 -5.24
Si  5.89 -4.34  0.69
Si -5.89  4.34 -0.69
Si -1.17  3.00 -6.63
Si  1.17 -3.00  6.63
Si  1.83  6.17 -3.66
Si -1.83 -6.17  3.66
Si  4.76  5.65  0.69
Si -4.76 -5.65 -0.69
Si -1.93  6.17 -3.66
Si  1.93 -6.17  3.66
Si  1.36 -6.32 -3.66
Si -1.36  6.32  3.66
Si -3.23 -6.84  0.69
Si  3.23  6.84 -0.69
Si  3.16 -2.00 -6.63
Si -3.16  2.00  6.63
Si  6.93  3.15  0.69
Si -6.93 -3.15 -0.69
Si -2.40 -6.32 -3.66
Si  2.40  6.32  3.66
Si -7.36 -0.02 -2.27
Si  7.36  0.02  2.27
Si -2.60 -3.00  6.63
Si  2.60  3.00 -6.63
Si -4.70  3.19  5.24
Si  4.70 -3.19 -5.24
Si  7.49 -1.84  0.69
Si -7.49  1.84 -0.69
Si  0.66  5.69  5.24
Si -0.66 -5.69 -5.24
Si  6.73  1.33  3.66
Si -6.73 -1.33 -3.66
Si  7.56  1.84 -0.69
Si -7.56 -1.84  0.69
Si -0.86 -7.51 -2.27
Si  0.86  7.51  2.27
Si -1.20 -7.47  2.27
Si  1.20  7.47 -2.27
Si  7.69 -0.02 -2.27
Si -7.69  0.02  2.27
Si  4.30 -6.84  0.69
Si -4.30  6.84 -0.69
Si -1.56  4.50  6.63
Si  1.56 -4.50 -6.63
Si -4.76 -0.50  6.63
Si  4.76  0.50 -6.63
Si  4.36  2.00  6.63
Si -4.36 -2.00 -6.63
Si -2.56  7.47 -2.27
Si  2.56 -7.47  2.27
Si -6.29  0.69  5.24
Si  6.29 -0.69 -5.24
Si  1.17 -8.14 -0.69
Si -1.17  8.14  0.69
Si  2.20  4.50  6.63
Si -2.20 -4.50 -6.63
Si  3.10 -5.69 -5.24
Si -3.10  5.69  5.24
Si  1.03 -1.13  8.21
Si -1.03  1.13 -8.21
Si  2.90 -7.51 -2.27
Si -2.90  7.51  2.27
Si  1.13 -1.37 -8.21
Si -1.13  1.37  8.21
Si  6.72 -3.82 -3.66
Si -6.72  3.82  3.66
Si  2.60  8.14  0.69
Si -2.60 -8.14 -0.69
Si  0.20 -6.80  5.24
Si -0.20  6.80 -5.24
Si  0.43  5.49 -6.63
Si -0.43 -5.49  6.63
Si  6.53 -5.65 -0.69
Si -6.53  5.65  0.69
Si -2.73 -1.13  8.21
Si  2.73  1.13 -8.21
Si  2.63  1.37  8.21
Si -2.63 -1.37 -8.21
Si  8.12 -3.15 -0.69
Si -8.12  3.15  0.69
Si -6.79 -5.02 -2.27
Si  6.79  5.02  2.27
Si -5.56  4.30 -5.24
Si  5.56 -4.30  5.24
Si  4.93 -3.00  6.63
Si -4.93  3.00 -6.63
Si -5.73 -4.30  5.24
Si  5.73  4.30 -5.24
Si  4.42  5.69  5.24
Si -4.42 -5.69 -5.24
Si -5.13  6.32  3.66
Si  5.13 -6.32 -3.66
Si  7.29 -3.67  3.66
Si -7.29  3.67 -3.66
Si  7.12  4.97 -2.27
Si -7.12 -4.97  2.27
Si -0.57 -3.63  8.21
Si  0.57  3.63 -8.21
Si -6.59 -3.19 -5.24
Si  6.59  3.19  5.24
Si  7.16 -1.80  5.24
Si -7.16  1.80 -5.24
Si  0.46  3.87  8.21
Si -0.46 -3.87 -8.21
Si -5.59 -6.17  3.66
Si  5.59  6.17 -3.66
Si  4.62  7.51  2.27
Si -4.62 -7.51 -2.27
Si -9.09 -0.65 -0.69
Si  9.09  0.65  0.69
Si -5.70  6.17 -3.66
Si  5.70 -6.17  3.66
Si  8.32 -1.33 -3.66
Si -8.32  1.33  3.66
Si -3.33  5.49 -6.63
Si  3.33 -5.49  6.63
Si -4.96 -7.47  2.27
Si  4.96  7.47 -2.27
Si  3.56  6.80 -5.24
Si -3.56 -6.80  5.24
Si -6.53  0.50 -6.63
Si  6.53 -0.50  6.63
Si  7.75  3.67 -3.66
Si -7.75 -3.67  3.66
Si  0.34 -8.66  3.66
Si -0.34  8.66 -3.66
Si  1.06  9.34 -0.69
Si -1.06 -9.34  0.69
Si -3.96  6.80 -5.24
Si  3.96 -6.80  5.24
Si  3.19 -3.63  8.21
Si -3.19  3.63 -8.21
Si  4.93 -8.14 -0.69
Si -4.93  8.14  0.69
Si  0.23  8.82  3.66
Si -0.23 -8.82 -3.66
Si -6.16 -6.32 -3.66
Si  6.16  6.32  3.66
Si  4.79 -1.13  8.21
Si -4.79  1.13 -8.21
Si  4.19  5.49 -6.63
Si -4.19 -5.49  6.63
Si -8.95 -2.52 -2.27
Si  8.95  2.52  2.27
Si  0.40  0.18  9.59
Si -0.40 -0.18 -9.59
Si -5.33  4.50  6.63
Si  5.33 -4.50 -6.63
Si -7.92  4.97 -2.27
Si  7.92 -4.97  2.27
Si  0.03  7.00  6.63
Si -0.03 -7.00 -6.63
Si  7.89  1.80 -5.24
Si -7.89 -1.80  5.24
Si  3.30 -3.87 -8.21
Si -3.30  3.87  8.21
Si  4.90 -1.37 -8.21
Si -4.90  1.37  8.21
Si -6.36 -3.00  6.63
Si  6.36  3.00 -6.63
Si -8.89  1.17 -3.66
Si  8.89 -1.17  3.66
Si  2.70 -9.34  0.69
Si -2.70  9.34 -0.69
Si -9.72  0.65  0.69
Si  9.72 -0.65 -0.69
Si  6.92 -2.00 -6.63
Si -6.92  2.00  6.63
Si -6.99 -6.84  0.69
Si  6.99  6.84 -0.69
Si -1.50  8.19  5.24
Si  1.50 -8.19 -5.24
Si  8.32  3.82  3.66
Si -8.32 -3.82 -3.66
Si -9.29 -2.48  2.27
Si  9.29  2.48 -2.27
Si  8.26 -5.02 -2.27
Si -8.26  5.02  2.27
Si  1.20  2.32 -9.59
Si -1.20 -2.32  9.59
Si -4.33 -3.63  8.21
Si  4.33  3.63 -8.21
Si -2.26 -8.19 -5.24
Si  2.26  8.19  5.24
Si  5.96  4.50  6.63
Si -5.96 -4.50 -6.63
Si -3.43 -8.66  3.66
Si  3.43  8.66 -3.66
Si  4.23  3.87  8.21
Si -4.23 -3.87 -8.21
Si  6.33 -7.47  2.27
Si -6.33  7.47 -2.27
Si -9.52  2.48 -2.27
Si  9.52 -2.48  2.27
Si  1.76 -2.67 -9.59
Si -1.76  2.67  9.59
Si -9.15 -4.34  0.69
Si  9.15  4.34 -0.69
Si -2.00 -2.67 -9.59
Si  2.00  2.67  9.59
Si  3.36 -0.18 -9.59
Si -3.36  0.18  9.59
Si -3.53  8.82  3.66
Si  3.53 -8.82 -3.66
Si -2.56  2.32 -9.59
Si  2.56 -2.32  9.59
Si -8.75 -0.69 -5.24
Si  8.75  0.69  5.24
Si  8.52  5.65  0.69
Si -8.52 -5.65 -0.69
Si  4.10 -8.66  3.66
Si -4.10  8.66 -3.66
Si  0.97 -9.97  2.27
Si -0.97  9.97 -2.27
Si -6.66  7.51  2.27
Si  6.66 -7.51 -2.27
Si  3.73 -7.00 -6.63
Si -3.73  7.00  6.63
Si  6.86 -5.69 -5.24
Si -6.86  5.69  5.24
Si  1.30 -10.01 -2.27
Si -1.30 10.01  2.27
Si  3.99  8.82  3.66
Si -3.99 -8.82 -3.66
Si  3.79  7.00  6.63
Si -3.79 -7.00 -6.63
Si  6.36  8.14  0.69
Si -6.36 -8.14 -0.69
Si  1.60 -6.12  8.21
Si -1.60  6.12 -8.21
Si -9.86  2.52  2.27
Si  9.86 -2.52 -2.27
Si  8.46 -3.19 -5.24
Si -8.46  3.19  5.24
Si -4.16 -0.18 -9.59
Si  4.16  0.18  9.59
Si -2.16 -6.12  8.21
Si  2.16  6.12 -8.21
Si  6.39  1.37  8.21
Si -6.39 -1.37 -8.21
Si -1.73  7.99 -6.63
Si  1.73 -7.99  6.63
Si -1.70  6.36  8.21
Si  1.70 -6.36 -8.21
Si  6.49  1.13 -8.21
Si -6.49 -1.13  8.21
Si -4.82 -9.34  0.69
Si  4.82  9.34 -0.69
Si -2.46 -10.01 -2.27
Si  2.46 10.01  2.27
Si  2.03  7.99 -6.63
Si -2.03 -7.99  6.63
Si -2.06 -6.36 -8.21
Si  2.06  6.36  8.21
Si -8.06  6.84 -0.69
Si  8.06 -6.84  0.69
Si -2.80 -9.97  2.27
Si  2.80  9.97 -2.27
Si -9.66  4.34 -0.69
Si  9.66 -4.34  0.69
Si -9.92 -1.17  3.66
Si  9.92  1.17 -3.66
Si  8.12  2.00  6.63
Si -8.12 -2.00 -6.63
Si  0.43 10.64  0.69
Si -0.43 -10.64 -0.69
Si -1.40 -9.30  5.24
Si  1.40  9.30 -5.24
Si  0.97 -4.82  9.59
Si -0.97  4.82 -9.59
Si -8.52 -0.50  6.63
Si  8.52  0.50 -6.63
Si  0.17 -5.17 -9.59
Si -0.17  5.17  9.59
Si -2.36  9.30 -5.24
Si  2.36 -9.30  5.24
Si -4.96 -2.32  9.59
Si  4.96  2.32 -9.59
Si  5.26 -8.19 -5.24
Si -5.26  8.19  5.24
Si -2.79 -4.82  9.59
Si  2.79  4.82 -9.59
Si  7.09 -5.49  6.63
Si -7.09  5.49 -6.63
Si 10.69  3.15  0.69
Si -10.69 -3.15 -0.69
Si -3.33 10.64  0.69
Si  3.33 -10.64 -0.69
Si 10.49  1.33  3.66
Si -10.49 -1.33 -3.66
Si -8.19 -5.69 -5.24
Si  8.19  5.69  5.24
Si  1.33  0.46 -11.18
Si -1.33 -0.46 11.18
Si -4.73  9.97 -2.27
Si  4.73 -9.97  2.27
Si -7.33 -6.80  5.24
Si  7.33  6.80 -5.24
Si  8.69 -3.00  6.63
Si -8.69  3.00 -6.63
Si -11.12 -0.02 -2.27
Si 11.12  0.02  2.27
Si  6.96 -3.63  8.21
Si -6.96  3.63 -8.21
Si 10.06 -0.69 -5.24
Si -10.06  0.69  5.24
Si  0.26  2.04 11.18
Si -0.26 -2.04 -11.18
Si  6.46 -9.34  0.69
Si -6.46  9.34 -0.69
Si  5.53 -2.67 -9.59
Si -5.53  2.67  9.59
Si -11.26  1.84 -0.69
Si 11.26 -1.84  0.69
Si  6.02  8.19  5.24
Si -6.02 -8.19 -5.24
Si -2.43  0.46 -11.18
Si  2.43 -0.46 11.18
Si  5.06 -10.01 -2.27
Si -5.06 10.01  2.27
Si  4.19 10.64  0.69
Si -4.19 -10.64 -0.69
Si -3.60 -5.17 -9.59
Si  3.60  5.17  9.59
Si  8.39  7.51  2.27
Si -8.39 -7.51 -2.27
Si 11.32  1.84 -0.69
Si -11.32 -1.84  0.69
Si -7.06  3.87  8.21
Si  7.06 -3.87 -8.21
Si  5.76  2.67  9.59
Si -5.76 -2.67 -9.59
Si  8.89 -6.32 -3.66
Si -8.89  6.32  3.66
Si -9.32  4.30 -5.24
Si  9.32 -4.30  5.24
Si  7.72 -6.80  5.24
Si -7.72  6.80 -5.24
Si -5.36  6.12 -8.21
Si  5.36 -6.12  8.21
Si  3.93 -5.17 -9.59
Si -3.93  5.17  9.59
Si -0.83  2.95 -11.18
Si  0.83 -2.95 11.18
Si  9.49  4.30 -5.24
Si -9.49 -4.30  5.24
Si 11.45 -0.02 -2.27
Si -11.45  0.02  2.27
Si -1.63 -9.49 -6.63
Si  1.63  9.49  6.63
Si -8.72 -7.47  2.27
Si  8.72  7.47 -2.27
Si -7.96 -5.49  6.63
Si  7.96  5.49 -6.63
Si  6.33 -2.32  9.59
Si -6.33  2.32 -9.59
Si  4.73 -4.82  9.59
Si -4.73  4.82 -9.59
Si -5.46  6.36  8.21
Si  5.46 -6.36 -8.21
Si -5.50  7.99 -6.63
Si  5.50 -7.99  6.63
Si -10.49  3.82  3.66
Si 10.49 -3.82 -3.66
Si -10.29  5.65  0.69
Si 10.29 -5.65 -0.69
Si -2.13  9.49  6.63
Si  2.13 -9.49 -6.63
Si -9.35 -6.17  3.66
Si  9.35  6.17 -3.66
Si  1.26 11.16 -3.66
Si -1.26 -11.16  3.66
Si  5.93  6.12 -8.21
Si -5.93 -6.12  8.21
Si  7.19  8.66 -3.66
Si -7.19 -8.66  3.66
Si  5.16  9.30 -5.24
Si -5.16 -9.30  5.24
Si  9.46 -6.17  3.66
Si -9.46  6.17 -3.66
Si -5.79 -7.99  6.63
Si  5.79  7.99 -6.63
