500
set: 1572.00  0.00  0.00
Si -1.26  0.39 -0.27
Si  0.30 -1.22  0.49
Si  0.72  1.43 -1.44
Si  2.26 -0.77 -1.09
Si  1.56 -0.97  2.48
Si  2.59  1.82  0.23
Si -0.36  1.67  2.68
Si -0.63 -3.32  0.23
Si -2.99  1.82  0.23
Si -3.31 -0.77 -1.09
Si  2.39  1.23  2.45
Si  2.15  0.60 -3.05
Si -0.24 -2.35 -3.08
Si  0.14 -0.14  4.09
Si -3.18  1.23  2.45
Si  2.58 -1.90 -2.85
Si  0.22  3.24 -2.85
Si  4.31  0.39 -0.27
Si -2.06  3.92  0.49
Si -0.09  4.37 -1.09
Si -3.00 -1.90 -2.85
Si -3.42  0.60 -3.05
Si -0.82 -3.92  2.45
Si -2.50 -3.72 -1.44
Si -4.01 -0.97  2.48
Si  1.99 -3.47  2.68
Si  1.09 -4.76 -0.27
Si -2.60  2.79 -3.08
Si -0.79  4.17  2.48
Si  3.08 -3.72 -1.44
Si  2.98  2.79 -3.08
Si  0.89  0.35 -5.04
Si -4.85  1.43 -1.44
Si  1.68 -2.34  4.44
Si  3.52  3.92  0.49
Si -0.68  2.81  4.44
Si -5.27 -1.22  0.49
Si -1.07 -4.54 -3.05
Si -0.04 -1.75 -5.30
Si -3.58 -3.47  2.68
Si -1.85 -1.18  5.26
Si  1.96  5.53 -0.27
Si  4.94 -3.32  0.23
Si  5.88 -1.22  0.49
Si -0.95 -5.92 -1.09
Si  5.21  1.67  2.68
Si  2.00  0.26  5.76
Si -0.68  1.96 -5.80
Si -3.90 -2.34  4.44
Si -0.21  5.74 -3.05
Si -4.48 -4.76 -0.27
Si  3.73 -1.18  5.26
Si  5.33 -2.35 -3.08
Si -3.62  5.53 -0.27
Si  6.30  1.43 -1.44
Si  4.75 -3.92  2.45
Si -0.28 -2.79  6.02
Si  1.37  3.96  5.26
Si -5.94  1.67  2.68
Si -2.40  3.39 -5.30
Si -3.57  0.26  5.76
Si -1.65 -6.11  2.48
Si -5.44 -0.14  4.09
Si  4.78  4.17  2.48
Si  0.04  6.37  2.45
Si  1.68 -3.19 -5.80
Si -2.22  5.00  4.09
Si -6.84  0.39 -0.27
Si -5.35  3.24 -2.85
Si -4.69  0.35 -5.04
Si  2.66 -6.37  0.49
Si -1.63  6.57 -1.44
Si  0.23  6.97  0.23
Si -2.64  2.35  6.02
Si -5.81 -2.35 -3.08
Si -2.92 -6.37  0.49
Si  5.71 -0.14  4.09
Si -6.21 -3.32  0.23
Si  3.17  3.39 -5.30
Si  4.51 -4.54 -3.05
Si  5.48  4.37 -1.09
Si  2.93  2.35  6.02
Si  2.49 -5.28  4.09
Si  4.90  2.81  4.44
Si -2.73  0.80 -6.62
Si  5.80  3.24 -2.85
Si -5.67  4.37 -1.09
Si  2.85  0.80 -6.62
Si  3.35  5.00  4.09
Si -2.33 -4.80 -5.04
Si -3.08 -5.28  4.09
Si -1.91 -2.15 -6.97
Si  4.62 -5.92 -1.09
Si -1.47  5.49 -5.04
Si  7.14 -0.97  2.48
Si -0.64 -7.05 -2.85
Si -1.22 -4.88  5.76
Si  3.92 -6.11  2.48
Si  3.24 -4.80 -5.04
Si -3.90 -3.19 -5.80
Si  1.31  2.99 -6.97
Si  3.94  6.57 -1.44
Si -4.20  3.96  5.26
Si -2.72  6.82  2.68
Si  4.90  1.96 -5.80
Si  5.53 -1.75 -5.30
Si  2.86  6.82  2.68
Si -6.40 -3.92  2.45
Si -0.35  5.40  5.76
Si -5.62 -1.75 -5.30
Si -0.37 -4.35 -6.62
Si  7.84 -0.77 -1.09
Si -6.37  4.17  2.48
Si  3.66 -2.15 -6.97
Si -6.25  2.81  4.44
Si  1.81 -0.34  7.98
Si  6.67 -4.76 -0.27
Si  6.46  0.35 -5.04
Si  0.51 -6.32  5.26
Si -0.95  0.11  8.21
Si  7.72  0.60 -3.05
Si  8.16  1.82  0.23
Si  2.12 -7.50 -3.08
Si  7.97  1.23  2.45
Si  5.37  5.74 -3.05
Si  0.98 -2.54  8.01
Si  5.29 -2.79  6.02
Si  4.11  5.49 -5.04
Si  0.62  7.93 -3.08
Si -1.38  2.61  8.01
Si -7.63  3.92  0.49
Si -6.64 -4.54 -3.05
Si  1.73 -8.46  0.23
Si  0.35 -0.79 -8.61
Si -5.78  5.74 -3.05
Si -4.27  2.99 -6.97
Si  4.36 -4.88  5.76
Si -2.41 -0.34 -8.38
Si  7.57 -3.47  2.68
Si -6.25  1.96 -5.80
Si -8.56  1.82  0.23
Si -5.34  6.97  0.23
Si -5.54  6.37  2.45
Si -3.46 -7.50 -3.08
Si  7.25 -2.34  4.44
Si -3.77 -0.34  7.98
Si -1.54 -7.48  4.44
Si  5.61  6.37  2.45
Si  8.15 -1.90 -2.85
Si -5.86 -2.79  6.02
Si -6.53 -5.92 -1.09
Si  0.49  5.94 -6.62
Si  3.16 -0.34 -8.38
Si -0.14 -8.86 -1.44
Si -8.88 -0.77 -1.09
Si  2.31 -6.89 -5.30
Si -8.07 -3.72 -1.44
Si  4.93 -7.05 -2.85
Si  5.81  6.97  0.23
Si -0.48 -2.98 -8.58
Si -1.23 -8.61  2.68
Si -2.13  8.38 -2.85
Si  1.16  9.06  0.49
Si -8.17  2.79 -3.08
Si -7.42 -1.18  5.26
Si -8.76  1.23  2.45
Si -8.57 -1.90 -2.85
Si  2.74  2.17 -8.58
Si -3.26 -6.89 -5.30
Si -2.84  2.17 -8.58
Si -3.85 -8.46  0.23
Si -0.55  4.80  7.98
Si  7.53  5.53 -0.27
Si  4.20  2.61  8.01
Si  4.63  0.11  8.21
Si  2.54  7.95  4.44
Si  5.22  5.40  5.76
Si  5.21 -4.35 -6.62
Si  3.44  8.38 -2.85
Si  8.55  2.79 -3.08
Si  1.53 -9.06  2.45
Si  2.54  7.10 -5.80
Si -9.00  0.60 -3.05
Si  7.58  0.26  5.76
Si  8.65 -3.72 -1.44
Si  6.95  3.96  5.26
Si -4.60 -2.54  8.01
Si  4.04 -7.48  4.44
Si -3.03  7.95  4.44
Si  0.58  7.50  6.02
Si -3.03  7.10 -5.80
Si -5.07 -6.32  5.26
Si  0.81  4.81 -8.38
Si  1.41 -5.04  8.21
Si -0.45 -1.71  9.62
Si -7.23 -6.11  2.48
Si -1.41 -5.49  7.98
Si -6.21 -7.05 -2.85
Si  7.25 -3.19 -5.80
Si -4.95  7.93 -3.08
Si -2.01  4.36 -8.61
Si -7.21  6.57 -1.44
Si -5.93  5.40  5.76
Si -2.45  9.52 -1.09
Si  9.89  0.39 -0.27
Si -5.94 -4.35 -6.62
Si  9.09  3.92  0.49
Si  2.43  9.32  2.48
Si -9.59 -0.97  2.48
Si  2.27  5.25  8.21
Si -0.06 -5.48 -8.38
Si  4.35 -8.61  2.68
Si  3.13  9.52 -1.09
Si  0.82  8.54 -5.30
Si -4.41  9.06  0.49
Si  0.45 -7.29 -6.97
Si -5.23 -0.79 -8.61
Si -1.26  1.24  9.97
Si -7.79  5.00  4.09
Si -2.12 -9.90 -0.27
Si -3.15  9.32  2.48
Si -9.16 -3.47  2.68
Si -7.98  3.39 -5.30
Si -6.79 -4.88  5.76
Si  2.07 -7.93  6.02
Si -4.04 -9.06  2.45
Si  6.08 -6.32  5.26
Si  1.29 -9.69 -3.05
Si  6.88  2.99 -6.97
Si -5.08  5.94 -6.62
Si -7.04  5.49 -5.04
Si -1.54 -8.33 -5.80
Si  3.56  4.36 -8.61
Si -3.31  5.25  8.21
Si  5.09 -2.98 -8.58
Si  8.23 -6.37  0.49
Si -7.49 -2.15 -6.97
Si -8.22  2.35  6.02
Si  8.07 -5.28  4.09
Si  5.92 -0.79 -8.61
Si  3.45 -9.90 -0.27
Si -6.52  0.11  8.21
Si  5.43 -8.86 -1.44
Si -4.17 -5.04  8.21
Si  6.20  7.93 -3.08
Si -7.91 -4.80 -5.04
Si  4.16 -5.49  7.98
Si -3.50 -7.93  6.02
Si -0.98  9.11  5.26
Si  5.03  4.80  7.98
Si  2.77  3.44  9.62
Si -2.81  3.44  9.62
Si -10.43  1.43 -1.44
Si -8.49 -6.37  0.49
Si -5.71 -8.86 -1.44
Si -8.30  0.80 -6.62
Si  6.55 -2.54  8.01
Si  8.51  2.35  6.02
Si -0.40 10.67 -0.27
Si -9.47 -2.34  4.44
Si -9.19  5.53 -0.27
Si  8.43  0.80 -6.62
Si  9.30 -1.18  5.26
Si  1.09 -3.91  9.97
Si -1.05  8.14 -6.97
Si  6.07  5.94 -6.62
Si -4.77  4.81 -8.38
Si  8.75  3.39 -5.30
Si  2.70 -5.93 -8.61
Si -9.15  0.26  5.76
Si -5.00  7.50  6.02
Si -2.87 -5.93 -8.61
Si  0.54 -0.18 -10.83
Si  1.47  1.91 -10.57
Si  7.38 -0.34  7.98
Si -6.06 -2.98 -8.58
Si -6.95  2.61  8.01
Si  4.04 -8.33 -5.80
Si -10.85 -1.22  0.49
Si  4.31  1.24  9.97
Si -8.66 -5.28  4.09
Si  1.00 10.15  4.09
Si  8.93  5.00  4.09
Si -4.29 -9.69 -3.05
Si 10.52 -3.32  0.23
Si  5.13 -1.71  9.62
Si -8.29  6.82  2.68
Si  0.79  2.40 10.79
Si -4.76  8.54 -5.30
Si -10.05 -4.76 -0.27
Si -6.12  4.80  7.98
Si  0.02 -9.94 -5.04
Si  8.43  6.82  2.68
Si  7.69 -7.50 -3.08
Si  7.30 -8.46  0.23
Si -1.75 -3.23 -10.57
Si  1.40 -11.06 -1.09
Si -0.73 -10.43  4.09
Si  8.82 -4.80 -5.04
Si -7.12 -7.48  4.44
Si 10.79  1.67  2.68
Si  0.38  7.31 -8.58
Si -6.80 -8.61  2.68
Si  1.84  7.75  8.01
Si  6.74  9.06  0.49
Si 10.32 -3.92  2.45
Si -5.13 -7.29 -6.97
Si -2.24 -7.68  8.01
Si -2.43 -2.75 10.79
Si  6.15  7.50  6.02
Si  5.52 -5.48 -8.38
Si 10.36  4.17  2.48
Si -10.26  0.35 -5.04
Si  1.42 -1.31 11.29
Si 10.08 -4.54 -3.05
Si  4.59  9.11  5.26
Si -6.02 -1.71  9.62
Si -5.63 -5.48 -8.38
Si -4.10  1.91 -10.57
Si 11.45 -1.22  0.49
Si -0.56 -11.51  0.49
Si  0.70 -11.26  2.48
Si -9.47 -3.19 -5.80
Si  9.49 -6.11  2.48
Si  3.14 -2.75 10.79
Si 10.91 -2.35 -3.08
Si  6.38  4.81 -8.38
Si -7.99 -0.34 -8.38
Si  3.33 -7.68  8.01
Si -2.56 10.89 -3.05
Si -4.48 -3.91  9.97
Si  1.14 -10.03  5.76
Si  4.53  8.14 -6.97
Si  9.52  6.57 -1.44
Si  2.27 -1.62 -11.33
Si  3.83 -3.23 -10.57
Si  3.01 10.89 -3.05
Si 10.47  2.81  4.44
Si  7.88 -6.89 -5.30
Si -7.71  8.38 -2.85
Si  1.99 -9.49 -6.62
Si  6.02 -7.29 -6.97
Si -10.93  3.24 -2.85
Si -11.01 -0.14  4.09
Si -3.73  7.75  8.01
Si  9.24 -2.15 -6.97
Si  7.11 -9.06  2.45
Si -9.78  3.96  5.26
Si  2.35  0.79 11.55
Si 10.20 -5.92 -1.09
Si -4.58 10.15  4.09
Si  5.18 10.67 -0.27
Si -0.09  3.52 -11.33
Si -4.17 -11.06 -1.09
Si  1.75 10.63 -5.04
Si  6.98 -5.04  8.21
Si  6.39  8.54 -5.30
Si  1.58 11.71 -1.44
Si -3.31 -1.62 -11.33
Si -11.51  1.67  2.68
Si -6.99 -5.49  7.98
Si 11.06  4.37 -1.09
Si -5.04 -0.18 -10.83
Si  1.87 -8.12 -8.58
Si -0.94  3.83 11.29
Si  1.91 -6.85  9.62
Si -2.32 11.51  2.45
Si  1.96  6.38  9.97
Si 11.29 -0.14  4.09
Si -3.23  0.79 11.55
Si -11.39 -2.35 -3.08
Si 11.87  1.43 -1.44
Si -4.79  2.40 10.79
Si -1.82  4.96 -10.83
Si -4.16 -1.31 11.29
Si -11.24  4.37 -1.09
Si  8.74 -0.34 -8.38
Si -3.59 -9.49 -6.62
Si 10.47  1.96 -5.80
Si -9.03 -7.50 -3.08
Si  8.31  2.17 -8.58
Si -6.84  1.24  9.97
Si 11.37  3.24 -2.85
Si  8.12  7.95  4.44
Si  4.85 -10.43  4.09
Si -8.41  2.17 -8.58
Si  3.26 11.51  2.45
Si  9.68  5.49 -5.04
Si -5.97 10.67 -0.27
Si -11.78 -3.32  0.23
Si  8.12  7.10 -5.80
Si  6.86 -9.69 -3.05
Si  0.50 11.96  2.68
Si -7.58  4.36 -8.61
Si -9.34 -0.34  7.98
Si -2.12 12.11  0.23
Si -2.71 10.54  5.76
Si  2.87 10.54  5.76
Si -2.68 -5.33 -10.83
Si -3.67 -6.85  9.62
Si -3.83 10.63 -5.04
Si -0.87 -4.36 11.55
Si -3.62  6.38  9.97
Si -3.70 -8.12 -8.58
Si -4.43 -10.03  5.76
Si -6.56  9.11  5.26
Si -7.11 -8.33 -5.80
Si -8.84 -6.89 -5.30
Si  2.90 -5.33 -10.83
Si -5.20  7.31 -8.58
Si -12.41  0.39 -0.27
Si -9.84  2.99 -6.97
Si 11.10 -1.75 -5.30
Si  6.12 -0.18 -10.83
Si -5.55 -9.94 -5.04
Si -3.99 11.71 -1.44
Si  0.22 -2.78 -12.15
Si  5.60 -9.94 -5.04
Si  9.93 -4.88  5.76
Si  3.76  4.96 -10.83
Si -8.02  9.52 -1.09
Si -11.20 -1.75 -5.30
Si  7.84  5.25  8.21
Si -4.87 -11.26  2.48
Si -8.61  7.95  4.44
Si  8.00  9.32  2.48
Si -7.70 -9.90 -0.27
Si  7.65 -7.93  6.02
Si  5.01 -11.51  0.49
Si -2.14  2.36 -12.15
Si -8.61  7.10 -5.80
Si -1.32 -0.58 -12.50
Si -6.62  8.14 -6.97
Si  3.45 12.11  0.23
Si  6.67 -3.91  9.97
Si  1.72 -12.19 -2.85
Si  9.02  8.38 -2.85
Si -9.43 -8.46  0.23
Si 10.94  5.74 -3.05
Si 10.87 -2.79  6.02
Si -0.88  7.06 -10.57
Si  5.95  7.31 -8.58
Si  6.36  2.40 10.79
Si  6.57 10.15  4.09
Si  4.63  3.83 11.29
Si -11.97 -3.92  2.45
Si  7.05  1.91 -10.57
Si  3.44  2.36 -12.15
Si -6.30 -10.43  4.09
Si  1.21  9.50 -8.61
Si -11.94  4.17  2.48
Si  0.41  8.58  9.62
Si  9.77  2.61  8.01
Si -2.71 -11.47  5.26
Si  2.87 -11.47  5.26
Si -11.83  2.81  4.44
Si  8.70  9.52 -1.09
Si -10.92  6.97  0.23
Si  9.61 -7.48  4.44
Si 10.51 -7.05 -2.85
Si -0.01  5.93 11.55
Si 12.71 -0.97  2.48
Si -8.72  9.32  2.48
Si  2.67  9.95  7.98
Si -11.11  6.37  2.45
Si -1.86 11.08 -6.62
Si -6.14 -11.51  0.49
Si 12.04  0.35 -5.04
Si -1.10 -12.64 -3.08
Si  5.49  3.52 -11.33
Si -2.90  9.95  7.98
Si -11.36  5.74 -3.05
Si 10.20  0.11  8.21
Si -3.86 -12.19 -2.85
Si -1.55  9.95 -8.38
Si 11.19  6.37  2.45
Si  6.98 -11.06 -1.09
Si  6.28 -11.26  2.48
Si -1.80 -6.45 11.29
Si 12.24 -4.76 -0.27
Si -5.67  3.52 -11.33
Si -0.91 -12.04 -5.30
Si -8.88  5.25  8.21
Si -10.17 -2.54  8.01
Si  8.35  3.44  9.62
Si -1.81 -10.18  8.21
Si  4.70 -4.36 11.55
Si  4.25 -0.58 -12.50
Si -8.38  3.44  9.62
Si -11.44 -2.79  6.02
Si -0.95 -6.76 -11.33
Si -0.09 10.39  8.21
Si -1.57  7.54 10.79
Si -7.32 -3.23 -10.57
Si -5.08 11.96  2.68
Si  9.14  4.36 -8.61
Si -11.83  1.96 -5.80
Si  0.94 -10.63  7.98
Si  8.28 -5.93 -8.61
Si  6.99 -1.31 11.29
