500
set: 640.00  0.00  0.00
Si  0.45 -1.06  0.75
Si -0.45  1.06 -0.75
Si  1.20  1.07  0.75
Si -1.20 -1.07 -0.75
Si -1.02 -0.23  2.47
Si  1.02  0.23 -2.47
Si -2.41  1.07  0.75
Si  2.41 -1.07 -0.75
Si -0.27  1.90  2.47
Si  0.27 -1.90 -2.47
Si  0.30  3.19 -0.75
Si -0.30 -3.19  0.75
Si  3.16  1.06 -0.75
Si -3.16 -1.06  0.75
Si  2.59 -0.23  2.47
Si -2.59  0.23 -2.47
Si  1.66 -3.20 -0.75
Si -1.66  3.20  0.75
Si  1.95  3.20  0.75
Si -1.95 -3.20 -0.75
Si  1.77  2.36 -2.47
Si -1.77 -2.36  2.47
Si  1.84 -2.36  2.47
Si -1.84  2.36 -2.47
Si -0.64  0.21 -3.97
Si  0.64 -0.21  3.97
Si  4.06 -1.06  0.75
Si -4.06  1.06 -0.75
Si  3.35  1.90  2.47
Si -3.35 -1.90 -2.47
Si  0.11  2.34 -3.97
Si -0.11 -2.34  3.97
Si -1.39 -1.92 -3.97
Si  1.39  1.92  3.97
Si  3.31 -3.19  0.75
Si -3.31  3.19 -0.75
Si  0.49  4.03  2.47
Si -0.49 -4.03 -2.47
Si -2.22  1.92  3.97
Si  2.22 -1.92 -3.97
Si -2.97 -0.21  3.97
Si  2.97  0.21 -3.97
Si  3.87 -1.90 -2.47
Si -3.87  1.90  2.47
Si  4.81  1.07  0.75
Si -4.81 -1.07 -0.75
Si  3.91  3.19 -0.75
Si -3.91 -3.19  0.75
Si  1.09 -4.49  2.47
Si -1.09  4.49 -2.47
Si -4.62 -0.23  2.47
Si  4.62  0.23 -2.47
Si -0.91  5.33  0.75
Si  0.91 -5.33 -0.75
Si  1.05  5.32 -0.75
Si -1.05 -5.32  0.75
Si  3.12 -4.03 -2.47
Si -3.12  4.03  2.47
Si -2.52 -4.49  2.47
Si  2.52  4.49 -2.47
Si -0.83  0.61  5.68
Si  0.83 -0.61 -5.68
Si  3.50 -2.34  3.97
Si -3.50  2.34 -3.97
Si  4.25 -0.21  3.97
Si -4.25  0.21 -3.97
Si -1.47  4.05  3.97
Si  1.47 -4.05 -3.97
Si  3.72  2.34 -3.97
Si -3.72 -2.34  3.97
Si -2.56  5.32 -0.75
Si  2.56 -5.32  0.75
Si -2.71 -5.33 -0.75
Si  2.71  5.33  0.75
Si -0.86 -4.47  3.97
Si  0.86  4.47 -3.97
Si -2.14 -4.05 -3.97
Si  2.14  4.05  3.97
Si  1.58  1.52 -5.68
Si -1.58 -1.52  5.68
Si -6.02  1.07  0.75
Si  6.02 -1.07 -0.75
Si  5.26 -3.20 -0.75
Si -5.26  3.20  0.75
Si  2.03 -1.52  5.68
Si -2.03  1.52 -5.68
Si -4.10 -4.03 -2.47
Si  4.10  4.03  2.47
Si -0.08  2.74  5.68
Si  0.08 -2.74 -5.68
Si -2.78 -0.61 -5.68
Si  2.78  0.61  5.68
Si  5.38  2.36 -2.47
Si -5.38 -2.36  2.47
Si -5.45  2.36 -2.47
Si  5.45 -2.36  2.47
Si  5.56  3.20  0.75
Si -5.56 -3.20 -0.75
Si  2.75 -4.47  3.97
Si -2.75  4.47 -3.97
Si -5.00 -1.92 -3.97
Si  5.00  1.92  3.97
Si  6.20 -0.23  2.47
Si -6.20  0.23 -2.47
Si  1.24  6.16  2.47
Si -1.24 -6.16 -2.47
Si -1.28  3.65 -5.68
Si  1.28 -3.65  5.68
Si -6.77 -1.06  0.75
Si  6.77  1.06 -0.75
Si -4.70  4.49 -2.47
Si  4.70 -4.49  2.47
Si  4.51 -5.33 -0.75
Si -4.51  5.33  0.75
Si  2.37 -6.16 -2.47
Si -2.37  6.16  2.47
Si  0.34 -6.62  2.47
Si -0.34  6.62 -2.47
Si  4.66  5.32 -0.75
Si -4.66 -5.32  0.75
Si  2.33  3.65 -5.68
Si -2.33 -3.65  5.68
Si -3.53 -2.74 -5.68
Si  3.53  2.74  5.68
Si  4.44 -0.61 -5.68
Si -4.44  0.61  5.68
Si -0.82 -0.63 -7.19
Si  0.82  0.63  7.19
Si -3.69  2.74  5.68
Si  3.69 -2.74 -5.68
Si -5.83  1.92  3.97
Si  5.83 -1.92 -3.97
Si -0.07  1.50 -7.19
Si  0.07 -1.50  7.19
Si  0.72 -6.18 -3.97
Si -0.72  6.18  3.97
Si -4.47 -4.47  3.97
Si  4.47  4.47 -3.97
Si -0.15  7.46  0.75
Si  0.15 -7.46 -0.75
Si -0.67 -4.87 -5.68
Si  0.67  4.87  5.68
Si  5.08 -4.05 -3.97
Si -5.08  4.05  3.97
Si -6.95 -1.90 -2.47
Si  6.95  1.90  2.47
Si  6.92 -3.19  0.75
Si -6.92  3.19 -0.75
Si  6.58  0.21 -3.97
Si -6.58 -0.21  3.97
Si -1.80 -7.45  0.75
Si  1.80  7.45 -0.75
Si -1.81  7.45 -0.75
Si  1.81 -7.45  0.75
Si -2.79  0.63  7.19
Si  2.79 -0.63 -7.19
Si  7.67 -1.06  0.75
Si -7.67  1.06 -0.75
Si  3.27  6.62 -2.47
Si -3.27 -6.62  2.47
Si -5.19 -1.52  5.68
Si  5.19  1.52 -5.68
Si -1.58 -2.76 -7.19
Si  1.58  2.76  7.19
Si  1.62  6.60 -3.97
Si -1.62 -6.60  3.97
Si  2.89  6.18  3.97
Si -2.89 -6.18 -3.97
Si  1.99 -6.60  3.97
Si -1.99  6.60 -3.97
Si  2.03 -2.76 -7.19
Si -2.03  2.76  7.19
Si -6.13 -4.49  2.47
Si  6.13  4.49 -2.47
Si  2.94 -4.87 -5.68
Si -2.94  4.87  5.68
Si -5.75 -4.05 -3.97
Si  5.75  4.05  3.97
Si  0.68  3.63 -7.19
Si -0.68 -3.63  7.19
Si -3.95  6.62 -2.47
Si  3.95 -6.62  2.47
Si  7.48 -1.90 -2.47
Si -7.48  1.90  2.47
Si  0.53 -5.78  5.68
Si -0.53  5.78 -5.68
Si  5.64 -1.52  5.68
Si -5.64  1.52 -5.68
Si  3.54  1.50 -7.19
Si -3.54 -1.50  7.19
Si -6.17  5.32 -0.75
Si  6.17 -5.32  0.75
Si -7.52 -3.19  0.75
Si  7.52  3.19 -0.75
Si -4.85 -6.16 -2.47
Si  4.85  6.16  2.47
Si  3.68 -1.50  7.19
Si -3.68  1.50 -7.19
Si  6.73 -4.03 -2.47
Si -6.73  4.03  2.47
Si -3.46 -7.46 -0.75
Si  3.46  7.46  0.75
Si -6.31 -5.33 -0.75
Si  6.31  5.33  0.75
Si  4.89 -3.65  5.68
Si -4.89  3.65 -5.68
Si  3.76 -7.46 -0.75
Si -3.76  7.46  0.75
Si -7.11  2.34 -3.97
Si  7.11 -2.34  3.97
Si -4.43 -0.63 -7.19
Si  4.43  0.63  7.19
Si -8.42 -1.07 -0.75
Si  8.42  1.07  0.75
Si -4.33  6.18  3.97
Si  4.33 -6.18 -3.97
Si  2.93 -3.63  7.19
Si -2.93  3.63 -7.19
Si  6.39  0.61  5.68
Si -6.39 -0.61 -5.68
Si  8.23  0.23 -2.47
Si -8.23 -0.23  2.47
Si  4.28  4.87  5.68
Si -4.28 -4.87 -5.68
Si  7.33  2.34 -3.97
Si -7.33 -2.34  3.97
Si -3.08 -5.78  5.68
Si  3.08  5.78 -5.68
Si  6.35 -4.47  3.97
Si -6.35  4.47 -3.97
Si  1.28 -4.89 -7.19
Si -1.28  4.89  7.19
Si  1.62 -8.29 -2.47
Si -1.62  8.29  2.47
Si  7.86 -0.21  3.97
Si -7.86  0.21 -3.97
Si -1.99 -8.29 -2.47
Si  1.99  8.29  2.47
Si  5.98 -6.16 -2.47
Si -5.98  6.16  2.47
Si  5.94  3.65 -5.68
Si -5.94 -3.65  5.68
Si  2.33  4.89  7.19
Si -2.33 -4.89 -7.19
Si  7.71  4.03  2.47
Si -7.71 -4.03 -2.47
Si -1.39 -0.68  8.90
Si  1.39  0.68 -8.90
Si  0.64 -1.46 -8.90
Si -0.64  1.46  8.90
Si  4.14 -5.78  5.68
Si -4.14  5.78 -5.68
Si  0.41  8.75 -2.47
Si -0.41 -8.75  2.47
Si  4.29  3.63 -7.19
Si -4.29 -3.63  7.19
Si  1.43  7.00  5.68
Si -1.43 -7.00 -5.68
Si  2.22 -0.68  8.90
Si -2.22  0.68 -8.90
Si  0.03  8.31  3.97
Si -0.03 -8.31 -3.97
Si  5.41  7.45 -0.75
Si -5.41 -7.45  0.75
Si -5.42  7.45 -0.75
Si  5.42 -7.45  0.75
Si  2.19 -7.00 -5.68
Si -2.19  7.00  5.68
Si -5.18 -2.76 -7.19
Si  5.18  2.76  7.19
Si  5.22  6.60 -3.97
Si -5.22 -6.60  3.97
Si  1.43  5.76 -7.19
Si -1.43 -5.76  7.19
Si -1.47  2.81 -8.90
Si  1.47 -2.81  8.90
Si  8.87 -3.20 -0.75
Si -8.87  3.20  0.75
Si  2.18 -5.76  7.19
Si -2.18  5.76 -7.19
Si -2.97 -1.46 -8.90
Si  2.97  1.46  8.90
Si  5.60 -6.60  3.97
Si -5.60  6.60 -3.97
Si -7.14 -2.74 -5.68
Si  7.14  2.74  5.68
Si  5.64 -2.76 -7.19
Si -5.64  2.76  7.19
Si -2.15 -2.81  8.90
Si  2.15  2.81 -8.90
Si  0.11  3.58  8.90
Si -0.11 -3.58 -8.90
Si  8.98  2.36 -2.47
Si -8.98 -2.36  2.47
Si -3.20  8.75 -2.47
Si  3.20 -8.75  2.47
Si -0.60 -9.59 -0.75
Si  0.60  9.59  0.75
Si -6.39  0.63  7.19
Si  6.39 -0.63 -7.19
Si  7.30 -2.74 -5.68
Si -7.30  2.74  5.68
Si  1.06 -9.58  0.75
Si -1.06  9.58 -0.75
Si  8.61  1.92  3.97
Si -8.61 -1.92 -3.97
Si  1.24 -8.73  3.97
Si -1.24  8.73 -3.97
Si -9.06  2.36 -2.47
Si  9.06 -2.36  2.47
Si -9.63  1.07  0.75
Si  9.63 -1.07 -0.75
Si  0.22  7.91 -5.68
Si -0.22 -7.91  5.68
Si  9.17  3.20  0.75
Si -9.17 -3.20 -0.75
Si  8.12 -5.33 -0.75
Si -8.12  5.33  0.75
Si  8.31 -4.49  2.47
Si -8.31  4.49 -2.47
Si  6.50  6.18  3.97
Si -6.50 -6.18 -3.97
Si  8.27  5.32 -0.75
Si -8.27 -5.32  0.75
Si -6.88 -6.62  2.47
Si  6.88  6.62 -2.47
Si  8.05 -0.61 -5.68
Si -8.05  0.61  5.68
Si -3.58  8.31  3.97
Si  3.58 -8.31 -3.97
Si -2.37 -8.73  3.97
Si  2.37  8.73 -3.97
Si  3.64  8.31  3.97
Si -3.64 -8.31 -3.97
Si  2.55  9.58 -0.75
Si -2.55 -9.58  0.75
Si -4.02 -8.75  2.47
Si  4.02  8.75 -2.47
Si  6.54 -4.87 -5.68
Si -6.54  4.87  5.68
Si  4.25 -1.46 -8.90
Si -4.25  1.46  8.90
Si -4.89  4.89  7.19
Si  4.89 -4.89 -7.19
Si -8.08 -4.47  3.97
Si  8.08  4.47 -3.97
Si -0.53  7.02  7.19
Si  0.53 -7.02 -7.19
Si -3.01  9.59  0.75
Si  3.01 -9.59 -0.75
Si -5.23  8.29  2.47
Si  5.23 -8.29 -2.47
Si  9.81 -0.23  2.47
Si -9.81  0.23 -2.47
Si  0.71 -4.93  8.90
Si -0.71  4.93 -8.90
Si -3.50  3.58  8.90
Si  3.50 -3.58 -8.90
Si  5.00  0.68 -8.90
Si -5.00 -0.68  8.90
Si  7.14  1.50 -7.19
Si -7.14 -1.50  7.19
Si  3.72  3.58  8.90
Si -3.72 -3.58 -8.90
Si -5.60 -8.29 -2.47
Si  5.60  8.29  2.47
Si  7.07  7.46  0.75
Si -7.07 -7.46 -0.75
Si  3.38 -7.91  5.68
Si -3.38  7.91 -5.68
Si  5.03  7.00  5.68
Si -5.03 -7.00 -5.68
Si  7.56 -6.62  2.47
Si -7.56  6.62 -2.47
Si -7.29  1.50 -7.19
Si  7.29 -1.50  7.19
Si  8.69 -4.05 -3.97
Si -8.69  4.05  3.97
Si -6.54  3.63 -7.19
Si  6.54 -3.63  7.19
Si -9.44  1.92  3.97
Si  9.44 -1.92 -3.97
Si  0.26 -0.66 10.41
Si -0.26  0.66 -10.41
Si 10.38  1.06 -0.75
Si -10.38 -1.06  0.75
Si -3.83 -7.91  5.68
Si  3.83  7.91 -5.68
Si  5.04  5.76 -7.19
Si -5.04 -5.76  7.19
Si  4.21  9.59  0.75
Si -4.21 -9.59 -0.75
Si  3.08  7.02  7.19
Si -3.08 -7.02 -7.19
Si  6.69  5.78 -5.68
Si -6.69 -5.78  5.68
Si  7.37 -7.46 -0.75
Si -7.37  7.46  0.75
Si  5.94  4.89  7.19
Si -5.94 -4.89 -7.19
Si  1.01  1.47 10.41
Si -1.01 -1.47 -10.41
Si -2.90 -4.93  8.90
Si  2.90  4.93 -8.90
Si  8.80  1.52 -5.68
Si -8.80 -1.52  5.68
Si -0.86 -5.71 -8.90
Si  0.86  5.71  8.90
Si  5.07 -2.81  8.90
Si -5.07  2.81 -8.90
Si  5.83 -0.68  8.90
Si -5.83  0.68 -8.90
Si  4.67 -9.58  0.75
Si -4.67  9.58 -0.75
Si -5.79  7.00  5.68
Si  5.79 -7.00 -5.68
Si -0.87 10.42  2.47
Si  0.87 -10.42 -2.47
Si -8.46 -6.16 -2.47
Si  8.46  6.16  2.47
Si -4.85  8.73 -3.97
Si  4.85 -8.73  3.97
Si  1.43 -7.89  7.19
Si -1.43  7.89 -7.19
Si -0.49 -2.79 10.41
Si  0.49  2.79 -10.41
Si  8.04  0.63  7.19
Si -8.04 -0.63 -7.19
Si  7.94 -6.18 -3.97
Si -7.94  6.18  3.97
Si -2.60  1.47 10.41
Si  2.60 -1.47 -10.41
Si -1.43  9.13  5.68
Si  1.43 -9.13 -5.68
Si  8.50 -3.65  5.68
Si -8.50  3.65 -5.68
Si  4.14 -7.02 -7.19
Si -4.14  7.02  7.19
Si  7.89  4.87  5.68
Si -7.89 -4.87 -5.68
Si  5.79 -5.76  7.19
Si -5.79  5.76 -7.19
Si -2.18 -7.89  7.19
Si  2.18  7.89 -7.19
Si  2.75 -5.71 -8.90
Si -2.75  5.71  8.90
Si -10.19 -0.21  3.97
Si 10.19  0.21 -3.97
Si -9.36 -4.05 -3.97
Si  9.36  4.05  3.97
Si -3.35 -0.66 10.41
Si  3.35  0.66 -10.41
Si  9.25 -1.52  5.68
Si -9.25  1.52 -5.68
Si  5.75  2.81 -8.90
Si -5.75 -2.81  8.90
Si  2.18  9.13  5.68
Si -2.18 -9.13 -5.68
Si  9.74  4.49 -2.47
Si -9.74 -4.49  2.47
Si -10.56 -1.90 -2.47
Si 10.56  1.90  2.47
Si 10.53 -3.19  0.75
Si -10.53  3.19 -0.75
Si  2.74 10.42  2.47
Si -2.74 -10.42 -2.47
Si  4.32 -4.93  8.90
Si -4.32  4.93 -8.90
Si  3.87 -0.66 10.41
Si -3.87  0.66 -10.41
Si -9.78  5.32 -0.75
Si  9.78 -5.32  0.75
Si  1.76  3.60 10.41
Si -1.76 -3.60 -10.41
Si -6.58 -1.46 -8.90
Si  6.58  1.46  8.90
Si  1.85 -3.60 -10.41
Si -1.85  3.60 10.41
Si  0.78 10.44  3.97
Si -0.78 -10.44 -3.97
Si -7.75  5.78 -5.68
Si  7.75 -5.78  5.68
Si  1.16 10.88 -2.47
Si -1.16 -10.88  2.47
Si -3.12  2.79 -10.41
Si  3.12 -2.79 10.41
Si  7.90  3.63 -7.19
Si -7.90 -3.63  7.19
Si -9.92 -5.33 -0.75
Si  9.92  5.33  0.75
Si -5.98 -8.73  3.97
Si  5.98  8.73 -3.97
Si -11.28  1.06 -0.75
Si 11.28 -1.06  0.75
Si  6.81 -8.75  2.47
Si -6.81  8.75 -2.47
Si -0.04 -7.07  8.90
Si  0.04  7.07 -8.90
Si 10.34 -4.03 -2.47
Si -10.34  4.03  2.47
