500
set: 1220.00  0.00  0.00
Si -1.13  0.69  1.07
Si  0.23 -1.43  0.99
Si -1.17  0.51 -1.39
Si  1.41  0.42 -1.26
Si  1.49  0.77  1.08
Si  0.08 -1.59 -1.38
Si  0.07  2.77  1.01
Si  0.15  2.69 -1.30
Si -2.36 -1.49  1.26
Si -2.37 -1.64 -1.27
Si  2.52 -1.63  1.03
Si  2.60 -1.75 -1.35
Si -1.14  0.55  3.38
Si  1.29  0.33  3.43
Si  0.07 -1.69  3.37
Si -2.61  2.55 -1.14
Si -3.65  0.30 -1.16
Si  2.54  2.67 -1.15
Si -3.60  0.59  1.33
Si  1.31  0.40 -3.64
Si -1.12  0.62 -3.69
Si -2.54  2.71  1.22
Si -1.17 -3.54  1.26
Si  0.09 -1.62 -3.70
Si  2.54  2.88  1.26
Si  3.90  0.30 -1.16
Si -1.16 -3.75 -1.15
Si  1.31 -3.71  1.22
Si  3.95  0.59  1.33
Si  1.25 -3.87 -1.14
Si  0.11  2.54  3.43
Si  0.13  2.61 -3.63
Si -2.50 -1.53 -3.54
Si -2.51 -1.60  3.53
Si  2.69 -1.70  3.38
Si  2.70 -1.63 -3.69
Si -2.41  2.63 -3.39
Si -1.25  4.67 -1.35
Si  2.51  2.53  3.54
Si  2.53  2.60 -3.52
Si -1.33  4.79  1.03
Si -3.73  0.55 -3.43
Si -2.43  2.56  3.67
Si  1.33  4.78 -1.27
Si  3.83  0.55 -3.43
Si -3.63 -3.65  1.01
Si -3.75  0.48  3.64
Si  1.34  4.93  1.26
Si  1.44 -3.79 -3.39
Si  3.81  0.48  3.64
Si -3.55 -3.73 -1.30
Si -1.17 -3.82 -3.52
Si -1.19 -3.89  3.54
Si -5.04 -1.63  1.03
Si -4.95 -1.75 -1.35
Si  3.93 -3.65  1.01
Si  1.42 -3.86  3.67
Si  5.20 -1.49  1.26
Si  5.19 -1.64 -1.27
Si  4.01 -3.73 -1.30
Si  4.95  2.55 -1.14
Si -5.01  2.67 -1.15
Si -1.19  0.44  5.67
Si  5.01  2.71  1.22
Si -1.17  4.72  3.38
Si  0.07 -1.66  5.68
Si -5.02  2.88  1.26
Si  1.39  0.36  5.80
Si  0.25 -5.83  1.33
Si  1.19  4.82  3.53
Si -1.12  0.76 -6.00
Si -1.15  4.79 -3.69
Si  1.21  4.89 -3.54
Si -4.87 -1.70  3.38
Si -2.22 -5.65  1.08
Si -6.07  0.77  1.08
Si  1.50  0.84 -5.99
Si  0.25 -1.36 -6.08
Si  0.20 -6.12 -1.16
Si -3.62  4.99  0.99
Si -3.77  4.83 -1.38
Si -6.15  0.42 -1.26
Si  3.79  4.83 -1.38
Si -3.59 -3.88  3.43
Si -4.85 -1.63 -3.69
Si  0.14  2.62  5.76
Si  5.04 -1.60  3.53
Si -3.57 -3.81 -3.63
Si  5.06 -1.53 -3.54
Si -2.34 -1.42 -5.80
Si  3.94  4.99  0.99
Si  2.72 -5.73  1.07
Si -2.39 -1.71  5.79
Si  3.96 -3.88  3.43
Si  2.59 -1.82  5.71
Si -2.30 -6.00 -1.26
Si  6.42  0.69  1.07
Si  6.38  0.51 -1.39
Si  3.98 -3.81 -3.63
Si  2.68 -5.91 -1.39
Si -5.04  2.53  3.54
Si -5.02  2.60 -3.52
Si  0.09  2.84 -6.05
Si  5.14  2.63 -3.39
Si  2.54 -1.56 -6.03
Si  0.12 -5.87 -3.43
Si -3.58  0.66 -5.74
Si  5.12  2.56  3.67
Si  0.05  6.72 -1.16
Si -1.15 -3.47 -5.80
Si  3.77  4.73  3.37
Si -3.78  4.73  3.37
Si -2.63  2.48  5.92
Si  2.52  2.60  5.92
Si -2.52  2.78 -5.84
Si -3.67  0.23  5.91
Si  0.10 -5.94  3.64
Si  2.56  2.95 -5.80
Si  3.97  0.66 -5.74
Si  1.33 -3.64 -5.84
Si  3.88  0.23  5.91
Si  0.10  7.01  1.33
Si -3.77  4.80 -3.70
Si -1.18 -3.82  5.92
Si  3.79  4.80 -3.70
Si -6.27  0.33  3.43
Si  1.23 -3.94  5.92
Si -6.25  0.40 -3.64
Si  6.42  0.55  3.38
Si  2.71 -5.87  3.38
Si -6.25 -3.71  1.22
Si -2.45  6.85 -1.26
Si -2.41 -6.09  3.43
Si  2.73 -5.80 -3.69
Si  6.39 -3.54  1.26
Si -2.40 -6.02 -3.64
Si -1.27  4.60  5.71
Si  6.44  0.62 -3.69
Si -6.31 -3.87 -1.14
Si  6.39 -3.75 -1.15
Si  2.53  6.93 -1.39
Si -7.32 -1.43  0.99
Si -4.84 -5.73  1.07
Si  1.32  4.71  5.79
Si  2.57  7.11  1.07
Si -2.37  7.19  1.08
Si -7.47 -1.59 -1.38
Si -0.03  6.97 -3.43
Si -3.57 -3.80  5.76
Si  1.36  5.00 -5.80
Si -4.97 -1.82  5.71
Si -4.88 -5.91 -1.39
Si -0.05  6.91  3.64
Si  5.34 -5.65  1.08
Si -1.31  4.86 -6.03
Si -3.61 -3.58 -6.05
Si  6.22  4.79  1.03
Si  7.64 -1.59 -1.38
Si  5.21 -1.42 -5.80
Si  5.17 -1.71  5.79
Si -6.22  4.78 -1.27
Si -6.11 -3.79 -3.39
Si  6.31  4.67 -1.35
Si  3.99 -3.80  5.76
Si -7.40  2.69 -1.30
Si  7.79 -1.43  0.99
Si -2.56  6.75  3.43
Si -5.02 -1.56 -6.03
Si -6.21  4.93  1.26
Si -7.48  2.77  1.01
Si  3.94 -3.58 -6.05
Si  5.26 -6.00 -1.26
Si  4.93  2.48  5.92
Si -6.13 -3.86  3.67
Si  0.27 -5.76 -5.74
Si -2.55  6.83 -3.64
Si  1.49 -7.91  1.26
Si  2.56  6.97  3.38
Si  7.63  2.77  1.01
Si -5.03  2.60  5.92
Si  0.21 -1.50  8.05
Si  5.03  2.78 -5.84
Si -1.18 -8.05  1.03
Si -5.00  2.95 -5.80
Si  6.38 -3.82 -3.52
Si -1.15  0.62  8.13
Si  6.37 -3.89  3.54
Si  7.71  2.69 -1.30
Si  1.49 -8.06 -1.27
Si  1.47  0.70  8.14
Si  3.77  4.77  5.68
Si -4.84 -5.87  3.38
Si -3.79  4.77  5.68
Si  2.58  7.04 -3.69
Si -1.10 -8.18 -1.35
Si -7.49 -1.69  3.37
Si -4.82 -5.80 -3.69
Si  1.42  0.49 -8.33
Si -6.17  0.36  5.80
Si -2.20 -5.58 -5.99
Si -7.47 -1.62 -3.70
Si  7.62 -1.69  3.37
Si  0.06  2.70  8.08
Si  6.36  0.44  5.67
Si -6.05  0.84 -5.99
Si -1.16  0.58 -8.46
Si  0.18 -6.19  5.91
Si -7.44  2.54  3.43
Si  0.10 -1.52 -8.45
Si  6.39  4.72  3.38
Si  5.11  6.85 -1.26
Si  2.50 -1.70  8.10
Si  7.64 -1.62 -3.70
Si -3.47 -7.86  0.99
Si  2.66 -5.98  5.67
Si -7.42  2.61 -3.63
Si -5.03  6.93 -1.39
Si  5.14 -6.09  3.43
Si  2.74 -5.66 -6.00
Si -3.60  5.06 -6.08
Si -2.31 -6.07  5.80
Si  5.16 -6.02 -3.64
Si -6.37  4.82  3.53
Si -4.99  7.11  1.07
Si -6.35  4.89 -3.54
Si  7.67  2.54  3.43
Si -8.69  0.69  1.07
Si -2.38 -1.56  8.32
Si -2.35 -1.57 -8.34
Si  6.41  4.79 -3.69
Si  0.17  2.76 -8.37
Si  1.36 -7.95 -3.54
Si  6.44  0.76 -6.00
Si  3.95  5.06 -6.08
Si -8.73  0.51 -1.39
Si -1.02 -8.12  3.38
Si  1.34 -8.02  3.53
Si  7.68  2.61 -3.63
Si  0.03  6.65  5.91
Si -3.62 -8.01 -1.38
Si  4.08 -7.86  0.99
Si -1.00 -8.05 -3.69
Si  5.19  7.19  1.08
Si  2.62 -1.69 -8.42
Si -2.59  2.62 -8.20
Si -3.63  0.37 -8.22
Si  2.56  2.74 -8.21
Si  3.94 -8.01 -1.38
Si  8.96  0.42 -1.26
Si -2.56  2.64  8.29
Si -1.14 -3.68 -8.21
Si  4.99  6.75  3.43
Si  1.09  8.97 -1.14
Si  0.12  7.08 -5.74
Si  3.92  0.37 -8.22
Si  1.26 -3.80 -8.20
Si  9.04  0.77  1.08
Si  2.52  2.81  8.33
Si -1.18 -3.61  8.33
Si -3.62  0.52  8.39
Si  1.29 -3.78  8.29
Si -4.99  6.97  3.38
Si  5.01  6.83 -3.64
Si  2.51  6.86  5.67
Si -2.46  6.78  5.80
Si -1.31  9.09 -1.15
Si -6.23 -3.64 -5.84
Si  1.16  9.13  1.22
Si  3.94  0.52  8.39
Si  6.41 -3.47 -5.80
Si -8.69  0.55  3.38
Si -4.97  7.04 -3.69
Si -7.30 -5.83  1.33
Si -8.67  0.62 -3.69
Si -1.35  4.72  8.10
Si -1.32  9.30  1.26
Si  8.84  0.33  3.43
Si -8.72 -3.54  1.26
Si  6.38 -3.82  5.92
Si -3.63 -8.11  3.37
Si -6.33 -3.94  5.92
Si -7.49 -1.66  5.68
Si -4.82 -5.66 -6.00
Si -8.72 -3.75 -1.15
Si -3.62 -8.04 -3.70
Si -4.89 -5.98  5.67
Si  8.86  0.40 -3.64
Si -7.30 -1.36 -6.08
Si -3.65 -3.72  8.08
Si  3.92 -8.11  3.37
Si -7.36 -6.12 -1.16
Si  7.62 -1.66  5.68
Si  6.29  4.60  5.71
Si  8.80 -3.87 -1.14
Si  3.94 -8.04 -3.70
Si  8.87 -3.71  1.22
Si -5.05 -1.70  8.10
Si -2.35  7.26 -5.99
Si  2.59  7.18 -6.00
Si  3.91 -3.72  8.08
Si -1.34  8.95  3.54
Si -6.24  4.71  5.79
Si  1.32  4.86  8.32
Si -1.23  4.74 -8.42
Si  1.35  4.85 -8.34
Si -7.42  2.62  5.76
Si  1.29  9.05 -3.39
Si -1.32  9.02 -3.52
Si  5.36 -5.58 -5.99
Si  1.27  8.98  3.67
Si -3.53 -3.67 -8.37
Si  7.81 -5.83  1.33
Si -6.19  5.00 -5.80
Si  1.51 -7.84 -5.80
Si  5.24 -6.07  5.80
Si -4.93 -1.69 -8.42
Si -3.70  9.11 -1.30
Si  5.18 -1.56  8.32
Si  4.96  2.62 -8.20
Si  6.24  4.86 -6.03
Si  7.75 -6.12 -1.16
Si  5.21 -1.57 -8.34
Si  7.69  2.62  5.76
Si  3.86  9.11 -1.30
Si  4.03 -3.67 -8.37
Si  7.81 -1.36 -6.08
Si  3.78  9.19  1.01
Si -3.78  9.19  1.01
Si -5.00  2.74 -8.21
Si -7.46  2.84 -6.05
Si  4.99  2.64  8.29
Si -6.06 -7.91  1.26
Si -8.80  4.67 -1.35
Si -7.43 -5.87 -3.43
Si -1.17 -7.99 -6.03
Si  1.47 -8.13  5.79
Si -1.12 -8.24  5.71
Si -9.91 -1.49  1.26
Si -3.64  4.92  8.05
Si  0.23 -10.07  1.01
Si -5.04  2.81  8.33
Si -9.92 -1.64 -1.27
Si -7.50  6.72 -1.16
Si -8.89  4.79  1.03
Si -8.72 -3.82 -3.52
Si  7.65  2.84 -6.05
Si -6.07 -8.06 -1.27
Si  8.89  4.78 -1.27
Si -6.09  0.70  8.14
Si -7.45 -5.94  3.64
Si -2.24 -5.72  8.14
Si -8.74 -3.89  3.54
Si  0.22 -6.05 -8.22
Si  7.60  6.72 -1.16
Si  3.92  4.92  8.05
Si -5.04  6.86  5.67
Si  0.30 -10.15 -1.30
Si  8.90  4.93  1.26
Si  7.68 -5.87 -3.43
Si 10.07 -1.63  1.03
Si  0.23 -5.91  8.39
Si  5.09  6.78  5.80
Si -3.74  8.96  3.43
Si -7.45  7.01  1.33
Si  6.37 -8.05  1.03
Si  3.81  8.96  3.43
Si  9.00 -3.79 -3.39
Si  2.70 -5.80  8.13
Si  7.66 -5.94  3.64
Si -6.13  0.49 -8.33
Si  6.40  0.62  8.13
Si  2.69 -9.96  1.26
Si 10.16 -1.75 -1.35
Si -3.72  9.03 -3.63
Si -8.75  0.44  5.67
Si  8.98 -3.86  3.67
Si  3.83  9.03 -3.63
Si -3.45 -7.79 -6.08
Si  7.66  7.01  1.33
Si -3.75  4.91 -8.45
Si -2.28 -5.93 -8.33
Si -8.72  4.72  3.38
Si  3.81  4.91 -8.45
Si -2.39 -10.13  1.22
Si  6.46 -8.18 -1.35
Si 10.10  2.67 -1.15
Si -1.16  0.48 10.44
Si -3.64 -8.08  5.68
Si -10.10  2.71  1.22
Si -10.16  2.55 -1.14
Si -8.67  0.76 -6.00
Si 10.09  2.88  1.26
Si  1.27  0.27 10.49
Si  0.05 -1.76 10.43
Si  2.69 -10.17 -1.15
Si  8.74  4.82  3.53
Si -4.97  7.18 -6.00
Si -8.70  4.79 -3.69
Si  6.40  0.58 -8.46
Si  3.92 -8.08  5.68
Si  2.70 -5.84 -8.46
Si  8.76  4.89 -3.54
Si -2.46 -10.29 -1.14
Si  0.07  6.79 -8.22
Si  8.94  0.36  5.80
Si -6.20 -7.95 -3.54
Si  4.10 -7.79 -6.08
Si -6.22 -8.02  3.53
Si  1.08  8.90  5.92
Si  5.21  7.26 -5.99
Si -10.05 -1.53 -3.54
Si  0.09  2.47 10.50
Si -10.07 -1.60  3.53
Si  1.32  0.47 -10.70
Si  7.53  6.97 -3.43
Si -1.10  0.69 -10.75
Si  7.51  6.91  3.64
Si -9.97  2.63 -3.39
Si -7.58  6.97 -3.43
Si  0.28 -10.23 -3.63
Si  0.26 -10.30  3.43
Si -1.33  9.02  5.92
Si  0.11 -1.55 -10.76
Si  0.08  6.94  8.39
Si  9.06  0.84 -5.99
Si -7.60  6.91  3.64
Si 10.24 -1.70  3.38
Si -7.29 -5.76 -5.74
Si  2.67 -1.77 10.44
Si -9.98  2.56  3.67
Si  1.18  9.20 -5.84
Si  6.54 -8.12  3.38
Si 10.07  2.53  3.54
Si -2.48 -1.46 -10.60
Si -2.26 -10.21 -3.39
Si 10.09  2.60 -3.52
Si -7.34 -1.50  8.05
Si -6.29 -3.80 -8.20
Si -2.53 -1.67 10.59
Si -8.70 -3.47 -5.80
Si  6.56 -8.05 -3.69
Si 10.26 -1.63 -3.69
Si  0.15  2.68 -10.70
Si  6.41 -3.68 -8.21
Si -6.26 -3.78  8.29
Si  2.55  7.04  8.13
Si -2.39  2.70 -10.46
Si -2.39  7.12  8.14
Si  6.24  9.09 -1.15
Si  6.37 -3.61  8.33
Si -2.43  6.92 -8.33
Si -1.30  9.37 -5.80
Si -4.86 -5.80  8.13
Si -6.46  8.97 -1.14
Si -3.71  0.62 -10.49
Si -2.28 -10.28  3.67
Si  2.68 -10.24 -3.52
Si -4.87 -9.96  1.26
Si  2.50  2.46 10.61
Si  3.84  0.62 -10.49
Si  1.46 -3.72 -10.46
Si  2.72 -1.56 -10.76
Si -6.39  9.13  1.22
Si  2.55  2.67 -10.59
Si -8.73 -3.82  5.92
Si  2.66 -10.31  3.54
Si  6.20  4.72  8.10
Si  8.88 -3.64 -5.84
Si -11.16  0.59  1.33
Si  2.55  7.00 -8.46
Si -11.21  0.30 -1.16
Si  6.24  9.30  1.26
Si  5.32 -5.72  8.14
Si  7.82 -5.76 -5.74
Si  7.77 -1.50  8.05
Si -1.15 -3.75 -10.59
Si -2.45  2.49 10.74
Si -7.37 -6.19  5.91
Si  8.78 -3.94  5.92
Si -4.86 -10.17 -1.15
Si -9.77 -5.65  1.08
Si -0.07 11.26 -1.38
Si -3.72  9.04  5.76
Si -7.50  2.70  8.08
Si -3.77  0.41 10.70
Si  3.79  0.41 10.70
Si -7.45 -1.52 -8.45
Si -4.86 -5.84 -8.46
Si -1.21 -3.96 10.61
Si  3.84  9.04  5.76
Si  7.61  2.70  8.08
Si  2.45 11.09 -1.35
Si  5.16 -10.13  1.22
Si  0.08 11.41  0.99
Si  6.22  8.95  3.54
Si -8.82  4.60  5.71
Si -6.20  4.85 -8.34
Si -6.04 -7.84 -5.80
Si -6.23  4.86  8.32
Si -1.19  4.65 10.44
