500
set: 328.00  0.00  0.00
Si -0.02  0.03 -0.03
Si -0.01 -2.15  0.76
Si -0.01 -0.03 -2.31
Si  1.90  1.09  0.73
Si -1.92  1.06  0.74
Si -1.91  3.24  0.07
Si  0.02  2.20 -3.06
Si -1.85 -3.28 -0.02
Si -1.89  1.03  3.10
Si  1.91  1.12  3.07
Si  3.78 -0.05 -0.05
Si -3.79 -0.05 -0.05
Si -1.88 -1.07 -3.12
Si  1.90 -1.16 -3.09
Si  1.94  3.28 -0.02
Si  0.02 -2.18  3.13
Si  1.88 -3.32  0.07
Si -1.85  3.26 -2.26
Si -1.89 -3.19 -2.33
Si  1.90 -1.00  3.85
Si -0.01  4.35  0.81
Si -0.01  2.22  3.85
Si  3.77  0.03 -2.34
Si  1.94 -3.31 -2.26
Si  3.78 -2.21  0.81
Si -3.79 -2.21  0.81
Si -3.81  0.03 -2.34
Si -1.85 -1.12  3.92
Si  1.90  3.37 -2.33
Si -0.01 -4.34 -3.06
Si  3.78  2.22 -3.06
Si -3.80  2.22 -3.06
Si  3.78 -2.16  3.13
Si -3.80 -2.16  3.13
Si -0.01  4.41  3.13
Si  5.66  1.06  0.74
Si -5.67  1.09  0.73
Si  3.78  2.16  3.88
Si -1.89 -5.47  0.73
Si -3.80  2.16  3.88
Si  1.87 -5.50  0.74
Si  3.77  4.41  0.76
Si  1.87 -1.12 -5.44
Si -0.01 -4.40  3.88
Si -0.01  2.23 -5.43
Si -1.89 -1.10 -5.46
Si -3.80  4.41  0.76
Si  1.88  1.05 -6.12
Si -0.01  2.14  6.14
Si -1.89  5.41 -3.09
Si -0.01  6.51 -0.05
Si -1.88 -5.44  3.07
Si -5.64  3.28 -0.02
Si -3.77 -4.37 -3.06
Si  5.67  3.24  0.07
Si -5.67  1.12  3.07
Si  3.81 -4.37 -3.06
Si  1.94 -1.09  6.17
Si  5.69  1.03  3.10
Si -5.68 -1.16 -3.09
Si -1.85  1.09 -6.21
Si -3.77  4.39  3.13
Si  5.70 -1.07 -3.12
Si -5.70 -3.32  0.07
Si  3.81  4.39  3.13
Si  5.73 -3.28 -0.02
Si  1.91  5.49 -3.12
Si -0.01 -6.61 -0.05
Si  1.90 -5.53  3.10
Si -0.01 -2.24 -6.24
Si -1.91 -1.13  6.26
Si -5.64 -3.31 -2.26
Si  3.77 -4.34  3.85
Si  5.69 -3.19 -2.33
Si  3.78  2.16 -5.38
Si -3.79  2.16 -5.38
Si -5.68 -1.00  3.85
Si -3.81 -4.34  3.85
Si -0.02 -6.53 -2.34
Si -0.01 -4.40 -5.38
Si  5.72  3.26 -2.26
Si  1.94  5.45  3.92
Si -0.01 -0.02  6.99
Si -0.01  6.59 -2.34
Si -5.68  3.37 -2.33
Si -1.89  5.56  3.85
Si  5.72 -1.12  3.92
Si -0.02 -4.34  6.16
Si  3.77 -6.53 -0.03
Si  3.77  2.22  6.16
Si  7.55  0.03 -0.03
Si -3.81 -6.53 -0.03
Si -3.81  2.22  6.16
Si  3.77 -2.15 -6.22
Si  3.77  6.59 -0.03
Si -7.60  0.03 -0.03
Si -3.81 -2.15 -6.22
Si -3.81  6.59 -0.03
Si -0.02  4.41 -6.22
Si  1.87  3.25  6.93
Si -1.89  3.28  6.92
Si  1.87  7.62  0.74
Si  1.90 -3.28  6.92
Si  3.78  6.54 -2.31
Si  7.56 -2.15  0.76
Si -3.80  6.54 -2.31
Si  3.77  0.04  6.95
Si  3.77 -4.34 -5.43
Si  7.57 -0.03 -2.31
Si -1.89  7.65  0.73
Si -1.92 -3.31  6.93
Si -3.80  0.04  6.95
Si -3.81 -4.34 -5.43
Si -7.59 -2.15  0.76
Si  5.69 -5.47  0.73
Si -1.92  5.44 -5.44
Si -7.59 -0.03 -2.31
Si  3.78 -6.59 -2.31
Si -3.80 -6.59 -2.31
Si  1.90  5.46 -5.46
Si  5.69 -1.10 -5.46
Si -5.71 -5.50  0.74
Si -5.71 -1.12 -5.44
Si  1.90  7.59  3.10
Si -5.70  1.05 -6.12
Si -5.64 -1.09  6.17
Si  5.69  5.41 -3.09
Si -7.56  2.20 -3.06
Si -1.85  5.47  6.17
Si -1.91 -5.51 -6.12
Si  5.70 -5.44  3.07
Si  3.78 -4.42  6.14
Si  1.91 -7.63 -3.12
Si -3.79 -4.42  6.14
Si -7.56 -2.18  3.13
Si  7.59  2.20 -3.06
Si  3.78  4.32 -6.24
Si -1.88  7.68  3.07
Si -3.79  4.32 -6.24
Si -5.67  5.49 -3.12
Si  1.88  5.43  6.26
Si  1.94 -5.47 -6.21
Si  7.59 -2.18  3.13
Si -5.68 -5.53  3.10
Si  5.73  1.09 -6.21
Si  5.67 -1.13  6.26
Si -1.89 -7.72 -3.09
Si -1.89 -7.56  3.85
Si  1.94  1.07 -8.45
Si -5.64  5.45  3.92
Si  7.56  2.22  3.85
Si  7.57  4.35  0.81
Si -7.58  4.35  0.81
Si -0.02 -2.16 -8.53
Si -7.59  2.22  3.85
Si -0.01 -8.77  0.81
Si -1.89  1.19 -8.52
Si  5.69  5.56  3.85
Si  1.94 -7.68  3.92
Si -0.01  0.03 -9.24
Si  7.57 -4.34 -3.06
Si -7.59 -4.34 -3.06
Si -0.01 -8.72  3.13
Si -0.01  8.78 -3.06
Si  7.57  4.41  3.13
Si -7.59  4.41  3.13
Si -0.01  0.03  9.32
Si  3.77 -8.71  0.76
Si -0.01 -6.52  6.95
Si -5.67 -3.28  6.92
Si -3.81 -8.71  0.76
Si  5.66 -3.31  6.93
Si  5.69  3.28  6.92
Si -0.01  4.35 -8.50
Si -0.01  8.72  3.88
Si  5.66  5.44 -5.44
Si -5.71  3.25  6.93
Si -5.71  7.62  0.74
Si  3.78 -2.21 -8.50
Si  5.69  7.65  0.73
Si -3.80 -2.21 -8.50
Si  7.56  2.23 -5.43
Si  9.48  1.09  0.73
Si  7.57 -4.40  3.88
Si -5.67  5.46 -5.46
Si -0.01  6.60  6.95
Si -7.59 -4.40  3.88
Si -9.50  1.06  0.74
Si  1.90 -7.66 -5.46
Si -7.59  2.23 -5.43
Si -1.92 -7.69 -5.44
Si -1.91  7.61 -6.12
Si -5.68  7.59  3.10
Si  7.57  2.14  6.14
Si  1.88  9.80  0.07
Si -3.77  0.01 -9.24
Si -9.43 -3.28 -0.02
Si -7.58  2.14  6.14
Si  7.57  6.51 -0.05
Si  1.91 -3.26  9.25
Si  3.81  0.01 -9.24
Si -7.58  6.51 -0.05
Si  5.67 -5.51 -6.12
Si -1.85 -7.65  6.17
Si  1.90  3.22 -9.28
Si -1.88  3.31  9.25
Si  1.90  3.22  9.28
Si -5.67 -7.63 -3.12
Si -5.64 -5.47 -6.21
Si -9.47  1.03  3.10
Si -3.77  8.76 -3.06
Si -1.85  9.85 -0.02
Si -9.46 -1.07 -3.12
Si -3.77 -8.74  3.13
Si -9.49  3.24  0.07
Si  9.46 -3.32  0.07
Si  3.81  8.76 -3.06
Si  1.94 -9.84 -0.02
Si  9.48  1.12  3.07
Si  3.81 -8.74  3.13
Si  9.48 -1.16 -3.09
Si  5.73  5.47  6.17
Si  5.70  7.68  3.07
Si -1.89 -3.35 -9.28
Si  1.91 -3.26 -9.31
Si -1.89 -3.34  9.28
Si  1.94  7.66 -6.21
Si -5.70  5.43  6.26
Si -3.77  0.01  9.32
Si  7.57 -6.61 -0.05
Si -1.88  3.31 -9.31
Si -7.58 -6.61 -0.05
Si  7.57 -2.24 -6.24
Si  3.81  0.01  9.32
Si  9.52  3.28 -0.02
Si -1.91 -9.88  0.07
Si -7.58 -2.24 -6.24
Si  5.69 -7.72 -3.09
Si  1.88 -7.70  6.26
Si  1.90 -9.75 -2.33
Si  5.69 -7.56  3.85
Si -5.64  1.07 -8.45
Si -9.43  3.26 -2.26
Si -1.85 -5.49 -8.45
Si -0.01  8.73 -5.38
Si  1.90 -5.38 -8.52
Si  1.94  9.82 -2.26
Si -0.01 -2.16 10.03
Si -9.47 -3.19 -2.33
Si  7.56 -6.53 -2.34
Si  9.47 -1.00  3.85
Si  7.57 -4.40 -5.38
Si -9.43 -1.12  3.92
Si -1.89  1.19 10.04
Si -7.58 -4.40 -5.38
Si -7.59 -6.53 -2.34
Si -1.85 -9.87 -2.26
Si  3.78  6.54  6.99
Si -3.79  6.54  6.99
Si  3.77  8.78  3.85
Si  7.56  6.59 -2.34
Si -5.64 -7.68  3.92
Si  7.57 -0.02  6.99
Si  5.69  1.19 -8.52
Si  3.77  4.40 -8.53
Si -3.80  8.78  3.85
Si -7.58 -0.02  6.99
Si  9.51 -3.31 -2.26
Si  3.78 -6.58  6.99
Si -3.81  4.40 -8.53
Si -7.59  6.59 -2.34
Si  9.47  3.37 -2.33
Si -3.79 -6.58  6.99
Si  1.94  1.07 10.11
Si -1.89  9.94 -2.33
Si  7.55 -4.34  6.16
Si -7.60 -4.34  6.16
Si -0.03 -8.72 -6.22
Si -0.02  8.78  6.16
Si  7.55  4.41 -6.22
Si -7.60  4.41 -6.22
Si  9.45 -5.50  0.74
Si -9.46 -5.47  0.73
Si  9.45 -1.12 -5.44
Si -0.01  4.35 10.06
Si  3.78 -2.21 10.06
Si -9.46 -1.10 -5.46
Si -3.80 -2.21 10.06
Si -5.68 -7.66 -5.46
Si  5.66 -7.69 -5.44
Si  3.77  8.79 -5.43
Si -0.01 10.97  0.76
Si -3.80  8.79 -5.43
Si  5.67  7.61 -6.12
Si  3.79  8.70  6.14
Si -3.79  8.70  6.14
Si  9.46  1.05 -6.12
Si  0.02 -6.55 -9.24
Si -5.67 -3.26  9.25
Si -9.47  5.41 -3.09
Si -5.70  9.80  0.07
Si -9.46 -5.44  3.07
Si  0.02  6.57 -9.24
Si -5.64 -9.84 -0.02
Si -9.43  1.09 -6.21
Si -5.68  3.22 -9.28
Si  0.02 -10.93 -3.06
Si -5.68  3.22  9.28
Si  5.70  3.31  9.25
Si -5.64  7.66 -6.21
Si 11.36 -0.05 -0.05
Si -11.37 -0.05 -0.05
Si  5.73 -7.65  6.17
Si -5.67 -3.26 -9.31
Si  5.69 -3.35 -9.28
Si  0.02 10.95  3.13
Si  5.69 -3.34  9.28
Si  5.73  9.85 -0.02
Si  9.52 -1.09  6.17
Si  0.02 -6.55  9.32
Si  5.67 -9.88  0.07
Si  9.48  5.49 -3.12
Si  5.70  3.31 -9.31
Si  9.48 -5.53  3.10
Si  0.02  6.57  9.32
Si -9.49 -1.13  6.26
Si  3.78 -8.80 -6.24
Si -3.79 -8.80 -6.24
Si -5.70 -7.70  6.26
Si -5.68 -9.75 -2.33
Si -1.85  7.63 -8.45
Si  1.90 -5.37 10.04
Si -5.64  9.82 -2.26
Si -0.02 -10.91  3.85
Si -0.01 -0.02 -11.57
Si -5.68 -5.38 -8.52
Si  3.78 10.91  0.81
Si -3.79 10.91  0.81
Si  3.77  4.41 10.03
Si  5.72 -5.49 -8.45
Si 11.35  0.03 -2.34
Si  5.69  1.19 10.04
Si -3.80  4.41 10.03
Si  7.56 -2.16 -8.53
Si 11.36 -2.21  0.81
Si -11.37 -2.21  0.81
Si  7.57 -8.77  0.81
Si -7.59 -2.16 -8.53
Si -11.38  0.03 -2.34
Si -7.58 -8.77  0.81
Si -5.64  1.07 10.11
Si  5.72 -9.87 -2.26
Si -9.47  5.56  3.85
Si  9.51  5.45  3.92
Si -1.85 -5.49 10.11
Si  1.90  7.75 -8.52
Si  5.69  9.94 -2.33
Si  3.78 -6.53 -9.24
Si -3.80 -6.53 -9.24
Si  3.78 -10.91 -3.06
Si  7.57  0.03 -9.24
Si -3.80 -10.91 -3.06
Si -7.59  0.03 -9.24
Si  7.57 -8.72  3.13
Si  3.78  6.59 -9.24
Si 11.36  2.22 -3.06
Si -3.80  6.59 -9.24
Si -7.59 -8.72  3.13
Si 11.36 -2.16  3.13
Si -11.38  2.22 -3.06
Si  7.57  8.78 -3.06
Si  3.78 -6.53  9.32
Si -3.80 -6.53  9.32
Si -11.38 -2.16  3.13
Si -7.59  8.78 -3.06
Si  7.57  0.03  9.32
Si  3.78 10.97  3.13
Si -7.59  0.03  9.32
Si -3.80 10.97  3.13
Si  3.78  6.59  9.32
Si -3.80  6.59  9.32
Si  9.45  3.25  6.93
Si  9.45  7.62  0.74
Si  7.56 -6.52  6.95
Si -1.92  9.81  6.93
Si -9.46  3.28  6.92
Si -0.02 -10.90 -5.43
Si  1.90  9.84  6.92
Si -1.89 -9.85  6.92
Si  7.57  4.35 -8.50
Si  7.57  8.72  3.88
Si -7.59 -6.52  6.95
Si  9.48 -3.28  6.92
Si -7.59  8.72  3.88
Si -9.46  7.65  0.73
Si -7.59  4.35 -8.50
Si 11.36  2.16  3.88
Si 11.35  4.41  0.76
Si  1.90 -12.03  0.73
Si  1.87 -9.87  6.93
Si  7.56  6.60  6.95
Si -11.38  2.16  3.88
Si  3.77  0.04 -11.61
Si -0.01 -8.78 -8.50
Si -9.50 -3.31  6.93
Si  1.87  3.25 -11.63
Si -3.81  0.04 -11.61
Si -9.50  5.44 -5.44
Si -7.59  6.60  6.95
Si  3.78 -10.96  3.88
Si  9.48  5.46 -5.46
Si -11.38  4.41  0.76
Si -3.80 -10.96  3.88
Si -1.92 -12.06  0.74
Si -1.89  3.28 -11.64
Si -1.92 -3.31 -11.63
Si  1.90 -3.29 -11.64
Si -1.91 -1.14 -12.30
Si  1.90 11.97 -3.09
Si -0.01 -2.24 12.32
Si -9.43  5.47  6.17
Si  9.48  7.59  3.10
Si  1.91 -12.01  3.07
Si -1.85  1.10 12.35
Si -11.35 -4.37 -3.06
Si -0.01 10.89 -6.24
Si -9.49 -5.51 -6.12
Si -11.35  4.39  3.13
Si -9.46  7.68  3.07
Si  9.48 -7.63 -3.12
Si 11.38 -4.37 -3.06
Si  9.46  5.43  6.26
Si -0.01 -10.99  6.14
Si  1.94 -1.09 -12.40
Si -1.88 12.05 -3.12
Si 11.38  4.39  3.13
Si -9.47 -7.72 -3.09
Si -0.01  2.14 -12.42
Si  9.52 -5.47 -6.21
Si -1.89 -12.09  3.10
Si  1.88  1.05 12.44
Si -9.47 -7.56  3.85
Si -5.68 -5.37 10.04
Si  5.72  7.63 -8.45
Si  7.57  8.73 -5.38
Si  7.56 -2.16 10.03
Si 11.35 -4.34  3.85
Si -7.58  8.73 -5.38
Si 11.36  2.16 -5.38
Si -7.59 -2.16 10.03
Si -11.37  2.16 -5.38
Si  3.77 -8.72 -8.53
Si -1.85 12.01  3.92
Si  9.51  1.07 -8.45
Si -3.81 -8.72 -8.53
Si -11.38 -4.34  3.85
Si  3.78 -10.96 -5.38
Si -3.80 -10.96 -5.38
Si -9.47  1.19 -8.52
Si -1.85  7.63 10.11
Si  1.90  7.75 10.04
Si  9.51 -7.68  3.92
Si -5.68  7.75 -8.52
Si  5.72 -5.49 10.11
Si  1.90 12.12  3.85
Si  3.77 -10.90  6.16
Si  3.77 -2.15 12.34
Si 11.34 -6.53 -0.03
Si -3.81 -10.90  6.16
Si -0.03 -13.09 -0.03
Si 11.34  2.22  6.16
Si -3.81 -2.15 12.34
Si  7.55 -8.72 -6.22
Si -0.02  4.41 12.34
Si 11.34 -2.15 -6.22
Si  7.55  8.78  6.16
Si 11.34  6.59 -0.03
Si -11.39 -6.53 -0.03
Si -7.60 -8.72 -6.22
Si -11.39  2.22  6.16
Si -0.03 -4.34 -12.40
Si -7.60  8.78  6.16
Si  3.77  2.22 -12.40
Si -11.39 -2.15 -6.22
Si -0.02 13.16 -0.03
Si  3.77 10.97 -6.22
Si -11.39  6.59 -0.03
Si -3.81  2.22 -12.40
Si -3.81 10.97 -6.22
Si  5.66  9.81  6.93
Si -1.89 -1.10 13.11
Si  1.87 -1.12 13.12
Si 13.23  1.06  0.74
Si -0.01 13.10 -2.31
Si -5.67  9.84  6.92
Si  1.87 12.00 -5.44
Si 11.36  6.54 -2.31
Si 11.35 -4.34 -5.43
Si 11.35  0.04  6.95
Si  5.69 -9.85  6.92
