500
set: 857.00  0.00  0.00
Si  0.42 -1.21  0.85
Si -0.43  1.24 -0.85
Si  1.39  1.23  0.84
Si -1.39 -1.23 -0.86
Si -0.90 -0.01  2.52
Si -2.24  1.22  0.85
Si  2.24 -1.24 -0.84
Si  0.90 -0.01 -2.55
Si  3.19  1.23 -0.84
Si -0.04 -2.44 -2.54
Si -3.19 -1.23  0.85
Si  0.05  2.46  2.52
Si  2.71  0.00  2.53
Si -2.71  0.01 -2.54
Si  0.53  3.67 -0.84
Si -0.53 -3.68  0.84
Si -1.76  2.45 -2.53
Si  1.76 -2.46  2.52
Si  1.29 -3.67 -0.83
Si -1.27  3.68  0.86
Si  1.87  2.44 -2.54
Si -1.86 -2.46  2.53
Si  0.90 -0.01  4.21
Si -4.05  1.22 -0.84
Si  4.05 -1.23  0.84
Si -0.91  0.00 -4.22
Si  2.33  3.67  0.84
Si -2.33 -3.68 -0.84
Si -3.09  3.67 -0.85
Si  0.05  2.45 -4.22
Si  3.09 -3.69  0.85
Si -0.05 -2.45  4.22
Si  2.72 -0.01 -4.21
Si -2.71  0.01  4.21
Si -3.57  2.45  2.53
Si  3.58 -2.44 -2.53
Si -3.67 -2.45 -2.53
Si  3.67  2.46  2.54
Si  4.52 -0.01 -2.53
Si -4.52  0.01  2.53
Si  1.77 -2.46 -4.21
Si -1.77  2.45  4.24
Si  5.00  1.23  0.84
Si -5.01 -1.21 -0.84
Si -1.87 -2.45 -4.22
Si  1.86  2.46  4.23
Si  0.81 -4.89  2.54
Si -0.81  4.90 -2.53
Si -4.14 -3.67  0.86
Si  1.00  4.89  2.53
Si -0.99 -4.91 -2.54
Si  4.16  3.68 -0.83
Si  0.43 -1.21 -5.89
Si  5.86 -1.21 -0.84
Si  3.58 -2.45  4.21
Si -0.43  1.22  5.91
Si -3.58  2.45 -4.22
Si -5.87  1.23  0.84
Si  3.67  2.44 -4.23
Si -2.62  4.91  2.53
Si  2.63 -4.90 -2.53
Si -3.67 -2.45  4.23
Si -2.82 -4.89  2.52
Si  1.38  1.23 -5.90
Si -0.33  6.12  0.85
Si -1.38 -1.22  5.91
Si  0.33 -6.12 -0.84
Si  4.53 -0.00  4.22
Si -4.92  3.67  0.85
Si -4.53  0.01 -4.22
Si  4.91 -3.68 -0.85
Si  2.82  4.91 -2.54
Si -1.47 -6.12  0.84
Si  1.48  6.12 -0.86
Si -5.37  2.45 -2.53
Si  2.23 -1.23  5.90
Si -2.24  1.23 -5.90
Si  5.38 -2.44  2.53
Si -5.49 -2.44  2.53
Si -0.81  4.90  4.23
Si  0.80 -4.91 -4.23
Si  5.50  2.45 -2.53
Si  1.00  4.90 -4.22
Si  2.13 -6.13  0.84
Si -1.00 -4.89  4.23
Si -2.15  6.14 -0.84
Si -3.20 -1.23 -5.88
Si  6.34  0.01  2.53
Si  3.20  1.22  5.91
Si -6.35 -0.01 -2.53
Si  0.52  3.68  5.90
Si -2.62  4.90 -4.22
Si  6.82  1.22 -0.84
Si -6.82 -1.23  0.84
Si  2.62 -4.90  4.22
Si -0.53 -3.68 -5.91
Si -3.30 -6.12 -0.85
Si  3.28  6.14  0.85
Si  5.95  3.67  0.85
Si -2.81 -4.90 -4.22
Si -5.96 -3.68 -0.85
Si  2.81  4.90  4.22
Si -4.42  4.91 -2.53
Si  4.43 -4.91  2.53
Si -1.28  3.68 -5.91
Si  1.28 -3.68  5.91
Si  4.62  4.89  2.52
Si -4.63 -4.90 -2.53
Si  5.38 -2.45 -4.22
Si  4.05 -1.22 -5.90
Si -5.38  2.45  4.22
Si -4.05  1.22  5.91
Si -2.34 -3.68  5.90
Si -3.95  6.13  0.84
Si -5.49 -2.45 -4.22
Si  2.33  3.67 -5.91
Si  3.95 -6.13 -0.84
Si  5.49  2.45  4.22
Si -6.34 -0.00  4.22
Si -3.10  3.68  5.90
Si  6.34  0.01 -4.22
Si  3.10 -3.68 -5.91
Si -6.71  3.68 -0.83
Si  0.44 -1.23  7.59
Si -0.43  1.22 -7.59
Si  6.73 -3.67  0.86
Si -0.15 -7.35  2.53
Si  0.15  7.36 -2.54
Si  1.39  1.23  7.59
Si -7.68  1.23 -0.84
Si  7.68 -1.23  0.85
Si -1.39 -1.21 -7.61
Si -4.43  4.90  4.21
Si  4.42 -4.90 -4.22
Si -5.01 -1.23  5.90
Si  5.01  1.22 -5.91
Si  4.63  4.89 -4.21
Si  1.66 -7.36 -2.53
Si -1.66  7.36  2.53
Si -4.63 -4.90  4.24
Si  2.24 -1.22 -7.59
Si  1.97  7.34  2.52
Si  7.19 -2.45 -2.53
Si  5.10  6.12 -0.84
Si -7.19  2.46  2.54
Si -2.24  1.23  7.60
Si -5.10 -6.13  0.85
Si -1.96 -7.36 -2.55
Si -7.29 -2.44 -2.53
Si  7.29  2.45  2.53
Si -4.15 -3.67 -5.91
Si  4.15  3.67  5.91
Si -6.25  4.89  2.52
Si  6.24 -4.90 -2.53
Si  3.19  1.22 -7.60
Si -3.19 -1.23  7.60
Si  5.86 -1.23  5.90
Si -5.86  1.22 -5.91
Si -0.53 -3.68  7.58
Si -5.76  6.12 -0.84
Si  5.77 -6.13  0.85
Si  0.53  3.67 -7.61
Si -6.44 -4.91  2.53
Si  0.15  7.36  4.21
Si -0.15 -7.36 -4.21
Si  6.44  4.91 -2.53
Si -0.34  6.12 -5.88
Si  3.48 -7.34  2.53
Si  4.91 -3.67  5.90
Si -3.48  7.34 -2.53
Si -4.91  3.67 -5.91
Si  0.34 -6.13  5.91
Si  1.28 -3.67 -7.59
Si -1.28  3.69  7.59
Si  8.16  0.01 -2.54
Si -8.16  0.00  2.53
Si -1.48 -6.13 -5.90
Si  3.76  7.34 -2.55
Si  0.63  8.57  0.85
Si  1.48  6.13  5.91
Si -3.76 -7.36  2.52
Si  7.78  3.67 -0.85
Si  1.67 -7.36  4.22
Si -1.67  7.36 -4.22
Si -7.78 -3.69  0.85
Si -0.62 -8.59 -0.84
Si -1.19  8.57 -0.84
Si  7.19 -2.45  4.23
Si  1.19 -8.58  0.84
Si -4.05  1.23 -7.60
Si -1.96 -7.36  4.21
Si  1.96  7.35 -4.22
Si -7.20  2.44 -4.23
Si  4.06 -1.23  7.60
Si  2.33  3.67  7.58
Si -8.63 -1.24 -0.84
Si  8.63  1.22  0.85
Si -2.33 -3.68 -7.61
Si -7.29 -2.45  4.21
Si  7.29  2.45 -4.22
Si -2.15  6.12  5.90
Si  2.14 -6.13 -5.91
Si -2.44 -8.56  0.85
Si  2.43  8.59 -0.85
Si -6.23  4.89 -4.21
Si  3.09 -3.69  7.59
Si -3.09  3.69 -7.60
Si  6.24 -4.90  4.24
Si -6.81 -1.22 -5.90
Si  6.81  1.22  5.91
Si  2.99 -8.57 -0.84
Si  6.44  4.90  4.21
Si  3.29  6.14 -5.89
Si -3.00  8.58  0.84
Si -3.30 -6.13  5.91
Si -6.44 -4.90 -4.22
Si -5.96 -3.67  5.90
Si -3.47  7.35  4.22
Si  3.47 -7.34 -4.22
Si  5.96  3.67 -5.91
Si -8.15 -0.01 -4.21
Si  8.15  0.01  4.21
Si -5.00 -1.23 -7.59
Si  5.01  1.23  7.59
Si  3.77  7.35  4.21
Si  6.91  6.13  0.84
Si -6.91 -6.13 -0.84
Si -3.77 -7.35 -4.22
Si  0.90 -0.00 -9.28
Si -8.54  3.67  0.84
Si -0.90 -0.01  9.29
Si  8.54 -3.68 -0.84
Si -3.95  6.13 -5.90
Si  3.95 -6.13  5.91
Si -4.14 -3.67  7.59
Si  4.14  3.68 -7.59
Si  5.29 -7.34 -2.54
Si -5.29  7.36  2.53
Si -5.57 -7.34 -2.54
Si  5.57  7.36  2.53
Si  0.05  2.44  9.26
Si -9.48  1.23  0.84
Si -0.04 -2.45 -9.28
Si  9.48 -1.23 -0.86
Si  4.25  8.58  0.84
Si -4.25 -8.59 -0.86
Si -2.71  0.00 -9.27
Si -9.00  2.44 -2.54
Si -5.86  1.23  7.59
Si  5.86 -1.23 -7.59
Si  9.01 -2.46  2.53
Si -6.72  3.67  5.91
Si  6.72 -3.67 -5.91
Si  2.73  0.00  9.29
Si  7.67 -1.23 -5.88
Si  8.05 -4.89  2.52
Si -7.66  1.22  5.91
Si -1.76  2.44 -9.28
Si -4.92  3.66  7.59
Si  9.11  2.45 -2.53
Si -8.05  4.91 -2.54
Si  4.91 -3.66 -7.60
Si  1.76 -2.45  9.29
Si -9.11 -2.46  2.52
Si -0.33  6.12  7.60
Si  7.57 -6.12 -0.85
Si  1.85  2.46 -9.27
Si  0.33 -6.13 -7.60
Si -1.86 -2.44  9.28
Si -7.58  6.14  0.85
Si -1.48 -6.12  7.59
Si -4.81  8.58 -0.84
Si  4.81 -8.58  0.85
Si  1.48  6.14 -7.61
Si  5.10  6.12  5.90
Si -8.23 -4.90 -2.53
Si -5.11 -6.12 -5.90
Si  8.25  4.91  2.53
Si -5.29  7.34 -4.21
Si  5.29 -7.35  4.21
Si -2.14  6.12 -7.59
Si  2.15 -6.12  7.59
Si  5.58  7.34 -4.21
Si -5.58 -7.35  4.21
Si  0.72 -9.79 -2.53
Si -0.71  9.80  2.53
Si  1.10  9.80 -2.53
Si -1.10 -9.81  2.52
Si  9.00 -2.45 -4.22
Si  3.57 -2.45 -9.29
Si -9.01  2.46  4.23
Si -3.58  2.46  9.29
Si  5.76 -6.12 -5.90
Si -6.80 -1.23  7.60
Si -3.67 -2.45 -9.28
Si -5.77  6.12  5.90
Si  3.67  2.44  9.28
Si  6.81  1.23 -7.60
Si  9.97 -0.01  2.52
Si -9.97 -0.01 -2.55
Si -9.57 -3.67 -0.83
Si  3.30  6.12  7.59
Si -3.29 -6.13 -7.59
Si  9.59  3.68  0.86
Si -4.52 -0.00  9.28
Si  5.95  3.66  7.59
Si  4.52 -0.01 -9.28
Si -9.10 -2.46 -4.21
Si -5.96 -3.66 -7.60
Si  8.05 -4.90 -4.22
Si -8.05  4.90  4.22
Si  9.10  2.45  4.24
Si  2.52 -9.80  2.53
Si -2.51  9.80 -2.53
Si  0.62  8.58 -5.90
Si  7.77  3.68  5.90
Si -7.77 -3.68 -5.91
Si -0.63 -8.58  5.90
Si  8.24  4.90 -4.22
Si  1.19 -8.57 -5.90
Si -8.24 -4.90  4.22
Si -1.19  8.57  5.91
Si  8.62  1.23 -5.90
Si -0.81  4.90 -9.28
Si -3.94  6.12  7.60
Si -2.91 -9.79 -2.54
Si  3.95 -6.12 -7.60
Si -8.63 -1.23  5.90
Si -7.10  7.34 -2.55
Si -1.01 -4.89 -9.27
Si  0.81 -4.91  9.28
Si  6.05  8.58 -0.84
Si  7.11 -7.36  2.52
Si -6.05 -8.58  0.85
Si 10.43  1.24 -0.85
Si  2.91  9.81  2.52
Si  1.00  4.91  9.28
Si -10.45 -1.21  0.85
Si -2.44 -8.56 -5.89
Si  2.43  8.57  5.91
Si -0.71  9.80 -4.22
Si  0.71 -9.80  4.21
Si  8.72  6.14 -0.84
Si -8.73 -6.13  0.84
Si  7.38  7.34 -2.53
Si -7.39 -7.34  2.53
Si -1.09 -9.81 -4.21
Si  1.10  9.80  4.24
Si  6.72 -3.67  7.59
Si -6.73  3.68 -7.59
Si -9.96 -0.01  4.21
Si  9.96  0.00 -4.22
Si  2.62 -4.90 -9.29
Si -2.62  4.90  9.29
Si  2.99 -8.58  5.90
Si -3.00  8.57 -5.91
Si -2.82 -4.91  9.26
Si -6.61  8.58  0.84
Si  7.67 -1.23  7.60
Si -7.68  1.22 -7.60
Si  2.82  4.91 -9.28
Si  6.62 -8.59 -0.86
Si  2.52 -9.80 -4.22
Si  6.92  6.13 -5.90
Si -2.52  9.80  4.22
Si -6.92 -6.13  5.91
Si -10.33  3.67 -0.84
Si -0.90 -0.01 -10.96
Si 10.33 -3.68  0.84
Si  8.53 -3.68  5.90
Si  0.90 -0.00 10.97
Si  4.33 -9.80 -2.53
Si -5.39  2.45 -9.29
Si -8.53  3.67 -5.91
Si -5.11 -6.12  7.60
Si  5.11  6.14 -7.59
Si  5.38 -2.46  9.29
Si -4.33  9.81  2.54
Si -7.10  7.35  4.21
Si  7.10 -7.35 -4.22
Si  5.48  2.45 -9.29
Si -0.23 11.02 -0.85
Si -5.48 -2.46  9.29
Si -2.91 -9.80  4.22
Si  2.91  9.81 -4.22
Si  0.22 -11.04  0.85
Si -1.57 -11.03 -0.83
Si  4.73  9.80 -2.54
Si  1.59 11.03  0.86
Si -4.72 -9.81  2.53
Si  6.34 -0.00  9.28
Si -2.05 11.02  0.85
Si -0.04 -2.45 10.97
Si -9.39  6.12 -0.86
Si -9.49  1.23 -5.90
Si  9.49 -1.22  5.91
Si -6.35 -0.01 -9.28
Si -4.25 -8.57  5.91
Si  4.25  8.58 -5.90
Si  7.39  7.35  4.22
Si -7.39 -7.34 -4.22
Si  9.39 -6.12  0.84
Si  2.05 -11.03 -0.85
Si  0.05  2.44 -10.99
Si  2.73  0.00 -10.96
Si -9.86  4.89  2.53
Si  9.87 -4.91 -2.54
Si -2.71  0.00 10.98
Si  5.76 -6.12  7.60
Si -5.76  6.14 -7.59
Si  1.76 -2.45 -10.97
Si -1.76  2.44 10.97
Si -10.82  2.46  2.52
Si 10.82 -2.44 -2.54
Si 11.29 -1.21  0.85
Si  7.57 -6.13  5.91
Si  4.42 -4.89  9.29
Si -7.58  6.14 -5.89
Si -1.86 -2.44 -10.97
Si -4.44  4.90 -9.29
Si -11.30  1.24 -0.85
Si  1.85  2.46 10.98
Si  4.80 -8.58 -5.88
Si -0.62 -8.57 -7.59
Si -4.80  8.57  5.91
Si -10.91 -2.44 -2.54
Si -10.06 -4.89  2.54
Si 10.91  2.46  2.52
Si -4.62 -4.91 -9.28
Si 10.06  4.90 -2.53
Si  4.62  4.91  9.29
Si  0.62  8.58  7.60
Si -7.78 -3.69  7.59
Si  7.78  3.69 -7.60
Si  4.33 -9.80  4.23
Si -4.34  9.80 -4.23
Si  1.20 -8.58  7.60
Si -1.19  8.58 -7.60
Si -8.62 -1.22 -7.59
Si  8.63  1.23  7.60
Si  3.40 11.02 -0.84
Si -3.40 -11.03  0.84
Si  7.86  8.58  0.84
Si -7.88 -8.57 -0.84
Si -4.73 -9.80 -4.22
Si  4.72  9.81  4.23
Si  2.44  8.57 -7.59
Si -2.43 -8.58  7.59
Si -3.85 11.03 -0.83
Si  3.87 -11.02  0.86
Si  3.57 -2.45 10.96
Si -3.58  2.46 -10.96
Si  9.86 -4.89  4.23
Si -9.87  4.90 -4.22
Si -8.90  7.34  2.52
Si  3.67  2.44 -10.97
Si  8.90 -7.36 -2.55
Si -3.67 -2.45 10.98
Si  0.16  7.35 -9.27
Si -6.13  9.80 -2.54
Si  3.00 -8.58 -7.59
Si -2.99  8.58  7.59
Si  6.14 -9.81  2.53
Si  9.58  3.68 -5.91
Si -0.14 -7.35  9.29
Si -9.58 -3.68  5.91
Si -10.82  2.45 -4.22
Si  4.52 -0.01 10.97
Si 10.82 -2.45  4.22
Si -4.52 -0.00 -10.98
Si -1.66  7.35  9.28
Si  1.66 -7.36 -9.28
Si 10.92  2.45 -4.22
Si 10.06  4.90  4.23
Si -6.92 -6.12 -7.60
Si -10.92 -2.45  4.22
Si  6.93  6.12  7.60
Si -10.07 -4.91 -4.23
Si -8.54  3.67  7.58
Si  7.20 -2.45 -9.28
Si -7.20  2.44  9.28
Si  1.97  7.34  9.29
Si 11.40  3.67 -0.84
Si -1.97 -7.36 -9.28
Si -11.40 -3.68  0.84
Si  8.54 -3.68 -7.61
Si -11.77 -0.01  2.52
Si 11.77 -0.01 -2.55
Si -6.06 -8.58 -5.88
Si  8.42 -8.56  0.85
Si  0.81 -4.91 -10.97
Si -0.81  4.90 10.98
Si -6.54 -9.80 -2.53
Si  6.07  8.57  5.91
Si -10.44 -1.21 -5.89
Si 10.43  1.22  5.91
Si  9.21  7.36  2.53
Si  7.29  2.46  9.29
Si -9.21 -7.36 -2.53
Si -1.01 -4.89 10.98
