500
set: 764.00  0.00  0.00
Si -0.41  1.15 -0.79
Si  0.46 -1.22  0.81
Si -1.31 -1.20 -0.85
Si  1.37  1.24  0.85
Si  0.83 -0.05 -2.42
Si -0.89  0.02  2.44
Si  2.17 -1.16 -0.82
Si -2.20  1.23  0.82
Si  0.08  2.41  2.46
Si -0.06 -2.43 -2.46
Si -3.14 -1.22  0.79
Si  3.15  1.18 -0.86
Si -0.46 -3.50  0.85
Si  2.67  0.08  2.50
Si  0.52  3.53 -0.85
Si -2.68 -0.06 -2.51
Si  1.67 -2.34  2.49
Si  1.77  2.31 -2.46
Si -1.75 -2.33  2.46
Si -1.72  2.38 -2.43
Si -1.31  3.52  0.79
Si  1.32 -3.56 -0.86
Si -3.91  1.18 -0.86
Si  3.92 -1.22  0.79
Si -0.83  0.04 -4.13
Si  0.85 -0.06  4.13
Si  2.29  3.52  0.81
Si -2.24 -3.59 -0.79
Si  3.03 -3.51  0.82
Si -3.06  3.58 -0.82
Si  0.03  2.39 -4.15
Si -0.08 -2.42  4.16
Si  2.59  0.03 -4.09
Si  3.51 -2.36 -2.43
Si -3.54 -2.36 -2.43
Si -2.63  0.01  4.15
Si  3.50  2.40  2.49
Si -3.55  2.40  2.49
Si  1.76 -2.29 -4.08
Si -1.77  2.31  4.07
Si  4.37 -0.06 -2.51
Si -4.38  0.08  2.50
Si  1.75  2.32  4.16
Si  4.85  1.23  0.82
Si -4.88 -1.16 -0.82
Si -1.80 -2.35 -4.15
Si  0.84 -4.66  2.50
Si -0.85  4.67 -2.51
Si -4.03 -3.51  0.82
Si  0.94  4.76  2.44
Si  4.00  3.58 -0.82
Si -0.99 -4.79 -2.42
Si  0.46 -1.13 -5.73
Si -0.40  1.17  5.73
Si  3.46 -2.43  4.07
Si -5.68  1.24  0.85
Si -3.47  2.45 -4.08
Si  2.66  4.69 -2.42
Si  5.74 -1.20 -0.85
Si -3.60 -2.43  4.07
Si  3.58  2.45 -4.08
Si -2.71 -4.71  2.44
Si  0.34 -5.89 -0.82
Si -4.77  3.52  0.81
Si  2.55 -4.80 -2.51
Si -2.56  4.82  2.50
Si -0.37  5.97  0.82
Si  1.37  1.15 -5.77
Si -4.47  0.03 -4.09
Si  4.82 -3.59 -0.79
Si -1.32 -1.22  5.79
Si  4.42  0.01  4.15
Si  1.42  5.88 -0.79
Si -1.37 -5.96  0.81
Si  2.23 -1.19  5.72
Si -5.29  2.31 -2.46
Si  0.76 -4.71 -4.09
Si  5.31 -2.33  2.46
Si -2.23  1.15 -5.79
Si -2.08  5.91 -0.86
Si  5.34  2.38 -2.43
Si -0.80  4.74  4.15
Si  2.09 -5.96  0.79
Si -5.38 -2.34  2.49
Si  0.99  4.78 -4.13
Si -0.97 -4.80  4.13
Si  6.17  0.02  2.44
Si  3.09  1.21  5.76
Si -3.12 -1.14 -5.76
Si -6.22 -0.05 -2.42
Si -6.59 -1.22  0.81
Si -3.14 -5.94 -0.85
Si  5.74  3.52  0.79
Si  2.68  4.68  4.13
Si  6.65  1.15 -0.79
Si  0.51  3.52  5.79
Si -2.66 -4.69 -4.13
Si -5.74 -3.56 -0.86
Si  2.60 -4.73  4.15
Si -0.45 -3.59 -5.77
Si -2.64  4.77 -4.09
Si  3.20  5.97  0.85
Si  4.34 -4.71  2.44
Si -4.39  4.69 -2.42
Si  1.26 -3.53  5.76
Si -1.29  3.60 -5.76
Si  4.50  4.82  2.50
Si -4.51 -4.80 -2.51
Si  5.29  2.31  4.07
Si -5.30 -2.29 -4.08
Si  3.94 -1.14 -5.76
Si  5.25 -2.35 -4.15
Si -3.97  1.21  5.76
Si -2.23 -3.57  5.73
Si -5.31  2.32  4.16
Si  2.29  3.61 -5.73
Si -3.86  5.97  0.85
Si  3.91 -5.94 -0.85
Si -2.99  3.54  5.72
Si  3.00 -3.59 -5.79
Si -6.20 -0.06  4.13
Si  6.22  0.04 -4.13
Si -6.54  3.53 -0.85
Si -0.15 -7.08  2.49
Si  0.11  7.11 -2.43
Si  6.60 -3.50  0.85
Si  0.46 -1.13  7.43
Si -0.40  1.17 -7.43
Si -4.82 -1.19  5.72
Si -1.32 -1.22 -7.38
Si -7.46  1.15 -0.79
Si  1.37  1.15  7.39
Si -4.37  4.68  4.13
Si  4.83  1.15 -5.79
Si  4.39 -4.69 -4.13
Si  7.51 -1.22  0.81
Si  4.42  4.77 -4.09
Si  1.68 -7.10 -2.43
Si -4.46 -4.73  4.15
Si -1.73  7.14  2.49
Si  4.97  5.91 -0.86
Si -6.97  2.41  2.46
Si -2.23  1.15  7.37
Si -4.97 -5.96  0.79
Si  1.91  7.15  2.46
Si  6.99 -2.43 -2.46
Si -1.89 -7.17 -2.46
Si  4.06  3.54  5.72
Si  2.23 -1.19 -7.45
Si -7.12 -2.43 -2.46
Si  7.13  2.41  2.46
Si -4.05 -3.59 -5.79
Si  6.06 -4.79 -2.42
Si -3.12 -1.14  7.40
Si  3.09  1.21 -7.40
Si -6.11  4.76  2.44
Si -0.07 -7.03 -4.08
Si  0.06  7.04  4.07
Si -6.21 -4.66  2.50
Si  6.20  4.67 -2.51
Si -5.68  1.15 -5.77
Si  0.51  3.52 -7.38
Si -5.64  5.88 -0.79
Si -3.46  7.05 -2.46
Si -0.45 -3.59  7.39
Si  5.73 -1.22  5.79
Si  3.48 -7.06  2.46
Si  0.41 -5.93  5.72
Si  7.89 -0.05 -2.42
Si -0.40  5.89 -5.79
Si  5.69 -5.96  0.81
Si  3.60  7.05 -2.46
Si -4.77  3.61 -5.73
Si -3.57 -7.06  2.46
Si  1.26 -3.53 -7.40
Si  4.83 -3.57  5.73
Si -7.94  0.02  2.44
Si  0.52  8.26  0.79
Si -1.37 -5.87 -5.73
Si -7.51 -3.50  0.85
Si -1.29  3.60  7.40
Si  1.43  5.90  5.73
Si -0.51 -8.30 -0.86
Si  1.20 -8.24  0.82
Si  7.57  3.53 -0.85
Si  1.63 -7.17  4.07
Si -1.64  7.18 -4.08
Si -1.23  8.32 -0.82
Si  1.85  7.13 -4.15
Si  3.94 -1.14  7.40
Si  6.97 -2.42  4.16
Si -3.97  1.21 -7.40
Si  2.11 -5.88 -5.76
Si -8.37 -1.20 -0.85
Si -1.91 -7.16  4.16
Si -7.03  2.39 -4.15
Si -2.23 -3.57 -7.43
Si  7.08  2.39 -4.15
Si -2.14  5.95  5.76
Si  8.43  1.24  0.85
Si  2.29  3.61  7.43
Si -2.28 -8.24  0.85
Si -7.14 -2.42  4.16
Si  2.34  8.27 -0.85
Si  3.00 -3.59  7.37
Si -6.06  4.78 -4.13
Si -2.99  3.54 -7.45
Si  6.08 -4.80  4.13
Si -2.94  8.26  0.81
Si -6.60 -1.13 -5.73
Si  3.20  5.89 -5.77
Si  6.66  1.17  5.73
Si -6.29 -4.71 -4.09
Si  6.25  4.74  4.15
Si  2.99 -8.33 -0.79
Si -3.15 -5.96  5.79
Si  4.83  1.15  7.37
Si  3.43 -7.08 -4.15
Si -5.80 -3.53  5.76
Si -3.48  7.06  4.16
Si -7.89  0.04 -4.13
Si  5.77  3.60 -5.76
Si  7.91 -0.06  4.13
Si  3.57  7.06  4.16
Si -4.82 -1.19 -7.45
Si -6.71 -5.89 -0.82
Si -3.63 -7.08 -4.15
Si  6.68  5.97  0.82
Si -0.83  0.04  9.04
Si  0.85 -0.06 -9.04
Si -3.85  5.89 -5.77
Si -8.37  3.52  0.79
Si  8.38 -3.56 -0.86
Si -5.15  7.15  2.46
Si -4.05 -3.59  7.37
Si  5.17 -7.17 -2.46
Si  3.90 -5.96  5.79
Si  4.06  3.54 -7.45
Si -5.37 -7.10 -2.43
Si  5.33  7.14  2.49
Si  4.11  8.26  0.81
Si -4.06 -8.33 -0.79
Si -0.08 -2.42 -9.00
Si  0.03  2.39  9.02
Si  9.23 -1.16 -0.82
Si  8.73 -2.34  2.49
Si -9.26  1.23  0.82
Si -2.63  0.01 -9.01
Si -5.68  1.15  7.39
Si -8.77  2.38 -2.43
Si  5.73 -1.22 -7.38
Si -6.55  3.52  5.79
Si -8.80 -2.33  2.46
Si  2.59  0.03  9.07
Si -0.40  5.89  7.37
Si  8.82  2.31 -2.46
Si  1.75  2.32 -9.00
Si  6.60 -3.59 -5.77
Si -7.45  1.17  5.73
Si -1.80 -2.35  9.02
Si  7.40 -5.89 -0.82
Si  7.90 -4.66  2.50
Si  7.51 -1.13 -5.73
Si -7.91  4.67 -2.51
Si  1.76 -2.29  9.08
Si  0.41 -5.93 -7.45
Si -4.77  3.61  7.43
Si -1.77  2.31 -9.09
Si  4.83 -3.57 -7.43
Si  4.77 -8.24  0.85
Si -4.71  8.27 -0.85
Si -7.43  5.97  0.82
Si -1.37 -5.87  7.43
Si  1.43  5.90 -7.43
Si -4.94 -5.88 -5.76
Si  8.00  4.76  2.44
Si  4.91  5.95  5.76
Si -8.05 -4.79 -2.42
Si  2.11 -5.88  7.40
Si -2.14  5.95 -7.40
Si  5.14 -7.16  4.16
Si -5.20  7.13 -4.15
Si -0.98 -9.40  2.50
Si  0.97  9.41 -2.51
Si -5.42 -7.17  4.07
Si  5.41  7.18 -4.08
Si  0.72 -9.54 -2.51
Si -0.73  9.55  2.50
Si -5.63  5.90  5.73
Si  3.20  5.89  7.39
Si  8.81 -2.29 -4.08
Si  5.68 -5.87 -5.73
Si -8.82  2.31  4.07
Si -3.15 -5.96 -7.38
Si -9.29 -3.59 -0.79
Si  7.82 -4.71 -4.09
Si -6.60 -1.13  7.43
Si  8.80  2.32  4.16
Si  9.34  3.52  0.81
Si -3.47  2.45  9.08
Si  3.46 -2.43 -9.09
Si  4.42  0.01 -9.01
Si  9.72  0.08  2.50
Si -5.80 -3.53 -7.40
Si  6.66  1.17 -7.43
Si  5.77  3.60  7.40
Si -8.85 -2.35 -4.15
Si -9.74 -0.06 -2.51
Si  3.58  2.45  9.08
Si -2.57  9.43 -2.42
Si -7.86  4.74  4.15
Si -3.60 -2.43 -9.09
Si  2.51 -9.45  2.44
Si -0.57 -8.26  5.76
Si -4.47  0.03  9.07
Si -7.51 -3.59 -5.77
Si -1.17  8.28  5.72
Si -5.86 -8.24  0.82
Si  7.56  3.52  5.79
Si  0.54  8.34 -5.76
Si  5.83  8.32 -0.82
Si  2.77  9.50  2.44
Si  6.90 -7.08  2.49
Si -3.85  5.89  7.39
Si  1.17 -8.32 -5.79
Si -0.80  4.74 -9.01
Si -8.03 -4.80  4.13
Si -2.82 -9.53 -2.42
Si  8.05  4.78 -4.13
Si -6.94  7.11 -2.43
Si  0.76 -4.71  9.07
Si  3.90 -5.96 -7.38
Si -8.38 -1.22  5.79
Si  0.99  4.78  9.04
Si -0.97 -4.80 -9.04
Si  8.43  1.15 -5.77
Si -10.20 -1.22  0.79
Si 10.20  1.18 -0.86
Si  8.47  5.88 -0.79
Si  2.33  8.25  5.79
Si -8.42 -5.96  0.81
Si -1.07 -9.45 -4.09
Si  0.77 -9.47  4.15
Si -0.81  9.51 -4.09
Si -2.28 -8.32 -5.77
Si  7.17  7.11 -2.43
Si  1.02  9.48  4.15
Si -7.21 -7.08  2.49
Si -6.55  3.52 -7.38
Si  9.64  0.03 -4.09
Si  2.60 -4.73 -9.01
Si  2.68  4.68 -9.04
Si -2.66 -4.69  9.04
Si  3.00 -8.31  5.73
Si -9.69  0.01  4.15
Si  6.60 -3.59  7.39
Si -2.94  8.34 -5.73
Si -6.54  8.26  0.79
Si -2.64  4.77  9.07
Si -6.65 -5.93  5.72
Si -7.45  1.17 -7.43
Si -2.55  9.41  4.13
Si  6.66  5.89 -5.79
Si  6.55 -8.30 -0.86
Si  2.57 -9.43 -4.13
Si  7.51 -1.13  7.43
Si -4.94 -5.88  7.40
Si -0.25 10.65 -0.86
Si  4.91  5.95 -7.40
Si  5.25 -2.35  9.02
Si  4.23 -9.53 -2.42
Si -4.29  9.50  2.44
Si 10.08 -3.51  0.82
Si -5.31  2.32 -9.00
Si  8.31 -3.53  5.76
Si  4.49  9.43 -2.42
Si  6.98 -7.03 -4.08
Si  0.26 -10.69  0.79
Si -7.00  7.04  4.07
Si  2.82  9.52 -4.13
Si -10.11  3.58 -0.82
Si -8.34  3.60 -5.76
Si -5.30 -2.29  9.08
Si -2.80 -9.54  4.13
Si -0.89  0.02 -10.73
Si -4.54 -9.45  2.44
Si -1.48 -10.63 -0.82
Si  5.29  2.31 -9.09
Si  0.83 -0.05 10.74
Si  7.12  7.04  4.07
Si -7.13 -7.03 -4.08
Si  1.45 10.71  0.82
Si -4.05 -8.31  5.73
Si  2.09 -10.68 -0.85
Si -9.13  5.91 -0.86
Si  4.11  8.34 -5.73
Si -2.03 10.71  0.85
Si  9.14 -5.96  0.79
Si -6.20 -0.06 -9.04
Si  6.22  0.04  9.04
Si  9.29 -1.19  5.72
Si  0.08  2.41 -10.71
Si -0.06 -2.43 10.71
Si -2.68 -0.06 10.65
Si  2.67  0.08 -10.67
Si -9.28  1.15 -5.79
Si  9.60 -4.80 -2.51
Si -5.63  5.90 -7.43
Si -9.61  4.82  2.50
Si  5.68 -5.87  7.43
Si  9.71  4.69 -2.42
Si  1.67 -2.34 -10.68
Si -10.96  1.18 -0.86
Si 10.97 -1.22  0.79
Si -4.37  4.68 -9.04
Si  4.39 -4.69  9.04
Si 10.56 -2.36 -2.43
Si -1.75 -2.33 -10.71
Si  1.77  2.31 10.71
Si 10.56  2.40  2.49
Si -0.57 -8.26 -7.40
Si -4.46 -4.73 -9.01
Si  7.46 -5.93  5.72
Si -9.77 -4.71  2.44
Si -7.45  5.89 -5.79
Si -1.72  2.38 10.73
Si -10.60 -2.36 -2.43
Si -7.51 -3.59  7.39
Si  7.56  3.52 -7.38
Si -4.72  8.25  5.79
Si  3.25 10.62 -0.79
Si -10.61  2.40  2.49
Si  4.42  4.77  9.07
Si  0.54  8.34  7.40
Si  1.17 -8.32  7.37
Si -3.20 -10.69  0.81
Si -1.17  8.28 -7.45
Si  4.77 -8.32 -5.77
Si -4.23  9.52 -4.13
Si  4.51  9.41  4.13
Si -8.38 -1.22 -7.38
Si  4.25 -9.54  4.13
Si  7.57  8.26  0.79
Si -4.49 -9.43 -4.13
Si -7.56 -8.30 -0.86
Si  8.43  1.15  7.39
Si  2.33  8.25 -7.38
Si -3.81 10.62 -0.79
Si -2.28 -8.32  7.39
Si  3.86 -10.69  0.81
Si  6.07 -9.40  2.50
Si -9.28 -3.57  5.73
Si -0.07 -7.03  9.08
Si -6.08  9.41 -2.51
Si  3.50  2.40 -10.68
Si  0.06  7.04 -9.09
Si -3.55  2.40 -10.68
Si  4.37 -0.06 10.65
Si  8.74 -7.10 -2.43
Si  9.65 -4.73  4.15
Si -4.38  0.08 -10.67
Si 10.51 -2.43  4.07
Si  9.34  3.61 -5.73
Si  3.51 -2.36 10.73
Si  3.00 -8.31 -7.43
Si  6.66  5.89  7.37
Si -3.54 -2.36 10.73
Si -9.71 -4.69 -4.13
Si -10.53  2.45 -4.08
Si -2.94  8.34  7.43
Si -9.69  4.77 -4.09
Si  9.74  4.68  4.13
Si -8.78  7.14  2.49
Si -6.65 -5.93 -7.45
Si  6.97 -2.42 -9.00
Si  1.85  7.13  9.02
Si 11.05  3.58 -0.82
Si -11.08 -3.51  0.82
Si 10.64  2.45 -4.08
Si -10.65 -2.43  4.07
Si -1.91 -7.16 -9.00
Si  5.89  8.28  5.72
Si -0.85  4.67 10.65
Si  0.84 -4.66 -10.67
Si  8.31 -3.53 -7.40
Si -7.03  2.39  9.02
Si  8.25 -8.24  0.82
Si  1.63 -7.17 -9.09
Si -1.64  7.18  9.08
Si 11.43 -0.06 -2.51
Si -11.44  0.08  2.50
Si  7.08  2.39  9.02
Si -8.34  3.60  7.40
Si -8.94 -7.17 -2.46
Si -6.34 -9.54 -2.51
Si -5.88 -8.32 -5.79
Si  8.96  7.15  2.46
Si 10.14  1.21  5.76
Si  6.33  9.55  2.50
Si -7.14 -2.42 -9.00
