500
set: 593.00  0.00  0.00
Si  0.00  0.00  0.00
Si -1.73  1.04  0.73
Si  1.80  1.04  0.73
Si  0.09 -2.11  0.73
Si  0.22 -0.24 -2.27
Si -3.53  0.00  0.00
Si  3.53  0.00  0.00
Si -0.13 -1.87  3.01
Si  0.13  1.87 -3.01
Si  1.71  3.15  0.00
Si -1.71 -3.15  0.00
Si -1.58 -1.28 -3.01
Si  1.58  1.28  3.01
Si -1.82  3.15  0.00
Si  1.82 -3.15  0.00
Si  1.95 -1.28 -3.01
Si -1.95  1.28  3.01
Si -3.31 -0.24 -2.27
Si -1.60  2.91 -2.27
Si -3.44 -2.11  0.73
Si  1.93  2.91 -2.27
Si  1.67 -0.83  3.74
Si -0.03  4.19  0.73
Si  3.62 -2.11  0.73
Si -1.86 -0.83  3.74
Si -1.48 -3.40 -2.27
Si  3.75 -0.24 -2.27
Si -0.15  2.32  3.74
Si  2.04 -3.40 -2.27
Si -3.40  1.87 -3.01
Si  3.40 -1.87  3.01
Si -3.66 -1.87  3.01
Si  3.66  1.87 -3.01
Si  0.25 -4.43 -3.01
Si -0.25  4.43  3.01
Si -5.26  1.04  0.73
Si -0.04 -3.98  3.74
Si  5.33  1.04  0.73
Si  3.50  4.19  0.73
Si  0.35  1.62 -5.28
Si -3.55  4.19  0.73
Si  3.37  2.32  3.74
Si -1.61 -5.27  0.73
Si  1.92 -5.27  0.73
Si -1.35 -1.53 -5.28
Si -3.68  2.32  3.74
Si  2.17 -1.53 -5.28
Si  5.10  1.28  3.01
Si -5.10 -1.28 -3.01
Si -1.69  5.02 -3.01
Si  1.69 -5.02  3.01
Si  5.23  3.15  0.00
Si -5.23 -3.15  0.00
Si -1.83 -5.02  3.01
Si  1.83  5.02 -3.01
Si -5.35  3.15  0.00
Si  5.35 -3.15  0.00
Si  1.45 -0.59  6.02
Si -1.45  0.59 -6.02
Si -3.28 -4.43 -3.01
Si  3.28  4.43  3.01
Si -0.12  6.30  0.00
Si  0.12 -6.30  0.00
Si -5.13  2.91 -2.27
Si -3.18  1.62 -5.28
Si -5.48  1.28  3.01
Si  5.48 -1.28 -3.01
Si -2.08 -0.59  6.02
Si  2.08  0.59 -6.02
Si  5.20 -0.83  3.74
Si -5.01 -3.40 -2.27
Si  0.10  6.06 -2.27
Si  3.49 -3.98  3.74
Si -3.56 -3.98  3.74
Si -0.38  2.57  6.02
Si  0.38 -2.57 -6.02
Si -3.77  4.43  3.01
Si  3.77 -4.43 -3.01
Si  5.46  2.91 -2.27
Si -5.39 -0.83  3.74
Si  3.88  1.62 -5.28
Si -0.28  0.45  6.75
Si  1.55  5.47  3.74
Si  5.57 -3.40 -2.27
Si -1.98  5.47  3.74
Si  0.34 -6.55 -2.27
Si -7.06  0.00  0.00
Si  7.06  0.00  0.00
Si  0.47 -4.68 -5.28
Si  0.26  3.74 -6.02
Si -0.26 -3.74  6.02
Si -3.41 -6.30  0.00
Si  3.41  6.30  0.00
Si -6.83 -0.24 -2.27
Si -3.15 -2.57 -6.02
Si  3.15  2.57  6.02
Si -1.47  4.78 -5.28
Si -3.65  6.30  0.00
Si  3.65 -6.30  0.00
Si -6.96 -2.11  0.73
Si -3.42  6.06 -2.27
Si -4.88 -1.53 -5.28
Si -5.14 -5.27  0.73
Si  2.06  4.78 -5.28
Si  3.63  6.06 -2.27
Si  1.54 -2.70  6.75
Si  7.15 -2.11  0.73
Si  3.24  0.45  6.75
Si -1.99 -2.70  6.75
Si  1.68  7.34  0.73
Si -1.85  7.34  0.73
Si  5.44 -5.27  0.73
Si -3.90  2.57  6.02
Si  3.90 -2.57 -6.02
Si  7.28 -0.24 -2.27
Si -3.19 -6.55 -2.27
Si -3.06 -4.68 -5.28
Si -3.81  0.45  6.75
Si  6.93 -1.87  3.01
Si -6.93  1.87 -3.01
Si  1.42  3.60  6.75
Si -3.27  3.74 -6.02
Si  3.27 -3.74  6.02
Si  4.97 -0.59  6.02
Si -4.97  0.59 -6.02
Si -5.22  5.02 -3.01
Si  5.22 -5.02  3.01
Si  5.70 -1.53 -5.28
Si -2.11  3.60  6.75
Si  3.87 -6.55 -2.27
Si -5.36 -5.02  3.01
Si  5.36  5.02 -3.01
Si -7.19 -1.87  3.01
Si  7.19  1.87 -3.01
Si -3.79 -3.74  6.02
Si  3.79  3.74 -6.02
Si  4.00 -4.68 -5.28
Si  6.90  2.32  3.74
Si  7.03  4.19  0.73
Si -1.74 -7.13  3.74
Si -5.61 -0.59  6.02
Si  5.61  0.59 -6.02
Si  1.79 -7.13  3.74
Si -7.08  4.19  0.73
Si -1.46 -7.59 -3.01
Si  1.46  7.59  3.01
Si  5.08  5.47  3.74
Si -1.22  0.34 -8.29
Si -1.33 -5.72 -6.02
Si  1.33  5.72  6.02
Si  2.07 -7.59 -3.01
Si -2.07  7.59  3.01
Si -7.21  2.32  3.74
Si  0.21 -8.42  0.73
Si  2.20 -5.72 -6.02
Si -2.20  5.72  6.02
Si  2.30  0.34 -8.29
Si -5.50  5.47  3.74
Si -6.81 -4.43 -3.01
Si  6.81  4.43  3.01
Si -6.70  1.62 -5.28
Si -5.00  4.78 -5.28
Si -0.01 -8.17  3.01
Si  0.01  8.17 -3.01
Si  0.60 -2.81 -8.29
Si  5.07 -2.70  6.75
Si -8.79  1.04  0.73
Si  7.02 -3.98  3.74
Si -0.17 -5.85  6.75
Si  8.85  1.04  0.73
Si -7.09 -3.98  3.74
Si  0.48  3.49 -8.29
Si  5.21  7.34  0.73
Si  5.58  4.78 -5.28
Si -7.30  4.43  3.01
Si  7.30 -4.43 -3.01
Si  0.51 -0.70 -9.03
Si -0.51  0.70  9.03
Si -3.32 -8.42  0.73
Si  4.95  3.60  6.75
Si -5.52 -2.70  6.75
Si -5.38  7.34  0.73
Si  8.63  1.28  3.01
Si -8.63 -1.28 -3.01
Si -2.93 -2.81 -8.29
Si  3.74 -8.42  0.73
Si  7.41  1.62 -5.28
Si  1.56 -6.89  6.02
Si -1.56  6.89 -6.02
Si -8.76 -3.15  0.00
Si  8.76  3.15  0.00
Si  6.68  2.57  6.02
Si -6.68 -2.57 -6.02
Si  1.96  6.89 -6.02
Si -1.96 -6.89  6.02
Si  6.94  6.30  0.00
Si -6.94 -6.30  0.00
Si -3.52  8.17 -3.01
Si  3.52 -8.17  3.01
Si -3.54 -8.17  3.01
Si  3.54  8.17 -3.01
Si -0.27  8.62  3.74
Si -8.66  2.91 -2.27
Si  8.88 -3.15  0.00
Si -8.88  3.15  0.00
Si  1.32 -2.46  9.03
Si -1.32  2.46 -9.03
Si -8.54 -3.40 -2.27
Si -6.95  6.06 -2.27
Si -3.05  3.49 -8.29
Si -5.63  3.60  6.75
Si -1.24 -7.83 -5.28
Si  8.72 -0.83  3.74
Si  0.23  7.93 -5.28
Si -3.02 -0.70 -9.03
Si  3.02  0.70  9.03
Si  3.36 -5.85  6.75
Si -7.17  6.30  0.00
Si  7.17 -6.30  0.00
Si -0.40  6.76  6.75
Si -4.75  0.34 -8.29
Si  4.99  7.59  3.01
Si -4.99 -7.59 -3.01
Si  6.77  0.45  6.75
Si -9.01  1.28  3.01
Si  9.01 -1.28 -3.01
Si -1.59 -9.46  0.00
Si  1.59  9.46  0.00
Si -2.21 -2.46  9.03
Si  2.21  2.46 -9.03
Si  4.86  5.72  6.02
Si -4.86 -5.72 -6.02
Si -5.27 -7.13  3.74
Si -1.72  9.21 -2.27
Si  5.31 -7.13  3.74
Si  7.16  6.06 -2.27
Si -1.94  9.46  0.00
Si  1.94 -9.46  0.00
Si -6.72 -6.55 -2.27
Si -6.59 -4.68 -5.28
Si  1.81  9.21 -2.27
Si -3.69 -5.85  6.75
Si  4.13 -2.81 -8.29
Si -8.92 -0.83  3.74
Si  8.98  2.91 -2.27
Si  2.29 -7.83 -5.28
Si -6.80  3.74 -6.02
Si  6.80 -3.74  6.02
Si  4.01  3.49 -8.29
Si -0.41 -1.42  9.76
Si -1.20 -3.85 -9.03
Si  1.20  3.85  9.03
Si  5.60 -7.59 -3.01
Si -5.60  7.59  3.01
Si -7.43  2.57  6.02
Si  7.43 -2.57 -6.02
Si -4.03  0.70  9.03
Si  4.03 -0.70 -9.03
Si  3.26  8.62  3.74
Si  9.10 -3.40 -2.27
Si -7.34  0.45  6.75
Si  1.29  1.74  9.76
Si -8.41 -1.53 -5.28
Si  3.13  6.76  6.75
Si -1.37 -9.70 -2.27
Si -3.29  7.93 -5.28
Si  5.73 -5.72 -6.02
Si -5.73  5.72  6.02
Si  2.33 -3.85 -9.03
Si -2.33  3.85  9.03
Si  7.39 -6.55 -2.27
Si -3.80  8.62  3.74
Si  5.83  0.34 -8.29
Si -2.24  1.74  9.76
Si -8.67 -5.27  0.73
Si -7.32 -3.74  6.02
Si  7.32  3.74 -6.02
Si  2.16 -9.70 -2.27
Si  3.76  7.93 -5.28
Si -1.11 -5.96 -8.29
Si  7.53 -4.68 -5.28
Si -3.93  6.76  6.75
Si  3.11 -1.42  9.76
Si  8.97 -5.27  0.73
Si  8.50 -0.59  6.02
Si -8.50  0.59 -6.02
Si -5.09  6.89 -6.02
Si  5.09 -6.89  6.02
Si  2.42 -5.96 -8.29
Si -0.14 10.49  0.73
Si  8.75 -5.02  3.01
Si -8.75  5.02 -3.01
Si -4.84  2.46 -9.03
Si  4.84 -2.46  9.03
Si -4.76 -7.83 -5.28
Si -10.58  0.00  0.00
Si 10.58  0.00  0.00
Si -10.36 -0.24 -2.27
Si -3.94 -1.42  9.76
Si  0.39  5.61 -9.03
Si -0.39 -5.61  9.03
Si  8.89  5.02 -3.01
Si -8.89 -5.02  3.01
Si  5.49  6.89 -6.02
Si -5.49 -6.89  6.02
Si -1.34  6.64 -8.29
Si -10.49 -2.11  0.73
Si -0.49  8.87  6.02
Si  0.49 -8.87 -6.02
Si  9.23 -1.53 -5.28
Si -5.12 -9.46  0.00
Si  5.12  9.46  0.00
Si -5.25  9.21 -2.27
Si  2.19  6.64 -8.29
Si  8.61  5.47  3.74
Si  1.41 -4.57  9.76
Si -6.85 -8.42  0.73
Si -6.46 -2.81 -8.29
Si  5.34  9.21 -2.27
Si  4.73  3.85  9.03
Si -4.73 -3.85 -9.03
Si 10.68 -2.11  0.73
Si -5.47  9.46  0.00
Si  5.47 -9.46  0.00
Si -0.53  4.89  9.76
Si  0.08 -10.29  3.74
Si  9.14  0.59 -6.02
Si -9.14 -0.59  6.02
Si  5.74  2.46 -9.03
Si -5.74 -2.46  9.03
Si -2.12 -4.57  9.76
Si  4.82  1.74  9.76
Si -10.45  1.87 -3.01
Si 10.45 -1.87  3.01
Si 10.81 -0.24 -2.27
Si  3.39 10.49  0.73
Si  3.14 -5.61  9.03
Si -3.14  5.61 -9.03
Si  5.82 -7.83 -5.28
Si -4.89 -9.70 -2.27
Si -8.53  4.78 -5.28
Si  3.03  8.87  6.02
Si -3.03 -8.87 -6.02
Si -3.67 10.49  0.73
Si -6.58  3.49 -8.29
Si  7.27 -8.42  0.73
Si  0.36 -10.74 -3.01
Si -0.36 10.74  3.01
Si -6.55 -0.70 -9.03
Si  6.55  0.70  9.03
Si -7.04  8.17 -3.01
Si  7.04 -8.17  3.01
Si -9.03  5.47  3.74
Si -4.63 -5.96 -8.29
Si -7.07 -8.17  3.01
Si  7.07  8.17 -3.01
Si  8.60 -2.70  6.75
Si  6.89 -5.85  6.75
Si 10.71  1.87 -3.01
Si -10.71 -1.87  3.01
Si  3.00  4.89  9.76
Si 10.43  2.32  3.74
Si  3.92  5.61 -9.03
Si -3.92 -5.61  9.03
Si  0.73 -0.94 -11.30
Si  1.66 -9.00  6.75
Si 10.56  4.19  0.73
Si -1.87 -9.00  6.75
Si  8.48  3.60  6.75
Si  5.86 -3.85 -9.03
Si -5.86  3.85  9.03
Si -10.61  4.19  0.73
Si  8.74  7.34  0.73
Si  0.62 -7.00 -9.03
Si -0.62  7.00  9.03
Si -4.02  8.87  6.02
Si  4.02 -8.87 -6.02
Si -5.76  1.74  9.76
Si  5.69 -9.70 -2.27
Si -3.45 -10.29  3.74
Si -7.22 -5.85  6.75
Si  3.61 -10.29  3.74
Si -8.90  7.34  0.73
Si  9.11  4.78 -5.28
Si -1.09  2.21 -11.30
Si -3.16 -10.74 -3.01
Si  3.16 10.74  3.01
Si  6.78  8.62  3.74
Si -9.04 -2.70  6.75
Si -10.74  2.32  3.74
Si -10.23  1.62 -5.28
Si  7.65 -2.81 -8.29
Si  6.66  6.76  6.75
Si -10.34 -4.43 -3.01
Si 10.34  4.43  3.01
Si -4.06  4.89  9.76
Si -2.80 -0.94 -11.30
Si -4.87  6.64 -8.29
Si -1.50 -11.57  0.73
Si  0.14 10.04 -6.02
Si -0.14 -10.04  6.02
Si -6.82  7.93 -5.28
Si -8.28  0.34 -8.29
Si  7.54  3.49 -8.29
Si  2.43  2.21 -11.30
Si  2.03 -11.57  0.73
Si -2.90 -7.00 -9.03
Si  2.90  7.00  9.03
Si  8.51  7.59  3.01
Si -8.51 -7.59 -3.01
Si  7.56 -0.70 -9.03
Si -7.56  0.70  9.03
Si  8.38  5.72  6.02
Si -8.38 -5.72 -6.02
Si -3.89 10.74  3.01
Si  3.89 -10.74 -3.01
Si  5.95 -5.96 -8.29
Si  1.72 11.32 -3.01
Si -1.72 -11.32  3.01
Si  4.94 -4.57  9.76
Si  1.81 -11.32  3.01
Si -1.81 11.32 -3.01
Si 10.55 -3.98  3.74
Si  6.64 -1.42  9.76
Si -7.33  8.62  3.74
Si -8.80 -7.13  3.74
Si -9.16  3.60  6.75
Si -10.62 -3.98  3.74
Si  8.84 -7.13  3.74
Si  7.29  7.93 -5.28
Si -0.98 -4.09 -11.30
Si  1.30  9.91  6.75
Si  5.71  6.64 -8.29
Si 10.83 -4.43 -3.01
Si -10.83  4.43  3.01
Si -0.64 -1.17 12.04
Si  0.64  1.17 -12.04
Si  4.26 -0.94 -11.30
Si -7.46  6.76  6.75
Si -10.21 -2.57 -6.02
Si 10.21  2.57  6.02
Si -4.15  7.00  9.03
Si  4.15 -7.00 -9.03
Si -5.65 -4.57  9.76
Si  3.39 -10.04  6.02
Si -3.39 10.04 -6.02
Si -2.22  9.91  6.75
Si  0.59 -10.98 -5.28
Si 10.47  6.30  0.00
Si -10.47 -6.30  0.00
Si -9.12  7.59  3.01
Si  9.12 -7.59 -3.01
Si -1.07 -1.98 -12.04
Si  1.07  1.98 12.04
Si 10.94  1.62 -5.28
Si -3.67 -10.04  6.02
Si  3.67 10.04 -6.02
Si  2.55 -4.09 -11.30
Si -10.48  6.06 -2.27
Si 10.30  0.45  6.75
Si -10.12 -4.68 -5.28
Si  0.72 -9.12 -8.29
Si -10.24 -6.55 -2.27
Si -7.47 -1.42  9.76
Si -1.59 11.08 -5.28
Si -12.31  1.04  0.73
Si  5.18 -9.00  6.75
Si -4.62  2.21 -11.30
Si 10.70 -6.30  0.00
Si -10.70  6.30  0.00
Si  1.94 11.08 -5.28
Si  9.26 -5.72 -6.02
Si -9.26  5.72  6.02
Si  2.89 -1.17 12.04
Si -2.89  1.17 -12.04
Si  1.43 11.78  3.74
Si -2.46  1.98 12.04
Si  2.46 -1.98 -12.04
Si 12.38  1.04  0.73
Si -0.30 -7.72  9.76
Si -5.40 -9.00  6.75
Si 10.69  6.06 -2.27
Si  9.36  0.34 -8.29
Si -10.32  3.74 -6.02
Si 10.32 -3.74  6.02
Si  0.61  5.36 -11.30
Si -2.09 11.78  3.74
Si -2.94 -10.98 -5.28
Si  6.67 -5.61  9.03
Si -6.67  5.61 -9.03
Si -8.37  2.46 -9.03
Si  8.37 -2.46  9.03
Si  6.56  8.87  6.02
Si -6.56 -8.87 -6.02
Si  8.62 -6.89  6.02
Si -8.62  6.89 -6.02
Si -0.01 12.36 -2.27
Si -8.29 -7.83 -5.28
Si  6.91 10.49  0.73
Si -12.16 -1.28 -3.01
