500
set: 585.00  0.00  0.00
Si  0.00  0.00  0.00
Si  0.09  0.05 -2.15
Si  1.81  1.04  0.74
Si  0.41 -2.06  0.74
Si -1.84  1.04  0.74
Si -1.40 -3.11  0.00
Si  1.40  3.11  0.00
Si -1.72 -0.99 -2.89
Si  1.72  0.99  2.89
Si  0.32 -2.11  2.89
Si -0.32  2.11 -2.89
Si  1.93 -0.99 -2.89
Si -1.93  0.99  2.89
Si -3.65  0.00  0.00
Si  3.65  0.00  0.00
Si  2.25 -3.11  0.00
Si -2.25  3.11  0.00
Si -3.24 -2.06  0.74
Si -1.30 -3.06 -2.15
Si -1.52 -1.07  3.62
Si  1.49  3.15 -2.15
Si -3.56  0.05 -2.15
Si -0.13  2.04  3.62
Si -0.45  4.15  0.74
Si  3.74  0.05 -2.15
Si  2.13 -1.07  3.62
Si -2.17  3.15 -2.15
Si  2.35 -3.06 -2.15
Si  4.06 -2.06  0.74
Si -3.33 -2.11  2.89
Si  3.33  2.11 -2.89
Si -0.54  4.10  2.89
Si  0.54 -4.10 -2.89
Si  3.20  4.15  0.74
Si -0.98 -5.17  0.74
Si -3.97  2.11 -2.89
Si  3.97 -2.11  2.89
Si -1.63 -0.95 -5.04
Si  3.52  2.04  3.62
Si -0.23  2.16 -5.04
Si  2.02 -0.95 -5.04
Si  0.73 -4.17  3.62
Si  5.46  1.04  0.74
Si -3.78  2.04  3.62
Si -5.49  1.04  0.74
Si  2.67 -5.17  0.74
Si -4.10  4.15  0.74
Si  3.11  4.10  2.89
Si -3.11 -4.10 -2.89
Si -5.04 -3.11  0.00
Si  5.04  3.11  0.00
Si  1.07  5.22 -2.89
Si -1.07 -5.22  2.89
Si  1.61  1.12 -5.78
Si -1.61 -1.12  5.78
Si  0.22 -1.99 -5.78
Si -0.22  1.99  5.78
Si  5.37  0.99  2.89
Si -5.37 -0.99 -2.89
Si -4.96 -3.06 -2.15
Si -2.04  1.12 -5.78
Si  2.04 -1.12  5.78
Si -2.92 -4.17  3.62
Si -0.86  6.21  0.00
Si  0.86 -6.21  0.00
Si  5.58 -0.99 -2.89
Si -5.58  0.99  2.89
Si  5.13  3.15 -2.15
Si -5.17 -1.07  3.62
Si  1.27  5.14  3.62
Si  3.42  2.16 -5.04
Si  0.63 -4.05 -5.04
Si -2.58  5.22 -2.89
Si  2.58 -5.22  2.89
Si  0.20 -0.07  6.51
Si  4.19 -4.10 -2.89
Si -4.19  4.10  2.89
Si  0.95 -6.16 -2.15
Si -0.77  6.26 -2.15
Si  5.91 -3.11  0.00
Si -5.91  3.11  0.00
Si -3.88  2.16 -5.04
Si -2.38  5.14  3.62
Si  2.79  6.21  0.00
Si -2.79 -6.21  0.00
Si  5.78 -1.07  3.62
Si -5.82  3.15 -2.15
Si -4.63 -5.17  0.74
Si  3.43  1.99  5.78
Si -3.43 -1.99 -5.78
Si  4.38 -4.17  3.62
Si -2.70 -6.16 -2.15
Si  6.00 -3.06 -2.15
Si -3.02 -4.05 -5.04
Si -0.64  4.22 -5.78
Si  0.64 -4.22  5.78
Si  2.88  6.26 -2.15
Si -6.89 -2.06  0.74
Si  3.87 -1.99 -5.78
Si -3.87  1.99  5.78
Si  7.30  0.00  0.00
Si -7.30  0.00  0.00
Si -1.20 -3.18  6.51
Si  0.95  7.25  0.74
Si -5.28 -0.95 -5.04
Si  1.59  3.03  6.51
Si -3.45 -0.07  6.51
Si  1.16  5.26 -5.04
Si -2.06  3.03  6.51
Si -7.21  0.05 -2.15
Si  3.85 -0.07  6.51
Si -4.72 -5.22  2.89
Si  4.72  5.22 -2.89
Si  5.67 -0.95 -5.04
Si  2.45 -3.18  6.51
Si  4.51 -6.21  0.00
Si -4.51  6.21  0.00
Si  7.39  0.05 -2.15
Si -2.49  5.26 -5.04
Si  4.28 -4.05 -5.04
Si  3.01  4.22 -5.78
Si -3.01 -4.22  5.78
Si -2.70  7.25  0.74
Si  1.18  5.10  5.78
Si -1.18 -5.10 -5.78
Si -0.86 -7.21 -2.89
Si  0.86  7.21  2.89
Si -6.98 -2.11  2.89
Si  6.98  2.11 -2.89
Si  5.26  1.12 -5.78
Si -5.26 -1.12  5.78
Si -4.42  6.26 -2.15
Si  4.60 -6.16 -2.15
Si  4.92  5.14  3.62
Si  7.71 -2.06  0.74
Si  6.85  4.15  0.74
Si  2.47 -5.10 -5.78
Si -2.47  5.10  5.78
Si -0.66 -7.28  3.62
Si  0.31 -1.94 -7.92
Si -5.69  1.12 -5.78
Si  5.69 -1.12  5.78
Si  1.70  1.16 -7.92
Si  6.32 -5.17  0.74
Si -1.95  1.16 -7.92
Si  2.79 -7.21 -2.89
Si -2.79  7.21  2.89
Si  7.17  2.04  3.62
Si -4.29  4.22 -5.78
Si  4.29 -4.22  5.78
Si  1.27 -8.28  0.74
Si -6.76 -4.10 -2.89
Si  6.76  4.10  2.89
Si -7.62  2.11 -2.89
Si  7.62 -2.11  2.89
Si -7.43  2.04  3.62
Si -6.57 -4.17  3.62
Si  4.60  7.25  0.74
Si  6.23 -5.22  2.89
Si -6.23  5.22 -2.89
Si -2.38 -8.28  0.74
Si -0.11  0.12 -8.66
Si  0.11 -0.12  8.66
Si  2.99 -7.28  3.62
Si -6.03  5.14  3.62
Si -4.85 -3.18  6.51
Si  4.81  5.26 -5.04
Si -0.77 -7.16 -5.04
Si -3.34 -1.94 -7.92
Si -7.75  4.15  0.74
Si  1.18 -8.32  2.89
Si -1.18  8.32 -2.89
Si  5.24  3.03  6.51
Si  7.07  2.16 -5.04
Si -6.44 -6.21  0.00
Si  6.44  6.21  0.00
Si -0.67  6.14  6.51
Si  4.51  7.21  2.89
Si -4.51 -7.21 -2.89
Si -0.56  4.27 -7.92
Si -0.99  8.25  3.62
Si  3.96 -1.94 -7.92
Si  4.83  5.10  5.78
Si -4.83 -5.10 -5.78
Si -6.35 -6.16 -2.15
Si  1.06 -6.29  6.51
Si -2.47 -8.32  2.89
Si  2.47  8.32 -2.89
Si -5.71  3.03  6.51
Si  9.11  1.04  0.74
Si -4.31 -7.28  3.62
Si  2.88 -7.16 -5.04
Si -9.14  1.04  0.74
Si  8.69  3.11  0.00
Si -8.69 -3.11  0.00
Si -1.50 -2.98 -8.66
Si  1.50  2.98  8.66
Si -6.67 -4.05 -5.04
Si  6.53  6.26 -2.15
Si -7.84  4.10  2.89
Si  7.84 -4.10 -2.89
Si -7.53  2.16 -5.04
Si  0.53  9.32  0.00
Si -0.53 -9.32  0.00
Si  1.29  3.23 -8.66
Si -1.29 -3.23  8.66
Si  7.08  1.99  5.78
Si -7.08 -1.99 -5.78
Si  0.75  7.33 -5.78
Si -0.75 -7.33  5.78
Si -3.54 -0.12  8.66
Si  3.54  0.12 -8.66
Si -8.61 -3.06 -2.15
Si  2.66  8.25  3.62
Si  2.15 -2.98 -8.66
Si -2.15  2.98  8.66
Si -2.59 -6.29  6.51
Si  2.98  6.14  6.51
Si  3.76 -0.12  8.66
Si -3.76  0.12 -8.66
Si -1.09 -5.05 -7.92
Si  6.10 -3.18  6.51
Si -9.02 -0.99 -2.89
Si  9.02  0.99  2.89
Si  3.10  4.27 -7.92
Si -0.44 -9.27 -2.15
Si -6.14  5.26 -5.04
Si  2.36 -3.23  8.66
Si -2.36  3.23 -8.66
Si  8.78  3.15 -2.15
Si -8.82 -1.07  3.62
Si -1.74  0.92  9.40
Si  0.62  9.37 -2.15
Si  5.35  1.16 -7.92
Si  1.91  0.92  9.40
Si -7.10 -0.07  6.51
Si  4.92 -8.28  0.74
Si  0.52 -2.18  9.40
Si -6.35  7.25  0.74
Si -7.52  1.99  5.78
Si  7.52 -1.99 -5.78
Si  9.23 -0.99 -2.89
Si -9.23  0.99  2.89
Si  2.56 -5.05 -7.92
Si  8.03 -4.17  3.62
Si -2.90  7.33 -5.78
Si  2.90 -7.33  5.78
Si -6.66 -4.22  5.78
Si  6.66  4.22 -5.78
Si -5.60  1.16 -7.92
Si -8.28 -5.17  0.74
Si -4.42 -7.16 -5.04
Si -3.12  9.32  0.00
Si  3.12 -9.32  0.00
Si -1.09  8.37 -5.04
Si  6.12 -5.10 -5.78
Si -6.12  5.10  5.78
Si  7.50 -0.07  6.51
Si -4.32  6.14  6.51
Si -4.20  4.27 -7.92
Si  3.21 -9.27 -2.15
Si -9.55  3.11  0.00
Si  9.55 -3.11  0.00
Si  4.83 -8.32  2.89
Si -4.83  8.32 -2.89
Si -3.03  9.37 -2.15
Si -1.08  8.20  5.78
Si  1.08 -8.20 -5.78
Si -6.44  7.21  2.89
Si  6.44 -7.21 -2.89
Si  2.56  8.37 -5.04
Si -4.64  8.25  3.62
Si -3.13 -2.18  9.40
Si  9.43 -1.07  3.62
Si  4.71 -6.29  6.51
Si -9.46  3.15 -2.15
Si -4.18 -9.32  0.00
Si  4.18  9.32  0.00
Si  7.93 -4.05 -5.04
Si -0.34  4.03  9.40
Si -8.16  6.21  0.00
Si  8.16 -6.21  0.00
Si -6.03 -8.28  0.74
Si  8.37  5.22 -2.89
Si -8.37 -5.22  2.89
Si -8.93 -0.95 -5.04
Si  4.40  7.33 -5.78
Si -4.40 -7.33  5.78
Si  9.64 -3.06 -2.15
Si  2.57  8.20  5.78
Si -2.57 -8.20 -5.78
Si -4.09 -9.27 -2.15
Si -8.07  6.26 -2.15
Si -1.31 10.36  0.74
Si -4.94 -3.23  8.66
Si  4.94  3.23 -8.66
Si  6.64 -7.28  3.62
Si -5.15 -2.98 -8.66
Si  5.15  2.98  8.66
Si  4.17 -2.18  9.40
Si  4.27  9.37 -2.15
Si  8.25 -6.16 -2.15
Si -4.74 -5.05 -7.92
Si  0.76 -6.09 -8.66
Si -0.76  6.09  8.66
Si  8.57  5.14  3.62
Si  9.32 -0.95 -5.04
Si  2.34 10.36  0.74
Si -8.91 -1.12  5.78
Si  8.91  1.12 -5.78
Si  7.94 -4.22  5.78
Si -7.94  4.22 -5.78
Si  6.12  8.32 -2.89
Si -6.12 -8.32  2.89
Si -6.99 -1.94 -7.92
Si  3.31  4.03  9.40
Si -10.54 -2.06  0.74
Si -0.97  6.33 -8.66
Si  0.97 -6.33  8.66
Si -1.40 10.31  2.89
Si  1.40 -10.31 -2.89
Si -0.02  0.17 -10.81
Si -0.88 -5.29  9.40
Si  5.80 -2.98 -8.66
Si -5.80  2.98  8.66
Si  0.84  7.38 -7.92
Si -4.74  8.37 -5.04
Si -5.39  0.92  9.40
Si  6.53 -7.16 -5.04
Si  2.25 10.31  2.89
Si -2.25 -10.31 -2.89
Si 10.95  0.00  0.00
Si -10.95  0.00  0.00
Si  5.56  0.92  9.40
Si  2.90  6.09  8.66
Si -2.90 -6.09 -8.66
Si -3.99  4.03  9.40
Si -6.24 -6.29  6.51
Si  6.31  8.25  3.62
Si  8.25  7.25  0.74
Si -6.01  3.23 -8.66
Si  6.01 -3.23  8.66
Si -9.34  1.12 -5.78
Si  9.34 -1.12  5.78
Si  2.68  6.33 -8.66
Si -2.68 -6.33  8.66
Si -10.86  0.05 -2.15
Si -4.73  8.20  5.78
Si  4.73 -8.20 -5.78
Si  1.59 -10.39  3.62
Si  2.77 -5.29  9.40
Si  6.63  6.14  6.51
Si  7.61 -1.94 -7.92
Si  8.46  5.26 -5.04
Si -8.50 -3.18  6.51
Si -2.81  7.38 -7.92
Si -2.06 -10.39  3.62
Si 10.63  2.11 -2.89
Si -10.63 -2.11  2.89
Si 11.04  0.05 -2.15
Si  6.75  4.27 -7.92
Si  9.97 -5.17  0.74
Si -8.16 -7.21 -2.89
Si  8.16  7.21  2.89
Si -7.19 -0.12  8.66
Si  7.19  0.12 -8.66
Si  6.21 -5.05 -7.92
Si -1.41 -2.94 -10.81
Si 10.50  4.15  0.74
Si  0.73  9.24  6.51
Si -7.96 -7.28  3.62
Si  1.38  3.28 -10.81
Si -7.41  0.12 -8.66
Si  7.41 -0.12  8.66
Si -6.55  7.33 -5.78
Si  6.55 -7.33  5.78
Si -0.12 -11.38  0.74
Si  3.63  0.17 -10.81
Si -3.67  0.17 -10.81
Si  2.24 -2.94 -10.81
Si  8.89  3.03  6.51
Si  1.17 -8.15 -7.92
Si -0.34 -9.39  6.51
Si -8.48 -5.10 -5.78
Si  8.48  5.10  5.78
Si -4.41  6.09  8.66
Si  4.41 -6.09 -8.66
Si -4.96 10.36  0.74
Si  6.77 -9.32  0.00
Si -6.77  9.32  0.00
Si -2.27  3.28 -10.81
Si  1.49 -10.27 -5.04
Si  9.88 -5.22  2.89
Si -9.88  5.22 -2.89
Si -9.68  5.14  3.62
Si 10.41  4.10  2.89
Si -10.41 -4.10 -2.89
Si 11.36 -2.06  0.74
Si  6.21  8.37 -5.04
Si 10.82  2.04  3.62
Si -10.22 -4.17  3.62
Si -2.16 -10.27 -5.04
Si -2.48 -8.15 -7.92
Si -2.92  9.24  6.51
Si -4.62  6.33 -8.66
Si  4.62 -6.33  8.66
Si -4.53 -5.29  9.40
Si -6.68  9.37 -2.15
Si  4.49  7.38 -7.92
Si -1.82 -0.87 -11.55
Si  1.82  0.87 11.55
Si -1.83  0.87 11.55
Si  1.83 -0.87 -11.55
Si  6.86 -9.27 -2.15
Si  0.43 -2.23 11.55
Si -0.43  2.23 -11.55
Si  0.21 11.43 -2.89
Si -0.21 -11.43  2.89
Si -6.78 -2.18  9.40
Si -9.36  3.03  6.51
Si -6.22 -8.20 -5.78
Si  6.22  8.20  5.78
Si 11.27 -2.11  2.89
Si -11.27  2.11 -2.89
Si -11.08  2.04  3.62
Si  5.05 -10.31 -2.89
Si -5.05 10.31  2.89
Si  1.05  7.13  9.40
Si -10.09 -6.21  0.00
Si 10.09  6.21  0.00
Si  3.31 -9.39  6.51
Si -8.07 -7.16 -5.04
Si  0.41 11.36  3.62
Si  8.57 -8.28  0.74
Si  3.53 -11.38  0.74
Si -10.00 -6.16 -2.15
Si -7.85  4.27 -7.92
Si -7.96  6.14  6.51
Si  5.99 10.36  0.74
Si -3.77 -11.38  0.74
Si -1.50 10.43 -5.78
Si  1.50 -10.43  5.78
Si 10.72  2.16 -5.04
Si  9.00  1.16 -7.92
Si -2.60  7.13  9.40
Si -3.99 -9.39  6.51
Si -2.15 -10.43  5.78
Si  2.15 10.43 -5.78
Si  4.38  9.24  6.51
Si 10.18  6.26 -2.15
Si  9.75 -3.18  6.51
Si -11.40  4.15  0.74
Si -7.83 -9.32  0.00
Si  7.83  9.32  0.00
Si -10.32 -4.05 -5.04
Si  5.25 -10.39  3.62
Si  3.22  2.23 -11.55
Si -3.22 -2.23 11.55
Si -9.79  5.26 -5.04
Si  0.43 -3.98 -11.55
Si -0.43  3.98 11.55
Si -5.90 -10.31 -2.89
Si  5.90 10.31  2.89
Si  8.48 -8.32  2.89
Si -8.48  8.32 -2.89
Si -9.25  1.16 -7.92
Si -8.29  8.25  3.62
Si -7.74 -9.27 -2.15
Si -3.44 11.43 -2.89
Si  3.44 -11.43  2.89
Si -5.06 -2.94 -10.81
Si  8.36 -6.29  6.51
Si -8.05 -7.33  5.78
Si  8.05  7.33 -5.78
Si  4.82 -8.15 -7.92
Si 10.73  1.99  5.78
Si -10.73 -1.99 -5.78
Si -3.24 11.36  3.62
Si  5.03  3.28 -10.81
Si  6.96  4.03  9.40
Si -10.00  7.25  0.74
Si -5.71 -10.39  3.62
Si -3.86 -11.43  2.89
Si  3.86 11.43 -2.89
Si  0.84 -6.04 -10.81
Si  7.82 -2.18  9.40
Si -1.42 -1.19 12.29
Si -0.02  1.92 12.29
Si -9.77  5.10  5.78
Si  9.77 -5.10 -5.78
Si  6.54  6.09  8.66
Si -6.54 -6.09 -8.66
Si -4.08  2.23 -11.55
Si  4.08 -2.23 11.55
Si -11.18  2.16 -5.04
Si  7.92  9.37 -2.15
Si  6.33  6.33 -8.66
Si -6.33 -6.33  8.66
Si 11.49 -4.10 -2.89
Si -11.49  4.10  2.89
