500
set: 1217.00  0.00  0.00
Si -0.11  1.06  0.61
Si  1.30 -0.95  0.69
Si -1.39 -0.92  0.70
Si -0.39  1.32 -1.73
Si -1.10 -1.01 -1.65
Si  1.29 -0.91 -1.59
Si  2.41  1.24  0.54
Si -2.61  1.26  0.53
Si  2.37  1.13 -1.69
Si -0.04  1.12  3.01
Si -0.38 -3.17  0.45
Si  1.10 -0.99  3.04
Si -2.73  1.01 -1.82
Si -1.59 -1.06  2.90
Si  1.09  3.36  0.52
Si -1.49  3.32  0.55
Si -0.19 -3.24 -1.82
Si  1.23  3.17 -1.85
Si  2.12 -3.21  0.55
Si  3.71 -1.03  0.79
Si  2.39  1.24  2.94
Si -3.84 -1.03  0.79
Si -2.64  1.15  2.85
Si -0.01  1.10 -3.99
Si  2.22 -3.01 -1.78
Si -1.40  3.52 -1.78
Si  1.13 -1.01 -3.97
Si  3.76 -1.19 -1.64
Si -2.83 -3.17  0.52
Si -3.79 -1.19 -1.64
Si -0.30 -3.23  2.95
Si  1.06  3.31  2.79
Si -1.56 -1.08 -4.10
Si -1.43  3.28  2.94
Si -2.70 -3.36 -1.85
Si  3.55 -0.98  3.11
Si  2.42  1.23 -4.07
Si  2.19 -3.25  2.94
Si  3.54  3.36  0.45
Si -2.62  1.13 -4.15
Si  4.94  1.26  0.53
Si -2.87 -3.21  2.79
Si -4.00 -0.98  3.11
Si -0.28 -3.25 -4.05
Si -4.00  3.36  0.45
Si  4.82  1.01 -1.82
Si  3.74  3.29 -1.82
Si -5.13  1.24  0.54
Si -3.81  3.29 -1.82
Si  3.58 -1.00 -3.90
Si  1.01 -5.26  0.53
Si -1.40  3.27 -4.06
Si -0.42  1.33  5.28
Si  1.08  3.30 -4.22
Si -1.51 -5.29  0.54
Si  0.09  5.50  0.79
Si -5.17  1.13 -1.69
Si -1.13 -1.00  5.35
Si  0.14  5.34 -1.64
Si  1.26 -0.89  5.41
Si -3.97 -1.00 -3.90
Si  2.22 -3.26 -4.06
Si  4.71 -3.17  0.52
Si  3.62  3.29  2.95
Si  4.90  1.15  2.85
Si -1.56 -5.40 -1.69
Si  0.89 -5.51 -1.82
Si -3.92  3.29  2.95
Si  2.35  1.14  5.32
Si -2.75  1.03  5.18
Si -2.85 -3.23 -4.22
Si -5.16  1.24  2.94
Si -2.31  5.57  0.69
Si -0.22 -3.23  5.19
Si  0.97 -5.38  2.85
Si  1.20  3.19  5.15
Si  4.84 -3.36 -1.85
Si  2.54  5.60  0.70
Si -1.54 -5.29  2.94
Si  6.15 -0.92  0.70
Si -2.33  5.62 -1.59
Si  4.68 -3.21  2.79
Si -5.42 -3.21  0.55
Si -6.24 -0.95  0.69
Si -0.07  5.54  3.11
Si  3.65  3.28 -4.05
Si -5.32 -3.01 -1.78
Si  3.23 -5.21 -1.73
Si  2.82  5.51 -1.65
Si  2.20 -3.00  5.23
Si -1.42  3.53  5.23
Si -0.08  1.05 -6.40
Si -3.90  3.28 -4.05
Si -1.37 -0.94 -6.30
Si -6.26 -0.91 -1.59
Si  3.51 -5.46  0.61
Si  1.33 -0.97 -6.31
Si  4.93  1.13 -4.15
Si  2.34  5.46  2.90
Si  3.73 -1.18  5.37
Si -5.13  1.23 -4.07
Si -3.81 -1.18  5.37
Si  5.96 -1.06  2.90
Si -2.73 -3.34  5.15
Si  6.44 -1.01 -1.65
Si -0.04  5.53 -3.90
Si -2.52  5.54  3.04
Si -4.03 -5.46  0.61
Si -1.51 -5.30 -4.07
Si  1.00 -5.39 -4.15
Si -5.36 -3.25  2.94
Si  6.05  3.32  0.55
Si -4.32 -5.21 -1.73
Si  2.44  1.22 -6.46
Si -2.58  1.25 -6.47
Si  4.70 -3.23 -4.22
Si  4.79  1.03  5.18
Si  3.58 -5.41  3.01
Si  3.71  3.30  5.19
Si -6.44 -0.99  3.04
Si  2.37  5.45 -4.10
Si -2.49  5.52 -3.97
Si -3.83  3.30  5.19
Si -6.45  3.36  0.52
Si -0.36 -3.19 -6.56
Si  6.15  3.52 -1.78
Si -6.32  3.17 -1.85
Si  3.73 -1.04 -6.22
Si  5.99 -1.08 -4.10
Si -3.96 -5.41  3.01
Si -3.82 -1.04 -6.22
Si  1.12  3.35 -6.48
Si -1.47  3.30 -6.46
Si -4.72  5.51 -1.65
Si -5.33 -3.26 -4.06
Si  7.16  1.32 -1.73
Si -5.20  1.14  5.32
Si  2.15 -3.23 -6.46
Si  7.44  1.06  0.61
Si  6.12  3.28  2.94
Si -5.01  5.60  0.70
Si  0.12  5.35  5.37
Si -0.22 -7.56  0.79
Si  0.86 -5.50  5.18
Si -6.42 -1.01 -3.97
Si  3.61 -5.42 -3.99
Si  5.23  5.57  0.69
Si -0.13  1.08  7.61
Si -1.58 -5.39  5.32
Si -2.81 -3.18 -6.48
Si -7.65  1.06  0.61
Si -6.49  3.31  2.79
Si -3.94 -5.42 -3.99
Si  4.82 -3.34  5.15
Si  2.23 -7.45  0.70
Si  5.22  5.62 -1.59
Si  7.16 -3.17  0.45
Si  1.20  7.54 -1.82
Si  1.28 -0.94  7.69
Si -1.20  7.76  0.54
Si -1.42 -0.91  7.70
Si -0.17 -7.72 -1.64
Si  1.32  7.79  0.53
Si -1.25  7.65 -1.69
Si -2.62 -7.48  0.69
Si  2.39  1.25  7.55
Si  6.03 -5.29  0.54
Si -2.64 -7.43 -1.59
Si  6.14  3.27 -4.06
Si -5.35 -3.00  5.23
Si  3.20 -5.20  5.28
Si  5.03  5.54  3.04
Si -5.21  5.46  2.90
Si -2.63  1.28  7.54
Si -0.41 -3.16  7.45
Si  2.52 -7.54 -1.65
Si -0.38 -7.51  3.11
Si -2.36  5.64  5.41
Si  7.51  1.12  3.01
Si  3.57  3.34 -6.56
Si  2.80  5.53  5.35
Si -7.94  1.32 -1.73
Si -7.58  1.12  3.01
Si  5.99 -5.40 -1.69
Si  7.36 -3.24 -1.82
Si  4.96  1.25 -6.47
Si  1.28  7.68  2.85
Si  0.11  5.48 -6.22
Si  1.07  3.38  7.53
Si -5.11  1.22 -6.46
Si -6.28 -0.89  5.41
Si -3.98  3.34 -6.56
Si  2.03 -7.59  2.90
Si -1.52  3.33  7.55
Si -6.46  3.30 -4.22
Si -1.23  7.77  2.94
Si -6.54 -5.26  0.53
Si  6.42 -1.00  5.35
Si  1.04 -5.28 -6.47
Si  2.10 -3.19  7.55
Si  7.24 -3.23  2.95
Si  5.06  5.52 -3.97
Si -3.73  7.59  0.61
Si -0.35 -7.53 -3.90
Si -1.49 -5.31 -6.46
Si  3.82  7.59  0.61
Si  6.01 -5.29  2.94
Si -7.93 -3.17  0.45
Si -5.18  5.45 -4.10
Si -7.74 -3.24 -1.82
Si -4.34 -5.20  5.28
Si -2.83 -7.52  3.04
Si  7.54  1.10 -3.99
Si -7.56  1.10 -3.99
Si  4.74 -3.18 -6.48
Si -2.86 -3.15  7.53
Si  3.68 -1.01  7.79
Si -2.29  5.56 -6.31
Si  1.31 -0.92 -8.60
Si -3.87 -1.01  7.79
Si -6.35  3.19  5.15
Si  3.54  7.84 -1.73
Si -1.08 -1.03 -8.65
Si  6.12  3.53  5.23
Si  2.56  5.59 -6.30
Si  1.31  7.66 -4.15
Si -6.66 -5.51 -1.82
Si -0.36  1.30 -8.73
Si -1.20  7.75 -4.07
Si -8.65 -1.01 -1.65
Si  6.18 -0.94 -6.30
Si  2.06 -7.61 -4.10
Si  3.52  3.37  7.45
Si -6.22 -0.97 -6.31
Si  8.85 -0.95  0.69
Si  7.27 -3.25 -4.05
Si -6.57 -5.38  2.85
Si -2.80 -7.54 -3.97
Si  7.13  1.33  5.28
Si -4.01  7.84 -1.73
Si  4.92 -7.48  0.69
Si -7.85 -3.23  2.95
Si -3.66  7.65  3.01
Si  6.04 -5.30 -4.07
Si -5.40 -3.23 -6.46
Si -8.94 -0.92  0.70
Si  8.84 -0.91 -1.59
Si -4.75  5.53  5.35
Si  4.91 -7.43 -1.59
Si  2.40  1.11 -8.69
Si  4.91  1.28  7.54
Si  3.89  7.65  3.01
Si -4.03  3.37  7.45
Si  3.54 -5.48 -6.40
Si -5.32 -7.45  0.70
Si -5.03 -7.54 -1.65
Si  8.65 -0.99  3.04
Si -5.16  1.25  7.55
Si  0.98 -5.25  7.54
Si  1.17  7.56  5.18
Si -7.41  5.34 -1.64
Si -2.70  1.00 -8.82
Si  8.64  3.36  0.52
Si -7.46  5.50  0.79
Si -4.01 -5.48 -6.40
Si -1.54 -5.28  7.55
Si -3.63  7.63 -3.99
Si  5.19  5.64  5.41
Si  4.72 -7.52  3.04
Si -0.19 -7.70  5.37
Si -7.83 -3.25 -4.05
Si -0.16 -3.26 -8.82
Si  4.69 -3.15  7.53
Si -1.27  7.67  5.32
Si  7.63  5.50  0.79
Si -6.54 -5.39 -4.15
Si  3.92  7.63 -3.99
Si  6.08  3.30 -6.46
Si  1.25  3.15 -8.86
Si -3.76 -1.21 -8.64
Si  7.69  5.34 -1.64
Si  3.79 -1.21 -8.64
Si  8.77  3.17 -1.85
Si  7.33 -3.23  5.19
Si  0.06  5.51  7.79
Si -1.37  3.50 -8.78
Si  2.25 -3.03 -8.78
Si -2.67 -7.42  5.41
Si  2.49 -7.53  5.35
Si  8.68 -1.01 -3.97
Si  8.60  3.31  2.79
Si  5.96 -5.39  5.32
Si -9.13 -1.06  2.90
Si -7.96  1.33  5.28
Si -9.04  3.32  0.55
Si -6.43  3.35 -6.48
Si  0.79 -9.69  0.52
Si  4.75 -7.54 -3.97
Si -8.94  3.52 -1.78
Si -4.99  5.59 -6.30
Si -2.34  5.59  7.69
Si -0.20 -7.57 -6.22
Si  7.48  5.54  3.11
Si -5.51 -7.59  2.90
Si -5.45 -3.19  7.55
Si -2.67 -3.37 -8.86
Si -1.71 -9.54 -1.78
Si  2.51  5.62  7.70
Si -7.76 -3.23  5.19
Si  6.13 -0.91  7.70
Si  7.47  1.05 -6.40
Si -0.07  9.88  0.45
Si -7.61  5.54  3.11
Si -1.80 -9.74  0.55
Si  5.26  5.56 -6.31
Si -6.27 -0.94  7.69
Si  0.12  9.81 -1.82
Si -6.23  7.79  0.53
Si  3.49 -5.45  7.61
Si -8.97  3.28  2.94
Si -7.63  1.05 -6.40
Si -6.35  7.54 -1.82
Si  2.25 -7.47 -6.30
Si  6.34  7.76  0.54
Si -9.11 -1.08 -4.10
Si  9.96  1.24  0.54
Si  6.30  7.65 -1.69
Si  8.56 -5.26  0.53
Si -0.06  1.13 10.02
Si -6.68 -5.50  5.18
Si -1.61 -1.05  9.91
Si  3.51  7.86  5.28
Si  0.92 -9.88 -1.85
Si  7.50  5.53 -3.90
Si  4.84  1.00 -8.82
Si  9.92  1.13 -1.69
Si  3.76  3.27 -8.82
Si -2.60 -7.50 -6.31
Si -3.78  3.27 -8.82
Si  1.08 -0.98 10.04
Si  0.17  5.32 -8.64
Si  8.63  3.30 -4.22
Si  2.43  9.85  0.55
Si -1.18  7.75 -6.46
Si -2.39  9.70 -1.85
Si  0.75 -9.74  2.79
Si -5.15  1.11 -8.69
Si -7.59  5.53 -3.90
Si -4.06 -5.45  7.61
Si  9.67 -3.21  0.55
Si  1.34  7.78 -6.47
Si -2.52  9.89  0.52
Si  6.03  3.33  7.55
Si  3.23 -9.70  0.45
Si  7.19 -3.19 -6.56
Si -5.49 -7.61 -4.10
Si  8.44 -5.51 -1.82
Si -8.68 -1.00  5.35
Si -10.15  1.26  0.53
Si  0.01  9.82  2.95
Si -2.67  1.17  9.86
Si -4.04  7.86  5.28
Si  2.36  1.26  9.94
Si -6.26  7.68  2.85
Si  6.06 -5.31 -6.46
Si -1.53 -5.42 -8.69
Si -8.95  3.27 -4.06
Si -1.74 -9.77  2.94
Si  9.77 -3.01 -1.78
Si  8.81 -0.89  5.41
Si  1.03  3.33  9.79
Si  4.88 -7.42  5.41
Si  9.94  1.24  2.94
Si  6.32  7.77  2.94
Si  0.92 -5.53 -8.82
Si -0.33 -3.22  9.96
Si  8.52 -5.38  2.85
Si -10.27  1.01 -1.82
Si -6.48  3.38  7.53
Si -9.06 -5.29  0.54
Si  2.53 10.04 -1.78
Si  3.43 -9.77 -1.82
Si -2.30  5.61 -8.60
Si -5.06 -7.53  5.35
Si  2.50  9.81  2.94
Si -2.56  9.84  2.79
Si  7.32 -7.56  0.79
Si -1.45  3.30  9.95
Si -3.70  7.58 -6.40
Si -6.51 -5.28 -6.47
Si  0.03  9.80 -4.05
Si -7.43  5.35  5.37
Si -4.31 -9.70  0.45
Si  3.85  7.58 -6.40
Si  8.75  3.19  5.15
Si  2.85  5.50 -8.65
Si -10.19  1.15  2.85
Si -6.23 -0.92 -8.60
Si  4.87 -3.37 -8.86
Si  0.77 -9.76 -4.22
Si  9.74 -3.25  2.94
Si  7.42  1.08  7.61
Si  2.17 -3.23  9.95
Si  3.25 -5.23 -8.73
Si -5.30 -3.03 -8.78
Si -2.90 -3.20  9.79
Si -6.24  7.66 -4.15
Si -9.10 -5.40 -1.69
Si  3.31 -9.76  2.95
Si -1.71 -9.79 -4.06
Si  3.52 -0.97 10.11
Si -7.90 -3.19 -6.56
Si -4.12 -9.77 -1.82
Si  7.66  5.35  5.37
Si -5.04  5.62  7.70
Si  7.14 -3.16  7.45
Si  7.38 -7.72 -1.64
Si  6.34  7.75 -4.07
Si  9.96  1.23 -4.07
Si  7.17 -7.51  3.11
Si  5.21  5.59  7.69
Si -0.25 -7.54  7.79
Si  6.47 -1.03 -8.65
Si -10.38 -3.17  0.52
Si -7.68  1.08  7.61
Si -7.77 -7.56  0.79
Si  2.53  9.79 -4.06
Si -1.23  7.78  7.55
Si -9.09 -5.29  2.94
Si -4.02 -0.97 10.11
Si  8.55 -5.39 -4.15
Si  1.29  7.81  7.54
Si  2.20 -7.43  7.70
Si  8.88 -0.97 -6.31
Si -10.25 -3.36 -1.85
Si -8.91 -0.94 -6.30
Si -8.97  3.53  5.23
Si  4.95 -7.50 -6.31
Si -2.54  9.82 -4.22
Si  6.01 -5.28  7.55
Si -1.73 -9.53  5.23
Si -7.71 -7.72 -1.64
Si -10.16  1.13 -4.15
Si -4.23 -9.76  2.95
Si -2.65 -7.47  7.69
Si -4.29 -5.23 -8.73
Si  0.01  1.09 -10.99
Si  4.88  1.17  9.86
Si  9.76 -3.26 -4.06
Si  1.16 -1.02 -10.97
Si  3.60  3.31  9.96
Si  3.34 -9.78 -4.05
Si  5.02  9.89  0.52
Si -5.11  9.85  0.55
Si -5.29 -7.47 -6.30
Si  0.09  9.83  5.19
Si  7.20 -7.53 -3.90
Si -7.43  5.48 -6.22
Si  5.15  9.70 -1.85
Si -6.37  7.56  5.18
Si  0.89 -9.87  5.15
Si -3.95  3.31  9.96
Si  6.27  7.67  5.32
Si -10.42 -3.21  2.79
Si -9.06 -5.30 -4.07
Si -2.42  9.71  5.15
Si  0.95 -5.36  9.86
Si -1.53 -1.10 -11.11
Si -4.70  5.50 -8.65
Si -5.18  1.26  9.94
Si  7.66  5.48 -6.22
Si -6.56 -5.25  7.54
Si  9.89  1.14  5.32
Si  6.18  3.50 -8.78
Si  4.65 -3.20  9.79
Si  8.41 -5.50  5.18
Si -6.29  3.15 -8.86
Si  5.74 -9.74  0.55
Si 11.25 -1.03  0.79
Si  5.84 -9.54 -1.78
Si  8.67  3.35 -6.48
Si -9.86  5.57  0.69
Si -7.96 -3.16  7.45
Si -7.92 -7.51  3.11
Si -1.56 -5.27  9.94
Si -5.01 10.04 -1.78
Si  4.99  9.84  2.79
Si  7.18  1.30 -8.73
Si -4.21 -9.78 -4.05
Si -3.75  7.61  7.61
Si  2.44  1.21 -11.07
Si  3.80  7.61  7.61
Si -5.05  9.81  2.94
Si  9.74 -3.00  5.23
Si -11.39 -1.03  0.79
Si -9.88  5.62 -1.59
Si 11.31 -1.19 -1.64
Si -2.59  1.12 -11.15
Si -11.33 -1.19 -1.64
Si  5.24  5.61 -8.60
