500
set: 1150.00  0.00  0.00
Si -0.05 -0.01  0.03
Si -0.05 -0.01 -2.38
Si  0.01 -0.01  2.39
Si  1.25 -2.14  0.03
Si  1.26  2.16  0.04
Si  2.54 -0.01  0.02
Si -1.31 -2.17  0.02
Si -2.54  0.04 -0.05
Si -1.29  2.24 -0.08
Si  1.27 -2.17 -2.32
Si -2.51  0.02  2.35
Si -2.51  0.01 -2.36
Si -1.30 -2.18 -2.35
Si  1.32  2.11  2.40
Si  1.30  2.17 -2.36
Si  2.50 -0.01 -2.40
Si -1.26 -2.17  2.41
Si -1.30  2.19  2.39
Si  2.59  0.03  2.35
Si -1.25  2.18 -2.43
Si  1.26 -2.18  2.43
Si -3.75 -2.11  0.01
Si  0.01 -4.34 -0.02
Si  3.77 -2.18  0.00
Si  0.01  4.36  0.02
Si -3.78  2.18 -0.04
Si  3.80  2.21  0.00
Si  0.00  0.01 -4.72
Si  0.00  0.01  4.79
Si -0.03  4.33 -2.36
Si -0.07 -4.33  2.35
Si -3.80  2.15  2.31
Si  3.75 -2.19 -2.36
Si -3.76 -2.20  2.38
Si -3.80  2.18 -2.38
Si  3.79  2.20 -2.39
Si  2.51 -4.31  0.01
Si -0.01 -4.38 -2.41
Si -5.00  0.03  0.02
Si  3.82 -2.16  2.41
Si  3.83  2.20  2.38
Si -0.01  4.43  2.38
Si  2.52  4.36  0.02
Si -3.85 -2.20 -2.40
Si -2.52 -4.37  0.02
Si  5.08  0.03  0.02
Si -2.53  4.42  0.01
Si  1.22 -2.20 -4.71
Si  2.47 -0.03  4.74
Si -1.25 -2.17 -4.72
Si -1.25  2.17  4.73
Si -2.49  0.04  4.74
Si  1.29  2.15 -4.73
Si -2.49  0.04 -4.77
Si  2.47 -0.03 -4.78
Si  1.29  2.15  4.78
Si -1.25  2.17 -4.78
Si -1.25 -2.17  4.79
Si  1.22 -2.20  4.80
Si -2.49  4.33 -2.35
Si -5.01 -0.02 -2.36
Si  2.52  4.33  2.37
Si -2.57  4.30  2.41
Si  5.04 -0.03  2.38
Si -5.05 -0.03  2.38
Si  2.53  4.35 -2.44
Si -2.52 -4.40  2.37
Si  5.07 -0.02 -2.36
Si  2.56 -4.40 -2.35
Si -2.51 -4.38 -2.44
Si  2.48 -4.43  2.41
Si -3.75 -2.19  4.72
Si -3.79  2.16  4.71
Si -0.02 -4.37  4.75
Si -0.03  4.38 -4.74
Si -0.02 -4.37 -4.76
Si -3.75 -2.19 -4.79
Si  3.82  2.16  4.75
Si  3.82  2.16 -4.76
Si -0.03  4.38  4.77
Si  3.84 -2.20 -4.74
Si -3.79  2.16 -4.80
Si  3.84 -2.20  4.77
Si -1.24 -6.52  0.00
Si -6.28  2.21  0.00
Si -5.03 -4.37  0.02
Si -1.28  6.55  0.00
Si  6.30  2.18 -0.04
Si  1.26 -6.55 -0.04
Si  6.33 -2.11  0.01
Si -5.03  4.39 -0.02
Si  5.05 -4.37  0.02
Si -6.32 -2.18  0.00
Si  5.05  4.39 -0.02
Si  1.29  6.62  0.01
Si -5.00 -0.04  4.72
Si  2.49  4.36  4.71
Si -2.55 -4.37  4.71
Si -2.52  4.36 -4.74
Si -5.00 -0.04 -4.79
Si  2.52 -4.37 -4.74
Si -2.52  4.36  4.77
Si  5.08 -0.04  4.72
Si  2.52 -4.37  4.77
Si  2.49  4.36 -4.80
Si -2.55 -4.38 -4.80
Si  5.08 -0.04 -4.79
Si  6.23 -2.20 -2.40
Si  6.29  2.15  2.31
Si  5.03 -4.30  2.38
Si  4.97  4.40  2.35
Si -6.25  2.20  2.38
Si -6.26 -2.16  2.41
Si -5.05 -4.30  2.38
Si -1.21 -6.53  2.38
Si  1.19  6.53 -2.40
Si  6.28  2.18 -2.38
Si -1.25 -6.53 -2.39
Si  1.28  6.54  2.38
Si  5.03  4.35 -2.41
Si -1.29  6.54 -2.36
Si  5.02 -4.41 -2.36
Si  1.24 -6.55 -2.38
Si -6.30  2.20 -2.39
Si  1.25 -6.59  2.31
Si -5.05  4.35 -2.41
Si  6.32 -2.20  2.38
Si -6.33 -2.19 -2.36
Si -1.22  6.57  2.41
Si -5.07 -4.41 -2.36
Si  0.01 -0.01 -7.12
Si -0.05 -0.01  7.14
Si -5.11  4.40  2.35
Si  3.76 -6.50 -0.08
Si -1.25  2.18  7.08
Si  1.26 -2.18 -7.08
Si -1.26 -2.17 -7.10
Si  1.32  2.11 -7.11
Si  7.54  0.04 -0.05
Si  2.50 -0.01  7.12
Si  3.73  6.56  0.02
Si -7.55 -0.01  0.02
Si -1.30  2.19 -7.12
Si -3.78 -6.57  0.04
Si -2.51  0.01  7.15
Si -2.51  0.02 -7.16
Si  1.30  2.17  7.16
Si -1.30 -2.18  7.16
Si -3.79  6.59  0.03
Si  2.59  0.03 -7.17
Si  1.27 -2.17  7.19
Si -7.50  0.03  2.35
Si  3.74  6.55 -2.35
Si -3.74 -6.56 -2.36
Si  3.75 -6.54  2.39
Si -3.77  6.56 -2.32
Si  7.57  0.01 -2.36
Si  7.58  0.02  2.35
Si -3.78  6.55  2.43
Si  3.78  6.57  2.41
Si  3.80 -6.55 -2.43
Si -7.58 -0.01 -2.40
Si -3.72 -6.62  2.40
Si -6.24 -2.20 -4.74
Si  6.29  2.16  4.71
Si -6.26  2.16  4.75
Si -6.26  2.16 -4.76
Si -1.20  6.53 -4.74
Si  5.01 -4.35 -4.74
Si -6.24 -2.20  4.77
Si  1.29  6.54  4.72
Si  5.02  4.36  4.75
Si -1.20  6.53  4.77
Si  5.01 -4.35  4.77
Si  5.02  4.36 -4.76
Si  1.25 -6.57  4.71
Si -5.07 -4.35 -4.74
Si  6.33 -2.19  4.72
Si -5.07  4.36  4.75
Si -1.22 -6.57  4.75
Si  6.29  2.16 -4.80
Si -1.22 -6.57 -4.76
Si -5.07  4.36 -4.76
Si -5.07 -4.35  4.77
Si  1.29  6.54 -4.79
Si  1.25 -6.57 -4.80
Si  6.33 -2.19 -4.79
Si -0.01 -4.38  7.10
Si  3.82 -2.16 -7.10
Si -3.76 -2.20 -7.13
Si  3.79  2.20  7.12
Si -0.03  4.33  7.15
Si  3.75 -2.19  7.15
Si -3.80  2.18  7.13
Si -0.07 -4.33 -7.16
Si -3.85 -2.20  7.11
Si  3.83  2.20 -7.13
Si -0.01  4.43 -7.13
Si -3.80  2.15 -7.21
Si  2.53  4.35  7.07
Si -2.51 -4.38  7.07
Si -2.57  4.30 -7.10
Si  0.04 -8.70  0.02
Si -7.57 -4.31  0.01
Si  2.52  4.33 -7.14
Si  2.48 -4.43 -7.10
Si -5.01 -0.02  7.15
Si -7.56  4.36  0.02
Si  5.04 -0.03 -7.13
Si -2.49  4.33  7.17
Si  7.56 -4.37  0.02
Si -5.05 -0.03 -7.13
Si  7.55  4.42  0.01
Si -2.52 -4.40 -7.14
Si  0.04  8.76  0.02
Si  5.07 -0.02  7.15
Si  2.56 -4.40  7.17
Si -3.82  6.53 -4.71
Si  3.79  6.56 -4.72
Si -3.75 -6.58 -4.73
Si  3.79 -6.56  4.73
Si -3.75 -6.58  4.78
Si  3.79 -6.56 -4.78
Si  7.59  0.04  4.74
Si  3.79  6.56  4.79
Si -3.82  6.53  4.80
Si -7.61 -0.03  4.74
Si  7.59  0.04 -4.77
Si -7.61 -0.03 -4.78
Si  7.52  4.30  2.41
Si  0.03  8.71 -2.36
Si -0.01  8.71  2.38
Si -7.53 -4.40 -2.35
Si -7.56  4.33  2.37
Si  8.78 -2.17  0.02
Si  2.50 -8.70 -0.05
Si -7.56  4.35 -2.44
Si  7.60  4.33 -2.35
Si  7.56 -4.40  2.37
Si -6.33 -6.50 -0.08
Si  0.04 -8.75 -2.36
Si -0.00 -8.76  2.38
Si  8.80  2.24 -0.08
Si -2.51  8.72  0.02
Si  7.57 -4.38 -2.44
Si -8.82  2.16  0.04
Si -8.83 -2.14  0.03
Si -2.50 -8.74  0.02
Si  6.31 -6.57  0.04
Si  6.29  6.59  0.03
Si  2.50  8.77 -0.05
Si -7.61 -4.43  2.41
Si -6.35  6.56  0.02
Si -8.76  2.11  2.40
Si -2.45 -8.71  2.35
Si -8.78  2.17 -2.36
Si  8.79 -2.18 -2.35
Si -8.81 -2.17 -2.32
Si  8.79  2.19  2.39
Si  2.54 -8.71  2.35
Si  2.53 -8.72 -2.36
Si -2.46  8.76  2.35
Si  6.31  6.56 -2.32
Si -6.29 -6.55 -2.43
Si -2.54  8.72 -2.40
Si  8.83 -2.17  2.41
Si -8.82 -2.18  2.43
Si  2.53  8.75 -2.36
Si  2.53  8.75  2.35
Si -2.54 -8.74 -2.40
Si -6.30  6.57  2.41
Si  6.30  6.55  2.43
Si -6.34 -6.54  2.39
Si -6.34  6.55 -2.35
Si  8.84  2.18 -2.43
Si  6.35 -6.56 -2.36
Si -0.05 -0.01 -9.48
Si  6.37 -6.62  2.40
Si -0.05 -0.01  9.54
Si  6.23 -2.20  7.11
Si -6.26 -2.16 -7.10
Si  5.03 -4.30 -7.13
Si  1.19  6.53  7.11
Si  5.03  4.35  7.10
Si -5.05 -4.30 -7.13
Si -1.25 -6.53  7.12
Si -6.25  2.20 -7.13
Si -5.05  4.35  7.10
Si -1.21 -6.53 -7.13
Si  6.28  2.18  7.13
Si -1.22  6.57 -7.10
Si -6.30  2.20  7.12
Si  1.28  6.54 -7.13
Si  1.24 -6.55  7.13
Si  4.97  4.40 -7.16
Si -1.29  2.24  9.43
Si -1.29  6.54  7.15
Si  6.32 -2.20 -7.13
Si  5.02 -4.41  7.15
Si  1.26  2.16 -9.47
Si -6.33 -2.19  7.15
Si  6.29  2.15 -7.21
Si -2.54  0.04  9.46
Si  1.25 -2.14 -9.48
Si -5.07 -4.41  7.15
Si -1.31 -2.17 -9.49
Si  2.54 -0.01 -9.50
Si -5.11  4.40 -7.16
Si  1.25 -6.59 -7.21
Si  1.25 -2.14  9.54
Si  2.54 -0.01  9.53
Si -1.31 -2.17  9.53
Si  1.26  2.16  9.55
Si -2.54  0.04 -9.56
Si  0.04  8.69  4.72
Si  7.53 -4.37  4.71
Si  0.04  8.69 -4.79
Si  7.56  4.36 -4.74
Si -1.29  2.24 -9.59
Si -7.56 -4.37 -4.74
Si -7.60  4.36  4.71
Si  7.53 -4.38 -4.80
Si  7.56  4.36  4.77
Si -7.56 -4.37  4.77
Si  0.04 -8.77  4.72
Si -7.60  4.36 -4.80
Si  0.04 -8.77 -4.79
Si 10.04 -0.01  0.03
Si  4.99  8.73  0.03
Si  5.00 -8.74  0.03
Si -5.09  8.73  0.03
Si -5.09 -8.74  0.03
Si -10.13 -0.01  0.03
Si  6.26  6.53 -4.71
Si -8.79  2.15 -4.73
Si  2.56 -8.69  4.74
Si -2.57  8.70  4.74
Si  2.56 -8.69 -4.77
Si -8.79  2.15  4.78
Si -6.29  6.56 -4.72
Si  6.26  6.53  4.80
Si -6.29 -6.56  4.73
Si  8.83 -2.17 -4.72
Si -2.57  8.70 -4.78
Si  8.83  2.17  4.73
Si -6.29 -6.56 -4.78
Si -8.86 -2.20 -4.71
Si -6.29  6.56  4.79
Si  8.83  2.17 -4.78
Si  8.83 -2.17  4.79
Si  6.33 -6.58 -4.73
Si -2.57 -8.77  4.74
Si  2.55  8.77  4.74
Si  6.33 -6.58  4.78
Si  2.55  8.77 -4.77
Si -2.57 -8.77 -4.78
Si 10.04 -0.01 -2.38
Si -8.86 -2.20  4.80
Si  4.99  8.72 -2.38
Si  5.00 -8.74 -2.38
Si -5.04  8.72  2.39
Si -10.08 -0.01  2.39
Si  5.05  8.72  2.39
Si -3.78  6.55 -7.08
Si -5.03 -8.74  2.39
Si  3.80 -6.55  7.08
Si -7.50  0.03 -7.17
Si  3.75 -6.54 -7.12
Si 10.09 -0.01  2.39
Si -5.09  8.72 -2.38
Si  5.05 -8.74  2.39
Si  3.78  6.57 -7.10
Si -5.09 -8.74 -2.38
Si -7.58 -0.01  7.12
Si -3.74 -6.56  7.16
Si  3.74  6.55  7.16
Si -3.72 -6.62 -7.11
Si -10.13 -0.01 -2.38
Si  7.57  0.01  7.15
Si  7.58  0.02 -7.16
Si -3.78  2.18  9.47
Si -3.75 -2.11 -9.51
Si  0.01 -4.34  9.49
Si  0.01  4.36 -9.49
Si -3.77  6.56  7.19
Si -3.75 -2.11  9.52
Si  3.77 -2.18 -9.51
Si  3.77 -2.18  9.51
Si  0.01 -4.34 -9.53
Si  3.80  2.21 -9.51
Si  0.01  4.36  9.53
Si  3.80  2.21  9.52
Si -3.78  2.18 -9.55
Si -5.00  0.03 -9.49
Si  2.51 -4.31 -9.50
Si  2.52  4.36 -9.49
Si -2.52 -4.37 -9.49
Si  2.51 -4.31  9.52
Si -5.00  0.03  9.53
Si  5.08  0.03 -9.49
Si -2.53  4.42 -9.50
Si  2.52  4.36  9.53
Si -2.52 -4.37  9.53
Si -2.53  4.42  9.52
Si  5.08  0.03  9.53
Si  1.29 -10.85  0.01
Si -10.07 -4.34 -0.02
Si  8.81  6.55  0.00
Si -10.08  4.36  0.02
Si  1.26 10.91 -0.04
Si -8.82 -6.55 -0.04
Si  8.85 -6.52  0.00
Si 10.10 -4.34 -0.02
Si -1.27 -10.92  0.00
Si 10.09  4.36  0.02
Si -8.79  6.62  0.01
Si -1.24 10.95  0.00
Si -5.04 -8.72 -4.72
Si  5.05 -8.72 -4.72
Si -10.08  0.01 -4.72
Si 10.09  0.01 -4.72
Si -5.04  8.74 -4.72
Si  5.04  8.74 -4.72
Si -5.04 -8.72  4.79
Si  5.05 -8.72  4.79
Si -10.08  0.01  4.79
Si 10.01 -4.33  2.35
Si 10.09  0.01  4.79
Si -5.04  8.74  4.79
Si  5.04  8.74  4.79
Si  1.24 10.88  2.31
Si 10.06  4.33 -2.36
Si  7.52  4.30 -7.10
Si  8.79  6.54 -2.36
Si -8.80  6.54  2.38
Si -1.22 -10.89  2.41
Si -7.56  4.35  7.07
Si  1.24 10.91 -2.38
Si  8.83 -6.53 -2.39
Si 10.07 -4.38 -2.41
Si -1.29 -10.92 -2.36
Si -10.11  4.33 -2.36
Si  7.57 -4.38  7.07
Si -1.22 10.94  2.38
Si  1.19 -10.93 -2.40
Si -0.01  8.71 -7.13
Si  1.28 -10.93  2.38
Si 10.07  4.43  2.38
Si -8.84 -6.59  2.31
Si -8.84 -6.55 -2.38
Si -1.26 10.94 -2.39
Si -10.09 -4.38 -2.41
Si  0.03  8.71  7.15
Si  8.87 -6.53  2.38
Si -7.56  4.33 -7.14
Si -10.10  4.43  2.38
Si -10.15 -4.33  2.35
Si -7.53 -4.40  7.17
Si  8.86  6.57  2.41
Si  7.56 -4.40 -7.14
Si -8.90  6.53 -2.40
Si -0.00 -8.76 -7.13
Si  0.04 -8.75  7.15
Si  7.60  4.33  7.17
Si -7.61 -4.43 -7.10
Si -8.76  2.11 -7.11
Si -3.79 -10.87  0.03
Si -6.29 -6.55  7.08
Si -8.82 -2.18 -7.08
Si  8.79  2.19 -7.12
Si  6.30  6.55 -7.08
Si  3.73 -10.90  0.02
Si  8.84  2.18  7.08
Si -3.78 10.89  0.04
Si -8.78  2.17  7.16
Si  8.83 -2.17 -7.10
Si 11.34 -2.14  0.03
Si -2.45 -8.71 -7.17
Si -7.58 -8.70 -0.05
Si  8.79 -2.18  7.16
Si -2.54  8.72  7.12
Si -6.30  6.57 -7.10
Si 11.35  2.16  0.04
Si -2.54 -8.74  7.12
Si  2.53 -8.72  7.15
Si  7.58  8.72  0.02
Si -6.34 -6.54 -7.12
Si  2.54 -8.71 -7.16
Si  7.58 -8.74  0.02
Si  2.53  8.75  7.15
Si -2.46  8.76 -7.17
Si -8.81 -2.17  7.19
Si  6.30  2.18  9.47
Si -11.37  2.24 -0.08
Si  2.53  8.75 -7.16
Si  1.27 -6.55  9.47
Si -6.34  6.55  7.16
Si  3.75 10.97 -0.08
Si -1.24 -6.52 -9.51
Si -7.59  8.77 -0.05
