500
set: 506.00  0.00  0.00
Si  0.00  0.00  0.00
Si  0.02 -0.04 -2.26
Si -1.83  1.10  0.78
Si  1.91  1.10  0.78
Si  0.10 -2.23  0.78
Si -1.85  1.14  3.04
Si  1.85 -1.14 -3.04
Si -3.74  0.00  0.00
Si  3.74  0.00  0.00
Si  0.08 -2.19  3.04
Si -0.08  2.19 -3.04
Si  1.89  1.14  3.04
Si -1.89 -1.14 -3.04
Si -1.81 -3.33  0.00
Si  1.81  3.33  0.00
Si  1.93 -3.33  0.00
Si -1.93  3.33  0.00
Si -1.75 -1.09  3.82
Si -3.64 -2.23  0.78
Si -3.72 -0.04 -2.26
Si  3.76 -0.04 -2.26
Si  1.83  3.29 -2.26
Si -1.91  3.29 -2.26
Si  0.06  2.25  3.82
Si -1.79 -3.38 -2.26
Si  1.99 -1.09  3.82
Si -0.02  4.44  0.78
Si  1.95 -3.38 -2.26
Si  3.84 -2.23  0.78
Si  3.66  2.19 -3.04
Si -3.66 -2.19  3.04
Si -3.82  2.19 -3.04
Si  3.82 -2.19  3.04
Si  0.04 -4.48 -3.04
Si -0.04  4.48  3.04
Si -0.06  2.15 -5.30
Si -5.57  1.10  0.78
Si  1.87 -1.19 -5.30
Si -1.87 -1.19 -5.30
Si -3.68  2.25  3.82
Si  5.65  1.10  0.78
Si  3.80  2.25  3.82
Si  3.72  4.44  0.78
Si  0.18 -4.42  3.82
Si -3.76  4.44  0.78
Si -1.71 -5.57  0.78
Si  2.03 -5.57  0.78
Si  1.77  1.05 -6.08
Si -1.77 -1.05  6.08
Si  5.59 -1.14 -3.04
Si -5.59  1.14  3.04
Si -5.55 -3.33  0.00
Si  5.55  3.33  0.00
Si  1.97 -1.05  6.08
Si -1.97  1.05 -6.08
Si -0.04 -2.29 -6.08
Si  0.04  2.29  6.08
Si  5.63  1.14  3.04
Si -5.63 -1.14 -3.04
Si -1.73 -5.53  3.04
Si  1.73  5.53 -3.04
Si  3.70  4.48  3.04
Si -3.70 -4.48 -3.04
Si  5.67 -3.33  0.00
Si -5.67  3.33  0.00
Si  3.78 -4.48 -3.04
Si -3.78  4.48  3.04
Si -2.01  5.53 -3.04
Si  2.01 -5.53  3.04
Si -0.12  6.67  0.00
Si  0.12 -6.67  0.00
Si -5.49 -1.09  3.82
Si  3.68  2.15 -5.30
Si -3.56 -4.42  3.82
Si  5.57  3.29 -2.26
Si  0.14  0.06  6.86
Si -5.54 -3.38 -2.26
Si -3.80  2.15 -5.30
Si -5.65  3.29 -2.26
Si  0.06 -4.52 -5.30
Si  5.73 -1.09  3.82
Si  5.69 -3.38 -2.26
Si -0.10  6.63 -2.26
Si -1.87  5.58  3.82
Si  1.87  5.58  3.82
Si  3.92 -4.42  3.82
Si  0.14 -6.71 -2.26
Si  3.70 -2.29 -6.08
Si -3.70  2.29  6.08
Si  7.48  0.00  0.00
Si -7.48  0.00  0.00
Si  0.16 -4.38  6.08
Si -0.16  4.38 -6.08
Si  3.78  2.29  6.08
Si -3.78 -2.29 -6.08
Si -3.62 -6.67  0.00
Si  3.62  6.67  0.00
Si -3.86  6.67  0.00
Si  3.86 -6.67  0.00
Si -3.60  0.06  6.86
Si -7.38 -2.23  0.78
Si -1.67 -3.28  6.86
Si -7.46 -0.04 -2.26
Si  5.61 -1.19 -5.30
Si -5.61 -1.19 -5.30
Si  1.75  5.49 -5.30
Si -5.46 -5.57  0.78
Si  7.50 -0.04 -2.26
Si -1.79  3.39  6.86
Si -3.68 -4.52 -5.30
Si  2.07 -3.28  6.86
Si -1.99  5.49 -5.30
Si  3.88  0.06  6.86
Si  3.64  6.63 -2.26
Si  1.95  3.39  6.86
Si  3.80 -4.52 -5.30
Si  7.58 -2.23  0.78
Si -3.60 -6.71 -2.26
Si -3.84  6.63 -2.26
Si  1.79  7.77  0.78
Si -1.95  7.77  0.78
Si  5.77 -5.57  0.78
Si  3.88 -6.71 -2.26
Si -5.51 -1.05  6.08
Si  5.51  1.05 -6.08
Si -7.41 -2.19  3.04
Si  7.41  2.19 -3.04
Si -3.58 -4.38  6.08
Si  3.58  4.38 -6.08
Si -5.47 -5.53  3.04
Si  5.47  5.53 -3.04
Si  5.71 -1.05  6.08
Si -5.71  1.05 -6.08
Si  7.56 -2.19  3.04
Si -7.56  2.19 -3.04
Si -3.90  4.38 -6.08
Si  3.90 -4.38  6.08
Si  1.85  5.62  6.08
Si -1.85 -5.62 -6.08
Si  1.89 -5.62 -6.08
Si -1.89  5.62  6.08
Si  5.75 -5.53  3.04
Si -5.75  5.53 -3.04
Si -1.77 -7.81 -3.04
Si  1.77  7.81  3.04
Si  1.79  1.01 -8.35
Si -1.97  7.81  3.04
Si  1.97 -7.81 -3.04
Si -1.95  1.01 -8.35
Si -7.42  2.25  3.82
Si -0.02 -2.33 -8.35
Si  7.46  4.44  0.78
Si  7.54  2.25  3.82
Si -7.50  4.44  0.78
Si -5.61  5.58  3.82
Si  5.61  5.58  3.82
Si -1.63 -7.76  3.82
Si  2.11 -7.76  3.82
Si  0.22 -8.90  0.78
Si  0.12  0.10  9.13
Si -0.12 -0.10 -9.13
Si  7.45  4.48  3.04
Si -7.45 -4.48 -3.04
Si -7.52  4.48  3.04
Si  7.52 -4.48 -3.04
Si -5.42 -3.28  6.86
Si -7.31 -4.42  3.82
Si -0.20  8.86 -3.04
Si  0.20 -8.86  3.04
Si  7.42  2.15 -5.30
Si  5.49  5.49 -5.30
Si -0.14  4.34 -8.35
Si -9.31  1.10  0.78
Si  3.72 -2.33 -8.35
Si -5.53  3.39  6.86
Si -3.76 -2.33 -8.35
Si -7.54  2.15 -5.30
Si  9.39  1.10  0.78
Si  0.26 -6.61  6.86
Si  5.69  3.39  6.86
Si -5.73  5.49 -5.30
Si  5.81 -3.28  6.86
Si  5.54  7.77  0.78
Si -3.52 -8.90  0.78
Si  0.02  6.73  6.86
Si  7.66 -4.42  3.82
Si -1.75 -7.85 -5.30
Si -5.69  7.77  0.78
Si  1.99 -7.85 -5.30
Si -0.06  8.92  3.82
Si  3.96 -8.90  0.78
Si  3.62 -0.10 -9.13
Si -3.62  0.10  9.13
Si -1.69 -3.24  9.13
Si  1.69  3.24 -9.13
Si -9.30 -3.33  0.00
Si  9.30  3.33  0.00
Si -7.44  2.29  6.08
Si  7.44 -2.29 -6.08
Si -9.34  1.14  3.04
Si  9.34 -1.14 -3.04
Si -2.05  3.24 -9.13
Si  2.05 -3.24  9.13
Si  3.86  0.10  9.13
Si -3.86 -0.10 -9.13
Si -1.81  3.43  9.13
Si  1.81 -3.43 -9.13
Si -9.38 -1.14 -3.04
Si  9.38  1.14  3.04
Si -7.37 -6.67  0.00
Si  7.37  6.67  0.00
Si -1.93 -3.43 -9.13
Si  1.93  3.43  9.13
Si -7.53 -2.29 -6.08
Si  7.53  2.29  6.08
Si  1.65  7.72 -6.08
Si -1.65 -7.72  6.08
Si -9.41  3.33  0.00
Si  9.41 -3.33  0.00
Si -5.59 -5.62 -6.08
Si  5.59  5.62  6.08
Si -3.54 -8.86  3.04
Si  3.54  8.86 -3.04
Si -5.63  5.62  6.08
Si  5.63 -5.62 -6.08
Si -5.51 -7.81 -3.04
Si  5.51  7.81  3.04
Si -2.09  7.72 -6.08
Si  2.09 -7.72  6.08
Si -7.34  0.06  6.86
Si -9.24 -1.09  3.82
Si  5.53  1.01 -8.35
Si  3.60  4.34 -8.35
Si  7.60 -6.67  0.00
Si -7.60  6.67  0.00
Si -1.71  1.20  9.91
Si -9.28 -3.38 -2.26
Si  0.22 -2.13  9.91
Si  9.31  3.29 -2.26
Si  5.71 -7.81 -3.04
Si -5.71  7.81  3.04
Si -1.69 -10.00  0.00
Si  1.69 10.00  0.00
Si -3.48 -6.61  6.86
Si -5.69  1.01 -8.35
Si -3.94  8.86 -3.04
Si  3.94 -8.86  3.04
Si -3.88  4.34 -8.35
Si  7.38  6.63 -2.26
Si -5.38 -7.76  3.82
Si  2.03  1.20  9.91
Si -7.43 -4.52 -5.30
Si -7.35 -6.71 -2.26
Si -9.39  3.29 -2.26
Si  2.05 -10.00  0.00
Si -2.05 10.00  0.00
Si -1.83 -5.66 -8.35
Si  7.62  0.06  6.86
Si  1.91 -5.66 -8.35
Si  7.54 -4.52 -5.30
Si  9.43 -3.38 -2.26
Si  9.47 -1.09  3.82
Si -0.18  8.82 -5.30
Si -3.72  6.73  6.86
Si  3.76  6.73  6.86
Si -7.58  6.63 -2.26
Si  4.00 -6.61  6.86
Si  1.71  9.96 -2.26
Si  3.68  8.92  3.82
Si  7.62 -6.71 -2.26
Si -2.03  9.96 -2.26
Si -3.80  8.92  3.82
Si -1.67 -10.04 -2.26
Si  5.85 -7.76  3.82
Si -7.33 -4.38  6.08
Si  7.33  4.38 -6.08
Si  2.07 -10.04 -2.26
Si  7.64 -4.38  6.08
Si -7.64  4.38 -6.08
Si -3.52 -2.13  9.91
Si -9.20 -5.57  0.78
Si  9.35 -1.19 -5.30
Si -9.36 -1.19 -5.30
Si  0.08 -8.96 -6.08
Si -0.08  8.96  6.08
Si  3.96 -2.13  9.91
Si  3.56  8.82 -5.30
Si  0.10  4.54  9.91
Si -5.50 -7.85 -5.30
Si -3.92  8.82 -5.30
Si  9.51 -5.57  0.78
Si  5.73 -7.85 -5.30
Si -5.43 -3.24  9.13
Si  5.43  3.24 -9.13
Si -9.26 -1.05  6.08
Si  9.26  1.05 -6.08
Si -0.14 11.11  0.78
Si -9.22 -5.53  3.04
Si  9.22  5.53 -3.04
Si -5.39 -7.72  6.08
Si  5.39  7.72 -6.08
Si  5.55 -3.43 -9.13
Si -5.55  3.43  9.13
Si 11.23  0.00  0.00
Si -11.23  0.00  0.00
Si -0.24  6.57 -9.13
Si  0.24 -6.57  9.13
Si  5.67  3.43  9.13
Si -5.67 -3.43 -9.13
Si  5.79 -3.24  9.13
Si -5.79  3.24 -9.13
Si -9.46  1.05 -6.08
Si  9.46 -1.05  6.08
Si -0.00 -6.77 -9.13
Si  0.00  6.77  9.13
Si -5.45  1.20  9.91
Si -11.13 -2.23  0.78
Si -5.44 -10.00  0.00
Si  5.44 10.00  0.00
Si -0.10 -0.14 -11.39
Si  9.49 -5.53  3.04
Si -9.49  5.53 -3.04
Si  5.83 -7.72  6.08
Si -5.83  7.72 -6.08
Si -1.59 -5.47  9.91
Si  3.67  8.96  6.08
Si -3.67 -8.96 -6.08
Si -11.21 -0.04 -2.26
Si  7.46 -2.33 -8.35
Si  1.67  7.68 -8.35
Si -7.50 -2.33 -8.35
Si 11.24 -0.04 -2.26
Si  3.82 -8.96 -6.08
Si -3.82  8.96  6.08
Si -3.64  4.54  9.91
Si -7.27 -8.90  0.78
Si  2.15 -5.47  9.91
Si -5.58 -5.66 -8.35
Si -2.07  7.68 -8.35
Si  5.77  1.20  9.91
Si -9.35  5.58  3.82
Si  9.36  5.58  3.82
Si  3.84  4.54  9.91
Si -0.16 11.15  3.04
Si  0.16 -11.15 -3.04
Si  5.79 -10.00  0.00
Si -5.79 10.00  0.00
Si  5.65 -5.66 -8.35
Si 11.32 -2.23  0.78
Si  5.46  9.96 -2.26
Si -5.42 -10.04 -2.26
Si  3.60 11.11  0.78
Si -7.36  0.10  9.13
Si  7.36 -0.10 -9.13
Si -5.77  9.96 -2.26
Si  0.30 -11.09  3.82
Si 11.15  2.19 -3.04
Si -11.15 -2.19  3.04
Si -3.50 -6.57  9.13
Si  3.50  6.57 -9.13
Si -3.88 11.11  0.78
Si  7.70 -8.90  0.78
Si  5.81 -10.04 -2.26
Si -7.29 -8.86  3.04
Si  7.29  8.86 -3.04
Si -7.60 -0.10 -9.13
Si  7.60  0.10  9.13
Si -9.16 -3.28  6.86
Si -11.30  2.19 -3.04
Si 11.30 -2.19  3.04
Si  3.98 -6.57  9.13
Si -3.98  6.57 -9.13
Si  7.34  4.34 -8.35
Si  1.71  3.20 -11.39
Si  3.64 -0.14 -11.39
Si  3.74 -6.77 -9.13
Si -3.74  6.77  9.13
Si -7.23 -6.61  6.86
Si  3.74  6.77  9.13
Si -3.74 -6.77 -9.13
Si  9.24  5.49 -5.30
Si -2.03  3.20 -11.39
Si -11.17  2.25  3.82
Si -3.84 -0.14 -11.39
Si -9.28  3.39  6.86
Si  1.83 -3.47 -11.39
Si -1.91 -3.47 -11.39
Si 11.21  4.44  0.78
Si -3.58 -11.15 -3.04
Si  3.58 11.15  3.04
Si -7.62  4.34 -8.35
Si -11.24  4.44  0.78
Si  7.68 -8.86  3.04
Si -7.68  8.86 -3.04
Si 11.29  2.25  3.82
Si  9.28  7.77  0.78
Si  9.44  3.39  6.86
Si -9.47  5.49 -5.30
Si -7.46  6.73  6.86
Si -1.55 -9.95  6.86
Si  7.50  6.73  6.86
Si  3.90 -11.15 -3.04
Si -3.90 11.15  3.04
Si  9.55 -3.28  6.86
Si  7.43  8.92  3.82
Si -3.45 -11.09  3.82
Si -9.43  7.77  0.78
Si  0.10 -9.00 -8.35
Si  7.74 -6.61  6.86
Si  2.19 -9.95  6.86
Si -7.54  8.92  3.82
Si  1.83 10.06  6.86
Si -1.91 10.06  6.86
Si  0.20 -2.09 12.17
Si -0.20  2.09 -12.17
Si  1.73 -1.24 -12.17
Si -1.73  1.24 12.17
Si -1.59 -12.24  0.78
Si  0.18 -11.19 -5.30
Si  2.01  1.24 12.17
Si -2.01 -1.24 -12.17
Si  4.04 -11.09  3.82
Si 11.19  4.48  3.04
Si -11.19 -4.48 -3.04
Si  2.15 -12.24  0.78
Si -7.26 -2.13  9.91
Si -9.34 -5.62 -6.08
Si  9.34  5.62  6.08
Si -9.26 -7.81 -3.04
Si  9.26  7.81  3.04
Si -11.27  4.48  3.04
Si 11.27 -4.48 -3.04
Si -11.05 -4.42  3.82
Si -9.37  5.62  6.08
Si  9.37 -5.62 -6.08
Si -5.33 -5.47  9.91
Si  9.28  1.01 -8.35
Si 11.17  2.15 -5.30
Si  5.42  7.68 -8.35
Si -9.12 -7.76  3.82
Si  0.28 -11.05  6.08
Si -0.28 11.05 -6.08
Si  7.31  8.82 -5.30
Si  9.45 -7.81 -3.04
Si -9.45  7.81  3.04
Si -9.44  1.01 -8.35
Si -11.29  2.15 -5.30
Si -1.61 -12.20  3.04
Si  1.61 12.20 -3.04
Si  7.70 -2.13  9.91
Si -5.81  7.68 -8.35
Si -2.13 12.20 -3.04
Si  2.13 -12.20  3.04
Si  5.89 -5.47  9.91
Si -1.83  7.87  9.91
Si  1.91  7.87  9.91
Si -3.65 -9.00 -8.35
Si 11.40 -4.42  3.82
Si -7.66  8.82 -5.30
Si  3.54  2.09 -12.17
Si -3.54 -2.09 12.17
Si  3.84 -9.00 -8.35
Si -3.57 -11.19 -5.30
Si  9.59 -7.76  3.82
Si -11.19  2.29  6.08
Si 11.19 -2.29 -6.08
Si  1.75 12.25  3.82
Si -11.11 -6.67  0.00
Si 11.11  6.67  0.00
Si  3.94 -2.09 12.17
Si -3.94  2.09 -12.17
Si -1.99 12.25  3.82
Si  3.92 -11.19 -5.30
Si  0.08  4.58 12.17
Si -0.08 -4.58 -12.17
Si -11.27 -2.29 -6.08
Si 11.27  2.29  6.08
Si  5.45  3.20 -11.39
Si -11.09  0.06  6.86
Si -3.46 -11.05  6.08
Si  3.46 11.05 -6.08
Si -1.63 -0.99 12.95
Si  7.41  8.96  6.08
Si -7.41 -8.96 -6.08
Si -13.06  1.10  0.78
Si -0.22  6.53 -11.39
Si  5.57 -3.47 -11.39
Si 11.13  6.63 -2.26
Si  2.11 -0.99 12.95
Si -11.09 -6.71 -2.26
Si 11.34 -6.67  0.00
Si -11.34  6.67  0.00
Si  0.18  2.34 12.95
Si -7.38  4.54  9.91
Si -5.77  3.20 -11.39
Si -11.17 -4.52 -5.30
Si -5.66 -3.47 -11.39
Si -5.30 -9.95  6.86
Si 13.14  1.10  0.78
Si  7.56 -8.96 -6.08
