500
set: 1185.00  0.00  0.00
Si -0.45  0.28 -0.89
Si -0.31  0.09  1.45
Si  1.03 -1.81 -0.67
Si  2.20  0.25 -0.88
Si -1.50 -1.90 -0.60
Si  2.06  0.13  1.46
Si  0.81  2.41 -0.60
Si  0.72  2.30  1.67
Si -2.80  0.25 -0.88
Si  0.93 -2.26  1.81
Si -1.59 -2.01  1.67
Si -1.65  2.49 -0.67
Si -1.75  2.05  1.81
Si -2.93  0.13  1.46
Si -0.27  0.01 -3.30
Si  0.75  2.21 -3.08
Si  0.97 -2.35 -2.93
Si  2.10  0.04 -3.29
Si -0.49  0.36  3.86
Si -1.71  1.96 -2.93
Si  3.50 -1.90 -0.60
Si -1.56 -2.10 -3.08
Si -0.11 -4.06 -0.88
Si  3.35  2.49 -0.67
Si  3.24  2.05  1.81
Si  3.40 -2.01  1.67
Si -2.89  0.04 -3.29
Si -3.96 -1.81 -0.67
Si -0.25 -4.18  1.46
Si  2.16  0.34  3.87
Si  1.00 -1.73  4.08
Si  4.54  0.28 -0.89
Si -0.49  4.55 -0.88
Si  2.23 -4.03 -0.89
Si -0.62  4.43  1.46
Si -1.53 -1.81  4.15
Si -2.83  0.34  3.87
Si  3.28  1.96 -2.93
Si -4.18  2.41 -0.60
Si  4.68  0.09  1.45
Si  0.78  2.50  4.15
Si -2.76 -4.03 -0.89
Si -4.06 -2.26  1.81
Si  1.86  4.58 -0.89
Si  2.00  4.40  1.45
Si  2.37 -4.21  1.45
Si  3.44 -2.10 -3.08
Si -1.69  2.58  4.08
Si -4.28  2.30  1.67
Si -2.62 -4.21  1.45
Si -0.21 -4.27 -3.29
Si -0.58  4.34 -3.29
Si -5.30  0.09  1.45
Si -4.02 -2.35 -2.93
Si -2.99  4.40  1.45
Si -5.45  0.28 -0.89
Si -0.15 -3.97  3.87
Si -3.13  4.58 -0.89
Si -0.41  0.19 -5.63
Si -4.24  2.21 -3.08
Si  3.46 -1.81  4.15
Si  4.72  0.01 -3.30
Si  2.04  4.31 -3.30
Si  1.07 -1.90 -5.42
Si  3.31  2.58  4.08
Si -1.46 -1.99 -5.35
Si  0.85  2.32 -5.35
Si  2.41 -4.30 -3.30
Si  2.19 -3.94  3.86
Si  4.50  0.36  3.86
Si -4.00 -1.73  4.08
Si -2.58 -4.30 -3.30
Si  2.23  0.16 -5.62
Si -0.52  4.64  3.87
Si -1.61  2.40 -5.42
Si -2.96  4.31 -3.30
Si -2.80 -3.94  3.86
Si -0.35  0.18  6.20
Si -5.27  0.01 -3.30
Si -2.76  0.16 -5.62
Si -1.28 -6.12 -0.67
Si  5.81  2.41 -0.60
Si  1.82  4.67  3.86
Si  6.03 -1.81 -0.67
Si  1.19 -6.21 -0.60
Si  5.71  2.30  1.67
Si  4.37  4.43  1.46
Si  4.88 -4.06 -0.88
Si -4.22  2.50  4.15
Si  4.51  4.55 -0.88
Si  4.75 -4.18  1.46
Si  2.03  0.22  6.20
Si -5.11 -4.06 -0.88
Si  5.93 -2.26  1.81
Si  1.09 -6.31  1.67
Si  0.56  6.35  1.81
Si  3.54 -1.99 -5.35
Si -5.48  0.36  3.86
Si -6.49 -1.90 -0.60
Si  3.38  2.40 -5.42
Si -3.17  4.67  3.86
Si -5.24 -4.18  1.46
Si  0.66  6.80 -0.67
Si -2.97  0.22  6.20
Si  5.75  2.21 -3.08
Si  0.68  2.39  6.42
Si -1.63 -1.92  6.42
Si  0.60  6.26 -2.93
Si -3.92 -1.90 -5.42
Si -1.38 -6.57  1.81
Si  0.90 -2.17  6.56
Si -0.08 -4.15 -5.62
Si -1.87  6.72 -0.60
Si  4.41  4.34 -3.29
Si  5.96 -2.35 -2.93
Si -6.59 -2.01  1.67
Si -1.97  6.61  1.67
Si -6.64  2.49 -0.67
Si -1.79  2.13  6.56
Si -4.14  2.32 -5.35
Si -5.48  4.55 -0.88
Si  1.13 -6.40 -3.08
Si  3.72 -6.12 -0.67
Si -0.45  4.46 -5.62
Si  7.06  0.13  1.46
Si  4.78 -4.27 -3.29
Si  7.19  0.25 -0.88
Si  4.58  0.19 -5.63
Si -6.74  2.05  1.81
Si -5.61  4.43  1.46
Si -3.81 -6.21 -0.60
Si  2.27 -4.12 -5.63
Si  4.84 -3.97  3.87
Si -1.34 -6.66 -2.93
Si -1.31 -6.03  4.08
Si  3.12  6.72 -0.60
Si -0.28 -4.09  6.20
Si  5.99 -1.73  4.08
Si  1.90  4.49 -5.63
Si  3.03  6.61  1.67
Si -1.93  6.52 -3.08
Si  1.15 -6.12  4.15
Si -5.20 -4.27 -3.29
Si -2.73 -4.12 -5.63
Si  3.36 -1.92  6.42
Si  4.47  4.64  3.87
Si  5.77  2.50  4.15
Si -6.55 -2.10 -3.08
Si -5.14 -3.97  3.87
Si -6.71  1.96 -2.93
Si  3.21  2.13  6.56
Si -3.90 -6.31  1.67
Si -0.66  4.52  6.20
Si  3.62 -6.57  1.81
Si  4.64  0.18  6.20
Si -5.57  4.34 -3.29
Si  2.33 -4.12  6.20
Si -5.41  0.19 -5.63
Si  7.09  0.04 -3.29
Si  3.06  6.52 -3.08
Si -7.79  0.25 -0.88
Si -3.10  4.49 -5.63
Si  1.96  4.49  6.20
Si -2.66 -4.12  6.20
Si -6.53 -1.81  4.15
Si -4.43  6.35  1.81
Si  0.62  6.89  4.08
Si -4.10 -2.17  6.56
Si -0.24 -0.08 -8.05
Si -7.92  0.13  1.46
Si -1.68  1.87 -7.68
Si -3.87 -6.40 -3.08
Si -4.33  6.80 -0.67
Si -4.32  2.39  6.42
Si  1.01 -2.44 -7.68
Si  7.15  0.34  3.87
Si  3.65 -6.66 -2.93
Si  0.79  2.12 -7.82
Si  3.68 -6.03  4.08
Si -5.34  0.18  6.20
Si -5.52  4.64  3.87
Si -1.91  6.81  4.15
Si -4.39  6.26 -2.93
Si -3.03  4.49  6.20
Si -6.68  2.58  4.08
Si  5.84  2.32 -5.35
Si -1.52 -2.19 -7.82
Si  6.85  4.58 -0.89
Si  2.14 -0.05 -8.04
Si  7.22 -4.03 -0.89
Si -3.84 -6.12  4.15
Si -1.24 -6.21 -5.42
Si  6.07 -1.90 -5.42
Si  1.23 -6.29 -5.35
Si -0.08 -8.34 -0.89
Si  6.99  4.40  1.45
Si  4.54  4.46 -5.62
Si -2.85 -0.05 -8.04
Si -7.88  0.04 -3.29
Si  4.92 -4.15 -5.62
Si  3.09  6.81  4.15
Si  3.32  1.87 -7.68
Si  7.37 -4.21  1.45
Si -6.45 -1.99 -5.35
Si  5.55  6.35  1.81
Si -5.07 -4.15 -5.62
Si -0.53  0.45  8.61
Si  0.06 -8.52  1.45
Si  0.70  6.71 -5.42
Si  8.24  2.05  1.81
Si -1.83  6.63 -5.35
Si  8.49 -1.90 -0.60
Si  8.34  2.49 -0.67
Si -7.83  0.34  3.87
Si -2.42 -8.37 -0.88
Si  6.18 -6.21 -0.60
Si -7.76 -4.03 -0.89
Si -6.27 -6.12 -0.67
Si  8.39 -2.01  1.67
Si  2.57 -8.37 -0.88
Si  4.71 -4.09  6.20
Si  4.34  4.52  6.20
Si -7.61 -4.21  1.45
Si  3.47 -2.19 -7.82
Si -0.68  8.71  1.45
Si  5.66  6.80 -0.67
Si -6.60  2.40 -5.42
Si  7.03  4.31 -3.30
Si  2.12  0.42  8.62
Si  5.67  2.39  6.42
Si  5.59  6.26 -2.93
Si  6.08 -6.31  1.67
Si  2.44 -8.49  1.46
Si -0.82  8.89 -0.89
Si -2.56 -8.49  1.46
Si -3.98 -2.44 -7.68
Si  8.27  1.96 -2.93
Si  1.05 -6.22  6.42
Si -5.44  4.46 -5.62
Si  1.69  8.74  1.46
Si  0.96 -1.64  8.83
Si  3.75 -6.21 -5.42
Si  7.19 -3.94  3.86
Si  5.89 -2.17  6.56
Si -3.77 -6.29 -5.35
Si  3.16  6.63 -5.35
Si  1.82  8.86 -0.88
Si -2.87  0.42  8.62
Si -0.12 -8.25  3.86
Si -0.54  4.26 -8.04
Si -5.28 -4.09  6.20
Si  6.81  4.67  3.86
Si -4.37  6.89  4.08
Si -4.20  2.12 -7.82
Si -0.17 -4.36 -8.04
Si -8.95 -1.81 -0.67
Si  7.23  0.16 -5.62
Si  7.40 -4.30 -3.30
Si -1.57 -1.72  8.89
Si  0.52  6.44  6.56
Si  8.43 -2.10 -3.08
Si  0.10 -8.61 -3.30
Si -7.99  4.40  1.45
Si -0.65  8.62 -3.30
Si  0.74  2.59  8.89
Si -7.58 -4.30 -3.30
Si  2.08  4.22 -8.05
Si -6.37 -6.57  1.81
Si -1.42 -6.48  6.56
Si  4.76 -0.08 -8.05
Si  7.02  0.22  6.20
Si -8.13  4.58 -0.89
Si  6.12 -6.40 -3.08
Si -1.72  2.67  8.83
Si  1.73  8.65 -3.29
Si -6.62 -1.92  6.42
Si -3.17  8.86 -0.88
Si -0.19 -3.88  8.62
Si -3.30  8.74  1.46
Si -2.46 -8.28  3.87
Si  2.53 -8.28  3.87
Si  2.45 -4.39 -8.05
Si -2.00  6.70  6.42
Si -9.17  2.41 -0.60
Si -9.05 -2.26  1.81
Si -2.55 -4.39 -8.05
Si  2.47 -8.58 -3.29
Si -2.52 -8.58 -3.29
Si -5.65  4.52  6.20
Si -2.92  4.22 -8.05
Si -7.79 -3.94  3.86
Si  9.53  0.28 -0.89
Si -7.75  0.16 -5.62
Si  8.45 -1.81  4.15
Si -5.23 -0.08 -8.05
Si  8.30  2.58  4.08
Si  6.14 -6.12  4.15
Si -6.86  6.72 -0.60
Si -7.95  4.31 -3.30
Si -6.31 -6.03  4.08
Si -4.29  6.71 -5.42
Si -6.33 -6.66 -2.93
Si -6.78  2.13  6.56
Si  2.15 -3.85  8.61
Si  3.42 -1.72  8.89
Si -9.27  2.30  1.67
Si  4.46  0.45  8.61
Si  4.91 -8.34 -0.89
Si -6.96  6.61  1.67
Si  2.99  6.70  6.42
Si -9.02 -2.35 -2.93
Si -3.94 -6.22  6.42
Si  5.62  6.89  4.08
Si  9.68  0.09  1.45
Si  3.27  2.67  8.83
Si -5.07 -8.34 -0.89
Si -0.86  8.98  3.86
Si -3.26  8.65 -3.29
Si  4.31  8.71  1.45
Si -4.03 -1.64  8.83
Si -0.56  4.73  8.62
Si -2.84 -3.85  8.61
Si  4.17  8.89 -0.89
Si  0.64  6.17 -7.68
Si  3.58 -6.48  6.56
Si  1.79  8.95  3.87
Si -4.93 -8.52  1.45
Si  5.78  2.12 -7.82
Si  6.89  4.49 -5.63
Si -9.23  2.21 -3.08
Si -6.92  6.52 -3.08
Si  1.78  4.76  8.61
Si  5.05 -8.52  1.45
Si -8.99 -1.73  4.08
Si  6.00 -2.44 -7.68
Si  7.26 -4.12 -5.63
Si -7.96  0.22  6.20
Si  4.45  4.26 -8.04
Si -0.04 -8.43 -5.63
Si -8.17  4.67  3.86
Si -4.25  2.59  8.89
Si  4.35  8.62 -3.30
Si -4.47  6.44  6.56
Si  1.16 -6.49 -7.82
Si -5.52  0.45  8.61
Si  9.71  0.01 -3.30
Si  9.50  0.36  3.86
Si  8.38  2.40 -5.42
Si  8.53 -1.99 -5.35
Si -3.21  8.95  3.87
Si -1.89  6.43 -7.82
Si -1.30 -6.75 -7.68
Si -6.23 -6.21 -5.42
Si  4.88 -8.25  3.86
Si  5.69  6.71 -5.42
Si  4.82 -4.36 -8.04
Si  6.22 -6.29 -5.35
Si  6.96  4.49  6.20
Si -6.67  1.87 -7.68
Si -3.21  4.76  8.61
Si  0.89  2.23 -10.10
Si -0.38  0.10 -10.38
Si -10.30  0.09  1.45
Si -9.21  2.50  4.15
Si -7.72 -4.12 -5.63
Si -1.42 -2.08 -10.10
Si -6.51 -2.19 -7.82
Si  1.11 -1.99 -10.16
Si -2.39 -8.46 -5.62
Si -4.89 -8.61 -3.30
Si  7.33 -4.12  6.20
Si -5.11 -8.25  3.86
Si  0.02 -8.43  6.20
Si  9.37  4.43  1.46
Si -0.79  8.80 -5.63
Si -10.44  0.28 -0.89
Si  2.61 -8.46 -5.62
Si -5.68  8.71  1.45
Si -5.16 -4.36 -8.04
Si  8.02  6.61  1.67
Si  5.09 -8.61 -3.30
Si -6.90  6.81  4.15
Si -1.57  2.31 -10.16
Si  1.41 -10.43 -0.67
Si  8.12  6.72 -0.60
Si  9.50  4.55 -0.88
Si  1.86  8.77 -5.62
Si -1.12 -10.51 -0.60
Si  3.10  6.43 -7.82
Si -8.91 -1.90 -5.42
Si  4.80 -3.88  8.62
Si  4.13  8.98  3.86
Si  2.27  0.07 -10.37
Si -5.54  4.26 -8.04
Si -5.82  8.89 -0.89
Si  8.71 -6.12 -0.67
Si -7.65 -4.12  6.20
Si  9.74 -4.18  1.46
Si  8.35 -1.92  6.42
Si  9.87 -4.06 -0.88
Si  2.40 -8.40  6.20
Si  8.20  2.13  6.56
Si  5.52  6.44  6.56
Si -2.72  0.07 -10.37
Si -1.35 -5.94  8.83
Si  7.13 -0.05 -8.04
Si -2.59 -8.40  6.20
Si  5.95 -1.64  8.83
Si -10.26  0.01 -3.30
Si -4.36  6.17 -7.68
Si -5.18 -3.88  8.62
Si -8.80 -6.21 -0.60
Si  4.43  4.73  8.62
Si -0.72  8.80  6.20
Si  6.04 -6.22  6.42
Si  1.11 -6.03  8.89
Si  8.06  6.52 -3.08
Si -5.64  8.62 -3.30
Si -1.22 -10.62  1.67
Si -8.09  4.49 -5.63
Si -9.13  2.32 -5.35
Si -3.83 -6.49 -7.82
Si  9.40  4.34 -3.29
Si  3.69 -6.75 -7.68
Si -3.13  8.77 -5.62
Si  5.73  2.59  8.89
Si  3.57 -2.08 -10.10
Si -6.82  6.63 -5.35
Si  1.65  8.83  6.20
Si -10.10 -4.06 -0.88
Si -0.39  0.27 10.95
Si  3.42  2.31 -10.16
Si  8.61 -6.57  1.81
Si -2.12 10.66  1.81
Si -8.90 -6.31  1.67
Si  0.34 10.92  1.67
Si -3.59 -10.43 -0.67
Si  0.44 11.02 -0.60
Si -3.88 -1.99 -10.16
Si 10.70  2.30  1.67
Si 10.80  2.41 -0.60
Si -8.02  4.49  6.20
Si  6.68  8.74  1.46
Si  1.30 -10.88  1.81
Si  9.57  0.19 -5.63
Si -4.10  2.23 -10.10
Si  1.99  0.30 10.95
Si -10.23 -4.18  1.46
Si  9.78 -4.27 -3.29
Si -2.08 10.57 -2.93
Si -10.48  0.36  3.86
Si  7.11  0.42  8.62
Si -6.56 -1.72  8.89
Si  2.87 10.66  1.81
Si 11.02 -1.81 -0.67
Si  1.37 -10.34  4.08
Si -0.04 -4.24 -10.37
Si -1.19 -10.71 -3.08
Si  6.82  8.86 -0.88
Si -7.42 -8.37 -0.88
Si  3.87 -10.51 -0.60
Si  9.46  4.64  3.87
Si -6.41 -6.48  6.56
Si -7.85 -0.05 -8.04
Si  3.64 -5.94  8.83
Si  0.38 10.83 -3.08
Si  4.21  8.80 -5.63
Si -0.41  4.38 -10.37
Si  0.59  6.98  8.83
Si -1.16 -10.42  4.15
Si  4.95 -8.43 -5.63
Si  9.83 -3.97  3.87
Si -5.55  4.73  8.62
Si 10.92 -2.26  1.81
Si -3.34  8.83  6.20
Si  8.65 -6.66 -2.93
Si -2.02 11.11 -0.67
Si  7.56 -8.37 -0.88
Si -5.04 -8.43 -5.63
Si  8.67 -6.03  4.08
Si  8.08  6.81  4.15
Si  2.91 10.57 -2.93
Si  5.63  6.17 -7.68
Si -8.86 -6.40 -3.08
Si -3.00  0.30 10.95
Si  4.62  0.10 -10.38
Si  7.43 -8.49  1.46
Si 10.74  2.21 -3.08
Si -5.86  8.98  3.86
Si  3.77 -10.62  1.67
Si -6.72  2.67  8.83
Si -1.94  6.89  8.89
Si -9.09 -2.17  6.56
Si -3.88 -6.03  8.89
Si  1.34 -10.97 -2.93
Si  2.31 -4.21 -10.38
Si -1.67 -1.83 11.17
Si  6.72  8.65 -3.29
Si  1.93  4.40 -10.38
Si -10.47  4.55 -0.88
