500
set: 779.00  0.00  0.00
Si -0.43  1.21 -0.81
Si  0.37 -1.23  0.86
Si  1.27  1.13  0.90
Si -1.33 -1.20 -0.87
Si -0.89  0.05  2.46
Si  2.16 -1.25 -0.77
Si -2.20  1.22  0.77
Si  0.91  0.00 -2.48
Si  3.09  1.12 -0.87
Si -3.10 -1.20  0.80
Si -0.07 -2.40 -2.48
Si  0.04  2.43  2.48
Si -2.62  0.08 -2.48
Si  2.75 -0.01  2.44
Si  0.50  3.55 -0.87
Si -0.56 -3.61  0.90
Si  1.76  2.34 -2.48
Si -1.79 -2.32  2.48
Si -1.27  3.54  0.80
Si -1.72  2.45 -2.43
Si  1.78 -2.41  2.47
Si  1.26 -3.62 -0.87
Si  0.85 -0.03  4.11
Si -0.89  0.06 -4.11
Si -3.97  1.12 -0.87
Si  3.96 -1.20  0.80
Si  2.20  3.52  0.86
Si -2.26 -3.53 -0.81
Si  3.03 -3.52  0.77
Si -3.07  3.50 -0.77
Si -0.00 -2.37  4.11
Si  0.01  2.42 -4.13
Si -3.45  2.34  2.47
Si  3.51 -2.29 -2.43
Si -3.55 -2.29 -2.43
Si -2.63  0.08  4.16
Si  2.69 -0.03 -4.12
Si  3.61  2.34  2.47
Si -4.32 -0.01  2.44
Si  4.86  1.22  0.77
Si -1.81 -2.32 -4.13
Si -1.70  2.45  4.11
Si  4.44  0.08 -2.48
Si  1.83  2.37  4.11
Si -4.90 -1.25 -0.77
Si  1.82 -2.38 -4.15
Si  3.99  3.50 -0.77
Si -4.03 -3.52  0.77
Si  0.92 -4.75  2.44
Si -0.92 -4.74 -2.48
Si  0.94  4.79  2.46
Si -0.79  4.82 -2.48
Si  0.35 -1.24 -5.69
Si -0.41  1.17  5.72
Si -3.41  2.37 -4.15
Si -2.49  4.73  2.44
Si  3.53 -2.29  4.11
Si -3.53 -2.29  4.11
Si  2.61 -4.66 -2.48
Si  5.73 -1.20 -0.87
Si -2.72 -4.69  2.46
Si -5.79  1.13  0.90
Si  1.28  1.15 -5.72
Si -4.37 -0.03 -4.12
Si  3.65  2.37 -4.15
Si  2.74  4.74 -2.48
Si  4.80 -3.53 -0.81
Si -0.37  5.96  0.77
Si -1.34 -1.16  5.78
Si  0.33 -5.99 -0.77
Si -4.86  3.52  0.86
Si  4.43  0.08  4.16
Si  1.40  5.95 -0.81
Si -1.46 -5.97  0.86
Si  2.18 -1.25  5.72
Si  5.27 -2.32  2.48
Si -2.19  1.18 -5.79
Si -5.30  2.34 -2.48
Si -2.14  5.87 -0.87
Si -5.28 -2.41  2.47
Si  5.34  2.45 -2.43
Si  2.13 -5.94  0.80
Si  0.86 -4.78 -4.12
Si -0.98 -4.78  4.11
Si  0.94  4.80 -4.11
Si -0.80  4.82  4.16
Si -6.15  0.00 -2.48
Si  6.17  0.05  2.46
Si  3.08  1.12  5.82
Si  3.10  5.87  0.90
Si -3.12 -1.15 -5.82
Si -2.54  4.71 -4.12
Si  2.60 -4.67  4.16
Si -3.16 -5.94 -0.87
Si -0.55 -3.60 -5.72
Si  6.63  1.21 -0.81
Si -2.72 -4.69 -4.11
Si  2.68  4.71  4.11
Si  0.49  3.58  5.78
Si  5.79  3.54  0.80
Si  4.34 -4.69  2.46
Si -6.69 -1.23  0.86
Si -4.33  4.74 -2.48
Si -5.80 -3.62 -0.87
Si -4.45 -4.66 -2.48
Si -1.29  3.59 -5.82
Si  1.25 -3.62  5.82
Si  4.57  4.73  2.44
Si  2.18  3.50 -5.69
Si -5.23  2.37  4.11
Si  5.25 -2.32 -4.13
Si -5.24 -2.38 -4.15
Si -2.24 -3.57  5.72
Si  3.94 -1.15 -5.82
Si -3.98  1.12  5.82
Si -3.96  5.87  0.90
Si  3.90 -5.94 -0.87
Si  5.36  2.45  4.11
Si -3.05  3.49  5.72
Si  6.17  0.06 -4.11
Si -6.21 -0.03  4.11
Si  3.04 -3.57 -5.79
Si  6.50 -3.61  0.90
Si -6.56  3.55 -0.87
Si -0.05 -7.15  2.47
Si -0.42  1.18 -7.46
Si  7.43 -1.23  0.86
Si  0.11  7.19 -2.43
Si  4.35 -4.69 -4.11
Si  0.36 -1.25  7.49
Si -1.35 -1.16 -7.39
Si -4.88 -1.25  5.72
Si -7.49  1.21 -0.81
Si  1.68 -7.04 -2.43
Si -4.38  4.71  4.11
Si  1.29  1.14  7.45
Si  4.87  1.18 -5.79
Si -1.62  7.08  2.47
Si -4.46 -4.67  4.16
Si  4.92  5.87 -0.87
Si  4.52  4.71 -4.12
Si -4.93 -5.94  0.80
Si -2.18  1.17  7.39
Si  6.99 -2.40 -2.48
Si -1.90 -7.14 -2.48
Si  1.86  7.17  2.48
Si  4.01  3.49  5.72
Si -7.03  2.43  2.48
Si  2.17 -1.25 -7.46
Si -4.02 -3.57 -5.79
Si  7.10  2.43  2.48
Si -7.13 -2.40 -2.48
Si  3.07  1.13 -7.36
Si -3.11 -1.15  7.36
Si  6.14 -4.74 -2.48
Si -6.15 -4.75  2.44
Si -6.12  4.79  2.46
Si -5.78  1.15 -5.72
Si  5.72 -1.16  5.78
Si  0.48  3.58 -7.39
Si  5.60 -5.97  0.86
Si  3.44 -7.06  2.48
Si -0.01 -7.12 -4.15
Si -5.66  5.95 -0.81
Si -3.47  7.08 -2.48
Si -4.88  3.50 -5.69
Si -1.28  3.59  7.36
Si  0.13  7.19  4.11
Si -0.36  5.92 -5.79
Si  6.27  4.82 -2.48
Si  4.83 -3.57  5.72
Si  0.35 -5.99  5.72
Si -0.54 -3.60  7.45
Si  1.24 -3.62 -7.36
Si -3.62 -7.06  2.48
Si  3.59  7.08 -2.48
Si -7.96  0.05  2.46
Si  1.70 -7.04  4.11
Si  0.56  8.29  0.80
Si  7.97  0.00 -2.48
Si  1.42  5.92  5.72
Si -1.24  8.24 -0.77
Si -1.58  7.11 -4.15
Si -1.48 -5.98 -5.69
Si  1.21 -8.27  0.77
Si  7.56  3.55 -0.87
Si -1.83 -7.12  4.11
Si -0.57 -8.36 -0.87
Si  3.96 -1.15  7.36
Si -3.99  1.13 -7.36
Si  8.33  1.13  0.90
Si  1.84  7.17 -4.13
Si -7.62 -3.61  0.90
Si  7.06 -2.37  4.11
Si -7.06 -2.37  4.11
Si -8.39 -1.20 -0.87
Si -7.05  2.42 -4.13
Si -2.15  5.87  5.82
Si  7.08  2.42 -4.13
Si  2.11 -5.89 -5.82
Si  2.19  3.50  7.49
Si -2.25 -3.56 -7.46
Si  2.33  8.29 -0.87
Si -2.39 -8.36  0.90
Si  3.05 -3.57  7.39
Si  6.08 -4.78  4.11
Si  3.11  5.89 -5.72
Si -3.06  3.50 -7.46
Si -6.12  4.80 -4.11
Si  2.97 -8.28 -0.81
Si -3.03  8.26  0.86
Si -6.20 -4.78 -4.12
Si  6.66  1.17  5.72
Si -3.17 -5.91  5.78
Si  3.42 -7.06 -4.13
Si -6.71 -1.24 -5.69
Si -3.40  7.11  4.11
Si  7.91 -0.03  4.11
Si  6.26  4.82  4.16
Si  4.88  1.17  7.39
Si -7.95  0.06 -4.11
Si  5.77  3.59 -5.82
Si -3.64 -7.06 -4.13
Si -5.81 -3.62  5.82
Si  3.66  7.11  4.11
Si  6.69  5.96  0.77
Si -4.89 -1.25 -7.46
Si -6.73 -5.99 -0.77
Si -8.33  3.54  0.80
Si  0.84 -0.03 -9.07
Si -0.87  0.05  9.07
Si -3.95  5.89 -5.72
Si  8.32 -3.62 -0.87
Si -4.01 -3.57  7.39
Si  3.89 -5.91  5.78
Si  5.16 -7.14 -2.48
Si  4.00  3.50 -7.46
Si -5.38 -7.04 -2.43
Si -5.20  7.17  2.48
Si  4.03  8.26  0.86
Si  5.44  7.08  2.47
Si -4.09 -8.28 -0.81
Si  9.22 -1.25 -0.77
Si  0.03  2.42  9.04
Si -9.26  1.22  0.77
Si -0.01 -2.37 -9.07
Si  6.51 -3.60 -5.72
Si -2.64  0.08 -9.02
Si  5.71 -1.16 -7.39
Si  7.41 -1.24 -5.69
Si -8.78  2.45 -2.43
Si  2.70 -0.04  9.06
Si  8.82  2.34 -2.48
Si -6.57  3.58  5.78
Si -0.35  5.91  7.39
Si -7.47  1.17  5.72
Si -8.86 -2.32  2.48
Si  8.84 -2.41  2.47
Si -5.77  1.14  7.45
Si -1.80 -2.32  9.04
Si  1.84 -2.38  9.03
Si -7.85  4.82 -2.48
Si -1.71  2.45 -9.06
Si  1.82  2.37 -9.07
Si  7.39 -5.99 -0.77
Si -7.43  5.96  0.77
Si  4.81 -3.56 -7.46
Si  0.34 -5.99 -7.46
Si -4.73  8.29 -0.87
Si -4.87  3.50  7.49
Si  7.98 -4.75  2.44
Si  4.91  5.87  5.82
Si -7.98 -4.74 -2.48
Si  4.67 -8.36  0.90
Si  1.41  5.92 -7.46
Si  8.00  4.79  2.46
Si -4.95 -5.89 -5.82
Si -2.16  5.87 -7.36
Si  2.13 -5.90  7.36
Si -1.47 -5.99  7.49
Si  5.23 -7.12  4.11
Si -5.36 -7.04  4.11
Si  0.78 -9.41 -2.48
Si -5.22  7.17 -4.13
Si -0.66  9.48  2.44
Si -0.92 -9.49  2.44
Si  5.48  7.11 -4.15
Si -3.40  2.36  9.03
Si  1.04  9.56 -2.48
Si  9.26  3.52  0.86
Si  5.58 -5.98 -5.69
Si -5.64  5.92  5.72
Si -3.18 -5.90 -7.39
Si -8.76  2.45  4.11
Si  3.52 -2.29 -9.06
Si -9.68  0.08 -2.48
Si  3.12  5.88  7.45
Si -3.54 -2.29 -9.06
Si -9.32 -3.53 -0.81
Si  5.79  3.59  7.36
Si  3.67  2.36  9.03
Si  4.42  0.08 -9.02
Si -4.36 -0.04  9.06
Si -5.82 -3.62 -7.36
Si  6.64  1.18 -7.46
Si -8.88 -2.32 -4.13
Si  2.51 -9.44  2.46
Si  8.89  2.37  4.11
Si  8.88 -2.38 -4.15
Si -1.22  8.24  5.72
Si  9.81 -0.01  2.44
Si -7.86  4.82  4.16
Si -2.50  9.49 -2.48
Si  5.82  8.24 -0.77
Si  7.92 -4.78 -4.12
Si -6.70 -1.25  7.49
Si -5.86 -8.27  0.77
Si  7.55  3.58  5.78
Si  8.34  1.15 -5.72
Si -7.61 -3.60 -5.72
Si  0.54  8.34 -5.82
Si -2.75 -9.49 -2.48
Si  8.01  4.80 -4.11
Si  1.21 -8.31 -5.79
Si -0.57 -8.37  5.82
Si -8.04 -4.78  4.11
Si  3.88 -5.90 -7.39
Si  2.77  9.54  2.46
Si 10.15  1.12 -0.87
Si -10.16 -1.20  0.80
Si -0.81  4.82 -9.02
Si -8.40 -1.16  5.78
Si  0.87 -4.78  9.06
Si -3.94  5.88  7.45
Si -0.99 -4.77 -9.07
Si -6.95  7.19 -2.43
Si  0.96  4.80  9.07
Si  7.01 -7.15  2.47
Si  0.77 -9.41  4.16
Si -0.71  9.45 -4.12
Si  8.46  5.95 -0.81
Si -7.11 -7.15  2.47
Si -2.38 -8.34 -5.72
Si  2.32  8.32  5.78
Si -0.97 -9.52 -4.12
Si -8.52 -5.97  0.86
Si  7.17  7.19 -2.43
Si -3.06  8.24 -5.69
Si  1.03  9.56  4.16
Si  2.59 -4.66 -9.02
Si -2.53  4.71  9.06
Si  3.00 -8.31  5.72
Si -6.58  3.58 -7.39
Si  6.52 -3.60  7.45
Si -9.69  0.08  4.16
Si  2.67  4.71 -9.07
Si -6.50  8.29  0.80
Si -2.70 -4.69  9.07
Si  9.75 -0.03 -4.12
Si  2.52 -9.43 -4.11
Si  4.90  5.87 -7.36
Si  7.42 -1.25  7.49
Si -2.55  9.45  4.11
Si  6.49 -8.36 -0.87
Si -7.48  1.18 -7.46
Si -4.94 -5.90  7.36
Si -0.31 10.61 -0.87
Si  6.70  5.92 -5.79
Si -6.71 -5.99  5.72
Si -5.22 -2.38  9.03
Si  4.31 -9.49 -2.48
Si  5.26 -2.32  9.04
Si  0.30 -10.69  0.80
Si 10.10 -3.52  0.77
Si  0.92 -0.00 10.70
Si -5.25  2.37 -9.07
Si -2.81 -9.52  4.11
Si -4.29  9.54  2.46
Si -10.13  3.50 -0.77
Si  2.77  9.54 -4.11
Si -0.91  0.05 -10.72
Si -4.55 -9.44  2.46
Si  8.32 -3.62  5.82
Si  4.01  8.24 -5.69
Si -8.35  3.59 -5.82
Si -6.93  7.19  4.11
Si  5.35  2.45 -9.06
Si  4.57  9.49 -2.48
Si  1.46 10.71  0.77
Si  7.05 -7.12 -4.15
Si -7.07 -7.12 -4.15
Si -2.13 10.62  0.90
Si -1.50 -10.73 -0.77
Si -4.07 -8.31  5.72
Si  2.07 -10.68 -0.87
Si -9.55  4.73  2.44
Si  9.24 -1.25  5.72
Si -9.20  5.87 -0.87
Si -0.06 -2.41 10.70
Si  0.02  2.43 -10.70
Si  7.19  7.19  4.11
Si -9.25  1.18 -5.79
Si  9.20 -5.94  0.80
Si  6.19  0.05  9.07
Si -6.22 -0.03 -9.07
Si -2.61  0.07 10.70
Si  9.67 -4.66 -2.48
Si -10.51  2.34  2.47
Si -5.65  5.92 -7.46
Si  2.73 -0.01 -10.73
Si 10.57 -2.29 -2.43
Si -1.81 -2.31 -10.70
Si  1.77  2.34 10.70
Si -4.47 -4.66 -9.02
Si  5.59 -5.99  7.49
Si  4.36 -4.69  9.07
Si  1.77 -2.40 -10.71
Si -7.42  5.92 -5.79
Si 11.02 -1.20  0.80
Si  7.42 -5.99  5.72
Si -11.03  1.12 -0.87
Si -4.39  4.71 -9.07
Si -10.61 -2.29 -2.43
Si -9.79 -4.69  2.46
Si  0.55  8.33  7.36
Si  4.68 -8.34 -5.72
Si -1.71  2.45 10.74
Si  7.54  3.58 -7.39
Si -0.59 -8.36 -7.36
Si  9.80  4.74 -2.48
Si  4.53  4.71  9.06
Si -1.23  8.24 -7.46
Si -4.74  8.32  5.78
Si  1.23 -8.31  7.39
Si 10.67  2.34  2.47
Si  3.23 10.70 -0.81
Si  4.25 -9.52  4.11
Si -7.60 -3.60  7.45
Si -4.29  9.54 -4.11
Si -3.29 -10.71  0.86
Si -4.54 -9.43 -4.11
Si  4.51  9.45  4.11
Si  8.35  1.14  7.45
Si -8.41 -1.16 -7.39
Si  7.62  8.29  0.80
Si -7.63 -8.36 -0.87
Si  2.31  8.33 -7.39
Si -3.83 10.70 -0.81
Si  3.77 -10.71  0.86
Si  9.24  3.50 -5.69
Si -2.37 -8.35  7.45
Si -9.61  4.71 -4.12
Si -8.68  7.08  2.47
Si -9.30 -3.57  5.72
Si  8.74 -7.04 -2.43
Si -3.46  2.34 -10.71
Si  0.01 -7.12  9.03
Si -10.47  2.37 -4.15
Si  9.66 -4.67  4.16
Si  3.60  2.34 -10.71
Si  3.52 -2.30 10.74
Si -3.54 -2.30 10.74
Si -3.04  8.24  7.49
Si  2.98 -8.31 -7.46
Si  6.15 -9.49  2.44
Si -6.03  9.56 -2.48
Si  0.12  7.20 -9.06
Si -4.33 -0.01 -10.73
Si  9.74  4.71  4.11
Si -6.28 -9.41 -2.48
Si  4.45  0.07 10.70
Si 10.59 -2.29  4.11
Si -10.59 -2.29  4.11
Si -9.78 -4.69 -4.11
Si -1.57  7.10  9.03
Si  1.69 -7.03 -9.06
Si  6.71  5.91  7.39
Si  5.84  8.24  5.72
Si 11.05  3.50 -0.77
Si -11.38 -0.01  2.44
Si -11.09 -3.52  0.77
Si -1.84 -7.11 -9.07
Si  8.30 -3.62 -7.36
Si -8.34  3.59  7.36
Si  1.86  7.16  9.04
Si -6.72 -5.99 -7.46
Si  6.40  9.48  2.44
Si -5.85 -8.31 -5.79
Si -7.03  2.42  9.04
Si  8.93  7.17  2.48
Si  8.27 -8.27  0.77
Si -8.30  8.24 -0.77
Si  7.05 -2.37 -9.07
Si -8.96 -7.14 -2.48
Si 10.71  2.37 -4.15
Si  4.93 10.62  0.90
Si -0.91 -4.75 10.70
Si  7.09  2.42  9.04
Si -7.08 -2.37 -9.07
Si 10.15  1.12  5.82
