500
set: 1042.00  0.00  0.00
Si  0.45 -1.11  0.77
Si -0.54  1.11 -0.81
Si  1.33  1.23  0.77
Si -1.38 -1.29 -0.79
Si -0.83 -0.03  2.42
Si  0.86  0.02 -2.43
Si  2.16 -1.18 -0.83
Si -2.22  1.17  0.86
Si  0.03  2.30  2.44
Si  0.00 -2.32 -2.46
Si  3.10  1.14 -0.84
Si -3.10 -1.15  0.84
Si -2.52  0.02 -2.39
Si  0.42  3.39 -0.79
Si -0.47 -3.45  0.77
Si  2.60  0.01  2.48
Si  1.73 -2.33  2.43
Si -1.66  2.40 -2.47
Si -1.77 -2.38  2.44
Si  1.80  2.36 -2.46
Si -1.31  3.53  0.84
Si  1.30 -3.54 -0.84
Si  3.88 -1.15  0.84
Si -3.88  1.14 -0.84
Si  0.90  0.02  4.05
Si -0.87 -0.04 -4.07
Si  2.25  3.56  0.77
Si -2.34 -3.57 -0.81
Si  2.97 -3.50  0.86
Si -3.02  3.50 -0.83
Si -0.04 -2.32  4.09
Si  0.07  2.31 -4.10
Si -2.56  0.07  4.05
Si -3.46 -2.27 -2.47
Si -3.45  2.35  2.43
Si  2.63  0.01 -4.08
Si  3.52 -2.27 -2.47
Si  3.53  2.35  2.43
Si  1.70 -2.33 -4.04
Si  4.76  1.17  0.86
Si -1.62  2.36  4.12
Si -4.82 -1.18 -0.83
Si -4.38  0.01  2.48
Si  1.76  2.36  4.09
Si -1.73 -2.37 -4.10
Si  4.46  0.02 -2.39
Si -0.72  4.70 -2.39
Si  0.97  4.64  2.42
Si -0.94 -4.66 -2.43
Si  0.80 -4.66  2.48
Si  3.96  3.50 -0.83
Si -4.02 -3.50  0.86
Si  5.60 -1.29 -0.79
Si -3.48  2.35 -4.04
Si -5.65  1.23  0.77
Si  3.50  2.35 -4.04
Si -3.42 -2.32  4.12
Si -0.48  1.05  5.72
Si  0.43 -1.11 -5.74
Si  2.66 -4.66 -2.39
Si -2.58  4.69  2.48
Si  4.64 -3.57 -0.81
Si -2.63 -4.71  2.42
Si  2.66  4.70 -2.43
Si  3.56 -2.32  4.12
Si  0.37 -5.86 -0.83
Si -0.42  5.85  0.86
Si -4.35  0.01 -4.08
Si -4.73  3.56  0.77
Si  1.26  5.79 -0.81
Si -1.35 -5.79  0.77
Si  4.42  0.07  4.05
Si -1.44 -1.23  5.71
Si  1.35  1.23 -5.75
Si -5.18  2.36 -2.46
Si  2.20 -1.20  5.68
Si -2.21  1.19 -5.68
Si  5.21 -2.38  2.44
Si -2.08  5.82 -0.84
Si -5.25 -2.33  2.43
Si -0.90 -4.66  4.05
Si  2.08 -5.83  0.84
Si  0.93  4.64 -4.07
Si  0.83 -4.67 -4.08
Si -0.76  4.74  4.05
Si  5.32  2.40 -2.47
Si  3.06  1.16  5.68
Si -3.12 -1.17 -5.66
Si -6.12  0.02 -2.43
Si  6.44  1.11 -0.81
Si  6.15 -0.03  2.42
Si -6.53 -1.11  0.77
Si  2.62 -4.61  4.05
Si  0.36  3.45  5.71
Si -0.45 -3.45 -5.75
Si -2.55  4.69 -4.08
Si  3.13  5.90  0.77
Si  5.67  3.53  0.84
Si -5.68 -3.54 -0.84
Si  2.70  4.70  4.05
Si -2.67 -4.72 -4.07
Si -1.32  3.51 -5.66
Si -4.32 -4.66 -2.39
Si  1.26 -3.52  5.68
Si -3.18 -5.97 -0.79
Si -4.32  4.70 -2.43
Si  4.35 -4.71  2.42
Si  4.40  4.69  2.48
Si  3.87 -1.17 -5.66
Si -3.92  1.16  5.68
Si -5.22  2.36  4.09
Si -5.28 -2.33 -4.04
Si  5.25 -2.37 -4.10
Si -3.85  5.90  0.77
Si  3.80 -5.97 -0.79
Si  2.23  3.56 -5.74
Si -2.28 -3.63  5.72
Si  5.36  2.36  4.12
Si  2.98 -3.49 -5.68
Si -2.98  3.48  5.68
Si -6.08  0.02  4.05
Si  6.11 -0.04 -4.07
Si  0.43 -1.11  7.29
Si -0.48  1.05 -7.31
Si  6.51 -3.45  0.77
Si -0.07 -7.01  2.43
Si -6.57  3.39 -0.79
Si  0.14  7.08 -2.47
Si  1.35  1.23  7.29
Si  4.78  1.19 -5.68
Si -4.78 -1.20  5.68
Si -4.36 -4.61  4.05
Si -4.28  4.70  4.05
Si  7.43 -1.11  0.77
Si -1.44 -1.23 -7.32
Si  1.72 -6.95 -2.47
Si  4.31 -4.72 -4.07
Si  1.82  6.98  2.44
Si -1.66  7.03  2.43
Si  4.43  4.69 -4.08
Si -1.80 -7.00 -2.46
Si -7.52  1.11 -0.81
Si  4.90  5.82 -0.84
Si -4.90 -5.83  0.84
Si -6.96  2.30  2.44
Si -6.98 -2.32 -2.46
Si  6.98 -2.32 -2.46
Si  4.00  3.48  5.68
Si  7.01  2.30  2.44
Si  2.20 -1.20 -7.35
Si -2.21  1.19  7.35
Si -4.00 -3.49 -5.68
Si -6.01  4.64  2.42
Si  6.04 -4.66 -2.43
Si  3.06  1.16 -7.35
Si  5.54 -1.23  5.71
Si -0.45 -3.45  7.29
Si -0.10 -7.00 -4.04
Si -3.12 -1.17  7.38
Si  0.36  3.45 -7.32
Si  5.63 -5.79  0.77
Si -6.18 -4.66  2.48
Si -5.63  1.23 -5.75
Si  0.18  7.04  4.12
Si  7.40  3.39 -0.79
Si -0.41  5.87 -5.68
Si -5.72  5.79 -0.81
Si -7.81 -0.03  2.42
Si  0.40 -5.88  5.68
Si  6.26  4.70 -2.39
Si -3.38  7.04 -2.46
Si  1.32  5.73  5.72
Si  7.84  0.02 -2.43
Si  3.41 -7.06  2.44
Si  1.26 -3.52 -7.35
Si -7.45 -3.45  0.77
Si  4.70 -3.63  5.72
Si -4.75  3.56 -5.74
Si  0.49  8.21  0.84
Si -1.37 -5.79 -5.74
Si -0.50 -8.21 -0.84
Si -1.32  3.51  7.38
Si  3.60  7.04 -2.46
Si -3.57 -7.06  2.44
Si -1.68  7.03 -4.04
Si  1.76 -7.00  4.12
Si  1.87  6.98 -4.10
Si -1.22  8.18 -0.83
Si -1.84 -7.00  4.09
Si  1.17 -8.18  0.86
Si -6.91  2.31 -4.10
Si  6.94 -2.32  4.09
Si  2.07 -5.84 -5.66
Si  2.21  8.07 -0.79
Si -3.92  1.16 -7.35
Si  3.87 -1.17  7.38
Si  2.23  3.56  7.29
Si -2.12  5.84  5.68
Si  8.31  1.23  0.77
Si -7.02 -2.32  4.09
Si -2.28 -3.63 -7.31
Si  7.05  2.31 -4.10
Si -2.27 -8.13  0.77
Si -8.36 -1.29 -0.79
Si -6.06  4.64 -4.07
Si -2.98  3.48 -7.35
Si  2.98 -3.49  7.35
Si  6.08 -4.66  4.05
Si  6.50  1.05  5.72
Si -6.15 -4.67 -4.08
Si  5.66  3.51 -5.66
Si  2.85 -8.24 -0.81
Si -6.55 -1.11 -5.74
Si -2.93  8.24  0.77
Si -5.72 -3.52  5.68
Si  6.22  4.74  4.05
Si  3.15  5.90 -5.75
Si -3.24 -5.91  5.71
Si -3.42  7.04  4.09
Si  6.56  5.85  0.86
Si -7.86 -0.04 -4.07
Si  4.78  1.19  7.35
Si  3.45 -7.05 -4.10
Si -4.78 -1.20 -7.35
Si  7.88  0.02  4.05
Si -6.62 -5.86 -0.83
Si  3.56  7.04  4.09
Si -3.53 -7.05 -4.10
Si -0.87 -0.04  8.96
Si -5.16  6.98  2.44
Si  0.90  0.02 -8.98
Si  3.75 -5.91  5.71
Si  8.28 -3.54 -0.84
Si -8.29  3.53  0.84
Si  5.18 -7.00 -2.46
Si -5.26 -6.95 -2.47
Si  4.00  3.48 -7.35
Si -4.00 -3.49  7.35
Si -3.83  5.90 -5.75
Si  5.33  7.03  2.43
Si  4.05  8.24  0.77
Si  0.07  2.31  8.94
Si -0.04 -2.32 -8.94
Si -4.14 -8.24 -0.81
Si  9.15 -1.18 -0.83
Si  5.54 -1.23 -7.32
Si -5.63  1.23  7.29
Si -8.64  2.40 -2.47
Si -9.20  1.17  0.86
Si  2.63  0.01  8.95
Si -7.71  4.70 -2.39
Si  8.71 -2.33  2.43
Si -2.56  0.07 -8.98
Si -1.62  2.36 -8.91
Si  6.53 -3.45 -5.75
Si  1.32  5.73 -7.31
Si -8.76 -2.38  2.44
Si -6.62  3.45  5.71
Si -4.75  3.56  7.29
Si -4.77  8.07 -0.79
Si  7.78 -4.66  2.48
Si -1.73 -2.37  8.94
Si -1.37 -5.79  7.29
Si  1.76  2.36 -8.94
Si  4.70 -3.63 -7.31
Si -0.41  5.87  7.35
Si  8.78  2.36 -2.46
Si  0.40 -5.88 -7.35
Si  4.72 -8.13  0.77
Si  7.35 -5.86 -0.83
Si  7.41 -1.11 -5.74
Si  1.70 -2.33  9.00
Si -7.46  1.05  5.72
Si -7.40  5.85  0.86
Si  4.86  5.84  5.68
Si -4.92 -5.84 -5.66
Si -7.92 -4.66 -2.43
Si  7.95  4.64  2.42
Si -5.12  6.98 -4.10
Si  5.14 -7.00  4.09
Si -2.12  5.84 -7.35
Si  2.07 -5.84  7.38
Si -5.22 -7.00  4.12
Si  0.86 -9.33 -2.39
Si  5.30  7.03 -4.04
Si -1.00 -9.34  2.48
Si -0.79  9.37  2.48
Si  1.07  9.38 -2.39
Si -9.50  0.02 -2.39
Si -3.42 -2.32 -8.91
Si -8.60  2.36  4.12
Si  6.50  1.05 -7.31
Si  8.68 -2.33 -4.04
Si -6.55 -1.11  7.29
Si  3.56 -2.32 -8.91
Si -5.67  5.73  5.72
Si  3.15  5.90  7.29
Si  9.58  0.01  2.48
Si  5.62 -5.79 -5.74
Si -8.71 -2.37 -4.10
Si  7.34  3.45  5.71
Si  9.23  3.56  0.77
Si -3.48  2.35  9.00
Si  8.74  2.36  4.09
Si  3.50  2.35  9.00
Si  5.66  3.51  7.38
Si -7.74  4.74  4.05
Si -3.24 -5.91 -7.32
Si -5.72 -3.52 -7.35
Si -4.35  0.01  8.95
Si  0.48  8.19 -5.66
Si  7.81 -4.67 -4.08
Si -0.53 -8.19  5.68
Si -7.43 -3.45 -5.75
Si -2.53  9.38 -2.43
Si -1.19  8.16  5.68
Si -9.32 -3.57 -0.81
Si -7.88 -4.66  4.05
Si  4.42  0.07 -8.98
Si  1.18 -8.16 -5.68
Si  2.77  9.32  2.42
Si  2.55 -9.39  2.42
Si -2.74 -9.34 -2.43
Si  7.91  4.64 -4.07
Si  5.76  8.18 -0.83
Si -5.81 -8.18  0.86
Si  8.24  5.79 -0.81
Si  3.75 -5.91 -7.32
Si  0.83 -4.67  8.95
Si  0.93  4.64  8.96
Si -3.83  5.90  7.29
Si  6.91 -7.01  2.43
Si -6.84  7.08 -2.47
Si -0.90 -4.66 -8.98
Si  2.16  8.13  5.71
Si  0.82 -9.29  4.05
Si -8.33 -5.79  0.77
Si 10.08  1.14 -0.84
Si -10.09 -1.15  0.84
Si -0.76  4.74 -8.98
Si  8.33  1.23 -5.75
Si -2.25 -8.13 -5.75
Si -7.05 -7.01  2.43
Si -0.76  9.36 -4.08
Si -0.97 -9.35 -4.08
Si -8.42 -1.23  5.71
Si  1.04  9.42  4.05
Si  7.12  7.08 -2.47
Si -9.54  0.07  4.05
Si  6.53 -3.45  7.29
Si -2.55  4.69  8.95
Si  2.62 -4.61 -8.98
Si  9.61  0.01 -4.08
Si  7.41 -1.11  7.29
Si -6.62  3.45 -7.32
Si -2.95  8.24 -5.74
Si -2.67 -4.72  8.96
Si  6.58  5.87 -5.68
Si  2.70  4.70 -8.98
Si -6.58 -5.88  5.68
Si  2.90 -8.30  5.72
Si -6.49  8.21  0.84
Si  6.48 -8.21 -0.84
Si -7.46  1.05 -7.31
Si -2.48  9.38  4.05
Si -4.22  9.32  2.42
Si  2.72  9.31 -4.07
Si -2.70 -9.34  4.05
Si -0.29 10.50 -0.84
Si  4.24 -9.34 -2.43
Si  0.28 -10.50  0.84
Si  2.51 -9.39 -4.07
Si  4.86  5.84 -7.35
Si  9.95 -3.50  0.86
Si  8.25 -3.52  5.68
Si  6.88 -7.00 -4.04
Si -4.92 -5.84  7.38
Si -6.80  7.04  4.12
Si -5.22  2.36 -8.94
Si -10.00  3.50 -0.83
Si  5.25 -2.37  8.94
Si -8.30  3.51 -5.66
Si  0.86  0.02 10.60
Si -0.83 -0.03 -10.61
Si  1.38 10.53  0.86
Si -4.43 -9.39  2.42
Si  4.46  9.38 -2.43
Si  5.36  2.36 -8.91
Si -1.43 -10.53 -0.83
Si -5.28 -2.33  9.00
Si -7.08 -7.00 -4.04
Si  9.06 -5.83  0.84
Si -2.05 10.58  0.77
Si -9.07  5.82 -0.84
Si -0.00 -2.32 10.57
Si  4.03  8.24 -5.74
Si  0.03  2.30 -10.59
Si  6.11 -0.04  8.96
Si -6.08  0.02 -8.98
Si  7.16  7.04  4.12
Si  2.00 -10.64 -0.79
Si  9.18 -1.20  5.68
Si -9.19  1.19 -5.68
Si  2.60  0.01 -10.55
Si  5.62 -5.79  7.29
Si -5.67  5.73 -7.31
Si -4.08 -8.30  5.72
Si  7.34  3.45 -7.32
Si -2.52  0.02 10.64
Si  3.06 10.47 -0.81
Si -9.56  4.69  2.48
Si 10.86 -1.15  0.84
Si -10.86  1.14 -0.84
Si -3.15 -10.47  0.77
Si -1.66  2.40 10.56
Si -7.43 -3.45  7.29
Si -10.44 -2.27 -2.47
Si -10.44  2.35  2.43
Si  9.64 -4.66 -2.39
Si -9.61 -4.71  2.42
Si  1.80  2.36 10.57
Si  1.73 -2.33 -10.60
Si  9.64  4.70 -2.43
Si -1.77 -2.38 -10.59
Si -4.36 -4.61 -8.98
Si -4.28  4.70 -8.98
Si  4.31 -4.72  8.96
Si  7.38 -5.88  5.68
Si -7.39  5.87 -5.68
Si -0.53 -8.19 -7.35
Si  4.73 -8.13 -5.75
Si -4.26  9.31 -4.07
Si 10.50 -2.27 -2.47
Si  4.43  4.69  8.95
Si  0.48  8.19  7.38
Si 10.51  2.35  2.43
Si -4.82  8.13  5.71
Si  4.28 -9.34  4.05
Si -1.19  8.16 -7.35
Si  1.18 -8.16  7.35
Si  7.47  8.21  0.84
Si  8.33  1.23  7.29
Si -7.48 -8.21 -0.84
Si -2.25 -8.13  7.29
Si  2.16  8.13 -7.32
Si  4.50  9.38  4.05
Si -4.47 -9.39 -4.07
Si  3.83 -10.47  0.77
Si -3.92 10.47 -0.81
Si -8.42 -1.23 -7.32
Si -5.91  9.38 -2.39
Si -3.46 -2.27 10.56
Si  0.18  7.04 -8.91
Si  3.52 -2.27 10.56
Si  5.98 -9.34  2.48
Si -9.54  4.69 -4.08
Si -2.95  8.24  7.29
Si -3.45  2.35 -10.60
Si -8.64  7.03  2.43
Si  9.60 -4.61  4.05
Si -0.10 -7.00  9.00
Si  8.71 -6.95 -2.47
Si -6.12 -9.33 -2.39
Si  3.53  2.35 -10.60
Si -4.38  0.01 -10.55
Si  9.21  3.56 -5.74
Si -10.40 -2.32  4.12
Si  2.90 -8.30 -7.31
Si -10.46  2.35 -4.04
Si  1.76 -7.00 -8.91
Si 10.48  2.35 -4.04
Si -9.26 -3.63  5.72
Si  6.57  5.87  7.35
Si -6.58 -5.88 -7.35
Si -9.65 -4.72 -4.07
Si -8.78 -7.00 -2.46
Si  1.87  6.98  8.94
Si  8.80  6.98  2.44
Si  9.68  4.70  4.05
Si  6.20  9.37  2.48
Si -1.84 -7.00 -8.94
Si  5.80  8.16  5.68
Si -5.80 -8.16 -5.68
Si 10.94  3.50 -0.83
Si -6.91  2.31  8.94
Si  4.46  0.02 10.64
Si -1.69  7.03  9.00
Si 10.54 -2.32  4.12
Si  6.94 -2.32 -8.94
Si  0.80 -4.66 -10.55
Si -11.00 -3.50  0.86
Si  8.15 -8.18  0.86
Si  8.25 -3.52 -7.35
Si  8.30  5.73  5.72
Si 10.04  1.16  5.68
Si -7.02 -2.32 -8.94
Si -8.20  8.18 -0.83
Si  7.05  2.31  8.94
Si -0.94 -4.66 10.60
Si  0.97  4.64 -10.61
