500
set: 832.00  0.00  0.00
Si  0.41 -1.20  0.81
Si -0.45  1.17 -0.86
Si  1.21  1.11  0.75
Si -1.34 -1.18 -0.76
Si -2.07  1.16  0.82
Si -0.86 -0.07  2.43
Si  0.86 -0.07 -2.45
Si  2.18 -1.21 -0.80
Si  0.01  2.33  2.39
Si  3.06  1.09 -0.80
Si -0.08 -2.34 -2.46
Si -3.09 -1.21  0.81
Si -2.56 -0.06 -2.42
Si  2.58  0.11  2.40
Si  0.46  3.53 -0.78
Si -0.45 -3.57  0.78
Si  1.75  2.33 -2.37
Si -1.73  2.31 -2.43
Si  1.76 -2.28  2.46
Si -1.71 -2.43  2.42
Si -1.30  3.52  0.83
Si  1.28 -3.56 -0.83
Si -3.84  1.12 -0.83
Si  0.89  0.01  4.03
Si  3.88 -1.15  0.82
Si  2.17  3.47  0.82
Si -2.16 -3.48 -0.83
Si -0.88 -0.03 -4.11
Si  0.05  2.27 -4.02
Si -3.04  3.49 -0.81
Si  2.99 -3.53  0.87
Si  0.03 -2.35  4.11
Si -2.59  0.05  4.04
Si  2.57  0.07 -4.06
Si -3.48 -2.32 -2.39
Si -3.50  2.31  2.39
Si  3.50 -2.32 -2.40
Si  3.51  2.39  2.47
Si  1.68 -2.32 -4.04
Si  4.76  1.17  0.82
Si -4.37  0.02  2.38
Si -1.72  2.36  4.03
Si  4.36 -0.01 -2.41
Si -4.82 -1.14 -0.83
Si  1.75  2.37  4.08
Si -1.81 -2.37 -4.15
Si  3.96  3.42 -0.72
Si -3.90 -3.48  0.80
Si  0.88  4.63  2.42
Si -0.91  4.61 -2.45
Si  0.89 -4.60  2.50
Si -0.91 -4.77 -2.39
Si -3.51 -2.30  3.95
Si  2.66  4.53 -2.39
Si  3.45 -2.23  4.06
Si  5.62 -1.19 -0.83
Si  0.44 -1.16 -5.69
Si -0.42  1.20  5.68
Si  3.47  2.35 -4.04
Si -5.65  1.23  0.73
Si -3.46  2.36 -4.09
Si -1.31 -1.14  5.60
Si  2.58 -4.67 -2.44
Si -2.59  4.66  2.46
Si -0.33  5.82  0.80
Si -4.31  0.02 -4.01
Si -2.69 -4.68  2.42
Si  4.36  0.03  4.02
Si  1.23  1.19 -5.69
Si  0.39 -5.89 -0.72
Si  4.75 -3.52 -0.76
Si -4.74  3.57  0.83
Si  1.41  5.83 -0.83
Si -1.39 -5.84  0.82
Si  5.15 -2.28  2.48
Si -5.19  2.28 -2.44
Si  0.90  4.63 -4.00
Si -2.18  1.15 -5.67
Si  0.84 -4.66 -4.02
Si -0.92 -4.63  4.05
Si  5.21  2.34 -2.48
Si -2.17  5.80 -0.81
Si  2.15 -1.16  5.76
Si -5.30 -2.33  2.44
Si  2.19 -5.84  0.87
Si -0.86  4.71  4.11
Si -3.05 -1.14 -5.67
Si  6.10  0.01  2.45
Si  3.11  1.12  5.68
Si  3.12  5.74  0.78
Si -3.11 -5.78 -0.78
Si -6.14  0.04 -2.48
Si  6.51  1.13 -0.86
Si -2.67 -4.68 -4.00
Si  2.65 -4.60  4.11
Si -6.57 -1.10  0.79
Si  0.49  3.51  5.71
Si -0.44 -3.50 -5.72
Si  2.65  4.68  4.05
Si -2.54  4.69 -4.12
Si -1.20  3.42 -5.71
Si -4.26  4.66 -2.44
Si -5.74 -3.51 -0.81
Si  5.76  3.47  0.87
Si  4.32 -4.68  2.45
Si  1.26 -3.56  5.73
Si -4.48 -4.70 -2.45
Si  4.45  4.71  2.50
Si  3.88 -1.14 -5.67
Si -3.94  1.17  5.63
Si -5.19 -2.28 -4.09
Si  5.22 -2.36 -4.02
Si -5.21  2.39  4.04
Si  2.19  3.49 -5.68
Si  5.26  2.39  4.01
Si -2.28 -3.48  5.69
Si  3.85 -5.88 -0.78
Si -3.87  5.92  0.86
Si -6.03 -0.03  4.05
Si -3.03  3.46  5.65
Si  6.08  0.01 -4.04
Si -0.06 -6.92  2.47
Si  3.04 -3.46 -5.73
Si  6.48 -3.38  0.86
Si  0.09  6.99 -2.39
Si -6.50  3.43 -0.78
Si -0.49  1.17 -7.30
Si  0.40 -1.16  7.32
Si  7.35 -1.10  0.79
Si  1.34  1.16  7.27
Si -1.29 -1.14 -7.29
Si -4.73 -1.20  5.69
Si  1.86  6.88  2.42
Si  4.83  1.22 -5.67
Si  4.33 -4.66 -4.05
Si -4.32  4.63  4.11
Si -7.41  1.13 -0.86
Si  4.85  5.74 -0.83
Si  4.41  4.65 -4.02
Si  1.64 -6.97 -2.48
Si -1.74  6.97  2.44
Si -1.82 -6.98 -2.37
Si -4.43 -4.60  4.11
Si -4.87 -5.78  0.83
Si -6.91  2.21  2.39
Si -2.21  1.14  7.27
Si  7.01  2.21  2.39
Si -6.93 -2.35 -2.48
Si  2.20 -1.16 -7.33
Si  3.98  3.49  5.67
Si  6.99 -2.35 -2.48
Si -4.00 -3.52 -5.72
Si  3.05  1.10 -7.27
Si -2.98 -1.23  7.29
Si -6.03  4.63  2.45
Si  6.09 -4.64 -2.44
Si  0.06  7.00  3.95
Si -0.10 -6.95 -4.04
Si -5.64  1.17 -5.64
Si  5.61 -5.74  0.83
Si  6.15  4.63 -2.44
Si -5.60  5.79 -0.76
Si -6.16 -4.65  2.46
Si -0.56 -3.46  7.30
Si  5.66 -1.15  5.70
Si -3.37  6.96 -2.48
Si  0.41 -5.81  5.67
Si  0.48  8.10  0.81
Si -0.43  5.79 -5.72
Si  7.78  0.04 -2.48
Si -4.70  3.50 -5.69
Si  1.70 -6.91  4.01
Si  3.49  6.97 -2.46
Si  4.74 -3.44  5.71
Si -3.56 -6.98  2.39
Si -7.82  0.01  2.45
Si  0.48  3.51 -7.39
Si  7.42  3.43 -0.78
Si -1.27  3.52  7.32
Si -7.44 -3.38  0.86
Si  1.33 -3.53 -7.32
Si  3.44 -7.10  2.39
Si -1.38 -5.82 -5.68
Si -1.81 -6.93  4.08
Si  1.29  5.83  5.69
Si -0.51 -8.21 -0.80
Si  1.19 -8.14  0.82
Si  1.76  6.94 -4.15
Si -1.62  7.03 -4.09
Si -1.25  8.17 -0.83
Si  2.11 -5.76 -5.63
Si  6.91 -2.33  4.11
Si -3.92  1.15 -7.32
Si  6.96  2.35 -4.04
Si -2.20 -3.45 -7.32
Si -6.96  2.35 -4.04
Si  8.27  1.23  0.73
Si -2.14  5.81  5.68
Si  3.89 -1.10  7.36
Si  2.22  3.50  7.31
Si -8.30 -1.19 -0.83
Si -7.01 -2.33  4.11
Si  2.23  8.13 -0.76
Si -2.36 -8.20  0.75
Si -2.94  3.45 -7.31
Si -6.02  4.64 -4.05
Si  3.04 -3.43  7.33
Si  6.03 -4.68  4.11
Si -6.11 -4.61 -4.12
Si -3.08 -5.80  5.71
Si  6.54  1.16  5.64
Si -6.52 -1.10 -5.69
Si  3.39 -6.95 -4.04
Si  2.94 -8.17 -0.86
Si  3.13  5.81 -5.72
Si  5.68  3.55 -5.63
Si -3.00  8.21  0.79
Si -5.71 -3.50  5.68
Si  6.56  5.78  0.87
Si -3.44  6.97  4.11
Si  4.82  1.20  7.26
Si  6.21  4.71  4.11
Si -7.83  0.01 -4.04
Si -3.52 -7.03 -4.02
Si -6.60 -5.82 -0.81
Si  3.60  6.96  4.11
Si -4.81 -1.20 -7.35
Si  7.88 -0.03  4.05
Si -8.16  3.47  0.87
Si  8.18 -3.51 -0.81
Si  3.94  3.49 -7.23
Si  0.87  0.03 -8.95
Si  3.83 -5.87  5.69
Si -3.85  5.85 -5.71
Si -3.97 -3.50  7.33
Si -0.89 -0.02  9.00
Si  5.17 -7.03 -2.44
Si  3.98  8.11  0.81
Si -5.20  7.03  2.48
Si -5.30 -7.00 -2.43
Si -4.02 -8.14 -0.86
Si -0.03  2.29  8.85
Si  5.33  7.03  2.46
Si -0.03 -2.28 -8.92
Si  9.10 -1.14 -0.83
Si  8.61 -2.33  2.44
Si -9.16  1.17  0.82
Si -2.64  0.05 -8.89
Si -5.63  1.19  7.29
Si  0.37 -5.82 -7.23
Si  5.62 -1.22 -7.31
Si -6.52  3.44  5.69
Si  6.50 -3.46 -5.71
Si  2.62 -0.00  8.97
Si -8.71  2.34 -2.48
Si  8.73  2.28 -2.44
Si -0.40  5.80  7.33
Si -7.38  1.16  5.64
Si  1.82  2.30 -8.89
Si -7.77  4.63 -2.44
Si  7.76 -4.65  2.46
Si  4.70 -8.08  0.73
Si  7.32 -5.82 -0.81
Si -8.77 -2.28  2.48
Si -7.36  5.78  0.87
Si  1.69 -2.30  8.95
Si  7.40 -1.10 -5.69
Si -4.74  3.55  7.30
Si -7.83 -4.64 -2.44
Si -4.73  8.12 -0.83
Si -1.35 -5.81  7.31
Si  4.76 -3.50 -7.36
Si  4.83  5.75  5.73
Si -1.74 -2.38  8.98
Si  1.37  5.85 -7.32
Si  7.89  4.63  2.45
Si -4.76 -5.89 -5.71
Si -1.73  2.35 -9.05
Si  5.14 -6.92  4.04
Si -5.13  6.95 -4.02
Si -0.98 -9.20  2.40
Si  2.09 -5.79  7.33
Si  1.01  9.24 -2.42
Si -5.29 -6.95  4.03
Si  5.25  6.99 -4.04
Si -2.16  5.82 -7.37
Si  0.79 -9.32 -2.41
Si -0.80  9.33  2.38
Si -3.41  2.38  8.90
Si  3.01  5.85  7.30
Si -8.65  2.39  4.01
Si -6.49 -1.15  7.31
Si  9.55  0.02  2.38
Si -9.17 -3.52 -0.76
Si -9.56 -0.01 -2.41
Si  6.53  1.21 -7.29
Si -4.33  0.04  8.88
Si -8.70 -2.36 -4.02
Si  9.18  3.57  0.83
Si  3.46  2.34  8.96
Si  8.71  2.39  4.04
Si -3.09 -5.80 -7.39
Si -3.51 -2.30 -8.96
Si  5.65 -5.80 -5.69
Si  3.48 -2.26 -8.99
Si  5.66  3.52  7.33
Si  8.73 -2.28 -4.09
Si -7.71  4.71  4.11
Si -5.61  5.87  5.71
Si  2.71  9.23  2.43
Si  4.43  0.05 -8.89
Si  2.53 -9.30  2.45
Si -5.64 -8.15  0.82
Si  7.40  3.44  5.69
Si  1.26 -8.08 -5.67
Si -5.72 -3.48 -7.37
Si  0.52  8.17 -5.67
Si  5.75  8.10 -0.80
Si  7.81 -4.61 -4.12
Si -1.16  8.11  5.69
Si -0.46 -8.18  5.68
Si -7.42 -3.46 -5.71
Si -2.57  9.34 -2.48
Si  7.90  4.64 -4.05
Si -7.88 -4.68  4.11
Si  0.90  4.62  8.89
Si -2.71 -9.37 -2.45
Si -6.85  6.98 -2.40
Si  0.78 -4.58  8.94
Si  6.85 -7.00  2.39
Si  8.28  1.17 -5.64
Si  3.88 -5.81 -7.29
Si -8.26 -1.15  5.70
Si -8.31 -5.74  0.83
Si -1.00 -9.23 -4.06
Si -0.89 -4.64 -8.97
Si -10.04 -1.15  0.82
Si  0.79 -9.28  4.02
Si -3.86  5.83  7.35
Si -0.80  4.71 -8.95
Si  2.26  8.16  5.60
Si  8.32  5.79 -0.76
Si 10.08  1.12 -0.83
Si -0.74  9.33 -4.01
Si -2.34 -8.11 -5.69
Si  7.07  6.98 -2.40
Si -7.07 -7.00  2.39
Si  0.98  9.36  4.04
Si  2.98 -8.15  5.64
Si -6.47  3.50 -7.29
Si -9.56  0.03  4.02
Si -2.67 -4.68  8.89
Si  6.50 -3.48  7.35
Si  9.61  0.02 -4.01
Si -2.95  8.21 -5.69
Si  2.58 -4.63 -8.97
Si -2.46  9.28  4.05
Si -2.53  4.67  8.98
Si  2.52 -9.29 -4.04
Si -6.47  8.15  0.82
Si -7.39  1.21 -7.29
Si  2.67  4.67 -8.97
Si -0.27 10.42 -0.83
Si -6.60 -5.85  5.65
Si -2.68 -9.29  4.03
Si  4.21 -9.27 -2.48
Si  7.43 -1.15  7.31
Si  2.69  9.27 -4.11
Si  6.51 -8.19 -0.83
Si  0.31 -10.46  0.82
Si -4.84 -5.79  7.32
Si  6.61  5.85 -5.73
Si -4.25  9.31  2.45
Si  4.90  5.78 -7.32
Si  4.43  9.24 -2.45
Si -9.96  3.42 -0.72
Si -5.23  2.32 -8.89
Si  8.21 -3.50  5.68
Si -5.24 -2.29  8.91
Si -8.24  3.55 -5.63
Si  5.17 -2.30  8.96
Si  1.50 10.46  0.82
Si  6.89 -6.94 -4.09
Si -0.90 -0.03 -10.57
Si -1.39 -10.51 -0.80
Si  5.24  2.42 -8.93
Si 10.02 -3.48  0.80
Si  0.88 -0.12 10.60
Si -4.43 -9.38  2.43
Si -3.99 -8.11  5.68
Si -6.90  7.08  4.06
Si -7.03 -6.94 -4.09
Si  4.01  8.15 -5.69
Si  2.05 -10.50 -0.83
Si -2.08 10.54  0.73
Si  7.02  7.08  4.06
Si -9.07  5.74 -0.83
Si -6.10 -0.03 -8.88
Si  9.05 -5.78  0.83
Si -9.09  1.22 -5.67
Si  0.08  2.23 -10.57
Si  9.44 -4.70 -2.45
Si  6.11 -0.01  8.94
Si  2.67  0.05 -10.50
Si  5.61 -5.75  7.30
Si -9.46  4.71  2.50
Si -0.03 -2.32 10.62
Si  9.19 -1.20  5.69
Si -2.70 -0.04 10.55
Si  0.58  8.07  7.29
Si  1.72 -2.26 -10.53
Si -5.59  5.81 -7.36
Si  1.70  2.32 10.53
Si 10.83 -1.21  0.81
Si -4.25  4.63 -8.95
Si 10.42  2.31  2.39
Si -10.42 -2.32 -2.40
Si  7.32 -5.85  5.65
Si -10.86  1.09 -0.80
Si -9.60 -4.68  2.45
Si  1.25 -8.11  7.26
Si  3.12 10.47 -0.86
Si 10.44 -2.32 -2.39
Si  4.71 -8.13 -5.64
Si  4.30 -4.64  8.96
Si -10.41  2.39  2.47
Si -4.37 -4.60 -8.95
Si -0.52 -8.21 -7.27
Si -7.31  5.85 -5.73
Si -1.69  2.33 10.60
Si  7.45  3.50 -7.29
Si -4.69  8.15  5.70
Si -3.16 -10.51  0.81
Si  9.66  4.66 -2.44
Si -1.77 -2.32 -10.61
Si  4.35  4.72  8.94
Si -1.24  8.11 -7.35
Si -7.42 -3.48  7.35
Si -4.26  9.32 -4.04
Si  4.32 -9.33  4.05
Si  7.45  8.15  0.82
Si -7.41 -8.19 -0.83
Si  4.46  9.32  4.03
Si  8.28  1.19  7.29
Si  3.78 -10.41  0.79
Si -8.30 -1.22 -7.31
Si -4.45 -9.34 -4.11
Si -2.23 -8.15  7.27
Si -3.85 10.44 -0.86
Si  2.27  8.16 -7.29
Si  2.96 -8.09 -7.29
Si  5.98 -9.29  2.38
Si  3.43 -2.31 10.52
Si -5.99  9.30 -2.41
Si  9.49 -4.60  4.11
Si -9.51  4.65 -4.02
Si -2.92  8.16  7.31
Si -9.18 -3.44  5.71
Si -0.10 -6.97  8.96
Si  3.55  2.37 -10.53
Si  8.62 -7.00 -2.43
Si 10.41 -2.30  3.95
Si -8.59  7.03  2.46
Si -3.52  2.32 -10.56
Si  0.06  7.01 -8.96
Si -3.52 -2.35 10.56
Si  9.22  3.50 -5.69
Si  1.67 -6.88 -8.93
Si -6.51 -5.86 -7.31
Si -4.38  0.00 -10.54
Si -9.59 -4.66 -4.05
Si  4.36 -0.02 10.55
Si  9.60  4.63  4.11
Si -10.45  2.35 -4.04
Si -10.47 -2.23  4.06
Si -6.13 -9.37 -2.42
Si -1.75 -7.00 -8.89
Si 10.88  3.49 -0.81
Si -1.68  7.02  8.91
Si  8.72  7.03  2.48
Si -5.75 -8.16 -5.67
Si 10.46  2.36 -4.09
Si  1.83  6.93  8.98
Si  6.61  5.88  7.33
Si  4.78 10.42  0.75
Si -8.76 -7.03 -2.44
Si  5.72  8.14  5.76
Si  6.15  9.42  2.40
Si  9.98  1.17  5.63
Si -10.93 -3.53  0.87
Si -8.17  8.10 -0.80
Si  6.92 -2.27 -8.96
Si  0.93  4.58 -10.57
Si  8.19 -3.48 -7.37
Si -0.78  4.59 10.58
Si  0.80 -4.54 -10.60
Si -6.92  2.30  8.97
Si -11.33  0.11  2.40
Si -10.04 -1.14 -5.67
Si -8.26  3.52  7.33
