500
set: 444.00  0.00  0.00
Si -0.07 -0.02  0.04
Si  1.74  1.06  0.68
Si  0.11 -0.04 -2.17
Si  0.04 -2.09  0.82
Si -1.88  1.12  0.68
Si  0.01  2.06 -2.88
Si -1.76 -3.07 -0.01
Si  1.80 -3.08 -0.10
Si -1.75  1.00  2.95
Si  3.60 -0.02  0.03
Si -1.72 -0.96 -3.04
Si  1.91  1.14  2.89
Si -3.66 -0.02  0.03
Si  1.89 -1.09 -2.98
Si -1.83  3.21 -0.10
Si  1.87  3.22 -0.01
Si  0.01 -2.13  3.05
Si -3.57 -0.11 -2.18
Si -1.82 -3.04 -2.22
Si  1.81 -0.94  3.71
Si -1.87 -1.13  3.63
Si  0.07  1.99  3.75
Si  3.61 -2.10  0.79
Si -0.02  4.19  0.79
Si -1.87  3.07 -2.30
Si -3.65 -2.10  0.79
Si  3.70 -0.11 -2.18
Si  1.81  3.25 -2.22
Si  1.76 -3.23 -2.30
Si  3.52  2.02 -2.94
Si -0.11  4.12  2.99
Si  3.52 -2.17  2.99
Si -3.74  2.02 -2.94
Si -0.11 -4.27 -2.94
Si -3.74 -2.17  2.99
Si  1.75 -5.17  0.68
Si  0.04  2.11 -5.12
Si  5.38  1.12  0.68
Si -3.52  2.05  3.76
Si -3.60  4.20  0.82
Si -1.89 -5.23  0.68
Si  1.75 -0.98 -5.25
Si  3.67  4.20  0.82
Si -5.52  1.06  0.68
Si  0.11 -4.24  3.76
Si -1.89 -1.03 -5.25
Si  3.75  2.05  3.76
Si -1.72 -5.16  2.89
Si -1.83 -0.98  5.83
Si -5.36  1.14  2.89
Si -1.75  5.20 -2.98
Si -5.38 -1.09 -2.98
Si -0.03 -2.12 -5.90
Si -3.62 -4.23 -2.88
Si -5.46 -3.08 -0.10
Si -0.03  6.27  0.03
Si  1.87 -0.97  5.92
Si  3.64 -4.23 -2.88
Si -5.40  3.22 -0.01
Si  5.50 -3.07 -0.01
Si -3.62  4.16  3.05
Si -1.76  1.12 -5.95
Si -0.03 -6.31  0.03
Si  5.44  3.21 -0.10
Si  3.64  4.16  3.05
Si -0.03  2.08  5.97
Si  5.52  1.00  2.95
Si  1.89 -5.29  2.95
Si  1.80  1.11 -6.03
Si  5.54 -0.96 -3.04
Si  1.91  5.33 -3.04
Si  1.76  5.16  3.63
Si  0.07  6.18 -2.18
Si  5.40 -1.13  3.63
Si  5.44 -3.04 -2.22
Si  5.40  3.07 -2.30
Si  3.61  2.09 -5.15
Si -0.02 -4.20 -5.15
Si -3.65  2.09 -5.15
Si -5.46 -0.94  3.71
Si -0.02 -0.00  6.72
Si -5.46  3.25 -2.22
Si -3.57 -4.30  3.75
Si -1.82  5.35  3.71
Si  0.07 -6.40 -2.18
Si -5.50 -3.23 -2.30
Si  3.70 -4.30  3.75
Si  7.20 -0.02  0.04
Si  3.56 -2.11 -5.89
Si  3.56  6.28  0.04
Si -0.07  4.18 -5.89
Si  3.56 -6.31  0.04
Si  3.56  2.08  5.97
Si -3.70 -2.11 -5.89
Si -3.70  6.28  0.04
Si -0.07 -4.21  5.97
Si -3.70 -6.31  0.04
Si -3.70  2.08  5.97
Si -7.34 -0.02  0.04
Si -7.15 -0.04 -2.17
Si -3.52  6.25 -2.17
Si  1.74 -3.13  6.61
Si -3.60 -4.19 -5.12
Si  5.38 -5.23  0.68
Si -1.88 -3.08  6.61
Si  1.75  3.21  6.61
Si  3.67 -4.19 -5.12
Si -3.52 -6.34 -2.17
Si -7.23 -2.09  0.82
Si -1.89  3.16  6.61
Si  5.38 -1.03 -5.25
Si -5.51 -5.17  0.68
Si  3.75  6.25 -2.17
Si -1.89  7.36  0.68
Si  1.74  5.26 -5.25
Si  7.30 -2.09  0.82
Si  1.75  7.41  0.68
Si -3.60  0.01  6.75
Si  3.75 -6.34 -2.17
Si -5.51 -0.98 -5.25
Si  3.67  0.01  6.75
Si  7.38 -0.04 -2.17
Si -1.88  5.31 -5.25
Si  5.44 -0.98  5.83
Si -5.40 -0.97  5.92
Si -7.26  2.06 -2.88
Si  3.60  4.18 -5.90
Si  1.80  5.31  5.83
Si  1.91 -7.25 -3.04
Si  7.28  2.06 -2.88
Si  1.89  7.30  2.95
Si  1.87 -5.17 -5.95
Si -5.38 -5.29  2.95
Si -3.66  4.18 -5.90
Si  5.54 -5.16  2.89
Si  3.60 -4.21  5.97
Si  5.52  5.20 -2.98
Si -5.36  5.33 -3.04
Si -1.76  5.32  5.92
Si -1.75 -7.39 -2.98
Si -7.26 -2.13  3.05
Si -1.72  7.43  2.89
Si -1.83 -5.18 -6.03
Si -3.66 -4.21  5.97
Si  7.28 -2.13  3.05
Si  5.50  1.12 -5.95
Si -5.46  1.11 -6.03
Si -1.82 -7.23  3.71
Si -7.20  1.99  3.75
Si -5.50  5.16  3.63
Si  7.24  4.19  0.79
Si  0.07 -2.21 -8.11
Si -0.02 -8.39  0.79
Si -1.82  1.16 -8.16
Si -7.29  4.19  0.79
Si  1.76 -7.42  3.63
Si  7.33  1.99  3.75
Si  1.76  0.97 -8.23
Si  5.44  5.35  3.71
Si  7.16  4.12  2.99
Si -0.11  8.31 -2.94
Si  7.16 -4.27 -2.94
Si -0.11 -0.08 -8.88
Si -0.11 -0.08  8.92
Si -7.37  4.12  2.99
Si -0.11 -8.47  2.99
Si -7.37 -4.27 -2.94
Si  5.38 -3.08  6.61
Si -3.52 -2.14 -8.10
Si  5.38  3.16  6.61
Si  9.01  1.06  0.68
Si -7.23  2.11 -5.12
Si  0.11  4.15 -8.10
Si -7.15 -4.24  3.76
Si  5.38  7.36  0.68
Si  0.11  8.35  3.76
Si -3.60 -8.38  0.82
Si  7.30  2.11 -5.12
Si -1.88 -7.27 -5.25
Si -5.52 -3.13  6.61
Si  3.75 -2.14 -8.10
Si  1.74 -7.33 -5.25
Si  3.67 -8.38  0.82
Si -5.51  3.21  6.61
Si  5.38  5.31 -5.25
Si  0.04 -6.28  6.75
Si  0.04  6.30  6.75
Si -9.15  1.12  0.68
Si -5.52  5.26 -5.25
Si -5.51  7.41  0.68
Si  7.38 -4.24  3.76
Si  1.80 -7.28  5.83
Si -5.36 -7.25 -3.04
Si -3.62 -0.04 -8.81
Si  1.91 -3.06  8.83
Si -5.38  7.30  2.95
Si -1.76 -7.27  5.92
Si  3.64 -0.04 -8.81
Si -8.99 -0.96 -3.04
Si -9.01  1.00  2.95
Si -9.03 -3.07 -0.01
Si  1.87 -9.37 -0.01
Si -3.62  8.35 -2.88
Si -1.83 -9.37 -0.10
Si -5.40 -5.17 -5.95
Si -1.72  3.23  8.83
Si  3.64  8.35 -2.88
Si  7.24 -2.12 -5.90
Si  9.07 -3.08 -0.10
Si  7.24  6.27  0.03
Si -5.46  5.31  5.83
Si  1.89  3.10  8.88
Si -1.75 -3.19  8.88
Si  7.24 -6.31  0.03
Si  7.24  2.08  5.97
Si -7.29 -2.12 -5.90
Si -7.29  6.27  0.03
Si  1.89  3.10 -8.91
Si -1.75 -3.19 -8.91
Si  5.44 -5.18 -6.03
Si -7.29 -6.31  0.03
Si -9.10  3.21 -0.10
Si -7.29  2.08  5.97
Si -3.62 -8.43  3.05
Si  1.91 -3.06 -8.97
Si  5.50  5.32  5.92
Si  3.64 -8.43  3.05
Si  1.80  9.50 -0.10
Si -1.76  9.51 -0.01
Si  9.13  3.22 -0.01
Si  9.15 -1.09 -2.98
Si -3.62 -0.04  8.98
Si  9.18  1.14  2.89
Si  1.87  7.42 -5.95
Si  5.52 -7.39 -2.98
Si -1.72  3.23 -8.97
Si  3.64 -0.04  8.98
Si  5.54  7.43  2.89
Si -1.83  7.41 -6.03
Si -7.20  6.18 -2.18
Si -3.57  4.09 -8.11
Si  1.81 -9.33 -2.22
Si -3.57  8.28  3.75
Si  1.76  0.97  9.56
Si  5.44 -7.23  3.71
Si  1.76  9.36 -2.30
Si  1.81 -5.14 -8.16
Si  3.70  4.09 -8.11
Si  3.70  8.28  3.75
Si  7.25 -4.20 -5.15
Si  7.33  6.18 -2.18
Si -9.09 -3.04 -2.22
Si -0.02  8.39 -5.15
Si  9.08 -0.94  3.71
Si -7.29 -4.20 -5.15
Si  9.03 -3.23 -2.30
Si  5.44  1.16 -8.16
Si -7.20 -6.40 -2.18
Si -1.82  1.16  9.64
Si  7.24 -0.00  6.72
Si  3.61  6.29  6.72
Si  3.61 -6.30  6.72
Si  9.08  3.25 -2.22
Si -9.14 -1.13  3.63
Si -3.65  6.29  6.72
Si -3.65 -6.30  6.72
Si -9.14  3.07 -2.30
Si -7.29 -0.00  6.72
Si -5.50 -7.42  3.63
Si  0.07 -2.21  9.68
Si -5.50  0.97 -8.23
Si -1.87 -9.52 -2.30
Si -1.82  9.55 -2.22
Si  7.33 -6.40 -2.18
Si -1.87 -5.32 -8.23
Si  7.20  4.18 -5.89
Si  7.20 -4.21  5.97
Si -0.07 -8.41 -5.89
Si -0.07  8.37  5.97
Si -7.34  4.18 -5.89
Si -7.34 -4.21  5.97
Si  9.02 -5.17  0.68
Si  5.38 -7.27 -5.25
Si -3.60  8.40 -5.12
Si  9.02 -0.98 -5.25
Si  3.67  8.40 -5.12
Si  0.04 10.50  0.82
Si -3.52 -2.14  9.70
Si  0.11  4.15  9.70
Si -9.15 -5.23  0.68
Si -5.52 -7.33 -5.25
Si -9.15 -1.03 -5.25
Si  3.75 -2.14  9.70
Si -8.99 -5.16  2.89
Si -5.36 -3.06  8.83
Si -5.46 -7.28  5.83
Si  0.01  6.26 -8.81
Si -5.40 -9.37 -0.01
Si -9.01  5.20 -2.98
Si  5.44 -9.37 -0.10
Si -5.38  3.10  8.88
Si -9.10 -0.98  5.83
Si  0.01 -6.33 -8.81
Si -5.38  3.10 -8.91
Si  5.50 -7.27  5.92
Si 10.87 -0.02  0.03
Si -9.03  1.12 -5.95
Si  3.60 -8.41 -5.90
Si  0.01 10.45  3.05
Si -5.36 -3.06 -8.97
Si  3.60  8.37  5.97
Si -3.66 -8.41 -5.90
Si  0.01 -10.52 -2.88
Si  5.54  3.23  8.83
Si -3.66  8.37  5.97
Si  9.13 -0.97  5.92
Si -10.93 -0.02  0.03
Si -5.40  7.42 -5.95
Si  5.52 -3.19  8.88
Si  0.01  6.26  8.98
Si  9.07  1.11 -6.03
Si  5.52 -3.19 -8.91
Si -5.46  9.50 -0.10
Si  9.15 -5.29  2.95
Si  5.50  9.51 -0.01
Si  0.01 -6.33  8.98
Si  5.44  7.41 -6.03
Si  9.03  5.16  3.63
Si  5.54  3.23 -8.97
Si -5.46 -9.33 -2.22
Si  9.18  5.33 -3.04
Si -10.83 -0.11 -2.18
Si -7.20 -2.21 -8.11
Si  1.81 -5.14  9.64
Si -5.46 -5.14 -8.16
Si -5.50  0.97  9.56
Si -0.02 -0.01 -11.08
Si -5.50  9.36 -2.30
Si -3.57  4.09  9.68
Si -1.87 -5.32  9.56
Si 10.88 -2.10  0.79
Si  3.61 10.48  0.79
Si  7.25 -8.39  0.79
Si -3.65 10.48  0.79
Si  5.44  1.16  9.64
Si -1.87  7.26 -8.23
Si  3.70  4.09  9.68
Si -7.29 -8.39  0.79
Si -10.92 -2.10  0.79
Si  7.33 -2.21 -8.11
Si 10.96 -0.11 -2.18
Si -9.09  5.35  3.71
Si  5.40 -9.52 -2.30
Si  5.40 -5.32 -8.23
Si  1.81  7.45 -8.16
Si  5.44  9.55 -2.22
Si  0.07 -10.60  3.75
Si  7.16  8.31 -2.94
Si 10.79  2.02 -2.94
Si  3.52 10.41  2.99
Si  3.52  6.22 -8.88
Si  7.16 -0.08 -8.88
Si 10.79 -2.17  2.99
Si  3.52  6.22  8.92
Si  7.16 -0.08  8.92
Si -3.74 10.41  2.99
Si -3.74  6.22 -8.88
Si  3.52 -6.37 -8.88
Si  7.16 -8.47  2.99
Si -7.37  8.31 -2.94
Si -3.74  6.22  8.92
Si  3.52 -6.37  8.92
Si  3.52 -10.56 -2.94
Si -7.37 -0.08 -8.88
Si -3.74 -6.37 -8.88
Si -11.01  2.02 -2.94
Si -7.37 -0.08  8.92
Si -7.15  4.15 -8.10
Si -3.74 -6.37  8.92
Si -3.74 -10.56 -2.94
Si  1.75 -9.37  6.61
Si -10.79  2.05  3.76
Si  9.01 -3.13  6.61
Si -11.01 -2.17  2.99
Si -7.37 -8.47  2.99
Si -7.15  8.35  3.76
Si -3.60  0.01 -11.05
Si  9.02  3.21  6.61
Si -1.88 -11.47  0.68
Si  3.67  0.01 -11.05
Si  0.04 -10.48 -5.12
Si -1.89 -9.42  6.61
Si  1.74  9.46  6.61
Si  1.74 -11.52  0.68
Si -10.86  4.20  0.82
Si  9.01  5.26 -5.25
Si  9.02  7.41  0.68
Si  0.11 -8.44 -8.10
Si -9.15 -3.08  6.61
Si -7.23 -6.28  6.75
Si  7.38  4.15 -8.10
Si -3.52 -10.53  3.76
Si -7.23  6.30  6.75
Si -9.15  3.16  6.61
Si -1.88  9.51  6.61
Si  1.74 -3.13 -11.19
Si 10.94  4.20  0.82
Si -1.88 -3.08 -11.18
Si  7.38  8.35  3.76
Si  7.30 -6.28  6.75
Si -9.15  7.36  0.68
Si  1.75  3.21 -11.18
Si  7.30  6.30  6.75
Si -1.89  3.16 -11.19
Si  3.75 -10.53  3.76
Si -9.15  5.31 -5.25
Si 11.01  2.05  3.76
Si  1.80  1.11 11.77
Si  1.91 -11.45  2.89
Si -0.03  2.08 -11.83
Si -0.03 10.47 -5.90
Si -8.99  7.43  2.89
Si  9.07  5.31  5.83
Si  1.89 11.49 -2.98
Si -9.01 -7.39 -2.98
Si -10.89 -4.23 -2.88
Si -1.76  1.12 11.85
Si -9.03  5.32  5.92
Si -10.89  4.16  3.05
Si 10.91 -4.23 -2.88
Si  9.13 -5.17 -5.95
Si  1.87 -0.97 -11.88
Si 10.91  4.16  3.05
Si  9.15  7.30  2.95
Si -1.75 -11.58  2.95
Si -9.10 -5.18 -6.03
Si -0.03 -10.51  5.97
Si  9.18 -7.25 -3.04
Si -0.03 -2.12 11.90
Si -1.72 11.62 -3.04
Si -1.83 -0.98 -11.96
Si -1.87  7.26  9.56
Si -1.87 11.46  3.63
Si -9.09 -7.23  3.71
Si  5.40 -5.32  9.56
Si -5.46 -5.14  9.64
Si 10.88  2.09 -5.15
Si  7.24  8.39 -5.15
Si  3.61 -10.49 -5.15
Si  5.40  7.26 -8.23
Si  9.03 -7.42  3.63
Si -7.29  8.39 -5.15
Si -3.65 -10.49 -5.15
Si -10.83 -4.30  3.75
Si -10.92  2.09 -5.15
Si  9.03  0.97 -8.23
Si -9.09  1.16 -8.16
Si -7.20 -2.21  9.68
Si -3.57 -8.50 -8.11
Si  1.81  7.45  9.64
Si  3.70 -8.50 -8.11
Si -5.46  7.45 -8.16
Si  7.33 -2.21  9.68
Si  1.81 11.64  3.71
Si 10.96 -4.30  3.75
Si 10.83 -2.11 -5.89
Si 10.83  6.28  0.04
Si  3.56  2.08 -11.83
Si 10.83 -6.31  0.04
Si  3.56 10.47 -5.89
Si  7.20 -8.41 -5.89
Si 10.83  2.08  5.97
Si  7.20  8.37  5.97
Si -0.07 -4.21 -11.83
Si -3.70  2.08 -11.83
Si -0.07 12.57  0.04
Si -3.70 10.47 -5.89
Si  3.56 -10.50  5.97
Si -0.07 -12.60  0.04
Si  3.56 -2.11 11.90
Si -0.07  4.18 11.90
Si -7.34 -8.41 -5.89
Si -10.97 -2.11 -5.89
Si -7.34  8.37  5.97
Si -3.70 -10.50  5.97
Si -10.97  6.28  0.04
Si -3.70 -2.11 11.90
Si -10.79  6.25 -2.17
Si -10.97 -6.31  0.04
Si -10.97  2.08  5.97
Si  5.38 -11.47  0.68
Si -10.79 -6.34 -2.17
Si  5.38 -9.42  6.61
Si  1.75 -0.98 12.55
Si  0.04 -6.28 -11.05
Si -10.86 -4.19 -5.12
Si 12.65  1.12  0.68
Si  0.04  6.30 -11.05
Si -5.51 -9.37  6.61
Si  0.11 12.54 -2.17
