500
set: 735.00  0.00  0.00
Si  0.46 -1.14  0.83
Si -0.39  1.22 -0.82
Si -1.38 -1.18 -0.83
Si  1.40  1.30  0.87
Si -2.21  1.15  0.85
Si  0.85  0.01 -2.52
Si  2.25 -1.17 -0.86
Si -0.90 -0.01  2.53
Si  0.00 -2.40 -2.52
Si  3.17  1.21 -0.87
Si  0.03  2.44  2.53
Si -3.19 -1.29  0.82
Si  2.66 -0.02  2.46
Si -0.47 -3.51  0.87
Si -2.70 -0.03 -2.48
Si  0.49  3.63 -0.83
Si -1.33  3.52  0.82
Si -1.81  2.34 -2.49
Si  1.77 -2.42  2.51
Si -1.83 -2.37  2.53
Si  1.31 -3.60 -0.87
Si  1.87  2.42 -2.52
Si -0.90  0.03 -4.13
Si  3.95 -1.29  0.82
Si  0.94  0.01  4.14
Si -3.97  1.21 -0.87
Si -2.26 -3.60 -0.82
Si  2.32  3.67  0.83
Si  0.03  2.39 -4.13
Si -0.08 -2.40  4.15
Si -3.03  3.64 -0.86
Si  3.07 -3.66  0.85
Si -3.51  2.38  2.51
Si  3.47 -2.47 -2.49
Si  2.70 -0.02 -4.16
Si -2.75 -0.07  4.17
Si  3.63  2.38  2.51
Si -3.68 -2.47 -2.49
Si  4.45 -0.03 -2.48
Si -4.89 -1.17 -0.86
Si -4.48 -0.02  2.46
Si  1.78  2.41  4.15
Si -1.76  2.38  4.18
Si -1.83 -2.42 -4.13
Si  4.93  1.15  0.85
Si  1.73 -2.43 -4.20
Si -0.83  4.79 -2.48
Si  0.80 -4.83  2.46
Si  0.96  4.80  2.53
Si -1.02 -4.80 -2.52
Si -4.08 -3.66  0.85
Si  4.11  3.64 -0.86
Si  0.46 -1.11 -5.79
Si  5.77 -1.18 -0.83
Si -5.75  1.30  0.87
Si -0.44  1.22  5.83
Si  3.52 -2.43  4.18
Si -2.62  4.79  2.46
Si -3.55  2.38 -4.20
Si  3.59  2.38 -4.20
Si  2.58 -4.83 -2.48
Si -0.35  5.96  0.85
Si -3.63 -2.43  4.18
Si  0.39 -5.98 -0.86
Si  4.40 -0.07  4.17
Si  2.71  4.82 -2.52
Si -4.44 -0.02 -4.16
Si -1.32 -1.19  5.84
Si -2.77 -4.82  2.53
Si -4.82  3.67  0.83
Si  4.89 -3.60 -0.82
Si  1.39  1.27 -5.83
Si -1.41 -5.95  0.83
Si  1.47  6.03 -0.82
Si  2.24 -1.19  5.79
Si -5.28  2.42 -2.52
Si  5.33  2.34 -2.49
Si  5.31 -2.37  2.53
Si -2.26  1.11 -5.84
Si -0.88  4.74  4.17
Si -0.93 -4.80  4.14
Si -5.37 -2.42  2.51
Si  0.84 -4.83 -4.16
Si  0.96  4.84 -4.13
Si -2.11  6.02 -0.87
Si  2.09 -6.10  0.82
Si -3.15 -1.25 -5.82
Si  3.18  1.24  5.80
Si  6.24 -0.01  2.53
Si -6.30  0.01 -2.52
Si -6.69 -1.14  0.83
Si -0.48 -3.54 -5.83
Si -2.58  4.79 -4.16
Si  5.82  3.52  0.82
Si -3.24 -5.99 -0.83
Si  0.54  3.62  5.84
Si -2.76 -4.78 -4.13
Si  2.54 -4.88  4.17
Si  6.75  1.22 -0.82
Si -5.84 -3.60 -0.87
Si -1.28  3.56 -5.82
Si  2.80  4.82  4.14
Si  1.32 -3.57  5.80
Si  3.26  6.11  0.87
Si  4.38 -4.82  2.53
Si -4.43  4.82 -2.52
Si  4.52  4.79  2.46
Si -4.56 -4.83 -2.48
Si -3.96  1.24  5.80
Si  5.31 -2.42 -4.13
Si  4.00 -1.25 -5.82
Si -5.36  2.41  4.15
Si  3.90 -5.99 -0.83
Si  5.38  2.38  4.18
Si -2.31 -3.59  5.83
Si  2.33  3.70 -5.79
Si -5.42 -2.43 -4.20
Si -3.88  6.11  0.87
Si -6.21  0.01  4.14
Si -3.04  3.62  5.79
Si  6.24  0.03 -4.13
Si  3.02 -3.70 -5.84
Si  0.05  7.15 -2.49
Si  6.67 -3.51  0.87
Si -0.45  1.23 -7.49
Si  0.46 -1.11  7.53
Si -6.66  3.63 -0.83
Si -0.09 -7.24  2.51
Si -7.54  1.22 -0.82
Si -4.90 -1.19  5.79
Si  4.38 -4.78 -4.13
Si -1.32 -1.19 -7.49
Si  4.88  1.11 -5.84
Si -4.34  4.82  4.14
Si  1.39  1.26  7.49
Si  7.60 -1.14  0.83
Si -1.65  7.20  2.51
Si  4.56  4.79 -4.16
Si -1.86 -7.21 -2.52
Si  1.60 -7.28 -2.49
Si -2.26  1.11  7.48
Si  5.03  6.02 -0.87
Si -4.61 -4.88  4.17
Si  1.90  7.25  2.53
Si -7.11  2.44  2.53
Si -7.14 -2.40 -2.52
Si  2.24 -1.19 -7.53
Si  7.15 -2.40 -2.52
Si -5.05 -6.10  0.82
Si  4.10  3.62  5.79
Si  7.18  2.44  2.53
Si -4.12 -3.70 -5.84
Si  6.13 -4.80 -2.52
Si -6.18  4.80  2.53
Si -3.14 -1.25  7.51
Si  3.18  1.24 -7.52
Si -5.76  1.27 -5.83
Si -0.47 -3.54  7.49
Si  6.31  4.79 -2.48
Si  5.74 -5.95  0.83
Si  0.10  7.19  4.18
Si -5.67  6.03 -0.82
Si  5.82 -1.19  5.84
Si -0.40  5.92 -5.84
Si  0.54  3.62 -7.49
Si -6.35 -4.83  2.46
Si  0.38 -6.00  5.79
Si  3.45 -7.18  2.53
Si -0.14 -7.24 -4.20
Si  7.99  0.01 -2.52
Si -3.41  7.22 -2.52
Si  4.84 -3.59  5.83
Si  0.54  8.33  0.82
Si -4.82  3.70 -5.79
Si -1.40 -5.92 -5.79
Si -1.28  3.56  7.51
Si -7.61 -3.51  0.87
Si  1.32 -3.57 -7.52
Si -8.05 -0.01  2.53
Si -3.69 -7.18  2.53
Si -0.56 -8.41 -0.87
Si  7.63  3.63 -0.83
Si -1.69  7.19 -4.20
Si  1.42  6.04  5.83
Si  3.73  7.22 -2.52
Si  1.89  7.20 -4.13
Si  1.65 -7.24  4.18
Si  7.06 -2.40  4.15
Si -1.95 -7.21  4.15
Si -7.12  2.39 -4.13
Si -1.17  8.45 -0.86
Si -3.96  1.24 -7.52
Si  1.21 -8.47  0.85
Si  4.00 -1.25  7.51
Si  7.17  2.39 -4.13
Si -2.31 -3.59 -7.49
Si -8.52 -1.18 -0.83
Si -2.10  6.05  5.80
Si  2.14 -6.06 -5.82
Si -7.23 -2.40  4.15
Si  8.54  1.30  0.87
Si -2.33 -8.32  0.87
Si  2.33  3.70  7.53
Si  2.35  8.44 -0.83
Si -6.18  4.84 -4.13
Si  3.02 -3.70  7.48
Si  6.22 -4.80  4.14
Si -3.04  3.62 -7.53
Si  6.26  4.74  4.17
Si -6.68 -1.11 -5.79
Si -3.19 -6.00  5.84
Si -5.82 -3.57  5.80
Si -6.31 -4.83 -4.16
Si  6.70  1.22  5.83
Si  3.02 -8.40 -0.82
Si  5.86  3.56 -5.82
Si  4.89  1.11  7.48
Si  3.44 -7.23 -4.13
Si -2.96  8.48  0.83
Si  3.25  6.08 -5.83
Si -3.50  7.22  4.15
Si -8.04  0.03 -4.13
Si -6.75 -5.98 -0.86
Si -4.91 -1.19 -7.53
Si  8.08  0.01  4.14
Si  6.79  5.96  0.85
Si  3.64  7.22  4.15
Si -3.70 -7.23 -4.13
Si -8.47  3.52  0.82
Si  8.45 -3.60 -0.87
Si  0.93  0.01 -9.18
Si -0.90  0.03  9.19
Si  3.96 -6.00  5.84
Si -3.89  6.08 -5.83
Si  5.28 -7.21 -2.52
Si -5.25  7.25  2.53
Si  4.10  3.62 -7.53
Si -4.12 -3.70  7.48
Si  5.50  7.20  2.51
Si -4.12 -8.40 -0.82
Si -9.36  1.15  0.85
Si -5.54 -7.28 -2.49
Si -0.09 -2.40 -9.18
Si  4.18  8.48  0.83
Si  0.03  2.39  9.19
Si  9.39 -1.17 -0.86
Si -6.60  3.62  5.84
Si -5.75  1.26  7.49
Si  6.67 -3.54 -5.83
Si -0.39  5.92  7.48
Si -2.75 -0.07 -9.15
Si  5.82 -1.19 -7.49
Si  2.70 -0.02  9.17
Si  8.91 -2.42  2.51
Si -8.96  2.34 -2.49
Si  1.73 -2.43  9.12
Si  4.84 -3.59 -7.49
Si -7.49  5.96  0.85
Si -1.77  2.38 -9.14
Si  7.94 -4.83  2.46
Si -8.97 -2.37  2.53
Si  7.61 -1.11 -5.79
Si -7.98  4.79 -2.48
Si  0.38 -6.00 -7.53
Si -7.59  1.22  5.83
Si  7.53 -5.98 -0.86
Si  4.81 -8.32  0.87
Si  1.78  2.41 -9.18
Si  9.01  2.42 -2.52
Si -4.82  3.70  7.53
Si -1.40 -5.92  7.53
Si -1.83 -2.42  9.19
Si  1.42  6.04 -7.49
Si -4.79  8.44 -0.83
Si  8.10  4.80  2.53
Si -5.01 -6.06 -5.82
Si  5.05  6.05  5.80
Si -8.16 -4.80 -2.52
Si  5.20 -7.21  4.15
Si -5.25  7.20 -4.13
Si -2.10  6.05 -7.52
Si  2.14 -6.06  7.51
Si -0.76  9.60  2.46
Si  5.45  7.19 -4.20
Si  1.03  9.60 -2.48
Si  0.72 -9.65 -2.48
Si -5.49 -7.24  4.18
Si -1.07 -9.64  2.46
Si -3.55  2.38  9.12
Si  5.74 -5.92 -5.79
Si  3.59  2.38  9.12
Si  3.51 -2.43 -9.14
Si -9.40 -3.60 -0.82
Si  9.80 -0.02  2.46
Si -3.19 -6.00 -7.49
Si  8.87 -2.43 -4.20
Si -8.91  2.38  4.18
Si -6.68 -1.11  7.53
Si  6.70  1.23 -7.49
Si  8.92  2.41  4.15
Si -3.63 -2.43 -9.14
Si -9.84 -0.03 -2.48
Si  4.40 -0.07 -9.15
Si -5.72  6.04  5.83
Si -5.82 -3.57 -7.52
Si  5.86  3.56  7.51
Si -8.98 -2.42 -4.13
Si  3.25  6.08  7.49
Si  9.46  3.67  0.83
Si -4.44 -0.02  9.17
Si  0.58  8.37 -5.82
Si -0.54 -8.38  5.80
Si  7.98 -4.83 -4.16
Si -8.03  4.74  4.17
Si -7.62 -3.54 -5.83
Si -8.07 -4.80  4.14
Si  2.51 -9.63  2.53
Si -2.57  9.63 -2.52
Si -1.18  8.43  5.79
Si  7.68  3.62  5.84
Si  8.11  4.84 -4.13
Si  2.82  9.61  2.53
Si -0.88  4.74 -9.15
Si -2.88 -9.61 -2.52
Si -8.47 -1.19  5.84
Si -7.09  7.15 -2.49
Si  3.96 -6.00 -7.49
Si -5.94 -8.47  0.85
Si  1.16 -8.51 -5.84
Si  5.98  8.45 -0.86
Si  0.84 -4.83  9.17
Si -3.89  6.08  7.49
Si -0.93 -4.80 -9.18
Si  7.05 -7.24  2.51
Si  8.53  1.27 -5.83
Si 10.31  1.21 -0.87
Si  0.96  4.84  9.19
Si  7.19  7.15 -2.49
Si -10.33 -1.29  0.82
Si -8.55 -5.95  0.83
Si -2.34 -8.36 -5.83
Si  0.98  9.55  4.17
Si -0.72  9.60 -4.16
Si  2.40  8.43  5.84
Si -7.24 -7.24  2.51
Si  8.61  6.03 -0.82
Si -1.03 -9.64 -4.16
Si  0.67 -9.69  4.17
Si -6.61  3.62 -7.49
Si  6.67 -3.54  7.49
Si  2.97 -8.40  5.83
Si -2.58  4.79  9.17
Si -6.61  8.33  0.82
Si  2.53 -4.88 -9.15
Si  9.84 -0.02 -4.16
Si  6.75  5.92 -5.84
Si -2.95  8.51 -5.79
Si  6.59 -8.41 -0.87
Si -2.76 -4.78  9.19
Si -9.89 -0.07  4.17
Si -7.59  1.23 -7.49
Si  2.52 -9.59 -4.13
Si  2.80  4.82 -9.18
Si -6.77 -6.00  5.79
Si  7.61 -1.11  7.53
Si -2.48  9.63  4.14
Si  4.26 -9.61 -2.52
Si -0.90 -0.01 -10.79
Si -2.79 -9.61  4.14
Si -4.32  9.61  2.53
Si -8.43  3.56 -5.82
Si -10.17  3.64 -0.86
Si  0.85  0.01 10.81
Si  8.46 -3.57  5.80
Si -0.25 10.83 -0.87
Si -5.01 -6.06  7.51
Si  5.38  2.38 -9.14
Si  2.83  9.65 -4.13
Si 10.21 -3.66  0.85
Si -5.41 -2.43  9.12
Si  5.04  6.05 -7.52
Si  5.31 -2.42  9.19
Si -7.04  7.19  4.18
Si -5.37  2.41 -9.18
Si  1.51 10.77  0.85
Si  7.01 -7.24 -4.20
Si -1.48 -10.79 -0.86
Si  0.23 -10.91  0.82
Si  4.57  9.63 -2.52
Si -4.63 -9.63  2.53
Si  2.04 -10.80 -0.83
Si  7.24  7.19  4.18
Si -4.17 -8.40  5.83
Si  0.01 -2.40 10.80
Si  0.03  2.44 -10.79
Si -9.25  6.02 -0.87
Si -6.21  0.01 -9.18
Si -7.28 -7.24 -4.20
Si  9.38 -1.19  5.79
Si  9.23 -6.10  0.82
Si  6.25  0.03  9.19
Si  4.19  8.51 -5.79
Si -9.40  1.11 -5.84
Si -2.02 10.92  0.87
Si  9.73 -4.83 -2.48
Si -9.76  4.79  2.46
Si  5.75 -5.92  7.53
Si -2.70 -0.03 10.84
Si 10.61 -2.47 -2.49
Si  2.66 -0.02 -10.86
Si -5.72  6.04 -7.49
Si 11.10 -1.29  0.82
Si -1.83 -2.37 -10.79
Si -10.65  2.38  2.51
Si -11.12  1.21 -0.87
Si  1.87  2.41 10.80
Si  1.77 -2.42 -10.82
Si -7.54  5.92 -5.84
Si  7.52 -6.00  5.79
Si -1.81  2.34 10.84
Si -4.35  4.82 -9.18
Si  4.38 -4.78  9.19
Si  9.85  4.82 -2.52
Si -7.62 -3.54  7.49
Si  0.58  8.37  7.51
Si  4.80 -8.36 -5.83
Si -0.54 -8.38 -7.52
Si -3.27 -10.76  0.83
Si -4.74  8.43  5.84
Si  4.56  4.79  9.17
Si -9.91 -4.82  2.53
Si 10.78  2.38  2.51
Si  7.68  3.62 -7.49
Si  4.35 -9.61  4.14
Si -4.61 -4.88 -9.15
Si -4.32  9.65 -4.13
Si  7.68  8.33  0.82
Si -1.18  8.43 -7.53
Si -8.47 -1.19 -7.49
Si  3.33 10.84 -0.82
Si -10.82 -2.47 -2.49
Si  1.16 -8.51  7.48
Si -4.62 -9.59 -4.13
Si  8.53  1.26  7.49
Si -7.70 -8.41 -0.87
Si -2.34 -8.36  7.49
Si  3.87 -10.76  0.83
Si  4.66  9.63  4.14
Si -3.81 10.84 -0.82
Si  2.40  8.43 -7.49
Si -9.72  4.79 -4.16
Si  9.68 -4.88  4.17
Si -3.51  2.39 -10.82
Si -8.79  7.20  2.51
Si  0.10  7.19 -9.14
Si  2.97 -8.40 -7.49
Si  3.47 -2.47 10.84
Si -6.12  9.60 -2.48
Si -0.13 -7.24  9.12
Si  8.75 -7.28 -2.49
Si  3.63  2.39 -10.82
Si  6.08 -9.64  2.46
Si -9.45 -3.59  5.83
Si  6.75  5.92  7.48
Si  9.47  3.70 -5.79
Si 10.66 -2.43  4.18
Si -3.68 -2.47 10.84
Si  4.45 -0.03 10.84
Si -10.70  2.38 -4.20
Si -1.69  7.19  9.12
Si -2.95  8.51  7.53
Si -9.90 -4.78 -4.13
Si -4.49 -0.02 -10.86
Si 10.73  2.38 -4.20
Si -6.77 -6.00 -7.53
Si  1.65 -7.24 -9.14
Si  6.39  9.60  2.46
Si  9.94  4.82  4.14
Si -9.00 -7.21 -2.52
Si -10.77 -2.43  4.18
Si  7.06 -2.40 -9.18
Si -11.22 -3.66  0.85
Si -1.95 -7.21 -9.18
Si -8.42  3.56  7.51
Si  1.89  7.20  9.19
Si  5.96  8.43  5.79
Si  0.96  4.80 -10.79
Si -6.42 -9.65 -2.48
Si 11.59 -0.03 -2.48
Si  9.04  7.25  2.53
Si 11.26  3.64 -0.86
Si -7.11  2.39  9.19
Si -1.01 -4.80 10.81
Si  8.46 -3.57 -7.52
Si -0.83  4.79 10.84
Si -10.29 -1.25 -5.82
Si -8.31  8.45 -0.86
Si -11.63 -0.02  2.46
Si -8.54 -5.92 -5.79
Si  7.17  2.39  9.19
