500
set: 1367.00  0.00  0.00
Si -0.16 -0.46  0.87
Si  0.99  0.25 -0.59
Si -1.72  0.83 -2.08
Si  1.35  2.29  1.19
Si -0.91 -2.56  1.19
Si  0.44 -1.89 -2.41
Si -0.63 -0.45  3.00
Si  0.17  1.68  2.70
Si -1.24  3.00 -0.27
Si -3.00  1.27  0.30
Si  2.71 -1.85 -0.27
Si -2.51 -1.30 -1.79
Si  3.22  1.27  0.30
Si  2.33 -1.04  2.37
Si  0.95 -3.58  0.30
Si -0.53  1.45 -3.59
Si -3.50 -1.85 -0.27
Si -0.25  3.56 -1.79
Si  3.71 -1.30 -1.79
Si -2.04 -1.30 -3.92
Si -2.10 -3.17  2.70
Si -3.89 -1.04  2.37
Si  2.71  2.96 -2.41
Si  1.33  0.43 -4.48
Si -1.63  3.81  2.37
Si -1.27 -4.60 -0.59
Si -1.62 -1.01  4.51
Si  2.10  4.39  0.87
Si  4.50  0.83 -2.08
Si  2.24 -4.02 -2.08
Si -3.51  2.96 -2.41
Si  2.88  1.09  4.19
Si -5.22  0.25 -0.59
Si  0.22  3.55 -3.92
Si -3.34  1.09  4.19
Si -0.89 -0.60 -5.38
Si -4.87  2.29  1.19
Si  1.64  4.40  3.00
Si -1.12  2.12  5.09
Si  0.61 -3.76  4.19
Si -2.79 -3.40 -3.59
Si  0.83 -2.70 -5.06
Si  4.98  3.00 -0.27
Si  4.12 -3.17  2.70
Si  4.18 -1.30 -3.92
Si -2.42 -5.31  0.87
Si  1.72  0.39  5.65
Si -2.96  5.10 -0.59
Si  0.64  3.84  4.51
Si  5.30 -2.56  1.19
Si  3.42 -3.40 -3.59
Si -3.98 -4.02 -2.08
Si  3.26  5.10 -0.59
Si  0.55  5.68 -2.08
Si -4.11  4.39  0.87
Si  6.06 -0.46  0.87
Si -0.74  6.12  0.30
Si  0.97 -1.71  5.97
Si  3.10  2.15 -5.06
Si -3.12  2.15 -5.06
Si  0.06 -5.89  2.37
Si  5.59 -0.45  3.00
Si -0.93 -4.42 -4.48
Si -5.26 -3.58  0.30
Si  4.59  3.81  2.37
Si  2.83 -2.73  5.09
Si -6.37 -0.46  0.87
Si  4.60 -1.01  4.51
Si -5.77 -1.89 -2.41
Si  1.45 -6.15 -1.79
Si  3.80 -5.31  0.87
Si -4.88  0.43 -4.48
Si -3.38 -2.73  5.09
Si  0.45 -6.71 -0.27
Si -2.89 -5.30  3.00
Si  4.95 -4.60 -0.59
Si -6.05  1.68  2.70
Si  5.68  1.45 -3.59
Si  3.33 -5.30  3.00
Si  1.37  4.25 -5.38
Si -4.58  4.40  3.00
Si  6.38  1.68  2.70
Si  1.83 -2.14 -6.57
Si  5.97  3.56 -1.79
Si -0.54 -4.46  5.65
Si -4.49  0.39  5.65
Si  7.21  0.25 -0.59
Si  6.66 -1.89 -2.41
Si  2.62 -0.01 -6.87
Si -1.08  5.94  4.19
Si -2.98  3.14  5.97
Si -1.82 -6.74 -2.41
Si -2.62  5.28 -4.48
Si -2.13  2.71 -6.57
Si -2.01 -0.20  7.16
Si  1.73  6.30 -3.59
Si  2.43  6.53  2.70
Si  3.23  3.14  5.97
Si -6.84 -0.45  3.00
Si  5.10  2.12  5.09
Si  1.92 -6.15 -3.92
Si  0.82  2.12 -7.19
Si -6.46  3.56 -1.79
Si  5.33 -0.60 -5.38
Si -7.13 -2.56  1.19
Si -2.60  7.15  1.19
Si -3.60 -0.01 -6.87
Si  2.33 -5.86  4.51
Si -6.75  1.45 -3.59
Si  3.60  5.28 -4.48
Si -1.44 -2.73 -7.19
Si -0.22 -2.33  7.48
Si -5.38 -2.70 -5.06
Si  1.25  0.40  7.78
Si  1.02  7.85 -0.27
Si -5.60 -3.76  4.19
Si -4.77 -6.15 -1.79
Si -5.99  3.55 -3.92
Si  7.57  2.29  1.19
Si -3.79  6.53  2.70
Si  7.17 -3.58  0.30
Si -2.23  5.24  5.65
Si -7.45  3.00 -0.27
Si  3.04 -7.41  1.19
Si  3.61  7.15  1.19
Si -5.57  3.84  4.51
Si -5.25 -1.71  5.97
Si -3.17 -7.41  1.19
Si  2.05  2.52  7.48
Si -4.39 -2.14 -6.57
Si  4.09  2.71 -6.57
Si  5.29 -4.42 -4.48
Si  5.48  6.12  0.30
Si -7.93  0.83 -2.08
Si  3.07 -5.45 -5.38
Si -1.25  7.82 -2.41
Si -3.15 -5.45 -5.38
Si -5.67  5.68 -2.08
Si  4.21 -0.20  7.16
Si  6.44  3.55 -3.92
Si -3.88 -5.86  4.51
Si -4.84  4.25 -5.38
Si  4.40 -6.74 -2.41
Si  0.36 -4.86 -6.87
Si -4.30 -6.15 -3.92
Si -1.34  4.84 -6.87
Si -4.49  6.30 -3.59
Si -1.31 -8.43  0.30
Si  0.25  4.66  7.16
Si  1.86 -8.02  2.70
Si  3.99  5.24  5.65
Si -0.86  7.00 -5.06
Si  1.14  6.97  5.09
Si -2.41  0.60 -8.38
Si  7.55  0.43 -4.48
Si -7.48 -4.60 -0.59
Si  2.02  8.41 -1.79
Si -6.15 -5.89  2.37
Si -5.76 -6.71 -0.27
Si  6.83 -3.76  4.19
Si  5.14  5.94  4.19
Si  8.54 -1.04  2.37
Si -7.10 -0.60 -5.38
Si -4.17  2.52  7.48
Si  6.28 -5.89  2.37
Si -1.29 -6.56  5.97
Si  1.95 -5.05  7.16
Si -8.72 -1.30 -1.79
Si  0.63  8.66  2.37
Si -1.01 -4.46  7.78
Si -7.84  3.81  2.37
Si  4.78 -2.73 -7.19
Si  6.86  3.84  4.51
Si  1.16 -8.25 -3.59
Si  6.76  5.68 -2.08
Si  7.05 -2.70 -5.06
Si -7.83 -1.01  4.51
Si -0.03 -8.87 -2.08
Si  8.93 -1.85 -0.27
Si  0.57 -7.58  5.09
Si  5.68 -4.46  5.65
Si -7.33  2.12  5.09
Si -1.43 -7.55 -5.06
Si  3.80  0.60 -8.38
Si -8.26 -1.30 -3.92
Si -5.39  2.12 -7.19
Si -4.96  0.40  7.78
Si  2.29 -2.15 -8.70
Si -1.66  2.70 -8.70
Si -6.95  6.12  0.30
Si -0.55 -0.42 -9.26
Si -1.46  1.94  8.97
Si -8.31 -3.17  2.70
Si  0.26 -0.16  9.29
Si -9.22  1.27  0.30
Si -5.19  7.85 -0.27
Si  8.32  4.39  0.87
Si  6.67 -6.71 -0.27
Si -1.85  9.24  0.87
Si  7.85  4.40  3.00
Si  7.18 -1.71  5.97
Si  1.54 -4.25 -8.38
Si -7.14 -4.42 -4.48
Si -4.36 -8.02  2.70
Si  9.43  1.27  0.30
Si -4.20  8.41 -1.79
Si  4.97  7.82 -2.41
Si  8.45 -4.02 -2.08
Si  2.48  8.40 -3.92
Si -0.44 -6.99 -6.57
Si  8.92  2.96 -2.41
Si  4.88  4.84 -6.87
Si -1.65 -8.61  4.19
Si -4.27 -5.05  7.16
Si  7.94  0.39  5.65
Si  4.91 -8.43  0.30
Si  2.50 -2.91  8.97
Si -2.70  5.25  7.78
Si -3.92 -2.15 -8.70
Si  2.69 -9.46 -0.59
Si  6.00 -2.33  7.48
Si -6.75 -4.46  5.65
Si -9.72 -1.85 -0.27
Si  7.66 -6.15 -1.79
Si -3.73  8.40 -3.92
Si -0.70  9.95 -0.59
Si -2.32  9.25  3.00
Si -0.15  5.46 -8.38
Si  1.21  1.31 -9.84
Si -0.72  7.99  5.97
Si -5.07  6.97  5.09
Si  0.13  7.56 -6.57
Si  3.52  5.25  7.78
Si  9.09  1.09  4.19
Si -3.53 -9.46 -0.59
Si -6.43 -2.33  7.48
Si -3.72 -2.91  8.97
Si  4.92 -6.56  5.97
Si -1.50 -1.89  9.87
Si  5.36  7.00 -5.06
Si  9.92 -1.30 -1.79
Si -8.64 -5.31  0.87
Si  4.56  2.70 -8.70
Si  2.90  8.69  4.51
Si  7.59  4.25 -5.38
Si -5.86 -4.86 -6.87
Si  4.37  9.24  0.87
Si  4.79 -7.55 -5.06
Si -9.01 -3.40 -3.59
Si  7.04  2.12 -7.19
Si -7.29  5.94  4.19
Si  1.53 -10.16  0.87
Si -5.06 -8.25 -3.59
Si  0.76  2.96  9.87
Si -3.31  8.69  4.51
Si  4.76  1.94  8.97
Si  5.21 -4.46  7.78
Si  1.72  4.43 -9.26
Si -5.96  4.66  7.16
Si -10.11 -1.04  2.37
Si -9.73  2.96 -2.41
Si  3.90  9.25  3.00
Si  3.09  6.97 -7.19
Si -4.68 -4.25 -8.38
Si -9.56  1.09  4.19
Si -3.13  6.97 -7.19
Si -1.05 -3.54 -9.84
Si -9.18  5.10 -0.59
Si -5.58  8.66  2.37
Si  8.04 -2.14 -6.57
Si  4.57 -8.61  4.19
Si -2.77 -1.44 -10.16
Si  1.06 -10.15  3.00
Si -2.48 -7.18  7.48
Si  6.57 -4.86 -6.87
Si -1.91  7.37  7.48
Si  7.24  7.85 -0.27
Si  2.52  4.69  9.29
Si  6.47  4.66  7.16
Si -0.51  3.41 -10.16
Si  3.03 -9.27 -4.48
Si -5.64 -7.58  5.09
Si  9.05 -2.73  5.09
Si -2.00 -5.01  9.29
Si  2.52 -7.58 -7.19
Si  7.95  6.30 -3.59
Si -8.03 -6.74 -2.41
Si  9.47  5.10 -0.59
Si -3.19 -9.27 -4.48
Si  7.47  0.40  7.78
Si  9.31  2.15 -5.06
Si  3.45 -1.44 -10.16
Si -2.61  1.23 10.44
Si  9.64 -3.40 -3.59
Si -9.34  2.15 -5.06
Si -7.65 -2.73 -7.19
Si  5.67 -0.42 -9.26
Si -2.58  9.10 -5.38
Si -8.22 -0.20  7.16
Si  8.13 -6.15 -3.92
Si 10.71  0.83 -2.08
Si -9.11 -5.30  3.00
Si -8.34  2.71 -6.57
Si  6.19 -8.87 -2.08
Si -2.81 -5.27 -9.26
Si  3.74 -7.18  7.48
Si -5.95 -0.16  9.29
Si -6.24 -8.87 -2.08
Si -3.69  4.69  9.29
Si -7.46  7.82 -2.41
Si -0.36 10.13 -4.48
Si  1.52 10.98  0.30
Si -3.70 -7.58 -7.19
Si  2.81 10.53 -2.08
Si  4.72 -1.89  9.87
Si  3.60  1.23 10.44
Si -5.00  1.31 -9.84
Si  1.34 -3.62 10.44
Si 10.34 -3.17  2.70
Si -10.20 -4.02 -2.08
Si  8.64  6.53  2.70
Si  2.85 -0.86 10.76
Si -7.07  7.00 -5.06
Si  0.03 -7.00 -8.70
Si -0.82 -11.00 -1.79
Si  3.64  9.10 -5.38
Si 10.39 -1.30 -3.92
Si  3.41 -5.27 -9.26
Si  8.83 -0.01 -6.87
Si -9.60 -2.73  5.09
Si  5.78 -6.99 -6.57
Si -4.50  4.43 -9.26
Si -2.20 -10.74  2.37
Si -4.68 -10.16  0.87
Si -8.84  5.28 -4.48
Si -2.80 -9.31  5.65
Si -10.33  4.39  0.87
Si -3.41 10.53 -2.08
Si  0.80  6.79  8.97
Si  6.85  8.66  2.37
Si -7.55  4.84 -6.87
Si -7.53 -8.43  0.30
Si  8.55 -5.86  4.51
Si -3.37 -0.86 10.76
Si  9.54 -5.30  3.00
Si  6.48 -0.16  9.29
Si  7.36  6.97  5.09
Si  4.31  7.37  7.48
Si 10.01 -5.31  0.87
Si  4.22 -5.01  9.29
Si  6.79 -7.58  5.09
Si -11.08  2.29  1.19
Si  5.49  7.99  5.97
Si  5.52  9.95 -0.59
Si -9.20  3.14  5.97
Si -8.82  7.15  1.19
Si  3.42 -9.31  5.65
Si  8.26  2.52  7.48
Si -8.45  5.24  5.65
Si -11.44  0.25 -0.59
Si -6.76 -0.42 -9.26
Si -7.22 -4.46  7.78
Si -1.10  3.99 10.76
Si  0.60  7.55 -8.70
Si  0.03 10.09  5.65
Si 11.19  3.00 -0.27
Si  9.45  3.14  5.97
Si  0.07 -10.71  4.51
Si -7.51 -6.56  5.97
Si  7.38 -8.25 -3.59
Si  1.18 10.79  4.19
Si  0.80 -10.30 -5.38
Si -5.45  2.96  9.87
Si  5.17 -3.54 -9.84
Si -6.65 -6.99 -6.57
Si -0.35 -11.01 -3.92
Si  6.06  5.46 -8.38
Si  8.07 -8.02  2.70
Si 10.80  3.81  2.37
Si -1.81 -11.56 -0.27
Si  0.74 -0.86 -11.65
Si  4.02 -10.74  2.37
Si  2.21  1.86 -11.35
Si -6.08  7.56 -6.57
Si -0.06 -2.99 -11.35
Si 10.81 -1.01  4.51
Si -5.15 -10.15  3.00
Si -1.53 11.38  2.70
Si -6.37  5.46 -8.38
Si 11.52 -2.56  1.19
Si  6.35  7.56 -6.57
Si  0.23 -7.76  8.97
Si -7.64 -7.55 -5.06
Si  8.23  8.41 -1.79
Si  0.93  9.69 -6.87
Si  9.26 -7.41  1.19
Si -2.22 11.15 -3.59
Si -2.74  6.16 -9.84
Si -4.69 10.98  0.30
Si -0.13  0.65 11.94
Si -7.67  1.94  8.97
Si  8.16 -5.05  7.16
Si -11.10  0.43 -4.48
Si -9.81 -0.01 -6.87
Si  9.81  5.28 -4.48
Si  1.18 -6.29 -10.16
Si -9.39 -7.41  1.19
Si -11.48 -3.58  0.30
Si  2.13 -11.59 -2.41
Si  9.28 -5.45 -5.38
Si -10.80  4.40  3.00
Si -7.88  2.70 -8.70
Si -8.63  0.60 -8.38
Si -1.91 -9.71 -6.87
Si -0.34 12.00  1.19
Si -4.87 -3.62 10.44
Si -0.35  6.08 10.44
Si 11.16 -4.60 -0.59
Si -1.06  1.27 -11.98
Si -9.37 -5.45 -5.38
Si -10.71  0.39  5.65
Si  3.48  6.16 -9.84
Si -6.91  9.95 -0.59
Si  5.71  3.41 -10.16
Si -6.94  7.99  5.97
Si  2.52  9.51  7.16
Si  7.75 -4.25 -8.38
Si -4.01  1.86 -11.35
Si 11.80 -0.45  3.00
Si  0.59 -5.72 10.76
Si  2.46 -6.74  9.87
Si  9.83  7.15  1.19
Si -0.32 -9.90  7.16
Si -10.01  6.53  2.70
Si -8.06  9.24  0.87
Si 12.27 -0.46  0.87
Si  0.78 -12.26  1.19
Si  8.51 -2.15 -8.70
Si  4.41 -11.56 -0.27
Si -11.99 -1.89 -2.41
Si  3.99 11.15 -3.59
Si  5.40 -11.00 -1.79
Si -0.72 -9.10 -8.38
Si -7.87 -8.61  4.19
Si  7.43  1.31 -9.84
Si  6.98  2.96  9.87
Si -3.70  9.51  7.16
Si  1.67 -1.48 12.27
Si  2.95 -9.31  7.78
Si -5.41  6.79  8.97
Si 11.90  1.45 -3.59
Si -10.10 -5.86  4.51
Si 10.30  2.71 -6.57
Si -4.08 -11.59 -2.41
Si -3.76 -6.74  9.87
Si  5.86 10.13 -4.48
Si  5.11  3.99 10.76
Si -3.27 -9.31  7.78
Si 11.31  2.12  5.09
Si  4.69 11.38  2.70
Si -5.03 10.79  4.19
Si -12.59 -0.46  0.87
Si 10.42 -0.20  7.16
Si -6.72  3.41 -10.16
Si  4.31 -9.71 -6.87
Si -10.61 -2.14 -6.57
Si -7.71 -1.89  9.87
Si -12.27  1.68  2.70
Si  3.00  3.99 -11.65
Si  8.70  8.40 -3.92
Si -10.99 -6.15 -1.79
Si -3.22  3.99 -11.65
Si -7.26 -3.54 -9.84
Si 11.54 -0.60 -5.38
Si -0.44 10.10  7.78
Si -6.18 -7.00 -8.70
Si 10.20  5.24  5.65
Si  6.25 -7.00 -8.70
Si -10.52 -6.15 -3.92
Si 10.61 -6.74 -2.41
Si  7.75 -10.16  0.87
Si -5.61  7.55 -8.70
Si -5.41 -10.30 -5.38
Si 12.19  3.56 -1.79
Si  2.90 -3.58 -11.98
Si  8.71 -2.91  8.97
Si  7.28 -10.15  3.00
Si -6.57 10.13 -4.48
Si -2.39 -4.20 11.94
Si -5.48 -0.86 -11.65
Si -2.29  3.37 12.27
Si -10.70  6.30 -3.59
Si -3.32 -3.58 -11.98
Si  1.01 12.67 -2.41
Si -11.60 -2.70 -5.06
Si -8.54  9.25  3.00
Si -8.91  5.25  7.78
Si  3.02  7.82  9.87
Si  1.40 11.85 -5.06
Si -5.03 -6.29 -10.16
