500
set: 716.00  0.00  0.00
Si  0.74  0.08 -0.98
Si -0.22 -0.36  1.79
Si -1.27 -1.22 -1.29
Si -2.12  0.33  0.54
Si -1.19  1.75 -1.66
Si  2.39  0.54  1.42
Si  0.71  2.03  1.84
Si  1.08 -2.35  1.32
Si  1.89  2.27 -0.52
Si  2.88 -0.72 -0.60
Si -1.45  2.33  1.34
Si -0.39 -3.02 -0.23
Si  0.79  1.61 -2.65
Si  1.53 -2.43 -1.88
Si -2.09 -1.95  2.27
Si  2.12 -0.18 -3.36
Si  3.22 -1.76  1.57
Si -3.26  2.42 -0.14
Si -0.00  4.06  0.29
Si -2.30 -0.32 -3.48
Si -3.58 -0.03  2.22
Si -2.11  0.41  3.64
Si -0.88 -2.89 -3.04
Si -0.10 -0.05 -4.31
Si  1.94 -0.11  3.85
Si -3.19 -2.85 -0.85
Si -4.34 -0.75  0.24
Si  0.28 -2.21  4.01
Si -2.95  2.90 -2.25
Si  2.67  2.46 -3.03
Si  4.40  1.16 -1.43
Si  3.16  3.30  1.38
Si -1.24  2.69  3.77
Si -0.94 -4.18  2.29
Si  4.63  1.23  0.98
Si  0.93  1.96  4.38
Si -4.42 -0.90 -1.99
Si  3.33  1.70  3.52
Si  0.76 -4.83 -2.05
Si  3.68 -2.03 -3.27
Si  1.45 -3.12 -4.07
Si -0.89  3.63 -3.81
Si  2.47  4.74 -0.57
Si  4.31 -3.25 -0.09
Si  1.68 -4.72  2.04
Si -5.17  1.23  0.98
Si  0.76  4.96 -2.05
Si -2.81  1.79 -4.32
Si -0.10 -0.05  5.49
Si  5.46 -0.75  0.24
Si -4.46 -2.56  1.97
Si -3.04 -4.59  0.87
Si -2.00 -4.89 -1.86
Si -2.00  4.91 -1.86
Si  2.47 -5.06 -0.57
Si -5.40  1.16 -1.43
Si  1.68  5.08  2.04
Si  3.56 -3.95 -2.16
Si -0.00 -5.74  0.29
Si -4.35  1.96  3.23
Si  5.38 -0.90 -1.99
Si  0.93  1.96 -5.42
Si -4.30  3.78  1.40
Si  2.98 -3.48  3.73
Si  4.56  3.75 -0.61
Si -2.16 -2.62  4.90
Si -2.16 -2.62 -4.90
Si -3.04  5.21  0.87
Si -0.94  5.62  2.29
Si  0.28 -2.21 -5.79
Si  5.34 -2.56  1.97
Si  1.94 -0.11 -5.95
Si  2.37  4.04  4.27
Si  0.22 -4.50  4.48
Si -5.49 -3.25 -0.09
Si  4.76  1.41 -4.04
Si -2.81  1.79  5.48
Si -5.24  3.75 -0.61
Si -2.11  0.41 -6.16
Si  6.22 -0.03  2.22
Si -5.04  1.41 -4.04
Si  4.61 -0.76  4.69
Si  5.45  1.96  3.23
Si -3.88 -4.41 -3.19
Si  1.45 -3.12  5.73
Si -1.24  2.69 -6.03
Si  3.97  3.95 -3.73
Si -2.30 -0.32  6.32
Si -2.35 -4.76  4.15
Si  2.12 -0.18  6.44
Si -0.39  6.78 -0.23
Si  5.50  3.78  1.40
Si  4.61 -0.76 -5.11
Si -2.35  5.04  4.15
Si  0.22  5.29  4.48
Si  6.54  2.42 -0.14
Si  0.22 -4.50 -5.32
Si -6.92 -0.72 -0.60
Si -6.58 -1.76  1.57
Si -5.19 -0.76  4.69
Si -4.53 -3.00  4.50
Si -0.89  3.63  5.99
Si  3.56  5.85 -2.16
Si -6.12 -2.03 -3.27
Si  2.37  4.04 -5.53
Si  6.61 -2.85 -0.85
Si -0.89 -6.17 -3.81
Si  3.33  1.70 -6.28
Si -5.19 -0.76 -5.11
Si  3.16 -6.50  1.38
Si -3.88  5.39 -3.19
Si  0.79  1.61  7.15
Si -0.88 -2.89  6.76
Si  0.22  5.29 -5.32
Si -4.30 -6.02  1.40
Si -6.64  3.30  1.38
Si  5.28 -3.00  4.50
Si  2.37 -5.76  4.27
Si -6.46  1.70  3.52
Si -7.41  0.54  1.42
Si -4.53 -3.00 -5.30
Si -0.88  6.91 -3.04
Si  4.76  1.41  5.76
Si  4.56 -6.05 -0.61
Si  2.98 -3.48 -6.07
Si  1.08  7.45  1.32
Si  2.67  2.46  6.77
Si -6.24 -3.95 -2.16
Si -3.19  6.95 -0.85
Si  7.68  0.33  0.54
Si -1.45 -7.47  1.34
Si -2.35 -4.76 -5.65
Si  1.53  7.37 -1.88
Si  3.68 -2.03  6.53
Si  6.85  2.90 -2.25
Si  1.89 -7.53 -0.52
Si -5.04  1.41  5.76
Si -4.51  4.60  4.42
Si -2.95 -6.91 -2.25
Si  4.31  6.55 -0.09
Si  2.98  6.32  3.73
Si -2.35  5.04 -5.65
Si  1.45  6.67 -4.07
Si -5.83  3.95 -3.73
Si  3.97 -5.85 -3.73
Si  0.71 -7.77  1.84
Si -0.22 -0.36 -8.01
Si -5.24 -6.05 -0.61
Si  5.92 -4.41 -3.19
Si -2.09 -1.95 -7.53
Si  5.28 -3.00 -5.30
Si -3.26 -7.38 -0.14
Si -4.35  1.96 -6.57
Si -7.13  2.46 -3.03
Si -1.24 -7.11  3.77
Si -4.51 -5.20  4.42
Si  6.76 -4.59  0.87
Si  0.71  2.03 -7.96
Si -7.91  2.27 -0.52
Si  3.97  3.95  6.07
Si  5.50 -6.02  1.40
Si  7.71 -1.95  2.27
Si  7.50 -0.32 -3.48
Si  5.29  4.60  4.42
Si -1.19 -8.05 -1.66
Si  2.37 -5.76 -5.53
Si  2.67 -7.34 -3.03
Si -3.58 -0.03 -7.58
Si -7.68 -0.18 -3.36
Si -4.51  4.60 -5.38
Si  6.99  1.79 -4.32
Si -1.19  1.75  8.14
Si  1.53 -2.43  7.92
Si -2.09  7.86  2.27
Si  7.69  0.41  3.64
Si -6.83 -3.48  3.73
Si -5.49  6.55 -0.09
Si  6.76  5.21  0.87
Si  0.28  7.59  4.01
Si -2.95  2.90  7.55
Si  5.92  5.39 -3.19
Si  5.29 -5.20  4.42
Si  0.79 -8.19 -2.65
Si -0.94 -4.18 -7.51
Si -0.89 -6.17  5.99
Si -1.27 -1.22  8.51
Si  8.53 -1.22 -1.29
Si -4.46  7.24  1.97
Si  2.39  0.54 -8.38
Si -4.51 -5.20 -5.38
Si -7.33  4.74 -0.57
Si -7.86 -0.11  3.85
Si  5.45  1.96 -6.57
Si -1.27  8.58 -1.29
Si  8.36  2.33  1.34
Si  3.22  8.04  1.57
Si -8.27 -2.43 -1.88
Si -6.24  5.85 -2.16
Si -3.88 -4.41  6.61
Si  5.29  4.60 -5.38
Si  0.74  0.08  8.82
Si  1.08 -2.35 -8.48
Si -1.45  2.33 -8.46
Si  1.45  6.67  5.73
Si -7.33 -5.06 -0.57
Si  8.61  1.75 -1.66
Si -2.16  7.18  4.90
Si -2.16  7.18 -4.90
Si  3.22 -1.76 -8.23
Si -4.42 -0.90  7.81
Si  0.93 -7.84  4.38
Si  6.99  1.79  5.48
Si -5.83 -5.85 -3.73
Si -9.06  0.08 -0.98
Si -8.72 -2.35  1.32
Si  5.29 -5.20 -5.38
Si  0.76 -4.83  7.75
Si -6.46  1.70 -6.28
Si -6.12 -2.03  6.53
Si  3.68  7.77 -3.27
Si  5.34  7.24  1.97
Si  0.76  4.96  7.75
Si  1.68 -4.72 -7.76
Si  2.98  6.32 -6.07
Si -5.83  3.95  6.07
Si  3.56 -3.95  7.64
Si  3.97 -5.85  6.07
Si -4.53  6.80  4.50
Si -3.88  5.39  6.61
Si -4.46 -2.56 -7.83
Si -6.64 -6.50  1.38
Si  7.80 -4.89 -1.86
Si  7.80  4.91 -1.86
Si -1.24 -7.11 -6.03
Si -0.94  5.62 -7.51
Si  1.68  5.08 -7.76
Si  3.33 -8.11  3.52
Si  7.64 -2.62  4.90
Si  7.64 -2.62 -4.90
Si -7.43  4.04  4.27
Si -9.09  2.03  1.84
Si -2.12  0.33 -9.26
Si -2.81 -8.01 -4.32
Si -4.35 -7.84  3.23
Si  4.40  1.16  8.37
Si  5.38 -0.90  7.81
Si -9.02  1.61 -2.65
Si -2.00 -4.89  7.94
Si -2.00  4.91  7.94
Si  2.88  9.08 -0.60
Si  0.28  7.59 -5.79
Si  0.93 -7.84 -5.42
Si  3.16  3.30 -8.42
Si -0.22  9.44  1.79
Si -8.12 -4.72  2.04
Si  6.61  6.95 -0.85
Si  2.39 -9.26  1.42
Si  2.88 -0.72  9.20
Si -0.88  6.91  6.76
Si  5.28  6.80  4.50
Si -2.12 -9.47  0.54
Si  8.56  2.69  3.77
Si -4.53  6.80 -5.30
Si  1.89  2.27  9.29
Si  9.58 -0.36  1.79
Si  7.45 -4.76  4.15
Si -6.83 -3.48 -6.07
Si  4.63 -8.57  0.98
Si  0.74 -9.72 -0.98
Si -8.12  5.08  2.04
Si -8.35 -3.12 -4.07
Si  4.40 -8.64 -1.43
Si  6.22 -0.03 -7.58
Si  7.50 -0.32  6.32
Si  5.34 -2.56 -7.83
Si -7.86 -0.11 -5.95
Si  6.54 -7.38 -0.14
Si  8.93 -2.89 -3.04
Si  7.69  0.41 -6.16
Si  9.41 -3.02 -0.23
Si  7.45  5.04  4.15
Si  5.92 -4.41  6.61
Si -3.19 -2.85  8.95
Si  0.74  9.88 -0.98
Si  6.85 -6.91 -2.25
Si -6.83  6.32  3.73
Si -7.68 -0.18  6.44
Si -5.40  1.16  8.37
Si  4.63  1.23 -8.82
Si -4.34  9.05  0.24
Si -0.39 -3.02  9.57
Si -5.17 -8.57  0.98
Si  8.86 -4.18  2.29
Si  5.45 -7.84  3.23
Si -8.87  1.96  4.38
Si -2.81 -8.01  5.48
Si -7.43  4.04 -5.53
Si  5.28  6.80 -5.30
Si -4.42  8.90 -1.99
Si -7.13  2.46  6.77
Si -4.30  3.78 -8.40
Si -10.02 -0.36  1.79
Si -5.83 -5.85  6.07
Si  3.56  5.85  7.64
Si -2.11 -9.39  3.64
Si -5.40 -8.64 -1.43
Si -5.17  1.23 -8.82
Si -0.22 -10.16  1.79
Si -7.43 -5.76  4.27
Si  2.67 -7.34  6.77
Si -0.00  4.06 -9.51
Si  8.91  3.63 -3.81
Si -2.30  9.48 -3.48
Si -2.12 10.13  0.54
Si  5.92  5.39  6.61
Si  2.12  9.62 -3.36
Si -6.12  7.77 -3.27
Si -9.04 -4.83 -2.05
Si  4.76 -8.39 -4.04
Si -0.39 -3.02 -10.03
Si -3.26  2.42  9.66
Si -3.04 -4.59 -8.93
Si  7.45 -4.76 -5.65
Si -6.58  8.04  1.57
Si -9.04  4.96 -2.05
Si -4.34 -0.75 -9.55
Si -2.12  0.33 10.34
Si -9.52 -2.21  4.01
Si  5.46  9.05  0.24
Si -8.87  1.96 -5.42
Si 10.54  0.08 -0.98
Si  5.38  8.90 -1.99
Si -8.35 -3.12  5.73
Si -5.04 -8.39 -4.04
Si  6.85  2.90  7.55
Si  9.70 -0.05 -4.31
Si  1.94  9.69  3.85
Si  9.80  4.06  0.29
Si -9.80  4.06  0.29
Si -6.24 -3.95  7.64
Si  7.45  5.04 -5.65
Si -10.19 -3.02 -0.23
Si -3.58  9.77  2.22
Si -2.95 -6.91  7.55
Si -0.10  9.75 -4.31
Si  2.47  4.74  9.23
Si -7.13 -7.34 -3.03
Si -6.58 -1.76 -8.23
Si -3.58 -9.83  2.22
Si  2.39 10.34  1.42
Si  5.50  3.78 -8.40
Si  1.89  2.27 -10.31
Si -3.26  2.42 -9.94
Si  8.86  5.62  2.29
Si  2.12 -9.98 -3.36
Si -0.10 -9.85 -4.31
Si -3.04  5.21 -8.93
Si  3.33 -8.11 -6.28
Si  3.68  7.77  6.53
Si -9.90 -0.05 -4.31
Si  0.74  0.08 -10.78
Si  1.94 -9.91  3.85
Si  8.56  2.69 -6.03
Si  2.47 -5.06  9.23
Si  2.88 -0.72 -10.40
Si 10.51  2.03  1.84
Si -0.00  4.06 10.09
Si  0.79 -8.19  7.15
Si -7.43 -5.76 -5.53
Si  2.88 -10.52 -0.60
Si  4.56  3.75  9.19
Si -7.91 -7.53 -0.52
Si  1.53  7.37  7.92
Si -2.30 -10.12 -3.48
Si -6.46 -8.11  3.52
Si  7.71 -1.95 -7.53
Si -4.34 -0.75 10.04
Si  5.46 -0.75 -9.55
Si 10.59  1.61 -2.65
Si -2.11 10.21  3.64
Si 10.08 -2.21  4.01
Si -2.09  7.86 -7.53
Si  3.16 -6.50 -8.42
Si -6.83  6.32 -6.07
Si  4.31 -3.25  9.71
Si -0.00 -5.74 -9.51
Si -4.35 -7.84 -6.57
Si  9.70 -0.05  5.49
Si  0.71 -7.77 -7.96
Si -1.27 -11.02 -1.29
Si  4.61  9.04  4.69
Si -0.10  9.75  5.49
Si -4.30 -6.02 -8.40
Si -7.41  0.54 -8.38
Si -11.07 -1.22 -1.29
Si 10.88 -2.35  1.32
Si -6.64  3.30 -8.42
Si -5.24  3.75  9.19
Si -1.27 -1.22 -11.09
Si -8.27  7.37 -1.88
Si  4.76 -8.39  5.76
Si  7.71  7.86  2.27
Si -10.99  1.75 -1.66
Si  4.31 -3.25 -9.89
Si -0.10 -9.85  5.49
Si  8.36 -7.47  1.34
Si -9.90 -0.05  5.49
Si  1.08  7.45 -8.48
Si  8.91  3.63  5.99
Si -9.52 -2.21 -5.79
Si  9.80 -5.74  0.29
Si  4.61  9.04 -5.11
Si -9.80 -5.74  0.29
Si -5.04 -8.39  5.76
Si -1.45 -7.47 -8.46
Si -4.34 -10.55  0.24
Si  1.08 -2.35 11.12
Si -2.11 -9.39 -6.16
Si -5.19  9.04  4.69
Si -6.92  9.08 -0.60
Si -8.35  6.67 -4.07
Si  5.46 -0.75 10.04
Si -6.24  5.85  7.64
Si -10.68 -2.89 -3.04
Si -1.45  2.33 11.14
Si  6.99 -8.01 -4.32
Si -3.19 -2.85 -10.65
Si  2.39  0.54 11.22
Si  8.91 -6.17 -3.81
Si  6.61 -2.85  8.95
Si -9.58 -4.50  4.48
Si -1.19 -8.05  8.14
Si -6.92 -0.72  9.20
Si  1.94  9.69 -5.95
Si -8.72  7.45  1.32
Si -4.46  7.24 -7.83
Si -11.24  2.33  1.34
Si  8.93 -2.89  6.76
Si  7.64  7.18  4.90
Si  7.64  7.18 -4.90
Si  5.45 -7.84 -6.57
Si -0.22 -0.36 11.59
Si  9.41  6.78 -0.23
Si -0.00 -5.74 10.09
Si -5.19  9.04 -5.11
Si -5.49 -3.25  9.71
Si -9.02  1.61  7.15
Si -2.30  9.48  6.32
Si -1.19  1.75 -11.46
Si  2.47  4.74 -10.37
Si  8.93  6.91 -3.04
Si  5.50 -6.02 -8.40
Si -8.27 -2.43  7.92
Si  1.94 -9.91 -5.95
Si -1.19 11.55 -1.66
Si -0.39  6.78  9.57
Si 11.33 -2.43 -1.88
Si  0.79 11.41 -2.65
Si -4.42 -10.70 -1.99
Si -10.74 -4.18  2.29
Si  8.56 -7.11  3.77
Si 10.73  1.96  4.38
Si  2.12  9.62  6.44
Si -5.49 -3.25 -9.89
Si -3.19  6.95  8.95
Si 10.56 -4.83 -2.05
Si  6.22  9.77  2.22
Si  4.63  1.23 10.78
Si  2.47 -5.06 -10.37
Si 10.08 -2.21 -5.79
Si -9.58  5.29  4.48
Si  0.71  2.03 11.64
Si 10.56  4.96 -2.05
Si  6.22 -9.83  2.22
Si -9.58 -4.50 -5.32
Si -6.12  7.77  6.53
Si 10.02 -4.50  4.48
Si  5.46 -10.55  0.24
Si  4.40 10.96 -1.43
Si  8.61 -8.05 -1.66
Si -10.69  3.63 -3.81
Si  4.56 -6.05  9.19
Si  6.54  2.42  9.66
Si 11.69  2.27 -0.52
Si  5.34  7.24 -7.83
Si -11.92  0.33  0.54
Si -7.41 -9.26  1.42
Si  3.22 -1.76 11.37
Si  3.22  8.04 -8.23
Si  6.99 -8.01  5.48
Si -11.04  2.69  3.77
Si  4.56  3.75 -10.41
Si  8.61  1.75  8.14
Si  0.71 11.83  1.84
Si  4.63 11.03  0.98
Si -3.04 -4.59 10.67
Si -5.17  1.23 10.78
Si  1.53 -2.43 -11.68
Si  7.68  0.33 -9.26
Si  2.12 -9.98  6.44
