500
set: 1377.00  0.00  0.00
Si  0.22  1.02 -0.59
Si -0.51 -0.55 -1.75
Si  0.95 -0.66  1.73
Si  0.30 -2.25  0.57
Si  2.38  0.98  0.57
Si -2.61  0.98  0.57
Si -1.86 -2.21 -0.59
Si -1.65  1.10 -2.82
Si -1.86 -0.69  2.88
Si  1.57  2.67 -1.75
Si -1.96  2.56  1.73
Si  1.26 -2.12 -2.82
Si  0.21  2.54  2.88
Si  3.13 -2.21 -0.59
Si -0.53  4.20  0.57
Si  1.40  0.90  3.95
Si  1.16  1.14 -3.96
Si  3.12 -0.69  2.88
Si  3.03  2.56  1.73
Si -1.13 -3.89  1.73
Si -4.04 -0.66  1.73
Si  3.33  1.10 -2.82
Si -0.92 -2.09 -3.96
Si -0.68 -2.33  3.95
Si -3.41  2.67 -1.75
Si  2.40 -3.78 -1.75
Si  4.48 -0.55 -1.75
Si  2.30  4.24 -0.59
Si -2.58 -3.78 -1.75
Si -4.77  1.02 -0.59
Si  1.04 -3.92  2.88
Si -2.69  4.24 -0.59
Si -3.73 -2.12 -2.82
Si  0.40 -0.42 -5.11
Si  0.07 -0.77  5.09
Si  0.43  4.33 -2.82
Si -4.69 -2.25  0.57
Si  5.21  1.02 -0.59
Si -3.59  0.90  3.95
Si  1.05 -5.44 -0.59
Si -3.83  1.14 -3.96
Si  3.86 -3.89  1.73
Si  5.29 -2.25  0.57
Si -1.78 -5.47  0.57
Si -5.49 -0.55 -1.75
Si -1.51  4.12  3.95
Si  0.12  5.79  1.73
Si  4.07 -2.09 -3.96
Si  2.15  2.46  5.09
Si -0.82 -5.35 -2.82
Si -4.77  2.54  2.88
Si -1.75  4.36 -3.96
Si  4.46  4.20  0.57
Si  5.94 -0.66  1.73
Si -3.94 -3.92  2.88
Si  4.30 -2.33  3.95
Si -1.33  5.90 -1.75
Si -2.83  2.46  5.09
Si  2.48  2.80 -5.11
Si -0.78  1.22 -6.17
Si -2.50  2.80 -5.11
Si  3.21 -5.47  0.57
Si  5.20  2.54  2.88
Si -1.68 -3.65 -5.11
Si  2.25 -0.80  6.24
Si  3.48  4.12  3.95
Si  3.24  4.36 -3.96
Si -0.66  2.43  6.24
Si -3.94 -5.44 -0.59
Si -2.01 -4.00  5.09
Si  2.13 -2.01 -6.17
Si  2.29  5.76  2.88
Si -2.74 -0.80  6.24
Si -4.58 -0.42 -5.11
Si -4.56  4.33 -2.82
Si  1.99 -5.32 -3.96
Si -5.52  4.20  0.57
Si -2.69  5.76  2.88
Si -2.86 -2.01 -6.17
Si  3.31 -3.65 -5.11
Si -4.91 -0.77  5.09
Si  2.98 -4.00  5.09
Si  3.65  5.90 -1.75
Si  2.22 -5.55  3.95
Si  6.24 -2.12 -2.82
Si -6.85 -2.21 -0.59
Si  5.06 -0.77  5.09
Si  0.32 -7.00 -1.75
Si -3.00 -5.32 -3.96
Si -5.67 -2.33  3.95
Si -6.64  1.10 -2.82
Si  6.56  2.67 -1.75
Si  4.16 -5.35 -2.82
Si -2.76 -5.55  3.95
Si  0.49  0.77  7.30
Si  6.15  1.14 -3.96
Si -5.91 -2.09 -3.96
Si  0.17 -4.03  6.24
Si  5.39 -0.42 -5.11
Si -6.12 -3.89  1.73
Si  7.36  0.98  0.57
Si -6.85 -0.69  2.88
Si  5.42  4.33 -2.82
Si -0.61  7.47 -0.59
Si  1.78 -7.12  1.73
Si  6.38  0.90  3.95
Si  4.21  1.22 -6.17
Si -0.04 -1.98 -7.33
Si -6.94  2.56  1.73
Si  1.55  7.43  0.57
Si -0.75  5.68  5.09
Si -7.60  0.98  0.57
Si  2.04  1.24 -7.33
Si  1.30  4.44 -6.17
Si  6.03 -3.92  2.88
Si -4.86  5.79  1.73
Si -1.04 -7.14  2.88
Si -1.59 -2.46  7.30
Si  5.11  5.79  1.73
Si -0.43  6.03 -5.11
Si  4.33  2.43  6.24
Si -3.21 -7.12  1.73
Si -2.95  1.24 -7.33
Si  0.05 -5.24 -6.17
Si  6.03 -5.44 -0.59
Si -3.44  7.43  0.57
Si  0.57  7.35  3.95
Si -5.81 -5.35 -2.82
Si  3.40 -2.46  7.30
Si  8.11 -2.21 -0.59
Si -2.48  7.56 -2.82
Si  2.51  7.56 -2.82
Si -3.69  4.44 -6.17
Si  7.29  4.24 -0.59
Si  7.39 -3.78 -1.75
Si -5.77  1.22 -6.17
Si  1.42  5.65  6.24
Si -0.87 -0.89  8.46
Si  0.33  7.59 -3.96
Si  8.02  2.56  1.73
Si -4.67 -7.00 -1.75
Si  1.38 -0.34 -8.49
Si -4.50  0.77  7.30
Si -0.87  4.47 -7.33
Si  8.11 -0.69  2.88
Si -7.57 -3.78 -1.75
Si -6.50  4.12  3.95
Si  1.23 -6.88 -5.11
Si  3.95 -7.14  2.88
Si -2.42  3.99  7.30
Si  4.38  7.47 -0.59
Si  2.57  3.99  7.30
Si -6.77 -5.47  0.57
Si  4.23  5.68  5.09
Si -1.03 -8.66 -0.59
Si -5.64  2.43  6.24
Si -7.68  4.24 -0.59
Si  1.13 -8.70  0.57
Si -6.32  5.90 -1.75
Si -4.82 -4.03  6.24
Si  8.32  1.10 -2.82
Si  1.21  2.34  8.46
Si  0.90 -7.22  5.09
Si -6.73  4.36 -3.96
Si  5.31 -7.00 -1.75
Si -8.40  2.67 -1.75
Si  5.16 -4.03  6.24
Si  4.94 -1.98 -7.33
Si -1.52  2.88 -8.49
Si -5.03 -1.98 -7.33
Si  7.14  2.46  5.09
Si  4.56  6.03 -5.11
Si -3.57  5.65  6.24
Si -6.66 -3.65 -5.11
Si  5.47  0.77  7.30
Si -9.02 -0.66  1.73
Si -3.60 -0.34 -8.49
Si -0.69 -3.57 -8.49
Si -2.12 -5.21 -7.33
Si  2.08 -8.57 -2.82
Si  0.75  9.13 -1.75
Si  1.31 -5.68  7.30
Si -5.60  7.47 -0.59
Si -3.76 -6.88 -5.11
Si -8.72 -2.12 -2.82
Si -0.09 -8.54 -3.96
Si  2.86 -5.21 -7.33
Si -4.42  7.35  3.95
Si  2.20  9.02  1.73
Si  4.12 -0.89  8.46
Si -0.61  8.99  2.88
Si  7.47  2.80 -5.11
Si -2.90 -8.57 -2.82
Si -4.94 -5.24 -6.17
Si -8.58  0.90  3.95
Si -7.49  2.80 -5.11
Si  4.12  4.47 -7.33
Si -6.99 -4.00  5.09
Si  5.04 -5.24 -6.17
Si -3.86 -8.70  0.57
Si  3.95 -8.66 -0.59
Si -5.74  5.68  5.09
Si -3.77  2.34  8.46
Si -5.41  6.03 -5.11
Si  7.24 -0.80  6.24
Si -2.79  9.02  1.73
Si  3.46  2.88 -8.49
Si  6.97 -5.32 -3.96
Si  2.04 -4.12  8.46
Si  0.14 -8.78  3.95
Si  7.12 -2.01 -6.17
Si  9.47 -0.55 -1.75
Si -7.82  2.46  5.09
Si -0.78 -0.30 -9.65
Si  7.28  5.76  2.88
Si -8.81  1.14 -3.96
Si -4.08 -7.22  5.09
Si -4.66  7.59 -3.96
Si  1.29 -0.93  9.62
Si -1.91 -7.25  6.24
Si -6.02 -7.14  2.88
Si  8.85 -3.89  1.73
Si -9.76  1.02 -0.59
Si -2.95 -4.12  8.46
Si  6.29  4.44 -6.17
Si  8.19 -5.47  0.57
Si  6.54  7.43  0.57
Si  7.21 -5.55  3.95
Si -9.68 -2.25  0.57
Si -3.67 -5.68  7.30
Si -7.72 -0.80  6.24
Si  6.76 -7.12  1.73
Si -1.61  7.67 -6.17
Si  5.55  7.35  3.95
Si -7.68  5.76  2.88
Si -1.62  2.30  9.62
Si  3.08 -7.25  6.24
Si  5.32  7.59 -3.96
Si  9.05 -2.09 -3.96
Si  8.23  4.36 -3.96
Si -6.58 -2.46  7.30
Si  4.29 -3.57 -8.49
Si  1.30  2.92 -9.65
Si -8.93 -3.92  2.88
Si -7.84 -2.01 -6.17
Si  8.46  4.12  3.95
Si -4.24  9.13 -1.75
Si  7.02  1.24 -7.33
Si 10.19  1.02 -0.59
Si  7.97 -4.00  5.09
Si -1.70  5.56  8.46
Si -0.34  7.22  7.30
Si -7.75 -5.55  3.95
Si -5.85 -0.89  8.46
Si  1.33  8.91  5.09
Si -3.69 -0.93  9.62
Si  9.44  4.20  0.57
Si  9.29 -2.33  3.95
Si -7.99 -5.32 -3.96
Si -5.86  4.47 -7.33
Si  4.37  8.99  2.88
Si  8.30 -3.65 -5.11
Si  3.38  7.67 -6.17
Si  3.37  2.30  9.62
Si -8.93 -5.44 -0.59
Si  0.56  6.11 -8.49
Si -9.76  2.54  2.88
Si -0.30 -10.34  1.73
Si  2.13 -3.53 -9.65
Si -0.79 -4.15  9.62
Si -1.76 -10.23 -1.75
Si 10.27 -2.25  0.57
Si  4.21 -0.30 -9.65
Si -6.02 -8.66 -0.59
Si  6.41  5.65  6.24
Si  6.22 -6.88 -5.11
Si  8.64  5.90 -1.75
Si  4.89 -8.54 -3.96
Si  6.37 -0.34 -8.49
Si  5.89 -7.22  5.09
Si -10.48 -0.55 -1.75
Si  3.29  5.56  8.46
Si  6.11 -8.70  0.57
Si -2.85 -3.53 -9.65
Si -2.03 -8.46 -6.17
Si  1.21  7.70 -7.33
Si -5.08 -8.54 -3.96
Si  1.65  9.26 -5.11
Si -3.68  2.92 -9.65
Si  6.20  2.34  8.46
Si -1.36 10.66  0.57
Si -4.84 -8.78  3.95
Si  1.47 10.69 -0.59
Si -5.68 -3.57 -8.49
Si -9.55  4.33 -2.82
Si -9.57 -0.42 -5.11
Si  3.23 -10.23 -1.75
Si -7.94  1.24 -7.33
Si  2.96 -8.46 -6.17
Si 10.19  2.54  2.88
Si -3.66  8.91  5.09
Si  0.58  1.35 -10.81
Si  5.13 -8.78  3.95
Si  5.73  9.13 -1.75
Si  1.87 -10.37  2.88
Si -1.49  8.88  6.24
Si  9.15 -5.35 -2.82
Si -5.60  8.99  2.88
Si  1.94  0.66 10.78
Si -8.20 -7.12  1.73
Si -7.47  7.56 -2.82
Si  7.49  7.56 -2.82
Si -1.50 -1.87 -10.81
Si -6.51  2.88 -8.49
Si 10.92 -0.66  1.73
Si -0.14 -2.57 10.78
Si -3.33  9.26 -5.11
Si  2.21 -6.79 -8.49
Si  0.46  5.52  9.62
Si  9.20  1.22 -6.17
Si -7.41  3.99  7.30
Si -0.40 10.78 -2.82
Si -9.90 -0.77  5.09
Si  6.30 -5.68  7.30
Si  0.79 -8.44 -7.33
Si -0.04 -7.34  8.46
Si -3.12 -10.37  2.88
Si -2.77 -6.79 -8.49
Si -3.04  0.66 10.78
Si  7.55  3.99  7.30
Si -5.76 -0.30 -9.65
Si -8.42  7.43  0.57
Si  3.63 10.66  0.57
Si  4.65  7.22  7.30
Si -3.52 10.69 -0.59
Si -3.78  7.70 -7.33
Si  4.20 -4.15  9.62
Si 10.05 -0.77  5.09
Si -10.50  4.20  0.57
Si -0.85 -10.10 -5.11
Si -4.43  6.11 -8.49
Si  8.38 -2.46  7.30
Si  3.50  8.88  6.24
Si -7.11 -5.21 -7.33
Si  7.07 -8.57 -2.82
Si  9.31  2.43  6.24
Si  4.69 -10.34  1.73
Si -0.96  3.88 10.78
Si  3.49 -1.87 -10.81
Si  6.28 -0.93  9.62
Si -2.34 10.58  3.95
Si -8.67  4.44 -6.17
Si -0.76 -8.91  7.30
Si -1.60  6.15 -9.65
Si -9.85  5.79  1.73
Si -5.33  7.22  7.30
Si 10.38 -0.42 -5.11
Si  2.65 10.58  3.95
Si -10.66 -2.33  3.95
Si 10.40  4.33 -2.82
Si  7.19  9.02  1.73
Si -1.18 -10.45  5.09
Si -5.29 -10.34  1.73
Si  7.03 -4.12  8.46
Si -4.41  1.35 -10.81
Si 10.10  5.79  1.73
Si  2.41 10.81 -3.96
Si 11.23 -2.12 -2.82
Si -10.89 -2.09 -3.96
Si  0.05 -6.76 -9.65
Si -6.90 -7.25  6.24
Si  8.94 -7.14  2.88
Si -2.58 10.81 -3.96
Si  5.54  6.11 -8.49
Si -6.59  7.67 -6.17
Si 11.13  1.14 -3.96
Si  6.29  2.92 -9.65
Si -11.10 -3.89  1.73
Si -6.60  2.30  9.62
Si  3.38  6.15 -9.65
Si  7.85 -5.21 -7.33
Si -4.20 -8.44 -7.33
Si -2.33  4.58 -10.81
Si -5.78 -4.15  9.62
Si  9.22  5.68  5.09
Si -0.95 -11.93  0.57
Si 11.55  2.67 -1.75
Si -4.52  5.52  9.62
Si -7.89 -8.57 -2.82
Si -0.87  0.63 11.94
Si  9.36  7.47 -0.59
Si -9.49  0.77  7.30
Si -8.55  5.65  6.24
Si -11.62  1.10 -2.82
Si -7.77  9.02  1.73
Si  1.41 -5.10 -10.81
Si  2.66  4.58 -10.81
Si 11.02 -3.92  2.88
Si  6.31  8.91  5.09
Si  1.87 -11.89 -0.59
Si  4.59 10.78 -2.82
Si  4.14 -10.10 -5.11
Si -9.65 -7.00 -1.75
Si -11.84 -2.21 -0.59
Si 11.37  0.90  3.95
Si -8.59 -0.34 -8.49
Si  4.85 -2.57 10.78
Si  2.34 -0.21 -11.87
Si  0.00 -11.80 -2.82
Si -6.68  5.56  8.46
Si  4.02  3.88 10.78
Si -2.65 -0.21 -11.87
Si -11.84 -0.69  2.88
Si  0.38  8.79  8.46
Si -5.12 -2.57 10.78
Si  5.57  1.35 -10.81
Si  3.81 -10.45  5.09
Si  1.00 -10.48  6.24
Si -8.74 -6.88 -5.11
Si  4.95 -7.34  8.46
Si -0.57  3.01 -11.87
Si  4.22 -8.91  7.30
Si -5.03 -7.34  8.46
Si -9.80 -4.03  6.24
Si  6.20  7.70 -7.33
Si 11.02 -5.44 -0.59
Si -3.11 -11.89 -0.59
Si -7.93 -4.12  8.46
Si  2.12 -7.38  9.62
Si  8.45  2.88 -8.49
Si -11.93  2.56  1.73
Si  5.45  5.52  9.62
Si  0.26 -3.44 -11.87
Si -10.80 -5.35 -2.82
Si -6.74 -10.23 -1.75
Si -5.39 10.78 -2.82
Si -0.70 12.24  1.73
Si  2.04 -2.60 11.94
Si  9.55  6.03 -5.11
Si -8.76  2.34  8.46
Si 12.35  0.98  0.57
Si -6.34 10.66  0.57
Si -8.85 -8.70  0.57
Si -2.21 -5.79 10.78
Si -10.75  1.22 -6.17
Si -2.87 -7.38  9.62
Si  9.11 -0.89  8.46
Si  8.94 -8.66 -0.59
Si -3.58 -5.10 -10.81
Si  6.64  9.26 -5.11
Si  9.93 -1.98 -7.33
Si  7.12 -3.53 -9.65
Si  6.46 10.69 -0.59
Si  9.10  4.47 -7.33
Si  8.06 -7.25  6.24
Si  0.47 10.89 -6.17
Si  2.77 -5.79 10.78
Si -10.63  2.43  6.24
Si -10.02 -1.98 -7.33
Si -2.95 -2.60 11.94
Si 10.14 -4.03  6.24
Si -9.41  7.35  3.95
Si 10.29 -7.00 -1.75
Si  5.77 -8.44 -7.33
Si  4.03 -11.93  0.57
Si  1.21  3.86 11.94
Si -2.17 -11.77 -3.96
Si -7.02 -8.46 -6.17
Si -12.58  0.98  0.57
Si  1.47 12.21  2.88
Si -6.47  8.88  6.24
Si  4.12  0.63 11.94
Si -2.16 12.35 -1.75
Si -9.07 -7.22  5.09
Si -8.66 -5.68  7.30
Si  2.81 -11.77 -3.96
Si -5.84 -10.10 -5.11
Si -6.49 -1.87 -10.81
Si  6.86 -10.37  2.88
Si -4.93 -6.76 -9.65
Si 10.46  0.77  7.30
Si -1.94 -12.01  3.95
Si  2.83 12.35 -1.75
Si -9.93 -5.24 -6.17
Si  5.04 -6.76 -9.65
Si -11.48  4.12  3.95
Si -3.99 -10.48  6.24
Si  6.93  0.66 10.78
Si -2.35  9.34 -8.49
Si  1.74 10.45  7.30
Si -11.31  5.90 -1.75
Si -5.75 -8.91  7.30
Si 10.02 -5.24 -6.17
Si  2.64  9.34 -8.49
Si -9.64  7.59 -3.96
Si -5.95  3.88 10.78
Si  8.37  7.67 -6.17
Si -7.84 -3.53 -9.65
Si  8.36  2.30  9.62
Si  1.12  7.11 10.78
