500
set: 412.00  0.00  0.00
Si  0.03  0.11  0.05
Si  0.11 -2.04  0.73
Si  0.05 -0.06 -2.19
Si -1.87  1.08  0.76
Si  1.89  1.14  0.80
Si -1.75 -3.13  0.04
Si -1.82 -1.07 -2.97
Si -1.79  1.05  3.00
Si  1.75 -3.20 -0.11
Si  0.00  2.08 -3.02
Si  3.67 -0.04  0.01
Si -3.68 -0.04  0.01
Si  0.00 -2.16  2.99
Si  1.88 -1.07 -3.00
Si -1.93  3.16 -0.11
Si  1.86  1.05  3.03
Si  1.93  3.24  0.04
Si -0.05  4.16  0.73
Si -1.90 -1.15  3.62
Si  1.78  3.19 -2.20
Si -3.65  0.03 -2.23
Si -1.90 -3.18 -2.20
Si  3.63 -2.21  0.73
Si  3.70  0.03 -2.23
Si  1.78 -1.06  3.81
Si -1.90  3.10 -2.38
Si  0.03  2.15  3.77
Si -3.73 -2.21  0.73
Si  1.78 -3.27 -2.38
Si  3.54 -2.15  2.97
Si  3.54  2.10 -3.03
Si -0.14  4.22  2.97
Si -0.14 -4.27 -3.03
Si -3.81 -2.15  2.97
Si -3.81  2.10 -3.03
Si -1.78 -5.23  0.80
Si -1.78 -0.98 -5.21
Si -5.46  1.14  0.80
Si  1.81 -5.29  0.76
Si  5.49  1.08  0.76
Si  1.81 -1.04 -5.25
Si -3.63  2.06  3.81
Si -3.57  4.33  0.73
Si  3.73  2.06  3.81
Si  0.11  2.20 -5.28
Si  0.05 -4.31  3.81
Si  3.78  4.33  0.73
Si  5.42  3.16 -0.11
Si -1.93 -1.08  5.89
Si -1.75  1.12 -5.96
Si -5.42  3.24  0.04
Si -5.47 -1.07 -3.00
Si -0.00  6.33  0.01
Si  3.68  4.21  2.99
Si -3.68  4.21  2.99
Si -1.79  5.30 -3.00
Si  1.86  5.30 -2.97
Si -5.50  1.05  3.03
Si -0.00  2.09  6.01
Si -0.00 -2.16 -5.99
Si  5.54 -1.07 -2.97
Si -1.82 -5.32  3.03
Si  1.88 -5.32  3.00
Si -3.68 -4.28 -3.02
Si  3.68 -4.28 -3.02
Si -0.00 -6.40  0.01
Si  5.56  1.05  3.00
Si  5.61 -3.13  0.04
Si  1.93 -1.01  6.05
Si  1.75  1.04 -6.11
Si -5.61 -3.20 -0.11
Si  1.78  5.22  3.62
Si  5.46 -1.15  3.62
Si  5.46 -3.18 -2.20
Si  5.46  3.10 -2.38
Si  3.63  2.04 -5.28
Si  0.03 -6.34 -2.23
Si -0.05 -0.09  6.73
Si -3.65 -4.22  3.77
Si  3.70 -4.22  3.77
Si  0.02  6.39 -2.23
Si -3.73  2.04 -5.28
Si -5.58  3.19 -2.20
Si -1.90  5.31  3.81
Si -0.05 -4.33 -5.28
Si -5.58 -1.06  3.81
Si -5.57 -3.27 -2.38
Si -3.65 -6.26  0.05
Si -3.65 -2.02 -5.95
Si  3.71 -6.26  0.05
Si  3.71 -2.02 -5.95
Si -7.33  0.11  0.05
Si  0.03 -4.14  6.06
Si  0.03  4.35 -5.95
Si  7.38  0.11  0.05
Si -3.65  2.23  6.06
Si -3.65  6.48  0.05
Si  3.71  2.23  6.06
Si  3.71  6.48  0.05
Si -7.25 -2.04  0.73
Si -3.63  6.31 -2.19
Si -3.57 -4.17 -5.28
Si -3.57  0.08  6.73
Si -7.30 -0.06 -2.19
Si  3.73  6.31 -2.19
Si  5.57 -5.23  0.80
Si  5.57 -0.98 -5.21
Si -1.87 -3.16  6.76
Si -5.54 -5.29  0.76
Si -3.62 -6.43 -2.19
Si  1.81  3.21  6.76
Si -5.54 -1.04 -5.25
Si  1.81  7.45  0.76
Si -1.87  5.33 -5.25
Si  1.89 -3.11  6.80
Si  3.78 -4.17 -5.28
Si  7.41 -0.06 -2.19
Si  3.78  0.08  6.73
Si  1.89  5.38 -5.21
Si  3.73 -6.43 -2.19
Si -1.78  3.26  6.80
Si -1.78  7.51  0.80
Si  7.46 -2.04  0.73
Si  5.42 -1.08  5.89
Si  1.75  5.29  5.89
Si  1.93 -5.25 -5.96
Si -5.42 -1.01  6.05
Si -5.50  5.30 -2.97
Si  3.67  4.21 -5.99
Si -3.68  4.21 -5.99
Si -5.47 -5.32  3.00
Si -7.35  2.08 -3.02
Si  7.35  2.08 -3.02
Si -1.82  7.42  3.03
Si  1.88  7.42  3.00
Si -1.79 -7.44 -3.00
Si  1.86 -7.44 -2.97
Si -7.35 -2.16  2.99
Si  7.35 -2.16  2.99
Si  5.56  5.30 -3.00
Si  3.67 -4.28  6.01
Si -3.68 -4.28  6.01
Si  5.54 -5.32  3.03
Si  5.61  1.12 -5.96
Si -1.75  5.36  6.05
Si -1.93 -5.33 -6.11
Si -5.61  1.04 -6.11
Si  7.30  4.16  0.73
Si -5.57  5.22  3.62
Si -1.90  1.07 -8.20
Si  0.03 -2.10 -8.23
Si  5.46  5.31  3.81
Si -7.33  2.15  3.77
Si -7.41  4.16  0.73
Si  1.78 -7.51  3.62
Si -1.90 -7.42  3.81
Si  7.38  2.15  3.77
Si -0.05 -8.58  0.73
Si  1.78  0.98 -8.38
Si  7.22  4.22  2.97
Si  7.22 -4.27 -3.03
Si -0.14 -0.03  8.98
Si -0.14  8.47 -3.03
Si -0.14 -8.52  2.97
Si -0.14 -0.03 -9.04
Si -7.49  4.22  2.97
Si -7.49 -4.27 -3.03
Si -3.57 -8.41  0.73
Si  0.05  4.18 -8.20
Si  1.89 -7.35 -5.21
Si  0.11 -6.29  6.73
Si -3.62 -2.18 -8.20
Si -7.25  2.20 -5.28
Si  0.05  8.43  3.81
Si  3.79 -8.41  0.73
Si -5.46 -3.11  6.80
Si  5.49 -3.16  6.76
Si -1.87 -7.41 -5.25
Si  3.73 -2.18 -8.20
Si -5.46  5.38 -5.21
Si  5.49  5.33 -5.25
Si -7.30 -4.31  3.81
Si -5.54  3.21  6.76
Si -9.22  1.08  0.76
Si -5.54  7.45  0.76
Si  0.11  6.45  6.73
Si  9.25  1.14  0.80
Si  7.41 -4.31  3.81
Si  5.57  3.26  6.80
Si  5.57  7.51  0.80
Si  7.46  2.20 -5.28
Si -5.42 -5.25 -5.96
Si -9.10 -3.13  0.04
Si  9.10 -3.20 -0.11
Si  1.75 -7.45  5.89
Si -9.15  1.05  3.00
Si -1.82  3.17 -8.97
Si  1.75  9.53 -0.11
Si  1.93 -9.50  0.04
Si -5.47  7.42  3.00
Si -1.75 -7.38  6.05
Si  3.68  8.45 -3.02
Si -3.68  8.45 -3.02
Si -9.17 -1.07 -2.97
Si  7.35  6.33  0.01
Si -5.61  5.29  5.89
Si  1.86 -3.19 -8.97
Si -7.36  6.33  0.01
Si -5.49 -7.44 -2.97
Si  3.68 -0.04  8.99
Si -3.68 -0.04  8.99
Si -1.79 -3.20  9.01
Si -1.79 -3.20 -9.01
Si  7.35  2.09  6.01
Si  7.35 -2.16 -5.99
Si -7.36  2.09  6.01
Si -7.36 -2.16 -5.99
Si  1.88  3.17  9.01
Si  1.88  3.17 -9.01
Si -3.68 -0.04 -9.02
Si  3.68 -0.04 -9.02
Si  5.54  7.42  3.03
Si -1.82  3.17  9.04
Si  7.35 -6.40  0.01
Si -7.36 -6.40  0.01
Si  9.21  1.05  3.03
Si -3.68 -8.53  2.99
Si  5.43 -5.33 -6.11
Si  3.68 -8.53  2.99
Si  1.93  7.49 -5.96
Si  5.56 -7.44 -3.00
Si  1.86 -3.19  9.04
Si -1.75  9.61  0.04
Si -1.93 -9.57 -0.11
Si  9.24 -1.07 -3.00
Si -1.93  7.41 -6.11
Si -9.28  3.16 -0.11
Si  9.29  3.24  0.04
Si  5.61  5.36  6.05
Si  1.78  0.98  9.63
Si  3.63  6.28  6.73
Si  5.46  1.07 -8.20
Si  9.13  3.19 -2.20
Si  1.78  9.47 -2.38
Si -0.05  8.40 -5.28
Si  1.78 -5.30 -8.20
Si  7.30 -0.09  6.73
Si -3.73  6.28  6.73
Si -7.33 -6.34 -2.23
Si  9.13 -1.06  3.81
Si  1.78 -9.55 -2.20
Si -3.65  4.27 -8.23
Si  5.46 -7.42  3.81
Si -7.33  6.39 -2.23
Si  7.38 -6.34 -2.23
Si  3.70  4.27 -8.23
Si -1.90  9.56 -2.20
Si  9.13 -3.27 -2.38
Si  7.30 -4.33 -5.28
Si -9.25 -1.15  3.62
Si  0.03 -2.10  9.78
Si  3.63 -6.46  6.73
Si -3.65  8.52  3.77
Si -7.40 -0.09  6.73
Si  7.38  6.39 -2.23
Si  3.70  8.52  3.77
Si -9.25 -3.18 -2.20
Si -5.57 -7.51  3.62
Si -9.25  3.10 -2.38
Si -3.73 -6.46  6.73
Si -1.90  1.07  9.81
Si -7.40 -4.33 -5.28
Si -1.90 -9.64 -2.38
Si -5.57  0.98 -8.38
Si -1.90 -5.39 -8.38
Si  0.03 -8.38 -5.95
Si -7.32 -4.14  6.06
Si -7.33  4.35 -5.95
Si  7.38 -4.14  6.06
Si  7.38  4.35 -5.95
Si  0.03  8.60  6.06
Si -5.46 -7.35 -5.21
Si -9.14 -5.23  0.80
Si -9.14 -0.98 -5.21
Si  9.16 -5.29  0.76
Si  5.49 -7.41 -5.25
Si  9.16 -1.04 -5.25
Si  0.05  4.18  9.81
Si -3.57  8.57 -5.28
Si -3.63 -2.18  9.81
Si  0.11 10.69  0.73
Si  3.73 -2.18  9.81
Si  3.78  8.57 -5.28
Si -9.10  1.12 -5.96
Si -5.42 -9.50  0.04
Si -9.15  5.30 -3.00
Si -0.00 10.58  2.99
Si -5.42  7.49 -5.96
Si -5.50 -3.19 -8.97
Si -0.00  6.33  8.99
Si  5.43 -9.57 -0.11
Si -5.47  3.17  9.01
Si -5.47  3.17 -9.01
Si  3.67  8.46  6.01
Si -3.68  8.46  6.01
Si  5.54  3.17 -8.97
Si  9.10  1.04 -6.11
Si -0.00  6.33 -9.02
Si -9.17 -5.32  3.03
Si 11.03 -0.04  0.01
Si -5.61 -7.45  5.89
Si  5.42  7.41 -6.11
Si -11.03 -0.04  0.01
Si  9.21  5.30 -2.97
Si  0.00 -6.41  8.99
Si -5.50 -3.19  9.04
Si -9.28 -1.08  5.89
Si  3.67 -8.53 -5.99
Si -3.68 -8.53 -5.99
Si  5.56 -3.20  9.01
Si  5.56 -3.20 -9.01
Si -5.61  9.53 -0.11
Si  0.00 -6.41 -9.02
Si  5.54  3.17  9.04
Si  5.61 -7.38  6.05
Si  0.00 -10.65 -3.02
Si  9.24 -5.32  3.00
Si  5.61  9.61  0.04
Si  9.29 -1.01  6.05
Si  9.13  5.22  3.62
Si  3.63 10.53  0.73
Si -5.57  0.98  9.63
Si -3.73 10.53  0.73
Si -1.90 -5.39  9.63
Si  1.78  7.44 -8.20
Si -7.33 -2.10 -8.23
Si  5.46  9.56 -2.20
Si 10.98 -2.21  0.73
Si -11.01  0.03 -2.23
Si -5.57  9.47 -2.38
Si  0.03 -10.59  3.77
Si -5.57 -5.30 -8.20
Si  7.38 -2.10 -8.23
Si -5.57 -9.55 -2.20
Si  5.46  1.07  9.81
Si 11.06  0.03 -2.23
Si -3.65  4.27  9.78
Si -0.05 -0.09 -11.28
Si  7.30 -8.58  0.73
Si  1.78 -5.30  9.81
Si  3.70  4.27  9.78
Si -1.90  7.34 -8.38
Si -11.08 -2.21  0.73
Si -9.25  5.31  3.81
Si  5.46 -9.64 -2.38
Si -7.40 -8.58  0.73
Si  5.46 -5.39 -8.38
Si 10.89 -2.15  2.97
Si 10.89  2.10 -3.03
Si  7.22 -0.03  8.98
Si  7.22  8.47 -3.03
Si  3.54  6.34  8.98
Si  7.22 -8.52  2.97
Si  3.54 10.59  2.97
Si  7.22 -0.03 -9.04
Si  3.54 -6.39  8.98
Si  3.54  6.34 -9.04
Si  3.54 -10.64 -3.03
Si  3.54 -6.39 -9.04
Si -3.81  6.34  8.98
Si -3.82 10.59  2.97
Si -3.81 -6.39  8.98
Si -3.81  6.34 -9.04
Si -7.49 -0.03  8.98
Si -3.81 -10.64 -3.03
Si -7.49  8.47 -3.03
Si -3.81 -6.39 -9.04
Si -7.25 -6.29  6.73
Si -7.49 -8.52  2.97
Si -7.49 -0.03 -9.04
Si -7.30  4.18 -8.20
Si -11.17 -2.15  2.97
Si -11.17  2.10 -3.03
Si -10.93  4.33  0.73
Si  1.89 -11.60  0.80
Si  0.11 -10.53 -5.28
Si  1.89 -3.11 -11.21
Si -7.30  8.43  3.81
Si -1.78 -9.47  6.80
Si -10.98  2.06  3.81
Si -7.25  6.45  6.73
Si -1.78  3.26 -11.21
Si  7.41  4.18 -8.20
Si  1.81 -9.53  6.76
Si -1.87 -11.65  0.76
Si -3.57  0.08 -11.28
Si  9.16  3.21  6.76
Si -1.87 -3.16 -11.25
Si  9.16  7.45  0.76
Si  1.81  3.21 -11.25
Si  0.05 -8.55 -8.20
Si -9.14  3.26  6.80
Si  7.40  8.43  3.81
Si -9.14  7.51  0.80
Si  7.46 -6.29  6.73
Si -9.22 -3.16  6.76
Si -1.87  9.57  6.76
Si -9.22  5.33 -5.25
Si  9.25 -3.11  6.80
Si  3.78  0.08 -11.28
Si 11.08  2.06  3.81
Si  9.25  5.38 -5.21
Si -3.62 -10.68  3.81
Si  3.73 -10.68  3.81
Si  7.46  6.45  6.73
Si  1.89  9.63  6.80
Si 11.14  4.33  0.73
Si  9.10  5.29  5.89
Si  1.75  1.04 11.90
Si -0.00 10.58 -5.99
Si  1.93 -1.01 -11.96
Si -9.15 -7.44 -3.00
Si -9.10  5.36  6.05
Si -1.82 11.66 -2.97
Si -0.00  2.09 -12.00
Si 11.03  4.21  2.99
Si -11.03  4.21  2.99
Si -9.17  7.42  3.03
Si  1.88 11.66 -3.00
Si -1.79 -11.69  3.00
Si  9.21 -7.44 -2.97
Si -11.03 -4.28 -3.02
Si -0.00 -2.16 12.02
Si 11.03 -4.28 -3.02
Si  1.86 -11.69  3.03
Si  9.29 -5.25 -5.96
Si  9.24  7.42  3.00
Si -1.75  1.12 12.05
Si -0.00 -10.65  6.01
Si -1.90  7.34  9.63
Si -1.90 11.59  3.62
Si  5.46 -5.39  9.63
Si -1.93 -1.08 -12.12
Si  7.30  8.40 -5.28
Si -9.28 -5.33 -6.11
Si 10.98  2.04 -5.28
Si -3.65 -8.47 -8.23
Si  9.14 -7.51  3.62
Si  3.70 -8.47 -8.23
Si -11.01 -4.22  3.77
Si -7.41  8.40 -5.28
Si -5.58  7.44 -8.20
Si -7.33 -2.10  9.78
Si -9.25  1.07 -8.20
Si  5.46  7.34 -8.38
Si  1.78 11.68  3.81
Si 11.06 -4.22  3.77
Si  7.38 -2.10  9.78
Si  9.13  0.98 -8.38
Si  1.78  7.43  9.81
Si -11.08  2.04 -5.28
Si -9.25 -7.42  3.81
Si -5.58 -5.30  9.81
Si  3.63 -10.70 -5.28
Si -3.73 -10.70 -5.28
Si -7.32 -8.38 -5.95
Si  0.03 -12.63  0.05
Si  0.03 -4.14 -11.96
Si -11.00 -6.26  0.05
Si  7.38 -8.38 -5.95
Si -3.65 -10.51  6.06
Si -11.00 -2.02 -5.95
Si  3.71 -10.51  6.06
Si -3.65  2.23 -11.96
Si 11.06 -6.26  0.05
Si  3.71  2.23 -11.96
Si 11.06 -2.02 -5.95
Si -11.00  2.23  6.06
Si -3.65 -2.02 12.06
Si -11.00  6.48  0.05
Si  3.71 -2.02 12.06
Si -3.65 10.72 -5.95
Si 11.06  2.23  6.06
Si  3.71 10.72 -5.95
Si 11.06  6.48  0.05
Si -7.33  8.60  6.06
Si  0.03  4.35 12.06
Si -10.92 -4.17 -5.28
Si -10.92  0.08  6.73
Si -5.46 -11.60  0.80
Si  0.03 12.84  0.05
Si  7.38  8.60  6.06
Si -5.46 -3.11 -11.21
Si -10.98  6.31 -2.19
Si  0.05 12.68 -2.19
Si -12.81  1.14  0.80
Si  5.49 -11.65  0.76
Si 12.84  1.08  0.76
Si  5.49 -3.16 -11.25
Si -10.98 -6.43 -2.19
