500
set: 1247.00  0.00  0.00
Si  0.66 -0.56 -0.31
Si  0.25  0.96  1.55
Si -1.46 -1.55 -1.09
Si -2.16  1.11  1.46
Si  2.17  0.56 -1.89
Si  1.35  2.76  0.32
Si  1.50 -2.84  0.23
Si -3.30  0.18 -0.25
Si  0.79  2.90 -1.88
Si  1.52  0.05  3.35
Si -1.93 -3.25  0.17
Si  1.47 -2.19  2.79
Si -1.48 -1.63 -3.34
Si -1.41  2.35 -3.00
Si -3.34  2.33 -1.41
Si  4.19  1.17 -1.12
Si -3.14  0.01  3.22
Si  3.73  2.35  1.01
Si -1.27  0.38 -4.39
Si  0.14 -4.61 -0.16
Si -2.11  3.68  1.82
Si -2.53 -2.33  3.21
Si  2.30 -0.50 -4.13
Si  3.58  1.06  3.02
Si  0.04  4.81  1.52
Si -0.51 -3.00  4.07
Si  3.82 -3.53  0.49
Si  1.01  2.96 -4.54
Si -3.90 -3.49  1.76
Si -0.21 -2.95 -4.68
Si  0.89  0.82 -5.42
Si  5.52 -0.50 -0.54
Si  5.11 -1.82  1.42
Si -5.58 -0.50 -0.54
Si -3.68  4.32  0.06
Si  2.29 -2.89 -4.47
Si -3.55 -2.50 -3.86
Si  0.55  5.39 -2.10
Si  0.89  0.82  5.69
Si  2.54 -4.52 -2.67
Si -3.57 -4.54 -0.91
Si -2.80  1.49  5.01
Si  4.47  3.43 -1.87
Si -5.34 -1.66 -2.39
Si  0.55 -5.71 -2.10
Si  3.00 -3.16  4.28
Si -2.48  3.73  4.23
Si  4.61 -0.66 -4.14
Si -0.99 -5.02 -3.71
Si  0.21 -5.19  3.66
Si  4.81 -3.91 -1.53
Si  5.54 -0.38  3.18
Si -5.56 -0.38  3.18
Si -4.74  2.81 -3.29
Si -5.99 -1.82  1.42
Si  5.76 -1.66 -2.39
Si  0.04 -6.30  1.52
Si  0.14  6.49 -0.16
Si  5.10  4.12  0.31
Si -3.51 -4.76 -3.06
Si -1.27  0.38  6.72
Si -2.80  1.49 -6.10
Si  0.21  5.91  3.66
Si  4.50  2.87  4.49
Si -3.98 -3.18  4.88
Si -0.21 -2.95  6.42
Si  3.78  4.83 -3.54
Si  4.16 -5.39  1.96
Si  4.97 -2.00  4.66
Si -6.92  1.17 -1.12
Si -0.60  4.51  5.54
Si -0.60  4.51 -5.56
Si -0.99  6.09 -3.71
Si  2.81  3.96 -5.39
Si  1.01  2.96  6.56
Si -6.01  4.12  0.31
Si  4.16  5.72  1.96
Si  2.30 -0.50  6.97
Si  2.74  5.55  4.08
Si  2.74 -5.55  4.08
Si -5.24  1.49 -5.15
Si  2.81  3.96  5.72
Si -3.57  6.56 -0.91
Si  2.54  6.59 -2.67
Si -6.30 -3.91 -1.53
Si  2.29 -2.89  6.63
Si -4.91 -4.88  3.27
Si -0.51 -3.00 -7.04
Si  6.36  2.81 -3.29
Si -6.64  3.43 -1.87
Si -3.68 -6.78  0.06
Si -6.50 -0.66 -4.14
Si  7.81  0.18 -0.25
Si -7.38  2.35  1.01
Si -3.51  6.35 -3.06
Si  1.52  0.05 -7.76
Si -2.11 -7.42  1.82
Si  5.86  1.49 -5.15
Si -6.13 -2.00  4.66
Si -3.98 -3.18 -6.23
Si -4.73  4.49  4.74
Si -1.48 -1.63  7.76
Si -5.24  1.49  5.96
Si -1.93  7.85  0.17
Si  3.00 -3.16 -6.83
Si -7.29 -3.53  0.49
Si -5.00  4.90 -4.15
Si  3.78 -6.28 -3.54
Si -7.53  1.06  3.02
Si  7.21 -3.49  1.76
Si -2.48  3.73 -6.87
Si  7.77  2.33 -1.41
Si  4.61 -0.66  6.97
Si  4.97 -2.00 -6.44
Si  1.50  8.27  0.23
Si -3.55 -2.50  7.25
Si  0.79 -8.20 -1.88
Si  1.35 -8.35  0.32
Si -6.60  2.87  4.49
Si  5.86  1.49  5.96
Si -3.14  0.01 -7.89
Si  3.82  7.58  0.49
Si  4.50  2.87 -6.62
Si  6.20 -4.88  3.27
Si -1.41  2.35  8.11
Si -4.91  6.22  3.27
Si  7.96  0.01  3.22
Si  7.43  4.32  0.06
Si -2.53 -2.33 -7.90
Si -0.60 -6.60  5.54
Si -0.60 -6.60 -5.56
Si  5.10 -6.99  0.31
Si  1.47 -2.19 -8.32
Si -3.90  7.62  1.76
Si  4.81  7.19 -1.53
Si  7.53 -4.54 -0.91
Si  7.56 -2.50 -3.86
Si -2.48 -7.37  4.23
Si  6.11  4.90 -4.15
Si  3.58  1.06 -8.08
Si -5.00 -6.21 -4.15
Si -0.99 -5.02  7.40
Si -6.95 -5.39  1.96
Si  4.47 -7.68 -1.87
Si -0.51  8.10  4.07
Si  0.21 -5.19 -7.45
Si -4.73  4.49 -6.37
Si -6.13 -2.00 -6.44
Si  6.37  4.49  4.74
Si  8.95  1.11  1.46
Si -8.94  0.56 -1.89
Si  7.13 -3.18  4.88
Si -6.95  5.72  1.96
Si -6.01 -6.99  0.31
Si -1.41 -8.76 -3.00
Si  2.74  5.55 -7.03
Si  2.74 -5.55 -7.03
Si  6.20  6.22  3.27
Si  1.01 -8.14 -4.54
Si  2.81 -7.15 -5.39
Si -0.21  8.15 -4.68
Si -4.73 -6.62  4.74
Si  8.57 -2.33  3.21
Si  1.47  8.91  2.79
Si -7.33  4.83 -3.54
Si  7.60 -4.76 -3.06
Si  2.17  0.56  9.21
Si -3.34 -8.77 -1.41
Si  0.21  5.91 -7.45
Si  3.00  7.94  4.28
Si -6.50 -0.66  6.97
Si -4.74  2.81  7.82
Si  3.73 -8.75  1.01
Si  2.81 -7.15  5.72
Si  0.25  0.96 -9.56
Si  2.29  8.21 -4.47
Si -0.99  6.09  7.40
Si  6.11 -6.21 -4.15
Si -2.53  8.77  3.21
Si -6.30  7.19 -1.53
Si  5.54 -0.38 -7.93
Si -8.10 -3.16  4.28
Si -5.56 -0.38 -7.93
Si  0.79  2.90  9.22
Si -1.46  9.55 -1.09
Si  9.17 -3.25  0.17
Si  3.78  4.83  7.56
Si -8.81 -0.50 -4.13
Si -6.60  2.87 -6.62
Si  8.31  1.49  5.01
Si  9.65 -1.55 -1.09
Si -5.00  4.90  6.96
Si  8.99  3.68  1.82
Si  2.54 -4.52  8.43
Si -2.16  1.11 -9.64
Si -3.51 -4.76  8.04
Si  7.13 -3.18 -6.23
Si -9.60 -2.84  0.23
Si  7.53  6.56 -0.91
Si -8.57 -4.52 -2.67
Si  7.43 -6.78  0.06
Si  6.37  4.49 -6.37
Si -3.55  8.61 -3.86
Si -4.74 -8.30 -3.29
Si -3.98  7.92  4.88
Si -9.75  2.76  0.32
Si -9.59  0.05  3.35
Si -1.48  9.48 -3.34
Si -2.11  3.68 -9.29
Si -1.46 -1.55 10.02
Si  0.25 -10.14  1.55
Si -9.64 -2.19  2.79
Si -7.33 -6.28 -3.54
Si -8.81 -2.89 -4.47
Si  8.62  3.73  4.23
Si  9.62 -1.63 -3.34
Si -6.64 -7.68 -1.87
Si -2.16 -10.00  1.46
Si -4.73 -6.62 -6.37
Si  6.37 -6.62  4.74
Si -5.34 -1.66  8.72
Si  7.60  6.35 -3.06
Si -2.48 -7.37 -6.87
Si -0.21  8.15  6.42
Si  4.50 -8.24  4.49
Si  8.31  1.49 -6.10
Si  9.70  2.35 -3.00
Si -4.91 -4.88 -7.83
Si  6.36  2.81  7.82
Si -10.45 -0.56 -0.31
Si  6.11  4.90  6.96
Si  1.01 -8.14  6.56
Si  0.55  5.39  9.01
Si -3.34  2.33  9.70
Si -7.29  7.58  0.49
Si  3.78 -6.28  7.56
Si  0.66 10.54 -0.31
Si -5.00 -6.21  6.96
Si  5.76 -1.66  8.72
Si  7.21  7.62  1.76
Si -8.29  3.96 -5.39
Si  0.55 -5.71  9.01
Si  5.11  9.29  1.42
Si -3.90 -3.49 -9.35
Si  0.04  4.81 -9.58
Si -0.51  8.10 -7.04
Si  7.56 -2.50  7.25
Si  9.83  0.38 -4.39
Si  2.29  8.21  6.63
Si -8.29  3.96  5.72
Si  4.47  3.43  9.24
Si -3.51  6.35  8.04
Si -3.98  7.92 -6.23
Si  0.66 -0.56 10.80
Si -8.36  5.55  4.08
Si -8.36 -5.55  4.08
Si  4.19 -9.94 -1.12
Si -10.32  2.90 -1.88
Si  4.19  1.17  9.98
Si  3.00  7.94 -6.83
Si  2.17 -10.55 -1.89
Si  6.36 -8.30 -3.29
Si  2.54  6.59  8.43
Si -10.85  0.96  1.55
Si  3.73  2.35 -10.10
Si -8.10 -3.16 -6.83
Si  3.58 -10.04  3.02
Si -7.53  1.06 -8.08
Si  5.11 -1.82 -9.69
Si -5.34  9.44 -2.39
Si  6.20 -4.88 -7.83
Si -8.57  6.59 -2.67
Si -5.99  9.29  1.42
Si -4.91  6.22 -7.83
Si  6.11 -6.21  6.96
Si  6.37 -6.62 -6.37
Si -2.80 -9.62  5.01
Si  7.96  0.01 -7.89
Si  1.35  2.76 -10.78
Si -8.81 -0.50  6.97
Si  5.76  9.44 -2.39
Si  1.50 -2.84 -10.87
Si -3.30  0.18 10.86
Si  4.97  9.11  4.66
Si  4.16 -5.39 -9.15
Si -8.81 -2.89  6.63
Si  4.81 -3.91  9.58
Si -3.30 -10.92 -0.25
Si  0.66 -0.56 -11.41
Si -10.09  2.96 -4.54
Si  0.04 -6.30 -9.58
Si -6.60 -8.24  4.49
Si  4.50 -8.24 -6.62
Si -7.38 -8.75  1.01
Si 11.36  0.96  1.55
Si -5.99 -1.82 -9.69
Si  4.16  5.72 -9.15
Si -1.93 -3.25 -10.93
Si -7.33  4.83  7.56
Si -10.21  0.82 -5.42
Si  2.30 10.61 -4.13
Si  8.62  3.73 -6.87
Si  1.52 -11.05  3.35
Si  0.89 -10.29 -5.42
Si -1.27 -10.73 -4.39
Si  0.66 -11.67 -0.31
Si -10.21  0.82  5.69
Si  7.13  7.92  4.88
Si -3.57 -4.54 10.20
Si -2.80 -9.62 -6.10
Si 10.60 -3.00  4.07
Si  1.52 11.16  3.35
Si -3.30 11.29 -0.25
Si  6.20  6.22 -7.83
Si 11.76 -0.56 -0.31
Si  1.50 -2.84 11.34
Si  0.89 -10.29  5.69
Si -3.55  8.61  7.25
Si  7.77 -8.77 -1.41
Si  8.99 -7.42  1.82
Si  3.82 -3.53 -10.62
Si -3.30  0.18 -11.36
Si  1.35  2.76 11.43
Si  0.14 -4.61 10.95
Si -6.64  3.43  9.24
Si 10.12 -5.02 -3.71
Si  8.57 -2.33 -7.90
Si -10.96 -4.61 -0.16
Si -1.93 -3.25 11.28
Si  9.83  0.38  6.72
Si -6.13  9.11  4.66
Si  5.52 -0.50 10.57
Si -5.58 -0.50 10.57
Si  5.52 10.61 -0.54
Si -3.14 -11.10  3.22
Si -3.14 11.11  3.22
Si -5.58 10.61 -0.54
Si  2.17 11.67 -1.89
Si -1.41 -8.76  8.11
Si -10.56  5.39 -2.10
Si  7.60 -4.76  8.04
Si -2.53  8.77 -7.90
Si  9.17  7.85  0.17
Si -2.11 -7.42 -9.29
Si  7.56  8.61 -3.86
Si -5.24 -9.62 -5.15
Si  8.62 -7.37  4.23
Si -6.30 -3.91  9.58
Si -8.10  7.94  4.28
Si  4.61 10.45 -4.14
Si -6.92 -9.94 -1.12
Si -11.06  4.81  1.52
Si 11.25 -4.61 -0.16
Si  0.25 12.07  1.55
Si  0.14 -4.61 -11.27
Si -10.56 -5.71 -2.10
Si -6.92  1.17  9.98
Si -8.29 -7.15 -5.39
Si  4.97  9.11 -6.44
Si 10.89 -2.95 -4.68
Si 11.15  4.81  1.52
Si -8.36  5.55 -7.03
Si -8.36 -5.55 -7.03
Si -7.33 -6.28  7.56
Si  1.47  8.91 -8.32
Si  7.21 -3.49 -9.35
Si -9.59  0.05 -7.76
Si -1.48  9.48  7.76
Si  7.13  7.92 -6.23
Si -4.74 -8.30  7.82
Si -8.29 -7.15  5.72
Si -1.27 11.48 -4.39
Si  0.79 -8.20  9.22
Si 10.12  6.09 -3.71
Si -1.46 -1.55 -12.20
Si  5.86 -9.62 -5.15
Si 11.90  2.90 -1.88
Si -10.09  2.96  6.56
Si -3.68  4.32 -11.05
Si -6.60 -8.24 -6.62
Si -5.24 -9.62  5.96
Si  9.62 -1.63  7.76
Si  5.54 10.73  3.18
Si -2.16 12.22  1.46
Si -5.56 10.73  3.18
Si -3.68  4.32 11.16
Si  2.30 -11.60 -4.13
Si -11.32 -2.95 -4.68
Si -10.90 -5.19  3.66
Si  5.10  4.12 -10.80
Si -3.57  6.56 10.20
Si  7.77  2.33  9.70
Si -11.61 -3.00  4.07
Si -3.90  7.62 -9.35
Si -9.60  8.27  0.23
Si  8.57  8.77  3.21
Si -6.95 -5.39 -9.15
Si  0.25  0.96 12.65
Si -12.56 -1.55 -1.09
Si  3.82 -3.53 11.60
Si 10.51  4.51  5.54
Si 10.51  4.51 -5.56
Si -1.27 -10.73  6.72
Si -7.38  2.35 -10.10
Si  0.14  6.49 10.95
Si -6.13  9.11 -6.44
Si  5.86 -9.62  5.96
Si -10.96  6.49 -0.16
Si  7.60  6.35  8.04
Si 12.46  2.76  0.32
Si -1.46 -12.66 -1.09
Si -2.16  1.11 12.57
Si  4.47 -7.68  9.24
Si -11.06 -6.30  1.52
Si -6.95  5.72 -9.15
Si -8.57 -4.52  8.43
Si -9.75 -8.35  0.32
Si -8.94  0.56  9.21
Si -8.81  8.21 -4.47
Si  9.70  2.35  8.11
Si  5.52 -11.61 -0.54
Si -5.58 -11.61 -0.54
Si  3.73  2.35 12.12
Si 11.15 -6.30  1.52
Si  5.52 -0.50 -11.64
Si  2.30 10.61  6.97
Si  4.81  7.19  9.58
Si -7.53 -10.04  3.02
Si -9.64 -2.19 -8.32
Si -5.58 -0.50 -11.64
Si -10.90  5.91  3.66
Si 12.61 -2.84  0.23
Si 11.31 -5.19  3.66
Si  4.19  1.17 -12.23
Si -6.50 10.45 -4.14
Si 10.89 -2.95  6.42
Si 11.25  6.49 -0.16
Si  0.14  6.49 -11.27
Si 11.65  5.39 -2.10
Si  4.19 12.28 -1.12
Si -6.01  4.12 -10.80
Si  3.58 12.17  3.02
Si  6.36 -8.30  7.82
Si 12.62  0.05  3.35
Si 12.58 -2.19  2.79
Si 10.60 -3.00 -7.04
Si -12.52  2.35 -3.00
Si  0.89 11.92 -5.42
Si -12.59 -1.63 -3.34
Si -12.38  0.38 -4.39
Si  5.54 -11.48  3.18
Si 11.65 -5.71 -2.10
Si -5.56 -11.48  3.18
Si -3.34  2.33 -12.51
Si  5.10  4.12 11.41
Si 12.00  0.82 -5.42
Si  2.17  0.56 -13.00
Si  8.95  1.11 -9.64
Si -8.10  7.94 -6.83
Si  0.89 11.92  5.69
Si -1.48 -12.73 -3.34
Si  8.62 -7.37 -6.87
Si 12.12  2.96 -4.54
Si 11.31  5.91  3.66
Si  4.61 -11.76 -4.14
Si 12.00  0.82  5.69
Si -10.32 -8.20 -1.88
Si  0.79  2.90 -12.99
Si -3.57 -4.54 -12.01
Si -11.32 -2.95  6.42
Si -7.29 -3.53 -10.62
Si -1.27 11.48  6.72
Si  7.81  0.18 10.86
Si  4.61 10.45  6.97
Si  3.58 -10.04 -8.08
Si -13.27  1.11  1.46
Si  9.70 -8.76 -3.00
Si -9.64  8.91  2.79
Si 13.28  0.56 -1.89
Si  7.81 -10.92 -0.25
Si -13.04 -3.25  0.17
Si  8.99  3.68 -9.29
Si  7.53 -4.54 10.20
Si -3.68 -6.78 -11.05
Si  8.95 -10.00  1.46
Si -3.34 -8.77  9.70
Si 10.12 -5.02  7.40
Si  0.04  4.81 12.63
Si -6.30  7.19  9.58
Si -6.01  4.12 11.41
Si  7.56  8.61  7.25
Si -3.68 -6.78 11.16
Si  1.52 -11.05 -7.76
Si 10.51 -6.60  5.54
Si  3.82  7.58 -10.62
Si 10.51 -6.60 -5.56
Si -1.93  7.85 -10.93
Si -2.11  3.68 12.92
Si -12.10 -5.02 -3.71
Si  9.65  9.55 -1.09
