500
set: 188.00  0.00  0.00
Si  0.01  0.01 -0.00
Si  1.90  1.07  0.75
Si -1.90  1.07  0.77
Si -0.02 -2.19  0.78
Si -0.01  0.00 -2.33
Si  1.86  1.08  3.07
Si -3.76  0.01  0.00
Si  1.87 -1.09 -3.08
Si -1.87 -1.11 -3.08
Si -1.86  1.07  3.10
Si -1.90 -3.26  0.00
Si -1.91  3.26  0.00
Si  0.01  2.17 -3.10
Si  1.89  3.29  0.00
Si -0.03 -2.18  3.11
Si  3.80  0.00 -0.01
Si  1.91 -3.30 -0.01
Si  0.01  2.17  3.86
Si  0.03  4.36  0.76
Si  3.77 -2.19  0.78
Si -1.90 -3.28 -2.30
Si  1.91 -1.09  3.85
Si  1.91  3.27 -2.32
Si  3.78  0.00 -2.34
Si  1.90 -3.28 -2.32
Si -1.87 -1.08  3.89
Si -1.90  3.28 -2.33
Si -3.80 -0.02 -2.34
Si -3.84 -2.17  0.80
Si -3.76 -2.16  3.06
Si  0.01  4.36  3.09
Si  3.79  2.20 -3.07
Si -3.77  2.21 -3.09
Si -0.01 -4.38 -3.08
Si  3.81 -2.16  3.11
Si  1.89 -5.44  0.79
Si -0.05  2.20 -5.39
Si -5.67  1.08  0.75
Si -3.77  2.19  3.87
Si  3.79  2.20  3.85
Si  3.79  4.36  0.78
Si  1.91 -1.09 -5.41
Si -1.88 -5.47  0.78
Si  5.69  1.08  0.75
Si -0.05 -4.36  3.89
Si -1.89 -1.08 -5.42
Si -3.79  4.40  0.79
Si  1.86 -1.11  6.16
Si -1.89 -5.44  3.08
Si  0.00  6.54  0.02
Si  5.66  3.29 -0.01
Si  1.88 -5.46  3.08
Si  0.01  2.16  6.18
Si  1.86  5.45 -3.11
Si -0.02 -6.55 -0.01
Si  5.67  1.11  3.08
Si -1.88  5.46 -3.08
Si -5.67 -1.12 -3.09
Si  3.80 -4.37 -3.08
Si -0.01 -2.17 -6.19
Si -1.88 -1.09  6.19
Si  1.88  1.10 -6.19
Si -5.69  1.11  3.08
Si -5.68 -3.29  0.02
Si -3.80  4.38  3.08
Si  5.68 -3.29  0.02
Si  5.68 -1.12 -3.09
Si  3.79  4.40  3.08
Si -1.89  1.12 -6.19
Si -5.70  3.29 -0.01
Si -3.82 -4.39 -3.11
Si  3.78 -4.35  3.86
Si -5.65 -1.08  3.88
Si  0.03 -4.36 -5.39
Si -5.66 -3.29 -2.32
Si  0.01 -6.54 -2.33
Si  0.02  6.55 -2.32
Si -3.82  2.18 -5.38
Si  1.86  5.46  3.89
Si  0.02 -0.01  6.96
Si  3.78  2.21 -5.41
Si -5.67  3.29 -2.33
Si  5.68  3.29 -2.33
Si -1.90  5.49  3.86
Si  5.70 -3.29 -2.32
Si  5.71 -1.08  3.88
Si -3.82 -4.38  3.89
Si -3.77  6.54 -0.01
Si -7.56  0.00 -0.01
Si -0.03  4.38 -6.17
Si -3.79 -6.54  0.00
Si  0.01 -4.39  6.18
Si  3.77 -6.58  0.00
Si  3.78  6.57  0.00
Si  3.81 -2.21 -6.18
Si  3.81  2.17  6.20
Si -3.81  2.18  6.19
Si  7.60  0.01  0.00
Si -3.82 -2.20 -6.20
Si  7.52 -2.17  0.80
Si  1.88  3.26  6.93
Si -1.87  5.47 -5.38
Si -1.90  3.28  6.93
Si -5.65 -5.47  0.76
Si -1.90 -3.27  6.94
Si  3.81 -4.36 -5.38
Si  3.78  6.56 -2.30
Si -3.78 -0.00  6.95
Si -5.66 -1.10 -5.42
Si -3.78  6.55 -2.32
Si  7.56 -0.02 -2.34
Si  3.78 -6.55 -2.33
Si -1.91  7.64  0.78
Si  1.84  7.66  0.80
Si -3.77 -4.37 -5.42
Si -3.77 -6.57 -2.32
Si  1.91 -3.29  6.96
Si -7.58  0.00 -2.34
Si  1.91  5.47 -5.42
Si  3.78  0.00  6.97
Si -7.59 -2.19  0.78
Si  5.69 -1.10 -5.42
Si  5.71 -5.47  0.76
Si -1.86 -5.44 -6.17
Si -7.54 -2.16  3.11
Si  1.91 -7.62 -3.09
Si -1.89 -7.64 -3.07
Si -3.77 -4.34  6.19
Si  5.67  5.45 -3.08
Si -7.57  2.20 -3.07
Si -5.67  1.08 -6.18
Si -5.69  5.45 -3.08
Si -5.67 -5.47  3.09
Si  5.67 -1.10  6.19
Si  7.59 -2.16  3.06
Si  5.69  1.08 -6.18
Si  1.92 -5.44 -6.21
Si -5.69 -1.10  6.19
Si  5.69 -5.47  3.09
Si  3.81  4.40 -6.17
Si  3.79 -4.36  6.21
Si  1.92  7.67  3.06
Si  7.59  2.21 -3.09
Si -3.76  4.40 -6.21
Si -1.89  5.47  6.21
Si -1.86  7.68  3.11
Si  1.91  5.49  6.19
Si -1.89 -7.64  3.85
Si  1.89  1.12 -8.48
Si  5.63  5.48  3.89
Si -1.88  1.09 -8.49
Si -7.56  4.36  0.78
Si -7.57  2.20  3.85
Si  1.91 -7.65  3.87
Si  0.01 -8.75  0.75
Si  7.57  4.40  0.79
Si  7.59  2.19  3.87
Si  0.01 -2.19 -8.53
Si -5.73  5.48  3.89
Si  0.01  8.71 -3.09
Si -0.01 -8.73  3.08
Si -7.56 -4.37 -3.08
Si  7.54 -4.39 -3.11
Si  7.56  4.38  3.08
Si -7.57  4.40  3.08
Si -0.02  0.01 -9.28
Si  0.00 -0.02  9.30
Si  7.54  2.18 -5.38
Si -5.65  5.47 -5.39
Si  5.65  7.64  0.78
Si  1.86 -7.66 -5.38
Si  7.54 -4.38  3.89
Si -1.90 -7.63 -5.41
Si -5.67 -3.26  6.95
Si  5.67  3.28  6.95
Si -9.46  1.07  0.75
Si -0.01 -6.55  6.95
Si  5.68 -3.26  6.95
Si -7.58 -4.35  3.86
Si -0.02  4.37 -8.50
Si  9.46  1.07  0.77
Si -5.69  3.28  6.95
Si  0.01  6.57  6.95
Si  3.78 -2.21 -8.51
Si -5.70  7.64  0.78
Si -7.58  2.21 -5.41
Si  0.03  8.75  3.88
Si  5.71  5.47 -5.39
Si  3.78 -8.76  0.77
Si -3.78 -8.77  0.75
Si -3.78 -2.21 -8.52
Si  5.65 -5.46 -6.17
Si  9.45  3.26  0.00
Si -1.86  7.63 -6.18
Si -5.66  5.45  6.18
Si -7.54 -2.21 -6.18
Si  7.54  2.18  6.19
Si -3.77 -0.02  9.26
Si  9.46 -3.26  0.00
Si -1.88  3.28  9.26
Si  7.54 -2.20 -6.20
Si -7.55  2.17  6.20
Si  3.77 -0.02 -9.27
Si  3.81  8.73 -3.08
Si  5.65  7.65  3.11
Si  7.57 -6.54  0.00
Si -9.45 -3.30 -0.01
Si -1.88 -9.83 -0.01
Si  1.86  7.64 -6.20
Si  1.92 -9.83  0.00
Si -3.79  0.01 -9.27
Si  7.59  6.54 -0.01
Si  5.69  5.45  6.18
Si  3.78  0.02  9.27
Si -1.88  9.84 -0.01
Si  1.89 -3.27  9.28
Si  1.92 -3.27 -9.27
Si  1.87 -7.65  6.19
Si -9.46  3.29  0.00
Si -5.67 -7.66 -3.10
Si -5.71 -5.46 -6.17
Si -1.90  3.29 -9.27
Si -1.88 -3.28 -9.28
Si -3.81  8.74 -3.08
Si  1.91  3.26 -9.29
Si  1.92  3.29  9.28
Si -1.91 -3.30  9.28
Si  1.92  9.85  0.00
Si -7.58  6.57  0.00
Si -3.82 -8.76  3.07
Si -1.87 -7.67  6.20
Si  9.49 -1.11 -3.08
Si  5.69 -7.66 -3.10
Si -9.49 -1.09 -3.08
Si -9.50  1.08  3.07
Si  9.49  1.07  3.10
Si -5.71  7.65  3.11
Si -7.59 -6.58  0.00
Si  3.81 -8.77  3.10
Si -7.54 -4.36 -5.38
Si  1.84 -5.45 -8.47
Si  1.88  9.81 -2.34
Si  3.78 -6.55  6.93
Si -9.45  3.27 -2.32
Si  3.77  4.37 -8.49
Si -9.45 -1.09  3.85
Si -3.77  6.54  6.96
Si  0.03 -2.19 10.03
Si  9.46 -3.28 -2.30
Si -3.77  8.74  3.85
Si  3.78  6.56  6.94
Si  0.01  8.73 -5.42
Si -5.65  1.08 -8.51
Si -9.46 -3.28 -2.32
Si -5.66 -7.66  3.86
Si -1.91 -5.47 -8.49
Si -7.58  6.56 -2.30
Si  9.46  3.28 -2.33
Si  7.58 -0.00  6.95
Si -3.80 -6.58  6.93
Si -3.84  4.38 -8.47
Si  7.58  6.55 -2.32
Si -7.58 -6.55 -2.33
Si -1.90 -9.83 -2.34
Si -1.90  9.84 -2.34
Si -1.91  1.09 10.05
Si  7.58 -4.37 -5.42
Si -7.58  0.00  6.97
Si  5.69 -7.66  3.86
Si  1.84  1.10 10.07
Si  7.58 -6.57 -2.32
Si  5.71  1.08 -8.51
Si  1.88 -9.86 -2.34
Si  3.81  8.75  3.89
Si  9.49 -1.08  3.89
Si -7.54  4.40 -6.17
Si -0.01  8.73  6.19
Si  7.59 -4.34  6.19
Si -7.57 -4.36  6.21
Si  0.01 -8.75 -6.18
Si  7.59  4.40 -6.21
Si  5.63 -7.64 -5.39
Si  0.01  4.36 10.02
Si -9.45 -1.09 -5.41
Si  0.01 10.92  0.75
Si -9.47 -5.44  0.79
Si -3.77  8.74 -5.41
Si -5.73 -7.64 -5.39
Si  9.47 -1.08 -5.42
Si  9.47 -5.47  0.78
Si  3.79 -2.19 10.05
Si -3.79 -2.16 10.06
Si  3.79  8.76 -5.42
Si -5.68  3.26 -9.25
Si  5.66 -3.27  9.26
Si  5.68  3.26 -9.25
Si -5.67 -9.82 -0.00
Si  9.46 -5.44  3.08
Si  3.79 -8.72 -6.19
Si -3.82  8.73  6.16
Si -11.35  0.01 -0.00
Si  0.00 -6.57 -9.25
Si -5.67 -3.26 -9.27
Si  0.01 -6.54  9.27
Si  5.69 -9.82 -0.00
Si -0.02  6.57  9.26
Si -5.67  3.29  9.27
Si -5.70 -3.27  9.26
Si  5.69 -3.26 -9.27
Si -3.80 -8.74 -6.19
Si -9.48 -5.46  3.08
Si  9.46  1.12 -6.19
Si -5.67  9.85 -0.00
Si  9.48  5.46 -3.08
Si  3.80  8.74  6.19
Si  0.01  6.57 -9.27
Si  5.69  3.29  9.27
Si 11.37  0.01 -0.00
Si  5.67  7.67 -6.19
Si  9.48 -1.09  6.19
Si -0.01 10.95  3.08
Si -9.48  1.10 -6.19
Si -9.50 -1.11  6.16
Si -5.67 -7.68  6.18
Si  5.69  9.85 -0.00
Si -5.69  7.67 -6.19
Si  5.68 -7.68  6.18
Si -9.50  5.45 -3.11
Si  0.01 -10.96 -3.09
Si -3.78  4.35 10.03
Si -3.78 10.90  0.75
Si 11.33 -2.19  0.78
Si  3.78 10.91  0.77
Si  3.78  4.35 10.04
Si  5.65 -5.47 -8.50
Si  5.65  1.09 10.05
Si 11.35  0.00 -2.33
Si -1.90  7.63 -8.51
Si  1.90 -5.49 10.03
Si  5.67 -9.83 -2.33
Si  0.03 -10.92  3.88
Si  5.67  9.84 -2.33
Si  1.90  7.62 -8.52
Si  9.46  5.49  3.86
Si -1.90 -5.49 10.04
Si -5.69 -9.83 -2.33
Si  0.01  0.01 -11.60
Si -5.69  9.84 -2.33
Si -7.57 -2.21 -8.51
Si -5.70 -5.47 -8.50
Si -11.37  0.00 -2.33
Si -5.70  1.09 10.05
Si -7.57 -8.76  0.77
Si  7.58 -8.77  0.75
Si  7.58 -2.21 -8.52
Si -11.38 -2.19  0.78
Si -9.50  5.46  3.89
Si -7.55  8.73 -3.08
Si 11.32 -2.18  3.11
Si  7.54  8.74 -3.08
Si  7.54 -8.76  3.07
Si -11.34  2.17 -3.10
Si  3.77  6.54  9.28
Si  3.78 -6.54 -9.27
Si  3.81 10.90  3.10
Si -3.76 -6.55  9.28
Si -3.82 10.92  3.07
Si  3.80 -6.55  9.26
Si -3.76  6.57 -9.27
Si  7.57  0.01 -9.27
Si  7.59 -0.02  9.26
Si -7.54 -8.77  3.10
Si -7.58  0.02  9.27
Si -3.81 -10.93 -3.08
Si -3.79  6.57  9.28
Si -7.59 -0.02 -9.27
Si 11.37  2.17 -3.10
Si  3.80  6.56 -9.28
Si -3.77 -6.58 -9.29
Si  3.81 -10.95 -3.08
Si -11.39 -2.18  3.11
Si  7.52  4.38 -8.47
Si -11.33  4.36  0.76
Si -11.34  2.17  3.86
Si  1.84 -12.01  0.80
Si  9.46  3.28  6.93
Si -1.90  3.28 -11.57
Si  9.45  7.64  0.78
Si  9.46 -3.27  6.94
Si -9.48  3.26  6.93
Si  7.56 -6.58  6.93
Si -7.58 -6.55  6.93
Si -3.77 -10.93  3.85
Si -9.45 -3.29  6.96
Si -3.77 -0.01 -11.59
Si  1.90  9.83  6.95
Si -9.45  5.47 -5.42
Si -7.58  6.56  6.94
Si -7.54  8.75  3.89
Si  7.58  6.54  6.96
Si -7.59  4.37 -8.49
Si  1.90 -9.84  6.95
Si  1.90  3.28 -11.60
Si  7.58  8.74  3.85
Si  3.81 -10.92  3.89
Si -1.91 -12.03  0.78
Si 11.37  2.17  3.86
Si -1.90 -9.84  6.97
Si -1.90  9.84  6.97
Si  3.78  0.01 -11.61
Si  9.49  5.47 -5.38
Si  0.01 -10.94 -5.42
Si  0.03 -8.75 -8.51
Si -1.90 -3.28 -11.61
Si 11.39  4.36  0.76
Si  1.88 -3.30 -11.62
Si -9.52  7.66  0.80
Si -9.45 -7.62 -3.09
Si -1.86 -11.99  3.11
Si -1.89 -1.08 -12.34
Si  1.92 -12.00  3.06
Si  1.92  1.12 12.34
Si -9.44 -5.44 -6.21
Si -11.35  4.36  3.09
Si -0.01  2.17 -12.35
Si  0.01 10.92 -6.18
Si -9.44  7.67  3.06
Si  9.47 -7.64 -3.07
Si 11.35 -4.38 -3.08
Si  1.91 -1.06 -12.36
Si -9.45  5.49  6.19
Si  9.49 -5.44 -6.17
Si -1.89 12.03 -3.07
Si  0.01 -2.20 12.37
Si 11.37  4.36  3.09
Si -11.37 -4.38 -3.08
Si -1.86  1.12 12.38
Si -0.01 -10.94  6.19
Si  9.47  5.47  6.21
Si  1.91 12.05 -3.09
Si  9.49  7.68  3.11
Si 11.31  2.20 -5.39
Si 11.31 -4.36  3.89
Si -3.79 -8.72 -8.48
Si -5.67 -5.47 10.02
Si  5.69 -5.47 10.02
Si -9.45 -7.65  3.87
Si -9.47  1.12 -8.48
Si  9.47 -7.64  3.85
Si -3.77 -10.93 -5.41
Si  3.79 -10.92 -5.42
Si  9.47  1.09 -8.49
Si -1.88  7.64 10.05
Si  3.79 -8.75 -8.49
Si -7.56 -2.19 10.05
Si  1.91 12.02  3.87
Si -1.89 12.03  3.85
Si  7.57 -2.16 10.06
Si -5.67  7.64 -8.53
Si  7.59  8.74 -5.41
Si -7.57  8.76 -5.42
Si  5.69  7.64 -8.53
Si  1.89  7.68 10.06
Si -11.41  2.20 -5.39
Si -11.41 -4.36  3.89
Si  7.54  8.73  6.16
Si 11.33 -6.55 -0.01
Si  3.79 -2.16 12.36
Si -7.57 -8.72 -6.19
Si -11.35  2.16  6.18
Si -11.36  6.54  0.02
Si  7.56 -8.74 -6.19
Si 11.36  6.54  0.02
Si 11.35 -2.17 -6.19
Si -3.80 -2.18 12.36
Si  3.80  2.19 -12.36
Si -0.01  4.39 12.36
Si -7.56  8.74  6.19
Si 11.36  2.16  6.18
Si  3.80 -10.93  6.19
Si -11.37 -2.17 -6.19
Si -0.02 13.12 -0.01
Si -3.82 -10.94  6.16
Si  0.01 -4.40 -12.37
Si -3.80 10.94 -6.19
Si -11.38 -6.55 -0.01
Si  0.00 -13.13  0.02
Si  3.79 10.95 -6.19
Si -3.82  2.17 -12.39
Si -11.33 -4.36 -5.39
Si  7.58  4.35 10.03
Si  1.86 12.02 -5.38
Si -11.34  6.55 -2.32
Si  7.58 10.90  0.75
Si -7.57 10.91  0.77
Si  9.46 -7.63 -5.41
Si -11.34 -0.01  6.96
Si -5.66  9.83  6.96
Si -7.57  4.35 10.04
Si -11.35 -6.54 -2.33
