500
set: 70.00  0.00  0.00
Si  0.00  0.00  0.00
Si  1.28  2.01  0.00
Si -1.28 -2.01  0.00
Si -0.03  0.03  2.49
Si  0.03 -0.03 -2.49
Si -1.47  2.01  0.00
Si  1.47 -2.01  0.00
Si -2.76  0.00  0.00
Si  2.76  0.00  0.00
Si  1.31  1.98 -2.49
Si -1.31 -1.98  2.49
Si -1.26 -2.03 -2.49
Si  1.26  2.03  2.49
Si  1.45 -1.98  2.49
Si -1.45  1.98 -2.49
Si -1.50  2.03  2.49
Si  1.50 -2.03 -2.49
Si  2.73  0.03  2.49
Si -2.73 -0.03 -2.49
Si -2.78  0.03  2.49
Si  2.78 -0.03 -2.49
Si -0.19  4.01  0.00
Si  0.19 -4.01  0.00
Si -4.04 -2.01  0.00
Si  4.04  2.01  0.00
Si -4.23  2.01  0.00
Si  4.23 -2.01  0.00
Si -0.16  3.98 -2.49
Si  0.16 -3.98  2.49
Si  0.21 -4.04 -2.49
Si -0.21  4.04  2.49
Si  2.57  4.01  0.00
Si -2.57 -4.01  0.00
Si -0.05  0.06  4.97
Si  0.05 -0.06 -4.97
Si -2.95  4.01  0.00
Si  2.95 -4.01  0.00
Si  4.02  2.03  2.49
Si -4.02 -2.03 -2.49
Si  4.07  1.98 -2.49
Si -4.07 -1.98  2.49
Si -4.21  1.98 -2.49
Si  4.21 -1.98  2.49
Si -4.26  2.03  2.49
Si  4.26 -2.03 -2.49
Si  2.60  3.98 -2.49
Si -2.60 -3.98  2.49
Si  2.54  4.04  2.49
Si -2.54 -4.04 -2.49
Si -1.33 -1.95  4.97
Si  1.33  1.95 -4.97
Si -5.52  0.00  0.00
Si  5.52  0.00  0.00
Si -1.24 -2.06 -4.97
Si  1.24  2.06  4.97
Si  1.43 -1.95  4.97
Si -1.43  1.95 -4.97
Si -2.92  3.98 -2.49
Si  2.92 -3.98  2.49
Si -1.52  2.06  4.97
Si  1.52 -2.06 -4.97
Si -2.97  4.04  2.49
Si  2.97 -4.04 -2.49
Si -2.71 -0.06 -4.97
Si  2.71  0.06  4.97
Si -2.81  0.06  4.97
Si  2.81 -0.06 -4.97
Si -5.49 -0.03 -2.49
Si  5.49  0.03  2.49
Si -5.54  0.03  2.49
Si  5.54 -0.03 -2.49
Si  1.10  6.02  0.00
Si -1.10 -6.02  0.00
Si  1.66 -6.02  0.00
Si -1.66  6.02  0.00
Si  0.14 -3.96  4.97
Si -0.14  3.96 -4.97
Si -0.24  4.07  4.97
Si  0.24 -4.07 -4.97
Si  1.12  5.99 -2.49
Si -1.12 -5.99  2.49
Si -1.07 -6.05 -2.49
Si  1.07  6.05  2.49
Si -5.33 -4.01  0.00
Si  5.33  4.01  0.00
Si  1.64 -5.99  2.49
Si -1.64  5.99 -2.49
Si -4.00 -2.06 -4.97
Si  4.00  2.06  4.97
Si  4.09  1.95 -4.97
Si -4.09 -1.95  4.97
Si -1.69  6.05  2.49
Si  1.69 -6.05 -2.49
Si  4.18 -1.95  4.97
Si -4.18  1.95 -4.97
Si -2.62 -3.96  4.97
Si  2.62  3.96 -4.97
Si  4.28 -2.06 -4.97
Si -4.28  2.06  4.97
Si  2.52  4.07  4.97
Si -2.52 -4.07 -4.97
Si -5.71  4.01  0.00
Si  5.71 -4.01  0.00
Si  2.90 -3.96  4.97
Si -2.90  3.96 -4.97
Si  3.00 -4.07 -4.97
Si -3.00  4.07  4.97
Si -6.80 -2.01  0.00
Si  6.80  2.01  0.00
Si  5.30  4.04  2.49
Si -5.30 -4.04 -2.49
Si  5.35  3.98 -2.49
Si -5.35 -3.98  2.49
Si  3.85  6.02  0.00
Si -3.85 -6.02  0.00
Si -6.99  2.01  0.00
Si  6.99 -2.01  0.00
Si  5.68 -3.98  2.49
Si -5.68  3.98 -2.49
Si -5.47 -0.06 -4.97
Si  5.47  0.06  4.97
Si  5.73 -4.04 -2.49
Si -5.73  4.04  2.49
Si -0.07  0.08  7.46
Si  0.07 -0.08 -7.46
Si -5.57  0.06  4.97
Si  5.57 -0.06 -4.97
Si -4.42  6.02  0.00
Si  4.42 -6.02  0.00
Si -6.78 -2.03 -2.49
Si  6.78  2.03  2.49
Si -6.83 -1.98  2.49
Si  6.83  1.98 -2.49
Si -3.88 -5.99  2.49
Si  3.88  5.99 -2.49
Si  3.83  6.05  2.49
Si -3.83 -6.05 -2.49
Si -6.97  1.98 -2.49
Si  6.97 -1.98  2.49
Si  7.02 -2.03 -2.49
Si -7.02  2.03  2.49
Si -1.36 -1.92  7.46
Si  1.36  1.92 -7.46
Si -1.40  1.92 -7.46
Si  1.40 -1.92  7.46
Si  4.40 -5.99  2.49
Si -4.40  5.99 -2.49
Si -1.21 -2.09 -7.46
Si  1.21  2.09  7.46
Si -1.15 -5.96  4.97
Si  1.15  5.96 -4.97
Si -1.55  2.09  7.46
Si  1.55 -2.09 -7.46
Si  4.45 -6.05 -2.49
Si -4.45  6.05  2.49
Si  1.05  6.07  4.97
Si -1.05 -6.07 -4.97
Si -2.69 -0.08 -7.46
Si  2.69  0.08  7.46
Si -1.61  5.96 -4.97
Si  1.61 -5.96  4.97
Si  2.83 -0.08 -7.46
Si -2.83  0.08  7.46
Si  0.38 -8.02  0.00
Si -0.38  8.02  0.00
Si  1.71 -6.07 -4.97
Si -1.71  6.07  4.97
Si -8.28  0.00  0.00
Si  8.28  0.00  0.00
Si -5.28 -4.07 -4.97
Si  5.28  4.07  4.97
Si  5.38  3.96 -4.97
Si -5.38 -3.96  4.97
Si -2.38 -8.02  0.00
Si  2.38  8.02  0.00
Si -0.35  8.00 -2.49
Si  0.35 -8.00  2.49
Si -0.12  3.93 -7.46
Si  0.12 -3.93  7.46
Si -0.40  8.05  2.49
Si  0.40 -8.05 -2.49
Si -5.66  3.96 -4.97
Si  5.66 -3.96  4.97
Si -0.26  4.10  7.46
Si  0.26 -4.10 -7.46
Si -3.14  8.02  0.00
Si  3.14 -8.02  0.00
Si  8.25  0.03  2.49
Si -8.25 -0.03 -2.49
Si -5.76  4.07  4.97
Si  5.76 -4.07 -4.97
Si -6.75 -2.06 -4.97
Si  6.75  2.06  4.97
Si  8.30 -0.03 -2.49
Si -8.30  0.03  2.49
Si  6.85  1.95 -4.97
Si -6.85 -1.95  4.97
Si  3.90  5.96 -4.97
Si -3.90 -5.96  4.97
Si -3.97 -2.09 -7.46
Si  3.97  2.09  7.46
Si -2.41 -8.00  2.49
Si  2.41  8.00 -2.49
Si -3.81 -6.07 -4.97
Si  3.81  6.07  4.97
Si  4.12  1.92 -7.46
Si -4.12 -1.92  7.46
Si  2.36  8.05  2.49
Si -2.36 -8.05 -2.49
Si -4.16  1.92 -7.46
Si  4.16 -1.92  7.46
Si  6.94 -1.95  4.97
Si -6.94  1.95 -4.97
Si  2.64  3.93 -7.46
Si -2.64 -3.93  7.46
Si  4.31 -2.09 -7.46
Si -4.31  2.09  7.46
Si -7.04  2.06  4.97
Si  7.04 -2.06 -4.97
Si  2.50  4.10  7.46
Si -2.50 -4.10 -7.46
Si  2.87 -3.93  7.46
Si -2.87  3.93 -7.46
Si -4.37  5.96 -4.97
Si  4.37 -5.96  4.97
Si  3.11 -8.00  2.49
Si -3.11  8.00 -2.49
Si -6.61 -6.02  0.00
Si  6.61  6.02  0.00
Si  3.16 -8.05 -2.49
Si -3.16  8.05  2.49
Si  8.09  4.01  0.00
Si -8.09 -4.01  0.00
Si -3.02  4.10  7.46
Si  3.02 -4.10 -7.46
Si -4.47  6.07  4.97
Si  4.47 -6.07 -4.97
Si  5.44  0.08  7.46
Si -5.44 -0.08 -7.46
Si  6.64  5.99 -2.49
Si -6.64 -5.99  2.49
Si  6.59  6.05  2.49
Si -6.59 -6.05 -2.49
Si  5.59 -0.08 -7.46
Si -5.59  0.08  7.46
Si  8.06  4.04  2.49
Si -8.06 -4.04 -2.49
Si -8.47  4.01  0.00
Si  8.47 -4.01  0.00
Si -7.18  6.02  0.00
Si  7.18 -6.02  0.00
Si -8.11 -3.98  2.49
Si  8.11  3.98 -2.49
Si  0.33 -7.97  4.97
Si -0.33  7.97 -4.97
Si -0.43  8.08  4.97
Si  0.43 -8.08 -4.97
Si -5.14 -8.02  0.00
Si  5.14  8.02  0.00
Si -1.17 -5.93  7.46
Si  1.17  5.93 -7.46
Si -8.23 -0.06 -4.97
Si  8.23  0.06  4.97
Si -7.16  5.99 -2.49
Si  7.16 -5.99  2.49
Si -8.44  3.98 -2.49
Si  8.44 -3.98  2.49
Si  1.59 -5.93  7.46
Si -1.59  5.93 -7.46
Si -1.02 -6.10 -7.46
Si  1.02  6.10  7.46
Si -8.33  0.06  4.97
Si  8.33 -0.06 -4.97
Si -2.43 -7.97  4.97
Si  2.43  7.97 -4.97
Si -8.49  4.04  2.49
Si  8.49 -4.04 -2.49
Si  7.21 -6.05 -2.49
Si -7.21  6.05  2.49
Si  2.33  8.08  4.97
Si -2.33 -8.08 -4.97
Si  9.56  2.01  0.00
Si -9.56 -2.01  0.00
Si  1.74 -6.10 -7.46
Si -1.74  6.10  7.46
Si -5.17 -8.00  2.49
Si  5.17  8.00 -2.49
Si -5.12 -8.05 -2.49
Si  5.12  8.05  2.49
Si  3.09 -7.97  4.97
Si -3.09  7.97 -4.97
Si  0.10 -0.11 -9.94
Si -0.10  0.11  9.94
Si -9.75  2.01  0.00
Si  9.75 -2.01  0.00
Si -5.90  8.02  0.00
Si  5.90 -8.02  0.00
Si -5.25 -4.10 -7.46
Si  5.25  4.10  7.46
Si  3.19 -8.08 -4.97
Si -3.19  8.08  4.97
Si  5.40  3.93 -7.46
Si -5.40 -3.93  7.46
Si -9.54 -2.03 -2.49
Si  9.54  2.03  2.49
Si -0.91 -10.03  0.00
Si  0.91 10.03  0.00
Si  9.59  1.98 -2.49
Si -9.59 -1.98  2.49
Si  5.63 -3.93  7.46
Si -5.63  3.93 -7.46
Si  1.85 -10.03  0.00
Si -1.85 10.03  0.00
Si  1.38 -1.89  9.94
Si -1.38  1.89 -9.94
Si -1.38 -1.89  9.94
Si  1.38  1.89 -9.94
Si  5.87 -8.00  2.49
Si -5.87  8.00 -2.49
Si  6.66  5.96 -4.97
Si -6.66 -5.96  4.97
Si  9.73 -1.98  2.49
Si -9.73  1.98 -2.49
Si -6.57 -6.07 -4.97
Si  6.57  6.07  4.97
Si -1.19 -2.12 -9.94
Si  1.19  2.12  9.94
Si  6.73  2.09  7.46
Si -6.73 -2.09 -7.46
Si -5.78  4.10  7.46
Si  5.78 -4.10 -7.46
Si -1.57  2.12  9.94
Si  1.57 -2.12 -9.94
Si -9.78  2.03  2.49
Si  9.78 -2.03 -2.49
Si  8.04  4.07  4.97
Si -8.04 -4.07 -4.97
Si  2.66  0.11  9.94
Si -2.66 -0.11 -9.94
Si -5.92  8.05  2.49
Si  5.92 -8.05 -2.49
Si -3.93 -5.93  7.46
Si  3.93  5.93 -7.46
Si  8.14  3.96 -4.97
Si -8.14 -3.96  4.97
Si -6.88 -1.92  7.46
Si  6.88  1.92 -7.46
Si -2.86  0.11  9.94
Si  2.86 -0.11 -9.94
Si  0.93 10.00 -2.49
Si -0.93 -10.00  2.49
Si -3.78 -6.10 -7.46
Si  3.78  6.10  7.46
Si -6.92  1.92 -7.46
Si  6.92 -1.92  7.46
Si  0.88 10.06  2.49
Si -0.88 -10.06 -2.49
Si  1.83 -10.00  2.49
Si -1.83 10.00 -2.49
Si -4.35  5.93 -7.46
Si  4.35 -5.93  7.46
Si  7.07 -2.09 -7.46
Si -7.07  2.09  7.46
Si -1.88 10.06  2.49
Si  1.88 -10.06 -2.49
Si  7.13 -5.96  4.97
Si -7.13  5.96 -4.97
Si  8.42 -3.96  4.97
Si -8.42  3.96 -4.97
Si -4.50  6.10  7.46
Si  4.50 -6.10 -7.46
Si -8.52  4.07  4.97
Si  8.52 -4.07 -4.97
Si  7.23 -6.07 -4.97
Si -7.23  6.07  4.97
Si  3.67 10.03  0.00
Si -3.67 -10.03  0.00
Si -0.09  3.90 -9.94
Si  0.09 -3.90  9.94
Si  5.19  7.97 -4.97
Si -5.19 -7.97  4.97
Si  5.09  8.08  4.97
Si -5.09 -8.08 -4.97
Si  0.29 -4.12 -9.94
Si -0.29  4.12  9.94
Si -0.30  7.94 -7.46
Si  0.30 -7.94  7.46
Si -3.94 -2.12 -9.94
Si  3.94  2.12  9.94
Si  9.51  2.06  4.97
Si -9.51 -2.06 -4.97
Si  4.13 -1.89  9.94
Si -4.13  1.89 -9.94
Si -4.14 -1.89  9.94
Si  4.14  1.89 -9.94
Si -3.69 -10.00  2.49
Si  3.69 10.00 -2.49
Si -3.64 -10.06 -2.49
Si  3.64 10.06  2.49
Si  9.61  1.95 -4.97
Si -9.61 -1.95  4.97
Si  2.67  3.90 -9.94
Si -2.67 -3.90  9.94
Si  0.45 -8.11 -7.46
Si -0.45  8.11  7.46
Si -11.04  0.00  0.00
Si 11.04  0.00  0.00
Si  4.61 -10.03  0.00
Si -4.61 10.03  0.00
Si -2.47 -4.12 -9.94
Si  2.47  4.12  9.94
Si  4.33 -2.12 -9.94
Si -4.33  2.12  9.94
Si -2.85  3.90 -9.94
Si  2.85 -3.90  9.94
Si  5.85 -7.97  4.97
Si -5.85  7.97 -4.97
Si -9.70  1.95 -4.97
Si  9.70 -1.95  4.97
Si -8.20 -0.08 -7.46
Si  8.20  0.08  7.46
Si -9.37 -6.02  0.00
Si  9.37  6.02  0.00
Si -2.46 -7.94  7.46
Si  2.46  7.94 -7.46
Si  9.80 -2.06 -4.97
Si -9.80  2.06  4.97
Si -0.96 -9.97  4.97
Si  0.96  9.97 -4.97
Si  3.05 -4.12 -9.94
Si -3.05  4.12  9.94
Si  5.95 -8.08 -4.97
Si -5.95  8.08  4.97
Si -8.35  0.08  7.46
Si  8.35 -0.08 -7.46
Si  2.31  8.11  7.46
Si -2.31 -8.11 -7.46
Si -7.90 -8.02  0.00
Si  7.90  8.02  0.00
Si -0.86 -10.09 -4.97
Si  0.86 10.09  4.97
Si -4.59 10.00 -2.49
Si  4.59 -10.00  2.49
Si -11.01 -0.03 -2.49
Si 11.01  0.03  2.49
Si -1.80  9.97 -4.97
Si  1.80 -9.97  4.97
Si  3.06 -7.94  7.46
Si -3.06  7.94 -7.46
Si  5.42  0.11  9.94
Si -5.42 -0.11 -9.94
Si -11.06  0.03  2.49
Si 11.06 -0.03 -2.49
Si  4.64 -10.06 -2.49
Si -4.64 10.06  2.49
Si  1.90 -10.09 -4.97
Si -1.90 10.09  4.97
Si -9.35 -6.05 -2.49
Si  9.35  6.05  2.49
Si -9.40 -5.99  2.49
Si  9.40  5.99 -2.49
Si  5.62 -0.11 -9.94
Si -5.62  0.11  9.94
Si  3.21 -8.11 -7.46
Si -3.21  8.11  7.46
Si -7.92 -8.00  2.49
Si  7.92  8.00 -2.49
Si  7.88  8.05  2.49
Si -7.88 -8.05 -2.49
Si 10.85  4.01  0.00
Si -10.85 -4.01  0.00
Si -9.94  6.02  0.00
Si  9.94 -6.02  0.00
Si -1.20 -5.91  9.94
Si  1.20  5.91 -9.94
Si  6.69  5.93 -7.46
Si -6.69 -5.93  7.46
Si  6.54  6.10  7.46
Si -6.54 -6.10 -7.46
Si  1.56 -5.91  9.94
Si -1.56  5.91 -9.94
Si  8.01  4.10  7.46
Si -8.01 -4.10 -7.46
Si -1.00 -6.13 -9.94
Si  1.00  6.13  9.94
Si  8.16  3.93 -7.46
Si -8.16 -3.93  7.46
Si -3.72 -9.97  4.97
Si  3.72  9.97 -4.97
Si  8.65 -8.02  0.00
Si -8.65  8.02  0.00
Si -3.62 -10.09 -4.97
Si  3.62 10.09  4.97
Si -1.76  6.13  9.94
Si  1.76 -6.13 -9.94
Si 10.82  4.04  2.49
Si -10.82 -4.04 -2.49
Si -10.87 -3.98  2.49
Si 10.87  3.98 -2.49
Si -9.92  5.99 -2.49
