500
set: 193.00  0.00  0.00
Si -0.00 -0.00 -0.03
Si -1.89  1.06  0.77
Si -0.05 -0.01 -2.32
Si  0.01 -2.20  0.79
Si  1.92  1.13  0.79
Si -3.76  0.02 -0.01
Si -1.92  3.23  0.03
Si -1.85  1.08  3.09
Si -1.96 -3.21 -0.00
Si  1.88  3.26 -0.04
Si  1.84  1.08  3.11
Si  1.88 -1.08 -3.08
Si  1.88 -3.28  0.01
Si -1.86 -1.13 -3.09
Si -0.01  2.18 -3.10
Si -0.02 -2.20  3.09
Si  3.81  0.02 -0.03
Si  3.72 -2.21  0.80
Si  0.05  4.33  0.78
Si  1.93 -1.09  3.81
Si  1.90 -3.26 -2.31
Si -1.88  3.28 -2.30
Si  1.90  3.25 -2.34
Si -3.81 -2.14  0.80
Si  3.77  0.02 -2.36
Si -1.85 -1.09  3.90
Si  0.02  2.18  3.88
Si -3.79 -0.01 -2.34
Si -1.92 -3.31 -2.33
Si  0.01  4.33  3.11
Si  3.77  2.17 -3.08
Si -3.77  2.21 -3.08
Si -3.75 -2.20  3.10
Si  3.81 -2.15  3.09
Si -0.04 -4.38 -3.10
Si -0.03  2.23 -5.34
Si -5.64  1.09  0.75
Si -1.87 -5.43  0.77
Si -3.74  2.19  3.85
Si  1.86 -5.44  0.79
Si  3.76  2.21  3.83
Si -0.03 -4.33  3.93
Si  1.94 -1.09 -5.42
Si -1.92 -1.07 -5.45
Si  5.72  1.09  0.75
Si  3.80  4.41  0.77
Si -3.82  4.40  0.79
Si -0.00  2.10  6.18
Si -5.67  1.10  3.05
Si  1.89  5.43 -3.10
Si -1.93  1.11 -6.15
Si  0.00 -6.54 -0.01
Si  1.86 -5.46  3.09
Si  5.67 -3.28  0.01
Si  5.69  1.10  3.05
Si  1.89 -1.12  6.17
Si  1.86  1.10 -6.18
Si  3.78 -4.37 -3.10
Si -1.90 -1.09  6.18
Si -0.01  6.56  0.01
Si  3.75  4.39  3.12
Si -5.68  3.30 -0.01
Si -1.90  5.47 -3.10
Si -5.69 -3.28  0.01
Si  5.68  3.30 -0.01
Si  5.67 -1.17 -3.10
Si -1.93 -5.45  3.12
Si -3.81  4.38  3.09
Si -5.68 -1.17 -3.10
Si -3.79 -4.40 -3.10
Si  0.01 -2.18 -6.22
Si  0.04  6.53 -2.27
Si -5.64 -3.30 -2.27
Si -5.64 -1.09  3.87
Si  3.81 -4.34  3.83
Si  0.04 -4.37 -5.40
Si -5.66  3.29 -2.34
Si  0.02 -6.55 -2.34
Si -1.87  5.50  3.83
Si -3.83  2.20 -5.39
Si  1.85  5.48  3.88
Si -3.83 -4.35  3.88
Si  5.72 -3.30 -2.27
Si  5.70  3.29 -2.34
Si  5.72 -1.09  3.87
Si  0.04 -0.03  7.00
Si  3.81  2.22 -5.44
Si -7.55  0.02 -0.03
Si -0.02  4.36 -6.18
Si -0.01 -4.37  6.18
Si  3.82  2.15  6.18
Si -3.80  6.56  0.01
Si -3.80  2.20  6.19
Si -3.84 -2.20 -6.17
Si -3.80 -6.57 -0.04
Si  3.83 -2.20 -6.18
Si  3.72  6.62 -0.00
Si  3.75 -6.60  0.03
Si  7.60  0.02 -0.01
Si  3.76  6.53 -2.33
Si  7.55 -2.14  0.80
Si -1.85  5.47 -5.38
Si  3.76 -0.03  6.94
Si  1.89  3.27  6.93
Si -1.91  3.30  6.91
Si -5.66 -1.10 -5.39
Si  1.90 -3.31  6.93
Si  3.83 -4.37 -5.38
Si -5.63 -5.50  0.78
Si -1.96  7.63  0.80
Si  3.80 -6.55 -2.30
Si  7.57 -0.01 -2.34
Si  5.70 -1.10 -5.39
Si -3.78  0.02  6.96
Si -3.78  6.57 -2.31
Si -1.88 -3.27  6.97
Si -3.75 -4.37 -5.46
Si -3.78 -6.58 -2.34
Si -7.59  0.02 -2.36
Si  1.87  7.70  0.80
Si  1.93  5.47 -5.46
Si  5.72 -5.50  0.78
Si -7.63 -2.21  0.80
Si -7.54 -2.15  3.09
Si  5.64 -1.10  6.17
Si  5.64  5.46 -3.10
Si -3.75  4.36 -6.17
Si -1.86 -5.43 -6.19
Si -5.67  1.05 -6.17
Si  1.91 -7.63 -3.08
Si -3.77 -4.35  6.19
Si  5.69  1.05 -6.17
Si  1.93  7.64  3.10
Si -7.58  2.17 -3.08
Si -1.91  5.45  6.20
Si -1.91 -7.66 -3.08
Si  1.93 -5.48 -6.17
Si  3.77 -4.38  6.20
Si  7.59  2.21 -3.08
Si -1.86  7.68  3.09
Si -5.72 -1.10  6.17
Si -5.72  5.46 -3.10
Si  1.91  5.48  6.19
Si -5.67 -5.51  3.11
Si  3.81  4.41 -6.19
Si  7.60 -2.20  3.10
Si  5.69 -5.51  3.11
Si -1.92 -7.63  3.83
Si  1.86  1.12 -8.49
Si  7.54  4.40  0.79
Si  1.94 -7.64  3.85
Si -7.55  4.41  0.77
Si  0.04 -8.75  0.75
Si -1.87  1.13 -8.50
Si -7.59  2.21  3.83
Si  0.04 -2.19 -8.53
Si  7.62  2.19  3.85
Si  5.65  5.50  3.93
Si -5.71  5.50  3.93
Si -0.00  8.66 -3.10
Si  7.54  4.38  3.09
Si  0.01 -8.74  3.05
Si -7.58 -4.37 -3.10
Si -0.01 -0.00  9.28
Si  0.00  0.02 -9.29
Si  7.57 -4.40 -3.10
Si -7.61  4.39  3.12
Si -7.55 -4.34  3.83
Si  7.53  2.20 -5.39
Si -3.76 -8.71  0.79
Si  5.63  3.26  6.95
Si  1.85 -7.63 -5.39
Si -3.76 -2.15 -8.48
Si  7.53 -4.35  3.88
Si -5.66 -3.27  6.93
Si -5.64  5.47 -5.40
Si -9.44  1.13  0.79
Si  0.01  4.36 -8.48
Si -1.87 -7.62 -5.44
Si -5.67  7.64  0.79
Si  0.02  6.57  6.93
Si  5.68  7.64  0.79
Si  5.70 -3.27  6.93
Si  9.47  1.06  0.77
Si -7.55  2.22 -5.44
Si -0.05 -6.57  6.95
Si  0.04  8.75  3.87
Si  3.79 -2.21 -8.51
Si -5.73  3.26  6.95
Si  5.72  5.47 -5.40
Si  3.79 -8.77  0.77
Si  9.40 -3.21 -0.00
Si  7.52 -2.20 -6.17
Si  9.43  3.23  0.03
Si  3.75 -0.05 -9.24
Si  1.88 -3.29  9.23
Si -7.54  2.15  6.18
Si -7.53 -2.20 -6.18
Si  1.84  7.64 -6.17
Si  3.72  0.06  9.27
Si -1.87 -9.81 -0.03
Si -1.87  3.30  9.24
Si  5.66  7.64  3.09
Si -1.85  7.64 -6.18
Si  1.92 -9.81 -0.01
Si  3.82  8.71 -3.09
Si  1.88  3.28 -9.26
Si  7.56  6.56  0.01
Si  1.88 -7.64  6.19
Si  5.67  5.46  6.18
Si  7.56  2.20  6.19
Si  5.66 -5.48 -6.18
Si  7.55 -6.57 -0.04
Si -5.68  5.46  6.18
Si  5.67 -7.65 -3.10
Si -5.70  7.64  3.09
Si  1.92  3.30  9.26
Si -5.68 -7.65 -3.10
Si -9.48 -1.08 -3.08
Si  1.92 -3.25 -9.29
Si -9.48  3.26 -0.04
Si -9.48 -3.28  0.01
Si -3.80  8.75 -3.08
Si -3.80 -0.00  9.29
Si -1.87 -3.26 -9.30
Si -1.87  9.86 -0.03
Si -1.86 -7.68  6.18
Si -5.70 -5.48 -6.18
Si  3.83 -8.76  3.09
Si  1.92  9.86 -0.01
Si  9.50 -1.13 -3.09
Si -3.84 -8.75  3.11
Si -1.96  3.34 -9.28
Si  9.51  1.08  3.09
Si -3.80 -0.02 -9.31
Si -1.92 -3.33  9.30
Si -7.60 -6.60  0.03
Si -9.52  1.08  3.11
Si -7.64  6.62 -0.00
Si  3.72  4.35 -8.47
Si -9.42 -1.09  3.81
Si -7.53 -4.37 -5.38
Si  3.77 -6.54  6.91
Si  1.87 -5.42 -8.48
Si -5.63  1.05 -8.49
Si -3.78  6.53  6.93
Si -3.75  8.74  3.81
Si -7.56 -6.55 -2.30
Si  0.02  8.73 -5.39
Si -9.46 -3.26 -2.31
Si  9.44 -3.31 -2.33
Si -9.46  3.25 -2.34
Si -3.79 -6.56  6.93
Si -1.91 -9.81 -2.36
Si  1.89  9.83 -2.34
Si -1.96 -5.48 -8.47
Si -5.66 -7.66  3.88
Si -7.60  6.53 -2.33
Si -3.81  4.42 -8.48
Si -7.60 -0.03  6.94
Si  1.89 -9.84 -2.34
Si  7.58  0.02  6.96
Si  5.72  1.05 -8.49
Si  9.48  3.28 -2.30
Si  7.58  6.57 -2.31
Si  3.80  6.56  6.97
Si  0.05 -2.23 10.06
Si  5.70 -7.66  3.88
Si  1.87  1.14 10.07
Si  7.58 -6.58 -2.34
Si  3.83  8.75  3.90
Si -1.91  9.86 -2.36
Si -1.96  1.07 10.08
Si  9.51 -1.09  3.90
Si  7.61 -4.37 -5.46
Si -0.04  8.73  6.17
Si -7.54  4.41 -6.19
Si  7.60  4.36 -6.17
Si  7.59 -4.35  6.19
Si -7.58 -4.38  6.20
Si  0.01 -8.79 -6.17
Si  5.65 -7.61 -5.34
Si -5.71 -7.61 -5.34
Si -9.42 -1.09 -5.42
Si  0.04  4.37 10.02
Si  0.04 10.93  0.75
Si  9.44 -1.07 -5.45
Si -3.74  8.75 -5.42
Si  3.80 -2.15 10.04
Si  9.48 -5.43  0.77
Si -9.50 -5.44  0.79
Si -3.82 -2.16 10.06
Si  3.76  8.77 -5.45
Si  9.43  1.11 -6.15
Si  3.75 -8.73 -6.15
Si -3.79  8.71  6.17
Si  9.43 -5.45  3.12
Si  5.68  3.28  9.25
Si -0.00 -6.56  9.25
Si -5.68  3.28  9.25
Si -5.68 -3.26  9.26
Si  5.68 -3.26  9.26
Si  5.67  3.28 -9.26
Si -9.46  5.43 -3.10
Si -0.01 -6.56 -9.26
Si  9.46 -1.09  6.18
Si  0.01 10.94  3.05
Si -9.46 -1.12  6.17
Si 11.35 -0.00 -0.03
Si -5.69  3.28 -9.26
Si  5.68  9.84 -0.03
Si  0.00  6.58  9.26
Si  5.68 -9.84 -0.03
Si  9.46  5.47 -3.10
Si -5.68  9.84 -0.03
Si  3.78  8.75  6.18
Si -5.68 -9.84 -0.03
Si -11.36 -0.00 -0.03
Si -3.81 -8.74 -6.18
Si -5.67  7.66 -6.22
Si -9.49 -5.46  3.09
Si  5.68 -3.28 -9.30
Si -0.00  6.56 -9.30
Si -9.49  1.10 -6.18
Si -5.68 -3.28 -9.30
Si  5.69  7.66 -6.22
Si  5.67 -7.73  6.18
Si -5.68 -7.73  6.18
Si -0.00 -11.01 -3.10
Si 11.30 -0.01 -2.32
Si  5.63  9.82 -2.32
Si  3.79 10.90  0.77
Si -1.89  7.62 -8.51
Si  3.79  4.34 10.04
Si  5.63 -9.85 -2.32
Si -5.67 -5.48 -8.48
Si  5.68 -5.48 -8.48
Si  7.60 -8.71  0.79
Si  0.04 -10.92  3.87
Si -11.35 -2.20  0.79
Si  7.60 -2.15 -8.48
Si  1.92 -5.43 10.06
Si -7.57 -2.21 -8.51
Si 11.36 -2.20  0.79
Si -1.89 -5.49 10.04
Si -5.67  1.08 10.07
Si -5.73  9.82 -2.32
Si  1.92  7.68 -8.48
Si -3.76  4.41 10.06
Si  5.68  1.08 10.07
Si  0.02  0.01 -11.61
Si -7.57 -8.77  0.77
Si -3.76 10.96  0.79
Si  9.49  5.50  3.83
Si -5.73 -9.85 -2.32
Si -9.51  5.48  3.88
Si -11.41 -0.01 -2.32
Si  3.72 -6.49 -9.28
Si -7.54  8.71 -3.09
Si -3.80  6.54  9.23
Si -3.76 -6.53  9.26
Si  3.81 -6.54  9.24
Si  7.52 -8.75  3.11
Si -7.53 -8.76  3.09
Si 11.34 -2.20  3.09
Si  3.75  6.51  9.30
Si -3.80 -10.92 -3.08
Si -3.80 -6.56 -9.26
Si 11.35  2.18 -3.10
Si -7.60 -0.05 -9.24
Si  7.56  8.75 -3.08
Si  7.56 -0.00  9.29
Si  3.83 10.92  3.09
Si -11.36  2.18 -3.10
Si -3.84 10.92  3.11
Si -3.76  6.58 -9.29
Si  7.55 -0.02 -9.31
Si -11.38 -2.20  3.09
Si -7.64  0.06  9.27
Si  3.82 -10.96 -3.09
Si  3.81  6.58 -9.30
Si  9.40  7.63  0.80
Si -11.31  4.33  0.78
Si  1.87 -11.98  0.80
Si  9.44  3.30  6.91
Si -1.92  9.80  6.94
Si -3.75 -10.93  3.81
Si -7.59 -6.54  6.91
Si  7.58  6.53  6.93
Si  7.57 -6.56  6.93
Si -7.53  8.75  3.90
Si  7.55  4.42 -8.48
Si -11.34  2.18  3.88
Si -9.46 -3.31  6.93
Si  3.80  0.00 -11.57
Si -9.47  3.27  6.93
Si -9.42  5.47 -5.46
Si  1.90 -9.82  6.96
Si  1.90  3.29 -11.58
Si  0.02 -10.94 -5.39
Si -7.56  6.56  6.97
Si  7.61  8.74  3.81
Si -7.63  4.35 -8.47
Si -1.92  3.25 -11.61
Si -3.78 -0.03 -11.61
Si  1.90  9.85  6.96
Si  3.83 -10.92  3.90
Si  9.48 -3.27  6.97
Si 11.38  2.18  3.88
Si -1.92 -9.87  6.94
Si  0.05 -8.78 -8.49
Si  9.51  5.47 -5.38
Si  1.89 -3.29 -11.62
Si 11.40  4.33  0.78
Si -1.96 -12.04  0.80
Si -1.91 -3.26 -11.64
Si -9.49  7.70  0.80
Si  0.01 10.88 -6.17
Si -1.86 -11.99  3.09
Si 11.32 -4.38 -3.10
Si -9.44 -7.63 -3.08
Si -9.43  7.64  3.10
Si -9.43 -5.48 -6.17
Si -11.35  4.33  3.11
Si -1.91 12.01 -3.08
Si -1.91 -1.10 -12.35
Si  1.91 -1.07 -12.35
Si  9.45  5.45  6.20
Si  9.45 -7.66 -3.08
Si -1.86  1.13 12.36
Si -9.44  5.48  6.19
Si 11.37  4.33  3.11
Si -0.04 -10.94  6.17
Si -0.04  2.18 -12.37
Si  9.49 -5.43 -6.19
Si  1.93  1.08 12.38
Si  1.91 12.04 -3.08
Si  1.93 -12.04  3.10
Si  0.01 -2.23 12.38
Si  9.49  7.68  3.09
Si -11.40 -4.38 -3.10
Si 11.33  2.23 -5.34
Si  9.44 -7.63  3.83
Si -9.42 -7.64  3.85
Si -5.64 -5.47 10.02
Si -7.55 -2.15 10.04
Si 11.33 -4.33  3.93
Si  3.80 -8.71 -8.50
Si -3.82 -8.72 -8.49
Si -3.74 -10.92 -5.42
Si  3.76 -10.90 -5.45
Si  7.54 -2.16 10.06
Si -5.64  7.65 -8.53
Si  5.72 -5.47 10.02
Si -11.39  2.23 -5.34
Si  1.94 12.03  3.85
Si -1.92 12.05  3.83
Si -1.87  7.69 10.04
Si -9.50  1.12 -8.49
Si  9.48  1.13 -8.50
Si  1.86  7.67 10.06
Si -11.39 -4.33  3.93
Si  5.72  7.65 -8.53
Si  7.62  8.75 -5.42
Si -7.59  8.77 -5.45
Si  0.01  4.38 12.33
Si  7.57  8.71  6.17
Si 11.35  2.10  6.18
Si  7.54 -8.74 -6.18
Si  3.75 10.94 -6.15
Si -11.36  2.10  6.18
Si -11.36 -6.54 -0.01
Si 11.35  6.56  0.01
Si  3.78 -10.92  6.18
Si 11.36 -6.54 -0.01
Si -7.61 -8.73 -6.15
Si -0.01 -13.12  0.01
Si  3.78  2.19 -12.37
Si -7.58  8.75  6.18
Si -3.81 -2.18 12.36
Si -3.79  2.15 -12.38
Si -11.35 -2.18 -6.22
Si -11.37  6.56  0.01
Si -3.81 10.93 -6.18
Si  0.00 13.13 -0.01
Si  3.75 -2.17 12.40
Si -3.79 -10.96  6.17
Si 11.37 -2.18 -6.22
Si -0.00 -4.45 -12.37
Si -5.64  3.25 -11.54
Si -11.32  6.53 -2.27
Si -11.32 -4.37 -5.40
Si -1.87 -1.06 13.10
Si  5.72  3.25 -11.54
Si  0.04 -6.58 -11.54
Si -7.57 10.90  0.77
Si -11.34 -6.55 -2.34
Si  5.63 -3.29 -11.60
Si -7.57  4.34 10.04
Si -5.64  9.81  7.00
