500
set: 1565.00  0.00  0.00
Si  0.30 -1.39  0.11
Si -0.70  0.88  1.00
Si  0.30 -0.43 -1.84
Si  0.83  1.99 -1.34
Si -0.66 -0.11  2.95
Si -2.90  0.81 -0.65
Si -0.96 -2.81 -1.34
Si  2.56 -1.33  1.67
Si -1.47  3.00 -0.50
Si  0.60  2.27  2.44
Si  3.33  0.81 -0.65
Si  2.87  1.26  1.55
Si -2.19  0.77 -2.62
Si  2.98 -1.79 -0.50
Si -1.19 -2.53  2.44
Si -3.26 -1.79 -0.50
Si -1.01 -1.81 -3.29
Si -3.37  1.26  1.55
Si  2.09  3.40  0.11
Si  1.08 -3.53  1.55
Si  2.57 -1.43 -2.73
Si -3.68 -1.33  1.67
Si  1.84 -1.29  3.64
Si -1.89  3.46  1.67
Si  1.54 -3.99 -0.65
Si  0.79  2.98 -3.29
Si  1.79  0.70 -4.18
Si  0.60  1.31  4.40
Si -1.88  3.36 -2.73
Si -2.50 -3.91  1.00
Si -3.67 -1.43 -2.73
Si  4.05  0.77 -2.62
Si -2.96  0.91  3.79
Si  3.28  0.91  3.79
Si -1.77  0.31 -4.79
Si  2.09  4.36 -1.84
Si  2.26 -4.02 -2.62
Si -4.15  3.40  0.11
Si  3.74 -3.91  1.00
Si  1.49 -3.89  3.79
Si  1.14  4.68  2.95
Si  4.77  3.00 -0.50
Si -2.60  3.50  3.64
Si  5.54  0.88  1.00
Si  0.53 -0.71 -5.63
Si -1.49 -5.22 -1.84
Si -1.19 -3.49  4.40
Si -1.11  5.60 -0.65
Si  4.35  3.46  1.67
Si -0.00 -4.09 -4.18
Si -2.19 -1.21  5.28
Si -4.39 -1.29  3.64
Si  1.09  5.67  1.00
Si -1.41  2.90 -4.93
Si -5.41  1.99 -1.34
Si  1.38 -0.83  5.84
Si  3.03 -1.89 -4.93
Si -5.94 -1.39  0.11
Si  5.28 -2.81 -1.34
Si -4.45  0.70 -4.18
Si  4.36  3.36 -2.73
Si  5.05 -2.53  2.44
Si -0.40  5.56 -2.62
Si -3.21 -1.89 -4.93
Si -4.70 -3.99 -0.65
Si -2.45 -4.90  2.95
Si  3.64  3.50  3.64
Si -5.94 -0.43 -1.84
Si -3.98 -4.02 -2.62
Si -4.14  4.36 -1.84
Si  5.58 -0.11  2.95
Si -1.49 -6.18  0.11
Si  0.77 -6.12  1.67
Si -0.40  3.58  5.28
Si  5.23 -1.81 -3.29
Si -5.16 -3.53  1.55
Si -1.58  6.06  1.55
Si -5.63  2.27  2.44
Si  4.47  0.31 -4.79
Si  1.79  1.67 -6.13
Si  6.54 -1.39  0.11
Si  1.19 -6.58 -0.50
Si  2.86  1.37  5.96
Si  4.04 -1.21  5.28
Si -0.89  0.17  6.73
Si  6.54 -0.43 -1.84
Si  0.78 -6.23 -2.73
Si  3.79 -4.90  2.95
Si  0.00 -3.13 -6.13
Si -1.16  5.70  3.79
Si  1.07 -3.42  5.96
Si -3.38  1.37  5.96
Si  0.03  5.10 -4.79
Si -5.45  2.98 -3.29
Si -6.94  0.88  1.00
Si  2.68 -4.49 -4.79
Si  0.05 -6.08  3.64
Si -4.75 -3.89  3.79
Si -5.64  1.31  4.40
Si  4.75 -5.22 -1.84
Si  2.32  4.08 -5.63
Si -2.18  0.66 -7.02
Si  2.63  6.78 -1.34
Si -2.66  5.50 -4.18
Si -3.56 -4.49 -4.79
Si  7.07  1.99 -1.34
Si  4.83  2.90 -4.93
Si -6.89 -0.11  2.95
Si -0.70  2.86 -6.90
Si -5.10  4.68  2.95
Si  5.05 -3.49  4.40
Si -2.49 -1.93 -6.90
Si  0.48  0.28 -7.58
Si  6.84  2.27  2.44
Si  5.13  5.60 -0.65
Si -4.86 -0.83  5.84
Si -0.35  2.59  7.24
Si -3.07  3.96  5.84
Si -5.15  5.67  1.00
Si  3.17  3.96  5.84
Si -4.45  1.67 -6.13
Si  3.58  5.50 -4.18
Si  4.75 -6.18  0.11
Si  4.66  6.06  1.55
Si -3.61  6.78 -1.34
Si  0.33  7.79 -0.50
Si -7.20 -2.81 -1.34
Si  2.40  7.06  2.44
Si -2.15 -2.20  7.24
Si  2.39  6.10  4.40
Si -2.80 -6.61 -3.29
Si -1.26 -5.50 -5.63
Si -3.92  4.08 -5.63
Si -5.71 -0.71 -5.63
Si  3.75 -1.93 -6.90
Si -0.41 -5.62  5.84
Si  4.06  0.66 -7.02
Si  3.44 -6.61 -3.29
Si -7.25 -1.81 -3.29
Si -2.75 -7.60 -1.34
Si -7.43 -2.53  2.44
Si  6.84  1.31  4.40
Si  7.32 -3.53  1.55
Si -2.98 -7.32  2.44
Si -7.70  3.00 -0.50
Si  7.03  2.98 -3.29
Si -5.05 -6.58 -0.50
Si  2.25 -6.01  5.28
Si  2.15  1.41  7.93
Si  1.79 -1.19  8.07
Si  3.26 -7.32  2.44
Si -5.47 -6.12  1.67
Si  1.24 -6.68 -4.93
Si -3.84  7.06  2.44
Si  0.91  4.96  6.73
Si -0.10  8.26  1.67
Si -3.85  6.10  4.40
Si  2.27 -4.13 -7.02
Si  3.49 -7.60 -1.34
Si  5.84  5.56 -2.62
Si -0.71 -8.32  1.55
Si  5.08  5.70  3.79
Si -2.35  8.19  0.11
Si  6.24 -4.09 -4.18
Si -6.24 -4.09 -4.18
Si -2.68 -4.62  6.73
Si -5.17 -3.42  5.96
Si -0.09  8.15 -2.73
Si  4.09 -2.20  7.24
Si  5.35  0.17  6.73
Si  0.35 -3.39  7.93
Si  5.84  3.58  5.28
Si -1.59  6.16  5.96
Si -5.46 -6.23 -2.73
Si -0.89 -0.79  8.68
Si  7.78 -3.99 -0.65
Si -0.25 -8.78 -0.65
Si  1.49 -1.99 -8.46
Si  2.58  7.77 -3.29
Si  6.77 -0.71 -5.63
Si -8.43  0.77 -2.62
Si -0.39  5.46 -7.02
Si  3.56 -4.62  6.73
Si -1.31 -4.51 -7.58
Si -3.99 -6.01  5.28
Si  8.08 -1.29  3.64
Si  1.95 -8.70  1.00
Si -8.13  3.46  1.67
Si  8.33  3.40  0.11
Si -4.09  1.41  7.93
Si -6.64  5.56 -2.62
Si  8.80 -1.33  1.67
Si -3.97 -4.13 -7.02
Si  3.88  8.19  0.11
Si  8.03  0.70 -4.18
Si -0.81  8.30  3.64
Si  0.38  7.70 -4.93
Si -3.66  7.77 -3.29
Si -9.14  0.81 -0.65
Si -8.12  3.36 -2.73
Si  0.47 -8.82 -2.62
Si -6.64  3.58  5.28
Si  7.38  4.68  2.95
Si -2.65  3.60  8.07
Si -7.35  5.60 -0.65
Si -6.24 -3.13 -6.13
Si  6.24 -3.13 -6.13
Si -4.45 -1.19  8.07
Si -2.65  6.46 -6.13
Si  5.54  2.86 -6.90
Si -7.43 -3.49  4.40
Si  4.98 -5.50 -5.63
Si  7.33  5.67  1.00
Si  9.11  1.26  1.55
Si  8.81 -1.43 -2.73
Si -8.01  0.31 -4.79
Si -6.21  5.10 -4.79
Si -1.72  0.20 -9.22
Si  6.26  5.10 -4.79
Si -0.28  2.40 -9.07
Si -2.96  2.80 -8.46
Si  2.28  5.07 -7.58
Si  9.22 -1.79 -0.50
Si -6.19 -6.08  3.64
Si  7.73 -3.89  3.79
Si  7.01 -6.12  1.67
Si -0.30 -8.68  3.79
Si  6.29 -6.08  3.64
Si  3.28  2.80 -8.46
Si -7.73 -5.22 -1.84
Si -5.75  0.28 -7.58
Si  3.59  3.60  8.07
Si -7.65  2.90 -4.93
Si  8.33  4.36 -1.84
Si  3.58  6.46 -6.13
Si  0.90  4.00  8.68
Si -2.07 -2.39 -9.07
Si -8.73 -3.91  1.00
Si  9.57  0.81 -0.65
Si -2.35  9.16 -1.84
Si  7.62 -0.83  5.84
Si -9.49 -1.79 -0.50
Si  5.88  2.59  7.24
Si -5.00 -6.68 -4.93
Si  4.65  6.16  5.96
Si -4.29 -8.70  1.00
Si  8.50 -4.02 -2.62
Si  7.01 -6.23 -2.73
Si -5.91  7.79 -0.50
Si -7.12  0.17  6.73
Si -9.61  1.26  1.55
Si  1.96 -6.72 -6.90
Si -2.98 -8.28  4.40
Si -1.89  1.48  9.57
Si -7.73 -6.18  0.11
Si -4.75 -1.99 -8.46
Si -5.33  4.96  6.73
Si  3.26 -8.28  4.40
Si  7.43 -6.58 -0.50
Si -3.96  5.07 -7.58
Si -1.79 -8.88 -4.18
Si  5.83 -5.62  5.84
Si -9.19  0.91  3.79
Si  1.39  8.37  5.28
Si -7.82  6.06  1.55
Si -8.43 -1.21  5.28
Si  7.31 -3.42  5.96
Si  0.00 -5.98  8.07
Si -7.40  5.70  3.79
Si  4.93 -4.51 -7.58
Si  5.52 -8.32  1.55
Si  3.89  9.16 -1.84
Si -6.59  2.59  7.24
Si  6.72  0.28 -7.58
Si -9.92 -1.33  1.67
Si -0.72 -8.22  5.96
Si -1.79 -7.92 -6.13
Si -8.84  3.50  3.64
Si -6.94  2.86 -6.90
Si  6.57  7.79 -0.50
Si  2.02  1.39 -9.91
Si  5.35 -0.79  8.68
Si  8.03  1.67 -6.13
Si  4.17 -2.39 -9.07
Si  4.52  0.20 -9.22
Si  9.52  0.91  3.79
Si  2.30 -7.00  7.24
Si -2.30  6.20  7.93
Si  2.00 -9.69  2.95
Si  2.93  9.48  2.95
Si  1.37 -0.73 10.24
Si  1.09  7.66 -6.90
Si -9.91 -1.43 -2.73
Si -8.69 -4.90  2.95
Si  6.14  8.26  1.67
Si  1.68  1.86 10.13
Si  0.68 10.39 -0.65
Si  1.44  7.38  7.24
Si -5.88 -3.39  7.93
Si  2.55 -3.31  9.57
Si -3.31  9.48  2.95
Si  0.89 -9.28 -4.79
Si  0.23 -3.41 -9.91
Si  0.08  5.00 -9.22
Si -6.65 -5.62  5.84
Si -0.11 -2.93 10.13
Si -6.33  8.26  1.67
Si -4.28 -6.72 -6.90
Si  5.43  8.30  3.64
Si  6.15  8.15 -2.73
Si  1.49 -1.03 -10.42
Si -1.28  8.75  5.84
Si  2.96 -10.02 -1.84
Si  4.35  1.48  9.57
Si  5.85  5.46 -7.02
Si 10.29  0.77 -2.62
Si  5.99 -8.78 -0.65
Si  2.73 -4.59 -9.22
Si -2.68 -5.58  8.68
Si  9.27 -1.89 -4.93
Si -6.33  8.15 -2.73
Si -3.28 -10.02 -1.84
Si -2.12  8.88 -5.63
Si  9.98 -3.91  1.00
Si  1.39 10.35 -2.62
Si  4.45 -8.88 -4.18
Si -3.69 -3.31  9.57
Si -3.94 -7.00  7.24
Si  3.94  6.20  7.93
Si -9.44 -1.89 -4.93
Si -0.30 -6.79 -8.46
Si  6.59 -3.39  7.93
Si -5.86  7.70 -4.93
Si -5.77 -8.82 -2.62
Si -4.22  1.39 -9.91
Si -7.50 -5.50 -5.63
Si -3.51 -4.59 -9.22
Si  2.88 10.47  1.00
Si  3.56 -5.58  8.68
Si -10.39  3.40  0.11
Si -6.49 -8.78 -0.65
Si -5.33  4.00  8.68
Si -6.95 -8.32  1.55
Si  4.45 -7.92 -6.13
Si  0.21 10.85  1.55
Si  9.10  1.37  5.96
Si -4.24 -9.69  2.95
Si -8.42  0.66 -7.02
Si  7.14  4.96  6.73
Si -4.85  8.37  5.28
Si  8.56  4.08 -5.63
Si -3.36 10.47  1.00
Si  8.92 -4.49 -4.79
Si -1.02 -10.91  1.67
Si -6.63  5.46 -7.02
Si  9.88  3.50  3.64
Si  5.96  2.40 -9.07
Si  1.82  9.89 -4.79
Si -0.86 10.29 -4.18
Si  0.63 10.49  3.79
Si  5.94 -8.68  3.79
Si  7.48 -6.68 -4.93
Si -1.00  0.17 -11.19
Si  8.87  6.78 -1.34
Si -4.56  1.86 10.13
Si -8.90  5.50 -4.18
Si -7.13 -0.79  8.68
Si 10.59  3.46  1.67
Si  6.62  7.70 -4.93
Si  4.12  8.88 -5.63
Si -10.22 -4.02 -2.62
Si -8.38 -2.20  7.24
Si -8.73 -1.93 -6.90
Si -10.63 -1.29  3.64
Si  0.47 -8.92 -7.02
Si -4.87 -0.73 10.24
Si  2.96 -10.98  0.11
Si  6.71 -8.82 -2.62
Si -9.62  1.37  5.96
Si -4.80  7.38  7.24
Si -0.58  2.87 11.02
Si -1.02 -11.02 -2.73
Si -0.60 -11.38 -0.50
Si -10.38  4.36 -1.84
Si  8.63  7.06  2.44
Si -6.51  2.40 -9.07
Si 11.01  3.00 -0.50
Si -1.17  7.59 -8.46
Si -2.38 -1.93 11.02
Si -3.08  4.07 10.24
Si -0.10  6.28  9.57
Si  8.63  6.10  4.40
Si 10.60  3.36 -2.73
Si  8.03 -1.19  8.07
Si -3.28 -10.98  0.11
Si -2.96  3.76 -10.42
Si  3.16  4.07 10.24
Si -7.05  8.30  3.64
Si -1.44 -8.18  7.93
Si -4.75 -1.03 -10.42
Si -10.69  0.70 -4.18
Si -6.54 -8.68  3.79
Si -5.15  7.66 -6.90
Si 10.03 -4.90  2.95
Si  5.52 -8.22  5.96
Si  3.28  3.76 -10.42
Si -1.74 -10.88  3.64
Si -7.83  6.16  5.96
Si -7.55 -4.51 -7.58
Si 10.28 -1.21  5.28
Si  8.39  1.41  7.93
Si  7.73 -1.99 -8.46
Si  4.96  8.75  5.84
Si -0.42 -5.52 10.24
Si -10.93 -3.99 -0.65
Si -0.69  2.76 -11.31
Si  8.49 -6.01  5.28
Si -9.04 -6.61 -3.29
Si  1.52  7.19 -9.07
Si -1.84  0.49 11.52
Si -9.31  3.96  5.84
Si -0.86  8.40  8.07
Si  1.77 -9.41  6.73
Si -4.84 10.35 -2.62
Si -5.35 -9.28 -4.79
Si 10.71  0.31 -4.79
Si -2.48 -2.04 -11.31
Si  9.41  3.96  5.84
Si  8.50 -4.13 -7.02
Si -9.80 -4.49 -4.79
Si -1.82 11.57 -1.34
Si -5.56 10.39 -0.65
Si  2.38 -7.18 -9.07
Si 11.29 -2.53  2.44
Si -6.24 -5.98  8.07
Si  6.24 -5.98  8.07
Si  3.86 -1.93 11.02
Si -4.42  9.89 -4.79
Si -8.99 -7.60 -1.34
Si 11.77  0.88  1.00
Si -8.59  8.19  0.11
Si -11.64  1.99 -1.34
Si -2.05 10.89  4.40
Si -2.42  6.18 -9.91
Si 11.52 -2.81 -1.34
Si  7.14  4.00  8.68
Si -0.30 -5.82 -10.42
Si  1.65 -11.40 -3.29
Si  8.19 -8.70  1.00
Si  9.82  5.50 -4.18
Si -9.22 -7.32  2.44
Si  0.46 -10.80  5.28
Si -9.85  6.78 -1.34
Si -11.40 -3.53  1.55
Si 11.47 -1.81 -3.29
Si -6.01 -3.41 -9.91
Si  3.75 -2.04 -11.31
Si -8.92 -4.62  6.73
Si  0.18 -2.42 -11.87
Si -3.05 -10.29 -5.63
Si -2.21 -10.42  5.84
Si  2.70  9.76  6.73
Si  3.19 -10.29 -5.63
Si -6.16  5.00 -9.22
Si  9.68 -6.61 -3.29
Si -7.95  0.20 -9.22
Si 11.82 -0.11  2.95
Si  6.13 -2.93 10.13
Si -3.86 -7.18 -9.07
Si  8.82  7.77 -3.29
Si  5.21 -10.91  1.67
Si  9.50 -7.32  2.44
Si  6.32  5.00 -9.22
Si  0.66 -0.69 12.21
Si -10.99 -3.89  3.79
Si -12.18 -1.39  0.11
Si  1.97  2.38 -11.87
Si  0.79  4.96 -11.19
Si -2.05 11.85  2.44
Si  3.81  6.18 -9.91
Si  9.99 -1.93 -6.90
Si -10.15  4.08 -5.63
Si 10.99 -5.22 -1.84
Si -6.35 -2.93 10.13
Si -6.96 -8.22  5.96
Si  6.47 -3.41 -9.91
Si  4.50 -10.88  3.64
Si -12.18 -0.43 -1.84
Si -11.87  2.27  2.44
Si  5.37 10.29 -4.18
Si  4.39  0.49 11.52
Si  5.24  0.17 -11.19
Si  4.80 -8.18  7.93
Si  5.94 -6.79 -8.46
Si -3.54  9.76  6.73
Si -3.10 -9.30 -7.58
Si  3.14 -9.30 -7.58
Si -4.47 -9.41  6.73
Si  9.73 -7.60 -1.34
Si -2.79 -4.62 -11.19
