500
set: 275.00  0.00  0.00
Si -0.02 -0.01  0.03
Si  0.06  0.02 -2.16
Si  1.78  1.06  0.72
Si -0.06 -2.12  0.72
Si -1.86  1.05  0.73
Si -1.74 -1.02 -2.93
Si  3.57  0.03  0.03
Si  1.75  3.12 -0.03
Si -0.05 -2.09  2.91
Si -1.78  3.11 -0.05
Si  1.80 -1.05 -2.93
Si -1.83  0.99  2.93
Si -3.60 -0.01 -0.02
Si -1.84 -3.10 -0.05
Si  1.82  1.03  2.93
Si  0.03  2.06 -2.96
Si  1.76 -3.15  0.03
Si  1.75 -1.08  3.60
Si -0.01  1.99  3.67
Si -1.76  3.09 -2.22
Si  3.60 -0.01 -2.17
Si -3.56  0.05 -2.23
Si  1.76 -3.12 -2.20
Si -3.58 -2.08  0.75
Si  3.59 -2.07  0.74
Si -0.00  4.14  0.80
Si -1.79 -3.11 -2.23
Si  1.78  3.13 -2.25
Si -1.83 -1.07  3.74
Si -0.00  4.08  2.97
Si  3.59  2.02 -2.94
Si  3.58 -2.06  2.92
Si -3.53  2.13 -2.97
Si -3.61 -2.05  2.94
Si -0.03 -4.22 -2.91
Si -5.35  1.02  0.77
Si  3.58  4.12  0.74
Si -1.82 -0.97 -5.10
Si -3.61  4.11  0.67
Si -3.54  2.14  3.65
Si  0.04 -4.16  3.65
Si  0.04  2.06 -5.15
Si  1.85 -0.98 -5.16
Si  1.79 -5.23  0.67
Si  3.57  2.14  3.70
Si -1.82 -5.22  0.74
Si  5.44  1.02  0.77
Si  1.79 -1.00  5.81
Si -3.50  4.19  2.88
Si -1.80 -5.14  2.92
Si -0.00 -2.00 -5.85
Si -5.36 -0.99 -2.93
Si  0.00  6.19  0.04
Si  5.37  3.08  0.02
Si  1.89 -5.15  2.88
Si  3.61 -4.13 -2.89
Si -1.78  5.21 -2.89
Si -5.42  3.08  0.02
Si -3.60 -4.11 -3.00
Si -5.39 -3.15  0.04
Si  0.04  2.12  5.88
Si  5.43 -0.99 -2.93
Si  5.40 -3.15  0.04
Si  5.39  1.11  2.96
Si -5.39  1.11  2.96
Si -1.80  1.09 -5.89
Si  3.60  4.21  2.92
Si -1.78 -1.02  5.92
Si -0.02 -6.26  0.02
Si  1.79  5.23 -3.00
Si  1.89  1.08 -5.93
Si -5.37 -3.05 -2.13
Si -0.00 -4.10 -5.11
Si  5.39  3.06 -2.19
Si -5.39  3.06 -2.19
Si  5.42 -3.05 -2.13
Si  3.64 -4.12  3.65
Si  1.76  5.20  3.67
Si -1.75  5.22  3.65
Si  5.39 -0.99  3.69
Si -5.40 -0.99  3.69
Si -3.63 -4.14  3.67
Si -3.63  2.09 -5.14
Si  0.03  6.29 -2.13
Si  3.64  2.11 -5.16
Si -0.00 -6.29 -2.19
Si  0.03  0.06  6.67
Si -3.63  6.20  0.03
Si  0.03 -4.17  5.85
Si -3.57 -2.08 -5.88
Si  3.56  6.24 -0.05
Si  7.19 -0.01 -0.02
Si  3.56 -2.13 -5.88
Si -3.59  2.07  5.88
Si  3.62 -6.23 -0.05
Si -0.05  4.14 -5.90
Si -3.65 -6.22 -0.03
Si -7.21  0.03  0.03
Si  3.66  2.10  5.88
Si -1.83  5.16 -5.07
Si  1.78 -3.10  6.56
Si  3.57 -4.18 -5.07
Si  3.60  0.00  6.58
Si -1.76 -3.14  6.59
Si -7.19 -0.01 -2.17
Si  1.81  7.26  0.75
Si -1.80  7.27  0.74
Si -3.61 -6.21 -2.25
Si -7.20 -2.07  0.74
Si  1.83  3.16  6.58
Si -3.63  6.22 -2.20
Si  1.75  5.15 -5.20
Si  5.39 -1.12 -5.14
Si  3.60  6.23 -2.23
Si  7.20 -2.08  0.75
Si  5.39 -5.20  0.80
Si -5.39 -5.20  0.80
Si -5.40 -1.12 -5.14
Si -3.63 -0.01  6.61
Si -1.80  3.10  6.64
Si  7.22  0.05 -2.23
Si  3.63 -6.25 -2.22
Si -3.64 -4.19 -5.20
Si -3.53 -4.10  5.84
Si  5.37  5.12 -2.91
Si -1.81  5.13  5.86
Si  5.39  0.96 -5.84
Si -5.42  5.12 -2.91
Si -5.40  0.96 -5.84
Si  1.79 -5.17 -5.87
Si  1.86 -7.22 -2.97
Si  7.18 -2.05  2.94
Si -7.20  2.02 -2.94
Si -1.81 -5.17 -5.88
Si -7.21 -2.06  2.92
Si  3.58  4.17 -5.88
Si  5.37 -1.11  5.90
Si -3.61  4.18 -5.87
Si -1.81  7.28  2.92
Si  3.59 -4.21  5.86
Si  1.79  7.29  2.94
Si  1.86  5.24  5.84
Si -5.42 -1.11  5.90
Si -1.81 -7.32 -2.94
Si  5.39 -5.26  2.97
Si -5.40 -5.26  2.97
Si  7.25  2.13 -2.97
Si  1.85 -7.21  3.65
Si -5.35  5.18  3.65
Si -1.82 -7.20  3.70
Si  7.18  4.11  0.67
Si  0.05 -2.09 -8.03
Si -1.82  1.00 -8.07
Si -7.21  4.12  0.74
Si  5.44  5.18  3.65
Si  0.05 -8.32  0.77
Si -7.22  2.14  3.70
Si  7.25  2.14  3.65
Si  1.79  0.99 -8.14
Si -0.00 -8.23  2.96
Si -7.17 -4.13 -2.89
Si -0.02 -0.04 -8.79
Si  7.18 -4.11 -3.00
Si -7.19  4.21  2.92
Si  0.00 -0.04  8.85
Si  0.04  8.35 -2.93
Si  7.29  4.19  2.88
Si  5.33  7.22  0.72
Si -7.15 -4.12  3.65
Si  8.93  1.05  0.73
Si  7.15 -4.14  3.67
Si -0.00  6.17  6.62
Si  3.53 -8.30  0.73
Si  3.53 -2.07 -8.07
Si  7.15  2.09 -5.14
Si -1.75 -7.23 -5.16
Si -7.15  2.11 -5.16
Si  1.76 -7.25 -5.14
Si -3.61 -8.29  0.72
Si -0.06  4.11 -8.08
Si -5.33  3.14  6.64
Si -5.45  7.22  0.72
Si  5.39  5.24 -5.11
Si  0.06 -6.21  6.64
Si -3.61 -2.06 -8.09
Si -5.40  5.24 -5.11
Si -9.01  1.06  0.72
Si  5.39 -3.17  6.62
Si -5.39 -3.17  6.62
Si -0.00  8.35  3.69
Si  5.45  3.14  6.64
Si  3.56  0.02  8.75
Si  5.34  7.25  2.91
Si -1.78 -3.11  8.76
Si  7.16  6.20  0.03
Si  1.76  3.08 -8.78
Si  7.14 -6.22 -0.03
Si  8.95 -3.10 -0.05
Si  8.95  0.99  2.93
Si  1.75 -3.10  8.78
Si -5.36  5.18  5.85
Si -7.13  2.10  5.88
Si -1.82 -3.08 -8.77
Si -1.83  7.21 -5.88
Si -8.96  1.03  2.93
Si -1.82 -9.31  0.03
Si  1.79  3.10  8.79
Si -1.74 -7.25  5.88
Si -7.17 -6.23 -0.05
Si -3.59  8.30 -2.93
Si  1.79  9.33 -0.02
Si -3.57 -8.31  2.93
Si -8.98 -1.05 -2.93
Si  5.34 -5.20 -5.90
Si -5.36 -7.28 -2.96
Si  5.43  5.18  5.85
Si  1.82  7.26 -5.88
Si  7.20  2.07  5.88
Si -5.45  7.25  2.91
Si  1.79 -9.35 -0.02
Si  1.80 -7.27  5.88
Si  9.01  3.11 -0.05
Si  7.22 -2.08 -5.88
Si  1.79 -3.12 -8.83
Si  3.56 -8.36  2.93
Si -1.82  9.37  0.03
Si  5.43 -7.28 -2.96
Si  3.66  8.32 -2.93
Si -7.23  6.24 -0.05
Si -3.63 -0.03  8.84
Si -7.23 -2.13 -5.88
Si -9.03 -3.15  0.03
Si -1.82  3.14  8.84
Si -3.65  0.01 -8.84
Si -9.04  3.12 -0.03
Si  3.62 -0.00 -8.86
Si  9.05 -1.02 -2.93
Si -5.45 -5.20 -5.90
Si -1.84  3.13 -8.86
Si -0.01  8.22 -5.14
Si  5.39  1.03 -8.00
Si -3.56 -6.18  6.58
Si -5.39  1.03 -8.00
Si -3.64  8.26  3.60
Si  1.83 -9.29 -2.23
Si  7.15  6.22 -2.20
Si  7.15 -0.01  6.61
Si -7.19  0.00  6.58
Si -1.80  9.33 -2.17
Si -3.58  4.15 -8.06
Si  3.63  6.20  6.59
Si -3.61  6.25  6.56
Si  7.18 -6.21 -2.25
Si  3.57  8.27  3.74
Si  3.59  4.15 -8.06
Si  1.81 -5.19 -8.06
Si -1.80 -5.19 -8.06
Si -7.15 -6.25 -2.22
Si -7.22 -4.18 -5.07
Si -1.80 -9.35 -2.17
Si  8.96 -1.07  3.74
Si -7.19  6.23 -2.23
Si  8.99 -3.11 -2.23
Si -1.80  1.04  9.55
Si  1.81  1.04  9.55
Si -9.03 -1.08  3.60
Si  7.15 -4.19 -5.20
Si -9.00  3.13 -2.25
Si  3.60 -6.24  6.64
Si  9.03  3.09 -2.22
Si -9.03 -3.12 -2.20
Si  5.39 -7.35  3.67
Si  1.83  9.39 -2.23
Si -5.40 -7.35  3.67
Si -0.00 -2.09  9.61
Si -0.03  8.23  5.90
Si  7.18  4.18 -5.87
Si  7.25 -4.10  5.84
Si -7.21  4.17 -5.88
Si -7.20 -4.21  5.86
Si -0.00 -8.38 -5.84
Si -3.61 -2.12  9.48
Si  8.96 -0.97 -5.10
Si -8.94 -0.98 -5.16
Si  0.05 10.37  0.77
Si -5.35 -7.28 -5.15
Si  8.97 -5.22  0.74
Si  3.58 -2.11  9.55
Si -9.00 -5.23  0.67
Si  3.57  8.37 -5.10
Si  0.05  4.14  9.58
Si  5.44 -7.28 -5.15
Si -3.54  8.37 -5.16
Si -8.89 -5.15  2.88
Si -5.36 -7.22  5.88
Si -5.39  3.08 -8.77
Si  0.04 -10.33 -2.93
Si -8.89  1.08 -5.93
Si  5.40  3.08 -8.77
Si -0.02  6.22 -8.77
Si  5.38 -3.13 -8.77
Si  3.60 -8.25 -5.89
Si -9.00 -1.00  5.81
Si  8.99 -5.14  2.92
Si -3.50 -8.27 -5.93
Si  5.38  9.33  0.03
Si 10.77 -0.01  0.03
Si -5.41 -3.13 -8.77
Si  5.43 -7.22  5.88
Si  0.00 -6.27 -8.77
Si -0.02  6.19  8.82
Si -5.41  9.33  0.03
Si -3.60  8.34  5.81
Si  5.38 -9.35  0.03
Si  9.01  5.21 -2.89
Si  5.37 -3.15  8.82
Si  8.99  1.09 -5.89
Si  5.38  3.10  8.84
Si -10.80 -0.01  0.03
Si -5.41 -9.35  0.03
Si -5.41  3.10  8.84
Si -0.02 -6.24  8.84
Si  5.39  7.34 -5.85
Si -5.39  7.34 -5.85
Si -5.42 -3.15  8.82
Si  9.01 -1.02  5.92
Si -9.00  5.23 -3.00
Si  3.61  8.32  5.92
Si -0.00 10.45  2.96
Si -10.73  0.02 -2.16
Si -5.33 -9.32 -2.16
Si 10.73 -2.12  0.72
Si  5.33  1.00  9.53
Si -0.00 -10.33  3.69
Si  7.17 -8.29  0.72
Si  1.78 -5.17  9.53
Si -5.33  9.36 -2.16
Si  3.53  4.16  9.54
Si  3.53 10.39  0.73
Si -0.00 -0.06 -11.00
Si  5.33 -5.23 -8.08
Si  7.17 -2.06 -8.09
Si -3.61  4.17  9.53
Si  5.45 -9.32 -2.16
Si -1.86 -5.18  9.54
Si -1.86  7.27 -8.07
Si -5.45  1.00  9.53
Si  1.78  7.28 -8.09
Si -3.61 10.40  0.72
Si -7.25 -8.30  0.73
Si -9.03  5.20  3.67
Si -7.25 -2.07 -8.07
Si  5.45  9.36 -2.16
Si  9.03  5.22  3.65
Si 10.85  0.02 -2.16
Si -5.45 -5.23 -8.08
Si -10.85 -2.12  0.72
Si  3.56 10.33  2.93
Si 10.73 -2.09  2.91
Si  3.62  6.23  8.76
Si -10.75  2.06 -2.96
Si -7.13  8.32 -2.93
Si  3.57  6.26 -8.77
Si -7.23  0.02  8.75
Si -3.57 10.38  2.93
Si -3.60 -6.24  8.79
Si  7.14  0.01 -8.84
Si  7.20  8.30 -2.93
Si -3.65  6.24  8.78
Si  3.66 -10.36 -2.93
Si  7.16 -0.03  8.84
Si -3.59 -10.39 -2.93
Si  3.57 -6.20  8.84
Si -3.63 -6.26 -8.78
Si -3.60  6.22 -8.83
Si  7.22 -8.31  2.93
Si  3.56 -6.21 -8.86
Si -7.17 -0.00 -8.86
Si 10.82  2.06 -2.96
Si -10.84 -2.09  2.91
Si -7.23 -8.36  2.93
Si  7.15  8.26  3.60
Si  8.96  5.16 -5.07
Si -7.15  6.20  6.59
Si -0.00 -8.31 -8.00
Si -1.80 -3.12 -10.97
Si -8.96  3.16  6.58
Si  7.18  6.25  6.56
Si 10.78  1.99  3.67
Si -9.00 -3.10  6.56
Si  7.22 -6.18  6.58
Si -1.79 -9.34  6.58
Si -1.79  9.34  6.58
Si  1.76  9.33  6.61
Si -10.79  1.99  3.67
Si  1.76  3.10 -11.01
Si -8.98  7.26  0.75
Si  8.98  7.27  0.74
Si  7.20  4.15 -8.06
Si -7.20  4.15 -8.06
Si -1.80 -11.42  0.74
Si 10.79  4.14  0.80
Si -10.79  4.14  0.80
Si  1.81 -11.42  0.75
Si  1.76 -9.35  6.61
Si  1.83 -3.07 -11.03
Si  8.99  3.10  6.64
Si -7.22  8.27  3.74
Si -7.19 -6.24  6.64
Si  9.03 -3.14  6.59
Si -1.79  3.12 -11.04
Si -3.64 -10.42  3.60
Si  3.63 -0.03 -11.03
Si  3.57 -10.41  3.74
Si -9.03  5.15 -5.20
Si -3.61  0.02 -11.05
Si -0.01 -10.46 -5.14
Si -0.00 10.31 -5.84
Si -8.93 -7.22 -2.97
Si -1.81 11.36 -2.94
Si -0.03  2.01 -11.71
Si -8.93  5.24  5.84
Si  8.98  5.13  5.86
Si  1.79 -11.39  2.94
Si 10.78  4.08  2.97
Si -1.81 -11.40  2.92
Si  8.97 -5.17 -5.88
Si -10.79  4.08  2.97
Si 10.76 -4.22 -2.91
Si -1.81  1.06 11.73
Si -9.00 -5.17 -5.87
Si  8.97  7.28  2.92
Si  1.79  1.06 11.75
Si -1.81 -1.09 -11.75
Si -9.00  7.29  2.94
Si  8.98 -7.32 -2.94
Si  1.86 -0.99 -11.77
Si -10.81 -4.22 -2.91
Si -0.00 -2.15 11.78
Si  1.86 11.47 -2.97
Si -0.03 -10.45  5.90
Si -8.94 -7.21  3.65
Si  3.57 -10.31 -5.10
Si  1.79  7.22  9.48
Si -3.54 -10.32 -5.16
Si -5.35  7.25 -8.03
Si  7.18 -2.12  9.48
Si  8.96 -7.20  3.70
Si -10.74 -4.16  3.65
Si -10.74  2.06 -5.15
Si  8.97  1.00 -8.07
Si -1.82  7.23  9.55
Si  5.44  7.25 -8.03
Si  3.58 -8.34 -8.07
Si -5.35 -5.20  9.58
Si -7.21 -2.11  9.55
Si 10.83 -4.16  3.65
Si 10.83  2.06 -5.15
Si -7.22  8.37 -5.10
Si -9.00  0.99 -8.14
Si  5.44 -5.20  9.58
Si  1.85 11.48  3.65
Si -3.61 -8.35 -8.14
Si -1.82 11.48  3.70
Si  7.25  8.37 -5.16
Si -3.50 -2.04 11.69
Si -3.60 -10.34  5.81
Si -0.02 12.42  0.02
Si  3.61  2.09 -11.70
Si -7.19 -8.25 -5.89
Si  3.60 -2.02 11.73
Si 10.79 -2.00 -5.85
Si -10.79 -2.00 -5.85
Si -10.78  6.19  0.04
Si -10.75  2.12  5.88
Si  0.04 -4.11 -11.74
Si 10.79  6.19  0.04
Si  7.18  8.34  5.81
Si 10.76 -6.26  0.02
Si  3.61 -10.36  5.92
Si -7.17  8.32  5.92
Si -3.50 10.42 -5.93
Si -10.81 -6.26  0.02
Si  0.00 -12.49  0.04
Si 10.82  2.12  5.88
Si -0.00  4.22 11.77
Si  3.60 10.43 -5.89
Si  7.29 -8.27 -5.93
Si -3.60  2.12 -11.81
Si  0.03 -6.17 -10.94
Si  0.03 -12.40 -2.13
Si -5.33 -3.09 -10.97
Si -0.00 12.40 -2.19
Si -5.37  3.17 -10.94
Si -1.75 -1.01 12.45
Si  5.42  3.17 -10.94
Si 10.78 -4.10 -5.11
Si  0.06  6.25 -10.97
Si -10.79 -4.10 -5.11
Si -5.37 -9.28  6.67
