500
set: 570.00  0.00  0.00
Si  0.00  0.00  0.00
Si  0.04 -2.04  0.74
Si  1.82  1.05  0.74
Si -0.04  0.18 -2.22
Si -1.87  1.05  0.74
Si -1.77 -3.08  0.00
Si  1.77  3.08  0.00
Si -1.83  0.87  2.96
Si  1.83 -0.87 -2.96
Si  1.86  0.87  2.96
Si -1.86 -0.87 -2.96
Si  1.91 -3.08  0.00
Si -1.91  3.08  0.00
Si -3.69  0.00  0.00
Si  3.69  0.00  0.00
Si -0.08  2.21 -2.96
Si  0.08 -2.21  2.96
Si -1.81 -2.91 -2.22
Si  1.87 -2.91 -2.22
Si -0.01  1.92  3.70
Si -0.10  4.13  0.74
Si -3.65 -2.04  0.74
Si  3.65  0.18 -2.22
Si -1.79 -1.16  3.70
Si  1.74  3.26 -2.22
Si  3.73 -2.04  0.74
Si  1.90 -1.16  3.70
Si -3.73  0.18 -2.22
Si -1.95  3.26 -2.22
Si -0.06  3.96  2.96
Si  0.06 -3.96 -2.96
Si  3.60  2.21 -2.96
Si -3.60 -2.21  2.96
Si -3.77  2.21 -2.96
Si  3.77 -2.21  2.96
Si -1.73 -5.12  0.74
Si  3.59  4.13  0.74
Si  1.79 -0.69 -5.18
Si  1.95 -5.12  0.74
Si  3.67  1.92  3.70
Si -1.90 -0.69 -5.18
Si -3.70  1.92  3.70
Si  0.12 -4.25  3.70
Si -3.78  4.13  0.74
Si  5.50  1.05  0.74
Si -5.56  1.05  0.74
Si -0.12  2.39 -5.18
Si  3.63  3.96  2.96
Si -3.63 -3.96 -2.96
Si -0.14  6.17  0.00
Si  0.14 -6.17  0.00
Si  0.03  1.74  5.92
Si -0.03 -1.74 -5.92
Si -3.74  3.96  2.96
Si  3.74 -3.96 -2.96
Si -5.46 -3.08  0.00
Si  5.46  3.08  0.00
Si -1.69 -5.29  2.96
Si  1.69  5.29 -2.96
Si  1.75  1.34 -5.92
Si -1.75 -1.34  5.92
Si -5.52  0.87  2.96
Si  5.52 -0.87 -2.96
Si -5.54 -0.87 -2.96
Si  5.54  0.87  2.96
Si -1.94  1.34 -5.92
Si  1.94 -1.34  5.92
Si -1.99  5.29 -2.96
Si  1.99 -5.29  2.96
Si  0.10 -5.99 -2.22
Si -5.60  3.08  0.00
Si  5.60 -3.08  0.00
Si  0.02 -3.78 -5.18
Si  1.76  5.00  3.70
Si -1.93  5.00  3.70
Si -5.50 -2.91 -2.22
Si  5.56 -2.91 -2.22
Si -3.56 -4.25  3.70
Si  0.07 -0.29  6.67
Si  5.42  3.26 -2.22
Si -5.47 -1.16  3.70
Si -0.18  6.34 -2.22
Si  3.57  2.39 -5.18
Si  5.58 -1.16  3.70
Si  3.81 -4.25  3.70
Si -3.81  2.39 -5.18
Si -5.64  3.26 -2.22
Si  3.55  6.17  0.00
Si -3.55 -6.17  0.00
Si -3.66  1.74  5.92
Si  3.66 -1.74 -5.92
Si -3.71 -1.74 -5.92
Si  3.71  1.74  5.92
Si -3.82  6.17  0.00
Si  3.82 -6.17  0.00
Si -3.59 -5.99 -2.22
Si -7.37  0.00  0.00
Si  7.37  0.00  0.00
Si -3.67 -3.78 -5.18
Si  0.16 -4.42  5.92
Si -0.16  4.42 -5.92
Si  3.70 -3.78 -5.18
Si  3.79 -5.99 -2.22
Si  1.68  7.21  0.74
Si  1.84  2.79  6.67
Si -1.84  2.79  6.67
Si -5.42 -5.12  0.74
Si -2.01  7.21  0.74
Si  5.48 -0.69 -5.18
Si  3.51  6.34 -2.22
Si -3.62 -0.29  6.67
Si -7.33 -2.04  0.74
Si -5.58 -0.69 -5.18
Si  5.64 -5.12  0.74
Si  3.75 -0.29  6.67
Si -1.71 -3.37  6.67
Si  7.33  0.18 -2.22
Si  1.65  5.47 -5.18
Si  7.42 -2.04  0.74
Si  1.98 -3.37  6.67
Si -7.41  0.18 -2.22
Si -3.86  6.34 -2.22
Si -2.03  5.47 -5.18
Si -1.72 -7.04 -2.96
Si  1.72  7.04  2.96
Si -1.80 -4.83 -5.92
Si  1.80  4.83  5.92
Si  1.89 -4.83 -5.92
Si -1.89  4.83  5.92
Si  1.97 -7.04 -2.96
Si -1.97  7.04  2.96
Si -5.38 -5.29  2.96
Si  5.38  5.29 -2.96
Si -5.44 -1.34  5.92
Si  5.44  1.34 -5.92
Si -7.29 -2.21  2.96
Si  7.29  2.21 -2.96
Si -3.52 -4.42  5.92
Si  3.52  4.42 -5.92
Si  0.18 -8.20  0.74
Si  5.45  5.00  3.70
Si  5.62 -1.34  5.92
Si -5.62  1.34 -5.92
Si -0.06 -1.57 -8.15
Si  5.68 -5.29  2.96
Si -5.68  5.29 -2.96
Si -7.45  2.21 -2.96
Si  7.45 -2.21  2.96
Si -3.85  4.42 -5.92
Si  3.85 -4.42  5.92
Si -1.65 -7.33  3.70
Si -5.61  5.00  3.70
Si  7.28  4.13  0.74
Si  7.36  1.92  3.70
Si  1.71  1.52 -8.15
Si  2.04 -7.33  3.70
Si -7.39  1.92  3.70
Si -1.98  1.52 -8.15
Si -7.47  4.13  0.74
Si -1.76 -6.86 -5.18
Si  1.93 -6.86 -5.18
Si  7.32  3.96  2.96
Si -7.32 -3.96 -2.96
Si -0.07  5.88  6.67
Si -0.22  8.38 -2.96
Si  0.22 -8.38  2.96
Si -0.15  8.09  3.70
Si  0.11 -0.47  8.89
Si -0.11  0.47 -8.89
Si  7.43 -3.96 -2.96
Si -7.43  3.96  2.96
Si -3.51 -8.20  0.74
Si  5.37  7.21  0.74
Si  3.62 -1.57 -8.15
Si  3.87 -8.20  0.74
Si  5.53  2.79  6.67
Si -5.53  2.79  6.67
Si -3.75 -1.57 -8.15
Si -7.25 -4.25  3.70
Si -5.39 -3.37  6.67
Si -5.69  7.21  0.74
Si  7.25  2.39 -5.18
Si  5.34  5.47 -5.18
Si  9.19  1.05  0.74
Si  0.20 -6.46  6.67
Si -9.24  1.05  0.74
Si  5.41  7.04  2.96
Si -5.41 -7.04 -2.96
Si -0.20  4.60 -8.15
Si  5.67 -3.37  6.67
Si  7.50 -4.25  3.70
Si -1.64 -9.25  0.00
Si  1.64  9.25  0.00
Si -5.49 -4.83 -5.92
Si  5.49  4.83  5.92
Si -7.49  2.39 -5.18
Si -1.81  2.62  8.89
Si  1.81 -2.62 -8.89
Si -1.88 -2.62 -8.89
Si  1.88  2.62  8.89
Si  5.57 -4.83 -5.92
Si -5.57  4.83  5.92
Si -5.72  5.47 -5.18
Si -2.05  9.25  0.00
Si  2.05 -9.25  0.00
Si -1.68 -9.07 -2.22
Si  5.66 -7.04 -2.96
Si -5.66  7.04  2.96
Si -7.24 -6.17  0.00
Si  7.24  6.17  0.00
Si -3.47 -8.38  2.96
Si  3.47  8.38 -2.96
Si  2.01 -9.07 -2.22
Si -1.84 -4.65 -8.15
Si  1.85 -4.65 -8.15
Si  3.53  8.09  3.70
Si  3.58  0.47 -8.89
Si -3.58 -0.47  8.89
Si  3.62  5.88  6.67
Si -7.35  1.74  5.92
Si  7.35 -1.74 -5.92
Si -7.40 -1.74 -5.92
Si  7.40  1.74  5.92
Si -3.76  5.88  6.67
Si -9.15 -3.08  0.00
Si  9.15  3.08  0.00
Si  3.79 -0.47  8.89
Si -3.79  0.47 -8.89
Si -7.28 -5.99 -2.22
Si -3.84  8.09  3.70
Si  1.61  7.51 -5.92
Si -1.61 -7.51  5.92
Si -3.90  8.38 -2.96
Si  3.90 -8.38  2.96
Si  9.20 -0.87 -2.96
Si -9.20  0.87  2.96
Si -1.67 -3.55  8.89
Si  1.67  3.55 -8.89
Si -7.51  6.17  0.00
Si  7.51 -6.17  0.00
Si  9.23  0.87  2.96
Si -9.23 -0.87 -2.96
Si -7.36 -3.78 -5.18
Si -2.02  3.55 -8.89
Si  2.02 -3.55  8.89
Si  9.29 -3.08  0.00
Si -9.29  3.08  0.00
Si -2.07  7.51 -5.92
Si  2.07 -7.51  5.92
Si  7.39 -3.78 -5.18
Si -5.34 -7.33  3.70
Si -1.76  0.58  9.63
Si  1.60  9.43 -2.22
Si  7.47 -5.99 -2.22
Si  1.92  0.58  9.63
Si  7.20  6.34 -2.22
Si -0.11  7.91  5.92
Si  0.11 -7.91 -5.92
Si -9.19 -2.91 -2.22
Si  5.40  1.52 -8.15
Si -7.31 -0.29  6.67
Si -2.09  9.43 -2.22
Si -3.48 -6.46  6.67
Si  9.11  3.26 -2.22
Si  9.24 -2.91 -2.22
Si  0.15 -2.50  9.63
Si -9.16 -1.16  3.70
Si  3.48  4.60 -8.15
Si  7.44 -0.29  6.67
Si -0.26  8.55 -5.18
Si  5.72 -7.33  3.70
Si -5.66  1.52 -8.15
Si  9.27 -1.16  3.70
Si  3.89 -6.46  6.67
Si -7.55  6.34 -2.22
Si -9.32  3.26 -2.22
Si -3.89  4.60 -8.15
Si -5.44 -6.86 -5.18
Si  5.62 -6.86 -5.18
Si  0.01  3.66  9.63
Si  7.21  4.42 -5.92
Si -7.21 -4.42  5.92
Si -0.23 10.30  0.74
Si -9.11 -5.12  0.74
Si -3.57 -7.91 -5.92
Si  3.57  7.91  5.92
Si  0.19 -10.12 -2.96
Si -0.19 10.12  2.96
Si  9.16 -0.69 -5.18
Si -7.54  4.42 -5.92
Si  7.54 -4.42  5.92
Si -0.03  5.70  8.89
Si  0.03 -5.70 -8.89
Si -3.54 -2.50  9.63
Si  3.43  8.55 -5.18
Si  3.80 -7.91 -5.92
Si -3.80  7.91  5.92
Si -9.27 -0.69 -5.18
Si  3.83 -2.50  9.63
Si  9.33 -5.12  0.74
Si  5.32  9.25  0.00
Si -5.32 -9.25  0.00
Si -3.94  8.55 -5.18
Si -5.49  2.62  8.89
Si  5.49 -2.62 -8.89
Si -5.36 -9.07 -2.22
Si -5.57 -2.62 -8.89
Si  5.57  2.62  8.89
Si -5.74  9.25  0.00
Si  5.74 -9.25  0.00
Si -5.53 -4.65 -8.15
Si  3.45 10.30  0.74
Si  5.53 -4.65 -8.15
Si  9.07  5.29 -2.96
Si -9.07 -5.29  2.96
Si -5.30 -7.51  5.92
Si  5.30  7.51 -5.92
Si -7.19 -8.20  0.74
Si -3.68  3.66  9.63
Si  5.70 -9.07 -2.22
Si  3.70  3.66  9.63
Si  9.12  1.34 -5.92
Si -9.12 -1.34  5.92
Si  5.36  3.55 -8.89
Si -5.36 -3.55  8.89
Si  5.28  9.43 -2.22
Si -3.92 10.30  0.74
Si  9.13  5.00  3.70
Si  0.26 -10.41  3.70
Si  7.31 -1.57 -8.15
Si 11.06  0.00  0.00
Si -11.06  0.00  0.00
Si -5.45  0.58  9.63
Si  0.24 -6.63  8.89
Si -0.24  6.63 -8.89
Si  3.49 10.12  2.96
Si -3.49 -10.12 -2.96
Si -9.31  1.34 -5.92
Si  9.31 -1.34  5.92
Si -0.14  0.64 -11.11
Si -7.44 -1.57 -8.15
Si -5.70  3.55 -8.89
Si  5.70 -3.55  8.89
Si  5.61  0.58  9.63
Si -9.37  5.29 -2.96
Si  9.37 -5.29  2.96
Si -5.76  7.51 -5.92
Si  5.76 -7.51  5.92
Si  3.65  5.70  8.89
Si -3.65 -5.70 -8.89
Si  7.55 -8.20  0.74
Si -9.30  5.00  3.70
Si  3.72 -5.70 -8.89
Si -3.72  5.70  8.89
Si  0.15 -9.95 -5.18
Si -11.02 -2.04  0.74
Si  0.07 -7.73 -8.15
Si -3.88 10.12  2.96
Si  3.88 -10.12 -2.96
Si 11.02  0.18 -2.22
Si -1.63 -5.59  9.63
Si -5.78  9.43 -2.22
Si  1.70  8.96  6.67
Si  1.57  7.68 -8.15
Si 11.10 -2.04  0.74
Si -11.10  0.18 -2.22
Si  2.06 -5.59  9.63
Si -1.98  8.96  6.67
Si -2.11  7.68 -8.15
Si -7.15 -8.38  2.96
Si  7.15  8.38 -2.96
Si -1.59 -11.29  0.74
Si  7.22  8.09  3.70
Si -7.27 -0.47  8.89
Si  7.27  0.47 -8.89
Si  2.09 -11.29  0.74
Si  7.30  5.88  6.67
Si  1.77 -2.44 -11.11
Si -1.92 -2.44 -11.11
Si -3.43 -10.41  3.70
Si -10.98 -2.21  2.96
Si 10.98  2.21 -2.96
Si -7.44  5.88  6.67
Si  9.05  7.21  0.74
Si  3.44  6.63 -8.89
Si -3.44 -6.63  8.89
Si -7.48  0.47 -8.89
Si  7.48 -0.47  8.89
Si -7.53  8.09  3.70
Si  3.54  0.64 -11.11
Si  7.59 -8.38  2.96
Si -7.59  8.38 -2.96
Si  9.21  2.79  6.67
Si -9.22  2.79  6.67
Si -7.17 -6.46  6.67
Si  3.95 -10.41  3.70
Si 11.14 -2.21  2.96
Si -11.14  2.21 -2.96
Si 10.96  4.13  0.74
Si -1.57 -9.54  6.67
Si -3.53 -9.95 -5.18
Si -9.08 -3.37  6.67
Si  9.03  5.47 -5.18
Si  3.93 -6.63  8.89
Si -3.93  6.63 -8.89
Si -3.83  0.64 -11.11
Si  7.17  4.60 -8.15
Si -3.61 -7.73 -8.15
Si 11.04  1.92  3.70
Si  1.63  3.73 -11.11
Si  2.12 -9.54  6.67
Si -11.07  1.92  3.70
Si  3.76 -7.73 -8.15
Si  3.84 -9.95 -5.18
Si -9.38  7.21  0.74
Si  9.09  7.04  2.96
Si -9.09 -7.04 -2.96
Si  1.62 11.17  3.70
Si  1.78  6.75  9.63
Si -2.06  3.73 -11.11
Si -1.90  6.75  9.63
Si -11.15  4.13  0.74
Si  9.17  4.83  5.92
Si -9.17 -4.83 -5.92
Si -1.56 -11.46  2.96
Si  1.56 11.46 -2.96
Si -2.06 11.17  3.70
Si  9.35 -3.37  6.67
Si  7.58 -6.46  6.67
Si  1.73 -0.40 -11.85
Si -1.73  0.40 11.85
Si  9.26 -4.83 -5.92
Si -9.26  4.83  5.92
Si -1.96 -0.40 -11.85
Si  1.96  0.40 11.85
Si  2.13 -11.46  2.96
Si -2.13 11.46 -2.96
Si -7.57  4.60 -8.15
Si -9.40  5.47 -5.18
Si 11.00  3.96  2.96
Si -11.00 -3.96 -2.96
Si -9.34  7.04  2.96
Si  9.34 -7.04 -2.96
Si -0.30 10.59 -5.92
Si  0.30 -10.59  5.92
Si  0.19 -2.68 11.85
Si -0.19  2.68 -11.85
Si -11.12  3.96  2.96
Si 11.12 -3.96 -2.96
Si -9.02 -7.33  3.70
Si  7.26  7.91  5.92
Si -7.26 -7.91 -5.92
Si  7.12  8.55 -5.18
Si  9.08  1.52 -8.15
Si -7.22 -2.50  9.63
Si -10.94 -4.25  3.70
Si -5.31 -5.59  9.63
Si -0.28 12.33  0.00
Si  0.28 -12.33  0.00
Si 10.94  2.39 -5.18
Si  0.05  3.49 11.85
Si -0.05 -3.49 -11.85
Si  0.24 -12.16 -2.22
Si  5.26  7.68 -8.15
Si  7.49 -7.91 -5.92
Si -7.49  7.91  5.92
Si  5.39  8.96  6.67
Si -0.01 -5.52 -11.11
Si  7.52 -2.50  9.63
Si -5.28 -11.29  0.74
Si  9.41 -7.33  3.70
Si -9.35  1.52 -8.15
Si 11.18 -4.25  3.70
Si -5.67  8.96  6.67
Si  5.75 -5.59  9.63
Si 10.92  6.17  0.00
Si -10.92 -6.17  0.00
Si -9.13 -6.86 -5.18
Si -11.18  2.39 -5.18
Si  7.14 10.30  0.74
Si -7.63  8.55 -5.18
Si  3.39 10.59 -5.92
Si -3.39 -10.59  5.92
Si -1.66 -10.99 -5.92
Si  1.66 10.99  5.92
Si -5.80  7.68 -8.15
Si  5.45 -2.44 -11.11
Si -1.74 -8.78 -8.89
Si  1.74  8.78  8.89
Si -3.50 -2.68 11.85
Si  3.50  2.68 -11.85
Si  1.94 -8.78 -8.89
Si -1.94  8.78  8.89
Si 11.03 -1.74 -5.92
Si -11.03  1.74  5.92
Si  2.02 -10.99 -5.92
Si -2.02 10.99  5.92
Si -7.36  3.66  9.63
Si  9.30 -6.86 -5.18
Si  7.38  3.66  9.63
