500
set: 170.00  0.00  0.00
Si -0.00 -0.00  0.01
Si  0.01 -0.01 -2.34
Si -0.01 -2.21  0.77
Si  1.92  1.07  0.82
Si -1.91  1.14  0.77
Si -1.91 -3.31  0.01
Si -1.94  1.10  3.14
Si  1.94 -3.33 -0.01
Si -1.93  3.34  0.01
Si  3.86 -0.01 -0.03
Si  0.02 -2.22  3.17
Si  0.02  2.24 -3.17
Si -1.91 -1.16 -3.18
Si -3.89  0.02  0.02
Si  1.95  3.37 -0.01
Si  1.93 -1.12 -3.21
Si  1.98  1.10  3.19
Si  1.95 -3.31 -2.34
Si  3.84 -2.23  0.79
Si  3.85 -0.02 -2.36
Si -3.86  0.01 -2.34
Si  1.92  3.35 -2.34
Si -1.91 -1.10  3.95
Si -1.96 -3.35 -2.35
Si  0.00  2.26  3.94
Si -1.95  3.34 -2.38
Si  0.04  4.48  0.77
Si -3.87 -2.25  0.83
Si  1.93 -1.09  3.98
Si  3.82  2.23 -3.15
Si  3.89 -2.19  3.15
Si  0.02  4.47  3.15
Si  0.03 -4.48 -3.15
Si -3.86  2.24 -3.17
Si -3.89 -2.28  3.16
Si -1.91 -1.13 -5.49
Si  5.75  1.15  0.80
Si -3.87  2.22  3.91
Si -0.03  2.22 -5.50
Si -3.87  4.43  0.76
Si -1.95 -5.56  0.74
Si  3.85  4.48  0.74
Si  1.92 -5.61  0.76
Si -0.03 -4.48  3.96
Si  3.89  2.22  3.98
Si  1.93 -1.13 -5.55
Si -5.84  1.15  0.80
Si -0.02 -2.21 -6.28
Si  3.87  4.43  3.14
Si -3.87  4.44  3.13
Si -5.78 -1.10 -3.15
Si -0.01 -6.68 -0.03
Si -0.01  6.68  0.01
Si  3.87 -4.46 -3.14
Si -1.92  5.58 -3.14
Si  1.95  5.56 -3.16
Si  5.78 -3.36  0.01
Si  5.79  3.37 -0.03
Si  1.95 -1.13  6.31
Si  1.93 -5.60  3.13
Si -3.85 -4.48 -3.16
Si  5.78  1.13  3.19
Si  5.81 -1.10 -3.15
Si  0.02  2.24  6.32
Si -1.92 -1.11  6.33
Si -1.93  1.08 -6.33
Si -1.93 -5.61  3.14
Si -5.81  3.37 -0.03
Si -5.81 -3.36  0.01
Si  1.93  1.09 -6.34
Si -5.81  1.13  3.19
Si -1.91  5.57  3.88
Si  5.76 -3.36 -2.34
Si -0.03  6.68 -2.34
Si  3.89 -4.47  3.88
Si -5.78 -1.11  3.95
Si  5.78  3.35 -2.36
Si -0.02 -6.69 -2.36
Si  0.01 -4.46 -5.52
Si  1.91  5.59  3.94
Si -3.89 -4.46  3.94
Si -5.81  3.35 -2.36
Si  5.81 -1.11  3.95
Si -3.89  2.24 -5.52
Si -5.83 -3.36 -2.34
Si -0.03 -0.01  7.13
Si  3.89  2.23 -5.59
Si -3.86  2.23  6.26
Si -3.82 -2.25 -6.28
Si -3.85 -6.67 -0.01
Si  7.71  0.02  0.02
Si  3.89  2.19  6.29
Si  0.02 -4.46  6.30
Si  0.02  4.47 -6.30
Si -7.73 -0.01 -0.03
Si  3.86 -6.71  0.01
Si -3.85  6.71 -0.01
Si  3.86 -2.25 -6.33
Si  3.89  6.73  0.01
Si -5.76 -5.56  0.77
Si -3.87 -4.44 -5.49
Si  3.85  6.69 -2.35
Si  1.93  7.79  0.83
Si -3.88 -6.69 -2.34
Si  7.73  0.01 -2.34
Si  1.93  5.61 -5.49
Si  3.85 -6.70 -2.38
Si -1.95 -3.35  7.09
Si  5.79 -1.08 -5.53
Si  3.89 -4.45 -5.52
Si -1.91  5.59 -5.52
Si -5.80 -1.08 -5.53
Si -1.95  3.33  7.11
Si  7.72 -2.25  0.83
Si -1.95  7.81  0.79
Si  3.85 -0.01  7.12
Si -3.84  0.03  7.12
Si -3.84  6.73 -2.34
Si  5.84 -5.56  0.77
Si -7.75 -0.02 -2.36
Si  1.92 -3.34  7.12
Si -7.75 -2.23  0.79
Si  1.94  3.35  7.13
Si  1.91  7.76  3.16
Si -5.77  5.56 -3.15
Si -7.71 -2.19  3.15
Si -1.91 -5.54 -6.31
Si -5.78 -5.57  3.15
Si -3.86 -4.45  6.29
Si  7.70 -2.28  3.16
Si -5.77 -1.14  6.32
Si -3.89  4.42 -6.31
Si  3.82 -4.47  6.32
Si  1.94  5.59  6.29
Si -5.78  1.12 -6.32
Si  1.93 -7.80 -3.17
Si  5.81 -5.57  3.15
Si  5.83  5.56 -3.15
Si  7.73  2.24 -3.17
Si -1.98 -7.81 -3.15
Si -1.98  5.57  6.32
Si  5.81  1.12 -6.32
Si  1.90 -5.62 -6.31
Si  5.83 -1.14  6.32
Si -1.91  7.85  3.15
Si  3.89  4.51 -6.31
Si -7.78  2.23 -3.15
Si -0.04 -8.89  0.80
Si  7.72  4.43  0.76
Si  7.73  2.22  3.91
Si -0.04 -2.19 -8.67
Si  5.77  5.57  3.96
Si -7.71  2.22  3.98
Si  1.93 -7.83  3.91
Si -5.82  5.57  3.96
Si -7.75  4.48  0.74
Si  1.92  1.08 -8.71
Si -1.91 -7.82  3.98
Si -1.95  1.13 -8.73
Si -7.72  4.43  3.14
Si  7.73  4.44  3.13
Si -7.72 -4.46 -3.14
Si -0.02 -8.91  3.19
Si  0.02  8.94 -3.15
Si -0.01 -0.02  9.48
Si  7.74 -4.48 -3.16
Si -0.01  0.02 -9.50
Si -7.70 -4.47  3.88
Si  7.71 -4.46  3.94
Si  7.71  2.24 -5.52
Si  3.89 -8.90  0.77
Si  1.91 -7.80 -5.52
Si -5.78  5.58 -5.52
Si -3.88 -2.27 -8.65
Si  5.78 -3.34  7.11
Si  0.02  8.93  3.95
Si  5.81  5.58 -5.52
Si  5.79  7.83  0.77
Si -5.79  3.34  7.13
Si -0.01  6.70  7.11
Si -9.68  1.07  0.82
Si -5.81 -3.34  7.11
Si -7.70  2.23 -5.59
Si -5.80  7.83  0.77
Si  5.80  3.34  7.13
Si  3.89 -2.21 -8.70
Si  0.01 -6.70  7.13
Si  9.69  1.14  0.77
Si -0.01  4.48 -8.70
Si -1.91 -7.82 -5.59
Si -3.88 -8.97  0.82
Si -9.61  1.10  3.19
Si -7.71  2.19  6.29
Si  7.73  2.23  6.26
Si  1.93 -7.81  6.26
Si  1.91 -3.32 -9.45
Si -1.93  3.33  9.44
Si  1.91 -10.02  0.02
Si -5.78 -5.57 -6.30
Si  3.89  8.89 -3.18
Si  1.98  7.79 -6.28
Si -9.65 -3.33 -0.01
Si  3.86 -0.01 -9.45
Si -5.77  5.59  6.30
Si -5.78 -7.80 -3.17
Si  9.65  1.10  3.14
Si  1.95 -3.32  9.46
Si -1.93 10.03 -0.03
Si -9.64  3.37 -0.01
Si -3.85  0.02  9.46
Si  9.66  3.34  0.01
Si -5.77  7.82  3.17
Si -1.94  7.79 -6.33
Si  7.75 -6.67 -0.01
Si  5.82 -5.57 -6.30
Si -7.70  6.73  0.01
Si -1.91  3.38 -9.46
Si -3.82 -8.94  3.19
Si -3.85  0.02 -9.48
Si  5.81 -7.80 -3.17
Si -7.73 -6.71  0.01
Si  3.86 -8.95  3.14
Si  9.69 -3.31  0.01
Si  5.82  5.59  6.30
Si -3.86  8.92 -3.21
Si -1.94 -10.05 -0.03
Si -9.66 -1.12 -3.21
Si -1.91 -7.85  6.29
Si  1.94  3.37 -9.47
Si  3.89  0.03  9.47
Si  1.91 10.06  0.02
Si -1.93 -3.36  9.48
Si -7.74 -2.25 -6.33
Si  7.74  6.71 -0.01
Si  1.91  3.37  9.49
Si  7.78 -2.25 -6.28
Si  5.82  7.82  3.17
Si  9.68 -1.16 -3.18
Si -1.94 -3.36 -9.49
Si -9.64 -3.31 -2.34
Si -3.87  4.45 -8.64
Si  7.73 -4.44 -5.49
Si  5.79 -7.78  3.94
Si -5.80 -7.78  3.94
Si  1.93 -5.59 -8.64
Si -7.71 -4.45 -5.52
Si  9.64 -3.35 -2.35
Si  7.72 -6.69 -2.34
Si  0.04 -2.21 10.24
Si  9.64  3.34 -2.38
Si -1.95 10.03 -2.36
Si  3.85  6.69  7.09
Si  1.93 -10.04 -2.34
Si  3.84  4.46 -8.68
Si -5.76  1.14 -8.70
Si  1.94 10.05 -2.34
Si -9.67  3.35 -2.34
Si -7.75  6.69 -2.35
Si -1.96 -5.58 -8.68
Si -1.95  1.11 10.26
Si  3.85 -6.71  7.11
Si -9.66 -1.09  3.98
Si -3.86 -6.69  7.13
Si -7.75 -6.70 -2.38
Si -1.95 -10.06 -2.36
Si -3.87  6.70  7.12
Si  9.69 -1.10  3.95
Si  3.89  8.94  3.95
Si -7.75 -0.01  7.12
Si  7.75  0.03  7.12
Si  0.00  8.96 -5.53
Si  7.75  6.73 -2.34
Si -3.86  8.95  3.98
Si  1.93  1.10 10.30
Si  5.84  1.14 -8.70
Si  7.70  4.42 -6.31
Si  7.73 -4.45  6.29
Si  0.03  8.91  6.32
Si  0.01 -8.92 -6.32
Si -7.71  4.51 -6.31
Si -7.78 -4.47  6.32
Si  3.85 -2.22 10.21
Si  9.64 -5.56  0.74
Si  3.89  8.91 -5.49
Si  5.77 -7.82 -5.50
Si -3.87 -2.26 10.23
Si  9.68 -1.13 -5.49
Si -3.87  8.91 -5.55
Si -5.82 -7.82 -5.50
Si -9.66 -1.13 -5.55
Si -9.67 -5.61  0.76
Si -0.04  4.50 10.27
Si -0.04 11.20  0.80
Si  5.79 -3.33  9.44
Si -5.81 -3.33  9.44
Si -3.85  8.91  6.31
Si  5.78  3.33 -9.46
Si -9.65  5.56 -3.16
Si  5.78  7.83 -6.28
Si -9.65 -1.13  6.31
Si -0.01  6.71  9.44
Si  0.01 -11.15 -3.15
Si  5.79 -3.35 -9.46
Si -0.00  6.69 -9.46
Si -5.78 -7.80  6.32
Si -5.80 -3.35 -9.46
Si -5.81  3.33 -9.46
Si -5.79 10.04  0.01
Si 11.59 -0.00  0.01
Si -5.81  7.83 -6.28
Si  5.80 10.04  0.01
Si -0.01 -6.71 -9.46
Si -11.59 -0.00  0.01
Si  5.79 -10.04  0.01
Si -5.80 -10.04  0.01
Si  9.67  5.58 -3.14
Si  5.81 -7.80  6.32
Si -9.67 -5.60  3.13
Si -5.79  3.34  9.48
Si  5.80  3.34  9.48
Si  9.67  1.08 -6.33
Si -0.00 -6.70  9.48
Si  9.67 -1.11  6.33
Si  9.67 -5.61  3.14
Si  3.88  8.93  6.33
Si -9.67  1.09 -6.34
Si -0.01 11.17  3.19
Si -3.87 -8.95 -6.34
Si  3.87 -8.96 -6.33
Si  1.92  7.77 -8.65
Si -3.88 11.12  0.82
Si -7.71 -8.90  0.77
Si -1.91 -5.56 10.24
Si  7.71 -2.27 -8.65
Si  5.79  1.13 10.24
Si -5.79 10.03 -2.34
Si 11.59 -2.21  0.77
Si -5.80  1.13 10.24
Si -11.59 -0.01 -2.34
Si -0.02  0.01 -11.83
Si  5.80 10.03 -2.34
Si -7.71 -2.21 -8.70
Si  9.69  5.57  3.88
Si 11.60 -0.01 -2.34
Si -5.79 -10.05 -2.34
Si  0.01 -11.16  3.95
Si  3.89  4.48 10.24
Si -11.60 -2.21  0.77
Si  5.79 -5.56 -8.70
Si  5.80 -10.05 -2.34
Si -5.81 -5.56 -8.70
Si -3.88  4.42 10.29
Si -9.68  5.59  3.94
Si  7.71 -8.97  0.82
Si -1.91  7.83 -8.70
Si  3.89 11.18  0.77
Si  1.92 -5.62 10.29
Si -7.71  8.89 -3.18
Si -3.81 11.14  3.19
Si  3.86 11.14  3.14
Si -11.57 -2.22  3.17
Si -11.57  2.24 -3.17
Si  3.89 -6.66 -9.46
Si  3.86 -6.71  9.44
Si -7.70  0.03  9.47
Si -7.73 -0.01 -9.45
Si -3.86 -6.68 -9.47
Si -3.84  6.72  9.46
Si  7.74  0.02  9.46
Si -3.89  6.72 -9.45
Si  3.87  6.68  9.48
Si -3.89 -6.67  9.49
Si  3.86  6.68 -9.49
Si  7.73  8.92 -3.21
Si -3.87 -11.16 -3.21
Si -7.74 -8.95  3.14
Si  7.75  0.02 -9.48
Si 11.61  2.24 -3.17
Si 11.62 -2.22  3.17
Si  3.88 -11.20 -3.18
Si  7.78 -8.94  3.19
Si -11.55  4.48  0.77
Si  7.72  4.45 -8.64
Si  1.93 -3.34 -11.81
Si -0.00 -11.12 -5.53
Si  9.64 -3.35  7.09
Si  9.64  7.81  0.79
Si -3.88  0.01 -11.81
Si -1.96  3.34 -11.81
Si  9.65  3.33  7.11
Si  1.95 -10.01  7.12
Si -3.87 -11.13  3.98
Si  1.95  3.38 -11.81
Si -7.70  8.94  3.95
Si -9.66  7.79  0.83
Si -9.66  5.61 -5.49
Si  0.04 -8.90 -8.70
Si  3.89 -11.14  3.95
Si -7.74  6.69  7.09
Si -11.59  2.26  3.94
Si -1.95 -3.36 -11.83
Si 11.59  2.26  3.94
Si  3.85 -0.00 -11.85
Si -1.96 -12.27  0.79
Si -1.95 10.03  7.12
Si  7.72  6.70  7.12
Si -7.75  4.46 -8.68
Si -9.66  3.35  7.13
Si  7.73 -6.69  7.13
Si  1.93 -12.29  0.83
Si -9.67 -3.34  7.12
Si  9.69  5.59 -5.52
Si -1.96 -10.05  7.12
Si -7.75 -6.71  7.11
Si  7.73  8.95  3.98
Si  1.96 10.08  7.12
Si 11.64  4.48  0.77
Si -1.91 -12.23  3.15
Si  9.61 -7.81 -3.15
Si  9.62  5.57  6.32
Si -11.57 -4.48 -3.15
Si -11.57  4.47  3.15
Si -9.69  7.76  3.16
Si -9.66  5.59  6.29
Si  0.02 -2.23 12.62
Si  0.03  2.21 -12.62
Si  1.91  1.07 12.62
Si  9.68 -5.54 -6.31
Si -9.66 -7.80 -3.17
Si -1.98 -1.12 -12.62
Si -1.98 12.27 -3.15
Si -1.91  1.16 12.62
Si  0.02 11.17 -6.32
Si  1.94 12.28 -3.17
Si 11.61  4.47  3.15
Si  1.93 -1.10 -12.64
Si  0.03 -11.18  6.32
Si 11.62 -4.48 -3.15
Si  1.90 -12.32  3.16
Si -9.69 -5.62 -6.31
Si  9.69  7.85  3.15
Si  1.93  7.78 10.23
Si -7.71  8.91 -5.49
Si 11.57  2.22 -5.50
Si -7.75 -2.22 10.21
Si  5.75 -5.54 10.27
Si -1.95  7.82 10.21
Si  1.93 12.26  3.91
Si  7.72 -2.26 10.23
Si 11.57 -4.48  3.96
Si -1.91 12.26  3.98
Si  5.75  7.85 -8.67
Si -9.66 -7.83  3.91
Si  7.73  8.91 -5.55
Si  3.88 -11.17 -5.49
Si -11.62  2.22 -5.50
Si -5.84 -5.54 10.27
Si  3.84 -8.91 -8.73
Si  9.64  1.13 -8.73
Si -9.67  1.08 -8.71
Si -3.87 -11.17 -5.55
Si -11.62 -4.48  3.96
Si  9.68 -7.82  3.98
Si -5.84  7.85 -8.67
Si -3.88 -8.96 -8.71
Si 11.58 -2.21 -6.28
Si -3.87 -2.25 12.59
Si 11.58 -6.68 -0.03
Si 11.58  6.68  0.01
Si  3.87 11.12 -6.33
Si  3.87  2.24 -12.61
Si -11.58  2.24  6.32
Si  3.87 -2.27 12.60
Si  0.01 -4.45 -12.62
Si -11.61 -2.21 -6.28
Si  7.75  8.91  6.31
Si -3.87 11.14 -6.34
Si -11.60  6.68  0.01
Si -11.61 -6.68 -0.03
Si -3.85  2.22 -12.63
Si -7.72  8.93  6.33
Si  3.87 -11.15  6.33
Si -3.85 -11.17  6.31
Si -0.01 -13.40  0.01
Si -0.01 13.41 -0.03
Si 11.61  2.24  6.32
Si  7.72 -8.95 -6.34
Si -7.72 -8.96 -6.33
Si -0.01  4.48 12.66
Si -1.91 -1.12 13.35
Si  5.76  3.33 -11.80
Si  7.72 11.12  0.82
Si 11.56  6.68 -2.34
Si -13.50  1.14  0.77
Si -0.01 -8.91 10.24
Si -7.70  4.48 10.24
Si  0.01  6.69 -11.81
Si  5.79 -12.25  0.77
Si -5.79 -3.35 -11.81
Si 11.58 -6.69 -2.36
