500
set: 1616.00  0.00  0.00
Si  0.85 -1.11  0.88
Si -1.22  0.12 -1.76
Si -1.29 -0.93  1.71
Si -1.18 -2.10 -0.70
Si  2.06 -1.23 -1.05
Si  0.93 -0.06 -2.60
Si -1.58  2.42 -0.70
Si -3.05 -0.36  0.14
Si  2.78  1.25 -0.74
Si -1.66  1.37  2.78
Si  0.45  3.41  0.88
Si  1.59  2.25  2.42
Si  1.66  3.30 -1.05
Si  2.71  0.20  2.74
Si  2.00 -2.28  2.42
Si -1.69  3.59  1.71
Si -1.25 -3.15  2.78
Si -1.11 -1.05 -4.17
Si -2.98  0.69 -3.33
Si -4.00  0.81  2.03
Si -3.93  1.87 -1.45
Si  3.18 -3.28 -0.74
Si -3.52 -2.66 -1.45
Si  4.14 -1.90  1.20
Si  3.74  2.62  1.20
Si -0.82 -4.41 -1.76
Si  4.21 -0.85 -2.28
Si  0.79 -2.17  4.35
Si  0.38  2.36  4.35
Si -3.12 -1.41  3.62
Si  2.13 -0.17 -4.53
Si  0.52  4.46 -2.60
Si -1.62  4.64 -1.76
Si -4.75 -1.90  1.20
Si -4.68 -0.85 -2.28
Si  4.90  0.81  2.03
Si -3.45  4.17  0.14
Si  1.33 -4.59 -2.60
Si -1.15  1.17 -5.24
Si  4.97  1.87 -1.45
Si -3.59 -3.71  2.03
Si -2.65 -4.88  0.14
Si  2.85  2.30 -4.22
Si -1.51  3.47 -4.17
Si -2.58 -3.83 -3.33
Si -1.36 -1.99  5.19
Si  3.81  3.67 -2.28
Si  3.25 -2.23 -4.22
Si -0.89 -5.46  1.71
Si  1.26 -5.64  0.88
Si  5.85 -0.36  0.14
Si -5.16  2.62  1.20
Si  2.31  4.72  2.74
Si -3.52  3.11  3.62
Si  3.11 -4.33  2.74
Si -1.76  2.54  5.19
Si  3.67  1.57  4.68
Si  5.38 -2.66 -1.45
Si  1.52  1.20  5.90
Si -3.45 -1.61 -4.92
Si  0.99  0.99 -6.08
Si -0.75 -3.36 -5.24
Si  2.38  5.77 -0.74
Si -6.12  1.25 -0.74
Si  2.47 -5.75 -1.05
Si -1.73  0.32  6.26
Si  1.73  4.35 -4.53
Si -5.72 -3.28 -0.74
Si -5.09  3.67 -2.28
Si -0.78 -6.63 -0.70
Si -6.19  0.20  2.74
Si  5.31 -3.71  2.03
Si  2.64 -0.86  6.22
Si  5.92  0.69 -3.33
Si -2.06  5.89  2.78
Si -4.07 -0.24  5.51
Si  5.45  4.17  0.14
Si  4.08 -2.95  4.68
Si -3.86  2.92 -4.92
Si  5.78 -1.41  3.62
Si -0.71 -5.57 -4.17
Si  2.54 -4.70 -4.53
Si -6.83 -1.23 -1.05
Si  1.93 -3.33  5.90
Si -3.38  5.22 -3.33
Si  1.40 -3.54 -6.08
Si  4.29  0.20 -5.75
Si -5.23  1.57  4.68
Si  5.38  3.11  3.62
Si -4.40  5.34  2.03
Si -4.28 -5.37 -2.28
Si -1.99  6.95 -0.70
Si  4.50  5.34  2.03
Si  1.19  6.77  2.42
Si  4.83 -0.24  5.51
Si -4.83 -2.95  4.68
Si -4.62  0.20 -5.75
Si -5.65 -2.23 -4.22
Si  4.62 -5.37 -2.28
Si -2.71 -5.93  3.62
Si  5.45 -1.61 -4.92
Si  2.24  3.67  6.22
Si -2.91  1.74 -6.81
Si  2.40 -6.80  2.42
Si  5.04  2.92 -4.92
Si -1.32 -4.20  6.26
Si -6.91 -2.28  2.42
Si -1.04  0.00 -7.65
Si -6.05  2.30 -4.22
Si -5.79 -4.33  2.74
Si  7.32  2.42 -0.70
Si -2.50 -2.78 -6.81
Si -4.33  6.39 -1.45
Si -4.35 -6.42  1.20
Si  7.61 -0.93  1.71
Si  7.25  1.37  2.78
Si  7.68  0.12 -1.76
Si -1.55  5.69 -5.24
Si  6.25 -4.88  0.14
Si  0.31  1.31  7.83
Si  4.55 -6.42  1.20
Si -3.12 -7.18 -1.45
Si  3.34  7.15  1.20
Si  0.05  7.93  0.88
Si  4.57  6.39 -1.45
Si  1.26  7.82 -1.05
Si -7.31  2.25  2.42
Si -7.24  3.30 -1.05
Si  7.72 -2.10 -0.70
Si  1.19 -6.69  4.35
Si  6.33 -3.83 -3.33
Si -0.02  6.88  4.35
Si -6.76 -0.17 -4.53
Si -3.66 -4.76  5.51
Si -3.19 -2.46  7.10
Si -8.04 -1.11  0.88
Si -2.13  4.84  6.26
Si -0.85 -7.68  2.78
Si -3.59  2.06  7.10
Si  0.59  5.51 -6.08
Si  7.21  3.59  1.71
Si  4.43  4.29  5.51
Si -4.47  4.29  5.51
Si  1.12  5.72  5.90
Si  5.52  5.22 -3.33
Si -4.21 -4.32 -5.75
Si  3.27  6.10  4.68
Si  2.21  0.88 -8.01
Si -0.96 -6.51  5.19
Si  2.45  6.82 -4.22
Si -7.97 -0.06 -2.60
Si  3.88  4.73 -5.75
Si -3.05 -6.13 -4.92
Si  3.32 -1.18 -7.70
Si  0.71 -3.22  7.83
Si -2.09  8.11  1.71
Si -6.59  4.72  2.74
Si  4.69 -4.32 -5.75
Si  3.58 -7.80 -0.74
Si -6.43 -5.75 -1.05
Si  7.65 -3.15  2.78
Si -6.52  5.77 -0.74
Si  3.65 -6.75 -4.22
Si  3.04 -5.38  6.22
Si  7.28  4.64 -1.76
Si -6.26 -0.86  6.22
Si  2.92  3.35 -7.70
Si  7.79 -1.05 -4.17
Si -0.64 -4.52 -7.65
Si  3.60  0.52  8.16
Si  5.24 -4.76  5.51
Si -5.02  4.73 -5.75
Si -1.83  1.49  8.67
Si -1.44  4.53 -7.65
Si -2.16  7.06  5.19
Si -0.68 -2.31 -8.72
Si -3.19 -8.23  2.03
Si -1.08  2.22 -8.72
Si -3.38 -0.56 -8.40
Si  5.31  2.06  7.10
Si -0.41 -8.93 -1.76
Si -6.36 -4.70 -4.53
Si -5.56  7.15  1.20
Si -8.45  3.41  0.88
Si  3.41  8.20 -2.28
Si  7.39  3.47 -4.17
Si  2.61 -3.65 -8.01
Si  7.14  2.54  5.19
Si -1.92  8.00 -4.17
Si -7.57 -4.59 -2.60
Si  5.99  1.74 -6.81
Si -2.17 -8.36 -3.33
Si -1.43 -3.04  8.67
Si  6.18 -5.93  3.62
Si -3.92  7.64  3.62
Si  5.78 -7.18 -1.45
Si  0.12  8.98 -2.60
Si  7.54 -1.99  5.19
Si  8.08 -4.41 -1.76
Si  7.75  1.17 -5.24
Si  5.71 -2.46  7.10
Si  6.84  5.89  2.78
Si -8.12 -2.17  4.35
Si -5.32 -7.80 -0.74
Si -0.34 -7.88 -5.24
Si  1.45  0.14  9.38
Si -3.85  8.69  0.14
Si -7.38  1.20  5.90
Si -5.63  6.10  4.68
Si  7.17  0.32  6.26
Si -7.17  4.35 -4.53
Si -5.25 -6.75 -4.22
Si -7.64 -5.64  0.88
Si -2.02  9.16 -1.76
Si -5.58 -1.18 -7.70
Si  1.73 -9.11 -2.60
Si -2.24 -9.41  0.14
Si -6.50 -6.80  2.42
Si -6.97 -3.33  5.90
Si -5.30  0.52  8.16
Si  6.39 -2.78 -6.81
Si -0.09  5.83  7.83
Si  5.85 -6.13 -4.92
Si  4.98  7.64  3.62
Si -6.66  3.67  6.22
Si  6.91  6.95 -0.70
Si  1.80  5.40 -8.01
Si  1.91  9.24  2.74
Si -3.31  6.27 -6.81
Si  1.06  2.04 -9.56
Si -8.38  4.46 -2.60
Si  8.01 -5.46  1.71
Si -8.52  2.36  4.35
Si  9.76 -1.11  0.88
Si -4.42 -7.48  4.68
Si -4.26  7.44 -4.92
Si  4.48 -7.48  4.68
Si  3.51 -8.85  2.74
Si -1.79 -0.73  9.74
Si  4.00 -4.00  8.16
Si -4.14 -1.29  8.99
Si  1.47 -2.49 -9.56
Si  9.35  3.41  0.88
Si -7.91  0.99 -6.08
Si -3.79  3.97 -8.40
Si  5.05  8.69  0.14
Si  1.33  8.87 -4.53
Si  4.64  7.44 -4.92
Si  5.52 -0.56 -8.40
Si -5.86 -5.38  6.22
Si  2.33 -7.85  5.90
Si  3.20  5.04  8.16
Si -5.49  8.20 -2.28
Si -0.48 -9.98  1.71
Si  9.82 -0.06 -2.60
Si -2.10 -7.30 -6.81
Si  2.57 -1.91  9.69
Si  5.71 -8.23  2.03
Si  4.76 -1.29  8.99
Si  1.80 -8.06 -6.08
Si  8.15 -3.36 -5.24
Si -2.98 -5.08 -8.40
Si -10.12  0.12 -1.76
Si  2.17  2.62  9.69
Si  3.72 -5.70 -7.70
Si  4.36  1.25 -9.23
Si -7.50 -3.54 -6.08
Si -6.45  6.82 -4.22
Si -5.98  3.35 -7.70
Si -4.89 -4.00  8.16
Si -10.08 -2.10 -0.70
Si  1.66 -10.16  0.88
Si -2.79 -6.99  7.10
Si -4.54  1.25 -9.23
Si -10.19 -0.93  1.71
Si  6.77  4.84  6.26
Si  1.84  8.19  6.22
Si -3.99  6.59  7.10
Si -6.70  0.88 -8.01
Si  4.36  3.24  8.99
Si  8.12 -6.63 -0.70
Si  1.98 10.29 -0.74
Si  1.85 -4.38  9.38
Si  9.28  2.36  4.35
Si  1.05  4.67  9.38
Si -7.71  6.77  2.42
Si -4.54  3.24  8.99
Si  5.11  3.97 -8.40
Si -4.14 -3.27 -9.23
Si  7.35  5.69 -5.24
Si -2.20  3.79  9.74
Si  2.94 -9.22 -4.53
Si  7.58 -4.20  6.26
Si -2.44 -1.73 -10.29
Si -5.39 -8.85  2.74
Si  2.87 -10.27 -1.05
Si  6.81  8.11  1.71
Si  9.42  4.46 -2.60
Si  8.19 -5.57 -4.17
Si -0.92 -8.73  6.26
Si -10.48  2.42 -0.70
Si -2.23  6.01  8.67
Si -9.72 -4.41 -1.76
Si  5.59  6.27 -6.81
Si -6.29 -3.65 -8.01
Si  9.69 -2.17  4.35
Si  4.91  6.59  7.10
Si -3.88 -9.90 -2.28
Si  4.10  9.86  2.03
Si -5.18 -5.70 -7.70
Si  4.76 -3.27 -9.23
Si -10.01 -1.05 -4.17
Si -0.31 -10.10 -4.17
Si -3.78  9.74 -3.33
Si  7.86  0.00 -7.65
Si -7.64  7.82 -1.05
Si -10.15 -3.15  2.78
Si -10.55  1.37  2.78
Si 10.49  2.25  2.42
Si -2.84  2.79 -10.29
Si  6.74  7.06  5.19
Si -2.46 10.42  2.78
Si  1.12 -7.74  7.83
Si -0.27 -6.83 -8.72
Si 10.96 -1.23 -1.05
Si -7.71 -6.69  4.35
Si 10.56  3.30 -1.05
Si -1.48  6.74 -8.72
Si  4.03  8.81  5.51
Si -1.39 -5.25  9.74
Si -4.80  9.86  2.03
Si -5.70  5.04  8.16
Si -0.38 -11.15 -0.70
Si -3.81 -8.85 -5.75
Si -0.97  1.05 -11.13
Si  6.73 -8.36 -3.33
Si -3.66  1.01 10.58
Si -3.26 -9.29  5.51
Si  7.07  1.49  8.67
Si  2.52  7.87 -7.70
Si -2.31 -10.46  3.62
Si -10.59  3.59  1.71
Si  0.24  0.26 11.31
Si -7.78  5.72  5.90
Si  5.02 -9.90 -2.28
Si -3.73 -5.81  8.99
Si -9.79 -5.46  1.71
Si 10.89 -2.28  2.42
Si -10.05  1.17 -5.24
Si  6.98  8.00 -4.17
Si  3.48  9.25 -5.75
Si  5.92 -5.08 -8.40
Si  8.05 -7.68  2.78
Si -4.87  8.81  5.51
Si -9.65 -3.36 -5.24
Si  5.12  9.74 -3.33
Si 10.23 -4.59 -2.60
Si  7.94 -6.51  5.19
Si  6.66 -9.41  0.14
Si -2.53  9.37  6.26
Si -1.03 -7.56  8.67
Si  0.79 11.29  2.42
Si  3.95  5.78 -9.23
Si  6.88  9.16 -1.76
Si  7.46  4.53 -7.65
Si -3.26 -3.51 10.58
Si  0.66  6.56 -9.56
Si -10.52  4.64 -1.76
Si -1.95 10.22 -5.24
Si 10.16 -5.64  0.88
Si  9.89  0.99 -6.08
Si -10.26 -1.99  5.19
Si -0.57 -3.47 -11.13
Si -8.31  5.51 -6.08
Si  3.39 -0.12 -11.17
Si  6.12 -6.99  7.10
Si -8.59  1.31  7.83
Si -3.95 -10.95  1.20
Si  5.09 -8.85 -5.75
Si -6.33 -1.91  9.69
Si  0.19 10.04 -6.08
Si -2.39 11.47 -0.70
Si -10.41  3.47 -4.17
Si -9.68 -6.63 -0.70
Si 11.68  1.25 -0.74
Si  4.17 10.91 -1.45
Si -8.19 -3.22  7.83
Si -6.57 -7.85  5.90
Si  3.01 -8.17 -8.01
Si  7.47 -3.04  8.67
Si  0.72 10.24  5.90
Si  5.24  1.01 10.58
Si -0.24 -9.05 -7.65
Si  2.27  1.93 -11.49
Si -9.61 -5.57 -4.17
Si -5.96 -9.22 -4.53
Si  5.17 -5.81  8.99
Si -7.17 -9.11 -2.60
Si -6.99  9.24  2.74
Si  2.80 -11.33  2.42
Si -8.85  7.93  0.88
Si  7.82  2.22 -8.72
Si 11.61  0.20  2.74
Si 11.04 -0.17 -4.53
Si -11.95 -0.36  0.14
Si  2.87 10.62  4.68
Si -6.03 -10.27 -1.05
Si -4.95  5.78 -9.23
Si -7.45  0.14  9.38
Si -4.73 10.91 -1.45
Si -7.10  5.40 -8.01
Si  8.95  7.93  0.88
Si -1.85  9.05 -7.65
Si  1.87 -7.01 -9.56
Si  2.97 -6.43  9.69
Si -2.65 -10.65 -4.92
Si 10.42  1.20  5.90
Si  8.88  6.88  4.35
Si  7.11 -0.73  9.74
Si  4.95 -10.95  1.20
Si -8.92  6.88  4.35
Si  2.68 -2.60 -11.49
Si  6.80 -7.30 -6.81
Si -6.73  2.62  9.69
Si  2.94 11.67  1.20
Si -2.72 -11.71 -1.45
Si  0.65 -4.27 11.31
Si -10.66  2.54  5.19
Si  8.26 -4.52 -7.65
Si  1.59 -11.21  4.35
Si  9.21  1.31  7.83
Si -5.42  9.25 -5.75
Si  1.77  7.14  9.69
Si  3.53 -0.53 11.64
Si  5.64 -9.29  5.51
Si  3.44 -9.90  6.22
Si  8.22 -2.31 -8.72
Si -0.56 -11.03  5.19
Si -2.03 -6.25 -10.29
Si -0.42 11.41  4.35
Si  6.06  2.79 -10.29
Si  6.46 -1.73 -10.29
Si  2.05 11.35 -4.22
Si -0.61 -1.25 -12.20
Si -0.16  4.78 11.31
Si -1.90  0.44 12.15
Si -10.62  0.32  6.26
Si -3.31  0.49 -11.88
Si -7.10 -8.06 -6.08
Si 10.63  4.35 -4.53
Si -11.88  0.69 -3.33
Si -7.43 -2.49 -9.56
Si  2.99  4.40 -11.17
Si 10.09  6.77  2.42
Si  6.70  3.79  9.74
Si  0.86 12.35 -1.05
Si -6.92 10.29 -0.74
Si  8.49 -8.93 -1.76
Si -5.51 -0.12 -11.17
Si 11.21  4.72  2.74
Si 10.30 -3.54 -6.08
Si -7.06  8.19  6.22
Si  6.67  6.01  8.67
Si -0.35 12.46  0.88
Si  5.64 -3.51 10.58
Si -7.24 -10.16  0.88
Si -7.57  8.87 -4.53
Si  3.96  7.76  8.99
Si -0.45 -12.20  2.78
Si -7.04 -4.38  9.38
Si -1.37  5.58 -11.13
Si -7.83  2.04 -9.56
Si -11.54 -4.88  0.14
Si 12.08 -3.28 -0.74
Si -9.94  0.00 -7.65
Si  9.49  5.51 -6.08
Si -11.47 -3.83 -3.33
Si  6.44 10.42  2.78
Si  4.41 -8.53  8.16
Si -4.06  5.54 10.58
Si -4.49 -8.53  8.16
Si -12.02 -1.41  3.62
Si -3.74 -7.79 -9.23
Si -4.19  8.49 -8.40
Si -1.01  3.27 -12.20
Si  3.79 -4.65 -11.17
Si 11.28  5.77 -0.74
Si 11.75  2.30 -4.22
Si  3.13  3.99 11.64
Si  4.06 -11.27 -4.22
Si -10.22 -4.20  6.26
Si -9.75 -7.68  2.78
Si -6.38  7.87 -7.70
Si -10.96  5.89  2.78
Si  8.56 -7.88 -5.24
Si 10.82 -3.33  5.90
Si 11.37 -5.75 -1.05
Si -12.42 -2.66 -1.45
Si  9.62 -3.22  7.83
Si -5.37 -0.53 11.64
