500
set: 1054.00  0.00  0.00
Si  0.46 -1.18  0.82
Si -0.39  1.28 -0.80
Si -1.32 -0.98 -0.79
Si  1.37  1.13  0.77
Si  0.82  0.10 -2.37
Si -2.15  1.07  0.83
Si  2.17 -1.15 -0.89
Si -0.85 -0.05  2.48
Si -0.06 -2.29 -2.37
Si  0.10  2.31  2.42
Si -3.07 -1.24  0.83
Si  3.12  1.15 -0.80
Si  2.52 -0.08  2.44
Si -2.60  0.03 -2.52
Si -0.43 -3.55  0.77
Si -1.27  3.45  0.83
Si  1.74  2.39 -2.37
Si -1.71 -2.37  2.42
Si  0.48  3.71 -0.79
Si  1.68 -2.42  2.46
Si -1.78  2.31 -2.51
Si  1.32 -3.53 -0.80
Si -3.86  1.15 -0.80
Si -2.19 -3.40 -0.80
Si -0.80 -0.03 -4.11
Si  3.92 -1.24  0.83
Si  0.83  0.05  4.15
Si  2.26  3.50  0.82
Si  0.05  2.29 -4.05
Si -0.09 -2.24  4.15
Si -3.02  3.53 -0.89
Si  3.03 -3.61  0.83
Si  2.58 -0.08 -4.06
Si -2.68 -0.03  4.01
Si  3.48  2.26  2.46
Si -3.51  2.26  2.46
Si  3.41 -2.37 -2.51
Si -1.71  2.38  4.01
Si -3.58 -2.37 -2.51
Si -1.75 -2.39 -4.05
Si  1.63 -2.43 -4.08
Si  4.83  1.07  0.83
Si -4.82 -1.15 -0.89
Si  4.38  0.03 -2.52
Si -4.46 -0.08  2.44
Si  1.71  2.44  4.15
Si -0.98 -4.58 -2.37
Si  0.94  4.63  2.48
Si  3.97  3.53 -0.89
Si -0.80  4.71 -2.52
Si  0.72 -4.77  2.44
Si -3.96 -3.61  0.83
Si -5.61  1.13  0.77
Si  3.48 -2.31  4.01
Si  3.43  2.25 -4.08
Si  5.66 -0.98 -0.79
Si -3.51 -2.31  4.01
Si -0.35  5.75  0.83
Si -2.66  4.60  2.44
Si -3.55  2.25 -4.08
Si  4.30 -0.03  4.01
Si  2.58 -4.65 -2.52
Si  0.48 -1.22 -5.75
Si  0.37 -5.83 -0.89
Si -0.43  1.37  5.73
Si  4.79 -3.40 -0.80
Si -4.73  3.50  0.82
Si  2.62  4.78 -2.37
Si -1.30 -1.05  5.72
Si -2.66 -4.73  2.48
Si  1.37  1.16 -5.70
Si -4.40 -0.08 -4.06
Si -1.34 -5.86  0.82
Si  1.41  5.96 -0.80
Si -2.16  1.10 -5.69
Si -0.88  4.65  4.01
Si  5.21  2.31 -2.51
Si -2.06  5.83 -0.80
Si -5.25  2.39 -2.37
Si  2.22 -1.19  5.72
Si  5.28 -2.37  2.42
Si  1.00  4.65 -4.11
Si -0.97 -4.63  4.15
Si  0.79 -4.76 -4.06
Si -5.31 -2.42  2.46
Si  2.12 -5.92  0.83
Si -3.12 -5.66 -0.79
Si  3.06  1.20  5.63
Si -3.05 -1.27 -5.69
Si -6.17  0.10 -2.37
Si  6.13 -0.05  2.48
Si -2.60  4.60 -4.06
Si  3.17  5.81  0.77
Si  2.50 -4.71  4.01
Si -6.53 -1.18  0.82
Si -0.43 -3.52 -5.70
Si -5.66 -3.53 -0.80
Si  5.72  3.45  0.83
Si  1.26 -3.49  5.63
Si -1.25  3.41 -5.69
Si  6.59  1.28 -0.80
Si  4.33  4.60  2.44
Si -2.60 -4.72 -4.11
Si  0.50  3.63  5.72
Si  2.63  4.73  4.15
Si  4.33 -4.73  2.48
Si -4.41 -4.65 -2.52
Si  3.86 -5.66 -0.79
Si -4.37  4.78 -2.37
Si -3.92  1.20  5.63
Si -2.23 -3.31  5.73
Si -3.81  5.81  0.77
Si  5.24 -2.39 -4.05
Si  5.28  2.38  4.01
Si  3.94 -1.27 -5.69
Si  2.28  3.47 -5.75
Si -5.28  2.44  4.15
Si -5.36 -2.43 -4.08
Si -2.97  3.49  5.72
Si  3.02 -3.58 -5.69
Si  0.47 -1.21  7.29
Si -6.16  0.05  4.15
Si  6.19 -0.03 -4.11
Si  0.02  6.99 -2.51
Si -0.42  1.36 -7.31
Si  6.56 -3.55  0.77
Si -1.29 -1.06 -7.33
Si -0.12 -7.10  2.46
Si -6.51  3.71 -0.79
Si -7.38  1.28 -0.80
Si  4.38  4.60 -4.06
Si  4.82  1.10 -5.69
Si -4.77 -1.19  5.72
Si  1.35  1.16  7.34
Si -1.71  6.94  2.46
Si  7.45 -1.18  0.82
Si -1.86 -6.97 -2.37
Si  1.90  6.99  2.42
Si  4.39 -4.72 -4.11
Si -4.49 -4.71  4.01
Si -4.36  4.73  4.15
Si -6.89  2.31  2.42
Si  1.61 -7.05 -2.51
Si  6.92 -2.29 -2.37
Si  4.93  5.83 -0.80
Si -4.87 -5.92  0.83
Si  2.23 -1.19 -7.32
Si -2.18  1.11  7.35
Si -7.05 -2.29 -2.37
Si -3.96 -3.58 -5.69
Si  4.02  3.49  5.72
Si  7.08  2.31  2.42
Si  6.00 -4.58 -2.37
Si -6.04  4.63  2.48
Si -3.06 -1.26  7.35
Si -5.62  1.16 -5.70
Si  3.08  1.19 -7.41
Si  0.09  7.06  4.01
Si -0.36  5.79 -5.69
Si  5.69 -1.05  5.72
Si -0.45 -3.52  7.34
Si  4.76 -3.31  5.73
Si  7.80  0.10 -2.37
Si  6.18  4.71 -2.52
Si  5.65 -5.86  0.82
Si  0.51  3.62 -7.33
Si  0.53  8.13  0.83
Si -0.17 -7.11 -4.08
Si -1.26  3.42  7.35
Si -4.71  3.47 -5.75
Si -5.58  5.96 -0.80
Si  0.42 -5.87  5.72
Si -3.45  7.07 -2.37
Si -7.84 -0.05  2.48
Si  1.68 -6.99  4.01
Si  3.48 -7.05  2.42
Si -1.75  6.94 -4.08
Si -3.51 -7.05  2.42
Si -6.26 -4.77  2.44
Si  3.54  7.07 -2.37
Si -7.42 -3.55  0.77
Si -0.48 -8.21 -0.80
Si  1.85  6.97 -4.05
Si  1.28 -3.49 -7.41
Si -1.89 -6.92  4.15
Si -2.22 -3.32 -7.31
Si -1.32 -5.90 -5.75
Si -6.93  2.29 -4.05
Si -1.22  8.21 -0.89
Si  6.90 -2.24  4.15
Si  7.46  3.71 -0.79
Si  2.27  3.47  7.29
Si -8.31 -0.98 -0.79
Si -2.12  5.88  5.63
Si  1.23 -8.29  0.83
Si  3.92 -1.26  7.35
Si  7.04  2.29 -4.05
Si  1.37  6.05  5.73
Si -3.91  1.19 -7.41
Si  8.36  1.13  0.77
Si -7.08 -2.24  4.15
Si  2.14 -5.95 -5.69
Si -2.23 -8.24  0.77
Si -5.99  4.65 -4.11
Si -2.96  3.49 -7.32
Si  6.02 -4.63  4.15
Si  2.99 -8.08 -0.80
Si  6.10  4.65  4.01
Si -3.10 -5.74  5.72
Si  3.01 -3.57  7.35
Si  2.28  8.39 -0.79
Si -2.93  8.18  0.82
Si  3.17  5.84 -5.70
Si -5.72 -3.49  5.63
Si -6.51 -1.22 -5.75
Si  5.74  3.41 -5.69
Si -7.79 -0.03 -4.11
Si -4.75 -1.19 -7.32
Si -6.20 -4.76 -4.06
Si  6.56  1.37  5.73
Si  6.63  5.75  0.83
Si  3.44 -7.07 -4.05
Si  7.82  0.05  4.15
Si  4.81  1.11  7.35
Si -6.62 -5.83 -0.89
Si -3.55 -7.07 -4.05
Si  0.84  0.05 -8.89
Si -3.48  7.12  4.15
Si  3.51  7.12  4.15
Si  5.12 -6.97 -2.37
Si -0.81 -0.03  8.94
Si -5.09  6.99  2.42
Si  3.89 -5.74  5.72
Si -8.26  3.45  0.83
Si -3.82  5.84 -5.70
Si -3.99 -8.08 -0.80
Si  4.03  3.49 -7.32
Si  5.28  6.94  2.46
Si  8.31 -3.53 -0.80
Si -3.98 -3.57  7.35
Si -0.08 -2.24 -8.89
Si  4.06  8.18  0.82
Si -5.38 -7.05 -2.51
Si -9.14  1.07  0.83
Si  9.16 -1.15 -0.89
Si  0.04  2.29  9.00
Si -5.63  1.16  7.34
Si  8.66 -2.42  2.46
Si -8.69 -2.37  2.42
Si  4.77 -3.32 -7.31
Si  5.70 -1.06 -7.33
Si  2.57 -0.08  8.99
Si  8.72  2.39 -2.37
Si -4.72  3.47  7.29
Si -0.38  5.79  7.35
Si -7.34  5.75  0.83
Si  6.55 -3.52 -5.70
Si -6.49  3.63  5.72
Si  1.72  2.44 -8.89
Si  7.71 -4.77  2.44
Si  0.43 -5.87 -7.32
Si -8.76  2.31 -2.51
Si -2.67 -0.04 -9.03
Si  1.62 -2.42  8.97
Si  7.36 -5.83 -0.89
Si -7.79  4.71 -2.52
Si -1.33 -5.89  7.29
Si -7.42  1.37  5.73
Si -1.76 -2.39  9.00
Si  4.86  5.88  5.63
Si -7.97 -4.58 -2.37
Si -1.70  2.37 -9.04
Si  7.47 -1.22 -5.75
Si  7.93  4.63  2.48
Si  4.76 -8.24  0.77
Si  5.10 -6.92  4.15
Si -5.13  6.97 -4.05
Si -4.85 -5.95 -5.69
Si  1.38  6.04 -7.31
Si  5.23  6.94 -4.08
Si -0.86  9.28  2.44
Si -5.31 -6.99  4.01
Si -4.71  8.39 -0.79
Si -2.11  5.87 -7.41
Si  2.12 -5.95  7.35
Si  0.78 -9.33 -2.52
Si  1.00  9.40 -2.52
Si -3.09 -5.74 -7.33
Si -1.08 -9.45  2.44
Si  9.51 -0.08  2.44
Si -9.18 -3.40 -0.80
Si  8.62 -2.43 -4.08
Si -6.52 -1.21  7.29
Si  3.42  2.26  8.97
Si -8.70  2.38  4.01
Si  3.15  5.84  7.34
Si -3.57  2.26  8.97
Si  0.55  8.09 -5.69
Si -9.59  0.03 -2.52
Si -8.73 -2.39 -4.05
Si  9.25  3.50  0.82
Si  5.72  3.42  7.35
Si  6.57  1.36 -7.31
Si -0.54 -8.17  5.63
Si  8.70  2.44  4.15
Si  3.49 -2.31 -9.04
Si -2.79 -9.26 -2.37
Si -3.50 -2.31 -9.04
Si  7.77 -4.76 -4.06
Si -7.87  4.65  4.01
Si -5.71 -3.49 -7.41
Si  5.67 -5.90 -5.75
Si -7.42 -3.52 -5.70
Si  4.32 -0.04 -9.03
Si -4.42 -0.08  8.99
Si  2.75  9.31  2.48
Si -1.17  8.18  5.72
Si -5.62  6.05  5.73
Si  2.53 -9.41  2.48
Si -0.96 -4.64 -8.89
Si  5.77  8.21 -0.89
Si -2.57  9.46 -2.37
Si  3.90 -5.74 -7.33
Si  7.49  3.63  5.72
Si -7.96 -4.63  4.15
Si  1.22 -8.26 -5.69
Si  7.99  4.65 -4.11
Si -8.29 -1.05  5.72
Si  0.99  4.65  8.94
Si -5.76 -8.29  0.83
Si -3.83  5.84  7.34
Si -0.80  9.28 -4.06
Si -10.06 -1.24  0.83
Si  8.35  1.16 -5.70
Si  6.86 -7.10  2.46
Si -6.96  6.99 -2.51
Si -0.87  4.65 -9.03
Si  0.77 -4.76  8.99
Si  0.92  9.33  4.01
Si 10.11  1.15 -0.80
Si  7.01  6.99 -2.51
Si -8.33 -5.86  0.82
Si  0.70 -9.39  4.01
Si -2.23 -8.21 -5.70
Si  2.96 -8.00  5.73
Si  8.39  5.96 -0.80
Si -1.02 -9.45 -4.06
Si  2.30  8.31  5.72
Si -7.11 -7.10  2.46
Si -2.91  8.15 -5.75
Si  9.57 -0.08 -4.06
Si -6.46  8.13  0.83
Si  2.64  4.73 -8.89
Si -6.47  3.62 -7.33
Si -2.62  4.61  8.99
Si -2.61 -4.71  8.94
Si  6.54 -3.52  7.34
Si  4.20 -9.26 -2.37
Si -9.67 -0.03  4.01
Si  6.62  5.79 -5.69
Si -7.40  1.36 -7.31
Si  7.45 -1.21  7.29
Si  2.52 -4.72 -9.03
Si -6.57 -5.87  5.72
Si  6.51 -8.21 -0.80
Si -4.24  9.31  2.48
Si -0.26 10.52 -0.80
Si -2.77 -9.31  4.15
Si  1.45 10.44  0.83
Si  2.80  9.33 -4.11
Si  2.06 -10.34 -0.79
Si  2.59 -9.40 -4.11
Si -8.23  3.41 -5.69
Si  8.25 -3.49  5.63
Si -2.56  9.41  4.15
Si -0.84 -0.05 -10.57
Si -5.26  2.44 -8.89
Si -4.86 -5.95  7.35
Si -4.03 -8.00  5.73
Si  0.32 -10.60  0.83
Si  4.88  5.87 -7.41
Si -10.00  3.53 -0.89
Si -1.43 -10.51 -0.89
Si -6.90  7.06  4.01
Si  6.82 -7.11 -4.08
Si  5.22 -2.39  9.00
Si 10.02 -3.61  0.83
Si -4.46 -9.41  2.48
Si  0.80  0.10 10.68
Si  4.42  9.46 -2.37
Si -2.01 10.49  0.77
Si -5.37 -2.42  8.97
Si  5.29  2.37 -9.04
Si  7.08  7.06  4.01
Si  4.08  8.15 -5.75
Si -9.05  5.83 -0.80
Si -6.14  0.05 -8.89
Si -9.15  1.10 -5.69
Si -2.62  0.04 10.53
Si  6.17 -0.03  8.94
Si  0.11  2.30 -10.63
Si -7.16 -7.11 -4.08
Si  9.10 -5.92  0.83
Si  2.54 -0.09 -10.60
Si  9.21 -1.19  5.72
Si -0.08 -2.29 10.67
Si -1.79  2.31 10.53
Si  9.57 -4.65 -2.52
Si -10.85  1.15 -0.80
Si  5.65 -5.89  7.29
Si  0.54  8.10  7.35
Si -7.35  5.79 -5.69
Si 10.40 -2.37 -2.51
Si -9.65  4.60  2.44
Si -4.34  4.73 -8.89
Si  1.69 -2.42 -10.58
Si  9.60  4.78 -2.37
Si 10.46  2.26  2.46
Si  4.37  4.61  8.99
Si 10.90 -1.24  0.83
Si  4.37 -4.71  8.94
Si -10.49  2.26  2.46
Si -5.60  6.04 -7.31
Si -4.18  9.33 -4.11
Si -1.69 -2.38 -10.63
Si -9.64 -4.73  2.48
Si -7.43 -3.52  7.34
Si -1.15  8.17 -7.32
Si  4.21 -9.31  4.15
Si -3.14 -10.54  0.82
Si -0.52 -8.17 -7.41
Si  7.41 -5.87  5.72
Si  4.75 -8.21 -5.70
Si  1.72  2.39 10.67
Si  7.50  3.62 -7.33
Si -8.27 -1.06 -7.33
Si  7.52  8.13  0.83
Si -10.56 -2.37 -2.51
Si  1.21 -8.26  7.35
Si -4.69  8.31  5.72
Si -7.46 -8.21 -0.80
Si -4.47 -4.72 -9.03
Si  3.21 10.65 -0.80
Si -4.40 -9.40 -4.11
Si  8.34  1.16  7.34
Si  4.43  9.41  4.15
Si -2.25 -8.20  7.34
Si  2.97 -8.00 -7.31
Si  3.85 -10.54  0.82
Si  2.31  8.30 -7.33
Si  3.40 -2.37 10.53
Si -2.92  8.15  7.29
Si -3.78 10.65 -0.80
Si  9.49 -4.71  4.01
Si -9.22 -3.31  5.73
Si  3.49  2.26 -10.58
Si -3.50  2.26 -10.58
Si -3.59 -2.37 10.53
Si -9.59  4.60 -4.06
Si  6.13  9.28  2.44
Si -8.69  6.94  2.46
Si  4.37  0.04 10.53
Si  8.60 -7.05 -2.51
Si  5.91 -9.45  2.44
Si 10.42  2.25 -4.08
Si -1.88 -6.92 -8.89
Si -5.99  9.40 -2.52
Si 10.46 -2.31  4.01
Si -0.18 -7.10  8.97
Si -9.59 -4.72 -4.11
Si  9.27  3.47 -5.75
Si -6.56 -5.87 -7.32
Si  6.61  5.79  7.35
Si  0.10  7.05 -9.04
Si -10.50 -2.31  4.01
Si -1.77  6.94  8.97
Si  6.91 -2.24 -8.89
Si -4.92 -10.34 -0.79
Si -6.21 -9.33 -2.52
Si  9.62  4.73  4.15
Si -4.45 -0.09 -10.60
Si -8.85 -6.97 -2.37
Si -10.54  2.25 -4.08
Si  1.84  6.98  9.00
Si 10.96  3.53 -0.89
Si  1.69 -6.99 -9.04
Si -10.94 -3.61  0.83
Si  5.82  8.18  5.72
Si -4.02 -8.00 -7.31
Si  8.88  6.99  2.42
Si -8.25  3.42  7.35
Si -0.82  4.72 10.53
Si -5.76 -8.26 -5.69
Si -7.06 -2.24 -8.89
Si  0.96  4.63 -10.57
Si 10.05  1.20  5.63
Si -6.95  2.29  9.00
Si -10.04 -1.27 -5.69
Si -10.11 -5.66 -0.79
Si  8.26 -3.49 -7.41
