500
set: 1343.00  0.00  0.00
Si  0.37  0.46  0.52
Si  1.32 -1.41 -0.52
Si -2.11  0.48  0.51
Si  1.36  2.38 -0.52
Si  0.61 -0.06  2.75
Si  1.09 -0.88 -2.75
Si -3.02 -1.43 -0.51
Si  0.32 -3.33  0.52
Si -1.13 -0.10 -3.42
Si -2.98  2.36 -0.51
Si -2.72  1.03  2.67
Si -2.15 -3.31  0.51
Si -2.35  1.81 -2.67
Si -0.61  1.85  3.50
Si -0.65 -1.94  3.50
Si  3.79 -1.43 -0.51
Si -2.39 -1.98 -2.67
Si  1.13  2.91 -2.75
Si  0.41  4.25  0.52
Si  2.35  0.99 -3.50
Si  2.83 -0.84  3.42
Si  3.83  2.36 -0.51
Si  0.66  3.73  2.75
Si -2.76 -2.75  2.67
Si  4.71  0.48  0.51
Si  0.57 -3.85  2.75
Si -2.06  4.27  0.51
Si  4.09  1.03  2.67
Si  2.31 -2.79 -3.50
Si -1.08  3.68 -3.42
Si -1.17 -3.90 -3.42
Si -3.99 -0.84  3.42
Si  2.87  2.95  3.42
Si  1.27 -5.20 -0.52
Si  4.47  1.81 -2.67
Si  1.05 -4.67 -2.75
Si  4.42 -1.98 -2.67
Si  4.05 -2.75  2.67
Si -5.50 -1.41 -0.52
Si  4.67 -3.31  0.51
Si -4.46  0.99 -3.50
Si -1.37  0.42 -5.66
Si -1.28 -1.39  5.66
Si -5.46  2.38 -0.52
Si -3.94  2.95  3.42
Si -3.06 -5.22 -0.51
Si -2.68  4.83  2.67
Si -1.24  2.40  5.66
Si  1.40  6.17 -0.52
Si -4.50 -2.79 -3.50
Si  2.79 -4.63  3.42
Si  2.40  4.78 -3.50
Si  2.97  0.44 -5.66
Si  4.75  4.27  0.51
Si -5.73 -0.88 -2.75
Si  3.75 -5.22 -0.51
Si -6.45  0.46  0.52
Si  3.06 -1.37  5.66
Si -2.31  5.60 -2.67
Si  5.69 -0.10 -3.42
Si -0.56  5.64  3.50
Si -0.37  0.52  6.68
Si -1.42 -3.37 -5.66
Si -0.69 -5.73  3.50
Si -6.20 -0.06  2.75
Si -2.43 -5.77 -2.67
Si -2.94  6.14 -0.51
Si -0.42 -1.45 -6.69
Si -3.85  0.44 -5.66
Si  3.10  2.42  5.66
Si  4.14  4.83  2.67
Si -3.76 -1.37  5.66
Si -5.68  2.91 -2.75
Si -4.03 -4.63  3.42
Si  2.11  0.50  6.69
Si -0.38  2.34 -6.69
Si  2.05 -1.48 -6.68
Si  0.28 -7.12  0.52
Si -1.33  4.21 -5.66
Si -3.71  2.42  5.66
Si  2.92 -3.35 -5.66
Si  7.18  0.46  0.52
Si  3.88  6.14 -0.51
Si -6.49 -3.33  0.52
Si  1.17  6.70 -2.75
Si  6.17 -1.94  3.50
Si  6.21  1.85  3.50
Si  2.09  2.31 -6.68
Si -4.42  4.78 -3.50
Si -2.19 -7.09  0.51
Si -0.41 -3.27  6.68
Si -2.81 -6.54  2.67
Si -5.54 -5.20 -0.52
Si  5.73  3.68 -3.42
Si -3.89 -3.35 -5.66
Si  5.64 -3.90 -3.42
Si  4.51  5.60 -2.67
Si  3.01  4.23 -5.66
Si -6.41  4.25  0.52
Si -6.16  3.73  2.75
Si  4.38 -5.77 -2.67
Si  2.06 -3.29  6.69
Si -1.32 -5.18  5.66
Si  2.27 -6.58 -3.50
Si -6.24 -3.85  2.75
Si  5.44  0.42 -5.66
Si  7.14 -3.33  0.52
Si -5.77 -4.67 -2.75
Si  7.43 -0.06  2.75
Si -0.32  4.31  6.68
Si -3.81  4.23 -5.66
Si  0.70  7.51  2.75
Si  5.53 -1.39  5.66
Si  0.45  8.04  0.52
Si  2.91  6.74  3.42
Si  4.01 -6.54  2.67
Si  0.53 -7.64  2.75
Si -4.71  0.50  6.69
Si -5.41  6.17 -0.52
Si  3.02 -5.16  5.66
Si  2.15  4.29  6.69
Si  8.13 -1.41 -0.52
Si -1.04  7.47 -3.42
Si  5.57  2.40  5.66
Si -2.02  8.06  0.51
Si -4.76 -1.48 -6.68
Si  7.22  4.25  0.52
Si -7.42  1.85  3.50
Si  7.90 -0.88 -2.75
Si -7.46 -1.94  3.50
Si -1.20  6.19  5.66
Si  4.62 -7.09  0.51
Si -1.21 -7.68 -3.42
Si -4.72  2.31 -6.68
Si -3.90  6.74  3.42
Si -0.47 -5.24 -6.69
Si  5.40 -3.37 -5.66
Si  8.17  2.38 -0.52
Si -3.80 -5.16  5.66
Si -7.94 -0.10 -3.42
Si -4.55 -6.58 -3.50
Si  2.01 -5.26 -6.68
Si  7.39 -3.85  2.75
Si  7.47  3.73  2.75
Si -4.75 -3.29  6.69
Si  7.94  2.91 -2.75
Si  5.48  4.21 -5.66
Si -8.92  0.48  0.51
Si  1.00 -8.46 -2.75
Si -0.98  1.08  8.85
Si  3.14  6.21  5.66
Si -0.65 -0.92 -8.93
Si -0.34  6.13 -6.69
Si  1.23 -8.99 -0.52
Si  6.12 -5.73  3.50
Si  6.25  5.64  3.50
Si -3.67  6.21  5.66
Si -5.64  6.70 -2.75
Si -4.67  4.29  6.69
Si  2.35 -0.02  8.93
Si -1.46 -7.16 -5.66
Si  2.13  6.10 -6.68
Si  6.45  0.52  6.68
Si -1.02 -2.71  8.85
Si -7.90  3.68 -3.42
Si  6.39 -1.45 -6.69
Si  4.79  8.06  0.51
Si -2.64  8.61  2.67
Si -0.61  2.87 -8.93
Si  2.73  1.77 -8.84
Si  5.49 -5.18  5.66
Si  2.68 -2.02 -8.84
Si  2.74 -8.42  3.42
Si -7.98 -3.90 -3.42
Si -3.11 -9.01 -0.51
Si  7.86 -4.67 -2.75
Si  2.88 -7.14 -5.66
Si -8.96 -3.31  0.51
Si  6.43  2.34 -6.69
Si  2.44  8.57 -3.50
Si  8.09 -5.20 -0.52
Si -6.53 -7.12  0.52
Si -9.16  1.81 -2.67
Si -0.45 -7.05  6.68
Si  0.61  0.95 -9.68
Si  3.71 -9.01 -0.51
Si -4.81 -5.26 -6.68
Si -9.20 -1.98 -2.67
Si  6.41 -3.27  6.68
Si -7.18  0.52  6.68
Si  9.17  0.99 -3.50
Si -8.88  4.27  0.51
Si -1.29  8.00 -5.66
Si -2.25 -0.80  9.59
Si -4.09  1.77 -8.84
Si -3.93 -7.14 -5.66
Si  1.09 -1.90  9.68
Si  1.13  1.89  9.68
Si -7.38  5.64  3.50
Si  4.18  8.61  2.67
Si  2.02 -7.08  6.69
Si -9.84 -1.43 -0.51
Si -4.07 -8.42  3.42
Si -9.54  1.03  2.67
Si -8.19  0.42 -5.66
Si -7.24 -1.45 -6.69
Si -4.13 -2.02 -8.84
Si -8.10 -1.39  5.66
Si  2.31 -3.81  8.93
Si -4.46 -0.02  8.93
Si  2.40  3.77  8.93
Si -2.87 -0.15 -9.59
Si -2.26  9.39 -2.67
Si  5.77  7.47 -3.42
Si  7.10 -7.12  0.52
Si -7.51 -5.73  3.50
Si -6.12  7.51  2.75
Si -0.52  9.43  3.50
Si  1.44  9.96 -0.52
Si -9.79  2.36 -0.51
Si  5.62  6.19  5.66
Si  0.57 -2.84 -9.68
Si -7.20  2.34 -6.69
Si  5.60 -7.68 -3.42
Si -0.69 -4.71 -8.93
Si -8.05  2.40  5.66
Si -0.94  4.87  8.85
Si  9.12 -2.79 -3.50
Si -0.73 -9.52  3.50
Si -4.68  6.10 -6.68
Si -2.47 -9.56 -2.67
Si -4.38  8.57 -3.50
Si -6.36  8.04  0.52
Si  9.64 -0.84  3.42
Si  6.49  4.31  6.68
Si -6.29 -7.64  2.75
Si  3.05  8.02 -5.66
Si -2.20  2.99  9.59
Si  8.21  6.17 -0.52
Si -9.58 -2.75  2.67
Si -2.90  9.93 -0.51
Si -7.22 -3.27  6.68
Si  3.95 -0.15 -9.59
Si -0.28  8.10  6.68
Si -3.76  8.02 -5.66
Si -8.23 -3.37 -5.66
Si  5.36 -7.16 -5.66
Si -5.58 -8.99 -0.52
Si  6.35 -5.24 -6.69
Si -5.81 -8.46 -2.75
Si -2.83  3.64 -9.59
Si -4.42  3.77  8.93
Si  5.83  1.08  8.85
Si  4.57 -0.80  9.59
Si  9.69  2.95  3.42
Si -7.14  4.31  6.68
Si  3.92  9.93 -0.51
Si -1.37 -8.97  5.66
Si -4.50 -3.81  8.93
Si  2.19  8.08  6.69
Si 10.61 -1.43 -0.51
Si -2.91 -3.94 -9.59
Si  4.55  9.39 -2.67
Si -8.15  4.21 -5.66
Si  7.99  6.70 -2.75
Si  0.66  4.74 -9.68
Si  2.77  5.56 -8.84
Si  4.34 -9.56 -2.67
Si  7.26  8.04  0.52
Si -4.79 -7.08  6.69
Si -2.29 -4.59  9.59
Si  6.16 -0.92 -8.93
Si  2.64 -5.81 -8.84
Si  1.21 10.49 -2.75
Si  5.79 -2.71  8.85
Si 10.65  2.36 -0.51
Si  0.24 -10.91  0.52
Si  7.34 -7.64  2.75
Si  9.21  4.78 -3.50
Si  7.51  7.51  2.75
Si -9.49  4.83  2.67
Si  2.97 -8.95  5.66
Si  3.99  3.64 -9.59
Si -9.12  5.60 -2.67
Si -1.06 -6.50  8.85
Si -2.85 -10.33  2.67
Si  4.61  2.99  9.59
Si  3.90 -3.94 -9.59
Si -2.23 -10.88  0.51
Si  6.47  6.13 -6.69
Si -0.57  6.66 -8.93
Si  8.92  0.50  6.69
Si  2.23 -10.37 -3.50
Si -9.88 -5.22 -0.51
Si -8.14 -5.18  5.66
Si -7.28 -5.24 -6.69
Si  9.60 -4.63  3.42
Si  8.87 -1.48 -6.68
Si -4.05  5.56 -8.84
Si -9.25 -5.77 -2.67
Si  5.52  8.00 -5.66
Si  6.20  2.87 -8.93
Si -0.51 -9.03 -6.69
Si -3.84 -8.95  5.66
Si  1.05 -5.69  9.68
Si 10.91  1.03  2.67
Si  1.18  5.68  9.68
Si  9.78  0.44 -5.66
Si -5.37  9.96 -0.52
Si -10.80 -0.84  3.42
Si -7.86  7.47 -3.42
Si -4.17 -5.81 -8.84
Si  8.91  2.31 -6.68
Si -5.68  1.89  9.68
Si  3.97 -10.33  2.67
Si -5.72 -1.90  9.68
Si  1.97 -9.05 -6.68
Si  2.96 10.53  3.42
Si  9.87 -1.37  5.66
Si -4.62  8.08  6.69
Si -9.01 -7.09  0.51
Si 10.87 -2.75  2.67
Si -1.16  9.97  5.66
Si -6.20  0.95 -9.68
Si -9.75  6.14 -0.51
Si 11.52  0.48  0.51
Si  4.53 -4.59  9.59
Si -7.15  6.13 -6.69
Si  8.88 -3.29  6.69
Si -8.01  6.19  5.66
Si  6.36 -7.05  6.68
Si -8.03 -7.68 -3.42
Si  0.74 11.30  2.75
Si  9.91  2.42  5.66
Si -10.76  2.95  3.42
Si -7.47 -0.92 -8.93
Si  5.88  4.87  8.85
Si 11.24 -1.98 -2.67
Si -3.86 10.53  3.42
Si 11.28  1.81 -2.67
Si  0.53 -6.62 -9.68
Si  9.08 -6.58 -3.50
Si  9.74 -3.35 -5.66
Si  0.49 -11.43  2.75
Si 10.56 -5.22 -0.51
Si  6.12 -4.71 -8.93
Si -1.00 11.26 -3.42
Si  4.58 -10.88  0.51
Si  6.08 -9.52  3.50
Si -7.79  1.08  8.85
Si  7.82 -8.46 -2.75
Si  0.49 11.82  0.52
Si -11.28  0.99 -3.50
Si -6.24 -2.84 -9.68
Si  6.29  9.43  3.50
Si -4.59 -10.37 -3.50
Si  1.23  0.40 -11.84
Si  3.18 10.00  5.66
Si  0.46 -1.35 11.84
Si  5.45 -8.97  5.66
Si -9.62 -6.54  2.67
Si -2.16  6.78  9.59
Si  2.27 -7.60  8.93
Si  2.44  7.55  8.93
Si 11.48 -3.31  0.51
Si -7.42  2.87 -8.93
Si -0.30  9.92 -6.69
Si -8.84  8.06  0.51
Si  8.96  4.29  6.69
Si -1.98 11.85  0.51
Si -1.25 -11.47 -3.42
Si -3.63 10.00  5.66
Si -10.57 -1.37  5.66
Si -2.02 -1.33 11.83
Si  8.05 -8.99 -0.52
Si -10.66  0.44 -5.66
Si  0.50  2.44 11.84
Si  9.82  4.23 -5.66
Si -7.84 -2.71  8.85
Si -7.26 -7.05  6.68
Si  2.18  9.89 -6.68
Si -11.32 -2.79 -3.50
Si -10.53  2.42  5.66
Si -5.60 10.49 -2.75
Si  7.43  0.95 -9.68
Si -3.12  0.38 -11.83
Si -1.98  2.46 11.83
Si -4.85 -9.05 -6.68
Si  8.82 -5.26 -6.68
Si 10.95  4.83  2.67
Si -10.84 -4.63  3.42
Si  9.73  6.74  3.42
Si -8.27 -7.16 -5.66
Si 11.56  4.27  0.51
Si 10.69  6.14 -0.51
Si -0.74 -8.50 -8.93
Si  1.19 -3.39 -11.84
Si  6.53  8.10  6.68
Si  5.75 -6.50  8.85
Si  3.70  0.38 -11.83
Si -12.31 -1.41 -0.52
Si -0.90  8.65  8.85
Si -6.16  4.74 -9.68
Si -1.50 -10.95 -5.66
Si -2.78  7.43 -9.59
Si -7.34  9.43  3.50
Si  9.83 -5.16  5.66
Si -4.38  7.55  8.93
Si  7.38 -2.84 -9.68
Si -12.27  2.38 -0.52
Si -5.64  5.68  9.68
Si -10.70 -3.35 -5.66
Si -4.54 -7.60  8.93
Si -7.51 -4.71 -8.93
Si  0.96 -12.25 -2.75
Si -5.76 -5.69  9.68
Si  1.27  4.19 -11.84
Si  2.84 -10.93 -5.66
Si  4.65  6.78  9.59
Si  7.91 -1.90  9.68
Si -7.55 -9.52  3.50
Si -2.95 -7.72 -9.59
Si  7.95  1.89  9.68
Si -7.10  8.10  6.68
Si -11.23  4.78 -3.50
Si -3.16 -3.41 -11.83
Si -8.11  8.00 -5.66
Si -7.75  4.87  8.85
Si  8.95  6.10 -6.68
Si -0.49 -10.84  6.68
Si -6.58 -10.91  0.52
Si -10.62  4.23 -5.66
Si  6.25  6.66 -8.93
Si  4.03  7.43 -9.59
Si  5.66  9.97  5.66
Si  9.17 -0.02  8.93
Si -4.64  9.89 -6.68
Si  4.83 11.85  0.51
Si  4.80 -1.33 11.83
Si  1.19 -12.78 -0.52
Si  3.66 -3.41 -11.83
Si -12.54 -0.88 -2.75
Si 11.20 -5.77 -2.67
Si  6.31 -9.03 -6.69
Si  3.86 -7.72 -9.59
Si 11.32  5.60 -2.67
Si  0.42 -5.14 11.84
Si -3.07  4.17 -11.83
Si  1.98 -10.87  6.69
Si  0.70  8.53 -9.68
Si 10.82 -6.54  2.67
Si -3.97 -10.93 -5.66
Si  1.38  0.56 12.86
Si -2.33 -8.38  9.59
Si  8.26  9.96 -0.52
Si  0.31 -1.51 -12.86
Si -2.60 12.40  2.67
Si 12.50 -0.10 -3.42
Si  2.70 -12.21  3.42
Si  7.05 -10.91  0.52
Si  4.84  2.46 11.83
Si  9.96  6.21  5.66
Si -2.06 -5.12 11.83
Si  0.35  2.27 -12.86
Si -9.45  8.61  2.67
Si -10.61 -5.16  5.66
Si  2.48 12.36 -3.50
Si  3.74  4.17 -11.83
Si  9.25  8.57 -3.50
Si -5.59  0.40 -11.84
Si  7.47  4.74 -9.68
Si -10.72  6.74  3.42
Si -6.08 11.30  2.75
Si -12.50  2.91 -2.75
Si  5.81 11.26 -3.42
Si  9.54  1.77 -8.84
Si -1.25 11.79 -5.66
Si -2.17 -1.49 -12.87
Si  9.50 -2.02 -8.84
Si  8.84 -7.08  6.69
Si  2.81  9.35 -8.84
Si  9.56 -8.42  3.42
Si -3.15 -12.80 -0.51
Si  5.56 -11.47 -3.42
Si -2.97  0.54 12.87
Si -9.06 -0.80  9.59
Si -2.12  2.30 -12.87
Si -13.26  0.46  0.52
Si -13.02 -0.06  2.75
Si -6.29 -6.62 -9.68
Si  9.70 -7.14 -5.66
Si  2.60 -9.60 -8.84
Si  1.33 -3.22 12.86
Si  9.13 -3.81  8.93
Si  3.67 -12.80 -0.51
Si -4.11 -12.21  3.42
Si -9.08  9.39 -2.67
Si -11.52  0.50  6.69
Si -6.33 -11.43  2.75
Si -7.38  6.66 -8.93
