500
set: 410.00  0.00  0.00
Si  0.01  0.15  0.04
Si  0.08 -1.99  0.73
Si  0.06 -0.07 -2.22
Si -1.88  1.13  0.74
Si  1.88  1.10  0.83
Si -1.81 -3.08  0.08
Si -1.85 -1.04 -2.91
Si -1.79  0.96  2.99
Si  0.04  1.99 -3.04
Si -3.65 -0.04  0.08
Si  1.82 -3.18 -0.18
Si -1.86  3.19 -0.18
Si  3.70 -0.04  0.08
Si  0.04 -2.25  2.96
Si  1.89 -1.16 -3.02
Si  1.83  1.09  3.09
Si  1.87  3.28  0.08
Si -1.83 -1.18  3.58
Si  1.76  3.18 -2.17
Si -0.06  4.19  0.70
Si  3.64 -0.01 -2.21
Si  3.62 -2.18  0.70
Si -1.92 -3.19 -2.17
Si -1.83  3.06 -2.42
Si -3.71 -0.01 -2.21
Si -0.04  2.11  3.80
Si  1.76 -1.06  3.83
Si -3.73 -2.18  0.70
Si  1.84 -3.30 -2.42
Si  3.57 -2.12  2.97
Si  3.57  2.12 -3.03
Si -0.11  4.24  2.97
Si -0.11 -4.25 -3.03
Si -3.78 -2.12  2.97
Si -3.78  2.12 -3.03
Si -1.80 -1.02 -5.18
Si  1.80 -5.24  0.74
Si -3.62  2.05  3.79
Si -1.80 -5.26  0.83
Si  5.48  1.13  0.74
Si -5.47  1.10  0.83
Si  1.80 -0.99 -5.27
Si  3.74  2.05  3.79
Si -3.60  4.38  0.73
Si  0.08  2.26 -5.28
Si  0.06 -4.32  3.79
Si  3.75  4.38  0.73
Si -1.86 -1.06  5.82
Si -3.64  4.11  2.96
Si -1.79  5.21 -3.02
Si  3.72  4.11  2.96
Si -1.81  1.16 -5.92
Si  0.02 -2.16 -5.93
Si  5.50 -1.04 -2.91
Si  0.02  6.33  0.08
Si  1.83  5.33 -2.91
Si  5.54 -3.08  0.08
Si -5.46 -1.16 -3.02
Si  5.49  3.19 -0.18
Si -5.54 -3.18 -0.18
Si  5.57  0.96  2.99
Si -1.85 -5.28  3.09
Si -5.49  3.28  0.08
Si  0.02 -6.40  0.08
Si -5.53  1.09  3.09
Si  0.02  2.09  6.08
Si  1.87 -0.96  6.09
Si -3.64 -4.38 -3.04
Si  1.89 -5.41  2.99
Si  3.72 -4.38 -3.04
Si  1.82  1.06 -6.19
Si  1.84  5.19  3.58
Si  5.44 -3.19 -2.17
Si  5.52 -1.18  3.58
Si -0.06 -0.06  6.71
Si -0.04  6.36 -2.21
Si  3.62  2.07 -5.30
Si -0.04 -6.38 -2.21
Si  5.52  3.06 -2.42
Si  3.64 -4.26  3.80
Si -5.59  3.18 -2.17
Si -3.73  2.07 -5.30
Si -3.71 -4.26  3.80
Si -1.92  5.30  3.83
Si -0.05 -4.30 -5.30
Si -5.59 -1.06  3.83
Si -5.51 -3.30 -2.42
Si -3.66 -6.22  0.04
Si  3.69 -6.22  0.04
Si -3.66 -1.97 -5.97
Si  3.69 -1.97 -5.97
Si  0.01 -4.09  6.04
Si -7.34  0.15  0.04
Si  7.37  0.15  0.04
Si  0.01  4.40 -5.97
Si -3.66  2.27  6.04
Si  3.69  2.27  6.04
Si -3.66  6.52  0.04
Si  3.69  6.52  0.04
Si -7.28 -1.99  0.73
Si -3.62  6.30 -2.22
Si -3.60 -4.11 -5.28
Si -7.29 -0.07 -2.22
Si -3.60  0.14  6.73
Si  3.74  6.30 -2.22
Si -1.88 -3.12  6.74
Si  5.56 -1.02 -5.18
Si -5.55 -5.24  0.74
Si  3.76 -4.11 -5.28
Si  1.88  5.35 -5.18
Si  5.56 -5.26  0.83
Si  1.80  3.25  6.74
Si  3.75  0.14  6.73
Si -3.62 -6.44 -2.22
Si -5.55 -0.99 -5.27
Si  7.43 -1.99  0.73
Si -1.80  7.47  0.83
Si  7.41 -0.07 -2.22
Si  1.80  7.50  0.74
Si  1.88 -3.14  6.83
Si -1.88  5.38 -5.27
Si -1.80  3.23  6.83
Si  3.74 -6.44 -2.22
Si  5.49 -1.06  5.82
Si  1.82  5.31  5.82
Si  1.87 -5.21 -5.92
Si -3.65  4.21 -5.93
Si  1.89  7.33  2.99
Si  3.70  4.21 -5.93
Si  1.83 -7.40 -2.91
Si -7.31  1.99 -3.04
Si  5.54  1.16 -5.92
Si  5.57  5.21 -3.02
Si -7.31 -2.25  2.96
Si -5.53  5.33 -2.91
Si  5.50 -5.28  3.09
Si  7.39  1.99 -3.04
Si -5.46 -5.41  2.99
Si -5.49 -0.96  6.09
Si  7.39 -2.25  2.96
Si -1.85  7.46  3.09
Si -3.65 -4.28  6.08
Si -1.79 -7.53 -3.02
Si  3.70 -4.28  6.08
Si -1.81  5.41  6.09
Si -1.86 -5.30 -6.19
Si -5.54  1.06 -6.19
Si -5.51  5.19  3.58
Si  7.30  4.19  0.70
Si -1.92  1.06 -8.18
Si -0.04 -2.14 -8.21
Si  5.44  5.30  3.83
Si  7.32  2.11  3.80
Si -7.41  4.19  0.70
Si  1.84 -7.55  3.58
Si -7.39  2.11  3.80
Si -0.05 -8.55  0.70
Si -1.92 -7.43  3.83
Si  1.84  0.94 -8.43
Si  7.25  4.24  2.97
Si  7.25 -4.25 -3.03
Si -0.11 -0.00  8.98
Si -0.11 -8.49  2.97
Si -0.11  8.49 -3.03
Si -0.11 -0.00 -9.03
Si -7.46  4.24  2.97
Si -7.46 -4.25 -3.03
Si -3.60 -8.35  0.73
Si  0.08 -6.23  6.73
Si  3.76 -8.35  0.73
Si  1.88 -7.39 -5.18
Si  0.06  4.17 -8.22
Si  5.48 -3.12  6.74
Si  0.06  8.42  3.79
Si -5.47  5.35 -5.18
Si -1.87 -7.36 -5.27
Si -3.62 -2.19 -8.22
Si -7.28  2.26 -5.28
Si -7.29 -4.32  3.79
Si  3.74 -2.19 -8.22
Si -5.47 -3.14  6.83
Si  5.48  5.38 -5.27
Si -5.55  3.25  6.74
Si -9.23  1.13  0.74
Si  9.23  1.10  0.83
Si  5.56  7.47  0.83
Si -5.55  7.50  0.74
Si  0.08  6.50  6.73
Si  5.56  3.23  6.83
Si  7.42 -4.32  3.79
Si  7.43  2.26 -5.28
Si -5.49 -5.21 -5.92
Si  1.82 -7.43  5.82
Si -3.64  8.36 -3.04
Si -5.46  7.33  2.99
Si -5.54  5.31  5.82
Si  1.83 -3.16 -8.92
Si  1.87 -9.45  0.08
Si  3.72  8.36 -3.04
Si -1.85  3.21 -8.92
Si -9.14  0.96  2.99
Si -9.16 -3.08  0.08
Si -7.33 -2.16 -5.93
Si -3.64 -0.13  8.96
Si -5.53 -7.40 -2.91
Si -7.33  6.33  0.08
Si  1.89  3.09  8.99
Si -1.81 -7.33  6.09
Si  3.72 -0.13  8.96
Si  7.38 -2.16 -5.93
Si -9.20 -1.04 -2.91
Si  9.17 -3.18 -0.18
Si  1.89  3.09 -9.02
Si  7.38  6.33  0.08
Si  1.82  9.55 -0.18
Si -1.86 -9.55 -0.18
Si -7.33 -6.40  0.08
Si -1.79 -3.28  8.99
Si  9.18  1.09  3.09
Si -9.21  3.19 -0.18
Si -7.33  2.09  6.08
Si -3.64 -0.13 -9.05
Si  1.87  7.53 -5.92
Si -1.79 -3.28 -9.02
Si  5.50  7.46  3.09
Si  7.38 -6.40  0.08
Si  3.72 -0.13 -9.05
Si  7.38  2.09  6.08
Si  9.22  3.28  0.08
Si  9.24 -1.16 -3.02
Si  1.83 -3.16  9.10
Si  1.84  0.94  9.59
Si -3.64 -8.62  2.96
Si -1.85  3.21  9.10
Si -1.81  9.65  0.08
Si  5.50 -5.30 -6.19
Si  5.57 -7.53 -3.02
Si  3.72 -8.62  2.96
Si -1.86  7.43 -6.19
Si  5.54  5.41  6.09
Si  5.44  1.06 -8.18
Si  9.11  3.18 -2.17
Si  3.62  6.31  6.71
Si  1.76 -5.31 -8.18
Si  1.84  9.43 -2.42
Si  7.30 -0.06  6.71
Si  3.64  4.23 -8.21
Si -9.19 -1.18  3.58
Si -3.73  6.31  6.71
Si  7.32  6.36 -2.21
Si  9.11 -1.06  3.83
Si  1.76 -9.55 -2.17
Si -3.71  4.23 -8.21
Si  7.32 -6.38 -2.21
Si -0.06  8.44 -5.30
Si  3.62 -6.42  6.71
Si  5.44 -7.43  3.83
Si  3.64  8.48  3.80
Si -1.92  9.55 -2.17
Si -9.19  3.06 -2.42
Si  7.30 -4.30 -5.30
Si -7.39  6.36 -2.21
Si -7.41 -0.06  6.71
Si -3.71  8.48  3.80
Si -5.51 -7.55  3.58
Si -7.39 -6.38 -2.21
Si -3.73 -6.42  6.71
Si -0.04 -2.14  9.80
Si -9.27 -3.19 -2.17
Si  9.20 -3.30 -2.42
Si -7.41 -4.30 -5.30
Si -1.92  1.06  9.84
Si -5.51  0.94 -8.43
Si -1.83 -9.67 -2.42
Si -1.83 -5.43 -8.43
Si  0.01 -8.34 -5.97
Si -7.34 -4.09  6.04
Si  7.37 -4.09  6.04
Si -7.34  4.40 -5.97
Si  7.37  4.40 -5.97
Si  0.01  8.64  6.04
Si -5.47 -7.39 -5.18
Si -9.15 -1.02 -5.18
Si  9.16 -5.24  0.74
Si  5.48 -7.36 -5.27
Si -9.15 -5.26  0.83
Si  9.16 -0.99 -5.27
Si  0.06  4.17  9.79
Si -3.62 -2.19  9.79
Si  3.74 -2.19  9.79
Si -3.60  8.63 -5.28
Si  0.08 10.75  0.73
Si  3.75  8.63 -5.28
Si  0.04 10.48  2.96
Si  0.04  6.24  8.96
Si -5.48 -9.45  0.08
Si -5.54 -7.43  5.82
Si -9.14  5.21 -3.02
Si -9.21 -1.06  5.82
Si -5.53 -3.16 -8.92
Si  5.50  3.21 -8.92
Si -5.46  3.09  8.99
Si -9.16  1.16 -5.92
Si -5.46  3.09 -9.02
Si  0.04  6.24 -9.05
Si -3.65 -8.53 -5.93
Si -11.01 -0.04  0.08
Si  9.18  5.33 -2.91
Si  5.50 -9.55 -0.18
Si  3.70 -8.53 -5.93
Si  5.54 -7.33  6.09
Si -5.49  7.53 -5.92
Si -3.65  8.46  6.08
Si -5.54  9.55 -0.18
Si -9.20 -5.28  3.09
Si  3.70  8.46  6.08
Si 11.05 -0.04  0.08
Si  5.57 -3.28  8.99
Si  0.04 -6.50  8.96
Si  9.22 -0.96  6.09
Si -5.51  0.94  9.59
Si  5.57 -3.28 -9.02
Si -5.53 -3.16  9.10
Si  5.50  3.21  9.10
Si  9.17  1.06 -6.19
Si  9.24 -5.41  2.99
Si  5.49  7.43 -6.19
Si  5.54  9.65  0.08
Si  0.04 -6.50 -9.05
Si  9.20  5.19  3.58
Si -1.83 -5.43  9.59
Si  0.04 -10.74 -3.04
Si  3.62 10.56  0.70
Si  1.76  7.43 -8.18
Si -5.51  9.43 -2.42
Si  5.44  9.55 -2.17
Si  7.32 -2.14 -8.21
Si 10.98 -2.18  0.70
Si 10.99 -0.01 -2.21
Si -3.73 10.56  0.70
Si -5.59 -5.31 -8.18
Si -7.39 -2.14 -8.21
Si  7.30 -8.55  0.70
Si  3.64  4.23  9.80
Si -5.59 -9.55 -2.17
Si -11.07 -0.01 -2.21
Si -0.04 -10.63  3.80
Si  5.44  1.06  9.84
Si -0.05 -0.06 -11.30
Si -3.71  4.23  9.80
Si -1.83  7.31 -8.43
Si  1.76 -5.31  9.84
Si -11.09 -2.18  0.70
Si -7.41 -8.55  0.70
Si -9.27  5.30  3.83
Si  5.52 -9.67 -2.42
Si  5.52 -5.43 -8.43
Si 10.92 -2.12  2.97
Si 10.92  2.12 -3.03
Si  7.25 -0.00  8.98
Si  7.25 -8.49  2.97
Si  7.25  8.49 -3.03
Si  3.57  6.37  8.98
Si  3.57 -6.37  8.98
Si  7.25 -0.00 -9.03
Si  3.57 10.61  2.97
Si  3.57 -10.62 -3.03
Si  3.57  6.37 -9.03
Si  3.57 -6.37 -9.03
Si -3.78  6.37  8.98
Si -3.78 -6.37  8.98
Si -3.78 10.61  2.97
Si -3.78 -10.62 -3.03
Si -7.46 -0.00  8.98
Si -3.78  6.37 -9.03
Si -3.78 -6.37 -9.03
Si -7.46 -8.49  2.97
Si -7.46  8.49 -3.03
Si -7.27 -6.23  6.73
Si -7.46 -0.00 -9.03
Si -11.14 -2.12  2.97
Si  0.08 -10.48 -5.28
Si -11.14  2.12 -3.03
Si -7.29  4.17 -8.22
Si -7.29  8.42  3.79
Si  1.88 -3.14 -11.18
Si  1.80 -9.48  6.74
Si -1.80  3.23 -11.18
Si -1.87 -11.61  0.74
Si -10.97  2.05  3.79
Si  7.43 -6.23  6.73
Si  1.88 -11.63  0.83
Si -10.95  4.38  0.73
Si  9.15  3.25  6.74
Si  7.41  4.17 -8.22
Si  7.41  8.42  3.79
Si -3.60  0.14 -11.28
Si -1.87 -3.12 -11.27
Si -9.15  7.47  0.83
Si -1.80 -9.51  6.83
Si -9.23 -3.12  6.74
Si -7.28  6.50  6.73
Si  9.15  7.50  0.74
Si  9.23  5.35 -5.18
Si -9.15  3.23  6.83
Si  1.80  3.25 -11.27
Si  0.06 -8.56 -8.22
Si  3.76  0.14 -11.28
Si -1.88  9.62  6.74
Si 11.09  2.05  3.79
Si -3.62 -10.69  3.79
Si  9.23 -3.14  6.83
Si -9.23  5.38 -5.27
Si  1.88  9.60  6.83
Si  3.74 -10.69  3.79
Si  7.43  6.50  6.73
Si 11.11  4.38  0.73
Si  1.82  1.06 11.83
Si  9.17  5.31  5.82
Si -10.99  4.11  2.96
Si  1.87 -0.96 -11.92
Si  1.89 11.58 -3.02
Si  0.02  2.09 -11.93
Si  0.02 10.58 -5.93
Si  9.22 -5.21 -5.92
Si  9.18 -7.40 -2.91
Si  9.24  7.33  2.99
Si 11.07  4.11  2.96
Si  1.83 -11.65  3.09
Si -1.83  7.31  9.59
Si -1.85 11.70 -2.91
Si -10.99 -4.38 -3.04
Si -9.14 -7.53 -3.02
Si -1.83 11.55  3.58
Si -9.20  7.46  3.09
Si -9.16  5.41  6.09
Si  0.02 -10.65  6.08
Si  0.02 -2.16 12.09
Si -1.79 -11.77  2.99
Si -1.81  1.16 12.09
Si 11.07 -4.38 -3.04
Si -9.21 -5.30 -6.19
Si  5.52 -5.43  9.59
Si  7.30  8.44 -5.30
Si 10.97  2.07 -5.30
Si  3.64 -8.50 -8.21
Si -1.86 -1.06 -12.19
Si -5.59  7.43 -8.18
Si 10.99 -4.26  3.80
Si -3.71 -8.50 -8.21
Si -9.27  1.06 -8.18
Si  1.76 11.67  3.83
Si -7.41  8.44 -5.30
Si  7.32 -2.14  9.80
Si  9.20 -7.55  3.58
Si  5.52  7.31 -8.43
Si  1.76  7.43  9.84
Si -11.07 -4.26  3.80
Si  3.62 -10.67 -5.30
Si -11.09  2.07 -5.30
Si -7.39 -2.14  9.80
Si -3.73 -10.67 -5.30
Si -9.27 -7.43  3.83
Si -5.59 -5.31  9.84
Si  9.20  0.94 -8.43
Si  0.01 -12.59  0.04
Si -7.34 -8.34 -5.97
Si -3.66 -10.46  6.04
Si  7.37 -8.34 -5.97
Si  3.69 -10.46  6.04
Si -11.02 -6.22  0.04
Si  0.01 -4.09 -11.97
Si 11.04 -6.22  0.04
Si -11.02 -1.97 -5.97
Si 11.04 -1.97 -5.97
Si -3.66  2.27 -11.97
Si  3.69  2.27 -11.97
Si -3.66 -1.97 12.04
Si  3.69 -1.97 12.04
Si -11.02  2.27  6.04
Si 11.04  2.27  6.04
Si -11.02  6.52  0.04
Si  0.01  4.40 12.04
Si 11.04  6.52  0.04
Si -10.95 -4.11 -5.28
Si -5.47 -3.14 -11.18
Si -10.97  6.30 -2.22
Si -3.66 10.76 -5.97
Si -7.34  8.64  6.04
Si  3.69 10.76 -5.97
Si  5.48 -11.61  0.74
Si -10.95  0.14  6.73
Si  0.06 12.66 -2.22
Si  7.37  8.64  6.04
Si -5.47 -11.63  0.83
Si  0.01 12.89  0.04
Si  0.08 -6.23 -11.28
Si -5.55 -9.48  6.74
Si  5.56  3.23 -11.18
Si -12.83  1.10  0.83
