500
set: 15.00  0.00  0.00
Si  0.00  0.00  0.00
Si  1.07  2.21  0.00
Si -1.07 -2.21  0.00
Si -0.24 -0.01  2.48
Si  0.24  0.01 -2.48
Si  2.65  0.00  0.00
Si -2.65  0.00  0.00
Si -1.58  2.21  0.00
Si  1.58 -2.21  0.00
Si -0.83 -2.20 -2.48
Si  0.83  2.20  2.48
Si  2.41 -0.01  2.48
Si -2.41  0.01 -2.48
Si  1.30  2.23 -2.48
Si -1.30 -2.23  2.48
Si -1.34  2.23 -2.48
Si  1.34 -2.23  2.48
Si  1.82 -2.20 -2.48
Si -1.82  2.20  2.48
Si -2.88 -0.01  2.48
Si  2.88  0.01 -2.48
Si -3.71 -2.21  0.00
Si  3.71  2.21  0.00
Si  0.52 -4.43  0.00
Si -0.52  4.43  0.00
Si -4.23  2.21  0.00
Si  4.23 -2.21  0.00
Si -3.48 -2.20 -2.48
Si  3.48  2.20  2.48
Si  2.13  4.43  0.00
Si -2.13 -4.43  0.00
Si  0.47  0.02 -4.97
Si -0.47 -0.02  4.97
Si -0.28  4.44 -2.48
Si  0.28 -4.44  2.48
Si -0.75  4.42  2.48
Si  0.75 -4.42 -2.48
Si  3.95  2.23 -2.48
Si -3.95 -2.23  2.48
Si  3.99 -2.23  2.48
Si -3.99  2.23 -2.48
Si  5.29  0.00  0.00
Si -5.29  0.00  0.00
Si  1.90  4.42  2.48
Si -1.90 -4.42 -2.48
Si  2.17 -0.02  4.97
Si -2.17  0.02 -4.97
Si  3.16 -4.43  0.00
Si -3.16  4.43  0.00
Si -0.59 -2.19 -4.97
Si  0.59  2.19  4.97
Si  1.11 -2.24  4.97
Si -1.11  2.24 -4.97
Si  4.46 -2.20 -2.48
Si -4.46  2.20  2.48
Si  2.37  4.44 -2.48
Si -2.37 -4.44  2.48
Si  5.05 -0.01  2.48
Si -5.05  0.01 -2.48
Si -1.54 -2.24  4.97
Si  1.54  2.24 -4.97
Si  2.05 -2.19 -4.97
Si -2.05  2.19  4.97
Si -3.12 -0.02  4.97
Si  3.12  0.02 -4.97
Si -2.92  4.44 -2.48
Si  2.92 -4.44  2.48
Si -5.53 -0.01  2.48
Si  5.53  0.01 -2.48
Si -3.40  4.42  2.48
Si  3.40 -4.42 -2.48
Si -3.24 -2.19 -4.97
Si  3.24  2.19  4.97
Si -4.78 -4.43  0.00
Si  4.78  4.43  0.00
Si  3.75 -2.24  4.97
Si -3.75  2.24 -4.97
Si -0.55 -6.64  0.00
Si  0.55  6.64  0.00
Si  0.04 -4.45  4.97
Si -0.04  4.45 -4.97
Si -0.99  4.41  4.97
Si  0.99 -4.41 -4.97
Si  6.36  2.21  0.00
Si -6.36 -2.21  0.00
Si  4.54  4.42  2.48
Si -4.54 -4.42 -2.48
Si -1.66 -4.41 -4.97
Si  1.66  4.41  4.97
Si -4.18 -2.24  4.97
Si  4.18  2.24 -4.97
Si -4.82  0.02 -4.97
Si  4.82 -0.02  4.97
Si -6.12 -2.20 -2.48
Si  6.12  2.20  2.48
Si  2.10 -6.64  0.00
Si -2.10  6.64  0.00
Si -0.32 -6.63 -2.48
Si  0.32  6.63  2.48
Si -5.01 -4.44  2.48
Si  5.01  4.44 -2.48
Si  0.79  6.66 -2.48
Si -0.79 -6.66  2.48
Si -2.60 -4.45  4.97
Si  2.60  4.45 -4.97
Si  4.70 -2.19 -4.97
Si -4.70  2.19  4.97
Si -2.69  4.45 -4.97
Si  2.69 -4.45  4.97
Si -6.87  2.21  0.00
Si  6.87 -2.21  0.00
Si -5.81  4.43  0.00
Si  5.81 -4.43  0.00
Si  1.86 -6.66  2.48
Si -1.86  6.66 -2.48
Si  3.20  6.64  0.00
Si -3.20 -6.64  0.00
Si -6.59 -2.23  2.48
Si  6.59  2.23 -2.48
Si -6.63  2.23 -2.48
Si  6.63 -2.23  2.48
Si -2.33  6.63  2.48
Si  2.33 -6.63 -2.48
Si  0.71  0.03 -7.46
Si -0.71 -0.03  7.46
Si  5.57 -4.44  2.48
Si -5.57  4.44 -2.48
Si -3.63  4.41  4.97
Si  3.63 -4.41 -4.97
Si  5.76  0.02 -4.97
Si -5.76 -0.02  4.97
Si  2.96  6.63  2.48
Si -2.96 -6.63 -2.48
Si -1.94  0.03 -7.46
Si  1.94 -0.03  7.46
Si -0.36 -2.18 -7.46
Si  0.36  2.18  7.46
Si  0.87 -2.25  7.46
Si -0.87  2.25 -7.46
Si -7.11  2.20  2.48
Si  7.11 -2.20 -2.48
Si -6.04  4.42  2.48
Si  6.04 -4.42 -2.48
Si  3.43  6.66 -2.48
Si -3.43 -6.66  2.48
Si  4.30  4.41  4.97
Si -4.30 -4.41 -4.97
Si  7.94  0.00  0.00
Si -7.94  0.00  0.00
Si  1.77  2.25 -7.46
Si -1.77 -2.25  7.46
Si -5.88 -2.19 -4.97
Si  5.88  2.19  4.97
Si -7.70  0.01 -2.48
Si  7.70 -0.01  2.48
Si -2.29  2.18  7.46
Si  2.29 -2.18 -7.46
Si  4.74 -6.64  0.00
Si -4.74  6.64  0.00
Si -3.35 -0.03  7.46
Si  3.35  0.03 -7.46
Si  0.08  6.62  4.97
Si -0.08 -6.62 -4.97
Si  3.00  2.18  7.46
Si -3.00 -2.18 -7.46
Si  1.02  6.67 -4.97
Si -1.02 -6.67  4.97
Si -6.40  2.24 -4.97
Si  6.40 -2.24  4.97
Si -4.50  6.66 -2.48
Si  4.50 -6.66  2.48
Si  1.62 -6.67  4.97
Si -1.62  6.67 -4.97
Si -5.25 -4.45  4.97
Si  5.25  4.45 -4.97
Si -5.33  4.45 -4.97
Si  5.33 -4.45  4.97
Si -8.17 -0.01  2.48
Si  8.17  0.01 -2.48
Si -3.52  2.25 -7.46
Si  3.52 -2.25  7.46
Si -7.42 -4.43  0.00
Si  7.42  4.43  0.00
Si  4.98 -6.63 -2.48
Si -4.98  6.63  2.48
Si  2.57 -6.62 -4.97
Si -2.57  6.62  4.97
Si  0.19  4.46 -7.46
Si -0.19 -4.46  7.46
Si -2.72 -6.62 -4.97
Si  2.72  6.62  4.97
Si  6.83  2.24 -4.97
Si -6.83 -2.24  4.97
Si  1.22 -4.39 -7.46
Si -1.22  4.39  7.46
Si  4.58 -0.03  7.46
Si -4.58  0.03 -7.46
Si  1.42  4.39  7.46
Si -1.42 -4.39 -7.46
Si -7.19 -4.42 -2.48
Si  7.19  4.42  2.48
Si -5.84 -6.64  0.00
Si  5.84  6.64  0.00
Si -1.03  8.86  0.00
Si  1.03 -8.86  0.00
Si -4.42 -2.25  7.46
Si  4.42  2.25 -7.46
Si  7.46 -0.02  4.97
Si -7.46  0.02 -4.97
Si -1.62 -8.86  0.00
Si  1.62  8.86  0.00
Si -2.45  4.46 -7.46
Si  2.45 -4.46  7.46
Si  5.61  6.63  2.48
Si -5.61 -6.63 -2.48
Si -3.67 -6.67  4.97
Si  3.67  6.67 -4.97
Si -7.34  2.19  4.97
Si  7.34 -2.19 -4.97
Si -6.28  4.41  4.97
Si  6.28 -4.41 -4.97
Si -2.84 -4.46  7.46
Si  2.84  4.46 -7.46
Si -7.66 -4.44  2.48
Si  7.66  4.44 -2.48
Si -4.93  2.18  7.46
Si  4.93 -2.18 -7.46
Si -0.79  8.87 -2.48
Si  0.79 -8.87  2.48
Si  9.00  2.21  0.00
Si -9.00 -2.21  0.00
Si  1.26 -8.85 -2.48
Si -1.26  8.85  2.48
Si  1.38  8.85  2.48
Si -1.38 -8.85 -2.48
Si -4.27  6.67 -4.97
Si  4.27 -6.67  4.97
Si  6.08  6.66 -2.48
Si -6.08 -6.66  2.48
Si -8.77 -2.20 -2.48
Si  8.77  2.20  2.48
Si  1.85  8.87 -2.48
Si -1.85 -8.87  2.48
Si -3.87  4.39  7.46
Si  3.87 -4.39 -7.46
Si -8.45  4.43  0.00
Si  8.45 -4.43  0.00
Si -4.07 -4.39 -7.46
Si  4.07  4.39  7.46
Si  6.00  0.03 -7.46
Si -6.00 -0.03  7.46
Si -3.67  8.86  0.00
Si  3.67 -8.86  0.00
Si  5.65  2.18  7.46
Si -5.65 -2.18 -7.46
Si  6.95  4.41  4.97
Si -6.95 -4.41 -4.97
Si -8.22  4.44 -2.48
Si  8.22 -4.44  2.48
Si  8.41  0.02 -4.97
Si -8.41 -0.02  4.97
Si  9.52 -2.21  0.00
Si -9.52  2.21  0.00
Si  5.21 -6.62 -4.97
Si -5.21  6.62  4.97
Si  9.24  2.23 -2.48
Si -9.24 -2.23  2.48
Si -4.26 -8.86  0.00
Si  4.26  8.86  0.00
Si  3.44 -8.87  2.48
Si -3.44  8.87 -2.48
Si -9.28  2.23 -2.48
Si  9.28 -2.23  2.48
Si  5.37  6.62  4.97
Si -5.37 -6.62 -4.97
Si  6.16 -2.25  7.46
Si -6.16  2.25 -7.46
Si -7.39  6.64  0.00
Si  7.39 -6.64  0.00
Si -0.16  6.61  7.46
Si  0.16 -6.61 -7.46
Si -0.94 -0.05  9.94
Si  0.94  0.05 -9.94
Si  3.91 -8.85 -2.48
Si -3.91  8.85  2.48
Si  4.03  8.85  2.48
Si -4.03 -8.85 -2.48
Si  8.69 -4.42 -2.48
Si -8.69  4.42  2.48
Si -5.10  4.46 -7.46
Si  5.10 -4.46  7.46
Si  7.15 -6.66  2.48
Si -7.15  6.66 -2.48
Si  1.70 -0.05  9.94
Si -1.70  0.05 -9.94
Si  1.26  6.68 -7.46
Si -1.26 -6.68  7.46
Si  1.39 -6.68  7.46
Si -1.39  6.68 -7.46
Si -8.53 -2.19 -4.97
Si  8.53  2.19  4.97
Si  0.12  2.17  9.94
Si -0.12 -2.17 -9.94
Si -0.56  8.88 -4.97
Si  0.56 -8.88  4.97
Si -1.14 -8.84 -4.97
Si  1.14  8.84  4.97
Si  0.64 -2.26  9.94
Si -0.64  2.26 -9.94
Si  1.50 -8.84 -4.97
Si -1.50  8.84  4.97
Si -4.50 -8.87  2.48
Si  4.50  8.87 -2.48
Si  2.49  6.61  7.46
Si -2.49 -6.61 -7.46
Si  5.49  4.46 -7.46
Si -5.49 -4.46  7.46
Si  9.75 -2.20 -2.48
Si -9.75  2.20  2.48
Si  7.89  4.45 -4.97
Si -7.89 -4.45  4.97
Si -2.80  6.61  7.46
Si  2.80 -6.61 -7.46
Si  7.23 -0.03  7.46
Si -7.23  0.03 -7.46
Si -2.01 -2.26  9.94
Si  2.01  2.26 -9.94
Si -2.09 -8.88  4.97
Si  2.09  8.88 -4.97
Si  7.98 -4.45  4.97
Si -7.98  4.45 -4.97
Si -7.62  6.63  2.48
Si  7.62 -6.63 -2.48
Si -6.32 -6.67  4.97
Si  6.32  6.67 -4.97
Si  2.52 -2.17 -9.94
Si -2.52  2.17  9.94
Si  7.07  2.25 -7.46
Si -7.07 -2.25  7.46
Si -2.77 -2.17 -9.94
Si  2.77  2.17  9.94
Si  9.04 -2.24  4.97
Si -9.04  2.24 -4.97
Si -3.59 -0.05  9.94
Si  3.59  0.05 -9.94
Si -10.58  0.00  0.00
Si 10.58  0.00  0.00
Si -10.35  0.01 -2.48
Si 10.35 -0.01  2.48
Si -3.20  8.88 -4.97
Si  3.20 -8.88  4.97
Si  3.28 -2.26  9.94
Si -3.28  2.26 -9.94
Si -3.90 -6.68  7.46
Si  3.90  6.68 -7.46
Si  8.49  6.64  0.00
Si -8.49 -6.64  0.00
Si  4.03 -6.68  7.46
Si -4.03  6.68 -7.46
Si  6.91 -6.67  4.97
Si -6.91  6.67 -4.97
Si  3.79  8.84  4.97
Si -3.79 -8.84 -4.97
Si  6.51 -4.39 -7.46
Si -6.51  4.39  7.46
Si -4.35  0.05 -9.94
Si  4.35 -0.05  9.94
Si -7.58  2.18  7.46
Si  7.58 -2.18 -7.46
Si -8.25 -6.63 -2.48
Si  8.25  6.63  2.48
Si  6.32 -8.86  0.00
Si -6.32  8.86  0.00
Si -0.43 -4.48  9.94
Si  0.43  4.48 -9.94
Si  1.19  4.38  9.94
Si -1.19 -4.38 -9.94
Si -9.47 -2.24  4.97
Si  9.47  2.24 -4.97
Si  6.71  4.39  7.46
Si -6.71 -4.39 -7.46
Si  4.15 -8.84 -4.97
Si -4.15  8.84  4.97
Si -1.46  4.38  9.94
Si  1.46 -4.38 -9.94
Si -10.07 -4.43  0.00
Si 10.07  4.43  0.00
Si  6.08 -8.87  2.48
Si -6.08  8.87 -2.48
Si  9.83  4.42  2.48
Si -9.83 -4.42 -2.48
Si  0.04 11.07  0.00
Si -0.04 -11.07  0.00
Si 10.82  0.01 -2.48
Si -10.82 -0.01  2.48
Si  2.22 -4.48  9.94
Si -2.22  4.48 -9.94
Si  8.92 -4.41 -4.97
Si -8.92  4.41  4.97
Si  4.66  2.26 -9.94
Si -4.66 -2.26  9.94
Si -5.13 -6.61 -7.46
Si  5.13  6.61  7.46
Si -4.73 -8.88  4.97
Si  4.73  8.88 -4.97
Si -6.91 -8.86  0.00
Si  6.91  8.86  0.00
Si  8.72  6.66 -2.48
Si -8.72 -6.66  2.48
Si 10.11 -0.02  4.97
Si -10.11  0.02 -4.97
Si -6.56  8.85  2.48
Si  6.56 -8.85 -2.48
Si -3.08 -4.48  9.94
Si  3.08  4.48 -9.94
Si -0.20 11.06  2.48
Si  0.20 -11.06 -2.48
Si -5.45  6.61  7.46
Si  5.45 -6.61 -7.46
Si -6.67 -8.85 -2.48
Si  6.67  8.85  2.48
Si -8.29 -2.18 -7.46
Si  8.29  2.18  7.46
Si  0.27 11.09 -2.48
Si -0.27 -11.09  2.48
Si  9.99 -2.19 -4.97
Si -9.99  2.19  4.97
Si -2.61 11.07  0.00
Si  2.61 -11.07  0.00
Si -2.68 -11.07  0.00
Si  2.68 11.07  0.00
Si -5.17  2.17  9.94
Si  5.17 -2.17 -9.94
Si  7.86 -6.62 -4.97
Si -7.86  6.62  4.97
Si -8.65 -0.03  7.46
Si  8.65  0.03 -7.46
Si 10.30  4.44 -2.48
Si -10.30 -4.44  2.48
Si -3.83 -4.38 -9.94
Si  3.83  4.38  9.94
Si  8.02  6.62  4.97
Si -8.02 -6.62 -4.97
Si  5.41  2.17  9.94
Si -5.41 -2.17 -9.94
Si -0.91 -8.82 -7.46
Si  0.91  8.82  7.46
Si -2.45 -11.06 -2.48
Si  2.45 11.06  2.48
Si -2.37 11.09 -2.48
Si  2.37 -11.09  2.48
Si  0.32 -8.89  7.46
Si -0.32  8.89 -7.46
Si -4.11  4.38  9.94
Si  4.11 -4.38 -9.94
Si  7.74 -4.46  7.46
Si -7.74  4.46 -7.46
Si  7.14  8.87 -2.48
Si -7.14 -8.87  2.48
Si -9.60 -4.41 -4.97
Si  9.60  4.41  4.97
Si -1.74  8.82  7.46
Si  1.74 -8.82 -7.46
Si -2.85 11.06  2.48
Si  2.85 -11.06 -2.48
Si -2.92 -11.09  2.48
Si  2.92 11.09 -2.48
Si -6.24 -0.05  9.94
Si  6.24  0.05 -9.94
Si  5.85 -8.88  4.97
Si -5.85  8.88 -4.97
Si  8.81 -2.25  7.46
Si -8.81  2.25 -7.46
Si -5.93  2.26 -9.94
Si  5.93 -2.26  9.94
Si  2.33  8.89 -7.46
Si -2.33 -8.89  7.46
Si 11.65  2.21  0.00
Si -11.65 -2.21  0.00
Si 11.41  2.20  2.48
Si -11.41 -2.20 -2.48
Si -8.13 -4.46  7.46
Si  8.13  4.46 -7.46
Si -4.86  4.48 -9.94
Si  4.86 -4.48  9.94
Si -0.39  6.60  9.94
Si  0.39 -6.60 -9.94
Si 11.10 -4.43  0.00
Si -11.10  4.43  0.00
Si  6.55  6.68 -7.46
Si -6.55 -6.68  7.46
Si -2.97  8.89 -7.46
Si  2.97 -8.89  7.46
Si 10.86 -4.44  2.48
Si -10.86  4.44 -2.48
Si -6.43 -8.84 -4.97
Si  6.43  8.84  4.97
Si -6.68  6.68 -7.46
Si  6.68 -6.68  7.46
Si -10.03  6.64  0.00
