500
set: 850.00  0.00  0.00
Si -0.42  1.22 -0.83
Si  0.43 -1.21  0.85
Si -1.40 -1.20 -0.85
Si  1.42  1.24  0.88
Si  0.87  0.01 -2.55
Si -2.24  1.25  0.86
Si  2.26 -1.24 -0.84
Si -0.91  0.01  2.55
Si  0.08  2.45  2.52
Si  3.21  1.27 -0.84
Si -0.00 -2.47 -2.60
Si -3.27 -1.23  0.86
Si  2.75  0.04  2.56
Si -2.76  0.02 -2.57
Si -0.52 -3.73  0.87
Si  0.53  3.73 -0.86
Si -1.73  2.48 -2.52
Si  1.77 -2.48  2.57
Si  1.91  2.48 -2.56
Si -1.32  3.74  0.83
Si  1.25 -3.76 -0.89
Si -1.88 -2.54  2.56
Si  4.04 -1.19  0.84
Si -0.89  0.01 -4.24
Si  0.91 -0.03  4.25
Si -4.10  1.25 -0.89
Si -2.38 -3.71 -0.86
Si  2.39  3.71  0.87
Si -0.12 -2.49  4.26
Si  0.08  2.50 -4.26
Si -3.14  3.71 -0.84
Si  3.13 -3.74  0.87
Si  2.73 -0.01 -4.25
Si -3.58  2.48  2.57
Si  3.63 -2.48 -2.52
Si -2.75  0.04  4.28
Si -3.68 -2.48 -2.55
Si  3.68  2.46  2.59
Si -1.75  2.47  4.18
Si  4.56  0.01 -2.52
Si  1.80 -2.51 -4.22
Si -1.88 -2.49 -4.23
Si -4.59  0.02  2.58
Si -5.05 -1.23 -0.89
Si  1.92  2.48  4.25
Si  5.07  1.22  0.90
Si  1.03  4.90  2.56
Si  4.16  3.68 -0.89
Si -0.77  4.96 -2.55
Si -1.00 -4.96 -2.56
Si  0.77 -4.99  2.59
Si -4.23 -3.70  0.83
Si -3.60  2.46 -4.25
Si -5.90  1.22  0.90
Si  3.60 -2.49  4.25
Si  5.91 -1.23 -0.89
Si  0.46 -1.24 -5.96
Si -0.42  1.24  5.98
Si -3.73 -2.48  4.21
Si  3.70  2.45 -4.28
Si -2.63  4.97  2.53
Si  2.63 -5.00 -2.57
Si -4.93  3.70  0.87
Si  4.91 -3.73 -0.84
Si  1.33  1.23 -5.95
Si -1.37 -1.22  5.95
Si  0.30 -6.17 -0.84
Si  4.55  0.02  4.28
Si -2.83 -4.99  2.52
Si -4.58 -0.00 -4.28
Si -0.35  6.21  0.86
Si  2.91  4.97 -2.60
Si -1.49 -6.20  0.88
Si  2.25 -1.26  5.93
Si  1.51  6.24 -0.85
Si  5.43 -2.47  2.53
Si -5.42  2.44 -2.57
Si -2.28  1.24 -6.00
Si -0.82  4.96  4.21
Si -5.54 -2.47  2.53
Si  5.54  2.44 -2.57
Si  1.03  4.95 -4.23
Si -0.99 -4.96  4.25
Si  0.79 -4.99 -4.28
Si -2.14  6.21 -0.89
Si  2.16 -6.22  0.90
Si  6.38  0.02  2.58
Si -6.40  0.01 -2.52
Si  3.26  1.21  5.99
Si -3.20 -1.25 -6.03
Si  2.63 -4.95  4.24
Si  6.86  1.25 -0.89
Si -2.64  4.95 -4.28
Si  0.56  3.73  5.97
Si -0.54 -3.75 -5.96
Si -6.92 -1.19  0.84
Si  2.79  4.95  4.26
Si -4.42  4.96 -2.52
Si -3.33 -6.22 -0.83
Si -2.83 -4.94 -4.26
Si  3.34  6.23  0.85
Si  6.04  3.70  0.87
Si -1.30  3.76 -5.93
Si  1.27 -3.73  5.96
Si  4.48 -4.96  2.57
Si -6.05 -3.73 -0.84
Si -4.64 -4.96 -2.52
Si  4.68  4.96  2.57
Si -4.10  1.23  5.94
Si -5.42  2.49  4.24
Si  5.41 -2.49 -4.28
Si  4.09 -1.23 -5.97
Si  3.95 -6.19 -0.89
Si  2.37  3.69 -5.96
Si  5.54  2.49  4.24
Si -2.35 -3.71  5.97
Si -5.55 -2.49 -4.28
Si -4.01  6.25  0.84
Si  3.10 -3.70 -5.93
Si -3.13  3.72  5.93
Si  6.38 -0.00 -4.28
Si -6.41  0.02  4.28
Si  6.74 -3.70  0.83
Si -0.43  1.18 -7.66
Si  0.45 -1.24  7.65
Si -6.81  3.68 -0.89
Si -0.16 -7.40  2.56
Si  7.70 -1.23  0.86
Si  1.45  1.25  7.61
Si  0.15  7.46 -2.57
Si -4.45  4.95  4.25
Si -7.76  1.27 -0.84
Si  4.46 -4.98 -4.25
Si  5.06  1.23 -5.96
Si -1.37 -1.27 -7.69
Si -5.05 -1.26  5.97
Si -4.66 -4.97  4.18
Si  1.65 -7.43 -2.52
Si  4.71  4.93 -4.22
Si  2.23 -1.26 -7.62
Si -1.68  7.46  2.58
Si -2.23  1.24  7.67
Si -5.15 -6.19  0.86
Si  7.28 -2.48 -2.55
Si -7.28  2.46  2.59
Si -2.04 -7.43 -2.55
Si  5.17  6.20 -0.84
Si  2.00  7.45  2.55
Si -7.33 -2.48 -2.52
Si -4.21 -3.68 -5.93
Si  4.18  3.71  5.96
Si  7.39  2.48  2.57
Si  3.22  1.24 -7.64
Si -6.29  4.96  2.57
Si -3.18 -1.24  7.69
Si  6.33 -4.96 -2.52
Si -5.91  1.23 -5.96
Si  5.91 -1.26  5.97
Si -5.80  6.20 -0.84
Si -0.58 -3.71  7.66
Si  0.54  3.73 -7.66
Si  5.82 -6.19  0.86
Si -6.49 -4.96  2.57
Si  4.93 -3.72  5.93
Si -0.18 -7.45 -4.25
Si  6.54  4.96 -2.52
Si -4.96  3.74 -5.93
Si  3.47 -7.42  2.58
Si  1.30 -3.68 -7.65
Si  8.21  0.02 -2.57
Si -8.21  0.04  2.56
Si -3.49  7.45 -2.52
Si -1.30  3.74  7.65
Si  0.16  7.48  4.28
Si  0.35 -6.23  5.99
Si -0.29  6.19 -6.03
Si  7.82  3.71 -0.84
Si  1.64 -7.42  4.28
Si -7.84 -3.74  0.87
Si  7.23 -2.48  4.21
Si -3.82 -7.42  2.55
Si  3.78  7.45 -2.55
Si -0.65 -8.68 -0.84
Si -1.67  7.44 -4.28
Si  1.13 -8.63  0.84
Si  1.54  6.22  5.95
Si -1.58 -6.21 -5.95
Si  0.67  8.69  0.86
Si  4.09 -1.28  7.64
Si -7.27  2.45 -4.28
Si -4.08  1.25 -7.68
Si  2.02  7.45 -4.24
Si -1.19  8.69 -0.89
Si -2.00 -7.47  4.25
Si -2.37 -3.71 -7.66
Si -8.71 -1.24 -0.84
Si  2.33  3.73  7.66
Si  7.37  2.46 -4.25
Si -2.14  6.18  5.97
Si  8.73  1.25  0.86
Si -7.36 -2.49  4.25
Si  2.15 -6.21 -5.96
Si -6.25  4.93 -4.22
Si -2.48 -8.64  0.85
Si  2.49  8.66 -0.83
Si  6.31 -4.97  4.18
Si -3.13  3.74 -7.63
Si  3.11 -3.71  7.70
Si  6.87  1.23  5.94
Si -6.88 -1.23 -5.97
Si -2.99  8.66  0.90
Si  3.00 -8.67 -0.89
Si  6.51  4.95  4.25
Si -6.51 -4.98 -4.25
Si  3.37  6.20 -5.96
Si  6.01  3.74 -5.93
Si -5.03 -1.24 -7.64
Si -3.33 -6.21  5.98
Si -6.04 -3.72  5.93
Si  8.21  0.04  4.28
Si  3.47 -7.44 -4.28
Si -8.24 -0.01 -4.25
Si -3.50  7.46  4.28
Si  5.09  1.24  7.69
Si  3.82  7.41  4.25
Si -3.80 -7.43 -4.24
Si  6.95  6.25  0.84
Si  0.93 -0.01 -9.34
Si -8.58  3.71  0.87
Si -7.01 -6.19 -0.89
Si  8.59 -3.71 -0.86
Si -0.92  0.02  9.35
Si  3.96 -6.21  5.94
Si  5.30 -7.42 -2.57
Si -4.21 -3.70  7.65
Si -3.97  6.21 -5.97
Si  4.21  3.76 -7.65
Si -5.30  7.48  2.56
Si -0.03 -2.48 -9.33
Si -9.54  1.24  0.88
Si -5.67 -7.42 -2.57
Si  9.57 -1.20 -0.85
Si -4.31 -8.64 -0.85
Si  0.06  2.52  9.36
Si  2.71 -0.04  9.32
Si  6.76 -3.68 -5.93
Si  5.66  7.48  2.56
Si -9.06  2.48 -2.56
Si  4.33  8.68  0.88
Si  5.93 -1.24 -7.64
Si -5.88  1.24  7.69
Si -6.78  3.71  5.96
Si  9.08 -2.54  2.56
Si -2.77  0.02 -9.38
Si  4.92 -3.70 -7.63
Si -8.06  4.97 -2.60
Si -7.71  1.21  5.99
Si -1.81  2.49 -9.35
Si  1.75 -2.45  9.37
Si  0.31 -6.20 -7.64
Si -9.20 -2.48  2.57
Si  8.14 -4.99  2.52
Si -0.27  6.20  7.69
Si  1.89  2.51 -9.37
Si -4.95  3.73  7.70
Si -7.62  6.23  0.85
Si  7.64 -6.22 -0.83
Si -1.87 -2.50  9.38
Si  9.24  2.48 -2.52
Si  7.76 -1.25 -6.03
Si -1.46 -6.19  7.61
Si  4.79 -8.67  0.86
Si  1.54  6.17 -7.69
Si  5.16  6.17  5.93
Si -4.85  8.71 -0.84
Si  8.34  4.97  2.53
Si -8.33 -5.00 -2.57
Si  5.30 -7.40  4.28
Si -5.19 -6.20 -6.00
Si -2.12  6.20 -7.64
Si -5.33  7.43 -4.25
Si  2.18 -6.20  7.69
Si  5.64  7.43 -4.25
Si -5.66 -7.40  4.28
Si  0.72 -9.92 -2.52
Si -0.67  9.92  2.57
Si  3.61 -2.50 -9.31
Si  1.18  9.91 -2.52
Si -3.60  2.49  9.33
Si -9.05  2.48  4.25
Si -1.14 -9.92  2.57
Si  9.09 -2.49 -4.23
Si -5.81  6.17  5.93
Si -3.69 -2.48 -9.36
Si -6.88 -1.28  7.64
Si 10.05  0.01  2.55
Si  9.65  3.74  0.83
Si  3.72  2.48  9.37
Si  5.78 -6.20 -6.00
Si  6.88  1.25 -7.68
Si -9.16 -2.51 -4.22
Si  3.36  6.20  7.65
Si  4.58 -0.02 -9.34
Si -10.09  0.01 -2.55
Si -6.04 -3.70 -7.63
Si  9.22  2.47  4.18
Si  8.14 -4.94 -4.26
Si -4.60 -0.01  9.37
Si -3.34 -6.26 -7.66
Si  6.02  3.73  7.70
Si -9.72 -3.76 -0.89
Si -8.18  4.95  4.26
Si  7.84  3.72  5.93
Si -2.51  9.88 -2.57
Si -7.87 -3.70 -5.93
Si  2.52 -9.90  2.53
Si -0.67 -8.71  5.93
Si  0.63  8.68 -6.00
Si -1.19  8.67  5.94
Si -8.33 -4.95  4.24
Si  8.32  4.95 -4.28
Si -3.97  6.16  7.64
Si  1.18 -8.67 -5.97
Si  7.14 -7.42  2.55
Si -0.79  4.96 -9.36
Si -8.72 -1.26  5.93
Si -1.02 -4.93 -9.37
Si  8.69  1.24 -6.00
Si  0.81 -4.96  9.37
Si  3.97 -6.19 -7.68
Si -10.53 -1.21  0.85
Si  2.99  9.89  2.52
Si 10.55  1.22 -0.83
Si -2.91 -9.91 -2.60
Si  1.04  4.94  9.38
Si -7.18  7.45 -2.55
Si  6.12  8.71 -0.84
Si -6.17 -8.67  0.86
Si -0.69  9.90 -4.25
Si -2.45 -8.68 -5.96
Si -8.81 -6.22  0.90
Si  0.69 -9.93  4.25
Si  1.16  9.91  4.18
Si  8.82  6.21 -0.89
Si  2.48  8.67  5.98
Si  7.47  7.45 -2.52
Si  6.75 -3.70  7.65
Si -1.11 -9.95 -4.22
Si -7.50 -7.42  2.58
Si -6.76  3.76 -7.65
Si  2.58 -4.91 -9.37
Si -2.65  4.97  9.32
Si -10.05 -0.03  4.25
Si 10.07  0.01 -4.24
Si -3.00  8.67 -5.96
Si  6.66 -8.64 -0.85
Si -7.74  1.24 -7.64
Si  2.88  4.96 -9.33
Si -2.85 -4.92  9.36
Si -6.63  8.68  0.88
Si  3.00 -8.70  5.97
Si  7.79 -1.24  7.69
Si  5.41 -2.46  9.32
Si  5.14  6.17 -7.62
Si -2.51  9.93  4.24
Si -7.01 -6.21  5.94
Si -8.60  3.69 -5.96
Si  2.50 -9.93 -4.28
Si  7.00  6.21 -5.97
Si -0.92  0.01 -11.07
Si -10.43  3.73 -0.86
Si -5.14 -6.20  7.67
Si  0.93 -0.01 11.08
Si 10.44 -3.73  0.87
Si -4.37  9.89  2.59
Si  8.62 -3.71  5.97
Si -5.56 -2.46  9.32
Si -7.14  7.41  4.25
Si  4.37 -9.92 -2.55
Si -5.47  2.53 -9.37
Si  5.50  2.53 -9.37
Si  7.17 -7.43 -4.24
Si -0.23 11.15 -0.84
Si  0.22 -11.18  0.87
Si  2.99  9.94 -4.26
Si -3.03 -9.93  4.26
Si -6.38 -0.02 -9.34
Si  1.59 11.18  0.83
Si  4.82  9.92 -2.56
Si  6.37 -0.01  9.37
Si  4.24  8.67 -5.95
Si  0.06  2.52 -11.06
Si -4.28 -8.66  5.95
Si -9.45  6.24 -0.85
Si -2.02 11.14  0.87
Si  9.59 -1.22  5.95
Si  9.48 -6.20  0.88
Si -1.66 -11.20 -0.89
Si -4.79 -9.98  2.56
Si -0.03 -2.48 11.09
Si -9.94  4.90  2.56
Si  2.00 -11.17 -0.84
Si  7.46  7.46  4.28
Si -2.77  0.02 11.04
Si -9.63  1.23 -5.95
Si -7.49 -7.44 -4.28
Si -5.83  6.17 -7.62
Si  9.96 -4.96 -2.56
Si  2.70 -0.04 -11.10
Si -10.88  2.45  2.52
Si -4.44  4.94 -9.31
Si  5.83 -6.20  7.67
Si  1.75 -2.45 -11.05
Si  4.46 -4.95  9.33
Si -7.60  6.20 -5.96
Si -1.88 -2.50 -11.04
Si -11.38  1.22 -0.83
Si 11.40 -1.21  0.85
Si -1.81  2.49 11.07
Si  1.89  2.52 11.06
Si  7.63 -6.21  5.98
Si 10.96 -2.47 -2.60
Si -10.97 -2.47 -2.60
Si  7.83  3.74 -7.63
Si -4.80  8.65  5.99
Si -4.72 -4.95 -9.35
Si -0.68 -8.71 -7.62
Si  4.67  4.99  9.37
Si 11.05  2.45  2.52
Si  0.68  8.68  7.67
Si -7.86 -3.71  7.70
Si  4.32 -9.92  4.21
Si 10.19  4.96 -2.55
Si -4.36  9.89 -4.28
Si  4.85 -8.69 -6.03
Si -10.19 -4.99  2.59
Si  1.18 -8.72  7.64
Si -1.17  8.69 -7.68
Si -8.74 -1.26 -7.62
Si  8.74  1.24  7.67
Si -3.43 -11.16  0.87
Si  3.44 11.18 -0.86
Si  2.48  8.62 -7.66
Si -7.96 -8.67 -0.89
Si -4.79 -9.93 -4.23
Si  7.98  8.66  0.90
Si  3.83 -11.14  0.83
Si -3.90 11.12 -0.89
Si  4.83  9.92  4.25
Si -2.46 -8.68  7.65
Si -9.94  4.95 -4.23
Si  8.93 -7.43 -2.55
Si 10.84 -2.49  4.26
Si  3.71  2.48 -11.05
Si  9.97 -4.96  4.25
Si -3.69 -2.47 11.07
Si -3.60  2.49 -11.10
Si -8.97  7.45  2.55
Si  3.62 -2.50 11.11
Si  9.67  3.76 -5.93
Si -6.15  9.92 -2.56
Si -10.88  2.50 -4.26
Si  3.02 -8.68 -7.64
Si -0.20 -7.48  9.32
Si -2.97  8.68  7.69
Si -4.60 -0.01 -11.05
Si -9.69 -3.73  5.96
Si  0.14  7.46 -9.38
Si  4.58 -0.02 11.08
Si  6.17 -9.98  2.56
Si 10.14  4.96  4.21
Si  7.00  6.16  7.64
Si  1.67 -7.46 -9.34
Si -1.69  7.43  9.37
Si -6.99 -6.19 -7.68
Si  8.60 -3.71 -7.66
Si 11.05  2.50 -4.26
Si  7.27 -2.48 -9.36
Si -7.25  2.48  9.37
Si -1.98 -7.45 -9.34
Si -11.49 -3.73  0.87
Si 11.84  0.01 -2.55
Si -10.18 -4.99 -4.28
Si 11.50  3.73 -0.86
Si  1.99  7.46  9.35
Si -7.35 -2.50 -9.31
Si -8.64  3.73  7.66
Si  1.03  4.94 -11.04
Si -11.09 -2.49  4.26
Si  0.80 -4.96 -11.05
Si -10.51 -1.24 -5.96
Si -8.47  8.66 -0.83
Si  7.37  2.49  9.33
Si  8.49 -8.64  0.85
Si -1.02 -4.92 11.06
Si -11.88  0.01  2.55
Si -0.78  4.97 11.07
Si  6.59  9.89  2.59
Si -9.31 -7.43 -2.52
Si -6.59 -9.92 -2.55
