500
set: 1436.00  0.00  0.00
Si -0.91  0.88 -0.82
Si  1.39  0.54  0.35
Si -0.49 -1.05 -1.67
Si  0.62 -1.98  1.07
Si  1.74  0.20  2.34
Si -0.27 -1.28  2.69
Si -2.99  0.54  0.35
Si  1.89 -2.53 -1.31
Si -2.65  0.20  2.34
Si  0.83  3.46 -0.21
Si  3.48  0.88 -0.82
Si -0.48  3.21 -1.90
Si -2.49 -2.53 -1.31
Si -0.83 -0.71 -3.65
Si -0.71 -3.78  0.47
Si  1.32  2.13  3.19
Si  3.90 -1.05 -1.67
Si -3.76 -1.98  1.07
Si -1.60 -3.23 -2.93
Si -0.77  1.79  4.35
Si -1.26  4.70  0.47
Si -3.07  2.13  3.19
Si -1.40  2.21 -4.21
Si -3.56  3.46 -0.21
Si  1.25 -0.37 -4.82
Si -2.09 -4.02  2.10
Si  0.90  3.45 -3.53
Si  4.12 -1.28  2.69
Si  2.30 -4.02  2.10
Si  3.55 -0.71 -3.65
Si  2.78 -3.23 -2.93
Si  1.38 -5.03 -0.21
Si  1.74  4.46  2.10
Si -4.87 -1.05 -1.67
Si  3.68 -3.78  0.47
Si -1.53 -0.73  5.08
Si  1.52 -2.53  4.48
Si  3.90  3.21 -1.90
Si -0.78 -3.77  3.79
Si -5.29  0.88 -0.82
Si  5.01 -1.98  1.07
Si -4.65 -1.28  2.69
Si -2.64  4.46  2.10
Si  0.07 -5.27 -1.90
Si  2.99  2.21 -4.21
Si  3.12  4.70  0.47
Si -3.13 -0.37 -4.82
Si  5.78  0.54  0.35
Si -3.00 -5.03 -0.21
Si  2.85 -0.73  5.08
Si -2.86 -2.53  4.48
Si  3.62  1.79  4.35
Si -3.48  3.45 -3.53
Si -4.86  3.21 -1.90
Si -1.33  4.71  3.79
Si  1.34  5.96 -1.31
Si  5.21  3.46 -0.21
Si  1.45 -5.03 -3.53
Si  1.67 -2.30 -5.67
Si -5.09 -3.78  0.47
Si -2.15  5.26 -2.93
Si -5.21 -0.71 -3.65
Si  2.23  5.26 -2.93
Si  1.68  1.96 -5.90
Si  3.60 -3.77  3.79
Si -0.42  1.45  6.34
Si -0.33 -3.78 -5.32
Si  6.12  0.20  2.34
Si  0.07  6.51  1.07
Si -2.71 -2.30 -5.67
Si  0.14 -2.77  6.11
Si  3.05  4.71  3.79
Si -2.70  1.96 -5.90
Si -2.93 -5.03 -3.53
Si -3.04  5.96 -1.31
Si  5.70  2.13  3.19
Si  6.28 -2.53 -1.31
Si  1.96 -0.03  6.69
Si -5.15  1.79  4.35
Si -4.31 -5.27 -1.90
Si -2.42 -0.03  6.69
Si -0.88  4.71 -5.32
Si  4.46 -5.27 -1.90
Si  5.28  3.45 -3.53
Si  1.87 -6.36  3.19
Si -5.64  4.70  0.47
Si -7.37  0.54  0.35
Si -5.98 -3.23 -2.93
Si -7.03  0.20  2.34
Si  5.63 -0.37 -4.82
Si -5.16 -3.77  3.79
Si -6.87 -2.53 -1.31
Si -5.78  2.21 -4.21
Si  0.96  5.95  4.48
Si -2.51 -6.36  3.19
Si -0.84 -6.27 -4.21
Si  3.96  1.45  6.34
Si  5.76 -5.03 -0.21
Si -0.35 -7.61 -0.82
Si  4.05 -3.78 -5.32
Si -1.04  7.44 -1.67
Si -0.82  7.20  2.69
Si  5.90 -2.53  4.48
Si -5.92 -0.73  5.08
Si  6.13  4.46  2.10
Si -4.31  6.51  1.07
Si -6.47 -4.02  2.10
Si  3.50  4.71 -5.32
Si -4.24 -2.77  6.11
Si  7.86  0.88 -0.82
Si -1.32  2.20 -7.53
Si  4.45  6.51  1.07
Si -0.84  3.38  7.19
Si -0.21 -6.70  4.35
Si  0.01  4.01 -6.93
Si  1.33 -1.96 -7.65
Si -4.71 -3.78 -5.32
Si  6.68 -4.02  2.10
Si -4.80  1.45  6.34
Si  4.52 -2.77  6.11
Si  1.95 -7.95  0.35
Si -3.42  5.95  4.48
Si  0.56 -4.48 -6.93
Si  0.76  0.96 -8.22
Si -2.44 -7.95  0.35
Si -5.71  4.71  3.79
Si  1.44 -2.53  7.79
Si  3.34  7.44 -1.67
Si  3.54 -6.27 -4.21
Si  5.72  5.96 -1.31
Si -0.41  5.71  6.11
Si -7.45  2.13  3.19
Si  7.16 -3.23 -2.93
Si  3.06  2.20 -7.53
Si -8.14 -1.98  1.07
Si  1.12  6.19 -5.67
Si -3.05 -1.96 -7.65
Si  5.83 -5.03 -3.53
Si  3.56  7.20  2.69
Si  8.28 -1.05 -1.67
Si -7.02  4.46  2.10
Si -0.64 -1.28  8.48
Si  6.05 -2.30 -5.67
Si  4.03 -7.61 -0.82
Si -7.94  3.46 -0.21
Si  6.06  1.96 -5.90
Si  3.54  3.38  7.19
Si -1.38  7.77 -3.65
Si -2.94 -2.53  7.79
Si  7.93 -0.71 -3.65
Si  7.37  2.21 -4.21
Si -0.29 -5.11  7.19
Si -5.26  4.71 -5.32
Si -2.09 -8.28  2.34
Si  7.23 -0.73  5.08
Si  7.51  4.70  0.47
Si -6.54  5.26 -2.93
Si -7.25 -2.53  4.48
Si  2.29 -8.28  2.34
Si  8.06 -3.78  0.47
Si -7.51 -0.37 -4.82
Si -7.38 -5.03 -0.21
Si  6.61  5.26 -2.93
Si -4.74 -7.61 -0.82
Si -3.26  6.19 -5.67
Si  8.50 -1.28  2.69
Si  1.46  3.04  8.36
Si  4.17 -6.70  4.35
Si -0.97 -1.62 -8.82
Si -3.62  0.96 -8.22
Si -2.15 -6.52 -5.90
Si  0.84  9.02  0.35
Si  1.19  8.69  2.34
Si  2.23 -6.52 -5.90
Si  8.29  3.21 -1.90
Si -3.82 -4.48 -6.93
Si  3.00  7.77 -3.65
Si  0.69  0.52  9.08
Si -4.38  4.01 -6.93
Si  4.39  4.01 -6.93
Si  5.35  5.95  4.48
Si -5.23 -6.27 -4.21
Si -4.59 -6.70  4.35
Si  6.34 -0.03  6.69
Si  3.97  5.71  6.11
Si  8.00  1.79  4.35
Si -5.20  7.20  2.69
Si -7.86  3.45 -3.53
Si -5.42  7.44 -1.67
Si  3.74 -1.28  8.48
Si -2.92  3.04  8.36
Si -7.09 -2.30 -5.67
Si -7.08  1.96 -5.90
Si -9.25 -1.05 -1.67
Si  0.70  8.11 -4.82
Si  6.25 -6.36  3.19
Si  0.13 -7.03  6.34
Si -2.09  7.75  5.08
Si -5.22  3.38  7.19
Si -9.03 -1.28  2.69
Si -1.46  9.36 -0.82
Si -6.81 -0.03  6.69
Si -3.20  8.69  2.34
Si  2.29  7.75  5.08
Si -7.31 -5.03 -3.53
Si  7.43  4.71  3.79
Si  3.41 -1.62 -8.82
Si -7.42  5.96 -1.31
Si  7.99 -3.77  3.79
Si  4.94 -4.48 -6.93
Si -4.80  5.71  6.11
Si  9.39 -1.98  1.07
Si  0.07 -9.53 -1.67
Si -3.54  9.02  0.35
Si -5.71  2.20 -7.53
Si  4.09 -5.11  7.19
Si  5.14  0.96 -8.22
Si -9.67  0.88 -0.82
Si  5.71 -1.96 -7.65
Si -3.69  0.52  9.08
Si -0.77 -6.28 -7.53
Si  2.92  9.36 -0.82
Si  0.89  5.96  7.79
Si -0.28 -9.20 -3.65
Si -6.89 -6.36  3.19
Si -5.02 -1.28  8.48
Si -0.54  0.71 -9.90
Si -9.24  3.21 -1.90
Si -4.67 -5.11  7.19
Si  1.28  3.46 -9.32
Si  5.50  6.19 -5.67
Si  5.83 -2.53  7.79
Si  0.78  6.52 -7.65
Si -3.68  8.11 -4.82
Si  0.29 -9.76  2.69
Si  6.33 -7.95  0.35
Si  2.01 -5.45  8.36
Si 10.16  0.54  0.35
Si  9.59  3.46 -0.21
Si -9.47 -3.78  0.47
Si  1.80 -8.86 -4.82
Si -2.37 -5.45  8.36
Si -9.60 -0.71 -3.65
Si -0.55 -3.54 -9.67
Si -8.69 -5.27 -1.90
Si -5.76  7.77 -3.65
Si -4.25 -7.03  6.34
Si -2.58 -8.86 -4.82
Si  5.07  0.52  9.08
Si -3.49  5.96  7.79
Si -3.11  3.46 -9.32
Si -2.02 -1.53 10.11
Si  5.22  9.02  0.35
Si -5.35 -1.62 -8.82
Si  3.61 -6.28 -7.53
Si  8.84 -5.27 -1.90
Si -6.82 -7.95  0.35
Si  4.51 -7.03  6.34
Si  2.36 -1.53 10.11
Si -0.98 -9.21  5.08
Si  5.57  8.69  2.34
Si  8.34  1.45  6.34
Si  1.18 -10.46  1.07
Si -4.32 -9.53 -1.67
Si  7.88  4.71 -5.32
Si -9.53  1.79  4.35
Si  5.84  3.04  8.36
Si  3.84  0.71 -9.90
Si  4.45 -9.53 -1.67
Si  8.43 -3.78 -5.32
Si -3.61  6.52 -7.65
Si  4.11 -9.20 -3.65
Si  5.08  8.11 -4.82
Si  1.83 -5.03 -9.32
Si 10.50  0.20  2.34
Si -0.20  1.22 10.69
Si -6.47 -8.28  2.34
Si -7.80  5.95  4.48
Si 10.08  2.13  3.19
Si  7.44  2.20 -7.53
Si  1.80  2.70 10.34
Si -7.44 -1.96 -7.65
Si  7.73  7.44 -1.67
Si  9.66  3.45 -3.53
Si  1.41  8.45  6.69
Si  6.67 -8.28  2.34
Si -2.55 -5.03 -9.32
Si -8.69  6.51  1.07
Si -1.10  4.94 -9.67
Si -4.09 -9.76  2.69
Si -8.63 -2.77  6.11
Si -4.66 -9.20 -3.65
Si -9.54 -3.77  3.79
Si  7.92 -6.27 -4.21
Si -6.53 -6.52 -5.90
Si -7.32 -2.53  7.79
Si -1.87 -8.51  6.69
Si  3.83 -3.54 -9.67
Si -3.21 -10.46  1.07
Si -2.58  2.70 10.34
Si  6.61 -6.52 -5.90
Si  8.84  6.51  1.07
Si 10.66 -2.53 -1.31
Si  3.40 -9.21  5.08
Si  7.95  7.20  2.69
Si -5.84  9.36 -0.82
Si -5.15 -6.28 -7.53
Si -10.02  4.70  0.47
Si -4.93  0.71 -9.90
Si  0.76 10.61  3.19
Si  2.51 -8.51  6.69
Si 10.02 -0.37 -4.82
Si  5.27  5.96  7.79
Si  8.90 -2.77  6.11
Si  4.67 -9.76  2.69
Si -2.98  8.45  6.69
Si -1.19  7.20  8.48
Si -9.10 -3.78 -5.32
Si  1.31 -7.52 -8.22
Si  7.92  3.38  7.19
Si -10.16  2.21 -4.21
Si -1.32 10.27  4.35
Si -10.37 -3.23 -2.93
Si -9.19  1.45  6.34
Si -1.94 -11.01 -1.31
Si -1.52  6.86 -8.82
Si  5.16  6.52 -7.65
Si -6.47  7.75  5.08
Si 10.14 -5.03 -0.21
Si  7.38  7.77 -3.65
Si  3.28  4.94 -9.67
Si -7.64  6.19 -5.67
Si  2.45 -11.01 -1.31
Si  8.41 -7.61 -0.82
Si -4.93 -3.54 -9.67
Si  6.68  7.75  5.08
Si  5.66  3.46 -9.32
Si  2.17  2.76 -10.93
Si -2.22  2.76 -10.93
Si 10.28 -2.53  4.48
Si -10.30 -0.73  5.08
Si -7.31  3.04  8.36
Si -8.00  0.96 -8.22
Si  2.86  6.86 -8.82
Si  4.18  1.22 10.69
Si -3.07 -7.52 -8.22
Si  3.06 10.27  4.35
Si  3.19  7.20  8.48
Si  0.83  0.95 -11.53
Si 10.51  4.46  2.10
Si -11.25 -2.53 -1.31
Si -8.21 -4.48 -6.93
Si -11.41  0.20  2.34
Si -3.62 10.61  3.19
Si -1.95 10.69 -4.21
Si -4.58  1.22 10.69
Si  8.55 -6.70  4.35
Si  2.43 10.69 -4.21
Si -10.85 -4.02  2.10
Si -7.58  8.69  2.34
Si -10.10  4.71  3.79
Si -11.75  0.54  0.35
Si 10.11  5.96 -1.31
Si -5.37 -9.21  5.08
Si  8.12 -1.28  8.48
Si  8.35  5.71  6.11
Si -0.97  9.94  6.34
Si  6.19 -8.86 -4.82
Si  6.39 -5.45  8.36
Si -8.76  4.01 -6.93
Si  8.77  4.01 -6.93
Si  7.79 -1.62 -8.82
Si -0.71 -1.28 11.80
Si -1.03 11.69 -1.90
Si  5.56 -10.46  1.07
Si  7.30  9.36 -0.82
Si -9.12 -7.61 -0.82
Si 10.22 -5.03 -3.53
Si  0.27 11.94 -0.21
Si 11.06 -4.02  2.10
Si -9.65  4.71 -5.32
Si  1.93 -3.86 11.19
Si -7.92  9.02  0.35
Si -8.98 -6.70  4.35
Si -2.03 -5.78 10.34
Si -6.75 -5.45  8.36
Si  1.13 10.44 -5.90
Si -6.40 -1.53 10.11
Si  2.07 -11.02  4.48
Si  2.35 -5.78 10.34
Si -2.45 -3.86 11.19
Si 10.44 -2.30 -5.67
Si -3.55  0.95 -11.53
Si -2.31 -11.02  4.48
Si -1.05 -11.71 -2.93
Si -0.90 -3.21 -11.66
Si  1.24 -7.96  9.08
Si 10.44  1.96 -5.90
Si -8.08  0.52  9.08
Si -5.49  4.94 -9.67
Si  1.38  4.62 11.19
Si  5.15 10.61  3.19
Si -9.61 -6.27 -4.21
Si  8.47 -5.11  7.19
Si  5.79  8.45  6.69
Si  6.74 -1.53 10.11
Si -6.96 -8.86 -4.82
Si  9.73  5.95  4.48
Si  3.41  9.94  6.34
Si -0.15 -12.27  0.47
Si  6.21 -5.03 -9.32
Si -9.58  7.20  2.69
Si 12.24  0.88 -0.82
Si -1.46 -0.29 -12.22
Si  3.35 11.69 -1.90
Si 11.55 -3.23 -2.93
Si  6.18  2.70 10.34
Si -2.16 -10.78 -5.67
Si  2.23 -10.78 -5.67
Si  1.81  6.96 10.11
Si -8.07  8.11 -4.82
Si -9.18  5.71  6.11
Si -9.80  7.44 -1.67
Si  3.67 -1.28 11.80
Si -11.40  4.46  2.10
Si -3.26 10.44 -5.90
Si -11.83  2.13  3.19
Si -5.58  7.20  8.48
Si -7.49  3.46 -9.32
Si  9.32 -4.48 -6.93
Si  0.35 11.94 -3.53
Si -1.67 -5.72 -10.93
Si -9.61  3.38  7.19
Si -10.92  5.26 -2.93
Si -3.00  4.62 11.19
Si -3.14 -7.96  9.08
Si -6.25 -8.51  6.69
Si  5.70 -7.52 -8.22
Si  0.21  9.44 -8.22
Si  3.33 -11.71 -2.93
Si -5.70 10.27  4.35
Si 10.99  5.26 -2.93
Si -2.57  6.96 10.11
Si  2.92 -0.29 -12.22
Si -7.87  5.96  7.79
Si  1.58 -0.03 12.48
Si  3.49 -3.21 -11.66
Si  0.01 -7.77 -9.90
Si  9.53  0.96 -8.22
Si -4.11 11.94 -0.21
Si  2.72 -5.72 -10.93
Si -9.05 -5.11  7.19
Si 10.72 -0.03  6.69
Si -5.91  6.86 -8.82
Si  7.99 -6.28 -7.53
Si -6.94 -5.03 -9.32
Si 11.75  2.21 -4.21
Si 11.61 -0.73  5.08
Si  5.22  0.95 -11.53
Si -11.63 -2.53  4.48
Si -12.52 -1.98  1.07
Si -9.40 -1.28  8.48
Si -6.96  2.70 10.34
Si -6.32 -11.01 -1.31
Si -1.53 -12.51  2.10
Si -10.09  2.20 -7.53
Si  0.14  9.00  9.08
Si 10.63 -6.36  3.19
Si -2.80 -0.03 12.48
Si 11.89  4.70  0.47
Si -11.77 -5.03 -0.21
Si -12.32  3.46 -0.21
Si 12.66 -1.05 -1.67
Si -8.63 -7.03  6.34
Si 10.09 -1.96 -7.65
Si  4.66 11.94 -0.21
Si  0.69 -11.26  6.11
Si -0.23 -12.26  3.79
Si  6.89 -8.51  6.69
Si -11.89 -0.37 -4.82
Si -7.99  6.52 -7.65
Si 12.32 -0.71 -3.65
Si -1.45  5.27 -11.66
Si  8.22  0.71 -9.90
Si -5.10 -1.28 11.80
Si  0.35 -7.26 10.69
Si -0.09 -9.77  8.48
Si -5.36  9.94  6.34
Si  9.88  6.19 -5.67
Si -7.59 -10.46  1.07
Si  4.23 -12.27  0.47
Si  8.90 -7.03  6.34
Si  2.85 -12.51  2.10
Si -11.47 -2.30 -5.67
Si -8.70 -9.53 -1.67
Si 12.44 -3.78  0.47
Si  6.83 -11.01 -1.31
Si -5.41 11.69 -1.90
Si  8.49 -9.20 -3.65
Si -11.19 -0.03  6.69
