500
set: 1551.00  0.00  0.00
Si -0.84 -0.65 -1.75
Si -1.00 -1.84  0.84
Si -1.36 -0.39  1.95
Si -1.21  2.12 -0.18
Si -2.54 -0.26 -0.11
Si  1.80  0.57  1.82
Si -0.51 -2.74 -0.60
Si  1.70 -2.33  1.16
Si -1.33  1.92  2.27
Si  2.12  2.65 -0.60
Si  3.12  0.70 -1.30
Si  1.69  1.84 -2.42
Si  0.10  0.97  3.46
Si -1.01  2.34 -2.73
Si  3.10 -1.61 -1.62
Si  2.13 -1.52  2.97
Si  1.63  3.56  0.84
Si -1.20 -2.06  3.38
Si -3.97  0.70 -1.30
Si -2.77  3.06  1.16
Si -1.37  3.79 -1.62
Si -0.94 -3.56 -2.42
Si  1.92 -1.48 -3.68
Si -0.52  1.43 -4.17
Si  4.56 -0.26 -0.11
Si -4.00 -1.61 -1.62
Si  3.25 -3.28 -0.18
Si  1.64 -0.61  4.41
Si  0.49 -4.70 -1.30
Si  0.48 -0.53 -4.87
Si  1.43  3.34  3.38
Si  3.24  0.89 -3.75
Si -3.84 -3.28 -0.18
Si  0.09  5.14 -0.11
Si  3.13 -3.48  2.27
Si -0.83 -4.83  1.82
Si  3.45 -3.06 -2.73
Si  1.79  4.74 -1.75
Si -2.33  3.88  2.97
Si  4.33  3.06  1.16
Si -3.85  0.89 -3.75
Si -3.64 -3.06 -2.73
Si  1.27  5.01  1.95
Si -2.75 -1.11  4.72
Si -5.29  0.57  1.82
Si -4.97  2.65 -0.60
Si  1.28  0.84  5.52
Si -3.96 -3.48  2.27
Si  0.61 -4.50 -3.75
Si  0.46 -2.83 -5.19
Si -2.55  3.92 -3.68
Si  1.93 -5.65 -0.11
Si -4.96 -1.52  2.97
Si -5.40 -2.33  1.16
Si  5.74 -0.39  1.95
Si -0.95  0.62 -5.98
Si -2.52 -4.43  3.46
Si -5.41  1.84 -2.42
Si  5.88  2.12 -0.18
Si -2.65  1.79  5.39
Si -1.34  6.09 -1.30
Si -0.12  4.29  4.72
Si -1.32 -2.25  5.84
Si  6.09 -1.84  0.84
Si -0.85  3.52 -5.32
Si  5.76  1.92  2.27
Si  4.34 -1.11  4.72
Si -5.18 -1.48 -3.68
Si  6.26 -0.65 -1.75
Si  3.09  2.56 -5.19
Si -3.15 -3.97 -4.17
Si -5.47  3.56  0.84
Si -3.48 -1.88 -5.32
Si  3.62 -1.88 -5.32
Si  1.81 -3.60  5.39
Si  1.31  3.14  5.84
Si -2.66  5.97  1.82
Si  4.76  3.88  2.97
Si  3.11 -5.79  1.95
Si -2.32 -0.30  6.54
Si  3.95 -3.97 -4.17
Si -4.01  2.56 -5.19
Si  4.55  3.92 -3.68
Si -5.46 -0.61  4.41
Si  5.73  3.79 -1.62
Si  6.08  2.34 -2.73
Si -2.83  4.78  4.41
Si  5.89 -2.06  3.38
Si  1.44 -0.83  6.95
Si  6.59 -2.74 -0.60
Si -3.47 -6.05 -1.75
Si  0.47 -7.01 -1.62
Si  4.45  1.79  5.39
Si  4.57 -4.43  3.46
Si  3.44  1.11 -6.30
Si  3.63 -6.05 -1.75
Si -1.34 -4.56  5.52
Si -3.99 -5.79  1.95
Si -5.30  4.74 -1.75
Si  0.60 -0.33 -7.32
Si -3.65  1.11 -6.30
Si -5.67  3.34  3.38
Si -1.23  6.29 -3.75
Si  6.16 -3.56 -2.42
Si -0.99 -6.01  4.41
Si -0.49 -6.92  2.97
Si  3.11  4.87 -4.87
Si  1.42  7.51 -0.18
Si  4.43  5.97  1.82
Si -5.17 -5.65 -0.11
Si  0.81 -4.28 -6.30
Si  0.12 -3.21  7.03
Si  2.73  6.36  3.46
Si -0.72 -2.70 -7.25
Si  1.30  7.32  2.27
Si  4.27  4.78  4.41
Si -0.71 -6.88 -3.68
Si  2.75  2.19  7.03
Si -6.99  0.97  3.46
Si -0.93 -7.73  1.16
Si  6.58  1.43 -4.17
Si -5.82  5.01  1.95
Si -3.99  4.87 -4.87
Si  1.91  2.69 -7.25
Si -2.15 -5.92 -4.87
Si  7.20  0.97  3.46
Si -5.81  0.84  5.52
Si  3.46 -7.24  0.84
Si  4.78 -0.30  6.54
Si -7.60 -2.74 -0.60
Si  6.27 -4.83  1.82
Si -2.78  7.24 -2.42
Si -3.63 -7.24  0.84
Si -7.93 -0.65 -1.75
Si -6.61 -4.70 -1.30
Si  1.71 -6.51  4.72
Si -6.62 -0.53 -4.87
Si  2.11  6.83 -4.17
Si -0.11  0.11  8.29
Si  0.31  5.10  6.54
Si -8.10 -1.84  0.84
Si  1.62  7.73 -2.73
Si -5.28 -3.60  5.39
Si -3.16  0.21 -7.74
Si -2.34  8.05 -0.60
Si  3.52 -4.78 -5.98
Si -3.58 -4.78 -5.98
Si -4.36  6.36  3.46
Si  5.75  6.09 -1.30
Si -2.82  0.61  7.98
Si  5.78 -2.25  5.84
Si -0.14  8.46  1.16
Si -4.35  2.19  7.03
Si -8.31  2.12 -0.18
Si  6.14  0.62 -5.98
Si  1.68  6.01 -5.98
Si -8.45 -0.39  1.95
Si  3.94  0.21 -7.74
Si -7.00  5.14 -0.11
Si  0.62 -8.68 -0.18
Si -6.49 -4.50 -3.75
Si -3.14 -8.14 -0.60
Si  4.32  7.24 -2.42
Si -7.62  1.43 -4.17
Si -5.79  3.14  5.84
Si  3.26 -7.45  3.38
Si  7.19  5.14 -0.11
Si -3.03  4.56  6.95
Si  0.45  1.34 -8.76
Si -8.11  2.34 -2.73
Si -2.16 -1.75 -8.44
Si -6.64 -2.83 -5.19
Si -3.18  6.23  5.52
Si  0.82 -8.46 -2.73
Si  6.25  3.52 -5.32
Si  2.15 -5.70  6.54
Si -8.43  1.92  2.27
Si -0.02  7.19  5.39
Si -5.66 -0.83  6.95
Si  7.59 -4.70 -1.30
Si  7.58 -0.53 -4.87
Si -3.83 -7.45  3.38
Si  0.99 -7.27 -5.32
Si  3.96 -8.14 -0.60
Si  4.28  0.61  7.98
Si  8.90  0.57  1.82
Si -8.04 -3.56 -2.42
Si -1.02  6.51 -6.30
Si  4.95 -5.92 -4.87
Si  0.50 -8.87  2.27
Si  8.80 -2.33  1.16
Si  5.75 -4.56  5.52
Si -8.30 -2.06  3.38
Si  3.92  6.23  5.52
Si  0.47  3.65 -8.44
Si  4.07  4.56  6.95
Si  8.79  1.84 -2.42
Si -5.19  2.69 -7.25
Si  4.75  8.05 -0.60
Si  5.87  6.29 -3.75
Si  1.26  9.18 -1.62
Si  1.31 -5.19 -7.74
Si -1.19 -6.23  6.95
Si -8.46  3.79 -1.62
Si -5.68  7.51 -0.18
Si -4.99  6.83 -4.17
Si -2.84  8.96  0.84
Si  6.97  4.29  4.72
Si -0.01  3.02  8.96
Si  1.65 -4.79  7.98
Si -7.92 -4.83  1.82
Si  8.72  3.56  0.84
Si  0.98 -3.10 -8.89
Si  3.23  5.07 -7.32
Si -2.03 -5.73 -7.32
Si  1.32 -1.03  9.41
Si -0.53  5.60 -7.74
Si  7.55 -2.83 -5.19
Si -1.38  7.96 -5.19
Si -5.80  7.32  2.27
Si  9.22  2.65 -0.60
Si -7.22  4.29  4.72
Si -2.64 -2.38  8.96
Si  6.11 -6.01  4.41
Si -9.63 -0.26 -0.11
Si -5.38 -6.51  4.72
Si  7.71 -4.50 -3.75
Si -3.87  5.07 -7.32
Si  0.30  9.27  2.97
Si  8.53  3.34  3.38
Si  1.30 -3.34  9.09
Si -6.63 -7.01 -1.62
Si -6.50 -0.33 -7.32
Si  8.74 -0.61  4.41
Si  9.23 -1.52  2.97
Si -3.49  2.30 -8.89
Si -3.17  2.06  9.09
Si  9.02 -1.48 -3.68
Si -3.04  8.74  3.38
Si -5.48  7.73 -2.73
Si  3.61  2.30 -8.89
Si -6.29 -4.28 -6.30
Si -2.18 -4.06 -8.76
Si  0.80 -0.11 -9.87
Si  3.53 -8.95 -2.42
Si  4.94 -1.75 -8.44
Si -3.57 -8.95 -2.42
Si  8.37  5.01  1.95
Si  4.26  8.96  0.84
Si  6.17 -7.73  1.16
Si -2.17 -8.23 -5.19
Si -4.95 -5.70  6.54
Si -0.18  6.01  7.98
Si  6.60 -6.92  2.97
Si  0.08  9.31 -3.68
Si  6.37 -2.70 -7.25
Si -8.05  0.62 -5.98
Si -5.42  6.01 -5.98
Si  8.38  0.84  5.52
Si  6.38 -6.88 -3.68
Si  3.93  2.06  9.09
Si  3.15 -7.65  5.84
Si  0.32  0.93 10.11
Si -7.95  3.52 -5.32
Si  3.50 -0.61 -9.55
Si -2.74 -5.28  8.29
Si  4.06  8.74  3.38
Si -3.59 -0.61 -9.55
Si  8.89  4.74 -1.75
Si  2.52  5.51  8.29
Si  4.46 -2.38  8.96
Si 10.22  0.70 -1.30
Si  1.32 -9.37 -4.17
Si -9.86  3.06  1.16
Si -2.14 -10.10 -1.30
Si -3.95 -7.65  5.84
Si -6.98 -3.21  7.03
Si  7.57 -7.01 -1.62
Si 10.20 -1.61 -1.62
Si -1.72  7.59  7.03
Si -8.42 -2.25  5.84
Si -8.44  6.09 -1.30
Si -0.81 -9.00  5.39
Si  1.78  8.92 -5.32
Si  7.21 -3.21  7.03
Si  5.07 -5.73 -7.32
Si  1.94 -9.83  3.46
Si -9.43  3.88  2.97
Si  7.70 -0.33 -7.32
Si -2.67 10.14 -1.75
Si  9.03 -5.65 -0.11
Si -7.59 -6.92  2.97
Si  8.40  3.14  5.84
Si -6.79  5.10  6.54
Si -0.96  4.79 -9.55
Si  4.35 -5.28  8.29
Si -2.02 -9.90 -3.75
Si -5.45 -4.79  7.98
Si -3.16  8.54  5.84
Si -6.47 -8.68 -0.18
Si  4.91 -4.06 -8.76
Si -3.15  4.37  9.41
Si  6.98  0.11  8.29
Si 10.35 -3.28 -0.18
Si -6.27 -8.46 -2.73
Si  2.72 10.54 -0.11
Si -6.11 -7.27 -5.32
Si  4.92 -8.23 -5.19
Si  6.07  6.51 -6.30
Si -0.73  1.47 -10.82
Si -3.46 -10.22  1.82
Si -3.02  0.39 10.52
Si -4.58  5.51  8.29
Si -5.79 -5.19 -7.74
Si  7.91 -4.28 -6.30
Si -9.85 -1.11  4.72
Si -7.21  0.11  8.29
Si -7.82 -2.70 -7.25
Si -5.83  9.18 -1.62
Si -8.09 -6.01  4.41
Si  3.64 -10.22  1.82
Si  6.96  8.46  1.16
Si  8.91 -3.60  5.39
Si 10.34  0.89 -3.75
Si -7.81 -6.88 -3.68
Si -9.64  3.92 -3.68
Si 10.23 -3.48  2.27
Si  8.54 -0.83  6.95
Si  5.91 -6.23  6.95
Si -3.19 10.41  1.95
Si  2.51  9.68  4.72
Si  3.94  8.54  5.84
Si -8.44 -4.56  5.52
Si -0.70 -11.05 -0.11
Si -6.65  1.34 -8.76
Si -8.32  6.29 -3.75
Si -5.78 -1.03  9.41
Si  5.72  7.96 -5.19
Si -0.20 10.18  4.41
Si  3.95  4.37  9.41
Si  7.41  5.10  6.54
Si  2.76 -1.98 10.60
Si -9.62 -4.43  3.46
Si -2.56  8.09 -7.25
Si -11.07  0.70 -1.30
Si -7.23  8.46  1.16
Si -2.04 -1.55 -10.89
Si  4.42 10.14 -1.75
Si -8.03 -7.73  1.16
Si -6.12 -3.10 -8.89
Si -1.71  3.41 10.60
Si -9.75  1.79  5.39
Si  3.90 10.41  1.95
Si -6.59 -8.87  2.27
Si -5.80 -3.34  9.09
Si -2.31 -4.47 10.11
Si  4.08  0.39 10.52
Si  2.31 -7.15 -8.44
Si  0.87 -6.00 -9.55
Si 10.55 -3.06 -2.73
Si  4.96 -10.10 -1.30
Si -11.10 -1.61 -1.62
Si -6.63  3.65 -8.44
Si  8.51  7.51 -0.18
Si  0.48 -11.18  1.95
Si  8.39  7.32  2.27
Si -3.35 -8.10 -7.25
Si -2.51 -8.60  7.03
Si -4.37 10.54 -0.11
Si -10.94 -3.28 -0.18
Si  1.29 -1.02 -11.31
Si  7.08  7.19  5.39
Si -1.36 10.27 -4.87
Si -1.83 -5.51 -9.87
Si -7.12  7.19  5.39
Si -9.42 -0.30  6.54
Si  3.08  6.74 -8.76
Si -1.31 -6.43  9.41
Si  3.74 -8.10 -7.25
Si -10.74 -3.06 -2.73
Si -0.03 11.37  1.82
Si  0.59  3.84 -10.89
Si -9.76  5.97  1.82
Si  6.57  5.60 -7.74
Si -10.95  0.89 -3.75
Si  7.72 -8.68 -0.18
Si  1.00 -11.45 -1.75
Si -5.16 -9.83  3.46
Si -4.34 -1.98 10.60
Si  7.54  1.34 -8.76
Si  1.29 11.49 -1.30
Si  5.38  7.59  7.03
Si 11.66 -0.26 -0.11
Si -5.32  8.92 -5.32
Si -1.82 -9.68 -6.30
Si -0.17  1.83 11.55
Si -6.30 -0.11 -9.87
Si  3.43  5.29 -9.87
Si -4.59  9.68  4.72
Si 10.18  2.56 -5.19
Si  5.08 -9.90 -3.75
Si  1.45 -5.01 10.52
Si -10.24 -3.97 -4.17
Si -4.02  6.74 -8.76
Si -5.78 -9.37 -4.17
Si -0.54  7.46  9.09
Si  4.54  8.09 -7.25
Si -3.67  5.29 -9.87
Si -0.86  7.70 -8.89
Si  3.12 -9.96  5.52
Si -11.06 -3.48  2.27
Si  7.09  3.02  8.96
Si -7.11  3.02  8.96
Si  0.88 -10.18 -5.98
Si -9.92  4.78  4.41
Si  9.00  2.69 -7.25
Si -6.80  9.27  2.97
Si 11.43  3.06  1.16
Si 10.21 -5.79  1.95
Si  7.60 -8.87  2.27
Si  7.92 -8.46 -2.73
Si  7.57  3.65 -8.44
Si  8.81 -6.51  4.72
Si  8.71  7.73 -2.73
Si -10.58 -1.88 -5.32
Si -3.37 -3.93 -10.82
Si  1.83 -7.78  8.96
Si -9.25 -5.92 -4.87
Si -0.39  5.79 10.52
Si  4.58 -8.60  7.03
Si  4.79 -4.47 10.11
Si -4.79 -7.15 -8.44
Si -3.98 -9.96  5.52
Si  3.73 -3.93 -10.82
Si  8.08 -7.27 -5.32
Si 10.71 -1.88 -5.32
Si  5.05 -1.55 -10.89
Si  6.91  6.01  7.98
Si -0.40  9.96  6.95
Si -8.12  6.51 -6.30
Si  9.21  6.83 -4.17
Si -6.78  0.93 10.11
Si  2.53  1.34 11.86
Si  8.78  6.01 -5.98
Si  9.83  6.36  3.46
Si  7.39  9.27  2.97
Si  6.28 -9.00  5.39
Si -7.01  9.31 -3.68
Si -7.63  5.60 -7.74
Si  2.95  6.32 10.11
Si  9.84  2.19  7.03
Si -10.56 -6.05 -1.75
Si 10.21  4.87 -4.87
Si  7.18  9.31 -3.68
Si  6.13  4.79 -9.55
Si 10.54  1.11 -6.30
Si  1.41 11.69 -3.75
Si -7.28  6.01  7.98
Si -12.07  2.65 -0.60
Si  5.39  3.41 10.60
Si -1.73 11.76  3.46
Si  8.07 -3.10 -8.89
Si -2.80 -3.56 11.55
Si -1.65 -8.50 -8.89
Si -9.44  8.05 -0.60
Si 11.44 -1.11  4.72
Si 10.72 -6.05 -1.75
Si -2.17  2.42 -12.01
Si 11.04 -3.97 -4.17
Si  5.27 -5.51 -9.87
Si -9.87  7.24 -2.42
Si -8.29 -6.23  6.95
Si -10.75  1.11 -6.30
Si -12.06 -1.52  2.97
Si -2.20  0.12 -12.33
Si -11.11  2.56 -5.19
Si  8.36  9.18 -1.62
Si -12.39  0.57  1.82
Si -3.17  4.38 -11.31
Si  2.32 -11.32 -4.87
Si -0.10 -4.06 11.86
Si  0.96  1.07 -12.46
Si  8.40 -5.19 -7.74
Si  2.62  8.41  8.96
Si  7.42  0.93 10.11
Si  0.00 -1.16 12.53
Si  2.29 -2.97 -12.01
Si -4.14  6.32 10.11
Si  6.36  1.47 -10.82
Si  7.90 -0.11 -9.87
Si -9.26 -1.75 -8.44
Si -11.08 -5.79  1.95
Si  8.42 -1.03  9.41
Si  9.24 -5.70  6.54
Si -1.33 -8.73  9.09
Si  0.83 -12.63  0.84
Si -2.16 -12.40 -1.62
Si  5.28 -9.68 -6.30
Si  2.94 10.50  6.54
Si  3.48 -11.41  4.41
