500
set: 1201.00  0.00  0.00
Si  0.42 -1.03  0.67
Si -1.17  0.95  0.54
Si  0.16 -1.20 -1.79
Si  1.44  1.60  0.67
Si  1.29  1.15 -1.97
Si -2.41 -1.09  0.53
Si -1.33  1.42 -2.12
Si  2.94 -1.12  0.61
Si -2.47 -0.91 -1.94
Si -0.69 -3.30  0.69
Si -0.98  1.14  3.12
Si  0.40 -1.20  3.29
Si  2.84 -1.38 -1.81
Si  0.10  3.65  0.59
Si  1.77  1.29  3.07
Si -2.21 -1.10  3.07
Si -1.20 -3.42 -1.77
Si -0.13  3.64 -1.78
Si -2.52  3.26  0.56
Si  3.92  1.29  0.62
Si  1.96 -3.72  0.56
Si  1.46 -3.52 -1.94
Si -4.11  1.29  0.62
Si  0.14 -1.18 -4.27
Si  3.25 -0.83  3.17
Si  0.03  3.36  3.16
Si  2.35  3.56 -1.77
Si -4.01  1.07 -2.16
Si  4.02  1.07 -2.16
Si  2.86  3.68  0.69
Si -1.24  1.16 -4.44
Si -0.97 -3.43  3.20
Si -3.44 -3.33  0.59
Si -3.54  1.39  3.00
Si  1.51  1.31 -4.50
Si  1.84 -3.34  3.12
Si -3.02  3.46 -1.94
Si -2.47 -1.08 -4.50
Si -5.09 -1.12  0.61
Si -3.67 -3.33 -1.78
Si  2.99 -0.81 -4.39
Si  2.58  3.55  3.20
Si -2.64  3.64  3.12
Si -0.23  3.38 -4.40
Si  4.49  1.39  3.00
Si -5.19 -1.38 -1.81
Si -1.23 -3.42 -4.36
Si  4.58 -3.33  0.59
Si -1.07  1.41  5.44
Si  0.37 -5.69  0.62
Si  5.62 -1.09  0.53
Si  4.36 -3.33 -1.78
Si  1.58 -3.32 -4.45
Si -4.78 -0.83  3.17
Si -2.10 -5.37  0.67
Si  1.55  1.14  5.59
Si  0.42 -1.21  5.78
Si -3.52 -3.61  3.16
Si  5.56 -0.91 -1.94
Si  1.14  5.89  0.53
Si -1.54  5.85  0.61
Si  2.32  3.56 -4.36
Si -3.80  1.41 -4.57
Si -1.64  5.60 -1.81
Si -2.21 -0.92  5.63
Si  0.47 -5.90 -2.16
Si -5.17  3.68  0.69
Si  4.23  1.41 -4.57
Si  5.00  3.46 -1.94
Si  0.94 -5.58  3.00
Si  5.51  3.26  0.56
Si -2.90  3.65 -4.45
Si  1.08  6.07 -1.94
Si -2.26 -5.83 -1.97
Si  4.51 -3.61  3.16
Si -3.75  1.06  5.41
Si  5.82 -1.10  3.07
Si  3.10 -1.39  5.75
Si -1.77 -5.68  3.07
Si  3.15 -5.56 -2.12
Si -5.04 -0.81 -4.39
Si  1.33  5.88  3.07
Si -0.94 -3.43  5.79
Si -6.58  1.60  0.67
Si  0.14  3.63  5.78
Si -3.78 -3.60 -4.40
Si  1.72 -3.53  5.63
Si  3.31 -6.03  0.54
Si -5.68  3.56 -1.77
Si  6.86  0.95  0.54
Si  0.16 -1.02 -6.89
Si  4.28  1.06  5.41
Si -1.23  6.15  3.17
Si -6.26  1.29  3.07
Si  3.71  5.78 -1.79
Si  4.25 -3.60 -4.40
Si -6.74  1.15 -1.97
Si -6.07 -3.72  0.56
Si -2.76  3.45  5.63
Si  6.70  1.42 -2.12
Si  3.97  5.95  0.67
Si  1.18  1.62 -6.89
Si  5.39  3.64  3.12
Si  5.55 -1.08 -4.50
Si -4.06  5.95  0.67
Si -1.43  0.97 -7.03
Si  0.68 -5.57 -4.57
Si -5.45  3.55  3.20
Si  2.61  3.54  5.79
Si -4.32  5.78 -1.79
Si  3.50 -5.83  3.12
Si  1.07  5.89 -4.50
Si -3.41 -3.35  5.78
Si -2.04 -5.67 -4.50
Si  2.68 -1.11 -6.95
Si -2.67 -1.07 -7.03
Si -4.72 -6.03  0.54
Si -0.95 -3.29 -6.87
Si -6.19 -3.34  3.12
Si -4.88 -5.56 -2.12
Si -4.93 -1.39  5.75
Si -6.57 -3.52 -1.94
Si  5.13  3.65 -4.45
Si -7.61 -1.03  0.67
Si -1.50  6.17 -4.39
Si  3.95  5.78  3.29
Si  7.05  1.14  3.12
Si -4.08  5.78  3.29
Si  6.83 -3.42 -1.77
Si -0.16  3.66 -6.97
Si  3.66  1.30 -6.94
Si  3.24 -5.82 -4.44
Si -4.53 -5.83  3.12
Si -5.71  3.56 -4.36
Si -6.52  1.31 -4.50
Si  5.93 -5.37  0.67
Si  0.73 -5.92  5.41
Si  7.34 -3.30  0.69
Si  3.69  5.80 -4.27
Si  1.70 -3.70 -7.00
Si  4.62 -3.35  5.78
Si -1.38  5.58  5.75
Si -0.61 -8.10  0.61
Si  5.82 -0.92  5.63
Si -7.87 -1.20 -1.79
Si  6.79  1.16 -4.44
Si -0.91  0.94  8.11
Si -2.78  3.27 -7.00
Si  2.60  3.69 -6.87
Si  2.38  7.93  0.54
Si -0.56  8.26  0.62
Si -4.37  1.30 -6.94
Si -2.00 -5.84  5.59
Si  0.68 -1.05  8.24
Si  2.07 -8.06  0.53
Si -0.46  8.05 -2.16
Si  2.01 -7.88 -1.94
Si  1.34  6.06  5.63
Si -7.63 -1.20  3.29
Si -4.34  5.80 -4.27
Si -0.30 -7.80  3.17
Si  5.77 -5.83 -1.97
Si  5.27  3.45  5.63
Si -2.15 -1.10  8.10
Si  8.19 -1.20 -1.79
Si  7.06 -3.43  3.20
Si  3.41 -5.57  5.44
Si -6.45 -3.32 -4.45
Si  8.45 -1.03  0.67
Si  1.71  1.59  8.24
Si -3.71 -3.32 -6.97
Si -0.70 -8.36 -1.81
Si -3.13 -8.01  0.67
Si -6.48  1.14  5.59
Si  6.39  5.60 -1.81
Si -5.42  3.54  5.79
Si -7.93  3.65  0.59
Si -4.79 -5.82 -4.44
Si  6.49  5.85  0.61
Si  6.80 -3.42 -4.36
Si -5.35 -1.11 -6.95
Si  4.32 -3.32 -6.97
Si  3.20 -1.14  8.18
Si  7.90  3.64 -1.78
Si  0.01  8.37  3.00
Si  5.36 -1.07 -7.03
Si -0.43 -3.31  8.26
Si  8.13  3.65  0.59
Si  2.27 -8.07  3.07
Si  0.36  3.63  8.16
Si  2.21  8.40 -2.12
Si  6.96  1.41  5.44
Si -3.19  8.13 -1.97
Si -0.56 -7.79 -4.39
Si  0.11 -5.68 -6.94
Si  6.26 -5.68  3.07
Si -3.39 -8.17 -1.79
Si -2.26  3.25  8.13
Si -2.37 -5.36 -6.89
Si -7.89 -1.18 -4.27
Si -4.62 -5.57  5.44
Si  2.57  8.12  3.12
Si  3.97  5.77  5.78
Si -6.89  5.89  0.53
Si -8.15  3.64 -1.78
Si -4.06  5.77  5.78
Si  8.43 -1.20  3.29
Si -3.04  8.58  0.67
Si -3.85  1.27  8.19
Si -6.31 -3.53  5.63
Si  2.22 -3.73  8.13
Si  0.88  5.91 -7.03
Si -2.71  8.27  3.07
Si -8.00  3.36  3.16
Si -9.20  0.95  0.54
Si -1.80  5.87 -6.95
Si  4.18  1.27  8.19
Si  8.06  3.36  3.16
Si  8.17 -1.18 -4.27
Si  5.25  3.27 -7.00
Si -8.72 -3.30  0.69
Si -3.15 -8.17  3.29
Si -3.18 -3.34  8.16
Si  5.99 -5.67 -4.50
Si  4.90 -8.01  0.67
Si -6.70  5.88  3.07
Si -0.10 -1.18 -9.35
Si -6.95  6.07 -1.94
Si  2.01 -8.06 -4.50
Si -7.09 -5.58  3.00
Si -5.43  3.69 -6.87
Si  2.31  8.13 -4.44
Si -0.25  8.38 -4.57
Si  3.12  3.66  8.26
Si -7.66 -5.69  0.62
Si -4.83 -1.14  8.18
Si  4.64 -8.17 -1.79
Si  7.80  3.38 -4.40
Si  9.32  1.15 -1.97
Si -9.01  1.14  3.12
Si -7.61 -1.21  5.78
Si  9.47  1.60  0.67
Si  4.84  8.13 -1.97
Si  1.03  1.17 -9.54
Si  6.60  0.97 -7.03
Si -0.20  8.04  5.41
Si  6.80  6.15  3.17
Si -9.36  1.42 -2.12
Si  3.05 -6.01 -7.03
Si -5.65  7.93  0.54
Si  7.09 -3.43  5.79
Si -3.41 -8.16 -4.27
Si  2.58 -1.37 -9.38
Si -7.56 -5.90 -2.16
Si  3.71  5.96 -6.89
Si -6.85  1.62 -6.89
Si -2.97  8.29 -4.50
Si -1.60  1.43 -9.69
Si -2.73 -0.89 -9.50
Si  4.99  8.58  0.67
Si -8.26  3.38 -4.40
Si  2.27 -7.90  5.63
Si -9.23 -3.42 -1.77
Si  6.53  6.17 -4.39
Si  0.63 -5.71  8.19
Si -1.84 -5.39  8.24
Si -5.96 -8.06  0.53
Si -0.39  3.66 -9.35
Si -1.46 -3.40 -9.34
Si  4.85 -3.34  8.16
Si  5.88 -1.10  8.10
Si  4.88 -8.17  3.29
Si -4.33  5.96 -6.89
Si  6.03 -5.84  5.59
Si  1.40  5.88  8.10
Si -6.02 -7.88 -1.94
Si -1.28  5.84  8.18
Si -6.33 -3.70 -7.00
Si -9.00 -3.43  3.20
Si -6.96  5.89 -4.50
Si -0.44 -8.37  5.75
Si  8.40 -5.69  0.62
Si  1.20 -3.50 -9.50
Si  2.09  3.57 -9.34
Si -5.46  8.12  3.12
Si -4.91  3.66  8.26
Si -2.93  8.12  5.59
Si -7.35 -5.57 -4.57
Si  2.48  8.38  5.44
Si  9.49 -3.52 -1.94
Si  4.62 -8.16 -4.27
Si  5.32  8.27  3.07
Si  1.02 10.24  0.56
Si  8.45 -1.21  5.78
Si -9.27  1.16 -4.44
Si  9.80  1.29  3.07
Si  1.04 -10.31  0.59
Si -5.76 -8.07  3.07
Si  7.08 -3.29 -6.87
Si  5.66 -5.36 -6.89
Si  6.65  5.58  5.75
Si -5.82  8.40 -2.12
Si -7.89  3.63  5.78
Si  3.76  1.09 -9.72
Si  5.77  3.25  8.13
Si  0.81 -10.31 -1.78
Si -3.13 -8.19  5.78
Si -4.98 -6.01 -7.03
Si -6.32  1.59  8.24
Si -10.44 -1.09  0.53
Si -7.87 -1.02 -6.89
Si  8.50 -5.90 -2.16
Si  0.52 10.44 -1.94
Si  9.54  1.31 -4.50
Si -6.69  6.06  5.63
Si -3.29  3.47 -9.50
Si  8.17  3.63  5.78
Si -5.81 -3.73  8.13
Si -3.94 -3.32 -9.35
Si  9.99 -3.72  0.56
Si -4.27  1.09 -9.72
Si  5.06  8.29 -4.50
Si -9.10  1.41  5.44
Si -0.87 -8.09 -6.95
Si -10.50 -0.91 -1.94
Si  3.57 -6.04  8.11
Si  4.09 -3.32 -9.35
Si -10.24 -1.10  3.07
Si  8.19 -1.02 -6.89
Si -0.72  1.13 10.69
Si -9.26 -3.42 -4.36
Si -1.62 10.65  0.69
Si  2.12  7.94 -7.03
Si -1.59 -10.69  0.56
Si  7.12  0.94  8.11
Si -0.82  8.28 -6.94
Si -7.30 -5.92  5.41
Si  1.81 -8.05 -7.03
Si -3.80  5.93  8.24
Si -1.95 -1.11 10.64
Si -2.09 -10.49 -1.94
Si  9.87 -3.34  3.12
Si -5.72  8.13 -4.44
Si -2.13 10.54 -1.77
Si  2.04  1.28 10.63
Si -1.71 -10.31  3.12
Si  9.17  5.89  0.53
Si  5.30 -0.89 -9.50
Si -5.45 -1.37 -9.38
Si  0.66 -1.21 10.86
Si  3.79 -10.28  0.69
Si  8.97 -5.58  3.00
Si  4.23  5.93  8.24
Si  7.42 -8.10  0.61
Si -6.02 -8.06 -4.50
Si  6.22  5.87 -6.95
Si 10.97 -1.12  0.61
Si  3.29 -10.40 -1.77
Si -4.46 -6.04  8.11
Si -10.55  3.26  0.56
Si -3.39 -8.00 -6.89
Si -7.35 -1.05  8.24
Si -1.90  5.61 -9.38
Si  0.96 -10.59  3.16
Si  9.61 -3.32 -4.45
Si  5.10  8.12  5.59
Si  0.91 10.62  3.12
Si 10.87 -1.38 -1.81
Si  9.11  6.07 -1.94
Si 10.38  3.56 -1.77
Si  7.87  3.66 -6.97
Si -4.24 -10.28  0.69
Si -3.28  1.38 10.56
Si  9.58  1.14  5.59
Si  7.47  8.26  0.62
Si  4.90 -8.19  5.78
Si -1.90 10.52  3.20
Si  4.74  3.47 -9.50
Si -8.96 -3.43  5.79
Si -9.57  5.85  0.61
Si  0.29  3.35 10.73
Si  3.65 10.62  0.59
Si  7.57  8.05 -2.16
Si  7.32 -8.36 -1.81
Si -5.76 -7.90  5.63
Si  3.42 10.62 -1.78
Si  8.71 -5.57 -4.57
Si  0.81  6.08 -9.50
Si -9.67  5.60 -1.81
Si -0.71 -3.44 10.77
Si  3.51 -0.84 10.74
Si -8.19  3.66 -6.97
Si  0.21 -5.89 -9.72
Si  3.58 10.34  3.16
Si -1.97 -10.30 -4.45
Si  2.10 -3.35 10.69
Si  7.73 -7.80  3.17
Si -5.55  8.38  5.44
Si  3.51 -10.41  3.20
Si -2.52 -5.81 -9.54
Si  9.37  5.88  3.07
Si -10.50 -1.08 -4.50
Si  0.70 -10.58 -4.40
Si -10.13 -5.37  0.67
Si -3.30  8.60 -6.89
Si -4.38 10.62  0.59
Si 10.89  3.68  0.69
Si -0.35 -8.12  8.18
Si  3.45  5.79 -9.35
Si  2.89 -5.54 -9.69
Si  4.64 -8.00 -6.89
Si -2.38  3.62 10.69
Si  0.64 10.63 -4.45
Si -4.75 -10.40 -1.77
Si -9.26  6.15  3.17
Si -2.17 10.54 -4.36
Si  9.21  1.62 -6.89
Si  6.19 -5.39  8.24
Si -0.30  8.25  8.19
Si -5.94  3.57 -9.34
Si  2.64  7.92  8.11
Si 10.61  3.55  3.20
Si -7.15  5.91 -7.03
Si  7.47 -7.79 -4.39
Si  4.75  1.38 10.56
Si  2.33 -8.08  8.10
Si -4.52 -0.84 10.74
Si  2.84  3.53 10.77
Si -4.45 10.34  3.16
Si -10.67  3.64  3.12
Si  7.60 -3.31  8.26
Si -4.61 10.62 -1.78
Si  6.43  1.43 -9.69
Si -10.24 -0.92  5.63
Si  3.31 10.35 -4.40
Si  3.25 -10.39 -4.36
Si  9.10  5.89 -4.50
Si -9.80 -5.68  3.07
Si -11.05  3.46 -1.94
Si 11.28 -0.83  3.17
Si -7.67  3.63  8.16
Si -8.98 -3.29 -6.87
Si 10.35  3.56 -4.36
Si -3.26 -3.63 10.73
Si -4.52 -10.41  3.20
Si  9.75 -3.53  5.63
Si -9.46  0.97 -7.03
Si -8.33 -7.80  3.17
Si -2.87 -8.02  8.24
Si -8.64 -8.10  0.61
Si  0.78 10.42  5.63
Si  8.76 -5.92  5.41
Si  1.07 -10.32  5.78
Si 11.02 -0.81 -4.39
Si -7.00  1.17 -9.54
Si -0.12 -1.17 -11.84
Si -8.49  8.05 -2.16
Si  6.57 -3.40 -9.34
Si -4.58  5.79 -9.35
Si -8.59  8.26  0.62
Si -11.47 -3.33  0.59
Si -7.92 -5.68 -6.94
Si -8.02  8.37  3.00
Si -10.29 -5.83 -1.97
Si  8.04  8.37  3.00
Si  4.73  8.60 -6.89
Si -6.63  5.88  8.10
Si  1.21 -5.60 10.56
Si -11.57  1.39  3.00
Si  8.71 -1.05  8.24
Si 11.95  1.29  0.62
Si -1.83 -10.51  5.63
Si -8.94  0.94  8.11
Si  6.75  5.84  8.18
Si  8.14 -5.68 -6.94
Si -5.91  7.94 -7.03
Si -1.87 10.52  5.79
Si -1.50  1.17 -12.01
Si -1.51 -5.70 10.63
Si -9.53  6.17 -4.39
Si  1.25  1.32 -12.06
Si -4.71 10.35 -4.40
Si  5.90 10.54 -1.77
Si -2.78  8.57  8.24
Si  5.94 -10.49 -1.94
Si -6.83 -3.50 -9.50
Si -12.14  1.29  0.62
Si -8.73 -8.36 -1.81
Si -4.78 -10.39 -4.36
Si  1.60  5.87 10.64
Si  8.39  3.63  8.16
Si -5.99  1.28 10.63
Si -8.46 -3.31  8.26
Si -12.04  1.07 -2.16
Si 12.05  1.07 -2.16
Si  4.77 -3.63 10.73
Si  2.73 -0.80 -11.96
Si -5.14 -5.54 -9.69
Si -11.70 -3.33 -1.78
Si  6.08 -1.11 10.64
