500
set: 407.00  0.00  0.00
Si  0.05  0.08  0.05
Si  0.02 -2.04  0.73
Si  0.03 -0.09 -2.23
Si -1.82  1.18  0.72
Si  1.87  1.10  0.87
Si -1.90 -1.05 -2.85
Si  1.80 -3.12 -0.17
Si -1.82 -3.12  0.03
Si -1.80  0.97  2.98
Si -3.64  0.05  0.06
Si  0.09  1.96 -3.09
Si  0.09 -2.28  2.91
Si  3.72  0.05  0.06
Si  1.88 -1.15 -3.02
Si  1.86  3.25  0.03
Si -1.88  3.25 -0.17
Si  1.78  1.07  3.16
Si -1.78 -1.22  3.59
Si  3.61  0.02 -2.20
Si  1.76  3.17 -2.19
Si -1.78  3.02 -2.41
Si  3.63 -2.11  0.70
Si -0.05  4.25  0.70
Si -1.91 -3.20 -2.19
Si  1.76 -1.08  3.81
Si -3.74  0.02 -2.20
Si -3.72 -2.11  0.70
Si -0.06  2.15  3.80
Si  1.89 -3.35 -2.41
Si  3.57  2.10 -3.01
Si  3.57 -2.15  3.00
Si -0.11  4.22  3.00
Si -0.11 -4.27 -3.01
Si -3.79  2.10 -3.01
Si -3.79 -2.15  3.00
Si -1.81 -1.02 -5.13
Si  1.85 -5.19  0.72
Si -3.65  2.03  3.78
Si -1.81 -5.26  0.87
Si -5.49  1.10  0.87
Si  3.71  2.03  3.78
Si  1.85 -0.94 -5.29
Si  5.53  1.18  0.72
Si -3.66  4.33  0.73
Si  0.01  2.21 -5.28
Si  3.69  4.33  0.73
Si  0.03 -4.34  3.78
Si -3.58  4.09  2.91
Si -1.88 -1.00  5.84
Si  5.45 -1.05 -2.85
Si  3.77  4.09  2.91
Si  1.78  5.31 -2.85
Si  0.04 -2.07 -5.94
Si -1.80  5.22 -3.02
Si  0.04 -6.31  0.06
Si -1.82  1.12 -5.98
Si  5.53 -3.12  0.03
Si -5.47 -1.15 -3.02
Si  5.48  3.25 -0.17
Si -5.55 -3.12 -0.17
Si  5.56  0.97  2.98
Si -5.50  3.25  0.03
Si  1.86 -1.00  6.03
Si  0.04  6.42  0.06
Si  1.88 -5.39  2.98
Si  0.04  2.18  6.07
Si -1.90 -5.30  3.16
Si -3.58 -4.40 -3.09
Si -5.58  1.07  3.16
Si  1.80  1.12 -6.17
Si  1.89  5.14  3.59
Si  3.77 -4.40 -3.09
Si  5.44 -3.20 -2.19
Si -0.05  0.01  6.71
Si -0.06 -6.34 -2.20
Si  3.61 -4.22  3.80
Si  5.57 -1.22  3.59
Si -0.06  6.39 -2.20
Si  3.63  2.13 -5.30
Si  5.57  3.02 -2.41
Si -0.05 -4.24 -5.30
Si -5.59  3.17 -2.19
Si -1.91  5.29  3.81
Si -3.74 -4.22  3.80
Si -3.72  2.13 -5.30
Si -5.46 -3.35 -2.41
Si -5.59 -1.08  3.81
Si -3.62 -6.29  0.05
Si -3.62 -2.04 -5.96
Si -7.30  0.08  0.05
Si  3.73 -6.29  0.05
Si  3.73 -2.04 -5.96
Si  0.05 -4.17  6.05
Si  0.05  4.32 -5.96
Si -3.62  2.20  6.05
Si -3.62  6.45  0.05
Si  7.41  0.08  0.05
Si  3.73  2.20  6.05
Si  3.73  6.45  0.05
Si -3.65  6.28 -2.23
Si -5.50 -5.19  0.72
Si -1.82 -3.07  6.72
Si  3.71  6.28 -2.23
Si  5.54 -1.02 -5.13
Si  1.87  5.35 -5.13
Si -7.34 -2.04  0.73
Si -3.66 -4.16 -5.28
Si -7.32 -0.09 -2.23
Si -3.66  0.09  6.73
Si  3.69 -4.16 -5.28
Si  3.69  0.09  6.73
Si  7.37 -2.04  0.73
Si -5.50 -0.94 -5.29
Si  5.54 -5.26  0.87
Si  7.38 -0.09 -2.23
Si  1.85  3.30  6.72
Si -1.81  7.47  0.87
Si -3.65 -6.46 -2.23
Si  3.71 -6.46 -2.23
Si  1.87 -3.14  6.88
Si -1.82  5.42 -5.29
Si  1.85  7.55  0.72
Si -1.81  3.23  6.88
Si  5.48 -1.00  5.84
Si -7.26  1.96 -3.09
Si  1.80  5.37  5.84
Si  1.88  7.34  2.98
Si  1.78 -7.42 -2.85
Si -7.26 -2.28  2.91
Si  1.86 -5.24 -5.98
Si -3.64  4.30 -5.94
Si  5.56  5.22 -3.02
Si -5.58  5.31 -2.85
Si -5.50 -1.00  6.03
Si  3.72  4.30 -5.94
Si -3.64 -4.19  6.07
Si  5.53  1.12 -5.98
Si  5.46 -5.30  3.16
Si -5.47 -5.39  2.98
Si  3.72 -4.19  6.07
Si -1.82  5.37  6.03
Si  7.45  1.96 -3.09
Si -1.90  7.44  3.16
Si -1.80 -7.52 -3.02
Si -1.88 -5.24 -6.17
Si  7.45 -2.28  2.91
Si -5.46  5.14  3.59
Si -5.55  1.12 -6.17
Si -0.06 -2.10 -8.20
Si -1.91  1.04 -8.20
Si  7.31  4.25  0.70
Si  5.44  5.29  3.81
Si  7.29  2.15  3.80
Si -0.05 -8.48  0.70
Si -7.40  4.25  0.70
Si -1.91 -7.45  3.81
Si -7.42  2.15  3.80
Si  1.89 -7.59  3.59
Si  1.89  0.90 -8.41
Si  7.24  4.22  3.00
Si  7.24 -4.27 -3.01
Si -0.11  8.46 -3.01
Si -0.11 -0.03  9.00
Si -0.11 -0.03 -9.01
Si -0.11 -8.52  3.00
Si -7.46  4.22  3.00
Si -7.46 -4.27 -3.01
Si  1.87 -7.39 -5.13
Si -3.66 -8.40  0.73
Si -1.82 -7.31 -5.29
Si  0.02 -6.28  6.73
Si  3.69 -8.40  0.73
Si  0.03  8.40  3.78
Si  0.03  4.15 -8.23
Si -5.49  5.35 -5.13
Si  5.53 -3.07  6.72
Si -3.65 -2.21 -8.23
Si -9.18  1.18  0.72
Si -5.50  3.30  6.72
Si  3.71 -2.21 -8.23
Si -7.34  2.21 -5.28
Si -7.32 -4.34  3.78
Si  0.01  6.45  6.73
Si  9.22  1.10  0.87
Si  7.37  2.21 -5.28
Si -5.49 -3.14  6.88
Si  5.54  7.47  0.87
Si  7.38 -4.34  3.78
Si -5.50  7.55  0.72
Si  5.53  5.42 -5.29
Si  5.54  3.23  6.88
Si  1.80 -7.37  5.84
Si  1.78 -3.18 -8.85
Si -3.58  8.33 -3.09
Si -1.90  3.19 -8.85
Si -3.58 -0.16  8.92
Si -5.47  7.34  2.98
Si -7.31 -2.07 -5.94
Si  3.77  8.33 -3.09
Si -7.31 -6.31  0.06
Si -5.50 -5.24 -5.98
Si  1.86 -9.49  0.03
Si -9.15  0.97  2.98
Si  9.15 -3.12 -0.17
Si -1.88 -9.49 -0.17
Si -5.55  5.37  5.84
Si  3.77 -0.16  8.92
Si  1.88  3.10  8.98
Si -9.17 -3.12  0.03
Si -1.82 -7.36  6.03
Si  7.39 -2.07 -5.94
Si -5.57 -7.42 -2.85
Si  9.13  1.07  3.16
Si  7.39 -6.31  0.06
Si  1.88  3.10 -9.03
Si -1.80 -3.27  8.98
Si -7.31  6.42  0.06
Si -9.25 -1.05 -2.85
Si  5.45  7.44  3.16
Si -7.31  2.18  6.07
Si  1.85  7.49 -5.98
Si  9.21  3.25  0.03
Si -1.80 -3.27 -9.03
Si -3.58 -0.16 -9.09
Si  5.48 -5.24 -6.17
Si  1.80  9.61 -0.17
Si  9.23 -1.15 -3.02
Si -9.23  3.25 -0.17
Si -1.82  9.62  0.03
Si  5.53  5.37  6.03
Si  7.39  6.42  0.06
Si -3.58 -8.65  2.91
Si  7.39  2.18  6.07
Si  1.89  0.90  9.60
Si  5.56 -7.52 -3.02
Si  3.77 -0.16 -9.09
Si  1.78 -3.18  9.16
Si  3.77 -8.65  2.91
Si  1.89  9.39 -2.41
Si -1.90  3.19  9.16
Si -1.88  7.49 -6.17
Si -9.13 -1.22  3.59
Si  5.44  1.04 -8.20
Si  9.12  3.17 -2.19
Si  7.29 -6.34 -2.20
Si  7.31  0.01  6.71
Si -9.13  3.02 -2.41
Si  3.63 -6.36  6.71
Si  3.61  4.27 -8.20
Si  1.77 -5.32 -8.20
Si  3.63  6.38  6.71
Si  9.12 -1.08  3.81
Si  7.29  6.39 -2.20
Si -3.72 -6.36  6.71
Si -1.91  9.54 -2.19
Si  7.31 -4.24 -5.30
Si  1.77 -9.57 -2.19
Si -3.72  6.38  6.71
Si -3.74  4.27 -8.20
Si  5.44 -7.45  3.81
Si -7.40  0.01  6.71
Si  3.61  8.51  3.80
Si -7.41 -6.34 -2.20
Si -0.05  8.50 -5.30
Si -5.46 -7.59  3.59
Si -0.06 -2.10  9.81
Si -7.42  6.39 -2.20
Si -7.40 -4.24 -5.30
Si -9.26 -3.20 -2.19
Si -3.74  8.51  3.80
Si -1.91  1.04  9.81
Si -5.46  0.90 -8.41
Si  9.25 -3.35 -2.41
Si -1.78 -9.71 -2.41
Si -1.78 -5.47 -8.41
Si  0.05 -8.41 -5.96
Si -7.30 -4.17  6.05
Si -7.30  4.32 -5.96
Si  7.41 -4.17  6.05
Si  7.41  4.32 -5.96
Si  0.05  8.57  6.05
Si -5.49 -7.39 -5.13
Si -9.16 -1.02 -5.13
Si  5.53 -7.31 -5.29
Si  9.21 -5.19  0.72
Si -9.16 -5.26  0.87
Si  0.03  4.15  9.78
Si  9.21 -0.94 -5.29
Si -3.65 -2.21  9.78
Si  3.71 -2.21  9.78
Si -3.66  8.57 -5.28
Si  0.01 10.70  0.73
Si  3.69  8.57 -5.28
Si  0.09 10.45  2.91
Si  0.09  6.21  8.92
Si  5.45  3.19 -8.85
Si -5.55 -7.37  5.84
Si -5.57 -3.18 -8.85
Si -3.64 -8.44 -5.94
Si  9.13  5.31 -2.85
Si  5.48 -9.49 -0.17
Si -9.15  5.22 -3.02
Si -5.50 -9.49  0.03
Si -9.23 -1.00  5.84
Si -5.47  3.10  8.98
Si  3.72 -8.44 -5.94
Si -10.99  0.05  0.06
Si -5.47  3.10 -9.03
Si -9.17  1.12 -5.98
Si  5.53 -7.36  6.03
Si  0.09  6.21 -9.09
Si -5.50  7.49 -5.98
Si  0.09 -6.53  8.92
Si  9.21 -1.00  6.03
Si  5.56 -3.27  8.98
Si 11.07  0.05  0.06
Si -5.46  0.90  9.60
Si -3.64  8.54  6.07
Si  5.56 -3.27 -9.03
Si  5.53  9.62  0.03
Si  9.15  1.12 -6.17
Si  9.23 -5.39  2.98
Si -5.55  9.61 -0.17
Si  3.71  8.54  6.07
Si -9.25 -5.30  3.16
Si -5.46  9.39 -2.41
Si  5.45  3.19  9.16
Si  5.48  7.49 -6.17
Si  7.29 -2.10 -8.20
Si  9.25  5.14  3.59
Si -5.58 -3.18  9.16
Si 10.97  0.02 -2.20
Si -1.78 -5.47  9.60
Si  1.76  7.41 -8.20
Si  0.10 -6.53 -9.09
Si  5.44  9.54 -2.19
Si 10.98 -2.11  0.70
Si  0.10 -10.77 -3.09
Si  7.31 -8.48  0.70
Si  3.63 10.62  0.70
Si -0.06 -10.59  3.80
Si -7.41 -2.10 -8.20
Si -1.78  7.27 -8.41
Si -5.59 -5.32 -8.20
Si  5.44  1.04  9.81
Si -7.40 -8.48  0.70
Si -3.72 10.62  0.70
Si  3.61  4.27  9.81
Si -5.59 -9.57 -2.19
Si -11.07 -2.11  0.70
Si  1.76 -5.32  9.81
Si -0.05  0.01 -11.30
Si -11.09  0.02 -2.20
Si -9.26  5.29  3.81
Si -3.74  4.27  9.81
Si  5.57 -9.71 -2.41
Si  5.57 -5.47 -8.41
Si 10.92  2.10 -3.01
Si 10.92 -2.15  3.00
Si  7.24  8.46 -3.01
Si  7.24 -0.03  9.00
Si  7.24 -0.03 -9.01
Si  3.56 10.59  3.00
Si  3.56  6.34  9.00
Si  7.24 -8.52  3.00
Si  3.57  6.34 -9.01
Si  3.57 -6.39  9.00
Si  3.57 -6.39 -9.01
Si  3.57 -10.64 -3.01
Si -3.79 10.59  3.00
Si -3.79  6.34  9.00
Si -3.79  6.34 -9.01
Si -3.79 -6.39  9.00
Si -7.46  8.46 -3.01
Si -3.79 -6.39 -9.01
Si -3.79 -10.64 -3.01
Si -7.46 -0.03  9.00
Si -7.46 -0.03 -9.01
Si -7.46 -8.52  3.00
Si  1.87 -3.14 -11.13
Si -1.82 -11.56  0.72
Si -11.14  2.10 -3.01
Si  1.85 -9.43  6.72
Si -1.81  3.23 -11.13
Si -11.14 -2.15  3.00
Si -7.32  8.40  3.78
Si -7.34 -6.28  6.73
Si -7.32  4.15 -8.23
Si  0.02 -10.53 -5.28
Si -9.18 -3.07  6.72
Si  7.37 -6.28  6.73
Si  7.38  8.40  3.78
Si -11.00  2.03  3.78
Si  7.38  4.15 -8.23
Si  1.87 -11.63  0.87
Si  9.22  5.35 -5.13
Si -1.82 -3.07 -11.29
Si -9.16  7.47  0.87
Si -11.01  4.33  0.73
Si -3.66  0.09 -11.28
Si 11.06  2.03  3.78
Si -7.34  6.45  6.73
Si  9.21  3.30  6.72
Si  3.69  0.09 -11.28
Si -1.81 -9.51  6.88
Si  7.37  6.45  6.73
Si 11.04  4.33  0.73
Si  0.03 -8.58 -8.23
Si -9.18  5.42 -5.29
Si -9.16  3.23  6.88
Si  1.85  3.30 -11.29
Si -1.82  9.67  6.72
Si -3.65 -10.70  3.78
Si  9.22 -3.14  6.88
Si  9.21  7.55  0.72
Si  3.71 -10.70  3.78
Si  1.86  9.59  6.88
Si  1.80  1.12 11.84
Si -10.94  4.09  2.91
Si  9.13 -7.42 -2.85
Si  9.15  5.37  5.84
Si  1.88 11.59 -3.02
Si  0.04  2.18 -11.94
Si  1.86 -1.00 -11.98
Si  9.23  7.34  2.98
Si  9.21 -5.24 -5.98
Si -1.78  7.27  9.60
Si -1.90 11.68 -2.85
Si  0.04 -10.56  6.07
Si -10.94 -4.40 -3.09
Si -1.78 11.51  3.59
Si 11.12  4.09  2.91
Si  0.04 10.67 -5.94
Si  1.78 -11.67  3.16
Si -9.15 -7.52 -3.02
Si -9.17  5.37  6.03
Si -1.82  1.13 12.03
Si  0.04 -2.07 12.07
Si -1.80 -11.76  2.98
Si -9.23 -5.24 -6.17
Si -9.25  7.44  3.16
Si  3.62 -8.47 -8.20
Si 10.97 -4.22  3.80
Si 11.12 -4.40 -3.09
Si -1.88 -1.00 -12.17
Si -3.74 -8.47 -8.20
Si  5.57 -5.47  9.60
Si 10.98  2.13 -5.30
Si -5.59  7.41 -8.20
Si  1.76 11.66  3.81
Si  7.31  8.50 -5.30
Si  3.63 -10.60 -5.30
Si  7.29 -2.10  9.81
Si -9.26  1.04 -8.20
Si  1.76  7.41  9.81
Si -3.72 -10.60 -5.30
Si  5.57  7.27 -8.41
Si -7.40  8.50 -5.30
Si -11.09 -4.22  3.80
Si -11.07  2.13 -5.30
Si -7.42 -2.10  9.81
Si -9.26 -7.45  3.81
Si -5.59 -5.32  9.81
Si  9.25 -7.59  3.59
Si  9.25  0.90 -8.41
Si -7.30 -8.41 -5.96
Si -10.97 -6.29  0.05
Si -10.97 -2.04 -5.96
Si  0.05 -12.66  0.05
Si  0.05 -4.17 -11.96
Si -3.62 -10.53  6.05
Si -3.62  2.20 -11.96
Si  7.41 -8.41 -5.96
Si  3.73 -10.53  6.05
Si  3.73  2.20 -11.96
Si -10.98  2.20  6.05
Si -10.98  6.45  0.05
Si 11.08 -6.29  0.05
Si 11.08 -2.04 -5.96
Si -3.62 -2.04 12.05
Si -3.62 10.69 -5.96
Si -7.30  8.57  6.05
Si  3.73 -2.04 12.05
Si  3.73 10.69 -5.96
Si -5.49 -3.14 -11.13
Si  0.05  4.32 12.05
Si  0.05 12.81  0.05
Si 11.08  2.20  6.05
Si -5.50 -9.43  6.72
Si 11.08  6.45  0.05
Si  5.53 -11.56  0.72
Si  0.03 12.64 -2.23
Si  7.41  8.57  6.05
Si  5.54  3.23 -11.13
Si -11.00  6.28 -2.23
Si -9.17 -7.31 -5.29
Si  9.22 -7.39 -5.13
Si -5.49 -11.63  0.87
Si  1.85 -0.94 12.72
Si -11.01 -4.16 -5.28
