500
set: 1627.00  0.00  0.00
Si -0.44  1.12 -0.96
Si  0.44 -1.12 -0.96
Si -1.76  1.37  0.96
Si  1.76 -1.37  0.96
Si -0.44  1.12  2.89
Si  0.44 -1.12  2.89
Si -1.37 -2.66 -0.96
Si  1.37  2.66 -0.96
Si -1.76  1.37 -2.89
Si  1.76 -1.37 -2.89
Si -2.70 -2.30  0.96
Si  2.70  2.30  0.96
Si -3.57 -0.14  0.96
Si  3.57  0.14  0.96
Si -1.37 -2.66  2.89
Si  1.37  2.66  2.89
Si -2.70 -2.30 -2.89
Si  2.70  2.30 -2.89
Si -3.57 -0.14 -2.89
Si  3.57  0.14 -2.89
Si -3.18  3.23  0.96
Si  3.18 -3.23  0.96
Si  4.80 -0.47 -0.96
Si -4.80  0.47 -0.96
Si -0.44  1.12 -4.82
Si  0.44 -1.12 -4.82
Si  1.08  5.06 -0.96
Si -1.08 -5.06 -0.96
Si -1.76  1.37  4.82
Si  1.76 -1.37  4.82
Si -3.18  3.23 -2.89
Si  3.18 -3.23 -2.89
Si -4.51  2.87 -0.96
Si  4.51 -2.87 -0.96
Si  4.80 -0.47  2.89
Si -4.80  0.47  2.89
Si -1.37 -2.66 -4.82
Si  1.37  2.66 -4.82
Si  1.08  5.06  2.89
Si -1.08 -5.06  2.89
Si -4.12 -4.16  0.96
Si  4.12  4.16  0.96
Si -2.31  5.39  0.96
Si  2.31 -5.39  0.96
Si -2.70 -2.30  4.82
Si  2.70  2.30  4.82
Si -3.57 -0.14  4.82
Si  3.57  0.14  4.82
Si -4.51  2.87  2.89
Si  4.51 -2.87  2.89
Si  1.08 -6.00 -0.96
Si -1.08  6.00 -0.96
Si  2.31  5.67  0.96
Si -2.31 -5.67  0.96
Si -4.12 -4.16 -2.89
Si  4.12  4.16 -2.89
Si -2.31  5.39 -2.89
Si  2.31 -5.39 -2.89
Si -3.18  3.23  4.82
Si  3.18 -3.23  4.82
Si  1.08 -6.00  2.89
Si -1.08  6.00  2.89
Si  2.31  5.67 -2.89
Si -2.31 -5.67 -2.89
Si  4.80 -0.47 -4.82
Si -4.80  0.47 -4.82
Si -0.44  1.12  6.75
Si  0.44 -1.12  6.75
Si -6.97 -0.47 -0.96
Si  6.97  0.47 -0.96
Si  1.08  5.06 -4.82
Si -1.08 -5.06 -4.82
Si -5.45 -4.41 -0.96
Si  5.45  4.41 -0.96
Si -1.76  1.37 -6.75
Si  1.76 -1.37 -6.75
Si -4.51  2.87 -4.82
Si  4.51 -2.87 -4.82
Si -1.37 -2.66  6.75
Si  1.37  2.66  6.75
Si -6.97 -0.47  2.89
Si  6.97  0.47  2.89
Si -5.45 -4.41  2.89
Si  5.45  4.41  2.89
Si -4.12 -4.16  4.82
Si  4.12  4.16  4.82
Si -2.31  5.39  4.82
Si  2.31 -5.39  4.82
Si -2.70 -2.30 -6.75
Si  2.70  2.30 -6.75
Si -3.57 -0.14 -6.75
Si  3.57  0.14 -6.75
Si -6.32  4.41 -0.96
Si  6.32 -4.41 -0.96
Si  1.08 -6.00 -4.82
Si -1.08  6.00 -4.82
Si -2.31 -5.67  4.82
Si  2.31  5.67  4.82
Si -7.25 -2.87 -0.96
Si  7.25  2.87 -0.96
Si -4.12  6.90  0.96
Si  4.12 -6.90  0.96
Si -3.18  3.23 -6.75
Si  3.18 -3.23 -6.75
Si -6.32  4.41  2.89
Si  6.32 -4.41  2.89
Si  8.19 -0.14  0.96
Si -8.19  0.14  0.96
Si  4.80 -0.47  6.75
Si -4.80  0.47  6.75
Si -7.25 -2.87  2.89
Si  7.25  2.87  2.89
Si -6.97 -0.47 -4.82
Si  6.97  0.47 -4.82
Si -3.18 -7.83  0.96
Si  3.18  7.83  0.96
Si  1.08  5.06  6.75
Si -1.08 -5.06  6.75
Si  5.45  4.41 -4.82
Si -5.45 -4.41 -4.82
Si -4.12  6.90 -2.89
Si  4.12 -6.90 -2.89
Si -1.37  8.40 -0.96
Si  1.37 -8.40 -0.96
Si -4.51  2.87  6.75
Si  4.51 -2.87  6.75
Si -5.45  6.65 -0.96
Si  5.45 -6.65 -0.96
Si  8.19 -0.14 -2.89
Si -8.19  0.14 -2.89
Si -7.64  4.16  0.96
Si  7.64 -4.16  0.96
Si -0.44  1.12 -8.68
Si  0.44 -1.12 -8.68
Si  3.18  7.83 -2.89
Si -3.18 -7.83 -2.89
Si -4.12 -4.16 -6.75
Si  4.12  4.16 -6.75
Si -2.31  5.39 -6.75
Si  2.31 -5.39 -6.75
Si -1.76  1.37  8.68
Si  1.76 -1.37  8.68
Si -1.37  8.40  2.89
Si  1.37 -8.40  2.89
Si -5.45  6.65  2.89
Si  5.45 -6.65  2.89
Si -6.32  4.41 -4.82
Si  6.32 -4.41 -4.82
Si  1.08 -6.00  6.75
Si -1.08  6.00  6.75
Si  2.31  5.67 -6.75
Si -2.31 -5.67 -6.75
Si -7.25 -2.87 -4.82
Si  7.25  2.87 -4.82
Si -7.64  4.16 -2.89
Si  7.64 -4.16 -2.89
Si -1.37 -2.66 -8.68
Si  1.37  2.66 -8.68
Si -2.70  8.76  0.96
Si  2.70 -8.76  0.96
Si  6.32  6.65 -0.96
Si -6.32 -6.65 -0.96
Si -8.59 -3.23  0.96
Si  8.59  3.23  0.96
Si -4.12  6.90  4.82
Si  4.12 -6.90  4.82
Si -2.70 -2.30  8.68
Si  2.70  2.30  8.68
Si -3.57 -0.14  8.68
Si  3.57  0.14  8.68
Si -9.07  2.30  0.96
Si  9.07 -2.30  0.96
Si -4.51 -8.19 -0.96
Si  4.51  8.19 -0.96
Si  8.19 -0.14  4.82
Si -8.19  0.14  4.82
Si -2.70  8.76 -2.89
Si  2.70 -8.76 -2.89
Si -6.32 -6.65  2.89
Si  6.32  6.65  2.89
Si -8.59 -3.23 -2.89
Si  8.59  3.23 -2.89
Si -6.97 -0.47  6.75
Si  6.97  0.47  6.75
Si -3.18 -7.83  4.82
Si  3.18  7.83  4.82
Si  5.45  4.41  6.75
Si -5.45 -4.41  6.75
Si -1.37  8.40 -4.82
Si  1.37 -8.40 -4.82
Si -9.07  2.30 -2.89
Si  9.07 -2.30 -2.89
Si  4.51  8.19  2.89
Si -4.51 -8.19  2.89
Si -3.18  3.23  8.68
Si  3.18 -3.23  8.68
Si  5.45 -6.65 -4.82
Si -5.45  6.65 -4.82
Si  1.76  9.69  0.96
Si -1.76 -9.69  0.96
Si  4.80 -0.47 -8.68
Si -4.80  0.47 -8.68
Si -7.64  4.16  4.82
Si  7.64 -4.16  4.82
Si -0.44 -9.95 -0.96
Si  0.44  9.95 -0.96
Si  1.08  5.06 -8.68
Si -1.08 -5.06 -8.68
Si -10.01 -1.37  0.96
Si 10.01  1.37  0.96
Si -4.51  2.87 -8.68
Si  4.51 -2.87 -8.68
Si -6.32  4.41  6.75
Si  6.32 -4.41  6.75
Si  1.76  9.69 -2.89
Si -1.76 -9.69 -2.89
Si -7.25 -2.87  6.75
Si  7.25  2.87  6.75
Si -7.64 -6.90  0.96
Si  7.64  6.90  0.96
Si -2.70  8.76  4.82
Si  2.70 -8.76  4.82
Si -6.32 -6.65 -4.82
Si  6.32  6.65 -4.82
Si -8.59 -3.23  4.82
Si  8.59  3.23  4.82
Si -0.44 -9.95  2.89
Si  0.44  9.95  2.89
Si -4.12 -4.16  8.68
Si  4.12  4.16  8.68
Si  2.31 -5.39  8.68
Si -2.31  5.39  8.68
Si -4.12  6.90 -6.75
Si  4.12 -6.90 -6.75
Si -10.01 -1.37 -2.89
Si 10.01  1.37 -2.89
Si -9.07  2.30  4.82
Si  9.07 -2.30  4.82
Si  4.51  8.19 -4.82
Si -4.51 -8.19 -4.82
Si  1.08 -6.00 -8.68
Si -1.08  6.00 -8.68
Si  8.19 -0.14 -6.75
Si -8.19  0.14 -6.75
Si -2.31 -5.67  8.68
Si  2.31  5.67  8.68
Si -0.44  1.12 10.61
Si  0.44 -1.12 10.61
Si -7.64 -6.90 -2.89
Si  7.64  6.90 -2.89
Si -10.40  2.66 -0.96
Si 10.40 -2.66 -0.96
Si  3.18  7.83 -6.75
Si -3.18 -7.83 -6.75
Si  1.76 -1.37 -10.61
Si -1.76  1.37 -10.61
Si -1.37  8.40  6.75
Si  1.37 -8.40  6.75
Si  5.45 -6.65  6.75
Si -5.45  6.65  6.75
Si -9.46 -5.39  0.96
Si  9.46  5.39  0.96
Si  1.76  9.69  4.82
Si -1.76 -9.69  4.82
Si -7.25  8.19 -0.96
Si  7.25 -8.19 -0.96
Si -7.64  4.16 -6.75
Si  7.64 -4.16 -6.75
Si -1.37 -2.66 10.61
Si  1.37  2.66 10.61
Si -0.44 -9.95 -4.82
Si  0.44  9.95 -4.82
Si -9.46  5.67  0.96
Si  9.46 -5.67  0.96
Si -10.40  2.66  2.89
Si 10.40 -2.66  2.89
Si -6.97 -0.47 -8.68
Si  6.97  0.47 -8.68
Si  5.45  4.41 -8.68
Si -5.45 -4.41 -8.68
Si -2.70 -2.30 -10.61
Si  2.70  2.30 -10.61
Si -10.01 -1.37  4.82
Si 10.01  1.37  4.82
Si -3.57 -0.14 -10.61
Si  3.57  0.14 -10.61
Si -9.46 -5.39 -2.89
Si  9.46  5.39 -2.89
Si -7.25  8.19  2.89
Si  7.25 -8.19  2.89
Si  7.64  6.90  4.82
Si -7.64 -6.90  4.82
Si -2.70  8.76 -6.75
Si  2.70 -8.76 -6.75
Si  6.32  6.65  6.75
Si -6.32 -6.65  6.75
Si -8.59 -3.23 -6.75
Si  8.59  3.23 -6.75
Si  9.46 -5.67 -2.89
Si -9.46  5.67 -2.89
Si -11.33 -1.12 -0.96
Si 11.33  1.12 -0.96
Si  3.57 -10.92  0.96
Si -3.57 10.92  0.96
Si -9.07  2.30 -6.75
Si  9.07 -2.30 -6.75
Si -4.51 -8.19  6.75
Si  4.51  8.19  6.75
Si -3.18  3.23 -10.61
Si  3.18 -3.23 -10.61
Si -6.32  4.41 -8.68
Si  6.32 -4.41 -8.68
Si  4.80 -0.47 10.61
Si -4.80  0.47 10.61
Si -8.59  7.83  0.96
Si  8.59 -7.83  0.96
Si -4.80 -10.59 -0.96
Si  4.80 10.59 -0.96
Si  7.25  2.87 -8.68
Si -7.25 -2.87 -8.68
Si -11.33 -1.12  2.89
Si 11.33  1.12  2.89
Si -10.40  2.66 -4.82
Si 10.40 -2.66 -4.82
Si -3.57 -11.20  0.96
Si  3.57 11.20  0.96
Si  1.08  5.06 10.61
Si -1.08 -5.06 10.61
Si -4.12  6.90  8.68
Si  4.12 -6.90  8.68
Si  3.57 -10.92 -2.89
Si -3.57 10.92 -2.89
Si 10.69 -5.06 -0.96
Si -10.69  5.06 -0.96
Si -4.51  2.87 10.61
Si  4.51 -2.87 10.61
Si -9.46 -5.39  4.82
Si  9.46  5.39  4.82
Si  8.19 -0.14  8.68
Si -8.19  0.14  8.68
Si  1.76  9.69 -6.75
Si -1.76 -9.69 -6.75
Si -7.25  8.19 -4.82
Si  7.25 -8.19 -4.82
Si -8.59  7.83 -2.89
Si  8.59 -7.83 -2.89
Si -4.80 -10.59  2.89
Si  4.80 10.59  2.89
Si -0.44 -9.95  6.75
Si  0.44  9.95  6.75
Si  9.46 -5.67  4.82
Si -9.46  5.67  4.82
Si -3.57 -11.20 -2.89
Si  3.57 11.20 -2.89
Si -3.18 -7.83  8.68
Si  3.18  7.83  8.68
Si -4.12 -4.16 -10.61
Si  4.12  4.16 -10.61
Si -2.31  5.39 -10.61
Si  2.31 -5.39 -10.61
Si -10.01 -1.37 -6.75
Si 10.01  1.37 -6.75
Si -1.37  8.40 -8.68
Si  1.37 -8.40 -8.68
Si 10.69 -5.06  2.89
Si -10.69  5.06  2.89
Si -5.45  6.65 -8.68
Si  5.45 -6.65 -8.68
Si -0.44 12.18 -0.96
Si  0.44 -12.18 -0.96
Si  1.08 -6.00 10.61
Si -1.08  6.00 10.61
Si -2.31 -5.67 -10.61
Si  2.31  5.67 -10.61
Si 10.69  6.00 -0.96
Si -10.69 -6.00 -0.96
Si -7.64  4.16  8.68
Si  7.64 -4.16  8.68
Si -12.21  1.12 -0.96
Si 12.21 -1.12 -0.96
Si  7.64  6.90 -6.75
Si -7.64 -6.90 -6.75
Si -11.33 -1.12 -4.82
Si 11.33  1.12 -4.82
Si  3.57 -10.92  4.82
Si -3.57 10.92  4.82
Si -0.44 12.18  2.89
Si  0.44 -12.18  2.89
Si  4.80 -11.53 -0.96
Si -4.80 11.53 -0.96
Si -8.59  7.83  4.82
Si  8.59 -7.83  4.82
Si -4.80 -10.59 -4.82
Si  4.80 10.59 -4.82
Si 10.69  6.00  2.89
Si -10.69 -6.00  2.89
Si -1.76 12.43  0.96
Si  1.76 -12.43  0.96
Si -12.21  1.12  2.89
Si 12.21 -1.12  2.89
Si -0.44  1.12 -12.54
Si  0.44 -1.12 -12.54
Si -2.70  8.76  8.68
Si  2.70 -8.76  8.68
Si  6.32  6.65 -8.68
Si -6.32 -6.65 -8.68
Si -8.59 -3.23  8.68
Si  8.59  3.23  8.68
Si -9.07 -8.76  0.96
Si  9.07  8.76  0.96
Si -10.40  2.66  6.75
Si 10.40 -2.66  6.75
Si -6.97 -0.47 10.61
Si  6.97  0.47 10.61
Si -3.57 -11.20  4.82
Si  3.57 11.20  4.82
Si  6.97 -10.59 -0.96
Si -6.97 10.59 -0.96
Si -5.45 -4.41 10.61
Si  5.45  4.41 10.61
Si -1.76  1.37 12.54
Si  1.76 -1.37 12.54
Si -9.07  2.30  8.68
Si  9.07 -2.30  8.68
Si  4.51  8.19 -8.68
Si -4.51 -8.19 -8.68
Si 10.69 -5.06 -4.82
Si -10.69  5.06 -4.82
Si  9.46  5.39 -6.75
Si -9.46 -5.39 -6.75
Si  4.80 -11.53  2.89
Si -4.80 11.53  2.89
Si -7.25  8.19  6.75
Si  7.25 -8.19  6.75
Si -1.76 12.43 -2.89
Si  1.76 -12.43 -2.89
Si -1.37 -2.66 -12.54
Si  1.37  2.66 -12.54
Si  9.46 -5.67 -6.75
Si -9.46  5.67 -6.75
Si -9.07 -8.76 -2.89
Si  9.07  8.76 -2.89
Si  6.97 -10.59  2.89
Si -6.97 10.59  2.89
Si -2.70 -2.30 12.54
Si  2.70  2.30 12.54
Si -3.57 -0.14 12.54
Si  3.57  0.14 12.54
Si -0.44 12.18 -4.82
Si  0.44 -12.18 -4.82
Si -6.32  4.41 10.61
Si  6.32 -4.41 10.61
Si  1.76  9.69  8.68
Si -1.76 -9.69  8.68
Si -7.25 -2.87 10.61
Si  7.25  2.87 10.61
Si 10.69  6.00 -4.82
Si -10.69 -6.00 -4.82
Si -12.21  1.12 -4.82
Si 12.21 -1.12 -4.82
Si -0.44 -9.95 -8.68
Si  0.44  9.95 -8.68
Si -11.33 -1.12  6.75
Si 11.33  1.12  6.75
Si -4.12  6.90 -10.61
Si  4.12 -6.90 -10.61
Si -10.01 -1.37  8.68
Si 10.01  1.37  8.68
Si  3.57 -10.92 -6.75
Si -3.57 10.92 -6.75
Si  3.18 -3.23 12.54
Si -3.18  3.23 12.54
Si  4.80 -11.53 -4.82
Si -4.80 11.53 -4.82
Si -10.40 -8.40 -0.96
Si 10.40  8.40 -0.96
Si  8.19 -0.14 -10.61
Si -8.19  0.14 -10.61
Si  4.80 -0.47 -12.54
Si -4.80  0.47 -12.54
Si -8.59  7.83 -6.75
Si  8.59 -7.83 -6.75
Si -13.14 -2.66 -0.96
Si 13.14  2.66 -0.96
Si -4.80 -10.59  6.75
Si  4.80 10.59  6.75
Si -1.76 12.43  4.82
Si  1.76 -12.43  4.82
Si -7.64 -6.90  8.68
Si  7.64  6.90  8.68
Si -9.07 -8.76  4.82
Si  9.07  8.76  4.82
Si -6.97 -11.53 -0.96
Si  6.97 11.53 -0.96
Si -3.57 -11.20 -6.75
Si  3.57 11.20 -6.75
Si  3.18  7.83 -10.61
Si -3.18 -7.83 -10.61
Si  6.97 -10.59 -4.82
Si -6.97 10.59 -4.82
