500
set: 1093.00  0.00  0.00
Si  0.41 -1.11  0.85
Si -0.41  1.19 -0.82
Si -1.32 -1.12 -0.80
Si  1.38  1.23  0.80
Si -0.92  0.01  2.36
Si -2.14  1.18  0.76
Si  0.90  0.04 -2.40
Si  2.14 -1.22 -0.79
Si -0.05 -2.27 -2.38
Si  0.08  2.26  2.43
Si -3.00 -1.16  0.81
Si  3.03  1.10 -0.81
Si -0.39 -3.40  0.80
Si  2.54 -0.14  2.45
Si -2.58  0.05 -2.49
Si  0.46  3.51 -0.80
Si  1.73  2.36 -2.38
Si -1.23  3.47  0.81
Si -1.75  2.33 -2.42
Si  1.68 -2.37  2.44
Si -1.70 -2.37  2.43
Si  1.25 -3.52 -0.81
Si -0.81 -0.05 -4.03
Si -3.90  1.10 -0.81
Si -2.18 -3.44 -0.82
Si  3.92 -1.16  0.81
Si  0.84  0.05  4.09
Si  2.19  3.51  0.85
Si -3.01  3.40 -0.79
Si  3.01 -3.45  0.76
Si  0.02 -2.27  4.07
Si -0.04  2.32 -4.10
Si  3.40 -2.30 -2.42
Si  2.56 -0.05 -4.02
Si  3.45  2.26  2.44
Si -3.47  2.26  2.44
Si -2.63  0.01  4.04
Si -3.52 -2.30 -2.42
Si -1.69  2.36  3.97
Si  1.65 -2.45 -4.01
Si  4.78  1.18  0.76
Si -4.78 -1.22 -0.79
Si  4.34  0.05 -2.49
Si -4.38 -0.14  2.45
Si  1.79  2.35  4.07
Si -1.81 -2.31 -4.10
Si  3.91  3.40 -0.79
Si -0.87 -4.59 -2.40
Si -3.91 -3.45  0.76
Si  0.85  4.63  2.36
Si -0.80  4.67 -2.49
Si  0.77 -4.76  2.45
Si  3.42  2.18 -4.01
Si -5.54  1.23  0.80
Si -3.46 -2.27  3.97
Si  3.46 -2.27  3.97
Si -2.60  4.49  2.45
Si -3.50  2.18 -4.01
Si  5.60 -1.12 -0.80
Si  0.49 -1.08 -5.67
Si -0.43  1.19  5.67
Si  2.57 -4.58 -2.49
Si -2.70 -4.62  2.36
Si -0.36  5.81  0.76
Si  1.29  1.20 -5.62
Si  2.68  4.67 -2.40
Si  4.29  0.01  4.04
Si -1.29 -1.13  5.65
Si  0.37 -5.85 -0.79
Si  4.74 -3.44 -0.82
Si -4.36 -0.05 -4.02
Si -4.74  3.51  0.85
Si -1.36 -5.74  0.85
Si  1.36  5.81 -0.82
Si -2.12  1.16 -5.65
Si  2.14 -1.21  5.65
Si -2.12  5.73 -0.81
Si  5.18  2.33 -2.42
Si  0.96  4.58 -4.03
Si -5.20  2.36 -2.38
Si -0.93 -4.58  4.09
Si -0.85  4.64  4.04
Si  0.79 -4.68 -4.02
Si  2.14 -5.79  0.81
Si  5.22 -2.37  2.43
Si -5.24 -2.37  2.44
Si  6.00  0.01  2.36
Si -6.02  0.04 -2.40
Si  3.03  1.09  5.68
Si -3.03 -1.13 -5.70
Si -3.09 -5.74 -0.80
Si -0.48 -3.42 -5.62
Si -2.59  4.57 -4.02
Si  2.52 -4.61  4.04
Si -6.51 -1.11  0.85
Si  0.48  3.50  5.65
Si  6.51  1.19 -0.82
Si  4.22 -4.62  2.36
Si  4.32  4.49  2.45
Si -2.59 -4.68 -4.03
Si  3.16  5.85  0.80
Si  5.69  3.47  0.81
Si -5.67 -3.52 -0.81
Si  2.62  4.67  4.09
Si -4.24  4.67 -2.40
Si -4.35 -4.58 -2.49
Si  1.26 -3.54  5.68
Si -1.26  3.50 -5.70
Si  5.11 -2.31 -4.10
Si  3.83 -5.74 -0.80
Si -5.13  2.35  4.07
Si -3.89  1.09  5.68
Si  5.23  2.36  3.97
Si -2.20 -3.43  5.67
Si  3.89 -1.13 -5.70
Si -3.76  5.85  0.80
Si  2.27  3.54 -5.67
Si -5.27 -2.45 -4.01
Si -3.00  3.42  5.65
Si  3.03 -3.47 -5.65
Si  6.11 -0.05 -4.03
Si -6.08  0.05  4.09
Si  0.50 -1.09  7.26
Si  0.03  6.95 -2.42
Si -0.43  1.20 -7.26
Si -6.46  3.51 -0.80
Si  6.53 -3.40  0.80
Si -0.10 -6.99  2.44
Si  7.33 -1.11  0.85
Si -7.33  1.19 -0.82
Si  4.33  4.57 -4.02
Si -1.30 -1.13 -7.28
Si -4.78 -1.21  5.65
Si -1.70  6.89  2.44
Si  4.80  1.16 -5.65
Si -1.82 -6.89 -2.38
Si  1.63 -6.92 -2.42
Si  4.80  5.73 -0.81
Si  1.30  1.20  7.31
Si  1.85  6.89  2.43
Si  4.33 -4.68 -4.03
Si -4.78 -5.79  0.81
Si -4.40 -4.61  4.04
Si -4.30  4.67  4.09
Si -6.84  2.26  2.43
Si  6.87 -2.27 -2.38
Si -2.11  1.15  7.28
Si  2.13 -1.21 -7.27
Si  3.92  3.42  5.65
Si -3.90 -3.47 -5.65
Si -6.97 -2.27 -2.38
Si  7.00  2.26  2.43
Si -3.02 -1.13  7.22
Si  3.02  1.09 -7.25
Si  6.05 -4.59 -2.40
Si -6.07  4.63  2.36
Si  5.56 -5.74  0.85
Si  0.09  6.99  3.97
Si -5.63  1.20 -5.62
Si  5.63 -1.13  5.65
Si -5.56  5.81 -0.82
Si -0.47 -3.43  7.31
Si -1.72  6.81 -4.01
Si  0.47  3.50 -7.28
Si -0.35  5.78 -5.65
Si  6.12  4.67 -2.49
Si -7.31 -3.40  0.80
Si -1.25  3.49  7.22
Si  0.37 -5.84  5.65
Si -0.12 -7.07 -4.01
Si  1.69 -6.89  3.97
Si -3.42  6.99 -2.38
Si  4.72 -3.43  5.67
Si -4.65  3.54 -5.67
Si -1.28 -5.71 -5.67
Si  0.54  8.10  0.81
Si -6.15 -4.76  2.45
Si  1.25 -3.53 -7.25
Si -1.23  8.03 -0.79
Si  3.45 -6.99  2.43
Si  3.50  6.99 -2.38
Si -3.47 -6.99  2.43
Si  7.82  0.04 -2.40
Si -7.84  0.01  2.36
Si -1.75 -6.90  4.07
Si  1.24 -8.07  0.76
Si -0.52 -8.15 -0.81
Si  7.38  3.51 -0.80
Si  1.35  5.82  5.67
Si  1.73  6.95 -4.10
Si  3.90 -1.13  7.22
Si -3.90  1.09 -7.25
Si -2.21 -3.43 -7.26
Si -6.90 -2.27  4.07
Si -2.12  5.72  5.68
Si  6.88  2.32 -4.10
Si -2.16 -8.03  0.80
Si -8.24 -1.12 -0.80
Si  6.94 -2.27  4.07
Si  2.12 -5.76 -5.70
Si  2.27  3.54  7.26
Si -6.96  2.32 -4.10
Si  8.30  1.23  0.80
Si  2.23  8.14 -0.80
Si -5.96  4.58 -4.03
Si  5.99 -4.58  4.09
Si -3.01  3.42 -7.27
Si  3.03 -3.47  7.28
Si -3.07 -5.76  5.65
Si  2.96 -8.07 -0.82
Si -6.43 -1.08 -5.67
Si  6.07  4.64  4.04
Si  3.07  5.83 -5.62
Si -6.13 -4.68 -4.02
Si  6.49  1.19  5.67
Si -2.96  8.14  0.85
Si  3.33 -6.93 -4.10
Si -7.73 -0.05 -4.03
Si -3.35  6.98  4.07
Si -5.66 -3.54  5.68
Si  5.67  3.50 -5.70
Si  7.76  0.05  4.09
Si -4.79 -1.21 -7.27
Si  6.56  5.81  0.76
Si  4.81  1.15  7.28
Si -3.59 -6.93 -4.10
Si -6.55 -5.85 -0.79
Si  3.57  6.98  4.07
Si  0.83  0.05 -8.84
Si -5.07  6.89  2.43
Si -8.15  3.47  0.81
Si  5.10 -6.89 -2.38
Si -0.81 -0.05  8.89
Si  8.17 -3.52 -0.81
Si  3.91  3.42 -7.27
Si  3.85 -5.76  5.65
Si -3.89 -3.47  7.28
Si -3.85  5.83 -5.62
Si  5.22  6.89  2.44
Si -3.96 -8.07 -0.82
Si -5.29 -6.92 -2.42
Si  3.96  8.14  0.85
Si -0.03  2.32  8.83
Si  0.01 -2.27 -8.86
Si -9.06  1.18  0.76
Si  9.06 -1.22 -0.79
Si  6.44 -3.42 -5.62
Si  8.60 -2.37  2.44
Si -6.44  3.50  5.65
Si -8.62 -2.37  2.43
Si  5.62 -1.13 -7.28
Si  2.57 -0.06  8.90
Si -2.64  0.02 -8.88
Si  8.65  2.36 -2.38
Si -8.67  2.33 -2.42
Si -5.62  1.20  7.31
Si -0.34  5.78  7.28
Si -1.81 -2.31  8.83
Si  4.71 -3.43 -7.26
Si -4.64  3.54  7.26
Si -1.27 -5.71  7.26
Si  0.36 -5.83 -7.27
Si  1.79  2.35 -8.86
Si -7.29  5.81  0.76
Si  7.77  4.63  2.36
Si -7.79 -4.59 -2.40
Si -7.35  1.19  5.67
Si  4.76 -8.03  0.80
Si -7.72  4.67 -2.49
Si  7.69 -4.76  2.45
Si  7.29 -5.85 -0.79
Si  4.80  5.72  5.68
Si  1.66 -2.45  8.91
Si  7.41 -1.08 -5.67
Si  1.34  5.82 -7.26
Si -1.69  2.36 -8.95
Si -4.80 -5.76 -5.70
Si -4.69  8.14 -0.80
Si  5.20  6.81 -4.01
Si -2.12  5.72 -7.25
Si -0.83  9.12  2.45
Si  2.13 -5.76  7.22
Si -5.23 -6.89  3.97
Si  5.17 -6.90  4.07
Si  0.80 -9.21 -2.49
Si -5.19  6.95 -4.10
Si  0.97  9.30 -2.49
Si -6.42 -1.09  7.26
Si -1.00 -9.39  2.45
Si -9.10 -3.44 -0.82
Si -8.61  2.36  3.97
Si -3.07 -5.75 -7.28
Si  9.46 -0.14  2.45
Si  8.57 -2.45 -4.01
Si  3.43  2.18  8.91
Si  9.11  3.51  0.85
Si  6.49  1.20 -7.26
Si -3.49  2.18  8.91
Si -9.50  0.05 -2.49
Si  5.67  3.49  7.22
Si  5.64 -5.71 -5.67
Si  3.08  5.83  7.31
Si -5.57  5.82  5.67
Si  2.45 -9.25  2.36
Si -5.67 -3.53 -7.25
Si  3.45 -2.27 -8.95
Si -3.47 -2.27 -8.95
Si  4.29  0.02 -8.88
Si  5.69  8.03 -0.79
Si  7.71 -4.68 -4.02
Si -2.64 -9.21 -2.40
Si  8.71  2.35  4.07
Si -7.40 -3.42 -5.62
Si -5.69 -8.07  0.76
Si -1.23  8.04  5.65
Si -4.35 -0.06  8.90
Si -2.47  9.29 -2.40
Si  2.62  9.26  2.36
Si -7.78  4.64  4.04
Si -8.73 -2.31 -4.10
Si  0.52  8.12 -5.70
Si  7.40  3.50  5.65
Si  1.25 -8.10 -5.65
Si -0.52 -8.16  5.68
Si  7.88  4.58 -4.03
Si -7.85 -4.58  4.09
Si -0.94 -4.58 -8.84
Si  8.21  1.20 -5.62
Si -9.92 -1.16  0.81
Si -8.21 -1.13  5.65
Si  9.95  1.10 -0.81
Si  3.85 -5.75 -7.28
Si  0.97  4.57  8.89
Si -0.86  4.64 -8.88
Si -2.25 -8.05 -5.62
Si  6.83 -6.99  2.44
Si -0.81  9.20 -4.02
Si -6.89  6.95 -2.42
Si  0.80 -4.68  8.90
Si -3.85  5.83  7.31
Si  0.75 -9.24  4.04
Si -8.28 -5.74  0.85
Si  6.95  6.95 -2.42
Si  2.25  8.12  5.65
Si  0.92  9.27  4.04
Si  8.29  5.81 -0.82
Si -0.99 -9.30 -4.02
Si -7.02 -6.99  2.44
Si  2.95 -8.06  5.67
Si  9.48 -0.05 -4.02
Si  2.51 -4.61 -8.88
Si  6.45 -3.43  7.31
Si  2.61  4.67 -8.84
Si -6.45  3.50 -7.28
Si -2.58  4.57  8.90
Si -6.38  8.10  0.81
Si -2.88  8.17 -5.67
Si -9.55  0.01  4.04
Si -2.58 -4.68  8.89
Si  6.40 -8.15 -0.81
Si -0.35 10.36 -0.81
Si -7.36  1.20 -7.26
Si  4.80  5.72 -7.25
Si -4.79 -5.76  7.22
Si  2.73  9.20 -4.03
Si  6.57  5.78 -5.65
Si -2.70 -9.21  4.09
Si -6.55 -5.84  5.65
Si  4.28 -9.21 -2.40
Si  7.42 -1.09  7.26
Si  0.37 -10.41  0.81
Si  5.12 -2.31  8.83
Si  2.56 -9.30 -4.03
Si -2.53  9.30  4.09
Si -4.30  9.26  2.36
Si -5.13  2.35 -8.86
Si -9.93  3.40 -0.79
Si  9.93 -3.45  0.76
Si -4.47 -9.25  2.36
Si -6.83  6.99  3.97
Si  1.41 10.43  0.76
Si  8.18 -3.54  5.68
Si -8.18  3.50 -5.70
Si  0.91  0.04 10.53
Si  4.45  9.29 -2.40
Si -1.41 -10.47 -0.79
Si  6.80 -7.07 -4.01
Si -0.93  0.01 -10.56
Si  2.06 -10.37 -0.80
Si -3.98 -8.06  5.67
Si  5.23  2.36 -8.95
Si -5.26 -2.45  8.91
Si  7.01  6.99  3.97
Si -1.99 10.48  0.80
Si -9.04  1.16 -5.65
Si -6.09  0.05 -8.84
Si  4.04  8.17 -5.67
Si -9.04  5.73 -0.81
Si  0.07  2.26 -10.49
Si -2.57  0.04 10.43
Si  9.06 -1.21  5.65
Si -7.04 -7.07 -4.01
Si  2.54 -0.13 -10.48
Si  9.06 -5.79  0.81
Si -0.04 -2.27 10.55
Si  6.12 -0.05  8.89
Si -9.53  4.49  2.45
Si  5.65 -5.71  7.26
Si  9.49 -4.58 -2.49
Si 10.32 -2.30 -2.42
Si -5.58  5.82 -7.26
Si -3.14 -10.37  0.85
Si  4.67 -8.05 -5.62
Si -7.27  5.78 -5.65
Si  1.67 -2.36 -10.48
Si  0.53  8.12  7.22
Si -4.19  9.20 -4.03
Si -4.31  4.67 -8.84
Si -1.71 -2.36 -10.49
Si 10.37  2.26  2.44
Si -1.74  2.33 10.50
Si -10.81  1.10 -0.81
Si  4.34  4.57  8.90
Si -10.39  2.26  2.44
Si  7.29 -5.84  5.65
Si -1.24  8.04 -7.27
Si  4.22 -9.21  4.09
Si -0.52 -8.16 -7.25
Si -9.62 -4.62  2.36
Si  3.14 10.44 -0.82
Si 10.84 -1.16  0.81
Si -4.67  8.12  5.65
Si  9.60  4.67 -2.40
Si -4.41 -4.61 -8.88
Si -7.39 -3.43  7.31
Si  4.34 -4.68  8.89
Si  1.73  2.36 10.55
Si  7.39  3.50 -7.28
Si -10.44 -2.30 -2.42
Si  1.26 -8.10  7.28
Si -8.22 -1.13 -7.28
Si -4.36 -9.30 -4.03
Si  7.46  8.10  0.81
Si  4.39  9.30  4.09
Si -7.44 -8.15 -0.81
Si  8.22  1.20  7.31
Si  3.79 -10.37  0.85
Si -2.25 -8.05  7.31
Si -3.78 10.44 -0.82
Si  2.25  8.13 -7.28
Si  2.94 -8.06 -7.26
Si  6.09  9.12  2.45
Si  9.44 -4.61  4.04
Si  3.44  2.26 -10.48
Si  8.55 -6.92 -2.42
Si -9.12 -3.43  5.67
Si -3.48  2.26 -10.48
Si  3.41 -2.30 10.50
Si -9.51  4.57 -4.02
Si -2.87  8.17  7.26
Si -8.62  6.89  2.44
Si  4.35  0.04 10.43
Si -3.51 -2.30 10.50
Si 10.35  2.18 -4.01
Si -5.95  9.30 -2.49
Si -6.12 -9.21 -2.49
Si -9.51 -4.68 -4.03
Si -1.71  6.80  8.91
Si -10.38 -2.27  3.97
Si 10.38 -2.27  3.97
Si  0.08  6.99 -8.95
Si  5.69  8.04  5.65
Si -4.39 -0.13 -10.48
Si  9.19  3.54 -5.67
Si  5.92 -9.39  2.45
Si -1.76 -6.90 -8.86
Si  1.74  6.95  8.83
Si -10.42  2.18 -4.01
Si  9.54  4.67  4.09
Si -0.11 -7.08  8.91
Si -8.74 -6.89 -2.38
Si -5.67 -8.10 -5.65
Si 10.84  3.40 -0.79
Si  6.58  5.78  7.28
Si -10.83 -3.45  0.76
Si -6.56 -5.83 -7.27
Si  8.77  6.89  2.43
Si  1.68 -6.89 -8.95
Si  6.89  2.32  8.83
Si -8.17  3.49  7.22
Si -0.80  4.67 10.43
Si -6.91 -2.27 -8.86
Si -8.15  8.03 -0.79
Si -6.95  2.32  8.83
Si  6.93 -2.27 -8.86
Si  8.17 -3.53 -7.25
Si -4.87 -10.37 -0.80
Si -8.20 -5.71 -5.67
Si  8.15 -8.07  0.76
Si  9.95  1.09  5.68
