500
set: 1298.00  0.00  0.00
Si -1.50 -0.69  0.00
Si  0.69 -1.50  0.00
Si -0.69  1.50  0.00
Si  1.50  0.69  0.00
Si -1.03  2.53 -2.07
Si  2.53  1.03 -2.07
Si -2.53 -1.03 -2.07
Si -1.03  2.53  2.07
Si  1.03 -2.53 -2.07
Si  2.53  1.03  2.07
Si -2.53 -1.03  2.07
Si  1.03 -2.53  2.07
Si  1.08  2.60 -3.16
Si  1.08  2.60  3.16
Si -2.60  1.08 -3.16
Si -2.60  1.08  3.16
Si  2.60 -1.08 -3.16
Si  2.60 -1.08  3.16
Si -1.08 -2.60 -3.16
Si -1.08 -2.60  3.16
Si  1.44 -4.70 -1.20
Si  1.44 -4.70  1.20
Si  4.70  1.44 -1.20
Si  4.70  1.44  1.20
Si -4.70 -1.44 -1.20
Si -4.70 -1.44  1.20
Si -1.44  4.70 -1.20
Si -1.44  4.70  1.20
Si -4.91  1.65 -3.17
Si -4.91  1.65  3.17
Si -1.65 -4.91 -3.17
Si -1.65 -4.91  3.17
Si  1.65  4.91 -3.17
Si  1.65  4.91  3.17
Si  4.91 -1.65 -3.17
Si  4.91 -1.65  3.17
Si  1.08  2.60 -5.56
Si  1.08  2.60  5.56
Si -2.60  1.08 -5.56
Si -2.60  1.08  5.56
Si  2.60 -1.08 -5.56
Si  2.60 -1.08  5.56
Si -1.08 -2.60 -5.56
Si -1.08 -2.60  5.56
Si  3.75 -5.27 -1.20
Si -5.27 -3.75 -1.20
Si  3.75 -5.27  1.20
Si -5.27 -3.75  1.20
Si  5.27  3.75 -1.20
Si -3.75  5.27 -1.20
Si  5.27  3.75  1.20
Si -3.75  5.27  1.20
Si -6.35 -0.00 -2.18
Si -0.00 -6.35 -2.18
Si -0.00 -6.35  2.18
Si -6.35  0.00  2.18
Si  0.00  6.35 -2.18
Si  6.35 -0.00 -2.18
Si  0.00  6.35  2.18
Si  6.35  0.00  2.18
Si  5.32 -3.82  2.29
Si  3.82  5.32  2.29
Si -3.82 -5.32  2.29
Si -5.32  3.82  2.29
Si  5.32 -3.82 -2.29
Si  3.82  5.32 -2.29
Si -3.82 -5.32 -2.29
Si -5.32  3.82 -2.29
Si -1.03  2.53 -6.66
Si  2.53  1.03 -6.66
Si -2.53 -1.03 -6.66
Si  1.03 -2.53 -6.66
Si -1.03  2.53  6.66
Si  2.53  1.03  6.66
Si -2.53 -1.03  6.66
Si  1.03 -2.53  6.66
Si -4.91  1.65 -5.56
Si -4.91  1.65  5.56
Si -1.65 -4.91 -5.56
Si -1.65 -4.91  5.56
Si  1.65  4.91 -5.56
Si  1.65  4.91  5.56
Si  4.91 -1.65 -5.56
Si  4.91 -1.65  5.56
Si -8.00  1.44 -1.20
Si -8.00  1.44  1.20
Si  1.44  8.00 -1.20
Si  1.44  8.00  1.20
Si -1.44 -8.00 -1.20
Si -1.44 -8.00  1.20
Si  8.00 -1.44 -1.20
Si  8.00 -1.44  1.20
Si -7.43  3.75 -1.20
Si -3.75 -7.43 -1.20
Si -7.43  3.75  1.20
Si -3.75 -7.43  1.20
Si  3.75  7.43 -1.20
Si  7.43 -3.75 -1.20
Si  3.75  7.43  1.20
Si  7.43 -3.75  1.20
Si  1.65 -7.79 -3.17
Si  1.65 -7.79  3.17
Si -7.79 -1.65 -3.17
Si -7.79 -1.65  3.17
Si  7.79  1.65 -3.17
Si  7.79  1.65  3.17
Si -1.65  7.79 -3.17
Si -1.65  7.79  3.17
Si -3.82  7.38  2.29
Si  7.38  3.82  2.29
Si -7.38 -3.82  2.29
Si  3.82 -7.38  2.29
Si -3.82  7.38 -2.29
Si  7.38  3.82 -2.29
Si -7.38 -3.82 -2.29
Si  3.82 -7.38 -2.29
Si -4.86 -5.66  4.36
Si -5.66  4.86  4.36
Si  5.66 -4.86  4.36
Si  4.86  5.66  4.36
Si -4.86 -5.66 -4.36
Si -5.66  4.86 -4.36
Si  5.66 -4.86 -4.36
Si  4.86  5.66 -4.36
Si -1.50 -0.69  8.73
Si -1.50 -0.69 -8.73
Si  0.69 -1.50 -8.73
Si  0.69 -1.50  8.73
Si -0.69  1.50  8.73
Si -0.69  1.50 -8.73
Si  1.50  0.69  8.73
Si  1.50  0.69 -8.73
Si  1.44 -4.70 -7.53
Si  4.70  1.44 -7.53
Si  1.44 -4.70  7.53
Si  4.70  1.44  7.53
Si -4.70 -1.44 -7.53
Si -1.44  4.70 -7.53
Si -4.70 -1.44  7.53
Si -1.44  4.70  7.53
Si -0.00 -6.35 -6.54
Si -6.35 -0.00 -6.54
Si  6.35 -0.00 -6.54
Si -0.00  6.35 -6.54
Si -6.35  0.00  6.54
Si  0.00 -6.35  6.54
Si  6.35  0.00  6.54
Si  0.00  6.35  6.54
Si  5.32 -3.82  6.43
Si  3.82  5.32  6.43
Si -3.82 -5.32  6.43
Si -5.32  3.82  6.43
Si  5.32 -3.82 -6.43
Si  3.82  5.32 -6.43
Si -3.82 -5.32 -6.43
Si -5.32  3.82 -6.43
Si -7.04 -4.86  4.36
Si  4.86 -7.04  4.36
Si -4.86  7.04  4.36
Si  7.04  4.86  4.36
Si -7.04 -4.86 -4.36
Si  4.86 -7.04 -4.36
Si -4.86  7.04 -4.36
Si  7.04  4.86 -4.36
Si  1.65 -7.79 -5.56
Si  1.65 -7.79  5.56
Si -7.79 -1.65 -5.56
Si -7.79 -1.65  5.56
Si  7.79  1.65 -5.56
Si  7.79  1.65  5.56
Si -1.65  7.79 -5.56
Si -1.65  7.79  5.56
Si  3.75 -5.27 -7.53
Si -5.27 -3.75 -7.53
Si  3.75 -5.27  7.53
Si -5.27 -3.75  7.53
Si  5.27  3.75 -7.53
Si -3.75  5.27 -7.53
Si  5.27  3.75  7.53
Si -3.75  5.27  7.53
Si 10.18 -1.03 -2.07
Si  1.03 10.18 -2.07
Si 10.18 -1.03  2.07
Si  1.03 10.18  2.07
Si -1.03 -10.18 -2.07
Si -10.18  1.03 -2.07
Si -1.03 -10.18  2.07
Si -10.18  1.03  2.07
Si -5.27  8.95 -1.20
Si -8.95 -5.27 -1.20
Si -5.27  8.95  1.20
Si -8.95 -5.27  1.20
Si  8.95  5.27 -1.20
Si  5.27 -8.95 -1.20
Si  8.95  5.27  1.20
Si  5.27 -8.95  1.20
Si -3.82  7.38  6.43
Si  7.38  3.82  6.43
Si -7.38 -3.82  6.43
Si  3.82 -7.38  6.43
Si -3.82  7.38 -6.43
Si  7.38  3.82 -6.43
Si -7.38 -3.82 -6.43
Si  3.82 -7.38 -6.43
Si -8.88  5.32  2.29
Si  5.32  8.88  2.29
Si -5.32 -8.88  2.29
Si  8.88 -5.32  2.29
Si -8.88  5.32 -2.29
Si  5.32  8.88 -2.29
Si -5.32 -8.88 -2.29
Si  8.88 -5.32 -2.29
Si -5.66 -7.85  4.36
Si -7.85  5.66  4.36
Si  7.85 -5.66  4.36
Si  5.66  7.85  4.36
Si -5.66 -7.85 -4.36
Si -7.85  5.66 -4.36
Si  7.85 -5.66 -4.36
Si  5.66  7.85 -4.36
Si 10.10  1.08 -3.16
Si 10.10  1.08  3.16
Si  1.08 -10.10 -3.16
Si  1.08 -10.10  3.16
Si -1.08 10.10 -3.16
Si -1.08 10.10  3.16
Si -10.10 -1.08 -3.16
Si -10.10 -1.08  3.16
Si  1.44 -4.70 -9.92
Si  4.70  1.44 -9.92
Si  1.44 -4.70  9.92
Si  4.70  1.44  9.92
Si -4.70 -1.44 -9.92
Si -1.44  4.70 -9.92
Si -4.70 -1.44  9.92
Si -1.44  4.70  9.92
Si -8.00  1.44 -7.53
Si -8.00  1.44  7.53
Si  1.44  8.00 -7.53
Si  1.44  8.00  7.53
Si -1.44 -8.00 -7.53
Si -1.44 -8.00  7.53
Si  8.00 -1.44 -7.53
Si  8.00 -1.44  7.53
Si -1.03  2.53 -10.80
Si  2.53  1.03 -10.80
Si -2.53 -1.03 -10.80
Si  1.03 -2.53 -10.80
Si -1.03  2.53 10.80
Si  2.53  1.03 10.80
Si -2.53 -1.03 10.80
Si  1.03 -2.53 10.80
Si -7.43  3.75 -7.53
Si -3.75 -7.43 -7.53
Si -7.43  3.75  7.53
Si -3.75 -7.43  7.53
Si  3.75  7.43 -7.53
Si  7.43 -3.75 -7.53
Si  3.75  7.43  7.53
Si  7.43 -3.75  7.53
Si -0.69 -11.21  0.00
Si -11.21  0.69  0.00
Si 11.21 -0.69  0.00
Si  0.69 11.21  0.00
Si -7.85 -7.04  4.36
Si  7.04 -7.85  4.36
Si -7.04  7.85  4.36
Si  7.85  7.04  4.36
Si -7.85 -7.04 -4.36
Si  7.04 -7.85 -4.36
Si -7.04  7.85 -4.36
Si  7.85  7.04 -4.36
Si 10.10  1.08 -5.56
Si 10.10  1.08  5.56
Si  1.08 -10.10 -5.56
Si  1.08 -10.10  5.56
Si -1.08 10.10 -5.56
Si -1.08 10.10  5.56
Si -10.10 -1.08 -5.56
Si -10.10 -1.08  5.56
Si  8.95 -7.43 -1.20
Si -7.43 -8.95 -1.20
Si  8.95 -7.43  1.20
Si -7.43 -8.95  1.20
Si  7.43  8.95 -1.20
Si -8.95  7.43 -1.20
Si  7.43  8.95  1.20
Si -8.95  7.43  1.20
Si  7.38 -8.88  2.29
Si  8.88  7.38  2.29
Si -8.88 -7.38  2.29
Si -7.38  8.88  2.29
Si  7.38 -8.88 -2.29
Si  8.88  7.38 -2.29
Si -8.88 -7.38 -2.29
Si -7.38  8.88 -2.29
Si  3.75 -5.27 -9.93
Si -5.27 -3.75 -9.93
Si  3.75 -5.27  9.93
Si -5.27 -3.75  9.93
Si  5.27  3.75 -9.93
Si -3.75  5.27 -9.93
Si  5.27  3.75  9.93
Si -3.75  5.27  9.93
Si -12.01 -1.50  0.00
Si  1.50 -12.01  0.00
Si -1.50 12.01  0.00
Si 12.01  1.50  0.00
Si  2.53 -11.67 -2.07
Si -11.67 -2.53 -2.07
Si  2.53 -11.67  2.07
Si -11.67 -2.53  2.07
Si 11.67  2.53 -2.07
Si -2.53 11.67 -2.07
Si 11.67  2.53  2.07
Si -2.53 11.67  2.07
Si -8.88  5.32  6.43
Si  5.32  8.88  6.43
Si -5.32 -8.88  6.43
Si  8.88 -5.32  6.43
Si -8.88  5.32 -6.43
Si  5.32  8.88 -6.43
Si -5.32 -8.88 -6.43
Si  8.88 -5.32 -6.43
Si 10.18 -1.03 -6.66
Si  1.03 10.18 -6.66
Si 10.18 -1.03  6.66
Si -1.03 -10.18 -6.66
Si  1.03 10.18  6.66
Si -10.18  1.03 -6.66
Si -1.03 -10.18  6.66
Si -10.18  1.03  6.66
Si  1.08  2.60 -11.89
Si  1.08  2.60 11.89
Si -2.60  1.08 -11.89
Si -2.60  1.08 11.89
Si  2.60 -1.08 -11.89
Si  2.60 -1.08 11.89
Si -1.08 -2.60 -11.89
Si -1.08 -2.60 11.89
Si -4.70 11.26 -1.20
Si -4.70 11.26  1.20
Si 11.26  4.70 -1.20
Si 11.26  4.70  1.20
Si -11.26 -4.70 -1.20
Si -11.26 -4.70  1.20
Si  4.70 -11.26 -1.20
Si  4.70 -11.26  1.20
Si  2.60 11.62 -3.16
Si  2.60 11.62  3.16
Si 11.62 -2.60 -3.16
Si 11.62 -2.60  3.16
Si -11.62  2.60 -3.16
Si -11.62  2.60  3.16
Si -2.60 -11.62 -3.16
Si -2.60 -11.62  3.16
Si 11.05 -4.91 -3.17
Si 11.05 -4.91  3.17
Si  4.91 11.05 -3.17
Si  4.91 11.05  3.17
Si -4.91 -11.05 -3.17
Si -4.91 -11.05  3.17
Si -11.05  4.91 -3.17
Si -11.05  4.91  3.17
Si -6.35 -0.00 -10.91
Si -0.00 -6.35 -10.91
Si -0.00  6.35 -10.91
Si  6.35 -0.00 -10.91
Si  0.00 -6.35 10.91
Si -6.35  0.00 10.91
Si  6.35  0.00 10.91
Si  0.00  6.35 10.91
Si  5.32 -3.82 11.02
Si  3.82  5.32 11.02
Si -3.82 -5.32 11.02
Si -5.32  3.82 11.02
Si  5.32 -3.82 -11.02
Si  3.82  5.32 -11.02
Si -3.82 -5.32 -11.02
Si -5.32  3.82 -11.02
Si -5.27  8.95 -7.53
Si -8.95 -5.27 -7.53
Si -5.27  8.95  7.53
Si -8.95 -5.27  7.53
Si  8.95  5.27 -7.53
Si  5.27 -8.95 -7.53
Si  8.95  5.27  7.53
Si  5.27 -8.95  7.53
Si -8.00  1.44 -9.92
Si  1.44  8.00 -9.92
Si -8.00  1.44  9.92
Si  1.44  8.00  9.92
Si -1.44 -8.00 -9.92
Si  8.00 -1.44 -9.92
Si -1.44 -8.00  9.92
Si  8.00 -1.44  9.92
Si -7.43  3.75 -9.93
Si -3.75 -7.43 -9.93
Si -7.43  3.75  9.93
Si -3.75 -7.43  9.93
Si  3.75  7.43 -9.93
Si  7.43 -3.75 -9.93
Si  3.75  7.43  9.93
Si  7.43 -3.75  9.93
Si -4.91  1.65 -11.89
Si -4.91  1.65 11.89
Si -1.65 -4.91 -11.89
Si -1.65 -4.91 11.89
Si  1.65  4.91 -11.89
Si  1.65  4.91 11.89
Si  4.91 -1.65 -11.89
Si  4.91 -1.65 11.89
Si  2.60 11.62 -5.56
Si  2.60 11.62  5.56
Si 11.62 -2.60 -5.56
Si 11.62 -2.60  5.56
Si -11.62  2.60 -5.56
Si -11.62  2.60  5.56
Si -2.60 -11.62 -5.56
Si -2.60 -11.62  5.56
Si  7.38 -8.88  6.43
Si  8.88  7.38  6.43
Si -8.88 -7.38  6.43
Si -7.38  8.88  6.43
Si  7.38 -8.88 -6.43
Si  8.88  7.38 -6.43
Si -8.88 -7.38 -6.43
Si -7.38  8.88 -6.43
Si 11.05 -4.91 -5.56
Si 11.05 -4.91  5.56
Si  4.91 11.05 -5.56
Si  4.91 11.05  5.56
Si -4.91 -11.05 -5.56
Si -4.91 -11.05  5.56
Si -11.05  4.91 -5.56
Si -11.05  4.91  5.56
Si -1.50 -13.39  0.00
Si -13.39  1.50  0.00
Si 13.39 -1.50  0.00
Si  1.50 13.39  0.00
Si  2.53 -11.67 -6.66
Si -11.67 -2.53 -6.66
Si  2.53 -11.67  6.66
Si 11.67  2.53 -6.66
Si -11.67 -2.53  6.66
Si -2.53 11.67 -6.66
Si 11.67  2.53  6.66
Si -2.53 11.67  6.66
Si -3.82  7.38 11.02
Si  7.38  3.82 11.02
Si -7.38 -3.82 11.02
Si  3.82 -7.38 11.02
Si -3.82  7.38 -11.02
Si  7.38  3.82 -11.02
Si -7.38 -3.82 -11.02
Si  3.82 -7.38 -11.02
Si  8.95 -7.43 -7.53
Si -7.43 -8.95 -7.53
Si  8.95 -7.43  7.53
Si -7.43 -8.95  7.53
Si  7.43  8.95 -7.53
Si -8.95  7.43 -7.53
Si  7.43  8.95  7.53
Si -8.95  7.43  7.53
Si 11.26 -8.00 -1.20
Si 11.26 -8.00  1.20
Si  8.00 11.26 -1.20
Si  8.00 11.26  1.20
Si -8.00 -11.26 -1.20
Si -8.00 -11.26  1.20
Si -11.26  8.00 -1.20
Si -11.26  8.00  1.20
Si -7.79 11.05 -3.17
Si -7.79 11.05  3.17
Si -11.05 -7.79 -3.17
Si -11.05 -7.79  3.17
Si 11.05  7.79 -3.17
Si 11.05  7.79  3.17
Si  7.79 -11.05 -3.17
Si  7.79 -11.05  3.17
Si -13.73  2.53 -2.07
Si -2.53 -13.73 -2.07
Si -13.73  2.53  2.07
Si -2.53 -13.73  2.07
Si  2.53 13.73 -2.07
Si 13.73 -2.53 -2.07
Si  2.53 13.73  2.07
Si 13.73 -2.53  2.07
Si -14.20 -0.69  0.00
Si  0.69 -14.20  0.00
Si -0.69 14.20  0.00
Si 14.20  0.69  0.00
Si -0.69 -11.21 -8.73
Si -0.69 -11.21  8.73
Si -11.21  0.69 -8.73
Si -11.21  0.69  8.73
Si 11.21 -0.69  8.73
Si 11.21 -0.69 -8.73
Si  0.69 11.21  8.73
Si  0.69 11.21 -8.73
