500
set: 1631.00  0.00  0.00
Si -0.11 -1.07  0.46
Si  0.11  1.07 -0.46
Si -0.95 -0.98  2.67
Si  0.95  0.98 -2.67
Si  1.57  2.65  0.65
Si -1.57 -2.65 -0.65
Si  1.62 -2.76  0.65
Si -1.62  2.76 -0.65
Si -0.17  4.33  0.46
Si  0.17 -4.33 -0.46
Si -1.73  0.86  3.93
Si  1.73 -0.86 -3.93
Si  0.77 -1.62  4.12
Si -0.77  1.62 -4.12
Si -3.57  2.65  0.65
Si  3.57 -2.65 -0.65
Si -3.52 -2.76  0.65
Si  3.52  2.76 -0.65
Si  2.47 -2.67  2.87
Si -2.47  2.67 -2.87
Si  2.41  2.74  2.87
Si -2.41 -2.74 -2.87
Si -2.67 -2.67  2.87
Si  2.67  2.67 -2.87
Si -2.73  2.74  2.87
Si  2.73 -2.74 -2.87
Si  4.19 -0.98  2.67
Si -4.19  0.98 -2.67
Si  5.03 -1.07  0.46
Si -5.03  1.07 -0.46
Si -1.00  4.42  2.67
Si  1.00 -4.42 -2.67
Si  3.41  0.86  3.93
Si -3.41 -0.86 -3.93
Si -5.25 -1.07  0.46
Si  5.25  1.07 -0.46
Si  0.71  3.78  4.12
Si -0.71 -3.78 -4.12
Si -0.38  2.22  5.35
Si  0.38 -2.22 -5.35
Si  2.12 -0.27  5.54
Si -2.12  0.27 -5.54
Si -4.37 -1.62  4.12
Si  4.37  1.62 -4.12
Si -1.67 -4.54  3.93
Si  1.67  4.54 -3.93
Si -0.32 -3.19  5.35
Si  0.32  3.19 -5.35
Si -3.02 -0.27  5.54
Si  3.02  0.27 -5.54
Si -0.06 -6.48  0.46
Si  0.06  6.48 -0.46
Si  4.97  4.33  0.46
Si -4.97 -4.33 -0.46
Si  4.14  4.42  2.67
Si -4.14 -4.42 -2.67
Si -6.09 -0.98  2.67
Si  6.09  0.98 -2.67
Si  5.31 -4.33 -0.46
Si -5.31  4.33  0.46
Si  3.47 -4.54  3.93
Si -3.47  4.54 -3.93
Si -0.89 -6.39  2.67
Si  0.89  6.39 -2.67
Si  1.34  1.58  6.81
Si -1.34 -1.58 -6.81
Si -4.42  3.78  4.12
Si  4.42 -3.78 -4.12
Si -2.02 -2.15  6.60
Si  2.02  2.15 -6.60
Si  6.71  2.65  0.65
Si -6.71 -2.65 -0.65
Si  6.76 -2.76  0.65
Si -6.76  2.76 -0.65
Si  5.91 -1.62  4.12
Si -5.91  1.62 -4.12
Si  4.76  2.22  5.35
Si -4.76 -2.22 -5.35
Si  3.12 -2.15  6.60
Si -3.12  2.15 -6.60
Si -1.78  6.27  3.93
Si  1.78 -6.27 -3.93
Si -2.08  3.26  6.60
Si  2.08 -3.26 -6.60
Si  2.07  5.14  5.54
Si -2.07 -5.14 -5.54
Si  4.82 -3.19  5.35
Si -4.82  3.19 -5.35
Si  1.39 -3.83  6.81
Si -1.39  3.83 -6.81
Si -3.80  1.58  6.81
Si  3.80 -1.58 -6.81
Si -6.87  0.86  3.93
Si  6.87 -0.86 -3.93
Si  3.06  3.26  6.60
Si -3.06 -3.26 -6.60
Si -5.52  2.22  5.35
Si  5.52 -2.22 -5.35
Si -6.14  4.42  2.67
Si  6.14 -4.42 -2.67
Si  5.86  3.78  4.12
Si -5.86 -3.78 -4.12
Si  4.25 -6.39  2.67
Si -4.25  6.39 -2.67
Si  3.36  6.27  3.93
Si -3.36 -6.27 -3.93
Si -3.08  5.14  5.54
Si  3.08 -5.14 -5.54
Si  0.82 -7.03  4.12
Si -0.82  7.03 -4.12
Si  1.51  8.06  0.65
Si -1.51 -8.06 -0.65
Si  2.17 -5.68  5.54
Si -2.17  5.68 -5.54
Si  5.08 -6.48  0.46
Si -5.08  6.48 -0.46
Si -5.46 -3.19  5.35
Si  5.46  3.19 -5.35
Si -5.20 -6.48  0.46
Si  5.20  6.48 -0.46
Si  1.68 -8.17  0.65
Si -1.68  8.17 -0.65
Si -2.96 -5.68  5.54
Si  2.96  5.68 -5.54
Si  7.55  2.74  2.87
Si -7.55 -2.74 -2.87
Si  7.61 -2.67  2.87
Si -7.61  2.67 -2.87
Si -3.75 -3.83  6.81
Si  3.75  3.83 -6.81
Si -7.81 -2.67  2.87
Si  7.81  2.67 -2.87
Si -7.87  2.74  2.87
Si  7.87 -2.74 -2.87
Si  3.63 -8.06 -0.65
Si -3.63  8.06  0.65
Si -3.46 -8.17  0.65
Si  3.46  8.17 -0.65
Si  2.52 -8.07  2.87
Si -2.52  8.07 -2.87
Si  2.36  8.15  2.87
Si -2.36 -8.15 -2.87
Si -2.62 -8.07  2.87
Si  2.62  8.07 -2.87
Si -2.78  8.15  2.87
Si  2.78 -8.15 -2.87
Si -6.81 -4.54  3.93
Si  6.81  4.54 -3.93
Si -8.66 -2.76  0.65
Si  8.66  2.76 -0.65
Si -8.71  2.65  0.65
Si  8.71 -2.65 -0.65
Si -1.18 -2.06  8.82
Si  1.18  2.06 -8.82
Si  7.26 -0.27  5.54
Si -7.26  0.27 -5.54
Si  0.50  1.67  9.02
Si -0.50 -1.67 -9.02
Si -6.03 -6.39  2.67
Si  6.03  6.39 -2.67
Si -4.32 -7.03  4.12
Si  4.32  7.03 -4.12
Si -0.43  7.62  5.35
Si  0.43 -7.62 -5.35
Si  8.55  0.86  3.93
Si -8.55 -0.86 -3.93
Si -1.23  3.35  8.82
Si  1.23 -3.35 -8.82
Si  6.48  1.58  6.81
Si -6.48 -1.58 -6.81
Si  9.33 -0.98  2.67
Si -9.33  0.98 -2.67
Si  0.22 -9.74 -0.46
Si -0.22  9.74  0.46
Si  0.56 -3.74  9.02
Si -0.56  3.74 -9.02
Si  1.28  6.99  6.81
Si -1.28 -6.99 -6.81
Si -8.16 -0.27  5.54
Si  8.16  0.27 -5.54
Si  3.96 -2.06  8.82
Si -3.96  2.06 -8.82
Si  0.28 -0.48  9.93
Si -0.28  0.48 -9.93
Si -7.16 -2.15  6.60
Si  7.16  2.15 -6.60
Si  0.66  9.19  4.12
Si -0.66 -9.19 -4.12
Si  5.96 -7.03  4.12
Si -5.96  7.03 -4.12
Si -0.27 -8.60  5.35
Si  0.27  8.60 -5.35
Si -6.92  6.27  3.93
Si  6.92 -6.27 -3.93
Si  6.53 -3.83  6.81
Si -6.53  3.83 -6.81
Si  3.91  3.35  8.82
Si -3.91 -3.35 -8.82
Si -1.97 -7.56  6.60
Si  1.97  7.56 -6.60
Si 10.17 -1.07  0.46
Si -10.17  1.07 -0.46
Si -1.06  9.83  2.67
Si  1.06 -9.83 -2.67
Si -4.64  1.67  9.02
Si  4.64 -1.67 -9.02
Si -7.21  3.26  6.60
Si  7.21 -3.26 -6.60
Si  4.71  7.62  5.35
Si -4.71 -7.62 -5.35
Si  7.21  5.14  5.54
Si -7.21 -5.14 -5.54
Si -10.39 -1.07  0.46
Si 10.39  1.07 -0.46
Si  6.65  8.06  0.65
Si -6.65 -8.06 -0.65
Si -3.86  6.99  6.81
Si  3.86 -6.99 -6.81
Si -9.51 -1.62  4.12
Si  9.51  1.62 -4.12
Si  8.61 -4.54  3.93
Si -8.61  4.54 -3.93
Si  3.17 -7.56  6.60
Si -3.17  7.56 -6.60
Si  2.01 -2.17 10.12
Si -2.01  2.17 -10.12
Si  9.28  4.42  2.67
Si -9.28 -4.42 -2.67
Si  6.82 -8.17  0.65
Si -6.82  8.17 -0.65
Si  5.64  1.67  9.02
Si -5.64 -1.67 -9.02
Si -4.58 -3.74  9.02
Si  4.58  3.74 -9.02
Si  8.26 -2.15  6.60
Si -8.26  2.15 -6.60
Si  7.32 -5.68  5.54
Si -7.32  5.68 -5.54
Si  1.96  3.24 10.12
Si -1.96 -3.24 -10.12
Si -3.13 -2.17 10.12
Si  3.13  2.17 -10.12
Si -1.62 -9.95  3.93
Si  1.62  9.95 -3.93
Si -5.57  7.62  5.35
Si  5.57 -7.62 -5.35
Si -4.92 -9.74 -0.46
Si  4.92  9.74  0.46
Si  4.08  9.83  2.67
Si -4.08 -9.83 -2.67
Si 10.12  4.33  0.46
Si -10.12 -4.33 -0.46
Si  8.21  3.26  6.60
Si -8.21 -3.26 -6.60
Si -4.48  9.19  4.12
Si  4.48 -9.19 -4.12
Si -6.32 -2.06  8.82
Si  6.32  2.06 -8.82
Si -4.86 -0.48  9.93
Si  4.86  0.48 -9.93
Si -9.57  3.78  4.12
Si  9.57 -3.78 -4.12
Si  0.23  4.93  9.93
Si -0.23 -4.93 -9.93
Si -3.18  3.24 10.12
Si  3.18 -3.24 -10.12
Si -2.13  8.67  6.60
Si  2.13 -8.67 -6.60
Si  5.36 -9.74 -0.46
Si -5.36  9.74  0.46
Si -8.21  5.14  5.54
Si  8.21 -5.14 -5.54
Si  4.87 -8.60  5.35
Si -4.87  8.60 -5.35
Si  3.52 -9.95  3.93
Si -3.52  9.95 -3.93
Si  8.50  6.27  3.93
Si -8.50 -6.27 -3.93
Si  3.01  8.67  6.60
Si -3.01 -8.67 -6.60
Si  5.70 -3.74  9.02
Si -5.70  3.74 -9.02
Si 10.45 -4.33 -0.46
Si -10.45  4.33  0.46
Si  5.42 -0.48  9.93
Si -5.42  0.48 -9.93
Si -8.11 -5.68  5.54
Si  8.11  5.68 -5.54
Si -8.94  1.58  6.81
Si  8.94 -1.58 -6.81
Si -6.37  3.35  8.82
Si  6.37 -3.35 -8.82
Si  7.50  8.15  2.87
Si -7.50 -8.15 -2.87
Si  0.45  7.07  9.02
Si -0.45 -7.07 -9.02
Si  9.90  2.22  5.35
Si -9.90 -2.22 -5.35
Si -5.41 -8.60  5.35
Si  5.41  8.60 -5.35
Si  7.66 -8.07  2.87
Si -7.66  8.07 -2.87
Si  0.34 -5.89  9.93
Si -0.34  5.89 -9.93
Si -7.76 -8.07  2.87
Si  7.76  8.07 -2.87
Si  1.45 -9.24  6.81
Si -1.45  9.24 -6.81
Si -11.23 -0.98  2.67
Si 11.23  0.98 -2.67
Si -1.12 -7.46  8.82
Si  1.12  7.46 -8.82
Si  5.80  9.19  4.12
Si -5.80 -9.19 -4.12
Si  9.39 -6.39  2.67
Si -9.39  6.39 -2.67
Si  6.42  6.99  6.81
Si -6.42 -6.99 -6.81
Si -7.92  8.15  2.87
Si  7.92 -8.15 -2.87
Si  9.96 -3.19  5.35
Si -9.96  3.19 -5.35
Si -8.89 -3.83  6.81
Si  8.89  3.83 -6.81
Si -8.60 -8.17  0.65
Si  8.60  8.17 -0.65
Si -0.00 -11.89  0.46
Si  0.00 11.89 -0.46
Si 11.05 -1.62  4.12
Si -11.05  1.62 -4.12
Si -6.20  9.83  2.67
Si  6.20 -9.83 -2.67
Si  8.77 -8.06 -0.65
Si -8.77  8.06  0.65
Si -3.69 -9.24  6.81
Si  3.69  9.24 -6.81
Si  2.01 10.54  5.54
Si -2.01 -10.54 -5.54
Si 10.22 -6.48  0.46
Si -10.22  6.48 -0.46
Si -4.92  4.93  9.93
Si  4.92 -4.93 -9.93
Si -0.84 -11.80  2.67
Si  0.84 11.80 -2.67
Si -10.66  2.22  5.35
Si 10.66 -2.22 -5.35
Si -0.56 -0.39 12.14
Si  0.56  0.39 -12.14
Si 11.85  2.65  0.65
Si -11.85 -2.65 -0.65
Si -10.34 -6.48  0.46
Si 10.34  6.48 -0.46
Si 11.90 -2.76  0.65
Si -11.90  2.76 -0.65
Si  4.02 -7.46  8.82
Si -4.02  7.46 -8.82
Si -7.11 -7.56  6.60
Si  7.11  7.56 -6.60
Si -10.60 -3.19  5.35
Si 10.60  3.19 -5.35
Si  5.37  4.93  9.93
Si -5.37 -4.93 -9.93
Si -3.13 10.54  5.54
Si  3.13 -10.54 -5.54
Si 11.00  3.78  4.12
Si -11.00 -3.78 -4.12
Si -4.69  7.07  9.02
Si  4.69 -7.07 -9.02
Si -11.28  4.42  2.67
Si 11.28 -4.42 -2.67
Si -1.84 11.68  3.93
Si  1.84 -11.68 -3.93
Si -9.46 -7.03  4.12
Si  9.46  7.03 -4.12
Si -1.28  8.76  8.82
Si  1.28 -8.76 -8.82
Si -4.80 -5.89  9.93
Si  4.80  5.89 -9.93
Si  7.15 -2.17 10.12
Si -7.15  2.17 -10.12
Si  2.23 -11.09  5.54
Si -2.23 11.09 -5.54
Si -6.76 -9.95  3.93
Si  6.76  9.95 -3.93
Si -12.01  0.86  3.93
Si 12.01 -0.86 -3.93
Si -2.28 -2.07 12.35
Si  2.28  2.07 -12.35
Si -2.91 -11.09  5.54
Si  2.91 11.09 -5.54
Si  5.59  7.07  9.02
Si -5.59 -7.07 -9.02
Si  3.30 11.68  3.93
Si -3.30 -11.68 -3.93
Si  5.48 -5.89  9.93
Si -5.48  5.89 -9.93
Si  7.10  3.24 10.12
Si -7.10 -3.24 -10.12
Si  2.07 -7.57 10.12
Si -2.07  7.57 -10.12
Si  2.86 -2.07 12.35
Si -2.86  2.07 -12.35
Si  4.30 -11.80  2.67
Si -4.30 11.80 -2.67
Si  9.11 -2.06  8.82
Si -9.11  2.06 -8.82
Si  0.61 -9.15  9.02
Si -0.61  9.15 -9.02
Si  5.14 -11.89  0.46
Si -5.14 11.89 -0.46
Si -5.14 -11.89  0.46
Si  5.14 11.89 -0.46
Si  4.58 -0.39 12.14
Si -4.58  0.39 -12.14
Si -2.34  3.34 12.35
Si  2.34 -3.34 -12.35
Si -3.07 -7.57 10.12
Si  3.07  7.57 -10.12
Si  3.85  8.76  8.82
Si -3.85 -8.76 -8.82
Si  8.32 -7.56  6.60
Si -8.32  7.56 -6.60
Si  9.05  3.35  8.82
Si -9.05 -3.35 -8.82
Si  2.80  3.34 12.35
Si -2.80 -3.34 -12.35
Si -7.27  8.67  6.60
Si  7.27 -8.67 -6.60
Si  0.88 -12.44  4.12
Si -0.88 12.44 -4.12
Si -6.26 -7.46  8.82
Si  6.26  7.46 -8.82
Si -11.17 -6.39  2.67
Si 11.17  6.39 -2.67
Si -0.61  5.02 12.14
Si  0.61 -5.02 -12.14
Si  6.59 -9.24  6.81
Si -6.59  9.24 -6.81
Si -8.27 -2.17 10.12
Si  8.27  2.17 -10.12
Si -9.00  6.99  6.81
Si  9.00 -6.99 -6.81
Si 12.69  2.74  2.87
Si -12.69 -2.74 -2.87
Si 12.75 -2.67  2.87
Si -12.75  2.67 -2.87
Si -11.96 -4.54  3.93
Si 11.96  4.54 -3.93
Si -9.78  1.67  9.02
Si  9.78 -1.67 -9.02
Si -5.70 -0.39 12.14
Si  5.70  0.39 -12.14
Si  1.90  8.65 10.12
Si -1.90 -8.65 -10.12
Si -0.50 -5.80 12.14
Si  0.50  5.80 -12.14
Si -5.98 -11.80  2.67
Si  5.98 11.80 -2.67
Si -8.32  3.24 10.12
Si  8.32 -3.24 -10.12
Si -12.95 -2.67  2.87
Si 12.95  2.67 -2.87
Si -1.34  1.46 13.41
Si  1.34 -1.46 -13.41
Si  9.85  7.62  5.35
Si -9.85 -7.62 -5.35
Si 11.62  1.58  6.81
Si -11.62 -1.58 -6.81
Si -1.46 -13.47 -0.65
Si  1.46 13.47  0.65
Si 12.40 -0.27  5.54
Si -12.40  0.27 -5.54
Si -13.01  2.74  2.87
Si 13.01 -2.74 -2.87
Si  8.15  8.67  6.60
Si -8.15 -8.67 -6.60
Si -4.53 -9.15  9.02
Si  4.53  9.15 -9.02
Si  1.16 -1.03 13.59
Si -1.16  1.03 -13.59
Si  1.73 -13.57  0.65
Si -1.73 13.57 -0.65
Si -3.24  8.65 10.12
Si  3.24 -8.65 -10.12
Si  9.22  9.83  2.67
Si -9.22 -9.83 -2.67
Si  8.66 -9.95  3.93
Si -8.66  9.95 -3.93
Si 11.11 -7.03  4.12
Si -11.11  7.03 -4.12
Si -9.72 -3.74  9.02
Si  9.72  3.74 -9.02
Si -4.26 -12.44  4.12
Si  4.26 12.44 -4.12
Si  4.53  5.02 12.14
Si -4.53 -5.02 -12.14
Si  7.15 10.54  5.54
Si -7.15 -10.54 -5.54
Si -9.62  9.19  4.12
Si  9.62 -9.19 -4.12
