500
set: 323.00  0.00  0.00
Si -0.01 -0.06 -0.00
Si -1.89  1.00  0.69
Si -0.03 -0.01 -2.30
Si  1.88  1.10  0.82
Si  0.02 -2.25  0.80
Si -1.87  3.19 -0.00
Si  3.75 -0.06 -0.03
Si -1.89  1.19  3.03
Si -1.92 -1.06 -3.07
Si  0.04  2.19 -3.07
Si -1.87 -3.28 -0.04
Si  1.92  3.28 -0.04
Si  0.04 -2.18  3.12
Si  1.87  1.12  3.12
Si  1.90 -0.99 -3.16
Si -3.83 -0.06 -0.03
Si  1.92 -3.37 -0.00
Si  3.72  0.08 -2.29
Si  1.92 -3.21 -2.31
Si -1.87 -3.23 -2.34
Si  3.74 -2.20  0.80
Si -1.87 -1.03  3.87
Si  1.92 -1.04  3.85
Si -0.05  4.36  0.80
Si -1.87  3.35 -2.31
Si -3.85  0.08 -2.29
Si -3.84 -2.20  0.80
Si  1.92  3.33 -2.34
Si -0.06  2.27  3.89
Si -3.71  2.23 -3.06
Si -3.71 -2.14  3.12
Si  0.08 -4.33 -3.06
Si  0.08  4.42  3.12
Si  3.87  2.23 -3.06
Si  3.87 -2.14  3.12
Si -3.77  4.31  0.80
Si  0.02  2.12 -5.39
Si -1.91 -1.09 -5.37
Si  3.80  4.31  0.80
Si  5.68  1.00  0.69
Si  3.76  2.18  3.88
Si -1.91 -5.46  0.82
Si -0.03 -4.38  3.88
Si -5.70  1.10  0.82
Si -3.81  2.18  3.88
Si  1.89 -5.56  0.69
Si  1.89 -1.19 -5.49
Si  1.90 -5.37  3.03
Si -0.04  6.50 -0.03
Si -0.04  2.12  6.16
Si -3.75 -4.37 -3.07
Si  5.66 -1.06 -3.07
Si  1.92 -1.09  6.14
Si  5.71  3.19 -0.00
Si -5.66  3.28 -0.04
Si  5.68  1.19  3.03
Si -1.92 -5.43  3.12
Si  1.92  1.01 -6.18
Si -3.75  4.38  3.12
Si  3.82 -4.37 -3.07
Si  1.87  5.50 -3.07
Si -1.87 -1.18  6.18
Si -5.68 -0.99 -3.16
Si  5.70 -3.28 -0.04
Si -5.66 -3.37 -0.00
Si -1.87  1.09 -6.22
Si -5.70  1.12  3.12
Si  3.82  4.38  3.12
Si -0.04 -2.25 -6.21
Si -0.04 -6.62 -0.03
Si -1.89  5.57 -3.16
Si -0.06 -6.48 -2.29
Si  3.72 -4.29  3.89
Si  3.74  2.18 -5.38
Si -5.66 -3.21 -2.31
Si -5.66 -1.04  3.85
Si -0.05 -4.38 -5.38
Si  5.70 -3.23 -2.34
Si -3.85 -4.29  3.89
Si -3.84  2.18 -5.38
Si  5.70 -1.03  3.87
Si -5.66  3.33 -2.34
Si -1.87  5.52  3.85
Si -0.05 -0.01  6.99
Si  5.70  3.35 -2.31
Si  1.92  5.53  3.87
Si -0.06  6.64 -2.29
Si  3.78  6.50 -0.00
Si -3.79  6.50 -0.00
Si -0.01  4.31 -6.19
Si  3.78  2.13  6.18
Si -3.79  2.13  6.18
Si  7.57 -0.06 -0.00
Si -7.58 -0.06 -0.00
Si  3.78 -2.25 -6.19
Si -3.79 -2.25 -6.19
Si -0.01 -4.43  6.18
Si  3.78 -6.62 -0.00
Si -3.79 -6.62 -0.00
Si  1.89  3.19  6.88
Si  1.89  7.56  0.69
Si  5.67 -1.09 -5.37
Si  1.88  5.47 -5.37
Si  7.55 -0.01 -2.30
Si -1.89 -3.37  6.88
Si  3.76  6.55 -2.30
Si  5.67 -5.46  0.82
Si -1.89  5.37 -5.49
Si  3.76 -6.57 -2.30
Si -3.81  6.55 -2.30
Si -7.56 -2.25  0.80
Si -3.77 -0.07  6.98
Si -1.91  7.66  0.82
Si -3.81 -6.57 -2.30
Si -3.77 -4.44 -5.39
Si -7.60 -0.01 -2.30
Si  3.80 -0.07  6.98
Si  3.80 -4.44 -5.39
Si  1.88 -3.27  7.00
Si  7.59 -2.25  0.80
Si -1.91  3.29  7.00
Si -5.68 -5.56  0.69
Si -5.68 -1.19 -5.49
Si -5.68 -5.37  3.03
Si -1.89 -7.55 -3.16
Si  1.92  5.38  6.18
Si -5.66 -1.09  6.14
Si  1.87 -7.62 -3.07
Si -7.54  2.19 -3.07
Si -1.87  5.46  6.14
Si  3.75  4.31 -6.21
Si -5.66  1.01 -6.18
Si  5.66 -5.43  3.12
Si -7.54 -2.18  3.12
Si  3.75 -4.44  6.16
Si -3.83  4.31 -6.21
Si  7.61  2.19 -3.07
Si -5.70  5.50 -3.07
Si  5.71 -1.18  6.18
Si -3.83 -4.44  6.16
Si  1.92 -5.47 -6.22
Si  7.61 -2.18  3.12
Si -1.92  7.68  3.12
Si  5.70  1.09 -6.22
Si -1.87 -5.55 -6.18
Si  1.90  7.75  3.03
Si  5.68  5.57 -3.16
Si -1.87 -7.60  3.85
Si  1.92 -7.59  3.87
Si -0.06 -2.10 -8.48
Si  7.52  4.36  0.80
Si  7.51  2.27  3.89
Si  1.92  1.16 -8.50
Si -0.05 -8.76  0.80
Si -1.87  1.15 -8.52
Si -5.66  5.53  3.87
Si  5.70  5.52  3.85
Si -7.63  4.36  0.80
Si -7.64  2.27  3.89
Si -7.50 -4.33 -3.06
Si -7.50  4.42  3.12
Si  0.08  0.04 -9.24
Si  0.08 -8.70  3.12
Si  0.08  8.79 -3.06
Si  0.08  0.04  9.31
Si  7.65 -4.33 -3.06
Si  7.65  4.42  3.12
Si -5.68  3.19  6.88
Si -5.68  7.56  0.69
Si -7.56  2.12 -5.39
Si  1.88 -7.65 -5.37
Si  0.02  6.49  6.98
Si  3.76 -2.20 -8.48
Si  5.68 -3.37  6.88
Si -0.03  4.36 -8.48
Si -9.47  1.00  0.69
Si  7.59  2.12 -5.39
Si -5.70  5.47 -5.37
Si  9.45  1.10  0.82
Si  5.68  5.37 -5.49
Si  7.55 -4.38  3.88
Si -3.81 -2.20 -8.48
Si  5.67  7.66  0.82
Si -0.03  8.74  3.88
Si  5.67  3.29  7.00
Si -7.60 -4.38  3.88
Si -5.70 -3.27  7.00
Si -3.77 -8.81  0.80
Si  0.02 -6.63  6.98
Si  3.80 -8.81  0.80
Si -1.90 -7.75 -5.49
Si -1.89 -3.18  9.21
Si  1.92  9.75 -0.00
Si -1.87  7.57 -6.18
Si  7.54  6.50 -0.03
Si -5.66  5.38  6.18
Si  7.54  2.12  6.16
Si  5.68 -7.55 -3.16
Si -9.44  3.19 -0.00
Si  1.87 -3.25 -9.25
Si -3.75  0.01 -9.25
Si -1.87 -7.66  6.14
Si  1.90  3.38  9.21
Si -9.45 -3.28 -0.04
Si -5.71 -7.62 -3.07
Si -3.75 -8.74  3.12
Si -3.75  8.75 -3.07
Si  5.70  5.46  6.14
Si -7.61  6.50 -0.03
Si -9.46  1.19  3.03
Si  9.45  1.12  3.12
Si  3.82  0.01 -9.25
Si -1.92  3.31 -9.25
Si -1.87  9.84 -0.04
Si -7.61  2.12  6.16
Si  7.54 -2.25 -6.21
Si  1.92 -9.84 -0.04
Si  1.87 -3.25  9.30
Si -3.75  0.01  9.30
Si -9.49 -1.06 -3.07
Si  7.54 -6.62 -0.03
Si  3.82 -8.74  3.12
Si  3.82  8.75 -3.07
Si  9.47 -0.99 -3.16
Si -5.66 -5.47 -6.22
Si  5.66  7.68  3.12
Si  9.49  3.28 -0.04
Si  1.92  7.65 -6.22
Si -1.89 -3.18 -9.34
Si  3.82  0.01  9.30
Si -1.92  3.31  9.30
Si  9.49 -3.37 -0.00
Si -5.68  7.75  3.03
Si  5.71 -5.55 -6.18
Si -7.62 -2.25 -6.21
Si  1.92 -7.74  6.18
Si -7.62 -6.62 -0.03
Si -1.87 -9.93 -0.00
Si  1.90  3.38 -9.34
Si  7.51 -6.48 -2.29
Si -1.87 -9.77 -2.31
Si -5.66 -7.59  3.87
Si  7.52 -4.38 -5.38
Si  1.92 -9.79 -2.34
Si -1.87 -5.40 -8.50
Si  5.70 -7.60  3.85
Si -9.45 -3.23 -2.34
Si -9.45 -1.03  3.87
Si -0.05  8.74 -5.38
Si  7.52 -0.01  6.99
Si -1.87  1.15 10.03
Si -7.64 -6.48 -2.29
Si  1.92 -5.41 -8.52
Si  3.72  4.46 -8.48
Si -5.66  1.16 -8.50
Si  3.74  6.55  6.99
Si -9.45  3.35 -2.31
Si  9.49 -3.21 -2.31
Si  7.51  6.64 -2.29
Si  3.74 -6.57  6.99
Si  9.49 -1.04  3.85
Si -0.06 -2.10 10.08
Si  1.92  1.16 10.05
Si -7.63 -4.38 -5.38
Si  5.70  1.15 -8.52
Si -3.84  6.55  6.99
Si -3.85  4.46 -8.48
Si  9.49  3.33 -2.34
Si -3.84 -6.57  6.99
Si -1.87  9.89 -2.34
Si -7.63 -0.01  6.99
Si  3.72  8.83  3.89
Si  1.92  9.90 -2.31
Si -7.64  6.64 -2.29
Si -3.85  8.83  3.89
Si -0.00  8.69  6.18
Si  7.57  4.31 -6.19
Si -7.58  4.31 -6.19
Si  7.57 -4.43  6.18
Si -7.58 -4.43  6.18
Si -0.01 -8.80 -6.19
Si -3.77  8.68 -5.39
Si  0.02 10.87  0.80
Si  3.80  8.68 -5.39
Si -5.70 -7.65 -5.37
Si -9.48 -1.09 -5.37
Si  3.76 -2.19 10.07
Si -0.03  4.37 10.07
Si -9.48 -5.46  0.82
Si -3.81 -2.19 10.07
Si  9.47 -5.56  0.69
Si  9.47 -1.19 -5.49
Si  5.68 -7.75 -5.49
Si -5.66  9.75 -0.00
Si  5.68 -3.18  9.21
Si  3.75  8.68  6.16
Si  9.47 -5.37  3.03
Si -3.83  8.68  6.16
Si  5.71  7.57 -6.18
Si 11.32 -0.06 -0.03
Si -5.68  3.38  9.21
Si  0.03 -6.55 -9.25
Si  5.66  3.31 -9.25
Si -5.71 -3.25 -9.25
Si  0.04  6.57 -9.25
Si  0.03 -10.92 -3.07
Si -9.44 -1.18  6.18
Si  9.45  5.50 -3.07
Si  5.70 -7.66  6.14
Si -5.66 -9.84 -0.04
Si  9.49 -1.09  6.14
Si -9.45  1.09 -6.22
Si -5.66  7.65 -6.22
Si  5.70  9.84 -0.04
Si -9.49 -5.43  3.12
Si  9.49  1.01 -6.18
Si  0.04 -6.55  9.30
Si  0.04 10.94  3.12
Si  5.66  3.31  9.30
Si -5.70 -3.25  9.30
Si  0.04  6.57  9.30
Si  5.68 -3.18 -9.34
Si -11.40 -0.06 -0.03
Si -5.66 -7.74  6.18
Si  3.75 -8.81 -6.21
Si -9.46  5.57 -3.16
Si -3.83 -8.81 -6.21
Si -5.68  3.38 -9.34
Si  5.71 -9.93 -0.00
Si  7.51 -2.10 -8.48
Si -0.06 -10.85  3.89
Si 11.30  0.08 -2.29
Si -5.66 -9.79 -2.34
Si  5.70 -9.77 -2.31
Si 11.31 -2.20  0.80
Si  1.92 -5.41 10.03
Si -1.87 -5.40 10.05
Si -0.05 -0.01 -11.57
Si  7.52 -8.76  0.80
Si  3.74 10.92  0.80
Si  5.70 -5.40 -8.50
Si -5.66 -5.41 -8.52
Si -5.66  1.16 10.05
Si  5.70  1.15 10.03
Si -9.45  5.52  3.85
Si -7.64 -2.10 -8.48
Si -3.84 10.92  0.80
Si  3.72  4.46 10.08
Si -1.87  7.72 -8.50
Si -7.63 -8.76  0.80
Si -5.66  9.90 -2.31
Si  1.92  7.71 -8.52
Si  9.49  5.53  3.87
Si -11.41 -2.20  0.80
Si -11.43  0.08 -2.29
Si  5.70  9.89 -2.34
Si -3.85  4.46 10.08
Si -7.50  0.04 -9.24
Si -11.28  2.23 -3.06
Si -11.28 -2.14  3.12
Si -3.71 -6.52 -9.24
Si -7.50 -8.70  3.12
Si -3.71 -10.89 -3.06
Si -3.71  6.60 -9.24
Si -7.50  8.79 -3.06
Si -7.50  0.04  9.31
Si  3.87 -6.52 -9.24
Si -3.71 -6.52  9.31
Si  3.87 -10.89 -3.06
Si -3.71 10.97  3.12
Si  3.87  6.60 -9.24
Si -3.71  6.60  9.31
Si  7.65  0.04 -9.24
Si  3.87 -6.52  9.31
Si  7.65 -8.70  3.12
Si  3.87 10.97  3.12
Si  7.65  8.79 -3.06
Si  3.87  6.60  9.31
Si 11.44  2.23 -3.06
Si  7.65  0.04  9.31
Si 11.44 -2.14  3.12
Si -1.89  9.74  6.88
Si  9.47  3.19  6.88
Si  9.47  7.56  0.69
Si  1.88 -3.27 -11.55
Si -1.91  3.29 -11.55
Si -11.35  4.31  0.80
Si -7.56  6.49  6.98
Si  7.55  4.36 -8.48
Si  9.45  5.47 -5.37
Si -3.77 -0.07 -11.57
Si 11.34  2.18  3.88
Si -9.47 -3.37  6.88
Si  3.80 -0.07 -11.57
Si  7.55  8.74  3.88
Si  7.59  6.49  6.98
Si -0.03 -8.76 -8.48
Si -9.47  5.37 -5.49
Si 11.38  4.31  0.80
Si  1.88 -12.02  0.82
Si -7.60  4.36 -8.48
Si  3.76 -10.94  3.88
Si  9.45 -3.27  7.00
Si -7.60  8.74  3.88
Si -9.48  7.66  0.82
Si -3.81 -10.94  3.88
Si -1.91 -9.83  7.00
Si  1.88  9.85  7.00
Si -11.39  2.18  3.88
Si  1.89 -9.93  6.88
Si -7.56 -6.63  6.98
Si -9.48  3.29  7.00
Si  1.89  3.19 -11.67
Si  0.02 -11.00 -5.39
Si  7.59 -6.63  6.98
Si -1.90 -12.12  0.69
Si -1.90 -3.38 -11.67
Si -1.89 -11.92  3.03
Si -9.47 -7.55 -3.16
Si -1.87  1.09 12.33
Si  9.45 -7.62 -3.07
Si -0.04 10.87 -6.21
Si -11.33 -4.37 -3.07
Si -9.45  5.46  6.14
Si  1.87 -11.99  3.12
Si -11.33  4.38  3.12
Si  9.49  5.38  6.18
Si -0.04 -2.25 12.34
Si  1.92  1.01 12.37
Si -1.87 -1.18 -12.37
Si -0.04  2.12 -12.40
Si -9.44 -5.55 -6.18
Si 11.40 -4.37 -3.07
Si -1.92 12.06 -3.07
Si  9.49 -5.47 -6.22
Si -0.04 -11.00  6.16
Si 11.40  4.38  3.12
Si -9.49  7.68  3.12
Si  1.92 -1.10 -12.41
Si  9.47  7.75  3.03
Si  1.90 12.13 -3.16
Si  3.72 -8.66 -8.48
Si 11.30 -4.29  3.89
Si 11.31  2.18 -5.38
Si -3.85 -8.66 -8.48
Si -9.45 -7.60  3.85
Si  7.52  8.74 -5.38
Si -5.66 -5.41 10.03
Si  7.51 -2.10 10.08
Si  9.49 -7.59  3.87
Si  3.74 -10.94 -5.38
Si  5.70 -5.40 10.05
Si -9.45  1.15 -8.52
Si -7.63  8.74 -5.38
Si -3.84 -10.94 -5.38
Si  9.49  1.16 -8.50
Si  1.92  7.71 10.03
Si -11.41  2.18 -5.38
Si -5.66  7.71 -8.52
Si -11.43 -4.29  3.89
Si -1.87  7.72 10.05
Si -7.64 -2.10 10.08
Si  5.70  7.72 -8.50
Si  1.92 12.08  3.85
Si -1.87 12.09  3.87
Si -0.00 13.06 -0.00
Si  3.78 10.87 -6.19
Si -3.79 10.87 -6.19
Si  7.57  8.69  6.18
Si -7.58  8.69  6.18
Si 11.36  6.50 -0.00
Si -11.37  6.50 -0.00
Si -0.00  4.32 12.37
Si 11.36  2.13  6.18
Si  3.78  2.13 -12.37
Si -3.79  2.13 -12.37
Si -11.37  2.13  6.18
Si  3.78 -2.24 12.37
Si 11.36 -2.25 -6.19
Si -3.79 -2.24 12.37
Si -11.37 -2.25 -6.19
Si -0.01 -4.43 -12.37
Si 11.36 -6.62 -0.00
Si -11.37 -6.62 -0.00
Si  7.57 -8.80 -6.19
Si -7.58 -8.80 -6.19
Si  3.78 -10.99  6.18
Si -3.79 -10.99  6.18
Si -0.01 -13.18 -0.00
Si  5.68  9.74  6.88
Si  1.89 -1.19 13.06
Si -7.56 10.87  0.80
Si  1.89 11.93 -5.49
Si  0.02  6.49 -11.57
Si  5.67  3.29 -11.55
Si  7.59 10.87  0.80
Si -5.70 -3.27 -11.55
Si  9.45 -7.65 -5.37
Si 11.34  6.55 -2.30
Si 11.34 -6.57 -2.30
