500
set: 208.00  0.00  0.00
Si  0.02 -0.00  0.00
Si -0.02 -2.12  0.75
Si  1.82  1.12  0.75
Si -1.87  1.07  0.73
Si  0.04 -0.01 -2.30
Si  3.67 -0.00  0.04
Si  1.86 -3.19  0.02
Si -1.84 -1.05 -3.03
Si -1.85  1.06  3.03
Si -1.85 -3.21 -0.02
Si -0.00  2.17 -3.01
Si -1.85  3.23 -0.01
Si  0.01 -2.14  3.06
Si  1.86  3.24 -0.01
Si  1.89  1.08  3.04
Si -3.75 -0.02  0.08
Si  1.85 -1.12 -3.07
Si -1.86 -1.07  3.75
Si  1.84 -1.05  3.79
Si -3.70 -0.03 -2.27
Si  0.00  4.28  0.75
Si -0.00  2.13  3.80
Si  1.88  3.20 -2.27
Si -3.71 -2.16  0.74
Si  3.73 -0.04 -2.25
Si -1.88 -3.21 -2.28
Si -1.86  3.24 -2.26
Si  1.89 -3.25 -2.29
Si  3.75 -2.18  0.76
Si -0.03 -4.29 -3.01
Si -3.73  2.13 -3.03
Si  0.02  4.28  3.06
Si  3.71 -2.17  3.04
Si  3.72  2.17 -3.04
Si -3.73 -2.18  3.03
Si  5.55  1.07  0.72
Si -3.71  2.15  3.77
Si  0.02  2.15 -5.30
Si -1.85 -5.37  0.73
Si -3.74  4.27  0.77
Si  3.69  2.15  3.82
Si -1.90 -1.07 -5.31
Si  3.74  4.31  0.73
Si  0.02 -4.30  3.82
Si  1.85 -5.41  0.77
Si  1.88 -1.07 -5.35
Si -5.63  1.07  0.72
Si  1.81  1.09 -6.06
Si  5.56  1.09  3.02
Si -5.57 -3.20  0.01
Si -0.01 -6.43 -0.02
Si  1.83  5.36 -3.04
Si -5.56 -1.06 -3.06
Si  1.81 -5.37  3.07
Si  0.03  2.16  6.07
Si -1.85 -1.07  6.08
Si  3.74  4.29  3.03
Si  5.60 -3.20  0.01
Si  1.83 -1.09  6.09
Si -1.85 -5.38  3.03
Si -1.85  5.38 -3.05
Si -1.85  1.07 -6.09
Si  5.58  3.25 -0.02
Si  3.73 -4.30 -3.05
Si -5.61  1.09  3.02
Si -0.03 -2.14 -6.11
Si -5.60  3.25 -0.02
Si -3.76 -4.32 -3.04
Si  0.01  6.48  0.01
Si  5.62 -1.06 -3.06
Si -3.78  4.31  3.07
Si -5.55 -3.21 -2.25
Si -5.56 -1.05  3.79
Si -3.71  2.14 -5.29
Si  3.71 -4.27  3.80
Si  3.71  2.18 -5.32
Si  0.03 -4.28 -5.34
Si -5.59  3.21 -2.31
Si  5.59  3.21 -2.31
Si  0.04  6.47 -2.25
Si  5.62 -1.05  3.79
Si  1.87  5.36  3.83
Si  5.63 -3.21 -2.25
Si  0.00 -6.47 -2.31
Si -3.71 -4.32  3.83
Si -1.88  5.41  3.80
Si  0.04  0.01  6.87
Si -3.73  2.11  6.05
Si  7.43 -0.02  0.08
Si -3.70 -2.15 -6.08
Si -3.72 -6.44 -0.01
Si  0.01  4.31 -6.07
Si  3.73 -6.45 -0.01
Si -0.00 -4.28  6.12
Si  3.74  6.46 -0.02
Si  3.74 -2.17 -6.09
Si  3.75  2.17  6.10
Si -3.73  6.49  0.02
Si -7.50 -0.00  0.04
Si -1.84  7.50  0.76
Si -3.70  6.43 -2.29
Si -3.70 -0.02  6.83
Si  3.73 -6.44 -2.26
Si -7.42 -2.18  0.76
Si -7.45 -0.04 -2.25
Si  3.71  0.01  6.85
Si  1.88  7.52  0.74
Si  1.89  3.20  6.85
Si  3.71  6.47 -2.28
Si  5.59 -1.10 -5.33
Si -5.59 -1.10 -5.33
Si -3.71 -6.48 -2.27
Si -1.86  3.19  6.87
Si -1.86 -3.21  6.86
Si -3.75 -4.28 -5.34
Si -5.59 -5.40  0.75
Si  5.59 -5.40  0.75
Si  7.47 -2.16  0.74
Si  7.47 -0.03 -2.27
Si  1.88 -3.25  6.85
Si  1.84  5.40 -5.34
Si  3.73 -4.29 -5.38
Si -1.86  5.38 -5.38
Si  1.86  7.50  3.03
Si -5.57  1.05 -6.07
Si -1.87 -7.51 -3.04
Si  5.56  5.39 -3.01
Si  3.71  4.29 -6.08
Si  7.45  2.13 -3.03
Si  3.72 -4.28  6.09
Si -1.88  7.51  3.04
Si -3.73  4.27 -6.09
Si  5.61  1.05 -6.07
Si  1.86  5.36  6.10
Si  5.56 -1.06  6.11
Si  7.45 -2.18  3.03
Si -5.57 -5.40  3.06
Si  1.86 -7.55 -3.03
Si -7.46  2.17 -3.04
Si -1.88 -5.39 -6.08
Si -5.61  5.39 -3.01
Si -1.87  5.40  6.09
Si -7.47 -2.17  3.04
Si -3.73 -4.32  6.10
Si  1.86 -5.41 -6.09
Si  5.61 -5.40  3.06
Si -5.61 -1.06  6.11
Si  7.44  4.27  0.77
Si  1.85  1.04 -8.36
Si  1.88 -7.53  3.77
Si -7.44  4.31  0.73
Si -5.57  5.38  3.82
Si  7.46  2.15  3.77
Si -0.04 -8.61  0.72
Si -1.90 -7.53  3.82
Si  5.61  5.38  3.82
Si -1.85  1.08 -8.39
Si -7.48  2.15  3.82
Si -0.04 -2.16 -8.40
Si  7.40  4.31  3.07
Si  7.42 -4.32 -3.04
Si -0.03 -8.59  3.02
Si -7.44  4.29  3.03
Si -7.44 -4.30 -3.05
Si  0.01  0.03  9.13
Si  0.03  8.62 -3.06
Si -0.01  0.03 -9.15
Si -5.55  3.21  6.83
Si  0.00  6.44  6.82
Si -3.77 -8.56  0.75
Si -1.88 -7.50 -5.32
Si -5.59 -3.24  6.82
Si  9.30  1.07  0.73
Si  7.46  2.14 -5.29
Si  5.59 -3.24  6.82
Si  1.87 -7.54 -5.29
Si  0.04 -6.47  6.83
Si  3.71 -8.61  0.73
Si -7.47 -4.27  3.80
Si -5.56  5.40 -5.34
Si  5.63  3.21  6.83
Si  5.57  7.56  0.75
Si -3.77 -2.10 -8.37
Si  0.03  8.63  3.79
Si -7.47  2.18 -5.32
Si  3.71 -2.15 -8.39
Si -0.02  4.33 -8.38
Si  7.46 -4.32  3.83
Si -5.61  7.56  0.75
Si  5.62  5.40 -5.34
Si -9.36  1.12  0.75
Si  1.84 -3.25 -9.04
Si  7.44  2.11  6.05
Si -1.91 -3.23 -9.08
Si  5.59 -7.50 -3.01
Si -5.59 -7.50 -3.01
Si -3.73  8.56 -3.07
Si  1.84  9.66  0.08
Si -9.29  1.08  3.04
Si -5.58 -5.37 -6.07
Si  1.86 -3.22  9.11
Si -3.70 -8.60  3.04
Si -1.85 -3.23  9.11
Si  3.74  0.01  9.11
Si -9.31 -3.19  0.02
Si -1.84 -7.51  6.10
Si  1.86  3.26 -9.10
Si  5.60 -5.37 -6.07
Si -1.85  7.51 -6.09
Si -7.44 -6.45 -0.01
Si  7.45 -6.44 -0.01
Si -7.44  6.46 -0.02
Si -7.43  2.17  6.10
Si -7.44 -2.17 -6.09
Si -9.31  3.24 -0.01
Si -1.91  9.68  0.04
Si  9.33  1.06  3.03
Si -5.58  7.54  3.06
Si  1.89  7.53 -6.08
Si  9.32  3.23 -0.01
Si  9.33 -3.21 -0.02
Si -3.72  0.01 -9.14
Si  9.34 -1.05 -3.03
Si -1.91 -9.68  0.04
Si  3.73 -0.00 -9.14
Si  1.85 -7.57  6.05
Si  3.74 -8.62  3.03
Si  1.84 -9.70  0.08
Si  5.60  7.54  3.06
Si  7.48 -2.15 -6.08
Si -1.85  3.24 -9.15
Si -3.73  0.03  9.15
Si  3.75  8.62 -3.03
Si -9.32 -1.12 -3.07
Si  7.45  6.49  0.02
Si  5.59  5.40  6.12
Si -5.59  5.40  6.12
Si -1.91  3.22  9.17
Si  1.84  3.21  9.21
Si -1.86  9.64 -2.25
Si  1.89  9.65 -2.27
Si -9.30  3.20 -2.27
Si  9.30 -3.21 -2.28
Si  1.88  1.07  9.87
Si  7.43 -4.28 -5.34
Si -0.00  8.58 -5.33
Si  9.32 -1.07  3.75
Si -9.29 -3.25 -2.29
Si -7.45 -6.44 -2.26
Si -3.71  6.43  6.85
Si  3.73  8.61  3.75
Si -1.84  1.05  9.89
Si  0.00 -2.17  9.88
Si  3.75  4.27 -8.37
Si  9.31  3.24 -2.26
Si -5.59  1.05 -8.38
Si -3.71  4.29 -8.38
Si  7.48  6.43 -2.29
Si  5.59  1.05 -8.38
Si -1.84 -5.41 -8.37
Si -9.34 -1.05  3.79
Si  7.48 -0.02  6.83
Si  5.59 -7.55  3.80
Si -7.47  0.01  6.85
Si -5.59 -7.55  3.80
Si -3.70 -6.48  6.85
Si -3.75  8.62  3.79
Si -7.45 -4.29 -5.38
Si -7.47  6.47 -2.28
Si  1.88 -5.38 -8.38
Si  3.73  6.47  6.86
Si  7.47 -6.48 -2.27
Si -1.86 -9.71 -2.25
Si  1.89 -9.71 -2.27
Si  3.73 -6.49  6.87
Si  7.45  4.27 -6.09
Si -7.46 -4.28  6.09
Si -7.47  4.29 -6.08
Si  0.02 -8.63 -6.07
Si  7.45 -4.32  6.10
Si -0.03  8.62  6.11
Si  9.28 -1.07 -5.31
Si -0.04  4.29  9.85
Si  3.74 -2.14  9.86
Si -5.57 -7.53 -5.30
Si  3.69  8.61 -5.31
Si -0.04 10.75  0.72
Si  5.61 -7.53 -5.30
Si -9.30 -1.07 -5.35
Si  9.33 -5.37  0.73
Si -3.71  8.61 -5.35
Si -3.74 -2.19  9.89
Si -9.33 -5.41  0.77
Si -5.56 -7.52  6.07
Si  5.58 -3.20  9.11
Si  0.01 -6.42 -9.12
Si -5.60 -3.20  9.11
Si -11.16 -0.00  0.00
Si -5.57  9.68  0.00
Si -5.57  3.22  9.13
Si -5.57 -3.23 -9.13
Si -5.57 -9.68  0.00
Si  0.03 -10.74 -3.06
Si -5.57  3.26 -9.12
Si -3.78 -8.59 -6.06
Si  5.62 -7.52  6.07
Si  0.02  6.45 -9.13
Si -0.01  6.48  9.11
Si  0.02 -6.46  9.13
Si  3.73  8.61  6.08
Si -3.76  8.59  6.09
Si  9.32 -1.07  6.08
Si  5.61  9.68  0.00
Si -0.03 10.77  3.02
Si  5.56  7.54 -6.11
Si  5.61  3.22  9.13
Si  9.32  5.38 -3.05
Si  5.60  3.26 -9.12
Si  5.61 -3.23 -9.13
Si  9.33 -5.38  3.03
Si  5.61 -9.68  0.00
Si  9.33  1.07 -6.09
Si  3.74 -8.61 -6.09
Si -9.35  5.36 -3.04
Si 11.20 -0.00  0.00
Si -9.36  1.09 -6.06
Si -9.35 -1.09  6.09
Si -5.61  7.54 -6.11
Si -9.36 -5.37  3.07
Si  7.41 -8.56  0.75
Si -11.14 -0.01 -2.30
Si  1.82 -5.33  9.88
Si  7.41 -2.10 -8.37
Si  3.71  4.30  9.86
Si  0.03 -10.73  3.79
Si -5.55  9.67 -2.30
Si 11.16 -2.12  0.75
Si -1.87 -5.38  9.86
Si  5.57  1.11  9.88
Si  5.57 -5.34 -8.38
Si  3.71 10.75  0.73
Si -5.55 -9.69 -2.30
Si -9.30  5.36  3.83
Si  9.30  5.41  3.80
Si -5.61  1.11  9.88
Si -5.61 -5.34 -8.38
Si -7.46 -8.61  0.73
Si -11.20 -2.12  0.75
Si  5.63  9.67 -2.30
Si -1.87  7.52 -8.39
Si  0.00 -0.01 -11.43
Si -3.77  4.35  9.88
Si  1.82  7.57 -8.37
Si -7.46 -2.15 -8.39
Si  5.63 -9.69 -2.30
Si 11.22 -0.01 -2.30
Si -3.77 10.80  0.75
Si -3.75  6.43 -9.04
Si  3.67  6.45 -9.08
Si -3.73 -6.42 -9.10
Si  7.44  8.56 -3.07
Si -7.44  0.01  9.11
Si  3.75 -10.73 -3.03
Si  3.74 10.74  3.03
Si -11.17 -2.14  3.06
Si  3.73  6.45  9.11
Si -3.72  6.46  9.11
Si 11.18  2.17 -3.01
Si -3.70 10.76  3.04
Si -11.18  2.17 -3.01
Si -7.43  8.62 -3.03
Si -7.44 -8.62  3.03
Si -7.44 -0.00 -9.14
Si 11.19 -2.14  3.06
Si  7.45  0.01 -9.14
Si  7.48 -8.60  3.04
Si  3.74 -6.44 -9.15
Si  7.45  0.03  9.15
Si  3.67 -6.46  9.17
Si -3.73 -10.80 -3.07
Si -3.75 -6.47  9.21
Si -7.42  4.27 -8.37
Si  3.73 -10.75  3.75
Si -9.29  3.20  6.85
Si  1.89  9.66  6.83
Si -9.30  7.52  0.74
Si  3.73  0.02 -11.39
Si -3.75 -10.73  3.79
Si -1.86 -3.26 -11.38
Si -7.45  8.61  3.75
Si -3.71 -0.02 -11.40
Si -11.18  4.28  0.75
Si -1.88 -9.66  6.85
Si 11.18  2.13  3.80
Si 11.18  4.28  0.75
Si -11.18  2.13  3.80
Si  7.43  8.62  3.79
Si -9.30 -3.25  6.85
Si  1.89 -3.25 -11.40
Si  7.47  6.43  6.85
Si  9.34  7.50  0.76
Si -1.88  3.24 -11.40
Si  9.31  3.19  6.87
Si  9.31 -3.21  6.86
Si  1.89  3.20 -11.42
Si  1.88 -11.84  0.74
Si -1.88  9.70  6.85
Si  1.89 -9.70  6.83
Si -7.45  6.47  6.86
Si  7.47  4.29 -8.38
Si  0.00 -8.62 -8.38
Si -0.00 -10.78 -5.33
Si -1.84 -11.86  0.76
Si  9.32  5.38 -5.38
Si -7.45 -6.49  6.87
Si -9.34  5.40 -5.34
Si  7.47 -6.48  6.85
Si 11.15 -4.29 -3.01
Si  0.02 10.73 -6.07
Si -0.03  2.17 -12.14
Si  9.30  7.51  3.04
Si  1.86 11.81 -3.03
Si -11.16  4.28  3.06
Si -9.31  7.50  3.03
Si  9.31 -7.51 -3.04
Si  1.86 -1.09 -12.15
Si  1.86  1.04 12.16
Si  9.30 -5.39 -6.08
Si -1.87 -1.05 -12.16
Si -1.88  1.06 12.17
Si -0.03 -10.74  6.11
Si -9.32  5.36  6.10
Si  9.31  5.40  6.09
Si -11.20 -4.29 -3.01
Si 11.19  4.28  3.06
Si -9.32 -7.55 -3.03
Si -1.88 -11.85  3.04
Si -9.31 -5.41 -6.09
Si  0.02 -2.18 12.18
Si -1.87 11.85 -3.04
Si  1.86 -11.86  3.03
Si  5.55 -5.39  9.85
Si -7.44 -2.14  9.86
Si -11.16  2.15 -5.30
Si -9.30 -7.53  3.77
Si  9.28 -7.53  3.82
Si -1.85  7.54  9.86
Si  3.69 -10.75 -5.31
Si  1.85  7.50  9.89
Si -11.16 -4.30  3.82
Si -5.63 -5.39  9.85
Si  1.88 11.83  3.77
Si  5.55  7.52 -8.40
Si  7.44 -2.19  9.89
Si -9.33  1.04 -8.36
Si -3.71 -10.75 -5.35
Si 11.19  2.15 -5.30
Si -1.90 11.83  3.82
Si -7.48  8.61 -5.31
Si  3.74 -8.60 -8.39
Si 11.19 -4.30  3.82
Si  7.46  8.61 -5.35
Si -3.74 -8.64 -8.36
Si  9.33  1.08 -8.39
Si -5.63  7.52 -8.40
Si  7.40 -8.59 -6.06
Si -11.15  2.16  6.07
Si  0.01 -12.88  0.01
Si  7.42  8.59  6.09
Si 11.17 -6.43 -0.02
Si -0.03  4.32 12.15
Si 11.15 -2.14 -6.11
Si -7.44  8.61  6.08
Si -11.19 -6.43 -0.02
Si  3.74 -2.16 12.16
Si  3.73 -10.75  6.08
Si  3.74 10.75 -6.09
Si -3.76  2.14 -12.16
Si -7.44 -8.61 -6.09
Si -11.16  6.48  0.01
Si  3.73  2.15 -12.17
Si  0.03 -4.29 -12.19
Si -3.78 10.77 -6.06
Si 11.21  2.16  6.07
Si -3.76 -10.77  6.09
Si -0.01 12.93 -0.02
Si 11.19  6.48  0.01
Si -11.20 -2.14 -6.11
Si -3.78 -2.14 12.19
Si 12.99  1.12  0.75
Si -5.55  3.24 -11.38
Si  5.57 -11.80  0.75
Si  0.04 -6.44 -11.38
Si -11.14  6.47 -2.25
Si -0.02 -8.57  9.88
Si  9.30 -7.50 -5.32
Si -11.15 -4.28 -5.34
Si  1.87 11.82 -5.29
Si -5.61 -11.80  0.75
Si  0.04 -12.89 -2.25
