500
set: 846.00  0.00  0.00
Si  0.40 -1.01  0.76
Si -0.56  1.02 -0.85
Si  1.29  1.29  0.72
Si -1.42 -1.36 -0.73
Si -2.15  1.12  0.90
Si  2.08 -1.31 -0.82
Si  0.98  0.08 -2.39
Si -0.93 -0.09  2.54
Si  0.06 -2.08 -2.39
Si  2.92  1.00 -0.90
Si -0.03  2.17  2.48
Si  0.32  3.24 -0.80
Si -2.49  0.06 -2.30
Si  2.48  0.01  2.35
Si -0.47 -3.34  0.75
Si -3.15 -1.17  0.88
Si  1.54 -2.31  2.42
Si -1.33  3.46  0.90
Si -1.78  2.48 -2.33
Si -1.85 -2.36  2.47
Si  1.24 -3.60 -0.90
Si  1.88  2.44 -2.43
Si -0.81 -0.19 -3.92
Si  3.81 -1.11  0.77
Si -3.85  1.15 -0.73
Si  0.85  0.03  4.04
Si  2.08  3.61  0.86
Si -2.25 -3.62 -0.80
Si  0.05  2.06 -3.91
Si  2.93 -3.36  0.81
Si  3.35  2.26  2.31
Si -0.12 -2.25  4.13
Si -3.42 -2.22 -2.36
Si -3.12  3.49 -0.67
Si  2.70 -0.15 -4.03
Si -3.47  2.43  2.40
Si  3.58 -2.13 -2.54
Si  4.68  1.22  0.68
Si -2.71 -0.07  4.10
Si -1.83  2.17  4.08
Si  1.68  2.38  4.04
Si -4.81 -1.12 -0.72
Si  1.74 -2.42 -4.01
Si -1.71 -2.52 -3.99
Si -4.38  0.09  2.49
Si  3.80  3.28 -0.80
Si  4.49  0.17 -2.50
Si -0.73 -4.51 -2.38
Si -0.76  4.60 -2.27
Si  0.71  4.53  2.54
Si  0.63 -4.66  2.39
Si -3.95 -3.41  0.86
Si  3.35 -2.36  3.96
Si  5.57 -1.16 -0.87
Si  1.24  5.57 -0.80
Si  4.22 -0.07  3.93
Si -3.38  2.35 -4.05
Si -4.19  0.03 -3.98
Si  0.54 -1.11 -5.66
Si  3.54  2.11 -4.08
Si  2.70 -4.43 -2.60
Si -1.41 -5.58  0.86
Si  4.63 -3.46 -0.84
Si -0.45  5.78  0.86
Si -5.73  1.05  0.80
Si  1.43  1.16 -5.59
Si -0.41  1.24  5.75
Si -2.59  4.72  2.45
Si  2.76  4.68 -2.38
Si -3.59 -2.34  4.10
Si  0.31 -5.91 -0.80
Si  0.89  4.39 -3.95
Si -1.36 -1.08  5.73
Si -2.79 -4.66  2.54
Si -4.91  3.34  0.83
Si  2.07 -5.59  0.71
Si -2.12  1.03 -5.58
Si  5.19 -2.14  2.38
Si -5.09  2.31 -2.45
Si  2.19 -1.14  5.64
Si -0.97 -4.51  4.09
Si -0.97  4.48  4.13
Si -2.15  5.76 -0.68
Si -5.27 -2.14  2.44
Si  5.25  2.48 -2.46
Si  0.89 -4.78 -4.09
Si -2.92 -1.27 -5.55
Si  3.03  1.18  5.56
Si -5.98  0.04 -2.41
Si  6.00  0.25  2.40
Si  2.42 -4.59  3.94
Si -1.19  3.32 -5.53
Si  6.41  1.11 -0.91
Si  4.12  4.53  2.39
Si -0.24 -3.43 -5.62
Si -2.53  4.62 -3.98
Si  3.03  5.85  0.75
Si  4.28 -4.45  2.43
Si -5.65 -3.43 -0.68
Si -4.25 -4.59 -2.27
Si  5.57  3.60  0.71
Si  2.52  4.68  4.09
Si -4.27  4.59 -2.39
Si  1.29 -3.49  5.61
Si  0.41  3.52  5.73
Si -2.60 -4.80 -3.95
Si -3.18 -5.96 -0.80
Si -6.67 -1.20  0.84
Si  5.11  2.28  3.98
Si -5.08 -2.24 -4.05
Si -3.82  1.34  5.67
Si  3.77 -5.79 -0.94
Si -4.01  5.66  0.81
Si -5.32  2.21  3.96
Si  2.29  3.51 -5.66
Si -2.20 -3.39  5.78
Si  4.05 -1.18 -5.68
Si  5.38 -2.31 -4.11
Si -0.35  1.17 -7.14
Si  6.32 -3.53  0.81
Si -0.14 -6.93  2.31
Si -6.10 -0.08  4.03
Si  7.16 -1.20  0.84
Si -2.95  3.56  5.67
Si  3.12 -3.45 -5.66
Si  0.44 -1.04  7.26
Si -1.61 -6.75 -2.43
Si  0.07  6.97 -2.36
Si  1.76 -6.71 -2.46
Si  4.74  5.60 -0.90
Si -1.24 -1.12 -7.20
Si -4.33  4.49  3.97
Si  4.38  4.41 -4.09
Si  1.64  6.83  2.47
Si  6.21 -0.03 -4.12
Si -6.57  3.40 -0.94
Si -4.68 -0.96  5.75
Si  1.40  1.21  7.30
Si -6.79 -2.27 -2.38
Si -4.83 -5.73  0.90
Si -7.42  1.11 -0.91
Si -3.78 -3.53 -5.55
Si  3.88  3.42  5.61
Si  4.90  1.16 -5.74
Si  6.90  2.42  2.29
Si  4.51 -4.59 -4.17
Si -1.78  7.05  2.44
Si -4.47 -4.71  4.13
Si -6.93  2.42  2.29
Si  2.24 -1.21 -7.32
Si -2.14  1.11  7.38
Si  7.04 -2.27 -2.38
Si  3.40 -6.77  2.29
Si -0.29  5.67 -5.55
Si -6.08 -4.47  2.45
Si -5.54  0.97 -5.63
Si  5.70 -1.00  5.48
Si  1.78  6.67 -3.99
Si  6.06 -4.60 -2.39
Si -0.10  6.85  4.10
Si  0.50  3.48 -7.20
Si  5.43 -5.85  0.83
Si -3.29  6.92 -2.38
Si  3.15  1.07 -7.32
Si  0.39 -5.77  5.61
Si -6.05  4.74  2.43
Si  7.26  3.40 -0.94
Si  0.35  8.03  0.88
Si  1.19 -7.97  0.68
Si -3.05 -1.23  7.39
Si -0.43 -3.40  7.33
Si  4.85 -3.33  5.58
Si -1.20 -5.68 -5.66
Si -4.67  3.29 -5.77
Si -1.82 -6.81  4.04
Si -5.71  5.73 -0.84
Si  2.07  7.83 -0.73
Si  1.61 -6.92  3.98
Si  0.05 -7.08 -4.08
Si -7.83  0.25  2.40
Si -1.59  6.95 -4.05
Si  8.10  1.05  0.80
Si -2.05 -3.40 -7.18
Si -1.28  3.37  7.37
Si -1.32  8.07 -0.72
Si  7.85  0.04 -2.41
Si -3.73  1.23 -7.21
Si -6.74  2.28 -4.12
Si  6.19  4.76 -2.60
Si -3.53 -7.02  2.48
Si -2.20 -7.91  0.72
Si  1.39 -3.45 -7.37
Si -0.57 -8.19 -0.90
Si  3.96 -1.12  7.16
Si  1.29  5.80  5.78
Si  3.56  7.11 -2.39
Si -7.51 -3.53  0.81
Si  6.89 -2.43  4.04
Si  2.18  3.52  7.27
Si -8.26 -1.16 -0.87
Si -6.94 -2.43  4.04
Si -2.09  5.86  5.72
Si  5.91  4.60  3.94
Si  2.32 -5.75 -5.76
Si  7.09  2.28 -4.12
Si -5.82  4.60 -4.17
Si -2.83  3.60 -7.18
Si  3.05 -3.40  7.19
Si -6.02 -4.57 -3.98
Si -3.45  6.76  4.04
Si  6.01 -4.70  3.97
Si -3.09 -5.67  5.73
Si  2.92 -8.08 -0.91
Si -3.17  8.00  0.84
Si -4.59 -1.07 -7.25
Si -5.58 -3.33  5.72
Si -7.62 -0.03 -4.12
Si  3.25  5.76 -5.62
Si -6.41 -1.28 -5.72
Si  6.50  1.31  5.64
Si  6.42  5.83  0.81
Si  7.73 -0.08  4.03
Si  3.37  6.94  4.13
Si -6.61 -5.70 -0.67
Si  4.76  1.19  7.27
Si  3.92 -5.59  5.54
Si  3.59 -6.91 -4.12
Si -3.45 -7.13 -3.91
Si -3.76  5.61 -5.71
Si -5.27 -6.72 -2.33
Si  5.04  6.88  2.42
Si  5.82  3.44 -5.76
Si  0.88  0.05 -8.84
Si  8.18 -3.43 -0.68
Si  5.24 -6.88 -2.45
Si  4.05  3.41 -7.28
Si -0.96 -0.17  8.98
Si -8.26  3.60  0.71
Si -5.14  7.05  2.38
Si -3.98 -3.52  7.35
Si  3.89  8.18  0.76
Si  9.02 -1.12 -0.72
Si  8.56 -2.14  2.44
Si -4.05 -8.17 -0.85
Si  0.04 -2.26 -8.88
Si -2.61 -0.15 -8.80
Si -0.07  2.11  8.94
Si  2.53 -0.15  8.84
Si -5.61  1.05  7.21
Si -6.42  3.60  5.54
Si -8.64 -2.14  2.38
Si  7.22 -5.70 -0.67
Si -9.15  1.22  0.68
Si  1.73  2.31 -8.80
Si -8.58  2.48 -2.46
Si -1.74  2.22 -8.83
Si -4.77  3.36  7.21
Si  7.75 -4.47  2.45
Si -0.48  5.67  7.35
Si -1.31 -5.67  7.27
Si  0.55 -5.78 -7.28
Si  4.79  5.70  5.61
Si -4.69 -5.87 -5.53
Si  1.69 -2.45  8.84
Si -7.77 -4.60 -2.39
Si -7.33  1.31  5.64
Si  1.44  5.80 -7.18
Si  8.74  2.31 -2.45
Si -7.64  4.76 -2.60
Si  4.86 -3.33 -7.29
Si -4.76  8.04 -0.87
Si  4.60 -8.14  0.80
Si  0.99 -9.03 -2.50
Si  6.58 -3.58 -5.71
Si -4.95  6.88 -4.11
Si  7.78  4.74  2.43
Si  5.77 -1.03 -7.39
Si  5.24  6.77 -4.01
Si  7.42 -1.28 -5.72
Si -7.40  5.83  0.81
Si  5.01 -6.98  3.96
Si  2.19 -5.73  7.24
Si -1.01 -9.18  2.35
Si -1.81 -2.50  9.02
Si -1.97  5.90 -7.26
Si  8.92  3.34  0.83
Si  1.00  9.25 -2.30
Si  2.50 -8.94  2.40
Si  8.51  2.21  3.96
Si -0.88  9.28  2.49
Si -5.46 -3.29 -7.26
Si -8.45 -2.31 -4.11
Si -3.00 -5.72 -7.20
Si -9.35  0.17 -2.50
Si  5.57  7.88 -0.82
Si  0.57  7.92 -5.55
Si -5.32 -7.03  4.08
Si -2.51 -9.11 -2.39
Si -6.52 -1.26  7.15
Si -0.47 -8.01  5.56
Si  9.45  0.09  2.49
Si -5.49  5.86  5.58
Si  3.38  2.21  8.91
Si  2.57  9.10  2.54
Si -3.44  2.39  8.87
Si -3.47 -2.47 -8.85
Si  3.07  5.79  7.33
Si  5.69  3.46  7.24
Si -8.72  2.28  3.98
Si -2.49  9.23 -2.41
Si -8.13 -1.00  5.48
Si -9.20 -3.46 -0.84
Si  7.81 -4.57 -3.98
Si  3.47 -2.36 -8.95
Si -5.65 -8.07  0.90
Si  8.75 -2.24 -4.05
Si -7.25 -3.58 -5.71
Si  7.41  3.60  5.54
Si  6.87 -6.76  2.40
Si -0.85  4.48 -8.82
Si  4.27 -0.04 -8.99
Si -7.82 -4.70  3.97
Si -4.38  0.07  8.94
Si -7.92  4.60  3.94
Si  1.41 -8.03 -5.74
Si  8.12  5.73 -0.84
Si -3.90  5.61  7.29
Si -6.96 -6.76  2.40
Si -2.07 -8.04 -5.59
Si  5.67 -5.90 -5.77
Si  6.70  1.22 -7.35
Si  0.79  9.12  4.10
Si -0.79 -4.61 -8.89
Si -0.70  9.22 -3.98
Si  9.98  1.15 -0.73
Si  8.29  0.97 -5.63
Si  0.83  4.44  9.01
Si  0.73 -9.26  3.93
Si -6.76  7.06 -2.54
Si  0.85 -4.70  8.90
Si -1.19  8.23  5.75
Si -10.02 -1.11  0.77
Si  8.01  4.60 -4.17
Si  3.01 -7.88  5.64
Si  2.14  8.11  5.73
Si  2.68  9.00 -3.92
Si  4.05 -5.64 -7.45
Si -2.92  7.91 -5.72
Si -0.79 -9.34 -4.03
Si -6.45 -5.63  5.67
Si -8.40 -5.85  0.83
Si -2.60  9.11  4.03
Si  7.31 -1.26  7.15
Si -7.13  1.22 -7.35
Si  7.07  7.06 -2.54
Si  0.31 -10.30  0.77
Si  6.48 -8.04 -0.73
Si -2.64 -9.16  4.04
Si  2.71  4.58 -8.89
Si  6.44 -3.58  7.29
Si -6.28  3.55 -7.45
Si -0.36 10.34 -0.73
Si -9.61 -0.07  3.93
Si -2.55  4.66  8.94
Si  4.35 -9.15 -2.41
Si -6.53  8.09  0.77
Si  6.62  5.74 -5.66
Si  9.64  0.03 -3.98
Si -0.93 -0.11 -10.39
Si  1.34 10.31  0.90
Si  6.84  6.83  3.96
Si -8.02  3.44 -5.76
Si -5.09  2.12 -8.88
Si  2.71 -9.22 -4.12
Si  2.58 -4.70 -9.00
Si  9.88 -3.41  0.86
Si  5.23 -2.27  8.81
Si -6.87 -6.84 -4.05
Si -2.24 10.24  0.80
Si -2.67 -4.75  9.01
Si -5.23 -2.20  8.88
Si  4.88  5.74 -7.37
Si -4.78 -5.82  7.37
Si -6.99  6.83  3.96
Si -3.90 -7.95  5.75
Si  6.96 -6.84 -4.05
Si  4.48  9.27 -2.39
Si  8.25 -3.33  5.72
Si -10.03  3.28 -0.80
Si  0.91  0.12 10.55
Si  2.08 -10.35 -0.87
Si -4.42 -9.28  2.54
Si  5.20  2.20 -8.97
Si -1.42 -10.50 -0.82
Si  4.03  8.08 -5.66
Si  2.94 10.21 -0.85
Si -4.34  9.44  2.40
Si -8.93  1.16 -5.74
Si  0.00  2.19 -10.46
Si -3.10 -10.20  0.76
Si  6.15  0.05  8.76
Si  0.03 -2.12 10.50
Si  9.00 -5.73  0.90
Si -9.09  5.60 -0.90
Si -5.97 -0.14 -8.96
Si -10.25 -2.13 -2.54
Si 10.68 -1.17  0.88
Si -9.55 -4.45  2.43
Si  5.57 -5.83  7.21
Si -7.21  5.74 -5.66
Si  2.48 -0.11 -10.54
Si -4.24  4.48 -8.90
Si -5.47  5.87 -7.29
Si  9.14 -0.96  5.75
Si  4.36 -4.59  8.81
Si -4.13  9.16 -4.12
Si  9.57 -4.59 -2.27
Si -1.67 -2.46 -10.45
Si  9.56  4.59 -2.39
Si  0.45  7.96  7.39
Si  4.34  4.49  8.90
Si  7.38 -5.63  5.67
Si  1.27 -8.00  7.27
Si -4.64  8.19  5.48
Si 10.41 -2.22 -2.36
Si -4.35 -4.71 -8.82
Si 10.36  2.43  2.40
Si -7.35 -8.04 -0.73
Si  7.30  8.09  0.77
Si -0.35 -8.12 -7.32
Si -1.10  8.12 -7.25
Si  4.24 -9.27  4.03
Si  4.35  9.22  4.04
Si -10.48  2.26  2.31
Si -2.62  0.05 10.65
Si  1.70  2.55 10.54
Si -9.71  4.53  2.39
Si -8.06 -1.03 -7.39
Si  8.22  1.05  7.21
Si -1.78  2.41 10.57
Si -7.39 -3.58  7.29
Si -10.91  1.00 -0.90
Si  1.71 -2.37 -10.62
Si -2.10 -7.98  7.30
Si -4.31 -9.38 -3.92
Si  3.67 -10.39  0.84
Si  2.26  8.07 -7.20
Si  4.80 -8.22 -5.63
Si -3.92 10.30 -0.91
Si -6.33 -5.59 -7.18
Si -8.98 -3.33  5.58
Si -3.02  7.93  7.15
Si  0.03  6.72 -8.85
Si  8.56 -6.72 -2.33
Si -5.99 -9.13 -2.30
Si  5.96 -9.10  2.49
Si  7.55  3.55 -7.45
Si -9.32 -4.59 -4.17
Si -9.45  4.41 -4.09
Si  4.34  0.20 10.33
Si  3.40 -2.08 10.47
Si  5.97  9.20  2.35
Si  9.50  4.49  3.97
Si  9.36 -4.71  4.13
Si -10.29  2.11 -4.08
Si -8.59 -6.88 -2.45
Si  3.40  2.25 -10.51
Si 10.24 -2.34  4.10
Si 10.71  3.49 -0.67
Si -3.42  2.41 -10.49
Si -4.23  0.08 -10.48
Si  3.21 -7.97 -7.35
Si -1.76 -6.88 -8.80
Si -5.85  9.36 -2.50
Si  6.54  5.79  7.19
Si -0.11 -6.98  8.91
Si  9.16  3.29 -5.77
Si  0.93  4.46 -10.39
Si  5.69  8.05  5.64
Si  1.69  6.69  9.02
Si  9.82  5.66  0.81
Si -5.62 -8.16 -5.58
Si -9.78 -1.18 -5.68
Si -6.80  2.33  8.82
Si -3.63 -2.08 10.59
Si -3.84 -8.02 -7.14
Si -8.79  6.88  2.42
Si -1.74  6.99  8.88
Si -8.14  3.46  7.24
Si -10.90 -3.36  0.81
Si  8.69  7.05  2.38
Si -8.26  7.88 -0.82
Si -10.48 -2.36  3.96
Si 10.45  2.35 -4.05
Si -0.87 -4.47 10.53
Si  1.71 -6.99 -8.97
Si  7.03  2.33  8.82
Si  8.18 -8.07  0.90
Si  4.79 10.48  0.72
Si  6.87 -2.43 -8.97
