500
set: 60.00  0.00  0.00
Si  0.00  0.00  0.00
Si  1.27  2.04  0.00
Si -1.27 -2.04  0.00
Si -0.23  0.18 -2.46
Si  0.23 -0.18  2.46
Si  1.46 -2.04  0.00
Si -1.46  2.04  0.00
Si  2.73  0.00  0.00
Si -2.73  0.00  0.00
Si  1.23 -1.86 -2.46
Si -1.23  1.86  2.46
Si  1.51  1.86  2.46
Si -1.51 -1.86 -2.46
Si -1.04 -2.23  2.46
Si  1.04  2.23 -2.46
Si  2.50  0.18 -2.46
Si -2.50 -0.18  2.46
Si -1.69  2.23 -2.46
Si  1.69 -2.23  2.46
Si  2.97 -0.18  2.46
Si -2.97  0.18 -2.46
Si  0.19 -4.09  0.00
Si -0.19  4.09  0.00
Si -4.00 -2.04  0.00
Si  4.00  2.04  0.00
Si  0.05  3.91  2.46
Si -0.05 -3.91 -2.46
Si -4.19  2.04  0.00
Si  4.19 -2.04  0.00
Si -2.54 -4.09  0.00
Si  2.54  4.09  0.00
Si -0.42  4.28 -2.46
Si  0.42 -4.28  2.46
Si -0.47  0.37 -4.92
Si  0.47 -0.37  4.92
Si  3.96 -1.86 -2.46
Si -3.96  1.86  2.46
Si  3.77  2.23 -2.46
Si -3.77 -2.23  2.46
Si -2.92  4.09  0.00
Si  2.92 -4.09  0.00
Si  4.24  1.86  2.46
Si -4.24 -1.86 -2.46
Si -0.99  1.68  4.92
Si  0.99 -1.68 -4.92
Si -2.69  3.91  2.46
Si  2.69 -3.91 -2.46
Si  2.78  3.91  2.46
Si -2.78 -3.91 -2.46
Si  2.26  0.37 -4.92
Si -2.26 -0.37  4.92
Si -2.31 -4.28  2.46
Si  2.31  4.28 -2.46
Si -5.46  0.00  0.00
Si  5.46  0.00  0.00
Si  1.74  1.68  4.92
Si -1.74 -1.68 -4.92
Si  4.43 -2.23  2.46
Si -4.43  2.23 -2.46
Si  0.80  2.41 -4.92
Si -0.80 -2.41  4.92
Si -5.23 -0.18  2.46
Si  5.23  0.18 -2.46
Si -1.93  2.41 -4.92
Si  1.93 -2.41  4.92
Si  3.15 -4.28  2.46
Si -3.15  4.28 -2.46
Si  3.20 -0.37  4.92
Si -3.20  0.37 -4.92
Si -0.28 -3.72 -4.92
Si  0.28  3.72  4.92
Si -5.70  0.18 -2.46
Si  5.70 -0.18  2.46
Si  1.08  6.14  0.00
Si -1.08 -6.14  0.00
Si -1.65  6.14  0.00
Si  1.65 -6.14  0.00
Si  3.72 -1.68 -4.92
Si -3.72  1.68  4.92
Si -3.54 -2.41  4.92
Si  3.54  2.41 -4.92
Si -1.32 -5.95 -2.46
Si  1.32  5.95  2.46
Si -1.41  5.95  2.46
Si  1.41 -5.95 -2.46
Si  2.45 -3.72 -4.92
Si -2.45  3.72  4.92
Si  5.28  4.09  0.00
Si -5.28 -4.09  0.00
Si  0.66 -4.46  4.92
Si -0.66  4.46 -4.92
Si -0.85 -6.32  2.46
Si  0.85  6.32 -2.46
Si  4.47  1.68  4.92
Si -4.47 -1.68 -4.92
Si -3.01 -3.72 -4.92
Si  3.01  3.72  4.92
Si  2.08  4.46 -4.92
Si -2.08 -4.46  4.92
Si -5.65  4.09  0.00
Si  5.65 -4.09  0.00
Si  5.00  0.37 -4.92
Si -5.00 -0.37  4.92
Si  6.74  2.04  0.00
Si -6.74 -2.04  0.00
Si -1.88  6.32 -2.46
Si  1.88 -6.32  2.46
Si -5.04 -4.28  2.46
Si  5.04  4.28 -2.46
Si  5.42 -3.91 -2.46
Si -5.42  3.91  2.46
Si  5.51  3.91  2.46
Si -5.51 -3.91 -2.46
Si -4.66  2.41 -4.92
Si  4.66 -2.41  4.92
Si  6.92 -2.04  0.00
Si -6.92  2.04  0.00
Si -3.82 -6.14  0.00
Si  3.82  6.14  0.00
Si -6.50 -2.23  2.46
Si  6.50  2.23 -2.46
Si  6.69 -1.86 -2.46
Si -6.69  1.86  2.46
Si -0.70  0.55 -7.39
Si  0.70 -0.55  7.39
Si -3.39  4.46 -4.92
Si  3.39 -4.46  4.92
Si  4.38 -6.14  0.00
Si -4.38  6.14  0.00
Si -0.76  1.49  7.39
Si  0.76 -1.49 -7.39
Si -4.05 -5.95 -2.46
Si  4.05  5.95  2.46
Si -6.97 -1.86 -2.46
Si  6.97  1.86  2.46
Si -4.15  5.95  2.46
Si  4.15 -5.95 -2.46
Si  3.58  6.32 -2.46
Si -3.58 -6.32  2.46
Si  1.18 -5.77 -4.92
Si -1.18  5.77  4.92
Si -5.89  4.28 -2.46
Si  5.89 -4.28  2.46
Si -2.03 -0.55  7.39
Si  2.03  0.55 -7.39
Si -5.93  0.37 -4.92
Si  5.93 -0.37  4.92
Si -1.55 -5.77 -4.92
Si  1.55  5.77  4.92
Si -1.97 -1.49 -7.39
Si  1.97  1.49  7.39
Si -0.57 -2.60  7.39
Si  0.57  2.60 -7.39
Si -7.16  2.23 -2.46
Si  7.16 -2.23  2.46
Si -5.18  3.72  4.92
Si  5.18 -3.72 -4.92
Si -2.16  2.60 -7.39
Si  2.16 -2.60  7.39
Si -3.43  0.55 -7.39
Si  3.43 -0.55  7.39
Si -0.62 -6.50  4.92
Si  0.62  6.50 -4.92
Si  0.38 -8.18  0.00
Si -0.38  8.18  0.00
Si  8.20  0.00  0.00
Si -8.20  0.00  0.00
Si  4.81  4.46 -4.92
Si -4.81 -4.46  4.92
Si -4.61  6.32 -2.46
Si  4.61 -6.32  2.46
Si  0.51  3.54  7.39
Si -0.51 -3.54 -7.39
Si -6.46  1.68  4.92
Si  6.46 -1.68 -4.92
Si  3.49 -1.49 -7.39
Si -3.49  1.49  7.39
Si  6.27  2.41 -4.92
Si -6.27 -2.41  4.92
Si  7.96  0.18 -2.46
Si -7.96 -0.18  2.46
Si  0.14 -8.00 -2.46
Si -0.14  8.00  2.46
Si  2.12 -6.50  4.92
Si -2.12  6.50 -4.92
Si -5.74 -3.72 -4.92
Si  5.74  3.72  4.92
Si -2.22  3.54  7.39
Si  2.22 -3.54 -7.39
Si  3.30  2.60 -7.39
Si -3.30 -2.60  7.39
Si  2.36  8.18  0.00
Si -2.36 -8.18  0.00
Si  3.91 -5.77 -4.92
Si -3.91  5.77  4.92
Si -4.28 -5.77 -4.92
Si  4.28  5.77  4.92
Si -0.61  8.37 -2.46
Si  0.61 -8.37  2.46
Si  3.11 -8.18  0.00
Si -3.11  8.18  0.00
Si  2.59  8.00  2.46
Si -2.59 -8.00 -2.46
Si  0.89 -4.64  7.39
Si -0.89  4.64 -7.39
Si -8.43  0.18 -2.46
Si  8.43 -0.18  2.46
Si -4.76 -0.55  7.39
Si  4.76  0.55 -7.39
Si  3.25  3.54  7.39
Si -3.25 -3.54 -7.39
Si -3.35 -6.50  4.92
Si  3.35  6.50 -4.92
Si -2.87  8.00  2.46
Si  2.87 -8.00 -2.46
Si -4.71 -1.49 -7.39
Si  4.71  1.49  7.39
Si -7.20 -1.68 -4.92
Si  7.20  1.68  4.92
Si  1.84  4.64 -7.39
Si -1.84 -4.64  7.39
Si -6.55 -6.14  0.00
Si  6.55  6.14  0.00
Si -2.12 -8.37  2.46
Si  2.12  8.37 -2.46
Si -8.01 -4.09  0.00
Si  8.01  4.09  0.00
Si -6.12  4.46 -4.92
Si  6.12 -4.46  4.92
Si  7.73  0.37 -4.92
Si -7.73 -0.37  4.92
Si -7.39  2.41 -4.92
Si  7.39 -2.41  4.92
Si -7.77 -4.28  2.46
Si  7.77  4.28 -2.46
Si  4.89 -2.60  7.39
Si -4.89  2.60 -7.39
Si  0.09  7.81  4.92
Si -0.09 -7.81 -4.92
Si  6.31  6.32 -2.46
Si -6.31 -6.32  2.46
Si  0.95 -5.58 -7.39
Si -0.95  5.58  7.39
Si  8.38 -4.09  0.00
Si -8.38  4.09  0.00
Si -3.34  8.37 -2.46
Si  3.34 -8.37  2.46
Si  6.78  5.95  2.46
Si -6.78 -5.95 -2.46
Si  8.15 -3.91 -2.46
Si -8.15  3.91  2.46
Si  7.11 -6.14  0.00
Si -7.11  6.14  0.00
Si  6.88 -5.95 -2.46
Si -6.88  5.95  2.46
Si  1.79  5.58  7.39
Si -1.79 -5.58 -7.39
Si  8.24  3.91  2.46
Si -8.24 -3.91 -2.46
Si  3.62 -4.64  7.39
Si -3.62  4.64 -7.39
Si -4.85  6.50 -4.92
Si  4.85 -6.50  4.92
Si -4.95  3.54  7.39
Si  4.95 -3.54 -7.39
Si  2.64 -7.81 -4.92
Si -2.64  7.81  4.92
Si -5.09 -8.18  0.00
Si  5.09  8.18  0.00
Si -6.17  0.55 -7.39
Si  6.17 -0.55  7.39
Si -2.82 -7.81 -4.92
Si  2.82  7.81  4.92
Si  9.47  2.04  0.00
Si -9.47 -2.04  0.00
Si  6.22 -1.49 -7.39
Si -6.22  1.49  7.39
Si  9.23  2.23 -2.46
Si -9.23 -2.23  2.46
Si -4.57 -4.64  7.39
Si  4.57  4.64 -7.39
Si  9.65 -2.04  0.00
Si -9.65  2.04  0.00
Si  6.03  2.60 -7.39
Si -6.03 -2.60  7.39
Si -0.84  8.55 -4.92
Si  0.84 -8.55  4.92
Si  9.42 -1.86 -2.46
Si -9.42  1.86  2.46
Si  5.32  8.00  2.46
Si -5.32 -8.00 -2.46
Si -0.94  0.74 -9.85
Si  0.94 -0.74  9.85
Si  8.62 -4.28  2.46
Si -8.62  4.28 -2.46
Si -0.52  1.31  9.85
Si  0.52 -1.31 -9.85
Si  3.68 -5.58 -7.39
Si -3.68  5.58  7.39
Si  8.66 -0.37  4.92
Si -8.66  0.37 -4.92
Si  0.38  6.69 -7.39
Si -0.38 -6.69  7.39
Si  4.85  8.37 -2.46
Si -4.85 -8.37  2.46
Si  7.35 -6.32  2.46
Si -7.35  6.32 -2.46
Si -7.92  3.72  4.92
Si  7.92 -3.72 -4.92
Si  1.80  0.74 -9.85
Si -1.80 -0.74  9.85
Si -1.89 -8.55  4.92
Si  1.89  8.55 -4.92
Si  7.54  4.46 -4.92
Si -7.54 -4.46  4.92
Si  5.84 -8.18  0.00
Si -5.84  8.18  0.00
Si  5.61 -8.00 -2.46
Si -5.61  8.00  2.46
Si -6.64  5.77  4.92
Si  6.64 -5.77 -4.92
Si  5.98  3.54  7.39
Si -5.98 -3.54 -7.39
Si -6.08 -6.50  4.92
Si  6.08  6.50 -4.92
Si -2.21 -1.31 -9.85
Si  2.21  1.31  9.85
Si  9.70  1.86  2.46
Si -9.70 -1.86 -2.46
Si  2.35 -6.69  7.39
Si -2.35  6.69 -7.39
Si -0.34 -2.78  9.85
Si  0.34  2.78 -9.85
Si  0.90 10.23  0.00
Si -0.90 -10.23  0.00
Si -4.52 -5.58 -7.39
Si  4.52  5.58  7.39
Si  7.01  5.77  4.92
Si -7.01 -5.77 -4.92
Si -1.84 10.23  0.00
Si  1.84 -10.23  0.00
Si -1.13 -10.04 -2.46
Si  1.13 10.04  2.46
Si  0.75  3.35  9.85
Si -0.75 -3.35 -9.85
Si -9.89  2.23 -2.46
Si  9.89 -2.23  2.46
Si  3.11  6.69 -7.39
Si -3.11 -6.69  7.39
Si -3.26  1.31  9.85
Si  3.26 -1.31 -9.85
Si  1.60 -10.04 -2.46
Si -1.60 10.04  2.46
Si -8.47 -3.72 -4.92
Si  8.47  3.72  4.92
Si -3.58  8.55 -4.92
Si  3.58 -8.55  4.92
Si -2.40  2.78 -9.85
Si  2.40 -2.78  9.85
Si  3.67 -0.74  9.85
Si -3.67  0.74 -9.85
Si  7.49  0.55 -7.39
Si -7.49 -0.55  7.39
Si  9.00  2.41 -4.92
Si -9.00 -2.41  4.92
Si -9.19  1.68  4.92
Si  9.19 -1.68 -4.92
Si -7.44 -1.49 -7.39
Si  7.44  1.49  7.39
Si -1.98  3.35  9.85
Si  1.98 -3.35 -9.85
Si -0.33 -7.63 -7.39
Si  0.33  7.63  7.39
Si  6.07 -8.37  2.46
Si -6.07  8.37 -2.46
Si  5.37 -7.81 -4.92
Si -5.37  7.81  4.92
Si -3.07 -2.78  9.85
Si  3.07  2.78 -9.85
Si  0.66 10.41 -2.46
Si -0.66 -10.41  2.46
Si -5.55 -7.81 -4.92
Si  5.55  7.81  4.92
Si -6.35  4.64 -7.39
Si  6.35 -4.64  7.39
Si  3.63 10.23  0.00
Si -3.63 -10.23  0.00
Si -4.53 -0.74  9.85
Si  4.53  0.74 -9.85
Si  2.41 -7.63 -7.39
Si -2.41  7.63  7.39
Si -4.62 -8.55  4.92
Si  4.62  8.55 -4.92
Si -2.07 10.41 -2.46
Si  2.07 -10.41  2.46
Si -10.93  0.00  0.00
Si 10.93  0.00  0.00
Si  7.62 -2.60  7.39
Si -7.62  2.60 -7.39
Si -3.48 -3.35 -9.85
Si  3.48  3.35  9.85
Si 10.69  0.18 -2.46
Si -10.69 -0.18  2.46
Si  1.12 -4.83  9.85
Si -1.12  4.83 -9.85
Si -3.86 -10.04 -2.46
Si  3.86 10.04  2.46
Si  3.06  7.63  7.39
Si -3.06 -7.63 -7.39
Si -8.85  4.46 -4.92
Si  8.85 -4.46  4.92
Si -1.61 -4.83  9.85
Si  1.61  4.83 -9.85
Si -4.94 -1.31 -9.85
Si  4.94  1.31  9.85
Si -1.36 -9.86 -4.92
Si  1.36  9.86  4.92
Si  1.37 -9.86 -4.92
Si -1.37  9.86  4.92
Si -9.28 -6.14  0.00
Si  9.28  6.14  0.00
Si -7.58  6.50 -4.92
Si  7.58 -6.50  4.92
Si -5.08  6.69 -7.39
Si  5.08 -6.69  7.39
Si  4.57 -10.23  0.00
Si -4.57 10.23  0.00
Si  4.33 -10.04 -2.46
Si -4.33 10.04  2.46
Si -9.94 -1.68 -4.92
Si  9.94  1.68  4.92
Si -3.39 -10.41  2.46
Si  3.39 10.41 -2.46
Si  7.68 -3.54 -7.39
Si -7.68  3.54  7.39
Si  0.71 -5.40 -9.85
Si -0.71  5.40  9.85
Si -6.41  5.58  7.39
Si  6.41 -5.58 -7.39
Si  9.04  6.32 -2.46
Si -9.04 -6.32  2.46
Si  7.82  8.18  0.00
Si -7.82 -8.18  0.00
Si -7.31 -4.64  7.39
Si  7.31  4.64 -7.39
Si  2.02  5.40  9.85
Si -2.02 -5.40 -9.85
Si -4.72  3.35  9.85
Si  4.72 -3.35 -9.85
Si -11.16  0.18 -2.46
Si 11.16 -0.18  2.46
Si -5.13  2.78 -9.85
Si  5.13 -2.78  9.85
Si  9.51  5.95  2.46
Si -9.51 -5.95 -2.46
Si  1.08 -8.73  7.39
Si -1.08  8.73 -7.39
Si -10.74 -4.09  0.00
Si 10.74  4.09  0.00
Si 10.12 -2.41  4.92
Si -10.12  2.41 -4.92
Si  5.85  6.69 -7.39
Si -5.85 -6.69  7.39
Si  7.58  8.37 -2.46
Si -7.58 -8.37  2.46
Si -1.65 -8.73  7.39
Si  1.65  8.73 -7.39
Si 10.46  0.37 -4.92
Si -10.46 -0.37  4.92
Si  9.61 -5.95 -2.46
Si -9.61  5.95  2.46
Si -8.90  0.55 -7.39
Si  8.90 -0.55  7.39
Si  9.84 -6.14  0.00
Si -9.84  6.14  0.00
Si  5.99 -1.31 -9.85
Si -5.99  1.31  9.85
Si -10.51 -4.28  2.46
Si 10.51  4.28 -2.46
Si  8.05  8.00  2.46
Si -8.05 -8.00 -2.46
Si  3.86 -4.83  9.85
Si -3.86  4.83 -9.85
Si -0.43 -10.60  4.92
Si  0.43 10.60 -4.92
Si  8.95 -1.49 -7.39
Si -8.95  1.49  7.39
Si  6.31 -8.55  4.92
Si -6.31  8.55 -4.92
Si -4.80 10.41 -2.46
Si  4.80 -10.41  2.46
Si -3.44  5.40  9.85
Si  3.44 -5.40 -9.85
Si -8.77 -2.60  7.39
Si  8.77  2.60 -7.39
Si  4.09  9.86  4.92
Si -4.09 -9.86 -4.92
Si  4.10 -9.86 -4.92
Si -4.10  9.86  4.92
Si -7.25 -5.58 -7.39
