500
set: 385.00  0.00  0.00
Si -0.02 -0.07  0.07
Si -0.08  0.10 -2.18
Si  1.87  0.97  0.81
Si -1.83  1.11  0.80
Si -0.01 -2.20  0.75
Si  1.79 -0.94 -2.97
Si  1.83  3.11 -0.02
Si -1.80 -1.07 -2.97
Si -0.04 -2.05  3.03
Si -1.80  3.18 -0.09
Si -3.67 -0.00  0.01
Si  3.73 -0.00  0.01
Si  1.90 -3.23 -0.09
Si -0.04  2.22 -3.02
Si  1.90  1.07  3.08
Si -1.87 -3.30 -0.02
Si -1.91  1.19  3.07
Si -1.89 -0.97  3.70
Si  1.82 -3.10 -2.34
Si -3.68 -2.13  0.66
Si  0.02  2.09  3.76
Si  0.02  4.28  0.66
Si  3.72 -2.13  0.66
Si -3.68 -0.04 -2.28
Si  1.91  3.16 -2.28
Si -1.79 -3.25 -2.28
Si  1.91 -1.11  3.76
Si  3.72 -0.04 -2.28
Si -1.89  3.31 -2.34
Si  0.01  4.24  2.97
Si -3.69 -2.17  2.97
Si  3.71 -2.17  2.97
Si -3.69  2.10 -3.07
Si  3.71  2.10 -3.07
Si  0.01 -4.31 -3.07
Si  3.69  4.21  0.75
Si -1.83 -1.17 -5.23
Si  1.87 -1.03 -5.25
Si -3.71  4.21  0.75
Si  1.87 -5.30  0.80
Si -5.53  0.97  0.81
Si -0.08 -4.17  3.86
Si -0.01  2.07 -5.29
Si  5.57  1.11  0.80
Si  3.62  2.24  3.86
Si -1.83 -5.44  0.81
Si -3.78  2.24  3.86
Si  1.79 -5.22  3.07
Si -1.80 -1.09  5.95
Si  3.66 -4.18 -3.02
Si -3.74 -4.18 -3.02
Si -5.57  3.11 -0.02
Si -5.51 -3.23 -0.09
Si -5.50  1.07  3.08
Si  1.90  5.34 -2.97
Si  0.03 -2.14 -6.03
Si  1.83 -1.16  6.03
Si  5.50  1.19  3.07
Si  0.03  6.41  0.01
Si  0.03 -6.41  0.01
Si -5.61 -0.94 -2.97
Si -1.87  0.97 -6.06
Si  0.03  2.14  6.05
Si -1.80 -5.34  3.08
Si  5.60 -1.07 -2.97
Si  5.60  3.18 -0.09
Si  5.53 -3.30 -0.02
Si  3.66  4.36  3.03
Si -3.74  4.36  3.03
Si  1.90  1.05 -6.13
Si -1.91  5.47 -2.97
Si  0.02  0.01  6.70
Si  5.52 -0.97  3.70
Si -5.49  3.16 -2.28
Si -1.79  5.30  3.76
Si -5.49 -1.11  3.76
Si  0.02  6.37 -2.28
Si -5.58 -3.10 -2.34
Si -3.68 -4.32  3.76
Si  3.72 -4.32  3.76
Si  1.81  5.44  3.70
Si  5.52  3.31 -2.34
Si  0.02 -6.45 -2.28
Si -3.68  2.15 -5.38
Si  0.02 -4.26 -5.38
Si  5.61 -3.25 -2.28
Si  3.72  2.15 -5.38
Si -0.02  4.20 -5.97
Si  3.68  6.34  0.07
Si -3.72  6.34  0.07
Si  3.68 -2.21 -5.97
Si -3.72 -2.21 -5.97
Si  7.38 -0.07  0.07
Si  3.68  2.06  6.11
Si -7.42 -0.07  0.07
Si -3.72  2.06  6.11
Si  3.68 -6.48  0.07
Si -3.72 -6.48  0.07
Si -0.02 -4.34  6.11
Si  3.62 -6.30 -2.18
Si  1.87  5.24 -5.23
Si  7.33  0.10 -2.18
Si -1.83  7.38  0.81
Si -3.78 -6.30 -2.18
Si -5.54 -1.03 -5.25
Si -5.54 -5.30  0.80
Si  5.57 -1.17 -5.23
Si  3.69 -0.06  6.79
Si -1.83  5.38 -5.25
Si -3.71 -0.06  6.79
Si  7.39 -2.20  0.75
Si -1.83  3.11  6.86
Si -1.83 -3.16  6.84
Si  3.62  6.51 -2.18
Si -7.41 -2.20  0.75
Si  3.69 -4.34 -5.29
Si -3.71 -4.34 -5.29
Si  1.86  7.52  0.80
Si -7.48  0.10 -2.18
Si  1.86  3.25  6.84
Si  5.57 -5.44  0.81
Si  1.87 -3.30  6.86
Si -3.78  6.51 -2.18
Si -1.91 -7.35 -2.97
Si  1.90  5.32  5.95
Si -1.87  5.25  6.03
Si  7.36 -2.05  3.03
Si -5.50  5.34 -2.97
Si  5.60 -1.09  5.95
Si -5.61 -5.22  3.07
Si -3.67  4.27 -6.03
Si  7.36  2.22 -3.02
Si  5.53  0.97 -6.06
Si  1.90 -7.47 -2.97
Si -3.67 -4.27  6.05
Si  3.73  4.27 -6.03
Si -1.80  7.48  3.08
Si -5.57 -1.16  6.03
Si -7.44 -2.05  3.03
Si  3.73 -4.27  6.05
Si  5.50  5.47 -2.97
Si -5.51  1.05 -6.13
Si  5.60 -5.34  3.08
Si -7.44  2.22 -3.02
Si  1.83 -5.43 -6.06
Si -1.80 -5.36 -6.13
Si  1.79  7.60  3.07
Si  1.82 -7.38  3.70
Si -7.38  2.09  3.76
Si  0.02 -8.54  0.66
Si -7.38  4.28  0.66
Si  7.42  2.09  3.76
Si -1.79  1.02 -8.32
Si  5.61  5.30  3.76
Si  7.42  4.28  0.66
Si -1.79 -7.52  3.76
Si  0.02 -2.18 -8.32
Si -5.59  5.44  3.70
Si  1.82  1.17 -8.38
Si  0.01 -0.04  9.01
Si -7.39  4.24  2.97
Si  7.41  4.24  2.97
Si  0.01  8.51 -3.07
Si  0.01 -8.58  2.97
Si -7.39 -4.31 -3.07
Si  7.41 -4.31 -3.07
Si  0.01 -0.04 -9.11
Si  3.62 -2.03 -8.22
Si -5.53  5.24 -5.23
Si  7.33 -4.17  3.86
Si -3.78 -2.03 -8.22
Si  5.57  7.38  0.81
Si -1.83 -7.44 -5.25
Si -0.01  6.35  6.79
Si -0.08  4.38 -8.22
Si  7.39  2.07 -5.29
Si -9.24  1.11  0.80
Si -7.41  2.07 -5.29
Si  5.57  5.38 -5.25
Si  9.27  0.97  0.81
Si  5.57  3.11  6.86
Si  5.57 -3.16  6.84
Si -5.54  7.52  0.80
Si -5.54  3.25  6.84
Si -0.01 -6.47  6.79
Si  1.87 -7.58 -5.23
Si -7.48 -4.17  3.86
Si  3.69 -8.61  0.75
Si -3.71 -8.61  0.75
Si -5.53 -3.30  6.86
Si -0.08  8.65  3.86
Si  5.50 -7.35 -2.97
Si -5.51  5.32  5.95
Si  3.66 -8.46  3.03
Si -1.87  9.52 -0.02
Si  9.20 -0.94 -2.97
Si -1.91 -3.08 -9.02
Si  5.53  5.25  6.03
Si  1.83  7.38 -6.06
Si -9.21 -1.07 -2.97
Si -1.80  3.21 -9.01
Si -3.74 -8.46  3.03
Si -9.21  3.18 -0.09
Si  9.23  3.11 -0.02
Si -5.50 -7.47 -2.97
Si  1.90 -3.20 -9.01
Si  1.90 -7.50  5.95
Si -7.37 -2.14 -6.03
Si -7.37  6.41  0.01
Si -7.37 -6.41  0.01
Si  3.66  0.09 -9.06
Si -7.37  2.14  6.05
Si  1.79  3.33 -9.02
Si  1.90  9.59 -0.09
Si  3.66  0.09  9.07
Si -3.74  0.09 -9.06
Si -1.80 -9.64 -0.09
Si -1.91 -3.08  9.11
Si  7.43 -2.14 -6.03
Si -3.74  0.09  9.07
Si  7.43  6.41  0.01
Si  7.43 -6.41  0.01
Si  7.43  2.14  6.05
Si -1.80  7.46 -6.13
Si -1.80  3.21  9.12
Si  5.60  7.48  3.08
Si -9.27 -3.30 -0.02
Si  9.30 -3.23 -0.09
Si  1.90 -3.20  9.12
Si  3.66  8.63 -3.02
Si  9.30  1.07  3.08
Si -1.87 -7.57  6.03
Si -5.57 -5.43 -6.06
Si  1.79  3.33  9.11
Si -9.31  1.19  3.07
Si  1.83 -9.71 -0.02
Si -3.74  8.63 -3.02
Si  5.60 -5.36 -6.13
Si -5.61  7.60  3.07
Si -5.58 -7.38  3.70
Si -3.68 -6.40  6.70
Si -7.38  0.01  6.70
Si -1.89 -9.51 -2.34
Si  1.81  1.17  9.74
Si  3.72 -6.40  6.70
Si -3.68  6.42  6.70
Si  3.72  6.42  6.70
Si  7.42  0.01  6.70
Si -3.68  8.50  3.76
Si -1.79  9.57 -2.28
Si  9.22 -3.10 -2.34
Si  3.72  8.50  3.76
Si -7.38  6.37 -2.28
Si -9.19 -3.25 -2.28
Si -1.79  1.02  9.80
Si -3.68  4.23 -8.32
Si  7.42  6.37 -2.28
Si  0.02 -2.18  9.80
Si -9.29 -0.97  3.70
Si  3.72  4.23 -8.32
Si -1.89 -5.24 -8.38
Si -7.38 -6.45 -2.28
Si -7.38 -4.26 -5.38
Si  5.61  1.02 -8.32
Si  7.42 -6.45 -2.28
Si  9.31  3.16 -2.28
Si  1.91 -5.38 -8.32
Si  9.31 -1.11  3.76
Si  1.91 -9.66 -2.28
Si  5.61 -7.52  3.76
Si  0.02  8.55 -5.38
Si  7.42 -4.26 -5.38
Si -9.29  3.31 -2.34
Si -5.58  1.17 -8.38
Si  1.81  9.71 -2.34
Si  7.38  4.20 -5.97
Si -7.42  4.20 -5.97
Si -0.02  8.47  6.11
Si -0.02 -8.62 -5.97
Si  7.38 -4.34  6.11
Si -7.42 -4.34  6.11
Si -0.01 10.62  0.75
Si  3.69  8.48 -5.29
Si -3.71  8.48 -5.29
Si  5.57 -7.44 -5.25
Si -9.23 -1.17 -5.23
Si  9.27 -1.03 -5.25
Si  9.27 -5.30  0.80
Si -5.53 -7.58 -5.23
Si  3.62 -2.03  9.90
Si -9.23 -5.44  0.81
Si -3.78 -2.03  9.90
Si -0.08  4.38  9.90
Si  5.50 -3.08 -9.02
Si  9.20 -5.22  3.07
Si  5.53  9.52 -0.02
Si -0.04 -10.59 -3.02
Si -9.21 -1.09  5.95
Si -5.50 -3.20 -9.01
Si -5.51 -7.50  5.95
Si -0.04 -6.32 -9.06
Si -0.04 -6.32  9.07
Si -5.57  7.38 -6.06
Si -5.51  9.59 -0.09
Si -11.07 -0.00  0.01
Si -9.21 -5.34  3.08
Si  5.50 -3.08  9.11
Si  5.60  3.21 -9.01
Si  9.23 -1.16  6.03
Si -3.67 -8.55 -6.03
Si -3.67  8.54  6.05
Si  3.73 -8.55 -6.03
Si  3.73  8.54  6.05
Si -9.27  0.97 -6.06
Si -5.50 -3.20  9.12
Si -5.61  3.33 -9.02
Si  9.30  5.34 -2.97
Si 11.13 -0.00  0.01
Si  5.60 -9.64 -0.09
Si  5.53 -7.57  6.03
Si -0.04  6.50 -9.06
Si -0.04  6.50  9.07
Si  5.60  7.46 -6.13
Si  5.60  3.21  9.12
Si  9.30  1.05 -6.13
Si -0.04 10.77  3.03
Si -5.57 -9.71 -0.02
Si -9.31  5.47 -2.97
Si -5.61  3.33  9.11
Si -1.89 -5.24  9.74
Si  5.52 -9.51 -2.34
Si -9.19  5.30  3.76
Si -5.59  1.17  9.74
Si -3.68  4.23  9.80
Si  3.72  4.23  9.80
Si -7.38 -8.54  0.66
Si -11.08 -2.13  0.66
Si -11.08 -0.04 -2.28
Si  5.52 -5.24 -8.38
Si  1.91  7.43 -8.32
Si  5.61  9.57 -2.28
Si  9.22  5.44  3.70
Si -3.68 10.69  0.66
Si  7.42 -8.54  0.66
Si -5.49 -5.38 -8.32
Si  3.72 10.69  0.66
Si -7.38 -2.18 -8.32
Si  5.61  1.02  9.80
Si 11.12 -2.13  0.66
Si -5.49 -9.66 -2.28
Si  1.91 -5.38  9.80
Si 11.12 -0.04 -2.28
Si  7.42 -2.18 -8.32
Si  0.02 -10.72  3.76
Si  0.02  0.01 -11.43
Si -5.59  9.71 -2.34
Si -1.89  7.58 -8.38
Si -3.69  6.37  9.01
Si  3.71  6.37  9.01
Si -3.69 10.64  2.97
Si -7.39 -0.04  9.01
Si  3.71 10.64  2.97
Si  7.41 -0.04  9.01
Si -3.69 -6.45  9.01
Si -7.39  8.51 -3.07
Si  3.71 -6.45  9.01
Si -11.09 -2.17  2.97
Si  7.41  8.51 -3.07
Si -11.09  2.10 -3.07
Si 11.11 -2.17  2.97
Si -7.39 -8.58  2.97
Si -3.69  6.37 -9.11
Si 11.11  2.10 -3.07
Si  7.41 -8.58  2.97
Si  3.71  6.37 -9.11
Si -7.39 -0.04 -9.11
Si -3.69 -10.72 -3.07
Si  7.41 -0.04 -9.11
Si  3.71 -10.72 -3.07
Si -3.69 -6.45 -9.11
Si  3.71 -6.45 -9.11
Si -0.07 -8.44 -8.22
Si  3.62 -10.58  3.86
Si -1.83  3.11 -11.27
Si -9.23  7.38  0.81
Si  7.33  4.38 -8.22
Si  9.27  5.24 -5.23
Si -1.83 -3.17 -11.29
Si  7.39  6.35  6.79
Si -3.78 -10.58  3.86
Si  1.87  9.52  6.86
Si -1.83 -11.71  0.80
Si 11.09  4.21  0.75
Si -7.41  6.35  6.79
Si  1.87 -3.30 -11.27
Si  1.87  3.24 -11.29
Si 11.03  2.24  3.86
Si -9.24  5.38 -5.25
Si -11.11  4.21  0.75
Si  1.87 -9.57  6.84
Si -9.23  3.11  6.86
Si -9.24 -3.16  6.84
Si  3.69 -0.06 -11.34
Si -3.71 -0.06 -11.34
Si  7.39 -6.47  6.79
Si -7.48  4.38 -8.22
Si -7.41 -6.47  6.79
Si  9.27  7.52  0.80
Si  9.27  3.25  6.84
Si -1.83  9.65  6.84
Si  7.33  8.65  3.86
Si -0.01 -10.74 -5.29
Si  9.27 -3.30  6.86
Si  1.87 -11.85  0.81
Si -1.83 -9.71  6.86
Si -11.18  2.24  3.86
Si -7.48  8.65  3.86
Si -1.91 -11.62  3.07
Si  1.90  1.05 11.99
Si 11.06 -4.18 -3.02
Si -9.31 -7.35 -2.97
Si -9.27  5.25  6.03
Si -1.87  0.97 12.07
Si  9.30  5.32  5.95
Si -9.21  7.48  3.08
Si -1.80 11.75 -2.97
Si  0.03  2.13 -12.08
Si  0.03 10.68 -6.03
Si 11.06  4.36  3.03
Si -11.14 -4.18 -3.02
Si  0.03 -10.68  6.05
Si  0.03 -2.14 12.09
Si  1.90 -11.75  3.08
Si  9.30 -7.47 -2.97
Si -9.21 -5.36 -6.13
Si  1.83 -1.16 -12.10
Si  9.23 -5.43 -6.06
Si  9.20  7.60  3.07
Si -11.14  4.36  3.03
Si -1.80 -1.09 -12.18
Si  5.52 -5.24  9.74
Si  9.22 -7.38  3.70
Si  1.79 11.88 -2.97
Si -5.49  7.43 -8.32
Si  1.91 11.71  3.76
Si -9.19  1.02 -8.32
Si  1.91  7.43  9.80
Si -9.19 -7.52  3.76
Si -5.49 -5.38  9.80
Si -7.38 -2.18  9.80
Si -11.09 -4.32  3.76
Si  7.42 -2.18  9.80
Si -1.89  7.58  9.74
Si 11.12 -4.32  3.76
Si -3.68 -10.67 -5.38
Si -11.08  2.15 -5.38
Si  9.22  1.17 -8.38
Si -3.68 -8.59 -8.32
Si -7.38  8.55 -5.38
Si  3.72 -10.67 -5.38
Si  3.72 -8.59 -8.32
Si  7.42  8.55 -5.38
Si 11.12  2.15 -5.38
Si -1.89 11.85  3.70
Si  5.52  7.58 -8.38
Si  3.68 10.61 -5.97
Si -3.72 10.61 -5.97
Si  3.68  2.06 -12.02
Si -0.02 12.75  0.07
Si -3.72  2.06 -12.02
Si 11.08  6.34  0.07
Si -0.02 -4.34 -12.02
Si 11.08 -2.21 -5.97
Si  7.38  8.47  6.11
Si -11.12  6.34  0.07
Si -7.42  8.47  6.11
Si 11.08  2.06  6.11
Si -11.12 -2.21 -5.97
Si  7.38 -8.62 -5.97
Si 11.08 -6.48  0.07
Si -7.42 -8.62 -5.97
Si -0.02  4.20 12.15
Si -11.12  2.06  6.11
Si -11.12 -6.48  0.07
Si  3.68 -2.21 12.15
Si 11.03 -6.30 -2.18
Si -0.02 -12.89  0.07
Si -3.72 -2.21 12.15
Si -0.07 -12.71 -2.18
Si -1.83 11.65 -5.23
Si  3.68 -10.75  6.11
Si -3.72 -10.75  6.11
Si  5.57  3.11 -11.27
Si  7.39 10.62  0.75
Si -9.24 -7.44 -5.25
Si -5.53  9.52  6.86
Si -7.41 10.62  0.75
Si  5.57 -3.17 -11.29
Si -5.53 -3.30 -11.27
Si -5.54  3.24 -11.29
