500
set: 1337.00  0.00  0.00
Si  0.48 -1.91  0.46
Si -0.47  1.04 -1.82
Si -0.29 -1.26 -1.72
Si -1.05 -1.04  1.82
Si -1.23  1.26  1.72
Si -2.00  1.91 -0.46
Si  1.70  2.33 -1.21
Si  0.94  2.56  2.33
Si  2.86 -2.33  1.21
Si  1.10  3.77  0.41
Si  1.24 -2.14 -3.08
Si -3.23 -2.33  1.21
Si -0.29 -4.14  0.41
Si -2.46 -2.56 -2.33
Si -1.23  4.14 -0.41
Si -0.28 -1.69  3.99
Si -1.24  1.69 -4.00
Si  4.08  1.91 -0.46
Si -2.62 -3.77 -0.41
Si -2.77  2.14  3.08
Si  3.62 -2.56 -2.33
Si  3.32  2.14  3.08
Si  1.87  3.54 -3.13
Si -4.38  2.33 -1.21
Si  3.46 -3.77 -0.41
Si  4.86  1.26  1.72
Si  0.47 -4.36 -3.13
Si  0.29  0.81 -5.36
Si  2.70 -3.54  3.13
Si  5.03 -1.04  1.82
Si  0.47 -1.49 -5.26
Si -0.47  3.92 -3.95
Si  2.10 -2.11  4.75
Si  0.34  3.99  3.95
Si -1.05 -3.91  3.95
Si  0.31 -5.57 -1.21
Si -1.82 -0.81  5.36
Si -1.99  4.37  3.13
Si  2.46  2.11 -4.75
Si -3.39 -3.54  3.13
Si -1.99  1.49  5.26
Si -0.45 -5.35  2.33
Si -1.86 -3.99 -3.95
Si -1.07  5.35 -2.33
Si -5.61 -1.91  0.46
Si -1.83  5.57  1.21
Si  5.62  1.04 -1.82
Si -4.84 -2.14 -3.08
Si  5.79 -1.26 -1.72
Si -5.15  2.56  2.33
Si -4.98  3.77  0.41
Si  1.87  5.99  0.46
Si -3.62  2.11 -4.75
Si -4.22  3.54 -3.13
Si  4.86  4.14 -0.41
Si  0.18  2.78  5.87
Si  4.84  1.69 -4.00
Si -3.99 -2.11  4.75
Si  2.69 -5.99 -0.46
Si -1.70 -2.78 -5.87
Si -6.38 -1.26 -1.72
Si  4.09  4.37  3.13
Si  1.93 -5.77  3.08
Si  4.10  1.49  5.26
Si  6.57 -1.91  0.46
Si -6.56  1.04 -1.82
Si  4.27 -0.81  5.36
Si -3.40 -5.99 -0.46
Si  1.10  6.64 -1.72
Si  4.22 -3.99 -3.95
Si  2.63  5.77 -3.08
Si  0.34  6.87  1.82
Si  4.26  5.57  1.21
Si  5.80 -4.14  0.41
Si  5.81 -1.69  3.99
Si  2.00 -2.36 -6.62
Si -4.21  5.99  0.46
Si -1.86 -6.87 -1.82
Si -2.62 -6.64  1.72
Si -3.45  5.77 -3.08
Si -7.14 -1.04  1.82
Si  1.11  6.22  3.99
Si  2.56  2.36  6.62
Si  5.04 -3.91  3.95
Si  1.07 -5.80 -4.75
Si -6.38 -4.14  0.41
Si -7.32  1.26  1.72
Si  3.46 -6.64  1.72
Si -0.48  1.46 -7.54
Si  5.02  5.35 -2.33
Si  1.94 -3.32  6.67
Si -6.37 -1.69  3.99
Si -1.04 -1.46  7.53
Si -4.16 -5.77  3.08
Si -5.62 -4.36 -3.13
Si -0.31  5.12 -5.87
Si  7.03  2.56  2.33
Si  4.38 -2.78 -5.87
Si -5.62 -1.49 -5.26
Si -2.64 -6.22 -4.00
Si -3.53  2.36  6.62
Si -1.21 -5.12  5.87
Si  2.63  3.32 -6.67
Si  5.62  3.92 -3.95
Si -2.59  5.80  4.75
Si -5.79  0.81 -5.36
Si -5.74  3.99  3.95
Si  5.64 -5.35  2.33
Si -5.78 -5.57 -1.21
Si  7.19  3.77  0.41
Si -4.08 -2.36 -6.62
Si  3.45 -6.22 -4.00
Si  1.23 -4.59 -6.67
Si -3.46  3.32 -6.67
Si  7.79  2.33 -1.21
Si  7.33 -2.14 -3.08
Si  4.23 -6.87 -1.82
Si  3.50  5.80  4.75
Si -8.09  1.91 -0.46
Si  0.29  3.69 -7.49
Si  6.38  0.81 -5.36
Si -7.32  4.14 -0.41
Si  6.56 -4.36 -3.13
Si -4.99  6.64 -1.72
Si  1.86  6.42 -5.26
Si -7.33  1.69 -4.00
Si -4.15 -3.32  6.67
Si  6.55 -1.49 -5.26
Si  6.43  3.99  3.95
Si -1.81 -3.69  7.49
Si -2.75  4.59  6.67
Si  6.40 -5.57 -1.21
Si -6.56  3.92 -3.95
Si  1.34 -1.88  8.29
Si -0.42  4.22  7.49
Si -1.10 -4.21 -7.49
Si  1.17 -5.54  6.62
Si  2.70 -6.42  5.26
Si  3.33  4.59  6.67
Si -6.54 -5.35  2.33
Si -5.91  2.78  5.87
Si -0.42  7.09  5.36
Si -4.97  6.22  3.99
Si -1.10 -7.09 -5.36
Si -3.38 -6.42  5.26
Si -2.86  1.88 -8.29
Si  1.05  0.59 -8.90
Si -5.02 -5.80 -4.75
Si  6.27  2.78  5.87
Si -2.69  5.54 -6.62
Si -7.14 -3.91  3.95
Si  1.23 -1.71 -8.80
Si  3.23  1.88 -8.29
Si -5.75  6.87  1.82
Si  0.93  8.94 -1.82
Si  5.05 -1.46  7.53
Si  4.88 -5.12  5.87
Si -8.55 -2.56 -2.33
Si -7.16  5.35 -2.33
Si  7.95  3.54 -3.13
Si  3.40  5.54 -6.62
Si -2.58 -0.59  8.90
Si -4.23  6.42 -5.26
Si  8.95 -2.33  1.21
Si  0.16  9.17  1.72
Si -2.75  1.71  8.80
Si  4.28 -3.69  7.49
Si -4.85 -4.59 -6.67
Si -2.45 -8.94  1.82
Si -1.69 -9.17 -1.72
Si -8.71 -3.77 -0.41
Si  5.61  1.46 -7.54
Si  3.34  1.71  8.80
Si  6.43  6.87  1.82
Si -7.90 -0.81  5.36
Si  3.51 -0.59  8.90
Si -8.85  2.14  3.08
Si -9.31 -2.33  1.21
Si  8.19 -2.11  4.75
Si  5.78  5.12 -5.87
Si -8.08  4.37  3.13
Si -4.75 -1.88  8.29
Si -7.95 -3.99 -3.95
Si -8.08  1.49  5.26
Si -7.92  5.57  1.21
Si  3.64 -8.94  1.82
Si -0.61  9.82 -0.46
Si -0.91 -9.82  0.46
Si -0.58  3.01  9.41
Si  0.35  6.44  7.53
Si -0.94 -3.01 -9.41
Si  4.99 -4.21 -7.49
Si  7.19  6.64 -1.72
Si -4.92 -5.54  6.62
Si  7.96  5.99  0.46
Si  8.79 -3.54  3.13
Si  8.55  2.11 -4.75
Si -6.40  5.12 -5.87
Si -1.87 -6.44 -7.54
Si -6.57  1.46 -7.54
Si  9.41  2.14  3.08
Si -7.79 -2.78 -5.87
Si -5.80  3.69 -7.49
Si  4.99 -7.09 -5.36
Si -4.86 -1.71 -8.80
Si -5.03  0.59 -8.90
Si  9.55 -3.77 -0.41
Si  5.67  4.22  7.49
Si  9.71 -2.56 -2.33
Si  4.40 -9.17 -1.72
Si  7.20  6.22  3.99
Si  8.02 -5.77  3.08
Si 10.17  1.91 -0.46
Si  7.16 -5.80 -4.75
Si  1.69  8.72 -5.36
Si  0.15  9.59 -4.00
Si  1.83 -6.02 -8.29
Si  1.47 -10.24  1.21
Si -7.13 -1.46  7.53
Si -5.16  8.94 -1.82
Si  6.38  3.69 -7.49
Si -0.15 -10.04 -3.08
Si -1.67 -9.59  3.99
Si  5.67  7.09  5.36
Si -9.47 -3.54  3.13
Si -1.37 10.04  3.08
Si  2.73  6.02  8.29
Si  0.45  4.90 -9.41
Si  2.88 -8.72  5.36
Si  8.78 -5.99 -0.46
Si  1.80  2.59 10.16
Si -7.95 -6.87 -1.82
Si -7.30 -5.12  5.87
Si  8.09 -2.36 -6.62
Si -3.21 -8.72  5.36
Si  1.18 -3.09 10.21
Si -2.99 10.24 -1.21
Si  3.10 10.24 -1.21
Si  4.21 -6.44 -7.54
Si -3.35  6.02  8.29
Si -6.50  4.22  7.49
Si -0.60  9.39  5.26
Si -1.97 -4.90  9.41
Si -10.47  2.33 -1.21
Si -0.93 -9.39 -5.26
Si  2.76 -2.59 -10.16
Si  8.72  5.77 -3.08
Si  7.32 -4.59 -6.67
Si  1.94 -6.19  8.80
Si  2.23 -10.46 -2.33
Si  8.03 -3.32  6.67
Si  2.33 10.46  2.33
Si -3.32 -2.59 -10.16
Si -2.70  3.09 -10.21
Si -9.71  2.11 -4.75
Si -6.51  7.09  5.36
Si -5.92  9.17  1.72
Si  2.62  6.19 -8.80
Si -8.71 -6.64  1.72
Si -4.25 -6.02 -8.29
Si  0.71 -10.01  4.75
Si  5.17 -9.82  0.46
Si -4.40  8.72 -5.36
Si  5.15 -3.01 -9.41
Si  0.28  1.24 -11.07
Si  8.65  2.36  6.62
Si 10.95  1.26  1.72
Si  3.39  3.09 -10.21
Si -7.19 -4.21 -7.49
Si -9.48 -5.99 -0.46
Si  6.25  9.17  1.72
Si  5.48  9.82 -0.46
Si  7.26 -5.54  6.62
Si  7.43 -1.88  8.29
Si -1.80 -1.24 11.07
Si  4.41 -9.59  3.99
Si -4.62 -10.24  1.21
Si -2.23 10.01 -4.75
Si -3.47  6.19 -8.80
Si  5.51  3.01  9.41
Si 11.12 -1.04  1.82
Si -4.29  2.59 10.16
Si -10.07 -2.11  4.75
Si -10.31  3.54 -3.13
Si -3.75 10.46  2.33
Si  4.11 -4.90  9.41
Si -3.86 -10.46 -2.33
Si  7.14  0.59 -8.90
Si -7.19 -7.09 -5.36
Si -8.72 -6.22 -4.00
Si -5.74  6.44  7.53
Si  2.00 -4.81 -10.21
Si  8.71  3.32 -6.67
Si -8.68  5.80  4.75
Si  0.41 -5.32 10.16
Si  7.95  6.42 -5.26
Si -7.90 -3.69  7.49
Si  7.01  8.94 -1.82
Si 10.18  4.37  3.13
Si  4.72 10.04  3.08
Si -0.34 -7.32 -8.90
Si -4.14 -6.19  8.80
Si 10.18  1.49  5.26
Si -10.93 -2.14 -3.08
Si -9.54  5.77 -3.08
Si  7.32 -1.71 -8.80
Si  2.57  4.81 10.21
Si -1.18  7.32  8.90
Si  1.05  3.46 -11.03
Si -1.93  5.32 -10.16
Si 10.36 -0.81  5.36
Si -11.07  3.77  0.41
Si 10.94  4.14 -0.41
Si  3.86 10.01 -4.75
Si 10.31 -3.99 -3.95
Si -4.91 -3.09 10.21
Si -11.23  2.56  2.33
Si  9.55 -6.64  1.72
Si 10.93  1.69 -4.00
Si 10.34  5.57  1.21
Si  6.44  6.44  7.53
Si -3.52  4.81 10.21
Si -2.57 -3.46 11.03
Si -11.69 -1.91  0.46
Si  2.07 -11.67 -0.41
Si 11.71  1.04 -1.82
Si -0.34 -4.44 -11.03
Si -6.70  9.82 -0.46
Si -9.61  2.36  6.62
Si -6.67  3.01  9.41
Si -10.30  5.99  0.46
Si  1.31 -11.45  3.13
Si  4.29 -1.24 11.07
Si  5.16 -9.39 -5.26
Si  2.50 11.67  0.41
Si -1.18  4.44 11.03
Si  0.58 -1.66 11.82
Si -5.94  9.59 -4.00
Si -8.84  4.59  6.67
Si -4.09 -4.81 -10.21
Si -5.64  4.90 -9.41
Si  0.16 12.04 -0.41
Si  0.91  9.37 -7.54
Si  9.54 -6.22 -4.00
Si -7.00 -9.82  0.46
Si  5.94 -10.04 -3.08
Si 11.88 -1.26 -1.72
Si  3.52 -3.46 11.03
Si  5.49  9.39  5.26
Si  8.79 -6.42  5.26
Si -9.55  3.32 -6.67
Si  6.24  9.59 -4.00
Si -2.10  1.66 -11.82
Si -7.03 -3.01 -9.41
Si -7.77 -9.17 -1.72
Si -10.24 -5.77  3.08
Si  9.58  5.80  4.75
Si -1.68 -12.04  0.41
Si -2.83 11.45 -3.13
Si  4.16  5.32 -10.16
Si -3.59 11.67  0.41
Si -6.24 -10.04 -3.08
Si  0.61 -10.27 -6.62
Si -2.43 -9.37  7.53
Si  1.57 10.69  5.87
Si  3.26 11.45 -3.13
Si -8.78  5.54 -6.62
Si -5.38 -10.01  4.75
Si 10.47 -2.78 -5.87
Si -8.95  1.88 -8.29
Si -4.02 -11.67 -0.41
Si -10.17 -2.36 -6.62
Si -2.13 10.27  6.62
Si  9.42  4.59  6.67
Si -8.66 -0.59  8.90
Si 11.12 -3.91  3.95
Si  6.54  4.90 -9.41
Si  2.12 -8.49  8.90
Si -8.54 -8.94  1.82
Si  0.92 11.82 -3.95
Si  4.90  7.32  8.90
Si 10.31 -6.87 -1.82
Si  2.45  8.49 -8.90
Si 11.11  5.35 -2.33
Si  2.99 -10.69 -5.87
Si  3.65 -9.37  7.53
Si -5.81  1.24 -11.07
Si  1.81  0.36 -12.44
Si -3.10 -10.69 -5.87
Si  3.99  1.66 -11.82
Si -8.84  1.71  8.80
Si -9.47 -6.42  5.26
Si 11.89 -4.14  0.41
Si  9.31  1.88 -8.29
Si -5.04  3.46 -11.03
Si  1.99 -1.94 -12.34
Si -12.47 -1.26 -1.72
Si  1.74 11.90  3.95
Si -10.23 -3.32  6.67
Si 11.89 -1.69  3.99
Si -6.68  9.39  5.26
Si -0.60 12.27  3.13
Si -0.92 -12.27 -3.13
Si -2.44 -11.82  3.95
Si -7.96 -6.44 -7.54
Si  2.75 -0.36 12.44
Si  2.58  1.94 12.34
Si  7.56 -10.24  1.21
Si -4.78 -11.45  3.13
Si -5.68 -5.32 10.16
Si 12.66 -1.91  0.46
Si -12.64  1.04 -1.82
Si -0.05 -9.79  8.29
Si  9.48  5.54 -6.62
Si -3.64  8.49 -8.90
Si  4.41 -12.04  0.41
Si  6.37  1.24 -11.07
Si  3.96 10.27  6.62
Si -7.01 -9.39 -5.26
Si  2.83 -11.89 -3.95
Si  7.77  8.72 -5.36
Si  4.91  4.44 11.03
Si  5.75 -7.32 -8.90
Si -11.70 -4.36 -3.13
Si -3.34 -0.36 12.44
Si -7.46 10.04  3.08
Si -1.47  9.79 -8.29
Si  7.27 -3.09 10.21
Si -11.71 -1.49 -5.26
Si -3.97 -8.49  8.90
Si -0.41  6.67 11.07
Si  7.92 -6.02 -8.29
Si -3.26 -11.89 -3.95
Si 11.71  3.92 -3.95
Si -7.76 -9.59  3.99
Si -1.11 -6.67 -11.07
Si -3.51  1.94 12.34
Si  3.65 -11.82  3.95
Si  6.80 -10.01  4.75
Si -4.51 10.69  5.87
Si  9.42  1.71  8.80
Si -11.08  6.64 -1.72
Si -0.17 -9.62 -8.80
Si -11.88  0.81 -5.36
Si  0.55 -11.22  6.67
Si -5.18  9.37 -7.54
Si 11.72 -5.35  2.33
Si -11.83  3.99  3.95
Si  9.60 -0.59  8.90
Si -1.36  9.62  8.80
Si  7.89  2.59 10.16
Si -12.46 -4.14  0.41
Si -4.10 -1.94 -12.34
Si -5.51 -1.66 11.82
Si -4.27  0.36 -12.44
Si -11.87 -5.57 -1.21
Si  6.50 -5.32 10.16
Si -12.46 -1.69  3.99
Si -6.43 -7.32 -8.90
Si  5.75 -4.44 -11.03
Si -2.07 11.22 -6.67
Si -10.31  6.42 -5.26
Si -4.35 11.90  3.95
Si -11.06  6.22  3.99
Si 10.36 -3.69  7.49
Si -8.06 -4.90  9.41
Si  9.73 -8.94  1.82
Si -0.18 -3.23 -12.95
Si -5.48 -10.27 -6.62
Si -13.23 -1.04  1.82
Si -11.10 -5.80 -4.75
Si -1.34  3.23 12.95
Si  8.03 -6.19  8.80
Si -5.93 12.04 -0.41
Si 10.96 -5.12  5.87
Si  0.32 13.25 -2.33
Si -5.17 11.82 -3.95
Si -6.43 -4.44 -11.03
Si  8.82  6.02  8.29
Si  1.97  6.25 11.82
Si 11.13 -1.46  7.53
Si -0.44 13.48  1.21
Si 13.12  2.56  2.33
Si  8.32 -10.46 -2.33
Si -13.40  1.26  1.72
Si -1.08 -13.48 -1.21
Si  6.25 12.04 -0.41
Si -1.84 -13.25  2.33
Si  7.14  3.46 -11.03
Si 12.47  0.81 -5.36
Si  8.97 -8.72  5.36
Si -10.94 -4.59 -6.67
Si -7.27  7.32  8.90
Si  2.59 -6.25 -11.82
Si  4.62  9.79 -8.29
Si  8.42 10.46  2.33
Si -11.99  2.78  5.87
Si -7.89 -1.24 11.07
Si  4.02 11.22 -6.67
Si  5.17 -12.27 -3.13
