500
set: 1433.00  0.00  0.00
Si  0.29  0.66  0.32
Si -1.62  0.35 -1.20
Si  1.55 -1.46 -0.18
Si -1.96 -0.70  1.06
Si -0.11 -0.31  2.62
Si -0.20 -2.86  0.32
Si  2.04  2.06 -0.18
Si -0.10 -0.30 -3.00
Si  1.65  1.10 -2.50
Si -1.46  2.82  1.06
Si  1.16 -2.42 -2.50
Si  1.64  1.09  3.13
Si -3.19  1.41  1.62
Si -3.37 -1.05 -1.74
Si  3.39 -1.05 -1.74
Si -2.12 -3.16 -1.20
Si  3.07 -2.11  1.62
Si  1.15 -2.43  3.13
Si  3.56  1.41  1.62
Si  0.38  3.21  2.62
Si -2.87  2.47 -1.74
Si -1.13  3.87 -1.20
Si  0.79  4.18  0.32
Si  0.39  3.22 -3.00
Si -3.69 -2.11  1.62
Si -0.60 -3.83  2.62
Si -1.63  0.34  4.43
Si -0.59 -3.82 -3.00
Si  3.88  2.47 -1.74
Si  4.80 -0.70  1.06
Si -2.45 -4.22  1.06
Si -1.95 -0.69 -4.57
Si  1.05 -4.98 -0.18
Si -4.72  2.06 -0.18
Si -3.38 -1.06  3.88
Si  3.38 -1.06  3.88
Si  5.13  0.35 -1.20
Si -3.18  1.42 -4.01
Si  0.30  0.67 -5.31
Si -5.21 -1.46 -0.18
Si -2.88  2.46  3.88
Si  3.08 -2.10 -4.01
Si  3.57  1.42 -4.01
Si -1.45  2.83 -4.57
Si  2.15  4.62 -2.50
Si  2.90 -4.56 -1.74
Si  4.64 -3.16 -1.20
Si -5.11  1.10 -2.50
Si -3.68 -2.10 -4.01
Si -2.70  4.92  1.62
Si  1.54 -1.47  5.45
Si -2.13 -3.17  4.43
Si  2.13  4.61  3.13
Si -1.14  3.86  4.43
Si  0.28  0.65  5.94
Si  3.87  2.46  3.88
Si -0.19 -2.85 -5.31
Si  5.30  2.82  1.06
Si -5.12  1.09  3.13
Si  4.31 -4.22  1.06
Si  2.53  5.57 -0.18
Si  2.03  2.05  5.45
Si  1.56 -1.45 -5.81
Si -3.86 -4.56 -1.74
Si  2.58 -5.63  1.62
Si -0.69 -6.38  0.32
Si  0.67 -5.94 -2.50
Si -0.97  6.33  1.06
Si  2.05  2.06 -5.81
Si -6.46  0.66  0.32
Si  4.06  4.92  1.62
Si -5.60 -2.42 -2.50
Si -0.21 -2.87  5.94
Si  2.89 -4.57  3.88
Si  4.81 -0.69 -4.57
Si -2.44 -4.21 -4.57
Si -2.38  5.99 -1.74
Si  0.66 -5.95  3.13
Si  5.12  0.34  4.43
Si  0.80  4.18 -5.31
Si -5.61 -2.43  3.13
Si -2.69  4.93 -4.01
Si  5.63  3.87 -1.20
Si -4.61  4.62 -2.50
Si -4.22  5.57 -0.18
Si -1.97 -0.71  6.69
Si -1.61  0.36 -6.83
Si  7.05  0.66  0.32
Si -3.87 -4.57  3.88
Si  4.63 -3.17  4.43
Si  6.65 -0.31  2.62
Si  6.56 -2.86  0.32
Si -4.18 -5.63  1.62
Si -4.62  4.61  3.13
Si  0.88  6.72  2.62
Si -2.61 -6.68 -1.20
Si -5.97  4.18  0.32
Si  0.78  4.17  5.94
Si  6.66 -0.30 -3.00
Si -6.87 -0.31  2.62
Si  2.59 -5.62 -4.01
Si -1.47  2.81  6.69
Si  0.89  6.73 -3.00
Si  1.04 -4.99  5.45
Si -6.86 -0.30 -3.00
Si -4.73  2.05  5.45
Si -0.64  7.39 -1.20
Si -2.39  5.98  3.88
Si -6.96 -2.86  0.32
Si  4.07  4.93 -4.01
Si  5.31  2.83 -4.57
Si  4.32 -4.21 -4.57
Si -5.71 -4.98 -0.18
Si -6.38  3.21  2.62
Si  4.38  5.99 -1.74
Si -5.22 -1.47  5.45
Si  6.15 -3.83  2.62
Si  1.06 -4.97 -5.81
Si -6.37  3.22 -3.00
Si -4.71  2.06 -5.81
Si  1.28  7.69  0.32
Si -2.11 -3.15 -6.83
Si  6.17 -3.82 -3.00
Si -0.96  6.34 -4.57
Si -1.10 -7.34  2.62
Si -5.20 -1.45 -5.81
Si -1.12  3.88 -6.83
Si  4.15 -6.68 -1.20
Si -1.09 -7.33 -3.00
Si -3.21  1.40  7.24
Si -4.17 -5.62 -4.01
Si  5.62  3.86  4.43
Si  3.06 -2.12  7.24
Si -3.36 -1.04 -7.37
Si  3.40 -1.04 -7.37
Si  2.52  5.56  5.45
Si  3.55  1.40  7.24
Si  7.14  3.21  2.62
Si -0.12 -0.32  8.25
Si  4.79 -0.71  6.69
Si -2.86  2.48 -7.37
Si -2.46 -4.23  6.69
Si -0.68 -6.37 -5.31
Si -2.94 -7.74  1.06
Si  4.37  5.98  3.88
Si  1.66  1.11 -8.12
Si -6.45  0.67 -5.31
Si  7.15  3.22 -3.00
Si -3.70 -2.12  7.24
Si  8.30 -1.46 -0.18
Si -2.62 -6.69  4.43
Si  2.54  5.58 -5.81
Si -8.38  0.35 -1.20
Si  0.56 -8.49 -0.18
Si  1.17 -2.41 -8.12
Si  5.14  0.36 -6.83
Si  2.40 -8.08 -1.74
Si -0.65  7.38  4.43
Si  7.55  4.18  0.32
Si -0.09 -0.29 -8.63
Si  5.79  6.33  1.06
Si  7.92 -2.42 -2.50
Si  3.82 -7.74  1.06
Si  3.89  2.48 -7.37
Si -7.36 -3.83  2.62
Si -0.70 -6.38  5.94
Si -8.22  2.82  1.06
Si -8.71 -0.70  1.06
Si  6.07 -6.38  0.32
Si -7.35 -3.82 -3.00
Si -6.47  0.65  5.94
Si  4.65 -3.15 -6.83
Si  8.41  1.10 -2.50
Si  7.91 -2.43  3.13
Si  0.37  3.20  8.25
Si  7.06  0.67 -5.31
Si -4.24  5.56  5.45
Si -6.09 -5.94 -2.50
Si -7.89  3.87 -1.20
Si -2.21  8.44  1.62
Si  2.64  8.13 -2.50
Si  6.57 -2.85 -5.31
Si  1.63  1.08  8.75
Si  5.29  2.81  6.69
Si  4.30 -4.23  6.69
Si -5.96  4.18 -5.31
Si  4.14 -6.69  4.43
Si  8.40  1.09  3.13
Si  8.80  2.06 -0.18
Si -6.10 -5.95  3.13
Si -4.21  5.58 -5.81
Si  2.63  8.12  3.13
Si -0.61 -3.84  8.25
Si  2.91 -4.55 -7.37
Si  1.14 -2.44  8.75
Si -2.71  4.92  7.24
Si -6.95 -2.85 -5.31
Si  0.40  3.23 -8.63
Si  7.04  0.65  5.94
Si -0.98  6.32  6.69
Si  7.81 -4.98 -0.18
Si  2.39 -8.09  3.88
Si  6.55 -2.87  5.94
Si -5.88  6.72  2.62
Si -5.71 -4.99  5.45
Si -4.35 -8.08 -1.74
Si -5.98  4.17  5.94
Si -5.87  6.73 -3.00
Si -2.93 -7.73 -4.57
Si  1.29  7.70 -5.31
Si -5.48  7.69  0.32
Si -0.58 -3.81 -8.63
Si -4.12  8.13 -2.50
Si -3.85 -4.55 -7.37
Si -8.39  0.34  4.43
Si -8.88 -3.16 -1.20
Si  2.08 -9.14  1.62
Si  2.57 -5.64  7.24
Si -5.69 -4.97 -5.81
Si  3.03  9.09 -0.18
Si  2.16  4.62 -8.12
Si -6.97 -2.87  5.94
Si -2.20  8.45 -4.01
Si -4.13  8.12  3.13
Si  5.66 -7.34  2.62
Si  4.05  4.92  7.24
Si -5.09  1.11 -8.12
Si  5.64  3.88 -6.83
Si  6.12  7.39 -1.20
Si  4.55  8.44  1.62
Si  5.80  6.34 -4.57
Si  5.67 -7.33 -3.00
Si  3.83 -7.73 -4.57
Si  0.17 -9.45 -2.50
Si -2.37  6.00 -7.37
Si  1.27  7.68  5.94
Si -8.21  2.83 -4.57
Si -7.45 -6.38  0.32
Si -3.73  9.09 -0.18
Si  7.42 -5.94 -2.50
Si -7.90  3.86  4.43
Si -1.89  9.50 -1.74
Si -8.70 -0.69 -4.57
Si -2.60 -6.67 -6.83
Si -0.47  9.85  1.06
Si  0.16 -9.46  3.13
Si -1.19 -9.89  0.32
Si -4.37 -8.09  3.88
Si  7.41 -5.95  3.13
Si  8.29 -1.47  5.45
Si -7.73  6.33  1.06
Si  0.68 -5.93 -8.12
Si -0.63  7.40 -6.83
Si -4.19 -5.64  7.24
Si -9.63  2.47 -1.74
Si  2.12  4.60  8.75
Si  0.55 -8.50  5.45
Si  7.56  4.18 -5.31
Si  3.37 -1.06  9.51
Si -5.59 -2.41 -8.12
Si -3.39 -1.06  9.51
Si -9.95  1.41  1.62
Si  9.83 -2.11  1.62
Si -9.21 -4.22  1.06
Si -1.65  0.34 10.05
Si  2.09 -9.13 -4.01
Si -5.13  1.08  8.75
Si -2.90  2.45  9.51
Si -3.17  1.43 -9.63
Si  8.32 -1.45 -5.81
Si  6.08 -6.37 -5.31
Si  0.57 -8.49 -5.81
Si -10.13 -1.05 -1.74
Si  3.09 -2.09 -9.63
Si  8.90  4.62 -2.50
Si 10.15 -1.05 -1.74
Si  3.58  1.43 -9.63
Si -1.93 -0.68 -10.19
Si -4.67 -9.14  1.62
Si  4.56  8.45 -4.01
Si  4.16 -6.67 -6.83
Si -4.60  4.62 -8.12
Si -8.88 -3.17  4.43
Si -1.90  9.49  3.88
Si  7.54  4.17  5.94
Si  4.39  6.00 -7.37
Si  8.89  4.61  3.13
Si  7.63  6.72  2.62
Si -6.20 -8.49 -0.18
Si -3.67 -2.09 -9.63
Si -7.39  7.39 -1.20
Si  8.79  2.05  5.45
Si 10.32  1.41  1.62
Si  6.11  7.38  4.43
Si  3.86  2.45  9.51
Si  6.64 -0.32  8.25
Si  0.64 -5.95  8.75
Si  6.05 -6.38  5.94
Si  7.64  6.73 -3.00
Si -2.95 -7.74  6.69
Si  1.37 10.24  2.62
Si  0.86  6.72  8.25
Si -1.44  2.83 -10.19
Si -9.64  2.46  3.88
Si -5.62 -2.44  8.75
Si -3.10 -10.20 -1.20
Si  7.80 -4.99  5.45
Si -6.88 -0.32  8.25
Si  8.81  2.06 -5.81
Si -2.14 -3.18 10.05
Si  1.38 10.25 -3.00
Si -10.45 -2.11  1.62
Si -9.46  4.92  1.62
Si -8.37  0.36 -6.83
Si -9.94  1.42 -4.01
Si  4.87  9.50 -1.74
Si  9.65 -4.56 -1.74
Si -1.15  3.85 10.05
Si  9.84 -2.10 -4.01
Si -5.47  7.70 -5.31
Si  9.29  5.57 -0.18
Si  5.78  6.32  6.69
Si -0.47  9.86 -4.57
Si  3.65 -10.20 -1.20
Si -10.14 -1.06  3.88
Si 10.14 -1.06  3.88
Si  6.67 -0.29 -8.63
Si -6.39  3.20  8.25
Si  3.81 -7.74  6.69
Si -4.63  4.60  8.75
Si  7.82 -4.97 -5.81
Si  2.88 -4.58  9.51
Si  0.32  0.68 -10.93
Si -8.23  2.81  6.69
Si -0.14 10.91 -1.20
Si  6.14 -3.84  8.25
Si -7.72  6.34 -4.57
Si  0.90  6.74 -8.63
Si  3.02  9.08  5.45
Si -4.66 -9.13 -4.01
Si -8.72 -0.71  6.69
Si -6.85 -0.29 -8.63
Si  9.34 -5.63  1.62
Si 10.64  2.47 -1.74
Si -9.14  5.99 -1.74
Si -7.86 -7.34  2.62
Si -9.20 -4.21 -4.57
Si -1.11 -7.35  8.25
Si -7.88  3.88 -6.83
Si  8.04  7.69  0.32
Si -7.44 -6.37 -5.31
Si -7.84 -7.33 -3.00
Si -2.68  4.94 -9.63
Si -5.49  7.68  5.94
Si 10.33  1.42 -4.01
Si -6.35  3.23 -8.63
Si  2.41 -8.07 -7.37
Si  3.04  9.10 -5.81
Si  7.32 -8.49 -0.18
Si -3.74  9.08  5.45
Si -3.88 -4.58  9.51
Si  1.53 -1.48 11.07
Si  6.17 -3.81 -8.63
Si -1.18 -9.88 -5.31
Si  5.11  0.34 10.05
Si -1.59 -10.86  2.62
Si -2.43 -4.20 -10.19
Si  4.82 -0.68 -10.19
Si -0.18 -2.84 -10.93
Si -2.22  8.43  7.24
Si  4.86  9.49  3.88
Si -7.41  7.38  4.43
Si  1.77 11.21  0.32
Si  5.57 -9.89  0.32
Si  9.64 -4.57  3.88
Si  7.13  3.20  8.25
Si -1.08 -7.33 -8.63
Si -1.58 -10.85 -3.00
Si -10.44 -2.10 -4.01
Si -9.45  4.93 -4.01
Si -3.72  9.10 -5.81
Si  2.02  2.04 11.07
Si  2.60 -5.61 -9.63
Si -7.46 -6.38  5.94
Si -2.40  5.97  9.51
Si  4.62 -3.18 10.05
Si -3.11 -10.21  4.43
Si -9.37 -6.68 -1.20
Si  4.08  4.94 -9.63
Si 10.63  2.46  3.88
Si  0.27  0.64 11.57
Si -9.15  5.98  3.88
Si  7.93 -2.41 -8.12
Si -1.20 -9.90  5.94
Si  9.35 -5.62 -4.01
Si -8.86 -3.15 -6.83
Si  1.57 -1.44 -11.43
Si 11.56 -0.70  1.06
Si -11.48  2.06 -0.18
Si  7.16  3.23 -8.63
Si -10.62 -4.56 -1.74
Si  3.64 -10.21  4.43
Si -7.37 -3.84  8.25
Si  6.28  9.85  1.06
Si  0.81  4.19 -10.93
Si -6.08 -5.93 -8.12
Si  8.42  1.11 -8.12
Si -4.34 -8.07 -7.37
Si -0.15 10.90  4.43
Si  3.32 -11.25  1.06
Si  6.13  7.40 -6.83
Si -6.59 -9.45 -2.50
Si  2.06  2.07 -11.43
Si  2.65  8.14 -8.12
Si -3.44 -11.25  1.06
Si  5.32  2.83 -10.19
Si  4.33 -4.20 -10.19
Si -6.21 -8.50  5.45
Si  2.07 -9.15  7.24
Si -5.39 10.24  2.62
Si  1.91 -11.60 -1.74
Si 11.40 -3.16 -1.20
Si 11.07 -4.22  1.06
Si -4.16 -5.61 -9.63
Si -0.49  9.84  6.69
Si -0.22 -2.88 11.57
Si -6.60 -9.46  3.13
Si -7.34 -3.81 -8.63
Si 11.89  0.35 -1.20
Si -5.38 10.25 -3.00
Si  6.93 -9.45 -2.50
Si 10.81  4.92  1.62
Si -6.19 -8.49 -5.81
Si  4.54  8.43  7.24
Si  0.07 -12.01 -0.18
Si -7.74  6.32  6.69
Si  7.90 -2.44  8.75
Si  4.36  5.97  9.51
Si -0.95  6.35 -10.19
Si -11.97 -1.46 -0.18
Si  9.28  5.56  5.45
Si  6.92 -9.46  3.13
Si  5.61  3.85 10.05
Si -9.22 -4.23  6.69
Si -5.89  6.72  8.25
Si  8.39  1.08  8.75
Si -11.86  1.10 -2.50
Si -1.88  9.51 -7.37
Si -1.71 11.96  1.62
Si  1.03 -5.00 11.07
Si -10.63 -4.57  3.88
Si -4.11  8.14 -8.12
Si -4.74  2.04 11.07
Si  2.62  8.11  8.75
Si -6.11 -5.95  8.75
Si -7.23  9.85  1.06
Si -4.98 11.21  0.32
Si  9.30  5.58 -5.81
Si  5.17 -10.86  2.62
Si -10.98  5.57 -0.18
Si  0.77  4.16 11.57
Si  3.13 11.65 -2.50
Si -11.88  1.09  3.13
Si -5.23 -1.48 11.07
Si  9.16 -8.08 -1.74
Si  8.05  7.70 -5.31
Si -9.38 -6.69  4.43
Si -2.63 -6.70 10.05
Si -9.62  2.48 -7.37
Si  9.82 -2.12  7.24
Si  1.90 -11.61  3.88
Si  5.18 -10.85 -3.00
Si -9.96  1.40  7.24
Si -10.94 -5.63  1.62
Si  5.65 -7.35  8.25
Si -5.86  6.74 -8.63
Si -8.97  8.44  1.62
Si 12.05  2.82  1.06
Si  3.12 11.64  3.13
Si -9.70 -7.74  1.06
Si -3.63 11.65 -2.50
Si 11.57 -0.69 -4.57
Si  0.18 -9.44 -8.12
Si  7.31 -8.50  5.45
Si -0.66  7.37 10.05
Si -7.38  7.40 -6.83
Si -1.98 -0.72 12.31
Si  7.43 -5.93 -8.12
Si  1.07 -4.96 -11.43
Si -11.37  4.62 -2.50
Si  5.58 -9.88 -5.31
Si -4.70  2.07 -11.43
Si  1.78 11.22 -5.31
Si 10.83  4.93 -4.01
Si  6.29  9.86 -4.57
Si -10.12 -1.04 -7.37
Si -1.60  0.37 -12.45
Si -4.68 -9.15  7.24
Si  3.33 -11.24 -4.57
Si -3.64 11.64  3.13
