500
set: 1062.00  0.00  0.00
Si  0.35 -1.21  0.83
Si -0.40  1.17 -0.88
Si  1.30  1.22  0.81
Si -1.30 -1.22 -0.84
Si  2.12 -1.23 -0.73
Si -0.83  0.03  2.44
Si  0.90 -0.02 -2.44
Si -2.13  1.21  0.87
Si -3.05 -1.13  0.78
Si  3.05  1.12 -0.83
Si  0.01 -2.39 -2.40
Si  0.04  2.37  2.46
Si  2.55  0.03  2.41
Si -0.48 -3.43  0.81
Si  0.49  3.43 -0.84
Si -2.60 -0.03 -2.45
Si  1.72 -2.29  2.40
Si  1.80  2.26 -2.40
Si -1.74 -2.28  2.46
Si -1.74  2.35 -2.45
Si -1.26  3.52  0.78
Si  1.26 -3.53 -0.83
Si -0.85  0.05 -4.03
Si  2.14  3.44  0.83
Si  3.90 -1.13  0.78
Si -3.90  1.12 -0.83
Si  0.90 -0.06  4.09
Si -2.18 -3.48 -0.88
Si -3.05  3.42 -0.73
Si  3.03 -3.44  0.87
Si  0.01 -2.35  4.05
Si  0.06  2.36 -4.05
Si  3.43 -2.30 -2.45
Si -3.44  2.36  2.40
Si -2.63  0.03  4.04
Si  2.61  0.04 -4.08
Si  3.51  2.36  2.40
Si -3.52 -2.30 -2.45
Si -1.71  2.29  4.04
Si -1.73 -2.29 -4.05
Si  1.66 -2.29 -4.08
Si  4.35 -0.03 -2.45
Si  1.79  2.31  4.05
Si -4.40  0.03  2.41
Si -4.83 -1.23 -0.73
Si  4.82  1.21  0.87
Si  3.90  3.42 -0.73
Si  0.77 -4.62  2.41
Si -3.92 -3.44  0.87
Si -0.82  4.62 -2.45
Si -0.89 -4.67 -2.44
Si  0.95  4.68  2.44
Si -0.41  1.10  5.65
Si  0.41 -1.10 -5.67
Si  3.46 -2.36  4.04
Si -5.65  1.22  0.81
Si  3.44  2.36 -4.08
Si -3.49 -2.36  4.04
Si -2.62 -4.62  2.44
Si  5.65 -1.22 -0.84
Si -1.29 -1.16  5.60
Si  2.56 -4.68 -2.45
Si -3.51  2.36 -4.08
Si -2.61  4.68  2.41
Si  2.69  4.63 -2.44
Si  1.25  1.11 -5.66
Si  4.32  0.03  4.04
Si  0.33 -5.88 -0.73
Si -0.35  5.86  0.87
Si -4.34  0.04 -4.08
Si  4.77 -3.48 -0.88
Si -4.81  3.44  0.83
Si  1.39  5.82 -0.88
Si -1.43 -5.86  0.83
Si -5.15  2.26 -2.40
Si  2.16 -1.21  5.66
Si  5.21 -2.28  2.46
Si -5.23 -2.29  2.40
Si -2.11  5.77 -0.83
Si  2.12 -5.78  0.78
Si  0.83 -4.61 -4.08
Si -2.16  1.20 -5.71
Si  5.21  2.35 -2.45
Si -0.84  4.68  4.04
Si  0.93  4.70 -4.03
Si -0.88 -4.71  4.09
Si -3.02 -1.11 -5.62
Si -6.05 -0.02 -2.44
Si  6.12  0.03  2.44
Si  3.01  1.10  5.76
Si  0.49  3.49  5.60
Si  2.54 -4.62  4.04
Si -2.64 -4.60 -4.03
Si -3.08 -5.87 -0.84
Si  3.09  5.87  0.81
Si -0.54 -3.54 -5.66
Si  2.69  4.59  4.09
Si  6.55  1.17 -0.88
Si -2.55  4.69 -4.08
Si  5.68  3.52  0.78
Si -5.68 -3.53 -0.83
Si -4.26  4.63 -2.44
Si -1.24  3.54 -5.62
Si -6.59 -1.21  0.83
Si  4.33 -4.62  2.44
Si  4.33  4.68  2.41
Si -4.39 -4.68 -2.45
Si  1.22 -3.55  5.76
Si  3.92 -1.11 -5.62
Si -5.16  2.31  4.05
Si  5.22 -2.29 -4.05
Si  5.24  2.29  4.04
Si -2.19 -3.54  5.65
Si  2.20  3.55 -5.67
Si -3.94  1.10  5.76
Si -5.29 -2.29 -4.08
Si -3.86  5.87  0.81
Si  3.87 -5.87 -0.84
Si -3.01  3.44  5.66
Si -6.05 -0.06  4.09
Si  6.10  0.05 -4.03
Si  3.01 -3.46 -5.71
Si -0.06 -6.94  2.40
Si -6.46  3.43 -0.84
Si  6.47 -3.43  0.81
Si  0.41 -1.10  7.30
Si  0.05  7.00 -2.45
Si -0.41  1.10 -7.33
Si  7.30 -1.21  0.83
Si -4.26  4.59  4.09
Si  4.31 -4.60 -4.03
Si -7.35  1.17 -0.88
Si  1.25  1.11  7.32
Si -4.79 -1.21  5.66
Si  4.79  1.20 -5.71
Si  1.64 -6.95 -2.45
Si -4.41 -4.62  4.04
Si -1.29 -1.16 -7.37
Si  4.83  5.77 -0.83
Si -4.83 -5.78  0.78
Si -1.66  7.01  2.40
Si  4.40  4.69 -4.08
Si -1.77 -7.04 -2.40
Si  1.83  7.02  2.46
Si -2.16  1.20  7.27
Si -6.91  2.37  2.46
Si  3.94  3.44  5.66
Si -6.94 -2.39 -2.40
Si  2.16 -1.21 -7.32
Si  6.96 -2.39 -2.40
Si -3.94 -3.46 -5.71
Si  6.99  2.37  2.46
Si  3.01  1.10 -7.22
Si -6.00  4.68  2.44
Si  6.06 -4.67 -2.44
Si  0.08  6.94  4.04
Si -3.02 -1.11  7.36
Si  5.66 -1.16  5.60
Si -0.13 -6.94 -4.08
Si -3.37  6.91 -2.40
Si  6.13  4.62 -2.45
Si -6.18 -4.62  2.41
Si  5.52 -5.86  0.83
Si -5.56  5.82 -0.88
Si  3.42 -6.93  2.46
Si -5.70  1.11 -5.66
Si  1.22 -3.55 -7.22
Si  3.58  6.91 -2.40
Si -0.54 -3.54  7.32
Si -3.53 -6.93  2.46
Si  0.37 -5.86  5.66
Si -7.78  0.03  2.44
Si  0.49  3.49 -7.37
Si -0.37  5.84 -5.71
Si  1.38  5.75  5.65
Si  4.76 -3.54  5.65
Si -1.37 -5.75 -5.67
Si -1.26  8.07 -0.73
Si -4.75  3.55 -5.67
Si  7.85 -0.02 -2.44
Si  0.52  8.17  0.78
Si -7.43 -3.43  0.81
Si  1.25 -8.09  0.87
Si  7.44  3.43 -0.84
Si -0.52 -8.18 -0.83
Si  1.67 -7.01  4.04
Si -1.24  3.54  7.36
Si -1.78 -7.00  4.05
Si -1.72  7.01 -4.08
Si -3.94  1.10 -7.22
Si  1.84  7.01 -4.05
Si  2.14 -5.76 -5.62
Si -6.89  2.36 -4.05
Si -6.94 -2.35  4.05
Si -8.25 -1.22 -0.84
Si  8.25  1.22  0.81
Si  6.96 -2.35  4.05
Si  2.20  3.55  7.30
Si  3.93 -1.11  7.36
Si -2.15  5.75  5.76
Si -2.19 -3.54 -7.33
Si  7.01  2.36 -4.05
Si -2.27 -8.08  0.81
Si  2.27  8.08 -0.84
Si  3.01 -3.46  7.27
Si  3.03  5.76 -5.66
Si -3.01  3.44 -7.32
Si -6.02  4.70 -4.03
Si -3.08 -5.81  5.60
Si -3.02  8.09  0.83
Si -6.12 -4.61 -4.08
Si  6.11  4.68  4.04
Si  6.07 -4.71  4.09
Si  2.98 -8.13 -0.88
Si  6.54  1.10  5.65
Si -6.54 -1.10 -5.67
Si -3.37  6.96  4.05
Si  3.44 -6.94 -4.05
Si  5.71  3.54 -5.62
Si -3.51 -6.94 -4.05
Si -7.80  0.05 -4.03
Si  4.79  1.20  7.27
Si  3.58  6.96  4.05
Si -4.79 -1.21 -7.32
Si  7.85 -0.06  4.09
Si -5.73 -3.55  5.76
Si  6.60  5.86  0.87
Si -6.62 -5.88 -0.73
Si  0.90 -0.06 -8.88
Si  3.87 -5.81  5.60
Si -3.94 -3.46  7.27
Si -8.21  3.52  0.78
Si -3.92  5.76 -5.66
Si  8.21 -3.53 -0.83
Si -0.85  0.05  8.94
Si  3.94  3.44 -7.32
Si  3.92  8.09  0.83
Si -5.12  7.02  2.46
Si  5.17 -7.04 -2.40
Si -5.31 -6.95 -2.45
Si -3.97 -8.13 -0.88
Si  5.29  7.01  2.40
Si  9.07 -1.23 -0.73
Si -9.08  1.21  0.87
Si  0.01 -2.35 -8.92
Si  0.06  2.36  8.93
Si -6.46  3.49  5.60
Si  6.41 -3.54 -5.66
Si  2.61  0.04  8.89
Si  8.67 -2.29  2.40
Si  7.71 -4.62  2.41
Si -2.63  0.03 -8.94
Si -8.69 -2.28  2.46
Si -8.69  2.35 -2.45
Si  1.66 -2.29  8.90
Si -0.37  5.84  7.27
Si -7.36  1.10  5.65
Si -5.70  1.11  7.32
Si  8.74  2.26 -2.40
Si  7.36 -1.10 -5.67
Si -7.77  4.62 -2.45
Si  5.66 -1.16 -7.37
Si -4.68  8.08 -0.84
Si -4.81 -5.76 -5.62
Si  4.68 -8.08  0.81
Si  0.37 -5.86 -7.32
Si -1.73 -2.29  8.93
Si -1.71  2.29 -8.94
Si  7.28 -5.88 -0.73
Si  1.79  2.31 -8.92
Si -1.37 -5.75  7.30
Si -7.30  5.86  0.87
Si -4.75  3.55  7.30
Si  1.38  5.75 -7.33
Si  4.76 -3.54 -7.33
Si -7.83 -4.67 -2.44
Si  4.79  5.75  5.76
Si -2.16  5.75 -7.22
Si  7.90  4.68  2.44
Si -5.10  7.01 -4.05
Si  2.14 -5.76  7.36
Si  5.17 -7.00  4.05
Si -1.02 -9.27  2.41
Si  0.97  9.27 -2.45
Si  5.23  7.01 -4.08
Si -5.28 -7.01  4.04
Si -0.83  9.34  2.41
Si  0.78 -9.33 -2.45
Si  9.09  3.44  0.83
Si  8.61 -2.29 -4.08
Si  3.03  5.76  7.32
Si  9.50  0.03  2.41
Si -5.57  5.75  5.65
Si -9.13 -3.48 -0.88
Si  5.58 -5.75 -5.67
Si -8.66  2.29  4.04
Si  3.44  2.36  8.90
Si -8.67 -2.29 -4.05
Si -3.51  2.36  8.90
Si -9.55 -0.03 -2.45
Si -6.54 -1.10  7.30
Si  3.46 -2.36 -8.94
Si -5.73 -3.55 -7.22
Si -3.08 -5.81 -7.37
Si -3.49 -2.36 -8.94
Si  6.54  1.10 -7.33
Si -4.34  0.04  8.89
Si  5.69  8.07 -0.73
Si  8.74  2.31  4.05
Si -2.48  9.28 -2.44
Si  2.55 -9.27  2.44
Si  7.78 -4.61 -4.08
Si  4.32  0.03 -8.94
Si -5.70 -8.09  0.87
Si  0.55  8.19 -5.62
Si -7.79  4.68  4.04
Si  7.44  3.49  5.60
Si -1.22  8.10  5.66
Si  5.71  3.54  7.36
Si  1.22 -8.11 -5.71
Si -2.67 -9.32 -2.44
Si -7.83 -4.71  4.09
Si  8.20  1.11 -5.66
Si  7.88  4.70 -4.03
Si  2.74  9.33  2.44
Si -7.49 -3.54 -5.66
Si -8.24 -1.16  5.60
Si -0.56 -8.20  5.76
Si  0.83 -4.61  8.89
Si  6.88 -6.94  2.40
Si -10.00 -1.13  0.78
Si -0.88 -4.71 -8.88
Si 10.00  1.12 -0.83
Si -3.92  5.76  7.32
Si -0.84  4.68 -8.94
Si -6.90  7.00 -2.45
Si  0.75 -9.28  4.04
Si  2.28  8.14  5.60
Si  0.93  4.70  8.94
Si  3.87 -5.81 -7.37
Si -7.01 -6.94  2.40
Si -0.96 -9.26 -4.08
Si  7.00  7.00 -2.45
Si  8.34  5.82 -0.88
Si  0.94  9.33  4.04
Si -2.32 -8.19 -5.66
Si -0.77  9.34 -4.08
Si -8.38 -5.86  0.83
Si  6.41 -3.54  7.32
Si  2.69  4.59 -8.88
Si -2.55  4.69  8.89
Si  2.54 -4.62 -8.94
Si  2.97 -8.20  5.65
Si -9.58  0.03  4.04
Si  9.56  0.04 -4.08
Si -2.64 -4.60  8.94
Si  4.79  5.75 -7.22
Si -2.97  8.20 -5.67
Si -6.46  3.49 -7.37
Si -2.48  9.24  4.09
Si  2.53 -9.25 -4.03
Si -6.43  8.17  0.78
Si  7.36 -1.10  7.30
Si  6.43 -8.18 -0.83
Si -7.36  1.10 -7.33
Si -0.33 10.42 -0.83
Si  0.33 -10.43  0.78
Si -6.58 -5.86  5.66
Si  6.58  5.84 -5.71
Si -4.81 -5.76  7.36
Si -4.21  9.33  2.44
Si  2.72  9.35 -4.03
Si -8.19  3.54 -5.62
Si  4.28 -9.32 -2.44
Si -4.40 -9.27  2.44
Si  6.82 -6.94 -4.08
Si -2.67 -9.36  4.09
Si -5.16  2.31 -8.92
Si -0.83  0.03 -10.54
Si -6.87  6.94  4.04
Si  0.90 -0.02 10.54
Si  4.47  9.28 -2.44
Si -10.00  3.42 -0.73
Si  9.98 -3.44  0.87
Si  5.22 -2.29  8.93
Si -5.29 -2.29  8.90
Si  8.17 -3.55  5.76
Si  5.24  2.29 -8.94
Si  1.44 10.51  0.87
Si -1.45 -10.53 -0.73
Si  7.03  6.94  4.04
Si -3.98 -8.20  5.65
Si -7.08 -6.94 -4.08
Si  3.98  8.20 -5.67
Si -6.05 -0.06 -8.88
Si -2.08 10.52  0.81
Si  2.08 -10.52 -0.84
Si -9.06  5.77 -0.83
Si  9.06 -5.78  0.78
Si  0.04  2.37 -10.52
Si  9.11 -1.21  5.66
Si -9.11  1.20 -5.71
Si  6.10  0.05  8.94
Si  5.58 -5.75  7.30
Si -2.60 -0.03 10.53
Si  0.01 -2.39 10.58
Si -5.57  5.75 -7.33
Si -4.26  4.59 -8.88
Si  2.55  0.04 -10.57
Si  9.51 -4.68 -2.45
Si -9.57 -4.62  2.44
Si -1.74 -2.28 -10.52
Si 10.38 -2.30 -2.45
Si -9.56  4.68  2.41
Si -10.39  2.36  2.40
Si -1.74  2.35 10.53
Si -4.67  8.14  5.60
Si 10.85 -1.13  0.78
Si -10.85  1.12 -0.83
Si -0.56 -8.20 -7.22
Si  4.31 -4.60  8.94
Si  1.72 -2.29 -10.57
Si  7.32 -5.86  5.66
Si  1.22 -8.11  7.27
Si  9.63  4.63 -2.44
Si  1.80  2.26 10.58
Si -7.32  5.84 -5.71
Si  4.40  4.69  8.89
Si  4.63 -8.19 -5.66
Si  3.17 10.47 -0.88
Si -1.22  8.10 -7.32
Si 10.46  2.36  2.40
Si -4.41 -4.62 -8.94
Si -10.47 -2.30 -2.45
Si -4.42 -9.25 -4.03
Si  0.55  8.19  7.36
Si -3.22 -10.51  0.83
Si -4.23  9.35 -4.03
Si  7.44  3.49 -7.37
Si  8.20  1.11  7.32
Si  4.47  9.24  4.09
Si -7.49 -3.54  7.32
Si  4.28 -9.36  4.09
Si  7.47  8.17  0.78
Si -7.47 -8.18 -0.83
Si -8.24 -1.16 -7.37
Si -3.78 10.47 -0.88
Si  3.73 -10.51  0.83
Si  2.28  8.14 -7.37
Si -2.32 -8.19  7.32
Si  5.93 -9.27  2.41
Si -0.13 -6.94  8.90
Si  9.48 -4.62  4.04
Si -5.98  9.27 -2.45
Si  3.43 -2.30 10.53
Si -9.14 -3.54  5.65
Si  0.08  6.95 -8.94
Si  8.59 -6.95 -2.45
Si  9.14  3.55 -5.67
Si -3.52 -2.30 10.53
Si -9.50  4.69 -4.08
Si -8.61  7.01  2.40
Si -3.44  2.36 -10.57
Si -2.97  8.20  7.30
Si -9.59 -4.60 -4.03
Si  3.51  2.36 -10.57
Si  2.97 -8.20 -7.33
Si  4.35 -0.03 10.53
Si 10.85  3.42 -0.73
Si 10.40 -2.36  4.04
Si 10.39  2.36 -4.08
Si  6.58  5.84  7.27
Si  5.73  8.10  5.66
Si  6.12  9.34  2.41
Si -10.87 -3.44  0.87
Si  9.64  4.59  4.09
Si -10.44 -2.36  4.04
Si -4.40  0.04 -10.57
Si -6.58 -5.86 -7.32
Si -5.73 -8.11 -5.71
Si -6.17 -9.33 -2.45
Si -1.72  7.01  8.90
Si -8.72 -7.04 -2.40
Si  8.17 -3.55 -7.22
Si -10.46  2.36 -4.08
Si -1.78 -7.00 -8.92
Si  1.67 -7.01 -8.94
Si  1.85  7.01  8.93
Si -9.97 -1.11 -5.62
Si  8.78  7.02  2.46
Si -6.89  2.36  8.93
Si -0.82  4.62 10.53
Si -8.21  8.07 -0.73
Si -6.94 -2.35 -8.92
Si  8.20 -8.09  0.87
Si  9.96  1.10  5.76
Si  6.96 -2.35 -8.92
Si  0.77 -4.62 -10.57
Si 11.30 -0.03 -2.45
Si -0.89 -4.67 10.54
