500
set: 1164.00  0.00  0.00
Si  0.04  0.00  0.03
Si -0.07  0.04 -2.34
Si -0.03  0.03  2.36
Si -1.20 -2.12 -0.05
Si -1.22  2.14  0.00
Si  2.46  0.02 -0.01
Si -2.49 -0.00 -0.05
Si  1.27 -2.18 -0.03
Si  1.24  2.22  0.02
Si -1.21 -2.11  2.30
Si -2.51  0.04  2.27
Si  2.47 -0.04 -2.33
Si  1.29  2.11  2.35
Si  2.49 -0.04  2.33
Si  1.26 -2.09 -2.40
Si  1.24  2.17 -2.34
Si  1.31 -2.13  2.35
Si -1.30  2.23 -2.29
Si -1.23  2.17  2.40
Si -2.51  0.04 -2.39
Si -1.24 -2.20 -2.39
Si -3.67 -2.20  0.04
Si -3.74  2.13  0.01
Si  3.74  2.13  0.00
Si  0.06 -4.30  0.04
Si  3.72 -2.19  0.01
Si -0.03  4.35  0.01
Si -0.03 -0.03 -4.65
Si -0.03 -0.03  4.75
Si -3.70  2.11 -2.34
Si  3.72  2.11 -2.32
Si  0.01  4.30 -2.35
Si -0.04 -4.28  2.39
Si -3.75 -2.12 -2.35
Si  0.02  4.30  2.36
Si -3.69 -2.17  2.39
Si  3.71 -2.23 -2.33
Si -2.40 -4.30  0.04
Si -2.48  4.25  0.02
Si -3.71  2.23  2.34
Si  0.01 -4.35 -2.32
Si  3.75  2.16  2.36
Si  4.96 -0.05 -0.07
Si  3.79 -2.17  2.35
Si -4.99 -0.05 -0.07
Si  2.57  4.32  0.04
Si  2.50 -4.36  0.02
Si  1.18 -2.15  4.65
Si -1.28  2.16 -4.62
Si  2.42  0.01 -4.67
Si -2.51 -0.01  4.66
Si  1.20  2.14  4.70
Si -1.27 -2.19  4.67
Si  1.20  2.14 -4.71
Si  2.42  0.01  4.73
Si  1.18 -2.15 -4.76
Si -2.51 -0.01 -4.74
Si -1.27 -2.19 -4.74
Si -1.28  2.16  4.79
Si  2.45 -4.26 -2.33
Si  4.96 -0.02  2.28
Si -2.48 -4.28  2.34
Si  2.51  4.26 -2.35
Si -4.99 -0.02  2.28
Si -2.46  4.30  2.35
Si  2.52 -4.31  2.35
Si  2.48  4.34  2.34
Si -2.46 -4.35 -2.35
Si  4.96 -0.06 -2.42
Si -4.98 -0.06 -2.42
Si -2.54  4.35 -2.33
Si  3.70 -2.08 -4.70
Si  3.67  2.11 -4.70
Si  3.67  2.11  4.70
Si  3.70 -2.08  4.71
Si  0.03 -4.30 -4.67
Si  0.02  4.31  4.67
Si -3.74 -2.13 -4.68
Si -3.74  2.16 -4.70
Si -3.74  2.16  4.71
Si -3.74 -2.13  4.72
Si  0.03 -4.30  4.73
Si  0.02  4.31 -4.74
Si  4.95 -4.27  0.01
Si  1.30  6.41  0.04
Si -4.93  4.31  0.04
Si -1.26  6.42  0.01
Si  6.21  2.13  0.01
Si -6.21  2.13  0.00
Si -5.00 -4.27  0.01
Si -1.23 -6.49  0.00
Si -6.23 -2.19  0.01
Si  1.24 -6.49  0.01
Si  5.02  4.31  0.04
Si  6.28 -2.20  0.04
Si  4.92  0.02  4.64
Si  2.52 -4.25 -4.66
Si  2.48  4.29  4.69
Si  2.48  4.29 -4.71
Si -2.46  4.37 -4.66
Si  4.92  0.02 -4.76
Si -5.03  0.02  4.64
Si -2.48 -4.32  4.69
Si  2.52 -4.25  4.75
Si -2.48 -4.32 -4.71
Si -2.46  4.37  4.75
Si -1.27  6.38 -2.33
Si  1.27 -6.38  2.34
Si -5.03  0.02 -4.76
Si -6.16 -2.17  2.35
Si -4.97  4.26 -2.32
Si  4.98  4.26 -2.32
Si -1.19  6.44  2.35
Si  6.20 -2.12 -2.35
Si -6.22  2.11 -2.32
Si -4.94 -4.31  2.36
Si -6.20  2.16  2.36
Si -1.22 -6.45  2.36
Si -4.96 -4.31 -2.35
Si  4.93  4.33  2.39
Si  1.27  6.44  2.39
Si  6.25  2.11 -2.34
Si  4.99 -4.31 -2.35
Si -1.24 -6.50 -2.32
Si  1.22  6.50 -2.35
Si  5.01 -4.31  2.36
Si  6.23  2.23  2.34
Si -6.24 -2.23 -2.33
Si  1.28 -6.50 -2.34
Si  6.25 -2.17  2.39
Si -0.03  0.03 -7.04
Si -5.02  4.33  2.39
Si -0.07  0.04  7.07
Si -3.72 -6.39  0.02
Si  1.26 -2.09  7.01
Si -3.71  6.43 -0.03
Si -1.23  2.17 -7.01
Si -2.51  0.04  7.01
Si -1.24 -2.20  7.01
Si  7.46 -0.00 -0.05
Si  1.29  2.11 -7.05
Si  1.31 -2.13 -7.05
Si -7.49  0.02 -0.01
Si  3.76 -6.48  0.00
Si  1.24  2.17  7.07
Si  2.49 -0.04 -7.07
Si  2.47 -0.04  7.08
Si -1.21 -2.11 -7.11
Si  3.77  6.50 -0.05
Si -2.51  0.04 -7.13
Si -1.30  2.23  7.11
Si  3.69 -6.39 -2.29
Si  7.44  0.04  2.27
Si  3.73  6.42 -2.39
Si -3.72 -6.45 -2.34
Si  7.44  0.04 -2.39
Si -3.67  6.49  2.35
Si -7.46 -0.04  2.33
Si -7.48 -0.04 -2.33
Si -3.67 -6.51  2.35
Si  3.75 -6.45  2.40
Si  3.75  6.50  2.30
Si -3.72  6.53 -2.40
Si -4.94 -4.30  4.67
Si -4.95  4.31 -4.67
Si  6.21 -2.13 -4.68
Si  1.24 -6.45 -4.70
Si  6.21  2.16 -4.70
Si  1.24 -6.45  4.71
Si  6.21 -2.13  4.72
Si -4.94 -4.30 -4.74
Si  5.01 -4.30  4.67
Si  6.21  2.16  4.71
Si  5.00  4.31 -4.67
Si -6.25 -2.08 -4.70
Si -4.95  4.31  4.73
Si  1.22  6.48 -4.68
Si -6.25 -2.08  4.71
Si  1.22  6.48  4.72
Si -6.27  2.11 -4.70
Si -6.27  2.11  4.70
Si  5.00  4.31  4.73
Si  5.01 -4.30 -4.74
Si -1.29 -6.50 -4.70
Si -1.29 -6.50  4.70
Si -1.28  6.54 -4.70
Si -1.28  6.54  4.71
Si -3.69 -2.17 -7.01
Si -0.04 -4.28 -7.02
Si  0.02  4.30 -7.05
Si -3.70  2.11  7.07
Si  0.01  4.30  7.06
Si -3.75 -2.12  7.05
Si  3.75  2.16 -7.04
Si  3.72  2.11  7.09
Si -3.71  2.23 -7.06
Si  3.71 -2.23  7.07
Si  3.79 -2.17 -7.05
Si  0.01 -4.35  7.09
Si -7.38  4.32  0.04
Si -0.02  8.56 -0.07
Si  4.96 -0.06  6.99
Si -4.98 -0.06  6.99
Si  7.47  4.25  0.02
Si  2.45 -4.26  7.08
Si  2.51  4.26  7.06
Si -2.48 -4.28 -7.06
Si -2.46  4.30 -7.06
Si -7.45 -4.36  0.02
Si  2.52 -4.31 -7.06
Si -2.46 -4.35  7.06
Si  2.48  4.34 -7.06
Si -0.01 -8.66 -0.07
Si -2.54  4.35  7.08
Si  7.55 -4.30  0.04
Si  4.96 -0.02 -7.13
Si -4.99 -0.02 -7.13
Si  3.70  6.42  4.67
Si  3.70 -6.46 -4.62
Si  7.44 -0.01  4.66
Si  3.70  6.42 -4.74
Si  7.44 -0.01 -4.74
Si -3.80  6.47  4.65
Si -3.77 -6.47  4.70
Si -3.77 -6.47 -4.71
Si  3.70 -6.46  4.79
Si -7.52  0.01 -4.67
Si -3.80  6.47 -4.76
Si -0.02  8.59  2.28
Si -7.52  0.01  4.73
Si -0.02  8.55 -2.42
Si -7.44  4.26 -2.35
Si -7.42 -4.31  2.35
Si  7.41  4.35 -2.33
Si  7.47 -4.28  2.34
Si  6.23 -6.39  0.02
Si -0.00 -8.63  2.28
Si -7.50 -4.26 -2.33
Si -8.68 -2.18 -0.03
Si -7.47  4.34  2.34
Si -2.50 -8.59 -0.01
Si  7.49  4.30  2.35
Si  2.48  8.61 -0.05
Si -6.19 -6.48  0.00
Si  6.24  6.43 -0.03
Si -6.18  6.50 -0.05
Si  2.49 -8.62 -0.05
Si  7.49 -4.35 -2.35
Si  8.73  2.14  0.00
Si -8.71  2.22  0.02
Si -2.52  8.63 -0.01
Si -0.00 -8.67 -2.42
Si  8.75 -2.12 -0.05
Si -8.64 -2.13  2.35
Si -8.65  2.11  2.35
Si  2.48 -8.58  2.27
Si  8.65  2.23 -2.29
Si -2.51  8.57 -2.33
Si -2.49  8.58  2.33
Si  2.47 -8.57 -2.39
Si -6.26 -6.39 -2.29
Si -8.69 -2.09 -2.40
Si -6.22  6.42 -2.39
Si -6.20 -6.45  2.40
Si  6.22 -6.45 -2.34
Si -6.19  6.50  2.30
Si -8.71  2.17 -2.34
Si  2.46  8.65  2.27
Si  8.74 -2.11  2.30
Si -2.48 -8.65  2.33
Si  8.71 -2.20 -2.39
Si  8.72  2.17  2.40
Si -2.50 -8.65 -2.33
Si  2.46  8.65 -2.39
Si  6.28  6.49  2.35
Si  6.23  6.53 -2.40
Si  6.28 -6.51  2.35
Si  0.04  0.00 -9.37
Si  0.04  0.00  9.44
Si  1.27 -6.38 -7.06
Si  1.27  6.44 -7.01
Si  4.93  4.33 -7.02
Si -6.16 -2.17 -7.05
Si -1.27  6.38  7.07
Si -1.19  6.44 -7.05
Si -4.94 -4.31 -7.05
Si  6.20 -2.12  7.05
Si -6.20  2.16 -7.04
Si -1.22 -6.45 -7.04
Si -4.96 -4.31  7.06
Si  6.25 -2.17 -7.01
Si -4.97  4.26  7.09
Si  4.98  4.26  7.09
Si -5.02  4.33 -7.02
Si  5.01 -4.31 -7.05
Si  4.99 -4.31  7.06
Si  1.22  6.50  7.05
Si  6.25  2.11  7.07
Si -6.22  2.11  7.09
Si -1.20 -2.12  9.36
Si  6.23  2.23 -7.06
Si -2.49 -0.01  9.36
Si  1.28 -6.50  7.07
Si -6.24 -2.23  7.07
Si -1.24 -6.50  7.09
Si  1.27 -2.18  9.38
Si  2.46  0.02  9.40
Si -1.22  2.14 -9.40
Si -1.22  2.14  9.41
Si  1.24  2.22 -9.39
Si  2.46  0.02 -9.42
Si -7.43 -4.25 -4.66
Si  1.24  2.22  9.42
Si -1.20 -2.12 -9.45
Si  1.27 -2.18 -9.43
Si -0.05 -8.59  4.64
Si -2.49 -0.00 -9.46
Si -7.43 -4.25  4.75
Si -0.07  8.63  4.64
Si -7.47  4.29  4.69
Si -7.47  4.29 -4.71
Si  7.46 -4.32  4.69
Si -0.05 -8.59 -4.76
Si  7.46 -4.32 -4.71
Si  7.49  4.37 -4.66
Si -0.07  8.63 -4.76
Si  7.49  4.37  4.75
Si -9.91  0.00  0.03
Si -4.93 -8.61  0.03
Si -4.94  8.61  0.03
Si  5.01  8.61  0.03
Si  5.02 -8.61  0.03
Si  9.99  0.00  0.03
Si  8.67  2.16 -4.62
Si  6.15  6.47  4.65
Si  2.46  8.60  4.66
Si  8.68 -2.19  4.67
Si -6.25  6.42  4.67
Si -6.25 -6.46 -4.62
Si  6.18 -6.47  4.70
Si  6.18 -6.47 -4.71
Si  2.47 -8.62  4.66
Si  6.15  6.47 -4.76
Si -2.54 -8.61 -4.67
Si  2.46  8.60 -4.74
Si  8.68 -2.19 -4.74
Si -2.56  8.62 -4.67
Si  8.67  2.16  4.79
Si -6.25  6.42 -4.74
Si -2.54 -8.61  4.73
Si  2.47 -8.62 -4.74
Si  4.91 -8.57 -2.34
Si  9.88  0.04 -2.34
Si -8.77 -2.15  4.65
Si -2.56  8.62  4.73
Si -8.75  2.14  4.70
Si -8.75  2.14 -4.71
Si -6.25 -6.46  4.79
Si  4.95 -8.59  2.36
Si  9.92  0.03  2.36
Si -8.77 -2.15 -4.76
Si  3.73  6.42  7.01
Si -5.00 -8.59  2.36
Si -5.04 -8.57 -2.34
Si  4.90  8.66 -2.34
Si  7.44  0.04  7.01
Si  4.94  8.64  2.36
Si  3.75 -6.45 -7.01
Si  3.69 -6.39  7.11
Si -9.98  0.03  2.36
Si -3.67  6.49 -7.05
Si -5.01  8.64  2.36
Si -3.72 -6.45  7.07
Si -3.72  6.53  7.01
Si -3.67 -6.51 -7.05
Si -7.46 -0.04 -7.07
Si -10.02  0.04 -2.34
Si -5.05  8.66 -2.34
Si -7.48 -0.04  7.08
Si -3.67 -2.20 -9.36
Si  0.06 -4.30 -9.37
Si  7.44  0.04 -7.13
Si -3.74  2.13 -9.40
Si  3.75  6.50 -7.11
Si  3.72 -2.19 -9.39
Si  3.74  2.13 -9.41
Si  3.74  2.13  9.41
Si -3.74  2.12  9.41
Si -0.03  4.35 -9.40
Si  3.72 -2.19  9.42
Si -0.03  4.35  9.41
Si -3.67 -2.20  9.45
Si  0.06 -4.30  9.45
Si  4.96 -0.05  9.34
Si -2.40 -4.30 -9.36
Si -4.99 -0.05  9.34
Si -2.48  4.25 -9.39
Si  2.57  4.32 -9.36
Si -2.48  4.25  9.42
Si  2.50 -4.36 -9.39
Si -2.40 -4.30  9.45
Si  2.50 -4.36  9.42
Si  4.96 -0.05 -9.47
Si  2.57  4.32  9.45
Si -4.99 -0.05 -9.47
Si -8.65  6.41  0.04
Si -9.89 -4.30  0.04
Si  8.69  6.42  0.01
Si  1.23 10.74  0.01
Si -1.24 10.74  0.00
Si  9.92  4.35  0.01
Si -8.71 -6.49  0.01
Si  8.72 -6.49  0.00
Si -1.25 -10.80  0.01
Si -9.98  4.35  0.01
Si 10.01 -4.30  0.04
Si  1.31 -10.82  0.04
Si  4.94  8.59 -4.65
Si  9.92 -0.03 -4.65
Si -5.01  8.59 -4.65
Si  4.94  8.59  4.75
Si  4.95 -8.64 -4.65
Si  9.92 -0.03  4.75
Si -9.98 -0.03 -4.65
Si -5.00 -8.64 -4.65
Si -5.01  8.59  4.75
Si  8.68  6.38 -2.33
Si -8.68 -6.38  2.34
Si  4.95 -8.64  4.75
Si -1.26 10.72 -2.32
Si  1.26 10.72 -2.34
Si -0.02  8.55  6.99
Si -9.98 -0.03  4.75
Si  1.23 -10.73 -2.35
Si -5.00 -8.64  4.75
Si  9.91 -4.28  2.39
Si -8.68  6.44  2.39
Si -9.93  4.30  2.36
Si -9.94  4.30 -2.35
Si -8.67 -6.50 -2.34
Si -9.93 -4.35 -2.32
Si -1.23 10.77  2.36
Si  9.96  4.30 -2.35
Si -1.18 -10.79  2.35
Si -7.44  4.26  7.06
Si  8.71 -6.50 -2.32
Si  8.73 -6.45  2.36
Si -7.42 -4.31 -7.06
Si  9.97  4.30  2.36
Si  1.29 -10.78  2.39
Si  9.96 -4.35 -2.32
Si -9.98 -4.28  2.39
Si  8.76  6.44  2.35
Si  7.47 -4.28 -7.06
Si -8.73  6.50 -2.35
Si  7.41  4.35  7.08
Si -0.00 -8.67  6.99
Si -7.47  4.34 -7.06
Si  7.49  4.30 -7.06
Si -7.50 -4.26  7.08
Si  1.25 10.84  2.34
Si -1.26 -10.84 -2.33
Si -0.02  8.59 -7.13
Si  7.49 -4.35  7.06
Si -0.00 -8.63 -7.13
Si  2.47 -8.57  7.01
Si -11.15 -2.12 -0.05
Si -8.64 -2.13 -7.05
Si -8.69 -2.09  7.01
Si -6.20 -6.45 -7.01
Si -6.22  6.42  7.01
Si -8.65  2.11 -7.05
Si  7.45 -8.59 -0.01
Si  3.78 -10.73 -0.05
Si -11.17  2.14  0.00
Si  3.74 10.75  0.00
Si  7.43  8.63 -0.01
Si -2.49  8.58 -7.07
Si  8.72  2.17 -7.01
Si  8.71 -2.20  7.01
Si -2.51  8.57  7.08
Si -7.46 -8.62 -0.05
Si -7.47  8.61 -0.05
Si -3.69 -10.79 -0.03
Si  2.46  8.65  7.01
Si 11.19  2.22  0.02
Si  6.22 -6.45  7.07
Si  8.65  2.23  7.11
Si -8.71  2.17  7.07
Si  1.30  6.41 -9.36
Si  6.23  6.53  7.01
Si  2.48 -8.58 -7.13
Si -4.93  4.31 -9.37
Si -6.26 -6.39  7.11
Si 11.22 -2.18 -0.03
Si -2.48 -8.65 -7.07
Si  4.95 -4.27 -9.40
Si -6.19  6.50 -7.11
Si -1.26  6.42 -9.39
Si  6.28  6.49 -7.05
