500
set: 1531.00  0.00  0.00
Si -0.78 -0.37  0.54
Si  0.84  0.37 -1.13
Si -1.39 -1.71 -1.09
Si  0.74 -2.07  1.49
Si -1.75  0.34 -2.44
Si  0.74 -2.17 -2.08
Si -2.49  1.53  1.06
Si  1.77 -0.06  2.62
Si -2.51  1.97 -1.06
Si -0.71  2.45  2.27
Si  0.48  1.40 -3.22
Si  3.07  1.53  1.06
Si -0.35  0.40  3.62
Si  3.05  1.97 -1.06
Si -0.62  3.87 -1.09
Si  1.52  3.51  1.49
Si -1.49 -3.13  2.27
Si  2.03 -0.58 -3.64
Si  1.51  3.41 -2.08
Si  2.28 -3.61 -1.06
Si  3.81  0.34 -2.44
Si -2.25 -1.50  3.65
Si -3.79 -0.06  2.62
Si  4.17 -1.71 -1.09
Si  1.88  2.48  3.58
Si  2.29 -4.05  1.06
Si  4.79 -0.37  0.54
Si  1.11 -3.10  3.58
Si -4.72  0.37 -1.13
Si -3.29 -3.61 -1.06
Si -3.53 -0.58 -3.64
Si  3.31 -1.50  3.65
Si -1.81 -2.47 -4.17
Si -0.00  5.21  0.54
Si -0.30 -4.18 -3.22
Si -1.04  3.10 -4.17
Si -3.27 -4.05  1.06
Si  0.07 -5.21 -1.13
Si -4.82 -2.07  1.49
Si  0.26  1.74  5.25
Si -4.04  3.51  1.49
Si  4.08 -3.13  2.27
Si -1.47  4.07  3.65
Si -4.83 -2.17 -2.08
Si -4.05  3.41 -2.08
Si -3.68  2.48  3.58
Si  4.85  2.45  2.27
Si -0.20 -1.74 -5.83
Si  2.01 -0.14 -5.76
Si  3.75 -2.47 -4.17
Si -1.55 -5.94  0.54
Si -5.08  1.40 -3.22
Si  1.62  5.95 -1.13
Si -1.66  1.76 -5.80
Si  1.00 -5.64  2.62
Si -2.52 -5.24 -2.44
Si  5.21  0.40  3.62
Si -6.34 -0.37  0.54
Si  4.95  3.87 -1.09
Si -1.13 -5.18  3.62
Si  1.78  0.04  6.19
Si -0.97  5.92 -2.44
Si -2.23 -1.94  5.77
Si -4.46 -3.10  3.58
Si  6.41  0.37 -1.13
Si -0.51 -3.84  5.25
Si  3.04 -5.24 -2.44
Si  2.55  5.51  2.62
Si -2.76  5.00 -3.64
Si -3.55 -0.14 -5.76
Si  2.81  5.00 -3.64
Si  6.30 -2.07  1.49
Si -3.01  5.51  2.62
Si  4.09  4.07  3.65
Si  4.52  3.10 -4.17
Si  0.47  1.30 -6.79
Si  3.33 -1.94  5.77
Si -5.92  0.40  3.62
Si -1.46  3.64  5.77
Si  6.30 -2.17 -2.08
Si  6.04  1.40 -3.22
Si  0.42  5.98  3.62
Si  0.58  3.84 -5.83
Si -0.45 -1.02  6.98
Si -6.27  2.45  2.27
Si  4.01 -5.94  0.54
Si  3.91  1.76 -5.80
Si -3.94  5.95 -1.13
Si -6.95 -1.71 -1.09
Si -3.78  0.04  6.19
Si  1.25 -6.16 -3.64
Si -2.43 -3.82 -5.80
Si -6.18  3.87 -1.09
Si -1.72  7.11  1.06
Si  5.26 -4.18 -3.22
Si  3.13 -3.82 -5.80
Si  5.56  5.21  0.54
Si -5.56  5.21  0.54
Si -5.49 -5.21 -1.13
Si -5.30  1.74  5.25
Si -2.17 -7.29 -1.09
Si -4.56 -5.64  2.62
Si -7.31  0.34 -2.44
Si  4.43 -5.18  3.62
Si  5.63 -5.21 -1.13
Si  1.25  6.98 -3.22
Si -0.03 -7.65  1.49
Si  7.34 -0.06  2.62
Si -1.74  7.54 -1.06
Si  2.77 -1.77 -7.14
Si -2.79 -1.77 -7.14
Si  4.59  5.92 -2.44
Si -5.86 -4.18 -3.22
Si  4.11  3.64  5.77
Si -0.56 -0.71 -7.93
Si -0.04 -7.75 -2.08
Si  5.82  1.74  5.25
Si -0.30 -4.28 -6.79
Si -7.05 -3.13  2.27
Si  7.08  3.51  1.49
Si -2.75  2.04  7.33
Si  3.40 -7.29 -1.09
Si  2.81  2.04  7.33
Si  5.37 -1.74 -5.83
Si  7.07  3.41 -2.08
Si  3.84  7.11  1.06
Si  6.67 -3.10  3.58
Si  1.24 -5.72 -5.76
Si  5.05 -3.84  5.25
Si -8.05  1.53  1.06
Si  0.33  4.55  6.98
Si  0.06  8.03  2.27
Si -2.01  3.81 -7.14
Si -4.31 -6.16 -3.64
Si  2.54 -7.08  3.65
Si  1.01 -5.54  6.19
Si -8.07  1.97 -1.06
Si -5.76 -1.74 -5.83
Si  2.04 -3.53  7.33
Si -2.77  5.43 -5.76
Si  2.79  5.43 -5.76
Si -6.60  3.10 -4.17
Si  7.59 -0.58 -3.64
Si -1.21  0.60  8.36
Si -3.02 -7.08  3.65
Si  3.83  7.54 -1.06
Si -4.98  3.84 -5.83
Si -5.09  1.30 -6.79
Si  2.15 -0.99  8.29
Si  7.44  2.48  3.58
Si -5.14  5.98  3.62
Si  7.84 -3.61 -1.06
Si  5.11 -1.02  6.98
Si  0.69  2.51  8.32
Si  2.56  5.62  6.19
Si -7.81 -1.50  3.65
Si -4.31  6.98 -3.22
Si -7.38 -2.47 -4.17
Si  0.99 -2.69 -8.35
Si  8.63  1.53  1.06
Si  3.55  3.81 -7.14
Si -3.52 -3.53  7.33
Si -0.09 -3.07  8.32
Si -3.01  5.62  6.19
Si -6.08 -3.84  5.25
Si  8.61  1.97 -1.06
Si  7.86 -4.05  1.06
Si -7.03  4.07  3.65
Si  1.77  2.89 -8.35
Si -3.42 -0.99  8.29
Si  6.56 -5.64  2.62
Si  1.04  7.32  5.25
Si -6.54  5.92 -2.44
Si -2.08  1.00 -8.88
Si  6.04  1.30 -6.79
Si  5.98  5.98  3.62
Si -6.69 -5.18  3.62
Si -4.32 -5.72 -5.76
Si  2.66  8.06  3.58
Si -6.01 -1.02  6.98
Si -2.26 -8.71  2.27
Si -2.90  8.06  3.58
Si -7.11 -5.94  0.54
Si  6.14  3.84 -5.83
Si  0.21  4.87 -7.93
Si  1.50 -9.19 -1.06
Si  0.33 -8.68  3.58
Si  7.18  5.95 -1.13
Si -0.88  7.34 -5.80
Si  5.00 -0.71 -7.93
Si -0.97 -7.31 -5.83
Si -7.22  1.76 -5.80
Si -2.59 -8.05 -4.17
Si  4.35  0.60  8.36
Si -4.56 -5.54  6.19
Si  2.29  9.09  1.49
Si  2.29  8.98 -2.08
Si  0.16  9.45 -1.09
Si  7.57 -0.14 -5.76
Si  2.97 -8.05 -4.17
Si  5.53 -7.65  1.49
Si  3.30 -8.71  2.27
Si  3.48  1.00 -8.88
Si -5.59 -7.65  1.49
Si  5.26 -4.28 -6.79
Si  7.34  0.04  6.19
Si -8.85 -3.61 -1.06
Si -3.79  2.89 -8.35
Si -0.27  8.68 -4.17
Si -1.22 -6.60  6.98
Si  9.37  0.34 -2.44
Si -9.35 -0.06  2.62
Si  8.88 -1.50  3.65
Si  5.52 -7.75 -2.08
Si  1.25  6.88 -6.79
Si -3.27  9.09  1.49
Si -8.83 -4.05  1.06
Si -5.60 -7.75 -2.08
Si -7.02  3.64  5.77
Si -3.27  8.98 -2.08
Si  1.52 -9.63  1.06
Si -9.09 -0.58 -3.64
Si  2.56 -7.52  5.77
Si -2.64  4.59  8.29
Si -5.24  4.55  6.98
Si  6.82 -6.16 -3.64
Si -7.79 -1.94  5.77
Si -4.57 -2.69 -8.35
Si  2.92  4.59  8.29
Si -1.98 -4.97  8.36
Si -8.09 -5.24 -2.44
Si  9.73 -1.71 -1.09
Si -5.86 -4.28 -6.79
Si -3.00 -7.52  5.77
Si -4.88  2.51  8.32
Si -5.50  8.03  2.27
Si -6.12 -0.71 -7.93
Si  5.62  8.03  2.27
Si -4.53  7.32  5.25
Si -4.06 -9.19 -1.06
Si  0.53 -1.73  9.95
Si  8.11  5.51  2.62
Si  5.89  4.55  6.98
Si -1.33 -6.28 -7.93
Si -9.24  2.48  3.58
Si -7.28  7.11  1.06
Si  6.82  6.98 -3.22
Si -1.07 -9.75 -3.22
Si -9.61  3.51  1.49
Si -0.70  9.65  3.65
Si -10.28  0.37 -1.13
Si  2.71 -4.58 -8.88
Si  8.60 -5.24 -2.44
Si  3.58 -4.97  8.36
Si -8.32  5.00 -3.64
Si 10.35 -0.37  0.54
Si  9.64 -3.13  2.27
Si -2.85 -4.58 -8.88
Si -0.43  6.18  8.36
Si  8.37  5.00 -3.64
Si -9.61  3.41 -2.08
Si  4.59 -7.31 -5.83
Si  5.47 -3.07  8.32
Si  2.00 -7.35 -7.14
Si  4.68  7.34 -5.80
Si  9.31 -2.47 -4.17
Si -4.04 -9.63  1.06
Si -5.65 -3.07  8.32
Si -8.57  5.51  2.62
Si  4.34 -6.60  6.98
Si -1.19  0.17 10.48
Si -7.30  7.54 -1.06
Si -4.31  6.88 -6.79
Si -7.99 -3.82 -5.80
Si  6.57 -5.54  6.19
Si  6.80 -5.72 -5.76
Si  1.37 -6.57  8.29
Si -7.73 -7.29 -1.09
Si -10.38 -2.07  1.49
Si -0.46  1.73 -10.54
Si  6.25  2.51  8.32
Si -5.35  4.87 -7.93
Si -5.23 -8.68  3.58
Si  1.30  3.85  9.95
Si  0.97 -2.25 -10.47
Si -1.97  7.62  7.33
Si -6.77  0.60  8.36
Si  8.89 -1.94  5.77
Si -9.11 -0.14 -5.76
Si -10.39 -2.17 -2.08
Si  0.77 10.79  0.54
Si -3.56 -7.35 -7.14
Si -2.69 -0.35 -10.51
Si -1.29 -9.41  5.25
Si -0.71 -10.78 -1.13
Si -0.68  9.21  5.77
Si  2.87 -0.35 -10.51
Si 10.41  2.45  2.27
Si -5.40  9.45 -1.09
Si  6.55 -2.69 -8.35
Si  5.78  4.87 -7.93
Si  4.23 -6.28 -7.93
Si  5.30  8.68 -4.17
Si -10.02 -3.10  3.58
Si  5.89 -8.68  3.58
Si -7.58  3.81 -7.14
Si  9.65  4.07  3.65
Si  5.72  9.45 -1.09
Si  8.34 -1.77 -7.14
Si -1.30  6.57 -8.88
Si  8.69 -3.82 -5.80
Si  1.75  3.33 -10.47
Si -8.35 -1.77 -7.14
Si  7.60 -3.53  7.33
Si  1.35  9.42 -5.83
Si  6.60  7.32  5.25
Si  3.59  7.62  7.33
Si -9.34  0.04  6.19
Si -10.64  1.40 -3.22
Si  4.49 -9.75 -3.22
Si  9.47  1.76 -5.80
Si 10.51  3.87 -1.09
Si -5.83  8.68 -4.17
Si -8.31  2.04  7.33
Si -9.51  5.95 -1.13
Si  9.57 -5.94  0.54
Si -1.23 -3.84 -10.54
Si -5.04 -1.73  9.95
Si  2.36 -9.39 -5.80
Si  8.38  2.04  7.33
Si  2.26 -10.82 -2.44
Si 10.08  3.10 -4.17
Si  4.37  0.17 10.48
Si -6.44  7.34 -5.80
Si -1.98 10.58 -3.64
Si  7.71 -0.99  8.29
Si  8.10 -7.08  3.65
Si 10.77  0.40  3.62
Si -4.19 -6.57  8.29
Si  4.86  9.65  3.65
Si -6.53 -7.31 -5.83
Si -2.74  2.15 10.90
Si  2.82  2.15 10.90
Si  7.33  2.89 -8.35
Si -4.26  3.85  9.95
Si -3.21 -9.39 -5.80
Si -8.34  5.43 -5.76
Si -1.90 -10.76  3.62
Si  8.35  5.43 -5.76
Si  0.23 -11.22  2.62
Si -0.56 -0.81 -11.50
Si -3.30 -10.82 -2.44
Si  5.13  6.18  8.36
Si  4.27 -9.41  5.25
Si  8.96 -7.29 -1.09
Si  2.04 -3.43 10.90
Si -2.24 11.09  2.62
Si -3.81  3.33 -10.47
Si  7.06 -9.19 -1.06
Si -4.59 -2.25 -10.47
Si  8.12  5.62  6.19
Si  1.46  8.09  8.32
Si -8.58 -7.08  3.65
Si  3.58 10.58 -3.64
Si  0.59  1.08 11.69
Si  0.22 -8.27 -8.35
Si -0.20 11.49 -2.44
Si -7.64  1.00 -8.88
Si -6.78 -6.60  6.98
Si  1.26 -9.11  7.33
Si -2.33 -11.52  0.54
Si  6.09 -1.73  9.95
Si -4.79 10.79  0.54
Si  9.99 -5.18  3.62
Si  6.81  6.88 -6.79
Si  2.39 11.53 -1.13
Si  9.67  3.64  5.77
Si  9.40  7.11  1.06
Si  4.26  6.57 -8.88
Si  5.10  1.73 -10.54
Si -4.21  9.42 -5.83
Si -1.24  9.39 -7.14
Si  3.33 11.09  2.62
Si  4.86 -10.78 -1.13
Si -10.12 -5.64  2.62
Si -1.92  5.23 -10.51
Si -11.90 -0.37  0.54
Si  4.88  9.21  5.77
Si  3.66 -10.76  3.62
Si -7.82 -8.71  2.27
Si -1.97 -5.41 10.48
Si -3.52 -3.43 10.90
Si -0.42  5.75 10.48
Si -8.57  5.62  6.19
Si  3.24 -11.52  0.54
Si 10.15  5.92 -2.44
Si  7.08 -9.63  1.06
Si -6.00  6.18  8.36
Si -3.17 11.53 -1.13
Si -1.08 -9.86 -6.79
Si 11.97  0.37 -1.13
Si  4.33 -3.84 -10.54
Si -0.86 -8.65  8.32
Si -11.48  0.40  3.62
Si 10.83 -4.18 -3.22
Si  8.22  8.06  3.58
Si -6.26  9.65  3.65
Si  9.39  7.54 -1.06
Si  7.85  9.09  1.49
Si  7.85  8.98 -2.08
Si 11.60  1.40 -3.22
Si 11.87 -2.07  1.49
Si  2.54  8.47 -8.35
Si  1.20 11.56  3.62
Si -10.86  1.74  5.25
Si  9.11  3.81 -7.14
Si -9.87 -6.16 -3.64
Si -8.15 -8.05 -4.17
Si -9.09 -3.53  7.33
Si -8.47  8.06  3.58
Si -6.63 -9.75 -3.22
Si  2.51  1.70 -11.85
Si 11.86 -2.17 -2.08
Si  2.09 -5.92 -10.51
Si -6.90 -6.28 -7.93
Si -8.98 -0.99  8.29
Si -6.02  1.73 -10.54
Si -3.02  8.47 -8.35
Si -11.05 -5.21 -1.13
Si  3.64  5.23 -10.51
Si 11.12  5.21  0.54
Si -11.84  2.45  2.27
Si  0.48 -11.73 -3.64
Si -11.12  5.21  0.54
Si -4.10  8.09  8.32
Si -7.55 -4.97  8.36
Si  3.60 -5.41 10.48
Si -0.25 -7.31  9.95
Si  1.10 10.13  6.98
Si -3.05  1.70 -11.85
Si -2.48 -1.43 12.04
Si 11.19 -5.21 -1.13
Si -11.74  3.87 -1.09
Si 10.61 -3.84  5.25
Si  0.21  4.77 -11.50
Si  8.53 -8.05 -4.17
Si -4.30 -9.11  7.33
Si -6.75  0.17 10.48
Si  8.12 -7.52  5.77
Si  3.08 -1.43 12.04
Si 10.93 -1.74 -5.83
Si -9.87  6.98 -3.22
Si -0.18 -4.49 11.69
Si -6.27 -10.78 -1.13
Si  6.33 10.79  0.54
Si -8.20  4.59  8.29
Si -6.24  9.21  5.77
Si  6.54 -2.25 -10.47
Si -3.47 -5.92 -10.51
Si  4.32  9.39 -7.14
Si  5.00 -0.81 -11.50
Si -11.42 -4.18 -3.22
Si  1.74 -3.88 -11.85
Si -2.00 11.01 -5.76
Si  8.86 -8.71  2.27
Si  6.93 -6.57  8.29
Si -10.54  3.84 -5.83
Si 11.38  1.74  5.25
Si -12.52 -1.71 -1.09
Si  6.86  3.85  9.95
Si  0.46 -11.30 -5.76
Si -5.34 -11.22  2.62
Si -10.65  1.30 -6.79
Si  9.04  1.00 -8.88
Si  8.48  4.59  8.29
Si  0.23 -11.12  6.19
Si  7.56 -7.35 -7.14
Si -4.97  1.08 11.69
Si -8.83  9.09  1.49
Si -0.94 12.69  1.06
Si -6.85 -9.41  5.25
Si -8.84  8.98 -2.08
Si -8.57 -7.52  5.77
Si -10.70  5.98  3.62
Si  4.49 -9.86 -6.79
Si -9.89 -5.72 -5.76
Si 10.68 -1.02  6.98
Si  0.32  7.31 -10.54
Si -1.71  4.15 12.04
Si -11.32 -1.74 -5.83
Si -9.36  2.89 -8.35
Si -4.37 11.56  3.62
Si  4.70 -8.65  8.32
Si  5.79 -11.22  2.62
Si -5.34 -8.27 -8.35
Si  5.36 11.49 -2.44
Si  3.56 11.01 -5.76
Si -0.82  2.76 -12.64
Si  8.27 -4.58 -8.88
Si  9.91  0.60  8.36
