500
set: 258.00  0.00  0.00
Si  0.01 -0.00  0.01
Si -0.00  0.00 -2.20
Si  1.79  1.06  0.74
Si -1.82  1.01  0.74
Si -0.03 -2.09  0.73
Si  0.00 -2.08  2.94
Si  1.80 -3.12  0.01
Si -1.80 -1.05 -2.94
Si  1.79  3.13 -0.01
Si  1.81  1.02  2.95
Si -1.78  3.14  0.01
Si  3.61  0.03 -0.01
Si  1.80 -1.04 -2.96
Si -3.62 -0.00 -0.01
Si  0.03  2.07 -2.97
Si -1.80 -3.15 -0.01
Si -1.83  1.06  2.95
Si  0.03  4.15  0.72
Si  3.60 -0.02 -2.19
Si  1.81 -1.04  3.66
Si -1.80 -3.12 -2.20
Si -1.82  3.12 -2.20
Si  0.01  2.09  3.68
Si -3.61  0.01 -2.21
Si  1.81  3.13 -2.21
Si -1.80 -1.04  3.69
Si -3.61 -2.10  0.75
Si  3.64 -2.08  0.74
Si  1.82 -3.15 -2.23
Si  0.00 -4.16 -2.95
Si  3.62  2.08 -2.95
Si -0.01  4.17  2.96
Si  3.60 -2.08  2.98
Si -3.63  2.08 -2.96
Si -3.62 -2.10  2.97
Si  3.60  4.16  0.73
Si -3.61  4.16  0.76
Si -5.40  1.06  0.74
Si -0.03 -4.18  3.66
Si -3.61  2.08  3.69
Si  3.63  2.07  3.68
Si  1.81 -1.05 -5.16
Si -1.79 -1.06 -5.17
Si  1.81 -5.23  0.76
Si -1.82 -5.23  0.73
Si  5.44  1.06  0.74
Si -0.03  2.08 -5.19
Si -5.39 -1.04 -2.95
Si -1.81 -5.20  2.93
Si -0.01 -6.24 -0.01
Si  3.60 -4.17 -2.94
Si -3.60 -4.17 -2.95
Si  5.42 -3.12  0.00
Si -5.42 -3.12  0.00
Si  1.80  1.05 -5.90
Si  0.01 -2.08 -5.90
Si -5.42  1.05  2.95
Si  1.80 -5.21  2.96
Si  3.61  4.19  2.93
Si  1.82  5.21 -2.95
Si  5.41  3.14 -0.01
Si -1.82  5.22 -2.94
Si  0.03  2.09  5.90
Si  5.42  1.05  2.95
Si -3.62  4.18  2.96
Si  1.82 -1.05  5.91
Si -1.82 -1.04  5.91
Si -0.00  6.27  0.00
Si -5.43  3.14 -0.01
Si  5.45 -1.04 -2.95
Si -1.81  1.06 -5.92
Si -0.02 -6.23 -2.23
Si  1.78  5.20  3.67
Si -5.41 -3.12 -2.21
Si  0.02 -4.18 -5.14
Si  3.61  2.09 -5.16
Si -5.40 -1.05  3.71
Si  3.61 -4.17  3.69
Si  5.43 -3.12 -2.21
Si  5.40  3.16 -2.23
Si -1.81  5.22  3.69
Si  0.01  0.01  6.65
Si  0.01  6.27 -2.21
Si -3.64 -4.18  3.67
Si -3.64  2.07 -5.18
Si  5.44 -1.05  3.71
Si -5.44  3.16 -2.23
Si  3.59 -2.07 -5.90
Si  3.62  6.24 -0.01
Si  0.03 -4.18  5.88
Si  7.22 -0.00 -0.01
Si -3.62  2.08  5.89
Si -7.23  0.03 -0.01
Si  3.64 -6.25  0.01
Si -3.61 -2.11 -5.90
Si -3.62 -6.26 -0.01
Si  3.62  2.08  5.91
Si -3.62  6.27  0.01
Si  0.00  4.18 -5.92
Si -7.20 -2.08  0.74
Si -3.60 -0.02  6.62
Si -3.60  6.24 -2.23
Si  1.81  7.29  0.75
Si -5.39 -5.24  0.72
Si  3.60 -6.27 -2.20
Si -3.61 -6.26 -2.21
Si  7.23  0.01 -2.21
Si  3.62 -4.17 -5.16
Si -1.80  5.22 -5.16
Si -5.41 -1.04 -5.17
Si -1.78  7.31  0.74
Si  1.81 -3.13  6.64
Si  3.62  6.27 -2.20
Si -7.24 -0.02 -2.19
Si  3.62  0.01  6.65
Si  1.81  3.14  6.64
Si  5.43 -1.04 -5.17
Si  7.24 -2.10  0.75
Si -1.82  3.11  6.66
Si -3.61 -4.17 -5.19
Si -1.82 -3.14  6.65
Si  1.81  5.22 -5.19
Si  5.45 -5.24  0.72
Si  3.60  4.17 -5.87
Si -1.82 -5.21 -5.87
Si  5.41  1.04 -5.89
Si -3.62  4.16 -5.88
Si  1.79  5.21  5.89
Si  7.21  2.08 -2.96
Si  1.80 -5.22 -5.88
Si -7.22  2.08 -2.95
Si -1.80  5.21  5.90
Si  1.80  7.29  2.97
Si  5.41 -5.22  2.96
Si -5.42 -1.03  5.90
Si  5.42 -1.03  5.90
Si -5.43  1.04 -5.89
Si -3.63 -4.17  5.89
Si  7.22 -2.10  2.97
Si  1.79 -7.30 -2.96
Si -1.80 -7.31 -2.95
Si  3.62 -4.18  5.90
Si -5.42  5.23 -2.95
Si  5.42  5.23 -2.95
Si -5.43 -5.22  2.96
Si -1.82  7.30  2.98
Si -7.24 -2.08  2.98
Si  5.39  5.21  3.66
Si -7.21  2.07  3.68
Si  1.81  1.03 -8.10
Si  0.02 -8.33  0.74
Si  0.02 -2.07 -8.11
Si -5.45  5.21  3.66
Si  7.24  4.16  0.76
Si  7.23  2.08  3.69
Si -7.24  4.16  0.73
Si -1.82  1.03 -8.12
Si -1.79 -7.32  3.68
Si  1.81 -7.31  3.69
Si  0.01 -8.34  2.95
Si -0.00  0.01  8.85
Si -7.23  4.19  2.93
Si  7.23  4.18  2.96
Si  0.03  8.35 -2.95
Si -0.01  0.01 -8.86
Si -7.24 -4.17 -2.94
Si  7.24 -4.17 -2.95
Si  5.40 -3.10  6.62
Si -5.40  5.21 -5.14
Si  7.20 -4.18  3.67
Si  5.39  7.30  0.73
Si  9.02  1.01  0.74
Si  7.20  2.07 -5.18
Si -5.44 -3.10  6.62
Si -3.63 -8.32  0.74
Si -1.81 -7.30 -5.16
Si  5.44  5.21 -5.14
Si -3.63 -2.07 -8.11
Si  3.60 -2.12 -8.11
Si -7.23  2.09 -5.16
Si -7.23 -4.17  3.69
Si  0.02  8.34  3.71
Si -0.03  4.17 -8.12
Si  5.42  3.13  6.65
Si -0.00 -6.26  6.65
Si -5.42  3.13  6.65
Si -5.45  7.30  0.73
Si  1.78 -7.31 -5.18
Si -0.02  6.29  6.62
Si  3.60 -8.38  0.74
Si -9.05  1.06  0.74
Si -5.39  5.20  5.88
Si  3.59 -8.32  2.95
Si -7.20 -6.25  0.01
Si -1.81 -9.36 -0.01
Si  9.01  1.06  2.95
Si -7.22  6.24 -0.01
Si  1.81  7.28 -5.90
Si  1.79 -3.13  8.84
Si  7.21 -6.26 -0.01
Si -9.03  1.02  2.95
Si  1.80  3.14 -8.84
Si  1.80  3.13  8.84
Si  3.62 -0.02  8.84
Si  7.22  2.08  5.89
Si  3.62  8.34 -2.94
Si -1.78 -3.12  8.86
Si  1.80 -7.30  5.89
Si  1.80  9.39 -0.01
Si -1.81  3.16  8.84
Si -5.42  7.31  2.94
Si  5.45  5.20  5.88
Si -5.39 -7.31 -2.97
Si -7.22  2.08  5.91
Si  7.22  6.27  0.01
Si  5.42  7.31  2.94
Si  1.80 -9.39 -0.01
Si -3.62  8.34 -2.96
Si -1.81 -3.10 -8.86
Si -1.80  3.11 -8.86
Si  9.04 -1.05 -2.94
Si -9.04 -3.12  0.01
Si -5.42 -5.21 -5.92
Si  3.64  0.01 -8.85
Si -9.04 -1.04 -2.96
Si  1.80 -3.13 -8.86
Si  5.42 -5.21 -5.92
Si -1.80 -7.31  5.91
Si  9.04 -3.15 -0.01
Si  7.23 -2.11 -5.90
Si -9.05  3.13 -0.01
Si -3.62  0.00 -8.86
Si -3.62  0.01  8.86
Si -3.61 -8.37  2.95
Si -7.25 -2.07 -5.90
Si -1.83  7.32 -5.90
Si -1.81  9.41 -0.01
Si  9.06  3.14  0.01
Si  5.45 -7.31 -2.97
Si -3.61  4.16 -8.10
Si -1.82  9.37 -2.19
Si  9.02  3.12 -2.20
Si -9.03 -1.04  3.66
Si  1.81 -9.37 -2.21
Si  0.03 -2.11  9.57
Si -1.78 -5.21 -8.11
Si -5.41 -7.30  3.68
Si -3.61  8.35  3.66
Si -9.02 -3.15 -2.23
Si -3.61 -6.24  6.64
Si -7.22 -4.17 -5.16
Si -9.03  3.13 -2.21
Si  9.04 -3.12 -2.20
Si -5.39  1.02 -8.13
Si  1.81 -5.23 -8.10
Si -1.78  1.05  9.59
Si  3.60  6.25  6.65
Si  5.43 -7.30  3.68
Si  7.23 -6.26 -2.21
Si -3.61  6.26  6.64
Si  7.24 -0.02  6.62
Si -7.22  6.27 -2.20
Si -7.22  0.01  6.65
Si  9.04 -1.04  3.69
Si  7.24  6.24 -2.23
Si  3.62  8.35  3.69
Si  0.01  8.35 -5.17
Si -7.24 -6.27 -2.20
Si  3.64  4.18 -8.11
Si  1.81  9.40 -2.21
Si  1.81  1.03  9.60
Si -1.82 -9.41 -2.19
Si  7.23 -4.17 -5.19
Si  3.60 -6.28  6.66
Si  5.45  1.02 -8.13
Si  7.22  4.16 -5.88
Si  7.21 -4.17  5.89
Si -7.24  4.17 -5.87
Si -0.01 -8.35 -5.89
Si -7.22 -4.18  5.90
Si  0.00  8.36  5.90
Si -3.61  8.34 -5.16
Si  3.60 -2.10  9.58
Si  9.02 -5.23  0.73
Si -9.03 -1.05 -5.16
Si  3.63  8.33 -5.17
Si -9.03 -5.23  0.76
Si  5.39 -7.31 -5.19
Si  0.02  4.19  9.60
Si  0.02 10.45  0.74
Si  9.05 -1.06 -5.17
Si -3.61 -2.10  9.61
Si -5.45 -7.31 -5.19
Si -5.39 -7.29  5.90
Si  9.03 -5.20  2.93
Si  5.41 -3.11  8.84
Si -9.02  5.21 -2.95
Si  9.02  5.22 -2.94
Si -9.02 -1.05  5.91
Si -10.83 -0.00  0.01
Si -5.41 -3.13 -8.85
Si  0.03 -10.42 -2.95
Si -0.00 -6.25 -8.85
Si  9.02 -1.04  5.91
Si -3.62 -8.34 -5.90
Si -5.43 -3.11  8.84
Si -5.41  9.39  0.01
Si  0.01  6.26 -8.85
Si -3.60  8.34  5.91
Si -5.41 -9.39  0.01
Si -5.42  7.30 -5.90
Si  3.61 -8.33 -5.92
Si -9.04  1.05 -5.90
Si -5.41  3.13  8.86
Si -9.04 -5.21  2.96
Si  3.60  8.35  5.91
Si  5.43 -3.13 -8.85
Si  5.42  3.14 -8.85
Si -0.01  6.27  8.84
Si  5.43  9.39  0.01
Si -5.42  3.14 -8.85
Si  5.42  7.30 -5.90
Si  0.01 10.43  2.95
Si  0.01 -6.26  8.86
Si  5.43 -9.39  0.01
Si  5.43  3.13  8.86
Si 10.85 -0.00  0.01
Si  5.45 -7.29  5.90
Si  9.03  1.06 -5.92
Si  3.60 10.40  0.74
Si  7.21 -8.32  0.74
Si 10.81 -2.09  0.73
Si  7.21 -2.07 -8.11
Si  5.39  1.04  9.58
Si -1.82  7.27 -8.11
Si  3.60  4.14  9.59
Si  1.79 -5.20  9.60
Si  5.39 -5.22 -8.12
Si 10.84  0.00 -2.20
Si  5.42 -9.39 -2.20
Si  5.42  9.39 -2.20
Si -5.42 -9.39 -2.20
Si -5.42  9.39 -2.20
Si -10.84  0.00 -2.20
Si  9.03  5.22  3.69
Si  1.79  7.32 -8.11
Si -5.45  1.04  9.58
Si  0.02 -10.44  3.71
Si -9.06  5.20  3.67
Si -0.02  0.03 -11.08
Si -7.24 -2.12 -8.11
Si -1.82 -5.25  9.59
Si -3.63  4.19  9.60
Si -5.45 -5.22 -8.12
Si -3.63 10.45  0.74
Si -10.87 -2.09  0.73
Si -7.24 -8.38  0.74
Si -10.81  2.07 -2.97
Si  3.61 -6.23  8.84
Si -3.61 10.41  2.95
Si -7.20  0.01 -8.85
Si -7.22  8.34 -2.94
Si -3.62 -6.25 -8.84
Si -7.22 -0.02  8.84
Si -10.84 -2.08  2.94
Si -3.62 -6.26  8.84
Si  7.22  8.34 -2.96
Si 10.84 -2.08  2.94
Si -3.62  6.26  8.84
Si  7.21  0.00 -8.86
Si -7.25 -8.32  2.95
Si  7.22  0.01  8.86
Si  3.62 -10.44 -2.94
Si -3.62 -10.43 -2.96
Si -3.62  6.26 -8.86
Si  3.59 10.45  2.95
Si  3.64  6.27  8.86
Si  3.62 -6.28 -8.86
Si  7.23 -8.37  2.95
Si  3.61  6.29 -8.86
Si 10.87  2.07 -2.97
Si -10.81  4.15  0.72
Si  1.82  9.37  6.62
Si  3.60 -0.01 -11.05
Si -7.20  4.18 -8.11
Si -3.61 -10.43  3.66
Si -9.03  7.29  0.75
Si -10.83  2.09  3.68
Si -1.82 -3.15 -11.04
Si -1.78 -11.47  0.74
Si  1.81 -3.12 -11.06
Si  7.24  4.16 -8.10
Si -1.80  3.14 -11.05
Si -3.61 -0.00 -11.06
Si  9.02  3.11  6.66
Si  7.23 -6.24  6.64
Si -1.80 -9.38  6.65
Si  7.23  8.35  3.66
Si  3.62 -10.43  3.69
Si -7.22  8.35  3.69
Si -9.03 -3.13  6.64
Si  9.02 -3.14  6.65
Si  0.01 -10.43 -5.17
Si  9.04  5.22 -5.16
Si  7.23  6.26  6.64
Si 10.85  2.09  3.68
Si -9.03  3.14  6.64
Si  1.82 -9.40  6.62
Si -9.03  5.22 -5.19
Si  1.82  3.11 -11.08
Si -7.24  6.25  6.65
Si -1.80  9.40  6.65
Si  1.81 -11.49  0.75
Si 10.87  4.15  0.72
Si  9.06  7.31  0.74
Si  0.03 -8.37 -8.13
Si -7.24 -6.28  6.66
Si  9.02 -5.21 -5.87
Si  0.00 -10.42  5.90
Si 10.83  4.17  2.96
Si -1.80 11.47 -2.95
Si -0.01 10.43 -5.89
Si -10.84 -4.16 -2.95
Si 10.84 -4.16 -2.95
Si  1.79 11.47 -2.96
Si  9.02  7.30  2.98
Si -1.80 -1.05 -11.80
Si  0.00  2.10 -11.80
Si -9.04 -5.22 -5.88
Si  9.04  5.21  5.90
Si -9.05  5.21  5.89
Si -9.04  7.29  2.97
Si  1.79 -1.05 -11.81
Si -1.82 -11.47  2.98
Si  9.04 -7.31 -2.95
Si -0.01 -2.09 11.81
Si  1.80 -11.48  2.97
Si -10.85  4.17  2.96
Si -9.05 -7.30 -2.96
Si  1.80  1.03 11.82
Si -1.82  1.04 11.83
Si 10.81 -4.18  3.66
Si -9.03  1.03 -8.10
Si -1.79 11.46  3.68
Si -7.21  8.33 -5.17
Si 10.81  2.08 -5.19
Si -1.82  7.29  9.58
Si  9.02  1.03 -8.12
Si -5.40 -5.20  9.60
Si  1.81 11.47  3.69
Si  7.23  8.34 -5.16
Si -3.61 -8.36 -8.10
Si -5.40  7.32 -8.11
Si -9.03 -7.31  3.69
Si -3.61 -10.44 -5.16
Si  5.44 -5.20  9.60
Si  1.81  7.29  9.61
Si -7.24 -2.10  9.58
Si  3.60 -8.36 -8.12
Si  5.44  7.32 -8.11
Si  9.05 -7.32  3.68
Si -10.87 -4.18  3.66
Si  3.63 -10.45 -5.17
Si  7.24 -2.10  9.61
Si -10.87  2.08 -5.19
Si  3.61 -2.07 11.78
Si -10.81  2.09  5.90
Si 10.83 -6.24 -0.01
Si -0.00 -12.51  0.00
Si  3.60  2.09 -11.79
Si -3.60  2.08 -11.80
Si  7.23 -8.34 -5.90
Si -10.84 -2.08 -5.90
Si  0.03 -4.17 -11.80
Si  3.60 -10.43  5.91
Si -10.85 -6.24 -0.01
Si -3.60 -10.43  5.91
Si -7.23 -8.33 -5.92
Si -3.62 10.44 -5.90
Si 10.85 -2.08 -5.90
Si  0.01  4.17 11.80
Si -3.62 -2.08 11.81
Si 10.84  6.27  0.00
Si -10.84  6.27  0.00
Si  7.24  8.34  5.91
Si -7.24  8.35  5.91
Si -0.01 12.53 -0.01
Si  3.61 10.45 -5.92
Si 10.87  2.09  5.90
Si 10.82 -6.23 -2.23
Si -10.82 -4.18 -5.14
Si 12.63  1.06  0.74
Si  1.78 -1.05 12.53
Si -7.24 10.40  0.74
Si  0.01 -12.50 -2.21
Si  0.01 -6.24 -11.06
Si  5.42 -3.13 -11.05
Si -5.41 -9.37  6.65
Si -0.00  6.26 -11.05
Si -5.42 -3.13 -11.05
