500
set: 130.00  0.00  0.00
Si -0.03 -0.03 -0.08
Si -1.82  1.13  0.71
Si  1.87  1.04  0.79
Si  0.03 -2.18  0.81
Si -0.01  0.07 -2.38
Si -3.72  0.05  0.05
Si  1.90  3.21  0.00
Si  1.93 -3.20 -0.07
Si -1.90  1.07  3.03
Si  1.84 -1.08 -3.08
Si -1.89 -1.04 -3.07
Si -1.84 -3.28  0.06
Si  1.91  1.05  3.08
Si  3.77  0.03 -0.03
Si -1.78  3.34  0.01
Si  0.01 -2.13  3.13
Si  0.07  2.21 -3.17
Si -1.85 -3.18 -2.23
Si -1.84  3.20 -2.29
Si -0.02  2.13  3.79
Si -3.73 -2.14  0.76
Si  1.88  3.23 -2.31
Si -3.79  0.01 -2.27
Si  1.91 -3.22 -2.37
Si  1.93 -1.09  3.84
Si  3.82 -2.16  0.69
Si -1.97 -1.08  3.86
Si  3.80 -0.03 -2.35
Si  0.13  4.40  0.81
Si -0.02 -4.30 -3.00
Si  3.72 -2.17  3.02
Si  0.01  4.32  3.11
Si -3.81 -2.13  3.05
Si -3.76  2.17 -3.14
Si  3.80  2.16 -3.10
Si -3.72  4.29  0.77
Si  0.06 -4.29  3.84
Si -5.62  1.01  0.81
Si  1.90 -5.42  0.73
Si  3.75  4.34  0.77
Si  1.87 -0.98 -5.39
Si  3.75  2.15  3.87
Si  5.64  1.09  0.81
Si -3.73  2.21  3.87
Si -1.91 -1.13 -5.38
Si -0.05  2.13 -5.48
Si -1.90 -5.52  0.76
Si -3.69 -4.30 -3.01
Si -5.59  3.15  0.03
Si -1.85 -5.34  3.08
Si  0.04  2.07  6.10
Si  3.64  4.36  3.07
Si  1.82 -5.42  3.02
Si -1.88  5.41 -3.02
Si -5.60 -3.27 -0.01
Si  5.64  1.06  3.07
Si  0.01 -2.17 -6.14
Si  0.07  6.51  0.04
Si  1.91  5.44 -3.04
Si -5.63  1.18  3.08
Si  3.82 -4.29 -3.08
Si -1.90 -1.10  6.15
Si -5.70 -1.09 -3.01
Si  5.68 -1.02 -3.07
Si  0.02 -6.54 -0.05
Si  5.67  3.29  0.06
Si  1.88 -1.17  6.18
Si -3.79  4.42  3.05
Si  5.65 -3.38  0.02
Si -1.94  1.00 -6.22
Si  1.83  1.16 -6.25
Si  3.71 -4.34  3.79
Si -0.03 -4.35 -5.31
Si -3.75 -4.27  3.86
Si  5.66  3.19 -2.25
Si  0.03  6.50 -2.26
Si -5.61  3.30 -2.26
Si -5.62 -3.28 -2.27
Si  5.67 -3.19 -2.27
Si -1.89  5.42  3.85
Si  5.60 -1.10  3.90
Si -0.03 -6.52 -2.32
Si -5.67 -1.01  3.85
Si -3.77  2.15 -5.43
Si  1.81  5.45  3.92
Si  3.82  2.18 -5.39
Si  0.01 -0.08  6.98
Si -3.78  6.44 -0.00
Si  3.72 -2.14 -6.12
Si  7.48  0.01 -0.01
Si -0.05 -4.34  6.10
Si  3.77  6.48 -0.03
Si -3.78 -2.19 -6.12
Si  3.74  2.15  6.16
Si -3.75 -6.54 -0.03
Si -7.55  0.01 -0.01
Si -0.05  4.33 -6.18
Si  3.73 -6.57 -0.00
Si -3.79  2.20  6.16
Si -1.82  7.45  0.80
Si -5.59 -5.37  0.80
Si -1.79  3.15  6.91
Si  1.89  5.33 -5.39
Si -1.91  5.40 -5.34
Si -7.47  0.11 -2.33
Si -3.79  0.02  6.87
Si  7.51 -2.19  0.71
Si  3.76  6.49 -2.33
Si -3.85 -4.35 -5.29
Si  3.72 -4.32 -5.41
Si -7.52 -2.19  0.71
Si -3.74  6.51 -2.35
Si -5.68 -1.11 -5.33
Si  3.77 -6.50 -2.35
Si  1.84  3.23  6.95
Si -3.76 -6.53 -2.33
Si  1.89 -3.34  6.89
Si  3.67 -0.01  6.99
Si -1.91 -3.28  6.95
Si  7.56  0.11 -2.33
Si  1.93  7.65  0.80
Si  5.72 -1.19 -5.37
Si  5.68 -5.56  0.80
Si  5.58  5.35 -3.06
Si -1.82  5.33  6.14
Si -5.63  1.08 -6.07
Si  7.49 -2.13  3.03
Si  1.85 -7.58 -3.04
Si  5.63 -5.38  3.09
Si -3.74  4.30 -6.14
Si  3.81 -4.33  6.09
Si  5.56 -1.13  6.19
Si -7.54 -2.13  3.03
Si  1.84 -5.45 -6.13
Si -5.66  5.44 -3.04
Si -3.74 -4.37  6.14
Si -5.62 -5.42  3.14
Si -1.97 -5.47 -6.09
Si  5.69  0.99 -6.14
Si -7.49  2.25 -3.16
Si  1.90  7.60  3.14
Si -5.67 -1.10  6.15
Si -1.88  7.63  3.09
Si  1.89  5.42  6.21
Si  3.81  4.35 -6.19
Si -1.95 -7.67 -3.06
Si  7.54  2.25 -3.16
Si  1.74 -7.58  3.72
Si  5.49  5.47  3.80
Si -7.47  4.30  0.79
Si  7.47  2.19  3.86
Si -0.05 -2.16 -8.42
Si -2.04 -7.55  3.80
Si  7.56  4.30  0.79
Si  0.04 -8.72  0.79
Si -5.77  5.44  3.72
Si -7.56  2.19  3.86
Si -2.04  1.12 -8.48
Si  1.74  1.10 -8.56
Si  7.38  4.32  3.06
Si -7.50 -4.34 -3.03
Si  0.03  8.67 -3.03
Si  7.53 -4.34 -3.03
Si -0.14 -0.02 -9.22
Si -0.14 -8.69  3.06
Si  0.03 -0.00  9.25
Si -7.64  4.32  3.06
Si  5.62  7.50  0.76
Si -0.05 -6.54  6.80
Si  7.51 -4.29  3.80
Si  5.62  3.21  6.90
Si -7.52 -4.29  3.80
Si  5.61  5.42 -5.35
Si  3.77 -2.13 -8.41
Si -5.61  7.60  0.73
Si -5.65  5.40 -5.36
Si -0.01  6.53  6.87
Si -3.77 -2.19 -8.42
Si -3.77 -8.67  0.77
Si  5.61 -3.26  6.93
Si -9.39  1.09  0.81
Si -1.92 -7.60 -5.35
Si  1.86 -7.62 -5.36
Si  9.41  1.01  0.81
Si  7.49  2.19 -5.41
Si  0.06  4.38 -8.44
Si -5.64  3.36  6.89
Si  0.00  8.72  3.80
Si -5.65 -3.28  6.92
Si -7.54  2.19 -5.41
Si  3.79 -8.73  0.77
Si -1.86  9.63  0.02
Si  1.83 -7.51  6.04
Si  5.59  5.34  6.06
Si  3.72 -8.59  3.05
Si  1.88  7.50 -6.10
Si  9.34 -1.09 -3.01
Si -7.45 -6.50  0.04
Si -9.35 -1.02 -3.07
Si -7.49  6.48 -0.05
Si -1.85 -9.73  0.06
Si -5.61 -7.57 -3.04
Si -3.69  0.05  9.20
Si  1.88 -3.17 -9.20
Si -1.90  7.57 -6.13
Si -9.37  3.29  0.06
Si  1.92  9.75 -0.01
Si -7.50  2.17  6.14
Si  5.61 -5.45 -6.13
Si  5.63 -7.61 -3.02
Si -9.39  1.06  3.07
Si  7.54  6.48 -0.05
Si -5.67  5.50  6.04
Si  3.72  0.08 -9.23
Si  9.44  3.15  0.03
Si -1.89 -3.28 -9.21
Si  7.53  2.17  6.14
Si -5.68  7.59  3.02
Si -1.85  3.33 -9.20
Si -3.69  8.72 -3.08
Si -1.82  3.33  9.21
Si -7.48 -2.27 -6.18
Si  9.40  1.18  3.08
Si -9.38 -3.38  0.02
Si -1.93 -7.68  6.06
Si -3.88 -8.66  3.07
Si  1.91 -3.23  9.24
Si -5.64 -5.51 -6.10
Si  9.43 -3.27 -0.01
Si  3.83  8.71 -3.01
Si  1.82  3.25 -9.26
Si  7.58 -6.50  0.04
Si  1.83  3.25  9.27
Si -3.88  0.02 -9.21
Si -1.88 -3.27  9.26
Si  7.55 -2.27 -6.18
Si  5.67  7.68  3.08
Si  3.83  0.04  9.27
Si  1.92 -9.86  0.03
Si  0.01  8.59 -5.30
Si -9.36 -3.19 -2.27
Si  3.75  6.49  6.85
Si  1.84 -5.35 -8.43
Si  1.91 -9.71 -2.26
Si -9.38  3.19 -2.25
Si  9.36 -1.01  3.85
Si -1.92 -5.45 -8.38
Si -3.69  6.52  6.89
Si  1.90  9.74 -2.27
Si -7.49 -6.51 -2.26
Si -3.77 -6.53  6.85
Si  7.49  6.50 -2.32
Si -5.71  1.11 -8.36
Si  5.62  1.08 -8.43
Si  5.62 -7.59  3.85
Si -3.80  8.67  3.79
Si -7.51 -4.42 -5.30
Si  3.82 -6.49  6.89
Si  7.52 -4.42 -5.30
Si  7.54 -6.51 -2.26
Si -3.75  4.41 -8.42
Si -7.54  6.50 -2.32
Si  9.41 -3.28 -2.27
Si  3.71  4.33 -8.49
Si  7.49 -0.01  6.97
Si  9.43  3.30 -2.26
Si  1.90  1.06 10.01
Si -1.87 -9.82 -2.25
Si -1.83  1.16 10.02
Si  0.03 -2.17 10.02
Si -5.71 -7.56  3.92
Si -1.83  9.83 -2.27
Si -9.43 -1.10  3.90
Si -7.54 -0.01  6.97
Si  3.77  8.75  3.86
Si  7.47 -4.31  6.09
Si -7.56 -4.31  6.09
Si -0.04  8.71  6.09
Si -0.05 -8.65 -6.19
Si  7.47  4.37 -6.19
Si -7.56  4.37 -6.19
Si  3.67  8.66 -5.29
Si -9.31 -1.19 -5.37
Si  9.35 -1.11 -5.33
Si -3.74 -2.16  9.93
Si -0.00 10.83  0.71
Si  5.60 -7.62 -5.34
Si  3.77 -2.19  9.95
Si  9.44 -5.37  0.80
Si  0.05  4.45  9.95
Si -9.35 -5.56  0.80
Si -3.79  8.69 -5.41
Si -5.63 -7.68 -5.39
Si  0.07 -6.47  9.11
Si  5.55  7.55 -6.09
Si -5.62  3.25 -9.14
Si  0.02 -10.76 -3.16
Si -9.34  0.99 -6.14
Si -3.70  8.69  6.09
Si  9.40  1.08 -6.07
Si  5.73 -9.68  0.01
Si  0.01  6.55 -9.15
Si  9.36 -1.10  6.15
Si  3.78  8.64  6.14
Si  9.38  5.44 -3.04
Si  0.04  6.59  9.12
Si -11.26  0.03 -0.03
Si  5.68  9.73  0.06
Si  5.63  3.29 -9.19
Si -9.40 -5.38  3.09
Si -5.67  7.57 -6.13
Si -5.62 -3.29 -9.21
Si -3.71 -8.67 -6.19
Si  5.58 -3.33  9.22
Si -9.46  5.35 -3.06
Si  5.64  3.30  9.21
Si -5.67  3.26  9.20
Si -0.02 10.88  3.03
Si -0.03 -6.47 -9.26
Si -5.58  9.82 -0.07
Si  5.61 -3.27 -9.25
Si -5.62 -9.80  0.00
Si  3.77 -8.71 -6.14
Si  9.41 -5.42  3.14
Si 11.31  0.05  0.05
Si -5.65 -3.24  9.24
Si -5.63 -7.59  6.21
Si  5.69 -7.68  6.14
Si  9.26  5.44  3.72
Si -9.47 -1.13  6.19
Si -7.39 -8.61  0.81
Si -5.60  1.12  9.91
Si -11.21 -2.16  0.69
Si  5.54 -5.42 -8.42
Si -3.71  4.31  9.94
Si 11.24  0.01 -2.27
Si -11.23 -0.03 -2.35
Si -3.69 10.85  0.69
Si -5.59 -5.43 -8.44
Si  0.04 -0.04 -11.49
Si -0.05 -10.83  3.86
Si -1.97  7.59 -8.42
Si  1.93  7.59 -8.44
Si  1.88 -5.44  9.97
Si 11.30 -2.14  0.76
Si -5.64 -9.79 -2.31
Si -5.60  9.80 -2.37
Si  3.74  4.35 10.01
Si  3.79 10.87  0.76
Si  7.49 -2.21 -8.49
Si  7.64 -8.61  0.81
Si -1.84 -5.47  9.99
Si  5.67 -9.81 -2.29
Si -7.54 -2.21 -8.49
Si  5.67  9.84 -2.23
Si  5.67  1.16 10.05
Si -9.55  5.47  3.80
Si 11.22 -2.13  3.05
Si -3.76 -6.50  9.14
Si  3.76  6.51  9.14
Si -11.23  2.16 -3.10
Si -3.71  6.50  9.19
Si -7.51 -0.02 -9.17
Si  7.52 -0.02 -9.17
Si  3.69 -6.47 -9.23
Si -3.79 10.84  3.02
Si -3.72 -10.85 -3.10
Si  3.80 -6.51  9.19
Si  7.50  8.71 -3.00
Si  3.75 -10.85 -3.14
Si -7.51 -8.69  3.11
Si  3.71 10.89  3.05
Si -7.53  8.71 -3.00
Si 11.27  2.17 -3.14
Si -11.31 -2.17  3.02
Si  3.72  6.50 -9.26
Si  7.53 -8.69  3.11
Si  7.51  0.04  9.28
Si -3.81  6.54 -9.23
Si -3.80 -6.51 -9.26
Si -7.53  0.04  9.28
Si  7.47  6.47  6.80
Si  1.87 -9.66  6.89
Si -7.56  6.47  6.80
Si -9.41  7.50  0.76
Si  7.50 -6.48  6.87
Si -1.88 -3.25 -11.47
Si  9.38  5.40 -5.36
Si  3.78 -10.80  3.87
Si -7.54 -6.48  6.87
Si -1.90  3.16 -11.52
Si  1.87  9.74  6.92
Si  1.89 -3.33 -11.47
Si -7.45  8.72  3.84
Si -0.01 -8.63 -8.48
Si -1.88 -11.93  0.81
Si -0.03 -10.82 -5.41
Si -9.41  3.21  6.90
Si  9.38 -3.28  6.92
Si  3.79 -0.05 -11.51
Si -11.28  2.15  3.87
Si -11.28  4.34  0.77
Si -3.78  0.00 -11.51
Si -9.43  5.42 -5.35
Si -1.90  9.76  6.93
Si 11.31  4.29  0.77
Si  9.39  3.36  6.89
Si  9.42  7.60  0.73
Si -3.77 -10.86  3.87
Si -9.42 -3.26  6.93
Si -1.91 -9.81  6.90
Si  7.51  4.38 -8.48
Si 11.30  2.21  3.87
Si  1.90  3.26 -11.55
Si -7.52  4.38 -8.48
Si  7.58  8.72  3.84
Si  1.89 -12.00  0.81
Si  1.88 -11.84  3.08
Si -11.21 -4.29 -3.08
Si  0.04 10.74 -6.18
Si -1.86 -1.05 -12.22
Si  9.35  7.59  3.02
Si  9.36  5.50  6.04
Si -9.44  5.34  6.06
Si  1.83 11.93 -3.01
Si  1.91 -1.19 -12.25
Si  0.01 -10.84  6.14
Si 11.24  4.42  3.05
Si  9.42 -7.57 -3.04
Si -9.40 -7.61 -3.02
Si  1.92  1.07 12.27
Si -1.85  0.96 12.30
Si  9.39 -5.51 -6.10
Si -1.89 -11.95  3.07
Si -9.42 -5.45 -6.13
Si -9.36  7.68  3.08
Si 11.34 -4.30 -3.01
Si  0.07 -2.16 12.32
Si  0.02  2.13 -12.33
Si -1.83 12.00 -3.07
Si  9.32  1.11 -8.36
Si -11.39  4.36  3.07
Si  5.60  7.57 -8.38
Si  3.76 -8.61 -8.42
Si  7.49  8.66 -5.31
Si  9.32 -7.56  3.92
Si -11.21  2.18 -5.39
Si -7.54  8.66 -5.31
Si  7.49 -2.18  9.96
Si -3.70 -10.84 -5.39
Si 11.29 -4.27  3.86
Si -1.91 11.91  3.90
Si -5.60 -5.37 10.02
Si -7.54 -2.18  9.96
Si -1.85  7.54 10.03
Si -9.41  1.08 -8.43
Si 11.26  2.15 -5.43
Si -9.41 -7.59  3.85
Si -11.32 -4.34  3.79
Si  3.74 -10.87 -5.43
Si -5.67  7.66 -8.43
Si -3.81 -8.68 -8.49
Si  1.85 12.00  3.85
Si  1.92  7.64 10.02
Si  5.66 -5.48 10.03
Si 11.25  6.44 -0.00
Si  7.47  8.68  6.10
Si  3.74 10.82 -6.12
Si  3.72 -10.81  6.16
Si 11.25 -2.19 -6.12
Si -11.26  6.48 -0.03
Si -0.04 -13.00 -0.01
Si  3.77 -2.19 12.25
Si 11.24  2.20  6.16
Si  7.46 -8.68 -6.18
Si  3.73  2.10 -12.28
Si -7.56  8.68  6.10
Si -0.03  4.36 12.28
Si -0.04 -4.33 -12.29
Si -0.03 13.03 -0.01
Si 11.28 -6.54 -0.03
Si -11.29  2.15  6.16
Si -11.31 -2.14 -6.12
Si -3.77 -2.23 12.28
Si -3.79 10.88 -6.12
Si -3.75  2.14 -12.31
Si -3.78 -10.87  6.16
Si -11.30 -6.57 -0.00
Si -7.58 -8.68 -6.18
Si 11.18 -4.35 -5.29
Si  0.04 -12.90 -2.33
Si -1.79 11.83 -5.37
Si -0.01 -8.60  9.90
Si -5.62  9.68  6.89
Si -0.00  2.15 12.99
Si  1.84 11.90 -5.33
Si 11.24  0.02  6.87
Si  0.03  6.50 -11.47
Si  5.68  3.11 -11.48
Si  7.51  4.42  9.90
