500
set: 1152.00  0.00  0.00
Si -0.04  0.02 -0.03
Si  0.04  0.01  2.37
Si  0.02 -0.04 -2.38
Si  1.25 -2.13  0.09
Si  2.48  0.02  0.01
Si -2.53 -0.03  0.02
Si -1.26 -2.20  0.01
Si  1.27  2.20  0.04
Si -1.28  2.27 -0.07
Si  1.17  2.17 -2.34
Si  1.26 -2.19 -2.29
Si -2.46  0.06  2.40
Si -1.23  2.26  2.31
Si -1.26 -2.19  2.39
Si  2.54  0.02 -2.39
Si -1.26  2.20 -2.39
Si  1.22  2.20  2.42
Si -2.56 -0.08 -2.40
Si -1.23 -2.24 -2.41
Si  2.57  0.06  2.41
Si  1.25 -2.16  2.49
Si  0.03 -4.35  0.01
Si  3.80 -2.12  0.00
Si  0.04  4.39  0.02
Si  3.81  2.19 -0.03
Si -3.84 -2.16 -0.06
Si -3.79  2.27 -0.01
Si -0.04 -0.01 -4.76
Si -0.04 -0.01  4.78
Si -3.73  2.13 -2.39
Si  0.03 -4.32  2.38
Si -0.02  4.35 -2.34
Si -3.74 -2.24  2.34
Si  3.80  2.16  2.36
Si  3.74 -2.23  2.40
Si  3.79 -2.20 -2.38
Si  0.03 -4.38 -2.37
Si  2.58 -4.27  0.02
Si -0.02  4.37  2.42
Si -3.75 -2.23 -2.43
Si -3.81  2.21  2.44
Si  3.82  2.18 -2.47
Si  5.05  0.03  0.04
Si -2.50 -4.39 -0.07
Si  2.55  4.37 -0.07
Si -5.08  0.03  0.04
Si -2.50  4.49  0.02
Si  1.25 -2.16 -4.70
Si -1.24  2.23  4.70
Si  1.29  2.17 -4.73
Si  2.54 -0.04 -4.72
Si -2.60 -0.03  4.74
Si -1.28 -2.23  4.77
Si -1.28 -2.23 -4.78
Si  1.29  2.17  4.82
Si  1.25 -2.16  4.84
Si  2.54 -0.04  4.82
Si -2.60 -0.03 -4.81
Si -4.94 -0.07  2.36
Si -1.24  2.23 -4.85
Si  2.51  4.30 -2.40
Si  5.02 -0.03 -2.37
Si  2.52 -4.34 -2.38
Si  2.50 -4.35  2.39
Si  2.55  4.36  2.34
Si -2.50 -4.40  2.34
Si -5.11 -0.03 -2.37
Si -2.56  4.42 -2.38
Si -2.58  4.41  2.39
Si -2.53 -4.46 -2.40
Si  5.19 -0.07  2.36
Si -3.75  2.17 -4.77
Si -3.75  2.17  4.77
Si  3.79 -2.22  4.73
Si  3.82  2.14  4.74
Si -0.03  4.37 -4.76
Si -3.81 -2.19  4.75
Si -0.03  4.37  4.78
Si -0.05 -4.41  4.75
Si  3.82  2.14 -4.80
Si -3.81 -2.19 -4.80
Si -0.05 -4.41 -4.79
Si  3.79 -2.22 -4.81
Si  1.29 -6.49 -0.01
Si -5.01 -4.37  0.02
Si  6.29 -2.16 -0.06
Si -6.33 -2.12  0.00
Si -1.24 -6.57 -0.03
Si -6.32  2.19 -0.03
Si -5.05  4.41  0.01
Si  1.21  6.60 -0.06
Si  5.12 -4.37  0.02
Si  5.08  4.41  0.01
Si  6.34  2.27 -0.01
Si -1.28  6.64  0.00
Si  2.49 -4.35  4.74
Si  2.50  4.32  4.76
Si  2.50  4.32 -4.78
Si  5.03 -0.03 -4.75
Si  2.49 -4.35 -4.81
Si  5.03 -0.03  4.80
Si -5.10 -0.03 -4.75
Si -2.59  4.41  4.74
Si -2.55 -4.44  4.76
Si -5.10 -0.03  4.80
Si -2.55 -4.44 -4.78
Si -2.59  4.41 -4.81
Si  1.30  6.52  2.34
Si  1.29  6.53 -2.43
Si -5.05  4.38 -2.37
Si -1.34  6.54  2.40
Si -6.33  2.16  2.36
Si -1.29  6.56 -2.38
Si  1.27 -6.55  2.44
Si  5.06 -4.41 -2.34
Si  5.08  4.38 -2.37
Si -5.07 -4.41 -2.34
Si -1.25 -6.60  2.36
Si -6.31  2.18 -2.47
Si  5.06 -4.39  2.42
Si -6.34 -2.20 -2.38
Si  6.32  2.21  2.44
Si -5.05  4.43  2.38
Si -5.07 -4.39  2.42
Si -1.23 -6.58 -2.47
Si  5.08  4.43  2.38
Si  6.39  2.13 -2.39
Si  6.38 -2.24  2.34
Si  0.02 -0.04  7.17
Si  0.04  0.01 -7.17
Si -6.39 -2.23  2.40
Si  6.37 -2.23 -2.43
Si  1.34 -6.63 -2.39
Si  1.25 -2.16 -7.05
Si  3.80 -6.49 -0.07
Si  1.22  2.20 -7.12
Si -2.46  0.06 -7.15
Si -3.77 -6.56  0.04
Si -1.23 -2.24  7.13
Si  3.78  6.56  0.01
Si -1.26 -2.19 -7.15
Si -1.26  2.20  7.15
Si  2.57  0.06 -7.14
Si  2.54  0.02  7.16
Si -2.56 -0.08  7.15
Si  7.60 -0.03  0.02
Si  1.17  2.17  7.20
Si -7.65  0.02  0.01
Si -3.83  6.62  0.09
Si -1.23  2.26 -7.23
Si  1.26 -2.19  7.25
Si  3.85 -6.50  2.31
Si -7.56  0.06  2.41
Si  3.82  6.52 -2.41
Si  7.57 -0.08 -2.40
Si -3.82  6.57 -2.29
Si  3.79  6.57  2.39
Si -7.58  0.02 -2.39
Si  3.82 -6.56 -2.39
Si -3.83 -6.56  2.42
Si -3.88 -6.59 -2.34
Si  7.66  0.06  2.40
Si -3.83  6.60  2.49
Si  4.99  4.35  4.75
Si -1.29  6.54  4.73
Si  4.99  4.35 -4.79
Si -6.31  2.14  4.74
Si  6.31 -2.19  4.75
Si  1.23  6.57  4.75
Si  5.05 -4.39 -4.76
Si -6.31  2.14 -4.80
Si -6.34 -2.22  4.73
Si  5.05 -4.39  4.78
Si -1.29  6.54 -4.81
Si  6.31 -2.19 -4.80
Si  1.23  6.57 -4.80
Si -5.08 -4.39 -4.76
Si -1.23 -6.62  4.74
Si -5.13  4.35  4.75
Si -5.08 -4.39  4.78
Si  1.33 -6.59 -4.77
Si  1.33 -6.59  4.77
Si  6.38  2.17 -4.77
Si  6.38  2.17  4.77
Si -5.13  4.35 -4.79
Si -6.34 -2.22 -4.81
Si -1.23 -6.62 -4.80
Si  3.82  2.18  7.07
Si -3.73  2.13  7.15
Si -3.75 -2.23  7.12
Si -3.81  2.21 -7.10
Si -0.02  4.37 -7.13
Si  3.74 -2.23 -7.15
Si  0.03 -4.33 -7.17
Si  3.79 -2.20  7.16
Si  0.03 -4.38  7.18
Si  3.80  2.16 -7.18
Si -0.02  4.35  7.20
Si -3.74 -2.24 -7.21
Si -7.55 -4.27  0.02
Si  2.51  4.30  7.15
Si -4.94 -0.07 -7.18
Si -0.00 -8.73  0.04
Si  2.50 -4.35 -7.16
Si  2.52 -4.34  7.16
Si -7.58  4.37 -0.07
Si  5.02 -0.03  7.17
Si -2.58  4.41 -7.16
Si -0.03  8.79  0.04
Si -2.56  4.42  7.16
Si  2.55  4.36 -7.20
Si -2.50 -4.40 -7.20
Si -2.53 -4.46  7.15
Si  7.63 -4.39 -0.07
Si -5.11 -0.03  7.17
Si  7.62  4.49  0.02
Si  5.19 -0.07 -7.18
Si  7.52 -0.03  4.74
Si  3.84 -6.53  4.70
Si  3.77  6.53  4.77
Si  3.77  6.53 -4.78
Si  7.52 -0.03 -4.81
Si -7.58 -0.04 -4.72
Si -3.76 -6.59 -4.73
Si -3.82  6.60 -4.70
Si -7.58 -0.04  4.82
Si  3.84 -6.53 -4.85
Si -3.76 -6.59  4.82
Si  0.11  8.69  2.36
Si -3.82  6.60  4.84
Si -0.06  8.73 -2.37
Si -7.58  4.36  2.34
Si -6.32 -6.49 -0.07
Si  7.55  4.41  2.39
Si -7.61  4.30 -2.40
Si -7.61 -4.34 -2.38
Si  7.57  4.42 -2.38
Si  2.52  8.73  0.02
Si -7.62 -4.35  2.39
Si -0.03 -8.79 -2.37
Si -2.57 -8.74  0.01
Si  7.63 -4.40  2.34
Si -8.85  2.20  0.04
Si -6.34  6.56  0.01
Si -8.87 -2.13  0.09
Si  7.59 -4.46 -2.40
Si  8.86 -2.20  0.01
Si  6.35 -6.56  0.04
Si  8.85  2.27 -0.07
Si  6.30  6.62  0.09
Si  0.14 -8.83  2.36
Si  2.55 -8.79  0.02
Si -2.60  8.78  0.01
Si -6.28 -6.50  2.31
Si  2.49  8.68 -2.40
Si -2.48 -8.70  2.41
Si  6.25 -6.59 -2.34
Si -6.31  6.52 -2.41
Si  6.31  6.57 -2.29
Si  2.62 -8.70  2.40
Si -2.51 -8.74 -2.39
Si  6.29 -6.56  2.42
Si -6.31 -6.56 -2.39
Si -8.87 -2.19 -2.29
Si -6.33  6.57  2.39
Si  8.87  2.20 -2.39
Si  8.87 -2.19  2.39
Si -2.54  8.78 -2.39
Si  6.29  6.60  2.49
Si  8.90  2.26  2.31
Si -8.88 -2.16  2.49
Si -2.51  8.82  2.41
Si  8.89 -2.24 -2.41
Si -8.91  2.20  2.42
Si  2.58  8.82  2.40
Si  2.52 -8.84 -2.40
Si -8.96  2.17 -2.34
Si -0.04  0.02  9.52
Si -0.04  0.02 -9.57
Si -6.31  2.18  7.07
Si -1.23 -6.58  7.07
Si  1.29  6.53  7.12
Si  1.27 -6.55 -7.10
Si  6.32  2.21 -7.10
Si  1.25 -2.13 -9.45
Si -1.34  6.54 -7.15
Si  5.06 -4.39 -7.13
Si -5.07 -4.39 -7.13
Si -1.29  6.56  7.16
Si -5.05  4.38  7.18
Si  1.30  6.52 -7.21
Si  6.37 -2.23  7.12
Si -6.34 -2.20  7.16
Si -6.33  2.16 -7.18
Si  5.08  4.38  7.18
Si -1.28  2.27  9.47
Si -5.05  4.43 -7.17
Si  6.39  2.13  7.15
Si -1.25 -6.60 -7.18
Si  1.27  2.20 -9.50
Si -6.39 -2.23 -7.15
Si  5.08  4.43 -7.17
Si  5.06 -4.41  7.20
Si  1.34 -6.63  7.15
Si -5.07 -4.41  7.20
Si  2.48  0.02 -9.53
Si -2.53 -0.03 -9.52
Si -1.26 -2.20 -9.53
Si  2.48  0.02  9.56
Si  6.38 -2.24 -7.21
Si -1.26 -2.20  9.55
Si -2.53 -0.03  9.57
Si  1.27  2.20  9.59
Si -0.05  8.73 -4.75
Si  7.54  4.41  4.74
Si  1.25 -2.13  9.64
Si -0.05  8.73  4.80
Si -1.28  2.27 -9.62
Si  7.54  4.41 -4.81
Si -7.63  4.32  4.76
Si -7.64 -4.35  4.74
Si -7.63  4.32 -4.78
Si  7.58 -4.44  4.76
Si -0.02 -8.79 -4.75
Si  7.58 -4.44 -4.78
Si -0.02 -8.79  4.80
Si -7.64 -4.35 -4.81
Si  5.04 -8.74 -0.03
Si 10.09  0.02 -0.03
Si  5.01  8.78 -0.03
Si -5.08 -8.74 -0.03
Si -5.11  8.78 -0.03
Si -10.16  0.02 -0.03
Si -6.29 -6.53  4.70
Si  2.44  8.73  4.74
Si -2.54  8.72 -4.72
Si -8.84  2.17 -4.73
Si  2.44  8.73 -4.81
Si  6.30  6.60 -4.70
Si -8.87 -2.16 -4.70
Si -6.29 -6.53 -4.85
Si -6.36  6.53  4.77
Si -2.54  8.72  4.82
Si -6.36  6.53 -4.78
Si  2.48 -8.79  4.74
Si -2.51 -8.80 -4.72
Si  8.88  2.23  4.70
Si -8.84  2.17  4.82
Si  8.85 -2.23  4.77
Si  8.85 -2.23 -4.78
Si  6.37 -6.59 -4.73
Si  2.48 -8.79 -4.81
Si  6.30  6.60  4.84
Si -8.87 -2.16  4.84
Si -2.51 -8.80  4.82
Si -5.01 -8.74  2.37
Si  6.37 -6.59  4.82
Si -5.06  8.72 -2.38
Si -10.09  0.01  2.37
Si  8.88  2.23 -4.85
Si  5.07  8.72 -2.38
Si -10.11 -0.04 -2.38
Si  3.82  6.52  7.13
Si -5.04  8.78  2.37
Si -3.83  6.60 -7.05
Si -7.56  0.06 -7.14
Si  5.12 -8.74  2.37
Si -5.03 -8.80 -2.38
Si  7.57 -0.08  7.15
Si -3.83 -6.56 -7.12
Si  5.09  8.78  2.37
Si 10.14 -0.04 -2.38
Si  3.79  6.57 -7.15
Si  3.82 -6.56  7.15
Si -7.58  0.02  7.16
Si 10.16  0.01  2.37
Si  5.10 -8.80 -2.38
Si -3.84 -2.16  9.48
Si  3.85 -6.50 -7.23
Si  0.03 -4.35 -9.53
Si  7.66  0.06 -7.15
Si  3.81  2.19  9.52
Si  3.80 -2.12 -9.54
Si  3.80 -2.12  9.55
Si  0.04  4.39 -9.53
Si  0.03 -4.35  9.56
Si -3.79  2.27  9.53
Si -3.82  6.57  7.25
Si -3.88 -6.59  7.20
Si  0.04  4.39  9.56
Si -3.79  2.27 -9.56
Si  3.81  2.19 -9.57
Si -3.84 -2.16 -9.61
Si -2.50 -4.39  9.47
Si  2.55  4.37  9.47
Si  2.58 -4.27 -9.53
Si  5.05  0.03 -9.50
Si -5.08  0.03 -9.50
Si  2.58 -4.27  9.56
Si -2.50  4.49 -9.53
Si  5.05  0.03  9.59
Si -5.08  0.03  9.59
Si -2.50  4.49  9.56
Si -2.50 -4.39 -9.62
Si  2.55  4.37 -9.62
Si -1.25 -10.88  0.00
Si -8.84 -6.49 -0.01
Si  1.24 -10.92 -0.06
Si -10.10 -4.35  0.01
Si -10.09  4.39  0.02
Si -1.27 10.95 -0.03
Si 10.16 -4.35  0.01
Si  8.89 -6.57 -0.03
Si  8.85  6.64  0.00
Si 10.16  4.39  0.02
Si -8.91  6.60 -0.06
Si  1.26 11.03 -0.01
Si  5.01  8.75 -4.76
Si 10.09 -0.01 -4.76
Si  5.01  8.75  4.78
Si 10.09 -0.01  4.78
Si  5.04 -8.77 -4.76
Si  5.04 -8.77  4.78
Si -5.08 -8.77 -4.76
Si -5.12  8.75 -4.76
Si -5.08 -8.77  4.78
Si -5.12  8.75  4.78
Si  8.79  6.54  2.40
Si -8.82  6.52  2.34
Si -10.16 -0.01 -4.76
Si  1.31 10.89 -2.39
Si -10.16 -0.01  4.78
Si -10.10 -4.32  2.38
Si -8.83  6.53 -2.43
Si -1.28 10.92  2.36
Si 10.11  4.35 -2.34
Si -10.10 -4.38 -2.37
Si  8.83  6.56 -2.38
Si -8.78 -6.63 -2.39
Si 10.10  4.37  2.42
Si  0.11  8.69 -7.18
Si -8.86 -6.55  2.44
Si -1.26 -10.96 -2.38
Si -10.14  4.35 -2.34
Si -1.26 10.94 -2.47
Si -7.61  4.30  7.15
Si 10.16 -4.32  2.38
Si  7.55  4.41 -7.16
Si -0.06  8.73  7.17
Si  1.24 10.97  2.44
Si  8.88 -6.60  2.36
Si -10.15  4.37  2.42
Si 10.16 -4.38 -2.37
Si -7.61 -4.34  7.16
Si  7.57  4.42  7.16
Si -1.31 -10.98  2.40
Si  1.34 -11.00  2.34
Si -7.62 -4.35 -7.16
Si -7.58  4.36 -7.20
Si  1.32 -10.99 -2.43
Si  8.90 -6.58 -2.47
Si  7.59 -4.46  7.15
Si -0.03 -8.79  7.17
Si  7.63 -4.40 -7.20
Si  0.14 -8.83 -7.18
Si  2.49  8.68  7.15
Si -2.48 -8.70 -7.14
Si  6.29  6.60 -7.05
Si -3.79 -10.89  0.09
Si -6.31  6.52  7.13
Si -8.88 -2.16 -7.05
Si  6.29 -6.56 -7.12
Si  7.56 -8.74  0.01
Si  2.62 -8.70 -7.15
Si  7.53  8.78  0.01
Si -2.51 -8.74  7.16
Si -6.31 -6.56  7.15
Si -6.28 -6.50 -7.23
Si 11.38 -2.13  0.09
Si -7.61  8.73  0.02
Si  6.29 -2.16  9.48
Si  6.25 -6.59  7.20
Si -6.33  6.57 -7.15
Si -3.80 10.96  0.04
Si -7.57 -8.79  0.02
Si  8.87  2.20  7.15
Si -11.39 -2.20  0.01
Si  3.81 -10.96  0.01
Si  1.29 -6.49  9.53
Si  8.87 -2.19 -7.15
Si -2.54  8.78  7.16
Si 11.40  2.20  0.04
Si -5.01 -4.37 -9.53
Si  8.89 -2.24  7.13
Si -8.91  2.20 -7.12
Si -2.51  8.82 -7.14
Si  1.21  6.60  9.48
Si  1.29 -6.49 -9.56
Si -11.40  2.27 -0.07
Si -1.24 -6.57  9.52
