500
set: 649.00  0.00  0.00
Si  0.60 -0.90  0.88
Si -0.60  0.90 -0.88
Si  1.07  1.31  0.88
Si -1.07 -1.31 -0.88
Si  1.10 -0.21 -2.41
Si -1.10  0.21  2.41
Si  2.62 -1.31 -0.88
Si -2.62  1.31  0.88
Si -0.13  3.11 -0.88
Si  0.13 -3.11  0.88
Si -3.08 -0.90  0.88
Si  3.08  0.90 -0.88
Si  0.64 -2.43 -2.41
Si -0.64  2.43  2.41
Si -1.57 -2.00  2.41
Si  1.57  2.00 -2.41
Si -2.58 -0.21 -2.41
Si  2.58  0.21  2.41
Si -2.11  2.00 -2.41
Si  2.11 -2.00  2.41
Si  1.54  3.52  0.88
Si -1.54 -3.52 -0.88
Si  2.15 -3.52 -0.88
Si -2.15  3.52  0.88
Si -0.56 -0.62 -4.16
Si  0.56  0.62  4.16
Si  0.09 -1.59  4.16
Si -0.09  1.59 -4.16
Si  4.28 -0.90  0.88
Si -4.28  0.90 -0.88
Si -3.05 -2.43 -2.41
Si  3.05  2.43  2.41
Si -3.55 -3.11  0.88
Si  3.55  3.11 -0.88
Si -3.81  3.11 -0.88
Si  3.81 -3.11  0.88
Si -4.75 -1.31 -0.88
Si  4.75  1.31  0.88
Si -1.64  4.21 -2.41
Si  1.64 -4.21  2.41
Si -1.03 -2.83 -4.16
Si  1.03  2.83  4.16
Si -0.17  4.64  2.41
Si  0.17 -4.64 -2.41
Si  3.12 -0.62 -4.16
Si -3.12  0.62  4.16
Si  2.04  4.21 -2.41
Si -2.04 -4.21  2.41
Si -4.79  0.21  2.41
Si  4.79 -0.21 -2.41
Si  0.34  5.33 -0.88
Si -0.34 -5.33  0.88
Si  4.32 -2.43 -2.41
Si -4.32  2.43  2.41
Si -0.38 -3.80  4.16
Si  0.38  3.80 -4.16
Si  2.65 -2.83 -4.16
Si -2.65  2.83  4.16
Si  3.59  1.59 -4.16
Si -3.59 -1.59  4.16
Si -3.77  1.59 -4.16
Si  3.77 -1.59  4.16
Si  1.61  0.47 -5.70
Si -1.61 -0.47  5.70
Si -4.24 -0.62 -4.16
Si  4.24  0.62  4.16
Si -1.68  5.73  0.88
Si  1.68 -5.73 -0.88
Si  1.14 -1.74 -5.70
Si -1.14  1.74  5.70
Si -2.07  0.47 -5.70
Si  2.07 -0.47  5.70
Si  5.26  2.00 -2.41
Si -5.26 -2.00  2.41
Si -2.01 -5.73 -0.88
Si  2.01  5.73  0.88
Si -3.52 -4.64 -2.41
Si  3.52  4.64  2.41
Si  3.34 -5.33  0.88
Si -3.34  5.33 -0.88
Si -5.22 -3.52 -0.88
Si  5.22  3.52  0.88
Si  2.54  1.74  5.70
Si -2.54 -1.74 -5.70
Si -3.85  4.64  2.41
Si  3.85 -4.64 -2.41
Si  6.30 -1.31 -0.88
Si -6.30  1.31  0.88
Si  1.60 -2.69  5.70
Si -1.60  2.69 -5.70
Si  3.31 -3.80  4.16
Si -3.31  3.80 -4.16
Si  5.79 -2.00  2.41
Si -5.79  2.00 -2.41
Si -2.08 -2.69  5.70
Si  2.08  2.69 -5.70
Si  1.50  5.04  4.16
Si -1.50 -5.04 -4.16
Si -6.26 -0.21 -2.41
Si  6.26  0.21  2.41
Si  4.02  5.33 -0.88
Si -4.02 -5.33  0.88
Si -5.83  3.52  0.88
Si  5.83 -3.52 -0.88
Si -6.77 -0.90  0.88
Si  6.77  0.90 -0.88
Si  2.18 -5.04 -4.16
Si -2.18  5.04  4.16
Si  4.71  2.83  4.16
Si -4.71 -2.83 -4.16
Si  4.06  3.80 -4.16
Si -4.06 -3.80  4.16
Si  1.17 -6.42  2.41
Si -1.17  6.42 -2.41
Si -0.67  3.95  5.70
Si  0.67 -3.95 -5.70
Si -5.32  4.21 -2.41
Si  5.32 -4.21  2.41
Si  0.30  6.85  2.41
Si -0.30 -6.85 -2.41
Si  2.51  6.42 -2.41
Si -2.51 -6.42  2.41
Si -0.85 -6.01  4.16
Si  0.85  6.01 -4.16
Si -0.05  0.07 -7.45
Si  0.05 -0.07  7.45
Si  5.73  4.21 -2.41
Si -5.73 -4.21  2.41
Si  6.73  2.43  2.41
Si -6.73 -2.43 -2.41
Si -3.01 -3.95 -5.70
Si  3.01  3.95  5.70
Si -1.13  4.90 -5.70
Si  1.13 -4.90  5.70
Si -0.81 -7.54  0.88
Si  0.81  7.54 -0.88
Si -4.83  1.74  5.70
Si  4.83 -1.74 -5.70
Si -0.52 -2.14 -7.45
Si  0.52  2.14  7.45
Si  5.29  0.47 -5.70
Si -5.29 -0.47  5.70
Si  0.41  2.28 -7.45
Si -0.41 -2.28  7.45
Si -2.83  6.01 -4.16
Si  2.83 -6.01  4.16
Si -5.36  5.73  0.88
Si  5.36 -5.73 -0.88
Si  7.24  3.11 -0.88
Si -7.24 -3.11  0.88
Si  2.55  4.90 -5.70
Si -2.55 -4.90  5.70
Si  6.80 -0.62 -4.16
Si -6.80  0.62  4.16
Si  3.38 -6.85 -2.41
Si -3.38  6.85  2.41
Si  7.96 -0.90  0.88
Si -7.96  0.90 -0.88
Si  1.21 -7.94 -0.88
Si -1.21  7.94  0.88
Si  6.33 -2.83 -4.16
Si -6.33  2.83  4.16
Si -5.75  0.47 -5.70
Si  5.75 -0.47  5.70
Si  2.87 -7.54  0.88
Si -2.87  7.54 -0.88
Si -5.69 -5.73 -0.88
Si  5.69  5.73  0.88
Si -7.49  3.11 -0.88
Si  7.49 -3.11  0.88
Si -4.36  3.95  5.70
Si  4.36 -3.95 -5.70
Si -5.28  2.69 -5.70
Si  5.28 -2.69  5.70
Si  3.99  6.85  2.41
Si -3.99 -6.85 -2.41
Si  3.63  0.07 -7.45
Si -3.63 -0.07  7.45
Si -3.74  0.07 -7.45
Si  3.74 -0.07  7.45
Si  5.18  5.04  4.16
Si -5.18 -5.04 -4.16
Si -2.48 -7.94 -0.88
Si  2.48  7.94  0.88
Si -3.16  2.14  7.45
Si  3.16 -2.14 -7.45
Si -0.20  6.16  5.70
Si  0.20 -6.16 -5.70
Si  4.85 -6.42  2.41
Si -4.85  6.42 -2.41
Si -3.27  2.28 -7.45
Si  3.27 -2.28  7.45
Si -7.27 -1.59  4.16
Si  7.27  1.59 -4.16
Si -5.76 -2.69  5.70
Si  5.76  2.69 -5.70
Si  1.71 -7.25 -4.16
Si -1.71  7.25  4.16
Si  8.43  1.31  0.88
Si -8.43 -1.31 -0.88
Si -1.97 -7.25 -4.16
Si  1.97  7.25  4.16
Si -4.53 -6.01  4.16
Si  4.53  6.01 -4.16
Si  6.22  1.74  5.70
Si -6.22 -1.74 -5.70
Si -7.46  1.59 -4.16
Si  7.46 -1.59  4.16
Si  0.99  4.36  7.45
Si -0.99 -4.36 -7.45
Si -8.00  2.43  2.41
Si  8.00 -2.43 -2.41
Si  0.88  4.49 -7.45
Si -0.88 -4.49  7.45
Si -5.87  5.04  4.16
Si  5.87 -5.04 -4.16
Si -4.10 -2.28  7.45
Si  4.10  2.28 -7.45
Si -8.47  0.21  2.41
Si  8.47 -0.21 -2.41
Si  4.49  7.54 -0.88
Si -4.49 -7.54  0.88
Si  4.21  2.14  7.45
Si -4.21 -2.14 -7.45
Si -7.03  5.33 -0.88
Si  7.03 -5.33  0.88
Si -7.20 -4.64 -2.41
Si  7.20  4.64  2.41
Si -4.82  4.90 -5.70
Si  4.82 -4.90  5.70
Si -7.93 -0.62 -4.16
Si  7.93  0.62  4.16
Si  6.99 -3.80  4.16
Si -6.99  3.80 -4.16
Si  0.70 -8.63  2.41
Si -0.70  8.63 -2.41
Si -2.69  4.36  7.45
Si  2.69 -4.36 -7.45
Si  3.48  6.16  5.70
Si -3.48 -6.16 -5.70
Si  0.66 -7.11  5.70
Si -0.66  7.11 -5.70
Si  2.80 -4.49  7.45
Si -2.80  4.49 -7.45
Si -7.53  4.64  2.41
Si  7.53 -4.64 -2.41
Si -1.56  1.16 -8.99
Si  1.56 -1.16  8.99
Si -1.65  1.05  8.99
Si  1.65 -1.05 -8.99
Si -6.20 -6.42  2.41
Si  6.20  6.42 -2.41
Si -3.89  6.16  5.70
Si  3.89 -6.16 -5.70
Si  2.03  1.05  8.99
Si -2.03 -1.05 -8.99
Si  2.12  1.16 -8.99
Si -2.12 -1.16  8.99
Si  1.32  8.22 -4.16
Si -1.32 -8.22  4.16
Si  4.89 -7.94 -0.88
Si -4.89  7.94  0.88
Si -0.77 -9.06 -2.41
Si  0.77  9.06  2.41
Si  7.71  5.33 -0.88
Si -7.71 -5.33  0.88
Si -2.98 -8.63  2.41
Si  2.98  8.63 -2.41
Si  8.94  2.00 -2.41
Si -8.94 -2.00  2.41
Si  2.37 -8.22  4.16
Si -2.37  8.22 -4.16
Si  7.74  3.80 -4.16
Si -7.74 -3.80  4.16
Si  3.02  7.11 -5.70
Si -3.02 -7.11  5.70
Si -8.90 -3.52 -0.88
Si  8.90  3.52  0.88
Si -1.18  3.26  8.99
Si  1.18 -3.26 -8.99
Si -6.69 -3.95 -5.70
Si  6.69  3.95  5.70
Si -1.09  3.37 -8.99
Si  1.09 -3.37  8.99
Si  6.23  4.90 -5.70
Si -6.23 -4.90  5.70
Si -8.40 -2.83 -4.16
Si  8.40  2.83  4.16
Si -6.52  6.01 -4.16
Si  6.52 -6.01  4.16
Si  4.68  4.36  7.45
Si -4.68 -4.36 -7.45
Si  2.91 -9.06 -2.41
Si -2.91  9.06  2.41
Si -4.57 -4.49  7.45
Si  4.57  4.49 -7.45
Si  1.28  9.75 -0.88
Si -1.28 -9.75  0.88
Si  2.50  3.26  8.99
Si -2.50 -3.26 -8.99
Si  2.59  3.37 -8.99
Si -2.59 -3.37  8.99
Si -5.40  7.25  4.16
Si  5.40 -7.25 -4.16
Si  4.38 -8.63  2.41
Si -4.38  8.63 -2.41
Si -9.47  2.00 -2.41
Si  9.47 -2.00  2.41
Si -6.55  7.54 -0.88
Si  6.55 -7.54  0.88
Si -1.46 -6.57 -7.45
Si  1.46  6.57  7.45
Si -2.40  9.75 -0.88
Si  2.40 -9.75  0.88
Si  6.16  7.94  0.88
Si -6.16 -7.94 -0.88
Si  4.35 -7.11  5.70
Si -4.35  7.11 -5.70
Si -5.65 -7.25 -4.16
Si  5.65  7.25  4.16
Si -9.98  1.31  0.88
Si  9.98 -1.31 -0.88
Si -1.35 -6.70  7.45
Si  1.35  6.70 -7.45
Si  7.06 -6.85 -2.41
Si -7.06  6.85  2.41
Si -0.27 -8.37 -5.70
Si  0.27  8.37  5.70
Si  2.22 -6.57 -7.45
Si -2.22  6.57  7.45
Si -9.51  3.52  0.88
Si  9.51 -3.52 -0.88
Si  0.74 -10.15 -0.88
Si -0.74 10.15  0.88
Si -9.00  4.21 -2.41
Si  9.00 -4.21  2.41
Si -9.94 -0.21 -2.41
Si  9.94  0.21  2.41
Si -2.33  6.70 -7.45
Si  2.33 -6.70  7.45
Si -6.84  2.14  7.45
Si  6.84 -2.14 -7.45
Si -4.46 -9.06 -2.41
Si  4.46  9.06  2.41
Si  8.51 -1.74 -5.70
Si -8.51  1.74  5.70
Si -1.24  9.47  4.16
Si  1.24 -9.47 -4.16
Si -7.31 -0.07  7.45
Si  7.31  0.07 -7.45
Si  6.95 -2.28  7.45
Si -6.95  2.28 -7.45
Si  5.25 -1.16  8.99
Si -5.25  1.16 -8.99
Si -5.00 -8.22  4.16
Si  5.00  8.22 -4.16
Si -5.33  1.05  8.99
Si  5.33 -1.05 -8.99
Si  7.42 -0.07  7.45
Si -7.42  0.07 -7.45
Si -10.45 -0.90  0.88
Si 10.45  0.90 -0.88
Si  0.71 -5.47 -8.99
Si -0.71  5.47  8.99
Si -7.67 -6.85 -2.41
Si  7.67  6.85  2.41
Si  9.41  4.21 -2.41
Si -9.41 -4.21  2.41
Si -0.63  5.59 -8.99
Si  0.63 -5.59  8.99
Si -2.94 -10.15 -0.88
Si  2.94 10.15  0.88
Si -8.04  3.95  5.70
Si  8.04 -3.95 -5.70
Si -2.44 -9.47 -4.16
Si  2.44  9.47  4.16
Si  8.98  0.47 -5.70
Si -8.98 -0.47  5.70
Si  3.42 -8.37 -5.70
Si -3.42  8.37  5.70
Si -5.72 -1.05 -8.99
Si  5.72  1.05  8.99
Si  4.78 -3.37  8.99
Si -4.78  3.37 -8.99
Si  4.86 -3.26 -8.99
Si -4.86  3.26  8.99
Si  6.37 -4.36 -7.45
Si -6.37  4.36  7.45
Si -9.04  5.73  0.88
Si  9.04 -5.73 -0.88
Si -5.80 -1.16  8.99
Si  5.80  1.16 -8.99
Si -0.45 -0.76 10.74
Si  0.45  0.76 -10.74
Si  0.02  1.46 10.74
Si -0.02 -1.46 -10.74
Si -6.48  4.49 -7.45
Si  6.48 -4.49  7.45
Si  3.95  8.37  5.70
Si -3.95 -8.37 -5.70
Si  0.19 -9.32  5.70
Si -0.19  9.32 -5.70
Si -2.97 -5.47 -8.99
Si  2.97  5.47  8.99
Si  8.54 -6.42  2.41
Si -8.54  6.42 -2.41
Si  8.97 -2.69  5.70
Si -8.97  2.69 -5.70
Si -10.41 -2.43 -2.41
Si 10.41  2.43  2.41
Si  4.96  9.75 -0.88
Si -4.96 -9.75  0.88
Si -8.21 -6.01  4.16
Si  8.21  6.01 -4.16
Si -7.78 -2.28  7.45
Si  7.78  2.28 -7.45
Si -3.06 -5.59  8.99
Si  3.06  5.59 -8.99
Si -8.87 -5.04 -4.16
Si  8.87  5.04  4.16
Si  9.37  5.73  0.88
Si -9.37 -5.73 -0.88
Si -6.05  8.22 -4.16
Si  6.05 -8.22  4.16
Si  7.16  6.16  5.70
Si -7.16 -6.16 -5.70
Si -9.44  0.47 -5.70
Si  9.44 -0.47  5.70
Si -7.89 -2.14 -7.45
Si  7.89  2.14  7.45
Si -4.42 10.15  0.88
Si  4.42 -10.15 -0.88
Si -0.23 10.84 -2.41
Si  0.23 -10.84  2.41
Si -8.18 -7.54  0.88
Si  8.18  7.54 -0.88
Si -6.67 -8.63  2.41
Si  6.67  8.63 -2.41
Si  0.92  2.97 -10.74
Si -0.92 -2.97 10.74
Si  5.14  6.57  7.45
Si -5.14 -6.57 -7.45
Si -10.02  2.83  4.16
Si 10.02 -2.83 -4.16
Si  5.04  6.70 -7.45
Si -5.04 -6.70  7.45
Si -3.23  0.76 -10.74
Si  3.23 -0.76 10.74
Si -10.49  0.62  4.16
Si 10.49 -0.62 -4.16
Si  7.57 -6.16 -5.70
Si -7.57  6.16  5.70
Si -6.70 -7.11  5.70
Si  6.70  7.11 -5.70
Si -8.50  4.90 -5.70
Si  8.50 -4.90  5.70
Si  9.45  2.69 -5.70
Si -9.45 -2.69  5.70
Si -0.49 -3.67 -10.74
Si  0.49  3.67 10.74
Si  1.79 10.44 -4.16
Si -1.79 -10.44  4.16
Si -6.19 -3.26 -8.99
Si  6.19  3.26  8.99
Si 10.92  3.11 -0.88
Si -10.92 -3.11  0.88
Si -1.90 10.44 -4.16
Si  1.90 -10.44  4.16
Si  4.39 -5.47 -8.99
Si -4.39  5.47  8.99
Si  4.31 -5.59  8.99
Si -4.31  5.59 -8.99
Si  3.67 -1.46 -10.74
Si -3.67  1.46 10.74
Si -3.70 -1.46 -10.74
Si  3.70  1.46 10.74
Si  4.93 -9.47 -4.16
Si -4.93  9.47  4.16
Si  6.59 -9.06 -2.41
Si -6.59  9.06  2.41
Si -6.27 -3.37  8.99
Si  6.27  3.37 -8.99
Si -3.49 -9.32  5.70
Si  3.49  9.32 -5.70
Si  2.76 -2.97 10.74
Si -2.76  2.97 -10.74
Si  6.09 -9.75  0.88
Si -6.09  9.75 -0.88
Si -4.13 -0.76 10.74
Si  4.13  0.76 -10.74
Si -5.90  6.57  7.45
Si  5.90 -6.57 -7.45
Si  9.91  1.74  5.70
Si -9.91 -1.74 -5.70
Si -9.55  5.04  4.16
Si  9.55 -5.04 -4.16
Si -3.88  9.32 -5.70
Si  3.88 -9.32  5.70
Si -1.24 -11.27 -2.41
Si  1.24 11.27  2.41
