500
set: 1165.00  0.00  0.00
Si -0.03  0.03 -0.01
Si -0.06  0.03 -2.32
Si -0.02  0.01  2.32
Si  2.44  0.05  0.01
Si -1.25 -2.14 -0.06
Si -2.47 -0.01 -0.07
Si -1.20  2.19  0.08
Si  1.22  2.20 -0.00
Si  1.26 -2.18 -0.01
Si -1.25 -2.12  2.31
Si -2.49  0.08  2.31
Si -1.25  2.19 -2.29
Si  2.50 -0.05 -2.31
Si  1.30 -2.16  2.30
Si  1.24 -2.14 -2.36
Si  1.31  2.12  2.35
Si -1.19  2.21  2.40
Si  1.29  2.16 -2.40
Si  2.55 -0.03  2.37
Si -1.16 -2.23 -2.42
Si -2.54 -0.03 -2.43
Si -3.71 -2.17  0.03
Si  0.06 -4.30  0.05
Si  3.76  2.10  0.03
Si  0.09  4.32  0.01
Si -3.76  2.15 -0.01
Si  3.76 -2.16  0.01
Si -0.03  0.03  4.69
Si -0.03  0.03 -4.73
Si -3.69 -2.12  2.39
Si  3.74  2.15 -2.33
Si -2.41 -4.27 -0.00
Si -3.74 -2.16 -2.34
Si  0.03  4.31  2.36
Si -3.72  2.22  2.34
Si -0.03 -4.30  2.40
Si  0.00  4.33 -2.36
Si -3.76  2.13 -2.39
Si -2.43  4.32  0.04
Si  3.77 -2.20 -2.34
Si  3.77  2.16  2.39
Si -4.97 -0.10 -0.06
Si  3.79 -2.18  2.37
Si -0.01 -4.40 -2.31
Si  5.00 -0.10 -0.06
Si  2.57 -4.31  0.04
Si  2.56  4.36 -0.00
Si  1.16  2.15  4.65
Si -2.52 -0.05  4.63
Si -1.25 -2.15  4.66
Si -1.31  2.18 -4.64
Si  2.44  0.04 -4.71
Si  2.44  0.04  4.71
Si  1.22 -2.18 -4.70
Si  1.22 -2.18  4.72
Si  1.16  2.15 -4.77
Si -1.25 -2.15 -4.76
Si -2.52 -0.05 -4.79
Si -1.31  2.18  4.79
Si -4.95  0.05  2.30
Si  2.45 -4.30 -2.31
Si  2.50  4.30 -2.33
Si  4.94 -0.01 -2.42
Si -2.47 -4.33 -2.33
Si  2.52  4.29  2.38
Si -2.45 -4.33  2.38
Si  2.51 -4.29  2.41
Si -2.55  4.32 -2.31
Si  5.03  0.05  2.30
Si -2.50  4.34  2.41
Si -5.03 -0.01 -2.42
Si  3.64  2.19 -4.67
Si  3.67 -2.13 -4.69
Si -0.06  4.28 -4.70
Si -0.04 -4.30 -4.68
Si  3.67 -2.13  4.73
Si -0.06  4.28  4.72
Si  3.64  2.19  4.75
Si -3.76  2.15  4.69
Si -0.04 -4.30  4.74
Si -3.79 -2.20 -4.67
Si -3.76  2.15 -4.73
Si -3.79 -2.20  4.75
Si -4.88 -4.31  0.01
Si -6.21  2.10  0.03
Si -4.94  4.33  0.05
Si  6.21  2.15 -0.01
Si -6.21 -2.16  0.01
Si  1.26  6.46  0.03
Si -1.24  6.47  0.01
Si  1.24 -6.48 -0.01
Si  6.26 -2.17  0.03
Si -1.21 -6.52  0.03
Si  5.03  4.33  0.05
Si  5.09 -4.31  0.01
Si  2.42  4.29 -4.70
Si  4.98 -0.01  4.66
Si  2.42  4.29  4.72
Si -4.99 -0.01  4.66
Si  2.51 -4.30  4.70
Si -2.49  4.33  4.70
Si  2.51 -4.30 -4.72
Si -2.49  4.33 -4.72
Si -2.56 -4.33 -4.70
Si  4.98 -0.01 -4.76
Si -2.56 -4.33  4.72
Si -4.99 -0.01 -4.76
Si  4.96  4.22 -2.31
Si  1.28 -6.40  2.34
Si -5.01  4.22 -2.31
Si -1.23  6.43 -2.34
Si -4.94 -4.31  2.36
Si -6.18 -2.18  2.37
Si -4.97 -4.29 -2.36
Si -1.21  6.45  2.37
Si  1.23  6.46 -2.34
Si -6.20 -2.20 -2.34
Si -6.20  2.16  2.39
Si  6.21  2.13 -2.39
Si  4.95  4.32  2.40
Si -6.24  2.15 -2.33
Si  6.23 -2.16 -2.34
Si -1.23 -6.48 -2.33
Si -1.20 -6.47  2.39
Si  5.00 -4.29 -2.36
Si  1.24 -6.50 -2.39
Si  6.25  2.22  2.34
Si  5.04 -4.31  2.36
Si  1.28  6.50  2.39
Si  6.28 -2.12  2.39
Si -5.03  4.32  2.40
Si -0.02  0.01 -7.10
Si -0.06  0.03  7.10
Si -2.54 -0.03  6.99
Si -3.75 -6.42 -0.00
Si -1.16 -2.23  7.00
Si -3.74  6.44 -0.01
Si  1.29  2.16  7.02
Si -1.19  2.21 -7.02
Si  3.80 -6.43  0.08
Si  1.24 -2.14  7.06
Si  3.73  6.49 -0.06
Si  7.50 -0.01 -0.07
Si  2.55 -0.03 -7.05
Si  1.31  2.12 -7.07
Si -1.25 -2.12 -7.11
Si -7.53  0.05  0.01
Si -2.49  0.08 -7.11
Si  2.50 -0.05  7.11
Si  1.30 -2.16 -7.12
Si -1.25  2.19  7.13
Si -7.42 -0.03  2.37
Si -3.70  6.47  2.30
Si  3.75 -6.44 -2.29
Si -3.68 -6.47 -2.40
Si  7.43 -0.03 -2.43
Si -7.47 -0.05 -2.31
Si -3.66 -6.50  2.35
Si  3.81  6.40 -2.42
Si  7.49  0.08  2.31
Si  3.81 -6.41  2.40
Si  3.72  6.50  2.31
Si -3.77  6.48 -2.36
Si  1.18  6.42 -4.67
Si  6.18 -2.20 -4.67
Si  4.93  4.32 -4.68
Si -1.33 -6.44 -4.67
Si  6.21  2.15  4.69
Si  1.18  6.42  4.75
Si  4.94 -4.35 -4.70
Si  4.93  4.32  4.74
Si  6.21  2.15 -4.73
Si  1.24 -6.48  4.69
Si  6.18 -2.20  4.75
Si  4.94 -4.35  4.72
Si -1.33 -6.44  4.75
Si  1.24 -6.48 -4.73
Si -1.33  6.49 -4.69
Si -5.04  4.32 -4.68
Si -6.30 -2.13 -4.69
Si -5.03 -4.35 -4.70
Si -1.33  6.49  4.73
Si -5.03 -4.35  4.72
Si -5.04  4.32  4.74
Si -6.30 -2.13  4.73
Si -6.33  2.19 -4.67
Si -6.33  2.19  4.75
Si -3.69 -2.12 -7.03
Si -0.03 -4.30 -7.02
Si -3.76  2.13  7.03
Si  3.77  2.16 -7.03
Si  0.03  4.31 -7.06
Si  0.00  4.33  7.06
Si  3.79 -2.18 -7.05
Si  3.74  2.14  7.09
Si -3.72  2.22 -7.08
Si -3.74 -2.16  7.08
Si  3.77 -2.20  7.08
Si -0.01 -4.40  7.11
Si  0.00  8.53 -0.06
Si -7.40 -4.31  0.04
Si  4.94 -0.01  7.01
Si  2.51 -4.29 -7.01
Si -7.42  4.36 -0.00
Si -2.50  4.34 -7.01
Si  2.52  4.29 -7.04
Si -2.45 -4.33 -7.04
Si -5.03 -0.01  7.01
Si  2.50  4.30  7.09
Si -2.47 -4.33  7.09
Si  2.45 -4.30  7.11
Si -4.95  0.05 -7.12
Si  7.56 -4.27 -0.00
Si  7.54  4.32  0.04
Si -2.55  4.32  7.11
Si  5.03  0.05 -7.12
Si  0.04 -8.72 -0.06
Si  3.69 -6.45 -4.64
Si  7.45 -0.05  4.63
Si  3.72  6.48  4.66
Si  3.69 -6.45  4.79
Si -3.79  6.45 -4.70
Si -3.81 -6.48  4.65
Si -3.79  6.45  4.72
Si  7.45 -0.05 -4.79
Si  3.72  6.48 -4.76
Si  0.06 -8.58  2.30
Si -7.53  0.04 -4.71
Si -7.53  0.04  4.71
Si  7.42  4.32 -2.31
Si -3.81 -6.48 -4.77
Si -6.17 -6.43  0.08
Si -7.45  4.29  2.38
Si -7.47  4.30 -2.33
Si  6.22 -6.42 -0.00
Si -7.46 -4.29  2.41
Si -2.53 -8.58  0.01
Si -0.07  8.62 -2.42
Si -7.52 -4.30 -2.31
Si  6.23  6.44 -0.01
Si  7.50 -4.33 -2.33
Si -0.03 -8.64 -2.42
Si  7.47  4.34  2.41
Si  2.50  8.62 -0.07
Si  0.03  8.68  2.30
Si -8.71 -2.18 -0.01
Si  8.73 -2.14 -0.06
Si  2.53 -8.63 -0.07
Si  7.52 -4.33  2.38
Si -6.25  6.49 -0.06
Si -8.75  2.20 -0.00
Si  8.77  2.19  0.08
Si -2.56  8.67  0.01
Si  2.52 -8.54  2.31
Si -6.16  6.40 -2.42
Si -6.16 -6.41  2.40
Si -8.67 -2.16  2.30
Si -8.66  2.12  2.35
Si -2.50  8.57 -2.31
Si -6.22 -6.44 -2.29
Si -2.45  8.59  2.37
Si  2.43  8.60 -2.43
Si -8.68  2.16 -2.40
Si  8.72 -2.12  2.31
Si  8.72  2.19 -2.29
Si  6.21  6.48 -2.36
Si  6.27  6.47  2.30
Si -2.42 -8.66  2.37
Si -8.74 -2.14 -2.36
Si -6.25  6.50  2.31
Si -2.47 -8.68 -2.31
Si  2.46 -8.66 -2.43
Si  6.29 -6.47 -2.40
Si  2.48  8.71  2.31
Si  6.31 -6.50  2.35
Si  8.78  2.21  2.40
Si  8.81 -2.23 -2.42
Si -0.03  0.03  9.41
Si -0.03  0.03 -9.43
Si  4.95  4.32 -7.02
Si -6.20  2.16 -7.03
Si  6.21  2.13  7.03
Si -6.18 -2.18 -7.05
Si -1.20 -6.47 -7.03
Si  1.28 -6.40 -7.08
Si -1.21  6.45 -7.05
Si -4.94 -4.31 -7.06
Si -1.23  6.43  7.08
Si -4.97 -4.29  7.06
Si  4.96  4.22  7.11
Si -5.03  4.32 -7.02
Si  1.24 -6.50  7.03
Si  1.28  6.50 -7.03
Si  5.00 -4.29  7.06
Si -6.20 -2.20  7.08
Si  6.28 -2.12 -7.03
Si -2.47 -0.01  9.35
Si  1.23  6.46  7.08
Si -5.01  4.22  7.11
Si -1.20  2.19 -9.34
Si  6.23 -2.16  7.08
Si -6.24  2.14  7.09
Si -1.25 -2.14  9.37
Si  5.03 -4.31 -7.06
Si -1.23 -6.48  7.09
Si  6.25  2.22 -7.08
Si  2.44  0.05 -9.41
Si  2.44  0.05  9.43
Si  1.26 -2.18  9.41
Si  1.22  2.20  9.42
Si  1.22  2.20 -9.43
Si  1.26 -2.18 -9.43
Si  7.42 -4.33 -4.70
Si -0.02  8.61  4.66
Si -1.25 -2.14 -9.48
Si  7.42 -4.33  4.72
Si -7.46 -4.30  4.70
Si -2.47 -0.01 -9.50
Si  0.01 -8.64  4.66
Si -7.46 -4.30 -4.72
Si -1.20  2.19  9.50
Si  7.48  4.33  4.70
Si -0.02  8.61 -4.76
Si  7.48  4.33 -4.72
Si  0.01 -8.64 -4.76
Si -7.56  4.29 -4.70
Si -7.56  4.29  4.72
Si  4.97 -8.60 -0.01
Si  9.94  0.03 -0.01
Si -5.00 -8.60 -0.01
Si  4.94  8.65 -0.01
Si -10.00  0.03 -0.01
Si -5.03  8.65 -0.01
Si  2.45  8.58  4.63
Si  8.66  2.18 -4.64
Si  6.17 -6.48  4.65
Si  6.18  6.45 -4.70
Si  6.18  6.45  4.72
Si -2.53 -8.59 -4.71
Si -2.53 -8.59  4.71
Si  8.72 -2.15  4.66
Si -6.28 -6.45 -4.64
Si  2.45  8.58 -4.79
Si  8.66  2.18  4.79
Si -6.25  6.48  4.66
Si  6.17 -6.48 -4.77
Si  2.48 -8.67  4.63
Si  8.72 -2.15 -4.76
Si -8.76 -2.18 -4.70
Si  9.91  0.03 -2.32
Si -6.25  6.48 -4.76
Si -8.76 -2.18  4.72
Si  4.94 -8.60 -2.32
Si -2.56  8.66 -4.71
Si -8.81  2.15  4.65
Si -2.56  8.66  4.71
Si -6.28 -6.45  4.79
Si  7.43 -0.03  6.99
Si  2.48 -8.67 -4.79
Si  4.91  8.65 -2.32
Si  3.81  6.39  7.00
Si  4.98 -8.62  2.32
Si  9.95  0.01  2.32
Si -4.99 -8.62  2.32
Si  4.95  8.64  2.32
Si -5.03 -8.60 -2.32
Si -3.68 -6.47  7.02
Si -7.42 -0.03 -7.05
Si  3.81 -6.41 -7.02
Si -8.81  2.15 -4.77
Si -9.99  0.01  2.32
Si -5.02  8.64  2.32
Si -3.66 -6.50 -7.07
Si -5.06  8.65 -2.32
Si -10.03  0.03 -2.32
Si -3.77  6.48  7.06
Si -3.70  6.47 -7.12
Si -7.47 -0.05  7.11
Si  3.75 -6.44  7.13
Si  0.06 -4.30 -9.38
Si  7.49  0.08 -7.11
Si -3.71 -2.17 -9.39
Si  3.72  6.50 -7.11
Si  3.76  2.10 -9.39
Si  3.76 -2.15 -9.41
Si  0.09  4.32 -9.42
Si -3.76  2.15  9.41
Si  0.09  4.32  9.43
Si -3.76  2.15 -9.43
Si -3.71 -2.17  9.45
Si  3.76 -2.16  9.44
Si  3.76  2.10  9.45
Si  0.06 -4.30  9.47
Si -4.97 -0.10  9.36
Si -2.43  4.32 -9.38
Si  5.00 -0.10  9.36
Si -2.41 -4.27  9.42
Si -2.41 -4.27 -9.42
Si  2.57 -4.31 -9.38
Si -2.43  4.32  9.46
Si  2.56  4.36  9.42
Si  2.56  4.36 -9.42
Si -4.97 -0.10 -9.48
Si  2.57 -4.31  9.46
Si  5.00 -0.10 -9.48
Si -9.88  4.32  0.01
Si -1.24 10.73  0.03
Si -9.91 -4.30  0.05
Si  1.21 10.78 -0.01
Si -8.71  6.46  0.03
Si -1.21 -10.78  0.01
Si  8.73  6.47  0.01
Si  1.29 -10.79  0.03
Si -8.73 -6.48 -0.01
Si 10.03 -4.30  0.05
Si  8.76 -6.52  0.03
Si 10.06  4.32  0.01
Si  4.97 -8.60  4.69
Si  9.94  0.03  4.69
Si -5.00 -8.60  4.69
Si  4.97 -8.60 -4.73
Si  9.94  0.03 -4.73
Si  4.94  8.65  4.69
Si -5.00 -8.60 -4.73
Si  4.94  8.65 -4.73
Si -8.69 -6.40  2.34
Si -10.00  0.03  4.69
Si -5.04  8.65  4.69
Si -10.01  0.03 -4.73
Si -5.04  8.65 -4.73
Si  1.21 10.75 -2.39
Si -9.94  4.31  2.36
Si  1.31 -10.75  2.39
Si -1.27 10.77 -2.33
Si  9.95 -4.30  2.40
Si  8.74  6.43 -2.34
Si -0.07  8.61  7.01
Si -7.46 -4.29 -7.01
Si  1.26 -10.79 -2.34
Si -7.45  4.29 -7.04
Si -1.23 10.79  2.39
Si -8.69  6.50  2.39
Si -8.74  6.46 -2.34
Si -0.03 -8.64  7.01
Si -1.18 -10.80  2.37
Si -9.97  4.33 -2.36
Si  8.74 -6.48 -2.33
Si  9.97  4.33 -2.36
Si  7.47  4.34 -7.01
Si  8.76  6.45  2.37
Si  9.96 -4.40 -2.31
Si -1.20 -10.82 -2.34
Si -8.73 -6.50 -2.39
Si -9.99 -4.30  2.40
Si 10.00  4.31  2.36
Si  0.06 -8.58 -7.12
Si -9.98 -4.40 -2.31
Si  7.42  4.32  7.11
Si  8.77 -6.47  2.39
Si -7.47  4.30  7.09
Si  1.25 10.85  2.34
Si  7.52 -4.33 -7.04
Si  7.50 -4.33  7.09
Si -7.52 -4.30  7.11
Si  0.02  8.68 -7.12
Si -6.16  6.39  7.00
Si -6.16 -6.41 -7.02
Si  2.43  8.60  6.99
Si  7.44 -8.58  0.01
Si -8.68  2.16  7.02
Si -8.66  2.12 -7.07
Si -2.45  8.59 -7.05
Si -11.17  2.19  0.08
Si  2.52 -8.54 -7.11
Si  2.46 -8.66  6.99
Si -7.44 -8.63 -0.07
Si  3.76 -10.76 -0.06
Si 11.19  2.20 -0.00
Si  7.41  8.67  0.01
Si -7.47  8.62 -0.07
Si -2.50  8.57  7.11
Si  6.21  6.48  7.06
Si -11.22 -2.14 -0.06
Si -8.67 -2.16 -7.12
Si -3.71 -10.81 -0.01
Si -2.42 -8.66 -7.05
Si  6.29 -6.47  7.02
Si -8.73 -2.14  7.06
Si 11.23 -2.18 -0.01
Si -4.94  4.33 -9.38
Si -6.22 -6.44  7.13
Si -4.88 -4.31 -9.42
Si  8.72 -2.12 -7.11
Si -6.21  2.10 -9.39
Si  8.78  2.21 -7.02
Si -4.88 -4.31  9.43
Si  3.77 10.82  0.08
Si  1.26  6.46 -9.39
Si  8.81 -2.23  7.00
Si -3.78 10.83 -0.00
