500
set: 466.00  0.00  0.00
Si  0.10  0.11 -0.00
Si -0.09 -2.00  0.70
Si -1.91  0.92  0.59
Si  0.08  0.02 -2.24
Si  1.76  1.30  0.97
Si  3.35  0.10 -0.11
Si -1.72 -1.23 -2.72
Si -1.81  1.00  2.83
Si -1.78 -3.10 -0.24
Si  1.78 -3.09  0.34
Si -0.20 -2.05  2.97
Si -0.20  2.12 -2.93
Si  1.83  3.16 -0.24
Si -1.84  3.17  0.34
Si  1.81 -1.09 -3.07
Si  1.90  0.86  3.18
Si -3.88  0.10 -0.11
Si  1.77 -3.00 -1.92
Si -3.51 -1.98  0.67
Si  0.02  1.98  3.59
Si  1.89  2.79 -2.42
Si  1.89 -1.38  3.48
Si -1.84  3.25 -1.92
Si  3.72 -1.98  0.67
Si -3.59 -0.11 -2.31
Si  3.63 -0.11 -2.31
Si  0.10  4.28  0.67
Si -1.84 -0.92  3.98
Si -1.73 -3.47 -2.42
Si -3.34  1.98 -3.02
Si -3.34 -2.20  2.88
Si  0.27  4.06  2.88
Si  0.27 -4.28 -3.02
Si  3.89  1.98 -3.02
Si  3.89 -2.20  2.88
Si -1.85 -0.79 -4.93
Si -1.85 -4.96  0.97
Si  5.32  0.92  0.59
Si -3.54  2.10  3.66
Si  0.08 -4.16  3.66
Si  3.52  4.25  0.70
Si  3.69  2.10  3.66
Si  1.70 -5.34  0.59
Si -0.09  2.17 -5.20
Si -3.71  4.25  0.70
Si  1.70 -1.17 -5.31
Si -5.46  1.30  0.97
Si  1.78  1.08 -5.56
Si  1.90  5.03 -2.72
Si  1.83 -1.01  5.67
Si  3.42 -4.13 -2.93
Si -0.27 -6.16 -0.11
Si  3.42  4.21  2.97
Si -0.26  2.19  5.79
Si  5.42  1.00  2.83
Si -1.73  4.88  3.48
Si  1.81 -5.26  2.83
Si -5.40  3.16 -0.24
Si  5.39  3.17  0.34
Si -5.33  0.86  3.18
Si  5.44 -3.10 -0.24
Si  5.51 -1.23 -2.72
Si -5.45 -3.09  0.34
Si -1.81  5.17 -3.07
Si -5.42 -1.09 -3.07
Si -0.27 -1.98 -6.01
Si -3.81 -4.13 -2.93
Si -0.26  6.36 -0.11
Si -3.81  4.21  2.97
Si -1.78  1.07 -6.14
Si -5.34  2.79 -2.42
Si -1.72 -5.40  3.18
Si -5.46 -3.00 -1.92
Si -5.34 -1.38  3.48
Si  0.02  6.15 -2.31
Si  0.10  0.11  6.57
Si  5.38  3.25 -1.92
Si -1.84 -1.01  6.24
Si  0.10 -4.07 -5.23
Si -3.59 -4.28  3.59
Si  3.63 -4.28  3.59
Si -3.51  2.19 -5.23
Si  5.38 -0.92  3.98
Si  0.02 -6.37 -2.31
Si  3.72  2.19 -5.23
Si  1.77  5.34  3.98
Si  5.50 -3.47 -2.42
Si -3.51 -6.15 -0.00
Si -7.12  0.11 -0.00
Si -3.51 -1.98 -5.90
Si  0.10 -4.06  5.90
Si  3.72 -6.15 -0.00
Si -3.51  2.19  5.90
Si  3.72 -1.98 -5.90
Si -3.51  6.37 -0.00
Si  0.10  4.28 -5.90
Si  3.72  2.19  5.90
Si  7.33  0.11 -0.00
Si  5.38 -0.79 -4.93
Si  1.70  3.01  6.50
Si  3.72  6.37 -0.00
Si  5.38 -4.96  0.97
Si  1.70  7.18  0.59
Si  7.13 -2.00  0.70
Si  3.52  0.08  6.60
Si -7.15  0.02 -2.24
Si  3.52 -4.09 -5.20
Si -1.91 -3.25  6.50
Si -3.54 -6.24 -2.24
Si -3.54  6.28 -2.24
Si -3.71  0.08  6.60
Si  1.76  5.47 -4.93
Si -3.71 -4.09 -5.20
Si  3.69 -6.24 -2.24
Si -1.91  5.09 -5.31
Si  3.69  6.28 -2.24
Si -7.32 -2.00  0.70
Si  7.30  0.02 -2.24
Si  1.76 -2.87  6.87
Si -5.52 -5.34  0.59
Si -5.52 -1.17 -5.31
Si -1.84 -5.18 -5.56
Si -5.33  5.03 -2.72
Si  3.35 -4.07  5.79
Si -1.85  7.56  0.97
Si -5.45  1.08 -5.56
Si -1.85  3.39  6.87
Si -5.40 -1.01  5.67
Si  7.03 -2.05  2.97
Si  7.03  2.12 -2.93
Si -1.78  5.25  5.67
Si -1.71  7.12  3.18
Si  1.81  7.26  2.83
Si -5.42 -5.26  2.83
Si -3.88 -4.07  5.79
Si  5.42  5.17 -3.07
Si  1.77  1.17 -7.82
Si  3.35  4.27 -6.01
Si  5.50  4.88  3.48
Si -1.81 -7.34 -3.07
Si  1.90 -7.49 -2.72
Si  1.83 -5.18 -6.14
Si -7.42 -2.05  2.97
Si -7.42  2.12 -2.93
Si  0.10 -8.24  0.67
Si  5.44  1.07 -6.14
Si -7.21  1.98  3.59
Si  5.39 -1.01  6.24
Si  7.25  1.98  3.59
Si -3.88  4.27 -6.01
Si -7.12  4.28  0.67
Si  5.51 -5.40  3.18
Si  1.78  5.25  6.24
Si  1.77 -7.17  3.98
Si  0.02 -2.20 -8.21
Si  7.33  4.28  0.67
Si -1.73  0.71 -8.32
Si -6.95  4.06  2.88
Si -1.73 -7.64  3.48
Si -5.46  5.34  3.98
Si -6.96 -4.28 -3.02
Si  0.27  8.23 -3.02
Si  1.76 -7.04 -4.93
Si  0.27 -0.11  8.79
Si  0.27 -0.11 -8.92
Si  0.27 -8.46  2.88
Si  5.32 -3.25  6.50
Si  7.50  4.06  2.88
Si  3.52 -8.26  0.70
Si -0.09 -6.17  6.60
Si -5.52  3.01  6.50
Si -7.15 -4.16  3.66
Si  5.32  5.09 -5.31
Si -5.52  7.18  0.59
Si -3.71 -8.26  0.70
Si  7.13  2.17 -5.20
Si -3.54 -2.07 -8.14
Si  0.08  8.36  3.66
Si  8.99  1.30  0.97
Si  7.50 -4.28 -3.02
Si -0.09  6.34  6.60
Si  0.08  4.19 -8.14
Si  7.30 -4.16  3.66
Si -5.46  5.47 -4.93
Si  3.69 -2.07 -8.14
Si -9.14  0.92  0.59
Si -5.46 -2.87  6.87
Si -7.32  2.17 -5.20
Si -1.72  2.94 -8.62
Si  6.96 -6.16 -0.11
Si  6.96  2.19  5.79
Si  5.39 -5.18 -5.56
Si -1.91 -7.42 -5.31
Si  5.38  7.56  0.97
Si  5.38  3.39  6.87
Si -1.84  7.34 -5.56
Si -1.78 -7.27  5.67
Si  6.96 -1.98 -6.01
Si -8.94 -1.23 -2.72
Si  1.90 -3.31 -8.62
Si  6.96  6.36 -0.11
Si  1.81  3.09  8.73
Si  5.44  5.25  5.67
Si  3.42 -8.31  2.97
Si -1.81 -3.17  8.73
Si  3.42  0.04 -8.83
Si -5.42  7.26  2.83
Si  3.42  0.04  8.87
Si -1.84 -5.09 -7.82
Si  3.42  8.38 -2.93
Si -9.03  1.00  2.83
Si  9.00 -3.09  0.34
Si -1.73  9.05 -2.42
Si -9.01 -3.10 -0.24
Si  1.83 -9.36 -0.24
Si -1.84 -9.35  0.34
Si  5.51  7.12  3.18
Si -1.73  0.71  9.38
Si -5.33 -7.49 -2.72
Si -1.78  9.42 -0.24
Si  9.06  3.16 -0.24
Si  1.78  9.42  0.34
Si  9.03 -1.09 -3.07
Si -5.46  1.17 -7.82
Si -9.06  3.17  0.34
Si -3.81 -8.31  2.97
Si -3.81  0.04 -8.83
Si  5.42 -7.34 -3.07
Si -1.84 -9.26 -1.92
Si -3.81  0.04  8.87
Si  1.81  3.08 -8.97
Si -3.51 -6.15  6.57
Si -3.81  8.38 -2.93
Si -3.59  8.23  3.59
Si  9.00 -3.00 -1.92
Si -5.40 -5.18 -6.14
Si -1.81 -3.17 -8.97
Si  3.63  8.23  3.59
Si -7.12  0.11  6.57
Si -1.71  2.94  9.08
Si -7.49 -6.16 -0.11
Si  9.13  0.86  3.18
Si -7.49  2.19  5.79
Si -7.12 -4.07 -5.23
Si  1.83  7.33 -6.14
Si  3.71 -6.15  6.57
Si  1.78 -7.26  6.24
Si  0.02 -2.20  9.49
Si -7.21  6.15 -2.31
Si  7.25  6.15 -2.31
Si -3.51  6.37  6.57
Si -7.49 -1.98 -6.01
Si -5.45  5.25  6.24
Si -9.07  3.25 -1.92
Si -7.49  6.36 -0.11
Si  9.11  2.79 -2.42
Si -3.59  4.06 -8.21
Si  7.33  0.11  6.57
Si  1.90 -3.31  9.08
Si  9.11 -1.38  3.48
Si  3.63  4.06 -8.21
Si -5.46 -7.17  3.98
Si  1.77  9.51 -1.92
Si  3.72  6.37  6.57
Si  7.33 -4.07 -5.23
Si -7.21 -6.37 -2.31
Si -8.96 -3.47 -2.42
Si  7.25 -6.37 -2.31
Si  0.10  8.45 -5.23
Si -9.07 -0.92  3.98
Si  5.50  0.71 -8.32
Si  5.50 -7.64  3.48
Si -7.12 -4.06  5.90
Si  1.77  1.17  9.88
Si  0.10 -8.24 -5.90
Si  1.89 -5.55 -8.32
Si -5.46 -7.04 -4.93
Si -7.12  4.28 -5.90
Si  1.89 -9.72 -2.42
Si  7.33 -4.06  5.90
Si  0.11  8.45  5.90
Si  7.33  4.28 -5.90
Si -9.08 -0.79 -4.93
Si -9.08 -4.96  0.97
Si -3.54 -2.07  9.56
Si  8.93 -5.34  0.59
Si  0.08  4.19  9.56
Si  8.93 -1.17 -5.31
Si  3.69 -2.07  9.56
Si  3.52  8.43 -5.20
Si -0.09 10.51  0.70
Si  5.32 -7.42 -5.31
Si -3.71  8.43 -5.20
Si 10.58  0.10 -0.11
Si  9.00  1.08 -5.56
Si  5.51  2.94 -8.62
Si -5.33 -3.31 -8.62
Si  5.39  7.34 -5.56
Si  5.44 -7.27  5.67
Si  9.06 -1.01  5.67
Si -5.42  3.09  8.73
Si  3.35 -8.24 -6.01
Si  5.42 -3.17  8.73
Si  9.13  5.03 -2.72
Si  5.38 -5.09 -7.82
Si  3.35  8.45  5.79
Si -8.95  4.88  3.48
Si  5.39 -9.35  0.34
Si -0.20 -10.39 -2.93
Si -5.40 -9.36 -0.24
Si -0.20 -6.22 -8.83
Si  9.03 -5.26  2.83
Si -0.20 -6.22  8.87
Si -0.20  6.30 -8.83
Si -9.03  5.17 -3.07
Si  5.50  9.05 -2.42
Si -0.20  6.30  8.87
Si  5.44  9.42 -0.24
Si  5.38 -9.26 -1.92
Si -0.20 10.47  2.97
Si -5.45  9.42  0.34
Si  5.50  0.71  9.38
Si -7.12 -8.24  0.67
Si -3.88 -8.24 -6.01
Si -8.94 -5.40  3.18
Si -5.42  3.08 -8.97
Si -3.59  4.06  9.49
Si -10.74 -1.98  0.67
Si -1.84  7.43 -7.82
Si  3.63  4.06  9.49
Si -3.88  8.45  5.79
Si  5.42 -3.17 -8.97
Si -9.01  1.07 -6.14
Si -5.40  7.33 -6.14
Si  1.89  6.96 -8.32
Si -5.45 -7.26  6.24
Si  5.51  2.94  9.08
Si -5.33 -3.31  9.08
Si  7.33 -8.24  0.67
Si -9.06 -1.01  6.24
Si  1.89 -5.55  9.38
Si -10.82 -0.11 -2.31
Si 10.86 -0.11 -2.31
Si -11.11  0.10 -0.11
Si -3.51 10.54  0.67
Si  0.10  0.11 -11.13
Si -5.46  9.51 -1.92
Si  0.02 -10.54  3.59
Si 10.94 -1.98  0.67
Si -7.21 -2.20 -8.21
Si -10.57  1.98 -3.02
Si  7.25 -2.20 -8.21
Si -10.57 -2.20  2.88
Si -6.95  8.23 -3.02
Si  3.72 10.54  0.67
Si  9.00  5.34  3.98
Si -6.95 -0.11  8.79
Si -3.34 10.32  2.88
Si -3.34  6.15  8.79
Si -1.84 -5.09  9.88
Si -6.96 -0.11 -8.92
Si -6.96 -8.46  2.88
Si -3.34  6.15 -8.92
Si -5.34 -5.55 -8.32
Si  1.76 -2.87 -10.83
Si -5.46  1.17  9.88
Si -3.34 -6.37  8.79
Si -5.34 -9.72 -2.42
Si  1.76 -11.21  0.97
Si  3.89 10.32  2.88
Si  3.89  6.15  8.79
Si  8.93  3.01  6.50
Si -3.34 -6.37 -8.92
Si -3.34 -10.54 -3.02
Si  8.93  7.18  0.59
Si -1.91  9.27  6.50
Si -1.85  3.39 -10.83
Si  3.89  6.15 -8.92
Si  7.13 -6.17  6.60
Si  3.89 -6.37  8.79
Si  7.50  8.23 -3.02
Si  7.50 -0.11  8.79
Si -10.76  2.10  3.66
Si -1.85 -9.13  6.87
Si 10.75  4.25  0.70
Si -0.09 -10.35 -5.20
Si -3.54 -10.41  3.66
Si -7.15  8.36  3.66
Si  7.13  6.34  6.60
Si -7.15  4.19 -8.14
Si  8.99  5.47 -4.93
Si  3.88 -6.37 -8.92
Si -7.32 -6.17  6.60
Si  3.88 -10.54 -3.02
Si  3.69 -10.41  3.66
Si  1.70 -9.51  6.50
Si  3.52  0.08 -11.10
Si  0.07 -8.33 -8.14
Si -1.84 -1.01 -11.46
Si  7.50 -0.11 -8.92
Si  7.50 -8.46  2.88
Si -9.14 -3.25  6.50
Si  8.99 -2.87  6.87
Si 11.11  1.98 -3.02
Si  7.30  8.36  3.66
Si 11.11 -2.20  2.88
Si 10.92  2.10  3.66
Si -3.71  0.08 -11.10
Si  7.30  4.19 -8.14
Si -7.32  6.34  6.60
Si  1.70  3.01 -11.21
Si -9.14  5.09 -5.31
Si -1.71 11.29 -2.72
Si -1.78  1.08 11.56
Si -10.93  4.25  0.70
Si -1.91 -11.60  0.59
Si 10.64 -4.13 -2.93
Si  1.89 11.14  3.48
Si 10.64  4.21  2.97
Si -1.91 -3.25 -11.21
Si -9.06 -5.18 -5.56
Si  1.89  6.96  9.38
Si -0.27 -10.33  5.79
Si -9.08  7.56  0.97
Si -0.26 -1.98 11.69
Si -8.94  7.12  3.18
Si -9.01  5.25  5.67
Si -9.08  3.39  6.87
Si  9.03  7.26  2.83
Si  1.76  9.65  6.87
Si  1.81 11.43 -3.07
Si  9.00  1.17 -7.82
Si -1.81 -11.52  2.83
Si -9.04 -7.34 -3.07
Si  5.38  7.43 -7.82
Si -3.51 -10.32 -5.23
Si -5.34  6.96 -8.32
Si  9.06 -5.18 -6.14
Si  9.12 -7.49 -2.72
Si -0.26  2.19 -11.91
Si -7.21 -2.20  9.49
Si -0.26 10.53 -6.01
Si -5.34 -5.55  9.38
Si -10.74  2.19 -5.23
Si  7.25 -2.20  9.49
Si -11.04 -4.13 -2.93
Si  9.00  5.25  6.24
Si  3.71 -10.32 -5.23
Si  9.00 -7.17  3.98
Si -10.82 -4.28  3.59
Si -11.04  4.21  2.97
Si 10.86 -4.28  3.59
Si  1.83 -1.01 -12.04
Si -7.12  8.45 -5.23
Si  1.90 -11.66  3.18
Si -8.96  0.71 -8.32
Si -8.96 -7.64  3.48
Si -3.60 -8.46 -8.21
Si  1.78  1.08 12.14
Si 10.94  2.19 -5.23
Si  3.63 -8.46 -8.21
Si  7.33  8.45 -5.23
Si  5.38 -5.09  9.88
Si -10.74 -6.15 -0.00
Si -7.12 -8.24 -5.90
Si -3.51 -10.32  5.90
Si -1.84 11.60  3.98
Si -10.73 -1.98 -5.90
Si  0.10 -12.41 -0.00
Si  8.99 -7.04 -4.93
Si -10.73  2.19  5.90
Si  3.72 -10.32  5.90
Si -5.46 -2.87 -10.83
Si -3.51 -1.98 11.80
Si -10.73  6.37 -0.00
Si  0.10 -4.07 -11.80
Si -1.84  7.43  9.88
Si  5.32  9.27  6.50
Si -3.51  2.19 -11.80
Si  7.33 -8.24 -5.90
Si -5.46 -11.21  0.97
Si -7.12  8.45  5.90
Si  3.72 -1.98 11.80
Si  0.11  4.28 11.80
Si 10.95 -6.15 -0.00
Si  5.38  3.39 -10.83
Si  1.70 -1.16 12.39
Si  3.72  2.19 -11.80
Si -3.51 10.54 -5.90
Si 10.95 -1.98 -5.90
Si 12.54  0.92  0.59
Si 10.75  0.08  6.60
Si 10.75 -4.09 -5.20
Si  0.11 12.62 -0.00
Si  5.38 -9.13  6.87
Si 10.95  2.19  5.90
Si  3.72 10.54 -5.90
Si -10.77 -6.24 -2.24
Si  1.70 11.35 -5.31
Si  7.33  8.45  5.90
