500
set: 1479.00  0.00  0.00
Si  0.49  0.83 -0.03
Si -0.11 -0.84  1.49
Si  0.69 -0.80 -1.89
Si  1.13 -2.38  0.12
Si -1.19  2.05 -1.56
Si -2.61 -1.18 -0.07
Si -1.24 -2.32 -1.36
Si  0.56  2.62  1.67
Si -2.95  1.20 -0.25
Si  2.98  1.20 -0.25
Si -1.99  2.01  1.81
Si  1.36  2.66 -1.71
Si -0.31  0.79  3.34
Si  3.31 -1.18 -0.07
Si -2.04 -2.36  2.01
Si  1.28  0.87 -3.41
Si  2.18  1.16  3.12
Si -1.81 -1.14 -3.44
Si  0.34 -2.42  3.49
Si  2.51 -1.22  3.31
Si -2.15  1.24 -3.62
Si  1.93 -2.34 -3.26
Si  0.93  4.35  0.12
Si  0.76 -4.10  1.67
Si  1.56 -4.06 -1.71
Si  3.93  2.01  1.81
Si -1.45  4.41 -1.36
Si -3.41 -1.22  3.31
Si  3.88 -2.36  2.01
Si -3.75  1.16  3.12
Si -0.91 -0.88  4.86
Si -0.99 -4.67 -1.56
Si -0.44 -2.28 -4.74
Si -2.24  4.37  2.01
Si -4.79 -2.38  0.12
Si -1.79 -4.71  1.81
Si -0.39  2.09 -4.94
Si  3.77  1.24 -3.62
Si  4.73  2.05 -1.56
Si  4.68 -2.32 -1.36
Si  4.11 -1.14 -3.44
Si -5.43  0.83 -0.03
Si  1.49 -0.76 -5.26
Si -4.56  2.66 -1.71
Si  0.13  4.31  3.49
Si -5.23 -0.80 -1.89
Si -3.99 -2.34 -3.26
Si -0.24  2.58  5.05
Si  1.73  4.39 -3.26
Si -4.64  0.87 -3.41
Si  0.69 -5.89 -0.03
Si  3.68  4.37  2.01
Si  5.81 -0.84  1.49
Si -0.31  5.89  1.49
Si  2.16  2.70 -5.08
Si -2.74 -5.53 -0.25
Si -4.36 -4.06 -1.71
Si -5.36  2.62  1.67
Si -2.79  1.97  5.19
Si -2.81  5.55 -0.07
Si  0.49  5.93 -1.89
Si -6.03 -0.84  1.49
Si  3.11  5.55 -0.07
Si  3.13  1.97  5.19
Si  3.18 -5.53 -0.25
Si  4.48  4.41 -1.36
Si  6.41  0.83 -0.03
Si  4.13 -4.71  1.81
Si -0.04 -4.14  5.05
Si -0.65  4.45 -4.74
Si -2.84 -2.40  5.39
Si  5.61  0.79  3.34
Si -4.99  4.35  0.12
Si  3.08 -2.40  5.39
Si  1.38  1.12  6.50
Si -0.19 -4.63 -4.94
Si -5.16 -4.10  1.67
Si -0.11 -5.93  3.34
Si  2.38 -5.57  3.12
Si  2.31  5.51  3.31
Si -1.11  0.76  6.72
Si -1.94 -5.49 -3.62
Si -2.02  5.59 -3.44
Si -3.76  2.70 -5.08
Si -4.19  4.39 -3.26
Si  2.36 -4.02 -5.08
Si  6.61 -0.80 -1.89
Si -4.43 -0.76 -5.26
Si  1.49 -5.85 -3.41
Si  4.93 -4.67 -1.56
Si -1.01 -1.10 -6.82
Si  1.71 -1.26  6.68
Si -5.59 -2.42  3.49
Si  5.01 -0.88  4.86
Si -6.24  0.79  3.34
Si  2.08  0.91 -6.78
Si  6.48  2.62  1.67
Si -1.35  1.28 -7.00
Si -3.54 -5.57  3.12
Si -0.46 -2.45  6.87
Si -3.62  5.51  3.31
Si -3.56 -4.02 -5.08
Si  7.05 -2.38  0.12
Si  2.88  4.33  5.39
Si -2.59 -4.75  5.19
Si  2.73 -2.30 -6.63
Si -3.04  4.33  5.39
Si  6.26 -2.42  3.49
Si  0.28  7.56 -0.03
Si -7.11  2.05 -1.56
Si  5.48 -2.28 -4.74
Si  3.90  5.59 -3.44
Si -7.16 -2.32 -1.36
Si -1.11  5.85  4.86
Si  3.98 -5.49 -3.62
Si  5.53  2.09 -4.94
Si  0.09 -7.56  1.49
Si -3.19 -2.30 -6.63
Si  3.33 -4.75  5.19
Si  0.89 -7.52 -1.89
Si -3.84  0.91 -6.78
Si -5.23 -5.89 -0.03
Si  7.28  2.66 -1.71
Si -4.21 -1.26  6.68
Si -4.54  1.12  6.50
Si -5.79  4.31  3.49
Si  7.21  0.87 -3.41
Si  6.69 -4.10  1.67
Si  5.68  2.58  5.05
Si  1.29  5.97 -5.26
Si -4.43 -5.85 -3.41
Si -0.67  4.27  6.87
Si  6.85  4.35  0.12
Si  6.05  4.31  3.49
Si -0.52  7.52  3.34
Si -6.37 -2.28 -4.74
Si -5.43  5.93 -1.89
Si -2.41 -7.90 -0.07
Si  5.61  5.89  1.49
Si -6.31  2.09 -4.94
Si  4.81  0.76  6.72
Si -7.91  2.01  1.81
Si  2.53  4.43 -6.63
Si  5.28  4.45 -4.74
Si -6.16  2.58  5.05
Si  1.08  7.60 -3.41
Si  2.77  7.92 -0.25
Si  0.36 -2.24 -8.12
Si -6.83 -0.88  4.86
Si  4.57  1.28 -7.00
Si -1.71 -0.92  8.24
Si  4.91 -1.10 -6.82
Si -6.91 -4.67 -1.56
Si -3.15  7.92 -0.25
Si -7.74 -1.14 -3.44
Si -7.96 -2.36  2.01
Si  0.41  2.13 -8.31
Si -8.53 -1.18 -0.07
Si  3.51 -7.90 -0.07
Si -3.39  4.43 -6.63
Si  7.49 -4.06 -1.71
Si -7.37  4.41 -1.36
Si -6.23  5.89  1.49
Si  1.97  7.88  3.12
Si  1.58 -5.61  6.50
Si -1.61 -7.86 -3.44
Si  8.10  1.16  3.12
Si  1.51  5.47  6.68
Si  5.89 -4.14  5.05
Si  7.85 -2.34 -3.26
Si -5.96 -4.14  5.05
Si  6.61 -5.89 -0.03
Si -1.04  2.54  8.42
Si  5.73 -4.63 -4.94
Si -1.22  5.62 -6.82
Si -8.07  1.24 -3.62
Si  6.41  5.93 -1.89
Si -1.15 -5.45 -7.00
Si  5.81 -5.93  3.34
Si -8.87  1.20 -0.25
Si  2.29 -0.72 -8.64
Si  8.90  1.20 -0.25
Si  4.81  5.85  4.86
Si  2.71 -7.94  3.31
Si -1.40  8.78 -1.56
Si -0.91 -5.97  6.72
Si -0.71 -7.60  4.86
Si -2.35  7.96 -3.62
Si  2.33  1.93  8.56
Si -6.03 -5.93  3.34
Si  5.46 -2.45  6.87
Si -6.11 -4.63 -4.94
Si  7.41 -0.76 -5.26
Si  8.43 -1.22  3.31
Si -3.21 -7.94  3.31
Si -2.19  8.74  1.81
Si  1.34 -9.10  0.12
Si -1.04 -9.04 -1.36
Si -4.64  5.97 -5.26
Si -7.71 -4.71  1.81
Si  2.29 -5.81 -6.78
Si -6.57  4.45 -4.74
Si -5.03 -7.52 -1.89
Si  0.15  4.49 -8.12
Si  4.21 -0.92  8.24
Si  1.69 -7.48 -5.26
Si  9.23 -1.18 -0.07
Si -3.95  7.88  3.12
Si  2.96  2.74 -8.46
Si -2.96  2.74 -8.46
Si  2.28 -2.44  8.76
Si -3.63 -0.72 -8.64
Si  7.65  4.39 -3.26
Si -5.64  7.56 -0.03
Si -0.83 -4.18  8.42
Si  3.57  7.96 -3.62
Si -8.17  4.37  2.01
Si -1.84 -9.08  2.01
Si -3.59  1.93  8.56
Si  0.36  9.35  1.67
Si  0.61 -4.59 -8.31
Si  4.31 -7.86 -3.44
Si  1.16  9.39 -1.71
Si -4.34 -5.61  6.50
Si -4.84  7.60 -3.41
Si -3.63 -5.81 -6.78
Si  5.25  4.27  6.87
Si -5.83 -7.56  1.49
Si  3.73  8.74  1.81
Si -6.39 -2.45  6.87
Si -4.41  5.47  6.68
Si -2.76 -3.98 -8.46
Si -7.03  0.76  6.72
Si  6.01 -7.56  1.49
Si  6.20  7.56 -0.03
Si -6.94 -1.10 -6.82
Si -3.64 -2.44  8.76
Si  0.54 -9.14  3.49
Si  7.30  1.12  6.50
Si  5.41  7.52  3.34
Si  2.14 -9.06 -3.26
Si  3.16 -3.98 -8.46
Si  8.08  2.70 -5.08
Si  0.58  1.08  9.88
Si  2.08  4.29  8.76
Si -9.33 -1.22  3.31
Si  4.53  8.78 -1.56
Si  4.70  5.62 -6.82
Si  7.41 -5.85 -3.41
Si  4.88  2.54  8.42
Si  4.78 -5.45 -7.00
Si -4.23 -7.48 -5.26
Si -5.57 -2.24 -8.12
Si -0.60  8.82 -4.94
Si  2.54 -4.79  8.56
Si -1.31  7.48  6.72
Si  4.08 -9.08  2.01
Si -7.27  1.28 -7.00
Si -0.24 -9.00 -4.74
Si  0.91 -1.30 10.06
Si -4.58 -9.10  0.12
Si -5.51  2.13 -8.31
Si  9.85  2.01  1.81
Si  7.63 -1.26  6.68
Si -9.67  1.16  3.12
Si -0.21 -1.06 -10.19
Si -7.87 -5.49 -3.62
Si  1.17  7.84  6.50
Si -1.91  5.81  8.24
Si  9.80 -2.36  2.01
Si -8.66 -5.53 -0.25
Si  5.01 -5.97  6.72
Si -1.91  0.71 10.09
Si -7.94  5.59 -3.44
Si  6.81 -7.52 -1.89
Si -8.71  1.97  5.19
Si -3.79 -9.06 -3.26
Si -8.74  5.55 -0.07
Si -7.03  5.85  4.86
Si  4.88 -9.04 -1.36
Si -3.39 -4.79  8.56
Si  1.88  7.64 -6.78
Si -0.81 -7.82 -6.82
Si  5.22 -7.60  4.86
Si  9.70  1.24 -3.62
Si -6.59  4.27  6.87
Si  8.23  5.51  3.31
Si -6.44  7.52  3.34
Si  8.30 -5.57  3.12
Si -0.55  1.32 -10.38
Si -3.84  4.29  8.76
Si  6.28 -2.24 -8.12
Si  8.28 -4.02 -5.08
Si  8.01  0.91 -6.78
Si -2.39 -2.26 -10.01
Si  2.93  8.70  5.19
Si -8.76 -2.40  5.39
Si -2.99  8.70  5.19
Si  1.91 -7.98  6.68
Si  9.03  5.55 -0.07
Si -0.44  9.31  5.05
Si  2.88  0.95 -10.16
Si  9.05  1.97  5.19
Si -1.26 -2.49 10.24
Si -3.04  0.95 -10.16
Si  9.10 -5.53 -0.25
Si  6.33  2.13 -8.31
Si 10.03 -1.14 -3.44
Si -4.76  9.39 -1.71
Si -9.91 -2.34 -3.26
Si  5.09 -4.18  8.42
Si  2.08  6.01 -8.64
Si  9.60  4.37  2.01
Si  7.21  5.97 -5.26
Si -1.55  8.00 -7.00
Si  9.00 -2.40  5.39
Si  4.01  5.81  8.24
Si  3.53 -2.26 -10.01
Si  7.00  7.60 -3.41
Si -5.31 -4.59 -8.31
Si  4.01  0.71 10.09
Si  1.96  9.43 -5.08
Si -2.64 -9.12  5.39
Si -5.77  4.49 -8.12
Si 10.60 -2.32 -1.36
Si -10.48  2.66 -1.71
Si 10.65  2.05 -1.56
Si -10.71 -2.38  0.12
Si -4.04  7.64 -6.78
Si  0.97 -10.83  1.67
Si -5.56  9.35  1.67
Si -8.51 -4.75  5.19
Si  4.61  7.48  6.72
Si  1.77 -10.79 -1.71
Si  6.07  4.49 -8.12
Si  3.28 -9.12  5.39
Si  0.73 11.07  0.12
Si -10.56  0.87 -3.41
Si  8.65 -2.30 -6.63
Si -4.01 -7.98  6.68
Si -5.38 -9.14  3.49
Si -1.47  4.23 10.24
Si -10.28 -4.06 -1.71
Si  8.80  4.33  5.39
Si -6.63 -7.60  4.86
Si -3.84  6.01 -8.64
Si -6.96  2.54  8.42
Si -4.75  7.84  6.50
Si 10.05 -4.71  1.81
Si -2.59  4.47 -10.01
Si -7.63 -0.92  8.24
Si -9.68  2.70 -5.08
Si -5.34  1.08  9.88
Si -6.83 -5.97  6.72
Si -5.01 -1.30 10.06
Si -8.96  4.33  5.39
Si -1.50 -7.64  8.24
Si -1.65 11.13 -1.36
Si -11.15 -0.80 -1.89
Si -7.07 -5.45 -7.00
Si -7.14  5.62 -6.82
Si 10.40  4.41 -1.36
Si  6.28  9.35  1.67
Si -11.36  0.83 -0.03
Si  7.43  5.47  6.68
Si  7.50 -5.61  6.50
Si  0.78 -5.64  9.88
Si -9.46 -5.57  3.12
Si -3.96  9.43 -5.08
Si -7.53 -7.86 -3.44
Si  5.33  8.82 -4.94
Si  0.71  5.43 10.06
Si  3.33  4.47 -10.01
Si -0.26 -9.18  6.87
Si -9.48 -4.02 -5.08
Si -8.33 -7.90 -0.07
Si -6.96 -9.04 -1.36
Si -10.11  4.39 -3.26
Si  4.37  8.00 -7.00
Si -9.54  5.51  3.31
Si -9.11 -2.30 -6.63
Si  6.53 -4.59 -8.31
Si  4.66 -2.49 10.24
Si -0.79 -11.40 -1.56
Si -7.32  8.78 -1.56
Si -2.45 11.09  2.01
Si  5.11 -7.82 -6.82
Si  2.94 -9.02 -6.63
Si -0.07 11.03  3.49
Si -6.75 -4.18  8.42
Si  7.89  7.88  3.12
Si -2.99 -9.02 -6.63
Si  8.45  4.43 -6.63
Si  9.26 -4.75  5.19
Si -10.35 -0.76 -5.26
Si  7.26 -9.10  0.12
Si  5.68 -9.00 -4.74
Si -0.42  5.67 -10.19
Si  2.49 -7.44 -8.64
Si  1.53 11.11 -3.26
Si -4.16 -10.79 -1.71
Si -1.58 -11.44  1.81
Si -11.28  2.62  1.67
Si -0.35 -5.41 -10.38
Si  6.46 -9.14  3.49
Si  5.71 -1.06 -10.19
Si -10.91  4.35  0.12
Si  1.16 -2.20 -11.49
Si  5.37  1.32 -10.38
Si  8.69  7.92 -0.25
Si  3.47 11.09  2.01
Si  9.83  5.59 -3.44
Si 11.73 -0.84  1.49
Si -1.71 -6.01 10.09
Si  6.50  1.08  9.88
Si  7.08  9.39 -1.71
Si  9.90 -5.49 -3.62
Si -6.16 -9.00 -4.74
Si  7.61 -7.48 -5.26
Si -3.43 -7.44 -8.64
Si -2.51 -0.95 11.61
Si 10.85 -4.67 -1.56
Si -9.76  0.91 -6.78
Si  5.48  9.31  5.05
Si -11.08 -4.10  1.67
Si  8.21 -0.72 -8.64
Si -6.14 -1.06 -10.19
Si  4.46  4.23 10.24
Si  1.21  2.17 -11.69
Si  0.17 -10.87  5.05
Si 10.93 -0.88  4.86
Si  4.27 11.13 -1.36
Si -4.95 -10.83  1.67
Si -2.83 -5.77 -10.16
Si -6.52  8.82 -4.94
Si 11.53  0.79  3.34
Si -8.27  7.96 -3.62
Si -9.07  7.92 -0.25
Si  8.25  1.93  8.56
Si -8.12  8.74  1.81
Si  4.42 -7.64  8.24
Si -11.95 -0.84  1.49
Si  3.09 -5.77 -10.16
Si  0.56 -8.96 -8.12
Si -7.76 -9.08  2.01
Si  8.21 -5.81 -6.78
Si  3.42 -0.95 11.61
Si  0.20  8.86 -8.31
Si  2.56 -10.75 -5.08
Si -0.85 11.17 -4.74
Si  1.53  1.89 11.94
Si  8.63 -7.94  3.31
Si -1.84  2.50 11.80
Si -10.13 -1.26  6.68
Si  6.83 -1.30 10.06
Si -5.19 11.07  0.12
Si  8.20 -2.44  8.76
Si -9.31  4.43 -6.63
Si -11.51 -2.42  3.49
Si -6.47  1.32 -10.38
Si  9.43 -7.90 -0.07
Si -2.16  2.78 -11.83
Si -3.36 -10.75 -5.08
Si -6.36  9.31  5.05
Si 12.33  0.83 -0.03
Si  2.13  8.66  8.56
Si -2.83 -0.68 -12.02
Si  4.34 -11.44  1.81
Si -6.73 -7.82 -6.82
Si -10.46  1.12  6.50
Si -10.36 -5.85 -3.41
Si  0.01 -11.36 -4.94
Si  0.95  4.53 -11.49
Si -4.39 11.11 -3.26
Si -7.24  7.48  6.72
Si  7.10  7.84  6.50
Si  3.09 -0.68 -12.02
Si  1.48 -2.48 12.14
Si  4.21 -6.01 10.09
Si -5.14 -5.64  9.88
Si -2.54 -12.25 -0.25
Si -9.13 -7.94  3.31
Si 11.40 -2.28 -4.74
Si  8.06 -9.06 -3.26
Si -5.21  5.43 10.06
Si  8.88  2.74 -8.46
Si -8.88  2.74 -8.46
Si  2.67 11.05  5.39
Si -1.24  9.27  8.42
Si  0.38  7.80  9.88
Si  5.13 -11.40 -1.56
Si  2.90 12.27 -0.07
Si -11.15 -5.89 -0.03
Si  8.00  4.29  8.76
Si  1.41 -4.55 -11.69
Si -1.96 -3.94 -11.83
Si -12.16  0.79  3.34
Si -4.77 -2.20 -11.49
Si -1.63 -4.22 11.80
Si -3.02 12.27 -0.07
