500
set: 1339.00  0.00  0.00
Si -0.60 -0.96 -0.49
Si -1.25  0.24  1.46
Si  1.69 -1.98 -0.48
Si -1.25  0.24 -2.43
Si -1.28  2.51  1.46
Si -2.47 -2.29 -0.48
Si -0.60 -0.96  3.40
Si  3.56 -0.66 -0.49
Si -0.69  3.60 -0.48
Si -1.28  2.50 -2.43
Si -3.77  0.44  1.45
Si  2.34 -3.18  1.46
Si  1.69 -1.97  3.41
Si  4.16  0.44  1.45
Si -4.37 -0.66 -0.49
Si -3.77  0.44 -2.44
Si -0.60 -0.97 -4.38
Si  2.34 -3.18 -2.43
Si -2.47 -2.29  3.41
Si -3.06 -3.38  1.46
Si  4.16  0.44 -2.44
Si -3.81  2.71  1.46
Si  3.56 -0.66  3.40
Si -0.69  3.60  3.41
Si  1.18  4.92 -0.49
Si  1.69 -1.98 -4.37
Si  4.12  2.71  1.46
Si -3.07 -3.38 -2.43
Si  3.47  3.91 -0.48
Si -3.81  2.71 -2.43
Si -1.25  0.24  5.34
Si  4.12  2.71 -2.43
Si -2.47 -2.29 -4.37
Si -4.37 -0.66  3.40
Si  3.56 -0.66 -4.38
Si -0.69  3.60 -4.37
Si -2.59  5.23 -0.49
Si  5.46 -2.29 -0.48
Si -4.46  3.91 -0.48
Si -1.28  2.51  5.35
Si  4.86 -3.38  1.46
Si  1.18  4.92  3.40
Si  2.38 -5.45  1.45
Si -4.37 -0.66 -4.38
Si  3.47  3.91  3.41
Si  0.54  6.13  1.46
Si  4.86 -3.38 -2.43
Si  2.38 -5.45 -2.44
Si -1.25  0.23 -6.32
Si -3.77  0.44  5.34
Si -6.24 -1.98 -0.48
Si -3.03 -5.65  1.46
Si -5.59 -3.18  1.46
Si  0.54  6.12 -2.43
Si  2.34 -3.18  5.35
Si  1.18  4.92 -4.38
Si -2.59  5.23  3.40
Si  4.16  0.44  5.34
Si -1.99  6.33  1.45
Si  1.78 -6.55 -0.49
Si  3.47  3.91 -4.37
Si  5.46 -2.29  3.41
Si -4.46  3.91  3.41
Si  6.68  0.24  1.46
Si -3.03 -5.65 -2.43
Si -5.59 -3.18 -2.43
Si -1.28  2.50 -6.32
Si -3.06 -3.38  5.35
Si -1.99  6.32 -2.44
Si -3.81  2.71  5.35
Si  6.68  0.24 -2.43
Si  6.65  2.51  1.46
Si -2.38 -6.85 -0.49
Si  4.12  2.71  5.35
Si -2.59  5.22 -4.38
Si  5.46 -2.29 -4.37
Si -4.46  3.91 -4.37
Si -3.77  0.43 -6.33
Si -6.24 -1.97  3.41
Si -0.60 -0.96  7.29
Si  7.33 -0.96 -0.49
Si  2.34 -3.19 -6.32
Si  5.34  5.23 -0.49
Si  6.65  2.50 -2.43
Si  4.16  0.43 -6.33
Si  1.78 -6.54  3.40
Si  4.90 -5.65  1.46
Si  1.69 -1.97  7.29
Si -3.07 -3.39 -6.32
Si -3.81  2.70 -6.32
Si  4.90 -5.65 -2.43
Si -6.24 -1.98 -4.37
Si -0.09 -7.86 -0.48
Si -5.55 -5.45  1.45
Si  4.86 -3.38  5.35
Si  2.38 -5.45  5.34
Si -2.38 -6.85  3.40
Si  4.12  2.70 -6.32
Si -2.47 -2.28  7.29
Si  1.78 -6.55 -4.38
Si  7.24  3.60 -0.48
Si  7.33 -0.96  3.40
Si  3.56 -0.66  7.29
Si  0.54  6.13  5.34
Si -5.55 -5.45 -2.44
Si -0.69  3.60  7.29
Si  5.34  5.23  3.40
Si -3.03 -5.64  5.34
Si -0.60 -0.97 -8.27
Si -5.59 -3.18  5.35
Si -6.75  4.92 -0.49
Si -2.39 -6.86 -4.38
Si -1.99  6.33  5.34
Si -4.37 -0.66  7.29
Si  0.50  8.39  1.46
Si  6.68  0.24  5.34
Si -0.09 -7.86  3.41
Si  7.33 -0.97 -4.38
Si -8.53 -0.96 -0.49
Si  5.34  5.22 -4.38
Si  4.86 -3.39 -6.32
Si  1.69 -1.98 -8.26
Si  2.37 -5.45 -6.33
Si  0.50  8.39 -2.43
Si  7.24  3.60  3.41
Si  5.94  6.33  1.45
Si  0.54  6.12 -6.32
Si  5.54 -6.85 -0.49
Si  1.18  4.93  7.29
Si  6.65  2.51  5.35
Si -2.47 -2.29 -8.26
Si -2.02  8.60  1.46
Si  3.68 -8.18 -0.48
Si  3.47  3.92  7.29
Si -6.15 -6.55 -0.49
Si -0.09 -7.87 -4.37
Si -3.03 -5.65 -6.32
Si  5.94  6.32 -2.44
Si -5.59 -3.19 -6.32
Si -6.75  4.92  3.40
Si  3.56 -0.67 -8.27
Si -0.69  3.59 -8.26
Si -2.02  8.59 -2.43
Si -1.99  6.32 -6.33
Si  4.90 -5.64  5.34
Si  7.24  3.60 -4.37
Si  0.56 -9.07  1.46
Si  6.68  0.23 -6.32
Si -4.25 -8.18 -0.48
Si -8.53 -0.96  3.40
Si -9.18  0.24  1.46
Si -1.25  0.24  9.23
Si -2.59  5.23  7.29
Si -8.61  3.60 -0.48
Si -4.37 -0.67 -8.27
Si  5.46 -2.28  7.29
Si -4.46  3.92  7.29
Si  0.56 -9.07 -2.43
Si -6.75  4.92 -4.38
Si -5.55 -5.45  5.34
Si  5.54 -6.85  3.40
Si -9.18  0.24 -2.43
Si  6.64  2.50 -6.32
Si  1.10  9.49 -0.48
Si  3.68 -8.17  3.41
Si -6.15 -6.54  3.40
Si -8.53 -0.97 -4.38
Si -9.21  2.51  1.46
Si -1.28  2.51  9.24
Si  1.18  4.92 -8.27
Si -7.39  6.13  1.46
Si  3.47  3.90 -8.26
Si  4.90 -5.65 -6.32
Si -6.24 -1.97  7.29
Si -4.25 -8.17  3.41
Si  9.62 -1.98 -0.48
Si  5.54 -6.86 -4.38
Si -9.21  2.50 -2.43
Si  3.08 -9.27  1.46
Si -7.39  6.12 -2.43
Si -8.61  3.60  3.41
Si  1.78 -6.54  7.29
Si  0.50  8.40  5.35
Si  3.68 -8.18 -4.37
Si -3.77  0.45  9.23
Si -6.15 -6.55 -4.38
Si -5.55 -5.45 -6.33
Si  2.34 -3.17  9.24
Si  3.08 -9.27 -2.43
Si -2.59  5.22 -8.27
Si  4.16  0.45  9.23
Si  1.10  9.49  3.41
Si  5.46 -2.29 -8.26
Si -2.67  9.80 -0.48
Si -4.46  3.90 -8.26
Si  5.94  6.33  5.34
Si -4.25 -8.18 -4.37
Si -2.38 -6.85  7.29
Si -1.25  0.23 -10.21
Si -3.06 -3.38  9.24
Si -8.62  3.60 -4.37
Si -2.02  8.60  5.35
Si -3.81  2.71  9.24
Si  9.11  4.92 -0.49
Si  7.33 -0.96  7.29
Si  9.62 -1.97  3.41
Si  5.34  5.23  7.29
Si  4.12  2.71  9.24
Si  1.10  9.48 -4.37
Si  0.50  8.39 -6.32
Si  5.91  8.60  1.46
Si  0.56 -9.06  5.35
Si -6.24 -1.98 -8.26
Si  8.46  6.13  1.46
Si -4.85 -9.27  1.46
Si -1.28  2.50 -10.21
Si -9.18  0.24  5.34
Si -10.40 -2.29 -0.48
Si  1.78 -6.55 -8.27
Si  5.91  8.59 -2.43
Si -2.67  9.80  3.41
Si -0.09 -7.86  7.29
Si  8.46  6.12 -2.43
Si  5.94  6.32 -6.33
Si -4.85 -9.27 -2.43
Si  9.62 -1.98 -4.37
Si 10.27 -3.18  1.46
Si -2.02  8.59 -6.32
Si  7.24  3.60  7.29
Si -3.77  0.43 -10.21
Si  9.11  4.92  3.40
Si -9.21  2.51  5.35
Si  2.34 -3.19 -10.21
Si  4.86 -3.38  9.24
Si  2.38 -5.44  9.23
Si -7.39  6.13  5.34
Si -2.39 -6.86 -8.27
Si 10.27 -3.18 -2.43
Si  4.16  0.43 -10.21
Si -2.67  9.79 -4.37
Si  0.56 -9.07 -6.32
Si  7.33 -0.97 -8.27
Si -6.75  4.93  7.29
Si  0.54  6.13  9.23
Si  7.83 -7.86 -0.48
Si  5.25  9.80 -0.48
Si  3.08 -9.27  5.35
Si  5.34  5.22 -8.27
Si -9.18  0.23 -6.32
Si -0.80 11.11 -0.49
Si -10.40 -2.29  3.41
Si -3.07 -3.39 -10.21
Si  2.96 10.81 -0.49
Si -3.81  2.70 -10.21
Si -3.03 -5.64  9.23
Si -0.60 -0.96 11.18
Si  9.11  4.92 -4.38
Si -8.02 -7.86 -0.48
Si -5.59 -3.17  9.24
Si -8.53 -0.96  7.29
Si -7.43  8.39  1.46
Si  4.12  2.70 -10.21
Si -1.99  6.33  9.23
Si  6.68  0.24  9.23
Si -0.09 -7.87 -8.26
Si  5.54 -6.85  7.29
Si  0.59 -11.34  1.45
Si -9.21  2.50 -6.32
Si -7.43  8.39 -2.43
Si  1.69 -1.97 11.19
Si -7.39  6.12 -6.32
Si -10.40 -2.29 -4.37
Si 11.49 -0.66 -0.49
Si  3.68 -8.17  7.29
Si  7.24  3.59 -8.26
Si -6.15 -6.54  7.29
Si -10.99 -3.38  1.46
Si  7.84 -7.86  3.41
Si  0.59 -11.34 -2.44
Si  5.25  9.80  3.41
Si  3.08 -9.27 -6.32
Si -0.80 11.12  3.40
Si  6.65  2.51  9.24
Si -2.47 -2.28 11.18
Si -6.83  9.49 -0.48
Si  2.96 10.81  3.40
Si  9.71 -6.55 -0.49
Si  5.91  8.60  5.35
Si -8.02 -7.86  3.41
Si  8.46  6.13  5.34
Si 10.30 -5.45  1.45
Si -4.85 -9.27  5.35
Si -4.25 -8.17  7.29
Si -6.75  4.92 -8.27
Si  3.56 -0.65 11.18
Si -10.52  5.23 -0.49
Si -10.99 -3.38 -2.43
Si -0.69  3.61 11.18
Si -7.37 -9.07  1.46
Si -11.70  0.44  1.45
Si  4.86 -3.39 -10.21
Si  2.37 -5.46 -10.21
Si -8.61  3.60  7.29
Si -9.92  6.33  1.45
Si  4.90 -5.64  9.23
Si -4.97 10.81 -0.49
Si 10.30 -5.45 -2.44
Si  0.54  6.12 -10.21
Si -8.53 -0.97 -8.27
Si  7.83 -7.87 -4.37
Si -7.37 -9.07 -2.43
Si  5.25  9.79 -4.37
Si -11.70  0.44 -2.44
Si -0.80 11.11 -4.38
Si  8.43  8.39  1.46
Si 11.49 -0.66  3.40
Si 10.27 -3.18  5.35
Si -9.92  6.32 -2.44
Si -4.37 -0.65 11.18
Si  1.10  9.49  7.29
Si  2.96 10.81 -4.38
Si  3.12 -11.54  1.46
Si -8.02 -7.87 -4.37
Si -3.03 -5.66 -10.21
Si 11.40  3.91 -0.48
Si -5.59 -3.19 -10.21
Si -5.55 -5.44  9.23
Si  5.54 -6.86 -8.27
Si -11.73  2.71  1.46
Si  8.43  8.39 -2.43
Si -1.99  6.32 -10.21
Si -6.83  9.49  3.41
Si 12.09  0.44  1.45
Si  5.90  8.59 -6.32
Si  9.71 -6.54  3.40
Si  3.68 -8.18 -8.26
Si  3.12 -11.54 -2.43
Si  6.68  0.23 -10.21
Si -0.60 -0.97 -12.15
Si  8.46  6.12 -6.32
Si -6.15 -6.55 -8.27
Si -4.85 -9.27 -6.32
Si -10.52  5.23  3.40
Si  9.62 -1.97  7.29
Si  1.18  4.93 11.18
Si -11.73  2.71 -2.43
Si -0.20 12.21  1.45
Si 11.49 -0.66 -4.38
Si  2.32 12.01  1.46
Si -12.30 -0.66 -0.49
Si 12.09  0.44 -2.44
Si  3.47  3.92 11.19
Si -4.97 10.81  3.40
Si -4.25 -8.18 -8.26
Si -10.31 -6.85 -0.49
Si -10.96 -5.65  1.46
Si -7.43  8.40  5.35
Si  1.69 -1.99 -12.15
Si  6.64  2.50 -10.21
Si 12.05  2.71  1.46
Si -0.01 -12.44 -0.49
Si -0.21 12.21 -2.44
Si -8.62  3.59 -8.26
Si 10.27 -3.19 -6.32
Si  2.32 12.01 -2.43
Si -6.83  9.48 -4.37
Si  0.50  8.40  9.24
Si  9.71 -6.55 -4.38
Si  8.49 -9.07  1.46
Si -2.67  9.80  7.29
Si 11.40  3.91  3.41
Si -10.52  5.22 -4.38
Si  0.59 -11.33  5.34
Si -10.96 -5.65 -2.43
Si -4.81 -11.54  1.46
Si 12.05  2.71 -2.43
Si -2.47 -2.30 -12.15
Si -2.58  5.24 11.18
Si  1.10  9.48 -8.26
Si  5.46 -2.28 11.18
Si  8.48 -9.07 -2.43
Si  4.90 -5.66 -10.21
Si -4.46  3.92 11.19
Si  9.11  4.93  7.29
Si -4.97 10.81 -4.38
Si  5.94  6.33  9.23
Si  3.56 -0.67 -12.16
Si -10.99 -3.38  5.35
Si -0.69  3.59 -12.15
Si -4.81 -11.54 -2.43
Si -12.30 -0.66  3.40
Si -2.02  8.60  9.24
Si 11.40  3.91 -4.37
Si 10.30 -5.45  5.34
Si  9.62 -1.98 -8.26
Si -10.31 -6.85  3.40
Si -5.55 -5.46 -10.21
Si -7.37 -9.06  5.35
Si -7.43  8.39 -6.32
Si -11.70  0.44  5.34
Si -0.01 -12.43  3.40
Si -10.40 -2.28  7.29
Si -9.92  6.33  5.34
Si -4.37 -0.67 -12.16
Si  0.56 -9.06  9.24
Si -6.24 -1.97 11.19
Si -12.38  3.91 -0.48
Si  0.59 -11.34 -6.33
Si -9.17  0.24  9.23
Si  8.43  8.40  5.35
Si -12.30 -0.66 -4.38
Si  1.78 -6.54 11.18
Si  3.12 -11.53  5.34
Si -2.67  9.79 -8.26
Si  9.03  9.49 -0.48
Si -10.99 -3.39 -6.32
Si -10.31 -6.86 -4.38
Si  1.18  4.91 -12.15
Si -11.73  2.71  5.35
Si -1.25  0.25 13.12
Si -0.01 -12.44 -4.38
Si  7.12 11.11 -0.49
Si  0.50  8.38 -10.21
Si 12.09  0.44  5.34
Si  3.47  3.90 -12.15
Si -9.95  8.60  1.46
Si  9.11  4.92 -8.27
Si 10.30 -5.45 -6.33
Si  7.84 -7.86  7.29
Si -9.21  2.51  9.24
Si -7.37 -9.07 -6.32
Si  3.76 -12.74 -0.49
Si  5.25  9.80  7.29
Si -11.70  0.43 -6.33
Si 12.79 -3.38  1.46
Si -0.80 11.12  7.29
Si -7.39  6.13  9.23
Si -2.38 -6.84 11.18
Si -0.20 12.22  5.34
Si -5.61 12.01  1.46
Si -9.92  6.32 -6.33
Si  2.32 12.02  5.34
Si -9.95  8.59 -2.43
Si  2.96 10.81  7.29
Si -8.02 -7.86  7.29
Si  5.94  6.32 -10.21
Si  7.33 -0.96 11.18
Si -4.17 -12.74 -0.49
Si -12.38  3.91  3.41
Si -1.28  2.52 13.13
Si -10.96 -5.64  5.34
Si  3.08 -9.26  9.24
Si  5.34  5.24 11.18
Si 12.79 -3.38 -2.43
Si 12.05  2.71  5.35
Si  8.43  8.39 -6.32
Si -10.40 -2.29 -8.26
Si -5.61 12.01 -2.43
Si -2.59  5.22 -12.16
Si -2.02  8.59 -10.21
Si  5.46 -2.30 -12.15
Si -4.46  3.90 -12.15
Si  8.49 -9.06  5.35
Si  3.12 -11.54 -6.32
Si  9.03  9.49  3.41
Si -7.34 -11.34  1.45
Si -4.81 -11.53  5.34
Si 13.39 -2.29 -0.48
Si -11.74  2.70 -6.32
Si 11.49 -0.66  7.29
Si  7.12 11.12  3.40
Si 12.09  0.43 -6.33
Si -3.77  0.45 13.12
Si -0.09 -7.86 11.19
Si  0.56 -9.07 -10.21
Si -12.39  3.91 -4.37
Si  2.34 -3.17 13.13
Si  3.76 -12.74  3.40
Si -7.34 -11.34 -2.44
Si -9.18  0.23 -10.21
Si -0.21 12.21 -6.33
Si  2.32 12.01 -6.32
Si  4.16  0.45 13.12
Si -6.83  9.49  7.29
Si  9.71 -6.54  7.29
Si  9.03  9.48 -4.37
Si -6.24 -1.99 -12.15
Si  7.24  3.61 11.18
Si -10.51  5.23  7.29
Si -4.17 -12.74  3.40
Si  7.83 -7.87 -8.26
Si  5.25  9.79 -8.26
Si -10.96 -5.65 -6.32
Si -0.81 11.11 -8.27
Si 12.05  2.70 -6.32
Si -1.88 -13.75 -0.48
Si -3.06 -3.37 13.13
Si  7.12 11.11 -4.38
Si  2.96 10.80 -8.27
Si  1.78 -6.56 -12.16
