500
set: 427.00  0.00  0.00
Si  0.11 -0.10  0.01
Si -1.76  0.87  0.76
Si  0.14  0.05 -2.21
Si  1.80  1.19  0.84
Si -0.03 -2.23  0.69
Si -1.75 -0.96 -2.87
Si -1.86  2.99  0.07
Si  3.56  0.13  0.03
Si -0.04 -2.07  2.92
Si -1.74  1.01  2.99
Si -1.90 -3.08 -0.11
Si  1.76  3.25 -0.11
Si  1.92 -1.10 -2.98
Si -0.04  2.15 -3.05
Si -3.75  0.13  0.03
Si  1.79 -3.34  0.07
Si  1.90  1.15  3.10
Si  3.53 -2.05  0.67
Si  1.81 -1.04  3.64
Si -3.61  0.03 -2.18
Si  1.78 -3.17 -2.19
Si -1.87  3.16 -2.19
Si  3.70  0.03 -2.18
Si -1.84 -3.15 -2.33
Si -0.13  4.28  0.67
Si  1.81  3.18 -2.33
Si  0.04  2.14  3.78
Si -1.87 -1.06  3.78
Si -3.78 -2.05  0.67
Si  3.61 -2.13  2.93
Si -0.05  4.20  2.93
Si  3.61  2.09 -3.03
Si -3.70 -2.13  2.93
Si -0.05 -4.24 -3.03
Si -3.70  2.09 -3.03
Si  3.63  4.10  0.69
Si -1.85 -5.14  0.84
Si -1.85 -0.92 -5.13
Si -3.68  4.10  0.69
Si -3.52  2.16  3.75
Si  0.14 -4.17  3.75
Si -0.03  1.99 -5.28
Si  5.54  0.87  0.76
Si  1.89 -1.24 -5.21
Si -5.51  1.19  0.84
Si  3.79  2.16  3.75
Si  1.89 -5.46  0.76
Si  1.76 -0.97  5.86
Si -0.09 -6.20  0.03
Si  5.45  2.99  0.07
Si  5.41 -3.08 -0.11
Si  1.79  0.88 -5.90
Si -5.39 -1.10 -2.98
Si -0.09 -1.98 -5.94
Si -1.74  5.23 -2.98
Si -1.75 -5.18  3.10
Si  3.62  4.26  2.92
Si  3.62 -4.18 -3.05
Si  5.55 -0.96 -2.87
Si -5.41  1.15  3.10
Si -3.69  4.26  2.92
Si -3.69 -4.18 -3.05
Si  1.90  5.37 -2.87
Si  1.92 -5.32  2.99
Si -0.09  2.24  6.00
Si  5.57  1.01  2.99
Si -1.86 -1.23  6.03
Si -5.55  3.25 -0.11
Si -5.51 -3.34  0.07
Si -0.09  6.46  0.03
Si -1.90  1.14 -6.07
Si -0.13  0.06  6.63
Si  5.44  3.16 -2.19
Si -5.49 -1.04  3.64
Si  0.04 -6.30 -2.18
Si -1.84  5.29  3.64
Si -3.61 -4.19  3.78
Si  5.44 -1.06  3.78
Si  0.04  6.35 -2.18
Si  5.47 -3.15 -2.33
Si  1.78  5.27  3.78
Si  3.53  2.17 -5.30
Si -5.52 -3.17 -2.19
Si -0.13 -4.16 -5.30
Si  3.70 -4.19  3.78
Si -5.49  3.18 -2.33
Si -3.78  2.17 -5.30
Si -3.54  6.23  0.01
Si -7.20 -0.10  0.01
Si -3.54  2.01  5.98
Si  0.11  4.12 -5.96
Si -3.54 -2.21 -5.96
Si  3.77  6.23  0.01
Si -3.54 -6.42  0.01
Si  3.77  2.01  5.98
Si  0.11 -4.31  5.98
Si  3.77 -2.21 -5.96
Si  7.42 -0.10  0.01
Si  3.77 -6.42  0.01
Si  1.89  7.20  0.76
Si -1.76  5.09 -5.21
Si -7.17  0.05 -2.21
Si -3.52 -6.28 -2.21
Si  5.45 -5.14  0.84
Si  5.45 -0.92 -5.13
Si  3.63 -0.12  6.66
Si  1.89  2.98  6.72
Si -3.68 -0.12  6.66
Si -3.52  6.38 -2.21
Si -5.42 -1.24 -5.21
Si  7.28 -2.23  0.69
Si  3.79 -6.28 -2.21
Si  1.80 -3.03  6.80
Si  1.80  5.41 -5.13
Si -7.33 -2.23  0.69
Si -1.76 -3.35  6.72
Si -5.42 -5.46  0.76
Si  3.63 -4.34 -5.28
Si  3.79  6.38 -2.21
Si -3.68 -4.34 -5.28
Si  7.44  0.05 -2.21
Si -1.85  3.30  6.80
Si -1.85  7.52  0.84
Si  1.90 -7.29 -2.87
Si  3.56 -4.09  6.00
Si  1.79  5.10  6.03
Si  7.27 -2.07  2.92
Si -5.51  0.88 -5.90
Si -5.55 -0.97  5.86
Si -5.41  5.37 -2.87
Si -5.39 -5.32  2.99
Si  1.92  7.34  2.99
Si -3.75 -4.09  6.00
Si -1.90  5.36  5.86
Si -7.35 -2.07  2.92
Si  7.27  2.15 -3.05
Si  1.76 -5.18 -6.07
Si  3.56  4.35 -5.94
Si -1.74 -7.43 -2.98
Si  5.57  5.23 -2.98
Si  5.55 -5.18  3.10
Si  5.41  1.14 -6.07
Si  5.45 -1.23  6.03
Si -7.35  2.15 -3.05
Si -1.86 -5.45 -5.90
Si -3.75  4.35 -5.94
Si -1.75  7.48  3.10
Si  7.18  4.28  0.67
Si -0.13 -8.38  0.67
Si  1.78  1.05 -8.15
Si  0.04 -2.08 -8.15
Si -1.84 -7.36  3.64
Si  5.47  5.29  3.64
Si -7.26  2.14  3.78
Si  1.78 -7.39  3.78
Si -5.52  5.27  3.78
Si  7.35  2.14  3.78
Si -1.84  1.07 -8.30
Si -7.43  4.28  0.67
Si  7.26  4.20  2.93
Si -0.05 -0.02  8.90
Si  7.26 -4.24 -3.03
Si -0.05  8.42 -3.03
Si -0.05 -8.46  2.93
Si -7.36  4.20  2.93
Si -0.05 -0.02 -9.00
Si -7.36 -4.24 -3.03
Si -5.42  7.20  0.76
Si  1.80 -7.25 -5.13
Si -0.03  6.21  6.66
Si -7.17 -4.17  3.75
Si -5.42  2.98  6.72
Si -3.52 -2.06 -8.18
Si -9.07  0.87  0.76
Si  5.54  5.09 -5.21
Si  7.28  1.99 -5.28
Si  9.11  1.19  0.84
Si  0.14  4.27 -8.18
Si  3.79 -2.06 -8.18
Si -7.33  1.99 -5.28
Si -5.51 -3.03  6.80
Si -0.03 -6.44  6.66
Si -5.51  5.41 -5.13
Si  0.14  8.49  3.75
Si  3.63 -8.55  0.69
Si  7.44 -4.17  3.75
Si  5.45  3.30  6.80
Si  5.45  7.52  0.84
Si  5.54 -3.35  6.72
Si -3.68 -8.55  0.69
Si -1.76 -7.57 -5.21
Si  1.79  9.32  0.07
Si -1.86  7.21 -5.90
Si  7.22 -6.20  0.03
Si -5.41 -7.29 -2.87
Si  1.90 -3.07 -8.83
Si -1.90 -7.29  5.86
Si  7.22 -1.98 -5.94
Si -9.06 -0.96 -2.87
Si  1.76 -9.40 -0.11
Si -1.75  3.26 -8.83
Si -9.05  1.01  2.99
Si -5.39  7.34  2.99
Si  3.62  0.04  8.88
Si  3.62 -8.40  2.92
Si  5.41  5.36  5.86
Si -3.69  0.04  8.88
Si -3.69 -8.40  2.92
Si  9.06  3.25 -0.11
Si -5.51  5.10  6.03
Si -9.17  2.99  0.07
Si  7.22  2.24  6.00
Si -7.40 -6.20  0.03
Si -1.74 -3.21 -8.94
Si  1.92  3.12 -8.94
Si -1.74 -3.21  8.96
Si  1.92  3.12  8.96
Si  7.22  6.46  0.03
Si -7.40 -1.98 -5.94
Si  9.10 -3.34  0.07
Si -9.21 -3.08 -0.11
Si  3.62  8.47 -3.05
Si  5.45 -5.45 -5.90
Si  3.62  0.04 -9.02
Si -5.55 -5.18 -6.07
Si -3.69  8.47 -3.05
Si -3.69  0.04 -9.02
Si  5.57 -7.43 -2.98
Si  9.22 -1.10 -2.98
Si  1.90 -3.07  9.07
Si -1.90  9.58 -0.11
Si  7.18  0.06  6.63
Si  9.21  1.15  3.10
Si -7.40  2.24  6.00
Si  3.53 -6.27  6.63
Si  1.76  7.47 -6.07
Si -1.75  3.26  9.07
Si  5.55  7.48  3.10
Si -7.40  6.46  0.03
Si  1.79 -7.56  6.03
Si -1.84  1.07  9.61
Si -1.86 -9.67  0.07
Si  7.18 -4.16 -5.30
Si  3.53  6.39  6.63
Si -7.26 -6.30 -2.18
Si  5.47 -7.36  3.64
Si -3.61  4.25 -8.15
Si  9.09 -3.17 -2.19
Si  9.12 -1.04  3.64
Si -3.78 -6.27  6.63
Si -1.87 -5.28 -8.15
Si -7.26  6.35 -2.18
Si  1.78  9.49 -2.19
Si -5.52  1.05 -8.15
Si  3.70  4.25 -8.15
Si  1.81 -9.47 -2.33
Si -1.87 -9.50 -2.19
Si  7.35 -6.30 -2.18
Si  9.12  3.18 -2.33
Si -3.61  8.46  3.78
Si -9.15 -3.15 -2.33
Si -9.18  3.16 -2.19
Si -3.78  6.39  6.63
Si  7.35  6.35 -2.18
Si -1.84  9.51 -2.33
Si -7.43  0.06  6.63
Si  1.78  1.05  9.75
Si -5.52 -7.39  3.78
Si  0.04 -2.08  9.75
Si  3.70  8.46  3.78
Si -9.18 -1.06  3.78
Si  1.81 -5.26 -8.30
Si  5.47  1.07 -8.30
Si -0.13  8.49 -5.30
Si -7.43 -4.16 -5.30
Si -7.20  4.12 -5.96
Si  0.11  8.34  5.98
Si -7.20 -4.31  5.98
Si  7.42  4.12 -5.96
Si  0.11 -8.53 -5.96
Si -5.51 -7.25 -5.13
Si -0.03 10.43  0.69
Si  7.42 -4.31  5.98
Si  3.63  8.32 -5.28
Si -3.68  8.32 -5.28
Si -9.16 -5.14  0.84
Si -3.52 -2.06  9.72
Si -9.16 -0.92 -5.13
Si  0.13  4.27  9.72
Si  3.79 -2.06  9.72
Si  9.20 -1.24 -5.21
Si  9.20 -5.46  0.76
Si  5.54 -7.57 -5.21
Si  5.45  7.21 -5.90
Si -5.41 -3.07 -8.83
Si  5.41 -7.29  5.86
Si  3.56 -8.31 -5.94
Si -5.51  9.32  0.07
Si  9.06 -0.97  5.86
Si -9.05  5.23 -2.98
Si 10.87  0.13  0.03
Si -3.75 -8.31 -5.94
Si -0.04 -6.29  8.88
Si  9.10  0.88 -5.90
Si -9.06 -5.18  3.10
Si -5.39  3.12 -8.94
Si -5.39  3.12  8.96
Si -5.55 -9.40 -0.11
Si -0.04  6.37  8.88
Si  5.55  3.26 -8.83
Si -0.04 -10.51 -3.05
Si -0.04 10.59  2.92
Si -5.41 -3.07  9.07
Si -0.04 -6.29 -9.02
Si  5.41  9.58 -0.11
Si  5.57 -3.21 -8.94
Si  5.57 -3.21  8.96
Si  9.21  5.37 -2.87
Si -0.04  6.37 -9.02
Si -9.17 -1.23  6.03
Si 10.84 -2.05  0.67
Si  3.56  8.57  6.00
Si -11.05  0.13  0.03
Si  7.18 -8.38  0.67
Si  9.22 -5.32  2.99
Si -9.21  1.14 -6.07
Si  5.45 -9.67  0.07
Si  1.81 -5.25  9.61
Si  5.47  1.07  9.61
Si -3.75  8.57  6.00
Si -5.55  7.47 -6.07
Si -7.26 -2.08 -8.15
Si  5.55  3.26  9.07
Si -5.51 -7.56  6.03
Si  5.44 -5.28 -8.15
Si -10.92  0.03 -2.18
Si -1.87  7.38 -8.15
Si  5.44 -9.50 -2.19
Si  9.09  5.27  3.78
Si  7.35 -2.08 -8.15
Si -9.15  5.29  3.64
Si  0.04 -10.52  3.78
Si -5.52  9.49 -2.19
Si  3.53 10.61  0.67
Si -5.49 -9.47 -2.33
Si  5.47  9.51 -2.33
Si 11.01  0.03 -2.18
Si -7.43 -8.38  0.67
Si -3.61  4.25  9.75
Si -1.87 -5.28  9.75
Si -5.49 -5.26 -8.30
Si -5.52  1.05  9.75
Si  3.70  4.25  9.75
Si  1.81  7.40 -8.30
Si -0.13  0.06 -11.27
Si -3.78 10.61  0.67
Si -11.09 -2.05  0.67
Si  7.26 -0.02  8.90
Si  3.61  6.31  8.90
Si 10.91 -2.13  2.93
Si  3.61 10.53  2.93
Si  3.61 -6.35  8.90
Si 10.91  2.09 -3.03
Si -3.70  6.31  8.90
Si  7.26  8.42 -3.03
Si  7.26 -8.46  2.93
Si -3.70 10.53  2.93
Si -3.70 -6.35  8.90
Si -7.36 -0.02  8.90
Si  7.26 -0.02 -9.00
Si  3.61  6.31 -9.00
Si  3.61 -10.57 -3.03
Si -7.36  8.42 -3.03
Si -7.36 -8.46  2.93
Si -11.01 -2.13  2.93
Si  3.61 -6.35 -9.00
Si -3.70  6.31 -9.00
Si -3.70 -10.57 -3.03
Si -11.01  2.09 -3.03
Si -1.76  9.31  6.72
Si -3.70 -6.35 -9.00
Si -7.36 -0.02 -9.00
Si -9.07  5.09 -5.21
Si  1.80 -11.47  0.84
Si  1.80 -3.03 -11.10
Si  7.28  6.21  6.66
Si -10.83  2.16  3.75
Si -3.52 -10.49  3.75
Si -7.17  4.27 -8.18
Si -7.33  6.21  6.66
Si 10.94  4.10  0.69
Si  9.20  7.20  0.76
Si -1.85 -9.36  6.80
Si  0.14 -8.39 -8.18
Si  1.89  2.98 -11.18
Si -1.85  3.30 -11.10
Si -7.17  8.49  3.75
Si -10.99  4.10  0.69
Si  9.11 -3.03  6.80
Si  9.11  5.41 -5.13
Si  3.79 -10.49  3.75
Si -9.07 -3.35  6.72
Si  9.20  2.98  6.72
Si  7.28 -6.44  6.66
Si -1.76 -3.35 -11.18
Si -7.33 -6.44  6.66
Si  3.63 -0.12 -11.25
Si -3.68 -0.12 -11.25
Si  7.44  4.27 -8.18
Si -9.16  3.30  6.80
Si -9.16  7.52  0.84
Si  7.44  8.49  3.75
Si -0.03 -10.66 -5.28
Si 11.10  2.16  3.75
Si  1.80  9.63  6.80
Si  1.89 -9.68  6.72
Si -1.76 -11.79  0.76
Si -0.09 -10.42  6.00
Si -1.90  1.14 11.83
Si  9.10  5.10  6.03
Si  1.90 -11.50  3.10
Si -1.86 -1.23 -11.87
Si -9.05 -7.43 -2.98
Si  9.06 -5.18 -6.07
Si 10.92  4.26  2.92
Si  1.92 11.55 -2.98
Si  9.21 -7.29 -2.87
Si 10.92 -4.18 -3.05
Si -0.09  2.24 -11.91
Si -0.09 -1.98 11.96
Si -11.00  4.26  2.92
Si -1.74 -11.65  2.99
Si -9.06  7.48  3.10
Si -11.00 -4.18 -3.05
Si  9.22  7.34  2.99
Si -9.21  5.36  5.86
Si  1.79  0.88 12.00
Si -1.75 11.70 -2.87
Si -9.17 -5.45 -5.90
Si  1.76 -0.97 -12.04
Si -0.09 10.68 -5.94
Si -5.49 -5.25  9.61
Si 10.84  2.17 -5.30
Si  9.09  1.05 -8.15
Si -3.61 -8.41 -8.15
Si  1.81  7.40  9.61
Si  5.44  7.38 -8.15
Si  3.53 -10.49 -5.30
Si  3.70 -8.41 -8.15
Si -10.92 -4.19  3.78
Si -9.15 -7.36  3.64
Si  9.09 -7.39  3.78
Si  1.81 11.62  3.64
Si  7.18  8.49 -5.30
Si -7.26 -2.08  9.75
Si -1.87 11.60  3.78
Si -3.78 -10.49 -5.30
Si  5.44 -5.28  9.75
Si -1.87  7.38  9.75
Si 11.01 -4.19  3.78
Si  7.35 -2.08  9.75
Si -9.15  1.07 -8.30
Si -5.49  7.40 -8.30
Si -7.43  8.49 -5.30
Si -11.09  2.17 -5.30
Si -10.85  6.23  0.01
Si -7.20  8.34  5.98
Si -3.54 10.45 -5.96
Si -10.85  2.01  5.98
Si  0.11 12.56  0.01
Si -10.85 -2.21 -5.96
Si -3.54  2.01 -11.92
Si  3.77 10.45 -5.96
Si -10.85 -6.42  0.01
Si  0.11  4.12 11.95
Si -7.20 -8.53 -5.96
Si -3.54 -2.20 11.95
Si  7.42  8.34  5.98
Si  3.77  2.01 -11.92
Si  0.11 -4.32 -11.92
Si  1.89 11.42 -5.21
Si 11.07  6.23  0.01
Si -10.83 -6.28 -2.21
Si -3.54 -10.64  5.98
Si  3.77 -2.20 11.95
Si  9.11 -7.25 -5.13
Si  7.28 10.43  0.69
Si 11.07  2.01  5.98
Si -5.51 -11.47  0.84
Si  5.54  9.31  6.72
Si  0.11 -12.75  0.01
Si -5.51 -3.03 -11.10
Si -10.83  6.38 -2.21
Si 11.07 -2.21 -5.96
Si -7.33 10.43  0.69
Si -5.42  2.98 -11.18
Si  3.77 -10.64  5.98
Si -0.03  1.99 12.62
Si  7.42 -8.53 -5.96
Si  5.45 -9.36  6.80
