500
set: 1031.00  0.00  0.00
Si  0.46 -1.14  0.82
Si -0.47  1.17 -0.85
Si  1.28  1.18  0.80
Si -1.28 -1.24 -0.86
Si  0.86 -0.06 -2.42
Si -0.92 -0.04  2.46
Si  2.24 -1.18 -0.82
Si -2.19  1.25  0.84
Si -3.08 -1.13  0.79
Si  3.11  1.12 -0.77
Si  0.03  2.37  2.44
Si -0.02 -2.43 -2.44
Si -2.59  0.02 -2.45
Si  2.62  0.03  2.44
Si  0.53  3.47 -0.86
Si -0.54 -3.53  0.80
Si  1.80  2.28 -2.44
Si -1.78 -2.34  2.44
Si  1.70 -2.32  2.53
Si -1.26  3.58  0.79
Si -1.74  2.41 -2.51
Si  1.30 -3.59 -0.77
Si -3.91  1.12 -0.77
Si  3.94 -1.13  0.79
Si -0.87  0.01 -4.11
Si  0.89 -0.07  4.10
Si -2.29 -3.54 -0.85
Si  2.27  3.57  0.82
Si  3.01 -3.46  0.84
Si -2.97  3.53 -0.82
Si -0.01  2.31 -4.09
Si -0.05 -2.42  4.13
Si  2.60  0.03 -4.02
Si -2.65  0.06  4.04
Si  3.47 -2.30 -2.51
Si -3.55 -2.30 -2.51
Si -3.51  2.39  2.53
Si  3.51  2.39  2.53
Si -4.78 -1.18 -0.82
Si  1.71 -2.33 -4.11
Si -1.69  2.38  4.10
Si -4.40  0.03  2.44
Si  1.76  2.29  4.13
Si  4.82  1.25  0.84
Si  4.43  0.02 -2.45
Si -1.83 -2.40 -4.09
Si  0.81 -4.68  2.44
Si  0.89  4.67  2.46
Si -4.01 -3.46  0.84
Si -0.78  4.73 -2.45
Si -0.96 -4.77 -2.42
Si  4.05  3.53 -0.82
Si -0.38  1.12  5.69
Si -3.50 -2.33  4.10
Si  0.37 -1.18 -5.75
Si  2.67  4.65 -2.42
Si  3.52 -2.33  4.10
Si -3.49  2.38 -4.11
Si  2.61 -4.69 -2.45
Si  3.53  2.38 -4.11
Si -5.74  1.18  0.80
Si -2.58  4.74  2.44
Si  5.74 -1.24 -0.86
Si  4.37  0.06  4.04
Si  0.42 -5.89 -0.82
Si -4.41  0.03 -4.02
Si  4.73 -3.54 -0.85
Si -1.38 -1.19  5.70
Si -4.74  3.57  0.82
Si -2.73 -4.75  2.46
Si  1.37  1.22 -5.73
Si -0.38  5.96  0.84
Si -1.35 -5.85  0.82
Si  1.34  5.88 -0.85
Si -5.22  2.28 -2.44
Si  0.79 -4.68 -4.02
Si  5.24 -2.34  2.44
Si -2.09  5.83 -0.77
Si  2.13 -5.84  0.79
Si -2.17  1.23 -5.76
Si -0.83  4.76  4.04
Si  2.20 -1.23  5.79
Si  5.28  2.41 -2.51
Si  0.94  4.72 -4.11
Si -5.32 -2.32  2.53
Si -0.93 -4.78  4.10
Si  6.10 -0.04  2.46
Si -3.10 -1.10 -5.71
Si -6.16 -0.06 -2.42
Si  3.14  1.18  5.73
Si  2.56 -4.65  4.04
Si  3.09  5.88  0.80
Si  6.55  1.17 -0.85
Si -6.56 -1.14  0.82
Si  0.43  3.52  5.70
Si -0.45 -3.49 -5.73
Si -2.60  4.74 -4.02
Si  2.70  4.63  4.10
Si -3.10 -5.95 -0.86
Si -2.69 -4.70 -4.11
Si -5.72 -3.59 -0.77
Si -4.35  4.65 -2.42
Si  5.76  3.58  0.79
Si  4.28 -4.75  2.46
Si  1.33 -3.53  5.73
Si -1.29  3.61 -5.71
Si -4.41 -4.69 -2.45
Si  4.43  4.74  2.44
Si  3.92 -1.10 -5.71
Si -3.88  1.18  5.73
Si  5.19 -2.40 -4.09
Si -5.26  2.29  4.13
Si -2.19 -3.59  5.69
Si  2.19  3.53 -5.75
Si -5.30 -2.33 -4.11
Si -3.93  5.88  0.80
Si  5.33  2.38  4.10
Si  3.92 -5.95 -0.86
Si -6.13 -0.07  4.10
Si -3.00  3.48  5.79
Si  3.04 -3.48 -5.76
Si  6.15  0.01 -4.11
Si -6.49  3.47 -0.86
Si  6.48 -3.53  0.80
Si  0.37 -1.18  7.35
Si -0.12 -7.03  2.53
Si -0.38  1.11 -7.41
Si -4.32  4.63  4.10
Si  0.08  7.12 -2.51
Si  1.37  1.22  7.37
Si  4.33 -4.70 -4.11
Si -4.46 -4.65  4.04
Si  7.48 -1.14  0.82
Si -1.38 -1.19 -7.40
Si  4.42  4.74 -4.02
Si  1.65 -7.01 -2.51
Si -7.49  1.17 -0.85
Si -4.82 -1.23  5.79
Si  4.85  1.23 -5.76
Si -4.89 -5.84  0.79
Si  4.92  5.83 -0.77
Si  1.85  7.07  2.44
Si -1.69  7.09  2.53
Si  2.20 -1.23 -7.31
Si -2.17  1.23  7.34
Si -1.83 -7.14 -2.44
Si -6.98  2.37  2.44
Si  7.00 -2.43 -2.44
Si -3.98 -3.48 -5.76
Si  7.05  2.37  2.44
Si -7.04 -2.43 -2.44
Si  4.02  3.48  5.79
Si -6.12  4.67  2.46
Si  6.06 -4.77 -2.42
Si -3.10 -1.10  7.39
Si  3.15  1.18 -7.37
Si  5.64 -1.19  5.70
Si -5.65  1.22 -5.73
Si -0.10 -7.04 -4.11
Si -3.41  6.99 -2.44
Si -6.21 -4.68  2.44
Si -0.45 -3.49  7.37
Si  5.67 -5.85  0.82
Si  0.13  7.08  4.10
Si  6.24  4.73 -2.45
Si  0.44  3.52 -7.40
Si  3.42 -7.05  2.44
Si -5.67  5.88 -0.85
Si  3.61  6.99 -2.44
Si  7.88 -0.06 -2.42
Si  1.44  5.83  5.69
Si  4.83 -3.59  5.69
Si -0.35  5.93 -5.76
Si  1.33 -3.53 -7.37
Si -3.59 -7.05  2.44
Si  1.20 -8.16  0.84
Si -4.83  3.53 -5.75
Si  0.39 -5.94  5.79
Si -7.94 -0.04  2.46
Si -1.29  3.61  7.39
Si  1.71 -7.04  4.10
Si  1.80  7.02 -4.09
Si  0.55  8.29  0.79
Si -0.52 -8.30 -0.77
Si -1.44 -5.89 -5.75
Si  7.55  3.47 -0.86
Si -1.15  8.24 -0.82
Si -1.68  7.09 -4.11
Si -7.55 -3.53  0.80
Si -3.87  1.18 -7.37
Si  2.10 -5.81 -5.71
Si  8.30  1.18  0.80
Si  3.92 -1.10  7.39
Si -8.30 -1.24 -0.86
Si  7.01  2.31 -4.09
Si  2.18  3.53  7.35
Si -1.87 -7.12  4.13
Si  6.97 -2.42  4.13
Si -7.03  2.31 -4.09
Si -2.06  5.88  5.73
Si -2.19 -3.59 -7.41
Si -7.07 -2.42  4.13
Si  2.35  8.18 -0.86
Si -2.35 -8.24  0.80
Si -3.00  3.48 -7.31
Si  3.03 -3.48  7.34
Si -6.08  4.72 -4.11
Si -6.23 -4.68 -4.02
Si  6.09 -4.78  4.10
Si  6.19  4.76  4.04
Si  2.92 -8.25 -0.85
Si -3.19 -5.90  5.70
Si -5.69 -3.53  5.73
Si  6.64  1.12  5.69
Si -2.93  8.28  0.82
Si -3.44  7.00  4.13
Si  3.18  5.92 -5.73
Si -4.81 -1.23 -7.31
Si  5.73  3.61 -5.71
Si -6.65 -1.18 -5.75
Si  3.38 -7.11 -4.09
Si  4.85  1.23  7.34
Si -6.59 -5.89 -0.82
Si  3.58  7.00  4.13
Si -7.89  0.01 -4.11
Si  7.91 -0.07  4.10
Si  6.64  5.96  0.84
Si -3.64 -7.11 -4.09
Si -0.87  0.01  8.99
Si  0.89 -0.08 -8.99
Si  4.02  3.48 -7.31
Si -3.98 -3.48  7.34
Si  3.83 -5.90  5.70
Si -8.28  3.58  0.79
Si  8.31 -3.59 -0.77
Si -3.84  5.92 -5.73
Si -5.17  7.07  2.44
Si  5.19 -7.14 -2.44
Si -5.37 -7.01 -2.51
Si  5.32  7.09  2.53
Si -4.10 -8.25 -0.85
Si  4.09  8.28  0.82
Si -0.05 -2.42 -8.97
Si -0.01  2.31  9.01
Si -9.21  1.25  0.84
Si  9.26 -1.18 -0.82
Si  8.71 -2.32  2.53
Si -5.65  1.22  7.37
Si  5.64 -1.19 -7.40
Si  6.57 -3.49 -5.73
Si -6.58  3.52  5.70
Si -7.40  1.12  5.69
Si -8.76  2.41 -2.51
Si  1.76  2.29 -8.97
Si -8.80 -2.34  2.44
Si  8.82  2.28 -2.44
Si  0.39 -5.94 -7.31
Si -2.65  0.06 -9.06
Si  7.39 -1.18 -5.75
Si  7.82 -4.68  2.44
Si -7.80  4.73 -2.45
Si -0.36  5.93  7.34
Si  1.71 -2.33  8.99
Si  2.60  0.03  9.08
Si -1.68  2.37 -9.00
Si -4.67  8.18 -0.86
Si -4.83  3.53  7.35
Si -1.83 -2.40  9.01
Si  4.67 -8.24  0.80
Si  7.91  4.67  2.46
Si -4.92 -5.81 -5.71
Si  7.44 -5.89 -0.82
Si -1.44 -5.89  7.35
Si  1.44  5.82 -7.41
Si -7.40  5.96  0.84
Si  4.83 -3.59 -7.41
Si  4.96  5.88  5.73
Si -7.98 -4.77 -2.42
Si  2.10 -5.81  7.39
Si -2.06  5.88 -7.37
Si -5.22  7.02 -4.09
Si  5.15 -7.12  4.13
Si -5.31 -7.04  4.10
Si  0.80 -9.40 -2.45
Si -1.01 -9.39  2.44
Si  5.34  7.09 -4.11
Si -0.77  9.44  2.44
Si  1.04  9.44 -2.45
Si -5.58  5.83  5.69
Si -8.70  2.38  4.10
Si -9.61  0.02 -2.45
Si  8.73 -2.33 -4.11
Si -3.50 -2.33 -9.00
Si -3.49  2.38  8.99
Si  5.58 -5.89 -5.75
Si  3.52 -2.33 -9.00
Si  9.64  0.03  2.44
Si  3.53  2.38  8.99
Si  7.81 -4.68 -4.02
Si -5.69 -3.53 -7.37
Si  8.78  2.29  4.13
Si  3.18  5.93  7.37
Si -6.65 -1.18  7.35
Si -3.19 -5.90 -7.40
Si  9.29  3.57  0.82
Si -2.53  9.36 -2.42
Si -9.30 -3.54 -0.85
Si  6.64  1.11 -7.41
Si  7.45  3.52  5.70
Si  5.73  3.61  7.39
Si -7.85  4.76  4.04
Si -7.46 -3.49 -5.73
Si -8.85 -2.40 -4.09
Si -0.48 -8.24  5.73
Si  4.37  0.06 -9.06
Si -5.82 -8.16  0.84
Si  2.71  9.38  2.46
Si  2.47 -9.46  2.46
Si  1.22 -8.19 -5.76
Si -1.19  8.19  5.79
Si -4.42  0.03  9.08
Si  0.53  8.32 -5.71
Si  7.96  4.72 -4.11
Si -7.94 -4.78  4.10
Si  5.87  8.24 -0.82
Si -2.77 -9.48 -2.42
Si  6.90 -7.03  2.53
Si -10.09 -1.13  0.79
Si  0.94  4.72  8.99
Si  3.83 -5.90 -7.40
Si -3.84  5.93  7.37
Si -8.40 -1.19  5.70
Si 10.13  1.12 -0.77
Si  0.74 -9.36  4.04
Si  8.39  1.22 -5.73
Si -0.92 -4.79 -8.99
Si -8.37 -5.85  0.82
Si  0.79 -4.68  9.08
Si -2.26 -8.20 -5.73
Si  8.36  5.88 -0.85
Si -6.94  7.12 -2.51
Si  2.25  8.23  5.70
Si -1.02 -9.39 -4.02
Si -0.83  4.76 -9.06
Si -0.79  9.45 -4.02
Si -7.14 -7.03  2.53
Si  0.98  9.47  4.04
Si  7.09  7.12 -2.51
Si  9.62  0.03 -4.02
Si  2.71  4.63 -8.99
Si  6.57 -3.49  7.37
Si -9.66  0.06  4.04
Si -3.02  8.24 -5.75
Si  7.39 -1.18  7.35
Si -2.69 -4.70  8.99
Si  2.56 -4.65 -9.06
Si  3.01 -8.30  5.69
Si -2.50  9.34  4.10
Si -6.58  3.52 -7.40
Si -7.39  1.11 -7.41
Si -6.47  8.29  0.79
Si  6.50 -8.30 -0.77
Si  2.52 -9.41 -4.11
Si -2.60  4.74  9.08
Si -0.28 10.54 -0.77
Si  0.31 -10.55  0.79
Si -4.92 -5.81  7.39
Si -4.31  9.38  2.46
Si -6.63 -5.94  5.79
Si -9.98  3.53 -0.82
Si  6.67  5.93 -5.76
Si 10.03 -3.46  0.84
Si -5.25  2.29 -8.97
Si  2.76  9.43 -4.11
Si  4.49  9.36 -2.42
Si  4.96  5.88 -7.37
Si  5.19 -2.40  9.01
Si  4.25 -9.48 -2.42
Si -0.92 -0.04 -10.64
Si  6.92 -7.04 -4.11
Si -6.89  7.08  4.10
Si -2.74 -9.49  4.10
Si -5.31 -2.33  8.99
Si -8.31  3.61 -5.71
Si  0.85 -0.06 10.68
Si -1.39 -10.60 -0.82
Si  8.35 -3.53  5.73
Si  5.33  2.37 -9.00
Si -4.55 -9.46  2.46
Si  1.43 10.67  0.84
Si  4.00  8.24 -5.75
Si -7.12 -7.04 -4.11
Si -4.01 -8.30  5.69
Si -2.11 10.59  0.80
Si -9.11  5.83 -0.77
Si  7.15  7.08  4.10
Si  9.15 -5.84  0.79
Si -6.13 -0.08 -8.99
Si  6.14  0.01  8.99
Si  2.11 -10.66 -0.86
Si -9.19  1.23 -5.76
Si  0.04  2.36 -10.66
Si -0.02 -2.43 10.65
Si  5.57 -5.89  7.35
Si  1.70 -2.32 -10.57
Si -5.58  5.82 -7.41
Si  9.22 -1.23  5.79
Si -2.59  0.02 10.65
Si  2.62  0.03 -10.65
Si -9.60  4.74  2.44
Si  9.63 -4.69 -2.45
Si -4.31  4.63 -8.99
Si -1.74  2.41 10.59
Si -10.93  1.12 -0.77
Si  9.69  4.65 -2.42
Si 10.48 -2.30 -2.51
Si  4.33 -4.70  8.99
Si -1.19  8.19 -7.31
Si  1.79  2.28 10.65
Si 10.96 -1.13  0.79
Si -3.17 -10.55  0.82
Si -1.78 -2.35 -10.66
Si -7.47 -3.49  7.37
Si  1.22 -8.19  7.34
Si -0.48 -8.24 -7.37
Si  4.76 -8.20 -5.73
Si  3.16 10.58 -0.85
Si  7.46  3.52 -7.40
Si -7.37  5.93 -5.76
Si -10.53  2.39  2.53
Si -4.77  8.23  5.70
Si 10.53  2.39  2.53
Si -10.57 -2.30 -2.51
Si -4.46 -4.65 -9.06
Si  7.41 -5.94  5.79
Si -9.75 -4.75  2.46
Si -4.26  9.43 -4.11
Si  0.53  8.32  7.39
Si  4.42  4.74  9.08
Si  4.52  9.34  4.10
Si  4.28 -9.49  4.10
Si -4.50 -9.41 -4.11
Si  8.38  1.22  7.37
Si -7.54 -8.30 -0.77
Si  7.57  8.29  0.79
Si -8.39 -1.19 -7.40
Si -2.26 -8.20  7.37
Si  3.85 -10.55  0.82
Si  2.25  8.23 -7.40
Si -3.86 10.58 -0.85
Si  3.46 -2.30 10.59
Si -3.51  2.38 -10.57
Si  3.51  2.38 -10.57
Si  9.58 -4.65  4.04
Si -9.21 -3.59  5.69
Si -3.56 -2.30 10.59
Si  9.21  3.53 -5.75
Si  6.01 -9.39  2.44
Si -0.10 -7.04  8.99
Si  8.67 -7.01 -2.51
Si -5.98  9.44 -2.45
Si -3.02  8.24  7.35
Si -9.62  4.74 -4.02
Si  0.13  7.08 -9.00
Si -8.71  7.09  2.53
Si -6.63 -5.94 -7.31
Si  9.72  4.63  4.10
Si -4.40  0.03 -10.65
Si -10.52 -2.33  4.10
Si -10.51  2.38 -4.11
Si  3.02 -8.30 -7.41
Si  4.42  0.02 10.65
Si -6.22 -9.40 -2.45
Si -9.70 -4.70 -4.11
Si 10.54 -2.33  4.10
Si  6.66  5.93  7.34
Si  1.71 -7.04 -9.00
Si  1.80  7.02  9.01
Si 10.55  2.38 -4.11
Si -5.80 -8.19 -5.76
Si -1.68  7.09  8.99
Si  6.25  9.44  2.44
Si -11.03 -3.46  0.84
Si  5.83  8.19  5.79
Si  8.87  7.07  2.44
Si -1.86 -7.13 -8.97
Si  8.21 -8.16  0.84
Si  6.97 -2.42 -8.97
Si -8.85 -7.14 -2.44
Si -8.17  8.24 -0.82
Si  7.00  2.31  9.01
Si 11.07  3.53 -0.82
Si  0.90  4.67 -10.64
Si -7.03  2.31  9.01
Si  0.81 -4.68 -10.65
Si -10.12 -1.10 -5.71
Si -7.07 -2.42 -8.97
Si -11.42  0.03  2.44
Si -0.78  4.73 10.65
Si  8.35 -3.53 -7.37
