500
set: 114.00  0.00  0.00
Si -0.09 -0.02 -0.10
Si  1.66  0.95  0.71
Si -0.13 -2.21  0.68
Si -2.02  1.04  0.65
Si -0.04 -0.01 -2.42
Si  1.66  3.03 -0.04
Si  3.51  0.00 -0.07
Si  1.71  1.03  2.91
Si  1.70 -3.19  0.03
Si -0.08 -2.22  2.88
Si -2.00  1.03  2.87
Si -1.86 -1.00 -3.08
Si  1.83 -1.08 -3.07
Si -0.09  2.08 -3.12
Si -3.80 -0.00  0.09
Si -2.10  3.17 -0.01
Si -1.86 -3.34 -0.03
Si -0.26  2.05  3.61
Si  1.66 -1.16  3.65
Si  3.51 -2.16  0.72
Si -0.30  4.17  0.68
Si  1.67  3.09 -2.37
Si  3.56  0.01 -2.36
Si -2.00 -1.11  3.67
Si -2.09  3.07 -2.27
Si  1.80 -3.26 -2.27
Si -1.82 -3.23 -2.33
Si -3.78 -0.01 -2.28
Si -3.79 -2.24  0.78
Si -0.28  4.16  2.89
Si  3.46 -2.25  2.96
Si  3.49  2.15 -3.15
Si  0.05 -4.31 -3.06
Si -3.81  2.09 -3.03
Si -3.81 -2.21  2.98
Si  3.40  4.12  0.73
Si  5.25  1.04  0.76
Si  3.46  2.10  3.60
Si -0.01 -4.25  3.61
Si -3.83  1.97  3.63
Si  1.83 -1.00 -5.24
Si  1.80 -5.31  0.73
Si -1.79 -1.03 -5.32
Si -0.08  2.07 -5.33
Si -3.82  4.19  0.77
Si -1.78 -5.40  0.69
Si -5.61  1.06  0.79
Si  5.22  3.13 -0.00
Si  5.26  0.98  2.99
Si  3.38  4.20  2.94
Si  1.67 -1.23  5.82
Si  5.28 -3.25  0.01
Si  1.61  5.14 -3.09
Si -0.28  2.03  5.87
Si  5.32 -1.08 -3.11
Si -0.36  6.25  0.01
Si -1.77 -5.33  2.90
Si  1.77 -5.33  2.92
Si  1.77  1.04 -6.00
Si -2.06 -1.19  5.88
Si -3.86  4.09  2.95
Si -2.03  5.16 -3.10
Si -1.82  1.07 -5.99
Si  3.58 -4.25 -3.09
Si  0.04 -6.37 -0.02
Si  0.02 -2.06 -6.05
Si -5.58  0.94  2.99
Si -3.57 -4.30 -3.15
Si -5.53 -1.09 -3.07
Si -5.60  3.15  0.04
Si -5.57 -3.31  0.04
Si  5.24 -1.23  3.70
Si  5.22  3.17 -2.33
Si  1.49  5.21  3.74
Si -0.27 -0.18  6.60
Si -2.07  5.14  3.67
Si  5.34 -3.23 -2.33
Si -0.34  6.26 -2.31
Si  3.53 -4.33  3.69
Si  3.53  2.12 -5.34
Si  0.06 -4.26 -5.26
Si -5.46 -3.26 -2.32
Si -3.79  2.06 -5.23
Si -3.68 -4.29  3.76
Si  0.10 -6.41 -2.37
Si -5.60  3.19 -2.29
Si -5.61 -1.25  3.76
Si  3.35  2.05  5.79
Si  3.38  6.18 -0.13
Si  7.05 -0.08  0.12
Si -0.08 -4.35  5.81
Si  3.61 -6.33 -0.01
Si -3.50 -6.43 -0.13
Si -3.91  2.04  5.85
Si  3.59 -2.05 -6.06
Si -7.36 -0.08  0.12
Si -3.55 -2.04 -6.12
Si  1.47  7.20  0.75
Si -0.09  4.17 -6.10
Si -3.90  6.28 -0.01
Si  7.05 -0.08 -2.26
Si  3.39 -0.16  6.59
Si  7.04 -2.25  0.80
Si  1.44  3.06  6.64
Si  3.36  6.20 -2.44
Si  1.72 -3.29  6.57
Si -2.10  3.02  6.59
Si  5.37 -5.29  0.80
Si -2.06 -3.30  6.58
Si  5.40 -1.07 -5.32
Si  3.61 -4.21 -5.28
Si -3.52 -4.25 -5.32
Si -5.47 -1.03 -5.27
Si  1.70  5.23 -5.34
Si -2.15  7.32  0.80
Si -3.79  6.26 -2.34
Si -3.89 -0.11  6.63
Si -7.35 -0.08 -2.26
Si -5.41 -5.42  0.75
Si -3.53 -6.41 -2.44
Si  3.73 -6.36 -2.34
Si -2.07  5.22 -5.33
Si -7.36 -2.25  0.80
Si  7.03  2.10 -2.98
Si  5.18 -1.25  5.92
Si  1.48  7.27  2.93
Si  7.04 -2.28  2.99
Si  1.29  5.18  5.96
Si  5.22  5.23 -3.09
Si -2.13  5.10  5.88
Si  5.31 -5.35  3.00
Si  3.55  4.19 -6.00
Si  5.37  1.01 -6.03
Si -5.41 -5.34  2.93
Si  3.57 -4.33  5.91
Si -2.20  7.26  3.00
Si  6.99  4.15  0.79
Si -1.67 -7.38 -3.09
Si  1.91 -7.35 -3.10
Si  5.17  5.17  3.72
Si -1.72 -5.34 -6.00
Si -5.60 -1.22  5.91
Si  7.06  2.04  3.71
Si -7.38  2.10 -2.98
Si -3.82  4.13 -6.01
Si  1.90 -5.31 -6.00
Si -5.62  1.09 -5.95
Si -7.36 -2.28  2.99
Si -3.81 -4.39  5.90
Si -5.61  5.26 -3.10
Si -1.73  1.08 -8.19
Si  0.16 -2.05 -8.20
Si -7.34  2.04  3.71
Si -1.72 -7.44  3.72
Si  1.86  1.09 -8.22
Si -5.64  5.18  3.69
Si  0.10 -8.47  0.79
Si  1.88 -7.43  3.69
Si -7.41  4.15  0.79
Si  7.01  4.13  3.01
Si -0.33 -0.19  8.79
Si  5.11  7.21  0.69
Si  5.11  3.06  6.59
Si  8.80  1.06  0.79
Si  0.10  0.04 -8.90
Si -0.35  8.33 -3.12
Si  7.17 -4.28 -3.12
Si  6.99  2.12 -5.17
Si -7.24 -4.28 -3.12
Si -7.40  4.13  3.01
Si  0.12 -8.48  3.01
Si -0.41  8.22  3.71
Si  5.28 -3.31  6.61
Si  5.27  5.21 -5.30
Si  7.10 -4.39  3.71
Si -0.51  6.22  6.74
Si -3.49 -8.49  0.73
Si -0.07 -6.45  6.58
Si -3.44 -2.00 -8.31
Si  3.69 -8.42  0.77
Si -1.62 -7.40 -5.30
Si -9.16  1.04  0.76
Si  1.91 -7.38 -5.28
Si -5.59 -3.29  6.63
Si -5.67  3.09  6.67
Si -7.42  2.12 -5.17
Si  6.92  2.03  5.86
Si -7.30 -4.39  3.71
Si  3.67 -2.12 -8.28
Si -5.71  7.30  0.73
Si -5.60  5.23 -5.28
Si  6.93  6.24 -0.02
Si -0.03  4.27 -8.30
Si  5.08  5.16  5.92
Si  8.81  3.15  0.04
Si  8.82  0.94  2.99
Si  5.12  7.28  2.90
Si  3.33 -0.21  8.77
Si  1.32  9.31  0.04
Si  1.37  3.00  8.84
Si  8.84 -3.31  0.04
Si  8.87 -1.09 -3.07
Si  3.32  8.31 -3.15
Si -2.19  3.01  8.80
Si  7.16 -6.36  0.01
Si -3.51 -8.42  2.94
Si  1.62 -3.38  8.82
Si -1.64 -3.11 -8.92
Si  3.12  6.15  6.68
Si -7.19 -2.06 -6.04
Si -2.23  9.36  0.01
Si -1.67 -9.48 -0.00
Si -5.23 -5.32 -6.09
Si  6.96 -0.17  6.65
Si  7.21 -2.06 -6.04
Si  8.80  3.19 -2.29
Si -3.53  0.10 -8.97
Si  8.79 -1.25  3.76
Si -2.02 -3.36  8.81
Si -7.25 -6.36  0.01
Si  6.99  6.21 -2.37
Si  1.66  7.30 -6.09
Si -3.92 -0.16  8.82
Si -5.28 -7.47 -3.09
Si  1.92 -9.46  0.04
Si  1.92 -3.16 -8.92
Si -9.09 -1.08 -3.11
Si -9.14  0.98  2.99
Si  3.64 -0.01 -8.96
Si  3.21  8.32  3.76
Si -9.12 -3.25  0.01
Si  5.44 -5.28 -6.03
Si -1.81 -7.46  5.92
Si  1.78 -7.48  5.91
Si  1.75  3.19 -8.99
Si -9.18  3.13 -0.00
Si -5.73  5.13  5.91
Si -2.08  7.33 -6.03
Si -7.49  2.03  5.86
Si -5.75  7.28  2.92
Si -1.78  3.19 -9.01
Si  3.65 -8.53  2.95
Si  1.44  0.83  9.59
Si  1.43  9.35 -2.32
Si -7.48  6.24 -0.02
Si -3.94  8.36 -3.09
Si  5.48 -7.46 -3.10
Si  8.94 -3.26 -2.32
Si  3.54 -6.40  6.57
Si  7.18 -6.35 -2.31
Si -2.16  0.86  9.58
Si -5.41  1.12 -8.17
Si -0.32 -2.26  9.60
Si -1.67 -9.45 -2.33
Si  3.51  4.19 -8.22
Si -3.97  6.21  6.57
Si  1.91 -9.42 -2.29
Si -5.40 -7.40  3.74
Si -7.23 -6.35 -2.31
Si -7.18 -4.27 -5.31
Si -0.29  8.35 -5.31
Si -9.06 -3.23 -2.33
Si -3.69  4.23 -8.15
Si -2.17  9.38 -2.33
Si -3.99  8.28  3.69
Si  5.43  1.05 -8.23
Si -1.67 -5.32 -8.21
Si  1.89 -5.34 -8.15
Si  7.23 -4.27 -5.31
Si  5.45 -7.47  3.67
Si -7.41  6.21 -2.37
Si -9.17 -1.23  3.70
Si -7.44 -0.17  6.65
Si -9.19  3.17 -2.33
Si -3.77 -6.46  6.68
Si  7.08 -4.32  5.90
Si  7.06  4.20 -6.01
Si -0.44  8.29  5.90
Si  3.37 -2.32  9.47
Si  0.17 -8.41 -6.01
Si -7.33 -4.32  5.90
Si -7.34  4.20 -6.01
Si -0.47 10.36  0.80
Si  8.94 -1.03 -5.27
Si -0.45  4.01  9.65
Si  3.37  8.37 -5.32
Si -5.19 -7.39 -5.34
Si -9.03 -5.29  0.80
Si -9.01 -1.07 -5.32
Si  8.99 -5.42  0.75
Si -3.77 -2.27  9.57
Si  5.03  9.28 -0.03
Si  3.08  8.22  5.90
Si 10.61 -0.00  0.09
Si  5.44 -7.39 -5.33
Si  5.04  3.09  8.83
Si -3.90  8.41 -5.28
Si  8.79  1.09 -5.95
Si  8.81 -1.22  5.91
Si  8.80  5.26 -3.10
Si  5.17  7.28 -6.00
Si -0.47 10.33  2.99
Si  5.24 -3.29  8.82
Si -5.19 -3.06 -9.00
Si  8.77  5.18  3.69
Si  5.30  3.17 -8.91
Si  3.10 10.38  0.78
Si -3.33 -8.42 -6.00
Si  9.00 -5.34  2.93
Si 10.63 -0.01 -2.28
Si  5.08  0.86  9.57
Si -0.47  6.19  8.93
Si 10.61 -2.24  0.78
Si  5.42 -9.45 -0.01
Si -10.90  0.00 -0.07
Si -0.07 -6.44  8.79
Si -9.03  1.01 -6.03
Si  5.07  9.38 -2.33
Si -3.95  8.28  5.91
Si  3.13  4.08  9.63
Si -5.23 -9.58 -0.04
Si -5.67  3.02  8.84
Si  0.14 -10.51 -2.98
Si -5.59 -3.26  8.81
Si  5.39 -7.51  5.88
Si  0.14 -6.37 -8.92
Si -5.42  3.18 -8.98
Si -9.09 -5.35  3.00
Si -5.61  7.31 -6.00
Si -0.10  6.30 -9.03
Si -9.18  5.23 -3.09
Si  5.50 -3.06 -9.04
Si -9.22 -1.25  5.92
Si  3.69 -8.48 -6.01
Si -5.60 -7.43  5.96
Si -5.81  9.43  0.03
Si -10.84  0.01 -2.36
Si  1.69 -5.43  9.54
Si -5.25 -5.25 -8.26
Si -7.18 -8.44  0.68
Si -5.21 -9.52 -2.37
Si -3.94  4.11  9.55
Si  0.09  0.06 -11.12
Si  7.22 -8.44  0.68
Si -10.89 -2.16  0.72
Si -7.16 -2.04 -8.30
Si  1.64  7.36 -8.26
Si  5.50 -5.21 -8.24
Si -5.72  9.35 -2.27
Si  7.25 -2.04 -8.30
Si  0.17 -10.57  3.71
Si  5.43 -9.54 -2.27
Si -4.01 10.45  0.72
Si 10.60  2.09 -3.03
Si -9.23  5.17  3.72
Si -5.70  0.83  9.63
Si 10.60 -2.21  2.98
Si  6.94  8.30 -3.06
Si  3.08 10.40  2.98
Si  3.10  6.18  8.88
Si  6.95 -0.22  8.85
Si -2.01  7.41 -8.24
Si -2.07 -5.45  9.64
Si  6.82  6.17  6.58
Si 10.57  1.97  3.63
Si  8.69  7.30  0.73
Si  3.51 -6.38  8.76
Si 10.58  4.19  0.77
Si  6.88  8.36  3.61
Si  8.73  3.09  6.67
Si -3.40 -10.47 -3.15
Si -7.17 -8.45  2.89
Si  3.45  6.27 -8.95
Si -4.01  6.24  8.76
Si -3.44 -6.34 -8.95
Si  7.23 -8.45  2.89
Si  8.82 -3.29  6.63
Si  1.30  9.32  6.63
Si -4.05 10.36  2.96
Si  8.80  5.23 -5.28
Si -7.19  0.07 -9.02
Si  3.69 -6.30 -8.93
Si  7.22  0.07 -9.02
Si -10.91  2.15 -3.15
Si -10.94 -2.25  2.96
Si  3.71 -10.53 -3.03
Si -7.45 -0.22  8.85
Si -7.47  8.30 -3.06
Si -3.82  6.31 -8.93
Si  7.09  4.13 -8.20
Si -3.79 -6.43  8.88
Si -2.23  9.30  6.61
Si -3.43 -10.52  3.60
Si  7.00 -6.39  6.74
Si -1.66 -3.05 -11.15
Si  1.90 -3.03 -11.12
Si 10.54  4.09  2.95
Si  8.67  5.13  5.91
Si  8.66  7.28  2.92
Si  0.10 -10.49 -5.17
Si -10.94  2.10  3.60
Si -1.64 -11.57  0.76
Si -3.51  0.03 -11.18
Si  3.68  0.10 -11.14
Si  1.91 -11.55  0.79
Si -7.32  4.13 -8.20
Si -1.78 -9.55  6.59
Si -9.12 -3.31  6.61
Si  1.79  3.21 -11.18
Si  1.85 -9.53  6.67
Si -9.14  5.21 -5.30
Si -11.01  4.12  0.73
Si -9.29  7.21  0.69
Si -1.79  3.12 -11.22
Si -7.58  6.17  6.58
Si -9.29  3.06  6.59
Si  0.20 -8.49 -8.20
Si -7.53  8.36  3.61
Si  3.68 -10.64  3.63
Si -7.40 -6.39  6.74
Si  1.36 11.52 -3.07
Si 10.62  2.06 -5.23
Si -8.96 -5.28 -6.03
Si -8.92 -7.46 -3.10
Si -10.83 -4.25 -3.09
Si  1.28 11.36  3.76
Si  1.90 -0.94 -11.87
Si  1.33  0.79 11.95
Si  7.01 -2.31  9.54
Si  6.95  8.35 -5.26
Si -1.68 -0.96 -11.91
Si 10.83 -4.30 -3.15
Si  0.03 -10.59  5.86
Si -1.63 -11.63  2.99
Si  0.02  2.15 -11.93
Si  1.30  7.28  9.62
Si -0.34 -2.27 11.92
Si -2.20 11.53 -3.11
Si -9.28  7.28  2.90
Si 10.73 -4.29  3.76
Si -2.22  0.84 11.92
Si -11.03  4.20  2.94
Si  5.22  7.29 -8.21
Si  5.23 -5.35  9.58
Si -0.30 10.55 -6.04
Si  6.81  8.26  5.81
Si -2.28 11.38  3.70
Si 10.49  2.04  5.85
Si -9.32  5.16  5.92
Si  9.12 -7.47 -3.09
Si  8.99  1.12 -8.17
Si  1.93 -11.68  2.99
Si -8.97  1.05 -8.23
Si  9.17 -5.32 -6.09
Si -8.96 -7.47  3.67
Si 10.50  6.28 -0.01
Si -2.28  7.26  9.58
Si  9.01 -7.40  3.74
Si -3.36 -10.49 -5.34
Si -3.38 -8.42 -8.22
Si -10.88 -4.33  3.69
Si -5.63  7.27 -8.15
Si -7.40 -2.31  9.54
Si  3.82 -8.38 -8.15
Si -10.88  2.12 -5.34
Si -5.59 -5.33  9.62
Si  3.73 -10.56 -5.23
Si -7.46  8.35 -5.26
Si  4.83  9.31  6.58
Si  6.87  4.08  9.49
Si  6.76 10.40  0.68
Si 10.52 -0.11  6.63
Si 12.38  1.04  0.65
Si  3.40 -2.34 11.78
Si  0.14 -4.17 -11.79
Si -10.79 -6.33 -0.01
Si -6.98 -8.44 -6.10
Si 10.62  6.26 -2.34
Si -0.47 12.54  0.12
Si -3.54 -10.56  5.79
Si -10.81 -2.05 -6.06
Si  3.60 -10.57  5.85
Si 10.85 -2.04 -6.12
Si -11.02  6.18 -0.13
Si -7.59  8.26  5.81
Si -10.67 -6.36 -2.34
Si -11.05  2.05  5.79
Si  3.60  2.19 -11.92
Si 10.90 -6.43 -0.13
Si  3.34 10.57 -6.12
Si -0.45  4.01 12.03
Si  0.16 -12.69  0.12
Si 12.30  3.17 -0.01
Si -3.89 -2.24 11.90
Si -3.52  2.09 -12.04
Si  6.82  6.17  8.79
Si -10.79 -4.21 -5.28
Si -0.46 12.54 -2.26
Si  5.36  3.23 -11.11
Si  6.80 10.39  2.88
