500
set: 392.00  0.00  0.00
Si -0.01 -0.06  0.00
Si  1.76  1.09  0.74
Si  0.03  0.00 -2.28
Si -0.04 -2.16  0.80
Si -1.94  1.01  0.77
Si  3.56  0.07 -0.08
Si -1.83 -1.10 -2.98
Si  1.83 -3.20  0.09
Si  0.12 -2.12  3.02
Si -1.90 -3.17 -0.00
Si -1.84  0.99  3.05
Si  1.86 -1.15 -2.99
Si  1.81  3.24 -0.00
Si  0.12  2.16 -3.02
Si -1.87  3.21  0.09
Si  1.87  1.04  3.06
Si -3.84  0.07 -0.08
Si -1.74  3.15 -2.17
Si  3.68 -2.02  0.69
Si -3.73 -2.02  0.69
Si -0.01  2.16  3.72
Si -1.74 -3.24 -2.27
Si  3.69  0.02 -2.33
Si  1.96  3.17 -2.27
Si -3.71  0.02 -2.33
Si  1.96 -3.26 -2.17
Si  1.96 -1.10  3.77
Si -1.74 -1.12  3.88
Si -0.03  4.39  0.69
Si -3.62 -2.08  2.97
Si  0.09 -4.22 -3.08
Si -3.62  2.19 -3.08
Si  3.79 -2.08  2.97
Si  0.09  4.33  2.97
Si  3.79  2.19 -3.08
Si  5.46  1.01  0.77
Si -0.04  2.12 -5.25
Si  3.66  4.25  0.80
Si  1.76 -1.13 -5.28
Si -3.68  2.14  3.76
Si  0.03 -4.27  3.76
Si  3.73  2.14  3.76
Si -1.95 -5.32  0.74
Si -3.75  4.25  0.80
Si  1.76 -5.40  0.77
Si -1.95 -1.05 -5.31
Si -5.65  1.09  0.74
Si  1.83  1.08 -5.96
Si -1.84  5.26 -2.99
Si -3.58 -4.25 -3.02
Si -0.14 -6.34 -0.08
Si -3.58  4.29  3.02
Si  5.51 -3.17 -0.00
Si -0.14  2.21  5.96
Si  1.87  5.31 -2.98
Si  1.81 -1.03  6.04
Si  5.53  3.21  0.09
Si -5.55 -1.15 -2.99
Si -5.53  1.04  3.06
Si  5.57 -1.10 -2.98
Si  5.56  0.99  3.05
Si -5.58 -3.20  0.09
Si -1.90  1.10 -6.05
Si -1.83 -5.37  3.06
Si -0.14 -2.07 -6.12
Si -5.60  3.24 -0.00
Si  3.82 -4.25 -3.02
Si -0.14  6.48 -0.08
Si  3.82  4.29  3.02
Si  1.86 -5.42  3.05
Si -1.87 -1.06  6.13
Si -5.44  3.17 -2.27
Si -5.44 -3.26 -2.17
Si -5.44 -1.10  3.77
Si -0.03  0.11  6.73
Si -1.74  5.31  3.77
Si  3.69 -4.26  3.72
Si -3.71 -4.26  3.72
Si -0.03 -4.16 -5.36
Si -0.01 -6.39 -2.33
Si  5.66  3.15 -2.17
Si -0.01  6.43 -2.33
Si  1.96  5.29  3.88
Si  3.68  2.25 -5.36
Si -3.73  2.25 -5.36
Si  5.66 -3.24 -2.27
Si  5.66 -1.12  3.88
Si  3.69  6.35  0.00
Si -3.71  6.35  0.00
Si -0.01  4.21 -6.04
Si  3.69  2.08  6.05
Si -3.71  2.08  6.05
Si  7.40 -0.06  0.00
Si -7.41 -0.06  0.00
Si  3.70 -2.20 -6.04
Si -3.71 -2.20 -6.04
Si -0.01 -4.33  6.05
Si  3.70 -6.47  0.00
Si -3.71 -6.47  0.00
Si  5.46 -5.32  0.74
Si  1.76  7.42  0.77
Si  5.46 -1.05 -5.31
Si  1.76 -3.18  6.78
Si  3.66 -4.30 -5.25
Si  1.76  3.15  6.81
Si  7.36 -2.16  0.80
Si -1.94  5.28 -5.28
Si -7.38  0.00 -2.28
Si -3.68 -6.41 -2.28
Si -3.68  6.41 -2.28
Si -3.75 -4.30 -5.25
Si  1.76  5.37 -5.31
Si -1.95  3.23  6.78
Si  3.66 -0.02  6.84
Si  3.73  6.41 -2.28
Si  3.73 -6.41 -2.28
Si  7.43  0.00 -2.28
Si -1.95  7.50  0.74
Si -7.45 -2.16  0.80
Si -1.94 -3.27  6.81
Si -3.75 -0.02  6.84
Si -5.64 -1.13 -5.28
Si -5.64 -5.40  0.77
Si  3.56 -4.20  5.96
Si -7.28 -2.12  3.02
Si -7.28  2.16 -3.02
Si -1.87 -5.33 -5.96
Si  1.86  7.40  3.05
Si  5.56  5.26 -2.99
Si -5.53  5.31 -2.98
Si -5.58  1.08 -5.96
Si -3.84 -4.20  5.96
Si  1.81 -5.31 -6.05
Si  5.51  1.10 -6.05
Si -1.83  7.45  3.06
Si  1.87 -7.51 -2.98
Si -5.60 -1.03  6.04
Si -1.90  5.38  6.04
Si  3.56  4.34 -6.12
Si  5.53 -1.06  6.13
Si  5.57 -5.37  3.06
Si -5.55 -5.42  3.05
Si -1.84 -7.56 -2.99
Si  1.83  5.35  6.13
Si  7.52 -2.12  3.02
Si  7.52  2.16 -3.02
Si -3.84  4.34 -6.12
Si -0.03 -8.44  0.69
Si  1.96  1.01 -8.21
Si -5.44  5.29  3.88
Si  7.40  2.16  3.72
Si -1.74  1.04 -8.32
Si -7.41  2.16  3.72
Si -1.74 -7.51  3.77
Si  7.38  4.39  0.69
Si  5.66  5.31  3.77
Si -0.01 -2.12 -8.37
Si -7.43  4.39  0.69
Si  1.96 -7.54  3.88
Si -7.32 -4.22 -3.08
Si  0.09 -8.50  2.97
Si -7.32  4.33  2.97
Si  0.09  0.05  9.01
Si  0.09  0.05 -9.12
Si  7.49 -4.22 -3.08
Si  0.09  8.60 -3.08
Si  7.49  4.33  2.97
Si  5.46  5.28 -5.28
Si  9.16  1.09  0.74
Si  7.36  2.12 -5.25
Si  5.46  3.23  6.78
Si  5.46  7.50  0.74
Si  5.46 -3.27  6.81
Si -7.38 -4.27  3.76
Si  1.76 -7.46 -5.31
Si  0.02  8.55  3.76
Si -3.68 -2.14 -8.33
Si -7.45  2.12 -5.25
Si  3.66 -8.57  0.80
Si -5.65  7.42  0.77
Si  7.43 -4.27  3.76
Si  0.03  4.27 -8.33
Si -0.04  6.39  6.84
Si  3.73 -2.14 -8.33
Si -5.65 -3.18  6.78
Si -3.75 -8.57  0.80
Si -5.65  3.15  6.81
Si -0.04 -6.43  6.84
Si -1.94 -7.54 -5.28
Si -5.65  5.37 -5.31
Si -9.35  1.01  0.77
Si  7.26 -6.34 -0.08
Si  7.26  2.21  5.96
Si  5.53 -5.33 -5.96
Si  7.26 -2.07 -6.12
Si -3.58 -8.53  3.02
Si  7.26  6.48 -0.08
Si -5.55  7.40  3.05
Si  1.86  3.12 -9.04
Si -1.83  3.18 -9.03
Si -3.58  0.02  9.06
Si -3.58  0.02 -9.07
Si -1.87  7.49 -5.96
Si  1.81 -9.58 -0.00
Si  9.21  3.24 -0.00
Si -9.23 -1.10 -2.98
Si -3.58  8.57 -3.02
Si  1.87 -3.23 -9.03
Si  9.23 -3.20  0.09
Si -1.90 -7.45  6.04
Si  5.51  5.38  6.04
Si -9.25  0.99  3.05
Si -1.87 -9.61  0.09
Si -1.84 -3.29 -9.04
Si -5.53 -7.51 -2.98
Si  1.86  3.13  9.10
Si  5.57  7.45  3.06
Si  1.83  9.63  0.09
Si  9.26 -1.15 -2.99
Si -5.60 -5.31 -6.05
Si  1.81  7.51 -6.05
Si -1.83  3.18  9.11
Si -9.28  3.21  0.09
Si  3.82 -8.53  3.02
Si  9.28  1.04  3.06
Si -9.30 -3.17 -0.00
Si -1.90  9.65 -0.00
Si  1.83 -7.47  6.13
Si  3.82  0.02  9.06
Si  3.82  0.02 -9.07
Si  1.87 -3.23  9.11
Si -1.84 -3.29  9.10
Si  5.56 -7.56 -2.99
Si -7.54 -6.34 -0.08
Si  3.82  8.57 -3.02
Si -5.58  5.35  6.13
Si -7.54  2.21  5.96
Si -5.44  1.01 -8.21
Si -9.14  3.15 -2.17
Si  3.67 -6.30  6.73
Si -7.54 -2.07 -6.12
Si -3.73 -6.30  6.73
Si -7.54  6.48 -0.08
Si -9.14 -3.24 -2.27
Si -1.74 -5.40 -8.21
Si  7.38  0.11  6.73
Si -0.01 -2.12  9.76
Si -9.14 -1.12  3.88
Si  1.96  9.56 -2.17
Si -1.74  9.59 -2.27
Si -1.74  1.04  9.81
Si  7.38 -4.16 -5.36
Si -7.43  0.11  6.73
Si  3.69  8.57  3.72
Si  7.40 -6.39 -2.33
Si -3.71  8.57  3.72
Si -7.41 -6.39 -2.33
Si -7.43 -4.16 -5.36
Si -1.74 -9.67 -2.17
Si  3.67  6.52  6.73
Si -5.44 -7.54  3.88
Si  7.40  6.43 -2.33
Si -7.41  6.43 -2.33
Si -3.73  6.52  6.73
Si  1.96 -5.38 -8.32
Si  3.69  4.29 -8.37
Si  1.96 -9.65 -2.27
Si -3.71  4.29 -8.37
Si  5.66  1.04 -8.32
Si  5.66 -7.51  3.77
Si  9.37  3.17 -2.27
Si  9.37 -3.26 -2.17
Si  9.37 -1.10  3.77
Si  1.96  1.01  9.92
Si -0.03  8.66 -5.36
Si -0.01  8.49  6.05
Si  7.40  4.21 -6.04
Si -7.41  4.21 -6.04
Si  7.40 -4.33  6.05
Si -7.41 -4.33  6.05
Si -0.01 -8.61 -6.04
Si  9.16 -1.13 -5.28
Si  3.66  8.53 -5.25
Si  9.16 -5.40  0.77
Si -3.68 -2.14  9.81
Si -3.75  8.53 -5.25
Si -0.04 10.66  0.80
Si  0.02  4.28  9.81
Si  5.46 -7.54 -5.28
Si  3.73 -2.14  9.81
Si -5.65 -7.46 -5.31
Si -9.35 -5.32  0.74
Si -9.35 -1.05 -5.31
Si 10.97  0.07 -0.08
Si  9.23  1.08 -5.96
Si  3.56 -8.48 -6.12
Si  5.53  7.49 -5.96
Si -5.55  3.12 -9.04
Si -9.25  5.26 -2.99
Si  5.51 -7.45  6.04
Si  9.21 -1.03  6.04
Si -5.53 -3.23 -9.03
Si  3.56  8.62  5.96
Si  5.57  3.18 -9.03
Si  5.53 -9.61  0.09
Si  0.12 -10.67 -3.02
Si  0.12 -6.39  9.06
Si  0.12 -6.39 -9.07
Si  9.28  5.31 -2.98
Si -5.60 -9.58 -0.00
Si -5.55  3.13  9.10
Si  5.56 -3.29 -9.04
Si  5.51  9.65 -0.00
Si -9.23 -5.37  3.06
Si  0.12  6.43  9.06
Si  0.12  6.43 -9.07
Si  0.12 10.71  3.02
Si -5.58  9.63  0.09
Si -5.53 -3.23  9.11
Si  5.57  3.18  9.11
Si -3.84 -8.48 -6.12
Si -9.30  1.10 -6.05
Si -5.60  7.51 -6.05
Si  5.56 -3.29  9.10
Si -5.58 -7.47  6.13
Si  9.26 -5.42  3.05
Si -3.84  8.62  5.96
Si -9.28 -1.06  6.13
Si -1.74  7.42 -8.21
Si -5.44  9.56 -2.17
Si -9.14  5.31  3.77
Si  7.38 -8.44  0.69
Si -11.25  0.07 -0.08
Si -7.43 -8.44  0.69
Si 11.08 -2.02  0.69
Si  3.69  4.29  9.76
Si -3.71  4.29  9.76
Si -0.01 -10.67  3.72
Si -5.44 -5.38 -8.32
Si -5.44 -9.65 -2.27
Si  1.96  7.45 -8.32
Si -11.13 -2.02  0.69
Si 11.10  0.02 -2.33
Si  5.66 -5.40 -8.21
Si -11.11  0.02 -2.33
Si -5.44  1.01  9.92
Si  1.96 -5.38  9.81
Si  5.66  9.59 -2.27
Si  7.40 -2.12 -8.37
Si -7.41 -2.12 -8.37
Si  5.66  1.04  9.81
Si -0.03  0.11 -11.40
Si  5.66 -9.67 -2.17
Si -1.74 -5.40  9.92
Si  3.67 10.80  0.69
Si  9.37  5.29  3.88
Si -3.73 10.80  0.69
Si -7.32 -8.50  2.97
Si -11.02 -2.08  2.97
Si -3.62 -6.36  9.01
Si -7.32  0.05  9.01
Si -3.62 -10.63 -3.08
Si -11.02  2.19 -3.08
Si  3.79 -6.36  9.01
Si -3.62  6.46  9.01
Si -3.62 -6.36 -9.12
Si -7.32  0.05 -9.12
Si  3.79 -10.63 -3.08
Si -7.32  8.60 -3.08
Si  7.49 -8.50  2.97
Si -3.62 10.74  2.97
Si  7.49  0.05  9.01
Si  3.79  6.46  9.01
Si  3.79 -6.36 -9.12
Si -3.62  6.46 -9.12
Si 11.19 -2.08  2.97
Si  3.79 10.74  2.97
Si  7.49  0.05 -9.12
Si  3.79  6.46 -9.12
Si 11.19  2.19 -3.08
Si  7.49  8.60 -3.08
Si  9.16  7.42  0.77
Si  9.16 -3.18  6.78
Si  9.16  3.15  6.81
Si  3.66 -0.02 -11.29
Si  9.16  5.37 -5.31
Si 11.06  4.25  0.80
Si  1.76  3.15 -11.32
Si  1.76 -11.73  0.74
Si -3.75 -0.02 -11.29
Si -11.08  2.14  3.76
Si -1.94  9.56  6.81
Si -7.38  8.55  3.76
Si -1.95 -9.59  6.78
Si  7.36  6.39  6.84
Si -3.68 -10.69  3.76
Si  1.75  9.64  6.78
Si -7.38  4.27 -8.33
Si  1.76 -3.18 -11.35
Si -0.04 -10.71 -5.25
Si  3.73 -10.69  3.76
Si  7.36 -6.43  6.84
Si  7.43  8.55  3.76
Si  0.03 -8.55 -8.33
Si 11.13  2.14  3.76
Si -1.94 -3.27 -11.32
Si  7.43  4.27 -8.33
Si -11.15  4.25  0.80
Si -1.95  3.23 -11.35
Si  1.76 -9.68  6.81
Si -7.45  6.39  6.84
Si -9.35  5.28 -5.28
Si -7.45 -6.43  6.84
Si -9.35  3.23  6.78
Si -1.94 -11.81  0.77
Si -9.35  7.50  0.74
Si -9.35 -3.27  6.81
Si -10.99 -4.25 -3.02
Si -10.99  4.29  3.02
Si -0.14 -10.62  5.96
Si -0.14 -2.07 12.01
Si  1.86 11.67 -2.99
Si -1.87 -1.06 -12.00
Si  9.21 -5.31 -6.05
Si -1.83 11.73 -2.98
Si  9.26  7.40  3.05
Si -9.28 -5.33 -5.96
Si -9.23  7.45  3.06
Si  1.81 -1.04 -12.09
Si -1.90  1.10 12.08
Si  9.28 -7.51 -2.98
Si  9.23  5.35  6.13
Si -9.25 -7.56 -2.99
Si  1.87 -11.78  3.06
Si -9.30  5.38  6.04
Si  1.83  1.08 12.18
Si -1.84 -11.84  3.05
Si -0.14  2.21 -12.17
Si -0.14 10.76 -6.12
Si 11.23 -4.25 -3.02
Si 11.23  4.29  3.02
Si -9.14  1.04 -8.32
Si  3.68 -10.57 -5.36
Si -9.14 -7.51  3.77
Si -5.44  7.45 -8.32
Si -3.73 -10.57 -5.36
Si  7.40 -2.12  9.76
Si  5.66  7.42 -8.21
Si -7.41 -2.12  9.76
Si -5.44 -5.38  9.81
Si -1.74 11.70  3.88
Si 11.10 -4.26  3.72
Si -11.11 -4.26  3.72
Si  1.96 11.72  3.77
Si  1.96  7.45  9.81
Si  9.37  1.01 -8.21
Si  3.69 -8.53 -8.37
Si 11.08  2.25 -5.36
Si -1.74  7.42  9.92
Si -3.71 -8.53 -8.37
Si -11.13  2.25 -5.36
Si  7.38  8.66 -5.36
Si -7.43  8.66 -5.36
Si  9.37 -7.54  3.88
Si  5.66 -5.40  9.92
Si -0.01 12.76  0.00
Si  3.70 10.62 -6.04
Si -3.71 10.62 -6.04
Si  7.40  8.49  6.05
Si 11.10  6.35  0.00
Si -7.41  8.49  6.05
Si -11.11  6.35  0.00
Si -0.01  4.21 12.09
Si  3.70  2.08 -12.09
Si 11.10  2.08  6.05
Si -3.71  2.08 -12.09
Si -11.11  2.08  6.05
Si 11.10 -2.20 -6.04
Si  3.69 -2.20 12.09
Si -3.71 -2.20 12.09
Si -11.11 -2.20 -6.04
Si -0.01 -4.34 -12.09
Si 11.10 -6.47  0.00
Si -11.11 -6.47  0.00
Si  7.40 -8.61 -6.04
Si -7.41 -8.61 -6.04
Si  3.70 -10.75  6.05
Si -3.71 -10.75  6.05
Si -0.01 -12.88  0.00
Si 12.87  1.01  0.77
Si  5.46  9.56  6.81
Si  9.16 -7.46 -5.31
Si  1.76 11.70 -5.28
Si  5.46 -9.59  6.78
Si -0.04  6.39 -11.29
Si 11.06 -4.30 -5.25
Si  7.36 10.66  0.80
Si  5.46 -3.27 -11.32
Si -0.04 -6.43 -11.29
Si -7.38  4.28  9.81
