500
set: 186.00  0.00  0.00
Si  0.00  0.00  0.00
Si  1.89  1.08  0.77
Si -1.89  1.09  0.77
Si -0.01 -2.19  0.78
Si -0.01 -0.00 -2.32
Si  1.88  1.09  3.09
Si -3.78  0.00 -0.00
Si -1.89 -1.10 -3.08
Si  1.88 -1.09 -3.09
Si -1.89 -3.27 -0.00
Si -1.88  1.09  3.10
Si -1.90  3.27  0.00
Si  0.00  2.18 -3.09
Si  1.89  3.28 -0.00
Si -0.01 -2.19  3.10
Si  3.79  0.00 -0.00
Si  1.90 -3.29 -0.01
Si  0.00  2.18  3.86
Si -1.89 -3.28 -2.31
Si  1.90  3.27 -2.32
Si  1.90 -1.09  3.86
Si  0.01  4.37  0.77
Si  3.78 -2.19  0.78
Si  1.90 -3.28 -2.32
Si  3.78  0.00 -2.32
Si -1.88 -1.09  3.87
Si -1.89  3.28 -2.32
Si -3.79 -0.01 -2.33
Si -3.80 -2.18  0.78
Si -3.78 -2.18  3.08
Si  3.79  2.19 -3.08
Si  0.00  4.37  3.09
Si -3.78  2.20 -3.09
Si -0.00 -4.38 -3.09
Si  3.79 -2.18  3.10
Si  1.89 -5.46  0.78
Si -0.01  2.19 -5.40
Si -5.68  1.09  0.77
Si  3.79  2.19  3.86
Si -3.78  2.19  3.87
Si -0.01 -4.37  3.87
Si  1.90 -1.09 -5.41
Si  5.68  1.09  0.77
Si -1.89 -5.47  0.78
Si  3.79  4.37  0.78
Si -1.89 -1.09 -5.42
Si -3.79  4.38  0.78
Si -1.89 -5.46  3.09
Si  1.88 -1.10  6.18
Si  5.67  3.28 -0.00
Si  1.89 -5.46  3.09
Si  0.00  6.55  0.01
Si  1.88  5.46 -3.10
Si -0.01 -6.55 -0.00
Si -1.89  5.46 -3.09
Si  5.67  1.10  3.09
Si  0.00  2.18  6.18
Si -5.68 -1.10 -3.09
Si -0.00 -2.18 -6.18
Si -5.68 -3.28  0.01
Si -1.89 -1.09  6.18
Si -3.79  4.38  3.09
Si  3.79 -4.37 -3.09
Si  1.89  1.10 -6.18
Si -5.68  1.10  3.09
Si -1.89  1.10 -6.18
Si  5.68 -3.28  0.01
Si  5.68 -1.10 -3.09
Si  3.79  4.38  3.09
Si -5.69  3.28 -0.00
Si -3.79 -4.38 -3.10
Si  3.78 -4.36  3.86
Si -5.67 -1.09  3.87
Si  0.01 -4.37 -5.41
Si -5.68 -3.28 -2.32
Si  0.00 -6.55 -2.32
Si  0.00  6.56 -2.32
Si -3.79  2.19 -5.40
Si  1.88  5.46  3.87
Si  0.00 -0.00  6.96
Si -5.68  3.28 -2.32
Si  3.78  2.19 -5.41
Si  5.68  3.28 -2.32
Si  5.68 -3.28 -2.32
Si -1.90  5.47  3.86
Si  5.69 -1.09  3.87
Si -3.79 -4.37  3.87
Si -3.78  6.55 -0.01
Si -7.57  0.00 -0.00
Si -0.01  4.37 -6.18
Si -3.79 -6.55 -0.00
Si  0.00 -4.38  6.18
Si  3.78 -6.56  0.00
Si  3.79 -2.19 -6.18
Si  3.79  6.56 -0.00
Si -3.79  2.18  6.18
Si  3.79  2.18  6.19
Si  7.58  0.00 -0.00
Si -3.80 -2.19 -6.19
Si  7.56 -2.18  0.78
Si  1.89  3.27  6.95
Si -1.88  5.47 -5.40
Si -5.67 -5.46  0.77
Si -1.89 -3.28  6.95
Si -1.90  3.28  6.95
Si  3.80 -4.37 -5.40
Si -1.90  7.65  0.78
Si -3.78  0.00  6.95
Si  3.79  6.56 -2.31
Si  1.88  7.65  0.78
Si  7.57 -0.01 -2.33
Si -5.67 -1.10 -5.41
Si  3.79 -6.56 -2.32
Si -3.78  6.56 -2.32
Si -3.78 -4.37 -5.41
Si -3.78 -6.56 -2.32
Si  1.90  5.46 -5.41
Si  1.90 -3.28  6.96
Si -7.57  0.00 -2.32
Si -7.58 -2.19  0.78
Si  3.79  0.00  6.96
Si  5.68 -1.10 -5.41
Si  5.69 -5.46  0.77
Si  1.90 -7.64 -3.09
Si -1.89 -5.46 -6.18
Si -7.56 -2.18  3.10
Si -3.78 -4.36  6.18
Si -1.89 -7.65 -3.08
Si  5.68  5.46 -3.09
Si -5.68  5.46 -3.09
Si -5.67  1.09 -6.18
Si -7.57  2.19 -3.08
Si  7.58 -2.18  3.08
Si -5.67 -5.47  3.09
Si  5.68  1.09 -6.18
Si  3.79  4.38 -6.18
Si  5.68 -1.10  6.19
Si  1.90  7.66  3.08
Si  1.90 -5.46 -6.19
Si  3.79 -4.37  6.19
Si -5.68 -1.10  6.19
Si  5.68 -5.47  3.09
Si -1.89  7.66  3.10
Si  7.58  2.20 -3.09
Si -1.89  5.47  6.19
Si -3.78  4.38 -6.19
Si  1.90  5.48  6.18
Si  1.89  1.10 -8.49
Si -1.89 -7.65  3.86
Si -7.57  4.37  0.78
Si -1.89  1.09 -8.50
Si  5.66  5.47  3.87
Si -7.57  2.19  3.86
Si  1.90 -7.65  3.87
Si  0.00 -8.74  0.77
Si  7.57  4.38  0.78
Si  7.58  2.19  3.87
Si  0.00 -2.19 -8.51
Si -5.69  5.47  3.87
Si  0.00  8.73 -3.09
Si -0.00 -8.74  3.09
Si -7.57 -4.37 -3.09
Si  7.56 -4.38 -3.10
Si  7.57  4.38  3.09
Si -0.01  0.00 -9.28
Si -7.57  4.38  3.09
Si  0.00 -0.00  9.28
Si  7.56  2.19 -5.40
Si  5.67  3.28  6.95
Si -5.67  5.47 -5.41
Si  1.88 -7.65 -5.40
Si  7.56 -4.37  3.87
Si  5.67  7.65  0.78
Si -1.90 -7.64 -5.41
Si -5.68 -3.28  6.95
Si -0.01 -6.56  6.95
Si -7.57 -4.36  3.86
Si -0.01  4.37 -8.50
Si  5.68 -3.28  6.95
Si  9.46  1.09  0.77
Si -9.46  1.08  0.77
Si -5.68  3.28  6.95
Si  0.00  6.56  6.95
Si  0.01  8.74  3.87
Si  3.79 -2.19 -8.50
Si -5.68  7.65  0.78
Si  5.69  5.47 -5.41
Si -7.57  2.19 -5.41
Si  3.79 -8.75  0.77
Si -3.79 -8.75  0.77
Si -3.79 -2.19 -8.51
Si  5.67 -5.46 -6.18
Si -1.88  7.64 -6.18
Si -7.56 -2.19 -6.18
Si -5.68  5.46  6.18
Si  7.56  2.18  6.18
Si -3.78 -0.01  9.27
Si  9.46  3.27  0.00
Si  3.79  8.74 -3.08
Si  7.56 -2.19 -6.19
Si  5.67  7.65  3.10
Si  5.68  5.46  6.18
Si  3.78 -0.01 -9.27
Si  7.57 -6.55 -0.00
Si -7.57  2.18  6.19
Si  1.88  7.65 -6.19
Si -1.89 -9.84 -0.00
Si -1.89  3.28  9.27
Si  7.58  6.55 -0.01
Si  1.89 -3.27  9.27
Si  9.46 -3.27 -0.00
Si -9.46 -3.29 -0.01
Si  1.90 -9.83 -0.00
Si  3.79  0.00  9.27
Si -1.89 -3.28 -9.28
Si  1.88 -7.65  6.18
Si -1.89  9.84 -0.00
Si  1.90 -3.28 -9.27
Si -3.79  0.00 -9.27
Si -3.79  8.74 -3.09
Si -9.47  3.28 -0.00
Si  1.90  3.28  9.27
Si -1.89  3.28 -9.28
Si -5.69 -5.46 -6.18
Si  1.90  3.27 -9.28
Si -7.57  6.56 -0.00
Si -5.68 -7.66 -3.09
Si -1.90 -3.28  9.28
Si  1.90  9.84 -0.00
Si  9.47 -1.10 -3.08
Si -7.58 -6.56  0.00
Si -3.80 -8.75  3.09
Si -1.89 -7.66  6.19
Si  5.68 -7.66 -3.09
Si -9.47 -1.09 -3.09
Si -9.48  1.09  3.09
Si -5.69  7.65  3.10
Si  9.47  1.09  3.10
Si  3.79 -8.75  3.10
Si -7.56 -4.37 -5.40
Si  1.88 -5.46 -8.49
Si  1.89  9.83 -2.33
Si  3.78 -6.56  6.95
Si  3.78  4.37 -8.50
Si -9.46  3.27 -2.32
Si -9.46 -1.09  3.86
Si  0.01 -2.19 10.04
Si -3.78  6.55  6.96
Si -3.78  8.74  3.86
Si  3.79  6.56  6.95
Si  0.00  8.74 -5.41
Si  9.46 -3.28 -2.31
Si -9.46 -3.28 -2.32
Si -5.67  1.09 -8.51
Si -1.90 -5.47 -8.50
Si -3.80  4.37 -8.49
Si -3.79 -6.57  6.95
Si -7.57  6.56 -2.31
Si -1.90 -9.84 -2.32
Si -5.67 -7.66  3.86
Si  7.57  0.00  6.95
Si -7.57 -6.56 -2.32
Si  9.46  3.28 -2.32
Si  7.57  6.56 -2.32
Si -1.90  9.84 -2.32
Si -1.90  1.09 10.05
Si -7.57  0.00  6.96
Si  7.58 -4.37 -5.41
Si  5.68 -7.66  3.86
Si  7.58 -6.56 -2.32
Si  1.88  1.10 10.05
Si  1.89 -9.84 -2.33
Si  3.80  8.74  3.87
Si  5.69  1.09 -8.51
Si  9.47 -1.09  3.87
Si -7.56  4.38 -6.18
Si -0.00  8.74  6.19
Si  7.58 -4.36  6.18
Si  0.00 -8.75 -6.18
Si -7.57 -4.37  6.19
Si  7.58  4.38 -6.19
Si  5.66 -7.64 -5.40
Si  0.00  4.37 10.04
Si -9.46 -1.09 -5.41
Si -9.46 -5.46  0.78
Si  0.00 10.93  0.77
Si -3.78  8.74 -5.41
Si -5.69 -7.64 -5.40
Si  9.46 -1.09 -5.42
Si -3.79 -2.18 10.05
Si  3.79 -2.19 10.05
Si  3.79  8.75 -5.42
Si  9.47 -5.47  0.78
Si -5.68  3.27 -9.27
Si  5.67 -3.27  9.27
Si  5.68  3.27 -9.27
Si -5.68 -9.83  0.00
Si  3.79 -8.74 -6.18
Si  9.46 -5.46  3.09
Si -11.36  0.00  0.00
Si  0.00 -6.56 -9.27
Si -5.68 -3.27 -9.27
Si -3.79  8.74  6.18
Si  0.00 -6.55  9.27
Si  5.68 -9.83  0.00
Si -9.47 -5.46  3.09
Si -3.79 -8.74 -6.18
Si -5.68  3.28  9.27
Si  5.68 -3.27 -9.27
Si -0.01  6.56  9.27
Si -5.69 -3.27  9.27
Si  9.46  1.10 -6.18
Si -5.68  9.84  0.00
Si  0.00  6.56 -9.27
Si  5.68  3.28  9.27
Si  3.79  8.74  6.18
Si 11.36  0.00  0.00
Si  5.67  7.66 -6.18
Si -9.47  1.10 -6.18
Si  9.47  5.46 -3.09
Si -5.68 -7.66  6.18
Si -0.00 10.93  3.09
Si  5.68  9.84  0.00
Si  5.68 -7.66  6.18
Si -9.47 -1.10  6.18
Si  9.47 -1.09  6.18
Si -5.68  7.66 -6.18
Si -9.47  5.46 -3.10
Si  0.00 -10.94 -3.09
Si -3.79  4.36 10.04
Si -3.79 10.92  0.77
Si  3.79 10.92  0.77
Si 11.35 -2.19  0.78
Si  3.79  4.37 10.04
Si  5.67 -5.46 -8.50
Si 11.35 -0.00 -2.32
Si -1.89  7.64 -8.50
Si  5.67  9.84 -2.32
Si  5.67  1.09 10.05
Si  1.89 -5.47 10.04
Si  1.89  7.64 -8.51
Si  0.01 -10.93  3.87
Si  5.67 -9.84 -2.32
Si  9.46  5.47  3.86
Si -1.89 -5.47 10.04
Si  0.00  0.00 -11.59
Si -5.68 -5.46 -8.50
Si -5.68  9.84 -2.32
Si -7.57 -2.19 -8.50
Si -5.68 -9.84 -2.32
Si -5.68  1.09 10.05
Si -7.57 -8.75  0.77
Si  7.57 -8.75  0.77
Si -11.36 -0.00 -2.32
Si  7.57 -2.19 -8.51
Si -11.36 -2.19  0.78
Si -9.47  5.46  3.87
Si -7.57  8.74 -3.08
Si 11.35 -2.19  3.10
Si  7.56  8.74 -3.09
Si  7.56 -8.75  3.09
Si -3.78 -6.55  9.27
Si -11.35  2.18 -3.09
Si  3.78  6.55  9.28
Si  3.79 10.92  3.10
Si -3.80 10.92  3.09
Si  3.79 -6.55 -9.28
Si  7.58 -0.01  9.27
Si -7.57  0.00  9.27
Si  3.79 -6.56  9.27
Si -3.78  6.56 -9.27
Si  7.57  0.00 -9.27
Si -7.56 -8.75  3.10
Si -7.58 -0.01 -9.27
Si -3.79  6.56  9.27
Si 11.36  2.18 -3.09
Si  3.79  6.56 -9.28
Si -3.79 -10.93 -3.09
Si  3.79 -10.94 -3.08
Si -3.78 -6.57 -9.28
Si -11.37 -2.19  3.10
Si  7.56  4.37 -8.49
Si -11.35  4.37  0.77
Si -11.35  2.18  3.86
Si  1.88 -12.02  0.78
Si -9.47  3.27  6.95
Si  9.46  3.28  6.95
Si -1.89  3.28 -11.59
Si  9.46 -3.28  6.95
Si  9.46  7.65  0.78
Si -7.57 -6.56  6.95
Si -7.56  8.74  3.87
Si  7.57 -6.57  6.95
Si -7.57  6.56  6.95
Si -3.78 -0.00 -11.59
Si -7.58  4.37 -8.50
Si -3.78 -10.93  3.86
Si  1.90 -9.84  6.95
Si -9.46 -3.28  6.96
Si -9.46  5.46 -5.41
Si  7.58  8.74  3.86
Si  7.58  6.55  6.96
Si  1.90  9.84  6.95
Si  1.90  3.28 -11.59
Si 11.36  2.18  3.86
Si -1.89 -9.84  6.96
Si -1.90 -12.02  0.78
Si  0.01 -8.74 -8.51
Si  3.80 -10.93  3.87
Si -1.89  9.84  6.96
Si  3.79  0.00 -11.60
Si  9.47  5.47 -5.40
Si -1.90 -3.28 -11.60
Si  0.00 -10.93 -5.41
Si 11.37  4.37  0.77
Si  1.89 -3.29 -11.60
Si -9.48  7.65  0.78
Si -9.46 -7.64 -3.09
Si  1.90  1.10 12.36
Si -1.89 -1.09 -12.36
Si  1.90 -12.02  3.08
Si -1.89 -12.01  3.10
Si -0.00  2.18 -12.36
Si  9.46 -7.65 -3.08
Si -11.35  4.37  3.09
Si  0.00 10.93 -6.18
Si -9.46  7.66  3.08
Si  1.90 -1.08 -12.36
Si -9.46 -5.46 -6.19
Si 11.36 -4.38 -3.09
Si  9.47 -5.46 -6.18
Si -11.36 -4.38 -3.09
Si -1.89 12.03 -3.08
Si  0.00 -2.19 12.37
Si -9.46  5.48  6.18
Si 11.36  4.37  3.09
Si -1.89  1.10 12.37
Si  9.46  5.47  6.19
Si -0.00 -10.93  6.19
Si  9.47  7.66  3.10
Si  1.90 12.03 -3.09
Si 11.34  2.19 -5.40
Si 11.34 -4.37  3.87
Si -3.79 -8.73 -8.49
Si -5.68 -5.47 10.04
Si -9.46 -7.65  3.87
Si  5.68 -5.47 10.04
Si -3.78 -10.93 -5.41
Si -9.46  1.10 -8.49
Si  9.46 -7.65  3.86
Si  3.79 -10.93 -5.42
Si -7.57 -2.19 10.05
Si -1.89  7.65 10.05
Si  3.79 -8.75 -8.50
Si -1.89 12.03  3.86
Si  9.47  1.09 -8.50
Si -5.68  7.65 -8.51
Si  1.90 12.02  3.87
Si  7.57 -2.18 10.05
Si  7.58  8.74 -5.41
Si -7.57  8.75 -5.42
Si  5.68  7.65 -8.51
Si  1.89  7.66 10.05
Si -11.37  2.19 -5.40
Si -11.37 -4.37  3.87
Si  7.56  8.74  6.18
Si 11.35 -6.55 -0.00
Si -7.57 -8.74 -6.18
Si -11.36  2.18  6.18
Si -11.36  6.55  0.01
Si  3.79 -2.18 12.36
Si 11.35 -2.18 -6.18
Si -3.79 -2.18 12.36
Si -7.57  8.74  6.18
Si  7.57 -8.74 -6.18
Si  3.79  2.19 -12.36
Si 11.36  6.55  0.01
Si -0.00  4.38 12.36
Si 11.36  2.18  6.18
Si  0.00 -4.38 -12.37
Si -11.36 -2.18 -6.18
Si  3.79 -10.93  6.18
Si -0.01 13.12 -0.00
Si -3.79 -10.93  6.18
Si  0.00 -13.12  0.01
Si -3.79 10.93 -6.18
Si -11.37 -6.55 -0.00
Si -3.79  2.18 -12.37
Si  3.79 10.94 -6.18
Si -11.35 -4.37 -5.41
Si  7.57  4.36 10.04
Si  7.57 10.92  0.77
Si -7.57 10.92  0.77
Si  9.46 -7.64 -5.41
Si  1.88 12.02 -5.40
Si -7.57  4.37 10.04
Si -11.35  6.56 -2.32
Si -11.35 -0.00  6.96
Si -5.68  9.83  6.96
Si -5.68  3.28 -11.59
