500
set: 158.00  0.00  0.00
Si -0.05  0.03 -0.03
Si  0.06 -2.07  0.74
Si  1.77  1.06  0.78
Si -0.07 -0.05 -2.23
Si -1.83  1.07  0.83
Si  0.12  2.05 -2.85
Si  1.81 -3.05 -0.18
Si -1.73 -3.12  0.06
Si -3.58 -0.04  0.03
Si  1.77 -1.06 -2.94
Si  3.61  0.03 -0.02
Si  1.75  1.03  3.02
Si  0.12 -2.14  2.96
Si -1.79  3.19  0.03
Si  1.87  3.15  0.11
Si -1.83  1.03  3.03
Si -1.95 -1.03 -2.98
Si -1.72 -3.08 -2.16
Si -1.75  3.07 -2.20
Si  3.57 -2.06  0.69
Si -1.73 -1.11  3.64
Si  3.58  0.02 -2.25
Si -3.61 -2.13  0.75
Si  1.95  3.14 -2.13
Si -3.68  0.04 -2.18
Si  0.00  4.26  0.67
Si -0.07  2.16  3.75
Si  1.86 -1.04  3.77
Si  1.95 -3.22 -2.37
Si -0.04  4.17  2.86
Si -3.59 -2.07  2.93
Si  3.63 -2.08  2.90
Si  0.01 -4.17 -3.01
Si -3.62  2.12 -3.01
Si  3.72  2.12 -3.02
Si  1.81 -5.11  0.70
Si -0.03  2.07 -5.08
Si  3.57  2.11  3.62
Si -5.42  0.98  0.69
Si  1.78 -0.93 -5.17
Si -1.76 -5.26  0.69
Si -3.69  2.09  3.68
Si -1.77 -1.15 -5.20
Si  5.49  0.96  0.73
Si -0.04 -4.18  3.77
Si -3.69  4.21  0.72
Si  3.72  4.25  0.74
Si -3.52 -4.12 -2.91
Si -5.36  3.05 -0.02
Si  5.34  1.03  2.93
Si  5.38 -1.10 -2.88
Si -1.85 -1.03  5.83
Si  1.75 -5.20  2.92
Si -1.86  5.16 -2.92
Si -1.82  0.96 -5.87
Si -1.81 -5.22  2.90
Si -5.45 -1.05 -2.86
Si  1.81  5.19 -2.98
Si  5.42 -3.12  0.11
Si  5.47  3.06  0.01
Si  0.09 -6.27 -0.06
Si -5.41 -3.18 -0.05
Si -3.67  4.19  2.97
Si  0.06 -2.09 -5.96
Si -5.52  1.02  2.90
Si  1.74 -1.01  6.00
Si  3.66  4.25  2.95
Si -0.00  6.35 -0.02
Si  0.06  2.19  5.97
Si  1.74  1.17 -6.04
Si  3.80 -4.30 -3.00
Si  3.61 -4.19  3.58
Si  0.02  6.22 -2.22
Si -3.59 -4.20  3.64
Si  1.78  5.19  3.72
Si  5.44 -1.09  3.62
Si -0.08  0.07  6.63
Si -5.39  3.20 -2.22
Si -5.41 -3.15 -2.24
Si -1.82  5.18  3.75
Si  5.43  3.16 -2.20
Si -0.03 -6.26 -2.27
Si -5.41 -1.06  3.74
Si -0.04 -4.17 -5.23
Si -3.65  2.03 -5.23
Si  3.56  2.16 -5.26
Si  5.53 -3.21 -2.10
Si -3.65 -6.20 -0.04
Si -0.04  4.18 -5.86
Si  3.64 -6.22  0.05
Si  3.65  2.12  5.84
Si  3.56 -2.05 -5.94
Si -7.22 -0.12 -0.01
Si  7.26 -0.12 -0.01
Si -3.68  2.13  5.89
Si -3.59 -2.06 -5.99
Si -3.61  6.33  0.05
Si -0.04 -4.19  5.97
Si  3.59  6.35 -0.04
Si -5.37 -1.02 -5.06
Si -3.62 -4.14 -5.12
Si  5.42 -1.16 -5.09
Si -7.17 -2.16  0.79
Si -3.65  6.23 -2.15
Si  1.79 -3.12  6.63
Si  7.22 -0.04 -2.20
Si -3.66 -6.21 -2.25
Si -3.67 -0.01  6.62
Si  5.44 -5.20  0.81
Si -5.44 -5.21  0.85
Si  3.60 -6.32 -2.15
Si  3.58 -4.19 -5.21
Si -7.27 -0.04 -2.20
Si  1.79  5.25 -5.20
Si -1.90  5.26 -5.15
Si  1.80  7.34  0.85
Si -1.90 -3.10  6.68
Si -1.82  3.02  6.74
Si -1.80  7.35  0.81
Si  3.58  6.33 -2.25
Si  3.62  0.04  6.70
Si  7.32 -2.16  0.79
Si  1.87  3.17  6.77
Si  5.34  0.97 -5.82
Si  3.59 -4.11  5.80
Si -7.17  2.07 -2.86
Si  5.38 -1.02  5.86
Si  1.80 -7.25 -2.94
Si -3.61 -4.19  5.86
Si -7.17 -2.16  3.02
Si  5.37  5.23 -3.00
Si  1.72  5.20  5.94
Si -1.80  7.27  3.02
Si  1.79 -5.24 -5.89
Si  1.79  7.30  3.03
Si  7.31  2.07 -2.86
Si -1.87 -7.32 -3.00
Si -3.62  4.17 -5.97
Si -1.86 -5.20 -5.97
Si -5.46 -1.06  5.94
Si -1.91  5.15  6.01
Si -5.53  1.02 -5.89
Si -5.45 -5.25  3.03
Si -5.45  5.30 -2.94
Si  5.44 -5.28  3.02
Si  7.32 -2.16  3.02
Si  3.59  4.26 -6.03
Si -7.17  4.10  0.62
Si  7.18  2.13  3.65
Si -1.76 -7.25  3.72
Si  1.77 -7.33  3.58
Si -1.76  1.12 -8.11
Si -5.48  5.22  3.58
Si  7.31  4.10  0.62
Si -0.07 -2.05 -8.18
Si -7.31  2.13  3.65
Si  0.07 -8.45  0.62
Si  5.48  5.30  3.72
Si  1.77  1.04 -8.25
Si  7.17  4.18  2.85
Si -0.07 -8.36  2.85
Si  0.07 -0.04  8.84
Si -7.18 -4.22 -2.99
Si  0.07  8.33 -2.99
Si -7.32  4.18  2.85
Si  7.31 -4.22 -2.99
Si -0.07  0.00 -8.98
Si  7.15  2.09 -5.08
Si -3.52 -8.30  0.74
Si  5.42 -3.11  6.59
Si -0.04  4.19 -8.06
Si -9.00  0.96  0.73
Si  3.56 -8.34  0.72
Si  5.47  3.04  6.63
Si -5.41  5.21 -5.18
Si -5.41 -3.15  6.65
Si  3.56 -2.10 -8.15
Si  5.48  7.28  0.69
Si  0.01  8.32  3.79
Si  9.07  0.98  0.69
Si -7.33  2.09 -5.08
Si  1.83 -7.33 -5.18
Si -1.82 -7.29 -5.24
Si  5.42  5.26 -5.24
Si -7.23 -4.23  3.79
Si -5.46  3.26  6.65
Si  7.25 -4.23  3.79
Si -0.09  6.27  6.75
Si -3.67 -2.08 -8.21
Si -0.03 -6.30  6.75
Si -5.44  7.44  0.70
Si  1.74 -7.19  5.79
Si -3.45  8.25 -3.00
Si -7.18 -1.99 -5.86
Si -3.45 -0.12  8.83
Si  8.97  1.02  2.90
Si -3.58 -8.30  2.95
Si -7.18  2.09  5.87
Si -9.02  3.06  0.01
Si -7.16  6.28 -0.06
Si  7.24 -6.19 -0.02
Si -7.25 -6.19 -0.02
Si  9.03 -1.05 -2.86
Si  1.83  9.36 -0.05
Si  1.74  7.36 -5.83
Si -5.51 -5.19 -5.83
Si  3.58  0.00 -8.86
Si  5.43  5.15  5.96
Si  3.58 -8.36  2.97
Si  7.30 -1.99 -5.86
Si  1.81 -3.17  8.85
Si  5.43  7.33  2.90
Si -3.59  0.07 -8.88
Si -9.06 -3.12  0.11
Si  5.38 -7.38 -2.92
Si -1.82  9.42  0.11
Si  7.30  2.09  5.87
Si  5.40 -5.21 -5.99
Si -5.50  5.35  5.79
Si -5.43 -7.35 -2.98
Si -9.11 -1.10 -2.88
Si  1.75  3.17 -8.91
Si  9.08 -3.18 -0.05
Si  1.73 -3.16 -8.93
Si  9.13  3.05 -0.02
Si -1.90 -3.15 -8.90
Si -5.50  7.35  2.92
Si -1.81  3.15 -8.93
Si -1.86 -3.20  8.91
Si -1.85  7.33 -5.99
Si -1.87  3.08  8.95
Si  7.33  6.28 -0.06
Si -1.77 -9.49  0.01
Si  3.72  8.43 -2.91
Si -9.15  1.03  2.93
Si  1.79  3.13  8.97
Si  3.72  0.06  8.92
Si -1.82 -7.40  5.96
Si  1.89 -9.49 -0.02
Si  3.56 -6.21  6.57
Si -1.72  9.33 -2.10
Si -8.96 -3.21 -2.10
Si  3.59  6.22  6.60
Si  7.17 -4.11 -5.20
Si  7.20  0.01  6.60
Si  5.42  1.00 -8.08
Si  1.86 -9.35 -2.22
Si -3.64  8.36  3.58
Si -9.05 -1.09  3.62
Si -1.81 -9.39 -2.20
Si  1.83 -5.24 -8.09
Si  3.65  8.35  3.64
Si  1.84  1.03  9.59
Si  1.83  9.39 -2.24
Si  7.21  6.28 -2.27
Si -7.29  0.01  6.60
Si -5.47  1.00 -8.11
Si  0.02 -2.15  9.61
Si -9.06  3.16 -2.20
Si -3.65 -6.33  6.60
Si -3.68  6.34  6.57
Si -7.22 -6.33 -2.22
Si -3.59  4.17 -8.19
Si  9.07 -1.06  3.74
Si  9.08 -3.15 -2.24
Si -7.32 -4.11 -5.20
Si -7.28  6.28 -2.27
Si  5.42 -7.37  3.75
Si  7.27 -6.33 -2.22
Si -5.46 -7.36  3.72
Si  9.10  3.20 -2.22
Si -0.08  8.44 -5.20
Si -1.80 -5.27 -8.20
Si  3.61  4.17 -8.25
Si -1.72  0.97  9.73
Si  0.01 -8.34 -5.81
Si -7.24  4.20 -5.81
Si  7.25  4.20 -5.81
Si -7.23 -4.16  6.02
Si  7.25 -4.16  6.02
Si  0.01  8.38  6.02
Si  5.35 -7.28 -5.15
Si  0.07 10.39  0.79
Si  3.58 -2.03  9.58
Si -9.06 -1.16 -5.09
Si -9.05 -5.20  0.81
Si  9.12 -1.02 -5.06
Si  9.05 -5.21  0.85
Si -0.02  4.14  9.63
Si  3.62  8.40 -5.12
Si -5.45 -7.30 -5.20
Si -3.67  8.36 -5.21
Si -3.65 -2.13  9.68
Si  8.96  1.02 -5.89
Si  5.30  3.15  8.85
Si  5.42 -3.15 -8.79
Si  5.37 -3.13  8.83
Si  5.44  3.09 -8.80
Si -5.45  3.12 -8.79
Si  0.07 10.39  3.02
Si -5.37 -9.39  0.11
Si  3.63  8.35  5.86
Si  5.46 -9.36  0.03
Si  0.12  6.22 -8.87
Si -5.50 -3.15 -8.80
Si  9.03 -1.06  5.94
Si  0.08 -6.34 -8.81
Si -5.46  7.30 -5.89
Si  0.07 -10.48 -2.86
Si -5.45 -3.06  8.88
Si -3.66  8.44  5.80
Si -10.88  0.03 -0.02
Si -9.11 -1.02  5.86
Si  9.04  5.30 -2.94
Si  9.04 -5.25  3.03
Si  5.38  7.34 -5.97
Si -3.65 -8.29 -6.03
Si -5.30  0.97  9.46
Si -9.15  0.97 -5.82
Si -5.47  3.12  8.89
Si -9.05 -5.28  3.02
Si 10.91 -0.04  0.03
Si  3.63 -8.38 -5.97
Si  5.51  9.43  0.06
Si  5.34 -7.40  6.01
Si -9.12  5.23 -3.00
Si  0.07  6.25  8.97
Si -5.53 -7.34  5.94
Si -5.44  9.50 -0.18
Si  0.13 -6.31  8.98
Si -5.30  9.33 -2.37
Si  7.18 -2.03 -8.08
Si -5.30 -9.40 -2.13
Si -5.38 -5.22 -8.05
Si  9.01  5.22  3.58
Si 10.81  0.04 -2.18
Si -7.24 -8.29  0.67
Si  7.25 -8.29  0.67
Si -0.07 -10.41  3.65
Si  1.86  7.33 -8.05
Si  3.63 10.42  0.75
Si -1.73  7.25 -8.19
Si -7.31 -2.03 -8.08
Si -3.67  4.21  9.58
Si -9.01  5.30  3.72
Si 10.88 -2.13  0.75
Si  3.56  4.22  9.65
Si -1.75 -5.30  9.63
Si -10.92 -2.06  0.69
Si -3.68 10.49  0.69
Si -10.91  0.02 -2.25
Si  5.52  9.47 -2.16
Si  5.49 -9.48 -2.20
Si  1.95 -5.22  9.70
Si  5.52  1.10  9.67
Si  0.07 -0.08 -11.20
Si  5.52 -5.29 -8.19
Si -10.77  2.12 -3.02
Si -3.53  6.30  8.80
Si -3.62 -6.25  8.81
Si -7.23  0.02  8.82
Si -3.52 -10.43 -3.02
Si  7.21 -8.38  2.86
Si  3.72 -6.25  8.80
Si  7.25  0.02  8.82
Si  3.62  6.30  8.81
Si -10.86 -2.08  2.90
Si  3.63 -10.43 -3.01
Si -3.62 10.47  2.90
Si -7.28 -8.38  2.86
Si  3.65 -6.25 -8.89
Si 10.89 -2.07  2.93
Si -3.59  6.29 -8.89
Si  3.65 10.47  2.93
Si -7.24  8.38 -3.01
Si 10.87  2.12 -3.01
Si -3.62 -6.26 -8.93
Si  7.25  8.38 -3.01
Si  3.63  6.29 -8.93
Si  7.21 -0.01 -8.97
Si -7.28 -0.01 -8.97
Si  1.78 -9.29  6.65
Si -7.24  4.14 -8.04
Si  7.25  4.14 -8.04
Si 10.80  2.09  3.68
Si -9.02  3.04  6.63
Si -10.77  4.25  0.74
Si -9.01  7.28  0.69
Si 10.80  4.21  0.72
Si -0.09 -10.46 -5.08
Si -9.07 -3.11  6.59
Si -3.52  0.07 -11.09
Si  0.01 -8.41 -8.04
Si -3.67 -10.44  3.62
Si  3.56 -10.46  3.68
Si -1.83  9.44  6.59
Si  1.83  9.39  6.65
Si  3.56  0.03 -11.11
Si  7.20  8.37  3.77
Si  7.15 -6.27  6.75
Si  9.08  5.21 -5.18
Si  9.03  3.26  6.65
Si  7.21  6.25  6.75
Si  9.08 -3.15  6.65
Si -1.76 -3.22 -11.10
Si -10.92  2.11  3.62
Si -1.76  3.10 -11.14
Si -7.29  8.37  3.77
Si -9.07  5.26 -5.24
Si  1.83 -11.56  0.69
Si -1.77 -9.51  6.63
Si -7.28  6.25  6.75
Si  1.83 -3.20 -11.14
Si -1.76 -11.58  0.73
Si  9.05  7.44  0.70
Si  1.81  3.26 -11.13
Si -7.33 -6.27  6.75
Si  8.98 -5.19 -5.83
Si -10.69 -4.30 -3.00
Si -1.87 11.44 -2.88
Si  8.99  5.35  5.79
Si  1.83  1.00 11.78
Si  8.99  7.35  2.92
Si 10.82  4.19  2.97
Si -0.00 -2.01 11.81
Si  1.79 11.49 -2.86
Si  0.06 -10.45  5.87
Si -9.05  7.33  2.90
Si -10.83  4.25  2.95
Si -9.06  5.15  5.96
Si -1.77 -1.12 -11.82
Si  1.73 -11.52  2.90
Si -1.90 -11.51  2.93
Si  9.05 -7.35 -2.98
Si  1.89 -1.13 -11.85
Si 10.97 -4.12 -2.91
Si  0.09  2.10 -11.89
Si -9.09 -5.21 -5.99
Si  0.06 10.56 -5.86
Si -9.10 -7.38 -2.92
Si -1.82  1.06 11.94
Si -1.80 11.46  3.62
Si  7.21 -2.08  9.56
Si -5.38 -5.17  9.61
Si  9.02  1.00 -8.11
Si -5.42  7.31 -8.09
Si -9.06  1.00 -8.08
Si -10.88 -4.19  3.58
Si -7.28 -2.08  9.56
Si 10.84  2.03 -5.23
Si -3.68 -10.39 -5.26
Si  7.20  8.37 -5.23
Si  5.43 -5.21  9.63
Si  1.83 11.49  3.74
Si  9.02 -7.36  3.72
Si 10.90 -4.20  3.64
Si  5.44  7.28 -8.20
Si -1.82  7.34  9.63
Si  1.86  7.38  9.61
Si -9.06 -7.37  3.75
Si -7.29  8.37 -5.23
Si  3.66 -8.38 -8.19
Si  3.60 -10.51 -5.23
Si -3.63 -8.37 -8.25
Si -10.92  2.16 -5.26
Si  0.02 12.43 -0.01
Si -3.59 -10.42  5.84
Si  3.56 -10.41  5.89
Si 10.84 -6.20 -0.04
Si  3.59 -2.01 11.79
Si 10.80  2.13  5.89
Si -10.84  2.12  5.84
Si  0.02  4.07 11.82
Si  7.21 -8.37 -5.86
Si -10.85 -6.22  0.05
Si  3.63  2.14 -11.78
Si -7.28 -8.37 -5.86
Si  7.20  8.36  5.97
Si -3.61 -2.04 11.88
Si 10.88  6.33  0.05
Si  0.02 -4.30 -11.84
Si -7.28  8.36  5.97
Si 10.89 -2.06 -5.99
Si -10.92 -2.05 -5.94
Si -1.82 11.39 -5.09
Si -3.65  2.17 -11.87
Si -3.68 10.50 -5.94
Si -10.90  6.35 -0.04
Si  3.65 10.49 -5.99
Si  5.42 -3.12 -10.99
Si -5.44  3.16 -10.98
Si  0.02 -12.66 -0.01
Si  7.17  4.14  9.59
Si 10.82 -0.01  6.62
Si  5.44  3.17 -11.01
Si 10.84  6.23 -2.15
Si 10.83 -6.21 -2.25
Si -0.03 12.51 -2.20
Si 10.87 -4.14 -5.12
Si -5.47 -3.12 -11.05
