500
set: 1317.00  0.00  0.00
Si -2.62 -1.16  0.00
Si  2.62 -1.16  0.00
Si -2.62  1.16  0.00
Si  2.62  1.16  0.00
Si -0.00 -1.24 -2.88
Si -0.00  1.24 -2.88
Si  0.00 -1.24  2.88
Si  0.00  1.24  2.88
Si  1.90  2.35 -1.89
Si -1.90  2.35 -1.89
Si  1.90 -2.35 -1.89
Si -1.90 -2.35 -1.89
Si  1.90  2.35  1.89
Si -1.90  2.35  1.89
Si  1.90 -2.35  1.89
Si -1.90 -2.35  1.89
Si -1.17  3.54  0.00
Si  1.17  3.54  0.00
Si -1.17 -3.54  0.00
Si  1.17 -3.54  0.00
Si -4.96 -1.16  0.00
Si  4.96 -1.16  0.00
Si -4.96  1.16  0.00
Si  4.96  1.16  0.00
Si -0.00 -1.24 -5.27
Si -0.00  1.24 -5.27
Si  0.00 -1.24  5.27
Si  0.00  1.24  5.27
Si  3.79 -3.46 -2.88
Si  3.79  3.46 -2.88
Si -3.79 -3.46 -2.88
Si -3.79  3.46 -2.88
Si  3.79 -3.46  2.88
Si  3.79  3.46  2.88
Si -3.79 -3.46  2.88
Si -3.79  3.46  2.88
Si -1.17  5.86  0.00
Si  1.17  5.86  0.00
Si -1.17 -5.86  0.00
Si  1.17 -5.86  0.00
Si  5.69  2.35 -1.89
Si  5.69 -2.35 -1.89
Si -5.69  2.35 -1.89
Si -5.69 -2.35 -1.89
Si  5.69  2.35  1.89
Si  5.69 -2.35  1.89
Si -5.69  2.35  1.89
Si -5.69 -2.35  1.89
Si  1.90  2.35 -6.26
Si -1.90  2.35 -6.26
Si  1.90 -2.35 -6.26
Si -1.90 -2.35 -6.26
Si  1.90  2.35  6.26
Si -1.90  2.35  6.26
Si  1.90 -2.35  6.26
Si -1.90 -2.35  6.26
Si -6.42  3.54  0.00
Si -6.42 -3.54  0.00
Si  6.42  3.54  0.00
Si  6.42 -3.54  0.00
Si  3.79 -3.46 -5.27
Si  3.79  3.46 -5.27
Si -3.79 -3.46 -5.27
Si -3.79  3.46 -5.27
Si  3.79 -3.46  5.27
Si  3.79  3.46  5.27
Si -3.79 -3.46  5.27
Si -3.79  3.46  5.27
Si  1.90  7.05 -1.89
Si -1.90  7.05 -1.89
Si  1.90 -7.05 -1.89
Si -1.90 -7.05 -1.89
Si  1.90  7.05  1.89
Si -1.90  7.05  1.89
Si  1.90 -7.05  1.89
Si -1.90 -7.05  1.89
Si  3.79 -5.94 -2.88
Si -3.79 -5.94 -2.88
Si  3.79  5.94 -2.88
Si -3.79  5.94 -2.88
Si  3.79 -5.94  2.88
Si -3.79 -5.94  2.88
Si  3.79  5.94  2.88
Si -3.79  5.94  2.88
Si  7.58 -1.24 -2.88
Si -7.58 -1.24 -2.88
Si  7.58  1.24 -2.88
Si -7.58  1.24 -2.88
Si  7.58 -1.24  2.88
Si -7.58 -1.24  2.88
Si -7.58  1.24  2.88
Si  7.58  1.24  2.88
Si -2.62 -1.16  8.14
Si -2.62 -1.16 -8.14
Si  2.62 -1.16  8.14
Si  2.62 -1.16 -8.14
Si -2.62  1.16 -8.14
Si -2.62  1.16  8.14
Si  2.62  1.16 -8.14
Si  2.62  1.16  8.14
Si -0.00 -8.16 -2.88
Si  0.00  8.16 -2.88
Si -0.00 -8.16  2.88
Si  0.00  8.16  2.88
Si -2.62 -8.24  0.00
Si  2.62 -8.24  0.00
Si -2.62  8.24  0.00
Si  2.62  8.24  0.00
Si -6.42  5.86  0.00
Si -6.42 -5.86  0.00
Si  6.42  5.86  0.00
Si  6.42 -5.86  0.00
Si  5.69  2.35 -6.26
Si  5.69 -2.35 -6.26
Si -5.69  2.35 -6.26
Si -5.69 -2.35 -6.26
Si  5.69  2.35  6.26
Si  5.69 -2.35  6.26
Si -5.69  2.35  6.26
Si -5.69 -2.35  6.26
Si  3.79 -5.94 -5.27
Si -3.79 -5.94 -5.27
Si  3.79  5.94 -5.27
Si -3.79  5.94 -5.27
Si  3.79 -5.94  5.27
Si -3.79 -5.94  5.27
Si  3.79  5.94  5.27
Si -3.79  5.94  5.27
Si -1.17  3.54 -8.14
Si -1.17  3.54  8.14
Si  1.17  3.54  8.14
Si  1.17  3.54 -8.14
Si -1.17 -3.54  8.14
Si -1.17 -3.54 -8.14
Si  1.17 -3.54  8.14
Si  1.17 -3.54 -8.14
Si  5.69  7.05 -1.89
Si -5.69  7.05 -1.89
Si  5.69 -7.05 -1.89
Si -5.69 -7.05 -1.89
Si  5.69  7.05  1.89
Si -5.69  7.05  1.89
Si  5.69 -7.05  1.89
Si -5.69 -7.05  1.89
Si -7.58 -1.24 -5.27
Si  7.58 -1.24 -5.27
Si -7.58  1.24 -5.27
Si  7.58  1.24 -5.27
Si -7.58 -1.24  5.27
Si  7.58 -1.24  5.27
Si  7.58  1.24  5.27
Si -7.58  1.24  5.27
Si -8.75  3.54  0.00
Si -8.75 -3.54  0.00
Si  8.75  3.54  0.00
Si  8.75 -3.54  0.00
Si -4.96 -1.16 -8.14
Si -4.96 -1.16  8.14
Si  4.96 -1.16 -8.14
Si  4.96 -1.16  8.14
Si -4.96  1.16  8.14
Si -4.96  1.16 -8.14
Si  4.96  1.16 -8.14
Si  4.96  1.16  8.14
Si  1.90  7.05 -6.26
Si -1.90  7.05 -6.26
Si  1.90 -7.05 -6.26
Si -1.90 -7.05 -6.26
Si  1.90  7.05  6.26
Si -1.90  7.05  6.26
Si  1.90 -7.05  6.26
Si -1.90 -7.05  6.26
Si -4.96 -8.24  0.00
Si  4.96 -8.24  0.00
Si -4.96  8.24  0.00
Si  4.96  8.24  0.00
Si -0.00 -8.16 -5.27
Si  0.00  8.16 -5.27
Si -0.00 -8.16  5.27
Si  0.00  8.16  5.27
Si  9.48  2.35 -1.89
Si  9.48 -2.35 -1.89
Si -9.48  2.35 -1.89
Si -9.48 -2.35 -1.89
Si  9.48  2.35  1.89
Si  9.48 -2.35  1.89
Si -9.48  2.35  1.89
Si -9.48 -2.35  1.89
Si -1.17  5.86  8.14
Si -1.17  5.86 -8.14
Si  1.17  5.86 -8.14
Si  1.17  5.86  8.14
Si -1.17 -5.86  8.14
Si -1.17 -5.86 -8.14
Si  1.17 -5.86  8.14
Si  1.17 -5.86 -8.14
Si -10.21 -1.16  0.00
Si 10.21 -1.16  0.00
Si -10.21  1.16  0.00
Si 10.21  1.16  0.00
Si  1.90  2.35 -10.03
Si -1.90  2.35 -10.03
Si  1.90 -2.35 -10.03
Si -1.90 -2.35 -10.03
Si  1.90  2.35 10.03
Si -1.90  2.35 10.03
Si  1.90 -2.35 10.03
Si -1.90 -2.35 10.03
Si -8.75  5.86  0.00
Si -8.75 -5.86  0.00
Si  8.75  5.86  0.00
Si  8.75 -5.86  0.00
Si -2.62 -10.56  0.00
Si  2.62 -10.56  0.00
Si -2.62 10.56  0.00
Si  2.62 10.56  0.00
Si -6.42  3.54 -8.14
Si -6.42  3.54  8.14
Si -6.42 -3.54 -8.14
Si -6.42 -3.54  8.14
Si  6.42  3.54 -8.14
Si  6.42  3.54  8.14
Si  6.42 -3.54 -8.14
Si  6.42 -3.54  8.14
Si  5.69  7.05 -6.26
Si -5.69  7.05 -6.26
Si  5.69 -7.05 -6.26
Si -5.69 -7.05 -6.26
Si  5.69  7.05  6.26
Si -5.69  7.05  6.26
Si  5.69 -7.05  6.26
Si -5.69 -7.05  6.26
Si -0.00 -10.64 -2.88
Si  0.00 10.64 -2.88
Si -0.00 -10.64  2.88
Si  0.00 10.64  2.88
Si -0.00 -1.24 -11.02
Si -0.00  1.24 -11.02
Si  0.00 -1.24 11.02
Si  0.00  1.24 11.02
Si  7.58 -8.16 -2.88
Si -7.58 -8.16 -2.88
Si -7.58  8.16 -2.88
Si  7.58  8.16 -2.88
Si  7.58 -8.16  2.88
Si -7.58 -8.16  2.88
Si  7.58  8.16  2.88
Si -7.58  8.16  2.88
Si  9.48  2.35 -6.26
Si  9.48 -2.35 -6.26
Si -9.48  2.35 -6.26
Si -9.48 -2.35 -6.26
Si  9.48  2.35  6.26
Si  9.48 -2.35  6.26
Si -9.48  2.35  6.26
Si -9.48 -2.35  6.26
Si -4.96 -10.56  0.00
Si  4.96 -10.56  0.00
Si -4.96 10.56  0.00
Si  4.96 10.56  0.00
Si  5.69  2.35 -10.03
Si  5.69 -2.35 -10.03
Si -5.69  2.35 -10.03
Si -5.69 -2.35 -10.03
Si  5.69  2.35 10.03
Si  5.69 -2.35 10.03
Si -5.69  2.35 10.03
Si -5.69 -2.35 10.03
Si -0.00 -10.64 -5.27
Si  0.00 10.64 -5.27
Si -0.00 -10.64  5.27
Si  0.00 10.64  5.27
Si -2.62 -8.24 -8.14
Si -2.62 -8.24  8.14
Si  2.62 -8.24 -8.14
Si  2.62 -8.24  8.14
Si -2.62  8.24 -8.14
Si -2.62  8.24  8.14
Si  2.62  8.24  8.14
Si  2.62  8.24 -8.14
Si -6.42  5.86 -8.14
Si -6.42  5.86  8.14
Si -6.42 -5.86  8.14
Si -6.42 -5.86 -8.14
Si  6.42  5.86 -8.14
Si  6.42  5.86  8.14
Si  6.42 -5.86 -8.14
Si  6.42 -5.86  8.14
Si  9.48  7.05 -1.89
Si -9.48  7.05 -1.89
Si  9.48 -7.05 -1.89
Si -9.48 -7.05 -1.89
Si  9.48  7.05  1.89
Si -9.48  7.05  1.89
Si  9.48 -7.05  1.89
Si -9.48 -7.05  1.89
Si  1.90 11.75 -1.89
Si -1.90 11.75 -1.89
Si  1.90 -11.75 -1.89
Si -1.90 -11.75 -1.89
Si  1.90 11.75  1.89
Si -1.90 11.75  1.89
Si  1.90 -11.75  1.89
Si -1.90 -11.75  1.89
Si  3.79 -3.46 -11.02
Si  3.79  3.46 -11.02
Si -3.79 -3.46 -11.02
Si -3.79  3.46 -11.02
Si  3.79 -3.46 11.02
Si  3.79  3.46 11.02
Si -3.79 -3.46 11.02
Si -3.79  3.46 11.02
Si 11.38 -3.46 -2.88
Si 11.38  3.46 -2.88
Si -11.38 -3.46 -2.88
Si -11.38  3.46 -2.88
Si 11.38 -3.46  2.88
Si 11.38  3.46  2.88
Si -11.38 -3.46  2.88
Si -11.38  3.46  2.88
Si  7.58 -8.16 -5.27
Si -7.58 -8.16 -5.27
Si -7.58  8.16 -5.27
Si  7.58  8.16 -5.27
Si  7.58 -8.16  5.27
Si -7.58 -8.16  5.27
Si  7.58  8.16  5.27
Si -7.58  8.16  5.27
Si  1.90  7.05 -10.03
Si -1.90  7.05 -10.03
Si  1.90 -7.05 -10.03
Si -1.90 -7.05 -10.03
Si  1.90  7.05 10.03
Si -1.90  7.05 10.03
Si  1.90 -7.05 10.03
Si -1.90 -7.05 10.03
Si -8.75  3.54  8.14
Si -8.75  3.54 -8.14
Si -8.75 -3.54  8.14
Si -8.75 -3.54 -8.14
Si  8.75  3.54  8.14
Si  8.75  3.54 -8.14
Si  8.75 -3.54  8.14
Si  8.75 -3.54 -8.14
Si -12.54 -1.16  0.00
Si 12.54 -1.16  0.00
Si -12.54  1.16  0.00
Si 12.54  1.16  0.00
Si -4.96 -8.24 -8.14
Si -4.96 -8.24  8.14
Si  4.96 -8.24 -8.14
Si  4.96 -8.24  8.14
Si -4.96  8.24 -8.14
Si -4.96  8.24  8.14
Si  4.96  8.24  8.14
Si  4.96  8.24 -8.14
Si -1.17 12.95  0.00
Si  1.17 12.95  0.00
Si -1.17 -12.95  0.00
Si  1.17 -12.95  0.00
Si 11.38 -3.46 -5.27
Si 11.38  3.46 -5.27
Si -11.38 -3.46 -5.27
Si -11.38  3.46 -5.27
Si 11.38 -3.46  5.27
Si 11.38  3.46  5.27
Si -11.38 -3.46  5.27
Si -11.38  3.46  5.27
Si  3.79 -5.94 -11.02
Si -3.79 -5.94 -11.02
Si  3.79  5.94 -11.02
Si -3.79  5.94 -11.02
Si  3.79 -5.94 11.02
Si -3.79 -5.94 11.02
Si  3.79  5.94 11.02
Si -3.79  5.94 11.02
Si -10.21 -1.16 -8.14
Si -10.21 -1.16  8.14
Si 10.21 -1.16  8.14
Si 10.21 -1.16 -8.14
Si -10.21  1.16 -8.14
Si -10.21  1.16  8.14
Si 10.21  1.16 -8.14
Si 10.21  1.16  8.14
Si -10.21 -8.24  0.00
Si 10.21 -8.24  0.00
Si -10.21  8.24  0.00
Si 10.21  8.24  0.00
Si 11.38 -5.94 -2.88
Si 11.38  5.94 -2.88
Si -11.38 -5.94 -2.88
Si -11.38  5.94 -2.88
Si 11.38 -5.94  2.88
Si 11.38  5.94  2.88
Si -11.38 -5.94  2.88
Si -11.38  5.94  2.88
Si  5.69 11.75 -1.89
Si -5.69 11.75 -1.89
Si  5.69 -11.75 -1.89
Si -5.69 -11.75 -1.89
Si  5.69 11.75  1.89
Si -5.69 11.75  1.89
Si  5.69 -11.75  1.89
Si -5.69 -11.75  1.89
Si -8.75  5.86 -8.14
Si -8.75  5.86  8.14
Si -8.75 -5.86 -8.14
Si -8.75 -5.86  8.14
Si  8.75  5.86 -8.14
Si  8.75  5.86  8.14
Si  8.75 -5.86  8.14
Si  8.75 -5.86 -8.14
Si  9.48  7.05 -6.26
Si -9.48  7.05 -6.26
Si  9.48 -7.05 -6.26
Si -9.48 -7.05 -6.26
Si  9.48  7.05  6.26
Si -9.48  7.05  6.26
Si  9.48 -7.05  6.26
Si -9.48 -7.05  6.26
Si  7.58 -10.64 -2.88
Si -7.58 -10.64 -2.88
Si  7.58 10.64 -2.88
Si -7.58 10.64 -2.88
Si -7.58 -10.64  2.88
Si  7.58 -10.64  2.88
Si -7.58 10.64  2.88
Si  7.58 10.64  2.88
Si  7.58 -1.24 -11.02
Si -7.58 -1.24 -11.02
Si  7.58  1.24 -11.02
Si -7.58  1.24 -11.02
Si -7.58 -1.24 11.02
Si  7.58 -1.24 11.02
Si -7.58  1.24 11.02
Si  7.58  1.24 11.02
Si  1.90 11.75 -6.26
Si -1.90 11.75 -6.26
Si  1.90 -11.75 -6.26
Si -1.90 -11.75 -6.26
Si  1.90 11.75  6.26
Si -1.90 11.75  6.26
Si  1.90 -11.75  6.26
Si -1.90 -11.75  6.26
Si -0.00 -1.24 -13.41
Si -0.00  1.24 -13.41
Si  0.00 -1.24 13.41
Si  0.00  1.24 13.41
Si  5.69  7.05 -10.03
Si -5.69  7.05 -10.03
Si  5.69 -7.05 -10.03
Si -5.69 -7.05 -10.03
Si  5.69  7.05 10.03
Si -5.69  7.05 10.03
Si  5.69 -7.05 10.03
Si -5.69 -7.05 10.03
Si -2.62 -10.56 -8.14
Si -2.62 -10.56  8.14
Si  2.62 -10.56  8.14
Si  2.62 -10.56 -8.14
Si -2.62 10.56  8.14
Si -2.62 10.56 -8.14
Si  2.62 10.56  8.14
Si  2.62 10.56 -8.14
Si 13.27  2.35 -1.89
Si 13.27 -2.35 -1.89
Si -13.27  2.35 -1.89
Si -13.27 -2.35 -1.89
Si 13.27  2.35  1.89
Si 13.27 -2.35  1.89
Si -13.27  2.35  1.89
Si -13.27 -2.35  1.89
Si  3.79 -12.86 -2.88
Si -3.79 -12.86 -2.88
Si  3.79 12.86 -2.88
Si -3.79 12.86 -2.88
Si  3.79 -12.86  2.88
Si -3.79 -12.86  2.88
Si  3.79 12.86  2.88
Si -3.79 12.86  2.88
Si -0.00 -8.16 -11.02
Si -0.00  8.16 -11.02
Si  0.00 -8.16 11.02
Si  0.00  8.16 11.02
Si 11.38 -5.94 -5.27
Si 11.38  5.94 -5.27
Si -11.38 -5.94 -5.27
Si -11.38  5.94 -5.27
Si 11.38 -5.94  5.27
Si 11.38  5.94  5.27
Si -11.38 -5.94  5.27
Si -11.38  5.94  5.27
Si  9.48  2.35 -10.03
Si  9.48 -2.35 -10.03
Si -9.48  2.35 -10.03
Si -9.48 -2.35 -10.03
Si  9.48  2.35 10.03
Si  9.48 -2.35 10.03
Si -9.48  2.35 10.03
Si -9.48 -2.35 10.03
