500
set: 1235.00  0.00  0.00
Si  0.81 -0.93 -0.25
Si  0.20  1.01  1.47
Si -1.46 -1.31 -1.29
Si  1.93  0.42 -1.86
Si -2.09  1.21  1.46
Si -2.94  0.44 -0.92
Si  1.13  2.87  0.55
Si -1.25  2.02 -2.07
Si  1.69 -2.87  0.88
Si  1.20  3.04 -1.75
Si  1.61  0.37  3.38
Si  1.40 -2.00  2.98
Si -1.91 -3.57 -0.39
Si  3.93  0.92 -0.67
Si -1.77 -1.57 -3.66
Si  3.50  2.51  0.88
Si -1.52  0.69 -4.16
Si -3.27 -0.03  3.13
Si  0.32 -4.55  0.25
Si -2.49 -2.10  3.22
Si -2.31  3.58  1.80
Si -3.43 -2.97  1.20
Si  2.45 -0.80 -3.96
Si -0.18  4.53  1.47
Si -3.42  3.00 -1.57
Si -0.47 -3.08  3.86
Si  3.84  1.39  2.96
Si  3.88 -3.51  0.70
Si -5.19 -0.73 -0.63
Si  0.77  0.93 -5.28
Si -0.38 -3.11 -4.70
Si  1.92 -3.07 -4.36
Si  0.98  3.15 -4.65
Si  4.60  3.18 -1.70
Si  0.98  5.51 -1.96
Si  0.77  0.93  5.82
Si  5.91 -0.73 -0.63
Si  0.98 -5.59 -1.96
Si  2.92 -4.49 -2.75
Si -3.90 -4.53 -0.74
Si -5.51 -2.06  1.31
Si -2.98  1.31  5.11
Si -3.73 -2.70 -3.98
Si  5.59 -2.06  1.31
Si  5.27 -0.33  3.06
Si  2.73 -3.08  4.59
Si -4.05  4.63  0.61
Si  4.83 -3.73 -1.61
Si -0.61 -5.12 -3.78
Si -2.77  3.69  4.42
Si -4.71  2.74 -3.37
Si -5.55 -1.80 -2.71
Si  5.56 -1.80 -2.71
Si  4.80  4.36  0.28
Si  0.19 -5.44  3.60
Si  0.32  6.55  0.25
Si -5.83 -0.33  3.06
Si  4.80 -0.90 -4.47
Si  0.19  5.67  3.60
Si -0.18 -6.58  1.47
Si -3.04 -5.14 -3.15
Si -2.98  1.31 -5.99
Si  4.00 -5.14  2.12
Si  3.98  4.72 -3.33
Si -0.69  4.53  5.33
Si  4.55  2.64  4.74
Si  2.44 -5.45  3.84
Si -0.61  5.99 -3.78
Si -4.15 -3.25  4.78
Si -0.38 -3.11  6.41
Si -1.52  0.69  6.95
Si  4.96 -2.04  4.75
Si  0.98  3.15  6.46
Si  2.44  5.65  3.84
Si -7.18  0.92 -0.67
Si -5.11  1.11 -5.17
Si -0.69  4.53 -5.78
Si -4.81 -4.92  2.68
Si -3.04  5.96 -3.15
Si -6.50  3.18 -1.70
Si  2.86  4.18 -5.45
Si -6.28 -3.73 -1.61
Si  4.00  5.96  2.12
Si  2.86  4.18  5.65
Si  2.45 -0.80  7.14
Si  1.92 -3.07  6.75
Si -4.05 -6.48  0.61
Si -6.30  4.36  0.28
Si -3.90  6.58 -0.74
Si  2.73 -3.08 -6.52
Si  6.39  2.74 -3.37
Si  2.92  6.61 -2.75
Si -6.30 -0.90 -4.47
Si -1.91  7.53 -0.39
Si -1.77 -1.57  7.44
Si -0.47 -3.08 -7.25
Si  1.61  0.37 -7.72
Si -5.11  1.11  5.94
Si -7.27  1.39  2.96
Si  6.00  1.11 -5.17
Si -4.81  4.80 -4.24
Si -6.14 -2.04  4.75
Si -7.61  2.51  0.88
Si -7.23 -3.51  0.70
Si -2.31 -7.53  1.80
Si -2.77  3.69 -6.68
Si -4.93  4.68  4.57
Si  8.16  0.44 -0.92
Si  3.98 -6.39 -3.33
Si -4.15 -3.25 -6.33
Si  4.80 -0.90  6.64
Si  4.55  2.64 -6.37
Si -4.81  6.18  2.68
Si  4.80 -6.75  0.28
Si  7.68 -2.97  1.20
Si  4.96 -2.04 -6.36
Si  1.13 -8.24  0.55
Si  1.20 -8.07 -1.75
Si  7.68  3.00 -1.57
Si  6.29 -4.92  2.68
Si  7.84 -0.03  3.13
Si  1.69  8.24  0.88
Si  7.06  4.63  0.61
Si  1.40 -2.00 -8.12
Si -3.73 -2.70  7.13
Si -0.69 -6.58  5.33
Si -6.55  2.64  4.74
Si  6.00  1.11  5.94
Si -2.49 -2.10 -7.89
Si  7.20 -4.53 -0.74
Si  3.88  7.60  0.70
Si -3.27 -0.03 -7.97
Si -0.69 -6.58 -5.78
Si  7.38 -2.70 -3.98
Si -3.43  8.14  1.20
Si -0.47  8.03  3.86
Si -3.42 -8.11 -1.57
Si -0.61 -5.12  7.33
Si  4.83  7.38 -1.61
Si  6.30  4.80 -4.24
Si -4.81 -6.31 -4.24
Si  6.17  4.68  4.57
Si -7.10 -5.14  2.12
Si  6.95 -3.25  4.78
Si -2.77 -7.42  4.42
Si -6.14 -2.04 -6.36
Si  3.84  1.39 -8.14
Si -7.12  4.72 -3.33
Si -6.30 -0.90  6.64
Si  9.02  1.21  1.46
Si  6.29  6.18  2.68
Si -6.30 -6.75  0.28
Si  2.86 -6.93 -5.45
Si  0.98 -7.96 -4.65
Si  0.19 -5.44 -7.51
Si -0.38  8.00 -4.70
Si -4.93 -6.42  4.57
Si  3.50 -8.59  0.88
Si  4.60 -7.93 -1.70
Si  1.92  8.03 -4.36
Si -1.25  2.02  9.04
Si -9.18  0.42 -1.86
Si  2.86 -6.93  5.65
Si -1.25 -9.08 -2.07
Si  2.44 -5.45 -7.26
Si  0.19  5.67 -7.51
Si  8.62 -2.10  3.22
Si -4.93  4.68 -6.54
Si  1.93  0.42  9.24
Si -4.71  2.74  7.74
Si -0.61  5.99  7.33
Si -6.55  2.64 -6.37
Si -7.10  5.96  2.12
Si  2.44  5.65 -7.26
Si -8.66 -0.80 -3.96
Si  7.06 -6.48  0.61
Si  5.27 -0.33 -8.05
Si  2.73  8.02  4.59
Si -4.81  4.80  6.87
Si  8.80  3.58  1.80
Si  1.40  9.11  2.98
Si  0.20  1.01 -9.63
Si  8.13  1.31  5.11
Si -8.19 -4.49 -2.75
Si  7.20  6.58 -0.74
Si -6.28  7.38 -1.61
Si  9.65 -1.31 -1.29
Si  6.30 -6.31 -4.24
Si  9.20 -3.57 -0.39
Si -9.41 -2.87  0.88
Si -2.49  9.01  3.22
Si  1.20  3.04  9.36
Si  3.98  4.72  7.77
Si  2.92 -4.49  8.36
Si -2.09  1.21 -9.65
Si -5.83 -0.33 -8.05
Si  6.95 -3.25 -6.33
Si -3.04 -5.14  7.96
Si -1.46  9.79 -1.29
Si -1.46 -1.31  9.81
Si  6.17 -6.42  4.57
Si -3.73  8.41 -3.98
Si -8.38 -3.08  4.59
Si  8.06 -5.14 -3.15
Si -9.49  0.37  3.38
Si -4.15  7.85  4.78
Si -7.12 -6.39 -3.33
Si  8.34  3.69  4.42
Si  6.17  4.68 -6.54
Si  9.33 -1.57 -3.66
Si -4.71 -8.37 -3.37
Si  8.13  1.31 -5.99
Si  0.20 -10.10  1.47
Si  0.81 10.18 -0.25
Si -2.09 -9.89  1.46
Si -5.55 -1.80  8.40
Si  5.56 -1.80  8.40
Si -2.31  3.58 -9.31
Si -0.38  8.00  6.41
Si  9.86  2.02 -2.07
Si  0.98 -7.96  6.46
Si -10.29 -0.93 -0.25
Si -9.71 -2.00  2.98
Si -2.77 -7.42 -6.68
Si -1.77  9.54 -3.66
Si -9.98  2.87  0.55
Si -6.50 -7.93 -1.70
Si -3.04  5.96  7.96
Si  6.39  2.74  7.74
Si -4.93 -6.42 -6.54
Si  9.58  0.69 -4.16
Si  6.30  4.80  6.87
Si -4.81 -6.31  6.87
Si -9.90  3.04 -1.75
Si  8.06  5.96 -3.15
Si -7.23  7.60  0.70
Si -3.42  3.00  9.54
Si  7.38 -2.70  7.13
Si -2.94  0.44 10.19
Si -9.19 -3.07 -4.36
Si -0.18  4.53 -9.63
Si  1.92  8.03  6.75
Si -5.51  9.05  1.31
Si  2.73  8.02 -6.52
Si  5.59  9.05  1.31
Si  4.55 -8.47  4.74
Si  0.98  5.51  9.15
Si -8.25  4.18 -5.45
Si  1.69 -2.87 -10.22
Si  0.98 -5.59  9.15
Si  3.98 -6.39  7.77
Si -0.47  8.03 -7.25
Si -8.25  4.18  5.65
Si  3.84 -9.71  2.96
Si -8.19  6.61 -2.75
Si -4.81 -4.92 -8.42
Si -3.43 -2.97 -9.91
Si -4.15  7.85 -6.33
Si  0.81 -0.93 10.85
Si -8.66 -5.45  3.84
Si  3.93 -10.18 -0.67
Si  4.60  3.18  9.41
Si  1.13  2.87 -10.56
Si -7.27  1.39 -8.14
Si  1.93 -10.69 -1.86
Si -8.66  5.65  3.84
Si  2.92  6.61  8.36
Si  6.17 -6.42 -6.54
Si  6.39 -8.37 -3.37
Si -8.38 -3.08 -6.52
Si -10.91  1.01  1.47
Si  3.50  2.51 -10.22
Si  4.00 -5.14 -8.99
Si -2.94 -10.67 -0.92
Si -5.55  9.30 -2.71
Si  5.56  9.30 -2.71
Si  7.84 -0.03 -7.97
Si  3.93  0.92 10.43
Si  7.68  8.14  1.20
Si -8.66 -0.80  7.14
Si  6.30 -6.31  6.87
Si  7.68 -8.11 -1.57
Si  4.83 -3.73  9.49
Si  8.34  3.69 -6.68
Si  2.45 10.31 -3.96
Si -1.52 -10.41 -4.16
Si  1.61 -10.74  3.38
Si  4.96  9.07  4.75
Si  0.81 -0.93 -11.36
Si -5.51 -2.06 -9.80
Si -2.98 -9.79  5.11
Si 11.30  1.01  1.47
Si -1.91 -3.57 10.72
Si  5.59 -2.06 -9.80
Si  0.77 -10.17 -5.28
Si -4.81  6.18 -8.42
Si  4.00  5.96 -8.99
Si -7.61 -8.59  0.88
Si  6.95  7.85  4.78
Si  4.55 -8.47 -6.37
Si -7.12  4.72  7.77
Si -10.12  3.15 -4.65
Si  6.29 -4.92 -8.42
Si -5.19 10.37 -0.63
Si -3.73  8.41  7.13
Si  3.88 -3.51 -10.41
Si -10.34  0.93 -5.28
Si -0.18 -6.58 -9.63
Si -10.12  5.51 -1.96
Si -6.55 -8.47  4.74
Si -10.79 -4.55  0.25
Si -5.19 -0.73 10.48
Si  8.80 -7.53  1.80
Si 10.63 -3.08  3.86
Si -10.12 -5.59 -1.96
Si  0.77 -10.17  5.82
Si  0.32 -4.55 -10.86
Si -9.19 -3.07  6.75
Si  1.93 11.52 -1.86
Si  9.58  0.69  6.95
Si -2.98 -9.79 -5.99
Si  8.62 -2.10 -7.89
Si -6.50  3.18  9.41
Si  7.38  8.41 -3.98
Si  9.20  7.53 -0.39
Si -10.34  0.93  5.82
Si 10.92  4.53  1.47
Si -6.14  9.07  4.75
Si -2.94 11.54 -0.92
Si 11.92 -0.93 -0.25
Si  5.91 10.37 -0.63
Si -3.27 11.07  3.13
Si -3.90 -4.53 10.36
Si -6.28 -3.73  9.49
Si  8.34 -7.42  4.42
Si -3.27 -11.14  3.13
Si  9.33 -1.57  7.44
Si  5.91 -0.73 10.48
Si  1.13  2.87 11.65
Si  0.81 -12.03 -0.25
Si -8.25 -6.93 -5.45
Si  1.61 11.47  3.38
Si 10.73 -3.11 -4.70
Si  4.80 10.21 -4.47
Si  4.96  9.07 -6.36
Si -4.05  4.63 -10.49
Si -8.25 -6.93  5.65
Si -1.91 -3.57 -11.49
Si -2.31 -7.53 -9.31
Si  6.29  6.18 -8.42
Si  0.20 12.11  1.47
Si -1.77  9.54  7.44
Si -2.49  9.01 -7.89
Si  0.32 -4.55 11.36
Si -9.49  0.37 -7.72
Si -11.29  4.53  1.47
Si  6.95  7.85 -6.33
Si 10.50 -5.12 -3.78
Si  1.40  9.11 -8.12
Si 11.42 -4.55  0.25
Si -7.12 -6.39  7.77
Si -4.71 -8.37  7.74
Si -5.11 -9.99 -5.17
Si  5.27 10.78  3.06
Si -2.94  0.44 -12.02
Si -10.12  3.15  6.46
Si  1.20 -8.07  9.36
Si  1.69 -2.87 11.99
Si  8.06 -5.14  7.96
Si  3.93  0.92 -11.78
Si -6.55 -8.47 -6.37
Si -7.18 -10.18 -0.67
Si -8.38  8.02  4.59
Si -7.27 -9.71  2.96
Si -8.19 -4.49  8.36
Si -9.41  8.24  0.88
Si 10.42  4.53  5.33
Si -8.66 -5.45 -7.26
Si -1.46 -1.31 -12.40
Si -7.10 -5.14 -8.99
Si -1.46 -12.42 -1.29
Si 12.24  2.87  0.55
Si -2.09 12.32  1.46
Si -11.58 -3.08  3.86
Si -1.52 11.80 -4.16
Si  7.68  3.00  9.54
Si -1.52 -10.41  6.95
Si  0.20  1.01 12.58
Si  4.80  4.36 -10.83
Si -10.79  6.55  0.25
Si -5.83 10.78  3.06
Si -8.66  5.65 -7.26
Si 10.50  5.99 -3.78
Si -6.14  9.07 -6.36
Si  3.93 12.03 -0.67
Si  0.32  6.55 -10.86
Si -12.35  2.02 -2.07
Si -7.18  0.92 10.43
Si -5.11 -9.99  5.94
Si -12.56 -1.31 -1.29
Si -10.92 -5.44  3.60
Si  3.50  2.51 11.99
Si 10.42  4.53 -5.78
Si  6.00 -9.99 -5.17
Si  2.45 10.31  7.14
Si  2.45 -11.90 -3.96
Si -11.48 -3.11 -4.70
Si -2.09  1.21 12.56
Si 12.31  3.04 -1.75
Si -6.30 10.21 -4.47
Si  8.06  5.96  7.96
Si -10.92  5.67  3.60
Si -9.71 -2.00 -8.12
Si 10.92 -6.58  1.47
Si -5.19 -0.73 -11.74
Si  8.62  9.01  3.22
Si -1.25 -9.08  9.04
Si 10.73 -3.11  6.41
Si -3.90  6.58 10.36
Si  7.68 -2.97 -9.91
Si -9.90 -8.07 -1.75
Si  3.88 -3.51 11.81
Si -7.10  5.96 -8.99
Si -5.19 -11.84 -0.63
Si -9.98 -8.24  0.55
Si  4.83  7.38  9.49
Si  5.27 -11.43  3.06
Si -9.19  8.03 -4.36
Si -3.42 -8.11  9.54
Si -4.05 -6.48 -10.49
Si -7.61  2.51 -10.22
Si 12.50 -2.00  2.98
Si  8.34 -7.42 -6.68
Si 11.87  0.93 -5.28
Si -9.18  0.42  9.24
Si 11.29 -5.44  3.60
Si  8.16  0.44 10.19
Si  6.39 -8.37  7.74
Si  6.00 -9.99  5.94
Si  4.80 10.21  6.64
Si  4.80  4.36 11.38
Si -3.43 -2.97 12.30
Si  1.93  0.42 -12.97
Si  0.32  6.55 11.36
Si 11.29  5.67  3.60
Si  4.60 -7.93  9.41
Si 12.80 -2.87  0.88
Si -7.23 -3.51 -10.41
Si -11.29 -6.58  1.47
Si  5.91 -0.73 -11.74
Si 12.72  0.37  3.38
Si  0.77 12.04 -5.28
Si 13.03  0.42 -1.86
Si 11.42  6.55  0.25
Si -5.83 -11.43  3.06
Si 10.63 -3.08 -7.25
Si -4.05  4.63 11.72
Si  1.69  8.24 -10.22
Si -1.91  7.53 10.72
Si  3.84 -9.71 -8.14
Si  5.91 -11.84 -0.63
Si 11.87  0.93  5.82
Si  1.20  3.04 -12.85
Si  9.02  1.21 -9.65
Si  7.38  8.41  7.13
Si -6.30  4.36 -10.83
Si -3.43  8.14 -9.91
Si -3.90 -4.53 -11.85
Si  8.80  3.58 -9.31
Si -8.38  8.02 -6.52
Si -12.63  0.69 -4.16
Si -1.77 -12.68 -3.66
Si  1.61 -10.74 -7.72
Si -13.19  1.21  1.46
Si 12.09  3.15 -4.65
Si -11.71 -5.12 -3.78
Si -1.25 13.13 -2.07
Si -0.18  4.53 12.58
Si -1.25  2.02 -13.17
Si  0.77 12.04  5.82
Si  3.84 12.50  2.96
Si  7.20 -4.53 10.36
Si 10.42 -6.58  5.33
Si 12.09  5.51 -1.96
Si -8.19  6.61  8.36
Si  1.13 -8.24 -10.56
Si  3.88  7.60 -10.41
Si 12.09 -5.59 -1.96
Si  8.16 -10.67 -0.92
Si  7.06  4.63 -10.49
Si  9.02 -9.89  1.46
Si -3.42  3.00 -12.68
Si -12.88 -1.57 -3.66
Si -13.01 -3.57 -0.39
Si  1.40 -13.10  2.98
Si -11.48 -3.11  6.41
Si  9.86  2.02  9.04
Si -6.28  7.38  9.49
Si  9.86 -9.08 -2.07
Si -2.31  3.58 12.91
