500
set: 1320.00  0.00  0.00
Si  1.19  0.00  0.51
Si -1.19  0.00  0.61
Si -1.99  1.92 -0.51
Si -1.99 -1.92 -0.51
Si  1.99  1.92 -0.61
Si  1.99 -1.92 -0.61
Si  2.00  0.00  2.73
Si -1.99  0.00  2.83
Si -1.19  1.92 -2.73
Si -1.19 -1.92 -2.73
Si  1.19  1.92 -2.83
Si  1.19 -1.93 -2.83
Si  1.19 -3.84  0.51
Si  1.19  3.84  0.51
Si -1.19 -3.84  0.61
Si -1.19  3.84  0.61
Si -1.98 -0.00 -3.84
Si  2.00 -0.01 -3.94
Si  1.19 -1.92  3.84
Si  1.19  1.92  3.84
Si -1.19 -1.92  3.94
Si -1.19  1.93  3.94
Si  4.36  1.92 -0.51
Si  4.36 -1.92 -0.51
Si -4.37  1.92 -0.61
Si -4.37 -1.92 -0.61
Si  2.00 -3.84  2.73
Si  2.00  3.84  2.73
Si -4.36  0.00  2.73
Si -1.99 -3.84  2.83
Si -1.99  3.85  2.83
Si -5.17  0.00  0.51
Si  5.17  0.00  0.61
Si  4.37  0.00  2.83
Si -1.98  3.84 -3.84
Si -1.98 -3.85 -3.84
Si  4.37 -0.00 -3.84
Si  2.00  3.84 -3.94
Si  2.00 -3.85 -3.94
Si -4.36 -0.01 -3.94
Si -1.99  5.76 -0.51
Si -1.99 -5.76 -0.51
Si  1.99  5.76 -0.61
Si  1.99 -5.76 -0.61
Si  5.17  1.92 -2.73
Si  5.17 -1.92 -2.73
Si -1.19 -0.01 -6.06
Si -5.17  1.92 -2.83
Si -5.17 -1.93 -2.83
Si  1.19 -0.01 -6.16
Si -4.36 -3.84  2.73
Si -4.36  3.84  2.73
Si -5.17 -3.84  0.51
Si -5.17  3.84  0.51
Si  5.17 -3.84  0.61
Si  4.37 -3.84  2.83
Si  5.17  3.84  0.61
Si  4.37  3.85  2.83
Si -1.19  5.76 -2.73
Si -1.19 -5.76 -2.73
Si  1.19  5.76 -2.83
Si  1.19 -5.77 -2.83
Si  1.98 -1.92  6.06
Si  1.98  1.93  6.06
Si -5.17 -1.92  3.84
Si -5.17  1.92  3.84
Si -2.00 -1.92  6.16
Si -2.00  1.93  6.16
Si  5.17 -1.92  3.94
Si  5.17  1.93  3.94
Si  4.37  3.84 -3.84
Si  4.37 -3.85 -3.84
Si -4.36  3.84 -3.94
Si -4.36 -3.85 -3.94
Si  1.19 -5.76  3.84
Si  1.19  5.77  3.84
Si -1.19 -5.76  3.94
Si -1.19  5.77  3.94
Si  4.36  5.76 -0.51
Si  4.36 -5.76 -0.51
Si -4.37  5.76 -0.61
Si -4.37 -5.76 -0.61
Si  1.19  0.01  7.17
Si -1.19  3.84 -6.06
Si -1.19 -3.85 -6.06
Si  1.19  3.84 -6.16
Si  1.19 -3.85 -6.16
Si -1.19  0.01  7.27
Si  7.54  0.00  0.51
Si -7.54  0.00  0.61
Si -1.99  1.92 -7.17
Si -1.99 -1.93 -7.17
Si -4.37 -1.92  6.06
Si -4.37  1.93  6.06
Si  1.99  1.91 -7.28
Si  1.99 -1.93 -7.28
Si  4.36 -1.92  6.16
Si  4.36  1.93  6.16
Si  1.19 -7.68  0.51
Si  1.19  7.69  0.51
Si -1.19 -7.68  0.61
Si -1.19  7.69  0.61
Si  5.17 -0.01 -6.06
Si -5.17 -0.01 -6.16
Si  5.17  5.76 -2.73
Si  5.17 -5.76 -2.73
Si  1.19 -3.83  7.17
Si  1.19  3.85  7.17
Si -5.17  5.76 -2.83
Si -5.17 -5.77 -2.83
Si -7.54  1.92 -2.73
Si -7.54 -1.92 -2.73
Si  7.54  1.92 -2.83
Si  7.54 -1.93 -2.83
Si -1.19 -3.84  7.27
Si -1.19  3.85  7.27
Si  2.00 -7.68  2.73
Si  1.99  7.69  2.73
Si -1.99 -7.68  2.83
Si -1.99  7.69  2.83
Si  7.54 -3.84  0.51
Si  7.54  3.84  0.51
Si -7.54 -3.84  0.61
Si -7.54  3.84  0.61
Si  8.34  1.92 -0.61
Si  8.34 -1.92 -0.61
Si -8.35 -1.92 -0.51
Si -8.35  1.92 -0.51
Si  1.98 -5.76  6.06
Si  1.98  5.77  6.06
Si  4.36  1.92 -7.17
Si  4.36 -1.93 -7.17
Si -5.17 -5.76  3.84
Si -5.17  5.77  3.84
Si -2.00 -5.76  6.16
Si -2.00  5.77  6.16
Si  7.54 -1.92  3.84
Si  7.54  1.92  3.84
Si  5.17 -5.76  3.94
Si  5.17  5.77  3.94
Si -4.37  1.91 -7.28
Si -4.37 -1.93 -7.28
Si -7.55 -1.92  3.94
Si -7.55  1.93  3.94
Si  8.35  0.00  2.73
Si -8.34  0.00  2.83
Si -1.98  7.68 -3.84
Si -1.98 -7.69 -3.84
Si -5.17  0.01  7.17
Si  5.17  3.84 -6.06
Si  5.17 -3.85 -6.06
Si  2.00  7.68 -3.94
Si  2.00 -7.69 -3.94
Si -5.17  3.84 -6.16
Si -5.17 -3.85 -6.16
Si  5.17  0.01  7.27
Si -8.34 -0.00 -3.84
Si  8.35 -0.01 -3.94
Si -4.36 -7.68  2.73
Si -4.36  7.69  2.73
Si -5.17 -7.68  0.51
Si -5.17  7.69  0.51
Si  4.37 -7.68  2.83
Si  5.17 -7.68  0.61
Si  5.17  7.69  0.61
Si  4.37  7.69  2.83
Si -1.99  5.76 -7.17
Si -1.99 -5.77 -7.17
Si -4.37 -5.76  6.06
Si -4.37  5.77  6.06
Si  1.99  5.76 -7.28
Si  4.36 -5.76  6.16
Si  1.99 -5.77 -7.28
Si  4.36  5.77  6.16
Si  8.35 -3.84  2.73
Si  8.35  3.84  2.73
Si  1.99  0.01  9.39
Si -8.34 -3.84  2.83
Si -8.34  3.85  2.83
Si -5.17 -3.83  7.17
Si  4.37  7.68 -3.84
Si  4.37 -7.69 -3.84
Si -5.17  3.85  7.17
Si -1.19  1.91 -9.39
Si -1.19 -1.93 -9.39
Si -4.36  7.68 -3.94
Si -7.54 -0.01 -6.06
Si -4.36 -7.69 -3.94
Si -1.99  0.01  9.49
Si  5.17 -3.84  7.27
Si  5.17  3.85  7.27
Si  7.55 -0.01 -6.16
Si  1.19  1.91 -9.49
Si  1.19 -1.93 -9.49
Si -1.99  9.61 -0.51
Si -1.99 -9.61 -0.51
Si  1.99  9.61 -0.61
Si  1.99 -9.61 -0.61
Si -1.19  7.68 -6.06
Si -1.19 -7.69 -6.06
Si -7.54  5.76 -2.73
Si -7.54 -5.76 -2.73
Si  7.54  5.76 -2.83
Si  7.54 -5.77 -2.83
Si  1.19  7.68 -6.16
Si  1.19 -7.69 -6.16
Si -8.34  3.84 -3.84
Si -8.34 -3.85 -3.84
Si  8.35  3.84 -3.94
Si  8.35 -3.85 -3.94
Si -1.19  9.61 -2.73
Si -1.19 -9.61 -2.73
Si  1.19  9.60 -2.83
Si  1.19 -9.61 -2.83
Si  8.34  5.76 -0.61
Si  8.34 -5.76 -0.61
Si -8.35 -5.76 -0.51
Si -8.35  5.76 -0.51
Si  4.36  5.76 -7.17
Si  4.36 -5.77 -7.17
Si  7.54 -5.76  3.84
Si  7.54  5.77  3.84
Si -4.37  5.76 -7.28
Si -4.37 -5.77 -7.28
Si -7.55 -5.76  3.94
Si -7.55  5.77  3.94
Si  1.99 -3.83  9.39
Si  1.99  3.85  9.39
Si -4.36  0.01  9.39
Si -7.54  3.84 -6.06
Si  7.54  0.01  7.17
Si  1.19 -9.61  3.84
Si -7.54 -3.85 -6.06
Si  1.19  9.61  3.84
Si -1.99 -3.83  9.49
Si -1.99  3.85  9.49
Si -1.19 -9.60  3.94
Si  4.37  0.01  9.49
Si -1.19  9.61  3.94
Si  7.55  3.84 -6.16
Si  7.55 -3.85 -6.16
Si -7.54  0.01  7.27
Si  8.34 -1.92  6.06
Si  8.34  1.93  6.06
Si -8.35 -1.92  6.16
Si -8.35  1.93  6.16
Si  4.36  9.61 -0.51
Si  4.36 -9.61 -0.51
Si -4.37  9.61 -0.61
Si -4.37 -9.61 -0.61
Si  1.19 -7.68  7.17
Si  1.19  7.69  7.17
Si -1.19 -7.68  7.27
Si -1.19  7.69  7.27
Si -1.98 -0.01 -10.50
Si  1.19 -1.91 10.50
Si  1.19  1.93 10.50
Si  7.54 -7.68  0.51
Si  7.54  7.69  0.51
Si -7.54 -7.68  0.61
Si -7.54  7.69  0.61
Si  2.00 -0.01 -10.60
Si -1.19 -1.91 10.61
Si -1.19  1.93 10.61
Si  5.17  1.91 -9.39
Si  5.17 -1.93 -9.39
Si 10.72  1.92 -0.51
Si 10.72 -1.92 -0.51
Si -10.73  1.92 -0.61
Si -10.73 -1.92 -0.61
Si -5.17  1.91 -9.49
Si -5.17 -1.93 -9.49
Si -4.36 -3.83  9.39
Si -4.36  3.85  9.39
Si -10.72  0.00  2.73
Si  5.17  7.68 -6.06
Si  5.17 -7.69 -6.06
Si -1.19  5.76 -9.39
Si -1.19 -5.77 -9.39
Si  7.54 -3.83  7.17
Si 10.73  0.00  2.83
Si  7.54  3.85  7.17
Si -5.17  7.68 -6.16
Si -5.17 -7.69 -6.16
Si  4.37 -3.83  9.49
Si  4.37  3.85  9.49
Si -7.54 -3.84  7.27
Si -7.54  3.85  7.27
Si  1.19  5.75 -9.49
Si -8.35  1.92 -7.17
Si -8.35 -1.93 -7.17
Si  1.19 -5.78 -9.49
Si  8.34  1.91 -7.28
Si  8.34 -1.93 -7.28
Si  5.17  9.61 -2.73
Si  5.17 -9.61 -2.73
Si -5.17  9.60 -2.83
Si -5.17 -9.61 -2.83
Si -1.98  3.83 -10.50
Si -1.98 -3.85 -10.50
Si  4.37 -0.01 -10.50
Si 10.73 -0.00 -3.84
Si -10.72 -0.01 -3.94
Si  2.00  3.83 -10.60
Si  2.00 -3.85 -10.60
Si -4.36 -0.01 -10.60
Si  1.98 -9.60  6.06
Si  1.98  9.61  6.06
Si -11.52  0.00  0.51
Si 11.53  0.00  0.61
Si -5.17 -9.61  3.84
Si -5.17  9.61  3.84
Si -2.00 -9.60  6.16
Si -2.00  9.61  6.16
Si  5.17 -9.60  3.94
Si  1.19 -11.53  0.51
Si  1.19 11.53  0.51
Si  5.17  9.61  3.94
Si -1.19 -11.53  0.61
Si -1.19 11.53  0.61
Si  8.35 -7.68  2.73
Si  8.35  7.69  2.73
Si -8.34 -7.68  2.83
Si -8.34  7.69  2.83
Si -10.72 -3.84  2.73
Si -10.72  3.84  2.73
Si -5.17 -7.68  7.17
Si -5.17  7.69  7.17
Si 10.73 -3.84  2.83
Si 10.73  3.85  2.83
Si  5.17 -7.68  7.27
Si  5.17  7.69  7.27
Si  8.34 -5.76  6.06
Si  8.34  5.77  6.06
Si -5.17 -1.91 10.50
Si -5.17  1.93 10.50
Si -8.35 -5.76  6.16
Si -8.35  5.77  6.16
Si  5.17 -1.91 10.61
Si  5.17  1.93 10.61
Si -8.34  7.68 -3.84
Si -8.34 -7.69 -3.84
Si 11.52  1.92 -2.73
Si 11.52 -1.92 -2.73
Si  4.37  3.83 -10.50
Si  8.35  7.68 -3.94
Si  4.37 -3.85 -10.50
Si  2.00 -11.53  2.73
Si  1.99 11.53  2.73
Si  8.35 -7.69 -3.94
Si -11.53  1.92 -2.83
Si -11.53 -1.93 -2.83
Si 10.73  3.84 -3.84
Si 10.73 -3.85 -3.84
Si -1.99 -11.53  2.83
Si  1.19 -5.76 10.50
Si -1.99 11.53  2.83
Si  1.19  5.77 10.50
Si -10.72  3.84 -3.94
Si -10.72 -3.85 -3.94
Si -4.36  3.83 -10.60
Si -4.36 -3.85 -10.60
Si -1.19 -5.75 10.61
Si -1.19  5.78 10.61
Si -1.99  9.60 -7.17
Si -11.52 -3.84  0.51
Si -1.99 -9.61 -7.17
Si -11.52  3.84  0.51
Si 11.53 -3.84  0.61
Si 11.53  3.84  0.61
Si -4.37 -9.60  6.06
Si  5.17  5.76 -9.39
Si -4.37  9.61  6.06
Si  5.17 -5.77 -9.39
Si 10.72  5.76 -0.51
Si 10.72 -5.76 -0.51
Si -10.73  5.76 -0.61
Si -10.73 -5.76 -0.61
Si -7.54  1.91 -9.39
Si -7.54 -1.93 -9.39
Si  1.99  9.60 -7.28
Si  4.36 -9.60  6.16
Si  1.99 -9.61 -7.28
Si  4.36  9.61  6.16
Si -5.17  5.75 -9.49
Si -5.17 -5.78 -9.49
Si  7.54  1.91 -9.49
Si  7.54 -1.93 -9.49
Si  1.99 -7.68  9.39
Si -11.53 -1.92  3.84
Si -11.53  1.92  3.84
Si  1.99  7.69  9.39
Si -1.98 11.53 -3.84
Si -1.98 -11.53 -3.84
Si 11.52 -1.92  3.94
Si 11.52  1.93  3.94
Si  2.00 11.52 -3.94
Si  2.00 -11.53 -3.94
Si -7.54  7.68 -6.06
Si -7.54 -7.69 -6.06
Si -1.99 -7.68  9.49
Si -1.99  7.70  9.49
Si  7.55  7.68 -6.16
Si  7.55 -7.69 -6.16
Si -8.35  5.76 -7.17
Si -8.35 -5.77 -7.17
Si -10.73 -1.92  6.06
Si -10.73  1.93  6.06
Si  8.34  5.76 -7.28
Si  8.34 -5.77 -7.28
Si 10.72 -1.92  6.16
Si 10.72  1.93  6.16
Si -7.54  9.61 -2.73
Si -7.54 -9.61 -2.73
Si  7.54  9.60 -2.83
Si  7.54 -9.61 -2.83
Si  8.35  0.01  9.39
Si -4.36 -11.53  2.73
Si -4.36 11.53  2.73
Si -8.34  0.01  9.49
Si -5.17 -11.53  0.51
Si -5.17 11.53  0.51
Si  4.37 -11.53  2.83
Si  5.17 -11.53  0.61
Si  5.17 11.53  0.61
Si  4.37 11.53  2.83
Si  8.34  9.61 -0.61
Si  8.34 -9.61 -0.61
Si -8.35 -9.61 -0.51
Si -8.35  9.61 -0.51
Si  4.36  9.60 -7.17
Si  4.36 -9.61 -7.17
Si -1.19 -0.01 -12.73
Si  7.54 -9.61  3.84
Si  7.54  9.61  3.84
Si -4.37  9.60 -7.28
Si -4.37 -9.61 -7.28
Si -7.55 -9.60  3.94
Si -7.55  9.61  3.94
Si  1.19 -0.01 -12.82
Si -4.36 -7.68  9.39
Si -4.36  7.69  9.39
Si  4.37 11.53 -3.84
Si  4.37 -11.53 -3.84
Si  7.54 -7.68  7.17
Si -4.36 11.52 -3.94
Si -4.36 -11.53 -3.94
Si  7.54  7.69  7.17
Si  4.37 -7.68  9.49
Si  4.37  7.70  9.49
Si -7.54 -7.68  7.27
Si -7.54  7.69  7.27
Si  1.98 -1.91 12.72
Si  1.98  1.93 12.72
Si 11.53 -0.01 -6.06
Si 10.72  1.92 -7.17
Si 10.72 -1.93 -7.17
Si -5.17 -5.76 10.50
Si -5.17  5.77 10.50
Si -11.52 -0.01 -6.16
Si  7.54 -1.91 10.50
Si -1.19 11.52 -6.06
Si  7.54  1.93 10.50
Si -1.19 -11.53 -6.06
Si -10.73  1.91 -7.28
Si -10.73 -1.93 -7.28
Si -2.00 -1.91 12.82
Si  1.19 11.52 -6.16
Si -2.00  1.93 12.82
Si  5.17 -5.75 10.61
Si  1.19 -11.53 -6.16
Si  5.17  5.78 10.61
Si  8.35 -3.83  9.39
Si  8.35  3.85  9.39
Si -7.55 -1.91 10.61
Si -1.98  7.68 -10.50
Si -7.55  1.93 10.61
Si 11.52  5.76 -2.73
Si 11.52 -5.76 -2.73
Si -1.98 -7.70 -10.50
Si -11.53  5.76 -2.83
Si -11.53 -5.77 -2.83
Si -8.34 -3.83  9.49
Si -8.34  3.85  9.49
Si  2.00  7.67 -10.60
Si  2.00 -7.70 -10.60
Si -1.19  3.83 -12.73
Si -1.19 -3.85 -12.73
Si -7.54  5.76 -9.39
Si -7.54 -5.77 -9.39
Si -8.34 -0.01 -10.50
Si  7.54  5.75 -9.49
Si  7.54 -5.78 -9.49
Si  1.19  3.83 -12.82
Si  1.19 -3.85 -12.82
Si -11.53 -5.76  3.84
Si -11.53  5.77  3.84
Si -10.72 -7.68  2.73
Si -10.72  7.69  2.73
Si 11.52 -5.76  3.94
