500
set: 655.00  0.00  0.00
Si  0.46 -1.10  0.76
Si -0.46  1.10 -0.76
Si -1.49 -1.28 -0.76
Si  1.49  1.28  0.76
Si -1.07 -0.03  2.49
Si  1.07  0.03 -2.49
Si -2.33  1.28  0.76
Si  2.33 -1.28 -0.76
Si  0.04 -2.35 -2.49
Si -0.04  2.35  2.49
Si -0.56 -3.47  0.76
Si  0.56  3.47 -0.76
Si -3.35 -1.10  0.76
Si  3.35  1.10 -0.76
Si  2.75 -0.03  2.49
Si -2.75  0.03 -2.49
Si  1.73 -2.40  2.49
Si -1.73  2.40 -2.49
Si  1.30 -3.65 -0.76
Si -1.30  3.65  0.76
Si  2.09  2.40 -2.49
Si -2.09 -2.40  2.49
Si  0.88  0.15  4.00
Si -0.88 -0.15 -4.00
Si -4.28  1.10 -0.76
Si  4.28 -1.10  0.76
Si -2.51 -3.65 -0.76
Si  2.51  3.65  0.76
Si  0.14  2.22 -4.00
Si -0.14 -2.22  4.00
Si  3.25 -3.47  0.76
Si -3.25  3.47 -0.76
Si -2.94  0.15  4.00
Si  2.94 -0.15 -4.00
Si -3.77 -2.35 -2.49
Si  3.77  2.35  2.49
Si  1.91  2.53  4.00
Si -1.91 -2.53 -4.00
Si -1.91  2.53  4.00
Si  1.91 -2.53 -4.00
Si  3.86 -2.35 -2.49
Si -3.86  2.35  2.49
Si  0.98  4.72  2.49
Si -0.98 -4.72 -2.49
Si  0.70 -4.78  2.49
Si -0.70  4.78 -2.49
Si  4.88  0.03 -2.49
Si -4.88 -0.03  2.49
Si  5.30  1.28  0.76
Si -5.30 -1.28 -0.76
Si  4.38  3.47 -0.76
Si -4.38 -3.47  0.76
Si -3.67  2.22 -4.00
Si  3.67 -2.22  4.00
Si -0.65  1.22  5.74
Si  0.65 -1.22 -5.74
Si  2.83 -4.72 -2.49
Si -2.83  4.72  2.49
Si -3.96 -2.22  4.00
Si  3.96  2.22 -4.00
Si -0.28  6.03  0.76
Si  0.28 -6.03 -0.76
Si  1.67  1.16 -5.74
Si -1.67 -1.16  5.74
Si  1.59  5.85 -0.76
Si -1.59 -5.85  0.76
Si -4.70 -0.15 -4.00
Si  4.70  0.15  4.00
Si -1.17 -4.60  4.00
Si  1.17  4.60 -4.00
Si  3.12  4.78 -2.49
Si -3.12 -4.78  2.49
Si -2.15  1.16 -5.74
Si  2.15 -1.16  5.74
Si -2.23  5.85 -0.76
Si  2.23 -5.85  0.76
Si  6.15 -1.28 -0.76
Si -6.15  1.28  0.76
Si  5.12 -3.65 -0.76
Si -5.12  3.65  0.76
Si  0.89 -4.90 -4.00
Si -0.89  4.90  4.00
Si  5.54 -2.40  2.49
Si -5.54  2.40 -2.49
Si  2.65 -4.60  4.00
Si -2.65  4.60 -4.00
Si  3.17  1.22  5.74
Si -3.17 -1.22 -5.74
Si  0.38  3.60  5.74
Si -0.38 -3.60 -5.74
Si -1.12  3.53 -5.74
Si  1.12 -3.53  5.74
Si  5.91  2.40 -2.49
Si -5.91 -2.40  2.49
Si -2.93 -4.90 -4.00
Si  2.93  4.90  4.00
Si -6.57  0.03 -2.49
Si  6.57 -0.03  2.49
Si -3.54 -6.03 -0.76
Si  3.54  6.03  0.76
Si  4.52 -4.78  2.49
Si -4.52  4.78 -2.49
Si  4.80  4.72  2.49
Si -4.80 -4.72 -2.49
Si -2.69 -3.53  5.74
Si  2.69  3.53 -5.74
Si  7.17  1.10 -0.76
Si -7.17 -1.10  0.76
Si  0.28 -0.97  7.25
Si -0.28  0.97 -7.25
Si  4.10 -6.03 -0.76
Si -4.10  6.03  0.76
Si -6.33 -3.65 -0.76
Si  6.33  3.65  0.76
Si  4.46 -1.22 -5.74
Si -4.46  1.22  5.74
Si -5.72 -2.53 -4.00
Si  5.72  2.53  4.00
Si -5.73  2.53  4.00
Si  5.73 -2.53 -4.00
Si -1.30 -1.40 -7.25
Si  1.30  1.40  7.25
Si -0.32 -7.15  2.49
Si  0.32  7.15 -2.49
Si  3.44 -3.60 -5.74
Si -3.44  3.60  5.74
Si -1.81  7.10  2.49
Si  1.81 -7.10 -2.49
Si  2.01  7.10  2.49
Si -2.01 -7.10 -2.49
Si -2.52  1.40  7.25
Si  2.52 -1.40 -7.25
Si -6.75  0.15  4.00
Si  6.75 -0.15 -4.00
Si -4.98 -4.60  4.00
Si  4.98  4.60 -4.00
Si  4.70 -4.90 -4.00
Si -4.70  4.90  4.00
Si  7.07 -3.47  0.76
Si -7.07  3.47 -0.76
Si  4.20  3.60  5.74
Si -4.20 -3.60 -5.74
Si -5.40 -5.85  0.76
Si  5.40  5.85 -0.76
Si  5.49  1.16 -5.74
Si -5.49 -1.16  5.74
Si  0.75  3.35 -7.25
Si -0.75 -3.35  7.25
Si -3.54 -0.97  7.25
Si  3.54  0.97 -7.25
Si  8.09 -1.10  0.76
Si -8.09  1.10 -0.76
Si  1.62 -6.97  4.00
Si -1.62  6.97 -4.00
Si -0.10  5.91 -5.74
Si  0.10 -5.91  5.74
Si  0.14  7.28  4.00
Si -0.14 -7.28 -4.00
Si  1.49 -3.78 -7.25
Si -1.49  3.78  7.25
Si -7.59 -2.35 -2.49
Si  7.59  2.35  2.49
Si -2.19 -6.97  4.00
Si  2.19  6.97 -4.00
Si  3.49 -7.15  2.49
Si -3.49  7.15 -2.49
Si  1.20 -8.22  0.76
Si -1.20  8.22 -0.76
Si -4.94  3.53 -5.74
Si  4.94 -3.53  5.74
Si  5.96 -1.16  5.74
Si -5.96  1.16 -5.74
Si -4.09  0.97 -7.25
Si  4.09 -0.97  7.25
Si -1.40 -5.97 -5.74
Si  1.40  5.97  5.74
Si  7.67 -2.35 -2.49
Si -7.67  2.35  2.49
Si  6.04 -5.85  0.76
Si -6.04  5.85 -0.76
Si  0.74  8.40  0.76
Si -0.74 -8.40 -0.76
Si  2.33  3.78  7.25
Si -2.33 -3.78 -7.25
Si  6.65 -4.72 -2.49
Si -6.65  4.72  2.49
Si  3.07 -3.35  7.25
Si -3.07  3.35 -7.25
Si  2.41 -5.97 -5.74
Si -2.41  5.97  5.74
Si  4.14  7.15 -2.49
Si -4.14 -7.15  2.49
Si  2.61  8.22 -0.76
Si -2.61 -8.22  0.76
Si  7.49 -2.22  4.00
Si -7.49  2.22 -4.00
Si -6.93 -4.78  2.49
Si  6.93  4.78 -2.49
Si -6.46  4.60 -4.00
Si  6.46 -4.60  4.00
Si -8.20 -3.47  0.76
Si  8.20  3.47 -0.76
Si  3.07 -8.40 -0.76
Si -3.07  8.40  0.76
Si  5.12  1.40  7.25
Si -5.12 -1.40 -7.25
Si -7.78 -2.22  4.00
Si  7.78  2.22 -4.00
Si -3.72 -5.91  5.74
Si  3.72  5.91 -5.74
Si  8.70  0.03 -2.49
Si -8.70 -0.03  2.49
Si  1.25 -0.09 -8.99
Si -1.25  0.09  8.99
Si  3.68 -7.28 -4.00
Si -3.68  7.28  4.00
Si  3.91 -5.91  5.74
Si -3.91  5.91 -5.74
Si  6.99  1.22  5.74
Si -6.99 -1.22 -5.74
Si  3.96  7.28  4.00
Si -3.96 -7.28 -4.00
Si -4.56 -3.35  7.25
Si  4.56  3.35 -7.25
Si  9.12  1.28  0.76
Si -9.12 -1.28 -0.76
Si  6.75  4.90  4.00
Si -6.75 -4.90 -4.00
Si -0.23  2.47  8.99
Si  0.23 -2.47 -8.99
Si  2.56  0.09  8.99
Si -2.56 -0.09 -8.99
Si -6.51 -3.53  5.74
Si  6.51  3.53 -5.74
Si -5.62  7.10  2.49
Si  5.62 -7.10 -2.49
Si  1.54 -2.28  8.99
Si -1.54  2.28 -8.99
Si -8.51 -0.15 -4.00
Si  8.51  0.15  4.00
Si  1.77  5.72 -7.25
Si -1.77 -5.72  7.25
Si  2.04 -5.72  7.25
Si -2.04  5.72 -7.25
Si  5.82  7.10  2.49
Si -5.82 -7.10 -2.49
Si  0.47 -6.15 -7.25
Si -0.47  6.15  7.25
Si  7.35  6.03  0.76
Si -7.35 -6.03 -0.76
Si -2.27 -2.28  8.99
Si  2.27  2.28 -8.99
Si  4.56  8.40  0.76
Si -4.56 -8.40 -0.76
Si -5.02  8.22 -0.76
Si  5.02 -8.22  0.76
Si -8.94  3.65  0.76
Si  8.94 -3.65 -0.76
Si  5.44 -6.97  4.00
Si -5.44  6.97 -4.00
Si  6.33 -1.40 -7.25
Si -6.33  1.40  7.25
Si  5.31 -3.78 -7.25
Si -5.31  3.78  7.25
Si -5.22 -5.97 -5.74
Si  5.22  5.97  5.74
Si  0.78 -9.47 -2.49
Si -0.78  9.47  2.49
Si  7.25 -3.60 -5.74
Si -7.25  3.60  5.74
Si -8.33  4.78 -2.49
Si  8.33 -4.78  2.49
Si -1.35 -9.53  2.49
Si  1.35  9.53 -2.49
Si  7.91 -6.03 -0.76
Si -7.91  6.03  0.76
Si  9.36 -2.40  2.49
Si -9.36  2.40 -2.49
Si  3.59  2.47  8.99
Si -3.59 -2.47 -8.99
Si  6.01  6.97 -4.00
Si -6.01 -6.97  4.00
Si  9.96 -1.28 -0.76
Si -9.96  1.28  0.76
Si  3.35  6.15  7.25
Si -3.35 -6.15 -7.25
Si -0.93 -8.28  5.74
Si  0.93  8.28 -5.74
Si -0.52  4.66 -8.99
Si  0.52 -4.66  8.99
Si  8.62  4.72  2.49
Si -8.62 -4.72 -2.49
Si  8.28 -1.22 -5.74
Si -8.28  1.22  5.74
Si  2.47 -9.53  2.49
Si -2.47  9.53 -2.49
Si  4.04 -2.47 -8.99
Si -4.04  2.47  8.99
Si -0.60  9.35 -4.00
Si  0.60 -9.35  4.00
Si -1.39  8.35  5.74
Si  1.39 -8.35 -5.74
Si -6.14 -3.78 -7.25
Si  6.14  3.78  7.25
Si -0.80 -4.84 -8.99
Si  0.80  4.84  8.99
Si -3.03 -9.47 -2.49
Si  3.03  9.47  2.49
Si  5.07 -0.09 -8.99
Si -5.07  0.09  8.99
Si  9.72  2.40 -2.49
Si -9.72 -2.40  2.49
Si  6.23 -5.97 -5.74
Si -6.23  5.97  5.74
Si -7.36 -0.97  7.25
Si  7.36  0.97 -7.25
Si -2.43 -8.35 -5.74
Si  2.43  8.35  5.74
Si -4.28  6.15  7.25
Si  4.28 -6.15 -7.25
Si -6.43 -8.22  0.76
Si  6.43  8.22 -0.76
Si -2.89  8.28 -5.74
Si  2.89 -8.28  5.74
Si  8.01  3.60  5.74
Si -8.01 -3.60 -5.74
Si -1.16 -9.65 -4.00
Si  1.16  9.65  4.00
Si  7.31 -7.15  2.49
Si -7.31  7.15 -2.49
Si  0.70  0.27 10.50
Si -0.70 -0.27 -10.50
Si  6.88 -3.35  7.25
Si -6.88  3.35 -7.25
Si  8.52 -4.90 -4.00
Si -8.52  4.90  4.00
Si -0.18 10.60 -0.76
Si  0.18 -10.60  0.76
Si -3.02  4.84  8.99
Si  3.02 -4.84 -8.99
Si -3.30 -4.66  8.99
Si  3.30  4.66 -8.99
Si  9.54  2.53  4.00
Si -9.54 -2.53 -4.00
Si  9.54 -2.53 -4.00
Si -9.54  2.53  4.00
Si  3.22  9.35 -4.00
Si -3.22 -9.35  4.00
Si 10.38 -0.03  2.49
Si -10.38  0.03 -2.49
Si  8.80  4.60 -4.00
Si -8.80 -4.60  4.00
Si -5.36  2.28 -8.99
Si  5.36 -2.28  8.99
Si  0.33  2.10 -10.50
Si -0.33 -2.10 10.50
Si -7.91  0.97 -7.25
Si  7.91 -0.97  7.25
Si  2.65 -9.65 -4.00
Si -2.65  9.65  4.00
Si -5.59 -5.72  7.25
Si  5.59  5.72 -7.25
Si 10.14  3.65  0.76
Si -10.14 -3.65 -0.76
Si  4.60 -9.47 -2.49
Si -4.60  9.47  2.49
Si  6.89 -8.40 -0.76
Si -6.89  8.40  0.76
Si -1.02  8.10 -7.25
Si  1.02 -8.10  7.25
Si  5.86 -5.72  7.25
Si -5.86  5.72 -7.25
Si -9.22 -5.85  0.76
Si  9.22  5.85 -0.76
Si  1.77 10.78  0.76
Si -1.77 -10.78 -0.76
Si -3.12  0.27 10.50
Si  3.12 -0.27 -10.50
Si  1.72  2.65 10.50
Si -1.72 -2.65 -10.50
Si  7.96  7.15 -2.49
Si -7.96 -7.15  2.49
Si -9.30 -1.16  5.74
Si  9.30  1.16 -5.74
Si -2.05 10.78  0.76
Si  2.05 -10.78 -0.76
Si -4.33  4.66 -8.99
Si  4.33 -4.66  8.99
Si  6.38  0.09  8.99
Si -6.38 -0.09 -8.99
Si  2.10 -2.65 -10.50
Si -2.10  2.65 10.50
Si -8.75  3.53 -5.74
Si  8.75 -3.53  5.74
Si -10.99 -1.10  0.76
Si 10.99  1.10 -0.76
Si  4.41 -9.35  4.00
Si -4.41  9.35 -4.00
Si  6.09  2.28 -8.99
Si -6.09 -2.28  8.99
Si -5.16 -9.53  2.49
Si  5.16  9.53 -2.49
Si  4.74  8.28 -5.74
Si -4.74 -8.28  5.74
Si  7.54  5.91 -5.74
Si -7.54 -5.91  5.74
Si  7.49 -7.28 -4.00
Si -7.49  7.28  4.00
Si  4.62  4.84  8.99
Si -4.62 -4.84 -8.99
Si -0.56 -8.53 -7.25
Si  0.56  8.53  7.25
Si  2.80  8.10 -7.25
Si -2.80 -8.10  7.25
Si -3.64 -10.60  0.76
Si  3.64 10.60 -0.76
Si  3.49 -2.10 10.50
Si -3.49  2.10 -10.50
Si  7.73 -5.91  5.74
Si -7.73  5.91 -5.74
Si -10.57  0.15  4.00
Si 10.57 -0.15 -4.00
Si  3.99 -10.60  0.76
Si -3.99 10.60 -0.76
Si -7.77 -7.28 -4.00
Si  7.77  7.28  4.00
Si  5.20 -8.35 -5.74
Si -5.20  8.35  5.74
Si -9.78  1.16 -5.74
Si  9.78 -1.16  5.74
Si  0.51  7.03 -8.99
Si -0.51 -7.03  8.99
Si -4.51 -0.27 -10.50
Si  4.51  0.27 10.50
Si 10.88 -3.47  0.76
Si -10.88  3.47 -0.76
Si  4.14  2.10 -10.50
Si -4.14 -2.10 10.50
Si -9.86  5.85 -0.76
Si  9.86 -5.85  0.76
Si  1.35  4.48 -10.50
Si -1.35 -4.48 10.50
Si  4.98  9.65  4.00
Si -4.98 -9.65 -4.00
Si  8.38  3.35 -7.25
Si -8.38 -3.35  7.25
Si -8.93 -1.40 -7.25
Si  8.93  1.40  7.25
Si  3.26 -8.53 -7.25
Si -3.26  8.53  7.25
Si -1.82 -7.22 -8.99
Si  1.82  7.22  8.99
Si -2.46  4.48 -10.50
Si  2.46 -4.48 10.50
Si  6.28 -9.53  2.49
Si -6.28  9.53 -2.49
Si -1.07  5.03 10.50
Si  1.07 -5.03 -10.50
Si  1.99 -7.22 -8.99
Si -1.99  7.22  8.99
Si -10.46  4.72  2.49
Si 10.46 -4.72 -2.49
Si  3.31 -7.03  8.99
Si -3.31  7.03 -8.99
Si -8.38 -8.40 -0.76
Si  8.38  8.40  0.76
Si  6.24  8.35  5.74
Si -6.24 -8.35 -5.74
Si -4.83  8.10 -7.25
Si  4.83 -8.10  7.25
Si -7.41 -2.47 -8.99
Si  7.41  2.47  8.99
Si  7.17  6.15  7.25
Si -7.17 -6.15 -7.25
Si -11.41 -2.35 -2.49
Si 11.41  2.35  2.49
Si  6.85  9.47  2.49
Si -6.85 -9.47 -2.49
Si 10.28 -4.60  4.00
Si -10.28  4.60 -4.00
Si -2.75 -5.03 -10.50
Si  2.75  5.03 10.50
Si 11.91 -1.10  0.76
Si -11.91  1.10 -0.76
Si -11.49  2.35  2.49
Si 11.49 -2.35 -2.49
Si -4.38 -8.53 -7.25
Si  4.38  8.53  7.25
Si 10.75  4.78 -2.49
Si -10.75 -4.78  2.49
Si  9.44 -7.10 -2.49
Si -9.44  7.10  2.49
Si -8.83  8.22 -0.76
Si  8.83 -8.22  0.76
Si  6.70 -8.28  5.74
Si -6.70  8.28 -5.74
Si -0.24 -11.85 -2.49
Si  0.24 11.85  2.49
Si -5.58 -10.78 -0.76
Si  5.58 10.78  0.76
