500
set: 851.00  0.00  0.00
Si -0.42  1.21 -0.83
Si  0.44 -1.20  0.84
Si -1.40 -1.19 -0.85
Si  1.43  1.25  0.88
Si  0.87  0.01 -2.55
Si -2.24  1.25  0.86
Si  2.27 -1.24 -0.84
Si -0.91  0.01  2.56
Si  0.09  2.44  2.51
Si  3.21  1.27 -0.83
Si  0.01 -2.46 -2.60
Si -3.26 -1.24  0.88
Si  2.76  0.04  2.56
Si -2.77  0.03 -2.56
Si -0.52 -3.73  0.87
Si  0.54  3.74 -0.86
Si -1.71  2.48 -2.52
Si  1.76 -2.47  2.57
Si  1.91  2.48 -2.56
Si -1.32  3.74  0.83
Si  1.23 -3.77 -0.90
Si -1.89 -2.54  2.56
Si  4.04 -1.18  0.84
Si -0.89  0.00 -4.23
Si  0.91 -0.03  4.25
Si -4.11  1.26 -0.89
Si -2.38 -3.70 -0.86
Si  2.39  3.72  0.87
Si -0.13 -2.49  4.26
Si -3.15  3.71 -0.84
Si  0.09  2.49 -4.27
Si  3.13 -3.73  0.87
Si -3.57  2.48  2.55
Si  2.73 -0.01 -4.26
Si  3.64 -2.48 -2.52
Si -2.75  0.05  4.28
Si -3.69 -2.49 -2.54
Si  3.68  2.45  2.60
Si -1.76  2.47  4.17
Si  4.55  0.01 -2.50
Si  1.80 -2.51 -4.22
Si -1.88 -2.48 -4.23
Si -4.60  0.02  2.59
Si -5.05 -1.22 -0.89
Si  1.93  2.48  4.25
Si  5.07  1.22  0.91
Si  4.14  3.67 -0.90
Si  1.02  4.90  2.56
Si -0.77  4.96 -2.54
Si -1.00 -4.96 -2.56
Si  0.77 -4.99  2.60
Si -4.24 -3.71  0.83
Si -3.61  2.47 -4.25
Si -5.90  1.22  0.91
Si  3.61 -2.49  4.24
Si  5.92 -1.22 -0.89
Si  0.47 -1.25 -5.96
Si -0.42  1.24  5.99
Si -3.74 -2.49  4.21
Si -2.63  4.97  2.52
Si  3.70  2.45 -4.29
Si  2.64 -5.01 -2.58
Si  1.32  1.23 -5.95
Si  4.91 -3.73 -0.84
Si -1.37 -1.23  5.95
Si -4.93  3.71  0.87
Si  0.30 -6.18 -0.83
Si  4.55  0.02  4.29
Si -2.82 -5.00  2.51
Si -4.59 -0.01 -4.28
Si -0.35  6.21  0.88
Si  2.92  4.98 -2.60
Si -1.48 -6.20  0.88
Si  2.25 -1.27  5.93
Si  5.42 -2.47  2.52
Si -5.42  2.44 -2.58
Si  1.51  6.25 -0.85
Si -2.28  1.23 -6.00
Si -0.83  4.95  4.21
Si -5.55 -2.47  2.52
Si  5.55  2.44 -2.58
Si  1.03  4.96 -4.23
Si -0.98 -4.97  4.25
Si  0.79 -4.99 -4.29
Si -2.14  6.22 -0.89
Si  2.16 -6.23  0.91
Si  6.37  0.02  2.59
Si -6.42  0.01 -2.50
Si  3.26  1.21  5.99
Si -3.21 -1.25 -6.04
Si  6.86  1.26 -0.89
Si  2.64 -4.96  4.24
Si -2.64  4.94 -4.28
Si -0.55 -3.75 -5.96
Si  0.57  3.73  5.99
Si -6.93 -1.18  0.84
Si  2.78  4.95  4.26
Si -4.42  4.96 -2.52
Si -3.33 -6.24 -0.83
Si -2.82 -4.95 -4.27
Si  3.35  6.24  0.84
Si  6.04  3.71  0.87
Si  1.28 -3.73  5.96
Si -1.30  3.77 -5.93
Si  4.49 -4.96  2.55
Si -6.06 -3.73 -0.84
Si -4.62 -4.96 -2.52
Si  4.67  4.97  2.57
Si -4.10  1.22  5.93
Si -5.42  2.49  4.24
Si  5.42 -2.50 -4.28
Si  4.10 -1.23 -5.97
Si  3.95 -6.18 -0.89
Si  2.37  3.69 -5.96
Si  5.55  2.49  4.24
Si -2.35 -3.72  5.99
Si -5.55 -2.50 -4.28
Si -4.02  6.27  0.84
Si  3.10 -3.70 -5.93
Si -3.13  3.72  5.94
Si  6.38 -0.01 -4.28
Si -6.42  0.02  4.29
Si  6.74 -3.71  0.83
Si -0.43  1.18 -7.66
Si  0.46 -1.24  7.65
Si -6.83  3.67 -0.90
Si -0.15 -7.41  2.56
Si  1.47  1.26  7.61
Si  7.71 -1.24  0.88
Si -4.46  4.95  4.24
Si  0.14  7.47 -2.56
Si -7.76  1.27 -0.83
Si  4.45 -4.98 -4.25
Si  5.06  1.23 -5.98
Si -5.06 -1.25  5.97
Si -1.37 -1.28 -7.70
Si -4.67 -4.97  4.17
Si  1.64 -7.43 -2.50
Si  4.72  4.93 -4.22
Si  2.22 -1.27 -7.62
Si -1.69  7.46  2.59
Si -2.23  1.24  7.67
Si -5.15 -6.20  0.86
Si  7.29 -2.49 -2.54
Si -2.04 -7.43 -2.55
Si -7.29  2.45  2.60
Si  5.18  6.21 -0.84
Si  2.00  7.46  2.56
Si -7.33 -2.48 -2.52
Si -4.21 -3.68 -5.93
Si  4.19  3.71  5.96
Si  7.40  2.48  2.55
Si  3.21  1.25 -7.64
Si -3.17 -1.24  7.70
Si -6.30  4.97  2.57
Si  6.35 -4.96 -2.52
Si  5.91 -1.25  5.97
Si -5.91  1.23 -5.98
Si -5.79  6.21 -0.84
Si -0.58 -3.71  7.67
Si  0.54  3.73 -7.66
Si  5.82 -6.20  0.86
Si -6.49 -4.96  2.55
Si  4.93 -3.73  5.94
Si -0.18 -7.45 -4.26
Si -4.96  3.74 -5.93
Si  3.46 -7.42  2.59
Si  8.20  0.03 -2.56
Si  1.30 -3.68 -7.66
Si  6.55  4.96 -2.52
Si -8.21  0.04  2.56
Si -3.51  7.46 -2.50
Si -1.31  3.75  7.65
Si  0.16  7.49  4.28
Si -0.30  6.19 -6.04
Si  0.35 -6.23  5.99
Si  7.82  3.71 -0.84
Si  1.64 -7.42  4.29
Si -7.84 -3.73  0.87
Si  1.13 -8.62  0.84
Si  7.23 -2.49  4.21
Si -3.82 -7.43  2.56
Si -1.68  7.44 -4.28
Si  1.54  6.22  5.95
Si  3.79  7.46 -2.55
Si -0.65 -8.68 -0.84
Si -1.59 -6.21 -5.95
Si  0.68  8.69  0.86
Si  4.10 -1.28  7.64
Si -7.27  2.45 -4.29
Si  2.02  7.45 -4.23
Si -4.09  1.25 -7.70
Si -2.00 -7.47  4.25
Si -1.20  8.70 -0.89
Si -2.37 -3.71 -7.66
Si -8.71 -1.24 -0.84
Si  2.33  3.73  7.67
Si  7.37  2.47 -4.25
Si -7.37 -2.49  4.24
Si -2.15  6.19  5.97
Si  8.73  1.25  0.86
Si  2.15 -6.21 -5.98
Si -6.25  4.93 -4.22
Si -2.48 -8.64  0.84
Si  2.49  8.65 -0.83
Si  6.30 -4.97  4.17
Si -3.14  3.74 -7.63
Si  3.10 -3.71  7.71
Si  6.87  1.22  5.93
Si -6.88 -1.23 -5.97
Si -2.99  8.66  0.91
Si  3.00 -8.67 -0.89
Si  6.52  4.95  4.24
Si  6.01  3.74 -5.93
Si -6.52 -4.98 -4.25
Si  3.38  6.20 -5.96
Si -3.33 -6.21  5.99
Si -5.03 -1.24 -7.67
Si -6.04 -3.73  5.94
Si  3.47 -7.45 -4.28
Si  8.22  0.05  4.28
Si -8.24 -0.01 -4.26
Si -3.51  7.46  4.29
Si  5.10  1.24  7.70
Si  3.82  7.42  4.25
Si -3.80 -7.44 -4.23
Si -8.58  3.72  0.87
Si  0.94 -0.01 -9.35
Si -7.02 -6.18 -0.89
Si  8.60 -3.70 -0.86
Si  6.95  6.27  0.84
Si -0.92  0.02  9.35
Si  5.29 -7.42 -2.56
Si  3.96 -6.22  5.93
Si -3.96  6.21 -5.97
Si -4.22 -3.69  7.65
Si  4.21  3.76 -7.66
Si -5.30  7.48  2.56
Si -0.03 -2.48 -9.34
Si -9.54  1.25  0.88
Si -5.68 -7.42 -2.56
Si  9.57 -1.19 -0.85
Si -4.31 -8.64 -0.85
Si  2.69 -0.05  9.32
Si  0.06  2.53  9.36
Si  6.76 -3.68 -5.93
Si  5.67  7.48  2.56
Si -9.06  2.48 -2.56
Si  4.34  8.69  0.88
Si -5.87  1.24  7.70
Si -6.78  3.71  5.96
Si  9.08 -2.54  2.56
Si  5.94 -1.24 -7.67
Si -2.78  0.01 -9.39
Si  4.92 -3.70 -7.63
Si -8.05  4.98 -2.60
Si -1.80  2.48 -9.34
Si -7.71  1.21  5.99
Si  0.30 -6.20 -7.64
Si  1.75 -2.45  9.39
Si -9.21 -2.47  2.57
Si  8.15 -5.00  2.51
Si  1.89  2.52 -9.37
Si -0.26  6.20  7.70
Si -7.62  6.24  0.84
Si  7.64 -6.24 -0.83
Si -1.87 -2.52  9.39
Si -4.96  3.73  7.71
Si  9.26  2.48 -2.52
Si  7.76 -1.25 -6.04
Si -1.45 -6.18  7.61
Si  4.80 -8.68  0.88
Si  1.54  6.17 -7.70
Si  5.16  6.17  5.93
Si -4.85  8.71 -0.83
Si  8.34  4.97  2.52
Si -8.33 -5.01 -2.58
Si  5.31 -7.40  4.28
Si -5.19 -6.21 -6.00
Si -2.12  6.20 -7.67
Si -5.33  7.43 -4.26
Si  2.19 -6.20  7.70
Si -5.66 -7.40  4.28
Si  5.64  7.43 -4.26
Si  0.73 -9.92 -2.52
Si -0.66  9.93  2.55
Si  3.62 -2.51 -9.30
Si -9.05  2.48  4.25
Si -3.60  2.50  9.33
Si  1.20  9.92 -2.52
Si -1.15 -9.92  2.57
Si  9.09 -2.48 -4.23
Si -5.81  6.17  5.93
Si -6.88 -1.28  7.64
Si -3.69 -2.48 -9.36
Si  9.65  3.74  0.83
Si 10.06  0.01  2.56
Si  3.72  2.49  9.38
Si  5.78 -6.21 -6.00
Si  6.88  1.25 -7.70
Si -9.17 -2.51 -4.22
Si  3.37  6.20  7.65
Si  4.58 -0.01 -9.35
Si  9.21  2.47  4.17
Si -10.10  0.01 -2.55
Si -6.05 -3.70 -7.63
Si -4.60 -0.01  9.37
Si  8.15 -4.95 -4.27
Si -3.34 -6.27 -7.66
Si  6.01  3.73  7.71
Si -8.19  4.95  4.26
Si -9.74 -3.77 -0.90
Si -2.51  9.88 -2.58
Si  7.84  3.72  5.94
Si -7.88 -3.70 -5.93
Si  2.51 -9.91  2.52
Si -0.66 -8.71  5.93
Si  0.63  8.67 -6.00
Si -1.19  8.66  5.93
Si -8.33 -4.96  4.24
Si -3.96  6.16  7.64
Si  8.33  4.94 -4.28
Si  1.18 -8.68 -5.97
Si  7.15 -7.43  2.56
Si -8.72 -1.27  5.93
Si -0.78  4.97 -9.36
Si  8.69  1.23 -6.00
Si  3.00  9.89  2.51
Si  0.81 -4.96  9.38
Si -1.02 -4.92 -9.37
Si -10.54 -1.20  0.84
Si -2.90 -9.91 -2.60
Si  3.97 -6.20 -7.70
Si 10.55  1.21 -0.83
Si  1.04  4.93  9.39
Si -7.19  7.46 -2.55
Si  6.12  8.71 -0.83
Si -6.17 -8.68  0.88
Si -0.69  9.91 -4.25
Si  1.16  9.91  4.17
Si -2.44 -8.69 -5.96
Si  0.69 -9.94  4.24
Si -8.81 -6.23  0.91
Si  8.83  6.22 -0.89
Si  2.49  8.68  5.99
Si  7.46  7.46 -2.50
Si  6.75 -3.69  7.65
Si -1.11 -9.96 -4.22
Si -7.51 -7.42  2.59
Si -6.76  3.76 -7.66
Si  2.58 -4.90 -9.38
Si -2.65  4.98  9.32
Si -10.06 -0.03  4.25
Si 10.08  0.00 -4.23
Si  6.66 -8.64 -0.85
Si -3.00  8.67 -5.98
Si -2.85 -4.91  9.36
Si -7.76  1.25 -7.64
Si  2.88  4.97 -9.34
Si  3.00 -8.70  5.97
Si -6.63  8.69  0.88
Si  7.80 -1.24  7.70
Si  5.41 -2.46  9.32
Si  5.13  6.17 -7.62
Si -2.51  9.93  4.24
Si -7.01 -6.22  5.93
Si -8.61  3.69 -5.96
Si  7.01  6.21 -5.97
Si  2.51 -9.94 -4.28
Si -0.92  0.02 -11.08
Si -10.44  3.74 -0.86
Si  0.94 -0.01 11.08
Si -5.14 -6.21  7.67
Si -4.38  9.89  2.60
Si -5.56 -2.46  9.32
Si 10.45 -3.73  0.87
Si  8.63 -3.72  5.99
Si -7.15  7.42  4.25
Si  4.37 -9.93 -2.54
Si -5.47  2.54 -9.38
Si  5.50  2.54 -9.38
Si  7.17 -7.44 -4.23
Si -0.24 11.16 -0.84
Si  0.22 -11.18  0.87
Si  3.00  9.94 -4.27
Si -3.04 -9.94  4.26
Si  1.59 11.18  0.83
Si -6.39 -0.01 -9.35
Si  4.82  9.92 -2.56
Si  6.37 -0.01  9.37
Si  4.24  8.67 -5.95
Si -4.28 -8.67  5.95
Si  0.06  2.53 -11.07
Si  9.60 -1.23  5.95
Si  9.49 -6.20  0.88
Si -2.02 11.15  0.87
Si -9.46  6.25 -0.85
Si -0.03 -2.47 11.10
Si -4.80 -9.99  2.56
Si -1.68 -11.21 -0.90
Si -9.95  4.90  2.56
Si  2.00 -11.17 -0.84
Si -2.78  0.02 11.05
Si  7.46  7.46  4.29
Si -9.65  1.23 -5.95
Si -7.50 -7.45 -4.28
Si -5.84  6.17 -7.62
Si  9.97 -4.96 -2.56
Si -4.45  4.94 -9.30
Si  2.68 -0.05 -11.11
Si -10.88  2.44  2.51
Si  1.75 -2.46 -11.05
Si  4.46 -4.95  9.33
Si  5.83 -6.21  7.67
Si -7.59  6.20 -5.96
Si -1.88 -2.52 -11.04
Si -11.39  1.21 -0.83
Si  1.89  2.52 11.06
Si 11.41 -1.20  0.84
Si -1.80  2.49 11.09
Si  7.64 -6.21  5.99
Si -10.96 -2.46 -2.60
Si 10.98 -2.46 -2.60
Si  7.83  3.74 -7.63
Si -4.80  8.65  5.99
Si -4.71 -4.96 -9.34
Si -0.69 -8.71 -7.62
Si 11.06  2.44  2.51
Si  0.68  8.68  7.67
Si  4.67  4.99  9.39
Si 10.20  4.96 -2.54
Si  4.32 -9.93  4.21
Si -7.87 -3.71  7.71
Si -4.36  9.89 -4.29
Si  4.85 -8.70 -6.04
Si -10.20 -4.99  2.60
Si  1.19 -8.73  7.64
Si -8.75 -1.27 -7.62
Si -1.18  8.69 -7.70
Si  8.74  1.24  7.67
Si -3.43 -11.17  0.87
Si  3.45 11.19 -0.86
Si  2.48  8.62 -7.66
Si -4.79 -9.93 -4.23
Si -7.97 -8.67 -0.89
Si  7.98  8.66  0.91
Si  3.83 -11.15  0.83
Si -3.92 11.11 -0.90
Si  4.84  9.92  4.25
Si -2.45 -8.69  7.65
Si -9.94  4.96 -4.23
Si  8.93 -7.43 -2.55
Si 10.84 -2.49  4.26
Si  3.72  2.48 -11.06
Si -3.69 -2.47 11.07
Si  9.99 -4.97  4.25
Si -3.60  2.50 -11.11
Si -8.97  7.46  2.56
Si -6.15  9.92 -2.56
Si -10.88  2.49 -4.27
Si  9.68  3.77 -5.93
Si -0.23 -7.49  9.32
Si  3.62 -2.50 11.13
Si  3.03 -8.68 -7.67
Si -9.70 -3.73  5.96
Si -2.96  8.69  7.70
Si -4.61 -0.01 -11.06
Si  0.13  7.46 -9.39
Si  4.58 -0.01 11.08
Si  6.17 -9.99  2.56
Si 10.15  4.95  4.21
Si  7.01  6.16  7.64
Si  1.67 -7.46 -9.35
Si -1.69  7.44  9.37
Si  8.60 -3.71 -7.66
Si -7.25  2.49  9.38
Si -11.49 -3.73  0.87
Si -7.00 -6.20 -7.70
Si 11.06  2.49 -4.27
Si  7.28 -2.48 -9.36
Si -1.97 -7.45 -9.35
Si 11.85  0.01 -2.55
Si -10.18 -4.99 -4.29
Si -7.36 -2.51 -9.30
Si 11.51  3.74 -0.86
Si  1.99  7.47  9.35
Si  1.04  4.93 -11.04
Si -8.48  8.65 -0.83
Si -8.64  3.73  7.67
Si -10.50 -1.25 -5.96
Si  0.81 -4.96 -11.06
Si -1.02 -4.92 11.06
Si  8.50 -8.64  0.84
Si  7.37  2.50  9.33
Si -11.10 -2.49  4.26
Si -11.88  0.01  2.56
Si -0.78  4.97 11.07
Si  6.59  9.89  2.60
Si -9.33 -7.43 -2.50
Si  9.29  7.46  2.59
