500
set: 371.00  0.00  0.00
Si -0.09  0.00 -0.10
Si  1.75  1.06  0.76
Si -0.11 -2.08  0.77
Si -1.93  1.10  0.74
Si  0.09 -0.02 -2.37
Si  1.82 -3.17  0.06
Si -1.83  0.93  3.03
Si  3.69  0.05 -0.07
Si  1.78  3.25  0.08
Si -1.84 -1.09 -3.05
Si  0.15  2.17 -3.03
Si  0.15 -2.13  3.06
Si  1.89  1.07  3.04
Si -1.95 -3.21  0.08
Si -3.77  0.05 -0.07
Si  1.89 -1.22 -3.06
Si -1.91  3.29  0.06
Si -1.76  3.09 -2.21
Si -0.03  2.12  3.72
Si -1.77 -3.23 -2.20
Si  3.71 -2.05  0.80
Si -3.75 -2.05  0.80
Si  1.96  3.23 -2.20
Si  3.70 -0.04 -2.37
Si -1.76 -1.22  3.87
Si -3.76 -0.04 -2.37
Si -0.02  4.40  0.80
Si  1.96 -1.07  3.88
Si  1.97 -3.37 -2.21
Si -3.62  2.18 -3.01
Si -3.62 -2.13  3.08
Si  0.11 -4.28 -3.01
Si  0.11  4.33  3.08
Si  3.83  2.18 -3.01
Si  3.83 -2.13  3.08
Si -3.64  2.13  3.72
Si  5.53  1.10  0.74
Si  1.80 -5.36  0.74
Si  0.09 -4.33  3.72
Si  3.62  4.38  0.77
Si  3.81  2.13  3.72
Si  1.80 -1.05 -5.35
Si -0.11  2.22 -5.31
Si -1.98 -1.09 -5.33
Si -1.98 -5.40  0.76
Si -5.71  1.06  0.76
Si -3.83  4.38  0.77
Si -1.83  5.23 -3.06
Si -3.58 -4.29 -3.03
Si  5.50 -3.21  0.08
Si -3.58  4.32  3.06
Si  1.82  1.14 -6.03
Si -0.04  2.20  6.01
Si -0.04 -6.41 -0.07
Si -1.95  1.10 -6.01
Si -5.57  1.07  3.04
Si  5.55  3.29  0.06
Si  5.62  0.93  3.03
Si -1.84 -5.39  3.04
Si  1.89  5.37 -3.05
Si -5.56 -1.22 -3.06
Si -5.63 -3.17  0.06
Si  5.62 -1.09 -3.05
Si  1.78 -1.06  6.16
Si -0.04  6.51 -0.07
Si -0.04 -2.10 -6.16
Si -1.91 -1.02  6.14
Si  3.87 -4.29 -3.03
Si -5.68  3.25  0.08
Si  3.88  4.32  3.06
Si  1.89 -5.53  3.03
Si -5.50  3.23 -2.20
Si -0.02 -4.21 -5.28
Si  3.70 -4.34  3.72
Si  1.97  5.24  3.87
Si -5.49 -3.37 -2.21
Si -5.50 -1.07  3.88
Si  3.71  2.25 -5.28
Si -3.76 -4.34  3.72
Si -0.03  6.42 -2.37
Si  5.70  3.09 -2.21
Si -3.75  2.25 -5.28
Si -1.77  5.38  3.88
Si -0.02  0.10  6.89
Si  5.69 -3.23 -2.20
Si -0.03 -6.49 -2.37
Si  5.70 -1.22  3.87
Si  3.64  2.15  5.99
Si  7.36  0.00 -0.10
Si -0.09 -4.30  5.99
Si  3.63 -6.46 -0.10
Si  3.64  6.46 -0.10
Si -3.82  2.15  5.99
Si  3.63 -2.15 -6.19
Si -3.82 -6.46 -0.10
Si -3.82  6.46 -0.10
Si -0.09  4.30 -6.19
Si -7.55  0.00 -0.10
Si -3.82 -2.15 -6.19
Si  7.35 -2.08  0.77
Si  3.62 -4.23 -5.31
Si  5.48 -1.09 -5.33
Si  5.48 -5.40  0.76
Si -7.37 -0.02 -2.37
Si  3.62  0.07  6.86
Si  1.75  5.37 -5.33
Si -3.64  6.43 -2.37
Si  1.80  3.25  6.83
Si  1.75 -3.24  6.85
Si -1.93 -3.20  6.83
Si -3.64 -6.48 -2.37
Si -3.83 -4.23 -5.31
Si  1.80  7.56  0.74
Si -1.98  7.52  0.76
Si -1.98  3.21  6.85
Si -5.66 -5.36  0.74
Si -1.93  5.41 -5.35
Si  3.81  6.43 -2.37
Si -5.66 -1.05 -5.35
Si -3.83  0.07  6.86
Si -7.56 -2.08  0.77
Si  3.81 -6.48 -2.37
Si  7.54 -0.02 -2.37
Si -7.31  2.17 -3.03
Si  1.90  7.39  3.03
Si -7.31 -2.13  3.06
Si  5.50  1.10 -6.01
Si  3.69 -4.25  6.01
Si  1.78 -5.36 -6.01
Si -1.91 -5.32 -6.03
Si  5.62  5.23 -3.06
Si -3.77 -4.25  6.01
Si -5.57  5.37 -3.05
Si -1.84  7.52  3.04
Si -5.63  1.14 -6.03
Si  5.55 -1.02  6.14
Si  1.89 -7.54 -3.05
Si  5.62 -5.39  3.04
Si  3.69  4.36 -6.16
Si  1.82  5.44  6.14
Si -5.56 -5.53  3.03
Si -1.95  5.40  6.16
Si -3.77  4.36 -6.16
Si -5.68 -1.06  6.16
Si  7.60  2.17 -3.03
Si  7.60 -2.13  3.06
Si -1.83 -7.68 -3.06
Si -5.48  5.24  3.87
Si -1.77  1.08 -8.29
Si -0.02 -8.51  0.80
Si  7.42  2.12  3.72
Si  1.97  0.94 -8.30
Si -7.49  2.12  3.72
Si -1.77 -7.53  3.88
Si  7.44  4.40  0.80
Si -7.47  4.40  0.80
Si -0.03 -2.19 -8.46
Si  5.69  5.38  3.88
Si  1.97 -7.67  3.87
Si -7.35 -4.28 -3.01
Si -7.35  4.33  3.08
Si  0.11  0.02 -9.10
Si  0.11 -8.59  3.08
Si  0.11  8.63 -3.01
Si  0.11  0.03  9.17
Si  7.56 -4.28 -3.01
Si  7.56  4.33  3.08
Si  9.20  1.06  0.76
Si  3.62 -8.54  0.77
Si -7.37 -4.33  3.72
Si  5.48  7.52  0.76
Si  7.35  2.22 -5.31
Si  5.48  3.21  6.85
Si  5.53 -3.20  6.83
Si  0.09  8.59  3.72
Si -0.11 -6.38  6.86
Si -3.83 -8.54  0.77
Si  5.53  5.41 -5.35
Si  1.75 -7.55 -5.33
Si -1.93 -7.51 -5.35
Si -5.65  3.25  6.83
Si -3.64 -2.17 -8.45
Si  7.54 -4.33  3.72
Si -5.65  7.56  0.74
Si -0.11  6.53  6.86
Si -5.71  5.37 -5.33
Si -9.38  1.10  0.74
Si  0.09  4.28 -8.45
Si -5.71 -3.24  6.85
Si -7.56  2.22 -5.31
Si  3.81 -2.17 -8.45
Si -5.56  7.39  3.03
Si  5.55 -5.32 -6.03
Si  9.23  3.25  0.08
Si -3.58  0.02 -9.12
Si  7.41  2.20  6.01
Si  7.41 -6.41 -0.07
Si -3.58 -8.59  3.06
Si  9.28 -3.17  0.06
Si  1.90  3.08  9.12
Si -1.91 -9.63  0.06
Si  1.78  7.55 -6.01
Si -9.29  0.93  3.03
Si -3.58  8.63 -3.03
Si -3.58  0.02  9.15
Si  1.78 -9.66  0.08
Si  1.89  3.08 -9.15
Si -9.29 -1.09 -3.05
Si  1.82 -7.47  6.14
Si -1.84  3.22  9.13
Si -5.68 -5.36 -6.01
Si -5.57 -7.54 -3.05
Si -1.84  3.22 -9.14
Si -7.50  2.20  6.01
Si -7.50 -6.41 -0.07
Si  7.41  6.51 -0.07
Si  7.41 -2.10 -6.16
Si  1.89 -3.24  9.13
Si  5.62  7.52  3.04
Si  5.50  5.40  6.16
Si  1.89 -3.24 -9.14
Si -1.91  7.59 -6.03
Si  9.35  1.07  3.04
Si -1.83 -3.38  9.12
Si -1.95  9.71  0.08
Si  3.87  0.02 -9.12
Si  3.87 -8.59  3.06
Si -1.95 -7.51  6.16
Si  1.82  9.74  0.06
Si  9.35 -1.22 -3.06
Si -1.83 -3.38 -9.15
Si -9.36  3.29  0.06
Si -7.50  6.51 -0.07
Si  3.88  8.63 -3.03
Si -7.50 -2.10 -6.16
Si  3.88  0.02  9.15
Si -9.41 -3.21  0.08
Si -5.63  5.44  6.14
Si -9.21  3.09 -2.21
Si  1.97  9.54 -2.21
Si -5.49  0.94 -8.30
Si  5.62 -7.68 -3.06
Si -9.22 -3.23 -2.20
Si  7.44 -4.21 -5.28
Si -0.03 -2.19  9.81
Si  3.70  8.57  3.72
Si -9.21 -1.22  3.87
Si -3.76  8.57  3.72
Si -7.47 -4.21 -5.28
Si  1.96 -5.38 -8.29
Si  3.71 -6.36  6.89
Si -1.77  9.69 -2.20
Si -3.75 -6.36  6.89
Si  7.42  6.42 -2.37
Si  5.69  1.08 -8.29
Si  1.96 -9.68 -2.20
Si -1.76 -5.52 -8.30
Si  7.44  0.10  6.89
Si  7.42 -6.49 -2.37
Si -7.49  6.42 -2.37
Si -7.47  0.10  6.89
Si  3.70  4.27 -8.46
Si -1.77  1.08  9.97
Si -0.02  8.71 -5.28
Si -7.49 -6.49 -2.37
Si -3.76  4.27 -8.46
Si  1.97  0.94  9.96
Si  9.42  3.23 -2.20
Si -5.49 -7.67  3.87
Si  5.69 -7.53  3.88
Si  3.71  6.55  6.89
Si -3.75  6.55  6.89
Si -1.76 -9.83 -2.21
Si  9.42 -1.07  3.88
Si  9.43 -3.37 -2.21
Si  7.36 -4.30  5.99
Si -0.09  8.61  5.99
Si  7.36  4.30 -6.19
Si -7.55 -4.30  5.99
Si -0.09 -8.61 -6.19
Si -7.55  4.30 -6.19
Si -3.64 -2.17  9.81
Si  0.09  4.28  9.81
Si  9.26 -5.36  0.74
Si  9.26 -1.05 -5.35
Si  3.81 -2.17  9.81
Si  5.53 -7.51 -5.35
Si  3.62  8.68 -5.31
Si -5.71 -7.55 -5.33
Si -0.11 10.83  0.77
Si -3.83  8.68 -5.31
Si -9.44 -1.09 -5.33
Si -9.44 -5.40  0.76
Si -9.29  5.23 -3.06
Si  5.55 -9.63  0.06
Si -5.56  3.08  9.12
Si  9.28  1.14 -6.03
Si -5.56  3.08 -9.15
Si 11.14  0.05 -0.07
Si  9.23 -1.06  6.16
Si  5.50  9.71  0.08
Si  0.15 -6.44 -9.12
Si  0.15 -10.74 -3.03
Si -9.29 -5.39  3.04
Si  5.50 -7.51  6.16
Si  3.69  8.66  6.01
Si -5.57 -3.24  9.13
Si  3.68 -8.56 -6.16
Si  5.55  7.59 -6.03
Si -5.57 -3.24 -9.14
Si  0.15  6.47 -9.12
Si  0.15 -6.44  9.15
Si  5.62  3.22  9.13
Si -5.63 -7.47  6.14
Si -3.77  8.66  6.01
Si  5.62  3.22 -9.14
Si -5.68  7.55 -6.01
Si -3.77 -8.56 -6.16
Si  9.35  5.37 -3.05
Si  0.15 10.78  3.06
Si  0.15  6.47  9.15
Si -5.68 -9.66  0.08
Si -9.41  1.10 -6.01
Si -11.23  0.05 -0.07
Si -5.48  9.54 -2.21
Si  5.62 -3.38  9.12
Si -9.36 -1.02  6.14
Si  5.62 -3.38 -9.15
Si -1.76  7.39 -8.30
Si -5.63  9.74  0.06
Si  9.35 -5.53  3.03
Si -5.50 -5.38 -8.29
Si  3.70  4.27  9.81
Si  7.44 -8.51  0.80
Si -3.76  4.27  9.81
Si -5.50 -9.68 -2.20
Si -7.47 -8.51  0.80
Si -9.22  5.38  3.88
Si -0.02  0.10 -11.37
Si  1.96  7.54 -8.29
Si 11.17 -2.05  0.80
Si 11.15 -0.04 -2.37
Si -5.49  0.94  9.96
Si -11.20 -2.05  0.80
Si -0.03 -10.80  3.72
Si  5.69  9.69 -2.20
Si  9.43  5.24  3.87
Si -11.22 -0.04 -2.37
Si  7.42 -2.19 -8.46
Si  5.70 -5.52 -8.30
Si  1.96 -5.38  9.97
Si  3.71 10.86  0.80
Si -7.49 -2.19 -8.46
Si -3.75 10.86  0.80
Si -1.76 -5.52  9.96
Si  5.69  1.08  9.97
Si  5.70 -9.83 -2.21
Si -11.08  2.18 -3.01
Si -11.08 -2.13  3.08
Si -7.35  0.02 -9.10
Si -7.35 -8.59  3.08
Si -3.62 -6.43 -9.10
Si -3.62 -10.74 -3.01
Si -7.35  8.63 -3.01
Si -3.62  6.48 -9.10
Si -7.35  0.03  9.17
Si -3.62 -6.43  9.17
Si  3.83 -6.43 -9.10
Si -3.62 10.79  3.08
Si  3.83 -10.74 -3.01
Si -3.62  6.48  9.17
Si  3.83  6.48 -9.10
Si  7.56  0.02 -9.10
Si  3.83 -6.43  9.17
Si  7.56 -8.59  3.08
Si  3.84 10.79  3.08
Si  3.84  6.48  9.17
Si  7.56  8.63 -3.01
Si  7.56  0.03  9.17
Si 11.29  2.18 -3.01
Si 11.29 -2.13  3.08
Si -11.10  2.13  3.72
Si  7.35 -6.38  6.86
Si -7.37  8.59  3.72
Si  9.21  5.37 -5.33
Si  9.20 -3.24  6.85
Si 11.08  4.38  0.77
Si -0.11 -10.69 -5.31
Si  9.26  3.25  6.83
Si  3.62  0.07 -11.40
Si  1.80 -9.66  6.83
Si  9.26  7.56  0.74
Si -3.64 -10.78  3.72
Si  1.75  9.67  6.85
Si  7.35  6.53  6.86
Si -1.93 -11.81  0.74
Si  1.75 -3.24 -11.41
Si -7.37  4.28 -8.45
Si  1.75 -11.85  0.76
Si  7.54  8.59  3.72
Si -1.98  3.21 -11.41
Si  1.80  3.25 -11.44
Si -1.93  9.71  6.83
Si  3.81 -10.78  3.72
Si -3.83  0.07 -11.40
Si -1.93 -3.20 -11.44
Si -1.98 -9.70  6.85
Si -9.38 -3.20  6.83
Si -7.56 -6.38  6.86
Si 11.27  2.13  3.72
Si -9.38  5.41 -5.35
Si  0.09 -8.63 -8.45
Si -9.44  7.52  0.76
Si -9.44  3.21  6.85
Si  7.54  4.28 -8.45
Si -7.56  6.53  6.86
Si -11.29  4.38  0.77
Si -11.04 -4.29 -3.03
Si  1.90 11.69 -3.06
Si -11.04  4.32  3.06
Si  9.23 -5.36 -6.01
Si  1.78 -1.06 -12.10
Si -0.04 -2.10 12.10
Si -0.04 -10.71  6.01
Si  9.35  7.39  3.03
Si -1.91 -1.02 -12.12
Si -9.29  7.52  3.04
Si -9.36 -5.32 -6.03
Si -1.84 11.83 -3.05
Si  1.89 -11.85  3.04
Si  9.28  5.44  6.14
Si  9.35 -7.54 -3.05
Si  1.82  1.14 12.23
Si -9.29 -7.68 -3.06
Si -0.04 10.81 -6.16
Si -0.04  2.20 -12.25
Si -1.76 11.70  3.87
Si -9.22  1.08 -8.29
Si -1.95  1.10 12.25
Si  3.71 -10.66 -5.28
Si -9.41  5.40  6.16
Si -3.75 -10.66 -5.28
Si -5.50  7.54 -8.29
Si 11.33 -4.29 -3.03
Si  5.70  7.39 -8.30
Si  7.42 -2.19  9.81
Si -1.83 -11.98  3.03
Si 11.33  4.32  3.06
Si -9.22 -7.53  3.88
Si -1.76  7.39  9.96
Si -7.49 -2.19  9.81
Si 11.15 -4.34  3.72
Si 11.17  2.25 -5.28
Si -11.22 -4.34  3.72
Si -11.20  2.25 -5.28
Si -5.50 -5.38  9.97
Si  9.43  0.94 -8.30
Si  7.44  8.71 -5.28
Si  1.96 11.84  3.88
Si -7.47  8.71 -5.28
Si  3.70 -8.64 -8.46
Si  1.96  7.54  9.97
Si -3.76 -8.64 -8.46
Si  5.70 -5.52  9.96
Si  9.43 -7.67  3.87
Si 11.09  2.15  5.99
Si  3.64 -2.15 12.07
Si  7.36  8.61  5.99
Si -0.09  4.30 12.07
Si 11.09 -6.46 -0.10
Si 11.09  6.46 -0.10
Si  3.63 -10.76  5.99
Si -3.82 -2.15 12.07
Si 11.09 -2.15 -6.19
Si -3.82 -10.76  5.99
Si  7.36 -8.61 -6.19
Si -0.09 -12.91 -0.10
Si -0.09 12.91 -0.10
Si -7.55  8.61  5.99
Si  3.64 10.76 -6.19
Si -11.28  2.15  5.99
Si  3.63  2.15 -12.28
Si -3.82 10.76 -6.19
Si -7.37  4.28  9.81
Si 11.08 -4.23 -5.31
Si -11.28  6.46 -0.10
Si -11.28 -6.46 -0.10
Si -0.09 -4.30 -12.28
Si -7.55 -8.61 -6.19
Si 11.08  0.07  6.86
Si -3.82  2.15 -12.28
Si  9.20 -7.55 -5.33
Si -11.28 -2.15 -6.19
Si -11.10  6.43 -2.37
Si 12.99  1.10  0.74
Si  5.48  3.21 -11.41
Si  5.53 -11.81  0.74
Si  0.09 -8.63  9.81
Si -11.10 -6.48 -2.37
Si -0.11 -6.38 -11.40
