500
set: 473.00  0.00  0.00
Si  0.14  0.05 -0.12
Si -1.90  0.71  0.62
Si  0.12 -2.04  0.70
Si  1.76  1.22  0.94
Si -0.02  0.01 -2.34
Si  3.33 -0.02 -0.12
Si -1.76  2.87  0.19
Si -1.72 -3.02 -0.01
Si -1.90 -1.08 -2.72
Si -1.79  1.00  2.82
Si -0.07 -2.04  2.92
Si -0.07  2.13 -2.97
Si  1.82 -1.08 -3.08
Si  1.90  3.23 -0.01
Si  1.72  1.01  3.18
Si  1.85 -3.38  0.19
Si -3.90 -0.02 -0.12
Si  1.91 -3.04 -1.99
Si  1.83  2.98 -2.21
Si -1.71  3.22 -1.99
Si  3.50  0.15 -2.31
Si -3.60 -2.07  0.69
Si  3.62 -2.07  0.69
Si -0.12  2.24  3.58
Si  0.01  4.18  0.69
Si  1.83 -1.19  3.68
Si -1.78 -3.27 -2.21
Si -1.71 -0.95  3.91
Si -3.73  0.15 -2.31
Si -3.44 -1.95  2.92
Si  0.17 -4.04 -2.98
Si -3.44  2.22 -2.98
Si  3.79 -1.95  2.92
Si  0.18  4.30  2.92
Si  3.79  2.22 -2.98
Si -1.85 -0.87 -4.96
Si  5.32  0.71  0.62
Si -1.85 -5.04  0.94
Si -0.02 -4.16  3.56
Si  3.59  2.10  3.56
Si -3.63  2.10  3.56
Si -3.49  4.21  0.70
Si  0.12  2.13 -5.20
Si  3.73  4.21  0.70
Si -5.46  1.22  0.94
Si  1.71 -1.37 -5.27
Si  1.71 -5.54  0.62
Si  1.85  0.79 -5.71
Si  5.33 -1.08 -2.72
Si  1.72  5.18 -2.72
Si -0.28  2.07  5.78
Si  5.46  2.87  0.19
Si  3.54 -4.13 -2.97
Si  5.43  1.00  2.82
Si -5.33  3.23 -0.01
Si  1.82 -5.25  2.82
Si  3.54  4.21  2.92
Si -0.28  6.24 -0.12
Si -1.72  1.15 -5.90
Si  1.90 -0.94  5.89
Si -3.68 -4.13 -2.97
Si -1.79  5.17 -3.08
Si  5.51 -3.02 -0.01
Si -0.29 -6.27 -0.12
Si -5.40 -1.08 -3.08
Si -3.68  4.21  2.92
Si -5.37 -3.38  0.19
Si -0.29 -2.10 -6.01
Si  3.49 -4.02  3.58
Si -1.90 -5.25  3.18
Si -5.32 -3.04 -1.99
Si -5.51  1.01  3.18
Si -1.76 -1.30  6.09
Si -1.78  5.07  3.68
Si -0.12 -6.10 -2.31
Si -5.40  2.98 -2.21
Si -3.73 -4.02  3.58
Si  0.01  0.02  6.58
Si -5.40 -1.19  3.68
Si  0.01 -4.16 -5.21
Si -3.60  2.10 -5.21
Si  3.62  2.10 -5.21
Si  5.52  3.22 -1.99
Si  5.44 -3.27 -2.21
Si -0.12  6.41 -2.31
Si  5.52 -0.95  3.91
Si  1.91  5.30  3.91
Si -3.47  2.14  5.78
Si -7.08  0.05 -0.12
Si  0.14 -4.12  5.78
Si -3.47 -6.21 -0.12
Si -3.47  6.30 -0.12
Si  1.71  6.97  0.62
Si  3.75  2.14  5.78
Si -3.47 -2.04 -6.01
Si  3.75 -6.21 -0.12
Si  1.71  2.80  6.52
Si  3.75  6.30 -0.12
Si  0.14  4.22 -6.01
Si  5.37 -0.87 -4.96
Si  7.36  0.05 -0.12
Si  3.75 -2.04 -6.01
Si -7.10 -2.04  0.70
Si  5.37 -5.04  0.94
Si -1.90  4.88 -5.27
Si -3.49  0.04  6.60
Si -3.49 -4.13 -5.20
Si  1.76  5.39 -4.96
Si  3.59 -6.24 -2.34
Si  7.20  0.01 -2.34
Si  3.73  0.04  6.60
Si -3.63 -6.24 -2.34
Si  3.59  6.27 -2.34
Si -7.24  0.01 -2.34
Si -3.63  6.27 -2.34
Si  3.73 -4.13 -5.20
Si -1.90 -3.46  6.52
Si  1.76 -2.95  6.83
Si  7.35 -2.04  0.70
Si -5.51 -1.37 -5.27
Si -1.85  7.47  0.94
Si -1.85  3.31  6.83
Si -5.51 -5.54  0.62
Si  3.33 -4.19  5.78
Si -5.37  0.79 -5.71
Si  7.16 -2.04  2.92
Si  1.82  7.26  2.82
Si -5.33 -0.94  5.89
Si  1.71 -7.33 -2.72
Si  3.33  4.15 -6.01
Si  1.90 -5.11 -5.90
Si -5.51  5.18 -2.72
Si  7.16  2.13 -2.97
Si -5.40 -5.25  2.82
Si  1.85  4.96  6.09
Si -1.76 -5.47 -5.71
Si  5.43  5.17 -3.08
Si -7.29 -2.04  2.92
Si -1.72  5.32  5.89
Si  5.33 -5.25  3.18
Si -3.90 -4.19  5.78
Si -1.90  7.26  3.18
Si  5.51  1.15 -5.90
Si -1.79 -7.34 -3.08
Si -7.29  2.13 -2.97
Si  1.91  1.13 -7.88
Si  7.11  2.24  3.58
Si -3.90  4.15 -6.01
Si  5.46 -1.30  6.09
Si  5.44  5.07  3.68
Si -1.78  0.89 -8.11
Si  0.01 -8.32  0.69
Si -7.21  4.18  0.69
Si  7.23  4.18  0.69
Si  1.91 -7.21  3.91
Si -0.12 -1.94 -8.21
Si -5.32  5.30  3.91
Si -7.34  2.24  3.58
Si -1.78 -7.44  3.68
Si -7.05 -4.04 -2.98
Si  0.17 -8.21  2.92
Si -7.05  4.30  2.92
Si  0.18  0.14  8.82
Si  1.76 -7.12 -4.96
Si  0.17  0.13 -8.87
Si -5.51  6.97  0.62
Si  7.40 -4.04 -2.98
Si  5.32  4.88 -5.27
Si  0.18  8.47 -2.98
Si -5.51  2.80  6.52
Si -3.49 -8.30  0.70
Si  7.20 -4.16  3.56
Si  7.40  4.30  2.92
Si -7.10  2.13 -5.20
Si  0.12 -6.21  6.60
Si -7.24 -4.16  3.56
Si -0.02  8.35  3.56
Si  5.32 -3.46  6.52
Si  8.98  1.22  0.94
Si  0.12  6.30  6.60
Si  3.73 -8.30  0.70
Si -5.46  5.39 -4.96
Si -9.12  0.71  0.62
Si  3.59 -2.07 -8.24
Si -5.46 -2.95  6.83
Si -1.76  7.04 -5.71
Si -3.63 -2.07 -8.24
Si -0.02  4.18 -8.24
Si  7.35  2.13 -5.20
Si  5.37  7.47  0.94
Si  6.94  2.07  5.78
Si  5.37  3.31  6.83
Si  1.85  9.13  0.19
Si  6.94  6.24 -0.12
Si  1.71 -3.16 -8.61
Si -1.90  3.09 -8.61
Si  6.94 -6.27 -0.12
Si  6.94 -2.10 -6.01
Si  1.82  3.09  8.72
Si -8.98  2.87  0.19
Si -8.94 -3.02 -0.01
Si -1.79 -3.17  8.72
Si -5.33 -5.11 -5.90
Si -1.72 -7.19  5.89
Si -1.90 -7.63 -5.27
Si  1.90 -9.28 -0.01
Si -5.40  7.26  2.82
Si  3.54 -8.30  2.92
Si -9.01  1.00  2.82
Si  3.54  0.04  8.82
Si -5.37  4.96  6.09
Si -3.68 -8.30  2.92
Si  8.94  1.01  3.18
Si  3.54  0.04 -8.87
Si  5.33  7.26  3.18
Si -1.71 -5.12 -7.88
Si -3.68  0.04  8.82
Si -5.51 -7.33 -2.72
Si  3.54  8.38 -2.97
Si -5.32  1.13 -7.88
Si -9.12 -1.08 -2.72
Si -3.68  0.04 -8.87
Si  5.46 -5.47 -5.71
Si  9.04 -1.08 -3.08
Si -3.68  8.38 -2.97
Si  5.43 -7.34 -3.08
Si -1.71  9.49 -0.01
Si  7.11 -6.10 -2.31
Si -1.71 -9.29 -1.99
Si  1.90  7.40 -5.90
Si  5.51  5.32  5.89
Si -1.78  9.23 -2.21
Si  1.82  3.09 -8.97
Si  9.12  3.23 -0.01
Si -0.12 -1.93  9.48
Si -1.79 -3.17 -8.97
Si  9.07 -3.38  0.19
Si -8.93  3.22 -1.99
Si -7.51  2.07  5.78
Si -3.60 -6.24  6.58
Si -7.51  6.24 -0.12
Si  1.72 -3.16  9.08
Si  3.62 -6.24  6.58
Si -7.21  0.02  6.58
Si -5.32 -7.21  3.91
Si -1.90  3.10  9.08
Si  7.23  0.02  6.58
Si -3.60  6.27  6.58
Si  9.05  2.98 -2.21
Si  3.62  6.27  6.58
Si -7.51 -6.27 -0.12
Si -1.78  0.90  9.58
Si -8.93 -0.95  3.91
Si -1.76 -9.64  0.19
Si  5.44  0.89 -8.11
Si -7.34 -6.10 -2.31
Si -7.22 -4.16 -5.21
Si  9.13 -3.04 -1.99
Si  7.23 -4.16 -5.21
Si -9.01 -3.27 -2.21
Si  7.11  6.41 -2.31
Si  9.05 -1.19  3.68
Si  0.01  8.35 -5.21
Si -7.51 -2.10 -6.01
Si  3.50  8.49  3.58
Si  1.91  9.47 -1.99
Si  1.85 -7.55  6.09
Si  1.83 -5.36 -8.11
Si  3.50  4.32 -8.21
Si  5.44 -7.44  3.68
Si -3.73  8.49  3.58
Si  1.83 -9.53 -2.21
Si -3.73  4.32 -8.21
Si -7.34  6.41 -2.31
Si -7.08 -4.12  5.78
Si  1.91  1.13  9.81
Si  0.14  8.39  5.78
Si -7.08  4.22 -6.01
Si  7.36 -4.12  5.78
Si  0.14 -8.29 -6.01
Si -5.46 -7.12 -4.96
Si  3.59 -2.07  9.46
Si -3.63 -2.07  9.46
Si -0.02  4.18  9.46
Si -9.07 -0.87 -4.96
Si  7.36  4.22 -6.01
Si -9.07 -5.04  0.94
Si -3.49  8.38 -5.20
Si  8.94 -1.37 -5.27
Si  0.12 10.47  0.70
Si  8.94 -5.54  0.62
Si  3.73  8.38 -5.20
Si 10.55 -0.02 -0.12
Si  5.46  7.04 -5.71
Si  5.33  3.09 -8.61
Si -5.37  9.13  0.19
Si  3.33  8.32  5.78
Si  8.94  5.18 -2.72
Si  5.32 -7.63 -5.27
Si -5.33 -9.28 -0.01
Si -5.51 -3.16 -8.61
Si -5.40  3.09  8.72
Si  5.43 -3.17  8.72
Si  9.07  0.79 -5.71
Si -8.94  1.15 -5.90
Si -0.07 -6.21  8.82
Si -0.07 -10.38 -2.97
Si  5.51 -7.19  5.89
Si  3.33 -8.36 -6.01
Si -0.07 -6.21 -8.87
Si  9.04 -5.25  2.82
Si -9.01  5.17 -3.08
Si -0.07  6.30  8.82
Si -3.90  8.32  5.78
Si -5.33  7.40 -5.90
Si -0.07 10.47  2.92
Si -0.07  6.30 -8.87
Si -0.12 -10.27  3.58
Si  9.12 -0.94  5.89
Si  5.52 -5.12 -7.88
Si -5.40  3.09 -8.97
Si -8.98 -1.30  6.09
Si -1.71  7.38 -7.88
Si  5.44  9.23 -2.21
Si  5.43 -3.17 -8.97
Si  1.83  7.15 -8.11
Si 10.72  0.15 -2.31
Si -9.01  5.07  3.68
Si  5.33  3.10  9.08
Si  5.51  9.49 -0.01
Si  5.52 -9.29 -1.99
Si  3.50  4.32  9.48
Si -9.12 -5.25  3.18
Si -3.90 -8.36 -6.01
Si  7.11 -1.94 -8.21
Si -7.22 -8.32  0.69
Si -5.32  9.47 -1.99
Si -10.83 -2.07  0.69
Si  7.23 -8.32  0.69
Si  5.44  0.90  9.58
Si 10.84 -2.07  0.69
Si -3.60 10.44  0.69
Si -3.73  4.32  9.48
Si  3.62 10.44  0.69
Si  5.46 -9.64  0.19
Si -5.51 -3.16  9.08
Si -5.37 -7.55  6.09
Si  0.01  0.01 -11.11
Si -5.40 -5.36 -8.11
Si -11.12 -0.02 -0.12
Si  1.83 -5.36  9.58
Si -5.40 -9.53 -2.21
Si -7.34 -1.94 -8.21
Si -10.95  0.15 -2.31
Si -1.71 -5.12  9.81
Si -7.05 -8.21  2.92
Si -5.32  1.13  9.81
Si -10.66 -1.95  2.92
Si -3.44 -10.29 -2.98
Si  9.13  5.30  3.91
Si -3.44 -6.12  8.82
Si -10.66  2.22 -2.98
Si -7.05  0.14  8.82
Si -3.44 -6.12 -8.87
Si -1.90  9.05  6.52
Si -7.05  0.13 -8.87
Si  8.94  6.97  0.62
Si  3.79 -10.29 -2.98
Si  3.79 -6.12  8.82
Si  1.76 -2.95 -10.86
Si  8.94  2.80  6.52
Si -7.05  8.47 -2.98
Si -3.44  6.39  8.82
Si  3.79 -6.12 -8.87
Si  7.40 -8.21  2.92
Si -3.44  6.39 -8.87
Si  1.76 -11.29  0.94
Si -3.44 10.56  2.92
Si -1.85  3.30 -10.86
Si -7.10 -6.21  6.60
Si  7.40  0.14  8.82
Si -10.71  4.21  0.70
Si  3.79  6.39  8.82
Si  7.40  0.13 -8.87
Si 11.01 -1.95  2.92
Si -7.10  6.30  6.60
Si  3.79  6.39 -8.87
Si  3.59 -10.41  3.56
Si 10.81  2.10  3.56
Si -3.63 -10.41  3.56
Si  7.20  8.35  3.56
Si  8.98  5.39 -4.96
Si  3.79 10.56  2.92
Si  0.12 -10.38 -5.20
Si -1.85 -9.20  6.83
Si -9.12  4.88 -5.27
Si -10.86  2.10  3.56
Si -7.24  8.35  3.56
Si 11.01  2.22 -2.98
Si -3.49  0.04 -11.09
Si  7.40  8.47 -2.98
Si  1.71  2.80 -11.17
Si  7.35 -6.21  6.60
Si  8.98 -2.95  6.83
Si  3.73  0.04 -11.09
Si  7.35  6.30  6.60
Si -0.02 -8.33 -8.24
Si  7.20  4.18 -8.24
Si -9.12 -3.46  6.52
Si -7.24  4.18 -8.24
Si 10.96  4.21  0.70
Si -9.07  7.47  0.94
Si -1.76 -1.30 -11.60
Si  1.71 -9.71  6.52
Si -9.07  3.31  6.83
Si -1.90 -3.46 -11.17
Si -0.28 -2.10 11.68
Si  8.94 -7.33 -2.72
Si  1.76  9.56  6.83
Si -1.90 11.43 -2.72
Si 10.77 -4.13 -2.97
Si 10.77  4.21  2.92
Si  9.04  7.26  2.82
Si -0.29 -10.44  5.78
Si -8.94  5.32  5.89
Si -1.90 -11.80  0.62
Si -8.98 -5.47 -5.71
Si -1.72  1.15 11.79
Si  1.82 11.43 -3.08
Si -1.79 -11.51  2.82
Si  1.90 -0.94 -11.80
Si 10.72 -4.02  3.58
Si  9.08  4.96  6.09
Si  9.12 -5.11 -5.90
Si  7.11 -1.93  9.48
Si -0.28 10.40 -6.01
Si -9.01 -7.34 -3.08
Si -10.90 -4.13 -2.97
Si  1.83 11.32  3.68
Si -10.90  4.21  2.92
Si  1.71 -11.50  3.18
Si -5.40  7.15 -8.11
Si -9.12  7.26  3.18
Si -0.29  2.06 -11.91
Si  1.83  7.15  9.58
Si  3.49 -8.19 -8.21
Si  9.13  1.13 -7.88
Si  5.52  7.38 -7.88
Si -7.34 -1.93  9.48
Si  1.85  0.79 11.98
Si -9.01  0.89 -8.11
Si -3.73 -8.19 -8.21
Si -3.60 -10.41 -5.21
Si  3.62 -10.41 -5.21
Si -10.83  2.10 -5.21
Si -10.95 -4.02  3.58
Si -7.21  8.35 -5.21
Si 10.84  2.10 -5.21
Si  7.23  8.35 -5.21
Si -5.40 -5.36  9.58
Si -9.01 -7.44  3.68
Si  9.13 -7.21  3.91
Si -1.70 11.56  3.91
Si -10.69  2.14  5.78
Si -3.47 -2.03 11.68
Si  5.33  9.05  6.52
Si -10.69 -6.21 -0.12
Si  5.52 -5.12  9.81
Si -3.47 -10.37  5.78
Si -1.70  7.39  9.81
Si -7.08  8.39  5.78
Si -10.69  6.30 -0.12
Si  0.14  4.22 11.68
Si  3.75 -2.03 11.68
Si -10.69 -2.04 -6.01
Si  1.71 11.14 -5.27
Si -7.08 -8.29 -6.01
Si  3.75 -10.37  5.78
Si  0.14 -12.46 -0.12
Si  8.98 -7.12 -4.96
Si -5.46 -2.95 -10.86
Si  5.37  3.30 -10.86
Si  0.14 12.56 -0.12
Si -3.47 10.47 -6.01
Si  7.37  8.39  5.78
Si -5.46 -11.29  0.94
Si -10.71  0.04  6.60
Si 12.55  0.71  0.62
Si 10.98  2.14  5.78
Si -3.47  2.13 -11.91
Si -0.02 -8.32  9.46
Si  7.20  4.18  9.46
Si -10.71 -4.13 -5.20
Si  0.14 -4.12 -11.91
Si 10.97 -6.21 -0.12
Si  1.71 -1.37 12.42
Si  7.36 -8.29 -6.01
Si -7.24  4.18  9.46
Si  3.75 10.47 -6.01
Si 10.98  6.30 -0.12
