500
set: 156.00  0.00  0.00
Si -0.03 -0.03  0.04
Si  0.05 -0.06 -2.17
Si  1.77  1.07  0.76
Si  0.04 -2.08  0.78
Si -1.82  1.07  0.75
Si -0.00  2.04 -2.90
Si  3.57  0.03 -0.01
Si -1.78 -1.03 -2.93
Si  1.81 -3.09 -0.05
Si -1.79 -3.12  0.06
Si -1.81  1.07  2.94
Si  1.78  1.06  2.96
Si -3.63  0.01 -0.03
Si  0.03 -2.08  2.97
Si -1.81  3.19  0.03
Si  1.87  3.17 -0.01
Si  1.83 -1.07 -3.02
Si  3.54 -2.05  0.75
Si -1.79 -3.08 -2.17
Si  1.81  3.06 -2.20
Si -1.78 -1.03  3.66
Si  3.55  0.02 -2.24
Si -1.81  3.10 -2.20
Si -3.60 -0.04 -2.22
Si -3.61 -2.09  0.72
Si -0.01  4.18  0.72
Si -0.00  2.09  3.76
Si  1.82 -1.04  3.76
Si  1.85 -3.19 -2.26
Si -0.03 -4.14 -2.93
Si -3.63  2.04 -2.93
Si  0.02  4.18  2.93
Si -3.62 -2.09  2.93
Si  3.60  2.06 -2.99
Si  3.65 -2.04  2.99
Si -0.04  2.14 -5.11
Si  1.81 -5.18  0.72
Si  5.40  1.05  0.68
Si -1.77 -5.22  0.68
Si -1.74 -1.05 -5.18
Si  3.65  2.10  3.64
Si -5.43  1.04  0.68
Si -3.68  2.06  3.66
Si  0.02 -4.18  3.70
Si -3.60  4.24  0.77
Si  3.67  4.20  0.78
Si  1.83 -1.05 -5.27
Si -1.83 -5.14  2.93
Si  5.39  1.02  2.89
Si  1.83  5.16 -2.92
Si  5.37 -3.11  0.06
Si  5.36 -1.05 -2.97
Si -1.83 -1.05  5.86
Si  1.78 -5.20  2.92
Si -1.82  5.20 -2.93
Si -1.77  1.05 -5.89
Si -5.38  3.16  0.01
Si -5.43 -1.04 -2.93
Si -3.59 -4.17 -3.01
Si  0.05  6.28 -0.02
Si  1.75  1.09 -5.93
Si -5.46 -3.10 -0.00
Si  0.04 -6.28  0.02
Si  5.44  3.15 -0.05
Si  0.04 -2.13 -5.92
Si  1.81 -1.05  5.95
Si -5.51  1.09  2.87
Si -3.68  4.19  2.97
Si  0.02  2.11  5.95
Si  3.69 -4.21 -2.99
Si  3.67  4.21  3.02
Si  3.61 -4.14  3.64
Si -1.81  5.15  3.69
Si -5.37 -1.01  3.69
Si -0.01  6.21 -2.21
Si -3.62 -4.15  3.66
Si -5.37 -3.18 -2.20
Si -3.63  2.02 -5.16
Si -5.39  3.17 -2.19
Si -0.01 -0.01  6.63
Si  0.05 -6.26 -2.22
Si  5.41  3.13 -2.26
Si  5.46 -1.07  3.66
Si  5.46 -3.15 -2.18
Si -0.03 -4.23 -5.16
Si  1.81  5.23  3.73
Si  3.60  2.13 -5.24
Si -3.61  2.06  5.88
Si  3.64  2.12  5.84
Si  3.62 -6.23  0.03
Si -0.03  4.20 -5.86
Si  3.63  6.24 -0.02
Si  7.22 -0.01  0.01
Si -7.24 -0.01  0.01
Si -3.60 -6.28 -0.02
Si -0.03 -4.15  5.95
Si -3.61  6.29  0.03
Si -3.59 -2.06 -5.96
Si  3.62 -2.12 -5.93
Si -5.35 -1.06 -5.12
Si  7.17 -2.05  0.81
Si  7.17 -0.02 -2.21
Si  3.62  0.03  6.58
Si -5.40 -5.19  0.71
Si  1.79  5.20 -5.13
Si -3.62  6.25 -2.19
Si -1.78  7.30  0.73
Si -3.65 -0.04  6.61
Si -1.87  5.22 -5.14
Si  5.42 -1.00 -5.17
Si -3.61 -6.25 -2.26
Si  3.61 -6.28 -2.19
Si -1.81  3.18  6.63
Si  5.45 -5.23  0.73
Si  3.58 -4.21 -5.19
Si -3.60 -4.15 -5.23
Si  3.62  6.28 -2.26
Si  1.83  7.33  0.71
Si  1.79 -3.15  6.68
Si -1.87 -3.13  6.67
Si -7.29 -0.02 -2.21
Si  1.88  3.11  6.69
Si -7.29 -2.05  0.81
Si  3.58 -4.15  5.84
Si -1.84  7.24  2.94
Si -7.19  2.12 -2.89
Si -1.80 -7.30 -2.88
Si  1.77  5.18  5.91
Si -3.60  4.11 -5.93
Si  5.43  5.22 -2.88
Si  5.41 -1.07  5.88
Si -5.42  5.21 -2.95
Si -5.42 -5.21  2.96
Si -3.60 -4.24  5.88
Si  1.81 -7.32 -2.95
Si -5.46  1.01 -5.90
Si  1.81  7.32  2.96
Si  5.39 -5.29  2.94
Si  5.45  1.08 -5.90
Si -7.20 -2.18  3.02
Si -1.78  5.25  5.91
Si  7.27  2.12 -2.89
Si  1.75 -5.29 -5.90
Si -1.82 -5.25 -5.92
Si  3.58  4.20 -5.96
Si -5.48 -1.12  5.91
Si  7.27 -2.18  3.02
Si -1.72 -7.19  3.72
Si  1.77 -7.26  3.67
Si  7.16  2.12  3.71
Si -0.07 -2.05 -8.10
Si -1.72  1.16 -8.09
Si  7.23  4.15  0.70
Si -7.23  4.15  0.70
Si -0.00 -8.37  0.70
Si  1.77  1.09 -8.14
Si -5.46  5.27  3.67
Si -7.30  2.12  3.71
Si  5.51  5.33  3.72
Si  7.21  4.17  2.91
Si  0.03 -0.01  8.84
Si -7.21 -4.18 -2.97
Si -0.03 -8.35  2.91
Si  0.03  8.34 -2.97
Si -7.25  4.17  2.91
Si  7.25 -4.18 -2.97
Si -0.03 -0.00 -8.89
Si -5.40  3.12  6.54
Si  5.37  5.19 -5.11
Si -5.40  5.13 -5.16
Si -0.04  8.27  3.70
Si  3.63 -8.29  0.77
Si -3.56 -8.33  0.78
Si -7.21  2.10 -5.12
Si  9.03  1.04  0.68
Si  0.02  4.17 -8.10
Si  7.25  2.10 -5.12
Si -1.86 -7.34 -5.11
Si  3.55 -2.12 -8.14
Si -0.04 -6.21  6.70
Si  7.19 -4.25  3.70
Si -9.06  1.05  0.68
Si  5.46  7.31  0.68
Si -5.42  7.34  0.72
Si -5.40 -3.22  6.65
Si  5.37 -3.16  6.70
Si -3.58 -2.08 -8.16
Si  5.49  3.12  6.63
Si  0.02  6.28  6.68
Si -7.27 -4.25  3.70
Si  1.83 -7.40 -5.16
Si  8.95  1.09  2.87
Si -3.56  0.04 -8.79
Si -3.54 -0.04  8.81
Si  1.75 -7.26  5.88
Si -7.18  2.05  5.89
Si  9.00 -3.10 -0.00
Si -7.21 -2.06 -5.86
Si -7.18 -6.25 -0.02
Si -3.54  8.31 -2.99
Si -7.19  6.24  0.02
Si  3.55  0.01 -8.84
Si  3.64  0.01  8.80
Si -3.56 -8.31  3.02
Si  1.81  7.30 -5.86
Si  3.55 -8.34  2.97
Si -5.42 -5.22 -5.86
Si  1.85 -9.36  0.01
Si -1.79 -9.37 -0.05
Si  7.25 -2.06 -5.86
Si  9.03 -1.04 -2.93
Si -9.02  3.15 -0.05
Si -1.87  3.12  8.84
Si -1.77 -7.30  5.91
Si  5.41 -7.32 -2.93
Si -9.07  1.02  2.89
Si  7.27  6.24  0.02
Si  7.28  2.05  5.89
Si -5.40 -7.36 -2.92
Si  1.80  3.13  8.88
Si -5.45  7.32  2.92
Si  5.40 -5.23 -5.95
Si  7.28 -6.25 -0.02
Si  1.77  9.43 -0.00
Si  1.78  3.15 -8.88
Si -1.83  7.29 -5.95
Si -1.86  9.41  0.06
Si  5.46  5.22  5.91
Si -1.82 -3.15  8.88
Si  3.64  8.36 -3.01
Si  5.39  7.38  2.93
Si -9.09 -3.11  0.06
Si -5.48  5.27  5.88
Si  1.72 -3.09 -8.94
Si -1.83  3.21 -8.88
Si  9.08  3.16  0.01
Si  1.83 -3.19  8.89
Si -1.84 -3.15 -8.91
Si -9.10 -1.05 -2.97
Si  3.60 -6.22  6.57
Si  3.60  6.19  6.64
Si -9.00 -1.07  3.66
Si  1.84 -9.35 -2.19
Si  1.86  9.34 -2.20
Si -9.00 -3.15 -2.18
Si -7.18  6.26 -2.22
Si -5.42  1.05 -8.08
Si -1.77  9.38 -2.18
Si  7.20 -0.06  6.65
Si -3.63  6.30  6.57
Si  1.86 -5.18 -8.11
Si  5.42  0.98 -8.11
Si -0.01  8.34 -5.17
Si  7.21 -4.19 -5.17
Si  3.61  8.37  3.66
Si -5.42 -7.29  3.73
Si -3.62  8.38  3.64
Si -0.01 -2.14  9.59
Si  1.86  0.99  9.61
Si -1.82 -9.40 -2.26
Si -7.25 -4.19 -5.17
Si  7.22 -6.31 -2.21
Si -9.05  3.13 -2.26
Si -1.77  1.03  9.63
Si -7.26 -0.06  6.65
Si -1.77 -5.24 -8.14
Si -3.62  4.20 -8.14
Si  9.07  3.17 -2.19
Si  7.28  6.26 -2.22
Si -7.24 -6.31 -2.21
Si  9.09 -1.01  3.69
Si -3.63 -6.33  6.64
Si  5.42 -7.37  3.69
Si  3.61  4.20 -8.17
Si  9.09 -3.18 -2.20
Si  7.21  4.18 -5.89
Si -0.02 -8.34 -5.89
Si  7.21 -4.17  5.92
Si -7.25  4.18 -5.89
Si -0.02  8.36  5.92
Si -7.25 -4.17  5.92
Si  5.36 -7.30 -5.14
Si  3.62 -2.07  9.55
Si -9.02 -5.23  0.73
Si -3.65  8.31 -5.19
Si -0.06  4.16  9.60
Si -5.44 -7.32 -5.13
Si -9.04 -1.00 -5.17
Si  9.06 -5.19  0.71
Si -3.62 -2.10  9.62
Si -0.06 10.47  0.81
Si  9.11 -1.06 -5.12
Si  3.62  8.38 -5.23
Si  0.04 10.34  3.02
Si -5.40  3.10  8.79
Si -5.36 -9.35 -0.01
Si  3.63  8.28  5.88
Si  5.42 -9.34  0.03
Si  0.04 -10.40 -2.89
Si  8.98 -1.12  5.91
Si  9.00  1.01 -5.90
Si  5.39  3.06 -8.87
Si -9.03  5.22 -2.88
Si -5.48  7.23 -5.90
Si -9.01  1.08 -5.90
Si  5.41  7.27 -5.92
Si  0.03  6.27 -8.83
Si 10.84  0.01 -0.03
Si  5.45 -7.27  5.91
Si -5.42  3.14 -8.85
Si  0.04 -6.36 -8.78
Si -5.42 -3.14  8.85
Si  9.04 -5.21  2.96
Si  9.04  5.21 -2.95
Si -3.65  8.38  5.84
Si -5.45 -3.12 -8.85
Si  5.42 -3.10 -8.87
Si -9.05 -1.07  5.88
Si  5.44  9.40  0.06
Si -3.65 -8.32 -5.96
Si -5.42  9.43 -0.05
Si  5.45  3.14  8.88
Si -5.46 -7.34  5.91
Si -10.89  0.03 -0.01
Si -9.07 -5.29  2.94
Si  5.43 -3.13  8.93
Si  0.04  6.29  8.92
Si  3.63 -8.42 -5.93
Si -0.00 -6.31  8.91
Si -5.38  0.99  9.55
Si -5.41 -5.21 -8.05
Si -5.38  9.34 -2.26
Si  7.23 -2.08 -8.05
Si -7.23 -2.08 -8.05
Si  1.82  7.31 -8.05
Si -0.07 -10.40  3.71
Si  3.63  4.13  9.59
Si  9.00  5.27  3.67
Si  7.22 -8.34  0.72
Si -8.95  5.33  3.72
Si  3.62 10.43  0.72
Si -7.24 -8.34  0.72
Si 10.85 -2.09  0.72
Si -3.68  4.19  9.56
Si 10.86 -0.04 -2.22
Si  5.42 -9.42 -2.20
Si -1.81 -5.25  9.61
Si -1.78  7.32 -8.15
Si  5.45 -5.21 -8.15
Si  5.44  9.44 -2.17
Si -0.00 -0.02 -11.11
Si  1.81 -5.28  9.60
Si  5.44  1.09  9.64
Si -5.42 -9.46 -2.20
Si -3.69 10.48  0.75
Si -10.91  0.02 -2.24
Si -10.93 -2.05  0.75
Si -3.58 -6.21 -8.82
Si -3.63  6.23  8.81
Si -10.81 -2.04  2.99
Si 10.83  2.04 -2.93
Si  3.60 -6.29  8.81
Si  3.60  6.21  8.87
Si -7.21 -8.35  2.93
Si  3.61 10.43  2.93
Si 10.84 -2.09  2.93
Si  7.20  0.03  8.88
Si  7.20  8.38 -2.93
Si -7.21  0.00 -8.88
Si  7.25 -8.35  2.93
Si  3.65  6.31 -8.82
Si -3.62  6.26 -8.88
Si  3.61 -6.26 -8.88
Si -10.86  2.06 -2.99
Si  7.25  0.00 -8.88
Si -7.26  0.03  8.88
Si  3.60 -10.49 -2.93
Si -7.26  8.38 -2.93
Si -3.63 -10.47 -2.99
Si -3.58 10.48  2.99
Si -3.63 -6.31  8.87
Si 10.78  2.06  3.66
Si  1.83  9.30  6.65
Si -3.56  0.02 -11.03
Si -8.97  3.12  6.63
Si  7.19  4.10 -8.11
Si -10.81  2.10  3.64
Si  1.83 -9.40  6.54
Si -10.79  4.20  0.78
Si  9.06  3.12  6.54
Si -3.58 -10.43  3.64
Si  0.02 -10.42 -5.12
Si -9.00  7.31  0.68
Si  3.63  0.06 -11.04
Si  9.06  5.13 -5.16
Si -7.21  8.34  3.70
Si -7.27  4.10 -8.11
Si -1.83 -11.47  0.68
Si -1.74 -9.40  6.63
Si -9.09  5.19 -5.11
Si  3.55 -10.46  3.66
Si  1.80 -11.49  0.68
Si -7.21 -6.25  6.68
Si  7.25  8.34  3.70
Si -1.86  9.36  6.70
Si  1.81  3.17 -11.08
Si  9.04  7.34  0.72
Si  7.25 -6.25  6.68
Si  7.19  6.31  6.70
Si 10.86  4.24  0.77
Si -0.04 -8.42 -8.11
Si -1.77  3.13 -11.12
Si  9.06 -3.22  6.65
Si  1.80 -3.14 -11.13
Si -1.83 -3.12 -11.13
Si -9.09 -3.16  6.70
Si -7.27  6.31  6.70
Si  1.72 -11.44  2.87
Si 10.78  4.19  2.97
Si -10.78 -4.21 -2.99
Si  8.98  5.27  5.88
Si  0.04  2.07 -11.78
Si -10.79  4.21  3.02
Si -9.00  5.22  5.91
Si  9.01  7.32  2.92
Si  0.05 -2.07 11.79
Si  9.04 -5.22 -5.86
Si  1.85 -1.01 -11.79
Si  1.80 11.48 -2.93
Si  1.77  1.08 11.81
Si  0.02 10.46 -5.86
Si -1.87 11.47 -2.97
Si -1.84 -11.50  2.89
Si -9.05 -7.32 -2.93
Si  0.04 -10.47  5.89
Si 10.87 -4.17 -3.01
Si  9.06 -7.36 -2.92
Si -9.06 -5.23 -5.95
Si -1.79 -1.02 -11.86
Si -9.06  7.38  2.93
Si -1.86  1.06 11.86
Si  7.20  8.29 -5.16
Si  5.41 -5.22  9.55
Si -1.77 11.45  3.66
Si -1.82  7.30  9.55
Si -7.18 -2.08  9.59
Si  9.04  1.05 -8.08
Si 10.84 -4.15  3.66
Si 10.84  2.02 -5.16
Si -7.26  8.29 -5.16
Si -10.85 -4.14  3.64
Si -5.39 -5.17  9.62
Si -9.04  0.98 -8.11
Si -5.37  7.34 -8.11
Si  3.60 -8.32 -8.14
Si -3.64 -10.39 -5.24
Si  9.04 -7.29  3.73
Si -3.62 -8.32 -8.17
Si  5.46  7.28 -8.14
Si  7.28 -2.08  9.59
Si -9.04 -7.37  3.69
Si  1.86 11.51  3.69
Si  1.84  7.35  9.62
Si -10.87  2.13 -5.24
Si  3.60 -10.51 -5.16
Si -3.59 -10.40  5.84
Si  7.20 -8.32 -5.86
Si -10.82  2.12  5.84
Si -10.83  6.24 -0.02
Si -10.84 -6.23  0.03
Si  3.62  2.12 -11.77
Si -7.26 -8.32 -5.86
Si -3.61 10.41 -5.93
Si  3.63 -2.11 11.79
Si 10.85  2.06  5.88
Si -0.01 12.51  0.01
Si -0.01 -4.19 -11.80
Si -0.01  4.16 11.81
Si -0.01 -12.54  0.01
Si -10.84 -2.12 -5.93
Si -3.60  2.07 -11.83
Si  3.62 -10.47  5.88
Si  7.20  8.37  5.95
Si 10.86 -6.28 -0.02
Si 10.85  6.29  0.03
Si -3.61 -2.06 11.84
Si 10.87 -2.06 -5.96
Si -7.26  8.37  5.95
Si  3.64 10.47 -5.96
Si -0.06 -6.23 -10.99
Si 10.81 -0.04  6.61
Si -10.84  0.03  6.58
Si  5.42 -9.35  6.63
Si  0.04  6.27 -11.02
Si  5.41 -11.45  0.75
Si  1.83 -1.02 12.52
Si  5.41 -3.10 -11.05
Si  1.88 11.46 -5.12
Si  9.02 -7.32 -5.13
Si -0.06 12.51 -2.21
