500
set: 1574.00  0.00  0.00
Si  0.78 -0.02  0.36
Si -1.19  1.23  0.11
Si  0.39  0.62 -1.98
Si -0.91 -1.96 -0.45
Si  2.35 -0.28 -1.26
Si -2.15  1.11 -1.30
Si -0.05  0.59  2.79
Si -0.63 -2.21  1.95
Si  1.91 -2.70  1.26
Si  1.25  3.18  1.26
Si  3.55 -0.18  1.52
Si -0.08 -2.57 -2.89
Si -3.60 -0.18  1.52
Si  0.34 -2.09  3.35
Si -2.04 -1.32 -3.13
Si  2.82  2.79 -0.24
Si  1.96  0.24 -3.48
Si  2.02  3.13 -1.72
Si -2.81 -0.53  3.00
Si  2.69 -2.74 -1.72
Si -1.58  3.91 -0.45
Si -1.30  3.67  1.95
Si  3.20  2.28  1.98
Si -0.74  3.30 -2.89
Si -2.44  1.36 -3.69
Si  3.48 -3.08 -0.24
Si -0.52 -4.64  0.11
Si  1.64  2.53  3.60
Si -3.67 -3.08 -0.24
Si -3.95  2.28  1.98
Si -4.80 -0.28 -1.26
Si -0.33  3.78  3.35
Si  1.17  0.58 -4.96
Si -1.49 -4.76 -1.30
Si -4.33  2.79 -0.24
Si  0.23  0.35  5.19
Si -3.28 -3.59  1.98
Si  5.00  1.11 -1.30
Si  2.77 -0.14  4.50
Si  4.34 -0.53  3.00
Si  2.31 -3.34  3.60
Si  0.82  3.04 -4.50
Si -4.46 -2.74 -1.72
Si  1.49 -2.83 -4.50
Si -0.47 -1.93 -5.23
Si -3.01 -1.44 -4.54
Si  3.87 -3.59  1.98
Si  1.05 -5.25 -1.98
Si -2.42 -1.04  5.23
Si  0.11  5.85  0.36
Si  1.68  5.60 -1.26
Si -2.75  2.37  4.76
Si  0.61 -5.28  2.79
Si -5.24 -2.70  1.26
Si  1.45 -5.89  0.36
Si  5.96  1.23  0.11
Si -1.77 -4.51 -3.69
Si  5.11 -1.32 -3.13
Si  4.71  1.36 -3.69
Si -2.71  4.55 -3.13
Si -5.13  3.13 -1.72
Si -5.19  0.24 -3.48
Si -2.08 -3.50  4.76
Si -4.38 -0.14  4.50
Si  4.14 -1.44 -4.54
Si -6.37 -0.02  0.36
Si -1.60  0.75 -6.13
Si  2.88  5.69  1.52
Si  6.24 -1.96 -0.45
Si -1.14  3.94 -5.23
Si  1.20  0.46  6.60
Si  1.47 -2.73  6.04
Si -0.28  6.50 -1.98
Si  5.57  3.91 -0.45
Si -5.91  3.18  1.26
Si  0.80  3.14  6.04
Si -1.95  2.02  6.25
Si -4.84 -3.34  3.60
Si -2.94 -6.06  1.52
Si  4.40  2.37  4.76
Si  3.01 -6.15 -1.26
Si -3.48  5.34  3.00
Si -5.51  2.53  3.60
Si -6.76  0.62 -1.98
Si -0.72  6.46  2.79
Si  4.44  4.55 -3.13
Si  4.73 -1.04  5.23
Si  2.63 -5.63 -3.48
Si  3.67  5.34  3.00
Si  1.29  6.11 -3.48
Si  6.52 -2.21  1.95
Si  5.85  3.67  1.95
Si  1.10 -2.31 -6.72
Si  3.47  4.43 -4.54
Si -4.27  5.69  1.52
Si -3.68  4.43 -4.54
Si -1.85  7.10  0.11
Si -2.14 -6.40  3.00
Si -1.28 -3.85  6.25
Si  1.83 -5.29 -4.96
Si  5.66 -4.76 -1.30
Si -4.14 -6.15 -1.26
Si  4.21 -6.06  1.52
Si -3.57  2.00 -6.38
Si  3.16 -0.79  6.84
Si  3.58  2.00 -6.38
Si  2.10  5.73  4.50
Si  0.44  3.56 -6.72
Si  0.89 -5.52  5.19
Si -2.82  6.99 -1.30
Si  7.10  0.59  2.79
Si -7.20  0.59  2.79
Si -3.09  4.83  5.23
Si -0.04  0.49 -7.75
Si  6.41  3.30 -2.89
Si -5.66 -2.83 -4.50
Si -3.29 -1.19 -6.94
Si  5.07 -3.50  4.76
Si -5.99  0.58 -4.96
Si  7.54  0.62 -1.98
Si -0.24 -7.83 -0.45
Si -6.81 -2.09  3.35
Si -5.47  5.60 -1.26
Si  5.38 -4.51 -3.69
Si  7.93 -0.02  0.36
Si -3.99 -0.79  6.84
Si -1.38 -7.19 -3.13
Si -2.90 -3.87 -6.38
Si -4.52 -5.63 -3.48
Si  3.86 -1.19 -6.94
Si -0.93 -5.12 -6.13
Si  7.07 -2.57 -2.89
Si  6.63 -4.64  0.11
Si -0.44  6.22  5.19
Si -1.22 -0.95  8.01
Si  0.50  6.45 -4.96
Si  4.06  4.83  5.23
Si -7.23 -2.57 -2.89
Si -5.70 -5.89  0.36
Si  3.44 -6.01  4.50
Si -6.10 -5.25 -1.98
Si  5.55  0.75 -6.13
Si  0.04 -8.08  1.95
Si -8.06 -1.96 -0.45
Si -7.78 -2.21  1.95
Si  4.33  6.99 -1.30
Si -6.33  3.04 -4.50
Si  5.20  2.02  6.25
Si -3.71 -6.01  4.50
Si  2.62  1.88 -7.78
Si -8.34  1.23  0.11
Si  0.31 -1.97 -8.21
Si  7.49 -2.09  3.35
Si  6.82  3.78  3.35
Si  4.25 -3.87 -6.38
Si -6.92  0.35  5.19
Si  5.01 -6.40  3.00
Si -3.10  7.23 -3.69
Si  1.00 -7.96  3.35
Si  6.68 -1.93 -5.23
Si -5.68 -2.73  6.04
Si  1.86 -5.41  6.60
Si -1.57  1.51  8.47
Si  2.54  8.15  1.98
Si -1.99  1.39 -8.47
Si -1.76 -6.91  5.23
Si -3.52  2.41  7.75
Si -6.54 -5.28  2.79
Si  5.30  7.10  0.11
Si -5.05  5.73  4.50
Si  2.50  5.08  6.84
Si  3.63  2.41  7.75
Si  6.01  3.94 -5.23
Si -5.96  0.46  6.60
Si -2.35 -7.31 -4.54
Si  2.15  8.66 -0.24
Si  0.59 -8.44 -2.89
Si -2.86 -3.46  7.75
Si  3.19  4.68 -6.94
Si -7.67 -4.64  0.11
Si  1.08  2.90  8.43
Si -5.32 -5.29 -4.96
Si  7.38  0.35  5.19
Si -7.48  3.78  3.35
Si -7.89  3.30 -2.89
Si  2.58 -8.57  1.26
Si  8.39  3.18  1.26
Si  4.05  7.23 -3.69
Si -0.36  3.90 -8.21
Si  1.75 -2.97  8.43
Si -5.86  6.11 -3.48
Si  0.58  9.05  1.26
Si -7.04  5.85  0.36
Si  0.53  6.33  6.60
Si  0.97  8.40  3.60
Si -4.54  1.88 -7.78
Si -3.96  4.68 -6.94
Si  1.36  9.01 -1.72
Si -2.27  6.62 -6.13
Si -6.35  3.14  6.04
Si  7.26  5.85  0.36
Si -6.05 -2.31 -6.72
Si  3.28 -3.99 -7.78
Si  0.20 -7.80 -5.23
Si  5.87 -3.85  6.25
Si  3.36 -8.61 -1.72
Si -8.45  3.67  1.95
Si -7.62 -1.93 -5.23
Si -3.00 -8.95 -0.24
Si  0.63 -5.38 -7.75
Si -9.30  1.11 -1.30
Si  4.29 -3.46  7.75
Si  6.43  6.46  2.79
Si  9.06 -2.70  1.26
Si -3.79 -8.61 -1.72
Si -3.87 -3.99 -7.78
Si  2.33 -0.18  9.28
Si -0.90 -4.36  8.47
Si -4.62  8.15  1.98
Si -8.73  3.91 -0.45
Si  9.49 -0.28 -1.26
Si -1.89  4.92  8.01
Si -0.43 -1.29  9.49
Si  7.97  3.04 -4.50
Si  6.87  6.50 -1.98
Si -1.33 -4.48 -8.47
Si  8.31  0.58 -4.96
Si -4.66  5.08  6.84
Si -1.41  9.17 -2.89
Si  5.77 -7.19 -3.13
Si  9.11  0.24 -3.48
Si -4.57 -8.57  1.26
Si  7.76 -5.28  2.79
Si -9.19 -1.32 -3.13
Si -6.26 -5.52  5.19
Si  8.79  2.53  3.60
Si  9.17  3.13 -1.72
Si  4.81 -7.31 -4.54
Si -2.46 -1.80 -9.37
Si  4.15 -8.95 -0.24
Si -1.96  9.54  1.95
Si  8.20 -5.25 -1.98
Si -8.64 -4.76 -1.30
Si  0.15  8.92 -4.50
Si -5.00  8.66 -0.24
Si  5.93 -0.95  8.01
Si  5.16  1.39 -8.47
Si  2.73 -0.55 -9.62
Si -2.61 -9.46  1.98
Si -0.42  1.01 -9.97
Si  2.15 -8.70 -4.50
Si -5.29 -5.41  6.60
Si -2.24  9.78 -0.45
Si -0.70  6.36 -7.75
Si -7.43  6.50 -1.98
Si -3.32 -6.66  6.84
Si -3.41  8.24  4.76
Si  6.22 -5.12 -6.13
Si  8.64 -2.83 -4.50
Si -6.71  3.56 -6.72
Si  5.39 -6.91  5.23
Si  3.74  8.24  4.76
Si -2.62 -7.07 -6.94
Si  5.58  1.51  8.47
Si  4.88  6.62 -6.13
Si -1.00  9.65  3.35
Si  3.83 -6.66  6.84
Si  2.97 -9.21  3.60
Si  9.97  2.79 -0.24
Si  9.84 -2.74 -1.72
Si -9.59  1.36 -3.69
Si -2.62  7.90  6.25
Si -9.96 -0.53  3.00
Si  8.60 -5.89  0.36
Si -5.40 -2.97  8.43
Si  6.91 -7.83 -0.45
Si -4.82 -0.18  9.28
Si  7.95  3.14  6.04
Si  2.05  3.02  9.84
Si  0.15 -10.51  0.11
Si -6.65  6.45 -4.96
Si  6.71  6.22  5.19
Si  8.83  5.60 -1.26
Si  7.11  0.49 -7.75
Si -0.56 -6.82  8.01
Si  2.92  7.87 -6.38
Si -7.87  6.46  2.79
Si -8.29  3.94 -5.23
Si -7.19  0.49 -7.75
Si -1.09  4.58  9.49
Si  2.72 -2.86  9.84
Si -6.15 -7.96  3.35
Si -4.42 -0.55 -9.62
Si -1.41 -9.38  4.76
Si  4.69 -1.80 -9.37
Si  8.35  0.46  6.60
Si  9.46 -3.34  3.60
Si -8.92 -4.51 -3.69
Si  2.33  2.12 -10.18
Si  4.54 -9.46  1.98
Si -3.12  4.07 -9.37
Si -3.13  1.76 10.09
Si -8.75  0.75 -6.13
Si  2.14 -8.60  6.04
Si -4.18 -9.21  3.60
Si -0.82 -10.63 -1.30
Si  1.77 -8.18 -6.72
Si  7.59  3.56 -6.72
Si  5.26  4.92  8.01
Si -7.39 -7.83 -0.45
Si 10.35  2.28  1.98
Si -6.07  2.90  8.43
Si 10.70 -0.18  1.52
Si -5.79  9.01 -1.72
Si  0.14  9.01  6.04
Si -10.75 -0.18  1.52
Si -6.84 -1.97 -8.21
Si  8.62 -2.73  6.04
Si  4.53 -7.07 -6.94
Si  8.25 -2.31 -6.72
Si  9.92 -0.14  4.50
Si -7.11 -8.08  1.95
Si  4.91  9.78 -0.45
Si -9.57 -1.04  5.23
Si -9.23 -3.50  4.76
Si -4.24  7.87 -6.38
Si  4.03  4.07 -9.37
Si  7.19 -8.08  1.95
Si  8.44  6.11 -3.48
Si -5.00 -8.70 -4.50
Si  4.02  1.76 10.09
Si  1.66  5.69  9.28
Si  5.19  9.54  1.95
Si -6.18  8.40  3.60
Si  4.53  7.90  6.25
Si  8.04 -5.52  5.19
Si 10.63 -3.08 -0.24
Si -6.56 -8.44 -2.89
Si -1.10 -10.38 -3.69
Si  0.25 -4.86 -9.97
Si -7.59  6.22  5.19
Si  1.95  7.75 -7.78
Si -4.43 -2.86  9.84
Si -2.46 -4.11 10.09
Si  7.65  6.45 -4.96
Si -8.43 -3.85  6.25
Si  2.06  5.32 -9.62
Si  1.76 -0.67 -11.03
Si  5.74  9.17 -2.89
Si -2.00 -0.91 10.99
Si -10.43 -3.59  1.98
Si  5.82 -4.48 -8.47
Si -0.89 -2.06 -10.99
Si -10.16 -1.44 -4.54
Si -9.10  2.02  6.25
Si -9.90  2.37  4.76
Si -10.82 -3.08 -0.24
Si -6.57  9.05  1.26
Si  3.00 -3.75 -10.18
Si  7.46 -1.97 -8.21
Si -1.80  9.81 -5.23
Si -6.62  6.33  6.60
Si -9.86  4.55 -3.13
Si  6.79  3.90 -8.21
Si -8.08 -5.12 -6.13
Si -0.36  1.60 11.25
Si  0.97 -7.84 -8.21
Si  6.25 -4.36  8.47
Si -3.38 10.42 -3.13
Si  1.72 -11.12 -1.98
Si -2.23  7.38  8.47
Si -4.82  2.12 -10.18
Si -6.52 -5.38 -7.75
Si -9.00  7.10  0.11
Si -2.66  7.26 -8.47
Si  3.00 -6.05  9.28
Si -5.10  3.02  9.84
Si -11.10  2.28  1.98
Si  3.77 10.42 -3.13
Si  8.98 -5.29 -4.96
Si  1.28 -11.15  2.79
Si -0.62 -9.72  6.25
Si  1.01 11.47 -1.26
Si -0.23  9.43 -6.72
Si -8.53 -7.19 -3.13
Si -1.22  1.35 -11.45
Si  2.81 10.30 -4.54
Si -4.15 -3.75 -10.18
Si -8.37 -0.95  8.01
Si 10.03  5.69  1.52
Si -5.01 -8.60  6.04
Si -9.29 -6.40  3.00
Si -6.95 -7.80 -5.23
Si  6.72 -1.29  9.49
Si  2.96  8.28  7.75
Si -1.56  3.81 -10.99
Si -0.55 11.72  0.36
Si 11.02 -3.59  1.98
Si  9.25  5.73  4.50
Si -7.51  3.90 -8.21
Si  9.78 -5.63 -3.48
Si  7.74 -8.44 -2.89
Si -11.48  2.79 -0.24
Si -4.16 -6.05  9.28
Si -0.04 -1.81 11.71
Si  4.69 -4.11 10.09
Si -2.23 -9.74 -6.38
Si -10.09 -6.06  1.52
Si  2.21 11.56  1.52
Si  8.15 -7.96  3.35
Si -5.38 -8.18 -6.72
Si 11.49 -0.53  3.00
Si  0.24 -7.17  9.49
Si  6.45  6.36 -7.75
Si  7.35 -7.80 -5.23
Si  6.15  9.65  3.35
Si  7.68  6.33  6.60
Si 10.16 -6.15 -1.26
Si  2.11 -11.76  0.36
Si  7.73  9.05  1.26
Si  2.61 -0.42 11.68
Si  5.74 -9.38  4.76
Si  3.01 11.21  3.00
Si -11.96 -0.28 -1.26
Si  4.49  7.26 -8.47
Si  0.30 -4.27 11.25
Si -11.61 -2.74 -1.72
Si  3.39 -6.42 -9.62
Si  6.73  1.01 -9.97
Si -4.34 10.30 -4.54
Si -4.19  8.28  7.75
Si -2.85 -1.16 -11.71
Si -5.09  5.32 -9.62
Si  8.23  2.90  8.43
Si  6.06  4.58  9.49
Si -5.20  7.75 -7.78
Si -1.09  6.88 -9.97
Si -3.76 -6.42 -9.62
Si  5.15 -0.91 10.99
Si  0.42  8.77  8.43
Si -5.49  5.69  9.28
Si -7.00  8.92 -4.50
Si -7.58 -1.29  9.49
Si  7.78 -5.38 -7.75
Si  8.12  8.40  3.60
Si -2.27 -11.93  1.52
Si  1.09  5.20 -11.03
Si -9.97  6.99 -1.30
Si -8.72  1.51  8.47
Si -1.79 -7.68 -9.37
Si 11.29 -1.44 -4.54
Si  4.92  7.38  8.47
Si 12.15  1.11 -1.30
Si -10.62  5.34  3.00
Si -5.39 -0.67 -11.03
Si -0.55 -4.52 -11.45
Si -2.19 -9.33  7.75
Si -4.14 11.21  3.00
Si  5.35  9.81 -5.23
Si -2.67  4.96 10.99
Si 10.62  4.43 -4.54
Si  7.30  8.92 -4.50
Si -11.53 -0.14  4.50
Si  3.39 10.70  5.23
Si 10.31 -0.79  6.84
Si  9.01 -5.41  6.60
Si -0.71  4.06 11.71
Si  6.59 -6.82  8.01
Si -8.91 -6.91  5.23
Si  6.33 -10.63 -1.30
Si 10.82  5.34  3.00
Si  2.42 -8.84  8.43
Si  3.29 -11.50 -3.48
Si  2.50 -11.16 -4.96
Si -10.24  4.83  5.23
Si -8.05 -4.36  8.47
Si -3.76 10.70  5.23
Si  0.63 11.98 -3.48
Si 11.87  1.36 -3.69
Si  8.51  9.01 -1.72
Si -10.05 -3.87 -6.38
Si  1.44 11.60  4.50
Si  4.30 -1.16 -11.71
Si -5.43 -11.12 -1.98
Si -4.54 -0.42 11.68
Si -9.14  1.39 -8.47
Si -10.83  4.43 -4.54
Si -7.57  1.01 -9.97
Si -0.95 12.37 -1.98
Si -3.47 -12.02 -1.26
Si  6.05 -10.38 -3.69
Si -0.27 -10.99 -6.13
Si -10.44 -1.19 -6.94
Si  8.90 -2.97  8.43
Si  1.56 -11.39  5.19
Si -3.86 -11.50 -3.48
Si  9.77  1.88 -7.78
Si -10.72  2.00 -6.38
Si  3.68 -12.02 -1.26
Si -7.00 -10.51  0.11
