500
set: 1510.00  0.00  0.00
Si -0.64 -0.44 -0.68
Si  0.06 -1.25  1.35
Si -0.58  1.83 -0.30
Si  2.11 -0.46 -1.07
Si  0.01  0.09  2.87
Si  2.67 -0.48  1.20
Si -0.28  2.39  1.74
Si  2.35  1.84  0.10
Si -0.93 -1.02 -2.75
Si -3.03 -0.48  1.20
Si  1.82  1.85 -2.21
Si -1.26  2.62 -2.33
Si -3.58 -0.46 -1.07
Si -3.34  1.84  0.10
Si  2.16 -1.79 -2.59
Si -2.09 -2.89  1.61
Si  0.01 -3.43 -2.33
Si  0.99 -3.66  1.74
Si -1.24  1.30 -3.85
Si  2.33  3.16  1.61
Si -2.74  0.10  3.27
Si  0.69 -4.22 -0.30
Si  2.96  0.10  3.27
Si  1.52  1.29 -4.24
Si  0.26  2.38  4.04
Si -2.07 -4.21  0.10
Si -3.54 -1.79 -2.59
Si -3.88  1.85 -2.21
Si -3.36  3.16  1.61
Si  3.60 -2.89  1.61
Si  1.46 -0.98 -4.62
Si  0.89  4.26 -2.59
Si -2.68  2.37  3.64
Si  5.05 -0.44 -0.68
Si -1.21  4.80  1.35
Si  0.57  0.06  5.14
Si  3.02  2.37  3.64
Si -1.49 -0.99 -5.01
Si -1.41 -3.68  3.64
Si -2.61 -4.20 -2.21
Si  5.12  1.83 -0.30
Si  3.62 -4.21  0.10
Si  4.77 -1.02 -2.75
Si  4.43  2.62 -2.33
Si  3.08 -4.20 -2.21
Si  1.52 -3.67  4.04
Si -2.04 -0.71  5.29
Si  0.84  5.59 -1.07
Si  1.40  5.57  1.20
Si -5.64 -1.25  1.35
Si -1.91  5.61 -0.68
Si  4.45  1.30 -3.85
Si  5.75 -1.25  1.35
Si -4.18  1.29 -4.24
Si  0.02 -4.75 -3.85
Si -2.19  5.03 -2.75
Si  5.42  2.39  1.74
Si -4.71 -3.66  1.74
Si  1.50 -2.35  5.55
Si -4.24 -0.98 -4.62
Si -5.68  0.09  2.87
Si -6.34 -0.44 -0.68
Si  5.71  0.09  2.87
Si  3.66 -0.71  5.29
Si -1.78  1.31 -6.15
Si -6.27  1.83 -0.30
Si -5.01 -4.22 -0.30
Si  0.62 -6.49 -0.68
Si -1.11 -3.12  5.68
Si  4.21 -0.99 -5.01
Si  0.83  2.08 -6.27
Si -5.98  2.39  1.74
Si  0.24  3.70  5.55
Si  4.49  4.80  1.35
Si  3.50  5.03 -2.75
Si  4.29 -3.68  3.64
Si  1.28 -5.96  2.87
Si  3.79  5.61 -0.68
Si -2.38  2.93  5.68
Si  0.19  5.07 -4.62
Si -1.76 -6.53  1.20
Si -4.17 -3.67  4.04
Si -1.25  6.13  2.87
Si -4.81  4.26 -2.59
Si -1.47 -5.95  3.27
Si  2.79 -4.76 -4.24
Si  1.17 -1.56 -6.69
Si -2.32 -6.50 -1.07
Si -2.91 -4.76 -4.24
Si -5.69 -3.43 -2.33
Si  5.70 -3.43 -2.33
Si -1.44 -2.33 -6.54
Si -4.29  5.57  1.20
Si -2.09  0.62  6.82
Si  1.69  6.15  3.27
Si -5.44  2.38  4.04
Si  3.32  2.93  5.68
Si -6.62 -1.02 -2.75
Si -5.12  0.06  5.14
Si  0.86  0.64  7.21
Si -4.19 -2.35  5.55
Si  3.38 -6.50 -1.07
Si  3.92  1.31 -6.15
Si -4.85  5.59 -1.07
Si  1.33 -7.30  1.35
Si  5.95  2.38  4.04
Si  0.34 -7.07 -2.75
Si -2.75  5.05 -5.01
Si  6.38 -4.22 -0.30
Si  2.94  5.05 -5.01
Si  2.10 -3.97 -6.27
Si  3.94 -6.53  1.20
Si  3.61  0.62  6.82
Si -0.51 -4.74 -6.15
Si -6.96  2.62 -2.33
Si  6.68 -3.66  1.74
Si  0.85  0.76 -7.79
Si  2.39  5.34  5.29
Si  7.81 -0.46 -1.07
Si  4.58 -3.12  5.68
Si -4.42 -5.96  2.87
Si  1.09  7.88  0.10
Si  4.22 -5.95  3.27
Si -2.71  3.72 -6.54
Si -0.70  6.11  5.14
Si -4.01  6.15  3.27
Si -6.94  1.30 -3.85
Si  7.51  1.85 -2.21
Si -0.10  4.49 -6.69
Si  2.99  3.72 -6.54
Si -1.85  7.88 -0.30
Si  4.44  6.13  2.87
Si  6.27  0.06  5.14
Si  1.84 -5.99  5.14
Si  4.25 -2.33 -6.54
Si  0.92  2.91  7.59
Si -4.86  2.08 -6.27
Si -3.31  5.34  5.29
Si  0.55  7.90 -2.21
Si -4.53 -1.56 -6.69
Si -3.59 -3.97 -6.27
Si  8.05  1.84  0.10
Si  6.58  4.26 -2.59
Si -5.07 -6.49 -0.68
Si -5.67 -4.75 -3.85
Si  5.72 -4.75 -3.85
Si  7.85 -1.79 -2.59
Si -7.79 -2.89  1.61
Si  8.37 -0.48  1.20
Si  7.22  1.29 -4.24
Si -2.08  0.75 -8.18
Si  0.25  7.34 -4.24
Si  2.19 -3.14  7.59
Si -6.91  4.80  1.35
Si -2.27 -7.84 -2.59
Si  7.15 -0.98 -4.62
Si -0.57 -3.13  7.98
Si -4.37 -7.30  1.35
Si -0.77 -6.76  5.29
Si -5.46  3.70  5.55
Si -0.22 -7.04 -5.01
Si -2.51  7.34 -3.85
Si  6.54  5.59 -1.07
Si -1.84  2.92  7.98
Si -4.84  0.64  7.21
Si -0.82 -5.42  6.82
Si -1.55  8.44  1.74
Si  3.85  7.88 -0.30
Si  8.03  3.16  1.61
Si -3.86 -5.99  5.14
Si -7.10 -3.68  3.64
Si -5.51  5.07 -4.62
Si -7.18 -0.99 -5.01
Si -8.72 -0.48  1.20
Si -7.77 -4.21  0.10
Si  2.72 -7.03 -4.62
Si  3.18  7.34 -3.85
Si -2.97 -7.03 -4.62
Si -3.51 -3.14  7.59
Si  5.93  3.70  5.55
Si  3.42 -7.84 -2.59
Si -2.14 -1.52 -8.56
Si  3.62  0.75 -8.18
Si  5.88  5.07 -4.62
Si -8.44  0.10  3.27
Si  7.22 -3.67  4.04
Si  6.32 -6.49 -0.68
Si  7.10  5.57  1.20
Si  0.61 -1.53 -8.96
Si -0.83 -8.94  1.61
Si -4.61  7.88  0.10
Si -4.84  0.76 -7.79
Si -9.04  1.84  0.10
Si -1.53  0.59  9.08
Si  8.65  0.10  3.27
Si  2.12 -5.41  7.21
Si -5.36 -7.07 -2.75
Si  6.53  2.08 -6.27
Si -2.53  8.67 -2.33
Si  3.85  2.92  7.98
Si  5.18 -4.74 -6.15
Si  1.75  8.42  3.64
Si -9.28 -0.46 -1.07
Si  1.56 -0.17  9.23
Si  7.20 -2.35  5.55
Si  3.55 -1.52 -8.56
Si -6.81 -3.12  5.68
Si -1.01  8.43  4.04
Si -7.74 -0.71  5.29
Si  1.07  9.21  1.61
Si  5.00  6.11  5.14
Si -4.77  2.91  7.59
Si -8.37  2.37  3.64
Si -7.61  5.61 -0.68
Si  3.17  8.67 -2.33
Si  4.15  8.44  1.74
Si -8.31 -4.20 -2.21
Si  6.98 -5.96  2.87
Si  2.12 -5.29 -7.79
Si -5.15  7.90 -2.21
Si -0.59 -1.81  9.50
Si -3.57 -5.41  7.21
Si  6.04 -7.07 -2.75
Si -6.95  6.13  2.87
Si  6.87 -1.56 -6.69
Si -9.06  3.16  1.61
Si  8.71  2.37  3.64
Si -7.89  5.03 -2.75
Si -9.23 -1.79 -2.59
Si  6.55  0.64  7.21
Si -7.48  1.31 -6.15
Si -0.81 -5.30 -8.18
Si  5.60  4.49 -6.69
Si  2.34  6.67  6.82
Si -0.41  6.69  7.21
Si  1.27 -9.48 -2.33
Si  9.30 -2.89  1.61
Si -7.17 -5.95  3.27
Si  4.92 -6.76  5.29
Si -5.79  4.49 -6.69
Si -6.21 -4.74 -6.15
Si  2.65  7.36 -6.15
Si  2.29  4.53 -8.56
Si -7.14 -2.33 -6.54
Si  8.78 -4.20 -2.21
Si  4.88 -5.42  6.82
Si -3.94  8.42  3.64
Si -7.45 -6.53  1.20
Si  5.12 -3.13  7.98
Si -9.57  1.85 -2.21
Si  4.17  0.59  9.08
Si -0.66  4.51 -8.96
Si -3.05  7.36 -6.15
Si -5.44  7.34 -4.24
Si -3.57 -5.29 -7.79
Si -3.35  6.67  6.82
Si  2.25 -9.71  1.74
Si -4.14 -0.17  9.23
Si  0.32  0.77 -10.09
Si  7.38  6.15  3.27
Si  6.55  0.76 -7.79
Si  7.02 -7.30  1.35
Si -6.39  6.11  5.14
Si  9.32 -4.21  0.10
Si  5.48 -7.04 -5.01
Si  2.49 -2.58  9.62
Si -3.41  4.53 -8.56
Si -0.43  8.13 -6.27
Si -0.81 -10.26  0.10
Si -8.07  2.93  5.68
Si  1.22  3.47  9.62
Si  4.87 -8.94  1.61
Si  6.25  7.90 -2.21
Si -0.41  6.80 -7.79
Si  5.95  7.34 -4.24
Si -7.78  0.62  6.82
Si -8.01 -6.50 -1.07
Si -0.14 -9.73  3.64
Si  6.78  7.88  0.10
Si -5.08 -1.53 -8.96
Si  2.44 -7.61 -6.69
Si -4.63  9.21  1.61
Si  2.77 -8.40  5.55
Si -3.44 -9.71  1.74
Si  4.68  8.43  4.04
Si  1.96 -10.27 -0.30
Si -3.21 -2.58  9.62
Si -5.92 -7.04 -5.01
Si  6.62  2.91  7.59
Si -2.92 -8.40  5.55
Si -1.86  4.24  9.50
Si -1.34 -10.25 -2.21
Si -0.26 -5.45  9.08
Si  8.48 -4.76 -4.24
Si -6.27 -3.13  7.98
Si -0.17 -8.38 -6.54
Si -0.38 10.31 -2.59
Si -3.26 -7.61 -6.69
Si -2.76  1.54 -10.22
Si -8.60 -4.76 -4.24
Si -4.42 -9.48 -2.33
Si 10.13  2.62 -2.33
Si  2.93  1.54 -10.22
Si -6.47 -6.76  5.29
Si  7.80 -3.97 -6.27
Si  9.35 -0.71  5.29
Si 10.75 -0.44 -0.68
Si  0.16 -9.17  5.68
Si -9.87  1.29 -4.24
Si  2.05  8.98  5.68
Si  9.20  5.03 -2.75
Si 10.46 -1.02 -2.75
Si -6.51 -5.42  6.82
Si  0.66 -2.87 -10.48
Si  2.79 -9.72  4.04
Si  2.35  6.80 -8.18
Si  4.89 -5.30 -8.18
Si -7.54  7.88 -0.30
Si  7.54 -5.99  5.14
Si -2.90 -9.72  4.04
Si  1.51  1.17 10.76
Si 10.15  1.30 -3.85
Si  5.10 -1.81  9.50
Si -3.74 -10.27 -0.30
Si  0.29  5.88  9.23
Si -0.61  3.18 -10.48
Si 10.81  1.83 -0.30
Si -9.94 -0.98 -4.62
Si  9.48  5.61 -0.68
Si  8.08  5.34  5.29
Si  9.01  2.93  5.68
Si -8.45  5.05 -5.01
Si  6.31 -1.53 -8.96
Si  3.83  4.24  9.50
Si -2.43 -2.10 -10.63
Si  9.90 -0.99 -5.01
Si -3.35  6.80 -8.18
Si  5.29  6.69  7.21
Si -10.40 -3.66  1.74
Si -4.48  3.47  9.62
Si -6.52 -8.94  1.61
Si  8.64  5.05 -5.01
Si -2.48 10.85  1.35
Si  9.07 -6.50 -1.07
Si  5.04  4.51 -8.96
Si -3.65  8.98  5.68
Si  9.98 -3.68  3.64
Si -7.24  8.44  1.74
Si -1.50 -4.51 -10.22
Si -1.03  9.75  5.55
Si -9.87 -3.67  4.04
Si -8.40  3.72 -6.54
Si -1.24  1.18 11.15
Si -7.77  0.75 -8.18
Si  3.27 -2.10 -10.63
Si 10.18  4.80  1.35
Si  4.35 -10.25 -2.21
Si -7.54  2.92  7.98
Si  4.89 -10.26  0.10
Si  7.88 -3.14  7.59
Si  3.22 10.85  1.35
Si -5.38  0.77 -10.09
Si -0.88 -7.57 -8.56
Si -7.97 -7.84 -2.59
Si -11.33 -1.25  1.35
Si  2.83 -6.22  9.23
Si  9.61  1.31 -6.15
Si  8.68  3.72 -6.54
Si -2.87 -6.22  9.23
Si -9.99  5.57  1.20
Si 11.11  2.39  1.74
Si  1.58 -5.28 -10.09
Si -6.71  8.43  4.04
Si -10.70 -4.22 -0.30
Si  2.00  3.94 -10.63
Si -6.29 -1.81  9.50
Si  1.29 -10.80 -3.85
Si  6.76  9.21  1.61
Si  5.26  8.13 -6.27
Si  9.31  0.62  6.82
Si -6.11  6.69  7.21
Si -9.89 -2.35  5.55
Si -2.79  6.64  9.08
Si 11.45 -1.25  1.35
Si -4.18  1.17 10.76
Si  5.28  6.80 -7.79
Si -7.22  0.59  9.08
Si  2.90  6.64  9.08
Si  2.23 11.07 -2.75
Si -10.50  4.26 -2.59
Si -8.21  7.34 -3.85
Si  0.14 11.61  1.20
Si -0.42 11.64 -1.07
Si  9.63 -6.53  1.20
Si -7.84 -1.52 -8.56
Si -6.51 -5.30 -8.18
Si -1.64 -10.81 -4.24
Si -9.00  5.34  5.29
Si -11.38  0.09  2.87
Si  7.25 -0.17  9.23
Si -0.35  8.96  7.59
Si 11.40  0.09  2.87
Si  6.01  0.77 -10.09
Si  5.55 -9.73  3.64
Si  7.45  8.42  3.64
Si  0.09 -2.60 11.53
Si -6.35  4.51 -8.96
Si  1.72  9.77 -6.54
Si  1.88 -7.58 -8.96
Si  5.32 10.31 -2.59
Si -9.29 -3.97 -6.27
Si  8.42 -7.03 -4.62
Si  5.44 -5.45  9.08
Si -5.84 -9.73  3.64
Si -3.46 11.07 -2.75
Si -3.69  3.94 -10.63
Si  4.20 -4.51 -10.22
Si  7.82 -5.41  7.21
Si -9.70  6.15  3.27
Si  2.52 11.66 -0.68
Si -6.13  8.13 -6.27
Si  5.52 -8.38 -6.54
Si -5.04 -2.87 -10.48
Si -10.82  0.06  5.14
Si -10.55  5.59 -1.07
Si  6.97 -9.48 -2.33
Si -6.11  6.80 -7.79
Si  9.92 -5.95  3.27
Si -11.67  2.39  1.74
Si -2.33 -10.02 -6.27
Si -2.74  0.22 -11.73
Si -12.03 -0.44 -0.68
Si  4.46  1.18 11.15
Si  5.08  3.18 -10.48
Si -8.67 -7.03 -4.62
Si -11.14  2.38  4.04
Si -10.11 -5.96  2.87
Si -1.08 11.12 -4.62
Si -1.18  3.45 11.53
Si  2.95  0.22 -11.73
Si -3.18 11.66 -0.68
Si -4.11 -5.28 -10.09
Si -11.97  1.83 -0.30
Si -11.39 -3.43 -2.33
Si -5.54 -9.17  5.68
Si -2.24 -9.19  7.59
Si 11.40 -3.43 -2.33
Si  0.02  0.21 -12.13
Si  9.95 -2.33 -6.54
Si  2.78 -4.88 10.76
Si -5.87 -8.38 -6.54
Si  8.88  7.34 -3.85
Si -6.50 -10.26  0.10
Si 10.28 -3.12  5.68
Si -5.95 -5.45  9.08
Si  4.67  9.75  5.55
Si  0.03 -4.87 11.15
Si -2.92 -4.88 10.76
Si -8.23  8.67 -2.33
Si  0.69 -9.18  7.98
Si 10.14  6.13  2.87
Si -5.41  5.88  9.23
Si -0.95  6.82 -10.09
Si  7.82 -5.29 -7.79
Si -6.08 10.31 -2.59
Si  5.85 -9.17  5.68
Si  2.59  8.96  7.98
Si -4.41 -10.80 -3.85
Si  3.37 -10.02 -6.27
Si  1.67 11.10 -5.01
Si  9.12 -7.84 -2.59
Si  4.05 -10.81 -4.24
Si -10.22 -1.56 -6.69
Si -9.20 -3.14  7.59
Si -3.82 -7.58 -8.96
Si  0.67 -7.86  9.50
Si  6.91  3.47  9.62
Si  9.55  7.88 -0.30
Si -9.55 -5.99  5.14
Si -3.11  8.96  7.98
Si  4.82 -7.57 -8.56
Si  3.46 -9.19  7.59
Si -3.98  9.77 -6.54
Si  9.31  0.75 -8.18
Si -0.21 -12.00  3.27
Si  0.76 -10.79 -6.15
Si -10.56  2.08 -6.27
Si  8.04  6.67  6.82
Si  5.99  5.88  9.23
Si -2.67 -2.59 11.92
Si -10.07 -7.30  1.35
Si  1.75  3.46 11.92
Si  7.98  4.53 -8.56
Si -1.36 10.53 -6.69
Si 11.65  2.38  4.04
Si  3.02 -2.59 11.92
Si  6.35 -2.87 -10.48
Si -10.77 -6.49 -0.68
Si  1.12 11.39  5.29
Si  2.55 -12.01  2.87
