500
set: 1114.00  0.00  0.00
Si -0.47  1.00 -0.80
Si  0.33 -1.16  0.82
Si  1.28  1.17  0.74
Si -1.33 -1.27 -0.81
Si  2.12 -1.17 -0.76
Si -0.88  0.08  2.42
Si -2.18  1.17  0.78
Si  0.93 -0.00 -2.44
Si  3.00  1.13 -0.82
Si  0.03 -2.29 -2.43
Si -3.02 -1.16  0.84
Si  0.08  2.30  2.45
Si  0.44  3.33 -0.81
Si -2.56 -0.04 -2.35
Si  2.63  0.12  2.38
Si -0.48 -3.43  0.74
Si  1.78 -2.17  2.38
Si -1.73  2.29 -2.38
Si -1.26  3.45  0.84
Si -1.69 -2.31  2.45
Si  1.23 -3.48 -0.82
Si  1.80  2.31 -2.43
Si -0.81 -0.00 -3.99
Si  0.92  0.01  4.01
Si  2.10  3.45  0.82
Si  3.87 -1.16  0.84
Si -3.90  1.13 -0.82
Si -2.23 -3.60 -0.80
Si  2.95 -3.43  0.78
Si  0.05 -2.31  4.00
Si -3.02  3.44 -0.76
Si -0.00  2.38 -4.02
Si  3.40 -2.32 -2.38
Si -3.35  2.44  2.38
Si -2.61 -0.02  4.05
Si -3.50 -2.32 -2.38
Si  2.66  0.14 -4.07
Si -4.27  0.12  2.38
Si  3.54  2.44  2.38
Si -1.77 -2.22 -4.02
Si  4.72  1.17  0.78
Si  4.33 -0.04 -2.35
Si  1.74 -2.19 -4.06
Si  1.82  2.30  4.00
Si -1.68  2.27  4.09
Si -4.78 -1.17 -0.76
Si  0.86 -4.49  2.38
Si -0.80  4.57 -2.35
Si  3.88  3.44 -0.76
Si -0.83 -4.61 -2.44
Si -3.94 -3.43  0.78
Si  0.88  4.68  2.42
Si -0.44  1.03  5.63
Si  5.57 -1.27 -0.81
Si -2.65 -4.53  2.42
Si -5.62  1.17  0.74
Si  2.57 -4.64 -2.35
Si  1.30  5.61 -0.80
Si -3.39  2.42 -4.06
Si  0.40 -1.13 -5.70
Si  0.35 -5.78 -0.76
Si -3.44 -2.34  4.09
Si  3.45 -2.34  4.09
Si -0.41  5.78  0.78
Si -2.50  4.72  2.38
Si  1.21  1.14 -5.62
Si  2.70  4.61 -2.44
Si -4.24  0.14 -4.07
Si  3.51  2.42 -4.06
Si  4.29 -0.02  4.05
Si -1.35 -1.30  5.64
Si  4.67 -3.60 -0.80
Si -4.80  3.45  0.82
Si -1.43 -5.77  0.82
Si -5.12 -2.17  2.38
Si -5.10  2.31 -2.43
Si  0.89 -4.47 -4.07
Si -2.14  1.15 -5.60
Si  2.12 -1.18  5.62
Si  5.17  2.29 -2.38
Si -0.85 -4.60  4.01
Si  0.96  4.60 -3.99
Si -2.14  5.73 -0.82
Si -0.84  4.59  4.05
Si  2.11 -5.76  0.84
Si  5.21 -2.31  2.45
Si -5.96 -0.00 -2.44
Si  6.01  0.08  2.42
Si  3.00  1.13  5.68
Si -3.06 -1.13 -5.66
Si  0.42  3.31  5.64
Si  6.43  1.00 -0.80
Si  3.05  5.78  0.74
Si -2.57 -4.61 -3.99
Si -0.55 -3.46 -5.62
Si  2.52 -4.62  4.05
Si  4.25 -4.53  2.42
Si  5.64  3.45  0.84
Si  2.68  4.62  4.01
Si -4.20  4.61 -2.44
Si -3.09 -5.88 -0.81
Si -5.67 -3.48 -0.82
Si -6.56 -1.16  0.82
Si -2.47  4.74 -4.07
Si -4.33 -4.64 -2.35
Si  1.24 -3.48  5.68
Si -1.30  3.48 -5.66
Si -5.08  2.30  4.00
Si  4.39  4.72  2.38
Si  5.13 -2.22 -4.02
Si -5.16 -2.19 -4.06
Si  3.83 -1.13 -5.66
Si -3.90  1.13  5.68
Si -3.85  5.78  0.74
Si  5.22  2.27  4.09
Si  2.16  3.48 -5.70
Si -2.21 -3.58  5.63
Si  3.80 -5.88 -0.81
Si  0.01 -6.78  2.38
Si -5.98  0.01  4.01
Si  2.99 -3.46 -5.60
Si -3.02  3.43  5.62
Si  6.09 -0.00 -3.99
Si  0.40 -1.13  7.18
Si  0.03  6.90 -2.38
Si  6.41 -3.43  0.74
Si -6.46  3.33 -0.81
Si -0.45  1.03 -7.25
Si  7.23 -1.16  0.82
Si -4.21  4.62  4.01
Si  4.75  1.15 -5.60
Si  1.22  1.14  7.26
Si -4.78 -1.18  5.62
Si  4.32 -4.61 -3.99
Si -7.36  1.00 -0.80
Si -1.35 -1.30 -7.24
Si  4.76  5.73 -0.82
Si  1.64 -6.92 -2.38
Si -1.73 -6.90 -2.43
Si -4.79 -5.76  0.84
Si -4.38 -4.62  4.05
Si  1.84  6.91  2.45
Si -6.82  2.30  2.45
Si -1.59  7.05  2.38
Si -6.87 -2.29 -2.43
Si  3.88  3.43  5.62
Si  2.11 -1.18 -7.26
Si  4.42  4.74 -4.07
Si -3.91 -3.46 -5.60
Si -2.14  1.15  7.28
Si  6.93 -2.29 -2.43
Si  6.97  2.30  2.45
Si  2.99  1.13 -7.20
Si -6.04 -4.49  2.38
Si -0.02 -6.79 -4.06
Si -3.06 -1.13  7.22
Si -5.60  5.61 -0.80
Si  0.41  3.31 -7.24
Si  6.10  4.57 -2.35
Si  5.47 -5.77  0.82
Si  6.06 -4.61 -2.44
Si -6.01  4.68  2.42
Si  0.09  6.87  4.09
Si  5.55 -1.30  5.64
Si -0.38  5.76 -5.60
Si -3.33  6.92 -2.43
Si -0.55 -3.47  7.26
Si  1.32  5.63  5.63
Si  0.35 -5.79  5.62
Si -5.68  1.14 -5.62
Si  1.23 -3.47 -7.20
Si  7.33  3.33 -0.81
Si  3.44 -6.92  2.45
Si -3.45 -6.92  2.45
Si -1.29  3.48  7.22
Si  0.51  8.06  0.84
Si -0.54 -8.09 -0.82
Si -7.78  0.08  2.42
Si  4.69 -3.58  5.63
Si  3.56  6.92 -2.43
Si  1.19 -8.04  0.78
Si -1.71 -6.91  4.00
Si -7.38 -3.43  0.74
Si -1.25  8.04 -0.76
Si -4.74  3.48 -5.70
Si -1.37 -5.74 -5.70
Si  7.83 -0.00 -2.44
Si  1.69 -6.95  4.09
Si  3.84 -1.13  7.22
Si  1.76  6.99 -4.02
Si -6.84 -2.31  4.00
Si  2.17  3.48  7.18
Si -3.90  1.13 -7.20
Si  2.20  7.94 -0.81
Si -1.62  7.03 -4.06
Si  8.18  1.17  0.74
Si  2.07 -5.74 -5.66
Si  6.89  2.38 -4.02
Si -6.90  2.38 -4.02
Si  6.95 -2.31  4.00
Si -2.13  5.74  5.68
Si -8.22 -1.27 -0.81
Si -2.25 -8.04  0.74
Si -2.21 -3.58 -7.25
Si -5.94  4.60 -3.99
Si -6.00 -4.47 -4.07
Si  2.98  5.75 -5.62
Si -3.02  3.43 -7.26
Si  6.05 -4.60  4.01
Si  3.00 -3.46  7.28
Si  3.36 -6.83 -4.02
Si  6.05  4.59  4.05
Si  6.46  1.03  5.63
Si -3.31  6.91  4.00
Si -3.03  8.05  0.82
Si -7.71 -0.00 -3.99
Si -3.53 -6.83 -4.02
Si  5.60  3.48 -5.66
Si -6.50 -1.13 -5.70
Si  6.48  5.78  0.78
Si -5.66 -3.48  5.68
Si -3.11 -5.91  5.64
Si  2.90 -8.21 -0.80
Si  3.58  6.91  4.00
Si -6.55 -5.78 -0.76
Si  4.76  1.15  7.28
Si -4.79 -1.18 -7.26
Si  7.82  0.01  4.01
Si  8.13 -3.48 -0.82
Si -8.15  3.45  0.84
Si -5.05  6.91  2.45
Si  3.88  3.43 -7.26
Si  0.91  0.01 -8.87
Si -0.80 -0.01  8.89
Si -3.92  5.75 -5.62
Si -3.90 -3.46  7.28
Si  5.16 -6.90 -2.43
Si  3.87  8.05  0.82
Si  3.79 -5.91  5.64
Si -5.26 -6.92 -2.38
Si  9.01 -1.17 -0.76
Si  5.31  7.05  2.38
Si  6.34 -3.46 -5.62
Si -4.00 -8.21 -0.80
Si  0.00  2.38  8.86
Si  0.05 -2.30 -8.88
Si -9.07  1.17  0.78
Si -6.48  3.31  5.64
Si -2.62 -0.01 -8.83
Si  5.54 -1.30 -7.24
Si  2.66  0.13  8.81
Si -8.59 -2.31  2.45
Si -1.69  2.27 -8.79
Si -8.63  2.29 -2.38
Si  1.75 -2.19  8.82
Si  8.68 -2.17  2.38
Si -7.70  4.57 -2.35
Si -4.69  7.94 -0.81
Si  7.76 -4.49  2.38
Si -4.73  3.48  7.18
Si  1.32  5.64 -7.25
Si -0.37  5.75  7.28
Si -5.68  1.14  7.26
Si  0.34 -5.78 -7.26
Si -1.36 -5.74  7.18
Si  7.25 -5.78 -0.76
Si -1.76 -2.23  8.86
Si -7.34  1.03  5.63
Si  4.65 -8.04  0.74
Si  8.69  2.31 -2.43
Si -7.73 -4.61 -2.44
Si  7.29 -1.13 -5.70
Si  4.68 -3.58 -7.25
Si -7.31  5.78  0.78
Si  1.81  2.31 -8.88
Si  4.77  5.74  5.68
Si -4.83 -5.74 -5.66
Si  7.78  4.68  2.42
Si -0.90 -9.10  2.38
Si  2.07 -5.74  7.22
Si -2.14  5.74 -7.20
Si  0.97  9.18 -2.35
Si  5.18 -6.91  4.00
Si -5.13  6.99 -4.02
Si  0.80 -9.25 -2.35
Si -5.21 -6.95  4.09
Si -0.74  9.33  2.38
Si  9.00  3.45  0.82
Si  5.27  7.03 -4.06
Si -5.57  5.63  5.63
Si  3.45 -2.34 -8.79
Si -3.45 -2.34 -8.79
Si  2.99  5.75  7.26
Si -9.46 -0.04 -2.35
Si -3.38  2.42  8.82
Si -6.49 -1.13  7.18
Si  6.45  1.03 -7.25
Si -8.58  2.27  4.09
Si  2.48 -9.14  2.42
Si  5.61  3.48  7.22
Si -4.23  0.13  8.81
Si  8.64 -2.19 -4.06
Si  5.53 -5.74 -5.70
Si  3.51  2.42  8.82
Si -5.67 -3.47 -7.20
Si -8.67 -2.22 -4.02
Si  4.28 -0.01 -8.83
Si  7.32  3.31  5.64
Si  9.52  0.12  2.38
Si -2.43  9.21 -2.44
Si -9.13 -3.60 -0.80
Si -3.12 -5.90 -7.24
Si  5.64  8.04 -0.76
Si  7.79 -4.47 -4.07
Si -7.75 -4.60  4.01
Si  8.72  2.30  4.00
Si -7.74  4.59  4.05
Si -2.60 -9.21 -2.44
Si  0.47  8.09 -5.66
Si -1.25  8.04  5.62
Si -5.71 -8.04  0.78
Si -0.53 -8.08  5.68
Si  1.22 -8.06 -5.60
Si  0.90 -4.47  8.81
Si  8.11  1.14 -5.62
Si  7.85  4.60 -3.99
Si -6.88 -6.78  2.38
Si -7.45 -3.46 -5.62
Si  2.65  9.29  2.42
Si  2.19  7.91  5.64
Si  6.91 -6.78  2.38
Si  8.20  5.61 -0.80
Si -0.87 -9.08 -4.07
Si -0.85  4.59 -8.83
Si  9.89  1.13 -0.82
Si -6.86  6.90 -2.38
Si -9.92 -1.16  0.84
Si -0.85 -4.59 -8.87
Si -3.91  5.75  7.26
Si  0.96  4.60  8.89
Si  6.93  6.90 -2.38
Si -8.24 -1.30  5.64
Si  3.78 -5.90 -7.24
Si  0.92  9.20  4.05
Si -2.32 -8.07 -5.62
Si  0.76 -9.23  4.05
Si -8.33 -5.77  0.82
Si -0.71  9.35 -4.07
Si  6.35 -3.47  7.26
Si -6.48  3.31 -7.24
Si  2.52 -4.62 -8.83
Si  7.30 -1.13  7.18
Si -2.47  4.74  8.81
Si -6.39  8.06  0.84
Si  6.36 -8.09 -0.82
Si -2.97  8.09 -5.70
Si -9.51 -0.02  4.05
Si -2.57 -4.61  8.89
Si  6.52  5.76 -5.60
Si -2.45  9.22  4.01
Si  2.68  4.62 -8.87
Si  2.92 -8.19  5.63
Si  2.56 -9.22 -3.99
Si  4.76  5.74 -7.20
Si -7.35  1.03 -7.25
Si -2.61 -9.21  4.01
Si -0.37 10.34 -0.82
Si  9.55  0.14 -4.07
Si -6.55 -5.79  5.62
Si  2.72  9.21 -3.99
Si -4.82 -5.74  7.22
Si  0.34 -10.37  0.84
Si -4.41 -9.14  2.42
Si -5.15 -2.19  8.82
Si  4.30 -9.21 -2.44
Si  9.85 -3.43  0.78
Si  5.21  2.27 -8.79
Si  5.13 -2.23  8.86
Si  6.87 -6.79 -4.06
Si  0.94 -0.00 10.44
Si -5.08  2.31 -8.88
Si -0.89  0.08 -10.46
Si -4.25  9.29  2.42
Si  1.35 10.39  0.78
Si -6.81  6.87  4.09
Si -1.42 -10.38 -0.76
Si  8.13 -3.48  5.68
Si -6.92 -6.79 -4.06
Si -9.91  3.44 -0.76
Si  4.46  9.21 -2.44
Si -8.20  3.48 -5.66
Si  6.98  6.87  4.09
Si -2.08 10.39  0.74
Si  3.93  8.09 -5.70
Si  0.07  2.30 -10.43
Si  9.01 -1.18  5.62
Si -9.04  1.15 -5.60
Si  3.06 10.22 -0.80
Si  0.04 -2.30 10.45
Si -3.97 -8.19  5.63
Si -5.99  0.01 -8.87
Si  2.04 -10.49 -0.81
Si  9.01 -5.76  0.84
Si -9.03  5.73 -0.82
Si  5.53 -5.74  7.18
Si -5.58  5.64 -7.25
Si  6.09 -0.01  8.89
Si -9.40  4.72  2.38
Si  9.46 -4.64 -2.35
Si -10.25  2.44  2.38
Si -4.71  7.91  5.64
Si  7.31  3.31 -7.24
Si -1.69 -2.31 -10.43
Si 10.30 -2.32 -2.38
Si  2.62  0.12 -10.50
Si -0.54 -8.08 -7.20
Si -7.28  5.76 -5.60
Si -9.54 -4.53  2.42
Si -2.56 -0.04 10.53
Si  7.25 -5.79  5.62
Si  0.47  8.08  7.22
Si  4.58 -8.07 -5.62
Si  1.80  2.31 10.45
Si -4.22  4.62 -8.87
Si 10.77 -1.16  0.84
Si -4.17  9.21 -3.99
Si  1.77 -2.17 -10.51
Si -1.73  2.29 10.49
Si -4.38 -4.62 -8.83
Si -3.20 -10.38  0.82
Si -10.80  1.13 -0.82
Si -1.26  8.04 -7.26
Si -10.39 -2.32 -2.38
Si  4.33 -4.61  8.89
Si  4.28 -9.21  4.01
Si  9.60  4.61 -2.44
Si  1.23 -8.07  7.28
Si -4.34 -9.22 -3.99
Si -3.83 10.22 -0.80
Si  4.43  4.74  8.81
Si  2.18  7.92 -7.24
Si  8.12  1.14  7.26
Si -7.44 -3.47  7.26
Si  7.41  8.06  0.84
Si 10.44  2.44  2.38
Si  4.45  9.22  4.01
Si -7.43 -8.09 -0.82
Si  3.70 -10.38  0.82
Si -8.25 -1.30 -7.24
Si -2.31 -8.07  7.26
Si -0.02 -6.79  8.82
Si  5.99 -9.10  2.38
Si  0.08  6.88 -8.79
Si -5.93  9.18 -2.35
Si -2.96  8.08  7.18
Si  8.53 -6.92 -2.38
Si  9.42 -4.62  4.05
Si  9.06  3.48 -5.70
Si -9.37  4.74 -4.07
Si -9.47 -4.61 -3.99
Si  3.41 -2.32 10.49
Si -8.48  7.05  2.38
Si -9.11 -3.58  5.63
Si -3.36  2.44 -10.51
Si -3.49 -2.32 10.49
Si -8.63 -6.90 -2.43
Si  5.65  8.04  5.62
Si  2.92 -8.18 -7.25
Si -10.29  2.42 -4.06
Si -6.09 -9.25 -2.35
Si  1.68 -6.95 -8.79
Si 10.78  3.44 -0.76
Si  6.53  5.75  7.28
Si -4.28  0.12 -10.50
Si -5.67 -8.06 -5.60
Si  3.54  2.44 -10.51
Si -6.55 -5.78 -7.26
Si  9.58  4.62  4.01
Si -10.34 -2.34  4.09
Si 10.35 -2.34  4.09
Si -1.72 -6.91 -8.88
Si -1.62  7.03  8.82
Si  4.34 -0.04 10.53
Si -10.84 -3.43  0.78
Si  8.13 -3.47 -7.20
Si  8.74  6.91  2.45
Si -11.17  0.12  2.38
Si  1.77  6.99  8.86
Si  8.09 -8.04  0.78
Si 10.40  2.42 -4.06
Si  6.16  9.33  2.38
Si -0.83 -4.61 10.44
Si  8.22  5.63  5.63
Si -6.85 -2.30 -8.88
Si  0.85 -4.49 -10.50
Si -8.19  3.48  7.22
Si  9.90  1.13  5.68
Si 11.23 -0.04 -2.35
Si  4.81 10.39  0.74
Si -8.15  8.04 -0.76
