500
set: 644.00  0.00  0.00
Si  0.46 -0.93  0.79
Si -0.46  0.93 -0.79
Si  1.41  1.26  0.79
Si -1.41 -1.26 -0.79
Si  2.17 -1.26 -0.79
Si -2.17  1.26  0.79
Si  1.18  0.11 -2.60
Si -1.18 -0.11  2.60
Si -0.50 -3.12  0.79
Si  0.50  3.12 -0.79
Si -0.23  2.08  2.60
Si  0.23 -2.08 -2.60
Si -3.12 -0.93  0.79
Si  3.12  0.93 -0.79
Si -2.40  0.11 -2.60
Si  2.40 -0.11  2.60
Si -1.21  3.45  0.79
Si  1.21 -3.45 -0.79
Si  1.44 -2.30  2.60
Si -1.44  2.30 -2.60
Si -2.14 -2.30  2.60
Si  2.14  2.30 -2.60
Si  4.04 -0.93  0.79
Si -4.04  0.93 -0.79
Si  0.69  0.22  4.19
Si -0.69 -0.22 -4.19
Si -2.37 -3.45 -0.79
Si  2.37  3.45  0.79
Si  3.08 -3.12  0.79
Si -3.08  3.12 -0.79
Si  0.27  1.97 -4.19
Si -0.27 -1.97  4.19
Si -3.36 -2.08 -2.60
Si  3.36  2.08  2.60
Si -0.73 -4.27 -2.60
Si  0.73  4.27  2.60
Si  3.81 -2.08 -2.60
Si -3.81  2.08  2.60
Si  2.89 -0.22 -4.19
Si -2.89  0.22  4.19
Si -1.65 -2.41 -4.19
Si  1.65  2.41  4.19
Si -4.08 -3.12  0.79
Si  4.08  3.12 -0.79
Si  1.94 -2.41 -4.19
Si -1.94  2.41  4.19
Si -5.00 -1.26 -0.79
Si  5.00  1.26  0.79
Si  0.49 -4.49  2.60
Si -0.49  4.49 -2.60
Si  4.76  0.11 -2.60
Si -4.76 -0.11  2.60
Si  1.46  5.31 -0.79
Si -1.46 -5.31  0.79
Si  3.31 -1.97  4.19
Si -3.31  1.97 -4.19
Si -0.26  5.64  0.79
Si  0.26 -5.64 -0.79
Si -2.85  4.27  2.60
Si  2.85 -4.27 -2.60
Si  2.13 -5.31  0.79
Si -2.13  5.31 -0.79
Si -5.75  1.26  0.79
Si  5.75 -1.26 -0.79
Si  4.79 -3.45 -0.79
Si -4.79  3.45  0.79
Si -4.27 -0.22 -4.19
Si  4.27  0.22  4.19
Si -3.85 -1.97  4.19
Si  3.85  1.97 -4.19
Si  1.22  4.16 -4.19
Si -1.22 -4.16  4.19
Si  3.10  4.49 -2.60
Si -3.10 -4.49  2.60
Si  5.02 -2.30  2.60
Si -5.02  2.30 -2.60
Si  0.95 -1.04 -6.00
Si -0.95  1.04  6.00
Si  0.98 -4.60 -4.19
Si -0.98  4.60  4.19
Si  1.68 -1.15  6.00
Si -1.68  1.15 -6.00
Si -2.36  4.16 -4.19
Si  2.36 -4.16  4.19
Si -1.91 -1.15  6.00
Si  1.91  1.15 -6.00
Si -5.98  0.11 -2.60
Si  5.98 -0.11  2.60
Si  3.33  5.64  0.79
Si -3.33 -5.64 -0.79
Si -4.07  4.49 -2.60
Si  4.07 -4.49  2.60
Si  4.31  4.27  2.60
Si -4.31 -4.27 -2.60
Si -2.63 -1.04 -6.00
Si  2.63  1.04  6.00
Si -5.72 -2.30  2.60
Si  5.72  2.30 -2.60
Si  2.60  4.60  4.19
Si -2.60 -4.60 -4.19
Si  6.71  0.93 -0.79
Si -6.71 -0.93  0.79
Si -0.01 -3.23 -6.00
Si  0.01  3.23  6.00
Si -3.84  5.64  0.79
Si  3.84 -5.64 -0.79
Si -0.72  3.34 -6.00
Si  0.72 -3.34  6.00
Si  5.95  3.45  0.79
Si -5.95 -3.45 -0.79
Si -5.23 -2.41 -4.19
Si  5.23  2.41  4.19
Si  1.69  6.46  2.60
Si -1.69 -6.46 -2.60
Si  0.47  6.68 -2.60
Si -0.47 -6.68  2.60
Si -1.89  6.46  2.60
Si  1.89 -6.46 -2.60
Si  5.52 -2.41 -4.19
Si -5.52  2.41  4.19
Si -5.04 -5.31  0.79
Si  5.04  5.31 -0.79
Si -6.66  3.12 -0.79
Si  6.66 -3.12  0.79
Si -2.86 -3.34  6.00
Si  2.86  3.34 -6.00
Si -4.53  1.04  6.00
Si  4.53 -1.04 -6.00
Si  4.80  4.16 -4.19
Si -4.80 -4.16  4.19
Si -0.04 -0.82  7.59
Si  0.04  0.82 -7.59
Si -1.17  7.50 -0.79
Si  1.17 -7.50  0.79
Si  6.94  2.08  2.60
Si -6.94 -2.08 -2.60
Si  3.58 -3.23 -6.00
Si -3.58  3.23  6.00
Si -3.59 -3.23 -6.00
Si  3.59  3.23  6.00
Si -4.56  4.60  4.19
Si  4.56 -4.60 -4.19
Si  6.47 -0.22 -4.19
Si -6.47  0.22  4.19
Si -7.62  0.93 -0.79
Si  7.62 -0.93  0.79
Si  1.40 -6.35  4.19
Si -1.40  6.35 -4.19
Si -0.92 -1.37 -7.59
Si  0.92  1.37  7.59
Si -3.11  6.68 -2.60
Si  3.11 -6.68  2.60
Si -5.71  5.31 -0.79
Si  5.71 -5.31  0.79
Si  0.70  7.83  0.79
Si -0.70 -7.83 -0.79
Si  2.18  6.35 -4.19
Si -2.18 -6.35  4.19
Si -2.41 -7.50  0.79
Si  2.41  7.50 -0.79
Si  0.02 -6.79 -4.19
Si -0.02  6.79  4.19
Si  5.26 -1.15  6.00
Si -5.26  1.15 -6.00
Si -4.30  3.34 -6.00
Si  4.30 -3.34  6.00
Si  7.39 -2.08 -2.60
Si -7.39  2.08  2.60
Si  0.96  5.42  6.00
Si -0.96 -5.42 -6.00
Si  6.43 -4.27 -2.60
Si -6.43  4.27  2.60
Si -2.66  1.37  7.59
Si  2.66 -1.37 -7.59
Si  0.24  5.53 -6.00
Si -0.24 -5.53  6.00
Si  5.49  1.15 -6.00
Si -5.49 -1.15  6.00
Si -0.99 -3.01  7.59
Si  0.99  3.01 -7.59
Si -4.05 -6.68  2.60
Si  4.05  6.68 -2.60
Si  6.89 -1.97  4.19
Si -6.89  1.97 -4.19
Si -7.66 -3.12  0.79
Si  7.66  3.12 -0.79
Si  5.94 -4.16  4.19
Si -5.94  4.16 -4.19
Si -2.88  7.83  0.79
Si  2.88 -7.83 -0.79
Si  3.55 -0.82  7.59
Si -3.55  0.82 -7.59
Si -3.62 -0.82  7.59
Si  3.62  0.82 -7.59
Si  6.68  4.49 -2.60
Si -6.68 -4.49  2.60
Si -2.62  5.42  6.00
Si  2.62 -5.42 -6.00
Si -1.70  3.56  7.59
Si  1.70 -3.56 -7.59
Si -2.59  3.01 -7.59
Si  2.59 -3.01  7.59
Si -1.88 -3.56 -7.59
Si  1.88  3.56  7.59
Si -6.21 -1.04 -6.00
Si  6.21  1.04  6.00
Si -8.58 -1.26 -0.79
Si  8.58  1.26  0.79
Si -5.27 -6.46 -2.60
Si  5.27  6.46  2.60
Si  3.56  6.79  4.19
Si -3.56 -6.79 -4.19
Si -8.34 -0.11  2.60
Si  8.34  0.11 -2.60
Si -3.60  6.79  4.19
Si  3.60 -6.79 -4.19
Si -7.43 -1.97  4.19
Si  7.43  1.97 -4.19
Si  6.18  4.60  4.19
Si -6.18 -4.60 -4.19
Si  3.34 -5.53  6.00
Si -3.34  5.53 -6.00
Si  5.47 -6.46 -2.60
Si -5.47  6.46  2.60
Si -7.85 -0.22 -4.19
Si  7.85  0.22  4.19
Si -4.75  7.50 -0.79
Si  4.75 -7.50  0.79
Si  4.50  1.37  7.59
Si -4.50 -1.37 -7.59
Si  6.91  5.64  0.79
Si -6.91 -5.64 -0.79
Si  4.28  7.83  0.79
Si -4.28 -7.83 -0.79
Si -3.82 -5.53  6.00
Si  3.82  5.53 -6.00
Si  0.94 -8.65 -2.60
Si -0.94  8.65  2.60
Si -8.37  3.45  0.79
Si  8.37 -3.45 -0.79
Si  4.98 -6.35  4.19
Si -4.98  6.35 -4.19
Si  7.65 -4.49  2.60
Si -7.65  4.49 -2.60
Si  4.54  5.42  6.00
Si -4.54 -5.42 -6.00
Si  8.61 -2.30  2.60
Si -8.61  2.30 -2.60
Si  1.63 -5.20  7.59
Si -1.63  5.20 -7.59
Si -7.89 -4.27 -2.60
Si  7.89  4.27  2.60
Si -7.42  5.64  0.79
Si  7.42 -5.64 -0.79
Si -1.43 -8.87  2.60
Si  1.43  8.87 -2.60
Si -4.57 -3.01  7.59
Si  4.57  3.01 -7.59
Si -1.95 -5.20  7.59
Si  1.95  5.20 -7.59
Si  2.64  8.65  2.60
Si -2.64 -8.65 -2.60
Si -6.44 -3.34  6.00
Si  6.44  3.34 -6.00
Si -9.33  1.26  0.79
Si  9.33 -1.26 -0.79
Si  2.15 -8.87  2.60
Si -2.15  8.87 -2.60
Si -0.45  8.54 -4.19
Si  0.45 -8.54  4.19
Si -5.76 -6.35  4.19
Si  5.76  6.35 -4.19
Si -0.75  5.75  7.59
Si  0.75 -5.75 -7.59
Si -1.68  0.00  9.40
Si  1.68 -0.00 -9.40
Si -1.91 -0.00 -9.40
Si  1.91  0.00  9.40
Si -5.99 -7.50  0.79
Si  5.99  7.50 -0.79
Si  0.72 -2.19 -9.40
Si -0.72  2.19  9.40
Si  0.95 -2.19  9.40
Si -0.95  2.19 -9.40
Si  0.21 -9.69  0.79
Si -0.21  9.69 -0.79
Si -6.69  6.68 -2.60
Si  6.69 -6.68  2.60
Si -1.66  7.61  6.00
Si  1.66 -7.61 -6.00
Si  1.19  7.72 -6.00
Si -1.19 -7.72  6.00
Si -1.92 -7.61 -6.00
Si  1.92  7.61  6.00
Si -7.16  3.23  6.00
Si  7.16 -3.23 -6.00
Si -7.17 -3.23 -6.00
Si  7.17  3.23  6.00
Si -5.29  3.56  7.59
Si  5.29 -3.56 -7.59
Si -9.56  0.11 -2.60
Si  9.56 -0.11  2.60
Si  6.24 -1.37 -7.59
Si -6.24  1.37  7.59
Si -9.30 -2.30  2.60
Si  9.30  2.30 -2.60
Si -2.83 -5.75 -7.59
Si  2.83  5.75  7.59
Si -0.93 -8.98 -4.19
Si  0.93  8.98  4.19
Si -5.46 -3.56 -7.59
Si  5.46  3.56  7.59
Si  2.63  2.19 -9.40
Si -2.63 -2.19  9.40
Si -3.14 -8.54  4.19
Si  3.14  8.54 -4.19
Si  8.81  2.41  4.19
Si -8.81 -2.41 -4.19
Si -2.39  7.72 -6.00
Si  2.39 -7.72  6.00
Si  2.86  2.19  9.40
Si -2.86 -2.19 -9.40
Si  4.52 -8.65 -2.60
Si -4.52  8.65  2.60
Si -8.11  1.04  6.00
Si  8.11 -1.04 -6.00
Si -8.62 -5.31  0.79
Si  8.62  5.31 -0.79
Si -9.53 -3.45 -0.79
Si  9.53  3.45  0.79
Si  6.46 -7.83 -0.79
Si -6.46  7.83  0.79
Si -1.66 -10.02 -0.79
Si  1.66 10.02  0.79
Si  6.20 -5.42 -6.00
Si -6.20  5.42  6.00
Si -1.92 10.02  0.79
Si  1.92 -10.02 -0.79
Si -6.17  3.01 -7.59
Si  6.17 -3.01  7.59
Si  8.14 -4.60 -4.19
Si -8.14  4.60  4.19
Si  2.65 -8.98 -4.19
Si -2.65  8.98  4.19
Si -8.39 -4.16  4.19
Si  8.39  4.16 -4.19
Si -3.37 -9.69  0.79
Si  3.37  9.69 -0.79
Si  9.10 -2.41 -4.19
Si -9.10  2.41  4.19
Si -4.03  8.54 -4.19
Si  4.03 -8.54  4.19
Si 10.29  0.93 -0.79
Si -10.29 -0.93  0.79
Si -0.01 -4.38  9.40
Si  0.01  4.38 -9.40
Si -0.24 -4.38 -9.40
Si  0.24  4.38  9.40
Si -3.79  9.69 -0.79
Si  3.79 -9.69  0.79
Si -7.13  0.82 -7.59
Si  7.13 -0.82  7.59
Si  7.88 -3.34  6.00
Si -7.88  3.34 -6.00
Si  4.33 -5.75 -7.59
Si -4.33  5.75  7.59
Si -7.63 -6.68  2.60
Si  7.63  6.68 -2.60
Si  7.20  0.82 -7.59
Si -7.20 -0.82  7.59
Si  5.01  8.87 -2.60
Si -5.01 -8.87  2.60
Si  4.30 -2.19 -9.40
Si -4.30  2.19  9.40
Si -5.21  5.20 -7.59
Si  5.21 -5.20  7.59
Si -0.68  7.39 -7.59
Si  0.68 -7.39  7.59
Si -4.53  2.19 -9.40
Si  4.53 -2.19  9.40
Si  6.92 -5.53  6.00
Si -6.92  5.53 -6.00
Si -7.14 -6.79 -4.19
Si  7.14  6.79  4.19
Si -9.29  5.31 -0.79
Si  9.29 -5.31  0.79
Si -5.53 -5.20  7.59
Si  5.53  5.20 -7.59
Si -7.18  6.79  4.19
Si  7.18 -6.79 -4.19
Si -10.24  3.12 -0.79
Si 10.24 -3.12  0.79
Si  8.84 -1.15  6.00
Si -8.84  1.15 -6.00
Si  5.26 -0.00 -9.40
Si -5.26  0.00  9.40
Si -5.74  8.87 -2.60
Si  5.74 -8.87  2.60
Si -4.78 -7.72  6.00
Si  4.78  7.72 -6.00
Si -5.49 -0.00 -9.40
Si  5.49  0.00  9.40
Si  4.51  8.98  4.19
Si -4.51 -8.98 -4.19
Si 10.05 -0.22 -4.19
Si -10.05  0.22  4.19
Si  3.34 -4.38 -9.40
Si -3.34  4.38  9.40
Si  9.07  1.15 -6.00
Si -9.07 -1.15  6.00
Si -3.58  4.38 -9.40
Si  3.58 -4.38  9.40
Si -6.22 -8.65 -2.60
Si  6.22  8.65  2.60
Si -3.59 -4.38  9.40
Si  3.59  4.38 -9.40
Si -0.21 -7.94 -7.59
Si  0.21  7.94  7.59
Si -2.90 -7.39  7.59
Si  2.90  7.39 -7.59
Si -0.20 -0.33 -10.98
Si  0.20  0.33 10.98
Si -7.40 -5.53  6.00
Si  7.40  5.53 -6.00
Si -5.24  7.61  6.00
Si  5.24 -7.61 -6.00
Si 10.52  2.08  2.60
Si -10.52 -2.08 -2.60
Si -3.82 -4.38 -9.40
Si  3.82  4.38  9.40
Si -7.86 -7.83 -0.79
Si  7.86  7.83  0.79
Si  5.50  7.61  6.00
Si -5.50 -7.61 -6.00
Si  0.02 10.84  2.60
Si -0.02 -10.84 -2.60
Si  0.76  1.86 -10.98
Si -0.76 -1.86 10.98
Si  8.08  1.37  7.59
Si -8.08 -1.37 -7.59
Si -10.01  4.27  2.60
Si 10.01 -4.27 -2.60
Si  9.52 -4.16  4.19
Si -9.52  4.16 -4.19
Si -8.33  7.50 -0.79
Si  8.33 -7.50  0.79
Si  8.85  6.46  2.60
Si -8.85 -6.46 -2.60
Si 11.20 -0.93  0.79
Si -11.20  0.93 -0.79
Si  1.15  2.52 10.98
Si -1.15 -2.52 -10.98
Si  5.24 10.02  0.79
Si -5.24 -10.02 -0.79
Si -4.26  7.39 -7.59
Si  4.26 -7.39  7.59
Si -1.20 11.06 -2.60
Si  1.20 -11.06  2.60
Si  9.06 -6.46 -2.60
Si -9.06  6.46  2.60
Si -10.48  1.97 -4.19
Si 10.48 -1.97  4.19
Si  8.56 -6.35  4.19
Si -8.56  6.35 -4.19
Si  5.97 -7.72  6.00
Si -5.97  7.72 -6.00
Si -5.50 10.02  0.79
Si  5.50 -10.02 -0.79
Si -8.12 -5.42 -6.00
Si  8.12  5.42  6.00
Si 10.97 -2.08 -2.60
Si -10.97  2.08  2.60
Si -6.42 -5.75 -7.59
Si  6.42  5.75  7.59
Si  6.21  2.19 -9.40
Si -6.21 -2.19  9.40
Si  3.37 -7.94 -7.59
Si -3.37  7.94  7.59
Si -2.82  1.86 -10.98
Si  2.82 -1.86 10.98
Si 10.26  4.49 -2.60
Si -10.26 -4.49  2.60
Si -3.38  0.33 10.98
Si  3.38 -0.33 -10.98
Si -0.96 -6.57  9.40
Si  0.96  6.57 -9.40
Si  0.71 -9.80 -6.00
Si -0.71  9.80  6.00
Si -2.43  2.52 10.98
Si  2.43 -2.52 -10.98
Si  0.51 10.73 -4.19
Si -0.51 -10.73  4.19
Si  1.20  6.57  9.40
Si -1.20 -6.57 -9.40
Si -9.79 -1.04 -6.00
Si  9.79  1.04  6.00
Si  8.15  3.01 -7.59
Si -8.15 -3.01  7.59
Si -9.76 -4.60 -4.19
Si  9.76  4.60  4.19
