500
set: 321.00  0.00  0.00
Si  0.07 -0.07  0.02
Si  1.86  1.09  0.81
Si -1.92  1.06  0.75
Si -0.01 -0.00 -2.32
Si  0.03 -2.24  0.76
Si  3.70  0.01  0.06
Si  1.86  3.26  0.03
Si -1.90  1.14  3.03
Si -1.89  3.26 -0.05
Si -1.95 -1.08 -3.03
Si  0.02 -2.19  3.08
Si  0.02  2.18 -3.10
Si  1.90 -3.30 -0.05
Si  1.83  1.11  3.15
Si  1.89 -1.04 -3.15
Si -1.93 -3.30  0.03
Si -3.87  0.01  0.06
Si -1.81 -1.01  3.83
Si  0.04  4.33  0.75
Si  3.78  0.04 -2.30
Si  1.91 -1.11  3.84
Si -3.75 -2.23  0.75
Si -3.79  0.04 -2.30
Si  1.98 -3.20 -2.35
Si  1.91  3.26 -2.35
Si -1.88 -3.30 -2.35
Si -0.01  2.23  3.88
Si -1.81  3.36 -2.35
Si  3.82 -2.23  0.75
Si  0.01 -4.29 -3.08
Si -3.78 -2.10  3.10
Si  3.80 -2.10  3.10
Si -3.78  2.27 -3.08
Si  3.80  2.27 -3.08
Si  0.01  4.46  3.10
Si -3.76  4.31  0.76
Si  5.66  1.06  0.75
Si  3.81  4.31  0.76
Si -1.93 -1.09 -5.37
Si  0.03  2.13 -5.42
Si  3.78  2.19  3.86
Si -0.01 -4.37  3.86
Si -3.80  2.19  3.86
Si -1.93 -5.47  0.81
Si  1.87 -5.50  0.75
Si  1.87 -1.13 -5.44
Si -5.72  1.09  0.81
Si  5.62 -1.08 -3.03
Si  1.89 -5.42  3.03
Si -0.09 -2.17 -6.12
Si -1.89 -1.12  6.13
Si  1.83  5.48 -3.03
Si  5.68  1.14  3.03
Si -1.93  1.07 -6.16
Si -3.77  4.37  3.08
Si  5.65 -3.30  0.03
Si -0.09 -6.55  0.06
Si  5.69  3.26 -0.05
Si -3.77 -4.38 -3.10
Si  3.81  4.37  3.08
Si -5.67 -3.30 -0.05
Si -0.08  6.57  0.06
Si -5.71  3.26  0.03
Si  3.81 -4.38 -3.10
Si  1.86 -1.11  6.21
Si -5.68 -1.04 -3.15
Si -1.95 -5.45  3.15
Si  1.90  1.07 -6.23
Si -0.08  2.20  6.25
Si -1.90  5.51 -3.15
Si -5.74  1.11  3.15
Si -5.60 -3.20 -2.35
Si -0.01 -6.52 -2.30
Si -1.88  5.45  3.84
Si -5.67 -1.11  3.84
Si  0.04 -0.05  6.94
Si  3.78 -4.33  3.88
Si -3.75  2.14 -5.43
Si -5.67  3.26 -2.35
Si -3.79 -4.33  3.88
Si  3.82  2.14 -5.43
Si  5.70 -3.30 -2.35
Si -0.01  6.60 -2.30
Si  5.76 -1.01  3.83
Si  0.03 -4.42 -5.43
Si  1.98  5.55  3.83
Si  5.76  3.36 -2.35
Si -3.72  6.49  0.02
Si -7.51 -0.07  0.02
Si  0.07  4.30 -6.17
Si -3.72  2.11  6.20
Si  3.85  6.49  0.02
Si -3.72 -2.26 -6.17
Si  3.85  2.11  6.20
Si -3.72 -6.63  0.02
Si  3.85 -2.26 -6.17
Si  0.07 -4.45  6.20
Si  7.64 -0.07  0.02
Si  3.85 -6.63  0.02
Si  5.64 -1.09 -5.37
Si  1.87  3.25  6.93
Si  1.87  7.62  0.75
Si  1.86  5.46 -5.37
Si  5.64 -5.47  0.81
Si -3.76 -0.06  6.95
Si  7.56 -0.00 -2.32
Si -7.55 -2.24  0.76
Si  3.78  6.56 -2.32
Si  3.78 -6.56 -2.32
Si -1.92 -3.31  6.93
Si -1.92  5.43 -5.44
Si  3.81 -0.06  6.95
Si -3.80  6.56 -2.32
Si -3.80 -6.56 -2.32
Si -7.58 -0.00 -2.32
Si -1.93  7.65  0.81
Si  1.86 -3.28  6.99
Si -3.76 -4.43 -5.42
Si -5.70 -5.50  0.75
Si -5.70 -1.13 -5.44
Si  7.60 -2.24  0.76
Si -1.93  3.28  6.99
Si  3.81 -4.43 -5.42
Si  3.70  4.38 -6.12
Si -5.68 -5.42  3.03
Si  1.90  5.44  6.13
Si  1.83 -7.64 -3.03
Si  5.65  1.07 -6.16
Si  5.69 -1.12  6.13
Si  5.62 -5.45  3.15
Si -1.90 -7.60 -3.15
Si -7.55 -2.19  3.08
Si -7.55  2.18 -3.10
Si  1.86 -5.49 -6.16
Si -3.87  4.38 -6.12
Si  3.70 -4.36  6.25
Si -1.92  5.45  6.21
Si  7.59 -2.19  3.08
Si  7.59  2.18 -3.10
Si  1.89  7.70  3.03
Si -5.74  5.48 -3.03
Si -5.67  1.07 -6.23
Si -5.71 -1.11  6.21
Si -1.95  7.67  3.15
Si -1.89 -5.49 -6.23
Si  5.68  5.51 -3.15
Si -3.87 -4.36  6.25
Si  1.98 -7.57  3.83
Si -7.54  4.33  0.75
Si -0.01 -2.15 -8.48
Si -5.59  5.55  3.83
Si  5.70  5.45  3.84
Si -1.88 -7.67  3.84
Si  7.61  4.33  0.75
Si  7.57  2.23  3.88
Si -1.88  1.08 -8.53
Si -7.58  2.23  3.88
Si  0.03 -8.79  0.75
Si  1.98  1.17 -8.54
Si  0.01 -8.66  3.10
Si -7.56 -4.29 -3.08
Si  7.58 -4.29 -3.08
Si  0.01  0.08 -9.26
Si  0.01  0.09  9.29
Si -7.56  4.46  3.10
Si  7.58  4.46  3.10
Si  0.01  8.83 -3.08
Si  0.03  6.50  6.95
Si  9.43  1.09  0.81
Si -7.55  2.13 -5.42
Si  1.86 -7.65 -5.37
Si  5.66 -3.31  6.93
Si  5.64  7.65  0.81
Si  5.66  5.43 -5.44
Si -5.70  3.25  6.93
Si -5.70  7.62  0.75
Si  7.56 -4.37  3.86
Si  3.78 -2.19 -8.51
Si -0.01  8.74  3.86
Si -5.72  5.46 -5.37
Si -0.01  4.37 -8.51
Si  5.64  3.28  6.99
Si -3.80 -2.19 -8.51
Si -7.58 -4.37  3.86
Si  7.60  2.13 -5.42
Si -9.49  1.06  0.75
Si  0.03 -6.62  6.95
Si -3.76 -8.80  0.76
Si -1.92 -7.69 -5.44
Si -5.72 -3.28  6.99
Si  3.81 -8.80  0.76
Si  7.49 -2.17 -6.12
Si  1.83 -3.27 -9.21
Si  7.49 -6.55  0.06
Si -1.90 -3.23  9.22
Si  7.49  6.57  0.06
Si -5.67  5.44  6.13
Si -1.95  3.29 -9.21
Si  1.89  3.33  9.22
Si  1.86  7.63 -6.16
Si  9.44  3.26  0.03
Si  9.41  1.11  3.15
Si  1.90  9.81 -0.05
Si  7.49  2.20  6.25
Si  5.68 -7.60 -3.15
Si -1.92  9.82  0.03
Si -3.77 -0.01  9.27
Si  5.65  5.45  6.21
Si -9.46  3.26 -0.05
Si  1.90 -7.67  6.13
Si -3.77  8.74 -3.10
Si -9.47  1.14  3.03
Si -3.77 -8.75  3.08
Si  5.62  7.67  3.15
Si -3.77 -0.01 -9.28
Si  3.81 -0.01  9.27
Si  3.81  8.74 -3.10
Si -5.74 -7.64 -3.03
Si  3.81 -8.75  3.08
Si  9.46 -1.04 -3.15
Si -1.89  7.63 -6.23
Si  9.47 -3.30 -0.05
Si  3.81 -0.01 -9.28
Si -5.71 -5.49 -6.16
Si  1.86 -9.86  0.03
Si -5.68  7.70  3.03
Si -1.89 -9.86 -0.05
Si -7.66 -2.17 -6.12
Si -9.53 -1.08 -3.03
Si -9.50 -3.30  0.03
Si -1.93 -7.67  6.21
Si -1.90 -3.23 -9.34
Si  1.83 -3.26  9.34
Si  5.68 -5.49 -6.23
Si -7.66 -6.55  0.06
Si  1.89  3.33 -9.34
Si -7.66  6.57  0.06
Si -1.95  3.29  9.34
Si -7.66  2.20  6.25
Si -5.60 -7.57  3.83
Si -9.38 -1.01  3.83
Si -1.81 -9.76 -2.35
Si -3.75  6.51  6.94
Si -9.38  3.36 -2.35
Si -7.54 -0.05  6.94
Si  7.57 -6.52 -2.30
Si -1.88  1.08 10.02
Si  0.04  8.70 -5.43
Si  3.82  6.51  6.94
Si -1.81 -5.38 -8.54
Si -7.58 -6.52 -2.30
Si -1.88  9.82 -2.35
Si  1.98  1.17 10.01
Si -5.60  1.17 -8.54
Si  3.78  4.41 -8.48
Si -9.45 -3.30 -2.35
Si -3.79  4.41 -8.48
Si -3.75 -6.61  6.94
Si -7.54 -4.42 -5.43
Si  9.48 -1.11  3.84
Si  5.70 -7.67  3.84
Si -0.01 -2.15 10.07
Si  7.61 -0.05  6.94
Si  9.48  3.26 -2.35
Si  7.57  6.60 -2.30
Si  1.91 -9.86 -2.35
Si -7.58  6.60 -2.30
Si  5.70  1.08 -8.53
Si  3.82 -6.61  6.94
Si  1.91 -5.48 -8.53
Si  3.78  8.79  3.88
Si -3.79  8.79  3.88
Si  7.61 -4.42 -5.43
Si  9.55 -3.20 -2.35
Si  1.98  9.92 -2.35
Si -7.51  4.30 -6.17
Si  0.07  8.67  6.20
Si -7.51 -4.45  6.20
Si  7.64  4.30 -6.17
Si  0.07 -8.82 -6.17
Si  7.64 -4.45  6.20
Si  0.03 10.87  0.76
Si -3.76  8.69 -5.42
Si  3.81  8.69 -5.42
Si  3.78 -2.19 10.05
Si  9.44 -5.50  0.75
Si  9.44 -1.13 -5.44
Si -0.01  4.37 10.05
Si -3.80 -2.19 10.05
Si -5.72 -7.65 -5.37
Si -9.50 -1.09 -5.37
Si  5.66 -7.69 -5.44
Si -9.50 -5.47  0.81
Si 11.28  0.01  0.06
Si  5.62  3.29 -9.21
Si  3.70 -8.73 -6.12
Si  5.68 -3.23  9.22
Si  9.41  5.48 -3.03
Si  9.46 -5.42  3.03
Si  5.65  9.82  0.03
Si -5.68  3.33  9.22
Si -9.46 -1.12  6.13
Si -5.67  9.81 -0.05
Si -5.74 -3.27 -9.21
Si -3.87 -8.73 -6.12
Si -5.67 -7.67  6.13
Si -5.71  7.63 -6.16
Si  9.44 -1.11  6.21
Si  0.02  6.55  9.27
Si  0.02 10.93  3.08
Si  0.02 -6.56  9.27
Si  0.02  6.55 -9.28
Si  0.02 -10.94 -3.10
Si  0.02 -6.56 -9.28
Si -9.50  1.07 -6.16
Si  5.65 -7.67  6.21
Si  5.69  7.63 -6.23
Si  3.70  8.76  6.25
Si  5.68 -9.86 -0.05
Si  5.62  3.29  9.34
Si  9.47  1.07 -6.23
Si  5.68 -3.23 -9.34
Si -5.71 -9.86  0.03
Si -9.47  5.51 -3.15
Si -9.53 -5.45  3.15
Si -5.68  3.33 -9.34
Si -3.87  8.76  6.25
Si -5.74 -3.26  9.34
Si -11.45  0.01  0.06
Si -1.81 -5.38 10.01
Si -5.59  1.17 10.01
Si -3.75 10.88  0.75
Si  3.82 10.88  0.75
Si -0.01 -10.89  3.88
Si -9.45  5.45  3.84
Si  7.57 -2.15 -8.48
Si -11.33 -2.23  0.75
Si  5.76 -9.76 -2.35
Si  5.70  1.08 10.02
Si -7.58 -2.15 -8.48
Si  1.91 -5.48 10.02
Si 11.35  0.04 -2.30
Si  5.70  9.82 -2.35
Si -11.37  0.04 -2.30
Si  1.91  7.63 -8.53
Si -7.54 -8.79  0.75
Si -5.67 -9.86 -2.35
Si  0.03 -0.05 -11.61
Si -5.67 -5.48 -8.53
Si  5.76 -5.38 -8.54
Si  3.78  4.41 10.07
Si -5.59  9.92 -2.35
Si -3.79  4.41 10.07
Si 11.39 -2.23  0.75
Si  7.61 -8.79  0.75
Si -1.81  7.73 -8.54
Si  9.55  5.55  3.83
Si -3.78 -10.85 -3.08
Si  3.80 -10.85 -3.08
Si -7.56 -8.66  3.10
Si -3.78 -6.47 -9.26
Si  7.58 -8.66  3.10
Si  3.80 -6.47 -9.26
Si -3.78 -6.47  9.29
Si  3.80 -6.47  9.29
Si -11.35 -2.10  3.10
Si -7.56  0.08 -9.26
Si 11.37 -2.10  3.10
Si  7.58  0.08 -9.26
Si -7.56  0.09  9.29
Si -11.35  2.27 -3.08
Si  7.58  0.09  9.29
Si 11.37  2.27 -3.08
Si -3.78  6.64 -9.26
Si  3.80  6.64 -9.26
Si -3.78  6.64  9.29
Si -7.56  8.83 -3.08
Si  3.80  6.64  9.29
Si  7.58  8.83 -3.08
Si -3.78 11.02  3.10
Si  3.80 11.02  3.10
Si -7.55  6.50  6.95
Si  9.43  5.46 -5.37
Si -11.34  4.31  0.76
Si  9.44  3.25  6.93
Si  9.44  7.62  0.75
Si  1.86 -3.28 -11.56
Si -1.92  9.80  6.93
Si -1.93  3.28 -11.56
Si  7.60  6.50  6.95
Si 11.35  2.19  3.86
Si  9.43 -3.28  6.99
Si  7.56  8.74  3.86
Si  7.56  4.37 -8.51
Si  3.78 -10.93  3.86
Si  1.86 -12.03  0.81
Si -3.76 -0.06 -11.60
Si -0.01 -8.74 -8.51
Si -3.80 -10.93  3.86
Si 11.39  4.31  0.76
Si -7.58  8.74  3.86
Si -7.58  4.37 -8.51
Si -11.37  2.19  3.86
Si  1.87 -9.87  6.93
Si -7.55 -6.62  6.95
Si  1.87  3.24 -11.62
Si -9.49 -3.31  6.93
Si -9.49  5.43 -5.44
Si  1.86  9.84  6.99
Si  3.81 -0.06 -11.60
Si -1.93 -9.84  6.99
Si -9.50  7.65  0.81
Si -1.92 -12.06  0.75
Si -1.92 -3.31 -11.62
Si  7.60 -6.62  6.95
Si -9.50  3.28  6.99
Si  0.03 -10.99 -5.42
Si  9.41 -7.64 -3.03
Si -1.90 -11.98  3.03
Si -0.09  2.20 -12.30
Si  1.90  1.07 12.32
Si  9.47  5.44  6.13
Si  1.86 -1.11 -12.34
Si  9.44 -5.49 -6.16
Si -11.34  4.37  3.08
Si -0.08 10.94 -6.12
Si -11.34 -4.38 -3.10
Si -9.47 -7.60 -3.15
Si  1.83 -12.01  3.15
Si -1.95 12.04 -3.03
Si  9.46  7.70  3.03
Si 11.38  4.37  3.08
Si -0.09 -10.92  6.25
Si 11.38 -4.38 -3.10
Si -9.50  5.45  6.21
Si -1.92  1.07 12.39
Si -9.46 -5.49 -6.23
Si -1.89 -1.12 -12.42
Si -0.08 -2.17 12.43
Si  1.89 12.07 -3.15
Si -9.53  7.67  3.15
Si -7.54  8.70 -5.43
Si  3.78 -8.70 -8.48
Si -3.80 -8.70 -8.48
Si -11.33  2.14 -5.43
Si  1.91  7.63 10.02
Si  5.76 -5.38 10.01
Si  1.91 12.01  3.84
Si -5.67 -5.48 10.02
Si 11.35 -4.33  3.88
Si -9.45 -7.67  3.84
Si  7.61  8.70 -5.43
Si -11.37 -4.33  3.88
Si -5.67  7.63 -8.53
Si  9.55 -7.57  3.83
Si  7.57 -2.15 10.07
Si -9.45  1.08 -8.53
Si -1.81  7.73 10.01
Si -7.58 -2.15 10.07
Si 11.39  2.14 -5.43
Si -3.75 -10.98 -5.43
Si -1.81 12.10  3.83
Si  3.82 -10.98 -5.43
Si  9.55  1.17 -8.54
Si  5.76  7.73 -8.54
Si -11.29  6.49  0.02
Si -3.72 10.86 -6.17
Si -7.51  8.67  6.20
Si  0.07 13.04  0.02
Si -11.29  2.11  6.20
Si -11.29 -2.26 -6.17
Si  3.85 10.86 -6.17
Si -3.72  2.11 -12.35
Si -11.29 -6.63  0.02
Si  3.85  2.11 -12.35
Si  0.07  4.30 12.38
Si  7.64  8.67  6.20
Si -7.51 -8.82 -6.17
Si  0.07 -4.45 -12.35
Si -3.72 -2.26 12.38
Si 11.43  6.49  0.02
Si  3.85 -2.26 12.38
Si -3.72 -11.00  6.20
Si 11.43  2.11  6.20
Si 11.43 -2.26 -6.17
Si  0.07 -13.19  0.02
Si  7.64 -8.82 -6.17
Si  3.85 -11.00  6.20
Si 11.43 -6.63  0.02
Si -7.55 10.87  0.76
Si  5.66  9.80  6.93
Si  5.64  3.28 -11.56
Si  9.43 -7.65 -5.37
Si  7.60 10.87  0.76
Si 13.23  1.06  0.75
Si -11.34 -0.06  6.95
Si  1.87 -1.13 13.12
Si  1.87 11.99 -5.44
Si  0.03  6.50 -11.60
Si  0.03  2.13 13.13
