500
set: 334.00  0.00  0.00
Si  0.05  0.09 -0.01
Si  0.02 -2.10  0.72
Si -1.91  1.13  0.74
Si  0.06 -0.05 -2.34
Si  1.93  1.12  0.81
Si -1.89  1.06  3.02
Si  1.91 -3.23 -0.01
Si -1.94 -3.23  0.06
Si  0.01  2.11 -3.13
Si  1.87  1.07  3.11
Si -3.79  0.02  0.02
Si  3.79  0.02  0.02
Si -1.93 -1.12 -3.08
Si  0.01 -2.26  3.06
Si  1.86  3.34  0.06
Si -1.88  3.34 -0.01
Si  1.90 -1.13 -3.17
Si  1.85  3.19 -2.26
Si -0.02  2.16  3.84
Si -1.91  3.22 -2.34
Si -3.79 -2.15  0.82
Si  3.77 -0.03 -2.35
Si  3.80 -2.15  0.82
Si -1.91 -1.16  3.85
Si -3.81 -0.03 -2.35
Si  0.01  4.42  0.82
Si  1.88 -3.35 -2.34
Si -1.94 -3.38 -2.26
Si  1.85 -1.19  3.93
Si  3.75  2.17 -3.07
Si  3.75 -2.21  3.12
Si -0.04 -4.39 -3.07
Si -0.04  4.36  3.12
Si -3.83  2.17 -3.07
Si -3.83 -2.21  3.12
Si -3.73  2.14  3.85
Si -1.86 -1.07 -5.38
Si  1.88 -5.44  0.74
Si -1.86 -5.45  0.81
Si -5.65  1.12  0.81
Si  5.67  1.13  0.74
Si  3.85  2.14  3.85
Si  1.88 -1.06 -5.45
Si  0.06 -4.43  3.85
Si -3.77  4.46  0.72
Si  3.81  4.46  0.72
Si  0.02  2.27 -5.47
Si -3.78  4.30  3.06
Si  5.65 -3.23  0.06
Si  3.81  4.30  3.06
Si -5.67 -3.23 -0.01
Si  1.87  5.45 -3.08
Si -1.94  1.15 -6.13
Si  5.70  1.06  3.02
Si  5.66 -1.12 -3.08
Si -0.00 -2.17 -6.17
Si -1.88 -1.04  6.19
Si -0.00 -6.55  0.02
Si  1.90 -5.51  3.02
Si -1.89  5.44 -3.17
Si  0.00  6.58  0.02
Si  1.91  1.15 -6.20
Si  0.00  2.21  6.21
Si -5.72  1.07  3.11
Si  1.86 -1.04  6.25
Si -5.68 -1.13 -3.17
Si -1.93 -5.50  3.11
Si  5.70  3.34 -0.01
Si -3.78 -4.45 -3.13
Si -5.73  3.34  0.06
Si  3.80 -4.45 -3.13
Si  1.88  5.41  3.85
Si  0.01 -4.34 -5.37
Si  5.67  3.22 -2.34
Si -3.79  2.23 -5.37
Si -5.74  3.19 -2.26
Si -1.94  5.38  3.93
Si -0.02  6.53 -2.35
Si  3.80  2.23 -5.37
Si  5.67 -1.16  3.85
Si  5.64 -3.38 -2.26
Si  3.77 -4.41  3.84
Si -3.81 -4.41  3.84
Si -0.02 -6.60 -2.35
Si  0.01  0.04  7.01
Si -5.71 -3.35 -2.34
Si -5.74 -1.19  3.93
Si -3.74 -6.48 -0.01
Si  0.05 -4.29  6.18
Si  3.84 -6.48 -0.01
Si -7.53  0.09 -0.01
Si -3.74 -2.10 -6.20
Si -3.74  2.28  6.18
Si  3.84 -2.10 -6.20
Si  3.84  2.28  6.18
Si -3.74  6.66 -0.01
Si  7.63  0.09 -0.01
Si  0.05  4.47 -6.20
Si  3.84  6.66 -0.01
Si -3.73  6.51 -2.34
Si -3.77  0.09  6.92
Si -7.53 -0.05 -2.34
Si -7.57 -2.10  0.72
Si -1.91 -3.25  6.93
Si  3.81  0.09  6.92
Si  1.88  3.32  6.93
Si -3.77 -4.29 -5.47
Si -5.71 -5.44  0.74
Si  3.85  6.51 -2.34
Si  7.60 -2.10  0.72
Si  5.72 -1.07 -5.38
Si  3.81 -4.29 -5.47
Si  1.93  5.50 -5.38
Si  5.72 -5.45  0.81
Si -1.86  7.69  0.81
Si -3.73 -6.62 -2.34
Si  1.88  7.69  0.74
Si -5.71 -1.06 -5.45
Si  1.93 -3.26  7.01
Si -1.86  3.31  7.01
Si -1.91  5.50 -5.45
Si  7.64 -0.05 -2.34
Si  3.85 -6.62 -2.34
Si  1.86 -5.42 -6.13
Si  5.65  1.15 -6.13
Si  1.91  7.63  3.02
Si -1.88 -5.42 -6.20
Si -7.57  2.11 -3.13
Si -5.68 -5.51  3.02
Si -1.92  7.64  3.11
Si -3.79  4.39 -6.17
Si  3.79  4.39 -6.17
Si -5.72  5.45 -3.08
Si -7.57 -2.26  3.06
Si  5.70 -1.04  6.19
Si -5.67  1.15 -6.20
Si  5.66 -5.50  3.11
Si  7.60  2.11 -3.13
Si -3.79 -4.36  6.21
Si  3.79 -4.36  6.21
Si  1.87 -7.69 -3.08
Si  5.70  5.44 -3.17
Si  7.60 -2.26  3.06
Si  1.91  5.53  6.19
Si -1.89 -7.70 -3.17
Si -5.73 -1.04  6.25
Si -1.94  5.53  6.25
Si -1.94  1.00 -8.45
Si  5.64  5.38  3.93
Si -5.71  5.41  3.85
Si  7.56  2.16  3.84
Si  0.01 -8.72  0.82
Si -7.61  2.16  3.84
Si  1.88  1.03 -8.54
Si -7.58  4.42  0.82
Si  7.59  4.42  0.82
Si -0.02 -2.22 -8.54
Si  1.88 -7.72  3.85
Si -1.94 -7.75  3.93
Si  7.54 -4.39 -3.07
Si  7.55  4.36  3.12
Si -0.04 -0.02 -9.26
Si -0.04  8.74 -3.07
Si -0.04 -8.77  3.12
Si -0.04 -0.01  9.31
Si -7.62 -4.39 -3.07
Si -7.62  4.36  3.12
Si  0.02 -6.48  6.92
Si -3.77 -8.67  0.72
Si  3.81 -8.67  0.72
Si  0.06  8.70  3.85
Si  5.67 -3.25  6.93
Si  1.93 -7.64 -5.38
Si -5.65  5.50 -5.38
Si -7.53 -4.43  3.85
Si  0.06  4.32 -8.53
Si -5.70  3.32  6.93
Si -5.65 -3.26  7.01
Si -1.91 -7.63 -5.45
Si -3.73 -2.24 -8.53
Si -9.50  1.13  0.74
Si  0.02  6.65  6.92
Si  5.67  5.50 -5.45
Si -5.70  7.69  0.74
Si -7.57  2.27 -5.47
Si  9.52  1.12  0.81
Si  5.73  7.69  0.81
Si  3.85 -2.24 -8.53
Si  5.73  3.31  7.01
Si  7.60  2.27 -5.47
Si  7.64 -4.43  3.85
Si  1.91  3.25  9.21
Si  1.85 -9.79  0.06
Si -3.78  8.68 -3.13
Si -1.89 -3.32  9.21
Si -1.88 -9.80 -0.01
Si -5.68  7.63  3.02
Si  3.81  8.68 -3.13
Si -5.73 -5.42 -6.13
Si  1.91 -7.61  6.19
Si -3.78 -0.07  9.26
Si -9.47  1.06  3.02
Si  5.66  7.64  3.11
Si  3.81 -0.07  9.26
Si  9.45  1.07  3.11
Si -1.93  3.26 -9.27
Si  5.70 -5.42 -6.20
Si  9.44  3.34  0.06
Si  1.87 -3.31 -9.27
Si  7.58 -2.17 -6.17
Si -7.58 -2.17 -6.17
Si  7.58 -6.55  0.02
Si -7.58 -6.55  0.02
Si  9.49 -3.23 -0.01
Si -1.94 -7.60  6.25
Si  1.86  7.72 -6.13
Si -9.47  3.34 -0.01
Si -7.58  6.58  0.02
Si  7.58  6.58  0.02
Si -1.92  3.26  9.30
Si -7.58  2.21  6.21
Si  7.58  2.21  6.21
Si -5.67  5.53  6.19
Si  1.87 -3.31  9.30
Si -9.52 -3.23  0.06
Si -3.78 -0.08 -9.32
Si -9.51 -1.12 -3.08
Si -5.72 -7.69 -3.08
Si  3.80 -0.08 -9.32
Si  9.49 -1.13 -3.17
Si -1.88  7.71 -6.20
Si  5.65  5.53  6.25
Si -3.78 -8.83  3.06
Si  5.70 -7.70 -3.17
Si  1.91  9.90 -0.01
Si  1.90  3.25 -9.36
Si  3.80 -8.83  3.06
Si -1.94  9.91  0.06
Si -1.89 -3.32 -9.36
Si -1.94  9.76 -2.26
Si  5.64  1.00 -8.45
Si  9.43  3.19 -2.26
Si  1.88  9.79 -2.34
Si -7.58 -4.34 -5.37
Si  3.77  8.72  3.84
Si  7.59 -4.34 -5.37
Si  1.88  1.03 10.04
Si  7.56  6.53 -2.35
Si -3.81  8.72  3.84
Si -0.02 -2.22 10.04
Si  1.85 -5.57 -8.45
Si  9.43 -1.19  3.93
Si  3.77  4.34 -8.54
Si -7.61  6.53 -2.35
Si -9.50  3.22 -2.34
Si  0.01  8.79 -5.37
Si -3.79 -6.53  7.01
Si  9.46 -3.35 -2.34
Si  3.80 -6.53  7.01
Si  7.56 -6.60 -2.35
Si -3.81  4.34 -8.54
Si -9.50 -1.16  3.85
Si -5.71  1.03 -8.54
Si -7.58  0.04  7.01
Si  7.59  0.04  7.01
Si -7.61 -6.60 -2.35
Si -5.71 -7.72  3.85
Si -1.92 -5.54 -8.54
Si -3.78  6.61  7.01
Si -1.94  1.00 10.12
Si -9.53 -3.38 -2.26
Si  3.80  6.61  7.01
Si  1.85 -9.95 -2.26
Si  5.64 -7.75  3.93
Si -1.92 -9.91 -2.34
Si -7.53 -4.29  6.18
Si  0.05 -8.67 -6.20
Si  7.63 -4.29  6.18
Si -7.53  4.47 -6.20
Si  0.05  8.85  6.18
Si  7.63  4.47 -6.20
Si -5.65 -7.64 -5.38
Si -9.44 -1.07 -5.38
Si  0.06  4.33 10.04
Si -9.44 -5.45  0.81
Si  9.46 -5.44  0.74
Si -3.73 -2.24 10.04
Si  5.67 -7.63 -5.45
Si  9.46 -1.06 -5.45
Si  3.85 -2.24 10.04
Si  0.02 11.03  0.72
Si -3.77  8.84 -5.47
Si  3.81  8.84 -5.47
Si  0.01 10.87  3.06
Si -5.68  3.25  9.21
Si  0.01  6.49  9.26
Si  5.70 -3.32  9.21
Si -5.67 -7.61  6.19
Si  5.70 -9.80 -0.01
Si  9.45  5.45 -3.08
Si  5.66  3.26 -9.27
Si -5.73 -9.79  0.06
Si  5.65 -7.60  6.25
Si  3.79 -8.74 -6.17
Si -3.79 -8.74 -6.17
Si  0.01  6.49 -9.32
Si -9.47 -1.04  6.19
Si  9.44 -1.04  6.25
Si  5.66  3.26  9.30
Si -9.47  5.44 -3.17
Si -11.38  0.02  0.02
Si 11.38  0.02  0.02
Si  9.49 -5.51  3.02
Si -5.72 -3.31 -9.27
Si -9.52  1.15 -6.13
Si  0.01 -6.64  9.26
Si  9.49  1.15 -6.20
Si -3.79  8.77  6.21
Si  3.79  8.77  6.21
Si -5.73  7.72 -6.13
Si  5.65  9.91  0.06
Si -5.72 -3.31  9.30
Si -5.67  9.90 -0.01
Si -9.51 -5.50  3.11
Si  5.70  7.71 -6.20
Si -5.68  3.25 -9.36
Si  0.01 -6.64 -9.32
Si  5.70 -3.32 -9.36
Si  0.01 -11.02 -3.13
Si  1.85  7.57 -8.45
Si  5.64  9.76 -2.26
Si  0.01  0.04 -11.56
Si  9.46  5.41  3.85
Si  3.77  4.35 10.04
Si -5.71  9.79 -2.34
Si -7.58 -8.72  0.82
Si -3.81  4.35 10.04
Si -1.91  7.60 -8.54
Si  7.59 -8.72  0.82
Si -5.71  1.03 10.04
Si 11.36 -0.03 -2.35
Si -11.37 -2.15  0.82
Si 11.38 -2.15  0.82
Si  7.56 -2.22 -8.54
Si -1.91 -5.54 10.04
Si -9.53  5.38  3.93
Si -5.74 -5.57 -8.45
Si -0.02 -10.98  3.84
Si  5.64  1.00 10.12
Si -11.40 -0.03 -2.35
Si -3.78 10.98  0.82
Si  5.67 -5.54 -8.54
Si -7.61 -2.22 -8.54
Si  3.80 10.98  0.82
Si  5.67 -9.91 -2.34
Si  1.85 -5.57 10.12
Si -5.74 -9.95 -2.26
Si 11.34  2.17 -3.07
Si  7.54 -0.02 -9.26
Si  7.55  8.74 -3.07
Si  3.75  6.55 -9.26
Si 11.34 -2.21  3.12
Si  3.75 -6.58 -9.26
Si  3.75 10.93  3.12
Si -3.83  6.55 -9.26
Si  7.54 -8.77  3.12
Si  7.55 -0.01  9.31
Si  3.75 -10.96 -3.07
Si  3.75  6.55  9.31
Si -3.83 -6.58 -9.26
Si -3.83 10.93  3.12
Si -7.62 -0.02 -9.26
Si -7.62  8.74 -3.07
Si  3.75 -6.58  9.31
Si -3.83 -10.96 -3.07
Si -3.83  6.55  9.31
Si -11.42  2.17 -3.07
Si -3.83 -6.58  9.31
Si -7.62 -8.77  3.12
Si -7.62 -0.01  9.31
Si -11.42 -2.21  3.12
Si -7.57 -6.48  6.92
Si -7.52  8.70  3.85
Si -11.32  2.14  3.85
Si  7.60 -6.48  6.92
Si  0.02 -10.86 -5.47
Si  1.88 -9.82  6.93
Si -7.53  4.32 -8.53
Si  1.93 -3.26 -11.57
Si -1.86  3.31 -11.57
Si -1.91 -12.01  0.74
Si  9.47  3.32  6.93
Si -9.50 -3.25  6.93
Si  1.93 -12.02  0.81
Si -9.44  7.69  0.81
Si  7.65  8.70  3.85
Si -1.86 -9.83  7.01
Si -9.44  3.31  7.01
Si -7.57  6.65  6.92
Si -1.91  9.88  6.93
Si  9.47  7.69  0.74
Si -11.36  4.46  0.72
Si -3.73 -11.00  3.85
Si  9.52  5.50 -5.38
Si -1.91 -3.25 -11.65
Si  7.61  6.65  6.92
Si  7.64  4.32 -8.53
Si  1.88  3.31 -11.65
Si -3.77  0.08 -11.66
Si 11.44  2.14  3.85
Si -9.50  5.50 -5.45
Si  9.52 -3.26  7.01
Si 11.40  4.46  0.72
Si  1.94  9.88  7.01
Si  0.06 -8.81 -8.53
Si  3.81  0.08 -11.66
Si  3.85 -11.00  3.85
Si  9.44 -5.42 -6.13
Si  1.86 -1.04 -12.33
Si -11.36  4.30  3.06
Si  9.49  7.63  3.02
Si -9.47 -5.42 -6.20
Si -1.92 12.02 -3.08
Si 11.39  4.30  3.06
Si -0.00  2.20 -12.37
Si  1.91 12.01 -3.17
Si  9.45 -7.69 -3.08
Si -0.00 -10.93  6.21
Si -1.88 -1.04 -12.39
Si  1.91  1.15 12.38
Si  0.00 10.96 -6.17
Si -9.51  7.64  3.11
Si -1.89 -12.07  3.02
Si  0.00 -2.17 12.40
Si  1.87 -12.06  3.11
Si -11.37 -4.45 -3.13
Si  9.50  5.53  6.19
Si -9.47 -7.70 -3.17
Si 11.39 -4.45 -3.13
Si -1.94  1.15 12.44
Si -9.52  5.53  6.25
Si -5.74  7.57 -8.45
Si  1.85 11.95  3.93
Si -1.91 11.98  3.85
Si -3.79 -10.91 -5.37
Si -1.91  7.60 10.04
Si  3.80 -10.91 -5.37
Si  5.67  7.60 -8.54
Si  7.56 -2.22 10.04
Si -11.37  2.23 -5.37
Si 11.36 -4.41  3.84
Si -9.53  1.00 -8.45
Si  1.85  7.57 10.12
Si 11.38  2.23 -5.37
Si  9.46  1.03 -8.54
Si -7.61 -2.22 10.04
Si -7.58  8.79 -5.37
Si  5.67 -5.54 10.04
Si  7.59  8.79 -5.37
Si  9.46 -7.72  3.85
Si -11.40 -4.41  3.84
Si  3.77 -8.79 -8.54
Si -3.81 -8.79 -8.54
Si -5.74 -5.57 10.12
Si -9.53 -7.75  3.93
Si -3.74 -10.86  6.18
Si  0.05 -13.05 -0.01
Si -11.33 -6.48 -0.01
Si -7.54 -8.67 -6.20
Si  3.84 -10.86  6.18
Si -11.33 -2.10 -6.20
Si -3.74 -2.10 12.38
Si -11.33  2.28  6.18
Si  7.63 -8.67 -6.20
Si  0.05 -4.29 -12.39
Si  3.84 -2.10 12.38
Si 11.43 -6.48 -0.01
Si -11.33  6.66 -0.01
Si -3.74  2.28 -12.39
Si  0.05  4.47 12.38
Si -7.53  8.85  6.18
Si 11.43 -2.10 -6.20
Si  3.84  2.28 -12.39
Si 11.43  2.28  6.18
Si -3.74 11.03 -6.20
Si  7.64  8.85  6.18
Si  0.05 13.22 -0.01
Si 11.43  6.66 -0.01
Si  3.84 11.03 -6.20
Si -11.32  6.51 -2.34
Si -7.52  4.33 10.04
Si -5.65 -3.26 -11.57
Si  0.06 13.08 -2.34
Si  1.88 -1.06 13.12
Si -11.36  0.09  6.92
Si  5.67 -12.01  0.74
Si -5.71 -9.82  6.93
Si  0.02  2.28 13.11
Si -5.65 -12.02  0.81
Si -13.24  1.12  0.81
