500
set: 491.00  0.00  0.00
Si -0.21 -0.14 -0.13
Si  1.62  0.84  0.67
Si -1.65  1.22  0.91
Si  0.14 -2.11  0.81
Si -0.15 -0.26 -2.36
Si  0.01  1.89 -2.88
Si  1.40  1.22  2.90
Si -3.50  0.30  0.12
Si  1.81 -1.30 -2.77
Si  2.10  2.89 -0.09
Si -1.44  3.30  0.09
Si  2.15 -2.93  0.09
Si -1.49 -3.34 -0.09
Si -1.79  0.78  3.10
Si -3.11 -1.90  0.53
Si  3.69  0.30  0.12
Si  0.01 -2.25  2.99
Si -2.19 -0.85 -2.97
Si  3.25  0.26 -2.06
Si -1.85  2.82 -2.05
Si  1.69 -0.89  3.60
Si -1.90 -2.96 -2.27
Si  1.69  3.26 -2.27
Si  1.75 -3.40 -2.05
Si  0.48  4.32  0.53
Si -1.84 -1.33  3.82
Si -3.94  0.26 -2.06
Si -0.34  2.34  3.81
Si  4.08 -1.90  0.53
Si  3.46 -1.93  2.69
Si -3.72 -1.93  2.69
Si -0.13  4.30  2.69
Si -0.13 -4.00 -3.18
Si  3.46  2.22 -3.18
Si  3.45  1.81  3.51
Si -3.73  2.22 -3.18
Si  1.95 -0.85 -4.96
Si -3.45  4.11  0.81
Si -3.74  1.81  3.51
Si  1.95 -5.00  0.91
Si  0.14  2.04 -5.05
Si  3.74  4.11  0.81
Si -0.15 -4.41  3.51
Si -5.57  0.84  0.67
Si -1.97 -1.24 -5.20
Si  5.54  1.22  0.91
Si -1.97 -5.39  0.67
Si -5.04 -2.93  0.09
Si -5.08  2.89 -0.09
Si  4.99 -0.85 -2.97
Si  0.10 -5.92  0.12
Si -1.79  4.93 -2.77
Si  0.10 -1.77 -5.75
Si -3.58  3.97  2.99
Si  3.60  3.97  2.99
Si -2.19 -5.00  2.90
Si -5.38 -1.30 -2.77
Si -1.44 -0.85  5.96
Si -1.49  0.81 -5.96
Si  5.40  0.78  3.10
Si  2.10 -1.26  5.78
Si  2.15  1.22 -5.78
Si  1.40  5.37 -2.97
Si -3.58 -4.33 -2.88
Si -0.34 -5.96 -2.06
Si  3.61 -4.33 -2.88
Si  3.25 -3.89  3.81
Si  5.34  2.82 -2.05
Si  0.48  0.17  6.40
Si  0.10  2.38  5.99
Si  1.75  4.90  3.82
Si  5.29 -2.96 -2.27
Si  1.81 -5.45  3.10
Si  0.10  6.53  0.12
Si -3.11  2.25 -5.33
Si -5.79  1.22  2.90
Si  5.70 -3.34 -0.09
Si  5.74  3.30  0.09
Si -5.49 -0.89  3.60
Si  0.48 -3.98 -5.33
Si  5.34 -1.33  3.82
Si -1.90  5.34  3.60
Si -3.94 -3.89  3.81
Si -5.44 -3.40 -2.05
Si -5.49  3.26 -2.27
Si -0.34  6.49 -2.06
Si  3.38  1.94  5.74
Si  3.38  6.08 -0.13
Si  6.98 -0.14 -0.13
Si  4.07  2.25 -5.33
Si -3.80  1.94  5.74
Si -0.21 -4.29  5.74
Si -3.80  6.08 -0.13
Si  3.39 -6.37 -0.13
Si -0.21  4.01 -6.00
Si  3.38 -2.22 -6.00
Si -5.24 -0.85 -4.96
Si  3.45  5.96 -2.36
Si -5.24 -5.00  0.91
Si -1.97  7.06  0.67
Si  1.62  4.99 -5.20
Si -7.40 -0.14 -0.13
Si -7.04 -2.11  0.81
Si -3.80 -6.37 -0.13
Si -3.45 -4.19 -5.05
Si -1.97  2.91  6.53
Si -3.74  5.96 -2.36
Si  7.04 -0.26 -2.36
Si -3.80 -2.22 -6.00
Si  5.22 -1.24 -5.20
Si -1.65  5.37 -4.96
Si  1.62 -3.31  6.53
Si -3.45 -0.04  6.68
Si  5.22 -5.39  0.67
Si  3.74 -4.19 -5.05
Si -1.65 -2.93  6.78
Si  4.99 -5.00  2.90
Si  3.74 -0.04  6.68
Si  7.33 -2.11  0.81
Si -7.33 -0.26 -2.36
Si  3.45 -6.49 -2.36
Si  1.95  7.45  0.91
Si -5.04  1.22 -5.78
Si -1.49  4.96  5.78
Si -1.44 -5.00 -5.78
Si  1.95  3.30  6.78
Si -5.08 -1.26  5.78
Si  1.40 -7.08 -2.97
Si  5.40  4.93 -2.77
Si -3.74 -6.49 -2.36
Si  1.80  7.00  3.10
Si -3.50 -3.85  5.99
Si -7.17  1.89 -2.88
Si  7.20  1.89 -2.88
Si -6.71  4.32  0.53
Si  3.69 -3.85  5.99
Si -3.50  4.45 -5.75
Si -7.17 -2.25  2.99
Si  7.20 -2.25  2.99
Si -0.34 -1.81 -7.93
Si  1.75  0.75 -7.92
Si  3.69  4.45 -5.75
Si  0.48 -8.13  0.53
Si  6.84  2.34  3.81
Si -1.90 -7.11  3.60
Si -1.79 -7.52 -2.77
Si -5.44  4.90  3.82
Si -5.38 -5.45  3.10
Si  5.70  0.81 -5.96
Si -2.19  7.45  2.90
Si  2.15  5.37  5.96
Si  2.11 -5.41 -5.96
Si  5.74 -0.85  5.96
Si  5.29  5.34  3.60
Si -5.79  5.37 -2.97
Si -1.90  1.19 -8.13
Si -0.13  0.15  8.56
Si -0.13 -8.15  2.69
Si  1.75 -7.55  3.82
Si  7.06  4.30  2.69
Si  7.06 -4.00 -3.18
Si -7.53  2.34  3.81
Si -0.15  8.04  3.51
Si -1.65 -7.08 -4.96
Si  5.21  7.06  0.67
Si  7.67  4.32  0.53
Si  5.21  2.91  6.53
Si  8.81  0.84  0.67
Si -7.32  4.30  2.69
Si -7.04  2.04 -5.05
Si -7.32 -4.00 -3.18
Si -8.83  1.22  0.91
Si  7.04 -4.41  3.51
Si -0.13  8.45 -3.18
Si -0.13  0.15 -9.05
Si -3.45 -8.34  0.81
Si -0.15  3.89 -8.23
Si -5.57  4.99 -5.20
Si  0.14  6.19  6.68
Si  7.33  2.04 -5.05
Si  8.59  1.22  2.90
Si -5.24  7.45  0.91
Si  0.14 -6.26  6.68
Si  5.54  5.37 -4.96
Si  3.74 -8.34  0.81
Si -5.24  3.30  6.78
Si -5.57 -3.31  6.53
Si  3.45 -2.34 -8.23
Si  5.54 -2.93  6.78
Si -1.49  9.11 -0.09
Si -7.09 -5.92  0.12
Si -8.63  3.30  0.09
Si  1.62 -7.46 -5.20
Si -7.33 -4.41  3.51
Si -1.44 -9.15  0.09
Si -6.71  0.17  6.40
Si  1.81  2.85 -8.64
Si -8.68 -3.34 -0.09
Si -7.09 -1.77 -5.75
Si  6.84 -5.96 -2.06
Si -3.58  8.12 -2.88
Si -3.74 -2.34 -8.23
Si  3.60  8.12 -2.88
Si -3.11 -6.05  6.40
Si  1.40 -2.93  8.77
Si -5.38  7.00  3.10
Si  7.28 -5.92  0.12
Si  1.40 -2.93 -8.84
Si  4.99  7.45  2.90
Si  1.75  9.05 -2.05
Si -1.79 -3.37 -8.64
Si -6.71 -3.98 -5.33
Si  7.28 -1.77 -5.75
Si -3.58 -0.18 -8.75
Si  2.10  7.04 -5.96
Si  3.61 -0.18 -8.75
Si -5.04  5.37  5.96
Si  2.15 -7.08  5.96
Si  8.99 -1.30 -2.77
Si  5.70  4.96  5.78
Si -5.08 -5.41 -5.96
Si -8.97  0.78  3.10
Si -1.45  7.45 -5.78
Si -3.58 -0.18  8.86
Si  5.74 -5.00 -5.78
Si  3.61 -0.18  8.86
Si  5.29 -7.11  3.60
Si -3.11  6.40  6.40
Si -1.49 -7.49  5.78
Si -7.09  2.38  5.99
Si  1.80  2.85  8.97
Si -5.79 -7.08 -2.97
Si  1.70 -9.19 -2.27
Si -2.19  3.30  8.77
Si  8.88 -0.89  3.60
Si -5.44  0.75 -7.92
Si  3.25  4.41 -7.93
Si -7.09  6.53  0.12
Si  6.84  6.49 -2.06
Si  5.40 -7.52 -2.77
Si -3.58 -8.48  2.99
Si -2.19  3.30 -8.84
Si -9.03  2.82 -2.05
Si  3.61 -8.48  2.99
Si  4.08 -6.05  6.40
Si  1.69 -5.04 -8.13
Si  7.28  2.38  5.99
Si  8.88  3.26 -2.27
Si  9.29  2.89 -0.09
Si -1.90  1.19  9.47
Si -1.79 -3.37  8.97
Si  2.15  9.52  0.09
Si  5.29  1.19 -8.13
Si  8.94 -3.40 -2.05
Si  7.28  6.53  0.12
Si  9.34 -2.93  0.09
Si  2.11 -9.56 -0.09
Si -1.84 -5.48 -7.92
Si -7.53 -5.96 -2.06
Si -9.09 -2.96 -2.27
Si -0.34 -1.81  9.68
Si  1.75  0.75  9.69
Si -9.38 -0.85 -2.97
Si -3.94  4.41 -7.93
Si -9.03 -1.33  3.82
Si  3.25  8.56  3.81
Si  4.07  6.40  6.40
Si -1.90  9.49 -2.27
Si -0.21  8.16  5.74
Si  7.67  0.17  6.40
Si  6.98 -4.29  5.74
Si -1.84 -9.63 -2.05
Si  0.48  8.47 -5.33
Si  6.98  4.01 -6.00
Si -5.44 -7.55  3.82
Si -7.53  6.49 -2.06
Si  7.67 -3.98 -5.33
Si -0.15  3.89  9.38
Si -3.94  8.56  3.81
Si  3.45 -2.34  9.38
Si  5.54 -7.08 -4.96
Si -3.45  8.26 -5.05
Si -7.39 -4.29  5.74
Si -7.40  4.01 -6.00
Si -0.21 -8.44 -6.00
Si -3.74 -2.34  9.38
Si  0.14 10.34  0.81
Si  3.74  8.26 -5.05
Si  9.13 -0.85 -4.96
Si -3.50 -8.00 -5.75
Si  9.13 -5.00  0.91
Si -10.30 -1.90  0.53
Si  3.69 -8.00 -5.75
Si -8.63 -0.85  5.96
Si -5.08  7.04 -5.96
Si -5.04 -7.08  5.96
Si -6.71 -8.13  0.53
Si  8.59  5.37 -2.97
Si -8.68  0.81 -5.96
Si -5.38  2.85 -8.64
Si -9.16 -1.24 -5.20
Si -8.98  4.93 -2.77
Si  4.99  3.30  8.77
Si  0.01 10.20  2.99
Si  6.84 -1.81 -7.93
Si  0.01  6.04 -8.75
Si 10.44  0.26 -2.06
Si -9.16 -5.39  0.67
Si -5.56 -7.46 -5.20
Si  4.99  3.30 -8.84
Si -10.69  0.30  0.12
Si -1.85  6.97 -7.92
Si  0.01  6.04  8.86
Si  5.40 -3.37 -8.64
Si  5.70  9.11 -0.09
Si -5.44  9.05 -2.05
Si -5.04  9.52  0.09
Si  5.75 -9.15  0.09
Si -0.34 -10.11  3.81
Si -5.08 -9.56 -0.09
Si -5.38  2.85  8.97
Si  0.01 -6.41 -8.75
Si  1.69 -5.04  9.47
Si 10.88  0.30  0.12
Si  8.94  4.90  3.82
Si -5.79 -2.93  8.77
Si  5.29  1.19  9.47
Si  0.01 -6.41  8.86
Si  0.01 -10.56 -2.88
Si -5.49 -9.19 -2.27
Si -5.79 -2.93 -8.84
Si  8.99 -5.45  3.10
Si  5.40 -3.37  8.97
Si  5.34 -5.48 -7.92
Si -3.11 10.55  0.53
Si  9.29 -1.26  5.78
Si -9.38 -5.00  2.90
Si -5.49 -5.04 -8.13
Si  5.74  7.45 -5.78
Si  5.70 -7.49  5.78
Si  9.34  1.22 -5.78
Si -3.50  8.61  5.99
Si  3.46 -6.08  8.56
Si -7.53 -1.81 -7.93
Si  7.06  0.15  8.56
Si  5.29  9.49 -2.27
Si  7.06 -8.15  2.69
Si  3.69  8.61  5.99
Si  3.25  4.41  9.68
Si  1.69  7.41 -8.13
Si -3.72 -6.08  8.56
Si -5.44  0.75  9.69
Si -9.09  5.34  3.60
Si 10.65 -1.93  2.69
Si  7.67 -8.13  0.53
Si  5.34 -9.63 -2.05
Si  0.48  0.17 -11.20
Si  3.46  6.38  8.56
Si  7.04  8.04  3.51
Si  3.46 -10.23 -3.18
Si -7.32  0.15  8.56
Si -7.32 -8.15  2.69
Si -1.84 -5.48  9.69
Si -3.73  6.38  8.56
Si -11.12  0.26 -2.06
Si  4.07 10.55  0.53
Si 10.65  2.22 -3.18
Si -1.65 -2.93 -10.83
Si -3.72 -10.23 -3.18
Si 10.63  1.81  3.51
Si -3.94  4.41  9.68
Si  1.62  9.14  6.53
Si  8.81  4.99 -5.20
Si -1.64 -11.23  0.91
Si  3.46 10.52  2.69
Si -10.91 -1.93  2.69
Si 11.26 -1.90  0.53
Si -10.64  4.11  0.81
Si -7.33  8.04  3.51
Si  3.46 -6.08 -9.05
Si -3.45 -0.04 -10.92
Si  7.05  8.45 -3.18
Si  8.81 -3.31  6.53
Si -8.83  5.37 -4.96
Si  7.06  0.15 -9.05
Si  1.95  3.29 -10.83
Si -3.73 10.52  2.69
Si  7.04  3.89 -8.23
Si -7.04  6.19  6.68
Si -8.83 -2.93  6.78
Si  8.59 -7.08 -2.97
Si -3.72 -6.08 -9.05
Si -8.63 -5.00 -5.78
Si  3.74 -0.04 -10.92
Si -8.68  4.96  5.78
Si -7.04 -6.26  6.68
Si  1.95 -9.15  6.78
Si  0.14 -10.41 -5.05
Si -10.91  2.22 -3.18
Si -9.16  7.06  0.67
Si  3.46  6.37 -9.05
Si -1.97  2.91 -11.07
Si -10.93  1.81  3.51
Si -9.16  2.91  6.53
Si -7.32  8.45 -3.18
Si  1.80 11.15 -2.77
Si -7.32  0.15 -9.05
Si  1.62 -3.31 -11.07
Si -3.73  6.37 -9.05
Si  1.40 -11.23  2.90
Si -7.33  3.89 -8.23
Si  7.33  6.19  6.68
Si 10.92  4.11  0.81
Si  0.10 -10.07  5.99
Si  3.45 -10.64  3.51
Si -1.97 -9.54  6.53
Si  7.33 -6.26  6.68
Si  1.62 -11.61  0.67
Si  3.25 -8.04 -7.93
Si -1.44 -0.85 -11.65
Si 10.44 -3.89  3.81
Si -1.49  0.81 11.65
Si -1.65  9.52  6.78
Si -3.74 -10.64  3.51
Si  8.99  7.00  3.10
Si -10.30  2.25 -5.33
Si  9.13  7.45  0.91
Si  5.34  6.97 -7.92
Si  9.13  3.30  6.78
Si  0.10  2.38 -11.62
Si -10.77  3.97  2.99
Si -0.15 -8.56 -8.23
Si 10.79  3.97  2.99
Si -1.85 11.12  3.82
Si -3.11 -10.20 -5.33
Si -3.94 -8.04 -7.93
Si -10.77 -4.33 -2.88
Si  8.94  0.75 -7.92
Si 10.79 -4.33 -2.88
Si  0.10 -1.77 11.86
Si  6.84 -1.81  9.68
Si -8.97 -7.52 -2.77
Si -6.71  8.47 -5.33
Si -5.49 -5.04  9.47
Si  2.10 -1.26 -11.83
Si -1.85  6.97  9.69
Si  2.15  1.23 11.83
Si -9.09 -7.11  3.60
Si  0.10 10.68 -5.75
Si  1.69  7.41  9.47
Si -2.20 11.60 -2.97
Si  6.98  8.16  5.74
Si 10.57  1.94  5.74
Si 10.57  6.08 -0.13
Si -1.79 -11.67  3.10
Si  4.08 -10.20 -5.33
Si  1.69 11.56  3.60
Si -9.09  1.19 -8.13
Si -0.21  4.01 11.61
Si  9.29 -5.41 -5.96
Si  3.38 -2.21 11.61
Si -5.50  7.41 -8.13
Si  8.94 -7.55  3.82
Si  9.34  5.37  5.96
Si -0.21 12.31 -0.13
Si -9.38  7.45  2.90
Si  3.38 10.23 -6.00
Si 10.57 -6.37 -0.13
Si  5.34 -5.48  9.69
Si  7.04  3.89  9.38
Si 10.57 -2.22 -6.00
Si -8.83 -7.08 -4.96
Si -11.12 -3.89  3.81
Si -7.53 -1.81  9.68
Si -0.15 12.19 -2.36
Si -3.80 -2.21 11.61
Si 10.63  5.96 -2.36
Si -7.40  8.16  5.74
Si  3.39 -10.52  5.74
Si -3.80 10.23 -6.00
Si -5.24  3.29 -10.83
Si  6.98 -8.44 -6.00
Si  3.38  1.93 -11.86
Si -10.64 -4.19 -5.05
Si  5.54 -2.93 -10.83
Si -1.97 11.21 -5.20
Si -7.33  3.89  9.38
Si -7.05 10.34  0.81
Si -5.57  9.14  6.53
Si -5.24 -9.15  6.78
Si -10.99  1.94  5.74
Si  0.14  6.19 -10.92
Si  5.54 -11.23  0.91
Si -10.64 -0.04  6.68
Si -10.99  6.08 -0.13
Si 12.18 -0.85 -2.97
Si -3.80 -10.52  5.74
Si -12.22 -2.93  0.09
Si -8.63 -9.15  0.09
Si  5.21  2.91 -11.07
