500
set: 855.00  0.00  0.00
Si -0.42  1.19 -0.83
Si  0.44 -1.21  0.83
Si -1.37 -1.17 -0.85
Si  1.44  1.28  0.85
Si -2.25  1.24  0.85
Si  0.90  0.01 -2.57
Si -0.92 -0.02  2.57
Si  2.28 -1.24 -0.88
Si  0.09  2.43  2.51
Si  3.22  1.26 -0.79
Si  0.02 -2.45 -2.61
Si -3.24 -1.22  0.92
Si  2.76  0.03  2.56
Si -2.79  0.04 -2.56
Si -0.49 -3.73  0.86
Si  0.55  3.77 -0.87
Si -1.68  2.51 -2.52
Si  1.74 -2.46  2.58
Si -1.35  3.71  0.81
Si  1.92  2.48 -2.58
Si -1.90 -2.54  2.56
Si  1.18 -3.81 -0.92
Si  4.08 -1.13  0.83
Si -0.92 -0.01 -4.23
Si  0.89 -0.01  4.30
Si -4.11  1.28 -0.91
Si -2.37 -3.69 -0.87
Si  2.42  3.73  0.86
Si  3.11 -3.73  0.86
Si -3.17  3.72 -0.86
Si  0.10  2.49 -4.29
Si -0.13 -2.50  4.31
Si -3.58  2.49  2.49
Si  2.76 -0.01 -4.28
Si -2.74  0.06  4.30
Si  3.68 -2.47 -2.52
Si  3.69  2.45  2.62
Si -3.72 -2.50 -2.55
Si  4.52  0.03 -2.50
Si -1.77  2.48  4.19
Si  1.80 -2.52 -4.22
Si -1.87 -2.49 -4.23
Si -5.04 -1.22 -0.89
Si  1.93  2.48  4.28
Si  5.08  1.22  0.96
Si -4.62  0.03  2.62
Si  4.10  3.66 -0.92
Si  1.02  4.92  2.56
Si -0.80  4.96 -2.55
Si -1.00 -4.98 -2.58
Si  0.77 -5.01  2.62
Si -4.26 -3.75  0.81
Si  3.62 -2.51  4.22
Si -3.61  2.48 -4.26
Si  0.47 -1.26 -5.97
Si -5.93  1.22  0.96
Si  5.97 -1.22 -0.89
Si -0.42  1.25  6.01
Si -2.67  4.97  2.48
Si  3.73  2.43 -4.32
Si  1.33  1.22 -5.93
Si -3.78 -2.52  4.24
Si -1.36 -1.24  5.95
Si  4.91 -3.75 -0.86
Si  2.65 -5.02 -2.61
Si  0.30 -6.20 -0.79
Si  4.55  0.02  4.33
Si -4.97  3.74  0.86
Si -4.61 -0.04 -4.26
Si -2.83 -5.03  2.51
Si -0.32  6.24  0.92
Si  2.94  5.01 -2.61
Si -1.48 -6.19  0.85
Si  5.42 -2.49  2.48
Si  2.27 -1.30  5.93
Si -5.43  2.44 -2.61
Si  1.55  6.30 -0.85
Si -2.31  1.21 -6.01
Si -0.86  4.95  4.24
Si -5.59 -2.49  2.48
Si  1.05  4.97 -4.23
Si  5.57  2.44 -2.61
Si -0.99 -4.99  4.28
Si -2.12  6.24 -0.89
Si  2.16 -6.24  0.96
Si  0.81 -5.04 -4.32
Si  6.38  0.03  2.62
Si -6.48  0.03 -2.50
Si  3.26  1.21  6.02
Si -3.23 -1.26 -6.06
Si -2.65  4.94 -4.28
Si -0.56 -3.74 -5.95
Si -6.93 -1.13  0.83
Si  6.90  1.28 -0.91
Si  2.66 -4.96  4.28
Si  0.54  3.73  6.02
Si -4.41  4.99 -2.52
Si  2.79  4.96  4.31
Si  6.03  3.74  0.86
Si  3.36  6.25  0.83
Si -2.82 -4.98 -4.29
Si -3.33 -6.28 -0.83
Si  1.29 -3.73  5.97
Si  4.51 -4.98  2.49
Si -1.27  3.79 -5.95
Si -6.09 -3.75 -0.86
Si -4.60 -4.96 -2.52
Si  4.66  5.01  2.58
Si -4.11  1.21  5.97
Si -5.43  2.50  4.28
Si  4.12 -1.24 -5.96
Si  5.44 -2.52 -4.28
Si  2.36  3.72 -5.95
Si  3.98 -6.18 -0.91
Si -5.57 -2.52 -4.28
Si  5.58  2.50  4.28
Si -2.38 -3.74  6.02
Si -4.01  6.33  0.83
Si  3.10 -3.71 -5.92
Si  6.40 -0.04 -4.26
Si -3.16  3.69  5.98
Si  6.74 -3.75  0.81
Si -6.46  0.02  4.33
Si  0.46 -1.25  7.67
Si -0.43  1.18 -7.69
Si -0.16 -7.43  2.56
Si -6.91  3.66 -0.92
Si  1.47  1.28  7.64
Si -4.46  4.96  4.22
Si  7.76 -1.22  0.92
Si -7.79  1.26 -0.79
Si  0.13  7.50 -2.56
Si  4.48 -4.98 -4.26
Si -5.08 -1.24  5.99
Si -1.36 -1.30 -7.74
Si  5.09  1.22 -6.03
Si  1.60 -7.43 -2.50
Si -4.69 -4.98  4.19
Si  4.72  4.94 -4.22
Si  2.23 -1.28 -7.63
Si  7.28 -2.50 -2.55
Si -1.70  7.49  2.62
Si -2.27  1.24  7.70
Si  2.00  7.44  2.57
Si -5.16 -6.22  0.85
Si -7.33 -2.47 -2.52
Si -2.02 -7.46 -2.57
Si -7.32  2.45  2.62
Si -4.19 -3.68 -5.95
Si  5.20  6.22 -0.88
Si  4.21  3.73  5.97
Si  7.43  2.49  2.49
Si  3.20  1.27 -7.67
Si -3.14 -1.22  7.73
Si  6.41 -4.96 -2.52
Si -6.35  5.01  2.58
Si  5.93 -1.24  5.99
Si -5.92  1.22 -6.03
Si  0.55  3.70 -7.67
Si -0.56 -3.72  7.68
Si -6.50 -4.98  2.49
Si -5.81  6.22 -0.88
Si  5.84 -6.22  0.85
Si -4.99  3.75 -5.92
Si  8.22  0.04 -2.56
Si -0.16 -7.47 -4.28
Si  3.47 -7.44  2.62
Si  4.93 -3.77  5.98
Si  1.30 -3.71 -7.68
Si -8.25  0.03  2.56
Si  6.59  4.99 -2.52
Si -1.33  3.78  7.68
Si -3.56  7.49 -2.50
Si  0.18  7.52  4.30
Si -0.31  6.21 -6.06
Si  0.34 -6.25  6.02
Si  1.16 -8.59  0.83
Si  7.83  3.72 -0.86
Si -1.69  7.42 -4.26
Si  7.23 -2.52  4.24
Si  1.55  6.22  5.95
Si -1.58 -6.24 -5.93
Si  1.63 -7.44  4.33
Si  4.11 -1.28  7.64
Si -7.89 -3.73  0.86
Si -0.64 -8.71 -0.88
Si  0.67  8.71  0.85
Si  3.82  7.47 -2.57
Si -3.84 -7.49  2.57
Si  2.00  7.45 -4.23
Si -7.28  2.43 -4.32
Si -2.03 -7.47  4.30
Si -8.73 -1.24 -0.88
Si  2.36  3.75  7.68
Si -7.38 -2.51  4.22
Si -2.37 -3.76 -7.67
Si -1.19  8.74 -0.91
Si -4.12  1.23 -7.76
Si  7.39  2.48 -4.26
Si  8.76  1.24  0.85
Si -2.16  6.22  5.99
Si  2.17 -6.24 -6.03
Si -6.28  4.94 -4.22
Si  2.50  8.65 -0.83
Si -2.48 -8.67  0.83
Si -3.15  3.75 -7.62
Si  6.31 -4.98  4.19
Si  3.06 -3.70  7.75
Si -6.88 -1.24 -5.96
Si  6.89  1.21  5.97
Si  6.54  4.96  4.22
Si  6.01  3.75 -5.92
Si -3.01  8.68  0.96
Si  3.05 -8.68 -0.89
Si  3.39  6.20 -5.97
Si -6.53 -4.98 -4.26
Si -3.34 -6.22  6.01
Si -8.24 -0.01 -4.28
Si  3.48 -7.51 -4.26
Si  8.27  0.06  4.30
Si -6.07 -3.77  5.98
Si -5.03 -1.25 -7.76
Si -3.54  7.49  4.33
Si  5.13  1.26  7.72
Si -8.58  3.73  0.86
Si -7.02 -6.18 -0.91
Si -3.84 -7.47 -4.23
Si  3.81  7.46  4.30
Si -0.91  0.04  9.37
Si  0.97 -0.01 -9.38
Si  8.64 -3.69 -0.87
Si  6.99  6.33  0.83
Si  5.30 -7.42 -2.56
Si -3.96  6.22 -5.96
Si  3.98 -6.25  5.97
Si -4.25 -3.69  7.68
Si  4.22  3.76 -7.68
Si -5.33  7.50  2.56
Si -4.29 -8.63 -0.85
Si -9.57  1.28  0.85
Si  2.63 -0.07  9.32
Si -5.71 -7.42 -2.56
Si -0.01 -2.46 -9.39
Si  0.08  2.57  9.40
Si  9.64 -1.17 -0.85
Si  5.67  7.50  2.56
Si -9.09  2.48 -2.58
Si  6.81 -3.68 -5.95
Si -6.79  3.73  5.97
Si -5.88  1.26  7.72
Si  9.11 -2.54  2.56
Si  4.36  8.74  0.85
Si  4.93 -3.71 -7.62
Si -1.77  2.50 -9.33
Si -2.80 -0.02 -9.44
Si -8.07  5.01 -2.61
Si  0.29 -6.19 -7.67
Si  5.97 -1.25 -7.76
Si -7.75  1.21  6.02
Si -7.65  6.25  0.83
Si  8.18 -5.03  2.51
Si  1.75 -2.46  9.45
Si -9.27 -2.46  2.58
Si  1.91  2.52 -9.41
Si -1.45 -6.18  7.64
Si -1.88 -2.54  9.42
Si  7.78 -1.26 -6.06
Si -0.23  6.24  7.73
Si  7.67 -6.28 -0.83
Si -5.03  3.77  7.75
Si  9.32  2.51 -2.52
Si  4.85 -8.69  0.92
Si  5.18  6.17  5.93
Si  1.56  6.16 -7.74
Si  8.34  4.97  2.48
Si -4.87  8.73 -0.79
Si -8.35 -5.02 -2.61
Si  5.35 -7.41  4.30
Si -5.33  7.46 -4.28
Si -5.23 -6.25 -6.01
Si  2.21 -6.20  7.72
Si -2.11  6.21 -7.76
Si -5.66 -7.41  4.30
Si -0.66  9.95  2.49
Si  0.76 -9.94 -2.52
Si  3.62 -2.52 -9.29
Si  5.68  7.46 -4.28
Si -1.18 -9.92  2.58
Si -3.58  2.52  9.35
Si -9.08  2.48  4.28
Si -5.82  6.17  5.93
Si  1.24  9.97 -2.52
Si  9.13 -2.49 -4.23
Si -6.90 -1.28  7.64
Si  9.66  3.71  0.81
Si  3.73  2.50  9.37
Si -3.70 -2.49 -9.39
Si 10.09 -0.02  2.57
Si  5.78 -6.25 -6.01
Si -10.10  0.01 -2.57
Si -6.07 -3.71 -7.62
Si -9.20 -2.52 -4.22
Si  3.37  6.22  7.67
Si  9.23  2.48  4.19
Si  4.58 -0.00 -9.39
Si  6.88  1.23 -7.76
Si -4.64 -0.01  9.39
Si -3.35 -6.28 -7.69
Si  5.97  3.77  7.75
Si  8.19 -4.98 -4.29
Si -8.22  4.96  4.31
Si  7.85  3.69  5.98
Si -2.52  9.91 -2.61
Si -7.91 -3.71 -5.92
Si  2.50 -9.96  2.48
Si  0.61  8.67 -6.01
Si -9.83 -3.81 -0.92
Si -0.65 -8.76  5.93
Si -1.19  8.68  5.97
Si -3.98  6.18  7.64
Si  8.36  4.94 -4.28
Si -8.34 -4.96  4.28
Si  1.21 -8.70 -5.96
Si  8.69  1.21 -6.01
Si  0.81 -4.97  9.37
Si -8.74 -1.30  5.93
Si  3.01  9.90  2.51
Si -0.78  4.97 -9.39
Si -2.90 -9.92 -2.61
Si -10.56 -1.21  0.83
Si -7.18  7.47 -2.57
Si  7.17 -7.49  2.57
Si  1.04  4.92  9.42
Si -1.01 -4.95 -9.41
Si 10.59  1.19 -0.83
Si -6.16 -8.69  0.92
Si  6.14  8.73 -0.79
Si  3.96 -6.23 -7.76
Si -0.69  9.95 -4.26
Si -2.44 -8.73 -5.97
Si  0.70 -9.97  4.22
Si  7.44  7.49 -2.50
Si  1.15  9.94  4.19
Si -8.85 -6.24  0.96
Si  6.75 -3.69  7.68
Si  2.50  8.71  6.01
Si  8.88  6.24 -0.89
Si -1.11 -9.99 -4.22
Si -7.54 -7.44  2.62
Si -6.78  3.76 -7.68
Si  2.62 -4.87 -9.42
Si -2.65  5.02  9.34
Si 10.09 -0.01 -4.23
Si -2.83 -4.89  9.40
Si  6.72 -8.63 -0.85
Si -3.00  8.68 -6.03
Si  3.01 -8.71  5.99
Si -10.11 -0.01  4.30
Si -7.80  1.27 -7.67
Si -6.65  8.74  0.85
Si  2.90  5.00 -9.39
Si  5.43 -2.45  9.34
Si  5.15  6.18 -7.63
Si  7.86 -1.22  7.73
Si -2.51  9.96  4.28
Si  7.04  6.22 -5.96
Si -8.65  3.72 -5.95
Si -7.03 -6.25  5.97
Si -5.57 -2.45  9.34
Si -10.45  3.77 -0.87
Si  0.96  0.01 11.11
Si  2.52 -9.99 -4.28
Si -0.90  0.03 -11.12
Si -4.40  9.92  2.62
Si  8.62 -3.74  6.02
Si  4.37 -9.96 -2.55
Si -5.19 -6.22  7.70
Si  7.17 -7.47 -4.23
Si 10.51 -3.73  0.86
Si -5.47  2.60 -9.42
Si -0.26 11.18 -0.86
Si -7.20  7.46  4.30
Si  0.20 -11.19  0.86
Si  5.54  2.60 -9.42
Si  3.02  9.95 -4.29
Si -3.05 -9.97  4.31
Si  1.57 11.18  0.81
Si  6.37 -0.01  9.39
Si  4.25  8.69 -5.93
Si  4.84  9.95 -2.58
Si -0.03 -2.45 11.10
Si -6.43 -0.00 -9.39
Si -4.28 -8.70  5.95
Si  0.10  2.56 -11.10
Si  9.53 -6.19  0.85
Si -9.46  6.30 -0.85
Si  9.64 -1.24  5.95
Si -4.82 -10.01  2.56
Si -2.81 -0.01 11.06
Si -9.67  1.22 -5.93
Si  2.00 -11.21 -0.86
Si -2.06 11.20  0.86
Si -9.99  4.92  2.56
Si  7.47  7.49  4.33
Si -5.86  6.18 -7.63
Si -4.46  4.95 -9.29
Si -1.74 -11.27 -0.92
Si  1.76 -2.47 -11.04
Si -7.53 -7.51 -4.26
Si -10.91  2.43  2.51
Si 10.01 -4.98 -2.58
Si  2.64 -0.08 -11.17
Si  5.82 -6.22  7.70
Si -7.61  6.20 -5.97
Si  4.50 -4.95  9.35
Si -11.42  1.19 -0.83
Si -1.87 -2.55 -11.07
Si  1.90  2.53 11.08
Si 11.45 -1.21  0.83
Si -10.99 -2.45 -2.61
Si  7.67 -6.22  6.01
Si -4.69 -4.96 -9.33
Si  7.85  3.75 -7.62
Si -1.79  2.51 11.16
Si 11.02 -2.45 -2.61
Si -4.83  8.68  6.02
Si -0.69 -8.75 -7.63
Si 10.20  4.96 -2.55
Si 11.10  2.43  2.51
Si  0.65  8.70  7.70
Si -4.36  9.89 -4.32
Si  4.31 -9.98  4.24
Si  4.67  5.00  9.45
Si  1.19 -8.75  7.64
Si  4.86 -8.72 -6.06
Si -10.24 -5.01  2.62
Si -8.77 -1.28 -7.63
Si -7.95 -3.70  7.75
Si  8.74  1.24  7.70
Si -1.21  8.70 -7.76
Si -3.41 -11.20  0.86
Si  3.47 11.23 -0.87
Si -7.96 -8.68 -0.89
Si -4.79 -9.96 -4.23
Si  2.48  8.64 -7.69
Si  8.00  8.68  0.96
Si -3.99 11.12 -0.92
Si  4.84  9.94  4.28
Si -2.46 -8.71  7.67
Si  3.82 -11.21  0.81
Si -9.96  4.97 -4.23
Si  8.99 -7.46 -2.57
Si -9.01  7.44  2.57
Si 10.88 -2.50  4.31
Si -3.71 -2.48 11.10
Si -3.57  2.51 -11.14
Si 10.01 -4.99  4.28
Si -6.17  9.95 -2.58
Si -10.91  2.49 -4.29
Si -0.29 -7.53  9.32
Si -9.71 -3.73  5.97
Si  3.74  2.48 -11.12
Si  4.57  0.01 11.11
Si  9.73  3.79 -5.95
Si  0.12  7.44 -9.44
Si -2.96  8.73  7.72
Si -4.63 -0.02 -11.10
Si  3.61 -2.51 11.21
Si  6.19 -10.01  2.56
Si 10.15  4.95  4.24
Si  3.06 -8.71 -7.76
Si  7.03  6.18  7.64
Si  1.66 -7.46 -9.39
Si -1.72  7.45  9.39
Si -11.50 -3.73  0.86
Si -7.28  2.50  9.37
Si -7.38 -2.52 -9.29
Si  8.63 -3.76 -7.67
Si -1.95 -7.47 -9.38
Si -8.65  3.75  7.68
Si -8.50  8.65 -0.83
Si  7.30 -2.49 -9.39
Si  1.05  4.91 -11.07
Si -10.19 -5.04 -4.32
Si 11.10  2.49 -4.29
Si -10.53 -1.26 -5.97
Si -1.02 -4.94 11.08
Si  2.00  7.51  9.37
Si 11.91  0.01 -2.57
Si 11.56  3.77 -0.87
Si  8.53 -8.67  0.83
Si -0.79  4.98 11.10
Si -7.04 -6.23 -7.76
Si  6.60  9.92  2.62
Si -11.93 -0.02  2.57
Si -11.13 -2.50  4.31
Si  7.42  2.52  9.35
Si  0.82 -4.98 -11.12
Si  9.30  7.49  2.62
Si  6.18  8.68  6.02
