500
set: 611.00  0.00  0.00
Si  0.52 -0.56  0.85
Si -0.52  0.56 -0.85
Si  1.51  1.55  0.85
Si -1.51 -1.55 -0.85
Si -0.48 -2.67  0.85
Si  0.48  2.67 -0.85
Si -2.37  1.55  0.85
Si  2.37 -1.55 -0.85
Si -1.50 -0.17  2.94
Si  1.50  0.17 -2.94
Si  3.37  0.56 -0.85
Si -3.37 -0.56  0.85
Si  0.50 -1.94 -2.94
Si -0.50  1.94  2.94
Si -2.38  0.17 -2.94
Si  2.38 -0.17  2.94
Si -1.38  2.28 -2.94
Si  1.38 -2.28  2.94
Si  1.37 -3.66 -0.85
Si -1.37  3.66  0.85
Si -3.40  2.67 -0.85
Si  3.40 -2.67  0.85
Si  2.50  2.28 -2.94
Si -2.50 -2.28  2.94
Si -4.40  0.56 -0.85
Si  4.40 -0.56  0.85
Si  2.51  3.66  0.85
Si -2.51 -3.66 -0.85
Si -0.53 -0.82 -4.65
Si  0.53  0.82  4.65
Si  0.47  1.29 -4.65
Si -0.47 -1.29  4.65
Si  3.38  1.94  2.94
Si -3.38 -1.94 -2.94
Si  0.50  4.05  2.94
Si -0.50 -4.05 -2.94
Si  1.48  4.79 -0.85
Si -1.48 -4.79  0.85
Si  4.37  2.67 -0.85
Si -4.37 -2.67  0.85
Si -0.39  4.39 -2.94
Si  0.39 -4.39  2.94
Si  2.40 -4.79  0.85
Si -2.40  4.79 -0.85
Si  4.38 -1.94 -2.94
Si -4.38  1.94  2.94
Si -5.40 -1.55 -0.85
Si  5.40  1.55  0.85
Si  1.53  2.93  4.65
Si -1.53 -2.93 -4.65
Si  3.35 -0.82 -4.65
Si -3.35  0.82  4.65
Si  0.37 -5.77 -0.85
Si -0.37  5.77  0.85
Si -3.41  1.29 -4.65
Si  3.41 -1.29  4.65
Si  1.47  3.40 -4.65
Si -1.47 -3.40  4.65
Si -2.35  2.93  4.65
Si  2.35 -2.93 -4.65
Si  3.38 -4.05 -2.94
Si -3.38  4.05  2.94
Si  5.38  0.17 -2.94
Si -5.38 -0.17  2.94
Si -2.41  3.40 -4.65
Si  2.41 -3.40  4.65
Si  3.50  4.39 -2.94
Si -3.50 -4.39  2.94
Si -5.27  2.28 -2.94
Si  5.27 -2.28  2.94
Si  5.25 -3.66 -0.85
Si -5.25  3.66  0.85
Si -4.41 -0.82 -4.65
Si  4.41  0.82  4.65
Si -6.25  1.55  0.85
Si  6.25 -1.55 -0.85
Si -4.35 -1.29  4.65
Si  4.35  1.29 -4.65
Si -4.38 -4.05 -2.94
Si  4.38  4.05  2.94
Si -4.27  4.39 -2.94
Si  4.27 -4.39  2.94
Si -3.51 -5.77 -0.85
Si  3.51  5.77  0.85
Si  6.27 -0.17  2.94
Si -6.27  0.17 -2.94
Si -1.40  0.90 -6.74
Si  1.40 -0.90  6.74
Si  1.35 -5.04 -4.65
Si -1.35  5.04  4.65
Si  1.50  6.17  2.94
Si -1.50 -6.17 -2.94
Si  1.48 -1.21 -6.74
Si -1.48  1.21  6.74
Si  1.40 -6.90  0.85
Si -1.40  6.90 -0.85
Si -0.61 -6.50  2.94
Si  0.61  6.50 -2.94
Si -4.25  5.77  0.85
Si  4.25 -5.77 -0.85
Si  2.48  0.90 -6.74
Si -2.48 -0.90  6.74
Si  2.38 -6.17 -2.94
Si -2.38  6.17  2.94
Si -5.37 -4.79  0.85
Si  5.37  4.79 -0.85
Si -2.40 -1.21 -6.74
Si  2.40  1.21  6.74
Si -2.53 -5.04 -4.65
Si  2.53  5.04  4.65
Si  7.25  0.56 -0.85
Si -7.25 -0.56  0.85
Si -1.41  5.51 -4.65
Si  1.41 -5.51  4.65
Si  2.48  6.90 -0.85
Si -2.48 -6.90  0.85
Si  6.38  2.28 -2.94
Si -6.38 -2.28  2.94
Si -0.40  3.01 -6.74
Si  0.40 -3.01  6.74
Si -6.40 -3.66 -0.85
Si  6.40  3.66  0.85
Si -0.48  3.32  6.74
Si  0.48 -3.32 -6.74
Si  2.47  5.51 -4.65
Si -2.47 -5.51  4.65
Si -5.41 -2.93 -4.65
Si  5.41  2.93  4.65
Si  7.28 -2.67  0.85
Si -7.28  2.67 -0.85
Si  3.27 -6.50  2.94
Si -3.27  6.50 -2.94
Si  5.35  3.40 -4.65
Si -5.35 -3.40  4.65
Si -6.28  4.79 -0.85
Si  6.28 -4.79  0.85
Si  0.63  7.88  0.85
Si -0.63 -7.88 -0.85
Si  7.27  1.94  2.94
Si -7.27 -1.94 -2.94
Si  3.48  3.01 -6.74
Si -3.48 -3.01  6.74
Si -3.40 -3.32 -6.74
Si  3.40  3.32  6.74
Si -6.24  2.93  4.65
Si  6.24 -2.93 -4.65
Si -8.28  0.56 -0.85
Si  8.28 -0.56  0.85
Si  4.50  6.50 -2.94
Si -4.50 -6.50  2.94
Si  0.45 -0.09 -8.44
Si -0.45  0.09  8.44
Si  0.60  5.12 -6.74
Si -0.60 -5.12  6.74
Si -4.28  3.01 -6.74
Si  4.28 -3.01  6.74
Si  6.30 -3.40  4.65
Si -6.30  3.40 -4.65
Si  0.35 -7.16 -4.65
Si -0.35  7.16  4.65
Si -3.25  7.88  0.85
Si  3.25 -7.88 -0.85
Si -5.28  0.90 -6.74
Si  5.28 -0.90  6.74
Si  5.24 -5.04 -4.65
Si -5.24  5.04  4.65
Si -7.24  0.82  4.65
Si  7.24 -0.82 -4.65
Si  0.52  5.44  6.74
Si -0.52 -5.44 -6.74
Si -4.37  3.32  6.74
Si  4.37 -3.32 -6.74
Si -5.37  1.21  6.74
Si  5.37 -1.21 -6.74
Si  5.38  6.17  2.94
Si -5.38 -6.17 -2.94
Si -8.25 -2.67  0.85
Si  8.25  2.67 -0.85
Si  5.28 -6.90  0.85
Si -5.28  6.90 -0.85
Si  0.55  2.20  8.44
Si -0.55 -2.20 -8.44
Si -7.30  1.29 -4.65
Si  7.30 -1.29  4.65
Si  1.45  2.02 -8.44
Si -1.45 -2.02  8.44
Si -7.27  4.05  2.94
Si  7.27 -4.05 -2.94
Si  1.38 -8.28 -2.94
Si -1.38  8.28  2.94
Si  0.41 -7.63  4.65
Si -0.41  7.63 -4.65
Si  5.30 -5.51  4.65
Si -5.30  5.51 -4.65
Si  8.27 -1.94 -2.94
Si -8.27  1.94  2.94
Si -2.43  2.02 -8.44
Si  2.43 -2.02  8.44
Si -0.40  9.01 -0.85
Si  0.40 -9.01  0.85
Si -3.28  5.12 -6.74
Si  3.28 -5.12  6.74
Si  7.38  4.39 -2.94
Si -7.38 -4.39  2.94
Si  3.43  0.09  8.44
Si -3.43 -0.09 -8.44
Si -4.51 -7.88 -0.85
Si  4.51  7.88  0.85
Si  2.50  8.28  2.94
Si -2.50 -8.28 -2.94
Si  3.53  7.16  4.65
Si -3.53 -7.16 -4.65
Si -1.61 -8.62  2.94
Si  1.61  8.62 -2.94
Si  6.27 -6.17 -2.94
Si -6.27  6.17  2.94
Si  3.37 -5.44 -6.74
Si -3.37  5.44  6.74
Si  6.28  1.21  6.74
Si -6.28 -1.21 -6.74
Si  6.37  0.90 -6.74
Si -6.37 -0.90  6.74
Si  3.34 -2.20 -8.44
Si -3.34  2.20  8.44
Si -2.27  8.62 -2.94
Si  2.27 -8.62  2.94
Si -6.41 -5.04 -4.65
Si  6.41  5.04  4.65
Si -7.40 -5.77 -0.85
Si  7.40  5.77  0.85
Si  6.37  6.90 -0.85
Si -6.37 -6.90  0.85
Si  9.28  1.55  0.85
Si -9.28 -1.55 -0.85
Si  4.34 -0.09 -8.44
Si -4.34  0.09  8.44
Si  1.43 -4.13  8.44
Si -1.43  4.13 -8.44
Si  4.24 -7.16 -4.65
Si -4.24  7.16  4.65
Si -8.23 -1.29  4.65
Si  8.23  1.29 -4.65
Si  8.29  0.82  4.65
Si -8.29 -0.82 -4.65
Si -4.48 -5.12  6.74
Si  4.48  5.12 -6.74
Si  3.47  7.63 -4.65
Si -3.47 -7.63  4.65
Si  1.54  4.31  8.44
Si -1.54 -4.31 -8.44
Si  6.35  5.51 -4.65
Si -6.35 -5.51  4.65
Si  8.27  4.05  2.94
Si -8.27 -4.05 -2.94
Si  3.48  9.01 -0.85
Si -3.48 -9.01  0.85
Si -4.40 -5.44 -6.74
Si  4.40  5.44  6.74
Si  8.15 -4.39  2.94
Si -8.15  4.39 -2.94
Si -2.45 -4.13  8.44
Si  2.45  4.13 -8.44
Si -9.26 -0.17  2.94
Si  9.26  0.17 -2.94
Si  2.34 -4.31 -8.44
Si -2.34  4.31  8.44
Si  4.43  2.20  8.44
Si -4.43 -2.20 -8.44
Si -9.15  2.28 -2.94
Si  9.15 -2.28  2.94
Si  9.13 -3.66 -0.85
Si -9.13  3.66  0.85
Si  4.30 -7.63  4.65
Si -4.30  7.63 -4.65
Si -4.28  9.01 -0.85
Si  4.28 -9.01  0.85
Si  8.13 -5.77 -0.85
Si -8.13  5.77  0.85
Si -1.60 -7.23  6.74
Si  1.60  7.23 -6.74
Si -7.15  6.50 -2.94
Si  7.15 -6.50  2.94
Si  2.28 -7.23  6.74
Si -2.28  7.23 -6.74
Si  1.63 10.00  0.85
Si -1.63 -10.00 -0.85
Si  5.34  2.02 -8.44
Si -5.34 -2.02  8.44
Si -1.51 -7.55 -6.74
Si  1.51  7.55  6.74
Si -5.27  8.28  2.94
Si  5.27 -8.28 -2.94
Si  2.25 -10.00 -0.85
Si -2.25 10.00  0.85
Si -10.13  1.55  0.85
Si 10.13 -1.55 -0.85
Si -0.65 -9.27 -4.65
Si  0.65  9.27  4.65
Si -2.37  7.55  6.74
Si  2.37 -7.55 -6.74
Si  7.37  3.01 -6.74
Si -7.37 -3.01  6.74
Si  9.25  4.79 -0.85
Si -9.25 -4.79  0.85
Si -7.28 -3.32 -6.74
Si  7.28  3.32  6.74
Si -0.43  6.25 -8.44
Si  0.43 -6.25  8.44
Si -10.15  0.17 -2.94
Si 10.15 -0.17  2.94
Si -5.50 -8.62  2.94
Si  5.50  8.62 -2.94
Si -1.42 -0.48 -10.53
Si  1.42  0.48 10.53
Si -0.41  1.63 -10.53
Si  0.41 -1.63 10.53
Si -7.14  7.88  0.85
Si  7.14 -7.88 -0.85
Si  1.34 -6.42 -8.44
Si -1.34  6.42  8.44
Si  6.31 -2.02  8.44
Si -6.31  2.02 -8.44
Si -9.29 -2.93 -4.65
Si  9.29  2.93  4.65
Si  5.31 -4.13  8.44
Si -5.31  4.13 -8.44
Si  0.39 -10.39 -2.94
Si -0.39 10.39  2.94
Si -0.58 -9.74  4.65
Si  0.58  9.74 -4.65
Si  2.47 -0.48 -10.53
Si -2.47  0.48 10.53
Si  6.38  8.28  2.94
Si -6.38 -8.28 -2.94
Si  3.24 -9.27 -4.65
Si -3.24  9.27  4.65
Si -9.23 -3.40  4.65
Si  9.23  3.40 -4.65
Si -2.54 -6.42 -8.44
Si  2.54  6.42  8.44
Si 10.26  2.28 -2.94
Si -10.26 -2.28  2.94
Si -5.43 -4.31 -8.44
Si  5.43  4.31  8.44
Si -1.47  2.59 10.53
Si  1.47 -2.59 -10.53
Si -10.28 -3.66 -0.85
Si 10.28  3.66  0.85
Si -6.15  8.62 -2.94
Si  6.15 -8.62  2.94
Si  8.16 -3.01  6.74
Si -8.16  3.01 -6.74
Si  8.38  6.50 -2.94
Si -8.38 -6.50  2.94
Si  3.45  6.25 -8.44
Si -3.45 -6.25  8.44
Si -7.17  5.12 -6.74
Si  7.17 -5.12  6.74
Si  2.41  2.59 10.53
Si -2.41 -2.59 -10.53
Si  8.25 -3.32 -6.74
Si -8.25  3.32  6.74
Si -0.60 -11.12  0.85
Si  0.60 11.12 -0.85
Si  7.31  0.09  8.44
Si -7.31 -0.09 -8.44
Si 11.13  0.56 -0.85
Si -11.13 -0.56  0.85
Si -0.58 -3.74 10.53
Si  0.58  3.74 -10.53
Si -1.27 10.73 -2.94
Si  1.27 -10.73  2.94
Si  3.47  1.63 -10.53
Si -3.47 -1.63 10.53
Si -10.16  4.79 -0.85
Si 10.16 -4.79  0.85
Si -3.30  9.74 -4.65
Si  3.30 -9.74  4.65
Si -7.25  5.44  6.74
Si  7.25 -5.44 -6.74
Si  7.41  7.16  4.65
Si -7.41 -7.16 -4.65
Si  5.48  7.23 -6.74
Si -5.48 -7.23  6.74
Si  4.53  9.27  4.65
Si -4.53 -9.27 -4.65
Si -7.22  2.20  8.44
Si  7.22 -2.20 -8.44
Si -6.34 -4.13  8.44
Si  6.34  4.13 -8.44
Si  6.22 -4.31 -8.44
Si -6.22  4.31  8.44
Si -3.50 -10.39 -2.94
Si  3.50 10.39  2.94
Si -4.31  6.25 -8.44
Si  4.31 -6.25  8.44
Si  9.16 -0.90  6.74
Si -9.16  0.90 -6.74
Si -9.12  5.04  4.65
Si  9.12 -5.04 -4.65
Si  2.61 10.73 -2.94
Si -2.61 -10.73  2.94
Si -5.51 -10.00 -0.85
Si  5.51 10.00  0.85
Si -5.40 -7.55 -6.74
Si  5.40  7.55  6.74
Si -4.30  1.63 -10.53
Si  4.30 -1.63 10.53
Si -9.16  6.90 -0.85
Si  9.16 -6.90  0.85
Si  9.25 -1.21 -6.74
Si -9.25  1.21  6.74
Si 11.16 -2.67  0.85
Si -11.16  2.67 -0.85
Si -9.27 -6.17 -2.94
Si  9.27  6.17  2.94
Si -10.12  2.93  4.65
Si 10.12 -2.93 -4.65
Si  0.47 -4.71 -10.53
Si -0.47  4.71 10.53
Si  8.39  7.88  0.85
Si -8.39 -7.88 -0.85
Si -7.35 -7.63  4.65
Si  7.35  7.63 -4.65
Si  1.28 -9.35  6.74
Si -1.28  9.35 -6.74
Si  4.27 -10.39 -2.94
Si -4.27 10.39  2.94
Si -3.28 11.12 -0.85
Si  3.28 -11.12  0.85
Si -6.17  7.23 -6.74
Si  6.17 -7.23  6.74
Si -3.30  3.74 -10.53
Si  3.30 -3.74 10.53
Si  7.37  9.01 -0.85
Si -7.37 -9.01  0.85
Si  9.18 -5.51  4.65
Si -9.18  5.51 -4.65
Si -4.47 -9.74  4.65
Si  4.47  9.74 -4.65
Si 11.15  1.94  2.94
Si -11.15 -1.94 -2.94
Si 10.18 -3.40  4.65
Si -10.18  3.40 -4.65
Si  6.14 -10.00 -0.85
Si -6.14 10.00  0.85
Si -8.12  7.16  4.65
Si  8.12 -7.16 -4.65
Si  8.22 -0.09 -8.44
Si -8.22  0.09  8.44
Si  5.30  0.48 10.53
Si -5.30 -0.48 -10.53
Si  2.60  9.35 -6.74
Si -2.60 -9.35  6.74
Si -5.22  6.42  8.44
Si  5.22 -6.42 -8.44
Si  1.37 -9.66 -6.74
Si -1.37  9.66  6.74
Si  6.25 -7.55 -6.74
Si -6.25  7.55  6.74
Si  0.57  8.36 -8.44
Si -0.57 -8.36  8.44
Si -8.37 -5.12  6.74
Si  8.37  5.12 -6.74
Si  8.28  5.44  6.74
Si -8.28 -5.44 -6.74
Si -0.34  8.54  8.44
Si  0.34 -8.54 -8.44
Si  4.48 11.12 -0.85
Si -4.48 -11.12  0.85
Si -3.41 -4.71 -10.53
Si  3.41  4.71 10.53
Si  4.47  3.74 -10.53
Si -4.47 -3.74 10.53
Si  2.51  9.66  6.74
Si -2.51 -9.66 -6.74
Si -8.31 -2.20 -8.44
Si  8.31  2.20  8.44
Si -11.12  0.82  4.65
Si 11.12 -0.82 -4.65
Si  5.35 -2.59 -10.53
Si -5.35  2.59 10.53
Si  8.18 -7.63  4.65
Si -8.18  7.63 -4.65
Si -1.58 -5.85 10.53
Si  1.58  5.85 -10.53
Si 11.18 -1.29  4.65
Si -11.18  1.29 -4.65
Si  8.16 -9.01  0.85
Si -8.16  9.01 -0.85
Si  1.25 -12.11 -0.85
Si -1.25 12.11  0.85
Si -12.16  0.56 -0.85
Si 12.16 -0.56  0.85
Si -11.15  4.05  2.94
Si 11.15 -4.05 -2.94
Si -10.15  6.17  2.94
Si 10.15 -6.17 -2.94
Si -10.16 -1.21 -6.74
Si 10.16  1.21  6.74
