500
set: 849.00  0.00  0.00
Si -0.42  1.23 -0.83
Si  0.43 -1.21  0.85
Si -1.39 -1.21 -0.85
Si  1.42  1.23  0.88
Si  0.87  0.01 -2.55
Si -2.24  1.25  0.85
Si  2.25 -1.24 -0.84
Si -0.91  0.02  2.55
Si  0.08  2.46  2.53
Si  3.21  1.27 -0.85
Si -0.01 -2.47 -2.59
Si -3.27 -1.23  0.85
Si  2.75  0.04  2.56
Si -2.75  0.02 -2.57
Si -0.53 -3.72  0.87
Si  0.54  3.73 -0.85
Si -1.74  2.47 -2.53
Si  1.77 -2.49  2.56
Si  1.90  2.48 -2.56
Si -1.31  3.73  0.83
Si -1.88 -2.53  2.55
Si  1.27 -3.76 -0.88
Si  4.04 -1.21  0.84
Si  0.92 -0.03  4.25
Si -0.90  0.01 -4.25
Si -4.10  1.25 -0.88
Si -2.37 -3.71 -0.85
Si  2.38  3.71  0.87
Si -0.12 -2.49  4.25
Si  0.07  2.51 -4.25
Si -3.14  3.71 -0.84
Si  3.13 -3.74  0.87
Si  2.73 -0.02 -4.24
Si -3.58  2.48  2.58
Si  3.62 -2.49 -2.52
Si -2.76  0.03  4.27
Si -3.68 -2.48 -2.55
Si  3.69  2.46  2.58
Si -1.74  2.48  4.20
Si  4.57  0.01 -2.53
Si  1.80 -2.50 -4.22
Si -4.58  0.01  2.57
Si -1.88 -2.49 -4.24
Si -5.05 -1.23 -0.88
Si  1.90  2.48  4.26
Si  5.07  1.23  0.88
Si  1.03  4.91  2.55
Si -0.77  4.96 -2.55
Si  4.18  3.68 -0.88
Si  0.78 -4.98  2.58
Si -1.01 -4.95 -2.56
Si -4.22 -3.70  0.83
Si -3.59  2.46 -4.24
Si -5.89  1.23  0.88
Si  0.45 -1.24 -5.95
Si  5.91 -1.23 -0.88
Si  3.60 -2.48  4.25
Si -0.43  1.23  5.97
Si -3.73 -2.47  4.21
Si  3.70  2.46 -4.27
Si -2.62  4.98  2.54
Si  2.63 -4.99 -2.56
Si -4.92  3.69  0.87
Si  4.91 -3.73 -0.84
Si  1.34  1.23 -5.96
Si  0.30 -6.17 -0.85
Si -1.38 -1.21  5.96
Si  4.55  0.01  4.26
Si -2.83 -4.97  2.53
Si -4.58  0.00 -4.28
Si -0.36  6.21  0.85
Si  2.90  4.97 -2.59
Si -1.49 -6.21  0.88
Si  1.51  6.22 -0.85
Si  2.24 -1.26  5.94
Si -5.42  2.44 -2.56
Si  5.43 -2.46  2.54
Si -2.27  1.25 -6.00
Si -0.82  4.96  4.21
Si -5.53 -2.46  2.54
Si  5.54  2.44 -2.56
Si  1.03  4.95 -4.24
Si  0.79 -4.98 -4.27
Si -1.01 -4.96  4.26
Si -2.15  6.21 -0.88
Si  2.16 -6.21  0.88
Si -6.39  0.01 -2.53
Si  6.38  0.01  2.57
Si -3.20 -1.24 -6.01
Si  3.26  1.22  5.99
Si  2.63 -4.95  4.23
Si  6.87  1.25 -0.88
Si  0.56  3.73  5.96
Si -2.65  4.95 -4.27
Si -0.54 -3.75 -5.96
Si -6.92 -1.21  0.84
Si -3.33 -6.21 -0.83
Si  2.79  4.95  4.25
Si -2.83 -4.93 -4.25
Si -4.43  4.95 -2.52
Si  3.34  6.22  0.85
Si  6.04  3.69  0.87
Si -1.30  3.74 -5.94
Si  1.27 -3.73  5.96
Si -6.05 -3.73 -0.84
Si  4.47 -4.96  2.58
Si -4.65 -4.97 -2.53
Si  4.68  4.95  2.56
Si -5.42  2.49  4.23
Si -4.10  1.23  5.94
Si  5.41 -2.49 -4.27
Si  4.08 -1.23 -5.98
Si  3.96 -6.19 -0.88
Si -2.35 -3.70  5.96
Si  2.37  3.69 -5.96
Si  5.54  2.49  4.23
Si -5.55 -2.49 -4.27
Si -4.01  6.23  0.84
Si  3.10 -3.71 -5.94
Si -3.13  3.72  5.93
Si  6.38  0.00 -4.28
Si -6.41  0.01  4.26
Si  6.74 -3.70  0.83
Si -0.43  1.19 -7.66
Si  0.45 -1.23  7.65
Si -6.78  3.68 -0.88
Si -0.16 -7.40  2.56
Si  7.70 -1.23  0.85
Si  1.44  1.25  7.61
Si  0.16  7.45 -2.57
Si -4.45  4.95  4.25
Si -7.75  1.27 -0.85
Si -1.38 -1.26 -7.68
Si  5.05  1.24 -5.95
Si -5.04 -1.26  5.96
Si  4.46 -4.98 -4.24
Si -4.65 -4.96  4.20
Si  1.66 -7.43 -2.53
Si  4.71  4.94 -4.22
Si  2.24 -1.26 -7.63
Si -1.67  7.45  2.57
Si -2.22  1.24  7.66
Si -7.27  2.46  2.58
Si -5.15 -6.19  0.85
Si  7.28 -2.48 -2.55
Si  5.16  6.20 -0.84
Si -2.04 -7.43 -2.55
Si  2.00  7.46  2.55
Si -7.34 -2.49 -2.52
Si -4.21 -3.69 -5.94
Si  4.18  3.70  5.96
Si  7.38  2.48  2.58
Si  3.23  1.23 -7.64
Si -6.28  4.95  2.56
Si -3.20 -1.25  7.68
Si  6.31 -4.97 -2.53
Si -5.91  1.24 -5.95
Si  5.92 -1.26  5.96
Si -5.80  6.20 -0.84
Si -0.58 -3.71  7.66
Si  5.81 -6.19  0.85
Si  0.54  3.74 -7.66
Si  4.93 -3.72  5.93
Si -6.49 -4.96  2.58
Si  6.53  4.95 -2.52
Si -0.18 -7.45 -4.24
Si  1.29 -3.68 -7.65
Si -4.96  3.73 -5.94
Si  3.47 -7.42  2.57
Si -3.48  7.44 -2.53
Si  0.15  7.46  4.27
Si -8.21  0.04  2.56
Si  8.21  0.02 -2.57
Si -1.29  3.74  7.64
Si -0.29  6.19 -6.01
Si  0.35 -6.22  5.99
Si  7.82  3.71 -0.84
Si  1.64 -7.42  4.26
Si -3.82 -7.42  2.55
Si -7.83 -3.74  0.87
Si  7.23 -2.47  4.21
Si  3.78  7.45 -2.55
Si -0.66 -8.68 -0.84
Si -1.67  7.44 -4.28
Si -1.57 -6.21 -5.96
Si  0.67  8.68  0.85
Si  1.53  6.22  5.96
Si  4.08 -1.27  7.64
Si  1.14 -8.65  0.84
Si -4.08  1.26 -7.67
Si -7.26  2.46 -4.27
Si -1.19  8.69 -0.88
Si  2.01  7.45 -4.25
Si -1.99 -7.47  4.25
Si -2.37 -3.70 -7.66
Si  2.33  3.73  7.66
Si -8.71 -1.24 -0.84
Si -2.13  6.18  5.96
Si  8.72  1.25  0.85
Si  7.37  2.46 -4.24
Si -7.36 -2.48  4.25
Si  2.14 -6.20 -5.95
Si -6.25  4.94 -4.22
Si -2.48 -8.65  0.85
Si -3.13  3.73 -7.63
Si  2.49  8.67 -0.83
Si  6.31 -4.96  4.20
Si  3.12 -3.71  7.68
Si  6.86  1.23  5.94
Si -6.88 -1.23 -5.98
Si -2.98  8.66  0.88
Si  3.00 -8.67 -0.88
Si  6.51  4.95  4.25
Si -6.50 -4.98 -4.24
Si  3.36  6.20 -5.95
Si -5.04 -1.24 -7.63
Si -3.34 -6.21  5.97
Si  6.01  3.73 -5.94
Si -6.04 -3.72  5.93
Si  8.20  0.03  4.27
Si  3.47 -7.43 -4.28
Si -8.23 -0.02 -4.24
Si -3.50  7.45  4.26
Si  5.08  1.23  7.68
Si  3.82  7.41  4.25
Si -3.81 -7.42 -4.25
Si  6.95  6.23  0.84
Si  0.93 -0.01 -9.33
Si -7.00 -6.19 -0.88
Si -8.58  3.71  0.87
Si  8.59 -3.71 -0.85
Si -0.92  0.01  9.35
Si  3.95 -6.21  5.94
Si  5.30 -7.42 -2.57
Si -4.20 -3.70  7.64
Si -3.97  6.21 -5.98
Si  4.20  3.75 -7.65
Si -5.30  7.47  2.56
Si -0.04 -2.49 -9.33
Si -9.55  1.23  0.88
Si -5.66 -7.42 -2.57
Si  9.57 -1.21 -0.85
Si  0.06  2.50  9.36
Si -4.30 -8.65 -0.85
Si  6.75 -3.69 -5.94
Si  5.66  7.47  2.56
Si  2.72 -0.04  9.33
Si  4.32  8.67  0.88
Si -9.06  2.48 -2.56
Si  5.92 -1.24 -7.63
Si -5.88  1.23  7.68
Si -6.78  3.70  5.96
Si  9.08 -2.53  2.55
Si -2.77  0.02 -9.37
Si  4.92 -3.71 -7.63
Si -8.07  4.97 -2.59
Si  1.75 -2.45  9.35
Si -7.70  1.22  5.99
Si -1.81  2.49 -9.36
Si  0.32 -6.21 -7.64
Si -9.19 -2.49  2.56
Si -4.93  3.73  7.68
Si  8.13 -4.97  2.53
Si -0.29  6.19  7.68
Si  1.88  2.50 -9.36
Si  9.22  2.47 -2.53
Si  7.63 -6.21 -0.83
Si -7.62  6.22  0.85
Si -1.87 -2.49  9.38
Si  7.76 -1.24 -6.01
Si -1.47 -6.19  7.61
Si  4.79 -8.67  0.85
Si  1.53  6.18 -7.68
Si  5.15  6.18  5.94
Si -4.84  8.70 -0.85
Si  8.34  4.98  2.54
Si -8.33 -4.99 -2.56
Si -5.18 -6.19 -6.00
Si  5.29 -7.41  4.27
Si -2.13  6.20 -7.63
Si -5.32  7.42 -4.24
Si  2.17 -6.21  7.68
Si  5.64  7.42 -4.24
Si -5.67 -7.41  4.27
Si  0.71 -9.92 -2.52
Si -0.67  9.92  2.58
Si  1.17  9.91 -2.53
Si -3.60  2.49  9.33
Si  3.62 -2.49 -9.33
Si -9.06  2.48  4.26
Si -1.14 -9.93  2.56
Si  9.08 -2.49 -4.24
Si -5.81  6.18  5.94
Si -3.70 -2.47 -9.35
Si -6.88 -1.27  7.64
Si 10.05  0.02  2.55
Si  3.71  2.48  9.37
Si  5.78 -6.19 -6.00
Si  9.65  3.73  0.83
Si  6.89  1.26 -7.67
Si -9.16 -2.50 -4.22
Si  4.58 -0.02 -9.34
Si -10.09  0.01 -2.55
Si  3.36  6.20  7.65
Si  8.13 -4.93 -4.25
Si -6.04 -3.71 -7.63
Si  9.22  2.48  4.20
Si -4.59 -0.01  9.36
Si -3.34 -6.25 -7.66
Si -9.69 -3.76 -0.88
Si  6.03  3.73  7.68
Si -8.17  4.95  4.25
Si  7.83  3.72  5.93
Si -2.51  9.88 -2.56
Si  2.52 -9.90  2.54
Si -7.86 -3.71 -5.94
Si -0.67 -8.70  5.94
Si  0.64  8.68 -6.00
Si -8.33 -4.95  4.23
Si -1.19  8.67  5.94
Si  8.32  4.95 -4.27
Si -3.97  6.16  7.64
Si  1.18 -8.67 -5.98
Si  7.14 -7.42  2.55
Si -0.79  4.96 -9.35
Si  3.98 -6.18 -7.67
Si -8.72 -1.26  5.94
Si  0.80 -4.96  9.37
Si -1.02 -4.93 -9.36
Si  8.69  1.25 -6.00
Si -10.53 -1.21  0.85
Si  2.99  9.90  2.53
Si 10.54  1.23 -0.83
Si -2.92 -9.91 -2.59
Si -7.18  7.45 -2.55
Si  1.04  4.95  9.38
Si  6.12  8.70 -0.85
Si -6.17 -8.67  0.85
Si -0.68  9.89 -4.24
Si -2.46 -8.68 -5.95
Si -8.80 -6.21  0.88
Si  2.48  8.67  5.97
Si  0.69 -9.92  4.25
Si  8.82  6.21 -0.88
Si  1.17  9.91  4.20
Si  7.48  7.44 -2.53
Si  6.76 -3.70  7.64
Si -1.10 -9.94 -4.22
Si -7.49 -7.42  2.57
Si -6.76  3.75 -7.65
Si  2.59 -4.93 -9.36
Si -2.64  4.97  9.33
Si -10.05 -0.03  4.25
Si 10.06  0.01 -4.25
Si -3.00  8.67 -5.95
Si -7.73  1.23 -7.64
Si  2.87  4.95 -9.33
Si  6.66 -8.65 -0.85
Si -6.64  8.67  0.88
Si -2.85 -4.93  9.36
Si  3.01 -8.70  5.96
Si  7.76 -1.25  7.68
Si  5.41 -2.47  9.33
Si -2.51  9.93  4.23
Si  5.15  6.18 -7.63
Si -7.01 -6.21  5.94
Si  2.50 -9.92 -4.27
Si -8.59  3.69 -5.96
Si  6.99  6.21 -5.98
Si -0.92  0.01 -11.06
Si  8.61 -3.70  5.96
Si -10.43  3.73 -0.85
Si -5.13 -6.20  7.66
Si 10.43 -3.72  0.87
Si -4.36  9.90  2.58
Si  0.93 -0.01 11.08
Si -5.46  2.51 -9.36
Si -7.14  7.41  4.25
Si  4.38 -9.91 -2.55
Si -5.55 -2.47  9.33
Si  5.50  2.51 -9.36
Si  7.15 -7.42 -4.25
Si -0.23 11.15 -0.84
Si -3.02 -9.93  4.25
Si  0.22 -11.18  0.87
Si  2.98  9.94 -4.25
Si -6.38 -0.02 -9.34
Si  1.59 11.17  0.83
Si  4.81  9.92 -2.56
Si  6.37 -0.01  9.36
Si  0.06  2.50 -11.05
Si  4.25  8.67 -5.96
Si -9.45  6.22 -0.85
Si -2.02 11.13  0.87
Si -4.29 -8.65  5.96
Si -1.64 -11.19 -0.88
Si  9.58 -1.21  5.96
Si -4.79 -9.97  2.55
Si  9.47 -6.21  0.88
Si -0.04 -2.49 11.09
Si -9.93  4.91  2.55
Si  2.00 -11.16 -0.84
Si  7.46  7.45  4.26
Si -9.62  1.23 -5.96
Si -2.77  0.02 11.04
Si -7.49 -7.43 -4.28
Si -5.81  6.18 -7.63
Si  9.96 -4.95 -2.56
Si  2.72 -0.04 -11.09
Si -10.88  2.46  2.53
Si  5.83 -6.20  7.66
Si -4.44  4.94 -9.33
Si  4.45 -4.95  9.33
Si  1.75 -2.45 -11.06
Si -1.87 -2.49 -11.03
Si -7.60  6.20 -5.95
Si -11.38  1.23 -0.83
Si -1.81  2.49 11.06
Si 11.39 -1.21  0.85
Si  1.89  2.51 11.05
Si  7.62 -6.21  5.97
Si 10.95 -2.47 -2.59
Si -10.98 -2.47 -2.59
Si  7.83  3.73 -7.63
Si -4.79  8.65  5.99
Si  4.66  4.99  9.35
Si -0.67 -8.70 -7.63
Si -7.84 -3.71  7.68
Si -4.72 -4.95 -9.36
Si 11.04  2.46  2.53
Si  0.69  8.68  7.66
Si  4.33 -9.91  4.21
Si 10.19  4.96 -2.55
Si -10.18 -4.98  2.58
Si  4.86 -8.68 -6.01
Si -4.36  9.89 -4.27
Si  1.18 -8.71  7.64
Si -1.17  8.70 -7.67
Si -8.72 -1.26 -7.63
Si  8.74  1.24  7.66
Si -3.44 -11.16  0.87
Si  3.44 11.16 -0.85
Si  2.48  8.62 -7.66
Si -7.96 -8.67 -0.88
Si -3.87 11.12 -0.88
Si  3.83 -11.14  0.83
Si -4.79 -9.93 -4.24
Si  7.98  8.66  0.88
Si  4.81  9.92  4.26
Si -2.46 -8.67  7.65
Si -9.94  4.95 -4.24
Si  8.93 -7.43 -2.55
Si  9.96 -4.96  4.26
Si 10.85 -2.49  4.25
Si  3.71  2.48 -11.05
Si -3.60  2.49 -11.09
Si -3.70 -2.47 11.06
Si  3.62 -2.49 11.09
Si -8.96  7.46  2.55
Si  9.66  3.74 -5.94
Si  3.02 -8.67 -7.63
Si -6.15  9.92 -2.56
Si -10.89  2.51 -4.25
Si -0.18 -7.47  9.33
Si -2.98  8.67  7.68
Si -4.59 -0.01 -11.05
Si -9.69 -3.73  5.96
Si  0.14  7.45 -9.37
Si  4.58 -0.02 11.07
Si  6.17 -9.97  2.55
Si 10.14  4.96  4.21
Si  6.99  6.16  7.64
Si -1.68  7.43  9.36
Si  1.67 -7.46 -9.34
Si -6.99 -6.18 -7.67
Si 11.04  2.51 -4.25
Si  8.60 -3.70 -7.66
Si  7.26 -2.47 -9.35
Si -1.98 -7.44 -9.33
Si -7.25  2.48  9.37
Si 11.84  0.01 -2.55
Si -10.17 -4.98 -4.27
Si -11.49 -3.72  0.87
Si 11.50  3.73 -0.85
Si  1.99  7.45  9.35
Si -11.08 -2.49  4.25
Si -8.63  3.73  7.66
Si -7.35 -2.49 -9.33
Si  0.80 -4.96 -11.05
Si  1.03  4.95 -11.03
Si  7.36  2.49  9.33
Si -11.87  0.02  2.55
Si  8.48 -8.65  0.85
Si -10.51 -1.24 -5.95
Si -8.47  8.67 -0.83
Si -1.02 -4.93 11.05
Si -0.79  4.96 11.06
Si -9.30 -7.43 -2.53
Si 10.53  1.23  5.97
Si -6.59 -9.91 -2.55
