500
set: 1321.00  0.00  0.00
Si -0.55 -0.89 -0.80
Si  1.32 -0.40  0.80
Si -2.68  0.06 -0.12
Si  0.90 -0.29 -2.85
Si -0.12 -0.99  2.85
Si  0.34  2.56  1.71
Si  2.47  1.62  1.03
Si -2.24  1.18  1.94
Si -0.08  2.67 -1.94
Si -2.66  1.28 -1.71
Si -1.71 -2.91 -1.03
Si  3.46 -1.33  0.12
Si  2.05  1.73 -2.62
Si  0.36  3.79  0.12
Si -2.25 -0.05  3.53
Si -1.28 -3.01  2.62
Si  0.43 -3.84 -1.71
Si  3.02 -2.45 -1.94
Si  0.85 -3.95  1.94
Si  3.44 -2.56  1.71
Si -0.97 -0.78 -4.44
Si  3.92  2.22 -1.03
Si  1.74 -0.50  4.44
Si  3.04 -1.23 -3.53
Si -3.15 -3.50  1.03
Si -3.10  0.16 -3.77
Si  0.42 -5.07 -0.12
Si -1.77  4.73  0.80
Si -0.06  3.90 -3.53
Si  0.78  3.68  3.77
Si -4.80  2.22 -1.03
Si -5.26 -1.33  0.12
Si  4.34  2.11  2.62
Si -4.38  2.11  2.62
Si -3.57 -3.40 -2.62
Si  3.88 -1.44  3.77
Si -3.64  4.24 -0.80
Si  2.89  1.52  4.68
Si -2.13 -2.80 -4.68
Si  0.76  2.46  5.36
Si  2.94  5.18 -0.12
Si -3.22  4.13  2.85
Si -1.82  1.07  5.59
Si -2.20  4.83 -2.85
Si  6.04  0.06 -0.12
Si -5.28 -2.56  1.71
Si -0.00 -4.96 -3.77
Si -0.50  2.78 -5.59
Si  3.49  2.32 -4.68
Si -4.84 -1.44  3.77
Si  0.84 -5.17  3.53
Si -3.09  1.39 -5.36
Si  6.05  1.28 -1.71
Si -5.70 -2.45 -1.94
Si -2.73 -3.61  4.68
Si  0.48 -0.18 -6.50
Si  0.01 -3.74 -5.36
Si -6.25  1.62  1.03
Si -1.35  4.62  4.44
Si  2.55 -6.01 -0.80
Si  2.60 -2.35 -5.59
Si  0.30 -1.10  6.50
Si  5.57 -3.50  1.03
Si  5.08  4.24 -0.80
Si  5.15 -3.40 -2.62
Si  1.63  1.83 -6.26
Si  5.62  0.16 -3.77
Si -5.68 -1.23 -3.53
Si -2.16 -6.46  0.12
Si -0.62  6.75  1.03
Si  6.48  1.18  1.94
Si  2.52  5.29 -3.77
Si  1.28 -4.05  5.59
Si  3.37  5.07  3.53
Si -4.30 -5.52  0.80
Si -0.86 -3.12  6.26
Si  4.42 -5.52  0.80
Si  3.86 -2.66  5.36
Si  2.96  6.41 -1.71
Si  4.00 -5.41 -2.85
Si  6.46 -0.05  3.53
Si -6.67  1.73 -2.62
Si  2.97 -6.12  2.85
Si -5.22  2.32 -4.68
Si  3.38  6.30  1.94
Si -1.83 -0.16  7.18
Si -1.05  6.85 -2.62
Si -4.07  4.34 -4.44
Si  5.50  4.13  2.85
Si -7.40 -0.40  0.80
Si  0.82  7.34 -1.03
Si -5.83  1.52  4.68
Si  7.01 -2.91 -1.03
Si -3.96  2.01  6.26
Si  2.13 -5.91 -4.44
Si -4.86 -2.66  5.36
Si -2.58 -6.35 -3.53
Si  2.62 -1.12 -7.18
Si -4.72 -5.41 -2.85
Si -5.77  5.18 -0.12
Si  4.65  4.34 -4.44
Si -1.74 -6.56  3.77
Si  1.24  7.24  2.62
Si  5.63  1.39 -5.36
Si  4.76  2.01  6.26
Si -3.99 -3.29 -6.26
Si -0.20  6.64  4.68
Si -2.80  4.02  6.50
Si -3.88 -5.63  4.44
Si -2.18 -7.68  1.71
Si -5.35  5.07  3.53
Si -3.52  0.27 -7.42
Si  1.39 -8.03 -1.03
Si -0.48  4.00 -7.18
Si -1.39 -0.68 -8.09
Si -2.60 -7.58 -1.94
Si  8.17 -0.89 -0.80
Si -6.97 -0.50  4.44
Si  1.21  3.58  7.42
Si -7.82 -0.29 -2.85
Si -2.75  7.69  1.71
Si  2.17 -0.61  8.09
Si  5.99 -3.61  4.68
Si  7.43 -3.01  2.62
Si  6.94  4.73  0.80
Si -5.34  6.30  1.94
Si  4.72 -3.29 -6.26
Si  6.59 -2.80 -4.68
Si -2.62  4.94 -6.50
Si  6.52  4.83 -2.85
Si -6.12 -2.35 -5.59
Si -3.18  7.79 -1.94
Si  4.84 -5.63  4.44
Si -6.17 -6.01 -0.80
Si -0.05 -8.62  1.03
Si  4.30 -1.55  7.42
Si  1.81 -8.13  2.62
Si -4.42 -1.55  7.42
Si -5.76  6.41 -1.71
Si  0.40  7.45 -4.68
Si  2.54  6.51 -5.36
Si -5.75 -6.12  2.85
Si -0.42 -4.86 -7.42
Si -0.48 -8.52 -2.62
Si -8.38  2.56  1.71
Si  6.90  1.07  5.59
Si  7.75 -0.78 -4.44
Si -6.20  5.29 -3.77
Si  1.26 -5.28  7.18
Si -7.86 -3.95  1.94
Si  5.20  0.27 -7.42
Si  3.31  1.41  8.33
Si  8.59 -0.99  2.85
Si -2.55 -2.69 -8.32
Si  3.58 -5.31 -6.50
Si  3.80  6.19  5.59
Si -8.36  3.79  0.12
Si  3.07  2.43 -8.32
Si  6.55 -6.46  0.12
Si  8.64  2.67 -1.94
Si  0.97 -7.92 -4.68
Si -8.29 -3.84 -1.71
Si -0.93  4.51  8.09
Si -2.73  8.91  0.12
Si -9.27 -0.89 -0.80
Si -8.84 -0.99  2.85
Si  1.19  2.35  9.00
Si -1.40  0.96  9.23
Si -8.80  2.67 -1.94
Si -2.31 -3.71  8.33
Si  2.10  5.39 -7.42
Si -1.47  6.96 -6.26
Si -6.10 -1.12 -7.18
Si  6.13 -6.35 -3.53
Si  3.79  4.97  7.18
Si -7.93  3.68  3.77
Si  9.06  2.56  1.71
Si -2.33  7.58  5.36
Si  1.98  9.36 -0.80
Si -1.76 -7.79  5.36
Si  3.39 -6.22  6.50
Si  1.66  7.13  6.26
Si -7.09  1.83 -6.26
Si  5.92  4.02  6.50
Si -4.92  6.19  5.59
Si -0.41 -3.63 -9.00
Si -0.92  2.88 -9.23
Si -8.30 -5.07 -0.12
Si  2.17 -2.24 -9.23
Si  5.54  7.79 -1.94
Si  7.37  4.62  4.44
Si -3.51  1.49 -9.00
Si  3.53 -8.97 -1.71
Si -3.03 -7.47 -5.59
Si  9.08  3.79  0.12
Si -5.14 -5.31 -6.50
Si -2.31  8.81  3.77
Si  5.96  7.69  1.71
Si -7.95  2.46  5.36
Si -6.59 -5.91 -4.44
Si  0.37 -8.73  4.68
Si  6.11 -7.58 -1.94
Si  6.88 -0.16  7.18
Si  2.40  9.25  2.85
Si -3.01 -6.25 -7.18
Si -4.93  4.97  7.18
Si -5.40  1.41  8.33
Si  9.62 -0.29 -2.85
Si -1.32 -6.67  7.42
Si -7.88 -5.17  3.53
Si  9.15 -3.84 -1.71
Si 10.04 -0.40  0.80
Si  3.95 -9.07  1.94
Si  1.71 -5.80 -8.09
Si  8.66  3.90 -3.53
Si  0.06 -0.08 -10.15
Si -7.44 -4.05  5.59
Si  4.23  4.45 -8.09
Si  1.21  1.94 -9.91
Si -3.16  9.02 -3.53
Si  6.10  4.94 -6.50
Si  6.54 -7.68  1.71
Si -8.78  3.90 -3.53
Si  0.72 -1.21 10.15
Si -4.49  4.45 -8.09
Si  1.70 -4.16  9.23
Si  6.98 -6.56  3.77
Si -0.15 10.30 -0.12
Si  8.22  2.78 -5.59
Si -3.60  7.90 -5.59
Si  4.28 -2.77  9.00
Si -5.65  2.43 -8.32
Si -4.44 -2.77  9.00
Si -6.55 -0.61  8.09
Si -4.77 -9.07  1.94
Si -0.44 -3.22  9.91
Si  9.14 -5.07 -0.12
Si -6.18  6.51 -5.36
Si -5.33 -6.22  6.50
Si -8.24 -0.18 -6.50
Si -5.19 -8.97 -1.71
Si -3.46 -5.73  8.09
Si  5.21  1.49 -9.00
Si  7.86 -3.12  6.26
Si -0.90 -8.41 -6.26
Si  9.57 -3.95  1.94
Si  1.56  9.46 -4.44
Si  0.22  6.53  8.33
Si  8.09  6.75  1.03
Si  2.23 -8.24  6.26
Si  3.85  9.85  0.80
Si  7.67  6.85 -2.62
Si -9.69 -0.78 -4.44
Si -3.54  1.90  9.91
Si -8.42 -1.10  6.50
Si  6.17 -2.69 -8.32
Si  8.72 -4.96 -3.77
Si -8.72 -4.96 -3.77
Si -7.48  7.24  2.62
Si  5.98  8.91  0.12
Si -1.20 -10.64  0.80
Si -10.00 -3.01  2.62
Si  3.52 -10.19 -0.12
Si  0.27 10.20  3.53
Si  3.11 -8.86 -5.36
Si -7.90  7.34 -1.03
Si  9.50  3.68  3.77
Si -10.42 -2.91 -1.03
Si -8.71 -3.74 -5.36
Si  8.73 -3.74 -5.36
Si  3.42  9.96 -2.85
Si -1.41 -0.26 10.82
Si -7.33 -8.03 -1.03
Si  5.69 -7.47 -5.59
Si  7.33 -0.68 -8.09
Si  5.12  7.90 -5.59
Si -6.91 -8.13  2.62
Si -4.87  9.85  0.80
Si -1.62 -10.54 -2.85
Si -0.57 10.41 -3.77
Si  2.19 -1.02 -10.82
Si  5.71 -6.25 -7.18
Si -9.22  2.78 -5.59
Si -2.38  3.92 10.15
Si -7.51  3.58  7.42
Si  6.41 -3.71  8.33
Si  9.48  2.46  5.36
Si  5.56  9.02 -3.53
Si  9.02 -1.10  6.50
Si -10.96  1.18  1.94
Si  3.10 -10.09 -3.77
Si 10.77  1.73 -2.62
Si  5.26 -5.73  8.09
Si -0.03  7.55 -8.32
Si  9.20 -0.18 -6.50
Si  4.30 -3.18 -9.91
Si  6.39  7.58  5.36
Si -6.62  5.39 -7.42
Si -4.42 -3.18 -9.91
Si  5.18  1.90  9.91
Si 11.19  1.62  1.03
Si  2.11  6.62 -9.00
Si 10.46 -0.50  4.44
Si -11.39  0.06 -0.12
Si  9.56 -5.17  3.53
Si  0.55 -7.82 -8.32
Si -5.20 -10.19 -0.12
Si  6.41  8.81  3.77
Si -10.97 -0.05  3.53
Si  4.27  9.74  4.44
Si -10.49  4.73  0.80
Si -6.54 -2.24 -9.23
Si -6.74  9.36 -0.80
Si -6.32  9.25  2.85
Si  2.82  9.15  6.50
Si -9.34  6.75  1.03
Si  3.94 -10.30  3.53
Si -3.07 -11.13 -0.80
Si -11.38  1.28 -1.71
Si -1.89  8.70  7.42
Si  0.28 11.42  1.94
Si -4.35 -9.18  5.59
Si -4.45  9.74  4.44
Si  4.37 -9.18  5.59
Si -0.90  4.11 -10.82
Si -7.46 -5.28  7.18
Si  0.93 -11.58  0.12
Si -5.29  9.96 -2.85
Si  8.24  4.00 -7.18
Si -0.14 11.53 -1.71
Si -0.78 -10.75  4.44
Si  1.63  3.47 11.06
Si -3.04  5.05 -10.15
Si  6.96 -7.79  5.36
Si -3.94  0.37 -11.06
Si  8.52  6.64  4.68
Si -5.61 -8.86 -5.36
Si  7.32  0.96  9.23
Si -7.05  7.13  6.26
Si  3.15 -5.20 -10.15
Si  4.22  6.09  9.23
Si  7.25  6.96 -6.26
Si -1.91  7.48  9.00
Si -9.58 -3.12  6.26
Si -3.99 -1.65 11.06
Si -4.78 -10.30  3.53
Si -1.81 -0.57 -11.74
Si -2.65 -11.24  2.85
Si -4.50  6.09  9.23
Si -10.07  4.62  4.44
Si -7.53  2.35  9.00
Si -10.54  1.07  5.59
Si  0.51 -11.47 -3.53
Si -7.75 -7.92 -4.68
Si  2.59 -0.71 11.74
Si -1.34 -7.89  9.00
Si  4.78  0.37 -11.06
Si -8.92  6.64  4.68
Si -0.85 -4.75 -11.06
Si  9.54  7.34 -1.03
Si  7.79  4.51  8.09
Si -8.32  7.45 -4.68
Si -10.85 -2.80 -4.68
Si  8.24 -8.52 -2.62
Si  8.29 -4.86 -7.42
Si  4.72 -1.65 11.06
Si 11.73 -2.45 -1.94
Si  9.99 -4.05  5.59
Si -5.62 -10.09 -3.77
Si -3.58  9.12 -7.18
Si  0.79 -8.84  8.33
Si -7.01 -5.80 -8.09
Si  1.69 -5.39 10.82
Si -9.77  6.85 -2.62
Si -6.48 -8.24  6.26
Si 10.35  1.83 -6.26
Si 12.18 -1.33  0.12
Si  8.66 -8.62  1.03
Si -10.91  4.83 -2.85
Si -3.45 -7.36 -9.23
Si -1.89  7.06 -9.91
Si -7.02 -4.16  9.23
Si  2.08  7.02  9.91
Si 11.76 -1.23 -3.53
Si -9.20  4.00 -7.18
Si -8.77 -8.62  1.03
Si  3.00 10.06 -6.50
Si  1.36 -11.69  3.77
Si -3.49 -11.03 -4.44
Si  0.69 10.09  7.18
Si -11.82  0.16 -3.77
Si -11.87 -3.50  1.03
Si  7.40 -6.67  7.42
Si  7.79  2.88 -9.23
Si -2.05 -10.43 -6.50
Si  1.68  5.50 -11.06
Si -3.72 11.87  1.03
Si  5.65 -11.13 -0.80
Si  2.65  2.54 -11.97
Si 12.16 -2.56  1.71
Si -0.51  4.41 11.74
Si  3.82 -6.33 10.15
Si  1.13  9.57 -8.09
Si  9.96  7.24  2.62
Si -7.51  1.94 -9.91
Si  4.21  4.86 10.82
Si  6.34  3.92 10.15
Si -2.97 -2.59 -11.97
Si 11.61  1.52  4.68
Si  3.74  1.30 11.97
Si  0.70 11.32  5.59
Si -10.88 -6.46  0.12
Si  9.12  7.45 -4.68
Si -7.16  9.46 -4.44
Si  5.68  5.05 -10.15
Si -5.90  9.15  6.50
Si -6.53 -1.02 -10.82
Si -5.57 -5.20 -10.15
Si -4.51  4.86 10.82
Si  5.14  9.12 -7.18
Si -1.89 -3.82 11.97
Si -2.28 12.46 -1.03
Si  2.67 -9.98 -7.42
Si -9.14 -4.86 -7.42
Si -10.55 -0.16  7.18
Si 11.66  5.18 -0.12
Si -1.86 12.36  2.62
Si  8.31 -3.63 -9.00
Si 11.27 -6.01 -0.80
Si -9.19 -8.52 -2.62
Si -0.56 11.63 -5.36
Si 11.31 -2.35 -5.59
Si  2.69 -8.75 -9.00
Si  0.49 -12.70 -1.94
Si -4.02  8.01 -9.23
Si 12.63  2.22 -1.03
Si -11.45 -3.61  4.68
Si  9.92  3.58  7.42
Si -1.00 10.51 -7.42
Si -3.43 -6.14 -10.82
Si -10.46 -6.56  3.77
Si  5.00 11.87  1.03
Si -4.90 -6.33 10.15
Si  5.27 -7.36 -9.23
Si -4.14 11.97 -2.62
Si -0.98  0.86 12.88
Si  1.61  2.25 12.65
Si 10.11 -8.03 -1.03
Si  0.91 -12.80  1.71
Si -11.94  4.13  2.85
Si -8.35 -8.73  4.68
Si -10.11 -0.68 -8.09
Si -8.00 -1.21 10.15
Si 11.24  5.29 -3.77
Si -6.61  6.62 -9.00
Si  5.22 -11.03 -4.44
Si -1.32 -8.31 -9.91
Si -0.90 -6.78 11.06
Si -12.29 -3.40 -2.62
Si  7.09 -10.54 -2.85
Si -4.98  1.30 11.97
Si -11.80  1.39 -5.36
Si  7.51 -10.64  0.80
Si  7.31 -0.26 10.82
Si -3.30 11.76  4.68
Si  7.82 -8.41 -6.26
Si  4.57 11.97 -2.62
Si  6.07 -11.24  2.85
Si -12.36  4.24 -0.80
Si  4.70  8.01 -9.23
Si  1.28 -5.69 -11.74
Si 10.85 -5.91 -4.44
Si  3.81  4.55 -11.74
Si -0.83 -3.52 -12.65
Si  1.75 -2.13 -12.88
Si -4.03  9.64  8.09
Si  2.66 -8.35  9.91
Si 12.60 -1.44  3.77
Si  2.87 12.81  1.71
Si -6.13 -0.71 11.74
Si -2.23 -11.35  6.50
Si -5.71 10.06 -6.50
Si 12.21  2.32 -4.68
Si  2.44 12.92 -1.94
Si -1.34  2.99 -12.88
Si  8.28 -3.22  9.91
Si  6.83  8.70  7.42
Si -9.13 -3.63 -9.00
Si -8.66 -0.08 -10.15
Si -3.93  1.60 -12.65
Si  9.69 -7.92 -4.68
Si -4.36 -10.40  7.18
Si  4.36 -10.40  7.18
Si -9.65  4.51  8.09
Si  9.98 -5.28  7.18
Si  8.57 10.30 -0.12
Si  8.77 -0.08 -10.15
Si 11.68  6.41 -1.71
Si  4.69  9.64  8.09
Si -11.30 -6.35 -3.53
