500
set: 441.00  0.00  0.00
Si -0.04 -0.01  0.02
Si  1.77  1.08  0.75
Si  0.10 -0.09 -2.22
Si -1.83  1.11  0.69
Si  0.01 -2.12  0.76
Si -1.70  1.00  2.97
Si  0.03  2.03 -2.94
Si  1.80 -3.11 -0.08
Si -1.83 -3.10  0.02
Si -1.77 -1.00 -2.98
Si  3.62  0.09  0.06
Si -3.65  0.09  0.06
Si  1.86  1.09  2.95
Si  1.80  3.19  0.02
Si -1.84  3.18 -0.08
Si  0.03 -2.17  2.99
Si  1.93 -1.09 -2.97
Si -3.57 -0.05 -2.15
Si  3.58 -2.02  0.74
Si -1.84 -3.09 -2.22
Si -1.86 -1.13  3.63
Si  1.80 -0.99  3.71
Si -1.86  3.06 -2.30
Si -3.69 -2.02  0.74
Si  3.69 -0.05 -2.15
Si  1.80  3.20 -2.22
Si  0.06  2.05  3.79
Si -0.06  4.27  0.74
Si  1.77 -3.23 -2.30
Si  3.54  2.02 -2.98
Si -0.09  4.12  2.96
Si  3.54 -2.17  2.96
Si -3.72  2.02 -2.98
Si -0.09 -4.27 -2.98
Si -3.72 -2.17  2.96
Si -3.53  2.00  3.71
Si  1.80 -5.18  0.69
Si  0.01  2.07 -5.17
Si -3.62  4.17  0.76
Si -1.86 -5.21  0.75
Si  3.64  4.17  0.76
Si  5.43  1.11  0.69
Si -1.86 -1.02 -5.18
Si  1.80 -0.99 -5.24
Si  3.73  2.00  3.71
Si -5.49  1.08  0.75
Si  0.10 -4.29  3.71
Si -0.01 -6.20  0.06
Si -5.33 -1.09 -2.97
Si -0.01 -2.00 -5.87
Si -1.84 -1.01  5.85
Si -1.70  5.20 -2.97
Si -1.77 -5.20  2.95
Si -3.60  4.12  2.99
Si -5.41  1.09  2.95
Si  5.43 -3.10  0.02
Si  3.67  4.12  2.99
Si -1.83  1.10 -5.92
Si -5.47 -3.11 -0.08
Si  5.43  3.18 -0.08
Si  1.80 -1.00  5.95
Si -3.60 -4.26 -2.94
Si -5.46  3.19  0.02
Si  5.49 -1.00 -2.98
Si  3.67 -4.26 -2.94
Si  1.86  5.29 -2.98
Si  1.93 -5.29  2.97
Si  1.80  1.08 -6.01
Si -0.01  2.19  5.99
Si  5.56  1.00  2.97
Si -0.01  6.38  0.06
Si  1.77  5.16  3.63
Si  0.06  6.25 -2.15
Si  5.40 -1.13  3.63
Si  5.40  3.06 -2.30
Si  5.43 -3.09 -2.22
Si -0.06 -4.12 -5.20
Si -0.06  0.08  6.67
Si  3.58  2.18 -5.20
Si -5.47 -0.99  3.71
Si  0.06 -6.34 -2.15
Si -3.57 -4.24  3.79
Si -5.47  3.20 -2.22
Si -1.84  5.30  3.71
Si -3.69  2.18 -5.20
Si -5.50 -3.23 -2.30
Si  3.69 -4.24  3.79
Si  7.23 -0.01  0.02
Si  3.60  6.28  0.02
Si  3.60 -2.11 -5.92
Si -0.04  4.18 -5.92
Si  3.60  2.08  5.95
Si  3.60 -6.31  0.02
Si -3.67  6.28  0.02
Si -3.67 -2.11 -5.92
Si -0.04 -4.21  5.95
Si -3.67  2.08  5.95
Si -3.67 -6.31  0.02
Si -7.30 -0.01  0.02
Si -3.53  6.20 -2.22
Si -7.17 -0.09 -2.22
Si -1.83 -3.08  6.63
Si  5.41 -5.21  0.75
Si  5.41 -1.02 -5.18
Si -5.46 -5.18  0.69
Si  3.73  6.20 -2.22
Si  1.80  3.21  6.63
Si  1.77 -3.12  6.68
Si -3.62 -4.22 -5.17
Si -7.26 -2.12  0.76
Si  3.64 -4.22 -5.17
Si  1.77  5.27 -5.18
Si -3.62 -0.03  6.70
Si  7.27 -2.12  0.76
Si  3.64 -0.03  6.70
Si -1.86  3.18  6.68
Si -3.53 -6.38 -2.22
Si -5.46 -0.99 -5.24
Si -1.86  7.37  0.75
Si  1.80  7.40  0.69
Si -1.83  5.30 -5.24
Si  7.37 -0.09 -2.22
Si  3.73 -6.38 -2.22
Si  5.43 -1.01  5.85
Si -7.23  2.03 -2.94
Si -5.33 -5.29  2.97
Si  1.80 -5.19 -5.92
Si  1.80  5.28  5.85
Si  1.86 -7.30 -2.98
Si  5.43  1.10 -5.92
Si  1.93  7.30  2.97
Si  3.62 -4.10  5.99
Si  5.49 -5.20  2.95
Si -7.23 -2.17  2.99
Si  3.62  4.29 -5.87
Si -3.65 -4.10  5.99
Si  7.30  2.03 -2.94
Si -5.41  5.29 -2.98
Si -3.65  4.29 -5.87
Si -5.46 -1.00  5.95
Si -1.70 -7.39 -2.97
Si -1.77  7.38  2.95
Si -1.84 -5.21 -6.01
Si -1.83  5.29  5.95
Si  5.56  5.20 -2.97
Si  7.30 -2.17  2.99
Si -5.47  1.08 -6.01
Si -0.06 -8.31  0.74
Si  0.06 -2.15 -8.08
Si -5.50  5.16  3.63
Si -1.84 -7.28  3.71
Si -7.21  2.05  3.79
Si  7.21  4.27  0.74
Si -1.84  1.11 -8.15
Si  5.43  5.30  3.71
Si  1.77 -7.42  3.63
Si  1.77  0.97 -8.23
Si  7.32  2.05  3.79
Si -7.32  4.27  0.74
Si  7.17  4.12  2.96
Si -0.09  8.32 -2.98
Si  7.17 -4.27 -2.98
Si -0.09 -0.07  8.89
Si -0.09 -0.07 -8.91
Si -7.36  4.12  2.96
Si -0.09 -8.46  2.96
Si -7.36 -4.27 -2.98
Si  0.10  8.30  3.71
Si  5.43 -3.08  6.63
Si  0.10  4.10 -8.15
Si  9.04  1.08  0.75
Si  1.77 -7.31 -5.18
Si -7.17 -4.29  3.71
Si -7.26  2.07 -5.17
Si -1.83 -7.28 -5.24
Si -3.53 -2.19 -8.15
Si  7.27  2.07 -5.17
Si  5.41  3.18  6.68
Si -5.46  3.21  6.63
Si  5.41  7.37  0.75
Si  0.01  6.27  6.70
Si -9.10  1.11  0.69
Si -5.49 -3.12  6.68
Si -3.62 -8.41  0.76
Si  3.64 -8.41  0.76
Si  0.01 -6.32  6.70
Si -5.49  5.27 -5.18
Si  5.43  5.30 -5.24
Si -5.46  7.40  0.69
Si  3.73 -2.19 -8.15
Si  7.37 -4.29  3.71
Si -8.97  1.00  2.97
Si -5.33  7.30  2.97
Si -3.60  8.32 -2.94
Si  1.80 -7.31  5.85
Si  7.25 -6.20  0.06
Si  7.25 -2.00 -5.87
Si  3.67  8.32 -2.94
Si -5.40 -7.30 -2.98
Si  1.80 -9.39  0.02
Si -7.28 -6.20  0.06
Si -7.28 -2.00 -5.87
Si -9.04 -1.00 -2.98
Si -3.60 -0.07 -8.87
Si -1.84 -9.40 -0.08
Si  9.06 -3.11 -0.08
Si -5.46 -5.19 -5.92
Si -1.83 -7.29  5.95
Si  1.86 -3.10  8.88
Si -5.47  5.28  5.85
Si  3.67 -0.07 -8.87
Si -1.77  3.19  8.88
Si -1.70 -3.19 -8.90
Si -1.70 -3.19  8.90
Si -9.10 -3.10  0.02
Si  9.07  3.19  0.02
Si  1.93  3.10 -8.90
Si  1.93  3.10  8.90
Si  1.86 -3.10 -8.92
Si -3.60 -0.07  8.93
Si  5.43 -5.21 -6.01
Si -1.77  3.19 -8.92
Si  1.80  7.39 -5.92
Si  5.43  5.29  5.95
Si -9.10  3.18 -0.08
Si  1.80  9.47 -0.08
Si  3.67 -0.07  8.93
Si  9.13  1.09  2.95
Si  7.25  2.19  5.99
Si -1.83  9.49  0.02
Si  7.25  6.38  0.06
Si  5.49  7.38  2.95
Si -3.60 -8.46  2.99
Si -7.28  2.19  5.99
Si -7.28  6.38  0.06
Si -1.84  7.38 -6.01
Si  3.67 -8.46  2.99
Si  5.56 -7.39 -2.97
Si  9.20 -1.09 -2.97
Si -3.57  4.15 -8.08
Si  1.77  0.97  9.56
Si -7.21  6.25 -2.15
Si  3.58 -6.21  6.67
Si  7.21 -4.12 -5.20
Si  1.77  9.36 -2.30
Si  3.69  4.15 -8.08
Si  1.80 -9.38 -2.22
Si  5.43 -7.28  3.71
Si  7.21  0.08  6.67
Si  1.80 -5.18 -8.15
Si -3.57  8.34  3.79
Si -3.69 -6.21  6.67
Si -7.21 -6.34 -2.15
Si  9.06 -0.99  3.71
Si  5.43  1.11 -8.15
Si  7.32  6.25 -2.15
Si  9.06  3.20 -2.22
Si -9.10 -3.09 -2.22
Si  9.04 -3.23 -2.30
Si  3.69  8.34  3.79
Si -7.32 -4.12 -5.20
Si -1.84  1.11  9.65
Si -9.13 -1.13  3.63
Si  3.58  6.37  6.67
Si -9.13  3.06 -2.30
Si -7.32  0.08  6.67
Si  7.32 -6.34 -2.15
Si -1.84  9.50 -2.22
Si -5.50 -7.42  3.63
Si -3.69  6.37  6.67
Si -0.06  8.47 -5.20
Si -5.50  0.97 -8.23
Si  0.06 -2.15  9.72
Si -1.86 -9.52 -2.30
Si -1.86 -5.33 -8.23
Si  7.23  4.18 -5.92
Si  7.23 -4.21  5.95
Si -0.04  8.38  5.95
Si -0.04 -8.40 -5.92
Si -7.30  4.18 -5.92
Si -7.30 -4.21  5.95
Si  9.07 -5.18  0.69
Si  0.10  4.10  9.64
Si -3.62  8.37 -5.17
Si  3.64  8.37 -5.17
Si  5.43 -7.28 -5.24
Si  0.01 10.46  0.76
Si -3.53 -2.19  9.64
Si -5.49 -7.31 -5.18
Si  9.07 -0.99 -5.24
Si -9.13 -5.21  0.75
Si -9.13 -1.02 -5.18
Si  3.73 -2.19  9.64
Si -8.97  5.20 -2.97
Si  3.62 -8.30 -5.87
Si -3.65 -8.30 -5.87
Si -5.33  3.10 -8.90
Si -5.33  3.10  8.90
Si  0.03  6.22 -8.87
Si -9.04 -5.20  2.95
Si  0.03 10.42  2.99
Si -5.47 -7.31  5.85
Si -5.41 -3.10  8.88
Si  5.43 -9.40 -0.08
Si -5.46 -9.39  0.02
Si  5.43 -7.29  5.95
Si -9.10 -1.01  5.85
Si -5.40 -3.10 -8.92
Si  0.03  6.22  8.93
Si 10.88  0.09  0.06
Si  9.07 -1.00  5.95
Si -9.10  1.10 -5.92
Si -10.91  0.09  0.06
Si  0.03 -6.36 -8.87
Si  5.49  3.19  8.88
Si  9.06  1.08 -6.01
Si -5.46  7.39 -5.92
Si  5.43  9.49  0.02
Si -5.47  9.47 -0.08
Si  5.49  3.19 -8.92
Si  5.43  7.38 -6.01
Si  0.03 -10.56 -2.94
Si  9.13  5.29 -2.98
Si  0.03 -6.36  8.93
Si  5.56 -3.19 -8.90
Si  5.56 -3.19  8.90
Si  3.62  8.48  5.99
Si -3.65  8.48  5.99
Si  9.20 -5.29  2.97
Si  9.04  5.16  3.63
Si  7.21 -8.31  0.74
Si -7.21 -2.15 -8.08
Si -10.84 -0.05 -2.15
Si 10.84 -2.02  0.74
Si -5.50  0.97  9.56
Si -5.47 -9.38 -2.22
Si -5.50  9.36 -2.30
Si  1.80 -5.18  9.65
Si -5.47 -5.18 -8.15
Si -7.32 -8.31  0.74
Si -1.86 -5.33  9.56
Si  7.32 -2.15 -8.08
Si  5.43  1.11  9.65
Si -0.06  0.08 -11.13
Si -1.86  7.26 -8.23
Si  1.80  7.40 -8.15
Si -3.57  4.15  9.72
Si  5.43  9.50 -2.22
Si -10.96 -2.02  0.74
Si 10.96 -0.05 -2.15
Si -9.10  5.30  3.71
Si  3.58 10.57  0.74
Si  5.40 -9.52 -2.30
Si  3.69  4.15  9.72
Si  0.06 -10.53  3.79
Si  5.40 -5.33 -8.23
Si -3.69 10.57  0.74
Si  7.17  8.32 -2.98
Si  3.54 10.41  2.96
Si 10.81  2.02 -2.98
Si  3.54  6.22  8.89
Si 10.81 -2.17  2.96
Si  7.17 -0.07  8.89
Si  3.54  6.22 -8.91
Si  7.17 -0.07 -8.91
Si -3.72 10.41  2.96
Si -3.72  6.22  8.89
Si  7.17 -8.46  2.96
Si -3.72  6.22 -8.91
Si  3.54 -6.36  8.89
Si -7.36  8.32 -2.98
Si  3.54 -6.36 -8.91
Si  3.54 -10.56 -2.98
Si -7.36 -0.07  8.89
Si -3.72 -6.36  8.89
Si -7.36 -0.07 -8.91
Si -10.99  2.02 -2.98
Si -3.72 -6.36 -8.91
Si -7.17  8.30  3.71
Si -10.99 -2.17  2.96
Si -3.72 -10.56 -2.98
Si -10.80  2.00  3.71
Si -7.36 -8.46  2.96
Si -7.17  4.10 -8.15
Si  1.80 -9.38  6.63
Si -1.83 -11.47  0.69
Si  9.04 -3.12  6.68
Si  1.77 -11.51  0.75
Si -9.10 -3.08  6.63
Si  9.04  5.27 -5.18
Si -3.62 -0.03 -11.10
Si  9.07  3.21  6.63
Si  1.77 -3.12 -11.12
Si  3.64 -0.03 -11.10
Si -10.89  4.17  0.76
Si -1.86 -9.41  6.68
Si -7.26  6.27  6.70
Si  7.37  8.30  3.71
Si 10.91  4.17  0.76
Si  7.27  6.27  6.70
Si -1.86  3.18 -11.12
Si  0.01 -10.51 -5.17
Si  1.77  9.47  6.68
Si -7.26 -6.32  6.70
Si  9.07  7.40  0.69
Si -1.83  9.50  6.63
Si  7.37  4.10 -8.15
Si  7.27 -6.32  6.70
Si -1.83 -3.08 -11.17
Si -9.13  3.18  6.68
Si -3.53 -10.58  3.71
Si -9.13  7.37  0.75
Si  1.80  3.21 -11.17
Si -9.10  5.30 -5.24
Si  0.10 -8.48 -8.15
Si 11.00  2.00  3.71
Si  3.73 -10.58  3.71
Si  1.80  1.08 11.79
Si -8.97 -7.39 -2.97
Si -0.01 -10.39  5.99
Si -10.86  4.12  2.99
Si -0.01  2.19 -11.80
Si  9.07 -5.19 -5.92
Si  1.86 -11.49  2.95
Si  9.06  5.28  5.85
Si  1.93 11.49 -2.97
Si  1.80 -1.00 -11.85
Si -10.86 -4.26 -2.94
Si -9.04  7.38  2.95
Si  9.13 -7.30 -2.98
Si 10.93  4.12  2.99
Si -1.83  1.10 11.88
Si -1.70 -11.58  2.97
Si -1.77 11.58 -2.98
Si -9.10 -5.21 -6.01
Si -9.10  5.29  5.95
Si -0.01 -2.00 11.92
Si 10.93 -4.26 -2.94
Si -0.01 10.58 -5.87
Si  9.20  7.30  2.97
Si -1.84 -1.01 -11.94
Si -1.86  7.26  9.56
Si -1.86 11.45  3.63
Si  3.58 -10.41 -5.20
Si -3.69 -10.41 -5.20
Si  5.40 -5.33  9.56
Si -3.57 -8.44 -8.08
Si 10.84  2.18 -5.20
Si  5.40  7.26 -8.23
Si -9.10 -7.28  3.71
Si -10.84 -4.24  3.79
Si -5.47 -5.18  9.65
Si  9.04 -7.42  3.63
Si  3.69 -8.44 -8.08
Si  9.04  0.97 -8.23
Si -9.10  1.11 -8.15
Si  7.21  8.47 -5.20
Si -7.21 -2.15  9.72
Si  1.80  7.40  9.65
Si -5.47  7.40 -8.15
Si  1.80 11.59  3.71
Si -10.96  2.18 -5.20
Si -7.32  8.47 -5.20
Si 10.96 -4.24  3.79
Si  7.32 -2.15  9.72
Si 10.86  6.28  0.02
Si 10.86 -2.11 -5.92
Si  3.60 10.47 -5.92
Si  3.60  2.08 -11.85
Si 10.86  2.08  5.95
Si 10.86 -6.31  0.02
Si  7.23  8.38  5.95
Si  7.23 -8.40 -5.92
Si -0.04 12.57  0.02
Si -0.04 -4.21 -11.85
Si -3.67 10.47 -5.92
Si -3.67  2.08 -11.85
Si  3.60 -2.11 11.88
Si  3.60 -10.50  5.95
Si -0.04  4.18 11.88
Si -0.04 -12.60  0.02
Si -7.30  8.38  5.95
Si -7.30 -8.40 -5.92
Si -10.93  6.28  0.02
Si -10.93 -2.11 -5.92
Si -3.67 -2.11 11.88
Si -3.67 -10.50  5.95
Si -10.93  2.08  5.95
Si -10.93 -6.31  0.02
Si -10.80  6.20 -2.22
Si  0.10 12.49 -2.22
Si -7.17  4.10  9.64
Si  5.43 -11.47  0.69
Si -5.46 -9.38  6.63
Si  1.80 -0.99 12.56
Si  9.04 -7.31 -5.18
Si -10.80 -6.38 -2.22
Si  5.41 -9.41  6.68
Si  0.01  6.27 -11.10
Si -7.26 10.46  0.76
