500
set: 913.00  0.00  0.00
Si  0.44 -1.13  0.81
Si -0.42  1.19 -0.81
Si -1.35 -1.18 -0.81
Si  1.36  1.18  0.83
Si  0.87 -0.06 -2.45
Si -2.17  1.18  0.83
Si -0.87  0.02  2.50
Si  2.23 -1.19 -0.85
Si  3.04  1.12 -0.84
Si -0.01 -2.31 -2.46
Si  0.01  2.35  2.42
Si -3.16 -1.20  0.81
Si -2.62 -0.02 -2.47
Si  2.63  0.01  2.46
Si  0.47  3.51 -0.79
Si -0.51 -3.49  0.87
Si  1.23 -3.49 -0.80
Si -1.82 -2.30  2.43
Si -1.76  2.32 -2.50
Si -1.25  3.55  0.83
Si  1.75 -2.36  2.54
Si  1.79  2.40 -2.49
Si -3.89  1.21 -0.84
Si  0.85 -0.02  4.08
Si  3.94 -1.16  0.80
Si -0.89 -0.05 -4.11
Si -2.25 -3.55 -0.79
Si  2.21  3.57  0.87
Si  3.02 -3.51  0.80
Si -0.03 -2.38  4.07
Si  0.03  2.38 -4.07
Si -3.07  3.52 -0.85
Si  2.65  0.06 -4.05
Si -2.62  0.03  4.08
Si -3.46  2.36  2.45
Si  3.51  2.36  2.43
Si -3.50 -2.36 -2.47
Si  3.50 -2.35 -2.49
Si -4.36  0.00  2.42
Si -1.80 -2.33 -4.06
Si  1.80  2.32  4.08
Si -1.74  2.37  4.09
Si  1.74 -2.43 -4.09
Si  4.44 -0.00 -2.44
Si  4.88  1.18  0.82
Si -4.88 -1.25 -0.79
Si  0.79 -4.70  2.43
Si -0.93 -4.66 -2.49
Si -3.98 -3.51  0.83
Si -0.78  4.70 -2.47
Si  3.95  3.57 -0.80
Si  0.90  4.76  2.43
Si -5.64  1.18  0.82
Si  5.64 -1.25 -0.79
Si  2.52 -4.68 -2.42
Si -3.47  2.35 -4.12
Si  0.45 -1.21 -5.74
Si -2.54  4.70  2.48
Si -0.44  1.20  5.76
Si -3.51 -2.37  4.12
Si  3.51  2.35 -4.14
Si  3.50 -2.38  4.14
Si -0.44  5.86  0.81
Si -2.71 -4.71  2.42
Si  4.74 -3.54 -0.85
Si -4.37 -0.05 -4.10
Si  4.38 -0.02  4.09
Si  2.71  4.75 -2.46
Si  0.32 -5.94 -0.84
Si -1.33 -1.15  5.75
Si -4.79  3.55  0.80
Si  1.33  1.15 -5.75
Si -1.35 -5.88  0.83
Si  1.37  5.88 -0.81
Si  2.15 -1.18  5.68
Si -2.15  1.16 -5.70
Si  5.24  2.38 -2.42
Si -2.16  5.81 -0.79
Si  5.26 -2.36  2.48
Si -5.29  2.38 -2.42
Si -5.26 -2.36  2.48
Si -0.79  4.69  4.12
Si  0.92  4.73 -4.06
Si  0.79 -4.71 -4.14
Si  2.16 -5.88  0.82
Si -0.92 -4.74  4.08
Si -6.08 -0.00 -2.44
Si  3.10  1.10  5.73
Si -3.10 -1.17 -5.72
Si  6.17  0.00  2.42
Si  0.47  3.48  5.71
Si -3.14 -5.88 -0.81
Si  2.57 -4.64  4.11
Si -6.58 -1.16  0.80
Si -2.57  4.71 -4.08
Si -2.69 -4.68 -4.07
Si  2.69  4.68  4.07
Si  3.16  5.93  0.81
Si -0.51 -3.55 -5.74
Si  5.74  3.55  0.80
Si  6.63  1.21 -0.84
Si -5.79 -3.54 -0.85
Si -4.31  4.71 -2.49
Si  4.34 -4.70  2.45
Si  1.29 -3.47  5.77
Si -1.26  3.56 -5.74
Si  4.47  4.70  2.54
Si -4.48 -4.74 -2.50
Si  3.93 -1.11 -5.71
Si  5.23 -2.35 -4.08
Si -3.93  1.18  5.74
Si -5.23  2.42  4.11
Si -5.29 -2.35 -4.08
Si  2.21  3.51 -5.74
Si  3.91 -5.85 -0.84
Si -3.86  5.91  0.80
Si -2.25 -3.58  5.71
Si  5.29  2.42  4.11
Si -3.01  3.48  5.72
Si -6.14 -0.02  4.09
Si  3.02 -3.55 -5.73
Si  6.16 -0.05 -4.10
Si  0.43 -1.13  7.33
Si  0.10  7.04 -2.47
Si -0.09 -7.05  2.46
Si  6.55 -3.51  0.83
Si  7.36 -1.20  0.81
Si -0.46  1.23 -7.39
Si -6.58  3.57 -0.80
Si  4.86  1.15 -5.68
Si -4.83 -1.18  5.71
Si  1.35  1.22  7.36
Si -4.30  4.68  4.14
Si  4.33 -4.71 -4.12
Si -1.35 -1.18 -7.40
Si -7.48  1.12 -0.84
Si  4.46  4.63 -4.09
Si -1.64  7.06  2.42
Si -4.46 -4.70  4.09
Si  1.72 -7.06 -2.44
Si -4.88 -5.88  0.83
Si  4.95  5.87 -0.85
Si  1.85  7.08  2.50
Si -2.14  1.17  7.35
Si -1.85 -7.12 -2.45
Si -7.01  2.36  2.43
Si  2.15 -1.17 -7.39
Si  7.02 -2.36 -2.47
Si -3.98 -3.50 -5.74
Si -7.03 -2.35 -2.49
Si  7.06  2.36  2.45
Si  4.01  3.59  5.77
Si  3.11  1.17 -7.28
Si -3.12 -1.21  7.32
Si -6.05  4.70  2.54
Si  6.04 -4.74 -2.50
Si -0.07 -7.00 -4.05
Si -5.66  1.15 -5.68
Si -5.58  5.87 -0.85
Si -6.18 -4.70  2.45
Si  5.69 -1.18  5.71
Si  0.49  3.55 -7.32
Si  0.10  7.08  4.08
Si  6.22  4.71 -2.49
Si  5.64 -5.88  0.83
Si -3.36  7.06 -2.44
Si -0.49 -3.59  7.37
Si  3.45 -7.06  2.42
Si -0.38  5.89 -5.72
Si  3.59  7.00 -2.45
Si -1.26  3.51  7.35
Si -4.78  3.51 -5.73
Si  1.27 -3.52 -7.36
Si -7.89  0.01  2.46
Si  0.38 -5.96  5.73
Si  4.80 -3.58  5.72
Si  7.91 -0.02 -2.47
Si -1.65  7.01 -4.10
Si  7.46  3.52 -0.85
Si -3.59 -7.04  2.50
Si  0.56  8.24  0.83
Si -0.49 -8.25 -0.85
Si -7.51 -3.51  0.80
Si  1.83  7.01 -4.11
Si  1.66 -7.08  4.09
Si  1.22 -8.21  0.80
Si -1.39 -5.91 -5.75
Si  1.39  5.91  5.75
Si -1.87 -7.08  4.08
Si -3.90  1.17 -7.34
Si -1.17  8.27 -0.84
Si -2.23 -3.51 -7.32
Si -8.30 -1.19 -0.85
Si  3.88 -1.15  7.40
Si  2.23  3.47  7.37
Si -2.11  5.88  5.71
Si  2.14 -5.91 -5.68
Si  7.01 -2.37  4.12
Si -7.01  2.35 -4.14
Si  8.36  1.18  0.83
Si -7.02 -2.38  4.14
Si  7.05  2.35 -4.12
Si -2.28 -8.19  0.81
Si  2.30  8.24 -0.81
Si -6.07  4.63 -4.09
Si  6.06 -4.70  4.09
Si -3.00  3.53 -7.40
Si  3.08 -3.53  7.38
Si -2.92  8.24  0.82
Si  3.17  5.85 -5.74
Si -6.59 -1.11 -5.71
Si -6.19 -4.71 -4.12
Si -3.16 -5.86  5.76
Si  6.22  4.68  4.14
Si  6.59  1.18  5.74
Si -3.42  7.04  4.09
Si  5.74  3.51 -5.73
Si  2.92 -8.31 -0.79
Si -5.72 -3.58  5.72
Si -7.88  0.06 -4.05
Si  4.86  1.18  7.33
Si -6.61 -5.85 -0.84
Si  3.57  7.04  4.08
Si -4.82 -1.17 -7.37
Si  7.91  0.03  4.08
Si  3.44 -7.11 -4.10
Si  6.66  5.91  0.80
Si -3.61 -7.11 -4.11
Si  0.85  0.04 -8.95
Si  8.27 -3.55 -0.79
Si -0.89 -0.02  9.03
Si -3.98 -3.55  7.35
Si  3.87 -5.88  5.74
Si  3.99  3.54 -7.36
Si -8.32  3.57  0.87
Si -5.17  7.07  2.46
Si -3.88  5.95 -5.71
Si  5.18 -7.08 -2.47
Si  5.35  7.07  2.46
Si -5.34 -7.08 -2.47
Si -4.07 -8.24 -0.81
Si  4.08  8.24  0.83
Si -9.16  1.18  0.83
Si  9.18 -1.18 -0.81
Si  0.01 -2.35 -8.99
Si  0.01  2.35  9.01
Si  8.70 -2.30  2.43
Si -5.67  1.18  7.33
Si -2.62  0.02 -8.99
Si  0.39 -5.89 -7.28
Si  2.59  0.04  9.02
Si -0.40  5.85  7.32
Si  6.54 -3.50 -5.74
Si  5.70 -1.17 -7.37
Si -8.73  2.40 -2.49
Si  8.76  2.32 -2.50
Si -6.51  3.59  5.77
Si  7.81 -4.71  2.42
Si -8.78 -2.36  2.54
Si -4.72  3.53  7.38
Si  1.68 -2.41  8.98
Si -7.43  1.10  5.73
Si  7.42 -1.17 -5.72
Si -7.81  4.75 -2.46
Si  7.38 -5.88 -0.81
Si -1.78 -2.35  9.02
Si -1.80  2.33 -9.02
Si -1.37 -5.84  7.36
Si -7.36  5.93  0.81
Si  1.80  2.40 -9.01
Si  4.81 -3.53 -7.40
Si -4.76  8.18 -0.84
Si  4.64 -8.26  0.81
Si  4.87  5.88  5.68
Si -4.87 -5.90 -5.70
Si  1.37  5.88 -7.40
Si  7.98  4.70  2.48
Si -8.01 -4.68 -2.42
Si  2.14 -5.88  7.33
Si  5.18 -7.04  4.08
Si -2.10  5.89 -7.37
Si -5.16  7.12 -4.05
Si -5.34 -7.04  4.08
Si  0.96  9.38 -2.50
Si -0.74  9.42  2.45
Si  0.78 -9.41 -2.49
Si  5.37  7.12 -4.05
Si -0.97 -9.42  2.54
Si -8.72  2.32  4.08
Si  8.72 -2.33 -4.06
Si -3.18 -5.83 -7.39
Si -3.52 -2.35 -8.99
Si  3.59  2.34  8.97
Si  3.15  5.93  7.33
Si -5.65  5.88  5.68
Si  3.52 -2.35 -9.00
Si  6.62  1.17 -7.34
Si -3.52  2.28  9.03
Si  9.27  3.55  0.83
Si -9.65 -0.06 -2.45
Si  5.65 -5.90 -5.70
Si -9.30 -3.49 -0.80
Si  9.65  0.02  2.50
Si  8.78  2.37  4.09
Si -8.79 -2.43 -4.09
Si -5.72 -3.53 -7.40
Si -7.83  4.68  4.07
Si  7.84 -4.68 -4.07
Si -4.43 -0.01  8.97
Si -6.65 -1.15  7.40
Si  0.57  8.22 -5.70
Si -0.57 -8.23  5.68
Si  5.80  3.53  7.38
Si  4.38  0.02 -9.02
Si  5.76  8.18 -0.84
Si  1.21 -8.17 -5.71
Si -2.73 -9.37 -2.46
Si  7.52  3.48  5.72
Si  2.54 -9.42  2.48
Si -2.57  9.44 -2.42
Si -7.50 -3.55 -5.73
Si -7.95 -4.64  4.11
Si  2.73  9.41  2.42
Si  7.95  4.71 -4.08
Si -1.21  8.24  5.74
Si -6.93  7.00 -2.45
Si -5.88 -8.26  0.81
Si  0.87 -4.72  8.97
Si -0.81  4.71 -8.99
Si -10.08 -1.13  0.81
Si  3.90 -5.89 -7.34
Si -8.37 -1.18  5.68
Si -0.92 -4.66 -9.01
Si  8.37  1.16 -5.70
Si  6.93 -7.04  2.50
Si 10.10  1.19 -0.81
Si  8.36  5.81 -0.79
Si  0.94  4.71  9.02
Si -3.93  5.91  7.40
Si -8.36 -5.88  0.82
Si -7.08 -7.06  2.42
Si -0.75  9.41 -4.12
Si  0.98  9.43  4.09
Si -2.27 -8.27 -5.74
Si  2.28  8.26  5.76
Si  0.78 -9.44  4.14
Si  7.16  7.06 -2.44
Si -0.98 -9.49 -4.09
Si -2.94  8.21 -5.68
Si -7.42  1.17 -7.28
Si  2.97 -8.24  5.71
Si -6.53  3.54 -7.36
Si -2.53  4.74  8.98
Si  6.54 -3.55  7.35
Si  9.63 -0.05 -4.11
Si  7.40 -1.21  7.32
Si  2.58 -4.68 -9.02
Si -6.44  8.24  0.83
Si  6.46 -8.24 -0.81
Si -9.67 -0.02  4.08
Si  2.73  4.71 -8.99
Si -2.71 -4.71  9.01
Si  2.51 -9.41 -4.08
Si -6.65 -5.88  5.74
Si  6.65  5.95 -5.71
Si -4.86 -5.89  7.35
Si  0.30 -10.57  0.80
Si -0.35 10.58 -0.85
Si -2.52  9.48  4.11
Si -4.29  9.42  2.43
Si  4.87  5.89 -7.39
Si 10.01 -3.49  0.87
Si -2.75 -9.44  4.07
Si  2.75  9.44 -4.07
Si -0.89 -0.02 -10.61
Si  4.30 -9.42 -2.47
Si -5.25 -2.32  8.98
Si  5.27 -2.32  8.98
Si  8.28 -3.58  5.71
Si -10.06  3.51 -0.79
Si -1.49 -10.55 -0.80
Si -4.54 -9.36  2.43
Si -5.22  2.38 -9.02
Si -8.31  3.51 -5.74
Si -6.95  7.04  4.08
Si  0.85  0.04 10.69
Si  5.30  2.38 -9.02
Si  6.92 -7.11 -4.11
Si  1.46 10.61  0.83
Si  4.51  9.46 -2.49
Si  7.10  7.04  4.09
Si -4.05 -8.21  5.75
Si  4.05  8.21 -5.75
Si  2.02 -10.60 -0.85
Si -2.07 10.61  0.80
Si -7.08 -7.11 -4.10
Si  6.10 -0.01  8.97
Si  0.01  2.35 -10.63
Si -9.20  1.15 -5.75
Si  9.20 -1.15  5.75
Si -9.15  5.88 -0.81
Si  0.01 -2.35 10.65
Si -6.15  0.02 -9.02
Si  9.17 -5.88  0.83
Si  2.59  0.04 -10.62
Si  9.59 -4.66 -2.49
Si -2.62  0.02 10.65
Si  5.66 -5.89  7.35
Si -9.63  4.76  2.43
Si -5.65  5.89 -7.39
Si -7.36  5.85 -5.74
Si -4.28  4.71 -9.00
Si  4.40  4.65  8.98
Si -1.78 -2.35 -10.62
Si -1.80  2.33 10.62
Si -4.71  8.16  5.73
Si  7.37 -5.86  5.76
Si -10.94  1.19 -0.81
Si  1.80  2.40 10.62
Si 10.52 -2.31 -2.46
Si -10.52  2.35  2.42
Si  0.58  8.23  7.35
Si 10.96 -1.13  0.81
Si -7.44 -3.53  7.38
Si 10.53  2.35  2.42
Si -10.53 -2.31 -2.46
Si  1.68 -2.41 -10.66
Si  3.19 10.57 -0.79
Si -3.23 -10.55  0.87
Si  4.70 -8.22 -5.72
Si -9.73 -4.70  2.43
Si -0.57 -8.23 -7.39
Si  4.28 -4.78  9.03
Si -1.19  8.23 -7.34
Si  9.74  4.70 -2.47
Si  1.16 -8.21  7.40
Si  7.53  3.53 -7.40
Si -4.52 -4.73 -9.02
Si -4.29  9.41 -4.14
Si  4.29 -9.43  4.12
Si  4.52  9.38  4.08
Si -4.52 -9.39 -4.06
Si  8.38  1.17  7.35
Si -2.29 -8.19  7.33
Si -8.37 -1.17 -7.39
Si  7.60  8.24  0.82
Si  3.83 -10.57  0.83
Si -7.60 -8.31 -0.79
Si  2.26  8.29 -7.39
Si -3.86 10.63 -0.80
Si  5.98 -9.36  2.43
Si -3.52  2.28 -10.61
Si -2.95  8.24  7.33
Si -0.13 -7.02  9.02
Si -9.23 -3.47  5.77
Si  2.98 -8.23 -7.37
Si  0.10  7.08 -8.99
Si -9.60  4.73 -4.06
Si  3.52 -2.35 10.64
Si -3.52 -2.35 10.65
Si  9.61 -4.74  4.08
Si  9.26  3.56 -5.74
Si -8.68  7.08  2.50
Si -6.01  9.46 -2.49
Si  8.67 -7.12 -2.45
Si  4.38  0.02 10.62
Si  3.59  2.34 -10.67
Si -10.49  2.38 -4.07
Si 10.49 -2.38  4.07
Si -6.62 -5.89 -7.34
Si -1.87 -7.02 -8.95
Si -1.71  7.05  8.97
Si  6.60  5.91  7.40
Si  5.82  8.16  5.73
Si -8.80 -7.06 -2.44
Si  6.23  9.42  2.43
Si -4.43 -0.01 -10.67
Si -6.22 -9.42 -2.47
Si -10.55 -2.38  4.07
Si  9.73  4.69  4.12
Si 10.56  2.38 -4.07
Si 10.99  3.51 -0.79
Si  1.66 -7.04 -9.02
Si -9.73 -4.71 -4.14
Si -6.94  2.34  8.97
Si -5.82 -8.22 -5.72
Si  1.82  7.04  9.03
Si  8.29 -3.51 -7.32
Si  8.89  7.06  2.42
Si -11.04 -3.49  0.87
Si -8.29  3.47  7.37
Si  7.00 -2.35 -8.99
Si -0.92 -4.66 10.62
Si -7.00 -2.35 -9.00
Si  8.24 -8.19  0.81
Si  7.00  2.28  9.03
Si 11.39 -0.06 -2.45
Si -10.08 -1.21 -5.74
Si  0.94  4.71 -10.62
Si -11.40  0.02  2.50
