500
set: 1446.00  0.00  0.00
Si -0.72 -0.46 -0.14
Si  0.46  1.93  0.14
Si -0.58 -0.53  1.96
Si  1.91 -0.59 -1.13
Si  1.61  1.01  1.62
Si -1.89  0.47 -1.61
Si  2.18 -1.55  0.66
Si  0.31  2.01 -1.95
Si  0.87 -0.55 -2.92
Si -2.16  2.03  1.12
Si -1.39 -2.85 -0.66
Si -1.14  2.02  2.92
Si  0.59 -1.46  3.43
Si -2.45  3.02 -0.66
Si -2.85 -1.59  2.44
Si -1.11 -3.84  1.12
Si  1.77  0.93  3.72
Si  1.52 -3.94  0.14
Si -3.89 -1.55  0.66
Si -2.02  0.54 -3.72
Si  3.22 -1.59  2.44
Si -4.16 -0.59 -1.13
Si -2.41 -2.84 -2.46
Si  4.18  0.47 -1.61
Si  1.12  4.32  0.66
Si  0.21 -2.94 -3.44
Si  1.36 -3.86 -1.95
Si  3.90  2.03  1.12
Si -0.84  2.93 -3.44
Si  2.60  3.03 -2.46
Si  3.62  3.02 -0.66
Si  0.61  0.41 -4.71
Si -0.08 -3.85  2.92
Si -4.46  1.01  1.62
Si -0.86  1.03  4.70
Si -3.47  3.03 -2.46
Si  3.66 -2.84 -2.46
Si -2.69 -1.85 -4.23
Si  5.35 -0.46 -0.14
Si  2.16  4.28  2.44
Si  0.85  5.29 -1.13
Si  4.04  0.54 -3.72
Si  4.68 -2.85 -0.66
Si -2.59 -2.55  4.23
Si -0.47  4.41  3.43
Si -1.78  5.41 -0.14
Si -0.83 -5.40 -1.61
Si  3.38 -1.85 -4.23
Si -4.30  0.93  3.72
Si  2.67 -4.86  1.62
Si  0.72 -1.53  5.54
Si  5.48 -0.53  1.96
Si  2.42  3.32  4.23
Si -1.64  5.34  1.96
Si -5.61  1.93  0.14
Si  2.92  0.01  5.20
Si -5.20 -0.55 -2.92
Si -4.55 -3.94  0.14
Si  3.48 -2.55  4.23
Si  4.93  2.02  2.92
Si -0.19  5.33 -2.92
Si -3.15  0.01  5.20
Si  2.87  1.47 -5.19
Si -3.40 -4.86  1.62
Si  0.06 -2.86 -5.53
Si -3.19  1.47 -5.19
Si  2.32  4.02 -4.23
Si -3.91  4.28  2.44
Si  0.34 -6.33 -0.14
Si  4.96 -3.84  1.12
Si -1.00  3.02 -5.53
Si -4.70 -3.86 -1.95
Si -5.76  2.01 -1.95
Si -3.65  3.32  4.23
Si -0.43  0.45 -6.49
Si -0.96 -5.33 -3.72
Si  0.16  1.02  6.50
Si -4.95  4.32  0.66
Si -5.48 -1.46  3.43
Si  0.47 -6.41  1.96
Si  2.35 -1.84 -6.03
Si -1.55 -2.59  6.02
Si  0.20 -4.84  4.70
Si  2.83 -4.94  3.72
Si -6.79 -0.46 -0.14
Si  6.53  1.93  0.14
Si  5.22  2.93 -3.44
Si  4.29  5.41 -0.14
Si -3.75  4.02 -4.23
Si -6.65 -0.53  1.96
Si  6.37  2.01 -1.95
Si -3.24 -4.94  3.72
Si -0.34  4.34  5.54
Si  5.21  1.03  4.70
Si  0.55  6.88  1.62
Si -2.14 -4.40 -5.19
Si -2.95  6.34 -1.61
Si  2.97 -6.46 -1.13
Si  4.42  5.34  1.96
Si -5.46  0.41 -4.71
Si  3.12  6.34 -1.61
Si -3.10 -6.46 -1.13
Si  1.93 -6.42 -2.92
Si -3.72 -1.84 -6.03
Si -2.60  3.28  6.02
Si -1.09 -1.94 -7.01
Si  1.29  4.04 -6.03
Si -5.85 -2.94 -3.44
Si  1.66 -5.46 -4.71
Si -5.22  5.29 -1.13
Si  6.94 -0.55 -2.92
Si  6.66 -1.46  3.43
Si  1.89 -2.46  7.01
Si  3.46  3.28  6.02
Si  5.99 -3.85  2.92
Si  5.24 -5.40 -1.61
Si  6.28 -2.94 -3.44
Si  0.71  6.80  3.72
Si -6.15 -3.85  2.92
Si -0.60  7.81  0.14
Si  0.83  3.41  7.01
Si -5.35 -1.53  5.54
Si  3.93 -4.40 -5.19
Si -0.45  6.29 -4.71
Si -3.00 -0.07  7.29
Si  5.60  4.41  3.43
Si  3.07 -0.07  7.29
Si  7.68  1.01  1.62
Si  2.74  1.54 -7.29
Si  4.52 -2.59  6.02
Si -2.83 -7.42  0.66
Si  2.99  6.42 -3.72
Si -7.46 -2.85 -0.66
Si -3.08  6.42 -3.72
Si -7.21  2.02  2.92
Si -1.79 -7.46  2.44
Si  1.86  5.88  5.20
Si  7.98 -0.59 -1.13
Si  5.07  3.02 -5.53
Si -2.09 -5.86  5.20
Si  2.07 -0.85 -7.81
Si  3.23 -7.42  0.66
Si -7.96  0.47 -1.61
Si -0.75  7.89 -1.95
Si -3.33  1.54 -7.29
Si -4.14 -6.42 -2.92
Si  6.67  0.41 -4.71
Si  1.22 -4.86  6.50
Si -7.17 -3.84  1.12
Si -6.91  2.93 -3.44
Si  5.10 -5.33 -3.72
Si  1.65 -7.33  3.43
Si  0.45  0.03  8.27
Si -2.15  3.94 -7.01
Si  7.18  4.32  0.66
Si  8.24 -1.55  0.66
Si -6.93  1.03  4.70
Si -0.70  1.42 -8.28
Si -4.40 -5.46 -4.71
Si  5.88  5.33 -2.92
Si -2.34  2.32  7.81
Si  2.85  7.91  1.12
Si  0.62 -5.42 -6.49
Si -4.18 -2.46  7.01
Si -5.73 -6.33 -0.14
Si  7.59 -3.94  0.14
Si -8.23  2.03  1.12
Si -1.92  6.90  4.70
Si  7.43 -3.86 -1.95
Si -6.54  4.41  3.43
Si  5.63  0.45 -6.49
Si -3.22  7.91  1.12
Si -6.01 -2.86 -5.53
Si -1.28 -3.55  7.81
Si -4.78  4.04 -6.03
Si -2.20  7.89  2.92
Si -6.26  5.33 -2.92
Si  7.83  0.93  3.72
Si -5.59 -6.41  1.96
Si  6.13 -2.86 -5.53
Si -0.33 -8.72 -0.66
Si -2.27 -4.33 -7.29
Si  6.92  5.29 -1.13
Si  3.98 -5.86  5.20
Si -4.00 -0.85 -7.81
Si  4.98 -1.94 -7.01
Si -5.90  1.02  6.50
Si  6.79 -1.53  5.54
Si -4.21  5.88  5.20
Si -6.90 -5.40 -1.61
Si -8.09  0.54 -3.72
Si  4.28 -7.46  2.44
Si -5.87 -4.84  4.70
Si  3.92  3.94 -7.01
Si -1.63 -7.72 -4.23
Si  3.73  2.32  7.81
Si -5.51  6.88  1.62
Si  6.41 -6.33 -0.14
Si -1.85 -0.99  8.78
Si -8.51  3.02 -0.66
Si  6.23  1.02  6.50
Si  5.73  4.34  5.54
Si -1.35 -8.71 -2.46
Si  1.81  7.34 -5.19
Si -1.49  6.33 -6.49
Si -6.50  0.45 -6.49
Si  6.27 -4.84  4.70
Si -4.42 -7.33  3.43
Si  1.57  2.47 -8.76
Si  3.87  7.89  2.92
Si -8.48 -2.84 -2.46
Si  2.56  8.89 -0.66
Si  3.80 -4.33 -7.29
Si  4.15  6.90  4.70
Si  1.01  5.02 -7.81
Si  6.54 -6.41  1.96
Si  1.54  8.91 -2.46
Si -1.25 -1.86 -9.10
Si -8.92 -1.59  2.44
Si -5.23  3.41  7.01
Si  0.36 -4.46 -8.28
Si  1.78 -7.41  5.54
Si -5.36  6.80  3.72
Si -4.84 -4.86  6.50
Si -7.07  3.02 -5.53
Si  8.67  3.03 -2.46
Si -0.89  6.89  6.50
Si -6.41  4.34  5.54
Si -7.84  5.41 -0.14
Si  5.47  7.81  0.14
Si  2.01  5.80  7.29
Si  1.27 -8.81 -3.44
Si -1.53 -8.42  4.23
Si -7.03 -5.33 -3.72
Si -3.50  8.89 -0.66
Si -7.71  5.34  1.96
Si  8.23  4.28  2.44
Si -1.94 -5.94  7.29
Si -1.90  8.81 -3.44
Si  5.62  6.29 -4.71
Si  2.03 -2.54  9.11
Si  6.62  6.88  1.62
Si  1.05 -0.84 -9.61
Si  5.32  7.89 -1.95
Si  9.28 -1.59  2.44
Si  0.97  3.34  9.11
Si  2.63 -3.40 -8.76
Si -0.05 -9.71  1.12
Si  4.22 -0.99  8.78
Si  4.79 -3.55  7.81
Si  4.43 -7.72 -4.23
Si -8.76 -1.85 -4.23
Si -4.25  7.34 -5.19
Si -1.30  2.28  9.59
Si -8.66 -2.55  4.23
Si  5.37  1.42 -8.28
Si -5.62  0.03  8.27
Si -3.44 -3.40 -8.76
Si -7.62 -2.59  6.02
Si  8.49  3.32  4.23
Si -5.45 -5.42 -6.49
Si -9.96 -1.55  0.66
Si  8.74 -4.86  1.62
Si -2.66 -7.71 -6.03
Si  2.58 -9.81  0.14
Si  4.58  6.33 -6.49
Si -4.50  2.47 -8.76
Si -4.05  5.80  7.29
Si  9.69  3.02 -0.66
Si  1.47  0.02 10.07
Si -0.61  5.90  8.27
Si -4.29 -7.41  5.54
Si  0.98 -9.73  2.92
Si -7.16 -1.94 -7.01
Si  4.72 -8.71 -2.46
Si -6.52  6.29 -4.71
Si -2.30  4.02 -9.10
Si  1.36  9.20  4.23
Si  8.38  4.02 -4.23
Si  2.42 -9.73 -1.95
Si  0.06 10.20  0.66
Si  1.50 -5.84  8.27
Si  9.97  2.03  1.12
Si -0.24 -3.59  9.59
Si -6.67  7.81  0.14
Si  4.13 -5.94  7.29
Si -4.04 -2.54  9.11
Si -4.53  8.91 -2.46
Si  6.78  6.80  3.72
Si -10.22 -0.59 -1.13
Si -9.54  3.03 -2.46
Si -1.74  1.46 -10.07
Si  4.17  8.81 -3.44
Si  7.36  4.04 -6.03
Si  3.41 -7.71 -6.03
Si  8.98  0.01  5.20
Si 10.25  0.47 -1.61
Si  1.12 -8.73 -5.53
Si -0.49 -8.46  6.02
Si  6.90  3.41  7.01
Si -3.49 -9.81  0.14
Si  9.72 -2.84 -2.46
Si  8.94  1.47 -5.19
Si -2.90  4.88  8.78
Si  4.54 -8.42  4.23
Si  5.74 -8.72 -0.66
Si  4.82 -1.86 -9.10
Si -0.03 -7.81 -7.01
Si  1.10 10.16  2.44
Si  9.44 -1.85 -4.23
Si  8.42 -1.84 -6.03
Si  3.16  4.88  8.78
Si  6.51  0.03  8.27
Si  1.68  7.42 -7.29
Si -5.06  5.02 -7.81
Si  7.73 -5.46 -4.71
Si -3.65 -9.73 -1.95
Si -9.22  0.01  5.20
Si -4.79 -8.81 -3.44
Si -6.82  7.89 -1.95
Si  3.76  4.02 -9.10
Si -8.21 -4.40 -5.19
Si  8.00 -6.42 -2.92
Si -2.06  8.89 -5.53
Si -10.53  1.01  1.62
Si -2.94 -6.72 -7.81
Si -9.26  1.47 -5.19
Si  9.55 -2.55  4.23
Si -9.47 -4.86  1.62
Si  3.13 -6.72 -7.81
Si  6.69 -5.42 -6.49
Si 10.11  0.54 -3.72
Si -6.77  1.42 -8.28
Si  5.17  6.89  6.50
Si  8.89 -4.94  3.72
Si  1.26  9.89 -4.23
Si -6.40 -8.72 -0.66
Si -0.01  5.04 -9.61
Si -5.02 -0.84 -9.61
Si  7.96 -2.46  7.01
Si -2.40 -0.94 -10.59
Si  7.29 -4.86  6.50
Si -1.53 10.29  3.43
Si  4.77  2.28  9.59
Si -5.10  3.34  9.11
Si -5.71 -4.46 -8.28
Si -0.68 -4.42 -10.07
Si -1.69 -1.07 10.87
Si -10.37  0.93  3.72
Si -8.67  3.28  6.02
Si  4.33  1.46 -10.07
Si  2.14  2.41 10.59
Si -4.60  0.02 10.07
Si -9.71  3.32  4.23
Si -2.34 -10.73  1.62
Si -4.56 -5.84  8.27
Si -7.86 -7.46  2.44
Si -9.98  4.28  2.44
Si 10.75 -2.85 -0.66
Si -9.02  6.34 -1.61
Si  7.93  5.88  5.20
Si -4.71  9.20  4.23
Si  9.04 -6.46 -1.13
Si -0.79 -6.86  8.78
Si -1.76  7.29 -8.28
Si -9.31 -4.94  3.72
Si  7.71 -7.33  3.43
Si  4.01  8.89 -5.53
Si  2.40  9.16  6.02
Si -0.21 11.16 -1.13
Si  3.67 -0.94 -10.59
Si  1.43  2.54 -10.87
Si -9.17 -6.46 -1.13
Si  9.19  6.34 -1.61
Si  2.95 -8.34  7.01
Si -4.39  7.42 -7.29
Si -7.35 -3.55  7.81
Si  8.14 -0.85 -7.81
Si -8.16 -5.86  5.20
Si -10.62 -3.94  0.14
Si -3.12 -8.34  7.01
Si -5.09 -9.73  2.92
Si  6.43 -4.46 -8.28
Si  0.23 -11.28 -1.61
Si  0.77  0.15 -11.38
Si -9.82  4.02 -4.23
Si 11.42 -0.46 -0.14
Si -4.95 -8.73 -5.53
Si  3.73 -10.73  1.62
Si  6.02 -9.71  1.12
Si -8.22  3.94 -7.01
Si -2.87 -3.46 10.59
Si -1.03  1.32 11.38
Si -6.12 -9.71  1.12
Si  5.46  5.90  8.27
Si  8.81  1.54 -7.29
Si -3.93  2.41 10.59
Si -3.66  9.16  6.02
Si -7.99  6.90  4.70
Si 10.99  2.02  2.92
Si -1.08 -10.28 -5.19
Si -4.97 10.16  2.44
Si  3.20 -3.46 10.59
Si  0.23  9.91 -6.03
Si -10.77 -3.86 -1.95
Si -8.90 -7.42  0.66
Si  2.67  8.19  7.81
Si -9.06 -0.07  7.29
Si -0.23  9.28  7.01
Si  2.49 -3.33 -10.87
Si -2.83 11.29 -0.14
Si -1.25 11.20 -2.92
Si -9.78 -1.84 -6.03
Si -2.18 -10.81  3.72
Si -11.27 -0.55 -2.92
Si  0.41  5.89 10.07
Si  7.08  5.02 -7.81
Si 10.36  5.41 -0.14
Si  9.14 -0.07  7.29
Si -7.70 -7.72 -4.23
Si -2.70 11.21  1.96
Si -1.40 10.21  5.54
Si  9.05  6.42 -3.72
Si -7.42 -8.71 -2.46
Si -8.41  2.32  7.81
Si 11.55 -0.53  1.96
Si 11.03 -3.84  1.12
Si  9.53  3.28  6.02
Si  3.23 11.29 -0.14
Si -6.96  6.89  6.50
Si  4.54 10.29  3.43
Si  4.38 -1.07 10.87
Si  1.26 -10.71  4.70
Si -9.15  6.42 -3.72
Si  5.83 -3.59  9.59
Si -4.81  9.89 -4.23
Si  5.58 -8.46  6.02
Si -8.27  7.89  2.92
Si  0.09 -11.20 -3.72
Si -7.56  6.33 -6.49
Si -3.40  8.19  7.81
Si -7.31 -1.86 -9.10
Si -11.68  1.93  0.14
Si  4.31  7.29 -8.28
Si -6.01 10.20  0.66
Si -11.02  4.32  0.66
Si -7.91 -0.99  8.78
Si  3.37 11.21  1.96
Si  7.64  2.47 -8.76
Si -8.34 -4.33 -7.29
Si  2.10 -6.71 -9.61
Si  6.13 10.20  0.66
Si -3.58 -3.33 -10.87
Si  9.30 -7.42  0.66
Si  2.53 -5.86 10.07
Si 10.49  5.34  1.96
Si -0.19 -7.73 -9.10
Si  7.88  7.34 -5.19
Si  8.91  7.91  1.12
Si  7.61  8.91 -2.46
Si  2.61  4.94 -10.59
Si  7.34 -8.81 -3.44
Si  7.12 -0.84 -9.61
Si  7.04  3.34  9.11
Si -9.40  1.54 -7.29
Si  1.75 -0.97 11.85
Si -6.31 -3.59  9.59
Si  3.88 -10.81  3.72
Si -4.63  2.54 -10.87
Si 10.00 -4.40 -5.19
Si -7.60 -8.42  4.23
Si  6.04 -7.81 -7.01
Si  0.51  8.35 -8.76
Si  7.85 -7.41  5.54
Si -11.55 -1.46  3.43
Si -6.10 -7.81 -7.01
Si -11.83  2.01 -1.95
Si -6.68  5.90  8.27
Si 11.29  2.93 -3.44
Si -3.54 -5.86 10.07
Si -3.45  4.94 -10.59
Si -2.75  4.80 10.87
Si -0.22 -9.43  7.81
Si  5.39 -4.42 -10.07
Si -9.29  7.91  1.12
Si 11.28  1.03  4.70
Si  0.02 -4.55 11.38
Si -2.00  2.42 -11.86
Si -6.56 -8.46  6.02
Si  1.40 -12.21 -0.14
Si -7.37  2.28  9.59
Si  5.28 -6.86  8.78
Si  8.08  5.80  7.29
Si  3.32  4.80 10.87
Si -8.01 -5.94  7.29
Si  7.04 -9.73  2.92
Si -7.97  8.81 -3.44
Si -3.96 -6.71 -9.61
Si -0.95 -3.46 -11.86
Si  2.86  9.81 -7.01
