500
set: 526.00  0.00  0.00
Si  0.00  0.00  0.00
Si  0.11 -2.09  0.77
Si -1.83  1.08  0.77
Si  1.88  1.08  0.77
Si  0.10 -0.06 -2.36
Si  1.76  3.17  0.00
Si -1.76 -3.17  0.00
Si -3.71  0.00  0.00
Si  3.71  0.00  0.00
Si -1.94  3.17  0.00
Si  1.94 -3.17  0.00
Si  0.02 -2.03  3.13
Si -0.02  2.03 -3.13
Si -1.78 -1.14 -3.13
Si  1.78  1.14  3.13
Si -1.93  1.14  3.13
Si  1.93 -1.14 -3.13
Si -3.60 -2.09  0.77
Si -3.61 -0.06 -2.36
Si -1.85  3.11 -2.36
Si -0.07  4.26  0.77
Si  1.86  3.11 -2.36
Si -1.67 -3.23 -2.36
Si -1.81 -0.94  3.90
Si  3.82 -2.09  0.77
Si  1.89 -0.94  3.90
Si  3.80 -0.06 -2.36
Si -0.05  2.23  3.90
Si  2.04 -3.23 -2.36
Si -3.69 -2.03  3.13
Si  3.69  2.03 -3.13
Si  3.73 -2.03  3.13
Si -3.73  2.03 -3.13
Si -0.16  4.32  3.13
Si  0.16 -4.32 -3.13
Si -1.65 -5.26  0.77
Si  3.64  4.26  0.77
Si  0.13 -4.12  3.90
Si -5.54  1.08  0.77
Si  2.05 -5.26  0.77
Si -3.77  4.26  0.77
Si  5.58  1.08  0.77
Si  3.66  2.23  3.90
Si  0.08  1.97 -5.49
Si -3.76  2.23  3.90
Si -1.69 -1.21 -5.49
Si  2.02 -1.21 -5.49
Si -1.75 -5.20  3.13
Si  1.75  5.20 -3.13
Si  5.47  3.17  0.00
Si -5.47 -3.17  0.00
Si -0.18  6.35  0.00
Si  0.18 -6.35  0.00
Si  1.96 -5.20  3.13
Si -1.96  5.20 -3.13
Si -3.55 -4.32 -3.13
Si  3.55  4.32  3.13
Si  5.49  1.14  3.13
Si -5.49 -1.14 -3.13
Si  5.65 -3.17  0.00
Si -5.65  3.17  0.00
Si  5.63 -1.14 -3.13
Si -5.63  1.14  3.13
Si  1.80 -0.88  6.26
Si -1.80  0.88 -6.26
Si  3.87 -4.32 -3.13
Si -3.87  4.32  3.13
Si -1.91 -0.88  6.26
Si  1.91  0.88 -6.26
Si  0.14 -2.29 -6.26
Si -0.14  2.29  6.26
Si -3.58 -4.12  3.90
Si -5.38 -3.23 -2.36
Si -0.08  6.29 -2.36
Si -5.55  3.11 -2.36
Si  5.57  3.11 -2.36
Si -5.52 -0.94  3.90
Si  0.27 -6.41 -2.36
Si  3.84 -4.12  3.90
Si -3.63  1.97 -5.49
Si  1.72  5.40  3.90
Si  5.60 -0.94  3.90
Si -1.99  5.40  3.90
Si  3.79  1.97 -5.49
Si  5.75 -3.23 -2.36
Si -0.03  0.20  7.03
Si  0.26 -4.38 -5.49
Si  3.53  6.35  0.00
Si -3.53 -6.35  0.00
Si -7.42  0.00  0.00
Si  7.42  0.00  0.00
Si  3.88 -6.35  0.00
Si -3.88  6.35  0.00
Si  0.03 -4.06  6.26
Si -0.03  4.06 -6.26
Si -5.36 -5.26  0.77
Si -3.56 -2.29 -6.26
Si  3.56  2.29  6.26
Si  3.62  6.29 -2.36
Si -7.30 -2.09  0.77
Si -3.44 -6.41 -2.36
Si  1.70  7.43  0.77
Si -7.32 -0.06 -2.36
Si  3.85 -2.29 -6.26
Si -3.85  2.29  6.26
Si -3.79  6.29 -2.36
Si -2.01  7.43  0.77
Si  1.84  5.14 -5.49
Si -1.86  5.14 -5.49
Si -5.39 -1.21 -5.49
Si -3.45 -4.38 -5.49
Si -1.80 -2.97  7.03
Si  5.76 -5.26  0.77
Si  7.53 -2.09  0.77
Si  1.91 -2.97  7.03
Si  7.51 -0.06 -2.36
Si  3.98 -6.41 -2.36
Si  3.68  0.20  7.03
Si -3.74  0.20  7.03
Si  1.73  3.37  7.03
Si  5.73 -1.21 -5.49
Si -1.97  3.37  7.03
Si  3.96 -4.38 -5.49
Si -5.46 -5.20  3.13
Si  5.46  5.20 -3.13
Si  1.60  7.49  3.13
Si -1.60 -7.49 -3.13
Si -7.40 -2.03  3.13
Si  7.40  2.03 -3.13
Si -5.67  5.20 -3.13
Si  5.67 -5.20  3.13
Si  3.67  4.06 -6.26
Si -3.67 -4.06  6.26
Si -7.43  2.03 -3.13
Si  7.43 -2.03  3.13
Si  3.74 -4.06  6.26
Si -3.74  4.06 -6.26
Si  5.51 -0.88  6.26
Si -5.51  0.88 -6.26
Si -2.10  7.49  3.13
Si  2.10 -7.49 -3.13
Si -1.64 -7.29  3.90
Si  5.62  0.88 -6.26
Si -5.62 -0.88  6.26
Si -1.62 -5.46 -6.26
Si  1.62  5.46  6.26
Si  0.29 -8.44  0.77
Si  2.07 -7.29  3.90
Si  7.35  4.26  0.77
Si -2.08  5.46  6.26
Si  2.08 -5.46 -6.26
Si  5.42  5.40  3.90
Si  7.37  2.23  3.90
Si -7.48  4.26  0.77
Si -7.46  2.23  3.90
Si -5.70  5.40  3.90
Si -1.71  0.82 -8.62
Si  2.00  0.82 -8.62
Si  0.24 -2.35 -8.62
Si -0.19  8.38 -3.13
Si  0.19 -8.38  3.13
Si  7.25  4.32  3.13
Si -7.25 -4.32 -3.13
Si -3.42 -8.44  0.77
Si  5.41  7.43  0.77
Si -7.29 -4.12  3.90
Si -7.58  4.32  3.13
Si  7.58 -4.32 -3.13
Si  0.15 -6.15  7.03
Si -9.25  1.08  0.77
Si  5.55  5.14 -5.49
Si -5.57  5.14 -5.49
Si  4.00 -8.44  0.77
Si -7.34  1.97 -5.49
Si  9.29  1.08  0.77
Si -0.13  0.26  9.39
Si  0.13 -0.26 -9.39
Si -5.71  7.43  0.77
Si -5.50 -2.97  7.03
Si -0.23  8.57  3.90
Si  7.54 -4.12  3.90
Si -1.51 -7.55 -5.49
Si  5.62 -2.97  7.03
Si  7.49  1.97 -5.49
Si  0.06  4.00 -8.62
Si  5.44  3.37  7.03
Si -3.47 -2.35 -8.62
Si  2.20 -7.55 -5.49
Si -0.21  6.55  7.03
Si  3.51  8.38 -3.13
Si -3.51 -8.38  3.13
Si  7.24  6.35  0.00
Si -7.24 -6.35  0.00
Si -5.68  3.37  7.03
Si  1.59  9.52  0.00
Si -1.59 -9.52  0.00
Si  5.31  7.49  3.13
Si -5.31 -7.49 -3.13
Si -9.18 -3.17  0.00
Si  9.18  3.17  0.00
Si  1.73  7.23 -6.26
Si -1.73 -7.23  6.26
Si  2.12 -9.52  0.00
Si -2.12  9.52  0.00
Si -3.90  8.38 -3.13
Si  3.90 -8.38  3.13
Si  1.98 -7.23  6.26
Si -1.98  7.23 -6.26
Si  3.94 -2.35 -8.62
Si -9.20 -1.14 -3.13
Si  9.20  1.14  3.13
Si -5.34 -7.29  3.90
Si  7.27  2.29  6.26
Si -7.27 -2.29 -6.26
Si -5.33 -5.46 -6.26
Si  5.33  5.46  6.26
Si -9.36  3.17  0.00
Si  9.36 -3.17  0.00
Si -7.14 -6.41 -2.36
Si  1.68  9.46 -2.36
Si -7.59  6.35  0.00
Si  7.59 -6.35  0.00
Si -9.34  1.14  3.13
Si  9.34 -1.14 -3.13
Si -9.09 -3.23 -2.36
Si  7.33  6.29 -2.36
Si -2.02  9.46 -2.36
Si -0.10  8.31 -5.49
Si -1.49 -9.58 -2.36
Si  5.81 -7.49 -3.13
Si -5.81  7.49  3.13
Si -3.56 -6.15  7.03
Si  1.82 -2.91  9.39
Si -1.82  2.91 -9.39
Si -1.89 -2.91  9.39
Si  1.89  2.91 -9.39
Si -7.16 -4.38 -5.49
Si  3.48  8.57  3.90
Si  3.58  0.26  9.39
Si -3.58 -0.26 -9.39
Si -9.26  3.11 -2.36
Si -9.23 -0.94  3.90
Si  9.28  3.11 -2.36
Si -7.50  6.29 -2.36
Si -7.56  2.29  6.26
Si  7.56 -2.29 -6.26
Si  5.78 -7.29  3.90
Si  3.85 -6.15  7.03
Si  2.21 -9.58 -2.36
Si  5.79 -5.46 -6.26
Si -5.79  5.46  6.26
Si -1.64 -3.43 -9.39
Si  1.64  3.43  9.39
Si  9.31 -0.94  3.90
Si  3.83 -0.26 -9.39
Si -3.83  0.26  9.39
Si -3.65  4.00 -8.62
Si  7.38  0.20  7.03
Si -3.93  8.57  3.90
Si  2.07 -3.43 -9.39
Si -2.07  3.43  9.39
Si -5.41  0.82 -8.62
Si  3.50  6.55  7.03
Si  3.77  4.00 -8.62
Si -7.45  0.20  7.03
Si  9.45 -3.23 -2.36
Si  7.69 -6.41 -2.36
Si -0.01 -1.83 10.16
Si -1.53 -5.52 -8.62
Si -3.92  6.55  7.03
Si  5.71  0.82 -8.62
Si  1.75  1.34 10.16
Si  7.67 -4.38 -5.49
Si -1.96  1.34 10.16
Si  2.18 -5.52 -8.62
Si  7.38  4.06 -6.26
Si -7.38 -4.06  6.26
Si -9.07 -5.26  0.77
Si -7.45  4.06 -6.26
Si  7.45 -4.06  6.26
Si  3.61  8.31 -5.49
Si -0.24 10.60  0.77
Si -3.81  8.31 -5.49
Si -0.32  8.63  6.26
Si  0.32 -8.63 -6.26
Si -5.22 -7.55 -5.49
Si -9.10 -1.21 -5.49
Si  9.47 -5.26  0.77
Si -5.30 -9.52  0.00
Si  5.30  9.52  0.00
Si  3.69 -1.83 10.16
Si -3.72 -1.83 10.16
Si  9.44 -1.21 -5.49
Si -9.16 -5.20  3.13
Si  9.16  5.20 -3.13
Si  5.44  7.23 -6.26
Si -5.44 -7.23  6.26
Si  5.91 -7.55 -5.49
Si -7.13 -8.44  0.77
Si -0.19  4.52 10.16
Si -0.34 10.66  3.13
Si  0.34 -10.66 -3.13
Si -11.12  0.00  0.00
Si 11.12  0.00  0.00
Si  5.68 -7.23  6.26
Si -5.68  7.23 -6.26
Si  5.39  9.46 -2.36
Si -5.20 -9.58 -2.36
Si -5.83  9.52  0.00
Si  5.83 -9.52  0.00
Si  9.37 -5.20  3.13
Si -9.37  5.20 -3.13
Si  0.31 -10.46  3.90
Si  9.21 -0.88  6.26
Si -9.21  0.88 -6.26
Si  3.46 10.60  0.77
Si -0.05  6.09 -9.39
Si  0.05 -6.09  9.39
Si -3.39 -8.63 -6.26
Si  3.39  8.63  6.26
Si -11.01 -2.09  0.77
Si -9.32 -0.88  6.26
Si  9.32  0.88 -6.26
Si  5.52 -2.91  9.39
Si -5.52  2.91 -9.39
Si -11.03 -0.06 -2.36
Si  9.13  5.40  3.90
Si -5.73  9.46 -2.36
Si  5.60  2.91 -9.39
Si -5.60 -2.91  9.39
Si  5.35  3.43  9.39
Si -5.35 -3.43 -9.39
Si -3.95 10.60  0.77
Si  1.83  7.17 -8.62
Si -1.88  7.17 -8.62
Si  4.03 -8.63 -6.26
Si -4.03  8.63  6.26
Si  7.70 -8.44  0.77
Si 11.23 -2.09  0.77
Si -1.78 -5.00 10.16
Si -7.18 -2.35 -8.62
Si 11.22 -0.06 -2.36
Si  1.93 -5.00 10.16
Si  0.30 -6.61 -9.39
Si -0.30  6.61  9.39
Si  7.22  8.38 -3.13
Si -7.22 -8.38  3.13
Si -5.24 -5.52 -8.62
Si  5.92 -9.58 -2.36
Si -9.41  5.40  3.90
Si  5.78 -3.43 -9.39
Si -5.78  3.43  9.39
Si  5.46  1.34 10.16
Si -3.37 -10.66 -3.13
Si  3.37 10.66  3.13
Si  3.52  4.52 10.16
Si -3.40 -10.46  3.90
Si -5.66  1.34 10.16
Si -11.11 -2.03  3.13
Si 11.11  2.03 -3.13
Si -1.48 -11.61  0.77
Si -7.61  8.38 -3.13
Si  7.61 -8.38  3.13
Si -11.14  2.03 -3.13
Si 11.14 -2.03  3.13
Si  0.22 -0.32 -11.75
Si  7.65 -2.35 -8.62
Si -3.66 -6.09  9.39
Si  3.66  6.09 -9.39
Si -3.90  4.52 10.16
Si -1.62 -9.32  7.03
Si  9.12  7.43  0.77
Si -3.76  6.09 -9.39
Si  3.76 -6.09  9.39
Si  5.89 -5.52 -8.62
Si -4.04 10.66  3.13
Si  4.04 -10.66 -3.13
Si -7.27 -6.15  7.03
Si  2.23 -11.61  0.77
Si  7.19  8.57  3.90
Si  2.09 -9.32  7.03
Si  4.01 -10.46  3.90
Si 11.06  4.26  0.77
Si -7.29 -0.26 -9.39
Si  7.29  0.26  9.39
Si  9.26  5.14 -5.49
Si -9.28  5.14 -5.49
Si 11.07  2.23  3.90
Si -9.21 -2.97  7.03
Si -3.40 -6.61 -9.39
Si  3.40  6.61  9.39
Si -11.19  4.26  0.77
Si  7.21  6.55  7.03
Si  7.56 -6.15  7.03
Si -7.35  4.00 -8.62
Si  9.15  3.37  7.03
Si -9.42  7.43  0.77
Si -11.17  2.23  3.90
Si  7.54 -0.26 -9.39
Si -7.54  0.26  9.39
Si  9.33 -2.97  7.03
Si  0.43 -10.72 -5.49
Si -1.57 -11.55  3.13
Si  1.57 11.55 -3.13
Si  7.48  4.00 -8.62
Si  1.56  9.72  7.03
Si -7.64  8.57  3.90
Si  9.02  7.49  3.13
Si -9.02 -7.49 -3.13
Si  0.21 -10.40  6.26
Si -0.21 10.40 -6.26
Si -2.14 11.55 -3.13
Si  2.14 -11.55  3.13
Si -4.01  6.61  9.39
Si  4.01 -6.61 -9.39
Si -2.15  9.72  7.03
Si -10.96 -4.32 -3.13
Si 10.96  4.32  3.13
Si -9.39  3.37  7.03
Si -1.72  2.85 -11.75
Si  0.41 -8.70 -8.62
Si  1.99  2.85 -11.75
Si -9.05 -7.29  3.90
Si -7.62  6.55  7.03
Si -3.49 -0.32 -11.75
Si  9.04  5.46  6.26
Si -9.04 -5.46 -6.26
Si -1.54 -3.49 -11.75
Si  7.32  8.31 -5.49
Si -10.99 -4.12  3.90
Si  3.93 -0.32 -11.75
Si  2.16 -3.49 -11.75
Si  1.54 11.75  3.90
Si -11.28  4.32  3.13
Si 11.28 -4.32 -3.13
Si -7.51  8.31 -5.49
Si -3.28 -10.72 -5.49
Si -11.04  1.97 -5.49
Si  5.53  7.17 -8.62
Si -9.52  7.49  3.13
Si  9.52 -7.49 -3.13
Si -5.59  7.17 -8.62
Si -2.17 11.75  3.90
Si -9.12  0.82 -8.62
Si -5.49 -5.00 10.16
Si  9.49 -7.29  3.90
Si 11.25 -4.12  3.90
Si -9.50  5.46  6.26
Si  9.50 -5.46 -6.26
Si 11.20  1.97 -5.49
Si -3.50 -10.40  6.26
Si  3.50 10.40 -6.26
Si -0.11 -1.77 12.52
Si  0.11  1.77 -12.52
Si  5.64 -5.00 10.16
Si 10.95  6.35  0.00
Si -10.95 -6.35  0.00
Si -3.29 -8.70 -8.62
Si -0.35 12.69  0.00
Si  0.35 -12.69  0.00
Si  7.40 -1.83 10.16
Si  1.66  1.40 12.52
Si -1.66 -1.40 -12.52
Si -7.43 -1.83 10.16
Si -5.18 -11.61  0.77
Si  4.14 -10.72 -5.49
Si -3.92 10.40 -6.26
Si  3.92 -10.40  6.26
Si  2.05 -1.40 -12.52
Si -2.05  1.40 12.52
Si  9.42  0.82 -8.62
Si  7.09  8.63  6.26
Si -7.09 -8.63 -6.26
Si -10.85 -6.41 -2.36
Si  7.17 10.60  0.77
Si -5.33 -9.32  7.03
Si  1.57  7.69 10.16
Si  1.67 11.49 -5.49
Si 10.98  2.29  6.26
Si -10.98 -2.29 -6.26
Si -0.26 12.63 -2.36
Si -2.04 11.49 -5.49
Si -2.13  7.69 10.16
Si -8.93 -7.55 -5.49
Si  4.12 -8.70 -8.62
Si 11.04  6.29 -2.36
Si -10.87 -4.38 -5.49
Si -11.30  6.35  0.00
Si 11.30 -6.35  0.00
Si  0.45 -12.75 -2.36
Si -12.95  1.08  0.77
Si  5.80 -9.32  7.03
Si  0.16 -8.18 10.16
Si  5.94 -11.61  0.77
Si -11.21  6.29 -2.36
Si 13.00  1.08  0.77
Si  5.28 11.55 -3.13
Si -5.28 -11.55  3.13
Si -11.27  2.29  6.26
Si 11.27 -2.29 -6.26
