500
set: 351.00  0.00  0.00
Si  0.03 -0.02  0.03
Si  0.04  0.05 -2.25
Si -1.85  1.03  0.82
Si -0.07 -2.19  0.70
Si  1.91  1.12  0.75
Si -0.02 -2.12  3.00
Si -1.88  3.18  0.08
Si  1.85  3.20 -0.09
Si  1.86 -1.14 -3.03
Si -1.89 -0.99 -3.07
Si  3.75 -0.03 -0.03
Si -3.77 -0.03 -0.03
Si  1.86  1.18  3.06
Si -1.89  1.02  3.10
Si -1.91 -3.31 -0.09
Si  1.88 -3.33  0.08
Si -0.02  2.21 -3.14
Si  1.87 -1.05  3.77
Si -1.86  3.25 -2.23
Si  1.89 -3.25 -2.23
Si  3.71  0.02 -2.34
Si -0.05  2.19  3.80
Si -3.73 -2.18  0.79
Si  0.03  4.33  0.79
Si -1.89 -3.22 -2.37
Si  3.79 -2.18  0.79
Si -1.86 -1.08  3.91
Si  1.87  3.29 -2.37
Si -3.81  0.02 -2.34
Si  0.04 -4.30 -3.03
Si -3.72  2.21 -3.03
Si -3.72 -2.13  3.10
Si  3.79  2.21 -3.03
Si  3.79 -2.13  3.10
Si  0.04  4.38  3.10
Si  3.69  4.32  0.70
Si -1.84 -5.39  0.75
Si -5.60  1.12  0.75
Si  1.91 -1.14 -5.32
Si  0.04 -4.29  3.88
Si -1.84 -1.05 -5.39
Si -3.82  4.32  0.70
Si -3.72  2.22  3.88
Si  5.67  1.03  0.82
Si -0.07  2.15 -5.43
Si  1.91 -5.48  0.82
Si  3.79  2.22  3.88
Si  1.88  1.01 -6.06
Si  1.85 -1.14  6.05
Si -1.89 -5.33  3.06
Si -1.89  5.36 -3.03
Si  5.63  3.18  0.08
Si -0.01  2.14  6.11
Si  5.62 -0.99 -3.07
Si -0.01  6.48 -0.03
Si  3.74  4.38  3.00
Si  3.74 -4.29 -3.14
Si  5.62  1.02  3.10
Si  5.60 -3.31 -0.09
Si -5.67  3.20 -0.09
Si -5.65 -1.14 -3.03
Si -3.78  4.38  3.00
Si -3.78 -4.29 -3.14
Si -0.01 -6.53 -0.03
Si -5.65  1.18  3.06
Si -0.01 -2.19 -6.16
Si -5.64 -3.33  0.08
Si  1.86 -5.48  3.10
Si  1.86  5.52 -3.07
Si -1.91  1.03 -6.22
Si -1.88 -1.16  6.21
Si  3.71 -4.32  3.80
Si -3.73  2.16 -5.34
Si -5.62 -3.25 -2.23
Si -5.64 -1.05  3.77
Si  0.03 -4.35 -5.34
Si  5.65  3.25 -2.23
Si -0.05 -6.49 -2.34
Si  3.79  2.16 -5.34
Si -3.81 -4.32  3.80
Si -1.89  5.46  3.77
Si  5.63 -3.22 -2.37
Si  0.03 -0.01  6.93
Si -0.05  6.53 -2.34
Si  1.89  5.42  3.91
Si -5.64  3.29 -2.37
Si  5.65 -1.08  3.91
Si -3.72  6.49  0.03
Si  0.03  4.32 -6.11
Si -7.48 -0.02  0.03
Si -3.72 -2.19 -6.11
Si  3.79  6.49  0.03
Si -3.72  2.15  6.16
Si  3.79 -2.19 -6.11
Si -3.72 -6.53  0.03
Si  3.79  2.15  6.16
Si  7.55 -0.02  0.03
Si  0.03 -4.36  6.16
Si  3.79 -6.53  0.03
Si  3.69 -0.02  6.84
Si -1.85  5.37 -5.32
Si -3.72 -6.46 -2.25
Si  7.45 -2.19  0.70
Si -7.48  0.05 -2.25
Si -5.60 -1.14 -5.32
Si  1.91  7.54  0.82
Si  3.79 -6.46 -2.25
Si -3.82 -0.02  6.84
Si  1.91 -3.22  6.88
Si -1.84  3.29  6.88
Si  5.67 -5.39  0.75
Si -3.72  6.55 -2.25
Si -1.84  7.62  0.75
Si -5.60 -5.48  0.82
Si  3.69 -4.36 -5.43
Si  7.55  0.05 -2.25
Si  1.91  3.20  6.95
Si  5.67 -1.05 -5.39
Si  1.91  5.46 -5.39
Si  3.79  6.55 -2.25
Si -1.85 -3.31  6.95
Si -7.58 -2.19  0.70
Si -3.83 -4.36 -5.43
Si -1.91  5.37  6.05
Si  1.86 -7.49 -3.07
Si  5.62 -5.33  3.06
Si -5.64  1.01 -6.06
Si  5.62  5.36 -3.03
Si  7.50 -2.12  3.00
Si  1.86  7.53  3.10
Si -5.67 -1.14  6.05
Si -7.53 -2.12  3.00
Si  3.75 -4.36  6.11
Si -1.88 -5.50 -6.06
Si -3.77 -4.36  6.11
Si  3.75  4.31 -6.16
Si  1.88  5.35  6.21
Si -3.77  4.31 -6.16
Si  7.50  2.21 -3.14
Si  5.60  1.03 -6.22
Si -1.89 -7.65 -3.03
Si -7.53  2.21 -3.14
Si -5.65 -5.48  3.10
Si  5.63 -1.16  6.21
Si -5.65  5.52 -3.07
Si -1.89  7.69  3.06
Si  1.85 -5.48 -6.22
Si  1.89  1.09 -8.36
Si -1.89 -7.55  3.77
Si  7.46  2.19  3.80
Si -7.49  4.33  0.79
Si  5.63  5.46  3.77
Si  0.03 -8.69  0.79
Si  7.54  4.33  0.79
Si -5.62  5.42  3.91
Si -0.05 -2.15 -8.47
Si -7.57  2.19  3.80
Si  1.89 -7.59  3.91
Si -1.89  1.12 -8.50
Si -7.48 -4.30 -3.03
Si  0.04  0.04 -9.17
Si  0.04 -8.64  3.10
Si -7.48  4.38  3.10
Si  7.55 -4.30 -3.03
Si  0.04  8.72 -3.03
Si  0.04  0.04  9.24
Si  7.55  4.38  3.10
Si -3.72 -2.12 -8.39
Si -5.60  7.54  0.82
Si -0.07  6.49  6.84
Si -5.60 -3.22  6.88
Si  5.67  5.37 -5.32
Si  3.79 -2.12 -8.39
Si -9.36  1.03  0.82
Si -0.07 -6.53  6.84
Si -7.48 -4.29  3.88
Si  7.45  2.15 -5.43
Si  0.04  4.39 -8.39
Si  3.69 -8.70  0.70
Si  1.91 -7.56 -5.39
Si -5.60  3.20  6.95
Si -5.60  5.46 -5.39
Si -1.85 -7.65 -5.32
Si  5.67  3.29  6.88
Si  7.55 -4.29  3.88
Si  9.43  1.12  0.75
Si -3.83 -8.70  0.70
Si  5.67  7.62  0.75
Si  0.04  8.72  3.88
Si  5.67 -3.31  6.95
Si -7.58  2.15 -5.43
Si -1.88  7.52 -6.06
Si  5.60  5.37  6.05
Si  1.88  9.69  0.08
Si  3.74  0.04  9.13
Si  3.74 -8.63  3.00
Si -5.65 -7.49 -3.07
Si -3.78  0.04  9.13
Si  1.86  3.19 -9.17
Si -3.78 -8.63  3.00
Si  9.36  3.20 -0.09
Si -1.91  9.71 -0.09
Si  1.86 -3.16  9.20
Si  1.86 -3.15 -9.21
Si  7.50  2.14  6.11
Si -5.65  7.53  3.10
Si -9.39  3.18  0.08
Si  7.50  6.48 -0.03
Si  9.38 -1.14 -3.03
Si -7.53  2.14  6.11
Si -1.89 -3.31 -9.17
Si -7.52  6.48 -0.03
Si  5.63 -5.50 -6.06
Si -1.91 -7.65  6.05
Si  9.38  1.18  3.06
Si -9.41 -0.99 -3.07
Si -5.64  5.35  6.21
Si  1.85  7.54 -6.22
Si  7.50 -6.53 -0.03
Si  1.86  3.19  9.24
Si  7.50 -2.19 -6.16
Si -9.41  1.02  3.10
Si -7.53 -6.53 -0.03
Si  9.39 -3.33  0.08
Si  5.62 -7.65 -3.03
Si -7.53 -2.19 -6.16
Si -1.89  3.35  9.20
Si -1.89  3.35 -9.21
Si  1.85 -9.82 -0.09
Si -9.43 -3.31 -0.09
Si  3.74  8.72 -3.14
Si -1.89 -3.31  9.24
Si  3.74  0.05 -9.27
Si  5.62  7.69  3.06
Si -3.78  8.72 -3.14
Si -3.78  0.05 -9.27
Si -1.88 -9.84  0.08
Si -5.67 -5.48 -6.22
Si  1.88 -7.67  6.21
Si -5.62  1.09 -8.36
Si -1.86 -5.42 -8.36
Si -1.89  1.12  9.90
Si  5.63 -7.55  3.77
Si  7.46 -6.49 -2.34
Si -0.05 -2.15  9.93
Si  9.38 -1.05  3.77
Si -7.49 -4.35 -5.34
Si -9.38  3.25 -2.23
Si  0.03  8.67 -5.34
Si  1.87 -9.72 -2.37
Si -1.86 -9.76 -2.23
Si  7.46  6.53 -2.34
Si  3.71  8.70  3.80
Si  1.89  9.76 -2.23
Si  9.41 -3.25 -2.23
Si -7.49 -0.01  6.93
Si -3.73  6.50  6.93
Si -9.40 -3.22 -2.37
Si  7.54 -4.35 -5.34
Si -3.73 -6.52  6.93
Si -9.38 -1.08  3.91
Si  9.38  3.29 -2.37
Si -5.62 -7.59  3.91
Si  3.71  4.36 -8.47
Si  3.79  6.50  6.93
Si -3.81  8.70  3.80
Si -7.57 -6.49 -2.34
Si  1.87 -5.39 -8.50
Si  3.79 -6.52  6.93
Si  7.54 -0.01  6.93
Si -1.89  9.80 -2.37
Si  5.63  1.12 -8.50
Si -3.81  4.36 -8.47
Si -7.57  6.53 -2.34
Si  1.89  1.08 10.04
Si -7.48  4.32 -6.11
Si  0.03  8.65  6.16
Si  7.55  4.32 -6.11
Si -7.48 -4.36  6.16
Si  0.03 -8.70 -6.11
Si  7.55 -4.36  6.16
Si -9.36 -5.39  0.75
Si -5.60 -7.56 -5.39
Si -9.36 -1.05 -5.39
Si -0.07 10.83  0.70
Si  3.69  8.66 -5.43
Si  9.43 -1.14 -5.32
Si -3.72 -2.12 10.02
Si  5.67 -7.65 -5.32
Si -3.82  8.66 -5.43
Si  3.79 -2.12 10.02
Si  9.43 -5.48  0.82
Si  0.04  4.39 10.02
Si  5.63  7.52 -6.06
Si -0.02 -6.46  9.13
Si  9.36 -1.14  6.05
Si -5.64  9.69  0.08
Si  5.60  9.71 -0.09
Si  9.39  1.01 -6.06
Si -5.65  3.19 -9.17
Si -9.41 -5.33  3.06
Si  3.75  8.65  6.11
Si -0.02  6.55  9.13
Si -3.77  8.65  6.11
Si -9.41  5.36 -3.03
Si  5.60 -7.65  6.05
Si -5.65 -3.16  9.20
Si -0.02 -10.80 -3.14
Si  5.62 -3.31 -9.17
Si -5.65 -3.15 -9.21
Si 11.26 -0.03 -0.03
Si -11.28 -0.03 -0.03
Si  5.62  3.35  9.20
Si -5.65  3.19  9.24
Si -0.02 10.89  3.00
Si  5.62  3.35 -9.21
Si -5.67  7.54 -6.22
Si  9.38 -5.48  3.10
Si  3.75 -8.70 -6.16
Si -0.02 -6.46 -9.27
Si -3.77 -8.70 -6.16
Si  9.38  5.52 -3.07
Si  5.62 -3.31  9.24
Si -9.39 -1.16  6.21
Si -5.67 -9.82 -0.09
Si  5.63 -9.84  0.08
Si -9.42  1.03 -6.22
Si -0.02  6.55 -9.27
Si -5.64 -7.67  6.21
Si  1.87 -5.39  9.90
Si  5.63  1.12  9.90
Si -1.86  7.59 -8.36
Si  5.65 -5.42 -8.36
Si 11.22  0.02 -2.34
Si  3.71  4.36  9.93
Si -0.05 -10.82  3.80
Si  0.03 -0.01 -11.48
Si -11.24 -2.18  0.79
Si -5.62  9.76 -2.23
Si -3.73 10.84  0.79
Si -5.64 -9.72 -2.37
Si  7.46 -2.15 -8.47
Si  5.65 -9.76 -2.23
Si -7.49 -8.69  0.79
Si -3.81  4.36  9.93
Si  3.79 10.84  0.79
Si -9.40  5.46  3.77
Si  7.54 -8.69  0.79
Si 11.30 -2.18  0.79
Si -5.64 -5.39 -8.50
Si  9.41  5.42  3.91
Si  5.63  9.80 -2.37
Si -7.57 -2.15 -8.47
Si -11.32  0.02 -2.34
Si -5.62  1.08 10.04
Si -1.86 -5.42 10.04
Si  1.87  7.63 -8.50
Si -3.72 -6.47 -9.17
Si -3.72 -10.81 -3.03
Si -7.48  0.04 -9.17
Si -7.48 -8.64  3.10
Si -11.23  2.21 -3.03
Si  3.79 -6.47 -9.17
Si -11.23 -2.13  3.10
Si  3.79 -10.81 -3.03
Si -3.72  6.55 -9.17
Si -3.72 -6.47  9.24
Si -7.48  8.72 -3.03
Si  7.55  0.04 -9.17
Si -7.48  0.04  9.24
Si  7.55 -8.64  3.10
Si  3.79  6.55 -9.17
Si  3.79 -6.47  9.24
Si -3.72 10.89  3.10
Si 11.31  2.21 -3.03
Si -3.72  6.55  9.24
Si 11.31 -2.13  3.10
Si  7.55  8.72 -3.03
Si  7.55  0.04  9.24
Si  3.80 10.89  3.10
Si  3.79  6.55  9.24
Si  7.45  6.49  6.84
Si 11.20  4.32  0.70
Si -9.36  5.37 -5.32
Si  7.45 -6.53  6.84
Si  0.04 -8.63 -8.39
Si  1.91  3.20 -11.45
Si -1.84 -9.73  6.88
Si -7.48  4.39 -8.39
Si -3.72 -10.80  3.88
Si -1.85 -3.31 -11.45
Si -9.36  3.29  6.88
Si  1.91 -11.90  0.75
Si -1.85  9.71  6.95
Si  3.79 -10.80  3.88
Si -11.23  2.22  3.88
Si -9.36  7.62  0.75
Si  9.43  7.54  0.82
Si -7.58  6.49  6.84
Si  9.43 -3.22  6.88
Si  7.55  4.39 -8.39
Si  1.91 -3.22 -11.52
Si -7.58 -6.53  6.84
Si -9.36 -3.31  6.95
Si  1.91  9.79  6.88
Si -1.84  3.29 -11.52
Si -7.48  8.72  3.88
Si  9.43  3.20  6.95
Si  3.69 -0.02 -11.57
Si -0.07 -10.86 -5.43
Si  9.43  5.46 -5.39
Si -11.34  4.32  0.70
Si -1.85 -11.99  0.82
Si 11.31  2.22  3.88
Si  7.55  8.72  3.88
Si  1.91 -9.82  6.95
Si -3.82 -0.02 -11.57
Si  1.86 -11.83  3.06
Si -1.91  1.03 12.19
Si  9.38 -7.49 -3.07
Si -1.88 -1.16 -12.20
Si  1.86 11.87 -3.03
Si -9.42  5.37  6.05
Si  9.38  7.53  3.10
Si -0.01 -2.19 12.25
Si 11.25  4.38  3.00
Si 11.25 -4.29 -3.14
Si -0.01 10.82 -6.16
Si -9.39 -5.50 -6.06
Si  9.39  5.35  6.21
Si -0.01 -10.87  6.11
Si -11.29  4.38  3.00
Si -11.29 -4.29 -3.14
Si -0.01  2.15 -12.29
Si -9.41 -7.65 -3.03
Si  9.36 -5.48 -6.22
Si -1.89 -11.99  3.10
Si  1.88  1.01 12.35
Si -9.41  7.69  3.06
Si  1.85 -1.14 -12.36
Si -1.89 12.03 -3.07
Si -5.64 -5.39  9.90
Si 11.22 -4.32  3.80
Si  7.46 -2.15  9.93
Si  5.65  7.59 -8.36
Si  9.41  1.09 -8.36
Si -11.24  2.16 -5.34
Si -7.49  8.67 -5.34
Si -9.40 -7.55  3.77
Si  1.87  7.63  9.90
Si -3.73 -10.86 -5.34
Si  3.71 -8.65 -8.47
Si -7.57 -2.15  9.93
Si  7.54  8.67 -5.34
Si  3.79 -10.86 -5.34
Si 11.30  2.16 -5.34
Si  1.87 11.97  3.77
Si -1.86 11.93  3.91
Si -3.81 -8.65 -8.47
Si -11.32 -4.32  3.80
Si  9.41 -7.59  3.91
Si -9.40  1.12 -8.50
Si -1.86  7.59 10.04
Si  5.65 -5.42 10.04
Si -5.64  7.63 -8.50
Si -3.72 10.82 -6.11
Si -11.24  6.49  0.03
Si -3.72  2.15 -12.24
Si -11.24 -2.19 -6.11
Si  0.03 12.99  0.03
Si -7.48  8.65  6.16
Si  3.79 10.82 -6.11
Si -11.24  2.15  6.16
Si  3.79  2.15 -12.24
Si  0.03 -4.36 -12.24
Si -11.24 -6.53  0.03
Si -7.48 -8.70 -6.11
Si  7.55  8.65  6.16
Si 11.30  6.49  0.03
Si  0.03  4.32 12.30
Si 11.30 -2.19 -6.11
Si -3.72 -2.19 12.30
Si  7.55 -8.70 -6.11
Si -3.72 -10.87  6.16
Si  0.03 -13.04  0.03
Si 11.30  2.15  6.16
Si  3.79 -2.19 12.30
Si 11.30 -6.53  0.03
Si  3.79 -10.87  6.16
Si 11.20 -0.02  6.84
Si -5.60  3.20 -11.45
Si -0.07  2.15 12.97
Si  1.91 11.88 -5.32
Si -11.23 -6.46 -2.25
Si  7.45 10.83  0.70
Si  0.04 -12.97 -2.25
Si -5.60 -11.90  0.75
Si -13.12  1.12  0.75
Si -1.84 -1.05 13.02
Si 11.20 -4.36 -5.43
