500
set: 375.00  0.00  0.00
Si -0.07 -0.04 -0.12
Si  1.76  1.06  0.68
Si -0.05 -2.13  0.80
Si -1.88  1.08  0.78
Si  0.08 -0.00 -2.37
Si  1.95  1.05  2.94
Si -1.85  0.97  3.04
Si  3.70  0.06 -0.04
Si  0.08  2.20 -3.00
Si -1.96 -3.17  0.06
Si -1.87  3.22  0.03
Si  1.86 -3.24  0.03
Si  1.77  3.29  0.06
Si  0.08 -2.11  3.09
Si -3.76  0.06 -0.04
Si  1.88 -1.19 -3.05
Si -1.77 -1.10 -3.15
Si -1.79 -3.17 -2.20
Si -1.84  3.16 -2.20
Si  3.65 -2.05  0.85
Si  0.05  2.07  3.75
Si -3.68 -0.08 -2.34
Si  1.89 -3.30 -2.20
Si  1.94  3.29 -2.20
Si -3.81 -2.05  0.85
Si  3.78 -0.08 -2.34
Si -1.84 -1.14  3.88
Si  1.94 -1.02  3.89
Si -0.08  4.40  0.85
Si -3.69  2.15 -3.00
Si  0.04 -4.31 -3.00
Si  3.77  2.15 -3.00
Si -3.69 -2.15  3.09
Si  0.04  4.31  3.09
Si  3.77 -2.15  3.09
Si -3.65  2.15  3.72
Si  0.08 -4.31  3.72
Si -0.05  2.18 -5.29
Si  1.85 -1.08 -5.31
Si  5.58  1.08  0.78
Si  3.68  4.33  0.80
Si  3.81  2.15  3.72
Si  1.85 -5.38  0.78
Si -1.97 -5.40  0.68
Si -3.78  4.33  0.80
Si -5.70  1.06  0.68
Si -1.97 -1.09 -5.41
Si -5.50  1.05  2.94
Si  5.50 -3.17  0.06
Si -3.65 -4.26 -3.00
Si -1.85  5.27 -3.05
Si -0.03 -6.40 -0.04
Si -1.78 -5.41  2.94
Si  1.86  1.07 -6.06
Si -0.03  2.21  6.05
Si -1.96  1.14 -6.03
Si  5.59  3.22  0.03
Si  5.61  0.97  3.04
Si  3.81 -4.26 -3.00
Si -3.65  4.35  3.09
Si -5.58 -1.19 -3.05
Si -5.60 -3.24  0.03
Si -0.03 -2.09 -6.12
Si  1.77 -1.01  6.14
Si -1.87 -1.08  6.12
Si  1.95  5.36 -3.15
Si -0.03  6.52 -0.04
Si  1.88 -5.49  3.04
Si  3.81  4.35  3.09
Si -5.69  3.29  0.06
Si  5.68 -1.10 -3.15
Si -0.08 -4.21 -5.24
Si  3.65  2.25 -5.24
Si -5.51  3.29 -2.20
Si  0.05  6.38 -2.34
Si  5.62  3.16 -2.20
Si -5.51 -1.02  3.89
Si -5.57 -3.30 -2.20
Si -3.68 -4.38  3.75
Si  1.89  5.32  3.88
Si  5.67 -3.17 -2.20
Si -3.81  2.25 -5.24
Si  3.77 -4.38  3.75
Si -1.79  5.44  3.89
Si  5.62 -1.14  3.88
Si -0.08  0.10  6.93
Si  0.05 -6.54 -2.34
Si  3.66  2.11  5.97
Si -3.80  2.11  5.97
Si -0.07 -4.35  5.97
Si  3.66  6.42 -0.12
Si  7.39 -0.04 -0.12
Si -3.80  6.42 -0.12
Si  3.66 -6.50 -0.12
Si -7.53 -0.04 -0.12
Si -3.80 -6.50 -0.12
Si -0.07  4.26 -6.21
Si  3.66 -2.19 -6.21
Si -3.80 -2.19 -6.21
Si  1.76 -3.25  6.76
Si  5.49 -5.40  0.68
Si  3.68 -4.28 -5.29
Si -1.97  3.21  6.76
Si -7.38 -0.00 -2.37
Si  7.41 -2.13  0.80
Si -3.78 -4.28 -5.29
Si -3.65  6.45 -2.37
Si  5.49 -1.09 -5.41
Si -3.65 -6.46 -2.37
Si -1.88  5.38 -5.31
Si  1.85  7.54  0.78
Si -5.61 -1.08 -5.31
Si -1.97  7.52  0.68
Si  1.85  3.23  6.86
Si -5.61 -5.38  0.78
Si  3.68  0.02  6.89
Si -1.88 -3.23  6.86
Si  1.76  5.37 -5.41
Si -7.50 -2.13  0.80
Si -3.78  0.02  6.89
Si  3.81  6.45 -2.37
Si  3.81 -6.46 -2.37
Si  7.54 -0.00 -2.37
Si  1.77 -5.32 -6.03
Si  5.50  1.14 -6.03
Si  1.88  7.42  3.04
Si -1.77  7.51  2.94
Si -7.38  2.20 -3.00
Si  3.70 -4.25  6.05
Si -7.38 -2.11  3.09
Si  5.61  5.27 -3.05
Si -3.76 -4.25  6.05
Si -5.50  5.36 -3.15
Si -5.60  1.07 -6.06
Si -1.87 -5.39 -6.06
Si  1.86  5.38  6.12
Si  5.59 -1.08  6.12
Si  5.68 -5.41  2.94
Si  3.70  4.37 -6.12
Si -5.58 -5.49  3.04
Si  7.54  2.20 -3.00
Si -3.76  4.37 -6.12
Si  7.54 -2.11  3.09
Si  1.95 -7.56 -3.15
Si -1.85 -7.64 -3.05
Si -5.69 -1.01  6.14
Si -1.96  5.45  6.14
Si -1.79  1.14 -8.29
Si -0.08 -8.51  0.85
Si -7.41  2.07  3.75
Si  1.89  1.01 -8.29
Si -1.79 -7.48  3.89
Si -5.57  5.32  3.88
Si  7.38  4.40  0.85
Si  7.50  2.07  3.75
Si  0.05 -2.23 -8.43
Si  1.89 -7.60  3.88
Si -7.54  4.40  0.85
Si  5.67  5.44  3.89
Si  0.04  0.00 -9.09
Si -7.42 -4.31 -3.00
Si  0.04  8.61 -3.00
Si -7.42  4.31  3.09
Si  7.49 -4.31 -3.00
Si  0.04 -8.61  3.09
Si  7.49  4.31  3.09
Si  0.04  0.00  9.18
Si  5.49  3.21  6.76
Si  9.22  1.06  0.68
Si -7.38 -4.31  3.72
Si  5.49  7.52  0.68
Si  7.41  2.18 -5.29
Si  3.68 -8.59  0.80
Si  0.08  8.61  3.72
Si  5.58  5.38 -5.31
Si -1.88 -7.54 -5.31
Si  5.58 -3.23  6.86
Si -3.78 -8.59  0.80
Si -5.70 -3.25  6.76
Si -5.61  7.54  0.78
Si -0.05 -6.43  6.89
Si -9.34  1.08  0.78
Si -5.61  3.23  6.86
Si -7.50  2.18 -5.29
Si  7.54 -4.31  3.72
Si  1.76 -7.55 -5.41
Si -3.65 -2.16 -8.46
Si -0.05  6.48  6.89
Si  0.08  4.30 -8.46
Si -5.70  5.37 -5.41
Si  3.81 -2.16 -8.46
Si -1.77  3.20  9.03
Si -5.58  7.42  3.04
Si  1.77 -9.62  0.06
Si -3.65  0.04 -9.09
Si  1.95 -3.26  9.03
Si  9.23  3.29  0.06
Si  7.43 -6.40 -0.04
Si -3.65 -8.57  3.09
Si -9.23 -1.10 -3.15
Si  1.88  3.12  9.13
Si  7.43  2.21  6.05
Si -9.31  0.97  3.04
Si  1.88  3.12 -9.14
Si -1.87  7.53 -6.06
Si  5.58 -5.39 -6.06
Si  7.43 -2.09 -6.12
Si -7.49 -6.40 -0.04
Si -5.69 -5.32 -6.03
Si  3.81  0.04 -9.09
Si  1.86  9.68  0.03
Si -3.65  8.65 -3.00
Si  9.31 -3.24  0.03
Si  1.77  7.60 -6.03
Si  5.68  7.51  2.94
Si -5.50 -7.56 -3.15
Si -9.33  3.22  0.03
Si -1.96 -7.47  6.14
Si  3.81 -8.57  3.09
Si -1.87 -9.70  0.03
Si -3.65  0.04  9.18
Si -7.49  2.21  6.05
Si  5.50  5.45  6.14
Si  7.43  6.52 -0.04
Si -5.60  5.38  6.12
Si  1.86 -7.54  6.12
Si -1.85 -3.34  9.13
Si  9.34 -1.19 -3.05
Si -7.49 -2.09 -6.12
Si -1.85 -3.34 -9.14
Si  9.41  1.05  2.94
Si  3.81  8.65 -3.00
Si -7.49  6.52 -0.04
Si -1.77  3.20 -9.24
Si -9.42 -3.17  0.06
Si  3.81  0.04  9.18
Si -1.96  9.75  0.06
Si  5.61 -7.64 -3.05
Si  7.38 -4.21 -5.24
Si  1.95 -3.26 -9.24
Si -9.24 -3.17 -2.20
Si -3.68  8.53  3.75
Si  1.94 -5.32 -8.29
Si -5.57  1.01 -8.29
Si  1.89  9.62 -2.20
Si -7.41  6.38 -2.34
Si  3.78  8.53  3.75
Si -9.30  3.16 -2.20
Si  1.94 -9.63 -2.20
Si  0.05 -2.23  9.84
Si -1.84 -5.45 -8.29
Si  3.65 -6.36  6.93
Si -7.54 -4.21 -5.24
Si  5.67  1.14 -8.29
Si -3.68  4.23 -8.43
Si  7.50  6.38 -2.34
Si  7.38  0.10  6.93
Si -9.30 -1.14  3.88
Si -1.78  9.75 -2.20
Si -3.81 -6.36  6.93
Si  9.35 -3.30 -2.20
Si  3.78  4.23 -8.43
Si -7.41 -6.54 -2.34
Si  5.67 -7.48  3.89
Si -0.08  8.71 -5.24
Si -1.84 -9.75 -2.20
Si -5.57 -7.60  3.88
Si  9.40  3.29 -2.20
Si  1.89  1.01  9.97
Si -1.79  1.14  9.98
Si  3.65  6.56  6.93
Si  7.50 -6.54 -2.34
Si  9.40 -1.02  3.89
Si -7.54  0.10  6.93
Si -3.81  6.56  6.93
Si -0.07  8.57  5.97
Si  7.39 -4.35  5.97
Si -7.53 -4.35  5.97
Si  7.39  4.26 -6.21
Si -7.53  4.26 -6.21
Si -0.07 -8.65 -6.21
Si -3.65 -2.16  9.81
Si  0.08  4.30  9.81
Si  3.81 -2.16  9.81
Si  9.31 -1.08 -5.31
Si  3.68  8.63 -5.29
Si  5.58 -7.54 -5.31
Si  9.31 -5.38  0.78
Si -3.77  8.63 -5.29
Si -0.05 10.79  0.80
Si -9.43 -5.40  0.68
Si -5.70 -7.55 -5.41
Si -9.43 -1.09 -5.41
Si -5.50 -3.26  9.03
Si -9.23 -5.41  2.94
Si -9.31  5.27 -3.05
Si  0.08 -6.42 -9.09
Si  5.50 -7.47  6.14
Si  9.22 -1.01  6.14
Si  0.08 -10.72 -3.00
Si  5.68  3.20  9.03
Si -5.58  3.12  9.13
Si  3.70 -8.55 -6.12
Si -5.58  3.12 -9.14
Si 11.15  0.06 -0.04
Si  5.59  7.53 -6.06
Si  9.31  1.07 -6.06
Si -3.76 -8.55 -6.12
Si  0.08  6.50 -9.09
Si -5.69 -9.62  0.06
Si -5.60  9.68  0.03
Si  5.58 -9.70  0.03
Si  5.50  9.75  0.06
Si  0.08 -6.42  9.18
Si  3.70  8.67  6.05
Si -9.33 -1.08  6.12
Si -5.60 -7.54  6.12
Si -11.22  0.06 -0.04
Si  5.61 -3.34  9.13
Si -3.76  8.67  6.05
Si  5.61 -3.34 -9.14
Si -5.50 -3.26 -9.24
Si  0.08 10.81  3.09
Si -9.42  1.14 -6.03
Si -5.69  7.60 -6.03
Si  0.08  6.50  9.18
Si  9.34 -5.49  3.04
Si  9.41  5.36 -3.15
Si -5.52 -5.32 -8.29
Si  7.38 -8.51  0.85
Si  5.68  3.20 -9.24
Si -1.84  7.47 -8.29
Si -5.52 -9.63 -2.20
Si -3.68  4.23  9.84
Si 11.11 -2.05  0.85
Si -0.08  0.10 -11.33
Si -5.57  9.62 -2.20
Si  3.78  4.23  9.84
Si -11.14 -0.08 -2.34
Si -7.54 -8.51  0.85
Si  5.62 -5.45 -8.29
Si  1.94  7.59 -8.29
Si -9.24  5.44  3.89
Si  9.35  5.32  3.88
Si -7.41 -2.23 -8.43
Si -5.57  1.01  9.97
Si  5.62 -9.75 -2.20
Si  0.05 -10.84  3.75
Si 11.23 -0.08 -2.34
Si  1.94 -5.32  9.98
Si -11.27 -2.05  0.85
Si  5.67  9.75 -2.20
Si  3.65 10.86  0.85
Si  7.50 -2.23 -8.43
Si -1.84 -5.45  9.97
Si  5.67  1.14  9.98
Si -3.81 10.86  0.85
Si -7.42  0.00 -9.09
Si -3.69  6.46 -9.09
Si -3.69 -6.46 -9.09
Si -11.15  2.15 -3.00
Si -7.42  8.61 -3.00
Si  3.76 -6.46 -9.09
Si  3.77  6.46 -9.09
Si -3.69 -10.76 -3.00
Si -11.15 -2.15  3.09
Si  7.49  0.00 -9.09
Si -7.42 -8.61  3.09
Si  3.76 -10.76 -3.00
Si -3.69 10.77  3.09
Si  7.50  8.61 -3.00
Si -7.42  0.00  9.18
Si 11.22  2.15 -3.00
Si  3.77 10.77  3.09
Si -3.69  6.46  9.18
Si -3.69 -6.46  9.18
Si  7.49 -8.61  3.09
Si 11.22 -2.15  3.09
Si  3.76 -6.46  9.18
Si  3.77  6.46  9.18
Si  7.49  0.00  9.18
Si  9.22 -3.25  6.76
Si -11.11  2.15  3.72
Si -7.38  8.61  3.72
Si  1.76  9.67  6.76
Si  3.68  0.02 -11.38
Si  9.22  5.37 -5.41
Si -3.65 -10.77  3.72
Si -0.05 -10.74 -5.29
Si 11.14  4.33  0.80
Si -3.78  0.02 -11.38
Si -1.97 -9.70  6.76
Si  7.41 -6.43  6.89
Si  1.85  3.23 -11.40
Si -1.88 -3.23 -11.40
Si  9.31  7.54  0.78
Si  1.76 -11.86  0.68
Si  9.31  3.23  6.86
Si  3.81 -10.77  3.72
Si -1.88 -11.84  0.78
Si -9.34  5.38 -5.31
Si  1.85 -9.69  6.86
Si -7.38  4.30 -8.46
Si  7.41  6.48  6.89
Si -1.88  9.69  6.86
Si -9.34 -3.23  6.86
Si  7.54  8.61  3.72
Si -9.43  3.21  6.76
Si -7.51 -6.43  6.89
Si 11.27  2.15  3.72
Si -11.23  4.33  0.80
Si  0.08 -8.62 -8.46
Si -7.50  6.48  6.89
Si -9.43  7.52  0.68
Si  1.76 -3.25 -11.50
Si -1.97  3.21 -11.50
Si  7.54  4.30 -8.46
Si  9.22 -5.32 -6.03
Si -9.23  7.51  2.94
Si  1.88 11.73 -3.05
Si -11.11 -4.26 -3.00
Si  1.77 -1.01 -12.12
Si -0.03 -10.70  6.05
Si  9.34  7.42  3.04
Si -0.03 -2.09 12.14
Si -11.11  4.35  3.09
Si -1.87 -1.08 -12.15
Si -1.77 11.81 -3.15
Si -9.33 -5.39 -6.06
Si  9.32  5.38  6.12
Si  1.95 -11.87  2.94
Si  1.86  1.07 12.21
Si -0.03  2.21 -12.21
Si 11.27 -4.26 -3.00
Si -9.31 -7.64 -3.05
Si  3.65 -10.67 -5.24
Si -0.03 10.82 -6.12
Si -1.96  1.14 12.23
Si -9.24  1.14 -8.29
Si 11.27  4.35  3.09
Si -1.85 -11.95  3.04
Si  9.41 -7.56 -3.15
Si -3.81 -10.67 -5.24
Si 11.11  2.25 -5.24
Si  5.62  7.47 -8.29
Si -9.42  5.45  6.14
Si -9.24 -7.48  3.89
Si -7.41 -2.23  9.84
Si -5.51  7.59 -8.29
Si -1.84 11.78  3.88
Si  9.35  1.01 -8.29
Si -11.14 -4.38  3.75
Si  7.38  8.71 -5.24
Si  7.50 -2.23  9.84
Si -5.51 -5.32  9.98
Si -1.84  7.47  9.97
Si -11.27  2.25 -5.24
Si 11.23 -4.38  3.75
Si -3.68 -8.69 -8.43
Si -7.54  8.71 -5.24
Si  9.35 -7.60  3.88
Si  1.94 11.90  3.89
Si  5.62 -5.45  9.97
Si  3.77 -8.69 -8.43
Si  1.94  7.59  9.98
Si -0.07  4.26 12.06
Si  3.66 -2.19 12.06
Si  7.39  8.57  5.97
Si 11.12  2.11  5.97
Si -3.80 -2.19 12.06
Si 11.12  6.42 -0.12
Si -7.53  8.57  5.97
Si -0.07 12.88 -0.12
Si  3.66 -10.81  5.97
Si 11.12 -6.50 -0.12
Si -11.25  2.11  5.97
Si -3.80 -10.81  5.97
Si  3.66 10.72 -6.21
Si 11.12 -2.19 -6.21
Si -11.25  6.42 -0.12
Si -3.80 10.72 -6.21
Si -0.07 -12.96 -0.12
Si  7.39 -8.65 -6.21
Si -11.26 -6.50 -0.12
Si  3.66  2.11 -12.29
Si -7.38  4.30  9.81
Si -11.26 -2.19 -6.21
Si -3.80  2.11 -12.29
Si  5.49 -9.70  6.76
Si -7.53 -8.65 -6.21
Si -0.07 -4.35 -12.29
Si -1.97 -1.09 12.85
Si 11.14 -4.28 -5.29
Si  0.08 -8.62  9.81
Si -11.11  6.45 -2.37
Si -11.11 -6.46 -2.37
Si -0.05 -6.43 -11.38
Si  9.22 -7.55 -5.41
Si -0.05  6.48 -11.38
Si  5.58 -3.23 -11.40
