500
set: 673.00  0.00  0.00
Si -0.49 -0.94  0.36
Si  1.74  0.49  0.93
Si -2.46  0.52  0.06
Si  0.70 -1.96 -1.45
Si -0.04  0.39 -3.14
Si -0.39 -2.90  1.39
Si  1.59  2.93 -0.05
Si -0.12  2.69 -2.59
Si -2.33  2.94 -1.13
Si -3.09 -0.62  2.41
Si  2.13  2.62  2.15
Si -1.37  3.29  1.92
Si  2.28  0.35 -3.40
Si -1.53 -1.75 -3.39
Si  4.04  0.79  0.38
Si -1.97 -3.51 -1.07
Si  0.57  2.15  3.77
Si -3.59 -2.40  0.79
Si  3.35 -1.91 -2.33
Si  3.28 -1.10  2.94
Si -4.43 -0.62 -0.91
Si  0.04  4.62  0.79
Si -1.80 -3.09  3.09
Si -3.55 -1.32 -2.94
Si  4.19  0.68 -2.26
Si -3.31  1.50 -3.23
Si  1.34 -1.70 -4.45
Si  0.38 -4.83 -1.35
Si  1.30 -4.57  1.97
Si  4.91 -1.39  0.61
Si  3.82 -3.66 -0.51
Si  3.80  3.75  0.06
Si -0.62  1.17 -5.18
Si  3.85  1.08  3.65
Si -1.51  2.92  4.30
Si  3.61 -3.75  2.17
Si -5.01  2.39 -1.39
Si -2.22 -0.92  5.22
Si -4.08  1.16  3.88
Si  2.96  4.79 -1.65
Si -0.62  1.17  5.73
Si -0.43  4.84 -3.32
Si  3.98  2.98 -3.17
Si  1.95  1.86 -5.34
Si  3.16  4.96  1.89
Si -2.22 -0.92 -5.70
Si  1.95  1.86  5.57
Si -0.77 -2.85  5.44
Si -6.00 -1.39  0.61
Si -5.35  2.53  1.89
Si -0.77 -2.85 -5.48
Si  0.38  6.08 -1.35
Si -2.85  5.25 -1.89
Si  3.17 -1.71  5.18
Si  0.04 -6.29  0.79
Si  5.57  2.53  1.89
Si -3.16  4.66  3.23
Si -4.51 -4.61 -0.76
Si -4.29 -0.29 -4.90
Si  5.91  2.39 -1.39
Si  1.37 -4.15  4.86
Si -5.31 -3.07 -2.27
Si  6.48 -0.62 -0.91
Si -4.75 -3.80  2.51
Si -2.85 -5.66 -1.89
Si  4.37  0.11 -5.09
Si  4.29  3.69  3.61
Si  3.17 -1.71 -5.73
Si  1.30  6.35  1.97
Si  5.60 -3.07 -2.27
Si -4.26  4.03 -3.41
Si  1.34 -1.70  6.47
Si -3.53 -3.90  4.39
Si -6.88  0.79  0.38
Si -0.43 -6.07 -3.32
Si  2.96 -6.12 -1.65
Si  3.16 -5.96  1.89
Si  2.04  5.38 -4.18
Si -6.72  0.68 -2.26
Si  0.12  4.73  5.42
Si  2.04 -5.53 -4.18
Si  0.12  4.73 -5.49
Si  3.27  3.81 -5.23
Si  4.37  0.11  5.83
Si -5.07  5.17  1.29
Si -1.51  2.92 -6.61
Si -4.29 -0.29  6.01
Si  1.37 -4.15 -6.05
Si  0.57  2.15 -7.14
Si  4.58 -3.31  4.98
Si  3.27  3.81  5.68
Si -4.61 -4.05 -4.51
Si  6.17 -3.80  2.51
Si -3.16 -6.26  3.23
Si -1.97  7.40 -1.07
Si  7.32 -2.40  0.79
Si -5.07 -5.74  1.29
Si -0.04  0.39  7.77
Si -4.51  6.31 -0.76
Si  2.28  0.35  7.51
Si -1.53 -1.75  7.53
Si  5.85  5.17  1.29
Si  6.40 -4.61 -0.76
Si  6.84  1.16  3.88
Si -1.37 -7.63  1.92
Si -7.10 -3.66 -0.51
Si -7.07  1.08  3.65
Si  7.36 -1.32 -2.94
Si -7.12  3.75  0.06
Si  3.80 -7.16  0.06
Si  1.59 -7.98 -0.05
Si -0.39  8.01  1.39
Si -7.57 -1.91 -2.33
Si -6.93  2.98 -3.17
Si  4.58 -3.31 -5.93
Si -4.08  1.16 -7.03
Si  7.83 -0.62  2.41
Si  3.82  7.26 -0.51
Si  0.12 -6.18  5.42
Si  6.62 -0.29 -4.90
Si -7.63 -1.10  2.94
Si  0.12 -6.18 -5.49
Si  3.85  1.08 -7.26
Si -6.55  0.11 -5.09
Si  5.85 -5.74  1.29
Si  3.61  7.17  2.17
Si -2.33 -7.97 -1.13
Si -3.53 -3.90 -6.52
Si -6.62  3.69  3.61
Si  7.61  1.50 -3.23
Si  1.37  6.76  4.86
Si  8.45  0.52  0.06
Si -7.30 -3.75  2.17
Si  6.66  4.03 -3.41
Si -3.31  1.50  7.68
Si -1.80 -3.09 -7.82
Si -1.80  7.83  3.09
Si -0.12 -8.22 -2.59
Si  3.28 -1.10 -7.97
Si -6.34 -3.31  4.98
Si  6.30 -4.05 -4.51
Si -0.12  2.69  8.32
Si -6.55  0.11  5.83
Si -4.26 -6.88 -3.41
Si  2.13 -8.29  2.15
Si -3.55 -1.32  7.97
Si  2.04  5.38  6.73
Si -4.61 -4.05  6.41
Si -4.75  7.12  2.51
Si  2.04 -5.53  6.73
Si  6.62 -0.29  6.01
Si -3.53  7.01  4.39
Si -0.43  4.84  7.59
Si  6.40  6.31 -0.76
Si -3.09 -0.62 -8.51
Si  0.70  8.95 -1.45
Si  8.58  2.94 -1.13
Si  4.29 -7.22  3.61
Si  1.37  6.76 -6.05
Si -1.51 -7.99  4.30
Si  3.98  2.98  7.74
Si -9.17  0.49  0.93
Si  4.29  3.69 -7.30
Si -3.59  8.51  0.79
Si -8.63  0.35 -3.40
Si -6.34 -3.31 -5.93
Si -7.75  4.96  1.89
Si  2.13  2.62 -8.77
Si  3.35 -1.91  8.58
Si  3.27 -7.10 -5.23
Si -8.78  2.62  2.15
Si -4.61  6.87 -4.51
Si  3.98 -7.93 -3.17
Si -7.95  4.79 -1.65
Si  7.38 -3.90  4.39
Si -7.74 -1.71  5.18
Si -3.16  4.66 -7.69
Si -4.26  4.03  7.51
Si  0.57 -8.76  3.77
Si  7.75  4.66  3.23
Si  4.19  0.68  8.66
Si  8.94 -3.51 -1.07
Si  3.27 -7.10  5.68
Si -1.37  3.29 -8.99
Si  0.70 -1.96  9.46
Si -0.43 -6.07  7.59
Si -5.31  7.84 -2.27
Si  6.17  7.12  2.51
Si -0.77  8.06  5.44
Si -9.32  2.93 -0.05
Si -0.77  8.06 -5.48
Si -7.74 -1.71 -5.73
Si  8.06  5.25 -1.89
Si  6.30 -4.05  6.41
Si  6.84  1.16 -7.03
Si -1.53  9.16 -3.39
Si  3.35  9.01 -2.33
Si  5.60  7.84 -2.27
Si -7.75 -5.96  1.89
Si -0.39 -2.90 -9.52
Si -5.01 -8.52 -1.39
Si -0.49  9.97  0.36
Si -7.64  3.81 -5.23
Si  8.06 -5.66 -1.89
Si -7.12 -7.16  0.06
Si  9.12 -3.09  3.09
Si  1.30 -4.57 -8.94
Si  9.38 -1.75 -3.39
Si -5.35 -8.39  1.89
Si  1.74  0.49 -9.98
Si -7.10  7.26 -0.51
Si  6.66 -6.88 -3.41
Si -7.95 -6.12 -1.65
Si  3.61 -3.75 -8.74
Si  4.58  7.61  4.98
Si  8.70 -0.92  5.22
Si -7.07  1.08 -7.26
Si -3.53  7.01 -6.52
Si  5.57 -8.39  1.89
Si -7.64  3.81  5.68
Si  9.54  3.29  1.92
Si  1.34  9.22 -4.45
Si  6.30  6.87 -4.51
Si -4.75 -3.80 -8.41
Si -3.16 -6.26 -7.69
Si  8.70 -0.92 -5.70
Si -6.62 -7.22  3.61
Si  5.91 -8.52 -1.39
Si -7.30  7.17  2.17
Si -4.61  6.87  6.41
Si 10.42 -0.94  0.36
Si  7.75 -6.26  3.23
Si -2.33  2.94  9.78
Si -1.51 -7.99 -6.61
Si -3.31 -9.41 -3.23
Si -10.21 -1.96 -1.45
Si -6.62  3.69 -7.30
Si  7.38 -3.90 -6.52
Si -5.31 -3.07  8.64
Si -8.97  1.86 -5.34
Si  1.74 -10.42  0.93
Si -0.49 -0.94 -10.55
Si -1.97 -3.51  9.84
Si -3.55  9.59 -2.94
Si  4.58  7.61 -5.93
Si -2.46 -10.39  0.06
Si -9.57 -1.70 -4.45
Si  1.95 -9.06 -5.34
Si  0.38 -4.83  9.56
Si -8.97  1.86  5.57
Si  4.91  9.53  0.61
Si  5.60 -3.07  8.64
Si  9.40  2.92  4.30
Si  3.28  9.81  2.94
Si  3.16  4.96 -9.02
Si -5.35  2.53 -9.02
Si  1.95 -9.06  5.57
Si -6.93  2.98  7.74
Si  6.66  4.03  7.51
Si -9.61 -4.57  1.97
Si -2.85  5.25  9.03
Si  2.96  4.79  9.27
Si  5.57  2.53 -9.02
Si  4.04 -10.12  0.38
Si  7.61  1.50  7.68
Si  7.36 -1.32  7.97
Si -4.43 -0.62 10.01
Si -6.72  0.68  8.66
Si -0.04 -10.53 -3.14
Si -6.93 -7.93 -3.17
Si -3.59 -2.40 -10.12
Si 10.53 -2.90  1.39
Si -3.09 10.30  2.41
Si -5.01  2.39  9.52
Si  3.17  9.20  5.18
Si -2.85 -5.66  9.03
Si -4.26 -6.88  7.51
Si  1.30  6.35 -8.94
Si -0.62 -9.74 -5.18
Si -6.34  7.61  4.98
Si  7.38  7.01  4.39
Si -7.63 -1.10 -7.97
Si  6.17 -3.80 -8.41
Si  0.04  4.62 -10.12
Si  4.29 -7.22 -7.30
Si -2.46  0.52 -10.85
Si  3.85 -9.83  3.65
Si -8.88  5.38 -4.18
Si -1.80  7.83 -7.82
Si -10.35  2.15  3.77
Si -4.43 10.30 -0.91
Si  7.32  8.51  0.79
Si -4.08 -9.75  3.88
Si -2.46  0.52 10.98
Si  3.16 -5.96 -9.02
Si -8.88 -5.53 -4.18
Si -6.00  9.53  0.61
Si  4.19 -10.23 -2.26
Si  3.17  9.20 -5.73
Si  4.04  0.79 -10.53
Si  6.30  6.87  6.41
Si -0.62 -9.74  5.73
Si  0.57 -8.76 -7.14
Si -0.49 -0.94 11.27
Si 10.88  0.39 -3.14
Si  2.28 -10.56 -3.40
Si  0.38  6.08  9.56
Si  1.34  9.22  6.47
Si  1.59  2.93 10.86
Si -10.95  0.39 -3.14
Si 10.80  2.69 -2.59
Si -8.63  0.35  7.51
Si -11.40 -0.94  0.36
Si  5.91  2.39  9.52
Si  1.59  2.93 -10.96
Si -9.55 -4.15  4.86
Si -2.22  9.99  5.22
Si  2.96 -6.12  9.27
Si  4.91 -1.39 -10.30
Si -6.34  7.61 -5.93
Si  1.74 11.40  0.93
Si  7.83 -0.62 -8.51
Si 10.29  1.17 -5.18
Si -7.57 -1.91  8.58
Si -11.03  2.69 -2.59
Si  8.94  7.40 -1.07
Si -7.64 -7.10 -5.23
Si -10.54 -4.83 -1.35
Si  3.82 -3.66 10.41
Si -9.57 -1.70  6.47
Si -9.61  6.35  1.97
Si -2.46 11.43  0.06
Si -0.12 -8.22  8.32
Si -2.22  9.99 -5.70
Si -0.04 11.30 -3.14
Si -11.30 -2.90  1.39
Si  8.58 -7.97 -1.13
Si  3.98 -7.93  7.74
Si 10.29  1.17  5.73
Si -10.88  4.62  0.79
Si 10.14 -2.85  5.44
Si  9.40  2.92 -6.61
Si  3.61  7.17 -8.74
Si 11.61 -1.96 -1.45
Si  7.75  4.66 -7.69
Si -0.49 -11.86  0.36
Si 10.14 -2.85 -5.48
Si -1.37 -7.63 -8.99
Si -7.64 -7.10  5.68
Si 10.95  4.62  0.79
Si  0.04 -6.29 -10.12
Si  6.48 -0.62 10.01
Si -1.53  9.16  7.53
Si  1.74  0.49 11.85
Si  2.28 11.26 -3.40
Si -7.30 -3.75 -8.74
Si -7.57  9.01 -2.33
Si -4.75  7.12 -8.41
Si -6.00 -1.39 -10.30
Si 10.48  4.84 -3.32
Si  4.04  0.79 11.30
Si -4.51 -4.61 10.16
Si -9.55 -4.15 -6.05
Si -5.07  5.17 -9.62
Si  7.38  7.01 -6.52
Si  3.80  3.75 -10.85
Si  9.38 -1.75  7.53
Si  6.66 -6.88  7.51
Si -3.09 -11.53  2.41
Si  6.48 10.30 -0.91
Si  3.80  3.75 10.97
Si -6.62 -7.22 -7.30
Si -6.88 -10.12  0.38
Si -10.54  6.08 -1.35
Si  2.13 -8.29 -8.77
Si -8.78 -8.29  2.15
Si -9.32 -7.98 -0.05
Si 11.48  2.15  3.77
Si -5.07 -5.74 -9.62
Si 11.29 -4.83 -1.35
Si  9.54 -7.63  1.92
Si -8.88  5.38  6.73
Si -4.43 -11.53 -0.91
Si  4.04 11.71  0.38
Si  5.85  5.17 -9.62
Si  9.12 -3.09 -7.82
Si  9.12  7.83  3.09
Si -8.88 -5.53  6.73
Si  7.36  9.59 -2.94
Si -6.72 -10.23 -2.26
Si -0.39  8.01 -9.52
Si -4.29 10.63 -4.90
Si -1.97  7.40  9.84
Si -3.59 -2.40 11.71
Si  7.61 -9.41 -3.23
Si  6.84 -9.75  3.88
Si  4.19 11.60 -2.26
Si  0.70 -1.96 -12.37
Si 10.48 -6.07 -3.32
Si  7.75 -6.26 -7.69
Si  3.82 -3.66 -11.42
Si  0.04  4.62 11.71
Si -3.31 -9.41  7.68
Si -10.88 -6.29  0.79
Si  4.91 -1.39 11.52
Si -6.88  0.79 -10.53
Si -2.33  2.94 -12.05
Si  6.17  7.12 -8.41
Si -4.43 -0.62 -11.82
Si  5.85 -5.74 -9.62
Si -1.97 -3.51 -11.99
Si -7.07 -9.83  3.65
Si -0.39 -2.90 12.30
Si 10.95 -6.29  0.79
Si -9.55  6.76  4.86
Si -8.78  2.62 -8.77
Si -4.08 -9.75 -7.03
Si 12.65  0.49  0.93
Si -11.53  1.17 -5.18
Si  4.37 -10.80 -5.09
Si  7.32 -2.40 -10.12
Si -10.35  2.15 -7.14
Si -7.63  9.81  2.94
Si -11.34  4.84 -3.32
Si -4.51  6.31 10.16
Si  3.28 -12.02  2.94
Si  3.85 -9.83 -7.26
Si -5.31  7.84  8.64
Si -2.33 -7.97  9.78
Si 12.51  2.93 -0.05
Si -12.28  3.29  1.92
Si  6.40 -4.61 10.16
Si  3.35  9.01  8.58
Si -7.75  4.96 -9.02
Si 11.29  6.08 -1.35
Si  4.37 11.03 -5.09
Si -11.53  1.17  5.73
Si -4.29 10.63  6.01
Si  5.60  7.84  8.64
Si -4.29 -11.20 -4.90
Si -3.55  9.59  7.97
Si -10.79  4.73  5.42
Si  0.70 -12.88 -1.45
Si -10.79  4.73 -5.49
Si -12.45 -1.75 -3.39
Si  4.37 -10.80  5.83
Si  0.70  8.95  9.46
Si  3.28  9.81 -7.97
Si -6.00 -1.39 11.52
Si  9.40 -7.99  4.30
Si -6.93 -7.93  7.74
Si -3.55 -12.24 -2.94
Si -0.04 -10.53  7.77
Si -7.74  9.20  5.18
Si  3.85 11.99  3.65
Si -7.10 -3.66 10.41
Si -7.95  4.79  9.27
Si -2.22 -11.84  5.22
Si 12.25 -1.70 -4.45
Si  7.83 10.30  2.41
Si  2.28 -10.56  7.51
Si -0.62 12.09 -5.18
Si -9.55  6.76 -6.05
Si 11.03  4.73  5.42
Si 12.21 -4.57  1.97
Si  0.38 -4.83 -12.27
Si  8.06  5.25  9.03
Si 11.03  4.73 -5.49
Si -11.69 -2.85  5.44
Si -1.53 -12.67 -3.39
Si  4.37 11.03  5.83
Si -11.69 -2.85 -5.48
Si -6.88  0.79 11.30
Si  3.82  7.26 10.41
Si -3.31 12.42 -3.23
Si  6.48 -11.53 -0.91
Si  4.91 -12.30  0.61
Si -11.34 -6.07 -3.32
Si  0.04 -6.29 11.71
Si -7.75 -5.96 -9.02
Si 10.53  8.01  1.39
Si -1.37  3.29 12.83
Si -2.22 -11.84 -5.70
Si -7.74  9.20 -5.73
Si -4.08 12.08  3.88
Si -4.51 -4.61 -11.67
Si  8.58  2.94  9.78
Si  8.06 -5.66  9.03
Si 10.88  0.39  7.77
Si -13.38  0.52  0.06
Si -0.62 12.09  5.73
Si  8.45 -10.39  0.06
Si -12.89 -3.51 -1.07
Si -4.29 -11.20  6.01
Si -5.35 -8.39 -9.02
Si -10.95  0.39  7.77
Si  1.34 -12.61 -4.45
Si -12.71 -3.09  3.09
Si  6.62 10.63 -4.90
Si  3.35 -12.82 -2.33
