500
set: 1512.00  0.00  0.00
Si  1.00 -0.57 -0.27
Si  1.27  1.79  0.39
Si -1.14 -1.82  0.91
Si -1.13  2.02  0.61
Si  0.55 -1.62 -1.96
Si  1.56  0.54  2.23
Si -2.19 -0.08  1.96
Si -1.29  2.38 -1.43
Si  0.00 -1.74  2.75
Si  2.94 -2.08 -0.22
Si -3.16 -2.08 -0.22
Si  0.26 -0.38 -3.80
Si -2.14 -0.14 -3.58
Si -1.01 -3.90 -1.43
Si  2.89 -2.24 -2.22
Si  3.91 -0.08  1.96
Si -0.84 -4.26  0.61
Si -3.20 -2.24 -2.22
Si -2.14  0.08  3.97
Si  2.01  1.59  3.92
Si -2.44  2.29 -3.27
Si -1.43  4.46  0.91
Si  1.55 -4.50  0.39
Si  2.65  4.20 -0.22
Si  0.26  4.66 -1.96
Si -4.53  0.54  2.23
Si -0.13  0.34  5.10
Si  1.64  2.03 -4.40
Si -5.10 -0.57 -0.27
Si -4.82  1.79  0.39
Si -0.02 -2.74 -4.46
Si  0.17 -2.09  4.80
Si  2.61  4.04 -2.22
Si -0.28  4.54  2.75
Si  3.95 -0.14 -3.58
Si  4.95 -1.82  0.91
Si  4.97  2.02  0.61
Si  3.65  2.29 -3.27
Si -3.44  4.20 -0.22
Si  4.80  2.38 -1.43
Si -2.16 -3.99 -3.27
Si  3.95  0.08  3.97
Si -0.30  3.54 -4.46
Si  2.57 -2.33  4.58
Si  0.71  5.71 -0.27
Si -3.49  4.04 -2.22
Si -4.08  1.59  3.92
Si -2.31  0.21 -5.62
Si -5.55 -1.62 -1.96
Si -3.52 -2.33  4.58
Si -0.11  4.19  4.80
Si -4.54 -4.50  0.39
Si  1.92 -4.25 -4.40
Si  1.84 -5.74  2.23
Si  2.29  3.95  4.58
Si  3.94 -3.99 -3.27
Si  4.67  4.46  0.91
Si  2.30 -4.69  3.92
Si  5.08 -3.90 -1.43
Si -4.46  2.03 -4.40
Si -1.17  2.09  6.15
Si -0.75  2.49 -6.14
Si  3.78  0.21 -5.62
Si  5.25 -4.26  0.61
Si  1.59  1.87 -6.41
Si -6.09 -1.74  2.75
Si  6.10 -1.74  2.75
Si -1.90 -6.36  1.96
Si -2.47  6.20  1.96
Si -5.84 -0.38 -3.80
Si  1.28 -6.86 -0.27
Si -0.03  5.90 -3.80
Si  1.02  0.43  6.94
Si  6.64 -1.62 -1.96
Si  7.09 -0.57 -0.27
Si -3.81  3.95  4.58
Si -3.80 -4.69  3.92
Si -0.47 -3.79 -6.14
Si  1.28  6.82  2.23
Si -4.17 -4.25 -4.40
Si  6.35 -0.38 -3.80
Si  2.58  2.71  6.42
Si  3.62  6.20  1.96
Si -4.25 -5.74  2.23
Si -0.89 -4.19  6.15
Si -2.43  6.14 -3.58
Si -7.24 -1.82  0.91
Si -7.22  2.02  0.61
Si -1.86 -6.42 -3.58
Si  7.37  1.79  0.39
Si -1.86 -6.20  3.97
Si  0.54 -6.66 -3.80
Si -5.83  4.66 -1.96
Si -3.52  2.71  6.42
Si  0.16 -5.94  5.10
Si -5.38  5.71 -0.27
Si  5.97  0.34  5.10
Si  4.19 -6.36  1.96
Si  5.81  4.54  2.75
Si -2.43  6.36  3.97
Si  2.86 -3.57  6.42
Si -7.39  2.38 -1.43
Si -5.92 -2.09  4.80
Si  2.64  0.13 -7.46
Si  7.66  0.54  2.23
Si  3.67  6.14 -3.58
Si  1.88 -4.41 -6.41
Si  6.08 -2.74 -4.46
Si -3.23 -3.57  6.42
Si -6.11 -2.74 -4.46
Si -6.22  0.34  5.10
Si -4.50  1.87 -6.41
Si  6.36  4.66 -1.96
Si  5.79  3.54 -4.46
Si  0.99  8.07  0.39
Si  4.92  2.09  6.15
Si  6.26 -2.09  4.80
Si -6.94 -4.26  0.61
Si  0.83 -7.91 -1.96
Si -0.86 -8.10  0.91
Si -3.46  0.13 -7.46
Si -7.11 -3.90 -1.43
Si -6.38  4.54  2.75
Si  3.67  6.36  3.97
Si -0.41  6.62  5.10
Si -4.81 -6.86 -0.27
Si -0.76 -2.55 -7.99
Si -1.41  8.30  0.61
Si  0.29 -8.02  2.75
Si  4.24 -6.42 -3.58
Si  4.24 -6.20  3.97
Si -8.28 -0.08  1.96
Si  5.34  2.49 -6.14
Si -2.03 -6.07 -5.62
Si -1.13  2.25  8.16
Si -6.40  3.54 -4.46
Si -5.08  0.43  6.94
Si  2.94 -2.31 -7.76
Si  0.62 -0.14 -8.59
Si -4.82  6.82  2.23
Si -3.16 -2.31 -7.76
Si  5.98  4.19  4.80
Si -7.52  4.46  0.91
Si -2.87 -8.37 -0.22
Si -4.22 -4.41 -6.41
Si -1.32  1.38 -8.64
Si -1.04  3.73 -7.99
Si  7.65 -4.50  0.39
Si  6.81  5.71 -0.27
Si -6.21  4.19  4.80
Si -1.58  8.66 -1.43
Si -2.78 -2.52  8.10
Si  1.73  7.87  3.92
Si  3.22 -8.37 -0.22
Si -2.60  6.49 -5.62
Si -8.24 -0.14 -3.58
Si  1.19  0.07  8.98
Si  5.21 -4.19  6.15
Si  3.31 -2.52  8.10
Si  2.65  3.97 -7.76
Si -2.51 -0.16  8.76
Si  7.73  2.03 -4.40
Si -0.84 -4.04  8.16
Si -8.24  0.08  3.97
Si  8.11  1.59  3.92
Si  5.62 -3.79 -6.14
Si  1.30 -5.85  6.94
Si  4.07 -6.07 -5.62
Si  3.50  6.49 -5.62
Si  9.03 -2.08 -0.22
Si  6.07  5.90 -3.80
Si -2.92 -8.53 -2.22
Si -6.12  5.90 -3.80
Si  3.18 -8.53 -2.22
Si -3.44  3.97 -7.76
Si -8.54  2.29 -3.27
Si  3.03  3.76  8.10
Si -3.07  3.76  8.10
Si -5.55 -6.66 -3.80
Si  3.58 -0.16  8.76
Si -9.25 -2.08 -0.22
Si  1.35  8.31 -4.40
Si  8.99 -2.24 -2.22
Si -6.85  2.49 -6.14
Si  4.68  8.30  0.61
Si -5.11  8.07  0.39
Si -2.73  8.57 -3.27
Si  0.89  2.51  9.29
Si  0.46 -8.38  4.80
Si  0.73  6.71  6.94
Si  5.24 -8.10  0.91
Si -5.26 -7.91 -1.96
Si  8.75  4.20 -0.22
Si -8.25 -3.99 -3.27
Si -7.27  2.09  6.15
Si -6.56 -3.79 -6.14
Si  3.37  8.57 -3.27
Si  4.97  2.25  8.16
Si -4.37  7.87  3.92
Si -9.30 -2.24 -2.22
Si -5.94 -5.94  5.10
Si  8.70  4.04 -2.22
Si  4.51  8.66 -1.43
Si  5.33 -2.55 -7.99
Si  7.11  0.43  6.94
Si  4.78  1.38 -8.64
Si -1.03 -4.91 -8.64
Si  6.25 -5.94  5.10
Si  7.94 -5.74  2.23
Si  0.27 -9.02 -4.46
Si  8.66 -2.33  4.58
Si  7.38 -6.86 -0.27
Si  8.02 -4.25 -4.40
Si  1.17 -3.77  9.29
Si  2.92 -6.15 -7.46
Si  5.68  6.62  5.10
Si -8.40  0.21 -5.62
Si  2.35  6.41 -7.46
Si  6.63 -6.66 -3.80
Si  5.05  3.73 -7.99
Si  2.85 -8.61  4.58
Si -3.17 -6.15 -7.46
Si  7.69  1.87 -6.41
Si -5.47 -0.14 -8.59
Si 10.00 -0.08  1.96
Si -6.98 -4.19  6.15
Si -4.91  0.07  8.98
Si -4.79 -5.85  6.94
Si -3.24 -8.61  4.58
Si -5.81 -8.02  2.75
Si  7.37  6.82  2.23
Si -0.73 -10.18 -1.43
Si  8.38  3.95  4.58
Si  2.77 -1.95 -9.80
Si  8.39 -4.69  3.92
Si -8.00 -6.36  1.96
Si -9.54  4.20 -0.22
Si  1.31  8.15 -6.41
Si -1.77  0.33 -10.33
Si -1.46  8.37  6.15
Si  5.25 -4.04  8.16
Si -3.74  6.41 -7.46
Si -4.74  8.31 -4.40
Si  0.13 -2.03 10.34
Si  9.75  2.29 -3.27
Si -3.33 -1.95 -9.80
Si  0.34  6.14 -8.59
Si -0.56 -10.54  0.61
Si -6.51  6.62  5.10
Si  6.38 -8.02  2.75
Si  0.58 -0.29 -10.60
Si -9.58  4.04 -2.22
Si 10.04 -0.14 -3.58
Si  6.92 -7.91 -1.96
Si -6.95 -8.10  0.91
Si  7.08  8.07  0.39
Si  2.37 10.48 -0.22
Si -8.56  6.20  1.96
Si -1.04  8.77 -6.14
Si  0.91 -6.42 -8.59
Si -0.58  9.82 -4.46
Si 10.05  0.08  3.97
Si  2.32 10.32 -2.22
Si -6.85 -2.55 -7.99
Si -7.95 -6.42 -3.58
Si -7.95 -6.20  3.97
Si -10.63  0.54  2.23
Si -9.62 -2.33  4.58
Si  6.72 -0.14 -8.59
Si -1.71 10.74  0.91
Si -2.22 -1.41 10.61
Si -5.21  2.51  9.29
Si  1.84 -10.78  0.39
Si -1.87 -10.27 -3.27
Si  2.48  4.33 -9.80
Si -10.18  1.59  3.92
Si  1.47 -6.21  8.98
Si  0.90  6.35  8.98
Si -5.36  6.71  6.94
Si -2.79  6.12  8.76
Si -10.92  1.79  0.39
Si -8.52  6.14 -3.58
Si -2.23 -6.45  8.76
Si -0.02 10.94 -1.96
Si -3.73 10.48 -0.22
Si -7.22  2.25  8.16
Si  8.67  2.71  6.42
Si  7.97 -4.41 -6.41
Si  5.06 -4.91 -8.64
Si -4.92 -3.77  9.29
Si -5.64 -8.38  4.80
Si -0.16  4.25 10.34
Si -0.56 10.82  2.75
Si  3.30  6.12  8.76
Si  4.33  0.33 -10.33
Si -3.77 10.32 -2.22
Si -11.19 -0.57 -0.27
Si -7.51  8.30  0.61
Si 11.05 -1.82  0.91
Si 10.89  2.38 -1.43
Si 11.06  2.02  0.61
Si  2.29  8.99  6.42
Si 10.03 -3.99 -3.27
Si -3.61  4.33 -9.80
Si -7.14  3.73 -7.99
Si -8.52  6.36  3.97
Si  9.88  0.21 -5.62
Si  4.64  8.37  6.15
Si  3.88 -1.41 10.61
Si  2.00 10.23  4.58
Si -4.79  8.15 -6.41
Si -6.94 -4.04  8.16
Si -7.41  1.38 -8.64
Si  8.73  0.13 -7.46
Si -0.40 10.47  4.80
Si  3.87 -6.45  8.76
Si -10.63 -4.50  0.39
Si  7.28  0.07  8.98
Si  4.22 -10.27 -3.27
Si  8.96 -3.57  6.42
Si -8.12 -6.07 -5.62
Si -4.25 -10.78  0.39
Si  5.37 -10.18 -1.43
Si -9.90  3.95  4.58
Si  2.03  2.59 11.13
Si -10.55  2.03 -4.40
Si -9.89 -4.69  3.92
Si  2.21 -10.53 -4.40
Si -5.83 -9.02 -4.46
Si  4.38 10.74  0.91
Si -7.67  8.66 -1.43
Si -1.60  7.66 -8.64
Si  6.55 -8.38  4.80
Si -3.80  8.99  6.42
Si 10.76  4.46  0.91
Si  9.72  6.20  1.96
Si  7.40 -5.85  6.94
Si  7.82  7.87  3.92
Si -0.18 -10.07 -6.14
Si  6.83  6.71  6.94
Si  5.06  8.77 -6.14
Si -4.62 -6.21  8.98
Si -9.61  2.71  6.42
Si -9.33 -3.57  6.42
Si -1.41  8.53  8.16
Si  6.98  2.51  9.29
Si  6.36 -9.02 -4.46
Si -5.19 -6.42 -8.59
Si -0.47 -8.83 -7.99
Si -11.64 -1.62 -1.96
Si  5.53 -10.54  0.61
Si 11.18 -3.90 -1.43
Si -2.88 -8.59 -7.76
Si  2.58 -10.97  3.92
Si -4.09 10.23  4.58
Si -2.50  4.87 10.61
Si  1.62 -2.04 -11.65
Si -5.52 -0.29 -10.60
Si  2.32 -3.69 11.13
Si -10.27 -4.25 -4.40
Si  7.45  8.31 -4.40
Si  0.43 11.99 -0.27
Si -1.49 -5.96 -10.33
Si  3.22 -8.59 -7.76
Si -5.76  6.14 -8.59
Si -10.34 -5.74  2.23
Si -3.89 -10.53 -4.40
Si  9.76  6.14 -3.58
Si -5.97 -2.03 10.34
Si  5.51  9.82 -4.46
Si -9.55  0.13 -7.46
Si -2.95 -9.86  6.42
Si -4.06  2.59 11.13
Si  9.03 -2.31 -7.76
Si 11.35 -4.26  0.61
Si -0.60 -10.47  6.15
Si -3.51 -10.97  3.92
Si -5.19  6.35  8.98
Si  0.29  5.99 -10.60
Si  3.15 -9.86  6.42
Si  1.64  1.80 -11.95
Si  3.59  4.87 10.61
Si -8.69  6.49 -5.62
Si -2.50 -8.80  8.10
Si -7.13 -4.91 -8.64
Si  6.22 -2.03 10.34
Si 10.29 -6.36  1.96
Si -8.97 -8.37 -0.22
Si -8.88 -2.52  8.10
Si -8.60 -0.16  8.76
Si -9.25 -2.31 -7.76
Si  9.76  6.36  3.97
Si -3.78 -3.69 11.13
Si -6.82 -10.18 -1.43
Si  8.75  3.97 -7.76
Si  6.43  6.14 -8.59
Si  7.27 -3.77  9.29
Si  4.49  7.66 -8.64
Si  2.13 -12.02  2.23
Si -1.77 -0.36 12.29
Si -2.05  6.61 -10.33
Si -2.06  1.57 -12.17
Si  5.53 10.82  2.75
Si  1.34  4.24 -11.65
Si -6.66 -10.54  0.61
Si  0.17 -1.87 12.34
Si  3.60 -8.80  8.10
Si  0.86 -6.58 -10.60
Si  9.32 -8.37 -0.22
Si -10.60  1.87 -6.41
Si  6.67 -0.29 -10.60
Si -11.93 -0.38 -3.80
Si -9.01 -8.53 -2.22
Si -12.19 -1.74  2.75
Si 12.19 -1.74  2.75
Si -4.47 -2.04 -11.65
Si  2.16 -10.69 -6.41
Si  5.94  4.25 10.34
Si  6.07 10.94 -1.96
Si  9.41 -2.52  8.10
Si 10.33 -6.42 -3.58
Si -6.12 10.94 -1.96
Si 10.33 -6.20  3.97
Si -6.68  9.82 -4.46
Si  4.68  8.53  8.16
Si -8.82  8.57 -3.27
Si  7.40  8.15 -6.41
Si -0.31 12.18 -3.80
Si  9.12  3.76  8.10
Si  4.61 -5.96 -10.33
Si  9.27 -8.53 -2.22
Si 11.02  2.09  6.15
Si -9.16  3.76  8.10
Si  0.60  8.79  9.29
Si  7.00 -6.42 -8.59
Si -6.25  4.25 10.34
Si -11.47  5.71 -0.27
Si -7.55  8.37  6.15
Si  5.70 10.47  4.80
Si -3.96 -12.02  2.23
Si -7.13  8.77 -6.14
Si  9.59  6.49 -5.62
Si -1.33 10.02 -7.99
Si -4.46  1.80 -11.95
Si -10.91 -6.86 -0.27
Si -1.62 -12.64  1.96
Si  1.92 -4.48 -11.95
Si  4.04  6.61 -10.33
Si -10.31 -4.41 -6.41
Si  4.04  1.57 -12.17
Si -9.54  3.97 -7.76
Si -2.75 12.48  1.96
Si -11.93  4.66 -1.96
Si  8.45  6.41 -7.46
Si -7.86  0.33 -10.33
Si 12.73 -1.62 -1.96
Si -0.39 -2.30 -12.78
Si -6.66 10.82  2.75
Si 12.45 -0.38 -3.80
Si  4.33 -0.36 12.29
Si  7.00  6.35  8.98
Si 11.91  4.54  2.75
Si  9.68 -0.16  8.76
Si -10.91  6.82  2.23
Si -2.33 -0.79 -12.83
Si -3.93 -10.69 -6.41
Si  3.34 12.48  1.96
Si  2.37 10.25 -7.76
Si 12.06  0.34  5.10
Si 10.16 -6.07 -5.62
Si -0.11  4.41 12.34
Si -12.02 -2.09  4.80
Si -11.17  0.43  6.94
Si -3.04 -8.23 -9.80
Si  5.62 -8.83 -7.99
Si -0.56 -10.32  8.16
Si  3.05 -8.23 -9.80
Si -1.77 -4.71 -12.17
Si 11.89  3.54 -4.46
Si  9.46  8.57 -3.27
Si -1.49  2.00 12.95
Si  2.75 10.04  8.10
Si -1.57 -12.48  3.97
Si  5.91 -10.07 -6.14
Si 13.19 -0.57 -0.27
Si -2.71 12.42 -3.58
Si 11.44  2.49 -6.14
Si -6.49 10.47  4.80
Si  9.02 -6.15 -7.46
Si  1.57 -13.14 -0.27
Si  8.95 -8.61  4.58
Si -1.94 -7.69 10.61
Si  0.44 -12.22  5.10
Si 12.17 -2.74 -4.46
Si -5.67 11.99 -0.27
Si  0.41 -8.31 10.34
Si -4.76  4.24 -11.65
Si -12.21 -2.74 -4.46
Si  7.57 -6.21  8.98
Si -1.58 -12.71 -3.58
