500
set: 1566.00  0.00  0.00
Si -0.42 -0.99 -1.14
Si  0.95  1.78 -0.15
Si -2.26 -0.46  0.14
Si  1.34  0.58 -2.10
Si  1.35 -1.33  1.87
Si  1.88 -1.94 -0.15
Si -1.31 -1.15  2.24
Si  2.65  0.77  1.28
Si  0.43  2.38  1.87
Si -2.30  0.80 -2.14
Si -1.34  2.73 -1.14
Si -1.38 -2.92 -2.14
Si  1.17  0.95  3.59
Si -1.62  0.73  3.62
Si  1.65 -1.30 -3.48
Si -3.79  0.77  1.28
Si -2.23  2.57  2.24
Si  4.17 -0.46  0.14
Si  0.72  2.42 -3.48
Si -2.86 -2.95  1.28
Si -1.34 -4.18  0.14
Si  2.26 -3.13 -2.10
Si -3.18  3.26  0.14
Si -0.82  0.62 -4.45
Si  3.25  3.26  0.14
Si -2.12 -1.48 -3.85
Si  4.12  0.80 -2.14
Si -0.70 -2.98  3.62
Si  3.57 -2.95  1.28
Si  0.42  4.30 -2.10
Si  0.50 -4.71 -1.14
Si -4.55 -1.94 -0.15
Si  1.72  4.49  1.28
Si  2.09 -2.77  3.59
Si -0.39 -4.87  2.24
Si -3.04  2.24 -3.85
Si  4.19  2.57  2.24
Si  0.10 -3.10 -4.45
Si  0.03  5.50 -0.15
Si -5.09  0.58 -2.10
Si  3.05 -0.84  4.58
Si -5.07 -1.33  1.87
Si  3.39  2.24 -3.85
Si -4.17 -3.13 -2.10
Si  0.70 -0.61 -5.59
Si  5.12 -1.15  2.24
Si -3.38 -0.84  4.58
Si -5.47  1.78 -0.15
Si  2.13  2.88  4.58
Si  2.28 -5.05  1.87
Si  5.09  2.73 -1.14
Si  0.24  4.66  3.59
Si  3.20  4.51 -2.14
Si -3.23  4.51 -2.14
Si -1.08 -1.79  5.57
Si  4.31 -1.48 -3.85
Si  1.21 -0.31  5.86
Si -4.78 -1.30 -3.48
Si  4.81  0.73  3.62
Si  6.01 -0.99 -1.14
Si  5.05 -2.92 -2.14
Si -2.00  1.93  5.57
Si -2.54  4.45  3.62
Si -4.34 -2.77  3.59
Si  2.80 -5.65 -0.15
Si -0.22  3.11 -5.59
Si -0.49  6.10  1.87
Si -1.59 -2.08 -5.88
Si -5.26  0.95  3.59
Si -1.75  4.34 -4.45
Si -1.19 -5.20 -3.85
Si  5.09 -4.18  0.14
Si -2.52  1.63 -5.88
Si  2.57 -5.01 -3.48
Si -4.71  4.49  1.28
Si -6.00  2.38  1.87
Si -3.63 -5.65 -0.15
Si  0.29  3.41  5.86
Si -4.15 -5.05  1.87
Si -4.30  2.88  4.58
Si -2.46 -4.56  4.58
Si -2.26  6.44 -1.14
Si  3.89  4.45  3.62
Si -0.46 -6.63 -2.14
Si -6.85 -0.99 -1.14
Si -0.20  6.13 -3.48
Si -1.94 -6.66  1.28
Si -0.32  0.92  7.00
Si -5.71  2.42 -3.48
Si  5.60  0.62 -4.45
Si -3.86 -5.01 -3.48
Si  3.91  1.63 -5.88
Si  1.62 -4.33 -5.59
Si  2.33  6.97  0.14
Si  4.42  1.93  5.57
Si -3.16  6.28  2.24
Si  5.73 -2.98  3.62
Si  2.54 -1.14 -6.87
Si  2.13 -4.03  5.86
Si  3.27  6.28  2.24
Si  6.86  2.38  1.87
Si  2.47  5.95 -3.85
Si  1.62  2.58 -6.87
Si  0.61 -2.80  7.00
Si  3.97 -4.56  4.58
Si  7.38  1.78 -0.15
Si  0.22 -6.70  3.62
Si -5.92 -4.71 -1.14
Si -6.01  4.30 -2.10
Si  4.17  6.44 -1.14
Si  4.68  4.34 -4.45
Si -0.16 -5.50  5.57
Si  3.18 -6.85 -2.10
Si -5.22 -0.31  5.86
Si -1.60 -1.18  7.60
Si -3.25 -6.85 -2.10
Si  4.83 -2.08 -5.88
Si -0.41 -7.89  0.14
Si  0.66  0.65 -7.86
Si  5.34 -1.79  5.57
Si -3.89 -1.14 -6.87
Si  3.01 -6.49  3.59
Si -5.73 -0.61 -5.59
Si  7.77  0.58 -2.10
Si  6.04 -4.87  2.24
Si -4.10  6.97  0.14
Si  7.78 -1.33  1.87
Si  1.21  6.59  4.58
Si -3.96  5.95 -3.85
Si -2.13  0.43 -7.83
Si  4.49 -6.66  1.28
Si -7.74 -1.15  2.24
Si -3.42 -6.49  3.59
Si  1.02 -6.81 -4.45
Si -0.67 -5.80 -5.88
Si -0.50  8.02 -2.10
Si -4.30 -4.03  5.86
Si -7.77  2.73 -1.14
Si  2.16 -1.00  7.97
Si  7.15  2.42 -3.48
Si  5.24 -5.20 -3.85
Si -6.33 -3.10 -4.45
Si  0.80  8.20  1.28
Si  6.85  4.30 -2.10
Si -2.53  2.54  7.60
Si -6.40  5.50 -0.15
Si  7.59  0.95  3.59
Si -2.93  5.64  5.57
Si  6.93 -4.71 -1.14
Si  6.53 -3.10 -4.45
Si  6.46  5.50 -0.15
Si -1.24  4.63  7.00
Si  2.99  5.35 -5.88
Si  1.24  2.72  7.97
Si  8.30 -1.94 -0.15
Si -7.25  0.62 -4.45
Si -7.13 -2.98  3.62
Si -6.18  4.66  3.59
Si -4.81 -4.33 -5.59
Si -1.21 -3.28 -7.83
Si  1.58 -3.07 -7.86
Si -7.81 -2.92 -2.14
Si  1.43 -8.42 -1.14
Si -3.44  5.35 -5.88
Si  3.50  5.64  5.57
Si -6.82 -4.87  2.24
Si -8.69 -0.46  0.14
Si  5.94  6.10  1.87
Si -4.81  2.58 -6.87
Si  2.28  8.23 -2.14
Si -7.77 -4.18  0.14
Si -8.05  0.73  3.62
Si  0.53 -8.58  2.24
Si  8.07 -1.30 -3.48
Si -1.14  6.82 -5.59
Si  6.67  4.66  3.59
Si  3.90  2.54  7.60
Si  6.21  3.11 -5.59
Si -2.97 -4.86 -6.87
Si  4.30  0.43 -7.83
Si -0.27  4.37 -7.86
Si -8.73  0.80 -2.14
Si -0.68 -4.90  7.60
Si  4.82 -1.18  7.60
Si  7.13 -0.61 -5.59
Si  3.46 -4.86 -6.87
Si -4.27 -1.00  7.97
Si -0.68  8.38  3.59
Si -6.14  3.41  5.86
Si  5.97 -6.63 -2.14
Si  9.07  0.77  1.28
Si -6.65  3.11 -5.59
Si -0.63  7.12  5.86
Si -0.89  9.21 -0.15
Si -8.66  2.57  2.24
Si  0.70  6.29 -6.87
Si  6.11  0.92  7.00
Si -3.05  4.15 -7.83
Si  8.15  4.49  1.28
Si  2.97  8.16  3.62
Si -6.92  6.10  1.87
Si  6.23  6.13 -3.48
Si -4.15  8.23 -2.14
Si  8.69 -3.13 -2.10
Si  3.38  4.15 -7.83
Si -8.54 -1.48 -3.85
Si -1.82 -1.45 -9.20
Si  3.20 -8.76  1.87
Si -7.51 -1.79  5.57
Si -5.82 -2.80  7.00
Si -3.23 -8.76  1.87
Si  6.72  3.41  5.86
Si -1.79  1.10  9.31
Si  1.85  0.88  9.35
Si -5.22  6.59  4.58
Si -2.67  8.05 -4.45
Si -3.46  8.16  3.62
Si -1.53 -8.27  4.58
Si  7.64 -0.31  5.86
Si  8.52 -2.77  3.59
Si -6.63  6.13 -3.48
Si  1.53 -6.51  7.00
Si -0.87 -2.62  9.31
Si -0.27 -8.91 -3.85
Si -4.85 -3.07 -7.86
Si  0.84 -1.63 -9.57
Si -2.71 -9.37 -0.15
Si  3.08 -4.72  7.97
Si -6.74  0.92  7.00
Si -5.41 -6.81 -4.45
Si -5.77  0.65 -7.86
Si -0.08  2.09 -9.57
Si -6.89 -6.63 -2.14
Si -6.21 -6.70  3.62
Si -9.29 -2.95  1.28
Si -3.35 -4.72  7.97
Si -2.94 -8.73 -3.48
Si -5.00 -8.42 -1.14
Si -2.75  2.27 -9.20
Si  5.19  4.63  7.00
Si -5.19  2.72  7.97
Si  6.01 -7.89  0.14
Si  3.76  8.05 -4.45
Si  5.22 -3.28 -7.83
Si -7.62 -5.20 -3.85
Si  3.49 -8.73 -3.48
Si -5.63  8.20  1.28
Si  6.27 -5.50  5.57
Si  5.76 -5.80 -5.88
Si  3.72 -9.37 -0.15
Si -1.41  9.82  1.87
Si  6.65 -6.70  3.62
Si  2.54 -8.04 -5.59
Si  8.56  2.88  4.58
Si -9.61  3.26  0.14
Si  2.77 -2.84  9.35
Si -8.02 -2.08 -5.88
Si  3.68  2.27 -9.20
Si  3.05 -7.74  5.86
Si  5.93  8.02 -2.10
Si  9.68  3.26  0.14
Si  8.71 -5.05  1.87
Si -6.59 -5.50  5.57
Si  0.31  6.43  7.97
Si -8.18  4.34 -4.45
Si  2.98  6.25  7.60
Si -3.38 -7.74  5.86
Si  5.29  6.82 -5.59
Si -8.43  1.93  5.57
Si  7.04 -2.80  7.00
Si -10.21  0.77  1.28
Si  0.09 -0.69 10.31
Si  4.61 -1.45 -9.20
Si  2.13  0.47 -10.17
Si -3.45  6.25  7.60
Si -3.66 -2.84  9.35
Si -4.58  0.88  9.35
Si -6.84 -7.89  0.14
Si  0.93  4.60  9.35
Si  4.63  1.10  9.31
Si -9.46  2.24 -3.85
Si  9.99 -2.95  1.28
Si -0.29 -7.00 -7.83
Si -1.12  9.85 -3.48
Si -1.02 -10.38  1.28
Si  2.35 10.00  2.24
Si  1.55  9.67 -3.85
Si -3.88 -8.04 -5.59
Si  9.48 -0.84  4.58
Si  0.46 -10.35 -2.14
Si -0.90 -5.16 -9.20
Si  7.08  0.65 -7.86
Si 10.60 -0.46  0.14
Si -8.97  4.45  3.62
Si  4.89 -8.27  4.58
Si -5.90 -8.58  2.24
Si  2.50 -6.78 -7.86
Si -3.18 10.16 -1.14
Si  5.75 -4.90  7.60
Si  8.05 -4.33 -5.59
Si  3.25 10.16 -1.14
Si -4.90 -6.51  7.00
Si  5.54  9.21 -0.15
Si -0.83  3.02 10.31
Si -8.37 -6.66  1.28
Si  5.75  8.38  3.59
Si  1.41 10.69  0.14
Si  9.82  2.24 -3.85
Si 10.55  0.80 -2.14
Si  0.76 -9.22  5.57
Si -6.93  8.02 -2.10
Si  9.23 -5.65 -0.15
Si -8.94  1.63 -5.88
Si -2.72  4.81  9.31
Si  9.63  4.51 -2.14
Si -9.81 -0.84  4.58
Si -9.65  4.51 -2.14
Si  9.00 -5.01 -3.48
Si -8.69  6.44 -1.14
Si  8.05  2.58 -6.87
Si -7.10 -5.80 -5.88
Si  5.80  7.12  5.86
Si  6.16  4.37 -7.86
Si -5.73  6.29 -6.87
Si -8.88 -4.56  4.58
Si  2.07  9.06 -5.88
Si  7.23  8.20  1.28
Si -2.32 -10.57 -2.10
Si  7.45 -6.81 -4.45
Si -4.08 10.00  2.24
Si -4.29  0.47 -10.17
Si  1.21  4.19 -10.17
Si  7.64  6.59  4.58
Si  1.15 -10.42  3.62
Si -2.50 -10.20  3.59
Si -3.93 -6.78 -7.86
Si  3.06 -3.25 -10.17
Si  1.77 -5.34 -9.57
Si -2.16  8.35  7.00
Si  3.71  4.81  9.31
Si -8.03 -1.18  7.60
Si  8.56 -4.03  5.86
Si -10.98 -1.94 -0.15
Si  5.56 -2.62  9.31
Si 10.62  2.57  2.24
Si -2.04 -8.57 -6.87
Si  5.02  9.82  1.87
Si  0.25 -9.52 -5.88
Si  8.76  6.97  0.14
Si  2.58  9.36  5.57
Si -3.37 -3.25 -10.17
Si -5.58 -1.63 -9.57
Si -6.70  4.37 -7.86
Si -1.00  5.80 -9.57
Si -10.60 -3.13 -2.10
Si  1.01 -4.41 10.31
Si  0.05 -6.34  9.31
Si  6.96 -8.58  2.24
Si  0.29 10.31  4.58
Si  2.76  5.99 -9.20
Si -1.19  8.08 -7.86
Si  8.97 -1.14 -6.87
Si  2.46  7.87 -7.83
Si -7.67  4.63  7.00
Si  8.90  5.95 -3.85
Si  7.66  2.72  7.97
Si -7.64 -3.28 -7.83
Si  0.24 -8.62  7.60
Si -4.88  9.67 -3.85
Si  6.16 -8.91 -3.85
Si -7.11 -4.90  7.60
Si  3.93 -10.20  3.59
Si 10.74 -1.48 -3.85
Si  4.11 -10.57 -2.10
Si -10.06 -5.65 -0.15
Si -3.85  9.36  5.57
Si -7.11  8.38  3.59
Si  7.85 -8.42 -1.14
Si -3.67  5.99 -9.20
Si  1.46  2.08 11.30
Si  1.94 -10.53 -4.45
Si -8.56  0.43 -7.83
Si -7.06  7.12  5.86
Si  0.51 -11.61  0.14
Si -7.57  6.82 -5.59
Si  8.01 -3.07 -7.86
Si -4.36  9.06 -5.88
Si  2.39 -1.64 11.30
Si -2.77 -0.76 -11.31
Si  6.35  2.09 -9.57
Si -9.59  6.28  2.24
Si -10.77 -2.77  3.59
Si  0.44  1.48 -11.60
Si  4.27  8.35  7.00
Si -1.75 -0.16 11.59
Si  5.31  9.85 -3.48
Si -11.52  0.58 -2.10
Si  7.13  6.29 -6.87
Si -11.50 -1.33  1.87
Si -2.74 -6.55  9.35
Si  8.59 -1.00  7.97
Si -6.51  2.09 -9.57
Si -7.32  9.21 -0.15
Si  5.41 -10.38  1.28
Si  9.70  6.28  2.24
Si -5.50  4.60  9.35
Si -3.97  7.87 -7.83
Si -6.70 -8.91 -3.85
Si 10.32  4.45  3.62
Si -11.21 -1.30 -3.48
Si -5.02 10.69  0.14
Si 11.54 -1.15  2.24
Si  4.38 -8.57 -6.87
Si 11.24  0.73  3.62
Si -2.43 -8.43  7.97
Si -10.58 -5.05  1.87
Si  1.37 -2.23 -11.60
Si 11.52  2.73 -1.14
Si  3.66 -0.76 -11.31
Si  5.53 -5.16 -9.20
Si -4.66 -5.34 -9.57
Si -6.12  6.43  7.97
Si -10.29 -5.01 -3.48
Si -0.12 11.92  1.28
Si  9.61 -6.85 -2.10
Si  3.69 -6.55  9.35
Si  9.44 -6.49  3.59
Si -1.42 11.73 -2.10
Si 10.34  1.63 -5.88
Si  2.74  2.96 -11.31
Si -10.73  2.88  4.58
Si -8.96  2.54  7.60
Si 11.47 -2.92 -2.14
Si -11.90  1.78 -0.15
Si -9.68 -6.85 -2.10
Si -11.13  4.49  1.28
Si -2.06 10.54 -5.59
Si -4.04 -1.64 11.30
Si  5.60  3.02 10.31
Si -6.34 -0.69 10.31
Si -7.30 -2.62  9.31
Si  7.27 -1.63 -9.57
Si -5.97 -10.35 -2.14
Si -0.22 10.01 -6.87
Si  6.14 -7.00 -7.83
Si -5.22  4.19 -10.17
Si  8.71  8.23 -2.14
Si -5.67 -9.22  5.57
Si  1.36 11.95 -2.14
Si  6.52 -0.69 10.31
Si -5.28 -10.42  3.62
Si -0.83 -3.88 11.59
Si 10.40 -4.56  4.58
Si 11.52 -4.18  0.14
Si -3.69  2.96 -11.31
Si  6.74  6.43  7.97
Si -9.36  5.64  5.57
Si -11.69  0.95  3.59
Si  4.00 -8.43  7.97
Si -4.49 -10.53 -4.45
Si -1.85 -4.47 -11.31
Si  9.42  5.35 -5.88
Si -9.85 -6.49  3.59
Si 10.85  1.93  5.57
Si -7.96 -8.27  4.58
Si -2.67  3.56 11.59
Si  2.35 -12.14 -1.14
Si -1.55 10.84  5.86
Si  5.24  8.08 -7.86
Si -1.75  6.74 10.31
Si  7.96 -6.51  7.00
Si  5.43  5.80 -9.57
Si -10.32 -1.14 -6.87
Si -8.25 -1.45 -9.20
Si -5.42 -4.41 10.31
Si 10.60  6.44 -1.14
Si -6.71 -7.00 -7.83
Si -8.22  1.10  9.31
Si  4.68 -0.16 11.59
Si  0.01  8.31  9.35
Si -4.96  2.08 11.30
Si  8.28  0.88  9.35
Si 12.44 -0.99 -1.14
Si -2.45 -6.96 -10.17
Si -10.39  5.95 -3.85
Si  1.45 -12.30  2.24
Si  2.05 11.88  3.62
Si -9.39 -4.86 -6.87
Si  6.89 -10.35 -2.14
Si -10.53  6.97  0.14
Si  2.45 -10.23  7.00
Si -9.87  5.35 -5.88
Si  3.76  3.56 11.59
Si -0.93 -1.29 -12.59
Si  2.06  9.97  7.60
Si -7.84  9.82  1.87
Si  4.37 10.54 -5.59
Si  0.54  5.79 11.30
Si  9.93  5.64  5.57
Si -1.60 12.10  3.59
