500
set: 1257.00  0.00  0.00
Si  0.79 -0.72 -0.39
Si  0.54  0.87  1.43
Si -1.36 -1.49 -1.32
Si -1.88  0.94  1.78
Si -2.81  0.34 -0.70
Si  2.17  0.58 -1.95
Si  1.18  2.87  0.38
Si  1.76 -2.55  0.60
Si -1.35  1.84 -2.47
Si  0.67  2.80 -1.96
Si  1.85  0.33  3.37
Si -1.97 -3.34  0.07
Si  1.60 -2.00  3.01
Si  3.35  2.35  0.94
Si  4.22  0.84 -0.86
Si -1.79 -1.54 -3.71
Si -0.06 -4.46 -0.01
Si -2.36  3.42  1.97
Si -3.04  3.05 -1.69
Si  2.26 -0.25 -4.10
Si -0.32  4.66  1.12
Si -1.39  0.41 -4.60
Si -2.52 -2.18  3.51
Si -3.27  0.03  3.58
Si -0.45 -2.73  4.09
Si -5.02 -0.70 -0.83
Si  4.05  1.26  2.97
Si -3.59 -3.38  1.59
Si  3.91 -3.48  0.50
Si  2.07 -2.87 -4.29
Si -0.29 -2.99 -4.72
Si  4.30  3.12 -1.84
Si -3.78  4.19  0.09
Si  0.69  1.21 -5.48
Si  0.69  1.21  5.63
Si  0.85  3.39 -4.66
Si  2.38 -4.56 -2.80
Si -5.48 -1.96  1.06
Si  0.44 -5.52 -2.15
Si  0.44  5.59 -2.15
Si -3.83 -4.60 -0.76
Si  5.63 -1.96  1.06
Si -5.41 -0.29  2.76
Si -2.50  3.41  4.45
Si  4.52 -3.85 -1.68
Si  6.09 -0.70 -0.83
Si -3.88 -3.02 -3.81
Si  0.26 -5.35  3.22
Si  4.80  4.09  0.38
Si  5.70 -0.29  2.76
Si  3.20 -3.21  4.53
Si  4.49 -0.65 -4.59
Si  5.54 -1.93 -2.79
Si -3.18  1.42  5.49
Si -5.57 -1.93 -2.79
Si -4.91  2.89 -3.20
Si -0.32 -6.45  1.12
Si -1.21 -5.22 -3.77
Si  0.26  5.76  3.22
Si -3.18  1.42 -5.62
Si -0.06  6.64 -0.01
Si -1.39  0.41  6.50
Si  4.98 -1.75  4.38
Si -3.52 -5.24 -2.84
Si -6.88  0.84 -0.86
Si -0.29 -2.99  6.39
Si -1.21  5.89 -3.77
Si -0.74  4.68  5.30
Si  4.34 -5.29  2.02
Si -5.27  1.10 -4.71
Si -4.21 -2.95  5.03
Si  4.01  5.09 -3.12
Si  2.67  5.50  3.81
Si  3.12  3.93 -5.26
Si  2.67 -5.60  3.81
Si  0.85  3.39  6.45
Si  2.26 -0.25  7.01
Si  4.79  2.58  5.01
Si -3.52  5.86 -2.84
Si -0.74  4.68 -5.80
Si  2.38  6.55 -2.80
Si -6.30  4.09  0.38
Si  4.34  5.81  2.02
Si -0.45 -2.73 -7.01
Si  6.20  2.89 -3.20
Si  5.84  1.10 -4.71
Si -3.83  6.51 -0.76
Si -4.79 -4.77  3.46
Si  2.07 -2.87  6.81
Si  3.12  3.93  5.84
Si -6.80  3.12 -1.84
Si -6.13 -1.75  4.38
Si -7.06  1.26  2.97
Si -1.79 -1.54  7.40
Si -6.59 -3.85 -1.68
Si  4.01 -6.01 -3.12
Si -3.78 -6.91  0.09
Si -2.50  3.41 -6.66
Si  4.49 -0.65  6.52
Si -4.59  4.37  4.82
Si  1.85  0.33 -7.74
Si -4.21 -2.95 -6.08
Si  3.20 -3.21 -6.58
Si -7.20 -3.48  0.50
Si -1.97  7.77  0.07
Si -6.62 -0.65 -4.59
Si -7.75  2.35  0.94
Si  4.79  2.58 -6.09
Si -3.27  0.03 -7.52
Si -2.36 -7.69  1.97
Si -2.52 -2.18 -7.60
Si  1.18 -8.24  0.38
Si -5.03  5.11 -4.24
Si  8.30  0.34 -0.70
Si -5.27  1.10  6.39
Si -0.74 -6.43  5.30
Si  7.51 -3.38  1.59
Si  7.33  4.19  0.09
Si -6.32  2.58  5.01
Si  1.60 -2.00 -8.09
Si  4.80 -7.02  0.38
Si  4.98 -1.75 -6.72
Si  0.67 -8.31 -1.96
Si  3.91  7.62  0.50
Si  7.83  0.03  3.58
Si  6.32 -4.77  3.46
Si  7.28 -4.60 -0.76
Si -4.79  6.33  3.46
Si -3.59  7.72  1.59
Si -0.74 -6.43 -5.80
Si  7.23 -3.02 -3.81
Si  4.52  7.26 -1.68
Si  5.84  1.10  6.39
Si  1.76  8.56  0.60
Si -3.04 -8.05 -1.69
Si  8.06  3.05 -1.69
Si -3.88 -3.02  7.30
Si -6.76 -5.29  2.02
Si -5.03 -6.00 -4.24
Si -1.35  1.84  8.63
Si -4.59  4.37 -6.29
Si  6.08  5.11 -4.24
Si  6.89 -2.95  5.03
Si  0.85 -7.71 -4.66
Si -1.21 -5.22  7.33
Si -6.76  5.81  2.02
Si -6.32  2.58 -6.09
Si -8.93  0.58 -1.95
Si  4.05  1.26 -8.14
Si  6.52  4.37  4.82
Si -2.50 -7.70  4.45
Si  4.30 -7.99 -1.84
Si -6.13 -1.75 -6.72
Si -7.09  5.09 -3.12
Si -6.62 -0.65  6.52
Si -0.45  8.38  4.09
Si -0.29  8.12 -4.72
Si  3.35 -8.75  0.94
Si  2.17  0.58  9.15
Si  3.12 -7.18 -5.26
Si -6.30 -7.02  0.38
Si  9.23  0.94  1.78
Si -4.59 -6.73  4.82
Si -1.21  5.89  7.33
Si  2.07  8.24 -4.29
Si  2.67  5.50 -7.30
Si  0.26 -5.35 -7.88
Si  8.59 -2.18  3.51
Si  6.08 -6.00 -4.24
Si -1.88  0.94 -9.32
Si  2.67 -5.60 -7.30
Si  0.67  2.80  9.14
Si  6.32  6.33  3.46
Si  8.75  3.42  1.97
Si  3.20  7.90  4.53
Si  6.89 -2.95 -6.08
Si  7.59 -5.24 -2.84
Si -7.90 -3.21  4.53
Si -1.35 -9.27 -2.47
Si -9.34 -2.55  0.60
Si  1.60  9.11  3.01
Si  9.14 -3.34  0.07
Si  0.54  0.87 -9.68
Si -3.88  8.08 -3.81
Si -4.91  2.89  7.90
Si  7.92  1.42  5.49
Si -8.84 -0.25 -4.10
Si  0.26  5.76 -7.88
Si  2.38 -4.56  8.30
Si  3.12 -7.18  5.84
Si  7.28  6.51 -0.76
Si -1.36  9.61 -1.32
Si -7.09 -6.01 -3.12
Si  7.92  1.42 -5.62
Si -9.26  0.33  3.37
Si -2.52  8.93  3.51
Si -5.03  5.11  6.87
Si -6.59  7.26 -1.68
Si -5.41 -0.29 -8.34
Si  9.75 -1.49 -1.32
Si -1.36 -1.49  9.79
Si  7.59  5.86 -2.84
Si -2.36  3.42 -9.13
Si  6.52  4.37 -6.29
Si  7.33 -6.91  0.09
Si  0.85 -7.71  6.45
Si -4.91 -8.22 -3.20
Si  5.70 -0.29 -8.34
Si  9.32 -1.54 -3.71
Si -9.51 -2.00  3.01
Si  5.54 -1.93  8.32
Si -5.57 -1.93  8.32
Si -4.79 -4.77 -7.65
Si  9.75  1.84 -2.47
Si -8.73 -4.56 -2.80
Si  8.60  3.41  4.45
Si  4.01  5.09  7.99
Si -4.59 -6.73 -6.29
Si -0.29  8.12  6.39
Si -7.98  3.93 -5.26
Si -9.93  2.87  0.38
Si -10.31 -0.72 -0.39
Si  0.54 -10.23  1.43
Si -3.04  3.05  9.42
Si -3.52 -5.24  8.27
Si -9.04 -2.87 -4.29
Si -1.79  9.56 -3.71
Si -5.03 -6.00  6.87
Si  0.79 10.38 -0.39
Si  6.20  2.89  7.90
Si -4.21  8.15  5.03
Si -2.50 -7.70 -6.66
Si -1.88 -10.17  1.78
Si -7.20  7.62  0.50
Si  6.08  5.11  6.87
Si  0.44 -5.52  8.95
Si  6.52 -6.73  4.82
Si  0.44  5.59  8.95
Si -7.98  3.93  5.84
Si -6.80 -7.99 -1.84
Si  4.30  3.12  9.26
Si -10.57  0.87  1.43
Si  7.23 -3.02  7.30
Si -5.48  9.14  1.06
Si -3.59 -3.38 -9.52
Si -3.52  5.86  8.27
Si  9.72  0.41 -4.60
Si  3.20  7.90 -6.58
Si -8.44  5.50  3.81
Si  0.79 -0.72 10.72
Si -7.90 -3.21 -6.58
Si  4.01 -6.01  7.99
Si  6.20 -8.22 -3.20
Si -2.81  0.34 10.40
Si  5.63  9.14  1.06
Si -8.44 -5.60  3.81
Si  2.38  6.55  8.30
Si -7.06  1.26 -8.14
Si  7.83  0.03 -7.52
Si  2.07  8.24  6.81
Si  7.51  7.72  1.59
Si  2.17 -10.52 -1.95
Si -0.45  8.38 -7.01
Si  1.76 -2.55 -10.51
Si  6.08 -6.00  6.87
Si  3.35  2.35 -10.17
Si -10.44  2.80 -1.96
Si  4.79 -8.53  5.01
Si  6.32 -4.77 -7.65
Si -4.21  8.15 -6.08
Si -4.79  6.33 -7.65
Si -0.32  4.66 -9.99
Si  4.05 -9.84  2.97
Si  5.54  9.17 -2.79
Si -5.57  9.17 -2.79
Si  4.22  0.84 10.24
Si  4.22 -10.27 -0.86
Si  4.52 -3.85  9.42
Si -2.81 -10.77 -0.70
Si  1.18  2.87 -10.73
Si -8.73  6.55 -2.80
Si -8.84 -0.25  7.01
Si  6.52 -6.73 -6.29
Si  0.69 -9.90 -5.48
Si  4.34 -5.29 -9.08
Si  8.60  3.41 -6.66
Si  0.69 -9.90  5.63
Si  1.85 -10.78  3.37
Si -5.02 -0.70 10.28
Si  4.98  9.36  4.38
Si  7.23  8.08 -3.81
Si  8.06 -8.05 -1.69
Si  4.79 -8.53 -6.09
Si  0.79 -0.72 -11.49
Si -3.88  8.08  7.30
Si -3.18 -9.69  5.49
Si -5.02 10.41 -0.83
Si -5.48 -1.96 -10.04
Si  4.34  5.81 -9.08
Si -3.18 -9.69 -5.62
Si  8.59 -2.18 -7.60
Si -9.04 -2.87  6.81
Si  5.63 -1.96 -10.04
Si -1.97 -3.34 -11.04
Si  9.72  0.41  6.50
Si -1.39 -10.69 -4.60
Si -7.75 -8.75  0.94
Si -6.32 -8.53  5.01
Si 10.66 -2.73  4.09
Si -10.25  3.39 -4.66
Si 11.64  0.87  1.43
Si  6.32  6.33 -7.65
Si 10.78  4.66  1.12
Si  6.89  8.15  5.03
Si  9.89 -5.22 -3.77
Si -2.81 11.45 -0.70
Si  8.75 -7.69  1.97
Si  3.91 -3.48 -10.60
Si  2.26 10.86 -4.10
Si -1.97 -3.34 11.18
Si -10.42  1.21 -5.48
Si -7.09  5.09  7.99
Si  0.79 -11.83 -0.39
Si -0.32 -6.45 -9.99
Si  1.18  2.87 11.48
Si -10.42  1.21  5.63
Si -6.80  3.12  9.26
Si 11.04 -4.46 -0.01
Si 11.90 -0.72 -0.39
Si -7.98 -7.18 -5.26
Si -3.83 -4.60 10.35
Si  6.09 -0.70 10.28
Si -0.06 -4.46 11.10
Si -0.06 -4.46 -11.11
Si -2.52  8.93 -7.60
Si  9.14  7.77  0.07
Si  9.32 -1.54  7.40
Si -6.13  9.36  4.38
Si -11.17 -4.46 -0.01
Si  2.17 11.69 -1.95
Si -7.90  7.90  4.53
Si  1.85 11.44  3.37
Si -9.26  0.33 -7.74
Si  0.54 11.98  1.43
Si  6.09 10.41 -0.83
Si -3.27 -11.08  3.58
Si  1.76 -2.55 11.71
Si  9.89  5.89 -3.77
Si -6.59 -3.85  9.42
Si -2.81  0.34 -11.81
Si -3.27 11.14  3.58
Si -2.36 -7.69 -9.13
Si 10.81 -2.99 -4.72
Si -10.67 -5.52 -2.15
Si -1.79  9.56  7.40
Si -7.98 -7.18  5.84
Si -10.67  5.59 -2.15
Si -6.32 -8.53 -6.09
Si -5.27 -10.01 -4.71
Si -7.09 -6.01  7.99
Si 11.78  2.80 -1.96
Si  4.49 10.45 -4.59
Si  2.26 -11.35 -4.10
Si  6.89  8.15 -6.08
Si  1.60  9.11 -8.09
Si -1.88 12.04  1.78
Si -6.88  0.84 10.24
Si  0.67 -8.31  9.14
Si  8.60 -7.70  4.45
Si -3.78  4.19 -11.02
Si  7.59 -5.24  8.27
Si -6.88 -10.27 -0.86
Si -11.43  4.66  1.12
Si -5.41 10.82  2.76
Si -4.91 -8.22  7.90
Si -8.44  5.50 -7.30
Si  4.80  4.09 -10.73
Si -7.06 -9.84  2.97
Si -1.39 11.52 -4.60
Si -8.44 -5.60 -7.30
Si -6.76 -5.29 -9.08
Si  5.84 -10.01 -4.71
Si -10.85 -5.35  3.22
Si  5.70 10.82  2.76
Si -3.78  4.19 11.20
Si 10.37  4.68  5.30
Si  4.98  9.36 -6.72
Si -11.55 -2.73  4.09
Si  0.54  0.87 12.53
Si -10.25  3.39  6.45
Si -1.36 -1.49 -12.42
Si  7.51 -3.38 -9.52
Si -1.39 -10.69  6.50
Si 10.78 -6.45  1.12
Si 12.28  2.87  0.38
Si -12.46 -1.49 -1.32
Si -9.51 -2.00 -8.09
Si  7.59  5.86  8.27
Si -9.34  8.56  0.60
Si -11.40 -2.99 -4.72
Si -10.85  5.76  3.22
Si  4.22 11.95 -0.86
Si  4.22  0.84 -11.97
Si  3.35  2.35 12.04
Si  4.52  7.26  9.42
Si -6.76  5.81 -9.08
Si  3.91 -3.48 11.61
Si -1.35 -9.27  8.63
Si -1.36 -12.60 -1.32
Si -3.04 -8.05  9.42
Si  8.06  3.05  9.42
Si -3.59  7.72 -9.52
Si 10.37  4.68 -5.80
Si -8.93  0.58  9.15
Si -3.83  6.51 10.35
Si -12.46  1.84 -2.47
Si -5.02 -11.81 -0.83
Si  8.59  8.93  3.51
Si -8.73 -4.56  8.30
Si 11.04  6.64 -0.01
Si -9.93 -8.24  0.38
Si 10.81 -2.99  6.39
Si -5.41 -11.39  2.76
Si -0.06  6.64 11.10
Si -0.06  6.64 -11.11
Si -9.04  8.24 -4.29
Si  4.30 -7.99  9.26
Si -7.90  7.90 -6.58
Si -5.02 -0.70 -11.94
Si 11.37 -5.35  3.22
Si  6.20 -8.22  7.90
Si 11.54 -5.52 -2.15
Si -5.27 -10.01  6.39
Si -11.17  6.64 -0.01
Si -7.75  2.35 -10.17
Si 11.54  5.59 -2.15
Si  5.70 -11.39  2.76
Si 10.66 -2.73 -7.01
Si -6.13  9.36 -6.72
Si -1.88  0.94 12.89
Si 11.79  1.21 -5.48
Si  7.23  8.08  7.30
Si -0.32  4.66 12.22
Si  8.75  3.42 -9.13
Si -6.30  4.09 -10.73
Si  4.80  4.09 11.48
Si  4.49 10.45  6.52
Si  2.26 10.86  7.01
Si 11.79  1.21  5.63
Si 12.87 -2.55  0.60
Si -12.98  0.94  1.78
Si 11.37  5.76  3.22
Si  9.23  0.94 -9.32
Si  9.75  1.84  8.63
Si -11.43 -6.45  1.12
Si -6.62 10.45 -4.59
Si 12.71 -2.00  3.01
Si  5.84 -10.01  6.39
Si -1.35 12.95 -2.47
Si  2.17  0.58 -13.06
Si 11.96  3.39 -4.66
Si -7.20 -3.48 -10.60
Si -3.83 -4.60 -11.86
Si 10.37 -6.43  5.30
Si -1.79 -12.65 -3.71
Si -1.39 11.52  6.50
Si  6.09 -11.81 -0.83
Si  8.30  0.34 10.40
Si -12.50  0.41 -4.60
Si  8.60 -7.70 -6.66
Si  4.05 12.37  2.97
Si  9.89 -5.22  7.33
Si  0.67  2.80 -13.07
Si 12.96  0.33  3.37
Si  1.85 -10.78 -7.74
Si  4.49 -11.76 -4.59
Si  4.05 -9.84 -8.14
Si -11.40 -2.99  6.39
Si  6.09 -0.70 -11.94
Si 13.28  0.58 -1.95
Si  7.28 -4.60 10.35
Si -10.44 -8.31 -1.96
Si -5.48 -1.96 12.17
Si -13.07 -3.34  0.07
Si  0.69 12.31 -5.48
Si -3.04  3.05 -12.80
Si -12.89 -1.54 -3.71
Si -9.51  9.11  3.01
Si 10.37 -6.43 -5.80
Si  2.26 -11.35  7.01
Si  1.60 -13.10  3.01
Si -3.78 -6.91 -11.02
Si  5.63 -1.96 12.17
Si  0.69 12.31  5.63
Si  5.54  9.17  8.32
Si  1.18 -8.24 -10.73
Si -5.57  9.17  8.32
Si -6.59  7.26  9.42
Si  8.30 -10.77 -0.70
Si -3.59 -3.38 12.70
