500
set: 1575.00  0.00  0.00
Si  0.04  0.41  0.94
Si -0.57 -1.35 -0.59
Si -1.34  0.63 -1.89
Si  2.26  1.17  0.49
Si  0.90  0.05  2.98
Si -2.15  2.17  0.84
Si  1.54 -2.25 -1.78
Si  3.15 -0.99 -0.46
Si -3.43 -0.99 -0.46
Si -0.68  2.69 -2.32
Si  1.03  3.43 -0.59
Si  0.65 -3.61  0.49
Si -2.94  0.22  2.45
Si -2.29 -2.08 -2.32
Si  2.82 -2.61  0.84
Si -1.50 -0.14 -3.93
Si -1.83  3.78 -0.46
Si  0.69 -1.90 -3.83
Si  3.64  0.22  2.45
Si  3.15  2.52 -1.78
Si -1.22  0.96  4.18
Si -4.32  1.17  0.49
Si  2.99 -1.84  2.88
Si -1.99  2.93  2.88
Si -3.43  2.52 -1.78
Si -3.75 -2.61  0.84
Si -1.56 -4.37  0.94
Si -3.59 -1.84  2.88
Si  4.43  2.17  0.84
Si  2.50  1.31  4.31
Si  2.91 -1.13 -4.28
Si  4.29 -2.08 -2.32
Si  2.29  2.88 -3.83
Si  0.01 -1.30  5.26
Si -2.94 -4.15 -1.89
Si  1.65  5.19  0.94
Si -1.18  1.48 -5.23
Si  2.04 -4.56  2.45
Si  0.90 -3.47  4.31
Si  5.24  0.63 -1.89
Si -0.71 -4.73  2.98
Si -1.33  5.00  2.45
Si  1.68  1.12 -5.36
Si  0.27  5.41 -1.89
Si -3.67 -1.13 -4.28
Si -5.03 -2.25 -1.78
Si  3.64 -4.15 -1.89
Si -2.07  3.65 -4.28
Si  1.55 -5.77 -0.46
Si  2.17 -0.30  5.61
Si -4.08  1.31  4.31
Si  0.10  4.64 -3.93
Si  4.75  3.78 -0.46
Si  4.59  2.93  2.88
Si  6.01 -1.35 -0.59
Si  2.50  4.83  2.98
Si -2.82 -3.82  4.18
Si -0.61  2.71  5.71
Si -5.68  0.05  2.98
Si  5.08 -0.14 -3.93
Si -4.28  2.88 -3.83
Si -2.21 -2.06  5.71
Si  0.08 -3.65 -5.36
Si  1.61  3.48  5.26
Si -2.17 -6.13 -0.59
Si -5.54  3.43 -0.59
Si -2.72  5.95  0.49
Si -6.54  0.41  0.94
Si  6.62  0.41  0.94
Si  5.02 -4.37  0.94
Si -2.78 -3.30 -5.23
Si  3.76 -3.82  4.18
Si  5.36  0.96  4.18
Si  5.89  2.69 -2.32
Si -4.54 -4.56  2.45
Si -0.69 -1.68 -6.66
Si -5.92 -3.61  0.49
Si -4.08  4.83  2.98
Si -3.10 -4.91 -3.93
Si -0.55  6.95  0.84
Si -0.03  0.39 -7.08
Si  0.38  5.74  4.18
Si  3.86  5.95  0.49
Si -2.78  0.22 -6.55
Si -4.40 -0.30  5.61
Si  3.47 -4.91 -3.93
Si  4.51  3.65 -4.28
Si -4.93  5.19  0.94
Si  3.80 -3.30 -5.23
Si -0.06 -7.03 -1.78
Si -5.89 -1.90 -3.83
Si -7.15 -1.35 -0.59
Si -4.89  1.12 -5.36
Si  1.39 -6.62  2.88
Si  0.92  3.10 -6.66
Si  1.30 -5.91 -4.28
Si  4.37 -2.06  5.71
Si  1.22 -7.39  0.84
Si  4.41 -6.13 -0.59
Si  3.80  0.22 -6.55
Si  0.57 -5.08  5.61
Si  5.25  5.00  2.45
Si  5.40  1.48 -5.23
Si -5.03 -5.77 -0.46
Si  1.39 -2.25  7.22
Si -2.80  4.47  5.61
Si  2.69 -6.86 -2.32
Si -1.83  7.30 -1.78
Si -0.91 -6.67 -3.83
Si -2.48  6.09  4.31
Si  0.92  7.47 -2.32
Si -5.68 -3.47  4.31
Si  2.34  0.46  7.65
Si -4.97  3.48  5.26
Si  7.47  0.05  2.98
Si -7.26  2.69 -2.32
Si  7.23 -3.61  0.49
Si  0.25  2.35  7.75
Si  3.78  4.47  5.61
Si  5.87 -4.73  2.98
Si -7.91  0.63 -1.89
Si  0.42  6.26 -5.23
Si -1.60 -6.08  5.26
Si  2.99  2.52  7.22
Si -3.89 -6.86 -2.32
Si -1.36 -2.42  7.75
Si -0.38  7.71  2.88
Si  2.19 -4.56 -6.55
Si -1.18  5.00 -6.55
Si  7.61  3.43 -0.59
Si  7.27 -1.90 -3.83
Si -3.59  2.52  7.22
Si -0.95 -8.38  0.49
Si -1.64 -4.39 -7.08
Si  4.10  6.09  4.31
Si -6.57 -1.30  5.26
Si -6.31  5.41 -1.89
Si  6.58 -1.30  5.26
Si -0.23  8.56 -0.46
Si  8.12 -2.25 -1.78
Si  3.29  5.90 -5.36
Si -3.29  5.90 -5.36
Si  2.64  8.21 -0.59
Si  5.97  2.71  5.71
Si -4.24  0.46  7.65
Si  0.74 -4.32  7.65
Si -6.48  4.64 -3.93
Si  4.75  7.30 -1.78
Si -5.19 -6.62  2.88
Si -7.80  0.96  4.18
Si  1.57  5.17 -7.08
Si  8.84  1.17  0.49
Si  6.84  5.41 -1.89
Si -2.68  7.66 -3.83
Si -8.08 -0.14 -3.93
Si -5.27 -5.91 -4.28
Si  6.68  4.64 -3.93
Si -8.73  2.17  0.84
Si  0.75  2.34 -8.70
Si  5.89 -1.68 -6.66
Si -0.85 -2.44 -8.70
Si  2.94  0.58 -8.60
Si -4.38 -4.56 -6.55
Si -3.94  8.21 -0.59
Si  0.25 -1.16  9.08
Si -5.36 -7.39  0.84
Si -5.19 -2.25  7.22
Si -6.50 -3.65 -5.36
Si -7.29 -4.73  2.98
Si -8.40  3.78 -0.46
Si  6.03  6.95  0.84
Si -1.42  1.34 -9.05
Si -5.66  3.10 -6.66
Si -8.14 -4.37  0.94
Si  6.66 -3.65 -5.36
Si  7.47 -3.47  4.31
Si -0.71 -8.25  4.31
Si  2.77 -6.84  5.71
Si  2.04 -8.93 -1.89
Si -3.63  0.58 -8.60
Si -8.87 -2.08 -2.32
Si  3.90  7.66 -3.83
Si -6.19  5.74  4.18
Si  4.98 -6.08  5.26
Si -0.47  8.42 -4.28
Si -7.76  1.48 -5.23
Si  0.99  7.49  5.71
Si -8.56  2.93  2.88
Si -2.29 -6.45 -6.66
Si  5.67 -6.67 -3.83
Si -7.19  2.71  5.71
Si  3.11 -1.52  8.95
Si -2.63  5.24  7.65
Si  6.54  0.39 -7.08
Si -5.66  7.47 -2.32
Si  5.22 -2.42  7.75
Si  1.34 -4.20 -8.60
Si -6.01 -5.08  5.61
Si  0.44 -9.34  2.45
Si -7.91  5.00  2.45
Si  4.94 -4.39 -7.08
Si -3.81 -6.84  5.71
Si -6.61  0.39 -7.08
Si -1.87  3.26  8.95
Si -3.47 -1.52  8.95
Si -3.16 -9.15  0.94
Si  6.52 -7.03 -1.78
Si  8.22  5.19  0.94
Si  9.73 -0.99 -0.46
Si  9.40 -2.61  0.84
Si  2.15 -8.60  4.18
Si  3.42 -9.15  0.94
Si -9.51  0.22  2.45
Si -6.64 -7.03 -1.78
Si  5.40  5.00 -6.55
Si  2.20 -8.08 -5.23
Si  8.26  1.12 -5.36
Si  6.96  5.74  4.18
Si  1.85  3.61  9.08
Si  8.12 -5.77 -0.46
Si -7.13  6.95  0.84
Si -7.26 -1.68 -6.66
Si -0.53 -0.83 -10.00
Si  8.62 -4.56  2.45
Si -10.01 -0.99 -0.46
Si  3.94  5.24  7.65
Si -0.21 -7.03  7.22
Si  8.87  2.88 -3.83
Si  0.27  9.78  2.45
Si -5.01  5.17 -7.08
Si -0.65  1.00 10.03
Si -1.52 -8.43 -5.36
Si  5.63 -8.38  0.49
Si  9.08  1.31  4.31
Si -3.02 -3.44 -9.05
Si  9.57 -1.84  2.88
Si -4.54 -8.93 -1.89
Si  9.73  2.52 -1.78
Si -6.15  6.26 -5.23
Si  4.29 -6.45 -6.66
Si -2.31 -9.51  2.98
Si -6.33  2.35  7.75
Si  3.21  8.25  5.26
Si  6.20  7.71  2.88
Si  3.56 -3.44 -9.05
Si -8.65  3.65 -4.28
Si -2.03  5.36 -8.60
Si  8.19  3.48  5.26
Si  1.70  9.42 -3.93
Si -3.37  8.25  5.26
Si -2.48  9.61  2.98
Si  8.75 -0.30  5.61
Si  7.15 -5.08  5.61
Si  2.33 -1.18 -10.13
Si -1.98  7.30  7.22
Si  9.48 -1.13 -4.28
Si -10.01  2.52 -1.78
Si  7.50  3.10 -6.66
Si  5.16  1.34 -9.05
Si 10.22  0.22  2.45
Si  3.25  9.96  0.94
Si  1.87 10.19 -1.89
Si -4.42 -8.60  4.18
Si -5.84 -4.32  7.65
Si -3.33  9.96  0.94
Si -9.52 -4.15 -1.89
Si -0.06 -10.55 -0.46
Si -4.38 -8.08 -5.23
Si  6.82  2.35  7.75
Si  2.52  7.88 -6.66
Si  1.87 -9.69 -3.93
Si  4.71  3.26  8.95
Si  6.35  8.56 -0.46
Si  1.52  2.00 10.38
Si -8.79 -2.06  5.71
Si -10.33 -2.61  0.84
Si  1.85  7.13  7.75
Si -8.75 -6.13 -0.59
Si  5.73 -2.44 -8.70
Si  9.08  4.83  2.98
Si -10.17 -1.84  2.88
Si -5.83  2.34 -8.70
Si -7.49 -6.67 -3.83
Si  7.88 -5.91 -4.28
Si -0.08 -2.78 10.38
Si  7.00  6.26 -5.23
Si  7.97 -6.62  2.88
Si  7.80 -7.39  0.84
Si -6.96  7.71  2.88
Si -1.12 10.73  0.49
Si  1.07  3.95 -10.00
Si  7.50  7.47 -2.32
Si  4.27 -9.51  2.98
Si -4.73  3.61  9.08
Si  4.10  9.61  2.98
Si -2.86  0.24 10.48
Si -1.20  9.25  5.61
Si -5.24 -4.20 -8.60
Si  0.18  6.12 -9.05
Si -1.36 -5.94  9.08
Si -6.80  8.56 -0.46
Si -2.25 -3.78 10.03
Si -5.58  7.49  5.71
Si -10.90  1.17  0.49
Si -9.40 -3.82  4.18
Si  7.97 -2.25  7.22
Si -2.96 -7.20  7.75
Si  5.87 -8.25  4.31
Si -4.25 -1.18 -10.13
Si  1.50 -6.29  8.95
Si -9.30  5.95  0.49
Si -2.64  3.60 -10.13
Si -4.06  7.88 -6.66
Si  4.55  5.36 -8.60
Si  3.72  0.24 10.48
Si -6.33 -1.16  9.08
Si -10.25 -1.13 -4.28
Si  3.62 -7.20  7.75
Si 10.22 -4.15 -1.89
Si  5.06 -8.43 -5.36
Si -9.36 -3.30 -5.23
Si 11.01  2.17  0.84
Si  6.11  8.42 -4.28
Si  4.59  7.30  7.22
Si  2.81 -10.90 -0.59
Si -8.41  7.30 -1.78
Si -7.53 -8.38  0.49
Si 10.87 -2.08 -2.32
Si -4.88  9.42 -3.93
Si -7.76  5.00 -6.55
Si -7.93 -2.42  7.75
Si -4.71 10.19 -1.89
Si -1.03 -9.86  5.61
Si  6.83 -1.16  9.08
Si  0.59 -9.34 -6.55
Si -9.36  0.22 -6.55
Si  7.32 -4.32  7.65
Si -6.14 -9.34  2.45
Si  3.94  3.60 -10.13
Si -8.18 -6.08  5.26
Si -4.71 -9.69 -3.93
Si  2.35  7.12 -8.70
Si  1.99 10.51  4.18
Si -0.30 -10.69 -4.28
Si -4.73  7.13  7.75
Si -9.68 -4.91 -3.93
Si -3.77 -10.90 -0.59
Si  4.33 -3.78 10.03
Si  1.57  0.80 -11.43
Si -2.46 -7.22 -8.70
Si -10.66  1.31  4.31
Si  7.33  2.34 -8.70
Si  2.12 -4.54 10.48
Si  0.96  5.78 10.03
Si -0.53  2.69 -11.32
Si -2.13 -5.60 -10.00
Si -1.26  5.02 10.48
Si  5.93  1.00 10.03
Si -7.43 -2.44 -8.70
Si -8.21 -4.39 -7.08
Si -2.13 -2.09 -11.32
Si -5.05  2.00 10.38
Si  6.05 -0.83 -10.00
Si -0.87 10.87  4.31
Si -9.05  6.09  4.31
Si  8.92  0.46  7.65
Si -0.21 -11.40  2.88
Si  9.27 -6.86 -2.32
Si  0.73 -5.96 -10.13
Si  0.42  9.77 -6.55
Si -7.04  8.42 -4.28
Si 10.34 -3.82  4.18
Si  1.05 11.72  0.84
Si -9.38  4.47  5.61
Si -7.29 -8.25  4.31
Si 10.05 -4.91 -3.93
Si  8.77 -4.56 -6.55
Si -10.86  2.88 -3.83
Si -6.31  9.78  2.45
Si 11.17  2.93  2.88
Si -0.86 -9.10  7.65
Si  1.09 -11.64 -2.32
Si  6.37 -7.03  7.22
Si  7.01 -9.34  2.45
Si 11.33  3.78 -0.46
Si -11.61 -2.25 -1.78
Si  8.15  5.17 -7.08
Si 11.82  0.63 -1.89
Si -4.22  7.12 -8.70
Si  0.74  0.05 11.99
Si  0.61 -1.92 -11.85
Si 10.44  5.95  0.49
Si -3.24 -9.17 -7.08
Si -0.27  8.04  8.95
Si  4.12 -7.22 -8.70
Si  5.22 -5.94  9.08
Si  5.46 10.73  0.49
Si  3.34 -9.17 -7.08
Si -1.66 -11.81 -1.78
Si -5.07 -6.29  8.95
Si -1.69 10.68 -5.36
Si -10.66  4.83  2.98
Si -5.50  3.95 -10.00
Si 10.38 -3.30 -5.23
Si  5.38  9.25  5.61
Si  7.57  7.49  5.71
Si -0.04 -3.98 -11.43
Si -8.00  1.34 -9.05
Si -6.79 -7.03  7.22
Si  6.85  9.78  2.45
Si -0.38 -12.16  0.84
Si -4.59 10.51  4.18
Si -0.23 12.08 -1.78
Si  9.57  2.52  7.22
Si -4.46 -4.54 10.48
Si -11.12 -4.56  2.45
Si 10.38  0.22 -6.55
Si -7.11 -0.83 -10.00
Si  4.45 -5.60 -10.00
Si 11.65 -0.14 -3.93
Si -2.51 -11.45 -3.83
Si -10.98 -0.30  5.61
Si  4.45 -2.09 -11.32
Si  9.21  8.21 -0.59
Si  1.95 -8.22 -9.05
Si  2.03 11.03 -5.23
Si  2.22  2.86 -11.85
Si -7.22  1.00 10.03
Si  6.52 -10.55 -0.46
Si  7.92 -4.20 -8.60
Si 11.60 -4.37  0.94
Si 11.09  3.65 -4.28
Si -0.26 -8.98 -8.60
Si -6.63 -10.55 -0.46
Si -3.20 -10.86  5.26
Si -5.01  0.80 -11.43
Si 10.95 -2.06  5.71
Si  3.38 -10.86  5.26
Si  8.62 -8.93 -1.89
Si  6.50 -2.78 10.38
Si  0.09 -2.01 12.41
Si 10.98 -6.13 -0.59
Si 10.36  4.47  5.61
Si -9.26  7.66 -3.83
Si -12.12  3.43 -0.59
Si  3.17  9.95 -7.08
Si -12.26  0.05  2.98
Si  5.55 -9.86  5.61
Si -6.66 -2.78 10.38
Si -1.03 10.02  7.65
Si -6.39  6.12 -9.05
Si -11.51  5.19  0.94
Si 12.59 -1.35 -0.59
Si -3.41  9.95 -7.08
Si -2.01 -0.12 12.52
Si  9.86  5.90 -5.36
Si 11.94  0.96  4.18
Si -9.87  5.90 -5.36
Si -11.47  1.12 -5.36
Si  2.52 12.25 -2.32
Si -10.16  2.52  7.22
Si -10.47 -6.86 -2.32
Si -8.45  3.26  8.95
Si  4.07 -11.45 -3.83
Si -3.13  8.39  9.08
Si  5.32  5.02 10.48
Si  3.13  6.78 10.38
Si -8.87 -6.45 -6.66
Si  1.69  2.77 12.41
Si  3.45  8.39  9.08
Si  9.52  0.58 -8.60
Si  6.76  6.12 -9.05
Si -8.10 -8.43 -5.36
Si -3.45  6.78 10.38
Si -5.62  5.78 10.03
Si  1.22 12.49  2.88
Si -5.99 -9.34 -6.55
Si  8.43  3.61  9.08
Si  4.89 10.68 -5.36
Si  9.34 -6.84  5.71
Si -0.86 -4.73 11.99
Si  4.92 -11.81 -1.78
Si -1.68 -7.56 10.38
Si  8.73 -8.60  4.18
Si -4.36  2.86 -11.85
Si 12.47  2.69 -2.32
Si -11.61 -5.77 -0.46
Si -5.53 11.72  0.84
Si  1.16 -11.62  5.71
Si  5.70 10.87  4.31
Si  8.77 -8.08 -5.23
Si -12.50 -3.61  0.49
Si 10.68  6.09  4.31
Si -4.55 11.03 -5.23
Si -1.08 12.44 -3.83
Si -4.62 -8.22 -9.05
Si 11.82  5.00  2.45
Si -9.21  5.24  7.65
Si -5.49 -11.64 -2.32
Si  3.17  5.58 -11.43
