500
set: 501.00  0.00  0.00
Si  0.00  0.00  0.00
Si  0.03 -2.20  0.79
Si  1.93  1.11  0.79
Si -0.01 -0.08 -2.37
Si -2.06  1.11  0.79
Si  0.04 -2.12  3.16
Si -0.04  2.12 -3.16
Si  1.90  3.32  0.00
Si -1.90 -3.32  0.00
Si -1.94 -1.19 -3.16
Si  1.94  1.19  3.16
Si -2.09  3.32  0.00
Si  2.09 -3.32  0.00
Si  2.06 -1.19 -3.16
Si -2.06  1.19  3.16
Si -3.99  0.00  0.00
Si  3.99  0.00  0.00
Si  1.90  3.24 -2.37
Si -0.16  4.43  0.79
Si  1.97 -1.01  3.95
Si -2.10  3.24 -2.37
Si -2.03 -1.01  3.95
Si -1.90 -3.40 -2.37
Si -0.13  2.31  3.95
Si -3.96 -2.20  0.79
Si  2.09 -3.40 -2.37
Si  3.99 -0.08 -2.37
Si -4.00 -0.08 -2.37
Si  4.03 -2.20  0.79
Si  3.96  2.12 -3.16
Si -3.96 -2.12  3.16
Si  0.16 -4.51 -3.16
Si -0.16  4.51  3.16
Si -4.03  2.12 -3.16
Si  4.03 -2.12  3.16
Si  0.07 -4.33  3.95
Si -1.87 -5.52  0.79
Si -0.04  2.05 -5.53
Si  3.83  4.43  0.79
Si  2.12 -5.52  0.79
Si  3.87  2.31  3.95
Si -1.94 -1.27 -5.53
Si  2.05 -1.27 -5.53
Si  5.92  1.11  0.79
Si -4.16  4.43  0.79
Si -4.12  2.31  3.95
Si -6.06  1.11  0.79
Si  1.86  5.44 -3.16
Si -1.86 -5.44  3.16
Si -0.20  6.63  0.00
Si  0.20 -6.63  0.00
Si -2.13  5.44 -3.16
Si  2.13 -5.44  3.16
Si -1.97  0.93 -6.32
Si  1.97 -0.93  6.32
Si -2.02 -0.93  6.32
Si  2.02  0.93 -6.32
Si  3.83  4.51  3.16
Si -3.83 -4.51 -3.16
Si  0.12 -2.38 -6.32
Si -0.12  2.38  6.32
Si -5.89 -3.32  0.00
Si  5.89  3.32  0.00
Si  5.93  1.19  3.16
Si -5.93 -1.19 -3.16
Si  4.15 -4.51 -3.16
Si -4.15  4.51  3.16
Si  6.05 -1.19 -3.16
Si -6.05  1.19  3.16
Si  6.09 -3.32  0.00
Si -6.09  3.32  0.00
Si -0.20  6.56 -2.37
Si -3.93 -4.33  3.95
Si  1.77  5.62  3.95
Si  3.95  2.05 -5.53
Si -0.09  0.18  7.10
Si  0.19 -6.71 -2.37
Si  4.06 -4.33  3.95
Si  5.89  3.24 -2.37
Si -4.03  2.05 -5.53
Si  0.15 -4.59 -5.53
Si -5.90 -3.40 -2.37
Si  5.96 -1.01  3.95
Si -2.22  5.62  3.95
Si -6.02 -1.01  3.95
Si -6.09  3.24 -2.37
Si  6.08 -3.40 -2.37
Si  0.07 -4.25  6.32
Si -0.07  4.25 -6.32
Si -3.80 -6.63  0.00
Si  3.80  6.63  0.00
Si -3.87 -2.38 -6.32
Si  3.87  2.38  6.32
Si  4.19 -6.63  0.00
Si -4.19  6.63  0.00
Si -4.12  2.38  6.32
Si  4.12 -2.38 -6.32
Si  1.86  5.36 -5.53
Si  3.79  6.56 -2.37
Si  1.74  7.75  0.79
Si  7.99  0.00  0.00
Si -7.99  0.00  0.00
Si -2.13  5.36 -5.53
Si -1.99 -3.13  7.10
Si  2.00 -3.13  7.10
Si -3.80 -6.71 -2.37
Si -5.86 -5.52  0.79
Si  3.90  0.18  7.10
Si -2.26  7.75  0.79
Si  1.81  3.50  7.10
Si -4.19  6.56 -2.37
Si -3.84 -4.59 -5.53
Si -4.09  0.18  7.10
Si -5.93 -1.27 -5.53
Si -2.19  3.50  7.10
Si  4.18 -6.71 -2.37
Si  6.12 -5.52  0.79
Si  6.05 -1.27 -5.53
Si -7.96 -2.20  0.79
Si  4.15 -4.59 -5.53
Si  7.98 -0.08 -2.37
Si -7.99 -0.08 -2.37
Si  8.02 -2.20  0.79
Si  3.92  4.25 -6.32
Si -3.92 -4.25  6.32
Si  5.86  5.44 -3.16
Si -5.86 -5.44  3.16
Si -1.74 -7.83 -3.16
Si  1.74  7.83  3.16
Si  4.07 -4.25  6.32
Si -4.07  4.25 -6.32
Si  1.78  5.70  6.32
Si -1.78 -5.70 -6.32
Si -2.25  7.83  3.16
Si  2.25 -7.83 -3.16
Si  5.96 -0.93  6.32
Si -5.96  0.93 -6.32
Si -6.02 -0.93  6.32
Si  6.02  0.93 -6.32
Si  6.12 -5.44  3.16
Si -6.12  5.44 -3.16
Si -2.22  5.70  6.32
Si  2.22 -5.70 -6.32
Si -1.83 -7.64  3.95
Si  7.95  2.12 -3.16
Si -7.95 -2.12  3.16
Si  2.16 -7.64  3.95
Si  0.23 -8.84  0.79
Si -8.02  2.12 -3.16
Si  8.02 -2.12  3.16
Si -1.98  0.85 -8.69
Si  2.02  0.85 -8.69
Si  5.77  5.62  3.95
Si  7.82  4.43  0.79
Si  0.12 -2.46 -8.69
Si  7.86  2.31  3.95
Si -6.22  5.62  3.95
Si -8.15  4.43  0.79
Si -0.23  8.76 -3.16
Si  0.23 -8.76  3.16
Si -8.12  2.31  3.95
Si  0.09 -0.26 -9.47
Si -0.09  0.26  9.47
Si -7.83 -4.51 -3.16
Si  7.83  4.51  3.16
Si  0.10 -6.45  7.10
Si -0.08  4.17 -8.69
Si -3.77 -8.84  0.79
Si  5.73  7.75  0.79
Si  5.85  5.36 -5.53
Si -0.32  8.94  3.95
Si -1.75 -7.90 -5.53
Si -5.99 -3.13  7.10
Si  6.00 -3.13  7.10
Si  5.80  3.50  7.10
Si  4.22 -8.84  0.79
Si -3.88 -2.46 -8.69
Si -8.15  4.51  3.16
Si  8.15 -4.51 -3.16
Si -6.13  5.36 -5.53
Si -0.29  6.82  7.10
Si -7.92 -4.33  3.95
Si  7.95  2.05 -5.53
Si  2.25 -7.90 -5.53
Si  4.11 -2.46 -8.69
Si  8.05 -4.33  3.95
Si -8.03  2.05 -5.53
Si -6.25  7.75  0.79
Si  9.92  1.11  0.79
Si  1.83  7.57 -6.32
Si -1.83 -7.57  6.32
Si -3.76 -8.76  3.16
Si  3.76  8.76 -3.16
Si -6.18  3.50  7.10
Si -2.17  7.57 -6.32
Si  2.17 -7.57  6.32
Si -1.71 -9.95  0.00
Si  1.71  9.95  0.00
Si -10.05  1.11  0.79
Si  1.99  3.06 -9.47
Si -1.99 -3.06  9.47
Si -2.01  3.06 -9.47
Si  2.01 -3.06  9.47
Si -5.74 -7.83 -3.16
Si  5.74  7.83  3.16
Si  2.29 -9.95  0.00
Si -2.29  9.95  0.00
Si -4.22  8.76 -3.16
Si  4.22 -8.76  3.16
Si  7.79  6.63  0.00
Si -7.79 -6.63  0.00
Si -3.91 -0.26 -9.47
Si  3.91  0.26  9.47
Si  5.77  5.70  6.32
Si -5.77 -5.70 -6.32
Si  1.81  3.58  9.47
Si -1.81 -3.58 -9.47
Si -0.23  8.68 -5.53
Si  1.70  9.87 -2.37
Si -4.08  0.26  9.47
Si  4.08 -0.26 -9.47
Si -3.89 -6.45  7.10
Si  2.18 -3.58 -9.47
Si -2.18  3.58  9.47
Si -7.87 -2.38 -6.32
Si  7.87  2.38  6.32
Si -5.83 -7.64  3.95
Si  3.92  4.17 -8.69
Si -2.29  9.87 -2.37
Si -9.89 -3.32  0.00
Si  9.89  3.32  0.00
Si  4.10 -6.45  7.10
Si  3.67  8.94  3.95
Si -0.06 -1.94 10.26
Si -1.71 -10.03 -2.37
Si  7.79  6.56 -2.37
Si -4.07  4.17 -8.69
Si  9.92  1.19  3.16
Si -9.92 -1.19 -3.16
Si  6.25 -7.83 -3.16
Si -6.25  7.83  3.16
Si  1.84  1.38 10.26
Si  3.71  6.82  7.10
Si -8.18  6.63  0.00
Si  8.18 -6.63  0.00
Si  6.21 -5.70 -6.32
Si -6.21  5.70  6.32
Si -8.11  2.38  6.32
Si  8.11 -2.38 -6.32
Si  2.28 -10.03 -2.37
Si -7.80 -6.71 -2.37
Si -5.97  0.85 -8.69
Si -2.15  1.38 10.26
Si  6.16 -7.64  3.95
Si -1.78 -5.78 -8.69
Si  6.01  0.85 -8.69
Si 10.05 -1.19 -3.16
Si -10.05  1.19  3.16
Si -10.08  3.32  0.00
Si 10.08 -3.32  0.00
Si  7.90  0.18  7.10
Si -7.83 -4.59 -5.53
Si  2.21 -5.78 -8.69
Si  9.88  3.24 -2.37
Si -4.32  8.94  3.95
Si -9.89 -3.40 -2.37
Si -4.28  6.82  7.10
Si -8.19  6.56 -2.37
Si  9.95 -1.01  3.95
Si -8.08  0.18  7.10
Si -10.02 -1.01  3.95
Si  8.18 -6.71 -2.37
Si -10.09  3.24 -2.37
Si  8.14 -4.59 -5.53
Si 10.08 -3.40 -2.37
Si  3.76  8.68 -5.53
Si  7.92  4.25 -6.32
Si -7.92 -4.25  6.32
Si -0.32  9.02  6.32
Si  0.32 -9.02 -6.32
Si  8.06 -4.25  6.32
Si -8.06  4.25 -6.32
Si -0.36 11.07  0.79
Si -4.23  8.68 -5.53
Si  3.94 -1.94 10.26
Si -4.05 -1.94 10.26
Si -5.74 -7.90 -5.53
Si -0.25  4.69 10.26
Si -9.86 -5.52  0.79
Si  0.11 -6.37  9.47
Si -0.11  6.37 -9.47
Si -9.93 -1.27 -5.53
Si -5.82 -7.57  6.32
Si  5.82  7.57 -6.32
Si  5.70  9.95  0.00
Si -5.70 -9.95  0.00
Si  6.24 -7.90 -5.53
Si 10.04 -1.27 -5.53
Si 10.11 -5.52  0.79
Si -0.35 11.14  3.16
Si  0.35 -11.14 -3.16
Si  3.68  9.02  6.32
Si -3.68 -9.02 -6.32
Si  1.82  7.49 -8.69
Si  5.98  3.06 -9.47
Si -5.98 -3.06  9.47
Si  6.16 -7.57  6.32
Si -6.16  7.57 -6.32
Si -6.00  3.06 -9.47
Si  6.00 -3.06  9.47
Si  5.69  9.87 -2.37
Si  0.26 -10.96  3.95
Si -2.17  7.49 -8.69
Si -5.81 -3.58 -9.47
Si  5.81  3.58  9.47
Si  3.64 11.07  0.79
Si  9.85  5.44 -3.16
Si -9.85 -5.44  3.16
Si -1.96 -5.26 10.26
Si  2.04 -5.26 10.26
Si  0.28 -6.89 -9.47
Si -0.28  6.89  9.47
Si -6.28  9.95  0.00
Si  6.28 -9.95  0.00
Si -5.70 -10.03 -2.37
Si -7.76 -8.84  0.79
Si -4.31  9.02  6.32
Si  4.31 -9.02 -6.32
Si  9.96 -0.93  6.32
Si -9.96  0.93 -6.32
Si  0.08 -0.34 -11.84
Si -6.17  3.58  9.47
Si  6.17 -3.58 -9.47
Si 10.01  0.93 -6.32
Si -10.01 -0.93  6.32
Si  5.84  1.38 10.26
Si  3.74  4.69 10.26
Si 10.12 -5.44  3.16
Si -10.12  5.44 -3.16
Si -4.35 11.07  0.79
Si -5.78 -5.78 -8.69
Si  9.76  5.62  3.95
Si -6.29  9.87 -2.37
Si -7.87 -2.46 -8.69
Si -11.98  0.00  0.00
Si 11.98  0.00  0.00
Si -6.14  1.38 10.26
Si -4.24  4.69 10.26
Si -3.89 -6.37  9.47
Si  3.89  6.37 -9.47
Si  6.28 -10.03 -2.37
Si  8.21 -8.84  0.79
Si -7.76 -8.76  3.16
Si  7.76  8.76 -3.16
Si -4.10  6.37 -9.47
Si  4.10 -6.37  9.47
Si  8.11 -2.46 -8.69
Si  6.21 -5.78 -8.69
Si  3.64 11.14  3.16
Si -3.64 -11.14 -3.16
Si -11.95 -2.20  0.79
Si 11.98 -0.08 -2.37
Si -1.80 -9.77  7.10
Si -11.99 -0.08 -2.37
Si -3.73 -10.96  3.95
Si 12.01 -2.20  0.79
Si  2.20 -9.77  7.10
Si  3.71  6.89  9.47
Si -3.71 -6.89 -9.47
Si -1.67 -12.15  0.79
Si -10.21  5.62  3.95
Si -7.90 -0.26 -9.47
Si  7.90  0.26  9.47
Si -4.35 11.14  3.16
Si  4.35 -11.14 -3.16
Si  1.98  2.98 -11.84
Si -2.01  2.98 -11.84
Si  2.32 -12.15  0.79
Si  4.25 -10.96  3.95
Si  8.22 -8.76  3.16
Si -8.22  8.76 -3.16
Si -7.88 -6.45  7.10
Si  7.67  8.94  3.95
Si  8.07 -0.26 -9.47
Si -8.07  0.26  9.47
Si  9.72  7.75  0.79
Si  7.91  4.17 -8.69
Si -4.28  6.89  9.47
Si  4.28 -6.89 -9.47
Si -3.91 -0.34 -11.84
Si  1.61 10.13  7.10
Si  7.70  6.82  7.10
Si  9.85  5.36 -5.53
Si  0.35 -11.22 -5.53
Si -1.82 -3.65 -11.84
Si  4.08 -0.34 -11.84
Si 11.95  2.12 -3.16
Si -11.95 -2.12  3.16
Si  8.09 -6.45  7.10
Si -8.06  4.17 -8.69
Si  0.31 -9.10 -8.69
Si  2.18 -3.65 -11.84
Si -0.27 10.88 -6.32
Si  0.27 -10.88  6.32
Si -1.67 -12.08  3.16
Si  1.67 12.08 -3.16
Si  9.79  3.50  7.10
Si -2.38 10.13  7.10
Si -12.02  2.12 -3.16
Si 12.02 -2.12  3.16
Si -9.98 -3.13  7.10
Si 11.82  4.43  0.79
Si  9.99 -3.13  7.10
Si  2.32 -12.08  3.16
Si -2.32 12.08 -3.16
Si 11.85  2.31  3.95
Si -10.12  5.36 -5.53
Si -0.05 -1.86 12.63
Si  0.05  1.86 -12.63
Si -8.31  8.94  3.95
Si -1.85 -1.45 -12.63
Si  1.85  1.45 12.63
Si  5.82  7.49 -8.69
Si -8.27  6.82  7.10
Si -10.24  7.75  0.79
Si -9.73 -7.83 -3.16
Si  9.73  7.83  3.16
Si  7.75  8.68 -5.53
Si -10.17  3.50  7.10
Si -2.15  1.45 12.63
Si  2.15 -1.45 -12.63
Si -12.11  2.31  3.95
Si  9.76  5.70  6.32
Si -9.76 -5.70 -6.32
Si -12.14  4.43  0.79
Si  1.58 12.26  3.95
Si -5.95 -5.26 10.26
Si  6.03 -5.26 10.26
Si -6.16  7.49 -8.69
Si -3.65 -11.22 -5.53
Si -11.82 -4.51 -3.16
Si 11.82  4.51  3.16
Si -9.82 -7.64  3.95
Si -2.42 12.26  3.95
Si -3.68 -9.10 -8.69
Si  7.93 -1.94 10.26
Si  1.65  8.01 10.26
Si -3.73 -10.88  6.32
Si  3.73 10.88 -6.32
Si -8.22  8.68 -5.53
Si -8.04 -1.94 10.26
Si -2.35  8.01 10.26
Si  4.34 -11.22 -5.53
Si -9.96  0.85 -8.69
Si 10.24 -7.83 -3.16
Si -10.24  7.83  3.16
Si -0.39 13.27  0.00
Si  0.39 -13.27  0.00
Si -11.91 -4.33  3.95
Si 10.01  0.85 -8.69
Si  4.26 -10.88  6.32
Si -4.26 10.88 -6.32
Si -10.21  5.70  6.32
Si 10.21 -5.70 -6.32
Si  4.31 -9.10 -8.69
Si 10.15 -7.64  3.95
Si  1.67 12.00 -5.53
Si 11.94  2.05 -5.53
Si -12.14  4.51  3.16
Si 12.14 -4.51 -3.16
Si  3.94 -1.86 12.63
Si -3.94  1.86 -12.63
Si  0.14 -8.58 10.26
Si -12.02  2.05 -5.53
Si  4.04  1.86 -12.63
Si -4.04 -1.86 12.63
Si -5.79 -9.77  7.10
Si 12.05 -4.33  3.95
Si -0.39 13.19 -2.37
Si -0.11  6.30 -11.84
Si -2.33 12.00 -5.53
Si  7.67  9.02  6.32
Si -7.67 -9.02 -6.32
Si -5.67 -12.15  0.79
Si  7.63 11.07  0.79
Si  0.25 -4.77 -12.63
Si -0.25  4.77 12.63
Si 11.79  6.63  0.00
Si -11.79 -6.63  0.00
Si  0.38 -13.35 -2.37
Si  1.88 -0.75 13.42
Si  6.19 -9.77  7.10
Si  5.61 10.13  7.10
Si  5.98  2.98 -11.84
Si -2.12 -0.75 13.42
Si -6.00  2.98 -11.84
Si -11.86 -2.38 -6.32
Si 11.86  2.38  6.32
Si -0.21  2.57 13.42
Si  1.79  9.69 -9.47
