500
set: 774.00  0.00  0.00
Si  0.37 -1.19  0.83
Si -0.40  1.19 -0.86
Si -1.30 -1.15 -0.84
Si  1.28  1.18  0.89
Si -2.13  1.24  0.77
Si -0.90  0.04  2.44
Si  2.16 -1.29 -0.79
Si  0.95 -0.03 -2.51
Si  3.01  1.12 -0.79
Si -3.06 -1.15  0.83
Si -0.05 -2.37 -2.48
Si  0.08  2.43  2.50
Si -2.64  0.08 -2.42
Si  2.62 -0.06  2.45
Si -0.55 -3.56  0.89
Si  0.53  3.59 -0.84
Si -1.75 -2.31  2.50
Si -1.74  2.39 -2.49
Si  1.78  2.37 -2.48
Si -1.24  3.59  0.83
Si  1.18 -3.62 -0.79
Si  1.76 -2.43  2.48
Si -0.84  0.06 -4.09
Si  0.87  0.00  4.10
Si  3.99 -1.15  0.83
Si  2.20  3.55  0.83
Si -4.05  1.12 -0.79
Si -2.22 -3.55 -0.86
Si -3.07  3.45 -0.79
Si  0.04 -2.40  4.07
Si  3.10 -3.50  0.77
Si  0.01  2.41 -4.15
Si -3.47  2.31  2.48
Si -2.65  0.01  4.09
Si  3.49 -2.35 -2.49
Si  2.67 -0.06 -4.11
Si  3.59  2.31  2.48
Si -3.57 -2.35 -2.49
Si  4.41  0.08 -2.42
Si  1.87  2.34  4.07
Si -4.44 -0.06  2.45
Si -1.81 -2.33 -4.15
Si  1.70 -2.43 -4.14
Si -4.90 -1.29 -0.79
Si -1.73  2.45  4.17
Si  4.93  1.24  0.77
Si  3.99  3.45 -0.79
Si -3.96 -3.50  0.77
Si  0.79 -4.80  2.45
Si  0.93  4.78  2.44
Si -0.82  4.82 -2.42
Si -0.88 -4.76 -2.51
Si  0.36 -1.19 -5.69
Si  2.58 -4.66 -2.42
Si -0.38  1.22  5.75
Si -2.61  4.68  2.45
Si  3.50 -2.29  4.17
Si  3.53  2.31 -4.14
Si -3.53  2.31 -4.14
Si  5.76 -1.15 -0.84
Si -3.55 -2.29  4.17
Si -2.73 -4.70  2.44
Si -5.78  1.18  0.89
Si -1.31 -1.18  5.72
Si -4.39 -0.06 -4.11
Si  1.28  1.18 -5.75
Si  4.41  0.01  4.09
Si  2.78  4.72 -2.51
Si -0.30  5.98  0.77
Si  4.83 -3.55 -0.86
Si -4.86  3.55  0.83
Si  0.33 -6.04 -0.79
Si  1.43  5.93 -0.86
Si -1.46 -5.93  0.83
Si -2.15  1.22 -5.76
Si  2.10 -1.25  5.80
Si -5.28  2.37 -2.48
Si  5.31 -2.31  2.50
Si -2.22  5.86 -0.79
Si -0.82  4.75  4.09
Si  2.16 -5.89  0.83
Si -5.30 -2.43  2.48
Si  5.32  2.39 -2.49
Si -0.96 -4.74  4.10
Si  0.84 -4.80 -4.11
Si  0.99  4.80 -4.09
Si -6.11 -0.03 -2.51
Si  6.16  0.04  2.44
Si  3.08  1.07  5.79
Si -3.05 -1.13 -5.81
Si -3.13 -5.89 -0.84
Si -2.56  4.68 -4.11
Si  3.11  5.92  0.89
Si  0.52  3.56  5.72
Si  2.58 -4.73  4.09
Si -2.67 -4.68 -4.09
Si -0.55 -3.56 -5.75
Si  6.66  1.19 -0.86
Si  2.70  4.74  4.10
Si  4.33 -4.70  2.44
Si -6.69 -1.19  0.83
Si -4.28  4.72 -2.51
Si  5.82  3.59  0.83
Si -4.47 -4.66 -2.42
Si  4.45  4.68  2.45
Si -1.22  3.61 -5.81
Si -5.88 -3.62 -0.79
Si  1.25 -3.67  5.79
Si -5.19  2.34  4.07
Si  2.19  3.55 -5.69
Si  5.24 -2.33 -4.15
Si -2.21 -3.52  5.75
Si -3.98  1.07  5.79
Si  3.93 -5.89 -0.84
Si  4.01 -1.13 -5.81
Si -3.95  5.92  0.89
Si -5.36 -2.43 -4.14
Si  5.33  2.45  4.17
Si  3.07 -3.52 -5.76
Si -6.19  0.00  4.10
Si  6.22  0.06 -4.09
Si -3.13  3.49  5.80
Si  6.51 -3.56  0.89
Si -6.53  3.59 -0.84
Si -0.39  1.22 -7.42
Si  0.09  7.13 -2.49
Si  7.43 -1.19  0.83
Si  0.37 -1.19  7.48
Si -0.07 -7.17  2.48
Si -7.45  1.19 -0.86
Si  4.39 -4.68 -4.09
Si  1.29  1.18  7.42
Si -4.36  4.74  4.10
Si  4.84  5.86 -0.79
Si -1.64  7.05  2.48
Si -1.31 -1.18 -7.45
Si  4.90  1.22 -5.76
Si  4.50  4.68 -4.11
Si -4.48 -4.73  4.09
Si  1.66 -7.09 -2.49
Si -4.89 -5.89  0.83
Si -4.96 -1.25  5.80
Si -1.88 -7.11 -2.48
Si  2.09 -1.25 -7.37
Si -6.98  2.43  2.50
Si  7.01 -2.37 -2.48
Si -2.15  1.22  7.41
Si  3.92  3.49  5.80
Si  1.91  7.17  2.50
Si -3.98 -3.52 -5.76
Si -7.11 -2.37 -2.48
Si  7.13  2.43  2.50
Si -3.04 -1.13  7.36
Si  3.07  1.08 -7.38
Si -6.13  4.78  2.44
Si  6.18 -4.76 -2.51
Si  5.75 -1.18  5.72
Si  5.60 -5.93  0.83
Si -5.62  5.93 -0.86
Si -5.78  1.18 -5.75
Si -0.54 -3.56  7.42
Si  6.24  4.82 -2.42
Si  3.48 -7.05  2.50
Si -6.27 -4.80  2.45
Si  0.51  3.56 -7.45
Si -0.13 -7.17 -4.14
Si -1.21  3.61  7.36
Si -3.45  7.11 -2.48
Si -4.87  3.55 -5.69
Si -0.33  5.96 -5.76
Si -3.58 -7.05  2.50
Si  4.85 -3.52  5.75
Si  0.10  7.19  4.17
Si -1.24  8.19 -0.79
Si -7.95  0.04  2.44
Si  1.24 -3.66 -7.38
Si  1.68 -7.03  4.17
Si  0.27 -5.99  5.80
Si -1.47 -5.93 -5.69
Si  3.61  7.11 -2.48
Si -1.70  7.05 -4.14
Si  1.27 -8.24  0.77
Si  8.01 -0.03 -2.51
Si  0.59  8.33  0.83
Si  1.45  5.96  5.75
Si -1.79 -7.14  4.07
Si -0.65 -8.36 -0.79
Si  7.59  3.59 -0.84
Si -7.61 -3.56  0.89
Si -3.99  1.08 -7.38
Si  4.02 -1.13  7.36
Si -7.02 -2.40  4.07
Si  8.34  1.18  0.89
Si  1.84  7.16 -4.15
Si -8.36 -1.15 -0.84
Si -2.15  5.82  5.79
Si -2.22 -3.52 -7.42
Si -7.04  2.41 -4.15
Si  7.10 -2.40  4.07
Si  2.18 -5.87 -5.81
Si  7.07  2.41 -4.15
Si  2.20  3.55  7.48
Si -2.38 -8.30  0.89
Si  2.36  8.33 -0.84
Si -3.14  3.49 -7.37
Si  6.10 -4.74  4.10
Si -6.07  4.80 -4.09
Si  3.08 -3.52  7.41
Si -3.13 -5.92  5.72
Si  3.11  5.92 -5.75
Si -3.36  7.08  4.07
Si  6.23  4.75  4.09
Si  3.00 -8.29 -0.86
Si -6.21 -4.80 -4.11
Si -3.03  8.29  0.83
Si -6.70 -1.19 -5.69
Si  3.42 -7.07 -4.15
Si -7.90  0.06 -4.09
Si  6.68  1.22  5.75
Si  7.93  0.00  4.10
Si -3.64 -7.07 -4.15
Si  3.69  7.08  4.07
Si  4.91  1.22  7.41
Si -4.97 -1.25 -7.37
Si -5.81 -3.67  5.79
Si  5.84  3.61 -5.81
Si  8.24 -3.62 -0.79
Si  3.92  3.49 -7.37
Si  6.76  5.98  0.77
Si -6.73 -6.04 -0.79
Si -8.29  3.59  0.83
Si  0.86  0.00 -9.07
Si -3.98 -3.52  7.41
Si -0.83  0.05  9.08
Si  3.92 -5.92  5.72
Si  5.18 -7.11 -2.48
Si -3.95  5.92 -5.75
Si -5.15  7.17  2.50
Si  5.42  7.05  2.48
Si  4.03  8.29  0.83
Si -5.40 -7.09 -2.49
Si -4.05 -8.29 -0.86
Si -9.19  1.24  0.77
Si  0.02  2.41  9.02
Si  9.22 -1.29 -0.79
Si -6.54  3.56  5.72
Si  6.51 -3.56 -5.75
Si  0.03 -2.39 -9.10
Si  7.42 -1.19 -5.69
Si -8.81 -2.31  2.50
Si  2.68 -0.06  9.06
Si -8.80  2.39 -2.49
Si -2.66  0.02 -9.08
Si -5.77  1.18  7.42
Si  8.82 -2.43  2.48
Si  5.74 -1.18 -7.45
Si -7.44  1.22  5.75
Si  8.84  2.37 -2.48
Si -1.73  2.45 -9.00
Si -1.81 -2.33  9.02
Si  0.26 -5.99 -7.37
Si  1.71 -2.43  9.03
Si -7.36  5.98  0.77
Si -0.32  5.96  7.41
Si  7.85 -4.80  2.45
Si  4.84 -3.52 -7.42
Si -7.87  4.82 -2.42
Si  4.91  5.82  5.79
Si  4.68 -8.30  0.89
Si  7.39 -6.04 -0.79
Si  1.86  2.35 -9.10
Si -4.87 -5.87 -5.81
Si -7.94 -4.76 -2.51
Si -4.86  3.55  7.48
Si -4.70  8.33 -0.84
Si  7.99  4.78  2.44
Si  1.44  5.96 -7.42
Si -2.16  5.82 -7.38
Si -1.46 -5.93  7.48
Si  2.19 -5.87  7.36
Si  0.76 -9.40 -2.42
Si  5.27 -7.14  4.07
Si -0.78  9.42  2.45
Si -5.22  7.16 -4.15
Si  5.36  7.05 -4.14
Si -5.38 -7.03  4.17
Si -1.04 -9.54  2.45
Si  1.01  9.56 -2.42
Si  3.50 -2.29 -9.00
Si  5.59 -5.93 -5.69
Si -3.56 -2.29 -9.00
Si  9.26  3.55  0.83
Si -3.52  2.31  9.03
Si  3.54  2.31  9.03
Si -9.28 -3.55 -0.86
Si  9.68 -0.06  2.45
Si  8.76 -2.43 -4.14
Si  3.12  5.92  7.42
Si -9.70  0.08 -2.42
Si -5.61  5.96  5.75
Si -3.14 -5.92 -7.45
Si -8.78  2.45  4.17
Si  6.67  1.22 -7.42
Si -4.38 -0.06  9.06
Si  2.50 -9.44  2.44
Si -8.87 -2.33 -4.15
Si  5.85  3.61  7.36
Si  5.82  8.19 -0.79
Si -7.88  4.75  4.09
Si -5.82 -3.66 -7.38
Si -2.45  9.46 -2.51
Si  8.93  2.34  4.07
Si  4.40  0.02 -9.08
Si -5.79 -8.24  0.77
Si -6.69 -1.19  7.48
Si  7.90 -4.80 -4.11
Si  7.58  3.56  5.72
Si  1.25 -8.26 -5.76
Si -1.30  8.23  5.80
Si 10.06  1.12 -0.79
Si -8.02 -4.74  4.10
Si -7.60 -3.56 -5.75
Si  0.61  8.35 -5.81
Si -2.71 -9.51 -2.51
Si  8.34  1.18 -5.75
Si -8.36 -1.18  5.72
Si  2.76  9.52  2.44
Si  8.04  4.80 -4.09
Si -10.12 -1.15  0.83
Si -0.58 -8.41  5.79
Si -3.94  5.92  7.42
Si -0.97 -4.74 -9.07
Si -6.97  7.13 -2.49
Si -0.83  4.76 -9.08
Si  3.92 -5.92 -7.45
Si  0.85 -4.80  9.06
Si -0.73  9.42 -4.11
Si  6.99 -7.17  2.48
Si  1.00  4.79  9.08
Si  0.75 -9.47  4.09
Si  2.35  8.30  5.72
Si -2.38 -8.30 -5.75
Si  1.00  9.49  4.09
Si  8.49  5.93 -0.86
Si  7.14  7.13 -2.49
Si -7.12 -7.17  2.48
Si -8.51 -5.93  0.83
Si -0.98 -9.54 -4.11
Si  6.52 -3.56  7.42
Si -3.04  8.29 -5.69
Si  3.02 -8.26  5.75
Si -2.55  4.68  9.06
Si -6.54  3.56 -7.45
Si -9.71  0.01  4.09
Si  2.57 -4.72 -9.08
Si -2.66 -4.69  9.08
Si  9.73 -0.06 -4.11
Si  6.41 -8.36 -0.79
Si -6.47  8.33  0.83
Si  2.69  4.74 -9.07
Si -7.45  1.22 -7.42
Si  2.56 -9.42 -4.09
Si  4.90  5.82 -7.38
Si -4.87 -5.87  7.36
Si  7.42 -1.19  7.48
Si -0.39 10.60 -0.79
Si -2.53  9.48  4.10
Si  0.34 -10.63  0.83
Si  6.73  5.96 -5.76
Si  5.25 -2.33  9.02
Si -2.79 -9.48  4.10
Si  0.96 -0.03 10.66
Si -10.13  3.45 -0.79
Si -4.30  9.52  2.44
Si -8.28  3.61 -5.81
Si -5.20  2.35 -9.10
Si  5.32  2.45 -9.00
Si  4.35 -9.51 -2.51
Si  2.82  9.54 -4.09
Si -6.79 -5.99  5.80
Si -4.55 -9.44  2.44
Si -0.91  0.05 -10.73
Si  8.31 -3.67  5.79
Si 10.16 -3.50  0.77
Si -5.35 -2.43  9.03
Si  6.93 -7.17 -4.14
Si  4.61  9.46 -2.51
Si  4.02  8.29 -5.69
Si -6.96  7.19  4.17
Si -4.04 -8.26  5.75
Si  1.53 10.72  0.77
Si  2.10 -10.63 -0.84
Si -2.12 10.66  0.89
Si -1.50 -10.78 -0.79
Si  9.15 -1.25  5.80
Si -9.21  1.22 -5.76
Si  0.07  2.43 -10.67
Si -0.04 -2.37 10.69
Si -7.19 -7.17 -4.14
Si  7.16  7.19  4.17
Si  9.22 -5.89  0.83
Si  9.64 -4.66 -2.42
Si -6.20  0.00 -9.07
Si -9.28  5.86 -0.79
Si  6.22  0.05  9.08
Si -9.67  4.68  2.45
Si  2.61 -0.06 -10.72
Si -5.62  5.96 -7.42
Si -10.53  2.31  2.48
Si -1.76 -2.31 -10.67
Si  5.60 -5.93  7.48
Si -2.64  0.08 10.75
Si -1.73  2.38 10.68
Si 10.54 -2.35 -2.49
Si  1.79  2.37 10.69
Si -7.38  5.96 -5.76
Si  7.33 -5.99  5.80
Si  1.75 -2.42 -10.70
Si -9.78 -4.70  2.44
Si  4.40 -4.69  9.08
Si -4.71  8.30  5.72
Si -1.31  8.23 -7.37
Si -4.37  4.74 -9.07
Si  4.68 -8.30 -5.75
Si 11.05 -1.15  0.83
Si  0.62  8.35  7.36
Si  4.51  4.68  9.06
Si -10.63 -2.35 -2.49
Si  1.25 -8.26  7.41
Si 10.65  2.31  2.48
Si -4.49 -4.72 -9.08
Si  4.27 -9.48  4.10
Si  9.84  4.72 -2.51
Si  3.26 10.67 -0.86
Si -11.11  1.12 -0.79
Si -3.29 -10.67  0.83
Si -7.60 -3.56  7.42
Si -0.59 -8.40 -7.38
Si  7.57  3.56 -7.45
Si -4.24  9.54 -4.09
Si -4.50 -9.42 -4.09
Si  8.35  1.18  7.42
Si -8.37 -1.18 -7.45
Si  4.53  9.48  4.10
Si  7.65  8.33  0.83
Si  3.77 -10.67  0.83
Si -3.80 10.67 -0.86
Si -2.37 -8.30  7.42
Si  2.34  8.30 -7.45
Si -7.71 -8.36 -0.79
Si  9.24  3.55 -5.69
Si -9.62  4.68 -4.11
Si -9.27 -3.52  5.75
Si -8.70  7.05  2.48
Si  3.50 -2.36 10.68
Si -3.48  2.31 -10.70
Si  9.63 -4.73  4.09
Si -3.56 -2.36 10.68
Si  3.01 -8.26 -7.42
Si  8.72 -7.09 -2.49
Si  3.58  2.31 -10.70
Si  0.09  7.19 -9.00
Si -0.12 -7.17  9.03
Si  6.02 -9.54  2.45
Si  1.67 -7.03 -9.00
Si -9.73 -4.68 -4.09
Si -3.03  8.29  7.48
Si -6.04  9.56 -2.42
Si -6.30 -9.40 -2.42
Si -11.01 -3.50  0.77
Si 10.56 -2.29  4.17
Si -1.69  7.05  9.03
Si  6.28  9.42  2.45
Si  5.75  8.23  5.80
Si  9.76  4.74  4.10
Si 11.04  3.45 -0.79
Si 10.59  2.31 -4.14
Si -10.59  2.31 -4.14
Si -4.45 -0.06 -10.72
Si -5.81 -8.26 -5.76
Si  4.42  0.08 10.75
Si -10.61 -2.29  4.17
Si -8.27  3.61  7.36
Si  6.74  5.96  7.41
Si  1.85  7.15  9.02
Si -6.80 -5.99 -7.37
Si -8.30  8.19 -0.79
Si -8.94 -7.11 -2.48
Si  8.30 -3.66 -7.38
Si -7.04  2.41  9.02
Si -1.80 -7.13 -9.10
Si -0.87 -4.77 10.66
Si -10.10 -1.13 -5.81
Si  7.08  2.41  9.02
Si 10.13  1.07  5.79
Si 11.47  0.08 -2.42
Si -7.03 -2.39 -9.10
Si  8.33 -8.24  0.77
Si  8.96  7.17  2.50
Si -11.50 -0.06  2.45
