500
set: 1389.00  0.00  0.00
Si -0.59 -0.14  0.97
Si  0.72 -0.17 -0.96
Si -1.70 -1.78 -0.27
Si -1.68  2.05  1.06
Si -0.30 -1.88 -2.19
Si  2.44 -1.78 -0.27
Si  0.29  3.06  0.23
Si  1.63  1.58 -2.19
Si  0.50 -0.51  3.09
Si  2.46  2.05  1.06
Si -0.47  2.87 -1.92
Si -3.42 -0.17 -0.96
Si  3.55 -0.14  0.97
Si -2.51  1.58 -2.19
Si  1.59 -3.89  0.23
Si  1.66  0.68 -4.22
Si  0.83 -4.08 -1.92
Si -1.71  2.95  3.09
Si  1.62 -2.71  3.35
Si -2.55 -3.89  0.23
Si  1.52  1.20  4.32
Si -1.39 -1.51 -4.31
Si  3.84 -1.88 -2.19
Si -3.64 -0.51  3.09
Si -4.73 -0.14  0.97
Si  2.43  2.95  3.09
Si -3.85  3.06  0.23
Si -2.48  0.68 -4.22
Si  4.86 -0.17 -0.96
Si -2.52 -2.71  3.35
Si -0.38 -4.91  1.06
Si  3.67  2.87 -1.92
Si -0.41 -4.01  3.09
Si -0.90 -0.41  5.00
Si -2.62  1.20  4.32
Si -4.44 -1.88 -2.19
Si  1.14  5.18 -0.27
Si  2.75 -1.51 -4.31
Si -0.51  1.69 -5.05
Si  4.43  3.06  0.23
Si  0.33  4.24  3.35
Si  4.64 -0.51  3.09
Si -3.31 -4.08 -1.92
Si -1.60  5.07 -2.19
Si -4.61  2.87 -1.92
Si -1.21 -5.38 -2.19
Si  3.24 -0.41  5.00
Si -3.00  5.18 -0.27
Si  2.54  5.07 -2.19
Si -5.84 -1.78 -0.27
Si -5.82  2.05  1.06
Si  3.76 -4.91  1.06
Si  3.73 -4.01  3.09
Si -1.75 -2.52  5.50
Si  0.21  1.23  6.24
Si  5.77  1.58 -2.19
Si -0.08 -1.54 -6.23
Si  3.63  1.69 -5.05
Si  2.93 -5.38 -2.19
Si  2.39 -2.52  5.50
Si  1.64 -3.15 -5.55
Si -3.81  4.24  3.35
Si  4.97 -4.08 -1.92
Si  0.34  3.81 -5.55
Si -4.52 -4.91  1.06
Si -4.55 -4.01  3.09
Si  6.58 -1.78 -0.27
Si -2.50 -3.15 -5.55
Si -0.58  6.78 -0.96
Si  5.73 -3.89  0.23
Si  6.60  2.05  1.06
Si  4.47  4.24  3.35
Si -4.65  1.69 -5.05
Si  1.45  5.44 -4.31
Si -5.04 -0.41  5.00
Si -1.89  6.81  0.97
Si  1.09  4.43  5.50
Si -5.53 -1.51 -4.31
Si -6.65  1.58 -2.19
Si -0.80  6.44  3.09
Si  0.71 -7.10  0.97
Si  5.76 -2.71  3.35
Si  5.80  0.68 -4.22
Si  5.66  1.20  4.32
Si  2.25  6.81  0.97
Si -5.85  2.95  3.09
Si -0.88  3.42  6.33
Si  0.42 -3.54  6.33
Si -1.32 -5.76  4.32
Si  0.79 -5.26 -5.05
Si  5.28  5.18 -0.27
Si -2.69  5.44 -4.31
Si -1.27  1.50 -7.20
Si  2.02 -7.13 -0.96
Si -3.93  1.23  6.24
Si -2.12 -7.13 -0.96
Si  0.83  0.21 -7.46
Si  4.06 -1.54 -6.23
Si -7.56 -0.17 -0.96
Si -1.18 -6.28 -4.22
Si -4.22 -1.54 -6.23
Si -3.05  4.43  5.50
Si  4.35  1.23  6.24
Si  3.56  6.78 -0.96
Si -3.79  3.81 -5.55
Si  2.82 -5.76  4.32
Si -6.69 -3.89  0.23
Si  7.69 -0.14  0.97
Si  6.57  2.95  3.09
Si -6.62  0.68 -4.22
Si  3.34  6.44  3.09
Si -5.35 -5.38 -2.19
Si  2.87  1.50 -7.20
Si  3.26  3.42  6.33
Si -6.66 -2.71  3.35
Si -3.43 -7.10  0.97
Si -5.74  5.07 -2.19
Si -3.35 -5.26 -5.05
Si  4.49  3.81 -5.55
Si -6.76  1.20  4.32
Si  2.96 -6.28 -4.22
Si -3.72 -3.54  6.33
Si -3.31  0.21 -7.46
Si -1.10 -3.25 -7.46
Si  6.89 -1.51 -4.31
Si  1.79 -7.47  3.09
Si -4.72  6.78 -0.96
Si -1.38  5.41 -6.23
Si -7.79 -0.51  3.09
Si -2.35 -7.47  3.09
Si -5.89 -2.52  5.50
Si  1.94  6.55  5.00
Si  7.98 -1.88 -2.19
Si  1.29  0.85  8.36
Si  1.74  3.70 -7.46
Si -2.20  6.55  5.00
Si  7.81  2.87 -1.92
Si -7.99  3.06  0.23
Si  4.56 -3.54  6.33
Si  1.51 -5.73  6.24
Si  5.79 -3.15 -5.55
Si  4.85 -7.10  0.97
Si  6.68  5.07 -2.19
Si -2.40  3.70 -7.46
Si -4.94  6.44  3.09
Si  3.04 -3.25 -7.46
Si  2.76  5.41 -6.23
Si -7.45 -4.08 -1.92
Si  0.36  7.63 -4.22
Si -0.40 -8.73 -0.27
Si -5.02  3.42  6.33
Si  0.39 -2.64  8.36
Si  5.23  4.43  5.50
Si  4.93 -5.26 -5.05
Si  0.33  8.53 -2.19
Si -7.14  5.18 -0.27
Si -2.63 -5.73  6.24
Si -2.85  0.85  8.36
Si -1.72 -1.34  8.63
Si  6.53 -2.52  5.50
Si  0.40 -7.36  5.00
Si  5.59  5.44 -4.31
Si  7.38 -0.41  5.00
Si -8.87 -0.14  0.97
Si  4.97  0.21 -7.46
Si  0.03 -5.45 -7.20
Si -5.46 -5.76  4.32
Si  9.00 -0.17 -0.96
Si -8.58 -1.88 -2.19
Si  2.42 -1.34  8.63
Si  8.57  3.06  0.23
Si -5.41  1.50 -7.20
Si  1.16  9.01  1.06
Si -6.03  6.81  0.97
Si  7.07 -5.38 -2.19
Si  1.00 -8.84 -2.19
Si -6.64 -3.15 -5.55
Si  0.22  8.15  4.32
Si -5.32 -6.28 -4.22
Si  8.78 -0.51  3.09
Si  7.87 -4.01  3.09
Si  7.90 -4.91  1.06
Si  6.39  6.81  0.97
Si -8.75  2.87 -1.92
Si  7.78  1.69 -5.05
Si -0.91  4.32  8.36
Si  6.16 -7.13 -0.96
Si -0.09 -8.47 -4.31
Si  3.74 -8.73 -0.27
Si -3.77  7.63 -4.22
Si -6.26 -7.13 -0.96
Si -3.75 -2.64  8.36
Si -2.98  9.01  1.06
Si  0.87 -0.69 -9.49
Si -3.81  8.53 -2.19
Si -7.96  4.24  3.35
Si -3.14 -8.84 -2.19
Si -3.74 -7.36  5.00
Si -5.24 -3.25 -7.46
Si -6.83  5.44 -4.31
Si  4.50  7.63 -4.22
Si -4.54 -8.73 -0.27
Si  4.53 -2.64  8.36
Si  4.47  8.53 -2.19
Si -4.11 -5.45 -7.20
Si -5.52  5.41 -6.23
Si  4.17 -5.45 -7.20
Si  3.23  4.32  8.36
Si  4.54 -7.36  5.00
Si -8.66 -4.91  1.06
Si  6.96 -5.76  4.32
Si  5.43  0.85  8.36
Si -3.92  8.15  4.32
Si  5.94 -7.47  3.09
Si -8.69 -4.01  3.09
Si -3.27 -0.69 -9.49
Si -1.01 10.02  0.23
Si -7.19  4.43  5.50
Si -1.82  2.57  9.60
Si -9.98 -1.78 -0.27
Si  7.01  1.50 -7.20
Si  8.61  4.24  3.35
Si  9.11 -4.08 -1.92
Si -1.77  9.83 -1.92
Si -1.80  8.65 -5.05
Si  5.65 -5.73  6.24
Si  1.95 -2.88 -9.58
Si  5.88  3.70 -7.46
Si  2.32  2.57  9.60
Si  4.36  8.15  4.32
Si -9.96  2.05  1.06
Si  6.08  6.55  5.00
Si -2.19 -2.88 -9.58
Si -2.01 -6.75 -7.46
Si  9.91  1.58 -2.19
Si -8.79  1.69 -5.05
Si -8.07  1.23  6.24
Si  2.33  8.65 -5.05
Si  2.13 -6.75 -7.46
Si  2.37  9.83 -1.92
Si -1.22 -9.67  3.35
Si  7.70  6.78 -0.96
Si -0.10  0.96 10.28
Si  7.40  3.42  6.33
Si  4.05 -8.47 -4.31
Si  7.48  6.44  3.09
Si -1.09  8.18  6.24
Si  1.12  5.61  8.63
Si -0.47  7.16 -7.46
Si -6.49 -7.47  3.09
Si  7.10 -6.28 -4.22
Si -6.34  6.55  5.00
Si -4.23 -8.47 -4.31
Si -7.94  3.81 -5.55
Si -1.30  0.32 -10.32
Si  8.20 -1.54 -6.23
Si -7.57 -7.10  0.97
Si  0.66  4.07 -9.58
Si  1.13  9.90  3.09
Si -7.49 -5.26 -5.05
Si  5.14 -8.84 -2.19
Si -9.18 -0.41  5.00
Si -1.55 -6.10  8.36
Si  3.13 10.02  0.23
Si  5.30  9.01  1.06
Si -5.86 -1.34  8.63
Si -8.36 -1.54 -6.23
Si -7.45  0.21 -7.46
Si -0.53 -4.39  9.60
Si -6.54  3.70 -7.46
Si  1.22 -8.50 -6.23
Si  8.49  1.23  6.24
Si  9.87 -3.89  0.23
Si  2.92 -9.67  3.35
Si  2.59 -6.10  8.36
Si -5.05  4.32  8.36
Si -9.67 -1.51 -4.31
Si -7.86 -3.54  6.33
Si  2.84  0.32 -10.32
Si -3.02  5.61  8.63
Si  3.05  8.18  6.24
Si  5.01 -0.69 -9.49
Si  9.42  5.18 -0.27
Si  6.91  5.41 -6.23
Si  9.80  1.20  4.32
Si -3.01  9.90  3.09
Si  9.91 -2.71  3.35
Si  9.95  0.68 -4.22
Si -6.78 -5.73  6.24
Si  7.18 -3.25 -7.46
Si -9.99  2.95  3.09
Si 10.72 -1.78 -0.27
Si -0.95 -1.15 10.78
Si -1.25 -10.85  0.23
Si  6.56 -1.34  8.63
Si -6.99  0.85  8.36
Si -2.92 -8.50 -6.23
Si  8.63  3.81 -5.55
Si -0.45 -9.48  5.50
Si  3.68  7.16 -7.46
Si -3.49  4.07 -9.58
Si 10.74  2.05  1.06
Si  4.04  0.96 10.28
Si -0.45  2.44 -10.83
Si -10.79  1.58 -2.19
Si -9.49 -5.38 -2.19
Si  3.62 -4.39  9.60
Si -4.24  0.96 10.28
Si -8.86  6.78 -0.96
Si  1.57  8.46 -7.20
Si  2.89 -10.85  0.23
Si -5.15 10.02  0.23
Si  3.19 -1.15 10.78
Si -9.88  5.07 -2.19
Si -4.61  7.16 -7.46
Si  8.70 -3.54  6.33
Si -0.43  6.26 -9.49
Si -2.01 -11.04 -1.92
Si -2.57  8.46 -7.20
Si  2.13 -11.04 -1.92
Si  0.89 -10.96  3.09
Si -0.01  7.81  8.36
Si  4.79  4.07 -9.58
Si  8.99 -7.10  0.97
Si -10.83 -3.89  0.23
Si -7.12  9.01  1.06
Si 10.71  2.95  3.09
Si -4.67 -4.39  9.60
Si -5.23  8.18  6.24
Si -5.36 -9.67  3.35
Si -9.08  6.44  3.09
Si  5.26  5.61  8.63
Si  3.69 -9.48  5.50
Si -10.76  0.68 -4.22
Si -5.96  2.57  9.60
Si -1.20 -10.10 -5.55
Si -10.80 -2.71  3.35
Si -5.91  9.83 -1.92
Si  5.27  9.90  3.09
Si  9.07 -5.26 -5.05
Si -5.95  8.65 -5.05
Si -9.16  3.42  6.33
Si -7.28 -8.84 -2.19
Si -5.44  0.32 -10.32
Si  3.69  2.44 -10.83
Si  6.09 -2.88 -9.58
Si -10.03 -2.52  5.50
Si -0.97 11.20  3.35
Si  9.37  4.43  5.50
Si -11.70 -0.17 -0.96
Si  0.85 -4.52 -10.83
Si  7.88 -8.73 -0.27
Si -7.92  7.63 -4.22
Si  9.12  0.21 -7.46
Si -10.90  1.20  4.32
Si -6.15 -6.75 -7.46
Si  9.93 -3.15 -5.55
Si -7.89 -2.64  8.36
Si -5.69 -6.10  8.36
Si  5.36 -8.50 -6.23
Si -6.33 -2.88 -9.58
Si -3.25 -10.96  3.09
Si  6.46  2.57  9.60
Si  1.00  2.60 11.52
Si  6.27 -6.75 -7.46
Si -7.95  8.53 -2.19
Si 11.83 -0.14  0.97
Si  1.22 -2.17 11.61
Si -4.59 -9.48  5.50
Si -7.88 -7.36  5.00
Si  2.94 -10.10 -5.55
Si -0.88 -2.91 -11.51
Si  6.48  8.65 -5.05
Si 11.03 -1.51 -4.31
Si  0.92 -11.86  1.06
Si  6.51  9.83 -1.92
Si  7.37  4.32  8.36
Si  9.73  5.44 -4.31
Si  1.20 -5.99 10.28
Si  3.71  6.26 -9.49
Si -0.42 -8.30  8.63
Si -5.09 -1.15 10.78
Si -9.60 -5.76  4.32
Si -4.59  2.44 -10.83
Si -9.55  1.50 -7.20
Si -7.42 -0.69 -9.49
Si -9.46 -6.28 -4.22
Si  3.17 11.20  3.35
Si -5.39 -10.85  0.23
Si -0.16 12.13 -0.27
Si -0.95 10.76 -5.55
Si 10.82  5.07 -2.19
Si -2.92 -2.17 11.61
Si  4.14  7.81  8.36
Si -4.14  7.81  8.36
Si -3.29 -4.52 -10.83
Si -3.14  2.60 11.52
Si -8.25 -5.45 -7.20
Si -8.06  8.15  4.32
Si -2.94 -5.99 10.28
Si -4.57  6.26 -9.49
Si 10.67 -2.52  5.50
Si -0.01 -6.63 -10.32
Si  8.31 -5.45 -7.20
Si -10.17  6.81  0.97
Si  8.65  7.63 -4.22
Si  1.24 12.03 -2.19
Si  3.27 -2.91 -11.51
Si  1.96 10.37  6.33
Si -8.68 -8.73 -0.27
Si  8.61  8.53 -2.19
Si -11.93 -0.51  3.09
Si  8.67 -2.64  8.36
Si -3.22 -11.86  1.06
Si -1.98 -7.64 -9.49
Si -2.18 10.37  6.33
Si  6.73 -6.10  8.36
Si  1.97  4.04 -11.51
Si  1.72 -10.49  6.33
Si  2.17 -7.64 -9.49
Si  7.27 10.02  0.23
Si  1.89  5.80 10.78
Si -2.17  4.04 -11.51
Si -11.28  5.18 -0.27
Si -9.38 -3.25 -7.46
Si  8.68 -7.36  5.00
Si  7.06 -9.67  3.35
Si 11.95  2.87 -1.92
Si -11.59 -4.08 -1.92
Si -2.25  5.80 10.78
Si  5.03 -10.96  3.09
Si -1.84 -4.36 11.52
Si 12.12 -1.88 -2.19
Si  6.98  0.32 -10.32
Si  5.71  8.46 -7.20
Si -2.42 -10.49  6.33
Si -12.13  3.06  0.23
Si  3.19 10.76 -5.55
Si -10.78 -3.15 -5.55
Si  0.09 -12.33 -2.19
Si  2.30 -4.36 11.52
Si  3.72 -8.30  8.63
Si -7.16  5.61  8.63
Si  8.19 -8.47 -4.31
Si  8.50  8.15  4.32
Si  7.19  8.18  6.24
Si -0.08  4.79 11.61
Si -2.90 12.03 -2.19
Si 10.30 -7.13 -0.96
Si 11.52 -0.41  5.00
Si 10.53  6.81  0.97
Si -7.15  9.90  3.09
Si 11.21 -5.38 -2.19
Si -10.40 -7.13 -0.96
Si -2.07  0.13 -12.47
Si  2.07  0.13 -12.47
Si -0.21 11.38  5.50
Si  0.20 -10.21 -7.46
Si -8.37 -8.47 -4.31
Si -7.06 -8.50 -6.23
Si -5.34 -10.10 -5.55
Si -9.66  5.41 -6.23
Si  1.54  7.28 -10.32
Si  9.57  0.85  8.36
Si  4.99 -4.52 -10.83
Si -5.11 11.20  3.35
Si  3.98 12.13 -0.27
Si -6.16 -11.04 -1.92
Si  0.04 -1.16 -12.74
Si -4.56 -8.30  8.63
Si  6.27 -11.04 -1.92
Si  1.69 -9.59  8.36
Si -4.30 12.13 -0.27
Si  5.14  2.60 11.52
Si -5.01 -2.91 -11.51
Si -2.60  7.28 -10.32
Si -7.63  4.07 -9.58
Si 10.08 -7.47  3.09
Si  7.03 -10.85  0.23
Si  5.06 -11.86  1.06
Si  9.79 -5.73  6.24
Si  4.13 -6.63 -10.32
Si -4.14 -6.63 -10.32
Si -2.46 -9.59  8.36
Si  7.82  7.16 -7.46
Si  5.36 -2.17 11.61
Si -6.71  8.46 -7.20
Si -10.97  5.44 -4.31
Si  0.94  2.33 -12.74
Si  9.28 -8.84 -2.19
Si  0.44 10.65 -7.46
Si 12.01 -4.01  3.09
Si 10.02  3.70 -7.46
Si  5.34 -5.99 10.28
Si 12.04 -4.91  1.06
Si -12.72 -1.88 -2.19
Si -1.40  7.92 10.28
Si -13.01 -0.14  0.97
Si 11.91  1.69 -5.05
Si 12.71  3.06  0.23
