500
set: 1110.00  0.00  0.00
Si -0.45  1.05 -0.81
Si  0.41 -1.19  0.76
Si  1.24  1.11  0.82
Si -1.36 -1.20 -0.80
Si -0.85  0.02  2.38
Si -2.12  1.16  0.81
Si  0.96  0.04 -2.39
Si  2.15 -1.19 -0.80
Si  2.95  1.12 -0.75
Si  0.03 -2.26 -2.44
Si -3.06 -1.17  0.84
Si  0.06  2.33  2.47
Si  0.40  3.40 -0.80
Si  2.64  0.10  2.39
Si -2.64  0.03 -2.42
Si -0.53 -3.49  0.82
Si  1.71 -2.27  2.37
Si -1.68  2.30 -2.42
Si  1.19 -3.48 -0.75
Si -1.71 -2.27  2.47
Si -1.29  3.44  0.84
Si  1.80  2.35 -2.44
Si -0.83  0.03 -3.97
Si  3.84 -1.17  0.84
Si  0.92  0.04  3.99
Si  2.18  3.42  0.76
Si -3.94  1.12 -0.75
Si -2.21 -3.55 -0.81
Si -2.98  3.41 -0.80
Si  0.08 -2.27  4.05
Si  3.01 -3.44  0.81
Si  0.03  2.33 -4.06
Si -2.56 -0.00  4.02
Si -3.42  2.34  2.37
Si -3.44 -2.30 -2.42
Si  3.45 -2.30 -2.42
Si  3.48  2.34  2.37
Si  2.59  0.04 -4.06
Si -4.25  0.10  2.39
Si  4.25  0.03 -2.42
Si  1.76 -2.20 -4.04
Si -4.75 -1.19 -0.80
Si -1.76  2.33  4.02
Si -1.73 -2.28 -4.06
Si  4.78  1.16  0.81
Si  1.85  2.34  4.05
Si  0.88 -4.51  2.39
Si -0.80 -4.57 -2.39
Si -3.88 -3.44  0.81
Si  3.91  3.41 -0.80
Si  0.92  4.63  2.38
Si -0.88  4.63 -2.42
Si  3.37 -2.27  4.02
Si  5.53 -1.20 -0.80
Si  2.49 -4.58 -2.42
Si  0.35 -1.19 -5.62
Si -0.48  1.10  5.64
Si -2.61 -4.58  2.38
Si -3.37  2.40 -4.04
Si -3.52 -2.27  4.02
Si -5.66  1.11  0.82
Si -2.49  4.70  2.39
Si -0.35  5.77  0.81
Si  0.38 -5.79 -0.80
Si  1.32  5.66 -0.81
Si -4.72  3.42  0.76
Si  3.52  2.40 -4.04
Si  2.73  4.64 -2.39
Si  4.34 -0.00  4.02
Si -1.33 -1.25  5.63
Si -4.30  0.04 -4.06
Si  1.29  1.12 -5.68
Si  4.68 -3.55 -0.81
Si -1.35 -5.79  0.76
Si -2.18  1.14 -5.60
Si -5.10  2.35 -2.44
Si -0.84 -4.56  3.99
Si -5.18 -2.27  2.37
Si -0.79  4.60  4.02
Si  2.07 -1.18  5.69
Si  0.83 -4.57 -4.06
Si -2.18  5.72 -0.75
Si  0.94  4.64 -3.97
Si  5.19 -2.27  2.47
Si  2.07 -5.77  0.84
Si  5.22  2.30 -2.42
Si -5.93  0.04 -2.39
Si -3.00 -1.14 -5.63
Si  3.03  1.11  5.64
Si  6.05  0.02  2.38
Si  3.00  5.72  0.82
Si  0.44  3.35  5.63
Si  6.45  1.05 -0.81
Si -2.59 -4.57 -3.97
Si  5.60  3.44  0.84
Si  2.57 -4.61  4.02
Si -6.48 -1.19  0.76
Si -3.13 -5.81 -0.80
Si -2.54  4.64 -4.06
Si -0.47 -3.49 -5.68
Si -4.17  4.64 -2.39
Si  2.68  4.65  3.99
Si  4.28 -4.58  2.38
Si -1.24  3.47 -5.63
Si -5.71 -3.48 -0.75
Si  1.26 -3.49  5.64
Si -4.41 -4.58 -2.42
Si  4.41  4.70  2.39
Si -5.05  2.34  4.05
Si -5.14 -2.20 -4.04
Si  2.12  3.42 -5.62
Si  5.13  2.33  4.02
Si -3.86  1.11  5.64
Si  3.89 -1.14 -5.63
Si  5.16 -2.28 -4.06
Si -3.89  5.72  0.82
Si  3.77 -5.81 -0.80
Si -2.24 -3.50  5.64
Si -5.97  0.04  3.99
Si  2.95 -3.47 -5.60
Si  6.07  0.03 -3.97
Si -0.05 -6.87  2.37
Si  6.37 -3.49  0.82
Si -3.06  3.42  5.69
Si  0.09  6.91 -2.42
Si -0.48  1.10 -7.24
Si  0.36 -1.19  7.26
Si -6.49  3.40 -0.80
Si  1.30  1.11  7.20
Si  4.72  1.14 -5.60
Si  4.30 -4.57 -3.97
Si -4.21  4.65  3.99
Si  7.31 -1.19  0.76
Si  4.71  5.72 -0.75
Si -7.34  1.05 -0.81
Si -1.33 -1.25 -7.25
Si -4.32 -4.61  4.02
Si -1.73 -6.86 -2.44
Si  1.69 -6.91 -2.42
Si -1.66  6.94  2.37
Si  4.35  4.64 -4.06
Si -4.82 -1.18  5.69
Si -4.82 -5.77  0.84
Si  2.07 -1.18 -7.19
Si  1.82  6.94  2.47
Si -6.86 -2.26 -2.44
Si -6.83  2.33  2.47
Si  3.83  3.42  5.69
Si -2.17  1.13  7.27
Si -3.94 -3.47 -5.60
Si  6.93 -2.26 -2.44
Si  6.95  2.33  2.47
Si -6.02 -4.51  2.39
Si -0.01 -6.81 -4.04
Si -5.98  4.63  2.38
Si -3.00 -1.14  7.25
Si  3.02  1.11 -7.24
Si  6.01  4.63 -2.42
Si  6.09 -4.57 -2.39
Si -5.58  5.66 -0.81
Si  0.43  3.36 -7.25
Si -0.47 -3.49  7.20
Si  0.01  6.93  4.02
Si  5.57 -1.25  5.63
Si -0.41  5.74 -5.60
Si  5.54 -5.79  0.76
Si -5.60  1.12 -5.68
Si  3.42 -6.88  2.47
Si -3.47 -6.88  2.47
Si -3.33  6.95 -2.44
Si  7.30  3.40 -0.80
Si -7.74  0.02  2.38
Si  0.47  8.04  0.84
Si  4.65 -3.50  5.64
Si  0.31 -5.79  5.69
Si  1.29  5.71  5.64
Si -1.23  3.46  7.25
Si -4.78  3.42 -5.62
Si  1.61 -6.88  4.02
Si  1.26 -3.49 -7.24
Si -0.58 -8.09 -0.75
Si -1.68 -6.87  4.05
Si -1.22  8.02 -0.80
Si  1.25 -8.04  0.81
Si  3.56  6.95 -2.44
Si -1.41 -5.79 -5.62
Si  7.86  0.04 -2.39
Si  1.80  6.93 -4.06
Si -6.81 -2.27  4.05
Si -7.42 -3.49  0.82
Si  8.13  1.11  0.82
Si -1.61  7.01 -4.04
Si -3.87  1.11 -7.24
Si -2.10  5.71  5.64
Si  2.12  3.41  7.26
Si  3.90 -1.14  7.25
Si -6.86  2.33 -4.06
Si  2.13 -5.74 -5.63
Si  2.17  8.01 -0.80
Si -2.25 -3.50 -7.24
Si  6.93  2.33 -4.06
Si  6.98 -2.27  4.05
Si -8.26 -1.20 -0.80
Si -2.29 -8.10  0.82
Si -5.96  4.64 -3.97
Si -3.06  3.42 -7.19
Si  6.05 -4.56  3.99
Si -2.95  8.02  0.76
Si  2.96 -3.47  7.27
Si  6.42  1.10  5.64
Si -6.07 -4.57 -4.06
Si  3.06  5.72 -5.68
Si  6.10  4.60  4.02
Si -7.72  0.03 -3.97
Si -3.28  6.94  4.05
Si  3.40 -6.88 -4.06
Si -3.09 -5.85  5.63
Si -5.63 -3.49  5.64
Si  2.92 -8.15 -0.81
Si  5.66  3.47 -5.63
Si -6.54 -1.19 -5.62
Si -3.50 -6.88 -4.06
Si -4.83 -1.18 -7.19
Si  4.72  1.13  7.27
Si -6.51 -5.79 -0.80
Si  6.54  5.77  0.81
Si  7.81  0.04  3.99
Si  3.61  6.94  4.05
Si  8.08 -3.48 -0.75
Si  3.83  3.42 -7.19
Si -8.19  3.44  0.84
Si  0.91  0.05 -8.88
Si  5.16 -6.86 -2.44
Si -3.84  5.72 -5.68
Si -5.07  6.94  2.47
Si -0.82  0.03  8.90
Si  3.80 -5.85  5.63
Si -3.94 -3.47  7.27
Si  3.94  8.02  0.76
Si -5.21 -6.91 -2.42
Si  5.24  6.94  2.37
Si -3.98 -8.15 -0.81
Si  0.08 -2.26 -8.83
Si  0.04  2.32  8.81
Si -9.01  1.16  0.81
Si  9.04 -1.19 -0.80
Si -5.60  1.11  7.20
Si  2.60  0.03  8.81
Si -8.57  2.30 -2.42
Si -6.46  3.35  5.63
Si  8.61 -2.27  2.37
Si  5.56 -1.25 -7.25
Si -2.56  0.00 -8.86
Si -8.60 -2.27  2.47
Si  0.30 -5.79 -7.19
Si  7.25 -1.19 -5.62
Si  6.42 -3.49 -5.68
Si -7.70 -4.57 -2.39
Si -1.73 -2.28  8.81
Si  1.76 -2.21  8.83
Si -0.41  5.74  7.27
Si  4.65 -3.50 -7.24
Si  7.77 -4.51  2.39
Si -7.25  5.77  0.81
Si  1.28  5.71 -7.24
Si  1.84  2.34 -8.83
Si  8.69  2.35 -2.44
Si -1.76  2.33 -8.86
Si -4.73  8.01 -0.80
Si -4.77  3.41  7.26
Si  7.28 -5.79 -0.80
Si -7.37  1.10  5.64
Si -4.77 -5.74 -5.63
Si  4.79  5.71  5.64
Si  4.60 -8.10  0.82
Si -7.77  4.63 -2.42
Si  7.81  4.63  2.38
Si -1.41 -5.80  7.26
Si -0.89 -9.11  2.39
Si -2.11  5.72 -7.24
Si  2.13 -5.74  7.25
Si -5.10  6.93 -4.06
Si  0.72 -9.18 -2.42
Si  5.21 -6.87  4.05
Si -5.29 -6.88  4.02
Si  0.89  9.24 -2.42
Si -0.72  9.31  2.39
Si  5.29  7.01 -4.04
Si  3.06  5.72  7.20
Si  9.07  3.42  0.76
Si  6.41  1.10 -7.24
Si  3.37 -2.27 -8.86
Si -3.37  2.40  8.83
Si  5.48 -5.79 -5.62
Si -5.61  5.71  5.64
Si  8.65 -2.20 -4.04
Si -8.62 -2.28 -4.06
Si -3.53 -2.27 -8.86
Si -4.30  0.03  8.81
Si  3.53  2.40  8.83
Si -9.11 -3.55 -0.81
Si -5.63 -3.49 -7.24
Si -3.10 -5.85 -7.25
Si -7.69  4.60  4.02
Si -2.57 -9.17 -2.39
Si  2.52 -9.19  2.38
Si -8.65  2.33  4.02
Si  5.66  3.46  7.25
Si -7.74 -4.56  3.99
Si  9.54  0.10  2.39
Si  7.33  3.35  5.63
Si -9.54  0.03 -2.42
Si -6.54 -1.19  7.26
Si  7.72 -4.57 -4.06
Si -2.40  9.25 -2.39
Si  5.67  8.02 -0.80
Si  0.53  8.07 -5.63
Si  4.33  0.00 -8.86
Si -5.65 -8.04  0.81
Si -0.50 -8.10  5.64
Si  1.19 -8.07 -5.60
Si  2.68  9.23  2.38
Si  8.74  2.34  4.05
Si -1.29  8.03  5.69
Si  7.83  4.64 -3.97
Si -7.37 -3.49 -5.68
Si  9.85  1.12 -0.75
Si -3.83  5.72  7.20
Si  0.83 -4.57  8.81
Si  6.84 -6.87  2.37
Si  2.20  7.96  5.63
Si -6.81  6.91 -2.42
Si  8.21  5.66 -0.81
Si -0.80  4.61 -8.86
Si -0.85 -4.56 -8.88
Si  8.19  1.12 -5.68
Si -8.22 -1.25  5.63
Si -9.95 -1.17  0.84
Si -6.95 -6.87  2.37
Si  3.80 -5.85 -7.25
Si -0.94 -9.17 -4.06
Si  0.81 -9.21  4.02
Si  0.94  4.63  8.90
Si  0.97  9.21  4.02
Si -8.24 -5.79  0.76
Si  6.98  6.91 -2.42
Si -0.78  9.24 -4.06
Si -2.24 -8.09 -5.68
Si -3.01  8.02 -5.62
Si  6.43 -3.49  7.20
Si -9.45 -0.00  4.02
Si -6.46  3.36 -7.25
Si -2.54  4.64  8.81
Si  6.32 -8.09 -0.75
Si  2.89 -8.11  5.64
Si  2.57 -4.60 -8.86
Si  6.48  5.74 -5.60
Si  2.54 -9.18 -3.97
Si  9.48  0.04 -4.06
Si -6.42  8.04  0.84
Si  7.25 -1.19  7.26
Si -2.61 -9.16  3.99
Si -2.58 -4.58  8.90
Si -0.41 10.33 -0.75
Si -2.45  9.25  3.99
Si  2.68  4.65 -8.88
Si -7.38  1.10 -7.24
Si  4.79  5.72 -7.24
Si -4.76 -5.74  7.25
Si  0.31 -10.38  0.84
Si  2.70  9.24 -3.97
Si  4.33 -9.17 -2.39
Si -4.21  9.23  2.38
Si -5.05  2.34 -8.83
Si -5.13 -2.21  8.83
Si -4.37 -9.19  2.38
Si -6.59 -5.79  5.69
Si  5.17 -2.28  8.81
Si -8.13  3.47 -5.63
Si -9.88  3.41 -0.80
Si  6.89 -6.81 -4.04
Si  1.41 10.37  0.81
Si  5.13  2.33 -8.86
Si -6.90 -6.81 -4.04
Si  8.16 -3.49  5.64
Si  9.90 -3.44  0.81
Si -1.38 -10.40 -0.80
Si  0.97  0.04 10.48
Si  3.88  8.02 -5.62
Si -0.85  0.02 -10.50
Si  4.49  9.25 -2.39
Si -6.89  6.93  4.02
Si -2.13 10.32  0.82
Si  6.90  6.93  4.02
Si  2.00 -10.41 -0.80
Si -4.01 -8.11  5.64
Si  0.05  2.34 -10.41
Si  0.04 -2.26 10.43
Si  8.96 -1.18  5.69
Si  8.97 -5.77  0.84
Si -5.98  0.05 -8.88
Si  9.38 -4.58 -2.42
Si -9.07  1.14 -5.60
Si  3.08 10.26 -0.81
Si -9.07  5.72 -0.75
Si -9.38  4.70  2.39
Si  6.07  0.03  8.90
Si -2.64  0.03 10.45
Si  5.49 -5.80  7.26
Si -5.61  5.71 -7.24
Si -1.71 -2.27 -10.41
Si  2.64  0.10 -10.48
Si -9.50 -4.58  2.38
Si -4.69  7.96  5.63
Si 10.73 -1.17  0.84
Si -1.67  2.30 10.45
Si  7.33  3.36 -7.25
Si -10.31  2.34  2.37
Si  1.80  2.35 10.43
Si -7.31  5.74 -5.60
Si  7.20 -5.79  5.69
Si -1.30  8.03 -7.19
Si  0.53  8.07  7.25
Si -10.34 -2.30 -2.42
Si -7.36 -3.49  7.20
Si  4.36  4.64  8.81
Si -0.50 -8.10 -7.24
Si 10.35 -2.30 -2.42
Si -4.22  4.65 -8.88
Si  4.29 -9.16  3.99
Si  1.71 -2.27 -10.50
Si -3.12 -10.39  0.76
Si -4.33 -4.60 -8.86
Si 10.37  2.34  2.37
Si -4.19  9.24 -3.97
Si  4.31 -4.58  8.90
Si -4.35 -9.18 -3.97
Si -10.84  1.12 -0.75
Si  4.66 -8.09 -5.68
Si  1.20 -8.08  7.27
Si  7.37  8.04  0.84
Si  9.62  4.64 -2.39
Si  8.19  1.11  7.20
Si -3.81 10.26 -0.81
Si  2.19  7.96 -7.25
Si  4.45  9.25  3.99
Si -8.23 -1.25 -7.25
Si -7.47 -8.09 -0.75
Si -2.23 -8.09  7.20
Si  3.78 -10.39  0.76
Si -0.00 -6.81  8.83
Si  9.01  3.42 -5.62
Si  6.01 -9.11  2.39
Si -3.01  8.02  7.26
Si  2.88 -8.11 -7.24
Si -3.44 -2.31 10.45
Si  3.46 -2.31 10.45
Si  0.00  6.94 -8.86
Si -9.48 -4.57 -3.97
Si 10.27 -2.27  4.02
Si -8.55  6.94  2.37
Si  9.47 -4.61  4.02
Si -9.43  4.64 -4.06
Si  8.58 -6.91 -2.42
Si -6.01  9.24 -2.42
Si  4.26  0.03 10.45
Si -8.62 -6.86 -2.44
Si -3.42  2.34 -10.50
Si -10.27  2.40 -4.04
Si -9.14 -3.50  5.64
Si  3.47  2.34 -10.50
Si  6.49  5.74  7.27
Si -1.69 -6.87 -8.83
Si -4.26  0.10 -10.48
Si  5.60  8.03  5.69
Si -6.17 -9.18 -2.42
Si  1.60 -6.88 -8.86
Si -6.59 -5.79 -7.19
Si -10.78 -3.44  0.81
Si  1.80  6.93  8.81
Si 10.80  3.41 -0.80
Si -5.70 -8.07 -5.60
Si  9.58  4.65  3.99
Si -6.82 -2.26 -8.83
Si -1.60  7.00  8.83
Si -10.42 -2.27  4.02
Si  4.76 10.32  0.82
Si -11.15  0.10  2.39
Si 11.14  0.03 -2.42
Si -6.86  2.32  8.81
Si  8.72  6.94  2.47
Si  6.17  9.31  2.39
Si -8.13  3.46  7.25
Si 10.41  2.40 -4.04
Si -8.12  8.02 -0.80
Si  0.87 -4.50 -10.48
Si -9.90 -1.14 -5.63
Si  8.15 -3.49 -7.24
Si  6.93  2.32  8.81
Si  9.89  5.72  0.82
