500
set: 975.00  0.00  0.00
Si  0.36 -1.20  0.84
Si -0.40  1.28 -0.90
Si  1.45  1.26  0.85
Si -1.54 -1.27 -0.85
Si -2.22  1.16  0.83
Si  2.24 -1.24 -0.87
Si -0.88 -0.01  2.62
Si  0.94  0.06 -2.62
Si -0.03  2.36  2.52
Si  0.01 -2.40 -2.50
Si  3.25  1.28 -0.83
Si -3.23 -1.32  0.93
Si -2.71  0.04 -2.50
Si  2.74 -0.05  2.55
Si  0.39  3.67 -0.85
Si -0.48 -3.69  0.85
Si  1.83 -2.40  2.51
Si -1.30  3.63  0.93
Si -1.81  2.44 -2.58
Si  1.32 -3.67 -0.83
Si  1.94  2.55 -2.50
Si -1.96 -2.59  2.52
Si -4.07  1.28 -0.83
Si -0.96 -0.13 -4.29
Si  4.10 -1.32  0.93
Si  0.94  0.10  4.32
Si -2.33 -3.67 -0.90
Si  2.29  3.75  0.84
Si -0.06 -2.39  4.20
Si  0.12  2.45 -4.20
Si -3.15  3.71 -0.87
Si  3.17 -3.79  0.83
Si -3.57  2.55  2.51
Si -2.81 -0.01  4.23
Si  3.58 -2.51 -2.58
Si  2.83  0.06 -4.31
Si  3.76  2.55  2.51
Si -3.74 -2.51 -2.58
Si -1.81 -2.50 -4.20
Si -4.58 -0.05  2.55
Si  4.61  0.04 -2.50
Si  1.87  2.56  4.20
Si  1.81 -2.55 -4.27
Si  5.10  1.16  0.83
Si -5.08 -1.24 -0.87
Si -1.78  2.53  4.32
Si -0.99 -4.88 -2.62
Si -0.78  4.99 -2.50
Si  4.17  3.71 -0.87
Si  0.81 -5.00  2.55
Si -4.15 -3.79  0.83
Si  1.06  4.94  2.62
Si  5.78 -1.27 -0.85
Si -3.58  2.40 -4.27
Si -5.88  1.26  0.85
Si  0.52 -1.24 -5.97
Si -2.65  4.89  2.55
Si -0.61  1.22  5.97
Si  2.68 -4.91 -2.50
Si  3.61 -2.42  4.32
Si  3.74  2.40 -4.27
Si -0.29  6.11  0.83
Si -3.71 -2.42  4.32
Si  4.52 -0.01  4.23
Si -1.40 -1.17  5.92
Si -4.50  0.06 -4.31
Si  0.31 -6.18 -0.87
Si  4.99 -3.67 -0.90
Si  1.36  1.26 -5.98
Si -2.81 -4.96  2.62
Si -5.04  3.75  0.84
Si  2.87  5.01 -2.62
Si -1.57 -6.14  0.84
Si -2.23  1.14 -5.89
Si -5.38  2.55 -2.50
Si  5.37 -2.59  2.52
Si  1.53  6.23 -0.90
Si -5.50 -2.40  2.51
Si  2.25 -1.18  5.98
Si  0.97  4.82 -4.29
Si -0.88  4.93  4.23
Si  5.52  2.44 -2.58
Si -0.99 -4.85  4.32
Si  0.89 -4.89 -4.31
Si -2.14  6.22 -0.83
Si  2.16 -6.27  0.93
Si  3.17  1.26  5.95
Si -3.15 -1.33 -5.99
Si -6.38  0.06 -2.62
Si  6.45 -0.01  2.62
Si  2.59 -4.96  4.23
Si  0.53  3.77  5.92
Si -0.57 -3.69 -5.98
Si -2.57  5.00 -4.31
Si -6.00 -3.67 -0.83
Si  6.03  3.63  0.93
Si  6.92  1.28 -0.90
Si -1.22  3.62 -5.99
Si  1.24 -3.69  5.95
Si  3.38  6.21  0.85
Si -6.97 -1.20  0.84
Si -3.48 -6.22 -0.85
Si -4.45  5.01 -2.62
Si  4.52 -4.96  2.62
Si -4.64 -4.91 -2.50
Si  4.67  4.89  2.55
Si  2.87  5.04  4.32
Si -2.89 -5.08 -4.29
Si -5.45  2.56  4.20
Si -4.15  1.26  5.95
Si  3.85 -6.22 -0.85
Si  5.52 -2.50 -4.20
Si -3.95  6.21  0.85
Si  4.17 -1.33 -5.99
Si -5.51 -2.55 -4.27
Si  2.45  3.71 -5.97
Si  5.55  2.53  4.32
Si -2.54 -3.73  5.97
Si  6.37 -0.13 -4.29
Si  3.16 -3.81 -5.89
Si -6.38  0.10  4.32
Si -3.14  3.77  5.98
Si -0.10 -7.35  2.51
Si  0.45 -1.20  7.67
Si -0.55  1.18 -7.67
Si  6.84 -3.69  0.85
Si  7.68 -1.20  0.84
Si  0.12  7.39 -2.58
Si  5.09  1.14 -5.89
Si  1.29  1.30  7.66
Si -7.73  1.28 -0.90
Si -6.94  3.67 -0.85
Si -1.33 -1.21 -7.71
Si -5.07 -1.18  5.98
Si  1.91  7.31  2.52
Si -4.45  5.04  4.32
Si -1.92 -7.34 -2.50
Si  4.44 -5.08 -4.29
Si  1.65 -7.46 -2.58
Si -4.74 -4.96  4.23
Si -1.64  7.50  2.51
Si  7.30  2.36  2.52
Si  2.32 -1.22 -7.65
Si -7.31 -2.40 -2.50
Si  7.33 -2.40 -2.50
Si -7.35  2.36  2.52
Si  4.76  5.00 -4.31
Si  5.18  6.22 -0.83
Si -4.16 -3.81 -5.89
Si -2.30  1.17  7.75
Si -5.16 -6.27  0.93
Si  4.18  3.77  5.98
Si -3.22 -1.29  7.64
Si -6.27  4.94  2.62
Si  6.33 -4.88 -2.62
Si  3.24  1.22 -7.69
Si  5.75 -6.14  0.84
Si  5.92 -1.17  5.92
Si -0.30  6.08 -5.89
Si  4.78 -3.73  5.97
Si -0.64 -3.65  7.66
Si -5.97  1.26 -5.98
Si -5.79  6.23 -0.90
Si -4.88  3.71 -5.97
Si  0.32 -6.12  5.98
Si -1.29  3.65  7.64
Si  7.71  3.67 -0.85
Si  0.60  3.73 -7.71
Si -6.51 -5.00  2.55
Si  6.54  4.99 -2.50
Si -8.20 -0.01  2.62
Si -3.45  7.50 -2.50
Si -0.12 -7.49 -4.27
Si  0.15  7.48  4.32
Si  1.31 -3.73 -7.69
Si  0.63  8.57  0.93
Si  3.44 -7.53  2.52
Si -1.65  7.35 -4.27
Si  8.26  0.06 -2.62
Si -7.81 -3.69  0.85
Si -0.61 -8.62 -0.83
Si  1.32  6.17  5.97
Si -7.20  2.45 -4.20
Si -1.99 -7.34  4.20
Si  1.68 -7.36  4.32
Si -1.42 -6.18 -5.97
Si  7.26 -2.39  4.20
Si  2.06  7.39 -4.20
Si  4.10 -1.29  7.64
Si -1.22  8.66 -0.87
Si -4.08  1.22 -7.69
Si  3.87  7.50 -2.50
Si -7.38 -2.39  4.20
Si -3.89 -7.53  2.52
Si  1.24 -8.73  0.83
Si  2.38  3.75  7.67
Si -2.22  6.20  5.95
Si  7.45  2.45 -4.20
Si -2.48 -3.77 -7.67
Si  8.77  1.26  0.85
Si  2.24 -6.28 -5.99
Si  2.32  8.62 -0.85
Si -8.87 -1.27 -0.85
Si -2.42 -8.64  0.85
Si -3.07  3.73 -7.65
Si -6.35  4.82 -4.29
Si  6.71  1.22  5.97
Si  6.34 -4.85  4.32
Si -6.81 -1.24 -5.97
Si -3.33 -6.12  5.92
Si  3.10 -3.77  7.75
Si  6.45  4.93  4.23
Si -6.43 -4.89 -4.31
Si  3.06 -8.61 -0.90
Si  3.29  6.20 -5.98
Si -5.00 -1.22 -7.65
Si  3.59 -7.45 -4.20
Si -3.10  8.70  0.84
Si -6.08 -3.69  5.95
Si  6.10  3.62 -5.99
Si -3.52  7.50  4.20
Si  5.03  1.17  7.75
Si  8.27  0.10  4.32
Si -8.28 -0.13 -4.29
Si -3.74 -7.45 -4.20
Si  7.03  6.11  0.83
Si  1.01  0.06 -9.32
Si -7.01 -6.18 -0.87
Si -8.62  3.63  0.93
Si -1.02 -0.09  9.34
Si  3.80  7.50  4.20
Si  3.99 -6.12  5.92
Si  8.65 -3.67 -0.83
Si -5.42  7.31  2.52
Si  5.40 -7.34 -2.50
Si -4.04  6.20 -5.98
Si  4.25  3.73 -7.65
Si -4.23 -3.77  7.75
Si -9.55  1.16  0.83
Si -4.26 -8.61 -0.90
Si  9.56 -1.24 -0.87
Si  4.22  8.70  0.84
Si -5.67 -7.46 -2.58
Si  2.76  0.09  9.33
Si  5.69  7.50  2.51
Si  6.75 -3.69 -5.98
Si  0.01 -2.43 -9.44
Si  0.06  2.49  9.44
Si -6.79  3.77  5.92
Si  9.15 -2.40  2.51
Si -2.74 -0.05 -9.40
Si -1.71  2.49 -9.31
Si -7.61  6.11  0.83
Si -9.13  2.44 -2.58
Si  4.85 -3.77 -7.67
Si  0.39 -6.16 -7.65
Si -6.04  1.30  7.66
Si -8.10  4.99 -2.50
Si  5.99 -1.21 -7.71
Si  1.74 -2.51  9.37
Si  7.63 -6.18 -0.87
Si -4.95  3.75  7.67
Si -0.36  6.12  7.75
Si  8.14 -5.00  2.55
Si  1.39  6.13 -7.67
Si  7.84 -1.24 -5.97
Si  9.27  2.55 -2.50
Si -1.87 -2.46  9.44
Si -1.48 -6.14  7.67
Si  1.94  2.52 -9.44
Si -9.28 -2.59  2.52
Si  4.91 -8.64  0.85
Si -8.32 -4.88 -2.62
Si  5.33 -7.34  4.20
Si  5.10  6.20  5.95
Si -5.27  7.39 -4.20
Si -7.94  1.22  5.97
Si -5.01  8.62 -0.85
Si -5.08 -6.28 -5.99
Si  8.38  4.94  2.62
Si -2.15  6.16 -7.69
Si  2.17 -6.24  7.64
Si -0.72  9.84  2.55
Si  0.75 -9.86 -2.50
Si  5.67  7.35 -4.27
Si -5.64 -7.36  4.32
Si -3.64 -2.45 -9.31
Si  6.78  1.18 -7.67
Si  1.15  9.93 -2.50
Si  3.68 -2.45 -9.31
Si -1.12 -9.95  2.55
Si -10.04  0.04 -2.50
Si -3.65  2.44  9.37
Si  9.61  3.75  0.84
Si  3.67  2.44  9.37
Si -9.13 -2.50 -4.20
Si -9.66 -3.67 -0.90
Si -6.88 -1.20  7.67
Si 10.07 -0.05  2.55
Si -4.57  0.09  9.33
Si -9.10  2.53  4.32
Si  3.22  6.24  7.66
Si -3.27 -6.16 -7.71
Si  9.13 -2.55 -4.27
Si  6.04  3.65  7.64
Si  9.20  2.56  4.20
Si  5.91 -6.18 -5.97
Si -6.02 -3.73 -7.69
Si  4.58 -0.05 -9.40
Si -8.20  4.93  4.23
Si  0.71  8.56 -5.99
Si -6.01  6.17  5.97
Si  8.22 -4.89 -4.31
Si -0.69 -8.64  5.95
Si  8.30  4.82 -4.29
Si  7.85  3.77  5.92
Si  0.83 -4.85  9.33
Si -8.31 -4.85  4.32
Si  2.59 -9.90  2.62
Si -0.92 -4.89 -9.32
Si  0.91  4.85  9.34
Si -7.90 -3.69 -5.98
Si -2.92 -9.83 -2.62
Si  7.22 -7.35  2.51
Si -2.52  9.96 -2.62
Si -8.73 -1.17  5.92
Si  8.68  1.26 -5.98
Si  1.23 -8.76 -5.89
Si  6.10  8.66 -0.87
Si -0.81  4.89 -9.40
Si -7.20  7.39 -2.58
Si -1.21  8.72  5.98
Si  2.99  9.89  2.62
Si  4.06 -6.16 -7.71
Si -6.08 -8.73  0.83
Si -10.55 -1.32  0.93
Si 10.58  1.28 -0.83
Si -4.10  6.24  7.66
Si -7.43 -7.35  2.51
Si -1.04 -9.84 -4.31
Si  0.66 -9.91  4.23
Si  6.68 -3.65  7.66
Si -2.51 -8.64 -5.98
Si  1.06  9.88  4.23
Si  7.45  7.39 -2.58
Si  2.46  8.72  5.92
Si -8.90 -6.14  0.84
Si  8.85  6.23 -0.90
Si -0.64  9.95 -4.31
Si -6.73  3.73 -7.71
Si  2.85 -8.67  5.97
Si -6.69  8.57  0.93
Si -2.95  8.66 -5.97
Si -2.63  5.04  9.33
Si  6.71 -8.62 -0.83
Si  2.65 -5.00 -9.40
Si -10.13 -0.01  4.23
Si  2.94  5.00 -9.32
Si  7.77 -1.20  7.67
Si  7.03  6.08 -5.89
Si -2.96 -5.04  9.34
Si 10.15  0.06 -4.31
Si -0.81 -0.05 -11.01
Si -8.55  3.62 -5.99
Si -7.87  1.18 -7.67
Si  0.87  0.10 11.02
Si  2.90  9.76 -4.29
Si -7.00 -6.12  5.98
Si  8.56 -3.69  5.95
Si  4.40 -9.83 -2.62
Si -2.92 -9.80  4.32
Si -4.34  9.89  2.62
Si  5.17  6.16 -7.69
Si -5.15 -6.24  7.64
Si -10.48  3.71 -0.87
Si -5.39  2.52 -9.44
Si  5.61  2.49 -9.31
Si -2.52  9.99  4.32
Si  5.45 -2.46  9.44
Si -5.58 -2.51  9.37
Si 10.49 -3.79  0.83
Si  2.50 -10.03 -4.29
Si -0.21 11.17 -0.83
Si  1.64 11.06  0.83
Si -7.17  7.48  4.32
Si  7.20 -7.49 -4.27
Si  0.23 -11.21  0.93
Si -6.31  0.06 -9.32
Si  6.30 -0.09  9.34
Si -9.55  1.14 -5.89
Si -1.62 -11.13 -0.87
Si -4.74 -9.90  2.62
Si  0.04  2.32 -11.11
Si  9.58 -1.18  5.98
Si -9.46  6.22 -0.83
Si  1.92 -11.16 -0.85
Si  4.80  9.96 -2.62
Si -2.02 11.15  0.85
Si -0.06 -2.36 11.13
Si  4.38  8.66 -5.97
Si -7.62  6.08 -5.89
Si -7.45 -7.49 -4.27
Si -9.97  4.89  2.55
Si  9.49 -6.27  0.93
Si 10.01 -4.91 -2.50
Si  7.48  7.48  4.32
Si  5.84 -6.14  7.67
Si  2.81 -0.09 -11.09
Si -4.48 -8.67  5.97
Si -4.38  5.00 -9.32
Si -10.89  2.55  2.51
Si -5.94  6.13 -7.67
Si  7.65 -6.12  5.98
Si  4.37 -5.04  9.34
Si -2.78  0.08 11.14
Si -1.88  2.48 11.05
Si 10.91 -2.51 -2.58
Si -11.40  1.28 -0.83
Si  0.64  8.60  7.64
Si 11.42 -1.32  0.93
Si -4.42  9.76 -4.29
Si  1.89 -2.44 -11.13
Si  4.82 -8.64 -5.98
Si -1.89 -2.62 -11.11
Si  4.40 -9.80  4.32
Si -10.13 -4.96  2.62
Si  1.88  2.59 11.13
Si  4.69  5.04  9.33
Si  8.61  1.30  7.66
Si -4.86  8.72  5.92
Si -0.62 -8.68 -7.69
Si -1.14  8.68 -7.65
Si -4.67 -5.00 -9.40
Si -11.06 -2.51 -2.58
Si -7.97 -3.65  7.66
Si 11.08  2.55  2.51
Si 10.19  5.01 -2.62
Si -8.66 -1.21 -7.71
Si -3.50 -11.09  0.84
Si  7.92  3.73 -7.71
Si  1.17 -8.72  7.75
Si  3.46 11.17 -0.90
Si  7.96  8.57  0.93
Si -7.93 -8.62 -0.83
Si  3.82 -11.09  0.84
Si -2.57 -8.60  7.66
Si -3.86 11.17 -0.90
Si  3.52 -2.47 11.05
Si  9.91 -4.96  4.23
Si  2.53  8.68 -7.71
Si -9.89  5.00 -4.31
Si  4.80  9.99  4.32
Si  0.22  7.44 -9.31
Si -4.82 -10.03 -4.29
Si -3.50  2.51 -11.13
Si -3.81 -2.47 11.05
Si -8.96  7.50  2.51
Si  8.98 -7.46 -2.58
Si -10.91  2.40 -4.27
Si -6.17  9.93 -2.50
Si  2.92 -8.71 -7.67
Si -4.51 -0.09 -11.09
Si -0.19 -7.45  9.37
Si -3.01  8.70  7.67
Si  6.20 -9.95  2.55
Si 10.94 -2.42  4.32
Si  1.75 -7.40 -9.31
Si -6.93 -6.16 -7.65
Si  3.83  2.51 -11.13
Si  4.55  0.08 11.14
Si  9.77  3.71 -5.97
Si  9.23  7.31  2.52
Si -1.72  7.39  9.37
Si -9.24 -7.34 -2.50
Si  6.96  6.12  7.75
Si -1.06 -4.84 11.02
Si -8.61  3.65  7.64
Si -11.03 -2.42  4.32
Si 11.07  2.40 -4.27
Si  1.12  4.90 -11.01
Si -6.57 -9.86 -2.50
Si 11.50  3.71 -0.87
Si -11.48 -3.79  0.83
Si -9.87 -3.73  5.97
Si  6.61  9.84  2.55
Si 10.50  1.26  5.95
Si -1.92 -7.38 -9.44
Si -10.48 -1.33 -5.99
Si  8.63 -3.73 -7.69
Si 10.20  5.04  4.32
Si -7.27  2.49  9.44
Si -11.90 -0.05  2.55
Si  1.99  7.43  9.44
Si  8.64  6.17  5.97
Si -7.32 -2.43 -9.44
Si -6.09 -8.76 -5.89
Si -10.21 -5.08 -4.29
Si  7.33 -2.43 -9.44
Si -8.54  8.66 -0.87
Si 11.94  0.04 -2.50
