500
set: 195.00  0.00  0.00
Si  0.00 -0.01 -0.02
Si -1.88  1.06  0.77
Si -0.05 -0.01 -2.32
Si  0.02 -2.20  0.78
Si  1.91  1.15  0.80
Si  1.85 -3.26  0.02
Si  1.89  3.25 -0.05
Si -1.96 -3.21 -0.01
Si -1.86  1.10  3.09
Si -3.77  0.02 -0.03
Si -0.03  2.19 -3.08
Si -1.92  3.25  0.05
Si  0.01 -2.21  3.08
Si  1.88 -1.09 -3.10
Si  1.86  1.09  3.12
Si  3.80  0.04 -0.03
Si -1.88 -1.14 -3.12
Si  0.03  4.32  0.80
Si  3.72 -2.20  0.80
Si  1.93 -1.10  3.80
Si  1.90 -3.24 -2.30
Si -3.78 -2.12  0.78
Si -1.87  3.28 -2.28
Si  1.90  3.25 -2.34
Si  3.76  0.02 -2.36
Si -1.85 -1.10  3.88
Si -3.78 -0.01 -2.34
Si  0.01  2.17  3.90
Si -1.94 -3.32 -2.35
Si  0.01  4.32  3.11
Si -3.76  2.19 -3.08
Si  3.79  2.16 -3.10
Si  3.81 -2.16  3.08
Si -0.03 -4.36 -3.11
Si -3.76 -2.21  3.13
Si -1.89 -5.41  0.76
Si -5.62  1.10  0.76
Si -0.01  2.22 -5.35
Si  3.76  2.20  3.82
Si -3.74  2.20  3.85
Si  1.86 -5.45  0.79
Si -0.01 -4.34  3.92
Si  1.94 -1.08 -5.43
Si -3.82  4.39  0.79
Si  3.79  4.43  0.76
Si -1.92 -1.08 -5.45
Si  5.73  1.10  0.76
Si -1.95  1.11 -6.13
Si -5.67  1.10  3.05
Si  5.65 -3.27  0.02
Si -0.01  2.10  6.19
Si  1.92  5.42 -3.11
Si  1.86 -5.45  3.10
Si  1.86  1.11 -6.17
Si  3.78 -4.36 -3.09
Si  0.01 -6.54 -0.01
Si  5.69  1.10  3.05
Si -5.67  3.29 -0.01
Si -1.90 -1.08  6.18
Si  5.67 -1.18 -3.08
Si  1.92 -1.14  6.17
Si  3.73  4.39  3.14
Si -0.03  6.56  0.02
Si  5.69  3.29 -0.01
Si -1.90  5.48 -3.09
Si -5.70 -3.27  0.02
Si -3.76 -4.42 -3.11
Si -5.69 -1.18 -3.08
Si -1.95 -5.45  3.14
Si  0.01 -2.18 -6.22
Si -3.82  4.38  3.10
Si  0.04  6.53 -2.24
Si -5.64 -3.31 -2.24
Si -5.64 -1.10  3.86
Si -1.85  5.49  3.82
Si  3.83 -4.35  3.82
Si -5.67  3.27 -2.34
Si -3.82 -4.35  3.87
Si  0.04 -4.38 -5.41
Si  1.86  5.49  3.87
Si  0.01 -6.56 -2.34
Si  5.69  3.27 -2.34
Si  5.72 -3.31 -2.24
Si -3.82  2.21 -5.41
Si  5.72 -1.10  3.86
Si  3.83  2.21 -5.45
Si  0.04 -0.03  7.04
Si  3.80  2.14  6.16
Si -7.56  0.04 -0.03
Si -3.82 -2.18 -6.16
Si -3.80  2.19  6.17
Si  0.01  4.35 -6.19
Si  3.75 -6.59  0.05
Si -0.03 -4.37  6.20
Si  7.59  0.02 -0.03
Si  3.82 -2.18 -6.18
Si  3.72  6.62 -0.01
Si -3.79 -6.59 -0.05
Si -3.83  6.58  0.02
Si  3.74  6.51 -2.35
Si  3.74 -0.05  6.92
Si -5.67 -1.11 -5.38
Si -1.85  5.45 -5.39
Si  1.90  3.27  6.93
Si -1.92  3.30  6.92
Si  5.69 -1.11 -5.38
Si  7.57 -2.12  0.78
Si  1.90 -3.31  6.93
Si  3.81 -6.56 -2.28
Si -1.96  7.64  0.80
Si  7.57 -0.01 -2.34
Si -5.65 -5.51  0.80
Si  3.82 -4.38 -5.39
Si -3.78  0.04  6.97
Si -3.78  6.59 -2.30
Si -3.78 -6.59 -2.34
Si -1.87 -3.28  6.99
Si -3.75 -4.38 -5.47
Si -7.60  0.02 -2.36
Si  1.93  5.46 -5.47
Si  5.71 -5.51  0.80
Si  1.90  7.71  0.78
Si -7.63 -2.20  0.80
Si -3.76  4.34 -6.14
Si -7.54 -2.16  3.08
Si  5.65 -1.08  6.17
Si -5.67  1.04 -6.16
Si -1.89  5.44  6.17
Si  5.68  1.04 -6.16
Si -1.86 -5.44 -6.20
Si  5.65  5.47 -3.11
Si  1.92 -7.64 -3.08
Si  1.92 -5.49 -6.14
Si  1.92  7.62  3.13
Si -7.57  2.16 -3.10
Si -3.76 -4.37  6.20
Si  3.79 -4.40  6.17
Si -5.71 -1.08  6.17
Si -1.86  7.68  3.08
Si  7.59  2.19 -3.08
Si  1.92  5.47  6.20
Si -1.89 -7.68 -3.10
Si -5.71  5.47 -3.11
Si -5.67 -5.51  3.11
Si  3.81  4.40 -6.20
Si  5.68 -5.51  3.11
Si  7.60 -2.21  3.13
Si  7.54  4.39  0.79
Si -1.92 -7.64  3.82
Si  1.86  1.11 -8.49
Si  0.05 -8.73  0.76
Si  1.94 -7.63  3.85
Si -7.60  2.20  3.82
Si  0.05 -2.17 -8.52
Si -1.89  1.15 -8.52
Si -7.57  4.43  0.76
Si  7.62  2.20  3.85
Si  5.67  5.50  3.92
Si -5.69  5.50  3.92
Si -0.01  8.65 -3.08
Si  0.01 -8.73  3.05
Si  7.54  4.38  3.10
Si -7.58 -4.36 -3.09
Si  0.01  0.01 -9.29
Si -0.03  0.01  9.29
Si  7.60 -4.42 -3.11
Si -7.63  4.39  3.14
Si -7.53 -4.35  3.82
Si -3.77 -8.69  0.80
Si -3.77 -2.13 -8.47
Si  7.54 -4.35  3.87
Si  5.63  3.27  6.96
Si  1.86 -7.63 -5.41
Si -5.64  5.46 -5.41
Si -5.66  7.64  0.78
Si -5.67 -3.29  6.93
Si  0.01  6.55  6.93
Si  7.54  2.21 -5.41
Si -9.45  1.15  0.80
Si  0.02  4.36 -8.50
Si  0.04  8.74  3.86
Si  5.69 -3.29  6.93
Si -7.53  2.21 -5.45
Si -1.85 -7.63 -5.45
Si  5.70  7.64  0.78
Si  9.48  1.06  0.77
Si -0.05 -6.57  6.96
Si  3.80 -2.21 -8.50
Si  5.72  5.46 -5.41
Si -5.73  3.27  6.96
Si  3.80 -8.77  0.77
Si  9.40 -3.21 -0.01
Si  3.75 -0.03 -9.23
Si -1.88 -9.79 -0.03
Si  7.54 -2.18 -6.16
Si  1.89 -3.31  9.22
Si  9.43  3.25  0.05
Si  3.72  0.07  9.26
Si -7.56  2.14  6.16
Si -5.67  7.63  3.08
Si -7.54 -2.18 -6.18
Si  3.80  8.70 -3.12
Si  5.65 -7.65 -3.08
Si  1.91 -9.81 -0.03
Si  1.85  3.30 -9.25
Si  7.53  6.58  0.02
Si  1.86  7.65 -6.16
Si -1.88  3.32  9.24
Si  1.88 -7.64  6.17
Si  7.56  2.19  6.17
Si  1.91  3.30  9.25
Si  5.69  7.63  3.08
Si  5.65  5.47  6.20
Si -9.47  3.25 -0.05
Si -1.86  7.66 -6.18
Si -5.70 -7.65 -3.08
Si  3.82 -8.74  3.09
Si -5.67 -5.49 -6.19
Si -9.47 -1.09 -3.10
Si  7.56 -6.59 -0.05
Si -3.80  8.75 -3.10
Si -1.88 -3.24 -9.31
Si -1.88 -7.69  6.16
Si -3.82 -8.74  3.12
Si  1.91 -3.25 -9.30
Si  9.48 -1.14 -3.12
Si -5.70  5.47  6.20
Si  1.91  9.86 -0.03
Si  5.69 -5.49 -6.19
Si  9.50  1.10  3.09
Si -9.51 -3.26  0.02
Si -3.83  0.02  9.29
Si -9.50  1.09  3.12
Si -1.88  9.88 -0.03
Si -7.60 -6.59  0.05
Si -1.96  3.34 -9.29
Si -3.79 -0.03 -9.32
Si -1.92 -3.31  9.32
Si -7.64  6.62 -0.01
Si -9.43 -1.10  3.80
Si  3.72  4.36 -8.47
Si  3.76 -6.54  6.92
Si -3.75  8.73  3.80
Si -5.65  1.04 -8.48
Si  1.90 -5.40 -8.49
Si -3.78  6.53  6.93
Si -7.53 -4.38 -5.39
Si  0.01  8.73 -5.38
Si -7.55 -6.56 -2.28
Si  9.42 -3.32 -2.35
Si -9.46 -3.24 -2.30
Si -3.78 -6.56  6.93
Si -9.46  3.25 -2.34
Si  5.71  1.04 -8.48
Si -1.96 -5.48 -8.47
Si -1.92 -9.82 -2.36
Si  1.90  9.83 -2.34
Si  1.90 -9.84 -2.34
Si  3.82  8.73  3.88
Si -7.62  6.51 -2.35
Si -7.62 -0.05  6.92
Si  9.49  3.28 -2.28
Si  1.90  1.16 10.05
Si  7.58  0.04  6.97
Si -5.67 -7.66  3.90
Si -3.78  4.44 -8.49
Si  7.58  6.59 -2.30
Si  5.69 -7.66  3.90
Si  7.58 -6.59 -2.34
Si -1.92  9.85 -2.36
Si  0.03 -2.23 10.07
Si  3.81  6.56  6.99
Si -1.96  1.08 10.07
Si  9.50 -1.10  3.88
Si  7.61 -4.38 -5.47
Si  7.60  4.34 -6.14
Si -0.03  8.75  6.17
Si -7.54  4.40 -6.20
Si -7.57 -4.40  6.17
Si  7.59 -4.37  6.20
Si  0.01 -8.79 -6.16
Si  5.67 -7.62 -5.35
Si -5.69 -7.62 -5.35
Si -9.42 -1.08 -5.43
Si  9.47 -5.41  0.76
Si  3.79 -2.13 10.03
Si  0.05  4.38 10.03
Si  9.44 -1.08 -5.45
Si -3.74  8.76 -5.43
Si  0.05 10.94  0.76
Si  3.76  8.75 -5.45
Si -3.82 -2.17 10.06
Si -9.50 -5.45  0.79
Si  9.41  1.11 -6.13
Si  3.73 -8.73 -6.13
Si -3.76  8.70  6.17
Si -9.44  5.42 -3.11
Si  9.41 -5.45  3.14
Si  5.65  3.29 -9.25
Si -9.44 -1.14  6.17
Si -5.67  3.27  9.25
Si -0.03 -6.55 -9.25
Si -5.67 -3.27  9.26
Si  5.68  3.27  9.25
Si -5.67  9.82 -0.02
Si  5.69 -3.27  9.26
Si  0.00 -6.57  9.25
Si  9.46 -1.08  6.18
Si  5.68  9.82 -0.02
Si  0.01  6.57  9.26
Si -3.82 -8.73 -6.17
Si -11.35 -0.01 -0.02
Si -5.70  3.29 -9.25
Si  9.46  5.48 -3.09
Si  0.01 10.94  3.05
Si 11.36 -0.01 -0.02
Si -5.67 -9.85 -0.02
Si  3.78  8.76  6.18
Si  0.00  6.54 -9.29
Si  5.68 -9.85 -0.02
Si -5.67 -3.29 -9.29
Si -5.67  7.66 -6.22
Si  5.68 -3.29 -9.29
Si -9.50 -5.45  3.10
Si -9.50  1.11 -6.17
Si  5.69  7.66 -6.22
Si  5.67 -7.74  6.19
Si -5.69 -7.74  6.19
Si -0.01 -11.02 -3.08
Si 11.31 -0.01 -2.32
Si  5.63  9.82 -2.32
Si  7.59 -8.69  0.80
Si  3.80 10.90  0.77
Si -1.88  7.62 -8.50
Si -11.34 -2.20  0.78
Si  7.59 -2.13 -8.47
Si  5.63 -9.85 -2.32
Si -5.66 -5.47 -8.50
Si -5.66  1.08 10.05
Si  3.80  4.34 10.05
Si -7.56 -2.21 -8.50
Si  1.91 -5.41 10.07
Si  0.04 -10.94  3.86
Si  5.70 -5.47 -8.50
Si -1.88 -5.49 10.05
Si -5.73  9.82 -2.32
Si -7.56 -8.77  0.77
Si  5.70  1.08 10.05
Si  1.91  7.70 -8.47
Si  0.01 -0.01 -11.61
Si 11.38 -2.20  0.78
Si  9.51  5.49  3.82
Si -5.73 -9.85 -2.32
Si -9.50  5.49  3.87
Si -3.77  4.42 10.07
Si -3.77 10.98  0.80
Si -11.41 -0.01 -2.32
Si -3.79  6.53  9.22
Si  3.72 -6.49 -9.29
Si  3.80 -6.51  9.24
Si -3.77 -6.53  9.25
Si -7.56  8.70 -3.12
Si 11.33  2.19 -3.08
Si -7.54 -8.74  3.09
Si -7.60 -0.03 -9.23
Si  7.54 -8.74  3.12
Si -3.83 -6.54 -9.25
Si  7.53  0.02  9.29
Si -11.34 -2.21  3.08
Si -3.80 -10.92 -3.10
Si  7.56  8.75 -3.10
Si  3.75  6.53  9.32
Si 11.37 -2.21  3.08
Si  3.82 10.94  3.09
Si -3.82 10.93  3.12
Si -11.38  2.19 -3.08
Si -3.77  6.58 -9.30
Si -7.64  0.07  9.26
Si  7.56 -0.03 -9.32
Si  3.80 -10.97 -3.12
Si  3.80  6.60 -9.31
Si  1.90 -11.96  0.78
Si  9.40  7.64  0.80
Si -1.94  9.79  6.92
Si -11.33  4.32  0.80
Si  9.44  3.30  6.92
Si  3.81  0.00 -11.55
Si -7.53  8.73  3.88
Si -3.75 -10.94  3.80
Si  7.58  6.53  6.93
Si -7.60 -6.54  6.92
Si  1.90 -9.80  6.97
Si -9.46  3.27  6.93
Si -9.46 -3.31  6.93
Si  7.57 -6.56  6.93
Si  1.90  3.31 -11.57
Si -9.43  5.46 -5.47
Si  0.01 -10.94 -5.38
Si  7.61  8.73  3.80
Si -11.35  2.17  3.90
Si -7.55  6.56  6.99
Si -7.63  4.36 -8.47
Si 11.39  4.32  0.80
Si 11.37  2.17  3.90
Si  0.03 -8.79 -8.48
Si  9.50  5.45 -5.39
Si -3.78 -0.03 -11.61
Si  7.57  4.44 -8.49
Si  1.90 -3.28 -11.61
Si -1.96 -12.03  0.80
Si -1.94  3.23 -11.62
Si  3.82 -10.94  3.88
Si -1.94 -9.88  6.92
Si -1.92 -3.26 -11.63
Si -9.46  7.71  0.78
Si  1.90  9.87  6.97
Si  9.49 -3.28  6.99
Si  0.01 10.88 -6.16
Si -1.86 -11.99  3.08
Si 11.32 -4.36 -3.11
Si -9.44 -5.49 -6.14
Si -9.44  7.62  3.13
Si -9.44 -7.64 -3.08
Si -1.89 12.00 -3.10
Si -11.35  4.32  3.11
Si -0.03 -10.92  6.17
Si  9.47  5.44  6.17
Si -1.86  1.12 12.35
Si  1.92 -1.09 -12.35
Si -9.44  5.47  6.20
Si 11.36  4.32  3.11
Si  1.92 12.03 -3.08
Si -1.89 -1.12 -12.38
Si  9.49 -5.44 -6.20
Si -0.03  2.19 -12.38
Si  9.47 -7.68 -3.10
Si  0.01 -2.23 12.39
Si -11.39 -4.36 -3.11
Si  9.49  7.68  3.08
Si  1.92 -12.05  3.13
Si  1.92  1.06 12.41
Si -9.42 -7.63  3.85
Si -5.62 -5.45 10.03
Si  9.44 -7.64  3.82
Si  3.79 -8.69 -8.52
Si 11.35  2.22 -5.35
Si -7.57 -2.13 10.03
Si -3.74 -10.91 -5.43
Si  7.54 -2.17 10.06
Si -11.36  2.22 -5.35
Si -3.82 -8.73 -8.49
Si -5.62  7.66 -8.52
Si  3.76 -10.92 -5.45
Si 11.35 -4.34  3.92
Si -1.92 12.03  3.82
Si  5.73 -5.45 10.03
Si  1.86  7.66 10.06
Si -11.36 -4.34  3.92
Si  1.94 12.04  3.85
Si  9.47  1.15 -8.52
Si -9.50  1.11 -8.49
Si -1.89  7.71 10.03
Si -7.60  8.75 -5.45
Si  5.73  7.66 -8.52
Si  7.62  8.76 -5.43
Si  7.54 -8.73 -6.17
Si  0.01  4.38 12.33
Si  3.73 10.95 -6.13
Si 11.35  2.10  6.19
Si  7.60  8.70  6.17
Si 11.33  6.56  0.02
Si  3.78 -10.91  6.18
Si -11.35 -6.54 -0.01
Si -0.03 -13.11  0.02
Si -7.63 -8.73 -6.13
Si -3.76  2.14 -12.38
Si -11.37  2.10  6.19
Si  3.78  2.20 -12.37
Si 11.37 -6.54 -0.01
Si -11.34 -2.18 -6.22
Si  0.01 13.13 -0.01
Si -7.58  8.76  6.18
Si -3.82 -2.17 12.37
Si -3.82 10.94 -6.17
Si -3.76 -10.97  6.17
Si -0.01 -4.46 -12.36
Si -11.38  6.56  0.02
Si 11.37 -2.18 -6.22
Si  3.73 -2.17 12.42
Si -5.64  3.25 -11.51
Si  5.72  3.25 -11.51
Si -11.32  6.53 -2.24
Si  0.04 -6.59 -11.51
Si -1.85 -1.07 13.10
Si -7.56 10.90  0.77
Si -11.32 -4.38 -5.41
Si  5.63 -3.29 -11.59
Si -7.56  4.34 10.05
Si -13.24  1.06  0.77
Si -0.05  6.54 -11.59
