500
set: 369.00  0.00  0.00
Si -0.04  0.07 -0.07
Si -0.06 -2.07  0.74
Si  1.83  1.03  0.81
Si -1.90  1.14  0.71
Si  0.06 -0.03 -2.35
Si  1.82 -3.15  0.07
Si -1.86  0.94  2.98
Si  3.64  0.04 -0.03
Si  1.82  3.19  0.05
Si -1.87 -1.07 -2.98
Si  0.07 -2.16  3.00
Si  0.07  2.14 -3.09
Si  1.86  1.08  3.11
Si -1.90 -3.27  0.05
Si -3.81  0.04 -0.03
Si -1.90  3.31  0.07
Si  1.87 -1.21 -3.10
Si -1.76  3.16 -2.19
Si -1.76 -3.22 -2.24
Si -0.05  2.12  3.77
Si  3.67 -0.04 -2.31
Si  3.72 -2.10  0.76
Si -3.73 -2.10  0.76
Si  1.96  3.23 -2.24
Si -0.01  4.35  0.76
Si  1.97 -3.30 -2.19
Si -1.76 -1.15  3.89
Si -3.78 -0.04 -2.31
Si  1.96 -1.07  3.85
Si -3.67  2.12 -3.04
Si  0.06  4.27  3.05
Si -3.67 -2.19  3.05
Si  3.79  2.12 -3.04
Si  0.06 -4.34 -3.04
Si  3.79 -2.19  3.05
Si -3.66  2.12  3.74
Si  1.83 -5.31  0.71
Si  5.56  1.14  0.71
Si -1.90 -1.12 -5.28
Si  0.06 -4.33  3.74
Si  3.79  2.12  3.74
Si  3.67  4.39  0.74
Si  1.83 -1.01 -5.38
Si -5.62  1.03  0.81
Si -0.06  2.23 -5.35
Si -1.90 -5.43  0.81
Si -3.79  4.39  0.74
Si -1.86  5.24 -3.10
Si -3.65  4.30  3.00
Si  1.82  1.16 -6.02
Si  5.59  0.94  2.98
Si -0.08 -6.41 -0.03
Si -1.90  1.04 -6.04
Si  5.59 -1.07 -2.98
Si  1.86  5.39 -2.98
Si -3.65 -4.31 -3.09
Si  5.55 -3.27  0.05
Si -0.08  2.20  6.06
Si -5.63 -3.15  0.07
Si  5.55  3.31  0.07
Si -0.08 -2.11 -6.11
Si -5.63  3.19  0.05
Si  3.80  4.30  3.00
Si -1.87 -5.37  3.11
Si -5.60  1.08  3.11
Si  1.82 -1.11  6.13
Si -0.08  6.50 -0.03
Si -5.59 -1.21 -3.10
Si -1.90 -0.99  6.15
Si  3.80 -4.31 -3.09
Si  1.87 -5.52  2.98
Si -5.49  3.23 -2.24
Si -5.49 -3.30 -2.19
Si -5.49 -1.07  3.85
Si -0.01 -4.26 -5.32
Si -0.05  6.42 -2.31
Si  3.67 -4.34  3.77
Si -1.76  5.39  3.85
Si -0.01  0.05  6.85
Si  3.72  2.20 -5.32
Si -3.73  2.20 -5.32
Si  5.69  3.16 -2.19
Si  1.97  5.31  3.89
Si -3.78 -4.34  3.77
Si -0.05 -6.49 -2.31
Si  5.69 -3.22 -2.24
Si  5.69 -1.15  3.89
Si -0.04 -4.24  6.02
Si  3.68 -6.39 -0.07
Si  3.68  2.22  6.02
Si  7.41  0.07 -0.07
Si -3.77 -6.39 -0.07
Si -3.77  2.22  6.02
Si  3.68 -2.08 -6.16
Si  3.68  6.53 -0.07
Si -7.50  0.07 -0.07
Si -3.77 -2.08 -6.16
Si -3.77  6.53 -0.07
Si -0.04  4.37 -6.16
Si  7.39 -2.07  0.74
Si  1.83  5.33 -5.28
Si -1.90 -3.16  6.80
Si  3.66 -4.22 -5.35
Si  5.56 -1.12 -5.28
Si  3.66  0.08  6.83
Si -7.39 -0.03 -2.35
Si -3.66  6.43 -2.35
Si -1.90  7.48  0.81
Si -5.62 -5.31  0.71
Si  1.83  3.29  6.80
Si -3.79 -4.22 -5.35
Si -3.79  0.08  6.83
Si -3.67 -6.49 -2.35
Si  5.56 -5.43  0.81
Si  3.79  6.43 -2.35
Si -1.90  3.18  6.90
Si -7.52 -2.07  0.74
Si -5.62 -1.01 -5.38
Si  1.83  7.60  0.71
Si  1.83 -3.28  6.90
Si  3.79 -6.49 -2.35
Si  7.52 -0.03 -2.35
Si -1.90  5.45 -5.38
Si  1.87  7.39  2.98
Si -1.90 -5.30 -6.02
Si -7.38 -2.16  3.00
Si  3.64 -4.26  6.06
Si  5.55  1.04 -6.04
Si  5.59  5.24 -3.10
Si -7.38  2.14 -3.09
Si  1.86 -7.53 -2.98
Si  1.82 -5.42 -6.04
Si -5.60  5.39 -2.98
Si -5.63  1.16 -6.02
Si -3.81 -4.26  6.06
Si  3.64  4.35 -6.11
Si  5.55 -0.99  6.15
Si  5.59 -5.37  3.11
Si -1.90  5.34  6.13
Si -1.87  7.54  3.11
Si  7.53 -2.16  3.00
Si -5.59 -5.52  2.98
Si -5.63 -1.11  6.13
Si -3.81  4.35 -6.11
Si  7.53  2.14 -3.09
Si  1.83  5.46  6.15
Si -1.86 -7.67 -3.10
Si  1.97  1.00 -8.28
Si -5.49  5.31  3.89
Si  7.40  2.12  3.77
Si -1.76  1.08 -8.33
Si -0.01 -8.56  0.76
Si -1.76 -7.53  3.85
Si  7.45  4.35  0.76
Si -7.51  2.12  3.77
Si -7.46  4.35  0.76
Si -0.05 -2.19 -8.40
Si  5.69  5.39  3.85
Si  1.97 -7.60  3.89
Si -7.39  4.27  3.05
Si  0.06  8.57 -3.04
Si -7.40 -4.34 -3.04
Si  0.06 -0.04 -9.12
Si  0.06 -0.04  9.14
Si  7.51  4.27  3.05
Si  0.06 -8.64  3.05
Si  7.51 -4.34 -3.04
Si  3.66 -8.53  0.74
Si  5.56 -3.16  6.80
Si -0.06 -6.37  6.83
Si -7.39 -4.33  3.74
Si  5.56  7.48  0.81
Si  0.06  8.58  3.74
Si -3.79 -8.53  0.74
Si -5.62  5.33 -5.28
Si  9.29  1.03  0.81
Si  7.39  2.23 -5.35
Si -1.90 -7.47 -5.38
Si  5.56  3.18  6.90
Si  1.83 -7.58 -5.28
Si -5.62  3.29  6.80
Si -9.35  1.14  0.71
Si  7.52 -4.33  3.74
Si -3.67 -2.18 -8.43
Si -0.06  6.54  6.83
Si  0.06  4.27 -8.43
Si  5.56  5.45 -5.38
Si -5.62  7.60  0.71
Si -5.62 -3.28  6.90
Si -7.52  2.23 -5.35
Si  3.79 -2.18 -8.43
Si -5.59  7.39  2.98
Si  5.55 -5.30 -6.02
Si  1.87  3.09  9.07
Si  7.37 -6.41 -0.03
Si -1.90 -9.60  0.07
Si  7.37  2.20  6.06
Si -3.65 -0.01  9.09
Si  1.82  7.49 -6.04
Si  9.28 -3.15  0.07
Si  1.86 -3.22 -9.07
Si  7.37 -2.11 -6.11
Si -1.87  3.23 -9.07
Si  9.28  3.19  0.05
Si -9.32  0.94  2.98
Si  7.37  6.50 -0.03
Si -3.65 -8.62  3.00
Si -1.90  9.65  0.05
Si  1.82 -7.45  6.15
Si -3.65  8.60 -3.09
Si -5.60 -7.53 -2.98
Si -9.32 -1.07 -2.98
Si  5.55  5.34  6.13
Si  3.80 -0.01  9.09
Si -1.86 -3.37  9.07
Si  1.87  3.09 -9.19
Si -3.65 -0.01 -9.17
Si -5.63 -5.42 -6.04
Si  9.31  1.08  3.11
Si  3.80 -8.62  3.00
Si  5.59  7.54  3.11
Si -1.90  7.61 -6.02
Si  1.82 -9.72  0.05
Si  3.80  8.60 -3.09
Si -7.54 -6.41 -0.03
Si  9.32 -1.21 -3.10
Si -9.36 -3.27  0.05
Si  1.86 -3.22  9.19
Si -7.54  2.20  6.06
Si -1.87  3.23  9.19
Si -9.36  3.31  0.07
Si -1.90 -7.57  6.13
Si  3.80 -0.01 -9.17
Si -7.54 -2.11 -6.11
Si  1.83  9.77  0.07
Si -7.54  6.50 -0.03
Si -1.86 -3.37 -9.19
Si -5.63  5.46  6.15
Si -5.49  1.00 -8.28
Si -9.22  3.16 -2.19
Si  5.59 -7.67 -3.10
Si -9.22 -3.22 -2.24
Si  1.97  9.61 -2.19
Si  3.67  8.57  3.77
Si  7.40  6.42 -2.31
Si -1.76 -5.45 -8.28
Si -9.22 -1.15  3.89
Si  3.72 -6.41  6.85
Si  7.45 -4.26 -5.32
Si -3.73 -6.41  6.85
Si -0.05 -2.19  9.86
Si -3.78  8.57  3.77
Si -1.76  9.69 -2.24
Si  1.96 -5.37 -8.33
Si -7.46 -4.26 -5.32
Si  3.67  4.27 -8.40
Si  7.40 -6.49 -2.31
Si  7.45  0.05  6.85
Si  1.96 -9.68 -2.24
Si -7.46  0.05  6.85
Si  5.69  1.08 -8.33
Si -7.51  6.42 -2.31
Si -1.76  1.08  9.93
Si -3.78  4.27 -8.40
Si  3.72  6.50  6.85
Si -1.76 -9.76 -2.19
Si -5.49 -7.60  3.89
Si -3.73  6.50  6.85
Si -0.01  8.65 -5.32
Si  5.69 -7.53  3.85
Si -7.51 -6.49 -2.31
Si  9.42  3.23 -2.24
Si  9.42 -3.30 -2.19
Si  1.97  1.00  9.98
Si  9.42 -1.07  3.85
Si  7.41 -4.24  6.02
Si -7.50 -4.24  6.02
Si -0.04 -8.54 -6.16
Si -0.04  8.68  6.02
Si  7.41  4.37 -6.16
Si -7.50  4.37 -6.16
Si -3.66 -2.18  9.83
Si  0.06  4.27  9.83
Si  9.29 -5.31  0.71
Si  5.56 -7.47 -5.38
Si  3.79 -2.18  9.83
Si  9.29 -1.01 -5.38
Si -9.35 -1.12 -5.28
Si -5.62 -7.58 -5.28
Si  3.67  8.69 -5.35
Si -9.35 -5.43  0.81
Si -0.06 10.84  0.74
Si -3.79  8.69 -5.35
Si -5.59  3.09  9.07
Si  5.55 -9.60  0.07
Si 11.10  0.04 -0.03
Si  9.28  1.16 -6.02
Si  5.59  3.23 -9.07
Si  5.55  9.65  0.05
Si -5.60 -3.22 -9.07
Si -9.32  5.24 -3.10
Si  3.64 -8.56 -6.11
Si  0.07  6.45  9.09
Si -5.63  7.49 -6.04
Si  0.07 -6.46  9.09
Si  0.07 10.75  3.00
Si  9.31  5.39 -2.98
Si  3.64  8.65  6.06
Si  5.59 -3.37  9.07
Si  9.28 -1.11  6.13
Si -5.63 -7.45  6.15
Si  5.55  7.61 -6.02
Si -9.36  1.04 -6.04
Si -3.81 -8.56 -6.11
Si -5.59  3.09 -9.19
Si -9.32 -5.37  3.11
Si  0.07 -10.77 -3.09
Si  0.07  6.45 -9.17
Si  5.55 -7.57  6.13
Si  0.07 -6.46 -9.17
Si -3.81  8.65  6.06
Si  5.59  3.23  9.19
Si -5.60 -3.22  9.19
Si  9.32 -5.52  2.98
Si -5.63 -9.72  0.05
Si -9.36 -0.99  6.15
Si -11.27  0.04 -0.03
Si -5.63  9.77  0.07
Si  5.59 -3.37 -9.19
Si -1.76  7.46 -8.28
Si -5.49  9.61 -2.19
Si -5.49 -5.37 -8.33
Si -9.22  5.39  3.85
Si -5.49 -9.68 -2.24
Si  3.67  4.27  9.86
Si 11.13 -0.04 -2.31
Si  7.45 -8.56  0.76
Si -7.46 -8.56  0.76
Si -3.78  4.27  9.86
Si 11.18 -2.10  0.76
Si  1.96  7.54 -8.33
Si  7.40 -2.19 -8.40
Si -0.01  0.05 -11.41
Si -11.19 -2.10  0.76
Si  5.69 -5.45 -8.28
Si -5.49  1.00  9.98
Si -0.05 -10.79  3.77
Si  3.72 10.81  0.76
Si -3.73 10.81  0.76
Si  5.69  9.69 -2.24
Si  1.96 -5.37  9.93
Si -11.24 -0.04 -2.31
Si -7.51 -2.19 -8.40
Si  9.42  5.31  3.89
Si  5.69  1.08  9.93
Si  5.69 -9.76 -2.19
Si -1.76 -5.45  9.98
Si -7.39  8.57 -3.04
Si -11.12  2.12 -3.04
Si -3.67 10.72  3.05
Si -11.12 -2.19  3.05
Si -3.67  6.42 -9.12
Si -7.40 -0.04 -9.12
Si -3.67  6.42  9.14
Si -7.39 -0.04  9.14
Si  3.79 10.72  3.05
Si -7.40 -8.64  3.05
Si  3.79  6.42 -9.12
Si -3.67 -6.49 -9.12
Si  3.79  6.42  9.14
Si -3.67 -6.49  9.14
Si  7.51  8.57 -3.04
Si -3.67 -10.79 -3.04
Si  7.51 -0.04 -9.12
Si  3.79 -6.49 -9.12
Si  3.79 -6.49  9.14
Si  7.51 -0.04  9.14
Si  3.79 -10.79 -3.04
Si 11.24  2.12 -3.04
Si  7.51 -8.64  3.05
Si 11.24 -2.19  3.05
Si  7.39 -6.37  6.83
Si  1.83 -9.62  6.80
Si -11.12  2.12  3.74
Si -7.39  8.58  3.74
Si  9.29  5.33 -5.28
Si -0.06 -10.68 -5.35
Si -1.90 -11.77  0.71
Si -1.90  3.18 -11.36
Si  1.83 -3.28 -11.36
Si  9.29  3.29  6.80
Si 11.12  4.39  0.74
Si -9.35 -3.16  6.80
Si -7.52 -6.37  6.83
Si  1.83  9.64  6.90
Si -3.67 -10.79  3.74
Si  7.39  6.54  6.83
Si -7.39  4.27 -8.43
Si  7.52  8.58  3.74
Si -9.35  7.48  0.81
Si  3.66  0.08 -11.43
Si  9.29  7.60  0.71
Si  9.29 -3.28  6.90
Si  3.79 -10.79  3.74
Si -1.90  9.75  6.80
Si -1.90 -3.16 -11.46
Si 11.25  2.12  3.74
Si -3.79  0.08 -11.43
Si -9.35  3.18  6.90
Si  1.83 -11.88  0.81
Si  1.83  3.29 -11.46
Si  0.06 -8.64 -8.43
Si -1.90 -9.73  6.90
Si -7.52  6.54  6.83
Si  7.52  4.27 -8.43
Si -9.35  5.45 -5.38
Si -11.25  4.39  0.74
Si  1.87 11.70 -3.10
Si  9.32  7.39  2.98
Si -11.11  4.30  3.00
Si -1.90 -0.99 -12.11
Si -11.11 -4.31 -3.09
Si -0.09 -10.72  6.06
Si  1.82 -1.11 -12.13
Si -9.36 -5.30 -6.02
Si  9.28 -5.42 -6.04
Si -0.08 -2.11 12.15
Si  9.31 -7.53 -2.98
Si -1.87 11.84 -2.98
Si  1.86 -11.83  3.11
Si -9.32  7.54  3.11
Si -0.08  2.19 -12.20
Si -9.36  5.34  6.13
Si  9.28  5.46  6.15
Si -1.90  1.04 12.22
Si -0.08 10.80 -6.11
Si 11.26  4.30  3.00
Si  1.83  1.16 12.24
Si 11.26 -4.31 -3.09
Si -9.32 -7.67 -3.10
Si -9.22  1.08 -8.33
Si -1.86 -11.97  2.98
Si -5.49  7.54 -8.33
Si -9.22 -7.53  3.85
Si  5.69  7.46 -8.28
Si -1.76 11.76  3.89
Si  7.40 -2.19  9.86
Si 11.13 -4.34  3.77
Si  3.72 -10.71 -5.32
Si -3.73 -10.71 -5.32
Si -5.49 -5.37  9.93
Si 11.18  2.20 -5.32
Si  9.42  1.00 -8.28
Si -1.76  7.46  9.98
Si -11.19  2.20 -5.32
Si -7.51 -2.19  9.86
Si  7.45  8.65 -5.32
Si  3.67 -8.64 -8.40
Si  1.96 11.84  3.85
Si -7.46  8.65 -5.32
Si -11.24 -4.34  3.77
Si  1.96  7.54  9.93
Si -3.78 -8.64 -8.40
Si  9.42 -7.60  3.89
Si  5.69 -5.45  9.98
Si  3.68 -10.69  6.02
Si  3.68 -2.08 12.10
Si -3.77 -10.69  6.02
Si 11.14 -6.39 -0.07
Si -0.04 -12.84 -0.07
Si -3.77 -2.08 12.10
Si 11.14  2.22  6.02
Si -0.04  4.37 12.10
Si  7.41 -8.54 -6.16
Si 11.14 -2.08 -6.16
Si  7.41  8.68  6.02
Si 11.14  6.53 -0.07
Si -11.23 -6.39 -0.07
Si -7.50 -8.54 -6.16
Si -11.23  2.22  6.02
Si -7.50  8.68  6.02
Si -0.04 -4.24 -12.24
Si -11.23 -2.08 -6.16
Si  3.68  2.22 -12.24
Si -0.04 12.98 -0.07
Si -11.23  6.53 -0.07
Si  3.68 10.83 -6.16
Si -3.77  2.22 -12.24
Si -3.77 10.83 -6.16
Si -7.39  4.27  9.83
Si  5.56 -11.77  0.71
Si 11.12 -4.22 -5.35
Si  5.56  3.18 -11.36
Si 11.12  0.08  6.83
Si -5.62 -9.62  6.80
Si -1.90 11.79 -5.28
Si  1.83 -1.01 12.89
Si -11.12  6.43 -2.35
Si 13.01  1.14  0.71
Si  0.06 -8.64  9.83
