500
set: 1390.00  0.00  0.00
Si  1.44 -0.03  0.34
Si  0.74 -1.25 -1.51
Si -0.05  1.66  1.60
Si -1.24  1.94 -0.39
Si -2.40 -0.03  0.34
Si -1.19 -1.47  1.84
Si -1.15 -0.91 -2.83
Si  0.67  2.85 -1.44
Si  2.60  1.94 -0.39
Si -1.15  0.38  3.30
Si  2.66 -1.47  1.84
Si -3.10 -1.25 -1.51
Si  0.77 -2.77  2.39
Si  2.70 -0.91 -2.83
Si  0.71 -3.69 -1.44
Si  2.69  0.38  3.30
Si  3.79  1.66  1.60
Si -3.17  2.85 -1.44
Si  0.73  3.76  2.39
Si -3.90  1.66  1.60
Si -0.05  0.37 -4.53
Si  0.74  2.48 -3.74
Si  0.74  0.04  4.61
Si -1.21 -4.60 -0.39
Si -3.07 -2.77  2.39
Si  4.59 -1.25 -1.51
Si -3.13 -3.69 -1.44
Si -0.01 -4.88  1.60
Si -1.18 -2.76 -4.29
Si  5.29 -0.03  0.34
Si  0.71 -2.41  4.69
Si  2.64 -4.60 -0.39
Si -3.11  3.76  2.39
Si -3.10  2.48 -3.74
Si -5.09  1.94 -0.39
Si -1.23  5.07  1.84
Si  4.52  2.85 -1.44
Si  0.70  5.29 -1.51
Si -5.03 -1.47  1.84
Si -3.11  0.04  4.61
Si  0.78 -4.06 -3.74
Si  2.66 -2.76 -4.29
Si -4.99 -0.91 -2.83
Si -1.22  3.78 -4.29
Si  4.61 -2.77  2.39
Si  3.80  0.37 -4.53
Si -3.89  0.37 -4.53
Si  2.62  5.07  1.84
Si -5.00  0.38  3.30
Si  4.55 -3.69 -1.44
Si  1.45 -1.32 -5.78
Si -3.14 -2.41  4.69
Si -6.24 -0.03  0.34
Si  0.67  4.13  4.69
Si  2.62  3.78 -4.29
Si -3.07 -4.06 -3.74
Si -3.14  5.29 -1.51
Si  4.58  3.76  2.39
Si -2.39 -1.32 -5.78
Si  3.83 -4.88  1.60
Si  4.58  2.48 -3.74
Si -1.19  5.63 -2.83
Si -3.86 -4.88  1.60
Si  4.58  0.04  4.61
Si -1.24  0.65 -6.52
Si  1.41  6.51  0.34
Si -1.25  3.22  5.73
Si -1.21 -3.32  5.73
Si  6.44  1.94 -0.39
Si  1.48 -6.57  0.34
Si  1.44  1.26  6.47
Si  2.66  5.63 -2.83
Si -5.05 -4.60 -0.39
Si  6.50 -1.47  1.84
Si -2.44  6.51  0.34
Si  4.55 -2.41  4.69
Si -2.36 -6.57  0.34
Si -3.17  4.13  4.69
Si -2.40  1.26  6.47
Si  2.60  0.65 -6.52
Si  2.59  3.22  5.73
Si -1.11 -6.16  3.30
Si  2.63 -3.32  5.73
Si  4.55  5.29 -1.51
Si -5.03 -2.76 -4.29
Si  6.54 -0.91 -2.83
Si  4.62 -4.06 -3.74
Si -6.94 -1.25 -1.51
Si  6.53  0.38  3.30
Si -5.07  5.07  1.84
Si  2.73 -6.16  3.30
Si -5.06  3.78 -4.29
Si -0.01 -6.17 -4.53
Si -7.01  2.85 -1.44
Si  4.51  4.13  4.69
Si  0.68  1.56 -7.56
Si -1.19  6.92  3.30
Si -6.92 -2.77  2.39
Si  1.41  5.22 -5.78
Si  5.29 -1.32 -5.78
Si  6.48 -4.60 -0.39
Si  7.63  1.66  1.60
Si  0.78 -7.79 -1.51
Si  0.78 -6.50  4.61
Si -6.97 -3.69 -1.44
Si -1.11 -7.45 -2.83
Si -1.19 -0.18  7.96
Si  0.70  6.58  4.61
Si -5.03  5.63 -2.83
Si -7.74  1.66  1.60
Si  0.75 -2.54 -7.64
Si  2.65  6.92  3.30
Si -2.43  5.22 -5.78
Si -0.09  6.91 -4.53
Si -6.95  3.76  2.39
Si -0.06  2.94  7.72
Si  6.50 -2.76 -4.29
Si -6.95  2.48 -3.74
Si -5.08  0.65 -6.52
Si -1.15 -8.01  1.84
Si -5.09  3.22  5.73
Si -5.05 -3.32  5.73
Si -6.95  0.04  4.61
Si -3.16  1.56 -7.56
Si -0.09  8.20  1.60
Si  5.25  6.51  0.34
Si  2.65 -0.18  7.96
Si  6.46  5.07  1.84
Si  2.73 -7.45 -2.83
Si  5.28  1.26  6.47
Si  5.33 -6.57  0.34
Si  1.48 -5.28  6.47
Si -3.06 -7.79 -1.51
Si -0.02 -3.60  7.72
Si -3.07 -6.50  4.61
Si  3.83 -6.17 -4.53
Si -4.96 -6.16  3.30
Si -3.85 -6.17 -4.53
Si -1.28  8.47 -0.39
Si -6.24 -1.32 -5.78
Si -3.10 -2.54 -7.64
Si -3.14  6.58  4.61
Si  6.47  3.78 -4.29
Si  2.69 -8.01  1.84
Si  0.71  4.00 -7.64
Si  8.43 -1.25 -1.51
Si  0.77 -1.49  8.51
Si -2.37 -5.28  6.47
Si -6.98 -2.41  4.69
Si -6.91 -4.06 -3.74
Si  2.56  8.47 -0.39
Si -1.20 -5.89 -6.52
Si  7.64  0.37 -4.53
Si -6.98  5.29 -1.51
Si  4.52  1.56 -7.56
Si  8.36  2.85 -1.44
Si -7.74  0.37 -4.53
Si -6.21 -6.57  0.34
Si -6.28  6.51  0.34
Si  6.50  5.63 -2.83
Si  3.76  6.91 -4.53
Si -6.25  1.26  6.47
Si  0.72 -4.98 -7.56
Si  3.79  2.94  7.72
Si  9.13 -0.03  0.34
Si -3.90  2.94  7.72
Si -3.93  6.91 -4.53
Si -8.93  1.94 -0.39
Si  3.75  8.20  1.60
Si -5.03  6.92  3.30
Si -3.13  4.00 -7.64
Si  2.64 -5.89 -6.52
Si -3.08 -1.49  8.51
Si -8.87 -1.47  1.84
Si  4.62 -7.79 -1.51
Si  6.45  0.65 -6.52
Si  6.44  3.22  5.73
Si  4.62 -6.50  4.61
Si  8.46 -2.77  2.39
Si  4.54  6.58  4.61
Si -3.94  8.20  1.60
Si  7.67 -4.88  1.60
Si -7.70 -4.88  1.60
Si  6.47 -3.32  5.73
Si  4.59 -2.54 -7.64
Si  8.40 -3.69 -1.44
Si -1.14 -2.19 -8.95
Si -8.83 -0.91 -2.83
Si  3.82 -3.60  7.72
Si -3.86 -3.60  7.72
Si -4.95 -7.45 -2.83
Si  5.25  5.22 -5.78
Si -7.02  4.13  4.69
Si -5.04 -0.18  7.96
Si -8.84  0.38  3.30
Si  0.64  9.38 -1.44
Si  8.42  3.76  2.39
Si  8.43  2.48 -3.74
Si -3.13 -4.98 -7.56
Si  6.57 -6.16  3.30
Si  8.43  0.04  4.61
Si  2.70 -2.19 -8.95
Si -4.99 -8.01  1.84
Si -1.16  1.67  9.42
Si  0.81 -9.31  2.39
Si  4.55  4.00 -7.64
Si  0.70  9.02 -3.74
Si -1.28  7.19 -6.52
Si  4.61 -1.49  8.51
Si  1.49 -7.86 -5.78
Si  5.32 -5.28  6.47
Si  8.39 -2.41  4.69
Si -5.13  8.47 -0.39
Si  0.73  5.05  8.51
Si  2.69  1.67  9.42
Si  0.74  1.19 -9.86
Si -6.28  5.22 -5.78
Si -3.21  9.38 -1.44
Si -1.18  4.34 -8.95
Si -8.89 -4.60 -0.39
Si  8.39  5.29 -1.51
Si  2.57  7.19 -6.52
Si -2.36 -7.86 -5.78
Si  6.50  6.92  3.30
Si -3.03 -9.31  2.39
Si -10.09 -0.03  0.34
Si  8.46 -4.06 -3.74
Si  0.74 -8.95  4.69
Si -5.04 -5.89 -6.52
Si  4.56 -4.98 -7.56
Si  1.40  7.79  6.47
Si -8.87 -2.76 -4.29
Si -3.14  9.02 -3.74
Si -1.23  6.36  7.96
Si  6.50 -0.18  7.96
Si  2.66  4.34 -8.95
Si -1.14 -9.30 -4.29
Si  6.58 -7.45 -2.83
Si  0.75 -10.23 -1.44
Si -3.12  5.05  8.51
Si -3.10  1.19 -9.86
Si -6.21 -5.28  6.47
Si -8.91  5.07  1.84
Si -2.44  7.79  6.47
Si -7.01  1.56 -7.56
Si  8.36  4.13  4.69
Si 10.29  1.94 -0.39
Si -4.99 -2.19 -8.95
Si -1.15 -6.72  7.96
Si  4.48  9.38 -1.44
Si  6.54 -8.01  1.84
Si  2.61  6.36  7.96
Si -6.91 -7.79 -1.51
Si -6.91 -6.50  4.61
Si -3.10 -8.95  4.69
Si -8.91  3.78 -4.29
Si  2.70 -9.30 -4.29
Si  0.69 10.30  2.39
Si 10.34 -1.47  1.84
Si -6.94 -2.54 -7.64
Si  6.40  8.47 -0.39
Si -6.99  6.58  4.61
Si -1.12 -4.87  9.42
Si  4.65 -9.31  2.39
Si -0.04 -0.92 -10.65
Si  2.69 -6.72  7.96
Si  4.54  9.02 -3.74
Si -1.21  2.49 -10.41
Si -3.09 -10.23 -1.44
Si -5.00  1.67  9.42
Si 10.38 -0.91 -2.83
Si  7.68 -6.17 -4.53
Si  0.73  1.32 10.74
Si -7.70 -6.17 -4.53
Si -8.87  5.63 -2.83
Si  9.14 -1.32 -5.78
Si  0.70 -1.12 10.81
Si 10.38  0.38  3.30
Si  4.57  5.05  8.51
Si  6.49 -5.89 -6.52
Si  4.59  1.19 -9.86
Si  2.72 -4.87  9.42
Si -10.79 -1.25 -1.51
Si -5.12  7.19 -6.52
Si  2.63  2.49 -10.41
Si -3.15 10.30  2.39
Si -8.93  0.65 -6.52
Si -6.92 -1.49  8.51
Si -6.98  4.00 -7.64
Si -8.90 -3.32  5.73
Si  4.59 -8.95  4.69
Si -8.94  3.22  5.73
Si  0.64  8.10 -7.56
Si  5.33 -7.86 -5.78
Si -5.02  4.34 -8.95
Si  9.09  6.51  0.34
Si -1.17 -11.14 -0.39
Si  7.60  6.91 -4.53
Si -1.18 -4.05 -10.41
Si -8.80 -6.16  3.30
Si -1.26 10.32 -4.29
Si  0.78 -5.35 -9.86
Si  7.63  2.94  7.72
Si  9.12  1.26  6.47
Si -3.11  1.32 10.74
Si  0.81 -10.60 -3.74
Si  9.17 -6.57  0.34
Si  7.60  8.20  1.60
Si  6.54 -2.19 -8.95
Si  4.59 -10.23 -1.44
Si 10.32 -4.60 -0.39
Si -10.86  2.85 -1.44
Si -3.14 -1.12 10.81
Si -7.75  2.94  7.72
Si -7.77  6.91 -4.53
Si  3.80 -0.92 -10.65
Si -10.76 -2.77  2.39
Si -3.89 -0.92 -10.65
Si -5.07  6.36  7.96
Si  8.37  1.56 -7.56
Si -4.99 -9.30 -4.29
Si -1.29  9.76  5.73
Si  5.24  7.79  6.47
Si -7.78  8.20  1.60
Si -6.97 -4.98 -7.56
Si  7.67 -3.60  7.72
Si -1.17 -9.86  5.73
Si  2.67 -11.14 -0.39
Si  2.59 10.32 -4.29
Si  2.67 -4.05 -10.41
Si -7.71 -3.60  7.72
Si  4.54 10.30  2.39
Si -10.82 -3.69 -1.44
Si -3.20  8.10 -7.56
Si  0.02 -11.42  1.60
Si 10.35 -2.76 -4.29
Si -5.00 -6.72  7.96
Si -6.20 -7.86 -5.78
Si  6.53  1.67  9.42
Si  8.47 -7.79 -1.51
Si  2.56  9.76  5.73
Si  8.39  6.58  4.61
Si  8.46 -6.50  4.61
Si  6.41  7.19 -6.52
Si -3.06 -5.35 -9.86
Si 10.30  5.07  1.84
Si -3.03 -10.60 -3.74
Si  8.44 -2.54 -7.64
Si  0.63 10.67  4.69
Si -10.80  3.76  2.39
Si -10.79  2.48 -3.74
Si -10.08 -1.32 -5.78
Si 11.48  1.66  1.60
Si  2.67 -9.86  5.73
Si -4.96 -4.87  9.42
Si -8.88  6.92  3.30
Si  0.80 -8.03  8.51
Si -10.79  0.04  4.61
Si  4.58  1.32 10.74
Si  4.54 -1.12 10.81
Si 10.31  3.78 -4.29
Si -11.58  1.66  1.60
Si -1.26 11.61  1.84
Si -6.88 -9.31  2.39
Si -7.05  9.38 -1.44
Si -5.06  2.49 -10.41
Si -8.80 -7.45 -2.83
Si  6.51  4.34 -8.95
Si  0.79 -9.08 -7.64
Si -6.29  7.79  6.47
Si -8.88 -0.18  7.96
Si  0.67 11.83 -1.51
Si  4.48  8.10 -7.56
Si  0.77 -5.22 10.74
Si  9.10  5.22 -5.78
Si -6.99  9.02 -3.74
Si -10.05 -6.57  0.34
Si  2.58 11.61  1.84
Si  8.40  4.00 -7.64
Si -10.82 -2.41  4.69
Si -10.12  6.51  0.34
Si -0.08  5.62 -10.65
Si -10.09  1.26  6.47
Si  6.46  6.36  7.96
Si -8.84 -8.01  1.84
Si -10.75 -4.06 -3.74
Si  8.45 -1.49  8.51
Si -3.04 -8.03  8.51
Si -3.21 10.67  4.69
Si -1.22 -2.03 11.86
Si -6.96  5.05  8.51
Si 10.35  5.63 -2.83
Si  0.66  5.42 10.81
Si -6.94  1.19 -9.86
Si  4.62 -5.35 -9.86
Si -10.82  5.29 -1.51
Si -3.82 -11.42  1.60
Si  6.54 -9.30 -4.29
Si  3.87 -11.42  1.60
Si  4.66 -10.60 -3.74
Si 10.29  0.65 -6.52
Si 10.28  3.22  5.73
Si -5.01 -11.14 -0.39
Si -0.10  9.48  7.72
Si -5.02 -4.05 -10.41
Si -3.06 -9.08 -7.64
Si -6.94 -8.95  4.69
Si 10.32 -3.32  5.73
Si  1.45 -2.61 -11.91
Si -5.10 10.32 -4.29
Si  6.53 -6.72  7.96
Si  2.63 -2.03 11.86
Si -3.07 -5.22 10.74
Si -3.18 11.83 -1.51
Si -8.97  8.47 -0.39
Si 11.48  0.37 -4.53
Si  8.40 -4.98 -7.56
Si  9.16 -5.28  6.47
Si -2.39 -2.61 -11.91
Si 12.27 -1.25 -1.51
Si -5.13  9.76  5.73
Si -11.58  0.37 -4.53
Si -6.94 -10.23 -1.44
Si -5.02 -9.86  5.73
Si  6.57 -4.87  9.42
Si  4.47 10.67  4.69
Si -8.89 -5.89 -6.52
Si -3.18  5.42 10.81
Si  6.47  2.49 -10.41
Si -10.86  4.13  4.69
Si 10.42 -6.16  3.30
Si  0.70  7.73 -9.86
Si -1.20  8.21  9.42
Si -1.22 12.17 -2.83
Si -1.10 -8.73 -8.95
Si  4.65 -8.03  8.51
Si 11.52 -4.88  1.60
Si 12.20  2.85 -1.44
Si  3.76  5.62 -10.65
Si  1.42  3.93 -11.91
Si  8.32  9.38 -1.44
Si -11.54 -4.88  1.60
Si -3.92  5.62 -10.65
Si -6.99 10.30  2.39
Si -1.23 -0.64 -12.64
Si  4.63 -9.08 -7.64
Si  0.02 -10.13  7.72
Si  4.51 11.83 -1.51
Si -1.25  4.51 11.86
Si -8.83 -2.19 -8.95
Si  2.62 12.17 -2.83
Si -10.12  5.22 -5.78
Si -2.43  3.93 -11.91
Si  2.65  8.21  9.42
Si  3.75  9.48  7.72
Si  4.61 -5.22 10.74
Si  2.74 -8.73 -8.95
Si -5.11 11.61  1.84
Si  8.50 -9.31  2.39
Si 12.30 -2.77  2.39
Si -3.94  9.48  7.72
Si -6.95  1.32 10.74
Si 12.24 -3.69 -1.44
Si  8.39  9.02 -3.74
Si 10.34  6.92  3.30
Si  6.43 10.32 -4.29
Si  4.51  5.42 10.81
Si  6.52 -11.14 -0.39
Si -3.14  7.73 -9.86
Si -6.99 -1.12 10.81
Si  2.61 -0.64 -12.64
Si -12.78  1.94 -0.39
Si  1.43  2.54 12.59
Si  6.51 -4.05 -10.41
Si -12.72 -1.47  1.84
Si  2.59  4.51 11.86
Si 12.97 -0.03  0.34
Si  8.41  5.05  8.51
Si -0.00 -7.46 -10.65
Si  6.40  9.76  5.73
Si -12.68 -0.91 -2.83
Si  8.43  1.19 -9.86
Si -8.85  1.67  9.42
Si  0.67 10.54 -7.64
Si 12.26  3.76  2.39
Si 10.34 -0.18  7.96
Si -5.06 -2.03 11.86
Si 12.27  2.48 -3.74
Si -10.05 -5.28  6.47
Si -2.41  2.54 12.59
Si 12.27  0.04  4.61
Si -12.68  0.38  3.30
Si 10.42 -7.45 -2.83
Si  1.37 13.05  0.34
Si -7.05  8.10 -7.56
Si  6.51 -9.86  5.73
Si  7.64 -0.92 -10.65
Si  8.43 -8.95  4.69
Si -1.08 -12.70  3.30
Si -6.91 -5.35 -9.86
