500
set: 1250.00  0.00  0.00
Si  0.81 -0.99 -0.29
Si  0.40  0.93  1.21
Si -1.59 -1.30 -1.02
Si -1.99  1.16  1.40
Si  2.05  0.50 -1.92
Si -2.86  0.87 -0.77
Si  1.68 -2.80  0.67
Si  1.17  3.07  0.65
Si  0.83  2.97 -1.79
Si -1.22  2.29 -2.65
Si  1.59  0.23  3.42
Si -1.96 -3.31  0.02
Si -1.54 -1.54 -3.33
Si  1.54 -2.19  3.21
Si  4.14  1.28 -0.69
Si -3.13 -0.06  3.20
Si  3.58  2.50  1.26
Si -3.09  2.98 -1.58
Si  2.21 -0.50 -3.98
Si -1.36  0.44 -4.42
Si  0.15 -4.67 -0.04
Si -2.22  3.76  1.77
Si -2.69 -2.35  3.44
Si  3.90  1.07  3.02
Si -0.28  4.84  1.59
Si  3.98 -3.21  0.20
Si -5.14 -0.18 -0.87
Si -0.44 -3.27  4.22
Si -3.62 -3.58  1.72
Si -0.44 -3.25 -4.41
Si  1.90 -2.81 -4.35
Si  4.13  3.37 -1.74
Si -5.28 -1.78  1.05
Si  1.08  0.71 -5.53
Si  1.08  0.71  5.57
Si  1.05  2.93 -4.82
Si -3.85  4.25  0.12
Si  0.91  5.29 -2.09
Si -3.50 -2.59 -3.82
Si  2.66 -4.45 -2.75
Si -3.79 -4.57 -1.02
Si  5.97 -0.18 -0.87
Si  4.47 -0.53 -4.04
Si -3.06  1.21  5.11
Si -2.75  3.45  4.25
Si  5.83 -1.78  1.05
Si  0.91 -5.81 -2.09
Si -5.43 -0.58  3.10
Si -5.47 -2.15 -2.61
Si  0.15  6.43 -0.04
Si -0.28 -6.26  1.59
Si  3.02 -3.17  4.76
Si  5.67 -0.58  3.10
Si  4.86  4.29  0.27
Si  0.23 -5.37  3.64
Si  4.82 -4.03 -1.77
Si -5.03  2.96 -2.93
Si  5.64 -2.15 -2.61
Si -0.97  5.48 -3.60
Si  4.21 -4.90  1.79
Si -3.25 -4.83 -3.38
Si -0.97 -5.63 -3.60
Si  0.23  5.73  3.64
Si -1.36  0.44  6.68
Si -3.06  1.21 -6.00
Si -0.72  4.34  5.29
Si  4.38  2.46  4.71
Si  1.05  2.93  6.29
Si  2.73 -5.32  3.80
Si -6.96  1.28 -0.69
Si -5.36  1.37 -4.53
Si  4.87 -1.80  4.95
Si -0.72  4.34 -5.82
Si  2.85  4.10  5.35
Si  6.08  2.96 -2.93
Si -4.39 -3.37  4.88
Si  5.74  1.37 -4.53
Si  2.73  5.79  3.80
Si -0.44 -3.25  6.70
Si  3.86  5.06 -3.90
Si  2.21 -0.50  7.12
Si  1.90 -2.81  6.75
Si -6.24  4.29  0.27
Si  2.85  4.10 -5.76
Si -3.79  6.54 -1.02
Si -0.44 -3.27 -6.89
Si -6.29 -4.03 -1.77
Si  2.66  6.66 -2.75
Si  3.02 -3.17 -6.34
Si  4.21  6.21  1.79
Si -4.97 -5.08  3.02
Si -6.64 -0.53 -4.04
Si -7.12 -3.21  0.20
Si -3.25  6.27 -3.38
Si  1.59  0.23 -7.69
Si -3.85 -6.85  0.12
Si -2.22 -7.35  1.77
Si -7.20  1.07  3.02
Si -6.98  3.37 -1.74
Si -4.94  4.29  4.55
Si -7.52  2.50  1.26
Si -1.96  7.80  0.02
Si  4.87 -1.80 -6.16
Si -1.54 -1.54  7.78
Si  4.38  2.46 -6.39
Si  1.17 -8.03  0.65
Si -2.75  3.45 -6.86
Si -6.23 -1.80  4.95
Si  3.86 -6.04 -3.90
Si -4.80  5.00 -4.47
Si  8.24  0.87 -0.77
Si -4.39 -3.37 -6.23
Si  1.54 -2.19 -7.90
Si  0.83 -8.14 -1.79
Si  4.86 -6.81  0.27
Si  4.47 -0.53  7.07
Si -4.97  6.03  3.02
Si  7.26  4.25  0.12
Si -2.69 -2.35 -7.66
Si  7.49 -3.58  1.72
Si -3.50 -2.59  7.29
Si  1.68  8.30  0.67
Si -3.13 -0.06 -7.91
Si  6.13 -5.08  3.02
Si -3.62  7.52  1.72
Si -6.72  2.46  4.71
Si -5.36  1.37  6.58
Si  7.98 -0.06  3.20
Si -0.72 -6.77  5.29
Si -6.89 -4.90  1.79
Si  7.31 -4.57 -1.02
Si  8.01  2.98 -1.58
Si  4.82  7.08 -1.77
Si  6.17  4.29  4.55
Si -3.09 -8.12 -1.58
Si  5.74  1.37  6.58
Si -1.22  2.29  8.45
Si  3.98  7.90  0.20
Si  7.61 -2.59 -3.82
Si -0.44  7.83  4.22
Si  4.13 -7.73 -1.74
Si -6.23 -1.80 -6.16
Si -0.72 -6.77 -5.82
Si  6.71 -3.37  4.88
Si -4.80 -6.10 -4.47
Si -0.44  7.86 -4.41
Si  3.90  1.07 -8.09
Si  6.13  6.03  3.02
Si -2.75 -7.66  4.25
Si  0.23 -5.37 -7.46
Si  6.31  5.00 -4.47
Si -6.24 -6.81  0.27
Si -4.94  4.29 -6.56
Si  2.85 -7.00  5.35
Si -9.05  0.50 -1.92
Si -1.22 -8.82 -2.65
Si  9.12  1.16  1.40
Si -0.97  5.48  7.50
Si  8.41 -2.35  3.44
Si  3.58 -8.61  1.26
Si  0.23  5.73 -7.46
Si  2.05  0.50  9.18
Si -0.97 -5.63  7.50
Si  2.73 -5.32 -7.31
Si -6.89  6.21  1.79
Si  2.85 -7.00 -5.76
Si  1.05 -8.18 -4.82
Si  1.90  8.30 -4.35
Si -4.94 -6.82  4.55
Si -4.80  5.00  6.63
Si -6.72  2.46 -6.39
Si  1.54  8.92  3.21
Si  8.05  1.21  5.11
Si  3.86  5.06  7.21
Si -6.29  7.08 -1.77
Si -7.25  5.06 -3.90
Si  9.52 -1.30 -1.02
Si -3.25 -4.83  7.73
Si -5.43 -0.58 -8.01
Si -6.64 -0.53  7.07
Si  2.73  5.79 -7.31
Si  9.15 -3.31  0.02
Si  3.02  7.93  4.76
Si -8.89 -0.50 -3.98
Si  6.71 -3.37 -6.23
Si -2.69  8.75  3.44
Si  8.88  3.76  1.77
Si  0.83  2.97  9.32
Si  7.86 -4.83 -3.38
Si  2.66 -4.45  8.36
Si  5.67 -0.58 -8.01
Si  6.31 -6.10 -4.47
Si  7.31  6.54 -1.02
Si -9.43 -2.80  0.67
Si -8.09 -3.17  4.76
Si -8.45 -4.45 -2.75
Si  0.40  0.93 -9.90
Si -3.50  8.52 -3.82
Si  6.17  4.29 -6.56
Si -1.99  1.16 -9.71
Si  7.26 -6.85  0.12
Si -1.59  9.81 -1.02
Si  8.35  3.45  4.25
Si -5.03 -8.14 -2.93
Si -5.03  2.96  8.17
Si  8.05  1.21 -6.00
Si -9.52  0.23  3.42
Si -4.39  7.74  4.88
Si  0.81 10.12 -0.29
Si  3.86 -6.04  7.21
Si -4.80 -6.10  6.63
Si -7.25 -6.04 -3.90
Si -1.99 -9.94  1.40
Si  9.57 -1.54 -3.33
Si -1.54  9.57 -3.33
Si  0.40 -10.18  1.21
Si  6.17 -6.82  4.55
Si -1.59 -1.30 10.09
Si -2.22  3.76 -9.34
Si -9.56 -2.19  3.21
Si -0.44  7.86  6.70
Si -5.47 -2.15  8.50
Si -10.29 -0.99 -0.29
Si  1.05 -8.18  6.29
Si  5.64 -2.15  8.50
Si -9.94  3.07  0.65
Si  6.31  5.00  6.63
Si -0.44  7.83 -6.89
Si -3.09  2.98  9.52
Si -3.25  6.27  7.73
Si  0.91  5.29  9.01
Si  9.89  2.29 -2.65
Si -6.98 -7.73 -1.74
Si -9.21 -2.81 -4.35
Si  6.08 -8.14 -2.93
Si  3.02  7.93 -6.34
Si  7.86  6.27 -3.38
Si  6.08  2.96  8.17
Si -8.37 -5.32  3.80
Si -7.12  7.90  0.20
Si -2.75 -7.66 -6.86
Si -8.25  4.10  5.35
Si -2.86 -10.24 -0.77
Si -4.94 -6.82 -6.56
Si -3.62 -3.58 -9.39
Si -0.28  4.84 -9.52
Si  4.14 -9.83 -0.69
Si  9.74  0.44 -4.42
Si  7.49  7.52  1.72
Si -8.09 -3.17 -6.34
Si  0.91 -5.81  9.01
Si -2.86  0.87 10.34
Si -5.28  9.32  1.05
Si -4.97 -5.08 -8.09
Si  3.58  2.50 -9.84
Si  4.13  3.37  9.37
Si  4.38 -8.65  4.71
Si -5.47  8.96 -2.61
Si -10.71  0.93  1.21
Si -10.28  2.97 -1.79
Si  7.61 -2.59  7.29
Si -4.39  7.74 -6.23
Si -8.37  5.79  3.80
Si  1.90  8.30  6.75
Si -8.25  4.10 -5.76
Si -7.20  1.07 -8.09
Si  0.81 -0.99 10.82
Si  5.64  8.96 -2.61
Si  1.68 -2.80 -10.43
Si  1.17  3.07 -10.46
Si  2.05 -10.61 -1.92
Si  6.31 -6.10  6.63
Si  2.66  6.66  8.36
Si  5.83  9.32  1.05
Si -8.45  6.66 -2.75
Si  3.90 -10.04  3.02
Si  7.98 -0.06 -7.91
Si -4.97  6.03 -8.09
Si  4.82 -4.03  9.33
Si  4.14  1.28 10.41
Si  6.17 -6.82 -6.56
Si  4.21 -4.90 -9.31
Si  8.35  3.45 -6.86
Si  6.71  7.74  4.88
Si  6.13 -5.08 -8.09
Si -0.28 -6.26 -9.52
Si -7.25  5.06  7.21
Si -8.89 -0.50  7.12
Si -5.14 -0.18 10.24
Si  0.81 -0.99 -11.39
Si -10.03  0.71 -5.53
Si -10.03  0.71  5.57
Si -5.28 -1.78 -10.06
Si -7.52 -8.61  1.26
Si  1.59 -10.87  3.42
Si  8.01 -8.12 -1.58
Si -10.06  2.93 -4.82
Si  2.21 10.60 -3.98
Si -3.06 -9.90  5.11
Si 11.50  0.93  1.21
Si  4.87  9.30  4.95
Si  4.38 -8.65 -6.39
Si  8.41 -2.35 -7.66
Si -1.36 -10.67 -4.42
Si  8.88 -7.35  1.77
Si -10.20  5.29 -2.09
Si -3.79 -4.57 10.09
Si -1.96 -3.31 -11.09
Si -3.50  8.52  7.29
Si -9.21 -2.81  6.75
Si  5.83 -1.78 -10.06
Si -1.96 -3.31 11.13
Si  6.13  6.03 -8.09
Si  9.74  0.44  6.68
Si  1.08 -10.40 -5.53
Si  1.08 -10.40  5.57
Si  5.97 -0.18 10.24
Si -7.25 -6.04  7.21
Si -10.95 -4.67 -0.04
Si -3.13 11.05  3.20
Si -10.20 -5.81 -2.09
Si 10.66 -3.27  4.22
Si -6.72 -8.65  4.71
Si -2.69  8.75 -7.66
Si  2.05 11.60 -1.92
Si  1.59 11.34  3.42
Si -6.29 -4.03  9.33
Si  4.21  6.21 -9.31
Si 11.92 -0.99 -0.29
Si 10.83  4.84  1.59
Si -3.06 -9.90 -6.00
Si  6.71  7.74 -6.23
Si 10.66 -3.25 -4.41
Si -5.36 -9.74 -4.53
Si  0.15 -4.67 11.06
Si  1.54  8.92 -7.90
Si  9.15  7.80  0.02
Si -3.13 -11.16  3.20
Si  7.86 -4.83  7.73
Si  7.61  8.52 -3.82
Si  3.98 -3.21 -10.91
Si -6.96 -9.83 -0.69
Si -8.25 -7.00  5.35
Si 10.14  5.48 -3.60
Si  0.15 -4.67 -11.15
Si -2.22 -7.35 -9.34
Si  0.40 12.03  1.21
Si  8.35 -7.66  4.25
Si -5.14 10.93 -0.87
Si  0.81 -12.10 -0.29
Si 10.14 -5.63 -3.60
Si -6.98  3.37  9.37
Si  4.87  9.30 -6.16
Si  4.47 10.58 -4.04
Si  5.74 -9.74 -4.53
Si 11.26 -4.67 -0.04
Si  1.17  3.07 11.75
Si -10.06  2.93  6.29
Si  1.68 -2.80 11.78
Si -9.52  0.23 -7.69
Si -6.23  9.30  4.95
Si -5.43 10.53  3.10
Si -2.86  0.87 -11.87
Si -8.25 -7.00 -5.76
Si -1.22 -8.82  8.45
Si -8.09  7.93  4.76
Si -1.59 -1.30 -12.12
Si -8.37 -5.32 -7.31
Si -2.86 11.98 -0.77
Si  5.67 10.53  3.10
Si  0.40  0.93 12.31
Si -3.85  4.25 -10.98
Si  0.83 -8.14  9.32
Si  3.98 -3.21 11.30
Si  9.57 -1.54  7.78
Si 11.93  2.97 -1.79
Si -1.54  9.57  7.78
Si -5.14 -11.28 -0.87
Si 10.39  4.34  5.29
Si -1.36 11.54 -4.42
Si  2.21 -11.61 -3.98
Si -11.39  4.84  1.59
Si  5.97 10.93 -0.87
Si -1.99 12.27  1.40
Si -8.37  5.79 -7.31
Si  7.49 -3.58 -9.39
Si -1.59 -12.41 -1.02
Si -3.62  7.52 -9.39
Si  4.14  1.28 -11.80
Si -6.89 -4.90 -9.31
Si -9.43  8.30  0.67
Si -5.03 -8.14  8.17
Si -6.96  1.28 10.41
Si -9.56 -2.19 -7.90
Si -3.85  4.25 11.23
Si 10.83 -6.26  1.59
Si -3.79  6.54 10.09
Si  8.41  8.75  3.44
Si  4.86  4.29 -10.83
Si -7.52  2.50 -9.84
Si -1.36 -10.67  6.68
Si  4.82  7.08  9.33
Si -10.88 -5.37  3.64
Si 12.27  3.07  0.65
Si 10.39  4.34 -5.82
Si  7.86  6.27  7.73
Si -6.72 -8.65 -6.39
Si -8.45 -4.45  8.36
Si -10.95  6.43 -0.04
Si -1.99  1.16 12.50
Si -7.20 -10.04  3.02
Si -11.55 -3.27  4.22
Si -6.23  9.30 -6.16
Si -11.55 -3.25 -4.41
Si  5.97 -11.28 -0.87
Si -9.94 -8.03  0.65
Si  8.01  2.98  9.52
Si  0.15  6.43 11.06
Si -12.69 -1.30 -1.02
Si -12.32  2.29 -2.65
Si -10.88  5.73  3.64
Si  4.13 -7.73  9.37
Si  0.15  6.43 -11.15
Si -3.09 -8.12  9.52
Si -9.05  0.50  9.18
Si -5.36 -9.74  6.58
Si  2.21 10.60  7.12
Si 11.26  6.43 -0.04
Si -8.09  7.93 -6.34
Si 10.66 -3.25  6.70
Si -5.14 -0.18 -11.97
Si  6.08 -8.14  8.17
Si 11.33 -5.37  3.64
Si  4.14 12.38 -0.69
Si  5.74 -9.74  6.58
Si  1.08 11.82 -5.53
Si -11.39 -6.26  1.59
Si  4.86  4.29 11.38
Si  4.47 -11.63 -4.04
Si 12.78 -2.80  0.67
Si  1.08 11.82  5.57
Si 10.66 -3.27 -6.89
Si  3.58  2.50 12.37
Si -6.64 10.58 -4.04
Si  3.90 12.17  3.02
Si -9.21  8.30 -4.35
Si -6.89  6.21 -9.31
Si 12.69  0.23  3.42
Si  8.24 -10.24 -0.77
Si -1.54 -12.64 -3.33
Si -12.65 -1.54 -3.33
Si  2.05  0.50 -13.03
Si  9.89  2.29  8.45
Si 11.33  5.73  3.64
Si -13.09  1.16  1.40
Si -6.24  4.29 -10.83
Si 12.65 -2.19  3.21
Si -10.28 -8.14 -1.79
Si -12.47  0.44 -4.42
Si  1.17 -8.03 -10.46
Si  8.35 -7.66 -6.86
Si  8.24  0.87 10.34
Si -5.43 -11.69  3.10
Si  0.83  2.97 -12.89
Si  7.31 -4.57 10.09
Si 12.01  5.29 -2.09
Si -6.29  7.08  9.33
Si 13.16  0.50 -1.92
Si  5.67 -11.69  3.10
Si -5.28 -1.78 12.15
Si  9.12  1.16 -9.71
Si  5.97 -0.18 -11.97
Si -3.09  2.98 -12.69
Si 12.15  2.93 -4.82
Si 12.19  0.71 -5.53
Si -1.36 11.54  6.68
Si  1.59 -10.87 -7.69
Si 12.19  0.71  5.57
Si -7.12 -3.21 -10.91
Si  8.88  3.76 -9.34
Si  1.68  8.30 -10.43
Si -9.56  8.92  3.21
Si  3.90 -10.04 -8.09
Si -13.07 -3.31  0.02
Si 10.39 -6.77  5.29
Si  4.47 10.58  7.07
Si -3.79 -4.57 -12.12
Si -5.47  8.96  8.50
Si 12.01 -5.81 -2.09
Si -3.85 -6.85 -10.98
Si  9.89 -8.82 -2.65
Si  7.61  8.52  7.29
Si  3.58 -8.61 -9.84
Si  9.12 -9.94  1.40
Si  5.64  8.96  8.50
Si -0.28  4.84 12.70
Si -2.22  3.76 12.88
Si  5.83 -1.78 12.15
Si -8.45  6.66  8.36
Si -11.83  4.34  5.29
