500
set: 79.00  0.00  0.00
Si  0.00  0.00  0.00
Si -1.29  1.88  0.00
Si  1.29 -1.88  0.00
Si  1.42  1.88  0.00
Si -1.42 -1.88  0.00
Si  0.24 -0.12 -2.39
Si -0.24  0.12  2.39
Si -2.72  0.00  0.00
Si  2.72  0.00  0.00
Si  1.05 -1.76  2.39
Si -1.05  1.76 -2.39
Si -1.18 -2.00 -2.39
Si  1.18  2.00  2.39
Si -1.67 -1.76  2.39
Si  1.67  1.76 -2.39
Si -2.47 -0.12 -2.39
Si  2.47  0.12  2.39
Si  1.54 -2.00 -2.39
Si -1.54  2.00  2.39
Si -0.13 -3.77  0.00
Si  0.13  3.77  0.00
Si  2.96 -0.12 -2.39
Si -2.96  0.12  2.39
Si  0.37  3.65 -2.39
Si -0.37 -3.65  2.39
Si  4.01 -1.88  0.00
Si -4.01  1.88  0.00
Si  4.14  1.88  0.00
Si -4.14 -1.88  0.00
Si -0.12  3.89  2.39
Si  0.12 -3.89 -2.39
Si  2.59 -3.77  0.00
Si -2.59  3.77  0.00
Si -2.84 -3.77  0.00
Si  2.84  3.77  0.00
Si -3.77  1.76 -2.39
Si  3.77 -1.76  2.39
Si  0.49 -0.24 -4.77
Si -0.49  0.24  4.77
Si  2.35 -3.65  2.39
Si -2.35  3.65 -2.39
Si -3.89 -2.00 -2.39
Si  3.89  2.00  2.39
Si  0.81 -1.64  4.77
Si -0.81  1.64 -4.77
Si -2.60 -3.89 -2.39
Si  2.60  3.89  2.39
Si -4.25  2.00  2.39
Si  4.25 -2.00 -2.39
Si  2.23  0.24  4.77
Si -2.23 -0.24 -4.77
Si  4.38  1.76 -2.39
Si -4.38 -1.76  2.39
Si -0.94 -2.12 -4.77
Si  0.94  2.12  4.77
Si -3.09 -3.65  2.39
Si  3.09  3.65 -2.39
Si  2.83 -3.89 -2.39
Si -2.83  3.89  2.39
Si -1.91 -1.64  4.77
Si  1.91  1.64 -4.77
Si  5.43  0.00  0.00
Si -5.43  0.00  0.00
Si -1.78  2.12  4.77
Si  1.78 -2.12 -4.77
Si  5.19  0.12  2.39
Si -5.19 -0.12 -2.39
Si  3.20 -0.24 -4.77
Si -3.20  0.24  4.77
Si -1.17  5.65  0.00
Si  1.17 -5.65  0.00
Si -1.55 -5.65  0.00
Si  1.55  5.65  0.00
Si -0.61 -3.52  4.77
Si  0.61  3.52 -4.77
Si  0.92 -5.53  2.39
Si -0.92  5.53 -2.39
Si -3.52  1.64 -4.77
Si  3.52 -1.64  4.77
Si -5.67  0.12  2.39
Si  5.67 -0.12 -2.39
Si -0.36  4.01  4.77
Si  0.36 -4.01 -4.77
Si  1.79  5.53 -2.39
Si -1.79 -5.53  2.39
Si -2.10  3.52 -4.77
Si  2.10 -3.52  4.77
Si -3.65 -2.12 -4.77
Si  3.65  2.12  4.77
Si -1.30 -5.77 -2.39
Si  1.30  5.77  2.39
Si -1.41  5.77  2.39
Si  1.41 -5.77 -2.39
Si  5.30 -3.77  0.00
Si -5.30  3.77  0.00
Si  2.36  4.01  4.77
Si -2.36 -4.01 -4.77
Si -5.06  3.65 -2.39
Si  5.06 -3.65  2.39
Si -5.56 -3.77  0.00
Si  5.56  3.77  0.00
Si -3.33 -3.52  4.77
Si  3.33  3.52 -4.77
Si -4.62 -1.64  4.77
Si  4.62  1.64 -4.77
Si -3.88  5.65  0.00
Si  3.88 -5.65  0.00
Si  4.95  0.24  4.77
Si -4.95 -0.24 -4.77
Si  4.50 -2.12 -4.77
Si -4.50  2.12  4.77
Si  3.08 -4.01 -4.77
Si -3.08  4.01  4.77
Si -6.73  1.88  0.00
Si  6.73 -1.88  0.00
Si -5.32 -3.89 -2.39
Si  5.32  3.89  2.39
Si -3.64  5.53 -2.39
Si  3.64 -5.53  2.39
Si -4.26 -5.65  0.00
Si  4.26  5.65  0.00
Si  6.85  1.88  0.00
Si -6.85 -1.88  0.00
Si  6.48 -1.76  2.39
Si -6.48  1.76 -2.39
Si  5.55 -3.89 -2.39
Si -5.55  3.89  2.39
Si -0.73  0.36  7.16
Si  0.73 -0.36 -7.16
Si -0.68  5.41 -4.77
Si  0.68 -5.41  4.77
Si  5.80  3.65 -2.39
Si -5.80 -3.65  2.39
Si  6.61  2.00  2.39
Si -6.61 -2.00 -2.39
Si  0.56 -1.52  7.16
Si -0.56  1.52 -7.16
Si  4.02  5.77  2.39
Si -4.02 -5.77 -2.39
Si  1.99  0.36  7.16
Si -1.99 -0.36 -7.16
Si  4.13 -5.77 -2.39
Si -4.13  5.77  2.39
Si  2.04  5.41 -4.77
Si -2.04 -5.41  4.77
Si -4.51 -5.53  2.39
Si  4.51  5.53 -2.39
Si  0.25  7.53  0.00
Si -0.25 -7.53  0.00
Si  0.69  2.25  7.16
Si -0.69 -2.25 -7.16
Si  5.92 -0.24 -4.77
Si -5.92  0.24  4.77
Si  2.15  1.52 -7.16
Si -2.15 -1.52  7.16
Si  6.97 -2.00 -2.39
Si -6.97  2.00  2.39
Si  4.82 -3.52  4.77
Si -4.82  3.52 -4.77
Si  1.06  5.89  4.77
Si -1.06 -5.89 -4.77
Si  7.10  1.76 -2.39
Si -7.10 -1.76  2.39
Si  1.65 -5.89 -4.77
Si -1.65  5.89  4.77
Si  2.02 -2.25 -7.16
Si -2.02  2.25  7.16
Si -0.50 -7.41  2.39
Si  0.50  7.41 -2.39
Si  2.46 -7.53  0.00
Si -2.46  7.53  0.00
Si  3.44 -0.36 -7.16
Si -3.44  0.36  7.16
Si -3.40  5.41 -4.77
Si  3.40 -5.41  4.77
Si  0.86  3.40 -7.16
Si -0.86 -3.40  7.16
Si  0.01  7.65  2.39
Si -0.01 -7.65 -2.39
Si  3.28 -1.52  7.16
Si -3.28  1.52 -7.16
Si -6.24  1.64 -4.77
Si  6.24 -1.64  4.77
Si -5.07 -4.01 -4.77
Si  5.07  4.01  4.77
Si -2.22  7.41 -2.39
Si  2.22 -7.41  2.39
Si -2.97 -7.53  0.00
Si  2.97  7.53  0.00
Si  1.86 -3.40  7.16
Si -1.86  3.40 -7.16
Si  8.15  0.00  0.00
Si -8.15  0.00  0.00
Si -6.37 -2.12 -4.77
Si  6.37  2.12  4.77
Si -3.41 -2.25 -7.16
Si  3.41  2.25  7.16
Si -7.91 -0.12 -2.39
Si  7.91  0.12  2.39
Si  0.60 -4.13 -7.16
Si -0.60  4.13  7.16
Si -3.21 -7.41  2.39
Si  3.21  7.41 -2.39
Si  2.71 -7.65 -2.39
Si -2.71  7.65  2.39
Si -2.73 -7.65 -2.39
Si  2.73  7.65  2.39
Si  3.78  5.89  4.77
Si -3.78 -5.89 -4.77
Si  6.04  3.52 -4.77
Si -6.04 -3.52  4.77
Si  5.79 -4.01 -4.77
Si -5.79  4.01  4.77
Si -2.11 -4.13 -7.16
Si  2.11  4.13  7.16
Si -4.70 -0.36 -7.16
Si  4.70  0.36  7.16
Si -4.75 -5.41  4.77
Si  4.75  5.41 -4.77
Si  6.60 -5.65  0.00
Si -6.60  5.65  0.00
Si  3.57  3.40 -7.16
Si -3.57 -3.40  7.16
Si -8.39  0.12  2.39
Si  8.39 -0.12 -2.39
Si -0.74 -7.29  4.77
Si  0.74  7.29 -4.77
Si  4.37 -5.89 -4.77
Si -4.37  5.89  4.77
Si  6.36 -5.53  2.39
Si -6.36  5.53 -2.39
Si -4.87 -1.52  7.16
Si  4.87  1.52 -7.16
Si  8.02 -3.77  0.00
Si -8.02  3.77  0.00
Si  4.74 -2.25 -7.16
Si -4.74  2.25  7.16
Si  3.32 -4.13 -7.16
Si -3.32  4.13  7.16
Si -7.21  2.12  4.77
Si  7.21 -2.12 -4.77
Si  7.34  1.64 -4.77
Si -7.34 -1.64  4.77
Si  0.44 -5.29  7.16
Si -0.44  5.29 -7.16
Si  7.78 -3.65  2.39
Si -7.78  3.65 -2.39
Si -1.98  7.29 -4.77
Si  1.98 -7.29  4.77
Si -6.98 -5.65  0.00
Si  6.98  5.65  0.00
Si -7.66 -0.24 -4.77
Si  7.66  0.24  4.77
Si -8.28 -3.77  0.00
Si  8.28  3.77  0.00
Si  0.23 -7.77 -4.77
Si -0.23  7.77  4.77
Si -5.18  7.53  0.00
Si  5.18 -7.53  0.00
Si -4.58  3.40 -7.16
Si  4.58 -3.40  7.16
Si -6.74 -5.77 -2.39
Si  6.74  5.77  2.39
Si  2.28  5.29 -7.16
Si -2.28 -5.29  7.16
Si -4.93  7.41 -2.39
Si  4.93 -7.41  2.39
Si -8.03 -3.89 -2.39
Si  8.03  3.89  2.39
Si  6.84 -5.77 -2.39
Si -6.84  5.77  2.39
Si -3.46 -7.29  4.77
Si  3.46  7.29 -4.77
Si -0.82 -6.01 -7.16
Si  0.82  6.01  7.16
Si -7.22 -5.53  2.39
Si  7.22  5.53 -2.39
Si  5.69  7.53  0.00
Si -5.69 -7.53  0.00
Si  8.26 -3.89 -2.39
Si -8.26  3.89  2.39
Si  3.15 -5.29  7.16
Si -3.15  5.29 -7.16
Si -6.16  0.36  7.16
Si  6.16 -0.36 -7.16
Si -2.48 -7.77 -4.77
Si  2.48  7.77  4.77
Si  6.11 -5.41  4.77
Si -6.11  5.41 -4.77
Si -6.00  1.52 -7.16
Si  6.00 -1.52  7.16
Si  1.04 -9.41  0.00
Si -1.04  9.41  0.00
Si -1.90  6.01  7.16
Si  1.90 -6.01 -7.16
Si -1.68 -9.41  0.00
Si  1.68  9.41  0.00
Si  8.52  3.65 -2.39
Si -8.52 -3.65  2.39
Si  4.83  4.13  7.16
Si -4.83 -4.13 -7.16
Si -2.95  7.77  4.77
Si  2.95 -7.77 -4.77
Si  7.54 -3.52  4.77
Si -7.54  3.52 -4.77
Si  0.97 -0.48 -9.55
Si -0.97  0.48  9.55
Si -0.80  9.29 -2.39
Si  0.80 -9.29  2.39
Si  9.44 -1.88  0.00
Si -9.44  1.88  0.00
Si -0.32  1.40 -9.55
Si  0.32 -1.40  9.55
Si  9.20 -1.76  2.39
Si -9.20  1.76 -2.39
Si  5.42 -7.65 -2.39
Si -5.42  7.65  2.39
Si -6.12 -2.25 -7.16
Si  6.12  2.25  7.16
Si -5.44 -7.65 -2.39
Si  5.44  7.65  2.39
Si  1.74  0.48  9.55
Si -1.74 -0.48 -9.55
Si -9.57 -1.88  0.00
Si  9.57  1.88  0.00
Si  1.92  9.29 -2.39
Si -1.92 -9.29  2.39
Si -5.93 -7.41  2.39
Si  5.93  7.41 -2.39
Si  9.33  2.00  2.39
Si -9.33 -2.00 -2.39
Si  0.45  2.37  9.55
Si -0.45 -2.37 -9.55
Si -8.63  0.24  4.77
Si  8.63 -0.24 -4.77
Si  4.69 -7.29  4.77
Si -4.69  7.29 -4.77
Si  1.28 -9.53 -2.39
Si -1.28  9.53  2.39
Si -1.43 -9.53 -2.39
Si  1.43  9.53  2.39
Si  2.39  1.40 -9.55
Si -2.39 -1.40  9.55
Si -7.79 -4.01 -4.77
Si  7.79  4.01  4.77
Si  6.49  5.89  4.77
Si -6.49 -5.89 -4.77
Si  3.54  6.01  7.16
Si -3.54 -6.01 -7.16
Si  2.27 -2.37 -9.55
Si -2.27  2.37  9.55
Si -3.04  1.40 -9.55
Si  3.04 -1.40  9.55
Si  6.29  3.40 -7.16
Si -6.29 -3.40  7.16
Si  3.76 -9.41  0.00
Si -3.76  9.41  0.00
Si -1.10 -3.28  9.55
Si  1.10  3.28 -9.55
Si  9.69 -2.00 -2.39
Si -9.69  2.00  2.39
Si  0.98  7.17 -7.16
Si -0.98 -7.17  7.16
Si  4.99  5.29 -7.16
Si -4.99 -5.29  7.16
Si -3.51  9.29 -2.39
Si  3.51 -9.29  2.39
Si  1.62 -3.28  9.55
Si -1.62  3.28 -9.55
Si -6.03  4.13  7.16
Si  6.03 -4.13 -7.16
Si  3.69 -0.48 -9.55
Si -3.69  0.48  9.55
Si -9.81 -1.76  2.39
Si  9.81  1.76 -2.39
Si -1.73  7.17 -7.16
Si  1.73 -7.17  7.16
Si  8.96 -1.64  4.77
Si -8.96  1.64 -4.77
Si -7.42 -0.36 -7.16
Si  7.42  0.36  7.16
Si  3.17  2.37  9.55
Si -3.17 -2.37 -9.55
Si  0.55 -9.17  4.77
Si -0.55  9.17 -4.77
Si -7.09  5.89  4.77
Si  7.09 -5.89 -4.77
Si -7.47 -5.41  4.77
Si  7.47  5.41 -4.77
Si  4.39  9.41  0.00
Si -4.39 -9.41  0.00
Si  4.61 -6.01 -7.16
Si -4.61  6.01  7.16
Si -9.08 -2.12 -4.77
Si  9.08  2.12  4.77
Si  0.84 -4.25 -9.55
Si -0.84  4.25  9.55
Si -5.20 -7.77 -4.77
Si  5.20  7.77  4.77
Si -7.58 -1.52  7.16
Si  7.58  1.52 -7.16
Si -8.51  4.01  4.77
Si  8.51 -4.01 -4.77
Si -4.46 -0.48 -9.55
Si  4.46  0.48  9.55
Si  2.16  9.17 -4.77
Si -2.16 -9.17  4.77
Si  7.46 -2.25 -7.16
Si -7.46  2.25  7.16
Si -8.76 -3.52  4.77
Si  8.76  3.52 -4.77
Si -4.00  9.53  2.39
Si  4.00 -9.53 -2.39
Si  1.87  4.25  9.55
Si -1.87 -4.25 -9.55
Si  4.63  9.29 -2.39
Si -4.63 -9.29  2.39
Si -5.87  5.29 -7.16
Si  5.87 -5.29  7.16
Si  0.47 -7.89 -7.16
Si -0.47  7.89  7.16
Si  4.15  9.53  2.39
Si -4.15 -9.53 -2.39
Si -6.17 -7.29  4.77
Si  6.17  7.29 -4.77
Si  5.66 -7.77 -4.77
Si -5.66  7.77  4.77
Si -7.29  3.40 -7.16
Si  7.29 -3.40  7.16
Si -3.70 -7.17  7.16
Si  3.70  7.17 -7.16
Si -3.81 -3.28  9.55
Si  3.81  3.28 -9.55
Si -1.19 -9.65 -4.77
Si  1.19  9.65  4.77
Si -3.27  9.17 -4.77
Si  3.27 -9.17  4.77
Si  0.20 -5.17  9.55
Si -0.20  5.17 -9.55
Si 10.86  0.00  0.00
Si -10.86  0.00  0.00
Si  1.53 -9.65 -4.77
Si -1.53  9.65  4.77
Si -10.62 -0.12 -2.39
Si 10.62  0.12  2.39
Si  9.07 -5.53  2.39
Si -9.07  5.53 -2.39
Si  2.24  7.89  7.16
Si -2.24 -7.89 -7.16
Si  9.31 -5.65  0.00
Si -9.31  5.65  0.00
Si -7.89  7.53  0.00
Si  7.89 -7.53  0.00
Si  7.65 -7.41  2.39
Si -7.65  7.41 -2.39
Si  5.11  1.40 -9.55
Si -5.11 -1.40  9.55
Si  4.33 -3.28  9.55
Si -4.33  3.28 -9.55
Si -4.98  2.37  9.55
Si  4.98 -2.37 -9.55
Si -3.56  4.25  9.55
Si  3.56 -4.25 -9.55
Si -4.45  7.17 -7.16
Si  4.45 -7.17  7.16
Si -3.19  7.89  7.16
Si  3.19 -7.89 -7.16
Si -2.52 -5.17  9.55
Si  2.52  5.17 -9.55
Si  7.55  4.13  7.16
Si -7.55 -4.13 -7.16
Si -9.93  2.12  4.77
Si  9.93 -2.12 -4.77
Si -9.70 -5.65  0.00
Si  9.70  5.65  0.00
Si  5.75 -1.40  9.55
Si -5.75  1.40 -9.55
Si  2.91 -5.17  9.55
Si -2.91  5.17 -9.55
Si -6.25 -6.01 -7.16
Si  6.25  6.01  7.16
Si -10.06 -1.64  4.77
Si 10.06  1.64 -4.77
Si -8.40 -7.53  0.00
Si  8.40  7.53  0.00
Si  0.38 11.30  0.00
Si -0.38 -11.30  0.00
Si -9.45 -5.77 -2.39
Si  9.45  5.77  2.39
Si  0.58  6.13  9.55
Si -0.58 -6.13 -9.55
Si -11.11  0.12  2.39
Si 11.11 -0.12 -2.39
Si -10.49  3.65 -2.39
Si 10.49 -3.65  2.39
Si -10.74  3.77  0.00
Si 10.74 -3.77  0.00
Si  8.71 -1.52  7.16
Si -8.71  1.52 -7.16
Si -8.83  5.41 -4.77
