500
set: 762.00  0.00  0.00
Si -0.47  1.23 -0.77
Si  0.39 -1.24  0.84
Si  1.29  1.13  0.81
Si -1.29 -1.08 -0.89
Si  0.84  0.05 -2.40
Si -2.20  1.13  0.84
Si -0.81  0.02  2.54
Si  2.21 -1.23 -0.91
Si  3.08  1.14 -0.80
Si  0.03  2.34  2.51
Si -0.02 -2.39 -2.49
Si -3.14 -1.21  0.81
Si  2.72  0.03  2.50
Si -2.71  0.08 -2.54
Si -0.56 -3.65  0.81
Si  1.75 -2.43  2.38
Si  0.56  3.69 -0.89
Si -1.69  2.44 -2.46
Si -1.29  3.57  0.81
Si  1.83  2.38 -2.49
Si  1.24 -3.64 -0.80
Si -1.82 -2.44  2.51
Si -0.90 -0.04 -4.12
Si  3.97 -1.21  0.81
Si  0.91 -0.01  4.14
Si -4.02  1.14 -0.80
Si  2.24  3.54  0.84
Si -2.32 -3.55 -0.77
Si  0.11  2.41 -4.09
Si -3.04  3.55 -0.91
Si  3.06 -3.64  0.84
Si -0.08 -2.35  4.23
Si -3.51  2.35  2.38
Si -3.54 -2.33 -2.46
Si  3.59  2.35  2.38
Si -2.60  0.05  4.17
Si  3.57 -2.33 -2.46
Si  2.66 -0.04 -4.24
Si -1.74 -2.37 -4.09
Si -4.38  0.03  2.50
Si  4.40  0.08 -2.54
Si  1.79 -2.36 -4.13
Si -1.78  2.46  4.09
Si  4.91  1.13  0.84
Si -4.89 -1.23 -0.91
Si  1.77  2.43  4.23
Si -1.01 -4.73 -2.40
Si  0.88 -4.75  2.50
Si  4.06  3.55 -0.91
Si -4.04 -3.64  0.84
Si  1.04  4.79  2.54
Si -0.86  4.86 -2.54
Si  3.48 -2.31  4.09
Si -0.36  1.30  5.74
Si -3.46  2.42 -4.13
Si  2.55 -4.70 -2.54
Si -3.62 -2.31  4.09
Si  0.36 -1.25 -5.81
Si -2.53  4.80  2.50
Si -5.81  1.13  0.81
Si  5.81 -1.08 -0.89
Si -0.35  5.91  0.84
Si  4.79 -3.55 -0.77
Si -2.65 -4.76  2.54
Si  3.64  2.42 -4.13
Si  2.68  4.82 -2.40
Si  1.31  1.15 -5.79
Si -4.87  3.54  0.84
Si  0.37 -6.01 -0.91
Si -1.39 -1.16  5.86
Si  4.50  0.05  4.17
Si -4.44 -0.04 -4.24
Si  1.37  6.00 -0.77
Si -1.46 -6.02  0.84
Si -5.28  2.38 -2.49
Si -2.22  1.19 -5.81
Si  5.29 -2.44  2.51
Si  2.17 -1.25  5.83
Si  0.94  4.73 -4.12
Si -5.36 -2.43  2.38
Si -2.17  5.92 -0.80
Si -0.93 -4.78  4.14
Si  2.12 -5.98  0.81
Si -0.76  4.83  4.17
Si  5.42  2.44 -2.46
Si  0.82 -4.82 -4.24
Si  3.15  1.16  5.72
Si -3.13 -1.25 -5.79
Si -3.14 -5.86 -0.89
Si -6.27  0.05 -2.40
Si  3.14  5.91  0.81
Si  6.63  1.23 -0.77
Si  6.30  0.02  2.54
Si  2.65 -4.73  4.17
Si -0.54 -3.62 -5.79
Si -2.60  4.74 -4.24
Si  5.81  3.57  0.81
Si -6.71 -1.24  0.84
Si  1.30 -3.62  5.72
Si  2.76  4.77  4.14
Si -1.28  3.52 -5.79
Si  0.46  3.61  5.86
Si -2.75 -4.82 -4.12
Si -5.87 -3.64 -0.80
Si -4.42  4.82 -2.40
Si  4.45 -4.76  2.54
Si -4.55 -4.70 -2.54
Si -3.96  1.16  5.72
Si -2.21 -3.48  5.74
Si  4.57  4.80  2.50
Si -5.31 -2.36 -4.13
Si  3.97 -1.25 -5.79
Si  3.97 -5.86 -0.89
Si  2.21  3.52 -5.81
Si  5.37 -2.37 -4.09
Si  5.33  2.46  4.09
Si -3.97  5.91  0.81
Si -5.33  2.43  4.23
Si  6.20 -0.04 -4.12
Si -6.19 -0.01  4.14
Si  3.04 -3.59 -5.81
Si -3.09  3.52  5.83
Si  6.55 -3.65  0.81
Si  0.38 -1.26  7.44
Si -6.55  3.69 -0.89
Si -0.10 -7.21  2.38
Si -1.40 -1.16 -7.39
Si  0.16  7.22 -2.46
Si -0.38  1.31 -7.51
Si  7.50 -1.24  0.84
Si -4.34  4.77  4.14
Si  1.32  1.15  7.47
Si  4.88  1.19 -5.81
Si  4.35 -4.82 -4.12
Si -1.66  7.12  2.38
Si -7.58  1.23 -0.77
Si -4.45 -4.73  4.17
Si  1.72 -7.11 -2.46
Si -4.93 -1.25  5.83
Si  4.93  5.92 -0.80
Si  1.87  7.12  2.51
Si  4.51  4.74 -4.24
Si -1.86 -7.17 -2.49
Si -4.98 -5.98  0.81
Si  2.15 -1.24 -7.43
Si -2.21  1.18  7.44
Si -7.08  2.34  2.51
Si  7.08 -2.39 -2.49
Si  4.01  3.52  5.83
Si -7.12 -2.39 -2.49
Si  7.13  2.34  2.51
Si -4.07 -3.59 -5.81
Si  6.10 -4.73 -2.40
Si -6.06  4.79  2.54
Si -3.11 -1.26  7.47
Si -6.22 -4.75  2.50
Si  3.13  1.16 -7.54
Si  0.44  3.62 -7.39
Si -0.05 -7.13 -4.13
Si  5.72 -1.16  5.86
Si -5.80  1.15 -5.79
Si  5.65 -6.02  0.84
Si  7.94  0.05 -2.40
Si  6.24  4.86 -2.54
Si -7.91  0.02  2.54
Si  4.90 -3.48  5.74
Si  0.07  7.24  4.09
Si -3.43  7.16 -2.49
Si -0.52 -3.63  7.47
Si -0.38  5.96 -5.81
Si -5.73  6.00 -0.77
Si  1.64 -7.09  4.09
Si -1.27  3.52  7.47
Si  3.44 -7.21  2.51
Si -4.90  3.52 -5.81
Si  0.32 -6.03  5.83
Si  0.56  8.35  0.81
Si  3.67  7.16 -2.49
Si -1.62  7.20 -4.13
Si -7.00  2.41 -4.09
Si  1.28 -3.62 -7.54
Si -1.20  8.32 -0.91
Si -3.66 -7.21  2.51
Si -0.61 -8.41 -0.80
Si  1.49  6.08  5.74
Si  1.95  7.19 -4.09
Si -1.92 -7.12  4.23
Si -2.11  5.93  5.72
Si -1.49 -6.03 -5.81
Si  8.39  1.13  0.81
Si -8.39 -1.08 -0.89
Si -7.66 -3.65  0.81
Si  2.22  3.52  7.44
Si  7.03 -2.35  4.23
Si  7.66  3.69 -0.89
Si  1.21 -8.42  0.84
Si  3.99 -1.26  7.47
Si -2.22 -3.47 -7.51
Si -3.97  1.16 -7.54
Si  2.13 -6.03 -5.79
Si  7.21  2.41 -4.09
Si -7.18 -2.35  4.23
Si -3.10  3.53 -7.43
Si -6.16  4.73 -4.12
Si -2.40 -8.42  0.81
Si  3.05 -3.60  7.44
Si  6.17 -4.78  4.14
Si  2.40  8.47 -0.89
Si  2.94 -8.32 -0.77
Si  3.15  5.93 -5.79
Si -3.02  8.31  0.84
Si -5.80 -3.62  5.72
Si  5.82  3.52 -5.79
Si -3.23 -5.94  5.86
Si  6.74  1.30  5.74
Si  3.52 -7.14 -4.09
Si -3.58 -7.14 -4.09
Si -6.29 -4.82 -4.24
Si  4.90  1.18  7.44
Si -6.74 -1.25 -5.81
Si  6.35  4.83  4.17
Si -8.01 -0.04 -4.12
Si -4.95 -1.24 -7.43
Si  6.75  5.91  0.84
Si  8.02 -0.01  4.14
Si -3.49  7.21  4.23
Si -6.73 -6.01 -0.91
Si  3.62  7.21  4.23
Si  8.34 -3.64 -0.80
Si  4.00  3.53 -7.43
Si  0.90 -0.00 -9.11
Si -8.39  3.57  0.81
Si -0.89 -0.05  9.13
Si -3.95  5.93 -5.79
Si -5.23  7.12  2.51
Si  3.87 -5.94  5.86
Si -4.05 -3.60  7.44
Si  5.24 -7.17 -2.49
Si -5.38 -7.11 -2.46
Si  5.44  7.12  2.38
Si  4.08  8.31  0.84
Si -0.09 -2.34 -9.02
Si -4.16 -8.32 -0.77
Si  2.68 -0.05  9.01
Si  5.70 -1.16 -7.39
Si -9.30  1.13  0.84
Si  9.32 -1.23 -0.91
Si -8.79  2.44 -2.46
Si -2.62  0.06 -9.09
Si  6.56 -3.62 -5.79
Si  0.12  2.40  9.16
Si  8.85 -2.43  2.38
Si -7.46  1.30  5.74
Si  1.75  2.44 -9.02
Si -5.78  1.15  7.47
Si -0.36  5.95  7.44
Si  7.46 -1.25 -5.81
Si -7.46  5.91  0.84
Si  0.31 -6.02 -7.43
Si -6.64  3.61  5.86
Si -4.88  3.52  7.44
Si  8.93  2.38 -2.49
Si -8.92 -2.44  2.51
Si  1.81 -2.37  9.12
Si  4.88 -3.47 -7.51
Si  7.98 -4.75  2.50
Si -1.72 -2.37  9.16
Si  7.47 -6.01 -0.91
Si  4.99  5.93  5.72
Si -1.79  2.47 -9.16
Si -7.96  4.86 -2.54
Si  4.70 -8.42  0.81
Si -8.11 -4.73 -2.40
Si -1.47 -6.04  7.44
Si -4.97 -6.03 -5.79
Si -4.70  8.47 -0.89
Si -5.15  7.19 -4.09
Si  5.18 -7.12  4.23
Si  1.47  6.08 -7.51
Si  8.14  4.79  2.54
Si -2.13  5.94 -7.54
Si  0.70 -9.47 -2.54
Si  2.15 -6.04  7.47
Si -5.47 -7.09  4.09
Si -0.97 -9.53  2.50
Si -0.69  9.58  2.50
Si  5.49  7.20 -4.13
Si  0.98  9.63 -2.54
Si -3.25 -5.93 -7.39
Si  9.34  3.54  0.84
Si -8.84 -2.37 -4.09
Si -4.42 -0.05  9.01
Si  3.17  5.92  7.47
Si -3.45  2.41  9.12
Si  3.46 -2.31 -9.16
Si -5.62  6.08  5.74
Si -8.88  2.46  4.09
Si  5.62 -6.03 -5.81
Si  8.90 -2.36 -4.13
Si -9.42 -3.55 -0.77
Si  5.84  3.52  7.47
Si -6.73 -1.26  7.44
Si  3.66  2.41  9.12
Si -7.86  4.83  4.17
Si -3.64 -2.31 -9.16
Si  8.87  2.43  4.23
Si  4.48  0.06 -9.09
Si -9.81  0.08 -2.54
Si  0.56  8.30 -5.79
Si  9.83  0.03  2.50
Si  6.73  1.31 -7.51
Si -0.55 -8.40  5.72
Si -5.82 -3.62 -7.54
Si  7.92 -4.82 -4.24
Si  8.05  4.73 -4.12
Si  2.60 -9.54  2.54
Si -2.85 -9.51 -2.40
Si -1.24  8.30  5.83
Si -2.57  9.60 -2.40
Si  7.56  3.61  5.86
Si -8.04 -4.78  4.14
Si  3.85 -5.93 -7.39
Si  5.91  8.32 -0.91
Si -7.64 -3.62 -5.79
Si  0.83 -4.82  9.01
Si  1.19 -8.37 -5.81
Si  8.41  1.15 -5.79
Si 10.19  1.14 -0.80
Si -5.89 -8.42  0.84
Si -3.94  5.92  7.47
Si  2.88  9.57  2.54
Si -6.95  7.22 -2.46
Si -0.77  4.83 -9.09
Si  0.96  4.73  9.13
Si  7.00 -7.21  2.38
Si -0.95 -4.78 -9.11
Si -10.24 -1.21  0.81
Si -8.49 -1.16  5.86
Si  0.81 -9.50  4.17
Si  8.48  6.00 -0.77
Si -0.75  9.51 -4.24
Si -7.20 -7.21  2.38
Si -2.39 -8.40 -5.79
Si  2.31  8.39  5.86
Si -8.56 -6.02  0.84
Si -2.58  4.73  9.01
Si  3.05 -8.25  5.74
Si  1.09  9.60  4.17
Si  7.26  7.22 -2.46
Si -1.03 -9.59 -4.24
Si -9.71  0.05  4.17
Si  2.64 -4.72 -9.09
Si -3.05  8.30 -5.81
Si -6.66  3.62 -7.39
Si  6.58 -3.63  7.47
Si  7.48 -1.26  7.44
Si -6.55  8.35  0.81
Si  9.77 -0.04 -4.24
Si  2.74  4.78 -9.11
Si  6.50 -8.41 -0.80
Si -7.48  1.31 -7.51
Si -2.73 -4.83  9.13
Si  4.25 -9.51 -2.40
Si -2.50  9.55  4.14
Si  6.73  5.96 -5.81
Si -0.33 10.69 -0.80
Si  2.79  9.51 -4.12
Si  2.51 -9.60 -4.12
Si -0.82  0.03 -10.72
Si -4.22  9.57  2.54
Si -5.35  2.44 -9.02
Si -8.39  3.52 -5.79
Si -6.78 -6.03  5.83
Si -2.78 -9.56  4.14
Si -10.15  3.55 -0.91
Si  8.40 -3.62  5.72
Si  0.28 -10.76  0.81
Si -4.96 -6.04  7.47
Si  4.98  5.94 -7.54
Si -5.29 -2.37  9.12
Si  1.49 10.69  0.84
Si 10.16 -3.64  0.84
Si -4.05 -8.25  5.74
Si -4.50 -9.54  2.54
Si  7.05 -7.13 -4.13
Si  5.31  2.47 -9.16
Si  4.53  9.60 -2.40
Si  2.12 -10.64 -0.89
Si  5.38 -2.37  9.16
Si  0.85  0.04 10.86
Si -7.03  7.24  4.09
Si  4.05  8.30 -5.81
Si -7.16 -7.13 -4.13
Si -1.48 -10.78 -0.91
Si -2.12 10.69  0.81
Si  7.17  7.24  4.09
Si  0.01  2.35 -10.75
Si  9.27 -1.25  5.83
Si -6.21 -0.00 -9.11
Si  9.22 -5.98  0.81
Si  9.65 -4.70 -2.54
Si -0.00 -2.40 10.77
Si -9.28  5.92 -0.80
Si  6.22 -0.05  9.13
Si -2.69  0.07 10.72
Si -9.33  1.19 -5.81
Si -9.64  4.80  2.50
Si  2.71  0.03 -10.76
Si  5.63 -6.04  7.44
Si -10.61  2.35  2.38
Si  4.53  4.73  9.01
Si -9.76 -4.76  2.54
Si -10.64 -2.33 -2.46
Si 11.07 -1.21  0.81
Si  7.55  3.62 -7.39
Si -4.47 -4.72 -9.09
Si -1.83 -2.43 -10.75
Si  9.79  4.82 -2.40
Si -4.36  4.78 -9.11
Si  0.58  8.29  7.47
Si  1.84  2.38 10.77
Si -5.63  6.08 -7.51
Si -1.67  2.43 10.80
Si -7.48  5.96 -5.81
Si 10.67 -2.33 -2.46
Si  7.43 -6.03  5.83
Si 10.70  2.35  2.38
Si -11.12  1.14 -0.80
Si -1.26  8.31 -7.43
Si  4.37 -4.83  9.13
Si -4.32  9.51 -4.12
Si  4.72 -8.40 -5.79
Si  1.21 -8.38  7.44
Si  1.73 -2.42 -10.87
Si -7.63 -3.63  7.47
Si  3.22 10.78 -0.77
Si  4.33 -9.56  4.14
Si -0.56 -8.39 -7.54
Si -4.80  8.39  5.86
Si  8.43  1.15  7.47
Si -3.30 -10.79  0.84
Si -8.51 -1.16 -7.39
Si  7.66  8.35  0.81
Si  4.61  9.55  4.14
Si -4.60 -9.60 -4.12
Si  2.29  8.40 -7.39
Si -7.71 -8.41 -0.80
Si  3.80 -10.79  0.84
Si -9.31 -3.48  5.74
Si -3.88 10.78 -0.77
Si -2.37 -8.41  7.47
Si  9.31  3.52 -5.81
Si -8.77  7.12  2.38
Si -3.04  8.29  7.44
Si  3.04 -8.25 -7.51
Si 10.59 -2.31  4.09
Si -0.04 -7.14  9.12
Si  4.41  0.07 10.72
Si -3.52 -2.34 10.80
Si -9.70  4.74 -4.24
Si  8.83 -7.11 -2.46
Si -10.57  2.42 -4.13
Si  6.14 -9.53  2.50
Si  3.58 -2.34 10.80
Si  9.76 -4.73  4.17
Si -4.40  0.03 -10.76
Si -1.94 -7.12 -9.02
Si  7.01 -2.34 -9.02
Si -3.53  2.35 -10.87
Si  6.74  5.95  7.44
Si  3.58  2.35 -10.87
Si  0.05  7.25 -9.16
Si -6.12  9.63 -2.54
Si  1.62 -7.08 -9.16
Si -10.73 -2.31  4.09
Si -6.40 -9.47 -2.54
Si  9.86  4.77  4.14
Si  5.86  8.30  5.83
Si -9.85 -4.82 -4.12
Si -1.60  7.19  9.12
Si  8.98  7.12  2.51
Si -6.80 -6.02 -7.43
Si -8.97 -7.17 -2.49
Si 11.16  3.55 -0.91
Si -11.48  0.03  2.50
Si -8.37  3.52  7.47
Si -11.15 -3.64  0.84
Si 10.74  2.42 -4.13
Si -6.98  2.40  9.16
Si 11.50  0.08 -2.54
Si -7.20 -2.34 -9.02
Si -4.98 -10.64 -0.89
Si -5.91 -8.37 -5.81
Si  1.02  4.80 -10.72
Si  0.86 -4.74 -10.76
Si -8.30  8.32 -0.91
Si 10.25  1.16  5.72
Si -0.84  4.85 10.72
Si  6.42  9.58  2.50
Si  1.97  7.18  9.16
