500
set: 76.00  0.00  0.00
Si  0.00  0.00  0.00
Si  0.97  2.18  0.00
Si -0.97 -2.18  0.00
Si -2.40  0.00  0.00
Si  2.40  0.00  0.00
Si  0.01  0.11 -2.42
Si -0.01 -0.11  2.42
Si  1.43 -2.18  0.00
Si -1.43  2.18  0.00
Si  0.97  2.08  2.42
Si -0.97 -2.08 -2.42
Si  2.39 -0.11  2.42
Si -2.39  0.11 -2.42
Si -2.40 -0.11  2.42
Si  2.40  0.11 -2.42
Si  0.98  2.29 -2.42
Si -0.98 -2.29  2.42
Si  1.43 -2.08 -2.42
Si -1.43  2.08  2.42
Si -1.42  2.29 -2.42
Si  1.42 -2.29  2.42
Si  3.37  2.18  0.00
Si -3.37 -2.18  0.00
Si -0.45  4.37  0.00
Si  0.45 -4.37  0.00
Si -3.82  2.18  0.00
Si  3.82 -2.18  0.00
Si -3.36 -2.08 -2.42
Si  3.36  2.08  2.42
Si  3.37  2.29 -2.42
Si -3.37 -2.29  2.42
Si  1.94  4.37  0.00
Si -1.94 -4.37  0.00
Si -4.79  0.00  0.00
Si  4.79  0.00  0.00
Si -0.01 -0.21  4.83
Si  0.01  0.21 -4.83
Si -0.46  4.26  2.42
Si  0.46 -4.26 -2.42
Si -3.83  2.08  2.42
Si  3.83 -2.08 -2.42
Si -3.82  2.29 -2.42
Si  3.82 -2.29  2.42
Si -0.45  4.47 -2.42
Si  0.45 -4.47  2.42
Si -2.85  4.37  0.00
Si  2.85 -4.37  0.00
Si  1.94  4.26  2.42
Si -1.94 -4.26 -2.42
Si  0.96  1.97  4.83
Si -0.96 -1.97 -4.83
Si -4.79  0.11 -2.42
Si  4.79 -0.11  2.42
Si -4.80 -0.11  2.42
Si  4.80  0.11 -2.42
Si  2.39 -0.21  4.83
Si -2.39  0.21 -4.83
Si -2.41 -0.21  4.83
Si  2.41  0.21 -4.83
Si -1.44  1.97  4.83
Si  1.44 -1.97 -4.83
Si  1.95  4.47 -2.42
Si -1.95 -4.47  2.42
Si  0.98  2.40 -4.83
Si -0.98 -2.40  4.83
Si -1.41  2.40 -4.83
Si  1.41 -2.40  4.83
Si  2.85 -4.26 -2.42
Si -2.85  4.26  2.42
Si -2.84  4.47 -2.42
Si  2.84 -4.47  2.42
Si  4.34  4.37  0.00
Si -4.34 -4.37  0.00
Si -5.77 -2.18  0.00
Si  5.77  2.18  0.00
Si -3.36 -1.97 -4.83
Si  3.36  1.97  4.83
Si -3.38 -2.40  4.83
Si  3.38  2.40 -4.83
Si  0.46 -4.15 -4.83
Si -0.46  4.15  4.83
Si  3.83 -1.97 -4.83
Si -3.83  1.97  4.83
Si  4.33  4.26  2.42
Si -4.33 -4.26 -2.42
Si -0.52 -6.55  0.00
Si  0.52  6.55  0.00
Si  5.76  2.08  2.42
Si -5.76 -2.08 -2.42
Si -6.22  2.18  0.00
Si  6.22 -2.18  0.00
Si -3.81  2.40 -4.83
Si  3.81 -2.40  4.83
Si  1.93  4.15  4.83
Si -1.93 -4.15 -4.83
Si -5.77 -2.29  2.42
Si  5.77  2.29 -2.42
Si  0.44 -4.58  4.83
Si -0.44  4.58 -4.83
Si -4.35 -4.47  2.42
Si  4.35  4.47 -2.42
Si  4.78 -0.21  4.83
Si -4.78  0.21 -4.83
Si  1.88 -6.55  0.00
Si -1.88  6.55  0.00
Si  4.80  0.21 -4.83
Si -4.80 -0.21  4.83
Si  5.25 -4.37  0.00
Si -5.25  4.37  0.00
Si -0.51 -6.45 -2.42
Si  0.51  6.45  2.42
Si  1.96  4.58 -4.83
Si -1.96 -4.58  4.83
Si  2.86 -4.15 -4.83
Si -2.86  4.15  4.83
Si  6.22 -2.08 -2.42
Si -6.22  2.08  2.42
Si -6.21  2.29 -2.42
Si  6.21 -2.29  2.42
Si -0.53 -6.66  2.42
Si  0.53  6.66 -2.42
Si -1.88  6.45  2.42
Si  1.88 -6.45 -2.42
Si -2.92 -6.55  0.00
Si  2.92  6.55  0.00
Si -5.25  4.26  2.42
Si  5.25 -4.26 -2.42
Si  7.19  0.00  0.00
Si -7.19  0.00  0.00
Si -2.84  4.58 -4.83
Si  2.84 -4.58  4.83
Si -0.02 -0.32  7.25
Si  0.02  0.32 -7.25
Si -5.24  4.47 -2.42
Si  5.24 -4.47  2.42
Si  1.87 -6.66  2.42
Si -1.87  6.66 -2.42
Si -2.91 -6.45 -2.42
Si  2.91  6.45  2.42
Si -0.95 -1.86 -7.25
Si  0.95  1.86  7.25
Si  7.18 -0.11  2.42
Si -7.18  0.11 -2.42
Si  7.20  0.11 -2.42
Si -7.20 -0.11  2.42
Si  1.44 -1.86 -7.25
Si -1.44  1.86  7.25
Si -2.38  0.32 -7.25
Si  2.38 -0.32  7.25
Si -2.41 -0.32  7.25
Si  2.41  0.32 -7.25
Si  2.92  6.66 -2.42
Si -2.92 -6.66  2.42
Si -4.33 -4.15 -4.83
Si  4.33  4.15  4.83
Si  0.99  2.51 -7.25
Si -0.99 -2.51  7.25
Si -5.75 -1.97 -4.83
Si  5.75  1.97  4.83
Si -1.41  2.51 -7.25
Si  1.41 -2.51  7.25
Si  4.27 -6.55  0.00
Si -4.27  6.55  0.00
Si  5.78  2.40 -4.83
Si -5.78 -2.40  4.83
Si  4.35  4.58 -4.83
Si -4.35 -4.58  4.83
Si  0.51  6.34  4.83
Si -0.51 -6.34 -4.83
Si -6.74 -4.37  0.00
Si  6.74  4.37  0.00
Si  4.28 -6.45 -2.42
Si -4.28  6.45  2.42
Si -6.23  1.97  4.83
Si  6.23 -1.97 -4.83
Si -1.89  6.34  4.83
Si  1.89 -6.34 -4.83
Si -3.35 -1.86 -7.25
Si  3.35  1.86  7.25
Si -6.21  2.40 -4.83
Si  6.21 -2.40  4.83
Si -5.26  4.15  4.83
Si  5.26 -4.15 -4.83
Si -4.27  6.66 -2.42
Si  4.27 -6.66  2.42
Si  0.47 -4.05 -7.25
Si -0.47  4.05  7.25
Si -6.73 -4.26 -2.42
Si  6.73  4.26  2.42
Si -0.53 -6.77  4.83
Si  0.53  6.77 -4.83
Si  3.38  2.51 -7.25
Si -3.38 -2.51  7.25
Si  3.84 -1.86 -7.25
Si -3.84  1.86  7.25
Si  5.31  6.55  0.00
Si -5.31 -6.55  0.00
Si -6.74 -4.47  2.42
Si  6.74  4.47 -2.42
Si -8.16 -2.18  0.00
Si  8.16  2.18  0.00
Si -5.24  4.58 -4.83
Si  5.24 -4.58  4.83
Si  2.90  6.34  4.83
Si -2.90 -6.34 -4.83
Si  1.87 -6.77  4.83
Si -1.87  6.77 -4.83
Si -1.93 -4.05 -7.25
Si  1.93  4.05  7.25
Si -3.81  2.51 -7.25
Si  3.81 -2.51  7.25
Si  0.44 -4.69  7.25
Si -0.44  4.69 -7.25
Si -7.18  0.21 -4.83
Si  7.18 -0.21  4.83
Si  7.20  0.21 -4.83
Si -7.20 -0.21  4.83
Si -4.78  0.32 -7.25
Si  4.78 -0.32  7.25
Si  5.31  6.45  2.42
Si -5.31 -6.45 -2.42
Si -4.81 -0.32  7.25
Si  4.81  0.32 -7.25
Si  8.16  2.08  2.42
Si -8.16 -2.08 -2.42
Si  0.91 -8.74  0.00
Si -0.91  8.74  0.00
Si -2.87  4.05  7.25
Si  2.87 -4.05 -7.25
Si  7.64 -4.37  0.00
Si -7.64  4.37  0.00
Si  2.93  6.77 -4.83
Si -2.93 -6.77  4.83
Si  8.17  2.29 -2.42
Si -8.17 -2.29  2.42
Si  1.96  4.69 -7.25
Si -1.96 -4.69  7.25
Si  5.32  6.66 -2.42
Si -5.32 -6.66  2.42
Si  1.49  8.74  0.00
Si -1.49 -8.74  0.00
Si  8.62 -2.18  0.00
Si -8.62  2.18  0.00
Si  0.91 -8.63 -2.42
Si -0.91  8.63  2.42
Si  4.29 -6.34 -4.83
Si -4.29  6.34  4.83
Si -7.65  4.26  2.42
Si  7.65 -4.26 -2.42
Si  1.49  8.63  2.42
Si -1.49 -8.63 -2.42
Si -2.83  4.69 -7.25
Si  2.83 -4.69  7.25
Si  7.64 -4.47  2.42
Si -7.64  4.47 -2.42
Si -8.62  2.08  2.42
Si  8.62 -2.08 -2.42
Si -0.90  8.84 -2.42
Si  0.90 -8.84  2.42
Si  8.61 -2.29  2.42
Si -8.61  2.29 -2.42
Si -6.73 -4.15 -4.83
Si  6.73  4.15  4.83
Si  1.50  8.84 -2.42
Si -1.50 -8.84  2.42
Si -3.30  8.74  0.00
Si  3.30 -8.74  0.00
Si -4.26  6.77 -4.83
Si  4.26 -6.77  4.83
Si  6.67 -6.55  0.00
Si -6.67  6.55  0.00
Si -4.32 -4.05 -7.25
Si  4.32  4.05  7.25
Si -5.75 -1.86 -7.25
Si  5.75  1.86  7.25
Si -6.75 -4.58  4.83
Si  6.75  4.58 -4.83
Si -3.31  8.63  2.42
Si  3.31 -8.63 -2.42
Si -3.89 -8.74  0.00
Si  3.89  8.74  0.00
Si -5.30 -6.34 -4.83
Si  5.30  6.34  4.83
Si  0.50  6.23  7.25
Si -0.50 -6.23 -7.25
Si  9.59  0.00  0.00
Si -9.59  0.00  0.00
Si -6.68  6.45  2.42
Si  6.68 -6.45 -2.42
Si -5.78 -2.51  7.25
Si  5.78  2.51 -7.25
Si -4.36 -4.69  7.25
Si  4.36  4.69 -7.25
Si -0.02 -0.43  9.67
Si  0.02  0.43 -9.67
Si -8.15 -1.97 -4.83
Si  8.15  1.97  4.83
Si  6.67 -6.66  2.42
Si -6.67  6.66 -2.42
Si -3.30  8.84 -2.42
Si  3.30 -8.84  2.42
Si -6.24  1.86  7.25
Si  6.24 -1.86 -7.25
Si  1.89 -6.23 -7.25
Si -1.89  6.23  7.25
Si -3.88 -8.63 -2.42
Si  3.88  8.63  2.42
Si -8.17 -2.40  4.83
Si  8.17  2.40 -4.83
Si  5.26 -4.05 -7.25
Si -5.26  4.05  7.25
Si -0.92  8.52  4.83
Si  0.92 -8.52 -4.83
Si -6.20  2.51 -7.25
Si  6.20 -2.51  7.25
Si  0.95  1.75  9.67
Si -0.95 -1.75 -9.67
Si  5.32  6.77 -4.83
Si -5.32 -6.77  4.83
Si -9.58  0.11 -2.42
Si  9.58 -0.11  2.42
Si  9.59  0.11 -2.42
Si -9.59 -0.11  2.42
Si  1.48  8.52  4.83
Si -1.48 -8.52 -4.83
Si  1.45 -1.75 -9.67
Si -1.45  1.75  9.67
Si  3.89  8.84 -2.42
Si -3.89 -8.84  2.42
Si  7.65 -4.15 -4.83
Si -7.65  4.15  4.83
Si -2.38  0.43 -9.67
Si  2.38 -0.43  9.67
Si -2.42 -0.43  9.67
Si  2.42  0.43 -9.67
Si  2.90  6.23  7.25
Si -2.90 -6.23 -7.25
Si  0.54  6.87 -7.25
Si -0.54 -6.87  7.25
Si -0.99 -2.61  9.67
Si  0.99  2.61 -9.67
Si -8.63  1.97  4.83
Si  8.63 -1.97 -4.83
Si -5.23  4.69 -7.25
Si  5.23 -4.69  7.25
Si -1.40  2.61 -9.67
Si  1.40 -2.61  9.67
Si  7.71  6.55  0.00
Si -7.71 -6.55  0.00
Si  9.13  4.37  0.00
Si -9.13 -4.37  0.00
Si  7.63 -4.58  4.83
Si -7.63  4.58 -4.83
Si -8.60  2.40 -4.83
Si  8.60 -2.40  4.83
Si -1.86  6.87 -7.25
Si  1.86 -6.87  7.25
Si -7.17  0.32 -7.25
Si  7.17 -0.32  7.25
Si -0.89  8.95 -4.83
Si  0.89 -8.95  4.83
Si -7.21 -0.32  7.25
Si  7.21  0.32 -7.25
Si -1.50 -8.95  4.83
Si  1.50  8.95 -4.83
Si  7.70  6.45  2.42
Si -7.70 -6.45 -2.42
Si -3.31  8.52  4.83
Si  3.31 -8.52 -4.83
Si  9.13  4.26  2.42
Si -9.13 -4.26 -2.42
Si  3.35  1.75  9.67
Si -3.35 -1.75 -9.67
Si -6.68  6.34  4.83
Si  6.68 -6.34 -4.83
Si  2.93  6.87 -7.25
Si -2.93 -6.87  7.25
Si  5.70 -8.74  0.00
Si -5.70  8.74  0.00
Si  0.47 -3.94 -9.67
Si -0.47  3.94  9.67
Si -9.14 -4.47  2.42
Si  9.14  4.47 -2.42
Si -7.71 -6.66  2.42
Si  7.71  6.66 -2.42
Si -4.29  6.23  7.25
Si  4.29 -6.23 -7.25
Si  3.88  8.52  4.83
Si -3.88 -8.52 -4.83
Si  3.84 -1.75 -9.67
Si -3.84  1.75  9.67
Si  3.39  2.61 -9.67
Si -3.39 -2.61  9.67
Si  1.92  3.94  9.67
Si -1.92 -3.94 -9.67
Si  5.71 -8.63 -2.42
Si -5.71  8.63  2.42
Si  6.66 -6.77  4.83
Si -6.66  6.77 -4.83
Si  6.72  4.05  7.25
Si -6.72 -4.05 -7.25
Si  3.29 -8.95  4.83
Si -3.29  8.95 -4.83
Si  3.80 -2.61  9.67
Si -3.80  2.61 -9.67
Si -9.58  0.21 -4.83
Si  9.58 -0.21  4.83
Si  9.60  0.21 -4.83
Si -9.60 -0.21  4.83
Si -6.29 -8.74  0.00
Si  6.29  8.74  0.00
Si 10.56  2.18  0.00
Si -10.56 -2.18  0.00
Si -5.69  8.84 -2.42
Si  5.69 -8.84  2.42
Si -4.77  0.43 -9.67
Si  4.77 -0.43  9.67
Si  0.43 -4.80  9.67
Si -0.43  4.80 -9.67
Si -4.82 -0.43  9.67
Si  4.82  0.43 -9.67
Si  2.87 -3.94 -9.67
Si -2.87  3.94  9.67
Si  4.26 -6.87  7.25
Si -4.26  6.87 -7.25
Si -3.90 -8.95  4.83
Si  3.90  8.95 -4.83
Si  0.07 10.92  0.00
Si -0.07 -10.92  0.00
Si -5.30 -6.23 -7.25
Si  5.30  6.23  7.25
Si -6.28 -8.63 -2.42
Si  6.28  8.63  2.42
Si 10.04 -4.37  0.00
Si -10.04  4.37  0.00
Si -6.75 -4.69  7.25
Si  6.75  4.69 -7.25
Si -1.97 -4.80  9.67
Si  1.97  4.80 -9.67
Si 10.55  2.08  2.42
Si -10.55 -2.08 -2.42
Si -8.15 -1.86 -7.25
Si  8.15  1.86  7.25
Si -10.56 -2.29  2.42
Si 10.56  2.29 -2.42
Si -0.06 -10.81 -2.42
Si  0.06 10.81  2.42
Si  7.70  6.34  4.83
Si -7.70 -6.34 -4.83
Si  6.29  8.84 -2.42
Si -6.29 -8.84  2.42
Si  9.12  4.15  4.83
Si -9.12 -4.15 -4.83
Si  0.92 -8.41 -7.25
Si -0.92  8.41  7.25
Si -2.83  4.80 -9.67
Si  2.83 -4.80  9.67
Si -2.33 10.92  0.00
Si  2.33 -10.92  0.00
Si 10.04 -4.26 -2.42
Si -10.04  4.26  2.42
Si  9.07 -6.55  0.00
Si -9.07  6.55  0.00
Si  2.46 10.92  0.00
Si -2.46 -10.92  0.00
Si -1.48 -8.41 -7.25
Si  1.48  8.41  7.25
Si  8.18  2.51 -7.25
Si -8.18 -2.51  7.25
Si -11.01  2.18  0.00
Si 11.01 -2.18  0.00
Si 10.03 -4.47  2.42
Si -10.03  4.47 -2.42
Si -0.07 -11.03  2.42
Si  0.07 11.03 -2.42
Si  7.66 -4.05 -7.25
Si -7.66  4.05  7.25
Si  4.32  3.94  9.67
Si -4.32 -3.94 -9.67
Si  9.15  4.58 -4.83
Si -9.15 -4.58  4.83
Si  2.34 -10.81 -2.42
Si -2.34 10.81  2.42
Si  5.33  6.87 -7.25
Si -5.33 -6.87  7.25
Si -5.71  8.52  4.83
Si  5.71 -8.52 -4.83
Si  7.72  6.77 -4.83
Si -7.72 -6.77  4.83
Si -2.46 -10.81 -2.42
Si  2.46 10.81  2.42
Si -5.74 -1.75 -9.67
Si  5.74  1.75  9.67
Si -9.07  6.45  2.42
Si  9.07 -6.45 -2.42
Si -8.63  1.86  7.25
Si  8.63 -1.86 -7.25
Si -0.50 -6.12 -9.67
Si  0.50  6.12  9.67
Si -11.02  2.08  2.42
