500
set: 595.00  0.00  0.00
Si  0.00  0.00  0.00
Si -0.60  0.14 -2.10
Si  1.80  1.04  0.73
Si -1.82  1.04  0.73
Si  0.06 -2.10  0.73
Si -1.22  0.90  2.84
Si  1.22 -0.90 -2.84
Si  1.74  3.14  0.00
Si -1.74 -3.14  0.00
Si -3.62  0.00  0.00
Si  3.62  0.00  0.00
Si  1.88 -3.14  0.00
Si -1.88  3.14  0.00
Si -0.66  2.24 -2.84
Si  0.66 -2.24  2.84
Si  3.02  0.14 -2.10
Si  2.40  0.90  2.84
Si -2.40 -0.90 -2.84
Si  1.28 -3.00 -2.10
Si -1.16 -1.20  3.57
Si  1.14  3.27 -2.10
Si  0.58  1.94  3.57
Si -3.56 -2.10  0.73
Si -0.09  4.18  0.73
Si  3.68 -2.10  0.73
Si -2.34 -3.00 -2.10
Si  2.46 -1.20  3.57
Si -2.48  3.27 -2.10
Si -2.96 -2.24  2.84
Si  2.96  2.24 -2.84
Si -4.22  0.14 -2.10
Si  0.52  4.04  2.84
Si -0.52 -4.04 -2.84
Si  0.62 -0.77 -4.94
Si -3.04  1.94  3.57
Si  3.53  4.18  0.73
Si -1.67 -5.24  0.73
Si  5.42  1.04  0.73
Si -5.44  1.04  0.73
Si -4.28  2.24 -2.84
Si  4.28 -2.24  2.84
Si -1.26  2.37 -4.94
Si -3.71  4.18  0.73
Si  1.95 -5.24  0.73
Si  0.72 -4.34  3.57
Si  4.84 -0.90 -2.84
Si -4.84  0.90  2.84
Si -3.00 -0.77 -4.94
Si -3.10  4.04  2.84
Si  3.10 -4.04 -2.84
Si  4.20  1.94  3.57
Si  0.56  1.33 -5.67
Si -0.56 -1.33  5.67
Si  2.36  2.37 -4.94
Si -1.18 -1.80 -5.67
Si  1.18  1.80  5.67
Si -4.78 -1.20  3.57
Si  4.90 -3.00 -2.10
Si  4.75  3.27 -2.10
Si -1.07 -5.38  2.84
Si  1.07  5.38 -2.84
Si -5.35 -3.14  0.00
Si  5.35  3.14  0.00
Si  0.15 -6.28  0.00
Si -0.15  6.28  0.00
Si -2.89 -4.34  3.57
Si  5.50 -3.14  0.00
Si -5.50  3.14  0.00
Si -1.31  5.08  3.57
Si -1.11 -3.91 -4.94
Si  2.44 -1.80 -5.67
Si -2.44  1.80  5.67
Si  4.13  4.04  2.84
Si -4.13 -4.04 -2.84
Si -0.45 -6.14 -2.10
Si  1.24 -0.30  6.41
Si  4.24 -0.77 -4.94
Si -3.06  1.33 -5.67
Si  3.06 -1.33  5.67
Si  2.55 -5.38  2.84
Si -2.55  5.38 -2.84
Si  2.31  5.08  3.57
Si -6.02 -0.90 -2.84
Si  6.02  0.90  2.84
Si  2.50 -3.91 -4.94
Si -0.75  6.41 -2.10
Si -2.38 -0.30  6.41
Si  6.64  0.14 -2.10
Si -5.96 -3.00 -2.10
Si -0.64  2.84  6.41
Si  4.34 -4.34  3.57
Si  6.08 -1.20  3.57
Si -4.18 -1.33  5.67
Si  4.18  1.33 -5.67
Si  3.47  6.28  0.00
Si -3.47 -6.28  0.00
Si  3.17 -6.14 -2.10
Si -7.24  0.00  0.00
Si  7.24  0.00  0.00
Si -6.10  3.27 -2.10
Si -0.50 -3.44  6.41
Si  3.77 -6.28  0.00
Si -3.77  6.28  0.00
Si  2.87  6.41 -2.10
Si -4.88  2.37 -4.94
Si -1.32  4.47 -5.67
Si  1.32 -4.47  5.67
Si  0.47  5.51 -4.94
Si -5.29 -5.24  0.73
Si  6.58  2.24 -2.84
Si -6.58 -2.24  2.84
Si -7.18 -2.10  0.73
Si  1.65  7.32  0.73
Si -0.71  4.94  5.67
Si  0.71 -4.94 -5.67
Si  2.29  4.47 -5.67
Si -2.29 -4.47  5.67
Si -1.97  7.32  0.73
Si  2.98  2.84  6.41
Si  7.30 -2.10  0.73
Si  4.80  1.80  5.67
Si -4.80 -1.80 -5.67
Si -4.07 -6.14 -2.10
Si  4.69  5.38 -2.84
Si -4.69 -5.38  2.84
Si  5.57 -5.24  0.73
Si -6.66  1.94  3.57
Si -1.37  7.18  2.84
Si  1.37 -7.18 -2.84
Si -4.73 -3.91 -4.94
Si  3.12 -3.44  6.41
Si -0.04  1.47 -7.78
Si -4.93  5.08  3.57
Si -4.37  6.41 -2.10
Si -2.25 -7.18 -2.84
Si  2.25  7.18  2.84
Si -3.15  5.51 -4.94
Si  4.86 -0.30  6.41
Si  2.91  4.94  5.67
Si -2.91 -4.94 -5.67
Si  5.97  2.37 -4.94
Si -7.84  0.14 -2.10
Si -1.78 -1.67 -7.78
Si  1.84 -1.67 -7.78
Si -4.26  2.84  6.41
Si -6.62 -0.77 -4.94
Si  7.15  4.18  0.73
Si -6.72  4.04  2.84
Si  6.72 -4.04 -2.84
Si -1.01 -7.48  3.57
Si -4.12 -3.44  6.41
Si  0.21 -8.38  0.73
Si  4.09  5.51 -4.94
Si -7.32  4.18  0.73
Si  6.06 -1.80 -5.67
Si -6.06  1.80  5.67
Si  5.93  5.08  3.57
Si -6.51 -4.34  3.57
Si  0.77 -7.05 -4.94
Si  6.17 -5.38  2.84
Si -6.17  5.38 -2.84
Si -4.33  4.94  5.67
Si  4.33 -4.94 -5.67
Si  3.58  1.47 -7.78
Si  2.61 -7.48  3.57
Si -7.90  2.24 -2.84
Si  7.90 -2.24  2.84
Si -1.78 -0.43  8.51
Si  1.78  0.43 -8.51
Si  1.84 -0.43  8.51
Si -1.84  0.43 -8.51
Si -3.66  1.47 -7.78
Si -4.94  4.47 -5.67
Si  4.94 -4.47  5.67
Si -6.00 -0.30  6.41
Si  6.12 -3.91 -4.94
Si  7.82  1.94  3.57
Si  1.09  5.98  6.41
Si -6.68  1.33 -5.67
Si  6.68 -1.33  5.67
Si  0.04 -2.71 -8.51
Si -0.04  2.71  8.51
Si -8.46  0.90  2.84
Si  8.46 -0.90 -2.84
Si  0.43  8.22  3.57
Si -0.81  8.52 -2.84
Si  0.81 -8.52  2.84
Si  5.27  7.32  0.73
Si -2.85 -7.05 -4.94
Si -3.41 -8.38  0.73
Si -2.53  5.98  6.41
Si  9.04  1.04  0.73
Si  0.11 -4.81 -7.78
Si -9.06  1.04  0.73
Si  7.75  4.04  2.84
Si -7.75 -4.04 -2.84
Si -4.99  7.18  2.84
Si  4.99 -7.18 -2.84
Si  1.69  4.61 -7.78
Si -8.40 -1.20  3.57
Si  0.10 -3.57  8.51
Si -0.10  3.57 -8.51
Si  8.37  3.27 -2.10
Si -5.59  7.32  0.73
Si  3.83 -8.38  0.73
Si -1.93  4.61 -7.78
Si  0.02  0.61  9.25
Si  8.52 -3.00 -2.10
Si  1.39 -6.58  6.41
Si  7.86 -0.77 -4.94
Si -5.91 -4.47  5.67
Si  5.91  4.47 -5.67
Si  6.49  6.41 -2.10
Si  6.79 -6.14 -2.10
Si -2.81 -8.52  2.84
Si  2.81  8.52 -2.84
Si -2.23 -6.58  6.41
Si -7.09 -6.28  0.00
Si  7.09  6.28  0.00
Si -4.63 -7.48  3.57
Si -0.41 -7.61  5.67
Si  0.41  7.61 -5.67
Si -8.97 -3.14  0.00
Si  8.97  3.14  0.00
Si -3.19  8.22  3.57
Si -1.59 -9.42  0.00
Si  1.59  9.42  0.00
Si -5.40 -1.67 -7.78
Si -3.58 -2.71 -8.51
Si  3.58  2.71  8.51
Si  6.59  2.84  6.41
Si  1.43 -9.28 -2.10
Si -2.03  9.42  0.00
Si  2.03 -9.42  0.00
Si -9.12  3.14  0.00
Si  9.12 -3.14  0.00
Si  5.46 -1.67 -7.78
Si  3.66 -2.71 -8.51
Si -3.66  2.71  8.51
Si  4.39 -7.05 -4.94
Si -7.39  6.28  0.00
Si  7.39 -6.28  0.00
Si  5.87  7.18  2.84
Si -5.87 -7.18 -2.84
Si -7.80 -1.33  5.67
Si  7.80  1.33 -5.67
Si -1.72 -2.53  9.25
Si  7.96 -4.34  3.57
Si -2.19 -9.28 -2.10
Si  1.90 -2.53  9.25
Si -3.51 -4.81 -7.78
Si  0.99  9.55 -2.10
Si  4.05  8.22  3.57
Si  3.73 -4.81 -7.78
Si -3.51 -3.57  8.51
Si  3.51  3.57 -8.51
Si  6.74 -3.44  6.41
Si -1.03 -8.08 -5.67
Si  1.03  8.08  5.67
Si -3.60  0.61  9.25
Si  4.71  5.98  6.41
Si -3.72  3.57 -8.51
Si  3.72 -3.57  8.51
Si  3.64  0.61  9.25
Si -6.53 -4.94 -5.67
Si  6.53  4.94  5.67
Si -4.43  8.52 -2.84
Si  4.43 -8.52  2.84
Si  3.21 -7.61  5.67
Si -3.21  7.61 -5.67
Si -6.77  5.51 -4.94
Si -1.41  8.65 -4.94
Si -7.69 -6.14 -2.10
Si -9.64 -0.90 -2.84
Si  9.64  0.90  2.84
Si  5.40  0.43 -8.51
Si -5.40 -0.43  8.51
Si -8.50  2.37 -4.94
Si -5.46  0.43 -8.51
Si  5.46 -0.43  8.51
Si  1.75  3.75  9.25
Si -2.63  9.55 -2.10
Si -1.86  3.75  9.25
Si  2.21  8.65 -4.94
Si -2.59  8.08  5.67
Si  2.59 -8.08 -5.67
Si -9.57 -3.00 -2.10
Si -8.31 -5.38  2.84
Si  8.31  5.38 -2.84
Si -8.41 -1.80 -5.67
Si  8.41  1.80  5.67
Si -4.03 -7.61  5.67
Si  4.03  7.61 -5.67
Si -8.91 -5.24  0.73
Si  6.23 -7.48  3.57
Si  9.70 -1.20  3.57
Si -7.99  6.41 -2.10
Si  5.01 -6.58  6.41
Si -8.35 -3.91 -4.94
Si  1.69  5.85  8.51
Si -1.69 -5.85 -8.51
Si 10.26  0.14 -2.10
Si -9.72  3.27 -2.10
Si -0.23 10.46  0.73
Si  5.31  4.61 -7.78
Si -1.93  5.85  8.51
Si  1.93 -5.85 -8.51
Si -7.88  2.84  6.41
Si -8.54  5.08  3.57
Si  9.18 -5.24  0.73
Si -5.54  4.61 -7.78
Si -7.73 -3.44  6.41
Si  8.48 -0.30  6.41
Si  7.71  5.51 -4.94
Si  1.18  0.57 -10.62
Si  7.20  1.47 -7.78
Si -6.15  5.98  6.41
Si  0.37 10.32  2.84
Si -0.37 -10.32 -2.84
Si -7.28  1.47 -7.78
Si  5.21  9.42  0.00
Si -5.21 -9.42  0.00
Si -6.47 -7.05 -4.94
Si  5.05 -9.28 -2.10
Si  4.61  9.55 -2.10
Si 10.19  2.24 -2.84
Si -10.19 -2.24  2.84
Si  0.17 -5.67  9.25
Si -10.86  0.00  0.00
Si 10.86  0.00  0.00
Si -5.85 -6.58  6.41
Si -2.44  0.57 -10.62
Si -4.65 -8.08 -5.67
Si  4.65  8.08  5.67
Si -0.56 -2.57 -10.62
Si -7.94  4.94  5.67
Si  7.94 -4.94 -5.67
Si -1.63 -6.71  8.51
Si  1.63  6.71 -8.51
Si -7.03 -8.38  0.73
Si -5.34 -2.53  9.25
Si -0.19  7.75 -7.78
Si  5.65 -9.42  0.00
Si -5.65  9.42  0.00
Si  3.38 10.46  0.73
Si  1.99 -6.71  8.51
Si -1.99  6.71 -8.51
Si -10.79 -2.10  0.73
Si -6.43 -8.52  2.84
Si  6.43  8.52 -2.84
Si  9.59  2.37 -4.94
Si -10.28  1.94  3.57
Si  5.52 -2.53  9.25
Si 10.92 -2.10  0.73
Si -5.81 -9.28 -2.10
Si -5.03  8.65 -4.94
Si -3.85 10.46  0.73
Si -0.79  9.12  6.41
Si -3.25 10.32  2.84
Si  3.25 -10.32 -2.84
Si  8.56 -4.47  5.67
Si -8.56  4.47 -5.67
Si  0.87 -10.62  3.57
Si  7.45 -8.38  0.73
Si -1.63 -7.95 -7.78
Si -6.81  8.22  3.57
Si -0.70  3.71 -10.62
Si  1.99 -7.95 -7.78
Si  5.37  3.75  9.25
Si  3.06 -2.57 -10.62
Si -0.97 -10.19 -4.94
Si  9.68 -1.80 -5.67
Si -9.68  1.80  5.67
Si -0.62 -0.47 -11.35
Si  0.62  0.47 11.35
Si -5.48  3.75  9.25
Si -3.45 -5.67  9.25
Si  9.55  5.08  3.57
Si -10.24 -0.77 -4.94
Si -3.99 -10.32 -2.84
Si  3.99 10.32  2.84
Si -10.34  4.04  2.84
Si 10.34 -4.04 -2.84
Si -7.20 -2.71 -8.51
Si  7.20  2.71  8.51
Si  3.79 -5.67  9.25
Si  2.83  9.12  6.41
Si  3.43  7.75 -7.78
Si -9.78  5.38 -2.84
Si  9.78 -5.38  2.84
Si  7.28 -2.71 -8.51
Si -7.28  2.71  8.51
Si -0.13  6.88  9.25
Si -2.75 -10.62  3.57
Si  8.89  7.32  0.73
Si  5.83  8.65 -4.94
Si -9.62 -0.30  6.41
Si  8.61 -7.18 -2.84
Si -8.61  7.18  2.84
Si 10.77  4.18  0.73
Si -10.13 -4.34  3.57
Si -7.13 -4.81 -7.78
Si  9.74 -3.91 -4.94
Si -6.25  9.55 -2.10
Si  5.31  5.85  8.51
Si -5.31 -5.85 -8.51
Si  2.91  3.71 -10.62
Si -3.81  7.75 -7.78
Si  2.65 -10.19 -4.94
Si -0.35 -9.71  6.41
Si -1.52 -11.52  0.73
Si -11.46  0.14 -2.10
Si  4.80  0.57 -10.62
Si  7.13  3.57 -8.51
Si -7.13 -3.57  8.51
Si  6.21 -8.08 -5.67
Si -6.21  8.08  5.67
Si -8.25 -7.48  3.57
Si -4.18 -2.57 -10.62
Si  6.83 -7.61  5.67
Si -6.83  7.61 -5.67
Si -1.12 -2.67 11.35
Si  1.12  2.67 -11.35
Si  5.55 -5.85 -8.51
Si -5.55  5.85  8.51
Si  7.34 -4.81 -7.78
Si  2.09 -11.52  0.73
Si -10.94  4.18  0.73
Si -7.22  0.61  9.25
Si  3.00 -0.47 -11.35
Si -3.00  0.47 11.35
Si  8.01 -7.05 -4.94
Si  7.26  0.61  9.25
Si -9.21  7.32  0.73
Si  7.67  8.22  3.57
Si -7.34  3.57 -8.51
Si  7.34 -3.57  8.51
Si 10.30 -1.33  5.67
Si -10.30  1.33 -5.67
Si  2.50 -2.67 11.35
Si -2.50  2.67 -11.35
Si  9.53  4.47 -5.67
Si -9.53 -4.47  5.67
Si  1.26 -3.61 -11.35
Si -1.26  3.61 11.35
Si -4.41  9.12  6.41
Si -1.46 11.36  3.57
Si -9.02 -1.67 -7.78
Si -0.93 -11.65  2.84
Si  0.93 11.65 -2.84
Si -5.25 -6.71  8.51
Si  5.25  6.71 -8.51
Si  3.49  6.88  9.25
Si -4.32  3.71 -10.62
Si  8.05 -8.52  2.84
Si -8.05  8.52 -2.84
Si  4.49 -10.62  3.57
Si  9.08 -1.67 -7.78
Si -11.52  2.24 -2.84
Si 11.52 -2.24  2.84
Si  3.27 -9.71  6.41
Si  8.33  5.98  6.41
Si  2.16 11.36  3.57
Si -3.75  6.88  9.25
Si -4.24 -0.47 -11.35
Si  4.24  0.47 11.35
Si  1.33 -5.71 -10.62
Si 11.43  1.94  3.57
Si -2.35 -3.61 -11.35
Si  2.35  3.61 11.35
Si 10.11  6.41 -2.10
Si  7.65  7.61 -5.67
Si -7.65 -7.61  5.67
Si  5.61 -6.71  8.51
Si -5.61  6.71 -8.51
Si  0.68 -1.63 12.08
Si -4.59 -10.19 -4.94
Si -9.49 -7.18 -2.84
Si  9.49  7.18  2.84
Si -1.20  1.51 12.08
Si -6.06  0.57 -10.62
Si  1.47 -10.75  5.67
Si -1.47 10.75 -5.67
Si 10.40 -6.14 -2.10
Si -2.29 -5.71 -10.62
Si -2.69 11.65 -2.84
Si  2.69 -11.65  2.84
Si -3.97 -9.71  6.41
Si -5.25 -7.95 -7.78
Si  2.15 10.75 -5.67
Si -2.15 -10.75  5.67
Si -0.19  8.99  8.51
Si  0.19 -8.99 -8.51
Si 10.21  2.84  6.41
Si 11.37  4.04  2.84
Si -11.37 -4.04 -2.84
Si -9.02 -0.43  8.51
Si  9.02  0.43 -8.51
Si 10.71  6.28  0.00
Si -10.71 -6.28  0.00
