500
set: 646.00  0.00  0.00
Si  0.39 -1.16  0.82
Si -0.39  1.16 -0.82
Si  1.34  1.05  0.82
Si -1.34 -1.05 -0.82
Si -2.20  1.05  0.82
Si  2.20 -1.05 -0.82
Si  0.84 -0.03 -2.45
Si -0.84  0.03  2.45
Si -0.10 -2.25 -2.45
Si  0.10  2.25  2.45
Si  3.14  1.16 -0.82
Si -3.14 -1.16  0.82
Si  0.55  3.38 -0.82
Si -0.55 -3.38  0.82
Si -1.25  3.27  0.82
Si  1.25 -3.27 -0.82
Si  2.70  0.03  2.45
Si -2.70 -0.03 -2.45
Si -1.75  2.19 -2.45
Si  1.75 -2.19  2.45
Si -1.78 -2.19  2.45
Si  1.78  2.19 -2.45
Si  2.28  3.27  0.82
Si -2.28 -3.27 -0.82
Si -0.89  0.08 -4.08
Si  0.89 -0.08  4.08
Si -3.93  1.16 -0.82
Si  3.93 -1.16  0.82
Si  2.99 -3.38  0.82
Si -2.99  3.38 -0.82
Si  0.05  2.29 -4.08
Si -0.05 -2.29  4.08
Si -3.43  2.25  2.45
Si  3.43 -2.25 -2.45
Si -2.64 -0.08  4.08
Si  2.64  0.08 -4.08
Si  1.70 -2.14 -4.08
Si -1.70  2.14  4.08
Si  3.64  2.25  2.45
Si -3.64 -2.25 -2.45
Si  1.84  2.14  4.08
Si -1.84 -2.14 -4.08
Si  4.38 -0.03 -2.45
Si -4.38  0.03  2.45
Si  4.88  1.05  0.82
Si -4.88 -1.05 -0.82
Si -0.81  4.40 -2.45
Si  0.81 -4.40  2.45
Si -1.05 -4.47 -2.45
Si  1.05  4.47  2.45
Si  4.09  3.38 -0.82
Si -4.09 -3.38  0.82
Si -0.31  5.49  0.82
Si  0.31 -5.49 -0.82
Si  2.49 -4.47 -2.45
Si -2.49  4.47  2.45
Si -2.73 -4.40  2.45
Si  2.73  4.40 -2.45
Si -0.34  1.12  5.71
Si  0.34 -1.12 -5.71
Si  3.49 -2.29  4.08
Si -3.49  2.29 -4.08
Si  1.50  5.60 -0.82
Si -1.50 -5.60  0.82
Si  4.79 -3.27 -0.82
Si -4.79  3.27  0.82
Si -5.74  1.05  0.82
Si  5.74 -1.05 -0.82
Si  3.59  2.29 -4.08
Si -3.59 -2.29  4.08
Si  1.28  1.10 -5.71
Si -1.28 -1.10  5.71
Si -2.04  5.60 -0.82
Si  2.04 -5.60  0.82
Si  0.76 -4.36 -4.08
Si -0.76  4.36  4.08
Si  4.43 -0.08  4.08
Si -4.43  0.08 -4.08
Si  1.00  4.51 -4.08
Si -1.00 -4.51  4.08
Si  5.29 -2.19  2.45
Si -5.29  2.19 -2.45
Si -2.25  1.10 -5.71
Si  2.25 -1.10  5.71
Si -5.32 -2.19  2.45
Si  5.32  2.19 -2.45
Si -3.23 -5.49 -0.82
Si  3.23  5.49  0.82
Si -2.78 -4.36 -4.08
Si  2.78  4.36  4.08
Si  2.54 -4.51  4.08
Si -2.54  4.51 -4.08
Si -3.20 -1.12 -5.71
Si  3.20  1.12  5.71
Si  0.60  3.34  5.71
Si -0.60 -3.34 -5.71
Si -4.34  4.40 -2.45
Si  4.34 -4.40  2.45
Si -6.23 -0.03 -2.45
Si  6.23  0.03  2.45
Si -5.82 -3.27 -0.82
Si  5.82  3.27  0.82
Si -1.31  3.32 -5.71
Si  1.31 -3.32  5.71
Si -3.85  5.49  0.82
Si  3.85 -5.49 -0.82
Si  6.68  1.16 -0.82
Si -6.68 -1.16  0.82
Si -4.59 -4.47 -2.45
Si  4.59  4.47  2.45
Si -2.23 -3.32  5.71
Si  2.23  3.32 -5.71
Si  5.24 -2.14 -4.08
Si -5.24  2.14  4.08
Si -3.88  1.12  5.71
Si  3.88 -1.12 -5.71
Si -0.14 -6.62  2.45
Si  0.14  6.62 -2.45
Si -5.37 -2.14 -4.08
Si  5.37  2.14  4.08
Si  2.93 -3.34 -5.71
Si -2.93  3.34  5.71
Si -1.54  6.68  2.45
Si  1.54 -6.68 -2.45
Si  4.29 -4.36 -4.08
Si -4.29  4.36  4.08
Si  6.52 -3.38  0.82
Si -6.52  3.38 -0.82
Si -1.99 -6.68 -2.45
Si  1.99  6.68  2.45
Si  6.18  0.08 -4.08
Si -6.18 -0.08  4.08
Si  0.45 -1.21  7.34
Si -0.45  1.21 -7.34
Si  1.39  1.01  7.34
Si -1.39 -1.01 -7.34
Si -4.82 -1.10  5.71
Si  4.82  1.10 -5.71
Si  5.03  5.60 -0.82
Si -5.03 -5.60  0.82
Si  4.53  4.51 -4.08
Si -4.53 -4.51  4.08
Si  7.47 -1.16  0.82
Si -7.47  1.16 -0.82
Si  2.14 -1.01 -7.34
Si -2.14  1.01  7.34
Si  6.97 -2.25 -2.45
Si -6.97  2.25  2.45
Si  0.19  6.58  4.08
Si -0.19 -6.58 -4.08
Si  0.64  7.71  0.82
Si -0.64 -7.71 -0.82
Si  4.14  3.34  5.71
Si -4.14 -3.34 -5.71
Si  3.40 -6.62  2.45
Si -3.40  6.62 -2.45
Si  6.02 -4.47 -2.45
Si -6.02  4.47  2.45
Si  7.18  2.25  2.45
Si -7.18 -2.25 -2.45
Si -1.10  7.82 -0.82
Si  1.10 -7.82  0.82
Si  5.58 -5.60  0.82
Si -5.58  5.60 -0.82
Si  3.67  6.62 -2.45
Si -3.67 -6.62  2.45
Si -0.36  5.53 -5.71
Si  0.36 -5.53  5.71
Si  1.60 -6.73  4.08
Si -1.60  6.73 -4.08
Si  6.26  4.40 -2.45
Si -6.26 -4.40  2.45
Si  3.09  1.21 -7.34
Si -3.09 -1.21  7.34
Si  1.94  6.73 -4.08
Si -1.94 -6.73  4.08
Si  1.20 -3.23 -7.34
Si -1.20  3.23  7.34
Si  1.55  5.55  5.71
Si -1.55 -5.55 -5.71
Si  0.50  3.43 -7.34
Si -0.50 -3.43  7.34
Si -4.84  3.32 -5.71
Si  4.84 -3.32  5.71
Si -5.79  1.10 -5.71
Si  5.79 -1.10  5.71
Si -1.99  5.55  5.71
Si  1.99 -5.55 -5.71
Si  2.44  7.82 -0.82
Si -2.44 -7.82  0.82
Si -2.90  7.71  0.82
Si  2.90 -7.71 -0.82
Si -7.91  0.03  2.45
Si  7.91 -0.03 -2.45
Si -2.34 -3.23 -7.34
Si  2.34  3.23  7.34
Si  7.62  3.38 -0.82
Si -7.62 -3.38  0.82
Si  3.35 -6.58 -4.08
Si -3.35  6.58  4.08
Si -7.02  2.29 -4.08
Si  7.02 -2.29  4.08
Si  3.98 -1.21  7.34
Si -3.98  1.21 -7.34
Si  8.41  1.05  0.82
Si -8.41 -1.05 -0.82
Si -7.12 -2.29  4.08
Si  7.12  2.29 -4.08
Si  3.17  5.53 -5.71
Si -3.17 -5.53  5.71
Si  3.73  6.58  4.08
Si -3.73 -6.58 -4.08
Si  6.08 -4.51  4.08
Si -6.08  4.51 -4.08
Si -3.04  3.43 -7.34
Si  3.04 -3.43  7.34
Si  6.32  4.36  4.08
Si -6.32 -4.36 -4.08
Si -5.08  6.68  2.45
Si  5.08 -6.68 -2.45
Si  6.76  5.49  0.82
Si -6.76 -5.49 -0.82
Si  5.77  3.32 -5.71
Si -5.77 -3.32  5.71
Si -4.17 -7.71 -0.82
Si  4.17  7.71  0.82
Si -3.90  5.53 -5.71
Si  3.90 -5.53  5.71
Si -6.73 -1.12 -5.71
Si  6.73  1.12  5.71
Si -4.93 -1.01 -7.34
Si  4.93  1.01  7.34
Si  7.97 -0.08  4.08
Si -7.97  0.08 -4.08
Si -8.33  3.27  0.82
Si  8.33 -3.27 -0.82
Si -0.79 -0.01  8.97
Si  0.79  0.01 -8.97
Si -5.53 -6.68 -2.45
Si  5.53  6.68  2.45
Si -4.03 -3.43  7.34
Si  4.03  3.43 -7.34
Si -4.63  7.82 -0.82
Si  4.63 -7.82  0.82
Si  0.26 -5.44 -7.34
Si -0.26  5.44  7.34
Si -1.08 -8.84  2.45
Si  1.08  8.84 -2.45
Si  7.38 -5.49 -0.82
Si -7.38  5.49  0.82
Si -0.16 -2.21 -8.97
Si  0.16  2.21  8.97
Si  6.47 -3.34 -5.71
Si -6.47  3.34  5.71
Si  0.60 -8.90 -2.45
Si -0.60  8.90  2.45
Si  4.74 -3.23 -7.34
Si -4.74  3.23  7.34
Si  5.68 -1.01 -7.34
Si -5.68  1.01  7.34
Si  7.88 -4.40  2.45
Si -7.88  4.40 -2.45
Si  9.27 -1.05 -0.82
Si -9.27  1.05  0.82
Si -1.44 -5.64  7.34
Si  1.44  5.64 -7.34
Si  2.75 -0.01  8.97
Si -2.75  0.01 -8.97
Si  5.13 -6.73  4.08
Si -5.13  6.73 -4.08
Si -1.73 -2.23  8.97
Si  1.73  2.23 -8.97
Si  8.83 -2.19  2.45
Si -8.83  2.19 -2.45
Si  1.81 -2.23  8.97
Si -1.81  2.23 -8.97
Si  7.41 -1.12 -5.71
Si -7.41  1.12  5.71
Si  8.86  2.19 -2.45
Si -8.86 -2.19  2.45
Si  5.08  5.55  5.71
Si -5.08 -5.55 -5.71
Si -2.46  8.84 -2.45
Si  2.46 -8.84  2.45
Si  2.10 -5.64  7.34
Si -2.10  5.64 -7.34
Si -5.48 -6.73  4.08
Si  5.48  6.73 -4.08
Si  8.12  4.47  2.45
Si -8.12 -4.47 -2.45
Si -0.58 -7.75  5.71
Si  0.58  7.75 -5.71
Si -2.94 -8.90 -2.45
Si  2.94  8.90  2.45
Si  5.53 -5.55 -5.71
Si -5.53  5.55  5.71
Si -1.04  7.77  5.71
Si  1.04 -7.77 -5.71
Si -3.28 -5.44 -7.34
Si  3.28  5.44  7.34
Si -1.13 -8.79 -4.08
Si  1.13  8.79  4.08
Si -3.38  2.21  8.97
Si  3.38 -2.21 -8.97
Si  7.83 -4.36 -4.08
Si -7.83  4.36  4.08
Si -0.65  8.95 -4.08
Si  0.65 -8.95  4.08
Si  5.98  7.82 -0.82
Si -5.98 -7.82  0.82
Si -3.79  5.44  7.34
Si  3.79 -5.44 -7.34
Si  6.94 -6.62  2.45
Si -6.94  6.62 -2.45
Si -8.77  2.14  4.08
Si  8.77 -2.14 -4.08
Si  5.87  3.23  7.34
Si -5.87 -3.23 -7.34
Si  9.36  3.27  0.82
Si -9.36 -3.27 -0.82
Si  3.70  2.21  8.97
Si -3.70 -2.21 -8.97
Si  4.32  0.01 -8.97
Si -4.32 -0.01  8.97
Si -2.49 -7.77 -5.71
Si  2.49  7.77  5.71
Si  6.62  1.21 -7.34
Si -6.62 -1.21  7.34
Si -2.40  8.79  4.08
Si  2.40 -8.79 -4.08
Si  8.91  2.14  4.08
Si -8.91 -2.14 -4.08
Si -0.86  4.45 -8.97
Si  0.86 -4.45  8.97
Si  1.10  4.42  8.97
Si -1.10 -4.42 -8.97
Si  0.15 -10.03  0.82
Si -0.15 10.03 -0.82
Si -2.96  7.75 -5.71
Si  2.96 -7.75  5.71
Si  9.77  0.03  2.45
Si -9.77 -0.03 -2.45
Si  6.44 -7.71 -0.82
Si -6.44  7.71  0.82
Si  1.58  9.92  0.82
Si -1.58 -9.92 -0.82
Si  7.21  6.62 -2.45
Si -7.21 -6.62  2.45
Si -8.07 -4.51  4.08
Si  8.07  4.51 -4.08
Si -4.13  8.90  2.45
Si  4.13 -8.90 -2.45
Si  7.68  3.34  5.71
Si -7.68 -3.34 -5.71
Si  1.96 -9.92 -0.82
Si -1.96  9.92  0.82
Si -8.36 -1.10  5.71
Si  8.36  1.10 -5.71
Si  2.88  8.95 -4.08
Si -2.88 -8.95  4.08
Si -4.62 -8.84  2.45
Si  4.62  8.84 -2.45
Si  8.57  5.60 -0.82
Si -8.57 -5.60  0.82
Si -2.43  4.42  8.97
Si  2.43 -4.42 -8.97
Si 10.22  1.16 -0.82
Si -10.22 -1.16  0.82
Si -6.88  6.58  4.08
Si  6.88 -6.58 -4.08
Si -2.67 -4.45  8.97
Si  2.67  4.45 -8.97
Si -6.71 -5.53  5.71
Si  6.71  5.53 -5.71
Si  6.58 -3.43  7.34
Si -6.58  3.43 -7.34
Si  4.12  7.75 -5.71
Si -4.12 -7.75  5.71
Si -4.98 -5.64  7.34
Si  4.98  5.64 -7.34
Si -9.72 -0.08  4.08
Si  9.72  0.08 -4.08
Si  7.52 -1.21  7.34
Si -7.52  1.21 -7.34
Si  7.26  6.58  4.08
Si -7.26 -6.58 -4.08
Si  3.38 10.03 -0.82
Si -3.38 -10.03  0.82
Si -0.69 -7.66 -7.34
Si  0.69  7.66  7.34
Si -5.27 -2.23  8.97
Si  5.27  2.23 -8.97
Si -10.06  3.38 -0.82
Si 10.06 -3.38  0.82
Si  0.95 -0.12 10.60
Si -0.95  0.12 -10.60
Si -8.38  3.32 -5.71
Si  8.38 -3.32  5.71
Si -4.58  7.77  5.71
Si  4.58 -7.77 -5.71
Si -5.34  2.23 -8.97
Si  5.34 -2.23  8.97
Si  4.19 -8.95  4.08
Si -4.19  8.95 -4.08
Si  3.69 -10.03  0.82
Si -3.69 10.03 -0.82
Si -9.12  5.60 -0.82
Si  9.12 -5.60  0.82
Si -4.67 -8.79 -4.08
Si  4.67  8.79  4.08
Si  1.15 -7.86  7.34
Si -1.15  7.86 -7.34
Si -9.56  4.47  2.45
Si  9.56 -4.47 -2.45
Si  5.63 -5.64  7.34
Si -5.63  5.64 -7.34
Si -0.00  2.34 -10.60
Si  0.00 -2.34 10.60
Si  7.44 -5.53  5.71
Si -7.44  5.53 -5.71
Si  2.59  0.12 -10.60
Si -2.59 -0.12 10.60
Si -7.71 -7.71 -0.82
Si  7.71  7.71  0.82
Si -1.65  2.10 10.60
Si  1.65 -2.10 -10.60
Si  4.40 -4.45  8.97
Si -4.40  4.45 -8.97
Si -5.99  8.84 -2.45
Si  5.99 -8.84  2.45
Si -6.29  0.01 -8.97
Si  6.29 -0.01  8.97
Si -1.89 -2.10 -10.60
Si  1.89  2.10 10.60
Si -2.85  7.66  7.34
Si  2.85 -7.66 -7.34
Si  9.32 -1.10  5.71
Si -9.32  1.10 -5.71
Si  2.38  7.86 -7.34
Si -2.38 -7.86  7.34
Si 10.51 -2.25 -2.45
Si -10.51  2.25  2.45
Si  9.80  4.40 -2.45
Si -9.80 -4.40  2.45
Si  4.64  4.42  8.97
Si -4.64 -4.42 -8.97
Si -7.57 -3.43  7.34
Si  7.57  3.43 -7.34
Si -11.00  1.16 -0.82
Si 11.00 -1.16  0.82
Si  8.62 -6.68 -2.45
Si -8.62  6.68  2.45
Si  0.08  6.66 -8.97
Si -0.08 -6.66  8.97
Si  5.12  9.92  0.82
Si -5.12 -9.92 -0.82
Si -10.71 -2.25 -2.45
Si 10.71  2.25  2.45
Si  8.47  1.01  7.34
Si -8.47 -1.01 -7.34
Si  1.49 -6.64 -8.97
Si -1.49  6.64  8.97
Si -6.47 -8.90 -2.45
Si  6.47  8.90  2.45
Si  8.17 -7.82  0.82
Si -8.17  7.82 -0.82
Si  2.05  6.64  8.97
Si -2.05 -6.64 -8.97
Si  5.94 -8.79 -4.08
Si -5.94  8.79  4.08
Si  5.49 -9.92 -0.82
Si -5.49  9.92  0.82
Si -6.03 -7.77 -5.71
Si  6.03  7.77  5.71
Si -9.62  4.51 -4.08
Si  9.62 -4.51  4.08
Si  0.35 11.12  2.45
Si -0.35 -11.12 -2.45
Si -6.82 -5.44 -7.34
Si  6.82  5.44  7.34
Si -9.30 -3.32  5.71
Si  9.30  3.32 -5.71
Si -3.53 -2.34 10.60
Si  3.53  2.34 -10.60
Si  3.54 -2.34 10.60
Si -3.54  2.34 -10.60
Si -4.23 -7.66 -7.34
Si  4.23  7.66  7.34
Si -1.51 11.05 -2.45
Si  1.51 -11.05  2.45
Si -0.70  4.31 10.60
Si  0.70 -4.31 -10.60
Si -2.02 -11.05  2.45
Si  2.02 11.05 -2.45
Si  0.10 -9.99 -5.71
Si -0.10  9.99  5.71
Si  4.48 -0.12 10.60
Si -4.48  0.12 -10.60
Si  8.27 -3.23 -7.34
Si -8.27  3.23  7.34
