500
set: 1067.00  0.00  0.00
Si -0.35  1.16 -0.85
Si  0.42 -1.22  0.83
Si -1.30 -1.11 -0.80
Si  1.26  1.06  0.94
Si -2.15  1.14  0.78
Si  0.84  0.01 -2.46
Si -0.88  0.17  2.45
Si  2.15 -1.22 -0.83
Si  2.93  1.11 -0.77
Si  0.01 -2.37 -2.43
Si -3.10 -1.16  0.77
Si  0.11  2.50  2.36
Si -1.68 -2.15  2.36
Si -2.64  0.04 -2.45
Si  2.63 -0.06  2.48
Si  0.49  3.54 -0.80
Si -1.65  2.29 -2.43
Si -0.53 -3.59  0.94
Si  1.71 -2.33  2.41
Si  1.79  2.28 -2.43
Si  1.14 -3.54 -0.77
Si -1.32  3.49  0.77
Si  3.85 -1.16  0.77
Si  2.21  3.43  0.83
Si  0.90 -0.05  4.06
Si -2.13 -3.50 -0.85
Si -0.78  0.18 -4.13
Si -4.02  1.11 -0.77
Si -3.01  3.43 -0.83
Si -0.05 -2.32  4.03
Si  3.01 -3.51  0.78
Si  0.02  2.49 -4.04
Si -2.54 -0.04  4.06
Si -3.45  2.32  2.41
Si -3.43 -2.36 -2.43
Si  3.50  2.32  2.41
Si  2.61 -0.00 -4.08
Si  3.52 -2.36 -2.43
Si -1.77 -2.16 -4.04
Si  4.31  0.04 -2.45
Si  1.74  2.33  4.03
Si  1.74 -2.38 -4.00
Si -4.32 -0.06  2.48
Si  4.80  1.14  0.78
Si -1.75  2.36  4.04
Si -4.80 -1.22 -0.83
Si  3.94  3.43 -0.83
Si -3.94 -3.51  0.78
Si -0.94 -4.64 -2.46
Si -0.86  4.69 -2.45
Si  0.85 -4.71  2.48
Si  0.91  4.82  2.45
Si  0.37 -1.26 -5.55
Si -3.43  2.27 -4.00
Si -2.66 -4.49  2.45
Si  3.42 -2.29  4.04
Si  3.52  2.27 -4.00
Si  2.52 -4.62 -2.45
Si -2.53  4.60  2.48
Si  5.65 -1.11 -0.80
Si -0.41  1.21  5.69
Si -3.53 -2.29  4.04
Si -0.37  5.80  0.78
Si -5.69  1.06  0.94
Si  2.63  4.66 -2.46
Si -1.24 -1.17  5.64
Si -4.74  3.43  0.83
Si  1.31  1.10 -5.66
Si  0.37 -5.87 -0.83
Si -4.34 -0.00 -4.08
Si  4.41 -0.04  4.06
Si  4.82 -3.50 -0.85
Si  1.44  5.81 -0.85
Si -1.36 -5.87  0.83
Si -5.16  2.28 -2.43
Si  5.28 -2.15  2.36
Si -0.76  4.62  4.06
Si  2.04 -1.22  5.72
Si -5.24 -2.33  2.41
Si  2.06 -5.81  0.77
Si -2.24  5.76 -0.77
Si -2.21  1.16 -5.72
Si  0.82 -4.65 -4.08
Si  5.30  2.29 -2.43
Si -0.88 -4.70  4.06
Si  1.00  4.83 -4.13
Si  3.05  1.11  5.65
Si  3.04  5.71  0.94
Si  6.08  0.17  2.45
Si -3.05 -1.18 -5.71
Si -6.11  0.01 -2.46
Si -3.08 -5.76 -0.80
Si -2.57 -4.47 -4.13
Si  0.55  3.48  5.64
Si  5.63  3.49  0.77
Si  4.29 -4.49  2.45
Si -6.53 -1.22  0.83
Si -2.56  4.65 -4.08
Si -0.47 -3.55 -5.66
Si  2.69  4.61  4.06
Si  2.62 -4.69  4.06
Si  6.60  1.16 -0.85
Si  1.26 -3.55  5.65
Si -1.26  3.47 -5.71
Si -4.32  4.66 -2.46
Si  4.42  4.60  2.48
Si -5.81 -3.54 -0.77
Si -4.43 -4.62 -2.45
Si  2.15  3.39 -5.55
Si  5.18 -2.16 -4.04
Si -3.90  1.11  5.65
Si -3.91  5.71  0.94
Si  3.87 -5.76 -0.80
Si -5.22  2.33  4.03
Si -5.21 -2.38 -4.00
Si  5.20  2.36  4.04
Si -2.19 -3.44  5.69
Si  3.90 -1.18 -5.71
Si -6.05 -0.05  4.06
Si  2.95 -3.49 -5.72
Si  0.14  6.94 -2.43
Si -3.13  3.43  5.72
Si -0.07 -6.98  2.41
Si -0.41  1.21 -7.29
Si -6.46  3.54 -0.80
Si  6.42 -3.59  0.94
Si  6.17  0.18 -4.13
Si -7.30  1.16 -0.85
Si -4.26  4.61  4.06
Si  4.71  5.76 -0.77
Si  4.38 -4.47 -4.13
Si  1.31  1.10  7.32
Si  7.37 -1.22  0.83
Si  4.74  1.16 -5.72
Si -1.24 -1.17 -7.33
Si  0.37 -1.27  7.43
Si -4.33 -4.69  4.06
Si -1.67  6.97  2.41
Si  4.39  4.65 -4.08
Si  1.73 -7.01 -2.43
Si  2.04 -1.22 -7.25
Si -4.89 -5.81  0.77
Si -1.78 -7.02 -2.43
Si -4.91 -1.22  5.72
Si -6.84  2.50  2.36
Si -2.21  1.16  7.26
Si  3.82  3.43  5.72
Si -6.94 -2.37 -2.43
Si  6.96 -2.37 -2.43
Si  1.90  7.16  2.36
Si -4.00 -3.49 -5.72
Si  7.06  2.50  2.36
Si -3.05 -1.18  7.27
Si  6.01 -4.64 -2.46
Si -3.46 -6.80  2.36
Si  3.49 -6.80  2.36
Si  3.05  1.11 -7.32
Si -5.51  5.81 -0.85
Si -5.64  1.10 -5.66
Si  6.09  4.69 -2.45
Si -3.37  6.93 -2.43
Si -4.80  3.39 -5.55
Si  0.04  7.01  4.04
Si -0.05 -7.03 -4.00
Si -6.11 -4.71  2.48
Si -6.04  4.82  2.45
Si  5.71 -1.17  5.64
Si  0.55  3.48 -7.33
Si -0.47 -3.55  7.32
Si  5.59 -5.87  0.83
Si -1.26  3.47  7.27
Si -1.64  6.92 -4.00
Si -0.43  5.82 -5.72
Si  3.58  6.93 -2.43
Si  7.79  0.01 -2.46
Si  4.76 -3.44  5.69
Si  0.47  8.14  0.77
Si  1.63 -6.94  4.04
Si  0.25 -5.87  5.72
Si -7.83  0.17  2.45
Si -1.23  8.08 -0.83
Si  1.26 -3.54 -7.32
Si -1.42 -5.92 -5.55
Si -0.64 -8.19 -0.77
Si -1.84 -6.97  4.03
Si  7.44  3.54 -0.80
Si  1.38  5.86  5.69
Si  1.23 -8.16  0.78
Si  6.90 -2.32  4.03
Si  8.21  1.06  0.94
Si  3.90 -1.18  7.27
Si -2.12  5.76  5.65
Si -7.48 -3.59  0.94
Si -2.19 -3.44 -7.29
Si -8.25 -1.11 -0.80
Si -3.90  1.11 -7.32
Si  1.80  7.14 -4.04
Si -6.93  2.49 -4.04
Si -7.00 -2.32  4.03
Si  6.97  2.49 -4.04
Si  2.12 -5.83 -5.71
Si  2.15  3.39  7.43
Si  2.27  8.19 -0.80
Si  2.96 -3.49  7.26
Si -2.31 -8.24  0.94
Si -3.13  3.44 -7.25
Si  3.40 -6.81 -4.04
Si -2.96  8.08  0.83
Si  3.10  5.75 -5.66
Si -3.02 -5.82  5.64
Si -3.55 -6.81 -4.04
Si  6.07 -4.70  4.06
Si -5.95  4.83 -4.13
Si -6.58 -1.26 -5.55
Si -6.13 -4.65 -4.08
Si  6.20  4.62  4.06
Si  3.03 -8.15 -0.85
Si  4.74  1.16  7.26
Si  6.54  1.21  5.69
Si -3.43  6.98  4.03
Si -7.73  0.18 -4.13
Si -5.69 -3.55  5.65
Si  5.69  3.47 -5.71
Si  3.52  6.98  4.03
Si  6.58  5.80  0.78
Si  7.85 -0.05  4.06
Si -4.92 -1.22 -7.25
Si -6.58 -5.87 -0.83
Si  8.09 -3.54 -0.77
Si -0.78  0.18  8.85
Si  3.82  3.44 -7.25
Si -3.85  5.75 -5.66
Si  0.90 -0.05 -8.91
Si -4.00 -3.49  7.26
Si -8.27  3.49  0.77
Si  3.93 -5.82  5.64
Si  3.99  8.08  0.83
Si  5.17 -7.02 -2.43
Si -5.22 -7.01 -2.43
Si -5.05  7.16  2.36
Si  5.29  6.97  2.41
Si -3.92 -8.15 -0.85
Si -8.63 -2.15  2.36
Si -9.11  1.14  0.78
Si -6.40  3.48  5.64
Si  9.11 -1.22 -0.83
Si -8.60  2.29 -2.43
Si -0.05 -2.32 -8.95
Si  2.61 -0.00  8.89
Si  7.32 -1.26 -5.55
Si -2.54 -0.04 -8.92
Si  0.02  2.49  8.94
Si  8.66 -2.33  2.41
Si -5.64  1.10  7.32
Si  6.48 -3.55 -5.66
Si -0.42  5.82  7.26
Si  0.25 -5.87 -7.25
Si  8.74  2.28 -2.43
Si  4.76 -3.44 -7.29
Si -1.77 -2.16  8.94
Si -7.32  5.80  0.78
Si  5.71 -1.17 -7.33
Si -7.36  1.21  5.69
Si  4.83  5.76  5.65
Si  1.73  2.33 -8.95
Si -1.75  2.36 -8.94
Si  7.32 -5.87 -0.83
Si -7.81  4.69 -2.45
Si  7.80 -4.71  2.48
Si  1.74 -2.38  8.97
Si  1.38  5.87 -7.29
Si -4.68  8.19 -0.80
Si -4.80  3.39  7.43
Si -7.89 -4.64 -2.46
Si -4.83 -5.83 -5.71
Si  4.64 -8.24  0.94
Si  5.11 -6.97  4.03
Si  7.86  4.82  2.45
Si -2.12  5.76 -7.32
Si  2.12 -5.83  7.27
Si  5.31  6.92 -4.00
Si -1.42 -5.92  7.43
Si -0.75  9.25  2.48
Si  0.74 -9.27 -2.45
Si -5.32 -6.94  4.04
Si -5.15  7.14 -4.04
Si  0.93  9.34 -2.45
Si -0.94 -9.36  2.48
Si -9.08 -3.50 -0.85
Si  2.50 -9.14  2.45
Si  3.10  5.75  7.32
Si  9.16  3.43  0.83
Si  5.53 -5.92 -5.55
Si -3.03 -5.82 -7.33
Si  3.42 -2.29 -8.94
Si -8.72 -2.16 -4.04
Si  8.69  2.33  4.03
Si -7.71  4.62  4.06
Si  8.69 -2.38 -4.00
Si  5.69  3.47  7.27
Si -3.43  2.27  8.97
Si  6.54  1.21 -7.29
Si -8.70  2.36  4.04
Si -3.54 -2.29 -8.94
Si -5.57  5.86  5.69
Si -4.34 -0.00  8.89
Si  9.58 -0.06  2.48
Si -9.59  0.04 -2.45
Si  3.52  2.27  8.97
Si -5.69 -3.54 -7.32
Si  7.77 -4.65 -4.08
Si  5.72  8.08 -0.83
Si  0.52  8.12 -5.71
Si  4.41 -0.04 -8.92
Si -2.54  9.31 -2.46
Si  9.88  1.11 -0.77
Si -0.52 -8.20  5.65
Si -7.42 -3.55 -5.66
Si -2.73 -9.30 -2.46
Si -1.34  8.09  5.72
Si -5.73 -8.16  0.78
Si -7.83 -4.70  4.06
Si -6.58 -1.27  7.43
Si  7.50  3.48  5.64
Si -8.19 -1.17  5.64
Si  1.17 -8.14 -5.72
Si -6.81  6.94 -2.43
Si -0.76  4.62 -8.92
Si  0.82 -4.65  8.89
Si -3.85  5.75  7.32
Si  8.26  1.10 -5.66
Si  6.88 -6.98  2.41
Si -0.89 -4.70 -8.91
Si  1.00  4.83  8.85
Si  2.70  9.47  2.45
Si -10.05 -1.16  0.77
Si  3.92 -5.82 -7.33
Si  2.33  8.13  5.64
Si  1.03  9.27  4.06
Si  7.95  4.83 -4.13
Si -0.77  9.30 -4.08
Si -7.02 -6.98  2.41
Si -0.96 -9.30 -4.08
Si  7.09  6.94 -2.43
Si -8.31 -5.87  0.83
Si -2.26 -8.20 -5.66
Si  0.84 -9.34  4.06
Si -3.01  8.04 -5.55
Si  8.39  5.81 -0.85
Si -2.57 -4.47  8.85
Si -9.49 -0.04  4.06
Si  2.97 -8.09  5.69
Si -6.41  3.48 -7.33
Si  2.60 -9.12 -4.13
Si -2.56  4.65  8.89
Si  6.31 -8.19 -0.77
Si  2.69  4.61 -8.91
Si  9.56 -0.00 -4.08
Si  6.48 -3.55  7.32
Si -2.48  9.26  4.06
Si  2.62 -4.69 -8.92
Si -7.36  1.21 -7.29
Si -6.48  8.14  0.77
Si  6.53  5.82 -5.72
Si -0.45 10.41 -0.77
Si -4.45 -9.14  2.45
Si  4.83  5.76 -7.32
Si  0.28 -10.46  0.77
Si -4.83 -5.83  7.27
Si  7.32 -1.27  7.43
Si  4.22 -9.30 -2.46
Si  3.94  8.04 -5.55
Si -2.67 -9.35  4.06
Si  0.84  0.01 10.52
Si  5.18 -2.16  8.94
Si -0.88  0.17 -10.53
Si -9.96  3.43 -0.83
Si  1.42 10.45  0.78
Si  8.21 -3.55  5.65
Si -6.70 -5.87  5.72
Si -8.21  3.47 -5.71
Si  9.96 -3.51  0.78
Si  4.41  9.31 -2.46
Si  5.20  2.36 -8.94
Si -5.22  2.33 -8.95
Si -2.12 10.36  0.94
Si  6.90 -7.03 -4.00
Si -6.91  7.01  4.04
Si -5.21 -2.38  8.97
Si -1.42 -10.52 -0.83
Si  2.08 -10.41 -0.80
Si -3.98 -8.09  5.69
Si -4.25  9.47  2.45
Si  6.99  7.01  4.04
Si -7.00 -7.03 -4.00
Si  2.79  9.48 -4.13
Si  8.99 -1.22  5.72
Si  9.01 -5.81  0.77
Si -6.05 -0.05 -8.91
Si  6.17  0.18  8.85
Si  0.01 -2.37 10.55
Si  2.63 -0.05 -10.49
Si  9.47 -4.62 -2.45
Si -9.48  4.60  2.48
Si  4.38 -4.47  8.85
Si -2.64  0.04 10.53
Si -9.16  1.16 -5.72
Si -9.19  5.76 -0.77
Si -9.61 -4.49  2.45
Si 10.80 -1.16  0.77
Si -5.57  5.87 -7.29
Si -4.26  4.61 -8.91
Si  0.11  2.51 -10.62
Si  7.20 -5.87  5.72
Si  0.52  8.12  7.27
Si -4.35 -9.12 -4.13
Si -1.65  2.29 10.55
Si -4.62  8.13  5.64
Si -10.38 -2.36 -2.43
Si -10.40  2.32  2.41
Si  9.58  4.66 -2.46
Si  1.79  2.28 10.55
Si -1.34  8.09 -7.25
Si  4.39  4.65  8.89
Si -1.68 -2.15 -10.62
Si  1.71 -2.33 -10.57
Si -4.33 -4.69 -8.92
Si  1.17 -8.14  7.26
Si 10.45  2.32  2.41
Si  3.22 10.46 -0.85
Si  5.53 -5.92  7.43
Si -7.38  5.82 -5.72
Si 10.47 -2.36 -2.43
Si -0.53 -8.20 -7.32
Si -7.42 -3.55  7.32
Si  4.69 -8.20 -5.66
Si -3.15 -10.53  0.83
Si  7.42  8.14  0.77
Si  7.50  3.48 -7.33
Si  4.47  9.26  4.06
Si -10.97  1.11 -0.77
Si  4.28 -9.35  4.06
Si -8.19 -1.17 -7.33
Si  8.27  1.10  7.32
Si -3.73 10.46 -0.85
Si -4.16  9.48 -4.13
Si  9.10  3.39 -5.55
Si  2.33  8.13 -7.33
Si -7.59 -8.19 -0.77
Si -2.26 -8.20  7.32
Si  3.80 -10.53  0.83
Si  2.97 -8.09 -7.29
Si -9.52 -4.47 -4.13
Si -9.14 -3.44  5.69
Si -3.43 -2.36 10.55
Si -8.62  6.97  2.41
Si -9.51  4.65 -4.08
Si -4.32 -0.05 -10.49
Si -3.01  8.04  7.43
Si -10.38  2.27 -4.00
Si 10.37 -2.29  4.04
Si  6.53  5.82  7.26
Si -3.45  2.32 -10.57
Si  0.04  7.01 -8.94
Si  3.52 -2.36 10.55
Si  4.31  0.04 10.53
Si  3.50  2.32 -10.57
Si -6.02  9.34 -2.45
Si  5.61  8.09  5.72
Si  6.01 -9.36  2.48
Si -0.05 -7.03  8.97
Si  9.57 -4.69  4.06
Si  6.20  9.25  2.48
Si  8.68 -7.01 -2.43
Si -6.21 -9.27 -2.45
Si  9.64  4.61  4.06
Si  1.63 -6.94 -8.94
Si 10.47  2.27 -4.00
Si 10.89  3.43 -0.83
Si -1.64  6.92  8.97
Si -8.73 -7.02 -2.43
Si -10.48 -2.29  4.04
Si -10.89 -3.51  0.78
Si  4.83 10.36  0.94
Si -6.70 -5.87 -7.25
Si -1.84 -6.97 -8.95
Si -8.21  3.47  7.27
Si -5.78 -8.14 -5.72
Si 11.26  0.04 -2.45
Si -4.87 -10.41 -0.80
Si -8.18  8.08 -0.83
Si  0.84 -4.71 -10.49
Si  6.90 -2.32 -8.95
Si -0.94 -4.65 10.52
Si 10.00  1.11  5.65
Si -11.27 -0.06  2.48
Si  9.99  5.71  0.94
Si -0.85  4.69 10.53
Si  8.21 -3.54 -7.32
Si -10.00 -1.18 -5.71
