500
set: 49.00  0.00  0.00
Si  0.00  0.00  0.00
Si  0.29  0.32  2.39
Si -0.29 -0.32 -2.39
Si  1.19  2.19  0.00
Si -1.19 -2.19  0.00
Si -1.45  2.19  0.00
Si  1.45 -2.19  0.00
Si  2.64  0.00  0.00
Si -2.64  0.00  0.00
Si  0.90  1.87 -2.39
Si -0.90 -1.87  2.39
Si -2.35  0.32  2.39
Si  2.35 -0.32 -2.39
Si  1.75 -1.87  2.39
Si -1.75  1.87 -2.39
Si  1.16 -2.51 -2.39
Si -1.16  2.51  2.39
Si -1.49 -2.51 -2.39
Si  1.49  2.51  2.39
Si  2.94  0.32  2.39
Si -2.94 -0.32 -2.39
Si  0.26 -4.38  0.00
Si -0.26  4.38  0.00
Si  3.84  2.19  0.00
Si -3.84 -2.19  0.00
Si -4.09  2.19  0.00
Si  4.09 -2.19  0.00
Si  3.54  1.87 -2.39
Si -3.54 -1.87  2.39
Si  0.55 -4.06  2.39
Si -0.55  4.06 -2.39
Si -0.59 -0.64 -4.79
Si  0.59  0.64  4.79
Si  2.39  4.38  0.00
Si -2.39 -4.38  0.00
Si -0.60 -1.55  4.79
Si  0.60  1.55 -4.79
Si -3.80  2.51  2.39
Si  3.80 -2.51 -2.39
Si -2.09 -4.06  2.39
Si  2.09  4.06 -2.39
Si  2.05 -0.64 -4.79
Si -2.05  0.64  4.79
Si -2.90  4.38  0.00
Si  2.90 -4.38  0.00
Si -0.04 -4.70 -2.39
Si  0.04  4.70  2.39
Si  5.29  0.00  0.00
Si -5.29  0.00  0.00
Si -4.39  1.87 -2.39
Si  4.39 -1.87  2.39
Si  4.13  2.51  2.39
Si -4.13 -2.51 -2.39
Si  2.04 -1.55  4.79
Si -2.04  1.55 -4.79
Si -4.99  0.32  2.39
Si  4.99 -0.32 -2.39
Si -0.86  2.83  4.79
Si  0.86 -2.83 -4.79
Si -3.20  4.06 -2.39
Si  3.20 -4.06  2.39
Si -3.23 -0.64 -4.79
Si  3.23  0.64  4.79
Si  1.78  2.83  4.79
Si -1.78 -2.83 -4.79
Si  2.61 -4.70 -2.39
Si -2.61  4.70  2.39
Si -2.68 -4.70 -2.39
Si  2.68  4.70  2.39
Si -3.25 -1.55  4.79
Si  3.25  1.55 -4.79
Si -5.58 -0.32 -2.39
Si  5.58  0.32  2.39
Si -0.85  3.74 -4.79
Si  0.85 -3.74  4.79
Si  1.80  3.74 -4.79
Si -1.80 -3.74  4.79
Si -3.50  2.83  4.79
Si  3.50 -2.83 -4.79
Si  0.94  6.56  0.00
Si -0.94 -6.56  0.00
Si -5.03 -4.38  0.00
Si  5.03  4.38  0.00
Si  4.74  4.06 -2.39
Si -4.74 -4.06  2.39
Si -0.64 -6.25  2.39
Si  0.64  6.25 -2.39
Si -4.70  0.64  4.79
Si  4.70 -0.64 -4.79
Si  1.71 -6.56  0.00
Si -1.71  6.56  0.00
Si -6.48 -2.19  0.00
Si  6.48  2.19  0.00
Si  4.68 -1.55  4.79
Si -4.68  1.55 -4.79
Si  6.18  1.87 -2.39
Si -6.18 -1.87  2.39
Si  0.33  5.01  4.79
Si -0.33 -5.01 -4.79
Si  2.00 -6.25  2.39
Si -2.00  6.25 -2.39
Si -3.49  3.74 -4.79
Si  3.49 -3.74  4.79
Si -5.54  4.38  0.00
Si  5.54 -4.38  0.00
Si  6.74 -2.19  0.00
Si -6.74  2.19  0.00
Si  4.43  2.83  4.79
Si -4.43 -2.83 -4.79
Si  0.31  1.23 -7.18
Si -0.31 -1.23  7.18
Si -0.88 -0.96 -7.18
Si  0.88  0.96  7.18
Si -2.31  5.01  4.79
Si  2.31 -5.01 -4.79
Si  6.44 -2.51 -2.39
Si -6.44  2.51  2.39
Si  1.23  6.88  2.39
Si -1.23 -6.88 -2.39
Si -1.41  6.88  2.39
Si  1.41 -6.88 -2.39
Si -5.25  4.70  2.39
Si  5.25 -4.70 -2.39
Si  3.28  6.25 -2.39
Si -3.28 -6.25  2.39
Si -1.76  0.96  7.18
Si  1.76 -0.96 -7.18
Si  3.58  6.56  0.00
Si -3.58 -6.56  0.00
Si -5.32 -4.70 -2.39
Si  5.32  4.70  2.39
Si -5.84  4.06 -2.39
Si  5.84 -4.06  2.39
Si -4.44 -3.74  4.79
Si  4.44  3.74 -4.79
Si  2.98  5.01  4.79
Si -2.98 -5.01 -4.79
Si  5.88  0.64  4.79
Si -5.88 -0.64 -4.79
Si -6.78 -2.51 -2.39
Si  6.78  2.51  2.39
Si -0.35 -5.92  4.79
Si  0.35  5.92 -4.79
Si -2.33  1.23 -7.18
Si  2.33 -1.23  7.18
Si -7.03  1.87 -2.39
Si  7.03 -1.87  2.39
Si  5.89  1.55 -4.79
Si -5.89 -1.55  4.79
Si  0.57 -3.15 -7.18
Si -0.57  3.15  7.18
Si -2.95 -1.23  7.18
Si  2.95  1.23 -7.18
Si  4.35 -6.56  0.00
Si -4.35  6.56  0.00
Si -7.93  0.00  0.00
Si  7.93  0.00  0.00
Si  2.30 -5.92  4.79
Si -2.30  5.92 -4.79
Si  7.64 -0.32 -2.39
Si -7.64  0.32  2.39
Si -1.14  3.42 -7.18
Si  1.14 -3.42  7.18
Si  3.53  0.96  7.18
Si -3.53 -0.96 -7.18
Si  1.50  3.42 -7.18
Si -1.50 -3.42  7.18
Si  2.08  3.15  7.18
Si -2.08 -3.15 -7.18
Si  4.65 -6.25  2.39
Si -4.65  6.25 -2.39
Si  2.99  5.92 -4.79
Si -2.99 -5.92  4.79
Si  3.87  6.88  2.39
Si -3.87 -6.88 -2.39
Si -6.15  2.83  4.79
Si  6.15 -2.83 -4.79
Si -4.06  6.88  2.39
Si  4.06 -6.88 -2.39
Si -3.21  3.15  7.18
Si  3.21 -3.15 -7.18
Si  4.40 -0.96 -7.18
Si -4.40  0.96  7.18
Si  4.96 -5.01 -4.79
Si -4.96  5.01  4.79
Si  8.22  0.32  2.39
Si -8.22 -0.32 -2.39
Si -6.13  3.74 -4.79
Si  6.13 -3.74  4.79
Si -1.12  7.20  4.79
Si  1.12 -7.20 -4.79
Si  7.38  4.06 -2.39
Si -7.38 -4.06  2.39
Si -0.52  8.75  0.00
Si  0.52 -8.75  0.00
Si  1.52  7.20  4.79
Si -1.52 -7.20 -4.79
Si -7.34  0.64  4.79
Si  7.34 -0.64 -4.79
Si  0.81 -8.43  2.39
Si -0.81  8.43 -2.39
Si  3.79 -3.42  7.18
Si -3.79  3.42 -7.18
Si  4.98 -1.23  7.18
Si -4.98  1.23 -7.18
Si -7.67 -4.38  0.00
Si  7.67  4.38  0.00
Si  7.33 -1.55  4.79
Si -7.33  1.55 -4.79
Si -5.62 -5.01 -4.79
Si  5.62  5.01  4.79
Si -5.93 -6.25  2.39
Si  5.93  6.25 -2.39
Si  1.83  8.43 -2.39
Si -1.83 -8.43  2.39
Si -0.63 -5.33 -7.18
Si  0.63  5.33  7.18
Si  4.14  3.42 -7.18
Si -4.14 -3.42  7.18
Si  7.07  2.83  4.79
Si -7.07 -2.83 -4.79
Si -2.13 -8.75  0.00
Si  2.13  8.75  0.00
Si  6.22  6.56  0.00
Si -6.22 -6.56  0.00
Si -4.94  5.92 -4.79
Si  4.94 -5.92  4.79
Si  0.05  5.61 -7.18
Si -0.05 -5.61  7.18
Si  4.72  3.15  7.18
Si -4.72 -3.15 -7.18
Si  2.02 -5.33 -7.18
Si -2.02  5.33  7.18
Si  5.60  1.23 -7.18
Si -5.60 -1.23  7.18
Si -8.19  4.38  0.00
Si  8.19 -4.38  0.00
Si -3.16  8.75  0.00
Si  3.16 -8.75  0.00
Si  7.08  3.74 -4.79
Si -7.08 -3.74  4.79
Si  8.83  1.87 -2.39
Si -8.83 -1.87  2.39
Si -9.12 -2.19  0.00
Si  9.12  2.19  0.00
Si -0.22  9.07  2.39
Si  0.22 -9.07 -2.39
Si  3.45 -8.43  2.39
Si -3.45  8.43 -2.39
Si -3.76  7.20  4.79
Si  3.76 -7.20 -4.79
Si -2.59  5.61 -7.18
Si  2.59 -5.61  7.18
Si  5.63  5.92 -4.79
Si -5.63 -5.92  4.79
Si  1.10 -8.11  4.79
Si -1.10  8.11 -4.79
Si  7.89 -4.70 -2.39
Si -7.89  4.70  2.39
Si  2.69  5.61 -7.18
Si -2.69 -5.61  7.18
Si  6.17  0.96  7.18
Si -6.17 -0.96 -7.18
Si  3.27  5.33  7.18
Si -3.27 -5.33 -7.18
Si -1.54 -8.11  4.79
Si  1.54  8.11 -4.79
Si  7.97  4.70  2.39
Si -7.97 -4.70 -2.39
Si -7.00  6.56  0.00
Si  7.00 -6.56  0.00
Si -4.17 -7.20 -4.79
Si  4.17  7.20  4.79
Si  0.01  0.91 -9.57
Si -0.01 -0.91  9.57
Si  9.38 -2.19  0.00
Si -9.38  2.19  0.00
Si -2.42 -9.07 -2.39
Si  2.42  9.07  2.39
Si -8.48  4.06 -2.39
Si  8.48 -4.06  2.39
Si -9.09  2.51  2.39
Si  9.09 -2.51 -2.39
Si  1.18  1.28  9.57
Si -1.18 -1.28 -9.57
Si  1.47 -1.28 -9.57
Si -1.47  1.28  9.57
Si -6.52 -6.88 -2.39
Si  6.52  6.88  2.39
Si -5.85  3.15  7.18
Si  5.85 -3.15 -7.18
Si  8.52  0.64  4.79
Si -8.52 -0.64 -4.79
Si -2.87  9.07  2.39
Si  2.87 -9.07 -2.39
Si -4.48 -8.43  2.39
Si  4.48  8.43 -2.39
Si -7.29  6.25 -2.39
Si  7.29 -6.25  2.39
Si -6.70  6.88  2.39
Si  6.70 -6.88 -2.39
Si -8.54 -1.55  4.79
Si  8.54  1.55 -4.79
Si -2.63  0.91 -9.57
Si  2.63 -0.91  9.57
Si -4.77 -8.75  0.00
Si  4.77  8.75  0.00
Si -2.66 -0.91  9.57
Si  2.66  0.91 -9.57
Si -9.42 -2.51 -2.39
Si  9.42  2.51  2.39
Si -4.66  5.33  7.18
Si  4.66 -5.33 -7.18
Si  7.05 -0.96 -7.18
Si -7.05  0.96  7.18
Si  1.21  3.10 -9.57
Si -1.21 -3.10  9.57
Si -3.75  8.11 -4.79
Si  3.75 -8.11  4.79
Si -9.68  1.87 -2.39
Si  9.68 -1.87  2.39
Si  1.44 -3.10  9.57
Si -1.44  3.10 -9.57
Si  0.27 -3.47 -9.57
Si -0.27  3.47  9.57
Si -6.43  3.42 -7.18
Si  6.43 -3.42  7.18
Si -7.60  5.01  4.79
Si  7.60 -5.01 -4.79
Si  4.18  8.11 -4.79
Si -4.18 -8.11  4.79
Si  3.82  1.28  9.57
Si -3.82 -1.28 -9.57
Si -8.79  2.83  4.79
Si  8.79 -2.83 -4.79
Si  0.82 -7.52 -7.18
Si -0.82  7.52  7.18
Si -2.37 -3.47 -9.57
Si  2.37  3.47  9.57
Si  6.79  3.42 -7.18
Si -6.79 -3.42  7.18
Si -4.11  1.28  9.57
Si  4.11 -1.28 -9.57
Si  5.80 -8.75  0.00
Si -5.80  8.75  0.00
Si  5.24 -5.61  7.18
Si -5.24  5.61 -7.18
Si  0.07  9.39  4.79
Si -0.07 -9.39 -4.79
Si -7.62  1.23 -7.18
Si  7.62 -1.23  7.18
Si -1.82 -7.52 -7.18
Si  1.82  7.52  7.18
Si -5.34 -5.61  7.18
Si  5.34  5.61 -7.18
Si 10.28 -0.32 -2.39
Si -10.28  0.32  2.39
Si 10.57  0.00  0.00
Si -10.57  0.00  0.00
Si -2.92  3.47  9.57
Si  2.92 -3.47 -9.57
Si  5.07  9.07  2.39
Si -5.07 -9.07 -2.39
Si -1.24 -7.79  7.18
Si  1.24  7.79 -7.18
Si  8.78 -3.74  4.79
Si -8.78  3.74 -4.79
Si -6.10  8.43 -2.39
Si  6.10 -8.43  2.39
Si  1.40 -7.79  7.18
Si -1.40  7.79 -7.18
Si -5.91 -5.33 -7.18
Si  5.91  5.33  7.18
Si  7.58 -5.92  4.79
Si -7.58  5.92 -4.79
Si -7.36 -3.15 -7.18
Si  7.36  3.15  7.18
Si -6.41  7.20  4.79
Si  6.41 -7.20 -4.79
Si  3.85  3.10 -9.57
Si -3.85 -3.10  9.57
Si  8.26  5.01  4.79
Si -8.26 -5.01 -4.79
Si -2.57  9.39  4.79
Si  2.57 -9.39 -4.79
Si -4.08  3.10 -9.57
Si  4.08 -3.10  9.57
Si  8.57  6.25 -2.39
Si -8.57 -6.25  2.39
Si -5.51  9.07  2.39
Si  5.51 -9.07 -2.39
Si -2.72 -9.39 -4.79
Si  2.72  9.39  4.79
Si -0.38 -10.62  2.39
Si  0.38 10.62 -2.39
Si -0.24  5.29 -9.57
Si  0.24 -5.29  9.57
Si -0.68 -10.94  0.00
Si  0.68 10.94  0.00
Si  3.47 -7.52 -7.18
Si -3.47  7.52  7.18
Si  5.27 -0.91  9.57
Si -5.27  0.91 -9.57
Si  5.30  0.91 -9.57
Si -5.30 -0.91  9.57
Si -8.24 -1.23  7.18
Si  8.24  1.23 -7.18
Si -6.81 -7.20 -4.79
Si  6.81  7.20  4.79
Si -8.87 -6.56  0.00
Si  8.87  6.56  0.00
Si 10.02  4.06 -2.39
Si -10.02 -4.06  2.39
Si  9.98 -0.64 -4.79
Si -9.98  0.64  4.79
Si -1.97 10.94  0.00
Si  1.97 -10.94  0.00
Si  2.26 -10.62  2.39
Si -2.26 10.62 -2.39
Si -10.87 -0.32 -2.39
Si 10.87  0.32  2.39
Si -0.92 -5.65 -9.57
Si  0.92  5.65  9.57
Si  9.97 -1.55  4.79
Si -9.97  1.55 -4.79
Si  9.71  2.83  4.79
Si -9.71 -2.83 -4.79
Si -2.40 -5.29  9.57
Si  2.40  5.29 -9.57
Si -10.32 -4.38  0.00
Si 10.32  4.38  0.00
Si  8.28  5.92 -4.79
Si -8.28 -5.92  4.79
Si -1.72  5.65  9.57
Si  1.72 -5.65 -9.57
Si  3.89  7.79 -7.18
Si -3.89 -7.79  7.18
Si -7.12 -8.43  2.39
Si  7.12  8.43 -2.39
Si  3.03 10.62 -2.39
Si -3.03 -10.62  2.39
Si  2.89 -5.29  9.57
Si -2.89  5.29 -9.57
Si -4.46 -7.52 -7.18
Si  4.46  7.52  7.18
Si -4.04  7.79 -7.18
Si  4.04 -7.79  7.18
Si  5.01  3.47  9.57
Si -5.01 -3.47 -9.57
Si -0.09 -10.30  4.79
Si  0.09 10.30 -4.79
Si  6.39 -8.11  4.79
Si -6.39  8.11 -4.79
Si  8.81  0.96  7.18
Si -8.81 -0.96 -7.18
Si  3.32 10.94  0.00
Si -3.32 -10.94  0.00
Si -9.73 -3.74  4.79
Si  9.73  3.74 -4.79
Si -7.42 -8.75  0.00
Si  7.42  8.75  0.00
Si  7.30 -5.33 -7.18
Si -7.30  5.33  7.18
Si  0.97 11.26  2.39
Si -0.97 -11.26 -2.39
Si  8.50 -3.15 -7.18
Si -8.50  3.15  7.18
Si -5.56  3.47  9.57
Si  5.56 -3.47 -9.57
Si  6.47  1.28  9.57
Si -6.47 -1.28 -9.57
Si  1.67 -11.26 -2.39
Si -1.67 11.26  2.39
Si  6.83  8.11 -4.79
Si -6.83 -8.11  4.79
Si  2.56 -10.30  4.79
Si -2.56 10.30 -4.79
Si -9.64  6.56  0.00
Si  9.64 -6.56  0.00
Si -3.56 -5.65 -9.57
Si  3.56  5.65  9.57
Si  2.73 10.30 -4.79
Si -2.73 -10.30  4.79
Si -10.83  4.38  0.00
Si 10.83 -4.38  0.00
Si  9.16  6.88  2.39
Si -9.16 -6.88 -2.39
Si -5.21  9.39  4.79
Si  5.21 -9.39 -4.79
Si -10.54  4.70  2.39
Si 10.54 -4.70 -2.39
Si  6.75 -1.28 -9.57
Si -6.75  1.28  9.57
Si -5.36 -9.39 -4.79
Si  5.36  9.39  4.79
Si -10.61 -4.70 -2.39
Si 10.61  4.70  2.39
Si  9.35 -6.88 -2.39
Si -9.35  6.88  2.39
Si -11.47 -1.87  2.39
