500
set: 206.00  0.00  0.00
Si  0.01 -0.00  0.00
Si  1.85  1.09  0.75
Si -0.01 -2.14  0.76
Si -1.87  1.07  0.75
Si  0.01 -0.01 -2.29
Si  3.71 -0.00  0.02
Si  1.86 -3.21  0.01
Si -1.85 -1.07 -3.04
Si -1.86  1.07  3.04
Si -1.86 -3.22 -0.01
Si  0.00 -2.14  3.05
Si -0.00  2.16 -3.03
Si -1.86  3.23 -0.01
Si  1.86  3.23 -0.00
Si -3.73 -0.01  0.03
Si  1.87  1.08  3.05
Si  1.86 -1.09 -3.05
Si -1.86 -1.07  3.78
Si  1.85 -1.07  3.79
Si -3.72 -2.15  0.75
Si -3.72 -0.01 -2.28
Si  0.00  4.30  0.76
Si  1.87  3.22 -2.28
Si -0.00  2.14  3.80
Si -1.86 -3.23 -2.28
Si  3.73 -0.01 -2.28
Si -1.86  3.23 -2.28
Si  3.73 -2.16  0.76
Si  1.87 -3.23 -2.29
Si -0.01 -4.29 -3.03
Si  0.01  4.29  3.05
Si  3.72 -2.16  3.04
Si  3.72  2.16 -3.04
Si -3.73 -2.16  3.04
Si -3.73  2.15 -3.04
Si  5.58  1.07  0.75
Si -3.72  2.15  3.79
Si -3.73  4.29  0.77
Si  0.01  2.15 -5.32
Si -1.86 -5.38  0.75
Si -1.87 -1.08 -5.32
Si  3.72  2.15  3.81
Si  0.01 -4.30  3.81
Si  3.73  4.30  0.75
Si -5.60  1.07  0.75
Si  1.87 -1.07 -5.33
Si  1.86 -5.39  0.77
Si  1.85  1.08 -6.07
Si -5.58 -3.22  0.01
Si  5.58  1.08  3.04
Si -0.01 -6.44 -0.01
Si  1.85  5.38 -3.04
Si  0.00  2.15  6.08
Si  3.73  4.30  3.04
Si  3.72 -4.30 -3.04
Si  1.85 -1.08  6.09
Si  1.85 -5.37  3.05
Si -1.86 -5.38  3.04
Si  5.58  3.24 -0.01
Si -5.58 -1.07 -3.05
Si -1.86 -1.07  6.08
Si -1.86  5.38 -3.04
Si  5.60 -3.22  0.01
Si -1.86  1.07 -6.09
Si -5.60  1.08  3.04
Si -0.01 -2.15 -6.09
Si  5.59 -1.07 -3.05
Si  0.01  6.46  0.01
Si -3.74 -4.30 -3.04
Si -5.60  3.24 -0.01
Si -3.74  4.31  3.05
Si -5.57 -3.22 -2.27
Si -3.72  2.15 -5.31
Si -5.58 -1.07  3.80
Si  3.72 -4.29  3.80
Si -5.58  3.22 -2.29
Si  3.72  2.16 -5.32
Si  0.01 -4.29 -5.33
Si  0.02  6.46 -2.27
Si  5.59  3.22 -2.29
Si  5.60 -1.07  3.80
Si  0.00 -6.46 -2.29
Si  1.87  5.37  3.82
Si  5.61 -3.22 -2.27
Si -3.72 -4.31  3.82
Si  0.02  0.00  6.86
Si -1.87  5.39  3.80
Si -3.73  2.13  6.08
Si -3.72 -2.15 -6.08
Si  7.44 -0.01  0.03
Si -3.73 -6.45 -0.00
Si  3.73 -6.45 -0.01
Si -0.00 -4.29  6.09
Si  0.00  4.31 -6.08
Si  3.73  6.46 -0.01
Si  3.73 -2.16 -6.09
Si  3.73  2.16  6.09
Si -3.73  6.47  0.01
Si -7.47 -0.00  0.02
Si -3.72 -0.01  6.84
Si -1.85  7.52  0.76
Si -3.72  6.45 -2.29
Si  3.73 -6.45 -2.28
Si -7.44 -2.16  0.76
Si  1.87  3.22  6.84
Si -7.45 -0.01 -2.28
Si -1.86  3.21  6.85
Si  3.73  6.46 -2.28
Si  5.59 -1.08 -5.32
Si -5.58 -5.38  0.76
Si  1.87  7.53  0.75
Si -5.59 -1.08 -5.32
Si -1.86 -3.22  6.85
Si  3.73  0.00  6.85
Si  7.46 -2.15  0.75
Si  1.85  5.38 -5.33
Si -3.72 -6.46 -2.28
Si  1.87 -3.24  6.84
Si  5.59 -5.38  0.76
Si -3.74 -4.30 -5.33
Si  7.46 -0.01 -2.28
Si  3.73 -4.29 -5.34
Si -1.86  5.38 -5.34
Si -5.58  1.07 -6.08
Si -1.87 -7.52 -3.04
Si  7.44  2.15 -3.04
Si  5.58  5.38 -3.03
Si -1.87  7.52  3.04
Si  1.86  7.52  3.04
Si  3.72  4.29 -6.08
Si  3.72 -4.29  6.09
Si -3.73  4.30 -6.08
Si  1.86  5.37  6.08
Si  5.59  1.07 -6.08
Si  1.86 -7.53 -3.04
Si  7.45 -2.16  3.04
Si  5.58 -1.07  6.10
Si -7.45  2.16 -3.04
Si -5.58 -5.39  3.05
Si  1.86 -5.38 -6.08
Si -5.60  5.38 -3.03
Si -7.46 -2.16  3.04
Si -3.73 -4.31  6.08
Si -1.87 -5.38 -6.08
Si -1.87  5.39  6.09
Si  5.59 -5.39  3.05
Si -5.60 -1.07  6.10
Si  7.45  4.29  0.77
Si -7.44  4.30  0.75
Si  1.86  1.06 -8.36
Si -5.58  5.38  3.81
Si  1.87 -7.53  3.79
Si  7.46  2.15  3.79
Si -0.01 -8.61  0.75
Si -1.86  1.08 -8.37
Si -1.87 -7.53  3.81
Si  5.60  5.38  3.81
Si -7.46  2.15  3.81
Si -0.01 -2.16 -8.38
Si  7.44 -4.30 -3.04
Si  7.43  4.31  3.05
Si -7.45  4.30  3.04
Si -0.01 -8.60  3.04
Si -7.45 -4.30 -3.04
Si  0.00  8.61 -3.05
Si -0.01  0.01 -9.13
Si  0.01  0.01  9.14
Si -5.58  3.22  6.84
Si -3.74 -8.59  0.75
Si  7.45  2.15 -5.31
Si -1.87 -7.52 -5.32
Si  9.31  1.07  0.75
Si  0.00  6.45  6.84
Si -5.58 -3.23  6.84
Si  1.87 -7.53 -5.31
Si  3.72 -8.61  0.75
Si  5.60  3.22  6.84
Si  5.59 -3.23  6.84
Si  0.01 -6.46  6.84
Si -7.46 -4.29  3.80
Si -5.58  5.38 -5.33
Si  5.58  7.54  0.76
Si  0.01  8.61  3.80
Si -0.01  4.31 -8.37
Si  3.72 -2.15 -8.38
Si -7.46  2.16 -5.32
Si  7.45 -4.31  3.82
Si -5.60  7.54  0.76
Si -3.74 -2.13 -8.38
Si  5.60  5.38 -5.33
Si -9.33  1.09  0.75
Si  1.86 -3.23 -9.10
Si  5.58 -7.51 -3.03
Si -3.73  8.59 -3.05
Si -5.59 -7.51 -3.03
Si -1.88 -3.23 -9.11
Si  1.86  9.67  0.03
Si -5.58 -5.37 -6.08
Si  7.45  2.13  6.08
Si -1.86  7.52 -6.09
Si -3.72 -8.60  3.05
Si -1.86 -3.23  9.12
Si  5.59 -5.37 -6.08
Si -9.31  1.08  3.05
Si -1.85 -7.52  6.09
Si  1.86 -3.23  9.12
Si  1.86  3.24 -9.12
Si  3.73  0.00  9.12
Si -7.45  6.46 -0.01
Si -9.32 -3.21  0.01
Si  7.45 -6.45 -0.00
Si -7.44  2.16  6.09
Si -1.88  9.68  0.02
Si -7.45 -6.45 -0.01
Si  9.31  3.23 -0.01
Si -7.45 -2.16 -6.09
Si -9.32  3.23 -0.00
Si  7.46 -2.15 -6.08
Si  1.87  7.53 -6.08
Si  9.32  1.07  3.04
Si  9.32 -3.22 -0.01
Si -3.73 -0.00 -9.13
Si -1.86  3.23 -9.13
Si  9.32 -1.07 -3.04
Si -9.31 -1.09 -3.05
Si  3.73 -0.00 -9.13
Si -1.88 -9.68  0.02
Si -5.58  7.54  3.05
Si  7.45  6.47  0.01
Si  1.86 -9.69  0.03
Si -3.73  0.01  9.13
Si  3.73  8.61 -3.04
Si  3.73 -8.61  3.04
Si  1.86 -7.55  6.08
Si  5.59  7.54  3.05
Si  5.58  5.39  6.09
Si -5.59  5.39  6.09
Si -1.88  3.22  9.14
Si  1.86  3.22  9.15
Si -1.86  9.67 -2.28
Si -9.31  3.22 -2.28
Si -3.72  6.44  6.84
Si  1.87  1.08  9.88
Si  7.44 -4.30 -5.33
Si  1.87  9.67 -2.28
Si -0.00  8.60 -5.32
Si -7.45 -6.45 -2.28
Si  9.32 -1.07  3.78
Si -9.31 -3.23 -2.29
Si  3.73  4.29 -8.36
Si  9.31 -3.23 -2.28
Si  0.00 -2.16  9.88
Si -5.58  1.07 -8.37
Si  3.73  8.61  3.78
Si -1.85  1.07  9.89
Si  7.46 -0.01  6.84
Si  9.31  3.23 -2.28
Si -3.72 -6.46  6.84
Si -1.85 -5.39 -8.36
Si -7.45  6.46 -2.28
Si  7.46  6.45 -2.29
Si -7.45  0.00  6.85
Si  5.59  1.07 -8.37
Si  5.59 -7.54  3.80
Si -7.45 -4.29 -5.34
Si -3.74  8.61  3.79
Si -3.72  4.30 -8.37
Si -5.59 -7.54  3.80
Si -9.33 -1.07  3.79
Si  1.87 -5.38 -8.37
Si  3.73  6.46  6.85
Si  7.46 -6.46 -2.28
Si -1.86 -9.69 -2.28
Si  3.73 -6.46  6.85
Si  1.87 -9.69 -2.28
Si  7.44 -4.31  6.08
Si  7.45  4.30 -6.08
Si -7.45 -4.29  6.09
Si -7.46  4.29 -6.08
Si  0.01 -8.61 -6.08
Si -0.01  8.61  6.10
Si -0.01  4.30  9.87
Si  9.30 -1.08 -5.32
Si  3.72  8.60 -5.32
Si -0.01 10.75  0.75
Si -5.58 -7.53 -5.32
Si  3.73 -2.15  9.88
Si -9.31 -1.07 -5.33
Si  5.60 -7.53 -5.32
Si -3.72  8.61 -5.33
Si  9.32 -5.38  0.75
Si -3.73 -2.16  9.89
Si -9.32 -5.39  0.77
Si  0.01 -6.44 -9.12
Si  5.58 -3.21  9.12
Si -5.58  3.24 -9.12
Si -5.58 -7.53  6.08
Si -11.17 -0.00  0.00
Si -5.58 -3.23 -9.12
Si -5.58  9.68  0.00
Si -5.60 -3.21  9.12
Si  5.59 -7.53  6.08
Si -3.74 -8.60 -6.07
Si  0.01  6.45 -9.12
Si -5.58 -9.68  0.00
Si -5.58  3.22  9.13
Si  9.31 -1.07  6.08
Si  0.00 -10.75 -3.05
Si  9.31  5.38 -3.04
Si  5.60  3.24 -9.12
Si -0.01  6.46  9.12
Si  3.72  8.61  6.08
Si -0.01 10.76  3.04
Si  5.58  7.53 -6.09
Si  5.60 -3.23 -9.12
Si  5.60  9.68  0.00
Si  9.32 -5.38  3.04
Si  0.01 -6.46  9.13
Si -3.74  8.60  6.09
Si  5.60 -9.68  0.00
Si  5.60  3.22  9.13
Si  9.32  1.07 -6.09
Si -9.33  1.08 -6.07
Si  3.73 -8.61 -6.09
Si 11.19 -0.00  0.00
Si -5.60  7.53 -6.09
Si -9.33  5.38 -3.04
Si -9.33 -1.08  6.09
Si -9.33 -5.37  3.05
Si  7.43 -8.59  0.75
Si  1.85 -5.36  9.87
Si  3.72  4.30  9.88
Si -5.58  9.67 -2.29
Si -11.16 -0.01 -2.29
Si  0.01 -10.75  3.80
Si 11.17 -2.14  0.76
Si -1.87 -5.38  9.88
Si  5.58 -5.37 -8.37
Si  5.58  1.08  9.88
Si  7.43 -2.13 -8.38
Si  3.72 10.75  0.75
Si  9.31  5.39  3.80
Si -9.31  5.37  3.82
Si -3.74  4.32  9.87
Si  5.60  9.67 -2.29
Si -5.60 -5.37 -8.37
Si -5.58 -9.69 -2.29
Si -5.60  1.08  9.88
Si -7.46 -8.61  0.75
Si  0.00 -0.00 -11.41
Si -11.19 -2.14  0.76
Si -1.87  7.53 -8.38
Si -7.46 -2.15 -8.38
Si 11.19 -0.01 -2.29
Si  5.60 -9.69 -2.29
Si  1.85  7.54 -8.38
Si -3.74 10.77  0.75
Si -3.73  6.44 -9.10
Si  3.71  6.45 -9.11
Si -3.73 -6.44 -9.12
Si  7.45  8.59 -3.05
Si  3.73 10.74  3.04
Si -7.45  0.00  9.12
Si  3.73 -10.75 -3.04
Si  3.73  6.45  9.12
Si -11.17 -2.14  3.05
Si 11.17  2.16 -3.03
Si -3.73  6.45  9.12
Si -7.44  8.61 -3.04
Si  7.45 -0.00 -9.13
Si  7.46 -8.60  3.05
Si  3.73 -6.45 -9.13
Si -7.45 -8.61  3.04
Si -11.18  2.16 -3.03
Si 11.18 -2.14  3.05
Si -3.72 10.76  3.05
Si  7.45  0.01  9.13
Si -7.45 -0.00 -9.13
Si  3.71 -6.46  9.14
Si -3.73 -10.77 -3.05
Si -3.73 -6.46  9.15
Si -9.30  3.22  6.84
Si  3.73 -10.75  3.78
Si -7.44  4.29 -8.36
Si  1.87  9.67  6.84
Si  7.44  8.61  3.79
Si -11.17  4.30  0.76
Si  3.73  0.01 -11.40
Si -9.31  7.53  0.75
Si -7.45  8.61  3.78
Si -1.86  3.23 -11.40
Si 11.18  2.14  3.80
Si -3.74 -10.75  3.79
Si -3.72 -0.01 -11.41
Si  7.46  6.44  6.84
Si -9.31 -3.24  6.84
Si -1.86 -3.24 -11.40
Si  9.31  3.21  6.85
Si  1.87 -11.83  0.75
Si -11.18  2.14  3.80
Si -1.86 -9.68  6.85
Si  9.31 -3.22  6.85
Si 11.18  4.30  0.76
Si  9.32  7.52  0.76
Si  1.87 -9.69  6.84
Si -1.86  9.68  6.85
Si  1.87 -3.23 -11.41
Si  0.00 -8.61 -8.37
Si -0.00 -10.76 -5.32
Si -1.85 -11.84  0.76
Si  1.87  3.22 -11.41
Si -7.45 -6.46  6.85
Si -7.45  6.46  6.85
Si  7.46 -6.46  6.84
Si  7.46  4.30 -8.37
Si -9.33  5.38 -5.33
Si  9.32  5.38 -5.34
Si 11.17 -4.29 -3.03
Si -0.01  2.16 -12.15
Si  0.01 10.74 -6.08
Si  9.31 -7.52 -3.04
Si  9.31  7.52  3.04
Si -11.17  4.29  3.05
Si  1.86 11.83 -3.04
Si -9.31  7.52  3.04
Si -1.86 -1.06 -12.16
Si  1.86 -1.08 -12.17
Si  1.86  1.07 12.17
Si -1.87  1.07 12.17
Si  9.31 -5.38 -6.08
Si -0.01 -10.75  6.10
Si -9.31 -5.38 -6.08
Si -11.19 -4.29 -3.03
Si  9.31  5.39  6.09
Si -9.32  5.37  6.08
Si 11.18  4.29  3.05
Si  1.86 -11.84  3.04
Si -9.32 -7.53 -3.04
Si  0.01 -2.16 12.17
Si -1.87 -11.84  3.04
Si -1.87 11.84 -3.04
Si  5.58 -5.38  9.87
Si -11.17  2.15 -5.32
Si -7.44 -2.15  9.88
Si -1.86  7.53  9.88
Si -11.17 -4.30  3.81
Si -9.31 -7.53  3.79
Si  1.86  7.51  9.89
Si  3.72 -10.76 -5.32
Si -5.60 -5.38  9.87
Si  9.30 -7.53  3.81
Si -9.32  1.06 -8.36
Si -3.72 -10.75 -5.33
Si  1.87 11.83  3.79
Si  5.58  7.52 -8.38
Si -7.46  8.60 -5.32
Si -1.87 11.83  3.81
Si  7.45 -2.16  9.89
Si 11.19  2.15 -5.32
Si -3.73 -8.62 -8.36
Si  3.73 -8.60 -8.37
Si  7.46  8.61 -5.33
Si 11.19 -4.30  3.81
Si  9.32  1.08 -8.37
Si -5.60  7.52 -8.38
Si  7.43 -8.60 -6.07
Si 11.17 -6.44 -0.01
Si  7.44  8.60  6.09
Si  0.01 -12.90  0.01
Si -11.17  2.15  6.08
Si -0.01  4.30 12.16
Si 11.17 -2.15 -6.09
Si  3.73 -2.15 12.16
Si -11.17  6.46  0.01
Si  3.72 -10.75  6.08
Si  3.72  2.15 -12.17
Si 11.18  2.15  6.08
Si -11.18 -6.44 -0.01
Si  3.73 10.75 -6.09
Si -3.74 10.76 -6.07
Si -7.45  8.61  6.08
Si -3.74  2.15 -12.17
Si -7.45 -8.61 -6.09
Si  0.00 -4.30 -12.18
Si -3.74 -10.76  6.09
Si -0.01 12.92 -0.01
Si -11.19 -2.15 -6.09
Si 11.19  6.46  0.01
Si -3.74 -2.15 12.18
Si 13.02  1.09  0.75
Si -5.57  3.23 -11.40
Si -11.16  6.46 -2.27
Si  7.43  4.32  9.87
Si  9.31 -7.52 -5.32
Si  0.02 -6.45 -11.40
Si  5.58 -11.82  0.76
Si  1.87 11.82 -5.31
Si -11.16  0.00  6.86
Si -11.17 -4.29 -5.33
Si -0.01 -8.60  9.88
