500
set: 1564.00  0.00  0.00
Si  0.58  0.66  0.38
Si -0.40  0.11 -1.48
Si -2.17 -1.16 -0.57
Si -1.65  2.00  0.71
Si  1.72 -1.67  1.48
Si  1.77 -1.23 -1.84
Si  1.32  1.31  2.30
Si  2.44  1.59 -0.63
Si -2.28 -0.30  1.95
Si -1.20 -0.53 -3.42
Si -1.36  2.73 -2.18
Si -0.85  2.64  2.65
Si -3.55  1.59 -0.63
Si  2.63  1.36 -2.66
Si -1.83 -2.83 -2.18
Si  3.81 -1.16 -0.57
Si  1.52 -1.44  3.50
Si -1.31 -2.92  2.65
Si  3.71 -0.30  1.95
Si -2.12 -3.56  0.71
Si  1.03 -1.87 -3.75
Si  1.97 -3.97 -0.63
Si -3.35  1.36 -2.66
Si -2.62  1.37  3.56
Si  2.18  3.89  1.48
Si -1.71  4.40 -0.57
Si -4.21 -1.23 -1.84
Si -4.27 -1.67  1.48
Si  4.33  2.00  0.71
Si  0.85 -4.26  2.30
Si  0.11 -4.90  0.38
Si  3.36  1.37  3.56
Si -0.34 -2.37  4.51
Si  2.23  4.34 -1.84
Si -1.26  1.87 -4.70
Si  3.87 -3.56  0.71
Si -4.67  1.31  2.30
Si  2.17 -4.20 -2.66
Si -5.41  0.66  0.38
Si  1.50  3.69 -3.75
Si  4.16 -2.83 -2.18
Si  0.13  3.19  4.51
Si -2.57 -1.03  4.85
Si -3.80  3.89  1.48
Si  2.88 -0.94 -4.77
Si -4.01 -3.97 -0.63
Si -0.86 -5.45 -1.48
Si  1.99  4.12  3.50
Si -3.10 -0.94 -4.77
Si  5.59  0.11 -1.48
Si  4.62  2.73 -2.18
Si  1.27  0.86  5.61
Si -4.46 -1.44  3.50
Si  0.07  5.67 -1.48
Si -1.81  5.27  1.95
Si  4.78 -0.53 -3.42
Si  3.42 -1.03  4.85
Si -3.75  4.34 -1.84
Si  4.67 -2.92  2.65
Si  0.05 -2.42 -5.62
Si -0.74  5.03 -3.42
Si  4.28  4.40 -0.57
Si  2.89 -4.19  3.56
Si -1.72 -3.69 -4.70
Si -3.82 -4.20 -2.66
Si -3.09 -4.19  3.56
Si  1.04  6.22  0.38
Si  5.14  2.64  2.65
Si -0.91  0.20 -6.32
Si  0.52  3.14 -5.62
Si -4.96 -1.87 -3.75
Si -6.38  0.11 -1.48
Si  6.56  0.66  0.38
Si  0.40 -1.73  6.43
Si -4.00  4.12  3.50
Si -2.74 -5.86  1.95
Si  2.68  1.80 -5.97
Si -4.49  3.69 -3.75
Si  4.73  1.87 -4.70
Si -2.10  4.53  4.85
Si  3.24 -5.86  1.95
Si  4.17  5.27  1.95
Si -1.76 -0.39  6.78
Si -2.73  2.23  6.08
Si -5.13 -4.26  2.30
Si -3.30  1.80 -5.97
Si -2.63  4.62 -4.77
Si  1.30 -6.79 -1.84
Si -1.67 -6.10 -3.42
Si -2.64 -6.72 -0.57
Si  3.26  2.23  6.08
Si  4.26 -3.69 -4.70
Si  0.80 -4.70  5.61
Si -4.72  0.86  5.61
Si  2.22 -3.76 -5.97
Si  3.35  4.62 -4.77
Si  1.78  6.87  2.30
Si  2.79 -3.33  6.08
Si -2.90 -1.17 -6.79
Si  1.25 -7.23  1.48
Si  3.34 -6.72 -0.57
Si  0.87  3.84  6.43
Si  3.08 -1.17 -6.79
Si  5.65 -2.37  4.51
Si  5.12 -5.45 -1.48
Si -3.19 -3.33  6.08
Si -5.87 -4.90  0.38
Si  3.88  4.53  4.85
Si -1.19  7.56  0.71
Si  2.90  7.15 -0.63
Si  7.30  1.31  2.30
Si  1.07  1.09  7.63
Si -6.83  2.64  2.65
Si -3.08  7.15 -0.63
Si  6.10 -4.90  0.38
Si  1.05 -7.00  3.50
Si -7.63  2.00  0.71
Si -4.94  6.22  0.38
Si -2.88  6.92 -2.66
Si -0.29  2.50 -7.55
Si -7.18 -0.53 -3.42
Si -3.77 -3.76 -5.97
Si  4.22 -0.39  6.78
Si  7.70 -1.67  1.48
Si  5.25  5.03 -3.42
Si  3.10  6.92 -2.66
Si -5.85  3.19  4.51
Si  7.75 -1.23 -1.84
Si -2.16  6.93  3.56
Si  5.07  0.20 -6.32
Si -6.32 -2.37  4.51
Si -7.34  2.73 -2.18
Si  7.01 -1.87 -3.75
Si -0.75 -3.07 -7.55
Si  1.94  1.16 -7.89
Si  4.32 -6.10 -3.42
Si  6.11  3.19  4.51
Si  2.44 -1.66  7.70
Si -8.16 -1.16 -0.57
Si -7.30 -2.92  2.65
Si -5.91  5.67 -1.48
Si  0.56 -7.44 -3.75
Si -4.20  6.87  2.30
Si  6.83 -4.26  2.30
Si -1.38 -5.36 -6.32
Si  7.50 -1.44  3.50
Si  2.42 -6.50 -4.77
Si  6.05  5.67 -1.48
Si -5.46  3.14 -5.62
Si -2.44  4.39 -6.79
Si -4.68 -6.79 -1.84
Si -8.26 -0.30  1.95
Si -5.93 -2.42 -5.62
Si -0.45  5.76 -6.32
Si -7.81 -2.83 -2.18
Si  8.42  1.59 -0.63
Si  6.04 -2.42 -5.62
Si -0.89  8.30 -2.18
Si -1.29  5.17  6.78
Si -0.38  8.20  2.65
Si -3.54 -1.66  7.70
Si -0.79  0.16  8.65
Si  3.83  6.93  3.56
Si -5.58 -1.73  6.43
Si  2.95 -6.60  4.85
Si  1.73  6.42  5.61
Si -3.03 -6.60  4.85
Si -4.73 -7.23  1.48
Si -3.57 -6.50 -4.77
Si -0.79  7.43 -4.70
Si  3.55  4.39 -6.79
Si -7.24  1.87 -4.70
Si  0.60 -4.47  7.63
Si -6.85 -5.45 -1.48
Si -7.69  4.40 -0.57
Si -8.10 -3.56  0.71
Si -0.81 -0.66 -8.83
Si  7.95 -3.97 -0.63
Si -4.04  1.16 -7.89
Si -5.18 -4.70  5.61
Si -2.29 -8.39 -2.18
Si  4.80  7.56  0.71
Si -6.72  5.03 -3.42
Si -1.78 -8.48  2.65
Si -5.11  3.84  6.43
Si  2.91  3.90  7.70
Si  8.62  1.36 -2.66
Si -4.91  1.09  7.63
Si  7.48  3.69 -3.75
Si  6.50  3.14 -5.62
Si  1.48 -4.41 -7.89
Si -3.07  3.90  7.70
Si -0.80 -7.93  4.51
Si  8.17  3.89  1.48
Si  7.25  0.86  5.61
Si  6.39 -1.73  6.43
Si -4.93 -7.00  3.50
Si -2.23 -5.95  6.78
Si -6.89  0.20 -6.32
Si  7.03  6.22  0.38
Si -2.18  2.09 -8.90
Si -8.61  1.37  3.56
Si  3.69 -8.39 -2.18
Si  8.22  4.34 -1.84
Si  4.61 -5.36 -6.32
Si -2.58 -9.13  0.71
Si -4.25  6.42  5.61
Si  8.15 -4.20 -2.66
Si  2.97  1.50  8.98
Si -3.02  1.50  8.98
Si -7.79  5.27  1.95
Si  7.97  4.12  3.50
Si  1.50 -9.54 -0.63
Si -9.53  1.59 -0.63
Si  5.23 -3.07 -7.55
Si -0.06 -7.29  6.43
Si  4.69  5.17  6.78
Si -7.71 -3.69 -4.70
Si  3.40 -9.13  0.71
Si -0.41 -7.99 -5.62
Si  3.75 -5.95  6.78
Si  5.70  2.50 -7.55
Si -9.33  1.36 -2.66
Si  0.97  0.61 -9.75
Si  4.21 -8.48  2.65
Si  0.60  8.75  4.51
Si  9.79 -1.16 -0.57
Si -8.55 -1.03  4.85
Si  9.69 -0.30  1.95
Si -2.83  7.37 -5.97
Si  3.80  2.09 -8.90
Si -2.65 -3.48 -8.90
Si  2.62 -6.74 -6.79
Si  2.65  9.46  1.48
Si -5.42 -7.44 -3.75
Si  5.09  8.30 -2.18
Si  6.78 -4.70  5.61
Si  0.35 -2.17  9.74
Si  3.15  7.37 -5.97
Si -1.24  9.96 -0.57
Si  5.20  0.16  8.65
Si  0.39 -9.82  2.30
Si  9.34  1.37  3.56
Si -4.50 -4.41 -7.89
Si -0.34  4.90 -8.83
Si  8.87 -0.94 -4.77
Si  3.33 -3.48 -8.90
Si  7.29 -6.79 -1.84
Si -6.27  2.50 -7.55
Si -3.33  9.46  1.48
Si -3.37 -6.74 -6.79
Si -2.26  7.80  6.08
Si  6.85  3.84  6.43
Si  2.50 -4.06  8.98
Si  1.96  9.25 -3.75
Si  5.54  5.76 -6.32
Si  5.19  7.43 -4.70
Si  1.54  6.66  7.63
Si  5.18 -0.66 -8.83
Si  1.70 -9.77 -2.66
Si -1.25 -5.40  8.65
Si  5.60  8.20  2.65
Si -9.08 -0.94 -4.77
Si -7.75 -0.39  6.78
Si  7.23 -7.23  1.48
Si  0.82  3.39  9.74
Si -5.38 -4.47  7.63
Si -7.65 -6.10 -3.42
Si -0.32  5.72  8.65
Si  0.99  8.70 -5.62
Si  2.70  9.90 -1.84
Si -10.20 -1.23 -1.84
Si -7.17  7.56  0.71
Si  8.88 -4.19  3.56
Si  7.05  1.09  7.63
Si -3.48 -4.06  8.98
Si -8.09  4.53  4.85
Si -0.35 -10.47  0.38
Si -10.25 -1.67  1.48
Si  5.18 -7.93  4.51
Si  9.85 -3.56  0.71
Si  2.34 -0.80 10.22
Si -2.85 -0.73 -10.10
Si  7.04 -7.00  3.50
Si 10.31  2.00  0.71
Si -4.48 -9.54 -0.63
Si  3.72  7.80  6.08
Si -6.74 -3.07 -7.55
Si  2.45  9.69  3.50
Si -3.28  9.90 -1.84
Si  6.54 -7.44 -3.75
Si -0.05  0.81 10.56
Si  3.13 -0.73 -10.10
Si -2.19 -9.26 -4.70
Si -9.07 -4.19  3.56
Si  7.77  6.87  2.30
Si  9.40 -1.03  4.85
Si -9.78  3.89  1.48
Si  2.41  6.72 -7.89
Si  2.43 -9.76  3.56
Si  8.67  1.80 -5.97
Si -8.73 -5.86  1.95
Si -6.43  5.76 -6.32
Si -6.36  8.20  2.65
Si -0.46 -2.33 -10.45
Si  1.98 -7.22  7.70
Si 10.14 -2.83 -2.18
Si -4.02  9.25 -3.75
Si -10.00 -3.97 -0.63
Si -9.73  4.34 -1.84
Si  8.20 -3.76 -5.97
Si -8.71  2.23  6.08
Si -3.64 -0.80 10.22
Si -8.62  4.62 -4.77
Si -1.27 -6.23 -8.83
Si -3.53  9.69  3.50
Si  0.01  3.23 -10.45
Si  0.50 -4.96 -9.75
Si -8.62 -6.72 -0.57
Si -3.57  6.72 -7.89
Si -10.65  1.31  2.30
Si -3.56 -9.76  3.56
Si -5.01  0.61 -9.75
Si -6.77  0.16  8.65
Si -9.80 -4.20 -2.66
Si -4.28 -9.77 -2.66
Si -6.88  8.30 -2.18
Si  2.32 -8.89  6.08
Si  6.59 -4.47  7.63
Si  0.18  8.06 -7.55
Si  4.74  9.96 -0.57
Si  3.79 -9.26 -4.70
Si -4.45  6.66  7.63
Si -7.36 -5.36 -6.32
Si -1.34 10.83  1.95
Si  9.22 -5.86  1.95
Si -6.77  7.43 -4.70
Si -10.45 -1.44  3.50
Si -0.27 10.59 -3.42
Si -6.79 -0.66 -8.83
Si 10.61  2.73 -2.18
Si 10.26  4.40 -0.57
Si -9.28  1.80 -5.97
Si  8.77 -3.33  6.08
Si -1.33 -11.02 -1.48
Si  1.75 -9.32 -5.97
Si -7.28  5.17  6.78
Si -5.39  8.75  4.51
Si  4.73 -5.40  8.65
Si  5.57 -7.99 -5.62
Si  7.93  1.16 -7.89
Si -8.88 -1.17 -6.79
Si -1.99  1.86 -10.92
Si -8.14  6.93  3.56
Si  9.24  2.23  6.08
Si -4.00 -7.22  7.70
Si 10.77 -0.53 -3.42
Si -1.64 10.09  4.85
Si -2.21  2.14 10.92
Si  0.54 11.23 -1.48
Si -9.98  4.12  3.50
Si 10.65 -2.92  2.65
Si -6.79 -7.93  4.51
Si -3.66 -8.89  6.08
Si  5.92 -7.29  6.43
Si  9.07 -1.17 -6.79
Si -11.39  0.66  0.38
Si  8.88  7.15 -0.63
Si -6.05 -7.29  6.43
Si -2.17 10.18 -4.77
Si -2.38  4.83 -10.10
Si  9.33  4.62 -4.77
Si -5.63 -2.17  9.74
Si  1.33  9.40  6.43
Si -5.00  8.70 -5.62
Si -9.18 -3.33  6.08
Si  7.72  6.42  5.61
Si  9.33 -6.72 -0.57
Si -1.22 -8.63 -7.55
Si -5.60 -9.82  2.30
Si  8.43 -1.66  7.70
Si -5.17  3.39  9.74
Si -8.87  6.92 -2.66
Si -9.07  7.15 -0.63
Si  5.64  4.90 -8.83
Si -0.51 -4.75 10.56
Si 10.16  5.27  1.95
Si  2.81  4.77 10.22
Si  1.44  6.17 -9.75
Si  8.40 -6.50 -4.77
Si 11.57  0.11 -1.48
Si -6.40 -7.99 -5.62
Si -8.42  4.39 -6.79
Si  0.16 -0.04 -11.69
Si  0.33 -10.26  5.61
Si -2.55  7.06  8.98
Si -3.18  4.77 10.22
Si -10.94 -1.87 -3.75
Si  7.46 -4.41 -7.89
Si -10.47  3.69 -3.75
Si  9.08  6.92 -2.66
Si 11.12  2.64  2.65
Si  3.77  2.14 10.92
Si -2.68 -3.42 10.92
Si  3.60  4.83 -10.10
Si  4.00  1.86 -10.92
Si  4.71 -6.23 -8.83
Si -2.45 -3.70 -10.92
Si -7.76 -8.48  2.65
Si  5.66  5.72  8.65
Si  6.33 -2.17  9.74
Si  6.58  8.75  4.51
Si 10.71  1.87 -4.70
Si -4.23 -9.32 -5.97
Si 10.24 -3.69 -4.70
Si -1.72  7.65 -8.90
Si  3.82 10.18 -4.77
Si  1.51 11.79  0.38
Si  9.87  4.53  4.85
Si  5.63 -10.47  0.38
Si  3.31 -3.42 10.92
Si  2.77 -11.42  1.95
Si -6.33  4.90 -8.83
Si  0.15 -1.94 11.77
Si  6.37 -9.82  2.30
Si  3.43  7.06  8.98
Si  4.64 10.83  1.95
Si -8.28 -8.39 -2.18
Si  6.95  0.61 -9.75
Si  4.35 10.09  4.85
Si -3.21 -11.42  1.95
Si  2.00  0.87 11.83
Si -9.75 -3.76 -5.97
Si  5.52 -2.33 -10.45
Si  4.65 -11.02 -1.48
Si  3.53 -3.70 -10.92
Si -10.70  0.86  5.61
Si  8.93 -6.60  4.85
Si -11.12 -4.26  2.30
Si -6.30  5.72  8.65
Si  7.49 -9.54 -0.63
Si  5.94  0.81 10.56
Si -9.02 -6.60  4.85
Si  1.87 -6.36 10.22
Si -6.03  0.81 10.56
Si  2.67 -6.29 -10.10
Si -8.21 -5.95  6.78
Si -1.97  9.95 -6.79
Si -5.48 -4.96 -9.75
Si -6.34 -10.47  0.38
Si -8.17  2.09 -8.90
Si 10.21 -0.39  6.78
Si -4.65  9.40  6.43
Si -7.22  9.96 -0.57
Si  0.62  3.62 11.77
Si  2.39 -1.38 -12.02
Si -2.13 -11.66 -3.42
Si  0.42  6.37 10.56
Si -3.32 -6.29 -10.10
Si  6.80  3.39  9.74
Si -9.52 -1.66  7.70
Si  8.89  3.90  7.70
Si -4.55  6.17 -9.75
Si  4.76 -8.63 -7.55
Si -0.12 -7.73  9.74
Si 10.30 -6.10 -3.42
Si -12.36  0.11 -1.48
Si 11.10 -5.45 -1.48
Si -5.98  3.23 -10.45
Si  5.99  3.23 -10.45
Si -2.61  9.47  7.70
Si -5.80  8.06 -7.55
Si  6.97  8.70 -5.62
Si  4.27  7.65 -8.90
Si -10.18  6.87  2.30
Si -6.45 -2.33 -10.45
Si -9.55 -6.50 -4.77
Si  9.53  4.39 -6.79
Si -7.24 -5.40  8.65
Si -9.06  3.90  7.70
Si  5.71 10.59 -3.42
Si -3.99  0.87 11.83
Si  0.83 -12.35 -1.84
Si  9.81  6.93  3.56
Si -8.57 -9.13  0.71
Si 12.55  0.66  0.38
Si -5.45 11.23 -1.48
Si -10.92  6.22  0.38
Si  0.14 -10.03  7.63
Si -4.47 11.79  0.38
Si  7.52  6.66  7.63
Si -3.59 -1.38 -12.02
Si  2.88 -12.29 -0.57
Si  6.16  8.06 -7.55
Si  3.38  9.47  7.70
Si -3.11 -12.29 -0.57
Si 11.63 -2.37  4.51
Si  4.01  9.95 -6.79
Si  7.68 -9.77 -2.66
Si  6.49 -4.96 -9.75
