500
set: 1514.00  0.00  0.00
Si -0.94 -0.57  0.20
Si  0.06  0.63  1.80
Si  0.06 -0.26 -1.91
Si  0.72  2.60  1.08
Si  1.43 -2.25 -1.21
Si  2.16  2.17 -0.78
Si -2.52 -0.98 -1.67
Si  1.43 -1.36  2.49
Si  0.72  1.71 -2.62
Si -2.52 -0.10  2.04
Si  2.86 -1.79  0.64
Si  3.53  0.20 -0.07
Si -0.59 -3.48 -0.78
Si -3.78  0.20 -0.07
Si -2.03 -3.05  1.08
Si -0.94 -1.46 -3.50
Si -0.59 -2.59  2.93
Si -0.94  0.32  3.91
Si -1.70  3.86  0.64
Si -1.70  2.97 -3.07
Si  2.16  3.06  2.93
Si -3.13  3.40 -1.21
Si -4.45 -1.79  0.64
Si  0.23  4.67 -1.67
Si  2.86 -2.68 -3.07
Si  2.16  1.29 -4.48
Si -2.03 -3.94 -2.62
Si  4.79 -0.98 -1.67
Si  3.53  1.08  3.63
Si  4.79 -0.10  2.04
Si  3.53 -0.69 -3.78
Si  2.86 -0.91  4.34
Si -3.78  1.08  3.63
Si -3.78 -0.69 -3.78
Si  1.81  5.08  0.20
Si  0.78 -5.46 -0.07
Si  4.18  3.40 -1.21
Si -2.03 -2.16  4.79
Si -5.15  2.17 -0.78
Si  0.06  1.52  5.50
Si  0.06 -1.15 -5.61
Si  1.81  4.19 -3.50
Si -3.13  4.29  2.49
Si  0.78 -4.57  3.63
Si  0.23  5.56  2.04
Si -1.03  5.85 -0.07
Si  0.72  3.49  4.79
Si -2.69 -5.02  1.80
Si  1.43 -3.14 -4.92
Si -4.45 -2.68 -3.07
Si  5.28 -3.05  1.08
Si -2.52 -1.87 -5.37
Si -4.45 -0.91  4.34
Si -0.59 -4.37 -4.48
Si -1.03  4.96 -3.78
Si -2.52  0.79  5.74
Si -3.13  2.51 -4.92
Si  2.81  5.39 -1.91
Si  1.43 -0.48  6.20
Si  6.37 -0.57  0.20
Si -5.88 -2.25 -1.21
Si  0.72  0.83 -6.32
Si  2.04 -5.75  2.04
Si  4.18  4.29  2.49
Si -5.88 -1.36  2.49
Si  0.23  3.78 -5.37
Si -1.70  4.74  4.34
Si -5.15  3.06  2.93
Si -2.69 -5.91 -1.91
Si  5.61  3.86  0.64
Si -0.59 -1.70  6.63
Si  4.18  2.51 -4.92
Si -5.15  1.29 -4.48
Si  5.62  2.97 -3.07
Si  4.62 -5.02  1.80
Si  5.28 -3.94 -2.62
Si  2.81  6.28  1.80
Si  2.04 -6.63 -1.67
Si -6.59  2.60  1.08
Si  3.62 -6.22  0.20
Si -3.69 -6.22  0.20
Si -4.50  5.39 -1.91
Si -1.69  2.08 -6.77
Si -6.59  1.71 -2.62
Si  1.81  5.97  3.91
Si -2.69 -4.13  5.50
Si  6.37 -1.46 -3.50
Si  0.78 -6.34 -3.78
Si  4.79 -1.87 -5.37
Si  5.28 -2.16  4.79
Si  0.11 -7.45  0.64
Si  6.37  0.32  3.91
Si -5.50  5.08  0.20
Si -7.25  0.63  1.80
Si -7.25 -0.26 -1.91
Si  4.79  0.79  5.74
Si  3.62 -5.33  3.91
Si -1.32 -7.02  2.49
Si -3.69 -5.33  3.91
Si  6.72 -3.48 -0.78
Si  7.37  0.63  1.80
Si  7.37 -0.26 -1.91
Si -0.94 -2.35 -7.21
Si -1.03  6.74  3.63
Si  2.81  4.50 -5.61
Si  4.62 -5.91 -1.91
Si -5.50  4.19 -3.50
Si -0.94  1.20  7.61
Si  6.72 -2.59  2.93
Si  2.04 -4.86  5.74
Si  0.11 -6.56  4.34
Si -4.50  6.28  1.80
Si  2.16  3.95  6.63
Si -5.27 -5.75  2.04
Si -1.32 -7.90 -1.21
Si  1.82  3.31 -7.21
Si  2.86 -3.57 -6.77
Si -2.03 -4.82 -6.32
Si -2.40  7.83 -0.78
Si  0.78 -3.68  7.34
Si -8.25 -0.57  0.20
Si -5.88 -3.14 -4.92
Si  4.62 -4.13  5.50
Si  3.53  1.97  7.34
Si  3.53 -1.58 -7.48
Si  2.16  0.40 -8.19
Si -4.50  4.50 -5.61
Si -3.78  1.97  7.34
Si -6.53 -5.46 -0.07
Si  8.03  2.60  1.08
Si -3.78 -1.58 -7.48
Si  5.61  4.74  4.34
Si  2.86 -0.02  8.05
Si  3.47  7.37 -2.62
Si -5.88 -0.48  6.20
Si -1.03  4.07 -7.48
Si  6.28  5.85 -0.07
Si -2.40  6.94 -4.48
Si  8.03  1.71 -2.62
Si -5.27 -6.63 -1.67
Si  0.23  6.44  5.74
Si -7.08  4.67 -1.67
Si -3.13  5.17  6.20
Si -7.90 -3.48 -0.78
Si -3.83  7.37 -2.62
Si  3.62 -7.11 -3.50
Si -3.69 -7.11 -3.50
Si -6.53 -4.57  3.63
Si -7.90 -2.59  2.93
Si -1.32 -6.13  6.20
Si -2.03 -1.27  8.49
Si  6.28  4.96 -3.78
Si -4.45 -3.57 -6.77
Si -6.59  3.49  4.79
Si  0.11 -8.33 -3.07
Si -5.50  5.97  3.91
Si  3.47  8.25  1.08
Si  7.54  4.67 -1.67
Si  5.62  2.08 -6.77
Si -8.25 -1.46 -3.50
Si  4.18  5.17  6.20
Si  8.74 -2.25 -1.21
Si  2.53 -8.70  1.08
Si -8.25  0.32  3.91
Si -0.38  9.05 -1.21
Si -3.84  8.25  1.08
Si -6.59  0.83 -6.32
Si  6.72 -4.37 -4.48
Si -5.27 -4.86  5.74
Si  8.74 -1.36  2.49
Si -4.45 -0.02  8.05
Si  1.06  8.62 -3.07
Si -2.69 -6.80 -5.61
Si -7.08  5.56  2.04
Si -7.25  1.52  5.50
Si -7.25 -1.15 -5.61
Si  4.91  7.83 -0.78
Si -5.15  3.95  6.63
Si -3.13  1.62 -8.62
Si  7.37  1.52  5.50
Si  7.37 -1.15 -5.61
Si -3.34 -8.24  2.93
Si  2.81  7.17  5.50
Si  2.04 -7.52 -5.37
Si -2.40  8.71  2.93
Si  2.53 -7.81  4.79
Si  0.06  2.40  9.21
Si  0.24  2.89 -9.07
Si  3.62 -4.45  7.61
Si  0.06 -2.03 -9.32
Si -0.38  8.16 -4.92
Si  5.28 -4.82 -6.32
Si  5.99 -7.02  2.49
Si -3.69 -4.45  7.61
Si  0.72  4.38  8.49
Si  1.06  9.51  0.64
Si  7.54  5.56  2.04
Si  6.72 -1.70  6.63
Si  3.97 -8.24  2.93
Si  4.91  6.94 -4.48
Si  1.43 -4.03 -8.62
Si -5.49  3.31 -7.21
Si -7.08  3.78 -5.37
Si -5.15  0.40 -8.19
Si  3.48  6.48 -6.32
Si  4.18  1.62 -8.62
Si -0.59 -5.25 -8.19
Si  9.47  2.17 -0.78
Si -3.34 -9.13 -0.78
Si  8.09 -5.46 -0.07
Si -2.52 -2.76 -9.07
Si -9.01  3.86  0.64
Si -3.83  6.48 -6.32
Si  0.11 -5.67  8.05
Si -6.53 -6.34 -3.78
Si -9.34 -3.05  1.08
Si  6.28  6.74  3.63
Si  6.37 -2.35 -7.21
Si -2.52  1.68  9.45
Si  4.62 -6.80 -5.61
Si -9.00  2.97 -3.07
Si -1.70  5.63  8.05
Si  8.09 -4.57  3.63
Si  8.03  3.49  4.79
Si  3.97 -9.13 -0.78
Si -4.78 -8.70  1.08
Si  5.99 -7.90 -1.21
Si  6.37  1.20  7.61
Si  7.54  3.78 -5.37
Si  1.43  0.41  9.90
Si -9.83 -0.98 -1.67
Si -9.83 -0.10  2.04
Si  0.72 -0.06 -10.03
Si -7.90 -4.37 -4.48
Si  5.28 -1.27  8.49
Si -4.50  7.17  5.50
Si -2.69 -3.25  9.21
Si -1.32 -8.79 -4.92
Si -8.34  5.85 -0.07
Si -0.38  9.94  2.49
Si  2.53 -9.59 -2.62
Si  8.03  0.83 -6.32
Si  1.06  7.73 -6.77
Si -4.78 -7.81  4.79
Si 10.17 -1.79  0.64
Si  9.47  3.06  2.93
Si -7.20 -7.45  0.64
Si  2.81  3.62 -9.32
Si -0.59 -0.81 10.34
Si  1.81  6.86  7.61
Si -8.34  4.96 -3.78
Si  4.91  8.71  2.93
Si  0.78 -7.23 -7.48
Si  9.12  5.08  0.20
Si  2.04 -3.97  9.45
Si -3.34 -7.35  6.63
Si -7.90 -1.70  6.63
Si -2.39  6.05 -8.19
Si -9.34 -3.94 -2.62
Si -6.53 -3.68  7.34
Si  8.74 -3.14 -4.92
Si  7.42 -7.45  0.64
Si  9.47  1.29 -4.48
Si  5.99 -6.13  6.20
Si  6.28  4.07 -7.48
Si  4.79 -2.76 -9.07
Si -1.03  7.62  7.34
Si  9.12  4.19 -3.50
Si -5.27 -7.52 -5.37
Si -7.20 -6.56  4.34
Si  3.97 -7.35  6.63
Si -1.69  1.19 -10.48
Si -9.34 -2.16  4.79
Si  8.74 -0.48  6.20
Si  4.79  1.68  9.45
Si  4.62 -3.25  9.21
Si -2.74  9.85 -3.50
Si  7.42 -6.56  4.34
Si 10.84  0.20 -0.07
Si  2.99 10.32 -1.67
Si  3.47  9.14  4.79
Si  8.09 -6.34 -3.78
Si 10.17 -2.68 -3.07
Si -4.50  3.62 -9.32
Si  1.87 -10.67  1.80
Si -3.84  9.14  4.79
Si -1.97 -10.22  3.63
Si -4.78 -9.59 -2.62
Si -10.44  3.40 -1.21
Si -9.01  4.74  4.34
Si -2.74 10.73  0.20
Si -6.25  8.62 -3.07
Si -11.09  0.20 -0.07
Si 10.17 -0.91  4.34
Si -7.08  6.44  5.74
Si  9.35 -5.75  2.04
Si -5.88 -4.03 -8.62
Si -8.24 -2.35 -7.21
Si  2.53 -6.93  8.49
Si  2.99  9.43 -5.37
Si -1.97 -11.11 -0.07
Si -1.33 -5.24  9.90
Si -0.38  7.28 -8.62
Si -8.25  1.20  7.61
Si  4.92  6.05 -8.19
Si -4.32 10.32 -1.67
Si  5.61  5.63  8.05
Si  1.05 10.39  4.34
Si -8.34  6.74  3.63
Si  1.82  2.42 -10.91
Si -10.00 -5.02  1.80
Si -1.75 11.04 -1.91
Si -9.83 -1.87 -5.37
Si  3.62 -8.00 -7.21
Si -3.69 -8.00 -7.21
Si  1.86 -9.79  5.50
Si  1.72 10.61 -3.78
Si -6.25  9.51  0.64
Si -8.63 -7.02  2.49
Si  4.57  9.85 -3.50
Si -9.83  0.79  5.74
Si  0.78 -2.79 11.04
Si -0.94 -3.23 -10.91
Si -7.20 -8.33 -3.07
Si  0.11 -9.22 -6.77
Si -9.00  2.08 -6.77
Si  7.54  6.44  5.74
Si  6.93  9.05 -1.21
Si -3.34 -10.02 -4.48
Si 10.84  1.08  3.63
Si 10.84 -0.69 -3.78
Si  8.09 -3.68  7.34
Si -5.88  0.41  9.90
Si -5.27 -3.97  9.45
Si -0.94  2.09 11.32
Si -10.44  4.29  2.49
Si  7.42 -8.33 -3.07
Si  9.12  5.97  3.91
Si  9.35 -6.63 -1.67
Si -0.71 -11.40  2.04
Si -6.59  4.38  8.49
Si  2.16  4.84 10.34
Si 10.12  5.39 -1.91
Si -5.50  6.86  7.61
Si  1.72 11.50 -0.07
Si  4.57 10.73  0.20
Si  3.97 -10.02 -4.48
Si -1.03  3.19 -11.19
Si -4.32  9.43 -5.37
Si  0.87 -10.99  3.91
Si -2.03 -5.71 -10.03
Si  5.99 -8.79 -4.92
Si -11.09  1.08  3.63
Si -1.75 10.16 -5.61
Si -11.09 -0.69 -3.78
Si  2.87 -4.46 -10.48
Si -8.63 -7.90 -1.21
Si -10.00 -5.91 -1.91
Si  2.98 11.21  2.04
Si  6.93  8.16 -4.92
Si -10.44  2.51 -4.92
Si -2.74  8.96 -7.21
Si  6.72 -5.25 -8.19
Si -7.07  2.89 -9.07
Si  1.87 -11.56 -1.91
Si  0.87 -11.87  0.20
Si -11.76 -1.79  0.64
Si -2.40  9.60  6.63
Si -8.34  4.07 -7.48
Si -7.69  9.05 -1.21
Si  3.53  2.86 11.04
Si  5.62  1.19 -10.48
Si -4.78 -6.93  8.49
Si  0.23  7.33  9.45
Si -7.25  2.40  9.21
Si -7.25 -2.03 -9.32
Si  3.53 -2.46 -11.19
Si  3.48  5.59 -10.03
Si -6.58 -0.06 -10.03
Si -0.71 -10.51  5.74
Si  9.35 -4.86  5.74
Si -3.78  2.86 11.04
Si -3.13  6.06  9.90
Si -6.25  7.73 -6.77
Si -1.98 -9.33  7.34
Si  7.37  2.40  9.21
Si 11.49  3.40 -1.21
Si 10.12  6.28  1.80
Si  7.37 -2.03 -9.32
Si -3.78 -2.46 -11.19
Si  5.34 -10.22  3.63
Si  9.12  3.31 -7.21
Si  2.17 -0.49 -11.89
Si -3.83  5.59 -10.03
Si -5.44 -10.67  1.80
Si  2.86  0.87 11.75
Si -10.00 -4.13  5.50
Si  7.54  2.89 -9.07
Si -4.33 11.21  2.04
Si -1.75 11.93  1.80
Si -7.20 -5.67  8.05
Si  9.47  3.95  6.63
Si -4.44 -4.46 -10.48
Si -7.69  8.16 -4.92
Si 12.10 -0.98 -1.67
Si -9.34 -4.82 -6.32
Si -8.63 -6.13  6.20
Si 12.10 -0.10  2.04
Si -6.53 -7.23 -7.48
Si  6.28  7.62  7.34
Si  5.34 -11.11 -0.07
Si  7.42 -5.67  8.05
Si  4.18  6.06  9.90
Si  6.72 -0.81 10.34
Si  6.93  9.94  2.49
Si  4.57  8.96 -7.21
Si -2.69 -7.68 -9.32
Si -2.03 -0.39 12.20
Si  1.72  9.72 -7.48
Si  8.37  8.62 -3.07
Si  3.62 -3.56 11.32
Si -0.71 -12.29 -1.67
Si 10.12  4.50 -5.61
Si -3.69 -3.56 11.32
Si -11.76 -2.68 -3.07
Si -5.49  2.42 -10.91
Si -5.44 -9.79  5.50
Si -0.38 10.82  6.20
Si  8.03  4.38  8.49
Si -9.71  7.83 -0.78
Si  2.53 -10.48 -6.32
Si  5.56 11.04 -1.91
Si 11.49  4.29  2.49
Si -5.15  4.84 10.34
Si  9.47  0.40 -8.19
Si -7.90 -5.25 -8.19
Si  2.04 -8.41 -9.07
Si  2.81  8.05  9.21
Si  1.06  6.84 -10.48
Si -2.75 11.62  3.91
Si -11.76 -0.91  4.34
Si -5.59 10.61 -3.78
Si 10.93 -6.22  0.20
Si -4.45  0.87 11.75
Si -11.00 -6.22  0.20
Si -3.34 -6.47 10.34
Si  4.91  9.60  6.63
Si -12.46  2.17 -0.78
Si  0.87 -10.10  7.61
Si  8.37  9.51  0.64
Si -9.34 -1.27  8.49
Si  0.11 -4.78 11.75
Si  5.28 -5.71 -10.03
Si  5.98 -5.24  9.90
Si -1.97 -11.99 -3.78
Si 10.17 -3.57 -6.77
Si -3.13  0.74 -12.33
Si -9.71  6.94 -4.48
Si 11.49  2.51 -4.92
Si 10.93 -5.33  3.91
Si -5.59 11.50 -0.07
Si -7.69  9.94  2.49
Si  2.99  8.54 -9.07
Si  3.97 -6.47 10.34
Si -11.00 -5.33  3.91
Si  8.03 -0.06 -10.03
Si  5.56 10.16 -5.61
Si -6.25 10.39  4.34
Si -5.44 -11.56 -1.91
Si  8.74 -4.03 -8.62
Si  4.62 -7.68 -9.32
Si  0.24  2.01 -12.78
Si  1.86 -8.90  9.21
Si -5.14 -0.49 -11.89
Si 10.17 -0.02  8.05
Si 12.59 -3.05  1.08
Si  5.33 -9.33  7.34
Si  1.72 12.39  3.63
Si -1.32 -9.68 -8.62
Si -4.50  8.05  9.21
Si -7.90 -0.81 10.34
Si  4.18  0.74 -12.33
Si  6.38 -3.23 -10.91
Si 11.93 -5.02  1.80
Si  4.56 11.62  3.91
Si -11.81  5.39 -1.91
Si -6.53 -2.79 11.04
Si -4.78 -10.48 -6.32
Si  9.35 -7.52 -5.37
Si  6.37  2.09 11.32
Si -12.46  3.06  2.93
Si  8.09 -7.23 -7.48
Si  9.84 -8.70  1.08
Si -2.39  5.16 -11.89
Si -4.32  8.54 -9.07
Si -10.44  5.17  6.20
Si  8.73  0.41  9.90
Si  6.28  3.19 -11.19
Si -2.64 -12.21  4.34
Si 10.84  1.97  7.34
