500
set: 1308.00  0.00  0.00
Si  1.21 -1.19  0.00
Si  1.21  1.19  0.00
Si -1.21 -1.19  0.00
Si -1.21  1.19  0.00
Si  2.77  1.87  1.68
Si  2.77  1.87 -1.68
Si  2.77 -1.87  1.68
Si -2.77  1.87  1.68
Si  2.77 -1.87 -1.68
Si -2.77  1.87 -1.68
Si -2.77 -1.87  1.68
Si -2.77 -1.87 -1.68
Si  3.69 -0.00 -2.83
Si  3.69  0.00  2.83
Si -3.69 -0.00 -2.83
Si -3.69  0.00  2.83
Si  3.73  3.21  0.00
Si  3.73 -3.21  0.00
Si -3.73  3.21  0.00
Si -3.73 -3.21  0.00
Si -2.11 -3.33 -3.32
Si  2.11 -3.33 -3.32
Si -2.11 -3.33  3.32
Si -2.11  3.33 -3.32
Si  2.11 -3.33  3.32
Si  2.11  3.33 -3.32
Si -2.11  3.33  3.32
Si  2.11  3.33  3.32
Si -1.16  1.99 -5.00
Si -1.16 -1.99 -5.00
Si -1.16  1.99  5.00
Si -1.16 -1.99  5.00
Si  1.16  1.99 -5.00
Si  1.16 -1.99 -5.00
Si  1.16  1.99  5.00
Si  1.16 -1.99  5.00
Si  2.53 -0.00 -5.00
Si -2.53 -0.00 -5.00
Si  2.53  0.00  5.00
Si -2.53  0.00  5.00
Si -2.35  5.20  0.00
Si -2.35 -5.20  0.00
Si  2.35  5.20  0.00
Si  2.35 -5.20  0.00
Si -1.20  5.20  2.16
Si -1.20 -5.20  2.16
Si  1.20  5.20  2.16
Si  1.20 -5.20  2.16
Si -1.20  5.20 -2.16
Si -1.20 -5.20 -2.16
Si  1.20  5.20 -2.16
Si  1.20 -5.20 -2.16
Si  6.08 -0.00 -2.83
Si  6.08  0.00  2.83
Si -6.08 -0.00 -2.83
Si -6.08  0.00  2.83
Si  6.04  3.21  0.00
Si  6.04 -3.21  0.00
Si -6.04  3.21  0.00
Si -6.04 -3.21  0.00
Si -3.68  4.01 -5.00
Si -3.68 -4.01 -5.00
Si -3.68  4.01  5.00
Si -3.68 -4.01  5.00
Si  3.68  4.01 -5.00
Si  3.68 -4.01 -5.00
Si  3.68  4.01  5.00
Si  3.68 -4.01  5.00
Si  7.00  1.87  1.68
Si  7.00  1.87 -1.68
Si  7.00 -1.87  1.68
Si  7.00 -1.87 -1.68
Si -7.00  1.87  1.68
Si -7.00  1.87 -1.68
Si -7.00 -1.87  1.68
Si -7.00 -1.87 -1.68
Si -2.11 -3.33 -6.67
Si  2.11 -3.33 -6.67
Si -2.11  3.33 -6.67
Si  2.11  3.33 -6.67
Si -2.11 -3.33  6.67
Si  2.11 -3.33  6.67
Si -2.11  3.33  6.67
Si  2.11  3.33  6.67
Si  3.69 -0.00 -7.16
Si -3.69 -0.00 -7.16
Si  3.69  0.00  7.16
Si -3.69  0.00  7.16
Si -2.11 -7.07 -3.32
Si  2.11 -7.07 -3.32
Si -2.11 -7.07  3.32
Si  2.11 -7.07  3.32
Si -2.11  7.07 -3.32
Si  2.11  7.07 -3.32
Si -2.11  7.07  3.32
Si  2.11  7.07  3.32
Si  3.73  7.18  0.00
Si  3.73 -7.18  0.00
Si -3.73  7.18  0.00
Si -3.73 -7.18  0.00
Si  8.56 -1.19  0.00
Si  8.56  1.19  0.00
Si -8.56 -1.19  0.00
Si -8.56  1.19  0.00
Si  7.24 -0.00 -5.00
Si -7.24 -0.00 -5.00
Si  7.24  0.00  5.00
Si -7.24  0.00  5.00
Si -6.09  4.01 -5.00
Si -6.09 -4.01 -5.00
Si -6.09  4.01  5.00
Si -6.09 -4.01  5.00
Si  6.09  4.01 -5.00
Si  6.09 -4.01 -5.00
Si  6.09  4.01  5.00
Si  6.09 -4.01  5.00
Si -3.68  6.38 -5.00
Si -3.68 -6.38 -5.00
Si -3.68  6.38  5.00
Si -3.68 -6.38  5.00
Si  3.68  6.38 -5.00
Si  3.68 -6.38 -5.00
Si  3.68  6.38  5.00
Si  3.68 -6.38  5.00
Si  2.77  1.87  8.31
Si  2.77 -1.87  8.31
Si -2.77  1.87  8.31
Si -2.77 -1.87  8.31
Si  2.77  1.87 -8.31
Si  2.77 -1.87 -8.31
Si -2.77  1.87 -8.31
Si -2.77 -1.87 -8.31
Si -7.66 -3.33 -3.32
Si -7.66 -3.33  3.32
Si -7.66  3.33 -3.32
Si -7.66  3.33  3.32
Si  7.66 -3.33 -3.32
Si  7.66 -3.33  3.32
Si  7.66  3.33 -3.32
Si  7.66  3.33  3.32
Si -7.41  5.20  0.00
Si -7.41 -5.20  0.00
Si  7.41  5.20  0.00
Si  7.41 -5.20  0.00
Si  2.77  8.52  1.68
Si  2.77  8.52 -1.68
Si -2.77  8.52  1.68
Si -2.77  8.52 -1.68
Si  2.77 -8.52  1.68
Si  2.77 -8.52 -1.68
Si -2.77 -8.52  1.68
Si -2.77 -8.52 -1.68
Si  1.21 -9.20  0.00
Si -1.21 -9.20  0.00
Si  1.21  9.20  0.00
Si -1.21  9.20  0.00
Si  6.04  7.18  0.00
Si  6.04 -7.18  0.00
Si -6.04  7.18  0.00
Si -6.04 -7.18  0.00
Si  6.08 -0.00 -7.16
Si -6.08 -0.00 -7.16
Si  6.08  0.00  7.16
Si -6.08  0.00  7.16
Si -1.20  5.20  7.83
Si -1.20 -5.20  7.83
Si  1.20  5.20  7.83
Si  1.20 -5.20  7.83
Si -1.20  5.20 -7.83
Si -1.20 -5.20 -7.83
Si  1.20  5.20 -7.83
Si  1.20 -5.20 -7.83
Si -1.16  8.40 -5.00
Si -1.16 -8.40 -5.00
Si -1.16  8.40  5.00
Si -1.16 -8.40  5.00
Si  1.16  8.40 -5.00
Si  1.16 -8.40 -5.00
Si  1.16  8.40  5.00
Si  1.16 -8.40  5.00
Si -2.11 -7.07 -6.67
Si  2.11 -7.07 -6.67
Si -2.11 -7.07  6.67
Si -2.11  7.07 -6.67
Si  2.11 -7.07  6.67
Si  2.11  7.07 -6.67
Si -2.11  7.07  6.67
Si  2.11  7.07  6.67
Si  1.21 -1.19  9.99
Si  1.21 -1.19 -9.99
Si  1.21  1.19 -9.99
Si  1.21  1.19  9.99
Si -1.21 -1.19 -9.99
Si -1.21 -1.19  9.99
Si -1.21  1.19 -9.99
Si -1.21  1.19  9.99
Si -6.09  6.38 -5.00
Si -6.09 -6.38 -5.00
Si -6.09  6.38  5.00
Si -6.09 -6.38  5.00
Si  6.09  6.38 -5.00
Si  6.09 -6.38 -5.00
Si  6.09  6.38  5.00
Si  6.09 -6.38  5.00
Si -8.61  1.99 -5.00
Si -8.61 -1.99 -5.00
Si -8.61  1.99  5.00
Si -8.61 -1.99  5.00
Si  8.61  1.99 -5.00
Si  8.61 -1.99 -5.00
Si  8.61  1.99  5.00
Si  8.61 -1.99  5.00
Si -8.57  5.20  2.16
Si -8.57 -5.20  2.16
Si -8.57  5.20 -2.16
Si -8.57 -5.20 -2.16
Si  8.57  5.20  2.16
Si  8.57 -5.20  2.16
Si  8.57  5.20 -2.16
Si  8.57 -5.20 -2.16
Si -7.66 -3.33 -6.67
Si -7.66  3.33 -6.67
Si -7.66 -3.33  6.67
Si  7.66 -3.33 -6.67
Si -7.66  3.33  6.67
Si  7.66  3.33 -6.67
Si  7.66 -3.33  6.67
Si  7.66  3.33  6.67
Si -7.66 -7.07 -3.32
Si -7.66 -7.07  3.32
Si -7.66  7.07 -3.32
Si  7.66 -7.07 -3.32
Si -7.66  7.07  3.32
Si  7.66 -7.07  3.32
Si  7.66  7.07 -3.32
Si  7.66  7.07  3.32
Si  7.00  1.87  8.31
Si  7.00 -1.87  8.31
Si -7.00  1.87  8.31
Si  7.00  1.87 -8.31
Si -7.00 -1.87  8.31
Si  7.00 -1.87 -8.31
Si -7.00  1.87 -8.31
Si -7.00 -1.87 -8.31
Si 10.97 -1.19  0.00
Si 10.97  1.19  0.00
Si -10.97 -1.19  0.00
Si -10.97  1.19  0.00
Si  3.73  3.21 -9.99
Si  3.73  3.21  9.99
Si  3.73 -3.21  9.99
Si  3.73 -3.21 -9.99
Si -3.73  3.21  9.99
Si -3.73  3.21 -9.99
Si -3.73 -3.21  9.99
Si -3.73 -3.21 -9.99
Si  7.00  8.52  1.68
Si  7.00  8.52 -1.68
Si -7.00  8.52  1.68
Si -7.00  8.52 -1.68
Si  7.00 -8.52  1.68
Si  7.00 -8.52 -1.68
Si -7.00 -8.52  1.68
Si -7.00 -8.52 -1.68
Si  3.69 -10.39 -2.83
Si  3.69 10.39 -2.83
Si  3.69 -10.39  2.83
Si  3.69 10.39  2.83
Si -3.69 10.39 -2.83
Si -3.69 -10.39 -2.83
Si -3.69 10.39  2.83
Si -3.69 -10.39  2.83
Si -2.35  5.20 -9.99
Si -2.35  5.20  9.99
Si -2.35 -5.20  9.99
Si -2.35 -5.20 -9.99
Si  2.35  5.20 -9.99
Si  2.35  5.20  9.99
Si  2.35 -5.20 -9.99
Si  2.35 -5.20  9.99
Si  1.21 -11.58  0.00
Si -1.21 -11.58  0.00
Si  1.21 11.58  0.00
Si -1.21 11.58  0.00
Si  2.53 10.39 -5.00
Si  2.53 -10.39 -5.00
Si -2.53 -10.39 -5.00
Si -2.53 10.39 -5.00
Si  2.53 -10.39  5.00
Si  2.53 10.39  5.00
Si -2.53 -10.39  5.00
Si -2.53 10.39  5.00
Si  6.04  3.21  9.99
Si  6.04  3.21 -9.99
Si  6.04 -3.21  9.99
Si  6.04 -3.21 -9.99
Si -6.04  3.21  9.99
Si -6.04  3.21 -9.99
Si -6.04 -3.21 -9.99
Si -6.04 -3.21  9.99
Si  2.77  1.87 11.67
Si  2.77 -1.87 11.67
Si -2.77  1.87 11.67
Si -2.77 -1.87 11.67
Si  2.77  1.87 -11.67
Si  2.77 -1.87 -11.67
Si -2.77  1.87 -11.67
Si -2.77 -1.87 -11.67
Si -10.93  1.99 -5.00
Si -10.93 -1.99 -5.00
Si -10.93  1.99  5.00
Si -10.93 -1.99  5.00
Si 10.93  1.99 -5.00
Si 10.93 -1.99 -5.00
Si 10.93  1.99  5.00
Si 10.93 -1.99  5.00
Si  2.77  8.52  8.31
Si -2.77  8.52  8.31
Si  2.77  8.52 -8.31
Si  2.77 -8.52  8.31
Si -2.77  8.52 -8.31
Si -2.77 -8.52  8.31
Si  2.77 -8.52 -8.31
Si -2.77 -8.52 -8.31
Si -10.96  5.20  2.16
Si -10.96 -5.20  2.16
Si -10.96  5.20 -2.16
Si -10.96 -5.20 -2.16
Si 10.96  5.20  2.16
Si 10.96 -5.20  2.16
Si 10.96  5.20 -2.16
Si 10.96 -5.20 -2.16
Si  6.08 -10.39 -2.83
Si  6.08 10.39 -2.83
Si  6.08 -10.39  2.83
Si  6.08 10.39  2.83
Si -6.08 -10.39 -2.83
Si -6.08 10.39 -2.83
Si -6.08 10.39  2.83
Si -6.08 -10.39  2.83
Si -7.66 -7.07 -6.67
Si -7.66 -7.07  6.67
Si -7.66  7.07 -6.67
Si  7.66 -7.07 -6.67
Si -7.66  7.07  6.67
Si  7.66 -7.07  6.67
Si  7.66  7.07 -6.67
Si  7.66  7.07  6.67
Si  8.56 -9.20  0.00
Si  8.56  9.20  0.00
Si -8.56 -9.20  0.00
Si -8.56  9.20  0.00
Si  2.77 12.26  1.68
Si  2.77 12.26 -1.68
Si -2.77 12.26  1.68
Si -2.77 12.26 -1.68
Si  2.77 -12.26  1.68
Si  2.77 -12.26 -1.68
Si -2.77 -12.26  1.68
Si -2.77 -12.26 -1.68
Si -8.57  5.20  7.83
Si -8.57 -5.20  7.83
Si -8.57  5.20 -7.83
Si -8.57 -5.20 -7.83
Si  8.57  5.20  7.83
Si  8.57 -5.20  7.83
Si  8.57  5.20 -7.83
Si  8.57 -5.20 -7.83
Si -11.88 -3.33 -3.32
Si -11.88 -3.33  3.32
Si -11.88  3.33 -3.32
Si -11.88  3.33  3.32
Si 11.88 -3.33 -3.32
Si 11.88 -3.33  3.32
Si 11.88  3.33 -3.32
Si 11.88  3.33  3.32
Si 12.54  1.87  1.68
Si 12.54  1.87 -1.68
Si 12.54 -1.87  1.68
Si 12.54 -1.87 -1.68
Si -12.54  1.87  1.68
Si -12.54  1.87 -1.68
Si -12.54 -1.87  1.68
Si -12.54 -1.87 -1.68
Si  3.73  7.18 -9.99
Si  3.73  7.18  9.99
Si  3.73 -7.18 -9.99
Si  3.73 -7.18  9.99
Si -3.73  7.18 -9.99
Si -3.73  7.18  9.99
Si -3.73 -7.18  9.99
Si -3.73 -7.18 -9.99
Si -8.61  8.40 -5.00
Si -8.61 -8.40 -5.00
Si -8.61  8.40  5.00
Si -8.61 -8.40  5.00
Si  8.61  8.40 -5.00
Si  8.61 -8.40 -5.00
Si  8.61  8.40  5.00
Si  8.61 -8.40  5.00
Si  3.69 -10.39 -7.16
Si  3.69 10.39 -7.16
Si -3.69 -10.39 -7.16
Si -3.69 10.39 -7.16
Si  3.69 -10.39  7.16
Si  3.69 10.39  7.16
Si -3.69 10.39  7.16
Si -3.69 -10.39  7.16
Si -12.12  5.20  0.00
Si -12.12 -5.20  0.00
Si 12.12  5.20  0.00
Si 12.12 -5.20  0.00
Si  8.56 -1.19  9.99
Si  8.56 -1.19 -9.99
Si  8.56  1.19 -9.99
Si  8.56  1.19  9.99
Si -8.56 -1.19  9.99
Si -8.56 -1.19 -9.99
Si -8.56  1.19 -9.99
Si -8.56  1.19  9.99
Si -1.20  5.20 12.15
Si -1.20 -5.20 12.15
Si  1.20  5.20 12.15
Si  1.20 -5.20 12.15
Si -1.20  5.20 -12.15
Si -1.20 -5.20 -12.15
Si  1.20  5.20 -12.15
Si  1.20 -5.20 -12.15
Si 12.30 -0.00 -5.00
Si 12.30  0.00  5.00
Si -12.30 -0.00 -5.00
Si -12.30  0.00  5.00
Si  3.69 -0.00 -12.82
Si -3.69 -0.00 -12.82
Si  3.69  0.00 12.82
Si -3.69  0.00 12.82
Si -1.16 12.38 -5.00
Si -1.16 -12.38 -5.00
Si -1.16 12.38  5.00
Si -1.16 -12.38  5.00
Si  1.16 12.38 -5.00
Si  1.16 -12.38 -5.00
Si  1.16 12.38  5.00
Si  1.16 -12.38  5.00
Si -7.41  5.20 -9.99
Si -7.41  5.20  9.99
Si -7.41 -5.20  9.99
Si -7.41 -5.20 -9.99
Si  7.41  5.20 -9.99
Si  7.41  5.20  9.99
Si  7.41 -5.20 -9.99
Si  7.41 -5.20  9.99
Si  7.24 -10.39 -5.00
Si  7.24 10.39 -5.00
Si -7.24 -10.39 -5.00
Si -7.24 10.39 -5.00
Si  7.24 -10.39  5.00
Si  7.24 10.39  5.00
Si -7.24 -10.39  5.00
Si -7.24 10.39  5.00
Si  1.21 -9.20 -9.99
Si  1.21 -9.20  9.99
Si -1.21 -9.20 -9.99
Si -1.21 -9.20  9.99
Si  1.21  9.20  9.99
Si  1.21  9.20 -9.99
Si -1.21  9.20  9.99
Si -1.21  9.20 -9.99
Si  6.04  7.18 -9.99
Si  6.04  7.18  9.99
Si  6.04 -7.18  9.99
Si  6.04 -7.18 -9.99
Si -6.04  7.18  9.99
Si -6.04  7.18 -9.99
Si -6.04 -7.18  9.99
Si -6.04 -7.18 -9.99
Si  7.00  1.87 11.67
Si  7.00 -1.87 11.67
Si -7.00  1.87 11.67
Si -7.00 -1.87 11.67
Si  7.00  1.87 -11.67
Si  7.00 -1.87 -11.67
Si -7.00  1.87 -11.67
Si -7.00 -1.87 -11.67
Si 13.46 -0.00 -2.83
Si 13.46  0.00  2.83
Si -13.46 -0.00 -2.83
Si -13.46  0.00  2.83
Si  7.00  8.52  8.31
Si -7.00  8.52  8.31
Si  7.00  8.52 -8.31
Si  7.00 -8.52  8.31
Si -7.00  8.52 -8.31
Si -7.00 -8.52  8.31
Si  7.00 -8.52 -8.31
Si -7.00 -8.52 -8.31
Si 13.49  3.21  0.00
Si 13.49 -3.21  0.00
Si -13.49  3.21  0.00
Si -13.49 -3.21  0.00
