500
set: 1001.00  0.00  0.00
Si  0.47 -1.11  0.83
Si -0.40  1.29 -0.88
Si -1.35 -1.18 -0.81
Si  1.37  1.22  0.86
Si -2.17  1.20  0.83
Si  0.88 -0.06 -2.50
Si -0.93 -0.00  2.56
Si  2.29 -1.26 -0.86
Si  0.04  2.42  2.46
Si  3.13  1.21 -0.81
Si -0.04 -2.43 -2.49
Si -3.16 -1.20  0.84
Si  2.66 -0.03  2.48
Si -2.69  0.02 -2.49
Si -0.52 -3.63  0.86
Si  0.53  3.68 -0.81
Si -1.84 -2.43  2.46
Si  1.79 -2.43  2.51
Si -1.88  2.34 -2.54
Si  1.84  2.42 -2.49
Si  1.25 -3.65 -0.81
Si -1.28  3.65  0.84
Si  4.03 -1.20  0.84
Si  0.90 -0.00  4.21
Si -4.06  1.21 -0.81
Si -2.29 -3.56 -0.88
Si -0.90 -0.01 -4.25
Si  2.36  3.74  0.83
Si -3.02  3.59 -0.86
Si  0.01  2.43 -4.14
Si -0.06 -2.49  4.20
Si  3.14 -3.65  0.83
Si -3.52  2.42  2.51
Si  3.43 -2.52 -2.54
Si  2.73 -0.01 -4.19
Si -2.82 -0.09  4.16
Si  3.67  2.42  2.51
Si -4.90 -1.26 -0.86
Si  4.50  0.02 -2.49
Si  1.82  2.36  4.20
Si -1.87 -2.43 -4.14
Si -4.53 -0.03  2.48
Si  1.72 -2.45 -4.23
Si -1.75  2.45  4.22
Si -3.76 -2.52 -2.54
Si  5.02  1.20  0.83
Si -4.05 -3.65  0.83
Si  0.78 -4.88  2.48
Si -0.81  4.88 -2.49
Si  0.95  4.85  2.56
Si  4.18  3.59 -0.86
Si -1.01 -4.92 -2.50
Si  0.42 -1.20 -5.84
Si  5.84 -1.18 -0.81
Si -5.83  1.22  0.86
Si  3.56 -2.40  4.22
Si  2.61 -4.83 -2.49
Si -2.65  4.83  2.48
Si  4.38 -0.09  4.16
Si -3.59  2.40 -4.23
Si -0.41  1.25  5.90
Si  3.60  2.40 -4.23
Si -3.63 -2.40  4.22
Si  2.76  4.79 -2.50
Si -1.34 -1.14  5.82
Si -0.28  6.06  0.83
Si -4.46 -0.01 -4.19
Si  4.91 -3.56 -0.88
Si -2.82 -4.85  2.56
Si -4.84  3.74  0.83
Si  1.41  1.31 -5.87
Si -1.41 -5.97  0.83
Si  0.41 -6.12 -0.86
Si  5.32  2.34 -2.54
Si  5.35 -2.43  2.46
Si  1.48  6.14 -0.88
Si -5.35  2.42 -2.49
Si -2.22  1.23 -5.86
Si -0.93  4.76  4.16
Si  2.19 -1.22  5.89
Si -5.40 -2.43  2.51
Si  0.85 -4.86 -4.19
Si  2.14 -6.05  0.84
Si -2.17  6.06 -0.81
Si -0.99 -4.86  4.21
Si  0.98  4.85 -4.25
Si -3.11 -1.22 -5.87
Si  6.26 -0.00  2.56
Si  3.23  1.16  5.85
Si -6.31 -0.06 -2.50
Si -6.72 -1.11  0.83
Si -0.47 -3.54 -5.87
Si -3.24 -6.03 -0.81
Si -2.58  4.85 -4.19
Si  2.49 -4.94  4.16
Si  0.54  3.72  5.82
Si  3.25  6.08  0.86
Si  6.79  1.29 -0.88
Si -4.43  4.79 -2.50
Si  2.78  4.85  4.21
Si  5.91  3.65  0.84
Si -1.23  3.63 -5.87
Si  4.38 -4.85  2.56
Si -5.94 -3.65 -0.81
Si -2.79 -4.86 -4.25
Si  1.35 -3.69  5.85
Si  4.54  4.83  2.48
Si -4.58 -4.83 -2.49
Si -3.96  1.16  5.85
Si  5.32 -2.43 -4.14
Si -5.37  2.36  4.20
Si  3.95 -6.03 -0.81
Si  4.08 -1.22 -5.87
Si  2.31  3.65 -5.84
Si -2.30 -3.60  5.90
Si -3.94  6.08  0.86
Si  5.44  2.45  4.22
Si -5.47 -2.45 -4.23
Si  3.09 -3.62 -5.86
Si -6.29 -0.00  4.21
Si  6.29 -0.01 -4.25
Si -3.12  3.63  5.89
Si -0.41  1.25 -7.51
Si  0.01  7.19 -2.54
Si  6.67 -3.63  0.86
Si -6.66  3.68 -0.81
Si  0.42 -1.20  7.57
Si -0.10 -7.28  2.51
Si -7.59  1.29 -0.88
Si  4.97  1.23 -5.86
Si  1.41  1.31  7.54
Si  7.66 -1.11  0.83
Si -1.34 -1.14 -7.59
Si -4.41  4.85  4.21
Si  4.41 -4.86 -4.25
Si -5.00 -1.22  5.89
Si -1.63  7.28  2.51
Si  4.62  4.85 -4.19
Si  5.02  6.06 -0.81
Si  1.93  7.27  2.46
Si  2.19 -1.22 -7.52
Si -5.05 -6.05  0.84
Si -1.93 -7.28 -2.49
Si -7.15  2.42  2.46
Si  1.55 -7.37 -2.54
Si  7.15 -2.43 -2.49
Si -2.22  1.23  7.55
Si -4.70 -4.94  4.16
Si  7.23  2.42  2.46
Si -4.11 -3.62 -5.86
Si -7.24 -2.43 -2.49
Si  4.08  3.63  5.89
Si -3.11 -1.22  7.53
Si  6.19 -4.92 -2.50
Si  3.23  1.16 -7.56
Si -6.24  4.85  2.56
Si  5.85 -1.14  5.82
Si -5.78  1.31 -5.87
Si -0.47 -3.54  7.54
Si  5.78 -5.97  0.83
Si  6.38  4.88 -2.49
Si -6.42 -4.88  2.48
Si -5.71  6.14 -0.88
Si  0.13  7.30  4.22
Si  3.46 -7.29  2.46
Si -3.47  7.28 -2.49
Si -0.17 -7.31 -4.23
Si -4.88  3.65 -5.84
Si  8.07 -0.06 -2.50
Si -0.34  6.08 -5.86
Si -1.23  3.63  7.53
Si  0.54  3.72 -7.59
Si  0.31 -6.08  5.89
Si  4.90 -3.60  5.90
Si -8.12 -0.00  2.56
Si  1.35 -3.69 -7.56
Si -1.46 -6.06 -5.84
Si -3.73 -7.29  2.46
Si  3.72  7.28 -2.49
Si  1.67 -7.26  4.22
Si -1.13  8.44 -0.86
Si -0.64 -8.50 -0.81
Si -7.71 -3.63  0.86
Si -1.71  7.25 -4.23
Si  0.60  8.51  0.84
Si  1.89  7.28 -4.14
Si  7.72  3.68 -0.81
Si -3.96  1.16 -7.56
Si  1.47  6.10  5.90
Si  1.25 -8.50  0.83
Si -7.18  2.43 -4.14
Si -2.30 -3.60 -7.51
Si  7.13 -2.49  4.20
Si -2.07  6.01  5.85
Si  7.20  2.43 -4.14
Si  4.08 -1.22  7.53
Si -8.55 -1.18 -0.81
Si -1.95 -7.34  4.20
Si  8.56  1.22  0.86
Si  2.31  3.65  7.57
Si  2.20 -6.08 -5.87
Si -7.26 -2.49  4.20
Si -2.40 -8.48  0.86
Si  6.26  4.76  4.16
Si  2.41  8.53 -0.81
Si -3.12  3.63 -7.52
Si  3.09 -3.62  7.55
Si  6.21 -4.86  4.21
Si -6.21  4.85 -4.25
Si -3.23 -5.99  5.82
Si  3.02 -8.42 -0.88
Si -6.77 -1.20 -5.84
Si -6.34 -4.86 -4.19
Si -3.49  7.22  4.20
Si -5.84 -3.69  5.85
Si  3.43 -7.28 -4.14
Si  6.78  1.25  5.90
Si -5.00 -1.22 -7.52
Si  8.09 -0.00  4.21
Si  4.97  1.23  7.55
Si -2.95  8.59  0.83
Si  5.96  3.63 -5.87
Si  3.30  6.17 -5.87
Si  3.71  7.22  4.20
Si -8.09 -0.01 -4.25
Si -6.78 -6.12 -0.86
Si -3.76 -7.28 -4.14
Si -0.90 -0.01  9.16
Si  6.91  6.06  0.83
Si  8.44 -3.65 -0.81
Si  0.90 -0.00 -9.20
Si  3.96 -5.99  5.82
Si -8.47  3.65  0.84
Si  4.08  3.63 -7.52
Si -5.27  7.27  2.46
Si  5.26 -7.28 -2.49
Si -4.11 -3.62  7.55
Si -3.89  6.17 -5.87
Si -4.17 -8.42 -0.88
Si -9.36  1.20  0.83
Si  5.56  7.28  2.51
Si -0.06 -2.49 -9.21
Si  0.01  2.43  9.27
Si -6.65  3.72  5.82
Si -5.78  1.31  7.54
Si  6.72 -3.54 -5.87
Si  9.48 -1.26 -0.86
Si  2.73 -0.01  9.22
Si  4.24  8.59  0.83
Si -5.64 -7.37 -2.54
Si  8.98 -2.43  2.51
Si  5.85 -1.14 -7.59
Si  1.72 -2.45  9.18
Si -7.48  6.06  0.83
Si  4.89 -3.60 -7.51
Si  7.97 -4.88  2.48
Si -2.82 -0.09 -9.25
Si  0.31 -6.08 -7.52
Si -1.75  2.45 -9.19
Si  7.62 -1.20 -5.84
Si -9.04 -2.43  2.46
Si  9.03  2.42 -2.49
Si  1.82  2.36 -9.21
Si -8.00  4.88 -2.49
Si -0.34  6.08  7.55
Si -9.07  2.34 -2.54
Si -7.60  1.25  5.90
Si -4.88  3.65  7.57
Si -1.87 -2.43  9.27
Si  4.79 -8.48  0.86
Si  1.47  6.10 -7.51
Si  7.60 -6.12 -0.86
Si -1.46 -6.06  7.57
Si -4.78  8.53 -0.81
Si -5.00 -6.08 -5.87
Si  8.14  4.85  2.56
Si  5.12  6.01  5.85
Si -8.20 -4.92 -2.50
Si -2.07  6.01 -7.56
Si -5.30  7.28 -4.14
Si  2.20 -6.08  7.53
Si  5.24 -7.34  4.20
Si -0.76  9.68  2.48
Si  0.73 -9.68 -2.49
Si  5.49  7.25 -4.23
Si -5.52 -7.26  4.22
Si  1.07  9.73 -2.49
Si -1.11 -9.73  2.48
Si  3.56 -2.40 -9.19
Si -3.59  2.40  9.18
Si  3.60  2.40  9.18
Si  9.85 -0.03  2.48
Si  8.91 -2.45 -4.23
Si -9.48 -3.56 -0.88
Si -3.63 -2.40 -9.19
Si  5.73 -6.06 -5.84
Si -8.94  2.45  4.22
Si -3.23 -5.99 -7.59
Si -9.88  0.02 -2.49
Si  6.78  1.25 -7.51
Si  9.01  2.36  4.20
Si -6.77 -1.20  7.57
Si  4.38 -0.09 -9.25
Si -5.72  6.10  5.90
Si -4.46 -0.01  9.22
Si -5.84 -3.69 -7.56
Si -9.07 -2.43 -4.14
Si  5.96  3.63  7.53
Si -7.66 -3.54 -5.87
Si -2.54  9.64 -2.50
Si  3.30  6.17  7.54
Si  8.04 -4.86 -4.19
Si  9.55  3.74  0.83
Si -8.12  4.76  4.16
Si  0.66  8.48 -5.87
Si  2.49 -9.71  2.56
Si -0.53 -8.54  5.85
Si  7.73  3.72  5.82
Si  1.20 -8.48 -5.86
Si -8.54 -1.14  5.82
Si -8.18 -4.86  4.21
Si -1.23  8.48  5.89
Si -5.94 -8.50  0.83
Si  8.18  4.85 -4.25
Si  0.98  4.85  9.16
Si  6.06  8.44 -0.86
Si 10.33  1.21 -0.81
Si  2.84  9.71  2.56
Si -0.93  4.76 -9.25
Si -0.99 -4.86 -9.20
Si  3.96 -5.99 -7.59
Si  0.85 -4.86  9.22
Si -10.36 -1.20  0.84
Si  7.10 -7.28  2.51
Si -7.18  7.19 -2.54
Si -3.89  6.17  7.54
Si  7.20  7.19 -2.54
Si -2.89 -9.77 -2.50
Si  8.61  1.31 -5.87
Si -8.61 -5.97  0.83
Si -2.35 -8.39 -5.87
Si  0.95  9.62  4.16
Si -0.69  9.70 -4.19
Si -7.29 -7.28  2.51
Si -1.04 -9.71 -4.19
Si  2.43  8.57  5.82
Si  0.61 -9.79  4.16
Si  8.68  6.14 -0.88
Si  6.72 -3.54  7.54
Si -2.58  4.85  9.22
Si -2.79 -4.86  9.16
Si  3.01 -8.46  5.90
Si -3.00  8.50 -5.84
Si -6.65  3.72 -7.59
Si -7.60  1.25 -7.51
Si  2.78  4.85 -9.20
Si  6.56 -8.50 -0.81
Si  9.92 -0.01 -4.19
Si  2.49 -4.94 -9.25
Si -6.59  8.51  0.84
Si  7.62 -1.20  7.57
Si -10.01 -0.09  4.16
Si -10.21  3.59 -0.86
Si -2.53  9.70  4.21
Si  6.86  6.08 -5.86
Si -0.93 -0.00 -10.85
Si -8.42  3.63 -5.87
Si -5.00 -6.08  7.53
Si  2.52 -9.71 -4.25
Si -6.88 -6.08  5.89
Si -5.37  2.36 -9.21
Si  5.12  6.01 -7.56
Si  0.26 -10.90  0.84
Si  0.88 -0.06 10.91
Si -4.36  9.71  2.56
Si -0.29 10.91 -0.81
Si  5.32 -2.43  9.27
Si  5.44  2.45 -9.19
Si  4.30 -9.77 -2.50
Si -2.87 -9.71  4.21
Si -5.47 -2.45  9.18
Si  2.87  9.70 -4.25
Si  7.03 -7.31 -4.23
Si 10.33 -3.65  0.83
Si  8.54 -3.69  5.85
Si  4.65  9.64 -2.50
Si -7.06  7.30  4.22
Si  1.60 10.91  0.83
Si -4.70 -9.71  2.56
Si -1.48 -10.97 -0.86
Si  2.07 -10.88 -0.81
Si  6.29 -0.01  9.16
Si -4.18 -8.46  5.90
Si  4.19  8.50 -5.84
Si -6.29 -0.00 -9.20
Si  9.38 -1.22  5.89
Si -2.06 10.93  0.86
Si -9.41  1.23 -5.86
Si  9.34 -6.05  0.84
Si  7.33  7.30  4.22
Si -0.04 -2.43 10.92
Si -9.37  6.06 -0.81
Si -7.36 -7.31 -4.23
Si 10.62 -2.52 -2.54
Si  9.81 -4.83 -2.49
Si  0.04  2.42 -10.95
Si -9.84  4.83  2.48
Si -5.72  6.10 -7.51
Si -2.69  0.02 10.92
Si  2.66 -0.03 -10.93
Si  5.73 -6.06  7.57
Si -10.71  2.42  2.51
Si  4.41 -4.86  9.16
Si -1.87  2.34 10.87
Si -4.41  4.85 -9.20
Si  1.79 -2.43 -10.89
Si  7.50 -6.08  5.89
Si -7.53  6.08 -5.86
Si 11.22 -1.20  0.84
Si -7.66 -3.54  7.54
Si  4.84 -8.39 -5.87
Si  9.95  4.79 -2.50
Si  1.84  2.42 10.92
Si -3.30 -10.82  0.83
Si -11.25  1.21 -0.81
Si  0.66  8.48  7.53
Si -1.84 -2.43 -10.95
Si  4.62  4.85  9.22
Si -1.23  8.48 -7.52
Si -4.77  8.57  5.82
Si 10.87  2.42  2.51
Si -10.01 -4.85  2.56
Si  1.20 -8.48  7.55
Si -0.53 -8.54 -7.56
Si  4.32 -9.71  4.21
Si -4.32  9.70 -4.25
Si  7.73  3.72 -7.59
Si -8.54 -1.14 -7.59
Si -4.70 -4.94 -9.25
Si  8.61  1.31  7.54
Si -10.95 -2.52 -2.54
Si -2.35 -8.39  7.54
Si  3.90 -10.82  0.83
Si  3.37 11.00 -0.88
Si  4.67  9.70  4.21
Si  7.80  8.51  0.84
Si -4.67 -9.71 -4.25
Si -7.83 -8.50 -0.81
Si  9.68 -4.94  4.16
Si  3.43 -2.52 10.87
Si -3.82 11.00 -0.88
Si -9.77  4.85 -4.19
Si  2.42  8.57 -7.59
Si -3.52  2.42 -10.89
Si  3.01 -8.46 -7.51
Si  8.74 -7.37 -2.54
Si -8.83  7.28  2.51
Si -0.17 -7.31  9.18
Si  9.50  3.65 -5.84
Si -9.49 -3.60  5.90
Si  0.13  7.30 -9.19
Si  6.08 -9.73  2.48
Si  3.67  2.42 -10.89
Si -6.12  9.73 -2.49
Si -3.76 -2.52 10.87
Si -3.00  8.50  7.57
Si 10.75 -2.40  4.22
Si  4.50  0.02 10.92
Si -1.71  7.25  9.18
Si -10.78  2.40 -4.23
Si  1.67 -7.26 -9.19
Si -4.53 -0.03 -10.93
Si 10.79  2.40 -4.23
Si -11.24 -3.65  0.83
Si  9.97  4.85  4.21
Si -10.83 -2.40  4.22
Si -6.88 -6.08 -7.52
Si -8.42  3.63  7.53
Si  6.86  6.08  7.55
Si  6.43  9.68  2.48
Si -9.98 -4.86 -4.25
Si -8.32  8.44 -0.86
Si -6.46 -9.68 -2.49
Si  7.13 -2.49 -9.21
Si  9.12  7.27  2.46
Si -5.99 -8.48 -5.86
Si  0.95  4.85 -10.85
Si -10.30 -1.22 -5.87
Si  5.96  8.48  5.89
Si -9.12 -7.28 -2.49
Si  1.90  7.28  9.27
Si -1.95 -7.34 -9.21
Si 11.69  0.02 -2.49
Si 11.37  3.59 -0.86
Si -7.18  2.43  9.27
Si -11.72 -0.03  2.48
Si -7.26 -2.49 -9.21
Si  7.20  2.43  9.27
Si -0.81  4.88 10.92
Si  8.54 -3.69 -7.56
