500
set: 1049.00  0.00  0.00
Si -0.40  1.15 -0.83
Si  0.36 -1.24  0.85
Si  1.30  1.13  0.84
Si -1.35 -1.24 -0.82
Si -0.91  0.00  2.38
Si  2.16 -1.16 -0.74
Si -2.19  1.13  0.71
Si  0.99  0.14 -2.46
Si -0.04 -2.22 -2.47
Si -3.03 -1.21  0.87
Si  3.04  1.19 -0.87
Si  0.01  2.34  2.52
Si  0.45  3.44 -0.82
Si -2.67 -0.03 -2.40
Si  2.65  0.04  2.43
Si -0.50 -3.54  0.84
Si -1.23  3.47  0.87
Si -1.71  2.36 -2.42
Si  1.24 -3.48 -0.87
Si  1.77 -2.37  2.42
Si -1.79 -2.33  2.52
Si  1.76  2.46 -2.47
Si -0.89  0.00 -4.00
Si  0.86  0.12  4.04
Si  2.16  3.44  0.85
Si -3.94  1.19 -0.87
Si  3.96 -1.21  0.87
Si -2.20 -3.53 -0.83
Si  0.09 -2.20  4.05
Si -3.02  3.52 -0.74
Si  3.00 -3.55  0.71
Si -0.01  2.34 -4.13
Si -3.41  2.31  2.42
Si  3.48 -2.32 -2.42
Si -2.61  0.02  4.09
Si -3.51 -2.32 -2.42
Si  3.57  2.31  2.42
Si  2.68 -0.03 -4.10
Si  4.32 -0.03 -2.40
Si -4.33  0.04  2.43
Si  4.79  1.13  0.71
Si  1.76 -2.30 -4.09
Si -4.82 -1.16 -0.74
Si -1.77  2.31  4.12
Si -1.81 -2.34 -4.13
Si  1.89  2.48  4.05
Si -0.81 -4.54 -2.46
Si -0.86  4.65 -2.40
Si  0.85 -4.64  2.43
Si  0.89  4.68  2.38
Si  3.96  3.52 -0.74
Si -3.99 -3.55  0.71
Si  0.40 -1.21 -5.68
Si -0.45  1.10  5.70
Si  5.63 -1.24 -0.82
Si -3.43  2.38 -4.09
Si  2.52 -4.71 -2.40
Si  3.42 -2.37  4.12
Si -5.69  1.13  0.84
Si -0.39  5.81  0.71
Si -2.53  4.72  2.43
Si  0.36 -5.84 -0.74
Si  1.26  1.09 -5.67
Si -2.71 -4.68  2.38
Si  3.56  2.38 -4.09
Si -3.57 -2.37  4.12
Si -4.31 -0.03 -4.10
Si -1.30 -1.19  5.68
Si -4.82  3.44  0.85
Si  4.37  0.02  4.09
Si  4.78 -3.53 -0.83
Si  1.40  5.83 -0.83
Si  2.79  4.82 -2.46
Si -2.12  1.13 -5.65
Si  2.14 -1.14  5.64
Si -1.44 -5.92  0.85
Si -0.94 -4.56  4.04
Si -5.21 -2.37  2.42
Si  0.92  4.68 -4.00
Si  5.20 -2.33  2.52
Si  5.28  2.36 -2.42
Si -5.22  2.46 -2.47
Si -0.81  4.70  4.09
Si  0.88 -4.71 -4.10
Si -2.14  5.87 -0.87
Si  2.16 -5.89  0.87
Si -6.00  0.14 -2.46
Si  6.07  0.00  2.38
Si  3.10  5.81  0.84
Si  3.06  1.18  5.78
Si  0.50  3.49  5.68
Si -2.51  4.65 -4.10
Si -3.08 -1.21 -5.81
Si -2.68 -4.68 -4.00
Si  2.57 -4.66  4.09
Si -0.54 -3.58 -5.67
Si  6.58  1.15 -0.83
Si -3.15 -5.92 -0.82
Si  4.27 -4.68  2.38
Si -5.74 -3.48 -0.87
Si  5.75  3.47  0.87
Si -6.62 -1.24  0.85
Si  2.66  4.80  4.04
Si -4.20  4.82 -2.46
Si  1.26 -3.50  5.78
Si -1.28  3.47 -5.81
Si -4.46 -4.71 -2.40
Si  4.45  4.72  2.43
Si -5.10  2.48  4.05
Si  2.20  3.47 -5.68
Si -5.23 -2.30 -4.09
Si  5.18 -2.34 -4.13
Si  5.21  2.31  4.12
Si -3.89  5.81  0.84
Si -3.93  1.18  5.78
Si -2.25 -3.58  5.70
Si  3.83 -5.92 -0.82
Si  3.90 -1.21 -5.81
Si  6.10  0.00 -4.00
Si -3.05  3.54  5.64
Si  3.06 -3.55 -5.65
Si -6.13  0.12  4.04
Si -6.54  3.44 -0.82
Si -0.45  1.10 -7.33
Si  6.48 -3.54  0.84
Si  0.09  7.04 -2.42
Si -0.03 -7.05  2.42
Si  0.39 -1.21  7.36
Si  7.34 -1.24  0.85
Si  4.30 -4.68 -4.00
Si -7.38  1.15 -0.83
Si -4.85 -1.14  5.64
Si  4.86  1.13 -5.65
Si -1.84 -6.90 -2.47
Si  1.26  1.10  7.37
Si -1.30 -1.19 -7.35
Si -1.61  6.99  2.42
Si  1.68 -7.00 -2.42
Si -4.41 -4.66  4.09
Si -4.33  4.80  4.04
Si  4.48  4.65 -4.10
Si  4.84  5.87 -0.87
Si -4.83 -5.89  0.87
Si  1.81  7.02  2.52
Si  6.95 -2.22 -2.47
Si  3.94  3.54  5.64
Si -3.92 -3.55 -5.65
Si -7.02 -2.22 -2.47
Si -2.13  1.13  7.39
Si -6.97  2.34  2.52
Si  2.15 -1.15 -7.39
Si  7.00  2.34  2.52
Si -3.09 -1.21  7.23
Si  3.06  1.17 -7.25
Si -6.09  4.68  2.38
Si  6.12  4.65 -2.40
Si  6.17 -4.54 -2.46
Si -6.13 -4.64  2.43
Si -0.04 -6.98 -4.09
Si -0.33  5.81 -5.65
Si -5.58  5.83 -0.83
Si  0.03  6.99  4.12
Si  0.34 -5.82  5.64
Si -1.29  3.47  7.23
Si  5.68 -1.19  5.68
Si -5.72  1.09 -5.67
Si  0.50  3.48 -7.35
Si  1.26 -3.50 -7.25
Si  5.54 -5.92  0.85
Si -1.71 -6.88  4.05
Si  3.40 -7.01  2.52
Si -4.78  3.47 -5.68
Si -0.54 -3.58  7.37
Si  0.57  8.15  0.87
Si  4.73 -3.58  5.70
Si  1.34  5.78  5.70
Si -0.56 -8.16 -0.87
Si  7.43  3.44 -0.82
Si -7.89  0.00  2.38
Si -3.59 -7.01  2.52
Si -3.42  7.14 -2.47
Si -1.40 -5.89 -5.68
Si  3.89 -1.21  7.23
Si -6.90 -2.20  4.05
Si -1.63  7.06 -4.09
Si -1.23  8.19 -0.74
Si  1.62 -7.05  4.12
Si -7.49 -3.54  0.84
Si -3.92  1.17 -7.25
Si  1.79  7.02 -4.13
Si  7.97  0.14 -2.46
Si  1.20 -8.23  0.71
Si  3.56  7.14 -2.47
Si  8.28  1.13  0.84
Si  2.19  3.48  7.36
Si  6.98  2.34 -4.13
Si  7.07 -2.20  4.05
Si -6.99  2.34 -4.13
Si  2.25  8.12 -0.82
Si -8.33 -1.24 -0.82
Si -2.25 -3.58 -7.33
Si -2.13  5.86  5.78
Si  2.10 -5.89 -5.81
Si  6.04 -4.56  4.04
Si -2.30 -8.22  0.84
Si -6.07  4.68 -4.00
Si  3.06  5.77 -5.67
Si -3.02  8.12  0.85
Si -6.11 -4.71 -4.10
Si -3.04  3.53 -7.39
Si  6.53  1.10  5.70
Si -3.10 -5.87  5.68
Si  3.05 -3.55  7.39
Si  6.17  4.70  4.09
Si -6.58 -1.21 -5.68
Si  2.98 -8.21 -0.83
Si  6.59  5.81  0.71
Si  3.38 -7.02 -4.13
Si  7.84  0.12  4.04
Si -7.87  0.00 -4.00
Si  5.70  3.47 -5.81
Si -5.73 -3.50  5.78
Si -3.30  7.16  4.05
Si -6.62 -5.84 -0.74
Si -4.84 -1.15 -7.39
Si -3.61 -7.02 -4.13
Si  4.85  1.13  7.39
Si  5.14 -6.90 -2.47
Si -8.21  3.47  0.87
Si  8.22 -3.48 -0.87
Si -3.92  5.77 -5.67
Si  3.68  7.16  4.05
Si  0.86  0.12 -8.99
Si  3.88 -5.87  5.68
Si  3.96  8.12  0.85
Si -5.17  7.02  2.52
Si -0.89  0.01  9.04
Si -3.93 -3.55  7.39
Si  3.94  3.53 -7.39
Si -5.31 -7.00 -2.42
Si  5.37  6.99  2.42
Si -4.00 -8.21 -0.83
Si -0.01  2.34  8.90
Si  9.14 -1.16 -0.74
Si  0.09 -2.21 -8.98
Si -9.17  1.13  0.71
Si  6.45 -3.58 -5.67
Si -6.49  3.49  5.68
Si -2.60  0.02 -8.94
Si  2.67 -0.03  8.93
Si -8.69  2.36 -2.42
Si -7.79 -4.54 -2.46
Si  5.69 -1.19 -7.35
Si -1.76  2.31 -8.91
Si -1.81 -2.34  8.90
Si  8.76 -2.37  2.42
Si  7.38 -1.21 -5.68
Si -5.73  1.10  7.37
Si  1.75 -2.30  8.95
Si -0.33  5.81  7.39
Si -7.37  5.81  0.71
Si  7.34 -5.84 -0.74
Si  8.74  2.46 -2.47
Si  0.34 -5.83 -7.39
Si -8.77 -2.33  2.52
Si  7.84 -4.64  2.43
Si -7.85  4.65 -2.40
Si -4.74  8.12 -0.82
Si  1.35  5.78 -7.33
Si -7.44  1.10  5.70
Si  4.74 -3.58 -7.33
Si -4.79  3.48  7.36
Si  7.87  4.68  2.38
Si  4.68 -8.22  0.84
Si  1.89  2.47 -8.98
Si -1.41 -5.88  7.36
Si  4.86  5.86  5.78
Si  2.09 -5.89  7.23
Si -2.12  5.85 -7.25
Si  5.27 -6.88  4.05
Si -4.88 -5.89 -5.81
Si -5.19  7.02 -4.13
Si  0.93  9.33 -2.40
Si -0.94 -9.32  2.43
Si  0.72 -9.39 -2.40
Si -0.73  9.40  2.43
Si  5.36  7.06 -4.09
Si -5.37 -7.05  4.12
Si  9.14  3.44  0.85
Si  5.69  3.47  7.23
Si  3.42 -2.37 -8.91
Si  3.06  5.78  7.37
Si -3.43  2.38  8.95
Si -9.18 -3.53 -0.83
Si -5.72 -3.50 -7.25
Si -5.64  5.78  5.70
Si  6.54  1.10 -7.33
Si -3.56 -2.37 -8.91
Si -2.61 -9.22 -2.46
Si  5.58 -5.89 -5.68
Si -3.10 -5.87 -7.35
Si  3.55  2.38  8.95
Si -4.31 -0.03  8.93
Si  8.74 -2.30 -4.09
Si  9.64  0.04  2.43
Si -9.65 -0.03 -2.40
Si -8.75  2.31  4.12
Si -6.59 -1.21  7.36
Si  4.38  0.02 -8.94
Si  2.48 -9.36  2.38
Si -7.79  4.70  4.09
Si -8.79 -2.34 -4.13
Si -7.92 -4.56  4.04
Si  7.90  4.68 -4.00
Si  0.51  8.15 -5.81
Si  7.48  3.49  5.68
Si  2.69  9.36  2.38
Si -0.54 -8.18  5.78
Si  7.86 -4.71 -4.10
Si  5.76  8.19 -0.74
Si -1.25  8.21  5.64
Si  8.87  2.48  4.05
Si  1.26 -8.23 -5.65
Si  8.25  1.09 -5.67
Si -7.52 -3.58 -5.67
Si -5.79 -8.23  0.71
Si -2.40  9.49 -2.46
Si -8.29 -1.19  5.68
Si -10.01 -1.21  0.87
Si -0.94 -4.56 -8.99
Si -0.81  4.70 -8.94
Si 10.03  1.19 -0.87
Si  0.87 -4.71  8.93
Si -6.89  7.04 -2.42
Si -3.93  5.78  7.37
Si  3.89 -5.87 -7.35
Si  6.96 -7.05  2.42
Si  2.30  8.17  5.68
Si -0.71  9.33 -4.10
Si  0.91  4.68  9.04
Si  0.77 -9.34  4.09
Si -7.01 -7.05  2.42
Si  8.38  5.83 -0.83
Si  7.08  7.04 -2.42
Si  0.99  9.38  4.09
Si -2.33 -8.26 -5.67
Si -0.92 -9.39 -4.10
Si -8.42 -5.92  0.85
Si -2.98  8.15 -5.68
Si -2.51  4.65  8.93
Si -6.48  3.48 -7.35
Si -6.41  8.15  0.87
Si  2.58 -4.66 -8.94
Si  6.44 -3.58  7.37
Si  6.43 -8.16 -0.87
Si -9.59  0.02  4.09
Si -2.74 -9.23  4.04
Si  2.93 -8.26  5.70
Si  2.50 -9.36 -4.00
Si -6.64 -5.82  5.64
Si  6.66  5.81 -5.65
Si  7.38 -1.21  7.36
Si  9.66 -0.03 -4.10
Si -7.43  1.10 -7.33
Si  4.37 -9.22 -2.46
Si  4.86  5.85 -7.25
Si -2.69 -4.67  9.04
Si -4.89 -5.89  7.23
Si  2.66  4.80 -8.99
Si  2.71  9.36 -4.00
Si  5.17 -2.34  8.90
Si -4.29  9.36  2.38
Si  5.22  2.31 -8.91
Si -0.34 10.55 -0.87
Si  1.41 10.49  0.71
Si  0.36 -10.57  0.87
Si -2.53  9.48  4.04
Si -5.23 -2.30  8.95
Si  9.98 -3.55  0.71
Si -5.09  2.47 -8.98
Si  0.98  0.14 10.57
Si -10.01  3.52 -0.74
Si -1.44 -10.52 -0.74
Si -4.51 -9.36  2.38
Si  8.24 -3.50  5.78
Si  6.94 -6.98 -4.09
Si -8.27  3.47 -5.81
Si -6.95  6.99  4.12
Si -0.90 -0.00 -10.65
Si  4.00  8.15 -5.68
Si -7.03 -6.98 -4.09
Si  7.01  6.99  4.12
Si -2.09 10.49  0.84
Si  0.02  2.34 -10.52
Si -9.11  1.13 -5.65
Si  9.12 -1.14  5.64
Si -0.04 -2.21 10.56
Si -4.05 -8.26  5.70
Si  2.03 -10.60 -0.82
Si  4.59  9.49 -2.46
Si  9.50 -4.71 -2.40
Si -6.12  0.12 -8.99
Si -9.13  5.87 -0.87
Si -9.51  4.72  2.43
Si  6.09  0.01  9.04
Si -5.63  5.78 -7.33
Si  0.51  8.15  7.23
Si  9.14 -5.89  0.87
Si -7.31  5.81 -5.65
Si -10.39  2.31  2.42
Si -1.78 -2.34 -10.52
Si  7.32 -5.82  5.64
Si  2.66  0.04 -10.61
Si  4.24 -9.23  4.04
Si  5.58 -5.88  7.36
Si -0.54 -8.19 -7.25
Si -2.67 -0.03 10.64
Si 10.46 -2.32 -2.42
Si  1.75  2.46 10.56
Si -4.69  8.17  5.68
Si -1.72  2.36 10.61
Si -4.40 -4.66 -8.94
Si  3.20 10.51 -0.83
Si -10.49 -2.32 -2.42
Si  4.47  4.65  8.93
Si -9.69 -4.68  2.38
Si -10.93  1.19 -0.87
Si  1.78 -2.37 -10.62
Si -4.27  9.36 -4.00
Si 10.94 -1.21  0.87
Si  4.29 -4.67  9.04
Si  4.65 -8.26 -5.67
Si  7.49  3.48 -7.35
Si -4.32  4.80 -8.99
Si 10.56  2.31  2.42
Si  8.24  1.10  7.37
Si -1.24  8.21 -7.39
Si -4.48 -9.36 -4.00
Si -3.24 -10.60  0.85
Si -7.53 -3.58  7.37
Si  1.25 -8.23  7.39
Si -8.28 -1.19 -7.35
Si  7.55  8.15  0.87
Si -7.54 -8.16 -0.87
Si  9.77  4.82 -2.46
Si -3.78 10.51 -0.83
Si  2.30  8.16 -7.35
Si  4.46  9.48  4.04
Si  3.75 -10.60  0.85
Si -2.34 -8.26  7.37
Si  0.04  6.99 -8.91
Si -9.49  4.65 -4.10
Si -8.59  6.99  2.42
Si  9.18  3.47 -5.68
Si -0.05 -6.98  8.95
Si  6.04 -9.32  2.43
Si -6.05  9.33 -2.40
Si -2.99  8.15  7.36
Si -3.40  2.31 -10.62
Si  9.56 -4.66  4.09
Si  8.66 -7.00 -2.42
Si  3.47 -2.32 10.61
Si -3.51 -2.32 10.61
Si -9.24 -3.58  5.70
Si  2.94 -8.26 -7.33
Si -10.41  2.38 -4.09
Si 10.40 -2.37  4.12
Si  3.58  2.31 -10.62
Si -1.71 -6.88 -8.98
Si -4.32  0.04 -10.61
Si -9.67 -4.68 -4.00
Si -8.82 -6.90 -2.47
Si  1.79  7.02  8.90
Si  1.62 -7.05 -8.91
Si  4.31 -0.03 10.64
Si  5.74  8.21  5.64
Si  9.64  4.80  4.04
Si -5.72 -8.23 -5.65
Si -1.63  7.06  8.95
Si  6.65  5.81  7.39
Si -6.64 -5.83 -7.39
Si 10.94  3.52 -0.74
Si -8.28  3.47  7.23
Si  8.25 -3.50 -7.25
Si  8.79  7.02  2.52
Si -6.89 -2.21 -8.98
Si -0.82 -4.54 10.57
Si -6.26 -9.39 -2.40
Si  6.25  9.40  2.43
Si  6.97  2.34  8.90
Si -10.97 -3.55  0.71
Si 11.30 -0.03 -2.40
Si 10.54  2.38 -4.09
Si -7.00  2.34  8.90
Si -11.31  0.04  2.43
Si -10.55 -2.37  4.12
Si  4.90 10.49  0.84
Si  0.86 -4.64 -10.61
Si -8.21  8.19 -0.74
Si  8.18 -8.23  0.71
