500
set: 1048.00  0.00  0.00
Si -0.42  1.13 -0.82
Si  0.35 -1.25  0.83
Si  1.30  1.17  0.85
Si -1.34 -1.24 -0.84
Si  2.14 -1.15 -0.77
Si -2.18  1.13  0.73
Si -0.92  0.01  2.40
Si  0.99  0.10 -2.49
Si  3.00  1.19 -0.83
Si  0.01 -2.25 -2.49
Si -3.07 -1.21  0.85
Si  0.03  2.32  2.52
Si  0.46  3.44 -0.84
Si -2.66  0.00 -2.41
Si  2.66  0.06  2.44
Si -0.50 -3.51  0.85
Si -1.69  2.31 -2.40
Si  1.20 -3.49 -0.83
Si -1.27  3.47  0.85
Si  1.79 -2.33  2.41
Si -1.77 -2.35  2.52
Si  1.81  2.43 -2.49
Si -0.87 -0.02 -4.00
Si  0.91  0.10  4.02
Si  2.15  3.43  0.83
Si  3.92 -1.21  0.85
Si -3.98  1.19 -0.83
Si -2.22 -3.55 -0.82
Si  0.09 -2.24  4.02
Si  3.00 -3.55  0.73
Si -3.04  3.53 -0.77
Si -0.02  2.35 -4.12
Si -3.39  2.35  2.41
Si  3.49 -2.36 -2.40
Si -3.49 -2.36 -2.40
Si -2.60 -0.02  4.12
Si  2.70  0.01 -4.10
Si  3.59  2.35  2.41
Si  4.33  0.00 -2.41
Si -4.32  0.06  2.44
Si  4.80  1.13  0.73
Si  1.76 -2.28 -4.07
Si -4.84 -1.15 -0.77
Si -1.76  2.34  4.11
Si -1.82 -2.33 -4.12
Si  1.89  2.44  4.02
Si -0.81 -4.58 -2.49
Si  0.86 -4.62  2.44
Si -0.86  4.68 -2.41
Si  0.88  4.69  2.40
Si  3.94  3.53 -0.77
Si -3.98 -3.55  0.73
Si  0.40 -1.17 -5.66
Si -0.44  1.10  5.68
Si  3.42 -2.33  4.11
Si -3.42  2.40 -4.07
Si  2.53 -4.68 -2.41
Si  5.65 -1.24 -0.84
Si -5.68  1.17  0.85
Si -0.38  5.81  0.73
Si  0.34 -5.83 -0.77
Si -2.52  4.74  2.44
Si -2.72 -4.67  2.40
Si -3.56 -2.33  4.11
Si  3.56  2.40 -4.07
Si  1.25  1.09 -5.68
Si -4.29  0.01 -4.10
Si -1.32 -1.21  5.70
Si -4.84  3.43  0.83
Si  4.77 -3.55 -0.82
Si  4.39 -0.02  4.12
Si  1.38  5.81 -0.82
Si  2.79  4.78 -2.49
Si -1.45 -5.93  0.83
Si -0.89 -4.58  4.02
Si  2.10 -1.15  5.69
Si -2.16  1.13 -5.67
Si -5.19 -2.33  2.41
Si  0.93  4.66 -4.00
Si -5.17  2.43 -2.49
Si  5.21 -2.35  2.52
Si  5.29  2.31 -2.40
Si -0.80  4.66  4.12
Si  0.90 -4.67 -4.10
Si -2.18  5.86 -0.83
Si  2.12 -5.89  0.85
Si -5.99  0.10 -2.49
Si  6.06  0.01  2.40
Si  3.04  1.19  5.75
Si -3.08 -1.21 -5.79
Si  3.10  5.85  0.85
Si  0.48  3.47  5.70
Si -2.49  4.68 -4.10
Si  6.57  1.13 -0.82
Si -2.67 -4.70 -4.00
Si  5.72  3.47  0.85
Si -0.55 -3.59 -5.68
Si -3.14 -5.91 -0.84
Si  4.26 -4.67  2.40
Si  2.59 -4.70  4.12
Si -5.78 -3.49 -0.83
Si -6.64 -1.25  0.83
Si  2.71  4.77  4.02
Si -4.19  4.78 -2.49
Si  1.24 -3.49  5.75
Si -1.28  3.47 -5.79
Si -4.46 -4.68 -2.41
Si -5.09  2.44  4.02
Si  4.46  4.74  2.44
Si -5.22 -2.28 -4.07
Si  5.17 -2.33 -4.12
Si  2.20  3.51 -5.66
Si  5.22  2.34  4.11
Si -3.88  5.85  0.85
Si -3.94  1.19  5.75
Si -2.24 -3.57  5.68
Si  3.90 -1.21 -5.79
Si  3.85 -5.91 -0.84
Si -6.07  0.10  4.02
Si  6.11 -0.02 -4.00
Si  3.02 -3.55 -5.67
Si -3.08  3.52  5.69
Si  0.11  6.99 -2.40
Si -0.00 -7.01  2.41
Si -6.52  3.44 -0.84
Si  6.48 -3.51  0.85
Si -0.43  1.10 -7.36
Si  0.40 -1.17  7.37
Si  7.33 -1.25  0.83
Si  4.82  1.13 -5.67
Si  4.31 -4.70 -4.00
Si -7.40  1.13 -0.82
Si  1.24  1.09  7.35
Si -1.31 -1.21 -7.33
Si -4.28  4.77  4.02
Si -1.79 -6.92 -2.49
Si -4.88 -1.15  5.69
Si -1.59  7.03  2.41
Si  4.80  5.86 -0.83
Si  1.69 -7.04 -2.40
Si -4.39 -4.70  4.12
Si  1.82  7.00  2.52
Si  4.50  4.68 -4.10
Si -4.87 -5.89  0.85
Si  2.11 -1.16 -7.35
Si -6.97 -2.25 -2.49
Si  3.90  3.52  5.69
Si -6.96  2.32  2.52
Si  7.00 -2.25 -2.49
Si -2.17  1.13  7.37
Si -3.96 -3.55 -5.67
Si  7.01  2.32  2.52
Si -3.08 -1.21  7.25
Si  3.05  1.19 -7.28
Si -6.12 -4.62  2.44
Si -6.11  4.69  2.40
Si -0.04 -6.96 -4.07
Si  6.12  4.68 -2.41
Si  6.18 -4.58 -2.49
Si -5.60  5.81 -0.82
Si -0.36  5.81 -5.67
Si  5.66 -1.21  5.70
Si  0.49  3.47 -7.33
Si  0.04  7.02  4.11
Si -1.29  3.47  7.25
Si -5.74  1.09 -5.68
Si  5.53 -5.93  0.83
Si  0.30 -5.83  5.69
Si  1.25 -3.49 -7.28
Si -1.71 -6.92  4.02
Si -4.78  3.51 -5.66
Si -0.56 -3.59  7.35
Si  0.53  8.15  0.85
Si  3.41 -7.03  2.52
Si  4.74 -3.57  5.68
Si  1.36  5.78  5.68
Si -0.59 -8.17 -0.83
Si  7.45  3.44 -0.84
Si -3.37  7.11 -2.49
Si -7.90  0.01  2.40
Si -1.40 -5.85 -5.66
Si -3.57 -7.03  2.52
Si  1.62 -7.01  4.11
Si -6.89 -2.24  4.02
Si -7.48 -3.51  0.85
Si  3.90 -1.21  7.25
Si -1.62  7.08 -4.07
Si -1.24  8.21 -0.77
Si  1.78  7.03 -4.12
Si  1.20 -8.23  0.73
Si  7.97  0.10 -2.49
Si  3.61  7.11 -2.49
Si -3.94  1.19 -7.28
Si  8.28  1.17  0.85
Si  6.96  2.35 -4.12
Si  7.07 -2.24  4.02
Si -8.32 -1.24 -0.84
Si  2.20  3.51  7.37
Si -7.00  2.35 -4.12
Si  2.26  8.12 -0.84
Si -2.23 -3.58 -7.36
Si -2.14  5.87  5.75
Si  2.10 -5.89 -5.79
Si -2.30 -8.19  0.85
Si  6.09 -4.58  4.02
Si -6.05  4.66 -4.00
Si  3.05  5.77 -5.68
Si -3.04  8.11  0.83
Si -6.08 -4.67 -4.10
Si -3.08  3.52 -7.35
Si  3.01 -3.55  7.37
Si  6.54  1.10  5.68
Si -6.58 -1.17 -5.66
Si -3.12 -5.89  5.70
Si  6.19  4.66  4.12
Si  2.97 -8.23 -0.82
Si  3.37 -7.01 -4.12
Si -7.85 -0.02 -4.00
Si -3.29  7.12  4.02
Si  6.60  5.81  0.73
Si  5.70  3.47 -5.79
Si -5.74 -3.49  5.75
Si  7.89  0.10  4.02
Si -6.64 -5.83 -0.77
Si  4.81  1.13  7.37
Si -4.88 -1.16 -7.35
Si -3.62 -7.01 -4.12
Si  8.19 -3.49 -0.83
Si  3.69  7.12  4.02
Si -8.25  3.47  0.85
Si -3.94  5.77 -5.68
Si  5.20 -6.92 -2.49
Si  3.91  3.52 -7.35
Si -5.16  7.00  2.52
Si  3.94  8.11  0.83
Si  0.91  0.09 -9.01
Si  3.87 -5.89  5.70
Si -0.88 -0.01  9.04
Si -3.97 -3.55  7.37
Si -5.29 -7.04 -2.40
Si  5.39  7.03  2.41
Si -4.01 -8.23 -0.82
Si -0.02  2.35  8.92
Si  9.13 -1.15 -0.77
Si -9.17  1.13  0.73
Si -2.59 -0.03 -8.91
Si  0.10 -2.24 -9.01
Si -8.68  2.31 -2.40
Si  6.43 -3.59 -5.68
Si -6.50  3.47  5.70
Si  2.69  0.01  8.93
Si  5.67 -1.21 -7.33
Si -7.79 -4.58 -2.49
Si  7.39 -1.17 -5.66
Si -0.37  5.81  7.37
Si  0.31 -5.83 -7.35
Si -5.74  1.09  7.35
Si -1.82 -2.33  8.92
Si  7.33 -5.83 -0.77
Si -1.76  2.34 -8.93
Si  8.78 -2.33  2.41
Si -7.37  5.81  0.73
Si -8.76 -2.35  2.52
Si -7.42  1.10  5.68
Si  1.76 -2.28  8.96
Si  7.84 -4.62  2.44
Si -4.72  8.12 -0.84
Si -7.84  4.68 -2.41
Si  1.36  5.78 -7.36
Si  4.75 -3.58 -7.36
Si  8.79  2.43 -2.49
Si  7.86  4.69  2.40
Si -4.79  3.51  7.37
Si  4.68 -8.19  0.85
Si -1.40 -5.85  7.37
Si  1.90  2.44 -9.01
Si  4.84  5.87  5.75
Si  2.10 -5.89  7.25
Si  5.27 -6.92  4.02
Si -4.88 -5.89 -5.79
Si -2.14  5.86 -7.28
Si -0.94 -9.30  2.44
Si -5.20  7.03 -4.12
Si  0.73 -9.36 -2.41
Si  0.94  9.36 -2.41
Si -5.36 -7.01  4.11
Si -0.73  9.41  2.44
Si  5.36  7.08 -4.07
Si  9.13  3.43  0.83
Si  3.04  5.77  7.35
Si  3.43 -2.34 -8.93
Si  5.70  3.47  7.25
Si -5.62  5.78  5.68
Si  5.59 -5.85 -5.66
Si -3.56 -2.34 -8.93
Si -3.43  2.40  8.96
Si -9.20 -3.55 -0.82
Si -5.74 -3.49 -7.28
Si -3.11 -5.89 -7.33
Si -4.29  0.01  8.93
Si  6.55  1.10 -7.36
Si  8.74 -2.28 -4.07
Si -2.61 -9.26 -2.49
Si  3.56  2.40  8.96
Si -9.64  0.00 -2.41
Si  4.39 -0.03 -8.91
Si -8.74  2.34  4.11
Si  9.64  0.06  2.44
Si -6.58 -1.17  7.37
Si -7.78  4.66  4.12
Si  2.46 -9.35  2.40
Si -7.87 -4.58  4.02
Si -8.80 -2.33 -4.12
Si  0.52  8.15 -5.79
Si -0.56 -8.17  5.75
Si  7.46  3.47  5.70
Si  7.91  4.66 -4.00
Si  2.68  9.37  2.40
Si  7.88 -4.67 -4.10
Si  5.74  8.21 -0.77
Si  8.87  2.44  4.02
Si  8.23  1.09 -5.68
Si -1.28  8.20  5.69
Si  1.22 -8.23 -5.67
Si -2.39  9.46 -2.49
Si -5.78 -8.23  0.73
Si -0.79  4.65 -8.91
Si  9.99  1.19 -0.83
Si -6.88  6.99 -2.40
Si -7.53 -3.59 -5.68
Si  0.89 -4.67  8.93
Si -3.94  5.77  7.35
Si -8.30 -1.21  5.70
Si -0.89 -4.59 -9.01
Si -10.05 -1.21  0.85
Si  3.87 -5.89 -7.33
Si  6.98 -7.01  2.41
Si -6.99 -7.01  2.41
Si  2.28  8.15  5.70
Si  0.92  4.66  9.04
Si  8.37  5.81 -0.82
Si  7.09  6.99 -2.40
Si -0.69  9.36 -4.10
Si  1.00  9.34  4.12
Si -0.90 -9.35 -4.10
Si  0.79 -9.38  4.12
Si -2.35 -8.27 -5.68
Si -8.44 -5.93  0.83
Si -2.49  4.69  8.93
Si -2.98  8.19 -5.66
Si -6.50  3.47 -7.33
Si  6.43 -3.59  7.35
Si  6.39 -8.17 -0.83
Si  2.59 -4.70 -8.91
Si -6.45  8.15  0.85
Si -9.58 -0.02  4.12
Si  2.94 -8.25  5.68
Si -2.69 -9.26  4.02
Si  6.62  5.81 -5.67
Si  2.51 -9.37 -4.00
Si  7.38 -1.17  7.37
Si -7.42  1.10 -7.36
Si  9.68  0.01 -4.10
Si  2.73  9.34 -4.00
Si -2.68 -4.69  9.04
Si  4.84  5.86 -7.28
Si -6.68 -5.83  5.69
Si  4.38 -9.26 -2.49
Si -4.88 -5.89  7.25
Si  2.71  4.77 -9.01
Si  5.16 -2.33  8.92
Si -2.48  9.45  4.02
Si -0.38 10.54 -0.83
Si -4.31  9.37  2.40
Si  0.99  0.10 10.54
Si  0.32 -10.57  0.85
Si  5.23  2.34 -8.93
Si  1.42 10.49  0.73
Si  9.98 -3.55  0.73
Si -5.23 -2.28  8.96
Si  8.22 -3.49  5.75
Si -5.09  2.44 -9.01
Si -1.46 -10.51 -0.77
Si  6.95 -6.96 -4.07
Si -10.02  3.53 -0.77
Si -4.52 -9.35  2.40
Si -8.26  3.47 -5.79
Si -0.92  0.01 -10.64
Si -7.02 -6.96 -4.07
Si -6.95  7.02  4.11
Si  4.00  8.19 -5.66
Si  7.02  7.02  4.11
Si -2.08 10.53  0.85
Si  0.03  2.32 -10.52
Si  0.01 -2.24 10.54
Si  9.08 -1.15  5.69
Si -4.04 -8.25  5.68
Si  4.59  9.46 -2.49
Si -9.15  1.13 -5.67
Si  2.05 -10.59 -0.84
Si -6.07  0.09 -9.01
Si  9.51 -4.68 -2.41
Si  9.10 -5.89  0.85
Si -9.51  4.74  2.44
Si -10.37  2.35  2.41
Si  6.11 -0.01  9.04
Si -9.16  5.86 -0.83
Si -5.62  5.78 -7.36
Si -1.77 -2.36 -10.52
Si  0.51  8.15  7.25
Si  2.67  0.06 -10.59
Si  7.29 -5.83  5.69
Si  5.58 -5.85  7.37
Si -7.35  5.81 -5.67
Si -2.66  0.01 10.62
Si -0.55 -8.17 -7.28
Si  1.80  2.44 10.54
Si  4.29 -9.26  4.02
Si  3.18 10.49 -0.82
Si -4.39 -4.70 -8.91
Si 10.90 -1.21  0.85
Si -4.70  8.15  5.70
Si 10.47 -2.36 -2.40
Si -10.47 -2.36 -2.40
Si -4.26  9.34 -4.00
Si -1.70  2.32 10.64
Si  1.80 -2.33 -10.62
Si  7.47  3.47 -7.33
Si -9.70 -4.67  2.40
Si  4.49  4.69  8.93
Si  4.63 -8.27 -5.68
Si -4.27  4.77 -9.01
Si  4.31 -4.69  9.04
Si -10.96  1.19 -0.83
Si  8.22  1.09  7.35
Si -1.28  8.20 -7.35
Si 10.58  2.35  2.41
Si  1.22 -8.23  7.37
Si  7.51  8.15  0.85
Si -7.54 -3.59  7.35
Si -3.25 -10.61  0.83
Si -4.47 -9.37 -4.00
Si -8.30 -1.21 -7.33
Si  9.77  4.78 -2.49
Si -7.58 -8.17 -0.83
Si -3.80 10.49 -0.82
Si  2.29  8.15 -7.33
Si  4.51  9.45  4.02
Si  3.73 -10.61  0.83
Si -2.36 -8.27  7.35
Si -9.47  4.68 -4.10
Si -8.57  7.03  2.41
Si  9.19  3.51 -5.66
Si -0.04 -6.96  8.96
Si  6.04 -9.30  2.44
Si  0.04  7.02 -8.93
Si -3.38  2.34 -10.62
Si -6.04  9.36 -2.41
Si -9.22 -3.57  5.68
Si -2.99  8.19  7.37
Si -10.40  2.40 -4.07
Si 10.41 -2.33  4.11
Si  8.68 -7.04 -2.40
Si  9.57 -4.70  4.12
Si -4.32  0.06 -10.59
Si  3.48 -2.36 10.64
Si  2.95 -8.26 -7.36
Si -3.50 -2.36 10.64
Si -8.77 -6.92 -2.49
Si -9.65 -4.70 -4.00
Si  3.60  2.34 -10.62
Si  4.32  0.01 10.62
Si  1.63 -7.02 -8.93
Si  6.61  5.81  7.37
Si -1.70 -6.92 -9.01
Si  1.77  7.03  8.92
Si  5.70  8.20  5.69
Si 10.93  3.53 -0.77
Si -6.26 -9.36 -2.41
Si -6.68 -5.83 -7.35
Si -0.81 -4.58 10.54
Si  9.69  4.77  4.02
Si  8.81  7.00  2.52
Si  8.23 -3.49 -7.28
Si -8.27  3.47  7.25
Si -1.63  7.08  8.96
Si -5.76 -8.23 -5.67
Si -10.96 -3.55  0.73
Si  6.96  2.35  8.92
Si -10.54 -2.33  4.11
Si 10.54  2.40 -4.07
Si -6.89 -2.24 -9.01
Si 11.31  0.00 -2.41
Si  6.26  9.41  2.44
Si -11.31  0.06  2.44
Si -7.01  2.35  8.92
Si  0.86 -4.62 -10.59
Si 10.02  1.19  5.75
Si  8.19 -8.23  0.73
Si  8.34  5.78  5.68
