500
set: 942.00  0.00  0.00
Si -0.38  1.14 -0.85
Si  0.39 -1.18  0.82
Si -1.32 -1.16 -0.81
Si  1.33  1.15  0.84
Si -2.13  1.15  0.77
Si  0.89 -0.02 -2.40
Si  2.15 -1.15 -0.80
Si -0.90  0.05  2.45
Si -2.99 -1.17  0.78
Si  3.02  1.18 -0.80
Si  0.06  2.30  2.45
Si -0.01 -2.33 -2.42
Si  2.58 -0.02  2.44
Si -2.58 -0.02 -2.44
Si -0.45 -3.45  0.79
Si  0.47  3.48 -0.79
Si -1.27  3.43  0.78
Si  1.71  2.32 -2.41
Si -1.66  2.34 -2.43
Si  1.30 -3.44 -0.81
Si  1.76 -2.31  2.43
Si -1.80 -2.33  2.42
Si -0.85 -0.03 -4.02
Si  3.88 -1.15  0.80
Si -3.90  1.12 -0.80
Si  0.86 -0.01  4.08
Si -2.19 -3.46 -0.79
Si  2.21  3.48  0.79
Si -0.05 -2.33  4.00
Si -2.98  3.47 -0.84
Si  3.03 -3.47  0.74
Si  0.08  2.34 -4.07
Si -3.43  2.29  2.40
Si -2.57 -0.01  4.07
Si  3.44 -2.34 -2.44
Si -3.50 -2.27 -2.43
Si  3.47  2.35  2.42
Si  2.61  0.01 -4.08
Si -4.27  0.05  2.40
Si  4.26 -0.03 -2.42
Si  4.75  1.15  0.78
Si  1.69 -2.32 -4.03
Si -1.77 -2.26 -4.04
Si -1.74  2.31  4.05
Si -4.78 -1.15 -0.82
Si  1.76  2.34  4.04
Si  0.81 -4.59  2.42
Si  0.86  4.61  2.42
Si -0.94 -4.62 -2.41
Si -3.93 -3.51  0.78
Si -0.84  4.66 -2.43
Si  3.96  3.50 -0.81
Si -3.43  2.30 -3.97
Si  2.52 -4.58 -2.39
Si  3.45  2.31 -3.98
Si  3.40 -2.31  4.03
Si  5.59 -1.15 -0.82
Si  0.43 -1.13 -5.65
Si -0.44  1.21  5.65
Si -5.63  1.15  0.78
Si -0.33  5.76  0.78
Si  0.36 -5.76 -0.80
Si -2.54  4.63  2.46
Si  2.65  4.61 -2.42
Si -3.50 -2.33  4.06
Si -2.60 -4.63  2.45
Si -1.25 -1.12  5.62
Si -4.69  3.46  0.74
Si  4.74 -3.47 -0.84
Si  1.28  1.14 -5.69
Si -4.35  0.04 -4.05
Si  1.33  5.77 -0.81
Si  4.36 -0.01  4.09
Si -1.33 -5.79  0.84
Si -2.17  1.14 -5.62
Si  0.79 -4.63 -3.98
Si  5.18  2.35 -2.39
Si  5.18 -2.31  2.46
Si -5.20  2.35 -2.39
Si -0.90 -4.59  4.04
Si  2.12 -1.16  5.70
Si -5.20 -2.31  2.46
Si -0.84  4.61  4.06
Si  2.09 -5.79  0.78
Si -2.12  5.78 -0.82
Si  0.89  4.68 -4.04
Si -3.06 -1.16 -5.64
Si  3.02  1.15  5.66
Si  3.04  5.75  0.82
Si  6.10  0.05  2.40
Si -6.11 -0.03 -2.42
Si -3.04 -5.79 -0.85
Si -0.47 -3.47 -5.61
Si  6.48  1.12 -0.80
Si  2.61  4.60  4.00
Si  2.55 -4.66  4.00
Si  0.48  3.44  5.67
Si -6.50 -1.15  0.80
Si -2.58 -4.59 -4.07
Si -2.60  4.62 -4.05
Si -5.63 -3.47 -0.84
Si  5.69  3.46  0.74
Si  1.28 -3.45  5.61
Si -1.24  3.46 -5.62
Si -4.28  4.59 -2.44
Si -4.32 -4.59 -2.43
Si  4.28 -4.64  2.40
Si  4.42  4.63  2.43
Si -5.17  2.28  4.00
Si  5.11 -2.32 -4.05
Si  5.21  2.28  4.00
Si  2.19  3.46 -5.61
Si -3.93  1.15  5.64
Si  3.88 -1.19 -5.69
Si -3.84  5.79  0.80
Si -2.18 -3.50  5.67
Si  3.82 -5.82 -0.80
Si -5.26 -2.32 -4.05
Si  3.03 -3.48 -5.60
Si  6.02  0.04 -4.05
Si -6.01 -0.01  4.09
Si -3.02  3.51  5.63
Si  0.08  6.92 -2.44
Si -6.42  3.50 -0.81
Si -0.47  1.14 -7.26
Si -0.08 -6.96  2.44
Si  0.38 -1.15  7.28
Si  6.45 -3.51  0.78
Si -1.27 -1.17 -7.24
Si  4.29 -4.63 -3.97
Si  4.73  1.16 -5.66
Si  1.31  1.14  7.27
Si -7.36  1.18 -0.80
Si -4.31  4.62  4.03
Si  4.35  4.62 -4.03
Si  7.38 -1.17  0.78
Si -4.76 -1.17  5.71
Si -4.79 -5.78  0.77
Si  1.60 -6.96 -2.42
Si -4.39 -4.62  4.05
Si -1.61  6.99  2.40
Si -1.77 -6.96 -2.40
Si  4.81  5.79 -0.80
Si  1.76  6.99  2.45
Si  6.87 -2.27 -2.43
Si  2.14 -1.12 -7.27
Si -2.17  1.20  7.25
Si -3.90 -3.48 -5.62
Si -6.91  2.35  2.42
Si  3.94  3.48  5.61
Si  6.94  2.29  2.40
Si -6.94 -2.34 -2.44
Si -5.96  4.63  2.43
Si -2.99 -1.13  7.26
Si  3.09  1.16 -7.26
Si  6.06 -4.59 -2.43
Si  6.09  4.59 -2.44
Si -6.09 -4.64  2.40
Si  0.09  6.93  4.07
Si -0.04 -6.92 -4.08
Si  0.43  3.52 -7.24
Si  3.44 -6.88  2.40
Si -5.56  5.79 -0.80
Si -4.68  3.46 -5.60
Si -5.64  1.16 -5.66
Si  5.59 -5.78  0.77
Si -0.41  5.78 -5.64
Si -3.45  6.91 -2.42
Si -0.44 -3.49  7.29
Si  4.69 -3.43  5.63
Si  5.62 -1.17  5.71
Si  0.36 -5.79  5.66
Si -1.25  3.45  7.25
Si -3.56 -6.89  2.45
Si  3.55  6.92 -2.40
Si -0.50 -8.08 -0.80
Si  1.25 -3.49 -7.25
Si  0.53  8.09  0.77
Si -7.35 -3.47  0.74
Si  7.80 -0.02 -2.44
Si -7.80 -0.02  2.44
Si -1.24  8.05 -0.80
Si  1.81  6.91 -4.02
Si  1.41  5.81  5.62
Si  1.22 -8.08  0.80
Si  7.40  3.47 -0.84
Si  1.70 -6.95  4.09
Si -1.38 -5.80 -5.69
Si -1.70  6.97 -4.05
Si -1.80 -6.94  4.08
Si -3.87  1.16 -7.22
Si -2.23 -3.42 -7.24
Si -6.93  2.31 -3.98
Si  6.88 -2.33  4.06
Si  6.95  2.30 -3.97
Si  3.85 -1.12  7.30
Si -8.22 -1.15 -0.80
Si  2.08 -5.78 -5.66
Si  8.25  1.15  0.77
Si  2.22  3.45  7.29
Si -6.97 -2.31  4.03
Si -2.10  5.77  5.71
Si  2.28  8.08 -0.85
Si -2.27 -8.12  0.82
Si  5.98 -4.62  4.05
Si  2.93 -3.50  7.27
Si -6.02  4.62 -4.03
Si -2.94  3.52 -7.29
Si -3.10 -5.73  5.65
Si  6.06  4.62  4.03
Si -6.09 -4.63 -3.97
Si  6.44  1.15  5.64
Si  2.93 -8.09 -0.82
Si -2.97  8.08  0.78
Si  3.09  5.81 -5.65
Si  3.36 -6.90 -4.05
Si  5.69  3.46 -5.60
Si -5.68 -3.43  5.63
Si -3.35  6.92  4.09
Si -6.50 -1.19 -5.69
Si  4.77  1.13  7.25
Si -7.76  0.01 -4.08
Si  6.54  5.79  0.80
Si  3.52  6.93  4.08
Si -3.51 -6.96 -4.02
Si -4.76 -1.18 -7.29
Si -6.55 -5.82 -0.80
Si  7.81 -0.01  4.07
Si -8.17  3.48  0.79
Si  8.18 -3.46 -0.79
Si  3.78 -5.79  5.64
Si  3.91  3.45 -7.25
Si  0.88  0.01 -8.90
Si -3.91 -3.49  7.25
Si -0.86  0.01  8.90
Si -3.84  5.75 -5.69
Si -5.14  6.92  2.44
Si  5.14 -6.96 -2.44
Si  5.24  6.92  2.44
Si -5.24 -6.96 -2.44
Si  3.99  8.08  0.84
Si -3.98 -8.10 -0.81
Si  0.00 -2.32 -8.85
Si -9.04  1.15  0.84
Si  9.05 -1.16 -0.81
Si  0.01  2.31  8.88
Si  8.57 -2.33  2.42
Si -6.43  3.48  5.61
Si -5.61  1.13  7.25
Si -8.62 -2.31  2.43
Si  6.48 -3.48 -5.62
Si  2.63  0.03  8.88
Si  5.61 -1.18 -7.29
Si -2.60 -0.04 -8.91
Si -8.66  2.32 -2.41
Si  0.43 -5.78 -7.26
Si -1.71 -2.33  8.84
Si -0.33  5.81  7.26
Si  7.31 -1.16 -5.64
Si -7.73  4.61 -2.42
Si  1.72  2.29 -8.87
Si  1.69 -2.29  8.89
Si -1.66  2.30 -8.91
Si  8.72  2.34 -2.43
Si -7.35  1.15  5.66
Si -7.33  5.75  0.82
Si -4.78  3.44  7.27
Si  4.78 -3.42 -7.29
Si  1.39  5.77 -7.24
Si  7.78 -4.63  2.45
Si  7.34 -5.79 -0.85
Si -1.34 -5.80  7.27
Si -7.86 -4.58 -2.39
Si -4.70  8.11 -0.80
Si -4.83 -5.80 -5.62
Si  4.73 -8.11  0.78
Si  4.78  5.77  5.70
Si  7.84  4.63  2.46
Si -2.10  5.76 -7.29
Si  2.11 -5.81  7.25
Si -5.10  6.95 -4.08
Si  5.15 -6.95  4.07
Si -0.78  9.23  2.40
Si -5.23 -6.95  4.07
Si -0.90 -9.24  2.43
Si  0.78 -9.28 -2.44
Si  5.27  6.95 -4.08
Si  1.00  9.28 -2.43
Si -9.08 -3.44 -0.81
Si  9.11  3.43  0.78
Si  8.60 -2.26 -4.04
Si  3.04  5.78  7.28
Si -9.48 -0.02 -2.40
Si  9.48  0.05  2.45
Si  6.51  1.16 -7.22
Si  5.59  3.44  7.27
Si -3.46  2.31  8.87
Si  5.55 -5.80 -5.62
Si -8.62  2.34  4.04
Si -5.60 -3.42 -7.29
Si -3.13 -5.80 -7.26
Si  8.64  2.31  4.05
Si  3.42 -2.32 -8.91
Si  3.48  2.32  8.89
Si -3.46 -2.31 -8.91
Si -4.31 -0.00  8.85
Si -8.68 -2.32 -4.03
Si  0.49  8.07 -5.62
Si -6.53 -1.12  7.30
Si -5.60  5.77  5.70
Si -7.34 -3.48 -5.60
Si -7.76  4.60  4.00
Si  2.52 -9.24  2.46
Si  7.77  4.62 -4.05
Si  7.35  3.51  5.63
Si -5.65 -8.11  0.78
Si -2.54  9.29 -2.39
Si -0.54 -8.10  5.70
Si  7.80 -4.59 -4.07
Si  5.68  8.11 -0.80
Si  2.72  9.24  2.45
Si -1.27  8.09  5.64
Si -2.67 -9.27 -2.42
Si -7.83 -4.66  4.00
Si  4.36 -0.01 -8.95
Si  6.82 -6.89  2.45
Si  1.22 -8.13 -5.69
Si -6.83  6.92 -2.40
Si  8.21  1.14 -5.62
Si  0.95  4.61  8.84
Si  3.85 -5.78 -7.22
Si  0.83 -4.61  8.89
Si -0.94 -4.65 -8.87
Si -6.93 -6.88  2.40
Si -0.80  4.62 -8.91
Si  6.92  6.91 -2.42
Si -0.77  9.24 -3.97
Si -2.23 -8.06 -5.65
Si -9.99 -1.18  0.82
Si  9.99  1.14 -0.85
Si -8.26 -1.16  5.70
Si -3.87  5.82  7.30
Si  8.25  5.78 -0.82
Si  0.74 -9.25  4.03
Si  0.92  9.25  4.05
Si -0.96 -9.26 -4.03
Si -8.29 -5.79  0.78
Si  2.22  8.15  5.65
Si -6.47  3.45 -7.25
Si -2.98  8.09 -5.66
Si  6.47 -3.49  7.25
Si -2.57  4.58  8.89
Si  2.66  4.62 -8.85
Si  2.55 -4.61 -8.89
Si -6.38  8.08  0.84
Si  9.53 -0.03 -4.02
Si  2.96 -8.10  5.71
Si  6.39 -8.10 -0.81
Si -2.51  9.21  4.00
Si -7.29  1.16 -7.26
Si -9.52 -0.01  4.08
Si -2.65 -4.63  8.88
Si  2.45 -9.26 -4.05
Si  6.54  5.75 -5.69
Si  4.21 -9.21 -2.43
Si  7.39 -1.13  7.26
Si -6.59 -5.79  5.64
Si -4.83 -5.74  7.25
Si -0.32 10.40 -0.84
Si  0.37 -10.41  0.74
Si -2.71 -9.27  4.00
Si  4.80  5.81 -7.27
Si  1.39 10.36  0.78
Si -4.25  9.28  2.42
Si -1.36 -10.37 -0.81
Si  2.74  9.28 -4.07
Si -0.86  0.01 -10.48
Si  4.37  9.25 -2.41
Si -8.19  3.46 -5.61
Si  0.88  0.01 10.48
Si -9.91  3.48 -0.79
Si  9.92 -3.45  0.79
Si  5.15 -2.35  8.89
Si -5.17  2.32 -8.89
Si  5.21  2.32 -8.89
Si  8.20 -3.50  5.67
Si -4.46 -9.27  2.42
Si -6.86  6.93  4.08
Si -3.91 -8.06  5.62
Si -5.22 -2.35  8.89
Si  6.87 -6.96 -4.02
Si -2.03 10.40  0.74
Si  3.94  8.07 -5.69
Si -7.01 -6.90 -4.05
Si  2.08 -10.41 -0.84
Si  7.02  6.92  4.09
Si  6.07 -0.00  8.85
Si  0.01  2.31 -10.50
Si -9.04  5.77 -0.81
Si  9.13 -1.12  5.62
Si  9.43 -4.62 -2.41
Si  9.05 -5.79  0.84
Si  0.00 -2.32 10.53
Si  5.54 -5.74  7.25
Si -6.02 -0.01 -8.95
Si -9.09  1.14 -5.69
Si -2.60 -0.04 10.47
Si  2.63  0.03 -10.50
Si  7.28 -5.73  5.65
Si -1.66  2.30 10.47
Si -9.52  4.61  2.42
Si -10.76  1.14 -0.85
Si -10.32  2.30  2.45
Si -5.58  5.81 -7.27
Si 10.76 -1.18  0.82
Si -0.52 -8.06 -7.27
Si  1.69 -2.29 -10.49
Si -3.11 -10.39  0.79
Si  4.26 -4.62  8.87
Si -9.57 -4.59  2.42
Si  9.53  4.66 -2.43
Si  1.72  2.29 10.51
Si 10.36 -2.33 -2.42
Si -7.29  5.81 -5.65
Si  3.12 10.42 -0.79
Si  4.65 -8.09 -5.64
Si  0.48  8.13  7.25
Si -4.30  4.61 -8.91
Si -1.21  8.10 -7.22
Si -10.39 -2.33 -2.42
Si -1.71 -2.33 -10.54
Si -4.69  8.08  5.66
Si  4.35  4.64  8.89
Si -4.27  9.24 -3.98
Si -4.32 -4.64 -8.91
Si  1.19 -8.05  7.30
Si 10.43  2.30  2.45
Si  4.22 -9.27  4.06
Si -7.44 -3.50  7.27
Si -4.43 -9.19 -4.04
Si  7.43  3.52 -7.29
Si  7.41  8.08  0.78
Si  8.20  1.20  7.25
Si -7.44 -8.09 -0.82
Si  4.42  9.28  4.04
Si -8.24 -1.12 -7.27
Si  2.19  8.07 -7.26
Si -2.27 -8.09  7.28
Si -3.76 10.43 -0.81
Si  3.79 -10.45  0.78
Si -9.09 -3.45  5.61
Si -2.95  8.06  7.25
Si -0.03 -6.91  8.88
Si  3.42 -2.32 10.47
Si  5.92 -9.27  2.42
Si -3.46 -2.31 10.46
Si  0.06  6.89 -8.91
Si  9.14  3.46 -5.62
Si  9.48 -4.59  4.04
Si -6.00  9.25 -2.41
Si  3.48  2.32 -10.49
Si  2.95 -8.11 -7.29
Si -3.46  2.31 -10.51
Si  4.36 -0.01 10.43
Si -10.30  2.34 -4.07
Si -6.53 -5.78 -7.22
Si 10.33 -2.33  4.00
Si  8.61 -6.96 -2.40
Si -9.49  4.68 -4.04
Si  9.54  4.61  4.06
Si -6.16 -9.21 -2.43
Si -8.61  6.99  2.45
Si -1.65  6.93  8.85
Si -9.58 -4.63 -3.98
Si -4.31 -0.00 -10.53
Si  6.51  5.82  7.30
Si  6.13  9.28  2.42
Si  5.68  8.08  5.66
Si -10.83 -3.45  0.79
Si -5.72 -8.09 -5.64
Si -10.42 -2.33  4.00
Si -1.78 -6.92 -8.90
Si 10.84  3.48 -0.79
Si  8.15 -3.42 -7.24
Si  1.79  6.95  8.90
Si  1.70 -6.94 -8.95
Si -8.77 -6.96 -2.42
Si  8.76  6.99  2.40
Si 10.46  2.34 -4.07
Si -0.80  4.62 10.46
Si -8.10  8.08 -0.85
Si -8.16  3.45  7.29
Si -6.89  2.32  8.89
Si  6.92  2.31  8.87
Si  0.83 -4.61 -10.49
Si -9.95 -1.13 -5.65
Si  9.93  1.21  5.65
Si -4.85 -10.39 -0.79
Si  8.10 -8.12  0.82
Si 11.27 -0.02 -2.40
