500
set: 1518.00  0.00  0.00
Si -1.00 -1.01  0.96
Si  1.36 -1.28  0.18
Si  0.55 -2.30 -1.39
Si -1.72  1.01  1.99
Si -3.12 -0.14 -0.44
Si  3.27 -0.14 -0.44
Si  0.74  0.60  3.22
Si -2.35 -2.01 -1.56
Si  1.59 -1.59 -2.79
Si  2.75  2.44 -0.68
Si  0.44  0.67 -3.84
Si -2.33 -3.02  0.94
Si  0.01  4.01 -1.39
Si -0.02 -1.25  4.10
Si -2.77  0.31  3.39
Si -3.65  2.44 -0.68
Si -2.88  3.28  0.94
Si  4.05 -2.01 -1.56
Si  3.52  3.28  0.94
Si  3.63  0.31  3.39
Si -0.04  2.47  4.34
Si  1.78  2.68 -3.82
Si -3.10 -3.87 -0.68
Si  0.82  5.03  0.18
Si  3.29 -3.87 -0.68
Si  4.07 -3.02  0.94
Si  4.68  1.01  1.99
Si -5.04 -1.28  0.18
Si -2.89  4.30 -1.56
Si -0.33 -0.17 -5.46
Si -1.95  1.33  4.96
Si  1.05  4.71 -2.79
Si  5.40 -1.01  0.96
Si -1.54  5.29  0.96
Si -2.26  2.42 -4.60
Si  2.32 -3.62 -3.82
Si  3.51  4.30 -1.56
Si -1.18 -5.29  1.99
Si -4.81 -1.59 -2.79
Si  0.75 -0.41  5.72
Si  0.50 -3.84  4.34
Si  0.19 -2.75 -5.22
Si -1.72 -3.89 -4.60
Si  2.09  1.60  5.74
Si -0.35  3.55 -5.22
Si -5.85 -2.30 -1.39
Si -0.56  5.05  4.10
Si -5.66  0.60  3.22
Si -4.62  2.68 -3.82
Si  0.43  1.69 -6.34
Si  4.14  2.42 -4.60
Si -4.08 -3.62 -3.82
Si  1.28 -5.70  3.22
Si  2.73  6.16 -0.44
Si  4.45  1.33  4.96
Si  0.98 -5.63 -3.84
Si -2.58 -6.45 -0.44
Si -3.08  1.40 -6.17
Si -5.96  0.67 -3.84
Si  3.32  1.40 -6.17
Si -1.41 -4.97  4.96
Si -3.67  6.16 -0.44
Si -2.22 -5.99  3.39
Si  4.86  5.29  0.96
Si -4.31  1.60  5.74
Si -0.46 -7.32  0.96
Si  6.95 -2.30 -1.39
Si  3.82 -6.45 -0.44
Si -5.58  5.03  0.18
Si  1.90 -2.68  6.77
Si -7.39 -1.01  0.96
Si  0.20  6.91  3.22
Si  4.68 -3.89 -4.60
Si -5.35  4.71 -2.79
Si -6.39  4.01 -1.39
Si  6.41  4.01 -1.39
Si  6.38 -1.25  4.10
Si  5.22 -5.29  1.99
Si -6.42 -1.25  4.10
Si  1.36  3.62  6.77
Si  1.91 -7.58  0.18
Si  7.14  0.60  3.22
Si  7.76 -1.28  0.18
Si  6.84  0.67 -3.84
Si  2.63 -4.71  5.74
Si  0.97 -4.62 -6.34
Si -2.27  7.32  1.99
Si -0.10  6.98 -3.84
Si -5.65 -0.41  5.72
Si  4.18 -5.99  3.39
Si  3.09  6.62  3.39
Si  6.36  2.47  4.34
Si -2.04  2.10 -7.57
Si -3.31  6.62  3.39
Si -6.44  2.47  4.34
Si  6.07 -0.17 -5.46
Si  0.21  5.89  5.72
Si -0.87  6.13 -5.46
Si -5.90 -3.84  4.34
Si -2.54 -4.91 -6.17
Si -5.12 -5.70  3.22
Si -3.77 -4.71  5.74
Si -8.12  1.01  1.99
Si  0.21 -6.48 -5.46
Si -4.50 -2.68  6.77
Si -6.21 -2.75 -5.22
Si  7.99 -1.59 -2.79
Si  4.99 -4.97  4.96
Si  0.52 -7.56  4.10
Si  4.13  7.32  1.99
Si  2.13 -7.90 -2.79
Si -1.80 -8.31 -1.56
Si -6.73 -0.17 -5.46
Si  0.32  2.92  8.17
Si -1.31  0.07 -8.60
Si -5.42 -5.63 -3.84
Si  5.84  5.05  4.10
Si  6.05  3.55 -5.22
Si  3.86 -4.91 -6.17
Si  1.09 -8.60 -1.39
Si -1.49 -4.21 -7.57
Si  7.22  5.03  0.18
Si -2.03 -3.09  8.00
Si -4.49 -7.58  0.18
Si  6.59 -2.75 -5.22
Si -5.97  1.69 -6.34
Si  0.86 -3.38  8.17
Si  1.29 -6.72  5.72
Si  4.36  2.10 -7.57
Si -2.58  3.21  8.00
Si  6.90 -3.84  4.34
Si  2.21  8.74 -0.68
Si -8.74 -2.01 -1.56
Si  7.15 -0.41  5.72
Si -5.04  3.62  6.77
Si -2.64 -1.94 -8.62
Si -6.75  3.55 -5.22
Si  7.45  4.71 -2.79
Si -8.73 -3.02  0.94
Si -4.27 -7.90 -2.79
Si  8.18  2.68 -3.82
Si  3.82  3.21  8.00
Si -2.49  7.64  4.96
Si  1.05 -0.19 -9.38
Si -7.58 -5.29  1.99
Si  6.83  1.69 -6.34
Si  5.94 -7.32  0.96
Si  3.06  1.35  8.88
Si  9.15  2.44 -0.68
Si -6.96  5.05  4.10
Si -9.52 -0.14 -0.44
Si -5.43 -4.62 -6.34
Si -1.79 -9.33  0.94
Si -3.33  1.35  8.88
Si -7.94  5.29  0.96
Si  3.75 -1.94 -8.62
Si  4.37 -3.09  8.00
Si  4.59 -8.31 -1.56
Si -2.81 -1.23  9.12
Si  9.67 -0.14 -0.44
Si -4.19  8.74 -0.68
Si -9.16  0.31  3.39
Si -8.35  1.33  4.96
Si -0.58  8.77  4.34
Si -6.20  6.91  3.22
Si  1.24  8.99 -3.82
Si  3.59 -1.23  9.12
Si -9.27  3.28  0.94
Si  1.55  7.90  5.74
Si  5.53  6.13 -5.46
Si  3.91  7.64  4.96
Si  4.91 -4.21 -7.57
Si  5.09  0.07 -8.60
Si  7.38 -5.63 -3.84
Si -6.85 -7.32  0.96
Si  6.60  6.91  3.22
Si  2.98  9.59  0.94
Si  7.68 -5.70  3.22
Si -8.66  2.42 -4.60
Si -8.12 -3.89 -4.60
Si  6.30  6.98 -3.84
Si  1.68 -2.36  9.74
Si -3.19  4.37 -8.62
Si  8.72 -3.62 -3.82
Si  3.21  4.37 -8.62
Si -5.11 -6.72  5.72
Si -5.31 -8.60 -1.39
Si -0.12  7.99 -6.34
Si -3.42  9.59  0.94
Si -2.80  8.72 -4.60
Si  2.78  7.70 -6.17
Si -6.50  6.98 -3.84
Si -9.50 -3.87 -0.68
Si -6.19  5.89  5.72
Si -9.29  4.30 -1.56
Si -10.04  2.44 -0.68
Si  8.49  1.60  5.74
Si -5.88 -7.56  4.10
Si -0.53 10.31 -1.39
Si -5.54 -3.38  8.17
Si  4.61 -9.33  0.94
Si  9.69 -3.87 -0.68
Si  2.96  0.94 -10.00
Si  0.73 -9.06 -5.22
Si -6.19 -6.48 -5.46
Si  9.92  3.28  0.94
Si  3.59  8.72 -4.60
Si -7.81 -4.97  4.96
Si -2.56 -10.17 -0.68
Si -3.62  7.70 -6.17
Si  6.61  5.89  5.72
Si -2.79 -4.95  8.88
Si  1.13  3.94  9.74
Si 10.03  0.31  3.39
Si -6.08  2.92  8.17
Si -3.44  0.94 -10.00
Si -0.77 -6.23 -8.60
Si  6.61 -6.48 -5.46
Si -0.69 -2.10 10.52
Si 10.45 -2.01 -1.56
Si  7.37 -4.62 -6.34
Si  3.61 -4.95  8.88
Si -5.35 -0.19 -9.38
Si -1.85  6.38 -8.60
Si  3.04  5.08  9.12
Si  3.84 -10.17 -0.68
Si -4.85  7.90  5.74
Si  9.91  4.30 -1.56
Si  7.76  3.62  6.77
Si 10.46 -3.02  0.94
Si -3.35  5.08  9.12
Si -7.27  6.13 -5.46
Si  6.72  2.92  8.17
Si  2.86 -9.93 -3.82
Si  0.24 -1.21 -10.95
Si  2.98 -2.78 -10.24
Si  9.13  6.16 -0.44
Si -2.56  2.20 10.50
Si -8.62 -5.99  3.39
Si  6.92 -7.56  4.10
Si  8.30 -2.68  6.77
Si -5.16  8.99 -3.82
Si -8.98 -6.45 -0.44
Si -4.72 -2.36  9.74
Si  1.04 -10.14  4.34
Si  2.44  3.52 -10.24
Si  2.97 10.60 -1.56
Si -3.42 -2.78 -10.24
Si -0.89  9.85 -5.22
Si -3.54 -9.93 -3.82
Si  0.51  6.11 -9.38
Si -1.18 -10.19 -4.60
Si  8.30 -7.58  0.18
Si -3.43 10.60 -1.56
Si 11.07  1.01  1.99
Si  0.28 11.33  0.18
Si  0.51 11.01 -2.79
Si  5.82  8.77  4.34
Si -9.47  1.40 -6.17
Si  3.84  2.20 10.50
Si -1.23  4.21 10.52
Si  7.26 -3.38  8.17
Si -2.02 -4.11 10.50
Si -2.66 -0.92 -11.13
Si  7.49 -8.60 -1.39
Si -11.43 -1.28  0.18
Si  2.44 -8.98  6.77
Si -8.66  7.32  1.99
Si  1.59 -6.50 -9.38
Si -8.43  2.10 -7.57
Si -3.96  3.52 -10.24
Si -7.71  0.07 -8.60
Si  9.72  1.40 -6.17
Si -2.58  8.40 -7.57
Si  4.55  6.38 -8.60
Si -1.41 -0.07 11.55
Si -11.21 -1.59 -2.79
Si  9.03 -4.71  5.74
Si  7.69 -6.72  5.72
Si -2.89 -5.37 -10.00
Si -7.89 -4.21 -7.57
Si -10.48 -3.62 -3.82
Si 10.54  2.42 -4.60
Si -5.27  3.94  9.74
Si  3.74 -0.92 -11.13
Si -0.64 -11.59  1.99
Si -8.20 -8.31 -1.56
Si -10.06  6.16 -0.44
Si -2.08 11.60  0.96
Si  3.50 -5.37 -10.00
Si 11.80 -1.01  0.96
Si -5.67 -9.06 -5.22
Si -8.93 -4.91 -6.17
Si -3.95 -8.98  6.77
Si  3.82  8.40 -7.57
Si  5.87 10.31 -1.39
Si  8.53 -7.90 -2.79
Si -11.02  2.68 -3.82
Si  7.45 -0.19 -9.38
Si  6.28  7.99 -6.34
Si  2.52  7.66  8.88
Si 10.85  1.33  4.96
Si -6.98  8.77  4.34
Si  5.63 -6.23 -8.60
Si -8.43 -3.09  8.00
Si  0.82  9.93  6.77
Si -2.27 -7.53  9.12
Si  9.49  6.62  3.39
Si -0.30  5.09 -10.95
Si 10.21 -6.45 -0.44
Si  4.38 -4.11 10.50
Si -6.51  7.99 -6.34
Si -2.10 -8.24 -8.62
Si -1.10 11.35  4.10
Si  5.71 -2.10 10.52
Si -9.71  6.62  3.39
Si -10.71  1.60  5.74
Si -5.36 -10.14  4.34
Si  8.61  8.74 -0.68
Si -0.22  9.23  8.17
Si  5.22 -10.19 -4.60
Si -0.87 -11.28  4.96
Si -3.88  7.66  8.88
Si -4.80 -6.50 -9.38
Si  7.63  8.99 -3.82
Si  4.32 11.60  0.96
Si -1.49 -9.39  8.00
Si  1.28 -0.51 -12.35
Si  5.51  9.85 -5.22
Si -8.97  3.21  8.00
Si -8.19 -9.33  0.94
Si  5.17  4.21 10.52
Si 11.26  5.29  0.96
Si -12.06  0.60  3.22
Si -6.93 10.31 -1.39
Si  4.13 -7.53  9.12
Si -12.25 -2.30 -1.39
Si  1.82 -12.01  3.22
Si  4.99 -0.07 11.55
Si  2.42  7.24 -10.00
Si -10.17 -4.71  5.74
Si  7.95  7.90  5.74
Si 11.08 -3.89 -4.60
Si 10.57 -5.99  3.39
Si -6.16 -1.21 -10.95
Si  1.52 -11.94 -3.84
Si -9.04 -1.94 -8.62
Si -5.89  6.11 -9.38
Si  7.13 -9.06 -5.22
Si  2.19 12.46 -0.44
Si  4.30 -8.24 -8.62
Si  1.51 -10.92 -6.34
Si -8.89  7.64  4.96
Si  1.40 -9.69  8.17
Si -3.20  5.38 -11.13
Si  3.20  5.38 -11.13
Si -5.89 11.01 -2.79
Si -7.17 -6.23 -8.60
Si  3.17 -11.01  5.74
Si -3.12  9.52  8.00
Si -3.23 -11.01  5.74
Si  1.05 -0.48 12.78
Si -7.08 -2.10 10.52
Si  3.28  9.52  8.00
Si  6.64 -1.21 -10.95
Si -1.68 -12.29  3.39
Si  8.07 -2.36  9.74
Si -6.12 11.33  0.18
Si 11.62 -5.29  1.99
Si -2.04 -12.75 -0.44
Si  7.53  3.94  9.74
Si 10.26 -4.91 -6.17
Si -1.99 -11.21 -6.17
Si -12.36  0.67 -3.84
Si -11.75  4.71 -2.79
Si -3.98  7.24 -10.00
Si 10.53  7.32  1.99
Si -0.95 -10.51 -7.57
Si -11.98  5.03  0.18
Si -9.21 -1.23  9.12
Si  9.46  1.35  8.88
Si  5.76 -11.59  1.99
Si -10.89 -2.68  6.77
Si  6.68 11.33  0.18
Si  6.91  6.11 -9.38
Si -4.21 12.46 -0.44
Si  5.29 11.35  4.10
Si -2.45 -0.77 12.95
Si -0.87 -6.37 11.55
Si  2.22 -8.67  9.74
Si -4.58 -12.01  3.22
Si -11.52 -5.70  3.22
Si -9.73  1.35  8.88
Si -5.58  9.93  6.77
Si -1.95  6.24 11.55
Si -10.89 -7.58  0.18
Si  4.91 -9.39  8.00
Si  6.91 11.01 -2.79
Si  0.78 -7.52 -10.95
Si  7.44 -10.14  4.34
Si -7.29  9.85 -5.22
Si 10.76  2.10 -7.57
Si -12.05 -0.41  5.72
Si 10.22  3.21  8.00
Si 11.39 -4.97  4.96
Si -5.12 -0.51 -12.35
Si -2.12 -7.23 -11.13
Si  9.38  9.59  0.94
Si -4.88 -11.94 -3.84
Si 10.15 -1.94 -8.62
Si -0.14 -8.40 10.52
Si -12.79  4.01 -1.39
Si -0.33 12.20  5.72
Si  9.18  7.70 -6.17
Si 12.78 -1.25  4.10
Si  4.36 -12.75 -0.44
Si -9.20  8.72 -4.60
Si 12.80  4.01 -1.39
Si  5.53 -11.28  4.96
Si -7.58 -10.19 -4.60
Si  0.13  1.76 -13.40
Si -12.82 -1.25  4.10
Si -8.25  6.38 -8.60
Si  6.09  5.09 -10.95
Si  4.41 -11.21 -6.17
Si -4.89 -10.92 -6.34
Si -10.66 -7.90 -2.79
Si  3.94 -0.77 12.95
Si -8.96 -10.17 -0.68
Si  9.98 -1.23  9.12
Si -12.30 -3.84  4.34
Si  4.72 -12.29  3.39
Si  2.55 12.92  3.39
Si -0.34 13.21  3.22
Si 12.47 -0.17 -5.46
Si -9.59  4.37 -8.62
Si 13.35 -2.30 -1.39
Si -5.00 -9.69  8.17
Si  9.61  4.37 -8.62
Si -11.82 -5.63 -3.84
Si  0.09 -13.62  0.96
Si -1.42 12.44 -5.46
Si -7.63  4.21 10.52
Si  0.74  5.79 -12.35
Si -4.18 -8.67  9.74
Si 12.76  2.47  4.34
Si -9.19 -4.95  8.88
Si -7.04 -11.59  1.99
Si  9.36  0.94 -10.00
Si -10.59  8.74 -0.68
Si 10.30  7.64  4.96
Si -9.81  9.59  0.94
Si 10.76 -3.09  8.00
Si  2.01 -2.54 -13.38
Si -12.84  2.47  4.34
Si -11.44  3.62  6.77
Si  6.18  9.23  8.17
Si 13.24  0.67 -3.84
Si -6.70  5.09 -10.95
Si -0.64 13.28 -3.84
Si 12.23  5.05  4.10
Si  4.45  6.24 11.55
Si -5.35 -0.48 12.78
Si -13.79 -1.01  0.96
Si -3.10  8.50 10.50
Si  0.29 -2.34 13.66
Si 10.99 -8.31 -1.56
Si -3.85 12.92  3.39
Si  3.29  8.50 10.50
Si  0.75 -12.78 -5.46
Si -12.61 -2.75 -5.22
Si 13.54  0.60  3.22
Si  7.99 -6.50 -9.38
Si  4.28 -7.23 -11.13
Si -7.81 -0.07 11.55
Si 12.45  3.55 -5.22
Si  2.67 10.67 -8.62
Si  0.27  1.38 13.91
Si  8.84  3.52 -10.24
Si  1.47  3.77 -13.38
Si -8.96  2.20 10.50
Si -2.87 -9.09 -10.24
Si -6.62  9.23  8.17
Si -12.37  1.69 -6.34
Si  7.22  9.93  6.77
Si  9.99  8.72 -4.60
Si -2.81 13.62  1.99
Si  0.51  5.82 12.78
Si  5.45 -10.51 -7.57
Si -9.83  0.94 -10.00
Si -10.02  7.70 -6.17
Si -8.42 -4.11 10.50
Si  9.44  5.08  9.12
Si  9.26 -9.93 -3.82
Si  2.45 -13.89  0.18
Si  3.52 -9.09 -10.24
Si  0.59 10.25  9.74
Si  9.38 -2.78 -10.24
Si  0.67 -4.55 -13.40
Si -11.83 -4.62 -6.34
