500
set: 1265.00  0.00  0.00
Si -0.27 -1.15 -1.21
Si -1.20  1.08 -1.27
Si  0.83 -2.13  0.58
Si  2.42 -0.72  1.47
Si -2.29  1.83  0.72
Si -1.09  0.97  2.68
Si  0.57  2.60 -1.76
Si  1.35  0.89  2.79
Si  2.23  1.00 -2.31
Si  1.08 -0.89 -3.09
Si  3.51  0.13 -0.50
Si -1.56 -2.98 -1.95
Si -0.81 -3.50  1.65
Si -2.33  0.46 -3.28
Si  2.21  2.93  1.91
Si  1.15  3.98  0.07
Si -2.52 -0.67  3.65
Si -4.40  0.95  0.05
Si  2.11 -4.00 -0.10
Si -3.29 -1.64 -2.75
Si -0.47  0.10 -4.66
Si -2.95 -2.73  2.42
Si -4.59 -1.20 -0.89
Si -1.21 -4.76 -0.34
Si -2.67  4.25  0.57
Si  3.51 -2.37  2.82
Si  2.43 -2.85 -3.50
Si  4.84 -1.71 -1.04
Si -1.32  2.63  4.33
Si -0.64  5.24  1.12
Si  0.07  4.01 -3.64
Si  5.20  1.72 -0.12
Si  2.38  0.41  4.95
Si  3.78 -3.62 -1.71
Si -4.63 -2.89  0.81
Si  0.87 -5.40 -1.45
Si -4.70  2.58 -1.84
Si  3.44  1.77 -4.16
Si  4.56  2.97  1.74
Si  2.80 -4.57  2.11
Si -0.65  4.64  3.38
Si -1.06 -4.08 -3.96
Si -0.14  2.33 -5.33
Si -0.35 -4.71  3.62
Si  1.68  4.62  3.39
Si -3.95  2.02 -4.03
Si -3.46  4.64 -1.62
Si -4.71  0.38  3.90
Si -5.89  0.20  1.84
Si -1.79 -1.68  5.73
Si  2.39  5.77 -0.88
Si  3.38 -1.74  5.07
Si  1.16 -4.83 -3.94
Si -1.70  5.49 -3.08
Si -0.19 -3.42  5.58
Si  4.87 -0.08 -4.49
Si  6.42 -1.64  0.62
Si  3.61 -1.89 -5.27
Si  0.31  2.97  6.04
Si -0.33 -1.12 -6.67
Si  2.07  2.44 -6.06
Si  5.82 -2.49  2.64
Si  6.14 -1.14 -2.82
Si -4.54 -2.45 -4.55
Si  1.04  0.93  6.80
Si -2.97 -6.31 -0.10
Si -6.57 -1.04 -2.13
Si  4.67  3.68 -3.70
Si  3.95  2.13  5.40
Si  6.01  3.13 -1.84
Si -1.23 -3.22 -6.17
Si -3.84 -4.43  3.97
Si  1.62 -5.90  3.65
Si -4.27  5.36  1.97
Si  2.41  3.92  5.46
Si  5.60  2.32  3.79
Si -6.58 -2.12  1.80
Si -5.00 -5.13  0.10
Si  7.16  0.55  0.38
Si  3.46  5.57 -3.00
Si -3.16  2.80  5.86
Si  2.04 -1.18 -6.88
Si  2.12 -3.40  6.08
Si -2.79 -5.65 -3.85
Si  1.65  5.70 -4.50
Si -0.96 -0.16  7.42
Si -2.21 -6.11  3.77
Si  5.36  5.16  1.25
Si -3.88 -2.87  5.87
Si -5.29  2.51  4.88
Si -3.51  3.77 -5.62
Si  2.35 -7.20 -1.03
Si  2.66  6.65  2.75
Si -1.84  2.77 -6.95
Si  0.91  7.61 -0.82
Si -6.25 -0.89 -4.42
Si -0.24  7.65  1.26
Si -4.88 -4.63 -3.87
Si  3.80  6.74  0.72
Si -5.38  0.94 -5.54
Si -3.50 -2.19 -6.64
Si -6.86  3.41 -1.66
Si  0.98 -4.35 -6.46
Si -5.57 -1.26  5.41
Si  5.17 -5.48 -2.44
Si  4.47 -6.17  2.36
Si -1.73  6.33  4.62
Si -5.74  4.40  3.53
Si -0.72  7.62 -2.52
Si  7.90  0.12 -1.81
Si -6.12 -4.95 -1.95
Si -2.79 -7.34 -2.21
Si -2.41 -7.58  1.83
Si  2.53  0.93 -7.77
Si -5.19  6.27 -1.59
Si -7.91  1.29  2.16
Si -2.71  5.93 -5.19
Si -2.59  1.48  7.79
Si  6.33 -4.79  2.59
Si  6.80  4.92 -0.53
Si -7.56 -3.14 -2.04
Si  2.25  4.77 -6.59
Si  7.09 -1.51  4.35
Si  5.58 -2.24  5.97
Si -3.33  7.23  3.08
Si  7.44  0.84  4.18
Si  4.27 -7.44  0.41
Si  3.15 -5.63  5.68
Si -4.40 -0.13 -7.38
Si  2.26 -6.95 -4.63
Si -7.18 -2.45  4.17
Si -2.77  5.09  6.44
Si -5.99  6.24  0.61
Si  7.95  2.20 -2.75
Si -8.19 -2.96  0.20
Si  0.93 -8.12  3.05
Si -8.54  0.12 -1.81
Si -0.81  4.36  7.55
Si -0.89 -5.12  7.04
Si  3.81 -7.34 -2.91
Si  8.24 -2.96  0.20
Si  7.29 -3.00 -3.82
Si -7.54  4.45  0.37
Si  6.75  0.43 -5.72
Si -7.72  3.59  2.55
Si  8.53  1.29  2.16
Si -1.12 -0.45 -8.83
Si  2.46 -3.23 -7.94
Si  4.62 -3.24 -6.91
Si -0.45 -8.82  1.26
Si  0.70 -8.86 -0.82
Si  1.14  8.35  3.05
Si -2.76  1.19 -8.46
Si  2.70  1.21  8.48
Si  6.30 -6.44 -0.59
Si -5.78 -5.93  3.77
Si  0.69  7.92 -4.43
Si  6.97  4.16  4.18
Si -6.60 -6.16  1.53
Si -8.48  2.20 -2.75
Si  3.29  5.94  6.19
Si  4.80  1.91  7.60
Si  2.63 -2.94  8.31
Si  4.31  6.90  4.33
Si  6.18  6.06  3.22
Si -1.57 -6.98  5.85
Si -0.93 -8.85 -2.52
Si -2.49 -4.80 -7.50
Si  6.14  4.12 -5.59
Si -2.78 -6.54 -6.00
Si -9.28  0.55  0.38
Si -2.20  8.89  1.83
Si  7.77 -5.15  0.85
Si  0.09  7.85  5.10
Si -7.07  5.46 -2.80
Si  5.39 -4.59  6.16
Si  6.53 -5.24 -4.36
Si  5.26  7.11 -3.31
Si  0.88  0.65 -9.45
Si  7.75  2.48 -5.08
Si -0.16 -0.84  9.58
Si  4.45 -7.29  4.44
Si  8.88 -3.14 -2.04
Si  0.48 -8.55 -4.43
Si -0.98  4.07 -8.70
Si  2.21 -0.89  9.37
Si  2.56  9.27 -1.03
Si -5.58  4.34 -6.63
Si  0.47  5.68 -7.88
Si -2.58  9.13 -2.21
Si -7.58  2.19  5.74
Si  8.72  3.59  2.55
Si -4.28 -3.46  8.12
Si -4.67  8.19 -2.73
Si -4.23  0.15  8.87
Si -6.17 -0.59  7.63
Si -6.92  2.36 -6.61
Si -1.40  6.79 -7.02
Si  8.18 -1.47 -5.40
Si  0.44 -6.27 -7.66
Si -4.61  7.31 -4.90
Si -1.67  3.05  9.31
Si -0.77 -7.70 -6.25
Si  4.63  1.62 -8.65
Si -8.99  0.84  4.18
Si  8.90  4.45  0.37
Si  5.34 -5.42 -6.43
Si -8.26 -1.47 -5.40
Si  7.03 -5.33  4.68
Si -4.88 -8.28 -2.73
Si -4.45 -3.74 -8.13
Si -7.26 -4.65  5.06
Si -0.12 -8.62  5.10
Si  7.29  6.58 -2.06
Si -6.25 -5.66 -5.45
Si  4.48  9.03  0.41
Si -6.46  5.90 -5.03
Si -2.32 -4.52  8.75
Si -8.67 -5.15  0.85
Si  9.87 -1.04 -2.13
Si -10.02 -1.64  0.62
Si  1.65  7.44  6.82
Si -6.95 -7.09 -2.45
Si  9.85 -2.12  1.80
Si  6.45  0.28 -8.01
Si  9.57  3.41 -1.66
Si  0.64  5.96  8.37
Si -6.67  6.48  4.47
Si -9.14 -3.00 -3.82
Si -3.34 -1.91  9.62
Si -3.54 -9.24  3.08
Si -8.69  2.48 -5.08
Si  3.59 -9.73  0.72
Si  4.02  9.13 -2.91
Si  3.60 -7.13 -6.69
Si -9.35 -1.51  4.35
Si  9.26 -2.45  4.17
Si  5.65  3.69 -7.98
Si  6.45 -1.78  8.07
Si  2.45 -9.82  2.75
Si  4.08  5.44 -7.98
Si  0.61 -5.99  8.59
Si  6.22  6.53 -5.42
Si  6.28 -2.06 -8.19
Si -2.76 10.16 -0.10
Si  2.43 -6.93  7.55
Si -4.93  5.60  7.47
Si -1.06 -2.94 10.09
Si  0.15  2.69 -10.22
Si -5.00  8.20  4.44
Si  6.62  0.56  8.25
Si  1.15 -4.07  9.79
Si 10.55  0.20  1.84
Si -6.57 -4.28 -7.31
Si -1.05 -5.41 -9.21
Si -5.21 -8.27  4.44
Si -10.29 -1.14 -2.82
Si -6.34 -0.87 -8.62
Si  8.86  2.19  5.74
Si -0.56  8.77 -6.25
Si  2.24  2.73 10.19
Si  7.62  4.14  6.46
Si -9.64  4.92 -0.53
Si  2.47  9.52 -4.63
Si  5.82  3.98  8.27
Si -1.95 -1.96 -10.52
Si  4.78 -2.96  9.34
Si  4.24  5.73  8.27
Si -2.31  7.85  7.25
Si -4.97 -7.37 -6.39
Si  2.18 -10.70 -0.88
Si -7.26  8.12  1.21
Si -7.58  1.26  7.83
Si  1.95 -3.68 -10.17
Si -10.43  3.13 -1.84
Si -7.84 -2.35 -7.52
Si 10.19 -0.89 -4.42
Si  5.05 -9.36 -3.31
Si -9.47  4.16  4.18
Si  2.42  5.05  9.66
Si  9.36  5.46 -2.80
Si -3.33  2.52 -10.40
Si -2.00 10.36  3.77
Si  4.66  9.18  4.44
Si -10.62 -2.49  2.64
Si  1.08 11.07 -1.45
Si -1.36  9.49  5.85
Si  0.03  2.62 10.92
Si -9.69  0.43 -5.72
Si -7.47 -8.35  1.21
Si -4.55  7.82  6.72
Si  4.11 -9.57  4.33
Si  6.73 -7.59  4.95
Si -0.36 -3.71 -10.68
Si -1.94 -10.14  4.62
Si -2.94  4.81 -9.81
Si -0.85 -11.23  1.12
Si  1.83 10.57  3.65
Si  7.94 -8.04 -0.94
Si -11.24  1.72 -0.12
Si -7.16  5.80  6.70
Si  1.44 -9.03  6.82
Si  8.01  7.50  3.28
Si -4.82 -9.16 -4.90
Si -9.15  6.58 -2.06
Si  9.18 -4.65  5.06
Si -5.10  5.32 -8.79
Si -10.11 -4.79  2.59
Si -7.74  0.98 -8.43
Si  2.21  0.13 -11.30
Si -8.07 -6.85 -4.54
Si  2.26 -7.22 -8.70
Si -2.52 -8.62  7.25
Si  4.68 10.30  2.36
Si  5.08  7.42 -7.27
Si -1.91 -10.98 -3.08
Si -4.05 -3.16 -10.38
Si  2.24  3.63 -10.79
Si 10.31 -4.95 -1.95
Si -0.31  0.39 11.60
Si  3.78  1.84 -10.86
Si -5.40 -10.20 -1.59
Si  8.60 -2.35 -7.52
Si -7.36 -5.31  7.33
Si -8.81  4.14  6.46
Si -1.23  7.08  9.23
Si -6.41 -4.00  8.94
Si  9.84 -6.16  1.53
Si -10.84  2.32  3.79
Si  8.37 -6.85 -4.54
Si  3.78 -1.61 10.99
Si -8.50 -8.04 -0.94
Si -8.43  7.50  3.28
Si -1.00 11.71 -0.34
Si  8.15  8.43 -0.94
Si  1.44 -10.77 -4.50
Si  3.25 -10.90 -3.00
Si -2.58 10.82 -3.85
Si  6.74 -5.61  7.85
Si -11.60 -1.71 -1.04
Si -9.41 -5.33  4.68
Si -6.74  9.38 -2.45
Si  3.21 -2.02 -11.18
Si -7.67 -2.06  8.74
Si  9.51  2.36 -6.61
Si -8.29  8.43 -0.94
Si -3.35  4.06 10.63
Si -2.57  9.93 -6.00
Si  8.86  1.26  7.83
Si  5.41 -2.52 -10.29
Si  1.48  7.15 -9.44
Si 11.84 -1.20 -0.89
Si -4.76 -8.65  6.72
Si  3.13  5.65 -10.06
Si  6.51 10.03 -0.59
Si -5.42  4.63  9.62
Si -5.22  1.23 10.71
Si -6.20 -10.23  0.61
Si -2.48  7.57 -9.00
Si -9.90 -5.24 -4.36
Si -10.14 -6.44 -0.59
Si -6.75  2.64  9.64
Si -1.61 -9.68 -7.02
Si 12.04  0.95  0.05
Si -4.76  9.10 -6.39
Si  9.49 -7.09 -2.45
Si 10.70  4.40  3.53
Si -2.92 -10.54 -5.19
Si  3.81  9.34 -6.69
Si -4.48 -11.11  1.97
Si  8.69  0.98 -8.43
Si 11.74  2.58 -1.84
Si 11.81 -2.89  0.81
Si  6.57 -5.89 -8.40
Si 10.45  6.24  0.61
Si 10.86 -1.26  5.41
Si -6.39 10.31  1.53
Si -1.49  2.34 -11.92
Si -11.07  5.16  1.25
Si -2.61 -6.26 10.25
Si -0.14 11.76  3.62
Si  6.94  8.88  4.95
Si  8.97 -8.35  1.21
Si -4.79 11.34  0.10
Si  9.18  8.12  1.21
Si -0.86 -11.83  3.38
Si  7.80 -8.97  3.28
Si  7.08 -9.89 -2.06
Si -10.26  6.06  3.22
Si  3.76 -6.84  9.56
Si -6.14 -7.26  7.90
Si 11.73  0.38  3.90
Si -11.87  2.97  1.74
Si  5.22 -4.88 -10.09
Si  1.37 11.64 -3.94
Si -5.74 -1.54 -10.85
Si  5.51 -5.14  9.82
Si -8.10  7.43 -5.70
Si 11.05  0.94 -5.54
Si -11.57 -0.08 -4.49
Si  1.47 -11.85  3.39
Si -10.30  4.12 -5.59
Si 11.14  2.51  4.88
Si  5.97 -10.41  3.22
Si  2.64  9.54  7.55
Si  3.01 11.90  2.11
Si -0.60 -7.41 10.01
Si  5.38 10.99 -2.44
Si  2.98 -5.92 -10.57
Si -3.67 -11.83 -1.62
Si  5.16 -11.31  1.25
Si -5.57 10.54  3.77
Si  0.94 -12.49  0.07
Si 11.44 -5.13  0.10
Si  8.34  7.43 -5.70
Si  8.76 -2.06  8.74
Si  9.77  6.48  4.47
Si -2.88 -12.22  0.57
Si -10.86 -2.24  5.97
Si  4.87 -9.05 -7.27
Si  3.08 -10.53  6.19
Si  6.91  0.72 10.54
Si  9.97  5.90 -5.03
Si  6.60 -7.90  7.34
Si -4.37 -2.16 11.70
Si  2.32 12.47 -0.10
Si  3.36 10.84  5.68
Si -11.27 -5.48 -2.44
Si 10.66 -5.93  3.77
Si  0.65 10.20 -7.66
Si  3.61  2.06 12.09
Si  5.04  0.21 11.77
Si -9.98  0.28 -8.01
Si 10.27 -0.59  7.63
Si -1.74 -7.27 -10.40
Si -5.46  2.23 -11.37
Si  6.01 -9.94 -5.42
Si  9.08 -5.31  7.33
Si  9.28  5.80  6.70
Si -9.82  0.56  8.25
Si 10.18 -5.66 -5.45
Si -11.77  3.68 -3.70
Si -8.64 -8.97  3.28
Si -0.89 -3.79 12.29
Si  7.46  3.85 -9.79
Si -6.31 -7.54 -8.35
Si -2.69 -0.96 -12.61
Si -6.88 -9.99  4.47
Si -12.93  0.13 -0.50
Si  2.47  9.26 -8.70
Si -7.52 -5.60 -8.92
Si  5.25  7.70  8.98
Si -2.69 -8.90 -9.00
Si -2.54  6.22 11.07
Si -9.99 -1.78  8.07
Si 11.24  6.27 -1.59
Si 11.90 -2.45 -4.55
Si -0.14 -12.46 -3.64
Si -3.79  2.31 12.22
Si  9.87 -4.28 -7.31
Si -4.71  7.54 -9.53
Si 11.55 -4.63 -3.87
Si -0.85 12.40 -3.96
Si -4.80 -7.08  9.86
Si -0.60 12.97  1.65
Si -5.91 11.52 -1.95
Si  6.31  4.41 10.66
Si -2.17  0.75 12.97
Si  6.80  8.57  7.34
Si  1.33 -4.54 12.31
Si -3.63 12.04  3.97
Si -7.74  1.90 -10.52
Si -10.16 -2.06 -8.19
Si -7.86  9.62 -4.54
Si  1.25 -0.60 13.16
Si -7.32  5.52 -9.55
Si -1.90  6.04 -11.63
Si -1.44 -9.39  9.23
Si  2.59 -2.57 12.75
Si 12.48  2.02 -4.03
Si -12.66 -3.62 -1.71
Si -9.71 -7.59  4.95
Si -10.22  6.53 -5.42
Si -4.88  0.09 -12.36
Si  6.59 -11.55 -0.53
Si -4.67 11.84 -3.87
Si 10.10 -0.87 -8.62
Si  1.82  5.98 11.75
Si -6.08 -0.60 11.83
Si  1.27 -9.32 -9.44
Si  0.24  4.30 12.61
Si  0.26 -10.79 -7.88
Si -0.68 11.35  7.04
Si -2.98 -11.38  6.44
Si  8.13 -9.04 -5.70
Si 12.17  5.36  1.97
Si 10.85  4.34 -6.63
Si  0.43 -10.51  8.37
Si -7.83  7.38 -8.06
Si -12.93 -2.37  2.82
