500
set: 1348.00  0.00  0.00
Si  0.52 -0.82  0.53
Si -0.09  1.28  1.35
Si  0.74  1.96 -0.29
Si  0.01 -1.46 -1.57
Si -1.72  1.50 -1.59
Si  0.75 -2.29  1.79
Si  2.01 -0.60 -2.42
Si  3.28  0.64 -0.76
Si -3.49 -0.82  0.53
Si  3.54 -0.82  0.53
Si -3.75  0.64 -0.76
Si  2.38  1.73  2.65
Si -0.52  0.28  3.93
Si -2.99 -0.18  2.63
Si  1.67 -3.38 -1.59
Si  0.14  4.06  0.53
Si -2.89 -2.92 -0.29
Si -2.65  2.60  1.79
Si  2.02 -1.05  3.46
Si  1.78  0.87 -3.69
Si -2.46 -1.91 -2.87
Si  1.18  2.97 -2.87
Si -1.25 -3.15  2.65
Si -0.36 -4.24 -0.76
Si -2.23  0.87 -3.69
Si  4.04 -0.18  2.63
Si -1.63 -1.23 -4.51
Si -2.88  4.06  0.53
Si -3.38  3.42 -1.57
Si  3.31 -3.60  1.35
Si  4.14 -2.92 -0.29
Si -1.39  4.28 -2.42
Si  3.65  3.42 -1.57
Si -1.38  3.83  3.46
Si -3.72 -3.60  1.35
Si  4.38  2.60  1.79
Si -0.74 -2.51  4.75
Si  0.65  4.70  2.63
Si -1.12  2.38  4.75
Si -0.12  5.52 -0.76
Si  1.17 -4.01 -3.69
Si -5.02 -0.60 -2.42
Si -4.65  1.73  2.65
Si  0.91 -2.56 -4.98
Si  0.41 -5.07  2.63
Si -0.09 -5.70  0.53
Si  4.57 -1.91 -2.87
Si  5.31  1.50 -1.59
Si -1.35 -0.41  5.57
Si -1.85 -4.01 -3.69
Si  4.15  4.06  0.53
Si  2.28 -2.51  4.75
Si  1.28  0.22 -5.79
Si -2.49  2.33 -4.98
Si  2.89  2.38  4.75
Si  4.80  0.87 -3.69
Si  2.01  3.65 -4.51
Si -5.02 -1.05  3.46
Si -1.63 -5.48 -2.42
Si -5.25  0.87 -3.69
Si -3.12 -5.70  0.53
Si -5.36 -3.38 -1.59
Si -6.51 -0.82  0.53
Si -6.29  1.96 -0.29
Si -0.46  3.19 -5.81
Si  2.88 -4.61  3.93
Si  2.94 -1.69 -5.81
Si -4.14  2.38  4.75
Si  3.12  0.91  6.02
Si  1.91  6.39 -1.59
Si -6.29 -2.29  1.79
Si  3.92 -5.70  0.53
Si  1.12  0.04  6.87
Si  1.41  5.75 -3.69
Si -1.62  5.75 -3.69
Si -1.62 -5.93  3.46
Si  5.78 -3.15  2.65
Si  4.54  2.33 -4.98
Si  5.41 -1.23 -4.51
Si -5.86  2.97 -2.87
Si -4.75 -2.51  4.75
Si  6.95  1.28  1.35
Si -1.20 -0.23 -7.09
Si -1.01  6.61  2.65
Si  3.12  5.16  3.93
Si -3.48  6.16  1.35
Si -0.52 -3.97  6.02
Si -3.91  0.91  6.02
Si  3.55  6.16  1.35
Si -4.10 -1.69 -5.81
Si -7.02 -1.46 -1.57
Si -4.15 -4.61  3.93
Si -2.65  6.84 -0.29
Si -7.12  1.28  1.35
Si  7.04 -1.46 -1.57
Si  3.41 -6.34 -1.57
Si  0.94 -6.79 -2.87
Si -3.62 -6.34 -1.57
Si  3.27  1.09 -6.65
Si  5.64  4.28 -2.42
Si  2.29  4.48  5.57
Si -0.61  3.01  6.86
Si  5.18 -4.01 -3.69
Si -3.92  5.16  3.93
Si  7.55 -0.82  0.53
Si  6.51  0.28  3.93
Si  2.78 -1.87  6.86
Si  5.65  3.83  3.46
Si -0.36 -3.79 -6.65
Si -5.02  3.65 -4.51
Si -3.76  1.09 -6.65
Si  0.98  7.48  1.79
Si -2.36 -4.66 -5.79
Si  1.77 -6.11 -4.51
Si  0.51 -7.80 -0.29
Si -2.89 -7.17  1.79
Si  6.67 -4.24 -0.76
Si  2.05 -5.29  5.57
Si  5.91  2.38  4.75
Si  5.68 -0.41  5.57
Si -5.86 -4.01 -3.69
Si -2.12  5.11 -5.79
Si -6.89  4.06  0.53
Si  7.78  1.96 -0.29
Si  5.41 -5.48 -2.42
Si  4.38  6.84 -0.29
Si -5.76  0.22 -5.79
Si  0.75 -2.74  7.68
Si  7.18  4.06  0.53
Si  6.29 -2.51  4.75
Si -0.59 -2.33 -7.92
Si -4.25 -1.87  6.86
Si -6.13 -2.56 -4.98
Si  7.78 -2.29  1.79
Si -5.12  6.39 -1.59
Si -6.38  4.70  2.63
Si -0.28  5.79  6.02
Si -0.96  2.56 -7.91
Si -2.65  2.15  7.68
Si  0.25  8.30 -1.57
Si -1.78 -1.41  8.15
Si  4.14 -7.17  1.79
Si -7.55  0.28  3.93
Si -7.39 -4.24 -0.76
Si -4.75  4.48  5.57
Si -0.32 -8.48  1.35
Si  2.43 -2.33 -7.91
Si -1.96 -8.26 -1.59
Si -2.22  7.85 -2.87
Si -0.51  7.26  4.75
Si  5.42  5.75 -3.69
Si  2.15 -8.03  2.65
Si -6.62 -5.07  2.63
Si  5.41 -5.93  3.46
Si -0.36  0.46 -8.73
Si -2.27  4.92  6.87
Si -2.51 -4.84  6.87
Si  4.67 -4.66 -5.79
Si -0.70 -6.57 -5.81
Si  2.44  4.66 -7.09
Si  1.14  7.21 -4.98
Si -5.62  5.75 -3.69
Si  3.04  2.56 -7.92
Si  6.91  5.52 -0.76
Si -1.36 -7.39  4.75
Si -0.12  5.97 -6.65
Si  0.76  8.95  0.53
Si  6.94 -5.70  0.53
Si  2.20 -5.11 -7.09
Si -8.76  1.50 -1.59
Si  2.52  7.26  4.75
Si  1.85  3.47  8.15
Si -5.91  0.04  6.87
Si -7.15  5.52 -0.76
Si  4.39  2.15  7.68
Si  1.63  0.69  8.97
Si -7.12 -5.70  0.53
Si  4.91  5.11 -5.79
Si -4.99 -5.29  5.57
Si  2.65 -7.39  4.75
Si  5.84 -0.23 -7.09
Si  8.21  2.97 -2.87
Si -3.99  2.56 -7.92
Si -5.26 -6.11 -4.51
Si -8.28 -3.15  2.65
Si -2.38  0.69  8.97
Si  6.02  6.61  2.65
Si  6.57  3.19 -5.81
Si -2.73 -7.44 -4.98
Si  9.04 -0.60 -2.42
Si  7.44 -5.07  2.63
Si  7.68  4.70  2.63
Si -4.60 -2.33 -7.91
Si -7.78 -2.51  4.75
Si  8.71 -3.38 -1.59
Si  2.17 -0.87 -9.20
Si -3.25  8.94  0.53
Si  4.52 -4.84  6.87
Si -6.09 -6.79 -2.87
Si  8.81  0.87 -3.69
Si  2.25  8.71  3.46
Si  4.81  7.85 -2.87
Si -4.59  4.66 -7.09
Si  3.04 -9.12 -0.76
Si -0.85 -6.75  6.86
Si  4.76  4.92  6.87
Si  7.94 -2.56 -4.98
Si  6.51 -3.97  6.02
Si  3.78  8.94  0.53
Si -8.15  2.38  4.75
Si  2.25  9.16 -2.42
Si  9.05 -1.05  3.46
Si -1.39  8.53 -4.51
Si -8.42  4.28 -2.42
Si  1.54 -8.89 -3.69
Si -4.88 -8.03  2.65
Si -4.51  7.26  4.75
Si -6.05  7.48  1.79
Si  5.25 -1.41  8.15
Si -4.38 -7.39  4.75
Si  5.07 -8.26 -1.59
Si -8.66 -1.23 -4.51
Si  8.20 -4.01 -3.69
Si  6.42  3.01  6.86
Si -8.41  3.83  3.46
Si  4.30 -7.44 -4.98
Si  9.42  1.73  2.65
Si -2.46 -8.89 -3.69
Si  1.02 -4.20  8.97
Si -4.83 -5.11 -7.09
Si -3.99 -9.12 -0.76
Si -7.49  3.19 -5.81
Si -9.26  0.87 -3.69
Si -8.38 -0.41  5.57
Si -9.49 -1.91 -2.87
Si -2.01 -4.19  8.97
Si -1.23  4.01 -9.20
Si  8.31  0.22 -5.79
Si  4.65  0.69  8.97
Si  6.67 -3.79 -6.65
Si -6.53 -7.80 -0.29
Si -9.68  2.60  1.79
Si  1.02  2.79  9.79
Si  3.03 -4.42 -8.73
Si -5.18  3.47  8.15
Si  6.07  2.56 -7.91
Si -6.28 -2.74  7.68
Si -0.76 -9.49  3.93
Si -2.75  9.58  2.63
Si -9.92 -2.92 -0.29
Si -2.61 -2.09  9.79
Si 10.31  0.64 -0.76
Si -10.02 -0.18  2.63
Si -2.83 -0.00 -10.03
Si  1.62 -6.29  8.15
Si -8.89 -4.01 -3.69
Si  1.85 -0.78 10.24
Si  3.17  8.07 -5.81
Si -7.55 -3.97  6.02
Si -4.86 -0.87 -9.20
Si  0.99  7.03  7.68
Si  5.68 -7.39  4.75
Si  6.44 -2.33 -7.92
Si -5.41  0.69  8.97
Si -1.10 -2.97 -10.01
Si  2.54  1.91 -10.01
Si -4.78  8.71  3.46
Si -8.66 -5.48 -2.42
Si -5.89  7.21 -4.98
Si -10.52 -0.82  0.53
Si -4.00 -4.42 -8.73
Si  0.28 -10.58  0.53
Si -4.79  9.16 -2.42
Si 10.57 -0.82  0.53
Si  1.25  5.57  8.97
Si -7.39 -3.79 -6.65
Si  4.57 -8.89 -3.69
Si  8.15  0.04  6.87
Si -3.86  8.07 -5.81
Si -7.65  3.01  6.86
Si -1.77  5.57  8.97
Si -9.91  4.06  0.53
Si  6.75  5.79  6.02
Si  9.04  3.65 -4.51
Si  3.27  5.34 -8.73
Si -8.04  6.61  2.65
Si  9.31 -2.51  4.75
Si -1.20 -7.21 -7.91
Si -3.23 -9.95  2.63
Si -0.28 10.04  3.93
Si  1.77 -10.36 -2.42
Si  6.33 -6.57 -5.81
Si  4.28  9.58  2.63
Si -10.79  0.64 -0.76
Si -6.78  8.30 -1.57
Si  7.54 -7.80 -0.29
Si  6.53  7.26  4.75
Si  8.44  5.75 -3.69
Si  7.97 -6.79 -2.87
Si -8.23 -0.23 -7.09
Si -0.35  7.44 -7.92
Si  4.20 -0.00 -10.03
Si  3.02  7.89  6.86
Si  6.71 -8.48  1.35
Si -3.76  5.34 -8.73
Si -6.28  8.95  0.53
Si  4.42 -2.09  9.79
Si -1.11  9.36  5.57
Si -1.47 -5.75 -9.20
Si  3.81 -9.95  2.63
Si  6.67  0.46 -8.73
Si -9.52  2.33 -4.98
Si -3.52 10.40 -0.76
Si  3.52 10.40 -0.76
Si -8.65  5.75 -3.69
Si 10.34 -3.60  1.35
Si -8.65 -5.93  3.46
Si  2.81 -7.21 -7.92
Si -10.42  3.42 -1.57
Si -5.49 -8.89 -3.69
Si  2.88 -8.86  6.02
Si -7.31  5.79  6.02
Si  3.30 -10.58  0.53
Si  5.02 -4.19  8.97
Si  8.94  6.39 -1.59
Si  0.90 -2.11 -10.87
Si  8.02  7.48  1.79
Si  0.15 11.04  1.35
Si -1.54  4.10 10.24
Si -4.49  1.91 -10.01
Si  7.28  8.30 -1.57
Si  0.56 -4.88 -10.03
Si  5.64  8.53 -4.51
Si  0.80  4.88 -10.03
Si  2.67  7.44 -7.91
Si -2.88 -7.62  7.68
Si -4.01  7.89  6.86
Si  1.04 -9.54 -5.79
Si -0.14 -1.64 11.09
Si -7.62 -2.33 -7.92
Si -3.73 -10.58  0.53
Si  9.92  2.38  4.75
Si  7.78 -2.74  7.68
Si  6.91  5.97 -6.65
Si -7.36 -8.48  1.35
Si -1.88  1.32 11.08
Si 10.68  3.42 -1.57
Si -0.23 -11.23 -1.57
Si  3.03 -8.68 -6.65
Si 11.08 -0.18  2.63
Si  0.07  1.46 -11.31
Si -10.75 -3.60  1.35
Si -1.99 10.63 -3.69
Si  6.18 -6.75  6.86
Si  2.02 10.63 -3.69
Si -7.16  5.97 -6.65
Si -7.40  0.46 -8.73
Si -1.49 11.27 -1.59
Si -4.15 -8.86  6.02
Si -2.50  2.78 -10.87
Si -7.54  7.26  4.75
Si  1.78 -10.81  3.46
Si -5.18 -0.78 10.24
Si -4.23 -7.21 -7.92
Si -8.00  2.56 -7.91
Si 11.17 -2.92 -0.29
Si  4.15 -7.62  7.68
Si -6.02 -4.20  8.97
Si  5.80  4.01 -9.20
Si  9.91 -4.61  3.93
Si  8.80 -6.11 -4.51
Si -4.00 -8.68 -6.65
Si -5.42 -6.29  8.15
Si  1.51  9.99 -5.79
Si -10.15 -5.70  0.53
Si  9.97 -1.69 -5.81
Si -7.73 -6.57 -5.81
Si -4.36  7.44 -7.91
Si -1.59 -10.17  5.57
Si  1.52 -3.56 11.08
Si  9.32  4.48  5.57
Si  0.98 11.73 -0.29
Si -1.54  8.35  8.15
Si  5.26  5.57  8.97
Si -6.01  2.79  9.79
Si -1.78 -5.66 10.24
Si 10.15  0.91  6.02
Si 11.41  2.60  1.79
Si -9.68  6.84 -0.29
Si  7.79  8.95  0.53
Si -5.26 -10.36 -2.42
Si  9.08 -5.29  5.57
Si 11.19  4.06  0.53
Si -0.96  9.54 -7.09
Si  0.88 -9.72  6.87
Si -9.15  5.11 -5.79
Si -9.39 -4.66 -5.79
Si  8.18  7.21 -4.98
Si  5.94 -2.97 -10.01
Si -1.86 -10.99 -4.51
Si  6.28 -9.49  3.93
Si -6.04  7.03  7.68
Si -5.78  5.57  8.97
Si 10.15  5.16  3.93
Si  0.78 -6.97  9.79
Si  1.36  9.81  6.87
Si  3.49  3.24 11.09
Si -3.54  3.24 11.09
Si  2.62 11.49  2.65
Si -8.81 -1.41  8.15
Si  4.54  2.78 -10.87
Si -11.68  1.73  2.65
Si 11.61 -1.91 -2.87
Si  9.81 -1.87  6.86
Si -0.86  6.79 -10.01
Si -8.39 -7.39  4.75
Si  0.67 -0.64 -12.14
Si  5.83 -7.21 -7.91
Si  0.51 -12.05  1.79
Si  5.57 -5.75 -9.20
Si -10.52  6.16  1.35
Si  5.15  1.32 11.08
Si 10.30  1.09 -6.65
Si -12.05 -0.60 -2.42
Si -8.99 -8.26 -1.59
Si  3.12  0.46 11.90
Si  3.46 -3.42 -11.31
Si  5.49  4.10 10.24
Si 10.44 -6.34 -1.57
Si 10.58  6.16  1.35
Si -5.01 10.63 -3.69
Si -2.70 -11.68 -2.87
Si  5.04 10.63 -3.69
Si -1.43 -9.99 -7.09
Si -3.57 -3.42 -11.31
Si 10.95 -5.70  0.53
Si -11.17  2.38  4.75
Si -9.92 -7.17  1.79
Si  5.92  9.36  5.57
Si 11.84  0.87 -3.69
Si -7.88 -6.75  6.86
Si -9.25  7.85 -2.87
Si  9.18 -8.03  2.65
Si  8.66  0.69  8.97
Si -10.65 -6.34 -1.57
Si -5.25 -10.81  3.46
Si  0.59  1.78 12.37
Si -10.95  0.91  6.02
Si 12.34  1.50 -1.59
Si -3.91  0.46 11.90
Si -9.68  2.15  7.68
Si  8.89  3.47  8.15
Si  9.47 -2.33 -7.91
Si -6.75 -10.58  0.53
Si -9.31  4.92  6.87
Si -12.05 -1.05  3.46
Si -4.41 11.49  2.65
Si -3.33 -0.64 -12.13
Si -6.13 -2.11 -10.87
Si  5.55 11.27 -1.59
Si -2.38  7.67  9.79
Si -11.13 -1.69 -5.81
Si -5.99 -9.54 -5.79
Si  3.70 -0.64 -12.13
Si  3.36 10.67  6.02
Si -0.51 -4.42 11.90
Si  9.23 -5.11 -7.09
Si  9.47  4.66 -7.09
Si -9.54 -4.84  6.87
Si -11.19 -4.61  3.93
Si -2.41 12.36  1.79
Si -10.79  1.09 -6.65
Si  6.75 10.04  3.93
Si -10.95  5.16  3.93
Si  6.68  7.44 -7.92
Si  8.05 -4.20  8.97
Si -6.23  4.88 -10.03
Si -0.60 -9.31 -8.73
Si  4.34 -11.68 -2.87
Si -3.68 10.67  6.02
Si -5.52  9.99 -5.79
Si -8.42  8.53 -4.51
Si  5.44 -10.17  5.57
Si 11.57  2.33 -4.98
Si  1.76  6.21 11.08
Si  5.25 -5.66 10.24
Si  1.39 -9.08  8.97
Si  0.30  4.24 -12.13
Si -12.28  0.87 -3.69
Si  7.31 -10.58  0.53
Si -5.51 -3.56 11.08
Si -7.79 -9.49  3.93
Si -6.47 -4.88 -10.03
Si  8.57 -8.89 -3.69
Si  5.49  8.35  8.15
Si  9.55  7.26  4.75
Si  2.30 -7.85 -10.01
Si -12.39 -3.38 -1.59
Si -11.79 -2.51  4.75
Si  5.17 -10.99 -4.51
