500
set: 1107.00  0.00  0.00
Si  0.41 -1.15  0.82
Si -0.40  1.19 -0.77
Si -1.24 -1.14 -0.84
Si  1.34  1.15  0.86
Si -0.83  0.02  2.39
Si  2.08 -1.20 -0.82
Si  0.79 -0.06 -2.42
Si -2.16  1.20  0.82
Si  2.98  1.11 -0.80
Si -2.99 -1.13  0.73
Si  0.01  2.35  2.36
Si -0.01 -2.31 -2.42
Si -2.59 -0.01 -2.39
Si  2.60 -0.03  2.45
Si -0.42 -3.46  0.86
Si  0.52  3.46 -0.84
Si -1.75 -2.25  2.36
Si -1.69  2.32 -2.41
Si -1.23  3.48  0.73
Si  1.69 -2.30  2.46
Si  1.75  2.30 -2.42
Si  1.22 -3.50 -0.80
Si  0.87 -0.01  4.01
Si -2.17 -3.42 -0.77
Si  3.90 -1.13  0.73
Si -3.91  1.11 -0.80
Si  2.18  3.45  0.82
Si -0.87  0.05 -4.08
Si  2.97 -3.40  0.82
Si -3.05  3.40 -0.82
Si -0.09 -2.36  4.01
Si  0.05  2.32 -4.05
Si  2.57  0.00 -3.98
Si -2.56  0.02  4.03
Si  3.44 -2.28 -2.41
Si -3.45 -2.28 -2.41
Si -3.44  2.30  2.46
Si  3.45  2.30  2.46
Si  1.68  2.24  4.01
Si  4.30 -0.01 -2.39
Si  1.72 -2.33 -3.99
Si -4.29 -0.03  2.45
Si  4.73  1.20  0.82
Si -1.71 -2.28 -4.05
Si -1.71  2.29  4.05
Si -4.81 -1.20 -0.82
Si  3.84  3.40 -0.82
Si -0.83  4.59 -2.39
Si -3.92 -3.40  0.82
Si  0.94  4.62  2.39
Si  0.84 -4.64  2.45
Si -0.97 -4.67 -2.42
Si -3.41  2.27 -3.99
Si  0.46 -1.16 -5.58
Si -0.36  1.16  5.59
Si -5.55  1.15  0.86
Si  2.56  4.54 -2.42
Si  3.48  2.27 -3.99
Si -2.52  4.57  2.45
Si  2.54 -4.61 -2.39
Si  3.42 -2.31  4.05
Si -2.59 -4.59  2.39
Si -3.47 -2.31  4.05
Si  5.65 -1.14 -0.84
Si  0.32 -5.81 -0.82
Si -4.32  0.00 -3.98
Si -0.40  5.81  0.82
Si  1.29  1.15 -5.62
Si  4.72 -3.42 -0.77
Si -4.71  3.45  0.82
Si  4.33  0.02  4.03
Si -1.28 -1.11  5.67
Si -1.35 -5.75  0.82
Si  1.36  5.79 -0.77
Si  5.14 -2.25  2.36
Si -5.14  2.30 -2.42
Si  2.10 -1.20  5.63
Si  0.80 -4.60 -3.98
Si -2.15  5.71 -0.80
Si  2.14 -5.73  0.73
Si -0.89 -4.61  4.01
Si -0.80  4.62  4.03
Si  5.21  2.32 -2.41
Si -2.11  1.18 -5.70
Si -5.20 -2.30  2.46
Si  0.89  4.65 -4.08
Si  2.96  1.10  5.61
Si -3.04 -1.10 -5.62
Si  6.06  0.02  2.39
Si -3.00 -5.75 -0.84
Si -6.10 -0.06 -2.42
Si  3.11  5.75  0.86
Si -2.56  4.60 -3.98
Si -0.47 -3.45 -5.62
Si  2.56 -4.58  4.03
Si -6.48 -1.15  0.82
Si  6.49  1.19 -0.77
Si  2.63  4.60  4.01
Si -2.63 -4.55 -4.08
Si  0.48  3.49  5.67
Si  5.66  3.48  0.73
Si -5.67 -3.50 -0.80
Si  1.20 -3.50  5.61
Si  4.30 -4.59  2.39
Si -4.34  4.54 -2.42
Si -1.28  3.50 -5.62
Si -4.36 -4.61 -2.39
Si  4.37  4.57  2.45
Si  3.85 -1.10 -5.62
Si -2.12 -3.44  5.59
Si  2.22  3.45 -5.58
Si -5.17 -2.33 -3.99
Si -3.79  5.75  0.86
Si -3.93  1.10  5.61
Si -5.22  2.24  4.01
Si  5.18 -2.28 -4.05
Si  5.18  2.29  4.05
Si  3.89 -5.75 -0.84
Si -6.02 -0.01  4.01
Si -3.03  3.41  5.63
Si  6.02  0.05 -4.08
Si -6.37  3.46 -0.84
Si  3.02 -3.43 -5.70
Si -0.07 -6.91  2.46
Si  0.08  6.93 -2.41
Si -0.36  1.16 -7.28
Si  6.47 -3.46  0.86
Si  0.46 -1.16  7.29
Si -1.29 -1.11 -7.21
Si -7.30  1.19 -0.77
Si  7.31 -1.15  0.82
Si -4.26  4.60  4.01
Si  4.26 -4.55 -4.08
Si  1.30  1.15  7.25
Si  4.74  5.71 -0.80
Si  4.33  4.60 -3.98
Si -4.33 -4.58  4.03
Si -4.76 -5.73  0.73
Si  1.68 -6.88 -2.41
Si -4.79 -1.20  5.63
Si -1.68  6.91  2.46
Si -1.77 -6.91 -2.42
Si  4.78  1.18 -5.70
Si  1.78  6.96  2.36
Si -2.11  1.17  7.17
Si  2.10 -1.19 -7.24
Si  3.87  3.41  5.63
Si -6.88  2.35  2.36
Si  6.88 -2.31 -2.42
Si  6.91  2.35  2.36
Si -6.90 -2.31 -2.42
Si -3.88 -3.43 -5.70
Si -5.96  4.62  2.39
Si  2.96  1.10 -7.26
Si  5.92 -4.67 -2.42
Si -3.04 -1.10  7.25
Si  6.06  4.59 -2.39
Si  0.05  6.89  4.05
Si  3.38 -6.85  2.36
Si -0.04 -6.94 -3.99
Si -6.05 -4.64  2.45
Si -5.60  1.15 -5.62
Si  0.47  3.49 -7.21
Si  5.54 -5.75  0.82
Si -0.47 -3.45  7.25
Si -5.53  5.79 -0.77
Si  5.61 -1.11  5.67
Si -4.67  3.45 -5.58
Si -3.38  6.90 -2.42
Si -3.51 -6.85  2.36
Si  7.68 -0.06 -2.42
Si -7.72  0.02  2.39
Si  0.34 -5.80  5.63
Si -1.64  6.87 -3.99
Si  3.52  6.90 -2.42
Si  4.77 -3.44  5.59
Si -1.30 -5.76 -5.58
Si -0.35  5.78 -5.70
Si  0.53  8.08  0.73
Si -7.31 -3.46  0.86
Si  1.21 -8.00  0.82
Si -1.28  8.00 -0.82
Si  1.20 -3.50 -7.26
Si  1.41  5.76  5.59
Si -1.28  3.50  7.25
Si -0.55 -8.10 -0.80
Si  1.66 -6.92  4.05
Si  1.81  6.92 -4.05
Si  7.41  3.46 -0.84
Si  6.80 -2.36  4.01
Si -1.85 -6.97  4.01
Si -8.13 -1.14 -0.84
Si  2.08 -5.70 -5.62
Si -6.84  2.32 -4.05
Si  3.85 -1.10  7.25
Si -2.16  5.70  5.61
Si -2.12 -3.44 -7.28
Si -3.93  1.10 -7.26
Si  8.23  1.15  0.86
Si  6.94  2.32 -4.05
Si  2.23  3.45  7.29
Si -6.98 -2.36  4.01
Si -2.18 -8.06  0.86
Si  2.29  8.06 -0.84
Si  3.02 -3.43  7.17
Si -3.03  3.41 -7.24
Si  6.00 -4.61  4.01
Si  2.96 -8.02 -0.77
Si -6.43 -1.16 -5.58
Si  3.06  5.76 -5.62
Si -3.05 -5.72  5.67
Si -6.09 -4.60 -3.98
Si -6.00  4.65 -4.08
Si -2.95  8.06  0.82
Si  6.09  4.62  4.03
Si  3.44  6.84  4.01
Si -3.45  6.84  4.01
Si  6.53  1.16  5.59
Si  5.61  3.50 -5.62
Si  3.42 -6.89 -4.05
Si  4.78  1.17  7.17
Si -3.48 -6.89 -4.05
Si -5.69 -3.50  5.61
Si  7.76 -0.01  4.01
Si  6.50  5.81  0.82
Si -4.79 -1.19 -7.24
Si -7.76  0.05 -4.08
Si -6.57 -5.81 -0.82
Si -0.86  0.05  8.80
Si -3.87 -3.43  7.17
Si -8.12  3.48  0.73
Si  8.11 -3.50 -0.80
Si  3.86  3.41 -7.24
Si  0.87 -0.00 -8.86
Si -3.84  5.76 -5.62
Si  3.85 -5.72  5.67
Si  5.12 -6.91 -2.42
Si -5.12  6.96  2.36
Si -3.93 -8.02 -0.77
Si -5.21 -6.88 -2.41
Si  5.21  6.91  2.46
Si  3.94  8.06  0.82
Si  8.97 -1.20 -0.82
Si  0.06  2.32  8.82
Si -9.05  1.20  0.82
Si -0.09 -2.36 -8.86
Si  5.60 -1.11 -7.21
Si  6.42 -3.45 -5.62
Si -8.58  2.32 -2.41
Si -2.57  0.02 -8.85
Si -0.35  5.78  7.17
Si  8.58 -2.30  2.46
Si -7.25  1.16  5.59
Si -5.59  1.15  7.25
Si -8.64 -2.25  2.36
Si -6.41  3.49  5.67
Si  2.57 -0.00  8.89
Si  8.64  2.30 -2.42
Si -1.71 -2.29  8.82
Si -1.71  2.29 -8.82
Si  0.33 -5.80 -7.24
Si  1.67  2.24 -8.86
Si  4.73  5.70  5.61
Si  7.21 -5.81 -0.82
Si -7.72  4.59 -2.39
Si  7.35 -1.16 -5.58
Si -4.67  3.45  7.29
Si -4.61  8.06 -0.84
Si -4.81 -5.70 -5.62
Si  7.73 -4.64  2.45
Si  1.73 -2.34  8.89
Si -7.29  5.81  0.82
Si  4.77 -3.44 -7.28
Si  4.71 -8.06  0.86
Si -1.30 -5.76  7.29
Si  1.40  5.76 -7.28
Si  7.83  4.62  2.39
Si -7.86 -4.67 -2.42
Si  2.09 -5.70  7.25
Si -2.17  5.70 -7.26
Si  5.04 -6.97  4.01
Si -5.08  6.92 -4.05
Si  5.25  6.87 -3.99
Si -0.76  9.17  2.45
Si  0.93  9.20 -2.39
Si  0.77 -9.21 -2.39
Si -5.24 -6.92  4.05
Si -0.92 -9.24  2.45
Si -3.05 -5.72 -7.21
Si -9.06 -3.42 -0.77
Si  8.57  2.24  4.01
Si -5.49  5.76  5.59
Si  9.07  3.45  0.82
Si  3.41 -2.31 -8.82
Si  3.06  5.75  7.25
Si -3.48 -2.31 -8.82
Si  5.59 -5.76 -5.58
Si  8.61 -2.33 -3.99
Si -8.60 -2.28 -4.05
Si -8.60  2.29  4.05
Si -3.40  2.27  8.89
Si -9.49 -0.01 -2.39
Si -6.43 -1.16  7.29
Si -2.57  9.14 -2.42
Si  5.61  8.00 -0.82
Si  9.50 -0.03  2.45
Si  7.70 -4.60 -3.98
Si  3.49  2.27  8.89
Si  5.62  3.50  7.25
Si  2.54 -9.19  2.39
Si -7.69  4.62  4.03
Si  4.32  0.02 -8.85
Si  6.53  1.16 -7.28
Si -5.69 -8.00  0.82
Si -5.70 -3.50 -7.26
Si -1.26  8.01  5.63
Si  0.48  8.11 -5.62
Si -0.56 -8.11  5.61
Si -7.36 -3.45 -5.62
Si -4.32 -0.00  8.89
Si -7.78 -4.61  4.01
Si  2.70  9.22  2.39
Si  1.25 -8.03 -5.70
Si  7.37  3.49  5.67
Si  7.79  4.65 -4.08
Si -2.73 -9.27 -2.42
Si  9.87  1.11 -0.80
Si  3.84 -5.72 -7.21
Si -9.88 -1.13  0.73
Si  0.90  4.65  8.80
Si  8.19  1.15 -5.62
Si -8.18 -1.11  5.67
Si  6.82 -6.91  2.46
Si -6.82  6.93 -2.41
Si -0.81  4.62 -8.85
Si -3.83  5.75  7.25
Si -0.90 -4.61 -8.86
Si  0.81 -4.60  8.89
Si  0.80 -9.19  4.03
Si -0.80  9.21 -3.98
Si -2.23 -8.05 -5.62
Si -0.96 -9.21 -3.98
Si -8.24 -5.75  0.82
Si  8.25  5.79 -0.77
Si -6.97 -6.91  2.46
Si  0.96  9.23  4.03
Si  6.97  6.93 -2.41
Si  2.24  8.09  5.67
Si -2.91  8.05 -5.58
Si -2.63 -4.55  8.80
Si  3.01 -8.05  5.59
Si -6.42  3.49 -7.21
Si  9.46  0.00 -3.98
Si -9.46  0.02  4.03
Si  2.56 -4.58 -8.85
Si  6.43 -3.45  7.25
Si -6.36  8.08  0.73
Si  6.35 -8.10 -0.80
Si  2.63  4.60 -8.86
Si  2.50 -9.15 -4.08
Si -2.56  4.60  8.89
Si -7.25  1.16 -7.28
Si -2.49  9.20  4.01
Si -0.38 10.31 -0.80
Si  0.37 -10.33  0.73
Si  4.72  5.70 -7.26
Si -2.65 -9.21  4.01
Si  4.32  9.14 -2.42
Si -4.80 -5.70  7.25
Si -6.55 -5.80  5.63
Si -4.19  9.22  2.39
Si  7.36 -1.16  7.29
Si  6.54  5.78 -5.70
Si  4.16 -9.27 -2.42
Si -4.35 -9.19  2.39
Si  8.09 -3.50  5.61
Si  2.66  9.26 -4.08
Si  9.86 -3.40  0.82
Si  0.80 -0.06 10.45
Si  5.18  2.29 -8.82
Si  5.18 -2.29  8.82
Si -0.83  0.02 -10.48
Si -8.17  3.50 -5.62
Si -6.84  6.89  4.05
Si -5.22  2.24 -8.86
Si  1.37 10.41  0.82
Si  6.85 -6.94 -3.99
Si -9.94  3.40 -0.82
Si -5.17 -2.34  8.89
Si -1.45 -10.41 -0.82
Si -3.88 -8.05  5.59
Si  3.99  8.05 -5.58
Si -2.02 10.35  0.86
Si -6.93 -6.94 -3.99
Si  6.95  6.89  4.05
Si  2.12 -10.35 -0.84
Si  6.03  0.05  8.80
Si  8.99 -1.20  5.63
Si -0.01 -2.31 10.45
Si -6.02 -0.00 -8.86
Si  9.03 -5.73  0.73
Si -9.04  5.71 -0.80
Si -9.01  1.18 -5.70
Si  2.60 -0.03 -10.42
Si -9.42  4.57  2.45
Si  9.45  4.54 -2.42
Si  9.43 -4.61 -2.39
Si  0.01  2.35 -10.51
Si  4.26 -4.55  8.80
Si -5.49  5.76 -7.28
Si  1.68 -2.30 -10.41
Si -2.59 -0.01 10.48
Si -9.48 -4.59  2.39
Si  1.26 -8.03  7.17
Si  1.76  2.29 10.45
Si -3.11 -10.36  0.82
Si  7.23 -5.80  5.63
Si  5.59 -5.76  7.29
Si -1.68  2.32 10.46
Si -4.26  4.60 -8.86
Si 10.34 -2.28 -2.41
Si -10.34 -2.28 -2.41
Si -4.33 -4.58 -8.85
Si -10.33  2.30  2.46
Si  4.66 -8.05 -5.62
Si -1.27  8.01 -7.24
Si 10.79 -1.13  0.73
Si 10.34  2.30  2.46
Si  3.12 10.39 -0.77
Si -7.24  5.78 -5.70
Si  7.37  3.49 -7.21
Si  0.49  8.11  7.25
Si -10.80  1.11 -0.80
Si -1.75 -2.25 -10.51
Si -7.36 -3.45  7.25
Si -0.57 -8.11 -7.26
Si  4.24 -9.21  4.01
Si  4.33  4.60  8.89
Si -4.65  8.09  5.67
Si -4.40 -9.15 -4.08
Si -8.18 -1.11 -7.21
Si  4.40  9.20  4.01
Si -4.24  9.26 -4.08
Si  7.42  8.08  0.73
Si  8.19  1.15  7.25
Si -7.44 -8.10 -0.80
Si  3.78 -10.36  0.82
Si  2.24  8.09 -7.21
Si -2.23 -8.05  7.25
Si -3.77 10.39 -0.77
Si -9.01 -3.44  5.59
Si  0.05  6.90 -8.82
Si -3.44  2.30 -10.41
Si  3.45  2.30 -10.41
Si -5.96  9.20 -2.39
Si  9.12  3.45 -5.58
Si -9.45  4.60 -3.98
Si -2.90  8.05  7.29
Si -3.44 -2.28 10.46
Si  3.45 -2.28 10.46
Si  9.46 -4.58  4.03
Si  8.57 -6.88 -2.41
Si  3.00 -8.05 -7.28
Si  5.97 -9.24  2.45
Si -4.29 -0.03 -10.42
Si -10.30  2.27 -3.99
Si -0.04 -6.94  8.89
Si -8.57  6.91  2.46
Si 10.74  3.40 -0.82
Si  6.55  5.78  7.17
Si  5.63  8.01  5.63
Si  6.13  9.17  2.45
Si  9.53  4.60  4.01
Si 10.31 -2.31  4.05
Si -9.53 -4.55 -4.08
Si -6.12 -9.21 -2.39
Si  1.65 -6.91 -8.82
Si  4.30 -0.01 10.48
Si -8.67 -6.91 -2.42
Si 10.38  2.27 -3.99
Si -5.64 -8.03 -5.70
Si -1.64  6.87  8.89
Si -6.56 -5.80 -7.24
Si  1.82  6.92  8.82
Si  8.67  6.96  2.36
Si -10.37 -2.31  4.05
Si -10.81 -3.40  0.82
Si  9.86  1.10  5.61
Si -6.84  2.32  8.82
Si  8.10 -8.00  0.82
Si  6.80 -2.36 -8.86
Si  8.09 -3.50 -7.26
Si -1.85 -6.97 -8.86
Si -4.77 -10.35 -0.84
Si  0.84 -4.63 -10.42
Si 11.19 -0.01 -2.39
Si -11.18 -0.03  2.45
Si -8.20 -5.76 -5.58
Si -9.94 -1.10 -5.62
Si  6.95  2.32  8.82
