500
set: 788.00  0.00  0.00
Si  0.43 -1.19  0.81
Si -0.43  1.31 -0.82
Si -1.34 -1.11 -0.76
Si  1.33  1.15  0.77
Si -2.18  1.12  0.80
Si  0.95  0.05 -2.42
Si  2.21 -1.14 -0.76
Si -0.91 -0.04  2.46
Si -0.02 -2.21 -2.40
Si  0.12  2.29  2.39
Si  3.08  1.17 -0.87
Si -3.11 -1.25  0.84
Si  2.52 -0.09  2.44
Si -2.57  0.03 -2.48
Si -0.47 -3.53  0.77
Si  0.46  3.57 -0.76
Si -1.31  3.43  0.84
Si -1.68 -2.40  2.39
Si  1.27 -3.51 -0.87
Si -1.77  2.36 -2.46
Si  1.69 -2.45  2.46
Si  1.78  2.47 -2.40
Si -2.23 -3.37 -0.82
Si  3.88 -1.25  0.84
Si -3.91  1.17 -0.87
Si -0.78 -0.06 -4.13
Si  2.23  3.49  0.81
Si  0.88  0.14  4.12
Si -0.01  2.30 -4.06
Si -2.98  3.54 -0.76
Si  0.05 -2.29  4.10
Si  3.01 -3.56  0.80
Si  3.41 -2.32 -2.46
Si  3.49  2.23  2.46
Si  2.59 -0.11 -4.06
Si -3.50  2.23  2.46
Si -2.68  0.02  4.06
Si -3.57 -2.32 -2.46
Si -4.78 -1.14 -0.76
Si -1.68  2.37  4.04
Si  4.81  1.12  0.80
Si  1.63 -2.43 -4.08
Si -1.80 -2.38 -4.06
Si  4.42  0.03 -2.48
Si -4.46 -0.09  2.44
Si  1.85  2.40  4.10
Si -0.85 -4.63 -2.42
Si  0.89  4.64  2.46
Si -0.77  4.71 -2.48
Si -3.98 -3.56  0.80
Si  0.72 -4.77  2.44
Si  4.01  3.54 -0.76
Si  3.43  2.25 -4.08
Si  5.64 -1.11 -0.76
Si -3.48 -2.31  4.04
Si -5.65  1.15  0.77
Si  3.51 -2.31  4.04
Si -2.66  4.59  2.44
Si -3.56  2.25 -4.08
Si -0.38  5.81  0.80
Si  0.41 -5.82 -0.76
Si  4.75 -3.37 -0.82
Si  0.44 -1.19 -5.75
Si  2.62 -4.66 -2.48
Si -0.45  1.23  5.76
Si  4.31  0.02  4.06
Si -1.34 -1.03  5.70
Si -4.76  3.49  0.81
Si -2.71 -4.72  2.46
Si  1.33  1.15 -5.71
Si -4.39 -0.11 -4.06
Si  2.75  4.74 -2.42
Si -1.37 -5.87  0.81
Si  2.17 -1.17  5.65
Si -2.20  1.08 -5.68
Si  1.37  5.99 -0.82
Si -0.92 -4.55  4.12
Si  5.21  2.36 -2.46
Si -5.20  2.47 -2.40
Si -0.88  4.70  4.06
Si  1.02  4.62 -4.13
Si -2.11  5.85 -0.87
Si  5.30 -2.40  2.39
Si  0.79 -4.79 -4.06
Si -5.30 -2.45  2.46
Si  2.08 -5.93  0.84
Si -6.03  0.05 -2.42
Si  6.08 -0.04  2.46
Si -3.07 -1.22 -5.72
Si -3.14 -5.79 -0.76
Si -2.59  4.57 -4.06
Si  3.10  1.21  5.76
Si  3.13  5.83  0.77
Si  2.51 -4.66  4.06
Si  5.68  3.43  0.84
Si -6.56 -1.19  0.81
Si -0.47 -3.54 -5.71
Si  6.55  1.31 -0.82
Si -5.71 -3.51 -0.87
Si  4.32  4.59  2.44
Si  0.46  3.65  5.70
Si -2.58 -4.74 -4.13
Si -4.23  4.74 -2.42
Si -1.27  3.46 -5.72
Si  4.28 -4.72  2.46
Si  1.30 -3.48  5.76
Si -4.37 -4.66 -2.48
Si  2.68  4.82  4.12
Si  3.84 -5.79 -0.76
Si -5.14  2.40  4.10
Si  5.18 -2.38 -4.06
Si -3.85  5.83  0.77
Si  3.91 -1.22 -5.72
Si -3.88  1.21  5.76
Si  5.31  2.37  4.04
Si -2.25 -3.45  5.76
Si  2.24  3.49 -5.75
Si -5.36 -2.43 -4.08
Si -3.02  3.52  5.65
Si  2.98 -3.60 -5.68
Si -6.11  0.14  4.12
Si -0.44  1.23 -7.28
Si  0.43 -1.19  7.29
Si  6.52 -3.53  0.77
Si  6.21 -0.06 -4.13
Si  0.03  7.04 -2.46
Si -6.53  3.57 -0.76
Si  4.78  1.08 -5.68
Si -1.82 -6.89 -2.40
Si -4.82 -1.17  5.65
Si  4.39  4.57 -4.06
Si -1.70  6.91  2.46
Si -1.32 -1.03 -7.34
Si  1.32  1.15  7.33
Si -0.11 -7.13  2.46
Si  7.42 -1.19  0.81
Si -7.42  1.31 -0.82
Si  1.61 -7.00 -2.46
Si  1.92  6.97  2.39
Si -6.87  2.29  2.39
Si -4.48 -4.66  4.06
Si -4.31  4.82  4.12
Si  4.88  5.85 -0.87
Si  4.41 -4.74 -4.13
Si  6.97 -2.21 -2.40
Si -7.00 -2.21 -2.40
Si -4.91 -5.93  0.84
Si  3.97  3.52  5.65
Si -2.21  1.09  7.36
Si  2.18 -1.17 -7.39
Si -4.00 -3.60 -5.68
Si  7.10  2.29  2.39
Si  3.12  1.20 -7.28
Si -3.08 -1.21  7.32
Si -6.10  4.64  2.46
Si  6.14 -4.63 -2.42
Si  5.65 -1.03  5.70
Si -0.40  5.77 -5.68
Si -5.65  1.15 -5.71
Si  0.12  7.05  4.04
Si  0.37 -5.85  5.65
Si -0.48 -3.53  7.33
Si  5.62 -5.87  0.81
Si  0.49  8.11  0.84
Si  1.32 -3.48 -7.28
Si  6.21  4.71 -2.48
Si -1.28  3.47  7.32
Si -0.17 -7.11 -4.08
Si  0.47  3.65 -7.34
Si  4.74 -3.45  5.76
Si -4.75  3.49 -5.75
Si -1.76  6.93 -4.08
Si -6.26 -4.77  2.44
Si -3.48 -7.08  2.39
Si  3.50 -7.08  2.39
Si -0.53 -8.19 -0.87
Si -5.62  5.99 -0.82
Si  1.71 -6.99  4.04
Si -7.90 -0.04  2.46
Si -1.75 -6.97  4.10
Si  1.79  6.98 -4.06
Si -3.40  7.15 -2.40
Si -7.45 -3.53  0.77
Si  7.44  3.57 -0.76
Si  7.94  0.05 -2.42
Si -1.36 -5.87 -5.75
Si -3.87  1.20 -7.28
Si -1.18  8.22 -0.76
Si  3.58  7.15 -2.40
Si -2.24 -3.46 -7.28
Si  1.21 -8.24  0.80
Si  1.35  5.91  5.76
Si -6.94 -2.29  4.10
Si  3.90 -1.21  7.32
Si  2.23  3.49  7.29
Si  6.98  2.30 -4.06
Si -6.99  2.30 -4.06
Si  8.32  1.15  0.77
Si -8.33 -1.11 -0.76
Si  7.03 -2.29  4.10
Si  2.11 -5.90 -5.72
Si -2.08  5.89  5.76
Si -2.27 -8.21  0.77
Si  2.26  8.25 -0.76
Si -5.96  4.62 -4.13
Si  2.96 -8.05 -0.82
Si  6.06 -4.55  4.12
Si -3.14 -5.71  5.70
Si  6.11  4.70  4.06
Si -3.00  3.51 -7.39
Si  2.97 -3.59  7.36
Si -2.96  8.17  0.81
Si  3.13  5.83 -5.71
Si -7.76 -0.06 -4.13
Si -6.55 -1.19 -5.75
Si  5.71  3.46 -5.72
Si  6.54  1.23  5.76
Si -5.68 -3.48  5.76
Si -6.58 -5.82 -0.76
Si  3.38 -7.06 -4.06
Si -6.19 -4.79 -4.06
Si  6.61  5.81  0.80
Si -3.34  7.08  4.10
Si  4.77  1.09  7.36
Si  7.86  0.14  4.12
Si -4.80 -1.17 -7.39
Si -3.60 -7.06 -4.06
Si  3.85 -5.71  5.70
Si  5.17 -6.89 -2.40
Si -5.07  6.97  2.39
Si -0.79 -0.05  8.91
Si  3.65  7.08  4.10
Si  0.89  0.13 -8.91
Si -8.29  3.43  0.84
Si  8.26 -3.51 -0.87
Si -3.85  5.83 -5.71
Si  5.29  6.91  2.46
Si -4.03 -8.05 -0.82
Si  3.98  3.51 -7.39
Si -4.01 -3.59  7.36
Si  4.03  8.17  0.81
Si -5.37 -7.00 -2.46
Si  0.06 -2.29 -8.94
Si -9.16  1.12  0.80
Si -0.02  2.30  8.98
Si  9.20 -1.14 -0.76
Si -8.67 -2.40  2.39
Si  5.66 -1.03 -7.34
Si -5.66  1.15  7.33
Si  8.67 -2.45  2.46
Si  2.58 -0.11  8.98
Si  4.75 -3.46 -7.28
Si  6.52 -3.54 -5.71
Si -0.41  5.77  7.36
Si -2.67  0.02 -8.98
Si -4.76  3.49  7.29
Si  7.71 -4.77  2.44
Si -8.76  2.36 -2.46
Si -6.52  3.65  5.70
Si -7.76  4.71 -2.48
Si -7.36  5.81  0.80
Si -7.83 -4.63 -2.42
Si  1.62 -2.43  8.96
Si  8.77  2.47 -2.40
Si  0.38 -5.85 -7.39
Si  1.86  2.39 -8.94
Si  7.40 -5.82 -0.76
Si -1.67  2.37 -9.00
Si -1.37 -5.87  7.29
Si -1.82 -2.38  8.98
Si  7.42 -1.19 -5.75
Si  7.88  4.64  2.46
Si  1.36  5.91 -7.28
Si -7.43  1.23  5.76
Si  4.72 -8.21  0.77
Si -4.73  8.25 -0.76
Si -4.87 -5.90 -5.72
Si  4.91  5.89  5.76
Si -2.07  5.88 -7.28
Si  5.23  6.93 -4.08
Si -5.19  6.98 -4.06
Si -0.86  9.27  2.44
Si  2.10 -5.89  7.32
Si  5.23 -6.97  4.10
Si -5.28 -6.99  4.04
Si  0.81 -9.34 -2.48
Si  1.03  9.39 -2.48
Si -3.12 -5.71 -7.34
Si  9.51 -0.09  2.44
Si -1.08 -9.45  2.44
Si  8.61 -2.43 -4.08
Si -8.66  2.37  4.04
Si  3.42  2.25  8.96
Si -9.22 -3.37 -0.82
Si -5.67 -3.48 -7.28
Si  6.55  1.23 -7.28
Si  3.12  5.83  7.33
Si -9.56  0.03 -2.48
Si -6.56 -1.19  7.29
Si  9.21  3.49  0.81
Si -3.57  2.25  8.96
Si  5.70  3.47  7.32
Si -3.46 -2.32 -9.00
Si  3.52 -2.32 -9.00
Si  5.62 -5.87 -5.75
Si  4.32  0.02 -8.98
Si  0.53  8.14 -5.72
Si -8.79 -2.38 -4.06
Si -2.65 -9.31 -2.42
Si -5.63  5.91  5.76
Si -0.49 -8.16  5.76
Si  7.78 -4.79 -4.06
Si -4.40 -0.11  8.98
Si -7.91 -4.55  4.12
Si  2.69  9.32  2.46
Si -2.43  9.42 -2.42
Si -7.86  4.70  4.06
Si  2.48 -9.40  2.46
Si -1.22  8.20  5.65
Si  8.83  2.40  4.10
Si -7.45 -3.54 -5.71
Si -0.91 -4.55 -8.91
Si  7.45  3.65  5.70
Si  3.86 -5.71 -7.34
Si -5.78 -8.24  0.80
Si  1.01  4.63  8.91
Si  5.81  8.22 -0.76
Si  1.18 -8.28 -5.68
Si  8.01  4.62 -4.13
Si -3.86  5.83  7.33
Si -0.79  9.25 -4.06
Si -8.32 -1.03  5.70
Si  8.32  1.15 -5.71
Si 10.06  1.17 -0.87
Si -0.87  4.70 -8.98
Si -6.96  7.04 -2.46
Si  6.87 -7.13  2.46
Si -10.09 -1.25  0.84
Si  0.78 -4.79  8.98
Si  0.71 -9.34  4.06
Si  7.01  7.04 -2.46
Si -8.36 -5.87  0.81
Si -2.27 -8.22 -5.71
Si  0.92  9.38  4.06
Si  8.36  5.99 -0.82
Si  2.26  8.33  5.70
Si -1.01 -9.47 -4.06
Si -7.10 -7.13  2.46
Si  2.94 -8.13  5.76
Si  9.58 -0.11 -4.06
Si -2.60  4.57  8.98
Si -2.95  8.17 -5.75
Si  6.51 -3.53  7.33
Si -2.59 -4.73  8.91
Si -6.49  8.11  0.84
Si  2.52 -4.66 -8.98
Si  6.58  5.77 -5.68
Si  7.41 -1.19  7.29
Si  6.46 -8.19 -0.87
Si -2.72 -9.23  4.12
Si -7.42  1.23 -7.28
Si -6.51  3.65 -7.34
Si -9.66  0.02  4.06
Si  2.69  4.81 -8.91
Si -6.62 -5.85  5.65
Si  4.34 -9.31 -2.42
Si -4.30  9.32  2.46
Si  2.82  9.30 -4.13
Si  4.92  5.88 -7.28
Si -0.31 10.54 -0.87
Si -5.13  2.39 -8.94
Si -4.88 -5.89  7.32
Si -9.96  3.54 -0.76
Si  2.61 -9.42 -4.13
Si  1.42 10.49  0.80
Si -1.39 -10.50 -0.76
Si -0.90 -0.04 -10.58
Si -8.26  3.46 -5.72
Si  5.17 -2.38  8.98
Si -6.86  7.05  4.04
Si  9.99 -3.56  0.80
Si  0.28 -10.62  0.84
Si -2.51  9.50  4.12
Si  6.81 -7.11 -4.08
Si  0.94  0.06 10.62
Si  8.29 -3.48  5.76
Si  2.04 -10.48 -0.76
Si -4.51 -9.40  2.46
Si -5.37 -2.43  8.96
Si  5.32  2.37 -9.00
Si  4.55  9.42 -2.42
Si -2.05 10.51  0.77
Si -4.05 -8.13  5.76
Si  4.04  8.17 -5.75
Si  7.11  7.05  4.04
Si -6.10  0.13 -8.91
Si  9.15 -1.17  5.65
Si -9.10  5.85 -0.87
Si -9.19  1.08 -5.68
Si  6.20 -0.05  8.91
Si  9.06 -5.93  0.84
Si -2.58  0.03 10.56
Si -0.03 -2.20 10.64
Si -7.16 -7.11 -4.08
Si  0.13  2.28 -10.65
Si  2.53 -0.09 -10.61
Si  5.61 -5.87  7.29
Si -5.62  5.91 -7.28
Si 10.40 -2.32 -2.46
Si -0.48 -8.16 -7.28
Si  9.60 -4.66 -2.48
Si -7.39  5.77 -5.68
Si -9.65  4.59  2.44
Si  0.52  8.15  7.32
Si  7.36 -5.85  5.65
Si 10.86 -1.25  0.84
Si  4.26 -9.23  4.12
Si -1.78  2.37 10.58
Si 10.47  2.23  2.46
Si  4.38  4.57  8.98
Si -10.90  1.17 -0.87
Si  1.70 -2.46 -10.58
Si -10.48  2.23  2.46
Si -4.16  9.30 -4.13
Si -4.30  4.81 -8.91
Si  4.40 -4.73  8.91
Si -7.46 -3.53  7.33
Si -1.67 -2.40 -10.65
Si -3.17 -10.55  0.81
Si -9.70 -4.72  2.46
Si -4.47 -4.66 -8.98
Si  7.48  8.11  0.84
Si  4.72 -8.22 -5.71
Si  1.77  2.48 10.64
Si  7.46  3.65 -7.34
Si -10.56 -2.32 -2.46
Si  9.74  4.74 -2.42
Si -1.21  8.19 -7.39
Si  1.17 -8.27  7.36
Si -8.31 -1.03 -7.34
Si  8.31  1.15  7.33
Si -4.72  8.33  5.70
Si -7.51 -8.19 -0.87
Si  3.17 10.67 -0.82
Si -4.38 -9.42 -4.13
Si -2.28 -8.21  7.33
Si  3.81 -10.55  0.81
Si  4.48  9.50  4.12
Si  2.95 -8.14 -7.28
Si  9.49 -4.66  4.06
Si  2.27  8.33 -7.34
Si -2.96  8.17  7.29
Si  3.40 -2.32 10.58
Si  8.60 -7.00 -2.46
Si -3.49  2.23 -10.58
Si -9.58  4.57 -4.06
Si -3.82 10.67 -0.82
Si  3.50  2.23 -10.58
Si -8.68  6.91  2.46
Si  6.12  9.27  2.44
Si -5.96  9.39 -2.48
Si -3.58 -2.32 10.58
Si  5.91 -9.45  2.44
Si 10.41  2.25 -4.08
Si  9.22  3.49 -5.75
Si -9.23 -3.45  5.76
Si -8.80 -6.89 -2.40
Si  0.14  7.04 -9.00
Si  6.57  5.77  7.36
Si -0.18 -7.11  8.96
Si  4.40  0.03 10.56
Si -9.56 -4.74 -4.13
Si -10.46 -2.31  4.04
Si -6.17 -9.34 -2.48
Si -1.77  6.93  8.96
Si -1.74 -6.97 -8.94
Si 10.49 -2.31  4.04
Si -4.45 -0.09 -10.61
Si  5.77  8.20  5.65
Si -6.61 -5.85 -7.39
Si  1.78  6.99  8.98
Si -10.54  2.25 -4.08
Si  1.72 -7.00 -9.00
Si -6.93 -2.29 -8.94
Si -10.96 -3.56  0.80
Si  8.90  6.97  2.39
Si  9.66  4.82  4.12
Si -8.27  3.47  7.32
Si 11.00  3.54 -0.76
Si  8.30 -3.48 -7.28
Si -0.78  4.71 10.56
Si  0.90  4.64 -10.58
Si -5.80 -8.28 -5.68
Si  6.97  2.30  8.98
Si  7.04 -2.29 -8.94
Si -4.94 -10.48 -0.76
Si -8.16  8.22 -0.76
Si -7.00  2.30  8.98
Si -0.86 -4.62 10.62
Si -10.06 -1.22 -5.72
