500
set: 1341.00  0.00  0.00
Si -0.77  1.17  0.04
Si -1.02 -0.68  1.44
Si  1.37  1.17 -1.08
Si  2.39 -0.97 -0.41
Si -1.25 -2.46  0.04
Si  0.89 -2.45 -1.08
Si  2.48 -0.27  1.88
Si  0.97 -1.76  2.55
Si -0.55  2.94  1.44
Si -2.58  1.60 -1.51
Si  1.45  1.86  2.55
Si  0.97 -1.77 -3.36
Si  2.87  2.65 -0.41
Si -3.06 -2.03 -1.51
Si -2.83 -0.25 -2.92
Si  1.45  1.85 -3.36
Si -2.83 -0.24  3.00
Si -1.02 -0.69 -4.47
Si  2.48 -0.28 -4.03
Si  2.00 -3.90  1.88
Si -1.50 -4.30  1.44
Si -0.29  4.79  0.04
Si  2.96  3.35  1.88
Si  1.91 -4.59 -0.41
Si -2.35  3.37 -2.92
Si  4.39 -2.03 -1.51
Si -2.35  3.38  3.00
Si  1.37  1.18  4.83
Si -5.06 -0.97 -0.41
Si  1.84  4.79 -1.08
Si -4.58  2.65 -0.41
Si -4.97 -0.27  1.88
Si  4.87  1.60 -1.51
Si -2.58  1.60  4.40
Si -0.55  2.94 -4.47
Si  4.62 -0.25 -2.92
Si  0.89 -2.44  4.83
Si  4.62 -0.24  3.00
Si -3.06 -2.02  4.40
Si -2.10  5.22 -1.51
Si -3.31 -3.87 -2.92
Si -3.31 -3.87  3.00
Si -4.49  3.35  1.88
Si  2.00 -3.90 -4.03
Si  0.49 -5.38  2.55
Si  2.96  3.34 -4.03
Si -0.77  1.16 -5.87
Si  2.39 -0.96  5.51
Si -0.77  1.17  5.95
Si  0.41 -6.08 -1.08
Si -6.08  1.17 -1.08
Si -1.73 -6.08  0.04
Si  1.93  5.48  2.55
Si  0.49 -5.39 -3.36
Si  4.14 -3.87 -2.92
Si -1.50 -4.31 -4.47
Si -4.97 -0.28 -4.03
Si  4.14 -3.87  3.00
Si -1.25 -2.46 -5.87
Si  4.39 -2.02  4.40
Si -1.25 -2.45  5.95
Si  6.42 -0.68  1.44
Si  6.20 -2.46  0.04
Si  1.93  5.48 -3.36
Si -0.07  6.57  1.44
Si  2.87  2.66  5.51
Si  4.87  1.60  4.40
Si  5.10  3.37 -2.92
Si -6.00  1.86  2.55
Si  6.68  1.17  0.04
Si  5.10  3.38  3.00
Si  2.39 -0.97 -6.32
Si -3.54 -5.65 -1.51
Si -4.49  3.34 -4.03
Si -5.45 -3.90  1.88
Si  3.91 -5.65 -1.51
Si  1.84  4.80  4.83
Si -6.56 -2.45 -1.08
Si -6.00  1.85 -3.36
Si  3.34  6.28 -0.41
Si -2.10  5.23  4.40
Si -6.47 -1.76  2.55
Si -5.54 -4.59 -0.41
Si  1.37  1.16 -6.99
Si  1.91 -4.58  5.51
Si  2.87  2.65 -6.32
Si -5.60  4.79 -1.08
Si -1.02 -0.67  7.35
Si  0.89 -2.46 -6.99
Si  5.95 -4.30  1.44
Si -6.47 -1.77 -3.36
Si -4.11  6.28 -0.41
Si -5.06 -0.96  5.51
Si -0.29  4.78 -5.87
Si  5.35  5.22 -1.51
Si  6.90  2.94  1.44
Si -4.58  2.66  5.51
Si -0.29  4.79  5.95
Si  0.41 -6.07  4.83
Si -1.87  6.99 -2.92
Si -5.45 -3.90 -4.03
Si -1.87  7.00  3.00
Si  6.42 -0.69 -4.47
Si -6.08  1.18  4.83
Si  1.52 -7.52  1.88
Si -0.07  6.56 -4.47
Si -0.55  2.95  7.35
Si -3.54 -5.64  4.40
Si  3.44  6.97  1.88
Si -2.58  1.59 -7.42
Si  1.91 -4.60 -6.32
Si  3.91 -5.64  4.40
Si -5.06 -0.97 -6.32
Si  2.48 -0.27  7.79
Si -5.52  5.48  2.55
Si -4.58  2.65 -6.32
Si -4.01  6.97  1.88
Si -3.06 -2.03 -7.42
Si -1.98 -7.92  1.44
Si -8.22  1.17  0.04
Si  1.43 -8.21 -0.41
Si  5.72 -6.08  0.04
Si  0.18  8.41  0.04
Si -5.52  5.48 -3.36
Si -6.56 -2.44  4.83
Si  5.95 -4.31 -4.47
Si  7.15  4.79  0.04
Si -8.47 -0.68  1.44
Si -1.73 -6.09 -5.87
Si -8.00  2.94  1.44
Si -1.50 -4.29  7.35
Si  1.84  4.78 -6.99
Si  1.52 -7.52 -4.03
Si  5.35  5.23  4.40
Si -1.73 -6.07  5.95
Si  0.97 -1.75  8.46
Si  6.90  2.94 -4.47
Si  3.44  6.96 -4.03
Si  8.34 -2.45 -1.08
Si  1.45  1.87  8.46
Si  2.32  8.41 -1.08
Si -5.60  4.80  4.83
Si  3.66 -7.50 -2.92
Si  3.66 -7.49  3.00
Si  4.39 -2.03 -7.42
Si  6.20 -2.46 -5.87
Si -3.79 -7.50 -2.92
Si -3.79 -7.49  3.00
Si  6.20 -2.45  5.95
Si  2.00 -3.89  7.79
Si  8.82  1.17 -1.08
Si  6.68  1.16 -5.87
Si  8.42 -1.76  2.55
Si  2.96  3.36  7.79
Si -4.01  6.96 -4.03
Si  3.34  6.28  5.51
Si  6.68  1.17  5.95
Si  4.87  1.59 -7.42
Si -8.70 -2.46  0.04
Si -5.54 -4.58  5.51
Si -7.74  4.79  0.04
Si -1.62  8.84 -1.51
Si -6.95 -5.38  2.55
Si  8.42 -1.77 -3.36
Si -4.97 -0.27  7.79
Si -2.83 -0.26 -8.83
Si  0.41 -6.08 -6.99
Si -4.11  6.28  5.51
Si -2.10  5.21 -7.42
Si -1.98 -7.93 -4.47
Si -6.08  1.16 -6.99
Si -2.83 -0.24  8.91
Si  0.02 -9.00  2.55
Si -7.04 -6.08 -1.08
Si  5.58  6.99 -2.92
Si -6.95 -5.39 -3.36
Si  5.58  7.00  3.00
Si  8.90  1.86  2.55
Si  0.97 -1.77 -9.28
Si  3.34  6.27 -6.32
Si  1.45  1.85 -9.28
Si -5.54 -4.60 -6.32
Si -4.49  3.36  7.79
Si -8.47 -0.69 -4.47
Si -7.99  2.94 -4.47
Si  0.02 -9.01 -3.36
Si  8.90  1.85 -3.36
Si -2.35  3.36 -8.83
Si  5.47 -7.92  1.44
Si -5.92 -7.52  1.88
Si -0.07 -9.70 -1.08
Si  2.41  9.11  2.55
Si  6.42 -0.67  7.35
Si -4.11  6.27 -6.32
Si -2.35  3.39  8.91
Si -0.07  6.57  7.35
Si  9.84 -0.97 -0.41
Si -6.56 -2.46 -6.99
Si -5.12  8.41 -1.08
Si  7.94 -5.38  2.55
Si  8.34 -2.44  4.83
Si -2.21 -9.70  0.04
Si  4.62 -0.26 -8.83
Si -3.54 -5.66 -7.42
Si  7.38  6.57  1.44
Si  1.43 -8.20  5.51
Si  2.32  8.42  4.83
Si  7.86 -6.08 -1.08
Si  2.41  9.10 -3.36
Si  3.43 -9.27 -1.51
Si -1.62  8.85  4.40
Si  0.49 -5.38  8.46
Si -8.95 -4.30  1.44
Si  4.62 -0.24  8.91
Si -7.52  6.57  1.44
Si  9.93 -0.27  1.88
Si  3.91 -5.66 -7.42
Si  8.81  1.18  4.83
Si -5.60  4.78 -6.99
Si -8.22  1.16 -5.87
Si  7.94 -5.39 -3.36
Si -6.02 -8.21 -0.41
Si -3.31 -3.88 -8.83
Si  5.72 -6.09 -5.87
Si -4.01 -9.27 -1.51
Si -8.22  1.17  5.95
Si  5.72 -6.07  5.95
Si  2.48 -0.29 -9.94
Si  0.18  8.40 -5.87
Si -3.31 -3.86  8.91
Si  1.93  5.49  8.46
Si -10.03  1.60 -1.51
Si -5.45 -3.89  7.79
Si  0.41 10.19  1.44
Si  0.18  8.42  5.95
Si  5.95 -4.29  7.35
Si -5.92 -7.52 -4.03
Si  9.45 -3.90  1.88
Si  7.16  4.78 -5.87
Si  9.36 -4.59 -0.41
Si -1.02 -0.69 -10.38
Si  1.43 -8.22 -6.32
Si  7.15  4.79  5.95
Si -7.04 -6.07  4.83
Si  4.14 -3.88 -8.83
Si  6.90  2.95  7.35
Si  9.29  4.79 -1.08
Si  5.35  5.21 -7.42
Si -6.00  1.87  8.46
Si -3.63  9.90 -0.41
Si  4.14 -3.86  8.91
Si  5.47 -7.93 -4.47
Si  3.82  9.90 -0.41
Si 10.31  2.65 -0.41
Si -10.28 -0.25 -2.92
Si  5.83  8.84 -1.51
Si -10.28 -0.24  3.00
Si -5.04  9.11  2.55
Si  9.93 -0.28 -4.03
Si  5.10  3.36 -8.83
Si  0.50 -5.40 -9.28
Si -2.58  1.61 10.31
Si -9.80  3.37 -2.92
Si -8.70 -2.46 -5.87
Si -9.80  3.38  3.00
Si -6.48 -1.75  8.46
Si -0.55  2.93 -10.38
Si  5.10  3.39  8.91
Si -10.51 -2.03 -1.51
Si  3.43 -9.26  4.40
Si -8.70 -2.45  5.95
Si -0.07 -9.69  4.83
Si -7.74  4.78 -5.87
Si  7.38  6.56 -4.47
Si  2.00 -3.91 -9.94
Si -7.74  4.79  5.95
Si -8.95 -4.31 -4.47
Si  2.96  3.33 -9.94
Si  1.37  1.18 10.74
Si  1.52 -7.51  7.79
Si -7.52  6.56 -4.47
Si -5.04  9.10 -3.36
Si  1.93  5.47 -9.28
Si -3.06 -2.01 10.31
Si -5.13  8.42  4.83
Si -1.98 -7.92  7.35
Si -9.55  5.22 -1.51
Si  9.45 -3.90 -4.03
Si -9.18 -6.08  0.04
Si  3.44  6.98  7.79
Si -4.01 -9.26  4.40
Si  5.24 -9.70  0.04
Si  7.86 -6.07  4.83
Si  0.89 -2.44 10.74
Si -10.03  1.60  4.40
Si 10.41  3.35  1.88
Si -1.40 10.62 -2.92
Si -7.26  8.41  0.04
Si -4.97 -0.29 -9.94
Si -1.40 10.62  3.00
Si  0.41 10.18 -4.47
Si  8.34 -2.46 -6.99
Si  9.38  5.48  2.55
Si  2.32  8.41 -6.99
Si -6.00  1.85 -9.28
Si -4.01  6.98  7.79
Si -8.47 -0.67  7.35
Si -8.00  2.95  7.35
Si  8.82  1.16 -6.99
Si  9.84 -0.96  5.51
Si -3.53 10.59  1.88
Si -1.50 -4.32 -10.38
Si  1.04 -11.14  1.88
Si  7.63  8.41  0.04
Si  9.38  5.48 -3.36
Si  4.39 -2.01 10.31
Si -4.49  3.33 -9.94
Si -1.87  6.99 -8.83
Si  3.91 10.59  1.88
Si -6.47 -1.77 -9.28
Si  5.82  8.85  4.40
Si -1.87  7.01  8.91
Si -5.52  5.49  8.46
Si  4.87  1.61 10.31
Si  9.29  4.80  4.83
Si -2.21 -9.71 -5.87
Si -10.51 -2.02  4.40
Si -6.02 -8.20  5.51
Si -2.21 -9.69  5.95
Si -7.04 -6.08 -6.99
Si 10.41  3.34 -4.03
Si -1.62  8.83 -7.42
Si  2.39 -0.95 11.42
Si  9.84 -0.97 -6.32
Si -9.55  5.23  4.40
Si -2.10  5.23 10.31
Si  9.36 -4.58  5.51
Si -10.76 -3.87 -2.92
Si -10.76 -3.87  3.00
Si  8.97 -7.52  1.88
Si -0.77  1.15 -11.78
Si -3.53 10.59 -4.03
Si  0.95 -11.83 -0.41
Si -2.46 -11.54  1.44
Si  1.04 -11.15 -4.03
Si -3.63  9.91  5.51
Si  1.84  4.81 10.74
Si  3.18 -11.12 -2.92
Si  3.18 -11.11  3.00
Si -0.77  1.18 11.86
Si -7.43 -9.00  2.55
Si -0.07 -9.70 -6.99
Si  3.82  9.91  5.51
Si  7.47 -9.00  2.55
Si  3.92 10.59 -4.03
Si -6.02 -8.22 -6.32
Si -5.45 -3.91 -9.94
Si 10.31  2.66  5.51
Si -9.32  6.99 -2.92
Si -9.32  7.00  3.00
Si  0.66 12.03  0.04
Si  8.42 -1.75  8.46
Si  2.87  2.67 11.42
Si -5.12  8.41 -6.99
Si -5.52  5.47 -9.28
Si  8.88 -8.21 -0.41
Si -1.25 -2.47 -11.78
Si 11.84 -2.03 -1.51
Si  5.47 -7.92  7.35
Si  7.86 -6.08 -6.99
Si  3.66 -7.50 -8.83
Si -7.43 -9.01 -3.36
Si -1.25 -2.44 11.86
Si  7.47 -9.01 -3.36
Si -3.79 -7.50 -8.83
Si  9.36 -4.60 -6.32
Si  3.66 -7.48  8.91
Si -6.95 -5.38  8.46
Si  6.42 -0.69 -10.38
Si -3.79 -7.48  8.91
Si  7.38 -9.70 -1.08
Si -4.26 -11.12 -2.92
Si -3.54 -5.63 10.31
Si -4.26 -11.11  3.00
Si -0.07  6.55 -10.38
Si -3.63  9.89 -6.32
Si -7.52 -9.70 -1.08
Si  7.38  6.57  7.35
Si -12.03  2.65 -0.41
Si -5.93 -7.51  7.79
Si  3.82  9.89 -6.32
Si  0.41 -6.06 10.74
Si  0.02 -9.00  8.46
Si -8.95 -4.29  7.35
Si  3.43 -9.28 -7.42
Si 10.31  2.65 -6.32
Si  3.91 -5.63 10.31
Si  8.97 -7.52 -4.03
Si -9.43 -7.92  1.44
Si -7.52  6.57  7.35
Si -6.08  1.18 10.74
Si  2.80 12.04 -1.08
Si 12.07 -0.25 -2.92
Si  8.90  1.87  8.46
Si 12.07 -0.24  3.00
Si -10.98 -5.65 -1.51
Si  1.91 -4.58 11.42
Si -7.04 10.19  1.44
Si -9.18 -6.09 -5.87
Si 10.79  6.28 -0.41
Si  2.39 -0.98 -12.23
Si  5.24 -9.71 -5.87
Si -9.18 -6.07  5.95
Si 12.32  1.60 -1.51
Si  5.24 -9.69  5.95
Si -5.06 -0.95 11.42
Si -4.01 -9.28 -7.42
Si -11.94  3.35  1.88
Si -12.51 -0.97 -0.41
Si  5.58  6.99 -8.83
Si -12.42 -0.27  1.88
Si 11.59 -3.87 -2.92
Si  6.05 10.62 -2.92
Si -7.26  8.40 -5.87
Si  1.52 -7.53 -9.94
Si  9.29  4.78 -6.99
Si  0.41 10.20  7.35
Si -10.03  1.59 -7.42
Si 11.59 -3.87  3.00
Si  6.05 10.62  3.00
Si -4.58  2.67 11.42
Si -1.15 12.46 -1.51
Si -7.26  8.42  5.95
Si  3.44  6.96 -9.94
Si  9.93 -0.27  7.79
Si -2.46 -11.55 -4.47
Si  5.58  7.01  8.91
Si  8.42 -1.77 -9.28
Si  4.99 -11.54  1.44
Si  2.41  9.11  8.46
Si -0.29  4.77 -11.78
Si  5.95 -4.32 -10.38
Si  5.35  5.23 10.31
Si -9.07  8.84 -1.51
Si 11.36 -5.65 -1.51
Si -4.01  6.96 -9.94
Si  7.63  8.40 -5.87
Si -6.95 -5.40 -9.28
Si  7.94 -5.38  8.46
Si 11.84 -2.02  4.40
Si -0.29  4.80 11.86
Si  6.90  2.93 -10.38
Si -6.56 -2.44 10.74
Si  7.63  8.42  5.95
Si  2.87  2.64 -12.23
Si  9.45 -3.89  7.79
Si -0.46 -12.63  2.55
Si  5.83  8.83 -7.42
Si  0.02 -9.02 -9.28
Si  9.77  8.41 -1.08
Si -4.65 12.04 -1.08
Si  7.86 10.19  1.44
Si -6.40 -11.14  1.88
Si  8.90  1.85 -9.28
Si  1.37  1.16 -12.90
Si -10.51 -2.03 -7.42
Si -11.94  3.34 -4.03
Si -5.60  4.81 10.74
Si -12.42 -0.28 -4.03
Si 10.88  6.97  1.88
Si  0.95 -11.83  5.51
Si -0.46 -12.63 -3.36
Si  7.38 -9.69  4.83
Si -9.43 -7.93 -4.47
Si -10.99 -5.64  4.40
Si -11.55  6.28 -0.41
Si -7.04 10.18 -4.47
Si  0.89 -2.47 -12.90
Si -9.55  5.21 -7.42
Si 12.32  1.60  4.40
Si -7.52 -9.69  4.83
Si  1.91 -4.60 -12.23
Si  2.41  9.09 -9.28
Si -1.98 -7.94 -10.38
Si -5.06 -0.98 -12.23
Si -1.15 12.47  4.40
Si  2.80 12.04  4.83
Si  8.88 -8.20  5.51
Si  2.89 12.73  2.55
Si  2.96 -12.89 -1.51
Si 12.55  3.37 -2.92
Si -1.02 -0.66 13.27
Si -4.58  2.64 -12.23
Si 12.54  3.38  3.00
Si  7.94 -5.40 -9.28
Si  4.99 -11.55 -4.47
Si -0.55 -13.32 -1.08
Si -1.73 -6.09 -11.78
Si  0.66 12.02 -5.87
Si -9.07  8.85  4.40
