500
set: 978.00  0.00  0.00
Si  0.44 -1.19  0.79
Si -0.45  1.18 -0.84
Si  1.41  1.23  0.86
Si -1.42 -1.24 -0.89
Si  0.89  0.06 -2.46
Si -0.89 -0.00  2.46
Si -2.21  1.22  0.87
Si  2.26 -1.23 -0.85
Si -0.04 -2.44 -2.52
Si  0.08  2.48  2.54
Si -3.22 -1.25  0.89
Si  3.25  1.23 -0.86
Si  2.72  0.05  2.53
Si -2.75 -0.04 -2.57
Si  0.49  3.66 -0.89
Si -0.50 -3.67  0.86
Si -1.76  2.44 -2.47
Si  1.69 -2.50  2.52
Si -1.83 -2.42  2.54
Si -1.31  3.65  0.89
Si  1.87  2.47 -2.52
Si  1.34 -3.67 -0.86
Si -4.00  1.23 -0.86
Si -0.87  0.03 -4.21
Si  4.03 -1.25  0.89
Si  0.91  0.01  4.23
Si  2.35  3.71  0.79
Si -2.36 -3.72 -0.84
Si -3.08  3.67 -0.85
Si  3.13 -3.68  0.87
Si -0.07 -2.39  4.29
Si  0.07  2.45 -4.29
Si  2.65 -0.05 -4.23
Si  3.57 -2.46 -2.47
Si  3.60  2.40  2.52
Si -3.64  2.40  2.52
Si -3.67 -2.46 -2.47
Si -2.72 -0.01  4.28
Si -1.80  2.41  4.18
Si  1.77 -2.40 -4.22
Si  4.49 -0.04 -2.57
Si -4.52  0.05  2.53
Si -4.99 -1.23 -0.85
Si  5.04  1.22  0.87
Si -1.84 -2.45 -4.29
Si  1.84  2.51  4.29
Si -1.02 -4.84 -2.46
Si  0.81 -4.86  2.53
Si -0.84  4.86 -2.57
Si  1.02  4.90  2.46
Si -4.12 -3.68  0.87
Si  4.17  3.67 -0.85
Si -0.47  1.21  5.86
Si  3.54 -2.49  4.18
Si  5.82 -1.24 -0.89
Si -5.84  1.23  0.86
Si  0.45 -1.22 -5.89
Si -3.57  2.50 -4.22
Si -3.71 -2.49  4.18
Si  3.68  2.50 -4.22
Si -2.61  4.95  2.53
Si  2.58 -4.94 -2.57
Si -2.80 -4.90  2.46
Si -0.30  6.12  0.87
Si -4.90  3.71  0.79
Si  0.35 -6.13 -0.85
Si  4.89 -3.72 -0.84
Si -1.40 -1.27  5.91
Si  2.80  4.96 -2.46
Si  4.53 -0.01  4.28
Si -4.60 -0.05 -4.23
Si  1.39  1.26 -5.96
Si  1.46  6.08 -0.84
Si -1.47 -6.09  0.79
Si -2.26  1.20 -5.86
Si -5.38  2.47 -2.52
Si  2.29 -1.22  5.89
Si  5.42 -2.42  2.54
Si  5.48  2.44 -2.47
Si -2.09  6.13 -0.86
Si -0.99 -4.89  4.23
Si -0.81  4.89  4.28
Si  0.74 -4.95 -4.23
Si  1.04  4.93 -4.21
Si  2.12 -6.15  0.89
Si -5.55 -2.50  2.52
Si -3.16 -1.23 -5.88
Si -6.36  0.06 -2.46
Si  6.36 -0.00  2.46
Si  3.21  1.22  5.90
Si  6.80  1.18 -0.84
Si  0.51  3.63  5.91
Si -6.81 -1.19  0.79
Si -2.69  4.85 -4.23
Si -0.52 -3.64 -5.96
Si -5.91 -3.67 -0.86
Si -2.78 -4.87 -4.21
Si  2.62 -4.91  4.28
Si  3.31  6.13  0.86
Si  5.94  3.65  0.89
Si -3.33 -6.14 -0.89
Si -1.25  3.67 -5.88
Si  4.45 -4.90  2.46
Si  2.82  4.92  4.23
Si  1.31 -3.68  5.90
Si -4.45  4.96 -2.46
Si  4.63  4.95  2.53
Si -4.03  1.22  5.90
Si -4.66 -4.94 -2.57
Si  4.08 -1.23 -5.88
Si  5.45  2.41  4.18
Si  5.40 -2.45 -4.29
Si -5.48 -2.40 -4.22
Si -2.38 -3.69  5.86
Si -3.93  6.13  0.86
Si  2.36  3.68 -5.89
Si  3.91 -6.14 -0.89
Si -5.40  2.51  4.29
Si  3.07 -3.70 -5.86
Si -3.04  3.68  5.89
Si -6.33  0.01  4.23
Si  6.37  0.03 -4.21
Si  0.45 -1.22  7.61
Si  6.74 -3.67  0.86
Si -6.76  3.66 -0.89
Si -0.47  1.21 -7.64
Si  0.15  7.34 -2.47
Si  1.39  1.26  7.54
Si  4.98  1.20 -5.86
Si -4.95 -1.22  5.89
Si  7.68 -1.19  0.79
Si -0.22 -7.40  2.52
Si -1.40 -1.27 -7.59
Si -7.69  1.18 -0.84
Si  4.46 -4.87 -4.21
Si -4.42  4.92  4.23
Si  4.56  4.85 -4.23
Si -1.73  7.30  2.52
Si  1.66 -7.36 -2.47
Si -4.63 -4.91  4.28
Si -7.16  2.48  2.54
Si -1.95 -7.34 -2.52
Si  7.20 -2.44 -2.52
Si  2.29 -1.22 -7.62
Si  1.99  7.38  2.54
Si -5.13 -6.15  0.89
Si -2.26  1.20  7.64
Si  5.16  6.13 -0.86
Si -7.29 -2.44 -2.52
Si -4.17 -3.70 -5.86
Si  4.20  3.68  5.89
Si  7.33  2.48  2.54
Si  6.22 -4.84 -2.46
Si -6.23  4.90  2.46
Si -3.16 -1.23  7.62
Si  3.21  1.22 -7.60
Si -0.52 -3.64  7.54
Si  5.84 -1.27  5.91
Si  0.11  7.31  4.18
Si  5.77 -6.09  0.79
Si  0.51  3.63 -7.59
Si -5.78  6.08 -0.84
Si  6.40  4.86 -2.57
Si -0.14 -7.31 -4.22
Si -6.43 -4.86  2.53
Si -5.85  1.26 -5.96
Si -0.35  6.10 -5.86
Si  4.87 -3.69  5.86
Si -4.88  3.68 -5.89
Si  8.13  0.06 -2.46
Si  0.39 -6.12  5.89
Si -8.13 -0.00  2.46
Si  3.51 -7.32  2.54
Si -3.47  7.37 -2.52
Si  1.31 -3.68 -7.60
Si -1.25  3.67  7.62
Si  1.44  6.11  5.86
Si  7.73  3.66 -0.89
Si -3.73 -7.32  2.54
Si -7.75 -3.67  0.86
Si  0.60  8.55  0.89
Si -1.46 -6.12 -5.89
Si -0.57 -8.57 -0.86
Si  1.63 -7.39  4.18
Si  3.78  7.37 -2.52
Si -1.66  7.40 -4.22
Si -4.03  1.22 -7.60
Si -1.98 -7.29  4.29
Si -1.17  8.57 -0.85
Si  7.18 -2.39  4.29
Si  1.22 -8.58  0.87
Si -7.18  2.45 -4.29
Si  4.08 -1.23  7.62
Si  1.97  7.35 -4.29
Si -2.12  6.12  5.90
Si  2.17 -6.13 -5.88
Si  2.36  3.68  7.61
Si  8.65  1.23  0.86
Si -8.67 -1.24 -0.89
Si -7.31 -2.39  4.29
Si -2.38 -3.69 -7.64
Si  7.31  2.45 -4.29
Si  2.40  8.56 -0.89
Si -2.41 -8.57  0.86
Si -6.21  4.93 -4.21
Si -3.04  3.68 -7.62
Si  6.25 -4.89  4.23
Si  3.07 -3.70  7.64
Si  6.78  1.21  5.86
Si -6.79 -1.22 -5.89
Si -8.12  0.03 -4.21
Si  6.44  4.89  4.28
Si -5.94 -3.68  5.90
Si -2.99  8.61  0.79
Si -4.95 -1.22 -7.62
Si  2.98 -8.62 -0.84
Si -3.31 -6.17  5.91
Si  5.99  3.67 -5.88
Si  3.30  6.16 -5.96
Si  8.16  0.01  4.23
Si  3.49 -7.35 -4.29
Si  4.98  1.20  7.64
Si -6.51 -4.95 -4.23
Si -3.49  7.41  4.29
Si -6.89 -6.13 -0.85
Si  6.95  6.12  0.87
Si -3.75 -7.35 -4.29
Si  0.91  0.01 -9.27
Si -0.87  0.03  9.29
Si -8.55  3.65  0.89
Si  3.75  7.41  4.29
Si  8.59 -3.67 -0.86
Si  5.29 -7.34 -2.52
Si  3.93 -6.17  5.91
Si -5.25  7.38  2.54
Si -3.94  6.16 -5.96
Si  4.20  3.68 -7.62
Si -4.17 -3.70  7.64
Si  5.51  7.30  2.52
Si -0.07 -2.39 -9.21
Si  0.07  2.45  9.22
Si -5.58 -7.36 -2.47
Si -9.45  1.22  0.87
Si -2.72 -0.01 -9.22
Si  8.94 -2.50  2.52
Si  9.51 -1.23 -0.85
Si -5.85  1.26  7.54
Si  4.26  8.61  0.79
Si  2.65 -0.05  9.28
Si -9.01  2.44 -2.47
Si -4.27 -8.62 -0.84
Si  5.84 -1.27 -7.59
Si -6.74  3.63  5.91
Si  6.73 -3.64 -5.96
Si -1.84 -2.45  9.22
Si  1.84  2.51 -9.21
Si -9.07 -2.42  2.54
Si  8.06 -4.86  2.53
Si  1.77 -2.40  9.28
Si -7.54  6.12  0.87
Si -7.71  1.21  5.86
Si -4.88  3.68  7.61
Si  7.70 -1.22 -5.89
Si  9.11  2.47 -2.52
Si  0.39 -6.12 -7.62
Si -8.09  4.86 -2.57
Si  4.87 -3.69 -7.64
Si -0.35  6.10  7.64
Si -1.80  2.41 -9.32
Si  7.60 -6.13 -0.85
Si -1.46 -6.12  7.61
Si  4.83 -8.57  0.86
Si -4.85  8.56 -0.89
Si  1.44  6.11 -7.64
Si -8.27 -4.84 -2.46
Si -5.07 -6.13 -5.88
Si  8.26  4.90  2.46
Si  5.12  6.12  5.90
Si  5.27 -7.29  4.29
Si -2.12  6.12 -7.60
Si -5.27  7.35 -4.29
Si  2.17 -6.13  7.62
Si -1.10 -9.76  2.53
Si  1.07  9.76 -2.57
Si -5.62 -7.39  4.18
Si  5.59  7.40 -4.22
Si -0.70  9.85  2.53
Si  0.68 -9.84 -2.57
Si  9.01 -2.40 -4.22
Si -9.04  2.41  4.18
Si -3.57  2.50  9.28
Si -5.80  6.11  5.86
Si -6.79 -1.22  7.61
Si  4.53 -0.01 -9.22
Si  3.54 -2.49 -9.32
Si  5.79 -6.12 -5.89
Si  9.97  0.05  2.53
Si  3.30  6.16  7.54
Si  6.78  1.21 -7.64
Si  3.68  2.50  9.28
Si  7.98 -4.95 -4.23
Si  9.59  3.71  0.79
Si -10.00 -0.04 -2.57
Si -5.94 -3.68 -7.60
Si -3.31 -6.17 -7.59
Si -9.60 -3.72 -0.84
Si -3.71 -2.49 -9.32
Si -9.09 -2.45 -4.29
Si -8.05  4.89  4.28
Si -4.60 -0.05  9.28
Si  9.09  2.51  4.29
Si  5.99  3.67  7.62
Si  7.75  3.63  5.91
Si  0.66  8.57 -5.88
Si  2.54 -9.80  2.46
Si -0.60 -8.58  5.90
Si -7.76 -3.64 -5.96
Si -2.93 -9.74 -2.46
Si -1.13  8.59  5.89
Si  1.16 -8.60 -5.86
Si -8.24 -4.89  4.23
Si -0.81  4.89 -9.22
Si -2.54  9.86 -2.46
Si -3.94  6.16  7.54
Si -7.10  7.34 -2.47
Si  7.03 -7.40  2.52
Si  8.28  4.93 -4.21
Si -6.03 -8.58  0.87
Si  2.93  9.80  2.46
Si -0.99 -4.89 -9.27
Si  0.74 -4.95  9.28
Si  6.08  8.57 -0.85
Si  3.93 -6.17 -7.59
Si -8.65 -1.27  5.91
Si  8.64  1.26 -5.96
Si  1.04  4.93  9.29
Si -10.46 -1.25  0.89
Si 10.49  1.23 -0.86
Si  8.71  6.08 -0.84
Si  2.42  8.53  5.91
Si -0.78  9.75 -4.23
Si -8.72 -6.09  0.79
Si -2.43 -8.54 -5.96
Si  7.39  7.34 -2.47
Si  0.71 -9.81  4.28
Si  6.73 -3.64  7.54
Si  1.10  9.79  4.28
Si  9.89 -0.05 -4.23
Si  2.62 -4.91 -9.22
Si -6.74  3.63 -7.59
Si -1.17 -9.85 -4.23
Si -2.69  4.85  9.28
Si -7.46 -7.40  2.52
Si  2.96 -8.59  5.86
Si -2.98  8.58 -5.89
Si -9.96 -0.01  4.28
Si -2.78 -4.87  9.29
Si  2.82  4.92 -9.27
Si -6.64  8.55  0.89
Si  7.70 -1.22  7.61
Si  6.68 -8.57 -0.86
Si  6.89  6.10 -5.86
Si -6.86 -6.12  5.89
Si -7.71  1.21 -7.64
Si  4.32 -9.74 -2.46
Si  2.56 -9.77 -4.21
Si  5.40 -2.45  9.22
Si -5.40  2.51 -9.21
Si -8.50  3.67 -5.88
Si -2.51  9.82  4.23
Si -10.32  3.67 -0.85
Si -4.32  9.80  2.46
Si -5.07 -6.13  7.62
Si  5.12  6.12 -7.60
Si  8.55 -3.68  5.90
Si  7.10 -7.31 -4.22
Si -7.13  7.31  4.18
Si -5.48 -2.40  9.28
Si 10.37 -3.68  0.87
Si -2.90 -9.79  4.23
Si  5.45  2.41 -9.32
Si -0.18 11.04 -0.86
Si -0.89 -0.00 -11.04
Si  0.89  0.06 11.04
Si  0.21 -11.05  0.89
Si  2.95  9.83 -4.21
Si -4.71 -9.80  2.46
Si -1.56 -11.03 -0.85
Si  1.61 11.02  0.87
Si  7.36  7.31  4.18
Si  4.71  9.86 -2.46
Si -9.33  6.13 -0.86
Si -7.39 -7.31 -4.22
Si -6.33  0.01 -9.27
Si -9.51  1.20 -5.86
Si  0.08  2.48 -10.96
Si  9.36 -6.15  0.89
Si -2.02 11.03  0.86
Si -4.29 -8.59  5.86
Si  4.27  8.58 -5.89
Si -0.04 -2.44 10.98
Si  2.00 -11.04 -0.89
Si  6.37  0.03  9.29
Si -2.75 -0.04 10.93
Si  9.54 -1.22  5.89
Si  9.83 -4.94 -2.57
Si  2.72  0.05 -10.98
Si -9.86  4.95  2.53
Si -11.24  1.23 -0.86
Si  5.79 -6.12  7.61
Si 10.82 -2.46 -2.47
Si -7.60  6.10 -5.86
Si -1.83 -2.42 -10.96
Si -5.80  6.11 -7.64
Si 11.27 -1.25  0.89
Si -4.42  4.92 -9.27
Si  1.69 -2.50 -10.98
Si 10.85  2.40  2.52
Si  4.46 -4.87  9.29
Si  1.87  2.47 10.98
Si  7.63 -6.12  5.89
Si  4.56  4.85  9.28
Si -7.76 -3.64  7.54
Si -4.63 -4.91 -9.22
Si -10.89  2.40  2.52
Si -1.76  2.44 11.03
Si  7.75  3.63 -7.59
Si -4.83  8.53  5.91
Si -10.04 -4.90  2.46
Si -10.92 -2.46 -2.47
Si 10.04  4.96 -2.46
Si  4.82 -8.54 -5.96
Si -0.60 -8.58 -7.60
Si  0.66  8.57  7.62
Si  4.34 -9.79  4.23
Si  3.37 10.98 -0.84
Si -4.30  9.83 -4.21
Si -3.38 -10.99  0.79
Si -1.13  8.59 -7.62
Si  8.64  1.26  7.54
Si  1.16 -8.60  7.64
Si -8.65 -1.27 -7.59
Si -4.69 -9.77 -4.21
Si -7.81 -8.57 -0.86
Si  7.84  8.55  0.89
Si -2.43 -8.54  7.54
Si  2.42  8.53 -7.59
Si -3.87 10.98 -0.84
Si  3.86 -10.99  0.79
Si  4.73  9.82  4.23
Si  3.60  2.40 -10.98
Si  6.15 -9.76  2.53
Si -0.14 -7.31  9.28
Si -3.64  2.40 -10.98
Si  8.91 -7.36 -2.47
Si  9.86 -4.91  4.28
Si  4.49 -0.04 10.93
Si 10.79 -2.49  4.18
Si -6.18  9.76 -2.57
Si -9.93  4.85 -4.23
Si -8.98  7.30  2.52
Si  0.11  7.31 -9.32
Si  3.57 -2.46 11.03
Si -2.98  8.58  7.61
Si  9.61  3.68 -5.89
Si -9.62 -3.69  5.86
Si -4.52  0.05 -10.98
Si  2.96 -8.59 -7.64
Si -10.81  2.50 -4.22
Si -3.67 -2.46 11.03
Si -10.03 -4.87 -4.21
Si -1.98 -7.29 -9.21
Si  7.18 -2.39 -9.21
Si -6.86 -6.12 -7.62
Si -7.18  2.45  9.22
Si  1.97  7.35  9.22
Si  6.89  6.10  7.64
Si -11.36 -3.68  0.87
Si 10.92  2.50 -4.22
Si 10.07  4.92  4.23
Si -1.66  7.40  9.28
Si -10.95 -2.49  4.18
Si -8.50  3.67  7.62
Si -0.84  4.86 10.93
Si -7.31 -2.39 -9.21
Si  1.63 -7.39 -9.32
Si  7.31  2.45  9.22
Si  8.55 -3.68 -7.60
Si 11.74 -0.04 -2.57
Si -10.41 -1.23 -5.88
Si 11.41  3.67 -0.85
Si  0.81 -4.86 -10.98
Si -9.20 -7.34 -2.52
Si -11.77  0.05  2.53
Si -8.41  8.57 -0.85
Si -6.08 -8.60 -5.86
Si  6.11  8.59  5.89
Si 10.46  1.22  5.90
Si  8.46 -8.58  0.87
Si  6.54  9.85  2.53
