500
set: 939.00  0.00  0.00
Si -0.41  1.16 -0.82
Si  0.41 -1.16  0.83
Si  1.34  1.16  0.83
Si -1.34 -1.16 -0.82
Si -2.13  1.14  0.76
Si  0.91 -0.01 -2.41
Si  2.17 -1.14 -0.80
Si -0.89  0.00  2.46
Si -2.99 -1.17  0.79
Si  3.02  1.15 -0.80
Si -0.03 -2.31 -2.43
Si  0.04  2.29  2.45
Si  2.57  0.01  2.41
Si -2.60 -0.00 -2.45
Si -0.44 -3.47  0.80
Si  0.46  3.47 -0.80
Si -1.66  2.35 -2.40
Si -1.27  3.43  0.80
Si  1.29 -3.44 -0.83
Si  1.72  2.32 -2.42
Si  1.75 -2.30  2.44
Si -1.79 -2.31  2.44
Si  3.85 -1.14  0.79
Si -3.89  1.13 -0.81
Si -0.86 -0.03 -4.04
Si  0.85  0.01  4.08
Si -2.20 -3.46 -0.80
Si  2.22  3.47  0.80
Si -0.01 -2.32  4.00
Si -2.97  3.47 -0.83
Si  3.01 -3.47  0.78
Si  0.06  2.34 -4.05
Si -3.44  2.28  2.40
Si -3.47 -2.28 -2.41
Si -2.59 -0.02  4.06
Si  2.60 -0.01 -4.06
Si  3.46  2.35  2.42
Si  3.46 -2.34 -2.44
Si  4.27 -0.02 -2.43
Si -4.29  0.03  2.44
Si  1.67 -2.33 -4.02
Si -1.73  2.31  4.03
Si -1.78 -2.30 -4.02
Si  4.76  1.15  0.81
Si -4.77 -1.15 -0.84
Si  1.79  2.35  4.02
Si  0.80 -4.59  2.42
Si -0.94 -4.62 -2.42
Si  0.87  4.63  2.44
Si -0.82  4.65 -2.41
Si -3.93 -3.50  0.80
Si  3.95  3.50 -0.83
Si -3.43  2.29 -3.97
Si  2.51 -4.59 -2.42
Si  3.43 -2.31  4.03
Si  3.47  2.30 -4.01
Si  5.61 -1.15 -0.84
Si -5.62  1.15  0.81
Si  0.46 -1.11 -5.67
Si -0.45  1.17  5.67
Si -2.52  4.64  2.42
Si -0.33  5.76  0.79
Si -3.51 -2.32  4.05
Si  0.36 -5.78 -0.80
Si  2.63  4.63 -2.43
Si -2.61 -4.64  2.45
Si -1.27 -1.12  5.64
Si -4.71  3.47  0.78
Si -4.34  0.02 -4.05
Si  4.75 -3.47 -0.83
Si  4.34 -0.01  4.06
Si  1.32  1.15 -5.69
Si  1.32  5.78 -0.82
Si -1.32 -5.78  0.83
Si -2.18  1.14 -5.64
Si -0.87 -4.58  4.02
Si -5.18 -2.29  2.42
Si  5.17  2.34 -2.42
Si  5.19 -2.29  2.42
Si  2.14 -1.17  5.68
Si  0.81 -4.64 -4.01
Si -0.85  4.61  4.05
Si  0.88  4.64 -4.02
Si -5.21  2.34 -2.42
Si  2.10 -5.79  0.81
Si -2.11  5.79 -0.84
Si  3.00  1.14  5.67
Si -3.06 -1.16 -5.66
Si  6.09  0.03  2.44
Si -6.10 -0.02 -2.43
Si  3.06  5.77  0.83
Si -3.07 -5.78 -0.82
Si -0.48 -3.46 -5.61
Si  0.46  3.44  5.64
Si  6.49  1.13 -0.81
Si -2.60 -4.59 -4.05
Si  2.65  4.62  4.00
Si  2.54 -4.67  4.02
Si -5.63 -3.47 -0.83
Si -2.59  4.63 -4.04
Si -6.53 -1.14  0.79
Si  5.67  3.47  0.78
Si -1.26  3.45 -5.62
Si -4.26  4.60 -2.44
Si  1.27 -3.48  5.63
Si -4.32 -4.58 -2.40
Si  4.27 -4.66  2.40
Si  4.41  4.63  2.44
Si  5.13 -2.31 -4.04
Si -5.18  2.27  4.02
Si  2.18  3.48 -5.61
Si  5.20  2.27  4.02
Si  3.87 -1.20 -5.67
Si -3.92  1.16  5.64
Si -2.19 -3.49  5.64
Si  3.83 -5.80 -0.81
Si -5.25 -2.31 -4.04
Si -3.87  5.80  0.79
Si  6.03  0.02 -4.05
Si  3.01 -3.48 -5.63
Si -6.03 -0.01  4.06
Si -3.01  3.49  5.64
Si -0.09 -6.93  2.41
Si  0.06  6.93 -2.45
Si -0.46  1.16 -7.25
Si -6.43  3.50 -0.83
Si  0.39 -1.15  7.27
Si  6.44 -3.50  0.80
Si -1.28 -1.17 -7.24
Si  1.30  1.16  7.26
Si  4.29 -4.65 -3.97
Si  4.75  1.16 -5.66
Si -4.29  4.63  4.03
Si -7.36  1.15 -0.80
Si  4.33  4.61 -4.02
Si  7.39 -1.17  0.79
Si -4.76 -1.18  5.71
Si -4.39 -4.62  4.03
Si  1.61 -6.96 -2.43
Si -1.75 -6.94 -2.41
Si -1.63  6.97  2.44
Si -4.79 -5.80  0.76
Si  1.77  6.94  2.46
Si  4.83  5.79 -0.80
Si  6.90 -2.28 -2.41
Si  2.13 -1.12 -7.27
Si  3.93  3.45  5.63
Si  6.93  2.28  2.40
Si -2.15  1.19  7.28
Si -3.92 -3.49 -5.62
Si -6.91  2.35  2.42
Si -6.92 -2.34 -2.44
Si -5.97  4.63  2.44
Si -2.99 -1.12  7.29
Si  3.08  1.17 -7.25
Si  6.06 -4.58 -2.40
Si  0.07  6.92  4.06
Si  6.12  4.60 -2.44
Si  0.44  3.47 -7.23
Si -6.10 -4.66  2.40
Si -0.06 -6.95 -4.06
Si -5.55  5.79 -0.80
Si -5.62  1.16 -5.66
Si -0.42 -3.48  7.28
Si  3.43 -6.91  2.44
Si  5.58 -5.80  0.76
Si -3.44  6.91 -2.43
Si  5.62 -1.18  5.71
Si -0.40  5.78 -5.66
Si -4.70  3.46 -5.63
Si  0.34 -5.79  5.67
Si  4.70 -3.45  5.64
Si  0.53  8.07  0.76
Si -1.27  3.47  7.24
Si -0.49 -8.08 -0.80
Si  1.24 -3.46 -7.28
Si  7.78 -0.00 -2.45
Si  3.57  6.93 -2.41
Si -3.55 -6.93  2.46
Si -7.80  0.01  2.41
Si -7.37 -3.47  0.78
Si  1.19 -8.07  0.79
Si -1.23  8.07 -0.81
Si  1.79  6.91 -4.04
Si  1.38  5.81  5.64
Si  7.41  3.47 -0.83
Si  1.69 -6.95  4.06
Si -1.68  6.95 -4.05
Si -1.34 -5.79 -5.69
Si -1.81 -6.92  4.08
Si  3.84 -1.12  7.27
Si  6.87 -2.32  4.05
Si -3.85  1.17 -7.27
Si -6.91  2.30 -4.01
Si -2.22 -3.46 -7.23
Si  6.94  2.29 -3.97
Si -8.21 -1.14 -0.80
Si  8.24  1.14  0.76
Si  2.10 -5.78 -5.66
Si -6.95 -2.31  4.03
Si  2.24  3.46  7.28
Si -2.10  5.76  5.71
Si  2.25  8.09 -0.82
Si -2.25 -8.10  0.83
Si  5.99 -4.62  4.03
Si  2.94 -3.49  7.26
Si -2.96  3.50 -7.25
Si -6.05  4.61 -4.02
Si -6.09 -4.65 -3.97
Si  6.08  4.63  4.03
Si -2.96  8.08  0.81
Si  2.95 -8.08 -0.84
Si  6.46  1.16  5.64
Si -3.11 -5.77  5.67
Si  3.37 -6.92 -4.05
Si  3.12  5.82 -5.67
Si  5.67  3.46 -5.63
Si -3.37  6.93  4.06
Si -6.50 -1.20 -5.67
Si -5.67 -3.45  5.64
Si  6.51  5.80  0.79
Si  4.79  1.13  7.25
Si -7.78 -0.01 -4.06
Si  7.79 -0.02  4.06
Si -6.55 -5.80 -0.81
Si  3.51  6.95  4.08
Si -4.77 -1.19 -7.28
Si -3.52 -6.96 -4.04
Si -8.16  3.47  0.80
Si  8.18 -3.46 -0.80
Si  3.80 -5.77  5.64
Si -0.87  0.01  8.89
Si  0.89 -0.00 -8.89
Si -3.85  5.74 -5.67
Si -3.93 -3.47  7.24
Si  3.90  3.47 -7.28
Si  5.12 -6.94 -2.45
Si -5.14  6.94  2.41
Si  5.23  6.94  2.41
Si -5.26 -6.94 -2.45
Si  4.00  8.09  0.83
Si -4.00 -8.10 -0.82
Si  9.03 -1.16 -0.82
Si -9.04  1.16  0.83
Si  0.01 -2.31 -8.86
Si -0.01  2.31  8.87
Si  8.59 -2.31  2.44
Si -6.45  3.45  5.63
Si -5.59  1.13  7.25
Si  2.62  0.03  8.86
Si  6.46 -3.49 -5.62
Si -8.63 -2.30  2.44
Si -2.60 -0.03 -8.88
Si  5.60 -1.19 -7.28
Si  0.42 -5.77 -7.25
Si -8.66  2.32 -2.42
Si  1.74  2.31 -8.86
Si  7.32 -1.16 -5.66
Si -0.33  5.82  7.29
Si -1.74 -2.31  8.87
Si  4.76 -3.44 -7.25
Si -1.66  2.30 -8.90
Si -7.75  4.63 -2.43
Si  8.72  2.35 -2.40
Si  1.69 -2.31  8.89
Si -4.78  3.44  7.26
Si  7.30 -5.78 -0.82
Si -7.31  5.77  0.83
Si  1.37  5.76 -7.24
Si  7.76 -4.64  2.45
Si -7.38  1.14  5.67
Si -1.36 -5.78  7.26
Si -4.70  8.09 -0.80
Si  4.80  5.76  5.68
Si  4.73 -8.11  0.79
Si -4.83 -5.79 -5.64
Si -7.87 -4.59 -2.42
Si  7.85  4.64  2.42
Si -2.12  5.75 -7.28
Si -5.12  6.92 -4.06
Si  2.13 -5.80  7.25
Si  5.13 -6.96  4.06
Si -0.79  9.22  2.40
Si  5.26  6.92 -4.06
Si -0.91 -9.24  2.44
Si -5.25 -6.96  4.06
Si  0.80 -9.27 -2.44
Si  1.00  9.29 -2.40
Si -9.09 -3.44 -0.83
Si  9.10  3.43  0.80
Si -8.59  2.35  4.02
Si  8.60 -2.30 -4.02
Si -9.47 -0.01 -2.41
Si -3.44  2.32  8.85
Si  3.05  5.79  7.27
Si -3.12 -5.78 -7.25
Si  5.60  3.44  7.26
Si -5.62 -3.44 -7.25
Si  3.43 -2.32 -8.88
Si  5.54 -5.79 -5.64
Si  9.49  0.00  2.46
Si  8.65  2.31  4.03
Si -5.58  5.76  5.68
Si  3.50  2.33  8.89
Si  6.52  1.17 -7.27
Si -6.54 -1.12  7.27
Si -4.30 -0.00  8.86
Si -7.73  4.62  4.00
Si -3.46 -2.33 -8.93
Si  0.48  8.08 -5.64
Si -8.71 -2.33 -4.02
Si  2.54 -9.23  2.42
Si  7.77 -4.59 -4.05
Si -7.36 -3.48 -5.63
Si  7.36  3.49  5.64
Si -5.65 -8.11  0.79
Si -0.52 -8.11  5.68
Si  4.34 -0.00 -8.91
Si  5.68  8.09 -0.80
Si  7.79  4.63 -4.04
Si -2.55  9.28 -2.42
Si  2.70  9.23  2.45
Si -2.69 -9.24 -2.43
Si -1.26  8.10  5.64
Si -7.83 -4.67  4.02
Si  1.21 -8.13 -5.67
Si -6.81  6.93 -2.41
Si  8.20  1.14 -5.64
Si  6.83 -6.93  2.46
Si -0.92 -4.63 -8.86
Si  0.92  4.62  8.87
Si  3.87 -5.76 -7.27
Si  0.84 -4.61  8.89
Si  9.96  1.16 -0.82
Si -9.97 -1.16  0.83
Si -8.24 -1.17  5.68
Si -0.77  9.23 -3.97
Si -0.80  4.61 -8.93
Si -3.88  5.81  7.27
Si  6.93  6.91 -2.43
Si -2.20 -8.05 -5.67
Si -6.95 -6.91  2.44
Si  0.77 -9.25  4.03
Si  8.27  5.79 -0.84
Si  0.93  9.25  4.03
Si -8.27 -5.79  0.81
Si  2.21  8.10  5.67
Si -0.99 -9.26 -4.02
Si  6.45 -3.47  7.24
Si -2.96  8.09 -5.66
Si -2.56  4.60  8.88
Si  2.52 -4.61 -8.90
Si  9.51 -0.03 -4.04
Si  6.37 -8.10 -0.82
Si -6.47  3.47 -7.28
Si -6.38  8.09  0.83
Si  2.67  4.63 -8.86
Si -7.30  1.17 -7.25
Si  2.96 -8.11  5.71
Si -2.52  9.21  4.02
Si -2.67 -4.63  8.87
Si -9.53  0.01  4.08
Si  6.53  5.74 -5.67
Si  2.47 -9.24 -4.04
Si -6.58 -5.77  5.64
Si  4.24 -9.22 -2.41
Si -2.67 -9.26  4.00
Si  7.39 -1.12  7.29
Si -0.31 10.40 -0.83
Si  0.35 -10.40  0.78
Si -4.80 -5.75  7.28
Si  4.79  5.82 -7.27
Si  2.71  9.28 -4.05
Si  1.39 10.37  0.80
Si -4.26  9.28  2.42
Si -1.37 -10.38 -0.83
Si  4.38  9.25 -2.42
Si -8.20  3.48 -5.61
Si -0.87  0.01 -10.49
Si  0.89 -0.00 10.49
Si  5.16 -2.34  8.88
Si  8.18 -3.49  5.64
Si -9.92  3.47 -0.80
Si -4.45 -9.25  2.44
Si  9.94 -3.47  0.80
Si  5.18  2.33 -8.90
Si -5.22 -2.34  8.88
Si -5.20  2.33 -8.90
Si  6.85 -6.96 -4.04
Si -6.87  6.95  4.08
Si -3.93 -8.06  5.64
Si -2.05 10.40  0.78
Si -7.00 -6.92 -4.05
Si  2.09 -10.41 -0.83
Si  7.00  6.93  4.06
Si  3.98  8.08 -5.69
Si  6.08 -0.00  8.86
Si -0.01  2.31 -10.51
Si -9.06  1.15 -5.69
Si  9.10 -1.12  5.64
Si -6.04 -0.00 -8.91
Si  0.01 -2.31 10.52
Si  9.05 -5.78  0.83
Si -9.06  5.78 -0.82
Si  9.44 -4.62 -2.42
Si -2.60 -0.03 10.49
Si  5.57 -5.75  7.28
Si  2.62  0.03 -10.52
Si -9.50  4.63  2.44
Si -1.66  2.30 10.48
Si -5.58  5.82 -7.27
Si  4.28 -4.62  8.85
Si -10.33  2.29  2.45
Si -0.53 -8.06 -7.27
Si  1.69 -2.31 -10.48
Si  7.27 -5.77  5.67
Si 10.78 -1.16  0.83
Si 10.35 -2.31 -2.43
Si -10.79  1.16 -0.82
Si -4.29  4.62 -8.88
Si -3.10 -10.41  0.80
Si -9.57 -4.59  2.42
Si -7.26  5.82 -5.67
Si  3.12 10.41 -0.80
Si -1.74 -2.31 -10.51
Si  9.56  4.65 -2.41
Si  1.74  2.31 10.52
Si  1.18 -8.06  7.27
Si  0.51  8.12  7.28
Si  4.66 -8.09 -5.66
Si -4.32 -4.64 -8.90
Si -4.25  9.23 -4.01
Si  4.35  4.62  8.89
Si -10.40 -2.31 -2.43
Si -4.72  8.08  5.67
Si 10.42  2.29  2.45
Si  4.21 -9.26  4.05
Si  7.42  3.50 -7.25
Si -1.19  8.11 -7.27
Si -7.43 -3.49  7.26
Si  7.42  8.08  0.81
Si -4.44 -9.24 -4.02
Si -7.43 -8.08 -0.84
Si -8.24 -1.12 -7.27
Si  8.23  1.19  7.28
Si  4.45  9.29  4.02
Si  2.20  8.09 -7.25
Si -2.27 -8.09  7.27
Si -3.77 10.43 -0.83
Si  3.79 -10.44  0.80
Si -0.04 -6.91  8.86
Si -2.93  8.07  7.25
Si  0.06  6.90 -8.88
Si -3.46 -2.33 10.45
Si  5.93 -9.25  2.44
Si  9.12  3.45 -5.62
Si -9.11 -3.48  5.63
Si  3.43 -2.32 10.50
Si -6.00  9.25 -2.42
Si  9.51 -4.58  4.02
Si  3.50  2.33 -10.49
Si  2.94 -8.12 -7.28
Si -9.49  4.64 -4.02
Si -3.44  2.32 -10.53
Si -8.61  6.94  2.46
Si  4.34 -0.00 10.46
Si -6.13 -9.22 -2.41
Si  8.62 -6.94 -2.41
Si -6.51 -5.76 -7.27
Si -10.32  2.34 -4.05
Si  9.53  4.61  4.05
Si 10.37 -2.32  4.00
Si  6.50  5.81  7.27
Si -4.30 -0.00 -10.52
Si -9.57 -4.64 -4.01
Si -1.64  6.93  8.86
Si -10.39 -2.32  4.00
Si  5.66  8.08  5.67
Si  6.12  9.28  2.42
Si -10.82 -3.47  0.80
Si 10.83  3.47 -0.80
Si -5.71 -8.09 -5.66
Si -1.77 -6.94 -8.89
Si  1.68 -6.94 -8.91
Si  1.79  6.94  8.89
Si 10.43  2.34 -4.05
Si  8.16 -3.46 -7.23
Si  8.75  6.97  2.44
Si -0.80  4.61 10.45
Si -8.76 -6.96 -2.43
Si -8.14  3.46  7.28
Si -6.88  2.33  8.89
Si -9.91 -1.11 -5.67
Si  6.94  2.32  8.85
Si  0.84 -4.61 -10.49
Si  9.93  1.17  5.67
Si -8.13  8.09 -0.82
Si  8.12 -8.10  0.83
Si -4.86 -10.40 -0.80
Si -6.94 -2.32 -8.88
