500
set: 873.00  0.00  0.00
Si  0.43 -1.17  0.85
Si -0.43  1.27 -0.82
Si -1.36 -1.21 -0.82
Si  1.38  1.20  0.84
Si  2.19 -1.22 -0.83
Si -0.88 -0.00  2.50
Si  0.85 -0.00 -2.54
Si -2.25  1.22  0.87
Si  0.04  2.38  2.50
Si  3.15  1.18 -0.83
Si -3.15 -1.21  0.82
Si -0.03 -2.42 -2.50
Si -2.66 -0.01 -2.52
Si  2.69  0.00  2.50
Si  0.51  3.62 -0.80
Si -0.49 -3.63  0.83
Si -1.75  2.44 -2.46
Si  1.77 -2.43  2.52
Si -1.27  3.63  0.84
Si  1.84  2.38 -2.55
Si -1.85 -2.42  2.53
Si  1.27 -3.68 -0.87
Si -0.85 -0.00 -4.20
Si -4.01  1.19 -0.90
Si  0.90 -0.02  4.21
Si  4.06 -1.25  0.79
Si -2.31 -3.65 -0.80
Si  2.34  3.65  0.83
Si  3.04 -3.67  0.80
Si -0.02 -2.42  4.18
Si  0.01  2.44 -4.20
Si -3.14  3.65 -0.84
Si  2.65 -0.02 -4.17
Si  3.56 -2.36 -2.49
Si -2.73  0.01  4.18
Si -3.57  2.45  2.49
Si  3.67  2.43  2.53
Si -3.66 -2.47 -2.52
Si  1.74 -2.42 -4.14
Si -1.87 -2.37 -4.16
Si -4.94 -1.18 -0.88
Si  4.94  1.21  0.83
Si  1.83  2.38  4.18
Si -1.73  2.47  4.18
Si  4.51 -0.03 -2.51
Si -4.53 -0.05  2.50
Si -0.83  4.81 -2.52
Si  4.09  3.60 -0.87
Si  0.84 -4.85  2.53
Si -4.10 -3.64  0.84
Si  0.98  4.86  2.53
Si -0.99 -4.90 -2.55
Si  3.54 -2.42  4.15
Si -3.54  2.45 -4.17
Si  0.42 -1.26 -5.87
Si -5.85  1.21  0.83
Si  5.85 -1.18 -0.88
Si -3.60 -2.40  4.21
Si  2.60 -4.84 -2.50
Si -2.62  4.82  2.53
Si -0.46  1.27  5.90
Si  3.66  2.42 -4.18
Si  4.82 -3.63 -0.84
Si -4.45  0.01 -4.21
Si  2.80  4.86 -2.50
Si -0.33  6.07  0.82
Si -1.40 -1.20  5.86
Si  1.39  1.22 -5.87
Si -4.92  3.61  0.80
Si  0.32 -6.10 -0.83
Si -2.78 -4.90  2.50
Si  4.52  0.01  4.24
Si  1.47  6.07 -0.82
Si -1.45 -6.08  0.84
Si -2.19  1.24 -5.85
Si -5.36  2.44 -2.50
Si  5.34 -2.46  2.53
Si  2.25 -1.22  5.87
Si  5.43  2.44 -2.50
Si  0.84 -4.86 -4.18
Si  2.11 -6.07  0.83
Si -0.78  4.88  4.21
Si -5.45 -2.46  2.53
Si  0.95  4.91 -4.16
Si -2.11  6.10 -0.88
Si -1.00 -4.90  4.18
Si  6.26 -0.05  2.50
Si -6.28 -0.03 -2.51
Si -3.15 -1.17 -5.88
Si  3.15  1.22  5.92
Si -3.25 -6.00 -0.82
Si -6.73 -1.25  0.79
Si -0.51 -3.66 -5.84
Si  2.65 -4.84  4.17
Si  0.56  3.64  5.86
Si  5.86  3.61  0.80
Si  6.77  1.19 -0.90
Si -2.63  4.90 -4.18
Si  3.25  6.11  0.85
Si  4.39 -4.83  2.49
Si  2.80  4.86  4.18
Si -2.81 -4.84 -4.20
Si -5.96 -3.63 -0.84
Si  1.23 -3.65  5.89
Si -1.31  3.65 -5.88
Si -4.40  4.92 -2.49
Si -4.58 -4.84 -2.46
Si  4.60  4.85  2.52
Si  5.33 -2.38 -4.18
Si -5.31  2.44  4.17
Si -3.90  6.02  0.79
Si -4.05  1.26  5.87
Si  2.32  3.62 -5.84
Si  4.06 -1.20 -5.89
Si -2.27 -3.64  5.86
Si -5.46 -2.38 -4.18
Si  5.47  2.44  4.17
Si  3.95 -6.09 -0.90
Si  3.11 -3.63 -5.82
Si -3.04  3.65  5.85
Si -6.27  0.01  4.24
Si  6.33  0.01 -4.21
Si  0.43 -1.26  7.51
Si -0.44  1.22 -7.52
Si -6.69  3.60 -0.87
Si  6.69 -3.64  0.84
Si -0.13 -7.28  2.50
Si  0.17  7.27 -2.52
Si  4.42 -4.83 -4.17
Si -4.42  4.86  4.15
Si  7.64 -1.21  0.82
Si -7.64  1.18 -0.83
Si -1.37 -1.26 -7.55
Si  1.39  1.22  7.56
Si -4.96 -1.19  5.89
Si  4.96  1.22 -5.91
Si -4.56 -4.81  4.18
Si -1.70  7.23  2.50
Si  4.56  4.86 -4.14
Si  5.02  6.06 -0.83
Si  1.69 -7.31 -2.51
Si -7.12  2.43  2.53
Si  1.95  7.28  2.50
Si -2.24  1.17  7.53
Si -5.07 -6.06  0.87
Si  2.26 -1.21 -7.53
Si  7.13 -2.47 -2.52
Si -1.97 -7.28 -2.54
Si -7.23 -2.36 -2.49
Si  4.06  3.62  5.89
Si  7.22  2.45  2.49
Si -4.14 -3.63 -5.88
Si  6.21 -4.84 -2.46
Si -6.19  4.85  2.52
Si  3.18  1.21 -7.54
Si -3.17 -1.20  7.60
Si -0.56 -3.64  7.51
Si  5.83 -1.19  5.89
Si  5.71 -6.06  0.87
Si -5.83  1.22 -5.91
Si -6.39 -4.83  2.49
Si  0.54  3.64 -7.55
Si -0.18 -7.29 -4.17
Si  0.10  7.29  4.18
Si -5.77  6.06 -0.83
Si -4.86  3.65 -5.82
Si -3.45  7.25 -2.51
Si  6.39  4.92 -2.49
Si -1.25  3.63  7.53
Si  4.92 -3.63  5.85
Si -8.10  0.00  2.50
Si  3.43 -7.33  2.50
Si  0.32 -6.06  5.92
Si  1.28 -3.64 -7.55
Si -0.32  6.11 -5.88
Si  8.13 -0.01 -2.52
Si  7.65  3.65 -0.84
Si  3.68  7.28 -2.54
Si -3.70 -7.28  2.50
Si  0.58  8.49  0.87
Si  1.43  6.08  5.86
Si -1.44 -6.06 -5.87
Si -0.64 -8.50 -0.83
Si -1.63  7.29 -4.21
Si  1.69 -7.27  4.24
Si -1.19  8.47 -0.90
Si -7.12  2.42 -4.18
Si -7.75 -3.67  0.80
Si -4.04  1.18 -7.52
Si  1.97  7.28 -4.20
Si  4.01 -1.20  7.55
Si -1.92 -7.30  4.21
Si  2.27  3.64  7.51
Si  1.24 -8.53  0.79
Si  7.18 -2.40  4.21
Si  8.54  1.22  0.87
Si -7.24 -2.42  4.15
Si -2.29 -3.64 -7.55
Si  7.24  2.45 -4.17
Si -8.60 -1.22 -0.83
Si  2.13 -6.06 -5.91
Si -2.13  6.09  5.89
Si -2.40 -8.45  0.85
Si  6.23 -4.81  4.18
Si -6.22  4.86 -4.14
Si  2.40  8.55 -0.82
Si -3.12  3.59 -7.55
Si  3.10 -3.67  7.55
Si  3.24  6.02 -5.87
Si -6.37 -4.83 -4.17
Si -6.72 -1.20 -5.89
Si  3.02 -8.46 -0.88
Si  6.37  4.86  4.15
Si  6.74  1.26  5.87
Si -3.29 -6.01  5.90
Si -5.87 -3.63  5.85
Si -3.02  8.49  0.83
Si  5.93  3.65 -5.82
Si  8.06  0.01  4.18
Si  3.51 -7.27 -4.21
Si -3.44  7.29  4.24
Si -4.98 -1.19 -7.57
Si -8.14 -0.02 -4.17
Si  4.97  1.28  7.57
Si -3.68 -7.28 -4.20
Si  3.73  7.26  4.21
Si  6.89  6.02  0.79
Si -6.84 -6.09 -0.90
Si -8.45  3.65  0.83
Si  8.47 -3.65 -0.80
Si  3.91 -6.01  5.87
Si  0.93  0.01 -9.23
Si -0.90 -0.01  9.26
Si -4.07 -3.65  7.53
Si -3.90  6.08 -5.89
Si -5.27  7.28  2.50
Si  4.11  3.64 -7.55
Si  5.30 -7.29 -2.52
Si -5.49 -7.29 -2.52
Si  5.52  7.28  2.50
Si  4.20  8.47  0.84
Si -4.18 -8.49 -0.82
Si -9.41  1.20  0.84
Si -0.04 -2.44 -9.22
Si  9.43 -1.21 -0.82
Si  0.06  2.43  9.23
Si  2.68 -0.04  9.19
Si  6.65 -3.63 -5.88
Si -2.68 -0.00 -9.21
Si  8.94 -2.42  2.53
Si -8.95  2.38 -2.55
Si  5.81 -1.19 -7.57
Si -5.81  1.28  7.57
Si -6.73  3.62  5.89
Si  7.54 -6.00 -0.82
Si -9.02 -2.43  2.52
Si -7.99  4.86 -2.50
Si  9.04  2.44 -2.46
Si -4.86  3.61  7.55
Si  0.36 -6.07 -7.54
Si  1.73 -2.46  9.23
Si  4.84 -3.69 -7.55
Si  1.84  2.47 -9.20
Si -1.74  2.44 -9.23
Si -1.84 -2.37  9.23
Si  7.64 -1.17 -5.88
Si  8.01 -4.90  2.50
Si -7.53  6.11  0.85
Si -0.34  6.08  7.60
Si -7.64  1.22  5.92
Si  1.46  6.02 -7.55
Si -4.81  8.46 -0.83
Si  4.81 -8.48  0.82
Si -5.02 -6.04 -5.85
Si -1.44 -6.06  7.56
Si  8.16  4.82  2.53
Si -8.19 -4.84 -2.50
Si  5.08  6.06  5.87
Si  5.23 -7.27  4.18
Si  2.15 -6.00  7.57
Si -5.32  7.26 -4.17
Si -2.15  6.09 -7.57
Si  0.73 -9.64 -2.49
Si  5.47  7.26 -4.17
Si -5.55 -7.27  4.18
Si -0.74  9.73  2.49
Si  1.07  9.72 -2.46
Si -1.06 -9.71  2.52
Si  8.91 -2.37 -4.16
Si -3.52  2.46  9.18
Si  3.25  6.02  7.51
Si -8.96  2.38  4.18
Si  3.52 -2.43 -9.23
Si  6.75  1.18 -7.52
Si -3.66 -2.42 -9.19
Si -5.71  6.06  5.87
Si -3.26 -6.06 -7.52
Si  3.60  2.42  9.23
Si  5.77 -6.04 -5.85
Si -6.77 -1.20  7.55
Si  9.91 -0.00  2.50
Si  9.52  3.63  0.84
Si  7.98 -4.84 -4.20
Si -7.98  4.86  4.18
Si -9.05 -2.42 -4.14
Si -9.52 -3.68 -0.87
Si  5.92  3.61  7.55
Si -9.93 -0.00 -2.54
Si  4.45 -0.03 -9.25
Si  9.05  2.47  4.18
Si -4.55  0.01  9.22
Si -7.68 -3.63 -5.82
Si -5.94 -3.69 -7.55
Si -2.53  9.71 -2.50
Si -8.14 -4.84  4.17
Si  0.64  8.51 -5.85
Si -0.58 -8.50  5.87
Si  2.51 -9.73  2.53
Si  7.75  3.65  5.85
Si  2.87  9.66  2.50
Si  5.97  8.46 -0.83
Si  8.15  4.90 -4.18
Si  1.24 -8.48 -5.89
Si -5.98 -8.48  0.82
Si -2.85 -9.70 -2.50
Si -0.83  4.86 -9.19
Si -0.99 -4.81 -9.20
Si -8.54 -1.22  5.87
Si -1.22  8.54  5.87
Si  3.93 -6.10 -7.52
Si  0.78 -4.86  9.23
Si -10.36 -1.17  0.85
Si  7.08 -7.28  2.50
Si -3.95  6.08  7.55
Si  8.60  1.24 -5.85
Si 10.36  1.27 -0.82
Si -7.11  7.28 -2.54
Si  0.99  4.91  9.23
Si  0.72 -9.70  4.15
Si -1.09 -9.70 -4.14
Si -0.72  9.73 -4.17
Si  7.34  7.25 -2.51
Si -8.68 -6.07  0.83
Si -2.41 -8.54 -5.87
Si  8.68  6.10 -0.88
Si  2.37  8.55  5.90
Si  1.09  9.75  4.18
Si -2.60  4.83  9.15
Si -7.36 -7.33  2.50
Si -6.68  3.64 -7.55
Si  6.71 -3.65  7.53
Si -9.88 -0.02  4.21
Si  3.00 -8.47  5.89
Si -6.58  8.47  0.84
Si -3.00  8.50 -5.91
Si -7.60  1.21 -7.54
Si  2.79  4.83 -9.22
Si  9.93 -0.00 -4.20
Si  6.60 -8.49 -0.82
Si -2.77 -4.85  9.23
Si  2.65 -4.89 -9.27
Si  2.50 -9.65 -4.18
Si  7.62 -1.20  7.60
Si -6.87 -6.01  5.87
Si -2.49  9.72  4.17
Si  5.36 -2.45  9.15
Si -0.90 -0.01 -10.85
Si -8.47  3.62 -5.84
Si  6.89  6.08 -5.89
Si -4.29  9.71  2.53
Si -5.43 -2.45  9.15
Si  0.93  0.01 10.88
Si  5.08  6.07 -7.53
Si -10.28  3.62 -0.80
Si -5.07 -6.11  7.53
Si -5.31  2.38 -9.27
Si -2.85 -9.70  4.18
Si  4.30 -9.75 -2.52
Si 10.30 -3.63  0.83
Si  2.84  9.72 -4.20
Si  8.52 -3.64  5.86
Si -0.31 10.93 -0.84
Si -7.06  7.26  4.21
Si  0.21 -10.95  0.80
Si  7.11 -7.28 -4.20
Si  5.47  2.38 -9.27
Si  4.67  9.66 -2.55
Si  1.56 10.91  0.84
Si -4.68 -9.70  2.53
Si -1.56 -10.96 -0.87
Si -7.28 -7.27 -4.21
Si -2.10 10.89  0.80
Si  2.00 -10.91 -0.84
Si  6.24  0.01  9.22
Si  9.39 -1.20  5.86
Si -4.22 -8.48  5.86
Si -9.40  1.22 -5.87
Si  0.06  2.43 -10.88
Si -9.32  6.07 -0.82
Si  4.22  8.49 -5.87
Si -0.04 -2.44 10.89
Si  9.34 -6.08  0.84
Si  7.34  7.29  4.24
Si -6.34 -0.03 -9.25
Si -2.68 -0.00 10.90
Si -5.71  6.07 -7.53
Si -9.81  4.86  2.53
Si  2.68 -0.04 -10.93
Si  9.80 -4.90 -2.55
Si  5.72 -6.11  7.53
Si  4.44 -4.82  9.18
Si  7.50 -6.01  5.90
Si -1.74  2.44 10.88
Si -1.84 -2.37 -10.88
Si -10.74  2.38  2.50
Si  1.73 -2.46 -10.88
Si -7.54  6.02 -5.87
Si 11.21 -1.17  0.85
Si 10.76 -2.42 -2.50
Si -11.21  1.27 -0.82
Si -4.44  4.85 -9.23
Si  0.58  8.45  7.53
Si  1.84  2.47 10.91
Si  9.96  4.81 -2.52
Si -9.94 -4.85  2.53
Si  7.67  3.59 -7.55
Si -10.81 -2.42 -2.50
Si -0.57 -8.49 -7.53
Si  4.81 -8.45 -5.88
Si  4.56  4.82  9.23
Si 10.83  2.38  2.50
Si -4.56 -4.84 -9.23
Si -7.69 -3.67  7.55
Si -1.21  8.46 -7.52
Si -4.30  9.70 -4.18
Si -4.81  8.50  5.92
Si  1.19 -8.48  7.55
Si  4.36 -9.68  4.21
Si -3.31 -10.91  0.83
Si  3.34 10.90 -0.80
Si -8.53 -1.21 -7.53
Si  8.54  1.17  7.53
Si -4.70 -9.65 -4.16
Si -7.76 -8.46 -0.88
Si  4.66  9.66  4.18
Si  7.76  8.49  0.83
Si -3.87 10.88 -0.87
Si  2.39  8.50 -7.52
Si  3.87 -10.92  0.84
Si -2.40 -8.54  7.51
Si  3.52 -2.43 10.88
Si  8.82 -7.28 -2.54
Si -6.12  9.66 -2.55
Si  3.60  2.42 -10.88
Si  9.79 -4.90  4.18
Si -8.84  7.28  2.50
Si  9.47  3.65 -5.88
Si  4.45 -0.03 10.86
Si  6.11 -9.70  2.53
Si  0.14  7.28 -9.21
Si  2.98 -8.47 -7.57
Si -0.15 -7.32  9.19
Si -3.52  2.46 -10.94
Si -9.83  4.91 -4.16
Si -3.66 -2.42 10.92
Si 10.76 -2.42  4.18
Si -9.55 -3.65  5.89
Si -4.55  0.01 -10.89
Si -2.99  8.56  7.57
Si -10.77  2.44 -4.20
Si -9.95 -4.86 -4.18
Si -10.81 -2.42  4.18
Si 10.80  2.44 -4.20
Si  6.84  6.08  7.55
Si -6.86 -6.10 -7.52
Si -11.27 -3.63  0.83
Si  9.08  7.23  2.50
Si -1.72  7.29  9.22
Si  7.13 -2.42 -9.19
Si 11.30  3.62 -0.80
Si -1.90 -7.27 -9.23
Si -5.97 -8.45 -5.88
Si  1.62 -7.31 -9.25
Si 10.01  4.88  4.21
Si 11.64 -0.00 -2.54
Si  1.92  7.26  9.26
Si -8.52  3.64  7.51
Si -11.66 -0.00  2.50
Si  8.39 -8.45  0.85
Si  8.50 -3.64 -7.55
Si -9.10 -7.31 -2.51
Si -7.18  2.42  9.23
Si  0.78 -4.86 -10.88
Si  6.50  9.71  2.53
Si  5.98  8.50  5.92
Si  7.26  2.46  9.18
Si 10.33  1.27  5.90
Si -0.99 -4.81 10.91
Si -6.48 -9.75 -2.52
Si  0.99  4.91 -10.88
