500
set: 165.00  0.00  0.00
Si -0.05 -0.13 -0.24
Si  1.68  0.85  0.72
Si -1.54  1.18  0.61
Si -0.29 -2.03  0.86
Si -0.14  0.10 -2.46
Si  1.58 -2.93  0.11
Si  1.65  2.93  0.05
Si -3.44  0.14  0.13
Si -1.79  0.98  2.79
Si  1.70  1.05  2.89
Si  0.03 -1.85  3.06
Si  1.70 -1.02 -2.99
Si  0.10  2.24 -2.81
Si  3.67  0.14  0.01
Si -1.97 -1.07 -3.00
Si -1.86 -3.29 -0.11
Si -1.92  3.32  0.11
Si  3.46 -1.92  0.75
Si  3.48 -0.04 -2.17
Si -1.80  3.04 -2.10
Si -1.42 -3.12 -2.30
Si -3.54 -2.08  0.58
Si  1.85 -3.08 -2.10
Si -3.70 -0.14 -2.03
Si -0.08  2.00  3.74
Si  1.99  3.17 -2.09
Si -0.03  4.26  0.75
Si -1.92 -1.04  3.74
Si  1.93 -0.95  3.86
Si -3.43  1.80 -3.02
Si -3.44 -2.27  2.78
Si  0.08  4.07  2.97
Si  3.60 -2.07  2.93
Si  3.70  2.02 -2.95
Si -0.02 -4.05  3.40
Si  0.25 -4.33 -3.07
Si -3.59  2.10  3.33
Si  3.55  2.10  3.42
Si -0.23  2.14 -4.97
Si  1.89 -5.03  0.72
Si  3.34  4.21  0.90
Si -5.43  0.85  0.88
Si  1.91 -0.93 -5.16
Si -1.93 -1.25 -5.18
Si  5.51  1.20  0.63
Si -3.83  4.15  0.80
Si -1.93 -5.38  0.62
Si -3.48 -3.91 -2.82
Si  1.63  1.18 -5.66
Si  0.09 -2.00 -5.74
Si  0.13 -6.09  0.04
Si  5.14 -3.27  0.20
Si  5.29 -1.10 -2.87
Si  5.36  0.94  2.80
Si -1.78  5.10 -2.90
Si  3.72 -3.99 -2.84
Si -5.48  2.87  0.02
Si  1.69  5.17 -2.95
Si  5.24  3.33  0.17
Si -1.83 -5.24  2.81
Si  1.80 -5.21  2.91
Si -1.77  0.88 -5.91
Si -1.88 -0.76  5.90
Si -5.52 -2.95  0.05
Si  0.18  2.10  5.93
Si -5.15  2.93 -2.21
Si -5.50 -1.05 -2.96
Si -5.46  0.90  3.09
Si  0.18  6.37  0.19
Si -3.65  4.33  2.98
Si -0.08  6.09 -1.97
Si  1.77 -1.30  6.05
Si -5.12 -1.22  3.73
Si  3.75  4.34  3.09
Si  5.37  3.19 -2.03
Si -1.71  5.13  3.75
Si  5.33 -1.05  3.73
Si  3.59  2.05 -5.17
Si  3.58 -4.15  3.71
Si -3.48  2.14 -5.21
Si -5.43 -3.12 -2.15
Si  1.84  5.16  3.73
Si  0.05  0.00  6.66
Si  5.57 -3.13 -1.97
Si  0.06 -6.33 -2.16
Si  0.06 -4.16 -5.25
Si -3.59 -4.28  3.81
Si  3.46  2.00  5.64
Si -3.56  2.18  5.56
Si  3.55  6.00 -0.34
Si -0.14 -4.21  5.63
Si -3.69  6.11 -0.21
Si -5.09 -5.02  0.62
Si  7.18 -0.07 -0.16
Si -7.18 -0.07 -0.16
Si  3.48 -6.31 -0.21
Si  3.44 -3.90 -5.01
Si  1.73  4.84 -5.16
Si -1.91  6.99  0.74
Si  6.95 -2.04  0.81
Si -0.12  4.07 -6.09
Si -3.63 -6.42 -0.34
Si -1.58 -2.88  6.62
Si -5.22 -0.81 -5.19
Si  3.63 -1.98 -6.15
Si -3.71 -2.15 -6.08
Si -1.72  2.90  6.64
Si  7.08  0.12 -2.37
Si -3.77 -4.08 -5.03
Si  3.40  0.07  6.69
Si  3.57 -6.18 -2.40
Si -3.61 -6.11 -2.54
Si  5.47 -1.25 -5.07
Si -1.57  5.39 -5.09
Si  1.95  3.34  6.53
Si -3.61  6.24 -2.40
Si  1.72 -3.43  6.56
Si  5.27 -5.43  0.74
Si -7.28  0.12 -2.37
Si  3.58  6.31 -2.54
Si -3.74  0.25  6.71
Si  2.09  7.40  0.62
Si -7.41 -2.04  0.81
Si -1.90 -4.97 -5.82
Si  5.36  0.82 -5.73
Si -5.36  5.00 -2.98
Si -3.37  4.30 -5.75
Si -3.38 -3.98  5.97
Si -5.30 -5.21  2.81
Si  5.27 -0.82  5.90
Si -1.81  7.18  2.92
Si  1.88  7.21  2.81
Si -7.14 -1.93  3.02
Si -1.82  4.97  5.99
Si  3.70  4.13 -5.80
Si -1.77 -7.25 -2.98
Si -7.13  2.32 -2.90
Si -5.33 -1.12  5.92
Si  5.37 -5.24  2.92
Si  1.85 -5.27 -5.80
Si  7.22 -1.93  3.02
Si  5.42  5.17 -2.98
Si -5.49  1.28 -5.78
Si  3.69 -4.14  5.92
Si  1.71  1.08 -7.87
Si  7.23  2.32 -2.90
Si -0.12 -2.21 -7.90
Si  1.82 -7.42 -2.98
Si  1.68  5.44  5.93
Si -1.46 -7.24  3.64
Si  7.05  1.94  3.82
Si  0.02 -8.23  0.69
Si -1.45  1.03 -8.08
Si -7.15  4.19  0.69
Si  1.70 -7.19  3.85
Si  7.21  4.19  0.69
Si -7.31  1.94  3.82
Si -5.48  5.23  3.85
Si -6.99  3.92  2.86
Si  5.72  5.18  3.64
Si  0.04  8.11 -2.85
Si  5.26  7.04  0.62
Si -7.14 -4.32 -2.85
Si  7.37  3.92  2.86
Si  0.19 -0.23 -8.86
Si  0.03 -0.17  8.86
Si  5.25  2.91  6.53
Si  7.22 -4.32 -2.85
Si  6.96  2.18 -5.08
Si -7.14 -4.12  3.34
Si  0.05  8.30  3.34
Si -8.85  1.20  0.63
Si  3.35 -8.27  0.80
Si  7.22 -4.12  3.34
Si  0.18 -8.50  2.86
Si -1.66 -7.14 -5.17
Si -5.40  5.01 -5.15
Si  8.92  0.85  0.88
Si -5.28  3.22  6.55
Si  5.51 -2.99  6.54
Si -3.84 -8.21  0.90
Si -5.42 -3.26  6.57
Si -5.29  7.39  0.72
Si -0.24 -6.13  6.75
Si  1.78  6.97 -5.67
Si -0.23  6.33  6.64
Si  1.77 -7.41 -5.15
Si  5.53  5.28 -5.17
Si -7.40  2.18 -5.08
Si -7.00 -6.05  0.19
Si  5.31 -4.91 -5.81
Si -3.42  0.19 -8.63
Si -3.62 -2.05 -8.30
Si -1.94 -9.09  0.17
Si -6.99 -2.05 -5.79
Si -3.43 -8.08  3.09
Si  3.53 -8.09  2.98
Si  8.84 -2.95  0.05
Si  8.88  2.87  0.02
Si -0.00  4.22 -8.32
Si  3.60 -2.05 -8.39
Si  1.73 -3.25 -8.62
Si -2.03  9.15  0.20
Si  5.35  7.18  2.81
Si  5.40  5.03  5.80
Si  8.86 -1.05 -2.96
Si  3.54  0.18 -8.74
Si  1.67  3.10  8.76
Si  1.68 -3.10  8.77
Si -5.37  7.21  2.91
Si -8.99  0.94  2.80
Si  8.90  0.90  3.09
Si  1.62 -7.10  6.05
Si -7.04  6.33  0.04
Si  1.82  3.06 -8.81
Si -7.10  2.15  5.98
Si  7.36 -6.05  0.19
Si -3.47  0.16  8.88
Si -8.79 -3.13 -1.97
Si -5.41 -5.45 -5.67
Si -1.79 -3.17  8.82
Si -3.46  8.43 -2.84
Si  5.40 -7.32 -2.90
Si -1.90  3.05  8.85
Si -3.58  3.99 -7.91
Si -5.49 -7.25 -2.95
Si -1.78 -7.39  5.80
Si -9.07 -1.10 -2.87
Si -1.82  3.03 -8.91
Si  7.37 -2.05 -5.79
Si -3.49 -6.13  6.51
Si -7.12  6.09 -2.16
Si  1.67  9.47  0.05
Si -7.12 -0.01  6.47
Si -1.81 -9.24 -2.03
Si -1.61  9.29 -1.97
Si  3.69  0.24  8.89
Si  7.26  2.15  5.98
Si -1.81 -3.21 -8.92
Si -5.33  1.01 -7.98
Si -7.12 -4.15 -5.06
Si  7.31  6.33  0.04
Si  3.60  8.14  3.81
Si -1.87  7.51 -5.81
Si  8.92 -3.12 -2.15
Si  3.59  4.12 -8.01
Si  1.69 -9.55  0.02
Si  0.06  8.28 -5.06
Si -1.84 -5.20 -7.98
Si  3.71  8.51 -2.82
Si -9.11  3.33  0.17
Si  7.23 -0.01  6.47
Si  7.24  6.09 -2.16
Si  7.09 -6.33 -1.97
Si  1.75  9.31 -2.15
Si -3.60  6.20  6.55
Si  5.48  0.98 -7.96
Si  3.58 -6.22  6.55
Si -8.98  3.19 -2.03
Si -3.60  8.27  3.71
Si  7.24 -4.15 -5.06
Si -5.34 -7.26  3.73
Si  3.69  6.29  6.51
Si  1.74  1.03  9.57
Si -9.21 -3.27  0.20
Si -5.56  5.33  6.05
Si -9.02 -1.05  3.73
Si -7.27 -6.33 -1.97
Si  2.06 -5.37 -7.99
Si  5.47 -7.29  3.75
Si  9.21  2.93 -2.21
Si -1.62  1.02  9.75
Si  7.14 -4.13  5.56
Si  2.02 -9.49 -2.21
Si -0.04  8.29  5.56
Si -0.10 -2.18  9.75
Si -7.22 -4.13  5.56
Si  9.24 -1.22  3.73
Si  3.56 -1.96  9.17
Si -3.62 -2.03  9.32
Si -0.11  4.28  9.35
Si  7.15  4.14 -6.16
Si -8.89 -1.25 -5.07
Si  3.42  8.34 -5.03
Si -0.04 -8.29 -6.16
Si  5.60 -7.04 -5.09
Si -7.21  4.14 -6.16
Si -0.23 10.38  0.81
Si  0.04 -10.10 -2.90
Si  5.25 -9.11  0.11
Si  9.13 -0.81 -5.19
Si  9.27 -5.02  0.62
Si -3.73  8.52 -5.01
Si  5.32  9.13 -0.11
Si  5.20  3.08  8.72
Si -9.09 -5.43  0.74
Si  0.05 -6.08 -8.70
Si -5.32  7.15 -5.80
Si  3.81 -8.13 -5.75
Si  8.87  1.28 -5.78
Si -5.45 -7.58 -5.16
Si -10.69  0.14  0.01
Si -5.50 -6.99  5.93
Si -8.99  0.82 -5.73
Si -3.48 -8.29 -5.80
Si -8.63  5.18  3.64
Si  9.00  5.00 -2.98
Si  5.41 -3.10  8.73
Si -5.24 -5.10 -7.86
Si  5.38  3.03 -8.80
Si -8.94  5.17 -2.98
Si -3.49  8.28  5.92
Si  0.09 -6.03  8.91
Si -5.37 -3.27  8.73
Si -5.49  3.13  8.73
Si  0.04  6.42 -8.65
Si -5.29  3.06 -8.91
Si -8.99 -5.24  2.92
Si -5.19 -9.26 -2.09
Si  9.06 -5.21  2.81
Si  5.28  7.45 -5.82
Si -5.47 -3.10 -8.83
Si  9.03 -1.12  5.92
Si 10.66 -0.14 -2.03
Si -9.09 -0.82  5.90
Si  7.14 -8.17  0.75
Si  5.27 -5.20 -7.98
Si  7.10 -2.15 -7.97
Si  5.40 -3.17 -8.93
Si  1.94  7.32 -7.86
Si  0.04 10.49  3.02
Si 10.92  0.14  0.13
Si -7.21 -8.17  0.75
Si -1.91  7.23 -7.98
Si  0.04  6.47  8.82
Si  5.35 -7.45  5.99
Si -5.33  9.34 -2.10
Si  3.64 10.34  0.58
Si -5.53 -9.49  0.05
Si -7.26 -2.15 -7.97
Si  8.88  5.23  3.85
Si  5.37 -9.38 -2.10
Si -5.59  9.49  0.11
Si  3.80  8.45  5.97
Si  0.03  0.04 -11.02
Si 10.82 -2.08  0.58
Si -3.71  4.11  9.55
Si  3.47  4.01  9.69
Si -5.34  1.07  9.61
Si  1.98 -5.11  9.63
Si  5.75  1.03  9.41
Si -6.92  8.09 -3.07
Si -6.93 -0.18  8.65
Si -10.88 -0.04 -2.17
Si -10.90 -1.92  0.75
Si -1.82 -5.23  9.62
Si -0.14 -10.48  3.82
Si -3.72 10.51  0.75
Si  3.74 10.15  2.78
Si  3.74  5.95  8.70
Si  5.77  9.30 -2.30
Si -10.66  2.02 -2.95
Si -7.09 -0.09 -8.75
Si -3.48  6.17  8.77
Si -3.43  6.00 -8.94
Si -10.76 -2.07  2.93
Si -3.57 10.36  2.93
Si -3.57 -6.22 -8.79
Si  3.61  6.20 -8.79
Si 10.53  4.15  0.80
Si -3.48 -10.40 -2.95
Si -7.10 -8.36  2.97
Si -1.68 -11.22  0.63
Si -3.44 -6.47  8.70
Si  6.94 -6.09  6.64
Si  7.27 -0.09 -8.75
Si  3.69 -6.25  8.77
Si  7.42 -0.18  8.65
Si -8.85 -2.99  6.54
Si  7.44  8.09 -3.07
Si  1.77  9.17  6.57
Si  3.59 -10.32  3.33
Si  3.36  0.00 -10.92
Si -0.23 -10.24 -5.08
Si  1.90 -9.20  6.55
Si  7.26 -8.36  2.97
Si -3.63 -10.32  3.42
Si  1.75 -3.30 -10.84
Si 10.77  2.10  3.33
Si -3.83  0.06 -10.81
Si 10.93  1.80 -3.02
Si  8.95  5.01 -5.15
Si 10.92 -2.27  2.78
Si -8.83  5.28 -5.17
Si -9.10  7.04  0.62
Si -10.81  2.10  3.42
Si  7.17  8.37  3.40
Si  6.94  6.29  6.75
Si -7.19  8.37  3.40
Si  8.94 -3.26  6.57
Si -9.11  2.91  6.53
Si -1.67 -2.95 -11.09
Si -1.66  9.43  6.54
Si  1.90  3.24 -10.99
Si  3.75 -6.42 -8.94
Si -1.91  2.89 -11.10
Si  9.08  3.22  6.55
Si  3.74 -10.62 -3.02
Si -7.42 -6.09  6.64
Si -1.94 -9.52  6.53
Si -10.64 -3.99 -2.84
Si  9.07  7.39  0.72
Si -1.93 -0.82 -11.54
Si  1.74 -11.57  0.88
Si -7.12  4.15 -8.38
Si  0.05 -8.27 -8.38
Si -8.96  5.03  5.80
Si -5.11  7.05 -7.99
Si  7.23  4.15 -8.38
Si -9.05 -4.91 -5.81
Si -11.02  4.21  0.90
Si  8.87 -7.25 -2.95
Si -1.88 11.32 -2.87
Si -7.42  6.29  6.75
Si -9.00  7.18  2.81
Si -10.61  4.34  3.09
Si  1.68 11.37 -2.96
Si  0.14  2.18 -11.68
Si  0.19 10.37 -5.79
Si  8.99  7.21  2.91
Si  0.08 -10.27  5.98
Si  1.71 -1.28 -11.70
Si 10.88 -3.91 -2.82
Si  8.95 -5.45 -5.67
Si -8.96 -7.32 -2.90
Si 10.71  4.33  2.98
Si  8.80  5.33  6.05
Si  1.65  1.20 11.77
Si -1.82 -11.48  2.80
Si -8.88  0.98 -7.96
Si  2.06 11.20  3.73
Si  5.35  7.22 -7.98
Si  2.02  7.08  9.51
Si  1.72 -11.52  3.09
Si  0.17 -1.90 11.91
Si -5.16 -5.34  9.51
Si -3.60 -8.30 -8.01
Si  9.03  1.01 -7.98
Si -8.89 -7.29  3.75
Si -7.11  8.26 -5.25
Si  3.70 -10.29 -5.21
Si  3.60 -8.43 -7.91
Si -1.84 11.37  3.73
Si -10.77  2.05 -5.17
Si -7.13 -2.18  9.56
Si -2.04  0.88 11.92
Si  3.54 -2.27 11.38
Si -10.78 -4.15  3.71
Si -3.60 -10.38 -5.17
Si  9.01 -7.26  3.73
Si  7.25  8.26 -5.25
Si  5.36 -5.09  9.68
Si  7.23 -2.18  9.56
Si 10.77 -4.28  3.81
Si  7.05  8.22  5.63
Si  3.62 -10.25  5.56
Si 10.88  2.14 -5.21
Si -0.01  4.08 11.55
Si -3.70 -2.16 11.51
Si -1.81  7.34  9.68
Si 10.67  6.11 -0.21
Si -8.75 -7.04 -5.09
Si 10.80  2.18  5.56
Si -0.15 -8.17  9.25
Si -5.24 -9.08  6.53
Si -7.31  8.22  5.63
Si  0.00 12.36 -0.16
Si -10.80  6.00 -0.34
Si  7.04  4.25  9.25
Si -1.70 11.17 -5.07
Si -5.46  8.99  6.56
Si 10.59 -4.08 -5.03
Si -3.73 -10.42  5.64
Si  3.47 10.27 -6.08
Si -10.90  2.00  5.64
Si 10.64 -2.15 -6.08
Si -0.00 -12.49 -0.16
Si  6.89 10.39  0.86
Si 10.73 -6.42 -0.34
Si  5.28  2.84 -10.98
Si  7.05 -8.36 -6.09
Si -10.73 -1.98 -6.15
Si -0.11 -12.30 -2.37
Si -0.28  6.24 -10.86
Si -7.32  4.25  9.25
Si -0.22 -6.19 -10.90
Si  2.08 -0.87 12.34
Si 10.61  0.25  6.71
Si -10.87 -6.31 -0.21
Si  3.50  1.96 -11.93
