500
set: 680.00  0.00  0.00
Si  0.81  0.09 -0.85
Si  0.10  0.98  1.07
Si -1.04 -1.32 -0.61
Si  1.55 -0.45  1.82
Si -1.56  0.94 -1.93
Si  2.24 -1.65 -0.18
Si -2.69 -0.34  0.69
Si  0.76 -1.67 -2.55
Si -0.24  0.37  3.14
Si  1.72  2.62 -0.63
Si -1.27  3.08 -0.18
Si -2.13 -1.15 -2.53
Si  1.44  1.29 -2.98
Si  3.50  0.80  0.60
Si -2.48  2.18  1.66
Si -0.10 -3.38  1.78
Si -1.69 -3.47  0.03
Si -0.31  3.31  2.02
Si  1.14 -3.57 -1.12
Si -1.01 -1.89  3.30
Si  2.05 -3.09  1.87
Si -3.88 -1.29 -1.04
Si  3.39 -1.40 -2.22
Si -3.62  2.16 -0.83
Si -0.47  0.81 -4.21
Si -3.11  0.25  3.04
Si  3.79  1.34 -1.89
Si -0.35  3.12 -3.24
Si -2.99 -2.37  2.51
Si -1.95 -3.37 -2.42
Si  1.85  0.29  4.37
Si -2.78  2.44 -3.08
Si  1.32 -2.68  3.83
Si  1.45  4.53  1.21
Si  4.76 -1.23  0.89
Si  0.92  2.83  4.03
Si  3.06  2.71  2.89
Si -0.52 -2.51 -4.38
Si  0.29  4.89 -1.33
Si  2.43 -1.24 -4.34
Si -0.46 -5.07 -1.33
Si  1.24 -3.76 -3.47
Si -5.15 -1.23  0.89
Si -1.79  2.52  4.54
Si -2.99  4.58  0.98
Si -3.03  4.47 -1.36
Si  0.70 -5.44  1.21
Si  4.50  0.31  3.37
Si  3.51 -3.51 -2.85
Si  4.93  2.88  0.69
Si -0.37  0.51  5.72
Si -4.98  2.88  0.69
Si  1.74  0.59 -5.56
Si  4.70 -3.43 -0.94
Si  2.42  3.56 -4.13
Si  3.72  4.71 -0.04
Si -4.73  0.92 -3.58
Si -3.73  3.41  3.27
Si  2.97 -5.25 -0.04
Si -4.29 -1.96 -3.78
Si  3.87  4.23 -2.26
Si -0.41 -2.81  5.55
Si  0.06 -4.83  3.97
Si  6.03 -1.29 -1.04
Si  4.84 -3.61  1.75
Si -5.21 -3.43 -0.94
Si  2.54 -1.54  5.59
Si  2.89 -5.13  2.31
Si  4.12 -2.54  4.11
Si  5.18  0.92 -3.58
Si -1.90  2.82 -5.39
Si -5.41  0.31  3.37
Si -5.07 -3.61  1.75
Si  3.64  4.83  2.31
Si -6.41  0.80  0.60
Si -6.12  1.34 -1.89
Si  0.81  5.14  3.97
Si -0.94  6.49  0.03
Si -3.74 -5.38  0.98
Si -3.69 -4.32 -3.44
Si  1.21 -2.38 -6.10
Si  6.29  2.16 -0.83
Si  0.82  3.13 -5.90
Si  1.89  6.39 -1.12
Si -3.78 -5.49 -1.36
Si  4.35  1.94  4.88
Si -1.73 -4.77 -4.56
Si -0.35  0.67 -6.79
Si  0.64  6.58  1.78
Si  3.12 -5.74 -2.26
Si -1.11 -1.59 -6.63
Si  4.24  2.24 -5.06
Si -0.98  5.20 -4.56
Si -6.52 -1.40 -2.22
Si -1.05 -6.65  2.02
Si  5.61 -1.96 -3.78
Si -4.07 -4.28  3.88
Si  2.53  3.26  5.80
Si -1.20  6.59 -2.42
Si -2.02 -6.88 -0.18
Si  1.54  0.99  6.95
Si -2.94  5.64 -3.44
Si  7.22 -0.34  0.69
Si -0.24  2.83  6.69
Si -0.88  4.90  5.37
Si  1.99  6.20 -3.47
Si -4.43  4.07 -4.30
Si  4.01 -2.24 -5.82
Si  3.30 -4.77  4.63
Si  0.97 -7.34 -0.63
Si  6.80  0.25  3.04
Si -0.05 -4.53 -5.96
Si -5.79 -2.54  4.11
Si -1.62 -5.07  5.37
Si -3.22  0.55 -6.90
Si  3.19 -4.47 -5.30
Si -3.32  5.68  3.88
Si -5.56  1.94  4.88
Si -1.10 -6.84 -3.24
Si  2.80  6.87  1.87
Si -2.67  2.14  6.85
Si  0.87 -1.97  7.38
Si -6.04  4.23 -2.26
Si  6.92 -2.37  2.51
Si  1.34 -4.06  6.46
Si -4.19 -2.26  6.15
Si  6.18  3.41  3.27
Si -6.19  4.71 -0.04
Si  1.67 -6.40 -4.13
Si -2.02 -1.45  7.40
Si -6.39 -3.51 -2.85
Si -7.67 -1.65 -0.18
Si -4.62  0.62  6.35
Si -4.32  6.35  1.75
Si -6.85  2.71  2.89
Si  4.39  0.61 -6.56
Si -5.67  2.24 -5.06
Si  7.43  2.18  1.66
Si -4.46  6.53 -0.94
Si -4.33  3.77  5.63
Si  4.05  5.20  4.63
Si  5.47  4.07 -4.30
Si  0.70  5.44 -5.96
Si  7.13  2.44 -3.08
Si  2.31 -7.26  2.89
Si -1.46  0.64  8.00
Si  0.17 -7.14  4.03
Si  2.96  3.01 -7.04
Si  5.84 -4.28  3.88
Si  4.26  6.46 -2.85
Si  1.45 -0.15 -8.12
Si -6.27  4.83  2.31
Si  6.17 -5.38  0.98
Si  7.78 -1.15 -2.53
Si  4.18 -7.09  0.69
Si  5.29  0.62  6.35
Si -2.24  7.59  2.51
Si -3.10 -2.07 -7.42
Si  6.88  4.47 -1.36
Si  6.22 -4.32 -3.44
Si  6.13 -5.49 -1.36
Si  6.92  4.58  0.98
Si -4.18 -3.98 -6.05
Si  2.06  7.29  3.83
Si -3.83  3.71 -6.67
Si  5.45  6.53 -0.94
Si -8.35 -0.45  1.82
Si -1.84 -3.67  7.51
Si -4.47 -6.56  3.27
Si -5.90 -2.24 -5.82
Si -3.22 -7.79  1.66
Si -5.51  0.61 -6.56
Si  3.94  5.50 -5.30
Si  8.35  0.94 -1.93
Si -8.19  2.62 -0.63
Si  3.49 -1.70  7.71
Si  5.58  6.35  1.75
Si -7.86 -3.09  1.87
Si  0.23  7.46 -4.38
Si -0.29  8.64 -0.61
Si  4.73 -5.90 -4.30
Si  5.72 -2.26  6.15
Si -0.41  3.61 -7.91
Si -6.94 -5.25 -0.04
Si -0.21 -3.08 -8.15
Si -0.26  8.07  3.30
Si -3.58 -4.62  6.49
Si -7.48 -1.24 -4.34
Si  1.94 -2.79 -8.06
Si  5.58  3.77  5.63
Si  1.51  8.29 -2.55
Si  3.62 -3.81  7.08
Si  2.99  8.31 -0.18
Si -3.53 -7.52 -3.08
Si -2.83  5.34  6.49
Si  8.22 -3.47  0.03
Si -5.18 -5.90 -4.30
Si -0.01  1.28 -8.87
Si  7.96 -3.37 -2.42
Si -4.37 -7.80 -0.83
Si  8.87 -1.32 -0.61
Si  2.09  5.90  6.46
Si -7.02 -5.13  2.31
Si  3.90  1.04  8.05
Si -2.58  2.48 -8.27
Si  0.07 -6.84 -5.90
Si -5.65  6.46 -2.85
Si  1.78 -6.70  5.80
Si  0.33  7.16  5.55
Si -0.65 -8.99  1.07
Si -8.47  1.29 -2.98
Si -2.54 -7.44  4.54
Si -5.86  5.20  4.63
Si  5.43 -6.56  3.27
Si  0.92 -0.21  9.08
Si -9.10  0.09 -0.85
Si -5.73 -7.09  0.69
Si -6.79 -5.74 -2.26
Si -3.43  5.98 -6.05
Si  8.64  3.08 -0.18
Si -8.06  0.29  4.37
Si  0.69 -8.68 -2.98
Si  5.73 -3.98 -6.05
Si -7.49  3.56 -4.13
Si -3.13  8.67 -1.04
Si -1.39  8.82 -2.53
Si -2.65 -7.14 -5.39
Si  3.04 -8.62 -1.89
Si -6.61 -4.77  4.63
Si -7.37 -1.54  5.59
Si  2.78 -4.83 -7.62
Si  3.98  3.93  7.67
Si -0.94 -1.62  9.32
Si -2.31 -9.02 -1.93
Si  6.59  5.68  3.88
Si -8.76 -3.57 -1.12
Si -3.55  8.01 -3.78
Si  2.75 -9.17  0.60
Si  6.97  5.64 -3.44
Si  5.54 -7.80 -0.83
Si  6.69  0.55 -6.90
Si  8.11  2.52  4.54
Si -9.15 -1.67 -2.55
Si -6.71 -4.47 -5.30
Si -2.80 -0.04 -9.24
Si  4.83 -6.20  5.63
Si -8.46  4.53  1.21
Si  8.90 -1.89  3.30
Si -5.96  5.50 -5.30
Si  1.25 -3.87  8.81
Si  6.07  3.71 -6.67
Si  1.83  2.33  9.30
Si  0.40  4.59  8.60
Si  4.13  8.56 -2.22
Si -8.59 -2.68  3.83
Si  4.87  7.42  4.11
Si -3.77 -1.59  8.89
Si -5.08 -6.20  5.63
Si -4.40  8.74  0.89
Si -0.99 -7.14  6.69
Si -1.94  9.62  0.69
Si  3.53  5.13 -7.62
Si -1.09  6.29  7.51
Si -5.04  7.42  4.11
Si  3.49 -7.73 -5.06
Si -8.17  0.59 -5.56
Si -9.81  0.98  1.07
Si  0.06 -9.88 -0.85
Si  1.96  7.59 -6.10
Si -3.51  1.86  9.11
Si -7.38  3.26  5.80
Si  2.30  9.52  1.82
Si -2.92  4.17  8.57
Si  3.39  1.09 -9.33
Si  4.73 -3.31 -8.18
Si  8.01  2.82 -5.39
Si  3.60 -8.03  4.88
Si  1.34  4.83 -8.73
Si -7.11  6.87  1.87
Si -8.67 -3.76 -3.47
Si -6.01  1.04  8.05
Si 10.01  0.98  1.07
Si  2.21 -6.96 -7.04
Si  0.59 -5.14 -8.73
Si -0.99 -9.60  3.14
Si -1.22 -9.15 -4.21
Si -0.35 -5.37  8.60
Si  9.67  0.37  3.14
Si -6.42 -1.70  7.71
Si  6.33 -4.62  6.49
Si  7.24  2.14  6.85
Si  1.56 10.05 -0.85
Si -6.29 -3.81  7.08
Si -1.16  2.78  9.75
Si -1.16 -6.35 -7.91
Si  4.66 -0.93 -9.05
Si  2.35 -1.95  9.75
Si -4.58 -6.26 -6.67
Si -5.18 -3.31 -8.18
Si -8.98  2.83  4.03
Si  3.18  8.73 -4.34
Si  3.23 -6.04  7.67
Si  6.81 -2.07 -7.42
Si -8.02  6.39 -1.12
Si  6.38 -7.52 -3.08
Si -6.95  3.01 -7.04
Si  4.37  6.16  7.08
Si  9.60  3.31  2.02
Si  9.43  0.81 -4.21
Si  5.51  8.74  0.89
Si  6.68 -7.79  1.66
Si  2.13 -1.35 -10.11
Si -3.44  7.71  6.15
Si -5.93  3.93  7.67
Si  7.89 -6.88 -0.18
Si -5.25 -0.93 -9.05
Si  8.18 -4.77 -4.56
Si  9.80 -3.38  1.78
Si -1.80 -3.17 -9.91
Si -5.77  8.56 -2.22
Si  9.56  3.12 -3.24
Si  5.33 -6.26 -6.67
Si  0.81 -10.41  1.82
Si -10.15  0.37  3.14
Si  3.29  8.43  5.59
Si -7.92  6.20 -3.47
Si -1.15 -1.02 -10.54
Si  9.39 -2.51 -4.38
Si -3.10  4.88 -8.96
Si  1.10 -9.68  4.37
Si  0.54  6.88 -8.15
Si -0.37  8.38 -6.63
Si  4.43 -9.05 -3.58
Si  6.48  5.98 -6.05
Si -10.01 -3.38  1.78
Si -1.38  3.38 -10.11
Si 10.72  0.09 -0.85
Si -9.21 -5.44  1.21
Si -1.58 -3.77  9.96
Si  4.76  7.72 -5.82
Si  9.45 -5.07 -1.33
Si  0.70  0.39 -10.78
Si  0.51 10.33  3.14
Si -6.92  8.31 -0.18
Si  4.80 -3.73  8.99
Si -9.62  4.89 -1.33
Si -3.86 -9.71  3.04
Si -3.44 -10.31  0.69
Si -8.70 -2.38 -6.10
Si  4.82  3.18 -9.24
Si -7.59 -7.26  2.89
Si  3.75 -9.66  3.37
Si -5.54  6.16  7.08
Si  2.00  6.09  8.81
Si  6.36  8.01 -3.78
Si  7.88 -1.45  7.40
Si -2.36 10.21  3.04
Si -8.37  0.99  6.95
Si  6.14 -1.59  8.89
Si -10.21  3.31  2.02
Si  0.99 -9.38 -5.56
Si -2.58 -0.64 10.62
Si -3.42 -7.82  6.85
Si -5.15  7.72 -5.82
Si -3.67 -5.79  8.57
Si  7.08  5.34  6.49
Si -5.11 -3.73  8.99
Si -3.84 -5.08 -8.96
Si  1.61  7.99  7.38
Si -5.09  3.18 -9.24
Si  0.21  0.68 11.00
Si  0.85 10.94  1.07
Si -10.95 -1.32 -0.61
Si  6.78  8.67 -1.04
Si  8.96  6.49  0.03
Si  7.66  7.59  2.51
Si  1.61  2.92 -10.56
Si -2.35  7.89 -7.42
Si 10.67 -1.67 -2.55
Si  8.29 -5.07  5.37
Si -1.11 -9.45  5.72
Si -0.81 10.91 -1.93
Si  2.69  7.17 -8.06
Si  8.79 -1.59 -6.63
Si  9.54  0.51  5.72
Si  3.61  0.49 10.53
Si -5.48 -9.05 -3.58
Si -9.10  5.14  3.97
Si -6.87 -8.62 -1.89
Si -6.38  5.13 -7.62
Si  8.71  6.59 -2.42
Si -10.26  3.12 -3.24
Si -8.23 -6.40 -4.13
Si -10.38  0.81 -4.21
Si -6.42 -7.73 -5.06
Si  8.85 -6.65  2.02
Si -9.09  3.13 -5.90
Si  6.40  1.86  9.11
Si  8.93  5.20 -4.56
Si -6.31 -8.03  4.88
Si  7.33  2.48 -8.27
Si  9.49 -2.81  5.55
Si -1.28  8.52  7.40
Si -7.84  7.29  3.83
Si  0.79 -8.98  6.95
Si 10.20  4.89 -1.33
Si  7.37 -7.44  4.54
Si -6.52  1.09 -9.33
Si -4.43  6.65 -8.18
Si  2.60 10.25  4.37
Si -1.79 -11.29 -0.61
Si -8.56 -4.06  6.46
Si  3.83  4.41  9.89
Si  2.86 -4.95 -9.97
Si -7.13 -4.83 -7.62
Si -9.26  6.58  1.78
Si  7.26 -7.14 -5.39
Si -10.91 -1.89  3.30
Si -1.10 -9.30 -6.79
Si  0.27 10.78 -4.21
Si  1.04 -3.27 -11.05
Si -8.94 -7.34 -0.63
Si  4.25 10.76  0.60
Si -10.43 -2.51 -4.38
Si  9.03  4.90  5.37
Si -11.18  3.08 -0.18
Si 11.46 -0.45  1.82
Si  8.81 -6.84 -3.24
Si -10.37 -5.07 -1.33
Si  8.07 -3.67  7.51
Si -3.33 -7.49 -8.27
Si -3.73  2.46 -10.76
Si -7.16 -9.17  0.60
Si  8.45  0.64  8.00
Si -9.85 -4.83  3.97
Si  7.11 -0.04 -9.24
Si 11.05 -3.57 -1.12
Si -7.96 -2.79 -8.06
Si -11.47  0.94 -1.93
Si  1.49 -11.62 -0.18
Si -3.98 -0.99 -10.97
Si -8.46 -0.15 -8.12
Si  3.61  5.01 -9.97
Si -7.82  5.90  6.46
Si  9.56  0.67 -6.79
Si -2.88 -11.11 -2.53
Si  3.08 -5.55  9.89
Si -0.84  6.19  9.96
Si  9.97 -4.83  3.97
Si -4.66 10.27  3.37
Si -10.28  0.51  5.72
Si -4.36  6.23  8.99
Si  6.47  7.71  6.15
Si 11.34  1.29 -2.98
Si  6.99  4.17  8.57
Si -6.68 -6.04  7.67
Si  6.05 -9.71  3.04
Si -9.04 -1.97  7.38
Si  2.18 11.25 -2.98
Si -6.73  8.73 -4.34
Si  2.64 -11.37 -2.22
Si  5.48  6.65 -8.18
Si  1.66 -0.75 11.75
Si 10.83  2.83  4.03
Si  0.01 -11.64 -2.55
Si  4.01 -11.19  0.89
Si -6.16 -9.66  3.37
Si 11.63  2.62 -0.63
Si  0.38 10.48  5.72
Si  7.60 -9.02 -1.93
Si  6.06 -5.08 -8.96
Si  4.87 -1.52 10.82
Si -4.87  2.58 10.63
Si -2.37  1.88 11.59
Si 10.61 -5.44  1.21
Si  3.65 -9.36 -6.56
Si  1.56  4.23 11.14
Si  5.25 10.27  3.37
Si -8.13 -6.70  5.80
Si -5.04 -1.52 10.82
Si  5.04  2.58 10.63
Si -1.67  1.24 -11.86
Si -10.32 -2.81  5.55
Si -1.05  6.79 -9.91
Si -2.88  4.28 10.91
Si  4.24  8.27  7.71
Si -8.40  8.29 -2.55
Si  6.24 -5.79  8.57
Si  1.08 -7.64  9.30
Si -6.62  8.43  5.59
Si  9.67  2.83  6.69
Si -11.60 -3.47  0.03
Si -3.98 10.88 -3.58
Si  1.68 -11.20 -4.34
Si 11.22 -2.68  3.83
Si  4.07 -6.79 -9.24
Si -5.66 10.76  0.60
Si  4.54 -9.35  6.35
Si  2.49 10.55 -5.56
Si  6.47 -10.31  0.69
