500
set: 1304.00  0.00  0.00
Si  1.22  2.92  0.00
Si  1.22 -2.92  0.00
Si -1.22  2.92  0.00
Si -1.22 -2.92  0.00
Si  1.17 -0.00 -3.10
Si -1.17 -0.00 -3.10
Si  1.17  0.00  3.10
Si -1.17  0.00  3.10
Si  2.21  1.76 -1.90
Si  2.21  1.76  1.90
Si  2.21 -1.76 -1.90
Si  2.21 -1.76  1.90
Si -2.21  1.76 -1.90
Si -2.21  1.76  1.90
Si -2.21 -1.76 -1.90
Si -2.21 -1.76  1.90
Si -3.59 -0.00 -1.15
Si -3.59  0.00  1.15
Si  3.59 -0.00 -1.15
Si  3.59  0.00  1.15
Si  2.34  5.10  0.00
Si  2.34 -5.10  0.00
Si -2.34  5.10  0.00
Si -2.34 -5.10  0.00
Si  1.17 -0.00 -5.49
Si -1.17 -0.00 -5.49
Si  1.17  0.00  5.49
Si -1.17  0.00  5.49
Si -3.74  3.08 -3.10
Si -3.74  3.08  3.10
Si -3.74 -3.08 -3.10
Si  3.74  3.08 -3.10
Si -3.74 -3.08  3.10
Si  3.74  3.08  3.10
Si  3.74 -3.08 -3.10
Si  3.74 -3.08  3.10
Si  5.82  0.00  1.91
Si  5.82 -0.00 -1.91
Si -5.82  0.00  1.91
Si -5.82 -0.00 -1.91
Si -3.82  5.10  1.91
Si -3.82 -5.10  1.91
Si -3.82  5.10 -1.91
Si -3.82 -5.10 -1.91
Si  3.82  5.10  1.91
Si  3.82 -5.10  1.91
Si  3.82  5.10 -1.91
Si  3.82 -5.10 -1.91
Si -5.90 -2.02 -3.10
Si  5.90 -2.02 -3.10
Si -5.90  2.02 -3.10
Si  5.90  2.02 -3.10
Si -5.90 -2.02  3.10
Si  5.90 -2.02  3.10
Si -5.90  2.02  3.10
Si  5.90  2.02  3.10
Si  2.21  1.76 -6.69
Si  2.21  1.76  6.69
Si  2.21 -1.76 -6.69
Si  2.21 -1.76  6.69
Si -2.21  1.76 -6.69
Si -2.21  1.76  6.69
Si -2.21 -1.76 -6.69
Si -2.21 -1.76  6.69
Si -7.30  0.00  0.00
Si  7.30  0.00  0.00
Si -3.74  3.08 -5.48
Si -3.74 -3.08 -5.48
Si  3.74  3.08 -5.48
Si -3.74  3.08  5.48
Si  3.74 -3.08 -5.48
Si -3.74 -3.08  5.48
Si  3.74  3.08  5.48
Si  3.74 -3.08  5.48
Si  1.22  7.27  0.00
Si  1.22 -7.27  0.00
Si -1.22  7.27  0.00
Si -1.22 -7.27  0.00
Si  6.04  5.10 -1.15
Si  6.04 -5.10 -1.15
Si  6.04  5.10  1.15
Si  6.04 -5.10  1.15
Si -6.04  5.10 -1.15
Si -6.04 -5.10 -1.15
Si -6.04  5.10  1.15
Si -6.04 -5.10  1.15
Si -3.59 -0.00 -7.43
Si -3.59  0.00  7.43
Si  3.59 -0.00 -7.43
Si  3.59  0.00  7.43
Si -5.90 -2.02 -5.48
Si  5.90 -2.02 -5.48
Si -5.90  2.02 -5.48
Si  5.90  2.02 -5.48
Si -5.90 -2.02  5.48
Si  5.90 -2.02  5.48
Si -5.90  2.02  5.48
Si  5.90  2.02  5.48
Si -7.42  3.33 -1.90
Si -7.42 -3.33 -1.90
Si -7.42  3.33  1.90
Si -7.42 -3.33  1.90
Si  7.42  3.33 -1.90
Si  7.42 -3.33 -1.90
Si  7.42  3.33  1.90
Si  7.42 -3.33  1.90
Si -3.74  7.12 -3.10
Si -3.74  7.12  3.10
Si  3.74  7.12 -3.10
Si  3.74  7.12  3.10
Si -3.74 -7.12 -3.10
Si -3.74 -7.12  3.10
Si  3.74 -7.12 -3.10
Si  3.74 -7.12  3.10
Si -8.42  2.17  0.00
Si -8.42 -2.17  0.00
Si  8.42  2.17  0.00
Si  8.42 -2.17  0.00
Si  5.82  0.00  6.68
Si  5.82 -0.00 -6.68
Si -5.82  0.00  6.68
Si -5.82 -0.00 -6.68
Si  2.21  8.43 -1.90
Si  2.21  8.43  1.90
Si -2.21  8.43 -1.90
Si -2.21  8.43  1.90
Si  2.21 -8.43 -1.90
Si  2.21 -8.43  1.90
Si -2.21 -8.43 -1.90
Si -2.21 -8.43  1.90
Si  1.22  2.92 -8.58
Si  1.22  2.92  8.58
Si  1.22 -2.92 -8.58
Si  1.22 -2.92  8.58
Si -1.22  2.92  8.58
Si -1.22  2.92 -8.58
Si -1.22 -2.92  8.58
Si -1.22 -2.92 -8.58
Si -3.82  5.10  6.68
Si -3.82 -5.10  6.68
Si -3.82  5.10 -6.68
Si -3.82 -5.10 -6.68
Si  3.82  5.10  6.68
Si  3.82 -5.10  6.68
Si  3.82  5.10 -6.68
Si  3.82 -5.10 -6.68
Si -3.74  7.12 -5.48
Si  3.74  7.12 -5.48
Si -3.74  7.12  5.48
Si -3.74 -7.12 -5.48
Si  3.74  7.12  5.48
Si  3.74 -7.12 -5.48
Si -3.74 -7.12  5.48
Si  3.74 -7.12  5.48
Si  2.34  5.10 -8.58
Si  2.34  5.10  8.58
Si  2.34 -5.10  8.58
Si  2.34 -5.10 -8.58
Si -2.34  5.10 -8.58
Si -2.34  5.10  8.58
Si -2.34 -5.10  8.58
Si -2.34 -5.10 -8.58
Si -7.42  6.86 -1.90
Si -7.42  6.86  1.90
Si -7.42 -6.86 -1.90
Si -7.42 -6.86  1.90
Si  7.42  6.86 -1.90
Si  7.42  6.86  1.90
Si  7.42 -6.86 -1.90
Si  7.42 -6.86  1.90
Si -8.47  5.10 -3.10
Si -8.47 -5.10 -3.10
Si  8.47  5.10 -3.10
Si  8.47 -5.10 -3.10
Si -8.47  5.10  3.10
Si -8.47 -5.10  3.10
Si  8.47  5.10  3.10
Si  8.47 -5.10  3.10
Si -3.59 -0.00 -9.73
Si -3.59  0.00  9.73
Si  3.59 -0.00 -9.73
Si  3.59  0.00  9.73
Si -7.42  3.33 -6.69
Si -7.42 -3.33 -6.69
Si -7.42  3.33  6.69
Si -7.42 -3.33  6.69
Si  7.42  3.33 -6.69
Si  7.42 -3.33 -6.69
Si  7.42  3.33  6.69
Si  7.42 -3.33  6.69
Si -5.90 -8.17 -3.10
Si  5.90 -8.17 -3.10
Si -5.90 -8.17  3.10
Si  5.90 -8.17  3.10
Si -5.90  8.17 -3.10
Si  5.90  8.17 -3.10
Si -5.90  8.17  3.10
Si  5.90  8.17  3.10
Si  1.17 10.19 -3.10
Si  1.17 -10.19 -3.10
Si -1.17 10.19 -3.10
Si -1.17 -10.19 -3.10
Si  1.17 10.19  3.10
Si  1.17 -10.19  3.10
Si -1.17 10.19  3.10
Si -1.17 -10.19  3.10
Si  6.04  5.10 -7.43
Si  6.04 -5.10 -7.43
Si  6.04  5.10  7.43
Si  6.04 -5.10  7.43
Si -6.04  5.10 -7.43
Si -6.04 -5.10 -7.43
Si -6.04  5.10  7.43
Si -6.04 -5.10  7.43
Si  2.21  1.76 -10.48
Si  2.21  1.76 10.48
Si  2.21 -1.76 -10.48
Si  2.21 -1.76 10.48
Si -2.21  1.76 -10.48
Si -2.21  1.76 10.48
Si -2.21 -1.76 -10.48
Si -2.21 -1.76 10.48
Si -3.59 10.19 -1.15
Si -3.59 -10.19 -1.15
Si -3.59 10.19  1.15
Si -3.59 -10.19  1.15
Si  3.59 -10.19 -1.15
Si  3.59 10.19 -1.15
Si  3.59 -10.19  1.15
Si  3.59 10.19  1.15
Si  2.21  8.43 -6.69
Si  2.21  8.43  6.69
Si -2.21  8.43 -6.69
Si -2.21  8.43  6.69
Si  2.21 -8.43 -6.69
Si  2.21 -8.43  6.69
Si -2.21 -8.43 -6.69
Si -2.21 -8.43  6.69
Si -10.86  2.17  0.00
Si -10.86 -2.17  0.00
Si 10.86  2.17  0.00
Si 10.86 -2.17  0.00
Si -7.30  0.00  8.58
Si -7.30 -0.00 -8.58
Si  7.30  0.00  8.58
Si  7.30 -0.00 -8.58
Si -8.47  5.10 -5.49
Si -8.47 -5.10 -5.49
Si  8.47  5.10 -5.49
Si  8.47 -5.10 -5.49
Si -8.47  5.10  5.49
Si -8.47 -5.10  5.49
Si  8.47  5.10  5.49
Si  8.47 -5.10  5.49
Si  1.22  7.27 -8.58
Si  1.22  7.27  8.58
Si  1.22 -7.27  8.58
Si  1.22 -7.27 -8.58
Si -1.22  7.27 -8.58
Si -1.22  7.27  8.58
Si -1.22 -7.27  8.58
Si -1.22 -7.27 -8.58
Si -5.90 -8.17 -5.48
Si  5.90 -8.17 -5.48
Si -5.90 -8.17  5.48
Si  5.90 -8.17  5.48
Si -5.90  8.17 -5.48
Si  5.90  8.17 -5.48
Si -5.90  8.17  5.48
Si  5.90  8.17  5.48
Si -8.42  8.02  0.00
Si -8.42 -8.02  0.00
Si  8.42  8.02  0.00
Si  8.42 -8.02  0.00
Si  1.17 10.19 -5.49
Si  1.17 -10.19 -5.49
Si -1.17 10.19 -5.49
Si -1.17 -10.19 -5.49
Si  1.17 10.19  5.49
Si  1.17 -10.19  5.49
Si -1.17 10.19  5.49
Si -1.17 -10.19  5.49
Si  1.17 -0.00 -11.68
Si -1.17 -0.00 -11.68
Si  1.17  0.00 11.68
Si -1.17  0.00 11.68
Si  5.82 10.19  1.91
Si  5.82 -10.19  1.91
Si  5.82 10.19 -1.91
Si  5.82 -10.19 -1.91
Si -5.82 -10.19  1.91
Si -5.82 10.19  1.91
Si -5.82 10.19 -1.91
Si -5.82 -10.19 -1.91
Si -11.98  0.00  0.00
Si 11.98  0.00  0.00
Si  5.82  0.00 10.49
Si  5.82 -0.00 -10.49
Si -5.82  0.00 10.49
Si -5.82 -0.00 -10.49
Si -7.42  6.86 -6.69
Si -7.42 -6.86 -6.69
Si -7.42  6.86  6.69
Si -7.42 -6.86  6.69
Si  7.42  6.86 -6.69
Si  7.42 -6.86 -6.69
Si  7.42  6.86  6.69
Si  7.42 -6.86  6.69
Si -8.42  2.17 -8.58
Si -8.42  2.17  8.58
Si -8.42 -2.17 -8.58
Si -8.42 -2.17  8.58
Si  8.42  2.17  8.58
Si  8.42  2.17 -8.58
Si  8.42 -2.17 -8.58
Si  8.42 -2.17  8.58
Si -3.82  5.10 10.49
Si -3.82 -5.10 10.49
Si -3.82  5.10 -10.49
Si -3.82 -5.10 -10.49
Si  3.82  5.10 10.49
Si  3.82 -5.10 10.49
Si  3.82  5.10 -10.49
Si  3.82 -5.10 -10.49
Si  2.21 11.95 -1.90
Si  2.21 11.95  1.90
Si -2.21 11.95 -1.90
Si -2.21 11.95  1.90
Si  2.21 -11.95 -1.90
Si  2.21 -11.95  1.90
Si -2.21 -11.95 -1.90
Si -2.21 -11.95  1.90
Si -10.80  5.10 -3.10
Si -10.80 -5.10 -3.10
Si 10.80  5.10 -3.10
Si 10.80 -5.10 -3.10
Si -10.80  5.10  3.10
Si -10.80 -5.10  3.10
Si 10.80  5.10  3.10
Si 10.80 -5.10  3.10
Si -11.86  3.33 -1.90
Si -11.86 -3.33 -1.90
Si -11.86  3.33  1.90
Si -11.86 -3.33  1.90
Si 11.86  3.33 -1.90
Si 11.86 -3.33 -1.90
Si 11.86  3.33  1.90
Si 11.86 -3.33  1.90
Si -7.30 10.19  0.00
Si -7.30 -10.19  0.00
Si  7.30 -10.19  0.00
Si  7.30 10.19  0.00
Si  6.04  5.10 -9.73
Si  6.04 -5.10 -9.73
Si  6.04  5.10  9.73
Si  6.04 -5.10  9.73
Si -6.04  5.10 -9.73
Si -6.04 -5.10 -9.73
Si -6.04  5.10  9.73
Si -6.04 -5.10  9.73
Si -3.74  3.08 -11.69
Si -3.74 -3.08 -11.69
Si  3.74  3.08 -11.69
Si  3.74 -3.08 -11.69
Si -3.74  3.08 11.69
Si -3.74 -3.08 11.69
Si  3.74  3.08 11.69
Si  3.74 -3.08 11.69
Si -3.59 -10.19 -7.43
Si -3.59 10.19 -7.43
Si -3.59 10.19  7.43
Si -3.59 -10.19  7.43
Si  3.59 -10.19 -7.43
Si  3.59 10.19 -7.43
Si  3.59 -10.19  7.43
Si  3.59 10.19  7.43
Si -10.80  5.10 -5.49
Si -10.80 -5.10 -5.49
Si 10.80  5.10 -5.49
Si 10.80 -5.10 -5.49
Si -10.80  5.10  5.49
Si -10.80 -5.10  5.49
Si 10.80  5.10  5.49
Si 10.80 -5.10  5.49
Si  1.22 13.11  0.00
Si  1.22 -13.11  0.00
Si -1.22 13.11  0.00
Si -1.22 -13.11  0.00
Si -5.90 -2.02 -11.69
Si  5.90 -2.02 -11.69
Si -5.90  2.02 -11.69
Si  5.90  2.02 -11.69
Si -5.90 -2.02 11.69
Si  5.90 -2.02 11.69
Si -5.90  2.02 11.69
Si  5.90  2.02 11.69
Si -7.42  3.33 -10.48
Si -7.42 -3.33 -10.48
Si -7.42  3.33 10.48
Si -7.42 -3.33 10.48
Si  7.42  3.33 -10.48
Si  7.42 -3.33 -10.48
Si  7.42  3.33 10.48
Si  7.42 -3.33 10.48
Si -10.86  8.02  0.00
Si -10.86 -8.02  0.00
Si 10.86  8.02  0.00
Si 10.86 -8.02  0.00
Si  5.82 -10.19  6.68
Si  5.82 10.19  6.68
Si  5.82 -10.19 -6.68
Si  5.82 10.19 -6.68
Si -5.82 10.19  6.68
Si -5.82 -10.19  6.68
Si -5.82 10.19 -6.68
Si -5.82 -10.19 -6.68
Si 13.46  0.00  1.91
Si 13.46 -0.00 -1.91
Si -13.46  0.00  1.91
Si -13.46 -0.00 -1.91
Si  2.21  8.43 -10.48
Si  2.21  8.43 10.48
Si -2.21  8.43 -10.48
Si -2.21  8.43 10.48
Si  2.21 -8.43 -10.48
Si  2.21 -8.43 10.48
Si -2.21 -8.43 -10.48
Si -2.21 -8.43 10.48
Si -11.86  6.86 -1.90
Si -11.86  6.86  1.90
Si -11.86 -6.86 -1.90
Si -11.86 -6.86  1.90
Si 11.86  6.86 -1.90
Si 11.86  6.86  1.90
Si 11.86 -6.86 -1.90
Si 11.86 -6.86  1.90
Si  2.21 11.95 -6.69
Si  2.21 11.95  6.69
Si -2.21 11.95 -6.69
Si -2.21 11.95  6.69
Si  2.21 -11.95 -6.69
Si  2.21 -11.95  6.69
Si -2.21 -11.95 -6.69
Si -2.21 -11.95  6.69
Si -13.38 -2.02 -3.10
Si 13.38 -2.02 -3.10
Si -13.38  2.02 -3.10
Si 13.38  2.02 -3.10
Si -13.38 -2.02  3.10
Si 13.38 -2.02  3.10
Si -13.38  2.02  3.10
Si 13.38  2.02  3.10
Si -5.90 -12.21 -3.10
Si  5.90 -12.21 -3.10
Si -5.90 -12.21  3.10
Si  5.90 -12.21  3.10
Si -5.90 12.21 -3.10
Si  5.90 12.21 -3.10
Si -5.90 12.21  3.10
Si  5.90 12.21  3.10
Si -10.86  2.17 -8.58
Si -10.86  2.17  8.58
Si -10.86 -2.17 -8.58
Si -10.86 -2.17  8.58
Si 10.86  2.17 -8.58
Si 10.86  2.17  8.58
Si 10.86 -2.17 -8.58
Si 10.86 -2.17  8.58
Si -11.86  3.33 -6.69
Si -11.86 -3.33 -6.69
Si -11.86  3.33  6.69
Si -11.86 -3.33  6.69
Si 11.86  3.33 -6.69
Si 11.86 -3.33 -6.69
Si 11.86  3.33  6.69
Si 11.86 -3.33  6.69
Si  1.17 -0.00 -14.07
Si -1.17 -0.00 -14.07
Si  1.17  0.00 14.07
Si -1.17  0.00 14.07
Si -3.74 13.27 -3.10
Si -3.74 13.27  3.10
Si  3.74 13.27 -3.10
Si  3.74 13.27  3.10
Si -3.74 -13.27 -3.10
Si -3.74 -13.27  3.10
Si  3.74 -13.27 -3.10
Si  3.74 -13.27  3.10
Si -3.74  7.12 -11.69
Si  3.74  7.12 -11.69
Si -3.74 -7.12 -11.69
Si -3.74  7.12 11.69
Si  3.74 -7.12 -11.69
Si  3.74  7.12 11.69
Si -3.74 -7.12 11.69
Si  3.74 -7.12 11.69
Si 13.23  5.10 -1.15
Si 13.23 -5.10 -1.15
Si 13.23  5.10  1.15
Si 13.23 -5.10  1.15
