500
set: 1327.00  0.00  0.00
Si  0.32 -1.20  0.29
Si -0.61  0.71  1.30
Si -0.10 -0.72 -1.94
Si  0.32  2.62  0.29
Si  0.97  1.19 -2.80
Si  2.72 -1.69  0.26
Si -3.01  0.22  1.32
Si -0.61 -3.11  1.30
Si  2.72  2.13  0.26
Si -2.30 -0.21 -2.74
Si -0.10  3.10 -1.94
Si -0.19  1.18  3.53
Si  3.62  0.22  1.32
Si  0.97 -2.63 -2.80
Si  3.17  1.70 -2.01
Si -3.92 -1.69  0.26
Si  3.17 -2.12 -2.01
Si -3.47  1.70 -2.01
Si -0.19 -2.64  3.53
Si -3.92  2.13  0.26
Si -3.47 -2.12 -2.01
Si -1.26 -0.73  4.39
Si -0.61  4.53  1.30
Si  3.18 -0.21  3.59
Si -3.01 -3.60  1.32
Si -0.10 -4.54 -1.94
Si -3.46 -0.21  3.59
Si  0.33 -5.02  0.29
Si  2.01  1.70  4.32
Si -2.30  3.62 -2.74
Si  0.55  0.71 -5.04
Si  4.33 -0.21 -2.74
Si -3.01  4.04  1.32
Si  2.01 -2.12  4.32
Si  3.63 -3.60  1.32
Si -1.85  0.23 -5.01
Si -2.30 -4.03 -2.74
Si -1.26  3.09  4.39
Si  3.62  4.04  1.32
Si  0.97  5.01 -2.80
Si  0.55 -3.11 -5.04
Si  3.17  3.61  3.59
Si -0.19  5.00  3.53
Si  2.72 -5.51  0.26
Si -3.46  3.61  3.59
Si  6.02  0.71  1.30
Si  3.18 -4.03  3.59
Si  4.33  3.62 -2.74
Si  1.48 -1.20 -6.04
Si -3.46 -4.03  3.59
Si -5.66  1.19 -2.80
Si -6.31 -1.20  0.29
Si -1.85 -3.59 -5.01
Si -1.26 -4.55  4.39
Si  0.32  6.44  0.29
Si  4.33 -4.03 -2.74
Si  2.72  5.96  0.26
Si -4.62  1.70  4.32
Si -4.62 -2.12  4.32
Si  3.17  5.53 -2.01
Si -1.85  4.05 -5.01
Si  1.48  2.62 -6.04
Si -3.91 -5.51  0.26
Si -0.83 -1.21  6.62
Si  0.55  4.54 -5.04
Si -3.47  5.53 -2.01
Si -6.31  2.62  0.29
Si -5.66 -2.63 -2.80
Si  6.53 -0.72 -1.94
Si -2.76 -1.68 -6.08
Si  6.02 -3.11  1.30
Si  4.78  0.23 -5.01
Si  5.37 -0.73  4.39
Si  1.56 -1.69  6.59
Si -2.76  2.14 -6.08
Si  3.17 -5.94 -2.01
Si -6.74 -0.72 -1.94
Si  6.96 -1.20  0.29
Si -0.61 -6.93  1.30
Si  1.56  2.13  6.59
Si  0.97 -6.46 -2.80
Si -3.92  5.96  0.26
Si -3.46 -5.94 -2.01
Si -0.83  2.62  6.62
Si -0.10  6.92 -1.94
Si  2.01  5.52  4.32
Si -0.18 -6.46  3.53
Si -7.25  0.71  1.30
Si  3.88 -1.68 -6.08
Si  6.96  2.62  0.29
Si  6.45  1.18  3.53
Si  6.53  3.10 -1.94
Si  3.88  2.14 -6.08
Si  5.37  3.09  4.39
Si  2.01 -5.94  4.32
Si  6.02  4.53  1.30
Si -6.74  3.10 -1.94
Si -6.82  1.18  3.53
Si  4.79 -3.59 -5.01
Si  6.45 -2.64  3.53
Si -1.77  0.70  7.63
Si -6.09  0.71 -5.04
Si -7.25 -3.11  1.30
Si  1.48 -5.02 -6.04
Si  4.78  4.05 -5.01
Si -5.15 -1.20 -6.04
Si  2.47  0.22  7.65
Si -5.67  5.01 -2.80
Si -6.31 -5.02  0.29
Si -3.01 -7.42  1.32
Si -6.82 -2.64  3.53
Si  6.53 -4.54 -1.94
Si  7.61  1.19 -2.80
Si -2.30  7.44 -2.74
Si -1.26  6.92  4.39
Si  5.38 -4.55  4.39
Si -6.74 -4.54 -1.94
Si -0.83 -5.03  6.62
Si  3.63 -7.42  1.32
Si -5.15  2.62 -6.04
Si  1.05 -0.72 -8.28
Si -4.63  5.52  4.32
Si -1.77 -3.12  7.63
Si -0.61  8.35  1.30
Si -5.07 -1.69  6.59
Si -6.09 -3.11 -5.04
Si  7.61 -2.63 -2.80
Si -3.01  7.87  1.32
Si  0.55 -6.93 -5.04
Si -5.07  2.13  6.59
Si  6.96 -5.02  0.29
Si -0.10 -8.37 -1.94
Si -2.30 -7.85 -2.74
Si -7.25  4.53  1.30
Si -2.75 -5.50 -6.08
Si -4.62 -5.94  4.32
Si -4.17  0.22  7.65
Si  1.56 -5.51  6.59
Si  3.62  7.87  1.32
Si  7.18  0.71 -5.04
Si  2.47 -3.60  7.65
Si -2.31  1.71 -8.35
Si  3.17  7.43  3.59
Si  0.33 -8.84  0.29
Si  5.80 -1.21  6.62
Si  6.45  5.00  3.53
Si  1.05  3.10 -8.28
Si -2.31 -2.11 -8.35
Si -2.76  5.96 -6.08
Si -3.46  7.43  3.59
Si  1.48  6.45 -6.04
Si  2.47  4.04  7.65
Si  1.56  5.95  6.59
Si -6.31  6.44  0.29
Si -5.66 -6.46 -2.80
Si  4.33  7.44 -2.74
Si -1.77  4.53  7.63
Si -7.90 -0.73  4.39
Si  3.88 -5.50 -6.08
Si  4.86  0.70  7.63
Si -6.09  4.54 -5.04
Si -1.85 -7.42 -5.01
Si -1.14 -0.20 -9.07
Si -6.82  5.00  3.53
Si  5.80  2.62  6.62
Si  3.18 -7.85  3.59
Si -0.84  6.44  6.62
Si  6.03 -6.93  1.30
Si -3.46 -7.85  3.59
Si  7.18 -3.11 -5.04
Si  0.97  8.83 -2.80
Si -8.94 -0.21 -2.74
Si  3.88  5.96 -6.08
Si  4.34 -7.85 -2.74
Si -5.15 -5.02 -6.04
Si -4.17 -3.60  7.65
Si  2.13  1.19 -9.14
Si  6.96  6.44  0.29
Si  1.06 -4.54 -8.28
Si -0.19  8.83  3.53
Si  9.36 -1.69  0.26
Si -1.85  7.87 -5.01
Si  7.61  5.01 -2.80
Si -1.26 -8.37  4.39
Si -7.90  3.09  4.39
Si  4.33  1.71 -8.35
Si  4.87 -3.12  7.63
Si  9.35  2.13  0.26
Si -4.17  4.04  7.65
Si  4.33 -2.11 -8.35
Si  6.53  6.92 -1.94
Si  2.72 -9.33  0.26
Si -9.64  0.22  1.32
Si  2.13 -2.63 -9.14
Si  0.54  8.36 -5.04
Si  6.45 -6.46  3.53
Si  5.37  6.92  4.39
Si  8.64  1.70  4.32
Si -1.14  3.62 -9.07
Si -6.74  6.92 -1.94
Si -8.49  0.23 -5.01
Si  7.18  4.54 -5.04
Si  8.64 -2.12  4.32
Si -5.07 -5.51  6.59
Si -1.14 -4.02 -9.07
Si -5.58 -0.72 -8.28
Si -8.94  3.62 -2.74
Si -1.35  1.18  9.87
Si -6.82 -6.46  3.53
Si -7.47 -1.21  6.62
Si  3.17  9.35 -2.01
Si -7.25 -6.93  1.30
Si -7.89 -4.55  4.39
Si  4.86  4.53  7.63
Si -3.91 -9.33  0.26
Si  2.02 -0.22  9.93
Si  5.80 -5.03  6.62
Si  4.79 -7.42 -5.01
Si  2.72  9.78  0.26
Si  9.80  1.70 -2.01
Si -3.47  9.35 -2.01
Si -8.93 -4.03 -2.74
Si  8.12 -1.20 -6.04
Si -5.15  6.45 -6.04
Si -5.08  5.95  6.59
Si  9.80 -2.12 -2.01
Si -4.50  1.19 -9.14
Si  0.32 10.26  0.29
Si -2.31  5.53 -8.35
Si -1.34 -2.64  9.87
Si -7.47  2.62  6.62
Si 10.26  0.22  1.32
Si  7.61 -6.46 -2.80
Si -9.64 -3.60  1.32
Si  6.02  8.35  1.30
Si -10.10  1.70 -2.01
Si  9.81 -0.21  3.59
Si  8.12  2.62 -6.04
Si -5.58  3.10 -8.28
Si  3.17 -9.76 -2.01
Si -1.77 -6.94  7.63
Si  4.78  7.87 -5.01
Si  2.01  9.34  4.32
Si -8.48 -3.59 -5.01
Si -2.31 -5.93 -8.35
Si -6.09 -6.93 -5.04
Si -10.10 -2.12 -2.01
Si -4.50 -2.63 -9.14
Si -3.92  9.78  0.26
Si -9.64  4.04  1.32
Si -3.46 -9.76 -2.01
Si  5.49 -0.20 -9.07
Si  2.13  5.01 -9.14
Si  8.20 -1.69  6.59
Si -8.49  4.05 -5.01
Si -10.55 -1.69  0.26
Si  0.97 -10.28 -2.80
Si -10.09 -0.21  3.59
Si  8.20  2.13  6.59
Si  2.02  3.61  9.93
Si -10.55  2.13  0.26
Si  6.53 -8.37 -1.94
Si  1.49 -8.84 -6.04
Si  0.85  1.69 10.65
Si  1.05  6.92 -8.28
Si -0.61 -10.76  1.30
Si  9.36 -5.51  0.26
Si -5.67  8.83 -2.80
Si  2.01 -9.77  4.32
Si -6.31 -8.84  0.29
Si -0.18 -10.28  3.53
Si  5.38 -8.37  4.39
Si  0.85 -2.13 10.65
Si  2.02 -4.04  9.93
Si  5.80  6.44  6.62
Si  4.33  5.53 -8.35
Si -6.74 -8.37 -1.94
Si -0.11 10.74 -1.94
Si  2.47 -7.42  7.65
Si -4.62 -0.22  9.93
Si 10.26 -3.60  1.32
Si -5.58 -4.54 -8.28
Si -2.42 -0.73 10.72
Si  9.81  3.61  3.59
Si -0.83 -8.85  6.62
Si  9.35  5.96  0.26
Si 10.26  4.04  1.32
Si  4.33 -5.93 -8.35
Si  8.64  5.52  4.32
Si -7.25  8.35  1.30
Si -1.35  5.00  9.87
Si -7.47 -5.03  6.62
Si  7.18 -6.93 -5.04
Si  9.81 -4.03  3.59
Si  5.49  3.62 -9.07
Si  2.46  7.86  7.65
Si  5.29  1.18  9.87
Si  6.96 -8.84  0.29
Si -4.63  9.34  4.32
Si  8.12 -5.02 -6.04
Si -10.10  3.61  3.59
Si 10.97 -0.21 -2.74
Si -9.39 -1.68 -6.08
Si  7.69 -0.72 -8.28
Si  5.49 -4.02 -9.07
Si  8.65 -5.94  4.32
Si -4.51  5.01 -9.14
Si -0.69  0.23 -11.35
Si -8.40  0.70  7.63
Si -7.90  6.92  4.39
Si  2.13 -6.45 -9.14
Si -9.39  2.14 -6.08
Si  4.87 -6.94  7.63
Si -2.42  3.09 10.72
Si  9.80  5.53 -2.01
Si -10.09 -4.03  3.59
Si -4.17 -7.42  7.65
Si -1.77  8.35  7.63
Si -2.75 -9.33 -6.08
Si  6.45  8.83  3.53
Si  5.29 -2.64  9.87
Si -6.09  8.36 -5.04
Si  1.71  0.72 -11.37
Si -4.62  3.61  9.93
Si  1.56 -9.34  6.59
Si  4.21 -0.73 10.72
Si -4.62 -9.77  4.32
Si  9.80 -5.94 -2.01
Si -1.26 10.74  4.39
Si -4.62 -4.04  9.93
Si -10.10  5.53 -2.01
Si -6.82  8.83  3.53
Si -3.01 -11.24  1.32
Si  7.69  3.10 -8.28
Si -4.17  7.86  7.65
Si -8.40 -3.12  7.63
Si  3.88 -9.33 -6.08
Si -1.14  7.44 -9.07
Si -2.30 11.26 -2.74
Si  1.06 -8.36 -8.28
Si -2.76  9.78 -6.08
Si 10.97  3.62 -2.74
Si -1.34 -6.46  9.87
Si  8.20 -5.51  6.59
Si -7.47  6.44  6.62
Si -5.15 -8.84 -6.04
Si  0.55 -10.75 -5.04
Si  3.63 -11.24  1.32
Si -10.10 -5.94 -2.01
Si  1.56  9.77  6.59
Si  9.10  0.22  7.65
Si -2.42 -4.55 10.72
Si -10.55 -5.51  0.26
Si  1.71 -3.10 -11.37
Si -0.69 -3.59 -11.35
Si  4.21  3.09 10.72
Si -8.94  7.44 -2.74
Si -7.78 -0.20 -9.07
Si  7.60  8.83 -2.80
Si  8.12  6.45 -6.04
Si 10.97 -4.03 -2.74
Si  1.48 10.27 -6.04
Si  0.85  5.52 10.65
Si -1.14 -7.84 -9.07
Si -6.31 10.26  0.29
Si -4.50 -6.45 -9.14
Si -5.66 -10.28 -2.80
Si -0.69  4.05 -11.35
Si  8.19  5.95  6.59
Si  7.18  8.36 -5.04
Si -10.55  5.96  0.26
Si -3.01 11.69  1.32
Si  3.88  9.78 -6.08
Si -5.58  6.92 -8.28
Si  7.69 -4.54 -8.28
Si -11.26  1.70  4.32
Si -8.93 -7.85 -2.74
Si -2.30 -11.67 -2.74
Si -8.41  4.53  7.63
Si  3.17 11.25  3.59
Si  0.85 -5.95 10.65
Si -9.64 -7.42  1.32
Si -0.84 10.26  6.62
Si -5.78  1.69 10.65
Si -11.26 -2.12  4.32
Si -0.61 12.17  1.30
Si 10.51 -1.68 -6.08
Si  5.29  5.00  9.87
Si  3.62 11.69  1.32
Si -5.78 -2.13 10.65
Si -3.46 11.25  3.59
Si  4.86  8.35  7.63
Si -7.89 -8.37  4.39
Si 10.51  2.14 -6.08
Si -8.48 -7.42 -5.01
Si -0.10 -12.19 -1.94
Si -8.94  1.71 -8.35
Si  1.70  4.54 -11.37
Si  4.33 11.26 -2.74
Si  4.22 -4.55 10.72
Si  6.03 -10.76  1.30
Si  6.96 10.26  0.29
Si -4.93  0.72 -11.37
Si -8.94 -2.11 -8.35
Si  9.10 -3.60  7.65
Si -1.85 -11.24 -5.01
Si -9.39 -5.50 -6.08
Si 11.42  0.23 -5.01
Si  5.80 -8.85  6.62
Si -7.78  3.62 -9.07
Si -5.07 -9.34  6.59
Si -9.65  7.87  1.32
Si  9.10  4.04  7.65
Si  2.02  7.43  9.93
Si -7.78 -4.02 -9.07
Si -8.49  7.87 -5.01
Si  3.18 -11.68  3.59
Si -1.60 -1.68 -12.41
Si  6.45 -10.28  3.53
Si -12.30  1.19 -2.80
Si  0.33 -12.67  0.29
Si -9.39  5.96 -6.08
Si -1.60  2.14 -12.41
Si -3.46 -11.68  3.59
Si  2.64 -1.19 -12.38
Si  8.76  1.19 -9.14
Si  6.53 10.74 -1.94
Si 10.26 -7.42  1.32
Si -7.98  1.18  9.87
Si 12.66  0.71  1.30
Si -2.31  9.35 -8.35
Si  4.34 -11.67 -2.74
Si -4.93 -3.10 -11.37
Si  5.37 10.74  4.39
Si 12.01 -0.73  4.39
Si  5.94  0.23 -11.35
Si  9.81  7.43  3.59
Si  2.02 -7.86  9.93
Si -6.74 10.74 -1.94
Si -6.82 -10.28  3.53
Si -5.08  9.77  6.59
Si -1.85 11.69 -5.01
Si -12.30 -2.63 -2.80
Si  2.13  8.84 -9.14
Si  2.64  2.63 -12.38
Si  5.29 -6.46  9.87
Si  8.77 -2.63 -9.14
Si  5.49  7.44 -9.07
Si -7.98 -2.64  9.87
Si 11.42 -3.59 -5.01
Si -5.16 10.27 -6.04
Si -2.42  6.91 10.72
Si 10.26  7.87  1.32
Si  0.97 12.65 -2.80
Si -12.95 -1.20  0.29
Si -1.26 -12.19  4.39
Si -5.58 -8.36 -8.28
Si -7.24 -10.76  1.30
Si -10.10  7.43  3.59
Si  0.40 -1.70 12.93
Si -2.31 -9.76 -8.35
Si -3.99 -1.19 -12.38
Si  9.81 -7.85  3.59
Si  7.61 -10.28 -2.80
Si 12.66 -3.11  1.30
Si  0.40  2.12 12.93
Si 11.42  4.05 -5.01
Si  7.49  1.69 10.65
Si -0.19 12.65  3.53
Si 12.01  3.09  4.39
Si -1.99 -1.21 12.96
Si  8.65 -0.22  9.93
Si  0.54 12.18 -5.04
Si  5.50 -7.84 -9.07
Si  7.49 -2.13 10.65
Si -4.93  4.54 -11.37
Si  4.79 -11.24 -5.01
Si -12.95  2.62  0.29
Si  9.36 -9.33  0.26
Si -4.62  7.43  9.93
Si -10.80  0.22  7.65
Si  7.69  6.92 -8.28
Si  4.32  9.35 -8.35
Si -11.26  5.52  4.32
Si -4.00  2.63 -12.38
Si -10.09 -7.85  3.59
Si -11.79 -1.20 -6.04
Si -1.35  8.82  9.87
Si  5.94 -3.59 -11.35
Si -8.40 -6.94  7.63
Si -1.77 -10.76  7.63
Si -5.79  5.52 10.65
Si 13.17 -0.72 -1.94
Si 10.51 -5.50 -6.08
Si -7.47 -8.85  6.62
Si -6.08 -10.75 -5.04
Si -1.99  2.61 12.96
Si  1.71 -6.92 -11.37
Si -8.94  5.53 -8.35
Si  2.72 -13.15  0.26
