500
set: 442.00  0.00  0.00
Si -0.03 -0.02  0.02
Si  1.75  1.10  0.71
Si  0.12 -0.08 -2.21
Si -1.80  1.13  0.75
Si -0.00 -2.13  0.81
Si -1.69  0.98  2.92
Si  3.56  0.06  0.06
Si  0.05  2.04 -2.93
Si  1.80 -3.10 -0.07
Si -1.85 -3.08  0.00
Si -1.74 -1.01 -3.02
Si  1.89  1.09  2.92
Si  1.78  3.21  0.00
Si -1.83  3.19 -0.07
Si  0.05 -2.15  3.00
Si -3.70  0.06  0.06
Si  1.94 -1.11 -3.02
Si -3.57 -0.04 -2.15
Si  3.60 -2.06  0.73
Si -1.87 -1.13  3.62
Si -1.85 -3.10 -2.21
Si  1.78 -1.00  3.72
Si -1.87  3.07 -2.31
Si -3.67 -2.06  0.73
Si  1.78  3.20 -2.21
Si  3.70 -0.04 -2.15
Si -0.04  4.23  0.73
Si  0.07  2.05  3.78
Si  1.77 -3.23 -2.31
Si  3.51  2.05 -2.95
Si  3.51 -2.15  2.98
Si -0.12  4.15  2.98
Si -0.12 -4.24 -2.95
Si -3.75  2.05 -2.95
Si -3.75 -2.15  2.98
Si -3.51  2.02  3.72
Si -0.00  2.06 -5.12
Si  1.83 -5.16  0.75
Si -1.88 -5.19  0.71
Si  3.63  4.16  0.81
Si  1.83 -0.97 -5.18
Si -3.63  4.16  0.81
Si  5.46  1.13  0.75
Si -1.88 -0.99 -5.22
Si  3.76  2.02  3.72
Si  0.12 -4.27  3.72
Si -5.52  1.10  0.71
Si -5.37  1.09  2.92
Si -1.74 -5.21  2.92
Si -1.83 -1.01  5.86
Si -5.33 -1.11 -3.02
Si -0.07 -2.04 -5.88
Si -1.69  5.18 -3.02
Si  5.41 -3.08  0.00
Si -0.07 -6.24  0.06
Si -3.59  4.14  3.00
Si  1.78 -0.98  5.93
Si -5.46 -3.10 -0.07
Si -3.59 -4.25 -2.93
Si  3.68  4.14  3.00
Si  5.44  3.19 -0.07
Si -1.85  1.12 -5.93
Si  3.68 -4.25 -2.93
Si -0.07  6.35  0.06
Si -5.49  3.21  0.00
Si  1.94 -5.31  2.92
Si -0.07  2.15  5.99
Si  5.57  0.98  2.92
Si  1.80  1.09 -6.01
Si  1.89  5.28 -3.02
Si  5.53 -1.01 -3.02
Si  1.77  5.17  3.62
Si  5.40 -1.13  3.62
Si  0.07  6.25 -2.15
Si  5.42 -3.10 -2.21
Si  5.40  3.07 -2.31
Si -0.04  0.03  6.66
Si -0.04 -4.16 -5.21
Si  3.60  2.13 -5.21
Si  0.07 -6.34 -2.15
Si -5.48 -1.00  3.72
Si -3.57 -4.24  3.78
Si -3.67  2.13 -5.21
Si -5.48  3.20 -2.21
Si -1.85  5.29  3.72
Si  3.70 -4.24  3.78
Si -5.50 -3.23 -2.31
Si  3.61  6.28  0.02
Si  7.24 -0.02  0.02
Si -0.03  4.18 -5.91
Si  3.61 -2.11 -5.91
Si  3.61  2.08  5.95
Si -3.66  6.28  0.02
Si  3.61 -6.31  0.02
Si -3.66 -2.11 -5.91
Si -3.66  2.08  5.95
Si -0.03 -4.21  5.95
Si -7.29 -0.02  0.02
Si -3.66 -6.31  0.02
Si -3.51  6.21 -2.21
Si -7.14 -0.08 -2.21
Si  5.38 -5.19  0.71
Si  1.75 -3.09  6.64
Si -5.44 -5.16  0.75
Si  5.38 -0.99 -5.22
Si -1.80 -3.06  6.68
Si  3.63 -4.23 -5.12
Si -3.63 -4.23 -5.12
Si -5.44 -0.97 -5.18
Si  3.76  6.21 -2.21
Si -3.51 -6.37 -2.21
Si -1.88  3.20  6.64
Si  7.26 -2.13  0.81
Si -7.27 -2.13  0.81
Si  1.83  3.23  6.68
Si  1.75  5.30 -5.22
Si -1.80  5.32 -5.18
Si  3.63 -0.03  6.75
Si -3.63 -0.03  6.75
Si -1.88  7.39  0.71
Si  1.83  7.42  0.75
Si  7.39 -0.08 -2.21
Si  3.76 -6.37 -2.21
Si -7.22  2.04 -2.93
Si  5.44 -1.01  5.86
Si -5.33 -5.31  2.92
Si  1.78 -5.18 -5.93
Si  1.94  7.28  2.92
Si  3.56  4.25 -5.88
Si  1.80  5.29  5.86
Si  3.56 -4.14  5.99
Si  5.41  1.12 -5.93
Si -7.22 -2.15  3.00
Si -5.37  5.28 -3.02
Si -1.74  7.38  2.92
Si  1.89 -7.30 -3.02
Si  5.53 -5.21  2.92
Si  7.31  2.04 -2.93
Si -5.49 -0.98  5.93
Si -3.70  4.25 -5.88
Si -1.83 -5.20 -6.01
Si -3.70 -4.14  5.99
Si -1.69 -7.41 -3.02
Si -1.85  5.31  5.93
Si  5.57  5.18 -3.02
Si -5.46  1.09 -6.01
Si  7.31 -2.15  3.00
Si  0.07 -2.14 -8.08
Si -5.50  5.17  3.62
Si -7.20  2.05  3.78
Si -0.04 -8.36  0.73
Si -1.85 -7.29  3.72
Si  7.23  4.23  0.73
Si -1.85  1.10 -8.14
Si  5.42  5.29  3.72
Si  1.77 -7.42  3.62
Si -7.30  4.23  0.73
Si  1.77  0.97 -8.25
Si  7.33  2.05  3.78
Si  7.14  4.15  2.98
Si  7.15 -4.24 -2.95
Si -0.12  8.34 -2.95
Si -0.12 -0.05 -8.88
Si -0.12 -0.05  8.92
Si -0.12 -8.44  2.98
Si -7.39  4.15  2.98
Si -7.39 -4.24 -2.95
Si -1.80 -7.26 -5.18
Si  0.12  8.31  3.72
Si  9.01  1.10  0.71
Si -7.14 -4.27  3.72
Si  7.26  2.06 -5.12
Si  0.12  4.12 -8.14
Si -7.27  2.06 -5.12
Si  5.38  3.20  6.64
Si -3.51 -2.18 -8.14
Si  1.75 -7.29 -5.22
Si  5.46 -3.06  6.68
Si -5.52 -3.09  6.64
Si -9.07  1.13  0.75
Si  5.38  7.39  0.71
Si -5.44  3.23  6.68
Si -0.00  6.26  6.75
Si  3.63 -8.42  0.81
Si -3.63 -8.42  0.81
Si  5.46  5.32 -5.18
Si  3.76 -2.18 -8.14
Si -5.44  7.42  0.75
Si -0.00 -6.33  6.75
Si -5.52  5.30 -5.22
Si  7.39 -4.27  3.72
Si -8.96  0.98  2.92
Si -5.33  7.28  2.92
Si  7.19 -2.04 -5.88
Si  7.19 -6.24  0.06
Si  1.80 -7.30  5.86
Si -3.59  8.34 -2.93
Si  1.78 -9.37  0.00
Si -9.01 -1.01 -3.02
Si -5.37 -7.30 -3.02
Si -3.59 -0.06 -8.86
Si -1.74  3.18  8.85
Si -1.69 -3.21  8.85
Si  1.89 -3.11  8.85
Si -1.85 -7.27  5.93
Si  1.94  3.08  8.85
Si  3.68  8.34 -2.93
Si -1.83 -9.40 -0.07
Si  9.07 -3.10 -0.07
Si -5.49 -5.18 -5.93
Si  3.68 -0.06 -8.86
Si  7.19  6.35  0.06
Si -5.46  5.29  5.86
Si  9.05  3.21  0.00
Si  7.19  2.15  5.99
Si -7.34 -2.04 -5.88
Si -9.12 -3.08  0.00
Si  5.44 -5.20 -6.01
Si -3.59 -0.06  8.94
Si -7.34 -6.24  0.06
Si  5.41  5.31  5.93
Si -9.09  3.19 -0.07
Si  1.80  9.48 -0.07
Si -3.59 -8.44  3.00
Si  1.78  7.41 -5.93
Si -1.69 -3.21 -8.95
Si -1.74  3.18 -8.95
Si  1.94  3.08 -8.95
Si  1.89 -3.11 -8.95
Si  3.68 -0.06  8.94
Si  5.53  7.38  2.92
Si  9.16  1.09  2.92
Si -1.85  9.51  0.00
Si  3.68 -8.44  3.00
Si -1.83  7.38 -6.01
Si -7.34  6.35  0.06
Si -7.34  2.15  5.99
Si  5.57 -7.41 -3.02
Si  9.21 -1.11 -3.02
Si -3.57  4.15 -8.08
Si  1.77  0.97  9.55
Si -7.20  6.25 -2.15
Si  1.77  9.36 -2.31
Si  1.78 -9.39 -2.21
Si  3.70  4.15 -8.08
Si  5.42 -7.29  3.72
Si  1.78 -5.19 -8.14
Si  3.60 -6.26  6.66
Si -7.20 -6.34 -2.15
Si  7.23  0.03  6.66
Si -3.57  8.34  3.78
Si  7.23 -4.16 -5.21
Si  9.05 -1.00  3.72
Si  5.42  1.10 -8.14
Si -3.67 -6.26  6.66
Si  9.05  3.20 -2.21
Si  3.60  6.33  6.66
Si  9.03 -3.23 -2.31
Si  7.33  6.25 -2.15
Si -9.11 -3.10 -2.21
Si  3.70  8.34  3.78
Si -7.30  0.03  6.66
Si -7.30 -4.16 -5.21
Si -9.13 -1.13  3.62
Si -3.67  6.33  6.66
Si -1.85  1.10  9.65
Si -0.04  8.42 -5.21
Si -9.13  3.07 -2.31
Si -1.85  9.49 -2.21
Si -5.50 -7.42  3.62
Si  7.33 -6.34 -2.15
Si  0.07 -2.14  9.71
Si -5.50  0.97 -8.25
Si -1.87 -9.52 -2.31
Si -1.87 -5.32 -8.25
Si  7.24  4.18 -5.91
Si -0.03  8.37  5.95
Si  7.24 -4.21  5.95
Si -7.29  4.18 -5.91
Si -0.03 -8.41 -5.91
Si -7.29 -4.21  5.95
Si  3.63  8.36 -5.12
Si -3.63  8.36 -5.12
Si  5.46 -7.26 -5.18
Si  9.09 -5.16  0.75
Si -0.00 10.45  0.81
Si  0.12  4.12  9.65
Si -3.51 -2.18  9.65
Si  9.09 -0.97 -5.18
Si -5.52 -7.29 -5.22
Si -9.15 -5.19  0.71
Si -9.15 -0.99 -5.22
Si  3.76 -2.18  9.65
Si -5.33  3.08  8.85
Si -8.96  5.18 -3.02
Si  3.56 -8.34 -5.88
Si -9.01 -5.21  2.92
Si -5.37 -3.11  8.85
Si 10.83  0.06  0.06
Si -5.46 -7.30  5.86
Si  0.05  6.24 -8.86
Si  5.41 -7.27  5.93
Si -3.70 -8.34 -5.88
Si  0.05 10.43  3.00
Si  5.44 -9.40 -0.07
Si -5.49 -9.37  0.00
Si -5.33  3.08 -8.95
Si -9.09 -1.01  5.86
Si  9.05 -0.98  5.93
Si -5.37 -3.11 -8.95
Si  0.05  6.24  8.94
Si  0.05 -6.35 -8.86
Si  5.53  3.18  8.85
Si -9.12  1.12 -5.93
Si  9.07  1.09 -6.01
Si  5.41  9.51  0.00
Si  5.57 -3.21  8.85
Si -5.46  9.48 -0.07
Si  0.05 -10.54 -2.93
Si  3.56  8.45  5.99
Si -5.49  7.41 -5.93
Si  0.05 -6.35  8.94
Si  5.44  7.38 -6.01
Si -10.97  0.06  0.06
Si  5.53  3.18 -8.95
Si  9.16  5.28 -3.02
Si -3.70  8.45  5.99
Si  9.03  5.17  3.62
Si  9.21 -5.31  2.92
Si  5.57 -3.21 -8.95
Si -7.20 -2.14 -8.08
Si -10.83 -0.04 -2.15
Si -5.50  0.97  9.55
Si  7.23 -8.36  0.73
Si 10.86 -2.06  0.73
Si -1.87 -5.32  9.55
Si -5.48 -9.39 -2.21
Si -5.50  9.36 -2.31
Si -5.48 -5.19 -8.14
Si  1.78 -5.19  9.65
Si -7.30 -8.36  0.73
Si  7.33 -2.14 -8.08
Si  5.42  1.10  9.65
Si -0.04  0.03 -11.14
Si  3.60 10.52  0.73
Si  1.78  7.39 -8.14
Si -1.87  7.26 -8.25
Si  5.42  9.49 -2.21
Si -3.57  4.15  9.71
Si -10.93 -2.06  0.73
Si -3.67 10.52  0.73
Si 10.96 -0.04 -2.15
Si -9.11  5.29  3.72
Si  5.40 -9.52 -2.31
Si  0.07 -10.53  3.78
Si  3.70  4.15  9.71
Si  5.40 -5.32 -8.25
Si 10.78  2.05 -2.95
Si  7.14  8.34 -2.95
Si 10.78 -2.15  2.98
Si  7.15 -0.05 -8.88
Si  3.51  6.24 -8.88
Si  3.51 10.44  2.98
Si  7.14 -0.05  8.92
Si  3.51  6.24  8.92
Si  7.15 -8.44  2.98
Si  3.51 -6.34 -8.88
Si -3.75  6.24 -8.88
Si -3.75 10.44  2.98
Si  3.51 -10.54 -2.95
Si  3.51 -6.34  8.92
Si -3.75  6.24  8.92
Si -7.39  8.34 -2.95
Si -3.75 -6.34 -8.88
Si -7.39 -0.05 -8.88
Si -3.75 -10.54 -2.95
Si -3.75 -6.34  8.92
Si -7.14  8.31  3.72
Si -10.77  2.02  3.72
Si -7.39 -0.05  8.92
Si -7.14  4.12 -8.14
Si -11.02  2.05 -2.95
Si -7.39 -8.44  2.98
Si  9.01 -3.09  6.64
Si -11.02 -2.15  2.98
Si -1.80 -11.46  0.75
Si  3.63 -0.04 -11.05
Si -3.63 -0.04 -11.05
Si  1.75 -11.48  0.71
Si  1.83 -9.36  6.68
Si -1.88 -9.38  6.64
Si -1.80 -3.06 -11.12
Si -9.07 -3.06  6.68
Si  9.01  5.30 -5.22
Si 10.90  4.16  0.81
Si -10.90  4.16  0.81
Si -0.00 -10.52 -5.12
Si  1.75 -3.09 -11.16
Si  1.75  9.49  6.64
Si  1.83  3.23 -11.12
Si  7.26  6.26  6.75
Si -7.27  6.26  6.75
Si -9.07  5.32 -5.18
Si  7.39  8.31  3.72
Si  9.09  3.23  6.68
Si -3.51 -10.57  3.72
Si  7.39  4.12 -8.14
Si  0.12 -8.47 -8.14
Si -9.15  3.20  6.64
Si -1.88  3.20 -11.16
Si  7.26 -6.33  6.75
Si -7.27 -6.33  6.75
Si  9.09  7.42  0.75
Si -1.80  9.52  6.68
Si -9.15  7.39  0.71
Si 11.02  2.02  3.72
Si  3.76 -10.57  3.72
Si  1.80  1.09 11.79
Si  9.05 -5.18 -5.93
Si -10.85  4.14  3.00
Si -9.01  7.38  2.92
Si -0.07  2.15 -11.81
Si -8.96 -7.41 -3.02
Si  1.89 -11.50  2.92
Si -10.85 -4.25 -2.93
Si  1.94 11.47 -3.02
Si  9.07  5.29  5.86
Si -0.07 -10.43  5.99
Si  1.78 -0.98 -11.86
Si -1.85  1.12 11.87
Si -0.07 10.54 -5.88
Si -9.09 -5.20 -6.01
Si -1.69 -11.60  2.92
Si 10.95  4.14  3.00
Si -1.74 11.57 -3.02
Si  9.21  7.28  2.92
Si -0.07 -2.04 11.92
Si  9.16 -7.30 -3.02
Si 10.95 -4.25 -2.93
Si -9.12  5.31  5.93
Si -1.83 -1.01 -11.94
Si -1.87  7.26  9.55
Si -1.87 11.46  3.62
Si  5.40 -5.32  9.55
Si -3.57 -8.44 -8.08
Si  3.60 -10.46 -5.21
Si -10.83 -4.24  3.78
Si 10.86  2.13 -5.21
Si  9.03 -7.42  3.62
Si -3.67 -10.46 -5.21
Si  5.40  7.26 -8.25
Si -9.11 -7.29  3.72
Si  3.70 -8.44 -8.08
Si -5.48 -5.19  9.65
Si  7.23  8.42 -5.21
Si  9.03  0.97 -8.25
Si -9.11  1.10 -8.14
Si -7.20 -2.14  9.71
Si -5.48  7.39 -8.14
Si  1.78  7.39  9.65
Si -10.93  2.13 -5.21
Si  1.78 11.59  3.72
Si -7.30  8.42 -5.21
Si 10.96 -4.24  3.78
Si  7.33 -2.14  9.71
Si 10.87  6.28  0.02
Si  3.61 10.47 -5.91
Si 10.87 -2.11 -5.91
Si  3.61  2.08 -11.85
Si  7.24  8.37  5.95
Si -0.03 12.57  0.02
Si 10.87  2.08  5.95
Si -3.66 10.47 -5.91
Si 10.87 -6.31  0.02
Si -3.66  2.08 -11.85
Si  7.24 -8.41 -5.91
Si -0.03 -4.21 -11.85
Si -0.03  4.18 11.88
Si -7.29  8.37  5.95
Si  3.61 -2.11 11.88
Si -10.92  6.28  0.02
Si  3.61 -10.50  5.95
Si -10.92 -2.11 -5.91
Si -0.03 -12.60  0.02
Si -7.29 -8.41 -5.91
Si -3.66 -2.11 11.88
Si -10.92  2.08  5.95
Si -3.66 -10.50  5.95
Si -10.92 -6.31  0.02
Si -10.77  6.21 -2.21
Si  5.38 -9.38  6.64
Si -7.14  4.12  9.65
Si  0.12 12.51 -2.21
Si -0.00  6.26 -11.05
Si -10.77 -6.37 -2.21
Si  5.46 -11.46  0.75
Si  9.01 -7.29 -5.22
Si -5.44 -9.36  6.68
Si -9.07 -7.26 -5.18
Si -0.00 -6.33 -11.05
