500
set: 177.00  0.00  0.00
Si  0.03 -0.01 -0.00
Si  0.03 -2.19  0.77
Si  0.00  0.01 -2.33
Si -1.90  1.11  0.79
Si  1.90  1.11  0.80
Si  1.90  3.30  0.01
Si -1.90  3.30  0.00
Si -1.91  1.08  3.11
Si  0.02  2.21 -3.10
Si -1.91 -1.11 -3.12
Si -3.82  0.01 -0.01
Si  1.91 -3.32 -0.03
Si -1.94 -3.31 -0.01
Si  1.90  1.11  3.14
Si  0.01 -2.18  3.16
Si  3.84  0.00 -0.00
Si  1.94 -1.10 -3.14
Si -1.89 -3.30 -2.34
Si  3.81  0.01 -2.34
Si  1.91 -3.30 -2.34
Si -3.83 -2.17  0.79
Si  0.01  2.21  3.89
Si -3.81 -0.01 -2.35
Si -1.91  3.32 -2.34
Si  3.82 -2.21  0.80
Si  1.89  3.32 -2.37
Si -1.92 -1.11  3.90
Si  0.00  4.42  0.78
Si  1.90 -1.11  3.92
Si  0.01 -4.41 -3.12
Si  3.82 -2.21  3.12
Si -3.82  2.20 -3.12
Si -3.82 -2.21  3.13
Si  3.82  2.21 -3.15
Si  0.01  4.42  3.15
Si  3.81  4.39  0.79
Si -3.80  4.40  0.78
Si  1.88 -1.10 -5.46
Si  0.01 -4.39  3.90
Si  3.83  2.21  3.89
Si  5.73  1.11  0.79
Si -5.74  1.11  0.79
Si  0.01  2.23 -5.46
Si -1.90 -1.10 -5.47
Si  1.93 -5.53  0.78
Si -3.85  2.21  3.90
Si -1.93 -5.54  0.79
Si -0.02  2.18  6.21
Si -1.93  1.10 -6.21
Si  5.71  1.11  3.10
Si  5.71  3.30 -0.00
Si  3.81 -4.39 -3.14
Si -1.92 -1.08  6.22
Si -0.01  6.61  0.00
Si -3.84  4.39  3.11
Si  1.92  5.50 -3.12
Si  5.71 -1.13 -3.15
Si  1.89  1.08 -6.25
Si  5.73 -3.32  0.00
Si  1.92 -1.12  6.24
Si  3.80  4.41  3.15
Si -5.75  1.11  3.10
Si -3.81 -4.43 -3.12
Si -0.02 -6.63 -0.00
Si -5.74 -3.32  0.00
Si  1.89 -5.54  3.11
Si -5.75  3.30 -0.00
Si -0.02 -2.20 -6.26
Si -1.93 -5.52  3.15
Si -1.92  5.54 -3.14
Si -5.75 -1.13 -3.15
Si -1.90  5.50  3.89
Si -5.73  3.29 -2.32
Si -5.72 -3.31 -2.35
Si  5.74  3.29 -2.32
Si  0.01 -4.41 -5.45
Si  0.02 -0.00  7.01
Si -3.82 -4.40  3.91
Si -5.72 -1.10  3.91
Si -3.82  2.22 -5.45
Si  0.02  6.62 -2.35
Si  3.83 -4.43  3.89
Si  5.74 -1.10  3.91
Si  3.83  2.19 -5.47
Si  0.01 -6.64 -2.32
Si  1.91  5.53  3.91
Si  5.75 -3.31 -2.35
Si -3.79  2.21  6.22
Si -7.62  0.00 -0.00
Si  0.01  4.44 -6.20
Si -3.83 -2.20 -6.22
Si  3.79  6.62 -0.01
Si -3.83  6.61 -0.03
Si  7.64  0.01 -0.01
Si  3.82  2.20  6.24
Si  0.02 -4.41  6.25
Si  3.82 -2.22 -6.25
Si  3.83 -6.63  0.00
Si -3.83 -6.63  0.01
Si  1.89 -3.30  6.99
Si  7.63 -2.17  0.79
Si  1.90  5.51 -5.45
Si -5.73 -5.50  0.78
Si  3.82 -6.61 -2.34
Si  5.73 -5.50  0.78
Si  1.92  3.30  7.02
Si -1.91  7.71  0.80
Si -1.92  5.51 -5.46
Si -1.91 -3.30  7.02
Si -5.72 -1.10 -5.47
Si  3.81 -4.42 -5.46
Si -3.83 -4.42 -5.45
Si -3.82  0.01  7.02
Si -7.64 -2.21  0.80
Si  3.84  0.01  7.02
Si -1.93  3.32  7.02
Si  7.65 -0.01 -2.35
Si -3.82  6.63 -2.34
Si -3.85 -6.61 -2.37
Si -7.66  0.01 -2.34
Si  5.75 -1.10 -5.47
Si  3.84  6.63 -2.34
Si  1.90  7.76  0.79
Si  3.82 -4.41  6.21
Si -5.73  1.11 -6.22
Si -1.92  5.52  6.21
Si  5.74  1.11 -6.22
Si -5.72  5.52 -3.12
Si -5.72 -1.10  6.24
Si  1.91  5.51  6.24
Si -3.82  4.41 -6.23
Si  1.92 -5.51 -6.23
Si  3.82  4.41 -6.24
Si -1.92  7.72  3.12
Si  7.64  2.20 -3.12
Si -5.73 -5.51  3.15
Si -3.82 -4.42  6.24
Si -1.92 -5.52 -6.24
Si -7.65 -2.21  3.12
Si  1.92  7.72  3.13
Si  7.65 -2.21  3.13
Si  5.74 -5.51  3.15
Si  1.91 -7.73 -3.12
Si -1.92 -7.72 -3.15
Si  5.75  5.52 -3.12
Si  5.75 -1.10  6.24
Si -7.65  2.21 -3.15
Si  7.61  2.21  3.90
Si -7.64  2.21  3.89
Si -0.01 -2.20 -8.57
Si  1.88 -7.72  3.90
Si -1.90 -7.72  3.89
Si -1.93  1.08 -8.58
Si -0.01 -8.82  0.79
Si -7.66  4.39  0.79
Si -5.72  5.53  3.90
Si  1.93  1.09 -8.58
Si  7.66  4.40  0.78
Si  5.74  5.53  3.90
Si  7.63  4.39  3.11
Si -0.02  8.80 -3.15
Si -0.02 -8.82  3.10
Si -0.01 -0.01  9.36
Si -7.66 -4.39 -3.14
Si -0.02 -0.01 -9.37
Si  7.65 -4.43 -3.12
Si -7.66  4.41  3.15
Si -3.83 -2.20 -8.56
Si  1.91 -7.71 -5.45
Si -5.70  7.73  0.77
Si  3.83 -2.20 -8.57
Si  7.64 -4.40  3.91
Si -5.72  5.52 -5.45
Si -7.63 -4.43  3.89
Si  3.83 -8.82  0.79
Si -3.83 -8.81  0.80
Si  7.64  2.22 -5.45
Si -7.63  2.19 -5.47
Si  0.01  6.60  7.04
Si  0.00 -6.61  7.03
Si  5.74  5.52 -5.45
Si -5.73  3.31  7.03
Si  0.01  8.83  3.91
Si  5.74  3.31  7.03
Si -9.56  1.11  0.80
Si  9.56  1.11  0.79
Si  0.03  4.42 -8.59
Si -5.73 -3.33  7.04
Si -1.90 -7.74 -5.47
Si  5.74 -3.33  7.04
Si  5.76  7.73  0.77
Si -5.73 -5.49 -6.20
Si  5.74 -5.49 -6.20
Si  9.53 -3.31 -0.01
Si  7.63 -2.20 -6.22
Si -5.71 -7.71 -3.10
Si -3.83 -0.01  9.34
Si  3.79  0.00  9.35
Si -9.53 -1.10 -3.14
Si  7.64  6.61 -0.03
Si  1.90  7.73 -6.22
Si  3.82  8.81 -3.12
Si  1.94 -7.72  6.22
Si  1.91 -9.92 -0.01
Si  9.55  1.08  3.11
Si -1.91  7.70 -6.25
Si -1.89 -9.93 -0.00
Si -1.89 -3.31 -9.36
Si  1.91  3.32  9.35
Si -7.63 -6.63  0.00
Si -1.89  3.31  9.36
Si -1.89  9.93 -0.00
Si -7.64  2.20  6.24
Si -3.83 -0.01 -9.36
Si -3.79  8.83 -3.14
Si  7.63 -6.63  0.01
Si -5.71  5.52  6.25
Si  5.75 -7.71 -3.10
Si -1.90 -3.32  9.36
Si  9.56 -1.11 -3.12
Si  3.83 -0.01 -9.36
Si  1.91 -3.30 -9.37
Si -9.56  3.30  0.01
Si  1.90 -3.32  9.37
Si -3.83 -8.82  3.14
Si  1.91  9.94 -0.01
Si -9.56 -3.32 -0.03
Si  9.57  3.30  0.00
Si -1.91 -7.73  6.24
Si  7.67  2.21  6.22
Si  3.82 -8.84  3.11
Si -7.64 -2.22 -6.25
Si -1.94  3.31 -9.37
Si -9.56  1.11  3.14
Si  1.91  3.30 -9.39
Si -7.67  6.62 -0.01
Si  5.75  5.52  6.25
Si -5.73  7.75  3.16
Si  5.74  7.75  3.16
Si  1.90 -5.48 -8.57
Si  3.82  4.40 -8.56
Si -5.72 -7.72  3.89
Si  7.62 -6.61 -2.37
Si -7.63  0.01  7.02
Si  3.81 -6.61  7.02
Si  1.92  9.91 -2.35
Si  3.81  8.82  3.90
Si -1.93 -9.91 -2.34
Si -1.91 -5.52 -8.56
Si  7.64 -4.42 -5.45
Si  9.54 -1.11  3.90
Si  0.00 -2.19 10.14
Si -7.64 -6.61 -2.34
Si -3.85  6.62  6.99
Si -7.63  6.63 -2.34
Si  7.64  0.01  7.02
Si -9.56 -3.30 -2.34
Si -3.83  8.82  3.92
Si  5.75 -7.72  3.89
Si -3.81 -6.63  7.02
Si  9.55  3.32 -2.34
Si -5.73  1.11 -8.59
Si  5.73  1.11 -8.59
Si  3.82  6.63  7.02
Si  7.64  6.63 -2.34
Si -3.83  4.45 -8.57
Si -7.65 -4.42 -5.46
Si  0.01  8.83 -5.47
Si -9.56 -1.11  3.92
Si  9.57 -3.30 -2.34
Si  1.90  1.14 10.15
Si -1.91  1.09 10.16
Si  1.92 -9.94 -2.35
Si -1.93  9.94 -2.34
Si -9.58  3.32 -2.37
Si  0.01 -8.82 -6.22
Si -7.65 -4.41  6.21
Si  7.65  4.41 -6.23
Si  7.64 -4.42  6.24
Si -7.65  4.41 -6.24
Si  0.01  8.83  6.24
Si -5.72 -7.70 -5.46
Si -9.53 -5.53  0.78
Si -3.80 -2.22 10.14
Si  5.74 -7.70 -5.46
Si  9.54 -5.54  0.79
Si -0.01 11.03  0.79
Si  3.81 -2.23 10.14
Si  3.83  8.82 -5.47
Si -0.01  4.42 10.15
Si -3.85  8.83 -5.46
Si  9.56 -1.10 -5.47
Si -9.59 -1.10 -5.46
Si  9.53  1.10 -6.21
Si -11.44 -0.01 -0.00
Si -5.71  9.91 -0.00
Si  9.54 -1.08  6.22
Si  3.80 -8.83 -6.21
Si -3.81  8.81  6.24
Si -5.71  3.30  9.36
Si -9.54  5.50 -3.12
Si  5.71 -3.32  9.36
Si -9.54 -1.12  6.24
Si  5.73  3.30 -9.36
Si -0.02  6.61  9.36
Si -5.71 -3.32 -9.36
Si  5.71 -7.75  6.21
Si  0.03  6.61 -9.36
Si  9.53 -5.52  3.15
Si -5.74  3.30 -9.36
Si -5.71 -9.94 -0.00
Si  5.76  9.91 -0.00
Si -0.02 11.04  3.10
Si -0.01 -6.63 -9.36
Si  9.54  5.54 -3.14
Si  0.03 -6.63  9.36
Si  3.81  8.85  6.22
Si  5.76  3.30  9.36
Si -5.75 -3.32  9.36
Si  5.71  7.73 -6.26
Si -5.75 -7.75  6.21
Si -9.57  1.08 -6.25
Si  5.76 -3.32 -9.36
Si -9.57 -5.54  3.11
Si  5.76 -9.94 -0.00
Si -5.75  7.73 -6.26
Si 11.49 -0.01 -0.00
Si -3.84 -8.85 -6.25
Si -0.02 -11.06 -3.15
Si -11.43 -2.19  0.77
Si -5.70  1.11 10.13
Si  7.63 -2.20 -8.56
Si  0.01 -0.02 -11.68
Si -7.63 -2.20 -8.57
Si -5.70 -5.50 -8.59
Si -7.63 -8.82  0.79
Si  7.63 -8.81  0.80
Si  1.90  7.73 -8.56
Si -5.73 -9.92 -2.33
Si  9.56  5.50  3.89
Si  5.74 -9.92 -2.33
Si -11.46  0.01 -2.33
Si -1.90  7.73 -8.57
Si  0.01 -11.03  3.91
Si 11.47  0.01 -2.33
Si -5.73  9.93 -2.33
Si -1.90 -5.51 10.15
Si  5.74  9.93 -2.33
Si  5.76  1.11 10.13
Si -9.56  5.53  3.91
Si  3.83 11.04  0.79
Si  1.90 -5.51 10.16
Si -3.83 11.04  0.80
Si  3.83  4.42 10.15
Si  5.76 -5.50 -8.59
Si -3.83  4.42 10.16
Si 11.50 -2.19  0.77
Si -11.44  2.21 -3.10
Si  7.64 -0.01  9.34
Si  3.82 11.01  3.11
Si -3.82 -6.61  9.35
Si -7.64  8.81 -3.12
Si  7.63 -0.01 -9.36
Si -7.63 -0.01 -9.36
Si -3.79 -11.03 -3.14
Si  7.63 -8.82  3.14
Si  3.79 -6.62 -9.37
Si -3.83  6.61  9.37
Si -11.46 -2.18  3.16
Si  3.83  6.61  9.36
Si  3.84 -6.62  9.36
Si  3.84  6.62 -9.36
Si -7.67  0.00  9.35
Si 11.47 -2.18  3.16
Si  3.82 -11.04 -3.12
Si -3.82  6.63 -9.37
Si -7.64 -8.84  3.11
Si -3.83 11.04  3.14
Si 11.49  2.21 -3.10
Si  7.67  8.83 -3.14
Si -3.83 -6.63 -9.39
Si  1.90 -12.10  0.79
Si  7.62  6.62  6.99
Si -7.64  4.40 -8.56
Si -11.45  2.21  3.89
Si  9.54  5.51 -5.46
Si -1.89 -9.92  7.02
Si -9.55  3.30  7.02
Si  1.91 -9.91  7.02
Si  9.54  3.32  7.02
Si  7.64  8.82  3.92
Si -9.56  5.51 -5.45
Si  0.00 -8.81 -8.59
Si  9.55  7.71  0.80
Si  9.55 -3.30  7.02
Si  7.63  4.45 -8.57
Si  0.01 -11.03 -5.47
Si -7.66 -6.61  7.02
Si -1.93 -3.30 -11.70
Si  3.82  0.01 -11.70
Si -9.58 -3.30  6.99
Si -7.65  8.82  3.90
Si -1.89  9.94  7.02
Si -11.46  4.42  0.78
Si 11.46  4.42  0.78
Si -1.89  3.32 -11.71
Si  1.91  3.32 -11.70
Si -7.64  6.63  7.02
Si  3.81 -11.04  3.90
Si  1.92 -3.32 -11.71
Si  1.91  9.94  7.02
Si  7.65 -6.63  7.02
Si -1.91 -12.14  0.80
Si 11.48  2.21  3.89
Si -3.83 -11.04  3.92
Si -9.56  7.76  0.79
Si -3.85  0.01 -11.73
Si  9.55  5.52  6.21
Si -11.45 -4.41 -3.12
Si -9.55 -5.51 -6.23
Si  1.91 12.13 -3.12
Si  0.01 11.04 -6.22
Si -9.55  5.51  6.24
Si  9.55  7.72  3.12
Si  0.01  2.21 -12.48
Si  9.55 -5.52 -6.24
Si -9.55  7.72  3.13
Si -1.92  1.10 12.48
Si  0.01 -11.03  6.24
Si  1.92 -12.13  3.13
Si  9.55 -7.72 -3.15
Si -1.92 -12.14  3.12
Si  1.91 -1.11 -12.48
Si -11.46  4.42  3.15
Si -9.55 -7.73 -3.12
Si  1.92  1.10 12.49
Si 11.48 -4.41 -3.12
Si -1.92 12.14 -3.15
Si 11.47  4.42  3.15
Si  0.01 -2.20 12.51
Si -1.92 -1.10 -12.51
Si  7.61  8.83 -5.46
Si  9.54  1.08 -8.58
Si -9.53  1.09 -8.58
Si -11.46 -4.39  3.90
Si -1.93  7.70 10.14
Si  5.73  7.72 -8.57
Si -1.90 12.13  3.89
Si -11.46  2.23 -5.46
Si  1.93  7.71 10.14
Si -5.74  7.72 -8.57
Si  1.88 12.14  3.90
Si -7.64  8.82 -5.47
Si  9.56 -7.72  3.89
Si 11.47 -4.39  3.90
Si -3.80 -8.84 -8.58
Si  5.73 -5.51 10.15
Si -3.85 -11.03 -5.46
Si  3.81 -8.85 -8.58
Si -5.74 -5.51 10.15
Si  3.83 -11.03 -5.47
Si 11.47  2.23 -5.46
Si  7.66 -2.22 10.14
Si -7.66 -2.23 10.14
Si -9.59 -7.72  3.90
Si 11.44  2.18  6.21
Si  3.81 -11.01  6.22
Si  3.80 11.03 -6.21
Si -0.02  4.42 12.46
Si 11.45 -6.63 -0.00
Si -3.84 11.01 -6.25
Si 11.46  6.61  0.00
Si -0.02 13.23 -0.00
Si  7.65  8.81  6.24
Si 11.45 -2.20 -6.26
Si -3.81  2.19 -12.48
Si -7.66 -8.83 -6.21
Si -11.47  6.61  0.00
Si -3.84 -2.23 12.47
Si -11.49  2.18  6.21
Si -3.81 -11.05  6.24
Si  7.63 -8.85 -6.25
Si -0.01 -13.25  0.00
Si  3.81  2.23 -12.50
Si -7.66  8.85  6.22
Si -11.48 -6.63 -0.00
Si -11.48 -2.20 -6.26
Si  3.80 -2.21 12.52
Si -0.02 -4.44 -12.51
Si -5.70 -12.12  0.77
Si  0.01 13.22 -2.32
Si -11.45 -0.00  7.01
Si  0.03 -8.81 10.13
Si -1.90 -1.12 13.25
Si -11.45  6.62 -2.35
Si -5.72  9.93  7.01
Si -11.46 -4.41 -5.45
Si -9.56 -7.71 -5.45
Si -5.72 -9.93  7.01
Si -1.90 12.12 -5.47
