500
set: 1355.00  0.00  0.00
Si  1.09 -1.87 -0.53
Si -1.08 -2.10  0.53
Si  2.69 -0.37  0.51
Si -2.98 -0.37  0.51
Si  1.71 -0.36  2.53
Si  0.20 -1.85 -2.49
Si -2.69  1.67 -0.52
Si -0.20 -2.08  2.49
Si -1.10  3.17  0.53
Si  2.98  1.67 -0.52
Si -1.71  1.69 -2.53
Si  1.08  3.41 -0.53
Si -1.40 -0.36 -3.54
Si -0.21  3.19  2.49
Si  1.40  1.69  3.53
Si  0.19  3.42 -2.49
Si -2.68 -3.60 -0.52
Si -2.36 -1.85  3.57
Si -1.70 -3.59 -2.53
Si -3.96 -0.36  2.53
Si  2.99 -3.60 -0.52
Si  2.36 -2.08 -3.57
Si -4.58 -1.87 -0.53
Si  3.96  1.69 -2.53
Si  4.59 -2.10  0.53
Si  3.31 -1.85  3.57
Si  1.41 -3.58  3.53
Si -3.31 -2.08 -3.57
Si  2.35  3.19 -3.57
Si -2.37  3.42  3.57
Si  4.27 -0.36 -3.54
Si -0.42 -0.37 -5.55
Si  4.57  3.17  0.53
Si  2.68  4.91  0.51
Si -4.59  3.41 -0.53
Si -2.99  4.91  0.51
Si  1.70  4.92  2.53
Si -4.27  1.69  3.53
Si  0.42  1.67  5.54
Si -3.32  3.19 -3.57
Si  3.97 -3.59 -2.53
Si  3.30  3.42  3.57
Si -1.47 -1.87  5.53
Si  1.48 -2.10 -5.53
Si -1.41  4.92 -3.54
Si  2.71 -5.65  0.51
Si -5.47 -1.85 -2.49
Si  5.47 -2.08  2.49
Si -2.96 -5.65  0.51
Si  1.73 -5.64  2.53
Si  1.46  3.17 -5.53
Si  0.14 -0.37  6.57
Si -4.26 -3.58  3.53
Si  0.43 -3.60  5.54
Si  5.87 -1.85 -2.49
Si -1.48  3.41  5.53
Si -5.87 -2.08  2.49
Si -0.14  1.67 -6.58
Si -1.39 -5.64 -3.54
Si  5.46  3.19  2.49
Si -3.97  4.92  2.53
Si -5.48  3.42 -2.49
Si  6.76 -1.87 -0.53
Si -6.75 -2.10  0.53
Si -5.88  3.19  2.49
Si -2.02 -1.87 -6.59
Si  4.20 -1.87  5.53
Si  2.03 -2.10  6.59
Si  5.86  3.42 -2.49
Si -4.20 -2.10 -5.53
Si  1.10 -7.15 -0.53
Si -3.94 -5.64  2.53
Si  4.26  4.92 -3.54
Si -0.43  4.91 -5.55
Si -2.71  6.95 -0.52
Si -1.07 -7.38  0.53
Si -6.77  3.17  0.53
Si -0.12 -3.61 -6.58
Si  0.21 -7.13 -2.49
Si  2.96  6.95 -0.52
Si  6.75  3.41 -0.53
Si  2.02  3.18  6.59
Si -1.72  6.97 -2.53
Si -4.21  3.17 -5.53
Si  5.25 -0.37 -5.55
Si -2.03  3.40 -6.59
Si  4.19  3.41  5.53
Si  3.65 -1.87 -6.59
Si -0.18 -7.36  2.49
Si  7.38 -0.36  2.53
Si -5.25  1.67  5.54
Si -3.64 -2.10  6.59
Si -7.07 -0.36 -3.54
Si  4.28 -5.64 -3.54
Si -0.41 -5.65 -5.55
Si  1.39  6.97  3.53
Si -7.38  1.69 -2.53
Si  7.07  1.69  3.53
Si -3.65  3.18  6.59
Si  0.12  4.91  6.57
Si -6.09 -0.37 -5.55
Si  3.64  3.40 -6.59
Si -2.34 -7.13  3.57
Si  8.36 -0.37  0.51
Si  3.95  6.97 -2.53
Si  6.09  1.67  5.54
Si -5.24 -3.60  5.54
Si -4.57 -7.15 -0.53
Si  2.37 -7.36 -3.57
Si -1.11  8.45  0.53
Si -8.36  1.67 -0.52
Si -7.37 -3.59 -2.53
Si -5.54 -0.37  6.57
Si -0.85 -0.36  8.59
Si  3.33 -7.13  3.57
Si  0.15 -5.65  6.57
Si -8.65 -0.37  0.51
Si  7.08 -3.58  3.53
Si  4.60 -7.38  0.53
Si  5.54  1.67 -6.58
Si  1.06  8.69 -0.53
Si  5.80 -0.37  6.57
Si  0.85  1.69 -8.59
Si  8.65  1.67 -0.52
Si -3.30 -7.36 -3.57
Si -0.22  8.47  2.49
Si  0.41  6.95  5.54
Si -4.28  6.97  3.53
Si -5.80  1.67 -6.58
Si -8.03 -1.85  3.57
Si  6.10 -3.60  5.54
Si  8.03 -2.08 -3.57
Si  0.18  8.70 -2.49
Si  5.24  4.91 -5.55
Si -8.35 -3.60 -0.52
Si -1.46 -7.15  5.53
Si  2.76 -1.86 -8.55
Si  7.37  4.92  2.53
Si -2.91 -1.86 -8.55
Si -7.14 -1.87  5.53
Si -2.76 -2.08  8.55
Si  2.91 -2.08  8.55
Si  7.14 -2.10 -5.53
Si -2.67 -8.88 -0.52
Si -5.46 -7.13 -2.49
Si -7.08  4.92 -3.54
Si  5.55 -3.61 -6.58
Si  8.02  3.19 -3.57
Si  1.49 -7.38 -5.53
Si  0.86 -3.59 -8.59
Si -1.69 -8.87 -2.53
Si  3.00 -8.88 -0.52
Si  8.66 -3.60 -0.52
Si -8.04  3.42  3.57
Si -5.79 -3.61 -6.58
Si  2.33  8.47 -3.57
Si  5.26 -5.65 -5.55
Si  5.49 -7.36  2.49
Si -2.77  3.19  8.55
Si  7.13  3.17 -5.53
Si -0.15  6.95 -6.58
Si  5.88 -7.13 -2.49
Si  2.90  3.19  8.55
Si -6.10  4.91 -5.55
Si  2.75  3.42 -8.55
Si  4.56  8.45  0.53
Si  7.39 -5.64  2.53
Si  1.43 -8.86  3.53
Si -2.92  3.42 -8.55
Si -7.15  3.41  5.53
Si  1.16 -0.36 -9.60
Si -7.06 -5.64 -3.54
Si  8.35  4.91  0.51
Si -2.38  8.70  3.57
Si -5.86 -7.36  2.49
Si -3.33  8.47 -3.57
Si -1.16  1.69  9.59
Si  0.76 -1.85  9.63
Si -4.61  8.69 -0.53
Si  8.98 -1.85  3.57
Si  4.82 -0.36  8.59
Si  6.77 -7.15 -0.53
Si -0.75 -2.09 -9.63
Si -8.98 -2.08 -3.57
Si -5.55  4.91  6.57
Si -2.01 -7.15 -6.59
Si -0.86  4.92  8.59
Si -9.63 -0.36  2.53
Si  3.29  8.70  3.57
Si -8.66  4.91  0.51
Si  4.21 -7.15  5.53
Si -6.08 -5.65 -5.55
Si -4.82  1.69 -8.59
Si -6.74 -7.38  0.53
Si  5.79  4.91  6.57
Si  3.98 -8.87 -2.53
Si  9.63  1.69 -2.53
Si  2.04 -7.38  6.59
Si  8.38 -5.65  0.51
Si -4.18 -7.38 -5.53
Si -0.76  3.19 -9.63
Si -8.99  3.19 -3.57
Si  1.45  8.45 -5.53
Si  8.97  3.42  3.57
Si  0.74  3.43  9.63
Si -5.52 -5.65  6.57
Si -7.69 -1.87 -6.59
Si -1.15 -3.58  9.59
Si -0.83 -5.64  8.59
Si -8.63 -5.65  0.51
Si -5.26  6.95  5.54
Si  7.70 -2.10  6.59
Si  5.45  8.47  2.49
Si  3.66 -7.15 -6.59
Si -1.49  8.69  5.53
Si -10.25 -1.87 -0.53
Si  5.82 -5.65  6.57
Si -4.24 -8.86  3.53
Si -7.39  6.97 -2.53
Si -4.81 -3.59 -8.59
Si  0.44 -8.88  5.54
Si 10.26 -2.10  0.53
Si  7.06  6.97  3.53
Si -3.63 -7.38  6.59
Si  2.67 10.19  0.51
Si  9.94 -0.36 -3.54
Si -5.49  8.70 -2.49
Si  9.64 -3.59 -2.53
Si -4.51 -0.36 -9.60
Si  7.69  3.18  6.59
Si -5.89  8.47  2.49
Si -3.00 10.19  0.51
Si  1.69 10.20  2.53
Si -9.94  1.69  3.53
Si -7.70  3.40 -6.59
Si  4.51  1.69  9.59
Si 10.24  3.17  0.53
Si  6.08  6.95  5.54
Si  5.85  8.70 -2.49
Si -6.52 -0.36  8.59
Si -10.26  3.41 -0.53
Si  1.15  4.92 -9.60
Si -6.78  8.45  0.53
Si -1.42 10.20 -3.54
Si -8.38  6.95 -0.52
Si  2.00  8.46  6.59
Si  6.52  1.69 -8.59
Si -4.22  8.45 -5.53
Si -4.92 -1.85  9.63
Si  6.74  8.69 -0.53
Si  4.81  4.92  8.59
Si  4.92 -2.09 -9.63
Si  5.52  6.95 -6.58
Si -0.11 -8.88 -6.58
Si -2.05  8.68 -6.59
Si  0.83  6.97 -8.59
Si  8.63  6.95 -0.52
Si  4.18  8.69  5.53
Si -9.64  4.92  2.53
Si -9.93 -3.58  3.53
Si  1.17 -5.64 -9.60
Si  4.53 -3.58  9.59
Si -5.82  6.95 -6.58
Si -3.98 10.20  2.53
Si  4.91  3.19 -9.63
Si  2.72 -10.93  0.51
Si -8.01 -7.13  3.57
Si -2.95 -10.93  0.51
Si -3.67  8.46  6.59
Si  1.74 -10.92  2.53
Si -4.93  3.43  9.63
Si  4.84 -5.64  8.59
Si  6.53 -3.59 -8.59
Si -9.62 -5.64  2.53
Si  9.87 -1.87  5.53
Si  8.04 -7.36 -3.57
Si  2.77 -7.13 -8.55
Si  3.62  8.68 -6.59
Si -9.87 -2.10 -5.53
Si -2.90 -7.13 -8.55
Si -7.12 -7.15  5.53
Si -1.37 -10.92 -3.54
Si -11.14 -1.85 -2.49
Si  9.32 -1.87 -6.59
Si  4.25 10.20 -3.54
Si -9.31 -2.10  6.59
Si 11.14 -2.08  2.49
Si -0.44 10.19 -5.55
Si -2.74 -7.36  8.55
Si  9.93  4.92 -3.54
Si  2.93 -7.36  8.55
Si  7.16 -7.38 -5.53
Si -4.52  4.92 -9.60
Si -5.23 -8.88  5.54
Si  6.42 -1.85  9.63
Si -9.88  3.17 -5.53
Si -6.42 -2.09 -9.63
Si  6.83 -0.36 -9.60
Si -7.36 -8.87 -2.53
Si  9.86  3.41  5.53
Si  2.14 -0.37 -11.61
Si 11.13  3.19  2.49
Si -9.32  3.18  6.59
Si  1.64 -1.87 11.59
Si -6.53  4.92  8.59
Si -3.93 -10.92  2.53
Si  7.10 -8.86  3.53
Si -1.64 -2.10 -11.59
Si -6.83  1.69  9.59
Si  9.31  3.40 -6.59
Si -1.17  6.97  9.59
Si -2.14  1.68 11.61
Si -11.15  3.42 -2.49
Si 11.54 -1.85 -2.49
Si  9.95 -5.64 -3.54
Si -11.54 -2.08  2.49
Si -4.50 -5.64 -9.60
Si  0.77 -7.13  9.63
Si -6.43  3.19 -9.63
Si  9.00 -7.13  3.57
Si  6.41  3.43  9.63
Si -4.83  6.97 -8.59
Si  0.11 10.19  6.57
Si  6.11 -8.88  5.54
Si -1.65  3.17 -11.59
Si -8.97 -7.36 -3.57
Si -3.53 -0.37 -11.61
Si  9.62  6.97 -2.53
Si -0.74 -7.37 -9.63
Si  8.43 -1.86 -8.55
Si -6.50 -5.64  8.59
Si -8.43 -2.08  8.55
Si  8.01  8.47 -3.57
Si  1.63  3.41 11.59
Si -8.34 -8.88 -0.52
Si -11.55  3.19  2.49
Si  3.53  1.68 11.61
Si -8.58 -1.86 -8.55
Si  4.30 -10.92 -3.54
Si 10.92 -0.37 -5.55
Si -0.39 -10.93 -5.55
Si 11.53  3.42 -2.49
Si  8.58 -2.08  8.55
Si -6.82 -3.58  9.59
Si -2.13 -3.60 11.61
Si  7.12  8.45 -5.53
Si -2.78  8.47  8.55
Si -10.92  1.67  5.54
Si  5.56 -8.88 -6.58
Si  0.87 -8.87 -8.59
Si  2.89  8.47  8.55
Si -8.05  8.70  3.57
Si -7.68 -7.15 -6.59
Si -4.03 -1.87 11.59
Si  8.67 -8.88 -0.52
Si -8.44  3.19  8.55
Si  4.03 -2.10 -11.59
Si -5.78 -8.88 -6.58
Si  8.42  3.42 -8.55
Si  1.12 -12.43 -0.53
Si -10.24 -7.15 -0.53
Si  2.73  8.70 -8.55
Si  8.57  3.19  8.55
Si -2.72 12.23 -0.52
Si -7.16  8.69  5.53
Si -2.94  8.70 -8.55
Si  7.71 -7.38  6.59
Si 12.43 -1.87 -0.53
Si  2.95 12.23 -0.52
Si -8.59  3.42 -8.55
Si -12.42 -2.10  0.53
Si -1.74 12.25 -2.53
Si -9.95  6.97  3.53
Si  3.54 -3.60 11.61
Si 10.27 -7.38  0.53
Si  0.23 -12.41 -2.49
Si  4.02  3.17 -11.59
Si  4.50  6.97  9.59
Si -1.06 -12.66  0.53
Si  5.23 10.19 -5.55
Si -4.04  3.41 11.59
Si  0.16 -10.93  6.57
Si  6.82  4.92 -9.60
Si -10.91 -3.60  5.54
Si  2.13  4.91 -11.61
Si  0.54 -1.88 -12.65
Si  1.38 12.25  3.53
Si  7.36 10.20  2.53
Si  6.50  6.97 -8.59
Si -0.53 -2.10 12.65
Si -12.44  3.17  0.53
Si -0.78  8.47 -9.63
Si -2.42 -0.37 12.63
Si -9.01  8.47 -3.57
Si -0.17 -12.64  2.49
Si 12.42  3.41 -0.53
Si -7.09 10.20 -3.54
Si -4.90 -7.13  9.63
Si  2.42  1.67 -12.64
Si  8.96  8.70  3.57
Si -11.21 -0.37  6.57
Si  0.73  8.70  9.63
Si -11.76 -0.37 -5.55
Si  3.25 -0.37 12.63
Si -0.54  3.18 12.65
Si  6.84 -5.64 -9.60
Si  4.93 -7.37 -9.63
Si  2.15 -5.65 -11.61
Si -3.54  4.91 -11.61
Si 11.21  1.67 -6.58
Si -1.13 -8.86  9.59
Si 11.76  1.67  5.54
Si  0.53  3.40 -12.65
Si -6.11 10.19 -5.55
Si  3.93 12.25 -2.53
Si -2.33 -12.41  3.57
Si -3.25  1.67 -12.64
Si  8.34 10.19  0.51
Si  7.67  8.46  6.59
Si 10.91  4.91 -5.55
Si -12.74 -0.36 -3.54
Si 11.47 -0.37  6.57
Si -4.80 -8.87 -8.59
Si -4.55 -12.43 -0.53
Si 10.23  8.45  0.53
Si 13.05 -0.36  2.53
Si 12.74  1.69  3.53
Si -11.47  1.67 -6.58
Si -5.56 10.19  6.57
Si  3.34 -12.41  3.57
Si  5.28 -10.93 -5.55
Si  9.65 -8.87 -2.53
Si  2.39 -12.64 -3.57
Si -7.72  8.68 -6.59
Si -0.87 10.20  8.59
Si  2.44 -3.61 -12.64
Si -3.52 -5.65 -11.61
Si -8.67 10.19  0.51
Si  9.88 -7.15  5.53
Si -13.05  1.69 -2.53
Si  5.78 10.19  6.57
Si  7.41 -10.92  2.53
Si  0.39 12.23  5.54
Si -11.12 -7.13 -2.49
Si -4.29 12.25  3.53
Si -7.04 -10.92 -3.54
Si -10.28  8.69 -0.53
Si  9.33 -7.15 -6.59
Si  4.61 -12.66  0.53
Si 11.22 -3.61 -6.58
Si -9.85 -7.38 -5.53
Si 10.93 -5.65 -5.55
Si 11.77 -3.60  5.54
Si -3.23 -3.61 -12.64
Si -3.28 -12.64 -3.57
Si 10.49 -0.36  8.59
Si -9.30 -7.38  6.59
Si 11.15 -7.36  2.49
Si  6.44 -7.13  9.63
Si -10.49  1.69 -8.59
Si -6.06 -10.93 -5.55
Si -1.44 -12.43  5.53
Si -6.84  6.97  9.59
Si -11.46 -3.61 -6.58
Si -2.15  6.95 11.61
Si 12.75 -3.58  3.53
Si -6.41 -7.37 -9.63
Si  1.66 -7.15 11.59
Si  4.89  8.47 -9.63
Si -13.04 -3.59 -2.53
Si -9.91 -8.86  3.53
Si -2.44  4.91 12.63
Si -5.44 -12.41 -2.49
Si -5.13 -1.88 -12.65
Si  8.39 -10.93  0.51
Si -1.12 13.73  0.53
Si 11.55 -7.13 -2.49
Si  5.14 -2.10 12.65
Si  4.54 -8.86  9.59
Si  7.31 -1.87 11.59
Si -1.62 -7.38 -11.59
Si -7.31 -2.10 -11.59
Si -0.16 12.23 -6.58
Si -5.51 -10.93  6.57
Si -4.94  8.70  9.63
Si  1.50 -12.66 -5.53
Si -11.22  4.91  6.57
Si -11.53 -7.36  2.49
Si -11.77  4.91 -5.55
Si -0.82 -10.91  8.59
Si -8.62 -10.93  0.51
Si  3.23  4.91 12.63
Si  5.90 -12.41 -2.49
Si  6.54 -8.87 -8.59
Si  8.44 -7.13 -8.55
Si -0.24 13.75  2.49
Si  3.52  6.95 11.61
Si -10.18 -0.36 -9.60
Si  7.81 -0.37 -11.61
Si  5.50 -12.64  2.49
