500
set: 1380.00  0.00  0.00
Si -0.09  0.93  0.53
Si -0.50  0.02 -1.65
Si  1.21 -1.31 -0.45
Si  0.15 -1.82  1.59
Si -1.19  0.40  2.56
Si -0.36  3.10 -0.45
Si  2.29  1.68  1.65
Si -1.42  2.59  1.59
Si -2.85 -1.24 -1.35
Si -2.21 -2.59  0.45
Si -0.72  2.20 -2.62
Si  0.84 -2.21 -2.62
Si  3.57 -0.07 -0.76
Si  0.60  0.54 -3.69
Si  1.48 -3.48  0.53
Si  0.51 -0.92  3.77
Si  2.98  1.29 -2.57
Si -3.78  1.81  0.45
Si  2.88  0.32  3.46
Si -4.50 -0.07 -0.76
Si -3.55 -0.85  2.86
Si  4.29  1.81  0.45
Si  0.38 -4.00  2.56
Si  1.07 -4.39 -1.65
Si  2.00  4.34 -0.76
Si -0.78  1.31  4.75
Si  3.86 -2.73  1.65
Si  3.65  3.17 -1.35
Si -1.52 -2.98 -3.77
Si -3.09  1.43 -3.77
Si -2.06  4.42 -1.65
Si -1.05  3.48  3.77
Si -4.21 -2.73  1.65
Si  1.90 -1.70 -4.67
Si -3.52 -3.12 -2.57
Si -2.93 -4.47 -0.76
Si  0.33  2.71 -4.67
Si  4.52 -0.85  2.86
Si  2.96  3.56  2.86
Si  5.21 -1.24 -1.35
Si -4.42  3.17 -1.35
Si -1.65  5.33  0.53
Si  0.79 -3.09  4.75
Si  2.17 -3.87 -3.69
Si -5.08  1.29 -2.57
Si  0.20 -0.37 -5.87
Si -2.90 -2.21  4.66
Si -1.29 -5.65 -1.35
Si  1.31  4.73  3.46
Si -0.54 -1.43  5.81
Si  4.55 -3.12 -2.57
Si -2.75  4.81  2.56
Si -2.16 -1.63 -5.57
Si -5.78  1.68  1.65
Si -5.19  0.32  3.46
Si -0.96  4.95 -3.69
Si -3.81 -0.45 -4.98
Si  3.60  2.20  4.66
Si -1.98 -5.26  2.86
Si  0.72  6.08  1.65
Si  2.77 -5.72 -0.45
Si  1.42  5.70 -2.57
Si  4.98  1.43 -3.77
Si  5.86 -2.59  0.45
Si  1.60  2.06  5.87
Si -3.63 -4.09  3.46
Si  4.26 -0.45 -4.98
Si  1.72 -6.23  1.59
Si  2.73  6.22  0.45
Si -4.47  2.20  4.66
Si  2.08 -5.33  3.77
Si  5.14 -4.47 -0.76
Si -5.11  3.56  2.86
Si -2.11  2.98  5.81
Si  2.70  3.96 -4.98
Si  4.44 -4.09  3.46
Si -6.86 -1.31 -0.45
Si -0.65 -7.00  0.45
Si  3.16 -2.34  5.87
Si -0.03  1.81 -6.84
Si -1.88  0.79  6.78
Si -1.37  4.04 -5.87
Si -3.73  2.78 -5.57
Si  5.16 -2.21  4.66
Si -2.24 -4.86 -4.98
Si  6.65  2.59  1.59
Si  6.88  0.40  2.56
Si -2.29  6.61 -2.62
Si -6.59 -3.48  0.53
Si  1.54 -2.60 -6.84
Si -6.07  4.34 -0.76
Si  2.41 -6.62 -2.62
Si  4.34  2.78 -5.57
Si  5.31  4.81  2.56
Si  6.01  4.42 -1.65
Si -0.32 -3.62  6.78
Si  3.42  5.83 -3.77
Si  7.57  0.02 -1.65
Si -1.93  7.50 -0.45
Si -2.98  7.00  1.59
Si  3.68  0.90 -6.79
Si  1.76 -4.78 -5.87
Si -2.65 -7.14  1.65
Si -2.35  5.72  4.75
Si -5.30 -5.72 -0.45
Si -6.17 -1.70 -4.67
Si -5.90 -3.87 -3.69
Si  2.08  7.58 -1.35
Si -7.23 -2.21 -2.62
Si -4.91 -2.34  5.87
Si -0.18 -0.54  7.98
Si  2.19  0.71  7.68
Si  1.30  0.15 -7.91
Si  7.98  0.93  0.53
Si  3.83 -0.47  7.08
Si  7.35  2.20 -2.62
Si  6.55 -2.98 -3.77
Si -4.39  0.90 -6.79
Si -2.83 -3.50 -6.79
Si -1.95 -7.53 -2.57
Si -1.34 -6.61  4.66
Si -5.34  6.22  0.45
Si -8.16  0.93  0.53
Si -0.60 -6.04 -5.57
Si -4.24 -0.47  7.08
Si -7.92 -1.82  1.59
Si  5.91 -1.63 -5.57
Si  0.05 -7.39 -3.77
Si  1.02 -5.84  5.81
Si  7.71  3.10 -0.45
Si -5.37  3.96 -4.98
Si  2.03  6.61  4.66
Si -7.46  0.54 -3.69
Si -4.65  5.83 -3.77
Si  6.42  5.33  0.53
Si -2.39  1.04 -7.99
Si  2.26  3.94  7.08
Si -7.00 -4.39 -1.65
Si  3.46 -6.11 -4.67
Si  3.04 -7.89  0.53
Si -7.56 -0.92  3.77
Si  6.09 -5.26  2.86
Si  8.22 -1.82  1.59
Si  1.39  7.96  2.86
Si -1.23  7.12 -4.67
Si  7.02  3.48  3.77
Si -0.83 -3.37 -7.99
Si -8.57  0.02 -1.65
Si  0.03  6.47  5.87
Si  0.44  8.75 -0.76
Si  7.29  1.31  4.75
Si  5.09  7.00  1.59
Si  5.96  2.98  5.81
Si -5.99 -5.33  3.77
Si  2.11  5.31 -6.79
Si  6.78 -5.65 -1.35
Si -6.76  4.73  3.46
Si -4.61 -6.11 -4.67
Si -6.47  2.06  5.87
Si -8.43  3.10 -0.45
Si -2.67 -4.87  7.08
Si  1.94 -8.41  2.56
Si -1.37 -8.88 -0.76
Si -6.35 -6.23  1.59
Si -7.69 -4.00  2.56
Si -1.75  3.87  7.98
Si  5.83 -4.86 -4.98
Si -5.66 -6.62 -2.62
Si  5.42 -7.14  1.65
Si -6.65  5.70 -2.57
Si -2.62  7.89  3.77
Si -0.27  4.56 -7.91
Si  5.78  6.61 -2.62
Si  2.35 -7.50  4.75
Si  6.19  0.79  6.78
Si -3.45  5.20  6.78
Si -7.28 -3.09  4.75
Si -1.47  1.70  8.96
Si  1.02  2.32 -8.89
Si  0.62  5.12  7.68
Si  5.24 -3.50 -6.79
Si  3.75 -3.70  7.68
Si  2.63 -8.80 -1.65
Si  0.09 -2.71  8.96
Si -5.03 -7.89  0.53
Si  9.28 -1.31 -0.45
Si  5.72  5.72  4.75
Si -1.60  6.22 -6.84
Si -2.06 -8.49  3.46
Si  7.11  4.95 -3.69
Si  8.58 -0.92  3.77
Si  2.86 -4.25 -7.91
Si -7.74  2.71 -4.67
Si -8.79  2.20 -2.62
Si  8.67  0.54 -3.69
Si  2.59 -2.08 -8.89
Si  1.39 -4.94  7.98
Si  2.77  7.19 -5.57
Si -3.34 -6.75  5.87
Si  8.91 -2.21 -2.62
Si -4.32 -3.70  7.68
Si -9.26  0.40  2.56
Si  7.53 -1.43  5.81
Si -7.34  6.08  1.65
Si -3.63  8.83 -1.65
Si  8.45 -4.00  2.56
Si  2.90  2.59  8.88
Si -5.88  0.71  7.68
Si  6.14  7.50 -0.45
Si  4.62  5.20  6.78
Si -3.11 -0.84 -9.19
Si -5.99  7.58 -1.35
Si -3.60 -1.82  8.88
Si -0.25  9.14  3.46
Si  6.70  4.04 -5.87
Si  1.13  8.36 -4.98
Si  3.74 -8.28 -3.69
Si -6.53 -2.60 -6.84
Si -7.87 -0.37 -5.87
Si -6.31 -4.78 -5.87
Si  5.68  1.04 -7.99
Si -9.48  2.59  1.59
Si -5.81  3.94  7.08
Si  8.40  2.71 -4.67
Si  4.44  8.83 -1.65
Si  6.12 -7.53 -2.57
Si -4.33 -8.28 -3.69
Si -3.67  7.38  5.81
Si -0.42 -9.67  2.86
Si -6.04  6.61  4.66
Si -1.47 -2.02 -9.79
Si  4.47 -1.82  8.88
Si  4.73 -6.75  5.87
Si -8.85  1.31  4.75
Si  8.27 -0.37 -5.87
Si  5.39 -4.87  7.08
Si  0.28 -10.05 -1.35
Si  0.89 -0.76 -10.09
Si -1.23 -1.04 10.03
Si  9.55 -3.48  0.53
Si  7.42 -7.00  0.45
Si  3.10 -7.00 -6.84
Si  9.14 -4.39 -1.65
Si -3.22  9.74  0.53
Si  3.75  9.22  2.56
Si  5.45  7.89  3.77
Si -2.53  9.36 -3.69
Si  4.40  7.38  5.81
Si -5.21 -4.25 -7.91
Si -6.77  0.15 -7.91
Si  0.91  2.45 10.09
Si -0.15 10.11 -2.57
Si  3.39  3.57 -9.19
Si -3.96  5.45 -7.99
Si -9.12  3.48  3.77
Si -5.43 -8.80 -1.65
Si -5.96  5.31 -6.79
Si  4.96 -0.84 -9.19
Si -8.61 -1.43  5.81
Si -1.26 -7.91 -6.79
Si -4.32  9.22  2.56
Si  4.11  5.45 -7.99
Si  8.85 -3.09  4.75
Si -5.29  7.19 -5.57
Si  6.73 -6.61  4.66
Si -3.04  2.39 -9.79
Si -0.67 -9.27 -4.98
Si -5.72 -7.50  4.75
Si  2.47 -1.96 10.09
Si  1.25 -8.02  6.78
Si -5.16  2.59  8.88
Si -10.28 -2.59  0.45
Si 10.36  1.68  1.65
Si -5.48 -2.08 -8.89
Si -0.84 10.49  1.65
Si -2.94  8.45 -5.87
Si -1.55 -5.25 -9.19
Si  1.16 10.63  0.45
Si  8.04  1.81 -6.84
Si -6.13 -8.41  2.56
Si -9.59 -2.98 -3.77
Si -0.68  3.65 -10.09
Si -8.10  1.81 -6.84
Si -6.68  7.96  2.86
Si -3.73 -10.12 -0.45
Si  8.79  6.08  1.65
Si -7.04 -5.84  5.81
Si  4.85  9.74  0.53
Si  6.32  3.87  7.98
Si -4.68  3.57 -9.19
Si  7.75 -3.62  6.78
Si  6.84  7.12 -4.67
Si -9.03  4.95 -3.69
Si -2.80  3.36 10.03
Si  6.01 -8.49  3.46
Si  0.70  8.35  7.08
Si -4.97 -7.00 -6.84
Si 10.07  4.34 -0.76
Si -9.36 -5.65 -1.35
Si  4.34 -10.12 -0.45
Si -2.03 -6.23  8.88
Si  3.65 -9.74  3.77
Si  9.38  4.73  3.46
Si  1.85 10.24 -3.77
Si -10.92 -1.24 -1.35
Si -9.72  5.33  0.53
Si  7.47 -6.04 -5.57
Si  9.97 -1.70 -4.67
Si  6.70 -8.88 -0.76
Si -0.54  6.73 -8.89
Si  0.66  1.43 -11.06
Si  0.74 -7.78 -7.99
Si -10.13  4.42 -1.65
Si -8.72 -7.00  0.45
Si  7.89 -0.54  7.98
Si  3.28 -10.64  1.59
Si  6.60  1.70  8.96
Si -3.04  6.11  8.96
Si  5.03  2.39 -9.79
Si  6.47  6.22 -6.84
Si  7.24 -3.37 -7.99
Si -4.42 -9.74  3.77
Si -2.58  1.18 11.00
Si  9.49  5.70 -2.57
Si -8.38 -3.62  6.78
Si  1.34  7.00  8.88
Si  3.33 -9.19 -5.87
Si 11.05  1.29 -2.57
Si  0.33 -5.45 10.03
Si  0.92 -11.41  0.45
Si  5.54  9.36 -3.69
Si 10.95  0.32  3.46
Si -8.25 -0.54  7.98
Si  5.13  8.45 -5.87
Si  9.67  2.06  5.87
Si -2.75 -8.11  7.68
Si -1.01 -3.23 11.00
Si -6.68 -4.94  7.98
Si -8.02 -7.39 -3.77
Si 10.24 -3.87 -3.69
Si  1.66 -7.11  8.96
Si -7.04  2.32 -8.89
Si  2.45 -5.17 -10.09
Si  8.12 -7.39 -3.77
Si -3.70  0.52 -11.00
Si -7.63  8.75 -0.76
Si 11.64 -0.07 -0.76
Si  2.23 -2.98 -11.06
Si -3.91 -6.49 -8.89
Si -10.05 -5.26  2.86
Si -5.60 -1.96 10.09
Si  9.79 -6.23  1.59
Si  0.10 -6.42 -9.79
Si -1.08 -11.55  1.65
Si -1.11 -9.28  7.08
Si  3.14 -0.08 11.30
Si -10.23 -1.63 -5.57
Si  4.16 -6.49 -8.89
Si -4.79 -10.64  1.59
Si  5.27  3.36 10.03
Si -9.44  4.04 -5.87
Si  4.37  0.52 -11.00
Si -3.91 10.13  4.75
Si -7.45  5.12  7.68
Si -11.15  1.43 -3.77
Si  0.55  9.72 -6.79
Si -2.13 -3.89 -11.00
Si -8.04  6.47  5.87
Si  0.97 -10.44 -5.57
Si -4.74 -9.19 -5.87
Si -3.04 -10.51 -4.67
Si -11.00 -4.47 -0.76
Si  8.10  6.47  5.87
Si 11.03  3.56  2.86
Si  4.16 10.13  4.75
Si -8.66 -6.04 -5.57
Si -6.94  8.36 -4.98
Si  5.03  6.11  8.96
Si -3.85 11.02 -2.62
Si -3.31  8.28  7.98
Si  0.23 -11.02  4.66
Si  0.47 11.02  4.66
Si  6.60 -2.02 -9.79
Si -11.85  1.81  0.45
Si -11.62 -0.85  2.86
Si  3.98 -11.02 -2.62
Si  7.80  4.56 -7.91
Si  1.49  1.10 11.90
Si  3.52 11.40  1.59
Si -4.09 -11.02 -2.62
Si  2.59 -10.25  5.81
Si 10.15 -5.33  3.77
Si -9.95  0.79  6.78
Si  0.52 11.98 -1.35
Si  9.61 -2.60 -6.84
Si  4.21 11.02 -2.62
Si -10.18  2.98  5.81
Si -1.83  8.97 -7.91
Si -10.82  4.81  2.56
Si -10.97 -2.21  4.66
Si  3.06  9.61  6.78
Si  6.83 -1.04 10.03
Si  1.57  4.33 11.30
Si -0.39 -11.93 -2.57
Si 11.72  3.17 -1.35
Si -0.66  6.86 10.09
Si  8.51  8.75 -0.76
Si -0.87 -0.15 12.20
Si  9.37  0.15 -7.91
Si 10.84 -5.72 -0.45
Si -0.95  9.53  7.68
Si  9.09 -5.84  5.81
Si -11.59 -3.12 -2.57
Si -3.64 -8.66 -7.91
Si  1.99 -0.23 -12.13
Si -7.98 -2.71  8.96
Si  1.82  7.97 -9.19
Si -4.93 -0.08 11.30
Si -1.70  0.65 -12.21
Si 11.93 -2.73  1.65
Si  5.49  1.18 11.00
Si -8.34  4.56 -7.91
Si  5.32 -8.11  7.68
Si  2.80  4.92 -11.00
Si -4.55 11.40  1.59
Si -7.18 -0.76 -10.09
Si  9.83 -4.78 -5.87
Si -9.41 -6.61  4.66
Si  6.04 -6.23  8.88
Si  3.47  6.80 -9.79
Si  8.16 -2.71  8.96
Si -3.49 11.91 -0.45
Si -8.90 -3.37 -7.99
Si  6.52 -5.25 -9.19
Si -10.31 -4.86 -4.98
Si  4.76  8.28  7.98
Si  6.81 -7.91 -6.79
Si -1.53 10.88  5.87
Si 10.79  6.22  0.45
Si  1.61 -11.80 -3.77
Si 12.36  1.81  0.45
Si 10.77  3.96 -4.98
Si -9.99  7.50 -0.45
Si  7.82  9.14  3.46
Si -6.82 -8.02  6.78
Si -0.90  5.83 -11.06
Si  4.43 -8.66 -7.91
Si  5.03 -10.51 -4.67
Si -6.22 10.24 -3.77
Si -10.36  6.61 -2.62
Si -4.03 -6.36 10.09
Si -12.57 -0.07 -0.76
Si  4.04 -6.36 10.09
Si -9.30  7.12 -4.67
Si -7.16  2.45 10.09
Si -3.37 -4.49 11.30
Si  2.95 -9.35  7.98
Si -5.62 -5.17 -10.09
Si  7.65 -9.67  2.86
Si 10.48 -6.62 -2.62
Si  8.69  5.12  7.68
Si -6.91 10.63  0.45
Si -12.28 -2.73  1.65
Si  9.46  7.96  2.86
Si -0.18 12.37  2.86
Si  3.06 -3.31 11.90
Si -1.77 -11.16  5.87
Si 10.15  7.58 -1.35
Si -2.80 11.53 -4.67
Si 11.67  2.20  4.66
Si  4.58 11.91 -0.45
Si -0.14 -3.76 -12.21
Si -4.60  6.80 -9.79
Si -3.46 -12.29  0.53
Si -5.01  9.61  6.78
Si -7.79 -10.05 -1.35
Si -10.02 -7.53 -2.57
Si -10.42  5.72  4.75
Si 10.25  0.71  7.68
Si  0.42  4.17 -12.13
Si -8.32  9.14  3.46
Si  7.23 10.49  1.65
Si -5.84 -2.98 -11.06
Si  7.39 -9.27 -4.98
Si -11.70 -4.09  3.46
Si -11.88 -0.45 -4.98
Si 11.23 -2.34  5.87
Si  1.21 11.60 -5.57
Si  9.09  2.32 -8.89
Si  2.54  9.85 -7.99
Si 12.59 -0.85  2.86
Si 10.10  6.61  4.66
Si  3.93  5.59 11.00
Si -12.49  3.17 -1.35
Si -9.44 -8.88 -0.76
Si -10.71 -7.14  1.65
Si -5.48 -10.25  5.81
Si -4.14  5.59 11.00
Si -3.16 10.63 -6.84
Si  7.39  3.65 -10.09
