500
set: 639.00  0.00  0.00
Si  0.79 -1.20  0.96
Si -0.79  1.20 -0.96
Si  1.06  1.15  0.96
Si -1.06 -1.15 -0.96
Si  2.20 -1.15 -0.96
Si -2.20  1.15  0.96
Si -0.51  0.48  2.62
Si  0.51 -0.48 -2.62
Si  2.47  1.20 -0.96
Si -2.47 -1.20  0.96
Si  0.77  1.87 -2.62
Si -0.77 -1.87  2.62
Si  0.53 -3.56  0.96
Si -0.53  3.56 -0.96
Si  2.75  0.48  2.62
Si -2.75 -0.48 -2.62
Si -0.24  2.83  2.62
Si  0.24 -2.83 -2.62
Si  1.32  3.50  0.96
Si -1.32 -3.50 -0.96
Si -2.49  1.87 -2.62
Si  2.49 -1.87  2.62
Si -1.94  3.50  0.96
Si  1.94 -3.50 -0.96
Si  4.05 -1.20  0.96
Si -4.05  1.20 -0.96
Si -4.32 -1.15 -0.96
Si  4.32  1.15  0.96
Si -2.73 -3.56  0.96
Si  2.73  3.56 -0.96
Si -3.77  0.48  2.62
Si  3.77 -0.48 -2.62
Si -1.34 -0.43 -4.55
Si  1.34  0.43  4.55
Si  3.02  2.83  2.62
Si -3.02 -2.83 -2.62
Si -1.92  0.43  4.55
Si  1.92 -0.43 -4.55
Si  1.08 -1.92  4.55
Si -1.08  1.92 -4.55
Si  1.04  4.23 -2.62
Si -1.04 -4.23  2.62
Si -4.04 -1.87  2.62
Si  4.04  1.87 -2.62
Si -3.50  2.83  2.62
Si  3.50 -2.83 -2.62
Si  3.79 -3.56  0.96
Si -3.79  3.56 -0.96
Si -2.18 -1.92  4.55
Si  2.18  1.92 -4.55
Si -2.22  4.23 -2.62
Si  2.22 -4.23  2.62
Si  1.61  2.78  4.55
Si -1.61 -2.78 -4.55
Si  1.65 -2.78 -4.55
Si -1.65  2.78  4.55
Si  5.46 -1.15 -0.96
Si -5.46  1.15  0.96
Si  0.02  5.19  2.62
Si -0.02 -5.19 -2.62
Si -4.59 -3.50 -0.96
Si  4.59  3.50  0.96
Si -5.73 -1.20  0.96
Si  5.73  1.20 -0.96
Si -0.26  5.91 -0.96
Si  0.26 -5.91  0.96
Si  1.59  5.86  0.96
Si -1.59 -5.86 -0.96
Si  1.67 -5.86 -0.96
Si -1.67  5.86  0.96
Si  0.22  0.24 -6.20
Si -0.22 -0.24  6.20
Si -0.81  4.28 -4.55
Si  0.81 -4.28  4.55
Si -5.20  3.50  0.96
Si  5.20 -3.50 -0.96
Si  4.61  0.43  4.55
Si -4.61 -0.43 -4.55
Si  0.04  2.11  6.20
Si -0.04 -2.11 -6.20
Si  4.30  4.23 -2.62
Si -4.30 -4.23  2.62
Si  4.34 -1.92  4.55
Si -4.34  1.92 -4.55
Si  6.01  0.48  2.62
Si -6.01 -0.48 -2.62
Si  5.75 -1.87  2.62
Si -5.75  1.87 -2.62
Si -3.24  5.19  2.62
Si  3.24 -5.19 -2.62
Si  3.29  5.19  2.62
Si -3.29 -5.19 -2.62
Si -3.00 -5.91  0.96
Si  3.00  5.91 -0.96
Si  2.45  4.28 -4.55
Si -2.45 -4.28  4.55
Si -0.49 -2.60  6.20
Si  0.49  2.60 -6.20
Si -5.18  0.43  4.55
Si  5.18 -0.43 -4.55
Si  3.04 -0.24  6.20
Si -3.04  0.24 -6.20
Si  3.52 -5.91  0.96
Si -3.52  5.91 -0.96
Si -1.39  5.13  4.55
Si  1.39 -5.13 -4.55
Si -6.00 -3.56  0.96
Si  6.00  3.56 -0.96
Si  1.88  5.13  4.55
Si -1.88 -5.13 -4.55
Si -3.48 -0.24  6.20
Si  3.48  0.24 -6.20
Si -1.30 -6.58  2.62
Si  1.30  6.58 -2.62
Si  4.87  2.78  4.55
Si -4.87 -2.78 -4.55
Si -4.91  2.78  4.55
Si  4.91 -2.78 -4.55
Si  2.77 -2.60  6.20
Si -2.77  2.60 -6.20
Si  3.22 -2.11 -6.20
Si -3.22  2.11  6.20
Si -3.31 -2.11 -6.20
Si  3.31  2.11  6.20
Si -1.96  6.58 -2.62
Si  1.96 -6.58  2.62
Si  5.44  1.92 -4.55
Si -5.44 -1.92  4.55
Si -6.28 -2.83 -2.62
Si  6.28  2.83  2.62
Si -5.48  4.23 -2.62
Si  5.48 -4.23  2.62
Si -4.08  4.28 -4.55
Si  4.08 -4.28  4.55
Si -7.32  1.20 -0.96
Si  7.32 -1.20  0.96
Si -7.03  0.48  2.62
Si  7.03 -0.48 -2.62
Si -0.31 -4.46 -6.20
Si  0.31  4.46  6.20
Si  4.85  5.86  0.96
Si -4.85 -5.86 -0.96
Si -3.75 -2.60  6.20
Si  3.75  2.60 -6.20
Si  4.93 -5.86 -0.96
Si -4.93  5.86  0.96
Si  7.58  1.15  0.96
Si -7.58 -1.15 -0.96
Si  6.77 -2.83 -2.62
Si -6.77  2.83  2.62
Si  7.05 -3.56  0.96
Si -7.05  3.56 -0.96
Si -0.75 -4.95  6.20
Si  0.75  4.95 -6.20
Si  7.30  1.87 -2.62
Si -7.30 -1.87  2.62
Si -0.29 -7.54 -2.62
Si  0.29  7.54  2.62
Si  0.55 -6.63  4.55
Si -0.55  6.63 -4.55
Si  2.95 -4.46 -6.20
Si -2.95  4.46  6.20
Si -4.65  5.13  4.55
Si  4.65 -5.13 -4.55
Si  1.63 -0.29  8.13
Si -1.63  0.29 -8.13
Si -1.63 -0.29  8.13
Si  1.63  0.29 -8.13
Si  0.00  8.26 -0.96
Si -0.00 -8.26  0.96
Si -2.51  4.95 -6.20
Si  2.51 -4.95  6.20
Si -1.41  8.21  0.96
Si  1.41 -8.21 -0.96
Si  4.57  6.58 -2.62
Si -4.57 -6.58  2.62
Si  3.57  4.46  6.20
Si -3.57 -4.46 -6.20
Si -5.71 -4.28  4.55
Si  5.71  4.28 -4.55
Si  1.86  8.21  0.96
Si -1.86 -8.21 -0.96
Si  2.71  6.63 -4.55
Si -2.71 -6.63  4.55
Si  1.37 -2.06 -8.13
Si -1.37  2.06  8.13
Si -2.97  7.54  2.62
Si  2.97 -7.54 -2.62
Si  5.14  5.13  4.55
Si -5.14 -5.13 -4.55
Si  1.90  2.06  8.13
Si -1.90 -2.06 -8.13
Si  7.85  3.50  0.96
Si -7.85 -3.50 -0.96
Si  1.36 -2.65  8.13
Si -1.36  2.65 -8.13
Si -6.26 -5.91  0.96
Si  6.26  5.91 -0.96
Si  6.50 -5.19 -2.62
Si -6.50  5.19  2.62
Si  3.55  7.54  2.62
Si -3.55 -7.54 -2.62
Si -6.55 -5.19 -2.62
Si  6.55  5.19  2.62
Si -1.90 -2.65  8.13
Si  1.90  2.65 -8.13
Si -5.22  6.58 -2.62
Si  5.22 -6.58  2.62
Si  1.12 -7.49 -4.55
Si -1.12  7.49  4.55
Si -6.30  0.24 -6.20
Si  6.30 -0.24  6.20
Si  8.73 -1.15 -0.96
Si -8.73  1.15  0.96
Si -4.01 -4.95  6.20
Si  4.01  4.95 -6.20
Si -3.81  6.63 -4.55
Si  3.81 -6.63  4.55
Si  3.26 -8.26  0.96
Si -3.26  8.26 -0.96
Si -3.27 -8.26  0.96
Si  3.27  8.26 -0.96
Si  2.14  7.49  4.55
Si -2.14 -7.49 -4.55
Si -6.04  2.60 -6.20
Si  6.04 -2.60  6.20
Si -6.79  5.91 -0.96
Si  6.79 -5.91  0.96
Si  7.56  4.23 -2.62
Si -7.56 -4.23  2.62
Si -7.60  1.92 -4.55
Si  7.60 -1.92  4.55
Si -7.87 -0.43 -4.55
Si  7.87  0.43  4.55
Si -8.99 -1.20  0.96
Si  8.99  1.20 -0.96
Si -6.75 -0.24  6.20
Si  6.75  0.24 -6.20
Si  8.46 -3.50 -0.96
Si -8.46  3.50  0.96
Si  6.48 -2.11 -6.20
Si -6.48  2.11  6.20
Si -0.57 -6.82 -6.20
Si  0.57  6.82  6.20
Si -6.57 -2.11 -6.20
Si  6.57  2.11  6.20
Si -1.10  4.41  8.13
Si  1.10 -4.41 -8.13
Si -1.57 -8.93  2.62
Si  1.57  8.93 -2.62
Si -1.69  8.93 -2.62
Si  1.69 -8.93  2.62
Si -4.89  0.29 -8.13
Si  4.89 -0.29  8.13
Si  4.89  0.29 -8.13
Si -4.89 -0.29  8.13
Si  4.67 -8.21 -0.96
Si -4.67  8.21  0.96
Si  2.16  4.41  8.13
Si -2.16 -4.41 -8.13
Si -9.01  1.87 -2.62
Si  9.01 -1.87  2.62
Si  4.63 -2.06 -8.13
Si -4.63  2.06  8.13
Si  8.44 -0.43 -4.55
Si -8.44  0.43  4.55
Si -2.69  6.82  6.20
Si  2.69 -6.82 -6.20
Si -1.10  5.00 -8.13
Si  1.10 -5.00  8.13
Si  7.34 -4.28  4.55
Si -7.34  4.28 -4.55
Si -1.02 -7.30  6.20
Si  1.02  7.30 -6.20
Si  9.28  0.48  2.62
Si -9.28 -0.48 -2.62
Si -7.01 -2.60  6.20
Si  7.01  2.60 -6.20
Si -4.63  2.65 -8.13
Si  4.63 -2.65  8.13
Si  5.12  8.21  0.96
Si -5.12 -8.21 -0.96
Si -8.13 -2.78 -4.55
Si  8.13  2.78  4.55
Si  8.18 -2.78 -4.55
Si -8.18  2.78  4.55
Si  2.16  5.00 -8.13
Si -2.16 -5.00  8.13
Si -4.38  7.49  4.55
Si  4.38 -7.49 -4.55
Si  5.77 -4.95  6.20
Si -5.77  4.95 -6.20
Si -0.06  0.96 -9.78
Si  0.06 -0.96  9.78
Si -2.24  7.30 -6.20
Si  2.24 -7.30  6.20
Si  5.16  2.06  8.13
Si -5.16 -2.06 -8.13
Si  6.21 -4.46 -6.20
Si -6.21  4.46  6.20
Si  0.33  1.39  9.78
Si -0.33 -1.39 -9.78
Si -9.26 -3.56  0.96
Si  9.26  3.56 -0.96
Si -3.84 -6.82 -6.20
Si  3.84  6.82  6.20
Si -5.16 -2.65  8.13
Si  5.16  2.65 -8.13
Si -8.71 -1.92  4.55
Si  8.71  1.92 -4.55
Si -5.97 -6.63  4.55
Si  5.97  6.63 -4.55
Si  8.11  5.86  0.96
Si -8.11 -5.86 -0.96
Si -8.75  4.23 -2.62
Si  8.75 -4.23  2.62
Si -0.28  8.98 -4.55
Si  0.28 -8.98  4.55
Si  8.20 -5.86 -0.96
Si -8.20  5.86  0.96
Si -6.23  7.54  2.62
Si  6.23 -7.54 -2.62
Si  4.36 -4.41 -8.13
Si -4.36  4.41  8.13
Si  0.55  9.89  2.62
Si -0.55 -9.89 -2.62
Si -6.83 -4.46 -6.20
Si  6.83  4.46  6.20
Si  5.40  7.49  4.55
Si -5.40 -7.49 -4.55
Si  9.54  2.83  2.62
Si -9.54 -2.83 -2.62
Si -2.93  1.39  9.78
Si  2.93 -1.39 -9.78
Si  0.20  3.32 -9.78
Si -0.20 -3.32  9.78
Si -3.20 -0.96  9.78
Si  3.20  0.96 -9.78
Si  3.33 -0.96  9.78
Si -3.33  0.96 -9.78
Si  7.91 -5.13 -4.55
Si -7.91  5.13  4.55
Si  4.83  8.93 -2.62
Si -4.83 -8.93  2.62
Si -0.59 -3.74 -9.78
Si  0.59  3.74  9.78
Si  4.28  7.30 -6.20
Si -4.28 -7.30  6.20
Si  4.36 -5.00  8.13
Si -4.36  5.00 -8.13
Si  6.81  7.54  2.62
Si -6.81 -7.54 -2.62
Si  2.98  8.98 -4.55
Si -2.98 -8.98  4.55
Si -3.59 -1.39 -9.78
Si  3.59  1.39  9.78
Si  4.95 -8.93  2.62
Si -4.95  8.93 -2.62
Si  7.83  6.58 -2.62
Si -7.83 -6.58  2.62
Si  6.52 -8.26  0.96
Si -6.52  8.26 -0.96
Si -6.53 -8.26  0.96
Si  6.53  8.26 -0.96
Si  2.71 -9.89 -2.62
Si -2.71  9.89  2.62
Si -0.83  6.77  8.13
Si  0.83 -6.77 -8.13
Si 10.29 -0.48 -2.62
Si -10.29  0.48  2.62
Si  0.27 10.62 -0.96
Si -0.27 -10.62  0.96
Si -1.14 10.56  0.96
Si  1.14 -10.56 -0.96
Si -3.54  8.98 -4.55
Si  3.54 -8.98  4.55
Si -10.58  1.20 -0.96
Si 10.58 -1.20  0.96
Si -7.07  6.63 -4.55
Si  7.07 -6.63  4.55
Si -5.42 -4.41 -8.13
Si  5.42  4.41  8.13
Si -10.03  2.83  2.62
Si 10.03 -2.83 -2.62
Si -7.28 -4.95  6.20
Si  7.28  4.95 -6.20
Si -3.06  3.32 -9.78
Si  3.06 -3.32  9.78
Si  2.67 -3.74 -9.78
Si -2.67  3.74  9.78
Si  2.12 10.56  0.96
Si -2.12 -10.56 -0.96
Si  8.40  5.13  4.55
Si -8.40 -5.13 -4.55
Si  2.43  6.77  8.13
Si -2.43 -6.77 -8.13
Si  0.85 -9.84 -4.55
Si -0.85  9.84  4.55
Si  3.46  3.32 -9.78
Si -3.46 -3.32  9.78
Si -3.82 -9.89 -2.62
Si  3.82  9.89  2.62
Si  8.97  4.28 -4.55
Si -8.97 -4.28  4.55
Si 10.84  1.15  0.96
Si -10.84 -1.15 -0.96
Si -10.31  3.56 -0.96
Si 10.31 -3.56  0.96
Si -5.95  6.82  6.20
Si  5.95 -6.82 -6.20
Si  5.42  5.00 -8.13
Si -5.42 -5.00  8.13
Si  0.83 -7.35  8.13
Si -0.83  7.35 -8.13
Si 10.56  1.87 -2.62
Si -10.56 -1.87  2.62
Si -5.50  7.30 -6.20
Si  5.50 -7.30  6.20
Si  8.48 -6.58  2.62
Si -8.48  6.58 -2.62
Si  2.99 -10.62  0.96
Si -2.99 10.62 -0.96
Si -0.84 -9.17 -6.20
Si  0.84  9.17  6.20
Si  2.41  9.84  4.55
Si -2.41 -9.84 -4.55
Si  3.86  3.74  9.78
Si -3.86 -3.74 -9.78
Si -2.43 -7.35  8.13
Si  2.43  7.35 -8.13
Si  3.53 10.62 -0.96
Si -3.53 -10.62  0.96
Si  9.52  5.91 -0.96
Si -9.52 -5.91  0.96
Si -0.47 -5.67  9.78
Si  0.47  5.67 -9.78
Si -2.42  9.17  6.20
Si  2.42 -9.17 -6.20
Si  4.10 -6.77 -8.13
Si -4.10  6.77  8.13
Si  9.76 -5.19 -2.62
Si -9.76  5.19  2.62
Si  9.56 -0.24  6.20
Si -9.56  0.24 -6.20
Si  9.81  5.19  2.62
Si -9.81 -5.19 -2.62
Si -7.93  8.21  0.96
Si  7.93 -8.21 -0.96
Si  9.30 -2.60  6.20
Si -9.30  2.60 -6.20
Si  4.40 -10.56 -0.96
Si -4.40 10.56  0.96
Si -7.89  2.06  8.13
Si  7.89 -2.06 -8.13
Si -8.15  0.29 -8.13
Si  8.15 -0.29  8.13
Si -8.15 -0.29  8.13
Si  8.15  0.29 -8.13
Si -1.28 -9.65  6.20
Si  1.28  9.65 -6.20
Si  0.86  6.10  9.78
Si -0.86 -6.10 -9.78
Si -4.12  9.84  4.55
Si  4.12 -9.84 -4.55
Si  7.64 -7.49 -4.55
Si -7.64  7.49  4.55
Si -7.89  2.65 -8.13
Si  7.89 -2.65  8.13
Si  7.10  6.82  6.20
Si -7.10 -6.82 -6.20
Si  1.98 -9.65  6.20
Si -1.98  9.65 -6.20
Si  2.79 -5.67  9.78
Si -2.79  5.67 -9.78
Si  6.19 -1.39 -9.78
Si -6.19  1.39  9.78
Si -1.43 11.29 -2.62
Si  1.43 -11.29  2.62
Si 11.11  3.50  0.96
Si -11.11 -3.50 -0.96
Si -10.05  5.91 -0.96
Si 10.05 -5.91  0.96
Si  4.09 -7.35  8.13
Si -4.09  7.35 -8.13
Si -1.84 -11.29  2.62
Si  1.84 11.29 -2.62
Si  9.74 -2.11 -6.20
Si -9.74  2.11  6.20
Si  6.46  0.96 -9.78
Si -6.46 -0.96  9.78
Si -8.38 -8.21 -0.96
Si  8.38  8.21  0.96
Si  2.40 -6.10 -9.78
Si -2.40  6.10  9.78
Si -10.01 -0.24  6.20
Si 10.01  0.24 -6.20
Si -4.10 -9.17 -6.20
Si  4.10  9.17  6.20
Si  9.83  2.11  6.20
Si -9.83 -2.11 -6.20
