500
set: 1101.00  0.00  0.00
Si  0.39 -1.10  0.73
Si -0.39  1.16 -0.80
Si  1.35  1.14  0.79
Si -1.38 -1.11 -0.79
Si -2.07  1.22  0.80
Si  0.82 -0.07 -2.39
Si -0.86 -0.04  2.39
Si  2.25 -1.12 -0.83
Si -3.00 -1.08  0.85
Si -0.00  2.25  2.43
Si -0.09 -2.33 -2.41
Si  3.12  1.24 -0.83
Si  2.56  0.01  2.49
Si -0.41 -3.46  0.79
Si -2.69 -0.09 -2.38
Si  0.38  3.50 -0.79
Si  1.66 -2.29  2.39
Si  1.68  2.28 -2.41
Si -1.70  2.20 -2.46
Si  1.36 -3.36 -0.83
Si -1.76 -2.35  2.43
Si -1.23  3.52  0.85
Si -3.77  1.24 -0.83
Si -0.88 -0.05 -4.00
Si  0.80 -0.03  4.03
Si  3.89 -1.08  0.85
Si -2.15 -3.45 -0.80
Si  2.15  3.50  0.73
Si -2.87  3.48 -0.83
Si  3.06 -3.39  0.80
Si  0.02  2.26 -4.04
Si -0.06 -2.37  4.04
Si -2.58 -0.10  3.97
Si  2.54  0.01 -4.04
Si  3.42  2.31  2.39
Si -3.47  2.31  2.39
Si  4.20 -0.09 -2.38
Si -4.63 -1.12 -0.83
Si  3.43 -2.40 -2.46
Si  1.68 -2.29 -3.95
Si -3.46 -2.40 -2.46
Si  1.71  2.23  4.04
Si -1.80  2.21  4.06
Si -1.74 -2.34 -4.04
Si -4.32  0.01  2.49
Si  4.82  1.22  0.80
Si -3.83 -3.39  0.80
Si -0.93  4.51 -2.38
Si  0.90  4.56  2.39
Si  0.80 -4.59  2.49
Si -0.94 -4.67 -2.39
Si  4.02  3.48 -0.83
Si  5.51 -1.11 -0.79
Si -5.54  1.14  0.79
Si -3.44  2.31 -3.95
Si  3.44  2.31 -3.95
Si  2.59  4.53 -2.39
Si  3.32 -2.39  4.06
Si  0.47 -1.16 -5.64
Si -0.50  1.19  5.65
Si  2.44 -4.69 -2.38
Si  0.49 -5.72 -0.83
Si -2.56  4.61  2.49
Si -2.62 -4.64  2.39
Si  4.31 -0.10  3.97
Si -0.30  5.82  0.80
Si -1.27 -1.15  5.63
Si -3.57 -2.39  4.06
Si -1.37 -5.70  0.73
Si  4.74 -3.45 -0.80
Si -4.74  3.50  0.73
Si -4.35  0.01 -4.04
Si  1.27  1.20 -5.70
Si  1.37  5.76 -0.80
Si -0.82  4.50  3.97
Si -2.12  1.22 -5.58
Si  0.88  4.55 -4.00
Si  2.13 -5.68  0.85
Si  2.24 -1.06  5.61
Si  5.13 -2.35  2.43
Si  5.19  2.20 -2.46
Si  0.78 -4.59 -4.04
Si -5.21  2.28 -2.41
Si -5.23 -2.29  2.39
Si -0.97 -4.63  4.03
Si -2.00  5.84 -0.83
Si -2.95 -1.09 -5.64
Si  6.03 -0.04  2.39
Si -6.07 -0.07 -2.39
Si -5.53 -3.36 -0.83
Si  3.14  1.18  5.60
Si -3.15 -5.71 -0.79
Si  3.11  5.74  0.79
Si  2.56  4.58  4.03
Si  0.49  3.46  5.63
Si -6.50 -1.10  0.73
Si  6.50  1.16 -0.80
Si -2.59  4.61 -4.04
Si -0.49 -3.40 -5.70
Si  2.55 -4.70  3.97
Si -2.64 -4.65 -4.00
Si -4.30  4.53 -2.39
Si  1.37 -3.42  5.60
Si  5.66  3.52  0.85
Si  4.27 -4.64  2.39
Si -1.19  3.52 -5.64
Si  4.33  4.61  2.49
Si -3.75  1.18  5.60
Si  3.74 -5.71 -0.79
Si  5.08  2.21  4.06
Si -4.45 -4.69 -2.38
Si -3.78  5.74  0.79
Si -5.21 -2.29 -3.95
Si -5.18  2.23  4.04
Si  5.15 -2.34 -4.04
Si  3.94 -1.09 -5.64
Si -2.26 -3.41  5.65
Si  2.23  3.44 -5.64
Si  3.01 -3.38 -5.58
Si  6.01 -0.05 -4.00
Si -2.88  3.54  5.61
Si  0.06  6.80 -2.46
Si -0.10 -6.89  2.39
Si -6.09 -0.03  4.03
Si  0.47 -1.16  7.23
Si -0.50  1.20 -7.22
Si -4.65 -1.06  5.61
Si  1.27  1.20  7.16
Si  6.47 -3.46  0.79
Si  7.28 -1.10  0.73
Si -7.28  1.16 -0.80
Si -6.51  3.50 -0.79
Si -1.27 -1.15 -7.24
Si  4.77  1.22 -5.58
Si -4.76 -5.68  0.85
Si  4.25 -4.65 -4.00
Si -4.33  4.58  4.03
Si  1.76  6.85  2.43
Si  4.30  4.61 -4.04
Si -1.71  6.91  2.39
Si -4.34 -4.70  3.97
Si -1.85 -6.93 -2.41
Si  6.80 -2.33 -2.41
Si -3.88 -3.38 -5.58
Si  1.67 -7.00 -2.46
Si  6.89  2.25  2.43
Si -6.89  2.25  2.43
Si  4.89  5.84 -0.83
Si  2.24 -1.06 -7.26
Si -2.12  1.22  7.29
Si -6.97 -2.33 -2.41
Si  4.01  3.54  5.61
Si  5.96  4.51 -2.38
Si -2.95 -1.09  7.23
Si -5.99  4.56  2.39
Si -0.04  6.81  4.06
Si  5.95 -4.67 -2.39
Si -0.08 -6.89 -3.95
Si -0.49 -3.40  7.16
Si  5.52 -5.70  0.73
Si  0.48 -5.67  5.61
Si  3.13  1.18 -7.26
Si -5.51  5.76 -0.80
Si -0.40 -7.96 -0.83
Si -6.09 -4.59  2.49
Si  0.49  3.46 -7.24
Si  5.62 -1.15  5.63
Si  4.62 -3.41  5.65
Si  3.44  6.88 -2.41
Si -3.45  6.88 -2.41
Si -0.35  5.82 -5.58
Si  7.71 -0.07 -2.39
Si -4.66  3.44 -5.64
Si -5.62  1.20 -5.70
Si  3.37 -6.95  2.43
Si  7.27  3.50 -0.79
Si -7.75 -0.04  2.39
Si -7.30 -3.46  0.79
Si -1.19  3.52  7.23
Si  1.30 -7.99  0.80
Si -1.68  6.91 -3.95
Si  1.37 -3.42 -7.26
Si -3.52 -6.95  2.43
Si -1.30 -5.76 -5.64
Si  1.78  6.87 -4.04
Si  0.53  8.12  0.85
Si  1.26  5.79  5.65
Si -1.11  8.09 -0.83
Si  1.56 -6.99  4.06
Si -1.82 -6.97  4.04
Si -3.75  1.18 -7.26
Si -6.87  2.26 -4.04
Si  6.83 -2.37  4.04
Si -1.99  5.79  5.60
Si  2.18 -5.69 -5.64
Si -2.27 -3.41 -7.22
Si  3.94 -1.09  7.23
Si  2.23  3.44  7.23
Si  6.91  2.26 -4.04
Si  8.24  1.14  0.79
Si -6.95 -2.37  4.04
Si -8.27 -1.11 -0.79
Si -2.18 -8.06  0.79
Si  2.14  8.10 -0.79
Si  5.92 -4.63  4.03
Si -6.01  4.55 -4.00
Si  6.07  4.50  3.97
Si -5.51 -3.42  5.60
Si -2.88  3.54 -7.26
Si  3.01 -3.38  7.29
Si -3.03 -5.75  5.63
Si  6.39  1.19  5.65
Si  2.98 -8.05 -0.80
Si -6.40 -5.72 -0.83
Si -6.42 -1.16 -5.64
Si -6.11 -4.59 -4.04
Si -3.42  6.83  4.04
Si -2.97  8.10  0.73
Si  3.47  6.83  4.04
Si  7.68 -0.03  4.03
Si  3.03  5.80 -5.70
Si -4.65 -1.06 -7.26
Si  3.39 -6.94 -4.04
Si -7.77 -0.05 -4.00
Si  5.70  3.52 -5.64
Si -3.50 -6.94 -4.04
Si  4.77  1.22  7.29
Si  6.58  5.82  0.80
Si  0.80 -0.02 -8.84
Si -8.12  3.52  0.85
Si -5.13  6.85  2.43
Si  5.04 -6.93 -2.41
Si -0.88 -0.05  8.87
Si -3.88 -3.38  7.29
Si  3.86 -5.75  5.63
Si  8.25 -3.36 -0.83
Si  5.18  6.91  2.39
Si -3.91 -8.05 -0.80
Si -3.85  5.80 -5.70
Si  4.00  3.54 -7.26
Si  3.92  8.10  0.73
Si -8.96  1.22  0.80
Si -5.22 -7.00 -2.46
Si  0.02  2.26  8.82
Si -0.06 -2.37 -8.82
Si  8.55 -2.29  2.39
Si -5.62  1.20  7.16
Si  8.56  2.28 -2.41
Si  2.54  0.01  8.83
Si -6.39  3.46  5.63
Si -8.59  2.20 -2.46
Si  0.48 -5.66 -7.26
Si  6.40 -3.40 -5.70
Si  4.62 -3.41 -7.22
Si  5.62 -1.15 -7.24
Si  9.14 -1.12 -0.83
Si  1.71  2.23 -8.82
Si -1.81  2.21 -8.81
Si -4.66  3.44  7.23
Si -2.58 -0.10 -8.90
Si -7.20  5.82  0.80
Si -8.65 -2.35  2.43
Si -4.71 -5.69 -5.64
Si -1.74 -2.34  8.82
Si  7.69 -4.59  2.49
Si -1.29 -5.76  7.23
Si -7.81  4.51 -2.38
Si -0.35  5.82  7.29
Si  7.36 -1.16 -5.64
Si  7.79  4.56  2.39
Si  1.26  5.80 -7.22
Si  1.68 -2.29  8.92
Si  4.71 -8.06  0.79
Si  7.38 -5.72 -0.83
Si -7.39  1.19  5.65
Si -4.75  8.10 -0.79
Si -7.83 -4.67 -2.39
Si  4.90  5.79  5.60
Si  2.18 -5.69  7.23
Si  0.84  9.12 -2.38
Si -5.11  6.87 -4.04
Si -1.99  5.79 -7.26
Si  5.21  6.91 -3.95
Si  5.07 -6.97  4.04
Si -0.80  9.21  2.49
Si -0.96 -9.20  2.49
Si  0.68 -9.29 -2.38
Si -5.33 -6.99  4.06
Si  3.04  5.80  7.16
Si -9.04 -3.45 -0.80
Si  8.57 -2.29 -3.95
Si  3.32 -2.39 -8.81
Si  6.39  1.20 -7.22
Si  9.04  3.50  0.73
Si -3.03 -5.75 -7.24
Si -6.42 -1.16  7.23
Si -5.52 -3.42 -7.26
Si  8.60  2.23  4.04
Si -7.71  4.50  3.97
Si  9.45  0.01  2.49
Si -2.54  9.13 -2.39
Si -5.59 -7.99  0.80
Si -0.39 -8.02  5.60
Si -3.57 -2.39 -8.81
Si  7.67 -4.59 -4.04
Si  5.59 -5.76 -5.64
Si -8.63 -2.34 -4.04
Si  1.25 -7.98 -5.58
Si -3.44  2.31  8.92
Si  3.45  2.31  8.92
Si  2.67  9.16  2.39
Si -4.35  0.01  8.83
Si -8.69  2.21  4.06
Si  7.77  4.55 -4.00
Si -5.63  5.79  5.65
Si  5.70  3.52  7.23
Si -9.58 -0.09 -2.38
Si  2.51 -9.24  2.39
Si  4.31 -0.10 -8.90
Si  0.57  8.12 -5.64
Si  7.38  3.46  5.63
Si -7.38 -3.40 -5.70
Si -6.83  6.80 -2.46
Si -2.70 -9.27 -2.39
Si -1.12  8.14  5.61
Si  6.79 -6.89  2.39
Si -7.86 -4.63  4.03
Si  5.78  8.09 -0.83
Si  0.94  9.10  3.97
Si -8.16 -1.15  5.63
Si  0.78 -4.59  8.83
Si -9.88 -1.08  0.85
Si -3.85  5.80  7.16
Si  0.88  4.55  8.87
Si -0.82  4.50 -8.90
Si  3.86 -5.75 -7.24
Si -0.97 -4.62 -8.84
Si  8.16  1.20 -5.70
Si  6.95  6.80 -2.46
Si -8.26 -5.70  0.73
Si -2.25 -8.00 -5.70
Si  2.26  8.06  5.63
Si -0.99 -9.19 -4.04
Si -0.83  9.21 -4.04
Si  8.26  5.76 -0.80
Si -6.99 -6.89  2.39
Si 10.01  1.24 -0.83
Si  0.79 -9.30  3.97
Si  6.40 -3.40  7.16
Si  2.86 -8.01  5.65
Si -6.41 -5.67  5.61
Si -2.90  8.04 -5.64
Si  9.43  0.01 -4.04
Si -6.40  3.46 -7.24
Si -9.47 -0.10  3.97
Si  2.56  4.58 -8.84
Si -2.59  4.61  8.83
Si  6.49 -7.96 -0.83
Si  0.37 -10.28  0.85
Si  2.64  9.15 -4.00
Si -4.71 -5.69  7.23
Si -2.57  9.18  4.03
Si -2.64 -4.65  8.87
Si -6.36  8.12  0.85
Si -4.22  9.16  2.39
Si  7.36 -1.16  7.23
Si  6.54  5.82 -5.58
Si  2.55 -4.70 -8.90
Si  2.48 -9.25 -4.00
Si  4.35  9.13 -2.39
Si -9.76  3.48 -0.83
Si -7.39  1.20 -7.22
Si  5.08  2.21 -8.81
Si -1.27 -10.32 -0.83
Si -2.73 -9.23  4.03
Si  4.19 -9.27 -2.39
Si -8.08  3.52 -5.64
Si  6.81 -6.89 -3.95
Si -5.18  2.23 -8.82
Si -0.24 10.44 -0.83
Si  6.85  6.81  4.06
Si  5.15 -2.34  8.82
Si  4.90  5.79 -7.26
Si -4.38 -9.24  2.39
Si  0.82 -0.07 10.48
Si -0.86 -0.04 -10.48
Si  1.98 -10.31 -0.79
Si -6.93  6.81  4.06
Si  9.95 -3.39  0.80
Si  1.46 10.42  0.80
Si  8.26 -3.42  5.60
Si -6.97 -6.89 -3.95
Si -2.02 10.35  0.79
Si -5.21 -2.29  8.92
Si -4.03 -8.01  5.65
Si  3.99  8.04 -5.64
Si -9.01  1.22 -5.58
Si -8.89  5.84 -0.83
Si -0.00  2.25 -10.44
Si  2.56  0.01 -10.38
Si  9.02 -5.68  0.85
Si  9.33 -4.69 -2.38
Si  6.01 -0.05  8.87
Si -0.08 -2.33 10.46
Si -6.09 -0.02 -8.84
Si -10.65  1.24 -0.83
Si -1.70  2.20 10.40
Si  9.13 -1.06  5.61
Si  9.47  4.53 -2.39
Si -3.13 -10.30  0.73
Si  5.59 -5.76  7.23
Si -9.45  4.61  2.49
Si -0.39 -8.02 -7.26
Si -7.29 -7.96 -0.83
Si -2.69 -0.09 10.49
Si -7.38 -3.40  7.16
Si 10.31  2.31  2.39
Si  1.68  2.27 10.46
Si -5.63  5.80 -7.22
Si -7.24  5.82 -5.58
Si -1.76 -2.35 -10.44
Si -9.51 -4.64  2.39
Si  1.66 -2.29 -10.47
Si  4.30  4.61  8.83
Si  3.14 10.36 -0.80
Si -4.25  9.15 -4.00
Si  7.37 -5.67  5.61
Si -4.33  4.58 -8.84
Si -4.63  8.06  5.63
Si  4.64 -8.00 -5.70
Si 10.78 -1.08  0.85
Si  4.25 -4.65  8.87
Si 10.32 -2.40 -2.46
Si  1.25 -7.98  7.29
Si -10.36  2.31  2.39
Si  0.58  8.12  7.23
Si  4.16 -9.23  4.03
Si  7.38  3.46 -7.24
Si -10.35 -2.40 -2.46
Si  4.32  9.18  4.03
Si  8.16  1.20  7.16
Si -4.34 -4.70 -8.90
Si -1.12  8.14 -7.26
Si -8.16 -1.15 -7.24
Si -2.25 -8.00  7.16
Si  3.76 -10.30  0.73
Si -4.41 -9.25 -4.00
Si  7.42  8.12  0.85
Si -3.75 10.36 -0.80
Si  2.25  8.06 -7.24
Si -0.04  6.82 -8.81
Si  2.86 -8.01 -7.22
Si -2.90  8.04  7.23
Si -6.05  9.12 -2.38
Si  3.43 -2.40 10.40
Si -6.41 -5.66 -7.26
Si  5.93 -9.20  2.49
Si -3.46 -2.40 10.40
Si  9.45  4.58  4.03
Si 10.21 -2.39  4.06
Si -4.33  0.01 -10.38
Si -5.64 -7.98 -5.58
Si  3.42  2.31 -10.47
Si  9.12  3.44 -5.64
Si  9.44 -4.70  3.97
Si -10.72 -3.39  0.80
Si -3.47  2.31 -10.47
Si -0.08 -6.89  8.92
Si -9.15 -3.41  5.65
Si -9.48  4.61 -4.04
Si -8.60  6.91  2.39
Si -10.33  2.31 -3.95
Si  8.65  6.85  2.43
Si 10.33  2.31 -3.95
Si  4.20 -0.09 10.49
Si  6.09  9.21  2.49
Si  1.78  6.86  8.82
Si  8.56 -7.00 -2.46
Si -9.53 -4.65 -4.00
Si 11.09 -0.09 -2.38
Si  1.56 -6.99 -8.81
Si  0.80 -4.59 -10.38
Si -1.82 -6.97 -8.82
Si -9.84 -1.09 -5.64
Si  6.54  5.82  7.29
Si -8.07  3.52  7.23
Si -8.00  8.09 -0.83
Si -8.74 -6.93 -2.41
Si  6.83 -2.37 -8.82
Si -1.68  6.91  8.92
Si -6.87  2.26  8.82
Si -6.21 -9.29 -2.38
Si  6.91  2.26  8.82
Si  5.77  8.14  5.61
Si -4.91 -10.31 -0.79
Si -0.92  4.51 10.49
Si  4.87 10.35  0.79
Si  0.90  4.57 -10.48
Si  8.19 -7.99  0.80
Si -10.46 -2.39  4.06
