500
set: 1285.00  0.00  0.00
Si -1.02  1.71  0.17
Si  1.02 -1.71  0.17
Si  1.59  0.00 -1.48
Si -1.59 -0.00 -1.48
Si -0.85 -2.22 -1.07
Si  0.85  2.22 -1.07
Si  0.70 -0.94  2.34
Si -0.70  0.94  2.34
Si -0.99  0.60 -3.72
Si  0.99 -0.60 -3.72
Si -0.57  2.77 -2.95
Si  0.57 -2.77 -2.95
Si -3.91 -0.00 -1.48
Si  3.91  0.00 -1.48
Si  2.75 -3.33  0.05
Si -2.75  3.33  0.05
Si  0.57  2.60  3.42
Si -0.57 -2.60  3.42
Si  2.75 -0.54  3.52
Si -2.75  0.54  3.52
Si  2.75  3.65 -0.78
Si -2.75 -3.65 -0.78
Si  4.47 -1.71  0.17
Si -4.47  1.71  0.17
Si -2.75  3.62 -2.29
Si  2.75 -3.62 -2.29
Si -2.75 -1.75  4.08
Si  2.75  1.75  4.08
Si  4.65  2.22 -1.07
Si -4.65 -2.22 -1.07
Si -4.79  0.94  2.34
Si  4.79 -0.94  2.34
Si -0.99 -4.77  2.65
Si  0.99  4.77  2.65
Si  4.51 -0.60 -3.72
Si -4.51  0.60 -3.72
Si  2.75 -0.17 -5.27
Si -2.75  0.17 -5.27
Si  2.75  5.20  1.10
Si -2.75 -5.20  1.10
Si  0.70  4.43 -4.02
Si -0.70 -4.43 -4.02
Si -0.85  3.15  5.29
Si  0.85 -3.15  5.29
Si  2.75  4.83 -2.85
Si -2.75 -4.83 -2.85
Si  2.75 -5.54  1.10
Si -2.75  5.54  1.10
Si  4.92 -2.77 -2.95
Si -4.92  2.77 -2.95
Si  2.75 -1.72  5.59
Si -2.75  1.72  5.59
Si  4.92  2.60  3.42
Si -4.92 -2.60  3.42
Si  0.99 -5.97  2.65
Si -0.99  5.97  2.65
Si -6.20 -0.94  2.34
Si  6.20  0.94  2.34
Si  6.52  1.71  0.17
Si -6.52 -1.71  0.17
Si  6.35 -2.22 -1.07
Si -6.35  2.22 -1.07
Si -4.51 -4.77  2.65
Si  4.51  4.77  2.65
Si -2.75  5.91 -2.85
Si  2.75 -5.91 -2.85
Si -2.75 -2.04 -6.32
Si  2.75  2.04 -6.32
Si -7.09  0.00 -1.48
Si  7.09 -0.00 -1.48
Si -1.02 -3.66 -6.19
Si  1.02  3.66 -6.19
Si -2.75 -2.04  6.41
Si  2.75  2.04  6.41
Si  6.07  2.77 -2.95
Si -6.07 -2.77 -2.95
Si -1.59  5.37  4.89
Si  1.59 -5.37  4.89
Si  1.59  5.37  4.89
Si -1.59 -5.37  4.89
Si  6.07 -2.60  3.42
Si -6.07  2.60  3.42
Si  6.49  0.60 -3.72
Si -6.49 -0.60 -3.72
Si -0.70  6.32 -4.02
Si  0.70 -6.32 -4.02
Si -1.02 -3.66  6.54
Si  1.02  3.66  6.54
Si  2.75 -7.09 -0.78
Si -2.75  7.09 -0.78
Si -4.79 -4.43 -4.02
Si  4.79  4.43 -4.02
Si  4.65 -3.15  5.29
Si -4.65  3.15  5.29
Si  2.75 -1.72 -7.14
Si -2.75  1.72 -7.14
Si  2.75  7.42  0.05
Si -2.75 -7.42  0.05
Si  4.51 -5.97  2.65
Si -4.51  5.97  2.65
Si  2.75 -0.17  7.46
Si -2.75  0.17  7.46
Si  2.75  7.12 -2.29
Si -2.75 -7.12 -2.29
Si -0.85  3.15 -7.44
Si  0.85 -3.15 -7.44
Si -3.91  5.37  4.89
Si  3.91 -5.37  4.89
Si  3.91  5.37  4.89
Si -3.91 -5.37  4.89
Si  4.47  3.66 -6.19
Si -4.47 -3.66 -6.19
Si  6.49 -4.77  2.65
Si -6.49  4.77  2.65
Si -0.57 -7.97 -2.95
Si  0.57  7.97 -2.95
Si -6.20  4.43 -4.02
Si  6.20 -4.43 -4.02
Si  0.85 -8.52 -1.07
Si -0.85  8.52 -1.07
Si  4.47  3.66  6.54
Si -4.47 -3.66  6.54
Si  6.35  3.15  5.29
Si -6.35 -3.15  5.29
Si -0.57  8.14  3.42
Si  0.57 -8.14  3.42
Si -4.79  6.32 -4.02
Si  4.79 -6.32 -4.02
Si  8.25  3.33  0.05
Si -8.25 -3.33  0.05
Si -8.25 -0.54  3.52
Si  8.25  0.54  3.52
Si  8.25 -3.65 -0.78
Si -8.25  3.65 -0.78
Si -0.99  0.60  9.01
Si  0.99 -0.60  9.01
Si -1.02 -9.03  0.17
Si  1.02  9.03  0.17
Si  6.49  5.97  2.65
Si -6.49 -5.97  2.65
Si -2.75 -1.75 -8.65
Si  2.75  1.75 -8.65
Si  8.25  3.62 -2.29
Si -8.25 -3.62 -2.29
Si  0.85  7.60  5.29
Si -0.85 -7.60  5.29
Si  4.65 -3.15 -7.44
Si -4.65  3.15 -7.44
Si  8.25 -1.75  4.08
Si -8.25  1.75  4.08
Si -1.02  7.08 -6.19
Si  1.02 -7.08 -6.19
Si  9.41 -0.00 -1.48
Si -9.41  0.00 -1.48
Si  2.75 -0.54 -9.21
Si -2.75  0.54 -9.21
Si -1.59  5.37 -7.84
Si  1.59 -5.37 -7.84
Si  1.59  5.37 -7.84
Si -1.59 -5.37 -7.84
Si  0.57  2.60 -9.31
Si -0.57 -2.60 -9.31
Si -1.02  7.08  6.54
Si  1.02 -7.08  6.54
Si  6.52 -3.66 -6.19
Si -6.52  3.66 -6.19
Si -6.20 -6.32 -4.02
Si  6.20  6.32 -4.02
Si  4.65 -8.52 -1.07
Si -4.65  8.52 -1.07
Si  8.25  0.17 -5.27
Si -8.25 -0.17 -5.27
Si  0.70  4.43  8.71
Si -0.70 -4.43  8.71
Si  8.25 -5.20  1.10
Si -8.25  5.20  1.10
Si  4.92  7.97 -2.95
Si -4.92 -7.97 -2.95
Si  6.52 -3.66  6.54
Si -6.52  3.66  6.54
Si -8.25  4.83 -2.85
Si  8.25 -4.83 -2.85
Si  8.25  5.54  1.10
Si -8.25 -5.54  1.10
Si  4.47  9.03  0.17
Si -4.47 -9.03  0.17
Si  4.51 -0.60  9.01
Si -4.51  0.60  9.01
Si -0.70 -9.80  2.34
Si  0.70  9.80  2.34
Si  8.25  1.72  5.59
Si -8.25 -1.72  5.59
Si  4.92 -8.14  3.42
Si -4.92  8.14  3.42
Si -9.97 -1.71  0.17
Si  9.97  1.71  0.17
Si -7.09 -5.37  4.89
Si  7.09  5.37  4.89
Si -7.09  5.37  4.89
Si  7.09 -5.37  4.89
Si -0.57  2.77  9.78
Si  0.57 -2.77  9.78
Si  2.75 -8.99  4.08
Si -2.75  8.99  4.08
Si  6.35  3.15 -7.44
Si -6.35 -3.15 -7.44
Si -3.91  5.37 -7.84
Si  3.91 -5.37 -7.84
Si  3.91  5.37 -7.84
Si -3.91 -5.37 -7.84
Si  4.65  7.60  5.29
Si -4.65 -7.60  5.29
Si  4.47 -7.08 -6.19
Si -4.47  7.08 -6.19
Si -10.15  2.22 -1.07
Si 10.15 -2.22 -1.07
Si  6.07 -7.97 -2.95
Si -6.07  7.97 -2.95
Si  0.70 -0.94 -10.39
Si -0.70  0.94 -10.39
Si  8.25  5.91 -2.85
Si -8.25 -5.91 -2.85
Si  8.25 -2.04 -6.32
Si -8.25  2.04 -6.32
Si 10.29  0.94  2.34
Si -10.29 -0.94  2.34
Si  4.47 -7.08  6.54
Si -4.47  7.08  6.54
Si  8.25 -2.04  6.41
Si -8.25  2.04  6.41
Si  0.85  7.60 -7.44
Si -0.85 -7.60 -7.44
Si -6.35 -8.52 -1.07
Si  6.35  8.52 -1.07
Si -10.01 -0.60 -3.72
Si 10.01  0.60 -3.72
Si  6.07  8.14  3.42
Si -6.07 -8.14  3.42
Si -0.70  6.32  8.71
Si  0.70 -6.32  8.71
Si  0.99 10.14 -3.72
Si -0.99 -10.14 -3.72
Si  4.92  2.60 -9.31
Si -4.92 -2.60 -9.31
Si -4.79 -4.43  8.71
Si  4.79  4.43  8.71
Si  8.25  7.09 -0.78
Si -8.25 -7.09 -0.78
Si  1.59 -10.74 -1.48
Si -1.59 10.74 -1.48
Si -1.59 -10.74 -1.48
Si  1.59 10.74 -1.48
Si  2.75  9.03  5.59
Si -2.75 -9.03  5.59
Si  8.25  1.72 -7.14
Si -8.25 -1.72 -7.14
Si  8.25 -7.42  0.05
Si -8.25  7.42  0.05
Si  2.75 -8.70 -6.32
Si -2.75  8.70 -6.32
Si  6.49  0.60  9.01
Si -6.49 -0.60  9.01
Si  8.25  0.17  7.46
Si -8.25 -0.17  7.46
Si -8.25  7.12 -2.29
Si  8.25 -7.12 -2.29
Si -2.75 -10.21  3.52
Si  2.75 10.21  3.52
Si  6.52 -9.03  0.17
Si -6.52  9.03  0.17
Si  2.75 -8.70  6.41
Si -2.75  8.70  6.41
Si -4.79 -9.80  2.34
Si  4.79  9.80  2.34
Si -10.42 -2.77 -2.95
Si 10.42  2.77 -2.95
Si -0.99 -4.77 -10.08
Si  0.99  4.77 -10.08
Si -6.35  7.60  5.29
Si  6.35 -7.60  5.29
Si -10.42  2.60  3.42
Si 10.42 -2.60  3.42
Si  4.92 -2.77  9.78
Si -4.92  2.77  9.78
Si  2.75  4.83  9.88
Si -2.75 -4.83  9.88
Si  1.59  0.00 11.25
Si -1.59 -0.00 11.25
Si -2.75  3.62 10.44
Si  2.75 -3.62 10.44
Si -10.01  4.77  2.65
Si 10.01 -4.77  2.65
Si  6.07 -2.60 -9.31
Si -6.07  2.60 -9.31
Si  6.52  7.08 -6.19
Si -6.52 -7.08 -6.19
Si -4.79  0.94 -10.39
Si  4.79 -0.94 -10.39
Si  3.91 -10.74 -1.48
Si -3.91 10.74 -1.48
Si -3.91 -10.74 -1.48
Si  3.91 10.74 -1.48
Si -6.20  4.43  8.71
Si  6.20 -4.43  8.71
Si  4.65  7.60 -7.44
Si -4.65 -7.60 -7.44
Si  6.52  7.08  6.54
Si -6.52 -7.08  6.54
Si  4.51 10.14 -3.72
Si -4.51 -10.14 -3.72
Si  0.99 -5.97 -10.08
Si -0.99  5.97 -10.08
Si -4.79  6.32  8.71
Si  4.79 -6.32  8.71
Si  6.20 -9.80  2.34
Si -6.20  9.80  2.34
Si  2.75  9.03 -7.14
Si -2.75 -9.03 -7.14
Si -2.75  5.91  9.88
Si  2.75 -5.91  9.88
Si  6.07  2.77  9.78
Si -6.07 -2.77  9.78
Si -7.09 -5.37 -7.84
Si  7.09  5.37 -7.84
Si -7.09  5.37 -7.84
Si  7.09 -5.37 -7.84
Si -10.15 -3.15  5.29
Si 10.15  3.15  5.29
Si  9.41  5.37  4.89
Si -9.41 -5.37  4.89
Si  9.41 -5.37  4.89
Si -9.41  5.37  4.89
Si -0.85 -2.22 11.65
Si  0.85  2.22 11.65
Si 10.29 -4.43 -4.02
Si -10.29  4.43 -4.02
Si -3.91 -0.00 11.25
Si  3.91  0.00 11.25
Si  0.70 -11.69  2.34
Si -0.70 11.69  2.34
Si -10.01 -5.97  2.65
Si 10.01  5.97  2.65
Si 11.70 -0.94  2.34
Si -11.70  0.94  2.34
Si -0.99 11.34 -3.72
Si  0.99 -11.34 -3.72
Si -4.51 -4.77 -10.08
Si  4.51  4.77 -10.08
Si  8.25 -1.75 -8.65
Si -8.25  1.75 -8.65
Si -11.85 -2.22 -1.07
Si 11.85  2.22 -1.07
Si  2.75 10.57 -5.27
Si -2.75 -10.57 -5.27
Si  2.75 -11.28  3.52
Si -2.75 11.28  3.52
Si -6.20 -0.94 -10.39
Si  6.20  0.94 -10.39
Si -12.02  1.71  0.17
Si 12.02 -1.71  0.17
Si -11.57  2.77 -2.95
Si 11.57 -2.77 -2.95
Si -9.97  3.66 -6.19
Si  9.97 -3.66 -6.19
Si -11.57 -2.60  3.42
Si 11.57  2.60  3.42
Si -8.25 -0.54 -9.21
Si  8.25  0.54 -9.21
Si -0.57  8.14 -9.31
Si  0.57 -8.14 -9.31
Si -6.35  7.60 -7.44
Si  6.35 -7.60 -7.44
Si -6.20 -6.32  8.71
Si  6.20  6.32  8.71
Si -2.75 10.91 -5.27
Si  2.75 -10.91 -5.27
Si -9.97  3.66  6.54
Si  9.97 -3.66  6.54
Si -1.02 12.45  0.17
Si  1.02 -12.45  0.17
Si  4.51 -5.97 -10.08
Si -4.51  5.97 -10.08
Si -11.98  0.60 -3.72
Si 11.98 -0.60 -3.72
Si -6.49 10.14 -3.72
Si  6.49 -10.14 -3.72
Si -0.57 -7.97  9.78
Si  0.57  7.97  9.78
Si 12.59  0.00 -1.48
Si -12.59 -0.00 -1.48
Si -1.02  1.71 -12.56
Si  1.02 -1.71 -12.56
Si 10.29  6.32 -4.02
Si -10.29 -6.32 -4.02
Si  4.65  2.22 11.65
Si -4.65 -2.22 11.65
Si -4.51 11.34 -3.72
Si  4.51 -11.34 -3.72
Si  2.75 -8.99 -8.65
Si -2.75  8.99 -8.65
Si  2.75  3.65 11.95
Si -2.75 -3.65 11.95
Si  4.79 -11.69  2.34
Si -4.79 11.69  2.34
Si -8.25 -8.99  4.08
Si  8.25  8.99  4.08
Si  6.49 -4.77 -10.08
Si -6.49  4.77 -10.08
Si  2.75  7.12 10.44
Si -2.75 -7.12 10.44
Si -7.09 -10.74 -1.48
Si  7.09 10.74 -1.48
Si  7.09 -10.74 -1.48
Si -7.09 10.74 -1.48
Si -10.15 -3.15 -7.44
Si 10.15  3.15 -7.44
Si  2.75  5.20 -11.63
Si -2.75 -5.20 -11.63
Si -0.85 -12.97 -1.07
Si  0.85 12.97 -1.07
Si -1.02  1.71 12.90
Si  1.02 -1.71 12.90
Si 11.70  4.43 -4.02
Si -11.70 -4.43 -4.02
Si -11.98 -4.77  2.65
Si 11.98  4.77  2.65
Si  2.75 -5.54 -11.63
Si -2.75  5.54 -11.63
Si  2.75 10.57  7.46
Si -2.75 -10.57  7.46
Si  4.47 -12.45  0.17
Si -4.47 12.45  0.17
Si -10.15 -8.52 -1.07
Si 10.15  8.52 -1.07
Si -7.09  0.00 11.25
Si  7.09 -0.00 11.25
Si  4.92 -8.14 -9.31
Si -4.92  8.14 -9.31
Si -11.85  3.15  5.29
Si 11.85 -3.15  5.29
Si  9.41  5.37 -7.84
Si -9.41 -5.37 -7.84
Si  9.41 -5.37 -7.84
Si -9.41  5.37 -7.84
Si  6.49  5.97 -10.08
Si -6.49 -5.97 -10.08
Si  2.75 -3.33 -12.68
Si -2.75  3.33 -12.68
Si -2.75 -12.49  4.08
Si  2.75 12.49  4.08
Si -6.20 -11.69  2.34
Si  6.20 11.69  2.34
Si  4.47 -1.71 -12.56
Si -4.47  1.71 -12.56
Si  8.25 -9.03  5.59
Si -8.25  9.03  5.59
Si -10.42  7.97 -2.95
Si 10.42 -7.97 -2.95
Si  6.35 -2.22 11.65
Si -6.35  2.22 11.65
Si -9.97  9.03  0.17
Si  9.97 -9.03  0.17
Si -10.01 -0.60  9.01
Si 10.01  0.60  9.01
Si  2.75 -3.33 12.78
Si -2.75  3.33 12.78
Si -2.75 10.91  7.46
Si  2.75 -10.91  7.46
Si  4.92  7.97  9.78
Si -4.92 -7.97  9.78
Si -8.25 -8.70 -6.32
Si  8.25  8.70 -6.32
Si  8.25 -10.21  3.52
Si -8.25 10.21  3.52
Si  6.49 11.34 -3.72
Si -6.49 -11.34 -3.72
Si -8.25 -8.70  6.41
Si  8.25  8.70  6.41
Si  0.99 10.14  9.01
Si -0.99 -10.14  9.01
Si -11.98  5.97  2.65
Si 11.98 -5.97  2.65
Si -10.42 -8.14  3.42
Si 10.42  8.14  3.42
Si -9.97 -7.08 -6.19
Si  9.97  7.08 -6.19
Si -10.15  7.60  5.29
Si 10.15 -7.60  5.29
Si -8.25  4.83  9.88
Si  8.25 -4.83  9.88
Si  4.47 -1.71 12.90
Si -4.47  1.71 12.90
Si  6.07  8.14 -9.31
Si -6.07 -8.14 -9.31
Si  0.57 13.34  3.42
Si -0.57 -13.34  3.42
Si  8.25  3.62 10.44
Si -8.25 -3.62 10.44
Si -4.65 -12.97 -1.07
Si  4.65 12.97 -1.07
