500
set: 220.00  0.00  0.00
Si -0.00  0.02 -0.01
Si  0.03 -2.10  0.78
Si  0.02 -0.01 -2.26
Si  1.83  1.06  0.78
Si -1.89  1.06  0.78
Si -1.84 -3.18 -0.01
Si -3.68 -0.02 -0.05
Si  1.86  3.19  0.00
Si  1.83 -1.08 -3.02
Si -1.88  3.19 -0.03
Si -1.86 -1.04 -3.03
Si -1.88  1.07  3.01
Si  1.87  1.04  3.04
Si -0.02  2.12 -3.06
Si  3.73  0.05 -0.01
Si -0.02 -2.17  3.04
Si  1.89 -3.24 -0.04
Si -3.65 -2.09  0.77
Si  0.01  4.25  0.72
Si -1.86  3.16 -2.27
Si  1.84  3.19 -2.26
Si -3.67  0.01 -2.28
Si -1.81 -1.03  3.79
Si  1.84 -1.10  3.77
Si -0.02  2.11  3.79
Si  3.72 -2.12  0.72
Si  3.71  0.00 -2.27
Si -1.83 -3.23 -2.27
Si  1.86 -3.22 -2.28
Si  0.03 -4.27 -3.02
Si  3.67 -2.18  3.02
Si -3.68 -2.13  3.04
Si -3.71  2.13 -3.02
Si  3.70  2.16 -3.02
Si -0.01  4.31  3.00
Si -1.86 -5.30  0.75
Si -5.51  1.05  0.80
Si  1.85 -1.08 -5.25
Si -0.01  2.12 -5.27
Si  1.82 -5.34  0.74
Si -1.87 -1.02 -5.29
Si  3.68  2.19  3.78
Si -3.73  4.27  0.74
Si -0.01 -4.28  3.79
Si -3.70  2.13  3.81
Si  3.69  4.31  0.75
Si  5.59  1.05  0.80
Si -1.89 -5.29  3.01
Si  1.79 -5.35  2.98
Si  5.53  3.19  0.02
Si  0.02  6.38  0.04
Si  1.85  5.32 -3.00
Si  0.03 -2.16 -6.01
Si -1.82 -1.04  6.03
Si -0.00  2.15  6.01
Si -5.52  1.05  3.05
Si -5.53 -3.23  0.04
Si -3.69 -4.29 -3.00
Si  3.73 -4.25 -3.03
Si  3.66  4.33  3.01
Si  5.55 -1.06 -3.05
Si -3.76  4.26  2.98
Si -5.55 -1.06 -3.05
Si -5.57  3.19  0.02
Si -0.03 -6.42  0.02
Si -1.82  5.37 -3.03
Si  1.79  1.06 -6.09
Si  1.85 -1.09  6.06
Si  5.57 -3.23  0.04
Si -1.89  1.12 -6.05
Si  5.58  1.05  3.05
Si -5.52 -3.17 -2.24
Si  0.01 -6.39 -2.23
Si  3.68 -4.28  3.75
Si -5.54  3.22 -2.23
Si -1.87  5.34  3.75
Si -3.71 -4.25  3.77
Si  5.58 -3.17 -2.24
Si  5.55  3.22 -2.23
Si  5.54 -1.08  3.78
Si -0.01 -4.29 -5.28
Si  3.68  2.13 -5.31
Si  1.83  5.36  3.77
Si -5.56 -1.08  3.78
Si -3.71  2.15 -5.29
Si  0.03  6.45 -2.24
Si  0.03  0.04  6.83
Si -3.65  6.37 -0.04
Si -0.02  4.23 -6.02
Si -7.37  0.05 -0.01
Si -0.02 -4.28  6.01
Si -3.68 -2.16 -6.02
Si  3.67 -2.13 -6.05
Si  3.69  2.16  6.03
Si  3.67 -6.43 -0.03
Si -3.72  2.12  6.04
Si -3.68 -6.43  0.00
Si  7.42 -0.02 -0.05
Si  3.71  6.43 -0.01
Si -7.38 -2.12  0.72
Si  1.84  5.31 -5.29
Si  5.53 -1.09 -5.27
Si -3.69  6.39 -2.28
Si -3.69 -0.02  6.79
Si -7.39  0.00 -2.27
Si  3.72  6.38 -2.27
Si  3.74 -4.24 -5.27
Si  1.87  3.21  6.78
Si -1.84  3.21  6.79
Si  3.72 -0.03  6.79
Si  1.84 -3.21  6.80
Si -1.81  5.37 -5.27
Si -1.83  7.49  0.72
Si -5.57 -1.09 -5.27
Si -5.54 -5.36  0.72
Si -3.71 -6.42 -2.26
Si  5.55 -5.36  0.72
Si -1.86 -3.25  6.79
Si -3.71 -4.30 -5.29
Si  7.42  0.01 -2.28
Si  3.69 -6.45 -2.27
Si  7.45 -2.09  0.77
Si  1.90  7.52  0.77
Si  5.53 -5.30  3.00
Si  3.67  4.22 -6.04
Si -1.88  7.43  3.02
Si -1.85 -7.45 -3.02
Si -5.57 -5.30  3.00
Si -3.68  4.28 -6.02
Si  1.87 -5.33 -6.02
Si -5.52 -1.06  6.04
Si  3.70 -4.25  6.04
Si -5.52  5.34 -3.02
Si  7.39  2.13 -3.02
Si  1.84  5.34  6.04
Si  1.84 -7.48 -3.02
Si -7.40  2.16 -3.02
Si  5.53  1.11 -6.06
Si -3.71 -4.28  6.04
Si -1.85  5.37  6.04
Si  1.87  7.48  3.04
Si  5.58 -1.06  6.04
Si  5.58  5.34 -3.02
Si  7.42 -2.13  3.04
Si -5.57  1.11 -6.06
Si -1.88 -5.39 -6.04
Si -7.43 -2.18  3.02
Si -1.87 -7.43  3.78
Si  0.04 -2.15 -8.26
Si  7.37  4.27  0.74
Si  5.53  5.33  3.79
Si  1.82  1.07 -8.32
Si -5.56  5.33  3.79
Si  7.40  2.13  3.81
Si -1.86  1.11 -8.31
Si  0.04 -8.56  0.80
Si  1.85 -7.49  3.81
Si -7.41  4.31  0.75
Si -7.42  2.19  3.78
Si  7.34  4.26  2.98
Si -7.37 -4.25 -3.03
Si -0.03 -0.01 -9.04
Si  7.40 -4.29 -3.00
Si -0.00  8.55 -3.05
Si  0.03 -8.56  3.05
Si  0.02 -0.03  9.10
Si -7.44  4.33  3.01
Si  9.21  1.06  0.78
Si  3.66 -2.14 -8.28
Si  7.38 -4.25  3.77
Si  5.54  5.32 -5.28
Si -3.72 -2.15 -8.28
Si  1.83 -7.46 -5.29
Si -0.01  8.53  3.78
Si  3.66 -8.55  0.78
Si -5.56  5.32 -5.28
Si -5.53  3.19  6.80
Si  7.38  2.15 -5.29
Si  0.03  4.31 -8.29
Si -7.42 -4.28  3.75
Si  5.57  3.19  6.80
Si  0.02 -6.42  6.80
Si -5.52  7.51  0.78
Si -3.72 -8.55  0.78
Si -9.27  1.06  0.78
Si -5.54 -3.19  6.83
Si -1.87 -7.48 -5.31
Si  5.55 -3.19  6.83
Si -7.42  2.13 -5.31
Si  0.01  6.42  6.83
Si  5.58  7.51  0.78
Si -1.82 -9.56 -0.01
Si  1.87  3.18  9.01
Si -3.65 -0.04  9.03
Si  5.53  5.33  6.01
Si  5.53  7.44  3.04
Si  9.22  3.19 -0.03
Si  9.21  1.07  3.01
Si -9.20 -3.24 -0.04
Si  1.87  7.45 -6.02
Si -1.86 -7.45  6.03
Si  3.67 -8.54  3.01
Si -9.23  3.19  0.00
Si -5.57  5.33  6.01
Si  1.87  9.59 -0.05
Si  7.38  2.12  6.04
Si -1.88 -3.22  9.03
Si -1.82 -3.15 -9.07
Si -9.23  1.04  3.04
Si -5.57  7.44  3.04
Si  9.24 -1.04 -3.03
Si -3.72  8.53 -3.02
Si -3.68 -0.02 -9.06
Si  3.71  0.02  9.05
Si  5.53 -5.38 -6.02
Si -1.82  3.25  9.05
Si -7.39  6.43 -0.01
Si  9.26 -3.18 -0.01
Si -7.41  2.16  6.03
Si  7.42 -2.16 -6.02
Si  7.44  6.37 -0.04
Si  5.53 -7.49 -3.06
Si  1.86 -3.22  9.06
Si  1.83 -7.49  6.04
Si  3.67 -0.02 -9.09
Si -1.84  3.23 -9.07
Si -1.88  7.48 -6.05
Si -9.27 -1.08 -3.02
Si  3.69  8.57 -3.03
Si -5.57 -5.38 -6.02
Si -3.68 -8.57  3.04
Si  7.41 -6.43  0.00
Si  1.87 -9.63 -0.05
Si -7.43 -2.13 -6.05
Si  1.89  3.17 -9.10
Si -5.57 -7.49 -3.06
Si -7.43 -6.43 -0.03
Si -1.82  9.66 -0.01
Si  1.87 -3.23 -9.12
Si -7.36 -4.24 -5.27
Si -1.83  1.08  9.78
Si  3.69  6.37  6.79
Si  0.01 -2.16  9.78
Si -0.02  8.52 -5.27
Si -7.38  6.38 -2.27
Si  1.90 -5.30 -8.29
Si  9.23  3.16 -2.27
Si -3.67 -6.40  6.78
Si -3.71  8.51  3.77
Si -7.38 -0.03  6.79
Si -3.65  4.31 -8.29
Si -1.84 -9.61 -2.27
Si  7.39 -6.42 -2.26
Si  7.41  6.39 -2.28
Si -3.71  6.40  6.80
Si  1.87 -9.60 -2.28
Si  7.41 -0.02  6.79
Si -9.24 -3.22 -2.28
Si -1.84  9.62 -2.27
Si  3.71 -6.40  6.79
Si  7.38 -4.30 -5.29
Si -9.26  3.19 -2.26
Si  5.53 -7.50  3.79
Si -9.26 -1.10  3.77
Si  1.87  9.62 -2.28
Si -1.83 -5.32 -8.35
Si -5.54  1.04 -8.34
Si  9.27 -3.23 -2.27
Si  1.90  1.11  9.83
Si  5.55  1.04 -8.34
Si -5.57 -7.50  3.79
Si -7.41 -6.45 -2.27
Si  9.29 -1.03  3.79
Si  3.72  4.29 -8.35
Si  3.74  8.58  3.79
Si -0.01 -8.51 -6.06
Si -7.40 -4.25  6.04
Si  7.39 -4.28  6.04
Si  7.42  4.28 -6.02
Si -7.43  4.22 -6.04
Si  0.03  8.55  6.04
Si  9.24 -5.30  0.75
Si -3.70  8.54 -5.25
Si  9.23 -1.02 -5.29
Si  3.69 -2.09  9.81
Si -9.25 -1.08 -5.25
Si  0.04 10.66  0.80
Si  5.53 -7.49 -5.27
Si -3.73 -2.14  9.80
Si -5.56 -7.49 -5.27
Si -9.28 -5.34  0.74
Si  3.68  8.59 -5.29
Si  0.04  4.25  9.86
Si  9.21 -5.29  3.01
Si  3.66 -8.49 -6.05
Si -5.52  7.45 -6.01
Si -5.53  3.18 -9.03
Si  5.57  3.18 -9.03
Si  9.21  1.12 -6.05
Si  5.55 -7.46  6.01
Si -5.55 -7.46  6.01
Si  5.55 -9.59 -0.01
Si -9.24  5.32 -3.00
Si -5.55 -9.59 -0.01
Si -0.00 -6.39  9.05
Si  5.58  7.45 -6.01
Si  0.02 -6.43 -9.03
Si  0.03 10.66  3.05
Si -3.69  8.52  6.06
Si -0.00 -10.67 -3.05
Si  5.55 -3.18 -9.07
Si 11.10  0.02 -0.01
Si -5.55 -3.18 -9.07
Si  5.55  3.23  9.05
Si -11.10  0.02 -0.01
Si -5.55  3.23  9.05
Si -0.03  6.39  9.08
Si  5.53 -3.22  9.08
Si -9.24 -1.09  6.06
Si  9.28 -1.04  6.03
Si -0.00  6.43 -9.07
Si  5.55  9.63 -0.01
Si -5.55  9.63 -0.01
Si  3.73  8.57  6.03
Si -5.57 -3.22  9.08
Si  9.28  5.37 -3.03
Si -9.31 -5.35  2.98
Si -3.76 -8.55 -6.09
Si -9.31  1.06 -6.09
Si -5.52 -5.30 -8.29
Si  0.01  0.01 -11.29
Si -11.07 -2.10  0.78
Si  7.38 -2.15 -8.28
Si  1.83  7.47 -8.28
Si  9.23  5.34  3.75
Si  5.58 -5.30 -8.29
Si -5.53  9.60 -2.26
Si -11.08 -0.01 -2.26
Si  3.66 10.68  0.78
Si -1.89  7.47 -8.28
Si  5.57  9.60 -2.26
Si  7.38 -8.55  0.78
Si -3.72 10.67  0.78
Si -5.53 -9.62 -2.26
Si  3.66  4.27  9.84
Si -5.52  1.11  9.84
Si -7.44 -2.14 -8.28
Si 11.12 -0.01 -2.26
Si  5.57 -9.62 -2.26
Si -9.26  5.36  3.77
Si -0.01 -10.70  3.78
Si 11.12 -2.10  0.78
Si  1.83 -5.35  9.85
Si -3.72  4.26  9.85
Si -1.89 -5.34  9.84
Si -7.44 -8.55  0.78
Si  5.58  1.11  9.84
Si  3.67  6.39  9.03
Si -3.68 -6.43  9.01
Si  7.38  8.53 -3.02
Si  3.73 -6.36  9.05
Si -3.68 10.65  3.04
Si  3.69 -10.66 -3.03
Si -7.39  0.02  9.05
Si -3.68  6.39  9.06
Si 11.08  2.12 -3.06
Si 11.08 -2.17  3.04
Si  3.67 10.69  3.01
Si  7.44 -0.04  9.03
Si  3.71 -6.39 -9.07
Si  7.41 -0.02 -9.06
Si -7.43 -8.54  3.01
Si -3.72 -10.70 -3.02
Si -3.68  6.39 -9.12
Si -11.12  2.12 -3.06
Si -7.41  8.57 -3.03
Si -11.12 -2.17  3.04
Si  7.42 -8.57  3.04
Si -3.65 -6.45 -9.10
Si -7.43 -0.02 -9.09
Si  3.73  6.46 -9.07
Si  1.90 -11.71  0.77
Si  7.38  8.51  3.77
Si -1.83  9.58  6.79
Si -9.22  3.21  6.78
Si -1.83 -11.73  0.72
Si  1.86  9.59  6.79
Si 11.08  2.11  3.79
Si -11.09  4.25  0.72
Si -7.41  6.37  6.79
Si  3.74 -10.64  3.79
Si  7.39  6.40  6.80
Si -9.20  7.52  0.77
Si -7.39 -6.40  6.79
Si 11.10  4.25  0.72
Si -1.83  3.18 -11.34
Si  9.23 -3.25  6.79
Si -1.84 -3.20 -11.33
Si -9.26  5.31 -5.29
Si  3.69 -0.04 -11.33
Si  7.42 -6.40  6.78
Si -3.71 -0.01 -11.33
Si -7.36  8.58  3.79
Si  1.86  3.19 -11.34
Si  1.86 -9.63  6.79
Si  9.26  3.21  6.79
Si -9.26 -3.21  6.80
Si -1.83 -9.64  6.79
Si  1.87 -3.19 -11.34
Si -0.02 -10.71 -5.27
Si -7.38  4.29 -8.35
Si -11.12  2.11  3.79
Si  9.27  7.49  0.72
Si -3.71 -10.71  3.77
Si  7.45  4.31 -8.29
Si  9.29  5.37 -5.27
Si  0.01 -8.57 -8.34
Si  9.22  7.43  3.02
Si -9.23 -5.33 -6.02
Si -11.07 -4.27 -3.02
Si -0.01 -2.10 12.06
Si  9.25 -7.45 -3.02
Si  1.84 11.74 -3.02
Si 11.08  4.31  3.00
Si  0.03 -10.67  6.04
Si  9.22 -5.39 -6.04
Si  1.84 -1.07 -12.08
Si -9.23  7.48  3.04
Si  0.03  2.14 -12.08
Si  1.87 -11.74  3.04
Si -1.88  1.02 12.08
Si -1.85 -1.04 -12.09
Si -9.26  5.34  6.04
Si  9.25  5.37  6.04
Si -9.26 -7.48 -3.02
Si 11.12 -4.27 -3.02
Si -11.11  4.31  3.00
Si -1.85 11.77 -3.02
Si  1.87  1.08 12.11
Si -0.01 10.72 -6.06
Si -1.88 -11.79  3.02
Si -5.51  7.46 -8.26
Si  3.68 -10.63 -5.29
Si  9.23 -7.43  3.78
Si  7.37 -2.14  9.80
Si  3.69 -8.50 -8.31
Si  7.40  8.54 -5.25
Si 11.08  2.12 -5.27
Si  5.59  7.46 -8.26
Si  1.82  7.47  9.80
Si -7.41 -2.09  9.81
Si -3.70 -10.69 -5.25
Si 11.08 -4.28  3.79
Si  1.85 11.74  3.81
Si  9.24  1.11 -8.31
Si -11.11  2.12 -5.27
Si -3.73 -8.54 -8.32
Si -9.25 -7.49  3.81
Si -1.86  7.52  9.81
Si -11.11 -4.28  3.79
Si -5.51 -5.36  9.86
Si -9.28  1.07 -8.32
Si -7.42  8.59 -5.29
Si -1.87 11.80  3.78
Si  5.59 -5.36  9.86
Si -11.07 -2.16 -6.01
Si  3.66 -2.08 12.07
Si -11.08  6.38  0.04
Si -3.69  2.12 -12.06
Si -3.76 -2.15 12.04
Si  3.73 -10.65  6.03
Si -0.03 12.80  0.02
Si 11.07 -6.42  0.02
Si 11.10  2.15  6.01
Si -11.10  2.15  6.01
Si  7.34 -8.55 -6.09
Si -7.37  8.57  6.03
Si -7.44 -8.49 -6.05
Si  7.40  8.52  6.06
Si 11.12  6.38  0.04
Si 11.13 -2.16 -6.01
Si -0.00 -4.26 -12.11
Si  3.73  2.16 -12.09
Si  0.03  4.25 12.12
Si -3.69 -10.70  6.06
Si  0.02 -12.84  0.04
Si -11.12 -6.42  0.02
Si -3.76 10.67 -6.09
Si  3.66 10.73 -6.05
Si  0.03 -6.37 -11.30
Si -5.52 -11.71  0.78
Si  0.03 -12.78 -2.24
Si -5.52  3.24 -11.30
Si -5.52 -9.57  6.83
Si  5.58 -11.71  0.78
Si -1.87 -1.07 12.81
Si -11.09 -6.39 -2.23
Si 12.93  1.06  0.78
Si  7.38 10.67  0.78
Si  0.02  6.40 -11.32
