500
set: 482.00  0.00  0.00
Si -0.08 -0.03 -0.06
Si  1.76  0.95  0.64
Si  0.10 -2.04  0.78
Si -1.71  1.09  0.97
Si -0.21 -0.21 -2.31
Si  1.48  1.17  2.80
Si -3.42  0.10  0.03
Si  1.81 -1.13 -2.70
Si  0.05  1.92 -2.88
Si -1.66  3.10  0.06
Si -1.59 -3.20 -0.06
Si  2.01  3.03 -0.06
Si  1.93 -3.13  0.06
Si  0.05 -2.23  2.99
Si -1.79  0.95  3.18
Si  3.78  0.10  0.03
Si -2.11 -0.91 -3.07
Si -1.80  2.93 -2.11
Si -3.41 -2.09  0.58
Si  3.44  0.25 -2.13
Si  1.72 -0.87  3.62
Si -1.88 -2.95 -2.25
Si  0.19  4.13  0.58
Si  1.79 -3.30 -2.11
Si -3.75  0.25 -2.13
Si  1.72  3.28 -2.25
Si -1.80 -1.22  3.77
Si  3.79 -2.09  0.58
Si -0.15  2.32  3.74
Si  3.50 -1.93  2.78
Si -3.69 -1.93  2.78
Si -0.09 -4.01 -3.10
Si -0.09  4.29  2.78
Si  3.50  2.22 -3.10
Si  3.39  1.87  3.56
Si -3.69  2.22 -3.10
Si  1.89 -0.98 -4.90
Si -3.49  4.18  0.78
Si  0.10  2.11 -5.10
Si -3.80  1.87  3.56
Si -5.43  0.95  0.64
Si  1.89 -5.14  0.97
Si -1.83 -5.28  0.64
Si -0.21 -4.36  3.56
Si  3.70  4.18  0.78
Si -1.83 -1.13 -5.23
Si  5.49  1.09  0.97
Si  5.08 -0.91 -3.07
Si -5.18  3.03 -0.06
Si -1.79  5.10 -2.70
Si -5.26 -3.13  0.06
Si -3.55  4.00  2.99
Si -5.38 -1.13 -2.70
Si  0.18 -6.13  0.03
Si -2.11 -5.06  2.80
Si  0.18 -1.98 -5.84
Si  3.64  4.00  2.99
Si  1.93  1.02 -5.82
Si -1.59  0.95 -5.93
Si -1.66 -1.05  5.93
Si  2.01 -1.12  5.81
Si -3.55 -4.30 -2.88
Si  0.18  2.18  5.90
Si  1.48  5.32 -3.07
Si  0.18  6.33  0.03
Si  3.64 -4.30 -2.88
Si  5.40  0.95  3.18
Si  5.53  3.10  0.06
Si -0.15 -5.98 -2.13
Si  3.44 -3.90  3.74
Si  1.81 -5.28  3.18
Si  5.60 -3.20 -0.06
Si  0.19 -0.02  6.45
Si -5.71  1.17  2.80
Si  5.32 -2.95 -2.25
Si  5.39  2.93 -2.11
Si  1.79  5.00  3.77
Si -3.75 -3.90  3.74
Si -5.47 -0.87  3.62
Si -3.41  2.06 -5.29
Si -5.40 -3.30 -2.11
Si  5.39 -1.22  3.77
Si -1.88  5.36  3.62
Si  0.19 -4.17 -5.29
Si -5.47  3.28 -2.25
Si -0.15  6.47 -2.13
Si  3.79  2.06 -5.29
Si  3.52  2.05  5.81
Si  7.11 -0.03 -0.06
Si  3.52  6.20 -0.06
Si -0.08 -4.18  5.81
Si -3.67  2.05  5.81
Si  3.52 -6.25 -0.06
Si -3.67  6.20 -0.06
Si  3.52 -2.10 -5.93
Si -0.08  4.13 -5.93
Si -3.67 -6.25 -0.06
Si -7.27 -0.03 -0.06
Si  3.39  6.02 -2.31
Si -5.30 -0.98 -4.90
Si -3.67 -2.10 -5.93
Si  6.98 -0.21 -2.31
Si -1.71  5.24 -4.90
Si -1.83  3.02  6.51
Si -7.09 -2.04  0.78
Si -3.49 -4.12 -5.10
Si -1.83  7.17  0.64
Si -5.30 -5.14  0.97
Si  1.76 -3.21  6.51
Si -3.80  6.02 -2.31
Si -3.49  0.03  6.65
Si  1.76  5.10 -5.23
Si  3.70 -4.12 -5.10
Si  5.36 -5.28  0.64
Si  5.36 -1.13 -5.23
Si  3.70  0.03  6.65
Si  7.29 -2.04  0.78
Si  1.89  7.32  0.97
Si  3.39 -6.43 -2.31
Si -1.71 -3.06  6.84
Si  5.08 -5.06  2.80
Si -7.40 -0.21 -2.31
Si  1.89  3.17  6.84
Si -3.80 -6.43 -2.31
Si -5.18 -1.12  5.81
Si -1.59  5.10  5.81
Si  5.40  5.10 -2.70
Si  1.48 -7.13 -3.07
Si -5.26  1.02 -5.82
Si -3.42 -4.05  5.90
Si -7.14  1.92 -2.88
Si -1.66 -5.21 -5.82
Si -3.42  4.25 -5.84
Si  7.24  1.92 -2.88
Si -1.79 -7.35 -2.70
Si  1.81  7.18  3.18
Si -7.14 -2.23  2.99
Si  3.78 -4.05  5.90
Si  1.93  5.17  5.93
Si  7.24 -2.23  2.99
Si -7.00  4.13  0.58
Si  3.78  4.25 -5.84
Si  5.53 -1.05  5.93
Si -5.38 -5.28  3.18
Si -1.88 -7.10  3.62
Si -2.11  7.40  2.80
Si  2.01 -5.28 -5.93
Si -0.15 -1.83 -8.01
Si  5.60  0.95 -5.93
Si  1.79  0.85 -7.98
Si -5.40  5.00  3.77
Si  7.04  2.32  3.74
Si  0.19 -8.32  0.58
Si  5.31  5.36  3.62
Si -5.71  5.32 -3.07
Si -1.88  1.20 -8.12
Si  7.38  4.13  0.58
Si  1.79 -7.45  3.77
Si -7.34  2.32  3.74
Si -0.09 -8.16  2.78
Si -0.09  0.14  8.65
Si  7.10 -4.01 -3.10
Si  7.10  4.29  2.78
Si -0.21  8.10  3.56
Si -7.28 -4.01 -3.10
Si -1.71 -7.21 -4.90
Si -7.29  4.29  2.78
Si  5.36  3.02  6.51
Si -0.09  0.14 -8.97
Si  6.98 -4.36  3.56
Si  5.36  7.17  0.64
Si -7.09  2.11 -5.10
Si -0.09  8.45 -3.10
Si -3.49 -8.27  0.78
Si -8.90  1.09  0.97
Si  8.95  0.95  0.64
Si  5.49  5.24 -4.90
Si -5.43 -3.21  6.51
Si -0.21  3.94 -8.18
Si  0.10 -6.20  6.65
Si -5.30  7.32  0.97
Si  3.70 -8.27  0.78
Si -5.43  5.10 -5.23
Si  0.10  6.26  6.65
Si  7.29  2.11 -5.10
Si  3.39 -2.28 -8.18
Si  8.67  1.17  2.80
Si  1.76 -7.36 -5.23
Si -5.30  3.17  6.84
Si  1.81  3.03 -8.57
Si  5.49 -3.06  6.84
Si  1.48 -2.98  8.68
Si -7.40 -4.36  3.56
Si -3.80 -2.28 -8.18
Si -7.01 -6.13  0.03
Si -1.79 -3.20 -8.57
Si -7.01 -1.98 -5.84
Si -8.78 -3.20 -0.06
Si -3.55  8.15 -2.88
Si -8.85  3.10  0.06
Si  3.64  8.15 -2.88
Si -1.59  9.26 -0.06
Si  5.08  7.40  2.80
Si -7.01  2.18  5.90
Si -1.66  7.25 -5.82
Si -7.01  6.33  0.03
Si -3.55 -0.15 -8.76
Si  9.00 -1.13 -2.70
Si -5.26  5.17  5.93
Si  7.04 -5.98 -2.13
Si -5.18 -5.28 -5.93
Si  3.64 -0.15 -8.76
Si -2.11  3.25  8.68
Si -1.66 -9.36  0.06
Si -1.59 -7.35  5.81
Si  5.40 -7.35 -2.70
Si -5.39  7.18  3.18
Si -7.00 -0.02  6.45
Si  1.93  9.33  0.06
Si  2.01  7.18 -5.93
Si  1.48 -2.98 -8.94
Si -3.55 -0.15  8.86
Si  5.60  5.10  5.81
Si  1.79  9.15 -2.11
Si  5.53 -5.21 -5.82
Si -8.98  0.95  3.18
Si  3.64 -0.15  8.86
Si  5.32 -7.10  3.62
Si -3.41  6.21  6.45
Si  1.93 -7.28  5.93
Si  7.37 -6.13  0.03
Si  1.72 -9.18 -2.25
Si -3.41 -6.25  6.45
Si  7.37 -1.98 -5.84
Si -5.71 -7.13 -3.07
Si  2.01 -9.43 -0.06
Si -3.55 -8.46  2.99
Si  9.12 -3.13  0.06
Si  8.91 -0.87  3.62
Si -5.40  0.85 -7.98
Si  3.64 -8.46  2.99
Si  9.20  3.03 -0.06
Si -8.99  2.93 -2.11
Si  7.37  2.18  5.90
Si  1.72 -5.03 -8.12
Si -7.34 -5.98 -2.13
Si  1.81  3.03  9.05
Si -7.00 -4.17 -5.29
Si  7.37  6.33  0.03
Si  3.79  6.21  6.45
Si -2.11  3.25 -8.94
Si  3.79 -6.25  6.45
Si -1.88  1.20  9.49
Si  8.91  3.28 -2.25
Si -1.79 -3.20  9.05
Si  3.44  4.40 -8.01
Si  5.32  1.20 -8.12
Si -0.15 -1.83  9.61
Si -1.80 -5.38 -7.98
Si -9.07 -2.95 -2.25
Si  7.04  6.47 -2.13
Si  8.98 -3.30 -2.11
Si  7.38 -0.02  6.45
Si -8.99 -1.22  3.77
Si  0.19  8.29 -5.29
Si  1.79  0.85  9.64
Si -9.30 -0.91 -3.07
Si -3.75  4.40 -8.01
Si -1.80 -9.53 -2.11
Si -5.40 -7.45  3.77
Si  3.44  8.55  3.74
Si -1.88  9.51 -2.25
Si  7.38 -4.17 -5.29
Si -7.34  6.47 -2.13
Si -3.75  8.55  3.74
Si  7.11 -4.18  5.81
Si -0.08  8.28  5.81
Si  7.11  4.13 -5.93
Si -7.27 -4.18  5.81
Si -0.08 -8.33 -5.93
Si -0.21  3.94  9.43
Si -7.27  4.13 -5.93
Si  3.39 -2.28  9.43
Si  5.49 -7.21 -4.90
Si  9.08 -0.98 -4.90
Si -3.49  8.34 -5.10
Si -3.80 -2.28  9.43
Si  0.10 10.41  0.78
Si  3.70  8.34 -5.10
Si -9.02 -5.28  0.64
Si  9.08 -5.14  0.97
Si -9.02 -1.13 -5.23
Si -5.43 -7.36 -5.23
Si -5.38  3.03 -8.57
Si  5.08  3.25  8.68
Si -10.61  0.10  0.03
Si  5.40 -3.20 -8.57
Si  8.67  5.32 -3.07
Si -3.41 -8.20 -5.84
Si -8.78  0.95 -5.93
Si  0.05 10.23  2.99
Si  0.05  6.08 -8.76
Si -5.18  7.18 -5.93
Si -8.98  5.10 -2.70
Si -8.85 -1.05  5.93
Si -5.26  9.33  0.06
Si  0.05  6.08  8.86
Si  3.78 -8.20 -5.84
Si -5.26 -7.28  5.93
Si -5.18 -9.43 -0.06
Si  5.08  3.25 -8.94
Si -0.15 -10.13  3.74
Si -5.71 -2.98  8.68
Si  5.53  7.25 -5.82
Si  7.04 -1.83 -8.01
Si -1.80  7.08 -7.98
Si -10.60 -2.09  0.58
Si  5.60  9.26 -0.06
Si -3.42  8.40  5.90
Si  0.05 -6.38 -8.76
Si -5.40  9.15 -2.11
Si 10.64  0.25 -2.13
Si  5.53 -9.36  0.06
Si  9.12  1.02 -5.82
Si  1.72 -5.03  9.49
Si -7.00 -8.32  0.58
Si  9.00 -5.28  3.18
Si  0.05 -6.38  8.86
Si -5.47 -9.18 -2.25
Si  5.60 -7.35  5.81
Si  0.05 -10.53 -2.88
Si -3.41 10.36  0.58
Si  9.20 -1.12  5.81
Si  3.78  8.40  5.90
Si  5.31  1.20  9.49
Si  8.98  5.00  3.77
Si -5.39  3.03  9.05
Si -9.30 -5.06  2.80
Si 10.97  0.10  0.03
Si -5.47 -5.03 -8.12
Si  5.40 -3.20  9.05
Si -7.34 -1.83 -8.01
Si -5.71 -2.98 -8.94
Si  5.39 -5.38 -7.98
Si  3.78 10.36  0.58
Si -5.40  0.85  9.64
Si  3.44  4.40  9.61
Si  5.31  9.51 -2.25
Si -9.07  5.36  3.62
Si  7.38 -8.32  0.58
Si  3.50 -6.09  8.65
Si  1.72  7.43 -8.12
Si -10.94  0.25 -2.13
Si  5.39 -9.53 -2.11
Si  0.19 -0.02 -11.16
Si  7.10 -8.16  2.78
Si -1.80 -5.38  9.64
Si  7.10  0.14  8.65
Si 10.98 -2.09  0.58
Si -3.69 -6.09  8.65
Si -3.75  4.40  9.61
Si 10.69 -1.93  2.78
Si  3.50 -10.24 -3.10
Si  6.98  8.10  3.56
Si -7.28 -8.16  2.78
Si  3.50  6.37  8.65
Si -7.28  0.14  8.65
Si -3.69 -10.24 -3.10
Si 10.58  1.87  3.56
Si -1.71 -3.06 -10.77
Si 10.69  2.22 -3.10
Si -3.69  6.37  8.65
Si  1.89  3.17 -10.77
Si  3.50 -6.09 -8.97
Si -10.88 -1.93  2.78
Si -8.90  5.24 -4.90
Si  3.50 10.52  2.78
Si  7.10  0.14 -8.97
Si -3.69 -6.09 -8.97
Si  1.76  9.25  6.51
Si  6.98  3.94 -8.18
Si  7.10  8.45 -3.10
Si -3.69 10.52  2.78
Si -10.69  4.18  0.78
Si -3.49  0.03 -10.97
Si -7.09 -6.20  6.65
Si  8.95 -3.21  6.51
Si -10.88  2.22 -3.10
Si -9.03  3.02  6.51
Si -1.71 -11.37  0.97
Si -7.40  8.10  3.56
Si  0.10 -10.35 -5.10
Si  3.50  6.37 -8.97
Si -9.03  7.17  0.64
Si -7.28  0.14 -8.97
Si  8.95  5.10 -5.23
Si -7.09  6.26  6.65
Si  3.70  0.03 -10.97
Si -7.29  8.45 -3.10
Si -3.69  6.37 -8.97
Si -1.83 -9.43  6.51
Si -8.90 -3.06  6.84
Si  8.67 -7.13 -3.07
Si -1.83  3.02 -11.10
Si  7.29 -6.20  6.65
Si  1.76 -11.51  0.64
Si  3.39 -10.59  3.56
Si  7.29  6.26  6.65
Si  1.76 -3.21 -11.10
Si 10.89  4.18  0.78
Si  1.89 -9.29  6.84
Si -8.78  5.10  5.81
Si  9.08  7.32  0.97
Si -10.99  1.87  3.56
Si -7.40  3.94 -8.18
Si  1.48 -11.29  2.80
Si -1.71  9.39  6.84
Si  1.80 11.33 -2.70
Si -3.80 -10.59  3.56
Si -8.85 -5.21 -5.82
Si  9.08  3.17  6.84
Si -0.21 -8.51 -8.18
Si -1.59  0.95 11.68
Si -10.74  4.00  2.99
Si -1.66 -1.05 -11.69
Si  0.18 -10.28  5.90
Si  3.44 -8.06 -8.01
Si  0.18  2.18 -11.71
Si -8.98 -7.35 -2.70
Si -10.74 -4.30 -2.88
Si 10.83  4.00  2.99
Si 10.64 -3.90  3.74
Si  0.18 -1.98 11.77
Si  9.00  7.18  3.18
Si  5.39  7.08 -7.98
Si -3.75 -8.06 -8.01
Si -1.80 11.23  3.77
Si  1.93  1.02 11.80
Si  0.18 10.48 -5.84
Si 10.83 -4.30 -2.88
Si -10.60  2.06 -5.29
Si  2.01 -1.12 -11.80
Si  8.98  0.85 -7.98
Si  9.12  5.17  5.93
Si  7.04 -1.83  9.61
Si -5.47 -5.03  9.49
Si -7.00  8.29 -5.29
Si -1.79 -11.51  3.18
Si -9.07 -7.10  3.62
Si -1.80  7.08  9.64
Si -2.11 11.55 -3.07
Si  9.20 -5.28 -5.93
Si -3.41 -10.40 -5.29
Si  1.72  7.43  9.49
Si -10.94 -3.90  3.74
Si -9.31  7.40  2.80
Si -7.34 -1.83  9.61
Si -9.07  1.20 -8.12
Si  1.72 11.58  3.62
Si  3.79 -10.40 -5.29
Si  8.98 -7.45  3.77
Si  5.39 -5.38  9.64
Si  7.38  8.29 -5.29
Si -5.47  7.43 -8.12
Si 10.71  2.05  5.81
Si 10.98  2.06 -5.29
Si  7.11  8.28  5.81
Si 10.71  6.20 -0.06
Si  3.52 -2.10 11.68
Si  6.98  3.94  9.43
Si -0.08  4.13 11.68
Si 10.58  6.02 -2.31
Si 10.71 -6.25 -0.06
Si -5.30  3.17 -10.77
Si -3.67 -2.10 11.68
Si 10.71 -2.10 -5.93
Si  3.52 -10.40  5.81
Si -0.08 12.43 -0.06
Si  3.52 10.36 -5.93
Si -7.27  8.28  5.81
Si -8.90 -7.21 -4.90
Si  7.12 -8.33 -5.93
Si -0.21 12.25 -2.31
Si  5.49 -3.06 -10.77
Si -3.67 -10.40  5.81
Si -0.08 -12.48 -0.06
Si -3.67 10.36 -5.93
Si  3.52  2.05 -11.81
Si -10.87  2.05  5.81
Si -10.87  6.20 -0.06
Si -0.08 -4.18 -11.81
Si -3.67  2.05 -11.81
Si -10.69 -4.12 -5.10
Si -10.86 -6.25 -0.06
Si -7.27 -8.33 -5.93
Si -5.43  9.25  6.51
Si -10.86 -2.10 -5.93
Si -1.83 -1.13 12.38
Si -10.69  0.03  6.65
Si 10.58 -6.43 -2.31
