500
set: 1242.00  0.00  0.00
Si  0.50 -0.99 -0.39
Si  0.42  0.97  1.47
Si -1.58 -0.96 -1.12
Si  1.95  0.49 -1.84
Si -1.96  1.19  1.54
Si -3.10  0.66 -0.32
Si  1.38  2.98  0.54
Si  1.63 -2.85  0.72
Si -1.64 -3.01 -0.22
Si  0.70  2.71 -2.26
Si  1.68  0.19  3.25
Si -1.47  2.12 -2.81
Si -1.64 -1.47 -3.51
Si  1.60 -2.15  3.18
Si  4.04  1.07 -1.24
Si  3.75  2.19  0.74
Si -3.18 -0.07  3.19
Si  0.04 -4.62  0.09
Si -3.11  2.95 -1.73
Si -2.28  3.61  1.77
Si  2.27 -0.42 -4.10
Si -2.31 -2.41  3.41
Si -3.35 -3.22  1.34
Si -0.02  4.55  1.78
Si  3.90  1.11  3.05
Si -0.34 -3.22  3.92
Si -1.54  0.41 -4.90
Si  3.84 -3.49  0.77
Si -5.24 -0.46 -0.93
Si  1.89 -2.78 -4.26
Si  2.58 -4.29 -2.44
Si  0.86  0.70  5.50
Si  0.97  3.04 -4.63
Si  0.55  5.26 -1.93
Si  0.86  0.70 -5.61
Si -0.29 -3.18 -4.84
Si  4.52  3.34 -1.58
Si -3.82  4.42  0.26
Si -5.42 -1.93  1.03
Si  5.86 -0.46 -0.93
Si -3.66 -4.67 -0.86
Si  5.68 -1.93  1.03
Si -3.83 -2.84 -3.85
Si  0.55 -5.84 -1.93
Si -5.54 -0.49  2.81
Si  5.57 -0.49  2.81
Si  4.75 -3.86 -1.36
Si -3.33  1.54  5.14
Si  5.41 -1.98 -2.67
Si -2.87  3.74  4.31
Si -1.54  0.41  6.20
Si -4.91  2.83 -3.06
Si  0.04  6.49  0.09
Si  4.68 -0.58 -4.47
Si  4.96  4.19  0.44
Si -0.97 -5.27 -3.79
Si -5.70 -1.98 -2.67
Si  3.06 -3.22  4.98
Si  0.47  5.44  3.87
Si -0.02 -6.56  1.78
Si -3.28 -5.08 -3.12
Si  0.47 -5.67  3.87
Si  3.70  4.97 -3.09
Si  4.53  2.88  4.42
Si -3.77 -3.23  4.88
Si -0.84  4.21  5.51
Si  4.96 -1.98  4.52
Si -3.33  1.54 -5.96
Si -0.97  5.83 -3.79
Si -0.29 -3.18  6.27
Si -0.84  4.21 -5.59
Si  4.32 -5.34  2.02
Si  3.01  4.10 -5.10
Si  0.97  3.04  6.47
Si -7.07  1.07 -1.24
Si  2.27 -0.42  7.01
Si  2.85 -5.46  4.10
Si -4.79 -4.79  3.04
Si -6.14  4.19  0.44
Si -3.66  6.43 -0.86
Si  6.20  2.83 -3.06
Si  4.32  5.76  2.02
Si  2.85  5.64  4.10
Si -3.28  6.03 -3.12
Si -6.59  3.34 -1.58
Si -6.36 -3.86 -1.36
Si  3.06 -3.22 -6.13
Si  1.89 -2.78  6.85
Si  5.52  1.80 -4.96
Si -5.59  1.80 -4.96
Si  2.58  6.82 -2.44
Si -3.82 -6.69  0.26
Si -7.36  2.19  0.74
Si  3.70 -6.13 -3.09
Si -6.43 -0.58 -4.47
Si  3.01  4.10  6.00
Si -0.34 -3.22 -7.18
Si -6.15 -1.98  4.52
Si -1.64 -1.47  7.59
Si -7.21  1.11  3.05
Si -3.77 -3.23 -6.23
Si -2.28 -7.50  1.77
Si  1.68  0.19 -7.85
Si  8.01  0.66 -0.32
Si -7.27 -3.49  0.77
Si -4.91  4.66  4.49
Si  4.68 -0.58  6.64
Si -1.64  8.10 -0.22
Si  1.38 -8.13  0.54
Si -2.87  3.74 -6.79
Si -5.16  4.93 -4.21
Si  1.60 -2.15 -7.93
Si -2.31 -2.41 -7.70
Si -6.58  2.88  4.42
Si  1.63  8.25  0.72
Si  5.52  1.80  6.15
Si  4.96 -1.98 -6.58
Si -4.79  6.32  3.04
Si  6.32 -4.79  3.04
Si -5.59  1.80  6.15
Si  7.75 -3.22  1.34
Si  4.96 -6.92  0.44
Si  7.29  4.42  0.26
Si -3.18 -0.07 -7.92
Si  7.92 -0.07  3.19
Si  3.84  7.61  0.77
Si  4.53  2.88 -6.69
Si -3.35  7.88  1.34
Si -1.47  2.12  8.29
Si -3.83 -2.84  7.26
Si  7.99  2.95 -1.73
Si  7.28 -2.84 -3.85
Si  0.70 -8.40 -2.26
Si  4.75  7.24 -1.36
Si  5.94  4.93 -4.21
Si -0.34  7.89  3.92
Si  7.44 -4.67 -0.86
Si -0.84 -6.90  5.51
Si -6.79 -5.34  2.02
Si -3.11 -8.16 -1.73
Si -0.84 -6.90 -5.59
Si  6.20  4.66  4.49
Si -2.87 -7.36  4.31
Si  3.90  1.11 -8.06
Si  0.47  5.44 -7.24
Si -0.97 -5.27  7.32
Si -5.16 -6.17 -4.21
Si  4.52 -7.76 -1.58
Si -6.79  5.76  2.02
Si  3.01 -7.01 -5.10
Si  0.47 -5.67 -7.24
Si -6.15 -1.98 -6.58
Si -6.43 -0.58  6.64
Si -4.91 -6.44  4.49
Si -6.14 -6.92  0.44
Si  0.70  2.71  8.85
Si -0.29  7.93 -4.84
Si  2.85 -5.46 -7.01
Si  9.15  1.19  1.54
Si -9.16  0.49 -1.84
Si  0.97 -8.07 -4.63
Si  7.33 -3.23  4.88
Si -0.97  5.83  7.32
Si  2.85  5.64 -7.01
Si -7.40  4.97 -3.09
Si  6.32  6.32  3.04
Si  7.77  1.54  5.14
Si -4.91  4.66 -6.62
Si  1.95  0.49  9.27
Si -1.47 -8.98 -2.81
Si  1.89  8.32 -4.26
Si  5.94 -6.17 -4.21
Si -2.31  8.70  3.41
Si  9.53 -0.96 -1.12
Si  1.60  8.96  3.18
Si  0.42  0.97 -9.64
Si  8.82  3.61  1.77
Si  3.75 -8.92  0.74
Si  3.01 -7.01  6.00
Si -6.36  7.24 -1.36
Si  8.80 -2.41  3.41
Si -8.83 -0.42 -4.10
Si  3.06  7.88  4.98
Si -6.58  2.88 -6.69
Si -1.96  1.19 -9.56
Si -4.91  2.83  8.04
Si  7.83 -5.08 -3.12
Si -8.52 -4.29 -2.44
Si  7.44  6.43 -0.86
Si -3.83  8.27 -3.85
Si  7.29 -6.69  0.26
Si  7.77  1.54 -5.96
Si -9.47 -2.85  0.72
Si -5.16  4.93  6.90
Si  9.47 -3.01 -0.22
Si -9.42  0.19  3.25
Si -5.54 -0.49 -8.29
Si -8.05 -3.22  4.98
Si  5.57 -0.49 -8.29
Si  6.20 -6.44  4.49
Si  2.58 -4.29  8.66
Si -3.77  7.88  4.88
Si -3.28 -5.08  7.99
Si  8.23  3.74  4.31
Si -7.40 -6.13 -3.09
Si -4.91 -8.28 -3.06
Si -0.29  7.93  6.27
Si  3.70  4.97  8.02
Si  0.50 10.12 -0.39
Si  7.33 -3.23 -6.23
Si -1.58 -0.96  9.99
Si -9.72  2.98  0.54
Si  6.20  4.66 -6.62
Si  9.47 -1.47 -3.51
Si  5.41 -1.98  8.44
Si -1.96 -9.91  1.54
Si -9.50 -2.15  3.18
Si  0.42 -10.14  1.47
Si -2.28  3.61 -9.33
Si  9.64  2.12 -2.81
Si -6.59 -7.76 -1.58
Si -3.11  2.95  9.38
Si -1.58 10.15 -1.12
Si  5.94  4.93  6.90
Si  7.83  6.03 -3.12
Si -5.70 -1.98  8.44
Si -0.02  4.55 -9.32
Si  4.53 -8.23  4.42
Si -1.64  9.64 -3.51
Si  0.97 -8.07  6.47
Si -8.10  4.10 -5.10
Si -2.87 -7.36 -6.79
Si  3.06  7.88 -6.13
Si -4.91 -6.44 -6.62
Si -9.21 -2.78 -4.26
Si -4.79 -4.79 -8.06
Si -3.28  6.03  7.99
Si  6.20  2.83  8.04
Si -7.27  7.61  0.77
Si  0.55  5.26  9.17
Si -5.16 -6.17  6.90
Si -8.05 -3.22 -6.13
Si -10.61 -0.99 -0.39
Si  7.28 -2.84  7.26
Si -0.34  7.89 -7.18
Si -5.42  9.18  1.03
Si  4.04  1.07  9.86
Si -8.26 -5.46  4.10
Si -3.77  7.88 -6.23
Si  3.70 -6.13  8.02
Si  9.57  0.41 -4.90
Si  0.50 -0.99 10.72
Si  6.20 -8.28 -3.06
Si -8.26  5.64  4.10
Si -3.35 -3.22 -9.77
Si -10.69  0.97  1.47
Si  5.68  9.18  1.03
Si -7.21  1.11 -8.06
Si -8.10  4.10  6.00
Si  0.55 -5.84  9.17
Si  4.04 -10.04 -1.24
Si  1.63 -2.85 -10.39
Si -3.10 -10.44 -0.32
Si  5.41  9.13 -2.67
Si  1.89  8.32  6.85
Si  1.95 -10.62 -1.84
Si -10.40  2.71 -2.26
Si  5.94 -6.17  6.90
Si  4.52  3.34  9.52
Si  1.38  2.98 -10.56
Si -5.70  9.13 -2.67
Si  6.20 -6.44 -6.62
Si  7.75  7.88  1.34
Si  3.90 -9.99  3.05
Si -8.52  6.82 -2.44
Si  7.92 -0.07 -7.92
Si  3.75  2.19 -10.36
Si -3.10  0.66 10.78
Si -8.83 -0.42  7.01
Si -4.79  6.32 -8.06
Si  6.32 -4.79 -8.06
Si  8.23  3.74 -6.79
Si  2.58  6.82  8.66
Si  4.96  9.12  4.52
Si -3.33 -9.57  5.14
Si  4.32 -5.34 -9.09
Si -0.02 -6.56 -9.32
Si  9.57  0.41  6.20
Si -1.64 -3.01 10.89
Si -6.58 -8.23  4.42
Si -5.24 -0.46 10.18
Si  4.75 -3.86  9.75
Si  1.68 -10.91  3.25
Si  4.53 -8.23 -6.69
Si  0.50 -0.99 -11.49
Si  7.99 -8.16 -1.73
Si -10.13  3.04 -4.63
Si  3.84 -3.49 -10.34
Si -7.36 -8.92  0.74
Si  4.32  5.76 -9.09
Si -5.42 -1.93 -10.08
Si -3.83  8.27  7.26
Si 11.60 -0.99 -0.39
Si -10.25  0.70  5.50
Si 11.52  0.97  1.47
Si  2.27 10.68 -4.10
Si  7.28  8.27 -3.85
Si -10.25  0.70 -5.61
Si  8.82 -7.50  1.77
Si  5.68 -1.93 -10.08
Si -3.33 -9.57 -5.96
Si  5.86 -0.46 10.18
Si  0.86 -10.41  5.50
Si -9.21 -2.78  6.85
Si  7.33  7.88  4.88
Si -1.64 -3.01 -11.32
Si -3.66 -4.67 10.24
Si -2.31  8.70 -7.70
Si  0.86 -10.41 -5.61
Si  8.23 -7.36  4.31
Si -8.10 -7.01 -5.10
Si -3.10  0.66 -11.43
Si -1.54 -10.69 -4.90
Si  1.68 11.30  3.25
Si -6.15  9.12  4.52
Si  1.95 11.59 -1.84
Si 10.76 -3.22  3.92
Si  5.52 -9.31 -4.96
Si -5.24 10.65 -0.93
Si -3.18 11.03  3.19
Si  8.80 -2.41 -7.70
Si -5.59 -9.31 -4.96
Si  0.04 -4.62 -11.01
Si -10.56  5.26 -1.93
Si -7.40  4.97  8.02
Si -11.07 -4.62  0.09
Si  6.32  6.32 -8.06
Si 10.14 -5.27 -3.79
Si -6.59  3.34  9.52
Si -3.18 -11.18  3.19
Si 11.14 -4.62  0.09
Si  1.60  8.96 -7.93
Si  1.38  2.98 11.65
Si 11.08  4.55  1.78
Si  0.50 -12.10 -0.39
Si  0.04 -4.62 11.20
Si -8.26 -5.46 -7.01
Si -11.13  4.55  1.78
Si  0.42 12.07  1.47
Si -3.10 11.77 -0.32
Si -7.07  1.07  9.86
Si -2.28 -7.50 -9.33
Si  5.86 10.65 -0.93
Si -8.26  5.64 -7.01
Si  0.70 -8.40  8.85
Si -1.58 -12.07 -1.12
Si -10.56 -5.84 -1.93
Si  9.47 -1.47  7.59
Si -6.36 -3.86  9.75
Si 10.81 -3.18 -4.84
Si -9.42  0.19 -7.85
Si  1.63 -2.85 11.83
Si -8.10 -7.01  6.00
Si  7.83 -5.08  7.99
Si  4.96  9.12 -6.58
Si 10.14  5.83 -3.79
Si -5.54 10.62  2.81
Si -1.47 -8.98  8.29
Si -3.82  4.42 -10.85
Si  5.57 10.62  2.81
Si -8.05  7.88  4.98
Si 11.81  2.71 -2.26
Si -7.07 -10.04 -1.24
Si  4.68 10.52 -4.47
Si -1.58 -0.96 -12.22
Si -1.64  9.64  7.59
Si 10.26  4.21  5.51
Si -10.13  3.04  6.47
Si 10.26  4.21 -5.59
Si  7.33  7.88 -6.23
Si  2.27 -11.53 -4.10
Si  5.52 -9.31  6.15
Si -1.54 -10.69  6.20
Si  9.47  8.10 -0.22
Si -5.59 -9.31  6.15
Si -6.58 -8.23 -6.69
Si  4.96  4.19 -10.67
Si -7.40 -6.13  8.02
Si -11.45 -3.22  3.92
Si -6.79 -5.34 -9.09
Si -4.91 -8.28  8.04
Si -1.96 12.30  1.54
Si -10.63  5.44  3.87
Si -9.50 -2.15 -7.93
Si -9.47  8.25  0.72
Si -1.54 11.52 -4.90
Si  0.42  0.97 12.57
Si  3.75  2.19 11.85
Si -3.66  6.43 10.24
Si -10.63 -5.67  3.87
Si  7.99  2.95  9.38
Si -9.72 -8.13  0.54
Si -7.21 -9.99  3.05
Si  7.83  6.03  7.99
Si -6.79  5.76 -9.09
Si -5.24 -11.56 -0.93
Si -12.69 -0.96 -1.12
Si -3.82  4.42 11.37
Si  0.04  6.49 -11.01
Si -11.40 -3.18 -4.84
Si -3.11 -8.16  9.38
Si -6.15  9.12 -6.58
Si -8.05  7.88 -6.13
Si -11.07  6.49  0.09
Si  8.80  8.70  3.41
Si 12.49  2.98  0.54
Si -1.96  1.19 12.65
Si  7.75 -3.22 -9.77
Si -8.52 -4.29  8.66
Si  4.04 12.18 -1.24
Si  9.64  2.12  8.29
Si -7.36  2.19 -10.36
Si 10.81 -3.18  6.27
Si 11.14  6.49  0.09
Si 11.65  5.26 -1.93
Si  0.04  6.49 11.20
Si  3.84 -3.49 11.88
Si  8.23 -7.36 -6.79
Si  2.27 10.68  7.01
Si -3.35  7.88 -9.77
Si  5.86 -11.56 -0.93
Si 11.08 -6.56  1.78
Si -6.14  4.19 -10.67
Si  4.04  1.07 -12.35
Si -9.16  0.49  9.27
Si -11.13 -6.56  1.78
Si  4.75  7.24  9.75
Si  0.86 11.80  5.50
Si -12.57  2.12 -2.81
Si 12.74 -2.85  0.72
Si  4.52 -7.76  9.52
Si  0.86 11.80 -5.61
Si  1.95  0.49 -12.94
Si -12.75 -3.01 -0.22
Si  6.20 -8.28  8.04
Si -7.27 -3.49 -10.34
Si -6.43 10.52 -4.47
Si -9.21  8.32 -4.26
Si -5.24 -0.46 -12.03
Si -5.54 -11.59  2.81
Si -1.64 -12.57 -3.51
Si  8.01 -10.44 -0.32
Si  5.57 -11.59  2.81
Si -1.54 11.52  6.20
Si 11.65 -5.84 -1.93
Si  3.90 12.22  3.05
Si 11.96  0.70  5.50
Si 13.05  0.49 -1.84
Si  7.28  8.27  7.26
Si 12.79  0.19  3.25
Si -13.06  1.19  1.54
Si 11.96  0.70 -5.61
Si  4.96  4.19 11.54
Si 12.71 -2.15  3.18
Si -3.35 -3.22 12.44
Si 12.08  3.04 -4.63
Si  9.15  1.19 -9.56
Si  4.68 10.52  6.64
Si -12.74 -1.47 -3.51
Si -3.82 -6.69 -10.85
Si 10.76 -3.22 -7.18
Si  8.82  3.61 -9.33
Si  7.77 -9.57  5.14
Si  4.68 -11.69 -4.47
Si -3.66 -4.67 -11.97
Si 11.58  5.44  3.87
Si  1.63  8.25 -10.39
Si  5.86 -0.46 -12.03
Si -11.40 -3.18  6.27
Si  3.84  7.61 -10.34
Si  1.38 -8.13 -10.56
Si  3.90 -9.99 -8.06
Si -5.42 -1.93 12.13
Si -9.50  8.96  3.18
Si  8.01  0.66 10.78
Si 11.58 -5.67  3.87
Si  9.64 -8.98 -2.81
Si  7.44 -4.67 10.24
Si -3.11  2.95 -12.83
Si  5.68 -1.93 12.13
Si 10.26 -6.90  5.51
Si  1.68 -10.91 -7.85
Si  5.41  9.13  8.44
Si -10.40 -8.40 -2.26
Si -12.64  0.41 -4.90
Si 10.14 -5.27  7.32
Si -2.28  3.61 12.88
Si 10.26 -6.90 -5.59
Si  9.15 -9.91  1.54
Si -1.47 13.23 -2.81
