500
set: 728.00  0.00  0.00
Si -1.63  2.00 -0.69
Si -0.54  0.91  2.59
Si -2.84 -0.57 -0.47
Si  1.61 -2.44 -0.82
Si  1.27 -0.88  2.68
Si -0.29  2.99  1.16
Si  1.98  2.58 -0.55
Si -1.82 -2.48 -1.40
Si  0.39  2.29 -2.46
Si -0.06 -3.56  0.61
Si  3.64  0.48 -0.40
Si -3.41  1.76  1.35
Si  2.39 -1.38 -3.08
Si  3.86 -1.86 -0.59
Si  0.64 -2.89 -3.23
Si  0.38  0.36 -4.45
Si -3.00  0.20  3.60
Si -4.22  0.41 -2.30
Si -1.31  3.43  3.17
Si -1.71  4.30 -1.50
Si -4.06 -2.53  0.93
Si -1.66 -1.45 -4.34
Si  1.94 -4.26  1.41
Si  1.77  2.39  3.96
Si  4.33 -1.67  1.99
Si -1.33 -4.81 -0.76
Si  1.11 -3.49  3.51
Si  4.74  1.61  1.33
Si  1.33  4.97 -0.73
Si  0.84  4.31  2.79
Si  4.17  0.31 -3.16
Si -5.00 -0.14  1.68
Si -2.22 -3.27 -3.72
Si -1.31 -3.65  3.95
Si  0.06  3.44 -4.35
Si -4.27 -1.68  3.23
Si -1.48  0.71  5.53
Si -3.66  3.12  3.20
Si -5.31  2.31  0.06
Si -3.89  3.53 -2.55
Si  2.06 -4.99 -2.23
Si  1.65 -0.63  5.62
Si  4.86  3.39 -0.47
Si -1.46 -5.63  1.55
Si  5.68  1.38 -1.49
Si -0.83  1.95 -5.85
Si  0.70  1.77  5.96
Si -3.23  2.48 -4.75
Si  1.71 -1.75 -5.78
Si  3.17  1.50 -5.23
Si  3.59 -3.98  3.31
Si -0.28  6.32  0.04
Si  2.27  5.20 -2.89
Si -6.38  0.12 -0.75
Si -4.96 -1.30 -3.94
Si -1.95  5.90  1.98
Si -3.76  0.21 -5.35
Si  3.60 -5.56 -0.05
Si -4.94 -4.45  0.88
Si  5.12  2.42  3.62
Si -5.64  1.79 -3.24
Si -0.47 -3.18 -6.00
Si  6.51 -2.17 -0.45
Si  5.55 -1.26 -3.88
Si  5.10 -4.42 -1.43
Si  4.51 -3.74 -3.65
Si  2.68  6.14  1.69
Si  5.04 -1.97  4.35
Si -5.43  4.00  2.06
Si  1.75  4.29  5.41
Si -1.87 -2.86  6.29
Si -5.31 -4.55 -1.57
Si -5.66  4.27 -1.29
Si  2.44  3.97 -5.50
Si -3.46 -6.20 -1.29
Si -3.27 -0.79  6.42
Si  2.97 -2.85  5.97
Si  6.46 -2.81  1.84
Si  4.20  4.68 -3.71
Si -3.28  2.64  5.99
Si  1.44 -6.25  3.55
Si -0.20 -5.35 -5.04
Si -4.63 -4.12 -3.98
Si  3.55  2.67  5.90
Si -3.87  6.24  0.78
Si  4.94  5.32  1.41
Si  7.47  0.12 -0.75
Si  5.95  3.19 -3.32
Si  5.67  1.47 -4.72
Si -6.83  2.44  2.01
Si -0.28 -7.53  0.04
Si  3.77  0.14  6.53
Si -2.48 -5.32 -4.78
Si -1.07  5.16 -5.44
Si -2.29  6.38 -3.40
Si -7.34 -2.17 -0.45
Si  1.45 -6.62 -3.62
Si  7.01  2.44  2.01
Si  3.21  5.90  3.78
Si -6.31 -2.27  4.36
Si -3.38  5.75  4.52
Si  0.70  1.77 -7.89
Si -7.39 -2.81  1.84
Si -2.58 -5.44  5.48
Si -3.27 -0.79 -7.43
Si  5.05 -1.70 -6.26
Si  1.45  7.23 -3.62
Si  1.33 -4.34 -6.86
Si  3.77  0.14 -7.33
Si -2.10  4.97  6.25
Si  6.13  0.01  5.55
Si -0.83  1.95  8.00
Si -3.75  4.69 -5.72
Si -1.87 -2.86 -7.56
Si  5.17  4.62  4.58
Si  2.68 -7.71  1.69
Si  1.33 -4.34  6.99
Si -8.17  1.38 -1.49
Si  1.65 -0.63 -8.23
Si -1.95 -7.95  1.98
Si  1.71 -1.75  8.07
Si -1.48  0.71 -8.32
Si -0.47 -3.18  7.85
Si -1.46  8.22  1.55
Si -3.46  7.65 -1.29
Si  1.44  7.60  3.55
Si -2.29 -7.47 -3.40
Si -6.61  2.22  4.93
Si -3.87 -7.61  0.78
Si  4.99 -5.99  3.62
Si -4.21 -3.07  6.85
Si -6.20  6.02  0.42
Si  6.77 -5.32  1.13
Si -4.21 -3.07 -7.00
Si -6.18  0.90 -6.22
Si  4.99 -6.70 -2.85
Si  8.54  2.31  0.06
Si  2.97 -2.85 -7.88
Si -3.28  2.64 -7.86
Si -7.08 -5.32  1.13
Si  7.54 -2.27  4.36
Si  8.21  1.79 -3.24
Si  1.33 -8.88 -0.73
Si  8.86 -0.14  1.68
Si  7.24  2.22  4.93
Si  3.60  8.29 -0.05
Si  6.61 -6.05 -1.22
Si -6.07  4.49 -5.08
Si  3.55  2.67 -7.95
Si -5.82 -1.78  6.82
Si -7.90  3.19 -3.32
Si -1.33  9.04 -0.76
Si  4.99  7.15 -2.85
Si -4.85 -6.51  4.31
Si -8.30 -1.26 -3.88
Si  5.05 -1.70  7.59
Si  6.92 -4.70 -4.01
Si -6.93 -4.70 -4.01
Si -3.76  0.21  8.50
Si -5.82 -1.78 -7.04
Si  3.17  1.50  8.62
Si  2.36 -6.79 -5.93
Si -2.10  4.97 -7.60
Si  8.20  4.27 -1.29
Si -9.11  1.61  1.33
Si  2.06  8.86 -2.23
Si  3.21 -7.95  3.78
Si  2.27 -8.65 -2.89
Si  0.38  0.36  9.40
Si -7.72  0.01  5.55
Si -7.24 -6.05 -1.22
Si  2.36  7.06 -5.93
Si  5.49 -3.84  6.79
Si  8.42  4.00  2.06
Si -8.18  1.47 -4.72
Si  2.44  3.97  8.35
Si -6.66 -4.88  4.84
Si  4.90  4.70 -6.78
Si -8.99  3.39 -0.47
Si  1.75  4.29 -8.44
Si  4.24 -6.12  6.16
Si -6.75  6.46  2.69
Si  5.49 -3.84 -7.06
Si -4.44  6.83 -5.35
Si  7.66  6.02  0.42
Si -8.73  2.42  3.62
Si -1.66 -1.45  9.51
Si -4.88 -5.38  6.55
Si -4.85  7.34  4.31
Si  4.90  4.70  7.07
Si  8.54 -4.55 -1.57
Si  8.89 -1.30 -3.94
Si -1.71 -9.55 -1.50
Si -6.18  0.90  7.63
Si -3.38 -8.10  4.52
Si -9.52 -1.67  1.99
Si -4.44 -7.02 -5.35
Si -0.20  8.50 -5.04
Si  6.55  2.89 -6.82
Si  1.94  9.59  1.41
Si -8.75 -4.42 -1.43
Si  7.67  0.90 -6.22
Si  9.63  0.41 -2.30
Si -1.07  5.16  8.41
Si  7.19 -4.88  4.84
Si  4.94 -8.53  1.41
Si -3.23  2.48  9.10
Si  0.84 -9.54  2.79
Si  7.10  6.46  2.69
Si  4.99  7.86  3.62
Si -6.20 -7.83  0.42
Si  8.91 -4.45  0.88
Si -8.80 -1.97  4.35
Si  6.55  2.89  7.03
Si -2.48  8.53 -4.78
Si  0.06  3.44  9.50
Si -3.75  4.69  8.13
Si  9.79 -2.53  0.93
Si -9.68  0.31 -3.16
Si -9.99 -1.86 -0.59
Si -10.21  0.48 -0.40
Si  9.58 -1.68  3.23
Si  6.61  7.80 -1.22
Si -4.88 -5.38 -7.30
Si -1.07 -8.69 -5.44
Si  6.63  6.55 -4.39
Si -0.06 10.29  0.61
Si -2.58 -5.44 -8.37
Si -0.20 -5.35  8.81
Si  5.80 -5.96 -6.10
Si  7.78  4.49 -5.08
Si  6.13  0.01 -8.30
Si  1.77  2.39 -9.89
Si -6.75 -7.39  2.69
Si -2.58  8.41  5.48
Si -7.30  2.89 -6.82
Si -8.91  5.32  1.41
Si -7.30  2.89  7.03
Si -6.49  5.39  6.35
Si  7.10 -7.39  2.69
Si -1.31 -3.65 -9.90
Si -4.94  9.40  0.88
Si 10.44  1.76  1.35
Si -3.00  0.20 -10.25
Si  8.03 -1.78  6.82
Si -7.22  6.55 -4.39
Si  2.36 -6.79  7.92
Si  4.24 -6.12 -7.70
Si -9.34 -3.74 -3.65
Si -7.24  7.80 -1.22
Si  4.20 -9.17 -3.71
Si  4.24  7.74  6.16
Si  6.63 -7.30 -4.39
Si -2.48 -5.32  9.07
Si  5.10  9.43 -1.43
Si  8.03 -1.78 -7.04
Si -5.31  9.30 -1.57
Si -8.68  4.62  4.58
Si  5.67  1.47  9.13
Si  7.67  0.90  7.63
Si  9.22 -4.12 -3.98
Si  2.36  7.06  7.92
Si  9.96  3.53 -2.55
Si -2.22 -3.27 10.13
Si -0.29 -10.86  1.16
Si -8.80 -1.70 -6.26
Si  5.04 -1.97 -9.50
Si  6.77  8.53  1.13
Si  7.66 -7.83  0.42
Si -1.31 -10.42  3.17
Si  1.11 -3.49 -10.34
Si  1.11 10.36  3.51
Si -1.31 10.20  3.95
Si  3.59  9.87  3.31
Si  0.64 -2.89 10.62
Si 11.01 -0.57 -0.47
Si -2.10 -8.88  6.25
Si  7.36  5.39  6.35
Si  2.39 -1.38 10.78
Si 10.19  3.12  3.20
Si  1.75 -9.56  5.41
Si -7.08  8.53  1.13
Si -4.96 -1.30  9.91
Si -7.22 -7.30 -4.39
Si -5.66 -9.58 -1.29
Si  1.27 -0.88 -11.17
Si  0.06 -10.41 -4.35
Si -8.86 -5.99  3.62
Si -6.49  5.39 -7.50
Si -1.31  3.43 -10.68
Si -0.54  0.91 -11.26
Si -3.89 -10.32 -2.55
Si -6.61  2.22 -8.91
Si -7.72  0.01 -8.30
Si -9.65  4.68 -3.71
Si  5.80 -5.96  7.75
Si 10.09  0.21 -5.35
Si -2.22 10.58 -3.72
Si -3.75 -9.16 -5.72
Si 10.85  0.20  3.60
Si -8.36 -3.84  6.79
Si -5.43 -9.85  2.06
Si  0.64 10.96 -3.23
Si  1.98 -11.27 -0.55
Si -8.86 -6.70 -2.85
Si -3.38  5.75 -9.33
Si  5.55 -1.26  9.97
Si  4.17  0.31 10.69
Si -4.63  9.73 -3.98
Si -10.26 -3.98  3.31
Si  5.17 -9.23  4.58
Si  5.80  7.89 -6.10
Si  4.86 -10.46 -0.47
Si  1.61 11.41 -0.82
Si  2.44 -9.88 -5.50
Si -4.27 -1.68 -10.62
Si -6.07  4.49  8.77
Si  5.17  4.62 -9.27
Si -8.36 -3.84 -7.06
Si -1.82 11.37 -1.40
Si -6.31 -2.27 -9.49
Si  0.39  2.29 11.39
Si -4.63 -4.12  9.87
Si -10.25 -5.56 -0.05
Si  4.51 10.11 -3.65
Si -3.66  3.12 -10.65
Si  5.12  2.42 -10.23
Si  7.24  2.22 -8.91
Si  4.24  7.74 -7.70
Si -8.04 -5.96 -6.10
Si -8.86  7.15 -2.85
Si -8.80 -1.70  7.59
Si  4.51 -3.74 10.20
Si -4.88  8.47  6.55
Si -4.44  6.83  8.50
Si -3.66 -10.73  3.20
Si  9.98  6.24  0.78
Si  1.33  9.51 -6.86
Si  7.36  5.39 -7.50
Si  3.59 -3.98 -10.54
Si  0.39 -11.56 -2.46
Si  1.33  9.51  6.99
Si -2.10 -8.88 -7.60
Si -4.44 -7.02  8.50
Si 10.62  2.48 -4.75
Si  0.84  4.31 -11.06
Si  9.00 -6.51  4.31
Si  4.20  4.68 10.14
Si -11.46 -1.38 -3.08
Si -1.63 -11.85 -0.69
Si -10.68  1.50 -5.23
Si -10.08  0.14  6.53
Si -4.06 11.32  0.93
Si  3.21  5.90 -10.07
Si  1.44 -6.25 -10.30
Si -1.07 -8.69  8.41
Si -2.58  8.41 -8.37
Si -5.64  1.79 10.61
Si  6.92  9.15 -4.01
Si -11.87  2.58 -0.55
Si -6.93  9.15 -4.01
Si 10.38 -6.20 -1.29
Si -10.30  2.67  5.90
Si -8.95  4.70 -6.78
Si -6.66  8.97  4.84
Si -4.88  8.47 -7.30
Si -6.66 -4.88 -9.01
Si  9.64 -3.07  6.85
Si -0.47 10.67 -6.00
Si -0.20  8.50  8.81
Si  1.77 -11.46  3.96
Si -6.07 -9.36 -5.08
Si  1.45 -6.62 10.23
Si -4.22  0.41 11.55
Si  9.64 -3.07 -7.00
Si  7.54 -2.27 -9.49
Si -8.95  4.70  7.07
Si  8.97 -5.38  6.55
Si  2.27  5.20 10.96
Si -8.18  1.47  9.13
Si 12.03 -2.48 -1.40
Si  9.00  7.34  4.31
Si -8.86  7.86  3.62
Si 12.22  2.00 -0.69
Si  4.90 -9.15 -6.78
Si -6.49 -8.46  6.35
Si 10.59 -0.79  6.42
Si -8.91 -8.53  1.41
Si 10.57  2.64  5.99
Si -2.29  6.38 10.45
Si -10.08  0.14 -7.33
Si -3.89  3.53 11.30
Si  7.19  8.97  4.84
Si  5.80  7.89  7.75
Si  5.95  3.19 10.53
Si  7.19 -4.88 -9.01
Si -12.24 -2.44 -0.82
Si 10.10  4.69 -5.72
Si -4.85 -6.51 -9.54
Si  7.78  4.49  8.77
Si  4.90 -9.15  7.07
Si  9.98 -7.61  0.78
Si  3.86 11.99 -0.59
Si  1.45  7.23 10.23
Si -3.41 -12.09  1.35
Si 11.63 -3.27 -3.72
Si  5.95 -10.66 -3.32
Si -8.04 -5.96  7.75
Si  8.20 -9.58 -1.29
Si -2.48  8.53  9.07
Si -5.31 -11.54  0.06
Si -11.91 -4.26  1.41
Si  8.54  9.30 -1.57
Si  4.33 -1.67 -11.86
Si -10.63  5.90  3.78
Si -3.23 -11.37 -4.75
Si -10.88 -2.85  5.97
Si  8.97 -5.38 -7.30
Si 10.47  5.75  4.52
Si  9.41  6.83 -5.35
Si -1.87 10.99  6.29
Si -3.38 -8.10 -9.33
Si -3.75 -9.16  8.13
Si  2.06 -4.99 11.62
Si -8.04  7.89 -6.10
Si -1.82 -2.48 12.45
Si -11.17  6.14  1.69
Si  4.99 -5.99 -10.23
Si  2.97 11.00  5.97
Si  1.75 -9.56 -8.44
Si  1.44  7.60 -10.30
Si  7.36 -8.46  6.35
Si -12.58 -0.88  2.68
Si  9.41 -7.02 -5.35
Si  6.92 -4.70  9.84
Si -6.93 -4.70  9.84
Si  6.46 11.04  1.84
Si -12.08  2.39  3.96
Si -8.75  9.43 -1.43
Si -9.61 -6.12  6.16
Si 10.59 -0.79 -7.43
Si 10.38  7.65 -1.29
Si 12.14  4.30 -1.50
Si -4.85  7.34 -9.54
Si  8.91  9.40  0.88
Si -11.79 -4.99 -2.23
Si 12.19 -1.45 -4.34
Si -11.59  5.20 -2.89
Si -8.30 -1.26  9.97
Si -6.49 -8.46 -7.50
Si  5.12 -11.43  3.62
Si -0.29  2.99 -12.69
Si -2.29 -7.47 10.45
Si  2.39 12.47 -3.08
Si -3.41  1.76 -12.50
Si  4.33 12.18  1.99
Si -8.80 -1.97 -9.50
Si  8.42 -9.85  2.06
Si -3.28 -11.21  5.99
Si  3.55 -11.18  5.90
Si -5.00 -0.14 -12.17
Si  2.44 -9.88  8.35
Si -10.25  8.29 -0.05
Si -1.71  4.30 12.35
Si  7.78 -9.36 -5.08
Si  4.74 -12.24  1.33
Si 10.09  0.21  8.50
Si -0.54 -12.95  2.59
Si  3.21 -7.95 -10.07
Si -1.66 12.40 -4.34
Si -0.47 10.67  7.85
Si -11.41  3.97 -5.50
Si  6.63  6.55  9.46
Si  5.49 10.01  6.79
Si -10.30  2.67 -7.95
Si -0.83 -11.90 -5.85
Si  1.94 -4.26 -12.44
Si -4.27 12.17  3.23
Si  1.27 12.97  2.68
Si  1.61 -2.44 13.03
Si  8.89 -1.30  9.91
Si 12.54  3.43  3.17
Si  6.51 11.69 -0.45
Si -1.95  5.90 -11.87
Si -1.63  2.00 13.16
Si -7.39 11.04  1.84
Si  5.49 10.01 -7.06
Si 11.90  5.90  1.98
Si 11.37 -5.32 -4.78
Si 10.57  2.64 -7.86
Si 12.52 -4.81 -0.76
Si -12.20 -0.63  5.62
Si -4.21 10.78  6.85
Si -6.83 -11.41  2.01
Si -1.87 10.99 -7.56
Si -8.68 -9.23  4.58
Si  4.74  1.61 -12.52
Si -12.52  4.97 -0.73
Si  0.70 -12.08  5.96
Si  7.36 -8.46 -7.50
