500
set: 1550.00  0.00  0.00
Si  1.02 -1.11 -1.30
Si  1.32 -1.55  0.41
Si -0.28  1.01  1.85
Si  0.90  1.91  0.41
Si  2.09 -0.99 -0.61
Si  0.59  2.35 -1.30
Si  1.67  2.47 -0.61
Si -0.05 -0.92 -2.92
Si  0.14 -2.46  1.85
Si -2.76 -0.05  1.98
Si  0.79  0.82  3.47
Si  3.61 -0.53  0.96
Si  3.15  0.32 -2.06
Si -0.47  2.54 -2.92
Si -2.52 -1.98 -2.80
Si -2.95  1.48 -2.80
Si -4.25  0.14 -1.22
Si  3.19  2.93  0.96
Si  3.34 -1.22  2.71
Si  4.32  0.14 -1.22
Si  1.13 -0.02 -4.37
Si  1.21 -2.64  3.47
Si  2.92  2.24  2.71
Si  1.86  0.94  4.16
Si -2.33 -3.51  1.98
Si -0.70  4.47  1.85
Si  1.44 -4.57 -1.30
Si -3.18  3.41  1.98
Si -4.96 -0.53  0.96
Si  2.72  3.78 -2.06
Si  2.51 -4.45 -0.61
Si  3.57 -3.15 -2.06
Si -3.82 -3.32 -1.22
Si  3.42  1.00 -3.82
Si  0.38 -4.38 -2.92
Si  1.09  0.38  5.18
Si  1.74 -5.01  0.41
Si  2.28 -2.52  4.16
Si  0.47  5.37  0.41
Si  3.90  3.60 -1.22
Si  0.36  4.28  3.47
Si -4.05 -1.39  3.55
Si  0.70  3.44 -4.37
Si  1.90  0.54 -5.38
Si  4.03 -3.99  0.96
Si  1.55 -3.48 -4.37
Si  4.09  2.07  3.55
Si -5.42  0.32 -2.06
Si  4.51 -1.39  3.55
Si  4.74 -3.32 -1.22
Si  3.84 -2.46 -3.82
Si  0.17  5.81 -1.30
Si -5.23 -1.22  2.71
Si -4.67  3.60 -1.22
Si -4.48  2.07  3.55
Si  1.25  5.93 -0.61
Si -4.54 -3.99  0.96
Si  5.81 -0.05  1.98
Si  0.82  0.42 -6.07
Si -5.38  2.93  0.96
Si  1.51 -3.08  5.18
Si  1.44  4.40  4.16
Si  0.57 -5.92  1.85
Si -5.00 -3.15 -2.06
Si  5.62  1.48 -2.80
Si -2.10 -5.44 -2.80
Si  0.67  3.84  5.18
Si -5.15  1.00 -3.82
Si  2.32 -2.92 -5.38
Si -4.73 -2.46 -3.82
Si -6.47 -0.99 -0.61
Si  3.76 -4.68  2.71
Si  3.00  4.46 -3.82
Si -3.37  4.95 -2.80
Si -0.09 -0.53  6.63
Si -5.65  2.24  2.71
Si  5.39  3.41  1.98
Si -0.89  6.00 -2.92
Si  2.49  5.71  2.71
Si  3.38  1.40  5.73
Si  1.48  4.01 -5.38
Si  1.25 -3.04 -6.07
Si  6.04 -1.98 -2.80
Si -3.63 -4.85  3.55
Si  2.76  6.39  0.96
Si  3.80 -2.06  5.73
Si  1.63 -6.11  3.47
Si  0.40  3.88 -6.07
Si -4.81 -4.68  2.71
Si -5.84  3.78 -2.06
Si -0.51  2.94  6.63
Si -6.89  2.47 -0.61
Si -2.56 -1.58  6.75
Si  6.23 -3.51  1.98
Si -7.25 -1.55  0.41
Si -4.01 -1.79 -6.00
Si  4.13  1.68 -6.00
Si -1.91 -6.97  1.98
Si  3.67  5.53  3.55
Si -6.05 -4.45 -0.61
Si -2.99  1.88  6.75
Si -4.44  1.68 -6.00
Si  2.96  1.85 -6.83
Si -3.40 -6.78 -1.22
Si  5.20  4.95 -2.80
Si -0.24  0.61 -7.69
Si -4.77 -2.06  5.73
Si  4.55 -1.79 -6.00
Si -7.55 -1.11 -1.30
Si  0.34 -3.99  6.63
Si  2.71 -5.99  4.16
Si  4.93 -4.85  3.55
Si  3.38 -1.61 -6.83
Si -5.19  1.40  5.73
Si  2.30  7.24 -2.06
Si -7.67  1.91  0.41
Si -6.70  0.94  4.16
Si -6.28 -2.52  4.16
Si  3.48  7.07 -1.22
Si  3.99 -6.61 -2.06
Si -3.60  6.87  1.98
Si -2.72 -0.45 -7.57
Si  2.96  4.86  5.73
Si -5.57  4.46 -3.82
Si  3.11  0.71  7.49
Si  0.28  6.91 -4.37
Si -4.90  5.53  3.55
Si  0.18 -2.85 -7.69
Si -1.12  7.93  1.85
Si  4.26 -5.92 -3.82
Si -4.30 -5.92 -3.82
Si -4.58 -6.61 -2.06
Si  0.98 -0.71  8.24
Si  1.86 -8.03 -1.30
Si  0.80 -7.84 -2.92
Si -7.97  2.35 -1.30
Si  1.97 -6.94 -4.37
Si  2.94 -7.91 -0.61
Si -6.83 -5.01  0.41
Si -0.06  7.74  3.47
Si  8.29  1.01  1.85
Si -7.36 -2.64  3.47
Si -7.78  0.82  3.47
Si -7.13 -4.57 -1.30
Si -4.11 -7.45  0.96
Si  1.93 -6.55  5.18
Si -6.66  0.54 -5.38
Si  5.16 -6.78 -1.22
Si -7.44 -0.02 -4.37
Si -5.80  6.39  0.96
Si -2.14 -5.05  6.75
Si  4.96  6.87  1.98
Si  0.55  2.75  8.24
Si  3.53 -2.75  7.49
Si  3.71  5.14 -6.00
Si -0.66  4.07 -7.69
Si -5.19 -1.61 -6.83
Si -3.14  3.02 -7.57
Si  4.45 -7.45  0.96
Si -3.59 -5.25 -6.00
Si -6.24 -2.92 -5.38
Si  2.16 -8.47  0.41
Si -6.07  5.71  2.71
Si  2.75 -6.38 -5.38
Si -5.09  7.07 -1.22
Si -2.29 -3.91 -7.57
Si  0.05  8.84  0.41
Si  6.46 -5.44 -2.80
Si  5.58  1.88  6.75
Si  1.02  7.86  4.16
Si  0.24  7.30  5.18
Si -8.42 -2.46  1.85
Si -7.02 -3.48 -4.37
Si  8.10  2.54 -2.92
Si  2.68  4.17  7.49
Si  4.22 -5.53  5.73
Si  2.53  5.31 -6.83
Si -5.61  1.85 -6.83
Si  1.67 -6.50 -6.07
Si  8.52 -0.92 -2.92
Si -4.34 -5.53  5.73
Si -8.84  1.01  1.85
Si -7.48  0.38  5.18
Si -8.61 -0.92 -2.92
Si  2.57  7.93 -3.82
Si  6.00 -1.58  6.75
Si  2.05 -0.59  8.94
Si  7.87  4.47  1.85
Si  8.71 -2.46  1.85
Si -3.41  5.34  6.75
Si -0.93  6.40  6.63
Si  1.06  7.47 -5.38
Si -4.86  5.14 -6.00
Si -7.06 -3.08  5.18
Si -5.46  0.71  7.49
Si  0.94  1.52 -9.14
Si  3.80 -5.08 -6.83
Si  1.40 -4.18  8.24
Si -7.13  4.40  4.16
Si -5.86 -5.99  4.16
Si -0.25  9.28 -1.30
Si  4.28  0.54  8.32
Si -4.29  0.54  8.32
Si -5.61  4.86  5.73
Si  3.65 -0.93 -8.59
Si  4.97 -5.25 -6.00
Si -5.04 -2.75  7.49
Si -7.32  5.93 -0.61
Si  1.36 -1.95 -9.14
Si  0.83  9.40 -0.61
Si -1.68 -8.90 -2.80
Si  3.23  2.54 -8.59
Si  1.63  2.87  8.94
Si -0.02  7.35 -6.07
Si  9.16  2.35 -1.30
Si  4.18 -8.14  2.71
Si  5.85 -0.45 -7.57
Si -3.21 -8.31  3.55
Si  0.99 -9.38  1.85
Si -7.86  3.44 -4.37
Si -3.86 -2.92  8.32
Si -4.38 -8.14  2.71
Si -3.79  8.41 -2.80
Si  9.46  1.91  0.41
Si -8.09  5.37  0.41
Si -5.63 -7.91 -0.61
Si  9.58 -1.11 -1.30
Si -8.19 -4.38 -2.92
Si -4.77 -5.08 -6.83
Si -7.09  4.01 -5.38
Si  2.07  9.17  2.71
Si  5.43  3.02 -7.57
Si -6.26  7.24 -2.06
Si -9.03  2.54 -2.92
Si  6.65 -6.97  1.98
Si -7.74  0.42 -6.07
Si -6.94 -6.11  3.47
Si -8.20  4.28  3.47
Si -4.92 -0.93 -8.59
Si  0.61 -6.31 -7.69
Si -7.32 -3.04 -6.07
Si -1.31  9.46 -2.92
Si  4.70 -2.92  8.32
Si  0.76 -7.45  6.63
Si  3.86  4.00  8.32
Si  9.35  0.82  3.47
Si  9.88 -1.55  0.41
Si  5.16  5.34  6.75
Si  4.77  8.41 -2.80
Si  1.28 -1.16  9.95
Si  2.47 -4.06  8.94
Si -8.00 -5.92  1.85
Si  7.67  6.00 -2.92
Si  2.34  9.86  0.96
Si -5.82 -6.38 -5.38
Si -7.90  3.84  5.18
Si  3.25  8.99  3.55
Si  0.86  2.31  9.95
Si -8.39  5.81 -1.30
Si  0.13  6.21  8.24
Si -4.71  4.00  8.32
Si  8.94 -4.38 -2.92
Si  2.05 -9.57  3.47
Si -5.88  4.17  7.49
Si  2.53  8.32  5.73
Si  0.51  4.98 -9.14
Si -5.34  2.54 -8.59
Si -9.26  4.47  1.85
Si  4.07 -4.39 -8.59
Si  2.13 -1.39 -10.15
Si  8.93  4.28  3.47
Si  3.95 -6.21  7.49
Si  1.71  2.08 -10.15
Si  5.36 -8.31  3.55
Si -6.59 -6.94 -4.37
Si  9.04  5.37  0.41
Si -6.71 -8.03 -1.30
Si 10.23  2.47 -0.61
Si -6.03  5.31 -6.83
Si  8.74  5.81 -1.30
Si  6.27 -3.91 -7.57
Si -3.56  6.48 -7.57
Si  6.42 -5.05  6.75
Si -6.40 -8.47  0.41
Si  9.69 -0.02 -4.37
Si -4.50 -4.39 -8.59
Si -5.99  7.93 -3.82
Si -6.63 -6.55  5.18
Si  9.77 -2.64  3.47
Si 10.66 -0.99 -0.61
Si -1.49 -10.44  1.98
Si -1.87 -7.37 -7.57
Si -2.98 -10.24 -1.22
Si  1.78 -5.41 -9.14
Si -4.62 -6.21  7.49
Si  8.48 -0.53  6.63
Si  3.13 -9.45  4.16
Si  9.27  3.44 -4.37
Si -1.08  7.54 -7.69
Si  8.06  2.94  6.63
Si  2.80  6.00 -8.59
Si -3.88 -9.38 -3.82
Si -8.16  3.88 -6.07
Si -8.65 -0.53  6.63
Si  2.26  7.63  7.49
Si  9.65  0.38  5.18
Si  3.29  8.60 -6.00
Si -1.72 -8.51  6.75
Si  1.06 -1.50 -10.85
Si  1.21  6.33  8.94
Si  3.05 10.53 -1.22
Si  7.44  7.93  1.85
Si -5.32  8.99  3.55
Si  0.63  1.96 -10.85
Si  9.13 -5.92  1.85
Si -3.17 -8.71 -6.00
Si -3.44 -6.39  8.32
Si  1.88 10.70 -2.06
Si -6.51 -0.59  8.94
Si 10.00 -4.57 -1.30
Si -4.15 -10.07 -2.06
Si  3.57 -0.14 10.50
Si  1.70 -4.62  9.95
Si  5.00  6.48 -7.57
Si  4.68 -9.38 -3.82
Si  4.41 -10.07 -2.06
Si  9.39  0.42 -6.07
Si -7.59 -0.71  8.24
Si -0.14 10.37 -4.37
Si -6.90 -6.50 -6.07
Si  9.23  3.84  5.18
Si -4.02 10.34  1.98
Si 10.43  0.94  4.16
Si -8.23 -3.99  6.63
Si  2.11  8.77 -6.83
Si  8.33  0.61 -7.69
Si -3.92 -8.99  5.73
Si  1.82 -7.64  8.24
Si -7.77 -7.84 -2.92
Si  3.15  3.33 10.50
Si  4.54 10.34  1.98
Si 10.30 -5.01  0.41
Si  9.81  5.93 -0.61
Si -0.32  1.40 11.40
Si -11.32 -0.05  1.98
Si  8.97  3.88 -6.07
Si  0.43  5.77  9.95
Si  2.35 -10.01  5.18
Si  2.39 -10.40 -4.37
Si  2.55 -4.85 -10.15
Si -6.09 -4.06  8.94
Si 10.11 -3.48 -4.37
Si -6.49  9.17  2.71
Si -3.69 -10.92  0.96
Si -4.21 -0.25 -10.77
Si -9.46  6.00 -2.92
Si  0.10 -2.06 11.40
Si  6.88 -8.90 -2.80
Si -11.09 -1.98 -2.80
Si -9.07  2.94  6.63
Si -10.90 -3.51  1.98
Si  4.36 -0.25 -10.77
Si  4.64 -8.99  5.73
Si -5.00 -0.14 10.50
Si -8.28  6.91 -4.37
Si  1.29  5.54 -10.15
Si -1.54 11.39  1.85
Si  3.17 -9.84 -5.38
Si -7.55  7.86  4.16
Si -5.44 -9.45  4.16
Si -6.93  2.87  8.94
Si  5.12 -6.39  8.32
Si  3.44  7.46  8.32
Si -6.22  9.86  0.96
Si 10.00  4.40  4.16
Si -7.17 -4.18  8.24
Si -8.80  0.61 -7.69
Si  4.22 -8.54 -6.83
Si -8.38 -2.85 -7.69
Si  5.59 -10.24 -1.22
Si -3.83  8.80  6.75
Si -5.28  8.60 -6.00
Si -0.48 11.20  3.47
Si 10.07 -3.08  5.18
Si  1.22 -11.31 -2.92
Si  7.91  4.07 -7.69
Si -4.34 -8.54 -6.83
Si -6.03  8.32  5.73
Si 10.47  0.54 -5.38
Si  2.28 -11.50 -1.30
Si  8.90 -3.99  6.63
Si  3.99 -3.60 10.50
Si -7.21 -1.95 -9.14
Si -8.01  2.75  8.24
Si  2.09 -9.96 -6.07
Si -2.80  0.34 11.52
Si  5.39 -8.71 -6.00
Si  3.36 -11.38 -0.61
Si -7.51  7.47 -5.38
Si 10.85 -2.52  4.16
Si 11.71  0.32 -2.06
Si  3.94  3.21 -10.77
Si  9.81 -3.04 -6.07
Si -11.51  1.48 -2.80
Si -0.18 10.76  5.18
Si -5.51 10.53 -1.22
Si -5.76  6.00 -8.59
Si 11.08 -4.45 -0.61
Si -1.35  9.86  6.63
Si  7.63  6.40  6.63
Si  8.75 -2.85 -7.69
Si  4.87 -10.92  0.96
Si -7.63  1.52 -9.14
Si -3.78 -3.71 -10.77
Si -4.58 -3.60 10.50
Si 11.48  2.24  2.71
Si  8.51  7.74  3.47
Si  1.48 -4.97 -10.85
Si  2.90 -7.52  8.94
Si  3.19 -0.08 -11.60
Si  8.85  6.91 -4.37
Si  4.73  8.80  6.75
Si 10.04  4.01 -5.38
Si  0.59 11.32  4.16
Si 11.29  3.78 -2.06
Si -6.51 -9.57  3.47
Si -8.62  7.74  3.47
Si -6.43 -1.39 -10.15
Si  0.21  5.42 -10.85
Si 11.75  2.93  0.96
Si -4.63  3.21 -10.77
Si -2.37 -3.12 11.52
Si -7.74  9.40 -0.61
Si -7.58 -9.38  1.85
Si  0.64 10.93 -5.38
Si  2.15 11.39 -3.82
Si  2.58 -11.94  0.41
Si 12.17 -0.53  0.96
Si -8.32  7.30  5.18
Si 11.90 -1.22  2.71
Si -8.51  8.84  0.41
Si  7.25  9.46 -2.92
Si -5.42  3.33 10.50
Si -5.13  7.46  8.32
Si -10.67 -5.44 -2.80
Si -0.37 12.30  0.41
Si -4.07 -7.85 -8.59
Si  8.62  8.84  0.41
Si  4.78 -3.71 -10.77
Si 10.19 -6.11  3.47
Si -11.74  3.41  1.98
Si -7.29 -1.16  9.95
Si  2.76  3.38 -11.60
Si -0.44 10.81 -6.07
Si -6.30  7.63  7.49
Si -0.74  4.86 11.40
Si -6.86  2.08 -10.15
Si  0.09  8.44 -9.14
Si -5.40 -9.84 -5.38
Si  4.49 -7.85 -8.59
Si  1.03 -9.77 -7.69
Si 10.89 -2.92 -5.38
Si  6.69 -7.37 -7.57
Si  8.31  9.28 -1.30
Si -5.21 -11.38 -0.61
Si -0.01 -1.32 -12.46
Si -3.22  3.81 11.52
Si -3.96 -11.60  2.71
Si  8.81  7.30  5.18
Si  9.36 -7.84 -2.92
Si  9.12  2.75  8.24
Si -6.79 -5.41 -9.14
Si -2.79 -11.78  3.55
Si 11.98  1.00 -3.82
Si  9.54 -0.71  8.24
Si -0.43  2.15 -12.46
Si -9.69  7.93  1.85
Si  3.61 -3.54 -11.60
Si -7.81 -7.45  6.63
Si  0.53 -5.52 11.40
Si -9.22  4.07 -7.69
Si 12.13 -3.15 -2.06
Si -0.29  9.67  8.24
Si  3.30 -0.82 12.26
Si -2.91  1.09 -12.34
Si 11.06  5.71  2.71
Si -1.26 -12.36 -2.80
Si -7.96 -6.31 -7.69
Si -10.48 -6.97  1.98
Si -6.01 -4.85 -10.15
Si  7.08 -10.44  1.98
Si  4.60 -11.60  2.71
Si -6.68 10.70 -2.06
Si -5.38 -0.08 -11.60
Si  2.72  6.79 10.50
Si -7.71  2.31  9.95
Si  8.55  7.35 -6.07
Si -2.48 -2.37 -12.34
Si -0.67 12.74 -1.30
Si  1.18 -10.91  6.63
