500
set: 919.00  0.00  0.00
Si -0.41  1.16 -0.81
Si  0.41 -1.19  0.82
Si  1.31  1.18  0.83
Si -1.32 -1.19 -0.81
Si -2.17  1.15  0.81
Si  0.87 -0.02 -2.45
Si  2.18 -1.17 -0.82
Si -0.88 -0.01  2.45
Si  3.06  1.18 -0.79
Si -3.07 -1.16  0.82
Si  0.03  2.34  2.45
Si -0.01 -2.35 -2.45
Si  2.62 -0.01  2.41
Si -2.59  0.02 -2.44
Si -0.48 -3.49  0.83
Si  0.50  3.50 -0.80
Si  1.72 -2.32  2.46
Si -1.25  3.50  0.81
Si -1.76 -2.35  2.43
Si  1.28 -3.50 -0.81
Si  1.78  2.35 -2.42
Si -1.75  2.36 -2.46
Si -0.89 -0.04 -4.07
Si  3.91 -1.16  0.84
Si -3.92  1.16 -0.83
Si  0.85 -0.01  4.10
Si -2.20 -3.51 -0.80
Si  2.22  3.53  0.83
Si -2.99  3.49 -0.82
Si -0.05 -2.33  4.07
Si  2.98 -3.53  0.80
Si  0.04  2.35 -4.11
Si  2.61  0.01 -4.06
Si -2.60 -0.01  4.08
Si  3.46 -2.34 -2.45
Si -3.46  2.36  2.46
Si -3.52 -2.31 -2.46
Si  3.52  2.35  2.42
Si  1.72 -2.34 -4.05
Si -1.71  2.35  4.06
Si -4.36 -0.01  2.46
Si  4.36  0.01 -2.46
Si -4.80 -1.16 -0.82
Si  1.77  2.34  4.07
Si -1.79 -2.34 -4.07
Si  4.83  1.16  0.84
Si  0.82 -4.67  2.42
Si -0.92 -4.67 -2.42
Si  0.94  4.67  2.43
Si -3.95 -3.52  0.81
Si  3.97  3.52 -0.81
Si -0.82  4.71 -2.46
Si -3.48  2.33 -4.05
Si -5.64  1.16  0.84
Si  3.46 -2.34  4.07
Si  0.42 -1.16 -5.70
Si -0.44  1.17  5.70
Si  5.67 -1.16 -0.82
Si -3.53 -2.35  4.04
Si -2.55  4.68  2.44
Si  2.56 -4.68 -2.47
Si  3.52  2.37 -4.07
Si  0.36 -5.84 -0.79
Si -2.67 -4.67  2.45
Si  2.69  4.67 -2.45
Si -0.37  5.86  0.82
Si -1.31 -1.16  5.67
Si -4.36  0.01 -4.06
Si  1.30  1.18 -5.71
Si -4.79  3.49  0.80
Si  4.78 -3.52 -0.82
Si  4.37  0.01  4.11
Si  1.38  5.82 -0.81
Si -1.38 -5.83  0.83
Si  2.17 -1.14  5.70
Si  5.22 -2.34  2.44
Si -5.22  2.33 -2.47
Si -0.83  4.67  4.04
Si  0.83 -4.64 -4.07
Si -5.25 -2.34  2.44
Si -2.18  1.16 -5.73
Si  5.25  2.33 -2.47
Si -0.93 -4.67  4.07
Si  0.91  4.68 -4.07
Si -2.10  5.85 -0.82
Si  2.13 -5.86  0.84
Si -3.06 -1.16 -5.71
Si -6.11  0.01 -2.46
Si  6.12 -0.01  2.46
Si  3.07  1.17  5.72
Si  3.11  5.83  0.82
Si -3.11 -5.86 -0.81
Si  0.46  3.47  5.71
Si -0.50 -3.52 -5.68
Si  6.55  1.16 -0.83
Si  2.55 -4.69  4.07
Si  5.68  3.49  0.80
Si -2.57  4.65 -4.11
Si -6.56 -1.16  0.84
Si -5.69 -3.52 -0.82
Si  2.65  4.69  4.07
Si -2.66 -4.67 -4.11
Si -1.25  3.49 -5.70
Si  4.31 -4.66  2.46
Si  1.26 -3.50  5.71
Si -4.32  4.68 -2.45
Si -4.44 -4.66 -2.46
Si  4.42  4.69  2.46
Si -3.92  1.14  5.66
Si  3.90 -1.18 -5.70
Si  2.20  3.50 -5.68
Si -5.23  2.33  4.07
Si  5.25  2.33  4.07
Si  5.20 -2.37 -4.11
Si  3.85 -5.85 -0.83
Si -3.87  5.85  0.84
Si -2.23 -3.55  5.71
Si -5.27 -2.37 -4.11
Si  3.02 -3.50 -5.66
Si  6.11  0.01 -4.06
Si -3.02  3.51  5.71
Si -6.10  0.01  4.11
Si -0.08 -7.03  2.41
Si -6.50  3.52 -0.81
Si -0.41  1.16 -7.34
Si  0.10  7.04 -2.44
Si  6.52 -3.52  0.81
Si  0.43 -1.16  7.35
Si -1.32 -1.17 -7.32
Si  1.34  1.16  7.33
Si  4.30 -4.69 -4.05
Si  7.41 -1.16  0.82
Si -7.41  1.18 -0.79
Si -4.31  4.68  4.07
Si  4.81  1.17 -5.71
Si -4.82 -1.18  5.73
Si -4.41 -4.67  4.06
Si  1.66 -7.00 -2.46
Si  4.42  4.68 -4.05
Si -1.66  7.01  2.46
Si  1.82  7.01  2.45
Si  4.88  5.85 -0.82
Si -4.87 -5.86  0.81
Si -1.83 -7.04 -2.45
Si -2.17  1.20  7.32
Si -6.95  2.35  2.42
Si  6.96 -2.31 -2.46
Si  2.17 -1.16 -7.35
Si -3.95 -3.52 -5.70
Si  7.01  2.36  2.46
Si -7.02 -2.34 -2.45
Si  3.96  3.52  5.71
Si  6.03 -4.66 -2.46
Si -3.09 -1.15  7.31
Si  3.07  1.18 -7.32
Si -6.05  4.69  2.46
Si -0.09 -7.00 -4.06
Si  0.10  7.00  4.08
Si -6.16 -4.66  2.46
Si  6.15  4.68 -2.45
Si -5.66  1.17 -5.71
Si  0.47  3.50 -7.32
Si  5.65 -1.18  5.73
Si -5.60  5.85 -0.82
Si -0.48 -3.53  7.32
Si  5.61 -5.86  0.81
Si -4.75  3.51 -5.66
Si  3.42 -7.02  2.46
Si  0.38 -5.84  5.72
Si -0.36  5.86 -5.71
Si -3.41  7.03 -2.46
Si -7.85 -0.01  2.41
Si  4.76 -3.50  5.71
Si  0.53  8.17  0.81
Si  3.57  7.00 -2.45
Si -1.24  3.53  7.33
Si -0.52 -8.19 -0.82
Si  7.88  0.02 -2.44
Si -3.58 -7.03  2.45
Si  1.27 -3.52 -7.36
Si  1.39  5.86  5.67
Si  1.81  6.98 -4.07
Si -1.67  7.02 -4.06
Si -1.40 -5.84 -5.71
Si  7.48  3.49 -0.82
Si  1.67 -7.01  4.11
Si  1.21 -8.18  0.84
Si -1.22  8.18 -0.83
Si -7.49 -3.53  0.80
Si -1.85 -7.03  4.10
Si  6.94 -2.35  4.04
Si  3.91 -1.18  7.30
Si -3.90  1.17 -7.34
Si -6.95  2.37 -4.07
Si  2.22  3.49  7.32
Si  7.00  2.33 -4.05
Si -8.29 -1.17 -0.82
Si  8.30  1.15  0.81
Si -2.23 -3.52 -7.32
Si -7.01 -2.34  4.07
Si  2.11 -5.85 -5.71
Si -2.13  5.84  5.73
Si  2.28  8.18 -0.81
Si -2.29 -8.21  0.82
Si  3.01 -3.49  7.31
Si -3.01  3.50 -7.32
Si -6.05  4.68 -4.05
Si  6.06 -4.67  4.06
Si -2.94  8.18  0.84
Si  6.55  1.14  5.66
Si  6.16  4.68  4.07
Si  2.97 -8.18 -0.82
Si -6.17 -4.69 -4.05
Si  3.12  5.85 -5.70
Si -3.14 -5.85  5.70
Si  5.72  3.51 -5.66
Si -6.58 -1.18 -5.70
Si  3.41 -7.01 -4.06
Si -5.71 -3.50  5.71
Si -3.41  7.02  4.11
Si -4.81 -1.15 -7.32
Si  4.80  1.17  7.32
Si -7.86  0.01 -4.06
Si  3.54  7.01  4.10
Si  7.87 -0.01  4.08
Si  6.61  5.85  0.84
Si -6.62 -5.85 -0.83
Si -3.58 -7.06 -4.07
Si  0.87  0.02 -8.95
Si -0.85 -0.01  8.97
Si -8.25  3.53  0.83
Si  8.27 -3.51 -0.80
Si  3.85 -5.88  5.66
Si -3.94 -3.49  7.33
Si -5.15  7.00  2.41
Si -3.88  5.83 -5.70
Si  5.18 -6.99 -2.44
Si  3.97  3.50 -7.36
Si -5.29 -6.99 -2.44
Si  5.32  7.00  2.41
Si  4.01  8.20  0.83
Si -4.02 -8.21 -0.81
Si -0.04 -2.32 -8.94
Si  0.03  2.31  8.96
Si  9.15 -1.19 -0.81
Si -9.16  1.18  0.83
Si -8.69  2.35 -2.42
Si  5.66 -1.15 -7.32
Si -5.67  1.17  7.32
Si -2.60 -0.01 -8.97
Si  2.62  0.01  8.96
Si  8.71 -2.35  2.43
Si -6.51  3.52  5.71
Si  6.52 -3.52 -5.70
Si  0.38 -5.83 -7.32
Si  8.73  2.36 -2.46
Si -8.75 -2.32  2.46
Si -0.40  5.87  7.31
Si -7.78  4.67 -2.45
Si -4.76  3.52  7.31
Si  4.77 -3.51 -7.32
Si  1.76  2.32 -8.95
Si -1.72  2.35 -8.96
Si  7.80 -4.67  2.45
Si -7.36  5.83  0.82
Si -7.40  1.17  5.72
Si  7.41 -1.16 -5.71
Si -1.76 -2.35  8.96
Si  1.71 -2.33  8.98
Si  7.36 -5.86 -0.81
Si  4.71 -8.17  0.82
Si -1.36 -5.85  7.33
Si  1.38  5.85 -7.32
Si -4.71  8.19 -0.79
Si  7.92  4.68  2.44
Si -7.92 -4.68 -2.47
Si  4.87  5.88  5.70
Si -4.88 -5.86 -5.73
Si  2.11 -5.84  7.32
Si -2.12  5.86 -7.32
Si -5.16  7.03 -4.06
Si  5.17 -7.03  4.08
Si  0.76 -9.35 -2.45
Si  5.31  7.03 -4.06
Si -5.30 -7.03  4.08
Si -0.97 -9.34  2.46
Si -0.77  9.37  2.46
Si  0.95  9.38 -2.46
Si  8.68 -2.34 -4.07
Si -9.20 -3.50 -0.81
Si  3.48 -2.35 -8.94
Si -3.45  2.35  8.95
Si -8.71  2.34  4.07
Si -6.57 -1.18  7.30
Si -3.11 -5.85 -7.34
Si  9.22  3.50  0.81
Si  9.59 -0.01  2.45
Si  3.53  2.34  8.96
Si -9.60 -0.02 -2.45
Si  3.13  5.86  7.35
Si -3.52 -2.36 -8.96
Si  6.57  1.17 -7.34
Si  5.59 -5.86 -5.73
Si -8.75 -2.34 -4.05
Si -5.71 -3.51 -7.32
Si -5.60  5.88  5.70
Si  5.71  3.52  7.31
Si  8.76  2.35  4.06
Si -4.34 -0.01  8.95
Si -0.52 -8.15  5.70
Si  4.33 -0.02 -8.98
Si  7.81 -4.67 -4.11
Si -7.83  4.69  4.07
Si  2.52 -9.36  2.44
Si -2.52  9.35 -2.47
Si -7.45 -3.50 -5.66
Si  0.51  8.18 -5.73
Si -1.22  8.15  5.66
Si  7.46  3.51  5.71
Si -5.76 -8.17  0.82
Si  7.90  4.65 -4.11
Si -2.71 -9.36 -2.45
Si  5.76  8.19 -0.79
Si  2.73  9.36  2.45
Si  1.20 -8.20 -5.70
Si -7.92 -4.69  4.07
Si -3.87  5.84  7.30
Si -6.90  7.00 -2.45
Si -8.30 -1.14  5.70
Si -0.82  4.66 -8.96
Si  0.83 -4.68  8.96
Si  6.89 -7.03  2.45
Si  8.29  1.16 -5.73
Si  0.94  4.67  8.96
Si  3.87 -5.85 -7.34
Si -0.94 -4.70 -8.95
Si 10.06  1.16 -0.81
Si -10.06 -1.19  0.82
Si -0.78  9.34 -4.05
Si -8.34 -5.86  0.84
Si  0.76 -9.35  4.07
Si  2.26  8.19  5.70
Si -2.28 -8.18 -5.70
Si -0.97 -9.35 -4.05
Si  8.37  5.85 -0.82
Si -7.05 -7.02  2.46
Si  0.99  9.37  4.06
Si  7.06  7.03 -2.46
Si  2.56 -4.67 -8.93
Si -2.96  8.19 -5.71
Si  9.59 -0.04 -4.07
Si -2.57  4.67  8.95
Si  6.53 -3.49  7.33
Si  2.95 -8.20  5.73
Si -6.50  3.50 -7.36
Si  2.66  4.69 -8.94
Si  7.38 -1.15  7.31
Si -9.62 -0.01  4.10
Si -2.67 -4.70  8.96
Si -6.46  8.20  0.83
Si  6.45 -8.21 -0.81
Si -7.40  1.18 -7.32
Si  6.59  5.83 -5.70
Si -2.53  9.34  4.07
Si -6.62 -5.88  5.66
Si -4.87 -5.82  7.32
Si  4.26 -9.33 -2.46
Si -0.29 10.51 -0.82
Si  2.50 -9.39 -4.11
Si -2.75 -9.34  4.07
Si -4.25  9.36  2.42
Si  0.29 -10.54  0.80
Si  4.87  5.86 -7.35
Si  2.74  9.37 -4.11
Si -9.97  3.50 -0.80
Si -5.21  2.35 -8.93
Si -0.85 -0.01 -10.58
Si  5.20 -2.35  8.95
Si  9.99 -3.49  0.83
Si  5.26  2.35 -8.93
Si -8.28  3.50 -5.68
Si  8.24 -3.55  5.71
Si  0.87  0.02 10.60
Si -1.42 -10.51 -0.81
Si -5.27 -2.35  8.95
Si  1.45 10.52  0.81
Si -4.46 -9.36  2.43
Si  4.48  9.37 -2.42
Si  6.89 -7.06 -4.07
Si -6.93  7.01  4.10
Si -4.01 -8.18  5.67
Si -2.09 10.50  0.80
Si -7.06 -7.01 -4.06
Si  4.00  8.20 -5.71
Si  2.08 -10.54 -0.82
Si  7.07  7.02  4.11
Si -9.09  5.82 -0.81
Si  9.09 -5.83  0.83
Si  9.16 -1.16  5.67
Si  0.03  2.31 -10.58
Si  6.13 -0.01  8.95
Si -0.04 -2.32 10.60
Si -9.18  1.18 -5.71
Si -6.14 -0.02 -8.98
Si -9.53  4.67  2.43
Si -2.60 -0.01 10.58
Si  5.61 -5.82  7.32
Si  2.62  0.01 -10.58
Si  9.56 -4.67 -2.42
Si -5.60  5.86 -7.35
Si  1.71 -2.33 -10.57
Si -4.29  4.67 -8.94
Si -10.44  2.34  2.45
Si  7.33 -5.85  5.70
Si -10.88  1.16 -0.81
Si 10.88 -1.19  0.82
Si  4.32 -4.67  8.95
Si -1.76 -2.35 -10.58
Si -1.72  2.35 10.59
Si  1.76  2.32 10.60
Si -9.65 -4.67  2.42
Si -7.36  5.85 -5.70
Si 10.46 -2.35 -2.45
Si -3.18 -10.50  0.83
Si -0.53 -8.18 -7.35
Si  0.53  8.21  7.32
Si -10.48 -2.35 -2.45
Si -7.46 -3.49  7.31
Si  9.65  4.71 -2.46
Si -4.42 -4.67 -8.96
Si  7.46  3.50 -7.32
Si  3.20 10.52 -0.80
Si  4.71 -8.17 -5.71
Si 10.50  2.34  2.45
Si -4.70  8.19  5.72
Si  1.21 -8.19  7.30
Si  4.24 -9.36  4.04
Si  4.41  4.69  8.98
Si -1.20  8.19 -7.34
Si -4.25  9.39 -4.07
Si -7.50 -8.18 -0.82
Si  8.30  1.20  7.32
Si  4.46  9.36  4.07
Si -4.49 -9.35 -4.07
Si  7.53  8.18  0.84
Si -8.30 -1.16 -7.35
Si -2.27 -8.17  7.35
Si -3.80 10.53 -0.81
Si  2.29  8.18 -7.34
Si  3.83 -10.53  0.81
Si  2.96 -8.17 -7.32
Si  9.54 -4.67  4.07
Si -0.07 -7.01  8.96
Si -2.97  8.19  7.32
Si -5.99  9.37 -2.42
Si  0.10  7.01 -8.97
Si -3.45  2.35 -10.59
Si -9.21 -3.50  5.71
Si  6.01 -9.36  2.43
Si  9.22  3.49 -5.70
Si -9.56  4.68 -4.07
Si -3.52 -2.36 10.59
Si -8.65  7.01  2.45
Si  3.53  2.34 -10.59
Si  3.48 -2.35 10.61
Si  8.64 -7.04 -2.45
Si  4.33 -0.02 10.57
Si 10.42 -2.33  4.07
Si  9.64  4.67  4.04
Si  6.60  5.84  7.30
Si -4.34 -0.01 -10.60
Si -9.65 -4.64 -4.07
Si -10.43  2.35 -4.11
Si -6.60 -5.85 -7.34
Si -6.21 -9.33 -2.46
Si -1.64  7.00  8.95
Si  6.22  9.36  2.42
Si -1.83 -6.99 -8.95
Si -5.76 -8.17 -5.71
Si -8.81 -7.00 -2.46
Si -10.52 -2.33  4.07
Si -10.95 -3.49  0.83
Si  1.64 -7.04 -8.98
Si 10.51  2.35 -4.11
Si  8.81  7.01  2.46
Si  5.77  8.19  5.72
Si  1.85  7.01  8.97
Si 10.97  3.50 -0.80
Si -8.25  3.49  7.32
Si  8.24 -3.52 -7.32
Si -6.95  2.34  8.96
Si -6.99 -2.35 -8.94
Si  6.96 -2.36 -8.96
Si -0.82  4.66 10.59
Si 10.03  1.17  5.70
Si -8.19  8.18 -0.81
Si 11.34 -0.02 -2.45
Si  0.94  4.67 -10.58
Si  0.83 -4.68 -10.59
Si -11.35 -0.01  2.45
