500
set: 490.00  0.00  0.00
Si -0.20 -0.13 -0.13
Si  1.64  0.80  0.70
Si -1.61  1.21  0.94
Si  0.17 -2.13  0.80
Si -0.16 -0.26 -2.39
Si  1.36  1.21  2.83
Si  0.02  1.96 -2.82
Si -3.50  0.23  0.12
Si  1.82 -1.31 -2.76
Si  2.10  2.91 -0.16
Si  2.12 -2.90  0.11
Si -1.49 -3.31 -0.16
Si -1.47  3.33  0.11
Si -1.77  0.76  3.11
Si -3.12 -1.89  0.55
Si  3.69  0.23  0.12
Si  0.02 -2.19  3.05
Si -2.23 -0.86 -3.04
Si  3.25  0.26 -2.07
Si -1.85  2.82 -2.06
Si  1.66 -0.86  3.56
Si -1.94 -2.94 -2.31
Si  1.66  3.29 -2.31
Si  1.75 -3.41 -2.06
Si  0.48  4.33  0.55
Si -1.85 -1.33  3.81
Si -3.93  0.26 -2.07
Si -0.34  2.34  3.80
Si  4.07 -1.89  0.55
Si  3.46 -1.91  2.78
Si -3.73 -1.91  2.78
Si -0.14 -3.99 -3.09
Si -0.14  4.31  2.78
Si  3.46  2.24 -3.09
Si  3.44  1.82  3.48
Si -3.73  2.24 -3.09
Si  1.98 -0.86 -4.93
Si -3.42  4.09  0.80
Si -3.75  1.82  3.48
Si  0.17  2.02 -5.07
Si  1.98 -5.01  0.94
Si  3.76  4.09  0.80
Si -0.15 -4.41  3.48
Si -5.55  0.80  0.70
Si -1.96 -1.27 -5.17
Si  5.58  1.21  0.94
Si -1.96 -5.42  0.70
Si -5.06 -2.90  0.11
Si -5.08  2.91 -0.16
Si  4.96 -0.86 -3.04
Si -1.77  4.91 -2.76
Si  0.10 -6.00  0.12
Si  0.10 -1.85 -5.75
Si -2.23 -5.01  2.83
Si -5.37 -1.31 -2.76
Si -3.57  4.03  3.05
Si -1.47 -0.82  5.98
Si  2.10 -1.24  5.71
Si  3.62  4.03  3.05
Si -3.57 -4.27 -2.82
Si -1.49  0.84 -6.03
Si  3.62 -4.27 -2.82
Si  2.12  1.25 -5.76
Si  5.41  0.76  3.11
Si  1.36  5.36 -3.04
Si -0.34 -5.96 -2.07
Si  3.25 -3.89  3.80
Si  5.34  2.82 -2.06
Si  0.10  2.30  5.99
Si  1.74  4.89  3.81
Si  0.48  0.18  6.42
Si  5.25 -2.94 -2.31
Si  0.10  6.45  0.12
Si  1.82 -5.46  3.11
Si -3.12  2.26 -5.32
Si -5.82  1.21  2.83
Si  5.70 -3.31 -0.16
Si  5.72  3.33  0.11
Si -5.53 -0.86  3.56
Si  0.48 -3.97 -5.32
Si  5.34 -1.33  3.81
Si -3.93 -3.89  3.80
Si -1.94  5.36  3.56
Si -5.44 -3.41 -2.06
Si -0.34  6.49 -2.07
Si -5.53  3.29 -2.31
Si  3.40  1.95  5.74
Si  3.40  6.10 -0.13
Si  6.99 -0.13 -0.13
Si  4.07  2.26 -5.32
Si -3.79  1.95  5.74
Si -0.20 -4.28  5.74
Si -3.79  6.10 -0.13
Si  3.40 -6.36 -0.13
Si -0.20  4.02 -6.00
Si -5.21 -0.86 -4.93
Si  3.40 -2.21 -6.00
Si -5.21 -5.01  0.94
Si  3.44  5.97 -2.39
Si -1.96  7.03  0.70
Si  1.64  4.95 -5.17
Si -7.02 -2.13  0.80
Si -7.38 -0.13 -0.13
Si -3.79 -6.36 -0.13
Si -3.42 -4.21 -5.07
Si -3.79 -2.21 -6.00
Si  7.03 -0.26 -2.39
Si -1.96  2.88  6.57
Si -3.75  5.97 -2.39
Si -1.61  5.36 -4.93
Si  5.23 -1.27 -5.17
Si -3.42 -0.06  6.67
Si  1.64 -3.35  6.57
Si  5.23 -5.42  0.70
Si -1.61 -2.94  6.81
Si  3.77 -4.21 -5.07
Si  4.96 -5.01  2.83
Si  3.77 -0.06  6.67
Si  7.36 -2.13  0.80
Si  3.44 -6.48 -2.39
Si -7.34 -0.26 -2.39
Si -1.49  4.99  5.71
Si -5.08 -1.24  5.71
Si -1.47 -4.97 -5.76
Si  1.98  7.44  0.94
Si -5.06  1.25 -5.76
Si  5.41  4.91 -2.76
Si  1.98  3.29  6.81
Si  1.36 -7.09 -3.04
Si -3.75 -6.48 -2.39
Si  1.82  6.99  3.11
Si -7.17  1.96 -2.82
Si -3.50 -3.92  5.99
Si  7.21  1.96 -2.82
Si -6.71  4.33  0.55
Si -3.50  4.38 -5.75
Si  3.69 -3.92  5.99
Si -7.16 -2.19  3.05
Si  3.69  4.38 -5.75
Si  7.21 -2.19  3.05
Si  0.48 -8.12  0.55
Si -0.34 -1.81 -7.94
Si  1.75  0.74 -7.93
Si -1.94 -7.09  3.56
Si  6.85  2.34  3.80
Si -1.77 -7.54 -2.76
Si -5.44  4.89  3.81
Si -5.37 -5.46  3.11
Si -2.23  7.44  2.83
Si  5.25  5.36  3.56
Si  5.72 -0.82  5.98
Si  2.12  5.40  5.98
Si  5.70  0.84 -6.03
Si  2.10 -5.39 -6.03
Si -5.83  5.36 -3.04
Si -1.94  1.21 -8.18
Si -0.14 -8.14  2.78
Si  1.75 -7.56  3.81
Si -0.14  0.16  8.65
Si  7.05 -3.99 -3.09
Si  7.05  4.31  2.78
Si -7.53  2.34  3.80
Si -0.16  8.04  3.48
Si -1.61 -7.09 -4.93
Si  5.23  7.03  0.70
Si  7.67  4.33  0.55
Si  5.23  2.88  6.57
Si  8.82  0.80  0.70
Si -7.02  2.02 -5.07
Si -7.33 -3.99 -3.09
Si -8.80  1.21  0.94
Si -7.33  4.31  2.78
Si -0.14  0.16 -8.96
Si  7.03 -4.41  3.48
Si -0.14  8.46 -3.09
Si -5.55  4.95 -5.17
Si -3.42 -8.36  0.80
Si  0.17  6.17  6.67
Si  8.55  1.21  2.83
Si -0.16  3.89 -8.26
Si -5.21  7.44  0.94
Si  7.36  2.02 -5.07
Si  0.17 -6.29  6.67
Si  5.57  5.36 -4.93
Si -5.21  3.29  6.81
Si  3.77 -8.36  0.80
Si -5.55 -3.35  6.57
Si  3.44 -2.33 -8.26
Si -1.47 -9.12  0.11
Si -7.34 -4.41  3.48
Si  1.64 -7.50 -5.17
Si -1.49  9.14 -0.16
Si  1.82  2.84 -8.63
Si -8.66  3.33  0.11
Si  5.58 -2.94  6.81
Si  1.36 -2.94  8.70
Si -7.09 -6.00  0.12
Si -8.68 -3.31 -0.16
Si -6.71  0.18  6.42
Si  6.85 -5.96 -2.07
Si -7.09 -1.85 -5.75
Si -5.37  6.99  3.11
Si -3.12 -6.04  6.42
Si -3.57  8.18 -2.82
Si -3.75 -2.33 -8.26
Si  4.96  7.44  2.83
Si  3.62  8.18 -2.82
Si -3.57 -0.12 -8.69
Si  3.62 -0.12 -8.69
Si -6.71 -3.97 -5.32
Si  1.74  9.04 -2.06
Si  7.29 -6.00  0.12
Si -1.77 -3.39 -8.63
Si  7.29 -1.85 -5.75
Si  1.36 -2.94 -8.90
Si  2.12 -7.05  5.98
Si  5.70  4.99  5.71
Si  9.01 -1.31 -2.76
Si  5.25 -7.09  3.56
Si -5.07  5.40  5.98
Si -8.96  0.76  3.11
Si -1.49 -7.46  5.71
Si  2.10  7.06 -6.03
Si  5.72 -4.97 -5.76
Si -5.08 -5.39 -6.03
Si -1.47  7.48 -5.76
Si -7.09  2.30  5.99
Si -2.23  3.29  8.70
Si  8.85 -0.86  3.56
Si -7.09  6.45  0.12
Si  1.82  2.84  8.98
Si -3.12  6.41  6.42
Si  1.66 -9.16 -2.31
Si -3.57 -0.12  8.92
Si  3.62 -0.12  8.92
Si -3.57 -8.42  3.05
Si -5.44  0.74 -7.93
Si  3.25  4.41 -7.94
Si  6.85  6.49 -2.07
Si  3.62 -8.42  3.05
Si -5.82 -7.09 -3.04
Si  5.42 -7.54 -2.76
Si -9.04  2.82 -2.06
Si -1.94  1.21  9.43
Si  7.29  2.30  5.99
Si  4.07 -6.04  6.42
Si  8.85  3.29 -2.31
Si  7.29  6.45  0.12
Si  1.66 -5.01 -8.18
Si  9.29  2.91 -0.16
Si -2.23  3.29 -8.90
Si  9.31 -2.90  0.11
Si -1.77 -3.39  8.98
Si  2.11 -9.54 -0.16
Si  8.93 -3.41 -2.06
Si  2.12  9.55  0.11
Si  5.25  1.21 -8.18
Si -1.85 -5.49 -7.93
Si -7.53 -5.96 -2.07
Si -0.34 -1.81  9.67
Si -9.12 -2.94 -2.31
Si  1.75  0.74  9.68
Si -9.04 -1.33  3.81
Si -3.93  4.41 -7.94
Si  3.25  8.56  3.80
Si -9.42 -0.86 -3.04
Si  4.07  6.41  6.42
Si -1.94  9.51 -2.31
Si -0.20  8.17  5.74
Si  7.67  0.18  6.42
Si  6.99 -4.28  5.74
Si  0.48  8.48 -5.32
Si -1.85 -9.63 -2.06
Si  6.99  4.02 -6.00
Si -5.44 -7.56  3.81
Si -0.16  3.89  9.35
Si  7.67 -3.97 -5.32
Si -7.53  6.49 -2.07
Si -3.94  8.56  3.80
Si  3.44 -2.33  9.35
Si -3.42  8.24 -5.07
Si  5.58 -7.09 -4.93
Si -7.38 -4.28  5.74
Si -7.38  4.02 -6.00
Si -3.75 -2.33  9.35
Si -0.19 -8.43 -6.00
Si  0.17 10.32  0.80
Si  3.76  8.24 -5.07
Si  9.17 -0.86 -4.93
Si -10.30 -1.89  0.55
Si  9.17 -5.01  0.94
Si -3.50 -8.07 -5.75
Si -5.06 -7.05  5.98
Si  8.55  5.36 -3.04
Si  4.96  3.29  8.70
Si -6.71 -8.12  0.55
Si -8.66 -0.82  5.98
Si -5.37  2.84 -8.63
Si  3.69 -8.07 -5.75
Si -9.14 -1.27 -5.17
Si -5.08  7.06 -6.03
Si -8.96  4.91 -2.76
Si -8.68  0.84 -6.03
Si  0.02  6.11 -8.69
Si  6.85 -1.81 -7.94
Si 10.44  0.26 -2.07
Si -9.14 -5.42  0.70
Si -5.55 -7.50 -5.17
Si -10.68  0.23  0.12
Si  0.02 10.26  3.05
Si  4.96  3.29 -8.90
Si -1.85  6.97 -7.93
Si  5.42 -3.39 -8.63
Si -5.44  9.04 -2.06
Si  0.03 -6.35 -8.69
Si  5.70  9.14 -0.16
Si  5.72 -9.12  0.11
Si  1.66 -5.01  9.43
Si -0.34 -10.11  3.80
Si -5.08 -9.54 -0.16
Si  0.02  6.11  8.92
Si -5.07  9.55  0.11
Si -5.37  2.84  8.98
Si  5.25  1.21  9.43
Si  0.03 -10.50 -2.82
Si  8.93  4.89  3.81
Si -5.82 -2.94  8.70
Si 10.88  0.23  0.12
Si  0.03 -6.34  8.92
Si -5.53 -9.16 -2.31
Si  9.29 -1.24  5.71
Si  9.01 -5.46  3.11
Si -3.50  8.53  5.99
Si  5.70 -7.46  5.71
Si  5.42 -3.39  8.98
Si  9.31  1.25 -5.76
Si  5.34 -5.49 -7.93
Si -3.12 10.56  0.55
Si  5.72  7.48 -5.76
Si -5.82 -2.94 -8.90
Si -9.42 -5.01  2.83
Si  3.69  8.53  5.99
Si -5.53 -5.01 -8.18
Si -7.53 -1.81 -7.94
Si  5.25  9.51 -2.31
Si  3.46 -6.06  8.65
Si  3.25  4.41  9.67
Si  7.05 -8.14  2.78
Si -5.44  0.74  9.68
Si  7.05  0.16  8.65
Si -9.12  5.36  3.56
Si 10.64 -1.91  2.78
Si  1.66  7.44 -8.18
Si  7.67 -8.12  0.55
Si  0.48  0.18 -11.19
Si -3.73 -6.06  8.65
Si  5.34 -9.63 -2.06
Si  3.46 -10.21 -3.09
Si  7.03  8.04  3.48
Si -1.85 -5.48  9.68
Si  3.46  6.39  8.65
Si -7.32 -8.14  2.78
Si -3.73 -10.21 -3.09
Si -1.61 -2.94 -10.80
Si 10.64  2.24 -3.09
Si -11.12  0.26 -2.07
Si 10.63  1.82  3.48
Si  4.07 10.56  0.55
Si -3.93  4.41  9.67
Si -7.33  0.16  8.65
Si  1.64  9.10  6.57
Si  3.46 -6.06 -8.96
Si  8.82  4.95 -5.17
Si -3.73  6.39  8.65
Si -1.61 -11.24  0.94
Si -10.61  4.09  0.80
Si  7.05  0.16 -8.96
Si -8.80  5.36 -4.93
Si -10.92 -1.91  2.78
Si 11.26 -1.89  0.55
Si  3.46 10.54  2.78
Si -7.34  8.04  3.48
Si  7.05  8.46 -3.09
Si -3.73 -6.06 -8.96
Si  1.98  3.29 -10.80
Si -3.42 -0.06 -10.94
Si -7.02  6.17  6.67
Si  8.82 -3.35  6.57
Si -8.80 -2.94  6.81
Si  8.55 -7.09 -3.04
Si -3.73 10.54  2.78
Si  7.03  3.89 -8.26
Si -8.68  4.99  5.71
Si -8.66 -4.97 -5.76
Si  3.46  6.39 -8.96
Si -7.02 -6.29  6.67
Si -9.15  7.03  0.70
Si -10.92  2.24 -3.09
Si  3.77 -0.06 -10.94
Si -7.33  0.16 -8.96
Si -1.96  2.88 -11.04
Si  1.98 -9.16  6.81
Si  0.17 -10.44 -5.07
Si -7.33  8.46 -3.09
Si  1.82 11.14 -2.76
Si -3.73  6.39 -8.96
Si -9.15  2.88  6.57
Si -10.94  1.82  3.48
Si  1.64 -3.35 -11.04
Si  1.37 -11.24  2.83
Si  7.36  6.17  6.67
Si  3.44 -10.63  3.48
Si -1.49  0.84 11.58
Si -7.34  3.89 -8.26
Si 10.95  4.09  0.80
Si  7.36 -6.29  6.67
Si -1.47 -0.82 -11.63
Si  3.26 -8.04 -7.94
Si 10.44 -3.89  3.80
Si -1.96 -9.57  6.57
Si  0.10 -10.15  5.99
Si  1.64 -11.65  0.70
Si -3.75 -10.63  3.48
Si -1.61  9.52  6.81
Si -10.30  2.26 -5.32
Si  9.01  6.99  3.11
Si  5.34  6.97 -7.93
Si  9.17  7.44  0.94
Si  0.10  2.30 -11.62
Si  9.17  3.29  6.81
Si -10.76  4.03  3.05
Si -0.15 -8.56 -8.26
Si -1.85 11.12  3.81
Si -3.12 -10.19 -5.32
Si -10.76 -4.27 -2.82
Si 10.80  4.03  3.05
Si 10.81 -4.27 -2.82
Si -3.93 -8.04 -7.94
Si  8.93  0.74 -7.93
Si  6.85 -1.81  9.67
Si  0.10 -1.85 11.86
Si -5.53 -5.01  9.43
Si -8.96 -7.54 -2.76
Si -6.71  8.48 -5.32
Si  0.10 10.60 -5.75
Si -1.85  6.97  9.68
Si -9.12 -7.09  3.56
Si  2.12  1.25 11.85
Si  1.66  7.44  9.43
Si  2.10 -1.24 -11.89
Si -2.23 11.59 -3.04
Si  6.99  8.17  5.74
Si  4.07 -10.19 -5.32
Si 10.59  1.95  5.74
Si 10.59  6.10 -0.13
Si -1.77 -11.69  3.11
Si  1.66 11.59  3.56
Si -0.20  4.02 11.61
Si  3.40 -2.21 11.61
Si  8.93 -7.56  3.81
Si  9.31  5.40  5.98
Si -9.12  1.21 -8.18
Si  9.29 -5.39 -6.03
Si -0.20 12.32 -0.13
Si -8.80 -7.09 -4.93
Si -9.42  7.44  2.83
Si  7.03  3.89  9.35
Si  5.34 -5.48  9.68
Si  3.40 10.25 -6.00
Si 10.59 -6.36 -0.13
Si -5.53  7.44 -8.18
Si 10.59 -2.21 -6.00
Si -11.12 -3.89  3.80
Si -7.53 -1.81  9.67
Si -3.79 -2.21 11.61
Si 10.63  5.97 -2.39
Si -7.38  8.17  5.74
Si -0.16 12.20 -2.39
Si -5.21  3.29 -10.80
Si  3.40 -10.51  5.74
Si -3.79 10.25 -6.00
Si -1.96 11.18 -5.17
Si  6.99 -8.43 -6.00
Si -10.61 -4.21 -5.07
Si  3.40  1.95 -11.87
Si -7.02 10.32  0.80
Si  5.58 -2.94 -10.80
Si -7.34  3.89  9.35
Si -5.55  9.10  6.57
Si -10.61 -0.06  6.67
Si -10.98  1.95  5.74
Si -5.21 -9.16  6.81
Si 12.15 -0.86 -3.04
Si  5.23  2.88 -11.04
Si  8.55 -2.94  8.70
Si -3.79 -10.51  5.74
Si -10.98  6.10 -0.13
Si  0.17  6.17 -10.94
Si -8.66 -9.12  0.11
Si  5.58 -11.24  0.94
