500
set: 397.00  0.00  0.00
Si  0.08 -0.02  0.01
Si -1.78  1.06  0.74
Si -0.03  0.02 -2.25
Si  1.87  1.06  0.78
Si -0.02 -2.17  0.73
Si  1.76  3.14 -0.03
Si  1.73 -1.12 -3.02
Si -3.66  0.04 -0.02
Si -1.90 -0.97 -2.98
Si  0.03 -2.15  2.97
Si  1.88 -3.15  0.01
Si -1.79  3.21  0.01
Si  0.03  2.10 -3.03
Si  3.69  0.04 -0.02
Si  1.78  1.15  3.02
Si -1.94  1.00  2.98
Si -1.92 -3.23 -0.03
Si  3.53 -0.02 -2.25
Si -1.76  3.13 -2.21
Si  1.87 -1.01  3.70
Si -1.80 -3.13 -2.30
Si -0.14  2.10  3.75
Si -3.66 -2.11  0.79
Si  3.69 -2.11  0.79
Si -1.76 -1.12  3.79
Si  0.01  4.25  0.79
Si  1.92 -3.24 -2.21
Si  1.87  3.23 -2.30
Si -3.82 -0.02 -2.25
Si -3.61  2.15 -2.96
Si  0.06 -4.22 -2.96
Si -3.61 -2.09  3.05
Si  3.74  2.15 -2.96
Si  0.06  4.27  3.05
Si  3.74 -2.09  3.05
Si  3.65  4.20  0.73
Si -1.81 -1.06 -5.23
Si -5.48  1.06  0.78
Si -3.70  4.20  0.73
Si -0.03 -4.22  3.75
Si  3.64  2.14  3.75
Si -1.81 -5.30  0.78
Si -0.02  2.08 -5.27
Si  1.89 -5.30  0.74
Si -3.71  2.14  3.75
Si  1.89 -1.06 -5.26
Si  5.57  1.06  0.74
Si  5.41  1.00  2.98
Si  5.45 -0.97 -2.98
Si -5.47 -3.15  0.01
Si -3.64  4.22  2.97
Si  5.43 -3.23 -0.03
Si -1.90 -5.22  3.02
Si  0.01 -6.33 -0.02
Si  1.76 -1.10  5.98
Si -1.94  5.24 -3.02
Si  3.71  4.22  2.97
Si  0.01  2.16  5.98
Si -1.79 -1.03  6.02
Si  1.88  1.09 -5.99
Si  0.01 -2.08 -6.02
Si -3.64 -4.27 -3.03
Si  1.73 -5.37  2.98
Si -1.92  1.02 -6.03
Si  0.01  6.41 -0.02
Si  3.71 -4.27 -3.03
Si -5.59  3.14 -0.03
Si  1.78  5.39 -2.98
Si  5.56  3.21  0.01
Si -5.57  1.15  3.02
Si -5.62 -1.12 -3.02
Si  3.53 -4.26  3.75
Si -5.48 -1.01  3.70
Si -5.43 -3.24 -2.21
Si  0.01 -4.23 -5.22
Si -3.66  2.13 -5.22
Si  3.69  2.13 -5.22
Si -0.14  6.35 -2.25
Si -1.80  5.36  3.70
Si  1.92  5.25  3.79
Si -5.48  3.23 -2.30
Si -0.14 -6.38 -2.25
Si  5.55 -3.13 -2.30
Si  5.59  3.13 -2.21
Si  0.01  0.01  6.79
Si -3.82 -4.26  3.75
Si  5.59 -1.12  3.79
Si -7.27 -0.02  0.01
Si -3.60  6.34  0.01
Si -3.60  2.10  6.01
Si -3.60 -2.15 -6.00
Si -3.60 -6.39  0.01
Si  0.08  4.22 -6.00
Si  0.08 -4.27  6.01
Si  3.76  6.34  0.01
Si  3.76  2.10  6.01
Si  3.76 -2.15 -6.00
Si  3.76 -6.39  0.01
Si  7.43 -0.02  0.01
Si -5.46 -5.30  0.74
Si  3.64 -6.34 -2.25
Si -5.46 -1.06 -5.26
Si  7.32  0.02 -2.25
Si  3.65 -0.05  6.73
Si -1.78 -3.18  6.74
Si  7.33 -2.17  0.73
Si  1.87  5.31 -5.23
Si -3.70 -0.05  6.73
Si -1.78  5.31 -5.26
Si -1.81  7.43  0.78
Si -3.71 -6.34 -2.25
Si  3.64  6.39 -2.25
Si  1.89  3.18  6.74
Si  5.54 -1.06 -5.23
Si  1.89  7.43  0.74
Si -1.81  3.19  6.78
Si  5.54 -5.30  0.78
Si  1.87 -3.18  6.78
Si  3.65 -4.29 -5.27
Si -7.37 -2.17  0.73
Si -7.38  0.02 -2.25
Si -3.71  6.39 -2.25
Si -3.70 -4.29 -5.27
Si  5.41  5.24 -3.02
Si  1.78 -7.34 -2.98
Si  5.45 -5.22  3.02
Si  1.73  7.36  2.98
Si -3.66 -4.20  5.98
Si -1.79 -5.28 -5.99
Si  5.43  1.02 -6.03
Si -5.47  1.09 -5.99
Si -7.32 -2.15  2.97
Si  3.69 -4.20  5.98
Si -1.92  5.26  5.98
Si -7.32  2.10 -3.03
Si  7.38 -2.15  2.97
Si  1.76 -5.35 -6.03
Si -3.66  4.29 -6.02
Si  7.38  2.10 -3.03
Si  5.56 -1.03  6.02
Si  1.88  5.33  6.02
Si -5.59 -1.10  5.98
Si  3.69  4.29 -6.02
Si -1.94 -7.49 -3.02
Si -5.57  5.39 -2.98
Si -1.90  7.52  3.02
Si -5.62 -5.37  2.98
Si  7.21  2.10  3.75
Si -1.80 -7.38  3.70
Si -5.43  5.25  3.79
Si  1.92  1.00 -8.21
Si  0.01 -8.48  0.79
Si -7.34  4.25  0.79
Si -0.14 -2.14 -8.26
Si  7.36  4.25  0.79
Si  5.55  5.36  3.70
Si -1.80  1.11 -8.31
Si  1.92 -7.48  3.79
Si -7.50  2.10  3.75
Si -7.29 -4.22 -2.96
Si  0.06  0.03 -8.96
Si -7.29  4.27  3.05
Si  0.06 -8.46  3.05
Si  0.06  8.52 -2.96
Si  7.41 -4.22 -2.96
Si  0.06  0.03  9.05
Si  7.41  4.27  3.05
Si -9.13  1.06  0.74
Si -0.02  6.32  6.73
Si -5.46  3.18  6.74
Si  7.32 -4.22  3.75
Si -5.46  7.43  0.74
Si -5.48  5.31 -5.23
Si  7.33  2.08 -5.27
Si  3.64 -2.10 -8.26
Si  1.87 -7.42 -5.23
Si -1.78 -7.43 -5.26
Si -5.48 -3.18  6.78
Si -3.71 -2.10 -8.26
Si -0.03  4.26 -8.26
Si -7.38 -4.22  3.75
Si -0.03  8.51  3.75
Si -7.37  2.08 -5.27
Si -0.02 -6.41  6.73
Si  5.54  7.43  0.78
Si  5.57 -3.18  6.74
Si  9.22  1.06  0.78
Si  3.65 -8.54  0.73
Si  5.54  3.19  6.78
Si  5.57  5.31 -5.26
Si -3.70 -8.54  0.73
Si  9.11  3.14 -0.03
Si  9.08 -1.12 -3.02
Si  5.43  5.26  5.98
Si  1.73  3.12  8.98
Si  1.78 -3.09 -8.98
Si  9.13  1.15  3.02
Si -5.57 -7.34 -2.98
Si -3.64 -0.02  8.98
Si -1.79 -9.52  0.01
Si -7.34 -6.33 -0.02
Si -9.14  3.21  0.01
Si  1.76  7.38 -6.03
Si -1.92  9.51 -0.03
Si -3.64  8.46 -3.03
Si  1.78 -3.09  9.02
Si  1.73  3.12 -9.03
Si  7.36 -6.33 -0.02
Si -7.34  2.16  5.98
Si  3.71 -0.02  8.98
Si  1.88 -7.40  6.02
Si  5.41 -7.49 -3.02
Si -7.34 -2.08 -6.02
Si -3.64 -8.51  2.97
Si  5.56 -5.28 -5.99
Si -5.47  5.33  6.02
Si  3.71  8.46 -3.03
Si  7.36  2.16  5.98
Si -1.79  7.46 -5.99
Si -5.62  7.36  2.98
Si -3.64 -0.02 -9.03
Si  7.36 -2.08 -6.02
Si -7.34  6.41 -0.02
Si -1.94 -3.25  8.98
Si -1.90  3.27 -8.98
Si  3.71 -8.51  2.97
Si  1.76 -9.59 -0.03
Si  9.23 -3.15  0.01
Si -1.92 -7.47  5.98
Si  7.36  6.41 -0.02
Si  1.88  9.58  0.01
Si  3.71 -0.02 -9.03
Si  5.45  7.52  3.02
Si -9.25 -0.97 -2.98
Si -1.90  3.27  9.02
Si -1.94 -3.25 -9.03
Si -5.59 -5.35 -6.03
Si -9.29  1.00  2.98
Si -9.27 -3.23 -0.03
Si  7.21  6.35 -2.25
Si -9.11  3.13 -2.21
Si  7.21 -6.38 -2.25
Si -5.43  1.00 -8.21
Si  3.53  8.47  3.75
Si  3.53  4.22 -8.26
Si -9.11 -1.12  3.79
Si -1.80  1.11  9.70
Si  1.92  9.49 -2.21
Si  5.55 -7.38  3.70
Si -9.15 -3.13 -2.30
Si -7.34 -4.23 -5.22
Si  1.87 -9.50 -2.30
Si -1.76 -5.36 -8.21
Si  7.36 -4.23 -5.22
Si  0.01  8.50 -5.22
Si -0.14 -2.14  9.75
Si  9.22 -1.01  3.70
Si -5.43 -7.48  3.79
Si -3.66 -6.36  6.79
Si -7.34  0.01  6.79
Si  3.69 -6.36  6.79
Si  1.87 -5.25 -8.31
Si -3.66  6.38  6.79
Si -1.76 -9.61 -2.21
Si  7.36  0.01  6.79
Si  3.69  6.38  6.79
Si -3.82  8.47  3.75
Si -3.82  4.22 -8.26
Si  1.92  1.00  9.79
Si -1.80  9.60 -2.30
Si  9.22  3.23 -2.30
Si  5.55  1.11 -8.31
Si  9.27 -3.24 -2.21
Si -7.50  6.35 -2.25
Si -7.50 -6.38 -2.25
Si -7.27  4.22 -6.00
Si -7.27 -4.27  6.01
Si  0.08  8.46  6.01
Si  0.08 -8.51 -6.00
Si  7.43  4.22 -6.00
Si  7.43 -4.27  6.01
Si -0.02 10.56  0.73
Si -9.16 -1.06 -5.23
Si  3.65  8.44 -5.27
Si -5.48 -7.42 -5.23
Si -9.16 -5.30  0.78
Si -3.70  8.44 -5.27
Si  3.64 -2.10  9.75
Si -3.71 -2.10  9.75
Si -0.03  4.26  9.75
Si  5.57 -7.43 -5.26
Si  9.24 -5.30  0.74
Si  9.24 -1.06 -5.26
Si  5.43  9.51 -0.03
Si  9.11 -1.10  5.98
Si  9.08 -5.37  2.98
Si  5.41 -3.25  8.98
Si  0.03  6.34  8.98
Si -5.47 -7.40  6.02
Si -9.14 -1.03  6.02
Si  0.03 10.59  2.97
Si  5.43 -7.47  5.98
Si -3.67 -8.45 -6.02
Si  5.45  3.27 -8.98
Si  5.41 -3.25 -9.03
Si  3.69 -8.45 -6.02
Si  9.13  5.39 -2.98
Si -5.57 -3.09 -8.98
Si -11.02  0.04 -0.02
Si  0.03 -6.39  8.98
Si  5.56 -9.52  0.01
Si -5.47  9.58  0.01
Si  0.03  6.34 -9.03
Si 11.04  0.04 -0.02
Si  5.45  3.27  9.02
Si -9.25 -5.22  3.02
Si -3.66  8.53  5.98
Si -5.62  3.12  8.98
Si -5.57 -3.09  9.02
Si  3.69  8.53  5.98
Si -5.59  7.38 -6.03
Si  0.03 -10.63 -3.03
Si  9.23  1.09 -5.99
Si  5.56  7.46 -5.99
Si  0.03 -6.39 -9.03
Si -5.62  3.12 -9.03
Si -9.29  5.24 -3.02
Si -9.27  1.02 -6.03
Si -5.59 -9.59 -0.03
Si 10.88 -0.02 -2.25
Si -5.43  9.49 -2.21
Si  7.21 -2.14 -8.26
Si -1.76  7.37 -8.21
Si  1.87 -5.25  9.70
Si  3.53  4.22  9.75
Si -5.48 -9.50 -2.30
Si  0.01  0.01 -11.22
Si  5.55  1.11  9.70
Si -9.15  5.36  3.70
Si -7.34 -8.48  0.79
Si -11.01 -2.11  0.79
Si -5.43  1.00  9.79
Si -5.48 -5.25 -8.31
Si  7.36 -8.48  0.79
Si -3.66 10.62  0.79
Si 11.04 -2.11  0.79
Si  3.69 10.62  0.79
Si -0.14 -10.63  3.75
Si  5.59 -5.36 -8.21
Si -3.82  4.22  9.75
Si -1.76 -5.36  9.79
Si  9.27  5.25  3.79
Si  5.55  9.60 -2.30
Si  1.87  7.48 -8.31
Si  5.59 -9.61 -2.21
Si -7.50 -2.14 -8.26
Si -11.17 -0.02 -2.25
Si -7.29  0.03 -8.96
Si -3.61 -6.34 -8.96
Si -10.96  2.15 -2.96
Si -3.61 -10.58 -2.96
Si -10.96 -2.09  3.05
Si -7.29 -8.46  3.05
Si -3.61  6.39 -8.96
Si  3.74 -6.34 -8.96
Si -7.29  8.52 -2.96
Si  3.74 -10.58 -2.96
Si -7.29  0.03  9.05
Si  3.74  6.39 -8.96
Si -3.61 -6.34  9.05
Si  7.41  0.03 -8.96
Si -3.61 10.64  3.05
Si  7.41 -8.46  3.05
Si -3.61  6.39  9.05
Si  3.74 -6.34  9.05
Si  7.41  8.52 -2.96
Si 11.09  2.15 -2.96
Si  3.74 10.64  3.05
Si 11.09 -2.09  3.05
Si  3.74  6.39  9.05
Si  7.41  0.03  9.05
Si -9.13 -3.18  6.74
Si  7.33  6.32  6.73
Si 11.01  4.20  0.73
Si -9.13  5.31 -5.26
Si  3.64 -10.59  3.75
Si 10.99  2.14  3.75
Si -1.81  3.19 -11.23
Si -7.37  6.32  6.73
Si  1.87 -3.18 -11.23
Si -9.16  7.43  0.78
Si -1.78  9.55  6.74
Si -0.03 -8.47 -8.26
Si  7.32  4.26 -8.26
Si -1.78 -11.67  0.74
Si -3.71 -10.59  3.75
Si -9.16  3.19  6.78
Si  7.32  8.51  3.75
Si  7.33 -6.41  6.73
Si  1.89 -9.55  6.74
Si -11.05  4.20  0.73
Si  1.87 -11.67  0.78
Si -1.78 -3.18 -11.27
Si -1.81 -9.54  6.78
Si  3.65 -0.05 -11.27
Si  9.22  5.31 -5.23
Si  1.89  3.18 -11.27
Si  1.87  9.55  6.78
Si -3.70 -0.05 -11.27
Si -7.37 -6.41  6.73
Si -7.38  4.26 -8.26
Si -11.06  2.14  3.75
Si -7.38  8.51  3.75
Si  9.22 -3.18  6.78
Si  9.24  3.18  6.74
Si  9.24  7.43  0.74
Si -0.02 -10.66 -5.27
Si  9.08  7.36  2.98
Si  9.13 -7.34 -2.98
Si  1.78 -11.58  3.02
Si  1.73 11.61 -3.02
Si -9.14 -5.28 -5.99
Si  0.01 -10.57  5.98
Si -10.99  4.22  2.97
Si  0.01 -2.08 11.98
Si  9.11 -5.35 -6.03
Si -1.79 -1.03 -11.99
Si -1.92  1.02 11.98
Si -10.99 -4.27 -3.03
Si 11.06  4.22  2.97
Si  1.76 -1.10 -12.03
Si  1.88  1.09 12.02
Si  0.01  2.16 -12.03
Si -9.27  5.26  5.98
Si 11.06 -4.27 -3.03
Si  0.01 10.65 -6.02
Si  9.23  5.33  6.02
Si -1.94 -11.73  2.98
Si 10.88 -4.26  3.75
Si -1.90 11.76 -2.98
Si -9.25  7.52  3.02
Si  7.21 -2.14  9.75
Si -9.29 -7.49 -3.02
Si -5.48 -5.25  9.70
Si -9.15 -7.38  3.70
Si -1.76 11.62  3.79
Si -3.66 -10.60 -5.22
Si  3.53 -8.51 -8.26
Si  5.59  7.37 -8.21
Si -11.01  2.13 -5.22
Si  3.69 -10.60 -5.22
Si -7.34  8.50 -5.22
Si -1.76  7.37  9.79
Si  1.87  7.48  9.70
Si 11.04  2.13 -5.22
Si  7.36  8.50 -5.22
Si -9.15  1.11 -8.31
Si  9.27  1.00 -8.21
Si  1.87 11.72  3.70
Si -5.48  7.48 -8.31
Si -3.82 -8.51 -8.26
Si -7.50 -2.14  9.75
Si  5.59 -5.36  9.79
Si  9.27 -7.48  3.79
Si -11.17 -4.26  3.75
Si -10.95  6.34  0.01
Si -10.95  2.10  6.01
Si -10.95 -2.15 -6.00
Si -7.27  8.46  6.01
Si -10.95 -6.39  0.01
Si -3.60 10.59 -6.00
Si -7.27 -8.51 -6.00
Si -3.60  2.10 -12.00
Si  0.08 12.71  0.01
Si -3.60 -2.15 12.01
Si  0.08  4.22 12.01
Si -3.60 -10.63  6.01
Si  3.76 10.59 -6.00
Si  0.08 -4.27 -12.00
Si  3.76  2.10 -12.00
Si  0.08 -12.76  0.01
Si  3.76 -2.15 12.01
Si  7.43  8.46  6.01
Si  3.76 -10.63  6.01
Si 11.11  6.34  0.01
Si  7.43 -8.51 -6.00
Si 11.11  2.10  6.01
Si 11.11 -2.15 -6.00
Si 11.11 -6.39  0.01
Si  7.33 10.56  0.73
Si 10.99 -6.34 -2.25
Si -5.48 -3.18 -11.23
Si -9.13 -7.43 -5.26
Si -5.46 -9.55  6.74
Si 11.01 -0.05  6.73
Si -12.83  1.06  0.78
Si -7.37 10.56  0.73
Si -0.02  2.08 12.73
Si -0.03 -12.71 -2.25
Si 10.99  6.39 -2.25
