500
set: 624.00  0.00  0.00
Si  0.53 -1.23  0.83
Si -0.53  1.23 -0.83
Si -1.26 -0.92 -0.83
Si  1.26  0.92  0.83
Si  2.41 -0.92 -0.83
Si -2.41  0.92  0.83
Si -0.78  0.34  2.73
Si  0.78 -0.34 -2.73
Si  3.14  1.23 -0.83
Si -3.14 -1.23  0.83
Si  0.20  3.37 -0.83
Si -0.20 -3.37  0.83
Si  1.68 -3.06 -0.83
Si -1.68  3.06  0.83
Si -1.51 -1.80  2.73
Si  1.51  1.80 -2.73
Si -0.05  2.49  2.73
Si  0.05 -2.49 -2.73
Si  1.99  3.06  0.83
Si -1.99 -3.06 -0.83
Si -2.16  1.80 -2.73
Si  2.16 -1.80  2.73
Si  2.89  0.34  2.73
Si -2.89 -0.34 -2.73
Si  4.21 -1.23  0.83
Si -4.21  1.23 -0.83
Si -1.02 -0.04 -4.39
Si  1.02  0.04  4.39
Si -0.29  2.11 -4.39
Si  0.29 -2.11  4.39
Si -3.48  3.37 -0.83
Si  3.48 -3.37  0.83
Si  1.43 -3.95  2.73
Si -1.43  3.95 -2.73
Si  4.93  0.92  0.83
Si -4.93 -0.92 -0.83
Si -2.65  0.04  4.39
Si  2.65 -0.04 -4.39
Si  3.62  2.49  2.73
Si -3.62 -2.49 -2.73
Si -3.87 -3.37  0.83
Si  3.87  3.37 -0.83
Si  1.75  2.18  4.39
Si -1.75 -2.18 -4.39
Si  4.45 -0.34 -2.73
Si -4.45  0.34  2.73
Si  3.72 -2.49 -2.73
Si -3.72  2.49  2.73
Si  1.92 -2.18 -4.39
Si -1.92  2.18  4.39
Si -2.24 -3.95  2.73
Si  2.24  3.95 -2.73
Si -0.95  5.21  0.83
Si  0.95 -5.21 -0.83
Si  0.68  4.63  2.73
Si -0.68 -4.63 -2.73
Si  0.93  5.51 -0.83
Si -0.93 -5.51  0.83
Si  3.38  2.11 -4.39
Si -3.38 -2.11  4.39
Si  2.72  5.21  0.83
Si -2.72 -5.21 -0.83
Si -5.18 -1.80  2.73
Si  5.18  1.80 -2.73
Si -0.44 -4.25  4.39
Si  0.44  4.25 -4.39
Si  2.99 -4.63 -2.73
Si -2.99  4.63  2.73
Si  6.08 -0.92 -0.83
Si -6.08  0.92  0.83
Si -2.75  5.51 -0.83
Si  2.75 -5.51  0.83
Si -5.35  3.06  0.83
Si  5.35 -3.06 -0.83
Si -3.96  2.11 -4.39
Si  3.96 -2.11  4.39
Si -1.20  4.33  4.39
Si  1.20 -4.33 -4.39
Si  1.03  0.54 -6.29
Si -1.03 -0.54  6.29
Si -4.69 -0.04 -4.39
Si  4.69  0.04  4.39
Si -5.66 -3.06 -0.83
Si  5.66  3.06  0.83
Si -0.30  1.60  6.29
Si  0.30 -1.60 -6.29
Si -2.48 -4.33 -4.39
Si  2.48  4.33  4.39
Si  5.83 -1.80  2.73
Si -5.83  1.80 -2.73
Si  0.70 -6.09  2.73
Si -0.70  6.09 -2.73
Si  2.65 -0.54  6.29
Si -2.65  0.54 -6.29
Si -3.23  4.25 -4.39
Si  3.23 -4.25  4.39
Si -4.35 -4.63 -2.73
Si  4.35  4.63  2.73
Si -6.81 -1.23  0.83
Si  6.81  1.23 -0.83
Si -5.10  3.95 -2.73
Si  5.10 -3.95  2.73
Si  4.62 -5.21 -0.83
Si -4.62  5.21  0.83
Si  1.75  2.68 -6.29
Si -1.75 -2.68  6.29
Si -1.92  2.68 -6.29
Si  1.92 -2.68  6.29
Si  6.56  0.34  2.73
Si -6.56 -0.34 -2.73
Si  4.60  5.51 -0.83
Si -4.60 -5.51  0.83
Si -2.97 -6.09  2.73
Si  2.97  6.09 -2.73
Si  5.42  2.18  4.39
Si -5.42 -2.18 -4.39
Si  3.38  1.60  6.29
Si -3.38 -1.60 -6.29
Si -0.43 -3.75 -6.29
Si  0.43  3.75  6.29
Si  4.11  4.25 -4.39
Si -4.11 -4.25  4.39
Si -0.22  7.35  0.83
Si  0.22 -7.35 -0.83
Si  1.41  6.78  2.73
Si -1.41 -6.78 -2.73
Si -5.59  2.18  4.39
Si  5.59 -2.18 -4.39
Si  3.97 -1.60 -6.29
Si -3.97  1.60  6.29
Si  5.91  3.95 -2.73
Si -5.91 -3.95  2.73
Si  2.26 -6.78 -2.73
Si -2.26  6.78  2.73
Si -6.33  0.04  4.39
Si  6.33 -0.04 -4.39
Si  0.47 -6.47 -4.39
Si -0.47  6.47  4.39
Si -1.17 -6.40  4.39
Si  1.17  6.40 -4.39
Si -4.87  4.33  4.39
Si  4.87 -4.33 -4.39
Si -4.70 -0.54  6.29
Si  4.70  0.54 -6.29
Si -1.65 -7.66  0.83
Si  1.65  7.66 -0.83
Si  7.15 -3.37  0.83
Si -7.15  3.37 -0.83
Si -2.02  7.66 -0.83
Si  2.02 -7.66  0.83
Si  4.37 -6.09  2.73
Si -4.37  6.09 -2.73
Si  3.24 -3.75 -6.29
Si -3.24  3.75  6.29
Si  7.88 -1.23  0.83
Si -7.88  1.23 -0.83
Si -1.19  4.83 -6.29
Si  1.19 -4.83  6.29
Si -0.77  0.84 -7.96
Si  0.77 -0.84  7.96
Si  2.50 -6.40  4.39
Si -2.50  6.40 -4.39
Si -3.45 -7.35 -0.83
Si  3.45  7.35  0.83
Si  7.29  2.49  2.73
Si -7.29 -2.49 -2.73
Si -1.50 -1.30 -7.96
Si  1.50  1.30  7.96
Si -7.39  2.49  2.73
Si  7.39 -2.49 -2.73
Si  6.39  5.21  0.83
Si -6.39 -5.21 -0.83
Si -7.54 -3.37  0.83
Si  7.54  3.37 -0.83
Si  2.48  4.83 -6.29
Si -2.48 -4.83  6.29
Si -2.17  1.30  7.96
Si  2.17 -1.30 -7.96
Si -3.89  7.35  0.83
Si  3.89 -7.35 -0.83
Si -4.10 -3.75 -6.29
Si  4.10  3.75  6.29
Si -3.21 -6.47 -4.39
Si  3.21  6.47  4.39
Si  0.04 -2.99  7.96
Si -0.04  2.99 -7.96
Si -6.42  5.51 -0.83
Si  6.42 -5.51  0.83
Si  2.90  0.84 -7.96
Si -2.90 -0.84  7.96
Si  6.66 -4.63 -2.73
Si -6.66  4.63  2.73
Si  7.05  2.11 -4.39
Si -7.05 -2.11  4.39
Si  8.12 -0.34 -2.73
Si -8.12  0.34  2.73
Si -0.03 -8.23  2.73
Si  0.03  8.23 -2.73
Si -8.61 -0.92 -0.83
Si  8.61  0.92  0.83
Si  1.16  5.89  6.29
Si -1.16 -5.89 -6.29
Si -6.15 -4.33 -4.39
Si  6.15  4.33  4.39
Si  5.43  2.68 -6.29
Si -5.43 -2.68  6.29
Si -1.44  3.44  7.96
Si  1.44 -3.44 -7.96
Si  5.59 -2.68  6.29
Si -5.59  2.68 -6.29
Si  4.14 -6.47 -4.39
Si -4.14  6.47  4.39
Si -5.08 -6.78 -2.73
Si  5.08  6.78  2.73
Si  6.32 -0.54  6.29
Si -6.32  0.54 -6.29
Si -2.23 -3.44 -7.96
Si  2.23  3.44  7.96
Si  2.51 -5.89 -6.29
Si -2.51  5.89  6.29
Si  7.63 -2.11  4.39
Si -7.63  2.11 -4.39
Si -4.84 -6.40  4.39
Si  4.84  6.40 -4.39
Si  4.44 -0.84  7.96
Si -4.44  0.84 -7.96
Si  6.90 -4.25  4.39
Si -6.90  4.25 -4.39
Si  3.63  2.99 -7.96
Si -3.63 -2.99  7.96
Si  3.71 -2.99  7.96
Si -3.71  2.99 -7.96
Si  4.86 -4.83  6.29
Si -4.86  4.83 -6.29
Si  5.33  7.66 -0.83
Si -5.33 -7.66  0.83
Si  0.46 -6.97  6.29
Si -0.46  6.97 -6.29
Si -3.65  8.23 -2.73
Si  3.65 -8.23  2.73
Si  5.93 -6.78 -2.73
Si -5.93  6.78  2.73
Si  6.64  6.09 -2.73
Si -6.64 -6.09  2.73
Si  3.70  8.23 -2.73
Si -3.70 -8.23  2.73
Si  8.85  1.80 -2.73
Si -8.85 -1.80  2.73
Si  8.36  0.04  4.39
Si -8.36 -0.04 -4.39
Si -1.53  8.92  2.73
Si  1.53 -8.92 -2.73
Si  0.69  5.13 -7.96
Si -0.69 -5.13  7.96
Si  0.51  9.50  0.83
Si -0.51 -9.50 -0.83
Si -9.02  3.06  0.83
Si  9.02 -3.06 -0.83
Si  2.14  8.92  2.73
Si -2.14 -8.92 -2.73
Si -5.69  7.66 -0.83
Si  5.69 -7.66  0.83
Si -5.17 -1.30 -7.96
Si  5.17  1.30  7.96
Si -7.05 -1.60 -6.29
Si  7.05  1.60  6.29
Si  8.02  4.63  2.73
Si -8.02 -4.63 -2.73
Si  0.26  8.62  4.39
Si -0.26 -8.62 -4.39
Si -0.71  5.59  7.96
Si  0.71 -5.59 -7.96
Si -1.77  8.54 -4.39
Si  1.77 -8.54  4.39
Si -1.90 -8.54  4.39
Si  1.90  8.54 -4.39
Si -8.29  5.21  0.83
Si  8.29 -5.21 -0.83
Si -9.75  0.92  0.83
Si  9.75 -0.92 -0.83
Si  9.34  3.06  0.83
Si -9.34 -3.06 -0.83
Si  4.83  5.89  6.29
Si -4.83 -5.89 -6.29
Si -0.54  0.72  9.85
Si  0.54 -0.72 -9.85
Si -7.78 -4.25  4.39
Si  7.78  4.25 -4.39
Si -6.17  6.40 -4.39
Si  6.17 -6.40  4.39
Si -1.29  9.80 -0.83
Si  1.29 -9.80  0.83
Si -3.21 -6.97  6.29
Si  3.21  6.97 -6.29
Si -2.98  5.13 -7.96
Si  2.98 -5.13  7.96
Si -5.84  1.30  7.96
Si  5.84 -1.30 -7.96
Si -8.27 -5.51  0.83
Si  8.27  5.51 -0.83
Si -8.78  3.95 -2.73
Si  8.78 -3.95  2.73
Si  7.64 -1.60 -6.29
Si -7.64  1.60  6.29
Si  1.27  1.42 -9.85
Si -1.27 -1.42  9.85
Si -6.16 -4.83  6.29
Si  6.16  4.83 -6.29
Si -3.16  9.50  0.83
Si  3.16 -9.50 -0.83
Si -9.50  1.80 -2.73
Si  9.50 -1.80  2.73
Si -5.11  3.44  7.96
Si  5.11 -3.44 -7.96
Si -6.91  3.75  6.29
Si  6.91 -3.75 -6.29
Si -2.38 -9.80  0.83
Si  2.38  9.80 -0.83
Si  2.96  5.59  7.96
Si -2.96 -5.59 -7.96
Si -2.40  1.42 -9.85
Si  2.40 -1.42  9.85
Si -3.41  8.62  4.39
Si  3.41 -8.62 -4.39
Si  4.13 -6.97  6.29
Si -4.13  6.97 -6.29
Si -0.19 -2.87 -9.85
Si  0.19  2.87  9.85
Si  7.12  7.35  0.83
Si -7.12 -7.35 -0.83
Si  9.09  2.18  4.39
Si -9.09 -2.18 -4.39
Si -6.57 -0.84  7.96
Si  6.57  0.84 -7.96
Si -1.78  8.04  6.29
Si  1.78 -8.04 -6.29
Si -3.13 -0.72 -9.85
Si  3.13  0.72  9.85
Si  1.89  8.04  6.29
Si -1.89 -8.04 -6.29
Si -4.18 -9.50 -0.83
Si  4.18  9.50  0.83
Si  6.88  6.47  4.39
Si -6.88 -6.47 -4.39
Si -4.36 -5.13  7.96
Si  4.36  5.13 -7.96
Si  3.94  8.62  4.39
Si -3.94 -8.62 -4.39
Si -8.04  6.09 -2.73
Si  8.04 -6.09  2.73
Si  8.37  0.54 -6.29
Si -8.37 -0.54  6.29
Si -9.27  2.18  4.39
Si  9.27 -2.18 -4.39
Si -5.90 -3.44 -7.96
Si  5.90  3.44  7.96
Si -8.54  4.33  4.39
Si  8.54 -4.33 -4.39
Si -7.56  7.35  0.83
Si  7.56 -7.35 -0.83
Si -10.48 -1.23  0.83
Si 10.48  1.23 -0.83
Si 10.23  0.34  2.73
Si -10.23 -0.34 -2.73
Si  6.18 -5.89 -6.29
Si -6.18  5.89  6.29
Si  1.67 -3.57  9.85
Si -1.67  3.57 -9.85
Si -4.38  5.59  7.96
Si  4.38 -5.59 -7.96
Si  2.00  3.57 -9.85
Si -2.00 -3.57  9.85
Si  7.78  3.75  6.29
Si -7.78 -3.75 -6.29
Si -5.20  8.92  2.73
Si  5.20 -8.92 -2.73
Si -9.58 -3.95  2.73
Si  9.58  3.95 -2.73
Si  4.21 -0.72 -9.85
Si -4.21  0.72  9.85
Si -0.76 -10.38  2.73
Si  0.76 10.38 -2.73
Si  3.48 -2.87 -9.85
Si -3.48  2.87  9.85
Si  1.42  7.28 -7.96
Si -1.42 -7.28  7.96
Si -10.00  0.04  4.39
Si 10.00 -0.04 -4.39
Si -3.86 -2.87 -9.85
Si  3.86  2.87  9.85
Si -5.81 -8.92 -2.73
Si  5.81  8.92  2.73
Si -2.25  7.28 -7.96
Si  2.25 -7.28  7.96
Si  4.96 -9.80  0.83
Si -4.96  9.80 -0.83
Si  5.44 -8.54  4.39
Si -5.44  8.54 -4.39
Si -7.81  6.47  4.39
Si  7.81 -6.47 -4.39
Si  0.27  9.12 -6.29
Si -0.27 -9.12  6.29
Si  0.92  5.01  9.85
Si -0.92 -5.01 -9.85
Si -0.02 -7.73 -7.96
Si  0.02  7.73  7.96
Si -5.57 -8.54  4.39
Si  5.57  8.54 -4.39
Si -4.94 -1.42  9.85
Si  4.94  1.42 -9.85
Si -2.92 10.38 -2.73
Si  2.92 -10.38  2.73
Si -7.30 -2.99  7.96
Si  7.30  2.99 -7.96
Si -7.38  2.99 -7.96
Si  7.38 -2.99  7.96
Si  7.32 -8.23  2.73
Si -7.32  8.23 -2.73
Si -10.82  3.37 -0.83
Si 10.82 -3.37  0.83
Si -10.06 -5.21 -0.83
Si 10.06  5.21  0.83
Si -9.10 -2.68  6.29
Si  9.10  2.68 -6.29
Si -7.37 -8.23  2.73
Si  7.37  8.23 -2.73
Si  2.75 -5.01 -9.85
Si -2.75  5.01  9.85
Si -8.11  0.84 -7.96
Si  8.11 -0.84  7.96
Si -8.75 -6.78 -2.73
Si  8.75  6.78  2.73
Si  0.80 -11.06 -2.73
Si -0.80 11.06  2.73
Si -0.94  5.71 -9.85
Si  0.94 -5.71  9.85
Si  9.26 -2.68  6.29
Si -9.26  2.68 -6.29
Si -8.51 -6.40  4.39
Si  8.51  6.40 -4.39
Si 10.09 -5.51  0.83
Si -10.09  5.51 -0.83
Si -6.05 -9.80  0.83
Si  6.05  9.80 -0.83
Si 10.96  2.49  2.73
Si -10.96 -2.49 -2.73
Si -5.45  8.04  6.29
Si  5.45 -8.04 -6.29
Si -6.66  5.13 -7.96
Si  6.66 -5.13  7.96
Si -3.40  9.12 -6.29
Si  3.40 -9.12  6.29
Si -1.25 -0.42 -11.52
Si  1.25  0.42 11.52
Si  9.82  4.33  4.39
Si -9.82 -4.33 -4.39
Si  1.04 -10.69  4.39
Si -1.04 10.69 -4.39
Si -4.43 -10.38  2.73
Si  4.43 10.38 -2.73
Si -5.56 -8.04 -6.29
Si  5.56  8.04  6.29
Si 11.55 -1.23  0.83
Si -11.55  1.23 -0.83
Si -6.88 -6.97  6.29
Si  6.88  6.97 -6.29
Si -8.53  4.83 -6.29
Si  8.53 -4.83  6.29
Si -10.33  4.63  2.73
Si 10.33 -4.63 -2.73
Si -0.53  1.73 -11.52
Si  0.53 -1.73 11.52
Si  6.07 -1.42  9.85
Si -6.07  1.42 -9.85
Si 11.06 -2.49 -2.73
Si -11.06  2.49  2.73
Si  0.99 10.76  4.39
Si -0.99 -10.76 -4.39
Si -3.65  7.73  7.96
Si  3.65 -7.73 -7.96
Si -3.69 -7.73 -7.96
Si  3.69  7.73  7.96
Si  2.73  5.71 -9.85
Si -2.73 -5.71  9.85
Si  6.83 -9.50 -0.83
Si -6.83  9.50  0.83
Si 11.21  3.37 -0.83
Si -11.21 -3.37  0.83
Si  1.24 11.64  0.83
Si -1.24 -11.64 -0.83
Si -2.87 -11.06 -2.73
Si  2.87 11.06  2.73
Si -3.94 -9.12  6.29
Si  3.94  9.12 -6.29
Si  5.34 -3.57  9.85
Si -5.34  3.57 -9.85
Si -6.63 -5.59 -7.96
Si  6.63  5.59  7.96
Si  2.42 -0.42 -11.52
Si -2.42  0.42 11.52
