500
set: 950.00  0.00  0.00
Si  0.44 -1.16  0.79
Si -0.43  1.19 -0.81
Si  1.29  1.15  0.79
Si -1.34 -1.13 -0.82
Si  0.84  0.03 -2.38
Si -2.14  1.10  0.80
Si -0.87 -0.03  2.43
Si  2.17 -1.11 -0.85
Si  0.02 -2.27 -2.38
Si -0.03  2.28  2.42
Si -3.02 -1.17  0.82
Si  3.04  1.15 -0.82
Si  0.45  3.40 -0.79
Si -2.57  0.03 -2.41
Si  2.62  0.01  2.45
Si -0.44 -3.47  0.82
Si  1.24 -3.45 -0.81
Si -1.27  3.44  0.84
Si  1.72 -2.28  2.46
Si -1.76 -2.31  2.40
Si  1.77  2.30 -2.40
Si -1.69  2.34 -2.43
Si  3.84 -1.15  0.78
Si -0.83  0.06 -4.02
Si -3.88  1.13 -0.81
Si  0.91 -0.01  4.03
Si  2.20  3.43  0.82
Si -2.19 -3.50 -0.79
Si  2.98 -3.44  0.82
Si -0.03 -2.28  4.04
Si  0.06  2.36 -4.01
Si -3.01  3.45 -0.81
Si -3.35  2.31  2.38
Si  3.42  2.28  2.40
Si -2.56 -0.01  4.01
Si  2.58 -0.01 -4.01
Si  3.42 -2.33 -2.40
Si -3.44 -2.30 -2.44
Si -4.70 -1.18 -0.80
Si -1.73 -2.29 -3.99
Si  4.31 -0.03 -2.40
Si  1.72 -2.30 -4.01
Si -1.73  2.28  4.02
Si -4.32 -0.01  2.38
Si  1.72  2.33  4.01
Si  4.76  1.12  0.79
Si  3.88  3.45 -0.81
Si  0.88  4.59  2.40
Si -0.87 -4.60 -2.40
Si  0.78 -4.62  2.40
Si -0.80  4.60 -2.44
Si -3.91 -3.46  0.84
Si -5.57  1.12  0.79
Si  3.40 -2.33  4.00
Si  0.40 -1.12 -5.63
Si  2.53 -4.58 -2.43
Si -2.51  4.62  2.41
Si -3.46  2.27 -4.04
Si  3.45  2.27 -4.05
Si -0.41  1.16  5.66
Si -3.51 -2.29  4.01
Si  5.63 -1.18 -0.80
Si -0.38  5.74  0.82
Si  0.40 -5.75 -0.82
Si  2.66  4.63 -2.38
Si -2.68 -4.62  2.42
Si  4.32  0.01  3.96
Si  4.68 -3.45 -0.81
Si  1.29  1.17 -5.61
Si -1.26 -1.09  5.64
Si -4.71  3.46  0.82
Si -4.34  0.03 -4.01
Si -1.35 -5.75  0.79
Si  1.30  5.77 -0.82
Si  2.13 -1.18  5.60
Si -5.15 -2.29  2.41
Si -2.06  5.72 -0.80
Si -0.92 -4.57  4.01
Si -5.16  2.32 -2.43
Si  5.18 -2.29  2.41
Si -2.19  1.16 -5.64
Si  0.92  4.61 -3.99
Si  5.17  2.32 -2.43
Si -0.87  4.61  4.01
Si  0.81 -4.63 -4.05
Si  2.12 -5.78  0.79
Si  6.01 -0.01  2.38
Si -6.03 -0.03 -2.40
Si -3.05 -1.17 -5.63
Si  3.04  1.15  5.64
Si -3.07 -5.71 -0.81
Si  3.08  5.74  0.79
Si -2.59 -4.54 -4.01
Si  6.45  1.13 -0.81
Si -2.58  4.60 -3.98
Si -0.41 -3.46 -5.62
Si  2.54 -4.64  4.01
Si -6.49 -1.15  0.78
Si  5.62  3.46  0.82
Si  0.49  3.51  5.63
Si  2.61  4.62  4.04
Si -5.66 -3.45 -0.81
Si -4.28  4.57 -2.40
Si -1.24  3.44 -5.64
Si  1.25 -3.46  5.64
Si -4.33 -4.56 -2.43
Si  4.34 -4.59  2.38
Si  4.36  4.62  2.46
Si  5.11 -2.30 -3.98
Si -5.15  2.26  4.01
Si -2.15 -3.39  5.63
Si  5.18  2.26  4.01
Si  3.86 -1.19 -5.64
Si -5.23 -2.30 -3.98
Si  3.81 -5.77 -0.81
Si  2.23  3.44 -5.62
Si -3.85  5.75  0.78
Si -3.90  1.15  5.67
Si -6.01  0.01  3.96
Si  5.99  0.03 -4.01
Si -3.02  3.48  5.64
Si  3.00 -3.44 -5.68
Si -0.02 -6.89  2.45
Si  0.07  6.93 -2.41
Si  6.42 -3.46  0.84
Si  0.45 -1.15  7.24
Si -0.44  1.15 -7.25
Si -6.45  3.45 -0.81
Si -7.29  1.15 -0.82
Si -4.29  4.57  4.00
Si  4.72  1.12 -5.65
Si -1.35 -1.17 -7.23
Si  7.31 -1.17  0.82
Si  4.23 -4.63 -4.04
Si -4.78 -1.18  5.61
Si -1.68  6.89  2.38
Si  1.34  1.18  7.27
Si -1.80 -6.87 -2.38
Si  4.36  4.60 -4.01
Si  1.77  6.87  2.43
Si  1.66 -6.93 -2.40
Si -4.37 -4.62  4.02
Si -4.79 -5.80  0.80
Si  4.81  5.79 -0.85
Si -2.12  1.15  7.21
Si  2.10 -1.17 -7.25
Si -6.91  2.28  2.40
Si  6.89 -2.30 -2.44
Si -3.89 -3.46 -5.64
Si  3.90  3.44  5.64
Si -6.92 -2.33 -2.40
Si  6.98  2.31  2.38
Si  3.04  1.17 -7.19
Si -3.01 -1.11  7.22
Si -5.99 -4.59  2.38
Si  6.00 -4.56 -2.43
Si -5.97  4.62  2.46
Si  6.06  4.57 -2.40
Si  0.08  6.89  4.01
Si  5.55 -1.18  5.61
Si -0.07 -6.91 -4.01
Si  0.45  3.42 -7.22
Si -3.38  6.87 -2.40
Si -5.61  1.12 -5.65
Si -5.52  5.79 -0.85
Si -0.40  5.73 -5.63
Si  3.37 -6.91  2.38
Si -0.48 -3.42  7.27
Si  0.50  8.00  0.80
Si  5.55 -5.80  0.80
Si  0.40 -5.75  5.64
Si -0.47 -8.01 -0.85
Si  1.30 -3.44 -7.20
Si  4.67 -3.42  5.64
Si -7.71  0.01  2.45
Si  3.48  6.93 -2.38
Si  1.68 -6.89  3.96
Si  7.76  0.03 -2.41
Si -1.25  3.48  7.24
Si  7.32  3.45 -0.81
Si -1.35 -5.74 -5.61
Si -3.52 -6.93  2.43
Si -4.69  3.46 -5.68
Si -7.35 -3.44  0.82
Si -1.24  8.03 -0.81
Si  1.20 -8.05  0.78
Si -1.73 -6.91  4.03
Si -1.70  6.93 -4.01
Si  1.38  5.81  5.64
Si  6.82 -2.29  4.01
Si  1.81  6.96 -4.02
Si  3.85 -1.13  7.22
Si -3.83  1.17 -7.24
Si -8.16 -1.11 -0.85
Si  6.87  2.27 -4.04
Si -2.14  5.72  5.61
Si -6.88  2.27 -4.05
Si  8.19  1.10  0.80
Si -2.19 -3.48 -7.22
Si -6.93 -2.33  4.00
Si  2.08 -5.78 -5.65
Si  2.16  3.48  7.27
Si -2.20 -8.06  0.79
Si  2.21  8.09 -0.81
Si -5.97  4.60 -4.01
Si  5.96 -4.62  4.02
Si  6.05  4.57  4.00
Si -2.93  8.02  0.79
Si  2.98 -3.48  7.25
Si -3.00  3.44 -7.27
Si -3.05 -5.74  5.66
Si  3.04  5.78 -5.63
Si  3.35 -6.87 -4.01
Si  6.43  1.15  5.67
Si  2.99 -8.08 -0.80
Si -3.37  6.91  3.96
Si -6.10 -4.63 -4.04
Si -3.48 -6.84 -4.02
Si -6.47 -1.19 -5.64
Si -5.66 -3.42  5.64
Si  6.48  5.75  0.78
Si -4.67 -1.14 -7.26
Si  5.64  3.46 -5.68
Si -7.76 -0.01 -4.01
Si  4.74  1.12  7.25
Si  3.55  6.89  4.03
Si -6.52 -5.77 -0.81
Si  7.77 -0.01  4.01
Si -8.13  3.43  0.82
Si  0.88 -0.02 -8.82
Si -3.83  5.71 -5.64
Si  5.12 -6.87 -2.41
Si  8.14 -3.50 -0.79
Si -0.87 -0.05  8.86
Si -3.89 -3.42  7.24
Si  3.94  3.46 -7.20
Si -5.07  6.91  2.45
Si  3.79 -5.75  5.67
Si -5.21 -6.87 -2.41
Si  3.93  8.05  0.79
Si -3.98 -8.03 -0.82
Si  5.26  6.91  2.45
Si  8.99 -1.13 -0.82
Si -0.02  2.32  8.83
Si -9.04  1.15  0.79
Si -0.03 -2.30 -8.86
Si -2.59 -0.01 -8.80
Si -8.56  2.30 -2.40
Si  8.57 -2.31  2.40
Si  2.56 -0.00  8.84
Si  0.40 -5.73 -7.19
Si -6.44  3.44  5.64
Si -5.60  1.12  7.25
Si  6.45 -3.46 -5.64
Si -8.61 -2.28  2.46
Si -0.36  5.79  7.22
Si  7.66 -4.62  2.42
Si  7.26 -5.71 -0.81
Si -7.67  4.63 -2.38
Si -1.70  2.29 -8.83
Si  5.66 -1.14 -7.26
Si  8.65  2.34 -2.43
Si -7.25  5.74  0.79
Si  7.29 -1.17 -5.63
Si -1.75 -2.26  8.84
Si  1.72 -2.31  8.83
Si -7.29  1.15  5.64
Si -4.71  3.42  7.25
Si  1.29  5.73 -7.23
Si  4.69 -3.46 -7.27
Si  1.76  2.29 -8.86
Si  4.77  5.72  5.60
Si -4.65  8.05 -0.82
Si -1.30 -5.72  7.27
Si  4.67 -8.06  0.82
Si -7.80 -4.58 -2.43
Si -4.83 -5.74 -5.64
Si  7.82  4.62  2.41
Si -5.12  6.89 -4.01
Si -2.03  5.76 -7.26
Si  5.13 -6.91  4.01
Si  2.09 -5.78  7.25
Si  5.22  6.89 -4.01
Si -5.21 -6.91  4.01
Si -0.71  9.21  2.38
Si -0.92 -9.18  2.46
Si  0.77 -9.23 -2.40
Si  0.96  9.24 -2.43
Si  9.06  3.44  0.84
Si  5.50 -5.74 -5.64
Si -3.38  2.27  8.85
Si -5.56  5.72  5.60
Si  3.49  2.34  8.80
Si -3.08 -5.75 -7.25
Si  3.09  5.75  7.24
Si  8.61 -2.29 -3.99
Si -9.09 -3.45 -0.81
Si -6.48 -1.13  7.22
Si  9.46 -0.03  2.43
Si  8.61  2.28  4.02
Si -8.62 -2.30 -4.01
Si -8.61  2.33  4.01
Si  3.44 -2.33 -8.86
Si -3.46 -2.35 -8.85
Si -9.49  0.03 -2.38
Si  5.63  3.42  7.25
Si  6.50  1.17 -7.24
Si  4.30  0.01 -8.83
Si  2.54 -9.19  2.41
Si  7.75 -4.54 -4.01
Si -2.62 -9.17 -2.38
Si -5.64 -3.46 -7.27
Si -4.33 -0.00  8.84
Si -0.51 -8.08  5.60
Si  2.61  9.18  2.42
Si  7.75  4.60 -3.98
Si  0.45  8.06 -5.64
Si -2.52  9.22 -2.43
Si -7.72  4.62  4.04
Si  7.31  3.48  5.64
Si  5.68  8.05 -0.82
Si -5.66 -8.06  0.82
Si -7.33 -3.44 -5.68
Si -7.79 -4.64  4.01
Si -1.26  8.05  5.67
Si  1.22 -8.09 -5.64
Si  0.85 -4.56  8.80
Si  8.14  1.16 -5.64
Si -0.82  4.55 -8.85
Si -9.89 -1.16  0.79
Si -8.20 -1.18  5.60
Si -3.84  5.77  7.22
Si  9.90  1.19 -0.81
Si  3.86 -5.74 -7.24
Si  6.82 -6.93  2.43
Si  0.89  4.64  8.84
Si -0.88 -4.61 -8.86
Si -6.85  6.93 -2.38
Si -0.82  9.17 -4.04
Si -2.24 -8.02 -5.63
Si  6.95  6.87 -2.40
Si  0.92  9.18  4.02
Si -8.21 -5.78  0.79
Si -0.92 -9.20 -4.01
Si  8.27  5.72 -0.80
Si  0.76 -9.23  4.00
Si  2.24  8.06  5.66
Si -6.97 -6.91  2.38
Si -6.39  3.46 -7.20
Si -9.42 -0.01  4.03
Si -2.96  8.02 -5.65
Si  2.91 -8.08  5.61
Si  6.35 -8.03 -0.82
Si  6.44 -3.42  7.24
Si -2.56  4.58  8.84
Si -2.66 -4.58  8.83
Si  2.52 -4.60 -8.87
Si -2.51  9.16  4.01
Si -7.29  1.17 -7.19
Si -6.40  8.05  0.79
Si  2.61  4.60 -8.86
Si  9.50  0.06 -4.02
Si  2.46 -9.20 -3.98
Si  6.50  5.71 -5.64
Si  7.33 -1.11  7.22
Si  0.34 -10.34  0.82
Si -4.76 -5.75  7.21
Si  4.74  5.73 -7.25
Si -2.67 -9.19  4.04
Si -0.37 10.35 -0.81
Si -6.55 -5.75  5.67
Si -4.27  9.18  2.40
Si  4.25 -9.20 -2.44
Si -8.10  3.44 -5.62
Si  2.70  9.26 -4.01
Si  1.38 10.34  0.84
Si -6.78  6.89  4.03
Si -0.87 -0.05 -10.44
Si -9.88  3.40 -0.79
Si -1.40 -10.35 -0.81
Si -4.40 -9.21  2.40
Si  5.13 -2.32  8.84
Si  4.42  9.20 -2.40
Si  6.86 -6.84 -4.02
Si  8.18 -3.39  5.63
Si  0.88 -0.02 10.47
Si  9.89 -3.47  0.82
Si  5.16  2.30 -8.87
Si -5.20 -2.32  8.84
Si -5.17  2.30 -8.87
Si -3.91 -7.99  5.64
Si  3.93  8.07 -5.61
Si  2.03 -10.35 -0.81
Si -6.98 -6.87 -4.01
Si  6.96  6.91  3.96
Si -2.07 10.36  0.82
Si  6.00 -0.00  8.84
Si -0.03 -2.30 10.44
Si  8.98 -5.75  0.79
Si -6.03  0.01 -8.83
Si -9.04  1.17 -5.61
Si -0.02  2.32 -10.47
Si  9.07 -1.09  5.64
Si -9.03  5.77 -0.82
Si  2.56 -0.00 -10.46
Si  5.57 -5.75  7.21
Si -9.45  4.59  2.40
Si  3.10 10.30 -0.79
Si  9.46 -4.60 -2.40
Si -5.59  5.73 -7.25
Si -2.59 -0.01 10.49
Si  0.52  8.05  7.21
Si 10.30  2.28  2.42
Si -10.31 -2.27 -2.38
Si  1.76  2.29 10.44
Si -4.25  4.57 -8.86
Si -1.75 -2.26 -10.46
Si -1.70  2.29 10.47
Si -3.08 -10.37  0.82
Si  1.72 -2.31 -10.46
Si  4.18 -9.19  4.01
Si -10.76  1.19 -0.81
Si 10.77 -1.16  0.79
Si 10.35 -2.27 -2.38
Si -0.54 -8.07 -7.25
Si  9.53  4.60 -2.44
Si  7.28 -5.74  5.66
Si  1.21 -8.03  7.22
Si -4.34 -4.62 -8.83
Si  4.36  4.59  8.83
Si -7.29  5.78 -5.63
Si -4.65  8.05  5.64
Si  7.33  3.44 -7.27
Si -9.55 -4.62  2.40
Si  4.31 -4.63  8.85
Si  4.64 -8.07 -5.63
Si -4.24  9.17 -4.05
Si -10.37  2.28  2.42
Si -7.35 -3.48  7.25
Si -1.19  8.07 -7.24
Si -4.37 -9.19 -3.99
Si  7.40  8.02  0.79
Si -7.34 -8.08 -0.80
Si  4.37  9.23  4.01
Si  8.21  1.15  7.21
Si -8.23 -1.17 -7.25
Si -2.19 -8.05  7.24
Si  2.20  8.04 -7.25
Si -3.81 10.35 -0.81
Si  3.78 -10.36  0.84
Si  0.05  6.89 -8.80
Si -5.92  9.20 -2.40
Si  8.53 -6.87 -2.38
Si  9.41 -4.57  4.01
Si -2.95  8.02  7.25
Si  5.93 -9.21  2.40
Si -3.38  2.27 -10.45
Si -0.08 -6.90  8.84
Si -9.42  4.61 -3.99
Si -9.08 -3.46  5.64
Si  9.09  3.44 -5.64
Si  3.44 -2.33 10.44
Si -8.56  6.87  2.43
Si  3.02 -8.04 -7.26
Si  6.07  9.18  2.40
Si -3.46 -2.35 10.45
Si  9.46  4.61  4.01
Si -6.47 -5.74 -7.24
Si -10.28  2.36 -4.01
Si -6.08 -9.20 -2.44
Si  6.50  5.77  7.22
Si 10.30 -2.28  4.04
Si  3.49  2.34 -10.50
Si  8.65  6.89  2.38
Si  4.30  0.01 10.47
Si  1.66 -6.89 -8.83
Si -4.33 -0.00 -10.46
Si -9.52 -4.63 -4.05
Si 10.79  3.40 -0.79
Si -1.69  6.90  8.84
Si  1.77  6.85  8.86
Si -10.78 -3.47  0.82
Si -1.76 -6.92 -8.82
Si -8.67 -6.93 -2.40
Si  5.68  8.05  5.64
Si -10.36 -2.28  4.04
Si -5.69 -8.07 -5.63
Si 10.39  2.36 -4.01
Si -6.84  2.34  8.80
Si 11.17  0.03 -2.38
Si  8.14 -3.48 -7.22
Si -0.82  4.55 10.45
Si  4.84 10.33  0.82
Si  6.87 -2.35 -8.85
Si -0.88 -4.61 10.44
Si  8.19  5.72  5.61
Si -6.89 -2.33 -8.86
Si -11.21 -0.03  2.43
Si -9.93 -1.12 -5.63
Si  8.13 -8.06  0.79
