500
set: 540.00  0.00  0.00
Si  0.00  0.00  0.00
Si -0.14  0.14 -2.27
Si  1.86  1.08  0.76
Si -1.91  1.08  0.76
Si  0.28 -2.19  0.76
Si  1.58  3.26  0.00
Si -1.58 -3.26  0.00
Si -1.77  0.93  3.03
Si  1.77 -0.93 -3.03
Si  2.00  0.93  3.03
Si -2.00 -0.93 -3.03
Si -3.77  0.00  0.00
Si  3.77  0.00  0.00
Si -0.42  2.33 -3.03
Si  0.42 -2.33  3.03
Si -2.19  3.26  0.00
Si  2.19 -3.26  0.00
Si -3.49 -2.19  0.76
Si -1.72 -3.12 -2.27
Si -1.49 -1.26  3.79
Si  3.63  0.14 -2.27
Si  0.09  2.01  3.79
Si  1.44  3.41 -2.27
Si  2.06 -3.12 -2.27
Si -0.33  4.34  0.76
Si -3.91  0.14 -2.27
Si  2.29 -1.26  3.79
Si  4.06 -2.19  0.76
Si -2.33  3.41 -2.27
Si -3.35 -2.33  3.03
Si  3.35  2.33 -3.03
Si -0.19  4.19  3.03
Si  0.19 -4.19 -3.03
Si  3.44  4.34  0.76
Si  1.63 -0.79 -5.29
Si -3.68  2.01  3.79
Si -1.29 -5.45  0.76
Si  4.20 -2.33  3.03
Si -4.20  2.33 -3.03
Si -2.14 -0.79 -5.29
Si  3.86  2.01  3.79
Si  5.63  1.08  0.76
Si -5.68  1.08  0.76
Si -0.56  2.48 -5.29
Si  0.71 -4.52  3.79
Si -4.10  4.34  0.76
Si  2.48 -5.45  0.76
Si -5.35 -3.26  0.00
Si  5.35  3.26  0.00
Si -3.58 -4.19 -3.03
Si  3.58  4.19  3.03
Si -0.23 -1.86 -6.05
Si  0.23  1.86  6.05
Si  1.35  1.40 -6.05
Si -1.35 -1.40  6.05
Si -5.54  0.93  3.03
Si  5.54 -0.93 -3.03
Si -1.15 -5.60  3.03
Si  1.15  5.60 -3.03
Si -3.96  4.19  3.03
Si  3.96 -4.19 -3.03
Si  0.62 -6.53  0.00
Si -0.62  6.53  0.00
Si  5.77  0.93  3.03
Si -5.77 -0.93 -3.03
Si -5.26 -1.26  3.79
Si  5.21  3.41 -2.27
Si -3.06 -4.52  3.79
Si  0.05 -4.05 -5.29
Si  3.21  2.48 -5.29
Si -2.42  1.40 -6.05
Si  2.42 -1.40  6.05
Si  1.67  5.27  3.79
Si -5.49 -3.12 -2.27
Si  0.48 -6.38 -2.27
Si -5.96  3.26  0.00
Si  5.96 -3.26  0.00
Si -2.10  5.27  3.79
Si  0.52 -0.33  6.82
Si -2.62  5.60 -3.03
Si  2.62 -5.60  3.03
Si  5.83 -3.12 -2.27
Si -0.76  6.67 -2.27
Si -3.16 -6.53  0.00
Si  3.16  6.53  0.00
Si  6.06 -1.26  3.79
Si -3.54  1.86  6.05
Si  3.54 -1.86 -6.05
Si -4.33  2.48 -5.29
Si -6.10  3.41 -2.27
Si  4.48 -4.52  3.79
Si -5.07 -5.45  0.76
Si -4.00 -1.86 -6.05
Si  4.00  1.86  6.05
Si -3.29 -6.38 -2.27
Si  7.54  0.00  0.00
Si -7.54  0.00  0.00
Si -3.25 -0.33  6.82
Si  5.40 -0.79 -5.29
Si -1.68  2.94  6.82
Si -7.26 -2.19  0.76
Si -3.72 -4.05 -5.29
Si  3.02  6.67 -2.27
Si  3.83 -4.05 -5.29
Si -0.85  4.67 -6.05
Si  0.85 -4.67  6.05
Si  2.09  2.94  6.82
Si  1.25  7.60  0.76
Si  7.40  0.14 -2.27
Si -1.06 -3.59  6.82
Si -4.39  6.53  0.00
Si  4.39 -6.53  0.00
Si  1.01  5.74 -5.29
Si -5.91 -0.79 -5.29
Si  4.25 -6.38 -2.27
Si -7.68  0.14 -2.27
Si  4.93  5.60 -3.03
Si -4.93 -5.60  3.03
Si -2.52  7.60  0.76
Si  5.12  1.40 -6.05
Si -5.12 -1.40  6.05
Si  4.29 -0.33  6.82
Si -7.12 -2.33  3.03
Si  7.12  2.33 -3.03
Si -1.81 -5.12 -6.05
Si  1.81  5.12  6.05
Si  7.83 -2.19  0.76
Si  2.71 -3.59  6.82
Si  1.39  7.46  3.03
Si -1.39 -7.46 -3.03
Si -1.96  5.12  6.05
Si  1.96 -5.12 -6.05
Si -2.92 -4.67  6.05
Si  2.92  4.67 -6.05
Si -2.76  5.74 -5.29
Si  6.25 -5.45  0.76
Si -4.53  6.67 -2.27
Si  2.39 -7.46 -3.03
Si -2.39  7.46  3.03
Si  7.21  4.34  0.76
Si  5.44  5.27  3.79
Si -0.37 -1.72 -8.32
Si  1.21  1.55 -8.32
Si -7.45  2.01  3.79
Si -0.87 -7.79  3.79
Si -5.87  5.27  3.79
Si  7.64  2.01  3.79
Si  6.20 -1.40  6.05
Si -6.20  1.40 -6.05
Si  0.90 -8.72  0.76
Si  7.97 -2.33  3.03
Si -7.97  2.33 -3.03
Si -2.56  1.55 -8.32
Si  4.62 -4.67  6.05
Si -4.62  4.67 -6.05
Si -7.35 -4.19 -3.03
Si  7.35  4.19  3.03
Si  6.39 -5.60  3.03
Si -6.39  5.60 -3.03
Si -7.87  4.34  0.76
Si -6.83 -4.52  3.79
Si -4.83 -3.59  6.82
Si  6.98  2.48 -5.29
Si  0.66 -0.47  9.08
Si -0.66  0.47 -9.08
Si  2.90 -7.79  3.79
Si  5.02  7.60  0.76
Si  3.40 -1.72 -8.32
Si -1.52 -7.31 -5.29
Si  4.79  5.74 -5.29
Si -5.45  2.94  6.82
Si -2.87 -8.72  0.76
Si -0.10  6.20  6.82
Si  2.25 -7.31 -5.29
Si -7.74  4.19  3.03
Si  7.74 -4.19 -3.03
Si -0.52  8.53  3.79
Si -1.04  8.86 -3.03
Si  1.04 -8.86  3.03
Si -4.14 -1.72 -8.32
Si  5.87  2.94  6.82
Si  9.41  1.08  0.76
Si -6.93 -6.53  0.00
Si  6.93  6.53  0.00
Si -9.45  1.08  0.76
Si -5.16 -7.46 -3.03
Si  5.16  7.46  3.03
Si -3.12 -0.47  9.08
Si  3.12  0.47 -9.08
Si -1.54  2.79  9.08
Si  1.54 -2.79 -9.08
Si -0.99  4.81 -8.32
Si  7.31 -1.86 -6.05
Si -7.31  1.86  6.05
Si -9.12 -3.26  0.00
Si  9.12  3.26  0.00
Si -5.58 -5.12 -6.05
Si  5.58  5.12  6.05
Si  1.13 -6.86  6.82
Si  2.73  8.86 -3.03
Si -2.73 -8.86  3.03
Si  2.23  2.79  9.08
Si -2.23 -2.79 -9.08
Si  6.79  6.67 -2.27
Si  5.73 -5.12 -6.05
Si -5.73  5.12  6.05
Si -7.07 -6.38 -2.27
Si -7.03 -0.33  6.82
Si  4.98  1.55 -8.32
Si -4.64 -7.79  3.79
Si -9.31  0.93  3.03
Si  9.31 -0.93 -3.03
Si -0.96 -9.79  0.00
Si  0.96  9.79  0.00
Si  0.92  3.74 -9.08
Si -0.92 -3.74  9.08
Si  1.82 -4.98 -8.32
Si -9.03 -1.26  3.79
Si  8.98  3.41 -2.27
Si  3.25  8.53  3.79
Si -1.95 -4.98 -8.32
Si -6.30  7.60  0.76
Si  3.67  6.20  6.82
Si  4.67 -8.72  0.76
Si -1.25  0.60  9.84
Si -1.10 -9.65 -2.27
Si -3.87  6.20  6.82
Si -8.11  2.48 -5.29
Si -0.73 -7.93  6.05
Si  0.73  7.93 -6.05
Si  2.79  4.81 -8.32
Si -2.64 -6.86  6.82
Si -7.49 -4.05 -5.29
Si  7.78  1.86  6.05
Si -7.78 -1.86 -6.05
Si -9.26 -3.12 -2.27
Si -9.54 -0.93 -3.03
Si  9.54  0.93  3.03
Si  6.48 -3.59  6.82
Si  7.60 -4.05 -5.29
Si  4.43 -0.47  9.08
Si -4.43  0.47 -9.08
Si  6.16 -7.46 -3.03
Si -6.16  7.46  3.03
Si  8.25 -4.52  3.79
Si  6.70  4.67 -6.05
Si -6.70 -4.67  6.05
Si  2.52  0.60  9.84
Si -6.53  5.74 -5.29
Si -2.81  9.79  0.00
Si  2.81 -9.79  0.00
Si  0.82  9.94 -2.27
Si  2.85 -3.74  9.08
Si -2.85  3.74 -9.08
Si  0.94 -2.66  9.84
Si  2.67 -9.65 -2.27
Si  9.74 -3.26  0.00
Si -9.74  3.26  0.00
Si -4.29  8.53  3.79
Si  9.60 -3.12 -2.27
Si  0.38 -8.39 -6.05
Si -0.38  8.39  6.05
Si -8.84 -5.45  0.76
Si  3.04 -7.93  6.05
Si -3.04  7.93 -6.05
Si -8.16  6.53  0.00
Si  8.16 -6.53  0.00
Si -5.30 -7.31 -5.29
Si  8.02 -6.38 -2.27
Si -1.18  9.01 -5.29
Si  4.81 -8.86  3.03
Si -4.81  8.86 -3.03
Si  8.06 -0.33  6.82
Si -6.34  1.55 -8.32
Si  0.32  3.87  9.84
Si -2.83 -2.66  9.84
Si  9.83 -1.26  3.79
Si -2.95  9.94 -2.27
Si  9.18 -0.79 -5.29
Si -9.88  3.41 -2.27
Si -4.76  4.81 -8.32
Si  2.59  9.01 -5.29
Si  8.70  5.60 -3.03
Si -8.70 -5.60  3.03
Si  4.90 -6.86  6.82
Si -8.89 -1.40  6.05
Si  8.89  1.40 -6.05
Si  6.02 -7.31 -5.29
Si  4.73  9.79  0.00
Si -4.73 -9.79  0.00
Si  5.31 -2.79 -9.08
Si -5.31  2.79  9.08
Si  4.69  3.74 -9.08
Si -4.69 -3.74  9.08
Si -3.39 -8.39 -6.05
Si  3.39  8.39  6.05
Si -8.30  6.67 -2.27
Si  0.04  6.05  9.08
Si -0.04 -6.05 -9.08
Si  6.67 -7.79  3.79
Si -0.95 10.87  0.76
Si  4.50  7.93 -6.05
Si -4.50 -7.93  6.05
Si -6.64 -8.72  0.76
Si -4.87 -9.65 -2.27
Si -9.68 -0.79 -5.29
Si -5.03  0.60  9.84
Si  7.17 -1.72 -8.32
Si -3.45  3.87  9.84
Si -4.16  8.39  6.05
Si  4.16 -8.39 -6.05
Si -0.81 10.72  3.03
Si  0.81 -10.72 -3.03
Si  4.59  9.94 -2.27
Si  5.59 -4.98 -8.32
Si  4.71 -2.66  9.84
Si  6.00  2.79  9.08
Si -6.00 -2.79 -9.08
Si  2.83 10.87  0.76
Si -5.72 -4.98 -8.32
Si  9.21  5.27  3.79
Si -11.03 -2.19  0.76
Si 11.31  0.00  0.00
Si -11.31  0.00  0.00
Si  4.10  3.87  9.84
Si -8.39  4.67 -6.05
Si  8.39 -4.67  6.05
Si -0.79  0.62 -11.35
Si -6.50 -8.86  3.03
Si  6.50  8.86 -3.03
Si 11.18  0.14 -2.27
Si  6.89  0.47 -9.08
Si -6.89 -0.47  9.08
Si 10.02 -5.45  0.76
Si -0.64 -5.92  9.84
Si  2.96 10.72  3.03
Si -2.96 -10.72 -3.03
Si -3.73  6.05  9.08
Si  3.73 -6.05 -9.08
Si  1.27 -7.00  9.08
Si -1.27  7.00 -9.08
Si 10.89  2.33 -3.03
Si -10.89 -2.33  3.03
Si -8.61 -3.59  6.82
Si -4.95  9.01 -5.29
Si  3.81  6.05  9.08
Si -3.81 -6.05 -9.08
Si  8.56  5.74 -5.29
Si -6.41 -6.86  6.82
Si  0.59  8.08 -8.32
Si -7.91 -1.72 -8.32
Si -9.64  5.27  3.79
Si  6.56  4.81 -8.32
Si  8.79  7.60  0.76
Si -11.45  0.14 -2.27
Si  7.02  8.53  3.79
Si  6.29  0.60  9.84
Si  0.25 -8.24 -8.32
Si -2.50 -7.00  9.08
Si  2.50  7.00 -9.08
Si  1.40 -2.65 -11.35
Si  9.97 -1.40  6.05
Si -9.97  1.40 -6.05
Si  2.98  0.62 -11.35
Si  1.32 -11.05  3.79
Si  1.48  9.46  6.82
Si  6.58 -9.79  0.00
Si -6.58  9.79  0.00
Si  6.44 -9.65 -2.27
Si 11.60 -2.19  0.76
Si 10.98  4.34  0.76
Si -9.22  2.94  6.82
Si -6.62  3.74 -9.08
Si  6.62 -3.74  9.08
Si  7.44  6.20  6.82
Si  0.67 -10.58 -5.29
Si -4.72 10.87  0.76
Si -2.29  9.46  6.82
Si -2.37 -2.65 -11.35
Si  3.13 -5.92  9.84
Si -2.45 -11.05  3.79
Si -7.64  6.20  6.82
Si 10.16 -5.60  3.03
Si -10.16  5.60 -3.03
Si -11.22  2.01  3.79
Si  0.78  3.88 -11.35
Si  8.93  7.46  3.03
Si -8.93 -7.46 -3.03
Si -0.68 -11.98  0.76
Si -3.18  8.08 -8.32
Si  4.58 -10.72 -3.03
Si -4.58 10.72  3.03
Si -8.41 -7.79  3.79
Si -6.81  7.93 -6.05
Si  6.81 -7.93  6.05
Si -10.61 -4.52  3.79
Si -6.60 -2.66  9.84
Si  8.44 -8.72  0.76
Si  9.64  2.94  6.82
Si -1.11  0.46 12.11
Si  1.11 -0.46 -12.11
Si  8.75  1.55 -8.32
Si 11.41  2.01  3.79
Si -0.45 -10.12  6.82
Si -6.72  9.94 -2.27
Si -3.10 -10.58 -5.29
Si -3.53 -8.24 -8.32
Si  6.37  9.01 -5.29
Si 10.75  2.48 -5.29
Si -8.20  0.47 -9.08
Si  8.20 -0.47  9.08
Si -4.57  0.62 -11.35
Si -9.35 -5.12 -6.05
Si  9.35  5.12  6.05
Si -11.12 -4.19 -3.03
Si 11.12  4.19  3.03
Si -1.87  7.13  9.84
Si  1.90  7.13  9.84
Si -4.41 -5.92  9.84
Si -8.07  8.53  3.79
Si 11.74 -2.33  3.03
Si -11.74  2.33 -3.03
Si -2.99  3.88 -11.35
Si  9.51 -5.12 -6.05
Si -9.51  5.12  6.05
Si  4.02 -8.24 -8.32
Si  4.36  8.08 -8.32
Si  3.10 -11.98  0.76
Si  2.66  0.46 12.11
Si -2.66 -0.46 -12.11
Si  1.05 11.80  3.79
Si -11.65  4.34  0.76
Si  1.08 -2.81 12.11
Si -1.08  2.81 -12.11
Si  0.54 12.12 -3.03
Si -0.54 -12.12  3.03
Si  5.04 -7.00  9.08
Si -5.04  7.00 -9.08
Si 10.70  6.53  0.00
Si -10.70 -6.53  0.00
Si  7.16  8.39  6.05
Si -7.16 -8.39 -6.05
Si -11.51  4.19  3.03
Si 11.51 -4.19 -3.03
Si  4.44 -10.58 -5.29
Si -10.07  7.60  0.76
Si  3.33 -10.12  6.82
Si  0.46  3.72 12.11
Si -0.46 -3.72 -12.11
Si -2.72 11.80  3.79
Si 10.56  6.67 -2.27
Si  8.58 -8.86  3.03
Si -8.58  8.86 -3.03
Si -2.69 -2.81 12.11
Si  2.69  2.81 -12.11
Si  6.60 10.87  0.76
Si  5.10 -11.05  3.79
Si  5.17 -2.65 -11.35
Si 11.08 -1.86 -6.05
Si -11.08  1.86  6.05
Si -10.80 -0.33  6.82
Si -10.84 -6.38 -2.27
Si  9.93 -7.46 -3.03
Si -9.93  7.46  3.03
Si  5.25  9.46  6.82
Si -9.07 -7.31 -5.29
Si -0.18 -5.91 -11.35
Si -4.45 -11.98  0.76
Si -7.22  3.87  9.84
Si  1.46 -11.19  6.05
Si -1.46 11.19 -6.05
Si 10.25 -3.59  6.82
Si  4.55  3.88 -11.35
Si -8.53  4.81 -8.32
Si -4.22 -10.12  6.82
Si  3.23 -12.12  3.03
Si -3.23 12.12 -3.03
Si -10.30  5.74 -5.29
Si  2.31 11.19 -6.05
Si -2.31 -11.19  6.05
Si -8.27 -7.93  6.05
Si  8.27  7.93 -6.05
Si -10.47 -4.67  6.05
Si 10.47  4.67 -6.05
Si -8.47 -3.74  9.08
Si  8.47  3.74 -9.08
Si -8.51 -9.79  0.00
Si  8.51  9.79  0.00
Si  0.75  1.53 12.87
Si  8.68 -6.86  6.82
Si -0.83 -1.73 12.87
Si  6.74 10.72  3.03
Si -6.74 -10.72 -3.03
Si  7.93 -8.39 -6.05
Si -7.93  8.39  6.05
Si -4.89  0.46 12.11
Si  4.89 -0.46 -12.11
Si -6.27 -7.00  9.08
Si  6.27  7.00 -9.08
Si -11.26 -4.05 -5.29
