500
set: 635.00  0.00  0.00
Si  0.49 -1.22  0.77
Si -0.49  1.22 -0.77
Si -1.46 -1.25 -0.77
Si  1.46  1.25  0.77
Si -1.00 -0.09  2.35
Si  1.00  0.09 -2.35
Si -2.30  1.25  0.77
Si  2.30 -1.25 -0.77
Si  0.03 -2.39 -2.35
Si -0.03  2.39  2.35
Si -3.27 -1.22  0.77
Si  3.27  1.22 -0.77
Si -2.76  0.09 -2.35
Si  2.76 -0.09  2.35
Si -0.48 -3.70  0.77
Si  0.48  3.70 -0.77
Si  1.79 -2.57  2.35
Si -1.79  2.57 -2.35
Si  1.97  2.57 -2.35
Si -1.97 -2.57  2.35
Si -0.95  0.06 -3.90
Si  0.95 -0.06  3.90
Si -1.33  3.73  0.77
Si  1.33 -3.73 -0.77
Si  4.25 -1.22  0.77
Si -4.25  1.22 -0.77
Si  2.43  3.73  0.77
Si -2.43 -3.73 -0.77
Si  0.02  2.54 -3.90
Si -0.02 -2.54  3.90
Si -2.81 -0.06  3.90
Si  2.81  0.06 -3.90
Si  1.84 -2.42 -3.90
Si -1.84  2.42  3.90
Si -1.92 -2.42 -3.90
Si  1.92  2.42  3.90
Si -3.28  3.70 -0.77
Si  3.28 -3.70  0.77
Si -3.73 -2.39 -2.35
Si  3.73  2.39  2.35
Si -3.79  2.39  2.35
Si  3.79 -2.39 -2.35
Si -4.76 -0.09  2.35
Si  4.76  0.09 -2.35
Si  5.22  1.25  0.77
Si -5.22 -1.25 -0.77
Si -0.94 -4.87 -2.35
Si  0.94  4.87  2.35
Si -0.54  1.07  5.48
Si  0.54 -1.07 -5.48
Si -0.82  5.05 -2.35
Si  0.82 -5.05  2.35
Si  4.24  3.70 -0.77
Si -4.24 -3.70  0.77
Si  1.51  1.41 -5.48
Si -1.51 -1.41  5.48
Si  3.74 -2.54  3.90
Si -3.74  2.54 -3.90
Si  3.78  2.54 -3.90
Si -3.78 -2.54  3.90
Si -2.25  1.41 -5.48
Si  2.25 -1.41  5.48
Si  2.82 -4.87 -2.35
Si -2.82  4.87  2.35
Si  4.71 -0.06  3.90
Si -4.71  0.06 -3.90
Si -6.06  1.25  0.77
Si  6.06 -1.25 -0.77
Si  0.36 -6.21 -0.77
Si -0.36  6.21  0.77
Si  2.94  5.05 -2.35
Si -2.94 -5.05  2.35
Si -0.87  4.89  3.90
Si  0.87 -4.89 -3.90
Si  5.09 -3.73 -0.77
Si -5.09  3.73  0.77
Si -1.45 -6.18  0.77
Si  1.45  6.18 -0.77
Si  0.99  5.02 -3.90
Si -0.99 -5.02  3.90
Si  3.22  1.07  5.48
Si -3.22 -1.07 -5.48
Si -0.43 -3.55 -5.48
Si  0.43  3.55  5.48
Si -5.55  2.57 -2.35
Si  5.55 -2.57  2.35
Si -2.31  6.18 -0.77
Si  2.31 -6.18  0.77
Si  5.73  2.57 -2.35
Si -5.73 -2.57  2.35
Si -1.28  3.88 -5.48
Si  1.28 -3.88  5.48
Si  2.89  4.89  3.90
Si -2.89 -4.89 -3.90
Si  2.77 -5.02  3.90
Si -2.77  5.02 -3.90
Si -6.52  0.09 -2.35
Si  6.52 -0.09  2.35
Si  4.29 -1.07 -5.48
Si -4.29  1.07  5.48
Si  3.40  6.21  0.77
Si -3.40 -6.21 -0.77
Si -2.48 -3.88  5.48
Si  2.48  3.88 -5.48
Si  4.70  4.87  2.35
Si -4.70 -4.87 -2.35
Si -0.44  1.38 -7.02
Si  0.44 -1.38  7.02
Si  7.03  1.22 -0.77
Si -7.03 -1.22  0.77
Si  4.58 -5.05  2.35
Si -4.58  5.05 -2.35
Si -5.60  2.42  3.90
Si  5.60 -2.42 -3.90
Si  1.41  1.10  7.02
Si -1.41 -1.10 -7.02
Si -6.19 -3.73 -0.77
Si  6.19  3.73  0.77
Si  5.68  2.42  3.90
Si -5.68 -2.42 -3.90
Si -3.33  3.55  5.48
Si  3.33 -3.55 -5.48
Si -2.35  1.10  7.02
Si  2.35 -1.10 -7.02
Si -4.12  6.21  0.77
Si  4.12 -6.21 -0.77
Si -6.57 -0.06  3.90
Si  6.57  0.06 -3.90
Si  5.26  1.41 -5.48
Si -5.26 -1.41  5.48
Si  4.19  3.55  5.48
Si -4.19 -3.55 -5.48
Si -4.63  4.89  3.90
Si  4.63 -4.89 -3.90
Si  0.15  7.52 -2.35
Si -0.15 -7.52  2.35
Si -3.32 -1.38  7.02
Si  3.32  1.38 -7.02
Si  1.85 -7.34 -2.35
Si -1.85  7.34  2.35
Si  4.75  5.02 -3.90
Si -4.75 -5.02  3.90
Si -1.91 -7.34 -2.35
Si  1.91  7.34  2.35
Si -7.04  3.70 -0.77
Si  7.04 -3.70  0.77
Si -1.38  3.58  7.02
Si  1.38 -3.58 -7.02
Si  0.53  3.85 -7.02
Si -0.53 -3.85  7.02
Si -5.21 -6.18  0.77
Si  5.21  6.18 -0.77
Si -8.01  1.22 -0.77
Si  8.01 -1.22  0.77
Si -7.49 -2.39 -2.35
Si  7.49  2.39  2.35
Si  2.38  3.58  7.02
Si -2.38 -3.58 -7.02
Si -6.01  1.41 -5.48
Si  6.01 -1.41  5.48
Si -7.54  2.39  2.35
Si  7.54 -2.39 -2.35
Si -1.40 -6.03 -5.48
Si  1.40  6.03  5.48
Si  4.20 -1.38  7.02
Si -4.20  1.38 -7.02
Si -0.10 -7.37 -3.90
Si  0.10  7.37  3.90
Si  5.04 -3.88  5.48
Si -5.04  3.88 -5.48
Si  0.31 -6.36  5.48
Si -0.31  6.36 -5.48
Si  2.36 -6.03 -5.48
Si -2.36  6.03  5.48
Si -6.58  4.87  2.35
Si  6.58 -4.87 -2.35
Si -3.23  3.85 -7.02
Si  3.23 -3.85  7.02
Si -1.80  7.50 -3.90
Si  1.80 -7.50  3.90
Si  1.96  7.50 -3.90
Si -1.96 -7.50  3.90
Si  3.61 -7.52  2.35
Si -3.61  7.52 -2.35
Si  1.05  0.24 -8.61
Si -1.05 -0.24  8.61
Si  6.07 -6.18  0.77
Si -6.07  6.18 -0.77
Si -6.70 -5.05  2.35
Si  6.70  5.05 -2.35
Si  0.61  8.69  0.77
Si -0.61 -8.69 -0.77
Si -5.17 -1.10 -7.02
Si  5.17  1.10  7.02
Si  1.34 -8.66  0.77
Si -1.34  8.66 -0.77
Si -3.91 -7.52  2.35
Si  3.91  7.52 -2.35
Si -7.50  2.54 -3.90
Si  7.50 -2.54  3.90
Si  8.51  0.09 -2.35
Si -8.51 -0.09  2.35
Si -8.00 -3.70  0.77
Si  8.00  3.70 -0.77
Si  7.54  2.54 -3.90
Si -7.54 -2.54  3.90
Si -0.08  2.23  8.61
Si  0.08 -2.23 -8.61
Si -6.98 -1.07 -5.48
Si  6.98  1.07  5.48
Si -2.42 -8.66  0.77
Si  2.42  8.66 -0.77
Si -2.71  0.24 -8.61
Si  2.71 -0.24  8.61
Si  3.45  6.36 -5.48
Si -3.45 -6.36  5.48
Si -4.29 -3.85  7.02
Si  4.29  3.85 -7.02
Si  8.97  1.25  0.77
Si -8.97 -1.25 -0.77
Si  3.66 -7.37 -3.90
Si -3.66  7.37  3.90
Si  6.53 -5.02  3.90
Si -6.53  5.02 -3.90
Si  6.65  4.89  3.90
Si -6.65 -4.89 -3.90
Si  6.23  3.88 -5.48
Si -6.23 -3.88  5.48
Si  3.86  7.37  3.90
Si -3.86 -7.37 -3.90
Si -1.74  2.72 -8.61
Si  1.74 -2.72  8.61
Si -2.02 -2.72  8.61
Si  2.02  2.72 -8.61
Si  3.15 -8.69 -0.77
Si -3.15  8.69  0.77
Si -0.41  6.06  7.02
Si  0.41 -6.06 -7.02
Si  8.47 -0.06  3.90
Si -8.47  0.06 -3.90
Si  4.07 -6.36  5.48
Si -4.07  6.36 -5.48
Si  6.11 -1.10 -7.02
Si -6.11  1.10  7.02
Si -5.14  3.58  7.02
Si  5.14 -3.58 -7.02
Si  7.16  6.21  0.77
Si -7.16 -6.21 -0.77
Si -5.61  7.34  2.35
Si  5.61 -7.34 -2.35
Si -5.67 -7.34 -2.35
Si  5.67  7.34  2.35
Si  1.50  6.33 -7.02
Si -1.50 -6.33  7.02
Si -3.68 -2.23 -8.61
Si  3.68  2.23  8.61
Si  8.85 -3.73 -0.77
Si -8.85  3.73  0.77
Si  7.08 -3.55 -5.48
Si -7.08  3.55  5.48
Si  5.16  6.03  5.48
Si -5.16 -6.03 -5.48
Si -3.83  2.23  8.61
Si  3.83 -2.23 -8.61
Si -2.26  6.33 -7.02
Si  2.26 -6.33  7.02
Si  4.37  8.69  0.77
Si -4.37 -8.69 -0.77
Si -8.05  1.07  5.48
Si  8.05 -1.07 -5.48
Si  0.89  4.71  8.61
Si -0.89 -4.71 -8.61
Si -3.35 -6.06 -7.02
Si  3.35  6.06  7.02
Si  4.80  0.24 -8.61
Si -4.80 -0.24  8.61
Si -9.82  1.25  0.77
Si  9.82 -1.25 -0.77
Si -9.31  2.57 -2.35
Si  9.31 -2.57  2.35
Si -6.14 -3.58 -7.02
Si  6.14  3.58  7.02
Si -8.34  5.05 -2.35
Si  8.34 -5.05  2.35
Si -8.46 -4.87 -2.35
Si  8.46  4.87  2.35
Si  7.88 -6.21 -0.77
Si -7.88  6.21  0.77
Si  7.08  1.38 -7.02
Si -7.08 -1.38  7.02
Si  5.10 -8.66  0.77
Si -5.10  8.66 -0.77
Si  0.77 -5.20  8.61
Si -0.77  5.20 -8.61
Si  9.48  2.57 -2.35
Si -9.48 -2.57  2.35
Si -5.56  7.50 -3.90
Si  5.56 -7.50  3.90
Si  0.88 -9.82 -2.35
Si -0.88  9.82  2.35
Si -4.17  6.06  7.02
Si  4.17 -6.06 -7.02
Si -6.12  6.03  5.48
Si  6.12 -6.03 -5.48
Si  0.90 -0.21 10.15
Si -0.90  0.21 -10.15
Si -5.72 -7.50  3.90
Si  5.72  7.50 -3.90
Si -1.39  8.51  5.48
Si  1.39 -8.51 -5.48
Si  2.87 -4.71 -8.61
Si -2.87  4.71  8.61
Si -7.95 -3.55 -5.48
Si  7.95  3.55  5.48
Si  1.12 10.00 -2.35
Si -1.12 -10.00  2.35
Si -2.37 -8.51 -5.48
Si  2.37  8.51  5.48
Si -9.36  2.42  3.90
Si  9.36 -2.42 -3.90
Si  0.66  8.84 -5.48
Si -0.66 -8.84  5.48
Si  8.38 -4.89 -3.90
Si -8.38  4.89  3.90
Si  2.98  5.20 -8.61
Si -2.98 -5.20  8.61
Si  9.44  2.42  3.90
Si -9.44 -2.42 -3.90
Si  0.07  2.69 -10.15
Si -0.07 -2.69 10.15
Si -2.88 -9.82 -2.35
Si  2.88  9.82  2.35
Si -2.86 -0.21 10.15
Si  2.86  0.21 -10.15
Si 10.28 -0.09  2.35
Si -10.28  0.09 -2.35
Si  1.87  2.26 10.15
Si -1.87 -2.26 -10.15
Si  1.89 -2.26 -10.15
Si -1.89  2.26 10.15
Si  5.50 -2.72  8.61
Si -5.50  2.72 -8.61
Si -2.64 10.00 -2.35
Si  2.64 -10.00  2.35
Si -8.51 -5.02  3.90
Si  8.51  5.02 -3.90
Si -6.99  3.85 -7.02
Si  6.99 -3.85  7.02
Si -1.07 -9.85 -3.90
Si  1.07  9.85  3.90
Si  9.95  3.73  0.77
Si -9.95 -3.73 -0.77
Si -9.02 -1.41  5.48
Si  9.02  1.41 -5.48
Si  6.18  8.66 -0.77
Si -6.18 -8.66  0.77
Si  7.96 -1.38  7.02
Si -7.96  1.38 -7.02
Si  5.77  2.72 -8.61
Si -5.77 -2.72  8.61
Si -0.83  9.97 -3.90
Si  0.83 -9.97  3.90
Si  6.47 -0.24  8.61
Si -6.47  0.24 -8.61
Si -7.37  7.52 -2.35
Si  7.37 -7.52  2.35
Si  5.26  6.33 -7.02
Si -5.26 -6.33  7.02
Si -3.10  8.84 -5.48
Si  3.10 -8.84  5.48
Si -4.65 -4.71 -8.61
Si  4.65  4.71  8.61
Si -10.79 -1.22  0.77
Si 10.79  1.22 -0.77
Si  8.97  6.18 -0.77
Si -8.97 -6.18  0.77
Si  2.69 -9.85 -3.90
Si -2.69  9.85  3.90
Si  7.67  7.52 -2.35
Si -7.67 -7.52  2.35
Si  4.53 -5.20  8.61
Si -4.53  5.20 -8.61
Si 10.32  0.06 -3.90
Si -10.32 -0.06  3.90
Si -7.20 -6.36  5.48
Si  7.20  6.36 -5.48
Si  0.56  8.53  7.02
Si -0.56 -8.53 -7.02
Si -8.80  3.88 -5.48
Si  8.80 -3.88  5.48
Si  2.93  9.97 -3.90
Si -2.93 -9.97  3.90
Si -4.64  9.82  2.35
Si  4.64 -9.82 -2.35
Si  6.91 -8.69 -0.77
Si -6.91  8.69  0.77
Si  3.69 -2.69 10.15
Si -3.69  2.69 -10.15
Si  7.42 -7.37 -3.90
Si -7.42  7.37  3.90
Si  4.66 -0.21 10.15
Si -4.66  0.21 -10.15
Si  0.37 -11.13  0.77
Si -0.37 11.13 -0.77
Si -3.83 -2.69 10.15
Si  3.83  2.69 -10.15
Si  6.02 -6.33  7.02
Si -6.02  6.33 -7.02
Si  0.92 -4.74 -10.15
Si -0.92  4.74 10.15
Si -9.77  1.41 -5.48
Si  9.77 -1.41  5.48
Si -7.62 -7.37 -3.90
Si  7.62  7.37  3.90
Si  4.42  8.84 -5.48
Si -4.42 -8.84  5.48
Si -1.58 -11.16 -0.77
Si  1.58 11.16  0.77
Si -1.29  8.81 -7.02
Si  1.29 -8.81  7.02
Si -5.14  8.51  5.48
Si  5.14 -8.51 -5.48
Si  8.04  3.85 -7.02
Si -8.04 -3.85  7.02
Si  1.86  7.19  8.61
Si -1.86 -7.19 -8.61
Si -1.90  7.19  8.61
Si  1.90 -7.19 -8.61
Si  4.88 10.00 -2.35
Si -4.88 -10.00  2.35
Si  2.18 -11.16 -0.77
Si -2.18 11.16  0.77
Si  8.93  1.10  7.02
Si -8.93 -1.10 -7.02
Si -1.04 -5.17 10.15
Si  1.04  5.17 -10.15
Si 10.79 -3.70  0.77
Si -10.79  3.70 -0.77
Si  7.83 -6.36  5.48
Si -7.83  6.36 -5.48
Si -3.20  8.53  7.02
Si  3.20 -8.53 -7.02
Si -2.47 -8.81  7.02
Si  2.47  8.81 -7.02
Si  0.20  7.68 -8.61
Si -0.20 -7.68  8.61
Si  2.84  4.74 10.15
Si -2.84 -4.74 -10.15
Si  7.44  2.23  8.61
Si -7.44 -2.23 -8.61
Si  9.82 -6.18  0.77
Si -9.82  6.18 -0.77
Si -4.83 -9.85 -3.90
Si  4.83  9.85  3.90
Si -4.59  9.97 -3.90
Si  4.59 -9.97  3.90
Si 10.33 -4.87 -2.35
Si -10.33  4.87  2.35
Si  3.39 11.13 -0.77
Si -3.39 -11.13  0.77
Si  7.11  6.06  7.02
Si -7.11 -6.06 -7.02
Si  7.59 -2.23 -8.61
Si -7.59  2.23  8.61
Si  2.72 -5.17 10.15
Si -2.72  5.17 -10.15
Si 11.25  2.39  2.35
Si -11.25 -2.39 -2.35
Si -0.58  0.92 11.73
Si  0.58 -0.92 -11.73
Si -11.30  2.39  2.35
Si 11.30 -2.39 -2.35
Si  5.63  2.26 10.15
Si -5.63 -2.26 -10.15
Si -6.13 -8.51 -5.48
Si  6.13  8.51  5.48
Si  5.64 -2.26 -10.15
Si -5.64  2.26 10.15
Si -6.62  4.71  8.61
Si  6.62 -4.71 -8.61
Si 10.45  5.05 -2.35
Si -10.45 -5.05  2.35
Si 11.76 -1.22  0.77
Si -11.76  1.22 -0.77
Si -4.32 -8.53 -7.02
Si  4.32  8.53  7.02
Si  8.89 -3.58 -7.02
Si -8.89  3.58  7.02
Si -4.13 11.13 -0.77
Si  4.13 -11.13  0.77
Si  8.12  8.69  0.77
Si -8.12 -8.69 -0.77
Si  1.55  1.56 -11.73
Si -1.55 -1.56 11.73
Si  2.20 -1.56 11.73
Si -2.20  1.56 -11.73
Si -9.99 -3.88  5.48
Si  9.99  3.88 -5.48
Si  3.56 -7.68  8.61
Si -3.56  7.68 -8.61
