500
set: 988.00  0.00  0.00
Si -0.33  1.20 -0.77
Si  0.48 -1.14  0.80
Si -1.34 -1.20 -0.83
Si  1.42  1.28  0.91
Si  2.25 -1.22 -0.86
Si -2.27  1.26  0.81
Si -0.93 -0.03  2.56
Si  0.85  0.01 -2.60
Si -3.13 -1.22  0.83
Si -0.08  2.39  2.51
Si  3.18  1.20 -0.84
Si -0.06 -2.44 -2.60
Si -2.67 -0.02 -2.50
Si  2.69 -0.05  2.55
Si -0.49 -3.63  0.91
Si  0.57  3.71 -0.83
Si -1.82  2.40 -2.55
Si  1.77 -2.42  2.58
Si -1.22  3.69  0.83
Si  1.27 -3.71 -0.84
Si  1.85  2.47 -2.60
Si -1.99 -2.52  2.51
Si  0.89  0.02  4.16
Si -4.07  1.20 -0.84
Si -1.03 -0.06 -4.25
Si  4.12 -1.22  0.83
Si -2.24 -3.71 -0.77
Si  2.39  3.77  0.80
Si -0.10 -2.44  4.15
Si  3.08 -3.65  0.81
Si  0.03  2.42 -4.20
Si -3.09  3.69 -0.86
Si  2.72  0.03 -4.18
Si  3.52 -2.51 -2.55
Si -2.78 -0.05  4.21
Si -3.58  2.49  2.58
Si  3.68  2.49  2.58
Si  1.81  2.47  4.15
Si -3.74 -2.51 -2.55
Si  1.73 -2.51 -4.21
Si -1.72  2.44  4.26
Si  4.99  1.26  0.81
Si -5.00 -1.22 -0.86
Si  4.58 -0.02 -2.50
Si -1.88 -2.48 -4.20
Si -4.57 -0.05  2.55
Si -0.76  4.89 -2.50
Si  0.98  4.88  2.56
Si -4.18 -3.65  0.81
Si  4.17  3.69 -0.86
Si  0.78 -4.96  2.55
Si -1.06 -4.90 -2.60
Si  0.46 -1.18 -5.85
Si -3.61  2.40 -4.21
Si -5.84  1.28  0.91
Si  3.65  2.40 -4.21
Si -0.39  1.25  5.93
Si  5.91 -1.20 -0.83
Si -2.65  4.86  2.55
Si  3.62 -2.47  4.26
Si -3.63 -2.47  4.26
Si  2.67 -4.92 -2.50
Si  4.47 -0.05  4.21
Si -4.53  0.03 -4.18
Si  0.34 -6.12 -0.86
Si -4.86  3.77  0.80
Si  2.77  4.92 -2.60
Si -0.35  6.17  0.81
Si -2.84 -4.93  2.56
Si -1.29 -1.25  5.99
Si -1.43 -6.05  0.80
Si  1.44  1.31 -5.96
Si  5.01 -3.71 -0.77
Si  5.26 -2.52  2.51
Si  1.58  6.11 -0.77
Si -2.17  1.23 -5.93
Si  2.23 -1.26  5.92
Si  5.43  2.40 -2.55
Si  0.81 -4.88 -4.18
Si -0.87  4.85  4.21
Si -5.41  2.47 -2.60
Si  0.88  4.84 -4.25
Si -1.02 -4.89  4.16
Si -5.49 -2.42  2.58
Si -2.16  6.10 -0.84
Si  2.21 -6.12  0.83
Si  6.32 -0.03  2.56
Si  3.21  1.24  5.90
Si -3.22 -1.20 -5.95
Si -6.40  0.01 -2.60
Si -6.77 -1.14  0.80
Si -3.25 -6.11 -0.83
Si -0.47 -3.60 -5.96
Si -2.62  4.94 -4.18
Si  2.56 -4.96  4.21
Si  2.80  4.92  4.16
Si  0.63  3.65  5.99
Si  1.29 -3.67  5.90
Si  6.93  1.20 -0.77
Si  3.33  6.19  0.91
Si -5.98 -3.71 -0.84
Si  4.41 -4.93  2.56
Si  6.03  3.69  0.83
Si -1.31  3.71 -5.95
Si -4.49  4.92 -2.60
Si  4.60  4.86  2.55
Si -2.94 -4.97 -4.25
Si -4.59 -4.92 -2.50
Si  5.37 -2.48 -4.20
Si -4.05  1.24  5.90
Si -5.45  2.47  4.15
Si  4.03 -1.20 -5.95
Si  2.38  3.73 -5.85
Si -2.30 -3.65  5.93
Si  4.00 -6.11 -0.83
Si -5.52 -2.51 -4.21
Si -3.92  6.19  0.91
Si  5.53  2.44  4.26
Si  6.22 -0.06 -4.25
Si -6.36  0.02  4.16
Si -3.12  3.65  5.92
Si  3.17 -3.67 -5.93
Si -6.68  3.71 -0.83
Si -0.38  1.25 -7.59
Si -7.58  1.20 -0.77
Si  6.76 -3.63  0.91
Si  0.09  7.30 -2.55
Si -1.28 -1.26 -7.53
Si -0.15 -7.33  2.58
Si  0.46 -1.17  7.67
Si  1.43  1.31  7.55
Si  4.31 -4.97 -4.25
Si -4.45  4.92  4.16
Si  7.73 -1.14  0.80
Si -5.03 -1.26  5.92
Si  5.08  1.23 -5.93
Si  1.83  7.30  2.51
Si  4.64  4.94 -4.18
Si  7.18  2.39  2.51
Si -5.04 -6.12  0.83
Si -2.18  1.24  7.59
Si  5.09  6.10 -0.84
Si -1.66  7.39  2.58
Si  1.60 -7.42 -2.55
Si  2.23 -1.26 -7.60
Si -4.70 -4.96  4.21
Si  7.19 -2.44 -2.60
Si -1.98 -7.35 -2.60
Si -4.08 -3.67 -5.93
Si  4.14  3.65  5.92
Si -7.33  2.39  2.51
Si -7.32 -2.44 -2.60
Si  6.20 -4.90 -2.60
Si -3.23 -1.19  7.57
Si -6.27  4.88  2.56
Si  3.21  1.24 -7.62
Si -5.67  6.11 -0.77
Si -0.48 -3.59  7.55
Si  0.63  3.65 -7.53
Si -5.81  1.31 -5.96
Si  5.82 -6.05  0.80
Si -4.88  3.73 -5.85
Si  0.19  7.35  4.26
Si  6.49  4.89 -2.50
Si  8.11  0.01 -2.60
Si  3.35 -7.42  2.51
Si -0.18 -7.41 -4.21
Si -1.31  3.71  7.57
Si -0.26  6.14 -5.93
Si  4.95 -3.65  5.93
Si  5.97 -1.25  5.99
Si -6.48 -4.96  2.55
Si  0.31 -6.16  5.92
Si  1.30 -3.67 -7.62
Si -1.45 -6.08 -5.85
Si -3.49  7.38 -2.60
Si -8.18 -0.03  2.56
Si -1.70  7.31 -4.21
Si -7.75 -3.63  0.91
Si  7.15 -2.44  4.15
Si  4.03 -1.19  7.57
Si  0.69  8.60  0.83
Si  1.94  7.33 -4.20
Si  1.16 -8.56  0.81
Si  3.76  7.38 -2.60
Si -2.02 -7.35  4.15
Si -0.64 -8.62 -0.84
Si  1.71 -7.38  4.26
Si  1.52  6.16  5.93
Si  7.82  3.71 -0.83
Si -7.22  2.42 -4.20
Si -4.04  1.24 -7.62
Si -8.60 -1.20 -0.83
Si -1.18  8.60 -0.86
Si -2.30 -3.66 -7.59
Si  7.28  2.42 -4.20
Si -3.90 -7.42  2.51
Si  2.12 -6.11 -5.95
Si -2.14  6.15  5.90
Si -7.36 -2.44  4.15
Si  8.67  1.28  0.91
Si  2.37  3.73  7.67
Si -2.41 -8.54  0.91
Si  6.23 -4.89  4.16
Si -3.11  3.65 -7.60
Si  2.48  8.61 -0.83
Si  3.16 -3.67  7.59
Si -6.79 -1.18 -5.85
Si  6.38  4.85  4.21
Si -6.37  4.84 -4.25
Si -6.44 -4.88 -4.18
Si  8.14  0.02  4.16
Si -5.96 -3.67  5.90
Si  6.86  1.25  5.93
Si -3.20 -6.16  5.99
Si -3.54  7.37  4.15
Si  3.46 -7.39 -4.20
Si  3.10 -8.62 -0.77
Si  5.95  3.71 -5.95
Si -5.02 -1.26 -7.60
Si -2.95  8.67  0.80
Si  5.07  1.24  7.59
Si  3.72  7.37  4.15
Si  3.35  6.22 -5.96
Si -6.91 -6.12 -0.86
Si -8.47  3.69  0.83
Si  6.90  6.17  0.81
Si -8.28 -0.06 -4.25
Si -3.79 -7.39 -4.20
Si -1.04 -0.06  9.27
Si  8.53 -3.71 -0.84
Si -4.09 -3.67  7.59
Si  4.14  3.65 -7.60
Si  0.90  0.01 -9.36
Si  5.28 -7.35 -2.60
Si -5.42  7.30  2.51
Si -3.90  6.22 -5.96
Si  4.05 -6.16  5.99
Si -4.15 -8.62 -0.77
Si  5.59  7.39  2.58
Si  9.51 -1.22 -0.86
Si -5.82  1.31  7.55
Si  0.02  2.43  9.32
Si -9.52  1.26  0.81
Si -6.63  3.65  5.99
Si -5.65 -7.42 -2.55
Si -0.10 -2.44 -9.36
Si  9.02 -2.42  2.58
Si  5.97 -1.26 -7.53
Si  4.30  8.67  0.80
Si -2.78 -0.06 -9.31
Si -8.02  4.89 -2.50
Si  6.78 -3.60 -5.96
Si  2.72  0.04  9.34
Si -1.72  2.44 -9.26
Si -9.08  2.40 -2.55
Si  7.72 -1.18 -5.85
Si -7.64  1.25  5.93
Si -0.27  6.14  7.59
Si  4.96 -3.66 -7.59
Si  8.03 -4.96  2.55
Si  9.10  2.47 -2.60
Si  0.32 -6.17 -7.60
Si  7.59 -6.12 -0.86
Si  1.73 -2.50  9.31
Si -7.61  6.17  0.81
Si -1.89 -2.48  9.32
Si -4.88  3.73  7.67
Si  1.81  2.46 -9.36
Si  4.85 -8.54  0.91
Si -4.77  8.61 -0.83
Si  1.53  6.16 -7.59
Si -1.45 -6.08  7.67
Si -9.24 -2.52  2.51
Si  8.23  4.88  2.56
Si  5.24 -7.35  4.15
Si  5.12  6.15  5.90
Si -5.13 -6.11 -5.95
Si  2.12 -6.10  7.57
Si -5.31  7.33 -4.20
Si -8.31 -4.90 -2.60
Si -2.13  6.14 -7.62
Si  5.56  7.31 -4.21
Si -0.74  9.76  2.55
Si -5.54 -7.38  4.26
Si  0.76 -9.83 -2.50
Si  1.15  9.80 -2.50
Si -9.49 -3.71 -0.77
Si -8.97  2.44  4.26
Si  8.99 -2.51 -4.21
Si -9.93 -0.02 -2.50
Si -3.19 -6.16 -7.53
Si  5.80 -6.08 -5.85
Si  3.62 -2.47 -9.26
Si -3.63 -2.47 -9.26
Si -1.14 -9.87  2.55
Si  9.94 -0.05  2.55
Si  9.06  2.47  4.15
Si -3.61  2.40  9.31
Si  3.64  2.40  9.31
Si -5.73  6.16  5.93
Si  6.87  1.25 -7.59
Si  8.07 -4.88 -4.18
Si -6.79 -1.17  7.67
Si  5.94  3.71  7.57
Si  4.47 -0.06 -9.31
Si -5.95 -3.67 -7.62
Si  3.35  6.22  7.55
Si -9.14 -2.48 -4.20
Si -8.12  4.85  4.21
Si  8.13  4.84 -4.25
Si -4.54  0.04  9.34
Si  9.64  3.77  0.80
Si -7.72 -3.60 -5.96
Si -0.62 -8.57  5.90
Si  2.50 -9.84  2.56
Si -8.28 -4.89  4.16
Si -1.21  8.56  5.92
Si -2.58  9.82 -2.60
Si  0.60  8.62 -5.95
Si -10.39 -1.22  0.83
Si  0.88  4.85  9.27
Si  1.26 -8.58 -5.93
Si -8.54 -1.25  5.99
Si  2.89  9.79  2.56
Si  7.11 -7.33  2.58
Si -6.09 -8.56  0.81
Si -0.87  4.85 -9.31
Si 10.44  1.20 -0.84
Si -3.91  6.22  7.55
Si  4.06 -6.16 -7.53
Si -7.17  7.30 -2.55
Si  7.88  3.65  5.99
Si  0.81 -4.87  9.34
Si  6.08  8.60 -0.86
Si -2.97 -9.80 -2.60
Si -1.02 -4.89 -9.36
Si -8.68 -6.05  0.80
Si  8.69  1.31 -5.96
Si -2.38 -8.50 -5.96
Si  7.34  7.30 -2.55
Si -6.62  3.65 -7.53
Si  1.04  9.76  4.21
Si -1.10 -9.78 -4.18
Si -0.70  9.85 -4.18
Si -7.40 -7.33  2.58
Si  0.65 -9.87  4.21
Si  2.54  8.56  5.99
Si  6.78 -3.59  7.55
Si  8.84  6.11 -0.77
Si  9.98  0.03 -4.18
Si -7.64  1.25 -7.59
Si -2.97  8.64 -5.85
Si -6.56  8.60  0.83
Si  3.04 -8.56  5.93
Si  2.56 -4.96 -9.31
Si -10.04 -0.05  4.21
Si -2.62  4.94  9.34
Si  6.61 -8.62 -0.84
Si -2.95 -4.97  9.27
Si  2.81  4.92 -9.36
Si  7.71 -1.17  7.67
Si  0.85  0.01 10.91
Si -2.54  9.83  4.16
Si 10.33 -3.65  0.81
Si -0.92 -0.03 -10.96
Si  2.79  9.75 -4.25
Si -5.14 -6.10  7.57
Si -6.94 -6.16  5.92
Si  4.28 -9.80 -2.60
Si -10.34  3.69 -0.86
Si  8.55 -3.67  5.90
Si -4.36  9.79  2.56
Si  2.40 -9.88 -4.25
Si  6.99  6.14 -5.93
Si  5.36 -2.48  9.32
Si -2.93 -9.80  4.16
Si -7.06  7.35  4.26
Si -0.25 11.01 -0.84
Si  5.12  6.14 -7.62
Si  5.54  2.44 -9.26
Si -8.56  3.71 -5.95
Si  0.30 -11.03  0.83
Si  7.08 -7.41 -4.21
Si -5.44  2.46 -9.36
Si -5.53 -2.50  9.31
Si  6.22 -0.06  9.27
Si -1.57 -11.03 -0.86
Si -0.07 -2.44 10.92
Si  4.68  9.82 -2.60
Si -9.43  1.23 -5.93
Si  1.56 11.07  0.81
Si -4.75 -9.84  2.56
Si -4.21 -8.56  5.93
Si  2.09 -11.02 -0.83
Si  9.48 -1.26  5.92
Si -9.41  6.10 -0.84
Si -0.07  2.39 -11.00
Si  4.29  8.64 -5.85
Si  7.44  7.35  4.26
Si  2.69 -0.06 -10.97
Si  9.46 -6.12  0.83
Si -7.43 -7.41 -4.21
Si -2.01 11.09  0.91
Si -6.36  0.01 -9.36
Si -9.91  4.86  2.55
Si -5.73  6.16 -7.59
Si -2.68 -0.01 11.02
Si  1.84  2.47 10.92
Si  1.77 -2.42 -10.94
Si 10.77 -2.51 -2.55
Si  9.92 -4.92 -2.50
Si  4.30 -4.97  9.27
Si -7.51  6.14 -5.93
Si -1.83  2.40 10.97
Si  5.80 -6.08  7.67
Si -7.73 -3.59  7.55
Si -10.83  2.49  2.58
Si  7.57 -6.16  5.92
Si -11.32  1.20 -0.84
Si -8.53 -1.26 -7.53
Si 10.02  4.92 -2.60
Si -1.98 -2.52 -11.00
Si -4.72  8.56  5.99
Si 11.37 -1.22  0.83
Si -4.45  4.92 -9.36
Si  4.87 -8.50 -5.96
Si -3.34 -10.96  0.80
Si  4.32 -9.80  4.16
Si -0.61 -8.58 -7.62
Si  0.60  8.62  7.57
Si  7.88  3.65 -7.53
Si 10.93  2.49  2.58
Si -1.20  8.55 -7.60
Si  1.25 -8.58  7.59
Si -10.09 -4.93  2.56
Si -4.46  9.75 -4.25
Si  4.63  4.94  9.34
Si -4.69 -4.96 -9.31
Si -10.99 -2.51 -2.55
Si  3.50 11.01 -0.77
Si  8.69  1.31  7.55
Si -2.39 -8.50  7.55
Si  3.91 -10.96  0.80
Si -3.76 11.01 -0.77
Si  4.71  9.83  4.16
Si  2.54  8.56 -7.53
Si -7.89 -8.62 -0.84
Si  7.94  8.60  0.83
Si  9.81 -4.96  4.21
Si -3.57  2.48 -10.94
Si  3.51 -2.51 10.97
Si -4.85 -9.88 -4.25
Si -9.87  4.94 -4.18
Si  3.68  2.48 -10.94
Si -6.11  9.80 -2.50
Si  0.20  7.34 -9.26
Si -9.55 -3.65  5.93
Si  8.86 -7.42 -2.55
Si  3.04 -8.56 -7.59
Si -3.74 -2.51 10.97
Si  9.63  3.73 -5.85
Si -8.92  7.39  2.58
Si -4.56 -0.06 -10.97
Si  6.12 -9.87  2.55
Si -10.86  2.40 -4.21
Si -0.18 -7.41  9.31
Si  9.09  7.30  2.51
Si 10.90  2.40 -4.21
Si  4.57 -0.01 11.02
Si -2.97  8.64  7.67
Si 10.87 -2.47  4.26
Si 10.05  4.92  4.16
Si -10.89 -2.47  4.26
Si -1.70  7.31  9.31
Si  1.71 -7.38 -9.26
Si -6.93 -6.17 -7.60
Si  6.99  6.14  7.59
Si -1.06 -4.89 10.91
Si  6.51  9.76  2.55
Si  1.93  7.33  9.32
Si -8.57  3.71  7.57
Si -11.43 -3.65  0.81
Si  8.55 -3.67 -7.62
Si  8.42 -8.56  0.81
Si 11.42  3.69 -0.86
Si -6.00 -8.58 -5.93
Si  0.99  4.88 -10.96
Si  7.15 -2.44 -9.36
Si  6.05  8.56  5.92
Si -7.23  2.43  9.32
Si -6.50 -9.83 -2.50
Si  0.78 -4.96 -10.97
Si  7.28  2.43  9.32
Si -8.43  8.60 -0.86
Si 10.46  1.24  5.90
Si -2.01 -7.35 -9.36
Si -0.77  4.89 11.02
Si -9.23 -7.35 -2.60
Si -11.82 -0.05  2.55
