500
set: 1632.00  0.00  0.00
Si  0.42 -0.10 -1.54
Si -0.42  0.10  1.54
Si -1.64  1.33 -1.76
Si  1.64 -1.33  1.76
Si  0.06 -2.43 -1.29
Si -0.06  2.43  1.29
Si -2.34 -1.30  0.77
Si  2.34  1.30 -0.77
Si -0.75  3.34 -0.75
Si  0.75 -3.34  0.75
Si -2.43 -2.21 -1.29
Si  2.43  2.21  1.29
Si  0.98  0.09 -3.65
Si -0.98 -0.09  3.65
Si  1.37  3.30 -1.77
Si -1.37 -3.30  1.77
Si -3.75  1.30 -0.77
Si  3.75 -1.30  0.77
Si  3.65 -2.21 -1.29
Si -3.65  2.21  1.29
Si  0.70  2.44 -3.85
Si -0.70 -2.44  3.85
Si -0.98 -1.30 -4.39
Si  0.98  1.30  4.39
Si  2.99 -1.34 -3.38
Si -2.99  1.34  3.38
Si -0.10 -3.32 -3.38
Si  0.10  3.32  3.38
Si -3.10 -1.34 -3.38
Si  3.10  1.34  3.38
Si -1.79  2.22 -3.85
Si  1.79 -2.22  3.85
Si  4.45  1.33 -1.76
Si -4.45 -1.33  1.76
Si -2.71 -4.55 -1.50
Si  2.71  4.55  1.50
Si -2.71  4.74 -1.50
Si  2.71 -4.74  1.50
Si  2.01 -3.34 -4.38
Si -2.01  3.34  4.38
Si  3.38 -4.55 -1.50
Si -3.38  4.55  1.50
Si -5.67 -0.10 -1.54
Si  5.67  0.10  1.54
Si  3.38  4.74 -1.50
Si -3.38 -4.74  1.50
Si -4.72  3.30 -1.77
Si  4.72 -3.30  1.77
Si -0.75 -5.95 -0.75
Si  0.75  5.95  0.75
Si  4.29  2.22 -3.85
Si -4.29 -2.22  3.85
Si -2.15  4.55 -3.61
Si  2.15 -4.55  3.61
Si -5.11  0.09 -3.65
Si  5.11 -0.09  3.65
Si -2.15 -4.74 -3.61
Si  2.15  4.74  3.61
Si -5.34 -3.34  0.75
Si  5.34  3.34 -0.75
Si  1.37 -5.99 -1.77
Si -1.37  5.99  1.77
Si -2.48  1.30 -5.90
Si  2.48 -1.30  5.90
Si -6.03 -2.43 -1.29
Si  6.03  2.43  1.29
Si -6.51  0.10  1.54
Si  6.51 -0.10 -1.54
Si -6.15  2.43  1.29
Si  6.15 -2.43 -1.29
Si  0.61  3.34 -5.92
Si -0.61 -3.34  5.92
Si  1.64 -0.09 -6.65
Si -1.64  0.09  6.65
Si -4.08 -3.34 -4.38
Si  4.08  3.34  4.38
Si  5.10 -1.30 -4.39
Si -5.10  1.30  4.39
Si -0.10  5.97 -3.38
Si  0.10 -5.97  3.38
Si  0.06  6.86 -1.29
Si -0.06 -6.86  1.29
Si -1.67 -2.22 -6.44
Si  1.67  2.22  6.44
Si  3.94  4.55 -3.61
Si -3.94 -4.55  3.61
Si  3.61  1.30 -5.90
Si -3.61 -1.30  5.90
Si -5.39  2.44 -3.85
Si  5.39 -2.44  3.85
Si -0.36  1.34 -6.92
Si  0.36 -1.34  6.92
Si  3.94 -4.74 -3.61
Si -3.94  4.74  3.61
Si  1.92 -2.44 -6.44
Si -1.92  2.44  6.44
Si -2.43  7.08 -1.29
Si  2.43 -7.08  1.29
Si  5.99 -3.32 -3.38
Si -5.99  3.32  3.38
Si -6.84  3.34 -0.75
Si  6.84 -3.34  0.75
Si  2.01  5.95 -4.38
Si -2.01 -5.95  4.38
Si -6.18 -3.32 -3.38
Si  6.18  3.32  3.38
Si -4.72 -5.99 -1.77
Si  4.72  5.99  1.77
Si  0.70 -6.86 -3.85
Si -0.70  6.86  3.85
Si  7.07  0.09 -3.65
Si -7.07 -0.09  3.65
Si -4.45 -0.09 -6.65
Si  4.45  0.09  6.65
Si -5.34  5.95  0.75
Si  5.34 -5.95 -0.75
Si -7.73  1.33 -1.76
Si  7.73 -1.33  1.76
Si -4.17 -2.44 -6.44
Si  4.17  2.44  6.44
Si  3.65  7.08 -1.29
Si -3.65 -7.08  1.29
Si  4.42 -2.22 -6.44
Si -4.42  2.22  6.44
Si  2.72  3.32 -6.91
Si -2.72 -3.32  6.91
Si  6.79  2.44 -3.85
Si -6.79 -2.44  3.85
Si -1.31 -4.55 -6.68
Si  1.31  4.55  6.68
Si -1.79 -7.08 -3.85
Si  1.79  7.08  3.85
Si -1.31  4.74 -6.68
Si  1.31 -4.74  6.68
Si -1.64 -7.96 -1.76
Si  1.64  7.96  1.76
Si -7.46 -3.30  1.77
Si  7.46  3.30 -1.77
Si -2.34  7.99  0.77
Si  2.34 -7.99 -0.77
Si -3.37  3.32 -6.91
Si  3.37 -3.32  6.91
Si  0.61 -5.95 -5.92
Si -0.61  5.95  5.92
Si -7.07 -1.30 -4.39
Si  7.07  1.30  4.39
Si -4.08  5.95 -4.38
Si  4.08 -5.95  4.38
Si -8.43 -1.30  0.77
Si  8.43  1.30 -0.77
Si -5.48  3.34 -5.92
Si  5.48 -3.34  5.92
Si -1.83 -1.33 -8.53
Si  1.83  1.33  8.53
Si -3.75 -7.99 -0.77
Si  3.75  7.99  0.77
Si -8.52 -2.21 -1.29
Si  8.52  2.21  1.29
Si  2.20  0.10 -8.76
Si -2.20 -0.10  8.76
Si -7.88  2.22 -3.85
Si  7.88 -2.22  3.85
Si  5.72  1.34 -6.92
Si -5.72 -1.34  6.92
Si -6.84 -5.95 -0.75
Si  6.84  5.95  0.75
Si  5.99  5.97 -3.38
Si -5.99 -5.97  3.38
Si  4.29 -7.08 -3.85
Si -4.29  7.08  3.85
Si  2.99  7.95 -3.38
Si -2.99 -7.95  3.38
Si -0.98  7.99 -4.39
Si  0.98 -7.99  4.39
Si -3.10  7.95 -3.38
Si  3.10 -7.95  3.38
Si -6.03  6.86 -1.29
Si  6.03 -6.86  1.29
Si  1.25 -3.30 -8.52
Si -1.25  3.30  8.52
Si -6.18  5.97 -3.38
Si  6.18 -5.97  3.38
Si  4.45 -7.96 -1.76
Si -4.45  7.96  1.76
Si -6.15 -6.86  1.29
Si  6.15  6.86 -1.29
Si -1.03  2.21 -9.00
Si  1.03 -2.21  9.00
Si  0.42  9.19 -1.54
Si -0.42 -9.19  1.54
Si  4.78 -4.55 -6.68
Si -4.78  4.55  6.68
Si  4.78  4.74 -6.68
Si -4.78 -4.74  6.68
Si  0.42 -9.39 -1.54
Si -0.42  9.39  1.54
Si  2.72 -5.97 -6.91
Si -2.72  5.97  6.91
Si -5.39 -6.86 -3.85
Si  5.39  6.86  3.85
Si  6.70  3.34 -5.92
Si -6.70 -3.34  5.92
Si -6.45  1.34 -6.92
Si  6.45 -1.34  6.92
Si -3.89  0.10 -8.76
Si  3.89 -0.10  8.76
Si  1.92  6.86 -6.44
Si -1.92 -6.86  6.44
Si  0.28 -1.30 -9.53
Si -0.28  1.30  9.53
Si  4.26 -1.33 -8.53
Si -4.26  1.33  8.53
Si  2.56  2.43 -9.00
Si -2.56 -2.43  9.00
Si -1.67  7.08 -6.44
Si  1.67 -7.08  6.44
Si -7.46  5.99  1.77
Si  7.46 -5.99 -1.77
Si -3.37 -5.97 -6.91
Si  3.37  5.97  6.91
Si  9.08 -1.34 -3.38
Si -9.08  1.34  3.38
Si  8.10 -3.34 -4.38
Si -8.10  3.34  4.38
Si -9.19 -1.34 -3.38
Si  9.19  1.34  3.38
Si -0.75  4.55 -8.80
Si  0.75 -4.55  8.80
Si  0.98 -9.20 -3.65
Si -0.98  9.20  3.65
Si -9.84  1.30 -0.77
Si  9.84 -1.30  0.77
Si -3.53  2.43 -9.00
Si  3.53 -2.43  9.00
Si -0.75 -4.74 -8.80
Si  0.75  4.74  8.80
Si -5.48 -5.95 -5.92
Si  5.48  5.95  5.92
Si -8.80 -4.55 -1.50
Si  8.80  4.55  1.50
Si -9.74  2.21  1.29
Si  9.74 -2.21 -1.29
Si -8.24  4.55 -3.61
Si  8.24 -4.55  3.61
Si -8.80  4.74 -1.50
Si  8.80 -4.74  1.50
Si  0.98  9.38 -3.65
Si -0.98 -9.38  3.65
Si -8.24 -4.74 -3.61
Si  8.24  4.74  3.61
Si  7.73 -0.09 -6.65
Si -7.73  0.09  6.65
Si -2.48 -7.99 -5.90
Si  2.48  7.99  5.90
Si -4.17  6.86 -6.44
Si  4.17 -6.86  6.44
Si -7.76 -2.22 -6.44
Si  7.76  2.22  6.44
Si -4.83 -3.30 -8.52
Si  4.83  3.30  8.52
Si  6.79 -6.86 -3.85
Si -6.79  6.86  3.85
Si  5.10  7.99 -4.39
Si -5.10 -7.99  4.39
Si -2.72 -3.34 -9.54
Si  2.72  3.34  9.54
Si -8.57  1.30 -5.90
Si  8.57 -1.30  5.90
Si  1.25  5.99 -8.52
Si -1.25 -5.99  8.52
Si  4.42  7.08 -6.44
Si -4.42 -7.08  6.44
Si -0.36 -7.95 -6.92
Si  0.36  7.95  6.92
Si  5.06  2.21 -9.00
Si -5.06 -2.21  9.00
Si  8.01 -2.44 -6.44
Si -8.01  2.44  6.44
Si  3.61 -7.99 -5.90
Si -3.61  7.99  5.90
Si -9.46  4.55  1.50
Si  9.46 -4.55 -1.50
Si  3.37 -3.34 -9.54
Si -3.37  3.34  9.54
Si -9.46 -4.74  1.50
Si  9.46  4.74 -1.50
Si  6.70 -5.95 -5.92
Si -6.70  5.95  5.92
Si -10.54 -1.33  1.76
Si 10.54  1.33 -1.76
Si -2.34 -10.60  0.77
Si  2.34 10.60 -0.77
Si -1.64 10.62 -1.76
Si  1.64 -10.62  1.76
Si -5.67  9.19 -1.54
Si  5.67 -9.19  1.54
Si -7.40 -4.55 -6.68
Si  7.40  4.55  6.68
Si  8.10  5.95 -4.38
Si -8.10 -5.95  4.38
Si -7.40  4.74 -6.68
Si  7.40 -4.74  6.68
Si -5.67 -9.39 -1.54
Si  5.67  9.39  1.54
Si -5.11 -9.20 -3.65
Si  5.11  9.20  3.65
Si -8.52  7.08 -1.29
Si  8.52 -7.08  1.29
Si -1.12  1.30 -11.06
Si  1.12 -1.30 11.06
Si -5.81 -1.30 -9.53
Si  5.81  1.30  9.53
Si -7.73 -7.96 -1.76
Si  7.73  7.96  1.76
Si  5.33  4.55 -8.80
Si -5.33 -4.55  8.80
Si -3.75 10.60 -0.77
Si  3.75 -10.60  0.77
Si -7.88 -7.08 -3.85
Si  7.88  7.08  3.85
Si -5.11  9.38 -3.65
Si  5.11 -9.38  3.65
Si 10.38  2.22 -3.85
Si -10.38 -2.22  3.85
Si  5.33 -4.74 -8.80
Si -5.33  4.74  8.80
Si -6.51 -9.19  1.54
Si  6.51  9.19 -1.54
Si  9.70  1.30 -5.90
Si -9.70 -1.30  5.90
Si -10.81  3.30 -1.77
Si 10.81 -3.30  1.77
Si  1.64  9.20 -6.65
Si -1.64 -9.20  6.65
Si -4.83  5.99 -8.52
Si  4.83 -5.99  8.52
Si -1.03 -7.08 -9.00
Si  1.03  7.08  9.00
Si -0.98 -10.59 -4.39
Si  0.98 10.59  4.39
Si -6.51  9.39  1.54
Si  6.51 -9.39 -1.54
Si  6.37 -1.30 -9.53
Si -6.37  1.30  9.53
Si -7.07  7.99 -4.39
Si  7.07 -7.99  4.39
Si  2.99 -10.63 -3.38
Si -2.99 10.63  3.38
Si -10.16 -3.34 -4.38
Si 10.16  3.34  4.38
Si -2.72  5.95 -9.54
Si  2.72 -5.95  9.54
Si -3.10 -10.63 -3.38
Si  3.10 10.63  3.38
Si 10.02  4.55 -3.61
Si -10.02 -4.55  3.61
Si  2.56 -6.86 -9.00
Si -2.56  6.86  9.00
Si  1.64 -9.38 -6.65
Si -1.64  9.38  6.65
Si -8.43  7.99  0.77
Si  8.43 -7.99 -0.77
Si  4.45 10.62 -1.76
Si -4.45 -10.62  1.76
Si 10.02 -4.74 -3.61
Si -10.02  4.74  3.61
Si  8.81  3.32 -6.91
Si -8.81 -3.32  6.91
Si -7.12  2.21 -9.00
Si  7.12 -2.21  9.00
Si  1.88  3.34 -11.05
Si -1.88 -3.34 11.05
Si -7.92 -1.33 -8.53
Si  7.92  1.33  8.53
Si  7.34 -3.30 -8.52
Si -7.34  3.30  8.52
Si  3.37  5.95 -9.54
Si -3.37 -5.95  9.54
Si -11.20  0.09 -3.65
Si 11.20 -0.09  3.65
Si  0.06 -11.72 -1.29
Si -0.06 11.72  1.29
Si  0.19 -2.21 -11.59
Si -0.19  2.21 11.59
Si -1.83  7.96 -8.53
Si  1.83 -7.96  8.53
Si -2.43 -11.50 -1.29
Si  2.43 11.50  1.29
Si -3.53 -6.86 -9.00
Si  3.53  6.86  9.00
Si -11.76 -0.10 -1.54
Si 11.76  0.10  1.54
Si -11.43 -3.34  0.75
Si 11.43  3.34 -0.75
Si  5.72 -7.95 -6.92
Si -5.72  7.95  6.92
Si -6.84  4.55 -8.80
Si  6.84 -4.55  8.80
Si  8.29  0.10 -8.76
Si -8.29 -0.10  8.76
Si 11.19 -1.30 -4.39
Si -11.19  1.30  4.39
Si -6.84 -4.74 -8.80
Si  6.84  4.74  8.80
Si -9.74 -7.08  1.29
Si  9.74  7.08 -1.29
Si  3.65 -11.50 -1.29
Si -3.65 11.50  1.29
Si  2.68 -2.43 -11.59
Si -2.68  2.43 11.59
Si  7.07 -9.20 -3.65
Si -7.07  9.20  3.65
Si  0.98  1.33 -12.06
Si -0.98 -1.33 12.06
Si -9.46  3.32 -6.91
Si  9.46 -3.32  6.91
Si -4.45  9.20 -6.65
Si  4.45 -9.20  6.65
Si  4.96  1.30 -11.06
Si -4.96 -1.30 11.06
Si  3.04 -0.10 -11.83
Si -3.04  0.10 11.83
Si -3.05 -0.10 -11.83
Si  3.05  0.10 11.83
Si -1.79 11.51 -3.85
Si  1.79 -11.51  3.85
Si -4.21  3.34 -11.05
Si  4.21 -3.34 11.05
Si  7.07  9.38 -3.65
Si -7.07 -9.38  3.65
Si -7.76  7.08 -6.44
Si  7.76 -7.08  6.44
Si -3.40 -2.43 -11.59
Si  3.40  2.43 11.59
Si -4.45 -9.38 -6.65
Si  4.45  9.38  6.65
Si -11.48  2.44 -3.85
Si 11.48 -2.44  3.85
Si -10.26 -2.44 -6.44
Si 10.26  2.44  6.44
Si  8.01  6.86 -6.44
Si -8.01 -6.86  6.44
Si -6.45 -7.95 -6.92
Si  6.45  7.95  6.92
Si  0.70 11.73 -3.85
Si -0.70 -11.73  3.85
Si -2.48 10.59 -5.90
Si  2.48 -10.59  5.90
Si  4.26  7.96 -8.53
Si -4.26 -7.96  8.53
Si -12.12 -2.43 -1.29
Si 12.12  2.43  1.29
Si  0.28  7.99 -9.53
Si -0.28 -7.99  9.53
Si -10.53 -0.09 -6.65
Si 10.53  0.09  6.65
Si -10.81 -5.99 -1.77
Si 10.81  5.99  1.77
Si  5.06 -7.08 -9.00
Si -5.06  7.08  9.00
Si 10.51 -2.22 -6.44
Si -10.51  2.22  6.44
Si  9.08  7.95 -3.38
Si -9.08 -7.95  3.38
Si -12.24  2.43  1.29
Si 12.24 -2.43 -1.29
Si  5.10 -10.59 -4.39
Si -5.10 10.59  4.39
Si -10.16  5.95 -4.38
Si 10.16 -5.95  4.38
Si -9.19  7.95 -3.38
Si  9.19 -7.95  3.38
Si -0.09 -4.55 -11.79
Si  0.09  4.55 11.79
Si  3.61 10.59 -5.90
Si -3.61 -10.59  5.90
Si -0.75 12.63 -0.75
Si  0.75 -12.63  0.75
Si -2.10  3.30 -12.06
Si  2.10 -3.30 12.06
Si  1.88 -5.95 -11.05
Si -1.88  5.95 11.05
Si  8.81 -5.97 -6.91
Si -8.81  5.97  6.91
Si -0.36 10.63 -6.92
Si  0.36 -10.63  6.92
Si -12.60  0.10  1.54
Si 12.60 -0.10 -1.54
Si -9.84 -7.99 -0.77
Si  9.84  7.99  0.77
Si -0.09  4.74 -11.79
Si  0.09 -4.74 11.79
Si  8.65  2.43 -9.00
Si -8.65 -2.43  9.00
Si  7.34  5.99 -8.52
Si -7.34 -5.99  8.52
Si  1.37 12.59 -1.77
Si -1.37 -12.59  1.77
Si  4.29 11.51 -3.85
Si -4.29 -11.51  3.85
