500
set: 260.00  0.00  0.00
Si  0.02 -0.01  0.01
Si  0.01  0.01 -2.19
Si  1.78  1.06  0.74
Si -1.83  1.00  0.74
Si -0.04 -2.10  0.72
Si  0.01 -2.08  2.92
Si  1.79 -3.12  0.01
Si  1.78  3.12 -0.02
Si -1.80 -1.05 -2.94
Si -1.76  3.15  0.01
Si  1.82  1.01  2.95
Si  3.62  0.05 -0.00
Si  1.79 -1.05 -2.96
Si  0.04  2.06 -2.98
Si -3.63 -0.01 -0.01
Si -1.84  1.07  2.94
Si -1.81 -3.16 -0.01
Si  3.59 -0.03 -2.19
Si  1.81 -1.04  3.65
Si  0.04  4.15  0.71
Si -1.80 -3.11 -2.20
Si  0.01  2.09  3.67
Si -1.83  3.11 -2.19
Si -3.60  0.03 -2.21
Si -3.59 -2.10  0.77
Si -1.79 -1.04  3.69
Si  1.82  3.13 -2.21
Si  3.65 -2.07  0.74
Si  1.83 -3.15 -2.23
Si -0.01 -4.14 -2.95
Si  3.62  2.08 -2.95
Si -0.03  4.17  2.96
Si  3.60 -2.09  2.99
Si -3.62 -2.11  2.98
Si -3.64  2.08 -2.97
Si  3.59  4.15  0.72
Si -3.60  4.16  0.77
Si -5.39  1.07  0.74
Si -0.04 -4.19  3.64
Si  1.80 -1.04 -5.15
Si  3.63  2.07  3.67
Si -3.62  2.09  3.70
Si -1.79 -1.06 -5.18
Si  1.82 -5.23  0.77
Si -1.83 -5.24  0.72
Si  5.45  1.07  0.74
Si -0.04  2.07 -5.21
Si -5.38 -1.02 -2.94
Si -1.82 -5.20  2.92
Si -0.01 -6.24 -0.01
Si  3.60 -4.17 -2.93
Si -5.41 -3.11  0.01
Si  1.80  1.06 -5.88
Si  3.60  4.19  2.92
Si -3.59 -4.18 -2.95
Si  1.80 -5.20  2.97
Si  0.00 -2.09 -5.90
Si  5.43 -3.11  0.01
Si -1.82  5.22 -2.93
Si -5.42  1.04  2.96
Si  1.83  5.21 -2.95
Si  5.42  1.04  2.96
Si  5.41  3.15 -0.01
Si  1.83 -1.05  5.90
Si  0.04  2.11  5.91
Si -5.43  3.15 -0.01
Si  0.01  6.28  0.01
Si -3.62  4.19  2.97
Si -1.82 -1.04  5.92
Si  5.46 -1.02 -2.94
Si -1.82  1.06 -5.93
Si  1.76  5.19  3.66
Si -0.03 -6.22 -2.23
Si -5.39 -3.12 -2.20
Si  0.03 -4.18 -5.13
Si  3.61  2.08 -5.16
Si -5.39 -1.05  3.72
Si  5.39  3.17 -2.23
Si -1.81  5.21  3.69
Si  3.61 -4.18  3.69
Si  0.03  0.01  6.65
Si  5.45 -3.12 -2.20
Si  0.03  6.27 -2.20
Si -3.66 -4.20  3.66
Si -3.66  2.06 -5.19
Si  5.45 -1.05  3.72
Si -5.45  3.17 -2.23
Si  3.61  6.22 -0.01
Si  3.58 -2.06 -5.91
Si  7.21 -0.01 -0.01
Si  0.04 -4.19  5.87
Si -3.63  2.08  5.89
Si -7.22  0.05 -0.00
Si -3.60 -2.12 -5.90
Si  3.66 -6.24  0.01
Si  3.62  2.07  5.91
Si -3.64 -6.26 -0.02
Si -3.63  6.27  0.01
Si  0.01  4.18 -5.93
Si -7.19 -2.07  0.74
Si -3.59 -0.02  6.62
Si -3.59  6.24 -2.23
Si -5.38 -5.24  0.71
Si -3.60 -6.25 -2.21
Si  1.83  7.29  0.77
Si  3.59 -6.27 -2.19
Si -1.79  5.22 -5.16
Si  3.63 -4.17 -5.16
Si -5.41 -1.04 -5.18
Si  1.82 -3.13  6.64
Si  7.24  0.03 -2.21
Si -1.77  7.32  0.74
Si  3.62  6.27 -2.20
Si -1.83  3.10  6.67
Si  3.62  0.02  6.65
Si -7.25 -0.03 -2.19
Si  5.43 -1.04 -5.18
Si  1.82  3.16  6.64
Si -3.61 -4.17 -5.20
Si  7.25 -2.10  0.77
Si -1.83 -3.15  6.66
Si  1.81  5.22 -5.20
Si  5.46 -5.24  0.71
Si  3.60  4.17 -5.86
Si  5.39  1.04 -5.89
Si -3.62  4.15 -5.88
Si -1.82 -5.22 -5.86
Si  1.78  5.21  5.88
Si  7.20  2.08 -2.97
Si  5.39 -5.22  2.96
Si  1.80  7.28  2.98
Si -7.22  2.08 -2.95
Si  5.42 -1.01  5.90
Si  1.80 -5.24 -5.88
Si -1.80  5.21  5.90
Si -5.42 -1.01  5.90
Si -3.64 -4.17  5.88
Si  1.78 -7.30 -2.97
Si -1.80 -7.31 -2.95
Si  7.22 -2.11  2.98
Si  3.62 -4.18  5.90
Si -5.45  1.04 -5.89
Si -1.82  7.30  2.99
Si  5.42  5.25 -2.95
Si -7.24 -2.09  2.99
Si -5.42  5.25 -2.95
Si -5.45 -5.22  2.96
Si  5.38  5.20  3.64
Si  1.82  1.03 -8.09
Si  0.03 -8.32  0.74
Si -7.21  2.07  3.67
Si  0.03 -2.06 -8.11
Si -5.46  5.20  3.64
Si -1.79 -7.32  3.67
Si  7.22  2.09  3.70
Si -7.25  4.15  0.72
Si  1.80 -7.30  3.70
Si  7.24  4.16  0.77
Si -1.83  1.02 -8.13
Si  0.00 -8.35  2.96
Si -7.24 -4.17 -2.93
Si  7.22  4.19  2.97
Si -7.24  4.19  2.92
Si  0.01  0.02  8.86
Si -0.01  0.02 -8.86
Si  7.25 -4.18 -2.95
Si  0.04  8.37 -2.94
Si  5.39 -3.09  6.62
Si  5.38  7.29  0.72
Si -5.39  5.21 -5.13
Si  7.18 -4.20  3.66
Si  9.01  1.00  0.74
Si  7.18  2.06 -5.19
Si -3.64 -8.32  0.74
Si  5.45  5.21 -5.13
Si -5.45 -3.09  6.62
Si  3.59 -2.12 -8.11
Si -7.23  2.08 -5.16
Si -1.81 -7.30 -5.16
Si -3.64 -2.06 -8.11
Si  0.03  8.34  3.72
Si -7.23 -4.18  3.69
Si -0.04  4.16 -8.13
Si  0.01 -6.25  6.66
Si -5.46  7.29  0.72
Si -5.41  3.14  6.66
Si -0.03  6.30  6.62
Si  5.43  3.14  6.66
Si  3.59 -8.38  0.74
Si  1.76 -7.33 -5.19
Si -9.06  1.06  0.74
Si -1.80 -9.34 -0.00
Si -5.38  5.19  5.87
Si -7.18 -6.24  0.01
Si  3.58 -8.32  2.94
Si  9.00  1.07  2.94
Si  1.82  7.26 -5.90
Si -7.23  6.22 -0.01
Si  7.21  2.08  5.89
Si -9.02  1.01  2.95
Si  1.78 -3.13  8.84
Si -1.80 -3.08 -8.85
Si  1.79  3.12  8.84
Si  7.20 -6.26 -0.02
Si -5.41  7.31  2.92
Si  1.79  9.38 -0.01
Si  3.61 -0.03  8.84
Si  1.79 -7.31  5.89
Si  3.62  8.33 -2.94
Si  1.79  3.14 -8.84
Si  5.46  5.19  5.87
Si -7.22  2.07  5.91
Si  7.21  6.27  0.01
Si -1.76 -3.11  8.86
Si -1.81  3.10 -8.86
Si  5.43  7.31  2.92
Si -5.38 -7.32 -2.98
Si  3.66  0.02 -8.84
Si -3.63  8.34 -2.96
Si  1.79 -9.40 -0.01
Si  9.04 -1.05 -2.94
Si -5.41 -5.21 -5.93
Si -9.05 -3.12  0.01
Si  1.79 -3.14 -8.86
Si  9.03 -3.16 -0.01
Si -1.80 -7.31  5.91
Si -1.80  3.18  8.85
Si -3.63  0.01  8.86
Si -9.05 -1.05 -2.96
Si -7.26 -2.06 -5.91
Si -9.06  3.12 -0.02
Si  7.24 -2.12 -5.90
Si  5.43 -5.21 -5.93
Si -3.64 -0.00 -8.87
Si -3.60 -8.38  2.95
Si -1.84  7.33 -5.91
Si  5.46 -7.32 -2.98
Si  9.08  3.15  0.01
Si -1.80  9.44 -0.00
Si -3.59  4.16 -8.09
Si -1.83  9.36 -2.19
Si  9.01  3.11 -2.19
Si  1.82 -9.36 -2.21
Si -1.77 -5.20 -8.11
Si -3.60 -6.23  6.64
Si -9.03 -1.04  3.65
Si  0.04 -2.11  9.57
Si -7.21 -4.17 -5.16
Si -3.61  8.35  3.65
Si -9.02  3.13 -2.21
Si -5.41 -7.30  3.67
Si  1.83 -5.23 -8.09
Si -9.02 -3.15 -2.23
Si -5.38  1.02 -8.14
Si  3.59  6.24  6.66
Si  5.43 -7.30  3.67
Si -7.22  6.27 -2.20
Si -3.60  6.26  6.64
Si  9.04 -3.11 -2.20
Si -7.22  0.02  6.65
Si -1.77  1.06  9.60
Si  7.25 -0.02  6.62
Si  7.25  6.24 -2.23
Si  7.24 -6.25 -2.21
Si  0.01  8.35 -5.18
Si  3.63  8.35  3.69
Si  9.05 -1.04  3.69
Si  3.65  4.19 -8.11
Si -7.25 -6.27 -2.19
Si  7.23 -4.17 -5.20
Si  3.59 -6.29  6.67
Si  1.83  1.03  9.62
Si -1.83 -9.42 -2.19
Si  1.82  9.42 -2.21
Si  5.46  1.02 -8.14
Si  7.20 -4.17  5.88
Si  7.22  4.15 -5.88
Si -7.24  4.17 -5.86
Si -0.03 -8.35 -5.89
Si -7.22 -4.18  5.90
Si -0.01  8.38  5.90
Si  3.59 -2.11  9.57
Si -3.62  8.35 -5.15
Si  9.01 -5.24  0.72
Si -9.02 -5.23  0.77
Si -9.04 -1.04 -5.15
Si  3.63  8.33 -5.18
Si  5.38 -7.32 -5.21
Si  0.03  4.20  9.59
Si  9.05 -1.06 -5.18
Si -3.60 -2.10  9.62
Si  0.03 10.46  0.74
Si -5.46 -7.32 -5.21
Si -5.38 -7.28  5.91
Si  9.02 -5.20  2.92
Si  0.04 -10.41 -2.94
Si  0.01 -6.24 -8.84
Si -9.01  5.21 -2.95
Si  5.41 -3.11  8.84
Si  9.02  5.22 -2.93
Si -3.62 -8.33 -5.88
Si -5.40 -3.13 -8.84
Si -10.82 -0.01  0.01
Si -9.01 -1.05  5.90
Si  0.02  6.25 -8.84
Si -5.40  9.38  0.01
Si -5.43 -3.11  8.84
Si -3.59  8.34  5.90
Si -5.41  3.15 -8.84
Si -5.42  7.30 -5.90
Si  9.02 -1.04  5.92
Si -5.40 -9.39  0.01
Si -9.04  1.06 -5.88
Si  5.42  7.30 -5.90
Si  5.44 -3.13 -8.84
Si  3.60 -8.32 -5.93
Si  0.00 10.43  2.96
Si -5.40  3.12  8.86
Si  5.43  3.15 -8.84
Si -9.04 -5.20  2.97
Si  5.44  9.38  0.01
Si -0.01  6.28  8.84
Si  3.60  8.35  5.92
Si  5.46 -7.28  5.91
Si  9.02  1.06 -5.93
Si  5.44 -9.39  0.01
Si  0.02 -6.26  8.86
Si 10.86 -0.01  0.01
Si  5.44  3.12  8.86
Si  3.59 10.39  0.74
Si 10.80 -2.10  0.72
Si  5.38  1.03  9.57
Si  7.20 -8.32  0.74
Si  7.20 -2.06 -8.11
Si -1.83  7.26 -8.11
Si  3.59  4.13  9.59
Si -5.41 -9.38 -2.19
Si -10.83  0.01 -2.19
Si  1.78 -5.19  9.59
Si  5.43 -9.38 -2.19
Si  9.03  5.21  3.69
Si -5.41  9.40 -2.19
Si  5.38 -5.23 -8.13
Si -5.46  1.03  9.57
Si 10.85  0.01 -2.19
Si  5.43  9.40 -2.19
Si  1.78  7.32 -8.11
Si -9.08  5.19  3.66
Si -0.03  0.04 -11.08
Si  0.03 -10.44  3.72
Si -3.64  4.19  9.59
Si -7.25 -2.12 -8.11
Si -1.83 -5.25  9.59
Si -3.64 10.45  0.74
Si -5.46 -5.23 -8.13
Si -10.88 -2.10  0.72
Si -7.25 -8.38  0.74
Si -3.60 10.39  2.95
Si -7.18  0.02 -8.84
Si -10.80  2.06 -2.98
Si  3.62 -6.21  8.85
Si -10.83 -2.08  2.92
Si -7.22  8.33 -2.94
Si -3.63 -6.25 -8.84
Si  7.21  8.34 -2.96
Si -7.23 -0.03  8.84
Si -3.64  6.25  8.84
Si -7.26 -8.32  2.94
Si  7.20 -0.00 -8.87
Si  7.21  0.01  8.86
Si -3.63 -6.27  8.84
Si 10.85 -2.08  2.92
Si -3.63  6.25 -8.86
Si -3.63 -10.44 -2.96
Si  3.62 -10.44 -2.94
Si  3.58 10.46  2.94
Si  3.61 -6.29 -8.86
Si  3.62  6.31 -8.85
Si  3.66  6.28  8.86
Si  7.24 -8.38  2.95
Si 10.88  2.06 -2.98
Si -10.80  4.15  0.71
Si  3.59 -0.02 -11.04
Si -1.77 -11.46  0.74
Si -9.01  7.29  0.77
Si -7.19  4.19 -8.11
Si  1.83  9.37  6.62
Si -3.61 -10.43  3.65
Si -10.83  2.09  3.67
Si  9.01  3.10  6.67
Si  7.25  4.16 -8.09
Si -1.83 -3.16 -11.04
Si -1.80  3.15 -11.05
Si  1.82 -3.10 -11.06
Si -9.02 -3.13  6.64
Si -3.60  0.00 -11.06
Si  7.24 -6.23  6.64
Si  7.23  8.35  3.65
Si -1.80 -9.37  6.65
Si  9.01 -3.15  6.66
Si -7.21  8.35  3.69
Si  3.63 -10.42  3.69
Si -9.02  3.16  6.64
Si 10.85  2.09  3.67
Si  0.01 -10.43 -5.18
Si  1.83 -9.40  6.62
Si  9.05  5.22 -5.16
Si  7.24  6.26  6.64
Si  1.83  3.11 -11.08
Si -9.03  5.22 -5.20
Si -7.25  6.24  6.66
Si -1.80  9.40  6.65
Si  1.83 -11.49  0.77
Si 10.88  4.15  0.71
Si  0.04 -8.37 -8.14
Si  9.07  7.32  0.74
Si -7.25 -6.29  6.67
Si -0.01 -10.40  5.90
Si 10.81  4.17  2.96
Si  9.02 -5.22 -5.86
Si 10.84 -4.14 -2.95
Si -0.03 10.43 -5.89
Si -1.80 11.47 -2.95
Si -10.85 -4.14 -2.95
Si -1.80 -1.05 -11.80
Si -9.04  7.28  2.98
Si  1.78 11.47 -2.97
Si -9.04 -5.24 -5.88
Si  9.02  7.30  2.99
Si  9.04  5.21  5.90
Si -0.01  2.12 -11.80
Si  9.04 -7.31 -2.95
Si -9.06  5.21  5.88
Si  1.78 -1.04 -11.82
Si -1.82 -11.48  2.99
Si -0.03 -2.09 11.81
Si  1.80  1.02 11.83
Si -9.06 -7.30 -2.97
Si  1.80 -11.49  2.98
Si -10.87  4.17  2.96
Si -1.82  1.04 11.84
Si 10.80 -4.19  3.64
Si -9.02  1.03 -8.09
Si -1.83  7.28  9.57
Si 10.80  2.07 -5.21
Si -1.79 11.46  3.67
Si -5.39 -5.19  9.59
Si -3.60 -8.36 -8.09
Si -7.21  8.33 -5.18
Si  7.22  8.35 -5.15
Si  9.01  1.02 -8.13
Si -3.62 -10.43 -5.15
Si -5.39  7.33 -8.11
Si -7.25 -2.11  9.57
Si  1.80 11.47  3.70
Si  5.45 -5.19  9.59
Si -9.04 -7.30  3.70
Si  9.05 -7.32  3.67
Si  1.82  7.29  9.62
Si  5.45  7.33 -8.11
Si  3.63 -10.45 -5.18
Si  3.59 -8.37 -8.13
Si -10.88 -4.19  3.64
Si  7.24 -2.10  9.62
Si -10.88  2.07 -5.21
Si  3.60 -2.07 11.77
Si -10.80  2.11  5.91
Si  3.60  2.09 -11.78
Si  7.22 -8.33 -5.88
Si  0.01 -12.50  0.01
Si 10.83 -6.24 -0.01
Si  0.04 -4.15 -11.79
Si -3.59  2.08 -11.80
Si -10.85 -6.24 -0.01
Si -10.84 -2.09 -5.90
Si -3.59 -10.44  5.90
Si 10.84 -2.09 -5.90
Si  3.60 -10.43  5.92
Si -10.83  6.28  0.01
Si  0.00  4.17 11.81
Si -3.62 10.45 -5.88
Si  7.25  8.34  5.90
Si -7.24 -8.32 -5.93
Si -3.62 -2.07 11.82
Si 10.85  6.28  0.01
Si -7.24  8.35  5.92
Si -0.01 12.54 -0.01
Si  3.60 10.45 -5.93
Si 10.88  2.11  5.91
Si 10.81 -6.22 -2.23
Si -10.82 -4.18 -5.13
Si  1.76 -1.07 12.51
Si 12.62  1.06  0.74
Si -5.41 -3.12 -11.04
Si  1.76 11.45 -5.19
Si  5.43 -3.12 -11.04
Si -7.25 10.39  0.74
Si -5.39 -9.37  6.65
Si -10.81  0.01  6.65
Si  0.01  6.27 -11.04
