500
set: 198.00  0.00  0.00
Si  0.04 -0.03 -0.02
Si  1.88  1.04  0.77
Si -0.03  0.01 -2.29
Si -1.88  1.07  0.79
Si  0.02 -2.19  0.79
Si  1.86 -1.07 -3.01
Si  1.86  3.23  0.02
Si -0.00 -2.17  3.03
Si  1.88  1.10  3.05
Si -0.01  2.17 -3.06
Si -1.89 -3.24 -0.01
Si  3.75  0.02  0.02
Si -1.88  3.25  0.04
Si -3.77 -0.01 -0.05
Si -1.88  1.10  3.08
Si  1.91 -3.25 -0.02
Si -1.88 -1.12 -3.11
Si  1.86 -1.09  3.80
Si -3.72 -0.03 -2.30
Si  1.83  3.25 -2.31
Si -1.88  3.26 -2.26
Si  3.76 -0.00 -2.28
Si -3.75 -2.18  0.77
Si  3.76 -2.16  0.77
Si -1.88 -1.05  3.84
Si  1.86 -3.25 -2.33
Si -1.88 -3.26 -2.30
Si -0.01  2.19  3.83
Si  0.00  4.36  0.74
Si -3.73  2.18 -3.07
Si -3.77 -2.15  3.05
Si  0.01  4.33  3.09
Si -0.01 -4.35 -3.07
Si  3.76  2.18 -3.10
Si  3.78 -2.18  3.10
Si -1.83 -5.40  0.73
Si  1.86 -5.39  0.76
Si -5.61  1.05  0.78
Si -0.02 -4.34  3.81
Si  1.88 -1.10 -5.35
Si  3.78  2.17  3.80
Si -3.76  2.15  3.85
Si  5.65  1.05  0.78
Si -0.02  2.16 -5.39
Si -1.85 -1.08 -5.40
Si -3.77  4.36  0.76
Si  3.80  4.36  0.73
Si  1.90 -1.09  6.10
Si -5.61 -3.25 -0.00
Si  5.63  3.23  0.04
Si -1.90  5.40 -3.06
Si -1.86  1.10 -6.12
Si -3.75  4.32  3.06
Si -1.86 -5.40  3.08
Si -5.63 -1.06 -3.06
Si  0.01 -2.15 -6.13
Si -5.64  3.23  0.04
Si -5.62  1.10  3.07
Si  3.74 -4.35 -3.06
Si  5.64 -1.06 -3.06
Si  0.02  6.50 -0.00
Si  1.88  1.07 -6.14
Si  1.88 -5.43  3.06
Si  1.90  5.41 -3.10
Si -3.74 -4.35 -3.10
Si  0.01  2.19  6.14
Si  5.64  1.10  3.07
Si -1.90 -1.10  6.14
Si  5.65 -3.25 -0.00
Si -0.01 -6.53  0.04
Si  3.77  4.35  3.08
Si -0.01 -6.47 -2.24
Si -0.00 -0.01  6.85
Si -0.05 -4.30 -5.35
Si  5.58 -1.05  3.85
Si -1.90  5.39  3.82
Si -3.76  2.18 -5.33
Si  3.73  2.14 -5.38
Si  5.62  3.29 -2.24
Si  3.73 -4.36  3.82
Si -0.00  6.49 -2.35
Si -5.64  3.29 -2.24
Si -3.76 -4.33  3.87
Si  5.63 -3.26 -2.35
Si -5.63 -3.26 -2.35
Si  1.87  5.43  3.87
Si -5.68 -1.05  3.85
Si  3.75  2.13  6.09
Si -3.72  6.50 -0.02
Si  3.75 -2.15 -6.12
Si  7.49 -0.01 -0.05
Si  3.75 -6.50  0.04
Si -7.51  0.02  0.02
Si -0.01 -4.33  6.13
Si  3.74  6.51 -0.01
Si -3.75 -2.15 -6.15
Si -0.00  4.33 -6.17
Si -3.77 -6.52  0.02
Si -3.77  2.18  6.18
Si  3.75 -4.30 -5.36
Si  3.75 -6.49 -2.26
Si -5.63 -5.39  0.74
Si  1.83 -3.25  6.89
Si  5.64 -5.39  0.74
Si -7.50 -0.00 -2.28
Si -3.77  0.00  6.87
Si -7.50 -2.16  0.77
Si  3.75  6.49 -2.30
Si  1.89  7.58  0.77
Si  5.63 -1.06 -5.37
Si  3.75 -0.01  6.89
Si  1.91  3.23  6.90
Si -5.64 -1.06 -5.37
Si -1.87  7.59  0.77
Si  7.52 -2.18  0.77
Si  1.86  5.42 -5.39
Si -1.88  5.45 -5.36
Si -1.87  3.25  6.92
Si -3.77  6.51 -2.33
Si -3.80 -6.50 -2.31
Si  7.54 -0.03 -2.30
Si -1.88 -3.24  6.94
Si -3.77 -4.34 -5.39
Si  3.76 -4.33  6.10
Si  7.49 -2.15  3.05
Si -1.85 -5.43 -6.10
Si -5.62  1.08 -6.11
Si -3.73 -4.32  6.13
Si -1.87  5.43  6.10
Si  3.78  4.33 -6.10
Si  5.62  5.40 -3.07
Si  5.64  1.08 -6.11
Si  5.62 -1.10  6.12
Si -7.48 -2.18  3.10
Si  1.86 -5.40 -6.14
Si  1.91 -7.57 -3.07
Si -1.85  7.58  3.10
Si -5.64  5.40 -3.07
Si -1.87 -7.58 -3.10
Si -5.64 -1.10  6.12
Si  1.86  7.60  3.05
Si -5.62 -5.42  3.09
Si -7.50  2.18 -3.10
Si  1.91  5.43  6.13
Si  5.64 -5.42  3.09
Si -3.77  4.35 -6.14
Si  7.54  2.18 -3.07
Si -7.48  2.17  3.80
Si -7.47  4.36  0.73
Si -1.85 -7.58  3.80
Si  5.62  5.41  3.81
Si -5.65  5.41  3.81
Si  7.49  4.36  0.76
Si  0.02 -2.20 -8.42
Si  7.51  2.15  3.85
Si  1.86  1.11 -8.44
Si  1.88 -7.60  3.85
Si -1.83  1.10 -8.46
Si  0.02 -8.70  0.78
Si -0.01 -0.03 -9.16
Si  0.01 -8.65  3.07
Si  7.51  4.32  3.06
Si  0.02  0.00  9.19
Si -7.49  4.35  3.08
Si  0.01  8.69 -3.06
Si -7.53 -4.35 -3.06
Si  7.53 -4.35 -3.10
Si  0.02  4.31 -8.41
Si -5.61  7.57  0.79
Si  1.87 -7.58 -5.33
Si  5.58  5.45 -5.35
Si  7.51  2.18 -5.33
Si  3.76 -2.18 -8.41
Si -9.38  1.04  0.77
Si  5.60  3.26  6.91
Si  5.65  7.57  0.79
Si  9.39  1.07  0.79
Si -0.03 -6.50  6.91
Si  7.51 -4.33  3.87
Si -3.75 -2.21 -8.43
Si  3.76 -8.68  0.79
Si -7.54  2.14 -5.38
Si  5.62 -3.22  6.95
Si -5.66  3.26  6.91
Si -7.54 -4.36  3.82
Si -5.64 -3.22  6.95
Si -5.68  5.45 -5.35
Si -0.05  8.70  3.85
Si -1.90 -7.62 -5.38
Si -3.75 -8.71  0.77
Si -0.01  6.54  6.95
Si  1.86  3.24  9.15
Si  3.75  0.00 -9.16
Si -9.35 -3.25 -0.02
Si -3.72 -0.00  9.18
Si -7.51  2.13  6.09
Si -1.88 -3.23 -9.18
Si -1.88 -9.73  0.02
Si  3.75  8.63 -3.11
Si -3.75 -8.65  3.05
Si  9.37 -3.24 -0.01
Si  1.86  9.74 -0.05
Si  5.63  7.58  3.03
Si  3.74  0.01  9.19
Si -3.77 -0.02 -9.17
Si -5.63  7.58  3.03
Si  3.75 -8.65  3.08
Si -7.51 -2.15 -6.12
Si  5.62 -7.58 -3.06
Si -9.38  1.10  3.05
Si  9.38  3.25  0.04
Si -9.40 -1.07 -3.01
Si  5.62  5.42  6.13
Si  7.49 -6.52  0.02
Si -3.77  8.68 -3.01
Si  9.38  1.10  3.08
Si -7.52 -6.50  0.04
Si -1.88  7.60 -6.12
Si -1.88 -7.62  6.09
Si -5.64 -7.58 -3.06
Si  7.51 -2.15 -6.15
Si  1.86 -9.77 -0.05
Si -5.64  5.42  6.13
Si -9.40  3.23  0.02
Si -1.89  3.26 -9.20
Si  9.38 -1.12 -3.11
Si  1.86 -7.57  6.18
Si -7.52  6.51 -0.01
Si  5.63 -5.42 -6.17
Si  1.86 -3.27  9.22
Si  1.88  7.60 -6.15
Si  1.91  3.25 -9.21
Si -1.88  9.78  0.02
Si -1.88  3.27  9.21
Si  7.50  2.18  6.18
Si  7.54  6.50 -0.02
Si -5.63 -5.42 -6.17
Si -1.88 -3.25  9.24
Si  1.86 -3.27 -9.24
Si  7.49  0.00  6.87
Si  0.00 -2.14  9.94
Si  7.47 -6.50 -2.31
Si  5.63 -7.56  3.83
Si  1.91  9.73 -2.30
Si -5.64 -7.56  3.83
Si -7.51 -6.49 -2.26
Si -7.51 -4.30 -5.36
Si -3.77  8.67  3.80
Si -3.75  4.33 -8.43
Si -1.87  9.75 -2.28
Si -1.87 -9.75 -2.28
Si -7.51  6.49 -2.30
Si  9.38  3.26 -2.26
Si -1.87 -5.41 -8.43
Si  7.49  6.51 -2.33
Si  9.38 -1.05  3.84
Si -7.51 -0.01  6.89
Si -1.87  1.09  9.96
Si  1.89  1.07  9.96
Si  7.49 -4.34 -5.39
Si  9.39 -3.26 -2.30
Si  1.89 -5.43 -8.43
Si -3.72 -6.53  6.90
Si -9.40 -1.09  3.80
Si  3.76  4.34 -8.43
Si -3.80  6.50  6.89
Si  3.76 -6.50  6.92
Si -9.40 -3.25 -2.33
Si -5.63  1.11 -8.46
Si -0.01  8.70 -5.37
Si  5.64  1.11 -8.46
Si  3.75  8.70  3.84
Si  1.91 -9.78 -2.30
Si  3.75  6.51  6.94
Si -9.43  3.25 -2.31
Si -7.48  4.33 -6.10
Si -7.50 -4.33  6.10
Si -0.01  8.65  6.12
Si  0.01 -8.67 -6.11
Si  7.49  4.35 -6.14
Si  7.54 -4.32  6.13
Si  0.02 10.80  0.78
Si -3.76  8.66 -5.35
Si  3.80 -2.15  9.93
Si -9.39 -1.10 -5.35
Si -3.77 -2.14  9.96
Si  0.02  4.30  9.97
Si -9.40 -5.39  0.76
Si  5.62 -7.59 -5.39
Si  9.43 -5.40  0.73
Si -5.65 -7.59 -5.39
Si  3.78  8.68 -5.40
Si  9.41 -1.08 -5.40
Si -5.59  9.72 -0.02
Si -5.59  3.22  9.18
Si -11.22 -0.03 -0.02
Si -3.74  8.66  6.10
Si -9.37 -1.09  6.10
Si  9.37  5.40 -3.06
Si  0.01 -10.82 -3.06
Si  3.74  8.65  6.14
Si  3.77 -8.65 -6.12
Si -5.63 -7.57  6.14
Si -9.37  5.41 -3.10
Si  5.67  9.72 -0.02
Si -5.61  3.25 -9.20
Si  9.37 -1.10  6.14
Si  5.64 -7.57  6.14
Si  0.04  6.47 -9.21
Si  5.67  3.22  9.18
Si -9.38  1.07 -6.14
Si -9.38 -5.43  3.06
Si  0.02 -6.50 -9.20
Si -5.62  7.60 -6.13
Si -5.59 -3.29 -9.21
Si  0.04 -6.54  9.18
Si  9.40  1.10 -6.12
Si  9.40 -5.40  3.08
Si -5.59 -9.79 -0.02
Si -3.75 -8.68 -6.14
Si  5.65  3.25 -9.20
Si -0.01  6.48  9.23
Si  5.64  7.60 -6.13
Si  0.01 10.86  3.07
Si  5.63 -3.28  9.23
Si 11.30 -0.03 -0.02
Si -5.64 -3.28  9.23
Si  5.67 -3.29 -9.21
Si  5.67 -9.79 -0.02
Si -0.01  0.04 -11.44
Si -3.75 10.79  0.77
Si  9.36  5.39  3.82
Si 11.23  0.01 -2.29
Si  1.88  7.54 -8.43
Si -1.88  7.57 -8.41
Si -0.05 -10.80  3.85
Si  5.60 -9.75 -2.29
Si -3.75  4.29  9.96
Si -5.61 -5.44 -8.41
Si -7.51 -2.18 -8.41
Si -11.24 -2.19  0.79
Si  5.60  9.76 -2.29
Si  3.76 10.82  0.79
Si  5.65 -5.44 -8.41
Si -5.66 -9.75 -2.29
Si -5.61  1.06  9.98
Si -7.51 -8.68  0.79
Si  7.51 -2.21 -8.43
Si  3.76  4.32  9.99
Si -5.66  9.76 -2.29
Si -9.39  5.43  3.87
Si  1.88 -5.46  9.96
Si -11.29  0.01 -2.29
Si -1.88 -5.43  9.99
Si 11.28 -2.19  0.79
Si  5.65  1.06  9.98
Si  7.51 -8.71  0.77
Si  7.49 -0.02 -9.17
Si -7.52  0.00 -9.16
Si -3.77 -6.52  9.15
Si -3.77 -10.82 -3.01
Si -7.51  8.63 -3.11
Si  7.51 -8.65  3.05
Si 11.25  2.17 -3.06
Si  7.50  8.68 -3.01
Si 11.26 -2.17  3.03
Si  3.74 -6.49 -9.20
Si -7.51 -8.65  3.08
Si -11.27 -2.17  3.03
Si  3.75  6.53 -9.18
Si  3.75 -6.48  9.21
Si -7.52  0.01  9.19
Si -3.72 -6.51 -9.21
Si  7.54 -0.00  9.18
Si -3.75 10.85  3.05
Si -11.28  2.17 -3.06
Si -3.77  6.48  9.22
Si  3.75 10.85  3.08
Si  3.75  6.51  9.24
Si -3.77  6.49 -9.24
Si  3.75 -10.88 -3.11
Si  3.75  0.01 -11.45
Si  7.47  6.50  6.89
Si -9.35  3.23  6.90
Si  3.75 -10.81  3.84
Si  7.49  8.67  3.80
Si -0.01 -10.81 -5.37
Si -1.87 -3.25 -11.47
Si  1.86 -9.75  6.87
Si  1.86  9.76  6.87
Si -9.38  7.58  0.77
Si -1.87 -11.91  0.77
Si -1.88  9.74  6.89
Si 11.26  2.19  3.83
Si -3.77 -10.84  3.80
Si -7.50  4.34 -8.43
Si -1.88  3.24 -11.50
Si  0.00 -8.64 -8.46
Si  7.52  4.33 -8.43
Si -11.26  4.36  0.74
Si  9.38  5.45 -5.36
Si -1.88 -9.76  6.89
Si -7.50 -6.50  6.92
Si -11.27  2.19  3.83
Si  1.91 -3.28 -11.49
Si  1.89 -11.93  0.77
Si 11.27  4.36  0.74
Si  9.39  7.59  0.77
Si  9.39  3.25  6.92
Si  9.38 -3.24  6.94
Si -3.80 -0.00 -11.51
Si  1.86  3.25 -11.52
Si -9.40  5.42 -5.39
Si -9.43 -3.25  6.89
Si -7.51  8.70  3.84
Si -7.51  6.51  6.94
Si  7.54 -6.53  6.90
Si -9.36 -7.57 -3.07
Si  1.86 -11.91  3.05
Si -9.36  5.43  6.13
Si  0.01 10.83 -6.11
Si  1.86  1.10 12.25
Si  9.39  5.43  6.10
Si 11.25 -4.35 -3.07
Si -11.26  4.33  3.09
Si -0.01  2.15 -12.27
Si  1.91 -1.07 -12.26
Si  9.39 -7.58 -3.10
Si  9.41 -5.43 -6.10
Si -0.01 -10.85  6.12
Si 11.27  4.33  3.09
Si -1.85 -11.93  3.10
Si -9.40 -5.40 -6.14
Si -11.27 -4.35 -3.07
Si -1.87 11.93 -3.10
Si  1.91 11.94 -3.07
Si -9.40  7.60  3.05
Si  9.41  7.58  3.10
Si  0.01 -2.17 12.29
Si -1.85  1.07 12.30
Si -1.87 -1.07 -12.30
Si -7.47 -2.15  9.93
Si -5.61  7.55 -8.42
Si  7.49 -2.14  9.96
Si 11.25 -4.34  3.81
Si -1.83  7.61  9.93
Si  5.65  7.55 -8.42
Si  7.51  8.66 -5.35
Si -3.77 -8.64 -8.44
Si -1.85 11.93  3.80
Si  1.88 11.91  3.85
Si 11.25  2.16 -5.39
Si  9.41 -7.58  3.80
Si -3.76 -10.85 -5.35
Si -7.48  8.68 -5.40
Si -11.28 -4.34  3.81
Si  1.86  7.61  9.96
Si -5.61 -5.45  9.97
Si -9.39 -7.60  3.85
Si  3.78 -10.83 -5.40
Si  3.80 -8.65 -8.46
Si -9.40  1.11 -8.44
Si -11.28  2.16 -5.39
Si  5.65 -5.45  9.97
Si  9.43  1.10 -8.46
Si -7.49 -8.65 -6.12
Si -0.01 12.98  0.04
Si -11.24  6.50 -0.00
Si  3.74  2.15 -12.25
Si -11.25 -2.15 -6.13
Si  0.01 -4.32 -12.26
Si  7.53  8.66  6.10
Si -3.74 -10.85  6.10
Si -3.75 10.82 -6.14
Si -3.75 -2.18 12.25
Si  0.02 -13.00 -0.00
Si -11.26  2.19  6.14
Si -7.53  8.65  6.14
Si 11.28 -2.15 -6.13
Si 11.26 -6.53  0.04
Si  0.01  4.35 12.27
Si 11.27  2.19  6.14
Si  3.77 10.85 -6.12
Si  7.51 -8.68 -6.14
Si  3.77 -2.15 12.28
Si  3.74 -10.86  6.14
Si -11.27 -6.53  0.04
Si 11.29  6.50 -0.00
Si -3.74  2.16 -12.29
Si 11.21 -4.30 -5.35
Si 11.25 -6.47 -2.24
Si  7.51 10.79  0.77
Si  5.63  9.74  6.85
Si -5.63  9.74  6.85
Si 11.26 -0.01  6.85
Si -11.26 -0.01  6.85
Si  5.60 -3.24 -11.48
Si -11.27 -6.47 -2.24
Si -9.39 -7.58 -5.33
Si  5.63 -9.77  6.85
