500
set: 551.00  0.00  0.00
Si  0.00  0.00  0.00
Si -1.80  1.06  0.75
Si -0.01 -0.10 -2.22
Si  1.84  1.06  0.75
Si  0.09 -2.16  0.75
Si -0.09  2.06 -2.97
Si  0.09 -2.06  2.97
Si -3.64  0.00  0.00
Si  3.64  0.00  0.00
Si -1.79  1.17  2.97
Si  1.79 -1.17 -2.97
Si  1.75  3.22  0.00
Si -1.75 -3.22  0.00
Si -1.84 -1.17 -2.97
Si  1.84  1.17  2.97
Si  1.89 -3.22  0.00
Si -1.89  3.22  0.00
Si  1.75  3.12 -2.22
Si -1.71 -0.99  3.72
Si -3.55 -2.16  0.75
Si  3.63 -0.10 -2.22
Si -3.64 -0.10 -2.22
Si -1.89  3.12 -2.22
Si  1.93 -0.99  3.72
Si  0.04  2.23  3.72
Si -0.05  4.28  0.75
Si -1.76 -3.32 -2.22
Si  3.72 -2.16  0.75
Si  1.88 -3.32 -2.22
Si  3.54  2.06 -2.97
Si -3.54 -2.06  2.97
Si -3.73  2.06 -2.97
Si  3.73 -2.06  2.97
Si  0.04 -4.38 -2.97
Si -0.04  4.38  2.97
Si -0.10  1.95 -5.19
Si -5.44  1.06  0.75
Si  0.18 -4.21  3.72
Si  5.47  1.06  0.75
Si -3.59  2.23  3.72
Si  3.59  4.28  0.75
Si  1.79 -1.27 -5.19
Si -1.85 -1.27 -5.19
Si -1.67 -5.38  0.75
Si  3.68  2.23  3.72
Si -3.69  4.28  0.75
Si  1.97 -5.38  0.75
Si -1.70 -0.89  5.94
Si  1.70  0.89 -5.94
Si  5.39  3.22  0.00
Si -5.39 -3.22  0.00
Si  1.66  5.28 -2.97
Si -1.66 -5.28  2.97
Si -5.43  1.17  2.97
Si  5.43 -1.17 -2.97
Si -1.94  0.89 -5.94
Si  1.94 -0.89  5.94
Si  5.48  1.17  2.97
Si -5.48 -1.17 -2.97
Si -1.98  5.28 -2.97
Si  1.98 -5.28  2.97
Si -0.05 -2.33 -5.94
Si  0.05  2.33  5.94
Si  5.52 -3.22  0.00
Si -5.52  3.22  0.00
Si -3.59 -4.38 -2.97
Si  3.59  4.38  2.97
Si  0.14 -6.44  0.00
Si -0.14  6.44  0.00
Si  3.68 -4.38 -2.97
Si -3.68  4.38  2.97
Si  3.54  1.95 -5.19
Si -5.34 -0.99  3.72
Si -3.46 -4.21  3.72
Si  5.38  3.12 -2.22
Si -3.73  1.95 -5.19
Si  0.14  0.17  6.69
Si -5.39 -3.32 -2.22
Si -0.14  6.34 -2.22
Si -5.53  3.12 -2.22
Si  5.57 -0.99  3.72
Si  3.81 -4.21  3.72
Si  5.52 -3.32 -2.22
Si  1.79  5.45  3.72
Si -1.84  5.45  3.72
Si  0.04 -4.49 -5.19
Si  0.13 -6.54 -2.22
Si -0.18  4.11 -5.94
Si  0.18 -4.11  5.94
Si  7.27  0.00  0.00
Si -7.27  0.00  0.00
Si  3.59 -2.33 -5.94
Si -3.59  2.33  5.94
Si  3.50  6.44  0.00
Si -3.50 -6.44  0.00
Si -3.69 -2.33 -5.94
Si  3.69  2.33  5.94
Si -3.77  6.44  0.00
Si  3.77 -6.44  0.00
Si  1.65  5.17 -5.19
Si -1.62 -3.05  6.69
Si -7.19 -2.16  0.75
Si -3.50  0.17  6.69
Si  3.50  6.34 -2.22
Si -5.30 -5.38  0.75
Si -1.98  5.17 -5.19
Si  7.27 -0.10 -2.22
Si -7.28 -0.10 -2.22
Si  5.43 -1.27 -5.19
Si  2.02 -3.05  6.69
Si -5.49 -1.27 -5.19
Si  3.77  0.17  6.69
Si -3.78  6.34 -2.22
Si -1.75  3.39  6.69
Si  7.36 -2.16  0.75
Si  1.70  7.50  0.75
Si  1.89  3.39  6.69
Si -3.51 -6.54 -2.22
Si -3.60 -4.49 -5.19
Si -1.93  7.50  0.75
Si  3.67 -4.49 -5.19
Si  5.61 -5.38  0.75
Si  3.77 -6.54 -2.22
Si -3.45 -4.11  5.94
Si  3.45  4.11 -5.94
Si  5.34  0.89 -5.94
Si -5.34 -0.89  5.94
Si -7.18 -2.06  2.97
Si  7.18  2.06 -2.97
Si -5.30 -5.28  2.97
Si  5.30  5.28 -2.97
Si -3.82  4.11 -5.94
Si  3.82 -4.11  5.94
Si -5.57  0.89 -5.94
Si  5.57 -0.89  5.94
Si -7.37  2.06 -2.97
Si  7.37 -2.06  2.97
Si  5.62 -5.28  2.97
Si -5.62  5.28 -2.97
Si  1.80  5.55  5.94
Si -1.80 -5.55 -5.94
Si -1.84  5.55  5.94
Si  1.84 -5.55 -5.94
Si  1.71  7.60  2.97
Si -1.71 -7.60 -2.97
Si  1.70  0.79 -8.16
Si -1.93  7.60  2.97
Si  1.93 -7.60 -2.97
Si -1.94  0.79 -8.16
Si -7.23  2.23  3.72
Si  7.23  4.28  0.75
Si -1.57 -7.43  3.72
Si  7.32  2.23  3.72
Si -7.32  4.28  0.75
Si -0.05 -2.43 -8.16
Si  5.43  5.45  3.72
Si  2.06 -7.43  3.72
Si -5.48  5.45  3.72
Si  0.22 -8.60  0.75
Si  0.14  0.28  8.91
Si -0.14 -0.28 -8.91
Si  7.23  4.38  2.97
Si -7.23 -4.38 -2.97
Si -0.23  8.49 -2.97
Si  0.23 -8.49  2.97
Si  7.32 -4.38 -2.97
Si -7.32  4.38  2.97
Si -5.25 -3.05  6.69
Si  5.29  5.17 -5.19
Si -7.10 -4.21  3.72
Si  7.18  1.95 -5.19
Si -0.19  4.01 -8.16
Si -9.07  1.06  0.75
Si  0.27 -6.27  6.69
Si  9.11  1.06  0.75
Si -7.37  1.95 -5.19
Si -5.62  5.17 -5.19
Si -5.39  3.39  6.69
Si  5.34  7.50  0.75
Si  3.58 -2.43 -8.16
Si  5.66 -3.05  6.69
Si -3.42 -8.60  0.75
Si -3.69 -2.43 -8.16
Si  5.52  3.39  6.69
Si  7.45 -4.21  3.72
Si -5.57  7.50  0.75
Si  0.00  6.61  6.69
Si -0.09  8.66  3.72
Si -1.71 -7.71 -5.19
Si  3.86 -8.60  0.75
Si  1.92 -7.71 -5.19
Si  1.61  2.94 -8.91
Si -1.61 -2.94  8.91
Si -1.57 -7.33  5.94
Si  1.57  7.33 -5.94
Si -3.50  0.28  8.91
Si  3.50 -0.28 -8.91
Si -9.03 -3.22  0.00
Si  9.03  3.22  0.00
Si -2.03  2.94 -8.91
Si  2.03 -2.94  8.91
Si -9.07  1.17  2.97
Si  9.07 -1.17 -2.97
Si  7.14  6.44  0.00
Si -7.14 -6.44  0.00
Si  3.41  8.49 -2.97
Si -3.41 -8.49  2.97
Si  7.22 -2.33 -5.94
Si -7.22  2.33  5.94
Si  9.12  1.17  2.97
Si -9.12 -1.17 -2.97
Si  2.07 -7.33  5.94
Si -2.07  7.33 -5.94
Si  3.78  0.28  8.91
Si -3.78 -0.28 -8.91
Si  9.16 -3.22  0.00
Si -9.16  3.22  0.00
Si  7.32  2.33  5.94
Si -7.32 -2.33 -5.94
Si  3.45  4.01 -8.16
Si  1.75 -3.50 -8.91
Si -1.75  3.50  8.91
Si  5.35  7.60  2.97
Si -5.35 -7.60 -2.97
Si -1.89 -3.50 -8.91
Si  1.89  3.50  8.91
Si -3.37 -6.27  6.69
Si -8.98 -0.99  3.72
Si  5.44  5.55  5.94
Si -5.44 -5.55 -5.94
Si  5.33  0.79 -8.16
Si -7.14  0.17  6.69
Si  3.86 -8.49  2.97
Si -3.86  8.49 -2.97
Si  1.62  9.66  0.00
Si -1.62 -9.66  0.00
Si  7.13  6.34 -2.22
Si  9.02  3.12 -2.22
Si  5.47 -5.55 -5.94
Si -5.47  5.55  5.94
Si -5.21 -7.43  3.72
Si -7.41  6.44  0.00
Si  7.41 -6.44  0.00
Si  0.23 -1.88  9.66
Si -3.83  4.01 -8.16
Si -2.02  9.66  0.00
Si  2.02 -9.66  0.00
Si -0.23  8.39 -5.19
Si -9.03 -3.32 -2.22
Si -5.57  7.60  2.97
Si  5.57 -7.60 -2.97
Si -1.66  1.34  9.66
Si -5.58  0.79 -8.16
Si -9.16  3.12 -2.22
Si -7.14 -6.54 -2.22
Si  1.61  9.55 -2.22
Si  1.98  1.34  9.66
Si  3.91 -6.27  6.69
Si -7.24 -4.49 -5.19
Si  9.20 -0.99  3.72
Si  7.41  0.17  6.69
Si  9.15 -3.32 -2.22
Si -7.41  6.34 -2.22
Si -2.03  9.55 -2.22
Si  7.31 -4.49 -5.19
Si  3.55  8.66  3.72
Si  5.70 -7.43  3.72
Si -3.64  6.61  6.69
Si  3.64  6.61  6.69
Si -1.81 -5.65 -8.16
Si  1.83 -5.65 -8.16
Si  7.09  4.11 -5.94
Si -7.09 -4.11  5.94
Si  7.40 -6.54 -2.22
Si -3.73  8.66  3.72
Si -1.62 -9.76 -2.22
Si  2.02 -9.76 -2.22
Si  7.46 -4.11  5.94
Si -7.46  4.11 -5.94
Si -3.41 -1.88  9.66
Si  3.40  8.39 -5.19
Si -8.94 -5.38  0.75
Si  9.06 -1.27 -5.19
Si -9.12 -1.27 -5.19
Si  3.86 -1.88  9.66
Si  0.09 -8.77 -5.94
Si -0.09  8.77  5.94
Si -3.87  8.39 -5.19
Si  0.09  4.56  9.66
Si  9.25 -5.38  0.75
Si -5.35 -7.71 -5.19
Si -0.18 10.72  0.75
Si  5.25  2.94 -8.91
Si -5.25 -2.94  8.91
Si -5.21 -7.33  5.94
Si  5.21  7.33 -5.94
Si -8.93 -5.28  2.97
Si  8.93  5.28 -2.97
Si -8.98 -0.89  5.94
Si  8.98  0.89 -5.94
Si  5.56 -7.71 -5.19
Si -0.28  6.17 -8.91
Si  0.28 -6.17  8.91
Si -10.91  0.00  0.00
Si 10.91  0.00  0.00
Si -5.66  2.94 -8.91
Si  5.66 -2.94  8.91
Si  5.38 -3.50 -8.91
Si -5.38  3.50  8.91
Si -5.25 -9.66  0.00
Si  5.25  9.66  0.00
Si -9.21  0.89 -5.94
Si  9.21 -0.89  5.94
Si  1.56  7.23 -8.16
Si  5.71 -7.33  5.94
Si -5.71  7.33 -5.94
Si -1.52 -5.10  9.66
Si  5.53  3.50  8.91
Si -5.53 -3.50 -8.91
Si -9.25  5.28 -2.97
Si  9.25 -5.28  2.97
Si -10.82 -2.16  0.75
Si -2.08  7.23 -8.16
Si -5.30  1.34  9.66
Si  5.25  9.55 -2.22
Si 10.91 -0.10 -2.22
Si  2.11 -5.10  9.66
Si -10.92 -0.10 -2.22
Si -0.15 -0.38 -11.13
Si -7.05 -8.60  0.75
Si -0.01 -6.71 -8.91
Si  0.01  6.71  8.91
Si  7.22 -2.43 -8.16
Si -3.55 -8.77 -5.94
Si  3.55  8.77  5.94
Si -5.66  9.66  0.00
Si  5.66 -9.66  0.00
Si  9.07  5.45  3.72
Si  0.18 -10.82 -2.97
Si -0.18 10.82  2.97
Si  3.72 -8.77 -5.94
Si -3.72  8.77  5.94
Si 11.00 -2.16  0.75
Si -7.33 -2.43 -8.16
Si -9.12  5.45  3.72
Si -3.54  4.56  9.66
Si  5.62  1.34  9.66
Si  3.45 10.72  0.75
Si  0.31 -10.65  3.72
Si -5.26 -9.76 -2.22
Si  3.73  4.56  9.66
Si -5.44 -5.65 -8.16
Si -5.66  9.55 -2.22
Si  5.47 -5.65 -8.16
Si -3.36 -6.17  8.91
Si  3.36  6.17 -8.91
Si -3.82 10.72  0.75
Si 10.82  2.06 -2.97
Si -10.82 -2.06  2.97
Si  7.13 -0.28 -8.91
Si -7.13  0.28  8.91
Si -7.05 -8.49  2.97
Si  7.05  8.49 -2.97
Si  7.50 -8.60  0.75
Si  5.65 -9.76 -2.22
Si -3.91  6.17 -8.91
Si  3.91 -6.17  8.91
Si  7.08  4.01 -8.16
Si -8.89 -3.05  6.69
Si -7.00 -6.27  6.69
Si  8.93  5.17 -5.19
Si -11.00  2.06 -2.97
Si 11.00 -2.06  2.97
Si  7.42  0.28  8.91
Si -7.42 -0.28 -8.91
Si  1.60  2.84 -11.13
Si -2.03  2.84 -11.13
Si  3.49 -0.38 -11.13
Si 10.86  4.28  0.75
Si -10.87  2.23  3.72
Si -1.48 -9.49  6.69
Si  7.50 -8.49  2.97
Si -7.50  8.49 -2.97
Si  8.98  7.50  0.75
Si  3.63 -6.71 -8.91
Si -3.63  6.71  8.91
Si -9.03  3.39  6.69
Si -3.64 -6.71 -8.91
Si  3.64  6.71  8.91
Si -3.46 -10.82 -2.97
Si  3.46 10.82  2.97
Si -7.46  4.01 -8.16
Si -3.32 -10.65  3.72
Si -3.78 -0.38 -11.13
Si 10.96  2.23  3.72
Si -10.96  4.28  0.75
Si -9.26  5.17 -5.19
Si  2.16 -9.49  6.69
Si  1.74 -3.60 -11.13
Si  9.16  3.39  6.69
Si  9.30 -3.05  6.69
Si -1.90 -3.60 -11.13
Si  7.18  8.66  3.72
Si -3.81 10.82  2.97
Si  3.81 -10.82 -2.97
Si  7.54 -6.27  6.69
Si -7.27  6.61  6.69
Si  7.28  6.61  6.69
Si -9.21  7.50  0.75
Si -1.53 -11.82  0.75
Si  3.95 -10.65  3.72
Si -7.37  8.66  3.72
Si -0.23  1.78 -11.88
Si  0.23 -1.78 11.88
Si  1.75  9.83  6.69
Si  2.11 -11.82  0.75
Si -1.89  9.83  6.69
Si  0.08 -8.87 -8.16
Si  5.20  7.23 -8.16
Si -1.65  1.44 11.88
Si  1.65 -1.44 -11.88
Si -5.16 -5.10  9.66
Si 10.87  4.38  2.97
Si -10.87 -4.38 -2.97
Si  0.17 -10.93 -5.19
Si -7.05 -1.88  9.66
Si -0.32 10.55 -5.94
Si  0.32 -10.55  5.94
Si -10.73 -4.21  3.72
Si  7.04  8.39 -5.19
Si -1.98 -1.44 -11.88
Si  1.98  1.44 11.88
Si  8.98  7.60  2.97
Si -8.98 -7.60 -2.97
Si -8.85 -7.43  3.72
Si 10.81  1.95 -5.19
Si  8.97  0.79 -8.16
Si -10.95  4.38  2.97
Si 10.95 -4.38 -2.97
Si -1.52 -11.71  2.97
Si  1.52 11.71 -2.97
Si  9.07  5.55  5.94
Si -9.07 -5.55 -5.94
Si -9.11  5.55  5.94
Si  9.11 -5.55 -5.94
Si  2.11 -11.71  2.97
Si -2.11 11.71 -2.97
Si  9.20 -7.60 -2.97
Si -9.20  7.60  2.97
Si -5.71  7.23 -8.16
Si -11.01  1.95 -5.19
Si -9.21  0.79 -8.16
Si  5.75 -5.10  9.66
Si  7.50 -1.88  9.66
Si -7.51  8.39 -5.19
Si 11.09 -4.21  3.72
Si -3.40 -1.78 11.88
Si  3.40  1.78 -11.88
Si  9.34 -7.43  3.72
Si -1.79  7.78  9.66
Si  1.84  7.78  9.66
Si 10.78  6.44  0.00
Si -10.78 -6.44  0.00
Si -3.32 -10.55  5.94
Si  3.32 10.55 -5.94
Si  1.66 11.88  3.72
Si -3.56 -8.87 -8.16
Si -3.46 -10.93 -5.19
Si -10.86  2.33  5.94
Si 10.86 -2.33 -5.94
Si -1.98 11.88  3.72
Si  3.72 -8.87 -8.16
Si -3.87  1.78 -11.88
Si  3.87 -1.78 11.88
Si  5.24  2.84 -11.13
Si -0.28  6.06 -11.13
Si -10.96 -2.33 -5.94
Si 10.96  2.33  5.94
Si  3.81 -10.93 -5.19
Si -10.78  0.17  6.69
Si -5.12 -9.49  6.69
Si 10.77  6.34 -2.22
Si  3.96 -10.55  5.94
Si -3.96 10.55 -5.94
Si -1.57 -0.72 12.64
Si  0.36 -8.32  9.66
Si  0.10  4.66 11.88
Si -0.10 -4.66 -11.88
Si -12.71  1.06  0.75
Si 11.05 -6.44  0.00
Si -11.05  6.44  0.00
Si  7.19  8.77  5.94
Si -7.19 -8.77 -5.94
Si -10.78 -6.54 -2.22
Si  1.52 11.61 -5.19
Si -5.67  2.84 -11.13
Si 12.75  1.06  0.75
Si  2.07 -0.72 12.64
Si -10.87 -4.49 -5.19
Si -7.18  4.56  9.66
