500
set: 1024.00  0.00  0.00
Si  0.45 -1.16  0.83
Si -0.43  1.20 -0.83
Si -1.35 -1.19 -0.77
Si  1.36  1.19  0.84
Si -2.14  1.09  0.80
Si -0.90 -0.02  2.43
Si  0.91 -0.00 -2.44
Si  2.19 -1.21 -0.82
Si -3.08 -1.14  0.82
Si -0.11 -2.33 -2.48
Si  3.10  1.16 -0.78
Si  0.02  2.37  2.47
Si  2.64  0.01  2.45
Si -2.65  0.05 -2.45
Si  0.46  3.51 -0.77
Si -0.45 -3.51  0.84
Si  1.74 -2.35  2.42
Si -1.75  2.32 -2.49
Si  1.70  2.38 -2.48
Si -1.80 -2.33  2.47
Si  1.29 -3.55 -0.78
Si -1.26  3.57  0.82
Si  0.79  0.03  4.07
Si -3.91  1.16 -0.78
Si -0.89  0.02 -4.07
Si  3.94 -1.14  0.82
Si -2.24 -3.50 -0.83
Si  2.26  3.55  0.83
Si -3.01  3.50 -0.82
Si  0.00 -2.35  4.10
Si  0.01  2.33 -4.12
Si  3.07 -3.62  0.80
Si -3.46  2.36  2.42
Si -2.65 -0.03  4.05
Si  3.46 -2.38 -2.49
Si  2.65  0.00 -4.12
Si  3.55  2.36  2.42
Si -3.56 -2.38 -2.49
Si  4.36  0.05 -2.45
Si -4.38  0.01  2.45
Si  1.73 -2.35 -4.10
Si -4.82 -1.21 -0.82
Si -1.75  2.40  4.10
Si  4.88  1.09  0.80
Si  1.81  2.35  4.10
Si -1.80 -2.38 -4.12
Si  0.92  4.68  2.43
Si  0.83 -4.70  2.45
Si  4.00  3.50 -0.82
Si -0.91 -4.71 -2.44
Si -3.95 -3.62  0.80
Si -0.84  4.76 -2.45
Si  3.45 -2.30  4.10
Si  5.66 -1.19 -0.77
Si  0.45 -1.16 -5.71
Si -5.66  1.19  0.84
Si  2.55 -4.66 -2.45
Si -0.32  5.80  0.80
Si -3.47  2.36 -4.10
Si -3.56 -2.30  4.10
Si -2.56  4.71  2.45
Si -0.45  1.16  5.77
Si  3.55  2.36 -4.10
Si  4.36 -0.03  4.05
Si  2.72  4.71 -2.44
Si -2.71 -4.73  2.43
Si  4.78 -3.50 -0.83
Si  0.38 -5.92 -0.82
Si -1.33 -1.15  5.72
Si -4.75  3.55  0.83
Si  1.35  1.20 -5.72
Si -4.37  0.00 -4.12
Si -1.36 -5.86  0.83
Si  1.39  5.91 -0.83
Si  5.22 -2.33  2.47
Si -2.17  1.21 -5.72
Si -0.84  4.67  4.05
Si -5.28 -2.35  2.42
Si  5.27  2.32 -2.49
Si  2.13 -5.85  0.82
Si -2.10  5.87 -0.78
Si -1.02 -4.68  4.07
Si  2.19 -1.19  5.77
Si  0.92  4.72 -4.07
Si  0.83 -4.70 -4.12
Si -5.32  2.38 -2.48
Si -6.11 -0.00 -2.44
Si  6.12 -0.02  2.43
Si  3.10  1.15  5.73
Si -3.04 -1.26 -5.75
Si -6.57 -1.16  0.83
Si -0.46 -3.51 -5.72
Si  2.55 -4.74  4.05
Si -3.17 -5.90 -0.77
Si  6.59  1.20 -0.83
Si  3.17  5.90  0.84
Si  0.48  3.56  5.72
Si -2.56  4.71 -4.12
Si  2.61  4.74  4.07
Si -2.70 -4.69 -4.07
Si -5.73 -3.55 -0.78
Si -1.23  3.44 -5.75
Si  5.75  3.57  0.82
Si -4.29  4.71 -2.44
Si  4.30 -4.73  2.43
Si  1.29 -3.56  5.73
Si -4.47 -4.66 -2.45
Si  4.45  4.71  2.45
Si -5.20  2.35  4.10
Si -3.92  1.15  5.73
Si  5.21 -2.38 -4.12
Si  3.85 -5.90 -0.77
Si -5.28 -2.35 -4.10
Si  2.27  3.55 -5.71
Si -3.84  5.90  0.84
Si  5.27  2.40  4.10
Si  3.97 -1.26 -5.75
Si -2.26 -3.55  5.77
Si  6.12  0.02 -4.07
Si  3.03 -3.49 -5.72
Si -3.01  3.51  5.77
Si -0.45  1.16 -7.32
Si -6.22  0.03  4.07
Si  0.07  7.03 -2.49
Si -0.07 -7.06  2.42
Si -6.56  3.51 -0.77
Si  6.56 -3.51  0.84
Si  0.45 -1.16  7.39
Si  4.31 -4.69 -4.07
Si -1.33 -1.15 -7.37
Si -7.44  1.20 -0.83
Si  1.35  1.20  7.38
Si  7.46 -1.16  0.83
Si  4.85  1.21 -5.72
Si -4.82 -1.19  5.77
Si -4.41  4.74  4.07
Si -1.65  7.06  2.42
Si -4.89 -5.85  0.82
Si -4.47 -4.74  4.05
Si  4.46  4.71 -4.12
Si  6.90 -2.33 -2.48
Si  4.91  5.87 -0.78
Si  1.64 -7.09 -2.49
Si -1.93 -7.03 -2.48
Si  1.83  7.08  2.47
Si  2.19 -1.19 -7.33
Si -2.17  1.21  7.37
Si -7.00  2.37  2.47
Si -3.98 -3.49 -5.72
Si  7.03  2.37  2.47
Si  4.01  3.51  5.77
Si -7.13 -2.33 -2.48
Si -3.04 -1.26  7.35
Si -6.10  4.68  2.43
Si  3.10  1.15 -7.37
Si  6.11 -4.71 -2.44
Si -5.66  1.20 -5.72
Si  5.68 -1.15  5.72
Si -6.19 -4.70  2.45
Si -0.08 -7.05 -4.10
Si  6.17  4.76 -2.45
Si -0.46 -3.51  7.38
Si  5.65 -5.86  0.83
Si  0.48  3.56 -7.37
Si -5.63  5.91 -0.83
Si  3.40 -7.04  2.47
Si -1.23  3.44  7.35
Si  0.07  7.11  4.10
Si -4.75  3.55 -5.71
Si -0.36  5.92 -5.72
Si  0.38 -5.90  5.77
Si  4.75 -3.55  5.77
Si -7.91 -0.02  2.43
Si  1.64 -7.01  4.10
Si  1.29 -3.56 -7.37
Si -3.50  7.09 -2.48
Si  3.51  7.09 -2.48
Si -3.61 -7.04  2.47
Si  7.92 -0.00 -2.44
Si  7.47  3.51 -0.77
Si -1.36 -5.87 -5.71
Si -7.47 -3.51  0.84
Si -0.53 -8.25 -0.78
Si -1.20  8.21 -0.82
Si  0.55  8.27  0.82
Si -1.66  7.07 -4.10
Si  1.36  5.87  5.77
Si  1.82  7.04 -4.12
Si -1.81 -7.06  4.10
Si -3.92  1.15 -7.37
Si -2.26 -3.55 -7.32
Si  3.97 -1.26  7.35
Si -2.10  5.85  5.73
Si -7.01  2.33 -4.12
Si  1.25 -8.32  0.80
Si -7.01 -2.35  4.10
Si  7.02 -2.35  4.10
Si  7.03  2.33 -4.12
Si -8.37 -1.19 -0.77
Si  8.38  1.19  0.84
Si  2.27  3.55  7.39
Si  2.27  8.22 -0.77
Si  2.16 -5.97 -5.75
Si -2.27 -8.22  0.84
Si  6.00 -4.68  4.07
Si -3.01  3.51 -7.33
Si  3.03 -3.49  7.37
Si -6.09  4.72 -4.07
Si  6.18  4.67  4.05
Si  2.96 -8.21 -0.83
Si -3.15 -5.86  5.72
Si -6.56 -1.16 -5.71
Si -6.18 -4.70 -4.12
Si -2.94  8.26  0.83
Si  7.81  0.03  4.07
Si  3.17  5.90 -5.72
Si  6.57  1.16  5.77
Si -3.39  7.06  4.10
Si -5.73 -3.56  5.73
Si -4.82 -1.19 -7.33
Si  5.79  3.44 -5.75
Si  3.40 -7.08 -4.12
Si  6.69  5.80  0.80
Si -7.91  0.02 -4.07
Si  4.85  1.21  7.37
Si -6.64 -5.92 -0.82
Si  3.63  7.06  4.10
Si -3.62 -7.08 -4.12
Si  5.09 -7.03 -2.48
Si -8.28  3.57  0.82
Si  3.87 -5.86  5.72
Si  0.79  0.03 -9.02
Si  4.01  3.51 -7.33
Si  8.30 -3.55 -0.78
Si -0.89  0.02  9.02
Si -3.98 -3.49  7.37
Si -3.85  5.90 -5.72
Si -5.19  7.08  2.47
Si -4.05 -8.21 -0.83
Si  5.37  7.06  2.42
Si -5.37 -7.09 -2.49
Si  4.08  8.26  0.83
Si -9.15  1.09  0.80
Si  0.01  2.33  8.97
Si  0.00 -2.35 -8.99
Si  9.21 -1.21 -0.82
Si  2.65  0.00  8.97
Si  8.71  2.38 -2.48
Si -5.66  1.20  7.38
Si  5.68 -1.15 -7.37
Si  6.56 -3.51 -5.72
Si  8.76 -2.35  2.42
Si -6.54  3.56  5.72
Si -7.34  5.80  0.80
Si -8.76  2.32 -2.49
Si  0.38 -5.90 -7.33
Si  4.75 -3.55 -7.32
Si -2.65 -0.03 -9.04
Si -8.81 -2.33  2.47
Si  1.73 -2.35  8.99
Si -1.80 -2.38  8.97
Si -0.36  5.92  7.37
Si  7.84 -4.70  2.45
Si  1.81  2.35 -8.99
Si  7.47 -1.16 -5.71
Si -4.75  3.55  7.39
Si -1.75  2.40 -9.00
Si  1.36  5.87 -7.32
Si  7.39 -5.92 -0.82
Si -7.86  4.76 -2.45
Si -7.46  1.16  5.77
Si -4.74  8.22 -0.77
Si  7.93  4.68  2.43
Si  4.75 -8.22  0.84
Si -1.36 -5.87  7.39
Si -7.92 -4.71 -2.44
Si  4.91  5.85  5.73
Si -4.86 -5.97 -5.75
Si -2.10  5.85 -7.37
Si -5.19  7.04 -4.12
Si  5.20 -7.06  4.10
Si  0.73 -9.36 -2.45
Si  2.16 -5.97  7.35
Si -5.38 -7.01  4.10
Si -0.75  9.42  2.45
Si  5.36  7.07 -4.10
Si -0.99 -9.41  2.45
Si  0.97  9.46 -2.45
Si  6.57  1.16 -7.32
Si  3.45 -2.30 -9.00
Si -3.47  2.36  8.99
Si -3.15 -5.86 -7.37
Si -9.26 -3.50 -0.83
Si  8.75 -2.35 -4.10
Si -3.56 -2.30 -9.00
Si  5.66 -5.87 -5.71
Si -6.56 -1.16  7.39
Si  3.55  2.36  8.99
Si  9.65  0.01  2.45
Si  5.79  3.44  7.35
Si  3.17  5.90  7.38
Si  9.28  3.55  0.83
Si -8.76  2.40  4.10
Si -9.67  0.05 -2.45
Si -4.37  0.00  8.97
Si -5.65  5.87  5.77
Si -5.73 -3.56 -7.37
Si  0.58  8.15 -5.75
Si -7.86  4.67  4.05
Si  8.83  2.35  4.10
Si -8.82 -2.38 -4.12
Si -2.48  9.41 -2.44
Si  7.85 -4.70 -4.12
Si  4.36 -0.03 -9.04
Si -7.47 -3.51 -5.72
Si  2.49 -9.44  2.43
Si -0.53 -8.27  5.73
Si  2.73  9.39  2.43
Si  1.22 -8.20 -5.72
Si  7.50  3.56  5.72
Si  5.82  8.21 -0.82
Si  7.94  4.72 -4.07
Si -2.72 -9.41 -2.44
Si -1.20  8.22  5.77
Si -8.04 -4.68  4.07
Si -5.76 -8.32  0.80
Si  0.83 -4.70  8.97
Si  3.87 -5.86 -7.37
Si -8.35 -1.15  5.72
Si -10.09 -1.14  0.82
Si  6.94 -7.06  2.42
Si -6.95  7.03 -2.49
Si -3.85  5.90  7.38
Si  8.37  1.20 -5.72
Si -0.84  4.67 -9.04
Si 10.12  1.16 -0.78
Si -1.02 -4.68 -9.02
Si  0.92  4.72  9.02
Si -8.38 -5.86  0.83
Si -2.27 -8.22 -5.72
Si  0.97  9.38  4.05
Si  7.08  7.03 -2.49
Si -7.09 -7.06  2.42
Si  0.74 -9.45  4.05
Si  8.40  5.91 -0.83
Si  2.29  8.26  5.72
Si -0.74  9.42 -4.12
Si -0.98 -9.41 -4.12
Si -2.56  4.71  8.97
Si -2.94  8.25 -5.71
Si -6.54  3.56 -7.37
Si  6.56 -3.51  7.38
Si -9.67 -0.03  4.05
Si  2.94 -8.25  5.77
Si  9.66  0.00 -4.12
Si  2.61  4.74 -9.02
Si -2.70 -4.69  9.02
Si -7.46  1.16 -7.32
Si  2.55 -4.74 -9.04
Si  6.49 -8.25 -0.78
Si -6.46  8.27  0.82
Si  2.50 -9.39 -4.07
Si  7.47 -1.16  7.39
Si -6.63 -5.90  5.77
Si  0.31 -10.55  0.82
Si  6.66  5.92 -5.72
Si -4.29  9.39  2.43
Si -2.60  9.44  4.07
Si -0.29 10.57 -0.78
Si  4.91  5.85 -7.37
Si -2.83 -9.38  4.07
Si -8.24  3.44 -5.75
Si  2.74  9.43 -4.07
Si  4.30 -9.41 -2.44
Si  1.49 10.50  0.80
Si -4.86 -5.97  7.35
Si  5.21 -2.38  8.97
Si -5.20  2.35 -8.99
Si -10.03  3.50 -0.82
Si  0.91 -0.00 10.65
Si -5.28 -2.35  8.99
Si  8.30 -3.56  5.73
Si  5.27  2.40 -9.00
Si -0.90 -0.02 -10.67
Si  6.93 -7.05 -4.10
Si  4.53  9.41 -2.44
Si 10.08 -3.62  0.80
Si -4.52 -9.44  2.43
Si -1.43 -10.62 -0.82
Si -6.95  7.11  4.10
Si -7.10 -7.05 -4.10
Si  2.03 -10.61 -0.77
Si  4.08  8.25 -5.71
Si -2.03 10.61  0.84
Si  7.08  7.11  4.10
Si -4.08 -8.25  5.77
Si -0.11 -2.33 10.62
Si -9.12  5.87 -0.78
Si  0.02  2.37 -10.62
Si  9.14 -5.85  0.82
Si -9.18  1.21 -5.72
Si  6.12  0.02  9.02
Si  9.56 -4.66 -2.45
Si  9.21 -1.19  5.77
Si -5.65  5.87 -7.32
Si -9.58  4.71  2.45
Si -6.22  0.03 -9.02
Si  2.64  0.01 -10.64
Si -2.65  0.05 10.64
Si  0.58  8.15  7.35
Si -1.75  2.32 10.60
Si  5.66 -5.87  7.39
Si -10.48  2.36  2.42
Si  1.70  2.38 10.62
Si -10.93  1.16 -0.78
Si -1.80 -2.33 -10.62
Si 10.47 -2.38 -2.49
Si  4.31 -4.69  9.02
Si 10.96 -1.14  0.82
Si  4.18 -9.38  4.07
Si -7.37  5.92 -5.72
Si  1.74 -2.35 -10.67
Si -3.18 -10.57  0.83
Si  4.46  4.71  8.97
Si -7.47 -3.51  7.38
Si -1.20  8.22 -7.33
Si  4.74 -8.22 -5.72
Si  7.40 -5.90  5.77
Si -9.73 -4.73  2.43
Si -0.53 -8.27 -7.37
Si  9.74  4.71 -2.44
Si  1.22 -8.20  7.37
Si 10.57  2.36  2.42
Si  7.50  3.56 -7.37
Si -4.41  4.74 -9.02
Si -4.72  8.26  5.72
Si  3.20 10.62 -0.83
Si -10.57 -2.38 -2.49
Si -4.28  9.43 -4.07
Si -4.47 -4.74 -9.04
Si  4.42  9.44  4.07
Si -4.52 -9.39 -4.07
Si -8.35 -1.15 -7.37
Si -7.54 -8.25 -0.78
Si  8.37  1.20  7.38
Si  7.57  8.27  0.82
Si -2.27 -8.22  7.38
Si  3.84 -10.57  0.83
Si  2.29  8.26 -7.37
Si -3.82 10.62 -0.83
Si  3.46 -2.38 10.60
Si  2.94 -8.25 -7.32
Si  9.56 -4.74  4.05
Si -0.08 -7.05  8.99
Si -3.56 -2.38 10.60
Si -9.57  4.71 -4.12
Si  6.03 -9.41  2.45
Si -8.66  7.06  2.42
Si  9.28  3.55 -5.71
Si -2.94  8.25  7.39
Si -3.46  2.36 -10.67
Si  8.66 -7.09 -2.49
Si  0.07  7.11 -9.00
Si  9.62  4.74  4.07
Si 10.47 -2.30  4.10
Si -9.28 -3.55  5.77
Si  3.55  2.36 -10.67
Si -6.04  9.46 -2.45
Si  4.36  0.05 10.64
Si -10.48  2.36 -4.10
Si -4.38  0.01 -10.64
Si -6.63 -5.90 -7.33
Si  1.64 -7.01 -9.00
Si -9.72 -4.69 -4.07
Si -6.28 -9.36 -2.45
Si  1.82  7.04  8.97
Si -1.66  7.07  8.99
Si -5.79 -8.20 -5.72
Si  6.66  5.92  7.37
Si -8.24  3.44  7.35
Si 10.56  2.36 -4.10
Si -10.96 -3.62  0.80
Si -10.58 -2.30  4.10
Si -1.81 -7.06 -8.99
Si  6.26  9.42  2.45
Si 11.02  3.50 -0.82
Si  8.85  7.08  2.47
Si  5.82  8.22  5.77
Si -7.01  2.33  8.97
Si  7.03  2.33  8.97
Si 11.38  0.05 -2.45
Si -8.21  8.21 -0.82
Si -8.94 -7.03 -2.48
Si -7.01 -2.35 -8.99
Si  7.02 -2.35 -8.99
Si -11.39  0.01  2.45
Si -10.06 -1.26 -5.75
Si  8.30 -3.56 -7.37
Si  0.83 -4.70 -10.64
Si -0.91 -4.71 10.65
