500
set: 418.00  0.00  0.00
Si  0.00 -0.03 -0.02
Si -1.82  1.01  0.73
Si  1.76  1.13  0.75
Si  0.07  0.03 -2.25
Si -0.01 -2.13  0.78
Si -1.79  0.99  2.94
Si  3.59  0.05 -0.00
Si -1.75 -1.04 -2.99
Si -0.04 -2.08  2.97
Si -1.87 -3.12 -0.01
Si  1.84 -3.16  0.06
Si -1.81  3.17  0.06
Si  1.79  3.20 -0.01
Si -0.04  2.14 -2.99
Si  1.90  1.06  2.98
Si -3.71  0.05 -0.00
Si  1.86 -1.12 -3.02
Si  3.64 -2.06  0.74
Si -1.84  3.15 -2.18
Si  1.83 -1.08  3.68
Si -3.64 -0.04 -2.22
Si  1.82 -3.18 -2.18
Si -3.67 -2.06  0.74
Si  0.02  2.07  3.75
Si  3.67 -0.04 -2.22
Si  1.83  3.13 -2.29
Si -1.82 -3.19 -2.29
Si -0.01  4.27  0.74
Si -1.84 -1.07  3.78
Si  0.02  4.18  2.98
Si -3.63  2.07 -2.99
Si  3.67  2.07 -2.99
Si -3.63 -2.15  2.98
Si  3.67 -2.15  2.98
Si  0.02 -4.26 -2.99
Si -3.58  2.14  3.71
Si -1.89 -5.20  0.75
Si -0.01  2.08 -5.18
Si  0.07 -4.19  3.71
Si  3.65  4.19  0.78
Si -3.66  4.19  0.78
Si  5.49  1.01  0.73
Si -1.89 -0.98 -5.21
Si  1.83 -1.10 -5.24
Si  1.83 -5.32  0.73
Si  3.72  2.14  3.71
Si -5.54  1.13  0.75
Si -5.41  1.06  2.98
Si  5.44 -3.12 -0.01
Si  1.84  1.06 -5.91
Si -1.79  5.21 -3.02
Si -0.06 -6.28 -0.00
Si  3.61 -4.19 -2.99
Si -1.75 -5.26  2.98
Si  1.79 -1.01  5.96
Si -0.06 -2.06 -5.97
Si -5.47 -3.16  0.06
Si  3.61  4.25  2.97
Si -5.44 -1.12 -3.02
Si  5.52  0.99  2.94
Si -3.69 -4.19 -2.99
Si  5.49  3.17  0.06
Si -0.06  2.15  5.96
Si -1.87  1.09 -5.97
Si  1.90  5.28 -2.99
Si -3.69  4.25  2.97
Si -0.06  6.37 -0.00
Si  1.86 -5.34  2.94
Si -1.81 -1.05  6.03
Si -5.52  3.20 -0.01
Si  5.55 -1.04 -2.99
Si -1.82  5.24  3.68
Si  0.02  6.29 -2.22
Si  5.47  3.15 -2.18
Si -0.01 -4.17 -5.22
Si -5.47 -1.08  3.68
Si -0.01  0.05  6.71
Si -5.49 -3.18 -2.18
Si -5.47  3.13 -2.29
Si  3.64  2.16 -5.22
Si  1.82  5.26  3.78
Si  5.47 -1.07  3.78
Si -3.67  2.16 -5.22
Si -3.64 -4.26  3.75
Si  0.02 -6.37 -2.22
Si  5.49 -3.19 -2.29
Si  3.67 -4.26  3.75
Si -3.65  2.08  5.95
Si -3.65  6.30 -0.02
Si  3.65  2.08  5.95
Si  3.65  6.30 -0.02
Si  0.00 -4.25  5.95
Si -7.30 -0.03 -0.02
Si  0.00  4.19 -5.99
Si  7.31 -0.03 -0.02
Si -3.65 -6.35 -0.02
Si  3.65 -6.35 -0.02
Si -3.65 -2.14 -5.99
Si  3.65 -2.14 -5.99
Si  5.42 -5.20  0.75
Si -7.24  0.03 -2.25
Si  5.42 -0.98 -5.21
Si -3.58 -6.29 -2.25
Si  1.83  7.34  0.73
Si  1.76 -3.09  6.72
Si  1.83  3.12  6.70
Si -1.82  5.23 -5.24
Si  3.65 -4.24 -5.18
Si -3.66 -4.24 -5.18
Si -3.58  6.36 -2.25
Si -1.82 -3.21  6.70
Si  7.30 -2.13  0.78
Si  3.72 -6.29 -2.25
Si -5.47 -1.10 -5.24
Si -7.31 -2.13  0.78
Si -5.47 -5.32  0.73
Si  3.65 -0.03  6.75
Si  1.76  5.34 -5.21
Si -3.66 -0.03  6.75
Si -1.89  3.24  6.72
Si  3.72  6.36 -2.25
Si  7.38  0.03 -2.25
Si -1.89  7.45  0.75
Si  1.86  7.32  2.94
Si  3.59 -4.17  5.96
Si -1.81 -5.26 -5.91
Si -5.47  1.06 -5.91
Si  7.26 -2.08  2.97
Si -5.41  5.28 -2.99
Si  1.79 -5.23 -5.97
Si  7.26  2.14 -2.99
Si  5.44  1.09 -5.97
Si -1.75  7.39  2.98
Si  5.52  5.21 -3.02
Si  3.59  4.26 -5.97
Si -3.71 -4.17  5.96
Si -5.44 -5.34  2.94
Si  1.90 -7.37 -2.99
Si -5.52 -1.01  5.96
Si -7.35 -2.08  2.97
Si -1.87  5.31  5.96
Si  5.55 -5.26  2.98
Si -7.35  2.14 -2.99
Si  5.49 -1.05  6.03
Si  1.84  5.28  6.03
Si -3.71  4.26 -5.97
Si -1.79 -7.45 -3.02
Si  1.82  1.04 -8.15
Si -0.01 -8.39  0.74
Si  5.49  5.24  3.68
Si -7.29  2.07  3.75
Si  0.02 -2.15 -8.18
Si -1.82 -7.41  3.68
Si  7.29  4.27  0.74
Si  7.32  2.07  3.75
Si -5.49  5.26  3.78
Si  1.82 -7.40  3.78
Si -7.32  4.27  0.74
Si -1.82  1.02 -8.25
Si  0.02  8.40 -2.99
Si -7.29  4.18  2.98
Si  7.32  4.18  2.98
Si  0.02 -0.04  8.95
Si  0.02 -0.04 -8.95
Si -7.29 -4.26 -2.99
Si  7.32 -4.26 -2.99
Si  0.02 -8.47  2.98
Si -7.24 -4.19  3.71
Si  1.76 -7.31 -5.21
Si  9.07  1.13  0.75
Si -5.47  7.34  0.73
Si  7.30  2.08 -5.18
Si -5.47  3.12  6.70
Si -7.31  2.08 -5.18
Si -3.58 -2.08 -8.22
Si -9.13  1.01  0.73
Si  5.49  5.23 -5.24
Si  5.42  3.24  6.72
Si  5.49 -3.21  6.70
Si -0.01  6.30  6.75
Si -5.54 -3.09  6.72
Si  5.42  7.45  0.75
Si  0.07  8.47  3.71
Si  3.65 -8.46  0.78
Si -3.66 -8.46  0.78
Si  0.07  4.25 -8.22
Si  7.38 -4.19  3.71
Si  3.72 -2.08 -8.22
Si -1.82 -7.42 -5.24
Si -0.01 -6.35  6.75
Si -5.54  5.34 -5.21
Si -5.44  7.32  2.94
Si  7.25 -6.28 -0.00
Si -9.06 -1.04 -2.99
Si -9.10  0.99  2.94
Si  7.25 -2.06 -5.97
Si  1.86  3.10  8.91
Si -5.41 -7.37 -2.99
Si  1.79 -9.45 -0.01
Si  3.61 -8.41  2.97
Si  7.25  2.15  5.96
Si  5.49 -5.26 -5.91
Si -1.81  7.39 -5.91
Si -1.87 -7.34  5.96
Si  3.61  0.03  8.94
Si  9.09  3.20 -0.01
Si -1.79 -3.23  8.91
Si  7.25  6.37 -0.00
Si -1.75  3.17  8.94
Si -3.69 -8.41  2.97
Si -1.81 -9.48  0.06
Si -9.12  3.17  0.06
Si -1.75  3.17 -8.95
Si  3.61  0.03 -8.96
Si  5.44  5.31  5.96
Si -3.69  0.03  8.94
Si -5.52 -5.23 -5.97
Si  1.90 -3.15  8.94
Si  9.14 -3.16  0.06
Si  1.84  9.50  0.06
Si  3.61  8.47 -2.99
Si  1.90 -3.15 -8.95
Si -7.37 -6.28 -0.00
Si  1.86  3.10 -8.99
Si -9.17 -3.12 -0.01
Si -3.69  0.03 -8.96
Si  1.79  7.42 -5.97
Si  1.84 -7.37  6.03
Si -5.47  5.28  6.03
Si -7.37 -2.06 -5.97
Si -3.69  8.47 -2.99
Si -1.87  9.53 -0.01
Si  5.55  7.39  2.98
Si -1.79 -3.23 -8.99
Si -7.37  2.15  5.96
Si  9.17 -1.12 -3.02
Si  9.21  1.06  2.98
Si -7.37  6.37 -0.00
Si  5.52 -7.45 -3.02
Si -1.82  1.02  9.64
Si -7.29  6.29 -2.22
Si -5.49  1.04 -8.15
Si -3.64  4.18 -8.18
Si  3.64 -6.28  6.71
Si -3.64  8.39  3.75
Si -1.84 -5.29 -8.15
Si  7.29 -4.17 -5.22
Si  1.82  9.48 -2.18
Si -3.67 -6.28  6.71
Si  3.67  4.18 -8.18
Si  3.67  8.39  3.75
Si -1.82  9.46 -2.29
Si  7.32  6.29 -2.22
Si  9.12 -3.18 -2.18
Si  7.29  0.05  6.71
Si  9.14 -1.08  3.68
Si -7.32 -4.17 -5.22
Si -9.14  3.15 -2.18
Si -1.84 -9.51 -2.18
Si  9.14  3.13 -2.29
Si  5.49 -7.41  3.68
Si -7.32  0.05  6.71
Si -7.29 -6.37 -2.22
Si -9.13 -3.19 -2.29
Si  3.64  6.38  6.71
Si  0.02 -2.15  9.71
Si -9.14 -1.07  3.78
Si  7.32 -6.37 -2.22
Si -3.67  6.38  6.71
Si -5.49 -7.40  3.78
Si  5.49  1.02 -8.25
Si  1.83 -9.52 -2.29
Si -0.01  8.49 -5.22
Si  1.82  1.04  9.75
Si  1.83 -5.30 -8.25
Si  0.00  8.41  5.95
Si -7.30 -4.25  5.95
Si  7.31 -4.25  5.95
Si -7.30  4.19 -5.99
Si  7.31  4.19 -5.99
Si  0.00 -8.46 -5.99
Si -3.58 -2.08  9.68
Si  3.65  8.41 -5.18
Si -3.66  8.41 -5.18
Si -0.01 10.52  0.78
Si -5.54 -7.31 -5.21
Si  0.07  4.25  9.68
Si  3.72 -2.08  9.68
Si  9.14 -1.10 -5.24
Si -9.20 -5.20  0.75
Si  9.14 -5.32  0.73
Si  5.49 -7.42 -5.24
Si -9.20 -0.98 -5.21
Si -5.44  3.10  8.91
Si -9.06 -5.26  2.98
Si 10.90  0.05 -0.00
Si  3.59 -8.39 -5.97
Si -9.10  5.21 -3.02
Si  5.44 -7.34  5.96
Si -5.41 -3.15  8.94
Si  9.09 -1.01  5.96
Si -5.41 -3.15 -8.95
Si -0.04 -6.30  8.94
Si -0.04 -10.52 -2.99
Si  9.14  1.06 -5.91
Si  5.49  7.39 -5.91
Si -3.71 -8.39 -5.97
Si -5.52 -9.45 -0.01
Si -0.04 -6.30 -8.96
Si -5.44  3.10 -8.99
Si  5.49 -9.48  0.06
Si -5.47  9.50  0.06
Si  5.52 -3.23  8.91
Si -0.04  6.36  8.94
Si  5.44  9.53 -0.01
Si  3.59  8.48  5.96
Si -5.47 -7.37  6.03
Si -9.12 -1.05  6.03
Si -0.04 10.58  2.97
Si -0.04  6.36 -8.96
Si  5.55  3.17  8.94
Si -9.17  1.09 -5.97
Si  5.55  3.17 -8.95
Si -5.52  7.42 -5.97
Si  9.17 -5.34  2.94
Si -3.71  8.48  5.96
Si -11.02  0.05 -0.00
Si  9.21  5.28 -2.99
Si  5.52 -3.23 -8.99
Si -1.84  7.37 -8.15
Si  7.29 -8.39  0.74
Si  5.49  1.02  9.64
Si  5.47 -5.29 -8.15
Si -9.13  5.24  3.68
Si  1.83 -5.30  9.64
Si -7.32 -8.39  0.74
Si 10.95 -2.06  0.74
Si -10.94 -0.04 -2.22
Si -5.49  9.48 -2.18
Si -7.29 -2.15 -8.18
Si  5.49  9.46 -2.29
Si -3.64  4.18  9.71
Si  5.47 -9.51 -2.18
Si  9.12  5.26  3.78
Si -0.01  0.05 -11.19
Si -10.97 -2.06  0.74
Si  7.32 -2.15 -8.18
Si  3.67  4.18  9.71
Si 10.98 -0.04 -2.22
Si  1.83  7.35 -8.25
Si -5.47 -9.52 -2.29
Si  3.64 10.60  0.74
Si  0.02 -10.59  3.75
Si -5.47 -5.30 -8.25
Si -5.49  1.04  9.75
Si -3.67 10.60  0.74
Si -1.84 -5.29  9.75
Si -3.63 10.51  2.98
Si -7.29  8.40 -2.99
Si  3.67 10.51  2.98
Si -3.63  6.29  8.95
Si -3.63  6.29 -8.95
Si -10.94  2.07 -2.99
Si  3.67  6.29  8.95
Si  7.32  8.40 -2.99
Si -7.29 -0.04  8.95
Si  3.67  6.29 -8.95
Si -10.94 -2.15  2.98
Si -7.29 -0.04 -8.95
Si  7.32 -0.04  8.95
Si 10.98  2.07 -2.99
Si -3.63 -6.37  8.95
Si  7.32 -0.04 -8.95
Si -7.29 -8.47  2.98
Si -3.63 -6.37 -8.95
Si 10.98 -2.15  2.98
Si  3.67 -6.37  8.95
Si  3.67 -6.37 -8.95
Si -3.63 -10.58 -2.99
Si  7.32 -8.47  2.98
Si  3.67 -10.58 -2.99
Si  1.76 -11.53  0.75
Si  9.07 -3.09  6.72
Si -10.89  2.14  3.71
Si -3.58 -10.51  3.71
Si -1.89 -9.42  6.72
Si -1.82  9.45  6.70
Si  3.65 -0.03 -11.15
Si  1.76 -3.09 -11.18
Si -3.66 -0.03 -11.15
Si -7.24  8.47  3.71
Si  9.14  7.34  0.73
Si  9.07  5.34 -5.21
Si -7.24  4.25 -8.22
Si -9.13  5.23 -5.24
Si  9.14  3.12  6.70
Si 10.95  4.19  0.78
Si  3.72 -10.51  3.71
Si  0.07 -8.40 -8.22
Si -9.13 -3.21  6.70
Si -10.97  4.19  0.78
Si  7.30  6.30  6.75
Si  1.83  3.12 -11.20
Si -0.01 -10.57 -5.18
Si -7.31  6.30  6.75
Si -1.89  3.24 -11.18
Si -1.82 -3.21 -11.20
Si  1.83 -9.53  6.70
Si  7.30 -6.35  6.75
Si -7.31 -6.35  6.75
Si -1.82 -11.64  0.73
Si  1.76  9.56  6.72
Si  7.38  8.47  3.71
Si 11.03  2.14  3.71
Si  7.38  4.25 -8.22
Si -9.20  3.24  6.72
Si -9.20  7.45  0.75
Si -1.81 -1.05 -11.87
Si  1.86 11.53 -3.02
Si -9.06  7.39  2.98
Si 10.92 -4.19 -2.99
Si  9.09 -5.23 -5.97
Si -9.12 -5.26 -5.91
Si -0.06 -10.50  5.96
Si 10.92  4.25  2.97
Si  9.17  7.32  2.94
Si -0.06 -2.06 11.93
Si  1.79 -1.01 -11.94
Si -1.75 11.61 -2.99
Si  1.90 -11.59  2.98
Si -1.87  1.09 11.93
Si -0.06  2.15 -11.93
Si -9.10 -7.45 -3.02
Si -11.00 -4.19 -2.99
Si -0.06 10.59 -5.97
Si  9.14  5.28  6.03
Si -9.17  5.31  5.96
Si -11.00  4.25  2.97
Si  9.21 -7.37 -2.99
Si -1.79 -11.67  2.94
Si  1.84  1.06 11.99
Si  1.83  7.35  9.64
Si  5.47  7.37 -8.15
Si  3.64 -10.50 -5.22
Si  9.12  1.04 -8.15
Si  1.83 11.57  3.68
Si -3.67 -10.50 -5.22
Si -5.47 -5.30  9.64
Si 10.95  2.16 -5.22
Si -9.13 -7.41  3.68
Si -1.84 11.59  3.78
Si -10.94 -4.26  3.75
Si -3.64 -8.48 -8.18
Si -7.29 -2.15  9.71
Si -5.47  7.35 -8.25
Si  9.12 -7.40  3.78
Si  3.67 -8.48 -8.18
Si -10.97  2.16 -5.22
Si  7.29  8.49 -5.22
Si -9.13  1.02 -8.25
Si  7.32 -2.15  9.71
Si 10.98 -4.26  3.75
Si -1.84  7.37  9.75
Si -7.32  8.49 -5.22
Si  5.47 -5.29  9.75
Si -7.30  8.41  5.95
Si  0.00  4.19 11.91
Si  0.00 12.63 -0.02
Si  7.31  8.41  5.95
Si -3.65 -2.14 11.91
Si -10.96  2.08  5.95
Si -10.96  6.30 -0.02
Si  3.65 -2.14 11.91
Si -3.65 10.52 -5.99
Si 10.96  2.08  5.95
Si  3.65 10.52 -5.99
Si 10.96  6.30 -0.02
Si -3.65 -10.57  5.95
Si -10.96 -6.35 -0.02
Si  3.65 -10.57  5.95
Si -10.96 -2.14 -5.99
Si 10.96 -6.35 -0.02
Si -3.65  2.08 -11.95
Si  3.65  2.08 -11.95
Si 10.96 -2.14 -5.99
Si  0.00 -12.68 -0.02
Si -7.30 -8.46 -5.99
Si  7.31 -8.46 -5.99
Si  0.00 -4.25 -11.95
Si  9.07 -7.31 -5.21
Si  5.42 -9.42  6.72
Si -10.89 -6.29 -2.25
Si -0.01  6.30 -11.15
Si -7.24  4.25  9.68
Si -10.89  6.36 -2.25
Si  5.49  9.45  6.70
Si -5.54 -11.53  0.75
Si  0.07 -8.40  9.68
Si  1.83 11.56 -5.24
Si  0.07 -12.62 -2.25
