500
set: 596.00  0.00  0.00
Si  0.00  0.00  0.00
Si -1.75  1.04  0.73
Si  0.05 -2.06  0.73
Si  1.80  1.04  0.73
Si -0.45 -0.06 -2.19
Si  1.30 -1.09 -2.92
Si -1.30  1.09  2.92
Si  3.55  0.00  0.00
Si -3.55  0.00  0.00
Si -1.75 -3.10  0.00
Si  1.75  3.10  0.00
Si -0.49  2.01 -2.92
Si  0.49 -2.01  2.92
Si -1.80  3.10  0.00
Si  1.80 -3.10  0.00
Si  3.10 -0.06 -2.19
Si  2.25  1.09  2.92
Si -2.25 -1.09 -2.92
Si  1.30  3.04 -2.19
Si -1.25 -0.97  3.65
Si  1.35 -3.16 -2.19
Si -3.50 -2.06  0.73
Si -0.00  4.14  0.73
Si  3.60 -2.06  0.73
Si  0.49  2.13  3.65
Si -2.25  3.04 -2.19
Si  2.29 -0.97  3.65
Si -2.20 -3.16 -2.19
Si -4.00 -0.06 -2.19
Si  3.05  2.01 -2.92
Si -3.05 -2.01  2.92
Si -0.45 -4.20 -2.92
Si  0.45  4.20  2.92
Si -3.05  2.13  3.65
Si  0.86 -1.15 -5.11
Si  4.04 -2.01  2.92
Si -4.04  2.01 -2.92
Si -5.30  1.04  0.73
Si -1.70 -5.16  0.73
Si  0.54 -4.07  3.65
Si  5.35  1.04  0.73
Si  3.55  4.14  0.73
Si -3.55  4.14  0.73
Si  1.85 -5.16  0.73
Si -0.94  1.95 -5.11
Si  4.85 -1.09 -2.92
Si -4.85  1.09  2.92
Si  4.04  2.13  3.65
Si -2.69 -1.15 -5.11
Si  0.81  0.91 -5.84
Si -0.81 -0.91  5.84
Si  3.10 -4.20 -2.92
Si -3.10  4.20  2.92
Si -1.25 -5.11  2.92
Si  1.25  5.11 -2.92
Si  2.61  1.95 -5.11
Si -4.80 -0.97  3.65
Si  4.85  3.04 -2.19
Si  5.30  3.10  0.00
Si -5.30 -3.10  0.00
Si -5.35  3.10  0.00
Si  5.35 -3.10  0.00
Si  0.05 -6.20  0.00
Si -0.05  6.20  0.00
Si  4.90 -3.16 -2.19
Si -3.00 -4.07  3.65
Si  0.94  2.19  5.84
Si -0.94 -2.19 -5.84
Si -2.29  5.11 -2.92
Si  2.29 -5.11  2.92
Si -3.99 -4.20 -2.92
Si  3.99  4.20  2.92
Si  2.74 -0.91  5.84
Si -2.74  0.91 -5.84
Si -1.30  5.23  3.65
Si -0.50  6.14 -2.19
Si  5.79  1.09  2.92
Si -5.79 -1.09 -2.92
Si -0.40 -6.26 -2.19
Si  0.99  0.13  6.57
Si -0.89 -4.25 -5.11
Si -2.61  2.19  5.84
Si  2.61 -2.19 -5.84
Si  2.24  5.23  3.65
Si  4.09 -4.07  3.65
Si  4.41 -1.15 -5.11
Si -5.79  3.04 -2.19
Si -5.75 -3.16 -2.19
Si  5.84 -0.97  3.65
Si  6.65 -0.06 -2.19
Si -2.56  0.13  6.57
Si -4.49  1.95 -5.11
Si  7.10  0.00  0.00
Si -7.10  0.00  0.00
Si -3.50 -6.20  0.00
Si  3.50  6.20  0.00
Si  0.99 -4.01  5.84
Si -0.99  4.01 -5.84
Si  2.65 -4.25 -5.11
Si  3.60 -6.20  0.00
Si -3.60  6.20  0.00
Si  3.05  6.14 -2.19
Si  0.81  5.05 -5.11
Si -0.76 -2.97  6.57
Si  3.15 -6.26 -2.19
Si -4.36 -0.91  5.84
Si  4.36  0.91 -5.84
Si -0.81  3.23  6.57
Si -7.05 -2.06  0.73
Si -5.25 -5.16  0.73
Si  7.14 -2.06  0.73
Si  1.75  7.24  0.73
Si -6.60 -2.01  2.92
Si  6.60  2.01 -2.92
Si -1.80  7.24  0.73
Si  5.39 -5.16  0.73
Si -2.56 -4.01  5.84
Si  2.56  4.01 -5.84
Si -4.80 -5.11  2.92
Si  4.80  5.11 -2.92
Si -4.04  6.14 -2.19
Si  4.49  2.19  5.84
Si -4.49 -2.19 -5.84
Si -2.74  5.05 -5.11
Si -3.95 -6.26 -2.19
Si  2.79 -2.97  6.57
Si  2.74  3.23  6.57
Si -6.60  2.13  3.65
Si -7.54 -0.06 -2.19
Si -0.86  5.29  5.84
Si  0.86 -5.29 -5.84
Si -1.35  7.30  2.92
Si  1.35 -7.30 -2.92
Si  4.54  0.13  6.57
Si -4.44 -4.25 -5.11
Si -4.85  5.23  3.65
Si  0.36  0.85 -8.03
Si -1.21 -7.17  3.65
Si -6.24 -1.15 -5.11
Si  2.20  7.30  2.92
Si -2.20 -7.30 -2.92
Si  6.15  1.95 -5.11
Si  7.10  4.14  0.73
Si -7.10  4.14  0.73
Si -5.84  5.11 -2.92
Si  5.84 -5.11  2.92
Si  0.10 -8.26  0.73
Si -2.69 -5.29 -5.84
Si  2.69  5.29  5.84
Si -7.59  2.01 -2.92
Si  7.59 -2.01  2.92
Si  2.34 -7.17  3.65
Si -6.65  4.20  2.92
Si  6.65 -4.20 -2.92
Si  4.36  5.05 -5.11
Si -4.31 -2.97  6.57
Si -4.54  4.01 -5.84
Si  4.54 -4.01  5.84
Si -1.39 -2.25 -8.03
Si -4.36  3.23  6.57
Si -6.55 -4.07  3.65
Si  2.16 -2.25 -8.03
Si  5.79  5.23  3.65
Si -6.29  0.91 -5.84
Si  6.29 -0.91  5.84
Si -3.19  0.85 -8.03
Si  7.59  2.13  3.65
Si -0.54  8.21 -2.92
Si  0.54 -8.21  2.92
Si  6.16 -2.19 -5.84
Si -6.16  2.19  5.84
Si -1.44 -0.18 -8.76
Si  1.44  0.18  8.76
Si -8.85  1.04  0.73
Si -8.40  1.09  2.92
Si  8.40 -1.09 -2.92
Si  3.91  0.85 -8.03
Si -6.11  0.13  6.57
Si  8.89  1.04  0.73
Si -3.45 -8.26  0.73
Si  0.91 -7.35 -5.11
Si  5.30  7.24  0.73
Si  1.04 -6.07  6.57
Si -2.11  0.18  8.76
Si  2.11 -0.18 -8.76
Si -4.41  5.29  5.84
Si  4.41 -5.29 -5.84
Si -5.35  7.24  0.73
Si -1.44  3.95 -8.03
Si  3.65 -8.26  0.73
Si  6.20 -4.25 -5.11
Si  0.45  8.33  3.65
Si  7.54  4.20  2.92
Si -7.54 -4.20 -2.92
Si -8.35 -0.97  3.65
Si  0.94  6.33  6.57
Si  2.11  3.95 -8.03
Si  8.40  3.04 -2.19
Si  3.00  8.21 -2.92
Si -3.00 -8.21  2.92
Si  0.76  7.11 -5.84
Si -0.76 -7.11  5.84
Si -0.31 -2.92  8.76
Si  0.31  2.92 -8.76
Si  4.90 -7.30 -2.92
Si -4.90  7.30  2.92
Si  6.60  6.14 -2.19
Si  8.45 -3.16 -2.19
Si -2.51 -6.07  6.57
Si -2.64 -7.35 -5.11
Si -4.75 -7.17  3.65
Si  6.11  4.01 -5.84
Si -6.11 -4.01  5.84
Si -0.36  3.29  8.76
Si  0.36 -3.29 -8.76
Si -8.85 -3.10  0.00
Si  8.85  3.10  0.00
Si -7.05 -6.20  0.00
Si  7.05  6.20  0.00
Si  7.64 -4.07  3.65
Si -8.89  3.10  0.00
Si  8.89 -3.10  0.00
Si  6.70 -6.26 -2.19
Si  1.70  9.30  0.00
Si -1.70 -9.30  0.00
Si -7.15  6.20  0.00
Si  7.15 -6.20  0.00
Si  1.85 -9.30  0.00
Si -1.85  9.30  0.00
Si -2.61  6.33  6.57
Si  7.95 -1.15 -5.11
Si -6.29  5.05 -5.11
Si -0.31  1.22  9.49
Si  1.25  9.24 -2.19
Si  6.34 -2.97  6.57
Si -3.10  8.33  3.65
Si  2.79 -7.11  5.84
Si -2.79  7.11 -5.84
Si  4.09 -8.21  2.92
Si -4.09  8.21 -2.92
Si  6.29  3.23  6.57
Si  0.41 -5.35 -8.03
Si -0.99  8.15 -5.11
Si -4.94 -2.25 -8.03
Si  1.40 -9.36 -2.19
Si -8.04  1.95 -5.11
Si  5.74  7.30  2.92
Si -5.74 -7.30 -2.92
Si -2.29  9.24 -2.19
Si  3.23 -2.92  8.76
Si -3.23  2.92 -8.76
Si  1.49 -1.88  9.49
Si -2.15 -9.36 -2.19
Si  9.34  1.09  2.92
Si -9.34 -1.09 -2.92
Si  7.91  0.91 -5.84
Si -7.91 -0.91  5.84
Si -3.19 -3.29 -8.76
Si  3.19  3.29  8.76
Si -2.06 -1.88  9.49
Si  3.99  8.33  3.65
Si  2.56  8.15 -5.11
Si  5.89 -7.17  3.65
Si  4.45 -7.35 -5.11
Si -7.50 -6.26 -2.19
Si  3.86  2.92 -8.76
Si -3.86 -2.92  8.76
Si -7.59  6.14 -2.19
Si  6.24  5.29  5.84
Si -6.24 -5.29 -5.84
Si -9.29 -3.16 -2.19
Si  4.59 -6.07  6.57
Si -9.34  3.04 -2.19
Si -4.99 -0.18 -8.76
Si  4.99  0.18  8.76
Si  5.71 -2.25 -8.03
Si  3.23  1.22  9.49
Si  9.39 -0.97  3.65
Si  3.91 -3.29 -8.76
Si -3.91  3.29  8.76
Si -3.14 -5.35 -8.03
Si  4.31  7.11 -5.84
Si -4.31 -7.11  5.84
Si  4.49  6.33  6.57
Si -8.04 -2.19 -5.84
Si  8.04  2.19  5.84
Si -8.35 -5.11  2.92
Si  8.35  5.11 -2.92
Si -8.80 -5.16  0.73
Si -4.99  3.95 -8.03
Si  0.89  8.39  5.84
Si -0.89 -8.39 -5.84
Si -3.86  1.22  9.49
Si  8.94 -5.16  0.73
Si -0.05 10.34  0.73
Si -7.99 -4.25 -5.11
Si  8.09  0.13  6.57
Si  3.96 -5.35 -8.03
Si 10.20 -0.06 -2.19
Si -5.66  0.18  8.76
Si  5.66 -0.18 -8.76
Si -6.74  0.85 -8.03
Si  1.44  4.32  9.49
Si -8.40  5.23  3.65
Si -2.66  8.39  5.84
Si  2.66 -8.39 -5.84
Si  5.66  3.95 -8.03
Si -4.54  8.15 -5.11
Si -2.11  4.32  9.49
Si  4.80  9.24 -2.19
Si -10.64  0.00  0.00
Si 10.64  0.00  0.00
Si -7.86 -2.97  6.57
Si  7.90  5.05 -5.11
Si  5.25  9.30  0.00
Si -5.25 -9.30  0.00
Si  0.31  7.05 -8.03
Si -0.27 -4.98  9.49
Si -1.49  6.02 -8.76
Si  1.49 -6.02  8.76
Si 10.15  2.01 -2.92
Si -10.15 -2.01  2.92
Si  8.09 -4.01  5.84
Si -8.09  4.01 -5.84
Si  5.40 -9.30  0.00
Si -5.40  9.30  0.00
Si -7.91  3.23  6.57
Si -0.40 -10.40 -2.92
Si  0.40 10.40  2.92
Si -6.06 -6.07  6.57
Si  4.95 -9.36 -2.19
Si -10.60 -2.06  0.73
Si -2.06 -6.02  8.76
Si  2.06  6.02 -8.76
Si -7.00 -8.26  0.73
Si -6.19 -7.35 -5.11
Si -6.55 -8.21  2.92
Si  6.55  8.21 -2.92
Si  5.03 -1.88  9.49
Si 10.69 -2.06  0.73
Si  0.59 -10.27  3.65
Si -1.39 -6.38 -8.76
Si  1.39  6.38  8.76
Si  3.50 10.34  0.73
Si -3.60 10.34  0.73
Si  7.19 -8.26  0.73
Si  7.46  0.85 -8.03
Si -10.15  2.13  3.65
Si -6.16  6.33  6.57
Si -2.16  6.38  8.76
Si  2.16 -6.38 -8.76
Si  1.67 -0.24 -10.95
Si  9.39 -5.11  2.92
Si -9.39  5.11 -2.92
Si -9.79 -1.15 -5.11
Si -1.88 -0.24 -10.95
Si  9.70  1.95 -5.11
Si -4.44 -8.39 -5.84
Si  4.44  8.39  5.84
Si -5.84  9.24 -2.19
Si -3.24  7.05 -8.03
Si -5.70 -9.36 -2.19
Si -6.34  7.11 -5.84
Si  6.34 -7.11  5.84
Si -5.61 -1.88  9.49
Si -7.95  5.29  5.84
Si  7.95 -5.29 -5.84
Si  3.28 -4.98  9.49
Si -3.15 10.40  2.92
Si  3.15 -10.40 -2.92
Si -6.65  8.33  3.65
Si -2.96 -10.27  3.65
Si -11.09 -0.06 -2.19
Si -0.71 -9.17  6.57
Si  9.34  5.23  3.65
Si -0.13  2.86 -10.95
Si  3.86  7.05 -8.03
Si -3.81 -4.98  9.49
Si  6.11  8.15 -5.11
Si -10.20  4.20  2.92
Si 10.20 -4.20 -2.92
Si 10.64  4.14  0.73
Si -0.09 -3.34 -10.95
Si -10.65  4.14  0.73
Si  8.85  7.24  0.73
Si  6.78 -2.92  8.76
Si -6.78  2.92 -8.76
Si -9.84  0.91 -5.84
Si  9.84 -0.91  5.84
Si -10.10 -4.07  3.65
Si -8.90  7.24  0.73
Si -3.94 -10.40 -2.92
Si  3.94 10.40  2.92
Si -1.65 -11.36  0.73
Si -0.86  9.43  6.57
Si  6.73  3.29  8.76
Si -6.73 -3.29 -8.76
Si -9.70  2.19  5.84
Si  9.70 -2.19 -5.84
Si  8.45 -7.30 -2.92
Si -8.45  7.30  2.92
Si  1.90 -11.36  0.73
Si  4.98  4.32  9.49
Si -8.30 -7.17  3.65
Si -7.64  8.21 -2.92
Si  7.64 -8.21  2.92
Si  2.84 -9.17  6.57
Si  4.14 -10.27  3.65
Si -0.84 -10.45 -5.11
Si -9.66  0.13  6.57
Si -11.14  2.01 -2.92
Si 11.14 -2.01  2.92
Si -1.34 -8.45 -8.03
Si  6.78  1.22  9.49
Si -6.69 -5.35 -8.03
Si -1.21 -11.31  2.92
Si  1.21 11.31 -2.92
Si -0.13 -1.28 -11.68
Si  0.13  1.28 11.68
Si  5.03 -6.02  8.76
Si -5.03  6.02 -8.76
Si  9.75 -4.25 -5.11
Si  2.69  9.43  6.57
Si  1.04 -10.21  5.84
Si -1.04 10.21 -5.84
Si  3.41  2.86 -10.95
Si  7.54  8.33  3.65
Si  7.41  2.92 -8.76
Si -7.41 -2.92  8.76
Si  2.21 -8.45 -8.03
Si -5.66  4.32  9.49
Si -8.48 -2.25 -8.03
Si -3.68  2.86 -10.95
Si -4.94 -6.38 -8.76
Si  4.94  6.38  8.76
Si -2.34 11.31 -2.92
Si  2.34 -11.31  2.92
Si 11.14  2.13  3.65
Si  1.62  1.82 -11.68
Si -1.62 -1.82 11.68
Si  2.70 -10.45 -5.11
Si  3.46 -3.34 -10.95
Si  6.21 -8.39 -5.84
Si -6.21  8.39  5.84
Si  7.46 -3.29 -8.76
Si -7.46  3.29  8.76
Si  9.65  4.01 -5.84
Si -9.65 -4.01  5.84
Si -1.93  1.82 -11.68
Si  1.93 -1.82 11.68
Si -3.63 -3.34 -10.95
Si  8.00 -7.35 -5.11
Si  5.61  6.02 -8.76
Si -5.61 -6.02  8.76
Si -2.51 -10.21  5.84
Si  2.51 10.21 -5.84
Si -0.36  7.42  9.49
Si -4.26 -9.17  6.57
Si 10.15  6.14 -2.19
Si -1.35 11.43  3.65
Si  8.13 -6.07  6.57
Si -7.86 -7.11  5.84
Si  7.86  7.11 -5.84
Si -7.41  1.22  9.49
Si  5.21 -0.24 -10.95
Si  8.04  6.33  6.57
Si  9.29  7.30  2.92
Si -9.29 -7.30 -2.92
Si -9.84  5.05 -5.11
Si  2.19 11.43  3.65
Si 10.25 -6.26 -2.19
Si 11.09  4.20  2.92
Si -11.09 -4.20 -2.92
Si  7.51 -5.35 -8.03
Si -5.43 -0.24 -10.95
Si -8.53 -0.18 -8.76
Si  8.53  0.18  8.76
Si  3.42 -1.28 -11.68
Si -3.42  1.28 11.68
Si  9.88 -2.97  6.57
Si  5.71 -6.38 -8.76
Si -5.71  6.38  8.76
Si  9.84  3.23  6.57
Si -10.60 -6.20  0.00
Si 10.60  6.20  0.00
Si -4.41  9.43  6.57
Si -3.68 -1.28 -11.68
Si  3.68  1.28 11.68
Si 11.95 -1.09 -2.92
Si -11.95  1.09  2.92
Si 10.69 -6.20  0.00
Si -10.69  6.20  0.00
Si -8.53  3.95 -8.03
Si  0.76 11.25 -5.11
Si  0.10 -12.40  0.00
Si -0.10 12.40  0.00
Si  9.44 -7.17  3.65
Si -4.39 -10.45 -5.11
Si  0.18 -0.78 12.41
Si 11.19 -4.07  3.65
