500
set: 1374.00  0.00  0.00
Si  0.09  0.17  0.30
Si  0.79  1.21 -1.69
Si  1.97 -1.19 -0.29
Si -2.43 -0.63  0.87
Si  0.96  1.90  1.69
Si  1.30 -2.23  1.69
Si  1.63  2.95 -0.29
Si  1.13 -2.93 -1.69
Si -0.75  1.41 -3.19
Si -3.45 -0.42 -0.88
Si -0.98 -1.95  2.96
Si -1.33  2.18  2.96
Si -3.03  1.69 -1.93
Si -3.19  1.40  1.92
Si  0.44 -3.96  0.30
Si -2.69 -2.45 -1.93
Si -0.41 -2.73 -3.19
Si -0.25  4.30  0.30
Si  3.06  0.90 -2.97
Si -1.75  0.08  4.00
Si -2.85 -2.73  1.92
Si  2.49  1.70  3.20
Si -2.77  3.50  0.87
Si  4.50 -0.42 -0.88
Si -1.61 -0.33 -4.58
Si  2.84 -2.43  3.20
Si -2.09 -4.76  0.87
Si  4.76  1.40  1.92
Si -3.79  3.71 -0.88
Si  0.27 -1.68 -5.17
Si  1.80  0.67  5.18
Si  4.92  1.69 -1.93
Si  3.40 -3.23 -2.97
Si -3.11 -4.55 -0.88
Si  0.44  5.34 -1.69
Si  5.52 -0.63  0.87
Si  4.16  3.71 -0.88
Si  3.82 -1.13 -4.01
Si -0.08  2.45 -5.17
Si -4.90  0.90 -2.97
Si -0.72 -0.13  5.75
Si  2.31 -5.32 -0.29
Si -1.40 -4.06  4.00
Si -4.14 -1.13 -4.01
Si  3.68 -0.69  4.59
Si  5.11 -2.73  1.92
Si  3.47  3.01 -4.01
Si -5.98 -1.19 -0.29
Si  5.26 -2.45 -1.93
Si -2.09  4.21  4.00
Si -1.96  3.81 -4.58
Si  0.61  6.04  1.69
Si  5.18  3.50  0.87
Si -4.28 -0.69  4.59
Si -4.55 -3.23 -2.97
Si  2.71  5.04 -2.97
Si  2.80 -0.92 -5.76
Si -1.09  5.54 -3.19
Si -5.12 -2.43  3.20
Si -1.27 -4.46 -4.58
Si -5.46  1.70  3.20
Si  2.14 -3.46  5.18
Si  3.33  3.44  4.59
Si -0.92  0.71 -6.57
Si  4.85 -4.55 -0.88
Si -4.48  3.01 -4.01
Si  1.65 -6.36  1.69
Si -0.64 -6.08  2.96
Si -3.54  5.53  1.92
Si -6.33  2.95 -0.29
Si  2.15  5.84  3.20
Si -3.38  5.82 -1.93
Si  2.45  3.22 -5.76
Si -1.07  4.00  5.75
Si -1.67  6.32  2.96
Si -0.38 -4.27  5.75
Si  1.28  7.08 -0.29
Si -1.49  1.90  6.80
Si  1.46  4.80  5.18
Si -6.65 -2.23  1.69
Si -1.14 -2.24  6.80
Si -2.35 -6.58 -1.93
Si  4.42  5.53  1.92
Si -4.62  3.44  4.59
Si  6.21  0.08  4.00
Si  1.48 -7.06 -1.69
Si -0.57 -3.42 -6.57
Si  3.01 -1.73  6.58
Si -7.00  1.90  1.69
Si -7.17  1.21 -1.69
Si  2.66  2.40  6.58
Si -2.50 -6.87  1.92
Si -0.06 -6.86 -3.19
Si  6.63  2.18  2.96
Si  5.87 -4.76  0.87
Si -6.82 -2.93 -1.69
Si  3.21  1.19 -6.81
Si -3.79 -5.26 -4.01
Si  4.58  5.82 -1.93
Si -3.93 -4.82  4.59
Si -5.64 -5.32 -0.29
Si  4.02 -4.82  4.59
Si -5.16 -0.92 -5.76
Si  0.61 -5.82 -5.17
Si  4.16 -5.26 -4.01
Si  6.97 -1.95  2.96
Si  6.34 -0.33 -4.58
Si -5.24  5.04 -2.97
Si -7.86  0.17  0.30
Si  3.18 -6.56  3.20
Si  1.35  0.41 -7.85
Si  7.21  1.41 -3.19
Si  0.72 -1.46  7.84
Si  8.05  0.17  0.30
Si -6.16  0.67  5.18
Si  0.78 -8.10  0.30
Si  3.56 -2.94 -6.81
Si  5.87  4.21  4.00
Si -1.26  4.84 -6.57
Si  3.14 -5.05 -5.76
Si  0.38  2.68  7.84
Si -3.12  7.64  0.87
Si -4.74  1.19 -6.81
Si -0.42  6.59 -5.17
Si -4.95 -1.73  6.58
Si  6.00  3.81 -4.58
Si -0.59  8.44  0.30
Si -2.45  0.91 -8.07
Si -7.52 -3.96  0.30
Si -5.81 -3.46  5.18
Si -5.50  3.22 -5.76
Si -4.40 -2.94 -6.81
Si  7.55 -2.73 -3.19
Si  6.55 -4.06  4.00
Si -4.77 -6.56  3.20
Si  3.13  7.14 -4.01
Si  3.82  7.85 -0.88
Si -5.29  2.40  6.58
Si  3.75 -7.36 -2.97
Si  7.71  4.30  0.30
Si -5.80  5.84  3.20
Si  1.70 -3.73 -7.85
Si  5.61 -6.58 -1.93
Si -0.04  0.57  8.89
Si -4.14  7.85 -0.88
Si -2.11 -3.22 -8.07
Si  5.45 -6.87  1.92
Si -3.41 -1.93  8.08
Si  8.74  1.21 -1.69
Si -4.21 -7.36 -2.97
Si -4.81 -5.05 -5.76
Si  4.84  7.64  0.87
Si  2.87  5.32 -6.81
Si -1.74 -8.90  0.87
Si -6.31 -6.36  1.69
Si  1.01  4.54 -7.85
Si -2.76 -8.69 -0.88
Si -1.06 -8.19  4.00
Si -3.76  2.20  8.08
Si  7.23 -0.13  5.75
Si  6.69 -4.46 -4.58
Si  8.91  1.90  1.69
Si -1.83  6.03  6.80
Si -8.20  4.30  0.30
Si  8.39 -3.96  0.30
Si  2.11 -1.62 -8.90
Si -0.80 -6.37  6.80
Si  2.99  7.58  4.59
Si -8.36 -2.73 -3.19
Si  4.20  2.20  8.08
Si -7.51  5.34 -1.69
Si -8.70  1.41 -3.19
Si  6.86  5.54 -3.19
Si  6.28  6.32  2.96
Si  1.77  2.51 -8.90
Si -7.69 -1.68 -5.17
Si  3.35 -5.87  6.58
Si -2.30  7.94 -4.58
Si  4.54 -1.93  8.08
Si -4.82  7.14 -4.01
Si  2.49 -7.60  5.18
Si  2.32  6.53  6.58
Si -2.43  8.35  4.00
Si  6.47  1.90  6.80
Si  2.11  7.35 -5.76
Si  0.30 -3.56  8.89
Si -6.50  4.80  5.18
Si -8.94 -1.95  2.96
Si  0.10  9.47 -1.69
Si  7.04  0.71 -6.57
Si -7.34  6.04  1.69
Si  9.26 -2.23  1.69
Si  1.06 -5.59  7.84
Si  9.09 -2.93 -1.69
Si -6.48 -7.06 -1.69
Si -6.67  7.08 -0.29
Si  7.88  2.45 -5.17
Si -0.92 -8.59 -4.58
Si  5.50  0.91 -8.07
Si -2.57 -0.19  9.47
Si  6.88  4.00  5.75
Si  2.66 -9.45 -0.29
Si  8.22 -1.68 -5.17
Si -8.03  2.45 -5.17
Si  6.81 -2.24  6.80
Si -2.80  5.04 -8.07
Si  2.37  9.17 -2.97
Si -4.60 -5.87  6.58
Si  7.31 -6.08  2.96
Si -9.28  2.18  2.96
Si  9.93 -1.19 -0.29
Si -0.23 -7.56 -6.57
Si -5.08  5.32 -6.81
Si  9.58  2.95 -0.29
Si -1.41  8.13  5.75
Si -3.32 -0.82 -9.46
Si -0.38  4.71  8.89
Si  8.40  5.34 -1.69
Si  5.19 -8.69 -0.88
Si -4.96  7.58  4.59
Si -0.04 -8.40  5.75
Si -6.60  0.41 -7.85
Si -1.44  9.67 -3.19
Si  0.27 10.17  1.69
Si  0.03  6.81  7.84
Si -1.44 -2.18 -10.05
Si  1.11  8.94  5.18
Si -1.78  1.96 -10.05
Si -8.68 -0.13  5.75
Si  7.57 -4.27  5.75
Si -10.38 -0.63  0.87
Si  7.38 -3.42 -6.57
Si  5.84 -3.22 -8.07
Si -9.70  0.08  4.00
Si  6.69  4.84 -6.57
Si -3.07 -6.07  8.08
Si  3.90 -7.08 -6.81
Si  4.64 -0.82 -9.46
Si -3.88  9.67  1.92
Si -9.57 -0.33 -4.58
Si  8.57  6.04  1.69
Si -4.05 -7.08 -6.81
Si  1.81  9.97  3.20
Si -0.30 -10.22  2.96
Si -2.23 -4.33  9.47
Si  4.08  9.67  1.92
Si -2.92  3.94  9.47
Si -3.66  3.31 -9.46
Si  0.98  0.36 10.63
Si -3.59 -8.96  4.59
Si -5.47 -7.60  5.18
Si -7.34 -5.82 -5.17
Si -6.26 -3.73 -7.85
Si  3.50  1.16 10.06
Si -7.23 -1.46  7.84
Si -5.84 -1.62 -8.90
Si  5.66  7.94 -4.58
Si  5.52  8.35  4.00
Si -3.45 -9.39 -4.01
Si  1.09 -1.41 -10.64
Si -3.72  9.95 -1.93
Si  1.99 -10.50  1.69
Si -7.17 -8.10  0.30
Si  5.16  5.04 -8.07
Si -5.30 -9.45 -0.29
Si -5.64  6.53  6.58
Si  2.46 -5.76 -8.90
Si  6.21 -8.90  0.87
Si  5.38 -0.19  9.47
Si  4.29  3.31 -9.46
Si  7.89 -6.86 -3.19
Si -8.60 -6.08  2.96
Si -9.36 -4.06  4.00
Si  6.12  6.03  6.80
Si  3.85  6.33  8.08
Si  4.36 -8.96  4.59
Si  4.23  9.95 -1.93
Si -8.34 -4.27  5.75
Si  0.75  2.72 -10.64
Si -5.84  7.35 -5.76
Si -8.02 -6.86 -3.19
Si -2.02 10.45  2.96
Si -4.10  6.33  8.08
Si 10.45  1.70  3.20
Si -8.87  0.71 -6.57
Si -1.77 -7.36 -8.07
Si  9.75  0.67  5.18
Si -4.45  1.16 10.06
Si -2.00 -10.71 -1.93
Si -9.05  5.54 -3.19
Si -2.97 -4.96 -9.46
Si -10.64 -2.45 -1.93
Si -6.19  2.51 -8.90
Si -5.58  9.17 -2.97
Si -10.04 -4.76  0.87
Si  4.51 -9.39 -4.01
Si  3.85 -2.97 10.06
Si  1.43  6.64 -8.90
Si  7.36  8.44  0.30
Si -9.22 -4.46 -4.58
Si  4.89 -6.07  8.08
Si -7.58  2.68  7.84
Si -1.61  8.98 -6.57
Si  0.95 -9.95 -5.17
Si  0.94 11.21 -0.29
Si  7.53  6.59 -5.17
Si -4.11 -2.97 10.06
Si -10.99  1.69 -1.93
Si  2.04 -7.86 -7.85
Si -8.53 -3.42 -6.57
Si -10.80 -2.73  1.92
Si -10.73  3.50  0.87
Si  1.32 -3.77 10.63
Si -2.16 -11.00  1.92
Si  3.48 -9.18 -5.76
Si -11.15  1.40  1.92
Si -9.02  4.00  5.75
Si -6.95  4.54 -7.85
Si  6.90 -8.19  4.00
Si  5.04  3.94  9.47
Si 11.01  0.90 -2.97
Si -11.41 -0.42 -0.88
Si  0.28 -10.99 -3.19
Si  1.82 -11.19 -1.69
Si 10.79 -2.43  3.20
Si  0.64  4.50 10.63
Si -9.91  3.81 -4.58
Si 10.27 -5.32 -0.29
Si  8.56 -5.82 -5.17
Si -9.10 -2.24  6.80
Si -10.04  4.21  4.00
Si  9.60 -6.36  1.69
Si  9.24  7.08 -0.29
Si  3.52 -10.70  3.20
Si  0.66  8.68 -7.85
Si -4.47 -9.18 -5.76
Si  7.16 -6.37  6.80
Si -2.62  0.21 -11.45
Si  8.33  2.68  7.84
Si  9.41  4.80  5.18
Si  0.65 -7.69  8.89
Si  8.68 -1.46  7.84
Si -9.44  1.90  6.80
Si  4.98 -4.96 -9.46
Si  3.16  5.30 10.06
Si  1.51  0.69 -11.69
Si  0.56 -1.74 11.68
Si -6.89 -5.59  7.84
Si -8.38  6.59 -5.17
Si 10.10 -3.46  5.18
Si  5.73 -4.33  9.47
Si -9.63  6.32  2.96
Si  9.43 -7.06 -1.69
Si  8.74 -8.10  0.30
Si  7.92  0.57  8.89
Si  6.54  8.13  5.75
Si  2.53  9.46 -6.81
Si -1.10 -6.31 -10.05
Si  0.22  2.39 11.68
Si -0.77 10.72 -5.17
Si -5.50 -5.76 -8.90
Si -2.13  6.09 -10.05
Si  6.17  1.96 -10.05
Si -7.99  0.57  8.89
Si -3.24 -1.24 11.46
Si -11.06 -4.55 -0.88
Si  7.03 -8.59 -4.58
Si -4.43 -10.70  3.20
Si -8.55  8.44  0.30
Si  1.44 -5.54 -10.64
Si  6.52  9.67 -3.19
Si 10.10  5.84  3.20
Si -6.15  9.97  3.20
Si 10.67  5.04 -2.97
Si 11.36 -3.23 -2.97
Si  6.51 -2.18 -10.05
Si  9.31  0.41 -7.85
Si -5.97 -10.50  1.69
Si 10.75 -0.92 -5.76
Si -7.65 -3.56  8.89
Si  1.13 -12.23  0.30
Si  2.79 11.27 -4.01
Si -3.46 11.77  0.87
Si -9.22  4.84 -6.57
Si -2.28 -3.92 -11.45
Si 10.41  3.22 -5.76
Si  1.85 -3.44 -11.69
Si -4.79  5.30 10.06
Si -3.59  2.90 11.46
Si -11.75  3.71 -0.88
Si -10.30 -6.58 -1.93
Si  5.94 10.45  2.96
Si -6.84  8.94  5.18
Si  5.95 -10.71 -1.93
Si -2.17 10.16  6.80
Si -7.85  9.47 -1.69
Si  4.71 -1.24 11.46
Si 11.43  3.01 -4.01
Si -3.87 -11.50 -2.97
Si 11.77 -1.13 -4.01
Si 12.46 -0.42 -0.88
Si  3.47 11.98 -0.88
Si -0.46 -10.50  6.80
Si 11.63 -0.69  4.59
Si  3.69 -10.00  6.58
Si  8.05  9.47 -1.69
Si  6.19 -7.36 -8.07
Si  4.09 -11.50 -2.97
Si -0.73  8.84  8.89
Si  1.41 -9.72  7.84
Si  5.79 -11.00  1.92
Si -5.92 -7.86 -7.85
Si  7.57  4.71  8.89
Si  4.37  2.90 11.46
Si -2.97  4.35 -11.45
Si -0.94 12.57  0.30
Si -3.14  9.18 -8.07
Si  4.49 11.77  0.87
Si  5.33  0.21 -11.45
Si  8.26 -3.56  8.89
Si  7.72 -7.56 -6.57
Si -10.46 -6.87  1.92
Si 11.29  3.44  4.59
Si  0.40  6.86 -10.64
Si  3.95  7.45 -9.46
Si  1.98 10.67  6.58
Si -4.00  7.45 -9.46
Si  1.17  4.83 -11.69
Si 12.11  3.71 -0.88
Si -4.26 -10.00  6.58
Si 10.62  2.40  6.58
Si -6.97  0.36 10.63
Si -0.35 -0.09 -12.73
Si -6.86 -1.41 -10.64
Si  8.96  4.54 -7.85
Si -8.75 -6.37  6.80
Si -12.09 -1.13 -4.01
Si  6.35  8.98 -6.57
Si -9.01 -8.19  4.00
Si -4.48 11.98 -0.88
Si -1.89 -8.46  9.47
Si -5.43  9.46 -6.81
Si  2.65 11.71  4.59
Si -7.68 10.17  1.69
Si -3.26  8.07  9.47
Si -6.14 -11.19 -1.69
Si -3.76 -7.10 10.06
Si -6.53  6.64 -8.90
Si -11.33  5.82 -1.93
Si -11.49  5.53  1.92
Si  7.92 -8.40  5.75
Si 10.96 -1.73  6.58
Si -8.19 -7.56 -6.57
Si 12.72  1.40  1.92
Si -7.99 -8.40  5.75
Si  1.77 11.48 -5.76
Si -0.71 -12.32  4.00
Si -2.90 -5.37 11.46
Si  9.65 -3.73 -7.85
Si  2.43 -0.96 12.72
Si  4.19 -7.10 10.06
Si -5.17 11.27 -4.01
Si -7.92  6.81  7.84
Si -8.34  4.71  8.89
Si -2.42 -12.82 -0.88
Si -12.23 -0.69  4.59
Si -6.63 -3.77 10.63
Si  7.99  6.81  7.84
Si  0.91 -5.87 11.68
Si  7.66 -10.22  2.96
Si  5.83  6.09 -10.05
Si 12.88  1.69 -1.93
Si 11.17  1.19 -6.81
Si -1.40 -13.03  0.87
Si  2.83 -11.73  5.18
Si  4.81  9.18 -8.07
Si -7.21  2.72 -10.64
Si -1.71 -1.44 12.96
Si -8.88 -8.59 -4.58
Si -2.64 12.08 -4.58
Si  8.22 10.17  1.69
Si -9.70 -8.90  0.87
Si  9.02 -5.59  7.84
Si -10.41  0.91 -8.07
Si -7.00 -9.95 -5.17
Si -12.85  0.90 -2.97
Si  4.99  4.35 -11.45
Si -7.01 11.21 -0.29
Si -12.51 -3.23 -2.97
Si  2.08  3.17 12.72
Si -2.72 -10.20  8.08
Si -10.06 -3.22 -8.07
Si  4.70  8.07  9.47
Si 11.13 -6.56  3.20
Si -9.78  6.03  6.80
Si  1.67 -7.91 10.63
Si  5.67 -3.92 -11.45
Si -6.45  0.69 -11.69
Si -0.70  4.04 -12.73
Si -0.12  6.53 11.68
