500
set: 413.00  0.00  0.00
Si  0.05  0.11  0.07
Si  0.06 -2.04  0.75
Si  0.02 -0.01 -2.20
Si -1.87  1.05  0.75
Si  1.93  1.10  0.79
Si -1.78 -3.13  0.05
Si  3.63 -0.03  0.00
Si -0.02  2.08 -2.99
Si -1.77  1.04  3.02
Si -1.89  3.12 -0.12
Si -1.80 -1.05 -3.00
Si  1.88  1.07  3.00
Si  1.91 -1.08 -2.99
Si  1.79 -3.24 -0.12
Si -0.02 -2.17  3.01
Si -3.72 -0.03  0.00
Si  1.89  3.24  0.05
Si -0.03  4.16  0.68
Si -3.64 -0.00 -2.23
Si -1.94 -1.10  3.65
Si -1.86 -3.17 -2.21
Si  1.82  3.20 -2.21
Si  3.64 -2.21  0.68
Si  3.71 -0.00 -2.23
Si  0.03  2.12  3.78
Si  1.82 -1.04  3.80
Si  1.74 -3.22 -2.35
Si -3.71 -2.21  0.68
Si -1.94  3.15 -2.35
Si  3.57 -2.12  2.96
Si  3.57  2.12 -3.04
Si -0.11  4.25  2.96
Si -0.11 -4.25 -3.04
Si -3.79 -2.12  2.96
Si -3.79  2.12 -3.04
Si -1.75 -1.02 -5.21
Si -5.43  1.10  0.79
Si -1.75 -5.27  0.79
Si  5.48  1.05  0.75
Si  1.80 -1.07 -5.25
Si  1.80 -5.32  0.75
Si -3.66  2.11  3.81
Si -3.62  4.32  0.75
Si  0.06  2.20 -5.25
Si  3.69  2.11  3.81
Si  0.02 -4.26  3.81
Si  3.73  4.32  0.75
Si -1.89 -1.12  5.89
Si  5.47  3.12 -0.12
Si -5.45 -1.08 -2.99
Si -1.78  1.11 -5.95
Si -1.77  5.29 -2.99
Si  3.65  4.20  3.01
Si -5.47  1.07  3.00
Si -0.04  6.34  0.00
Si -5.46  3.24  0.05
Si -1.80 -5.30  3.00
Si -3.70  4.20  3.01
Si -0.04  2.10  6.01
Si -0.04 -2.15 -6.00
Si  3.65 -4.29 -2.99
Si  1.88  5.31 -3.00
Si  5.57 -3.13  0.05
Si -0.04 -6.39  0.00
Si  5.56 -1.05 -3.00
Si -3.70 -4.29 -2.99
Si  1.91 -5.33  3.02
Si  1.89 -1.01  6.06
Si  5.58  1.04  3.02
Si -5.56 -3.24 -0.12
Si  1.79  1.00 -6.12
Si  5.41 -1.10  3.65
Si  1.74  5.27  3.65
Si -0.03 -0.09  6.69
Si  5.41  3.15 -2.35
Si  5.50 -3.17 -2.21
Si  0.03  6.37 -2.23
Si  0.04 -6.37 -2.23
Si -3.64 -4.25  3.78
Si  3.64  2.04 -5.32
Si -5.54  3.20 -2.21
Si  3.71 -4.25  3.78
Si -5.54 -1.04  3.80
Si -1.86  5.32  3.80
Si -3.71  2.04 -5.32
Si -0.03 -4.33 -5.32
Si -5.62 -3.22 -2.35
Si -3.63 -6.26  0.07
Si -3.63 -2.01 -5.93
Si  3.73 -6.26  0.07
Si  3.73 -2.01 -5.93
Si -7.30  0.11  0.07
Si  0.05 -4.13  6.08
Si  0.05  4.36 -5.93
Si  7.41  0.11  0.07
Si -3.63  2.23  6.08
Si -3.63  6.48  0.07
Si  3.73  2.23  6.08
Si  3.73  6.48  0.07
Si -7.30 -2.04  0.75
Si -3.62 -4.17 -5.25
Si -3.66  6.36 -2.20
Si -7.33 -0.01 -2.20
Si -3.62  0.08  6.76
Si  1.80  7.42  0.75
Si  3.69  6.36 -2.20
Si  3.73 -4.17 -5.25
Si -3.66 -6.38 -2.20
Si  1.80  3.17  6.76
Si -1.87  5.29 -5.25
Si  7.37 -0.01 -2.20
Si  3.70 -6.38 -2.20
Si -1.87 -3.20  6.76
Si  1.93  5.34 -5.21
Si -1.75  7.47  0.79
Si -5.55 -1.07 -5.25
Si  5.60 -1.02 -5.21
Si  3.73  0.08  6.76
Si -1.75  3.22  6.80
Si -5.55 -5.32  0.75
Si  7.41 -2.04  0.75
Si  5.60 -5.27  0.79
Si  1.93 -3.15  6.80
Si  1.79  5.25  5.89
Si  5.47 -1.12  5.89
Si  1.89 -5.26 -5.95
Si  7.33  2.08 -2.99
Si  3.63  4.22 -6.00
Si -5.45 -5.33  3.02
Si -5.47  5.31 -3.00
Si  7.33 -2.17  3.01
Si -5.46 -1.01  6.06
Si -1.77 -7.45 -2.99
Si  3.64 -4.27  6.01
Si -1.80  7.44  3.00
Si  1.88 -7.42 -3.00
Si -3.72  4.22 -6.00
Si  1.91  7.41  3.02
Si  5.57  1.11 -5.95
Si -7.38  2.08 -2.99
Si  5.56 -5.30  3.00
Si  5.58  5.29 -2.99
Si -3.72 -4.27  6.01
Si -7.38 -2.17  3.01
Si -1.78  5.36  6.06
Si -5.56  1.00 -6.12
Si -1.88 -5.37 -6.12
Si  7.32  4.16  0.68
Si -1.86  1.08 -8.21
Si  1.74 -7.46  3.65
Si  0.04 -2.12 -8.23
Si -7.39  4.16  0.68
Si -7.32  2.12  3.78
Si -5.62  5.27  3.65
Si -1.86 -7.41  3.80
Si  5.50  5.32  3.80
Si  7.39  2.12  3.78
Si  1.74  1.03 -8.36
Si -0.03 -8.58  0.68
Si  7.24  4.25  2.96
Si  7.24 -4.25 -3.04
Si -0.11 -0.00  8.97
Si -0.11 -8.49  2.96
Si -0.11  8.49 -3.04
Si -0.11 -0.00 -9.05
Si -7.46  4.25  2.96
Si -7.46 -4.25 -3.04
Si -3.62 -8.41  0.75
Si -5.43  5.34 -5.21
Si  0.02  4.23 -8.20
Si -3.66 -2.13 -8.20
Si  0.06 -6.29  6.76
Si  3.74 -8.41  0.75
Si  3.70 -2.13 -8.20
Si  1.93 -7.39 -5.21
Si -5.43 -3.15  6.80
Si -7.30  2.20 -5.25
Si  5.48  5.29 -5.25
Si  5.48 -3.20  6.76
Si  0.02  8.48  3.81
Si -5.55  7.42  0.75
Si -7.33 -4.26  3.81
Si -1.87 -7.44 -5.25
Si -5.55  3.17  6.76
Si -9.23  1.05  0.75
Si  7.37 -4.26  3.81
Si  0.06  6.45  6.76
Si  7.41  2.20 -5.25
Si  5.60  7.47  0.79
Si  9.28  1.10  0.79
Si  5.60  3.22  6.80
Si -5.46 -5.26 -5.95
Si -5.56  5.25  5.89
Si -9.14 -3.13  0.05
Si  1.79  9.49 -0.12
Si -9.12  1.04  3.02
Si  3.65  8.45 -2.99
Si  7.31  6.34  0.00
Si -5.45  7.41  3.02
Si  1.89 -9.50  0.05
Si -9.15 -1.05 -3.00
Si  7.31  2.10  6.01
Si  1.79 -7.49  5.89
Si -3.70  8.45 -2.99
Si -5.47 -7.42 -3.00
Si  7.31 -2.15 -6.00
Si  9.15 -3.24 -0.12
Si -1.77 -3.20 -8.99
Si  3.65 -0.04 -9.00
Si -1.78 -7.38  6.06
Si  7.31 -6.39  0.00
Si  1.91  3.17 -8.99
Si -1.80  3.19 -9.01
Si -1.80  3.19  9.01
Si  3.65 -0.04  9.02
Si -3.70 -0.04 -9.00
Si  1.88 -3.18 -9.01
Si  1.88 -3.18  9.01
Si -1.77 -3.20  9.02
Si -7.40  6.34  0.00
Si  1.89  7.48 -5.95
Si -3.70 -0.04  9.02
Si  1.91  3.16  9.02
Si -9.24  3.12 -0.12
Si -7.40  2.10  6.01
Si  5.55  7.44  3.00
Si  3.65 -8.54  3.01
Si -7.40 -2.15 -6.00
Si -1.89  7.37 -6.12
Si  9.23  1.07  3.00
Si -1.79  9.61  0.05
Si -7.39 -6.39  0.00
Si  5.59 -7.45 -2.99
Si -3.70 -8.54  3.01
Si  9.26 -1.08 -2.99
Si -1.88 -9.61 -0.12
Si  9.25  3.24  0.05
Si  5.47 -5.37 -6.12
Si  5.57  5.36  6.06
Si  1.74  1.03  9.66
Si  3.64  6.28  6.69
Si -3.71  6.28  6.69
Si  7.32 -0.09  6.69
Si  9.09 -3.22 -2.35
Si  1.82 -5.29 -8.21
Si  5.50  1.08 -8.21
Si -0.03  8.40 -5.32
Si -3.64  4.24 -8.23
Si -7.32  6.37 -2.23
Si -7.32 -6.37 -2.23
Si  1.82 -9.54 -2.21
Si  1.74  9.52 -2.35
Si  9.17  3.20 -2.21
Si -7.39 -0.09  6.69
Si  3.71  4.24 -8.23
Si  5.50 -7.41  3.80
Si -3.64  8.49  3.78
Si  9.17 -1.04  3.80
Si  3.65 -6.46  6.69
Si -9.21 -3.17 -2.21
Si -1.86  9.57 -2.21
Si  7.39  6.37 -2.23
Si  3.71  8.49  3.78
Si  7.39 -6.37 -2.23
Si -3.71 -6.46  6.69
Si  0.03 -2.12  9.78
Si -5.62 -7.46  3.65
Si  7.32 -4.33 -5.32
Si -1.86  1.08  9.80
Si -9.29 -1.10  3.65
Si -1.94 -9.59 -2.35
Si -7.39 -4.33 -5.32
Si -9.29  3.15 -2.35
Si -1.94 -5.34 -8.36
Si -5.62  1.03 -8.36
Si  0.05 -8.38 -5.93
Si -7.30 -4.13  6.08
Si -7.30  4.36 -5.93
Si  7.41 -4.13  6.08
Si  7.40  4.36 -5.93
Si  0.05  8.60  6.08
Si -9.11 -1.02 -5.21
Si -5.43 -7.39 -5.21
Si -9.11 -5.27  0.79
Si  9.16 -1.07 -5.25
Si  9.16 -5.32  0.75
Si  5.48 -7.44 -5.25
Si -3.62  8.57 -5.25
Si  0.02  4.23  9.81
Si -3.66 -2.13  9.81
Si  3.70 -2.13  9.81
Si  0.06 10.69  0.75
Si  3.73  8.57 -5.25
Si -5.46 -9.50  0.05
Si -9.12  5.29 -2.99
Si -9.14  1.11 -5.95
Si -5.45  3.17 -8.99
Si 10.99 -0.03  0.00
Si -0.03 10.57  3.01
Si -9.15 -5.30  3.00
Si  3.63  8.46  6.01
Si -0.03  6.32 -9.00
Si -5.56  9.49 -0.12
Si -5.45  3.16  9.02
Si -5.47 -3.18 -9.01
Si -5.47 -3.18  9.01
Si -5.46  7.48 -5.95
Si -0.03  6.32  9.02
Si -9.24 -1.12  5.89
Si -3.72  8.46  6.01
Si -5.56 -7.49  5.89
Si  5.47  7.37 -6.12
Si  3.64 -8.52 -6.00
Si -0.02 -6.41 -9.00
Si  9.15  1.00 -6.12
Si  5.56  3.19 -9.01
Si  5.57 -7.38  6.06
Si  5.56  3.19  9.01
Si  5.58 -3.20 -8.99
Si  5.47 -9.61 -0.12
Si -3.72 -8.52 -6.00
Si -0.02 -6.41  9.02
Si  9.23  5.31 -3.00
Si -0.02 -10.66 -2.99
Si -11.07 -0.03  0.00
Si  5.58 -3.20  9.02
Si  9.25 -1.01  6.06
Si  5.57  9.61  0.05
Si  9.26 -5.33  3.02
Si  9.09  5.27  3.65
Si  3.64 10.53  0.68
Si -3.71 10.53  0.68
Si -1.94 -5.34  9.66
Si -7.32 -2.12 -8.23
Si -5.62  1.03  9.66
Si -11.00 -0.00 -2.23
Si -5.54 -5.29 -8.21
Si  1.82  7.45 -8.21
Si 11.00 -2.21  0.68
Si -5.54 -9.54 -2.21
Si  5.49  9.57 -2.21
Si  5.42 -9.59 -2.35
Si  7.39 -2.12 -8.23
Si -3.64  4.24  9.78
Si  0.04 -10.62  3.78
Si  1.82 -5.29  9.80
Si 11.07 -0.00 -2.23
Si  5.50  1.08  9.80
Si  3.71  4.24  9.78
Si -9.21  5.32  3.80
Si  7.32 -8.58  0.68
Si -5.62  9.52 -2.35
Si  5.42 -5.34 -8.36
Si -11.06 -2.21  0.68
Si -1.94  7.39 -8.36
Si -0.03 -0.09 -11.33
Si -7.39 -8.58  0.68
Si 10.92 -2.12  2.96
Si  7.24 -0.00  8.97
Si 10.92  2.12 -3.04
Si  7.25 -8.49  2.96
Si  3.56  6.37  8.97
Si  3.57 -6.37  8.97
Si  7.24  8.49 -3.04
Si  3.56 10.61  2.96
Si  7.24 -0.00 -9.05
Si  3.57 -10.62 -3.04
Si  3.57  6.37 -9.05
Si  3.57 -6.37 -9.05
Si -3.79  6.37  8.97
Si -3.79 -6.37  8.97
Si -3.79 10.61  2.96
Si -7.46 -0.00  8.97
Si -3.79 -10.62 -3.04
Si -7.46 -8.49  2.96
Si -3.79 -6.37 -9.05
Si -3.79  6.37 -9.05
Si -7.47  8.49 -3.04
Si -11.14 -2.12  2.96
Si -7.46 -0.00 -9.05
Si -11.14  2.12 -3.04
Si -7.30 -6.29  6.76
Si  0.06 -10.54 -5.25
Si -7.34  4.23 -8.20
Si -1.75  3.22 -11.22
Si -9.11  7.47  0.79
Si  1.93 -3.15 -11.22
Si  9.16  7.42  0.75
Si -9.11  3.22  6.80
Si  9.16  3.17  6.76
Si  7.37  4.23 -8.20
Si  0.02 -8.50 -8.20
Si -10.97  4.32  0.75
Si -3.62  0.08 -11.26
Si  1.93 -11.64  0.79
Si -1.75 -9.52  6.80
Si  1.80  3.17 -11.26
Si -1.87  9.54  6.76
Si  7.41 -6.29  6.76
Si -7.34  8.48  3.81
Si -11.01  2.11  3.81
Si  1.80 -9.57  6.76
Si -1.87 -3.20 -11.26
Si -7.30  6.45  6.76
Si  3.73  0.08 -11.26
Si -1.87 -11.69  0.75
Si  7.37  8.48  3.81
Si -9.23  5.29 -5.25
Si -3.66 -10.63  3.81
Si -9.23 -3.20  6.76
Si 11.05  2.11  3.81
Si  3.70 -10.63  3.81
Si  9.28  5.34 -5.21
Si  1.92  9.59  6.80
Si  7.41  6.45  6.76
Si  9.28 -3.15  6.80
Si 11.09  4.32  0.75
Si  1.79  1.00 11.89
Si  9.15  5.25  5.89
Si  1.89 -1.01 -11.96
Si -9.12 -7.45 -2.99
Si 11.01  4.20  3.01
Si -9.15  7.44  3.00
Si -0.04 10.59 -6.00
Si  1.91 11.66 -2.99
Si 11.01 -4.29 -2.99
Si -0.04  2.10 -12.01
Si  9.25 -5.26 -5.95
Si  1.88 -11.67  3.00
Si -1.80 11.68 -3.00
Si -0.04 -2.15 12.01
Si -9.14  5.36  6.06
Si -11.06  4.20  3.01
Si -1.77 -11.70  3.02
Si -0.04 -10.64  6.01
Si  9.23 -7.42 -3.00
Si -11.05 -4.29 -2.99
Si  9.26  7.41  3.02
Si -1.78  1.11 12.06
Si  5.42 -5.34  9.66
Si -9.24 -5.37 -6.12
Si -1.94  7.39  9.66
Si  9.09 -7.46  3.65
Si -1.88 -1.12 -12.13
Si  7.32  8.40 -5.32
Si -1.94 11.64  3.65
Si -3.64 -8.49 -8.23
Si -11.00 -4.25  3.78
Si 11.00  2.04 -5.32
Si -9.21  1.08 -8.21
Si -5.54  7.45 -8.21
Si -7.39  8.40 -5.32
Si  9.09  1.03 -8.36
Si  3.71 -8.49 -8.23
Si -7.32 -2.12  9.78
Si  5.41  7.39 -8.36
Si -9.21 -7.41  3.80
Si  1.82 11.69  3.80
Si -5.54 -5.29  9.80
Si 11.07 -4.25  3.78
Si  7.39 -2.12  9.78
Si  1.82  7.45  9.80
Si -11.06  2.04 -5.32
Si  3.65 -10.70 -5.32
Si -3.71 -10.70 -5.32
Si -7.30 -8.38 -5.93
Si  0.05 -12.63  0.07
Si  0.05 -4.13 -11.93
Si -10.98 -6.26  0.07
Si -10.98 -2.01 -5.93
Si  7.41 -8.38 -5.93
Si -3.63 -10.50  6.08
Si -3.63  2.23 -11.93
Si  3.73 -10.50  6.08
Si  3.73  2.23 -11.93
Si 11.08 -6.26  0.07
Si 11.08 -2.01 -5.93
Si -10.98  2.23  6.08
Si -10.98  6.48  0.07
Si -3.63 -2.01 12.08
Si -3.63 10.72 -5.93
Si  3.73 -2.01 12.08
Si  3.73 10.72 -5.93
Si -7.30  8.60  6.08
Si 11.08  2.23  6.08
Si 11.08  6.48  0.07
Si  0.05  4.36 12.08
Si  0.05 12.85  0.07
Si -5.43 -3.15 -11.22
Si -12.78  1.10  0.79
Si -10.97 -4.17 -5.25
Si -5.43 -11.64  0.79
Si  7.40  8.60  6.08
Si -10.97  0.08  6.76
Si  0.06 -6.29 -11.26
Si 12.84  1.05  0.75
Si -11.01  6.36 -2.20
Si  5.48  9.54  6.76
Si  0.02 12.72 -2.20
Si -11.01 -6.38 -2.20
