500
set: 890.00  0.00  0.00
Si  0.44 -1.17  0.84
Si -0.45  1.20 -0.81
Si  1.33  1.20  0.82
Si -1.32 -1.20 -0.85
Si  2.17 -1.17 -0.81
Si -0.87 -0.02  2.47
Si -2.22  1.19  0.82
Si  0.89  0.02 -2.51
Si  3.10  1.16 -0.86
Si  0.03  2.39  2.46
Si -0.05 -2.36 -2.51
Si -3.13 -1.19  0.82
Si  2.65  0.00  2.47
Si -2.64  0.01 -2.49
Si -0.48 -3.56  0.87
Si  0.51  3.58 -0.81
Si -1.75  2.35 -2.51
Si  1.74 -2.37  2.50
Si -1.29  3.57  0.83
Si  1.83  2.38 -2.47
Si  1.30 -3.58 -0.81
Si -1.81 -2.39  2.50
Si -0.88  0.07 -4.12
Si  0.91 -0.00  4.12
Si -3.98  1.18 -0.83
Si  3.98 -1.21  0.83
Si -2.26 -3.58 -0.81
Si  2.28  3.60  0.87
Si -3.04  3.58 -0.82
Si  3.04 -3.59  0.85
Si  0.02  2.40 -4.14
Si -0.02 -2.38  4.16
Si -3.49  2.37  2.48
Si -2.65  0.01  4.12
Si  3.48 -2.40 -2.51
Si  2.66 -0.01 -4.15
Si  3.58  2.40  2.48
Si -3.60 -2.40 -2.45
Si -4.41  0.01  2.49
Si  1.71 -2.38 -4.13
Si  4.45  0.01 -2.46
Si -1.77  2.39  4.14
Si  1.82  2.40  4.12
Si -4.89 -1.21 -0.86
Si -1.78 -2.41 -4.15
Si  4.91  1.21  0.83
Si -0.83  4.75 -2.45
Si  0.81 -4.76  2.48
Si -0.93 -4.78 -2.47
Si  0.95  4.77  2.50
Si  4.07  3.58 -0.81
Si -4.06 -3.59  0.83
Si -3.50  2.36 -4.13
Si -0.40  1.17  5.78
Si  3.51 -2.40  4.11
Si -5.74  1.21  0.83
Si  3.58  2.36 -4.11
Si  5.75 -1.21 -0.86
Si  0.43 -1.18 -5.81
Si -3.57 -2.36  4.12
Si  2.60 -4.80 -2.47
Si -2.61  4.77  2.51
Si -2.74 -4.77  2.46
Si -0.36  5.97  0.82
Si  1.36  1.20 -5.77
Si  2.72  4.80 -2.51
Si  4.43 -0.00  4.14
Si -1.36 -1.18  5.79
Si  0.34 -6.00 -0.86
Si -4.84  3.57  0.85
Si  4.84 -3.58 -0.82
Si -4.44  0.01 -4.16
Si -1.43 -5.96  0.82
Si  1.44  5.96 -0.85
Si -5.28  2.36 -2.47
Si  5.27 -2.39  2.51
Si -2.19  1.22 -5.81
Si  2.20 -1.22  5.82
Si  5.37  2.36 -2.47
Si  0.82 -4.79 -4.11
Si -0.95 -4.76  4.12
Si  2.14 -5.95  0.83
Si -2.12  5.95 -0.86
Si -0.81  4.80  4.12
Si  0.98  4.75 -4.15
Si -5.38 -2.39  2.51
Si -6.19  0.01 -2.46
Si  3.09  1.20  5.79
Si -3.16 -1.19 -5.79
Si  6.24  0.01  2.49
Si  6.66  1.18 -0.83
Si -3.21 -5.96 -0.81
Si -6.66 -1.21  0.83
Si -2.62  4.76 -4.14
Si -0.48 -3.58 -5.80
Si  2.59 -4.79  4.13
Si  3.21  5.99  0.84
Si  5.80  3.57  0.85
Si -5.80 -3.58 -0.82
Si  0.51  3.64  5.81
Si -2.75 -4.76 -4.14
Si  2.75  4.78  4.16
Si  1.28 -3.58  5.78
Si -1.27  3.59 -5.80
Si -4.39  4.76 -2.51
Si  4.38 -4.79  2.48
Si  4.51  4.79  2.50
Si -4.52 -4.81 -2.51
Si  5.26 -2.39 -4.14
Si -5.29  2.37  4.13
Si  3.97 -1.21 -5.79
Si -4.00  1.19  5.79
Si -2.26 -3.51  5.81
Si -3.90  5.95  0.83
Si  5.36  2.37  4.13
Si  3.90 -5.98 -0.83
Si  2.29  3.58 -5.80
Si -5.38 -2.39 -4.14
Si -3.06  3.59  5.77
Si  3.05 -3.58 -5.79
Si -6.21 -0.00  4.14
Si  6.21  0.01 -4.16
Si -6.58  3.58 -0.81
Si -0.43  1.19 -7.43
Si  6.59 -3.59  0.83
Si  0.45 -1.20  7.46
Si -0.12 -7.16  2.47
Si  0.12  7.17 -2.49
Si  1.34  1.22  7.42
Si  7.52 -1.19  0.82
Si -4.37  4.75  4.11
Si -7.54  1.16 -0.86
Si -1.35 -1.19 -7.47
Si -4.89 -1.22  5.80
Si  4.37 -4.79 -4.13
Si  4.90  1.18 -5.82
Si  4.47  4.78 -4.13
Si  1.69 -7.15 -2.46
Si -1.64  7.17  2.49
Si -4.54 -4.77  4.14
Si  1.90  7.13  2.47
Si -1.88 -7.13 -2.51
Si  4.94  5.99 -0.81
Si -4.98 -5.96  0.82
Si  7.05 -2.40 -2.45
Si  2.19 -1.18 -7.45
Si -7.07  2.40  2.48
Si -2.21  1.17  7.48
Si  4.04  3.57  5.78
Si -4.03 -3.57 -5.80
Si  7.15  2.37  2.48
Si -7.16 -2.40 -2.51
Si -3.13 -1.23  7.42
Si  3.12  1.21 -7.43
Si -6.14  4.79  2.50
Si  6.13 -4.81 -2.51
Si -0.50 -3.56  7.42
Si  6.25  4.76 -2.51
Si -5.75  1.18 -5.82
Si  5.76 -1.22  5.80
Si -6.26 -4.79  2.48
Si  5.66 -5.96  0.82
Si  0.12  7.17  4.12
Si  0.52  3.56 -7.46
Si -0.10 -7.16 -4.15
Si -5.70  5.99 -0.81
Si -3.43  7.17 -2.46
Si  0.33 -5.96  5.79
Si  4.82 -3.57  5.77
Si  3.47 -7.14  2.49
Si -0.39  5.97 -5.79
Si -4.83  3.57 -5.79
Si -1.26  3.59  7.44
Si  1.26 -3.58 -7.46
Si -8.00  0.00  2.47
Si  8.00  0.01 -2.49
Si -0.59 -8.33 -0.81
Si  0.55  8.35  0.82
Si -1.40 -5.96 -5.77
Si -3.63 -7.18  2.47
Si  1.67 -7.16  4.14
Si  1.40  5.97  5.79
Si  3.65  7.18 -2.51
Si  7.61  3.58 -0.82
Si -7.61 -3.59  0.85
Si -1.67  7.17 -4.16
Si -1.22  8.34 -0.83
Si -1.86 -7.16  4.12
Si  1.22 -8.36  0.83
Si -7.06  2.36 -4.11
Si -4.00  1.19 -7.42
Si  7.07 -2.36  4.12
Si  1.89  7.22 -4.12
Si  3.98 -1.22  7.46
Si  2.27  3.60  7.42
Si  8.43  1.19  0.82
Si -2.12  5.94  5.80
Si -7.13 -2.40  4.11
Si  7.14  2.36 -4.13
Si -2.25 -3.60 -7.46
Si -8.47 -1.17 -0.81
Si  2.13 -5.98 -5.82
Si -2.33 -8.33  0.84
Si  2.32  8.36 -0.81
Si  6.11 -4.77  4.14
Si -3.02  3.59 -7.44
Si  3.07 -3.57  7.47
Si -6.17  4.78 -4.13
Si  6.28  4.75  4.11
Si  6.65  1.19  5.79
Si -3.17 -5.98  5.78
Si -6.27 -4.79 -4.13
Si -2.97  8.37  0.83
Si -6.67 -1.21 -5.79
Si  2.99 -8.36 -0.86
Si  3.20  5.98 -5.81
Si -5.82 -3.57  5.77
Si  5.81  3.57 -5.79
Si  4.87  1.18  7.42
Si -3.45  7.15  4.14
Si  3.44 -7.14 -4.16
Si -3.64 -7.09 -4.12
Si -4.88 -1.21 -7.45
Si  8.00  0.01  4.12
Si -7.98 -0.01 -4.15
Si  6.75  5.95  0.83
Si  3.67  7.16  4.12
Si -6.75 -5.98 -0.83
Si  0.90  0.02 -9.06
Si -8.36  3.60  0.87
Si  8.38 -3.58 -0.81
Si -0.88  0.00  9.12
Si -3.91  5.94 -5.79
Si  3.88 -5.97  5.79
Si -4.03 -3.57  7.44
Si  4.03  3.58 -7.46
Si  5.24 -7.15 -2.49
Si -5.23  7.16  2.47
Si -5.41 -7.15 -2.49
Si  5.41  7.16  2.47
Si -4.09 -8.35 -0.85
Si  4.10  8.36  0.82
Si  0.06  2.38  9.08
Si -0.05 -2.38 -9.11
Si -9.31  1.20  0.82
Si  9.32 -1.20 -0.85
Si -8.81  2.38 -2.47
Si -6.60  3.57  5.78
Si -5.78  1.18  7.42
Si  8.83 -2.39  2.50
Si -2.67 -0.01 -9.10
Si  6.61 -3.57 -5.80
Si  5.77 -1.21 -7.45
Si -0.37  5.93  7.42
Si  2.69 -0.00  9.12
Si  0.36 -5.95 -7.43
Si  8.89  2.35 -2.51
Si  7.49 -1.19 -5.79
Si  1.72 -2.42  9.07
Si -8.90 -2.37  2.50
Si  7.91 -4.77  2.46
Si  7.43 -5.96 -0.81
Si  4.86 -3.56 -7.44
Si -4.81  3.59  7.47
Si -1.75  2.39 -9.11
Si  1.82  2.41 -9.09
Si -7.44  5.99  0.84
Si -7.55  1.20  5.79
Si -7.92  4.80 -2.51
Si -1.83 -2.38  9.12
Si -1.43 -5.93  7.42
Si -4.78  8.32 -0.86
Si  4.75 -8.34  0.82
Si  1.41  5.97 -7.47
Si -4.96 -5.94 -5.81
Si  8.03  4.77  2.51
Si -8.04 -4.80 -2.47
Si  4.96  5.94  5.82
Si  2.10 -5.98  7.42
Si -2.11  5.95 -7.45
Si  5.23 -7.14  4.12
Si -5.22  7.15 -4.15
Si -5.42 -7.14  4.12
Si -0.73  9.52  2.48
Si  1.01  9.51 -2.51
Si  5.43  7.15 -4.15
Si -1.02 -9.53  2.50
Si  0.72 -9.55 -2.51
Si -3.51  2.37  9.07
Si  6.65  1.19 -7.42
Si -8.83  2.40  4.12
Si -9.34 -3.58 -0.81
Si  3.52 -2.37 -9.10
Si  9.36  3.57  0.83
Si -3.20 -5.97 -7.43
Si  5.69 -5.94 -5.81
Si  3.21  5.95  7.46
Si -6.66 -1.22  7.46
Si -5.68  5.94  5.82
Si  3.56  2.41  9.11
Si  8.86 -2.41 -4.15
Si -9.76  0.02 -2.51
Si -3.60 -2.38 -9.10
Si  8.87  2.39  4.14
Si -5.79 -3.56 -7.44
Si  9.78 -0.02  2.47
Si  4.42 -0.01 -9.08
Si  7.90 -4.76 -4.14
Si -4.42  0.00  9.11
Si -7.90  4.78  4.16
Si -8.94 -2.38 -4.13
Si  5.84  3.59  7.47
Si -2.51  9.52 -2.47
Si  2.50 -9.54  2.51
Si  7.59  3.59  5.77
Si -7.60 -3.58 -5.79
Si  0.57  8.38 -5.81
Si  8.03  4.76 -4.14
Si  5.87  8.32 -0.86
Si -0.57 -8.37  5.82
Si -1.23  8.34  5.79
Si -2.81 -9.51 -2.51
Si -8.05 -4.79  4.13
Si  2.79  9.54  2.46
Si -5.89 -8.34  0.82
Si  1.21 -8.37 -5.79
Si  3.88 -5.96 -7.42
Si -3.90  5.94  7.46
Si 10.20  1.20 -0.81
Si -0.94 -4.75 -9.09
Si -10.21 -1.17  0.84
Si  0.79 -4.75  9.11
Si -0.83  4.77 -9.10
Si  8.46  1.22 -5.81
Si -8.45 -1.22  5.82
Si -6.99  7.18 -2.51
Si  7.01 -7.18  2.47
Si  0.94  4.78  9.12
Si -0.74  9.52 -4.13
Si -8.50 -5.95  0.83
Si  2.37  8.33  5.78
Si -2.33 -8.34 -5.81
Si -7.17 -7.14  2.49
Si  8.52  5.95 -0.86
Si  0.75 -9.56  4.11
Si -1.06 -9.54 -4.13
Si  0.99  9.55  4.14
Si  7.22  7.17 -2.46
Si -9.74 -0.00  4.12
Si  6.62 -3.57  7.44
Si -2.98  8.33 -5.82
Si -2.60  4.76  9.10
Si -6.62  3.58 -7.46
Si  9.77  0.07 -4.12
Si  2.60 -4.78 -9.10
Si -2.71 -4.77  9.08
Si  2.99 -8.37  5.80
Si  7.51 -1.23  7.42
Si -7.52  1.21 -7.43
Si  2.71  4.78 -9.11
Si -6.55  8.36  0.82
Si  6.56 -8.35 -0.85
Si -2.52  9.52  4.13
Si  6.74  5.94 -5.79
Si  2.50 -9.55 -4.14
Si -6.76 -5.97  5.79
Si  4.28 -9.56 -2.45
Si  4.96  5.97 -7.45
Si -4.30  9.55  2.48
Si -0.88  0.00 -10.74
Si -0.27 10.74 -0.82
Si -2.78 -9.54  4.16
Si  2.78  9.55 -4.14
Si  7.00 -7.09 -4.12
Si -10.14  3.58 -0.81
Si -5.28  2.37 -9.10
Si  0.27 -10.75  0.85
Si -8.36  3.58 -5.80
Si  5.28 -2.40  9.10
Si  8.38 -3.51  5.81
Si -4.98 -5.98  7.48
Si 10.16 -3.56  0.87
Si -6.97  7.16  4.12
Si  5.36  2.37 -9.10
Si -5.36 -2.40  9.10
Si  0.90  0.02 10.80
Si  1.48 10.72  0.83
Si -1.46 -10.74 -0.81
Si  4.60  9.53 -2.47
Si -4.58 -9.55  2.50
Si -2.08 10.72  0.85
Si  7.20  7.15  4.14
Si  4.13  8.35 -5.77
Si -4.13 -8.34  5.79
Si  2.08 -10.73 -0.82
Si -7.20 -7.14 -4.16
Si -9.28  1.20 -5.77
Si -9.20  5.96 -0.85
Si  9.21 -5.96  0.82
Si  9.28 -1.18  5.79
Si -6.23 -0.01 -9.08
Si -0.05 -2.38 10.75
Si  6.23  0.00  9.11
Si  0.06  2.38 -10.78
Si  2.69 -0.00 -10.73
Si -2.67 -0.01 10.76
Si -9.69  4.77  2.50
Si  9.71 -4.78 -2.47
Si -5.68  5.97 -7.45
Si  5.67 -5.98  7.48
Si 10.60 -2.36 -2.51
Si -1.83 -2.38 -10.73
Si -1.75  2.39 10.75
Si  4.37 -4.79  9.07
Si -10.62  2.39  2.46
Si -4.36  4.79 -9.10
Si  4.49  4.74  9.07
Si  9.81  4.75 -2.45
Si -7.45  5.98 -5.81
Si 11.08 -1.17  0.84
Si  1.82  2.41 10.77
Si -11.09  1.20 -0.81
Si  1.72 -2.42 -10.79
Si  7.48 -5.98  5.78
Si -0.57 -8.34 -7.45
Si  4.72 -8.35 -5.79
Si -9.83 -4.76  2.48
Si  0.55  8.33  7.48
Si 10.67  2.39  2.46
Si -7.58 -3.57  7.47
Si -4.30  9.52 -4.11
Si -4.51 -4.76 -9.11
Si  4.31 -9.52  4.12
Si -10.69 -2.36 -2.51
Si -3.25 -10.72  0.87
Si -1.23  8.35 -7.42
Si  7.62  3.59 -7.44
Si -4.79  8.36  5.79
Si  3.27 10.74 -0.81
Si  1.22 -8.38  7.46
Si -8.45 -1.18 -7.45
Si  8.43  1.17  7.48
Si -7.66 -8.36 -0.86
Si -4.55 -9.56 -4.15
Si  4.58  9.56  4.12
Si  7.67  8.37  0.83
Si  2.33  8.35 -7.43
Si -3.81 10.73 -0.81
Si  3.82 -10.75  0.83
Si -2.32 -8.36  7.46
Si -9.66  4.75 -4.15
Si -8.74  7.13  2.47
Si -6.05  9.53 -2.47
Si  9.70 -4.76  4.12
Si -3.01  8.34  7.42
Si  3.52 -2.37 10.76
Si  3.56  2.41 -10.74
Si  0.09  7.14 -9.10
Si -9.37 -3.58  5.78
Si  8.77 -7.13 -2.51
Si  6.06 -9.55  2.50
Si -3.51  2.37 -10.79
Si -3.60 -2.38 10.76
Si -0.08 -7.16  9.12
Si  3.00 -8.37 -7.45
Si  9.38  3.59 -5.80
Si -4.42  0.00 -10.75
Si  4.42 -0.01 10.78
Si -10.63  2.40 -4.14
Si 10.63 -2.38  4.16
Si -6.76 -5.96 -7.42
Si -9.83 -4.79 -4.11
Si  6.75  5.94  7.46
Si -1.87 -7.14 -9.06
Si  1.65 -7.17 -9.08
Si 10.66  2.40 -4.14
Si -10.66 -2.38  4.16
Si  9.84  4.80  4.12
Si -1.65  7.16  9.11
Si -11.13 -3.56  0.87
Si -8.96 -7.15 -2.46
Si  6.34  9.55  2.48
Si  5.86  8.36  5.79
Si 11.15  3.58 -0.81
Si -6.36 -9.56 -2.45
Si  1.89  7.16  9.12
Si -8.38  3.60  7.42
Si  7.05 -2.38 -9.10
Si -5.92 -8.35 -5.79
Si -11.51 -0.02  2.47
Si  0.79 -4.75 -10.74
Si  9.00  7.17  2.49
Si  7.14  2.37  9.07
Si  0.94  4.78 -10.73
Si -7.09  2.41  9.11
Si  8.40 -3.60 -7.46
Si -7.12 -2.37 -9.10
Si -0.83  4.77 10.76
Si  8.32 -8.33  0.84
Si 11.53  0.02 -2.51
