500
set: 944.00  0.00  0.00
Si -0.37  1.13 -0.87
Si  0.38 -1.19  0.81
Si -1.30 -1.16 -0.80
Si  1.32  1.14  0.83
Si  0.88 -0.02 -2.40
Si -2.13  1.17  0.79
Si  2.14 -1.15 -0.80
Si -0.89  0.07  2.43
Si -3.01 -1.17  0.79
Si  3.02  1.20 -0.81
Si  0.05  2.31  2.44
Si -0.00 -2.35 -2.41
Si -2.58 -0.03 -2.43
Si -0.47 -3.44  0.79
Si  2.59 -0.04  2.46
Si  0.47  3.49 -0.79
Si -1.27  3.43  0.78
Si  1.72  2.31 -2.40
Si  1.29 -3.44 -0.79
Si -1.66  2.32 -2.45
Si  1.75 -2.32  2.40
Si -1.80 -2.34  2.42
Si -0.84 -0.01 -4.00
Si -3.89  1.11 -0.80
Si  0.86 -0.02  4.06
Si  3.90 -1.16  0.83
Si -2.19 -3.45 -0.79
Si  2.19  3.50  0.79
Si -0.07 -2.33  4.00
Si -2.98  3.46 -0.84
Si  3.04 -3.48  0.73
Si  0.08  2.34 -4.08
Si -3.42  2.31  2.40
Si  3.42 -2.33 -2.44
Si -2.56  0.00  4.07
Si  3.47  2.33  2.41
Si  2.62  0.03 -4.08
Si -3.52 -2.28 -2.46
Si -4.27  0.06  2.38
Si  4.27 -0.02 -2.41
Si  4.74  1.15  0.76
Si -1.76 -2.23 -4.04
Si  1.72 -2.31 -4.04
Si  1.74  2.32  4.07
Si -4.79 -1.16 -0.79
Si -1.74  2.32  4.07
Si  0.81 -4.60  2.41
Si  0.86  4.60  2.42
Si -0.94 -4.62 -2.40
Si -3.93 -3.51  0.78
Si  3.95  3.49 -0.79
Si -0.86  4.66 -2.46
Si  3.44  2.31 -3.98
Si -3.43  2.31 -3.99
Si  0.41 -1.15 -5.62
Si  5.58 -1.16 -0.79
Si  3.40 -2.31  4.03
Si  2.54 -4.60 -2.38
Si -0.43  1.24  5.64
Si  0.36 -5.74 -0.81
Si -5.64  1.15  0.76
Si  2.66  4.59 -2.41
Si -0.35  5.76  0.79
Si -2.55  4.62  2.48
Si -2.61 -4.62  2.44
Si -1.25 -1.13  5.61
Si -3.49 -2.33  4.08
Si -4.68  3.46  0.73
Si  4.74 -3.48 -0.84
Si  1.26  1.14 -5.69
Si -4.36  0.05 -4.04
Si  1.36  5.78 -0.80
Si  4.37 -0.02  4.10
Si -1.34 -5.79  0.83
Si -2.16  1.14 -5.61
Si  0.78 -4.63 -3.98
Si -5.18  2.34 -2.38
Si  5.17 -2.31  2.48
Si  5.20  2.34 -2.38
Si  2.08 -5.79  0.76
Si  2.11 -1.16  5.71
Si -2.13  5.77 -0.79
Si -0.83  4.60  4.08
Si -5.21 -2.31  2.48
Si -0.92 -4.62  4.07
Si  0.90  4.70 -4.04
Si -3.07 -1.15 -5.62
Si  3.05  1.16  5.65
Si  6.11  0.06  2.38
Si  3.04  5.75  0.81
Si -6.10 -0.02 -2.41
Si -3.03 -5.81 -0.87
Si  2.59  4.60  4.00
Si  6.48  1.11 -0.80
Si -6.47 -1.16  0.83
Si  2.55 -4.64  3.99
Si -0.47 -3.48 -5.63
Si -2.58 -4.60 -4.08
Si -2.61  4.61 -4.06
Si  0.49  3.45  5.68
Si -5.63 -3.48 -0.84
Si  5.70  3.46  0.73
Si  1.29 -3.44  5.61
Si -1.24  3.47 -5.62
Si -4.30  4.61 -2.44
Si  4.29 -4.63  2.40
Si -4.32 -4.62 -2.45
Si  4.41  4.61  2.40
Si -5.16  2.29  3.99
Si  5.11 -2.33 -4.06
Si  5.21  2.29  3.99
Si  2.19  3.45 -5.63
Si -3.94  1.14  5.63
Si -3.81  5.78  0.83
Si  3.88 -1.17 -5.70
Si -2.17 -3.48  5.68
Si  3.82 -5.82 -0.80
Si -5.26 -2.33 -4.06
Si  6.01  0.05 -4.04
Si  3.04 -3.48 -5.58
Si -6.00 -0.02  4.10
Si -3.03  3.52  5.65
Si  0.08  6.91 -2.43
Si -6.43  3.49 -0.79
Si -0.47  1.13 -7.27
Si  6.44 -3.51  0.78
Si  0.39 -1.15  7.29
Si -0.07 -6.97  2.46
Si -1.28 -1.16 -7.25
Si  4.73  1.16 -5.66
Si  4.29 -4.63 -3.99
Si  1.33  1.12  7.28
Si -7.36  1.20 -0.81
Si  7.36 -1.17  0.79
Si -4.32  4.62  4.03
Si -4.75 -1.16  5.70
Si -4.79 -5.77  0.79
Si  1.61 -6.96 -2.41
Si  4.38  4.62 -4.04
Si  4.80  5.79 -0.80
Si -1.61  6.99  2.38
Si -4.40 -4.62  4.07
Si -1.78 -6.96 -2.40
Si  1.77  7.01  2.43
Si  6.85 -2.28 -2.46
Si -2.19  1.19  7.22
Si -3.90 -3.47 -5.62
Si  2.14 -1.14 -7.28
Si -6.90  2.33  2.41
Si  3.95  3.50  5.61
Si  6.95  2.31  2.40
Si -6.96 -2.33 -2.44
Si -2.99 -1.15  7.24
Si -5.96  4.61  2.40
Si  3.08  1.15 -7.28
Si  6.06 -4.62 -2.45
Si  6.08  4.61 -2.44
Si -6.08 -4.63  2.40
Si -0.04 -6.91 -4.08
Si  0.09  6.94  4.07
Si  3.45 -6.88  2.38
Si -4.68  3.45 -5.58
Si  5.59 -5.77  0.79
Si -0.41  5.78 -5.62
Si -5.64  1.16 -5.66
Si -5.58  5.79 -0.80
Si  5.62 -1.16  5.70
Si  0.44  3.54 -7.26
Si  0.39 -5.78  5.65
Si -3.44  6.91 -2.41
Si  4.68 -3.42  5.65
Si -0.45 -3.49  7.29
Si -3.54 -6.87  2.43
Si -1.25  3.44  7.26
Si  1.26 -3.51 -7.22
Si  3.54  6.92 -2.40
Si -0.52 -8.09 -0.80
Si -7.34 -3.48  0.73
Si  0.53  8.11  0.79
Si  7.80 -0.03 -2.43
Si -7.79 -0.04  2.46
Si -1.24  8.05 -0.80
Si  1.41  5.81  5.61
Si  1.82  6.92 -4.00
Si  7.40  3.46 -0.84
Si  1.24 -8.09  0.83
Si -1.40 -5.80 -5.69
Si -1.80 -6.95  4.06
Si -1.71  6.99 -4.04
Si  1.71 -6.95  4.10
Si -3.88  1.16 -7.21
Si -2.21 -3.40 -7.26
Si -6.94  2.31 -3.98
Si  6.88 -2.33  4.08
Si  6.95  2.31 -3.99
Si  3.87 -1.13  7.31
Si  2.07 -5.78 -5.66
Si -8.24 -1.15 -0.80
Si  2.21  3.45  7.29
Si  8.25  1.17  0.79
Si -2.10  5.78  5.70
Si -6.97 -2.31  4.03
Si  2.29  8.07 -0.87
Si -2.28 -8.12  0.81
Si  5.98 -4.62  4.07
Si -6.00  4.62 -4.04
Si  2.94 -3.49  7.28
Si -3.09 -5.70  5.64
Si -6.08 -4.63 -3.99
Si  6.06  4.62  4.03
Si  3.07  5.78 -5.62
Si  6.44  1.14  5.63
Si -2.94  3.53 -7.31
Si  2.92 -8.10 -0.79
Si -2.98  8.08  0.76
Si  3.35 -6.88 -4.04
Si  5.70  3.45 -5.58
Si -3.35  6.92  4.10
Si -5.69 -3.42  5.65
Si -6.49 -1.17 -5.70
Si  4.75  1.14  7.25
Si -3.50 -6.95 -4.00
Si  3.52  6.92  4.06
Si -7.76  0.03 -4.08
Si -4.75 -1.16 -7.29
Si  6.56  5.78  0.83
Si -6.55 -5.82 -0.80
Si  7.81  0.00  4.07
Si  3.92  3.43 -7.22
Si  8.19 -3.45 -0.79
Si  3.78 -5.80  5.63
Si -8.18  3.50  0.79
Si  0.86  0.03 -8.90
Si -0.86  0.02  8.90
Si -5.13  6.90  2.46
Si -3.91 -3.50  7.26
Si -3.83  5.76 -5.70
Si  5.14 -6.96 -2.43
Si  5.25  6.90  2.46
Si  3.98  8.08  0.83
Si -5.24 -6.96 -2.43
Si -3.96 -8.10 -0.80
Si -0.01 -2.33 -8.86
Si -9.06  1.14  0.83
Si  0.03  2.31  8.88
Si  9.07 -1.16 -0.80
Si  8.58 -2.34  2.42
Si -6.43  3.50  5.61
Si -8.62 -2.32  2.40
Si -5.63  1.14  7.25
Si  6.48 -3.47 -5.62
Si -0.33  5.79  7.24
Si  2.62  0.03  8.90
Si  5.62 -1.16 -7.29
Si -8.66  2.31 -2.40
Si -2.60 -0.04 -8.91
Si -1.70 -2.34  8.82
Si  7.31 -1.15 -5.62
Si -7.72  4.59 -2.41
Si  0.42 -5.79 -7.28
Si  1.71  2.28 -8.88
Si  1.69 -2.27  8.88
Si -7.33  1.16  5.65
Si  8.71  2.32 -2.45
Si -1.68  2.29 -8.90
Si -7.34  5.75  0.81
Si  7.76 -4.62  2.44
Si -4.78  3.44  7.28
Si  1.38  5.78 -7.25
Si  4.78 -3.41 -7.31
Si -7.83 -4.60 -2.38
Si -4.82 -5.80 -5.61
Si  7.34 -5.81 -0.87
Si  4.71 -8.11  0.79
Si -1.33 -5.82  7.28
Si  4.77  5.78  5.71
Si  7.82  4.62  2.48
Si -4.70  8.13 -0.81
Si  2.09 -5.80  7.25
Si -2.09  5.78 -7.29
Si -5.10  6.96 -4.08
Si  5.15 -6.93  4.07
Si -0.76  9.25  2.40
Si -5.22 -6.93  4.07
Si -0.90 -9.26  2.40
Si  0.76 -9.27 -2.44
Si  1.00  9.25 -2.45
Si  5.28  6.96 -4.08
Si -9.08 -3.44 -0.79
Si  9.10  3.43  0.78
Si  6.49  1.16 -7.21
Si  8.61 -2.23 -4.04
Si  3.05  5.78  7.29
Si  5.55 -5.80 -5.61
Si  9.49  0.07  2.43
Si -9.50 -0.02 -2.40
Si  5.60  3.44  7.28
Si -3.13 -5.81 -7.27
Si -3.46 -2.30 -8.90
Si -5.60 -3.41 -7.31
Si  3.47  2.32  8.89
Si -3.46  2.31  8.90
Si -8.64  2.32  4.07
Si  8.64  2.32  4.07
Si -8.66 -2.31 -4.04
Si  3.41 -2.32 -8.93
Si -4.30 -0.01  8.84
Si  0.50  8.07 -5.61
Si -6.51 -1.13  7.31
Si -7.33 -3.48 -5.58
Si -5.61  5.78  5.71
Si -7.79  4.60  4.00
Si  2.51 -9.25  2.48
Si  7.77  4.61 -4.06
Si -2.52  9.28 -2.38
Si  7.34  3.52  5.65
Si -0.55 -8.10  5.71
Si -5.67 -8.11  0.79
Si -1.28  8.07  5.63
Si -7.82 -4.64  3.99
Si  7.80 -4.60 -4.08
Si  2.71  9.25  2.44
Si -2.66 -9.28 -2.41
Si  5.68  8.13 -0.81
Si  4.37 -0.01 -8.96
Si  6.83 -6.87  2.43
Si  1.22 -8.11 -5.70
Si  0.96  4.60  8.82
Si  3.84 -5.78 -7.21
Si  8.21  1.14 -5.61
Si -6.84  6.92 -2.40
Si -6.93 -6.88  2.38
Si  0.81 -4.62  8.89
Si -0.95 -4.66 -8.88
Si -0.80  4.64 -8.90
Si  6.93  6.91 -2.41
Si  8.24  5.77 -0.79
Si -3.85  5.81  7.31
Si -9.99 -1.19  0.81
Si -0.77  9.25 -3.99
Si -2.25 -8.09 -5.62
Si 10.00  1.13 -0.87
Si -8.27 -1.16  5.71
Si  0.74 -9.25  4.03
Si -0.94 -9.25 -4.04
Si -8.30 -5.79  0.76
Si  0.92  9.25  4.07
Si  2.23  8.17  5.64
Si -6.46  3.43 -7.22
Si -2.99  8.09 -5.66
Si  2.57 -4.62 -8.86
Si -2.56  4.58  8.89
Si  6.47 -3.50  7.26
Si  2.65  4.61 -8.86
Si  2.96 -8.09  5.70
Si -6.40  8.08  0.83
Si  9.54 -0.01 -4.00
Si -9.52 -0.02  4.06
Si -2.63 -4.63  8.88
Si -2.51  9.23  3.99
Si  6.42 -8.10 -0.80
Si -7.29  1.15 -7.28
Si  7.38 -1.15  7.24
Si  2.45 -9.27 -4.06
Si  6.54  5.76 -5.70
Si  4.20 -9.22 -2.46
Si -4.85 -5.75  7.22
Si -6.59 -5.80  5.63
Si -0.32 10.39 -0.84
Si  0.38 -10.41  0.73
Si -2.73 -9.27  4.00
Si  4.80  5.80 -7.28
Si -4.24  9.27  2.41
Si  1.39 10.36  0.78
Si -1.37 -10.38 -0.79
Si  2.74  9.28 -4.08
Si -5.14  2.31 -8.86
Si  4.38  9.25 -2.40
Si -0.86  0.02 -10.48
Si  0.86  0.03 10.48
Si -8.19  3.45 -5.63
Si  9.91 -3.44  0.79
Si -9.90  3.49 -0.79
Si  5.15 -2.36  8.89
Si  5.23  2.31 -8.86
Si -6.86  6.92  4.06
Si  6.88 -6.95 -4.00
Si -3.90 -8.06  5.61
Si -4.46 -9.28  2.42
Si  8.21 -3.48  5.68
Si -5.22 -2.36  8.89
Si -2.02 10.40  0.73
Si  3.92  8.07 -5.69
Si -7.02 -6.88 -4.04
Si  2.08 -10.41 -0.84
Si  7.03  6.92  4.10
Si  6.07 -0.01  8.84
Si -9.02  5.78 -0.80
Si  0.03  2.31 -10.49
Si  5.53 -5.75  7.22
Si  9.04 -5.79  0.83
Si  9.13 -1.13  5.61
Si -0.01 -2.33 10.52
Si  9.44 -4.62 -2.40
Si -2.60 -0.04 10.47
Si -6.01 -0.01 -8.96
Si  2.62  0.03 -10.48
Si -9.11  1.14 -5.69
Si  7.29 -5.70  5.64
Si -9.52  4.60  2.42
Si -10.75  1.13 -0.87
Si -5.57  5.80 -7.28
Si 10.76 -1.19  0.81
Si -1.68  2.29 10.48
Si -10.33  2.31  2.44
Si -3.12 -10.38  0.79
Si  1.69 -2.27 -10.50
Si  9.51  4.66 -2.46
Si -0.52 -8.07 -7.28
Si  0.47  8.12  7.22
Si  1.71  2.28 10.50
Si -9.56 -4.60  2.41
Si -7.31  5.78 -5.62
Si  4.65 -8.09 -5.62
Si  4.25 -4.63  8.90
Si -1.22  8.09 -7.21
Si 10.38 -2.35 -2.41
Si -10.38 -2.35 -2.41
Si  3.13 10.42 -0.79
Si -4.67  8.09  5.65
Si  4.35  4.67  8.88
Si -4.28  9.24 -3.98
Si -4.31  4.62 -8.93
Si -4.34 -4.64 -8.90
Si -1.70 -2.34 -10.55
Si  1.21 -8.06  7.31
Si 10.42  2.31  2.44
Si -4.42 -9.17 -4.04
Si  4.22 -9.27  4.08
Si -7.43 -3.49  7.28
Si  8.18  1.19  7.22
Si  7.39  8.08  0.76
Si  7.43  3.53 -7.31
Si  4.40  9.25  4.07
Si -7.45 -8.10 -0.79
Si -8.23 -1.14 -7.28
Si  2.19  8.06 -7.27
Si -3.77 10.43 -0.79
Si -2.27 -8.09  7.29
Si  3.79 -10.45  0.78
Si -9.09 -3.44  5.61
Si  3.41 -2.32 10.45
Si -2.97  8.07  7.25
Si  5.92 -9.28  2.42
Si -0.04 -6.91  8.90
Si  0.06  6.89 -8.91
Si -3.46 -2.30 10.48
Si -3.46  2.31 -10.48
Si  9.14  3.47 -5.62
Si  9.46 -4.62  4.07
Si -6.00  9.25 -2.40
Si  3.47  2.32 -10.49
Si  2.96 -8.09 -7.29
Si  4.37 -0.01 10.42
Si 10.31 -2.33  4.00
Si  8.59 -6.96 -2.40
Si -10.29  2.34 -4.08
Si -6.54 -5.78 -7.21
Si -9.48  4.70 -4.04
Si -1.65  6.93  8.84
Si  9.54  4.60  4.08
Si -8.60  7.01  2.43
Si -6.18 -9.22 -2.46
Si  6.13  9.27  2.41
Si -9.60 -4.63 -3.98
Si -4.30 -0.01 -10.53
Si  6.53  5.81  7.31
Si -5.73 -8.09 -5.62
Si  5.71  8.09  5.65
Si -10.84 -3.44  0.79
Si -1.80 -6.91 -8.90
Si 10.85  3.49 -0.79
Si -10.44 -2.33  4.00
Si  1.80  6.95  8.90
Si  8.16 -3.40 -7.26
Si -8.76 -6.96 -2.41
Si -8.09  8.07 -0.87
Si  8.77  6.99  2.38
Si  1.71 -6.94 -8.96
Si 10.46  2.34 -4.08
Si -8.17  3.45  7.29
Si -0.80  4.64 10.48
Si  0.81 -4.62 -10.49
Si -4.85 -10.39 -0.79
Si -6.91  2.32  8.89
Si  8.10 -8.12  0.81
Si  9.94  1.24  5.64
Si  6.91  2.31  8.90
Si -9.97 -1.15 -5.62
Si  6.92 -2.30 -8.90
