500
set: 332.00  0.00  0.00
Si  0.03  0.10 -0.04
Si -0.01 -2.08  0.76
Si -1.89  1.14  0.74
Si -0.02 -0.06 -2.33
Si  1.94  1.15  0.77
Si -1.85 -3.24  0.04
Si -1.89  0.99  3.07
Si  1.85 -3.26  0.00
Si -3.77 -0.01 -0.04
Si  0.02  2.14 -3.11
Si -1.87 -1.15 -3.08
Si  1.92  1.04  3.11
Si  0.02 -2.24  3.08
Si  3.81 -0.01 -0.04
Si -1.94  3.31  0.00
Si  1.90 -1.20 -3.12
Si  1.94  3.33  0.04
Si -1.86  3.21 -2.32
Si  3.75 -2.17  0.81
Si  1.85  3.31 -2.27
Si -0.02  2.16  3.86
Si -1.94 -3.26 -2.27
Si  3.77 -0.03 -2.33
Si -1.86 -1.16  3.87
Si -0.04  4.39  0.81
Si  1.85 -1.07  3.92
Si -3.81 -0.03 -2.33
Si -3.83 -2.17  0.81
Si  1.93 -3.35 -2.32
Si  3.74  2.16 -3.05
Si -0.05  4.34  3.14
Si -3.84  2.16 -3.05
Si  3.74 -2.22  3.14
Si -0.05 -4.41 -3.05
Si -3.84 -2.22  3.14
Si -1.85 -5.42  0.77
Si  1.90 -5.43  0.74
Si  3.77  2.13  3.86
Si -5.64  1.15  0.77
Si -1.85 -1.04 -5.42
Si -3.81  2.13  3.86
Si  5.69  1.14  0.74
Si  1.90 -1.05 -5.44
Si -0.02 -4.43  3.86
Si -0.01  2.29 -5.43
Si  3.78  4.48  0.76
Si -3.80  4.48  0.76
Si -1.89  5.37 -3.12
Si -3.77  4.33  3.08
Si -1.85  1.14 -6.15
Si  1.92  5.42 -3.08
Si  0.02  2.18  6.15
Si  3.81  4.33  3.08
Si  5.64  3.31  0.00
Si -5.66  1.04  3.11
Si  5.69  0.99  3.07
Si -5.64  3.33  0.04
Si  1.85  1.12 -6.19
Si  0.02  6.56 -0.04
Si  0.02 -6.57 -0.04
Si -1.94 -1.07  6.19
Si  5.73 -3.24  0.04
Si -5.68 -1.20 -3.12
Si  5.71 -1.15 -3.08
Si -5.73 -3.26  0.00
Si -3.77 -4.43 -3.11
Si  0.02 -2.19 -6.23
Si -1.87 -5.53  3.11
Si  1.94 -1.05  6.23
Si  3.81 -4.43 -3.11
Si  1.90 -5.57  3.07
Si  5.64 -3.26 -2.27
Si  1.93  5.40  3.87
Si  3.75  2.20 -5.38
Si -0.04 -4.36 -5.38
Si -0.02  6.54 -2.33
Si  5.72  3.21 -2.32
Si  3.77 -4.41  3.86
Si -3.83  2.20 -5.38
Si -5.65 -3.35 -2.32
Si -3.81 -4.41  3.86
Si -5.73  3.31 -2.27
Si -0.04  0.01  7.00
Si -0.02 -6.59 -2.33
Si  5.72 -1.16  3.87
Si -1.94  5.49  3.92
Si -5.73 -1.07  3.92
Si -3.77 -6.47 -0.04
Si  0.03 -4.28  6.15
Si  3.82 -6.47 -0.04
Si -7.56  0.10 -0.04
Si -3.77  2.29  6.15
Si -3.77 -2.09 -6.23
Si  3.82  2.29  6.15
Si  3.82 -2.09 -6.23
Si  7.61  0.10 -0.04
Si -3.77  6.67 -0.04
Si  0.03  4.47 -6.23
Si  3.82  6.67 -0.04
Si  3.77  6.51 -2.33
Si  3.78 -4.28 -5.43
Si -3.80 -4.28 -5.43
Si -1.89 -3.24  6.93
Si -3.81  6.51 -2.33
Si  7.58 -2.08  0.76
Si -5.68 -5.43  0.74
Si -7.59 -2.08  0.76
Si  7.56 -0.06 -2.33
Si  1.94 -3.23  6.96
Si  3.78  0.10  6.95
Si  1.90  3.32  6.93
Si -3.80  0.10  6.95
Si  5.73 -5.42  0.77
Si -1.85  3.34  6.96
Si -5.68 -1.05 -5.44
Si -7.60 -0.06 -2.33
Si  5.73 -1.04 -5.42
Si  1.90  7.70  0.74
Si -1.85  7.71  0.77
Si  3.77 -6.62 -2.33
Si -1.89  5.51 -5.44
Si  1.94  5.52 -5.42
Si -3.81 -6.62 -2.33
Si  1.90  7.56  3.07
Si -5.66  5.42 -3.08
Si  5.69  5.37 -3.12
Si  1.94 -5.43 -6.15
Si -1.87  7.61  3.11
Si -3.77 -4.38  6.15
Si  5.64 -1.07  6.19
Si -7.56  2.14 -3.11
Si  3.81 -4.38  6.15
Si -7.56 -2.24  3.08
Si -1.94 -5.45 -6.19
Si -5.64 -1.05  6.23
Si  5.73  1.14 -6.15
Si  1.85  5.50  6.19
Si  7.60  2.14 -3.11
Si -3.77  4.37 -6.23
Si  7.60 -2.24  3.08
Si -5.73  1.12 -6.19
Si  3.81  4.37 -6.23
Si  1.92 -7.71 -3.08
Si -1.85  5.52  6.23
Si -5.68 -5.57  3.07
Si  5.71 -5.53  3.11
Si -1.89 -7.76 -3.12
Si -5.65  5.40  3.87
Si -1.94  1.12 -8.46
Si  7.56  2.16  3.86
Si  7.54  4.39  0.81
Si -0.04 -8.74  0.81
Si  1.93  1.02 -8.51
Si -7.60  2.16  3.86
Si  5.64  5.49  3.92
Si -1.94 -7.64  3.92
Si -0.02 -2.22 -8.52
Si -7.62  4.39  0.81
Si  1.93 -7.73  3.87
Si -0.05  8.72 -3.05
Si  7.53  4.34  3.14
Si -0.05 -0.03 -9.24
Si  7.53 -4.41 -3.05
Si -0.05 -0.03  9.33
Si -7.63  4.34  3.14
Si -0.05 -8.79  3.14
Si -7.63 -4.41 -3.05
Si  3.78 -8.65  0.76
Si -3.80 -8.65  0.76
Si -0.01 -6.46  6.95
Si -0.02  8.70  3.86
Si -5.64 -3.23  6.96
Si  5.69 -3.24  6.93
Si  1.94 -7.61 -5.42
Si -0.02  4.32 -8.52
Si -1.89 -7.62 -5.44
Si -5.68  3.32  6.93
Si -9.47  1.14  0.74
Si -5.64  5.52 -5.42
Si  7.56 -4.43  3.86
Si  3.77 -2.25 -8.52
Si  7.58  2.29 -5.43
Si -5.68  7.70  0.74
Si -3.81 -2.25 -8.52
Si -7.59  2.29 -5.43
Si -7.60 -4.43  3.86
Si  5.69  5.51 -5.44
Si  5.74  3.34  6.96
Si  9.53  1.15  0.77
Si -0.01  6.67  6.95
Si  5.74  7.71  0.77
Si -5.68  7.56  3.07
Si -5.64 -5.43 -6.15
Si -9.43 -3.24  0.04
Si  1.90  3.18  9.26
Si -3.77  8.70 -3.11
Si  9.44 -3.26  0.00
Si -7.56  2.18  6.15
Si  5.64 -5.45 -6.19
Si  1.94 -9.80  0.04
Si -1.87  3.23 -9.27
Si  3.81  8.70 -3.11
Si  1.85 -7.64  6.19
Si -3.77 -0.05  9.27
Si -9.47  0.99  3.07
Si  5.71  7.61  3.11
Si -9.45 -1.15 -3.08
Si -1.85 -7.61  6.23
Si -7.56  6.56 -0.04
Si -1.94 -9.82  0.00
Si  1.90  3.18 -9.31
Si  7.60  2.18  6.15
Si -1.87  3.23  9.30
Si -7.57 -6.57 -0.04
Si  3.81 -0.05  9.27
Si -3.77 -0.05 -9.30
Si  1.92 -3.34 -9.27
Si -1.89 -3.38  9.26
Si  7.60  6.56 -0.04
Si -7.57 -2.19 -6.23
Si  1.85  9.87  0.00
Si  1.94  7.71 -6.15
Si  7.60 -6.57 -0.04
Si  3.81 -0.05 -9.30
Si -1.94  7.68 -6.19
Si -5.66 -7.71 -3.08
Si  9.50  1.04  3.11
Si  9.48 -1.20 -3.12
Si -3.77 -8.80  3.08
Si  1.92 -3.33  9.30
Si -1.85  9.89  0.04
Si -5.73  5.50  6.19
Si  7.60 -2.19 -6.23
Si  3.81 -8.80  3.08
Si -9.52  3.31  0.00
Si -1.89 -3.39 -9.31
Si  9.52  3.33  0.04
Si  5.73  5.52  6.23
Si  5.69 -7.76 -3.12
Si  5.64  1.12 -8.46
Si  1.85 -5.45 -8.46
Si  1.93  9.78 -2.32
Si  7.54 -4.36 -5.38
Si -9.44  3.21 -2.32
Si  9.44  3.31 -2.27
Si  1.85 -9.83 -2.27
Si  3.77  8.73  3.86
Si  7.56  6.54 -2.33
Si -5.65  1.02 -8.51
Si -9.44 -1.16  3.87
Si -3.81  8.73  3.86
Si  5.64 -7.64  3.92
Si  9.44 -1.07  3.92
Si  3.77  4.35 -8.52
Si  7.54  0.01  7.00
Si -0.02 -2.22 10.05
Si -0.04  8.77 -5.38
Si  3.75 -6.55  7.00
Si  1.93  1.03 10.06
Si -7.60  6.54 -2.33
Si -3.81  4.35 -8.52
Si  7.56 -6.59 -2.33
Si -7.62 -4.36 -5.38
Si  3.75  6.58  7.00
Si -1.94  9.87 -2.27
Si -9.52 -3.26 -2.27
Si -3.83 -6.55  7.00
Si -5.65 -7.73  3.87
Si -1.86 -5.54 -8.51
Si -7.60 -6.59 -2.33
Si -3.83  6.58  7.00
Si -7.62  0.01  7.00
Si  9.51 -3.35 -2.32
Si -1.86 -9.92 -2.32
Si -1.94  1.12 10.11
Si -7.56 -4.28  6.15
Si  0.03 -8.66 -6.23
Si  7.61 -4.28  6.15
Si -7.56  4.47 -6.23
Si  0.03  8.85  6.15
Si  7.61  4.47 -6.23
Si -9.43 -5.42  0.77
Si -5.64 -7.61 -5.42
Si -9.43 -1.04 -5.42
Si -0.02  4.32 10.05
Si  9.48 -5.43  0.74
Si  5.69 -7.62 -5.44
Si  3.77 -2.25 10.05
Si -3.81 -2.25 10.05
Si  9.48 -1.05 -5.44
Si  3.79  8.86 -5.43
Si -3.80  8.86 -5.43
Si -0.01 11.05  0.76
Si -5.64 -9.80  0.04
Si -9.43  1.14 -6.15
Si  0.02 10.89  3.08
Si -5.68  3.18  9.26
Si -9.47  5.37 -3.12
Si  0.02  6.52  9.27
Si  5.64 -9.82  0.00
Si  9.44  1.12 -6.19
Si -3.77  8.75  6.15
Si  3.81  8.75  6.15
Si  0.02  6.51 -9.30
Si -11.36 -0.01 -0.04
Si -5.64  7.71 -6.15
Si  5.71  3.23 -9.27
Si -5.68  3.18 -9.31
Si -5.66 -3.34 -9.27
Si  9.50  5.42 -3.08
Si  5.64  7.68 -6.19
Si -5.73 -7.64  6.19
Si  5.71  3.23  9.30
Si -9.45 -5.53  3.11
Si -5.66 -3.33  9.30
Si  5.69 -3.38  9.26
Si  5.73 -7.61  6.23
Si  0.02 -6.62  9.27
Si -3.77 -8.76 -6.23
Si 11.39 -0.01 -0.04
Si  3.81 -8.76 -6.23
Si -9.52 -1.07  6.19
Si -5.73  9.87  0.00
Si  0.02 -6.62 -9.30
Si  9.48 -5.57  3.07
Si  5.69 -3.39 -9.31
Si  0.02 -10.99 -3.11
Si  9.52 -1.05  6.23
Si  5.73  9.89  0.04
Si -5.65  9.78 -2.32
Si -1.86  7.59 -8.51
Si 11.33 -2.17  0.81
Si  7.54 -8.74  0.81
Si -0.04  0.01 -11.57
Si  1.85  7.68 -8.46
Si  3.77  4.35 10.05
Si -5.73 -5.45 -8.46
Si -5.65  1.03 10.06
Si 11.35 -0.03 -2.33
Si -3.81  4.35 10.05
Si  5.64  9.87 -2.27
Si -5.73 -9.83 -2.27
Si  9.51  5.40  3.87
Si  7.56 -2.22 -8.52
Si  3.75 10.96  0.81
Si -7.62 -8.74  0.81
Si -0.02 -10.97  3.86
Si -1.86 -5.54 10.06
Si -11.39 -0.03 -2.33
Si  1.85 -5.45 10.11
Si  5.64  1.12 10.11
Si -3.83 10.96  0.81
Si -7.60 -2.22 -8.52
Si -11.41 -2.17  0.81
Si  5.72 -5.54 -8.51
Si -9.52  5.49  3.92
Si  5.72 -9.92 -2.32
Si  3.74  6.53 -9.24
Si  7.53  8.72 -3.05
Si  7.53 -0.03 -9.24
Si 11.32  2.16 -3.05
Si  3.74 10.91  3.14
Si -3.84  6.53 -9.24
Si  3.74 -6.60 -9.24
Si 11.32 -2.22  3.14
Si -3.84 10.91  3.14
Si -7.63  8.72 -3.05
Si  3.74  6.54  9.33
Si  7.53 -0.03  9.33
Si  7.53 -8.79  3.14
Si -7.63 -0.03 -9.24
Si  3.74 -10.97 -3.05
Si -3.84 -6.60 -9.24
Si -3.84  6.54  9.33
Si  3.74 -6.60  9.33
Si -11.43  2.16 -3.05
Si -3.84 -10.97 -3.05
Si -7.63 -0.03  9.33
Si -3.84 -6.60  9.33
Si -11.43 -2.22  3.14
Si -7.63 -8.79  3.14
Si -0.01 -10.84 -5.43
Si  7.58 -6.46  6.95
Si -7.59 -6.46  6.95
Si  7.56  8.70  3.86
Si -1.85 -9.79  6.96
Si  1.90 -9.81  6.93
Si  1.94 -11.98  0.77
Si -1.89 -12.00  0.74
Si -7.60  8.70  3.86
Si -9.47 -3.24  6.93
Si 11.36  2.13  3.86
Si  7.56  4.32 -8.52
Si -9.43  3.34  6.96
Si  1.94 -3.23 -11.61
Si -9.43  7.71  0.77
Si -7.60  4.32 -8.52
Si  9.48  3.32  6.93
Si -11.39  2.13  3.86
Si  3.78  0.10 -11.62
Si -1.85  3.33 -11.61
Si -3.80  0.10 -11.62
Si -1.89 -3.24 -11.63
Si -1.89  9.89  6.93
Si  9.53 -3.23  6.96
Si -9.47  5.51 -5.44
Si  9.48  7.70  0.74
Si 11.37  4.48  0.76
Si  1.90  3.32 -11.63
Si  3.77 -11.00  3.86
Si -11.38  4.48  0.76
Si  7.58  6.67  6.95
Si -0.02 -8.81 -8.52
Si  1.94  9.90  6.96
Si -7.59  6.67  6.95
Si -3.81 -11.00  3.86
Si  9.53  5.52 -5.42
Si  1.90 11.93 -3.12
Si  9.48  7.56  3.07
Si -1.87 11.98 -3.08
Si -9.45  7.61  3.11
Si  1.94 -1.05 -12.34
Si  0.02 -2.19 12.34
Si -11.36  4.33  3.08
Si  9.44  5.50  6.19
Si  0.02 -10.95  6.15
Si  9.52 -5.43 -6.15
Si 11.39  4.33  3.08
Si  1.85  1.12 12.38
Si -1.94 -1.07 -12.38
Si -11.36 -4.43 -3.11
Si -9.43  5.52  6.23
Si  0.02 10.94 -6.23
Si -9.52 -5.45 -6.19
Si  0.02  2.18 -12.42
Si -1.85  1.14 12.42
Si 11.39 -4.43 -3.11
Si  9.50 -7.71 -3.08
Si  1.92 -12.09  3.11
Si -9.47 -7.76 -3.12
Si -1.89 -12.14  3.07
Si -1.86 11.97  3.87
Si -1.86  7.59 10.06
Si 11.33  2.20 -5.38
Si  3.75 -10.93 -5.38
Si  7.54  8.77 -5.38
Si  5.72  7.59 -8.51
Si  7.56 -2.22 10.05
Si -3.83 -10.93 -5.38
Si 11.35 -4.41  3.86
Si -5.73  7.68 -8.46
Si -9.52  1.12 -8.46
Si -7.60 -2.22 10.05
Si -7.62  8.77 -5.38
Si  9.51  1.02 -8.51
Si  3.77 -8.78 -8.52
Si -11.39 -4.41  3.86
Si -11.41  2.20 -5.38
Si  1.85 12.06  3.92
Si -9.52 -7.64  3.92
Si -3.81 -8.78 -8.52
Si  5.72 -5.54 10.06
Si  1.85  7.68 10.11
Si -5.73 -5.45 10.11
Si  9.51 -7.73  3.87
Si -3.77 -10.84  6.15
Si  0.03 -13.03 -0.04
Si  3.82 -10.84  6.15
Si -11.35 -6.47 -0.04
Si -3.77 -2.09 12.34
Si -7.56 -8.66 -6.23
Si  3.82 -2.09 12.34
Si  7.61 -8.66 -6.23
Si 11.40 -6.47 -0.04
Si -11.35  2.29  6.15
Si -11.35 -2.09 -6.23
Si  0.03  4.48 12.34
Si  0.03 -4.28 -12.42
Si 11.40  2.29  6.15
Si 11.40 -2.09 -6.23
Si -11.35  6.67 -0.04
Si -7.56  8.85  6.15
Si -3.77  2.29 -12.42
Si  3.82  2.29 -12.42
Si  7.61  8.85  6.15
Si 11.40  6.67 -0.04
Si -3.77 11.04 -6.23
Si  0.03 13.23 -0.04
Si  3.82 11.04 -6.23
Si -5.64 -11.98  0.77
Si -0.02 13.07 -2.33
Si -5.68 -9.81  6.93
Si 11.36  6.51 -2.33
Si -0.01 -6.46 -11.62
Si -13.22  1.15  0.77
Si  5.69 -12.00  0.74
Si  7.56  4.32 10.05
Si 11.37 -4.28 -5.43
Si  1.90 -1.05 13.12
Si -5.64 -3.23 -11.61
