500
set: 726.00  0.00  0.00
Si  0.84 -1.06  0.70
Si  0.60 -0.90 -1.43
Si -0.42  0.54  1.77
Si  0.20  1.53 -1.56
Si -1.43  2.06  0.67
Si -2.42  0.19 -1.24
Si -1.59 -2.22 -1.69
Si  1.29  2.25  2.23
Si -2.80 -0.72  1.88
Si  2.60  1.65 -1.88
Si  2.32 -1.99  2.11
Si -1.74  2.76 -2.00
Si  2.33 -2.65 -1.71
Si -1.63 -1.06 -3.50
Si  0.91 -0.93 -3.83
Si -0.13  3.96 -0.89
Si -0.72  2.83  3.03
Si  1.48  1.27 -3.75
Si  0.16 -3.91 -1.77
Si  3.88 -0.78 -1.83
Si -0.43 -1.41  4.22
Si  3.40  2.89  0.73
Si -3.86 -2.54  0.98
Si -4.49 -1.33 -0.89
Si -2.33 -1.76  3.85
Si -2.89  3.53  1.64
Si -0.83 -3.62  3.52
Si  4.70 -1.73  1.15
Si  4.58  0.31  2.36
Si -1.71  2.29 -4.33
Si  1.62 -1.19  4.80
Si -3.82  0.50  3.50
Si  1.68 -3.60  3.61
Si -4.64  2.10  1.75
Si -4.77  1.16 -2.29
Si -5.39  0.88 -0.08
Si  0.06  4.33 -3.35
Si -4.01 -3.19 -1.98
Si  5.17  2.01 -0.58
Si -2.95 -4.09  2.54
Si -0.11 -5.65  0.05
Si -5.01 -1.37  2.63
Si  4.13  3.95 -1.30
Si  1.71  5.38 -1.60
Si -0.59  5.87  0.42
Si -3.46 -1.83 -4.44
Si  2.21 -2.58 -4.93
Si -1.12  2.68  5.24
Si  0.74  5.60  2.10
Si -1.02 -5.54  2.21
Si  4.60 -0.80 -3.99
Si -0.51  0.23 -6.18
Si -3.65  5.04 -0.33
Si  3.65  3.99  3.13
Si  6.27  0.41  0.58
Si  3.16  0.23 -5.53
Si  2.91 -4.45 -3.66
Si  4.20 -4.97 -0.45
Si  2.18 -5.90 -1.86
Si -2.35 -1.23  6.01
Si  1.66  0.36  6.41
Si  2.31  2.61 -5.71
Si  1.20  2.55  6.10
Si  3.45  5.70  1.04
Si  5.57 -2.56  2.92
Si -3.16  1.77  5.81
Si -4.41  4.02  3.60
Si  2.14  5.15  4.25
Si  0.29 -6.00 -3.87
Si  0.75  4.38 -5.63
Si -3.29  4.11 -4.91
Si  5.19 -3.02 -3.98
Si -1.49  5.63 -4.26
Si -6.08  3.92 -0.86
Si  5.59 -4.14 -2.26
Si -1.50  5.02  5.11
Si -6.33 -3.62 -1.05
Si  6.31  1.47  3.55
Si -6.01  0.04  4.31
Si -5.42  2.87 -4.22
Si  4.39 -4.02  4.48
Si -2.99 -4.76  4.94
Si  6.70  3.19  1.11
Si  3.83  6.19 -1.84
Si -4.78 -5.78  0.91
Si -0.15 -4.52 -6.12
Si -7.58  0.41  0.58
Si  1.66  0.36 -7.44
Si -6.78  0.18 -3.52
Si  5.61  4.06 -3.31
Si -4.57 -5.88 -1.89
Si  6.27 -4.33  1.03
Si -0.51  0.23  7.67
Si -3.92 -3.80 -5.56
Si -2.01 -3.48  6.68
Si  2.72 -6.34  3.69
Si  4.00  4.14 -5.33
Si  7.07  0.18 -3.52
Si -7.15  3.19  1.11
Si -2.17  6.84  3.37
Si -5.45 -4.55 -3.57
Si -6.44 -2.33  4.06
Si -0.59 -7.98  0.42
Si -5.56 -0.24 -5.82
Si -2.17 -7.01  3.37
Si  5.33  5.64  2.39
Si -0.11  8.20  0.05
Si  4.46  1.95 -6.61
Si -2.01 -3.48 -7.17
Si  1.20  2.55 -7.75
Si -0.00 -6.91  4.50
Si -0.00  6.94  4.50
Si  1.69 -5.62 -5.83
Si -2.35 -1.23 -7.84
Si  3.60  6.24 -4.13
Si  2.66  4.47  6.52
Si  7.52 -3.62 -1.05
Si  2.18  7.95 -1.86
Si -7.54  1.47  3.55
Si -5.28  6.61 -0.62
Si  8.46  0.88 -0.08
Si  0.74 -8.25  2.10
Si  4.71 -5.22 -4.88
Si -5.01 -2.28 -6.68
Si -1.02  8.31  2.21
Si -6.79  4.41  3.24
Si  4.46  1.95  7.24
Si -3.60 -6.84 -4.07
Si  7.77  3.92 -0.86
Si  3.83 -7.66 -1.84
Si  3.47 -4.23  6.84
Si  0.29  7.86 -3.87
Si  7.41 -2.33  4.06
Si  1.71 -8.47 -1.60
Si -5.64 -4.13  5.33
Si -7.58 -4.33  1.03
Si  2.72  7.51  3.69
Si -5.87  2.70  5.99
Si -3.16  1.77 -8.04
Si  2.31  2.61  8.14
Si -3.60  7.01 -4.07
Si  3.47 -4.23 -7.01
Si  3.16  0.23  8.32
Si  3.45 -8.15  1.04
Si  7.06  4.41  3.24
Si -8.68  2.01 -0.58
Si  7.84  0.04  4.31
Si -0.15 -4.52  7.73
Si -5.11 -6.72  2.99
Si -5.28 -7.24 -0.62
Si  2.66  4.47 -7.33
Si -5.01 -2.28  7.17
Si -2.14 -6.46  6.00
Si -1.12  2.68 -8.61
Si -0.48 -6.92 -5.93
Si -0.48  6.93 -5.93
Si -8.28 -2.56  2.92
Si  5.59 -6.72 -3.06
Si -5.11  7.13  2.99
Si  1.62 -1.19 -9.05
Si  8.84 -1.37  2.63
Si  0.75  4.38  8.22
Si -6.58  5.86 -3.13
Si -1.49 -8.22 -4.26
Si  3.60 -7.61 -4.13
Si -9.15 -1.73  1.15
Si -4.57  7.97 -1.89
Si  6.86  2.19 -6.04
Si -4.96  5.55 -5.77
Si  4.96 -6.76  4.30
Si -4.78  8.07  0.91
Si  6.75 -6.21  2.20
Si  9.08  1.16 -2.29
Si  6.43 -1.54  6.74
Si -6.99  2.19 -6.04
Si  9.36 -1.33 -0.89
Si -8.26 -4.14 -2.26
Si -3.65 -8.81 -0.33
Si  2.21 -2.58  8.92
Si  5.59  7.13 -3.06
Si -9.27  0.31  2.36
Si  9.21  2.10  1.75
Si  3.03  6.81  6.07
Si  4.96  7.08  4.30
Si -7.10 -6.21  2.20
Si  6.43 -1.54 -7.11
Si -0.43 -1.41 -9.63
Si -2.14  7.39  6.00
Si -8.24  4.06 -3.31
Si -5.56 -0.24  8.03
Si  3.03 -7.04  6.07
Si -4.29  6.38  6.03
Si  4.20  8.88 -0.45
Si -4.69 -6.12 -6.09
Si  7.27  5.86 -3.13
Si  8.43  2.87 -4.22
Si  2.14 -8.70  4.25
Si -3.92 -3.80  8.29
Si -0.13 -9.89 -0.89
Si -1.71  2.29  9.52
Si  1.69 -5.62  8.02
Si  6.69  4.40 -5.91
Si -8.66 -3.02 -3.98
Si -6.26  5.40  5.62
Si  5.33 -8.21  2.39
Si  0.06 -9.52 -3.35
Si  0.16  9.94 -1.77
Si -9.25 -0.80 -3.99
Si  0.91 -0.93 10.02
Si  8.29 -0.24 -5.82
Si -7.42 -1.54  6.74
Si -9.97 -0.78 -1.83
Si -5.87  2.70 -7.86
Si -1.50  5.02 -8.74
Si -3.46 -1.83  9.41
Si  8.40 -4.55 -3.57
Si  1.69  8.23 -5.83
Si -7.16  4.40 -5.91
Si  1.48  1.27 10.10
Si  4.00  4.14  8.52
Si -1.50 -8.83  5.11
Si  7.98  2.70  5.99
Si  9.99 -2.54  0.98
Si -3.29  4.11  8.94
Si -7.42 -1.54 -7.11
Si -2.14 -6.46 -7.85
Si -2.33 -1.76 -10.00
Si  6.75  7.63  2.20
Si -8.52  5.64  2.39
Si  2.91  9.40 -3.66
Si -2.95  9.76  2.54
Si -4.29 -7.47  6.03
Si -0.48 -6.92  7.92
Si  9.84 -3.19 -1.98
Si -2.99 -4.76 -8.91
Si -1.63 -1.06 10.35
Si -0.48  6.93  7.92
Si -9.72  3.95 -1.30
Si  6.86  2.19  7.82
Si  8.21 -4.13  5.33
Si 10.03  0.50  3.50
Si -7.10  7.63  2.20
Si -6.99  2.19  7.82
Si -2.99  9.09  4.94
Si  3.03  6.81 -7.78
Si  9.07 -5.78  0.91
Si  4.13 -9.90 -1.30
Si -6.58 -7.99 -3.13
Si -2.89 -10.32  1.64
Si  8.57  6.61 -0.62
Si -0.83 10.23  3.52
Si -10.45  2.89  0.73
Si -9.65 -4.97 -0.45
Si  9.44  4.02  3.60
Si  7.59  5.40  5.62
Si -4.69  7.72 -6.09
Si  4.60 -0.80  9.86
Si  3.03 -7.04 -7.78
Si -4.69 -6.12  7.76
Si  3.65 -9.86  3.13
Si -4.29  6.38 -7.82
Si  4.71  8.63 -4.88
Si  1.68 -3.60 -10.24
Si -0.83 -3.62 -10.33
Si -4.96  5.55  8.08
Si -2.14  7.39 -7.85
Si  1.68 10.25  3.61
Si -5.64 -4.13 -8.52
Si -3.82  0.50 -10.35
Si  0.75 -9.47 -5.63
Si -8.26 -6.72 -3.06
Si  4.39 -4.02 -9.37
Si  2.14  5.15 -9.60
Si  9.28 -5.88 -1.89
Si  6.55 -6.34 -6.43
Si -0.15  9.33 -6.12
Si -0.72  2.83 -10.82
Si -9.46 -4.02  4.48
Si -1.49  5.63  9.59
Si 11.05 -0.72  1.88
Si  8.57 -7.24 -0.62
Si  7.27 -7.99 -3.13
Si -4.96 -8.30 -5.77
Si  6.69  4.40  7.94
Si -6.01  0.04 -9.54
Si  8.84 -2.28 -6.68
Si -8.26  7.13 -3.06
Si -5.45  9.30 -3.57
Si  0.06  4.33 10.50
Si -4.41 -9.83  3.60
Si 10.20  5.04 -0.33
Si -3.29 -9.74 -4.91
Si -10.20  3.99  3.13
Si -1.74 -11.09 -2.00
Si  4.71 -5.22  8.97
Si -5.42  2.87  9.63
Si  8.74 -6.72  2.99
Si  5.59  9.71 -2.26
Si  6.27  9.52  1.03
Si 10.39 -1.83 -4.44
Si -0.72 -11.02  3.03
Si  2.91 -4.45 10.19
Si 11.43  0.19 -1.24
Si  3.40 -10.96  0.73
Si  7.98  2.70 -7.86
Si -11.25  1.65 -1.88
Si  8.29 -0.24  8.03
Si  5.19 -3.02  9.87
Si -4.01 10.66 -1.98
Si  2.33 11.20 -1.71
Si -7.16  4.40  7.94
Si -9.14 -5.22 -4.88
Si  8.84 -2.28  7.17
Si  1.69  8.23  8.02
Si -7.30 -6.34 -6.43
Si -0.00 -6.91 -9.35
Si 10.96  3.53  1.64
Si -4.29 -7.47 -7.82
Si -0.00  6.94 -9.35
Si  0.29 -6.00  9.98
Si -9.39  1.95 -6.61
Si  4.39  9.83  4.48
Si -6.26  5.40 -8.23
Si -6.08 -9.93 -0.86
Si  8.74  7.13  2.99
Si  2.66 -9.38  6.52
Si  6.55 -6.34  7.42
Si  5.61 -9.79 -3.31
Si  4.00 -9.71 -5.33
Si -4.41  4.02 -10.25
Si  6.55  7.50 -6.43
Si -1.59 11.63 -1.69
Si -11.53 -1.99  2.11
Si  1.29 -11.60  2.23
Si -1.43 -11.79  0.67
Si  1.29  2.25 -11.62
Si -10.40  5.70  1.04
Si -4.69  7.72  7.76
Si 10.90 -4.09  2.54
Si -6.26 -8.45  5.62
Si -10.02  6.19 -1.84
Si -9.85  4.14 -5.33
Si -11.52 -2.65 -1.71
Si -6.44 -2.33 -9.79
Si  8.89  5.55 -5.77
Si -8.89 -6.76  4.30
Si -3.86 11.31  0.98
Si  9.93 -3.80 -5.56
Si  3.65  3.99 -10.72
Si -9.39  1.95  7.24
Si -10.69  0.23 -5.53
Si -8.52 -8.21  2.39
Si -6.79 -9.44  3.24
Si -6.33 10.23 -1.05
Si -0.42  0.54 -12.07
Si  3.60  6.24  9.72
Si -0.15  9.33  7.73
Si  2.32 -1.99 -11.74
Si -3.92 10.05 -5.56
Si -8.89  7.08  4.30
Si  6.31  1.47 -10.30
Si  9.07  8.07  0.91
Si -7.30 -6.34  7.42
Si  2.66 -9.38 -7.33
Si -7.58  9.52  1.03
Si  7.06 -9.44  3.24
Si  2.32 11.86  2.11
Si 11.52 -1.76  3.85
Si  2.72 -6.34 -10.15
Si -1.74  2.76 11.85
Si -7.30  7.50 -6.43
Si 10.69  1.77  5.81
Si  3.47  9.62  6.84
Si -2.80 -0.72 -11.97
Si  7.84  0.04 -9.54
Si 10.56  4.11 -4.91
Si -6.78  0.18 10.32
Si  2.60  1.65 11.97
Si -10.94 -4.45 -3.66
Si -5.01 -1.37 -11.22
Si  4.58  0.31 -11.49
Si  9.28  7.97 -1.89
Si -2.95 -4.09 -11.31
Si  0.20  1.53 12.29
Si -1.12 -11.17  5.24
Si  3.47  9.62 -7.01
Si  6.55  7.50  7.42
Si  0.20 -12.32 -1.56
Si  7.59  5.40 -8.23
Si -5.64  9.72  5.33
Si -1.59 -2.22 12.16
Si -3.60 -6.84  9.78
Si -1.71 -11.56 -4.33
Si  0.60 -0.90 12.42
Si  2.21 11.27 -4.93
Si -5.45 -4.55 10.28
Si  7.41 -2.33 -9.79
Si -2.01 10.37  6.68
Si -1.50 -8.83 -8.74
Si  7.07  0.18 10.32
Si  8.21 -4.13 -8.52
Si  5.57 -2.56 -10.93
Si -4.77  1.16 11.56
Si -3.60  7.01  9.78
Si  0.75 -9.47  8.22
Si 12.26 -2.22 -1.69
Si 12.11  2.76 -2.00
Si  9.16 -6.12 -6.09
Si -4.96 -8.30  8.08
Si  5.61  4.06 10.54
Si 12.43  2.06  0.67
Si  2.60 -12.20 -1.88
Si  7.77 -9.93 -0.86
Si  6.70 -10.66  1.11
Si  2.33 -2.65 12.14
Si  3.88 -0.78 12.02
Si  5.19 10.83 -3.98
Si  7.59 -8.45  5.62
Si -10.25  6.24 -4.13
Si  0.16 -3.91 12.08
Si -2.17  6.84 -10.48
Si  0.29  7.86  9.98
Si -1.49 -8.22  9.59
Si  4.96 -6.76 -9.55
Si  7.52 10.23 -1.05
Si -10.02 -7.66 -1.84
Si 12.22 -1.06 -3.50
Si -4.64 -11.75  1.75
Si -2.01 10.37 -7.17
Si -2.17 -7.01 -10.48
Si  2.31 -11.24 -5.71
Si -7.30  7.50  7.42
Si  0.84 12.79  0.70
Si -2.42  0.19 12.61
Si 10.86 -4.76  4.94
Si -7.54  1.47 -10.30
Si  3.60 -7.61  9.72
Si -7.15 -10.66  1.11
Si  4.96  7.08 -9.55
Si -2.33 12.09  3.85
Si -11.64 -2.58 -4.93
Si  1.20 -11.30  6.10
Si  2.72  7.51 -10.15
Si  5.57 11.29  2.92
Si -1.02 -5.54 -11.64
Si  5.17 -11.84 -0.58
Si -4.01 -3.19 11.87
Si -12.55  2.25  2.23
Si -8.26  9.71 -2.26
Si -5.42 -10.98 -4.22
Si 10.24 -6.84 -4.07
Si  9.55  6.38  6.03
Si -12.37  1.27 -3.75
Si  6.69 -9.45 -5.91
Si 11.50 -1.23  6.01
Si  8.40  9.30 -3.57
Si  0.74  5.60 -11.75
Si -2.89  3.53 -12.21
Si  0.60 12.95 -1.43
Si  4.70 12.12  1.15
Si 10.24  7.01 -4.07
Si -13.01 -1.06  0.70
Si -2.99  9.09 -8.91
Si 12.14  2.29 -4.33
Si  8.43  2.87  9.63
Si -9.65  8.88 -0.45
Si -4.64  2.10 -12.10
Si -10.38 -4.23  6.84
Si  2.14 -8.70 -9.60
Si -11.54  2.61 -5.71
Si -0.43 12.44  4.22
Si -12.23 -1.19  4.80
Si -12.17 -3.60  3.61
Si -11.67 -5.90 -1.86
Si  1.48 -12.58 -3.75
Si -8.24 -9.79 -3.31
Si  0.84 -1.06 -13.15
Si -10.38 -4.23 -7.01
Si  8.89  5.55  8.08
Si -7.16 -9.45 -5.91
Si -10.40 -8.15  1.04
Si -3.46 12.02 -4.44
Si  4.71  8.63  8.97
Si -4.49 12.52 -0.89
Si -11.13 -6.34  3.69
Si -6.79  4.41 -10.61
Si -13.25 -0.90 -1.43
Si -6.26 -8.45 -8.23
Si -1.63 12.79 -3.50
Si -12.14  5.38 -1.60
Si -1.43  2.06 -13.18
Si -10.25 -7.61 -4.13
Si -0.42 -13.31  1.77
Si  9.16  7.72 -6.09
Si  8.89 -8.30 -5.77
Si -8.66 -3.02  9.87
Si  9.16 -6.12  7.76
Si -11.71  5.15  4.25
Si -9.14  8.63 -4.88
Si  9.93 -3.80  8.29
