500
set: 607.00  0.00  0.00
Si  0.64 -1.38  1.05
Si -0.64  1.38 -1.05
Si  1.18  0.98  1.05
Si -1.18 -0.98 -1.05
Si -2.35  0.98  1.05
Si  2.35 -0.98 -1.05
Si -0.41  0.32  2.88
Si  0.41 -0.32 -2.88
Si -2.90 -1.38  1.05
Si  2.90  1.38 -1.05
Si -0.95 -2.03  2.88
Si  0.95  2.03 -2.88
Si  0.09 -3.73  1.05
Si -0.09  3.73 -1.05
Si -1.73 -3.34 -1.05
Si  1.73  3.34  1.05
Si -0.14 -2.68 -2.88
Si  0.14  2.68  2.88
Si -1.81  3.34  1.05
Si  1.81 -3.34 -1.05
Si -3.13 -0.32 -2.88
Si  3.13  0.32  2.88
Si  2.59 -2.03  2.88
Si -2.59  2.03 -2.88
Si -4.18  1.38 -1.05
Si  4.18 -1.38  1.05
Si -3.94  0.32  2.88
Si  3.94 -0.32 -2.88
Si -4.72 -0.98 -1.05
Si  4.72  0.98  1.05
Si  3.44  3.73 -1.05
Si -3.44 -3.73  1.05
Si -1.42  0.07 -4.99
Si  1.42 -0.07  4.99
Si  3.40 -2.68 -2.88
Si -3.40  2.68  2.88
Si -3.63  3.73 -1.05
Si  3.63 -3.73  1.05
Si -3.68 -2.68 -2.88
Si  3.68  2.68  2.88
Si  2.12  0.07 -4.99
Si -2.12 -0.07  4.99
Si -1.50 -4.39  2.88
Si  1.50  4.39 -2.88
Si -0.87  2.43 -4.99
Si  0.87 -2.43  4.99
Si -2.04  4.39 -2.88
Si  2.04 -4.39  2.88
Si  4.49  2.03 -2.88
Si -4.49 -2.03  2.88
Si  1.57 -2.29 -4.99
Si -1.57  2.29  4.99
Si -1.96 -2.29 -4.99
Si  1.96  2.29  4.99
Si  0.69  5.04  2.88
Si -0.69 -5.04 -2.88
Si  1.26 -5.69 -1.05
Si -1.26  5.69  1.05
Si  5.89 -0.98 -1.05
Si -5.89  0.98  1.05
Si  2.67  2.43 -4.99
Si -2.67 -2.43  4.99
Si -0.45 -6.09  1.05
Si  0.45  6.09 -1.05
Si  2.27  5.69  1.05
Si -2.27 -5.69 -1.05
Si -5.27 -3.34 -1.05
Si  5.27  3.34  1.05
Si -5.35  3.34  1.05
Si  5.35 -3.34 -1.05
Si  2.85 -5.04 -2.88
Si -2.85  5.04  2.88
Si -6.44 -1.38  1.05
Si  6.44  1.38 -1.05
Si -0.17 -0.73  6.81
Si  0.17  0.73 -6.81
Si  1.03 -4.64 -4.99
Si -1.03  4.64  4.99
Si -3.09  6.09 -1.05
Si  3.09 -6.09  1.05
Si  0.33 -4.78  4.99
Si -0.33  4.78 -4.99
Si  0.37  1.63  6.81
Si -0.37 -1.63 -6.81
Si  4.96 -0.07  4.99
Si -4.96  0.07 -4.99
Si -6.13  2.03 -2.88
Si  6.13 -2.03  2.88
Si -4.41  2.43 -4.99
Si  4.41 -2.43  4.99
Si -4.22 -5.04 -2.88
Si  4.22  5.04  2.88
Si  2.51  4.64  4.99
Si -2.51 -4.64 -4.99
Si -5.03 -4.39  2.88
Si  5.03  4.39 -2.88
Si  6.67  0.32  2.88
Si -6.67 -0.32 -2.88
Si -3.99 -6.09  1.05
Si  3.99  6.09 -1.05
Si -1.50  6.75 -2.88
Si  1.50 -6.75  2.88
Si  5.11 -2.29 -4.99
Si -5.11  2.29  4.99
Si  0.72  3.08 -6.81
Si -0.72 -3.08  6.81
Si -4.80  5.69  1.05
Si  4.80 -5.69 -1.05
Si -5.66 -0.07  4.99
Si  5.66  0.07 -4.99
Si -2.04 -6.75  2.88
Si  2.04  6.75 -2.88
Si  3.21  4.78 -4.99
Si -3.21 -4.78  4.99
Si  3.37 -0.73  6.81
Si -3.37  0.73 -6.81
Si  5.58 -4.39  2.88
Si -5.58  4.39 -2.88
Si  3.16 -1.63 -6.81
Si -3.16  1.63  6.81
Si  5.50  2.29  4.99
Si -5.50 -2.29 -4.99
Si  3.71  0.73 -6.81
Si -3.71 -0.73  6.81
Si  7.71 -1.38  1.05
Si -7.71  1.38 -1.05
Si -3.87  4.78 -4.99
Si  3.87 -4.78  4.99
Si  0.92  3.98  6.81
Si -0.92 -3.98 -6.81
Si -6.94  2.68  2.88
Si  6.94 -2.68 -2.88
Si -6.98 -3.73  1.05
Si  6.98  3.73 -1.05
Si -2.82  3.08 -6.81
Si  2.82 -3.08  6.81
Si -7.48  0.32  2.88
Si  7.48 -0.32 -2.88
Si -3.91 -1.63 -6.81
Si  3.91  1.63  6.81
Si  1.23  7.39  2.88
Si -1.23 -7.39 -2.88
Si -0.72  8.05  1.05
Si  0.72 -8.05 -1.05
Si -7.17  3.73 -1.05
Si  7.17 -3.73  1.05
Si  4.57 -4.64 -4.99
Si -4.57  4.64  4.99
Si  5.81  5.69  1.05
Si -5.81 -5.69 -1.05
Si  7.22  2.68  2.88
Si -7.22 -2.68 -2.88
Si  2.31 -7.39 -2.88
Si -2.31  7.39  2.88
Si  2.62 -3.98 -6.81
Si -2.62  3.98  6.81
Si  6.20  2.43 -4.99
Si -6.20 -2.43  4.99
Si -8.26 -0.98 -1.05
Si  8.26  0.98  1.05
Si -1.00 -8.45  1.05
Si  1.00  8.45 -1.05
Si  2.82  8.05  1.05
Si -2.82 -8.05 -1.05
Si -4.25 -3.08  6.81
Si  4.25  3.08 -6.81
Si -0.48  7.00  4.99
Si  0.48 -7.00 -4.99
Si -6.39  5.04  2.88
Si  6.39 -5.04 -2.88
Si  0.22  7.14 -4.99
Si -0.22 -7.14  4.99
Si -8.03 -2.03  2.88
Si  8.03  2.03 -2.88
Si  1.26  5.44 -6.81
Si -1.26 -5.44  6.81
Si -2.54  8.45 -1.05
Si  2.54 -8.45  1.05
Si -5.04  6.75 -2.88
Si  5.04 -6.75  2.88
Si  2.28 -5.44  6.81
Si -2.28  5.44 -6.81
Si  6.62 -6.09  1.05
Si -6.62  6.09 -1.05
Si  4.46  3.98  6.81
Si -4.46 -3.98 -6.81
Si -1.34  1.23  8.93
Si  1.34 -1.23 -8.93
Si -6.05 -4.64 -4.99
Si  6.05  4.64  4.99
Si  3.05  7.00  4.99
Si -3.05 -7.00 -4.99
Si  1.65 -1.12  8.93
Si -1.65  1.12 -8.93
Si  4.26 -8.05 -1.05
Si -4.26  8.05  1.05
Si -1.89 -1.12  8.93
Si  1.89  1.12 -8.93
Si  5.58  6.75 -2.88
Si -5.58 -6.75  2.88
Si -4.77 -7.39 -2.88
Si  4.77  7.39  2.88
Si  2.20  1.23  8.93
Si -2.20 -1.23 -8.93
Si  3.32 -7.14  4.99
Si -3.32  7.14 -4.99
Si  1.47  6.34  6.81
Si -1.47 -6.34 -6.81
Si  8.80  3.34  1.05
Si -8.80 -3.34 -1.05
Si -3.75 -7.14  4.99
Si  3.75  7.14 -4.99
Si  4.02 -7.00 -4.99
Si -4.02  7.00  4.99
Si -2.07  6.34  6.81
Si  2.07 -6.34 -6.81
Si  9.43 -0.98 -1.05
Si -9.43  0.98  1.05
Si  8.88 -3.34 -1.05
Si -8.88  3.34  1.05
Si  0.95 -9.10  2.88
Si -0.95  9.10 -2.88
Si  1.11 -3.48  8.93
Si -1.11  3.48 -8.93
Si  4.53  8.45 -1.05
Si -4.53 -8.45  1.05
Si  0.80 -3.59 -8.93
Si -0.80  3.59  8.93
Si -6.75 -4.78  4.99
Si  6.75  4.78 -4.99
Si  7.76  5.04  2.88
Si -7.76 -5.04 -2.88
Si -7.95  2.43 -4.99
Si  7.95 -2.43  4.99
Si  6.70 -1.63 -6.81
Si -6.70  1.63  6.81
Si -6.91  0.73 -6.81
Si  6.91 -0.73  6.81
Si -7.53 -6.09  1.05
Si  7.53  6.09 -1.05
Si -6.36  3.08 -6.81
Si  6.36 -3.08  6.81
Si  8.49 -0.07  4.99
Si -8.49  0.07 -4.99
Si -5.85  7.39  2.88
Si  5.85 -7.39 -2.88
Si -2.43 -3.48  8.93
Si  2.43  3.48 -8.93
Si -2.58 -9.10  2.88
Si  2.58  9.10 -2.88
Si -4.80 -5.44  6.81
Si  4.80  5.44 -6.81
Si  7.25  0.73 -6.81
Si -7.25 -0.73  6.81
Si  2.74  3.59  8.93
Si -2.74 -3.59 -8.93
Si  6.16 -3.98 -6.81
Si -6.16  3.98  6.81
Si  8.57  4.39 -2.88
Si -8.57 -4.39  2.88
Si -9.97 -1.38  1.05
Si  9.97  1.38 -1.05
Si -7.40  4.78 -4.99
Si  7.40 -4.78  4.99
Si  8.34 -5.69 -1.05
Si -8.34  5.69  1.05
Si  7.45  1.63  6.81
Si -7.45 -1.63 -6.81
Si -8.65  2.29  4.99
Si  8.65 -2.29 -4.99
Si  4.88 -1.23 -8.93
Si -4.88  1.23  8.93
Si  9.66 -2.03  2.88
Si -9.66  2.03 -2.88
Si  6.36  8.05  1.05
Si -6.36 -8.05 -1.05
Si  1.76 -9.75 -2.88
Si -1.76  9.75  2.88
Si  1.77  9.75  2.88
Si -1.77 -9.75 -2.88
Si  5.19 -1.12  8.93
Si -5.19  1.12 -8.93
Si -6.08  8.45 -1.05
Si  6.08 -8.45  1.05
Si  0.17 -10.41 -1.05
Si -0.17 10.41  1.05
Si -9.20 -0.07  4.99
Si  9.20  0.07 -4.99
Si  5.82 -5.44  6.81
Si -5.82  5.44 -6.81
Si -1.73  7.80 -6.81
Si  1.73 -7.80  6.81
Si  5.42  1.12 -8.93
Si -5.42 -1.12  8.93
Si -1.81 -7.80  6.81
Si  1.81  7.80 -6.81
Si -9.12  4.39 -2.88
Si  9.12 -4.39  2.88
Si -4.49  9.10 -2.88
Si  4.49 -9.10  2.88
Si -4.33  3.59  8.93
Si  4.33 -3.59 -8.93
Si  5.00  6.34  6.81
Si -5.00 -6.34 -6.81
Si -9.04 -2.29 -4.99
Si  9.04  2.29  4.99
Si  8.11 -4.64 -4.99
Si -8.11  4.64  4.99
Si  0.06  9.35  4.99
Si -0.06 -9.35 -4.99
Si 10.21  0.32  2.88
Si -10.21 -0.32 -2.88
Si -4.65  3.48 -8.93
Si  4.65 -3.48  8.93
Si -0.56  5.84 -8.93
Si  0.56 -5.84  8.93
Si -5.74 -1.23 -8.93
Si  5.74  1.23  8.93
Si -0.25  5.95  8.93
Si  0.25 -5.95 -8.93
Si  0.76  9.50 -4.99
Si -0.76 -9.50  4.99
Si -0.61 -0.58 -10.75
Si  0.61  0.58 10.75
Si  7.79  3.08 -6.81
Si -7.79 -3.08  6.81
Si  6.59  7.00  4.99
Si -6.59 -7.00 -4.99
Si  5.61 -6.34 -6.81
Si -5.61  6.34  6.81
Si  0.06 -1.78 10.75
Si -0.06  1.78 -10.75
Si  1.54 10.80 -1.05
Si -1.54 -10.80  1.05
Si -3.37 -10.41 -1.05
Si  3.37 10.41  1.05
Si  9.35  5.69  1.05
Si -9.35 -5.69 -1.05
Si -2.00 10.80 -1.05
Si  2.00 -10.80  1.05
Si  2.98  5.84 -8.93
Si -2.98 -5.84  8.93
Si -2.78  9.50 -4.99
Si  2.78 -9.50  4.99
Si  6.86 -7.14  4.99
Si -6.86  7.14 -4.99
Si -3.71 10.41  1.05
Si  3.71 -10.41 -1.05
Si  1.53 -8.70 -6.81
Si -1.53  8.70  6.81
Si  2.93 -0.58 -10.75
Si -2.93  0.58 10.75
Si  3.48 -9.35 -4.99
Si -3.48  9.35  4.99
Si -10.47  2.68  2.88
Si 10.47 -2.68 -2.88
Si -3.60 -9.35 -4.99
Si  3.60  9.35  4.99
Si -1.15 -2.93 -10.75
Si  1.15  2.93 10.75
Si -9.74 -2.43  4.99
Si  9.74  2.43 -4.99
Si 10.52  3.73 -1.05
Si -10.52 -3.73  1.05
Si -3.29 -5.95 -8.93
Si  3.29  5.95  8.93
Si  2.01  8.70  6.81
Si -2.01 -8.70 -6.81
Si  8.00  3.98  6.81
Si -8.00 -3.98 -6.81
Si -7.79  8.05  1.05
Si  7.79 -8.05 -1.05
Si  8.57 -6.75  2.88
Si -8.57  6.75 -2.88
Si -5.97 -3.48  8.93
Si  5.97  3.48 -8.93
Si -6.12 -9.10  2.88
Si  6.12  9.10 -2.88
Si -7.29 -7.14  4.99
Si  7.29  7.14 -4.99
Si -3.79  5.95  8.93
Si  3.79 -5.95 -8.93
Si -11.25  1.38 -1.05
Si 11.25 -1.38  1.05
Si 10.71 -3.73  1.05
Si -10.71  3.73 -1.05
Si -11.02  0.32  2.88
Si 11.02 -0.32 -2.88
Si -2.38  2.93 10.75
Si  2.38 -2.93 -10.75
Si  4.10 -5.84  8.93
Si -4.10  5.84 -8.93
Si -3.48 -1.78 10.75
Si  3.48  1.78 -10.75
Si -7.56  7.00  4.99
Si  7.56 -7.00 -4.99
Si 10.75  2.68  2.88
Si -10.75 -2.68 -2.88
Si -5.30  9.75  2.88
Si  5.30 -9.75 -2.88
Si  5.31  9.75  2.88
Si -5.31 -9.75 -2.88
Si  3.60 -1.78 10.75
Si -3.60  1.78 -10.75
Si -8.31 -7.39 -2.88
Si  8.31  7.39  2.88
Si -6.28 -3.59 -8.93
Si  6.28  3.59  8.93
Si -9.93  5.04  2.88
Si  9.93 -5.04 -2.88
Si -0.48 -4.14 10.75
Si  0.48  4.14 -10.75
Si -4.15 -0.58 -10.75
Si  4.15  0.58 10.75
Si  4.30  9.50 -4.99
Si -4.30 -9.50  4.99
Si  5.27 -7.80  6.81
Si -5.27  7.80 -6.81
Si -5.34 -7.80  6.81
Si  5.34  7.80 -6.81
Si  9.12  6.75 -2.88
Si -9.12 -6.75  2.88
Si  8.07  8.45 -1.05
Si -8.07 -8.45  1.05
Si  9.59  4.64  4.99
Si -9.59 -4.64 -4.99
Si  0.41 -11.46  2.88
Si -0.41 11.46 -2.88
Si 11.80  0.98  1.05
Si -11.80 -0.98 -1.05
Si 10.16 -6.09  1.05
Si -10.16  6.09 -1.05
Si  3.06 -4.14 10.75
Si -3.06  4.14 -10.75
Si -5.08 -10.80  1.05
Si  5.08 10.80 -1.05
Si -8.34 -5.44  6.81
Si  8.34  5.44 -6.81
Si -11.56 -2.03  2.88
Si 11.56  2.03 -2.88
Si  4.69  2.93 10.75
Si -4.69 -2.93 -10.75
Si -1.70 -5.29 -10.75
Si  1.70  5.29 10.75
Si  0.02 -8.19  8.93
Si -0.02  8.19 -8.93
Si -1.84  5.29 10.75
Si  1.84 -5.29 -10.75
Si -5.07  8.70  6.81
Si  5.07 -8.70 -6.81
Si  5.54 -10.80  1.05
Si -5.54 10.80 -1.05
Si -0.29 -8.30 -8.93
Si  0.29  8.30  8.93
Si -4.02 -4.14 10.75
Si  4.02  4.14 -10.75
Si  3.13 11.46 -2.88
Si -3.13 -11.46  2.88
Si  1.19 -10.15  6.81
Si -1.19 10.15 -6.81
Si -9.38  7.39  2.88
Si  9.38 -7.39 -2.88
Si  8.42 -1.23 -8.93
Si -8.42  1.23  8.93
Si -5.55 -8.70 -6.81
Si  5.55  8.70  6.81
Si 10.29  4.78 -4.99
Si -10.29 -4.78  4.99
Si -9.90  3.08 -6.81
Si  9.90 -3.08  6.81
Si 10.24 -1.63 -6.81
Si -10.24  1.63  6.81
Si -7.87  3.59  8.93
Si  7.87 -3.59 -8.93
Si  6.31 -9.50  4.99
Si -6.31  9.50 -4.99
Si -2.35 -10.15  6.81
Si  2.35 10.15 -6.81
Si -3.95 11.46 -2.88
Si  3.95 -11.46  2.88
Si  8.03 -9.10  2.88
Si -8.03  9.10 -2.88
Si -10.44  0.73 -6.81
Si 10.44 -0.73  6.81
Si -6.51 -5.84  8.93
Si  6.51  5.84 -8.93
Si -9.70  3.98  6.81
Si  9.70 -3.98 -6.81
Si -1.22 12.11  2.88
Si  1.22 -12.11 -2.88
Si  6.90 10.41  1.05
Si -6.90 -10.41 -1.05
Si -8.73  1.12 -8.93
Si  8.73 -1.12  8.93
Si  6.47 -0.58 -10.75
Si -6.47  0.58 10.75
Si -8.18  3.48 -8.93
Si  8.18 -3.48  8.93
Si  1.03  6.49 -10.75
Si -1.03 -6.49 10.75
