500
set: 795.00  0.00  0.00
Si -0.56  1.15 -0.95
Si  0.61 -1.24  0.90
Si  1.46  1.17  1.04
Si -1.60 -1.40 -0.92
Si -2.52  1.25  0.99
Si -0.84 -0.13  2.90
Si  2.77 -1.24 -0.92
Si  0.99  0.22 -3.01
Si  0.14  3.56 -0.81
Si  3.35  1.20 -0.97
Si -0.16  2.28  2.91
Si  0.06 -2.27 -3.08
Si -3.64 -1.19  0.96
Si -0.18 -3.87  0.89
Si -1.82  3.56  0.99
Si -1.71 -2.58  2.82
Si  2.19  3.46  0.99
Si  1.79 -3.71 -1.11
Si  3.11 -0.07  2.96
Si  1.74  2.64 -3.01
Si -2.25 -3.73 -1.00
Si -3.32  0.24 -3.00
Si  2.45 -2.58  2.76
Si -2.29  2.62 -2.91
Si  4.68 -1.13  1.04
Si  1.16 -0.20  4.79
Si -1.18 -0.04 -4.81
Si -4.81  1.20 -0.87
Si  3.88  2.25  2.89
Si -3.91  3.54 -0.87
Si  0.47 -2.55  4.73
Si -2.85 -0.14  4.69
Si  4.14  3.56 -0.95
Si  4.06 -3.67  0.96
Si -4.17  2.29  2.88
Si  0.61  4.75  2.87
Si -3.98 -2.36 -3.14
Si -4.17 -3.63  0.92
Si -0.37  2.56 -5.00
Si -1.99  2.21  4.81
Si  5.44  1.25  0.96
Si  2.04  2.30  4.75
Si -0.71 -4.75 -3.08
Si  4.84  0.10 -3.10
Si  4.31 -2.35 -3.07
Si  2.95 -0.01 -5.00
Si -2.02 -2.35 -4.95
Si -5.60 -1.32 -1.00
Si -5.17 -0.07  2.81
Si  2.07 -2.40 -4.98
Si -1.68  4.91 -2.88
Si  1.61 -5.02  2.80
Si  0.81  5.93 -1.00
Si -2.45 -4.92  2.87
Si -1.10  6.04  0.92
Si  2.36  4.92 -3.08
Si  1.07 -6.10 -0.95
Si -0.88 -6.21  0.99
Si  2.88  5.80  0.89
Si -3.42  4.79  2.88
Si -3.66 -2.55  4.81
Si  3.41 -4.81 -2.99
Si  3.65  2.49 -5.02
Si -0.33  0.97  6.71
Si -1.03 -1.33  6.60
Si -2.92 -6.10 -0.81
Si -1.30  4.74  4.74
Si  6.67 -1.27 -0.99
Si -5.83  3.61  0.92
Si  1.29 -4.75 -4.88
Si -5.76 -2.52  2.92
Si -0.31 -5.08  4.73
Si  0.29 -1.16 -6.84
Si -3.26  6.08 -0.89
Si  3.19 -6.11  0.97
Si -6.82  1.17  0.85
Si  4.46 -2.55  4.74
Si  5.71  2.60 -3.09
Si  0.27  4.95 -4.95
Si  5.97 -3.72 -0.91
Si  2.75  4.59  4.73
Si  4.68  4.65  2.80
Si  5.29 -0.17  4.84
Si  1.11  1.43 -6.94
Si -5.22  0.01 -4.96
Si  6.25  3.56  0.97
Si -4.64  2.58 -4.95
Si -4.75 -4.76 -2.88
Si -6.33 -3.58 -0.89
Si -2.80 -4.72 -4.95
Si  7.28  1.14 -0.95
Si  2.98 -1.41  6.72
Si -3.00  1.31 -6.74
Si  6.46 -2.58  2.85
Si  0.42  3.53  6.72
Si -6.55  2.47 -3.01
Si  7.14 -0.06  2.87
Si -0.49 -3.46 -6.87
Si  3.73  1.08  6.67
Si  1.36  7.09  2.82
Si -1.32 -7.03 -3.01
Si  4.86  5.96 -1.11
Si -7.62 -1.24  0.95
Si -3.77  4.90 -4.86
Si -4.88 -6.11  0.99
Si -3.77 -1.11 -6.87
Si -1.81 -3.87  6.67
Si  3.86 -4.96  4.83
Si -7.35  0.23 -3.07
Si  0.82 -7.42  2.89
Si  5.97  2.30  4.82
Si -0.92  7.31 -3.14
Si -5.14  6.07  0.97
Si  2.44 -3.77  6.66
Si  5.09 -6.15 -0.98
Si -4.35  1.04  6.69
Si -5.63  4.91 -3.00
Si  1.88  3.80 -6.87
Si -6.16  2.28  4.74
Si  5.71 -5.00  2.84
Si -4.36 -4.93  4.74
Si  2.65 -7.06 -3.09
Si -2.10  3.83 -6.89
Si -2.70  7.15  2.92
Si  4.35  4.92 -4.88
Si -6.11 -2.40 -4.92
Si  4.48 -1.12 -6.86
Si -3.54  3.37  6.69
Si  6.27 -2.42 -4.92
Si -6.93 -0.12  4.78
Si  1.46  8.27 -0.92
Si  3.57 -3.41 -6.91
Si  0.29 -8.47 -0.97
Si  6.96  0.10 -4.95
Si -0.57  8.48  0.96
Si -5.35  4.69  4.76
Si -3.23 -7.39  2.91
Si  5.24 -4.71 -4.89
Si  3.13  7.40 -3.08
Si -6.49 -4.88  2.88
Si -0.60  7.12  4.81
Si -5.26 -1.42  6.70
Si  6.48  4.86 -2.99
Si  7.89  2.18  2.85
Si -1.61 -8.50  1.04
Si  4.39  3.38  6.75
Si  8.64 -1.24  0.95
Si  0.58 -7.17 -5.02
Si -2.54  8.35 -1.00
Si  1.05 -1.45  8.61
Si  2.37 -8.42  0.96
Si  5.27  1.47 -6.91
Si -1.02 -7.37  4.75
Si  1.75  0.97  8.60
Si -4.46 -3.44 -6.83
Si -8.00 -2.37 -3.02
Si  8.06 -3.60  0.97
Si -8.10  3.52 -0.98
Si  1.04  7.32 -4.95
Si  1.25  5.80  6.67
Si  8.16  3.52 -0.98
Si -0.99  1.38 -8.81
Si -2.23  0.98  8.65
Si -1.82 -0.89 -8.76
Si -8.20 -3.60  0.97
Si  2.15 -1.05 -8.73
Si -8.98  1.14 -0.95
Si -1.18 -5.87 -6.87
Si -8.38  2.18  2.85
Si  8.27 -2.37 -3.02
Si -2.93 -1.42  8.59
Si  3.67  8.43  0.90
Si  3.53  7.11  4.73
Si  2.90 -7.37  4.82
Si -7.49  4.67  2.84
Si -3.04  7.27 -4.92
Si -3.63 -8.52 -0.95
Si -4.93  7.29 -3.02
Si -5.36 -7.04 -2.91
Si  1.32 -6.29  6.75
Si -6.97 -6.13 -0.87
Si -1.40  6.23 -6.83
Si -3.44 -7.11 -5.00
Si  4.82 -7.49  2.85
Si  0.28 -3.81  8.53
Si -1.53  3.31  8.61
Si -2.88  5.88  6.69
Si  7.12  6.00  0.96
Si  5.51  7.09  2.76
Si -7.23  5.95 -0.91
Si  7.66  2.50 -4.89
Si  7.56 -4.76 -3.00
Si  8.91  0.23 -3.07
Si  2.88 -5.84 -6.84
Si -2.65 -6.13  6.72
Si -7.81 -2.54  4.78
Si  3.26  1.47 -8.82
Si  1.50 -3.35 -8.81
Si  9.44  1.17  0.85
Si  4.21 -8.53 -0.95
Si -9.12 -0.06  2.87
Si  2.53  3.27  8.63
Si  7.36 -6.06  0.92
Si  2.58  6.21 -6.87
Si -4.56  8.43  0.95
Si -6.83 -4.77 -4.86
Si  6.93  4.71  4.83
Si -0.21  3.92 -8.88
Si -5.95 -3.79  6.69
Si -9.59 -1.27 -0.99
Si -2.57 -3.46 -8.77
Si -4.75  7.13  4.78
Si  4.59 -7.17 -4.89
Si  5.94  3.83 -6.84
Si -7.01  1.42 -6.83
Si  7.06 -1.47  6.78
Si  6.44 -3.76  6.67
Si  8.45 -2.54  4.78
Si -6.32  3.81 -6.86
Si -2.07 -9.45 -3.01
Si  5.12 -1.42  8.63
Si -5.59 -8.41  0.99
Si  0.05 -9.74  2.96
Si -6.73  7.09  2.85
Si  5.14  7.27 -4.98
Si -8.61  2.50 -4.89
Si -5.06 -7.45  4.81
Si  2.23  9.54  2.90
Si  1.77 -9.57 -3.10
Si -2.10  9.59  2.81
Si  6.64 -7.20 -3.01
Si -5.12  1.46 -8.79
Si  3.81  3.83 -8.76
Si  5.84  8.43 -0.92
Si -3.82 -3.93  8.74
Si -7.66 -1.04 -6.84
Si  8.77  4.67  2.84
Si  7.78  1.04  6.75
Si -0.25  9.91 -3.00
Si -8.70 -4.76 -3.00
Si  4.45 -3.78  8.57
Si  5.80  1.01  8.57
Si -5.17 -5.84 -6.89
Si  7.85 -4.98  4.76
Si  5.50  5.89  6.66
Si  9.71  2.47 -3.01
Si -0.76  5.74  8.74
Si  9.34 -0.12  4.78
Si -9.80 -2.58  2.85
Si -9.30  0.10 -4.95
Si -0.56 -0.30 10.52
Si  0.74 -5.83 -8.76
Si -4.43  3.83 -8.78
Si -5.78 -1.05 -8.79
Si -7.95  4.95 -4.89
Si  9.94 -3.58 -0.89
Si  0.21  9.53  4.69
Si -6.17  0.95  8.60
Si  6.38 -8.50  0.85
Si -7.57  3.38  6.70
Si -10.01  3.56  0.97
Si -6.53  8.39 -0.99
Si -5.35  6.20 -6.88
Si  0.22  2.08 10.52
Si -7.24 -7.38  2.88
Si -5.42  3.38  8.64
Si  0.50  6.21 -8.77
Si -0.54 -6.40  8.63
Si  0.52  0.17 -10.75
Si  5.62 -6.29  6.70
Si 10.66 -1.32 -1.00
Si -8.90 -6.06  0.92
Si  2.03  8.34  6.60
Si  7.37  7.32 -3.07
Si  8.31  4.95 -4.89
Si -2.19  8.25  6.70
Si  9.03  5.95 -0.91
Si -8.41 -4.98  4.76
Si  5.54 -3.38 -8.72
Si  3.35  5.86  8.53
Si -1.20 -2.69 10.48
Si -0.11 -9.67 -5.00
Si -8.49  1.04  6.75
Si  0.67 -8.59  6.67
Si  4.08 -9.73  2.87
Si -0.20 -2.12 -10.72
Si  1.89  9.63 -4.81
Si -10.82  1.25  0.96
Si  6.45 -1.04 -8.77
Si -3.90 -9.80  2.90
Si -1.96 -8.24 -6.94
Si -0.29 -10.91 -0.92
Si  2.21 -8.20 -6.91
Si  1.62 -10.79  1.04
Si -9.14  6.00  0.96
Si  0.54 10.92  0.99
Si -10.29 -3.72 -0.91
Si -0.70  8.56 -6.87
Si  7.85 -3.47 -6.88
Si  8.60 -1.04 -6.84
Si -1.74 10.87 -0.87
Si 10.43  3.61  0.92
Si -3.27 -5.75 -8.88
Si -2.15  9.68 -4.96
Si  4.06  9.89 -3.01
Si -1.91 -9.87  4.79
Si  2.50 10.82 -0.95
Si  1.29  2.69 -10.75
Si  9.29 -6.13 -0.87
Si -6.93  7.24 -4.92
Si  2.82 -2.75 10.45
Si  3.52 -0.32 10.60
Si -6.76  5.91  6.67
Si 10.50 -2.52  2.92
Si  2.23 -9.84  4.84
Si -4.28  9.89 -3.07
Si -2.46 -10.90  0.90
Si  7.04 -7.39  4.74
Si -7.15 -1.44  8.62
Si -10.55  2.60 -3.09
Si  9.77 -4.88  2.88
Si -3.53  0.32 -10.73
Si  3.65 -6.37  8.61
Si -6.61 -6.30  6.69
Si -9.78  4.86 -2.99
Si  6.88 -5.86 -6.86
Si -3.86  9.55  4.78
Si -3.52  6.29 -8.79
Si -2.84  2.70 -10.67
Si  7.52  7.12  4.74
Si 10.10  2.28  4.74
Si -9.99 -2.42 -4.92
Si -8.41 -3.47 -6.88
Si  6.72  3.30  8.61
Si  4.22  9.47  4.79
Si -3.87  2.03 10.56
Si  3.35  8.51 -6.84
Si  6.63  6.25 -6.91
Si 11.09 -0.07  2.81
Si  3.90 -9.57 -4.95
Si -4.78  5.84  8.64
Si  8.69  3.38  6.70
Si -6.58 -3.38 -8.79
Si  3.73 -2.12 -10.66
Si -3.40 -8.70  6.71
Si -3.75 10.84  0.85
Si  7.27  1.48 -8.80
Si -9.34  4.71  4.83
Si -9.20 -1.47  6.78
Si  5.85 -9.44 -3.07
Si  4.31  2.02 10.50
Si 10.15 -2.40 -4.92
Si 11.46  1.20 -0.87
Si  4.82 -5.89 -8.70
Si  3.60 -10.94 -0.99
Si -4.60 -0.35 10.61
Si  1.06  4.39 10.66
Si -7.70 -7.09 -4.95
Si  7.75  8.54  1.04
Si  9.25  1.42 -6.83
Si -10.29  2.30  4.82
Si -7.87 -8.47 -0.87
Si  9.43 -4.77 -4.86
Si -4.24 -9.70 -4.81
Si  4.69  0.29 -10.65
Si -4.59 -6.35  8.61
Si -11.58 -1.13  1.04
Si -4.23 -2.21 -10.66
Si -1.08 -4.62 -10.68
Si -6.05  9.61  2.87
Si  4.56  6.32 -8.81
Si -6.38 -9.43 -3.00
Si  4.52 10.84  1.04
Si  6.18  9.59  2.96
Si -2.98  4.43 10.52
Si -11.42  0.10 -3.10
Si  0.13  8.25  8.59
Si  2.12 -5.25 10.48
Si -8.89  7.32 -3.07
Si  4.71 -8.63  6.75
Si -4.60  8.63 -6.84
Si  8.39 -8.47 -0.87
Si  1.99  5.05 -10.68
Si  3.06 -4.59 -10.64
Si -10.97 -0.17  4.84
Si  9.02 -7.38  2.88
Si -10.55 -5.00  2.84
Si -4.67 -11.06 -0.92
Si  0.20 -8.20 -8.82
Si -2.00 -5.28 10.66
Si 10.63  4.91 -3.00
Si -2.02  5.10 -10.78
Si 11.04  0.01 -4.96
Si -8.51  8.54  1.04
Si -5.46 -2.66 10.52
Si  8.56 -7.09 -4.95
Si  9.53  7.09  2.85
Si -8.74  7.12  4.74
Si  6.04  8.26  6.72
Si  5.29  2.70 -10.74
Si -6.13  8.20  6.78
Si -7.84 -3.83  8.64
Si  5.57 -10.90  0.95
Si -1.32 -8.70  8.60
Si -6.06 -8.35 -6.74
Si  7.89  3.78 -8.70
Si -1.11 11.95  2.88
Si -5.92 10.81 -0.95
Si  6.18 -8.25 -6.83
Si -5.92 -9.81  4.69
Si -9.62 -7.20 -3.01
Si  6.02  9.66 -5.00
Si -9.82 -3.76  6.67
Si  1.25  8.78 -8.76
Si  1.24 -12.02 -3.07
Si  2.74 -8.66  8.57
Si  1.53 -0.33 12.40
Si  5.19  4.42 10.48
Si -11.96 -2.35 -3.07
Si  6.27 -9.78  4.78
Si -0.62 -12.24  2.76
Si -4.08  8.23  8.62
Si -6.23  9.77 -4.95
Si  4.12  8.22  8.61
Si -2.72  8.62 -8.79
Si  9.11 -1.44  8.62
Si -1.74  2.06 12.34
Si  2.90 11.95  2.91
Si 12.09  2.29  2.88
Si -8.37  3.78 -8.70
Si  0.77 12.29 -2.91
Si 12.09 -3.63  0.92
Si  6.42 10.87 -0.97
Si  8.42 -3.83  8.64
Si  9.94  3.81 -6.86
Si -12.12  3.56 -0.95
Si -8.99  1.48 -8.80
Si -3.00 -11.93 -3.08
Si -1.28 10.71  6.69
Si 11.12  6.07  0.97
Si 12.62 -1.19  0.96
Si -1.63  0.33 -12.61
Si  1.86  6.98 10.48
Si -9.22 -7.39  4.74
Si  4.20 -8.19 -8.80
Si -4.05 -8.29 -8.81
Si  0.92 -2.60 12.46
Si -5.09 -4.57 -10.78
Si -12.21 -3.67  0.96
Si -11.17 -6.15 -0.98
Si 11.51 -4.76 -2.88
Si  2.30  2.16 12.40
Si -11.58  4.65  2.80
Si -6.70 -10.86  0.96
Si 10.91  4.69  4.76
Si  9.33  7.24 -4.92
Si  7.51  5.89  8.57
Si -2.51 -0.34 12.60
Si 10.31 -3.79  6.69
Si  1.41 -10.79 -6.86
Si  1.07 11.88  4.81
Si -2.40  7.00 10.52
Si  2.73 10.64  6.71
Si  1.65 -2.18 -12.59
Si 12.35  3.54 -0.87
Si  0.07 10.98 -6.74
Si  6.83 -2.75 10.58
Si 12.28 -2.36 -3.14
Si  9.73  8.39 -0.99
Si 11.62  2.58 -4.95
Si -12.38  2.25  2.89
Si  2.44  0.23 -12.68
Si -11.40  5.96 -1.11
Si  8.03 -9.74  2.81
Si -1.77 -6.98 -10.75
Si -7.50 -5.84 -8.78
Si  7.91  9.77 -3.10
Si -11.02 -4.71 -4.89
Si 11.38 -6.11  0.99
Si -0.09 -11.08  6.72
Si 11.00 -1.42  6.70
Si -10.32  3.83 -6.84
Si  7.48 -0.29 10.58
Si -0.88  2.66 -12.66
Si -11.80 -2.55  4.74
Si -2.40 -2.14 -12.57
Si -3.49 12.14 -3.01
Si  2.22 -6.97 -10.74
Si -12.91  1.20 -0.97
Si -9.38 -5.86 -6.86
Si  3.40 -12.24  2.85
Si  9.51  5.91  6.67
Si  1.25 -7.65 10.50
Si -6.98  2.71 -10.70
Si -8.23 -9.74  2.81
Si -9.88 -8.50  0.85
Si -10.99  1.47 -6.91
Si -1.17  7.46 -10.66
Si -0.99 -12.07 -4.98
Si -2.77 -10.83 -6.84
