500
set: 1442.00  0.00  0.00
Si  1.57  1.21  0.31
Si -0.82  2.43 -0.03
Si -2.31  1.58  1.02
Si -3.02 -0.39 -0.13
Si  2.50 -0.13  1.98
Si  3.00  0.42 -1.32
Si -2.34 -2.69 -0.03
Si -1.80  2.14 -2.27
Si  1.07  0.65  3.61
Si  0.05 -3.91  0.31
Si -1.32  1.87  3.27
Si  2.08  1.76 -2.98
Si  2.75 -2.76 -1.60
Si -2.52  0.17 -3.42
Si  3.63 -2.14  0.67
Si -1.84 -2.13 -3.32
Si  2.25 -3.32  1.70
Si -0.31  2.98 -3.32
Si  3.77  1.80  1.70
Si  0.56 -3.36 -2.98
Si -3.53 -0.94  3.17
Si -4.31  0.20 -2.23
Si -4.82 -0.35  1.07
Si -1.50  4.73 -0.13
Si -3.33 -2.98 -2.27
Si  1.48 -4.69 -1.32
Si  4.28  2.35 -1.60
Si  4.13 -1.58 -2.63
Si  5.05 -0.35  1.07
Si -2.81  1.03  4.32
Si -3.83 -3.53  1.02
Si -2.84 -3.24  3.27
Si -2.01  4.17  3.17
Si -4.72  2.98  0.67
Si  2.00 -0.69  5.27
Si  0.98 -5.25  1.98
Si  3.13 -2.69  3.96
Si -0.45 -4.47  3.61
Si  3.51  0.98 -4.61
Si -3.29  4.76  1.07
Si  5.15  2.98  0.67
Si  5.56  0.20 -2.23
Si  3.27  1.24  4.99
Si -4.21  3.54 -2.63
Si -5.59  2.35 -1.60
Si  3.26 -2.21 -4.89
Si -1.30  2.69 -5.57
Si  4.55 -0.91  4.36
Si -1.00  5.29 -3.42
Si -2.79  5.32 -2.23
Si  1.98 -4.14 -4.61
Si -5.74 -1.58 -2.63
Si  1.75 -3.87  4.99
Si  4.65  2.42  3.96
Si -6.10  1.80  1.70
Si  3.53 -5.47  1.07
Si -6.24 -2.14  0.67
Si -2.82 -2.42 -5.57
Si  4.02  4.98  1.98
Si  4.04 -4.92 -2.23
Si -3.81  0.76 -5.52
Si -0.78  6.70  1.02
Si  6.85 -0.39 -0.13
Si  0.57  0.09  6.90
Si -1.33 -1.58 -6.61
Si -1.82  1.32  6.56
Si -5.32 -0.91  4.36
Si  1.06 -2.80 -6.27
Si -5.22  2.42  3.96
Si -6.87  0.42 -1.32
Si  3.10  6.32  0.31
Si -2.02  0.72 -6.72
Si  6.04 -3.53  1.02
Si -4.55 -5.50 -0.13
Si -3.80  4.21  4.36
Si  6.34 -0.94  3.17
Si  2.58  2.31 -6.27
Si  5.66  3.54 -2.63
Si -4.04 -4.95 -3.42
Si  4.53  5.54 -1.32
Si  2.60  5.77  3.61
Si -4.33 -4.09  4.32
Si  4.78  2.91 -4.89
Si  0.19  3.54 -6.61
Si  6.55 -2.98 -2.27
Si  0.71  7.55 -0.03
Si  2.11 -7.25  0.67
Si  4.64 -1.02 -5.92
Si -0.28  7.25 -2.27
Si -1.28  6.14  4.32
Si -7.37 -0.13  1.98
Si -5.09  2.91 -4.89
Si  2.61 -6.70 -2.63
Si  5.32 -5.50 -0.13
Si  0.20  6.99  3.27
Si  3.52  4.43  5.27
Si -4.03 -1.50  6.46
Si  7.57  1.58  1.02
Si -7.12 -2.76 -1.60
Si -5.34  5.54 -1.32
Si -2.51  3.62  6.46
Si  0.47 -5.80  5.27
Si -6.37  0.98 -4.61
Si -5.85  4.98  1.98
Si -5.84 -4.92 -2.23
Si -5.24 -1.02 -5.92
Si  7.53 -2.69 -0.03
Si  3.03 -6.03  4.36
Si -3.71  4.09 -5.92
Si  7.35  0.17 -3.42
Si  5.54 -4.09  4.32
Si  1.23 -7.88 -1.60
Si  6.58  4.76  1.07
Si  6.06  0.76 -5.52
Si -6.75 -2.69  3.96
Si -3.35 -3.80  6.56
Si -3.31  0.47  7.61
Si  3.60  6.88 -2.98
Si  7.06  1.03  4.32
Si  4.82 -6.06  3.17
Si -6.60  1.24  4.99
Si  2.62 -3.25  7.25
Si  4.54 -4.36 -5.52
Si  5.83 -4.95 -3.42
Si -2.29  5.87 -5.52
Si -8.30  1.21  0.31
Si  7.03 -3.24  3.27
Si -6.34 -5.47  1.07
Si -4.57  6.92  1.70
Si -7.62 -3.32  1.70
Si -5.05 -6.06  3.17
Si -6.61 -2.21 -4.89
Si -7.79  1.76 -2.98
Si  4.15  1.87  7.25
Si  6.08  4.21  4.36
Si -0.96 -5.02  6.90
Si  0.73 -8.43  1.70
Si -3.36 -7.25 -3.32
Si  8.07  2.14 -2.27
Si -4.07  7.47 -1.60
Si -3.86 -7.80 -0.03
Si -3.19  8.10  0.67
Si  2.77  0.69  8.28
Si -3.54 -4.39 -6.72
Si  4.05 -1.47  7.66
Si  1.49 -1.24  8.57
Si -5.33 -4.36 -5.52
Si  5.84 -1.50  6.46
Si  1.21  8.10 -3.32
Si  5.30  6.92  1.70
Si  2.09  5.21  6.90
Si  1.60 -7.81  3.96
Si -0.49  5.84 -6.72
Si  8.04 -2.13 -3.32
Si  1.74 -7.32 -4.89
Si  4.01  1.53 -7.91
Si  2.49 -3.58 -7.91
Si -0.97 -8.47 -2.98
Si -4.84  6.09 -4.61
Si  3.11 -6.14 -5.92
Si  7.08  5.32 -2.23
Si  5.03  6.09 -4.61
Si -1.47 -9.03  0.31
Si  3.76 -1.65 -8.19
Si -0.30  6.43  6.56
Si -6.77  6.32  0.31
Si -3.70  7.54  3.96
Si  7.05 -2.42 -5.57
Si  8.55  1.87  3.27
Si -2.32 -1.87 -8.86
Si -6.35  4.43  5.27
Si  9.06  2.43 -0.03
Si  4.79  6.36  4.99
Si -5.73  1.87  7.25
Si -2.69  8.65 -2.63
Si  7.87  4.17  3.17
Si -0.80  3.25 -8.86
Si  6.16  4.09 -5.92
Si  1.24 -4.43  8.28
Si -7.88 -0.69  5.27
Si -3.31  1.31 -8.81
Si -4.30  3.65  7.66
Si -8.80  0.65  3.61
Si -5.08  6.36  4.99
Si  0.23  7.81 -5.57
Si  5.80  7.47 -1.60
Si -1.79  5.59  7.61
Si  8.37  4.73 -0.13
Si -8.39 -4.69 -1.32
Si -4.85 -8.10 -2.27
Si -5.83 -1.47  7.66
Si -6.27  6.88 -2.98
Si  5.02 -8.10 -2.27
Si  4.52 -8.65  1.02
Si -0.48  9.29  3.17
Si -2.86 -6.69 -6.61
Si  0.02  9.85 -0.13
Si  6.01 -7.80 -0.03
Si  3.02  3.87  8.57
Si -7.29  2.31 -6.27
Si -0.04 -9.81 -1.32
Si  1.56 -2.25 -9.57
Si -5.86  1.53 -7.91
Si -7.28  5.77  3.61
Si -4.37 -8.36  3.27
Si -0.83 -1.02 -9.91
Si -4.59  3.46 -8.19
Si  6.53 -3.80  6.56
Si -7.89 -4.14 -4.61
Si -3.57  8.03 -4.89
Si  6.56  0.47  7.61
Si -1.77  9.88  1.07
Si -6.84 -6.03  4.36
Si -0.47 -7.92 -6.27
Si -4.84 -4.64  7.61
Si  5.57  3.65  7.66
Si -2.33  0.76  9.86
Si  4.32 -6.61  6.46
Si -1.51  1.28 -10.01
Si  0.06 -0.46 10.20
Si -7.26 -6.70 -2.63
Si  6.33 -4.39 -6.72
Si -5.35 -8.65  1.02
Si  5.04 -4.64  7.61
Si  0.23 -8.99  4.99
Si -8.12 -3.87  4.99
Si  6.51 -7.25 -3.32
Si -4.34 -7.54 -5.57
Si -9.32 -3.36 -2.98
Si  5.29  3.46 -8.19
Si -6.11 -1.65 -8.19
Si  0.46 -9.25 -4.61
Si  7.85  0.72 -6.72
Si -4.73 -0.47 -9.21
Si  2.52 -6.58  7.66
Si -1.98 -9.58  3.61
Si  7.36  3.62  6.46
Si  3.09  2.87 -9.57
Si  8.05  1.32  6.56
Si  6.68  8.10  0.67
Si -8.89 -5.25  1.98
Si  6.17  7.54  3.96
Si  5.51 -8.36  3.27
Si -2.27  9.32  4.36
Si  9.56  2.98 -3.32
Si  4.11  7.43 -6.27
Si  5.14 -0.47 -9.21
Si -0.55 -10.37  1.98
Si  8.57  2.69 -5.57
Si -9.82 -3.91  0.31
Si  2.51 -10.03 -2.23
Si -7.76 -7.25  0.67
Si -3.01  3.06  9.75
Si -0.03 -6.36  8.57
Si  9.92 -3.91  0.31
Si -1.27 10.43 -2.23
Si  0.69  4.10 -9.91
Si -4.83 -3.81 -8.81
Si -7.25 -3.25  7.25
Si -5.56 -6.61  6.46
Si -3.21  4.65 -9.21
Si  2.01 -10.59  1.07
Si  5.04 -3.81 -8.81
Si  2.24 -6.77 -8.19
Si  8.87  5.29 -3.42
Si  5.53 -7.54 -5.57
Si -6.76 -6.14 -5.92
Si -0.99  8.73  6.46
Si -4.20  6.99  7.25
Si  8.54 -1.58 -6.61
Si  4.02 -9.21  4.32
Si -7.11  0.69  8.28
Si -4.54 -2.05  9.75
Si -10.69  2.43 -0.03
Si  0.53 10.40 -3.42
Si  4.29  5.80  8.28
Si  1.71  8.66 -6.61
Si  9.42 -4.47  3.61
Si -1.78  6.43 -8.81
Si  7.58  5.87 -5.52
Si  6.57  1.31 -8.81
Si -10.19  2.98 -3.32
Si  1.10 -8.36  7.25
Si -3.04 -3.84 -10.01
Si -2.19  9.21 -5.92
Si -4.33 10.10  1.98
Si -8.81 -2.80 -6.27
Si -4.34  6.65 -7.91
Si  3.64  1.31 10.55
Si  3.80 -10.62 -0.13
Si  5.34 -2.05  9.75
Si -5.77  7.43 -6.27
Si  6.30  8.03 -4.89
Si  1.59  4.66 10.20
Si  9.09  6.70  1.02
Si 10.43 -3.36 -2.98
Si  3.62 -5.59 -9.21
Si  3.02 -9.48 -5.52
Si -7.38 -3.58 -7.91
Si -3.82 10.66 -1.32
Si  8.59  6.14  4.32
Si  2.12 -3.80 10.55
Si -3.85 -4.35  9.86
Si  4.30 -10.06 -3.42
Si -0.80  5.88  9.86
Si 11.45  1.21  0.31
Si 10.94  0.65  3.61
Si  7.18  8.65 -2.63
Si -3.82 -0.08 10.90
Si -5.58  5.80  8.28
Si  5.67  6.99  7.25
Si -9.30  0.09  6.90
Si -7.78  5.21  6.90
Si -6.86  3.87  8.57
Si  3.54 -2.02 10.95
Si  5.55 10.10  1.98
Si -1.46 -5.58 10.20
Si  5.53  6.65 -7.91
Si -5.86 -9.21  4.32
Si  7.02 -6.69 -6.61
Si  0.96 -8.70 -7.91
Si  7.55 -1.87 -8.86
Si  2.26  0.13 11.58
Si -8.64 -7.88 -1.60
Si -11.19  1.87  3.27
Si -10.32 -4.47  3.61
Si -9.16  7.55 -0.03
Si  0.01  6.39 -10.01
Si  0.74 11.81  1.02
Si -2.35 -6.14 -9.91
Si -3.84 -6.99 -8.86
Si -4.83  9.54  5.27
Si -2.78  8.77  7.66
Si  2.99 -3.03 -11.20
Si -8.14 -7.32 -4.89
Si -5.57 -10.06 -3.42
Si  5.04  9.54  5.27
Si  0.99 -1.80 11.86
Si -8.27 -7.81  3.96
Si -8.38 -1.24  8.57
Si  0.24 11.26  4.32
Si  1.50 -11.14  4.36
Si  0.04 -7.36 -9.57
Si  3.30 -11.18  3.17
Si -6.79  2.87 -9.57
Si -11.67  2.14 -2.27
Si -4.87 -8.91  6.56
Si  5.00 -8.91  6.56
Si  1.09 -11.81 -2.63
Si -1.05 -10.92  5.27
Si  4.12 10.88  3.61
Si  0.73  8.36 -8.86
Si 10.85 -5.25  1.98
Si -2.29  5.03 10.90
Si -6.07 -10.62 -0.13
Si -9.40 -5.80  5.27
Si  9.59  7.25 -2.27
Si -9.68  3.54 -6.61
Si -3.06  8.58 -8.19
Si  4.51  2.09 -11.20
Si  6.66  4.65 -9.21
Si  4.27 -1.10 -11.48
Si  6.86  3.06  9.75
Si -8.66  8.10 -3.32
Si -11.37  4.73 -0.13
Si -0.76 10.99 -5.52
Si -6.23  1.31 10.55
Si -12.18  1.58  1.02
Si  6.05 10.66 -1.32
Si  8.40 -9.03  0.31
Si  4.62 11.44  0.31
Si  8.92 -5.02  6.90
Si  6.02 -4.35  9.86
Si -4.80  3.10 10.95
Si -11.71 -2.13 -3.32
Si 11.35 -4.69 -1.32
Si -1.81 -1.31 -12.16
Si -9.67  6.99  3.27
Si  0.58 -12.37  0.67
Si  8.08  5.59  7.61
Si  7.55  0.76  9.86
Si 11.95  1.76 -2.98
Si  5.07  3.10 10.95
Si -6.25 -5.59 -9.21
Si  6.06 -0.08 10.90
Si -7.35 -6.58  7.66
Si -12.21 -2.69 -0.03
Si -2.48 -10.14  6.90
Si 10.44  0.09  6.90
Si -3.05 12.03  1.70
Si 12.37 -0.13  1.98
Si 10.06  3.54 -6.61
Si -9.14 -8.43  1.70
Si -10.87  5.29 -3.42
Si -3.32 11.21 -4.61
Si -2.80  1.87 -12.11
Si  2.51  3.32 11.86
Si -5.25 11.44  0.31
Si -5.36  2.09 -11.20
Si  4.81 -9.51 -6.72
Si -10.65  6.70  1.02
Si  0.74 -4.98 11.58
Si  1.25 12.37 -2.27
Si -0.28 -9.54  8.28
Si -7.36 -10.03 -2.23
Si  8.90 -8.47 -2.98
Si  1.73 12.11  3.27
Si -10.15  7.25 -2.27
Si 12.12 -3.32  1.70
Si 10.08  6.99  3.27
Si  3.81 -7.17  9.75
Si -5.07 -9.51 -6.72
Si  6.83 -3.84 -10.01
Si -0.29  3.80 -12.16
Si -8.63 -4.43  8.28
Si -11.17  2.69 -5.57
Si  7.60  9.32  4.36
Si  6.03 -6.99 -8.86
Si -6.33 -2.02 10.95
Si -1.49  8.18  9.75
Si  1.59 -11.26 -5.92
Si  8.10  9.88  1.07
Si -5.61 -1.10 -11.48
Si -5.75 10.88  3.61
Si -4.08  4.02 -11.48
Si  2.23 12.66 -0.03
Si -12.39  0.17 -3.42
Si  3.51 -9.76  7.61
Si -8.31 -2.25 -9.57
Si  1.03 10.96 -6.72
Si  4.53 -5.20 10.90
Si -12.90 -0.39 -0.13
Si 10.93 -2.80 -6.27
Si  9.38  5.84 -6.72
Si  7.90 -9.58  3.61
Si -6.86 -9.48 -5.52
Si  3.62 10.33  6.90
Si -2.55 12.59 -1.60
Si 12.88  0.42 -1.32
Si 10.35 -5.80  5.27
Si -11.88  4.17  3.17
Si 10.58  7.55 -0.03
Si 11.87 -0.69  5.27
Si -3.55 11.48  4.99
Si 12.63 -2.76 -1.60
Si  3.52 -8.92 -8.81
Si -7.63 -6.77 -8.19
Si -0.29 -12.99 -1.60
Si  9.08  3.25 -8.86
Si  8.36  1.28 -10.01
Si -11.21 -1.58 -6.61
Si -0.27 10.70  7.61
Si  2.07 -1.69 -12.86
Si -4.23  0.09 -12.51
Si -5.34 -5.20 10.90
Si -0.33 -0.47 -13.20
Si -4.71  6.43 10.55
Si  4.54  8.99  8.57
Si 11.62 -3.87  4.99
Si  2.02 -7.14 10.95
Si -7.86 -10.59  1.07
Si -4.75 11.99 -2.98
Si -4.33 -3.25 -12.11
Si  3.79  5.25 11.58
Si  9.57  6.43  6.56
Si  4.61  7.99 -9.57
Si -1.67 13.21  0.67
Si  2.74 -6.21 -11.48
Si  1.22 11.55  6.56
Si -6.58 -11.18  3.17
Si  0.21 -12.44 -4.89
Si  7.68  9.21 -5.92
Si 11.86 -4.14 -4.61
Si  5.12 11.99 -2.98
Si  5.17  6.43 10.55
Si -12.68  1.03  4.32
Si -2.18 12.66  3.96
Si -11.16  6.14  4.32
Si  9.04 -1.02 -9.91
Si -2.83  0.21 13.15
Si -1.01  1.83 -13.30
Si  5.79  4.02 -11.48
Si -11.70  1.32  6.56
Si -6.88 -3.03 -11.20
Si -5.33  8.99  8.57
Si  0.08 -12.92  3.96
Si -12.71 -3.24  3.27
Si -5.26  7.99 -9.57
Si -1.69  9.76 -9.21
Si -0.44 -1.02 13.49
Si -6.06 -7.17  9.75
Si  8.09  6.43 -8.81
Si  9.39  9.29  3.17
Si -9.65  7.81 -5.57
Si -8.16  8.66 -6.61
Si  7.09  8.77  7.66
Si -7.75 -3.80 10.55
Si 10.60 -8.43  1.70
Si -10.37  5.84 -6.72
Si -11.89  0.72 -6.72
