500
set: 1600.00  0.00  0.00
Si -0.02 -0.12  1.39
Si -1.24 -0.80 -0.38
Si  1.19 -0.10 -1.46
Si -1.92  1.65 -0.41
Si -0.40  2.13  1.47
Si  0.12  2.05 -1.80
Si  0.17 -2.93 -0.02
Si  2.09 -1.88  1.22
Si  0.97  3.21 -0.02
Si  0.14 -0.71 -3.28
Si -1.22 -1.24  2.95
Si  3.06  1.65 -0.41
Si -2.88 -1.88  1.22
Si  3.74 -0.80 -0.38
Si -3.79 -0.10 -1.46
Si -1.54  1.42 -3.53
Si  0.65  2.74  3.29
Si -1.20 -4.01  1.47
Si  0.51 -2.96 -3.37
Si -0.68 -4.08 -1.80
Si -0.15 -3.40  3.29
Si -0.37 -0.09  4.73
Si  1.31  3.17 -3.37
Si -2.08  4.26  1.22
Si  3.76 -1.24  2.95
Si  1.72 -1.64  4.34
Si  1.51  0.36 -4.77
Si  2.25 -4.48 -0.41
Si  3.43  1.42 -3.53
Si -4.00  3.21 -0.02
Si -1.77  2.04  4.37
Si  4.95 -0.12  1.39
Si -5.00 -0.12  1.39
Si  4.58  2.13  1.47
Si -2.72 -4.48 -0.41
Si  2.90  4.26  1.22
Si -0.43  5.34 -0.38
Si -1.38 -1.19 -5.16
Si -4.85  2.05 -1.80
Si -4.80 -2.93 -0.02
Si -3.26 -1.64  4.34
Si  3.78 -4.01  1.47
Si  0.10  2.50 -5.13
Si -0.41  4.89  2.95
Si  5.09  2.05 -1.80
Si  3.20  2.04  4.37
Si -4.83 -0.71 -3.28
Si -3.66  3.17 -3.37
Si -3.46  0.36 -4.77
Si  5.14 -2.93 -0.02
Si -5.37  2.13  1.47
Si -4.32  2.74  3.29
Si  5.12 -0.71 -3.28
Si  4.29 -4.08 -1.80
Si  0.78  6.01  1.39
Si  1.56  0.96  5.97
Si -6.21 -0.80 -0.38
Si -4.46 -2.96 -3.37
Si -0.70 -3.64 -5.13
Si  6.16 -0.10 -1.46
Si -2.34 -4.72 -3.53
Si  3.59 -1.19 -5.16
Si  0.94  5.42 -3.28
Si  0.39 -6.24 -1.46
Si  2.63 -4.72 -3.53
Si  2.40 -4.10  4.37
Si -0.83 -6.26  1.39
Si  1.99  6.03 -1.46
Si -2.58 -4.10  4.37
Si -1.73 -1.17  6.22
Si  4.61 -0.09  4.73
Si  0.66 -0.79 -6.55
Si -2.45  4.50  4.34
Si -0.56  2.72  6.14
Si  2.52  4.50  4.34
Si  5.95  3.21 -0.02
Si  4.82 -3.40  3.29
Si -2.98  6.03 -1.46
Si -3.42  0.96  5.97
Si -6.19 -1.24  2.95
Si -5.12 -3.40  3.29
Si  4.54  5.34 -0.38
Si  5.63  2.74  3.29
Si  5.49 -2.96 -3.37
Si  1.73 -2.95 -6.21
Si -6.89  1.65 -0.41
Si  3.24 -1.17  6.22
Si -5.34 -0.09  4.73
Si -1.36 -3.42  6.14
Si -0.58  4.95 -5.16
Si -5.66 -4.08 -1.80
Si -2.04 -6.94 -0.38
Si  4.56  4.89  2.95
Si -2.45  3.19 -6.21
Si  7.07 -1.88  1.22
Si  2.53  3.19 -6.21
Si -4.20  6.01  1.39
Si -4.87  2.50 -5.13
Si -6.17 -4.01  1.47
Si -4.03  5.42 -3.28
Si  0.71 -5.77 -4.77
Si  2.94 -6.94 -0.38
Si -6.51  1.42 -3.53
Si  4.27 -3.64 -5.13
Si -3.25 -2.95 -6.21
Si -5.41  5.34 -0.38
Si -0.66 -6.85 -3.28
Si  4.15 -6.26  1.39
Si  5.08  2.50 -5.13
Si  0.44  6.05  4.73
Si  6.29  3.17 -3.37
Si -5.39  4.89  2.95
Si -1.11  7.79 -0.41
Si -4.59 -6.24 -1.46
Si -4.32 -0.79 -6.55
Si  3.61 -3.42  6.14
Si -1.17 -6.23  4.73
Si  0.76 -5.17  5.97
Si -0.93  4.97  6.22
Si  4.41  2.72  6.14
Si  6.48  0.36 -4.77
Si -1.75  1.60  7.70
Si -0.69 -0.56  8.04
Si  6.69 -1.64  4.34
Si -7.85 -1.88  1.22
Si -2.02 -7.38  2.95
Si  1.29 -8.01  1.22
Si  8.03  1.65 -0.41
Si -6.36 -1.19 -5.16
Si -6.75  2.04  4.37
Si -7.05  4.26  1.22
Si  1.85  0.33 -8.12
Si  5.36 -6.24 -1.46
Si -0.74  7.56 -3.53
Si  2.31  6.50 -4.77
Si  4.39  4.95 -5.16
Si  0.41  8.27  1.47
Si  0.92  8.19 -1.80
Si  5.75  6.01  1.39
Si -1.00 -1.42 -8.28
Si -5.67 -3.64 -5.13
Si  2.95 -7.38  2.95
Si -2.66  6.50 -4.77
Si  3.22  1.60  7.70
Si  7.23 -4.48 -0.41
Si  1.48  2.58 -8.04
Si  1.46  5.35 -6.55
Si -4.27 -5.77 -4.77
Si -5.80 -6.26  1.39
Si  5.92  5.42 -3.28
Si  5.63 -0.79 -6.55
Si  3.80 -6.23  4.73
Si -5.53  2.72  6.14
Si -3.12  0.33 -8.12
Si  3.86  7.79 -0.41
Si  4.31 -6.85 -3.28
Si  8.71 -0.80 -0.38
Si  0.68 -3.55 -8.04
Si -8.76 -0.10 -1.46
Si -3.68 -8.01  1.22
Si  6.53  0.96  5.97
Si -7.70 -4.48 -0.41
Si -4.54  6.05  4.73
Si  4.04  4.97  6.22
Si  0.91 -7.78  4.34
Si -4.22 -5.17  5.97
Si  7.87  4.26  1.22
Si -5.55  4.95 -5.16
Si -0.63 -9.07 -0.02
Si  4.29 -0.56  8.04
Si -3.49  2.58 -8.04
Si -3.51  5.35 -6.55
Si -6.71 -1.17  6.22
Si -2.19 -7.32 -5.16
Si  8.41  1.42 -3.53
Si  1.18  1.20  9.09
Si  2.42 -4.54  7.70
Si  3.97 -1.42 -8.28
Si  8.73 -1.24  2.95
Si -2.56 -4.54  7.70
Si -4.05  8.19 -1.80
Si -0.97  8.18  4.37
Si  6.97  6.03 -1.46
Si  4.24  7.56 -3.53
Si  2.79 -7.32 -5.16
Si  5.41  6.05  4.73
Si -7.32 -4.72 -3.53
Si  1.86 -1.25  9.12
Si  5.68 -5.77 -4.77
Si -8.23 -1.64  4.34
Si -5.64 -6.85 -3.28
Si -6.34 -3.42  6.14
Si  8.18  2.04  4.37
Si  7.37 -4.10  4.37
Si  1.78  9.34 -0.02
Si -8.97  3.21 -0.02
Si -0.20  4.71 -8.28
Si -0.15 -6.92 -6.55
Si -4.57  8.27  1.47
Si  1.46  8.87  3.29
Si  2.36  7.10  5.97
Si  6.70 -2.95 -6.21
Si  7.60 -4.72 -3.53
Si -7.55 -4.10  4.37
Si -2.61  7.10  5.97
Si -8.44  0.36 -4.77
Si -7.43  4.50  4.34
Si -0.29 -9.10 -3.37
Si -3.11 -1.25  9.12
Si  8.75 -4.01  1.47
Si  7.49  4.50  4.34
Si  5.73 -5.17  5.97
Si -4.30 -3.55 -8.04
Si  0.12  5.58  8.04
Si -4.06 -7.78  4.34
Si -8.63  3.17 -3.37
Si -5.66 -0.56  8.04
Si -7.01 -6.94 -0.38
Si -3.20  9.34 -0.02
Si  9.55  2.13  1.47
Si -6.09  7.79 -0.41
Si  2.44 -7.30  6.22
Si  0.64 -0.34 -9.88
Si -5.91  4.97  6.22
Si -0.90  2.75  9.48
Si -2.54 -7.30  6.22
Si -3.79  1.20  9.09
Si -6.14 -6.23  4.73
Si  5.38  8.27  1.47
Si  9.92 -0.12  1.39
Si  1.05 -5.80 -8.12
Si  2.04 -2.48 -9.53
Si  4.34 -9.07 -0.02
Si -9.97 -0.12  1.39
Si  8.57 -1.19 -5.16
Si  0.91  8.63 -5.13
Si -7.96  6.03 -1.46
Si -3.52  8.87  3.29
Si  4.00  8.18  4.37
Si -5.71  7.56 -3.53
Si  2.12  9.31 -3.37
Si -0.95 -9.54  3.29
Si -0.04  2.11 -9.92
Si -7.42  3.19 -6.21
Si -9.83  2.05 -1.80
Si -9.78 -2.93 -0.02
Si -1.71 -3.39  9.48
Si -9.29  2.74  3.29
Si  6.26 -8.01  1.22
Si  7.50  3.19 -6.21
Si  5.90  8.19 -1.80
Si -2.93 -2.48 -9.53
Si  9.27 -4.08 -1.80
Si -2.85  9.31 -3.37
Si -5.98 -1.42 -8.28
Si -8.39  0.96  5.97
Si -6.73  1.60  7.70
Si  0.38 -4.94  9.09
Si -9.81 -0.71 -3.28
Si  8.21 -1.17  6.22
Si -2.13  3.66 -9.53
Si 10.07  2.05 -1.80
Si -2.00 -10.14  1.47
Si  5.65 -3.55 -8.04
Si -9.44 -2.96 -3.37
Si -1.49 -10.22 -1.80
Si  7.91 -6.94 -0.38
Si 10.12 -2.93 -0.02
Si -1.27 10.40  1.22
Si -1.49 -6.70  8.04
Si  3.27 -3.39  9.48
Si -7.00 -7.38  2.95
Si  2.85  3.66 -9.53
Si -2.31  4.88  9.12
Si  6.83  0.33 -8.12
Si  6.45  2.58 -8.04
Si  6.43  5.35 -6.55
Si 10.09 -0.71 -3.28
Si -2.32  6.47 -8.12
Si  4.77  4.71 -8.28
Si -10.34  2.13  1.47
Si -5.61 -9.07 -0.02
Si  2.97 -10.14  1.47
Si  5.89 -7.78  4.34
Si  4.07  2.75  9.48
Si  9.58 -0.09  4.73
Si  4.83 -6.92 -6.55
Si  2.67  4.88  9.12
Si  2.65  6.47 -8.12
Si -8.22 -2.95 -6.21
Si -3.92 -5.80 -8.12
Si  1.45 -10.62 -0.41
Si -0.85 -4.03 -9.92
Si  4.68 -9.10 -3.37
Si  0.24  8.86  6.14
Si -4.33 -0.34 -9.88
Si -5.12 -6.92 -6.55
Si -4.07  8.63 -5.13
Si -5.18  4.71 -8.28
Si  4.02 -9.54  3.29
Si  7.29  6.50 -4.77
Si  9.80 -3.40  3.29
Si  9.52  5.34 -0.38
Si -4.86  5.58  8.04
Si  3.49 -10.22 -1.80
Si -0.95  7.74  7.70
Si  0.22 -2.33 10.72
Si -9.00  5.42 -3.28
Si -5.94  8.18  4.37
Si  3.48 -6.70  8.04
Si  5.09  5.58  8.04
Si -5.26 -9.10 -3.37
Si  6.15  1.20  9.09
Si  0.92 -9.08 -6.21
Si -9.17  6.01  1.39
Si -1.90 -0.58 10.89
Si  8.59 -3.42  6.14
Si  3.70 10.40  1.22
Si -7.64  6.50 -4.77
Si  9.53  4.89  2.95
Si -1.91  0.35 -10.97
Si -1.50 -9.78 -5.13
Si  9.12 -6.26  1.39
Si -10.10 -3.40  3.29
Si  9.25 -3.64 -5.13
Si -3.52 -10.62 -0.41
Si -11.18 -0.80 -0.38
Si  7.93 -7.38  2.95
Si 11.14 -0.10 -1.46
Si  1.60 -10.23  4.37
Si  4.93  2.11 -9.92
Si -5.02  2.11 -9.92
Si -4.60 -4.94  9.09
Si -1.64  9.33 -6.21
Si -2.27  1.67 10.97
Si  3.08 -0.58 10.89
Si -10.31 -0.09  4.73
Si -1.81 -7.56 -8.28
Si  8.19  1.60  7.70
Si  5.61 -0.34 -9.88
Si -9.85  2.50 -5.13
Si 10.46 -2.96 -3.37
Si 10.92  3.21 -0.02
Si  3.06  0.35 -10.97
Si -9.29 -0.79 -6.55
Si  2.70  1.67 10.97
Si  0.39 11.03  2.95
Si  1.02  3.81 10.72
Si 10.60  2.74  3.29
Si  6.43  8.87  3.29
Si -8.10  0.33 -8.12
Si -7.16 -7.32 -5.16
Si  6.84 -1.25  9.12
Si  4.13 -4.03 -9.92
Si  0.37 11.47 -0.38
Si -5.88  2.75  9.48
Si -9.56 -6.24 -1.46
Si  6.75  9.34 -0.02
Si -10.63 -4.08 -1.80
Si  9.39  2.72  6.14
Si  1.44  5.79 -9.88
Si 10.05  2.50 -5.13
Si  1.83 -10.85 -3.53
Si -2.17 -9.55  6.14
Si  3.47 -9.78 -5.13
Si  7.39 -4.54  7.70
Si -1.65 10.63  4.34
Si -11.17 -1.24  2.95
Si -3.38 -10.23  4.37
Si  4.02  7.74  7.70
Si  5.88  8.63 -5.13
Si  5.35 -4.94  9.09
Si  3.17 -7.56 -8.28
Si  6.02 -5.80 -8.12
Si -10.38  5.34 -0.38
Si -7.53 -4.54  7.70
Si  3.33  9.33 -6.21
Si  2.81 -9.55  6.14
Si -5.93 -9.54  3.29
Si -4.05 -9.08 -6.21
Si  2.00  2.51 -11.30
Si  8.78 -6.23  4.73
Si -4.73  8.86  6.14
Si  8.83  7.79 -0.41
Si  9.37  4.95 -5.16
Si  1.06 -7.39  9.12
Si -0.16 -6.48 -9.88
Si  7.33  7.10  5.97
Si -10.36  4.89  2.95
Si -3.15 -10.85 -3.53
Si  1.98  7.34  9.09
Si  7.76 -7.32 -5.16
Si -8.66 -8.01  1.22
Si -9.24 -5.77 -4.77
Si  1.19 -3.63 -11.30
Si -11.15 -4.01  1.47
Si  3.32 10.63  4.34
Si -2.98  2.51 -11.30
Si -8.47  2.58 -8.04
Si -4.75 -2.33 10.72
Si  5.22  8.86  6.14
Si -8.49  5.35 -6.55
Si -7.59  7.10  5.97
Si -3.53  5.79 -9.88
Si -11.87  1.65 -0.41
Si  1.90 -4.46 10.97
Si  9.29 -6.85 -3.28
Si  9.02  4.97  6.22
Si -3.95  3.81 10.72
Si -2.99  7.34  9.09
Si  2.28  8.72 -8.04
Si -6.68 -3.39  9.48
Si  7.02 -2.48 -9.53
Si -11.49  1.42 -3.53
Si  7.41 -7.30  6.22
Si -9.19 -5.17  5.97
Si  5.19 -2.33 10.72
Si  1.75 11.56 -3.28
Si -2.69  8.72 -8.04
Si 10.33 -6.24 -1.46
Si 11.26  3.17 -3.37
Si  7.09  9.31 -3.37
Si -5.82 -4.03 -9.92
Si -7.51 -7.30  6.22
Si -6.25 10.40  1.22
Si -9.51  6.05  4.73
Si -6.46 -10.22 -1.80
Si  0.22 11.09 -5.16
Si -3.07 -4.46 10.97
Si 12.04 -1.88  1.22
Si -8.09 -1.25  9.12
Si  8.94 -1.42 -8.28
Si -1.10  5.56 10.89
Si  9.26 -0.56  8.04
Si -6.46 -6.70  8.04
Si -4.59 11.03  2.95
Si -9.02  8.19 -1.80
Si  1.58 12.15  1.39
Si -10.65 -3.64 -5.13
Si -4.60 11.47 -0.38
Si 10.73  6.01  1.39
Si -3.92 -7.39  9.12
Si -6.97 -10.14  1.47
Si -8.17  9.34 -0.02
Si 11.46  0.36 -4.77
Si  6.42 -10.62 -0.41
Si -5.92  7.74  7.70
Si  9.21  7.56 -3.53
Si -7.10  3.66 -9.53
Si -3.23 11.56 -3.28
Si -2.18 12.17 -1.46
Si -3.78 -3.63 -11.30
Si -10.51  2.72  6.14
Si -0.42 -12.38 -1.46
Si  5.90 -9.08 -6.21
Si 10.61 -0.79 -6.55
Si -11.33 -1.19 -5.16
Si -10.77 -6.26  1.39
Si 11.66 -1.64  4.34
Si  2.79 12.17 -1.46
Si -1.63 -12.40  1.39
Si -0.13 -9.69 -8.04
Si 10.89  5.42 -3.28
Si  2.26 -5.79 -10.97
Si  5.36 11.03  2.95
Si -7.83  9.31 -3.37
Si -7.90 -2.48 -9.53
Si -7.28  4.88  9.12
Si  5.34 11.47 -0.38
Si -11.72  2.04  4.37
Si -7.29  6.47 -8.12
Si -9.03 -7.78  4.34
Si -8.77  1.20  9.09
Si -3.39 12.15  1.39
Si -2.71 -5.79 -10.97
Si -9.54  8.27  1.47
Si  1.88 -1.70 12.46
Si -8.49  8.87  3.29
Si -10.53  4.95 -5.16
Si -0.13 11.11  6.22
Si  4.81 -6.48 -9.88
Si -9.27 -3.55 -8.04
Si -1.11  6.49 -10.97
Si -0.05 -11.31  5.97
Si -6.48 -9.78 -5.13
Si -12.03  4.26  1.22
Si  3.88  5.56 10.89
Si -0.10 -11.91 -4.77
Si  7.82  3.66 -9.53
Si  7.64  4.88  9.12
Si  6.00  3.81 10.72
Si  7.63  6.47 -8.12
Si -5.14 -6.48 -9.88
Si -6.87 -0.58 10.89
Si  1.24 -8.61 -9.53
Si  8.98  8.18  4.37
Si 10.38  6.05  4.73
Si  3.34 -12.40  1.39
Si  0.76  8.25 -9.92
Si  6.57 -10.23  4.37
