500
set: 931.00  0.00  0.00
Si  0.37 -1.14  0.84
Si -0.41  1.14 -0.83
Si -1.29 -1.20 -0.81
Si  1.34  1.19  0.80
Si -2.12  1.15  0.85
Si  2.15 -1.16 -0.82
Si  0.86 -0.02 -2.45
Si -0.86 -0.05  2.45
Si -3.03 -1.14  0.80
Si  0.05  2.31  2.43
Si -0.03 -2.29 -2.45
Si  3.05  1.20 -0.83
Si -2.57  0.01 -2.40
Si  2.63 -0.01  2.41
Si  0.45  3.47 -0.81
Si -0.49 -3.48  0.82
Si  1.70 -2.31  2.41
Si -1.31  3.47  0.83
Si -1.76 -2.33  2.43
Si  1.26 -3.50 -0.82
Si -1.75  2.35 -2.47
Si  1.79  2.34 -2.48
Si  0.88 -0.00  4.03
Si -3.88  1.17 -0.80
Si -0.88  0.00 -4.06
Si  3.91 -1.20  0.78
Si  2.19  3.49  0.82
Si -2.22 -3.51 -0.81
Si -2.98  3.47 -0.79
Si -0.01 -2.36  4.00
Si  2.98 -3.50  0.81
Si  0.02  2.34 -4.06
Si  3.43 -2.34 -2.40
Si -2.60 -0.01  4.05
Si  2.61 -0.08 -4.05
Si -3.44  2.34  2.46
Si -3.55 -2.31 -2.41
Si  3.49  2.33  2.47
Si -4.72 -1.18 -0.77
Si  1.71 -2.30 -4.04
Si  4.35 -0.01 -2.44
Si -4.34  0.02  2.47
Si -1.75  2.35  4.06
Si  1.76  2.36  4.06
Si -1.79 -2.32 -4.07
Si  4.84  1.20  0.83
Si  3.94  3.48 -0.82
Si  0.82 -4.64  2.47
Si  0.92  4.64  2.43
Si -0.87  4.67 -2.41
Si -0.89 -4.64 -2.48
Si -3.99 -3.51  0.83
Si -5.58  1.20  0.83
Si  3.39 -2.30  4.07
Si -0.45  1.17  5.66
Si -3.44  2.31 -4.05
Si  0.43 -1.13 -5.67
Si  3.47  2.32 -4.05
Si -3.51 -2.30  4.04
Si -2.56  4.62  2.47
Si  2.57 -4.64 -2.43
Si  0.38 -5.78 -0.83
Si  5.70 -1.18 -0.77
Si -2.63 -4.67  2.43
Si -0.35  5.83  0.80
Si  4.29 -0.01  4.05
Si  2.65  4.68 -2.45
Si -1.32 -1.15  5.67
Si -4.34  0.01 -4.06
Si -4.77  3.47  0.81
Si  4.77 -3.51 -0.79
Si  1.33  1.13 -5.73
Si -1.34 -5.78  0.80
Si  1.38  5.78 -0.81
Si  2.13 -1.16  5.68
Si -5.18  2.33 -2.43
Si -2.05  5.79 -0.77
Si -2.17  1.19 -5.69
Si -0.91 -4.61  4.06
Si  5.19 -2.36  2.47
Si  0.79 -4.65 -4.05
Si  2.17 -5.77  0.83
Si -0.83  4.67  4.04
Si  5.25  2.33 -2.43
Si  0.89  4.65 -4.07
Si -5.23 -2.36  2.47
Si -6.08 -0.01 -2.44
Si -3.08 -1.14 -5.67
Si  3.05  1.18  5.69
Si  6.09  0.02  2.47
Si  3.05  5.83  0.84
Si -3.09 -5.83 -0.83
Si -6.51 -1.20  0.78
Si  2.58 -4.65  4.03
Si  2.67  4.62  4.00
Si  0.46  3.49  5.67
Si  5.65  3.47  0.81
Si  6.54  1.17 -0.80
Si -0.46 -3.49 -5.70
Si -5.66 -3.51 -0.79
Si -2.66 -4.64 -4.06
Si -2.56  4.67 -4.09
Si -4.31  4.64 -2.40
Si -1.26  3.48 -5.68
Si  4.30 -4.64  2.46
Si  1.27 -3.57  5.68
Si  4.38  4.67  2.41
Si -4.42 -4.62 -2.47
Si -5.17  2.33  4.03
Si -3.90  1.19  5.64
Si -3.83  5.77  0.78
Si  5.18 -2.30 -4.09
Si  3.92 -1.16 -5.70
Si  3.86 -5.80 -0.80
Si  5.25  2.33  4.03
Si -2.22 -3.49  5.67
Si -5.24 -2.30 -4.09
Si  2.22  3.48 -5.70
Si  2.95 -3.50 -5.68
Si -3.00  3.50  5.67
Si  6.09  0.01 -4.06
Si -6.13 -0.01  4.05
Si  0.45 -1.15  7.25
Si  6.44 -3.51  0.83
Si  0.11  6.99 -2.40
Si -0.05 -6.99  2.41
Si -0.42  1.16 -7.30
Si -6.48  3.48 -0.82
Si  4.73  1.19 -5.66
Si  1.31  1.20  7.28
Si -1.29 -1.18 -7.30
Si -7.37  1.20 -0.83
Si -4.78 -1.17  5.68
Si  7.40 -1.14  0.80
Si  4.30 -4.66 -4.05
Si  1.81  6.93  2.45
Si -4.35  4.67  4.07
Si  4.39  4.67 -4.04
Si  1.67 -6.98 -2.44
Si -4.42 -4.63  4.06
Si -4.80 -5.82  0.85
Si  4.83  5.81 -0.82
Si -1.66  7.00  2.47
Si -1.81 -6.99 -2.45
Si  6.88 -2.31 -2.41
Si  2.15 -1.16 -7.26
Si  3.95  3.41  5.68
Si -6.93  2.33  2.47
Si -2.21  1.18  7.32
Si -3.94 -3.50 -5.68
Si -6.99 -2.34 -2.40
Si  6.98  2.34  2.46
Si  6.00 -4.62 -2.47
Si -3.08 -1.13  7.26
Si -6.05  4.67  2.41
Si  3.04  1.18 -7.32
Si  6.11  4.64 -2.40
Si  0.08  6.96  4.05
Si -6.12 -4.64  2.46
Si  0.47  3.44 -7.28
Si  5.64 -1.17  5.68
Si -0.47 -3.51  7.29
Si -5.59  5.81 -0.82
Si -5.69  1.19 -5.66
Si  0.37 -5.79  5.69
Si  3.41 -6.95  2.47
Si -3.40  6.97 -2.44
Si -0.07 -7.06 -4.05
Si  5.63 -5.82  0.85
Si -0.41  5.83 -5.67
Si -7.79 -0.01  2.41
Si  4.75 -3.47  5.67
Si  3.54  6.96 -2.45
Si  0.56  8.13  0.85
Si -0.53 -8.13 -0.82
Si -4.79  3.48 -5.68
Si  7.86  0.01 -2.40
Si  1.29 -3.50 -7.32
Si -1.23  3.50  7.33
Si  1.61 -6.99  4.05
Si -3.54 -7.02  2.45
Si  1.36  5.83  5.67
Si -1.66  6.99 -4.06
Si  7.44  3.47 -0.79
Si -1.80 -6.98  4.03
Si  1.80  6.98 -4.06
Si -7.45 -3.50  0.81
Si -1.21  8.15 -0.80
Si -1.34 -5.84 -5.73
Si  1.23 -8.18  0.78
Si -3.89  1.13 -7.26
Si  6.91 -2.30  4.04
Si  2.06 -5.79 -5.66
Si  3.91 -1.16  7.30
Si  2.20  3.47  7.29
Si -6.96  2.32 -4.05
Si -2.10  5.80  5.68
Si -2.20 -3.53 -7.28
Si -8.27 -1.16 -0.82
Si  6.98  2.31 -4.05
Si  8.30  1.15  0.85
Si -7.03 -2.30  4.07
Si  2.27  8.12 -0.83
Si -2.31 -8.12  0.84
Si  6.00 -4.63  4.06
Si -3.00  3.51 -7.26
Si  3.01 -3.49  7.29
Si -6.04  4.67 -4.04
Si  6.07  4.67  4.07
Si -3.13 -5.81  5.66
Si -6.12 -4.66 -4.05
Si  6.52  1.19  5.64
Si -2.90  8.18  0.83
Si  3.10  5.85 -5.67
Si  5.63  3.48 -5.68
Si -6.51 -1.16 -5.70
Si  3.02 -8.16 -0.77
Si -5.67 -3.47  5.67
Si  3.41 -6.96 -4.06
Si -3.45  6.96  4.05
Si -4.78 -1.15 -7.28
Si  6.59  5.77  0.78
Si -6.56 -5.80 -0.80
Si  3.56  6.97  4.03
Si -7.82 -0.08 -4.05
Si  7.83 -0.01  4.05
Si -3.56 -6.97 -4.06
Si  4.77  1.15  7.33
Si  0.85  0.01 -8.91
Si  3.85 -5.79  5.64
Si  8.20 -3.51 -0.81
Si -0.89 -0.02  8.92
Si -5.12  6.96  2.41
Si -8.23  3.49  0.82
Si -3.83  5.81 -5.70
Si  5.18 -6.96 -2.40
Si -3.91 -3.47  7.33
Si  3.97  3.47 -7.32
Si -5.25 -6.96 -2.40
Si  5.31  6.96  2.41
Si -3.97 -8.17 -0.81
Si  4.02  8.17  0.80
Si -9.08  1.19  0.80
Si  0.04  2.29  8.92
Si  0.00 -2.29 -8.93
Si  9.13 -1.20 -0.81
Si -6.48  3.41  5.68
Si  5.64 -1.15 -7.28
Si  2.60 -0.01  8.91
Si -2.65 -0.02 -8.90
Si -8.64  2.34 -2.48
Si  8.66 -2.33  2.43
Si  6.49 -3.50 -5.68
Si -5.65  1.15  7.33
Si  8.68  2.35 -2.47
Si -0.41  5.84  7.26
Si  4.75 -3.46 -7.26
Si -8.72 -2.31  2.41
Si  0.36 -5.80 -7.32
Si  7.34 -1.14 -5.67
Si  1.72 -2.29  8.90
Si  1.71  2.35 -8.89
Si -4.74  3.48  7.29
Si -1.75 -2.34  8.90
Si -1.69  2.35 -8.93
Si -7.38  1.18  5.69
Si -1.37 -5.78  7.28
Si -7.77  4.68 -2.45
Si  7.79 -4.67  2.43
Si  7.33 -5.83 -0.83
Si  4.72 -8.12  0.80
Si  1.39  5.79 -7.30
Si  4.81  5.81  5.68
Si -7.37  5.83  0.84
Si -7.86 -4.64 -2.43
Si  7.87  4.62  2.47
Si -4.85 -5.79 -5.69
Si -4.69  8.17 -0.83
Si -5.14  6.89 -4.05
Si -2.10  5.82 -7.28
Si  5.15 -6.99  4.05
Si  5.29  6.89 -4.05
Si  2.09 -5.83  7.33
Si -0.98 -9.28  2.41
Si -5.27 -6.99  4.05
Si  0.76 -9.31 -2.40
Si -0.76  9.31  2.46
Si  0.93  9.33 -2.47
Si  9.11  3.47  0.83
Si -3.46 -2.33 -8.88
Si  3.12  5.83  7.25
Si  8.64 -2.32 -4.07
Si  6.53  1.13 -7.26
Si -3.10 -5.82 -7.30
Si -9.16 -3.50 -0.82
Si  3.50 -2.29 -8.90
Si -5.67 -3.46 -7.26
Si  3.49  2.33  8.91
Si  5.58 -5.79 -5.69
Si -8.66  2.36  4.06
Si -6.52 -1.16  7.30
Si -3.39  2.30  8.96
Si  8.68  2.35  4.06
Si -9.56 -0.02 -2.45
Si  9.56 -0.05  2.45
Si -7.75  4.62  4.00
Si -5.62  5.81  5.68
Si  5.68  3.48  7.29
Si -8.71 -2.30 -4.04
Si  4.31 -0.02 -8.92
Si  7.77 -4.64 -4.06
Si -4.32 -0.02  8.94
Si -0.55 -8.14  5.68
Si -2.50  9.30 -2.43
Si -5.70 -8.12  0.80
Si -2.71 -9.27 -2.45
Si  0.51  8.16 -5.69
Si -7.85 -4.65  4.03
Si  2.73  9.28  2.43
Si  2.51 -9.33  2.47
Si  7.43  3.50  5.67
Si -1.22  8.16  5.64
Si  1.24 -8.13 -5.70
Si  5.73  8.17 -0.83
Si  7.86  4.67 -4.09
Si -7.47 -3.50 -5.68
Si -0.78  4.64 -8.88
Si -0.97 -4.63 -8.89
Si  0.93  4.63  8.90
Si  0.81 -4.65  8.91
Si  3.85 -5.84 -7.26
Si -6.88  6.96 -2.45
Si -3.84  5.82  7.30
Si  8.25  1.19 -5.69
Si -8.26 -5.77  0.83
Si 10.01  1.14 -0.83
Si -8.29 -1.16  5.68
Si  6.88 -7.02  2.45
Si -2.25 -8.10 -5.67
Si -10.05 -1.14  0.84
Si  0.72 -9.28  4.07
Si  2.23  8.14  5.66
Si -0.76  9.29 -4.05
Si -0.97 -9.28 -4.04
Si -7.01 -6.95  2.47
Si  7.02  6.97 -2.44
Si  0.93  9.32  4.06
Si  8.38  5.79 -0.77
Si -6.46  3.47 -7.32
Si -9.54 -0.00  4.03
Si  2.96 -8.15  5.68
Si  9.54  0.00 -4.06
Si -3.01  8.16 -5.66
Si  7.34 -1.13  7.26
Si -2.55  4.66  8.93
Si  6.52 -3.47  7.33
Si -6.41  8.17  0.80
Si -2.63 -4.68  8.92
Si -6.58 -5.79  5.64
Si  2.57 -4.69 -8.96
Si  2.68  4.68 -8.93
Si -2.49  9.30  4.03
Si  6.45 -8.17 -0.81
Si  2.51 -9.28 -4.09
Si -7.39  1.18 -7.32
Si  4.20 -9.28 -2.41
Si -0.30 10.44 -0.79
Si  6.59  5.81 -5.70
Si  4.83  5.82 -7.26
Si -2.68 -9.33  4.00
Si  2.70  9.31 -4.06
Si  0.30 -10.48  0.81
Si -4.25  9.31  2.47
Si -4.89 -5.80  7.32
Si  9.93 -3.48  0.82
Si  1.37 10.44  0.83
Si  8.20 -3.49  5.67
Si -8.20  3.48 -5.70
Si -0.89 -0.02 -10.54
Si -6.87  6.97  4.03
Si -9.97  3.47 -0.81
Si  0.85  0.01 10.55
Si  5.20 -2.32  8.93
Si -5.17  2.29 -8.96
Si -4.44 -9.31  2.43
Si  6.87 -6.97 -4.06
Si -1.41 -10.47 -0.82
Si -5.22 -2.32  8.93
Si  4.46  9.31 -2.48
Si  5.25  2.29 -8.96
Si  6.97  6.96  4.05
Si -4.00 -8.12  5.67
Si -2.09 10.44  0.81
Si -7.01 -6.96 -4.06
Si  4.01  8.11 -5.73
Si  2.09 -10.48 -0.79
Si -9.04  5.78 -0.81
Si  0.00 -2.29 10.53
Si  9.11 -1.15  5.67
Si  0.04  2.29 -10.54
Si  9.09 -5.78  0.80
Si -9.09  1.13 -5.73
Si -6.11 -0.02 -8.92
Si  6.11 -0.02  8.94
Si -9.51  4.64  2.43
Si -5.59  5.82 -7.26
Si  5.54 -5.80  7.32
Si  2.60 -0.01 -10.55
Si  9.53 -4.64 -2.48
Si 10.80 -1.14  0.84
Si -2.65 -0.02 10.56
Si  9.55  4.67 -2.41
Si -10.38  2.31  2.43
Si  7.30 -5.81  5.66
Si -0.52 -8.13 -7.26
Si -4.24  4.69 -8.90
Si 10.39 -2.29 -2.45
Si -1.69  2.35 10.53
Si -10.84  1.14 -0.83
Si  3.13 10.44 -0.81
Si  1.72 -2.29 -10.56
Si  4.66 -8.12 -5.67
Si -1.22  8.11 -7.26
Si -9.61 -4.64  2.47
Si -7.32  5.85 -5.67
Si -3.17 -10.46  0.82
Si  1.71  2.35 10.57
Si -1.75 -2.34 -10.56
Si  7.43  3.51 -7.26
Si -4.37 -4.63 -8.93
Si  0.47  8.15  7.32
Si  4.24 -9.28  4.04
Si -7.42 -3.49  7.29
Si  4.39  4.68  8.90
Si -10.45 -2.29 -2.45
Si 10.47  2.31  2.43
Si  1.23 -8.13  7.30
Si -4.70  8.16  5.69
Si  4.36 -4.67  8.96
Si -4.28  9.30 -4.05
Si -7.40 -8.16 -0.77
Si -8.27 -1.16 -7.26
Si  8.21  1.18  7.32
Si -4.46 -9.30 -4.07
Si  4.44  9.34  4.06
Si -2.23 -8.12  7.25
Si  7.52  8.18  0.83
Si -3.81 10.45 -0.82
Si  2.25  8.13 -7.30
Si  3.76 -10.48  0.83
Si -3.39  2.30 -10.50
Si  0.03  6.96 -8.90
Si  2.96 -8.12 -7.28
Si -8.61  6.93  2.45
Si -0.08 -6.98  8.91
Si  9.51 -4.61  4.06
Si  5.99 -9.31  2.43
Si  9.17  3.48 -5.68
Si -5.96  9.31 -2.48
Si -2.97  8.12  7.33
Si -9.15 -3.57  5.68
Si  3.50 -2.29 10.56
Si  3.49  2.33 -10.55
Si  8.61 -6.99 -2.45
Si -9.53  4.65 -4.07
Si -3.46 -2.33 10.58
Si -4.32 -0.02 -10.52
Si  4.31 -0.02 10.54
Si -6.57 -5.84 -7.26
Si  9.59  4.67  4.04
Si 10.42 -2.36  4.00
Si -10.40  2.34 -4.06
Si -10.43 -2.36  4.00
Si  6.58  5.82  7.30
Si -6.22 -9.28 -2.41
Si  6.17  9.31  2.47
Si -9.63 -4.65 -4.05
Si -1.64  6.96  8.94
Si 10.88  3.47 -0.81
Si 10.44  2.34 -4.06
Si  1.64 -6.99 -8.92
Si  1.79  6.96  8.92
Si -5.76 -8.12 -5.67
Si -1.83 -6.97 -8.91
Si -8.76 -6.98 -2.44
Si  5.72  8.16  5.69
Si -10.91 -3.48  0.82
Si  8.77  7.00  2.47
Si -6.92 -2.29 -8.90
Si  8.12 -8.12  0.84
Si -8.22  3.47  7.29
Si -6.93  2.33  8.91
Si  6.96 -2.33 -8.88
Si  9.97  1.17  5.66
Si  8.22 -3.53 -7.28
Si -8.16  8.12 -0.83
Si 11.29 -0.02 -2.45
Si -10.00 -1.13 -5.67
Si -11.29 -0.05  2.45
Si  0.81 -4.65 -10.55
