500
set: 1065.00  0.00  0.00
Si -0.45  1.16 -0.82
Si  0.36 -1.20  0.82
Si  1.25  1.08  0.82
Si -1.33 -1.14 -0.84
Si -2.12  1.18  0.75
Si -0.77  0.14  2.44
Si  0.88 -0.06 -2.44
Si  2.13 -1.25 -0.81
Si  3.03  1.07 -0.76
Si  0.01 -2.34 -2.40
Si -3.09 -1.10  0.79
Si  0.02  2.48  2.43
Si -2.64 -0.00 -2.40
Si  2.66 -0.02  2.45
Si  0.45  3.51 -0.84
Si -0.53 -3.57  0.82
Si -1.76 -2.17  2.43
Si  1.80  2.31 -2.40
Si  1.74 -2.34  2.42
Si -1.70  2.34 -2.46
Si -1.30  3.55  0.79
Si  1.24 -3.58 -0.76
Si  3.86 -1.10  0.79
Si -3.92  1.07 -0.76
Si  2.14  3.46  0.82
Si -0.87  0.15 -4.06
Si  0.91 -0.01  4.08
Si -2.23 -3.49 -0.82
Si -3.03  3.40 -0.81
Si  3.04 -3.47  0.75
Si -0.01 -2.39  4.05
Si  0.12  2.46 -4.05
Si -2.59  0.02  4.03
Si -3.42  2.31  2.42
Si  3.47 -2.31 -2.46
Si  2.63 -0.01 -4.07
Si -3.48 -2.31 -2.46
Si  3.52  2.31  2.42
Si -1.66 -2.19 -4.05
Si  4.31 -0.00 -2.40
Si -4.29 -0.02  2.45
Si  1.77  2.26  4.05
Si  1.77 -2.35 -4.04
Si -1.75  2.32  4.09
Si  4.83  1.18  0.75
Si -4.82 -1.25 -0.81
Si  3.92  3.40 -0.81
Si -3.91 -3.47  0.75
Si -0.85  4.65 -2.40
Si  0.88 -4.67  2.45
Si -0.90 -4.71 -2.44
Si  1.01  4.79  2.44
Si -2.56 -4.51  2.44
Si -3.40  2.30 -4.04
Si  5.62 -1.14 -0.84
Si -0.44  1.19  5.65
Si -2.50  4.63  2.45
Si  0.36 -1.24 -5.66
Si  2.52 -4.65 -2.40
Si  3.42 -2.33  4.09
Si  2.67  4.59 -2.44
Si  3.55  2.30 -4.04
Si -5.70  1.08  0.82
Si -3.53 -2.33  4.09
Si -0.34  5.83  0.75
Si  1.25  1.13 -5.66
Si  4.72 -3.49 -0.82
Si -4.32 -0.01 -4.07
Si  4.36  0.02  4.03
Si -1.34 -1.16  5.67
Si  0.35 -5.90 -0.81
Si -4.81  3.46  0.82
Si  1.34  5.81 -0.82
Si -1.43 -5.85  0.82
Si  5.19 -2.17  2.43
Si -5.15  2.31 -2.40
Si -2.14  5.72 -0.76
Si  2.08 -5.75  0.79
Si -5.21 -2.34  2.42
Si -0.80  4.67  4.03
Si -2.19  1.22 -5.70
Si  2.14 -1.25  5.73
Si  0.85 -4.66 -4.07
Si  5.25  2.34 -2.46
Si -0.88 -4.67  4.08
Si  0.92  4.80 -4.06
Si  3.03  1.07  5.68
Si -6.07 -0.06 -2.44
Si  3.04  5.74  0.82
Si -3.02 -1.15 -5.74
Si -2.66 -4.50 -4.06
Si -3.12 -5.79 -0.84
Si  6.18  0.14  2.44
Si  6.50  1.16 -0.82
Si  2.58 -4.63  4.03
Si -2.53  4.64 -4.07
Si  0.45  3.49  5.67
Si -0.54 -3.52 -5.66
Si  5.65  3.55  0.79
Si -4.28  4.59 -2.44
Si  2.69  4.64  4.08
Si -6.59 -1.20  0.82
Si  4.39 -4.51  2.44
Si -5.71 -3.58 -0.76
Si  1.24 -3.58  5.68
Si -1.23  3.50 -5.74
Si -4.42 -4.65 -2.40
Si  4.45  4.63  2.45
Si -5.18  2.26  4.05
Si  2.15  3.41 -5.66
Si -5.18 -2.35 -4.04
Si -3.92  1.07  5.68
Si -3.91  5.74  0.82
Si  3.83 -5.79 -0.84
Si -2.23 -3.46  5.65
Si  5.29 -2.19 -4.05
Si  5.20  2.32  4.09
Si  3.94 -1.15 -5.74
Si  2.97 -3.43 -5.70
Si -6.04 -0.01  4.08
Si  6.08  0.15 -4.06
Si -3.03  3.40  5.73
Si  6.42 -3.57  0.82
Si -0.04 -6.99  2.42
Si  0.09  6.99 -2.46
Si  4.29 -4.50 -4.06
Si  0.36 -1.24  7.31
Si -0.44  1.19 -7.33
Si -6.50  3.51 -0.84
Si  7.31 -1.20  0.82
Si -4.26  4.64  4.08
Si  1.25  1.13  7.31
Si  4.81  5.72 -0.76
Si -1.34 -1.16 -7.31
Si  4.76  1.22 -5.70
Si -7.39  1.16 -0.82
Si -4.38 -4.63  4.03
Si -1.64  6.96  2.42
Si  1.68 -6.96 -2.46
Si -4.87 -5.75  0.79
Si  4.42  4.64 -4.07
Si -4.81 -1.25  5.73
Si -1.77 -6.99 -2.40
Si  2.14 -1.25 -7.25
Si -2.19  1.22  7.28
Si -6.93 -2.34 -2.40
Si  6.96 -2.34 -2.40
Si  3.92  3.40  5.73
Si  1.81  7.13  2.43
Si -6.93  2.48  2.43
Si -3.98 -3.43 -5.70
Si  6.97  2.48  2.43
Si -3.01 -1.15  7.24
Si  3.03  1.07 -7.29
Si  3.40 -6.82  2.43
Si -5.93  4.79  2.44
Si  6.10  4.65 -2.40
Si  6.05 -4.71 -2.44
Si -6.08 -4.67  2.45
Si  5.61 -1.16  5.67
Si -3.55 -6.82  2.43
Si -0.02 -7.00 -4.04
Si  0.04  6.97  4.09
Si  5.52 -5.85  0.82
Si -7.72  0.14  2.44
Si -3.36  6.96 -2.40
Si  0.45  3.49 -7.31
Si -5.70  1.13 -5.66
Si -5.61  5.81 -0.82
Si -1.23  3.50  7.24
Si -0.53 -3.52  7.31
Si  4.72 -3.46  5.65
Si -4.80  3.41 -5.66
Si -1.24  8.05 -0.81
Si  3.59  6.96 -2.40
Si -0.41  5.87 -5.70
Si -1.61  6.96 -4.04
Si  7.83 -0.06 -2.44
Si  1.24 -3.58 -7.29
Si  7.40  3.51 -0.84
Si  1.34  5.84  5.65
Si  0.35 -5.90  5.73
Si  0.48  8.20  0.79
Si  1.63 -6.98  4.09
Si  1.26 -8.12  0.75
Si -0.54 -8.23 -0.76
Si -1.42 -5.89 -5.66
Si -6.83  2.46 -4.05
Si -1.80 -7.04  4.05
Si  3.94 -1.15  7.24
Si  8.20  1.08  0.82
Si -7.48 -3.57  0.82
Si -2.14  5.72  5.68
Si  2.15  3.41  7.31
Si -3.92  1.07 -7.29
Si  6.94 -2.39  4.05
Si -6.96 -2.39  4.05
Si  1.91  7.11 -4.05
Si -2.23 -3.46 -7.33
Si -8.29 -1.14 -0.84
Si  2.15 -5.80 -5.74
Si  2.24  8.16 -0.84
Si  7.07  2.46 -4.05
Si -3.03  3.40 -7.25
Si  2.97 -3.43  7.28
Si -2.32 -8.22  0.82
Si  3.04  5.78 -5.66
Si -3.45 -6.84 -4.05
Si  6.07 -4.67  4.08
Si  3.50 -6.84 -4.05
Si -3.02  8.11  0.82
Si -6.10 -4.66 -4.07
Si  2.93 -8.14 -0.82
Si -3.12 -5.82  5.67
Si -3.39  6.92  4.05
Si  6.51  1.19  5.65
Si  6.15  4.67  4.03
Si -6.04  4.80 -4.06
Si  3.56  6.92  4.05
Si -6.59 -1.24 -5.66
Si  4.76  1.22  7.28
Si -4.81 -1.25 -7.25
Si -7.82  0.15 -4.06
Si -5.71 -3.58  5.68
Si  5.72  3.50 -5.74
Si  6.61  5.83  0.75
Si  7.86 -0.01  4.08
Si -6.60 -5.90 -0.81
Si  3.92  3.40 -7.25
Si  0.91 -0.01 -8.89
Si -0.87  0.15  8.92
Si  8.19 -3.58 -0.76
Si -3.98 -3.43  7.28
Si  3.83 -5.82  5.67
Si -3.91  5.78 -5.66
Si -8.25  3.55  0.79
Si  5.18 -6.99 -2.40
Si  3.93  8.11  0.82
Si -5.27 -6.96 -2.46
Si  5.31  6.96  2.42
Si -4.02 -8.14 -0.82
Si -5.14  7.13  2.43
Si -9.07  1.18  0.75
Si  9.09 -1.25 -0.81
Si -0.01 -2.39 -8.93
Si  6.42 -3.52 -5.66
Si  0.12  2.46  8.93
Si  5.61 -1.16 -7.31
Si -8.65  2.34 -2.46
Si  2.63 -0.01  8.91
Si -8.71 -2.17  2.43
Si -6.50  3.49  5.67
Si -2.59  0.02 -8.95
Si  8.69 -2.34  2.42
Si  7.31 -1.24 -5.66
Si -5.70  1.13  7.31
Si -1.66 -2.19  8.93
Si  0.35 -5.90 -7.25
Si -1.75  2.32 -8.89
Si -0.41  5.87  7.28
Si -7.29  5.83  0.75
Si  8.75  2.31 -2.40
Si  4.72 -3.46 -7.33
Si -7.39  1.19  5.65
Si  1.77  2.26 -8.93
Si -4.80  3.41  7.31
Si  4.81  5.72  5.68
Si -7.80  4.65 -2.40
Si  1.77 -2.35  8.94
Si  7.30 -5.90 -0.81
Si  7.83 -4.67  2.45
Si  1.34  5.84 -7.33
Si -4.71  8.16 -0.84
Si -4.80 -5.80 -5.74
Si  4.63 -8.22  0.82
Si -7.85 -4.71 -2.44
Si -1.42 -5.89  7.31
Si -2.14  5.72 -7.29
Si  2.15 -5.80  7.24
Si  7.96  4.79  2.44
Si -5.04  7.11 -4.05
Si  5.15 -7.04  4.05
Si -0.72  9.28  2.45
Si  0.74 -9.30 -2.40
Si  0.93  9.30 -2.40
Si  5.34  6.96 -4.04
Si -5.32 -6.98  4.09
Si -0.91 -9.32  2.45
Si  9.09  3.46  0.82
Si -8.61 -2.19 -4.05
Si  3.04  5.78  7.31
Si  3.42 -2.33 -8.89
Si  2.61 -9.16  2.44
Si -3.40  2.30  8.94
Si -3.53 -2.33 -8.89
Si -3.12 -5.82 -7.31
Si -9.18 -3.49 -0.82
Si  5.53 -5.89 -5.66
Si  5.72  3.50  7.24
Si  6.51  1.19 -7.33
Si -5.61  5.84  5.65
Si -2.50  9.24 -2.44
Si  8.72  2.26  4.05
Si -9.59 -0.00 -2.40
Si -8.70  2.32  4.09
Si  8.72 -2.35 -4.04
Si  3.55  2.30  8.94
Si  5.71  8.05 -0.81
Si -4.32 -0.01  8.91
Si -7.75  4.67  4.03
Si  9.61 -0.02  2.45
Si -6.59 -1.24  7.31
Si -5.71 -3.58 -7.29
Si -5.69 -8.12  0.75
Si  7.40  3.49  5.67
Si  4.36  0.02 -8.95
Si  7.80 -4.66 -4.07
Si -1.24  8.05  5.73
Si  1.19 -8.08 -5.70
Si -7.83 -4.67  4.08
Si  0.56  8.15 -5.74
Si -0.54 -8.23  5.68
Si -7.49 -3.52 -5.66
Si  8.20  1.13 -5.66
Si -2.69 -9.36 -2.44
Si  9.98  1.07 -0.76
Si  7.87  4.80 -4.06
Si -0.88 -4.66 -8.89
Si  3.83 -5.82 -7.31
Si  0.85 -4.66  8.91
Si -6.86  6.99 -2.46
Si -8.29 -1.16  5.67
Si -3.91  5.78  7.31
Si  6.91 -6.99  2.42
Si -0.81  4.67 -8.95
Si -10.04 -1.10  0.79
Si  2.80  9.44  2.44
Si  0.79 -9.29  4.03
Si  8.29  5.81 -0.82
Si  2.23  8.14  5.67
Si -0.75  9.29 -4.07
Si  0.92  4.80  8.92
Si -7.00 -6.99  2.42
Si  0.98  9.32  4.03
Si -0.94 -9.31 -4.07
Si -2.32 -8.17 -5.66
Si  7.04  6.99 -2.46
Si -8.38 -5.85  0.82
Si -3.02  8.06 -5.66
Si  2.94 -8.11  5.65
Si  2.51 -9.15 -4.06
Si -2.66 -4.50  8.92
Si  6.42 -3.52  7.31
Si -9.54  0.02  4.03
Si -2.53  4.64  8.91
Si  2.69  4.64 -8.89
Si -6.50  3.49 -7.31
Si  2.58 -4.63 -8.95
Si -0.35 10.38 -0.76
Si  9.58 -0.01 -4.07
Si  7.31 -1.24  7.31
Si -4.34 -9.16  2.44
Si  0.29 -10.41  0.79
Si -4.80 -5.80  7.24
Si -2.47  9.29  4.08
Si  4.81  5.72 -7.29
Si  6.41 -8.23 -0.76
Si -6.46  8.20  0.79
Si -7.39  1.19 -7.33
Si  6.54  5.87 -5.70
Si -2.66 -9.31  4.08
Si  4.45  9.24 -2.44
Si -6.60 -5.90  5.73
Si  5.20  2.32 -8.89
Si -0.77  0.14 -10.54
Si -5.18  2.26 -8.93
Si  0.88 -0.06 10.54
Si -9.98  3.40 -0.81
Si  4.26 -9.36 -2.44
Si -8.18  3.50 -5.74
Si  8.19 -3.58  5.68
Si -4.15  9.44  2.44
Si -5.18 -2.35  8.94
Si  1.45 10.48  0.75
Si  5.29 -2.19  8.93
Si  9.99 -3.47  0.75
Si  3.93  8.06 -5.66
Si -2.12 10.39  0.82
Si -6.91  6.97  4.09
Si  2.70  9.46 -4.06
Si  6.93 -7.00 -4.04
Si -6.97 -7.00 -4.04
Si  2.04 -10.44 -0.84
Si -4.01 -8.11  5.65
Si -1.44 -10.55 -0.81
Si  6.99  6.97  4.09
Si  9.03 -5.75  0.79
Si -6.04 -0.01 -8.89
Si -9.09  5.72 -0.76
Si  6.08  0.15  8.92
Si -9.51 -4.51  2.44
Si -9.45  4.63  2.45
Si  9.09 -1.25  5.73
Si  9.47 -4.65 -2.40
Si  0.02 -2.34 10.57
Si  0.02  2.48 -10.55
Si -9.14  1.22 -5.70
Si  2.66 -0.02 -10.52
Si  4.29 -4.50  8.92
Si -4.26  4.64 -8.89
Si  5.53 -5.89  7.31
Si 10.81 -1.10  0.79
Si -2.64 -0.00 10.58
Si -1.24  8.05 -7.25
Si -10.38  2.31  2.42
Si -1.70  2.34 10.52
Si -1.76 -2.17 -10.55
Si  0.56  8.15  7.24
Si -5.61  5.84 -7.33
Si  9.62  4.59 -2.44
Si  1.19 -8.08  7.28
Si  1.74 -2.34 -10.55
Si -4.44 -9.15 -4.06
Si 10.42 -2.31 -2.46
Si -10.87  1.07 -0.76
Si  3.13 10.46 -0.82
Si -10.43 -2.31 -2.46
Si  4.63 -8.17 -5.66
Si  7.40  3.49 -7.31
Si  1.80  2.31 10.57
Si  4.42  4.64  8.91
Si -4.72  8.14  5.67
Si -4.38 -4.63 -8.95
Si 10.48  2.31  2.42
Si  7.30 -5.90  5.73
Si -7.36  5.87 -5.70
Si -3.21 -10.50  0.82
Si -0.54 -8.23 -7.29
Si  4.29 -9.31  4.08
Si -7.49 -3.52  7.31
Si  8.20  1.13  7.31
Si  4.48  9.29  4.08
Si  7.43  8.20  0.79
Si -8.29 -1.16 -7.31
Si -4.25  9.46 -4.06
Si -7.49 -8.23 -0.76
Si  2.23  8.14 -7.31
Si -3.82 10.46 -0.82
Si  3.74 -10.50  0.82
Si -2.32 -8.17  7.31
Si  9.10  3.41 -5.66
Si -3.02  8.06  7.31
Si  0.04  6.97 -8.89
Si -9.48  4.64 -4.07
Si  3.47 -2.31 10.52
Si -3.48 -2.31 10.52
Si -8.59  6.96  2.42
Si  2.94 -8.11 -7.33
Si -9.18 -3.46  5.65
Si -3.42  2.31 -10.55
Si  9.53 -4.63  4.03
Si -6.02  9.30 -2.40
Si -10.35  2.30 -4.04
Si -0.02 -7.00  8.94
Si -9.61 -4.50 -4.06
Si  8.63 -6.96 -2.46
Si  3.52  2.31 -10.55
Si -4.29 -0.02 -10.52
Si  6.04 -9.32  2.45
Si 10.37 -2.33  4.09
Si  5.71  8.05  5.73
Si  6.54  5.87  7.28
Si 10.87  3.40 -0.81
Si  1.63 -6.98 -8.89
Si  4.31 -0.00 10.58
Si -10.86 -3.47  0.75
Si -8.72 -6.99 -2.40
Si -6.21 -9.30 -2.40
Si -6.60 -5.90 -7.25
Si -1.61  6.96  8.94
Si  6.23  9.28  2.45
Si -5.76 -8.08 -5.70
Si  9.64  4.64  4.08
Si -8.18  3.50  7.24
Si  4.83 10.39  0.82
Si 10.50  2.30 -4.04
Si -10.48 -2.33  4.09
Si -11.24 -0.02  2.45
Si -6.83  2.46  8.93
Si -1.80 -7.04 -8.93
Si -8.19  8.05 -0.81
Si 11.26 -0.00 -2.40
Si  9.98  1.07  5.68
Si  8.19 -3.58 -7.29
Si  0.88 -4.67 -10.52
Si  9.99  5.74  0.82
Si  8.76  7.13  2.43
Si  6.94 -2.39 -8.93
Si -9.96 -1.15 -5.74
Si -4.91 -10.44 -0.84
