500
set: 1050.00  0.00  0.00
Si -0.41  1.14 -0.84
Si  0.39 -1.23  0.84
Si  1.30  1.10  0.82
Si -1.36 -1.19 -0.78
Si  2.16 -1.17 -0.75
Si -0.87 -0.01  2.41
Si -2.21  1.12  0.72
Si  0.96  0.11 -2.42
Si -0.03 -2.19 -2.49
Si -3.02 -1.20  0.88
Si  3.04  1.19 -0.90
Si  0.01  2.34  2.52
Si -2.62 -0.05 -2.42
Si  2.65 -0.02  2.43
Si  0.44  3.49 -0.78
Si -0.50 -3.58  0.82
Si -1.22  3.48  0.88
Si  1.76 -2.37  2.40
Si  1.24 -3.49 -0.90
Si -1.74  2.41 -2.44
Si -1.79 -2.34  2.52
Si  1.77  2.48 -2.49
Si -0.89 -0.00 -4.00
Si  0.86  0.15  4.03
Si  2.19  3.45  0.84
Si -3.94  1.19 -0.90
Si  3.97 -1.20  0.88
Si -2.21 -3.54 -0.84
Si  0.06 -2.23  4.10
Si  2.98 -3.56  0.72
Si -3.03  3.52 -0.75
Si  0.03  2.33 -4.11
Si -3.42  2.31  2.40
Si  3.44 -2.27 -2.44
Si -3.54 -2.27 -2.44
Si -2.65  0.07  4.08
Si  3.56  2.31  2.40
Si  2.66 -0.03 -4.12
Si  4.78  1.12  0.72
Si -4.34 -0.02  2.43
Si  4.36 -0.05 -2.42
Si -1.73  2.29  4.10
Si -4.83 -1.17 -0.75
Si  1.75 -2.36 -4.09
Si -1.77 -2.35 -4.11
Si  1.85  2.45  4.10
Si -0.84 -4.57 -2.42
Si -0.82  4.63 -2.42
Si  0.93  4.67  2.41
Si  3.96  3.52 -0.75
Si  0.84 -4.70  2.43
Si -4.00 -3.56  0.72
Si  5.63 -1.19 -0.78
Si -3.44  2.32 -4.09
Si -2.54  4.66  2.43
Si  0.41 -1.24 -5.70
Si -5.68  1.10  0.82
Si -0.41  5.80  0.72
Si -0.46  1.15  5.73
Si  3.46 -2.39  4.10
Si  3.55  2.32 -4.09
Si  2.56 -4.73 -2.42
Si  0.36 -5.84 -0.75
Si -2.67 -4.69  2.41
Si -3.53 -2.39  4.10
Si  1.29  1.11 -5.68
Si -1.32 -1.20  5.68
Si  4.34  0.07  4.08
Si -4.80  3.45  0.84
Si -4.32 -0.03 -4.12
Si  4.77 -3.54 -0.84
Si  2.76  4.79 -2.42
Si  1.39  5.82 -0.84
Si  2.14 -1.15  5.62
Si -2.11  1.14 -5.64
Si -1.41 -5.91  0.84
Si -0.94 -4.53  4.03
Si  0.91  4.68 -4.00
Si -5.22 -2.37  2.40
Si  5.19 -2.34  2.52
Si  5.24  2.41 -2.44
Si -5.22  2.48 -2.49
Si -2.15  5.87 -0.90
Si  0.86 -4.71 -4.12
Si -0.85  4.75  4.08
Si  2.17 -5.88  0.88
Si -6.03  0.11 -2.42
Si  6.11 -0.01  2.41
Si  3.10  5.78  0.82
Si  3.05  1.18  5.77
Si  2.54 -4.61  4.08
Si  0.48  3.48  5.68
Si -3.10 -1.22 -5.80
Si -2.52  4.65 -4.12
Si -3.16 -5.87 -0.78
Si -2.69 -4.68 -4.00
Si  6.57  1.14 -0.84
Si -0.51 -3.57 -5.68
Si -6.59 -1.23  0.84
Si -5.74 -3.49 -0.90
Si  5.77  3.48  0.88
Si  4.31 -4.69  2.41
Si  2.66  4.83  4.03
Si -4.22  4.79 -2.42
Si  1.25 -3.50  5.77
Si -1.30  3.46 -5.80
Si  4.44  4.66  2.43
Si -4.42 -4.73 -2.42
Si -5.13  2.45  4.10
Si  2.21  3.44 -5.70
Si -3.88  5.78  0.82
Si  5.22 -2.35 -4.11
Si -5.24 -2.36 -4.09
Si  3.83 -5.87 -0.78
Si  5.26  2.29  4.10
Si -3.93  1.18  5.77
Si  3.88 -1.22 -5.80
Si -2.26 -3.53  5.73
Si  6.10 -0.00 -4.00
Si -3.05  3.54  5.62
Si -6.12  0.15  4.03
Si  3.07 -3.54 -5.64
Si -0.45  1.15 -7.30
Si -0.04 -7.05  2.40
Si  6.49 -3.58  0.82
Si  0.40 -1.23  7.34
Si -6.54  3.49 -0.78
Si  0.06  7.09 -2.44
Si  4.30 -4.68 -4.00
Si -4.85 -1.15  5.62
Si  7.37 -1.23  0.84
Si -7.40  1.14 -0.84
Si  4.87  1.14 -5.64
Si -1.83 -6.88 -2.49
Si  1.64 -6.95 -2.44
Si  1.28  1.11  7.36
Si -1.62  6.99  2.40
Si -1.31 -1.20 -7.36
Si -4.45 -4.61  4.08
Si -4.32  4.83  4.03
Si  4.46  4.65 -4.12
Si -4.82 -5.88  0.88
Si  4.84  5.87 -0.90
Si  1.81  7.02  2.52
Si  6.95 -2.19 -2.49
Si  3.94  3.54  5.62
Si -3.91 -3.54 -5.64
Si -7.02 -2.19 -2.49
Si -6.97  2.34  2.52
Si -2.12  1.15  7.40
Si  6.99  2.34  2.52
Si  2.14 -1.15 -7.42
Si  3.06  1.17 -7.26
Si -3.11 -1.22  7.24
Si -6.06  4.67  2.41
Si  6.14 -4.57 -2.42
Si  6.16  4.63 -2.42
Si  0.07  6.97  4.10
Si  0.34 -5.83  5.62
Si -6.14 -4.70  2.43
Si  5.67 -1.20  5.68
Si -0.32  5.82 -5.64
Si -5.69  1.11 -5.68
Si -5.60  5.82 -0.84
Si -1.31  3.46  7.24
Si -0.05 -7.04 -4.09
Si  0.49  3.48 -7.36
Si  1.26 -3.51 -7.26
Si  5.57 -5.91  0.84
Si -0.52 -3.57  7.36
Si -4.78  3.44 -5.70
Si  3.39 -7.02  2.52
Si -7.86 -0.01  2.41
Si -1.74 -6.91  4.10
Si  4.72 -3.53  5.73
Si  0.58  8.16  0.88
Si -0.56 -8.17 -0.90
Si  7.43  3.49 -0.78
Si -1.64  7.00 -4.09
Si -3.59 -7.02  2.52
Si  1.34  5.83  5.73
Si  3.88 -1.22  7.24
Si  7.94  0.11 -2.42
Si -3.42  7.16 -2.49
Si -1.23  8.20 -0.75
Si  1.83  7.01 -4.11
Si -1.39 -5.92 -5.70
Si -7.48 -3.58  0.82
Si -3.92  1.17 -7.26
Si  1.66 -7.07  4.10
Si  1.18 -8.24  0.72
Si -6.93 -2.23  4.10
Si  3.57  7.16 -2.49
Si  8.29  1.10  0.82
Si  2.20  3.45  7.34
Si -6.95  2.33 -4.11
Si -2.25 -3.53 -7.30
Si  7.04 -2.23  4.10
Si  7.02  2.33 -4.11
Si -8.34 -1.19 -0.78
Si -2.13  5.86  5.77
Si  2.24  8.17 -0.78
Si  2.08 -5.90 -5.80
Si  6.05 -4.53  4.03
Si -2.30 -8.26  0.82
Si -6.07  4.68 -4.00
Si  3.09  5.79 -5.68
Si -3.00  8.13  0.84
Si -3.12 -5.87  5.68
Si -6.12 -4.71 -4.12
Si  3.06 -3.54  7.40
Si -3.04  3.53 -7.42
Si  6.52  1.15  5.73
Si  6.14  4.75  4.08
Si  2.97 -8.22 -0.84
Si -6.58 -1.24 -5.70
Si  6.58  5.80  0.72
Si  7.85  0.15  4.03
Si  5.68  3.46 -5.80
Si -7.87 -0.00 -4.00
Si  3.42 -7.03 -4.11
Si -5.73 -3.50  5.77
Si -6.63 -5.84 -0.75
Si -3.33  7.13  4.10
Si -3.57 -7.03 -4.11
Si  4.86  1.15  7.40
Si -4.84 -1.15 -7.42
Si  5.15 -6.88 -2.49
Si -8.20  3.48  0.88
Si  8.22 -3.49 -0.90
Si -3.89  5.79 -5.68
Si  3.65  7.13  4.10
Si  3.87 -5.87  5.68
Si  0.87  0.14 -9.01
Si -5.18  7.02  2.52
Si -0.90 -0.00  9.04
Si -3.92 -3.54  7.40
Si  3.99  8.13  0.84
Si -5.34 -6.95 -2.44
Si  3.94  3.53 -7.42
Si  5.36  6.99  2.40
Si -4.01 -8.22 -0.84
Si  0.06 -2.23 -8.93
Si  0.03  2.33  8.93
Si  9.14 -1.17 -0.75
Si -9.19  1.12  0.72
Si  2.66 -0.03  8.92
Si -6.50  3.48  5.68
Si  6.48 -3.57 -5.68
Si -2.64  0.07 -8.96
Si  5.67 -1.20 -7.36
Si -5.70  1.11  7.36
Si  8.74 -2.37  2.40
Si -8.73  2.41 -2.44
Si -7.82 -4.57 -2.42
Si -1.72  2.29 -8.93
Si  4.73 -3.53 -7.30
Si -7.81  4.63 -2.42
Si -1.77 -2.35  8.93
Si  7.39 -1.24 -5.70
Si  7.34 -5.84 -0.75
Si -4.79  3.45  7.34
Si  1.74 -2.35  8.95
Si -7.39  5.80  0.72
Si -0.32  5.83  7.40
Si -8.78 -2.34  2.52
Si  8.75  2.48 -2.49
Si  0.34 -5.83 -7.42
Si  1.35  5.83 -7.30
Si  7.83 -4.70  2.43
Si  1.86  2.45 -8.93
Si -7.45  1.15  5.73
Si -4.74  8.17 -0.78
Si  7.91  4.67  2.41
Si  4.69 -8.26  0.82
Si -1.40 -5.91  7.34
Si  4.85  5.86  5.77
Si  2.08 -5.90  7.24
Si -2.12  5.85 -7.26
Si  5.24 -6.91  4.10
Si -4.90 -5.90 -5.80
Si -5.15  7.01 -4.11
Si  0.98  9.31 -2.42
Si -0.74  9.34  2.43
Si  5.35  7.00 -4.09
Si -0.95 -9.38  2.43
Si  0.76 -9.41 -2.42
Si -5.33 -7.07  4.10
Si  5.67  3.46  7.24
Si  9.17  3.45  0.84
Si  3.08  5.79  7.36
Si  6.53  1.15 -7.30
Si -3.44  2.33  8.95
Si  3.46 -2.39 -8.93
Si -9.20 -3.54 -0.84
Si -5.72 -3.51 -7.26
Si -3.52 -2.39 -8.93
Si -8.71  2.29  4.10
Si  3.54  2.33  8.95
Si -9.61 -0.05 -2.42
Si -4.33 -0.03  8.92
Si -2.64 -9.25 -2.42
Si -3.11 -5.88 -7.36
Si  8.73 -2.36 -4.09
Si  9.63 -0.02  2.43
Si  5.59 -5.92 -5.70
Si -5.65  5.83  5.73
Si -6.59 -1.23  7.34
Si -8.75 -2.35 -4.11
Si  4.34  0.07 -8.96
Si -7.92 -4.53  4.03
Si  2.51 -9.37  2.41
Si  7.47  3.48  5.68
Si  0.50  8.14 -5.80
Si  7.90  4.68 -4.00
Si -7.83  4.75  4.08
Si -0.55 -8.18  5.77
Si -1.25  8.21  5.62
Si  2.73  9.35  2.41
Si  7.85 -4.71 -4.12
Si  5.76  8.20 -0.75
Si  1.27 -8.22 -5.64
Si  8.84  2.45  4.10
Si -7.49 -3.57 -5.68
Si -2.42  9.47 -2.42
Si  8.28  1.11 -5.68
Si -5.80 -8.24  0.72
Si -10.00 -1.20  0.88
Si  0.86 -4.71  8.92
Si -8.30 -1.20  5.68
Si -0.93 -4.54 -9.01
Si 10.02  1.19 -0.90
Si -3.90  5.79  7.36
Si  0.74 -9.29  4.08
Si -0.84  4.75 -8.96
Si  6.95 -7.05  2.40
Si  3.88 -5.88 -7.36
Si  2.28  8.16  5.68
Si -6.93  7.09 -2.44
Si  0.91  4.68  9.04
Si -0.72  9.33 -4.12
Si  8.37  5.82 -0.84
Si -7.02 -7.05  2.40
Si -2.31 -8.25 -5.68
Si  7.04  7.09 -2.44
Si -0.94 -9.39 -4.12
Si -8.39 -5.91  0.84
Si  0.95  9.43  4.08
Si -2.98  8.12 -5.70
Si -2.53  4.65  8.92
Si  2.55 -4.61 -8.96
Si -6.40  8.16  0.88
Si -6.49  3.48 -7.36
Si -2.73 -9.21  4.03
Si  6.47 -3.57  7.36
Si  6.42 -8.17 -0.90
Si  2.92 -8.21  5.73
Si -9.63  0.07  4.08
Si -6.65 -5.83  5.62
Si  2.50 -9.36 -4.00
Si  7.38 -1.23  7.34
Si -7.44  1.15 -7.30
Si  9.65 -0.03 -4.12
Si  6.67  5.82 -5.64
Si  4.34 -9.25 -2.42
Si  4.86  5.85 -7.26
Si  2.71  9.36 -4.00
Si -2.69 -4.68  9.04
Si -4.91 -5.90  7.24
Si -4.26  9.35  2.41
Si  2.67  4.82 -9.01
Si -5.12  2.45 -8.93
Si -0.34 10.55 -0.90
Si  1.40 10.48  0.72
Si  0.37 -10.55  0.88
Si  5.21 -2.35  8.93
Si  9.96 -3.56  0.72
Si  5.26  2.29 -8.93
Si -2.52  9.51  4.03
Si -10.01  3.52 -0.75
Si -5.24 -2.35  8.95
Si -6.91  6.97  4.10
Si -1.44 -10.52 -0.75
Si  8.24 -3.50  5.77
Si -4.47 -9.37  2.41
Si -0.86 -0.01 -10.62
Si  0.95  0.11 10.62
Si -8.29  3.46 -5.80
Si  6.93 -7.04 -4.09
Si  4.00  8.12 -5.70
Si -2.08 10.46  0.82
Si  7.06  6.97  4.10
Si -7.04 -7.04 -4.09
Si -9.10  1.14 -5.64
Si  2.03 -10.55 -0.78
Si  0.02  2.33 -10.52
Si -0.04 -2.19 10.55
Si  9.12 -1.15  5.62
Si  4.56  9.47 -2.42
Si -4.06 -8.21  5.73
Si -9.52  4.66  2.43
Si -6.11  0.14 -9.01
Si -9.13  5.87 -0.90
Si  6.09 -0.00  9.04
Si -7.30  5.82 -5.64
Si  0.49  8.14  7.24
Si  9.15 -5.88  0.88
Si  7.32 -5.83  5.62
Si -5.64  5.83 -7.30
Si  4.25 -9.21  4.03
Si -1.78 -2.35 -10.52
Si  9.54 -4.73 -2.42
Si -10.41  2.31  2.40
Si  2.65 -0.02 -10.61
Si -2.63 -0.05 10.62
Si 10.43 -2.27 -2.44
Si  5.58 -5.91  7.34
Si -0.54 -8.19 -7.26
Si  1.76  2.49 10.55
Si -4.70  8.16  5.68
Si -9.65 -4.69  2.41
Si  4.46  4.65  8.92
Si -4.44 -4.61 -8.96
Si  3.19 10.50 -0.84
Si -1.75  2.42 10.60
Si -10.93  1.19 -0.90
Si -4.27  9.36 -4.00
Si -10.53 -2.27 -2.44
Si  1.77 -2.37 -10.64
Si  4.29 -4.68  9.04
Si 10.95 -1.20  0.88
Si  7.47  3.48 -7.36
Si  4.68 -8.25 -5.68
Si 10.54  2.31  2.40
Si -4.31  4.82 -9.01
Si -7.50 -3.57  7.36
Si -3.21 -10.59  0.84
Si  9.74  4.79 -2.42
Si  8.27  1.11  7.36
Si -4.49 -9.36 -4.00
Si  1.26 -8.21  7.40
Si -1.24  8.21 -7.42
Si -7.54 -8.17 -0.90
Si -8.29 -1.20 -7.36
Si  7.57  8.16  0.88
Si -3.80 10.50 -0.84
Si  2.29  8.16 -7.36
Si  4.46  9.51  4.03
Si  3.77 -10.59  0.84
Si -2.31 -8.25  7.36
Si  0.08  6.97 -8.93
Si  9.52 -4.61  4.08
Si -6.01  9.31 -2.42
Si  8.63 -6.95 -2.44
Si -8.61  6.99  2.40
Si  9.19  3.44 -5.70
Si -2.99  8.13  7.34
Si -9.50  4.65 -4.12
Si  3.43 -2.27 10.60
Si  2.93 -8.21 -7.30
Si -0.06 -7.03  8.95
Si -3.55 -2.27 10.60
Si -3.42  2.31 -10.64
Si  6.03 -9.38  2.43
Si -1.74 -6.91 -8.93
Si -10.42  2.32 -4.09
Si -9.24 -3.53  5.73
Si -8.81 -6.88 -2.49
Si  3.57  2.31 -10.64
Si -4.33 -0.02 -10.61
Si -9.67 -4.68 -4.00
Si 10.44 -2.39  4.10
Si  4.35 -0.05 10.62
Si -1.64  7.00  8.95
Si -5.71 -8.22 -5.64
Si  5.74  8.21  5.62
Si  6.24  9.34  2.43
Si  1.82  7.01  8.93
Si  9.65  4.83  4.03
Si  1.67 -7.07 -8.93
Si 10.94  3.52 -0.75
Si -6.92 -2.23 -8.93
Si  8.79  7.02  2.52
Si -10.51 -2.39  4.10
Si 10.53  2.32 -4.09
Si  6.66  5.83  7.40
Si  8.25 -3.51 -7.26
Si -6.64 -5.83 -7.42
Si -6.22 -9.41 -2.42
Si -8.29  3.46  7.24
Si -6.96  2.33  8.93
Si -10.99 -3.56  0.72
Si -11.32 -0.02  2.43
Si  4.90 10.46  0.82
Si  7.01  2.33  8.93
Si -0.85 -4.57 10.62
Si  7.05 -2.23 -8.93
Si 11.35 -0.05 -2.42
Si -0.83  4.63 10.62
Si  8.16 -8.24  0.72
