500
set: 621.00  0.00  0.00
Si  0.46 -0.90  0.76
Si -0.46  0.90 -0.76
Si  1.37  1.45  0.76
Si -1.37 -1.45 -0.76
Si -2.09  1.45  0.76
Si  2.09 -1.45 -0.76
Si -1.26  0.01  2.49
Si  1.26 -0.01 -2.49
Si  2.99  0.90 -0.76
Si -2.99 -0.90  0.76
Si -2.19 -0.01 -2.49
Si  2.19  0.01  2.49
Si  0.44  3.25 -0.76
Si -0.44 -3.25  0.76
Si -0.36  2.35  2.49
Si  0.36 -2.35 -2.49
Si  1.28 -2.34  2.49
Si -1.28  2.34 -2.49
Si  2.17  2.34 -2.49
Si -2.17 -2.34  2.49
Si -1.18  3.80  0.76
Si  1.18 -3.80 -0.76
Si -0.57 -0.56 -4.01
Si  0.57  0.56  4.01
Si -3.92  0.90 -0.76
Si  3.92 -0.90  0.76
Si -0.34 -1.79  4.01
Si  0.34  1.79 -4.01
Si  2.27  3.80  0.76
Si -2.27 -3.80 -0.76
Si -3.01  3.25 -0.76
Si  3.01 -3.25  0.76
Si  3.10  2.35  2.49
Si -3.10 -2.35 -2.49
Si  2.89 -0.56 -4.01
Si -2.89  0.56  4.01
Si  4.83  1.45  0.76
Si -4.83 -1.45 -0.76
Si  3.81 -2.35 -2.49
Si -3.81  2.35  2.49
Si -3.90 -3.25  0.76
Si  3.90  3.25 -0.76
Si -1.47 -2.90 -4.01
Si  1.47  2.90  4.01
Si -0.38  4.69 -2.49
Si  0.38 -4.69  2.49
Si  4.72 -0.01 -2.49
Si -4.72  0.01  2.49
Si -1.98  2.90  4.01
Si  1.98 -2.90 -4.01
Si  0.55  4.70  2.49
Si -0.55 -4.70 -2.49
Si  3.12 -1.79  4.01
Si -3.12  1.79 -4.01
Si  4.02  0.56  4.01
Si -4.02 -0.56 -4.01
Si  5.54 -1.45 -0.76
Si -5.54  1.45  0.76
Si -3.79 -1.79  4.01
Si  3.79  1.79 -4.01
Si  1.35  5.60 -0.76
Si -1.35 -5.60  0.76
Si -4.74  2.34 -2.49
Si  4.74 -2.34  2.49
Si -1.25 -4.14  4.01
Si  1.25  4.14 -4.01
Si  1.39 -0.89  5.74
Si -1.39  0.89 -5.74
Si -2.10  5.60 -0.76
Si  2.10 -5.60  0.76
Si -1.16  1.46  5.74
Si  1.16 -1.46 -5.74
Si -4.64  3.80  0.76
Si  4.64 -3.80 -0.76
Si  2.91 -4.70 -2.49
Si -2.91  4.70  2.49
Si  3.08  4.69 -2.49
Si -3.08 -4.69  2.49
Si -2.07 -0.89  5.74
Si  2.07  0.89 -5.74
Si  5.65  0.01  2.49
Si -5.65 -0.01 -2.49
Si  2.21 -4.14  4.01
Si -2.21  4.14 -4.01
Si  0.27 -6.14 -0.76
Si -0.27  6.14  0.76
Si -2.30 -1.46 -5.74
Si  2.30  1.46  5.74
Si  3.83 -4.69  2.49
Si -3.83  4.69 -2.49
Si -6.45 -0.90  0.76
Si  6.45  0.90 -0.76
Si -5.63 -2.34  2.49
Si  5.63  2.34 -2.49
Si  0.48 -3.23  5.74
Si -0.48  3.23 -5.74
Si -4.00 -4.70 -2.49
Si  4.00  4.70  2.49
Si  1.08 -5.25 -4.01
Si -1.08  5.25  4.01
Si -0.25  3.81  5.74
Si  0.25 -3.81 -5.74
Si  5.73  3.80  0.76
Si -5.73 -3.80 -0.76
Si  3.18  6.14  0.76
Si -3.18 -6.14 -0.76
Si -4.93 -2.90 -4.01
Si  4.93  2.90  4.01
Si  2.38  5.25  4.01
Si -2.38 -5.25 -4.01
Si  2.97  3.23 -5.74
Si -2.97 -3.23  5.74
Si -3.73  6.14  0.76
Si  3.73 -6.14 -0.76
Si -0.23 -0.34  7.26
Si  0.23  0.34 -7.26
Si -6.47  3.25 -0.76
Si  6.47 -3.25  0.76
Si -5.44  2.90  4.01
Si  5.44 -2.90 -4.01
Si -6.55 -2.35 -2.49
Si  6.55  2.35  2.49
Si  4.81  5.60 -0.76
Si -4.81 -5.60  0.76
Si  4.70  4.14 -4.01
Si -4.70 -4.14  4.01
Si -7.37  0.90 -0.76
Si  7.37 -0.90  0.76
Si  0.53  7.04 -2.49
Si -0.53 -7.04  2.49
Si  4.62 -1.46 -5.74
Si -4.62  1.46  5.74
Si  6.34 -0.56 -4.01
Si -6.34  0.56  4.01
Si  4.85 -0.89  5.74
Si -4.85  0.89 -5.74
Si  0.67  2.01  7.26
Si -0.67 -2.01 -7.26
Si -3.20 -3.81 -5.74
Si  3.20  3.81  5.74
Si -1.46 -7.05 -2.49
Si  1.46  7.05  2.49
Si -3.94  3.23 -5.74
Si  3.94 -3.23  5.74
Si -1.30  6.49 -4.01
Si  1.30 -6.49  4.01
Si -2.00  7.05  2.49
Si  2.00 -7.05 -2.49
Si  3.71 -3.81 -5.74
Si -3.71  3.81  5.74
Si -1.14 -2.69  7.26
Si  1.14  2.69 -7.26
Si -6.57  1.79 -4.01
Si  6.57 -1.79  4.01
Si -5.56  5.60 -0.76
Si  5.56 -5.60  0.76
Si  2.15  6.49 -4.01
Si -2.15 -6.49  4.01
Si  3.22 -0.34  7.26
Si -3.22  0.34 -7.26
Si -5.52 -0.89  5.74
Si  5.52  0.89 -5.74
Si  4.53 -5.25 -4.01
Si -4.53  5.25  4.01
Si -0.42 -5.58  5.74
Si  0.42  5.58 -5.74
Si -2.93  7.04 -2.49
Si  2.93 -7.04  2.49
Si -2.78  2.01  7.26
Si  2.78 -2.01 -7.26
Si  7.27 -2.35 -2.49
Si -7.27  2.35  2.49
Si  1.20 -7.94  0.76
Si -1.20  7.94 -0.76
Si  7.36  3.25 -0.76
Si -7.36 -3.25  0.76
Si  2.31 -2.69  7.26
Si -2.31  2.69 -7.26
Si  5.67 -4.14  4.01
Si -5.67  4.14 -4.01
Si -3.69 -0.34  7.26
Si  3.69  0.34 -7.26
Si  5.75  1.46  5.74
Si -5.75 -1.46 -5.74
Si  2.26  7.94 -0.76
Si -2.26 -7.94  0.76
Si -6.36  4.70  2.49
Si  6.36 -4.70 -2.49
Si  6.53  4.69 -2.49
Si -6.53 -4.69  2.49
Si -8.28 -1.45 -0.76
Si  8.28  1.45  0.76
Si  0.65  6.16  5.74
Si -0.65 -6.16 -5.74
Si -3.98 -7.04  2.49
Si  3.98  7.04 -2.49
Si  7.25  1.79 -4.01
Si -7.25 -1.79  4.01
Si -7.48 -0.56 -4.01
Si  7.48  0.56  4.01
Si -8.18  0.01  2.49
Si  8.18 -0.01 -2.49
Si -0.63 -8.49 -0.76
Si  0.63  8.49  0.76
Si -3.03  5.58 -5.74
Si  3.03 -5.58  5.74
Si  4.13  2.01  7.26
Si -4.13 -2.01 -7.26
Si  0.17 -7.60 -4.01
Si -0.17  7.60  4.01
Si -1.58 -4.36 -7.26
Si  1.58  4.36  7.26
Si  1.88 -4.36 -7.26
Si -1.88  4.36  7.26
Si  5.84  5.25  4.01
Si -5.84 -5.25 -4.01
Si  2.80 -6.16 -5.74
Si -2.80  6.16  5.74
Si -8.20  2.34 -2.49
Si  8.20 -2.34  2.49
Si -3.88 -5.58  5.74
Si  3.88  5.58 -5.74
Si  4.91  7.05  2.49
Si -4.91 -7.05 -2.49
Si  1.41 -5.03  7.26
Si -1.41  5.03 -7.26
Si  8.09 -3.80 -0.76
Si -8.09  3.80  0.76
Si -2.82  8.49  0.76
Si  2.82 -8.49 -0.76
Si  4.76 -6.49  4.01
Si -4.76  6.49 -4.01
Si  4.60  2.69 -7.26
Si -4.60 -2.69  7.26
Si  7.29 -4.69  2.49
Si -7.29  4.69 -2.49
Si  2.05  5.03 -7.26
Si -2.05 -5.03  7.26
Si  6.64  6.14  0.76
Si -6.64 -6.14 -0.76
Si -1.50 -0.57 -8.98
Si  1.50  0.57  8.98
Si  9.00 -1.45 -0.76
Si -9.00  1.45  0.76
Si  7.46  4.70  2.49
Si -7.46 -4.70 -2.49
Si  0.59 -1.78  8.98
Si -0.59  1.78 -8.98
Si  3.29  7.60  4.01
Si -3.29 -7.60 -4.01
Si  6.43  3.23 -5.74
Si -6.43 -3.23  5.74
Si -1.96  0.57  8.98
Si  1.96 -0.57 -8.98
Si -4.66  7.94 -0.76
Si  4.66 -7.94  0.76
Si -5.46  7.05  2.49
Si  5.46 -7.05 -2.49
Si -3.62  7.60  4.01
Si  3.62 -7.60 -4.01
Si  4.11  6.16  5.74
Si -4.11 -6.16 -5.74
Si  9.10  0.01  2.49
Si -9.10 -0.01 -2.49
Si  4.09  8.49  0.76
Si -4.09 -8.49 -0.76
Si -5.61 -6.49  4.01
Si  5.61  6.49 -4.01
Si  7.18 -6.14 -0.76
Si -7.18  6.14  0.76
Si -1.05  2.92  8.98
Si  1.05 -2.92 -8.98
Si -6.66 -3.81 -5.74
Si  6.66  3.81  5.74
Si  2.87  1.78 -8.98
Si -2.87 -1.78  8.98
Si  5.77 -2.69  7.26
Si -5.77  2.69 -7.26
Si -9.08 -2.34  2.49
Si  9.08  2.34 -2.49
Si  0.40 -8.84  4.01
Si -0.40  8.84 -4.01
Si  8.38  2.90  4.01
Si -8.38 -2.90 -4.01
Si  2.40  2.92  8.98
Si -2.40 -2.92 -8.98
Si  6.24 -2.01 -7.26
Si -6.24  2.01  7.26
Si  1.09 -9.40 -2.49
Si -1.09  9.40  2.49
Si -5.71 -7.94  0.76
Si  5.71  7.94 -0.76
Si  1.43  9.38 -2.49
Si -1.43 -9.38  2.49
Si -6.38  7.04 -2.49
Si  6.38 -7.04  2.49
Si  5.03  4.36  7.26
Si -5.03 -4.36 -7.26
Si  6.68 -0.34  7.26
Si -6.68  0.34 -7.26
Si  1.33  7.93 -5.74
Si -1.33 -7.93  5.74
Si  0.32  4.13 -8.98
Si -0.32 -4.13  8.98
Si  7.39 -3.23  5.74
Si -7.39  3.23 -5.74
Si  2.02 -9.38  2.49
Si -2.02  9.38 -2.49
Si -0.97  6.71  7.26
Si  0.97 -6.71 -7.26
Si -7.16  3.81  5.74
Si  7.16 -3.81 -5.74
Si -9.19 -3.80 -0.76
Si  9.19  3.80  0.76
Si -9.90 -0.90  0.76
Si  9.90  0.90 -0.76
Si  8.16  4.14 -4.01
Si -8.16 -4.14  4.01
Si  2.36  9.40  2.49
Si -2.36 -9.40 -2.49
Si -8.26 -5.60  0.76
Si  8.26  5.60 -0.76
Si -8.07  1.46  5.74
Si  8.07 -1.46 -5.74
Si -5.33  4.36  7.26
Si  5.33 -4.36 -7.26
Si -4.04  1.78 -8.98
Si  4.04 -1.78  8.98
Si -2.13  7.93 -5.74
Si  2.13 -7.93  5.74
Si  4.86 -5.03  7.26
Si -4.86  5.03 -7.26
Si -8.30  0.89 -5.74
Si  8.30 -0.89  5.74
Si -3.06 -8.84  4.01
Si  3.06  8.84 -4.01
Si  8.89 -2.90 -4.01
Si -8.89  2.90  4.01
Si -2.48 -6.71 -7.26
Si  2.48  6.71  7.26
Si -7.14 -0.34  7.26
Si  7.14  0.34 -7.26
Si -4.95 -0.57 -8.98
Si  4.95  0.57  8.98
Si  6.49 -5.58  5.74
Si -6.49  5.58 -5.74
Si -0.29 10.29 -0.76
Si  0.29 -10.29  0.76
Si  0.50 -7.38  7.26
Si -0.50  7.38 -7.26
Si  7.99 -5.25 -4.01
Si -7.99  5.25  4.01
Si -3.14  4.13 -8.98
Si  3.14 -4.13  8.98
Si -1.56 -8.51 -5.74
Si  1.56  8.51  5.74
Si -5.50 -5.03  7.26
Si  5.50  5.03 -7.26
Si  0.15 -5.27 -8.98
Si -0.15  5.27  8.98
Si  1.90 -8.51 -5.74
Si -1.90  8.51  5.74
Si -3.85  8.84 -4.01
Si  3.85 -8.84  4.01
Si  4.51 -2.92 -8.98
Si -4.51  2.92  8.98
Si -9.92  3.25 -0.76
Si  9.92 -3.25  0.76
Si -6.26  6.16  5.74
Si  6.26 -6.16 -5.74
Si -5.42  0.57  8.98
Si  5.42 -0.57 -8.98
Si  7.44  7.04 -2.49
Si -7.44 -7.04  2.49
Si  0.13 -1.12 -10.51
Si -0.13  1.12 10.51
Si -10.01 -2.35 -2.49
Si 10.01  2.35  2.49
Si -3.77 -4.13  8.98
Si  3.77  4.13 -8.98
Si  6.28 -8.49 -0.76
Si -6.28  8.49  0.76
Si -9.80  0.56  4.01
Si  9.80 -0.56 -4.01
Si  1.04  1.23 -10.51
Si -1.04 -1.23 10.51
Si -9.02  5.60 -0.76
Si  9.02 -5.60  0.76
Si  8.98  0.89 -5.74
Si -8.98 -0.89  5.74
Si -7.58 -2.01 -7.26
Si  7.58  2.01  7.26
Si  4.55 -9.40 -2.49
Si -4.55  9.40  2.49
Si  0.74  9.95  4.01
Si -0.74 -9.95 -4.01
Si  2.95  7.38 -7.26
Si -2.95 -7.38  7.26
Si  9.12 -4.14  4.01
Si -9.12  4.14 -4.01
Si  3.16 10.29 -0.76
Si -3.16 -10.29  0.76
Si -4.43  6.71  7.26
Si  4.43 -6.71 -7.26
Si -7.33 -5.58  5.74
Si  7.33  5.58 -5.74
Si  2.42 -1.23 10.51
Si -2.42  1.23 -10.51
Si  4.89  9.38 -2.49
Si -4.89 -9.38  2.49
Si 10.83 -0.90  0.76
Si -10.83  0.90 -0.76
Si  4.79  7.93 -5.74
Si -4.79 -7.93  5.74
Si  6.74  7.60  4.01
Si -6.74 -7.60 -4.01
Si  3.31  5.27  8.98
Si -3.31 -5.27 -8.98
Si  9.21  1.46  5.74
Si -9.21 -1.46 -5.74
Si -10.03  1.79 -4.01
Si 10.03 -1.79  4.01
Si  1.54 10.84  0.76
Si -1.54 -10.84 -0.76
Si  3.75 -10.29  0.76
Si -3.75 10.29 -0.76
Si -3.60  5.27  8.98
Si  3.60 -5.27 -8.98
Si  1.92 -10.84 -0.76
Si -1.92 10.84  0.76
Si -2.72  9.95  4.01
Si  2.72 -9.95 -4.01
Si -3.33 -1.12 -10.51
Si  3.33  1.12 10.51
Si -3.96  7.38 -7.26
Si  3.96 -7.38  7.26
Si -0.78 -3.47 -10.51
Si  0.78  3.47 10.51
Si  5.86  2.92  8.98
Si -5.86 -2.92 -8.98
Si -6.32 -1.78  8.98
Si  6.32  1.78 -8.98
Si -7.08  7.60  4.01
Si  7.08 -7.60 -4.01
Si -1.22 -6.47  8.98
Si  1.22  6.47 -8.98
Si -5.48  9.38 -2.49
Si  5.48 -9.38  2.49
Si  3.58 -1.12 -10.51
Si -3.58  1.12 10.51
Si -9.82  4.70  2.49
Si  9.82 -4.70 -2.49
Si -8.05 -2.69  7.26
Si  8.05  2.69 -7.26
Si  1.51 -3.58 10.51
Si -1.51  3.58 -10.51
Si  8.21 -6.49  4.01
Si -8.21  6.49 -4.01
Si  8.37  7.05  2.49
Si -8.37 -7.05 -2.49
Si -10.72  2.35  2.49
Si 10.72 -2.35 -2.49
Si  5.58 -7.93  5.74
Si -5.58  7.93 -5.74
Si -1.94 -3.58 10.51
Si  1.94  3.58 -10.51
Si  2.23 -6.47  8.98
Si -2.23  6.47 -8.98
Si  9.99  4.69 -2.49
Si -9.99 -4.69  2.49
Si 10.81  3.25 -0.76
Si -10.81 -3.25  0.76
Si  7.57  6.16  5.74
Si -7.57 -6.16 -5.74
Si  5.82  9.40  2.49
Si -5.82 -9.40 -2.49
Si  8.11 -7.94  0.76
Si -8.11  7.94 -0.76
Si -7.54 -8.49 -0.76
Si  7.54  8.49  0.76
Si  2.68 -3.47 -10.51
Si -2.68  3.47 10.51
Si -9.29 -5.25 -4.01
Si  9.29  5.25  4.01
Si  5.02  8.51  5.74
Si -5.02 -8.51 -5.74
Si -4.49 -1.23 10.51
Si  4.49  1.23 -10.51
Si -4.19 -9.95 -4.01
Si  4.19  9.95  4.01
Si -5.94 -6.71 -7.26
Si  5.94  6.71  7.26
Si -5.35  8.51  5.74
Si  5.35 -8.51 -5.74
Si 10.71  1.79 -4.01
Si -10.71 -1.79  4.01
Si -0.06  9.05  7.26
Si  0.06 -9.05 -7.26
Si -8.91  7.05  2.49
Si  8.91 -7.05 -2.49
