500
set:  3.00  0.00  0.00
Si  0.00  0.00  0.00
Si  0.78 -2.37  0.00
Si -0.78  2.37  0.00
Si  0.25  0.10 -2.53
Si -0.25 -0.10  2.53
Si -2.73  0.00  0.00
Si  2.73  0.00  0.00
Si  1.94  2.37  0.00
Si -1.94 -2.37  0.00
Si  2.48 -0.10  2.53
Si -2.48  0.10 -2.53
Si -1.03  2.27  2.53
Si  1.03 -2.27 -2.53
Si  0.54 -2.47  2.53
Si -0.54  2.47 -2.53
Si -1.69 -2.27 -2.53
Si  1.69  2.27  2.53
Si -2.98 -0.10  2.53
Si  2.98  0.10 -2.53
Si  2.19  2.47 -2.53
Si -2.19 -2.47  2.53
Si -3.51  2.37  0.00
Si  3.51 -2.37  0.00
Si  3.26 -2.47  2.53
Si -3.26  2.47 -2.53
Si  1.16  4.75  0.00
Si -1.16 -4.75  0.00
Si  1.57 -4.75  0.00
Si -1.57  4.75  0.00
Si -3.76  2.27  2.53
Si  3.76 -2.27 -2.53
Si -0.50 -0.20  5.06
Si  0.50  0.20 -5.06
Si -4.67 -2.37  0.00
Si  4.67  2.37  0.00
Si -0.91 -4.64 -2.53
Si  0.91  4.64  2.53
Si  5.45  0.00  0.00
Si -5.45  0.00  0.00
Si  2.23 -0.20  5.06
Si -2.23  0.20 -5.06
Si -4.42 -2.27 -2.53
Si  4.42  2.27  2.53
Si -1.82  4.64  2.53
Si  1.82 -4.64 -2.53
Si  1.32 -4.84  2.53
Si -1.32  4.84 -2.53
Si -1.41 -4.84  2.53
Si  1.41  4.84 -2.53
Si  1.28 -2.17 -5.06
Si -1.28  2.17  5.06
Si -0.28  2.57 -5.06
Si  0.28 -2.57  5.06
Si  1.44  2.17  5.06
Si -1.44 -2.17 -5.06
Si -5.20  0.10 -2.53
Si  5.20 -0.10  2.53
Si  3.23  0.20 -5.06
Si -3.23 -0.20  5.06
Si -4.92 -2.47  2.53
Si  4.92  2.47 -2.53
Si  3.89  4.75  0.00
Si -3.89 -4.75  0.00
Si -2.44 -2.57  5.06
Si  2.44  2.57 -5.06
Si  5.70  0.10 -2.53
Si -5.70 -0.10  2.53
Si  4.29 -4.75  0.00
Si -4.29  4.75  0.00
Si  3.64  4.64  2.53
Si -3.64 -4.64 -2.53
Si -3.01  2.57 -5.06
Si  3.01 -2.57  5.06
Si -6.24  2.37  0.00
Si  6.24 -2.37  0.00
Si  4.04 -4.84  2.53
Si -4.04  4.84 -2.53
Si  4.01 -2.17 -5.06
Si -4.01  2.17  5.06
Si  0.66  4.54  5.06
Si -0.66 -4.54 -5.06
Si  4.13  4.84 -2.53
Si -4.13 -4.84  2.53
Si -4.17 -2.17 -5.06
Si  4.17  2.17  5.06
Si -5.99  2.47 -2.53
Si  5.99 -2.47  2.53
Si -4.54  4.64  2.53
Si  4.54 -4.64 -2.53
Si -4.96  0.20 -5.06
Si  4.96 -0.20  5.06
Si  2.07 -4.54 -5.06
Si -2.07  4.54  5.06
Si -0.38 -7.12  0.00
Si  0.38  7.12  0.00
Si -1.07  4.95 -5.06
Si  1.07 -4.95  5.06
Si -1.66 -4.95  5.06
Si  1.66  4.95 -5.06
Si  6.49 -2.27 -2.53
Si -6.49  2.27  2.53
Si -0.13 -7.02 -2.53
Si  0.13  7.02  2.53
Si -2.35  7.12  0.00
Si  2.35 -7.12  0.00
Si -3.39 -4.54 -5.06
Si  3.39  4.54  5.06
Si  0.75  0.30 -7.59
Si -0.75 -0.30  7.59
Si  0.62  7.22 -2.53
Si -0.62 -7.22  2.53
Si  5.17  2.57 -5.06
Si -5.17 -2.57  5.06
Si  3.10  7.12  0.00
Si -3.10 -7.12  0.00
Si -7.40 -2.37  0.00
Si  7.40  2.37  0.00
Si  5.95  0.20 -5.06
Si -5.95 -0.20  5.06
Si  1.98 -0.30  7.59
Si -1.98  0.30 -7.59
Si  2.60 -7.02 -2.53
Si -2.60  7.02  2.53
Si -7.15 -2.27 -2.53
Si  7.15  2.27  2.53
Si  2.10 -7.22  2.53
Si -2.10  7.22 -2.53
Si -1.20 -2.07 -7.59
Si  1.20  2.07  7.59
Si -2.85 -7.02 -2.53
Si  2.85  7.02  2.53
Si  1.53 -2.07 -7.59
Si -1.53  2.07  7.59
Si -3.80  4.95 -5.06
Si  3.80 -4.95  5.06
Si  0.04 -2.67  7.59
Si -0.04  2.67 -7.59
Si  5.74 -2.57  5.06
Si -5.74  2.57 -5.06
Si  6.61  4.75  0.00
Si -6.61 -4.75  0.00
Si -8.18  0.00  0.00
Si  8.18  0.00  0.00
Si -6.36 -4.64 -2.53
Si  6.36  4.64  2.53
Si  4.79 -4.54 -5.06
Si -4.79  4.54  5.06
Si  4.38  4.95 -5.06
Si -4.38 -4.95  5.06
Si -7.93  0.10 -2.53
Si  7.93 -0.10  2.53
Si  3.47  0.30 -7.59
Si -3.47 -0.30  7.59
Si  3.35  7.22 -2.53
Si -3.35 -7.22  2.53
Si  7.64  2.47 -2.53
Si -7.64 -2.47  2.53
Si -7.02  4.75  0.00
Si  7.02 -4.75  0.00
Si -2.69 -2.67  7.59
Si  2.69  2.67 -7.59
Si -2.76  2.67 -7.59
Si  2.76 -2.67  7.59
Si  0.12 -6.92 -5.06
Si -0.12  6.92  5.06
Si -6.74  2.17  5.06
Si  6.74 -2.17 -5.06
Si  6.77 -4.84  2.53
Si -6.77  4.84 -2.53
Si -5.08  7.12  0.00
Si  5.08 -7.12  0.00
Si  6.86  4.84 -2.53
Si -6.86 -4.84  2.53
Si  3.92  2.07  7.59
Si -3.92 -2.07 -7.59
Si  0.41  4.44  7.59
Si -0.41 -4.44 -7.59
Si  8.43  0.10 -2.53
Si -8.43 -0.10  2.53
Si -6.90 -2.17 -5.06
Si  6.90  2.17  5.06
Si -4.71  0.30 -7.59
Si  4.71 -0.30  7.59
Si  0.87  7.32 -5.06
Si -0.87 -7.32  5.06
Si  4.26 -2.07 -7.59
Si -4.26  2.07  7.59
Si  2.60  6.92  5.06
Si -2.60 -6.92 -5.06
Si  7.27 -4.64 -2.53
Si -7.27  4.64  2.53
Si  2.85 -6.92 -5.06
Si -2.85  6.92  5.06
Si -4.83  7.22 -2.53
Si  4.83 -7.22  2.53
Si  1.85 -7.32  5.06
Si -1.85  7.32 -5.06
Si -2.31  4.44  7.59
Si  2.31 -4.44 -7.59
Si  6.11  4.54  5.06
Si -6.11 -4.54 -5.06
Si -0.82  5.05 -7.59
Si  0.82 -5.05  7.59
Si  5.33 -7.02 -2.53
Si -5.33  7.02  2.53
Si -5.83 -7.12  0.00
Si  5.83  7.12  0.00
Si -7.68  0.20 -5.06
Si  7.68 -0.20  5.06
Si  8.96 -2.37  0.00
Si -8.96  2.37  0.00
Si -1.91 -5.05  7.59
Si  1.91  5.05 -7.59
Si -5.58 -7.02 -2.53
Si  5.58  7.02  2.53
Si  3.14  4.44  7.59
Si -3.14 -4.44 -7.59
Si -8.71  2.47 -2.53
Si  8.71 -2.47  2.53
Si  0.41 -9.49  0.00
Si -0.41  9.49  0.00
Si -3.60 -7.32  5.06
Si  3.60  7.32 -5.06
Si  6.52 -4.95  5.06
Si -6.52  4.95 -5.06
Si  5.42  2.67 -7.59
Si -5.42 -2.67  7.59
Si -7.89 -2.57  5.06
Si  7.89  2.57 -5.06
Si  5.49 -2.67  7.59
Si -5.49  2.67 -7.59
Si  0.66 -9.39 -2.53
Si -0.66  9.39  2.53
Si -2.32 -9.49  0.00
Si  2.32  9.49  0.00
Si  6.08  7.22 -2.53
Si -6.08 -7.22  2.53
Si -3.55  5.05 -7.59
Si  3.55 -5.05  7.59
Si  6.20  0.30 -7.59
Si -6.20 -0.30  7.59
Si  9.21 -2.27 -2.53
Si -9.21  2.27  2.53
Si -0.16  9.59 -2.53
Si  0.16 -9.59  2.53
Si -2.07 -9.39 -2.53
Si  2.07  9.39  2.53
Si  3.13 -9.49  0.00
Si -3.13  9.49  0.00
Si -4.58  7.32 -5.06
Si  4.58 -7.32  5.06
Si  7.11  4.95 -5.06
Si -7.11 -4.95  5.06
Si -8.68 -0.20  5.06
Si  8.68  0.20 -5.06
Si  5.33  6.92  5.06
Si -5.33 -6.92 -5.06
Si -5.04  4.44  7.59
Si  5.04 -4.44 -7.59
Si -7.52  4.54  5.06
Si  7.52 -4.54 -5.06
Si  1.00  0.40 -10.11
Si -1.00 -0.40 10.11
Si -8.46  2.57 -5.06
Si  8.46 -2.57  5.06
Si  0.37 -6.82 -7.59
Si -0.37  6.82  7.59
Si  4.63  5.05 -7.59
Si -4.63 -5.05  7.59
Si -5.58  6.92  5.06
Si  5.58 -6.92 -5.06
Si  2.57  9.59 -2.53
Si -2.57 -9.59  2.53
Si  1.73 -0.40 10.11
Si -1.73  0.40 -10.11
Si -3.38  9.39  2.53
Si  3.38 -9.39 -2.53
Si  6.65  2.07  7.59
Si -6.65 -2.07 -7.59
Si  2.89 -9.59  2.53
Si -2.89  9.59 -2.53
Si -0.95 -1.97 -10.11
Si  0.95  1.97 10.11
Si 10.12  2.37  0.00
Si -10.12 -2.37  0.00
Si -9.87 -2.27 -2.53
Si  9.87  2.27  2.53
Si -1.78  1.97 10.11
Si  1.78 -1.97 -10.11
Si  2.35  6.82  7.59
Si -2.35 -6.82 -7.59
Si -9.34 -4.75  0.00
Si  9.34  4.75  0.00
Si  0.21  2.77 -10.11
Si -0.21 -2.77 10.11
Si  9.09  4.64  2.53
Si -9.09 -4.64 -2.53
Si  6.99 -2.07 -7.59
Si -6.99  2.07  7.59
Si -7.80  7.12  0.00
Si  7.80 -7.12  0.00
Si  5.87  4.44  7.59
Si -5.87 -4.44 -7.59
Si -0.91  9.29  5.06
Si  0.91 -9.29 -5.06
Si  7.43 -0.30  7.59
Si -7.43  0.30 -7.59
Si  3.10 -6.82 -7.59
Si -3.10  6.82  7.59
Si  1.12  7.42 -7.59
Si -1.12 -7.42  7.59
Si -1.82 -9.29 -5.06
Si  1.82  9.29  5.06
Si  1.60 -7.42  7.59
Si -1.60  7.42 -7.59
Si  5.04  9.49  0.00
Si -5.04 -9.49  0.00
Si -7.56  7.22 -2.53
Si  7.56 -7.22  2.53
Si  2.51 -2.77 10.11
Si -2.51  2.77 -10.11
Si  3.72  0.40 -10.11
Si -3.72 -0.40 10.11
Si -9.75  4.75  0.00
Si  9.75 -4.75  0.00
Si  4.79  9.39  2.53
Si -4.79 -9.39 -2.53
Si  2.94  2.77 -10.11
Si -2.94 -2.77 10.11
Si -10.91  0.00  0.00
Si 10.91  0.00  0.00
Si  6.33  7.32 -5.06
Si -6.33 -7.32  5.06
Si  0.09  9.69 -5.06
Si -0.09 -9.69  5.06
Si -3.67 -1.97 -10.11
Si  3.67  1.97 10.11
Si -9.46  2.17  5.06
Si  9.46 -2.17 -5.06
Si 10.66 -0.10  2.53
Si -10.66  0.10 -2.53
Si 10.37  2.47 -2.53
Si -10.37 -2.47  2.53
Si -9.50  4.84 -2.53
Si  9.50 -4.84  2.53
Si  8.05 -7.02 -2.53
Si -8.05  7.02  2.53
Si  0.16  4.34 10.11
Si -0.16 -4.34 -10.11
Si -9.59 -4.84  2.53
Si  9.59  4.84 -2.53
Si -4.46  0.40 -10.11
Si  4.46 -0.40 10.11
Si -6.27  5.05 -7.59
Si  6.27 -5.05  7.59
Si  9.62  2.17  5.06
Si -9.62 -2.17 -5.06
Si  8.55  7.12  0.00
Si -8.55 -7.12  0.00
Si  8.84  4.54  5.06
Si -8.84 -4.54 -5.06
Si  5.86 -9.49  0.00
Si -5.86  9.49  0.00
Si  8.31  7.02  2.53
Si -8.31 -7.02 -2.53
Si -3.63  9.29  5.06
Si  3.63 -9.29 -5.06
Si -5.29 -9.59  2.53
Si  5.29  9.59 -2.53
Si  2.64 -9.69  5.06
Si -2.64  9.69 -5.06
Si -4.51  1.97 10.11
Si  4.51 -1.97 -10.11
Si -3.85 -7.42  7.59
Si  3.85  7.42 -7.59
Si -2.82 -9.69  5.06
Si  2.82  9.69 -5.06
Si -2.56  4.34 10.11
Si  2.56 -4.34 -10.11
Si 10.00 -4.64 -2.53
Si -10.00  4.64  2.53
Si  0.57 -5.15 10.11
Si -0.57  5.15 -10.11
Si  2.89  4.34 10.11
Si -2.89 -4.34 -10.11
Si -5.08 -6.82 -7.59
Si  5.08  6.82  7.59
Si -5.61  9.59 -2.53
Si  5.61 -9.59  2.53
Si -11.16 -0.10  2.53
Si 11.16  0.10 -2.53
Si  8.14  2.67 -7.59
Si -8.14 -2.67  7.59
Si  4.33 -7.42  7.59
Si -4.33  7.42 -7.59
Si  6.11 -9.39 -2.53
Si -6.11  9.39  2.53
Si  8.22 -2.67  7.59
Si -8.22  2.67 -7.59
Si -4.55 -9.29 -5.06
Si  4.55  9.29  5.06
Si  7.31 -7.32  5.06
Si -7.31  7.32 -5.06
Si -2.16 -5.15 10.11
Si  2.16  5.15 -10.11
Si -10.41  0.20 -5.06
Si 10.41 -0.20  5.06
Si  9.25 -4.95  5.06
Si -9.25  4.95 -5.06
Si  8.80  7.22 -2.53
Si -8.80 -7.22  2.53
Si  7.36  5.05 -7.59
Si -7.36 -5.05  7.59
Si -8.93 -0.30  7.59
Si  8.93  0.30 -7.59
Si -5.24  2.77 -10.11
Si  5.24 -2.77 10.11
Si -7.77  4.44  7.59
Si  7.77 -4.44 -7.59
Si  5.83 -6.82 -7.59
Si -5.83  6.82  7.59
Si -8.06 -6.92 -5.06
Si  8.06  6.92  5.06
Si  3.30 -5.15 10.11
Si -3.30  5.15 -10.11
Si -5.67 -2.77 10.11
Si  5.67  2.77 -10.11
Si -1.19 11.86  0.00
Si  1.19 -11.86  0.00
Si 11.69 -2.37  0.00
Si -11.69  2.37  0.00
Si  8.30 -6.92 -5.06
Si -8.30  6.92  5.06
Si -1.53 -11.86  0.00
Si  1.53 11.86  0.00
Si  1.16 -9.19 -7.59
Si -1.16  9.19  7.59
Si -11.44  2.47 -2.53
Si 11.44 -2.47  2.53
Si  6.45  0.40 -10.11
Si -6.45 -0.40 10.11
Si  1.57  9.19  7.59
Si -1.57 -9.19 -7.59
Si 10.62  2.57 -5.06
Si -10.62 -2.57  5.06
Si -1.28 -11.76 -2.53
Si  1.28 11.76  2.53
Si  1.44 -11.76 -2.53
Si -1.44 11.76  2.53
Si -9.84 -4.95  5.06
Si  9.84  4.95 -5.06
Si  6.40  1.97 10.11
Si -6.40 -1.97 -10.11
Si -0.62  6.71 10.11
Si  0.62 -6.71 -10.11
Si -5.36  9.69 -5.06
Si  5.36 -9.69  5.06
Si  5.29 -4.34 -10.11
Si -5.29  4.34 10.11
Si -9.38 -2.07 -7.59
Si  9.38  2.07  7.59
Si  5.54  9.69 -5.06
Si -5.54 -9.69  5.06
Si  0.94 -11.96  2.53
Si -0.94 11.96 -2.53
Si  7.77  9.49  0.00
Si -7.77 -9.49  0.00
Si  8.59  4.44  7.59
Si -8.59 -4.44 -7.59
Si -7.52 -9.39 -2.53
Si  7.52  9.39  2.53
Si -10.25  4.54  5.06
Si 10.25 -4.54 -5.06
Si  2.10  6.71 10.11
Si -2.10 -6.71 -10.11
Si  6.36 -9.29 -5.06
Si -6.36  9.29  5.06
Si  4.88  5.15 -10.11
Si -4.88 -5.15 10.11
Si -1.78 -11.96  2.53
Si  1.78 11.96 -2.53
Si  5.62  4.34 10.11
Si -5.62 -4.34 -10.11
Si  0.34  9.79 -7.59
Si -0.34 -9.79  7.59
Si -7.18  0.40 -10.11
Si  7.18 -0.40 10.11
Si -11.94  2.27  2.53
Si 11.94 -2.27 -2.53
Si 11.40  0.20 -5.06
Si -11.40 -0.20  5.06
Si  6.58  7.42 -7.59
Si -6.58 -7.42  7.59
Si  3.92 -11.86  0.00
Si -3.92 11.86  0.00
Si  9.71 -2.07 -7.59
Si -9.71  2.07  7.59
Si  3.88 -9.19 -7.59
Si -3.88  9.19  7.59
Si 11.19 -2.57  5.06
