500
set: 1154.00  0.00  0.00
Si -0.05  0.02  0.04
Si  0.01  0.07  2.41
Si -0.02 -0.00 -2.41
Si -1.29  2.12  0.02
Si -1.22 -2.18 -0.05
Si  2.51 -0.01  0.03
Si  1.25  2.18 -0.01
Si  1.30 -2.21  0.00
Si -2.60  0.01 -0.09
Si -2.53 -0.01  2.31
Si  1.26 -2.11  2.40
Si  1.25  2.17 -2.41
Si  2.57  0.06 -2.35
Si -1.32 -2.23  2.33
Si -2.48 -0.01 -2.45
Si  1.37 -2.16 -2.37
Si -1.35  2.17 -2.39
Si  1.23  2.26  2.39
Si -1.26 -2.27 -2.40
Si -1.34  2.24  2.40
Si  2.59  0.07  2.43
Si -3.76  2.19  0.08
Si -0.04  4.36 -0.05
Si  3.81  2.18 -0.05
Si  3.85 -2.13 -0.02
Si  0.04 -4.41  0.03
Si -3.78 -2.29 -0.02
Si -0.13  0.01  4.74
Si -0.13  0.01 -4.84
Si  3.80 -2.08  2.34
Si  0.01 -4.41 -2.34
Si -3.77 -2.23 -2.42
Si  3.81  2.20 -2.37
Si -0.04  4.41 -2.40
Si -3.83 -2.21  2.39
Si  3.87 -2.14 -2.40
Si  2.50  4.37  0.03
Si -5.04  0.05  0.01
Si -3.89  2.20 -2.35
Si  3.88  2.21  2.35
Si  0.00  4.45  2.39
Si  0.10 -4.43  2.44
Si -3.85  2.22  2.45
Si -2.52  4.41 -0.02
Si  2.61 -4.37 -0.02
Si -2.55 -4.42  0.03
Si  5.14  0.05  0.01
Si  2.48 -0.00 -4.76
Si  1.27 -2.15 -4.75
Si  1.22  2.16  4.78
Si  1.22  2.16 -4.79
Si -1.26 -2.26  4.74
Si -1.36  2.16  4.77
Si  2.48 -0.00  4.82
Si -2.59 -0.07  4.76
Si  1.27 -2.15  4.82
Si -1.36  2.16 -4.80
Si -2.59 -0.07 -4.81
Si -1.26 -2.26 -4.84
Si -4.98 -0.04 -2.42
Si  2.51  4.37 -2.35
Si -5.06 -0.02  2.41
Si -2.59  4.36 -2.38
Si -2.54 -4.41 -2.35
Si  2.66 -4.32  2.41
Si  2.60  4.34  2.45
Si  2.54 -4.42 -2.38
Si -2.45 -4.44  2.45
Si -2.47  4.47  2.41
Si  5.12 -0.02  2.41
Si  5.19 -0.04 -2.42
Si -0.02  4.31  4.78
Si -0.02  4.31 -4.79
Si -3.81  2.17 -4.75
Si  0.09 -4.40 -4.74
Si  3.80 -2.19 -4.77
Si  3.80 -2.19  4.80
Si  3.84  2.27  4.76
Si -3.81  2.17  4.83
Si  0.09 -4.40  4.83
Si -3.89 -2.24  4.75
Si  3.84  2.27 -4.82
Si -3.89 -2.24 -4.82
Si  1.27  6.50 -0.02
Si -6.33 -2.13 -0.02
Si -5.08  4.37  0.03
Si  5.09  4.37  0.03
Si -1.24 -6.61 -0.05
Si -6.37  2.18 -0.05
Si  1.37 -6.59  0.08
Si  5.09 -4.42 -0.05
Si -5.09 -4.42 -0.05
Si -1.28  6.65 -0.02
Si  6.42  2.19  0.08
Si  6.40 -2.29 -0.02
Si  2.47  4.37 -4.76
Si  5.05  0.02 -4.74
Si  2.47  4.37  4.81
Si  2.54 -4.41  4.75
Si -2.59  4.38  4.75
Si -5.12  0.02 -4.74
Si -2.58 -4.42 -4.76
Si  5.05  0.02  4.83
Si  2.54 -4.41 -4.82
Si -2.59  4.38 -4.82
Si -2.58 -4.42  4.81
Si -5.12  0.02  4.83
Si  6.29  2.20 -2.35
Si -5.05 -4.33  2.39
Si -6.29  2.21  2.35
Si -6.30 -2.14 -2.40
Si -1.17 -6.58  2.35
Si -5.03  4.36  2.44
Si  5.06  4.37 -2.34
Si -6.37 -2.08  2.34
Si  1.24 -6.59 -2.35
Si -1.23 -6.58 -2.37
Si  1.22  6.58  2.39
Si  1.28  6.56 -2.42
Si -5.11  4.37 -2.34
Si  5.13 -4.33  2.39
Si  1.28 -6.57  2.45
Si  5.08 -4.38 -2.40
Si -5.09 -4.38 -2.40
Si  6.35 -2.21  2.39
Si -6.36  2.20 -2.37
Si  6.33  2.22  2.45
Si -0.02 -0.00  7.16
Si  0.01  0.07 -7.17
Si  5.15  4.36  2.44
Si -1.25  6.65 -2.40
Si  6.41 -2.23 -2.42
Si -1.32  6.71  2.34
Si -2.48 -0.01  7.12
Si  7.58  0.01 -0.09
Si  1.26 -2.11 -7.18
Si  1.25  2.17  7.17
Si  2.59  0.07 -7.14
Si -3.83  6.58  0.00
Si -3.80 -6.61 -0.01
Si -1.35  2.17  7.18
Si -1.26 -2.27  7.17
Si  1.23  2.26 -7.18
Si -1.34  2.24 -7.17
Si  3.83  6.60 -0.05
Si  1.37 -2.16  7.20
Si  2.57  0.06  7.22
Si -7.67 -0.01  0.03
Si  3.83 -6.66  0.02
Si -2.53 -0.01 -7.26
Si -1.32 -2.23 -7.24
Si  3.73  6.56  2.33
Si  3.79  6.52 -2.40
Si -3.81 -6.53  2.39
Si  3.79 -6.55  2.40
Si -7.61  0.06 -2.35
Si -7.59  0.07  2.43
Si -3.76  6.63 -2.37
Si  3.78 -6.61 -2.39
Si  7.65 -0.01  2.31
Si -3.80 -6.62 -2.41
Si -3.87  6.67  2.40
Si  7.70 -0.01 -2.45
Si -1.21 -6.52  4.76
Si  1.16  6.55  4.75
Si  6.28 -2.24  4.75
Si -5.04  4.39 -4.74
Si -1.21 -6.52 -4.82
Si  1.16  6.55 -4.82
Si  6.28 -2.24 -4.82
Si  6.37  2.17 -4.75
Si -5.04  4.39  4.83
Si -6.34  2.27  4.76
Si  1.32 -6.62 -4.75
Si -1.33  6.60 -4.77
Si  5.14  4.39 -4.74
Si -6.38 -2.19 -4.77
Si -1.33  6.60  4.80
Si -6.38 -2.19  4.80
Si -6.34  2.27 -4.82
Si -5.07 -4.48  4.78
Si  6.37  2.17  4.83
Si -5.07 -4.48 -4.79
Si  1.32 -6.62  4.83
Si  5.11 -4.48  4.78
Si  5.14  4.39  4.83
Si  5.11 -4.48 -4.79
Si -3.77 -2.23  7.15
Si -3.85  2.22 -7.12
Si  0.10 -4.43 -7.14
Si -0.04  4.41  7.17
Si  3.80 -2.08 -7.23
Si -3.83 -2.21 -7.18
Si  3.87 -2.14  7.18
Si  3.81  2.20  7.21
Si  0.00  4.45 -7.19
Si  0.01 -4.41  7.23
Si  3.88  2.21 -7.23
Si -3.89  2.20  7.23
Si -4.98 -0.04  7.16
Si  0.09 -8.74  0.01
Si -7.57 -4.37 -0.02
Si  2.60  4.34 -7.12
Si -2.45 -4.44 -7.12
Si -5.06 -0.02 -7.17
Si  2.66 -4.32 -7.16
Si -2.47  4.47 -7.16
Si -2.59  4.36  7.19
Si  2.51  4.37  7.22
Si  5.12 -0.02 -7.17
Si  7.63 -4.42  0.03
Si  2.54 -4.42  7.19
Si -7.67  4.37  0.03
Si -2.54 -4.41  7.22
Si  0.01  8.84  0.01
Si  7.66  4.41 -0.02
Si  5.19 -0.04  7.16
Si  3.79  6.52  4.74
Si  7.59 -0.07  4.76
Si  3.79  6.52 -4.84
Si  7.59 -0.07 -4.81
Si  3.77 -6.62  4.77
Si -7.51 -4.32  2.41
Si  3.77 -6.62 -4.80
Si -3.83 -6.62  4.78
Si -3.83 -6.62 -4.79
Si -3.85  6.64 -4.75
Si -7.69 -0.00 -4.76
Si -3.85  6.64  4.82
Si -7.58  4.34  2.45
Si  0.07  8.74 -2.42
Si  7.59  4.36 -2.38
Si -7.69 -0.00  4.82
Si -0.01  8.76  2.41
Si  2.45  8.79 -0.09
Si  7.64 -4.41 -2.35
Si  0.07 -8.81  2.41
Si  8.88  2.12  0.02
Si -7.67  4.37 -2.35
Si  2.53 -8.78 -0.09
Si -7.64 -4.42 -2.38
Si  6.35  6.58  0.00
Si -8.88 -2.21  0.00
Si -2.54 -8.79  0.03
Si  0.14 -8.83 -2.42
Si -6.35  6.60 -0.05
Si -2.62  8.78  0.03
Si  6.38 -6.61 -0.01
Si -8.93  2.18 -0.01
Si -6.34 -6.66  0.02
Si  8.95 -2.18 -0.05
Si  7.71  4.47  2.41
Si  7.73 -4.44  2.45
Si -8.80 -2.16 -2.37
Si -2.48 -8.73 -2.35
Si -2.46 -8.72  2.43
Si  8.83  2.17 -2.39
Si  2.52  8.78  2.31
Si  6.36 -6.53  2.39
Si  8.86 -2.23  2.33
Si  8.84  2.24  2.40
Si -6.38  6.52 -2.40
Si  2.60 -8.79  2.31
Si -6.39 -6.55  2.40
Si  2.57  8.78 -2.45
Si -8.92 -2.11  2.40
Si -6.45  6.56  2.33
Si  6.31  6.67  2.40
Si  6.37 -6.62 -2.41
Si -8.93  2.17 -2.41
Si -2.56  8.84 -2.35
Si -6.39 -6.61 -2.39
Si  2.65 -8.79 -2.45
Si  8.92 -2.27 -2.40
Si  6.42  6.63 -2.37
Si -2.54  8.85  2.43
Si -8.94  2.26  2.39
Si -0.05  0.02 -9.54
Si -0.05  0.02  9.61
Si -5.03  4.35 -7.14
Si  1.28 -6.57 -7.12
Si  6.33  2.22 -7.12
Si -6.30 -2.14  7.18
Si  1.28  6.56  7.15
Si -5.05 -4.33 -7.19
Si  1.22  6.58 -7.18
Si  5.15  4.35 -7.14
Si  5.08 -4.38  7.17
Si -5.09 -4.38  7.17
Si  6.29  2.20  7.23
Si -6.29  2.21 -7.23
Si  5.13 -4.33 -7.19
Si  6.35 -2.21 -7.18
Si -2.60  0.01  9.49
Si -1.23 -6.58  7.21
Si -1.17 -6.58 -7.23
Si -1.22 -2.18  9.53
Si  5.06  4.37  7.23
Si  6.41 -2.23  7.15
Si -6.37 -2.08 -7.23
Si  1.24 -6.59  7.23
Si -6.36  2.20  7.21
Si -1.25  6.65  7.18
Si  2.51 -0.01 -9.55
Si -1.29  2.12 -9.55
Si -5.11  4.37  7.23
Si  1.25  2.18  9.57
Si  1.25  2.18 -9.58
Si  1.30 -2.21 -9.57
Si -1.29  2.12  9.59
Si  1.30 -2.21  9.58
Si  2.51 -0.01  9.60
Si -1.22 -2.18 -9.62
Si -1.32  6.71 -7.23
Si  0.01 -8.77 -4.74
Si  7.59  4.38  4.75
Si  7.59 -4.42 -4.76
Si  7.59  4.38 -4.82
Si -0.07  8.81 -4.74
Si -2.60  0.01 -9.66
Si  0.01 -8.77  4.83
Si -7.64 -4.41  4.75
Si  7.59 -4.42  4.81
Si -0.07  8.81  4.83
Si -7.64 -4.41 -4.82
Si -7.71  4.37 -4.76
Si -7.71  4.37  4.81
Si 10.12  0.02  0.04
Si  5.00  8.81  0.04
Si  5.07 -8.77  0.04
Si -5.10 -8.77  0.04
Si -5.18  8.81  0.04
Si -10.23  0.02  0.04
Si  2.46  8.72  4.76
Si  2.46  8.71 -4.81
Si  8.82  2.16  4.77
Si  8.82  2.16 -4.80
Si -6.39  6.52  4.74
Si -2.56 -8.79 -4.76
Si -8.90 -2.15 -4.75
Si  6.32  6.64 -4.75
Si -6.39  6.52 -4.84
Si -2.64  8.79 -4.76
Si -2.56 -8.79  4.82
Si  8.91 -2.26  4.74
Si  6.35 -6.62  4.78
Si -5.04 -8.71  2.41
Si -8.90 -2.15  4.82
Si  6.35 -6.62 -4.79
Si  6.32  6.64  4.82
Si -2.64  8.79  4.82
Si  2.54 -8.86  4.76
Si -6.41 -6.62  4.77
Si -8.95  2.16  4.78
Si -8.95  2.16 -4.79
Si  8.91 -2.26 -4.84
Si -6.41 -6.62 -4.80
Si  2.54 -8.86 -4.81
Si  5.13 -8.71  2.41
Si  5.03  8.78 -2.41
Si  3.79  6.52  7.17
Si -7.59  0.07 -7.14
Si  3.79 -6.55 -7.17
Si -5.07 -8.79 -2.41
Si -3.81 -6.53 -7.18
Si 10.16 -0.00 -2.41
Si -3.76  2.19 -9.50
Si  5.11 -8.79 -2.41
Si -10.17  0.07  2.41
Si  3.73  6.56 -7.24
Si -5.14  8.78 -2.41
Si 10.18  0.07  2.41
Si  3.78 -6.61  7.18
Si -3.80 -6.62  7.17
Si -0.04  4.36  9.52
Si -10.19 -0.00 -2.41
Si -3.76  6.63  7.20
Si  5.06  8.86  2.41
Si  7.70 -0.01  7.12
Si  3.81  2.18  9.53
Si -7.61  0.06  7.22
Si -5.12  8.86  2.41
Si  0.04 -4.41 -9.54
Si  3.85 -2.13  9.56
Si -3.78 -2.29  9.55
Si -3.87  6.67 -7.18
Si  7.65 -0.01 -7.26
Si  3.85 -2.13 -9.59
Si -3.78 -2.29 -9.59
Si -0.04  4.36 -9.62
Si  0.04 -4.41  9.60
Si  3.81  2.18 -9.62
Si -3.76  2.19  9.65
Si  2.50  4.37 -9.54
Si -5.04  0.05 -9.57
Si -2.55 -4.42 -9.54
Si -5.04  0.05  9.58
Si -2.52  4.41  9.56
Si  2.61 -4.37  9.56
Si  2.50  4.37  9.60
Si -2.52  4.41 -9.59
Si  2.61 -4.37 -9.59
Si  5.14  0.05 -9.57
Si  5.14  0.05  9.58
Si -2.55 -4.42  9.60
Si -1.20 -10.92 -0.02
Si -8.81 -6.59  0.08
Si -8.91  6.50 -0.02
Si 10.13  4.36 -0.05
Si -1.32 10.97 -0.05
Si -10.13 -4.41  0.03
Si  1.29 10.98  0.08
Si 10.05  0.01  4.74
Si -10.22  4.36 -0.05
Si  8.90  6.65 -0.02
Si  8.94 -6.61 -0.05
Si 10.22 -4.41  0.03
Si  4.92  8.79  4.74
Si 10.05  0.01 -4.84
Si  1.35 -11.07 -0.02
Si  5.00 -8.78  4.74
Si  4.92  8.79 -4.84
Si -1.25 -10.86  2.34
Si  5.00 -8.78 -4.84
Si -5.18 -8.78  4.74
Si -7.51 -4.32 -7.16
Si -1.18 -10.93 -2.40
Si -7.58  4.34 -7.12
Si -10.07 -4.43  2.44
Si -5.18 -8.78 -4.84
Si -5.25  8.79  4.74
Si  1.16 10.98 -2.35
Si  0.07  8.74  7.16
Si 10.13  4.41 -2.40
Si -1.24 11.00  2.35
Si -8.89  6.56 -2.42
Si -1.31 10.99 -2.37
Si -0.01  8.76 -7.17
Si -10.16 -4.41 -2.34
Si  1.30 -10.99  2.39
Si -8.90 -6.57  2.45
Si -5.25  8.79 -4.84
Si  7.59  4.36  7.19
Si  1.20 11.00  2.45
Si -10.30  0.01  4.74
Si 10.19 -4.41 -2.34
Si -8.94 -6.59 -2.35
Si  8.85  6.71  2.34
Si  8.94 -6.58 -2.37
Si  1.36 -11.01 -2.42
Si  0.07 -8.81 -7.17
Si -10.17  4.45  2.39
Si 10.18  4.45  2.39
Si  0.14 -8.83  7.16
Si -8.96  6.58  2.39
Si  8.92  6.65 -2.40
Si -10.30  0.01 -4.84
Si -10.22  4.41 -2.40
Si -7.64 -4.42  7.19
Si  7.64 -4.41  7.22
Si  9.01 -6.58  2.35
Si -7.67  4.37  7.22
Si  7.73 -4.44 -7.12
Si  7.71  4.47 -7.16
Si 10.28 -4.43  2.44
Si -2.46 -8.72 -7.14
Si  3.76 10.91  0.02
Si -8.80 -2.16  7.20
Si  7.56  8.78  0.03
Si  8.83  2.17  7.18
Si  2.57  8.78  7.12
Si  8.84  2.24 -7.17
Si -2.48 -8.73  7.22
Si  6.36 -6.53 -7.18
Si -11.40 -2.18 -0.05
Si -6.38  6.52  7.17
Si -3.75 -10.99  0.00
Si  2.65 -8.79  7.12
Si  1.27  6.50  9.55
Si -6.39 -6.55 -7.17
Si -3.88 10.96 -0.01
Si 11.43  2.18 -0.01
Si -8.92 -2.11 -7.18
Si  1.37 -6.59 -9.50
Si  7.63 -8.79  0.03
Si  3.90 -10.97 -0.05
Si -7.65 -8.78 -0.09
Si  6.37 -6.62  7.17
Si -8.93  2.17  7.17
Si  6.31  6.67 -7.18
Si -2.54  8.85 -7.14
Si  8.86 -2.23 -7.24
Si  1.27  6.50 -9.59
Si -6.33 -2.13  9.56
Si -1.24 -6.61  9.53
Si -5.08  4.37 -9.54
Si -11.47  2.12  0.02
Si -6.37  2.18  9.53
Si  5.09 -4.42  9.52
Si  5.09  4.37 -9.54
