500
set: 1331.00  0.00  0.00
Si  0.60 -1.04 -1.36
Si -0.17 -2.39  0.34
Si -0.53  1.22 -2.04
Si -0.82 -1.31  2.13
Si  0.46  2.88  0.34
Si -1.67  2.48 -0.43
Si  2.75  1.23  0.30
Si  2.95 -0.54 -1.11
Si  1.30 -0.91  2.90
Si -2.29 -2.79 -0.43
Si -3.43 -0.54 -1.11
Si -3.11  0.34  2.16
Si -3.63  1.23  0.30
Si  3.26  0.34  2.16
Si -2.66  0.81 -2.80
Si  1.43  2.46 -2.77
Si  0.81 -2.80 -2.77
Si -0.20  3.96  2.13
Si  0.17  0.36  4.51
Si  2.13 -4.04  0.30
Si  1.22  4.23 -1.36
Si -1.15 -4.05 -2.04
Si  3.72  0.81 -2.80
Si -0.97  2.61  3.83
Si -1.59 -2.66  3.83
Si  4.09 -2.79 -0.43
Si -2.00 -0.27 -4.60
Si  0.29 -1.92 -4.64
Si  3.06  2.11  3.58
Si -3.31  2.11  3.58
Si  4.71  2.48 -0.43
Si  2.44 -3.16  3.58
Si  1.92  4.36  2.90
Si -1.79 -0.89  5.24
Si -2.81  4.73 -1.11
Si  0.91  3.35 -4.64
Si  2.29  0.76  5.28
Si  2.25 -0.67 -5.37
Si -4.25 -4.04  0.30
Si -5.07 -0.91  2.90
Si  2.64 -4.92  2.16
Si -5.77 -1.04 -1.36
Si  3.56  4.73 -1.11
Si  5.56 -1.31  2.13
Si  3.10 -4.45 -2.80
Si -3.94 -3.16  3.58
Si -4.95  2.46 -2.77
Si -3.28 -4.45 -2.80
Si  5.84  1.22 -2.04
Si  1.11  1.58 -6.04
Si  4.37 -0.27 -4.60
Si  2.33 -5.81 -1.11
Si -0.02 -6.30 -1.36
Si -2.49  5.61  2.16
Si -1.24  1.08 -6.30
Si -3.73 -4.92  2.16
Si -5.92  2.88  0.34
Si  6.21 -2.39  0.34
Si -0.45 -4.91  4.51
Si  4.78 -2.66  3.83
Si -4.08  0.76  5.28
Si  0.09  6.48 -2.04
Si -4.13 -0.67 -5.37
Si -5.15  4.23 -1.36
Si -5.57 -2.80 -2.77
Si  0.69 -6.17  2.90
Si -4.45  4.36  2.90
Si  5.22 -4.05 -2.04
Si -1.17  4.38  5.24
Si -1.38  5.00 -4.60
Si -6.54 -2.39  0.34
Si -2.04  6.08 -2.80
Si  4.59 -0.89  5.24
Si -1.44 -6.58  2.13
Si  0.49 -3.68 -6.04
Si  5.40  2.61  3.83
Si  1.67 -4.51  5.28
Si  3.88  5.61  2.16
Si -4.05 -5.81 -1.11
Si -3.01  6.50  0.30
Si  6.98 -1.04 -1.36
Si  0.79  5.63  4.51
Si -6.91  1.22 -2.04
Si  3.37  6.50  0.30
Si  6.83  2.88  0.34
Si -1.27 -1.78  7.10
Si  1.64  1.84  7.07
Si -7.19 -1.31  2.13
Si  2.87  4.60 -5.37
Si  6.18  3.96  2.13
Si -2.62 -5.53 -4.60
Si -6.20  0.36  4.51
Si -0.79 -7.65  0.34
Si -1.86 -4.18 -6.30
Si -1.03 -0.68 -7.71
Si -1.05  7.75 -0.43
Si -2.99 -1.93 -6.98
Si -6.08 -1.92 -4.64
Si -3.51  4.60 -5.37
Si -5.46  3.35 -4.64
Si  1.02 -3.43  7.07
Si -0.65  3.49  7.10
Si  6.54  0.36  4.51
Si -6.57  3.96  2.13
Si  4.34  6.08 -2.80
Si  3.38 -1.93 -6.98
Si -2.37  3.34 -6.98
Si  3.75 -5.53 -4.60
Si  1.63 -5.93 -5.37
Si -5.27  1.58 -6.04
Si  1.26 -2.33 -7.74
Si  7.18 -2.80 -2.77
Si  5.14  1.08 -6.30
Si  1.07  8.15  0.34
Si  7.68 -0.91  2.90
Si  6.66 -1.92 -4.64
Si -4.70 -4.51  5.28
Si -8.04  2.48 -0.43
Si  4.99  5.00 -4.60
Si -2.41 -6.16  5.24
Si  2.05  7.73 -2.77
Si  1.88  2.93 -7.74
Si  4.94 -6.58  2.13
Si  2.91  6.03  5.28
Si  0.19 -8.07 -2.77
Si -0.33 -7.18 -4.64
Si -2.61  2.24  7.83
Si -2.91 -8.05 -0.43
Si  5.21  4.38  5.24
Si -2.69  7.38  3.58
Si  7.80  2.46 -2.77
Si -1.48 -0.01  8.51
Si -7.34  2.61  3.83
Si -4.73  1.84  7.07
Si  4.00  3.34 -6.98
Si -3.46  6.03  5.28
Si -0.35  7.88  3.83
Si  3.47 -8.05 -0.43
Si -7.53 -4.05 -2.04
Si  7.60  4.23 -1.36
Si  4.52 -4.18 -6.30
Si  0.87  0.49  8.77
Si -5.69 -6.17  2.90
Si  5.92 -4.91  4.51
Si  5.10 -1.78  7.10
Si  3.14 -3.03  7.83
Si -0.62  6.35 -6.30
Si  3.76  2.24  7.83
Si -0.41  4.59 -7.71
Si  3.68  7.38  3.58
Si -3.23 -3.03  7.83
Si  3.97 -6.16  5.24
Si  6.36 -6.30 -1.36
Si -2.21 -7.93  3.83
Si -6.39 -6.30 -1.36
Si -8.66 -2.79 -0.43
Si -5.58  5.63  4.51
Si -5.89 -3.68 -6.04
Si  9.12  1.23  0.30
Si -7.96 -2.66  3.83
Si -6.29  6.48 -2.04
Si  7.28  3.35 -4.64
Si -4.33  7.73 -2.77
Si  1.73  6.85 -6.04
Si -4.75 -5.93 -5.37
Si  1.82 -8.43  3.58
Si  6.46  6.48 -2.04
Si  9.32 -0.54 -1.11
Si  5.34 -0.68 -7.71
Si  5.33  7.75 -0.43
Si  8.50 -4.04  0.30
Si -4.49  2.93 -7.74
Si  1.51 -9.30  0.30
Si  0.42  9.23  2.13
Si  5.59 -7.65  0.34
Si -9.03  0.81 -2.80
Si -5.35 -3.43  7.07
Si -6.82 -4.91  4.51
Si -8.38 -0.27 -4.60
Si -5.11 -2.33 -7.74
Si -1.55  0.21 -9.57
Si -1.77 -9.32 -2.04
Si -5.30  8.15  0.34
Si -9.48  0.34  2.16
Si  4.16 -7.93  3.83
Si -8.16 -0.89  5.24
Si  7.48  1.58 -6.04
Si  5.72  3.49  7.10
Si  1.84  9.50 -1.36
Si  8.30  4.36  2.90
Si  7.06 -6.17  2.90
Si  2.01 -1.76  9.45
Si  4.90 -0.01  8.51
Si  6.86 -3.68 -6.04
Si -1.65 -5.95 -7.71
Si -9.80 -0.54 -1.11
Si  9.64  0.34  2.16
Si  1.53  8.62 -4.64
Si -7.61  1.08 -6.30
Si  0.25 -4.78  8.77
Si  8.81 -3.16  3.58
Si  2.53  1.86 -9.53
Si -0.86  5.25  8.51
Si -10.00  1.23  0.30
Si  7.17  5.63  4.51
Si -7.54  4.38  5.24
Si  8.67  0.76  5.28
Si  8.62 -0.67 -5.37
Si -1.89 -7.05  7.10
Si -4.55 -8.43  3.58
Si -2.10 -5.28  8.51
Si -4.65  6.85 -6.04
Si  2.26  7.10  7.07
Si -2.19 10.00 -1.11
Si  1.91 -3.41 -9.53
Si  9.43  2.11  3.58
Si -7.76  5.00 -4.60
Si -5.51  0.49  8.77
Si  2.54  9.63  2.90
Si -9.18  4.73 -1.11
Si  2.76 -7.20 -6.98
Si  2.63  3.50  9.45
Si  0.41  1.46 -10.30
Si  2.48 -9.72 -2.80
Si -7.81 -6.58  2.13
Si  0.67  2.25 10.18
Si -3.84  1.86 -9.53
Si  6.04 -7.18 -4.64
Si -7.16 -7.65  0.34
Si  9.02 -4.92  2.16
Si -4.87 -9.30  0.30
Si 10.09  0.81 -2.80
Si  8.70 -5.81 -1.11
Si -6.19 -8.07 -2.77
Si -9.69  2.11  3.58
Si -2.24 -1.36 10.21
Si -4.37 -1.76  9.45
Si -7.03  3.49  7.10
Si -7.65 -1.78  7.10
Si  4.60 -9.32 -2.04
Si  1.49  5.75  8.77
Si  0.05 -3.01 10.18
Si -4.53  9.50 -1.36
Si  2.02 -10.19  2.16
Si  8.05 -4.51  5.28
Si  6.02  7.88  3.83
Si  5.76  6.35 -6.30
Si -3.61 -7.20 -6.98
Si -8.87  5.61  2.16
Si -7.41 -0.68 -7.71
Si  4.83  0.21 -9.57
Si -7.42  7.75 -0.43
Si -3.75  3.50  9.45
Si -8.41  6.08 -2.80
Si -3.83  9.63  2.90
Si  6.56 -8.07 -2.77
Si  5.96  4.59 -7.71
Si  7.40 -3.43  7.07
Si -0.13 -8.95 -6.04
Si  4.72 -5.95 -7.71
Si -4.11  7.10  7.07
Si 10.46 -2.79 -0.43
Si  9.47 -4.45 -2.80
Si -3.90 -9.72 -2.80
Si  8.02  1.84  7.07
Si -6.71 -7.18 -4.64
Si  0.64 -7.60 -7.74
Si  4.28 -5.28  8.51
Si  4.18 10.00 -1.11
Si -4.84  8.62 -4.64
Si  4.48 -7.05  7.10
Si -0.21 -3.81 -10.30
Si -0.55  9.64  5.24
Si -9.65 -4.45 -2.80
Si -1.99  7.51  7.83
Si -6.73  7.88  3.83
Si -2.17 -5.06 -9.57
Si  7.45  8.15  0.34
Si -1.62  3.90 10.21
Si  9.94  4.73 -1.11
Si -4.46 -3.41 -9.53
Si -0.93  5.47 -9.57
Si  4.13 -1.36 10.21
Si  7.63 -2.33 -7.74
Si  1.05 -9.78  5.28
Si -1.35 -1.56 -10.98
Si -8.23 -4.18 -6.30
Si -1.07 -10.18  4.51
Si -5.95  9.23  2.13
Si  0.40 -8.70  7.07
Si -1.75  8.61 -6.98
Si -1.87 10.88  2.16
Si -6.79  4.59 -7.71
Si  1.71 -11.07 -1.11
Si -0.03  8.76  7.10
Si -0.76 10.27 -4.60
Si -4.35 -10.19  2.16
Si  8.00 -5.93 -5.37
Si -6.99  6.35 -6.30
Si -10.31 -3.16  3.58
Si 11.08  2.48 -0.43
Si -10.62 -4.04  0.30
Si  7.24  0.49  8.77
Si -9.38  6.50  0.30
Si  5.52  5.25  8.51
Si -10.11 -4.92  2.16
Si -9.00 -5.53 -4.60
Si  2.50  8.20 -7.74
Si -4.89  5.75  8.77
Si -7.85 -0.01  8.51
Si -2.89  9.87 -5.37
Si -0.73  3.71 -10.98
Si  4.21 -5.06 -9.57
Si -2.48 -9.45 -6.30
Si  9.24  4.60 -5.37
Si  6.80  9.23  2.13
Si -0.64 -11.57 -1.36
Si -8.75  3.34 -6.98
Si  2.52 -8.29  7.83
Si 10.75 -0.27 -4.60
Si  8.26  2.93 -7.74
Si  4.38  7.51  7.83
Si  9.74  6.50  0.30
Si -6.13 -4.78  8.77
Si  2.68 -2.06 -11.23
Si -10.46  0.76  5.28
Si  3.49  9.87 -5.37
Si  8.42  7.73 -2.77
Si -1.42 11.35 -2.80
Si  0.07 -11.44  2.90
Si -10.50 -0.67 -5.37
Si -9.37 -1.93 -6.98
Si -11.45 -0.91  2.90
Si  1.39 -7.03  9.45
Si  1.41 10.89  4.51
Si -5.71  2.25 10.18
Si 10.26  5.61  2.16
Si -11.32  2.46 -2.77
Si  4.75  3.90 10.21
Si -3.87  8.20 -7.74
Si -8.78 -6.16  5.24
Si  0.71 11.75 -2.04
Si  4.50 10.88  2.16
Si -10.42 -5.81 -1.11
Si  6.62 -4.78  8.77
Si -5.96  1.46 -10.30
Si  4.62  8.61 -6.98
Si -3.69 -2.06 -11.23
Si  3.90 -9.45 -6.30
Si -2.39 11.77  0.30
Si  1.54  0.19 -11.91
Si -10.82  4.36  2.90
Si -3.85 -8.29  7.83
Si -4.67 -11.07 -1.11
Si -3.08  3.21 -11.23
Si 11.16 -2.66  3.83
Si -8.99  2.24  7.83
Si  3.30  3.21 -11.23
Si  3.13 -10.80 -4.60
Si -9.88  4.60 -5.37
Si  9.76 -1.93 -6.98
Si  1.19  1.37 12.04
Si  5.02 -1.56 -10.98
Si -3.24 -10.80 -4.60
Si 10.96 -0.89  5.24
Si 11.93 -1.31  2.13
Si  7.88 -9.30  0.30
Si -2.06 -11.84  2.13
Si  8.10  6.85 -6.04
Si -9.07  7.38  3.58
Si  9.29  6.03  5.28
Si -12.15 -1.04 -1.36
Si -5.73 -7.60 -7.74
Si  8.19 -8.43  3.58
Si -9.28 -8.05 -0.43
Si -8.59 -7.93  3.83
Si  5.45  5.47 -9.57
Si  3.15  7.12 -9.53
Si -5.32 -9.78  5.28
Si  5.30 -10.18  4.51
Si -3.22  7.12 -9.53
Si -7.23  5.25  8.51
Si  1.03  6.72 -10.30
Si -6.33 -3.01 10.18
Si -2.90 -0.28 12.01
Si -11.53  4.23 -1.36
Si  6.42 -3.01 10.18
Si 10.13 -5.53 -4.60
Si  6.79  1.46 -10.30
Si  5.83  9.64  5.24
Si  3.99 11.77  0.30
Si -7.92  0.21 -9.57
Si 12.21  1.22 -2.04
Si 11.60 -4.05 -2.04
Si  1.01 -11.20 -5.37
Si  6.24 -8.95 -6.04
Si  3.48 -0.28 12.01
Si -2.86 -6.63 10.21
Si  0.21  9.85 -7.71
Si -8.15 -9.32 -2.04
Si  5.61 10.27 -4.60
Si -11.94 -2.80 -2.77
Si  7.04  2.25 10.18
Si  7.90  8.62 -4.64
Si  6.17 -3.81 -10.30
Si -6.51 -8.95 -6.04
Si -8.03 -5.95 -7.71
Si  8.22  9.50 -1.36
Si -12.29  2.88  0.34
Si 10.71  6.08 -2.80
Si 11.78  2.61  3.83
Si  0.57 -3.90 12.04
Si  3.51 -6.63 10.21
Si -9.84  6.03  5.28
Si  9.52 -3.03  7.83
Si -0.58 -0.21 -12.68
Si  4.96 11.35 -2.80
Si -5.97 -8.70  7.07
Si  1.29  7.52 10.18
Si  9.84 -8.05 -0.43
Si  8.38 -1.76  9.45
Si -9.61 -3.03  7.83
Si  4.32 -11.84  2.13
Si -2.84 11.29  5.28
Si -4.99 -7.03  9.45
Si -4.96 10.89  4.51
Si -0.77  0.12 12.77
Si -6.58 -3.81 -10.30
Si 12.58 -2.39  0.34
Si -4.83  0.19 -11.91
Si  5.64  3.71 -10.98
Si  7.01 -7.60 -7.74
Si -3.03 -11.43  5.24
Si  6.34  8.76  7.10
Si 10.38  3.34 -6.98
Si  3.53 11.29  5.28
Si  1.29 -8.68 -9.53
Si -6.41  8.76  7.10
Si 10.05  7.38  3.58
Si -6.92  9.64  5.24
Si -8.27 -7.05  7.10
Si  0.92 -5.08 -11.91
Si  5.74 -11.57 -1.36
Si -1.41 -12.92  0.34
Si 10.14  2.24  7.83
Si  3.35 -11.43  5.24
Si -0.43 13.02 -0.43
Si -2.87  1.44 -12.65
Si -11.08 -4.51  5.28
Si -1.97 -6.83 -10.98
Si  8.29 -3.41 -9.53
Si  6.78 -8.70  7.07
Si  7.86  5.75  8.77
Si -8.47 -5.28  8.51
Si 10.34 -6.16  5.24
Si -0.57 -8.28 10.18
Si -12.91 -2.39  0.34
Si -11.84  3.35 -4.64
Si 11.51  1.08 -6.30
Si  8.91  1.86 -9.53
Si -5.19  1.37 12.04
Si -2.28  4.98 12.01
Si  3.50  1.44 -12.65
Si -5.67 11.75 -2.04
Si -8.56 10.00 -1.11
Si -11.64  1.58 -6.04
Si  0.00 11.62 -6.30
Si -7.30  5.47 -9.57
Si  8.63  7.10  7.07
Si 11.37  5.00 -4.60
Si 11.31 -6.58  2.13
Si 10.89 -4.18 -6.30
Si -3.13  8.77  9.45
Si  2.16  5.46 -11.91
Si  3.25  8.77  9.45
Si -11.11  1.84  7.07
Si -2.08 12.64  3.58
Si -0.95 -12.45 -4.64
Si -7.14 10.27 -4.60
Si 12.55  3.96  2.13
Si -0.37 -10.05  8.77
Si  7.43 -9.78  5.28
Si -12.58  0.36  4.51
Si -6.31 -11.44  2.90
Si  8.40 -10.19  2.16
Si -7.44 -10.18  4.51
Si -5.34  6.72 -10.30
Si -12.46 -1.92 -4.64
Si -8.62 -1.36 10.21
Si  8.92  9.63  2.90
Si 11.58  4.38  5.24
Si  6.44 -11.44  2.90
Si  8.85 -9.72 -2.80
Si 13.35 -1.04 -1.36
Si -10.70  7.73 -2.77
Si -13.28  1.22 -2.04
Si  9.00  3.50  9.45
Si -7.73 -1.56 -10.98
Si 13.20  2.88  0.34
Si  2.88 -3.83 -12.65
