500
set: 656.00  0.00  0.00
Si  1.29  0.60  0.84
Si -1.29 -0.60 -0.84
Si  0.14 -1.98  0.84
Si -0.14  1.98 -0.84
Si -2.01  0.60  0.84
Si  2.01 -0.60 -0.84
Si  0.36  0.02 -2.36
Si -0.36 -0.02  2.36
Si  0.86 -3.17 -0.84
Si -0.86  3.17  0.84
Si  0.79  2.56  2.36
Si -0.79 -2.56 -2.36
Si -2.93  0.02 -2.36
Si  2.93 -0.02  2.36
Si  1.51  2.59 -2.36
Si -1.51 -2.59  2.36
Si -3.15 -1.98  0.84
Si  3.15  1.98 -0.84
Si -1.78  2.59 -2.36
Si  1.78 -2.59  2.36
Si -3.43  1.98 -0.84
Si  3.43 -1.98  0.84
Si -2.43 -3.17 -0.84
Si  2.43  3.17  0.84
Si  2.51 -2.56 -2.36
Si -2.51  2.56  2.36
Si  1.08 -1.18 -4.04
Si -1.08  1.18  4.04
Si -3.65 -0.02  2.36
Si  3.65  0.02 -2.36
Si  1.06 -1.40  4.04
Si -1.06  1.40 -4.04
Si -4.58 -0.60 -0.84
Si  4.58  0.60  0.84
Si -1.01 -4.56  0.84
Si  1.01  4.56 -0.84
Si  2.21  1.18  4.04
Si -2.21 -1.18 -4.04
Si  2.23  1.40 -4.04
Si -2.23 -1.40  4.04
Si -2.28  4.56 -0.84
Si  2.28 -4.56  0.84
Si -4.15  3.17  0.84
Si  4.15 -3.17 -0.84
Si  4.08  2.56  2.36
Si -4.08 -2.56 -2.36
Si  5.30 -0.60 -0.84
Si -5.30  0.60  0.84
Si -0.06 -3.75 -4.04
Si  0.06  3.75  4.04
Si -0.56 -0.56 -5.56
Si  0.56  0.56  5.56
Si  0.09  3.98 -4.04
Si -0.09 -3.98  4.04
Si  0.63 -5.17  2.36
Si -0.63  5.17 -2.36
Si  1.36 -5.14 -2.36
Si -1.36  5.14  2.36
Si  0.29  5.75  0.84
Si -0.29 -5.75 -0.84
Si  0.59  2.01 -5.56
Si -0.59 -2.01  5.56
Si  4.80  2.59 -2.36
Si -4.80 -2.59  2.36
Si -1.93 -5.14 -2.36
Si  1.93  5.14  2.36
Si  4.38 -1.18 -4.04
Si -4.38  1.18  4.04
Si  4.35 -1.40  4.04
Si -4.35  1.40 -4.04
Si -5.07  2.59 -2.36
Si  5.07 -2.59  2.36
Si -2.73  0.56  5.56
Si  2.73 -0.56 -5.56
Si  2.66  5.17 -2.36
Si -2.66 -5.17  2.36
Si -4.30 -4.56  0.84
Si  4.30  4.56 -0.84
Si -3.23  3.75  4.04
Si  3.23 -3.75 -4.04
Si  3.36  3.75  4.04
Si -3.36 -3.75 -4.04
Si -2.71  2.01 -5.56
Si  2.71 -2.01  5.56
Si  3.21 -3.98  4.04
Si -3.21  3.98 -4.04
Si  3.00 -5.75 -0.84
Si -3.00  5.75  0.84
Si -1.58  3.14  5.56
Si  1.58 -3.14 -5.56
Si -5.73 -3.17 -0.84
Si  5.73  3.17  0.84
Si  3.38  3.98 -4.04
Si -3.38 -3.98  4.04
Si -1.71 -3.14 -5.56
Si  1.71  3.14  5.56
Si -6.22  0.02 -2.36
Si  6.22 -0.02  2.36
Si -5.80  2.56  2.36
Si  5.80 -2.56 -2.36
Si  3.85  0.56  5.56
Si -3.85 -0.56 -5.56
Si  6.45  1.98 -0.84
Si -6.45 -1.98  0.84
Si -3.58 -5.75 -0.84
Si  3.58  5.75  0.84
Si -3.93  5.17 -2.36
Si  3.93 -5.17  2.36
Si -5.50 -1.18 -4.04
Si  5.50  1.18  4.04
Si -5.52 -1.40  4.04
Si  5.52  1.40 -4.04
Si -6.72  1.98 -0.84
Si  6.72 -1.98  0.84
Si -3.88 -2.01  5.56
Si  3.88  2.01 -5.56
Si  5.58 -4.56  0.84
Si -5.58  4.56 -0.84
Si  1.14 -7.13  0.84
Si -1.14  7.13 -0.84
Si -4.65  5.14  2.36
Si  4.65 -5.14 -2.36
Si -6.95 -0.02  2.36
Si  6.95  0.02 -2.36
Si  1.56 -4.59  5.56
Si -1.56  4.59 -5.56
Si -1.31 -0.82  7.25
Si  1.31  0.82 -7.25
Si -1.74 -4.59  5.56
Si  1.74  4.59 -5.56
Si  0.16 -1.75 -7.25
Si -0.16  1.75  7.25
Si  2.16  7.13 -0.84
Si -2.16 -7.13  0.84
Si  1.98 -0.82  7.25
Si -1.98  0.82 -7.25
Si -1.21 -6.33 -4.04
Si  1.21  6.33  4.04
Si -5.22 -5.14 -2.36
Si  5.22  5.14  2.36
Si  2.08 -6.33 -4.04
Si -2.08  6.33  4.04
Si  1.23  6.55 -4.04
Si -1.23 -6.55  4.04
Si -7.87 -0.60 -0.84
Si  7.87  0.60  0.84
Si  2.06 -6.55  4.04
Si -2.06  6.55 -4.04
Si -0.44  5.72  5.56
Si  0.44 -5.72 -5.56
Si -4.88  3.14  5.56
Si  4.88 -3.14 -5.56
Si  0.84 -3.40  7.25
Si -0.84  3.40 -7.25
Si  0.21 -7.71 -2.36
Si -0.21  7.71  2.36
Si -3.13 -1.75 -7.25
Si  3.13  1.75  7.25
Si  5.00  3.14  5.56
Si -5.00 -3.14 -5.56
Si  0.51  7.75 -2.36
Si -0.51 -7.75  2.36
Si  7.44 -3.17 -0.84
Si -7.44  3.17  0.84
Si -7.37 -2.56 -2.36
Si  7.37  2.56  2.36
Si  3.45 -1.75 -7.25
Si -3.45  1.75  7.25
Si  6.02 -0.56 -5.56
Si -6.02  0.56  5.56
Si  5.95  5.17 -2.36
Si -5.95 -5.17  2.36
Si -2.46 -3.40  7.25
Si  2.46  3.40 -7.25
Si  6.00 -2.01  5.56
Si -6.00  2.01 -5.56
Si  4.43 -7.13  0.84
Si -4.43  7.13 -0.84
Si -2.86 -5.72 -5.56
Si  2.86  5.72  5.56
Si  1.44  8.33  0.84
Si -1.44 -8.33 -0.84
Si -0.99 -4.33 -7.25
Si  0.99  4.33  7.25
Si  6.52 -3.75 -4.04
Si -6.52  3.75  4.04
Si -2.78  7.75 -2.36
Si  2.78 -7.75  2.36
Si  6.30 -5.75 -0.84
Si -6.30  5.75  0.84
Si  1.86 -8.33 -0.84
Si -1.86  8.33  0.84
Si  4.60  0.82 -7.25
Si -4.60 -0.82  7.25
Si -6.50  3.98 -4.04
Si  6.50 -3.98  4.04
Si -3.08 -7.71 -2.36
Si  3.08  7.71  2.36
Si -6.65 -3.75 -4.04
Si  6.65  3.75  4.04
Si -8.59  0.60  0.84
Si  8.59 -0.60 -0.84
Si -4.85  4.59 -5.56
Si  4.85 -4.59  5.56
Si -7.67  1.18  4.04
Si  7.67 -1.18 -4.04
Si  2.31 -4.33 -7.25
Si -2.31  4.33  7.25
Si  6.67  3.98 -4.04
Si -6.67 -3.98  4.04
Si -4.50 -6.33 -4.04
Si  4.50  6.33  4.04
Si -7.65  1.40 -4.04
Si  7.65 -1.40  4.04
Si -5.03 -4.59  5.56
Si  5.03  4.59 -5.56
Si  3.50 -7.71 -2.36
Si -3.50  7.71  2.36
Si  3.73 -5.72 -5.56
Si -3.73  5.72  5.56
Si  8.10  2.59 -2.36
Si -8.10 -2.59  2.36
Si -0.34  1.43 -8.76
Si  0.34 -1.43  8.76
Si -7.59 -4.56  0.84
Si  7.59  4.56 -0.84
Si -4.53 -6.55  4.04
Si  4.53  6.55 -4.04
Si  3.81  7.75 -2.36
Si -3.81 -7.75  2.36
Si  1.48  1.14  8.76
Si -1.48 -1.14 -8.76
Si  6.87  5.75  0.84
Si -6.87 -5.75 -0.84
Si -5.28  0.82 -7.25
Si  5.28 -0.82  7.25
Si  4.13 -3.40  7.25
Si -4.13  3.40 -7.25
Si  5.45  7.13 -0.84
Si -5.45 -7.13  0.84
Si  1.81 -1.14 -8.76
Si -1.81  1.14  8.76
Si -8.37  2.59 -2.36
Si  8.37 -2.59  2.36
Si -7.14 -0.56 -5.56
Si  7.14  0.56  5.56
Si  0.41 -7.17  5.56
Si -0.41  7.17 -5.56
Si  7.22 -5.17  2.36
Si -7.22  5.17 -2.36
Si  5.37 -6.33 -4.04
Si -5.37  6.33  4.04
Si -7.17 -2.01  5.56
Si  7.17  2.01 -5.56
Si -2.96 -1.43  8.76
Si  2.96  1.43 -8.76
Si -5.35  6.55 -4.04
Si  5.35 -6.55  4.04
Si -0.31 -5.97  7.25
Si  0.31  5.97 -7.25
Si -4.28 -4.33 -7.25
Si  4.28  4.33  7.25
Si  2.88  7.17 -5.56
Si -2.88 -7.17  5.56
Si  0.66 -3.72 -8.76
Si -0.66  3.72  8.76
Si -3.63  1.43 -8.76
Si  3.63 -1.43  8.76
Si -9.02 -3.17 -0.84
Si  9.02  3.17  0.84
Si -4.73 -8.33 -0.84
Si  4.73  8.33  0.84
Si -0.81 -4.01  8.76
Si  0.81  4.01 -8.76
Si  9.09 -2.56 -2.36
Si -9.09  2.56  2.36
Si  0.01  9.71 -0.84
Si -0.01 -9.71  0.84
Si  8.79  1.18  4.04
Si -8.79 -1.18 -4.04
Si -7.94  5.14  2.36
Si  7.94 -5.14 -2.36
Si  3.70 -7.17  5.56
Si -3.70  7.17 -5.56
Si -8.82 -1.40  4.04
Si  8.82  1.40 -4.04
Si  9.51 -0.02  2.36
Si -9.51  0.02 -2.36
Si  0.93 -8.91 -4.04
Si -0.93  8.91  4.04
Si  5.15 -8.33 -0.84
Si -5.15  8.33  0.84
Si -6.42 -1.75 -7.25
Si  6.42  1.75  7.25
Si -2.98  5.97 -7.25
Si  2.98 -5.97  7.25
Si  5.75  3.40 -7.25
Si -5.75 -3.40  7.25
Si  2.63  3.72  8.76
Si -2.63 -3.72 -8.76
Si  2.48 -4.01  8.76
Si -2.48  4.01 -8.76
Si  9.74  1.98 -0.84
Si -9.74 -1.98  0.84
Si  8.87 -4.56  0.84
Si -8.87  4.56 -0.84
Si  0.71  8.29  5.56
Si -0.71 -8.29 -5.56
Si -0.91  9.13 -4.04
Si  0.91 -9.13  4.04
Si  4.78  1.14  8.76
Si -4.78 -1.14 -8.76
Si  6.75 -1.75 -7.25
Si -6.75  1.75  7.25
Si  3.60  5.97 -7.25
Si -3.60 -5.97  7.25
Si -2.36 -8.91 -4.04
Si  2.36  8.91  4.04
Si -6.15 -5.72 -5.56
Si  6.15  5.72  5.56
Si  1.16 -6.91 -7.25
Si -1.16  6.91  7.25
Si -6.07  7.75 -2.36
Si  6.07 -7.75  2.36
Si -5.60  4.33  7.25
Si  5.60 -4.33 -7.25
Si -5.10  1.14  8.76
Si  5.10 -1.14 -8.76
Si -8.52 -5.14 -2.36
Si  8.52  5.14  2.36
Si -2.13 -6.91 -7.25
Si  2.13  6.91  7.25
Si -10.02  1.98 -0.84
Si 10.02 -1.98  0.84
Si  2.38  9.13 -4.04
Si -2.38 -9.13  4.04
Si  6.37  7.71  2.36
Si -6.37 -7.71 -2.36
Si  3.28 -9.71  0.84
Si -3.28  9.71 -0.84
Si -3.31 -9.71  0.84
Si  3.31  9.71 -0.84
Si -3.95  3.72  8.76
Si  3.95 -3.72 -8.76
Si  2.58 -8.29 -5.56
Si -2.58  8.29  5.56
Si  8.17 -3.14 -5.56
Si -8.17  3.14  5.56
Si  0.39  0.24 -10.45
Si -0.39 -0.24 10.45
Si  8.29  3.14  5.56
Si -8.29 -3.14 -5.56
Si -4.10 -4.01  8.76
Si  4.10  4.01 -8.76
Si 10.24  0.02 -2.36
Si -10.24 -0.02  2.36
Si -7.72  7.13 -0.84
Si  7.72 -7.13  0.84
Si  6.80 -7.71 -2.36
Si -6.80  7.71  2.36
Si -0.94 -10.29 -2.36
Si  0.94 10.29  2.36
Si  7.02 -5.72 -5.56
Si -7.02  5.72  5.56
Si -4.22  8.91  4.04
Si  4.22 -8.91 -4.04
Si -1.63 10.32 -2.36
Si  1.63 -10.32  2.36
Si -1.66 -10.32  2.36
Si  1.66 10.32 -2.36
Si -0.76 -2.33 -10.45
Si  0.76  2.33 10.45
Si  7.89  0.82 -7.25
Si -7.89 -0.82  7.25
Si  4.00  8.29  5.56
Si -4.00 -8.29 -5.56
Si -7.10 -7.75  2.36
Si  7.10  7.75 -2.36
Si  0.49  6.30  8.76
Si -0.49 -6.30 -8.76
Si  2.36 -10.29 -2.36
Si -2.36 10.29  2.36
Si  7.80  6.33  4.04
Si -7.80 -6.33 -4.04
Si  4.20 -9.13  4.04
Si -4.20  9.13 -4.04
Si -2.91  0.24 -10.45
Si  2.91 -0.24 10.45
Si -9.24 -5.17  2.36
Si  9.24  5.17 -2.36
Si -6.25 -1.43  8.76
Si  6.25  1.43 -8.76
Si  9.32 -0.56 -5.56
Si -9.32  0.56  5.56
Si  8.14 -4.59  5.56
Si -8.14  4.59 -5.56
Si  7.42 -3.40  7.25
Si -7.42  3.40 -7.25
Si -1.53 -2.82 10.45
Si  1.53  2.82 -10.45
Si  4.45 -6.91 -7.25
Si -4.45  6.91  7.25
Si -0.71 10.90  0.84
Si  0.71 -10.90 -0.84
Si -1.76  2.82 -10.45
Si  1.76 -2.82 10.45
Si  6.17  7.17 -5.56
Si -6.17 -7.17  5.56
Si  7.82  6.55 -4.04
Si -7.82 -6.55  4.04
Si -2.53  2.33 10.45
Si  2.53 -2.33 -10.45
Si  8.32  4.59 -5.56
Si -8.32 -4.59  5.56
Si -9.29  2.01 -5.56
Si  9.29 -2.01  5.56
Si -1.33  6.59 -8.76
Si  1.33 -6.59  8.76
Si -3.68 -0.24 10.45
Si  3.68  0.24 -10.45
Si  1.96  6.59 -8.76
Si -1.96 -6.59  8.76
Si -2.81  6.30  8.76
Si  2.81 -6.30 -8.76
Si 11.16  0.60  0.84
Si -11.16 -0.60 -0.84
Si  9.59 -5.75 -0.84
Si -9.59  5.75  0.84
Si -5.92 -3.72 -8.76
Si  5.92  3.72  8.76
Si 10.66  2.56  2.36
Si -10.66 -2.56 -2.36
Si 10.74 -3.17 -0.84
Si -10.74  3.17  0.84
Si  5.77 -4.01  8.76
Si -5.77  4.01 -8.76
Si -2.58 -10.90 -0.84
Si  2.58 10.90  0.84
Si  0.74  9.74 -5.56
Si -0.74 -9.74  5.56
Si  8.57 -0.82  7.25
Si -8.57  0.82 -7.25
Si -9.81  3.75  4.04
Si  9.81 -3.75 -4.04
Si -6.92  1.43 -8.76
Si  6.92 -1.43  8.76
Si -6.27  5.97 -7.25
Si  6.27 -5.97  7.25
Si -5.65 -8.91 -4.04
Si  5.65  8.91  4.04
Si -1.46 -8.55  7.25
Si  1.46  8.55 -7.25
Si  9.79 -3.98  4.04
Si -9.79  3.98 -4.04
Si -8.74 -7.13  0.84
Si  8.74  7.13 -0.84
Si -7.57 -4.33 -7.25
Si  7.57  4.33  7.25
Si -1.83  8.55 -7.25
Si  1.83 -8.55  7.25
Si -9.94 -3.75 -4.04
Si  9.94  3.75  4.04
Si -4.23 -10.29 -2.36
Si  4.23 10.29  2.36
Si -5.43 -6.91 -7.25
Si  5.43  6.91  7.25
Si -3.78 -6.30 -8.76
Si  3.78  6.30  8.76
Si  4.05  2.33 10.45
Si -4.05 -2.33 -10.45
Si  6.99 -7.17  5.56
Si -6.99  7.17 -5.56
Si  9.96  3.98 -4.04
Si -9.96 -3.98  4.04
Si -8.66  6.33  4.04
Si  8.66 -6.33 -4.04
Si  5.67  9.13 -4.04
Si -5.67 -9.13  4.04
Si  2.56 -9.74  5.56
Si -2.56  9.74 -5.56
Si  8.64 -6.55  4.04
Si -8.64  6.55 -4.04
Si  5.87 -8.29 -5.56
Si -5.87  8.29  5.56
Si  8.02  8.33  0.84
Si -8.02 -8.33 -0.84
Si  1.38 -4.91 -10.45
Si -1.38  4.91 10.45
Si -4.00 10.90  0.84
Si  4.00 -10.90 -0.84
Si -6.90 -5.97  7.25
Si  6.90  5.97 -7.25
Si  4.92 -10.32  2.36
Si -4.92 10.32 -2.36
Si  4.95 10.32 -2.36
Si -4.95 -10.32  2.36
Si  1.91  4.91 10.45
Si -1.91 -4.91 -10.45
Si -10.16 -5.75 -0.84
Si 10.16  5.75  0.84
