500
set: 430.00  0.00  0.00
Si  0.12 -0.11  0.01
Si -1.74  0.83  0.78
Si  0.18  0.13 -2.19
Si  1.81  1.12  0.83
Si -0.04 -2.26  0.67
Si -1.82  2.98  0.01
Si -1.68 -0.97 -2.92
Si -0.05 -2.03  2.91
Si  3.57  0.11  0.00
Si  1.67  3.19 -0.05
Si -1.72  1.04  3.02
Si  1.93 -1.07 -2.94
Si -1.99 -3.13 -0.05
Si -3.74  0.11  0.00
Si -0.05  2.19 -3.06
Si  1.97  1.14  3.05
Si  1.83 -3.35  0.01
Si  3.48 -2.04  0.73
Si -3.55  0.05 -2.26
Si  1.76 -1.01  3.69
Si  1.79 -3.17 -2.23
Si -1.87  3.16 -2.23
Si  0.11  2.16  3.71
Si -1.89 -3.12 -2.28
Si  1.76  3.21 -2.28
Si -1.87 -1.06  3.74
Si -0.17  4.29  0.73
Si  3.76  0.05 -2.26
Si -3.83 -2.04  0.73
Si  3.55 -2.08  2.96
Si  3.55  2.14 -3.01
Si -0.10 -4.19 -3.01
Si -0.10  4.25  2.96
Si -3.76 -2.08  2.96
Si -3.76  2.14 -3.01
Si  3.61  4.07  0.67
Si -3.70  4.07  0.67
Si -1.84 -0.99 -5.14
Si  0.18 -4.08  3.78
Si -1.84 -5.21  0.83
Si -3.48  2.24  3.78
Si -0.04  1.96 -5.30
Si -5.50  1.12  0.83
Si  5.56  0.83  0.78
Si  1.91 -1.28 -5.19
Si  3.83  2.24  3.78
Si  1.91 -5.50  0.78
Si  5.32 -3.13 -0.05
Si -0.09 -6.22  0.00
Si -5.38 -1.07 -2.94
Si  1.67 -1.02  5.92
Si  5.48  2.98  0.01
Si -1.68 -5.18  3.05
Si -5.34  1.14  3.05
Si -1.72  5.26 -2.94
Si  3.60 -4.14 -3.06
Si -0.09 -2.00 -5.97
Si  1.83  0.87 -5.96
Si  3.60  4.30  2.91
Si -3.71 -4.14 -3.06
Si -1.82 -1.24  5.97
Si -0.09  2.22  5.97
Si -3.71  4.30  2.91
Si  1.93 -5.29  3.02
Si  5.63 -0.97 -2.92
Si  1.97  5.36 -2.92
Si -5.48 -3.35  0.01
Si -1.99  1.08 -6.02
Si  5.58  1.04  3.02
Si -0.09  6.44  0.00
Si -5.64  3.19 -0.05
Si -3.55 -4.17  3.71
Si  5.42 -3.12 -2.28
Si  3.48  2.18 -5.24
Si  5.44  3.16 -2.23
Si  0.11 -6.28 -2.26
Si -0.17 -4.15 -5.24
Si  5.44 -1.06  3.74
Si -0.17  0.07  6.70
Si  1.79  5.27  3.74
Si  3.76 -4.17  3.71
Si -5.54 -1.01  3.69
Si -1.89  5.32  3.69
Si -5.52 -3.17 -2.23
Si  0.11  6.38 -2.26
Si -5.54  3.21 -2.28
Si -3.83  2.18 -5.24
Si -3.53  6.22  0.01
Si -7.19 -0.11  0.01
Si -3.53  2.00  5.98
Si  0.12  4.11 -5.96
Si -3.53 -2.22 -5.96
Si  3.78  6.22  0.01
Si -3.53 -6.44  0.01
Si  3.78  2.00  5.98
Si  0.12 -4.33  5.98
Si  3.78 -2.22 -5.96
Si  7.43 -0.11  0.01
Si -3.48 -6.19 -2.19
Si  1.91  7.16  0.78
Si -1.74  5.05 -5.19
Si -7.13  0.13 -2.19
Si  3.78 -6.44  0.01
Si  3.61 -0.15  6.64
Si  5.47 -0.99 -5.14
Si  5.47 -5.21  0.83
Si  1.91  2.94  6.74
Si -5.40 -1.28 -5.19
Si -3.70 -0.15  6.64
Si  3.83 -6.19 -2.19
Si  1.81  5.34 -5.14
Si  7.27 -2.26  0.67
Si -3.48  6.46 -2.19
Si  1.81 -3.10  6.80
Si -1.84  7.45  0.83
Si -7.35 -2.26  0.67
Si -1.75 -3.39  6.74
Si -5.40 -5.50  0.78
Si -1.84  3.23  6.80
Si  3.61 -4.37 -5.30
Si  7.48  0.13 -2.19
Si -3.70 -4.37 -5.30
Si  3.83  6.46 -2.19
Si  1.83  5.09  5.97
Si  3.57 -4.11  5.97
Si  7.26 -2.03  2.91
Si  1.97 -7.29 -2.92
Si  5.32  1.08 -6.02
Si -5.34  5.36 -2.92
Si -5.38 -5.29  3.02
Si -5.48  0.87 -5.96
Si -1.72 -7.40 -2.94
Si  1.67 -5.25 -6.02
Si -3.74 -4.11  5.97
Si -7.36 -2.03  2.91
Si  7.26  2.19 -3.06
Si  3.57  4.33 -5.97
Si -1.99  5.30  5.92
Si  1.93  7.37  3.02
Si  5.48 -1.24  5.97
Si  5.58  5.26 -2.94
Si  5.63 -5.18  3.05
Si -5.64 -1.02  5.92
Si -1.68  7.47  3.05
Si -7.36  2.19 -3.06
Si -3.74  4.33 -5.97
Si -1.82 -5.46 -5.96
Si  7.13  4.29  0.73
Si -7.20  2.16  3.71
Si -0.17 -8.37  0.73
Si -1.89 -7.34  3.69
Si  5.42  5.32  3.69
Si  1.79  1.05 -8.20
Si  1.79 -7.39  3.74
Si  0.11 -2.06 -8.22
Si -5.52  5.27  3.74
Si -1.89  1.10 -8.25
Si  7.42  2.16  3.71
Si -7.48  4.29  0.73
Si  7.21 -4.19 -3.01
Si  7.21  4.25  2.96
Si -0.10 -8.40  2.96
Si -0.10  0.03  8.93
Si -0.10  0.03 -8.98
Si -0.10  8.47 -3.01
Si -5.40  7.16  0.78
Si -7.41 -4.19 -3.01
Si -7.41  4.25  2.96
Si -7.13 -4.08  3.78
Si -0.04  6.17  6.64
Si -3.48 -1.98 -8.16
Si -9.05  0.83  0.78
Si -5.40  2.94  6.74
Si  1.81 -7.32 -5.14
Si  5.56  5.05 -5.19
Si  7.27  1.96 -5.30
Si  3.83 -1.98 -8.16
Si -5.50  5.34 -5.14
Si  9.12  1.12  0.83
Si  0.18  4.35 -8.16
Si -7.35  1.96 -5.30
Si  5.47  7.45  0.83
Si -5.50 -3.10  6.80
Si -0.04 -6.48  6.64
Si  5.47  3.23  6.80
Si  7.48 -4.08  3.78
Si  3.61 -8.59  0.67
Si  0.17  8.57  3.78
Si  5.56 -3.39  6.74
Si -1.74 -7.61 -5.19
Si -3.70 -8.59  0.67
Si  1.83  9.31  0.01
Si -5.34 -7.29 -2.92
Si -8.99 -0.97 -2.92
Si -1.82  7.20 -5.96
Si  8.98  3.19 -0.05
Si  7.22 -6.22  0.00
Si  3.60 -8.36  2.91
Si  5.32  5.30  5.92
Si -5.48  5.09  5.97
Si  7.22 -2.00 -5.97
Si -9.03  1.04  3.02
Si  3.60  0.08  8.88
Si -3.71 -8.36  2.91
Si -9.13  2.98  0.01
Si  1.97 -3.08 -8.89
Si  1.67 -9.46 -0.05
Si -1.68  3.25 -8.89
Si -5.38  7.37  3.02
Si -1.72 -3.18 -8.91
Si -3.71  0.08  8.88
Si  7.22  2.22  5.97
Si -1.99 -7.35  5.92
Si  1.93  3.15 -8.91
Si -7.40 -6.22  0.00
Si  7.22  6.44  0.00
Si -1.72 -3.18  8.99
Si  1.67  7.41 -6.02
Si -7.40 -2.00 -5.97
Si  3.60  0.08 -9.02
Si  1.93  3.15  8.99
Si  5.58 -7.40 -2.94
Si -1.99  9.52 -0.05
Si  1.97 -3.08  9.02
Si  9.14 -3.35  0.01
Si -1.68  3.25  9.02
Si  3.60  8.52 -3.06
Si -3.71  0.08 -9.02
Si  9.24 -1.07 -2.94
Si -7.40  2.22  5.97
Si  5.48 -5.46 -5.96
Si -5.64 -5.25 -6.02
Si  7.13 -4.15 -5.24
Si -3.71  8.52 -3.06
Si  7.13  0.07  6.70
Si  3.48 -6.26  6.70
Si -7.40  6.44  0.00
Si -9.29 -3.13 -0.05
Si  1.83 -7.57  5.97
Si -7.20 -6.28 -2.26
Si  9.28  1.14  3.05
Si  5.63  7.47  3.05
Si  5.42 -7.34  3.69
Si  9.07 -1.01  3.69
Si -1.82 -9.68  0.01
Si -7.20  6.38 -2.26
Si  1.76 -9.45 -2.28
Si  9.10 -3.17 -2.23
Si  9.07  3.21 -2.28
Si  3.48  6.40  6.70
Si  0.11 -2.06  9.68
Si -1.89  1.10  9.66
Si  1.79  9.48 -2.23
Si -3.55  8.48  3.71
Si -3.55  4.26 -8.22
Si  1.76 -5.23 -8.25
Si  1.79  1.05  9.71
Si  5.42  1.10 -8.25
Si -1.87 -5.28 -8.20
Si -3.83 -6.26  6.70
Si -1.87 -9.50 -2.23
Si -5.52  1.05 -8.20
Si -5.52 -7.39  3.74
Si -9.18  3.16 -2.23
Si -9.18 -1.06  3.74
Si -9.20 -3.12 -2.28
Si  7.42 -6.28 -2.26
Si -1.89  9.54 -2.28
Si -0.17  8.51 -5.24
Si  3.76  8.48  3.71
Si  3.76  4.26 -8.22
Si -3.83  6.40  6.70
Si -7.48 -4.15 -5.24
Si  7.42  6.38 -2.26
Si -7.48  0.07  6.70
Si -7.19  4.11 -5.96
Si  0.12  8.33  5.98
Si -7.19 -4.33  5.98
Si  7.43  4.11 -5.96
Si -0.04 10.39  0.67
Si  0.12 -8.55 -5.96
Si  3.61  8.28 -5.30
Si  7.43 -4.33  5.98
Si -5.50 -7.32 -5.14
Si -3.70  8.28 -5.30
Si -3.48 -1.97  9.75
Si -9.15 -0.99 -5.14
Si -9.15 -5.21  0.83
Si  3.83 -1.97  9.75
Si  9.22 -1.28 -5.19
Si  0.17  4.35  9.75
Si  9.22 -5.50  0.78
Si  5.56 -7.61 -5.19
Si -5.48  9.31  0.01
Si  8.98 -1.02  5.92
Si -5.34 -3.08 -8.89
Si -8.99 -5.18  3.05
Si  5.48  7.20 -5.96
Si  5.32 -7.35  5.92
Si  3.57 -8.33 -5.97
Si -0.05 -6.25  8.88
Si -9.03  5.26 -2.94
Si -5.38  3.15 -8.91
Si 10.87  0.11  0.00
Si -0.05 -10.47 -3.06
Si -3.74 -8.33 -5.97
Si  5.32  9.52 -0.05
Si -5.34 -3.08  9.02
Si -5.38  3.15  8.99
Si  9.14  0.87 -5.96
Si -0.05  6.41  8.88
Si -0.05 -6.25 -9.02
Si -9.13 -1.24  5.97
Si  5.58 -3.18 -8.91
Si 10.79 -2.04  0.73
Si  5.63  3.25 -8.89
Si -5.64 -9.46 -0.05
Si  3.57  8.55  5.97
Si  7.13 -8.37  0.73
Si -0.05 10.63  2.91
Si -11.05  0.11  0.00
Si  5.58 -3.18  8.99
Si  9.24 -5.29  3.02
Si -0.05  6.41 -9.02
Si -3.74  8.55  5.97
Si -10.86  0.05 -2.26
Si -5.64  7.41 -6.02
Si -5.48 -7.57  5.97
Si  9.28  5.36 -2.92
Si  5.63  3.25  9.02
Si  1.76 -5.23  9.66
Si -7.20 -2.06 -8.22
Si  5.48 -9.68  0.01
Si -9.29  1.08 -6.02
Si  5.42  1.10  9.66
Si  0.11 -10.50  3.71
Si  9.10  5.27  3.74
Si -3.55  4.27  9.68
Si  5.44 -5.28 -8.20
Si  5.44 -9.50 -2.23
Si -1.87  7.37 -8.20
Si -5.54 -9.45 -2.28
Si  3.48 10.62  0.73
Si -5.52  9.48 -2.23
Si  5.42  9.54 -2.28
Si -0.17  0.07 -11.21
Si -1.87 -5.28  9.71
Si -5.52  1.05  9.71
Si  3.76  4.27  9.68
Si -5.54 -5.23 -8.25
Si  1.76  7.43 -8.25
Si -9.20  5.32  3.69
Si -7.48 -8.37  0.73
Si  7.42 -2.06 -8.22
Si 11.07  0.05 -2.26
Si -3.83 10.62  0.73
Si -11.14 -2.04  0.73
Si 10.86 -2.08  2.96
Si  7.21 -8.40  2.96
Si 10.86  2.14 -3.01
Si  7.21  0.03  8.93
Si  3.55 -6.29  8.93
Si  3.55 -10.52 -3.01
Si  7.21  0.03 -8.98
Si  7.21  8.47 -3.01
Si  3.55  6.36  8.93
Si  3.55 -6.30 -8.98
Si  3.55 10.58  2.96
Si -3.76 -6.29  8.93
Si  3.55  6.36 -8.98
Si -3.76 -10.52 -3.01
Si -3.76  6.36  8.93
Si -7.41 -8.40  2.96
Si -3.76 -6.30 -8.98
Si -1.75  9.27  6.74
Si -9.05  5.05 -5.19
Si -7.41  0.03  8.93
Si -3.48 -10.41  3.78
Si -3.76 10.58  2.96
Si  7.26  6.17  6.64
Si -3.76  6.36 -8.98
Si -11.06 -2.08  2.96
Si -7.41  0.03 -8.98
Si  0.18 -8.30 -8.16
Si -10.79  2.24  3.78
Si -7.41  8.47 -3.01
Si -11.06  2.14 -3.01
Si 10.92  4.07  0.67
Si -7.35  6.17  6.64
Si  1.81 -3.10 -11.11
Si -7.13  4.35 -8.16
Si  9.22  7.16  0.78
Si  1.91  2.94 -11.16
Si  1.81 -11.54  0.83
Si -1.84  3.23 -11.11
Si  3.83 -10.41  3.78
Si  9.12  5.34 -5.14
Si -11.01  4.07  0.67
Si -1.84 -9.43  6.80
Si -7.13  8.57  3.78
Si  7.27 -6.48  6.64
Si -9.05 -3.39  6.74
Si  9.12 -3.10  6.80
Si  9.22  2.94  6.74
Si -1.74 -3.39 -11.16
Si -9.15  7.45  0.83
Si  3.61 -0.15 -11.26
Si -7.35 -6.48  6.64
Si -9.15  3.23  6.80
Si -3.70 -0.15 -11.26
Si  1.81  9.56  6.80
Si  7.48  4.35 -8.16
Si -0.04 -10.70 -5.30
Si 11.14  2.24  3.78
Si  1.91 -9.72  6.74
Si -1.74 -11.83  0.78
Si  7.48  8.57  3.78
Si  8.98 -5.25 -6.02
Si -0.09 -10.44  5.97
Si -9.03 -7.40 -2.94
Si  9.14  5.09  5.97
Si 10.91 -4.14 -3.06
Si  1.97 -11.51  3.05
Si -8.99  7.47  3.05
Si 10.91  4.30  2.91
Si -1.99  1.09 11.88
Si -0.09 -2.00 11.94
Si  1.83  0.87 11.94
Si  1.93 11.59 -2.94
Si -1.72 -11.62  3.02
Si -1.82 -1.24 -11.93
Si -0.09  2.22 -11.94
Si  1.67 -1.03 -11.99
Si -11.02 -4.14 -3.06
Si  9.28 -7.29 -2.92
Si -1.68 11.69 -2.92
Si -11.02  4.30  2.91
Si 10.79  2.18 -5.24
Si -9.13 -5.46 -5.96
Si  9.24  7.37  3.02
Si -10.86 -4.17  3.71
Si -0.09 10.65 -5.97
Si  3.48 -10.48 -5.24
Si -9.29  5.30  5.92
Si -7.20 -2.06  9.68
Si -3.55 -8.39 -8.22
Si  7.13  8.51 -5.24
Si  9.10  1.05 -8.20
Si  5.44  7.37 -8.20
Si  9.10 -7.39  3.74
Si -5.54 -5.23  9.66
Si  1.76  7.43  9.66
Si  5.44 -5.28  9.71
Si -3.83 -10.48 -5.24
Si -1.87 11.60  3.74
Si -9.20 -7.34  3.69
Si -1.87  7.38  9.71
Si  3.76 -8.39 -8.22
Si  1.76 11.65  3.69
Si  7.42 -2.06  9.68
Si 11.07 -4.17  3.71
Si -9.20  1.10 -8.25
Si -5.54  7.43 -8.25
Si -7.48  8.51 -5.24
Si -10.84  6.22  0.01
Si -11.14  2.18 -5.24
Si -7.19  8.33  5.98
Si -3.53 10.44 -5.96
Si -10.84  2.00  5.98
Si  0.12 12.55  0.01
Si -10.84 -2.22 -5.96
Si  3.78 10.44 -5.96
Si -3.53  2.00 -11.92
Si -10.84 -6.44  0.01
Si -10.79 -6.19 -2.19
Si  0.12  4.11 11.95
Si  1.91 11.38 -5.19
Si -3.53 -2.22 11.95
Si -7.19 -8.55 -5.96
Si  7.43  8.33  5.98
Si  3.78  2.00 -11.92
Si  0.12 -4.33 -11.92
Si  7.26 10.39  0.67
Si 11.08  6.22  0.01
Si  0.18 -12.52 -2.19
Si -3.53 -10.66  5.98
Si  3.78 -2.22 11.95
Si  5.56  9.27  6.74
Si -5.40  2.94 -11.16
Si -7.35 10.39  0.67
Si 11.08  2.00  5.98
Si -0.04  1.96 12.61
Si -10.79  6.46 -2.19
Si  0.12 -12.77  0.01
Si  9.12 -7.32 -5.14
Si -5.50 -3.10 -11.11
Si 11.09 -2.22 -5.96
Si 10.92 -0.15  6.64
Si  3.78 -10.66  5.98
Si  5.47  3.23 -11.11
