500
set: 1586.00  0.00  0.00
Si  0.09 -0.74 -0.46
Si  1.66  0.70  0.41
Si -0.59  2.04  0.79
Si -1.83  1.01 -1.21
Si -1.85 -1.33  1.00
Si -2.01  0.62  2.37
Si -1.67 -0.94 -2.57
Si -0.09 -1.13  3.11
Si  0.02 -3.09  1.35
Si  2.43 -2.14 -1.12
Si  0.20 -2.71 -2.23
Si  0.07  3.56 -0.75
Si -0.41  2.42 -2.79
Si -3.73  0.70  0.41
Si -2.96 -2.14 -1.12
Si  1.84  1.08 -3.17
Si  3.56  1.01 -1.21
Si  3.54 -1.33  1.00
Si  0.27 -0.36 -4.04
Si -1.14 -3.83 -0.75
Si  3.38  0.62  2.37
Si  2.25 -2.52  2.46
Si -0.11  3.18  2.82
Si  1.48  0.31  3.98
Si  3.72 -0.94 -2.57
Si  1.24  4.30  1.35
Si -3.14 -2.52  2.46
Si -0.78  1.65  4.36
Si -3.55  1.08 -3.17
Si -1.32 -4.22  2.82
Si -1.65  1.39 -4.79
Si  4.80  2.04  0.79
Si -2.03 -1.72  4.58
Si -5.30 -0.74 -0.46
Si  1.42  4.69 -2.23
Si  5.48 -0.74 -0.46
Si -3.91  0.31  3.98
Si -0.96 -3.45 -4.33
Si  2.61 -1.75 -4.70
Si -1.75  5.26 -1.12
Si -1.81 -5.36  0.79
Si -2.78 -1.75 -4.70
Si  4.25 -3.83 -0.75
Si -1.93  4.87  2.46
Si  0.25  3.95 -4.33
Si -1.63 -4.98 -2.79
Si  3.36 -1.72  4.58
Si -0.16 -3.48  4.92
Si -4.16  4.30  1.35
Si -0.64  6.07  1.00
Si  4.98  2.42 -2.79
Si  3.74  1.39 -4.79
Si  5.30 -1.13  3.11
Si -5.19 -2.71 -2.23
Si  0.38 -2.32 -5.80
Si -2.19  0.23  5.94
Si -5.37 -3.09  1.35
Si -1.49 -0.56 -6.15
Si -5.99  2.04  0.79
Si  5.41 -3.09  1.35
Si  1.05  3.92  4.92
Si -5.48 -1.13  3.11
Si -5.32  3.56 -0.75
Si  3.46  4.87  2.46
Si  3.58 -5.36  0.79
Si  3.65  5.26 -1.12
Si  4.07 -4.22  2.82
Si -5.12 -0.36 -4.04
Si -3.98  4.69 -2.23
Si  4.62  1.65  4.36
Si  5.46  3.56 -0.75
Si  5.59 -2.71 -2.23
Si  0.45 -6.70  0.41
Si  3.20  0.23  5.94
Si  5.28  3.18  2.82
Si  1.30  6.65 -0.46
Si  3.76 -4.98 -2.79
Si -0.27 -1.51  6.69
Si -5.80  2.42 -2.79
Si  2.34 -6.39 -1.21
Si -5.50  3.18  2.82
Si -0.23  2.81 -6.36
Si -0.46  6.45 -2.57
Si  5.66 -0.36 -4.04
Si -0.29  2.79  6.40
Si  2.07 -2.91  6.03
Si  4.43 -3.45 -4.33
Si  1.12  6.27  3.11
Si  0.63 -6.31 -3.17
Si  7.05  0.70  0.41
Si -3.05 -6.39 -1.21
Si  2.03  1.47 -6.75
Si  3.90 -0.56 -6.15
Si -0.82  5.68  4.58
Si -7.22  1.01 -1.21
Si -7.24 -1.33  1.00
Si -3.32 -2.91  6.03
Si -1.99 -5.75  4.36
Si  2.16 -6.78  2.37
Si -1.56  5.64 -4.70
Si -7.06 -0.94 -2.57
Si -6.54 -3.83 -0.75
Si  0.45  0.03 -7.62
Si -4.34  3.92  4.92
Si  1.30 -0.07  7.56
Si -3.37  1.47 -6.75
Si -6.17  1.65  4.36
Si  4.75  6.07  1.00
Si -5.14  3.95 -4.33
Si -7.41  0.62  2.37
Si -2.11  4.49  6.03
Si -4.09  6.65 -0.46
Si -3.23 -6.78  2.37
Si  1.60  5.07 -5.80
Si  6.88  0.31  3.98
Si  7.24  1.08 -3.17
Si  3.40 -5.75  4.36
Si -1.45 -4.59 -6.36
Si  5.23 -3.48  4.92
Si -5.01 -2.32 -5.80
Si  6.63  4.30  1.35
Si -1.50 -4.60  6.40
Si  2.52 -6.00 -4.79
Si -0.96  1.26  7.94
Si  0.27 -7.08  3.98
Si  5.64  3.95 -4.33
Si  7.82 -2.14 -1.12
Si -5.55 -3.48  4.92
Si -4.27  6.27  3.11
Si -2.87 -6.00 -4.79
Si  3.28  4.49  6.03
Si -1.12 -8.14 -0.46
Si  1.49  7.04 -4.04
Si  3.83  5.64 -4.70
Si -4.94 -6.70  0.41
Si -0.80  8.02  2.37
Si  7.64 -2.52  2.46
Si -6.72 -4.22  2.82
Si -6.36 -3.45 -4.33
Si -2.51  8.09  0.41
Si  5.77 -2.32 -5.80
Si -0.62  8.40 -1.21
Si -0.78 -3.06 -7.90
Si -4.76 -6.31 -3.17
Si  4.94  6.45 -2.57
Si  5.12 -1.51  6.69
Si  6.81  4.69 -2.23
Si -3.79  5.07 -5.80
Si -4.09 -0.07  7.56
Si  2.88  8.09  0.41
Si -6.03  6.07  1.00
Si  4.58  5.68  4.58
Si -7.04  1.39 -4.79
Si  5.10  2.79  6.40
Si  5.16  2.81 -6.36
Si -1.47  1.78 -8.36
Si -8.35 -2.14 -1.12
Si -2.21 -2.10  8.16
Si -2.60 -1.37 -8.27
Si  3.94 -4.59 -6.36
Si  3.89 -4.60  6.40
Si -0.94 -7.75 -4.04
Si  2.79 -1.37 -8.27
Si -7.42 -1.72  4.58
Si -5.66 -1.51  6.69
Si  5.84 -6.70  0.41
Si -7.14  5.26 -1.12
Si -5.62  2.81 -6.36
Si  0.94  5.88  6.69
Si -5.68  2.79  6.40
Si  3.18 -2.10  8.16
Si  6.45  3.92  4.92
Si -3.91  7.04 -4.04
Si -7.20 -5.36  0.79
Si  0.81 -5.93 -6.75
Si  0.43  4.34 -7.90
Si -7.02 -4.98 -2.79
Si -4.94  0.03 -7.62
Si -5.85  6.45 -2.57
Si  2.51 -8.34 -2.57
Si -2.69  7.71  3.98
Si  8.95  1.01 -1.21
Si  2.70  7.71  3.98
Si  2.33 -8.73  1.00
Si  8.93 -1.33  1.00
Si  8.77  0.62  2.37
Si -7.32  4.87  2.46
Si -9.12  0.70  0.41
Si -1.30 -8.52  3.11
Si  4.43  1.26  7.94
Si -2.88 -8.34 -2.57
Si -0.27  6.84 -6.15
Si  4.27 -8.14 -0.46
Si -8.53 -2.52  2.46
Si -6.88 -0.56 -6.15
Si  0.87  3.53  8.50
Si  6.02 -6.31 -3.17
Si -3.06 -8.73  1.00
Si -0.34 -3.87  8.50
Si -2.33  8.48 -3.17
Si  3.92  1.78 -8.36
Si  8.00 -1.75 -4.70
Si  6.70  6.65 -0.46
Si  0.62  9.43  0.79
Si  1.98 -7.16  5.94
Si  9.11 -0.94 -2.57
Si  4.59  8.02  2.37
Si -8.94  1.08 -3.17
Si  3.06  8.48 -3.17
Si  6.51  6.27  3.11
Si -6.21  5.68  4.58
Si -8.17 -1.75 -4.70
Si  0.56 -1.94 -9.38
Si  5.84  0.03 -7.62
Si -5.12 -7.08  3.98
Si -7.59  0.23  5.94
Si  4.61 -3.06 -7.90
Si  1.22 -9.53 -1.12
Si -0.98  7.63  5.94
Si  4.77  8.40 -1.21
Si -1.00  5.29  8.16
Si  4.45 -7.75 -4.04
Si -2.38 -0.15  9.52
Si -1.31 -0.17 -9.72
Si  5.66 -7.08  3.98
Si -3.41 -7.16  5.94
Si  4.09 -8.52  3.11
Si -4.45  5.88  6.69
Si  3.02 -0.15  9.52
Si -0.44  8.79 -4.79
Si  7.46 -2.91  6.03
Si  8.75 -1.72  4.58
Si  0.44  9.04  4.36
Si -4.58 -5.93 -6.75
Si  6.69 -0.07  7.56
Si  7.73 -6.39 -1.21
Si -6.96  5.64 -4.70
Si -9.30  0.31  3.98
Si  7.42  1.47 -6.75
Si  0.80  9.82 -2.79
Si -6.35  1.26  7.94
Si -4.52  3.53  8.50
Si -2.17 -6.13  7.94
Si  1.04 -9.92  2.46
Si -0.47  2.41  9.98
Si -4.96  4.34 -7.90
Si -7.38 -5.75  4.36
Si -1.38  6.03 -8.27
Si  1.89 -3.29  9.61
Si  1.40 -9.15 -4.70
Si -1.01 -10.10 -2.23
Si  9.64 -3.83 -0.75
Si  9.13  1.39 -4.79
Si -6.19  8.02  2.37
Si -6.01  8.40 -1.21
Si  8.86  4.87  2.46
Si  6.99  5.07 -5.80
Si  2.69 -7.95 -6.15
Si -6.84 -4.59 -6.36
Si -2.70 -7.95 -6.15
Si 10.19  2.04  0.79
Si  7.55 -6.78  2.37
Si  2.15 -9.11  4.58
Si -2.69 -5.62 -8.36
Si  2.71 -5.62 -8.36
Si -6.51 -8.14 -0.46
Si -0.05  3.19 -9.94
Si  8.59  0.23  5.94
Si -0.45 -1.90 10.27
Si -4.17 -9.53 -1.12
Si -6.90 -4.60  6.40
Si  8.97 -5.36  0.79
Si -6.17 -3.06 -7.90
Si  9.04  5.26 -1.12
Si  5.12  6.84 -6.15
Si  3.22 -6.13  7.94
Si  4.08 -0.17 -9.72
Si -9.55  4.30  1.35
Si -4.77  9.43  0.79
Si  5.05 -3.87  8.50
Si -7.50  4.49  6.03
Si -0.76 -7.37 -7.62
Si  0.09 -7.47  7.56
Si  4.41  7.63  5.94
Si  6.88  7.04 -4.04
Si -1.19 -10.49  1.35
Si -8.44 -6.39 -1.21
Si  4.39  5.29  8.16
Si -2.29  4.10  9.61
Si -3.24 -9.11  4.58
Si -9.37  4.69 -2.23
Si  2.21  1.85 -10.32
Si -10.69 -0.74 -0.46
Si -4.83 -1.94 -9.38
Si  5.82  4.34 -7.90
Si  9.46 -4.22  2.82
Si -3.50 -3.29  9.61
Si  1.67  7.42 -7.62
Si  9.15 -4.98 -2.79
Si -6.33 -7.75 -4.04
Si -5.67  6.84 -6.15
Si  2.52  7.32  7.56
Si -1.27 -4.20 -9.94
Si  3.10  4.10  9.61
Si 10.87 -0.74 -0.46
Si -2.87  7.32  7.56
Si  6.20 -5.93 -6.75
Si  6.33  5.88  6.69
Si -5.73 -3.87  8.50
Si -3.19  1.85 -10.32
Si -6.86  1.78 -8.36
Si -8.71 -2.91  6.03
Si  4.01  6.03 -8.27
Si  1.78  5.46 -9.38
Si  1.10 10.57  2.82
Si 10.37  2.42 -2.79
Si  7.92 -6.00 -4.79
Si -3.99 -9.15 -4.70
Si 10.01  1.65  4.36
Si  1.28 10.96 -0.75
Si -4.35 -9.92  2.46
Si  6.26  3.53  8.50
Si -10.58 -2.71 -2.23
Si -8.76  1.47 -6.75
Si  9.29 -0.56 -6.15
Si  4.95  8.79 -4.79
Si -4.59  9.82 -2.79
Si 10.69 -1.13  3.11
Si -4.95  9.04  4.36
Si  1.12 -0.46 11.13
Si  6.01  9.43  0.79
Si -8.62 -6.78  2.37
Si  0.63  0.41 -11.19
Si  4.38 -10.10 -2.23
Si -1.48 -8.91  6.69
Si -10.51 -0.36 -4.04
Si  9.82 -3.45 -4.33
Si -3.73  7.42 -7.62
Si -6.70 -8.52  3.11
Si -8.26 -6.00 -4.79
Si -10.76 -3.09  1.35
Si  5.95 -1.94 -9.38
Si -1.69 -4.99  9.98
Si -10.71  3.56 -0.75
Si 10.80 -3.09  1.35
Si -7.90  8.09  0.41
Si -2.15  8.87 -6.75
Si -7.60 -2.10  8.16
Si -0.83 -9.72 -5.80
Si -10.87 -1.13  3.11
Si  8.79 -5.75  4.36
Si  4.20 -10.49  1.35
Si  4.92  2.41  9.98
Si -3.61  5.46 -9.38
Si 10.85  3.56 -0.75
Si  8.68  4.49  6.03
Si 10.67  3.18  2.82
Si -2.36 -11.23 -0.75
Si 10.98 -2.71 -2.23
Si  4.94 -1.90 10.27
Si  4.12 -4.20 -9.94
Si  4.63 -7.37 -7.62
Si  8.27  8.09  0.41
Si -7.99 -1.37 -8.27
Si -6.37  7.63  5.94
Si -5.83  8.79 -4.79
Si -11.38  2.04  0.79
Si -9.73  3.92  4.92
Si -9.48  6.65 -0.46
Si  3.24  8.87 -6.75
Si -1.14  0.88 11.52
Si  5.83  9.04  4.36
Si -6.39  5.29  8.16
Si  6.61 -9.53 -1.12
Si  3.03 -11.23 -0.75
Si  0.76  5.50 10.27
Si  7.72 -8.73  1.00
Si -10.89  3.18  2.82
Si  8.18 -1.37 -8.27
Si  5.34  3.19 -9.94
Si -4.11 10.96 -0.75
Si  0.26  8.66  7.94
Si  3.71 -4.99  9.98
Si -4.29 10.57  2.82
Si  0.99 -5.54 -10.32
Si  7.90 -8.34 -2.57
Si 11.05 -0.36 -4.04
Si -5.44  3.19 -9.94
Si  9.22  5.64 -4.70
Si -11.20  2.42 -2.79
Si -0.60 -2.67 -11.48
Si  3.91 -8.91  6.69
Si -6.70 -0.17 -9.72
Si -5.86  2.41  9.98
Si -8.08  7.71  3.98
Si  8.09  7.71  3.98
Si 10.15  6.07  1.00
Si  7.37 -7.16  5.94
Si -2.18 -10.84 -4.33
Si -5.30 -7.47  7.56
Si -7.72  8.48 -3.17
Si -9.66  6.27  3.11
Si -4.27 -0.46 11.13
Si  6.19  9.82 -2.79
Si  5.48 -7.47  7.56
Si -5.84 -1.90 10.27
Si  0.86 -10.30  6.03
Si -9.19  5.07 -5.80
Si -1.37 -10.88  4.92
Si -1.16  7.25  9.52
Si  8.57 -2.10  8.16
Si -8.27 -8.34 -2.57
Si  2.45 11.70  1.35
Si -10.53  3.95 -4.33
Si  0.98 10.20 -6.36
Si  0.92 10.19  6.40
Si  6.43 -9.92  2.46
Si  3.21 -10.84 -4.33
Si -0.09  7.22 -9.72
Si -9.48 -0.07  7.56
Si -2.42 -0.98 -11.85
Si -10.40 -2.32 -5.80
Si -2.94 11.70  1.35
Si  1.58 -8.76 -8.27
Si -6.40 -10.10 -2.23
Si -4.76  0.41 -11.19
Si  9.28 -4.60  6.40
Si -8.45 -8.73  1.00
Si  9.34 -4.59 -6.36
Si -1.29  2.16 -11.94
Si  4.56 -9.72 -5.80
Si 10.62 -3.48  4.92
Si -2.54 -11.61  2.82
Si -2.39 -2.49 11.73
Si  1.46 11.35 -4.33
Si -6.15 -7.37 -7.62
Si  2.97 -0.98 -11.85
Si -6.78  6.03 -8.27
Si  1.80 -7.55  9.52
Si -7.77 -0.15  9.52
Si  2.85 -11.61  2.82
Si  4.25  0.88 11.52
Si -10.33 -6.70  0.41
Si  6.79 -9.15 -4.70
Si -9.30  7.04 -4.04
Si  9.97  5.68  4.58
Si  3.00 -2.49 11.73
Si -10.15 -6.31 -3.17
Si  8.45  8.48 -3.17
Si -0.26  9.17 -8.36
Si  0.61  4.72 -11.48
Si 10.33  6.45 -2.57
Si -6.58 -10.49  1.35
Si -11.56  1.65  4.36
Si 12.45  0.70  0.41
Si 11.03  3.95 -4.33
Si -10.94 -3.48  4.92
Si  7.28 -3.29  9.61
Si  0.69  3.15 12.07
Si -4.40 -5.54 -10.32
Si -4.63  5.50 10.27
Si -0.71 12.27  2.46
Si  2.27 11.31  4.92
Si -11.93 -3.83 -0.75
Si 10.51 -1.51  6.69
Si -7.56 -6.13  7.94
Si  2.63 12.09 -2.23
Si -2.52 -7.57 -9.72
Si -2.76 12.09 -2.23
Si  4.02 -10.88  4.92
Si 10.49  2.79  6.40
Si 10.55  2.81 -6.36
Si -3.81 -8.76 -8.27
Si  9.66 -8.14 -0.46
Si  9.31  1.78 -8.36
Si  2.87 -7.57 -9.72
Si -3.59 -7.55  9.52
Si  1.97 -9.50  8.16
Si -6.66 -4.20 -9.94
Si  7.54 -9.11  4.58
Si  4.23  7.25  9.52
Si  9.83  1.26  7.94
Si  8.41 -0.15  9.52
Si -12.62  1.01 -1.21
Si -0.53 12.65 -1.12
Si  6.02  0.41 -11.19
Si  4.79 -2.67 -11.48
Si -3.12 11.31  4.92
Si  6.49 10.57  2.82
Si -12.63 -1.33  1.00
Si -12.45 -0.94 -2.57
Si -3.93 11.35 -4.33
Si  7.06  7.42 -7.62
Si -4.53 -10.30  6.03
Si -1.18  4.91 11.73
Si 11.16 -2.32 -5.80
Si -8.80 -7.16  5.94
Si  4.10  2.16 -11.94
Si -4.41 10.20 -6.36
Si -0.52 -4.25 12.07
