500
set: 1499.00  0.00  0.00
Si  0.40 -0.98 -1.31
Si  1.43  1.07 -0.92
Si -1.99 -0.75 -0.15
Si  0.69  1.79  1.29
Si -1.86  1.33  0.77
Si  0.13 -2.45  0.22
Si  0.65 -1.40  2.43
Si  0.44  2.21 -2.45
Si  1.68  0.65  2.81
Si -2.52 -2.22  1.55
Si -2.77 -1.80 -2.19
Si -2.10  1.75 -2.97
Si -1.48 -3.49 -1.44
Si -0.12 -2.03 -3.52
Si -2.45  3.25  0.22
Si -1.74 -1.17  3.58
Si  0.72 -4.37  0.77
Si -2.23 -0.33 -3.89
Si  3.71  2.21 -1.44
Si  2.67  3.47  1.55
Si -1.23 -3.91  2.30
Si -3.81  1.79  2.30
Si -4.06  2.21 -1.44
Si -1.61  0.91  4.51
Si  0.38 -2.87  3.96
Si  3.96  1.79  2.30
Si  0.47 -3.94 -2.97
Si  1.19  1.50 -4.66
Si  0.15 -0.56 -5.05
Si  2.42  3.90 -2.19
Si  3.02 -3.48 -2.45
Si  3.26 -3.91  1.29
Si  0.94  1.37  5.03
Si -1.93  4.29  2.43
Si -2.20  2.82  3.96
Si -2.17  4.72 -1.31
Si  5.00 -1.80 -2.19
Si -2.70  3.67 -3.52
Si  5.78 -0.75 -0.15
Si  3.21  4.95 -0.15
Si  5.25 -2.22  1.55
Si -3.76 -4.62 -0.92
Si -4.51 -3.91  1.29
Si  5.91  1.33  0.77
Si  4.01 -4.62 -0.92
Si  5.32  3.25  0.22
Si -1.73 -3.06 -5.18
Si -2.27 -2.65  5.29
Si -5.10  3.47  1.55
Si -4.75 -3.48 -2.45
Si  0.59 -6.45 -0.15
Si  0.90 -1.83  6.16
Si -6.34  1.07 -0.92
Si  5.67  1.75 -2.97
Si  0.97 -4.79  4.51
Si  0.19  2.64 -6.19
Si  3.46  4.53  3.58
Si -4.56  4.95 -0.15
Si -6.09  0.65  2.81
Si -3.51 -5.05  2.81
Si  3.46  2.63 -5.18
Si  2.92  3.05  5.29
Si  5.54 -0.33 -3.89
Si -3.02 -1.38 -5.92
Si  1.93  0.23  6.55
Si -1.14  6.77 -0.92
Si -5.35  3.90 -2.19
Si -0.90  6.35  2.81
Si  6.03 -1.17  3.58
Si -3.56  1.36  6.03
Si  0.34 -6.02 -3.89
Si  5.07  3.67 -3.52
Si  4.26 -5.05  2.81
Si -4.32  4.53  3.58
Si -4.31  2.63 -5.18
Si  2.96  5.37 -3.89
Si  3.76 -4.20 -4.66
Si  6.29 -3.49 -1.44
Si  5.57  2.82  3.96
Si -7.08  1.79  1.29
Si  2.98 -6.68 -1.31
Si -2.35  2.17 -6.70
Si  5.59  4.72 -1.31
Si  2.77 -3.06 -6.19
Si -0.37 -1.60 -7.26
Si -4.01 -4.20 -4.66
Si -1.68  3.87  6.16
Si  4.21  1.36  6.03
Si -0.98 -4.33  6.03
Si  3.51 -4.33  5.03
Si -7.37 -0.98 -1.31
Si  0.22 -3.52 -6.70
Si -2.42  5.14 -5.05
Si -1.49 -1.59  7.32
Si  5.84  4.29  2.43
Si  2.17  4.32 -5.92
Si -7.12 -1.40  2.43
Si  6.16  0.91  4.51
Si  4.75 -1.38 -5.92
Si  0.84 -6.87  3.58
Si -4.85  3.05  5.29
Si -0.19 -7.50 -2.19
Si  3.34  7.03  0.77
Si -1.89  7.49  1.29
Si -4.26 -4.33  5.03
Si  1.38  7.49  2.30
Si  6.54 -3.91  2.30
Si -2.48  0.10 -7.63
Si -7.64 -2.45  0.22
Si -7.33  2.21 -2.45
Si  0.06 -7.92  1.55
Si  5.50 -2.65  5.29
Si  1.13  7.91 -1.44
Si  3.23 -7.10  2.43
Si -4.81  5.37 -3.89
Si -6.58  1.50 -4.66
Si  7.90 -2.45  0.22
Si -1.96  2.40  7.69
Si -4.79 -6.68 -1.31
Si -7.05 -4.37  0.77
Si  8.17 -0.98 -1.31
Si -4.43  7.03  0.77
Si -1.36  0.48  8.24
Si  0.62 -3.30  7.69
Si  2.73 -6.25 -5.05
Si -5.00 -3.06 -6.19
Si  6.04 -3.06 -5.18
Si -2.14  7.91 -2.45
Si  2.70 -8.15  0.22
Si  3.09  7.45 -2.97
Si -6.83  1.37  5.03
Si  7.65 -2.03 -3.52
Si  0.94  1.92 -8.40
Si -1.39  7.19 -4.66
Si  8.46  1.79  1.29
Si  3.58  6.60  4.51
Si -4.54 -7.10  2.43
Si -5.84  0.23  6.55
Si -0.09 -0.14 -8.79
Si -7.30 -3.94 -2.97
Si -1.64  7.07  5.03
Si  2.46 -7.72 -3.52
Si -2.95  4.09 -7.26
Si  8.21  2.21 -2.45
Si -0.65  5.92  6.55
Si -7.39 -2.87  3.96
Si  8.42 -1.40  2.43
Si -7.89 -2.03 -3.52
Si  5.42  2.17 -6.70
Si  1.18  0.94  8.76
Si  5.35  5.14 -5.05
Si -4.19  6.60  4.51
Si -3.26 -5.47  6.55
Si -7.62 -0.56 -5.05
Si  3.70  4.10  7.32
Si -5.59  4.32 -5.92
Si -0.44 -7.08 -5.92
Si  5.29  0.10 -7.63
Si -4.68  7.45 -2.97
Si  0.09  9.17  1.55
Si  9.20  1.07 -0.92
Si -4.07  4.10  7.32
Si  2.74  8.94  0.22
Si  1.10 -9.18 -1.44
Si -6.87 -1.83  6.16
Si  7.92 -0.56 -5.05
Si  1.63  7.06  6.03
Si -6.80 -4.79  4.51
Si  0.10 -5.60 -7.63
Si -5.04 -6.25 -5.05
Si  6.09  3.87  6.16
Si  8.14 -2.87  3.96
Si -1.98 -2.64 -8.91
Si  6.63  6.77 -0.92
Si  8.49 -4.37  0.77
Si -5.07 -8.15  0.22
Si  5.88  7.49  1.29
Si  8.24 -3.94 -2.97
Si  4.82  4.09 -7.26
Si -7.18 -6.45 -0.15
Si  4.51 -5.47  6.55
Si -2.02 -3.07  9.02
Si -2.18 -9.18 -2.45
Si -9.63  1.33  0.77
Si  6.87  6.35  2.81
Si  6.28 -1.59  7.32
Si -9.76 -0.75 -0.15
Si  1.22 -5.21  8.24
Si -0.15  9.59 -2.19
Si  0.89  8.33 -5.18
Si  3.52 -3.78 -8.40
Si  2.99  8.52  3.96
Si -1.93 -9.60  1.29
Si  0.31 -8.34  5.29
Si  9.45  0.65  2.81
Si  2.95 -8.57  3.96
Si  3.17  2.63  9.02
Si  5.82  2.40  7.69
Si  2.71  5.79 -7.63
Si  3.21  3.06 -8.91
Si  1.35 -9.61  2.30
Si -9.25 -3.49 -1.44
Si  5.63  7.91 -2.45
Si -5.32 -7.72 -3.52
Si  6.79 -4.33  6.03
Si -9.00 -3.91  2.30
Si -6.39  7.49  2.30
Si -7.58  2.64 -6.19
Si -4.26 -3.78 -8.40
Si  8.71  1.37  5.03
Si  8.96  1.50 -4.66
Si  0.85 -8.76 -5.18
Si  1.15 -2.25  9.90
Si  0.34  8.75  5.29
Si -9.51 -1.17  3.58
Si -3.27 -0.96 -9.66
Si -5.03  8.94  0.22
Si  2.49  9.37 -3.52
Si -7.43 -6.02 -3.89
Si  3.48 -7.52  6.16
Si -3.31  0.94  9.77
Si -0.06  3.06 -9.92
Si  1.09 -7.29  7.32
Si -6.93 -6.87  3.58
Si  7.96  2.64 -6.19
Si -6.64  7.91 -1.44
Si -1.18 -10.32 -0.92
Si -9.38  0.91  4.51
Si  6.41  0.48  8.24
Si -9.88  1.75 -2.97
Si -4.60  2.63  9.02
Si -4.55  3.06 -8.91
Si  7.40 -1.60 -7.26
Si  2.18 -0.20 10.29
Si  2.21 -7.30 -7.26
Si  3.05 -9.64 -2.97
Si -4.78  8.52  3.96
Si  8.36 -6.45 -0.15
Si  2.52 -2.64 -9.92
Si -1.43  3.45  9.90
Si -4.82 -8.57  3.96
Si  6.13  7.07  5.03
Si  3.30 -10.06  0.77
Si -4.29 -7.52  6.16
Si -10.29 -2.22  1.55
Si -2.39  8.33 -6.19
Si  3.76 -4.75  8.76
Si  0.63 10.65 -0.15
Si  6.38  7.19 -4.66
Si -7.55 -3.52 -6.70
Si  4.50 -0.96 -9.66
Si  2.84  7.87 -6.70
Si -10.22  3.25  0.22
Si -2.67  5.56 -8.79
Si -10.01 -0.33 -3.89
Si -4.01 -4.75  8.76
Si  4.46  0.94  9.77
Si  3.27  9.99  2.43
Si  8.67 -1.83  6.16
Si  8.11 -6.02 -3.89
Si  2.48 -5.83 -8.79
Si -5.06  5.79 -7.63
Si  0.88 10.22  3.58
Si -9.70  4.29  2.43
Si  7.58 -7.50 -2.19
Si -0.73 -4.75  9.77
Si -0.02 -3.10 -10.44
Si -10.54 -1.80 -2.19
Si  3.02 10.41 -1.31
Si  1.93  4.74 -9.66
Si  8.74 -4.79  4.51
Si  5.79 -2.64 -8.91
Si -2.42 -8.76 -6.19
Si  3.83  6.18  8.24
Si -6.83  1.92 -8.40
Si -6.59  0.94  8.76
Si -7.15 -3.30  7.69
Si  8.00 -3.52 -6.70
Si -8.14 -1.60 -7.26
Si  5.59 -9.18 -2.45
Si -3.94  6.18  8.24
Si -1.43 -9.90 -4.66
Si -4.47 -10.06  0.77
Si -2.60  2.60 -10.44
Si -0.62 -1.18 -10.99
Si -1.40  6.64  8.76
Si -9.95  4.72 -1.31
Si -9.97  2.82  3.96
Si -8.67  6.35  2.81
Si 10.44  3.47  1.55
Si 10.19  3.90 -2.19
Si  5.75 -3.07  9.02
Si -6.14  7.06  6.03
Si -4.72 -9.64 -2.97
Si -0.93 -10.74  2.81
Si -7.96 -7.50 -2.19
Si -7.71 -7.92  1.55
Si -4.50  9.99  2.43
Si -8.91  6.77 -0.92
Si -9.50 -3.06 -5.18
Si  7.83 -7.92  1.55
Si -1.24 -2.02 11.06
Si -5.28  9.37 -3.52
Si  5.84 -9.60  1.29
Si -1.68 -10.03  5.03
Si  7.12  5.92  6.55
Si -6.67 -9.18 -1.44
Si -1.64  7.62 -8.40
Si -4.93  7.87 -6.70
Si -8.75 -4.33  6.03
Si -4.75 10.41 -1.31
Si -5.25 -2.64 -9.92
Si  5.10  5.56 -8.79
Si  8.61 -6.87  3.58
Si 10.79 -3.48 -2.45
Si  3.24  8.10  7.69
Si -10.47  3.67 -3.52
Si -0.40 10.02 -5.92
Si -10.04 -2.65  5.29
Si  7.68 -0.14 -8.79
Si -0.40  5.50 10.29
Si  5.38  8.33 -6.19
Si -2.73  0.52 -11.37
Si -5.56 -7.30 -7.26
Si  9.70  0.23  6.55
Si -5.59 -0.20 10.29
Si -1.71  1.98 11.43
Si  0.38 11.07 -3.89
Si  2.80 -9.22 -6.70
Si -6.55 -5.21  8.24
Si -0.69 -6.65 -9.66
Si 11.03 -3.91  1.29
Si -6.42 -9.61  2.30
Si 11.48  2.21 -1.44
Si  7.33 -7.08 -5.92
Si -7.86 -0.14 -8.79
Si -5.29 -5.83 -8.79
Si  1.60 -10.03  6.03
Si  8.39 -3.30  7.69
Si -9.26 -1.59  7.32
Si  3.51  9.57  6.16
Si -9.45  3.87  6.16
Si  5.17  2.60 -10.44
Si -11.58  1.79  2.30
Si  3.55 -10.49  4.51
Si  1.88  6.64  9.77
Si  5.34 -8.76 -6.19
Si -6.88  8.33 -5.18
Si  8.90  7.91 -1.44
Si -1.11  0.06 11.98
Si 10.98  4.95 -0.15
Si  9.15  7.49  2.30
Si  0.87 -3.72 11.43
Si -4.53  8.10  7.69
Si -7.68  9.17  1.55
Si 11.73  1.79  2.30
Si -11.83  2.21 -1.44
Si -6.62 -2.25  9.90
Si -4.26  9.57  6.16
Si -4.22 -10.49  4.51
Si  7.87  9.17  1.55
Si -7.67 -5.60 -7.63
Si -8.42  5.92  6.55
Si  0.60 -8.34 -8.91
Si -3.01 -5.89 10.29
Si  8.71  1.92 -8.40
Si -5.84  4.74 -9.66
Si  6.34  3.45  9.90
Si  3.20 -8.99  7.69
Si -3.82  3.68 11.06
Si  2.77 10.84 -5.05
Si  6.59 -10.32 -0.92
Si  1.12  9.80  7.32
Si  0.59  8.32  9.02
Si -9.66  7.49  1.29
Si -6.68 -7.29  7.32
Si  7.87 -5.60 -7.63
Si -6.92 -8.76 -5.18
Si  3.95  3.68 11.06
Si -3.20  4.51 -10.99
Si -9.13  0.48  8.24
Si 10.69  3.05  5.29
Si -10.12  2.17 -6.70
Si -8.21 -7.08 -5.92
Si  9.95  4.32 -5.92
Si  0.69  2.34 -12.13
Si -7.46 -8.34  5.29
Si -10.79 -1.38 -5.92
Si  2.24  9.79 -7.26
Si -4.97 -9.22 -6.70
Si  7.62  9.59 -2.19
Si  5.04  0.52 -11.37
Si -11.53 -4.62 -0.92
Si -10.19  5.14 -5.05
Si -0.15 -5.18 -11.37
Si  0.64  8.75 -8.91
Si -0.34  0.29 -12.52
Si -9.16  7.19 -4.66
Si  3.17 -12.14 -0.15
Si  8.95  0.94  8.76
Si  0.56 -8.77  9.02
Si  1.43  0.52 12.50
Si 10.54 -3.06 -6.19
Si 10.73  5.37 -3.89
Si 11.22  4.53  3.58
Si -9.72  2.40  7.69
Si -7.92  9.59 -2.19
Si -7.43  8.75  5.29
Si -2.21 -12.38 -1.31
Si  6.34 -9.90 -4.66
Si 11.23  2.63 -5.18
Si -11.28 -5.05  2.81
Si -4.57 -8.99  7.69
Si  2.92 -11.72 -3.89
Si 11.78 -4.62 -0.92
Si  6.38  6.64  8.76
Si 10.75 -6.68 -1.31
Si  4.57  4.51 -10.99
Si  8.08 -8.34  5.29
Si  6.09 -10.03  5.03
Si  0.76 12.72  0.77
Si -1.68 -9.47 -8.40
Si  4.76 -5.89 10.29
Si -10.25  0.10 -7.63
Si -9.41  7.07  5.03
Si -7.14 10.65 -0.15
Si -6.89 10.22  3.58
Si  8.87 -9.18 -1.44
Si -3.47 12.04  2.81
Si  6.13  7.62 -8.40
Si -11.33  1.36  6.03
Si -9.91  7.91 -2.45
Si  7.71  3.06 -9.92
Si  7.04 -4.75  9.77
Si -12.28 -3.91  1.29
Si -5.00 10.84 -5.05
Si -0.68 -11.17  6.55
Si -4.60 -12.14 -0.15
Si  6.53 -2.02 11.06
Si -7.83  3.06 -9.92
Si  3.27 -3.36 -12.13
Si -2.23 -2.22 -12.65
Si  6.84 -10.74  2.81
Si -3.72 12.47 -0.92
Si  8.11  8.75  5.29
Si  8.65  8.33 -5.18
Si 12.77 -1.80 -2.19
Si 11.28 -4.33  5.03
Si  6.06  1.98 11.43
Si  4.30 12.04  2.81
Si  1.96 -6.88 -10.99
Si 11.53 -4.20 -4.66
Si  1.01 12.30  4.51
Si  4.05 12.47 -0.92
Si 11.11  7.03  0.77
Si  7.15 -1.18 -10.99
Si -1.96 -12.80  2.43
Si  2.46  6.22 -11.37
Si -5.89  6.64  9.77
Si -2.46 -11.95 -5.05
Si  9.40  7.06  6.03
Si 10.50 -6.25 -5.05
Si -12.53 -3.48 -2.45
Si  3.73 -7.95  9.90
Si -2.67 -8.34 -9.92
Si -6.17 -10.03  6.03
Si  8.99 -5.21  8.24
Si -4.85 -11.72 -3.89
Si 10.47 -8.15  0.22
Si 10.22 -7.72 -3.52
Si -12.33  4.95 -0.15
Si 13.02 -2.22  1.55
Si 11.00 -7.10  2.43
Si  1.47 -5.64 11.98
Si -4.04 -7.95  9.90
Si  8.62 -8.76 -5.18
Si -11.78 -4.20 -4.66
Si 12.03 -5.05  2.81
Si -1.77 -3.49 12.76
Si  7.75 -3.10 -10.44
Si -4.50 -3.36 -12.13
Si -5.53  9.79 -7.26
Si -7.79 -3.10 -10.44
Si -12.09  4.53  3.58
Si  3.42  2.21 12.76
Si -12.08  2.63 -5.18
Si -12.87  3.47  1.55
Si -1.20 13.18  2.30
Si  9.12 -9.61  2.30
Si  2.97  3.48 -12.65
Si -9.75 -2.64 -8.91
Si 11.98  1.36  6.03
Si  0.51 13.15 -2.97
Si 13.09  3.25  0.22
Si -2.64  8.76 -9.92
Si 10.86  7.45 -2.97
Si  3.42 -12.56  3.58
Si  8.92 -2.25  9.90
Si  1.34 -7.71 11.06
Si  8.40 10.65 -0.15
