500
set: 137.00  0.00  0.00
Si -0.02  0.03  0.05
Si  0.02 -0.04 -2.22
Si  0.01 -2.09  0.82
Si  1.88  1.11  0.74
Si -1.91  1.10  0.68
Si  0.03  2.09 -2.98
Si -1.82 -3.18 -0.02
Si -1.91  1.09  2.94
Si  1.84 -3.19 -0.02
Si  3.69 -0.01  0.00
Si  1.83 -1.12 -3.02
Si -1.84 -1.10 -3.06
Si  1.95  1.10  2.99
Si  0.01 -2.09  3.11
Si -1.81  3.31  0.05
Si -3.77 -0.03 -0.05
Si  1.88  3.27 -0.03
Si  0.02  2.09  3.70
Si  3.68 -2.13  0.77
Si -1.85  3.21 -2.23
Si  3.69 -0.07 -2.26
Si -3.69 -2.14  0.84
Si  1.84  3.21 -2.29
Si  0.06  4.31  0.69
Si -1.84 -3.24 -2.31
Si  1.90 -1.06  3.81
Si -3.73 -0.04 -2.34
Si  1.91 -3.25 -2.29
Si -1.88 -1.05  3.88
Si  3.67  2.06 -3.02
Si  0.07  4.23  3.00
Si -3.70  2.14 -3.01
Si  0.02 -4.29 -3.02
Si -3.73 -2.11  3.12
Si  3.69 -2.24  3.07
Si -1.85 -5.31  0.80
Si  0.02  2.17 -5.26
Si -1.83 -1.00 -5.30
Si  1.91 -0.99 -5.28
Si -3.71  2.18  3.75
Si  1.86 -5.36  0.71
Si  3.71  4.29  0.76
Si -3.70  4.32  0.75
Si  5.58  1.08  0.85
Si -5.63  1.05  0.61
Si  0.04 -4.27  3.89
Si  3.76  2.17  3.86
Si  0.08 -2.10 -5.96
Si  5.48 -1.15 -3.04
Si -0.07  2.17  6.01
Si -5.55 -3.16  0.06
Si  5.53 -3.22  0.01
Si  1.80 -5.37  2.98
Si -0.02 -6.40 -0.01
Si -5.59  1.11  2.93
Si -1.78 -5.35  3.05
Si -3.68  4.32  2.99
Si  0.00  6.42 -0.05
Si -5.57  3.20 -0.00
Si -3.70 -4.28 -3.04
Si -1.82  1.17 -6.05
Si  1.88  5.33 -3.08
Si  3.72  4.31  3.03
Si -1.78  5.43 -2.99
Si  5.59  3.23 -0.00
Si  5.58  1.02  3.11
Si  1.87 -0.94  6.12
Si  3.73 -4.32 -3.09
Si -5.64 -1.10 -3.05
Si -1.87 -1.07  6.14
Si  1.87  1.14 -6.13
Si  5.49  3.14 -2.25
Si -1.78  5.29  3.75
Si -5.52 -3.20 -2.20
Si -3.68  2.18 -5.27
Si  0.02 -4.24 -5.31
Si  5.52 -3.26 -2.25
Si -5.61 -1.02  3.71
Si  3.67  2.14 -5.31
Si  5.52 -1.12  3.82
Si -5.56  3.22 -2.28
Si  1.88  5.33  3.83
Si -3.68 -4.28  3.83
Si -0.06  0.07  6.86
Si -0.01 -6.47 -2.28
Si  0.13  6.48 -2.27
Si  3.76 -4.43  3.71
Si  7.30 -0.05 -0.07
Si -3.73  2.11  6.00
Si -3.69 -2.15 -6.02
Si -0.04  4.34 -5.98
Si  3.69 -6.41 -0.09
Si  3.74  6.40  0.02
Si -3.68 -6.45  0.02
Si -3.73  6.44 -0.09
Si  3.72  2.13  6.10
Si -0.04 -4.23  6.14
Si  3.69 -2.17 -6.12
Si -7.53 -0.05 -0.07
Si  1.88 -3.12  6.77
Si  7.32 -0.04 -2.34
Si -1.86  7.45  0.71
Si -3.63 -4.30 -5.26
Si  1.81  3.17  6.80
Si  7.37 -2.19  0.73
Si -3.75  0.01  6.77
Si -3.67 -6.42 -2.29
Si -5.56 -5.33  0.80
Si  5.52 -1.06 -5.32
Si -3.71  6.39 -2.31
Si -1.90  3.22  6.79
Si -1.92  5.38 -5.25
Si  3.67 -4.27 -5.35
Si  5.56 -5.40  0.71
Si  1.86  7.52  0.80
Si  3.75  6.43 -2.29
Si  3.71 -6.46 -2.31
Si -5.60 -1.12 -5.32
Si -7.46 -2.19  0.73
Si -1.92 -3.19  6.87
Si  3.78 -0.02  6.86
Si  1.88  5.45 -5.35
Si -7.51 -0.04 -2.34
Si -1.75  7.43  3.02
Si  3.66 -4.28  5.98
Si -5.56  1.04 -5.99
Si  5.54  5.31 -3.02
Si  7.38 -2.16  2.98
Si  7.37  2.16 -3.04
Si -3.73  4.31 -5.99
Si -5.63 -1.07  5.98
Si -5.50 -5.38  3.09
Si -1.89  5.37  6.03
Si  5.53  1.09 -6.09
Si -5.59  5.32 -3.05
Si  1.91  7.47  3.09
Si -7.45 -2.16  2.98
Si  1.85  5.33  6.12
Si  5.61 -1.14  6.04
Si  1.83 -7.54 -3.05
Si  3.66  4.29 -6.14
Si -1.80 -5.42 -6.07
Si  1.79 -5.35 -6.14
Si -1.88 -7.54 -3.02
Si -7.46  2.16 -3.04
Si -3.73 -4.26  6.13
Si  5.67 -5.42  3.02
Si -0.03 -2.19 -8.22
Si -0.00 -8.49  0.76
Si -5.57  5.34  3.74
Si -1.87 -7.46  3.81
Si  1.85 -7.51  3.74
Si -1.87  1.11 -8.31
Si  7.39  2.09  3.89
Si  5.55  5.39  3.81
Si  7.41  4.36  0.76
Si -7.42  4.36  0.76
Si  1.85  1.06 -8.38
Si -7.45  2.09  3.89
Si -7.36 -4.25 -2.94
Si -0.03 -0.04 -9.04
Si  7.39  4.24  3.08
Si  0.05  8.60 -2.94
Si  7.47 -4.25 -2.94
Si -7.45  4.24  3.08
Si -0.03 -8.61  3.08
Si  0.05  0.03  9.18
Si -3.66 -2.11 -8.26
Si  9.21  1.05  0.61
Si  0.04  4.30 -8.23
Si -7.36 -4.31  3.79
Si -0.00  6.38  6.82
Si  1.79 -7.46 -5.32
Si  3.72 -8.53  0.75
Si  0.06  8.54  3.79
Si  5.55 -3.25  6.78
Si  7.42  2.09 -5.30
Si -7.42  2.09 -5.30
Si -9.26  1.08  0.85
Si -5.56  7.49  0.71
Si  5.56  5.32 -5.33
Si -3.71 -8.57  0.76
Si -5.51  3.29  6.84
Si -5.63 -3.18  6.79
Si  0.02 -6.40  6.86
Si  3.71 -2.10 -8.37
Si  5.57  7.54  0.80
Si  5.58  3.28  6.82
Si -1.86 -7.53 -5.33
Si  7.48 -4.31  3.79
Si -5.63  5.39 -5.32
Si -5.55 -5.22 -6.00
Si  1.87 -7.43  5.98
Si -1.82 -7.40  6.07
Si  9.19 -1.10 -3.05
Si  5.55 -5.36 -5.97
Si -3.69 -0.03  9.03
Si -1.84 -3.26 -9.01
Si  9.25  1.11  2.93
Si -1.87  7.50 -5.97
Si  1.77  3.19  9.07
Si  1.88 -3.24  9.03
Si  5.64 -7.42 -2.99
Si -1.78  3.22 -9.07
Si  3.74 -8.53  2.99
Si -9.24  3.23 -0.00
Si  7.35 -2.11 -6.11
Si -3.70 -8.54  3.03
Si -1.94  3.13  9.07
Si -1.82 -9.62 -0.00
Si -5.55  5.42  5.98
Si -3.69  8.54 -3.09
Si  9.28 -3.16  0.06
Si  9.27  3.20 -0.00
Si  3.71  0.00  9.08
Si -1.78 -3.13  9.13
Si -3.70  0.03 -9.09
Si  7.40  6.45 -0.01
Si -7.41 -6.43 -0.05
Si -9.26  1.02  3.11
Si -1.89  9.63  0.01
Si  7.42 -6.43 -0.05
Si -5.62  7.48  2.98
Si -7.34  2.18  6.15
Si  1.85 -9.65 -0.00
Si  3.71  8.57 -3.04
Si -5.53 -7.52 -3.08
Si -7.44  6.45 -0.01
Si  1.80  3.20 -9.14
Si -9.31 -3.22  0.01
Si  3.74  0.04 -9.13
Si  1.86  9.69  0.06
Si  5.64  7.50  3.05
Si  1.87  7.63 -6.00
Si -7.48 -2.11 -6.11
Si  1.83 -3.17 -9.19
Si  5.59  5.46  6.07
Si -9.35 -1.15 -3.04
Si -3.66  8.42  3.71
Si  7.50  2.18  6.15
Si -7.29 -6.37 -2.27
Si  7.36 -4.21 -5.26
Si  9.22 -1.02  3.71
Si -5.54  1.04 -8.29
Si -1.90  9.59 -2.25
Si -3.68  4.29 -8.29
Si  7.41  6.38 -2.28
Si -7.42  6.38 -2.28
Si -7.39  0.04  6.81
Si  3.67 -6.43  6.81
Si -3.68 -6.39  6.84
Si -7.47 -4.21 -5.26
Si  0.13 -2.09  9.85
Si  1.86 -9.63 -2.28
Si  1.89  9.65 -2.20
Si -3.75  6.42  6.81
Si  9.28  3.22 -2.28
Si -1.89 -5.41 -8.30
Si  7.44  0.04  6.81
Si  9.31 -3.20 -2.20
Si  3.76  4.14 -8.41
Si -5.54 -7.53  3.83
Si  3.73  8.57  3.83
Si -1.90  1.02  9.87
Si  1.81 -5.30 -8.41
Si -9.35  3.14 -2.25
Si -9.31 -3.26 -2.25
Si -0.06  8.64 -5.26
Si -9.31 -1.12  3.82
Si  3.74  6.46  6.84
Si  5.63  1.01 -8.36
Si  7.55 -6.37 -2.27
Si  5.63 -7.56  3.75
Si  1.89  1.08  9.92
Si -1.93 -9.71 -2.25
Si  0.00  8.50  6.04
Si -7.41  4.22 -6.08
Si  7.42  4.22 -6.08
Si -7.41 -4.35  6.04
Si  7.42 -4.35  6.04
Si  0.01 -8.63 -6.08
Si -0.10  4.24  9.77
Si  5.50 -7.47 -5.25
Si -5.54 -7.40 -5.35
Si -0.05 10.66  0.73
Si -3.71 -2.18  9.80
Si  9.23 -1.12 -5.32
Si  9.28 -5.33  0.80
Si  3.78  8.55 -5.26
Si  3.75 -2.13  9.83
Si -9.27 -5.40  0.71
Si -9.31 -1.06 -5.32
Si -3.75  8.58 -5.35
Si  9.20 -1.07  5.98
Si -5.50  3.19 -9.03
Si -5.54 -9.58 -0.03
Si  3.69 -8.54 -5.99
Si 11.07 -0.03 -0.05
Si -9.17 -5.42  3.02
Si  5.61 -9.55  0.05
Si -9.22 -1.14  6.04
Si  5.53 -7.48  6.03
Si  9.27  1.04 -5.99
Si  9.24  5.32 -3.05
Si -0.04 10.69  2.98
Si  0.01  6.48 -9.01
Si -5.46 -3.18 -9.13
Si  5.58  3.19  9.06
Si -3.76  8.57  5.98
Si -0.04 -10.69 -3.04
Si  5.61  7.43 -6.07
Si -9.30  5.31 -3.02
Si -5.59  3.16  9.09
Si -0.04  6.44  9.08
Si  5.54 -3.26  9.09
Si -5.59 -3.25  9.07
Si -11.14 -0.01  0.00
Si -5.57  9.67 -0.02
Si  5.51 -3.19 -9.18
Si  5.67  3.15 -9.09
Si  5.59  9.67 -0.02
Si -9.31  1.09 -6.09
Si  3.68  8.59  6.13
Si -3.75 -8.56 -6.14
Si -0.03 -6.44 -9.14
Si -5.57 -7.53  6.12
Si  0.03 -6.48  9.13
Si  9.33 -5.38  3.09
Si -5.63  7.50 -6.14
Si  5.54 -5.33 -8.24
Si  3.68  4.24  9.78
Si -7.36 -8.54  0.69
Si -5.51  9.60 -2.29
Si -5.51  1.03  9.82
Si -5.51 -5.34 -8.31
Si -1.88  7.52 -8.24
Si  5.58  1.04  9.81
Si  9.27  5.34  3.74
Si  1.84 -5.36  9.82
Si 11.10 -0.04 -2.34
Si -3.73  4.21  9.86
Si  5.58  9.61 -2.31
Si  5.57 -9.64 -2.23
Si -0.00  0.08 -11.36
Si  1.90  7.51 -8.31
Si -5.58 -9.64 -2.29
Si  7.47 -8.54  0.69
Si -11.14 -0.07 -2.26
Si  3.73 10.71  0.84
Si -11.15 -2.13  0.77
Si -3.74 10.72  0.77
Si 11.15 -2.14  0.84
Si -9.29  5.39  3.81
Si -1.85 -5.36  9.89
Si -7.40 -2.19 -8.42
Si  7.43 -2.19 -8.42
Si -0.03 -10.76  3.89
Si  3.69  6.33 -9.04
Si  3.69 -6.39 -9.00
Si -3.73 10.61  3.07
Si -3.73  6.46 -9.00
Si -3.75  6.35  9.10
Si -7.34 -0.05 -9.12
Si -7.40  8.56 -3.02
Si -7.34 -8.62  3.00
Si -7.40 -0.01  9.10
Si 11.11 -2.11  3.12
Si 11.14  2.14 -3.01
Si  3.72 -10.71 -3.01
Si  7.43  8.56 -3.02
Si  3.72  6.42  9.11
Si -3.70 -6.43  9.11
Si -11.17  2.06 -3.02
Si  7.43 -0.01  9.10
Si -3.73 -6.52 -9.04
Si  3.67 -6.50  9.10
Si -11.14 -2.24  3.07
Si  3.69 10.74  3.12
Si  7.49 -0.05 -9.12
Si  7.49 -8.62  3.00
Si -3.75 -10.79 -3.02
Si -1.84 -3.20 -11.27
Si  9.20 -3.18  6.79
Si -1.83 -9.57  6.82
Si -7.36  4.26 -8.32
Si  3.71 -10.67  3.75
Si -1.86  9.60  6.78
Si  1.91 -9.56  6.84
Si  9.20  5.39 -5.32
Si -1.85  3.26 -11.32
Si -11.08  2.17  3.86
Si -3.66 -10.68  3.86
Si -1.84 -11.77  0.85
Si 11.12  2.18  3.75
Si -11.12  4.29  0.76
Si -9.28 -3.25  6.78
Si -3.71  0.00 -11.36
Si  9.28  7.49  0.71
Si  1.79 -11.80  0.61
Si -9.28  5.32 -5.33
Si -9.25  3.28  6.82
Si  1.78  9.67  6.79
Si 11.13  4.32  0.75
Si  0.06 -8.59 -8.32
Si  3.72  0.04 -11.37
Si -7.38  8.58  3.89
Si  7.48  4.26 -8.32
Si -9.27  7.54  0.80
Si  7.42 -6.48  6.82
Si -7.40  6.45  6.86
Si -7.42 -6.48  6.82
Si  0.00 -10.76 -5.30
Si  1.86  3.21 -11.40
Si  7.43  6.45  6.86
Si  7.46  8.58  3.89
Si  9.32  3.29  6.84
Si  1.79 -3.23 -11.50
Si -9.20 -7.42 -2.99
Si  9.29 -5.22 -6.00
Si  1.83 -11.74  2.93
Si  9.22  7.48  2.98
Si -1.94 11.70 -3.04
Si -9.20  7.50  3.05
Si  0.00 -2.15 12.06
Si -9.29 -5.36 -5.97
Si  1.77 11.76 -3.05
Si -1.82 -1.05 -12.12
Si -11.12  4.31  3.03
Si  9.29  5.42  5.98
Si  1.85 -1.08 -12.12
Si 11.13 -4.28 -3.04
Si -11.11 -4.32 -3.09
Si  0.08 -10.67  6.15
Si -1.89  1.06 12.12
Si -0.02  2.17 -12.13
Si -9.24  5.46  6.07
Si 11.16  4.32  2.99
Si  9.30 -7.52 -3.08
Si -0.07 10.74 -6.11
Si  1.86  1.12 12.18
Si -1.84 -11.83  3.11
Si  5.52  7.45 -8.30
Si -9.20  1.01 -8.36
Si  3.74 -10.67 -5.27
Si -1.89 11.73  3.82
Si -9.20 -7.56  3.75
Si  3.73 -8.56 -8.29
Si -1.93  7.42  9.87
Si -11.08 -4.43  3.71
Si  9.29  1.04 -8.29
Si -5.56 -5.35  9.84
Si  7.41 -2.19  9.84
Si  1.86  7.50  9.84
Si -7.42 -2.19  9.84
Si -3.74 -10.71 -5.31
Si  1.80 11.83  3.71
Si  5.49 -5.43  9.87
Si 11.16  2.18 -5.27
Si -7.39  8.61 -5.31
Si 11.15 -4.28  3.83
Si -11.16  2.14 -5.31
Si  9.29 -7.53  3.83
Si  7.44  8.61 -5.31
Si -5.61  7.55 -8.41
Si -3.66 -8.71 -8.41
Si  7.38 -8.52 -5.98
Si -0.12  4.23 12.04
Si -3.73 -2.13 12.03
Si -7.45 -8.52 -5.98
Si 11.11  2.11  6.00
Si -0.12 12.80 -0.07
Si -11.10  6.40  0.02
Si -3.68  2.12 -12.09
Si  3.72 10.70 -6.02
Si 11.11  6.44 -0.09
Si 11.14 -2.15 -6.02
Si  3.69 -10.74  6.00
Si -11.14 -6.41 -0.09
Si -11.11  2.13  6.10
Si -3.73 10.68 -6.12
Si -3.69 -10.72  6.10
Si 11.15 -6.45  0.02
Si  3.74 -2.17 12.14
Si -11.14 -2.17 -6.12
Si -0.11 -12.90 -0.07
Si  7.38  8.62  6.14
Si  3.69  2.16 -12.21
Si -0.11 -4.33 -12.19
Si -7.45  8.62  6.14
Si 12.92  1.10  0.68
Si 11.09  0.01  6.77
Si  5.51 -11.75  0.68
Si -5.54 -11.74  0.74
Si -11.05 -0.02  6.86
Si -1.86 -1.12 12.82
Si  1.81 11.73 -5.32
Si -0.05  2.09 12.85
Si -5.56  3.24 -11.31
Si  5.52 -9.63  6.79
Si -11.08  6.43 -2.29
