500
set: 503.00  0.00  0.00
Si  0.00  0.00  0.00
Si -1.83  1.10  0.78
Si  0.00 -2.20  0.78
Si  1.91  1.10  0.78
Si -0.12 -0.00 -2.35
Si  1.71 -1.11 -3.13
Si -1.71  1.11  3.13
Si  3.74  0.00  0.00
Si -3.74  0.00  0.00
Si  1.83 -3.30  0.00
Si -1.83  3.30  0.00
Si -1.91 -3.30  0.00
Si  1.91  3.30  0.00
Si  0.12 -2.19  3.13
Si -0.12  2.19 -3.13
Si  2.03  1.11  3.13
Si -2.03 -1.11 -3.13
Si  3.62 -0.00 -2.35
Si  1.71 -3.31 -2.35
Si -1.70 -1.09  3.91
Si -3.73 -2.20  0.78
Si  3.74 -2.20  0.78
Si  1.79  3.30 -2.35
Si  0.08  4.40  0.78
Si -1.95  3.30 -2.35
Si  0.21  2.21  3.91
Si -3.86 -0.00 -2.35
Si -2.03 -3.31 -2.35
Si  2.03 -1.09  3.91
Si  3.61  2.19 -3.13
Si -3.61 -2.19  3.13
Si  0.20  4.41  3.13
Si -0.20 -4.41 -3.13
Si -3.86  2.19 -3.13
Si  3.86 -2.19  3.13
Si -3.53  2.21  3.91
Si -5.56  1.10  0.78
Si -3.65  4.40  0.78
Si  5.65  1.10  0.78
Si  1.58 -1.11 -5.48
Si  1.83 -5.50  0.78
Si -1.91 -5.50  0.78
Si  0.12 -4.39  3.91
Si  3.82  4.40  0.78
Si -0.24  2.19 -5.48
Si  3.94  2.21  3.91
Si -2.15 -1.11 -5.48
Si  5.44 -1.11 -3.13
Si -5.44  1.11  3.13
Si -3.53  4.41  3.13
Si  3.53 -4.41 -3.13
Si -5.56  3.30  0.00
Si  5.56 -3.30  0.00
Si  5.64  3.30  0.00
Si -5.64 -3.30  0.00
Si -1.58 -1.09  6.26
Si  1.58  1.09 -6.26
Si -1.79 -5.49  3.13
Si  1.79  5.49 -3.13
Si  0.08  6.60  0.00
Si -0.08 -6.60  0.00
Si -1.95  5.49 -3.13
Si  1.95 -5.49  3.13
Si  0.33  2.21  6.26
Si -0.33 -2.21 -6.26
Si  5.77  1.11  3.13
Si -5.77 -1.11 -3.13
Si -3.94 -4.41 -3.13
Si  3.94  4.41  3.13
Si  2.15 -1.09  6.26
Si -2.15  1.09 -6.26
Si -5.44 -1.09  3.91
Si  5.44 -3.31 -2.35
Si  5.52  3.30 -2.35
Si  3.49  2.19 -5.48
Si -3.61 -4.39  3.91
Si -1.62  5.51  3.91
Si -5.68  3.30 -2.35
Si -0.04  6.60 -2.35
Si -0.20 -6.61 -2.35
Si  3.86 -4.39  3.91
Si -0.33 -4.41 -5.48
Si  0.33  0.02  7.04
Si -5.77 -3.31 -2.35
Si  5.77 -1.09  3.91
Si  2.12  5.51  3.91
Si -3.98  2.19 -5.48
Si -3.41  2.21  6.26
Si  3.41 -2.21 -6.26
Si  7.47  0.00  0.00
Si -7.47  0.00  0.00
Si  3.65 -6.60  0.00
Si -3.65  6.60  0.00
Si  3.82  6.60  0.00
Si -3.82 -6.60  0.00
Si  0.24 -4.39  6.26
Si -0.24  4.39 -6.26
Si  5.32 -1.11 -5.48
Si  7.35 -0.00 -2.35
Si  4.06  2.21  6.26
Si -4.06 -2.21 -6.26
Si  3.41 -4.41 -5.48
Si -3.41  0.02  7.04
Si -7.47 -2.20  0.78
Si  7.47 -2.20  0.78
Si  3.53 -6.61 -2.35
Si  5.57 -5.50  0.78
Si -5.64 -5.50  0.78
Si  3.70  6.60 -2.35
Si -1.50  3.32  7.04
Si -1.58 -3.28  7.04
Si  1.67  5.49 -5.48
Si -1.74  7.71  0.78
Si -7.59 -0.00 -2.35
Si -3.78  6.60 -2.35
Si  1.99  7.71  0.78
Si -2.07  5.49 -5.48
Si -3.94 -6.61 -2.35
Si  2.16 -3.28  7.04
Si  2.24  3.32  7.04
Si -5.89 -1.11 -5.48
Si -4.06 -4.41 -5.48
Si  4.07  0.02  7.04
Si -5.32 -1.09  6.26
Si  5.32  1.09 -6.26
Si -7.35 -2.19  3.13
Si  7.35  2.19 -3.13
Si  5.52  5.49 -3.13
Si -5.52 -5.49  3.13
Si -3.49 -4.39  6.26
Si  3.49  4.39 -6.26
Si  1.50 -5.52 -6.26
Si -1.50  5.52  6.26
Si -1.62  7.71  3.13
Si  1.62 -7.71 -3.13
Si  7.59 -2.19  3.13
Si -7.59  2.19 -3.13
Si -5.69  5.49 -3.13
Si  5.69 -5.49  3.13
Si -7.27  2.21  3.91
Si  2.11  7.71  3.13
Si -2.11 -7.71 -3.13
Si  3.98 -4.39  6.26
Si -3.98  4.39 -6.26
Si -5.36  5.51  3.91
Si -2.23 -5.52 -6.26
Si  2.23  5.52  6.26
Si -7.39  4.40  0.78
Si -5.89  1.09 -6.26
Si  5.89 -1.09  6.26
Si  7.56  4.40  0.78
Si  1.46  1.08 -8.61
Si -1.78 -7.69  3.91
Si -0.08 -8.80  0.78
Si  1.95 -7.69  3.91
Si  7.68  2.21  3.91
Si -0.45 -2.22 -8.61
Si  5.85  5.51  3.91
Si -2.27  1.08 -8.61
Si  7.27 -4.41 -3.13
Si -7.27  4.41  3.13
Si  7.23  2.19 -5.48
Si -0.04  8.79 -3.13
Si  0.04 -8.79  3.13
Si -5.24  3.32  7.04
Si  7.68  4.41  3.13
Si -7.68 -4.41 -3.13
Si -9.30  1.10  0.78
Si  0.45  0.02  9.38
Si -0.45 -0.02 -9.38
Si -7.35 -4.39  3.91
Si -5.32 -3.28  7.04
Si  5.40  5.49 -5.48
Si  3.29 -2.22 -8.61
Si  9.38  1.10  0.78
Si -5.48  7.71  0.78
Si  3.66 -8.80  0.78
Si  1.50 -7.71 -5.48
Si  7.60 -4.39  3.91
Si -3.82 -8.80  0.78
Si  5.73  7.71  0.78
Si  0.25 -6.58  7.04
Si  0.29  8.81  3.91
Si -0.37  4.38 -8.61
Si  0.41  6.62  7.04
Si -5.81  5.49 -5.48
Si -7.72  2.19 -5.48
Si -2.23 -7.71 -5.48
Si  5.89 -3.28  7.04
Si  7.15 -2.21 -6.26
Si -7.15  2.21  6.26
Si -9.18  1.11  3.13
Si  9.18 -1.11 -3.13
Si  5.97  3.32  7.04
Si -4.18 -2.22 -8.61
Si -5.24  5.52  6.26
Si  5.24 -5.52 -6.26
Si -9.30  3.30  0.00
Si  9.30 -3.30  0.00
Si  5.36 -7.71 -3.13
Si -5.36  7.71  3.13
Si -7.39  6.60  0.00
Si  7.39 -6.60  0.00
Si -3.29  0.02  9.38
Si  3.29 -0.02 -9.38
Si  9.38  3.30  0.00
Si -9.38 -3.30  0.00
Si -7.14  0.02  7.04
Si  7.15 -4.41 -5.48
Si -7.55 -6.60  0.00
Si  7.55  6.60  0.00
Si -9.18 -1.09  3.91
Si  9.18 -3.31 -2.35
Si -3.69 -8.79  3.13
Si  3.69  8.79 -3.13
Si  1.46  3.28 -9.38
Si -1.46 -3.28  9.38
Si  1.66  7.69 -6.26
Si -1.66 -7.69  6.26
Si -1.38  3.32  9.38
Si  1.38 -3.32 -9.38
Si -1.75  9.90  0.00
Si  1.75 -9.90  0.00
Si  9.50  1.11  3.13
Si -9.50 -1.11 -3.13
Si  3.78 -8.79  3.13
Si -3.78  8.79 -3.13
Si  7.27 -6.61 -2.35
Si  1.99  9.90  0.00
Si -1.99 -9.90  0.00
Si  9.26  3.30 -2.35
Si  5.20  1.08 -8.61
Si -2.07  7.69 -6.26
Si  2.07 -7.69  6.26
Si -5.85 -7.71 -3.13
Si  5.85  7.71  3.13
Si -2.28  3.28 -9.38
Si  2.28 -3.28  9.38
Si  7.43  6.60 -2.35
Si -3.33  6.62  7.04
Si  3.37  4.38 -8.61
Si -2.36 -3.32 -9.38
Si  2.36  3.32  9.38
Si -3.45  8.81  3.91
Si -7.80 -2.21 -6.26
Si  7.80  2.21  6.26
Si -5.52 -7.69  3.91
Si -3.49 -6.58  7.04
Si -9.42  3.30 -2.35
Si  5.97  5.52  6.26
Si -5.97 -5.52 -6.26
Si -7.51  6.60 -2.35
Si -4.19 -0.02 -9.38
Si  4.19  0.02  9.38
Si  1.62 -9.91 -2.35
Si  1.38 -5.52 -8.61
Si -1.38  1.12 10.16
Si -9.50 -3.31 -2.35
Si  5.69 -7.69  3.91
Si  9.51 -1.09  3.91
Si -1.87  9.90 -2.35
Si  1.87  9.90 -2.35
Si -0.16  8.79 -5.48
Si -7.67 -6.61 -2.35
Si -2.11 -9.91 -2.35
Si  0.45 -2.18 10.16
Si  3.98 -6.58  7.04
Si  4.02  8.81  3.91
Si -2.36 -5.52 -8.61
Si -4.10  4.38 -8.61
Si  2.36  1.12 10.16
Si -7.80 -4.41 -5.48
Si  7.80  0.02  7.04
Si  4.15  6.62  7.04
Si  7.23  4.39 -6.26
Si -7.23 -4.39  6.26
Si -6.01  1.08 -8.61
Si  9.06 -1.11 -5.48
Si  5.24 -7.71 -5.48
Si -0.41 -8.82 -6.26
Si  0.41  8.82  6.26
Si  9.30 -5.50  0.78
Si -7.72  4.39 -6.26
Si  7.72 -4.39  6.26
Si -9.38 -5.50  0.78
Si -3.29 -2.18 10.16
Si  3.57  8.79 -5.48
Si  0.16 11.01  0.78
Si  9.05  1.09 -6.26
Si -9.05 -1.09  6.26
Si -3.90  8.79 -5.48
Si  0.53  4.43 10.16
Si -9.62 -1.11 -5.48
Si -5.97 -7.71 -5.48
Si -5.12  3.32  9.38
Si  5.12 -3.32 -9.38
Si  4.19 -2.18 10.16
Si -11.21  0.00  0.00
Si 11.21  0.00  0.00
Si -9.26 -5.49  3.13
Si  9.26  5.49 -3.13
Si -5.20 -3.28  9.38
Si  5.20  3.28 -9.38
Si -5.40 -7.69  6.26
Si  5.40  7.69 -6.26
Si -3.33  8.82  6.26
Si  3.33 -8.82 -6.26
Si  5.48 -9.90  0.00
Si -5.48  9.90  0.00
Si  7.03 -2.22 -8.61
Si -9.09  5.51  3.91
Si 11.09 -0.00 -2.35
Si  9.42 -5.49  3.13
Si -9.42  5.49 -3.13
Si  5.12 -5.52 -8.61
Si -5.11  1.12 10.16
Si -5.73 -9.90  0.00
Si  5.73  9.90  0.00
Si -11.21 -2.20  0.78
Si -0.28 -11.01 -3.13
Si  0.28 11.01  3.13
Si 11.21 -2.20  0.78
Si  0.37 -6.58  9.38
Si -0.37  6.58 -9.38
Si -5.81  7.69 -6.26
Si  5.81 -7.69  6.26
Si -0.53 -6.62 -9.38
Si  0.53  6.62  9.38
Si  5.36 -9.91 -2.35
Si  7.39 -8.80  0.78
Si -9.63  1.09 -6.26
Si  9.63 -1.09  6.26
Si -3.20  4.43 10.16
Si -11.33 -0.00 -2.35
Si  4.14  8.82  6.26
Si -4.14 -8.82 -6.26
Si -3.57 11.01  0.78
Si -5.60  9.90 -2.35
Si  5.61  9.90 -2.35
Si -6.01  3.28 -9.38
Si  6.01 -3.28  9.38
Si -7.55 -8.80  0.78
Si -1.46 -5.48 10.16
Si  1.54  7.68 -8.61
Si  0.04 -10.99  3.91
Si -6.09 -3.32 -9.38
Si  6.09  3.32  9.38
Si  3.90 11.01  0.78
Si -7.02  0.02  9.38
Si  7.02 -0.02 -9.38
Si -11.09 -2.19  3.13
Si 11.09  2.19 -3.13
Si  9.59  5.51  3.91
Si -5.85 -9.91 -2.35
Si -2.19  7.68 -8.61
Si -0.57 -0.03 -11.73
Si  2.28 -5.48 10.16
Si -8.97  3.32  7.04
Si  4.27  4.43 10.16
Si -11.00  2.21  3.91
Si -6.09 -5.52 -8.61
Si -7.92 -2.22 -8.61
Si  6.10  1.12 10.16
Si  3.21 -6.62 -9.38
Si -3.21  6.62  9.38
Si -9.05 -3.28  7.04
Si -7.43 -8.79  3.13
Si  7.43  8.79 -3.13
Si  3.37  6.58 -9.38
Si -3.37 -6.58  9.38
Si -3.45 11.01  3.13
Si  3.45 -11.01 -3.13
Si -11.33  2.19 -3.13
Si 11.33 -2.19  3.13
Si -7.06  6.62  7.04
Si  7.51 -8.79  3.13
Si -7.51  8.79 -3.13
Si  9.14  5.49 -5.48
Si  7.11  4.38 -8.61
Si -11.13  4.40  0.78
Si -7.18  8.81  3.91
Si -9.22  7.71  0.78
Si -7.22 -6.58  7.04
Si  4.02 11.01  3.13
Si -4.02 -11.01 -3.13
Si 11.29  4.40  0.78
Si  3.17 -0.03 -11.73
Si -4.10  6.58 -9.38
Si  4.10 -6.58  9.38
Si  9.46  7.71  0.78
Si -3.69 -10.99  3.91
Si -1.42  9.92  7.04
Si -1.66 -9.89  7.04
Si  1.75 -12.10  0.78
Si -8.97  5.52  6.26
Si  8.97 -5.52 -6.26
Si -4.27 -6.62 -9.38
Si  4.27  6.62  9.38
Si  1.34  3.27 -11.73
Si 11.01 -4.41 -3.13
Si -11.01  4.41  3.13
Si  1.26 -3.33 -11.73
Si  3.78 -10.99  3.91
Si 11.41  2.21  3.91
Si -7.92 -0.02 -9.38
Si  7.92  0.02  9.38
Si -1.99 -12.10  0.78
Si -9.54  5.49 -5.48
Si -0.41 -11.02 -5.48
Si  2.08 -9.89  7.04
Si  9.10 -7.71 -3.13
Si -9.10  7.71  3.13
Si -0.53 -8.82 -8.61
Si  7.72 -6.58  7.04
Si  9.63 -3.28  7.04
Si  7.76  8.81  3.91
Si  2.32  9.92  7.04
Si -2.40  3.27 -11.73
Si -7.84  4.38 -8.61
Si  9.71  3.32  7.04
Si -2.48 -3.33 -11.73
Si 10.96  2.19 -5.48
Si  8.93  1.08 -8.61
Si  7.88  6.62  7.04
Si -4.31 -0.03 -11.73
Si -7.02 -2.18 10.16
Si -11.08 -4.39  3.91
Si -1.26  1.13 12.51
Si  1.26 -1.13 -12.51
Si 11.41  4.41  3.13
Si -11.41 -4.41 -3.13
Si  1.87 12.10 -3.13
Si -1.87 -12.10  3.13
Si  1.87 -12.10  3.13
Si -1.87 12.10 -3.13
Si -0.16 10.99 -6.26
Si  0.16 -10.99  6.26
Si -9.26 -7.69  3.91
Si -5.19 -5.48 10.16
Si  7.31  8.79 -5.48
Si  5.28  7.68 -8.61
Si  9.59  7.71  3.13
Si -9.59 -7.71 -3.13
Si -0.57  2.17 -12.51
Si  0.57 -2.17 12.51
Si  3.21 -8.82 -8.61
Si  3.33 -11.02 -5.48
Si 10.88 -2.21 -6.26
Si -10.88  2.21  6.26
Si 11.33 -4.39  3.91
Si  9.43 -7.69  3.91
Si  9.71  5.52  6.26
Si -9.71 -5.52 -6.26
Si  2.48  1.13 12.51
Si -2.48 -1.13 -12.51
Si -1.54 12.11  3.91
Si -1.29  7.73 10.16
Si -7.63  8.79 -5.48
Si -11.45  2.19 -5.48
Si  7.07 -8.82 -6.26
Si -7.07  8.82  6.26
Si  2.20 12.11  3.91
Si 11.13 -6.60  0.00
Si -11.13  6.60  0.00
Si -10.88  0.02  7.04
Si 10.88 -4.41 -5.48
Si -5.93  7.68 -8.61
Si -4.14 -11.02 -5.48
Si  2.44  7.73 10.16
Si  6.01 -5.48 10.16
Si  8.97 -7.71 -5.48
Si -4.26 -8.82 -8.61
Si -9.75  1.08 -8.61
Si 11.01 -6.61 -2.35
Si  7.92 -2.18 10.16
Si 11.29  6.60  0.00
Si -11.29 -6.60  0.00
Si -6.94  4.43 10.16
Si  3.16  2.17 -12.51
Si -3.16 -2.17 12.51
Si -13.03  1.10  0.78
Si  3.57 10.99 -6.26
Si -3.57 -10.99  6.26
Si  4.99 -3.33 -11.73
Si 11.17  6.60 -2.35
Si 13.12  1.10  0.78
Si  5.08  3.27 -11.73
Si  0.16 13.20  0.00
Si -0.16 -13.20  0.00
Si -5.15  9.92  7.04
Si  3.90 -10.99  6.26
Si -3.90 10.99 -6.26
Si -7.31 11.01  0.78
Si -11.25  6.60 -2.35
Si -5.40 -9.89  7.04
Si  0.65  4.43 12.51
Si -0.65 -4.43 -12.51
Si  5.48 -12.10  0.78
Si 11.54  2.21  6.26
Si -11.54 -2.21 -6.26
