500
set: 666.00  0.00  0.00
Si -1.30  0.35 -0.69
Si  0.87  1.21 -1.12
Si -1.65 -1.52  1.18
Si -1.54 -1.54 -1.64
Si  1.65 -1.01 -2.12
Si -0.09 -2.97  0.29
Si  1.48  3.09  0.52
Si -2.73  2.27 -0.05
Si  1.93 -0.80  3.03
Si  2.74  0.97 -2.54
Si  3.44 -1.64 -0.61
Si -1.16  3.32  1.88
Si  0.55  0.85  3.99
Si -0.17 -2.13  3.57
Si -3.01  1.32  2.70
Si  0.13  2.77 -3.26
Si  2.50  2.26  2.69
Si -4.05 -0.70  1.46
Si -1.64 -3.92 -1.25
Si  1.95 -4.03 -0.49
Si  0.37 -1.95 -4.24
Si  3.52 -2.70  1.64
Si -2.98 -1.11 -3.57
Si  4.62  1.06  1.47
Si -1.73  4.38 -1.71
Si -0.13 -4.50  2.27
Si -3.25 -0.91  3.95
Si -1.21 -0.21 -5.26
Si  5.31  0.30 -0.98
Si  0.60  5.21 -1.63
Si -3.80  2.26 -3.42
Si  2.94 -2.40 -4.12
Si -0.57 -4.18 -3.72
Si -5.60  0.30 -0.98
Si  1.94 -4.92  2.25
Si -2.02 -5.36  0.70
Si -1.21 -0.21  5.65
Si -2.12  4.04 -3.81
Si -2.02  5.56  0.70
Si  0.60 -5.71 -1.63
Si -5.21  2.71 -1.17
Si  0.52  2.72 -5.36
Si  3.04 -4.52 -2.63
Si  3.32 -0.69  5.05
Si  3.72  2.10 -4.40
Si  5.07 -0.02  3.52
Si -3.04  1.10  5.27
Si  0.52  2.72  5.56
Si -2.96 -3.03  4.55
Si -5.13  0.18 -3.63
Si -4.96  2.23  3.24
Si -5.07 -2.72  2.65
Si  3.46 -5.37  0.18
Si -5.27 -3.64 -0.18
Si  2.27  3.83 -4.61
Si  5.71  2.71 -1.17
Si -3.20 -4.81  2.86
Si -3.35 -5.20 -1.86
Si -3.04  1.10 -5.65
Si  4.91 -2.59 -3.44
Si  3.46  5.54  0.18
Si -6.29  1.06  1.47
Si -3.15 -3.97 -4.16
Si  1.06 -3.61 -5.39
Si  1.06 -3.61  5.53
Si -3.02  3.84  4.57
Si  1.94  6.00  2.25
Si  5.65 -3.64 -0.18
Si  3.32 -0.69 -5.87
Si  4.32  2.85  4.39
Si -0.13  6.41  2.27
Si -5.84 -0.02  3.52
Si -4.85  4.78  0.46
Si  5.79  0.18 -3.63
Si -3.35  5.71 -1.86
Si  0.37 -1.95  6.68
Si  5.84 -2.72  2.65
Si -1.73 -6.53 -1.71
Si  0.55  0.85 -6.92
Si  4.94  3.90 -3.12
Si  6.87 -0.70  1.46
Si  5.96  2.23  3.24
Si  1.95  6.89 -0.49
Si -1.64  7.00 -1.25
Si -6.00 -2.59 -3.44
Si  5.16 -4.84 -2.27
Si -3.20  6.10  2.86
Si  3.04  6.39 -2.63
Si  3.66 -5.28  4.05
Si -2.96 -3.03 -6.36
Si -0.17 -2.13 -7.34
Si -7.47 -1.64 -0.61
Si -0.57  6.73 -3.72
Si  2.27  3.83  6.31
Si  6.06  4.78  0.46
Si -3.25 -0.91 -6.96
Si  2.94 -2.40  6.79
Si  3.72  2.10  6.51
Si -5.98  3.90 -3.12
Si -4.85 -6.13  0.46
Si  3.66  5.63  4.05
Si -5.75 -4.84 -2.27
Si -5.34  4.86  3.11
Si -1.16 -7.59  1.88
Si -0.09  7.94  0.29
Si  1.48 -7.82  0.52
Si -2.98 -1.11  7.34
Si -3.02  3.84 -6.34
Si  5.58  4.86  3.11
Si -7.39 -2.70  1.64
Si  0.13  2.77  7.65
Si -2.12 -6.88 -3.81
Si  1.93 -0.80 -7.88
Si  7.11  2.26 -3.42
Si  5.22 -3.48  5.34
Si  5.16  6.08 -2.27
Si  4.32  2.85 -6.53
Si -0.57 -4.18  7.19
Si  5.22 -3.48 -5.58
Si -6.60  2.85  4.39
Si -2.12  4.04  7.10
Si -3.15 -3.97  6.75
Si  7.91  1.32  2.70
Si  8.19  2.27 -0.05
Si -5.70 -3.48  5.34
Si -8.18  0.97 -2.54
Si  6.06 -6.13  0.46
Si -5.34 -6.05  3.11
Si  7.66 -0.91  3.95
Si -5.75  6.08 -2.27
Si -3.15  6.94 -4.16
Si -7.19  2.10 -4.40
Si -5.70 -3.48 -5.58
Si -3.80  2.26  7.49
Si  2.27 -7.09 -4.61
Si  7.93 -1.11 -3.57
Si  0.13 -8.14 -3.26
Si  5.58 -6.05  3.11
Si -3.01  1.32 -8.21
Si  2.74  0.97  8.37
Si  2.50  2.26 -8.22
Si -5.13  0.18  7.28
Si -3.02 -7.07  4.57
Si -4.81  5.32 -5.36
Si  5.07 -0.02 -7.39
Si -5.27  7.28 -0.18
Si  1.65 -1.01  8.79
Si -2.73 -8.65 -0.05
Si -4.81  5.32  5.56
Si  3.52  8.21  1.64
Si -4.81 -5.60 -5.36
Si -8.41  2.26  2.69
Si  4.94 -7.01 -3.12
Si  1.06  7.31 -5.39
Si -7.60 -0.69  5.05
Si -7.45 -5.37  0.18
Si  5.65  7.28 -0.18
Si  1.06  7.31  5.53
Si -4.81 -5.60  5.56
Si -7.45  5.54  0.18
Si -7.97 -2.40 -4.12
Si  5.79  0.18  7.28
Si  4.91 -2.59  7.48
Si  7.57 -5.20 -1.86
Si  2.50 -8.65  2.69
Si  3.66 -5.28 -6.86
Si -4.96  2.23 -7.67
Si -5.84 -0.02 -7.39
Si -7.88 -4.52 -2.63
Si  9.26 -1.52  1.18
Si -0.17  8.79  3.57
Si -8.99 -0.80  3.03
Si -1.54 -1.54  9.27
Si  7.71 -4.81  2.86
Si  7.87  1.10  5.27
Si -9.26 -1.01 -2.12
Si -2.96  7.89  4.55
Si  3.66  5.63 -6.86
Si -1.65  9.39  1.18
Si -7.60 -0.69 -5.87
Si -1.54  9.37 -1.64
Si  9.61  0.35 -0.69
Si  9.38 -1.54 -1.64
Si  7.95 -3.03  4.55
Si  7.76 -3.97 -4.16
Si  7.57  5.71 -1.86
Si -1.16  3.32 -9.04
Si -6.60  2.85 -6.53
Si  6.11  5.32 -5.36
Si -5.98 -7.01 -3.12
Si -0.13 -4.50 -8.64
Si  7.87  1.10 -5.65
Si  2.27 -7.09  6.31
Si -5.21 -8.21 -1.17
Si  0.87 -9.70 -1.12
Si  0.52 -8.20 -5.36
Si  6.11  5.32  5.56
Si -7.25 -5.28  4.05
Si -8.97 -4.03 -0.49
Si  6.11 -5.60 -5.36
Si -0.57  6.73  7.19
Si  7.90  3.84  4.57
Si  0.87  1.21  9.79
Si  2.94  8.51 -4.12
Si  3.44  9.27 -0.61
Si -3.20 -4.81 -8.05
Si  3.04 -4.52  8.29
Si  0.52 -8.20  5.56
Si  0.37  8.97 -4.24
Si -7.19  2.10  6.51
Si -6.00 -2.59  7.48
Si -9.43  3.09  0.52
Si -3.02 -7.07 -6.34
Si  5.96  2.23 -7.67
Si  6.11 -5.60  5.56
Si -1.65 -1.52 -9.73
Si -5.07  8.20  2.65
Si  4.94  3.90  7.80
Si -7.25  5.63  4.05
Si -3.80 -8.65 -3.42
Si  5.71 -8.21 -1.17
Si -5.07 -2.72 -8.27
Si -2.12 -6.88  7.10
Si  4.32 -8.06  4.39
Si  9.28 -3.92 -1.25
Si  1.94 -4.92 -8.66
Si -10.04  1.21 -1.12
Si -3.15  6.94  6.75
Si  7.71  6.10  2.86
Si  4.91  8.32 -3.44
Si  1.65  9.90 -2.12
Si  3.52 -2.70 -9.28
Si -4.05 -0.70 -9.46
Si  9.18  4.38 -1.71
Si -1.30  0.35 10.23
Si -1.73  4.38  9.21
Si  7.66 -0.91 -6.96
Si  8.79  4.04 -3.81
Si  8.89 -5.36  0.70
Si -3.01 -9.59  2.70
Si  5.84  8.20  2.65
Si  9.75  3.32  1.88
Si -8.97 -4.92  2.25
Si -7.88  6.39 -2.63
Si  5.84 -2.72 -8.27
Si  8.89  5.56  0.70
Si -4.96 -8.69  3.24
Si -8.65  3.83 -4.61
Si  3.72 -8.82 -4.40
Si  5.22  7.44  5.34
Si -1.64 -3.92  9.66
Si -2.96  7.89 -6.36
Si  4.62  1.06 -9.44
Si -5.98  3.90  7.80
Si  7.11  2.26  7.49
Si -3.20  6.10 -8.05
Si  2.74 -9.94 -2.54
Si  7.95 -3.03 -6.36
Si -5.34  4.86 -7.80
Si  0.60  5.21  9.28
Si -1.30 -10.56 -0.69
Si  5.22  7.44 -5.58
Si  1.94  6.00 -8.66
Si  1.93 10.11  3.03
Si -7.97 -2.40  6.79
Si  5.58  4.86 -7.80
Si -0.13  6.41 -8.64
Si -5.70  7.44  5.34
Si -6.00  8.32 -3.44
Si  7.90  3.84 -6.34
Si  0.55 -10.07  3.99
Si -2.98  9.80 -3.57
Si  7.93 -1.11  7.34
Si  3.04  6.39  8.29
Si -5.70  7.44 -5.58
Si  0.60 -5.71  9.28
Si  1.48  3.09 -10.39
Si -3.35 -5.20  9.05
Si  4.62 -9.85  1.47
Si  3.44 -1.64 10.30
Si  5.96 -8.69  3.24
Si -8.97  6.00  2.25
Si  7.76 -3.97  6.75
Si -0.09 -2.97 -10.63
Si  9.71 -0.21 -5.26
Si -4.05 10.21  1.46
Si -10.37  0.85  3.99
Si -7.39  8.21  1.64
Si  5.16 -4.84  8.65
Si  0.13 -8.14  7.65
Si  0.37  8.97  6.68
Si  7.76  6.94 -4.16
Si -3.35  5.71  9.05
Si -5.34 -6.05 -7.80
Si 10.83 -2.97  0.29
Si  4.32 -8.06 -6.53
Si  9.71 -0.21  5.65
Si -3.25 10.01  3.95
Si  5.31  0.30  9.93
Si  2.94  8.51  6.79
Si -7.25 -5.28 -6.86
Si -6.60 -8.06  4.39
Si -8.97  6.89 -0.49
Si  5.58 -6.05 -7.80
Si  1.95 -4.03 10.43
Si -1.30 11.27 -0.69
Si -8.65  3.83  6.31
Si -5.21  2.71  9.74
Si -6.29  1.06 -9.44
Si  9.18 -6.53 -1.71
Si -11.00 -2.97  0.29
Si -5.60  0.30  9.93
Si -1.73 -6.53  9.21
Si -2.73  2.27 10.86
Si -0.17  8.79 -7.34
Si -5.75 -4.84  8.65
Si -7.25  5.63 -6.86
Si  7.91  1.32 -8.21
Si 10.74 -2.13  3.57
Si -2.73  2.27 -10.96
Si -10.54 -1.95 -4.24
Si -3.04 -9.81  5.27
Si  7.90 -7.07  4.57
Si  3.72 -8.82  6.51
Si -0.09 -2.97 11.20
Si  4.94 -7.01  7.80
Si -10.78  2.77 -3.26
Si  5.71  2.71  9.74
Si -10.32  5.21 -1.63
Si -1.30  0.35 -11.60
Si  9.28  7.00 -1.25
Si  6.87 -0.70 -9.46
Si  7.11 -8.65 -3.42
Si -2.02 -5.36 -10.22
Si -3.04 -9.81 -5.65
Si -8.18  0.97  8.37
Si  5.16  6.08  8.65
Si 10.35 -4.18 -3.72
Si -6.29 -9.85  1.47
Si  8.79 -6.88 -3.81
Si -9.86 -3.61 -5.39
Si -2.02  5.56 -10.22
Si -11.09 -2.13  3.57
Si 11.05  2.77 -3.26
Si -1.16 -7.59 -9.04
Si -9.86 -3.61  5.53
Si  3.32 10.23  5.05
Si 11.78  1.21 -1.12
Si -10.32 -5.71 -1.63
Si 10.79 -4.50  2.27
Si  8.19 -8.65 -0.05
Si  5.31 -10.61 -0.98
Si -7.47  9.27 -0.61
Si  1.48  3.09 11.44
Si -8.41  2.26 -8.22
Si -8.99 -0.80 -7.88
Si -1.21 10.70 -5.26
Si -10.39  2.72 -5.36
Si  8.79  4.04  7.10
Si -5.75  6.08  8.65
Si -5.60 -10.61 -0.98
Si -1.64  7.00  9.66
Si -3.80 -8.65  7.49
Si -5.98 -7.01  7.80
Si  7.95  7.89  4.55
Si -8.65 -7.09 -4.61
Si -10.39  2.72  5.56
Si  0.87  1.21 -12.04
Si -11.04 -4.50  2.27
Si  3.44 -1.64 -11.53
Si  7.71 -4.81 -8.05
Si -1.21 10.70  5.65
Si 11.46  0.85  3.99
Si -7.39 -2.70 -9.28
Si  2.50 -8.65 -8.22
Si -7.19 -8.82 -4.40
Si 11.28 -1.95 -4.24
Si  0.87 12.13 -1.12
Si  4.91  8.32  7.48
Si  1.65 -11.93 -2.12
Si  0.55 -10.07 -6.92
Si -12.22  0.35 -0.69
Si  1.95 -4.03 -11.40
Si  3.32 10.23 -5.87
Si  1.93 -11.71  3.03
Si -9.43 -7.82  0.52
Si -6.60 -8.06 -6.53
Si -7.88 -4.52  8.29
Si -1.65 -1.52 12.10
Si  7.90 -7.07 -6.34
Si -8.41 -8.65  2.69
Si -1.21 -11.13 -5.26
Si -7.97  8.51 -4.12
Si  6.87 10.21  1.46
Si -4.05 -11.62  1.46
Si  7.76  6.94  6.75
Si  0.55 11.76  3.99
Si -5.13 -10.73 -3.63
Si  5.31 11.21 -0.98
Si  2.74 11.88 -2.54
Si -4.85  4.78 -10.46
Si  3.46 -5.37 -10.73
Si -10.37  0.85 -6.92
Si -5.27 -3.64 10.74
Si  9.75 -7.59  1.88
Si  5.07 10.89  3.52
Si -1.21 -11.13  5.65
Si  5.07 -10.94  3.52
Si  3.46  5.54 -10.73
Si -5.60 11.21 -0.98
Si -1.65 -12.44  1.18
Si -4.96 -8.69 -7.67
Si -2.98  9.80  7.34
Si -3.25 10.01 -6.96
Si -10.54 -1.95  6.68
Si  1.95  6.89 10.43
Si -12.45 -1.54 -1.64
Si -1.54 -12.46 -1.64
Si -12.07  3.32  1.88
Si  5.65 -3.64 10.74
Si -6.00  8.32  7.48
Si -5.07  8.20 -8.27
Si  7.71  6.10 -8.05
Si -12.57 -1.52  1.18
Si  7.91 -9.59  2.70
Si  5.79 -10.73 -3.63
Si 11.51  5.21 -1.63
Si -1.54 -1.54 -12.55
Si -5.13 11.10 -3.63
Si 10.79  6.41  2.27
Si -11.48 -4.18 -3.72
Si 12.57 -1.01 -2.12
Si 12.40  3.09  0.52
Si -5.27 -3.64 -11.09
Si -9.26 -1.01  8.79
Si  3.46 -5.37 11.10
Si -7.47 -1.64 10.30
Si -8.65 -7.09  6.31
Si -5.84 10.89  3.52
Si -3.25 -11.82  3.95
Si  3.46  5.54 11.10
Si  3.52  8.21 -9.28
Si  7.95  7.89 -6.36
Si -1.64 -3.92 -12.16
Si -5.84 -10.94  3.52
Si -3.01 12.24  2.70
Si -2.98 -12.02 -3.57
Si  7.57 -5.20  9.05
Si 10.35  6.73 -3.72
Si 11.44  2.72 -5.36
Si  4.62 11.98  1.47
Si -2.02 -5.36 11.61
Si 11.51 -5.71 -1.63
Si  5.65 -3.64 -11.09
Si  1.93 10.11 -7.88
Si -11.04  6.41  2.27
Si -3.01 -9.59 -8.21
Si  6.06  4.78 -10.46
Si 11.44  2.72  5.56
Si  5.84  8.20 -8.27
Si -2.02  5.56 11.61
Si  5.31  0.30 -11.89
Si  5.79 11.10 -3.63
Si  5.96 -8.69 -7.67
Si -4.05 -0.70 12.37
Si  3.44 -12.56 -0.61
Si -4.85 -6.13 -10.46
Si  3.32 -11.60  5.05
Si  1.48 -7.82 -10.39
Si -7.88  6.39  8.29
Si  7.57  5.71  9.05
Si  7.93  9.80 -3.57
Si -7.19 -8.82  6.51
Si -8.18 -9.94 -2.54
Si -5.60  0.30 -11.89
Si  1.65 -1.01 -13.04
Si 10.74 -2.13 -7.34
Si -12.55 -3.92 -1.25
Si  7.66 10.01  3.95
Si -12.12 -0.21 -5.26
Si 12.84 -0.80  3.03
Si  8.79 -6.88  7.10
Si  9.26  9.39  1.18
Si -4.85  4.78 11.37
Si 11.28 -1.95  6.68
Si  4.62  1.06 12.39
Si -1.16  3.32 12.79
Si -0.09  7.94 -10.63
Si -1.54  9.37  9.27
Si  9.38 -1.54  9.27
Si 10.35 -4.18  7.19
Si  2.74 -9.94  8.37
Si  3.52 -2.70 12.55
Si  1.65  9.90  8.79
Si  9.38  9.37 -1.64
Si -12.12 -0.21  5.65
Si -9.86  7.31 -5.39
Si -8.97 -4.92 -8.66
Si 11.46  0.85 -6.92
Si  3.32 -11.60 -5.87
