500
set: 1407.00  0.00  0.00
Si  1.68  0.04 -1.13
Si -1.99 -0.12  0.89
Si  0.41  2.09 -0.75
Si -0.16 -1.74  1.58
Si -1.21  1.98  0.93
Si  0.20 -1.47 -2.12
Si  1.32 -0.23  2.56
Si  1.01 -2.90 -0.23
Si  2.96 -0.12  0.89
Si -1.63  0.15 -2.80
Si -3.27  0.04 -1.13
Si  0.05  1.83  2.94
Si -0.84  2.25 -2.77
Si -1.62 -2.96 -1.59
Si  1.87  3.60  0.30
Si -1.98 -3.23  2.10
Si  3.75  1.98  0.93
Si  3.33  0.15 -2.80
Si -3.64 -0.23  2.56
Si -0.78 -4.39  0.30
Si  3.34 -2.96 -1.59
Si  0.65 -3.17  3.46
Si -3.09  3.60  0.30
Si  2.97 -3.23  2.10
Si -3.94 -2.90 -0.23
Si  1.38 -2.64 -3.92
Si -4.54  2.09 -0.75
Si  0.78  2.36 -4.44
Si -2.35 -0.39  4.58
Si -1.57  1.72  4.62
Si  2.05  0.31 -4.82
Si  0.66  4.77  2.10
Si -1.30  5.09 -0.23
Si  2.60 -0.39  4.58
Si  4.79 -1.74  1.58
Si -0.41 -4.12 -3.39
Si  1.03  5.03 -1.59
Si -4.75 -1.47 -2.12
Si  1.50  3.33  3.99
Si  4.11  2.25 -2.77
Si  2.23  3.87 -3.39
Si -5.12 -1.74  1.58
Si -2.91  0.31 -4.82
Si -0.53 -2.00  5.27
Si  5.16 -1.47 -2.12
Si  5.37  2.09 -0.75
Si -2.72  3.87 -3.39
Si -3.58 -2.64 -3.92
Si  0.56 -1.20 -5.81
Si  3.38  1.72  4.62
Si -4.90  1.83  2.94
Si -1.25 -2.69 -5.28
Si  4.18 -4.39  0.30
Si  5.01  1.83  2.94
Si -1.66  4.82  3.46
Si  1.10 -6.01  0.93
Si -1.14 -4.66  3.99
Si -3.45  3.33  3.99
Si  3.66  5.09 -0.23
Si  0.95 -0.49  6.25
Si -2.23 -5.90 -0.75
Si -4.31 -3.17  3.46
Si -4.17  2.36 -4.44
Si  1.47 -5.74 -2.77
Si -6.16  1.98  0.93
Si  2.73 -5.90 -0.75
Si -3.93  5.03 -1.59
Si -1.26  0.41 -6.49
Si  5.97 -2.90 -0.23
Si -0.93  5.36 -3.92
Si  6.64  0.04 -1.13
Si -4.29  4.77  2.10
Si  6.27 -0.23  2.56
Si  3.29  4.82  3.46
Si -5.80  2.25 -2.77
Si -0.31  1.56  6.63
Si -2.47  6.26  1.58
Si  2.48  6.26  1.58
Si -0.48  2.52 -6.46
Si  3.70 -2.69 -5.28
Si -6.95 -0.12  0.89
Si  4.54 -4.12 -3.39
Si -6.58  0.15 -2.80
Si -2.35 -3.49  5.79
Si  4.43 -2.00  5.27
Si -2.11  6.52 -2.12
Si -3.85 -6.01  0.93
Si  3.81 -4.66  3.99
Si -5.73 -4.39  0.30
Si  2.36 -6.17  2.94
Si  2.61 -3.49  5.79
Si -3.49 -5.74 -2.77
Si -2.59 -6.17  2.94
Si  5.60 -3.17  3.46
Si  0.30  4.50  5.79
Si -4.39 -1.20 -5.81
Si -6.57 -2.96 -1.59
Si -1.86 -5.63 -4.44
Si  2.85  6.52 -2.12
Si -4.00 -0.49  6.25
Si  3.69  0.41 -6.49
Si -5.37 -4.12 -3.39
Si  1.39  5.30 -5.28
Si  5.73  2.36 -4.44
Si  5.62  4.77  2.10
Si  6.82  3.60  0.30
Si  4.02  5.36 -3.92
Si  3.09 -5.63 -4.44
Si  0.74 -6.28  4.62
Si -5.48 -2.00  5.27
Si  6.33 -2.64 -3.92
Si -6.93 -3.23  2.10
Si  0.28 -3.44  7.16
Si  0.65  7.87  0.89
Si  7.92 -0.12  0.89
Si  5.98  5.03 -1.59
Si -6.25  5.09 -0.23
Si -0.05 -3.86 -7.08
Si -0.96 -7.95 -1.13
Si  5.52 -1.20 -5.81
Si -0.63  8.03 -1.13
Si  1.74 -2.37 -7.61
Si  0.32 -8.11  0.89
Si -6.53  1.72  4.62
Si -0.99  7.77  2.56
Si  4.64  1.56  6.63
Si  4.47  2.52 -6.46
Si  2.12  5.99  5.27
Si -3.56  5.30 -5.28
Si  6.46  3.33  3.99
Si -8.23  0.04 -1.13
Si  1.14  3.07  7.68
Si  0.69 -7.84 -2.80
Si -2.84  5.99  5.27
Si  7.00  0.31 -4.82
Si -2.36  4.13 -7.08
Si  6.06 -6.01  0.93
Si -6.21 -2.69 -5.28
Si -3.21 -2.37 -7.61
Si  2.24 -0.65  8.28
Si  2.60  4.13 -7.08
Si -5.27  1.56  6.63
Si  5.91 -0.49  6.25
Si  1.14  2.63 -8.13
Si -7.31 -0.39  4.58
Si -6.09 -4.66  3.99
Si -1.94  1.45  8.31
Si  1.83 -5.48 -6.46
Si  1.02  8.14 -2.80
Si -4.66  4.50  5.79
Si -1.33 -8.22  2.56
Si -2.03  4.55  7.16
Si -2.72 -0.65  8.28
Si  8.28  0.15 -2.80
Si -5.43  2.52 -6.46
Si  7.93 -3.23  2.10
Si -8.04  3.60  0.30
Si  7.19  3.87 -3.39
Si  7.55 -0.39  4.58
Si -4.22 -6.28  4.62
Si  2.41  0.57 -8.51
Si -5.89  5.36 -3.92
Si  0.29  7.61  4.58
Si -6.62  4.82  3.46
Si -2.54  0.57 -8.51
Si  8.29 -2.96 -1.59
Si  3.02  1.45  8.31
Si -8.59 -0.23  2.56
Si  3.99 -7.95 -1.13
Si  8.70  1.98  0.93
Si  2.93  4.55  7.16
Si -6.22  0.41 -6.49
Si -4.30  7.87  0.89
Si  5.25  4.50  5.79
Si -3.12 -5.48 -6.46
Si  6.42 -5.74 -2.77
Si  3.96  7.77  2.56
Si -0.60 -7.68 -4.82
Si -1.75  6.79 -5.81
Si -3.81  3.07  7.68
Si  4.33  8.03 -1.13
Si -4.67 -3.44  7.16
Si -7.86  0.31 -4.82
Si -7.68  3.87 -3.39
Si -1.50 -4.92  7.68
Si -0.89 -2.27  8.96
Si -7.18 -5.90 -0.75
Si -0.89 -2.42 -8.97
Si  3.63 -8.22  2.56
Si -3.81  2.63 -8.13
Si -4.27 -7.84 -2.80
Si -8.90 -2.90 -0.23
Si -4.63 -8.11  0.89
Si  4.91 -3.86 -7.08
Si  2.00 -6.43  6.63
Si -3.94  8.14 -2.80
Si -0.57  5.62 -7.61
Si -5.00 -3.86 -7.08
Si  3.21  6.79 -5.81
Si  5.24 -3.44  7.16
Si -0.04 -8.38  4.58
Si  0.93 -0.94 -9.50
Si -0.27  8.30 -4.82
Si  5.69 -6.28  4.62
Si  8.34  1.72  4.62
Si -2.96 -6.43  6.63
Si  5.61  7.87  0.89
Si  7.68 -5.90 -0.75
Si  5.28 -8.11  0.89
Si  9.06  2.25 -2.77
Si -9.49  2.09 -0.75
Si -8.53 -2.64 -3.92
Si  3.45 -4.92  7.68
Si  6.35  5.30 -5.28
Si -7.43  6.26  1.58
Si  7.43  6.26  1.58
Si -7.06  6.52 -2.12
Si -5.58  8.03 -1.13
Si -1.50 -5.37 -8.13
Si -1.36  7.50  6.25
Si -8.40  3.33  3.99
Si -6.82 -5.63 -4.44
Si -7.30 -3.49  5.79
Si -5.92 -7.95 -1.13
Si  0.59 -0.76  9.94
Si -2.44 -9.46 -2.12
Si  8.61  5.09 -0.23
Si  7.32 -6.17  2.94
Si  2.51 -9.46 -2.12
Si  9.75 -1.74  1.58
Si -4.67  7.61  4.58
Si  1.05 -7.58 -6.49
Si -9.71 -1.47 -2.12
Si  5.64 -7.84 -2.80
Si  4.36 -7.68 -4.82
Si  2.15 -9.73  1.58
Si  4.06 -2.27  8.96
Si -5.95  7.77  2.56
Si  1.44  9.97  0.93
Si  9.13 -4.39  0.30
Si  4.07 -2.42 -8.97
Si  7.56 -3.49  5.79
Si  8.25  4.82  3.46
Si -7.55 -6.17  2.94
Si -0.90  0.68 -10.18
Si -2.81 -9.73  1.58
Si  6.09  3.07  7.68
Si -1.90 10.09 -0.75
Si  5.24  7.61  4.58
Si -8.88  5.03 -1.59
Si  3.46 -5.37 -8.13
Si -10.07 -1.74  1.58
Si -4.03 -0.94 -9.50
Si -9.26 -3.17  3.46
Si  7.80  6.52 -2.12
Si -0.07  4.23  9.48
Si  3.60  7.50  6.25
Si  6.70 -2.37 -7.61
Si -9.13  2.36 -4.44
Si -0.68  1.29 10.32
Si  4.38  5.62 -7.61
Si 10.11 -1.47 -2.12
Si  2.25 -3.76  9.48
Si -9.86  1.83  2.94
Si  5.97  8.14 -2.80
Si  8.66 -2.69 -5.28
Si -2.26  9.82  2.94
Si  6.10  2.63 -8.13
Si -0.12  2.78 -10.15
Si  9.96  1.83  2.94
Si -2.71 -3.76  9.48
Si 10.32  2.09 -0.75
Si  3.06 10.09 -0.75
Si -8.44 -5.74 -2.77
Si  0.37 -6.54  8.31
Si  2.69  9.82  2.94
Si -9.25  4.77  2.10
Si -3.52  9.97  0.93
Si -5.55 -7.68 -4.82
Si -6.28 -8.22  2.56
Si  7.07  5.99  5.27
Si -1.69 -8.48  6.25
Si  4.69  8.30 -4.82
Si -8.81 -6.01  0.93
Si  8.77 -4.66  3.99
Si  1.76  5.57 -8.97
Si  1.38  8.41 -6.49
Si -3.90 -7.58 -6.49
Si  4.91 -8.38  4.58
Si  1.80 10.24 -2.77
Si  1.75  5.72  8.96
Si  8.04 -5.63 -4.44
Si -5.00 -8.38  4.58
Si  1.07  9.71  4.62
Si  8.65  0.41 -6.49
Si  6.79 -5.48 -6.46
Si -4.37 -0.76  9.94
Si -6.89  1.45  8.31
Si  9.50 -4.12 -3.39
Si -5.22  8.30 -4.82
Si -8.96 -0.49  6.25
Si -5.85 -2.27  8.96
Si  9.38 -2.00  5.27
Si -5.52  5.62 -7.61
Si -5.84 -2.42 -8.97
Si  4.06  0.68 -10.18
Si  7.19 -0.65  8.28
Si -6.98  4.55  7.16
Si -7.31  4.13 -7.08
Si -1.63 -10.90 -0.23
Si -3.20  5.57 -8.97
Si  3.27 -8.48  6.25
Si -0.07  7.34  8.28
Si -9.34 -1.20 -5.81
Si -3.16 10.24 -2.77
Si -2.08 -9.20 -5.81
Si  0.69 -10.95 -1.59
Si -3.20  5.72  8.96
Si  7.55  4.13 -7.08
Si -7.79  5.99  5.27
Si  8.97  5.36 -3.92
Si -6.70  6.79 -5.81
Si -6.46 -4.92  7.68
Si -3.57  8.41 -6.49
Si  5.88 -0.94 -9.50
Si  2.88 -9.20 -5.81
Si  4.28  1.29 10.32
Si  7.37  0.57 -8.51
Si -0.23 -7.42 -8.51
Si 10.92 -2.90 -0.23
Si -7.67 -0.65  8.28
Si -10.75  2.25 -2.77
Si -11.12  1.98  0.93
Si -8.52  5.30 -5.28
Si -7.50  0.57 -8.51
Si  0.32 -3.59 -10.77
Si -1.53 10.35 -4.44
Si  3.32 -10.90 -0.23
Si -1.27 -10.63 -3.92
Si  5.54 -0.76  9.94
Si -8.17 -2.37 -7.61
Si  0.33 -11.22  2.10
Si -3.88  9.71  4.62
Si  1.78 -9.99  5.27
Si -0.08 -3.70 10.85
Si  4.89  4.23  9.48
Si 11.23 -0.23  2.56
Si -4.58 -6.54  8.31
Si -5.02  4.23  9.48
Si 10.56 -3.17  3.46
Si -10.69 -4.39  0.30
Si  6.95 -6.43  6.63
Si  7.88  4.55  7.16
Si  4.84  2.78 -10.15
Si -0.44 11.59  0.30
Si  7.97  1.45  8.31
Si  2.19 -5.21 -10.15
Si -10.32 -4.12 -3.39
Si -6.31  7.50  6.25
Si  6.00 -7.58 -6.49
Si 11.59  0.04 -1.13
Si -5.07  2.78 -10.15
Si -6.45 -5.37 -8.13
Si  2.11 -2.10 -11.30
Si  9.43  2.52 -6.46
Si -8.08 -5.48 -6.46
Si -3.17 -9.99  5.27
Si -2.76 -5.21 -10.15
Si  0.78  2.80 11.38
Si -5.85  0.68 -10.18
Si  9.60  1.56  6.63
Si  3.42 10.35 -4.44
Si 10.57  4.77  2.10
Si -1.99  4.40 -10.77
Si 10.69  2.36 -4.44
Si -5.63  1.29 10.32
Si  5.33 -6.54  8.31
Si -2.85 -2.10 -11.30
Si -2.00 -11.16  3.46
Si -4.26 -10.95 -1.59
Si -10.44 -2.00  5.27
Si  2.33  9.55  6.63
Si -11.54  0.15 -2.80
Si  6.39  9.97  0.93
Si -2.39  4.29 10.85
Si -1.38  7.05 -9.50
Si  3.69 -10.63 -3.92
Si -2.62  9.55  6.63
Si -11.90 -0.12  0.89
Si  2.56  4.29 10.85
Si  1.06 -10.68 -5.28
Si -0.41 -8.64  8.28
Si -11.53 -2.96 -1.59
Si  2.96  4.40 -10.77
Si  8.95 -7.95 -1.13
Si -9.17 -6.28  4.62
Si -0.81 11.33  3.99
Si 10.47 -1.20 -5.81
Si -8.77  3.07  7.68
Si  2.96 -11.16  3.46
Si  0.10  8.57 -8.51
Si  4.88  7.34  8.28
Si -9.61  4.50  5.79
Si  8.92  7.77  2.56
Si  8.16  6.79 -5.81
Si 10.94  5.03 -1.59
Si  1.87 -0.92 11.97
Si  7.10 -9.73  1.58
Si -5.03  7.34  8.28
Si  8.58 -8.22  2.56
Si -7.91 -6.43  6.63
Si -9.26  7.87  0.89
Si -7.40 -9.46 -2.12
Si -6.85 10.09 -0.75
Si 11.29 -2.64 -3.92
Si  7.47 -9.46 -2.12
Si  4.72 -7.42 -8.51
Si -8.77  2.63 -8.13
Si  1.51  2.89 -11.82
Si -4.64 -3.59 -10.77
Si -2.30  1.18 12.00
Si -10.22  1.56  6.63
Si -11.21  5.09 -0.23
Si -4.62 -11.22  2.10
Si 11.78  3.60  0.30
Si  6.03  9.71  4.62
Si  9.28  8.03 -1.13
Si -0.08 11.86 -3.39
Si  2.65  1.18 12.00
Si  3.57  7.05 -9.50
Si  6.34  8.41 -6.49
Si -8.89  8.14 -2.80
Si -3.08 -0.92 11.97
Si  8.40 -4.92  7.68
Si  1.63 -6.70 10.32
Si -1.72  7.23  9.94
Si  5.65 -10.95 -1.59
Si -2.18  0.84 -12.20
Si -5.19 -7.42 -8.51
Si -9.22 -7.84 -2.80
Si -4.18  2.80 11.38
Si  4.51 11.59  0.30
Si  4.88 -3.70 10.85
Si -6.64 -8.48  6.25
Si -9.62 -3.44  7.16
Si  1.53 -12.38  0.30
Si  7.20 -3.76  9.48
Si -10.39  2.52 -6.46
Si -11.48  1.72  4.62
Si -11.89 -3.23  2.10
Si  6.71  5.57 -8.97
Si -5.03 -3.70 10.85
Si  5.27 -3.59 -10.77
Si  2.16 10.51 -6.46
Si -7.21  9.82  2.94
Si -3.90 -10.68 -5.28
Si 11.41  3.33  3.99
Si 10.86 -0.49  6.25
Si  2.77  0.84 -12.20
Si -7.76 -9.73  1.58
Si  6.71  5.72  8.96
Si 10.21  4.50  5.79
Si  6.75 10.24 -2.77
Si  5.29 -11.22  2.10
Si 11.01 -6.01  0.93
Si -9.59 -8.11  0.89
Si  0.71  9.44  8.31
Si  1.41 -7.31 -10.18
Si -11.16 -2.69 -5.28
Si -11.05 -4.66  3.99
Si -1.87 -5.19 11.38
Si -2.79 10.51 -6.46
Si -3.45  2.89 -11.82
Si  4.15 11.33  3.99
Si -10.84  5.36 -3.92
Si  3.23  7.23  9.94
Si  1.90 -12.12 -3.39
Si -6.58 -10.90 -0.23
Si  9.86 -3.86 -7.08
Si -0.20  5.89 -11.30
Si -3.32 -6.70 10.32
Si -7.66 -3.76  9.48
Si  7.65  9.82  2.94
Si -5.40 11.59  0.30
Si  4.55 -8.64  8.28
Si -9.96 -3.86 -7.08
Si -3.42 -12.38  0.30
Si -0.52 -2.16 -12.66
Si -0.03 -11.48  5.79
Si  8.41 -5.37 -8.13
Si  3.09 -5.19 11.38
Si -0.90 -10.36 -7.61
Si 11.96  0.31 -4.82
Si  8.01 10.09 -0.75
Si 12.87 -0.12  0.89
Si  9.02 -2.27  8.96
Si 10.19 -3.44  7.16
Si -6.22 -10.63 -3.92
Si -11.17  0.41 -6.49
Si -1.14 -5.10 -11.82
