500
set: 1608.00  0.00  0.00
Si  0.21  1.61  0.10
Si  0.84 -1.49 -0.20
Si  0.68  0.33 -1.99
Si  0.84  0.65  1.86
Si -1.81 -1.37 -1.09
Si -2.39  0.47 -1.11
Si -0.42 -2.52  1.76
Si  3.16  0.02  0.74
Si -0.43  2.63 -2.06
Si -1.65 -1.05  2.76
Si -0.27  2.95  1.80
Si -0.58 -2.84 -2.10
Si -2.23  0.79  2.74
Si  3.07 -1.55  1.80
Si -2.50  3.02 -0.20
Si  1.00 -1.17  3.65
Si  0.05  1.29 -3.75
Si  2.91 -1.87 -2.06
Si  2.50  3.14 -1.09
Si  0.95 -4.04 -1.11
Si  3.00 -0.29 -3.11
Si  0.38  1.92  3.96
Si  0.68 -1.81 -4.06
Si -4.49  0.02  0.74
Si  3.73  1.67 -2.10
Si  3.56 -2.90  0.10
Si -0.18  4.53  0.74
Si -3.76  1.99  1.76
Si -1.15 -4.48  0.74
Si  3.89  1.99  1.76
Si -3.92  1.67 -2.10
Si  1.11 -3.72  2.74
Si -4.09 -2.90  0.10
Si  2.66  3.45  2.76
Si -4.58 -1.55  1.80
Si -0.35  4.21 -3.11
Si  5.26  0.47 -1.11
Si  1.92  4.97 -1.11
Si -2.34  3.33  3.65
Si -4.74 -1.87 -2.06
Si -3.46 -3.86  1.86
Si -2.66  2.70 -4.06
Si -2.55  0.15 -4.96
Si -1.97 -1.69 -4.95
Si -4.66 -0.29 -3.11
Si  3.32  0.34  4.59
Si  0.52  0.02 -5.84
Si -2.66  4.84 -1.99
Si -1.31 -4.80 -3.11
Si -3.62 -4.17 -1.99
Si  1.01  0.97  5.72
Si  5.15  3.02 -0.20
Si  4.19 -3.86  1.86
Si  3.39 -3.22 -3.75
Si  3.72 -2.58  3.96
Si -2.50  5.16  1.86
Si -0.26 -2.21  5.61
Si  5.84 -1.37 -1.09
Si  5.42  0.79  2.74
Si  4.02 -4.17 -1.99
Si -5.15  3.14 -1.09
Si -3.93 -2.58  3.96
Si  2.34  2.82 -4.95
Si  1.53 -5.88 -1.09
Si -0.99 -4.17  4.59
Si  2.08  5.29  2.74
Si -4.33  0.34  4.59
Si -0.59  2.32 -5.91
Si  1.69 -5.56  2.76
Si -1.24 -6.06  1.80
Si -4.25 -3.22 -3.75
Si -0.11  3.27  5.65
Si  0.38  6.17 -2.10
Si  3.23 -1.24  5.65
Si  0.79 -4.35 -4.96
Si -4.99  3.45  2.76
Si -0.02  4.85  4.59
Si  6.00 -1.05  2.76
Si  0.55  6.49  1.76
Si -0.75 -3.15 -5.95
Si -1.49 -0.74  6.61
Si -1.40 -6.38 -2.06
Si -3.13  6.11  0.10
Si  2.75 -2.19 -5.91
Si -3.47 -6.00 -0.20
Si -6.81 -1.49 -0.20
Si  4.99  2.70 -4.06
Si -2.07  1.10  6.59
Si  1.76  4.66 -4.96
Si -3.60  2.30  5.61
Si  3.56  1.35 -5.95
Si -6.80  0.65  1.86
Si  5.10  0.15 -4.96
Si  4.99  4.84 -1.99
Si -6.97  0.33 -1.99
Si  5.31  3.33  3.65
Si -4.42 -1.24  5.65
Si  4.05  2.30  5.61
Si  4.18 -6.00 -0.20
Si -4.09  1.35 -5.95
Si -0.75 -7.41  0.10
Si -3.30 -3.54  5.72
Si -3.30 -5.68  3.65
Si  5.15  5.16  1.86
Si  1.27 -3.40  6.59
Si  2.83 -0.61 -6.96
Si  4.52  6.11  0.10
Si -7.43  1.61  0.10
Si  1.17 -0.86  7.50
Si -3.29  5.80 -3.75
Si -0.11  0.97 -7.60
Si -6.64 -1.17  3.65
Si -5.73  4.97 -1.11
Si  5.68 -1.69 -4.95
Si  1.81  7.52 -0.20
Si -0.84  7.64 -1.09
Si -5.31  2.82 -4.95
Si  2.92 -7.03  1.76
Si  7.23 -2.52  1.76
Si  7.07 -2.84 -2.10
Si -6.70 -4.04 -1.11
Si -2.82  4.52 -5.84
Si  6.50 -4.48  0.74
Si  7.22  2.63 -2.06
Si -4.90 -2.19 -5.91
Si -0.51  3.90 -6.96
Si  4.35 -3.54  5.72
Si -6.54 -3.72  2.74
Si  7.87  1.61  0.10
Si  4.34 -5.68  3.65
Si  1.37 -6.19 -4.95
Si -2.96  6.43  3.96
Si  2.82  3.77  6.61
Si  2.76 -7.34 -2.10
Si -1.08 -5.75  5.65
Si  0.54  2.24  7.81
Si -0.59 -7.09  3.96
Si  7.38  2.95  1.80
Si -5.57  5.29  2.74
Si  4.36  5.80 -3.75
Si  0.52 -2.12 -7.91
Si -2.33  5.47  5.72
Si -6.97 -1.81 -4.06
Si -3.79 -4.49 -5.84
Si  3.86 -4.49 -5.84
Si -3.77  7.14 -2.06
Si -3.63 -6.31 -4.06
Si  0.22  5.86 -5.95
Si  3.88  7.14 -2.06
Si  1.65  7.21 -4.06
Si -0.68  7.96  2.76
Si -3.61  7.46  1.80
Si -4.82 -0.61 -6.96
Si -7.27  1.92  3.96
Si  4.02 -6.31 -4.06
Si  6.33 -4.80 -3.11
Si -6.12 -5.88 -1.09
Si -7.60  1.29 -3.75
Si -0.12 -8.36  1.86
Si  8.33  0.33 -1.99
Si -5.96 -5.56  2.76
Si -2.17  3.65  7.50
Si  8.49 -1.49 -0.20
Si -0.92 -7.72 -3.75
Si  1.85 -5.24  6.61
Si -8.07 -2.52  1.76
Si -7.92  2.95  1.80
Si -4.73 -7.03  1.76
Si  7.70  1.29 -3.75
Si  4.04  7.46  1.80
Si  5.58  1.10  6.59
Si  8.49  0.65  1.86
Si -2.82  2.38 -7.91
Si -8.08  2.63 -2.06
Si  7.46  4.53  0.74
Si -1.48 -5.12 -6.96
Si -6.64  0.97  5.72
Si  4.83  4.52 -5.84
Si  0.71  6.81  5.61
Si  1.97  7.84  3.65
Si  4.68  6.43  3.96
Si -1.00  7.33 -4.95
Si -0.28 -8.68 -1.99
Si  2.24  5.61  6.59
Si -8.23 -2.84 -2.10
Si -3.77 -2.27  7.81
Si  3.23 -3.53 -7.60
Si  7.30  4.21 -3.11
Si  6.41 -6.06  1.80
Si -5.89  4.66 -4.96
Si  3.88 -2.27  7.81
Si -4.83  3.77  6.61
Si -1.56 -6.70 -5.91
Si  6.16 -0.74  6.61
Si -4.89 -7.34 -2.10
Si -7.83  4.53  0.74
Si  6.66 -4.17  4.59
Si  8.03  1.92  3.96
Si  3.48  0.66  8.45
Si  6.25 -6.38 -2.06
Si -7.13  0.02 -5.84
Si -2.71 -0.16 -8.82
Si -3.20 -8.23  2.74
Si -3.36 -8.54 -1.11
Si  3.08 -6.71  5.61
Si -2.13 -2.00 -8.80
Si  2.19 -8.99  0.74
Si -0.83 -3.85  8.45
Si  2.18  2.50 -8.80
Si -4.17  0.66  8.45
Si  8.33 -1.81 -4.06
Si  8.65 -1.17  3.65
Si -4.42 -3.53 -7.60
Si  7.05  2.32 -5.91
Si -6.86 -4.35 -4.96
Si -5.84  7.52 -0.20
Si  5.32  5.47  5.72
Si  7.39 -2.21  5.61
Si -8.00  4.21 -3.11
Si  8.60 -4.04 -1.11
Si  4.83  2.38 -7.91
Si -9.46 -1.37 -1.09
Si  4.29 -8.54 -1.11
Si  6.90 -3.15 -5.95
Si -0.10 -1.89  9.46
Si -1.42  9.48 -1.11
Si  1.65  9.35 -1.99
Si  0.36 -0.30 -9.69
Si  1.17  1.28  9.57
Si -3.52  9.04  0.74
Si -3.14 -5.36  7.50
Si  4.45 -8.23  2.74
Si -9.30 -1.05  2.76
Si  3.71  6.83 -5.91
Si -7.27  6.17 -2.10
Si -7.10  6.49  1.76
Si -6.38 -3.40  6.59
Si -3.94  6.83 -5.91
Si -4.57 -6.71  5.61
Si  0.04 -8.05  5.72
Si  0.14  5.16  8.45
Si  8.76 -3.72  2.74
Si -8.80 -4.48  0.74
Si -7.91 -2.21  5.61
Si -6.48 -0.86  7.50
Si  1.59  4.34 -8.82
Si  4.12  9.04  0.74
Si -3.69  8.72 -3.11
Si  7.54  3.27  5.65
Si  5.47  3.65  7.50
Si -3.45  5.48 -7.60
Si -0.76  2.00 -9.76
Si  0.63 -4.67 -8.82
Si  1.81  9.66  1.86
Si  2.03 -9.31 -3.11
Si  2.60 -7.66 -5.95
Si  8.17  0.02 -5.84
Si  3.96  8.72 -3.11
Si  2.35 -8.67  4.59
Si  4.93 -0.16 -8.82
Si -6.28 -6.19 -4.95
Si -10.04  0.47 -1.11
Si  6.90 -7.41  0.10
Si  3.39 -0.92  9.50
Si  7.63  4.85  4.59
Si -7.76  3.27  5.65
Si  0.05  3.58  9.50
Si -7.67  4.85  4.59
Si -5.41  5.61  6.59
Si -3.45  7.77  5.65
Si -6.00  7.21 -4.06
Si -5.80 -5.24  6.61
Si -1.26  9.80  2.74
Si  4.51 -5.36  7.50
Si  4.20  5.48 -7.60
Si -9.88  0.79  2.74
Si  6.81  7.64 -1.09
Si -5.68  7.84  3.65
Si -0.43 -6.77  7.81
Si  8.03  6.17 -2.10
Si  6.57 -5.75  5.65
Si -3.44  2.62  9.46
Si  2.58 -2.50 -9.76
Si -8.24  2.32 -5.91
Si  8.66  0.97  5.72
Si  3.40  1.04 -9.80
Si -0.91 -3.47 -9.80
Si -4.26 -0.92  9.50
Si  4.20  7.77  5.65
Si -0.12 -10.50 -0.20
Si -1.58  9.16 -4.96
Si -5.46 -8.99  0.74
Si -1.33 -0.42 10.46
Si -3.14 -3.22  9.57
Si  5.52 -2.00 -8.80
Si -10.15  3.02 -0.20
Si  1.49  6.89 -7.91
Si  8.20  6.49  1.76
Si -0.52  8.28  6.61
Si  6.17 -5.12 -6.96
Si -8.96 -4.80 -3.11
Si -8.64 -4.17  4.59
Si -5.47  2.50 -8.80
Si 10.15  3.14 -1.09
Si  4.21  2.62  9.46
Si  1.18 10.62  0.10
Si -2.80  6.75  7.81
Si  7.14  3.90 -6.96
Si -1.91  1.42 10.44
Si  8.44 -4.35 -4.96
Si -4.25  1.04 -9.80
Si -0.45 -9.00 -5.84
Si -3.04 -7.91  6.59
Si -3.52 -8.86 -4.96
Si  7.54  0.97 -7.60
Si  7.06 -7.09  3.96
Si -2.62 -10.07  2.76
Si -8.39 -3.15 -5.95
Si -7.11  2.24  7.81
Si -2.78 -10.38 -1.09
Si  6.09 -6.70 -5.91
Si  0.04 -10.19  3.65
Si 10.81  0.02  0.74
Si  9.57  4.97 -1.11
Si  1.49  9.03 -5.84
Si -7.13 -2.12 -7.91
Si -7.76  0.97 -7.60
Si -8.89 -6.06  1.80
Si  6.74 -7.72 -3.75
Si 10.56 -1.87 -2.06
Si  2.10 -10.57  1.80
Si  6.97  7.96  2.76
Si -5.05 -7.66 -5.95
Si -3.36  9.35  4.59
Si -9.62 -1.69 -4.95
Si  9.18 -5.88 -1.09
Si  4.13 -8.86 -4.96
Si -2.98  4.21 -9.69
Si 10.72 -1.55  1.80
Si -0.92 -5.43  9.50
Si  1.43 -3.09 10.44
Si -3.79 -6.63 -7.91
Si  1.02 10.30 -3.75
Si  1.21 -6.51 -8.80
Si  3.86 -6.63 -7.91
Si  4.51 -3.22  9.57
Si  6.65  7.33 -4.95
Si 10.64 -0.29 -3.11
Si -1.08 -8.04 -7.60
Si -9.98  3.33  3.65
Si -5.30 -8.67  4.59
Si -7.43  5.86 -5.95
Si  2.67 -0.93 -10.81
Si -8.40 -7.41  0.10
Si  9.34 -5.56  2.76
Si 10.31  3.45  2.76
Si -6.94  6.81  5.61
Si  1.94 -10.88 -2.06
Si  0.06  5.54 -9.80
Si -9.05 -6.38 -2.06
Si  4.29  9.35  4.59
Si -5.07 -2.50 -9.76
Si -2.96 10.68 -2.10
Si -6.00  9.35 -1.99
Si  2.13  8.15  7.50
Si  4.61 -7.91  6.59
Si -9.14 -0.74  6.61
Si -1.16  7.01 -8.80
Si -5.62 -9.31 -3.11
Si -10.20  0.15 -4.96
Si -2.17  5.79  9.57
Si  6.23  9.48 -1.11
Si  4.85  6.75  7.81
Si -10.31  2.70 -4.06
Si  7.53 -8.36  1.86
Si  9.73  5.29  2.74
Si -8.16  3.90 -6.96
Si -0.67  3.58 -10.81
Si  3.70 -4.81 -9.69
Si  1.33 -0.54 11.35
Si -5.84  9.66  1.86
Si -0.27  0.66 -11.45
Si  7.87  5.86 -5.95
Si -8.49  7.64 -1.09
Si -2.79 11.00  1.76
Si  9.99  2.82 -4.95
Si -3.95 -4.81 -9.69
Si  6.82 -3.85  8.45
Si  4.87 -10.38 -1.09
Si -10.14  5.16  1.86
Si  8.19  2.24  7.81
Si -6.05  4.34 -8.82
Si  4.67  4.21 -9.69
Si  7.37 -8.68 -1.99
Si  3.80  8.40 -6.96
Si -10.31  4.84 -1.99
Si -0.29 -10.82 -4.06
Si  8.17 -2.12 -7.91
Si -7.77 -8.36  1.86
Si -8.24 -7.09  3.96
Si -3.85  8.40 -6.96
Si 11.21 -2.90  0.10
Si  5.03 -10.07  2.76
Si  8.92 -3.40  6.59
Si  8.81 -0.86  7.50
Si  9.40  4.66 -4.96
Si  2.98  4.09 10.46
Si -6.48  1.28  9.57
Si  1.98  9.98  5.72
Si 11.37  1.67 -2.10
Si  1.34 10.94  3.96
Si -11.41  1.99  1.76
Si  2.01 -4.93 10.46
Si -1.39 -11.53  1.76
Si -9.72  1.10  6.59
Si 11.54  1.99  1.76
Si  0.54 11.65 -2.06
Si -8.33  7.96  2.76
Si  4.69 10.68 -2.10
Si  3.24 -6.39  9.46
Si  0.87  7.12  9.46
Si -8.73 -5.75  5.65
Si -11.57  1.67 -2.10
Si 10.97  0.34  4.59
Si -11.11 -3.86  1.86
Si  2.26 -10.25  5.65
Si -7.93 -8.68 -1.99
Si -4.98 -0.93 -10.81
Si  0.70  2.56 11.66
Si  5.74  1.42 10.44
Si  9.02 -6.19 -4.95
Si  6.39  9.80  2.74
Si  0.36 -2.44 -11.76
Si  1.86 -9.62 -6.96
Si -2.46 -9.75  6.61
Si  6.07  9.16 -4.96
Si -5.55 -10.57  1.80
Si  9.46  7.52 -0.20
Si -11.74 -2.90  0.10
Si 11.04 -3.22 -3.75
Si  6.89  2.00 -9.76
Si  0.70 11.96  1.80
Si -1.10 10.12  6.59
Si -8.56 -7.72 -3.75
Si -1.53 12.03 -0.20
Si -7.29 -0.30 -9.69
Si -1.55 -11.85 -2.10
Si -1.73 -7.01 -9.76
Si  2.51 -8.36  8.45
Si -2.94 -10.70 -4.95
Si  4.85 11.00  1.76
Si  8.36  6.81  5.61
Si 10.39 -2.19 -5.91
Si -4.67  4.09 10.46
Si -6.16  6.89 -7.91
Si -12.14  0.02  0.74
Si -11.28 -4.17 -1.99
Si -2.01  3.96 11.35
Si  2.59 -11.91  0.10
Si -7.02 -4.67 -8.82
Si -1.64 -5.43 -10.81
Si  6.32 -0.42 10.46
Si -4.41 -6.39  9.46
Si  2.40  5.92 10.44
Si  7.55 -1.89  9.46
Si  3.55  6.51 -9.76
Si  0.20 -7.73  9.57
Si -2.98  2.07 -11.76
Si 11.37 -2.58  3.96
Si 10.88 -1.24  5.65
Si -3.12 10.37 -5.95
Si -3.61 -1.95 11.66
Si -8.65  7.33 -4.95
Si -7.75 -1.89  9.46
Si -5.51  8.15  7.50
Si -10.78  6.11  0.10
Si  6.74 -3.47 -9.80
Si -6.16  9.03 -5.84
Si  0.20 -9.87  7.50
Si -7.51  5.16  8.45
Si -4.10  6.51 -9.76
Si -6.47 10.62  0.10
Si  9.30  7.21 -4.06
Si  5.48  5.79  9.57
Si -12.23 -1.55  1.80
Si -5.71 -10.88 -2.06
Si -7.61 -8.05  5.72
Si  3.07 -3.85 -11.45
Si  4.04 -1.95 11.66
Si -1.69 11.71 -4.06
Si -11.58 -2.58  3.96
Si  7.69 -8.05  5.72
Si -6.22 -3.09 10.44
Si 11.67 -4.17 -1.99
Si  2.75 -11.60  3.96
Si -9.12 -5.12 -6.96
Si -8.48 -3.85  8.45
Si  8.01 -0.30 -9.69
Si  0.86  9.99 -7.60
Si 11.84 -3.86  1.86
