500
set: 52.00  0.00  0.00
Si  0.00  0.00  0.00
Si -0.03 -0.01 -2.32
Si  0.03  0.01  2.32
Si -1.26 -2.28  0.00
Si  1.26  2.28  0.00
Si -2.63  0.00  0.00
Si  2.63  0.00  0.00
Si  1.36 -2.28  0.00
Si -1.36  2.28  0.00
Si -1.23 -2.27  2.32
Si  1.23  2.27 -2.32
Si -2.60  0.01  2.32
Si  2.60 -0.01 -2.32
Si -1.30 -2.28 -2.32
Si  1.30  2.28  2.32
Si -1.33  2.28  2.32
Si  1.33 -2.28 -2.32
Si  2.66  0.01  2.32
Si -2.66 -0.01 -2.32
Si  1.40 -2.27  2.32
Si -1.40  2.27 -2.32
Si -3.89 -2.28  0.00
Si  3.89  2.28  0.00
Si -0.10  4.55  0.00
Si  0.10 -4.55  0.00
Si  3.99 -2.28  0.00
Si -3.99  2.28  0.00
Si -0.07 -0.01 -4.65
Si  0.07  0.01  4.65
Si -3.86 -2.27  2.32
Si  3.86  2.27 -2.32
Si  3.92  2.28  2.32
Si -3.92 -2.28 -2.32
Si  0.13 -4.55  2.32
Si -0.13  4.55 -2.32
Si  0.07 -4.56 -2.32
Si -0.07  4.56  2.32
Si  3.96 -2.28 -2.32
Si -3.96  2.28  2.32
Si -4.02  2.27 -2.32
Si  4.02 -2.27  2.32
Si  2.53  4.55  0.00
Si -2.53 -4.55  0.00
Si  5.26  0.00  0.00
Si -5.26  0.00  0.00
Si  2.56 -0.01 -4.65
Si -2.56  0.01  4.65
Si  2.73 -4.55  0.00
Si -2.73  4.55  0.00
Si  1.20  2.27 -4.65
Si -1.20 -2.27  4.65
Si  1.30 -2.29 -4.65
Si -1.30  2.29  4.65
Si -1.33 -2.29 -4.65
Si  1.33  2.29  4.65
Si -1.43  2.27 -4.65
Si  1.43 -2.27  4.65
Si  2.69  0.01  4.65
Si -2.69 -0.01 -4.65
Si  2.50  4.55 -2.32
Si -2.50 -4.55  2.32
Si  5.22 -0.01 -2.32
Si -5.22  0.01  2.32
Si -2.56 -4.56 -2.32
Si  2.56  4.56  2.32
Si -5.29 -0.01 -2.32
Si  5.29  0.01  2.32
Si  2.69 -4.56 -2.32
Si -2.69  4.56  2.32
Si  2.76 -4.55  2.32
Si -2.76  4.55 -2.32
Si  3.83  2.27 -4.65
Si -3.83 -2.27  4.65
Si  3.93 -2.29 -4.65
Si -3.93  2.29  4.65
Si -0.16  4.54 -4.65
Si  0.16 -4.54  4.65
Si -0.03  4.57  4.65
Si  0.03 -4.57 -4.65
Si  3.96  2.29  4.65
Si -3.96 -2.29 -4.65
Si  4.06 -2.27  4.65
Si -4.06  2.27 -4.65
Si  5.16  4.55  0.00
Si -5.16 -4.55  0.00
Si  6.52  2.28  0.00
Si -6.52 -2.28  0.00
Si  1.17  6.83  0.00
Si -1.17 -6.83  0.00
Si -2.46 -4.54  4.65
Si  2.46  4.54 -4.65
Si -5.19  0.01  4.65
Si  5.19 -0.01 -4.65
Si  0.10  0.02  6.97
Si -0.10 -0.02 -6.97
Si -1.46  6.83  0.00
Si  1.46 -6.83  0.00
Si  6.62 -2.28  0.00
Si -6.62  2.28  0.00
Si  2.60  4.57  4.65
Si -2.60 -4.57 -4.65
Si  5.35 -4.55  0.00
Si -5.35  4.55  0.00
Si -2.66  4.57  4.65
Si  2.66 -4.57 -4.65
Si  5.32  0.01  4.65
Si -5.32 -0.01 -4.65
Si  2.79 -4.54  4.65
Si -2.79  4.54 -4.65
Si -5.12 -4.55  2.32
Si  5.12  4.55 -2.32
Si -6.49 -2.27  2.32
Si  6.49  2.27 -2.32
Si -5.19 -4.56 -2.32
Si  5.19  4.56  2.32
Si  1.13  6.83 -2.32
Si -1.13 -6.83  2.32
Si  6.55  2.28  2.32
Si -6.55 -2.28 -2.32
Si -1.20 -6.84 -2.32
Si  1.20  6.84  2.32
Si  6.59 -2.28 -2.32
Si -6.59  2.28  2.32
Si  1.43 -6.84 -2.32
Si -1.43  6.84  2.32
Si  1.49 -6.83  2.32
Si -1.49  6.83 -2.32
Si -5.32  4.56  2.32
Si  5.32 -4.56 -2.32
Si  6.65 -2.27  2.32
Si -6.65  2.27 -2.32
Si  2.53 -0.02 -6.97
Si -2.53  0.02  6.97
Si -1.17 -2.26  6.97
Si  1.17  2.26 -6.97
Si  5.39 -4.55  2.32
Si -5.39  4.55 -2.32
Si  1.26 -2.29 -6.97
Si -1.26  2.29  6.97
Si -1.36 -2.29 -6.97
Si  1.36  2.29  6.97
Si -1.46  2.26 -6.97
Si  1.46 -2.26  6.97
Si -2.73 -0.02 -6.97
Si  2.73  0.02  6.97
Si  3.79  6.83  0.00
Si -3.79 -6.83  0.00
Si  7.88  0.00  0.00
Si -7.88  0.00  0.00
Si -4.09  6.83  0.00
Si  4.09 -6.83  0.00
Si -3.76 -6.83  2.32
Si  3.76  6.83 -2.32
Si  3.83  6.84  2.32
Si -3.83 -6.84 -2.32
Si -7.85  0.01  2.32
Si  7.85 -0.01 -2.32
Si -7.92 -0.01 -2.32
Si  7.92  0.01  2.32
Si -3.79 -2.26  6.97
Si  3.79  2.26 -6.97
Si -5.09 -4.54  4.65
Si  5.09  4.54 -4.65
Si -6.46 -2.27  4.65
Si  6.46  2.27 -4.65
Si  4.06 -6.84 -2.32
Si -4.06  6.84  2.32
Si -4.12  6.83 -2.32
Si  4.12 -6.83  2.32
Si  3.89 -2.29 -6.97
Si -3.89  2.29  6.97
Si -0.20  4.54 -6.97
Si  0.20 -4.54  6.97
Si -1.10 -6.82  4.65
Si  1.10  6.82 -4.65
Si -0.00  4.57  6.97
Si  0.00 -4.57 -6.97
Si -5.22 -4.57 -4.65
Si  5.22  4.57  4.65
Si -6.55  2.29  4.65
Si  6.55 -2.29 -4.65
Si  3.99  2.29  6.97
Si -3.99 -2.29 -6.97
Si  1.23  6.84  4.65
Si -1.23 -6.84 -4.65
Si -6.59 -2.29 -4.65
Si  6.59  2.29  4.65
Si  1.40 -6.84 -4.65
Si -1.40  6.84  4.65
Si  5.29 -4.57 -4.65
Si -5.29  4.57  4.65
Si -4.09  2.26 -6.97
Si  4.09 -2.26  6.97
Si -1.53  6.82 -4.65
Si  1.53 -6.82  4.65
Si -6.68  2.27 -4.65
Si  6.68 -2.27  4.65
Si -5.42  4.54 -4.65
Si  5.42 -4.54  4.65
Si  2.43  4.54 -6.97
Si -2.43 -4.54  6.97
Si  5.16 -0.02 -6.97
Si -5.16  0.02  6.97
Si  2.63  4.57  6.97
Si -2.63 -4.57 -6.97
Si  2.63 -4.57 -6.97
Si -2.63  4.57  6.97
Si  2.82 -4.54  6.97
Si -2.82  4.54 -6.97
Si -5.35 -0.02 -6.97
Si  5.35  0.02  6.97
Si -7.79 -4.55  0.00
Si  7.79  4.55  0.00
Si  3.73  6.82 -4.65
Si -3.73 -6.82  4.65
Si -7.82  0.01  4.65
Si  7.82 -0.01 -4.65
Si  0.20 -9.11  0.00
Si -0.20  9.11  0.00
Si -3.86 -6.84 -4.65
Si  3.86  6.84  4.65
Si -7.98  4.55  0.00
Si  7.98 -4.55  0.00
Si  4.02 -6.84 -4.65
Si -4.02  6.84  4.65
Si -7.95 -0.01 -4.65
Si  7.95  0.01  4.65
Si -4.15  6.82 -4.65
Si  4.15 -6.82  4.65
Si  7.75  4.55 -2.32
Si -7.75 -4.55  2.32
Si  0.13  0.02  9.30
Si -0.13 -0.02 -9.30
Si -7.82 -4.56 -2.32
Si  7.82  4.56  2.32
Si -6.42 -6.83  0.00
Si  6.42  6.83  0.00
Si -0.23  9.10 -2.32
Si  0.23 -9.10  2.32
Si -0.16  9.12  2.32
Si  0.16 -9.12 -2.32
Si  9.15  2.28  0.00
Si -9.15 -2.28  0.00
Si  2.43  9.11  0.00
Si -2.43 -9.11  0.00
Si  7.95 -4.56 -2.32
Si -7.95  4.56  2.32
Si -8.01  4.55 -2.32
Si  8.01 -4.55  2.32
Si -9.25  2.28  0.00
Si  9.25 -2.28  0.00
Si -2.82  9.11  0.00
Si  2.82 -9.11  0.00
Si  6.72 -6.83  0.00
Si -6.72  6.83  0.00
Si -2.50  0.02  9.30
Si  2.50 -0.02 -9.30
Si  1.14  2.26 -9.30
Si -1.14 -2.26  9.30
Si -6.39 -6.83  2.32
Si  6.39  6.83 -2.32
Si -1.23  2.30  9.30
Si  1.23 -2.30 -9.30
Si -1.40 -2.30 -9.30
Si  1.40  2.30  9.30
Si  9.12  2.27 -2.32
Si -9.12 -2.27  2.32
Si  1.49 -2.26  9.30
Si -1.49  2.26 -9.30
Si -6.46 -6.84 -2.32
Si  6.46  6.84  2.32
Si  2.76  0.02  9.30
Si -2.76 -0.02 -9.30
Si  2.40  9.10 -2.32
Si -2.40 -9.10  2.32
Si  2.46  9.12  2.32
Si -2.46 -9.12 -2.32
Si  5.06  4.54 -6.97
Si -5.06 -4.54  6.97
Si -9.18 -2.28 -2.32
Si  9.18  2.28  2.32
Si  6.42  2.26 -6.97
Si -6.42 -2.26  6.97
Si  9.21 -2.28 -2.32
Si -9.21  2.28  2.32
Si  1.07  6.82 -6.97
Si -1.07 -6.82  6.97
Si  2.79 -9.12 -2.32
Si -2.79  9.12  2.32
Si  6.52 -2.29 -6.97
Si -6.52  2.29  6.97
Si  2.86 -9.10  2.32
Si -2.86  9.10 -2.32
Si -9.28  2.27 -2.32
Si  9.28 -2.27  2.32
Si -6.68  6.84  2.32
Si  6.68 -6.84 -2.32
Si  1.26  6.85  6.97
Si -1.26 -6.85 -6.97
Si -5.25 -4.57 -6.97
Si  5.25  4.57  6.97
Si -5.26  4.57  6.97
Si  5.26 -4.57 -6.97
Si  1.36 -6.85 -6.97
Si -1.36  6.85  6.97
Si -1.56  6.82 -6.97
Si  1.56 -6.82  6.97
Si -6.75  6.83 -2.32
Si  6.75 -6.83  2.32
Si -6.62 -2.29 -6.97
Si  6.62  2.29  6.97
Si  6.72 -2.26  6.97
Si -6.72  2.26 -6.97
Si  5.45 -4.54  6.97
Si -5.45  4.54 -6.97
Si -7.72 -4.54  4.65
Si  7.72  4.54 -4.65
Si -7.85 -4.57 -4.65
Si  7.85  4.57  4.65
Si -0.26  9.10 -4.65
Si  0.26 -9.10  4.65
Si  0.13 -9.12 -4.65
Si -0.13  9.12  4.65
Si  7.92 -4.57 -4.65
Si -7.92  4.57  4.65
Si  3.76  2.26 -9.30
Si -3.76 -2.26  9.30
Si -3.86  2.30  9.30
Si  3.86 -2.30 -9.30
Si -8.05  4.54 -4.65
Si  8.05 -4.54  4.65
Si  0.23 -4.53  9.30
Si -0.23  4.53 -9.30
Si -0.03 -4.58 -9.30
Si  0.03  4.58  9.30
Si -4.02 -2.30 -9.30
Si  4.02  2.30  9.30
Si -4.12  2.26 -9.30
Si  4.12 -2.26  9.30
Si -6.36 -6.82  4.65
Si  6.36  6.82 -4.65
Si  5.06  9.11  0.00
Si -5.06 -9.11  0.00
Si -3.70 -6.82  6.97
Si  3.70  6.82 -6.97
Si  7.79 -0.02 -6.97
Si -7.79  0.02  6.97
Si  9.08  2.27 -4.65
Si -9.08 -2.27  4.65
Si  2.37  9.10 -4.65
Si -2.37 -9.10  4.65
Si -10.51  0.00  0.00
Si 10.51  0.00  0.00
Si  6.49  6.84  4.65
Si -6.49 -6.84 -4.65
Si -3.89 -6.85 -6.97
Si  3.89  6.85  6.97
Si -2.50 -9.12 -4.65
Si  2.50  9.12  4.65
Si  9.18 -2.29 -4.65
Si -9.18  2.29  4.65
Si -3.99  6.85  6.97
Si  3.99 -6.85 -6.97
Si  9.21  2.29  4.65
Si -9.21 -2.29 -4.65
Si -7.98 -0.02 -6.97
Si  7.98  0.02  6.97
Si -2.76  9.12  4.65
Si  2.76 -9.12 -4.65
Si -4.19  6.82 -6.97
Si  4.19 -6.82  6.97
Si -6.65  6.84  4.65
Si  6.65 -6.84 -4.65
Si -5.13  0.02  9.30
Si  5.13 -0.02 -9.30
Si  5.45 -9.11  0.00
Si -5.45  9.11  0.00
Si  2.40  4.53 -9.30
Si -2.40 -4.53  9.30
Si  2.89 -9.10  4.65
Si -2.89  9.10 -4.65
Si -9.31  2.27 -4.65
Si  9.31 -2.27  4.65
Si -5.03 -9.10  2.32
Si  5.03  9.10 -2.32
Si -2.60  4.58  9.30
Si  2.60 -4.58 -9.30
Si -6.78  6.82 -4.65
Si  6.78 -6.82  4.65
Si -5.09 -9.12 -2.32
Si  5.09  9.12  2.32
Si  2.66  4.58  9.30
Si -2.66 -4.58 -9.30
Si  2.86 -4.53  9.30
Si -2.86  4.53 -9.30
Si -10.48  0.01  2.32
Si 10.48 -0.01 -2.32
Si -5.39 -0.02 -9.30
Si  5.39  0.02  9.30
Si 10.54  0.01  2.32
Si -10.54 -0.01 -2.32
Si  5.42 -9.12 -2.32
Si -5.42  9.12  2.32
Si -5.48  9.10 -2.32
Si  5.48 -9.10  2.32
Si  7.69  4.54 -6.97
Si -7.69 -4.54  6.97
Si -9.05 -6.83  0.00
Si  9.05  6.83  0.00
Si -10.41 -4.55  0.00
Si 10.41  4.55  0.00
Si -5.00 -9.10  4.65
Si  5.00  9.10 -4.65
Si -10.45  0.01  4.65
Si 10.45 -0.01 -4.65
Si  1.07 11.39  0.00
Si -1.07 -11.39  0.00
Si -5.12 -9.12 -4.65
Si  5.12  9.12  4.65
Si  0.29 -9.09  6.97
Si -0.29  9.09 -6.97
Si  7.88  4.57  6.97
Si -7.88 -4.57 -6.97
Si -7.88  4.57  6.97
Si  7.88 -4.57 -6.97
Si -0.10  9.12  6.97
Si  0.10 -9.12 -6.97
Si  1.56 -11.39  0.00
Si -1.56 11.39  0.00
Si -5.03 -4.53  9.30
Si  5.03  4.53 -9.30
Si  6.39  2.26 -9.30
Si -6.39 -2.26  9.30
Si -10.61  4.55  0.00
Si 10.61 -4.55  0.00
Si  9.02  6.83 -2.32
Si -9.02 -6.83  2.32
Si -10.58 -0.01 -4.65
Si 10.58  0.01  4.65
Si  6.49 -2.30 -9.30
Si -6.49  2.30  9.30
Si  5.39 -9.12 -4.65
Si -5.39  9.12  4.65
Si -10.38 -4.55  2.32
Si 10.38  4.55 -2.32
Si -1.04 -6.81  9.30
Si  1.04  6.81 -9.30
Si  9.34 -6.83  0.00
Si -9.34  6.83  0.00
Si -8.08  4.54 -6.97
Si  8.08 -4.54  6.97
Si  5.22 -4.58 -9.30
Si -5.22  4.58  9.30
Si -9.08 -6.84 -2.32
Si  9.08  6.84  2.32
Si  5.52 -9.10  4.65
Si -5.52  9.10 -4.65
Si  0.16  0.03 11.62
Si -0.16 -0.03 -11.62
Si -1.30 -6.85 -9.30
Si  1.30  6.85  9.30
Si  6.33  6.82 -6.97
Si -6.33 -6.82  6.97
Si  1.33 -6.85 -9.30
Si -1.33  6.85  9.30
Si -5.29 -4.58 -9.30
Si  5.29  4.58  9.30
Si 10.45  4.56  2.32
Si -10.45 -4.56 -2.32
Si  1.59 -6.81  9.30
Si -1.59  6.81 -9.30
Si  9.05  2.26 -6.97
Si -9.05 -2.26  6.97
Si -6.65 -2.30 -9.30
Si  6.65  2.30  9.30
Si -1.04 -11.38  2.32
Si  1.04 11.38 -2.32
Si -1.10 -11.39 -2.32
Si  1.10 11.39  2.32
Si -2.33 -9.09  6.97
Si  2.33  9.09 -6.97
Si -5.48  4.53 -9.30
Si  5.48 -4.53  9.30
Si  6.75 -2.26  9.30
Si -6.75  2.26 -9.30
Si  1.59 -11.38  2.32
Si -1.59 11.38 -2.32
Si  1.53 -11.39 -2.32
Si -1.53 11.39  2.32
Si  9.15 -2.29 -6.97
Si -9.15  2.29  6.97
Si -6.52 -6.85 -6.97
Si  6.52  6.85  6.97
Si -10.58  4.56  2.32
Si 10.58 -4.56 -2.32
Si -2.53 -9.12 -6.97
Si  2.53  9.12  6.97
Si -9.31  6.84  2.32
Si  9.31 -6.84 -2.32
Si  2.73 -9.12 -6.97
