500
set: 1249.00  0.00  0.00
Si  0.55 -1.04 -0.22
Si  0.14  0.57  1.36
Si -1.47 -1.38 -1.11
Si  1.81  0.32 -1.95
Si  0.86  2.73  0.39
Si -2.18  1.31  1.50
Si -3.07  0.43 -0.43
Si  1.64 -2.80  1.07
Si  1.61  0.57  3.23
Si  0.95  2.91 -2.00
Si  1.54 -1.68  3.22
Si -1.61 -1.41 -3.36
Si  3.76  1.05 -0.98
Si -2.18 -3.41  0.04
Si  3.38  2.39  0.87
Si -1.03  2.73 -3.13
Si -2.96  2.86 -1.42
Si -3.12  0.11  3.23
Si  0.13 -4.55  0.12
Si -1.40  0.58 -4.38
Si  2.24 -0.53 -4.11
Si -2.28  3.71  2.04
Si -0.39  4.67  1.40
Si  3.86  0.97  2.85
Si -2.69 -2.25  3.56
Si -0.33 -3.07  4.12
Si  3.83 -3.52  0.63
Si -3.64 -3.41  1.72
Si -5.31 -0.31 -0.84
Si  1.83 -2.98 -4.36
Si -0.44 -3.12 -4.62
Si  0.95  0.83 -5.53
Si -3.53 -2.60 -3.67
Si  0.95  0.83  5.58
Si  1.37  2.94 -4.73
Si  4.51  3.07 -1.96
Si  0.77  5.44 -2.04
Si  5.79 -0.31 -0.84
Si  2.71 -4.48 -2.76
Si -5.46 -2.02  1.11
Si -4.12  4.27  0.17
Si -5.29 -0.51  2.93
Si  0.77 -5.67 -2.04
Si  5.64 -2.02  1.11
Si -3.77 -4.78 -0.89
Si -3.02  1.34  5.24
Si  4.52 -0.42 -4.34
Si -2.61  3.49  4.54
Si  2.89 -3.11  4.65
Si  0.30 -5.29  3.44
Si  4.69  4.28  0.12
Si  5.41 -2.03 -2.71
Si -4.65  3.02 -3.26
Si  5.00 -3.90 -1.40
Si  5.82 -0.51  2.93
Si  0.13  6.55  0.12
Si -0.98 -5.34 -3.71
Si -0.39 -6.43  1.40
Si -5.70 -2.03 -2.71
Si -3.02  1.34 -5.86
Si -3.27 -4.96 -3.20
Si  0.30  5.81  3.44
Si  2.58 -5.28  3.56
Si -0.62  4.23  5.41
Si -1.40  0.58  6.73
Si -0.98  5.77 -3.71
Si  4.92 -1.81  4.74
Si  3.92  4.75 -3.49
Si -0.62  4.23 -5.70
Si  1.37  2.94  6.38
Si -0.44 -3.12  6.49
Si  4.93  2.79  4.51
Si  2.58  5.83  3.56
Si  4.44 -5.38  2.16
Si  2.24 -0.53  6.99
Si -5.26  1.43 -4.95
Si -6.11 -3.90 -1.40
Si -3.77  6.32 -0.89
Si -4.37 -3.37  4.96
Si -7.34  1.05 -0.98
Si  3.12  4.11  5.47
Si -6.60  3.07 -1.96
Si -4.72 -5.07  3.04
Si  4.44  5.72  2.16
Si  1.83 -2.98  6.75
Si  3.12  4.11 -5.63
Si -0.33 -3.07 -6.99
Si -3.27  6.15 -3.20
Si  2.71  6.63 -2.76
Si -6.42  4.28  0.12
Si  2.89 -3.11 -6.46
Si  5.84  1.43 -4.95
Si  6.45  3.02 -3.26
Si -7.25  0.97  2.85
Si -2.61  3.49 -6.57
Si -6.59 -0.42 -4.34
Si -4.41  4.59  4.80
Si -4.12 -6.84  0.17
Si -2.18  7.70  0.04
Si -6.19 -1.81  4.74
Si -2.28 -7.40  2.04
Si -1.61 -1.41  7.75
Si  8.04  0.43 -0.43
Si  1.61  0.57 -7.88
Si -7.28 -3.52  0.63
Si -7.73  2.39  0.87
Si -6.17  2.79  4.51
Si  4.52 -0.42  6.77
Si  6.98  4.27  0.17
Si  1.54 -1.68 -7.88
Si -5.26  1.43  6.15
Si  4.92 -1.81 -6.37
Si -4.72  6.04  3.04
Si -4.96  5.13 -4.14
Si  3.92 -6.36 -3.49
Si -4.37 -3.37 -6.14
Si  4.69 -6.82  0.12
Si -2.69 -2.25 -7.55
Si  7.47 -3.41  1.72
Si  0.86 -8.38  0.39
Si -3.12  0.11 -7.87
Si  0.95 -8.20 -2.00
Si -1.03  2.73  7.98
Si  3.83  7.58  0.63
Si  1.64  8.30  1.07
Si  5.84  1.43  6.15
Si  7.99  0.11  3.23
Si -3.53 -2.60  7.44
Si -3.64  7.69  1.72
Si  4.93  2.79 -6.59
Si  6.39 -5.07  3.04
Si  8.15  2.86 -1.42
Si -0.62 -6.88  5.41
Si -4.96 -5.98 -4.14
Si  7.33 -4.78 -0.89
Si  7.58 -2.60 -3.67
Si -6.66 -5.38  2.16
Si -2.96 -8.25 -1.42
Si  5.00  7.21 -1.40
Si -0.62 -6.88 -5.70
Si -4.41  4.59 -6.31
Si -1.03 -8.38 -3.13
Si  6.15  5.13 -4.14
Si  6.74 -3.37  4.96
Si -0.33  8.04  4.12
Si -6.66  5.72  2.16
Si -6.19 -1.81 -6.37
Si  8.93  1.31  1.50
Si  3.86  0.97 -8.25
Si -0.98 -5.34  7.39
Si -4.41 -6.51  4.80
Si -0.44  7.98 -4.62
Si -2.61 -7.62  4.54
Si -7.19  4.75 -3.49
Si  6.39  6.04  3.04
Si  0.30 -5.29 -7.67
Si  1.81  0.32  9.15
Si -6.42 -6.82  0.12
Si  3.38 -8.71  0.87
Si  1.83  8.13 -4.36
Si  8.42 -2.25  3.56
Si  3.12 -7.00  5.47
Si  4.51 -8.04 -1.96
Si -0.98  5.77  7.39
Si  6.70  4.59  4.80
Si -6.17  2.79 -6.59
Si -6.59 -0.42  6.77
Si -9.29  0.32 -1.95
Si  3.12 -7.00 -5.63
Si  6.15 -5.98 -4.14
Si  1.37 -8.17 -4.73
Si -6.11  7.21 -1.40
Si  8.93 -3.41  0.04
Si  2.58 -5.28 -7.54
Si  0.95  2.91  9.10
Si -4.65  3.02  7.84
Si  0.30  5.81 -7.67
Si  2.89  8.00  4.65
Si  6.74 -3.37 -6.14
Si  8.08  1.34  5.24
Si  7.33  6.32 -0.89
Si -5.29 -0.51 -8.17
Si  0.14  0.57 -9.74
Si  6.98 -6.84  0.17
Si -8.87 -0.53 -4.11
Si  3.92  4.75  7.61
Si  8.83  3.71  2.04
Si  9.64 -1.38 -1.11
Si  7.84 -4.96 -3.20
Si  2.71 -4.48  8.35
Si  2.58  5.83 -7.54
Si -4.65 -8.08 -3.26
Si -3.27 -4.96  7.91
Si -1.47  9.73 -1.11
Si -8.40 -4.48 -2.76
Si -3.53  8.51 -3.67
Si -2.69  8.86  3.56
Si -9.46 -2.80  1.07
Si -8.21 -3.11  4.65
Si -2.18  1.31 -9.61
Si -4.96  5.13  6.97
Si -9.49  0.57  3.23
Si  5.82 -0.51 -8.17
Si -2.28  3.71 -9.06
Si  8.08  1.34 -5.86
Si  1.54  9.43  3.22
Si  0.55 10.06 -0.22
Si -4.41 -6.51 -6.31
Si -2.18 -9.80  1.50
Si  9.50 -1.41 -3.36
Si -4.37  7.73  4.96
Si  5.41 -2.03  8.40
Si -1.47 -1.38 10.00
Si -7.19 -6.36 -3.49
Si -9.56 -1.68  3.22
Si  8.49  3.49  4.54
Si  6.70  4.59 -6.31
Si -0.44  7.98  6.49
Si -5.70 -2.03  8.40
Si -1.61  9.70 -3.36
Si -2.61 -7.62 -6.57
Si -4.96 -5.98  6.97
Si  1.37 -8.17  6.38
Si  7.84  6.15 -3.20
Si  6.70 -6.51  4.80
Si -7.98  4.11  5.47
Si -2.96  2.86  9.68
Si -7.28  7.58  0.63
Si -3.27  6.15  7.91
Si  1.64 -2.80 -10.04
Si -6.60 -8.04 -1.96
Si -7.98  4.11 -5.63
Si  0.77  5.44  9.06
Si  6.45  3.02  7.84
Si  6.15  5.13  6.97
Si -10.25  2.73  0.39
Si -10.56 -1.04 -0.22
Si  0.14 -10.53  1.36
Si -3.64 -3.41 -9.38
Si -4.72 -5.07 -8.07
Si -8.52 -5.28  3.56
Si  4.51  3.07  9.15
Si -0.33  8.04 -6.99
Si -5.46  9.09  1.11
Si  3.92 -6.36  7.61
Si  9.71  0.58 -4.38
Si  4.93 -8.31  4.51
Si -9.28 -2.98 -4.36
Si  2.89  8.00 -6.46
Si  0.77 -5.67  9.06
Si  1.83  8.13  6.75
Si  5.64  9.09  1.11
Si -10.16  2.91 -2.00
Si  3.76 -10.05 -0.98
Si -0.39  4.67 -9.71
Si -4.37  7.73 -6.14
Si  6.45 -8.08 -3.26
Si  3.76  1.05 10.12
Si  7.47  7.69  1.72
Si 10.08  2.73 -3.13
Si -8.21 -3.11 -6.46
Si  5.41  9.08 -2.71
Si -8.52  5.83  3.56
Si  7.58 -2.60  7.44
Si  0.55 -1.04 10.89
Si  2.71  6.63  8.35
Si -7.25  0.97 -8.25
Si  3.38  2.39 -10.23
Si -8.40  6.63 -2.76
Si  6.15 -5.98  6.97
Si -5.70  9.08 -2.71
Si -10.96  0.57  1.36
Si  0.86  2.73 -10.71
Si  1.81 -10.79 -1.95
Si -3.07 -10.67 -0.43
Si -3.07  0.43 10.67
Si -4.72  6.04 -8.07
Si  1.61 -10.54  3.23
Si -9.73  2.94 -4.73
Si  7.99  0.11 -7.87
Si  3.86 -10.14  2.85
Si  6.70 -6.51 -6.31
Si  8.49  3.49 -6.57
Si -6.17 -8.31  4.51
Si -8.87 -0.53  6.99
Si 11.25  0.57  1.36
Si  4.44 -5.38 -8.95
Si  0.55 -1.04 -11.32
Si  6.74  7.73  4.96
Si  6.39 -5.07 -8.07
Si -1.40 -10.53 -4.38
Si -3.02 -9.77  5.24
Si -7.19  4.75  7.61
Si  4.44  5.72 -8.95
Si  8.42 -2.25 -7.55
Si  4.92  9.30  4.74
Si -5.31 -0.31 10.26
Si -5.46 -2.02 -9.99
Si  2.24 10.58 -4.11
Si  5.00 -3.90  9.71
Si -10.16  0.83 -5.53
Si -1.03 -8.38  7.98
Si -10.16  0.83  5.58
Si  5.64 -2.02 -9.99
Si -0.39 -6.43 -9.71
Si -7.73 -8.71  0.87
Si  8.15 -8.25 -1.42
Si -6.60  3.07  9.15
Si  8.83 -7.40  2.04
Si  3.83 -3.52 -10.47
Si 11.65 -1.04 -0.22
Si  4.93 -8.31 -6.59
Si  0.95 -10.28 -5.53
Si  1.81 11.43 -1.95
Si  0.95 -10.28  5.58
Si  0.14 11.68  1.36
Si 10.72  4.67  1.40
Si -2.18 -3.41 -11.07
Si  8.93  7.70  0.04
Si -3.02 -9.77 -5.86
Si  5.79 -0.31 10.26
Si  9.71  0.58  6.73
Si -3.53  8.51  7.44
Si  0.86  2.73 11.50
Si -9.28 -2.98  6.75
Si -10.33  5.44 -2.04
Si -2.18 -3.41 11.14
Si -3.12 -10.99  3.23
Si -10.98 -4.55  0.12
Si -3.77 -4.78 10.21
Si  0.13 -4.55 -10.98
Si -2.28 -7.40 -9.06
Si  6.39  6.04 -8.07
Si 10.78 -3.07  4.12
Si -7.98 -7.00  5.47
Si -2.69  8.86 -7.55
Si -3.07  0.43 -11.54
Si -3.07 11.54 -0.43
Si  6.74  7.73 -6.14
Si -10.33 -5.67 -2.04
Si  7.58  8.51 -3.67
Si -9.73  2.94  6.38
Si -7.98 -7.00 -5.63
Si 10.12 -5.34 -3.71
Si 10.66 -3.12 -4.62
Si -5.31 10.80 -0.84
Si -5.26 -9.67 -4.95
Si -3.12 11.22  3.23
Si -6.11 -3.90  9.71
Si  0.13 -4.55 11.23
Si 11.23 -4.55  0.12
Si -6.19  9.30  4.74
Si  0.55 -12.15 -0.22
Si -4.65 -8.08  7.84
Si  7.84 -4.96  7.91
Si -5.29 10.60  2.93
Si  1.61 11.68  3.23
Si 10.12  5.77 -3.71
Si -7.19 -6.36  7.61
Si -6.17 -8.31 -6.59
Si  8.49 -7.62  4.54
Si 11.96  2.73  0.39
Si  5.79 10.80 -0.84
Si  0.95 -8.20  9.10
Si  4.92  9.30 -6.37
Si  9.50 -1.41  7.75
Si  5.84 -9.67 -4.95
Si -9.49  0.57 -7.88
Si -8.21  8.00  4.65
Si -1.47 -1.38 -12.21
Si  4.52 10.69 -4.34
Si -6.66 -5.38 -8.95
Si  1.54  9.43 -7.88
Si -4.12  4.27 -10.94
Si  5.82 10.60  2.93
Si  7.47 -3.41 -9.38
Si  0.14  0.57 12.47
Si -11.50  4.67  1.40
Si -7.34 -10.05 -0.98
Si -9.56 -1.68 -7.88
Si -10.81 -5.29  3.44
Si -1.61  9.70  7.75
Si 10.48  4.23  5.41
Si -11.43 -3.07  4.12
Si -6.66  5.72 -8.95
Si  2.24 -11.63 -4.11
Si -8.52 -5.28 -7.54
Si -7.34  1.05 10.12
Si -1.40 11.69 -4.38
Si 12.05  2.91 -2.00
Si -1.40 -10.53  6.73
Si 10.72 -6.43  1.40
Si -3.77  6.32 10.21
Si  1.64 -2.80 12.18
Si -5.26 -9.67  6.15
Si -5.31 -11.41 -0.84
Si -1.47 -12.49 -1.11
Si -9.46  8.30  1.07
Si 10.48  4.23 -5.70
Si -8.40 -4.48  8.35
Si -3.64  7.69 -9.38
Si  3.38  2.39 11.98
Si  4.69  4.28 -10.99
Si -2.18 12.41  1.50
Si -12.57 -1.38 -1.11
Si  3.76  1.05 -12.09
Si  7.84  6.15  7.91
Si  8.42  8.86  3.56
Si -4.12  4.27 11.28
Si -10.81  5.81  3.44
Si  3.76 12.16 -0.98
Si -10.98  6.55  0.12
Si -7.25 -10.14  2.85
Si -8.52  5.83 -7.54
Si  0.13  6.55 -10.98
Si -12.13  2.73 -3.13
Si -11.55 -3.12 -4.62
Si  5.79 -11.41 -0.84
Si  3.83 -3.52 11.74
Si -2.18  1.31 12.60
Si -6.19  9.30 -6.37
Si  5.84 -9.67  6.15
Si 10.66 -3.12  6.49
Si  2.24 10.58  6.99
Si  4.69  4.28 11.22
Si  8.15  2.86  9.68
Si  6.45 -8.08  7.84
Si  4.51 -8.04  9.15
Si  3.86 12.07  2.85
Si  0.13  6.55 11.23
Si 11.23  6.55  0.12
Si 11.41 -5.29  3.44
Si -7.73  2.39 -10.23
Si -9.29  0.32  9.15
Si -1.61 -12.51 -3.36
Si -2.96 -8.25  9.68
Si 12.92  0.32 -1.95
Si -5.31 -0.31 -11.95
Si -9.28  8.13 -4.36
Si  5.00  7.21  9.71
Si -5.29 -11.61  2.93
Si 12.75 -2.80  1.07
Si  4.52 -11.53 -4.34
Si  1.64  8.30 -10.04
Si 12.72  0.57  3.23
Si 10.08  2.73  7.98
Si -8.21  8.00 -6.46
Si 12.65 -1.68  3.22
Si  8.49 -7.62 -6.57
Si  8.93  1.31 -9.61
Si  8.83  3.71 -9.06
Si -2.96  2.86 -12.53
Si  0.95 11.94 -5.53
Si  1.81  0.32 -13.06
Si -10.16 -8.20 -2.00
Si 10.78 -3.07 -6.99
Si  0.95 11.94  5.58
Si 11.88  5.44 -2.04
Si -12.71 -1.41 -3.36
Si -7.28 -3.52 -10.47
Si -10.25 -8.38  0.39
Si -11.50 -6.43  1.40
Si  1.61 -10.54 -7.88
Si 11.41  5.81  3.44
Si -12.50  0.58 -4.38
Si  1.54 -12.79  3.22
Si -6.59 10.69 -4.34
Si  5.79 -0.31 -11.95
Si 12.05  0.83 -5.53
Si 12.05  0.83  5.58
Si  5.82 -11.61  2.93
Si 11.88 -5.67 -2.04
Si  8.93 -9.80  1.50
Si -0.39  4.67 12.50
Si  8.04 -10.67 -0.43
Si  8.04  0.43 10.67
Si -6.42  4.28 -10.99
Si  4.52 10.69  6.77
Si -13.29  1.31  1.50
Si  7.33 -4.78 10.21
Si -3.77 -4.78 -12.00
Si  0.95  2.91 -13.11
Si 10.08 -8.38 -3.13
Si  3.83  7.58 -10.47
Si  5.41  9.08  8.40
Si -5.46 -2.02 12.22
Si -4.12 -6.84 -10.94
Si -6.11  7.21  9.71
Si -1.40 11.69  6.73
Si -9.73 -8.17 -4.73
Si -8.40  6.63  8.35
Si -11.73  4.23  5.41
Si  5.64 -2.02 12.22
Si  7.58  8.51  7.44
Si -11.55 -3.12  6.49
Si -5.70  9.08  8.40
Si -6.42  4.28 11.22
Si 10.12 -5.34  7.39
Si  0.86 -8.38 -10.71
Si  3.86 -10.14 -8.25
