500
set: 992.00  0.00  0.00
Si  0.45 -1.14  0.87
Si -0.49  1.21 -0.86
Si  1.44  1.27  0.87
Si -1.44 -1.29 -0.85
Si -2.21  1.28  0.90
Si -0.95  0.01  2.55
Si  0.91 -0.01 -2.57
Si  2.29 -1.22 -0.91
Si  0.02  2.41  2.52
Si -0.04 -2.50 -2.47
Si -3.23 -1.19  0.82
Si  3.20  1.25 -0.82
Si  2.73 -0.04  2.50
Si -2.76  0.01 -2.51
Si  0.48  3.62 -0.85
Si -0.47 -3.64  0.87
Si -1.72  2.39 -2.54
Si  1.88  2.41 -2.47
Si  1.80 -2.45  2.50
Si  1.29 -3.66 -0.82
Si -1.89 -2.50  2.52
Si -1.31  3.73  0.82
Si  4.03 -1.19  0.82
Si -4.05  1.25 -0.82
Si -0.93 -0.05 -4.24
Si  0.91 -0.04  4.30
Si -2.41 -3.70 -0.86
Si  2.37  3.77  0.87
Si -0.06 -2.46  4.20
Si  3.13 -3.63  0.90
Si -3.06  3.69 -0.91
Si  0.01  2.47 -4.22
Si -3.55  2.46  2.50
Si -2.68 -0.06  4.22
Si  2.76  0.01 -4.27
Si  3.63 -2.52 -2.54
Si -3.63 -2.52 -2.54
Si  3.71  2.46  2.50
Si  4.50  0.01 -2.51
Si -4.53 -0.04  2.50
Si -4.97 -1.22 -0.91
Si  1.86  2.45  4.20
Si -1.90 -2.44 -4.22
Si -1.81  2.47  4.26
Si  1.78 -2.50 -4.27
Si  5.04  1.28  0.90
Si -4.13 -3.63  0.90
Si -0.85  4.92 -2.51
Si  0.81 -4.95  2.50
Si  0.96  4.93  2.55
Si -1.01 -4.92 -2.57
Si  4.20  3.69 -0.91
Si -5.82  1.27  0.87
Si  5.82 -1.29 -0.85
Si  0.49 -1.19 -5.90
Si -0.49  1.17  5.91
Si  3.54 -2.45  4.26
Si -3.57  2.42 -4.27
Si -2.62  4.88  2.50
Si  2.58 -4.91 -2.51
Si  3.69  2.42 -4.27
Si -3.72 -2.45  4.26
Si  4.85 -3.70 -0.86
Si  1.42  1.31 -5.89
Si -4.50  0.01 -4.27
Si -1.46 -1.24  5.90
Si  2.82  4.90 -2.57
Si  0.37 -6.13 -0.91
Si -2.87 -4.90  2.55
Si  4.58 -0.06  4.22
Si -4.89  3.77  0.87
Si -0.30  6.20  0.90
Si -1.46 -6.05  0.87
Si  1.42  6.12 -0.86
Si -5.38  2.41 -2.47
Si  5.37 -2.50  2.52
Si  2.24 -1.20  5.94
Si -0.77  4.85  4.22
Si -2.26  1.27 -5.94
Si -5.46 -2.45  2.50
Si  2.12 -6.10  0.82
Si  0.98  4.87 -4.24
Si  5.54  2.39 -2.54
Si  0.84 -4.91 -4.27
Si -2.14  6.17 -0.82
Si -1.00 -4.96  4.30
Si -3.17 -1.18 -5.87
Si  6.31  0.01  2.55
Si  3.24  1.24  5.86
Si -6.35 -0.01 -2.57
Si -0.50 -3.60 -5.89
Si  6.77  1.21 -0.86
Si -6.81 -1.14  0.87
Si  0.46  3.67  5.90
Si -2.59  4.92 -4.27
Si  1.32 -3.68  5.86
Si  2.66 -4.97  4.22
Si -5.97 -3.66 -0.82
Si  4.39 -4.90  2.55
Si  5.95  3.73  0.82
Si -1.25  3.74 -5.87
Si  2.83  4.87  4.30
Si  3.36  6.18  0.87
Si -4.44  4.90 -2.57
Si -3.35 -6.20 -0.85
Si -2.84 -4.96 -4.24
Si  4.64  4.88  2.50
Si -4.02  1.24  5.86
Si -4.67 -4.91 -2.51
Si  5.36 -2.44 -4.22
Si  4.09 -1.18 -5.87
Si -5.40  2.45  4.20
Si  5.45  2.47  4.26
Si -3.90  6.18  0.87
Si  2.41  3.72 -5.90
Si -5.48 -2.50 -4.27
Si  3.91 -6.20 -0.85
Si -2.40 -3.75  5.91
Si  6.33 -0.05 -4.24
Si  3.08 -3.65 -5.94
Si -3.10  3.71  5.94
Si -6.35 -0.04  4.30
Si -0.47  1.16 -7.62
Si -6.78  3.62 -0.85
Si  0.20  7.30 -2.54
Si  0.48 -1.18  7.63
Si  6.79 -3.64  0.87
Si -0.12 -7.36  2.50
Si  7.71 -1.14  0.87
Si -4.43  4.87  4.30
Si -1.44 -1.25 -7.63
Si  5.00  1.27 -5.94
Si -5.02 -1.20  5.94
Si  1.40  1.32  7.64
Si  4.42 -4.96 -4.24
Si -7.75  1.21 -0.86
Si -1.64  7.38  2.50
Si -4.59 -4.97  4.22
Si  1.94  7.32  2.52
Si  2.25 -1.21 -7.59
Si  4.67  4.92 -4.27
Si -5.14 -6.10  0.82
Si -2.28  1.27  7.59
Si  7.22 -2.50 -2.47
Si -7.24  2.41  2.52
Si  1.71 -7.43 -2.54
Si  5.12  6.17 -0.82
Si -1.95 -7.42 -2.47
Si  7.28  2.41  2.52
Si -7.30 -2.50 -2.47
Si -4.18 -3.65 -5.94
Si  4.15  3.71  5.94
Si  6.25 -4.92 -2.57
Si  5.80 -1.24  5.90
Si -3.18 -1.17  7.66
Si -6.30  4.93  2.55
Si -5.84  1.31 -5.89
Si  3.25  1.23 -7.67
Si  5.80 -6.05  0.87
Si -0.51 -3.60  7.64
Si  6.41  4.92 -2.51
Si -3.47  7.32 -2.47
Si  0.47  3.66 -7.63
Si -4.85  3.72 -5.90
Si -5.84  6.12 -0.86
Si -6.45 -4.95  2.50
Si  0.10  7.38  4.26
Si  4.86 -3.75  5.91
Si  0.33 -6.11  5.94
Si -0.14 -7.41 -4.27
Si  3.45 -7.41  2.52
Si  8.17 -0.01 -2.57
Si -0.35  6.18 -5.94
Si  7.74  3.62 -0.85
Si -7.73 -3.64  0.87
Si -8.21  0.01  2.55
Si  1.43  6.08  5.91
Si -1.42 -6.10 -5.90
Si  3.79  7.32 -2.47
Si  1.34 -3.68 -7.67
Si -1.26  3.74  7.66
Si -0.62 -8.57 -0.82
Si -1.65  7.33 -4.27
Si  1.62 -7.36  4.26
Si  1.22 -8.54  0.90
Si  7.20 -2.46  4.20
Si  0.60  8.64  0.82
Si -3.81 -7.41  2.52
Si -1.97 -7.38  4.20
Si  1.93  7.38 -4.22
Si -1.14  8.60 -0.91
Si  2.18 -6.09 -5.87
Si -7.25  2.47 -4.22
Si -4.01  1.23 -7.67
Si -2.11  6.15  5.86
Si  7.27  2.47 -4.22
Si  4.08 -1.17  7.66
Si -7.32 -2.46  4.20
Si -2.39 -3.75 -7.62
Si  2.39  3.73  7.63
Si -8.70 -1.29 -0.85
Si  8.70  1.27  0.87
Si  2.39  8.53 -0.85
Si -2.38 -8.55  0.87
Si  3.07 -3.64  7.59
Si -3.09  3.71 -7.59
Si -6.27  4.87 -4.24
Si -6.77 -1.19 -5.90
Si  6.26 -4.96  4.30
Si  6.77  1.17  5.91
Si -5.93 -3.68  5.86
Si -6.41 -4.91 -4.27
Si  6.49  4.85  4.22
Si  2.94 -8.62 -0.86
Si  3.44 -7.36 -4.22
Si -3.49  7.36  4.20
Si  4.98  1.27  7.59
Si -3.37 -6.16  5.90
Si -5.01 -1.21 -7.59
Si  6.01  3.74 -5.87
Si  3.33  6.22 -5.89
Si -2.98  8.68  0.87
Si -8.19 -0.05 -4.24
Si  8.17 -0.04  4.30
Si -6.88 -6.13 -0.91
Si  3.77  7.36  4.20
Si  0.93 -0.05 -9.23
Si -3.82 -7.36 -4.22
Si  8.55 -3.66 -0.82
Si -0.94 -0.04  9.29
Si  6.96  6.20  0.90
Si  3.89 -6.16  5.90
Si -8.57  3.73  0.82
Si -5.32  7.32  2.52
Si -4.19 -3.64  7.59
Si  4.17  3.71 -7.59
Si -3.93  6.22 -5.89
Si  5.31 -7.42 -2.47
Si -9.47  1.28  0.90
Si  5.62  7.38  2.50
Si -5.54 -7.43 -2.54
Si -8.98  2.39 -2.54
Si -0.00  2.47  9.31
Si -0.04 -2.47 -9.33
Si  2.75  0.01  9.26
Si  6.76 -3.60 -5.89
Si  9.55 -1.22 -0.91
Si  5.82 -1.25 -7.63
Si -4.32 -8.62 -0.86
Si -2.67 -0.07 -9.31
Si  9.05 -2.45  2.50
Si -5.86  1.32  7.64
Si  4.28  8.68  0.87
Si -6.80  3.67  5.90
Si  0.34 -6.12 -7.59
Si  1.76 -2.49  9.27
Si -1.80  2.46 -9.27
Si  9.13  2.41 -2.47
Si  4.87 -3.75 -7.62
Si -4.87  3.73  7.63
Si  8.07 -4.95  2.50
Si -0.36  6.18  7.59
Si -8.11  4.92 -2.51
Si  7.75 -1.19 -5.90
Si -7.75  1.17  5.91
Si -7.56  6.20  0.90
Si -9.15 -2.50  2.52
Si -1.92 -2.44  9.31
Si  1.87  2.44 -9.33
Si  7.63 -6.13 -0.91
Si  1.44  6.07 -7.62
Si -4.87  8.53 -0.85
Si -5.08 -6.09 -5.87
Si -1.44 -6.09  7.63
Si  4.87 -8.55  0.87
Si  8.22  4.93  2.55
Si  5.15  6.15  5.86
Si -8.27 -4.92 -2.57
Si  5.29 -7.38  4.20
Si  2.17 -6.08  7.66
Si -5.33  7.38 -4.22
Si -2.09  6.14 -7.67
Si -0.70  9.79  2.50
Si  0.67 -9.82 -2.51
Si  5.61  7.33 -4.27
Si -5.64 -7.36  4.26
Si  1.07  9.83 -2.51
Si -3.58  2.42  9.27
Si  3.55 -2.45 -9.27
Si -1.10 -9.86  2.50
Si  3.68  2.42  9.27
Si  6.79  1.16 -7.62
Si -6.78 -1.18  7.63
Si -3.71 -2.45 -9.27
Si -8.03  4.85  4.22
Si -5.83  6.08  5.91
Si  9.99 -0.04  2.50
Si  5.84 -6.10 -5.90
Si  9.04 -2.50 -4.27
Si -4.51  0.01  9.26
Si -9.07  2.47  4.26
Si -10.02  0.01 -2.51
Si  9.12  2.45  4.20
Si -3.36 -6.16 -7.63
Si -5.92 -3.68 -7.67
Si  9.63  3.77  0.87
Si -9.16 -2.44 -4.22
Si  4.59 -0.07 -9.31
Si  7.72  3.67  5.90
Si -7.76 -3.60 -5.89
Si -9.66 -3.70 -0.86
Si  8.11 -4.91 -4.27
Si  3.32  6.23  7.64
Si -0.59 -8.59  5.86
Si  5.99  3.74  7.66
Si  2.48 -9.81  2.55
Si -2.52  9.81 -2.57
Si  8.24  4.87 -4.24
Si  0.66  8.65 -5.87
Si -7.06  7.30 -2.54
Si  1.17 -8.56 -5.94
Si -6.04 -8.54  0.90
Si  0.83 -4.90  9.26
Si -0.75  4.84 -9.31
Si -0.99 -4.96 -9.23
Si  0.97  4.87  9.29
Si -1.19  8.63  5.94
Si -8.26 -4.96  4.30
Si  7.14 -7.36  2.50
Si  3.90 -6.16 -7.63
Si  2.88  9.84  2.55
Si  8.68  1.31 -5.89
Si 10.46  1.25 -0.82
Si -2.92 -9.84 -2.57
Si -10.49 -1.19  0.82
Si  6.12  8.60 -0.91
Si -8.71 -1.24  5.90
Si -3.94  6.23  7.64
Si -2.41 -8.51 -5.89
Si -8.72 -6.05  0.87
Si  8.68  6.12 -0.86
Si  2.37  8.58  5.90
Si  1.15  9.76  4.22
Si -7.38 -7.36  2.50
Si -0.67  9.83 -4.27
Si  7.46  7.30 -2.54
Si -1.07 -9.82 -4.27
Si  0.75 -9.88  4.22
Si -9.94 -0.06  4.22
Si -2.60  4.92  9.26
Si  6.75 -3.60  7.64
Si  2.84  4.86 -9.23
Si -6.79  3.66 -7.63
Si -2.94  8.63 -5.90
Si  6.63 -8.57 -0.82
Si  2.94 -8.66  5.91
Si 10.02  0.01 -4.27
Si  2.68 -4.98 -9.31
Si -2.86 -4.95  9.29
Si -7.73  1.16 -7.62
Si  7.74 -1.18  7.63
Si -6.66  8.64  0.82
Si -2.52  9.78  4.30
Si -6.93 -6.11  5.94
Si -8.51  3.74 -5.87
Si -10.32  3.69 -0.91
Si  0.89 -0.01 10.96
Si  6.91  6.18 -5.94
Si  5.34 -2.44  9.31
Si -0.94  0.01 -10.98
Si  8.58 -3.68  5.86
Si -5.09 -6.08  7.66
Si  2.50 -9.87 -4.24
Si  5.46  2.46 -9.27
Si 10.39 -3.63  0.90
Si  0.20 -11.01  0.82
Si  2.90  9.78 -4.24
Si -5.39  2.44 -9.33
Si  4.34 -9.84 -2.57
Si -5.50 -2.49  9.27
Si -4.38  9.84  2.55
Si  5.17  6.14 -7.67
Si -0.23 11.08 -0.82
Si -7.16  7.38  4.26
Si  7.12 -7.41 -4.27
Si -2.92 -9.87  4.30
Si -1.54 -11.05 -0.91
Si  4.74  9.81 -2.57
Si -6.33 -0.05 -9.23
Si -4.78 -9.81  2.55
Si  9.38 -6.10  0.82
Si  6.32 -0.04  9.29
Si  7.36  7.38  4.26
Si  1.61 11.11  0.90
Si  0.03  2.41 -11.01
Si  9.50 -1.20  5.94
Si -9.40  6.17 -0.82
Si  9.85 -4.91 -2.51
Si -9.88  4.88  2.50
Si -9.52  1.27 -5.94
Si -7.40 -7.41 -4.27
Si -1.99 11.10  0.87
Si  4.32  8.63 -5.90
Si  2.00 -11.12 -0.85
Si -4.42  4.86 -9.23
Si -4.31 -8.66  5.91
Si -0.05 -2.50 11.06
Si -5.82  6.07 -7.62
Si -10.81  2.46  2.50
Si  2.74 -0.04 -11.03
Si -2.77  0.01 11.02
Si  5.82 -6.09  7.63
Si -1.73  2.40 10.98
Si 11.29 -1.19  0.82
Si  7.58 -6.11  5.94
Si  4.40 -4.95  9.29
Si -11.31  1.25 -0.82
Si  4.85 -8.51 -5.89
Si -1.88 -2.51 -11.01
Si  1.81 -2.45 -11.03
Si 10.89 -2.52 -2.54
Si  7.73  3.66 -7.63
Si -7.61  6.18 -5.94
Si -10.89 -2.52 -2.54
Si -7.77 -3.60  7.64
Si  1.86  2.41 11.06
Si  4.66  4.92  9.26
Si  1.15 -8.55  7.59
Si 10.08  4.90 -2.57
Si -4.89  8.58  5.90
Si -3.38 -10.97  0.87
Si -4.58 -4.98 -9.31
Si -4.36  9.78 -4.24
Si 10.97  2.46  2.50
Si -10.12 -4.90  2.55
Si -0.58 -8.60 -7.67
Si -1.18  8.62 -7.59
Si  3.33 11.03 -0.86
Si  0.65  8.66  7.66
Si  4.34 -9.87  4.30
Si  8.66  1.32  7.64
Si -8.70 -1.25 -7.63
Si  3.88 -10.97  0.87
Si -7.88 -8.57 -0.82
Si  4.74  9.78  4.30
Si -2.42 -8.51  7.64
Si  7.86  8.64  0.82
Si  2.38  8.57 -7.63
Si -3.92 11.03 -0.86
Si -4.76 -9.87 -4.24
Si -9.85  4.92 -4.27
Si -8.89  7.38  2.50
Si  3.61 -2.51 10.98
Si -3.65 -2.51 10.98
Si -3.54  2.46 -11.03
Si  0.12  7.37 -9.27
Si -0.15 -7.40  9.27
Si 10.79 -2.45  4.26
Si  9.92 -4.97  4.22
Si -6.19  9.83 -2.51
Si -10.83  2.42 -4.27
Si  6.16 -9.86  2.50
Si  4.49  0.01 11.02
Si  3.72  2.46 -11.03
Si -2.95  8.64  7.63
Si  2.96 -8.66 -7.62
Si  9.66  3.72 -5.90
Si -4.52 -0.04 -11.03
Si  8.97 -7.43 -2.54
Si -9.66 -3.75  5.91
Si -1.67  7.33  9.27
Si -6.92 -6.12 -7.59
Si  1.64 -7.36 -9.27
Si  6.90  6.18  7.59
Si -11.39 -3.63  0.90
Si 10.09  4.87  4.30
Si 10.95  2.42 -4.27
Si -10.42 -1.18 -5.87
Si 11.76  0.01 -2.51
Si  9.19  7.32  2.52
Si -10.10 -4.96 -4.24
Si -10.98 -2.45  4.26
Si  1.91  7.39  9.31
Si  6.55  9.79  2.50
Si -11.79 -0.04  2.50
Si  7.22 -2.47 -9.33
Si -8.40  8.60 -0.91
Si -8.52  3.74  7.66
Si -1.96 -7.38 -9.33
Si -1.02 -4.92 10.96
Si  8.48 -8.54  0.90
Si  7.26  2.47  9.31
Si -7.26  2.47  9.31
Si -6.09 -8.56 -5.94
Si  0.97  4.92 -10.98
Si 11.46  3.69 -0.91
Si -9.21 -7.42 -2.47
Si 10.50  1.24  5.86
Si -6.59 -9.82 -2.51
Si  8.60 -3.68 -7.67
