500
set: 1029.00  0.00  0.00
Si  0.47 -1.18  0.81
Si -0.44  1.23 -0.81
Si -1.36 -1.13 -0.78
Si  1.31  1.21  0.82
Si -0.84 -0.05  2.41
Si -2.17  1.15  0.79
Si  0.89 -0.10 -2.46
Si  2.25 -1.16 -0.78
Si -3.04 -1.14  0.84
Si  3.06  1.15 -0.78
Si -0.03  2.33  2.51
Si -0.08 -2.37 -2.47
Si  2.65  0.02  2.43
Si -0.51 -3.50  0.82
Si -2.70  0.04 -2.45
Si  0.45  3.57 -0.78
Si  1.72 -2.35  2.43
Si  1.73  2.33 -2.47
Si -1.69  2.36 -2.52
Si  1.25 -3.56 -0.78
Si -1.23  3.56  0.84
Si -1.84 -2.38  2.51
Si -0.94 -0.03 -4.04
Si  0.82 -0.02  4.08
Si -3.95  1.15 -0.78
Si  3.98 -1.14  0.84
Si -2.25 -3.48 -0.81
Si  2.28  3.53  0.81
Si -2.95  3.55 -0.78
Si  0.07  2.31 -4.13
Si  3.03 -3.56  0.79
Si -0.02 -2.45  4.09
Si -2.59  0.01  4.02
Si -3.49  2.36  2.43
Si  2.62  0.00 -4.12
Si  3.53  2.36  2.43
Si -3.50 -2.35 -2.52
Si  3.52 -2.35 -2.52
Si  4.32  0.04 -2.45
Si -4.77 -1.16 -0.78
Si -4.37  0.02  2.43
Si  1.79  2.25  4.09
Si  4.85  1.15  0.79
Si  1.75 -2.34 -4.12
Si -1.79  2.39  4.10
Si -1.74 -2.40 -4.13
Si  0.98  4.66  2.41
Si  0.84 -4.69  2.43
Si -3.98 -3.56  0.79
Si -0.89  4.75 -2.45
Si  4.06  3.55 -0.78
Si -0.93 -4.81 -2.46
Si  3.41 -2.31  4.10
Si  5.65 -1.13 -0.78
Si  2.50 -4.67 -2.45
Si  0.40 -1.14 -5.73
Si  2.70  4.61 -2.46
Si -3.46  2.37 -4.12
Si -2.55  4.72  2.43
Si -5.71  1.21  0.82
Si -0.46  1.22  5.77
Si -0.36  5.86  0.79
Si -3.60 -2.31  4.10
Si  0.44 -5.86 -0.78
Si  3.56  2.37 -4.12
Si -2.65 -4.75  2.41
Si  4.77 -3.48 -0.81
Si -4.74  3.53  0.81
Si  4.42  0.01  4.02
Si -1.34 -1.13  5.74
Si  1.38  1.18 -5.74
Si -4.39  0.00 -4.12
Si -1.35 -5.88  0.81
Si  1.38  5.93 -0.81
Si -2.13  1.21 -5.71
Si  5.17 -2.38  2.51
Si  0.88  4.68 -4.04
Si -0.78  4.71  4.02
Si  2.16 -1.21  5.77
Si -2.14  5.86 -0.78
Si -5.29  2.33 -2.47
Si -5.30 -2.35  2.43
Si  2.16 -5.85  0.84
Si  0.81 -4.70 -4.12
Si -0.99 -4.73  4.08
Si  5.33  2.36 -2.52
Si -6.13 -0.10 -2.46
Si -3.08 -1.20 -5.75
Si  6.18 -0.05  2.41
Si  3.16  1.20  5.77
Si -3.18 -5.84 -0.78
Si -6.55 -1.18  0.81
Si  2.61 -4.70  4.02
Si  6.58  1.23 -0.81
Si  3.12  5.92  0.82
Si  2.64  4.69  4.08
Si -0.44 -3.53 -5.74
Si -2.58  4.71 -4.12
Si -4.32  4.61 -2.46
Si  0.47  3.58  5.74
Si -2.75 -4.74 -4.04
Si -5.77 -3.56 -0.78
Si  5.79  3.56  0.84
Si -1.26  3.50 -5.75
Si  1.34 -3.51  5.77
Si  4.37 -4.75  2.41
Si -4.51 -4.67 -2.45
Si  4.46  4.72  2.43
Si -5.22  2.25  4.09
Si  3.84 -5.84 -0.78
Si -3.86  1.20  5.77
Si  5.22  2.39  4.10
Si  3.94 -1.20 -5.75
Si -5.27 -2.34 -4.12
Si  2.21  3.57 -5.73
Si -2.27 -3.49  5.77
Si  5.27 -2.40 -4.13
Si -3.90  5.92  0.82
Si  6.08 -0.03 -4.04
Si  3.07 -3.50 -5.71
Si -3.05  3.50  5.77
Si -6.19 -0.02  4.08
Si  6.51 -3.50  0.82
Si -0.46  1.22 -7.32
Si  0.40 -1.14  7.37
Si -0.10 -7.06  2.43
Si  0.13  7.07 -2.52
Si -6.57  3.57 -0.78
Si  4.27 -4.74 -4.04
Si -1.34 -1.13 -7.36
Si  1.37  1.18  7.35
Si -4.41 -4.70  4.02
Si -7.45  1.23 -0.81
Si -4.38  4.69  4.08
Si  4.88  1.21 -5.71
Si  7.48 -1.18  0.81
Si -4.86 -1.21  5.77
Si -4.85 -5.85  0.84
Si -1.67  7.07  2.43
Si  4.88  5.86 -0.78
Si  4.44  4.71 -4.12
Si  1.78  7.03  2.51
Si  1.70 -7.05 -2.52
Si  2.16 -1.21 -7.33
Si  6.93 -2.37 -2.47
Si -1.90 -7.08 -2.47
Si -3.95 -3.50 -5.71
Si  6.99  2.33  2.51
Si -2.13  1.21  7.38
Si  3.97  3.50  5.77
Si -7.05  2.33  2.51
Si -7.10 -2.37 -2.47
Si -6.04  4.66  2.41
Si -3.08 -1.20  7.34
Si  3.16  1.20 -7.33
Si -6.18 -4.69  2.43
Si  6.13  4.75 -2.45
Si -5.64  1.18 -5.74
Si  6.09 -4.81 -2.46
Si  5.67 -1.13  5.74
Si -0.07 -7.04 -4.12
Si -0.44 -3.53  7.35
Si  0.47  3.58 -7.36
Si  0.02  7.10  4.10
Si  5.67 -5.88  0.81
Si -7.85 -0.05  2.41
Si -5.64  5.93 -0.81
Si -3.47  7.04 -2.47
Si -0.32  5.92 -5.71
Si -1.26  3.50  7.34
Si  1.34 -3.51 -7.33
Si  3.36 -7.09  2.51
Si  4.75 -3.49  5.77
Si  3.54  7.04 -2.47
Si  0.34 -5.91  5.77
Si  7.90 -0.10 -2.46
Si -4.80  3.57 -5.73
Si  1.60 -7.02  4.10
Si -1.41 -5.85 -5.73
Si  7.47  3.57 -0.78
Si -0.56 -8.27 -0.78
Si -7.52 -3.50  0.82
Si  0.59  8.27  0.84
Si -1.64  7.08 -4.12
Si  1.89  7.01 -4.13
Si -3.66 -7.09  2.51
Si -3.86  1.20 -7.33
Si -1.14  8.26 -0.78
Si  1.35  5.93  5.77
Si  1.22 -8.26  0.79
Si -6.95  2.31 -4.13
Si  3.94 -1.20  7.34
Si -2.27 -3.49 -7.32
Si -1.83 -7.16  4.09
Si  8.32  1.21  0.82
Si  7.00 -2.45  4.09
Si  2.21  3.57  7.37
Si -8.38 -1.13 -0.78
Si -7.04 -2.45  4.09
Si -2.05  5.91  5.77
Si  2.13 -5.91 -5.75
Si  7.09  2.31 -4.13
Si -2.32 -8.20  0.82
Si  2.26  8.28 -0.78
Si -3.05  3.50 -7.33
Si  6.03 -4.73  4.08
Si -6.14  4.68 -4.04
Si  3.07 -3.50  7.38
Si  2.95 -8.19 -0.81
Si -3.41  6.96  4.09
Si -3.16 -5.83  5.74
Si -2.92  8.24  0.81
Si  6.24  4.71  4.02
Si -6.21 -4.70 -4.12
Si -5.67 -3.51  5.77
Si  3.19  5.88 -5.74
Si  6.56  1.22  5.77
Si -6.62 -1.14 -5.73
Si  7.84 -0.02  4.08
Si  3.61  6.96  4.09
Si -6.58 -5.86 -0.78
Si  5.75  3.50 -5.75
Si -4.86 -1.21 -7.33
Si  6.66  5.86  0.79
Si -7.95 -0.03 -4.04
Si  3.46 -7.11 -4.13
Si  4.88  1.21  7.38
Si -3.56 -7.11 -4.13
Si -8.24  3.56  0.84
Si  8.27 -3.56 -0.78
Si  3.97  3.50 -7.33
Si  3.86 -5.83  5.74
Si  0.82 -0.02 -9.01
Si -3.83  5.88 -5.74
Si -3.95 -3.50  7.38
Si  5.12 -7.08 -2.47
Si -0.94 -0.03  9.06
Si -5.23  7.03  2.51
Si -4.06 -8.19 -0.81
Si  5.34  7.07  2.43
Si -5.31 -7.05 -2.52
Si  4.09  8.24  0.81
Si  0.07  2.31  8.96
Si -9.19  1.15  0.79
Si -0.02 -2.46 -9.00
Si -5.64  1.18  7.35
Si  2.62  0.00  8.98
Si  5.67 -1.13 -7.36
Si -8.70  2.36 -2.52
Si  8.73 -2.35  2.43
Si  9.27 -1.16 -0.78
Si  8.75  2.33 -2.47
Si  4.75 -3.49 -7.32
Si -6.55  3.58  5.74
Si  6.58 -3.53 -5.74
Si  0.34 -5.91 -7.33
Si -2.59  0.01 -9.07
Si  1.74 -2.34  8.97
Si -1.74 -2.40  8.96
Si  7.42 -1.14 -5.73
Si -7.37  5.86  0.79
Si  1.79  2.25 -9.00
Si  7.85 -4.69  2.43
Si -0.32  5.92  7.38
Si -1.79  2.39 -8.99
Si  4.70 -8.20  0.82
Si -4.80  3.57  7.37
Si -1.41 -5.85  7.37
Si -8.86 -2.38  2.51
Si  7.45 -5.86 -0.78
Si  1.36  5.93 -7.32
Si -7.47  1.22  5.77
Si -7.90  4.75 -2.45
Si  7.99  4.66  2.41
Si -4.75  8.28 -0.78
Si -4.89 -5.91 -5.75
Si -7.94 -4.81 -2.46
Si -5.13  7.01 -4.13
Si -2.04  5.91 -7.33
Si  4.97  5.91  5.77
Si  2.13 -5.91  7.34
Si  0.69 -9.38 -2.45
Si  5.18 -7.16  4.09
Si -0.98 -9.40  2.43
Si -0.74  9.43  2.43
Si -5.42 -7.02  4.10
Si  5.37  7.08 -4.12
Si  0.93  9.45 -2.45
Si  3.41 -2.31 -8.99
Si -3.16 -5.83 -7.36
Si -3.46  2.37  8.97
Si  6.56  1.22 -7.32
Si -5.67 -3.51 -7.33
Si  5.61 -5.85 -5.73
Si -9.27 -3.48 -0.81
Si  3.56  2.37  8.97
Si  3.19  5.88  7.35
Si -2.50  9.31 -2.46
Si -7.80  4.71  4.02
Si  8.76 -2.34 -4.12
Si -3.60 -2.31 -8.99
Si  5.75  3.50  7.34
Si -6.62 -1.14  7.37
Si  9.67  0.02  2.43
Si  8.81  2.25  4.09
Si  9.30  3.53  0.81
Si -8.76 -2.40 -4.13
Si -4.39  0.00  8.98
Si -8.81  2.39  4.10
Si  7.83 -4.70 -4.12
Si -9.71  0.04 -2.45
Si -5.66  5.93  5.77
Si  7.89  4.68 -4.04
Si  0.55  8.21 -5.75
Si -0.47 -8.22  5.77
Si -7.46 -3.53 -5.74
Si  2.79  9.37  2.41
Si  1.26 -8.21 -5.71
Si  7.49  3.58  5.74
Si  4.42  0.01 -9.07
Si  2.55 -9.46  2.41
Si -1.23  8.21  5.77
Si -5.80 -8.26  0.79
Si  3.86 -5.83 -7.36
Si -8.01 -4.73  4.08
Si -10.06 -1.14  0.84
Si -3.83  5.88  7.35
Si  5.88  8.26 -0.78
Si  0.81 -4.70  8.98
Si 10.08  1.15 -0.78
Si  6.92 -7.06  2.43
Si -6.89  7.07 -2.52
Si -2.74 -9.52 -2.46
Si -8.36 -1.13  5.74
Si -0.99 -4.73 -9.01
Si  0.88  4.68  9.06
Si  8.39  1.18 -5.74
Si -0.78  4.71 -9.07
Si -8.36 -5.88  0.81
Si  0.80 -9.41  4.02
Si -2.25 -8.24 -5.74
Si  1.03  9.42  4.02
Si -0.77  9.42 -4.12
Si  8.39  5.93 -0.81
Si -7.12 -7.06  2.43
Si -1.00 -9.41 -4.12
Si  2.28  8.29  5.74
Si  7.14  7.07 -2.52
Si -9.61  0.01  4.02
Si  2.93 -8.20  5.77
Si -2.58  4.71  8.98
Si  6.58 -3.53  7.35
Si -6.55  3.58 -7.36
Si  9.64  0.00 -4.12
Si  2.64  4.69 -9.01
Si -2.99  8.27 -5.73
Si -6.43  8.27  0.84
Si  7.42 -1.14  7.37
Si  6.45 -8.27 -0.78
Si -7.47  1.22 -7.32
Si  2.61 -4.70 -9.07
Si -4.23  9.37  2.41
Si  2.45 -9.44 -4.04
Si -2.57  9.39  4.08
Si  2.69  9.39 -4.04
Si -2.75 -4.73  9.06
Si -0.33 10.56 -0.78
Si  0.35 -10.56  0.84
Si  6.70  5.92 -5.71
Si -9.97  3.55 -0.78
Si -4.89 -5.91  7.34
Si -6.67 -5.91  5.77
Si  4.51  9.31 -2.46
Si  4.97  5.91 -7.33
Si -5.22  2.25 -9.00
Si -2.80 -9.44  4.08
Si -5.27 -2.34  8.97
Si  5.27 -2.40  8.96
Si -8.28  3.50 -5.75
Si  5.23  2.39 -8.99
Si  0.89 -0.10 10.64
Si -1.38 -10.57 -0.78
Si 10.05 -3.56  0.79
Si  1.46 10.57  0.79
Si -0.83 -0.05 -10.68
Si  4.28 -9.52 -2.46
Si  6.95 -7.04 -4.12
Si -4.46 -9.46  2.41
Si  8.36 -3.51  5.77
Si  2.02 -10.55 -0.78
Si -7.00  7.10  4.10
Si  7.04  7.10  4.10
Si -7.08 -7.04 -4.12
Si -4.08 -8.20  5.77
Si -0.03  2.33 -10.58
Si  4.03  8.27 -5.73
Si -9.15  1.21 -5.71
Si -2.08 10.63  0.82
Si  9.52 -4.67 -2.45
Si -0.08 -2.37 10.63
Si -9.16  5.86 -0.78
Si  9.17 -1.21  5.77
Si  6.08 -0.03  9.06
Si  9.18 -5.85  0.84
Si -6.19 -0.02 -9.01
Si -9.57  4.72  2.43
Si  5.60 -5.85  7.37
Si -1.69  2.36 10.57
Si -2.70  0.04 10.65
Si -5.66  5.93 -7.32
Si  2.65  0.02 -10.67
Si -1.84 -2.38 -10.58
Si  1.73  2.33 10.63
Si -7.34  5.92 -5.71
Si -0.47 -8.22 -7.33
Si  0.55  8.21  7.34
Si  9.72  4.61 -2.46
Si -10.50  2.36  2.43
Si -9.67 -4.75  2.41
Si -7.46 -3.53  7.35
Si  1.72 -2.35 -10.66
Si -10.97  1.15 -0.78
Si -4.38  4.69 -9.01
Si  7.36 -5.91  5.77
Si -10.52 -2.35 -2.52
Si  4.43  4.71  8.98
Si -1.23  8.21 -7.33
Si 10.54  2.36  2.43
Si  4.27 -4.73  9.06
Si -3.16 -10.59  0.81
Si 10.99 -1.14  0.84
Si 10.53 -2.35 -2.52
Si  7.49  3.58 -7.36
Si -4.33  9.39 -4.04
Si  1.25 -8.20  7.38
Si  4.21 -9.44  4.08
Si  4.76 -8.24 -5.74
Si -4.41 -4.70 -9.07
Si -4.73  8.29  5.74
Si  3.19 10.64 -0.81
Si  4.45  9.39  4.08
Si -8.36 -1.13 -7.36
Si  8.39  1.18  7.35
Si -4.56 -9.44 -4.04
Si -7.58 -8.27 -0.78
Si  7.60  8.27  0.84
Si -2.25 -8.24  7.35
Si  3.86 -10.59  0.81
Si  2.28  8.29 -7.36
Si -3.83 10.64 -0.81
Si  2.93 -8.20 -7.32
Si -3.50 -2.35 10.57
Si  3.52 -2.35 10.57
Si -0.07 -7.04  8.97
Si  6.04 -9.40  2.43
Si  9.23  3.57 -5.73
Si 10.43 -2.31  4.10
Si  9.63 -4.70  4.02
Si -9.60  4.71 -4.12
Si  0.02  7.10 -8.99
Si -8.69  7.07  2.43
Si -3.49  2.36 -10.66
Si -2.99  8.27  7.37
Si -9.29 -3.49  5.77
Si  3.53  2.36 -10.66
Si  9.65  4.69  4.08
Si  4.32  0.04 10.65
Si  8.72 -7.05 -2.52
Si -10.47  2.37 -4.12
Si -6.09  9.45 -2.45
Si  1.60 -7.02 -8.99
Si -4.36  0.02 -10.67
Si  1.88  7.01  8.96
Si -5.76 -8.21 -5.71
Si -6.67 -5.91 -7.33
Si  8.80  7.03  2.51
Si -1.65  7.08  8.97
Si -6.95  2.31  8.96
Si -6.33 -9.38 -2.45
Si -9.77 -4.74 -4.04
Si  5.78  8.21  5.77
Si  6.28  9.43  2.43
Si -11.00 -3.56  0.79
Si  6.70  5.92  7.38
Si 10.57  2.37 -4.12
Si 11.34  0.04 -2.45
Si -8.28  3.50  7.34
Si -10.62 -2.31  4.10
Si -8.16  8.26 -0.78
Si -11.38  0.02  2.43
Si -8.91 -7.08 -2.47
Si -1.83 -7.16 -9.00
Si  7.09  2.31  8.96
Si  8.36 -3.51 -7.33
Si 11.08  3.55 -0.78
Si  7.00 -2.46 -9.00
Si -10.09 -1.20 -5.75
Si  0.84 -4.69 -10.67
Si -7.04 -2.46 -9.00
Si -0.89  4.75 10.65
