500
set: 885.00  0.00  0.00
Si  0.39 -1.14  0.83
Si -0.40  1.26 -0.79
Si -1.40 -1.18 -0.82
Si  1.40  1.22  0.83
Si  0.86  0.04 -2.44
Si -2.21  1.28  0.81
Si -0.95 -0.04  2.52
Si  2.29 -1.20 -0.82
Si  0.00  2.41  2.43
Si -3.10 -1.17  0.84
Si -0.00 -2.38 -2.50
Si  3.14  1.17 -0.92
Si -2.69  0.03 -2.48
Si -0.54 -3.59  0.84
Si  2.75  0.01  2.52
Si  0.52  3.66 -0.85
Si  1.73 -2.35  2.46
Si -1.77  2.35 -2.46
Si  1.28 -3.55 -0.77
Si -1.27  3.63  0.74
Si -1.85 -2.49  2.52
Si  1.83  2.49 -2.57
Si -0.86 -0.05 -4.12
Si  0.93 -0.03  4.17
Si -3.99  1.25 -0.90
Si -2.27 -3.55 -0.85
Si  4.08 -1.20  0.90
Si  2.25  3.62  0.84
Si  0.02  2.31 -4.18
Si -0.03 -2.42  4.14
Si  3.06 -3.59  0.87
Si -3.11  3.64 -0.80
Si  2.65  0.01 -4.11
Si  3.55 -2.40 -2.46
Si  3.59  2.38  2.44
Si -3.58  2.36  2.51
Si -2.71  0.03  4.18
Si -1.73  2.37  4.15
Si -3.63 -2.48 -2.54
Si -4.88 -1.19 -0.82
Si  4.91  1.11  0.79
Si -4.47  0.00  2.48
Si  1.84  2.36  4.16
Si  4.50  0.05 -2.50
Si -1.82 -2.42 -4.19
Si  1.80 -2.45 -4.20
Si  0.94  4.72  2.52
Si -0.84  4.74 -2.54
Si -0.96 -4.72 -2.57
Si -4.07 -3.58  0.74
Si  0.79 -4.83  2.44
Si  4.07  3.66 -0.77
Si -3.55  2.39 -4.06
Si -0.43  1.19  5.80
Si -5.80  1.11  0.79
Si  3.54 -2.40  4.16
Si  2.53 -4.80 -2.49
Si  0.45 -1.25 -5.83
Si  5.83 -1.19 -0.82
Si -2.60  4.78  2.56
Si  3.63  2.36 -4.18
Si  4.81 -3.58 -0.80
Si -3.62 -2.37  4.23
Si -2.79 -4.81  2.43
Si -0.31  6.04  0.84
Si -1.38 -1.29  5.81
Si  2.79  4.84 -2.50
Si  0.34 -6.05 -0.92
Si -4.86  3.63  0.87
Si  1.37  1.19 -5.85
Si  4.54  0.01  4.15
Si -4.45 -0.07 -4.25
Si -1.39 -6.00  0.83
Si  1.40  6.03 -0.82
Si -2.22  1.24 -5.76
Si  2.23 -1.25  5.81
Si  5.33  2.42 -2.49
Si  5.32 -2.44  2.56
Si -5.39  2.42 -2.49
Si -2.09  6.03 -0.82
Si  0.97  4.80 -4.19
Si -5.40 -2.44  2.56
Si  0.84 -4.85 -4.18
Si -0.95 -4.85  4.16
Si -0.82  4.84  4.23
Si  2.11 -6.10  0.79
Si -6.22  0.05 -2.50
Si  3.19  1.16  5.79
Si  6.25  0.00  2.48
Si -3.13 -1.24 -5.84
Si -6.63 -1.20  0.90
Si -3.20 -5.96 -0.79
Si  2.50 -4.82  4.20
Si -0.46 -3.64 -5.82
Si  0.54  3.56  5.87
Si  6.72  1.25 -0.90
Si -2.62  4.81 -4.20
Si  3.19  6.07  0.83
Si  2.76  4.79  4.14
Si  5.85  3.63  0.87
Si -5.91 -3.58 -0.80
Si -4.37  4.82 -2.46
Si -1.31  3.63 -5.82
Si  4.34 -4.86  2.51
Si  1.25 -3.60  5.88
Si -2.77 -4.90 -4.18
Si  4.52  4.87  2.46
Si  3.90 -1.21 -5.79
Si -4.56 -4.87 -2.46
Si -4.02  1.20  5.79
Si  5.29  2.40  4.20
Si  5.30 -2.41 -4.20
Si -3.84  6.02  0.90
Si  3.93 -5.97 -0.90
Si  2.33  3.58 -5.82
Si -5.42  2.40  4.20
Si -5.42 -2.41 -4.20
Si -2.25 -3.65  5.87
Si -3.06  3.53  5.74
Si -6.17  0.01  4.15
Si  0.43 -1.11  7.42
Si  3.14 -3.60 -5.84
Si  6.26 -0.07 -4.25
Si -0.45  1.12 -7.47
Si  6.65 -3.58  0.74
Si -6.64  3.66 -0.77
Si -0.05 -7.21  2.52
Si  0.10  7.24 -2.48
Si  4.37 -4.82 -4.06
Si -7.58  1.17 -0.92
Si  1.39  1.23  7.50
Si -4.38  4.82  4.16
Si  4.94  1.21 -5.83
Si  7.61 -1.17  0.84
Si  1.70 -7.17 -2.50
Si -1.40 -1.20 -7.56
Si -5.01 -5.93  0.81
Si -1.67  7.22  2.48
Si -1.93 -7.17 -2.44
Si -4.52 -4.85  4.15
Si -4.95 -1.22  5.93
Si  1.84  7.18  2.52
Si  4.59  4.77 -4.20
Si -2.24  1.13  7.45
Si -7.13  2.38  2.44
Si  5.08  6.01 -0.82
Si  7.08 -2.48 -2.54
Si  7.14  2.36  2.51
Si -7.16 -2.40 -2.46
Si  2.19 -1.23 -7.55
Si -4.11 -3.58 -5.82
Si  4.05  3.62  5.88
Si  6.15 -4.87 -2.46
Si  3.12  1.26 -7.53
Si -6.19  4.87  2.46
Si -3.16 -1.26  7.53
Si  5.70 -5.93  0.81
Si -5.63  6.01 -0.82
Si  0.45  3.57 -7.47
Si -5.77  1.21 -5.83
Si -0.14 -7.21 -4.11
Si  6.34  4.82 -2.46
Si -7.96  0.01  2.52
Si  0.09  7.24  4.18
Si -0.33  5.97 -5.84
Si  5.76 -1.22  5.93
Si -4.78  3.61 -5.84
Si  3.45 -7.21  2.48
Si -0.53 -3.57  7.55
Si  4.86 -3.68  5.74
Si  0.40 -6.05  5.79
Si -6.37 -4.86  2.51
Si  8.02  0.03 -2.48
Si  1.35 -3.60 -7.47
Si -3.42  7.26 -2.50
Si  1.42  5.92  5.81
Si -1.29  3.63  7.51
Si  7.60  3.64 -0.80
Si -0.50 -8.42 -0.82
Si -1.66  7.14 -4.25
Si  3.66  7.25 -2.44
Si  1.94  7.17 -4.12
Si -7.65 -3.59  0.87
Si  1.75 -7.21  4.15
Si -4.00  1.17 -7.43
Si -1.43 -6.03 -5.85
Si -3.75 -7.25  2.52
Si  3.93 -1.19  7.50
Si -8.42 -1.20 -0.82
Si -7.08  2.36 -4.18
Si  1.28 -8.41  0.90
Si  0.58  8.50  0.81
Si -1.86 -7.25  4.17
Si  7.16  2.39 -4.06
Si  7.09 -2.37  4.23
Si -1.20  8.46 -0.90
Si -7.17 -2.40  4.16
Si  8.50  1.28  0.81
Si -2.35 -3.65 -7.47
Si  2.15 -6.00 -5.83
Si  2.26  3.65  7.55
Si -2.15  6.00  5.93
Si -2.40 -8.36  0.83
Si -6.12  4.77 -4.20
Si  2.39  8.47 -0.79
Si  3.10 -3.56  7.49
Si -3.07  3.61 -7.51
Si  6.19 -4.85  4.15
Si -3.01  8.33  0.79
Si  6.69  1.20  5.79
Si -6.34 -4.82 -4.06
Si  3.24  5.97 -5.83
Si -3.22 -6.02  5.80
Si  3.04 -8.40 -0.82
Si  6.34  4.82  4.16
Si -3.38  7.22  4.15
Si -5.85 -3.68  5.74
Si  8.01  0.03  4.18
Si -6.82 -1.21 -5.79
Si -8.06  0.01 -4.11
Si -4.97 -1.25 -7.48
Si -6.78 -5.97 -0.90
Si  5.94  3.61 -5.84
Si  4.95  1.21  7.54
Si  3.73  7.18  4.17
Si -3.65 -7.26 -4.12
Si  3.47 -7.29 -4.25
Si -0.88  0.05  9.13
Si  6.87  6.02  0.90
Si  0.85  0.02 -9.15
Si  8.44 -3.55 -0.85
Si  3.90 -6.01  5.79
Si  5.23 -7.19 -2.48
Si -5.17  7.22  2.52
Si -8.46  3.62  0.84
Si -4.02  6.01 -5.79
Si -4.09 -3.58  7.51
Si  4.14  3.61 -7.47
Si -5.48 -7.19 -2.48
Si -4.19 -8.40 -0.82
Si  9.32 -1.18 -0.82
Si -9.31  1.22  0.83
Si  5.54  7.22  2.52
Si  4.19  8.43  0.83
Si  0.00 -2.39 -9.16
Si  0.00  2.42  9.17
Si  6.61 -3.58 -5.82
Si  5.74 -1.25 -7.48
Si  8.86 -2.49  2.52
Si  1.74 -2.44  9.07
Si -7.52  1.16  5.79
Si -5.77  1.21  7.54
Si  8.95  2.35 -2.46
Si  7.92 -4.81  2.43
Si -8.88  2.49 -2.57
Si -6.66  3.62  5.88
Si  0.33 -5.95 -7.53
Si  2.67  0.05  9.22
Si -0.37  5.95  7.53
Si -8.99 -2.35  2.46
Si -7.92  4.84 -2.50
Si -1.71  2.44 -9.15
Si  7.52 -5.96 -0.79
Si -2.67  0.02 -9.25
Si -4.82  3.66  7.49
Si  4.85 -3.60 -7.51
Si  7.59 -1.24 -5.84
Si  1.79  2.46 -9.16
Si -1.80 -2.35  9.20
Si -1.40 -5.98  7.50
Si -4.78  8.38 -0.92
Si -5.01 -5.98 -5.76
Si -7.53  6.07  0.83
Si  4.81 -8.39  0.84
Si  5.03  5.97  5.81
Si  8.11  4.78  2.56
Si  1.40  6.01 -7.56
Si -8.18 -4.80 -2.49
Si  5.21 -7.19  4.18
Si -2.18  5.97 -7.48
Si -5.27  7.22 -4.11
Si  2.15 -6.00  7.54
Si  1.03  9.56 -2.46
Si -0.78  9.57  2.51
Si -1.07 -9.56  2.46
Si  5.45  7.22 -4.11
Si  0.76 -9.61 -2.46
Si -5.50 -7.19  4.18
Si  5.70 -5.98 -5.76
Si -8.87  2.36  4.16
Si  6.71  1.17 -7.43
Si  9.76 -0.04  2.52
Si -5.68  5.97  5.81
Si -3.49  2.42  9.17
Si -9.44 -3.55 -0.77
Si  8.89 -2.42 -4.19
Si -3.61 -2.32 -9.18
Si  3.23  6.10  7.42
Si  9.44  3.63  0.74
Si -9.85  0.04 -2.44
Si  4.46  0.02 -9.12
Si -8.91 -2.45 -4.20
Si  3.51 -2.49 -9.20
Si -7.95  4.79  4.14
Si  3.69  2.41  9.17
Si  8.98  2.37  4.15
Si -3.25 -6.10 -7.47
Si -6.78 -1.19  7.50
Si -5.86 -3.60 -7.51
Si  7.66  3.53  5.74
Si  5.89  3.66  7.49
Si -7.57 -3.60 -5.84
Si  7.94 -4.90 -4.18
Si -4.51  0.03  9.19
Si  0.57  8.45 -5.76
Si -0.56 -8.46  5.81
Si -2.59  9.63 -2.49
Si  1.10 -8.42 -5.79
Si -5.90 -8.39  0.84
Si -1.23  8.41  5.79
Si -2.80 -9.59 -2.50
Si  2.52 -9.65  2.56
Si  8.09  4.81 -4.20
Si  5.93  8.38 -0.92
Si  2.79  9.62  2.43
Si  8.49  1.24 -5.76
Si  3.92 -6.05 -7.43
Si -8.48 -1.25  5.81
Si  6.97 -7.25  2.52
Si -1.00 -4.75 -9.16
Si  0.89 -4.81  9.17
Si -8.21 -4.82  4.20
Si -7.05  7.25 -2.44
Si -3.99  6.02  7.50
Si 10.31  1.26 -0.79
Si -10.32 -1.14  0.83
Si -0.82  4.89 -9.18
Si  0.99  4.87  9.20
Si -0.76  9.61 -4.06
Si  2.37  8.41  5.80
Si  1.06  9.58  4.15
Si  0.75 -9.61  4.16
Si -7.26 -7.21  2.48
Si -2.35 -8.46 -5.83
Si  8.62  6.03 -0.82
Si -8.60 -6.10  0.79
Si -0.99 -9.66 -4.20
Si -6.57  3.61 -7.47
Si  7.29  7.26 -2.50
Si  2.68 -4.80 -9.09
Si -2.59  4.85  9.09
Si -9.78 -0.03  4.17
Si  6.63 -3.58  7.51
Si  6.52 -8.40 -0.82
Si -2.98  8.43 -5.83
Si  9.86 -0.05 -4.12
Si -6.52  8.43  0.83
Si  6.69  6.01 -5.79
Si -2.79 -4.79  9.17
Si  2.80  4.83 -9.16
Si  2.97 -8.43  5.93
Si  7.55 -1.26  7.53
Si -7.59  1.26 -7.53
Si -5.24  2.41 -9.09
Si -6.81 -6.01  5.79
Si  2.81  9.53 -4.18
Si  2.50 -9.62 -4.20
Si  5.33 -2.36  9.09
Si -4.33  9.59  2.44
Si -2.63  9.61  4.20
Si -8.38  3.58 -5.82
Si 10.17 -3.59  0.84
Si -5.39 -2.36  9.09
Si  0.27 -10.80  0.87
Si  4.98  5.99 -7.55
Si -5.03 -6.09  7.45
Si -6.99  7.18  4.17
Si -2.82 -9.63  4.14
Si  0.85  0.02 10.83
Si -10.19  3.66 -0.85
Si -0.88  0.05 -10.85
Si  5.47  2.41 -9.09
Si -0.32 10.85 -0.80
Si  4.29 -9.69 -2.54
Si -1.52 -10.77 -0.77
Si  8.46 -3.65  5.87
Si  7.06 -7.26 -4.12
Si  1.52 10.85  0.74
Si  2.01 -10.79 -0.80
Si -4.64 -9.71  2.52
Si  4.16  8.40 -5.85
Si  4.62  9.71 -2.57
Si -2.67  0.02 10.73
Si -6.26  0.02 -9.12
Si  9.33 -1.29  5.81
Si -2.07 10.84  0.87
Si  0.00  2.42 -10.81
Si  0.00 -2.39 10.82
Si  2.67  0.05 -10.76
Si  6.20  0.03  9.19
Si -9.35  1.19 -5.85
Si  7.33  7.22  4.15
Si  9.32 -6.00  0.83
Si -4.17 -8.51  5.81
Si -7.25 -7.29 -4.25
Si -9.31  6.03 -0.82
Si  9.75 -4.72 -2.57
Si -9.77  4.72  2.52
Si  5.68 -6.09  7.45
Si -1.80 -2.35 -10.78
Si 11.11 -1.14  0.83
Si  0.56  8.34  7.45
Si -7.47  5.97 -5.83
Si  4.53  4.77  9.07
Si -5.73  5.99 -7.55
Si -11.12  1.26 -0.79
Si -4.72  8.38  5.79
Si  7.49 -6.02  5.80
Si -1.71  2.44 10.83
Si  1.79  2.46 10.82
Si  9.87  4.74 -2.54
Si -4.41  4.72 -9.20
Si -10.71  2.41  2.43
Si 10.71  2.41  2.43
Si 10.71 -2.38 -2.50
Si  4.43 -4.79  9.17
Si -10.72 -2.38 -2.50
Si -7.61 -3.56  7.49
Si -4.50 -4.78 -9.15
Si -1.21  8.38 -7.43
Si -4.29  9.58 -4.18
Si -9.92 -4.83  2.44
Si  7.64  3.61 -7.51
Si  1.74 -2.44 -10.91
Si  1.14 -8.41  7.50
Si  4.30 -9.58  4.23
Si  8.47  1.13  7.45
Si  4.79 -8.45 -5.84
Si -3.34 -10.80  0.84
Si -0.60 -8.44 -7.55
Si  7.70  8.33  0.79
Si -2.36 -8.33  7.42
Si  3.31 10.88 -0.85
Si -7.68 -8.40 -0.82
Si  4.64  9.58  4.16
Si  2.34  8.33 -7.47
Si -8.52 -1.23 -7.55
Si -4.62 -9.63 -4.19
Si  3.85 -10.80  0.74
Si -3.85 10.88 -0.77
Si  8.78 -7.17 -2.44
Si  3.51 -2.49 10.78
Si -3.49  2.42 -10.81
Si -3.61 -2.32 10.80
Si  9.40  3.63 -5.82
Si -9.74  4.80 -4.19
Si  9.76 -4.85  4.16
Si  2.95 -8.46 -7.48
Si  3.69  2.41 -10.81
Si -0.12 -7.16  9.22
Si -8.87  7.18  2.52
Si -2.97  8.42  7.54
Si -4.51  0.03 -10.79
Si -9.46 -3.60  5.88
Si 10.68 -2.42  4.14
Si -10.70  2.31 -4.18
Si  6.07 -9.71  2.52
Si  1.66 -7.19 -9.12
Si  6.72  6.02  7.50
Si  4.46  0.02 10.86
Si -6.79 -6.05 -7.43
Si -6.09  9.71 -2.57
Si 10.73  2.31 -4.18
Si  0.12  7.24 -9.25
Si -10.74 -2.42  4.14
Si -9.87 -4.85 -4.18
Si  6.38  9.59  2.44
Si -9.01 -7.17 -2.50
Si  8.37 -3.65 -7.47
Si  9.89  4.84  4.23
Si -7.03  2.41  9.17
Si -1.94 -7.20 -9.15
Si  5.99  8.38  5.79
Si  8.31 -8.36  0.83
Si  9.04  7.22  2.48
Si -1.72  7.25  9.19
Si  1.92  7.27  9.13
Si 11.58  0.04 -2.44
Si  7.10 -2.32 -9.18
Si -11.26 -3.59  0.84
Si 11.23  3.66 -0.85
Si -1.00 -4.75 10.82
Si -5.92 -8.45 -5.84
Si  0.89 -4.81 -10.81
Si 10.29  1.19  5.80
Si -10.27 -1.25 -5.83
Si  0.99  4.87 -10.78
Si -0.82  4.89 10.80
Si -8.32  8.47 -0.79
Si -6.43 -9.69 -2.54
