500
set: 1102.00  0.00  0.00
Si  0.43 -1.10  0.77
Si -0.40  1.14 -0.85
Si -1.35 -1.13 -0.78
Si  1.39  1.12  0.74
Si -0.83  0.01  2.38
Si -2.07  1.23  0.78
Si  0.86 -0.04 -2.40
Si  2.19 -1.12 -0.73
Si -3.00 -1.10  0.87
Si  0.08  2.26  2.43
Si -0.11 -2.34 -2.40
Si  3.06  1.23 -0.79
Si  2.55 -0.03  2.45
Si -0.38 -3.48  0.74
Si  0.41  3.47 -0.78
Si -2.68 -0.06 -2.42
Si  1.65  2.27 -2.40
Si  1.29 -3.37 -0.79
Si  1.61 -2.31  2.40
Si -1.72  2.23 -2.46
Si -1.68 -2.34  2.43
Si -1.24  3.50  0.87
Si -0.80 -0.04 -4.00
Si -3.83  1.23 -0.79
Si  0.77 -0.04  4.04
Si  3.88 -1.10  0.87
Si -2.16 -3.46 -0.85
Si  2.19  3.50  0.77
Si -2.93  3.48 -0.73
Si  3.05 -3.37  0.78
Si -0.02 -2.34  4.04
Si  0.05  2.31 -4.05
Si  3.38  2.29  2.40
Si  2.50 -0.01 -4.03
Si -2.60 -0.07  3.97
Si  3.41 -2.37 -2.46
Si -3.51  2.29  2.40
Si  4.21 -0.06 -2.42
Si -3.48 -2.37 -2.46
Si -4.69 -1.12 -0.73
Si  1.67 -2.33 -3.98
Si -1.80  2.24  4.02
Si  1.74  2.27  4.04
Si -1.72 -2.29 -4.05
Si -4.34 -0.03  2.45
Si  4.82  1.23  0.78
Si -3.84 -3.37  0.78
Si -0.92  4.54 -2.42
Si  0.93  4.61  2.38
Si -0.90 -4.64 -2.40
Si  0.79 -4.63  2.45
Si  3.96  3.48 -0.73
Si -5.50  1.12  0.74
Si  5.54 -1.13 -0.78
Si  3.43  2.27 -3.98
Si  3.33 -2.36  4.02
Si -3.46  2.27 -3.98
Si  0.43 -5.72 -0.73
Si  2.62  4.57 -2.40
Si -2.60 -4.59  2.38
Si -0.47  1.17  5.65
Si -2.58  4.57  2.45
Si  2.45 -4.66 -2.42
Si  0.50 -1.18 -5.70
Si -1.28 -1.16  5.58
Si  4.29 -0.07  3.97
Si -3.56 -2.36  4.02
Si -0.31  5.83  0.78
Si -1.34 -5.71  0.77
Si -4.70  3.50  0.77
Si  4.72 -3.46 -0.85
Si  1.31  1.20 -5.67
Si -4.39 -0.01 -4.03
Si  1.36  5.74 -0.85
Si -2.12  1.20 -5.57
Si -0.83  4.53  3.97
Si  0.96  4.56 -4.00
Si  2.18 -1.07  5.64
Si  2.12 -5.70  0.87
Si  5.17  2.23 -2.46
Si  0.73 -4.62 -4.03
Si -5.24  2.27 -2.40
Si  5.21 -2.34  2.43
Si -0.99 -4.64  4.04
Si -2.07  5.83 -0.79
Si -5.27 -2.31  2.40
Si -2.96 -1.07 -5.65
Si -6.03 -0.04 -2.40
Si  6.05  0.01  2.38
Si -3.11 -5.73 -0.78
Si  3.15  5.72  0.74
Si  0.48  3.44  5.58
Si -5.59 -3.37 -0.79
Si  3.08  1.18  5.70
Si -6.46 -1.10  0.77
Si  2.54  4.57  4.04
Si -0.46 -3.40 -5.67
Si  2.53 -4.67  3.97
Si  6.49  1.14 -0.85
Si -2.56 -4.64 -4.00
Si -2.63  4.59 -4.03
Si -4.27  4.57 -2.40
Si  5.65  3.50  0.87
Si  4.29 -4.59  2.38
Si  4.31  4.57  2.45
Si -1.19  3.53 -5.65
Si  1.31 -3.42  5.70
Si  5.09  2.24  4.02
Si -4.44 -4.66 -2.42
Si -3.74  5.72  0.74
Si  3.78 -5.73 -0.78
Si -5.15  2.27  4.04
Si  5.17 -2.29 -4.05
Si -3.81  1.18  5.70
Si -5.22 -2.33 -3.98
Si  3.93 -1.07 -5.65
Si -2.23 -3.43  5.65
Si  2.27  3.42 -5.70
Si  3.00 -3.40 -5.57
Si  0.05  6.83 -2.46
Si -2.95  3.53  5.64
Si  6.09 -0.04 -4.00
Si  0.51 -1.18  7.17
Si -0.15 -6.92  2.40
Si -0.47  1.17 -7.22
Si -6.12 -0.04  4.04
Si -6.48  3.47 -0.78
Si  1.31  1.20  7.20
Si  6.51 -3.48  0.74
Si  4.77  1.20 -5.57
Si -7.29  1.14 -0.85
Si -4.71 -1.07  5.64
Si  7.32 -1.10  0.77
Si  4.26  4.59 -4.03
Si -4.77 -5.70  0.87
Si -1.28 -1.16 -7.29
Si -4.35  4.57  4.04
Si  4.32 -4.64 -4.00
Si -1.75  6.89  2.40
Si  1.84  6.86  2.43
Si -4.36 -4.67  3.97
Si  6.78 -2.34 -2.40
Si -1.87 -6.94 -2.40
Si  1.65 -6.97 -2.46
Si -6.81  2.26  2.43
Si -3.89 -3.40 -5.57
Si  4.82  5.83 -0.79
Si  2.17 -1.07 -7.22
Si -2.12  1.20  7.30
Si  6.97  2.26  2.43
Si  3.94  3.53  5.64
Si -7.00 -2.34 -2.40
Si -2.96 -1.07  7.22
Si  5.97  4.54 -2.42
Si  3.08  1.18 -7.17
Si -5.96  4.61  2.38
Si -0.03  6.84  4.02
Si  5.99 -4.64 -2.40
Si -0.45 -3.40  7.20
Si -0.09 -6.93 -3.98
Si  5.61 -1.16  5.58
Si  5.55 -5.71  0.77
Si  0.41 -5.67  5.64
Si -5.53  5.74 -0.85
Si -0.47 -7.97 -0.79
Si  3.42  6.87 -2.40
Si -6.10 -4.63  2.45
Si -5.58  1.20 -5.67
Si  1.31 -3.42 -7.17
Si -0.36  5.81 -5.57
Si -3.47  6.87 -2.40
Si  0.48  3.44 -7.29
Si -7.72  0.01  2.38
Si  4.66 -3.43  5.65
Si -7.26 -3.48  0.74
Si -4.62  3.42 -5.70
Si  7.75 -0.04 -2.40
Si  1.29 -7.97  0.78
Si -1.70  6.87 -3.98
Si  7.30  3.47 -0.78
Si -1.19  3.53  7.22
Si  3.44 -6.94  2.43
Si -3.44 -6.94  2.43
Si  0.52  8.11  0.87
Si  1.29  5.77  5.65
Si  1.57 -6.96  4.02
Si -1.17  8.08 -0.73
Si -3.81  1.18 -7.17
Si -1.26 -5.78 -5.70
Si  1.81  6.91 -4.05
Si -1.78 -6.94  4.04
Si  2.27  3.42  7.17
Si -6.84  2.31 -4.05
Si  3.94 -1.07  7.22
Si  2.17 -5.67 -5.65
Si -2.23 -3.43 -7.22
Si  6.87 -2.34  4.04
Si -6.91 -2.34  4.04
Si -8.24 -1.13 -0.78
Si  6.93  2.31 -4.05
Si -2.05  5.78  5.70
Si  8.28  1.12  0.74
Si -2.14 -8.08  0.74
Si  2.17  8.07 -0.78
Si -5.93  4.56 -4.00
Si  5.90 -4.64  4.04
Si  6.05  4.53  3.97
Si -2.95  3.53 -7.22
Si -3.04 -5.76  5.58
Si  3.00 -3.40  7.30
Si  2.96 -8.06 -0.85
Si  6.42  1.17  5.65
Si -6.38 -1.18 -5.70
Si -2.94  8.10  0.77
Si -3.38  6.87  4.04
Si -6.46 -5.72 -0.73
Si  7.66 -0.04  4.04
Si  3.07  5.80 -5.67
Si -7.69 -0.04 -4.00
Si -5.57 -3.42  5.70
Si -6.16 -4.62 -4.03
Si  3.41 -6.89 -4.05
Si -4.71 -1.07 -7.22
Si  3.50  6.87  4.04
Si -3.48 -6.89 -4.05
Si  5.70  3.53 -5.65
Si  4.77  1.20  7.30
Si  6.58  5.83  0.78
Si -5.05  6.86  2.43
Si  0.77 -0.03 -8.83
Si  8.18 -3.37 -0.79
Si  5.02 -6.94 -2.40
Si  3.85 -5.76  5.58
Si -8.13  3.50  0.87
Si -0.80 -0.04  8.87
Si  5.14  6.89  2.40
Si -3.88 -3.40  7.30
Si  3.94  3.53 -7.22
Si -3.82  5.80 -5.67
Si -3.93 -8.06 -0.85
Si  3.95  8.10  0.77
Si -5.24 -6.97 -2.46
Si -8.96  1.23  0.78
Si  0.05  2.31  8.82
Si -0.02 -2.33 -8.83
Si  8.51 -2.31  2.40
Si  8.54  2.27 -2.40
Si -6.41  3.44  5.58
Si  9.09 -1.12 -0.73
Si  2.50 -0.01  8.84
Si -5.58  1.20  7.20
Si -4.62  3.42  7.17
Si  0.41 -5.67 -7.22
Si -8.57 -2.34  2.43
Si -8.61  2.23 -2.46
Si  6.43 -3.40 -5.67
Si  4.66 -3.43 -7.22
Si  5.61 -1.16 -7.29
Si -2.60 -0.07 -8.89
Si -1.72 -2.29  8.82
Si  1.74  2.27 -8.83
Si -4.72 -5.67 -5.65
Si -1.26 -5.78  7.17
Si  7.68 -4.63  2.45
Si -7.20  5.83  0.78
Si -1.80  2.24 -8.85
Si  7.32 -5.72 -0.73
Si  1.29  5.77 -7.22
Si -0.36  5.80  7.30
Si  1.67 -2.33  8.89
Si -7.81  4.54 -2.42
Si -7.36  1.17  5.65
Si -7.79 -4.64 -2.40
Si -4.72  8.07 -0.78
Si  7.82  4.61  2.38
Si  4.75 -8.08  0.74
Si  7.39 -1.18 -5.70
Si -2.05  5.78 -7.17
Si  2.17 -5.67  7.22
Si  4.84  5.78  5.70
Si -5.08  6.91 -4.05
Si  5.19  6.87 -3.98
Si  0.85  9.14 -2.42
Si  5.11 -6.94  4.04
Si -0.81  9.17  2.45
Si  0.69 -9.26 -2.42
Si -0.97 -9.23  2.45
Si -5.32 -6.96  4.02
Si -6.38 -1.18  7.17
Si -5.58 -3.42 -7.17
Si  8.56 -2.33 -3.98
Si  6.42  1.17 -7.22
Si -9.05 -3.46 -0.85
Si  3.07  5.80  7.20
Si  3.33 -2.36 -8.85
Si  9.44 -0.03  2.45
Si  9.08  3.50  0.77
Si -3.05 -5.76 -7.29
Si -5.60 -7.97  0.78
Si  7.62 -4.62 -4.03
Si -8.61 -2.29 -4.05
Si  3.43  2.27  8.89
Si  8.63  2.27  4.04
Si -7.72  4.53  3.97
Si -3.46  2.27  8.89
Si -2.50  9.17 -2.40
Si  1.24 -8.00 -5.57
Si -3.56 -2.36 -8.85
Si -5.60  5.77  5.65
Si  2.53 -9.19  2.38
Si -8.69  2.24  4.02
Si  5.70  3.53  7.22
Si -0.45 -8.02  5.70
Si  7.37  3.44  5.58
Si -9.57 -0.06 -2.42
Si -4.39 -0.01  8.84
Si  4.29 -0.07 -8.89
Si  5.63 -5.78 -5.70
Si -7.34 -3.40 -5.67
Si  2.69  9.21  2.38
Si -2.66 -9.24 -2.40
Si  0.57  8.13 -5.65
Si  7.85  4.56 -4.00
Si  5.72  8.08 -0.73
Si  6.74 -6.92  2.40
Si -8.17 -1.16  5.58
Si -1.19  8.13  5.64
Si -6.84  6.83 -2.46
Si -9.89 -1.10  0.87
Si -7.88 -4.64  4.04
Si  0.73 -4.62  8.84
Si -3.82  5.80  7.20
Si  0.93  9.13  3.97
Si -0.84  4.53 -8.89
Si  0.96  4.56  8.87
Si -0.99 -4.64 -8.83
Si  8.20  1.20 -5.67
Si -8.22 -5.71  0.77
Si  6.93  6.83 -2.46
Si  2.24  8.04  5.58
Si  3.84 -5.76 -7.29
Si  9.95  1.23 -0.79
Si -2.22 -8.01 -5.67
Si -0.87  9.19 -4.03
Si  8.25  5.74 -0.85
Si -1.03 -9.22 -4.03
Si  0.77 -9.27  3.97
Si -7.04 -6.92  2.40
Si  9.38 -0.01 -4.03
Si  6.44 -3.40  7.20
Si  2.90 -8.03  5.65
Si -2.86  8.03 -5.70
Si  2.53  4.57 -8.83
Si  6.42 -7.97 -0.79
Si -9.49 -0.07  3.97
Si -6.48 -5.67  5.64
Si -6.41  3.44 -7.29
Si -2.63  4.59  8.84
Si -4.72 -5.67  7.22
Si -2.56 -4.64  8.87
Si  0.36 -10.30  0.87
Si -6.37  8.11  0.87
Si -2.59  9.17  4.04
Si  6.53  5.81 -5.57
Si  2.53 -4.67 -8.89
Si  2.72  9.16 -4.00
Si  7.40 -1.18  7.17
Si -7.36  1.17 -7.22
Si  2.56 -9.24 -4.00
Si  4.84  5.78 -7.17
Si -4.20  9.21  2.38
Si -1.33 -10.32 -0.73
Si  4.23 -9.24 -2.40
Si  4.38  9.17 -2.40
Si -9.82  3.48 -0.73
Si -4.36 -9.19  2.38
Si -2.75 -9.24  4.04
Si  5.09  2.24 -8.85
Si -0.31 10.43 -0.79
Si -5.15  2.27 -8.83
Si -8.08  3.53 -5.65
Si  5.17 -2.29  8.82
Si  6.86  6.84  4.02
Si  6.80 -6.93 -3.98
Si  0.86 -0.04 10.47
Si -0.84  0.01 -10.48
Si  9.94 -3.37  0.78
Si -6.92  6.84  4.02
Si -1.98 10.32  0.74
Si  2.01 -10.33 -0.78
Si  8.21 -3.42  5.70
Si  1.45 10.43  0.78
Si -5.22 -2.33  8.89
Si -3.99 -8.03  5.65
Si -6.98 -6.93 -3.98
Si  4.03  8.03 -5.70
Si -9.01  1.20 -5.57
Si  0.08  2.26 -10.43
Si  9.01 -5.70  0.87
Si  9.34 -4.66 -2.42
Si -8.96  5.83 -0.79
Si  2.55 -0.03 -10.42
Si -0.11 -2.34 10.47
Si  9.07 -1.07  5.64
Si -6.12 -0.03 -8.83
Si  6.09 -0.04  8.87
Si -0.45 -8.02 -7.17
Si -1.72  2.23 10.41
Si -3.10 -10.31  0.77
Si -2.68 -0.06 10.45
Si 10.27  2.29  2.40
Si -9.46  4.57  2.45
Si  5.63 -5.78  7.17
Si -9.49 -4.59  2.38
Si -5.60  5.77 -7.22
Si  9.51  4.57 -2.40
Si -10.72  1.23 -0.79
Si -1.69 -2.34 -10.43
Si -7.25  5.81 -5.57
Si  4.26  4.59  8.84
Si -4.17  9.16 -4.00
Si -7.34 -3.40  7.20
Si  7.30 -5.67  5.64
Si  1.61 -2.31 -10.46
Si -4.65  8.04  5.58
Si  3.12 10.35 -0.85
Si  1.66  2.27 10.47
Si 10.30 -2.37 -2.46
Si -4.36  4.57 -8.83
Si  4.67 -8.01 -5.67
Si 10.78 -1.10  0.87
Si -7.36 -7.97 -0.79
Si  0.57  8.13  7.22
Si  4.14 -9.24  4.04
Si  4.30  9.17  4.04
Si  1.24 -8.00  7.30
Si  4.33 -4.64  8.87
Si -10.37 -2.37 -2.46
Si  7.37  3.44 -7.29
Si -10.40  2.29  2.40
Si -1.19  8.13 -7.22
Si -4.36 -4.67 -8.89
Si -4.33 -9.24 -4.00
Si  8.20  1.20  7.20
Si -2.22 -8.01  7.20
Si  3.79 -10.31  0.77
Si -8.17 -1.16 -7.29
Si  7.41  8.11  0.87
Si -3.77 10.35 -0.85
Si  2.24  8.04 -7.29
Si -2.86  8.02  7.17
Si  2.89 -8.03 -7.22
Si -0.04  6.84 -8.85
Si  3.41 -2.37 10.41
Si -6.04  9.14 -2.42
Si  9.43  4.57  4.04
Si -3.48 -2.37 10.41
Si  3.38  2.29 -10.46
Si 10.22 -2.36  4.02
Si  5.92 -9.23  2.45
Si -6.48 -5.67 -7.22
Si  9.42 -4.67  3.97
Si -5.65 -8.00 -5.57
Si -9.12 -3.43  5.65
Si -9.46 -4.64 -4.00
Si  4.21 -0.06 10.45
Si -10.73 -3.37  0.78
Si -3.51  2.29 -10.46
Si -0.09 -6.93  8.89
Si  6.08  9.17  2.45
Si -4.34 -0.03 -10.42
Si 10.32  2.27 -3.98
Si  8.54 -6.97 -2.46
Si -8.64  6.89  2.40
Si -9.52  4.59 -4.03
Si  9.16  3.42 -5.70
Si -10.35  2.27 -3.98
Si  1.81  6.91  8.82
Si -1.69  6.87  8.89
Si 11.10 -0.06 -2.42
Si  8.73  6.86  2.43
Si  1.57 -6.96 -8.85
Si -1.78 -6.94 -8.83
Si  6.53  5.80  7.30
Si -8.08  3.53  7.22
Si -6.84  2.31  8.82
Si -9.85 -1.07 -5.65
Si -6.20 -9.26 -2.42
Si 10.85  3.48 -0.73
Si  8.20 -3.42 -7.17
Si  5.70  8.13  5.64
Si  0.79 -4.63 -10.42
Si -8.76 -6.94 -2.40
Si  6.87 -2.33 -8.83
Si -0.91  4.54 10.45
Si -8.06  8.08 -0.73
Si -10.45 -2.36  4.02
Si  8.18 -7.97  0.78
Si -4.88 -10.33 -0.78
Si  6.94  2.31  8.82
