500
set: 1456.00  0.00  0.00
Si -1.05  0.34  0.07
Si -1.37 -0.84 -1.66
Si  2.12 -1.01 -0.55
Si -0.69 -1.90  1.33
Si  0.84  2.44 -0.08
Si  1.17 -0.78  2.30
Si  2.47  1.06  0.91
Si -0.28  1.38  2.80
Si  2.13  0.69 -2.31
Si  0.25 -3.32 -0.08
Si -3.15  1.06  0.91
Si  0.67  2.77 -2.17
Si -3.50 -1.01 -0.55
Si  0.08 -2.99 -2.17
Si -1.19  1.65 -3.13
Si  1.38 -1.15 -3.56
Si -0.10  3.86  1.33
Si -3.48  0.69 -2.31
Si -2.40  2.90  2.15
Si  2.63 -2.86  2.15
Si -0.25  0.23 -4.54
Si  4.57  0.34  0.07
Si  4.25 -0.84 -1.66
Si -2.99 -2.86  2.15
Si  1.34 -1.11  4.38
Si -2.41  1.20  3.91
Si  3.22  2.90  2.15
Si -4.45 -0.78  2.30
Si  1.88 -4.70  0.91
Si  0.04  2.55  4.53
Si  3.21  1.20  3.91
Si -2.14 -1.88 -4.40
Si -0.78  4.92 -1.66
Si -0.87 -4.38  2.80
Si -4.78  2.44 -0.08
Si  4.93 -1.90  1.33
Si -1.78 -4.11 -3.13
Si  2.71  4.75 -0.55
Si -0.55 -3.21  4.53
Si -2.91  4.75 -0.55
Si -4.24 -1.15 -3.56
Si -1.64 -5.42  0.07
Si  4.43  1.65 -3.13
Si  1.76  4.98  2.30
Si  1.54 -5.07 -2.31
Si  0.40  0.32  5.79
Si  1.62  2.54 -5.01
Si  3.48 -1.88 -4.40
Si  1.03 -3.23 -5.01
Si -1.55  3.88 -4.40
Si -4.95  2.77 -2.17
Si -3.74 -4.70  0.91
Si -0.46  6.10  0.07
Si  1.97  4.61 -3.56
Si  5.34  1.38  2.80
Si -4.28 -1.11  4.38
Si -5.37 -3.32 -0.08
Si  3.84 -4.11 -3.13
Si -2.66 -2.49  5.37
Si  2.62 -4.56  3.91
Si  2.96 -2.49  5.37
Si -2.07  3.27  5.37
Si -5.54 -2.99 -2.17
Si -0.41  0.56 -6.63
Si -5.90  1.38  2.80
Si -6.67  0.34  0.07
Si  1.93  4.65  4.38
Si -3.86  4.98  2.30
Si -3.00 -4.56  3.91
Si -6.31 -1.90  1.33
Si  3.98 -5.42  0.07
Si  5.87 -3.32 -0.08
Si  5.70 -2.99 -2.17
Si  5.52  3.86  1.33
Si -3.65  4.61 -3.56
Si -4.00  2.54 -5.01
Si -4.08 -5.07 -2.31
Si  6.46  2.44 -0.08
Si -1.90 -0.64  6.62
Si -1.87  2.71 -6.13
Si  0.58 -6.54  2.30
Si  1.53 -6.77 -0.55
Si  1.05 -1.52 -6.77
Si -5.72  3.86  1.33
Si  5.37  0.23 -4.54
Si  4.75 -4.38  2.80
Si -1.96 -6.60 -1.66
Si  4.84  4.92 -1.66
Si  4.07  3.88 -4.40
Si  6.29  2.77 -2.17
Si -0.84 -5.54 -4.54
Si  6.79 -0.78  2.30
Si  3.55  3.27  5.37
Si -6.99 -0.84 -1.66
Si -2.46 -3.05 -6.13
Si  2.26  1.44  6.76
Si -2.56  6.82  0.91
Si  2.73  6.45 -2.31
Si -3.69  4.65  4.38
Si -5.87  0.23 -4.54
Si -2.89  6.45 -2.31
Si  5.07 -3.21  4.53
Si  0.34  5.99 -4.54
Si -4.59 -3.23 -5.01
Si  3.06  6.82  0.91
Si  3.16 -3.05 -6.13
Si  0.21 -2.17  7.26
Si  3.72 -0.64  6.62
Si -5.58  2.55  4.53
Si  0.31  7.14  2.80
Si -6.81  1.65 -3.13
Si  3.75  2.71 -6.13
Si  5.66  2.55  4.53
Si -3.36  1.44  6.76
Si  3.66 -6.60 -1.66
Si -5.22  0.32  5.79
Si  0.79 -6.91 -3.56
Si  7.74 -1.01 -0.55
Si -1.28 -7.66  1.33
Si -4.09 -6.77 -0.55
Si  7.00 -1.15 -3.56
Si -0.19 -5.44  5.79
Si -2.28 -0.56 -7.60
Si  5.16  6.10  0.07
Si -0.60  7.41 -3.13
Si  7.75  0.69 -2.31
Si  0.81  3.59  7.26
Si  1.64  4.24 -6.77
Si  0.75 -6.87  4.38
Si -1.82  6.96  3.91
Si  1.67 -4.32  6.76
Si  8.09  1.06  0.91
Si -6.40  4.92 -1.66
Si  6.96 -1.11  4.38
Si -6.17 -3.21  4.53
Si -4.57 -1.52 -6.77
Si -6.49 -4.38  2.80
Si  3.34 -0.56 -7.60
Si  1.43  8.20 -0.08
Si  6.02  0.32  5.79
Si  0.88  2.39 -8.02
Si  5.21  0.56 -6.63
Si  0.99  6.08  5.79
Si -1.31  5.12  6.62
Si -1.00 -5.21 -6.63
Si -5.04 -6.54  2.30
Si -6.08  6.10  0.07
Si  4.78 -5.54 -4.54
Si  0.29 -3.37 -8.02
Si -8.02  2.90  2.15
Si  3.80  6.96  3.91
Si -8.77  1.06  0.91
Si  1.26  8.53 -2.17
Si  7.50 -4.70  0.91
Si  4.34 -7.66  1.33
Si -1.92 -2.34  8.38
Si -3.98  4.24 -6.77
Si  6.65 -3.23 -5.01
Si -3.95 -4.32  6.76
Si -6.04  0.56 -6.63
Si  8.25 -2.86  2.15
Si -8.03  1.20  3.91
Si -7.40 -4.11 -3.13
Si -0.51 -8.75 -2.17
Si -7.26 -5.42  0.07
Si  0.54 -1.00  8.99
Si  7.17 -5.07 -2.31
Si -0.34 -9.08 -0.08
Si -1.81  8.66  2.15
Si -7.76 -1.88 -4.40
Si  2.04 -8.62  2.15
Si -1.32  3.42  8.38
Si -4.83 -6.91 -3.56
Si  0.17  6.32 -6.63
Si  7.24  2.54 -5.01
Si -5.28  5.99 -4.54
Si -9.12 -1.01 -0.55
Si  7.38  4.98  2.30
Si -4.19  8.20 -0.08
Si -2.73 -7.64 -4.40
Si  2.42  1.11  8.85
Si -7.17  3.88 -4.40
Si  2.89 -7.64 -4.40
Si  6.20 -6.54  2.30
Si -5.40 -2.17  7.26
Si -1.34 -1.99 -9.01
Si -8.61 -2.86  2.15
Si -5.31  7.14  2.80
Si -1.69  5.20 -7.60
Si -2.63  1.67 -8.86
Si  4.31  5.12  6.62
Si -9.10  0.69 -2.31
Si -4.81  3.59  7.26
Si  3.71 -2.34  8.38
Si -3.19  1.11  8.85
Si  5.02  7.41 -3.13
Si  0.63  8.31  4.53
Si -4.87 -6.87  4.38
Si  0.53  0.32 -9.48
Si  2.99  1.67 -8.86
Si -2.49 -6.40  6.62
Si  8.84  2.90  2.15
Si  7.59  4.61 -3.56
Si  5.83 -2.17  7.26
Si -3.58 -8.62  2.15
Si -4.63  6.08  5.79
Si  5.96  5.99 -4.54
Si  8.33  4.75 -0.55
Si  4.61 -5.21 -6.63
Si -4.74  2.39 -8.02
Si  5.42 -5.44  5.79
Si  6.67 -1.52 -6.77
Si -6.46 -5.54 -4.54
Si  5.93  7.14  2.80
Si  3.81  8.66  2.15
Si  3.13 -6.40  6.62
Si  0.49  9.62  1.33
Si  8.83  1.20  3.91
Si -8.53  4.75 -0.55
Si -0.75  3.77 -9.01
Si -4.36  8.53 -2.17
Si -5.81 -5.44  5.79
Si  7.15 -6.77 -0.55
Si  7.55  4.65  4.38
Si -7.68  3.27  5.37
Si  2.21  8.30 -5.01
Si  0.46 -7.29 -6.77
Si -1.57 -0.27  9.84
Si  3.93  5.20 -7.60
Si  4.29  3.42  8.38
Si -7.52 -0.64  6.62
Si  9.87 -0.84 -1.66
Si -7.49  2.71 -6.13
Si  2.40 -4.09 -8.86
Si  6.41 -6.91 -3.56
Si -1.14 -8.97  4.53
Si  2.37 -8.25  5.37
Si  1.83 -4.65  8.85
Si -6.22  7.41 -3.13
Si  4.28 -1.99 -9.01
Si -8.28 -2.49  5.37
Si -7.58 -6.60 -1.66
Si  8.24 -4.56  3.91
Si 10.19  0.34  0.07
Si -5.33 -3.37 -8.02
Si  1.13  4.76  8.99
Si -2.77  7.20  6.76
Si  2.75 -6.33 -7.60
Si -3.41  8.30 -5.01
Si  2.85  7.20  6.76
Si -3.22 -4.09 -8.86
Si  9.10 -1.88 -4.40
Si -2.87 -6.33 -7.60
Si  0.44 -8.99 -5.01
Si  6.37 -6.87  4.38
Si  6.42  3.59  7.26
Si -10.07 -0.78  2.30
Si -3.25 -8.25  5.37
Si  5.11 -8.75 -2.17
Si -5.08 -1.00  8.99
Si -6.90 -7.66  1.33
Si  8.58 -2.49  5.37
Si  7.88  1.44  6.76
Si  5.28 -9.08 -0.08
Si -8.62 -4.56  3.91
Si  5.91 -3.37 -8.02
Si -9.36 -4.70  0.91
Si -1.28  8.47 -6.13
Si -9.86 -1.15 -3.56
Si  1.28 -10.46  0.91
Si -8.08 -3.05 -6.13
Si  6.50  2.39 -8.02
Si -1.48  9.03  5.37
Si -1.46 -10.14  2.80
Si -2.37 -9.87 -3.13
Si -0.96  9.64 -4.40
Si  4.05 -0.27  9.84
Si -5.44  6.32 -6.63
Si 10.05  1.65 -3.13
Si  1.48  2.53 10.26
Si -10.40  2.44 -0.08
Si  6.61  6.08  5.79
Si -3.79 -4.65  8.85
Si -8.18  6.82  0.91
Si -4.99  8.31  4.53
Si -6.62 -5.21 -6.63
Si -5.09  0.32 -9.48
Si -0.38 -7.93  7.26
Si -2.32 10.51 -0.55
Si  9.46 -4.11 -3.13
Si  0.89 -3.23 10.26
Si  7.26  4.24 -6.77
Si  8.35  6.45 -2.31
Si 10.55 -1.90  1.33
Si  7.05  8.20 -0.08
Si -0.19 10.68 -1.66
Si  5.79  6.32 -6.63
Si  7.29 -4.32  6.76
Si  3.25 -9.87 -3.13
Si -6.93  5.12  6.62
Si -5.96 -9.08 -0.08
Si -9.90 -1.11  4.38
Si -6.13 -8.75 -2.17
Si  4.87  3.77 -9.01
Si -7.44  6.96  3.91
Si -0.06 -5.44 -9.48
Si -8.51  6.45 -2.31
Si  2.66  0.49 -10.59
Si  6.16 -1.00  8.99
Si -9.27  4.61 -3.56
Si -9.48  4.98  2.30
Si -7.90 -0.56 -7.60
Si -5.13  9.62  1.33
Si  4.48 -8.97  4.53
Si -2.96  0.49 -10.59
Si  9.60 -5.42  0.07
Si  3.30 10.51 -0.55
Si  2.57 -8.81 -6.13
Si  8.68  6.82  0.91
Si  0.95 -10.83 -2.31
Si -4.49  4.76  8.99
Si  9.17  3.27  5.37
Si  8.78 -3.05 -6.13
Si -10.57  2.77 -2.17
Si -9.62  2.54 -5.01
Si -3.05 -8.81 -6.13
Si  6.88  8.53 -2.17
Si -9.69 -5.07 -2.31
Si -5.16 -7.29 -6.77
Si  2.03 -10.32  3.91
Si -0.81  1.57 11.08
Si  2.35 10.74  2.30
Si -0.05 -6.76  8.99
Si  2.56 10.37 -3.56
Si -9.31  4.65  4.38
Si  4.14  9.03  5.37
Si  6.15  0.32 -9.48
Si -0.98  5.49  9.84
Si  4.16 -10.14  2.80
Si -1.50 -1.66 -11.09
Si  1.12  6.08 -9.48
Si  4.34  8.47 -6.13
Si  9.69  3.88 -4.40
Si -8.98  1.44  6.76
Si  6.25  8.31  4.53
Si -4.14  2.53 10.26
Si -4.33 -10.46  0.91
Si -3.06 10.37 -3.56
Si 10.96  1.38  2.80
Si -2.23 -11.19  0.07
Si -6.94  3.42  8.38
Si  0.55  2.02 -11.24
Si -3.27 10.74  2.30
Si  9.34 -0.64  6.62
Si  6.11  9.62  1.33
Si -10.99 -3.32 -0.08
Si -2.60  6.87  8.85
Si  9.28 -6.60 -1.66
Si -7.53 -2.34  8.38
Si -5.18 -8.99 -5.01
Si  9.37  2.71 -6.13
Si  1.47  8.15 -8.02
Si -6.96 -1.99 -9.01
Si  2.52 10.41  4.38
Si  4.66  9.64 -4.40
Si 10.37 -4.38  2.80
Si  3.02  6.87  8.85
Si -3.59 -10.32  3.91
Si -7.43  8.66  2.15
Si -6.37  3.77 -9.01
Si  6.08 -7.29 -6.77
Si 10.46  4.92 -1.66
Si  3.39 -11.19  0.07
Si -3.10 10.41  4.38
Si  7.66 -8.62  2.15
Si -2.16 -6.03  9.84
Si -2.04  7.43 -8.86
Si -4.73 -3.23 10.26
Si  2.76 -2.11 11.23
Si -11.16 -2.99 -2.17
Si -7.31  5.20 -7.60
Si  8.96 -0.56 -7.60
Si -2.86 -2.11 11.23
Si  1.30  0.04 11.73
Si -10.21 -3.23 -5.01
Si -0.04 -3.74 -11.24
Si -9.71 -6.77 -0.55
Si  0.13 11.86  0.07
Si -0.91  4.10 -11.09
Si 11.14  3.86  1.33
Si 10.99  0.23 -4.54
Si 11.32 -2.99 -2.17
Si -2.50 -8.10  8.38
Si  1.40  9.35  7.26
Si -1.40 -4.19 11.08
Si -11.52  1.38  2.80
Si  6.06 -8.99 -5.01
Si  4.12 -1.66 -11.09
Si 11.49 -3.32 -0.08
Si  5.25 -7.93  7.26
Si  2.07 -5.26 -10.59
Si  8.04  1.11  8.85
Si -4.67 -10.83 -2.31
Si -2.27  3.65 11.23
Si -1.93 -7.75 -9.01
Si 10.69 -3.21  4.53
Si  3.46 -6.03  9.84
Si -11.34  3.86  1.33
Si  3.12 -8.10  8.38
Si  5.43 10.68 -1.66
Si  3.58  7.43 -8.86
Si -6.76 -8.97  4.53
Si -4.50  6.08 -9.48
Si -8.35 -7.64 -4.40
Si -0.30 -9.13 -8.02
Si -11.93 -1.90  1.33
Si -4.15  8.15 -8.02
Si  4.81  1.57 11.08
Si  4.64  5.49  9.84
Si -7.19 -0.27  9.84
Si  1.08 -10.09  6.76
Si  6.75  4.76  8.99
Si -8.25  1.67 -8.86
Si  8.51 -7.64 -4.40
Si -1.43 -11.30 -4.54
Si  5.56 -5.44 -9.48
Si  3.35  3.65 11.23
Si -8.11 -6.40  6.62
Si -5.81 10.68 -1.66
Si  2.23 10.00 -6.77
Si -12.29  0.34  0.07
Si -10.84  0.32  5.79
Si -6.00 -7.93  7.26
Si -5.68 -5.44 -9.48
Si 12.08  2.44 -0.08
Si -10.19 -1.52 -6.77
Si -11.20  2.55  4.53
Si -3.55 -5.26 -10.59
Si  9.42  6.96  3.91
Si -11.49  0.23 -4.54
Si 10.78  6.10  0.07
Si 11.28  2.55  4.53
Si 11.91  2.77 -2.17
Si  3.69 -7.75 -9.01
Si -0.73  9.18  8.38
Si  7.83  8.30 -5.01
Si  8.61  1.67 -8.86
Si  7.46 -4.65  8.85
Si -6.58  9.64 -4.40
Si -0.21  0.18 -12.48
Si -9.60  4.24 -6.77
Si -9.57 -4.32  6.76
Si -5.07  2.02 -11.24
Si -4.32  0.04 11.73
Si -0.01 -12.30  2.30
Si -6.90  8.47 -6.13
Si -2.37  6.26 -10.59
Si -8.81  1.11  8.85
Si -3.39 10.00 -6.77
Si  5.57 -6.76  8.99
Si  6.91 -10.46  0.91
Si  6.51 -3.23 10.26
Si -4.22  9.35  7.26
Si  4.22 -4.19 11.08
Si  0.94 -12.53 -0.55
Si  2.25 -2.78 -12.06
Si -5.67 -6.76  8.99
Si 10.40 -5.54 -4.54
Si  0.93 11.75 -4.54
Si  8.02 -4.09 -8.86
Si  9.96 -7.66  1.33
Si -0.79 -11.20  5.79
Si -2.30 12.21 -2.31
Si 12.41 -0.78  2.30
Si  7.99 -8.25  5.37
Si -7.09  9.03  5.37
Si -7.08 -10.14  2.80
Si  8.75 -6.40  6.62
Si 10.82  0.56 -6.63
Si -10.66 -6.54  2.30
Si  3.25  6.26 -10.59
Si -2.55 -12.36 -1.66
Si  4.71  4.10 -11.09
Si  7.10  2.53 10.26
Si -2.78  2.98 -12.06
Si -12.61 -0.84 -1.66
Si  2.84  2.98 -12.06
Si -0.72 10.88  6.62
Si  9.32 -2.34  8.38
Si -1.97 12.58  0.91
Si -9.81  8.20 -0.08
Si -9.20 -8.62  2.15
Si -3.37 -2.78 -12.06
Si  3.07 -12.36 -1.66
Si  3.32 12.21 -2.31
Si -0.83 -0.13 12.84
Si  4.19 -11.30 -4.54
Si  6.57 -10.83 -2.31
Si -6.43  1.57 11.08
Si -1.60 -10.97 -6.63
