500
set:  7.00  0.00  0.00
Si  0.00  0.00  0.00
Si -0.12 -0.15  2.40
Si  0.12  0.15 -2.40
Si -1.29  2.14  0.00
Si  1.29 -2.14  0.00
Si  1.63  2.14  0.00
Si -1.63 -2.14  0.00
Si -2.92  0.00  0.00
Si  2.92  0.00  0.00
Si  1.41 -1.99 -2.40
Si -1.41  1.99  2.40
Si  1.51  1.99  2.40
Si -1.51 -1.99 -2.40
Si  1.17 -2.29  2.40
Si -1.17  2.29 -2.40
Si  2.80 -0.15  2.40
Si -2.80  0.15 -2.40
Si  1.75  2.29 -2.40
Si -1.75 -2.29  2.40
Si  3.04  0.15 -2.40
Si -3.04 -0.15  2.40
Si  0.34  4.27  0.00
Si -0.34 -4.27  0.00
Si  4.21 -2.14  0.00
Si -4.21  2.14  0.00
Si  0.22  4.12  2.40
Si -0.22 -4.12 -2.40
Si  0.25  0.30 -4.80
Si -0.25 -0.30  4.80
Si -2.58  4.27  0.00
Si  2.58 -4.27  0.00
Si  4.55  2.14  0.00
Si -4.55 -2.14  0.00
Si  0.46  4.42 -2.40
Si -0.46 -4.42  2.40
Si  4.09 -2.29  2.40
Si -4.09  2.29 -2.40
Si  1.38  1.84  4.80
Si -1.38 -1.84 -4.80
Si -4.33  1.99  2.40
Si  4.33 -1.99 -2.40
Si  1.54 -1.84 -4.80
Si -1.54  1.84  4.80
Si -3.26 -4.27  0.00
Si  3.26  4.27  0.00
Si  4.43  1.99  2.40
Si -4.43 -1.99 -2.40
Si  1.04 -2.43  4.80
Si -1.04  2.43 -4.80
Si  2.70 -4.12 -2.40
Si -2.70  4.12  2.40
Si -2.67  0.30 -4.80
Si  2.67 -0.30  4.80
Si  2.46 -4.42  2.40
Si -2.46  4.42 -2.40
Si -1.88 -2.43  4.80
Si  1.88  2.43 -4.80
Si  3.14  4.12  2.40
Si -3.14 -4.12 -2.40
Si -4.67 -2.29  2.40
Si  4.67  2.29 -2.40
Si -3.17 -0.30  4.80
Si  3.17  0.30 -4.80
Si -5.84  0.00  0.00
Si  5.84  0.00  0.00
Si  3.38  4.42 -2.40
Si -3.38 -4.42  2.40
Si  5.72 -0.15  2.40
Si -5.72  0.15 -2.40
Si -0.09 -3.98 -4.80
Si  0.09  3.98  4.80
Si  5.96  0.15 -2.40
Si -5.96 -0.15  2.40
Si -0.95  6.41  0.00
Si  0.95 -6.41  0.00
Si -0.59 -4.57  4.80
Si  0.59  4.57 -4.80
Si -3.96  2.43 -4.80
Si  3.96 -2.43  4.80
Si  4.30  1.84  4.80
Si -4.30 -1.84 -4.80
Si  1.97  6.41  0.00
Si -1.97 -6.41  0.00
Si  1.07 -6.26 -2.40
Si -1.07  6.26  2.40
Si -4.46  1.84  4.80
Si  4.46 -1.84 -4.80
Si  2.83 -3.98 -4.80
Si -2.83  3.98  4.80
Si  3.01  3.98  4.80
Si -3.01 -3.98 -4.80
Si -1.85 -6.26 -2.40
Si  1.85  6.26  2.40
Si -5.50  4.27  0.00
Si  5.50 -4.27  0.00
Si -2.33  4.57 -4.80
Si  2.33 -4.57  4.80
Si  0.82 -6.56  2.40
Si -0.82  6.56 -2.40
Si -4.80 -2.43  4.80
Si  4.80  2.43 -4.80
Si  0.37  0.44 -7.19
Si -0.37 -0.44  7.19
Si  2.09  6.56 -2.40
Si -2.09 -6.56  2.40
Si -5.38  4.42 -2.40
Si  5.38 -4.42  2.40
Si -5.59  0.30 -4.80
Si  5.59 -0.30  4.80
Si -5.62  4.12  2.40
Si  5.62 -4.12 -2.40
Si -7.13  2.14  0.00
Si  7.13 -2.14  0.00
Si  3.87 -6.41  0.00
Si -3.87  6.41  0.00
Si -3.51 -4.57  4.80
Si  3.51  4.57 -4.80
Si -1.26 -1.69 -7.19
Si  1.26  1.69  7.19
Si -6.18 -4.27  0.00
Si  6.18  4.27  0.00
Si -1.66  1.69  7.19
Si  1.66 -1.69 -7.19
Si  2.55 -0.44  7.19
Si -2.55  0.44 -7.19
Si  0.92 -2.58  7.19
Si -0.92  2.58 -7.19
Si  6.06  4.12  2.40
Si -6.06 -4.12 -2.40
Si -7.00  2.29 -2.40
Si  7.00 -2.29  2.40
Si -6.09 -0.30  4.80
Si  6.09  0.30 -4.80
Si -7.47 -2.14  0.00
Si  7.47  2.14  0.00
Si  3.99 -6.26 -2.40
Si -3.99  6.26  2.40
Si  1.20 -6.11 -4.80
Si -1.20  6.11  4.80
Si -7.25  1.99  2.40
Si  7.25 -1.99 -2.40
Si -2.00 -2.58  7.19
Si  2.00  2.58 -7.19
Si -3.29 -0.44  7.19
Si  3.29  0.44 -7.19
Si -3.75  6.56 -2.40
Si  3.75 -6.56  2.40
Si -1.72 -6.11 -4.80
Si  1.72  6.11  4.80
Si  7.35  1.99  2.40
Si -7.35 -1.99 -2.40
Si  4.89  6.41  0.00
Si -4.89 -6.41  0.00
Si  6.30  4.42 -2.40
Si -6.30 -4.42  2.40
Si  0.03 -3.83 -7.19
Si -0.03  3.83  7.19
Si  4.77  6.26  2.40
Si -4.77 -6.26 -2.40
Si  0.70 -6.71  4.80
Si -0.70  6.71 -4.80
Si  7.59  2.29 -2.40
Si -7.59 -2.29  2.40
Si  5.25 -4.57  4.80
Si -5.25  4.57 -4.80
Si -5.75  3.98  4.80
Si  5.75 -3.98 -4.80
Si -4.18 -1.69 -7.19
Si  4.18  1.69  7.19
Si  2.22  6.71 -4.80
Si -2.22 -6.71  4.80
Si  3.84 -2.58  7.19
Si -3.84  2.58 -7.19
Si  0.68  8.55  0.00
Si -0.68 -8.55  0.00
Si  5.01  6.56 -2.40
Si -5.01 -6.56  2.40
Si  5.93  3.98  4.80
Si -5.93 -3.98 -4.80
Si  0.71  4.72 -7.19
Si -0.71 -4.72  7.19
Si -2.89 -3.83 -7.19
Si  2.89  3.83  7.19
Si  2.95 -3.83 -7.19
Si -2.95  3.83  7.19
Si -4.58  1.69  7.19
Si  4.58 -1.69 -7.19
Si -6.88  2.43 -4.80
Si  6.88 -2.43  4.80
Si -0.56 -8.40 -2.40
Si  0.56  8.40  2.40
Si -8.76  0.00  0.00
Si  8.76  0.00  0.00
Si -4.12  6.11  4.80
Si  4.12 -6.11 -4.80
Si  2.24 -8.55  0.00
Si -2.24  8.55  0.00
Si -7.22 -1.84 -4.80
Si  7.22  1.84  4.80
Si  2.21 -4.72  7.19
Si -2.21  4.72 -7.19
Si  8.64 -0.15  2.40
Si -8.64  0.15 -2.40
Si -7.38  1.84  4.80
Si  7.38 -1.84 -4.80
Si  3.62 -6.71  4.80
Si -3.62  6.71 -4.80
Si -5.47  0.44 -7.19
Si  5.47 -0.44  7.19
Si -2.36  8.40  2.40
Si  2.36 -8.40 -2.40
Si -4.64 -6.11 -4.80
Si  4.64  6.11  4.80
Si  0.81  8.69 -2.40
Si -0.81 -8.69  2.40
Si  4.92  2.58 -7.19
Si -4.92 -2.58  7.19
Si -8.88 -0.15  2.40
Si  8.88  0.15 -2.40
Si -6.43 -4.57  4.80
Si  6.43  4.57 -4.80
Si -2.12  8.69 -2.40
Si  2.12 -8.69  2.40
Si -3.60 -8.55  0.00
Si  3.60  8.55  0.00
Si -6.79  6.41  0.00
Si  6.79 -6.41  0.00
Si -3.63 -4.72  7.19
Si  3.63  4.72 -7.19
Si  3.48  8.40  2.40
Si -3.48 -8.40 -2.40
Si  7.72  2.43 -4.80
Si -7.72 -2.43  4.80
Si -1.32  5.97  7.19
Si  1.32 -5.97 -7.19
Si  8.42 -4.27  0.00
Si -8.42  4.27  0.00
Si  1.60  5.97  7.19
Si -1.60 -5.97 -7.19
Si  6.21  0.44 -7.19
Si -6.21 -0.44  7.19
Si -0.43 -8.25 -4.80
Si  0.43  8.25  4.80
Si -0.49 -0.59  9.59
Si  0.49  0.59 -9.59
Si  6.91 -6.26 -2.40
Si -6.91  6.26  2.40
Si -6.67  6.56 -2.40
Si  6.67 -6.56  2.40
Si  8.29 -4.42  2.40
Si -8.29  4.42 -2.40
Si -5.14 -6.71  4.80
Si  5.14  6.71 -4.80
Si -3.73 -8.69  2.40
Si  3.73  8.69 -2.40
Si -8.51  0.30 -4.80
Si  8.51 -0.30  4.80
Si -1.14 -1.54 -9.59
Si  1.14  1.54  9.59
Si -8.54  4.12  2.40
Si  8.54 -4.12 -2.40
Si -2.48  8.25  4.80
Si  2.48 -8.25 -4.80
Si  1.78 -1.54 -9.59
Si -1.78  1.54  9.59
Si  2.43 -0.59  9.59
Si -2.43  0.59 -9.59
Si  0.58 -6.85  7.19
Si -0.58  6.85 -7.19
Si  5.16 -8.55  0.00
Si -5.16  8.55  0.00
Si -0.80  2.73 -9.59
Si  0.80 -2.73  9.59
Si -5.81 -3.83 -7.19
Si  5.81  3.83  7.19
Si -5.13  4.72 -7.19
Si  5.13 -4.72  7.19
Si  5.87 -3.83 -7.19
Si -5.87  3.83  7.19
Si  9.10  4.27  0.00
Si -9.10 -4.27  0.00
Si -0.93 -8.84  4.80
Si  0.93  8.84 -4.80
Si  7.81  6.41  0.00
Si -7.81 -6.41  0.00
Si -3.35 -8.25 -4.80
Si  3.35  8.25  4.80
Si  8.98  4.12  2.40
Si -8.98 -4.12 -2.40
Si  2.12  2.73 -9.59
Si -2.12 -2.73  9.59
Si  3.41  0.59 -9.59
Si -3.41 -0.59  9.59
Si -7.69 -6.26 -2.40
Si  7.69  6.26  2.40
Si -6.76  2.58 -7.19
Si  6.76 -2.58  7.19
Si -5.28  8.40  2.40
Si  5.28 -8.40 -2.40
Si -9.01 -0.30  4.80
Si  9.01  0.30 -4.80
Si -2.34 -6.85  7.19
Si  2.34  6.85 -7.19
Si  7.10  1.69  7.19
Si -7.10 -1.69 -7.19
Si  1.99 -8.84  4.80
Si -1.99  8.84 -4.80
Si  4.24 -5.97 -7.19
Si -4.24  5.97  7.19
Si -10.05  2.14  0.00
Si 10.05 -2.14  0.00
Si -0.15  3.68  9.59
Si  0.15 -3.68 -9.59
Si  5.03 -8.69  2.40
Si -5.03  8.69 -2.40
Si -4.52 -5.97 -7.19
Si  4.52  5.97  7.19
Si  9.93 -2.29  2.40
Si -9.93  2.29 -2.40
Si  7.04 -6.11 -4.80
Si -7.04  6.11  4.80
Si  9.22  4.42 -2.40
Si -9.22 -4.42  2.40
Si  8.17 -4.57  4.80
Si -8.17  4.57 -4.80
Si -6.54  6.71 -4.80
Si  6.54 -6.71  4.80
Si  4.06  1.54  9.59
Si -4.06 -1.54 -9.59
Si -7.50  1.69  7.19
Si  7.50 -1.69 -7.19
Si -3.50  6.85 -7.19
Si  3.50 -6.85  7.19
Si  7.93  6.56 -2.40
Si -7.93 -6.56  2.40
Si -10.39 -2.14  0.00
Si 10.39  2.14  0.00
Si -10.17  1.99  2.40
Si 10.17 -1.99 -2.40
Si -2.77 -3.68 -9.59
Si  2.77  3.68  9.59
Si -3.71  2.73 -9.59
Si  3.71 -2.73  9.59
Si  8.66 -3.98 -4.80
Si -8.66  3.98  4.80
Si  0.61 -10.68  0.00
Si -0.61 10.68  0.00
Si -3.07  3.68  9.59
Si  3.07 -3.68 -9.59
Si 10.27  1.99  2.40
Si -10.27 -1.99 -2.40
Si -6.52 -8.55  0.00
Si  6.52  8.55  0.00
Si -3.85 -8.84  4.80
Si  3.85  8.84 -4.80
Si -0.83 -4.87  9.59
Si  0.83  4.87 -9.59
Si  4.70 -1.54 -9.59
Si -4.70  1.54  9.59
Si -6.55 -4.72  7.19
Si  6.55  4.72 -7.19
Si -8.85 -3.98 -4.80
Si  8.85  3.98  4.80
Si -6.40 -8.40 -2.40
Si  6.40  8.40  2.40
Si  0.73 -10.54 -2.40
Si -0.73 10.54  2.40
Si -0.31 -8.10 -7.19
Si  0.31  8.10  7.19
Si -7.56 -6.11 -4.80
Si  7.56  6.11  4.80
Si  2.31 10.68  0.00
Si -2.31 -10.68  0.00
Si  7.84  2.58 -7.19
Si -7.84 -2.58  7.19
Si -2.08  4.87 -9.59
Si  2.08 -4.87  9.59
Si -5.41  8.25  4.80
Si  5.41 -8.25 -4.80
Si  5.34 -0.59  9.59
Si -5.34  0.59 -9.59
Si -10.51 -2.29  2.40
Si 10.51  2.29 -2.40
Si  2.19 10.54  2.40
Si -2.19 -10.54 -2.40
Si -8.39  0.44 -7.19
Si  8.39 -0.44  7.19
Si -0.48 10.83 -2.40
Si  0.48 -10.83  2.40
Si -2.61  8.10  7.19
Si  2.61 -8.10 -7.19
Si  5.04  2.73 -9.59
Si -5.04 -2.73  9.59
Si  9.80 -2.43  4.80
Si -9.80  2.43 -4.80
Si -4.91  8.84 -4.80
Si  4.91 -8.84  4.80
Si -6.64 -8.69  2.40
Si  6.64  8.69 -2.40
Si  5.26  6.85 -7.19
Si -5.26 -6.85  7.19
Si -3.53 10.68  0.00
Si  3.53 -10.68  0.00
Si  3.23  8.10  7.19
Si -3.23 -8.10 -7.19
Si  1.44 -5.82 -9.59
Si -1.44  5.82  9.59
Si  1.48  5.82  9.59
Si -1.48 -5.82 -9.59
Si -2.44 -10.83  2.40
Si  2.44 10.83 -2.40
Si -10.14 -1.84 -4.80
Si 10.14  1.84  4.80
Si -3.75 -4.87  9.59
Si  3.75  4.87 -9.59
Si -3.65 10.54  2.40
Si  3.65 -10.54 -2.40
Si -6.27 -8.25 -4.80
Si  6.27  8.25  4.80
Si  9.35  4.57 -4.80
Si -9.35 -4.57  4.80
Si  0.85 -10.39 -4.80
Si -0.85 10.39  4.80
Si 10.29 -1.84 -4.80
Si -10.29  1.84  4.80
Si -6.33 -0.59  9.59
Si  6.33  0.59 -9.59
Si  8.06  6.71 -4.80
Si -8.06 -6.71  4.80
Si -1.05 -8.99  7.19
Si  1.05  8.99 -7.19
Si -3.40 10.83 -2.40
Si  3.40 -10.83  2.40
Si  2.06 10.39  4.80
Si -2.06 -10.39 -4.80
Si -9.13 -0.44  7.19
Si  9.13  0.44 -7.19
Si -9.71  6.41  0.00
Si  9.71 -6.41  0.00
Si -1.87  8.99 -7.19
Si  1.87 -8.99  7.19
Si 11.68  0.00  0.00
Si -11.68  0.00  0.00
Si -5.69 -3.68 -9.59
Si  5.69  3.68  9.59
Si -8.08  8.55  0.00
Si  8.08 -8.55  0.00
Si  7.16 -5.97 -7.19
Si -7.16  5.97  7.19
Si  8.05 -4.72  7.19
Si -8.05  4.72 -7.19
Si 11.55 -0.15  2.40
Si -11.55  0.15 -2.40
Si  6.42 -6.85  7.19
Si -6.42  6.85 -7.19
Si -9.58  6.56 -2.40
Si  9.58 -6.56  2.40
Si -5.00  4.87 -9.59
Si  5.00 -4.87  9.59
Si  0.46 -7.00  9.59
Si -0.46  7.00 -9.59
Si -5.99  3.68  9.59
Si  5.99 -3.68 -9.59
Si  5.23 10.68  0.00
Si -5.23 -10.68  0.00
Si  9.83 -6.26 -2.40
Si -9.83  6.26  2.40
Si 10.64  2.43 -4.80
Si -10.64 -2.43  4.80
Si -8.73 -3.83 -7.19
Si  8.73  3.83  7.19
Si  7.44  5.97  7.19
Si -7.44 -5.97 -7.19
Si  5.11 10.54  2.40
Si -5.11 -10.54 -2.40
Si -6.98 -1.54 -9.59
Si  6.98  1.54  9.59
Si -6.63  2.73 -9.59
Si  6.63 -2.73  9.59
Si  8.20 -8.40 -2.40
Si -8.20  8.40  2.40
Si -8.79  3.83  7.19
Si  8.79 -3.83 -7.19
Si -0.36 10.98 -4.80
Si  0.36 -10.98  4.80
Si -7.95  8.69 -2.40
Si  7.95 -8.69  2.40
Si -0.62 -0.74 11.99
Si  0.62  0.74 -11.99
Si -4.36  5.82  9.59
Si  4.36 -5.82 -9.59
Si -11.80 -0.15  2.40
Si 11.80  0.15 -2.40
Si  3.77 -10.39 -4.80
Si -3.77 10.39  4.80
Si -4.40 -5.82 -9.59
Si  4.40  5.82  9.59
Si  1.01  1.40 11.99
Si -1.01 -1.40 -11.99
Si 11.34 -4.27  0.00
