500
set: 572.00  0.00  0.00
Si  0.00  0.00  0.00
Si  0.15 -2.09  0.74
Si  1.82  1.05  0.74
Si  0.07 -0.02 -2.29
Si -1.91  1.05  0.74
Si -1.67 -3.14  0.00
Si  1.67  3.14  0.00
Si -1.75 -1.07 -3.03
Si  1.75  1.07  3.03
Si  0.08 -2.07  3.03
Si -0.08  2.07 -3.03
Si  3.73  0.00  0.00
Si -3.73  0.00  0.00
Si -2.06  3.14  0.00
Si  2.06 -3.14  0.00
Si  1.98 -1.07 -3.03
Si -1.98  1.07  3.03
Si -3.58 -2.09  0.74
Si -1.60 -3.16 -2.29
Si  1.74  3.12 -2.29
Si -0.24  4.19  0.74
Si -3.66 -0.02 -2.29
Si -1.83 -1.02  3.77
Si -0.16  2.12  3.77
Si  1.90 -1.02  3.77
Si -1.99  3.12 -2.29
Si  3.79 -0.02 -2.29
Si  2.13 -3.16 -2.29
Si  3.87 -2.09  0.74
Si -3.65 -2.07  3.03
Si  3.65  2.07 -3.03
Si -0.31  4.20  3.03
Si  0.31 -4.20 -3.03
Si -3.80  2.07 -3.03
Si  3.80 -2.07  3.03
Si -1.52 -5.23  0.74
Si  3.48  4.19  0.74
Si  3.56  2.12  3.77
Si  0.23 -4.16  3.77
Si -1.68 -1.09 -5.31
Si  5.54  1.05  0.74
Si -0.01  2.05 -5.31
Si  2.20 -5.23  0.74
Si -5.63  1.05  0.74
Si  2.05 -1.09 -5.31
Si -3.89  2.12  3.77
Si -3.97  4.19  0.74
Si  3.42  4.20  3.03
Si -3.42 -4.20 -3.03
Si  1.59  5.21 -3.03
Si -1.59 -5.21  3.03
Si  5.39  3.14  0.00
Si -5.39 -3.14  0.00
Si -0.39  6.28  0.00
Si  0.39 -6.28  0.00
Si -5.47 -1.07 -3.03
Si  5.47  1.07  3.03
Si  2.13 -5.21  3.03
Si -2.13  5.21 -3.03
Si -1.83  1.00 -6.05
Si  1.83 -1.00  6.05
Si -0.23  2.13  6.05
Si  0.23 -2.13 -6.05
Si  1.90  1.00 -6.05
Si -1.90 -1.00  6.05
Si  5.70 -1.07 -3.03
Si -5.70  1.07  3.03
Si  4.04 -4.20 -3.03
Si -4.04  4.20  3.03
Si -5.78  3.14  0.00
Si  5.78 -3.14  0.00
Si -5.33 -3.16 -2.29
Si -3.50 -4.16  3.77
Si  1.51  5.25  3.77
Si -0.32  6.26 -2.29
Si  5.46  3.12 -2.29
Si  0.46 -6.29 -2.29
Si -5.55 -1.02  3.77
Si -0.08  0.05  6.79
Si  0.38 -4.22 -5.31
Si  3.71  2.05 -5.31
Si -3.73  2.05 -5.31
Si -2.22  5.25  3.77
Si  5.62 -1.02  3.77
Si  3.95 -4.16  3.77
Si -5.71  3.12 -2.29
Si  5.85 -3.16 -2.29
Si -3.34 -6.28  0.00
Si  3.34  6.28  0.00
Si  3.50  2.13  6.05
Si -3.50 -2.13 -6.05
Si -0.16  4.14 -6.05
Si  0.16 -4.14  6.05
Si -5.25 -5.23  0.74
Si -3.27 -6.29 -2.29
Si  7.45  0.00  0.00
Si -7.45  0.00  0.00
Si  3.41  6.26 -2.29
Si  1.43  7.32  0.74
Si  4.11 -6.28  0.00
Si -4.11  6.28  0.00
Si  3.96 -2.13 -6.05
Si -3.96  2.13  6.05
Si -3.35 -4.22 -5.31
Si  1.66  5.19 -5.31
Si -7.30 -2.09  0.74
Si -5.40 -1.09 -5.31
Si -1.75 -3.09  6.79
Si  1.59  3.18  6.79
Si -2.07  5.19 -5.31
Si  3.64  0.05  6.79
Si -2.30  7.32  0.74
Si  1.97 -3.09  6.79
Si -7.38 -0.02 -2.29
Si -3.81  0.05  6.79
Si -4.04  6.26 -2.29
Si -2.14  3.18  6.79
Si  7.52 -0.02 -2.29
Si  4.18 -6.29 -2.29
Si  7.60 -2.09  0.74
Si  5.77 -1.09 -5.31
Si  4.10 -4.22 -5.31
Si  5.93 -5.23  0.74
Si -5.32 -5.21  3.03
Si  5.32  5.21 -3.03
Si -1.36 -7.34 -3.03
Si  1.36  7.34  3.03
Si  1.44  5.27  6.05
Si -1.44 -5.27 -6.05
Si  3.57  4.14 -6.05
Si -3.57 -4.14  6.05
Si  7.37  2.07 -3.03
Si -7.37 -2.07  3.03
Si  5.55 -1.00  6.05
Si -5.55  1.00 -6.05
Si  2.37 -7.34 -3.03
Si -2.37  7.34  3.03
Si -3.88  4.14 -6.05
Si  3.88 -4.14  6.05
Si  5.23  5.25  3.77
Si  5.62  1.00 -6.05
Si -5.62 -1.00  6.05
Si -1.44 -7.30  3.77
Si  2.29 -5.27 -6.05
Si -2.29  5.27  6.05
Si  7.21  4.19  0.74
Si -7.53  2.07 -3.03
Si  7.53 -2.07  3.03
Si -5.86  5.21 -3.03
Si  5.86 -5.21  3.03
Si  0.54 -8.36  0.74
Si  7.29  2.12  3.77
Si  2.28 -7.30  3.77
Si -1.76  0.98 -8.34
Si  0.30 -2.15 -8.34
Si  1.97  0.98 -8.34
Si -7.61  2.12  3.77
Si -5.94  5.25  3.77
Si -7.69  4.19  0.74
Si  7.14  4.20  3.03
Si -7.14 -4.20 -3.03
Si  0.47 -8.35  3.03
Si -0.47  8.35 -3.03
Si -3.19 -8.36  0.74
Si  5.15  7.32  0.74
Si -0.15  0.06  9.08
Si  0.15 -0.06 -9.08
Si -7.22 -4.16  3.77
Si -1.29 -7.36 -5.31
Si  5.38  5.19 -5.31
Si  5.31  3.18  6.79
Si -0.55  8.39  3.77
Si  0.30 -6.23  6.79
Si -5.48 -3.09  6.79
Si -3.43 -2.15 -8.34
Si -0.47  6.32  6.79
Si -0.09  4.12 -8.34
Si  7.76 -4.20 -3.03
Si -7.76  4.20  3.03
Si  9.27  1.05  0.74
Si  7.44  2.05 -5.31
Si -7.46  2.05 -5.31
Si  5.70 -3.09  6.79
Si  2.44 -7.36 -5.31
Si  4.26 -8.36  0.74
Si -5.79  5.19 -5.31
Si -5.08 -7.34 -3.03
Si  5.08  7.34  3.03
Si -9.36  1.05  0.74
Si -7.06 -6.28  0.00
Si  7.06  6.28  0.00
Si  3.26  8.35 -3.03
Si -3.26 -8.35  3.03
Si -1.28 -9.41  0.00
Si  1.28  9.41  0.00
Si  4.03 -2.15 -8.34
Si  7.68 -4.16  3.77
Si -6.02  7.32  0.74
Si -5.87  3.18  6.79
Si -5.16 -5.27 -6.05
Si  5.16  5.27  6.05
Si  1.51  7.28 -6.05
Si -1.51 -7.28  6.05
Si  9.12  3.14  0.00
Si -9.12 -3.14  0.00
Si -7.22 -2.13 -6.05
Si  7.22  2.13  6.05
Si -6.99 -6.29 -2.29
Si -5.17 -7.30  3.77
Si  2.21 -7.28  6.05
Si -2.21  7.28 -6.05
Si  2.44 -9.41  0.00
Si -2.44  9.41  0.00
Si  3.17  8.39  3.77
Si -9.20 -1.07 -3.03
Si  9.20  1.07  3.03
Si  1.52  3.20  9.08
Si -1.52 -3.20 -9.08
Si -1.82 -3.07  9.08
Si  1.82  3.07 -9.08
Si -3.57 -0.06 -9.08
Si  3.57  0.06  9.08
Si  7.13  6.26 -2.29
Si  1.35  9.39 -2.29
Si -1.91  3.07 -9.08
Si  1.91 -3.07  9.08
Si -1.21 -9.43 -2.29
Si -7.07 -4.22 -5.31
Si -4.19  8.35 -3.03
Si  4.19 -8.35  3.03
Si -3.42 -6.23  6.79
Si  3.25  6.32  6.79
Si -9.05 -3.16 -2.29
Si  3.88 -0.06 -9.08
Si -3.88  0.06  9.08
Si  2.21 -3.20 -9.08
Si -2.21  3.20  9.08
Si -0.40  8.33 -5.31
Si -2.38  9.39 -2.29
Si  9.43 -1.07 -3.03
Si -9.43  1.07  3.03
Si  9.19  3.12 -2.29
Si -1.37 -5.29 -8.34
Si  3.64  4.12 -8.34
Si  6.09 -7.34 -3.03
Si -6.09  7.34  3.03
Si -7.68  2.13  6.05
Si  7.68 -2.13 -6.05
Si  9.51 -3.14  0.00
Si -9.51  3.14  0.00
Si  7.37  0.05  6.79
Si  1.66  1.11  9.82
Si  2.51 -9.43 -2.29
Si -5.48  0.98 -8.34
Si -0.00 -2.02  9.82
Si  6.01 -5.27 -6.05
Si -6.01  5.27  6.05
Si  7.84 -6.28  0.00
Si -7.84  6.28  0.00
Si -3.81  4.12 -8.34
Si  4.03 -6.23  6.79
Si -9.28 -1.02  3.77
Si -2.06  1.11  9.82
Si  9.35 -1.02  3.77
Si -4.28  8.39  3.77
Si  5.69  0.98 -8.34
Si -7.53  0.05  6.79
Si  2.36 -5.29 -8.34
Si  6.01 -7.30  3.77
Si -4.20  6.32  6.79
Si -9.44  3.12 -2.29
Si -7.77  6.26 -2.29
Si  9.58 -3.16 -2.29
Si  7.29  4.14 -6.05
Si -7.29 -4.14  6.05
Si  7.83 -4.22 -5.31
Si  7.91 -6.29 -2.29
Si -5.01 -7.36 -5.31
Si -0.62  8.41  6.05
Si  0.62 -8.41 -6.05
Si -8.97 -5.23  0.74
Si  3.33  8.33 -5.31
Si -0.63 10.46  0.74
Si -7.61  4.14 -6.05
Si  7.61 -4.14  6.05
Si -9.13 -1.09 -5.31
Si -5.01 -9.41  0.00
Si  5.01  9.41  0.00
Si  3.72 -2.02  9.82
Si -3.73 -2.02  9.82
Si -4.12  8.33 -5.31
Si -0.39  4.25  9.82
Si -3.11 -8.41 -6.05
Si  3.11  8.41  6.05
Si  5.24  7.28 -6.05
Si -5.24 -7.28  6.05
Si  9.04  5.21 -3.03
Si -9.04 -5.21  3.03
Si -6.91 -8.36  0.74
Si -4.94 -9.43 -2.29
Si  5.08  9.39 -2.29
Si  0.70 -10.48 -3.03
Si -0.70 10.48  3.03
Si  3.10 10.46  0.74
Si  9.50 -1.09 -5.31
Si -5.24 -3.20 -9.08
Si  5.24  3.20  9.08
Si  6.16 -7.36 -5.31
Si -0.24  6.21 -9.08
Si  0.24 -6.21  9.08
Si  9.65 -5.23  0.74
Si  8.96  5.25  3.77
Si -5.55 -3.07  9.08
Si  5.55  3.07 -9.08
Si -0.54  6.34  9.08
Si  0.54 -6.34 -9.08
Si  0.61 -10.43  3.77
Si -5.09 -5.29 -8.34
Si -5.63  3.07 -9.08
Si  5.63 -3.07  9.08
Si -9.28  1.00 -6.05
Si  9.28 -1.00  6.05
Si  1.58  7.26 -8.34
Si -5.94  7.28 -6.05
Si  5.94 -7.28  6.05
Si -11.18  0.00  0.00
Si 11.18  0.00  0.00
Si -9.35 -1.00  6.05
Si  9.35  1.00 -6.05
Si -7.15 -2.15 -8.34
Si  3.33  4.25  9.82
Si -1.67 -5.16  9.82
Si  4.34 -8.41 -6.05
Si -4.34  8.41  6.05
Si -11.03 -2.09  0.74
Si -6.17  9.41  0.00
Si  6.17 -9.41  0.00
Si  5.39  1.11  9.82
Si -2.15  7.26 -8.34
Si  2.05 -5.16  9.82
Si  6.98  8.35 -3.03
Si -6.98 -8.35  3.03
Si  5.93 -3.20 -9.08
Si -5.93  3.20  9.08
Si  3.03 10.48  3.03
Si -3.03 -10.48 -3.03
Si -9.59  5.21 -3.03
Si  9.59 -5.21  3.03
Si -11.11 -0.02 -2.29
Si -4.35 10.46  0.74
Si  0.22 -0.08 -11.36
Si -6.10  9.39 -2.29
Si -5.79  1.11  9.82
Si -4.12  4.25  9.82
Si 11.24 -0.02 -2.29
Si  6.90  8.39  3.77
Si -3.11 -10.43  3.77
Si  3.19  6.34  9.08
Si -3.19 -6.34 -9.08
Si  8.88  7.32  0.74
Si  6.24 -9.43 -2.29
Si 11.32 -2.09  0.74
Si  3.49  6.21 -9.08
Si -3.49 -6.21  9.08
Si -1.13 -11.50  0.74
Si  7.75 -2.15 -8.34
Si  7.99 -8.36  0.74
Si  6.08 -5.29 -8.34
Si  6.98  6.32  6.79
Si -9.67  5.25  3.77
Si -7.30 -0.06 -9.08
Si  7.30  0.06  9.08
Si -1.36 -9.37  6.79
Si -7.14 -6.23  6.79
Si -11.10 -2.07  3.03
Si 11.10  2.07 -3.03
Si -3.96  6.21 -9.08
Si  3.96 -6.21  9.08
Si  1.20  9.46  6.79
Si 10.94  4.19  0.74
Si  9.04  3.18  6.79
Si  9.11  5.19 -5.31
Si -4.42 10.48  3.03
Si  4.42 -10.48 -3.03
Si  0.77 -10.50 -5.31
Si  2.36 -9.37  6.79
Si  2.59 -11.50  0.74
Si 11.01  2.12  3.77
Si -11.25  2.07 -3.03
Si 11.25 -2.07  3.03
Si  7.60 -0.06 -9.08
Si -7.60  0.06  9.08
Si -9.20 -3.09  6.79
Si -8.81 -7.34 -3.03
Si  8.81  7.34  3.03
Si  7.36  4.12 -8.34
Si  4.26 -6.34 -9.08
Si -4.26  6.34  9.08
Si  0.69 -8.43 -8.34
Si -3.50 -0.08 -11.36
Si  7.92 -8.35  3.03
Si -7.92  8.35 -3.03
Si -1.45 -3.22 -11.36
Si -1.84  3.06 -11.36
Si  4.34 -10.43  3.77
Si -2.53  9.46  6.79
Si  1.89  3.06 -11.36
Si -1.20 -11.48  3.03
Si  1.20 11.48 -3.03
Si -7.54  4.12 -8.34
Si -8.89 -5.27 -6.05
Si  8.89  5.27  6.05
Si  9.42 -3.09  6.79
Si  2.28 -3.22 -11.36
Si  3.95 -0.08 -11.36
Si -10.87 -4.20 -3.03
Si 10.87  4.20  3.03
Si  7.76 -6.23  6.79
Si -0.55 10.41 -6.05
Si  0.55 -10.41  6.05
Si -9.52  5.19 -5.31
Si -8.89 -7.30  3.77
Si -2.96 -10.50 -5.31
Si -11.34  2.12  3.77
Si  7.05  8.33 -5.31
Si -2.52 11.48 -3.03
Si  2.52 -11.48  3.03
Si -9.59  3.18  6.79
Si  1.12 11.53  3.77
Si -11.42  4.19  0.74
Si -8.00  8.39  3.77
Si -7.92  6.32  6.79
Si -9.75  7.32  0.74
Si -3.04 -8.43 -8.34
Si  5.30  7.26 -8.34
Si -1.59 -1.13 -12.11
Si  1.59  1.13 12.11
Si  0.07  2.01 -12.11
Si -0.07 -2.01 12.11
Si -10.95 -4.16  3.77
Si -5.40 -5.16  9.82
Si -2.13  1.13 12.11
Si  2.13 -1.13 -12.11
Si  1.28  7.39  9.82
Si -2.61 11.53  3.77
Si  6.83  8.41  6.05
Si -6.83 -8.41 -6.05
Si -3.18 -10.41  6.05
Si  3.18 10.41 -6.05
Si -9.21  0.98 -8.34
Si -10.79 -6.28  0.00
Si 10.79  6.28  0.00
Si  7.45 -2.02  9.82
Si -7.46 -2.02  9.82
Si -4.86 -11.50  0.74
Si  5.78 -5.16  9.82
Si  6.82 10.46  0.74
Si -5.87  7.26 -8.34
Si -2.45  7.39  9.82
Si 11.17  2.05 -5.31
Si -11.19  2.05 -5.31
Si -0.78 12.55  0.00
Si  0.78 -12.55  0.00
Si  4.49 -10.50 -5.31
Si -11.48  4.20  3.03
Si 11.48 -4.20 -3.03
Si -8.74 -7.36 -5.31
Si -7.85  8.33 -5.31
Si  9.42  0.98 -8.34
Si -9.74  5.27  6.05
Si  9.74 -5.27 -6.05
Si -9.82  7.34  3.03
Si  9.82 -7.34 -3.03
Si -10.72 -6.29 -2.29
Si -5.09 -9.37  6.79
Si  4.92  9.46  6.79
Si  4.41 -8.43 -8.34
Si 10.95  2.13  6.05
Si -10.95 -2.13 -6.05
Si  1.27 11.46 -5.31
Si 11.40 -4.16  3.77
Si  9.73 -7.30  3.77
Si 10.86  6.26 -2.29
Si -10.80 -4.22 -5.31
Si -0.71 12.53 -2.29
Si  4.27 -10.41  6.05
Si -4.27 10.41 -6.05
Si  0.84 -12.57 -2.29
Si  3.65 -2.01 12.11
Si -3.65  2.01 -12.11
Si  7.06  4.25  9.82
Si  6.75 10.48  3.03
Si -6.75 -10.48 -3.03
Si -8.73 -9.41  0.00
Si  8.73  9.41  0.00
Si  0.46 -4.27 -12.11
Si -0.46  4.27 12.11
Si  3.80  2.01 -12.11
Si -3.80 -2.01 12.11
Si -4.93 -11.48  3.03
