500
set: 654.00  0.00  0.00
Si  0.57 -1.03  0.99
Si -0.57  1.03 -0.99
Si -1.16 -1.22 -0.99
Si  1.16  1.22  0.99
Si -2.27  1.22  0.99
Si  2.27 -1.22 -0.99
Si  1.09 -0.39 -2.97
Si -1.09  0.39  2.97
Si  2.86  1.03 -0.99
Si -2.86 -1.03  0.99
Si -0.03 -3.28  0.99
Si  0.03  3.28 -0.99
Si  2.34  0.39  2.97
Si -2.34 -0.39 -2.97
Si  1.68  1.86 -2.97
Si -1.68 -1.86  2.97
Si  1.74 -1.86  2.97
Si -1.74  1.86 -2.97
Si  1.68 -3.47 -0.99
Si -1.68  3.47  0.99
Si -0.50  2.63  2.97
Si  0.50 -2.63 -2.97
Si -1.75 -3.47 -0.99
Si  1.75  3.47  0.99
Si  3.99 -1.03  0.99
Si -3.99  1.03 -0.99
Si -3.40  3.28 -0.99
Si  3.40 -3.28  0.99
Si -4.58 -1.22 -0.99
Si  4.58  1.22  0.99
Si -3.45 -3.28  0.99
Si  3.45  3.28 -0.99
Si  2.93  2.63  2.97
Si -2.93 -2.63 -2.97
Si -0.63 -0.57 -4.95
Si  0.63  0.57  4.95
Si -1.15  4.11 -2.97
Si  1.15 -4.11  2.97
Si -0.04  1.67 -4.95
Si  0.04 -1.67  4.95
Si  4.52 -0.39 -2.97
Si -4.52  0.39  2.97
Si  2.27  4.11 -2.97
Si -2.27 -4.11  2.97
Si -3.92  2.63  2.97
Si  3.92 -2.63 -2.97
Si  0.62  5.53 -0.99
Si -0.62 -5.53  0.99
Si  0.09  4.88  2.97
Si -0.09 -4.88 -2.97
Si  2.79 -0.57 -4.95
Si -2.79  0.57  4.95
Si -1.23 -2.82 -4.95
Si  1.23  2.82  4.95
Si -1.08  5.71  0.99
Si  1.08 -5.71 -0.99
Si  5.70 -1.22 -0.99
Si -5.70  1.22  0.99
Si -2.20  2.82  4.95
Si  2.20 -2.82 -4.95
Si  5.11  1.86 -2.97
Si -5.11 -1.86  2.97
Si -3.39 -1.67  4.95
Si  3.39  1.67 -4.95
Si  5.17 -1.86  2.97
Si -5.17  1.86 -2.97
Si  5.10 -3.47 -0.99
Si -5.10  3.47  0.99
Si -2.34 -5.71 -0.99
Si  2.34  5.71  0.99
Si  3.47 -1.67  4.95
Si -3.47  1.67 -4.95
Si -2.81  5.53 -0.99
Si  2.81 -5.53  0.99
Si  5.18  3.47  0.99
Si -5.18 -3.47 -0.99
Si -0.55 -3.92  4.95
Si  0.55  3.92 -4.95
Si -4.06 -0.57 -4.95
Si  4.06  0.57  4.95
Si  6.29  1.03 -0.99
Si -6.29 -1.03  0.99
Si  5.76  0.39  2.97
Si -5.76 -0.39 -2.97
Si  3.33 -4.88 -2.97
Si -3.33  4.88  2.97
Si  3.52  4.88  2.97
Si -3.52 -4.88 -2.97
Si -4.58  4.11 -2.97
Si  4.58 -4.11  2.97
Si  4.05  5.53 -0.99
Si -4.05 -5.53  0.99
Si  2.88 -3.92  4.95
Si -2.88  3.92 -4.95
Si  0.56 -6.36  2.97
Si -0.56  6.36 -2.97
Si  1.61  0.26 -6.93
Si -1.61 -0.26  6.93
Si -1.81  0.26 -6.93
Si  1.81 -0.26  6.93
Si -1.61  5.07  4.95
Si  1.61 -5.07 -4.95
Si  1.02 -1.99 -6.93
Si -1.02  1.99  6.93
Si  1.82  5.07  4.95
Si -1.82 -5.07 -4.95
Si  4.51 -5.71 -0.99
Si -4.51  5.71  0.99
Si -4.65 -2.82 -4.95
Si  4.65  2.82  4.95
Si  3.98  3.92 -4.95
Si -3.98 -3.92  4.95
Si  1.22 -2.51  6.93
Si -1.22  2.51 -6.93
Si -6.36 -2.63 -2.97
Si  6.36  2.63  2.97
Si  7.42 -1.03  0.99
Si -7.42  1.03 -0.99
Si  2.87  6.36 -2.97
Si -2.87 -6.36  2.97
Si  2.40  1.99  6.93
Si -2.40 -1.99 -6.93
Si -5.70 -4.11  2.97
Si  5.70  4.11 -2.97
Si -6.83  3.28 -0.99
Si  6.83 -3.28  0.99
Si  6.88  3.28 -0.99
Si -6.88 -3.28  0.99
Si  2.21  2.51 -6.93
Si -2.21 -2.51  6.93
Si  0.69  7.13  2.97
Si -0.69 -7.13 -2.97
Si -1.21 -7.77  0.99
Si  1.21  7.77 -0.99
Si -6.22  0.57  4.95
Si  6.22 -0.57 -4.95
Si -1.14 -6.17  4.95
Si  1.14  6.17 -4.95
Si  5.63 -2.82 -4.95
Si -5.63  2.82  4.95
Si  0.49 -7.96 -0.99
Si -0.49  7.96  0.99
Si  3.99 -6.36  2.97
Si -3.99  6.36 -2.97
Si -0.43  4.24  6.93
Si  0.43 -4.24 -6.93
Si  2.22 -7.77  0.99
Si -2.22  7.77 -0.99
Si  8.01  1.22  0.99
Si -8.01 -1.22 -0.99
Si -5.77 -5.71 -0.99
Si  5.77  5.71  0.99
Si -2.74  7.13  2.97
Si  2.74 -7.13 -2.97
Si -2.28  6.17 -4.95
Si  2.28 -6.17  4.95
Si  7.35 -2.63 -2.97
Si -7.35  2.63  2.97
Si  6.24 -5.53  0.99
Si -6.24  5.53 -0.99
Si -0.63  4.75 -6.93
Si  0.63 -4.75  6.93
Si -4.45  1.99  6.93
Si  4.45 -1.99 -6.93
Si  7.94 -0.39 -2.97
Si -7.94  0.39  2.97
Si -2.94 -7.96 -0.99
Si  2.94  7.96  0.99
Si -5.04 -0.26  6.93
Si  5.04  0.26 -6.93
Si -6.81 -1.67  4.95
Si  6.81  1.67 -4.95
Si  6.89 -1.67  4.95
Si -6.89  1.67 -4.95
Si -3.00 -4.24 -6.93
Si  3.00  4.24  6.93
Si  5.24 -0.26  6.93
Si -5.24  0.26 -6.93
Si -5.04  5.07  4.95
Si  5.04 -5.07 -4.95
Si -4.65  2.51 -6.93
Si  4.65 -2.51  6.93
Si -4.11 -7.13 -2.97
Si  4.11  7.13  2.97
Si -5.25 -5.07 -4.95
Si  5.25  5.07  4.95
Si  6.76 -4.88 -2.97
Si -6.76  4.88  2.97
Si -2.80 -4.75  6.93
Si  2.80  4.75 -6.93
Si  1.02 -7.32 -4.95
Si -1.02  7.32  4.95
Si -0.11  0.07 -8.92
Si  0.11 -0.07  8.92
Si -6.30  3.92 -4.95
Si  6.30 -3.92  4.95
Si  3.92 -7.96 -0.99
Si -3.92  7.96  0.99
Si  3.86 -4.24 -6.93
Si -3.86  4.24  6.93
Si -6.95 -4.88 -2.97
Si  6.95  4.88  2.97
Si -7.49 -0.57 -4.95
Si  7.49  0.57  4.95
Si -0.03 -8.61  2.97
Si  0.03  8.61 -2.97
Si  4.64  7.77 -0.99
Si -4.64 -7.77  0.99
Si -4.57 -6.17  4.95
Si  4.57  6.17 -4.95
Si  2.41  7.32  4.95
Si -2.41 -7.32 -4.95
Si  0.70  2.18  8.92
Si -0.70 -2.18 -8.92
Si  0.48  2.32 -8.92
Si -0.48 -2.32  8.92
Si  8.54  1.86 -2.97
Si -8.54 -1.86  2.97
Si  9.12 -1.22 -0.99
Si -9.12  1.22  0.99
Si  8.53 -3.47 -0.99
Si -8.53  3.47  0.99
Si  5.83  1.99  6.93
Si -5.83 -1.99 -6.93
Si  5.63  2.51 -6.93
Si -5.63 -2.51  6.93
Si  8.60 -1.86  2.97
Si -8.60  1.86 -2.97
Si -8.60 -3.47 -0.99
Si  8.60  3.47  0.99
Si  4.05 -4.75  6.93
Si -4.05  4.75 -6.93
Si  7.47  5.53 -0.99
Si -7.47 -5.53  0.99
Si  6.29  6.36 -2.97
Si -6.29 -6.36  2.97
Si  8.01 -4.11  2.97
Si -8.01  4.11 -2.97
Si -0.16 -6.49 -6.93
Si  0.16  6.49  6.93
Si  3.32  0.07 -8.92
Si -3.32 -0.07  8.92
Si  2.73 -2.18 -8.92
Si -2.73  2.18  8.92
Si -3.54  0.07 -8.92
Si  3.54 -0.07  8.92
Si  5.64 -7.77  0.99
Si -5.64  7.77 -0.99
Si  9.19  0.39  2.97
Si -9.19 -0.39 -2.97
Si -2.94  2.32 -8.92
Si  2.94 -2.32  8.92
Si -3.39  8.61 -2.97
Si  3.39 -8.61  2.97
Si  7.41  3.92 -4.95
Si -7.41 -3.92  4.95
Si  3.46  8.61 -2.97
Si -3.46 -8.61  2.97
Si -5.71  6.17 -4.95
Si  5.71 -6.17  4.95
Si -9.71 -1.03  0.99
Si  9.71  1.03 -0.99
Si -7.94  5.71  0.99
Si  7.94 -5.71 -0.99
Si -0.04  7.00 -6.93
Si  0.04 -7.00  6.93
Si -6.17  7.13  2.97
Si  6.17 -7.13 -2.97
Si  8.08  2.82  4.95
Si -8.08 -2.82 -4.95
Si  4.44 -7.32 -4.95
Si -4.44  7.32  4.95
Si  1.69 -8.42  4.95
Si -1.69  8.42 -4.95
Si  1.28  9.38  2.97
Si -1.28 -9.38 -2.97
Si  1.74  8.42 -4.95
Si -1.74 -8.42  4.95
Si -3.91 -2.32  8.92
Si  3.91  2.32 -8.92
Si  1.29  4.43  8.92
Si -1.29 -4.43 -8.92
Si -3.27  6.49  6.93
Si  3.27 -6.49 -6.93
Si  4.13  2.18  8.92
Si -4.13 -2.18 -8.92
Si  2.15 -9.38 -2.97
Si -2.15  9.38  2.97
Si -1.08 -4.57  8.92
Si  1.08  4.57 -8.92
Si -3.59 -6.49 -6.93
Si  3.59  6.49  6.93
Si -2.13  4.43  8.92
Si  2.13 -4.43 -8.92
Si -1.62 10.02 -0.99
Si  1.62 -10.02  0.99
Si -7.41  6.36 -2.97
Si  7.41 -6.36  2.97
Si -1.80 -10.02  0.99
Si  1.80 10.02 -0.99
Si  6.36  7.96  0.99
Si -6.36 -7.96 -0.99
Si  0.10 10.21  0.99
Si -0.10 -10.21 -0.99
Si  2.35 -4.57  8.92
Si -2.35  4.57 -8.92
Si -6.42 -4.24 -6.93
Si  6.42  4.24  6.93
Si -3.39 -7.00  6.93
Si  3.39  7.00 -6.93
Si  3.46 -7.00  6.93
Si -3.46  7.00 -6.93
Si -9.13 -4.11  2.97
Si  9.13  4.11 -2.97
Si  6.23  4.75 -6.93
Si -6.23 -4.75  6.93
Si -9.78 -2.63 -2.97
Si  9.78  2.63  2.97
Si  5.84  7.32  4.95
Si -5.84 -7.32 -4.95
Si  7.88 -1.99 -6.93
Si -7.88  1.99  6.93
Si -9.05  2.82  4.95
Si  9.05 -2.82 -4.95
Si -0.42  9.57  4.95
Si  0.42 -9.57 -4.95
Si -3.33 10.21  0.99
Si  3.33 -10.21 -0.99
Si  7.54  7.13  2.97
Si -7.54 -7.13 -2.97
Si -10.25  3.28 -0.99
Si 10.25 -3.28  0.99
Si -3.53 -10.21 -0.99
Si  3.53 10.21  0.99
Si  9.65 -0.57 -4.95
Si -9.65  0.57  4.95
Si -10.31 -3.28  0.99
Si 10.31  3.28 -0.99
Si -9.20 -5.71 -0.99
Si  9.20  5.71  0.99
Si  7.35 -7.96 -0.99
Si -7.35  7.96  0.99
Si  4.71  9.38  2.97
Si -4.71 -9.38 -2.97
Si -7.28  4.24  6.93
Si  7.28 -4.24 -6.93
Si -8.07  2.51 -6.93
Si  8.07 -2.51  6.93
Si 10.85 -1.03  0.99
Si -10.85  1.03 -0.99
Si  8.47  0.26 -6.93
Si -8.47 -0.26  6.93
Si -4.50 -4.57  8.92
Si  4.50  4.57 -8.92
Si  1.29 -0.90 10.89
Si -1.29  0.90 -10.89
Si  4.72  4.43  8.92
Si -4.72 -4.43 -8.92
Si -5.12  8.42 -4.95
Si  5.12 -8.42  4.95
Si -8.46  5.07  4.95
Si  8.46 -5.07 -4.95
Si  5.16  8.42 -4.95
Si -5.16 -8.42  4.95
Si  6.15 -2.18 -8.92
Si -6.15  2.18  8.92
Si -1.55  1.35 10.89
Si  1.55 -1.35 -10.89
Si -8.67  0.26 -6.93
Si  8.67 -0.26  6.93
Si -1.88 -1.35 -10.89
Si  1.88  1.35 10.89
Si -2.14 -0.90 10.89
Si  2.14  0.90 -10.89
Si  9.66 -5.53  0.99
Si -9.66  5.53 -0.99
Si  0.75  8.73  6.93
Si -0.75 -8.73 -6.93
Si -6.75 -0.07  8.92
Si  6.75  0.07 -8.92
Si -3.00 -9.57 -4.95
Si  3.00  9.57  4.95
Si -6.37  2.32 -8.92
Si  6.37 -2.32  8.92
Si  8.67  5.07  4.95
Si -8.67 -5.07 -4.95
Si -1.54  6.67  8.92
Si  1.54 -6.67 -8.92
Si -8.06 -7.77  0.99
Si  8.06  7.77 -0.99
Si  8.00  6.17 -4.95
Si -8.00 -6.17  4.95
Si -7.48  4.75 -6.93
Si  7.48 -4.75  6.93
Si  5.05 -10.02  0.99
Si -5.05 10.02 -0.99
Si -0.62 -10.86  2.97
Si  0.62 10.86 -2.97
Si -1.89 -6.67 -8.92
Si  1.89  6.67  8.92
Si  5.58 -9.38 -2.97
Si -5.58  9.38  2.97
Si  6.96 -0.07  8.92
Si -6.96  0.07 -8.92
Si -1.67 -6.81  8.92
Si  1.67  6.81 -8.92
Si  5.23 10.02 -0.99
Si -5.23 -10.02  0.99
Si  1.76 -6.81  8.92
Si -1.76  6.81 -8.92
Si -0.69  3.15 -10.89
Si  0.69 -3.15 10.89
Si  6.82 -8.61  2.97
Si -6.82  8.61 -2.97
Si -5.56  4.43  8.92
Si  5.56 -4.43 -8.92
Si -6.89 -8.61  2.97
Si  6.89  8.61 -2.97
Si  3.85 -9.57 -4.95
Si -3.85  9.57  4.95
Si -2.67  8.73  6.93
Si  2.67 -8.73 -6.93
Si 10.78 -2.63 -2.97
Si -10.78  2.63  2.97
Si 10.24  1.67 -4.95
Si -10.24 -1.67  4.95
Si -0.95  3.59 10.89
Si  0.95 -3.59 -10.89
Si -11.44 -1.22 -0.99
Si 11.44  1.22  0.99
Si  5.78 -4.57  8.92
Si -5.78  4.57 -8.92
Si 10.32 -1.67  4.95
Si -10.32  1.67 -4.95
Si  0.56  9.25 -6.93
Si -0.56 -9.25  6.93
Si  2.80 -10.86  2.97
Si -2.80 10.86 -2.97
Si  9.73 -3.92  4.95
Si -9.73  3.92 -4.95
Si  6.69 -6.49 -6.93
Si -6.69  6.49  6.93
Si -2.73 -3.15 10.89
Si  2.73  3.15 -10.89
Si -10.19  4.88  2.97
Si 10.19 -4.88 -2.97
Si  9.06  2.51 -6.93
Si -9.06 -2.51  6.93
Si -2.47 -3.59 -10.89
Si  2.47  3.59 10.89
Si  9.26  1.99  6.93
Si -9.26 -1.99 -6.93
Si 11.37 -0.39 -2.97
Si -11.37  0.39  2.97
Si -7.34 -2.32  8.92
Si  7.34  2.32 -8.92
Si -7.02 -6.49 -6.93
Si  7.02  6.49  6.93
Si  1.10 -10.67  4.95
Si -1.10 10.67 -4.95
Si -7.87  7.32  4.95
Si  7.87 -7.32 -4.95
Si -10.38 -4.88 -2.97
Si 10.38  4.88  2.97
Si  7.55  2.18  8.92
Si -7.55 -2.18 -8.92
Si  4.71 -0.90 10.89
Si -4.71  0.90 -10.89
Si -4.18 -8.73 -6.93
Si  4.18  8.73  6.93
Si  2.87 -9.25  6.93
Si -2.87  9.25 -6.93
Si -4.05 -10.86  2.97
Si  4.05 10.86 -2.97
Si -6.82 -7.00  6.93
Si  6.82  7.00 -6.93
Si  9.07 -7.77  0.99
Si -9.07  7.77 -0.99
Si  2.33 10.67 -4.95
Si -2.33 -10.67  4.95
Si  9.72  6.36 -2.97
Si -9.72 -6.36  2.97
Si -10.91 -0.57 -4.95
Si 10.91  0.57  4.95
Si -6.89  7.00 -6.93
Si  6.89 -7.00  6.93
Si  4.97 -1.35 -10.89
Si -4.97  1.35 10.89
Si  4.12 -3.15 10.89
Si -4.12  3.15 -10.89
Si -9.14  6.17 -4.95
Si  9.14 -6.17  4.95
Si -1.56 11.63  2.97
Si  1.56 -11.63 -2.97
Si -1.87 -11.63 -2.97
Si  1.87 11.63  2.97
Si -0.10  5.40 -10.89
Si  0.10 -5.40 10.89
Si -5.31 -1.35 -10.89
Si  5.31  1.35 10.89
