500
set: 82.00  0.00  0.00
Si  0.00  0.00  0.00
Si  2.39  0.00  0.00
Si -2.39  0.00  0.00
Si  0.01 -0.28  2.43
Si -0.01  0.28 -2.43
Si  1.18  2.28  0.00
Si -1.18 -2.28  0.00
Si -1.20  2.28  0.00
Si  1.20 -2.28  0.00
Si -1.19  2.01  2.43
Si  1.19 -2.01 -2.43
Si  1.20  2.01  2.43
Si -1.20 -2.01 -2.43
Si  2.37  0.28 -2.43
Si -2.37 -0.28  2.43
Si  2.40 -0.28  2.43
Si -2.40  0.28 -2.43
Si -1.17 -2.56  2.43
Si  1.17  2.56 -2.43
Si  1.22 -2.56  2.43
Si -1.22  2.56 -2.43
Si  3.57  2.28  0.00
Si -3.57 -2.28  0.00
Si -3.59  2.28  0.00
Si  3.59 -2.28  0.00
Si  0.02 -4.57  0.00
Si -0.02  4.57  0.00
Si  3.58 -2.01 -2.43
Si -3.58  2.01  2.43
Si -3.59 -2.01 -2.43
Si  3.59  2.01  2.43
Si  4.77  0.00  0.00
Si -4.77  0.00  0.00
Si -0.03  0.55 -4.85
Si  0.03 -0.55  4.85
Si  0.00 -4.29 -2.43
Si -0.00  4.29  2.43
Si  3.56  2.56 -2.43
Si -3.56 -2.56  2.43
Si  3.60 -2.56  2.43
Si -3.60  2.56 -2.43
Si  2.37  4.57  0.00
Si -2.37 -4.57  0.00
Si  2.41 -4.57  0.00
Si -2.41  4.57  0.00
Si -1.17  1.73  4.85
Si  1.17 -1.73 -4.85
Si  1.22  1.73  4.85
Si -1.22 -1.73 -4.85
Si  4.76  0.28 -2.43
Si -4.76 -0.28  2.43
Si  4.79 -0.28  2.43
Si -4.79  0.28 -2.43
Si -0.03  4.84 -2.43
Si  0.03 -4.84  2.43
Si  2.36  0.55 -4.85
Si -2.36 -0.55  4.85
Si -2.42  0.55 -4.85
Si  2.42 -0.55  4.85
Si -2.38 -4.29 -2.43
Si  2.38  4.29  2.43
Si -2.39  4.29  2.43
Si  2.39 -4.29 -2.43
Si -1.15 -2.83  4.85
Si  1.15  2.83 -4.85
Si  1.23 -2.83  4.85
Si -1.23  2.83 -4.85
Si -2.35 -4.84  2.43
Si  2.35  4.84 -2.43
Si  2.42 -4.84  2.43
Si -2.42  4.84 -2.43
Si  3.56 -1.73 -4.85
Si -3.56  1.73  4.85
Si  3.60  1.73  4.85
Si -3.60 -1.73 -4.85
Si  0.01  4.02  4.85
Si -0.01 -4.02 -4.85
Si  5.96  2.28  0.00
Si -5.96 -2.28  0.00
Si -5.98  2.28  0.00
Si  5.98 -2.28  0.00
Si -4.76 -4.57  0.00
Si  4.76  4.57  0.00
Si -4.79  4.57  0.00
Si  4.79 -4.57  0.00
Si -3.54 -2.83  4.85
Si  3.54  2.83 -4.85
Si  3.62 -2.83  4.85
Si -3.62  2.83 -4.85
Si  2.38 -4.02 -4.85
Si -2.38  4.02  4.85
Si  2.40  4.02  4.85
Si -2.40 -4.02 -4.85
Si -5.96  2.01  2.43
Si  5.96 -2.01 -2.43
Si  5.97  2.01  2.43
Si -5.97 -2.01 -2.43
Si -4.74 -0.55  4.85
Si  4.74  0.55 -4.85
Si -4.80  0.55 -4.85
Si  4.80 -0.55  4.85
Si  4.77  4.29  2.43
Si -4.77 -4.29 -2.43
Si -4.78  4.29  2.43
Si  4.78 -4.29 -2.43
Si  5.94  2.56 -2.43
Si -5.94 -2.56  2.43
Si  1.17  6.85  0.00
Si -1.17 -6.85  0.00
Si -5.99  2.56 -2.43
Si  5.99 -2.56  2.43
Si  1.22 -6.85  0.00
Si -1.22  6.85  0.00
Si -0.05  5.12 -4.85
Si  0.05 -5.12  4.85
Si  1.18  6.58  2.43
Si -1.18 -6.58 -2.43
Si  1.21 -6.58 -2.43
Si -1.21  6.58  2.43
Si  7.16  0.00  0.00
Si -7.16  0.00  0.00
Si -4.74 -4.84  2.43
Si  4.74  4.84 -2.43
Si  4.81 -4.84  2.43
Si -4.81  4.84 -2.43
Si -0.05  0.82 -7.28
Si  0.05 -0.82  7.28
Si  2.34  5.12 -4.85
Si -2.34 -5.12  4.85
Si  2.44 -5.12  4.85
Si -2.44  5.12 -4.85
Si -1.16  1.46  7.28
Si  1.16 -1.46 -7.28
Si  1.23  1.46  7.28
Si -1.23 -1.46 -7.28
Si -7.15 -0.28  2.43
Si  7.15  0.28 -2.43
Si -7.18  0.28 -2.43
Si  7.18 -0.28  2.43
Si -1.15 -7.13  2.43
Si  1.15  7.13 -2.43
Si -1.24  7.13 -2.43
Si  1.24 -7.13  2.43
Si -2.34 -0.82  7.28
Si  2.34  0.82 -7.28
Si  2.43 -0.82  7.28
Si -2.43  0.82 -7.28
Si -3.55 -6.85  0.00
Si  3.55  6.85  0.00
Si  3.61 -6.85  0.00
Si -3.61  6.85  0.00
Si -3.57 -6.58 -2.43
Si  3.57  6.58  2.43
Si -5.95  1.73  4.85
Si  5.95 -1.73 -4.85
Si -3.59  6.58  2.43
Si  3.59 -6.58 -2.43
Si  4.76 -4.02 -4.85
Si -4.76  4.02  4.85
Si -5.99 -1.73 -4.85
Si  5.99  1.73  4.85
Si  4.79  4.02  4.85
Si -4.79 -4.02 -4.85
Si  1.14  3.11 -7.28
Si -1.14 -3.11  7.28
Si  1.25 -3.11  7.28
Si -1.25  3.11 -7.28
Si  1.19 -6.30 -4.85
Si -1.19  6.30  4.85
Si -1.20 -6.30 -4.85
Si  1.20  6.30  4.85
Si  5.93  2.83 -4.85
Si -5.93 -2.83  4.85
Si -0.03 -3.74 -7.28
Si  0.03  3.74  7.28
Si -3.54  1.46  7.28
Si  3.54 -1.46 -7.28
Si  6.01 -2.83  4.85
Si -6.01  2.83 -4.85
Si  3.62  1.46  7.28
Si -3.62 -1.46 -7.28
Si -3.54 -7.13  2.43
Si  3.54  7.13 -2.43
Si -3.62  7.13 -2.43
Si  3.62 -7.13  2.43
Si -7.14 -4.57  0.00
Si  7.14  4.57  0.00
Si -4.72 -5.12  4.85
Si  4.72  5.12 -4.85
Si  7.18 -4.57  0.00
Si -7.18  4.57  0.00
Si -2.36  3.74  7.28
Si  2.36 -3.74 -7.28
Si  2.42  3.74  7.28
Si -2.42 -3.74 -7.28
Si -4.82  5.12 -4.85
Si  4.82 -5.12  4.85
Si -7.13 -0.55  4.85
Si  7.13  0.55 -4.85
Si -8.35 -2.28  0.00
Si  8.35  2.28  0.00
Si  3.53  3.11 -7.28
Si -3.53 -3.11  7.28
Si  8.36 -2.28  0.00
Si -8.36  2.28  0.00
Si  7.16  4.29  2.43
Si -7.16 -4.29 -2.43
Si  7.19 -0.55  4.85
Si -7.19  0.55 -4.85
Si  7.17 -4.29 -2.43
Si -7.17  4.29  2.43
Si  3.64 -3.11  7.28
Si -3.64  3.11 -7.28
Si -4.73 -0.82  7.28
Si  4.73  0.82 -7.28
Si  3.58 -6.30 -4.85
Si -3.58  6.30  4.85
Si -3.58 -6.30 -4.85
Si  3.58  6.30  4.85
Si  4.82 -0.82  7.28
Si -4.82  0.82 -7.28
Si  8.35 -2.01 -2.43
Si -8.35  2.01  2.43
Si  1.14  7.40 -4.85
Si -1.14 -7.40  4.85
Si  8.36  2.01  2.43
Si -8.36 -2.01 -2.43
Si -1.25  7.40 -4.85
Si  1.25 -7.40  4.85
Si -7.13 -4.84  2.43
Si  7.13  4.84 -2.43
Si -7.20  4.84 -2.43
Si  7.20 -4.84  2.43
Si -8.33 -2.56  2.43
Si  8.33  2.56 -2.43
Si  0.06 -5.39  7.28
Si -0.06  5.39 -7.28
Si -5.94 -6.85  0.00
Si  5.94  6.85  0.00
Si  8.38 -2.56  2.43
Si -8.38  2.56 -2.43
Si -6.00  6.85  0.00
Si  6.00 -6.85  0.00
Si  0.04 -9.14  0.00
Si -0.04  9.14  0.00
Si  0.02 -8.86 -2.43
Si -0.02  8.86  2.43
Si  5.96  6.58  2.43
Si -5.96 -6.58 -2.43
Si -5.98  6.58  2.43
Si  5.98 -6.58 -2.43
Si -2.32 -5.39  7.28
Si  2.32  5.39 -7.28
Si  2.45 -5.39  7.28
Si -2.45  5.39 -7.28
Si  2.35  9.14  0.00
Si -2.35 -9.14  0.00
Si -2.42  9.14  0.00
Si  2.42 -9.14  0.00
Si -4.75  3.74  7.28
Si  4.75 -3.74 -7.28
Si  4.80  3.74  7.28
Si -4.80 -3.74 -7.28
Si -2.37 -8.86 -2.43
Si  2.37  8.86  2.43
Si -2.41  8.86  2.43
Si  2.41 -8.86 -2.43
Si -5.93  1.46  7.28
Si  5.93 -1.46 -7.28
Si -1.18  6.03  7.28
Si  1.18 -6.03 -7.28
Si -3.52 -7.40  4.85
Si  3.52  7.40 -4.85
Si -1.21 -6.03 -7.28
Si  1.21  6.03  7.28
Si  7.15 -4.02 -4.85
Si -7.15  4.02  4.85
Si -6.00 -1.46 -7.28
Si  6.00  1.46  7.28
Si  7.17  4.02  4.85
Si -7.17 -4.02 -4.85
Si -9.55  0.00  0.00
Si  9.55  0.00  0.00
Si  3.64 -7.40  4.85
Si -3.64  7.40 -4.85
Si -5.92 -7.13  2.43
Si  5.92  7.13 -2.43
Si  6.01 -7.13  2.43
Si -6.01  7.13 -2.43
Si  0.05 -9.41  2.43
Si -0.05  9.41 -2.43
Si  0.06 -1.10  9.70
Si -0.06  1.10 -9.70
Si  8.33 -1.73 -4.85
Si -8.33  1.73  4.85
Si -8.38 -1.73 -4.85
Si  8.38  1.73  4.85
Si -9.53 -0.28  2.43
Si  9.53  0.28 -2.43
Si -1.14  1.18  9.70
Si  1.14 -1.18 -9.70
Si -1.25 -1.18 -9.70
Si  1.25  1.18  9.70
Si  0.01 -8.59 -4.85
Si -0.01  8.59  4.85
Si -9.56  0.28 -2.43
Si  9.56 -0.28  2.43
Si -5.91 -3.11  7.28
Si  5.91  3.11 -7.28
Si  5.96 -6.30 -4.85
Si -5.96  6.30  4.85
Si -6.02  3.11 -7.28
Si  6.02 -3.11  7.28
Si  5.97  6.30  4.85
Si -5.97 -6.30 -4.85
Si  2.33  9.41 -2.43
Si -2.33 -9.41  2.43
Si -7.11 -5.12  4.85
Si  7.11  5.12 -4.85
Si  2.44 -9.41  2.43
Si -2.44  9.41 -2.43
Si -8.31 -2.83  4.85
Si  8.31  2.83 -4.85
Si -2.33 -1.10  9.70
Si  2.33  1.10 -9.70
Si  2.45 -1.10  9.70
Si -2.45  1.10 -9.70
Si -7.21  5.12 -4.85
Si  7.21 -5.12  4.85
Si -3.56  6.03  7.28
Si  3.56 -6.03 -7.28
Si -8.39  2.83 -4.85
Si  8.39 -2.83  4.85
Si  3.60  6.03  7.28
Si -3.60 -6.03 -7.28
Si  2.38  8.59  4.85
Si -2.38 -8.59 -4.85
Si  2.39 -8.59 -4.85
Si -2.39  8.59  4.85
Si -4.71 -5.39  7.28
Si  4.71  5.39 -7.28
Si -7.12 -0.82  7.28
Si  7.12  0.82 -7.28
Si -4.84  5.39 -7.28
Si  4.84 -5.39  7.28
Si -7.21  0.82 -7.28
Si  7.21 -0.82  7.28
Si  4.74  9.14  0.00
Si -4.74 -9.14  0.00
Si  0.04  3.47  9.70
Si -0.04 -3.47 -9.70
Si  4.81 -9.14  0.00
Si -4.81  9.14  0.00
Si -1.12 -3.38  9.70
Si  1.12  3.38 -9.70
Si  4.75  8.86  2.43
Si -4.75 -8.86 -2.43
Si  1.26 -3.38  9.70
Si -1.26  3.38 -9.70
Si -4.80  8.86  2.43
Si  4.80 -8.86 -2.43
Si  3.53 -1.18 -9.70
Si -3.53  1.18  9.70
Si -3.63 -1.18 -9.70
Si  3.63  1.18  9.70
Si  2.35 -3.47 -9.70
Si -2.35  3.47  9.70
Si -9.53 -4.57  0.00
Si  9.53  4.57  0.00
Si  2.43  3.47  9.70
Si -2.43 -3.47 -9.70
Si  9.57 -4.57  0.00
Si -9.57  4.57  0.00
Si -1.12 -7.68  7.28
Si  1.12  7.68 -7.28
Si -5.91 -7.40  4.85
Si  5.91  7.40 -4.85
Si -1.27  7.68 -7.28
Si  1.27 -7.68  7.28
Si -9.52 -0.55  4.85
Si  9.52  0.55 -4.85
Si  6.03 -7.40  4.85
Si -6.03  7.40 -4.85
Si  9.54  4.29  2.43
Si -9.54 -4.29 -2.43
Si  9.55 -4.29 -2.43
Si -9.55  4.29  2.43
Si  9.58 -0.55  4.85
Si -9.58  0.55 -4.85
Si -8.33 -6.85  0.00
Si  8.33  6.85  0.00
Si  4.72  9.41 -2.43
Si -4.72 -9.41  2.43
Si -8.38  6.85  0.00
Si  8.38 -6.85  0.00
Si  0.07 -9.69  4.85
Si -0.07  9.69 -4.85
Si -4.71 -1.10  9.70
Si  4.71  1.10 -9.70
Si -4.83  9.41 -2.43
Si  4.83 -9.41  2.43
Si  7.13 -3.74 -7.28
Si -7.13  3.74  7.28
Si  3.51  3.38 -9.70
Si -3.51 -3.38  9.70
Si -7.19 -3.74 -7.28
Si  7.19  3.74  7.28
Si -4.83  1.10 -9.70
Si  4.83 -1.10  9.70
Si  8.34  6.58  2.43
Si -8.34 -6.58 -2.43
Si -3.65  3.38 -9.70
Si  3.65 -3.38  9.70
Si -8.37  6.58  2.43
Si  8.37 -6.58 -2.43
Si  9.52  4.84 -2.43
Si -9.52 -4.84  2.43
Si  4.77  8.59  4.85
Si -4.77 -8.59 -4.85
Si  4.78 -8.59 -4.85
Si -4.78  8.59  4.85
Si 10.73  2.28  0.00
Si -10.73 -2.28  0.00
Si -10.75  2.28  0.00
Si 10.75 -2.28  0.00
Si -9.58  4.84 -2.43
Si  9.58 -4.84  2.43
Si -0.01 -8.31 -7.28
Si  0.01  8.31  7.28
Si  2.32  9.69 -4.85
Si -2.32 -9.69  4.85
Si  2.45 -9.69  4.85
Si -2.45  9.69 -4.85
Si  3.51  7.68 -7.28
Si -3.51 -7.68  7.28
Si -8.32  1.46  7.28
Si  8.32 -1.46 -7.28
Si  5.95 -6.03 -7.28
Si -5.95  6.03  7.28
Si  5.99  6.03  7.28
Si -5.99 -6.03 -7.28
Si 10.74 -2.01 -2.43
Si -10.74  2.01  2.43
Si -3.65  7.68 -7.28
Si  3.65 -7.68  7.28
Si -10.75 -2.01 -2.43
Si 10.75  2.01  2.43
Si -8.39 -1.46 -7.28
Si  8.39  1.46  7.28
Si  8.31  7.13 -2.43
Si -8.31 -7.13  2.43
Si  0.08 -5.67  9.70
Si -0.08  5.67 -9.70
Si  8.40 -7.13  2.43
Si -8.40  7.13 -2.43
Si -10.72 -2.56  2.43
Si 10.72  2.56 -2.43
Si -2.38  8.31  7.28
Si  2.38 -8.31 -7.28
Si -2.40 -8.31 -7.28
Si  2.40  8.31  7.28
Si -10.77  2.56 -2.43
Si 10.77 -2.56  2.43
Si -4.73  3.47  9.70
Si  4.73 -3.47 -9.70
Si -1.16  5.75  9.70
Si  1.16 -5.75 -9.70
Si -1.23 -5.75 -9.70
Si  1.23  5.75  9.70
Si  4.82  3.47  9.70
Si -4.82 -3.47 -9.70
Si  5.92 -1.18 -9.70
Si -5.92  1.18  9.70
Si -9.54  4.02  4.85
Si  9.54 -4.02 -4.85
Si -9.56 -4.02 -4.85
Si  9.56  4.02  4.85
Si -1.16 -11.15 -2.43
Si  1.16 11.15  2.43
Si -8.30 -3.11  7.28
Si  8.30  3.11 -7.28
Si  2.31  5.67 -9.70
Si -2.31 -5.67  9.70
Si -1.22 11.15  2.43
Si  1.22 -11.15 -2.43
Si  6.02  1.18  9.70
Si -6.02 -1.18 -9.70
Si  1.15 11.42  0.00
Si -1.15 -11.42  0.00
Si  1.24 -11.42  0.00
Si -1.24 11.42  0.00
Si  2.47 -5.67  9.70
Si -2.47  5.67 -9.70
Si -7.10 -5.39  7.28
Si  7.10  5.39 -7.28
Si -8.35  6.30  4.85
Si  8.35 -6.30 -4.85
Si -8.36 -6.30 -4.85
Si  8.36  6.30  4.85
Si -8.41  3.11 -7.28
