500
set: 398.00  0.00  0.00
Si  0.05 -0.03  0.00
Si -1.77  1.07  0.68
Si -0.06 -0.02 -2.23
Si -0.05 -2.16  0.71
Si  1.86  1.06  0.81
Si -3.63  0.03  0.00
Si  1.79  3.17 -0.03
Si  0.07 -2.14  2.95
Si -1.94 -0.96 -2.95
Si  1.88 -3.15  0.03
Si -1.94  0.96  2.97
Si  1.73 -1.16 -3.03
Si -1.80  3.21  0.03
Si  1.74  1.16  3.05
Si  0.07  2.10 -3.05
Si -1.89 -3.19 -0.03
Si  3.72  0.03  0.00
Si  3.52  0.01 -2.27
Si -1.75  3.11 -2.21
Si -3.63 -2.06  0.81
Si  1.88 -1.02  3.71
Si -1.79 -3.14 -2.29
Si -0.16  2.13  3.73
Si  3.72 -2.06  0.81
Si -1.75 -1.13  3.79
Si  1.92 -3.25 -2.21
Si  0.04  4.31  0.81
Si  1.88  3.23 -2.29
Si -3.83  0.01 -2.27
Si -3.61  2.13 -2.98
Si -3.61 -2.12  3.02
Si  0.06 -4.24 -2.98
Si  0.06  4.25  3.02
Si  3.74  2.13 -2.98
Si  3.74 -2.12  3.02
Si  3.63  4.21  0.71
Si -1.81 -1.06 -5.20
Si  3.62  2.10  3.77
Si -5.49  1.06  0.81
Si -1.81 -5.31  0.81
Si -3.73  4.21  0.71
Si  1.90 -5.30  0.68
Si -0.05  2.09 -5.30
Si -0.06 -4.27  3.77
Si -3.74  2.10  3.77
Si  5.58  1.07  0.68
Si  1.90 -1.05 -5.32
Si  5.42 -0.96 -2.95
Si  5.41  0.96  2.97
Si -3.61  4.22  2.95
Si -5.48 -3.15  0.03
Si  5.46 -3.19 -0.03
Si  1.79 -1.07  5.98
Si -1.94  5.21 -3.03
Si -1.94 -5.20  3.05
Si  0.04 -6.34  0.00
Si  0.04 -2.09 -6.00
Si  1.88  1.09 -5.98
Si -3.61 -4.26 -3.05
Si  3.74  4.22  2.95
Si -1.80 -1.03  6.03
Si  0.04  2.15  6.00
Si  0.04  6.40  0.00
Si  1.74  5.41 -2.95
Si -1.89  1.05 -6.03
Si  1.73 -5.40  2.97
Si -5.57  3.17 -0.03
Si  5.55  3.21  0.03
Si  3.74 -4.26 -3.05
Si -5.62 -1.16 -3.03
Si -5.61  1.16  3.05
Si  3.52 -4.24  3.73
Si  0.04 -4.18 -5.20
Si -5.47 -1.02  3.71
Si -5.43 -3.25 -2.21
Si -3.63  2.19 -5.20
Si  1.92  5.24  3.79
Si  3.72  2.19 -5.20
Si -0.16 -6.36 -2.27
Si -1.80  5.35  3.71
Si -5.47  3.23 -2.29
Si -0.16  6.38 -2.27
Si  5.60  3.11 -2.21
Si  5.56 -3.14 -2.29
Si  0.04  0.06  6.81
Si -3.83 -4.24  3.73
Si  5.60 -1.13  3.79
Si -3.62  6.33  0.00
Si -7.30 -0.03  0.00
Si -3.62  2.09  6.00
Si  0.05  4.21 -6.00
Si -3.62 -2.16 -6.00
Si  3.73  6.33  0.00
Si -3.62 -6.40  0.00
Si  3.73  2.09  6.00
Si  0.05 -4.28  6.00
Si  3.73 -2.16 -6.00
Si  7.41 -0.03  0.00
Si  3.73 -6.40  0.00
Si -1.77 -3.17  6.69
Si  7.29 -0.02 -2.23
Si  3.63 -0.03  6.71
Si -5.45 -5.30  0.68
Si  3.62  6.34 -2.23
Si  7.30 -2.16  0.71
Si  1.90  3.19  6.69
Si  1.86  5.30 -5.20
Si  5.54 -1.06 -5.20
Si -3.73 -0.03  6.71
Si  3.62 -6.39 -2.23
Si -5.45 -1.05 -5.32
Si -1.81  7.43  0.81
Si -3.74  6.34 -2.23
Si  1.90  7.44  0.68
Si  3.63 -4.28 -5.30
Si  5.54 -5.31  0.81
Si -1.77  5.31 -5.32
Si -1.81  3.18  6.81
Si -3.74 -6.39 -2.23
Si -7.40 -2.16  0.71
Si -7.41 -0.02 -2.23
Si  1.86 -3.19  6.81
Si -3.73 -4.28 -5.30
Si  1.74 -7.33 -2.95
Si  1.73  7.33  2.97
Si  5.41  5.21 -3.03
Si  5.42 -5.20  3.05
Si -7.29 -2.14  2.95
Si -1.80 -5.28 -5.98
Si -7.29  2.10 -3.05
Si -5.48  1.09 -5.98
Si -3.63 -4.21  6.00
Si  5.46  1.05 -6.03
Si -1.89  5.29  5.98
Si -3.63  4.27 -6.00
Si  3.72 -4.21  6.00
Si  1.79 -5.32 -6.03
Si -5.57 -1.07  5.98
Si  3.72  4.27 -6.00
Si  5.55 -1.03  6.03
Si  1.88  5.33  6.03
Si  7.42 -2.14  2.95
Si  7.42  2.10 -3.05
Si -5.61  5.41 -2.95
Si -5.62 -5.40  2.97
Si -1.94 -7.53 -3.03
Si -1.94  7.53  3.05
Si  7.19  2.13  3.73
Si -5.43  5.24  3.79
Si -1.79 -7.38  3.71
Si  0.04 -8.43  0.81
Si  1.92  0.99 -8.21
Si -7.31  4.31  0.81
Si -0.16 -2.11 -8.27
Si  5.56  5.35  3.71
Si -1.80  1.11 -8.30
Si  7.39  4.31  0.81
Si  1.92 -7.50  3.79
Si -7.51  2.13  3.73
Si -7.29 -4.24 -2.98
Si -7.29  4.25  3.02
Si  0.06  0.01 -8.98
Si  0.06  8.49 -2.98
Si  0.06 -8.48  3.02
Si  0.06  0.01  9.03
Si  7.42 -4.24 -2.98
Si  7.42  4.25  3.02
Si -5.45  3.19  6.69
Si -9.12  1.07  0.68
Si -0.05  6.33  6.71
Si -5.49  5.30 -5.20
Si -5.45  7.44  0.68
Si  3.62 -2.15 -8.23
Si  7.29 -4.27  3.77
Si -0.06  4.22 -8.23
Si  1.86 -7.43 -5.20
Si  7.30  2.09 -5.30
Si -0.06  8.46  3.77
Si  5.58 -3.17  6.69
Si -0.05 -6.40  6.71
Si  3.63 -8.52  0.71
Si -3.74 -2.15 -8.23
Si -1.77 -7.42 -5.32
Si  5.54  7.43  0.81
Si -5.49 -3.19  6.81
Si  9.22  1.06  0.81
Si -3.72 -8.52  0.71
Si  5.54  3.18  6.81
Si -7.40  2.09 -5.30
Si -7.41 -4.27  3.77
Si  5.58  5.31 -5.32
Si  1.74 -3.08 -8.95
Si  1.73  3.08  8.97
Si  9.08 -1.16 -3.03
Si -3.61 -0.02  8.95
Si  9.09  1.16  3.05
Si  9.14  3.17 -0.03
Si  5.46  5.29  5.98
Si -7.31 -6.34  0.00
Si -7.31 -2.09 -6.00
Si -5.61 -7.33 -2.95
Si -1.80 -9.52  0.03
Si -9.15  3.21  0.03
Si -3.61  8.47 -3.05
Si -5.62  7.33  2.97
Si -7.31  2.15  6.00
Si -3.61 -8.51  2.95
Si  1.73  3.08 -9.03
Si  3.74 -0.02  8.95
Si -7.31  6.40  0.00
Si  5.55 -5.28 -5.98
Si -1.80  7.46 -5.98
Si  1.74 -3.08  9.06
Si  1.79  7.42 -6.03
Si -1.89  9.54 -0.03
Si  1.79 -9.56 -0.03
Si -1.89 -7.44  5.98
Si  1.88 -7.40  6.03
Si -1.94  3.29 -8.95
Si -5.48  5.33  6.03
Si  7.39 -6.34  0.00
Si -3.61 -0.02 -9.05
Si  3.74  8.47 -3.05
Si  7.39 -2.09 -6.00
Si -1.94 -3.28  8.97
Si  3.74 -8.51  2.95
Si  5.41 -7.53 -3.03
Si  9.23 -3.15  0.03
Si  1.88  9.58  0.03
Si  5.41  7.53  3.05
Si  7.39  2.15  6.00
Si  7.39  6.40  0.00
Si -5.57 -5.32 -6.03
Si -9.24 -3.19 -0.03
Si -9.29 -0.96 -2.95
Si  3.74 -0.02 -9.05
Si -9.29  0.96  2.97
Si -1.94 -3.28 -9.03
Si -1.94  3.29  9.06
Si  7.19 -6.36 -2.27
Si -9.10  3.11 -2.21
Si  7.19  6.38 -2.27
Si -5.43  0.99 -8.21
Si -7.31 -4.18 -5.20
Si  1.92  9.48 -2.21
Si  3.52  8.50  3.73
Si -9.10 -1.13  3.79
Si -1.79  1.11  9.71
Si -9.15 -3.14 -2.29
Si  3.52  4.25 -8.27
Si  7.39 -4.18 -5.20
Si  5.56 -7.38  3.71
Si  1.88 -9.50 -2.29
Si -0.16 -2.11  9.73
Si -3.63 -6.30  6.81
Si -1.75 -5.38 -8.21
Si -7.31  0.06  6.81
Si  3.72 -6.30  6.81
Si  9.23 -1.02  3.71
Si  1.88 -5.26 -8.30
Si -5.43 -7.50  3.79
Si  0.04  8.55 -5.20
Si -1.75 -9.62 -2.21
Si -1.80  9.60 -2.29
Si  1.92  0.99  9.79
Si -3.83  8.50  3.73
Si  9.23  3.23 -2.29
Si  5.56  1.11 -8.30
Si -3.63  6.43  6.81
Si  7.39  0.06  6.81
Si -3.83  4.25 -8.27
Si  9.28 -3.25 -2.21
Si  3.72  6.43  6.81
Si -7.51 -6.36 -2.27
Si -7.51  6.38 -2.27
Si -7.30  4.21 -6.00
Si  0.05  8.45  6.00
Si -7.30 -4.28  6.00
Si  7.41  4.21 -6.00
Si  0.05 -8.52 -6.00
Si  7.41 -4.28  6.00
Si -9.16 -1.06 -5.20
Si -5.49 -7.43 -5.20
Si -0.05 10.58  0.71
Si  3.63  8.45 -5.30
Si -9.16 -5.31  0.81
Si  3.62 -2.15  9.77
Si -0.06  4.22  9.77
Si -3.73  8.45 -5.30
Si -3.74 -2.15  9.77
Si  9.26 -5.30  0.68
Si  5.58 -7.42 -5.32
Si  9.26 -1.05 -5.32
Si  5.41  3.29 -8.95
Si  9.14 -1.07  5.98
Si  0.07  6.35  8.95
Si  5.41 -3.28  8.97
Si  9.08 -5.40  2.97
Si  9.09  5.41 -2.95
Si -10.98  0.03  0.00
Si -3.63 -8.46 -6.00
Si  5.46  9.54 -0.03
Si  5.46 -7.44  5.98
Si  0.07 10.59  2.95
Si  0.07 -6.38  8.95
Si -5.48 -7.40  6.03
Si -5.61 -3.08 -8.95
Si -9.15 -1.03  6.03
Si  3.72 -8.46 -6.00
Si  5.55 -9.52  0.03
Si -5.62  3.08  8.97
Si  5.41 -3.28 -9.03
Si -5.48  9.58  0.03
Si -3.63  8.52  6.00
Si  9.23  1.09 -5.98
Si  5.55  7.46 -5.98
Si  5.42  3.29  9.06
Si  0.07  6.35 -9.05
Si  0.07 -10.63 -3.05
Si -5.57  7.42 -6.03
Si -5.57 -9.56 -0.03
Si  3.72  8.52  6.00
Si 11.07  0.03  0.00
Si -9.29 -5.20  3.05
Si -9.29  5.21 -3.03
Si -5.62  3.08 -9.03
Si  0.07 -6.38 -9.05
Si -9.24  1.05 -6.03
Si -5.61 -3.08  9.06
Si 10.87  0.01 -2.27
Si -5.43  9.48 -2.21
Si -1.75  7.36 -8.21
Si  7.19 -2.11 -8.27
Si -7.31 -8.43  0.81
Si  3.52  4.25  9.73
Si  0.04  0.06 -11.20
Si  1.88 -5.26  9.71
Si -5.47 -9.50 -2.29
Si -10.99 -2.06  0.81
Si -9.15  5.35  3.71
Si  7.39 -8.43  0.81
Si -0.16 -10.60  3.73
Si  5.56  1.11  9.71
Si -5.43  0.99  9.79
Si -5.47 -5.26 -8.30
Si 11.07 -2.06  0.81
Si -3.83  4.25  9.73
Si  5.60 -5.38 -8.21
Si -3.63 10.67  0.81
Si  9.28  5.24  3.79
Si -1.75 -5.38  9.79
Si  5.56  9.60 -2.29
Si  1.88  7.47 -8.30
Si  3.72 10.67  0.81
Si  5.60 -9.62 -2.21
Si -7.51 -2.11 -8.27
Si -11.19  0.01 -2.27
Si -10.96  2.13 -2.98
Si -7.29  0.01 -8.98
Si -10.96 -2.12  3.02
Si -7.29  8.49 -2.98
Si -3.61 -6.36 -8.98
Si -7.29 -8.48  3.02
Si -3.61  6.37 -8.98
Si -3.61 -10.61 -2.98
Si -7.29  0.01  9.03
Si -3.61 10.62  3.02
Si -3.61 -6.36  9.03
Si  3.74 -6.36 -8.98
Si -3.61  6.37  9.03
Si  3.74  6.37 -8.98
Si  3.74 -10.61 -2.98
Si  7.42  0.01 -8.98
Si  3.74 10.62  3.02
Si  3.74 -6.36  9.03
Si  7.42  8.49 -2.98
Si  3.74  6.37  9.03
Si  7.42 -8.48  3.02
Si 11.09  2.13 -2.98
Si  7.42  0.01  9.03
Si 11.09 -2.12  3.02
Si -9.12 -3.17  6.69
Si  7.30  6.33  6.71
Si 10.98  4.21  0.71
Si  7.29  4.22 -8.23
Si -1.81  3.18 -11.20
Si 10.97  2.10  3.77
Si  7.29  8.46  3.77
Si  1.86 -3.19 -11.20
Si -1.77  9.56  6.69
Si  7.30 -6.40  6.71
Si  1.90 -9.54  6.69
Si -1.77 -11.66  0.68
Si -9.16  7.43  0.81
Si -9.12  5.31 -5.32
Si -7.40  6.33  6.71
Si  9.22  5.30 -5.20
Si -0.06 -8.51 -8.23
Si  3.62 -10.63  3.77
Si  1.86 -11.67  0.81
Si -9.16  3.18  6.81
Si  9.26  3.19  6.69
Si -7.41  4.22 -8.23
Si -7.40 -6.40  6.71
Si  3.63 -0.03 -11.30
Si -7.41  8.46  3.77
Si -1.81 -9.55  6.81
Si -11.08  4.21  0.71
Si  1.86  9.55  6.81
Si -3.74 -10.63  3.77
Si -0.05 -10.64 -5.30
Si -1.77 -3.17 -11.32
Si  9.22 -3.19  6.81
Si  9.26  7.44  0.68
Si -3.73 -0.03 -11.30
Si -11.09  2.10  3.77
Si  1.90  3.19 -11.32
Si  9.09 -7.33 -2.95
Si  9.08  7.33  2.97
Si  1.73 11.57 -3.03
Si  1.74 -11.57  3.05
Si -10.96  4.22  2.95
Si -9.15 -5.28 -5.98
Si -10.96 -4.26 -3.05
Si -1.80 -1.03 -11.98
Si  0.04 -10.58  6.00
Si  9.14 -5.32 -6.03
Si -1.89  1.05 11.98
Si  0.04 -2.09 12.01
Si  0.04  2.15 -12.00
Si  1.79 -1.07 -12.03
Si -9.24  5.29  5.98
Si  0.04 10.64 -6.00
Si  1.88  1.09 12.03
Si 11.09  4.22  2.95
Si  9.23  5.33  6.03
Si 10.87 -4.24  3.73
Si 11.09 -4.26 -3.05
Si  7.19 -2.11  9.73
Si -1.94 11.77 -2.95
Si -1.94 -11.77  2.97
Si -3.63 -10.55 -5.20
Si -5.47 -5.26  9.71
Si -9.15 -7.38  3.71
Si  3.72 -10.55 -5.20
Si -1.75 11.60  3.79
Si -9.29 -7.53 -3.03
Si -9.29  7.53  3.05
Si -10.99  2.19 -5.20
Si  3.52 -8.48 -8.27
Si  5.60  7.36 -8.21
Si -1.75  7.36  9.79
Si -7.31  8.55 -5.20
Si  1.88  7.47  9.71
Si -9.15  1.11 -8.30
Si 11.07  2.19 -5.20
Si  9.28  0.99 -8.21
Si  1.88 11.72  3.71
Si -5.47  7.47 -8.30
Si  7.39  8.55 -5.20
Si -3.83 -8.48 -8.27
Si -7.51 -2.11  9.73
Si  5.60 -5.38  9.79
Si  9.28 -7.50  3.79
Si -11.19 -4.24  3.73
Si -10.97  6.33  0.00
Si -7.30  8.45  6.00
Si -10.97  2.09  6.00
Si -3.62 10.58 -6.00
Si -10.97 -2.16 -6.00
Si  0.05 12.70  0.00
Si -10.97 -6.40  0.00
Si -3.62  2.09 -12.00
Si  3.73 10.58 -6.00
Si -7.30 -8.52 -6.00
Si  0.05  4.21 12.01
Si -3.62 -2.16 12.01
Si  3.73  2.09 -12.00
Si  0.05 -4.28 -12.00
Si  7.41  8.45  6.00
Si -3.62 -10.64  6.00
Si  3.73 -2.16 12.01
Si 11.08  6.33  0.00
Si  0.05 -12.77  0.00
Si 11.08  2.09  6.00
Si  3.73 -10.64  6.00
Si 11.08 -2.16 -6.00
Si  7.41 -8.52 -6.00
Si 11.08 -6.40  0.00
Si -5.45 -9.54  6.69
Si 10.97  6.34 -2.23
Si 10.98 -0.03  6.71
Si -5.49 -3.19 -11.20
Si  7.30 10.58  0.71
Si  1.90 -1.05 12.69
Si -0.05  2.09 12.71
Si 10.97 -6.39 -2.23
Si  5.54  3.18 -11.20
Si  7.29  4.22  9.77
Si -1.81 11.67 -5.20
