500
set: 1254.00  0.00  0.00
Si  0.68 -0.62 -0.23
Si  0.36  0.95  1.44
Si -1.52 -1.16 -1.18
Si  2.05  0.34 -1.99
Si -2.34  1.01  1.48
Si  1.11 -2.74  0.78
Si  1.17  2.82  0.73
Si -3.05  0.51 -0.63
Si  1.15  2.81 -1.93
Si  1.64  0.34  3.30
Si  1.34 -1.92  3.04
Si -1.08  2.37 -2.93
Si -2.11 -3.41 -0.32
Si -1.53 -1.37 -3.59
Si  3.27  2.43  1.20
Si -3.14  2.53 -1.61
Si  4.11  1.28 -0.68
Si -2.88 -0.16  3.32
Si  2.22 -0.57 -3.98
Si -0.89  0.75 -4.50
Si -2.45 -2.44  3.12
Si -2.60  3.40  1.93
Si -0.39  4.44  1.50
Si -0.10 -4.72  0.09
Si  3.59 -3.27  0.79
Si  3.92  1.02  3.06
Si -0.42 -3.28  4.04
Si -5.28 -0.41 -0.69
Si -3.88 -3.53  1.46
Si  2.08 -2.78 -4.30
Si -0.42 -3.19 -4.60
Si  4.22  3.24 -1.92
Si -3.86  4.17  0.12
Si  1.19  0.65 -5.53
Si  1.19  0.65  5.58
Si  0.75  5.42 -1.98
Si  5.40 -1.93  1.20
Si  5.83 -0.41 -0.69
Si  0.99  3.19 -4.85
Si  2.78 -4.47 -2.80
Si -3.49 -2.58 -4.14
Si  0.75 -5.69 -1.98
Si -2.80  1.14  5.28
Si -2.50  3.41  4.38
Si  4.79 -3.61 -1.12
Si  2.75 -2.99  4.59
Si -5.70 -1.93  1.20
Si -4.03 -4.64 -0.81
Si -5.34 -0.37  3.13
Si -5.40 -1.75 -2.52
Si  4.65 -0.34 -4.36
Si -0.10  6.39  0.09
Si -4.96  2.75 -3.04
Si  5.71 -1.75 -2.52
Si  5.03  4.02  0.86
Si -2.80  1.14 -5.82
Si -0.92 -5.30 -3.78
Si  5.77 -0.37  3.13
Si  0.40 -5.54  3.54
Si  0.40  5.56  3.54
Si -0.89  0.75  6.60
Si -3.33 -4.80 -3.31
Si  4.10 -5.04  1.96
Si -0.39 -6.66  1.50
Si -0.88  4.45  5.18
Si -0.92  5.81 -3.78
Si  2.81 -5.21  3.82
Si  0.99  3.19  6.25
Si -4.15 -3.28  4.76
Si  4.99 -1.95  4.68
Si -6.99  1.28 -0.68
Si -0.42 -3.19  6.51
Si  4.76  2.77  4.78
Si -5.03  1.49 -5.07
Si  3.94  4.89 -3.76
Si -6.07  4.02  0.86
Si -6.32 -3.61 -1.12
Si  6.15  2.75 -3.04
Si  3.03  4.08  5.43
Si -0.88  4.45 -5.92
Si  2.22 -0.57  7.13
Si  2.81  5.90  3.82
Si  4.10  6.06  1.96
Si  3.03  4.08 -5.67
Si  2.08 -2.78  6.81
Si -4.98 -4.83  3.25
Si -4.03  6.47 -0.81
Si  2.75 -2.99 -6.51
Si  2.78  6.63 -2.80
Si -1.53 -1.37  7.51
Si -6.46 -0.34 -4.36
Si -0.42 -3.28 -7.07
Si -6.89  3.24 -1.92
Si -3.33  6.31 -3.31
Si -7.18  1.02  3.06
Si -4.70  4.32  4.68
Si -6.11 -1.95  4.68
Si -3.86 -6.94  0.12
Si -2.50  3.41 -6.73
Si  1.64  0.34 -7.81
Si -2.11  7.70 -0.32
Si -5.03  1.49  6.04
Si  6.08  1.49 -5.07
Si  8.06  0.51 -0.63
Si -4.82  4.99 -4.26
Si  7.23 -3.53  1.46
Si  4.65 -0.34  6.74
Si -3.49 -2.58  6.96
Si -7.51 -3.27  0.79
Si  3.94 -6.21 -3.76
Si -4.15 -3.28 -6.35
Si -7.84  2.43  1.20
Si -2.88 -0.16 -7.79
Si -2.60 -7.70  1.93
Si  7.25  4.17  0.12
Si  4.99 -1.95 -6.42
Si  4.76  2.77 -6.33
Si  1.34 -1.92 -8.06
Si  1.17 -8.29  0.73
Si -6.35  2.77  4.78
Si  6.13 -4.83  3.25
Si  1.11  8.36  0.78
Si -0.88 -6.66  5.18
Si  7.08 -4.64 -0.81
Si  7.97  2.53 -1.61
Si -1.08  2.37  8.18
Si  1.15 -8.29 -1.93
Si -3.88  7.58  1.46
Si -4.98  6.28  3.25
Si  3.59  7.83  0.79
Si  6.08  1.49  6.04
Si -2.45 -2.44 -7.99
Si  5.03 -7.08  0.86
Si -0.42  7.83  4.04
Si -7.01 -5.04  1.96
Si  8.22 -0.16  3.32
Si -4.82 -6.12 -4.26
Si  8.77  1.01  1.48
Si -0.88 -6.66 -5.92
Si  4.79  7.50 -1.12
Si  3.92  1.02 -8.05
Si  6.41  4.32  4.68
Si  6.96 -3.28  4.76
Si  7.62 -2.58 -4.14
Si -4.70  4.32 -6.43
Si -6.11 -1.95 -6.42
Si -0.92 -5.30  7.33
Si  6.29  4.99 -4.26
Si  4.22 -7.86 -1.92
Si -0.42  7.92 -4.60
Si -2.50 -7.69  4.38
Si -3.14 -8.58 -1.61
Si -1.08 -8.73 -2.93
Si -9.05  0.34 -1.99
Si  0.99 -7.91 -4.85
Si -6.46 -0.34  6.74
Si  3.27 -8.68  1.20
Si  2.05  0.34  9.12
Si  6.13  6.28  3.25
Si  8.51  3.40  1.93
Si -6.07 -7.08  0.86
Si -6.35  2.77 -6.33
Si  0.40 -5.54 -7.56
Si  3.03 -7.03  5.43
Si  2.81 -5.21 -7.29
Si  0.40  5.56 -7.56
Si -0.92  5.81  7.33
Si -7.17  4.89 -3.76
Si -7.01  6.06  1.96
Si -4.70 -6.79  4.68
Si  8.66 -2.44  3.12
Si -2.45  8.66  3.12
Si  3.03 -7.03 -5.67
Si  2.08  8.32 -4.30
Si -5.34 -0.37 -7.97
Si  9.00 -3.41 -0.32
Si  7.08  6.47 -0.81
Si  3.94  4.89  7.34
Si  1.15  2.81  9.18
Si  0.36  0.95 -9.67
Si  7.78 -4.80 -3.31
Si  2.75  8.12  4.59
Si  9.58 -1.16 -1.18
Si -4.82  4.99  6.84
Si -3.33 -4.80  7.80
Si -8.89 -0.57 -3.98
Si  6.29 -6.12 -4.26
Si  1.34  9.19  3.04
Si  2.81  5.90 -7.29
Si  2.78 -4.47  8.31
Si  5.77 -0.37 -7.97
Si -8.32 -4.47 -2.80
Si -4.96  2.75  8.07
Si -6.32  7.50 -1.12
Si  8.30  1.14  5.28
Si -2.34  1.01 -9.63
Si  6.96 -3.28 -6.35
Si -8.35 -2.99  4.59
Si -9.46  0.34  3.30
Si  7.25 -6.94  0.12
Si  6.41  4.32 -6.43
Si -4.15  7.83  4.76
Si -3.49  8.53 -4.14
Si -1.52 -1.16  9.93
Si -2.60  3.40 -9.17
Si -1.52  9.95 -1.18
Si  0.99 -7.91  6.25
Si -4.96 -8.36 -3.04
Si -7.17 -6.21 -3.76
Si  8.30  1.14 -5.82
Si  8.61  3.41  4.38
Si -0.42  7.92  6.51
Si  0.36 -10.15  1.44
Si -5.40 -1.75  8.59
Si -3.14  2.53  9.49
Si  9.57 -1.37 -3.59
Si -9.93  2.82  0.73
Si -4.82 -6.12  6.84
Si -9.03 -2.78 -4.30
Si  3.94 -6.21  7.34
Si -9.99 -2.74  0.78
Si -9.77 -1.92  3.04
Si  6.41 -6.79  4.68
Si -10.43 -0.62 -0.23
Si  5.71 -1.75  8.59
Si -4.70 -6.79 -6.43
Si -2.34 -10.10  1.48
Si -4.98 -4.83 -7.86
Si -1.53  9.74 -3.59
Si  6.15  2.75  8.07
Si  0.68 10.49 -0.23
Si -8.30 -5.21  3.82
Si -2.50 -7.69 -6.73
Si -9.96  2.81 -1.93
Si  7.78  6.31 -3.31
Si  6.29  4.99  6.84
Si -8.08  4.08  5.43
Si -0.42  7.83 -7.07
Si -3.33  6.31  7.80
Si  7.23  7.58  1.46
Si -0.39  4.44 -9.61
Si  4.22  3.24  9.19
Si -6.89 -7.86 -1.92
Si  7.62 -2.58  6.96
Si  0.75  5.42  9.13
Si  4.11 -9.82 -0.68
Si -8.08  4.08 -5.67
Si 10.03  2.37 -2.93
Si  3.27  2.43 -9.91
Si  5.40  9.18  1.20
Si  4.76 -8.34  4.78
Si  1.11 -2.74 -10.33
Si  2.75  8.12 -6.51
Si  0.75 -5.69  9.13
Si  6.15 -8.36 -3.04
Si  1.17  2.82 -10.37
Si -7.18  1.02 -8.05
Si -5.70  9.18  1.20
Si -8.30  5.90  3.82
Si -7.51  7.83  0.79
Si -10.75  0.95  1.44
Si -4.15  7.83 -6.35
Si  0.68 -0.62 10.88
Si -3.05  0.51 10.48
Si  2.08  8.32  6.81
Si -3.88 -3.53 -9.65
Si  2.78  6.63  8.31
Si -8.32  6.63 -2.80
Si -8.35 -2.99 -6.51
Si -3.05 -10.60 -0.63
Si  6.13 -4.83 -7.86
Si -5.40  9.36 -2.52
Si  6.29 -6.12  6.84
Si  2.05 -10.76 -1.99
Si 10.22  0.75 -4.50
Si  4.10 -5.04 -9.14
Si -4.98  6.28 -7.86
Si  3.92 -10.08  3.06
Si  5.71  9.36 -2.52
Si  4.11  1.28 10.43
Si -0.89 -10.35 -4.50
Si  8.22 -0.16 -7.79
Si  6.41 -6.79 -6.43
Si -9.91  0.65 -5.53
Si -7.17  4.89  7.34
Si  0.68 -0.62 -11.34
Si  1.64 -10.77  3.30
Si -9.91  0.65  5.58
Si  3.59 -3.27 -10.31
Si -8.89 -0.57  7.13
Si  4.99  9.16  4.68
Si  8.61  3.41 -6.73
Si  5.40 -1.93 -9.91
Si  2.22 10.54 -3.98
Si  4.76 -8.34 -6.33
Si  6.96  7.83  4.76
Si -2.11 -3.41 10.78
Si -6.35 -8.34  4.78
Si -3.49  8.53  6.96
Si 11.46  0.95  1.44
Si -5.70 -1.93 -9.91
Si -2.80 -9.96  5.28
Si  8.51 -7.70  1.93
Si -9.03 -2.78  6.81
Si  4.79 -3.61  9.99
Si -10.11  3.19 -4.85
Si -5.28 -0.41 10.41
Si -0.39 -6.66 -9.61
Si 10.72  4.44  1.50
Si  4.10  6.06 -9.14
Si  0.68 -11.72 -0.23
Si -7.84 -8.68  1.20
Si  6.13  6.28 -7.86
Si -2.88 10.95  3.32
Si  2.05 11.45 -1.99
Si 11.78 -0.62 -0.23
Si  7.97 -8.58 -1.61
Si  9.00  7.70 -0.32
Si -10.35  5.42 -1.98
Si -2.80 -9.96 -5.82
Si  1.19 -10.45 -5.53
Si 10.69 -3.28  4.04
Si  1.19 -10.45  5.58
Si -6.89  3.24  9.19
Si  5.83 -0.41 10.41
Si -5.28 10.70 -0.69
Si -6.11  9.16  4.68
Si 11.00 -4.72  0.09
Si -10.35 -5.69 -1.98
Si -5.03 -9.62 -5.07
Si -0.10 -4.72 -11.01
Si -4.03 -4.64 10.30
Si -7.17 -6.21  7.34
Si -8.08 -7.03  5.43
Si -1.08 -8.73  8.18
Si  7.78 -4.80  7.80
Si  1.64 11.44  3.30
Si -3.05 11.62 -0.63
Si  8.66 -2.44 -7.99
Si -2.45  8.66 -7.99
Si 10.68 -3.19 -4.60
Si -6.99 -9.82 -0.68
Si 10.19 -5.30 -3.78
Si -2.88 -11.27  3.32
Si  5.03  4.02 -10.24
Si -2.11 -3.41 -11.43
Si -8.08 -7.03 -5.67
Si -3.05  0.51 -11.73
Si  0.36 12.06  1.44
Si -0.10 -4.72 11.20
Si -11.21 -4.72  0.09
Si  7.62  8.53 -4.14
Si 10.22  0.75  6.60
Si  5.83 10.70 -0.69
Si -8.30 -5.21 -7.29
Si  1.17  2.82 11.84
Si -6.35 -8.34 -6.33
Si  9.57 -1.37  7.51
Si  1.11 -2.74 11.88
Si  6.96  7.83 -6.35
Si  4.99  9.16 -6.42
Si -2.60 -7.70 -9.17
Si -9.46  0.34 -7.81
Si 10.22  4.45  5.18
Si  1.34  9.19 -8.06
Si -10.11  3.19  6.25
Si -0.89 -10.35  6.60
Si 10.19  5.81 -3.78
Si  8.61 -7.69  4.38
Si -6.32 -3.61  9.99
Si -3.86  4.17 -10.98
Si -5.34 10.73  3.13
Si -1.53  9.74  7.51
Si -11.49  4.44  1.50
Si -1.52 -12.26 -1.18
Si -5.03 -9.62  6.04
Si  1.15 -8.29  9.18
Si -2.34 12.12  1.48
Si -1.52 -1.16 -12.28
Si  6.08 -9.62 -5.07
Si  4.65 10.77 -4.36
Si -8.30  5.90 -7.29
Si -8.35  8.12  4.59
Si  2.22 -11.68 -3.98
Si 12.22 -2.74  0.78
Si  4.11  1.28 -11.79
Si  7.23 -3.53 -9.65
Si -10.71 -5.54  3.54
Si -6.07  4.02 -10.24
Si -7.01 -5.04 -9.14
Si -10.71  5.56  3.54
Si -8.32 -4.47  8.31
Si  5.77 10.73  3.13
Si -3.86  4.17 11.23
Si  0.36  0.95 12.55
Si -6.99  1.28 10.43
Si 12.28  2.82  0.73
Si 10.22  4.45 -5.92
Si -4.96 -8.36  8.07
Si  8.66  8.66  3.12
Si -11.52 -3.28  4.04
Si  7.97  2.53  9.49
Si -5.28 -11.51 -0.69
Si  7.78  6.31  7.80
Si 10.72 -6.66  1.50
Si -0.89 11.86 -4.50
Si 12.25  2.81 -1.93
Si 11.00  6.39  0.09
Si -0.10  6.39 -11.01
Si -12.63 -1.16 -1.18
Si -6.11  9.16 -6.42
Si -12.18  2.37 -2.93
Si -7.18 -10.08  3.06
Si  4.22 -7.86  9.19
Si -9.77 -1.92 -8.06
Si -4.03  6.47 10.30
Si -11.53 -3.19 -4.60
Si -11.99  0.75 -4.50
Si -2.34  1.01 12.59
Si  3.59 -3.27 11.90
Si -9.05  0.34  9.12
Si -3.88  7.58 -9.65
Si -7.84  2.43 -9.91
Si  6.08 -9.62  6.04
Si -0.10  6.39 11.20
Si -11.21  6.39  0.09
Si 10.68 -3.19  6.51
Si  2.22 10.54  7.13
Si  5.83 -11.51 -0.69
Si -5.28 -0.41 -11.80
Si 12.44 -1.92  3.04
Si -9.93 -8.29  0.73
Si  3.27  2.43 12.30
Si  8.51  3.40 -9.17
Si -9.03  8.32 -4.30
Si -7.01  6.06 -9.14
Si -5.34 -11.48  3.13
Si  1.19 11.76 -5.53
Si -9.99  8.36  0.78
Si  8.77  1.01 -9.63
Si -1.53 -12.47 -3.59
Si  1.19 11.76  5.58
Si  4.11 12.39 -0.68
Si  4.65 -11.45 -4.36
Si -9.96 -8.29 -1.93
Si  3.92 12.13  3.06
Si  6.15 -8.36  8.07
Si 10.03  2.37  8.18
Si  5.83 -0.41 -11.80
Si 12.75  0.34  3.30
Si -3.14 -8.58  9.49
Si -7.51 -3.27 -10.31
Si 11.86  5.42 -1.98
Si -12.64 -1.37 -3.59
Si  5.77 -11.48  3.13
Si  8.06  0.51 10.48
Si 10.69 -3.28 -7.07
Si 11.51 -5.54  3.54
Si 10.22 -6.66  5.18
Si  2.05  0.34 -13.10
Si 11.51  5.56  3.54
Si -6.46 10.77 -4.36
Si 11.86 -5.69 -1.98
Si 13.16  0.34 -1.99
Si  8.06 -10.60 -0.63
Si  1.17 -8.29 -10.37
Si  7.08 -4.64 10.30
Si  1.11  8.36 -10.33
Si -3.14  2.53 -12.72
Si -8.35  8.12 -6.51
Si  8.61 -7.69 -6.73
Si -11.49 -6.66  1.50
Si -0.39  4.44 12.60
Si  4.79  7.50  9.99
Si  1.15  2.81 -13.04
Si  7.62  8.53  6.96
Si -4.03 -4.64 -11.91
Si  1.64 -10.77 -7.81
Si -2.11  7.70 10.78
Si 12.10  3.19 -4.85
Si  5.03 -7.08 -10.24
Si  1.34 -13.02  3.04
Si  3.59  7.83 -10.31
Si  8.77 -10.10  1.48
Si  3.92 -10.08 -8.05
Si -8.32  6.63  8.31
Si 12.30  0.65 -5.53
Si 12.30  0.65  5.58
Si  4.65 10.77  6.74
Si -3.86 -6.94 -10.98
Si 10.22 -6.66 -5.92
Si -13.45  1.01  1.48
Si  3.27 -8.68 -9.91
Si  5.40 -1.93 12.30
Si  5.03  4.02 11.97
Si -0.89 11.86  6.60
Si -3.88 -3.53 12.56
Si -11.53 -3.19  6.51
Si  4.79 -3.61 -12.23
Si 10.03 -8.73 -2.93
