500
set: 1305.00  0.00  0.00
Si  1.18  0.00  1.18
Si  1.18 -0.00 -1.18
Si -1.18  0.00  1.18
Si -1.18 -0.00 -1.18
Si  2.36 -1.69 -2.33
Si  2.36 -1.69  2.33
Si -2.36 -1.69 -2.33
Si -2.36 -1.69  2.33
Si  2.36  1.69 -2.33
Si  2.36  1.69  2.33
Si -2.36  1.69 -2.33
Si -2.36  1.69  2.33
Si -3.86 -0.00 -3.10
Si -3.86  0.00  3.10
Si  3.86 -0.00 -3.10
Si  3.86  0.00  3.10
Si -3.18  3.61 -1.21
Si -3.18  3.61  1.21
Si -3.18 -3.61 -1.21
Si -3.18 -3.61  1.21
Si  3.18  3.61 -1.21
Si  3.18  3.61  1.21
Si  3.18 -3.61 -1.21
Si  3.18 -3.61  1.21
Si  1.20  2.42 -4.28
Si  1.20  2.42  4.28
Si  1.20 -2.42 -4.28
Si  1.20 -2.42  4.28
Si -1.20  2.42 -4.28
Si -1.20  2.42  4.28
Si -1.20 -2.42 -4.28
Si -1.20 -2.42  4.28
Si  2.36 -5.53 -2.33
Si  2.36 -5.53  2.33
Si -2.36 -5.53 -2.33
Si -2.36 -5.53  2.33
Si  2.36  5.53 -2.33
Si  2.36  5.53  2.33
Si -2.36  5.53 -2.33
Si -2.36  5.53  2.33
Si  1.20  4.79 -4.28
Si  1.20  4.79  4.28
Si  1.20 -4.79 -4.28
Si  1.20 -4.79  4.28
Si -1.20  4.79 -4.28
Si -1.20  4.79  4.28
Si -1.20 -4.79 -4.28
Si -1.20 -4.79  4.28
Si -3.86 -0.00 -5.46
Si -3.86  0.00  5.46
Si  3.86 -0.00 -5.46
Si  3.86  0.00  5.46
Si -5.57  3.61 -1.18
Si -5.57  3.61  1.18
Si  5.57  3.61 -1.18
Si  5.57  3.61  1.18
Si -5.57 -3.61 -1.18
Si -5.57 -3.61  1.18
Si  5.57 -3.61 -1.18
Si  5.57 -3.61  1.18
Si  2.36 -1.69 -6.23
Si  2.36 -1.69  6.23
Si -2.36 -1.69 -6.23
Si -2.36 -1.69  6.23
Si  2.36  1.69 -6.23
Si  2.36  1.69  6.23
Si -2.36  1.69 -6.23
Si -2.36  1.69  6.23
Si  6.25 -0.00 -3.08
Si  6.25  0.00  3.08
Si -6.25 -0.00 -3.08
Si -6.25  0.00  3.08
Si  1.18 -7.22  1.18
Si  1.18  7.22  1.18
Si  1.18 -7.22 -1.18
Si  1.18  7.22 -1.18
Si -1.18  7.22  1.18
Si -1.18 -7.22  1.18
Si -1.18  7.22 -1.18
Si -1.18 -7.22 -1.18
Si  1.18  0.00  7.38
Si -1.18  0.00  7.38
Si  1.18 -0.00 -7.38
Si -1.18 -0.00 -7.38
Si  7.07  1.92 -1.95
Si  7.07  1.92  1.95
Si  7.07 -1.92 -1.95
Si  7.07 -1.92  1.95
Si -7.07  1.92 -1.95
Si -7.07  1.92  1.95
Si -7.07 -1.92 -1.95
Si -7.07 -1.92  1.95
Si -8.22  1.19  0.00
Si -8.22 -1.19  0.00
Si  8.22  1.19  0.00
Si  8.22 -1.19  0.00
Si  6.25 -0.00 -5.49
Si  6.25  0.00  5.49
Si -6.25 -0.00 -5.49
Si -6.25  0.00  5.49
Si  2.36 -5.53 -6.23
Si  2.36 -5.53  6.23
Si -2.36 -5.53 -6.23
Si -2.36 -5.53  6.23
Si  2.36  5.53 -6.23
Si  2.36  5.53  6.23
Si -2.36  5.53 -6.23
Si -2.36  5.53  6.23
Si -3.86 -7.22 -3.10
Si -3.86  7.22 -3.10
Si -3.86  7.22  3.10
Si -3.86 -7.22  3.10
Si  3.86 -7.22 -3.10
Si  3.86  7.22 -3.10
Si  3.86 -7.22  3.10
Si  3.86  7.22  3.10
Si -3.18  3.61 -7.36
Si -3.18  3.61  7.36
Si -3.18 -3.61 -7.36
Si -3.18 -3.61  7.36
Si  3.18  3.61 -7.36
Si  3.18  3.61  7.36
Si  3.18 -3.61 -7.36
Si  3.18 -3.61  7.36
Si  7.07  5.29 -1.95
Si  7.07  5.29  1.95
Si  7.07 -5.29 -1.95
Si  7.07 -5.29  1.95
Si -7.07  5.29 -1.95
Si -7.07  5.29  1.95
Si -7.07 -5.29 -1.95
Si -7.07 -5.29  1.95
Si  2.36 -8.90 -2.33
Si  2.36 -8.90  2.33
Si -2.36 -8.90 -2.33
Si -2.36 -8.90  2.33
Si  2.36  8.90 -2.33
Si  2.36  8.90  2.33
Si -2.36  8.90 -2.33
Si -2.36  8.90  2.33
Si -8.25  3.61 -3.10
Si -8.25  3.61  3.10
Si -8.25 -3.61 -3.10
Si -8.25 -3.61  3.10
Si  8.25  3.61 -3.10
Si  8.25  3.61  3.10
Si  8.25 -3.61 -3.10
Si  8.25 -3.61  3.10
Si  1.18  0.00  9.74
Si -1.18  0.00  9.74
Si  1.18 -0.00 -9.74
Si -1.18 -0.00 -9.74
Si -3.86  7.22 -5.46
Si -3.86 -7.22 -5.46
Si -3.86 -7.22  5.46
Si -3.86  7.22  5.46
Si  3.86  7.22 -5.46
Si  3.86 -7.22 -5.46
Si  3.86 -7.22  5.46
Si  3.86  7.22  5.46
Si  7.07  1.92 -6.62
Si  7.07  1.92  6.62
Si  7.07 -1.92 -6.62
Si  7.07 -1.92  6.62
Si -7.07  1.92 -6.62
Si -7.07  1.92  6.62
Si -7.07 -1.92 -6.62
Si -7.07 -1.92  6.62
Si -5.57  3.61 -7.38
Si -5.57  3.61  7.38
Si  5.57  3.61 -7.38
Si -5.57 -3.61 -7.38
Si  5.57  3.61  7.38
Si -5.57 -3.61  7.38
Si  5.57 -3.61 -7.38
Si  5.57 -3.61  7.38
Si  6.25 -7.22 -3.08
Si  6.25  7.22 -3.08
Si  6.25 -7.22  3.08
Si  6.25  7.22  3.08
Si -6.25  7.22 -3.08
Si -6.25 -7.22 -3.08
Si -6.25 -7.22  3.08
Si -6.25  7.22  3.08
Si -8.22  6.03  0.00
Si -8.22 -6.03  0.00
Si  8.22  6.03  0.00
Si  8.22 -6.03  0.00
Si  1.18 -7.22  7.38
Si  1.18  7.22  7.38
Si -1.18 -7.22  7.38
Si -1.18  7.22  7.38
Si  1.18  7.22 -7.38
Si  1.18 -7.22 -7.38
Si -1.18  7.22 -7.38
Si -1.18 -7.22 -7.38
Si -8.25  3.61 -5.46
Si -8.25  3.61  5.46
Si -8.25 -3.61 -5.46
Si  8.25  3.61 -5.46
Si -8.25 -3.61  5.46
Si  8.25  3.61  5.46
Si  8.25 -3.61 -5.46
Si  8.25 -3.61  5.46
Si  1.20  9.64 -4.28
Si  1.20  9.64  4.28
Si  1.20 -9.64 -4.28
Si  1.20 -9.64  4.28
Si -1.20  9.64 -4.28
Si -1.20  9.64  4.28
Si -1.20 -9.64 -4.28
Si -1.20 -9.64  4.28
Si -10.63  1.19  0.00
Si -10.63 -1.19  0.00
Si 10.63  1.19  0.00
Si 10.63 -1.19  0.00
Si -3.18  3.61 -9.77
Si -3.18  3.61  9.77
Si -3.18 -3.61 -9.77
Si -3.18 -3.61  9.77
Si  3.18  3.61 -9.77
Si  3.18  3.61  9.77
Si  3.18 -3.61 -9.77
Si  3.18 -3.61  9.77
Si  6.25  7.22 -5.49
Si  6.25 -7.22 -5.49
Si  6.25 -7.22  5.49
Si  6.25  7.22  5.49
Si -6.25 -7.22 -5.49
Si -6.25  7.22 -5.49
Si -6.25  7.22  5.49
Si -6.25 -7.22  5.49
Si  7.07  5.29 -6.62
Si  7.07  5.29  6.62
Si  7.07 -5.29 -6.62
Si -7.07  5.29 -6.62
Si  7.07 -5.29  6.62
Si -7.07  5.29  6.62
Si -7.07 -5.29 -6.62
Si -7.07 -5.29  6.62
Si  2.36 -8.90 -6.23
Si  2.36 -8.90  6.23
Si -2.36 -8.90 -6.23
Si -2.36 -8.90  6.23
Si  2.36  8.90 -6.23
Si  2.36  8.90  6.23
Si -2.36  8.90 -6.23
Si -2.36  8.90  6.23
Si  2.36 -1.69 -10.90
Si -2.36 -1.69 -10.90
Si  2.36 -1.69 10.90
Si -2.36 -1.69 10.90
Si  2.36  1.69 -10.90
Si -2.36  1.69 -10.90
Si  2.36  1.69 10.90
Si -2.36  1.69 10.90
Si -3.18 10.82 -1.21
Si -3.18 10.82  1.21
Si -3.18 -10.82 -1.21
Si -3.18 -10.82  1.21
Si  3.18 10.82 -1.21
Si  3.18 10.82  1.21
Si  3.18 -10.82 -1.21
Si  3.18 -10.82  1.21
Si -10.61  3.61 -3.10
Si -10.61  3.61  3.10
Si -10.61 -3.61 -3.10
Si -10.61 -3.61  3.10
Si 10.61  3.61 -3.10
Si 10.61  3.61  3.10
Si 10.61 -3.61 -3.10
Si 10.61 -3.61  3.10
Si  7.07  9.14 -1.95
Si  7.07  9.14  1.95
Si -7.07  9.14 -1.95
Si -7.07  9.14  1.95
Si  7.07 -9.14 -1.95
Si  7.07 -9.14  1.95
Si -7.07 -9.14 -1.95
Si -7.07 -9.14  1.95
Si -8.22  8.40  0.00
Si -8.22 -8.40  0.00
Si  8.22  8.40  0.00
Si  8.22 -8.40  0.00
Si -5.57  3.61 -9.74
Si -5.57  3.61  9.74
Si  5.57  3.61 -9.74
Si -5.57 -3.61 -9.74
Si  5.57  3.61  9.74
Si -5.57 -3.61  9.74
Si  5.57 -3.61 -9.74
Si  5.57 -3.61  9.74
Si -8.22  1.19  8.56
Si -8.22  1.19 -8.56
Si -8.22 -1.19 -8.56
Si -8.22 -1.19  8.56
Si  8.22  1.19 -8.56
Si  8.22  1.19  8.56
Si  8.22 -1.19  8.56
Si  8.22 -1.19 -8.56
Si 11.79  1.92 -1.95
Si 11.79  1.92  1.95
Si 11.79 -1.92 -1.95
Si 11.79 -1.92  1.95
Si -11.79  1.92 -1.95
Si -11.79  1.92  1.95
Si -11.79 -1.92 -1.95
Si -11.79 -1.92  1.95
Si  1.18 -7.22  9.74
Si  1.18  7.22  9.74
Si -1.18  7.22  9.74
Si -1.18 -7.22  9.74
Si  1.18  7.22 -9.74
Si  1.18 -7.22 -9.74
Si -1.18 -7.22 -9.74
Si -1.18  7.22 -9.74
Si -10.63  6.03  0.00
Si -10.63 -6.03  0.00
Si 10.63  6.03  0.00
Si 10.63 -6.03  0.00
Si -5.57 10.82 -1.18
Si -5.57 10.82  1.18
Si  5.57 10.82 -1.18
Si  5.57 10.82  1.18
Si -5.57 -10.82 -1.18
Si -5.57 -10.82  1.18
Si  5.57 -10.82 -1.18
Si  5.57 -10.82  1.18
Si -3.86 -0.00 -11.66
Si  3.86 -0.00 -11.66
Si -3.86  0.00 11.66
Si  3.86  0.00 11.66
Si  2.36 -5.53 -10.90
Si -2.36 -5.53 -10.90
Si  2.36 -5.53 10.90
Si -2.36 -5.53 10.90
Si  2.36  5.53 -10.90
Si -2.36  5.53 -10.90
Si  2.36  5.53 10.90
Si -2.36  5.53 10.90
Si -10.61  3.61 -5.46
Si -10.61  3.61  5.46
Si -10.61 -3.61 -5.46
Si -10.61 -3.61  5.46
Si 10.61  3.61 -5.46
Si 10.61  3.61  5.46
Si 10.61 -3.61 -5.46
Si 10.61 -3.61  5.46
Si  1.20 12.01 -4.28
Si  1.20 12.01  4.28
Si  1.20 -12.01 -4.28
Si  1.20 -12.01  4.28
Si -1.20 12.01 -4.28
Si -1.20 12.01  4.28
Si -1.20 -12.01 -4.28
Si -1.20 -12.01  4.28
Si  7.07  1.92 -10.51
Si  7.07 -1.92 -10.51
Si  7.07  1.92 10.51
Si  7.07 -1.92 10.51
Si -7.07  1.92 -10.51
Si -7.07 -1.92 -10.51
Si -7.07  1.92 10.51
Si -7.07 -1.92 10.51
Si 12.61 -0.00 -3.08
Si 12.61  0.00  3.08
Si -12.61 -0.00 -3.08
Si -12.61  0.00  3.08
Si 11.79  5.29 -1.95
Si 11.79  5.29  1.95
Si 11.79 -5.29 -1.95
Si 11.79 -5.29  1.95
Si -11.79  5.29 -1.95
Si -11.79  5.29  1.95
Si -11.79 -5.29 -1.95
Si -11.79 -5.29  1.95
Si  1.20  2.42 -12.84
Si  1.20 -2.42 -12.84
Si  1.20  2.42 12.84
Si  1.20 -2.42 12.84
Si -1.20  2.42 -12.84
Si -1.20 -2.42 -12.84
Si -1.20  2.42 12.84
Si -1.20 -2.42 12.84
Si  2.36 -12.75 -2.33
Si  2.36 -12.75  2.33
Si -2.36 -12.75 -2.33
Si -2.36 -12.75  2.33
Si  2.36 12.75 -2.33
Si  2.36 12.75  2.33
Si -2.36 12.75 -2.33
Si -2.36 12.75  2.33
Si  6.25 -0.00 -11.64
Si  6.25  0.00 11.64
Si -6.25 -0.00 -11.64
Si -6.25  0.00 11.64
Si  7.07  9.14 -6.62
Si  7.07  9.14  6.62
Si -7.07  9.14 -6.62
Si -7.07  9.14  6.62
Si  7.07 -9.14 -6.62
Si  7.07 -9.14  6.62
Si -7.07 -9.14 -6.62
Si -7.07 -9.14  6.62
Si -8.22  6.03 -8.56
Si -8.22  6.03  8.56
Si -8.22 -6.03  8.56
Si -8.22 -6.03 -8.56
Si  8.22  6.03 -8.56
Si  8.22  6.03  8.56
Si  8.22 -6.03 -8.56
Si  8.22 -6.03  8.56
Si -3.18 10.82 -7.36
Si -3.18 10.82  7.36
Si -3.18 -10.82 -7.36
Si -3.18 -10.82  7.36
Si  3.18 10.82 -7.36
Si  3.18 10.82  7.36
Si  3.18 -10.82 -7.36
Si  3.18 -10.82  7.36
Si -10.63  8.40  0.00
Si -10.63 -8.40  0.00
Si 10.63  8.40  0.00
Si 10.63 -8.40  0.00
Si 11.79  1.92 -6.62
Si 11.79  1.92  6.62
Si 11.79 -1.92 -6.62
Si 11.79 -1.92  6.62
Si -11.79  1.92 -6.62
Si -11.79  1.92  6.62
Si -11.79 -1.92 -6.62
Si -11.79 -1.92  6.62
Si -10.63  1.19 -8.56
Si -10.63  1.19  8.56
Si -10.63 -1.19 -8.56
Si -10.63 -1.19  8.56
Si 10.63  1.19  8.56
Si 10.63  1.19 -8.56
Si 10.63 -1.19  8.56
Si 10.63 -1.19 -8.56
Si  7.07  5.29 -10.51
Si  7.07  5.29 10.51
Si  7.07 -5.29 -10.51
Si -7.07  5.29 -10.51
Si  7.07 -5.29 10.51
Si -7.07  5.29 10.51
Si -7.07 -5.29 -10.51
Si -7.07 -5.29 10.51
Si 12.61 -0.00 -5.49
Si 12.61  0.00  5.49
Si -12.61 -0.00 -5.49
Si -12.61  0.00  5.49
Si  1.20  4.79 -12.84
Si  1.20  4.79 12.84
Si  1.20 -4.79 -12.84
Si  1.20 -4.79 12.84
Si -1.20  4.79 -12.84
Si -1.20  4.79 12.84
Si -1.20 -4.79 -12.84
Si -1.20 -4.79 12.84
Si -13.29  3.61 -1.18
Si -13.29  3.61  1.18
Si -13.29 -3.61 -1.18
Si -13.29 -3.61  1.18
Si 13.29  3.61 -1.18
Si 13.29  3.61  1.18
Si 13.29 -3.61 -1.18
Si 13.29 -3.61  1.18
Si -8.25 10.82 -3.10
Si -8.25 10.82  3.10
Si  8.25 10.82 -3.10
Si  8.25 10.82  3.10
Si -8.25 -10.82 -3.10
Si -8.25 -10.82  3.10
Si  8.25 -10.82 -3.10
Si  8.25 -10.82  3.10
Si -5.57 10.82 -7.38
Si -5.57 10.82  7.38
Si  5.57 10.82 -7.38
Si  5.57 10.82  7.38
Si -5.57 -10.82 -7.38
Si -5.57 -10.82  7.38
Si  5.57 -10.82 -7.38
Si  5.57 -10.82  7.38
Si -3.86  7.22 -11.66
Si -3.86 -7.22 -11.66
Si  3.86  7.22 -11.66
Si  3.86 -7.22 -11.66
Si -3.86  7.22 11.66
Si -3.86 -7.22 11.66
Si  3.86  7.22 11.66
Si  3.86 -7.22 11.66
Si  2.36 -8.90 -10.90
Si -2.36 -8.90 -10.90
Si  2.36 -8.90 10.90
Si -2.36 -8.90 10.90
Si  2.36  8.90 -10.90
Si -2.36  8.90 -10.90
Si  2.36  8.90 10.90
Si -2.36  8.90 10.90
