500
set: 84.00  0.00  0.00
Si  0.00  0.00  0.00
Si  2.39  0.00  0.00
Si -2.39  0.00  0.00
Si  0.28 -0.35  2.38
Si -0.28  0.35 -2.38
Si -1.01  2.22  0.00
Si  1.01 -2.22  0.00
Si  1.37  2.22  0.00
Si -1.37 -2.22  0.00
Si -0.74  1.86  2.38
Si  0.74 -1.86 -2.38
Si  2.11  0.35 -2.38
Si -2.11 -0.35  2.38
Si -1.65 -1.86 -2.38
Si  1.65  1.86  2.38
Si -2.66  0.35 -2.38
Si  2.66 -0.35  2.38
Si -1.10 -2.57  2.38
Si  1.10  2.57 -2.38
Si  1.29 -2.57  2.38
Si -1.29  2.57 -2.38
Si  3.40 -2.22  0.00
Si -3.40  2.22  0.00
Si  3.13 -1.86 -2.38
Si -3.13  1.86  2.38
Si  3.76  2.22  0.00
Si -3.76 -2.22  0.00
Si -0.36 -4.44  0.00
Si  0.36  4.44  0.00
Si -0.63 -4.08 -2.38
Si  0.63  4.08  2.38
Si -4.78  0.00  0.00
Si  4.78  0.00  0.00
Si -0.55  0.71 -4.77
Si  0.55 -0.71  4.77
Si -2.03  4.44  0.00
Si  2.03 -4.44  0.00
Si  3.49  2.57 -2.38
Si -3.49 -2.57  2.38
Si -0.47  1.51  4.77
Si  0.47 -1.51 -4.77
Si -1.75  4.08  2.38
Si  1.75 -4.08 -2.38
Si -4.04 -1.86 -2.38
Si  4.04  1.86  2.38
Si  3.68 -2.57  2.38
Si -3.68  2.57 -2.38
Si -4.50 -0.35  2.38
Si  4.50  0.35 -2.38
Si -1.84 -0.71  4.77
Si  1.84  0.71 -4.77
Si  2.75  4.44  0.00
Si -2.75 -4.44  0.00
Si  0.09  4.79 -2.38
Si -0.09 -4.79  2.38
Si -1.92 -1.51 -4.77
Si  1.92  1.51  4.77
Si  5.05 -0.35  2.38
Si -5.05  0.35 -2.38
Si -3.02 -4.08 -2.38
Si  3.02  4.08  2.38
Si -2.94  0.71 -4.77
Si  2.94 -0.71  4.77
Si -0.82 -2.93  4.77
Si  0.82  2.93 -4.77
Si  2.85 -1.51 -4.77
Si -2.85  1.51  4.77
Si -1.56  2.93 -4.77
Si  1.56 -2.93  4.77
Si  2.30 -4.79  2.38
Si -2.30  4.79 -2.38
Si -2.47 -4.79  2.38
Si  2.47  4.79 -2.38
Si -0.91 -3.73 -4.77
Si  0.91  3.73  4.77
Si -5.79  2.22  0.00
Si  5.79 -2.22  0.00
Si  1.48 -3.73 -4.77
Si -1.48  3.73  4.77
Si  4.42 -4.44  0.00
Si -4.42  4.44  0.00
Si -4.14  4.08  2.38
Si  4.14 -4.08 -2.38
Si -5.52  1.86  2.38
Si  5.52 -1.86 -2.38
Si  4.23  0.71 -4.77
Si -4.23 -0.71  4.77
Si  3.21  2.93 -4.77
Si -3.21 -2.93  4.77
Si  6.15  2.22  0.00
Si -6.15 -2.22  0.00
Si  4.31  1.51  4.77
Si -4.31 -1.51 -4.77
Si  0.66 -6.66  0.00
Si -0.66  6.66  0.00
Si  0.38 -6.30 -2.38
Si -0.38  6.30  2.38
Si -5.14 -4.44  0.00
Si  5.14  4.44  0.00
Si -5.88 -2.57  2.38
Si  5.88  2.57 -2.38
Si  3.95 -2.93  4.77
Si -3.95  2.93 -4.77
Si  1.73  6.66  0.00
Si -1.73 -6.66  0.00
Si -3.30 -3.73 -4.77
Si  3.30  3.73  4.77
Si -6.07  2.57 -2.38
Si  6.07 -2.57  2.38
Si -0.19  5.14 -4.77
Si  0.19 -5.14  4.77
Si  2.01  6.30  2.38
Si -2.01 -6.30 -2.38
Si -6.43 -1.86 -2.38
Si  6.43  1.86  2.38
Si -4.69  4.79 -2.38
Si  4.69 -4.79  2.38
Si  7.17  0.00  0.00
Si -7.17  0.00  0.00
Si -3.87  3.73  4.77
Si  3.87 -3.73 -4.77
Si  5.33 -0.71  4.77
Si -5.33  0.71 -4.77
Si  5.41  4.08  2.38
Si -5.41 -4.08 -2.38
Si -4.86 -4.79  2.38
Si  4.86  4.79 -2.38
Si  5.24 -1.51 -4.77
Si -5.24  1.51  4.77
Si  0.19 -1.16 -7.16
Si -0.19  1.16  7.16
Si  0.82 -1.06  7.16
Si -0.82  1.06 -7.16
Si -2.77  6.30  2.38
Si  2.77 -6.30 -2.38
Si -6.89 -0.35  2.38
Si  6.89  0.35 -2.38
Si -3.04  6.66  0.00
Si  3.04 -6.66  0.00
Si -2.20 -5.14  4.77
Si  2.20  5.14 -4.77
Si  1.56  1.06 -7.16
Si -1.56 -1.06  7.16
Si  0.93 -7.01  2.38
Si -0.93  7.01 -2.38
Si  2.58 -5.14  4.77
Si -2.58  5.14 -4.77
Si -1.46 -7.01  2.38
Si  1.46  7.01 -2.38
Si  2.20  1.16  7.16
Si -2.20 -1.16 -7.16
Si -0.11  5.95  4.77
Si  0.11 -5.95 -4.77
Si -2.58  1.16  7.16
Si  2.58 -1.16 -7.16
Si  7.44 -0.35  2.38
Si -7.44  0.35 -2.38
Si -4.12 -6.66  0.00
Si  4.12  6.66  0.00
Si -0.55 -3.28  7.16
Si  0.55  3.28 -7.16
Si  3.21 -1.06  7.16
Si -3.21  1.06 -7.16
Si  5.60  2.93 -4.77
Si -5.60 -2.93  4.77
Si  2.28  5.95  4.77
Si -2.28 -5.95 -4.77
Si  1.18  3.37  7.16
Si -1.18 -3.37 -7.16
Si -1.21  3.37  7.16
Si  1.21 -3.37 -7.16
Si -2.50  5.95  4.77
Si  2.50 -5.95 -4.77
Si  4.40  6.30  2.38
Si -4.40 -6.30 -2.38
Si -6.53  4.08  2.38
Si  6.53 -4.08 -2.38
Si  1.84 -3.28  7.16
Si -1.84  3.28 -7.16
Si -3.32  7.01 -2.38
Si  3.32 -7.01  2.38
Si  6.81 -4.44  0.00
Si -6.81  4.44  0.00
Si -6.62 -0.71  4.77
Si  6.62  0.71 -4.77
Si -3.95 -1.06  7.16
Si  3.95  1.06 -7.16
Si -5.69 -3.73 -4.77
Si  5.69  3.73  4.77
Si  3.85  7.01 -2.38
Si -3.85 -7.01  2.38
Si  6.70  1.51  4.77
Si -6.70 -1.51 -4.77
Si  4.59  5.14 -4.77
Si -4.59 -5.14  4.77
Si -2.94 -3.28  7.16
Si  2.94  3.28 -7.16
Si -6.34  2.93 -4.77
Si  6.34 -2.93  4.77
Si  7.91 -1.86 -2.38
Si -7.91  1.86  2.38
Si -8.18  2.22  0.00
Si  8.18 -2.22  0.00
Si  5.16 -6.30 -2.38
Si -5.16  6.30  2.38
Si  4.59  1.16  7.16
Si -4.59 -1.16 -7.16
Si -5.43  6.66  0.00
Si  5.43 -6.66  0.00
Si  4.97 -5.14  4.77
Si -4.97  5.14 -4.77
Si  3.57  3.37  7.16
Si -3.57 -3.37 -7.16
Si  3.59 -3.37 -7.16
Si -3.59  3.37  7.16
Si  6.26 -3.73 -4.77
Si -6.26  3.73  4.77
Si -7.53 -4.44  0.00
Si  7.53  4.44  0.00
Si  4.97 -1.16 -7.16
Si -4.97  1.16  7.16
Si -8.54 -2.22  0.00
Si  8.54  2.22  0.00
Si  1.18  7.36 -4.77
Si -1.18 -7.36  4.77
Si -1.21  7.36 -4.77
Si  1.21 -7.36  4.77
Si -7.08  4.79 -2.38
Si  7.08 -4.79  2.38
Si  0.99  8.52  2.38
Si -0.99 -8.52 -2.38
Si  0.72  8.87  0.00
Si -0.72 -8.87  0.00
Si  4.23 -3.28  7.16
Si -4.23  3.28 -7.16
Si -4.67 -5.95 -4.77
Si  4.67  5.95  4.77
Si  1.40 -8.52 -2.38
Si -1.40  8.52  2.38
Si  8.27  2.57 -2.38
Si -8.27 -2.57  2.38
Si  7.25  4.79 -2.38
Si -7.25 -4.79  2.38
Si  1.67 -8.87  0.00
Si -1.67  8.87  0.00
Si -0.47  5.50 -7.16
Si  0.47 -5.50  7.16
Si -4.88  5.95  4.77
Si  4.88 -5.95 -4.77
Si -0.17 -5.59 -7.16
Si  0.17  5.59  7.16
Si  7.72 -0.71  4.77
Si -7.72  0.71 -4.77
Si -7.80 -4.08 -2.38
Si  7.80  4.08  2.38
Si  7.63 -1.51 -4.77
Si -7.63  1.51  4.77
Si  5.60 -1.06  7.16
Si -5.60  1.06 -7.16
Si  8.46 -2.57  2.38
Si -8.46  2.57 -2.38
Si  1.92  5.50 -7.16
Si -1.92 -5.50  7.16
Si -6.51 -6.66  0.00
Si  6.51  6.66  0.00
Si -8.82 -1.86 -2.38
Si  8.82  1.86  2.38
Si  5.71 -7.01  2.38
Si -5.71  7.01 -2.38
Si  2.22 -5.59 -7.16
Si -2.22  5.59  7.16
Si  3.11  8.87  0.00
Si -3.11 -8.87  0.00
Si -2.56 -5.59 -7.16
Si  2.56  5.59  7.16
Si  2.85 -5.50  7.16
Si -2.85  5.50 -7.16
Si -3.38 -8.52 -2.38
Si  3.38  8.52  2.38
Si  3.57  7.36 -4.77
Si -3.57 -7.36  4.77
Si  3.59 -7.36  4.77
Si -3.59  7.36 -4.77
Si -5.33 -3.28  7.16
Si  5.33  3.28 -7.16
Si  1.12 -8.16 -4.77
Si -1.12  8.16  4.77
Si -1.27 -8.16 -4.77
Si  1.27  8.16  4.77
Si  0.44  9.23 -2.38
Si -0.44 -9.23  2.38
Si -9.56  0.00  0.00
Si  9.56  0.00  0.00
Si -6.79 -6.30 -2.38
Si  6.79  6.30  2.38
Si -0.08 -0.80 -9.54
Si  0.08  0.80  9.54
Si  9.28  0.35 -2.38
Si -9.28 -0.35  2.38
Si -6.34 -1.06  7.16
Si  6.34  1.06 -7.16
Si -3.78  8.52  2.38
Si  3.78 -8.52 -2.38
Si  6.24  7.01 -2.38
Si -6.24 -7.01  2.38
Si  1.10 -1.42  9.54
Si -1.10  1.42 -9.54
Si  1.95 -9.23  2.38
Si -1.95  9.23 -2.38
Si -1.29 -1.42  9.54
Si  1.29  1.42 -9.54
Si  7.99  2.93 -4.77
Si -7.99 -2.93  4.77
Si  4.06 -8.87  0.00
Si -4.06  8.87  0.00
Si -2.31  0.80  9.54
Si  2.31 -0.80 -9.54
Si  2.47  0.80  9.54
Si -2.47 -0.80 -9.54
Si -6.98 -5.14  4.77
Si  6.98  5.14 -4.77
Si  5.96  3.37  7.16
Si -5.96 -3.37 -7.16
Si  5.98 -3.37 -7.16
Si -5.98  3.37  7.16
Si  2.83  9.23 -2.38
Si -2.83 -9.23  2.38
Si  4.31  5.50 -7.16
Si -4.31 -5.50  7.16
Si -0.93  3.02  9.54
Si  0.93 -3.02 -9.54
Si  6.98  1.16  7.16
Si -6.98 -1.16 -7.16
Si  3.51 -8.16 -4.77
Si -3.51  8.16  4.77
Si -8.08 -3.73 -4.77
Si  8.08  3.73  4.77
Si -8.92  4.08  2.38
Si  8.92 -4.08 -2.38
Si  1.46  3.02  9.54
Si -1.46 -3.02 -9.54
Si  7.55 -6.30 -2.38
Si -7.55  6.30  2.38
Si  9.83 -0.35  2.38
Si -9.83  0.35 -2.38
Si  3.66  8.16  4.77
Si -3.66 -8.16 -4.77
Si -7.36  5.14 -4.77
Si  7.36 -5.14  4.77
Si -4.61  5.59  7.16
Si  4.61 -5.59 -7.16
Si  9.20 -4.44  0.00
Si -9.20  4.44  0.00
Si  0.28  3.64 -9.54
Si -0.28 -3.64  9.54
Si  9.01  0.71 -4.77
Si -9.01 -0.71  4.77
Si  3.49 -1.42  9.54
Si -3.49  1.42 -9.54
Si  7.82 -6.66  0.00
Si -7.82  6.66  0.00
Si  6.62 -3.28  7.16
Si -6.62  3.28 -7.16
Si  3.68  1.42 -9.54
Si -3.68 -1.42  9.54
Si  7.36 -1.16 -7.16
Si -7.36  1.16  7.16
Si -4.95 -5.59 -7.16
Si  4.95  5.59  7.16
Si  8.73 -2.93  4.77
Si -8.73  2.93 -4.77
Si  9.09  1.51  4.77
Si -9.09 -1.51 -4.77
Si -7.06 -5.95 -4.77
Si  7.06  5.95  4.77
Si  2.11 -3.64  9.54
Si -2.11  3.64 -9.54
Si -5.24  5.50 -7.16
Si  5.24 -5.50  7.16
Si -5.50 -8.87  0.00
Si  5.50  8.87  0.00
Si  4.33 -9.23  2.38
Si -4.33  9.23 -2.38
Si -7.27  5.95  4.77
Si  7.27 -5.95 -4.77
Si  3.32 -3.02 -9.54
Si -3.32  3.02  9.54
Si -2.66 -3.64  9.54
Si  2.66  3.64 -9.54
Si  8.65 -3.73 -4.77
Si -8.65  3.73  4.77
Si -5.77 -8.52 -2.38
Si  5.77  8.52  2.38
Si  0.91  7.72 -7.16
Si -0.91 -7.72  7.16
Si -5.96 -7.36  4.77
Si  5.96  7.36 -4.77
Si  5.98 -7.36  4.77
Si -5.98  7.36 -4.77
Si -0.84  7.81  7.16
Si  0.84 -7.81 -7.16
Si -1.48  7.72 -7.16
Si  1.48 -7.72  7.16
Si  4.69 -0.80 -9.54
Si -4.69  0.80  9.54
Si  1.54  7.81  7.16
Si -1.54 -7.81 -7.16
Si -0.17 -9.58  4.77
Si  0.17  9.58 -4.77
Si  3.85  3.02  9.54
Si -3.85 -3.02 -9.54
Si -10.30  1.86  2.38
Si 10.30 -1.86 -2.38
Si -4.86 -0.80 -9.54
Si  4.86  0.80  9.54
Si  7.99 -1.06  7.16
Si -7.99  1.06 -7.16
Si  6.17 -8.52 -2.38
Si -6.17  8.52  2.38
Si 10.57 -2.22  0.00
Si -10.57  2.22  0.00
Si  9.91  4.44  0.00
Si -9.91 -4.44  0.00
Si -5.22 -9.23  2.38
Si  5.22  9.23 -2.38
Si -9.47  4.79 -2.38
Si  9.47 -4.79  2.38
Si -0.44 -5.24 -9.54
Si  0.44  5.24  9.54
Si  2.22 -9.58  4.77
Si -2.22  9.58 -4.77
Si -6.45  8.87  0.00
Si  6.45 -8.87  0.00
Si  8.10 -7.01  2.38
Si -8.10  7.01 -2.38
Si -0.02 10.74  2.38
Si  0.02 -10.74 -2.38
Si  2.56  9.58 -4.77
Si -2.56 -9.58  4.77
Si  7.72  3.28 -7.16
Si -7.72 -3.28  7.16
Si -9.64 -4.79  2.38
Si  9.64  4.79 -2.38
Si  3.30  7.72 -7.16
Si -3.30 -7.72  7.16
Si  1.95 -5.24 -9.54
Si -1.95  5.24  9.54
Si  3.23 -7.81 -7.16
Si -3.23  7.81  7.16
Si -0.29 11.09  0.00
Si  0.29 -11.09  0.00
Si -8.90 -6.66  0.00
Si  8.90  6.66  0.00
Si -5.90  8.16  4.77
Si  5.90 -8.16 -4.77
Si 10.93  2.22  0.00
Si -10.93 -2.22  0.00
Si -4.50  3.64 -9.54
Si  4.50 -3.64  9.54
Si 10.11 -0.71  4.77
Si -10.11  0.71 -4.77
Si 10.02 -1.51 -4.77
Si -10.02  1.51  4.77
Si -3.87  7.72 -7.16
Si  3.87 -7.72  7.16
Si 10.65  2.57 -2.38
Si -10.65 -2.57  2.38
Si -0.74  5.85 -9.54
Si  0.74 -5.85  9.54
Si  6.05  8.16  4.77
Si -6.05 -8.16 -4.77
Si -10.19 -4.08 -2.38
Si 10.19  4.08  2.38
Si  6.70  5.50 -7.16
Si -6.70 -5.50  7.16
Si  2.83  5.24  9.54
Si -2.83 -5.24 -9.54
Si  2.37 10.74  2.38
Si -2.37 -10.74 -2.38
Si  2.41 -10.74 -2.38
Si -2.41 10.74  2.38
Si -2.09 -11.09  0.00
Si  2.09 11.09  0.00
Si  5.88 -1.42  9.54
Si -5.88  1.42 -9.54
Si  3.93  7.81  7.16
Si -3.93 -7.81 -7.16
Si  1.65  5.85 -9.54
Si -1.65 -5.85  9.54
Si  8.73  1.06 -7.16
Si -8.73 -1.06  7.16
Si  8.63  7.01 -2.38
Si -8.63 -7.01  2.38
Si -9.18 -6.30 -2.38
Si  9.18  6.30  2.38
Si -5.05 -3.64  9.54
Si  5.05  3.64 -9.54
Si -6.07 -1.42  9.54
Si  6.07  1.42 -9.54
Si 10.85 -2.57  2.38
