500
set: 1013.00  0.00  0.00
Si -0.40  1.26 -0.88
Si  0.42 -1.28  0.85
Si -1.30 -1.21 -0.88
Si  1.33  1.19  0.88
Si  2.17 -1.26 -0.79
Si -2.25  1.21  0.84
Si  0.82 -0.09 -2.56
Si -0.90  0.07  2.61
Si -3.15 -1.17  0.76
Si  3.19  1.22 -0.85
Si  0.01  2.50  2.53
Si -0.03 -2.51 -2.58
Si -2.67 -0.01 -2.51
Si  2.75 -0.01  2.50
Si  0.59  3.65 -0.88
Si -0.55 -3.67  0.88
Si  1.73 -2.39  2.58
Si -1.73  2.49 -2.50
Si -1.88 -2.36  2.53
Si  1.86  2.35 -2.58
Si  1.30 -3.64 -0.85
Si -1.27  3.69  0.76
Si  0.91 -0.08  4.13
Si  4.04 -1.17  0.76
Si -4.01  1.22 -0.85
Si -0.93  0.07 -4.18
Si  2.30  3.58  0.85
Si -2.28 -3.60 -0.88
Si  0.05  2.50 -4.10
Si  3.06 -3.65  0.84
Si -3.15  3.60 -0.79
Si -0.12 -2.52  4.16
Si  2.67  0.04 -4.13
Si  3.58 -2.37 -2.50
Si -2.67  0.06  4.21
Si -3.61 -2.37 -2.50
Si -3.58  2.46  2.58
Si -1.84 -2.36 -4.10
Si  3.62  2.46  2.58
Si  1.77  2.34  4.16
Si -4.45 -0.01  2.50
Si -1.72  2.42  4.20
Si  4.95  1.21  0.84
Si  4.53 -0.01 -2.51
Si  1.81 -2.44 -4.21
Si -5.03 -1.26 -0.79
Si  4.05  3.60 -0.79
Si -0.78  4.85 -2.51
Si  0.86 -4.86  2.50
Si -4.13 -3.65  0.84
Si  0.99  4.92  2.61
Si -1.06 -4.95 -2.56
Si -0.36  1.22  5.83
Si  0.39 -1.25 -5.83
Si -3.50  2.42 -4.21
Si -2.56  4.85  2.50
Si  3.59 -2.44  4.20
Si -5.87  1.19  0.88
Si -3.61 -2.44  4.20
Si  2.71  4.77 -2.56
Si  2.65 -4.87 -2.51
Si  5.90 -1.21 -0.88
Si -1.34 -1.17  5.83
Si  3.69  2.42 -4.21
Si  1.36  1.15 -5.86
Si -2.78 -4.79  2.61
Si -4.89  3.58  0.85
Si -4.53  0.04 -4.13
Si -0.36  6.07  0.84
Si  4.91 -3.60 -0.88
Si  0.28 -6.12 -0.79
Si  4.53  0.06  4.21
Si  5.32 -2.36  2.53
Si  1.49  6.12 -0.88
Si -1.47 -6.13  0.85
Si -5.34  2.35 -2.58
Si  2.24 -1.21  5.87
Si  0.79 -4.82 -4.13
Si  2.16 -6.03  0.76
Si -2.21  1.26 -5.95
Si -2.12  6.08 -0.85
Si -5.47 -2.39  2.58
Si -0.97 -4.94  4.13
Si  5.47  2.49 -2.50
Si -0.78  4.92  4.21
Si  0.95  4.93 -4.18
Si  3.11  1.17  5.92
Si -3.19 -1.22 -5.87
Si  6.30  0.07  2.61
Si -6.37 -0.09 -2.56
Si  3.22  6.04  0.88
Si  2.64 -4.80  4.21
Si  2.80  4.78  4.13
Si -3.19 -6.07 -0.88
Si  0.55  3.69  5.83
Si -2.64  4.89 -4.13
Si -0.53 -3.71 -5.86
Si -6.78 -1.28  0.85
Si -2.82 -4.79 -4.18
Si  6.80  1.26 -0.88
Si -5.90 -3.64 -0.85
Si  4.42 -4.79  2.61
Si  5.93  3.69  0.76
Si -1.30  3.63 -5.87
Si -4.49  4.77 -2.56
Si  1.22 -3.69  5.92
Si -4.55 -4.87 -2.51
Si  5.36 -2.36 -4.10
Si  4.64  4.85  2.50
Si  4.01 -1.22 -5.87
Si -5.43  2.34  4.16
Si  2.28  3.61 -5.83
Si -2.24 -3.64  5.83
Si -5.39 -2.44 -4.21
Si -4.09  1.17  5.92
Si -3.98  6.04  0.88
Si  5.48  2.42  4.20
Si  4.01 -6.07 -0.88
Si -6.28 -0.08  4.13
Si  6.26  0.07 -4.18
Si -3.07  3.65  5.87
Si -6.61  3.65 -0.88
Si  3.10 -3.60 -5.95
Si  6.64 -3.67  0.88
Si -4.40  4.78  4.13
Si -0.36  1.22 -7.59
Si -0.16 -7.25  2.58
Si  0.39 -1.24  7.59
Si  4.38 -4.79 -4.18
Si -7.59  1.26 -0.88
Si  0.16  7.34 -2.50
Si  7.62 -1.28  0.85
Si  1.36  1.15  7.57
Si -4.96 -1.21  5.87
Si -1.34 -1.17 -7.59
Si  1.70 -7.23 -2.50
Si -4.56 -4.80  4.21
Si  4.56  4.89 -4.13
Si  4.99  1.26 -5.95
Si -2.21  1.26  7.47
Si -5.04 -6.03  0.76
Si -1.70  7.32  2.58
Si  5.07  6.08 -0.85
Si  2.24 -1.21 -7.56
Si  1.90  7.36  2.53
Si -7.19  2.50  2.53
Si  7.17 -2.51 -2.58
Si  7.21  2.50  2.53
Si -1.92 -7.37 -2.58
Si  4.13  3.65  5.87
Si -4.10 -3.60 -5.95
Si -7.23 -2.51 -2.58
Si  3.11  1.17 -7.50
Si  6.14 -4.95 -2.56
Si -3.19 -1.22  7.55
Si -6.21  4.92  2.61
Si -5.84  1.15 -5.86
Si  5.86 -1.17  5.83
Si -6.33 -4.86  2.50
Si  3.43 -7.22  2.53
Si -3.45  7.21 -2.58
Si  0.17  7.28  4.20
Si -5.71  6.12 -0.88
Si -0.08 -7.29 -4.21
Si  8.02 -0.09 -2.56
Si  6.42  4.85 -2.51
Si  5.73 -6.13  0.85
Si -0.53 -3.71  7.57
Si -4.92  3.61 -5.83
Si  0.36 -6.07  5.87
Si  1.22 -3.69 -7.50
Si  0.55  3.69 -7.59
Si  4.96 -3.64  5.83
Si -1.30  3.64  7.55
Si -8.09  0.07  2.61
Si -3.76 -7.22  2.53
Si  3.74  7.21 -2.58
Si -0.33  6.12 -5.95
Si -0.59 -8.50 -0.85
Si  1.53  6.08  5.83
Si -1.62  7.28 -4.21
Si -1.50 -6.10 -5.83
Si -1.26  8.45 -0.79
Si  7.08 -2.52  4.16
Si  1.70 -7.30  4.20
Si  0.62  8.54  0.76
Si -7.15  2.50 -4.10
Si -7.75 -3.67  0.88
Si -4.09  1.17 -7.50
Si -8.50 -1.21 -0.88
Si  1.18 -8.51  0.84
Si  4.01 -1.22  7.55
Si  1.93  7.35 -4.10
Si  7.79  3.65 -0.88
Si  8.53  1.19  0.88
Si  7.25  2.50 -4.10
Si -2.00 -7.38  4.16
Si  2.28  3.61  7.59
Si -2.24 -3.64 -7.59
Si  2.12 -6.08 -5.87
Si -2.20  6.02  5.92
Si -7.32 -2.52  4.16
Si  3.10 -3.60  7.47
Si  2.47  8.51 -0.88
Si -2.44 -8.53  0.88
Si -3.07  3.65 -7.56
Si  6.22 -4.94  4.13
Si -3.23 -6.03  5.83
Si -6.25  4.93 -4.18
Si  3.25  6.01 -5.86
Si  3.47 -7.22 -4.10
Si -3.01  8.44  0.85
Si -6.41 -4.82 -4.13
Si  3.03 -8.46 -0.88
Si -3.54  7.20  4.16
Si -6.81 -1.25 -5.83
Si  4.99  1.26  7.47
Si  6.84  1.22  5.83
Si  5.89  3.63 -5.87
Si  3.65  7.20  4.16
Si -3.73 -7.22 -4.10
Si  8.11 -0.08  4.13
Si  6.42  4.92  4.21
Si -4.96 -1.21 -7.56
Si -8.13  0.07 -4.18
Si  6.84  6.07  0.84
Si -5.98 -3.69  5.92
Si -4.10 -3.60  7.47
Si -8.47  3.69  0.76
Si -6.92 -6.12 -0.79
Si -3.95  6.01 -5.86
Si  3.97 -6.03  5.83
Si  8.50 -3.64 -0.85
Si -0.93  0.07  9.24
Si  0.91 -0.08 -9.29
Si  4.13  3.65 -7.56
Si -5.30  7.36  2.53
Si -5.50 -7.23 -2.50
Si  5.28 -7.37 -2.58
Si  4.19  8.44  0.85
Si -4.17 -8.46 -0.88
Si  9.36 -1.26 -0.79
Si  5.50  7.32  2.58
Si -9.45  1.21  0.84
Si -6.65  3.69  5.83
Si -2.67  0.06 -9.22
Si  8.93 -2.39  2.58
Si -8.92  2.49 -2.50
Si -0.12 -2.52 -9.27
Si  6.67 -3.71 -5.86
Si -7.55  1.22  5.83
Si -5.84  1.15  7.57
Si  0.05  2.50  9.32
Si  7.59 -1.25 -5.83
Si  5.86 -1.17 -7.59
Si -0.33  6.12  7.47
Si  2.67  0.04  9.29
Si -7.98  4.85 -2.51
Si -1.72  2.42 -9.22
Si  7.48 -6.12 -0.79
Si  0.36 -6.07 -7.56
Si  1.81 -2.43  9.21
Si  9.05  2.35 -2.58
Si -9.07 -2.36  2.53
Si  1.77  2.34 -9.27
Si -7.56  6.07  0.84
Si -4.92  3.61  7.59
Si  8.06 -4.86  2.50
Si  4.96 -3.64 -7.59
Si -4.72  8.51 -0.88
Si -1.84 -2.36  9.32
Si  4.76 -8.53  0.88
Si  5.00  6.02  5.92
Si  1.53  6.08 -7.59
Si -1.50 -6.10  7.59
Si -5.08 -6.08 -5.87
Si -2.20  6.02 -7.50
Si  8.19  4.92  2.61
Si  2.12 -6.08  7.55
Si -5.26  7.35 -4.10
Si  5.19 -7.38  4.16
Si -8.26 -4.95 -2.56
Si -0.68  9.71  2.50
Si -5.50 -7.30  4.20
Si  0.76 -9.72 -2.51
Si  1.11  9.71 -2.51
Si -1.02 -9.72  2.50
Si  5.58  7.28 -4.21
Si -3.50  2.42  9.21
Si -8.92  2.42  4.20
Si -5.67  6.08  5.83
Si  8.97  2.34  4.16
Si -9.86 -0.01 -2.51
Si -9.48 -3.60 -0.88
Si  5.70 -6.10 -5.83
Si  9.50  3.58  0.85
Si  3.59 -2.44 -9.22
Si  3.25  6.01  7.57
Si -3.61 -2.44 -9.22
Si -9.04 -2.36 -4.10
Si  7.98 -4.82 -4.13
Si -3.23 -6.03 -7.59
Si  3.69  2.42  9.21
Si  9.00 -2.44 -4.21
Si  5.89  3.64  7.55
Si  9.95 -0.01  2.50
Si  4.53  0.06 -9.22
Si -6.81 -1.24  7.59
Si -7.98  4.92  4.21
Si -5.98 -3.69 -7.50
Si  6.84  1.22 -7.59
Si -2.60  9.63 -2.56
Si  2.53 -9.65  2.61
Si -4.53  0.04  9.29
Si  0.58  8.49 -5.87
Si  5.94  8.45 -0.79
Si  7.74  3.69  5.83
Si -7.72 -3.71 -5.86
Si -1.18  8.51  5.87
Si -8.17 -4.94  4.13
Si  8.15  4.93 -4.18
Si -8.54 -1.17  5.83
Si  1.21 -8.46 -5.95
Si -0.67 -8.55  5.92
Si  7.04 -7.25  2.58
Si  8.56  1.15 -5.86
Si -3.95  6.01  7.57
Si -10.35 -1.17  0.76
Si -6.02 -8.51  0.84
Si  3.97 -6.03 -7.59
Si -0.78  4.92 -9.22
Si -7.04  7.34 -2.50
Si 10.38  1.22 -0.85
Si  0.79 -4.82  9.29
Si  0.95  4.93  9.24
Si  2.88  9.78  2.61
Si -2.95 -9.80 -2.56
Si  0.76 -9.66  4.21
Si -0.97 -4.94 -9.29
Si -1.10 -9.68 -4.13
Si -0.75  9.75 -4.13
Si  2.43  8.55  5.83
Si -7.36 -7.25  2.58
Si -2.41 -8.56 -5.86
Si -8.67 -6.13  0.85
Si  8.69  6.12 -0.88
Si  7.36  7.34 -2.50
Si  1.10  9.77  4.21
Si  9.87  0.04 -4.13
Si  2.64 -4.80 -9.22
Si -3.04  8.47 -5.83
Si -9.87  0.06  4.21
Si -6.65  3.69 -7.59
Si  6.67 -3.71  7.57
Si  3.07 -8.49  5.83
Si -7.55  1.22 -7.59
Si -2.82 -4.79  9.24
Si -2.51  9.64  4.13
Si  6.61 -8.50 -0.85
Si  7.59 -1.24  7.59
Si  2.49 -9.64 -4.18
Si -6.58  8.54  0.76
Si  2.80  4.78 -9.29
Si -2.64  4.89  9.29
Si  5.00  6.02 -7.50
Si -0.90  0.07 -10.81
Si -6.84 -6.07  5.87
Si  0.82 -0.09 10.87
Si  0.27 -10.89  0.76
Si 10.26 -3.65  0.84
Si  8.42 -3.69  5.92
Si -5.08 -6.08  7.55
Si -5.39 -2.43  9.21
Si -8.50  3.63 -5.87
Si -7.03  7.28  4.20
Si  6.87  6.12 -5.95
Si  4.60  9.63 -2.56
Si -0.24 10.94 -0.85
Si -10.34  3.60 -0.79
Si  4.25 -9.80 -2.56
Si -5.43  2.34 -9.27
Si  5.48  2.42 -9.22
Si  5.36 -2.36  9.32
Si -2.86 -9.79  4.13
Si -4.32  9.78  2.61
Si  2.84  9.79 -4.18
Si  7.12 -7.29 -4.21
Si -4.67 -9.65  2.61
Si  1.52 10.92  0.84
Si  4.16  8.47 -5.83
Si -4.13 -8.49  5.83
Si -1.61 -10.98 -0.79
Si -0.03 -2.51 10.84
Si -7.28 -7.29 -4.21
Si -2.09 10.90  0.88
Si  9.35 -6.03  0.76
Si -9.32  6.08 -0.85
Si  6.26  0.07  9.24
Si  2.12 -10.92 -0.88
Si  7.36  7.28  4.20
Si  0.01  2.50 -10.89
Si  9.44 -1.21  5.87
Si -9.76  4.85  2.50
Si -9.41  1.26 -5.95
Si -6.28 -0.08 -9.29
Si -2.67 -0.01 10.91
Si  1.73 -2.39 -10.84
Si  1.86  2.35 10.84
Si -5.67  6.08 -7.59
Si  2.75 -0.01 -10.92
Si  9.84 -4.87 -2.51
Si  5.70 -6.10  7.59
Si  4.38 -4.79  9.24
Si  9.91  4.77 -2.56
Si -1.88 -2.36 -10.89
Si -11.21  1.22 -0.85
Si 10.78 -2.37 -2.50
Si  7.55 -6.07  5.87
Si 11.24 -1.17  0.76
Si -1.73  2.49 10.91
Si -4.40  4.78 -9.29
Si -4.56 -4.80 -9.22
Si -10.81 -2.37 -2.50
Si  1.21 -8.46  7.47
Si -10.78  2.46  2.58
Si -9.98 -4.79  2.61
Si -7.52  6.12 -5.95
Si  0.58  8.49  7.55
Si 10.81  2.46  2.58
Si -4.76  8.55  5.83
Si -0.67 -8.55 -7.50
Si  4.79 -8.56 -5.86
Si -7.72 -3.71  7.57
Si -1.18  8.51 -7.56
Si  4.56  4.89  9.29
Si  7.74  3.69 -7.59
Si  8.56  1.15  7.57
Si  4.34 -9.79  4.13
Si -8.54 -1.17 -7.59
Si  4.69  9.64  4.13
Si -4.36  9.79 -4.18
Si  3.38 10.97 -0.88
Si -4.71 -9.64 -4.18
Si -3.36 -10.99  0.85
Si -7.79 -8.50 -0.85
Si  7.82  8.54  0.76
Si -3.82 10.97 -0.88
Si  3.84 -10.99  0.85
Si -9.44 -3.64  5.83
Si -2.41 -8.56  7.57
Si -3.58  2.46 -10.84
Si  2.43  8.55 -7.59
Si  3.62  2.46 -10.84
Si  9.47  3.61 -5.83
Si  9.84 -4.80  4.21
Si -6.09  9.71 -2.51
Si  3.58 -2.37 10.91
Si  8.90 -7.23 -2.50
Si -9.84  4.89 -4.13
Si -3.61 -2.37 10.91
Si  0.17  7.28 -9.22
Si -0.08 -7.29  9.21
Si -10.70  2.42 -4.21
Si -3.04  8.47  7.59
Si  6.17 -9.72  2.50
Si -4.45 -0.01 -10.92
Si  3.07 -8.49 -7.59
Si -8.89  7.32  2.58
Si  4.53 -0.01 10.91
Si 10.00  4.78  4.13
Si 10.79 -2.44  4.20
Si 11.25  3.60 -0.79
Si -10.81 -2.44  4.20
Si  6.87  6.12  7.47
Si -1.62  7.28  9.21
Si -6.84 -6.07 -7.56
Si -10.02 -4.79 -4.18
Si  8.42 -3.69 -7.50
Si  1.70 -7.30 -9.22
Si -11.65 -0.01  2.50
Si  0.99  4.92 -10.81
Si 10.89  2.42 -4.21
Si  7.08 -2.52 -9.27
Si -6.44 -9.72 -2.51
Si -11.33 -3.65  0.84
Si -8.50  3.64  7.55
Si 10.31  1.17  5.92
Si -5.99 -8.46 -5.95
Si  6.02  8.51  5.87
Si  6.52  9.71  2.50
Si -0.78  4.85 10.91
Si  9.09  7.36  2.53
Si  8.37 -8.51  0.84
Si -8.46  8.45 -0.79
Si  0.86 -4.86 -10.92
Si -1.06 -4.95 10.87
Si -10.39 -1.22 -5.87
Si 11.73 -0.01 -2.51
Si -9.11 -7.37 -2.58
Si -7.15  2.50  9.32
