500
set: 864.00  0.00  0.00
Si  0.37 -1.20  0.79
Si -0.42  1.25 -0.79
Si  1.42  1.22  0.85
Si -1.45 -1.25 -0.84
Si -0.86 -0.01  2.52
Si  0.87  0.09 -2.56
Si  2.26 -1.25 -0.84
Si -2.29  1.21  0.85
Si -0.03 -2.42 -2.55
Si  3.21  1.23 -0.86
Si -3.22 -1.30  0.83
Si  0.04  2.45  2.62
Si  2.70  0.04  2.54
Si -0.49 -3.62  0.82
Si -2.75 -0.03 -2.56
Si  0.55  3.67 -0.85
Si  1.70 -2.45  2.46
Si -1.76  2.36 -2.56
Si  1.88  2.44 -2.52
Si -1.24  3.70  0.89
Si -1.84 -2.47  2.56
Si  1.27 -3.72 -0.90
Si -4.02  1.25 -0.80
Si  4.01 -1.22  0.90
Si -0.88 -0.01 -4.20
Si  0.87  0.01  4.24
Si -2.31 -3.68 -0.85
Si  2.37  3.73  0.82
Si -2.99  3.65 -0.83
Si  3.11 -3.65  0.82
Si  0.05  2.52 -4.20
Si -0.09 -2.49  4.26
Si -2.77  0.01  4.18
Si -3.58  2.47  2.52
Si  2.75 -0.05 -4.21
Si -3.64 -2.43 -2.56
Si  3.63 -2.50 -2.54
Si  3.70  2.50  2.50
Si  1.71 -2.44 -4.20
Si -4.54  0.05  2.47
Si -1.83 -2.42 -4.19
Si  4.98  1.23  0.81
Si -4.97 -1.26 -0.84
Si  4.56 -0.05 -2.53
Si  1.92  2.45  4.19
Si -1.79  2.42  4.27
Si  0.83 -4.86  2.50
Si -4.10 -3.65  0.89
Si  4.14  3.63 -0.90
Si -0.98 -4.91 -2.52
Si -0.78  4.92 -2.56
Si  1.03  4.88  2.56
Si -3.59  2.44 -4.18
Si  3.54 -2.41  4.25
Si  2.63 -4.87 -2.49
Si -5.89  1.23  0.81
Si  0.48 -1.23 -5.94
Si -0.40  1.26  5.94
Si  5.90 -1.26 -0.84
Si  3.63  2.48 -4.23
Si -0.35  6.05  0.83
Si -3.71 -2.50  4.20
Si  1.34  1.18 -5.87
Si -2.60  4.95  2.56
Si  4.50 -0.04  4.24
Si -4.53 -0.01 -4.22
Si -4.89  3.70  0.82
Si -1.38 -1.16  5.92
Si  0.34 -6.12 -0.86
Si -2.82 -4.90  2.62
Si  2.83  4.93 -2.55
Si  5.01 -3.70 -0.83
Si  1.41  6.10 -0.84
Si -1.44 -6.13  0.85
Si  2.19 -1.20  5.89
Si -5.38  2.49 -2.49
Si  5.40 -2.40  2.56
Si -2.27  1.18 -5.92
Si -0.84  4.86  4.20
Si -5.46 -2.40  2.56
Si  0.76 -4.87 -4.23
Si -2.10  6.09 -0.84
Si -0.95 -4.90  4.19
Si  5.49  2.49 -2.49
Si  2.12 -6.13  0.81
Si  1.04  4.94 -4.19
Si  6.33  0.05  2.47
Si -6.31 -0.05 -2.53
Si -3.23 -1.26 -5.86
Si  3.14  1.24  5.93
Si -0.56 -3.67 -5.89
Si -3.28 -6.10 -0.79
Si -5.86 -3.70 -0.83
Si  2.67 -4.91  4.18
Si  3.24  6.15  0.79
Si  0.55  3.67  5.93
Si -2.81 -4.83 -4.20
Si -2.66  4.89 -4.24
Si -4.37  4.86 -2.54
Si  6.85  1.25 -0.80
Si -6.86 -1.22  0.90
Si  2.77  4.86  4.26
Si  4.43 -4.88  2.52
Si  5.97  3.70  0.82
Si  1.31 -3.73  5.92
Si -1.33  3.69 -5.95
Si  4.56  4.90  2.46
Si -5.34  2.44  4.18
Si  5.35 -2.46 -4.24
Si -4.09  1.21  5.89
Si -4.63 -4.99 -2.56
Si  2.30  3.69 -5.89
Si  4.10 -1.24 -5.95
Si  3.99 -6.10 -0.80
Si  5.53  2.44  4.18
Si -2.31 -3.69  5.93
Si -3.99  6.13  0.90
Si -5.52 -2.46 -4.24
Si  3.07 -3.72 -5.89
Si  6.34 -0.01 -4.22
Si -3.10  3.66  5.91
Si -6.37 -0.04  4.24
Si -0.41  1.20 -7.57
Si -6.73  3.63 -0.90
Si  0.45 -1.23  7.61
Si -1.39 -1.23 -7.51
Si  6.76 -3.65  0.89
Si -0.17 -7.31  2.54
Si  0.12  7.33 -2.56
Si  7.65 -1.30  0.83
Si -7.66  1.23 -0.86
Si  1.40  1.25  7.58
Si  4.98  1.26 -5.88
Si  4.41 -4.91 -4.18
Si -5.02 -1.23  5.95
Si -4.46  4.94  4.25
Si  4.58  4.91 -4.20
Si -1.99 -7.27 -2.56
Si -1.67  7.40  2.47
Si -2.21  1.25  7.57
Si -7.17  2.50  2.50
Si  1.69 -7.41 -2.53
Si  5.12  6.10 -0.84
Si -4.66 -4.93  4.27
Si  2.00  7.34  2.52
Si  7.22 -2.43 -2.56
Si  2.27 -1.18 -7.63
Si -5.15 -6.14  0.85
Si -7.23 -2.50 -2.54
Si  4.18  3.62  5.92
Si  7.29  2.47  2.52
Si -4.20 -3.66 -5.95
Si -3.19 -1.32  7.57
Si -6.31  4.90  2.46
Si  3.13  1.23 -7.67
Si -0.56 -3.59  7.56
Si  6.24 -4.99 -2.56
Si -5.89  1.26 -5.88
Si -5.75  6.10 -0.84
Si  5.85 -1.23  5.95
Si  5.72 -6.14  0.85
Si  3.47 -7.30  2.47
Si -3.45  7.30 -2.53
Si -0.36  6.09 -5.86
Si  0.57  3.67 -7.60
Si -6.44 -4.88  2.52
Si  0.10  7.37  4.18
Si -4.94  3.63 -5.89
Si  6.50  4.86 -2.54
Si -1.31  3.65  7.57
Si  1.26 -3.64 -7.58
Si  8.12 -0.03 -2.56
Si -0.12 -7.40 -4.21
Si  0.28 -6.12  5.93
Si  4.91 -3.69  5.91
Si -8.17  0.04  2.54
Si -7.76 -3.65  0.82
Si  0.58  8.56  0.85
Si -1.67  7.34 -4.22
Si -3.73 -7.36  2.52
Si -1.52 -6.17 -5.87
Si -0.61 -8.60 -0.84
Si -4.03  1.27 -7.57
Si  7.16 -2.50  4.20
Si  1.63 -7.39  4.24
Si  1.99  7.34 -4.20
Si  1.15 -8.57  0.90
Si  1.48  6.20  5.92
Si -1.99 -7.34  4.24
Si  8.58  1.21  0.85
Si  3.74  7.44 -2.56
Si -1.15  8.60 -0.80
Si  7.87  3.65 -0.83
Si  2.11 -6.09 -5.88
Si  4.06 -1.19  7.63
Si -8.61 -1.25 -0.84
Si  7.28  2.44 -4.18
Si -7.24  2.48 -4.23
Si -2.30 -3.68 -7.60
Si  2.31  3.76  7.56
Si -2.16  6.12  5.95
Si -7.32 -2.41  4.25
Si -2.49 -8.56  0.79
Si  2.44  8.60 -0.79
Si  6.21 -4.93  4.27
Si -6.29  4.91 -4.20
Si  3.12 -3.73  7.60
Si  6.78  1.21  5.89
Si -3.10  3.72 -7.66
Si -6.77 -1.24 -5.95
Si -3.26 -6.09  5.94
Si  5.93  3.63 -5.89
Si  8.10  0.01  4.18
Si -6.45 -4.91 -4.18
Si -3.02  8.58  0.81
Si  6.41  4.94  4.25
Si -3.51  7.31  4.24
Si -8.12 -0.05 -4.21
Si  3.35  6.13 -5.94
Si  3.04 -8.61 -0.84
Si  3.47 -7.36 -4.22
Si -5.96 -3.69  5.91
Si -5.01 -1.20 -7.61
Si  5.07  1.18  7.58
Si -6.88 -6.10 -0.80
Si  6.88  6.13  0.90
Si -3.74 -7.36 -4.20
Si  3.73  7.36  4.24
Si -0.88 -0.01  9.28
Si -8.50  3.73  0.82
Si  8.56 -3.68 -0.85
Si  0.94  0.06 -9.31
Si  3.92 -6.14  5.89
Si -3.91  6.11 -5.95
Si  4.13  3.71 -7.58
Si -4.18 -3.70  7.57
Si  5.26 -7.38 -2.56
Si -5.31  7.39  2.54
Si  9.42 -1.25 -0.84
Si -9.45  1.22  0.85
Si  5.56  7.39  2.54
Si -0.02  2.42  9.28
Si -0.01 -2.45 -9.28
Si -5.61 -7.38 -2.56
Si  2.71 -0.04  9.23
Si -2.67  0.02 -9.24
Si -5.80  1.18  7.58
Si  4.28  8.57  0.85
Si -6.69  3.62  5.92
Si -8.99  2.44 -2.52
Si  6.67 -3.66 -5.95
Si -4.32 -8.60 -0.84
Si  5.86 -1.20 -7.61
Si -0.33  6.04  7.57
Si  9.03 -2.47  2.56
Si  7.64 -1.26 -5.86
Si -4.88  3.62  7.60
Si  9.11  2.36 -2.56
Si  1.78 -2.45  9.27
Si -1.79  2.38 -9.29
Si  7.58 -6.10 -0.79
Si -8.04  4.93 -2.55
Si  8.05 -4.90  2.62
Si  4.90 -3.63 -7.66
Si  1.48  6.12 -7.51
Si -9.17 -2.45  2.46
Si -7.72  1.24  5.93
Si  0.27 -6.13 -7.67
Si -1.85 -2.43  9.34
Si  1.80  2.47 -9.33
Si -7.63  6.15  0.79
Si -1.47 -6.10  7.58
Si -4.80  8.58 -0.86
Si -8.24 -4.87 -2.49
Si  5.06  6.16  5.89
Si  4.79 -8.65  0.83
Si -5.26  7.30 -4.21
Si  5.24 -7.34  4.18
Si  8.27  4.95  2.56
Si -5.14 -6.17 -5.92
Si -2.15  6.15 -7.61
Si  2.20 -6.17  7.58
Si  1.10  9.71 -2.56
Si  5.61  7.30 -4.21
Si -5.63 -7.34  4.18
Si -0.71  9.82  2.52
Si -1.17 -9.80  2.46
Si -8.95  2.45  4.19
Si  0.77 -9.85 -2.54
Si -3.54  2.42  9.29
Si  9.04 -2.42 -4.19
Si  3.55 -2.45 -9.32
Si  6.83  1.27 -7.57
Si -3.27 -6.15 -7.57
Si  3.69  2.43  9.29
Si  8.05 -4.83 -4.20
Si -3.72 -2.47 -9.27
Si -4.43 -0.02  9.29
Si  5.73 -6.17 -5.92
Si -6.81 -1.19  7.63
Si  3.31  6.12  7.61
Si -5.81  6.16  5.89
Si  9.07  2.42  4.27
Si 10.00 -0.01  2.52
Si -9.99  0.09 -2.56
Si -9.59 -3.72 -0.90
Si  5.99  3.62  7.60
Si  4.54  0.03 -9.30
Si  9.63  3.70  0.89
Si -8.09  4.86  4.26
Si -5.97 -3.63 -7.66
Si -9.16 -2.44 -4.20
Si  2.54 -9.75  2.56
Si  0.59  8.53 -5.92
Si -0.67 -8.55  5.89
Si  7.77  3.66  5.91
Si -8.20 -4.91  4.18
Si -2.51  9.84 -2.49
Si  8.21  4.89 -4.24
Si -7.80 -3.72 -5.89
Si -1.22  8.57  5.89
Si  3.97 -6.08 -7.57
Si  8.59  1.18 -5.92
Si -2.90 -9.77 -2.55
Si -0.85  4.89 -9.27
Si  1.23 -8.59 -5.95
Si  0.82 -4.92  9.29
Si  6.07  8.58 -0.86
Si  2.91  9.80  2.62
Si 10.45  1.25 -0.79
Si -8.67 -1.20  5.89
Si  7.14 -7.36  2.52
Si -3.94  6.16  7.63
Si -1.06 -4.88 -9.33
Si -10.50 -1.20  0.79
Si  1.01  4.92  9.34
Si -6.08 -8.65  0.83
Si -7.13  7.44 -2.56
Si  0.68 -9.77  4.25
Si -0.73  9.80 -4.18
Si -7.40 -7.30  2.47
Si -2.38 -8.58 -5.94
Si  8.76  6.09 -0.84
Si  7.42  7.30 -2.53
Si -8.75 -6.13  0.81
Si  1.07  9.77  4.27
Si -1.15 -9.79 -4.20
Si  2.47  8.61  5.94
Si  6.69 -3.70  7.57
Si  2.58 -4.89 -9.23
Si -6.74  3.71 -7.58
Si  9.99 -0.01 -4.20
Si -6.58  8.57  0.85
Si  6.55 -8.60 -0.84
Si  7.67 -1.32  7.57
Si  2.98 -8.58  5.95
Si -10.00  0.01  4.24
Si -3.03  8.61 -5.88
Si -2.58  4.93  9.33
Si  2.85  4.90 -9.28
Si -2.88 -4.93  9.28
Si -2.48  9.79  4.18
Si -7.74  1.23 -7.67
Si -5.07 -6.10  7.57
Si  2.48 -9.81 -4.24
Si -10.31  3.67 -0.85
Si -6.95 -6.14  5.89
Si -5.42  2.46 -9.23
Si  0.94  0.06 10.95
Si  5.44  2.46 -9.23
Si  4.36 -9.78 -2.56
Si  6.96  6.11 -5.95
Si -0.88 -0.01 -10.98
Si 10.37 -3.62  0.82
Si -8.56  3.69 -5.89
Si -4.30  9.85  2.50
Si  0.25 -11.00  0.82
Si -0.13 11.01 -0.83
Si  8.56 -3.69  5.93
Si  5.42 -2.42  9.33
Si  7.13 -7.36 -4.20
Si -5.45 -2.42  9.33
Si  5.13  6.17 -7.63
Si -7.13  7.36  4.24
Si  2.91  9.87 -4.20
Si -2.95 -9.85  4.26
Si  4.75  9.79 -2.52
Si  4.21  8.53 -5.87
Si -4.70 -9.82  2.56
Si -4.25 -8.51  5.92
Si  1.62 11.05  0.89
Si  7.36  7.31  4.24
Si -1.59 -11.07 -0.90
Si -0.02  2.42 -10.97
Si  9.48 -1.16  5.92
Si -0.01 -2.45 10.97
Si -6.33  0.03 -9.30
Si -9.53  1.18 -5.87
Si -7.39 -7.36 -4.22
Si -2.03 11.05  0.82
Si  9.42 -6.13  0.85
Si -9.84  4.88  2.56
Si -9.46  6.10 -0.84
Si  2.15 -11.05 -0.83
Si  6.44 -0.02  9.29
Si  5.79 -6.10  7.57
Si  9.89 -4.91 -2.52
Si -2.67  0.02 11.01
Si 11.24 -1.20  0.79
Si -1.85 -2.43 -10.92
Si  1.80  2.47 10.92
Si  2.71 -0.04 -11.02
Si -1.79  2.38 10.96
Si -5.74  6.17 -7.63
Si -7.52  6.13 -5.94
Si -11.29  1.25 -0.79
Si 10.84 -2.42 -2.55
Si  1.78 -2.45 -10.98
Si -10.82  2.45  2.62
Si  7.61 -6.09  5.94
Si -10.03 -4.86  2.50
Si  4.47 -4.93  9.29
Si -4.46  4.90 -9.32
Si -10.90 -2.42 -2.55
Si  4.78 -8.61 -5.86
Si -0.60 -8.53 -7.63
Si  4.64  4.91  9.27
Si -7.74 -3.73  7.60
Si  0.65  8.60  7.57
Si 10.91  2.45  2.62
Si -3.36 -10.97  0.82
Si -4.86  8.59  5.93
Si 10.09  4.92 -2.56
Si  1.20 -8.54  7.63
Si  7.76  3.72 -7.66
Si -4.65 -4.97 -9.29
Si -1.17  8.63 -7.57
Si  4.30 -9.85  4.20
Si -8.60 -1.18 -7.63
Si -4.38  9.83 -4.23
Si  8.66  1.25  7.57
Si  3.42 11.02 -0.85
Si -4.69 -9.77 -4.19
Si  7.84  8.58  0.81
Si -7.83 -8.61 -0.84
Si -3.87 10.99 -0.90
Si  2.46  8.55 -7.57
Si  4.78  9.80  4.19
Si  3.90 -11.00  0.89
Si -2.41 -8.58  7.61
Si  3.55 -2.45 10.93
Si  8.88 -7.27 -2.56
Si -9.83  4.94 -4.19
Si -3.54  2.42 -10.97
Si -2.94  8.53  7.58
Si -8.87  7.34  2.52
Si -4.43 -0.02 -10.96
Si -6.12  9.79 -2.52
Si  3.69  2.43 -10.97
Si  0.19  7.38 -9.24
Si -0.16 -7.39  9.23
Si  9.53  3.69 -5.95
Si  9.92 -4.90  4.19
Si  3.00 -8.56 -7.61
Si -9.55 -3.73  5.92
Si -3.72 -2.47 10.98
Si 10.78 -2.49  4.26
Si  4.54  0.03 10.95
Si -10.82  2.52 -4.20
Si  6.17 -9.82  2.56
Si 10.03  4.86  4.20
Si -6.90 -6.08 -7.57
Si -1.56  7.33  9.29
Si -11.36 -3.62  0.82
Si  1.68 -7.33 -9.30
Si  7.15 -2.47 -9.27
Si 10.92  2.52 -4.20
Si -1.93 -7.29 -9.31
Si -7.18  2.43  9.29
Si -10.11 -4.87 -4.23
Si  1.99  7.34  9.28
Si  8.38 -8.56  0.79
Si -11.73 -0.01  2.52
Si -1.06 -4.88 10.92
Si  6.92  6.16  7.63
Si -10.96 -2.49  4.26
Si 11.74  0.09 -2.56
Si  1.01  4.92 -10.92
Si -6.51 -9.78 -2.56
Si -10.38 -1.23 -5.94
Si -8.56  3.76  7.56
Si 11.42  3.67 -0.85
Si  8.57 -3.68 -7.60
Si  6.01  8.59  5.93
Si  0.82 -4.92 -10.97
Si -0.85  4.89 10.98
Si  9.20  7.40  2.47
Si -9.18 -7.41 -2.53
Si -6.09 -8.61 -5.86
Si -8.42  8.60 -0.79
