500
set: 90.00  0.00  0.00
Si  0.00  0.00  0.00
Si -0.07 -0.36 -2.32
Si  0.07  0.36  2.32
Si -1.28 -2.02  0.00
Si  1.28  2.02  0.00
Si -1.35  2.02  0.00
Si  1.35 -2.02  0.00
Si  2.63  0.00  0.00
Si -2.63  0.00  0.00
Si -1.22 -1.66  2.32
Si  1.22  1.66 -2.32
Si  1.41 -1.66  2.32
Si -1.41  1.66 -2.32
Si  2.56 -0.36 -2.32
Si -2.56  0.36  2.32
Si -1.28  2.38  2.32
Si  1.28 -2.38 -2.32
Si  2.69  0.36  2.32
Si -2.69 -0.36 -2.32
Si  1.35  2.38  2.32
Si -1.35 -2.38 -2.32
Si -0.07  4.04  0.00
Si  0.07 -4.04  0.00
Si  0.13 -3.67  2.32
Si -0.13  3.67 -2.32
Si -3.91 -2.02  0.00
Si  3.91  2.02  0.00
Si -3.98  2.02  0.00
Si  3.98 -2.02  0.00
Si -0.13 -0.72 -4.63
Si  0.13  0.72  4.63
Si  2.56  4.04  0.00
Si -2.56 -4.04  0.00
Si  3.85  1.66 -2.32
Si -3.85 -1.66  2.32
Si  2.70 -4.04  0.00
Si -2.70  4.04  0.00
Si  4.04 -1.66  2.32
Si -4.04  1.66 -2.32
Si -1.15 -1.29  4.63
Si  1.15  1.29 -4.63
Si  0.00 -4.40 -2.32
Si -0.00  4.40  2.32
Si -2.50 -3.67  2.32
Si  2.50  3.67 -2.32
Si -1.48  1.29 -4.63
Si  1.48 -1.29  4.63
Si  3.91 -2.38 -2.32
Si -3.91  2.38  2.32
Si  2.76 -3.67  2.32
Si -2.76  3.67 -2.32
Si  3.98  2.38  2.32
Si -3.98 -2.38 -2.32
Si  5.26  0.00  0.00
Si -5.26  0.00  0.00
Si  2.50 -0.72 -4.63
Si -2.50  0.72  4.63
Si -2.76 -0.72 -4.63
Si  2.76  0.72  4.63
Si  1.22 -2.74 -4.63
Si -1.22  2.74  4.63
Si -1.41 -2.74 -4.63
Si  1.41  2.74  4.63
Si  2.63  4.40  2.32
Si -2.63 -4.40 -2.32
Si -2.63  4.40  2.32
Si  2.63 -4.40 -2.32
Si  5.20 -0.36 -2.32
Si -5.20  0.36  2.32
Si -0.20  3.31 -4.63
Si  0.20 -3.31  4.63
Si -5.33 -0.36 -2.32
Si  5.33  0.36  2.32
Si  3.78  1.29 -4.63
Si -3.78 -1.29  4.63
Si -1.22 -6.05  0.00
Si  1.22  6.05  0.00
Si -2.43 -3.31  4.63
Si  2.43  3.31 -4.63
Si  1.42 -6.05  0.00
Si -1.42  6.05  0.00
Si -1.15 -5.69  2.32
Si  1.15  5.69 -2.32
Si  1.48 -5.69  2.32
Si -1.48  5.69 -2.32
Si -4.11  1.29 -4.63
Si  4.11 -1.29  4.63
Si  2.83 -3.31  4.63
Si -2.83  3.31 -4.63
Si  5.19  4.04  0.00
Si -5.19 -4.04  0.00
Si  3.85 -2.74 -4.63
Si -3.85  2.74  4.63
Si -0.06 -4.76 -4.63
Si  0.06  4.76  4.63
Si  5.33 -4.04  0.00
Si -5.33  4.04  0.00
Si -5.13 -3.67  2.32
Si  5.13  3.67 -2.32
Si  4.04  2.74  4.63
Si -4.04 -2.74 -4.63
Si -6.54 -2.02  0.00
Si  6.54  2.02  0.00
Si  6.61 -2.02  0.00
Si -6.61  2.02  0.00
Si -5.39  3.67 -2.32
Si  5.39 -3.67  2.32
Si -1.28 -6.42 -2.32
Si  1.28  6.42  2.32
Si -5.13  0.72  4.63
Si  5.13 -0.72 -4.63
Si -1.35  6.42  2.32
Si  1.35 -6.42 -2.32
Si -0.20 -1.09 -6.95
Si  0.20  1.09  6.95
Si  6.48  1.66 -2.32
Si -6.48 -1.66  2.32
Si -1.09 -0.93  6.95
Si  1.09  0.93 -6.95
Si  2.57 -4.76 -4.63
Si -2.57  4.76  4.63
Si  5.39  0.72  4.63
Si -5.39 -0.72 -4.63
Si -1.08 -5.33  4.63
Si  1.08  5.33 -4.63
Si  2.69  4.76  4.63
Si -2.69 -4.76 -4.63
Si  3.84  6.05  0.00
Si -3.84 -6.05  0.00
Si  1.54 -0.93  6.95
Si -1.54  0.93 -6.95
Si  3.78  5.69 -2.32
Si -3.78 -5.69  2.32
Si -1.54  5.33 -4.63
Si  1.54 -5.33  4.63
Si -5.26 -4.40 -2.32
Si  5.26  4.40  2.32
Si  5.26 -4.40 -2.32
Si -5.26  4.40  2.32
Si -6.67  1.66 -2.32
Si  6.67 -1.66  2.32
Si  4.04 -6.05  0.00
Si -4.04  6.05  0.00
Si -6.54  2.38  2.32
Si  6.54 -2.38 -2.32
Si -4.11  5.69 -2.32
Si  4.11 -5.69  2.32
Si -6.61 -2.38 -2.32
Si  6.61  2.38  2.32
Si  2.44 -1.09 -6.95
Si -2.44  1.09  6.95
Si  0.26 -2.95  6.95
Si -0.26  2.95 -6.95
Si  2.83  1.09  6.95
Si -2.83 -1.09 -6.95
Si -5.06 -3.31  4.63
Si  5.06  3.31 -4.63
Si -1.15  3.11  6.95
Si  1.15 -3.11 -6.95
Si -1.48 -3.11 -6.95
Si  1.48  3.11  6.95
Si  3.91  6.42  2.32
Si -3.91 -6.42 -2.32
Si -5.46  3.31 -4.63
Si  5.46 -3.31  4.63
Si -7.89  0.00  0.00
Si  7.89  0.00  0.00
Si -3.98  6.42  2.32
Si  3.98 -6.42 -2.32
Si  2.37  2.95 -6.95
Si -2.37 -2.95  6.95
Si  3.72  0.93 -6.95
Si -3.72 -0.93  6.95
Si  3.71  5.33 -4.63
Si -3.71 -5.33  4.63
Si -6.41 -1.29  4.63
Si  6.41  1.29 -4.63
Si -0.20  7.71 -2.32
Si  0.20 -7.71  2.32
Si  0.13 -8.07  0.00
Si -0.13  8.07  0.00
Si -2.89  2.95 -6.95
Si  2.89 -2.95  6.95
Si  4.17 -0.93  6.95
Si -4.17  0.93 -6.95
Si  7.83 -0.36 -2.32
Si -7.83  0.36  2.32
Si -4.17  5.33 -4.63
Si  4.17 -5.33  4.63
Si  6.74 -1.29  4.63
Si -6.74  1.29 -4.63
Si -7.96 -0.36 -2.32
Si  7.96  0.36  2.32
Si -1.28  6.78  4.63
Si  1.28 -6.78 -4.63
Si -1.34 -6.78 -4.63
Si  1.34  6.78  4.63
Si -2.43 -7.71  2.32
Si  2.43  7.71 -2.32
Si -6.48  2.74  4.63
Si  6.48 -2.74 -4.63
Si  5.20 -4.76 -4.63
Si -5.20  4.76  4.63
Si -2.50 -8.07  0.00
Si  2.50  8.07  0.00
Si  3.78 -3.11 -6.95
Si -3.78  3.11  6.95
Si  5.32  4.76  4.63
Si -5.32 -4.76 -4.63
Si -2.76  8.07  0.00
Si  2.76 -8.07  0.00
Si  2.83 -7.71  2.32
Si -2.83  7.71 -2.32
Si -6.67 -2.74 -4.63
Si  6.67  2.74  4.63
Si  1.02  4.97 -6.95
Si -1.02 -4.97  6.95
Si  0.13  5.12  6.95
Si -0.13 -5.12 -6.95
Si -4.11 -3.11 -6.95
Si  4.11  3.11  6.95
Si  5.07 -1.09 -6.95
Si -5.07  1.09  6.95
Si -0.26  7.35 -4.63
Si  0.26 -7.35  4.63
Si  1.61 -4.97  6.95
Si -1.61  4.97 -6.95
Si -0.07  8.44  2.32
Si  0.07 -8.44 -2.32
Si  7.82  4.04  0.00
Si -7.82 -4.04  0.00
Si  6.47  6.05  0.00
Si -6.47 -6.05  0.00
Si -6.41 -5.69  2.32
Si  6.41  5.69 -2.32
Si -7.76 -3.67  2.32
Si  7.76  3.67 -2.32
Si  5.46  1.09  6.95
Si -5.46 -1.09 -6.95
Si  7.96 -4.04  0.00
Si -7.96  4.04  0.00
Si  2.50 -5.12 -6.95
Si -2.50  5.12  6.95
Si  2.37  7.35 -4.63
Si -2.37 -7.35  4.63
Si -6.67  6.05  0.00
Si  6.67 -6.05  0.00
Si  5.00  2.95 -6.95
Si -5.00 -2.95  6.95
Si -2.76 -5.12 -6.95
Si  2.76  5.12  6.95
Si  7.76 -0.72 -4.63
Si -7.76  0.72  4.63
Si  3.92 -6.78 -4.63
Si -3.92  6.78  4.63
Si -2.56 -8.44 -2.32
Si  2.56  8.44  2.32
Si  6.74 -5.69  2.32
Si -6.74  5.69 -2.32
Si  8.02 -3.67  2.32
Si -8.02  3.67 -2.32
Si -3.98 -6.78 -4.63
Si  3.98  6.78  4.63
Si -2.70  8.44  2.32
Si  2.70 -8.44 -2.32
Si  2.89 -7.35  4.63
Si -2.89  7.35 -4.63
Si  8.02  0.72  4.63
Si -8.02 -0.72 -4.63
Si -3.65 -4.97  6.95
Si  3.65  4.97 -6.95
Si  7.89  4.40  2.32
Si -7.89 -4.40 -2.32
Si  7.89 -4.40 -2.32
Si -7.89  4.40  2.32
Si -1.02 -0.57  9.27
Si  1.02  0.57 -9.27
Si -5.52  2.95 -6.95
Si  5.52 -2.95  6.95
Si -0.26 -1.45 -9.27
Si  0.26  1.45  9.27
Si -9.17 -2.02  0.00
Si  9.17  2.02  0.00
Si -1.61  0.57 -9.27
Si  1.61 -0.57  9.27
Si -6.54 -6.42 -2.32
Si  6.54  6.42  2.32
Si -9.24  2.02  0.00
Si  9.24 -2.02  0.00
Si  6.35  0.93 -6.95
Si -6.35 -0.93  6.95
Si -6.34 -5.33  4.63
Si  6.34  5.33 -4.63
Si  6.61 -6.42 -2.32
Si -6.61  6.42  2.32
Si  5.06  7.71 -2.32
Si -5.06 -7.71  2.32
Si  4.24 -4.97  6.95
Si -4.24  4.97 -6.95
Si  9.11  1.66 -2.32
Si -9.11 -1.66  2.32
Si  5.13  8.07  0.00
Si -5.13 -8.07  0.00
Si -7.69 -3.31  4.63
Si  7.69  3.31 -4.63
Si  0.33 -2.59  9.27
Si -0.33  2.59 -9.27
Si  2.37 -1.45 -9.27
Si -2.37  1.45  9.27
Si  5.39 -8.07  0.00
Si -5.39  8.07  0.00
Si -5.46  7.71 -2.32
Si  5.46 -7.71  2.32
Si -9.30  1.66 -2.32
Si  9.30 -1.66  2.32
Si  9.17 -2.38 -2.32
Si -9.17  2.38  2.32
Si  6.80 -0.93  6.95
Si -6.80  0.93 -6.95
Si -6.80  5.33 -4.63
Si  6.80 -5.33  4.63
Si -9.24 -2.38 -2.32
Si  9.24  2.38  2.32
Si  2.89  1.45  9.27
Si -2.89 -1.45 -9.27
Si -0.33  6.99 -6.95
Si  0.33 -6.99  6.95
Si  8.09 -3.31  4.63
Si -8.09  3.31 -4.63
Si -2.30 -2.59  9.27
Si  2.30  2.59 -9.27
Si -0.00  8.80  4.63
Si  0.00 -8.80 -4.63
Si  6.41 -3.11 -6.95
Si -6.41  3.11  6.95
Si  1.09 -3.47 -9.27
Si -1.09  3.47  9.27
Si -3.65 -0.57  9.27
Si  3.65  0.57 -9.27
Si -1.54 -3.47 -9.27
Si  1.54  3.47  9.27
Si  5.00  7.35 -4.63
Si -5.00 -7.35  4.63
Si  1.22 -7.14 -6.95
Si -1.22  7.14  6.95
Si  5.13 -5.12 -6.95
Si -5.13  5.12  6.95
Si  1.08  9.73 -2.32
Si -1.08 -9.73  2.32
Si -1.41 -7.14 -6.95
Si  1.41  7.14  6.95
Si -2.96  2.59 -9.27
Si  2.96 -2.59  9.27
Si  1.55 -9.73  2.32
Si -1.55  9.73 -2.32
Si -2.30 -6.99  6.95
Si  2.30  6.99 -6.95
Si  1.15 10.09  0.00
Si -1.15 -10.09  0.00
Si  6.74  3.11  6.95
Si -6.74 -3.11 -6.95
Si -5.19 -8.44 -2.32
Si  5.19  8.44  2.32
Si  5.39  5.12  6.95
Si -5.39 -5.12 -6.95
Si  1.48 -10.09  0.00
Si -1.48 10.09  0.00
Si  4.24 -0.57  9.27
Si -4.24  0.57 -9.27
Si -9.04 -1.29  4.63
Si  9.04  1.29 -4.63
Si -5.33  8.44  2.32
Si  5.33 -8.44 -2.32
Si  7.83 -4.76 -4.63
Si -7.83  4.76  4.63
Si  2.63  8.80  4.63
Si -2.63 -8.80 -4.63
Si -2.63  8.80  4.63
Si  2.63 -8.80 -4.63
Si  2.96 -6.99  6.95
Si -2.96  6.99 -6.95
Si -5.52  7.35 -4.63
Si  5.52 -7.35  4.63
Si -7.95 -4.76 -4.63
Si  7.95  4.76  4.63
Si  0.95  4.61 -9.27
Si -0.95 -4.61  9.27
Si  7.70 -1.09 -6.95
Si -7.70  1.09  6.95
Si -1.68  4.61 -9.27
Si  1.68 -4.61  9.27
Si -1.02 -9.37  4.63
Si  1.02  9.37 -4.63
Si -6.54  6.78  4.63
Si  6.54 -6.78 -4.63
Si -10.52  0.00  0.00
Si 10.52  0.00  0.00
Si -9.37  1.29 -4.63
Si  9.37 -1.29  4.63
Si -6.61 -6.78 -4.63
Si  6.61  6.78  4.63
Si  3.72 -3.47 -9.27
Si -3.72  3.47  9.27
Si  1.61 -9.37  4.63
Si -1.61  9.37 -4.63
Si  9.11 -2.74 -4.63
Si -9.11  2.74  4.63
Si  6.28  4.97 -6.95
Si -6.28 -4.97  6.95
Si -5.00  1.45  9.27
Si  5.00 -1.45 -9.27
Si -3.71 -9.73  2.32
Si  3.71  9.73 -2.32
Si  3.85 -7.14 -6.95
Si -3.85  7.14  6.95
Si 10.46 -0.36 -2.32
Si -10.46  0.36  2.32
Si -8.09 -1.09 -6.95
Si  8.09  1.09  6.95
Si  7.63  2.95 -6.95
Si -7.63 -2.95  6.95
Si  4.17  3.47  9.27
Si -4.17 -3.47 -9.27
Si -9.30 -2.74 -4.63
Si  9.30  2.74  4.63
Si  4.04  7.14  6.95
Si -4.04 -7.14 -6.95
Si  0.19  5.49  9.27
Si -0.19 -5.49 -9.27
Si -3.78 -10.09  0.00
Si  3.78 10.09  0.00
Si  1.21 10.45  2.32
Si -1.21 -10.45 -2.32
Si -1.42 10.45  2.32
Si  1.42 -10.45 -2.32
Si  4.93  2.59 -9.27
Si -4.93 -2.59  9.27
Si -4.18  9.73 -2.32
Si  4.18 -9.73  2.32
Si -10.59 -0.36 -2.32
Si 10.59  0.36  2.32
Si  5.52  1.45  9.27
Si -5.52 -1.45 -9.27
Si -4.11 10.09  0.00
Si  4.11 -10.09  0.00
Si  9.04  5.69 -2.32
Si -9.04 -5.69  2.32
Si -9.10 -6.05  0.00
Si  9.10  6.05  0.00
Si  3.58  4.61 -9.27
Si -3.58 -4.61  9.27
Si -6.87  4.97 -6.95
Si  6.87 -4.97  6.95
Si  4.93  6.99 -6.95
Si -4.93 -6.99  6.95
Si -2.44  5.49  9.27
Si  2.44 -5.49 -9.27
Si  3.65  9.37 -4.63
Si -3.65 -9.37  4.63
Si  9.30 -6.05  0.00
Si -9.30  6.05  0.00
Si  8.15 -2.95  6.95
Si -8.15  2.95 -6.95
Si -5.59  2.59 -9.27
Si  5.59 -2.59  9.27
Si  7.69  7.71 -2.32
Si -7.69 -7.71  2.32
Si -2.82 -5.49 -9.27
Si  2.82  5.49  9.27
Si -7.76 -8.07  0.00
Si  7.76  8.07  0.00
Si 10.45  4.04  0.00
Si -10.45 -4.04  0.00
Si  9.37 -5.69  2.32
Si -9.37  5.69 -2.32
Si  4.30 -4.61  9.27
Si -4.30  4.61 -9.27
Si  6.28  0.57 -9.27
Si -6.28 -0.57  9.27
Si -5.26 -8.80 -4.63
Si  5.26  8.80  4.63
Si -5.26  8.80  4.63
Si  5.26 -8.80 -4.63
Si 10.39  3.67 -2.32
Si -10.39 -3.67  2.32
Si -4.24  9.37 -4.63
Si  4.24 -9.37  4.63
Si -10.59  4.04  0.00
Si 10.59 -4.04  0.00
Si -5.59  6.99 -6.95
Si  5.59 -6.99  6.95
Si -3.84 -10.45 -2.32
Si  3.84 10.45  2.32
Si  8.02 -8.07  0.00
Si -8.02  8.07  0.00
Si  8.98  0.93 -6.95
Si -8.98 -0.93  6.95
Si 10.39 -0.72 -4.63
Si -10.39  0.72  4.63
Si -0.39  6.62 -9.27
