500
set: 1562.00  0.00  0.00
Si  0.79 -0.11  0.20
Si -1.73 -1.18  0.24
Si -2.13  1.10  0.19
Si  0.75  2.32  0.22
Si  0.02 -2.01 -1.53
Si  0.02 -2.01  1.95
Si  1.84 -2.28  0.22
Si  2.28  1.15 -1.53
Si -1.07  2.59 -1.53
Si  2.28  1.15  1.95
Si  0.79 -0.10 -3.28
Si -1.07  2.58  1.95
Si  3.56 -0.01  0.24
Si -1.04 -3.50  0.19
Si  0.78 -0.11  3.68
Si -1.73 -1.18 -3.24
Si -3.53 -1.26 -1.51
Si  0.76  2.33 -3.26
Si -2.13  1.11 -3.29
Si -3.53 -1.27  1.97
Si -1.74 -1.19  3.72
Si  1.85 -2.27 -3.26
Si -2.14  1.09  3.67
Si  0.75  2.31  3.70
Si -2.83  3.42  0.24
Si -0.30  4.49  0.20
Si -4.63 -0.01  0.24
Si  1.84 -2.29  3.70
Si  3.56 -0.00 -3.24
Si -1.04 -3.49 -3.29
Si  4.66 -1.26 -1.51
Si  3.37 -3.45 -1.53
Si  1.88 -4.71  0.20
Si  3.56  3.34 -1.51
Si  3.55 -0.01  3.72
Si -1.05 -3.50  3.67
Si  3.37 -3.46  1.95
Si  4.65 -1.27  1.97
Si  2.46  4.59  0.24
Si  3.56  3.33  1.97
Si  0.02 -2.00 -5.01
Si -2.82  3.42 -3.24
Si -0.30  4.50 -3.28
Si  2.29  1.16 -5.01
Si -4.62 -0.00 -3.24
Si -1.07  2.60 -5.01
Si -2.83  3.41  3.72
Si  0.01 -2.02  5.43
Si -0.31  4.49  3.68
Si -3.54 -4.61  0.24
Si -0.64 -5.78  0.24
Si -4.62  3.34 -1.51
Si -4.63 -0.01  3.72
Si  2.28  1.14  5.43
Si -4.62  3.33  1.97
Si  1.88 -4.70 -3.28
Si  1.19  5.75 -1.53
Si -1.08  2.58  5.43
Si -4.81 -3.45 -1.53
Si  2.47  4.60 -3.24
Si  6.05  1.10  0.19
Si  1.19  5.75  1.95
Si -5.90  1.15 -1.53
Si -3.52 -1.25 -4.99
Si -4.81 -3.46  1.95
Si  1.88 -4.71  3.68
Si -5.90  1.15  1.95
Si  5.36  3.42  0.24
Si  2.46  4.58  3.72
Si -2.44 -5.86 -1.51
Si  4.65 -4.61  0.24
Si -3.22  5.70  0.19
Si  6.45 -1.18  0.24
Si -3.53 -1.27  5.45
Si -3.53 -4.60 -3.24
Si -2.44 -5.87  1.97
Si -0.64 -5.78 -3.24
Si -6.34 -2.28  0.22
Si  0.80 -0.09 -6.77
Si  1.11 -6.61 -1.53
Si -3.54 -4.62  3.72
Si -0.65 -5.79  3.72
Si -0.34  6.92  0.22
Si  4.66 -1.25 -4.99
Si  3.38 -3.44 -5.01
Si  6.05  1.11 -3.29
Si  1.11 -6.61  1.95
Si  3.57  3.35 -4.99
Si -1.73 -1.17 -6.72
Si  5.36  3.42 -3.24
Si  6.04  1.09  3.67
Si  0.76  2.33 -6.74
Si -2.13  1.11 -6.77
Si  0.78 -0.12  7.16
Si  3.37 -3.46  5.43
Si  4.65 -1.27  5.45
Si  4.65 -4.60 -3.24
Si  3.56  3.33  5.45
Si  6.45 -1.18 -3.24
Si -3.22  5.71 -3.29
Si -5.72  4.59  0.24
Si  1.85 -2.27 -6.74
Si  5.35  3.41  3.72
Si -7.39 -0.11  0.20
Si -6.34 -2.27 -3.26
Si  2.93 -6.88  0.22
Si -1.74 -1.20  7.20
Si -3.23  5.69  3.67
Si  4.64 -4.62  3.72
Si  6.45 -1.19  3.72
Si -2.14  1.09  7.15
Si  4.96  5.70  0.19
Si -4.61  3.35 -4.99
Si  0.74  2.31  7.18
Si  3.56  0.01 -6.72
Si -0.34  6.92 -3.26
Si -2.16  7.19 -1.53
Si -1.04 -3.48 -6.77
Si -6.34 -2.29  3.70
Si  7.11  2.59 -1.53
Si  1.20  5.76 -5.01
Si -4.80 -3.44 -5.01
Si -2.17  7.18  1.95
Si  1.83 -2.29  7.18
Si -7.43  2.32  0.22
Si  7.11  2.58  1.95
Si -5.89  1.16 -5.01
Si -0.34  6.91  3.70
Si -6.30 -4.71  0.20
Si -4.62  3.33  5.45
Si  7.14 -3.50  0.19
Si  1.19  5.74  5.43
Si -5.71  4.60 -3.24
Si  3.55 -0.02  7.20
Si -1.05 -3.51  7.15
Si -4.82 -3.46  5.43
Si -2.82  3.43 -6.72
Si -2.43 -5.85 -4.99
Si -7.39 -0.10 -3.28
Si  0.05 -8.10  0.19
Si -5.91  1.14  5.43
Si -0.30  4.51 -6.77
Si  2.94 -6.87 -3.26
Si -4.62  0.01 -6.72
Si -5.72  4.58  3.72
Si  4.96  5.71 -3.29
Si -7.40 -0.11  3.68
Si  5.75 -5.86 -1.51
Si  2.93 -6.89  3.70
Si  1.11 -6.60 -5.01
Si -2.44 -5.87  5.45
Si  4.96  5.69  3.67
Si -7.43  2.33 -3.26
Si  5.74 -5.87  1.97
Si  1.89 -4.69 -6.77
Si -0.31  4.48  7.16
Si  2.47  7.94 -1.51
Si -2.83  3.40  7.20
Si  2.47  4.60 -6.72
Si -6.30 -4.70 -3.28
Si  2.47  7.93  1.97
Si -8.16 -2.01 -1.53
Si -4.63 -0.02  7.20
Si  8.20 -2.01 -1.53
Si  7.14 -3.49 -3.29
Si -7.43  2.31  3.70
Si  1.10 -6.62  5.43
Si -8.17 -2.01  1.95
Si -5.25 -6.88  0.22
Si  8.20 -2.01  1.95
Si -6.31 -4.71  3.68
Si  0.03 -1.99 -8.49
Si  0.05 -8.09 -3.29
Si  7.14 -3.50  3.67
Si  1.87 -4.72  7.16
Si  2.29  1.17 -8.49
Si -3.53 -4.59 -6.72
Si  2.46  4.58  7.20
Si -0.64 -5.77 -6.72
Si  0.04 -8.10  3.67
Si -3.92  8.02  0.24
Si -1.06  2.60 -8.49
Si  8.97 -0.11  0.20
Si -3.72 -8.05 -1.53
Si -2.16  7.20 -5.01
Si  7.88  4.49  0.20
Si  7.12  2.60 -5.01
Si  4.27  8.02  0.24
Si -3.72 -8.05  1.95
Si  0.01 -2.03  8.91
Si  6.06  1.11 -6.77
Si -6.99  5.75 -1.53
Si -1.39  9.09  0.20
Si  8.93  2.32  0.22
Si -5.25 -6.87 -3.26
Si -3.52 -1.25 -8.47
Si -6.99  5.75  1.95
Si -2.17  7.18  5.43
Si  5.37  3.43 -6.72
Si -3.54 -4.62  7.20
Si -0.65 -5.80  7.20
Si  2.27  1.13  8.92
Si  1.37  9.19  0.24
Si  7.10  2.58  5.43
Si  4.46 -8.05 -1.53
Si -1.08  2.57  8.91
Si  4.65 -4.59 -6.72
Si  6.46 -1.17 -6.72
Si  4.46 -8.05  1.95
Si -5.25 -6.89  3.70
Si  6.04  1.09  7.15
Si -3.22  5.71 -6.77
Si -3.91  8.02 -3.24
Si  6.02  7.19 -1.53
Si  7.54 -5.78  0.24
Si -6.33 -2.27 -6.74
Si -2.45 -9.21  0.24
Si  8.97 -0.10 -3.28
Si  6.02  7.18  1.95
Si  5.35  3.40  7.20
Si  5.75 -5.85 -4.99
Si -8.48  4.49  0.20
Si  4.27  8.02 -3.24
Si  7.88  4.50 -3.28
Si -3.92  8.01  3.72
Si -0.33  6.93 -6.74
Si  8.97 -0.11  3.68
Si -3.23  5.69  7.15
Si -3.54 -1.28  8.94
Si  2.48  7.95 -4.99
Si -9.25  2.59 -1.53
Si  4.64 -4.62  7.20
Si  6.44 -1.20  7.20
Si  4.66 -1.25 -8.47
Si  3.38 -3.44 -8.49
Si  2.97 -9.30  0.20
Si -1.39  9.10 -3.28
Si  7.88  4.49  3.68
Si -8.16 -2.00 -5.01
Si  3.57  3.35 -8.47
Si  8.94  2.33 -3.26
Si -7.07 -6.61 -1.53
Si  4.26  8.01  3.72
Si -9.26  2.58  1.95
Si  8.21 -2.00 -5.01
Si  1.38  9.20 -3.24
Si  5.74 -5.87  5.45
Si -6.35 -2.29  7.18
Si -9.22 -3.50  0.19
Si -7.08 -6.61  1.95
Si -5.71  7.94 -1.51
Si -1.40  9.09  3.68
Si  2.47  7.93  5.45
Si  8.93  2.31  3.70
Si -5.71  4.60 -6.72
Si -0.35  6.91  7.18
Si -5.71  7.93  1.97
Si -9.92 -1.18  0.24
Si  1.37  9.18  3.72
Si -8.17 -2.02  5.43
Si -7.39 -0.09 -6.77
Si  8.20 -2.02  5.43
Si  7.54 -5.78 -3.24
Si -2.44 -9.20 -3.24
Si  2.94 -6.87 -6.74
Si  3.36 -3.47  8.92
Si -8.48  4.50 -3.28
Si  4.64 -1.28  8.94
Si  4.97  5.71 -6.77
Si  3.55  3.32  8.94
Si -3.71 -8.04 -5.01
Si  7.54 -5.79  3.72
Si -4.61  3.35 -8.47
Si -2.45 -9.21  3.72
Si -5.72  4.58  7.20
Si  0.80 -0.09 -10.25
Si -8.49  4.49  3.68
Si 10.03 -2.28  0.22
Si -7.42  2.33 -6.74
Si -7.40 -0.12  7.16
Si  2.97 -9.30 -3.28
Si  1.20  5.76 -8.49
Si -4.80 -3.44 -8.49
Si -6.99  5.76 -5.01
Si -6.30 -4.69 -6.77
Si -10.32  1.10  0.19
Si  2.93 -6.89  7.18
Si  4.95  5.69  7.15
Si  0.45 -10.38  0.24
Si -9.22 -3.49 -3.29
Si -5.89  1.17 -8.49
Si -3.73 -8.06  5.43
Si -1.72 -1.16 -10.21
Si  2.96 -9.31  3.68
Si  7.15 -3.48 -6.77
Si  7.84  6.92  0.22
Si  0.10 10.35 -1.53
Si  4.47 -8.04 -5.01
Si -9.91 -1.18 -3.24
Si  0.76  2.34 -10.22
Si  0.10 10.34  1.95
Si -2.12  1.12 -10.25
Si -9.23 -3.50  3.67
Si  0.06 -8.09 -6.77
Si -8.83 -5.78  0.24
Si -7.00  5.74  5.43
Si -2.43 -5.85 -8.47
Si -7.44  2.31  7.18
Si -4.63  3.32  8.94
Si  1.85 -2.26 -10.22
Si 10.47  1.15 -1.53
Si  6.02  7.20 -5.01
Si -6.31 -4.72  7.16
Si -1.35 -10.46 -1.51
Si -9.92 -1.19  3.72
Si  1.18  5.73  8.92
Si -5.21 -9.30  0.20
Si  0.78 -0.12 10.64
Si  7.13 -3.51  7.15
Si  4.46 -8.06  5.43
Si 10.46  1.15  1.95
Si -4.82 -3.47  8.92
Si -1.35 -10.46  1.97
Si -5.91  1.13  8.92
Si 10.03 -2.27 -3.26
Si  3.57  0.01 -10.20
Si  1.12 -6.59 -8.49
Si  0.04 -8.11  7.15
Si  6.01  7.18  5.43
Si -9.25  2.60 -5.01
Si  5.74 -9.21  0.24
Si -1.03 -3.48 -10.25
Si  0.45 -10.38 -3.24
Si -10.31  1.11 -3.29
Si -1.75 -1.20 10.68
Si -7.07 -6.60 -5.01
Si -2.14  1.08 10.63
Si 10.02 -2.29  3.70
Si  0.74  2.30 10.67
Si -5.24 -6.87 -6.74
Si  7.85  6.92 -3.26
Si -2.45 -5.88  8.94
Si -8.52  6.92  0.22
Si -5.70  7.95 -4.99
Si  3.87 10.30  0.19
Si -10.32  1.09  3.67
Si -8.82 -5.78 -3.24
Si -9.26  2.58  5.43
Si  0.44 -10.39  3.72
Si  1.83 -2.30 10.67
Si  7.84  6.91  3.70
Si  9.38  5.75 -1.53
Si 10.06 -4.71  0.20
Si -7.08 -6.62  5.43
Si -2.81  3.44 -10.21
Si -5.21 -9.30 -3.28
Si  1.10 -6.63  8.91
Si  9.37  5.75  1.95
Si -4.32 10.30  0.19
Si -3.91  8.03 -6.72
Si -5.71  7.93  5.45
Si -8.83 -5.79  3.72
Si -4.62  0.01 -10.20
Si -0.29  4.51 -10.25
Si  8.98 -0.09 -6.77
Si -1.05 -3.52 10.63
Si  3.54 -0.03 10.68
Si -5.26 -6.89  7.18
Si -5.22 -9.31  3.68
Si  4.27  8.03 -6.72
Si  5.74 -9.20 -3.24
Si  7.89  4.51 -6.77
Si -2.15  7.21 -8.49
Si  6.79  9.09  0.20
Si  7.12  2.60 -8.49
Si  1.89 -4.68 -10.25
Si -1.39  9.11 -6.77
Si  8.94  2.33 -6.74
Si -6.81  9.19  0.24
Si -8.52  6.92 -3.26
Si -3.92  8.00  7.20
Si  2.48  4.61 -10.20
Si  8.96 -0.12  7.16
Si  5.73 -9.21  3.72
Si -8.13 -8.10  0.19
Si  1.38  9.20 -6.72
Si  3.87 10.31 -3.29
Si  9.29 -6.61 -1.53
Si  0.11 10.36 -5.01
Si  2.20 -11.21 -1.53
Si -11.01  3.42  0.24
Si  7.87  4.48  7.16
Si -0.31  4.47 10.64
Si  8.23 -8.10  0.19
Si -2.84  3.40 10.68
Si  9.29 -6.61  1.95
Si  4.26  8.00  7.20
Si 10.06 -4.70 -3.28
Si -8.53  6.91  3.70
Si  2.20 -11.21  1.95
Si  3.86 10.29  3.67
Si 10.65  4.59  0.24
Si -1.43 11.52  0.22
Si  7.55 -5.77 -6.72
Si -2.17  7.17  8.91
Si -4.31 10.31 -3.29
Si -4.64 -0.03 10.68
Si -2.44 -9.19 -6.72
Si -1.40  9.08  7.16
Si -1.34 -10.45 -4.99
Si 10.47  1.16 -5.01
Si  0.10 10.34  5.43
Si  7.10  2.57  8.91
Si  8.93  2.31  7.18
Si 10.06 -4.71  3.68
Si -3.52 -4.59 -10.20
Si -0.63 -5.76 -10.21
Si 11.74 -0.01  0.24
Si -8.48  4.51 -6.77
Si  1.37  9.18  7.20
Si -4.32 10.29  3.67
Si  5.75 -5.85 -8.47
Si  1.87 -4.72 10.64
Si  6.79  9.10 -3.28
Si 10.46  1.14  5.43
Si  2.98 -9.29 -6.77
Si -11.71 -1.26 -1.51
Si  2.45  4.57 10.68
Si  2.48  7.95 -8.47
Si -1.35 -10.47  5.45
Si -6.80  9.20 -3.24
Si  6.79  9.09  3.68
Si  7.53 -5.80  7.20
Si -8.13 -8.09 -3.29
Si -8.16 -1.99 -8.49
Si -11.71 -1.27  1.97
Si -2.45 -9.22  7.20
Si -9.22 -3.48 -6.77
Si  6.06  1.12 -10.25
Si -11.00  3.42 -3.24
Si -8.49  4.48  7.16
Si  8.21 -1.99 -8.49
Si  8.23 -8.09 -3.29
Si -6.81  9.18  3.72
Si  5.37  3.44 -10.21
Si -9.91 -1.17 -6.72
Si 10.65  4.60 -3.24
Si -8.14 -8.10  3.67
Si -1.43 11.52 -3.26
Si  9.38  5.76 -5.01
Si -11.01  3.41  3.72
Si  8.23 -8.10  3.67
Si  2.96 -9.32  7.16
Si  4.66 -4.59 -10.20
Si  6.46 -1.16 -10.21
Si  5.74 -5.88  8.94
Si  0.03 -1.99 -11.98
Si 11.56 -3.45 -1.53
Si  4.02 -11.48  0.22
Si -3.55 -4.63 10.68
Si 10.64  4.58  3.72
Si -3.21  5.72 -10.25
Si -0.66 -5.80 10.68
Si -1.43 11.51  3.70
Si 11.74 -0.00 -3.24
Si  2.46  7.92  8.94
Si -9.23 -3.51  7.15
Si -4.16 -11.48  0.22
Si 11.55 -3.46  1.95
Si -10.62 -5.86 -1.51
Si -6.33 -2.26 -10.22
Si  2.29  1.17 -11.97
Si  9.37  5.74  5.43
Si -8.17 -2.03  8.91
Si -3.71 -8.03 -8.49
Si  8.19 -2.03  8.91
Si  6.04  1.08 10.63
Si -10.62 -5.87  1.97
Si 10.03 -2.27 -6.74
Si -1.06  2.61 -11.98
Si 11.75  3.34 -1.51
Si 11.73 -0.01  3.72
Si -9.92 -1.20  7.20
Si -3.25 11.79 -1.53
Si -0.33  6.94 -10.22
Si 11.74  3.33  1.97
Si  0.45 -10.37 -6.72
Si -3.26 11.79  1.95
Si -10.31  1.11 -6.77
Si -6.98  5.76 -8.49
Si  5.35  3.40 10.68
Si  7.85  6.93 -6.74
Si  9.30 -6.60 -5.01
Si  2.20 -11.20 -5.01
Si -3.23  5.68 10.63
Si -8.82 -5.77 -6.72
Si  4.47 -8.03 -8.49
Si -3.52 -1.24 -11.95
Si  6.44 -1.20 10.68
Si  4.63 -4.63 10.68
