500
set: 339.00  0.00  0.00
Si  0.03 -0.01  0.01
Si -1.84  1.08  0.68
Si -0.02  0.08 -2.28
Si -0.00 -2.16  0.80
Si  1.97  1.02  0.83
Si -1.83 -1.08 -2.99
Si -3.69 -0.04 -0.03
Si  1.90  3.19  0.04
Si  1.86 -3.22 -0.03
Si -0.02 -2.09  3.10
Si -1.97  1.15  2.98
Si  1.79 -1.02 -3.15
Si -0.02  2.24 -3.03
Si -1.90  3.29 -0.03
Si -1.85 -3.32  0.04
Si  3.81 -0.04 -0.03
Si  1.92  1.09  3.14
Si -0.00  4.28  0.78
Si -1.94 -1.03  3.77
Si  3.69 -0.06 -2.32
Si -0.07  2.11  3.81
Si  1.82 -3.19 -2.37
Si -1.86 -3.26 -2.29
Si  1.90  3.24 -2.29
Si  1.90 -1.09  3.84
Si  3.75 -2.23  0.78
Si -3.76 -2.23  0.78
Si -3.82 -0.06 -2.32
Si -1.94  3.31 -2.37
Si  3.73  2.15 -3.05
Si -0.03  4.31  3.08
Si  3.73 -2.19  3.08
Si -3.78  2.15 -3.05
Si -0.03 -4.36 -3.05
Si -3.78 -2.19  3.08
Si -5.54  1.02  0.83
Si -1.78 -1.15 -5.30
Si -0.02 -4.25  3.85
Si -0.00  2.18 -5.33
Si  1.91 -5.42  0.68
Si  3.75  4.34  0.80
Si -3.76  4.34  0.80
Si  5.67  1.08  0.68
Si  3.73  2.25  3.85
Si -1.78 -5.48  0.83
Si -3.78  2.25  3.85
Si  1.91 -1.09 -5.45
Si  1.79 -5.35  2.98
Si  5.54  1.15  2.98
Si  3.73 -4.26 -3.03
Si -3.78 -4.26 -3.03
Si -1.85  1.02 -6.09
Si -5.61  3.19  0.04
Si  0.06  6.46 -0.03
Si  0.06  2.12  6.10
Si -1.89 -1.05  6.11
Si  1.92  5.42 -2.99
Si -5.59  1.09  3.14
Si -5.65 -3.22 -0.03
Si  5.62  3.29 -0.03
Si  5.68 -1.08 -2.99
Si -1.83 -5.41  3.14
Si  1.86  1.12 -6.16
Si  0.06 -2.21 -6.16
Si  0.06 -6.55 -0.03
Si  5.66 -3.32  0.04
Si  1.90 -1.15  6.17
Si  3.73  4.41  3.10
Si -3.78  4.41  3.10
Si -5.72 -1.02 -3.15
Si -1.97  5.49 -3.15
Si  5.57 -1.03  3.77
Si -0.07  6.45 -2.32
Si  3.75  2.11 -5.36
Si -3.76  2.11 -5.36
Si -5.61  3.24 -2.29
Si  3.69 -4.39  3.81
Si -5.61 -1.09  3.84
Si  1.82  5.48  3.77
Si -1.86  5.41  3.84
Si  5.57  3.31 -2.37
Si -0.00 -0.06  6.91
Si  5.65 -3.26 -2.29
Si -0.00 -4.39 -5.36
Si -5.69 -3.19 -2.37
Si -0.07 -6.56 -2.32
Si -3.82 -4.39  3.81
Si -7.47 -0.01  0.01
Si -3.72  6.49  0.01
Si -3.72 -2.18 -6.12
Si  0.03  4.32 -6.12
Si -3.72  2.16  6.14
Si -3.72 -6.51  0.01
Si  3.79  6.49  0.01
Si  3.79 -2.18 -6.12
Si  0.03 -4.35  6.14
Si  3.79  2.16  6.14
Si  3.79 -6.51  0.01
Si  7.54 -0.01  0.01
Si -1.84 -3.25  6.81
Si  3.73 -6.42 -2.28
Si -1.78  7.52  0.83
Si  1.91  3.25  6.81
Si  1.97  5.36 -5.30
Si -3.78 -6.42 -2.28
Si -5.60 -5.42  0.68
Si  3.75 -4.33 -5.33
Si -3.76 -4.33 -5.33
Si  7.49  0.08 -2.28
Si  1.91  7.58  0.68
Si  7.51 -2.16  0.80
Si -7.51 -2.16  0.80
Si -1.78  3.19  6.97
Si -7.53  0.08 -2.28
Si  3.75  0.01  6.93
Si  5.72 -1.15 -5.30
Si -3.76  0.01  6.93
Si -5.60 -1.09 -5.45
Si -1.84  5.42 -5.45
Si  3.73  6.59 -2.28
Si -3.78  6.59 -2.28
Si  1.97 -3.31  6.97
Si  5.72 -5.48  0.83
Si -5.59  5.42 -2.99
Si  5.62 -1.05  6.11
Si -3.69  4.29 -6.16
Si -3.69 -4.38  6.10
Si  7.49 -2.09  3.10
Si  1.92 -7.58 -2.99
Si  5.66  1.02 -6.09
Si -1.85  5.35  6.17
Si -5.72 -5.35  2.98
Si  7.49  2.24 -3.03
Si -1.97 -7.52 -3.15
Si  1.86  5.45  6.11
Si -1.89 -5.38 -6.16
Si  1.79  7.65  2.98
Si -7.53 -2.09  3.10
Si  5.54  5.49 -3.15
Si  1.90 -5.49 -6.09
Si -5.61 -1.15  6.17
Si -1.83  7.59  3.14
Si -7.53  2.24 -3.03
Si  3.81  4.29 -6.16
Si  3.81 -4.38  6.10
Si -5.65  1.12 -6.16
Si  5.68 -5.41  3.14
Si  1.82 -7.53  3.77
Si  7.44  2.11  3.81
Si  7.51  4.28  0.78
Si -7.51  4.28  0.78
Si -1.86  1.08 -8.42
Si -1.86 -7.59  3.84
Si  5.65  5.41  3.84
Si -0.07 -2.22 -8.45
Si -7.58  2.11  3.81
Si -5.69  5.48  3.77
Si  1.82  1.14 -8.50
Si -0.00 -8.73  0.78
Si  7.48  4.31  3.08
Si -0.03  8.65 -3.05
Si  7.48 -4.36 -3.05
Si -0.03 -0.02 -9.18
Si -0.03 -0.02  9.21
Si -7.54  4.31  3.08
Si -0.03 -8.69  3.08
Si -7.54 -4.36 -3.05
Si -5.54  5.36 -5.30
Si -5.60  3.25  6.81
Si  7.49 -4.25  3.85
Si  3.73 -2.08 -8.41
Si -9.35  1.08  0.68
Si  5.67 -3.25  6.81
Si -5.60  7.58  0.68
Si -3.78 -2.08 -8.41
Si  7.51  2.18 -5.33
Si -7.51  2.18 -5.33
Si -7.53 -4.25  3.85
Si  3.75 -8.66  0.80
Si -3.76 -8.66  0.80
Si  5.72  7.52  0.83
Si -5.54 -3.31  6.97
Si -0.00 -6.49  6.93
Si -0.02  4.42 -8.41
Si  1.97 -7.65 -5.30
Si -0.00  6.51  6.93
Si -1.84 -7.59 -5.45
Si  5.67  5.42 -5.45
Si  5.72  3.19  6.97
Si -0.02  8.75  3.85
Si  9.48  1.02  0.83
Si -1.97 -3.18  9.11
Si  1.79  3.32  9.11
Si -1.83  3.26 -9.12
Si  5.54 -7.52 -3.15
Si -7.45  6.46 -0.03
Si -7.45  2.12  6.10
Si  1.90  7.52 -6.09
Si -1.85  9.69  0.04
Si -9.34 -1.08 -2.99
Si  9.30 -1.02 -3.15
Si  3.73 -8.60  3.10
Si  1.92 -3.25 -9.12
Si -5.59 -7.58 -2.99
Si -3.78 -8.60  3.10
Si  1.86 -7.55  6.11
Si  3.73  0.07 -9.16
Si -1.89 -9.72 -0.03
Si -3.78  0.07 -9.16
Si  9.37 -3.22 -0.03
Si -7.45 -2.21 -6.16
Si -7.45 -6.55 -0.03
Si  5.62 -5.38 -6.16
Si -5.61 -5.49 -6.09
Si -9.36 -3.32  0.04
Si  9.41  3.19  0.04
Si  5.66  5.35  6.17
Si -5.65  5.45  6.11
Si  7.57  6.46 -0.03
Si  7.57  2.12  6.10
Si -9.40  3.29 -0.03
Si  3.73  0.07  9.24
Si  1.86  9.79 -0.03
Si -1.90  7.62 -6.16
Si -3.78  0.07  9.24
Si  3.73  8.75 -3.03
Si  5.68  7.59  3.14
Si -3.78  8.75 -3.03
Si -1.83  3.26  9.27
Si -9.48  1.15  2.98
Si  9.43  1.09  3.14
Si  1.90 -9.82  0.04
Si -1.85 -7.65  6.17
Si  7.57 -2.21 -6.16
Si  7.57 -6.55 -0.03
Si  1.92 -3.25  9.27
Si -5.72  7.65  2.98
Si -1.97 -3.18 -9.29
Si  1.79  3.32 -9.29
Si  7.44  6.45 -2.32
Si  3.69  8.62  3.81
Si  1.82  1.14  9.90
Si -0.00  8.61 -5.36
Si  9.33 -3.19 -2.37
Si -5.69 -7.53  3.77
Si  3.75  6.44  6.91
Si  3.69  4.28 -8.45
Si -3.76  6.44  6.91
Si -3.82  8.62  3.81
Si -1.94 -9.70 -2.37
Si -9.37 -3.26 -2.29
Si -1.86  9.75 -2.29
Si  7.44 -6.56 -2.32
Si -0.07 -2.22  9.94
Si  1.90 -5.43 -8.42
Si  5.65  1.08 -8.42
Si  7.51 -0.06  6.91
Si -1.86  1.08  9.97
Si  1.90 -9.76 -2.29
Si -7.51 -0.06  6.91
Si  9.40  3.24 -2.29
Si -3.82  4.28 -8.45
Si -7.58  6.45 -2.32
Si  7.51 -4.39 -5.36
Si  5.65 -7.59  3.84
Si  9.40 -1.09  3.84
Si -9.44 -1.03  3.77
Si -7.51 -4.39 -5.36
Si -1.94 -5.36 -8.50
Si  3.75 -6.56  6.91
Si -3.76 -6.56  6.91
Si  1.82  9.81 -2.37
Si -9.44  3.31 -2.37
Si -7.58 -6.56 -2.32
Si -5.69  1.14 -8.50
Si -7.47  4.32 -6.12
Si -7.47 -4.35  6.14
Si  0.03  8.66  6.14
Si  0.03 -8.68 -6.12
Si  7.54  4.32 -6.12
Si  7.54 -4.35  6.14
Si -9.29 -1.15 -5.30
Si -9.29 -5.48  0.83
Si -5.54 -7.65 -5.30
Si  3.75  8.68 -5.33
Si -3.76  8.68 -5.33
Si  3.73 -2.08  9.98
Si -3.78 -2.08  9.98
Si -0.00 10.85  0.80
Si  9.42 -5.42  0.68
Si -0.02  4.42  9.98
Si  5.67 -7.59 -5.45
Si  9.42 -1.09 -5.45
Si  5.54 -3.18  9.11
Si  9.30 -5.35  2.98
Si -5.59 -3.25 -9.12
Si -0.02 -10.76 -3.03
Si -5.61  7.52 -6.09
Si -0.02 -6.43 -9.16
Si -3.69  8.63  6.10
Si -11.20 -0.04 -0.03
Si -9.36  1.02 -6.09
Si  5.66  9.69  0.04
Si  5.62 -9.72 -0.03
Si  5.68  3.26 -9.12
Si  3.81  8.63  6.10
Si -5.65 -7.55  6.11
Si -9.34 -5.41  3.14
Si -0.02 -6.43  9.24
Si -5.72  3.32  9.11
Si -9.40 -1.05  6.11
Si  9.37  1.12 -6.16
Si  5.54 -3.18 -9.29
Si -0.02  6.58 -9.16
Si  9.43  5.42 -2.99
Si  5.62  7.62 -6.16
Si -3.69 -8.71 -6.16
Si -5.59 -3.25  9.27
Si -5.65  9.79 -0.03
Si -5.61 -9.82  0.04
Si  9.41 -1.15  6.17
Si 11.32 -0.04 -0.03
Si  3.81 -8.71 -6.16
Si -0.02  6.58  9.24
Si  5.66 -7.65  6.17
Si -0.02 10.91  3.10
Si  5.68  3.26  9.27
Si -9.48  5.49 -3.15
Si -5.72  3.32 -9.29
Si -1.94 -5.36  9.90
Si  5.57 -9.70 -2.37
Si 11.20 -0.06 -2.32
Si  3.69  4.28  9.94
Si  3.75 10.78  0.78
Si -3.76 10.78  0.78
Si  9.33  5.48  3.77
Si -5.69  1.14  9.90
Si  7.44 -2.22 -8.45
Si -3.82  4.28  9.94
Si -9.37  5.41  3.84
Si -5.61 -5.43 -8.42
Si  1.90  7.58 -8.42
Si -0.00 -0.06 -11.49
Si  5.57 -5.36 -8.50
Si -5.61 -9.76 -2.29
Si  5.65  9.75 -2.29
Si 11.26 -2.23  0.78
Si -11.27 -2.23  0.78
Si  1.90 -5.43  9.97
Si  5.65  1.08  9.97
Si  7.51 -8.73  0.78
Si -0.07 -10.89  3.81
Si -7.51 -8.73  0.78
Si -7.58 -2.22 -8.45
Si -11.33 -0.06 -2.32
Si -5.69  9.81 -2.37
Si -1.94  7.64 -8.50
Si  7.48  8.65 -3.05
Si 11.23  2.15 -3.05
Si  3.73  6.48 -9.18
Si  7.48 -0.02 -9.18
Si  3.73 10.82  3.08
Si 11.23 -2.19  3.08
Si -3.78  6.48 -9.18
Si  3.73 -6.52 -9.18
Si  3.73  6.48  9.21
Si -3.78 10.82  3.08
Si  7.48 -0.02  9.21
Si -7.54  8.65 -3.05
Si  7.48 -8.69  3.08
Si -7.54 -0.02 -9.18
Si  3.73 -10.86 -3.05
Si -3.78 -6.52 -9.18
Si -3.78  6.48  9.21
Si  3.73 -6.52  9.21
Si -11.29  2.15 -3.05
Si -3.78 -10.86 -3.05
Si -7.54 -0.02  9.21
Si -3.78 -6.52  9.21
Si -11.29 -2.19  3.08
Si -7.54 -8.69  3.08
Si -9.29  7.52  0.83
Si -1.78  3.19 -11.43
Si -9.35 -3.25  6.81
Si  3.73 -10.76  3.85
Si -0.02 -8.59 -8.41
Si -3.78 -10.76  3.85
Si -1.84  9.75  6.81
Si -9.29  3.19  6.97
Si  1.91 -9.76  6.81
Si  3.75  0.01 -11.46
Si  1.97 -3.31 -11.43
Si -3.76  0.01 -11.46
Si -0.00 -10.83 -5.33
Si  9.42  3.25  6.81
Si -1.84 -11.93  0.68
Si 11.24  2.25  3.85
Si 11.26  4.34  0.80
Si  1.97  9.69  6.97
Si  7.49  4.42 -8.41
Si -11.27  4.34  0.80
Si -9.35  5.42 -5.45
Si  7.51 -6.49  6.93
Si  9.48  5.36 -5.30
Si -7.51 -6.49  6.93
Si  9.42  7.58  0.68
Si  7.51  6.51  6.93
Si -7.51  6.51  6.93
Si -7.53  4.42 -8.41
Si -11.29  2.25  3.85
Si  7.49  8.75  3.85
Si -1.78 -9.82  6.97
Si -7.53  8.75  3.85
Si -1.84 -3.25 -11.59
Si  1.97 -11.98  0.83
Si  1.91  3.25 -11.59
Si  9.48 -3.31  6.97
Si -1.97 -11.86  2.98
Si 11.24 -4.26 -3.03
Si  9.29  7.65  2.98
Si  1.90 -1.15 -12.22
Si -9.36  5.35  6.17
Si  1.86  1.12 12.24
Si  0.06 10.79 -6.16
Si  0.06 -2.21 12.23
Si -1.83 11.93 -2.99
Si -11.29 -4.26 -3.03
Si -9.34  7.59  3.14
Si  9.37  5.45  6.11
Si -9.40 -5.38 -6.16
Si  9.43 -7.58 -2.99
Si 11.24  4.41  3.10
Si  1.92 -11.92  3.14
Si  0.06  2.12 -12.29
Si  0.06 -10.88  6.10
Si -1.89 -1.05 -12.29
Si  9.41 -5.49 -6.09
Si -1.85  1.02 12.30
Si -9.48 -7.52 -3.15
Si -11.29  4.41  3.10
Si  1.79 11.99 -3.15
Si  5.57 -5.36  9.90
Si  9.33 -7.53  3.77
Si  7.51  8.61 -5.36
Si 11.20 -4.39  3.81
Si  7.44 -2.22  9.94
Si -7.51  8.61 -5.36
Si -9.37  1.08 -8.42
Si -5.61  7.58 -8.42
Si 11.26  2.11 -5.36
Si -11.27  2.11 -5.36
Si -1.94  7.64  9.90
Si -9.37 -7.59  3.84
Si  1.90 11.91  3.84
Si -5.61 -5.43  9.97
Si  1.90  7.58  9.97
Si  9.33  1.14 -8.50
Si  3.69 -8.73 -8.45
Si -7.58 -2.22  9.94
Si -1.94 11.98  3.77
Si  3.75 -10.90 -5.36
Si -3.76 -10.90 -5.36
Si  5.57  7.64 -8.50
Si -3.82 -8.73 -8.45
Si -11.33 -4.39  3.81
Si -11.23  6.49  0.01
Si -11.23 -2.18 -6.12
Si -11.23  2.16  6.14
Si -3.72 10.83 -6.12
Si -11.23 -6.51  0.01
Si -3.72  2.16 -12.25
Si -7.47  8.66  6.14
Si -7.47 -8.68 -6.12
Si  0.03 12.99  0.01
Si  0.03 -4.35 -12.25
Si  3.79 10.83 -6.12
Si  3.79  2.16 -12.25
Si -3.72 -2.18 12.27
Si -3.72 -10.85  6.14
Si  0.03  4.32 12.27
Si  0.03 -13.02  0.01
Si  7.54  8.66  6.14
Si  7.54 -8.68 -6.12
Si  3.79 -2.18 12.27
Si 11.30  6.49  0.01
Si  3.79 -10.85  6.14
Si 11.30 -2.18 -6.12
Si 11.30  2.16  6.14
Si 11.30 -6.51  0.01
Si -1.78 11.86 -5.30
Si -13.05  1.02  0.83
Si -0.02 -12.92 -2.28
Si -5.54 -3.31 -11.43
Si  1.91 -1.09 12.94
Si 11.24 -6.42 -2.28
Si -5.60 -9.76  6.81
Si -5.54  9.69  6.97
Si -0.02 -8.59  9.98
Si  5.72  3.19 -11.43
Si -0.00 -6.49 -11.46
