500
set: 1006.00  0.00  0.00
Si -0.37  1.22 -0.89
Si  0.45 -1.21  0.90
Si -1.32 -1.12 -0.84
Si  1.37  1.28  0.82
Si  2.18 -1.19 -0.82
Si -2.16  1.25  0.83
Si  0.89  0.02 -2.55
Si -0.92 -0.01  2.60
Si -3.16 -1.17  0.80
Si  0.01  2.36  2.54
Si  3.18  1.23 -0.79
Si -0.07 -2.48 -2.51
Si  2.60 -0.03  2.47
Si -2.69 -0.00 -2.48
Si -0.52 -3.57  0.82
Si  0.57  3.73 -0.84
Si  1.82  2.38 -2.51
Si  1.30 -3.63 -0.79
Si -1.80  2.37 -2.59
Si -1.27  3.68  0.80
Si  1.80 -2.52  2.51
Si -1.88 -2.50  2.54
Si -4.01  1.23 -0.79
Si -0.94 -0.07 -4.17
Si  4.04 -1.17  0.80
Si  0.87 -0.05  4.20
Si -2.25 -3.63 -0.89
Si  2.34  3.65  0.90
Si  0.03  2.41 -4.11
Si -0.05 -2.41  4.16
Si  3.15 -3.60  0.83
Si -3.12  3.66 -0.82
Si -3.51  2.34  2.51
Si -2.74 -0.06  4.12
Si  2.74 -0.09 -4.19
Si  3.51 -2.48 -2.59
Si  3.68  2.34  2.51
Si -1.86 -2.44 -4.11
Si  4.50 -0.00 -2.48
Si -3.68 -2.48 -2.59
Si  1.83  2.44  4.16
Si  1.66 -2.45 -4.23
Si -1.75  2.43  4.22
Si -4.59 -0.03  2.47
Si -5.01 -1.19 -0.82
Si  5.03  1.25  0.83
Si -4.04 -3.60  0.83
Si -0.81  4.85 -2.48
Si  0.72 -4.88  2.47
Si  4.07  3.66 -0.82
Si -1.00 -4.84 -2.55
Si  0.97  4.84  2.60
Si  0.43 -1.15 -5.89
Si -0.38  1.30  5.87
Si -5.83  1.28  0.82
Si  3.55  2.40 -4.23
Si  3.56 -2.43  4.22
Si  5.87 -1.12 -0.84
Si  2.62 -4.86 -2.48
Si -2.70  4.83  2.47
Si  4.45 -0.06  4.12
Si -1.31 -1.20  5.81
Si -3.64 -2.43  4.22
Si -3.65  2.40 -4.23
Si  1.39  1.22 -5.81
Si  0.30 -6.04 -0.82
Si -4.45 -0.09 -4.19
Si -4.86  3.65  0.90
Si  2.77  4.87 -2.55
Si -0.28  6.11  0.83
Si -2.80 -4.87  2.60
Si  4.94 -3.63 -0.89
Si -1.43 -6.06  0.90
Si  1.52  6.08 -0.89
Si -0.86  4.80  4.12
Si -5.38  2.38 -2.51
Si  5.32 -2.50  2.54
Si  0.95  4.79 -4.17
Si  5.39  2.37 -2.59
Si -2.22  1.25 -5.91
Si  2.24 -1.20  5.92
Si  2.15 -6.03  0.80
Si -5.39 -2.52  2.51
Si -2.13  6.08 -0.79
Si -1.01 -4.90  4.20
Si  0.86 -4.94 -4.19
Si -3.10 -1.18 -5.87
Si  3.13  1.24  5.89
Si  6.28 -0.01  2.60
Si -6.30  0.02 -2.55
Si -3.20 -5.98 -0.84
Si -2.57  4.76 -4.19
Si -0.49 -3.64 -5.81
Si  0.58  3.65  5.81
Si  2.57 -4.91  4.12
Si -6.74 -1.21  0.90
Si  2.76  4.80  4.20
Si -5.90 -3.63 -0.79
Si  6.83  1.22 -0.89
Si  3.25  6.14  0.82
Si  5.92  3.68  0.80
Si  1.24 -3.62  5.89
Si -1.22  3.68 -5.87
Si -2.82 -4.92 -4.17
Si  4.49  4.83  2.47
Si  4.39 -4.87  2.60
Si -4.42  4.87 -2.55
Si -4.58 -4.86 -2.48
Si  5.33 -2.44 -4.11
Si -5.36  2.44  4.16
Si -2.26 -3.55  5.87
Si  3.99 -5.98 -0.84
Si  4.09 -1.18 -5.87
Si -4.07  1.24  5.89
Si  5.44  2.43  4.22
Si  2.31  3.71 -5.89
Si -3.94  6.14  0.82
Si -5.53 -2.45 -4.23
Si  6.26 -0.07 -4.17
Si  3.09 -3.60 -5.91
Si -6.32 -0.05  4.20
Si -3.07  3.65  5.92
Si  6.68 -3.57  0.82
Si  0.43 -1.15  7.53
Si -6.63  3.73 -0.84
Si -0.38  1.30 -7.55
Si  0.09  7.22 -2.59
Si -7.56  1.22 -0.89
Si -4.43  4.80  4.20
Si -0.09 -7.37  2.51
Si -1.62  7.19  2.51
Si  7.64 -1.21  0.90
Si  4.37 -4.92 -4.17
Si -1.31 -1.20 -7.60
Si -4.95 -1.20  5.92
Si  1.39  1.22  7.61
Si  4.98  1.25 -5.91
Si  4.63  4.76 -4.19
Si  1.89  7.21  2.54
Si -5.04 -6.03  0.80
Si -4.63 -4.91  4.12
Si  2.24 -1.20 -7.50
Si -2.21  1.25  7.50
Si  1.62 -7.34 -2.59
Si  7.12 -2.48 -2.51
Si  5.07  6.08 -0.79
Si -7.19  2.36  2.54
Si  7.20  2.36  2.54
Si -1.95 -7.33 -2.51
Si -4.10 -3.60 -5.91
Si -7.26 -2.48 -2.51
Si  4.12  3.65  5.92
Si -3.10 -1.18  7.54
Si  3.12  1.24 -7.53
Si  6.20 -4.84 -2.55
Si -5.80  1.22 -5.81
Si -6.23  4.84  2.60
Si  5.89 -1.20  5.81
Si -5.67  6.08 -0.89
Si  6.38  4.85 -2.48
Si  5.76 -6.06  0.90
Si -3.49  7.23 -2.51
Si  0.13  7.28  4.22
Si  1.24 -3.62 -7.53
Si -0.49 -3.64  7.61
Si  4.93 -3.55  5.87
Si -0.22 -7.31 -4.23
Si  0.58  3.65 -7.60
Si  0.35 -6.06  5.92
Si  8.08  0.02 -2.55
Si -6.47 -4.88  2.47
Si -1.22  3.68  7.54
Si  3.43 -7.35  2.54
Si -4.88  3.71 -5.89
Si  3.70  7.23 -2.51
Si -0.33  6.11 -5.91
Si -8.11 -0.01  2.60
Si -1.46 -6.00 -5.89
Si -7.71 -3.57  0.82
Si -0.59 -8.48 -0.79
Si  1.91  7.27 -4.11
Si -1.76  7.26 -4.23
Si  1.67 -7.28  4.22
Si  1.26 -8.46  0.83
Si -1.94 -7.27  4.16
Si  0.61  8.54  0.80
Si  7.14 -2.41  4.16
Si -7.17  2.41 -4.11
Si -8.51 -1.12 -0.84
Si  1.51  6.16  5.87
Si -3.76 -7.35  2.54
Si -2.26 -3.55 -7.55
Si -4.07  1.24 -7.53
Si -1.24  8.52 -0.82
Si  7.22  2.41 -4.11
Si  7.76  3.73 -0.84
Si  4.09 -1.18  7.54
Si  8.56  1.28  0.82
Si -7.25 -2.41  4.16
Si  2.21 -6.03 -5.87
Si  2.31  3.71  7.53
Si -2.18  6.09  5.89
Si -2.40 -8.43  0.82
Si  3.09 -3.60  7.50
Si -3.07  3.65 -7.50
Si -6.25  4.79 -4.17
Si  6.18 -4.90  4.20
Si  6.34  4.80  4.12
Si  2.45  8.59 -0.84
Si -3.19 -6.06  5.81
Si  3.28  6.07 -5.81
Si -6.77 -1.15 -5.89
Si -2.97  8.50  0.90
Si  3.45 -7.29 -4.11
Si  3.06 -8.49 -0.89
Si -6.34 -4.94 -4.19
Si -4.96 -1.20 -7.50
Si  6.82  1.30  5.87
Si  4.98  1.25  7.50
Si -3.48  7.30  4.16
Si  8.07 -0.05  4.20
Si -5.95 -3.62  5.89
Si -8.13 -0.07 -4.17
Si  5.98  3.68 -5.87
Si -3.75 -7.29 -4.11
Si  3.72  7.30  4.16
Si -6.89 -6.04 -0.82
Si  0.87 -0.05 -9.21
Si  6.92  6.11  0.83
Si  8.49 -3.63 -0.79
Si -8.47  3.68  0.80
Si -3.92  6.07 -5.81
Si -4.10 -3.60  7.50
Si -0.94 -0.07  9.24
Si  4.00 -6.06  5.81
Si  4.12  3.65 -7.50
Si -5.30  7.21  2.54
Si  5.24 -7.33 -2.51
Si  5.57  7.19  2.51
Si -9.35  1.25  0.83
Si -4.14 -8.49 -0.89
Si  9.38 -1.19 -0.82
Si -6.62  3.65  5.81
Si  4.22  8.50  0.90
Si -0.06 -2.41 -9.25
Si -5.57 -7.34 -2.59
Si  6.70 -3.64 -5.81
Si  0.03  2.41  9.30
Si  2.74 -0.09  9.22
Si  7.91 -4.88  2.47
Si -5.80  1.22  7.61
Si  0.35 -6.06 -7.50
Si  1.66 -2.45  9.18
Si  9.01  2.38 -2.51
Si -8.99  2.37 -2.59
Si  7.49 -6.04 -0.82
Si -1.75  2.42 -9.19
Si -7.57  1.30  5.87
Si  8.99 -2.52  2.51
Si -0.33  6.11  7.50
Si -8.00  4.85 -2.48
Si -7.47  6.11  0.83
Si  5.88 -1.20 -7.60
Si -2.74 -0.06 -9.29
Si  4.93 -3.55 -7.55
Si  7.62 -1.15 -5.89
Si -4.88  3.71  7.53
Si  4.79 -8.43  0.82
Si -1.46 -6.00  7.53
Si -9.07 -2.50  2.54
Si  1.83  2.44 -9.25
Si -4.99 -6.03 -5.87
Si -1.86 -2.44  9.30
Si  8.16  4.84  2.60
Si  5.01  6.09  5.89
Si -4.74  8.59 -0.84
Si -8.19 -4.84 -2.55
Si  1.51  6.16 -7.55
Si -5.28  7.27 -4.11
Si  5.25 -7.27  4.16
Si  2.21 -6.03  7.54
Si -2.18  6.09 -7.53
Si  5.43  7.26 -4.23
Si -0.82  9.68  2.47
Si  0.73 -9.71 -2.48
Si -5.52 -7.28  4.22
Si  1.08  9.71 -2.48
Si  9.80 -0.03  2.47
Si -1.17 -9.73  2.47
Si  8.86 -2.45 -4.23
Si  3.55  2.40  9.18
Si  3.56 -2.43 -9.19
Si -9.44 -3.63 -0.89
Si -3.65  2.40  9.18
Si  5.73 -6.00 -5.89
Si -3.64 -2.43 -9.19
Si -8.95  2.43  4.22
Si -6.77 -1.15  7.53
Si -9.89 -0.00 -2.48
Si -5.68  6.16  5.87
Si -3.19 -6.06 -7.60
Si  9.03  2.44  4.16
Si -9.05 -2.44 -4.11
Si -8.05  4.80  4.12
Si -4.45 -0.09  9.22
Si  9.53  3.65  0.90
Si  6.82  1.30 -7.55
Si -5.95 -3.62 -7.53
Si  3.28  6.07  7.61
Si -7.69 -3.64 -5.81
Si  5.98  3.68  7.54
Si  4.45 -0.06 -9.29
Si  8.14  4.79 -4.17
Si  8.05 -4.94 -4.19
Si -0.64 -8.47  5.89
Si -5.93 -8.46  0.83
Si  7.77  3.65  5.81
Si -2.54  9.72 -2.55
Si -8.50 -1.20  5.81
Si  2.51 -9.72  2.60
Si  0.67  8.53 -5.87
Si  1.21 -8.46 -5.91
Si  5.95  8.52 -0.82
Si -2.88 -9.69 -2.55
Si -1.18  8.51  5.92
Si  2.85  9.70  2.60
Si  8.59  1.22 -5.81
Si -8.20 -4.90  4.20
Si -10.35 -1.17  0.80
Si  0.95  4.79  9.24
Si -7.11  7.22 -2.59
Si 10.38  1.23 -0.79
Si -1.01 -4.90 -9.21
Si -3.92  6.07  7.61
Si -0.86  4.80 -9.29
Si  0.86 -4.94  9.22
Si  4.00 -6.06 -7.60
Si -0.68  9.62 -4.19
Si  7.11 -7.37  2.51
Si  1.03  9.65  4.12
Si -2.38 -8.49 -5.81
Si  7.28  7.22 -2.59
Si -8.63 -6.06  0.90
Si  2.46  8.51  5.81
Si  0.68 -9.77  4.12
Si -7.28 -7.37  2.51
Si  8.71  6.08 -0.89
Si -2.57  4.77  9.22
Si  3.05 -8.40  5.87
Si -1.03 -9.80 -4.19
Si -6.62  3.65 -7.60
Si  2.76  4.80 -9.21
Si -9.94 -0.06  4.12
Si -7.57  1.30 -7.55
Si  6.70 -3.64  7.61
Si  7.62 -1.15  7.53
Si  6.61 -8.48 -0.79
Si  9.93 -0.09 -4.19
Si -6.58  8.54  0.80
Si -3.00  8.56 -5.89
Si  2.57 -4.91 -9.29
Si -2.55  9.66  4.20
Si -2.82 -4.92  9.24
Si -0.92 -0.01 -10.81
Si -4.99 -6.03  7.54
Si  2.83  9.64 -4.17
Si -6.84 -6.06  5.92
Si -8.41  3.68 -5.87
Si  0.89  0.02 10.86
Si  5.01  6.09 -7.53
Si  8.44 -3.62  5.89
Si  4.31 -9.69 -2.55
Si  0.27 -10.88  0.80
Si  2.49 -9.78 -4.17
Si  6.86  6.11 -5.91
Si -4.34  9.70  2.60
Si  6.97 -7.31 -4.23
Si  5.44  2.42 -9.19
Si -0.24 10.94 -0.79
Si -5.36  2.44 -9.25
Si -10.32  3.66 -0.82
Si 10.34 -3.60  0.83
Si -7.06  7.28  4.22
Si -5.53 -2.45  9.18
Si  5.33 -2.44  9.30
Si -2.90 -9.76  4.20
Si -1.59 -10.90 -0.82
Si -4.15 -8.40  5.87
Si  2.10 -10.83 -0.84
Si  4.66  9.72 -2.55
Si -4.69 -9.72  2.60
Si  1.61 10.96  0.83
Si  0.01  2.36 -10.88
Si  9.34 -6.03  0.80
Si -9.32  6.08 -0.79
Si  7.33  7.28  4.22
Si  6.26 -0.07  9.24
Si -6.32 -0.05 -9.21
Si -0.07 -2.48 10.90
Si -9.41  1.25 -5.91
Si  9.43 -1.20  5.92
Si  5.74 -6.00  7.53
Si  4.20  8.56 -5.89
Si -2.06 10.99  0.82
Si  9.81 -4.86 -2.48
Si -1.80  2.37 10.83
Si -7.42 -7.31 -4.23
Si -10.70  2.34  2.51
Si  2.60 -0.03 -10.94
Si -2.69 -0.00 10.93
Si -5.69  6.16 -7.55
Si -9.90  4.83  2.47
Si 10.70 -2.48 -2.59
Si -4.43  4.80 -9.21
Si -11.21  1.23 -0.79
Si  1.82  2.38 10.90
Si -1.88 -2.50 -10.88
Si 11.23 -1.17  0.80
Si  1.80 -2.52 -10.90
Si -4.73  8.51  5.81
Si  7.55 -6.06  5.92
Si  4.37 -4.92  9.24
Si -0.65 -8.47 -7.53
Si -7.53  6.11 -5.91
Si  4.82 -8.49 -5.81
Si  4.63  4.77  9.22
Si  1.21 -8.45  7.50
Si -4.36  9.64 -4.17
Si  9.97  4.87 -2.55
Si -1.19  8.51 -7.50
Si 10.88  2.34  2.51
Si -7.68 -3.64  7.61
Si  0.67  8.53  7.54
Si -10.00 -4.87  2.60
Si -3.32 -10.92  0.90
Si -10.88 -2.48 -2.59
Si  4.30 -9.76  4.20
Si  7.77  3.65 -7.60
Si -8.50 -1.20 -7.60
Si -4.63 -4.91 -9.29
Si  3.40 10.93 -0.89
Si  4.64  9.66  4.20
Si  8.59  1.22  7.61
Si -7.78 -8.48 -0.79
Si  7.80  8.54  0.80
Si -3.79 10.93 -0.89
Si  3.87 -10.92  0.90
Si -4.71 -9.78 -4.17
Si -2.38 -8.49  7.61
Si -9.76  4.76 -4.19
Si  3.51 -2.48 10.83
Si -8.82  7.19  2.51
Si  2.46  8.50 -7.60
Si  9.76 -4.91  4.12
Si -9.46 -3.55  5.87
Si -3.51  2.34 -10.90
Si  3.05 -8.40 -7.55
Si -3.68 -2.48 10.83
Si  6.03 -9.73  2.47
Si  0.13  7.28 -9.19
Si -0.22 -7.31  9.18
Si -6.12  9.71 -2.48
Si  3.68  2.34 -10.90
Si  8.82 -7.34 -2.59
Si  9.50  3.71 -5.89
Si -3.00  8.56  7.53
Si 10.74  2.40 -4.23
Si 10.75 -2.43  4.22
Si -6.84 -6.06 -7.50
Si  4.50 -0.00 10.93
Si  9.95  4.80  4.20
Si -11.24 -3.60  0.83
Si -1.76  7.26  9.18
Si  1.67 -7.28 -9.19
Si  6.38  9.68  2.47
Si  6.86  6.11  7.50
Si -4.59 -0.03 -10.94
Si  8.43 -3.62 -7.53
Si 11.26  3.66 -0.82
Si  9.09  7.21  2.54
Si -10.83 -2.43  4.22
Si -8.41  3.68  7.54
Si -10.84  2.40 -4.23
Si  0.97  4.84 -10.81
Si -10.30 -1.18 -5.87
Si -10.02 -4.92 -4.17
Si -1.94 -7.27 -9.25
Si -6.46 -9.71 -2.48
Si -5.99 -8.46 -5.91
Si  7.14 -2.41 -9.25
Si -1.00 -4.84 10.86
Si 10.32  1.24  5.89
Si 11.69 -0.00 -2.48
Si  1.91  7.27  9.30
Si  6.01  8.51  5.92
Si -0.81  4.85 10.93
Si -9.15 -7.33 -2.51
Si  8.46 -8.46  0.83
Si -7.17  2.41  9.30
Si -5.09 -10.83 -0.84
