500
set: 388.00  0.00  0.00
Si -0.07 -0.07  0.04
Si -0.02  0.06 -2.21
Si  1.84  1.01  0.77
Si -1.87  1.07  0.77
Si -0.04 -2.18  0.77
Si  1.80 -1.05 -2.97
Si  1.83  3.14 -0.02
Si  3.65  0.02 -0.04
Si -1.84 -1.07 -2.98
Si  0.05 -2.10  3.02
Si -1.84  3.20  0.00
Si  1.86 -3.21  0.00
Si  0.05  2.17 -3.03
Si  1.86  1.06  3.06
Si -3.75  0.02 -0.04
Si -1.87 -3.27 -0.02
Si -1.90  1.09  3.07
Si -3.68 -2.05  0.65
Si -1.80  3.19 -2.24
Si  3.72 -2.05  0.65
Si -1.75 -3.22 -2.28
Si -0.02  2.17  3.75
Si  3.68  0.03 -2.29
Si -1.80 -1.08  3.81
Si  1.91 -3.21 -2.24
Si -3.72  0.03 -2.29
Si  1.95 -1.09  3.76
Si  1.95  3.19 -2.28
Si  0.02  4.36  0.65
Si -3.64 -2.11  2.97
Si  0.06  4.30  2.97
Si -3.64  2.17 -3.07
Si  3.76 -2.11  2.97
Si  0.06 -4.24 -3.07
Si  3.76  2.17 -3.07
Si  3.66  4.23  0.77
Si -0.04  2.09 -5.27
Si  1.83 -1.07 -5.27
Si  5.53  1.07  0.77
Si -0.02 -4.22  3.83
Si  1.83 -5.34  0.77
Si -3.74  4.23  0.77
Si -1.86 -1.13 -5.27
Si -5.57  1.01  0.77
Si  3.68  2.19  3.83
Si -1.86 -5.40  0.77
Si -3.72  2.19  3.83
Si -3.65 -4.24 -3.03
Si -0.05  2.15  6.00
Si  1.86  5.34 -2.98
Si  5.50  1.09  3.07
Si -5.57  3.14 -0.02
Si -0.05 -6.39 -0.04
Si  1.83 -1.13  6.02
Si  5.56 -1.07 -2.98
Si -5.54 -3.21  0.00
Si  1.80 -5.32  3.07
Si -3.66  4.31  3.02
Si  1.86  1.07 -6.04
Si -1.84 -1.07  6.05
Si  3.75 -4.24 -3.03
Si -1.90  5.36 -2.97
Si  5.57  3.20  0.00
Si -1.87  1.01 -6.06
Si -5.55  1.06  3.06
Si -0.05  6.43 -0.04
Si  5.54 -3.27 -0.02
Si -5.60 -1.05 -2.97
Si -1.84 -5.35  3.06
Si -0.05 -2.12 -6.09
Si  3.75  4.31  3.02
Si  0.02  0.08  6.70
Si -5.45  3.19 -2.28
Si -5.45 -1.09  3.76
Si -5.50 -3.21 -2.24
Si -1.75  5.32  3.76
Si  3.68 -4.25  3.75
Si -3.72 -4.25  3.75
Si -0.02 -6.38 -2.29
Si  1.91  5.33  3.81
Si  0.02 -4.19 -5.39
Si  5.61  3.19 -2.24
Si -0.02  6.44 -2.29
Si  5.61 -1.08  3.81
Si  5.65 -3.22 -2.28
Si -3.68  2.22 -5.39
Si  3.72  2.22 -5.39
Si  3.63  6.34  0.04
Si -0.07  4.21 -6.00
Si  7.33 -0.07  0.04
Si  3.63 -2.21 -6.00
Si -3.77  6.34  0.04
Si  3.63  2.07  6.09
Si -3.77 -2.21 -6.00
Si  3.63 -6.48  0.04
Si -3.77  2.07  6.09
Si -7.47 -0.07  0.04
Si -0.07 -4.34  6.09
Si -3.77 -6.48  0.04
Si  3.68 -6.35 -2.21
Si  1.84  5.28 -5.27
Si -3.72 -6.35 -2.21
Si -1.86  7.42  0.77
Si  7.38  0.06 -2.21
Si  7.36 -2.18  0.77
Si  5.54 -1.13 -5.27
Si -1.86  3.15  6.81
Si  3.66 -4.32 -5.27
Si -1.87  5.34 -5.27
Si  1.83  7.48  0.77
Si  3.66 -0.04  6.82
Si -7.42  0.06 -2.21
Si  1.83  3.20  6.81
Si -5.57 -1.07 -5.27
Si -1.87 -3.21  6.81
Si -5.57 -5.34  0.77
Si  3.68  6.47 -2.21
Si -3.74 -4.32 -5.27
Si  5.54 -5.40  0.77
Si  1.84 -3.26  6.81
Si -3.74 -0.04  6.82
Si -3.72  6.47 -2.21
Si -7.44 -2.18  0.77
Si  3.65 -4.26  6.00
Si -7.36 -2.10  3.02
Si -1.87  5.28  6.02
Si  5.50  5.36 -2.97
Si -7.36  2.17 -3.03
Si -1.90 -7.46 -2.97
Si -5.55  5.34 -2.98
Si -3.75 -4.26  6.00
Si -5.54  1.07 -6.04
Si  1.86 -7.48 -2.98
Si -1.84 -5.34 -6.04
Si  5.54  1.01 -6.06
Si -5.57 -1.13  6.02
Si  1.86  5.34  6.05
Si -1.85  7.47  3.06
Si  5.57 -1.07  6.05
Si  3.65  4.29 -6.09
Si  5.56 -5.35  3.06
Si  1.80  7.50  3.07
Si  7.45 -2.10  3.02
Si -5.60 -5.32  3.07
Si  1.83 -5.40 -6.06
Si  7.45  2.17 -3.03
Si -3.75  4.29 -6.09
Si  0.02 -8.46  0.65
Si -5.50  5.33  3.81
Si  7.38  2.17  3.75
Si  1.91  1.06 -8.28
Si -1.75  1.05 -8.32
Si -1.75 -7.50  3.76
Si -7.42  2.17  3.75
Si -7.38  4.36  0.65
Si -0.02 -2.11 -8.34
Si  1.91 -7.49  3.81
Si  5.65  5.32  3.76
Si  7.42  4.36  0.65
Si -7.34  4.30  2.97
Si  0.06  0.03  9.01
Si -7.34 -4.24 -3.07
Si  0.06 -8.52  2.97
Si  0.06  8.58 -3.07
Si  7.46  4.30  2.97
Si  0.06  0.03 -9.12
Si  7.46 -4.24 -3.07
Si  3.68 -2.08 -8.26
Si  5.54  7.42  0.77
Si -3.72 -2.08 -8.26
Si  7.36  2.09 -5.27
Si -5.57  5.28 -5.27
Si -0.02  4.33 -8.26
Si  5.53  5.34 -5.27
Si  7.38 -4.22  3.83
Si  9.24  1.01  0.77
Si  5.54  3.15  6.81
Si -0.04  6.37  6.82
Si  5.53 -3.21  6.81
Si -1.87 -7.48 -5.27
Si -7.42 -4.22  3.83
Si -7.44  2.09 -5.27
Si -5.57  7.48  0.77
Si -5.57  3.20  6.81
Si -9.27  1.07  0.77
Si  3.66 -8.59  0.77
Si  1.84 -7.54 -5.27
Si -5.57 -3.26  6.81
Si -0.04 -6.45  6.82
Si -3.74 -8.59  0.77
Si -0.02  8.61  3.83
Si  9.20 -1.05 -2.97
Si  7.35  2.15  6.00
Si  5.50 -7.46 -2.97
Si -1.87  9.55 -0.02
Si  5.54  5.28  6.02
Si -3.65 -8.51  3.02
Si  1.80  3.22 -9.02
Si  7.35 -6.39 -0.04
Si -1.90 -3.19 -9.02
Si -1.84  3.20 -9.03
Si  1.83  7.42 -6.06
Si  9.24  3.14 -0.02
Si  1.86 -3.21 -9.03
Si  7.35  6.43 -0.04
Si -3.66  0.04  9.06
Si  3.75 -8.51  3.02
Si -9.25 -1.07 -2.98
Si  7.35 -2.12 -6.09
Si -9.24  3.20  0.00
Si -3.65  0.04 -9.07
Si -5.55 -7.48 -2.98
Si -1.84  7.48 -6.04
Si -5.54  5.34  6.05
Si -1.84 -9.62  0.00
Si  1.86  9.61  0.00
Si  1.86 -7.48  6.05
Si  5.57 -5.34 -6.04
Si  5.56  7.47  3.06
Si  3.75  0.04  9.06
Si  9.27 -3.21  0.00
Si -7.45  2.15  6.00
Si  9.26  1.06  3.06
Si -3.66  8.58 -3.03
Si  3.75  0.04 -9.07
Si -7.45 -6.39 -0.04
Si -1.85  3.20  9.10
Si -9.27 -3.27 -0.02
Si  1.85 -3.21  9.10
Si -1.87 -7.54  6.02
Si  1.80  3.22  9.11
Si -1.90 -3.19  9.11
Si -7.45  6.43 -0.04
Si  3.75  8.58 -3.03
Si -5.57 -5.40 -6.06
Si  1.83 -9.68 -0.02
Si -5.60  7.50  3.07
Si -7.45 -2.12 -6.09
Si -9.30  1.09  3.07
Si -3.68 -6.33  6.70
Si  3.72 -6.33  6.70
Si -7.38  0.08  6.70
Si -9.15 -3.22 -2.28
Si -9.20  3.19 -2.24
Si -5.50  1.06 -8.28
Si  7.42  0.08  6.70
Si -9.20 -1.08  3.81
Si -0.02 -2.11  9.79
Si -1.75  1.05  9.81
Si -1.75  9.60 -2.28
Si -1.79 -5.35 -8.28
Si -3.68  6.49  6.70
Si  7.39 -6.38 -2.29
Si -5.50 -7.49  3.81
Si -1.79 -9.62 -2.24
Si  3.72  6.49  6.70
Si  1.91  9.61 -2.24
Si -7.42 -6.38 -2.29
Si -7.38 -4.19 -5.39
Si  3.68  8.57  3.75
Si  7.38  6.44 -2.29
Si -3.72  8.57  3.75
Si  3.69  4.30 -8.34
Si -7.42  6.44 -2.29
Si  7.43 -4.19 -5.39
Si  1.91  1.06  9.85
Si  1.95 -5.36 -8.32
Si  1.95 -9.63 -2.28
Si -3.72  4.30 -8.34
Si  9.31 -3.21 -2.24
Si  5.65  1.05 -8.32
Si  5.65 -7.50  3.76
Si  9.35 -1.09  3.76
Si  9.35  3.19 -2.28
Si  0.02  8.63 -5.39
Si  7.33  4.21 -6.00
Si -0.07  8.48  6.09
Si -7.47  4.21 -6.00
Si  7.33 -4.34  6.09
Si -0.07 -8.62 -6.00
Si -7.47 -4.34  6.09
Si  3.66  8.50 -5.27
Si -0.04 10.64  0.77
Si -3.74  8.50 -5.27
Si  9.23 -1.07 -5.27
Si  5.53 -7.48 -5.27
Si  9.23 -5.34  0.77
Si -9.27 -1.13 -5.27
Si  3.68 -2.08  9.87
Si -5.57 -7.54 -5.27
Si -9.27 -5.40  0.77
Si -3.72 -2.08  9.87
Si -0.02  4.33  9.87
Si  5.50 -3.19 -9.02
Si  5.54  9.55 -0.02
Si 11.05  0.02 -0.04
Si  9.20 -5.32  3.07
Si  0.05 -10.65 -3.03
Si -5.55 -3.21 -9.03
Si  5.56  3.20 -9.03
Si  3.65  8.56  6.00
Si  0.05 -6.37  9.06
Si -5.57  7.42 -6.06
Si  9.24 -1.13  6.02
Si  0.05 -6.37 -9.07
Si -9.24 -1.07  6.05
Si -5.60  3.22 -9.02
Si  9.26  5.34 -2.98
Si -5.54  9.61  0.00
Si  3.65 -8.53 -6.09
Si -5.54 -7.48  6.05
Si  5.57  7.48 -6.04
Si -3.75  8.56  6.00
Si  5.50 -3.19  9.11
Si  5.57 -9.62  0.00
Si -9.25 -5.35  3.06
Si  9.27  1.07 -6.04
Si  0.04  6.45  9.06
Si -9.27  1.01 -6.06
Si  5.54 -7.54  6.02
Si  0.05  6.45 -9.07
Si -3.75 -8.53 -6.09
Si -5.55 -3.21  9.10
Si  5.56  3.20  9.10
Si  0.04 10.72  3.02
Si -9.30  5.36 -2.97
Si -11.15  0.02 -0.04
Si -5.57 -9.68 -0.02
Si -5.60  3.22  9.11
Si -9.16  5.32  3.76
Si -7.38 -8.46  0.65
Si  7.43 -8.46  0.65
Si -11.08 -2.05  0.65
Si -5.50  9.61 -2.24
Si -1.79  7.47 -8.28
Si -0.02 -10.66  3.75
Si -5.45 -5.36 -8.32
Si -5.45 -9.63 -2.28
Si  3.68  4.30  9.79
Si 11.09  0.03 -2.29
Si -3.72  4.30  9.79
Si -5.50  1.06  9.85
Si 11.13 -2.05  0.65
Si  7.39 -2.11 -8.34
Si  5.61 -5.35 -8.28
Si  1.95 -5.36  9.81
Si  1.95  7.46 -8.32
Si -1.80 -5.35  9.85
Si -11.12  0.03 -2.29
Si -7.42 -2.11 -8.34
Si  5.61 -9.62 -2.24
Si  5.65  1.05  9.81
Si  5.65  9.60 -2.28
Si  9.31  5.33  3.81
Si -3.68 10.77  0.65
Si  3.72 10.77  0.65
Si  0.02  0.08 -11.43
Si -7.34  0.03  9.01
Si -11.04 -2.11  2.97
Si -3.64 -6.38  9.01
Si -7.34 -8.52  2.97
Si -3.64  6.44  9.01
Si -11.04  2.17 -3.07
Si  3.76 -6.38  9.01
Si -3.64 -10.65 -3.07
Si -3.64 10.71  2.97
Si  3.76  6.44  9.01
Si -7.34  8.58 -3.07
Si  7.46  0.03  9.01
Si -7.34  0.03 -9.12
Si  7.46 -8.52  2.97
Si -3.64 -6.38 -9.12
Si  3.76 -10.65 -3.07
Si  3.76 10.71  2.97
Si -3.64  6.44 -9.12
Si 11.16 -2.11  2.97
Si  3.76 -6.38 -9.12
Si  7.46  8.58 -3.07
Si  3.76  6.44 -9.12
Si 11.16  2.17 -3.07
Si  7.46  0.03 -9.12
Si -0.02 -8.49 -8.26
Si 11.06  4.23  0.77
Si  9.24  5.28 -5.27
Si  1.84  9.56  6.81
Si  3.68 -10.63  3.83
Si  7.36  6.37  6.82
Si  3.66 -0.04 -11.31
Si -1.86  3.15 -11.31
Si  7.38  4.33 -8.26
Si -3.72 -10.63  3.83
Si -9.27  7.42  0.77
Si  1.83  3.20 -11.32
Si  9.23  7.48  0.77
Si -1.87 -3.21 -11.32
Si  9.23  3.20  6.81
Si -7.42  4.33 -8.26
Si -3.74 -0.04 -11.31
Si  1.84 -3.26 -11.31
Si  1.83 -9.62  6.81
Si -9.27  3.15  6.81
Si -1.87 -11.75  0.77
Si  7.36 -6.45  6.82
Si 11.08  2.19  3.83
Si -1.87  9.61  6.81
Si -9.27  5.34 -5.27
Si -7.44  6.37  6.82
Si  9.24 -3.26  6.81
Si -11.14  4.23  0.77
Si -9.27 -3.21  6.81
Si -0.04 -10.73 -5.27
Si -11.12  2.19  3.83
Si  7.38  8.61  3.83
Si  1.84 -11.81  0.77
Si -1.86 -9.67  6.81
Si -7.44 -6.45  6.82
Si -7.42  8.61  3.83
Si -11.06 -4.24 -3.03
Si -0.05 -2.12 12.04
Si -0.05 -10.67  6.00
Si -11.06  4.31  3.02
Si -9.27  5.28  6.02
Si -1.87  1.01 12.07
Si  9.20  7.50  3.07
Si -1.85 11.75 -2.98
Si -9.24 -5.34 -6.04
Si -1.84 -1.07 -12.08
Si  1.80 11.77 -2.97
Si  9.26 -7.48 -2.98
Si -9.25  7.47  3.06
Si -1.90 -11.73  3.07
Si  1.86  1.07 12.09
Si  9.27  5.34  6.05
Si  1.86 -11.76  3.06
Si -9.30 -7.46 -2.97
Si  1.83 -1.13 -12.11
Si  9.24 -5.40 -6.06
Si 11.15 -4.24 -3.03
Si -0.05 10.70 -6.09
Si -0.05  2.15 -12.13
Si 11.15  4.31  3.02
Si -9.15  1.05 -8.32
Si -9.15 -7.50  3.76
Si -5.45  7.46 -8.32
Si -5.45 -5.36  9.81
Si  7.38 -2.11  9.79
Si -3.68 -10.60 -5.39
Si 11.09 -4.25  3.75
Si  3.73 -10.60 -5.39
Si -7.42 -2.11  9.79
Si -1.80 11.74  3.81
Si  1.95  7.46  9.81
Si  1.95 11.73  3.76
Si  3.69 -8.52 -8.34
Si -11.12 -4.25  3.75
Si  5.61  7.47 -8.28
Si -3.72 -8.52 -8.34
Si -1.80  7.47  9.85
Si  9.31  1.06 -8.28
Si -11.08  2.22 -5.39
Si  5.61 -5.35  9.85
Si  9.31 -7.49  3.81
Si 11.13  2.22 -5.39
Si -7.38  8.63 -5.39
Si  7.42  8.63 -5.39
Si  3.63 10.62 -6.00
Si 11.04  6.34  0.04
Si  3.63  2.07 -12.04
Si 11.04 -2.21 -6.00
Si -0.07 12.75  0.04
Si  7.33  8.48  6.09
Si -3.77 10.62 -6.00
Si 11.04  2.07  6.09
Si -3.77  2.07 -12.04
Si 11.04 -6.48  0.04
Si -0.07 -4.34 -12.04
Si  7.33 -8.62 -6.00
Si -7.47  8.48  6.09
Si -0.07  4.21 12.13
Si -11.17  6.34  0.04
Si  3.63 -2.20 12.13
Si -11.17 -2.21 -6.00
Si  3.63 -10.75  6.09
Si -7.47 -8.62 -6.00
Si -0.07 -12.89  0.04
Si -11.17  2.07  6.09
Si -3.77 -2.20 12.13
Si -11.17 -6.48  0.04
Si -3.77 -10.75  6.09
Si -0.02 -12.76 -2.21
Si  7.36 10.64  0.77
Si -1.86 11.69 -5.27
Si 11.08 -6.35 -2.21
Si -0.04  6.37 -11.31
Si  5.54  3.15 -11.31
Si -5.57  9.56  6.81
Si 11.06 -4.32 -5.27
Si 11.06 -0.04  6.82
Si  5.53 -3.21 -11.32
Si -11.12 -6.35 -2.21
