500
set: 235.00  0.00  0.00
Si  0.01  0.00  0.02
Si  1.83  1.02  0.76
Si -0.08  0.01 -2.23
Si  0.02 -2.10  0.77
Si -1.81  1.07  0.77
Si  1.82  3.13 -0.02
Si -3.65 -0.02 -0.01
Si  1.81 -1.07 -2.99
Si  1.88 -3.14 -0.00
Si  1.79  1.06  3.02
Si -1.80  3.20 -0.03
Si -1.84  1.03  3.00
Si -1.79 -3.21 -0.01
Si -1.87 -1.03 -3.00
Si -0.01  2.12 -3.03
Si  3.71  0.00  0.05
Si  0.04 -2.16  3.04
Si  3.63 -0.06 -2.19
Si -1.80 -3.14 -2.23
Si  3.67 -2.07  0.77
Si -3.64 -2.10  0.80
Si  1.82  3.15 -2.27
Si -0.05  2.13  3.75
Si  1.81 -1.03  3.80
Si -1.85  3.20 -2.26
Si  1.81 -3.20 -2.30
Si -3.70  0.00 -2.27
Si  0.05  4.30  0.69
Si -1.85 -1.11  3.80
Si -0.03  4.23  2.93
Si  3.68  2.07 -2.96
Si  3.63 -2.08  3.04
Si -3.62  2.12 -3.07
Si -0.03 -4.27 -3.00
Si -3.73 -2.16  3.04
Si -3.61  4.22  0.66
Si  3.65  4.20  0.71
Si  0.01  2.05 -5.23
Si  3.64  2.11  3.73
Si -5.47  1.08  0.73
Si  1.84 -1.01 -5.26
Si -3.68  2.17  3.74
Si -1.88 -1.08 -5.27
Si  1.91 -5.33  0.66
Si  5.55  1.08  0.73
Si -1.86 -5.35  0.71
Si  0.01 -4.32  3.77
Si -3.66 -4.20 -2.97
Si -3.63  4.23  2.97
Si -5.51 -3.10 -0.00
Si  5.47 -1.06 -2.98
Si  3.66  4.21  3.00
Si  5.52 -3.10 -0.00
Si -5.48  3.18 -0.01
Si -5.50  1.15  2.97
Si  3.66 -4.25 -2.98
Si -1.85  5.30 -2.98
Si  0.03 -6.37 -0.01
Si  0.02 -2.04 -6.03
Si -1.85  1.02 -6.01
Si  1.89 -5.32  2.97
Si  5.53  1.15  2.97
Si -0.04  2.13  6.02
Si -1.85 -1.06  6.02
Si  1.85  5.35 -2.97
Si  5.54  3.18 -0.01
Si -5.55 -1.06 -2.98
Si  1.85 -1.02  6.03
Si -1.85 -5.34  3.00
Si  1.89  1.05 -6.03
Si  0.01  6.45 -0.00
Si  5.47 -1.01  3.72
Si  1.86  5.25  3.74
Si -3.65  2.07 -5.26
Si  5.50  3.15 -2.26
Si -0.04 -4.19 -5.28
Si -5.52  3.15 -2.26
Si  5.51 -3.18 -2.25
Si -0.01  0.00  6.75
Si -0.01  6.37 -2.25
Si -5.52 -3.18 -2.25
Si  3.73  2.15 -5.21
Si -5.55 -1.01  3.72
Si -3.65 -4.30  3.74
Si  3.73 -4.21  3.80
Si -0.01 -6.40 -2.26
Si -1.78  5.34  3.80
Si  0.04  4.21 -5.96
Si -7.31  0.00  0.05
Si -0.01 -4.25  5.97
Si  3.64  2.15  6.00
Si  3.72  6.34 -0.01
Si  3.67 -2.15 -6.00
Si  3.72 -6.35 -0.03
Si -3.72 -2.12 -5.98
Si -3.63  6.41 -0.00
Si -3.70  2.11  6.02
Si  7.38 -0.02 -0.01
Si -3.69 -6.41 -0.02
Si -5.46 -5.25  0.69
Si -1.85  5.26 -5.21
Si -3.70 -4.21 -5.20
Si  5.46 -1.05 -5.26
Si -3.71 -0.02  6.70
Si  1.81  3.18  6.73
Si  7.33  0.00 -2.27
Si  3.66 -6.35 -2.26
Si  1.81  5.34 -5.20
Si -1.85 -3.17  6.74
Si  5.56 -5.25  0.69
Si  3.66 -4.29 -5.21
Si -7.36 -2.07  0.77
Si  1.82 -3.22  6.74
Si -3.71  6.35 -2.30
Si -7.39 -0.06 -2.19
Si  7.38 -2.10  0.80
Si  1.87  7.45  0.80
Si  3.71  0.04  6.77
Si -5.56 -1.05 -5.26
Si -1.88  3.13  6.81
Si -3.69 -6.40 -2.27
Si  3.71  6.41 -2.23
Si -1.85  7.48  0.77
Si -3.62 -4.24  5.94
Si -1.88 -5.26 -5.96
Si  5.48 -5.32  2.93
Si -7.34  2.07 -2.96
Si  1.90  5.31  5.94
Si  5.49  5.28 -3.00
Si  1.79  7.39  3.04
Si -3.73  4.21 -5.96
Si  3.63  4.29 -5.96
Si  7.30 -2.16  3.04
Si  1.79 -5.34 -5.96
Si  5.49 -1.09  6.00
Si -1.83  5.26  6.05
Si -5.54  5.28 -3.00
Si -5.55 -5.32  2.93
Si -5.54 -1.09  6.00
Si -1.83 -7.47 -2.96
Si  5.48  1.04 -6.08
Si  1.90 -7.43 -3.07
Si -7.39 -2.08  3.04
Si  3.68 -4.29  6.05
Si -1.88  7.47  3.04
Si -5.55  1.04 -6.08
Si  7.41  2.12 -3.07
Si  1.84 -7.37  3.74
Si -5.50  5.23  3.77
Si  5.52  5.23  3.77
Si  0.04 -8.46  0.73
Si -7.37  4.20  0.71
Si  7.35  2.17  3.74
Si  0.04 -2.10 -8.27
Si -1.88 -7.44  3.73
Si -7.39  2.11  3.73
Si -1.86  1.02 -8.29
Si  7.42  4.22  0.66
Si  1.91  1.03 -8.35
Si  0.02 -8.40  2.97
Si  7.37 -4.20 -2.97
Si -7.36  4.21  3.00
Si  0.01  0.08  9.00
Si -0.04  8.49 -2.98
Si -7.37 -4.25 -2.98
Si  0.03 -0.00 -9.01
Si  7.40  4.23  2.97
Si -1.78 -7.39 -5.21
Si -7.30  2.15 -5.21
Si -7.30 -4.21  3.80
Si  5.43  3.19  6.77
Si -0.01  6.33  6.74
Si  3.70 -2.11 -8.24
Si  0.02  4.26 -8.24
Si  5.50 -3.22  6.74
Si  3.70 -8.48  0.77
Si -3.68 -2.16 -8.24
Si -9.20  1.02  0.76
Si -5.50  7.45  0.77
Si -0.08 -6.36  6.77
Si -5.52 -3.22  6.74
Si  7.38  2.07 -5.26
Si  5.47  5.36 -5.28
Si  9.21  1.07  0.77
Si  5.53  7.45  0.77
Si -0.04  8.54  3.72
Si -3.68 -8.53  0.76
Si  7.38 -4.30  3.74
Si  1.86 -7.48 -5.26
Si -5.59  3.19  6.77
Si -5.55  5.36 -5.28
Si -9.14 -3.14 -0.00
Si -1.80 -3.18 -8.95
Si -7.30  6.34 -0.01
Si  7.30 -2.12 -5.98
Si -7.31 -6.35 -0.03
Si -1.80 -3.17  8.98
Si -5.47  7.39  3.04
Si  9.16 -1.03 -3.00
Si  5.51  5.30  5.97
Si -5.47 -5.34 -5.96
Si -1.84  7.40 -6.00
Si  1.79  7.43 -5.98
Si -1.87 -7.39  6.00
Si -3.63  0.04  9.00
Si -5.52  5.30  5.97
Si  1.87  9.53 -0.01
Si  7.33  2.11  6.02
Si  9.18  1.03  3.00
Si -1.80 -9.55  0.05
Si -1.79  3.16 -9.01
Si -1.80  9.55  0.05
Si  1.87  3.16  9.00
Si  1.82 -3.23  8.98
Si -3.70  8.48 -2.99
Si -9.21  3.13 -0.02
Si  5.55  7.39  3.04
Si  3.72 -0.02  8.99
Si  5.51 -7.43 -3.03
Si -7.36 -2.15 -6.00
Si  1.81 -7.44  6.02
Si -5.52 -7.43 -3.03
Si  1.87 -3.20 -9.01
Si  3.64  8.52 -3.00
Si  7.33 -6.41 -0.02
Si  5.55 -5.34 -5.96
Si -9.21 -1.07 -2.99
Si -3.72 -8.49  3.02
Si -3.69 -0.05 -9.02
Si  1.87 -9.57 -0.01
Si  3.67 -8.52  3.00
Si  1.88  3.23 -9.01
Si -7.38  2.15  6.00
Si -1.80  3.18  9.05
Si  3.72  0.02 -9.03
Si  9.23  3.20 -0.03
Si -9.23  1.06  3.02
Si  9.23 -3.21 -0.01
Si  7.39  6.41 -0.00
Si  0.05 -2.06  9.69
Si -1.88  9.49 -2.19
Si  7.32 -0.02  6.70
Si  7.33 -4.21 -5.20
Si  1.87 -5.29 -8.20
Si -3.64  4.26 -8.20
Si -1.84 -5.25 -8.23
Si  5.46 -7.42  3.75
Si  3.66  8.44  3.80
Si -3.69  6.33  6.74
Si  7.32  6.35 -2.30
Si -7.31  0.04  6.77
Si  9.17  3.20 -2.26
Si  3.66  6.38  6.74
Si -7.31  6.41 -2.23
Si -3.70 -6.37  6.73
Si  1.81 -9.55 -2.27
Si  1.81  9.55 -2.27
Si  3.67  4.29 -8.23
Si -7.37 -6.35 -2.26
Si -9.20  3.15 -2.27
Si -0.05  8.49 -5.26
Si -7.37 -4.29 -5.21
Si  9.17 -1.11  3.80
Si  7.34 -6.40 -2.27
Si  9.23 -3.14 -2.23
Si -5.56 -7.42  3.75
Si -1.85  1.11  9.77
Si -5.46  1.12 -8.31
Si -9.21 -1.03  3.80
Si -9.22 -3.20 -2.30
Si -1.88 -9.60 -2.19
Si -3.70  8.52  3.80
Si  1.87  1.08  9.80
Si  3.63 -6.42  6.81
Si  5.56  1.12 -8.31
Si  7.30  4.21 -5.96
Si -0.03  8.46  6.00
Si  7.41 -4.24  5.94
Si -7.39  4.29 -5.96
Si -7.34 -4.29  6.05
Si -0.03 -8.51 -6.08
Si -3.61 -2.15  9.66
Si -9.12 -5.33  0.66
Si  3.65 -2.17  9.72
Si  9.15 -1.08 -5.27
Si  3.64  8.47 -5.27
Si  0.04  4.27  9.73
Si -9.19 -1.01 -5.26
Si  9.17 -5.35  0.71
Si  0.04 10.63  0.73
Si -5.50 -7.50 -5.23
Si -3.68  8.54 -5.26
Si  5.52 -7.50 -5.23
Si -9.14 -5.32  2.97
Si  0.01 -6.29 -9.01
Si -5.50 -3.18 -8.98
Si -9.14  1.05 -6.03
Si -5.48 -3.18  8.99
Si  9.17  5.30 -2.98
Si  0.01  6.37 -8.98
Si  5.52 -3.18 -8.98
Si  5.47 -7.42  6.02
Si  9.18  1.02 -6.01
Si -0.04 -10.61 -2.98
Si -11.02  0.00  0.02
Si  0.03  6.37  8.99
Si -5.50 -9.55  0.02
Si  9.17 -1.06  6.02
Si -5.50  9.55  0.02
Si -9.17  5.35 -2.97
Si -9.17 -1.02  6.03
Si  5.52 -9.55  0.02
Si  3.66  8.48  6.02
Si  9.18 -5.34  3.00
Si  5.52  9.55  0.02
Si 11.04  0.00  0.02
Si  5.54 -3.18  8.99
Si -3.63 -8.50 -6.03
Si -5.50  3.19  9.03
Si  0.01 -6.36  9.03
Si -5.51  3.26 -9.01
Si  5.52  3.19  9.03
Si -5.55 -7.42  6.02
Si  3.66 -8.53 -6.01
Si  5.52  3.26 -9.01
Si -3.66  8.53  6.03
Si -5.50  7.51 -6.03
Si  0.02 10.70  2.97
Si  5.53  7.51 -6.03
Si 10.95  0.01 -2.23
Si -0.04 -10.56  3.72
Si  5.43 -9.54 -2.23
Si -9.16  5.25  3.74
Si  5.43  9.56 -2.23
Si  1.83  7.39 -8.24
Si -3.69 10.57  0.76
Si -7.33 -2.11 -8.24
Si -5.50 -5.29 -8.24
Si -7.33 -8.48  0.77
Si -11.01 -2.10  0.77
Si  5.53 -5.29 -8.24
Si -1.81  7.44 -8.24
Si  7.34 -2.16 -8.24
Si -3.69  4.21  9.76
Si -1.81 -5.29  9.77
Si -5.50  1.08  9.77
Si -0.01 -0.03 -11.26
Si 11.04 -2.10  0.77
Si  3.70 10.62  0.77
Si  7.34 -8.53  0.76
Si  5.53  1.08  9.77
Si  1.83 -5.34  9.76
Si  3.70  4.25  9.77
Si -5.59 -9.54 -2.23
Si -5.59  9.56 -2.23
Si  9.24  5.34  3.80
Si -11.11  0.01 -2.23
Si  3.64 -10.58 -3.00
Si -7.30 -0.02  8.99
Si -3.63 -6.32 -9.01
Si -3.69  6.32  8.98
Si  3.67 10.58  3.00
Si  7.33  8.48 -2.99
Si  3.71  6.37 -8.95
Si  7.30 -8.49  3.02
Si -10.99 -2.16  3.04
Si -3.65  6.35 -9.01
Si -7.31  0.02 -9.03
Si -3.65 -6.38  9.00
Si  3.72  6.38  8.98
Si 11.02  2.12 -3.03
Si  7.33 -0.05 -9.02
Si -3.70 -10.62 -2.99
Si -11.03  2.12 -3.03
Si -3.72 10.61  3.02
Si  7.39  0.04  9.00
Si -7.36 -8.52  3.00
Si  3.72 -6.39 -9.01
Si -7.38  8.52 -3.00
Si  3.71 -6.37  9.05
Si 11.06 -2.16  3.04
Si  9.17  5.26 -5.21
Si  1.81  9.53  6.70
Si -1.84 -11.62  0.77
Si 10.98  2.13  3.75
Si  7.34  6.33  6.74
Si -1.88 -3.24 -11.20
Si -1.80 -9.51  6.77
Si -10.98  4.30  0.69
Si  7.33 -6.37  6.73
Si  9.17 -3.17  6.74
Si  1.81 -9.57  6.70
Si -1.80  3.23 -11.23
Si  9.15  3.13  6.81
Si -7.37  8.44  3.80
Si  1.87 -11.65  0.80
Si  7.38  4.26 -8.20
Si -9.16  7.45  0.80
Si -3.70 -10.58  3.80
Si -0.05 -10.60 -5.26
Si  0.05 -8.43 -8.31
Si  3.66  0.02 -11.27
Si -7.36  4.29 -8.23
Si -9.21  3.18  6.73
Si -7.37  6.38  6.74
Si -9.20 -3.22  6.74
Si -9.21  5.34 -5.20
Si  1.81 -3.18 -11.27
Si -3.69 -0.03 -11.27
Si  7.33  8.52  3.80
Si  9.18  7.48  0.77
Si  1.81  3.17 -11.31
Si -1.80  9.59  6.77
Si -11.07  2.13  3.75
Si  3.66 -10.66  3.80
Si 11.08  4.30  0.69
Si -7.39 -6.42  6.81
Si -9.13  5.31  5.94
Si  9.15 -5.26 -5.96
Si -0.03 -2.14 11.93
Si -1.83 11.62 -2.96
Si 10.99  4.23  2.93
Si -1.83 -1.11 -11.96
Si -9.13 -7.43 -3.07
Si -1.88 -11.63  3.04
Si 11.00 -4.27 -3.00
Si -0.03  2.10 -12.00
Si  9.15  7.47  3.04
Si -11.06  4.23  2.93
Si  9.20  5.26  6.05
Si -0.03 -10.63  6.00
Si -0.03 10.59 -6.08
Si  9.20 -7.47 -2.96
Si  1.90 11.67 -3.07
Si -9.24  7.39  3.04
Si  1.79  1.03 12.05
Si -11.05 -4.27 -3.00
Si -9.24 -5.34 -5.96
Si  1.79 -11.71  3.04
Si -1.88  1.10 12.04
Si  1.90 -1.06 -12.07
Si  1.91  7.40  9.66
Si -1.86  7.38  9.72
Si -5.47 -5.28  9.73
Si -3.68 -10.56 -5.26
Si -9.19 -7.37  3.74
Si -11.02  2.05 -5.23
Si  7.42 -2.15  9.66
Si  9.15 -7.44  3.73
Si -1.88 11.65  3.73
Si 11.04  2.05 -5.23
Si -7.37 -2.17  9.72
Si  5.55 -5.28  9.73
Si  9.17  1.02 -8.29
Si -5.47  7.45 -8.27
Si  3.64 -10.63 -5.27
Si -9.12  1.03 -8.35
Si -7.39  8.47 -5.27
Si -11.02 -4.32  3.77
Si  7.35  8.54 -5.26
Si 11.04 -4.32  3.77
Si  5.55  7.45 -8.27
Si  1.84 11.72  3.74
Si  3.65 -8.53 -8.29
Si -3.61 -8.52 -8.35
Si  0.01 -12.65 -0.00
Si -3.63 -2.13 11.97
Si  3.66 10.57 -6.01
Si -3.66  2.17 -11.97
Si 10.99  2.13  6.02
Si -10.99 -6.37 -0.01
Si -3.66 -10.57  6.03
Si  3.66  2.12 -11.99
Si -0.04 -4.24 -11.99
Si -11.01 -2.04 -6.03
Si -3.63 10.60 -6.03
Si  3.66 -2.16 12.00
Si  0.02  4.33 11.97
Si  0.03 12.73 -0.01
Si  3.66 -10.61  6.02
Si -7.37  8.48  6.02
Si 11.04 -2.04 -6.03
Si 11.06 -6.37 -0.01
Si -7.36 -8.53 -6.01
Si -11.02  6.45 -0.00
Si -11.07  2.13  6.02
Si 11.03  6.45 -0.00
Si  7.40 -8.50 -6.03
Si  7.37  8.53  6.03
Si  5.43 -3.17 -11.23
Si  1.86 11.62 -5.26
Si 10.98 -4.19 -5.28
Si  7.34 10.57  0.76
Si -0.01 12.70 -2.26
Si -5.50 -11.65  0.77
Si -0.04  2.18 12.72
Si -12.84  1.07  0.77
Si -0.08  6.38 -11.23
Si 12.86  1.02  0.76
Si  5.53 -11.65  0.77
