500
set: 1498.00  0.00  0.00
Si  0.49  0.99 -1.82
Si  0.80  1.04  1.80
Si  0.88 -1.08 -1.77
Si -2.02  0.51 -0.96
Si  1.19 -1.04  1.85
Si -2.10 -0.78  1.00
Si  0.70 -2.44  0.25
Si  2.02  1.77 -0.30
Si -1.71  0.56  2.66
Si -2.41 -0.83 -2.62
Si -1.32 -3.53 -0.95
Si -2.63 -2.88  0.93
Si  3.86 -0.78  1.00
Si  3.93  0.51 -0.96
Si  0.39 -2.49 -3.37
Si -3.94  1.77 -0.30
Si  2.33  1.82  3.32
Si  3.55 -0.83 -2.62
Si  3.33 -2.88  0.93
Si -1.01 -3.48  2.67
Si  1.71  1.72 -3.92
Si  2.35  3.87 -0.95
Si  1.01 -2.39  3.87
Si  1.04  4.52  0.93
Si -2.94 -2.92 -2.69
Si  3.02 -2.92 -2.69
Si -1.79 -0.73  4.62
Si  4.24  0.56  2.66
Si -2.33  0.46 -4.58
Si -4.76 -1.04  1.85
Si -1.58  4.96  0.25
Si -3.63  1.82  3.32
Si  0.73  4.47 -2.69
Si -3.60  3.87 -0.95
Si  2.66  3.92  2.67
Si -5.08 -1.08 -1.77
Si  0.18  0.94 -5.44
Si  0.57 -1.13 -5.39
Si -5.16  1.04  1.80
Si  1.11  1.09  5.42
Si  1.50 -0.99  5.47
Si -3.29  3.92  2.67
Si -5.25 -2.44  0.25
Si -2.32 -2.83  4.55
Si -5.47  0.99 -1.82
Si  3.62  0.46 -4.58
Si -1.65 -5.63 -0.30
Si  4.64 -3.53 -0.95
Si -1.62 -3.58 -4.57
Si -4.25  1.72 -3.92
Si -1.89  4.91 -3.37
Si  4.17 -0.73  4.62
Si  2.04  3.82 -4.57
Si -1.27  5.01  3.87
Si -1.40  0.60  6.28
Si  3.63 -2.83  4.55
Si  1.35  4.57  4.55
Si  4.95 -3.48  2.67
Si  4.37  4.96  0.25
Si -1.34 -5.58  3.32
Si -1.41  6.32 -1.77
Si -1.10  6.36  1.85
Si -4.94 -2.39  3.87
Si -4.92  4.52  0.93
Si  6.44  0.99 -1.82
Si -2.72 -0.88 -6.24
Si  1.57  6.62  1.00
Si -5.56 -2.49 -3.37
Si  0.26 -6.89 -0.96
Si  6.75  1.04  1.80
Si  3.24 -0.88 -6.24
Si  6.66 -2.44  0.25
Si  4.30 -5.63 -0.30
Si -4.46 -0.99  5.47
Si -3.91  3.82 -4.57
Si  6.83 -1.08 -1.77
Si -1.96 -5.68 -3.92
Si  1.26  6.57 -2.62
Si -0.70 -3.43  6.29
Si  4.06  4.91 -3.37
Si -2.87 -6.36  1.80
Si  2.77 -6.41 -1.82
Si  4.33 -3.58 -4.57
Si  3.08 -6.36  1.80
Si -4.85  1.09  5.42
Si  0.57 -6.84  2.66
Si -5.22  4.47 -2.69
Si -3.18 -6.41 -1.82
Si  0.08 -2.54 -6.99
Si  7.14 -1.04  1.85
Si  2.71 -2.98 -6.31
Si  6.35 -2.49 -3.37
Si  2.64  1.87  6.94
Si -3.25 -2.98 -6.31
Si -5.38 -1.13 -5.39
Si  0.42  4.43 -6.31
Si  4.55  0.60  6.28
Si  1.40  1.67 -7.54
Si  4.68  5.01  3.87
Si -3.32  1.87  6.94
Si -4.61  4.57  4.55
Si  1.32 -2.34  7.50
Si  4.61 -5.58  3.32
Si  4.00 -5.68 -3.92
Si  4.55  6.32 -1.77
Si -5.78  0.94 -5.44
Si -4.38  6.62  1.00
Si  2.97  3.97  6.29
Si -2.98  3.97  6.29
Si -7.98  0.51 -0.96
Si  1.65  7.91 -0.96
Si -7.67  0.56  2.66
Si -7.27 -3.53 -0.95
Si -8.05 -0.78  1.00
Si  7.97  1.77 -0.30
Si  4.86  6.36  1.85
Si -6.96 -3.48  2.67
Si  0.19 -8.18  1.00
Si  6.13  0.94 -5.44
Si -0.05 -6.94 -4.58
Si  6.96 -2.39  3.87
Si  1.88  6.67  4.62
Si  7.00  4.52  0.93
Si -1.48 -0.68  8.24
Si -1.72  6.27 -5.39
Si -0.79  6.41  5.47
Si  6.68  4.47 -2.69
Si -4.69  6.57 -2.62
Si  6.53 -1.13 -5.39
Si  1.96  7.96  2.66
Si -2.64  0.41 -8.21
Si -0.12 -8.23 -2.62
Si -2.56 -6.31  5.42
Si -1.49  8.44  1.80
Si -1.80  8.39 -1.82
Si  7.66  1.72 -3.92
Si -2.20  4.86 -6.99
Si  2.46 -6.46 -5.44
Si -8.36 -0.83 -2.62
Si  3.31  0.41 -8.21
Si -2.01 -2.78  8.18
Si  5.26 -3.43  6.29
Si -1.03 -5.53  6.94
Si  7.06  1.09  5.42
Si -4.55  1.67 -7.54
Si -2.48 -8.44  1.85
Si  3.39 -6.31  5.42
Si -5.69 -6.89 -0.96
Si -7.54  4.96  0.25
Si -7.74 -0.73  4.62
Si -4.31  7.91 -0.96
Si  0.95  6.52 -6.24
Si -4.07  6.67  4.62
Si -0.96  5.06  7.50
Si  0.26 -1.18 -9.02
Si -8.59 -2.88  0.93
Si -5.38 -6.84  2.66
Si -2.79 -8.48 -1.77
Si  8.28  1.82  3.32
Si -0.13  0.89 -9.06
Si -4.63 -2.34  7.50
Si -3.49 -6.46 -5.44
Si -1.94 -3.63 -8.19
Si -0.27  9.17 -0.30
Si  1.74  3.77 -8.19
Si  1.34  7.86 -4.58
Si  8.31  3.87 -0.95
Si  1.42  1.14  9.04
Si  3.17 -8.48 -1.77
Si -4.00  7.96  2.66
Si  4.24  6.27 -5.39
Si  0.88 -6.80  6.28
Si  7.45 -0.99  5.47
Si  3.75  4.86 -6.99
Si  3.48 -8.44  1.85
Si  1.81 -0.94  9.09
Si  6.22 -6.89 -0.96
Si  0.50 -8.13  4.62
Si  4.47 -0.68  8.24
Si -7.61 -5.63 -0.30
Si -5.87 -2.54 -6.99
Si -8.29  0.46 -4.58
Si -5.53  4.43 -6.31
Si  3.94 -2.78  8.18
Si  1.66  4.62  8.18
Si  4.16  8.39 -1.82
Si -7.58 -3.58 -4.57
Si  6.04 -2.54 -6.99
Si -7.23  5.01  3.87
Si -7.05  6.36  1.85
Si -7.36  0.60  6.28
Si  4.47  8.44  1.80
Si -8.89 -2.92 -2.69
Si -2.27 -5.73 -7.54
Si  7.30  4.57  4.55
Si  9.28 -2.88  0.93
Si -7.30 -5.58  3.32
Si -6.65 -3.43  6.29
Si  0.04  9.22  3.32
Si  8.97 -2.92 -2.69
Si  4.02 -3.63 -8.19
Si  6.53 -6.84  2.66
Si  8.62  3.92  2.67
Si -7.85  4.91 -3.37
Si -7.36  6.32 -1.77
Si -8.28 -2.83  4.55
Si  5.17  6.41  5.47
Si  9.50 -0.83 -2.62
Si  9.81 -0.78  1.00
Si -0.58  9.12 -3.92
Si  9.89  0.51 -0.96
Si -4.22  3.77 -8.19
Si  8.00  3.82 -4.57
Si -1.09  0.65  9.90
Si  6.38  4.43 -6.31
Si -4.15 -0.94  9.09
Si -9.89  1.77 -0.30
Si -5.77 -8.18  1.00
Si  7.53  6.62  1.00
Si  7.22  6.57 -2.62
Si -1.18  8.49  5.42
Si  4.92 -5.53  6.94
Si  3.69 -5.73 -7.54
Si -2.11  8.34 -5.44
Si -4.54  1.14  9.04
Si -4.62  7.86 -4.58
Si  5.91 -6.94 -4.58
Si -2.17 -8.39  5.47
Si -6.00 -6.94 -4.58
Si  6.14 -8.18  1.00
Si -2.97 -9.84  0.25
Si  2.99 -9.84  0.25
Si -9.58  1.82  3.32
Si -5.00  6.52 -6.24
Si -0.34 -10.28  0.93
Si -4.30  4.62  8.18
Si  4.99  5.06  7.50
Si  2.93 -0.93 -9.86
Si -9.56  3.87 -0.95
Si -3.03 -0.93 -9.86
Si -0.43 -8.28 -6.24
Si -9.25  3.92  2.67
Si  5.83 -8.23 -2.62
Si  2.27  8.00  6.28
Si -0.39 -3.38  9.91
Si  2.85 -8.53 -5.39
Si -7.92 -5.68 -3.92
Si -5.07 -6.80  6.28
Si 10.20  0.56  2.66
Si -6.08 -8.23 -2.62
Si -3.10 -8.53 -5.39
Si  9.58  0.46 -4.58
Si  2.40 -3.02 -9.93
Si  7.36  1.67 -7.54
Si  3.85  8.34 -5.44
Si -0.65 -10.33 -2.69
Si  3.78 -8.39  5.47
Si  7.28 -2.34  7.50
Si -8.67 -0.88 -6.24
Si -5.69 -1.18 -9.02
Si  2.68 -9.89 -3.37
Si -0.35 -6.99 -8.21
Si -6.74  6.41  5.47
Si  5.69  9.17 -0.30
Si  5.82  0.89 -9.06
Si -3.69  8.00  6.28
Si -5.46 -8.13  4.62
Si  0.11  4.38 -9.93
Si  2.19  6.72  8.24
Si -2.66 -9.79  3.87
Si -0.23 -2.58 -10.61
Si -10.72 -1.04  1.85
Si -3.28 -9.89 -3.37
Si -6.09  0.89 -9.06
Si -3.56 -3.02 -9.93
Si  8.73 -6.41 -1.82
Si  9.59 -2.83  4.55
Si  7.60  7.91 -0.96
Si  6.22 -1.18 -9.02
Si  0.97 -10.93 -0.95
Si -2.67  4.01  9.91
Si -8.83 -6.36  1.80
Si  3.30 -9.79  3.87
Si  4.86  0.65  9.90
Si -10.20  1.72 -3.92
Si -6.22  9.17 -0.30
Si  8.66 -2.98 -6.31
Si -7.43 -0.68  8.24
Si  2.95  1.92 10.56
Si -2.02  6.22 -9.02
Si  4.78  8.49  5.42
Si  9.19 -0.88 -6.24
Si -3.01  1.92 10.56
Si 10.12 -0.73  4.62
Si -0.48  6.46  9.09
Si  3.28  4.01  9.91
Si -0.04 -10.23  4.55
Si  9.04 -6.36  1.80
Si  8.59  1.87  6.94
Si 10.59 -3.53 -0.95
Si -11.03 -1.08 -1.77
Si -2.25 -6.26  9.04
Si -7.67  6.27 -5.39
Si  1.28 -10.88  2.67
Si  7.83  6.67  4.62
Si -3.77  6.72  8.24
Si  5.38  9.12 -3.92
Si -6.99 -5.53  6.94
Si -11.11  1.04  1.80
Si  0.07 11.27 -0.95
Si -9.14 -6.41 -1.82
Si  1.09  1.62 -11.16
Si  6.45 -8.13  4.62
Si  2.15 -6.51 -9.06
Si  6.91  6.52 -6.24
Si  1.03  7.81 -8.21
Si -6.92  5.06  7.50
Si -7.44  8.44  1.80
Si -5.91  9.22  3.32
Si 10.33  4.96  0.25
Si  1.63 -2.29 11.12
Si -11.21 -2.44  0.25
Si  6.00  9.22  3.32
Si  6.84 -6.80  6.28
Si -9.87  3.82 -4.57
Si  7.91  7.96  2.66
Si -9.20 -2.98 -6.31
Si -7.75  8.39 -1.82
Si  0.81 -8.08  8.24
Si  0.35  9.27  6.94
Si  3.70 -6.26  9.04
Si -11.42  0.99 -1.82
Si  8.93  3.97  6.29
Si -8.94  3.97  6.29
Si  0.38 11.32  2.67
Si  3.93  6.22 -9.02
Si 10.02  4.91 -3.37
Si  7.29  7.86 -4.58
Si 10.26 -5.63 -0.30
Si  7.37  1.14  9.04
Si -9.27  1.87  6.94
Si  5.61 -10.28  0.93
Si  5.52 -8.28 -6.24
Si -7.96 -2.78  8.18
Si 10.90 -3.48  2.67
Si -3.80 -6.51 -9.06
Si -8.16  4.86 -6.99
Si -10.41 -0.99  5.47
Si 10.28 -3.58 -4.57
Si -10.87  4.52  0.93
Si -10.90 -2.39  3.87
Si  0.64  6.47 -9.86
Si -0.89  9.07 -7.54
Si  7.69  3.77 -8.19
Si  5.57 -3.38  9.91
Si -6.53  9.12 -3.92
Si -8.60  0.41 -8.21
Si -8.52 -6.31  5.42
Si  0.66 -10.98 -4.57
Si  5.30 -10.33 -2.69
Si -2.51  4.82 -10.61
Si -0.72 -5.49 10.56
Si  8.42 -6.46 -5.44
Si -7.89 -3.63 -8.19
Si -1.17 -0.63 11.86
Si  7.76 -0.94  9.09
Si -1.25 11.92  0.93
Si  1.19 -6.75  9.90
Si -4.99 -10.93 -0.95
Si -8.44 -8.44  1.85
Si -6.30 -10.28  0.93
Si  7.61  4.62  8.18
Si  9.95 -5.68 -3.92
Si -0.24 11.22 -4.57
Si -10.80  1.09  5.42
Si -4.68 -10.88  2.67
Si -4.33 -2.29 11.12
Si  5.60 -6.99 -8.21
Si  3.44  4.82 -10.61
Si -7.05  0.65  9.90
Si -6.39 -8.28 -6.24
Si -0.96 -10.38 -6.31
Si -2.95  0.36 -11.83
Si  3.00  0.36 -11.83
Si -1.70 -2.73 11.80
Si -6.34 -3.38  9.91
Si -0.66  5.11 11.12
Si -11.52 -2.49 -3.37
Si 10.51  0.60  6.28
Si -1.55 11.88 -2.69
Si -4.86  1.62 -11.16
Si -8.74 -8.48 -1.77
Si -10.34  6.62  1.00
Si -5.84  4.38 -9.93
Si  5.73 -2.58 -10.61
Si -11.18  4.47 -2.69
Si -7.13  8.49  5.42
Si -4.93  7.81 -8.21
Si -10.56  4.57  4.55
Si  2.37 -9.94 -6.99
Si 10.63  5.01  3.87
Si 10.50  6.32 -1.77
Si  9.27  0.41 -8.21
Si 10.57 -5.58  3.32
Si  5.48  6.46  9.09
Si  6.07  4.38 -9.93
Si -0.87  8.54  9.04
Si  1.43  3.72 -11.81
Si -1.86 -8.34  9.09
Si -6.31 -6.99 -8.21
Si -2.35 -9.74  7.50
Si  9.35 -6.31  5.42
Si -2.42  8.29 -9.06
Si  2.09 12.36  0.25
Si -8.22 -5.73 -7.54
Si -6.18 -2.58 -10.61
Si -6.61 -10.33 -2.69
Si 12.40  0.99 -1.82
Si -2.24 -3.68 -11.81
Si  9.12 -8.48 -1.77
Si -11.34 -1.13 -5.39
Si  1.59 -10.83  6.29
Si -5.15 -8.08  8.24
Si  5.92 -10.23  4.55
Si -3.59 -9.94 -6.99
Si -9.45 -6.46 -5.44
Si 10.81  6.36  1.85
Si -5.99 -10.23  4.55
Si -0.05 -1.23 -12.64
Si  2.55 -8.58 -9.02
Si -0.44  0.84 -12.68
Si -5.89 11.27 -0.95
Si  3.54  8.29 -9.06
Si -10.65  6.57 -2.62
Si  9.43 -8.44  1.85
Si  4.79 -0.63 11.86
Si  3.60 -9.74  7.50
Si  6.02 11.27 -0.95
Si -8.06  8.34 -5.44
Si  4.25 -2.73 11.80
Si -2.58 -5.78 -11.16
Si  1.73  1.18 12.66
Si  1.97  4.67 11.80
Si  5.07  9.07 -7.54
Si -0.94 11.97  4.55
Si 12.61 -2.44  0.25
Si  4.71 11.92  0.93
Si -5.60  9.27  6.94
Si -6.43  6.46  9.09
Si 12.71  1.04  1.80
Si  1.78 12.31 -3.37
Si -4.76 -6.75  9.90
Si -8.13 -8.39  5.47
Si -5.58 11.32  2.67
Si -10.03  6.67  4.62
Si -3.41 -8.58 -9.02
Si  9.71  4.86 -6.99
Si  3.71 -3.68 -11.81
Si  2.12 -0.89 12.71
Si -0.74 -8.33 -9.86
Si -5.31  6.47 -9.86
Si  4.40 11.88 -2.69
Si -3.87 12.36  0.25
Si 12.79 -1.08 -1.77
Si -11.73  0.94 -5.44
Si  6.92 -10.93 -0.95
Si -10.26  7.91 -0.96
Si 12.30 -2.49 -3.37
Si  4.09 -8.34  9.09
Si  5.23 -5.49 10.56
Si  0.69 11.37  6.29
Si -9.95  7.96  2.66
Si  3.38 -5.78 -11.16
Si -5.29 -10.98 -4.57
Si  2.58  8.05  9.90
Si -10.51  1.67 -7.54
Si  0.63 -13.03 -0.30
Si  0.28 -10.18  8.18
Si  8.22  8.00  6.28
Si 10.20  6.27 -5.39
Si  4.99 -10.38 -6.31
Si  9.90 -2.78  8.18
Si -10.59 -2.34  7.50
Si  6.31  9.27  6.94
Si -4.53  3.72 -11.81
Si -3.38  8.05  9.90
Si  2.40 12.41  3.87
Si  6.33 11.32  2.67
Si 10.11  8.39 -1.82
Si -4.37 -10.83  6.29
Si 13.10 -1.04  1.85
Si -8.92 -9.84  0.25
Si 12.09  0.94 -5.44
Si  8.94 -9.84  0.25
Si -3.99  4.67 11.80
Si  7.04  1.62 -11.16
Si  8.88 -0.93 -9.86
Si  6.98  7.81 -8.21
Si -3.84 -0.89 12.71
Si 11.21 -3.43  6.29
