500
set: 1612.00  0.00  0.00
Si  1.64  0.77 -1.00
Si -1.72 -1.10 -0.69
Si -0.02 -0.41 -2.27
Si  0.17  2.42  0.48
Si -1.70 -1.64  1.48
Si -2.11  1.83  0.84
Si  0.47 -2.07  2.51
Si  0.57 -2.83 -1.64
Si -1.84  0.96  2.81
Si  2.89  1.83  0.84
Si  3.28 -1.10 -0.69
Si  0.59  1.49  3.15
Si  0.10  3.15 -1.64
Si -3.35  0.77 -1.00
Si  0.65 -3.56  0.48
Si  3.30 -1.64  1.48
Si -2.19  0.02 -3.31
Si -2.33  2.62 -1.98
Si  2.67  2.62 -1.98
Si -1.86 -3.36 -1.98
Si  2.80  0.02 -3.31
Si  3.16  0.96  2.81
Si  2.14 -0.89  3.79
Si -1.64 -4.15  0.84
Si  0.00  3.92  2.51
Si  0.15 -1.90 -4.31
Si -2.86 -0.89  3.79
Si  3.14 -3.36 -1.98
Si -2.17  4.35  1.48
Si -1.23 -2.76  4.10
Si -2.13 -2.49 -3.95
Si  0.67  0.76  5.27
Si  2.83  4.35  1.48
Si -2.19  4.88 -0.69
Si  3.36 -4.15  0.84
Si -4.82  2.42  0.48
Si  2.87 -2.49 -3.95
Si -1.70  3.22  4.10
Si  4.98 -0.41 -2.27
Si -4.43 -2.83 -1.64
Si -5.02 -0.41 -2.27
Si -4.53 -2.07  2.51
Si  1.06 -4.49  3.15
Si -4.41  1.49  3.15
Si -4.35 -3.56  0.48
Si  2.81  4.88 -0.69
Si  2.12 -5.22 -1.00
Si  5.17  2.42  0.48
Si  2.40  3.49 -3.95
Si -1.62  0.17  5.63
Si -2.60  3.49 -3.95
Si -1.36 -5.02  2.81
Si -2.21  0.56 -5.48
Si -0.32  4.08 -4.31
Si -0.49  5.58 -2.27
Si -2.88 -5.22 -1.00
Si -4.90  3.15 -1.64
Si  3.30  3.22  4.10
Si  2.79  0.56 -5.48
Si  5.10  3.15 -1.64
Si  3.77 -2.76  4.10
Si  5.47 -2.07  2.51
Si  1.15  2.42 -5.79
Si  5.57 -2.83 -1.64
Si  0.08 -1.18 -6.43
Si  1.67  5.09  3.79
Si  3.38  0.17  5.63
Si  5.59  1.49  3.15
Si  5.64 -3.56  0.48
Si -3.94 -4.49  3.15
Si -4.84 -1.90 -4.31
Si  6.64  0.77 -1.00
Si  0.45 -6.39 -2.27
Si  3.63 -5.02  2.81
Si -5.00  3.92  2.51
Si  5.00  3.92  2.51
Si -6.72 -1.10 -0.69
Si -4.33  0.76  5.27
Si  1.17  6.75 -1.00
Si  5.15 -1.90 -4.31
Si  1.62 -3.56 -5.79
Si -1.68  2.69  6.27
Si -1.72 -5.96 -3.31
Si -6.70 -1.64  1.48
Si -3.33  5.09  3.79
Si -1.21 -3.29  6.27
Si -0.51  1.25 -7.07
Si -1.25 -7.09 -0.69
Si  2.33  6.01 -3.31
Si -2.67  6.01 -3.31
Si -2.35 -1.70 -6.77
Si -3.85  2.42 -5.79
Si -7.11  1.83  0.84
Si -6.83  0.96  2.81
Si  2.65 -1.70 -6.77
Si  1.14 -5.22  5.27
Si  4.51  5.58 -2.27
Si  4.68  4.08 -4.31
Si  3.27 -5.96 -3.31
Si  3.32  2.69  6.27
Si -3.38 -3.56 -5.79
Si  0.49  2.26  7.30
Si -1.34 -0.70  7.60
Si  5.67  0.76  5.27
Si -3.83  6.75 -1.00
Si -2.31  6.95  2.81
Si -1.23 -7.62  1.48
Si -6.64 -4.15  0.84
Si -6.86 -3.36 -1.98
Si -1.74 -5.43 -5.48
Si -7.19  0.02 -3.31
Si -6.22 -2.76  4.10
Si  2.69  6.95  2.81
Si -5.32  4.08 -4.31
Si  1.08 -0.17  7.94
Si -7.33  2.62 -1.98
Si  3.79 -3.29  6.27
Si -0.39  4.81 -6.43
Si  3.75 -7.09 -0.69
Si  0.12  7.47  3.15
Si  7.13 -0.89  3.79
Si  7.89  1.83  0.84
Si -5.49  5.58 -2.27
Si -4.55 -6.39 -2.27
Si -1.15 -5.81  5.63
Si  6.06 -4.49  3.15
Si -4.92 -1.18 -6.43
Si -2.39 -6.88  3.79
Si  2.42  7.82  0.84
Si  0.96 -3.73  7.30
Si  2.61 -6.88  3.79
Si  5.08 -1.18 -6.43
Si -2.58  7.82  0.84
Si  2.18  4.28 -6.77
Si  7.67  2.62 -1.98
Si -3.86 -5.22  5.27
Si  3.26 -5.43 -5.48
Si  8.28 -1.10 -0.69
Si -0.30  8.40  0.48
Si -8.35  0.77 -1.00
Si  4.49  1.25 -7.07
Si  3.65 -0.70  7.60
Si  7.80  0.02 -3.31
Si -6.70  3.22  4.10
Si  0.94 -8.05  2.51
Si -2.82  4.28 -6.77
Si -0.04 -4.73 -7.07
Si -7.17  4.35  1.48
Si -7.13 -2.49 -3.95
Si  0.20  6.75  5.27
Si -6.36 -5.02  2.81
Si  8.29 -1.64  1.48
Si  2.31  1.68 -8.10
Si -2.09  6.16  5.63
Si  3.77 -7.62  1.48
Si  8.16  0.96  2.81
Si -6.62  0.17  5.63
Si -2.69  1.68 -8.10
Si  5.45 -6.39 -2.27
Si -7.19  4.88 -0.69
Si -7.86 -0.89  3.79
Si  6.15  2.42 -5.79
Si  2.91  6.16  5.63
Si  2.32  6.54 -5.48
Si -3.92 -0.17  7.94
Si -4.50  2.26  7.30
Si  7.11 -5.22 -1.00
Si -2.68  6.54 -5.48
Si  3.85 -5.81  5.63
Si  0.62 -7.89 -4.31
Si  8.14 -3.36 -1.98
Si  1.04 -8.82 -1.64
Si -5.51  1.25 -7.07
Si  7.82  4.35  1.48
Si -7.21  0.56 -5.48
Si  7.39  3.49 -3.95
Si  2.37 -0.83 -8.74
Si  2.20  8.61 -1.98
Si -1.21  1.56  8.89
Si -0.34 -0.24 -9.10
Si -4.03 -3.73  7.30
Si  7.86 -2.49 -3.95
Si -2.62 -0.83 -8.74
Si  6.66  5.09  3.79
Si  6.17  6.75 -1.00
Si  7.81  4.88 -0.69
Si -7.60  3.49 -3.95
Si  4.61  4.81 -6.43
Si -2.37 -2.55  8.57
Si -2.80  8.61 -1.98
Si -0.37  9.13 -1.64
Si  2.63 -2.55  8.57
Si -4.05 -8.05  2.51
Si  8.36 -4.15  0.84
Si  5.49  2.26  7.30
Si -6.21 -3.29  6.27
Si -1.81  5.29  7.60
Si -2.22 -4.30 -8.10
Si -4.88  7.47  3.15
Si -6.25 -7.09 -0.69
Si  2.16  3.43  8.57
Si  6.62 -3.56 -5.79
Si -1.66 -8.47 -3.95
Si -7.88 -5.22 -1.00
Si  7.79  0.56 -5.48
Si -6.68  2.69  6.27
Si -6.72 -5.96 -3.31
Si  2.78 -4.30 -8.10
Si  5.12  7.47  3.15
Si  1.12 -9.55  0.48
Si  6.14 -5.22  5.27
Si  0.55 -7.16 -6.43
Si  4.70  8.40  0.48
Si -1.39 -9.35 -1.98
Si -2.84  3.43  8.57
Si -5.39  4.81 -6.43
Si -0.76 -8.75  4.10
Si  3.79  1.56  8.89
Si  3.18  5.29  7.60
Si  8.30  3.22  4.10
Si -3.96 -8.82 -1.64
Si -4.80  6.75  5.27
Si  4.96 -4.73 -7.07
Si  0.61  5.82  7.94
Si -5.04 -4.73 -7.07
Si -6.34 -0.70  7.60
Si  3.34 -8.47 -3.95
Si -5.29  8.40  0.48
Si -6.23 -7.62  1.48
Si -0.73 -4.42  8.89
Si -9.43 -2.83 -1.64
Si -4.37 -7.89 -4.31
Si  6.08 -0.17  7.94
Si  5.20  6.75  5.27
Si -9.35 -3.56  0.48
Si -9.41  1.49  3.15
Si  7.33  6.01 -3.31
Si -9.53 -2.07  2.51
Si  8.77 -2.76  4.10
Si  8.38  0.17  5.63
Si -9.82  2.42  0.48
Si -7.35 -1.70 -6.77
Si  5.96 -3.73  7.30
Si -0.87 -6.68  7.60
Si -0.98  7.23 -7.07
Si -6.15 -5.81  5.63
Si  1.16 -0.90 10.06
Si  1.55 -6.15  7.94
Si  3.61 -9.35 -1.98
Si -0.47  9.90  2.51
Si  4.66 -0.24 -9.10
Si  0.68  8.41 -5.79
Si -1.17 -10.13  0.84
Si  9.98 -0.41 -2.27
Si -6.74 -5.43 -5.48
Si -10.02 -0.41 -2.27
Si -7.66  6.01 -3.31
Si -2.17  9.20  4.10
Si -3.88 -9.55  0.48
Si  5.94 -8.05  2.51
Si  1.90  5.15 -8.74
Si  7.65 -1.70 -6.77
Si  4.63  9.13 -1.64
Si  8.63 -5.02  2.81
Si -1.88 -7.69 -6.77
Si  1.92  9.47 -3.95
Si  2.83  9.20  4.10
Si -7.30  6.95  2.81
Si 10.17  2.42  0.48
Si -8.33  5.09  3.79
Si -8.94 -4.49  3.15
Si -9.90  3.15 -1.64
Si  4.24 -8.75  4.10
Si -5.34 -0.24 -9.10
Si -1.13 -1.49 10.42
Si -4.45 -7.16 -6.43
Si  5.62 -7.89 -4.31
Si -3.10  5.15 -8.74
Si -3.44 -6.15  7.94
Si  2.35 10.33  1.48
Si 10.10  3.15 -1.64
Si  3.12 -7.69 -6.77
Si -3.08  9.47 -3.95
Si -5.37  9.13 -1.64
Si  8.27 -5.96 -3.31
Si  7.69  6.95  2.81
Si -9.33  0.76  5.27
Si  7.18  4.28 -6.77
Si  8.32  2.69  6.27
Si  2.30  2.21 -10.27
Si -2.65 10.33  1.48
Si -4.39  5.82  7.94
Si -7.39 -6.88  3.79
Si -8.37 -3.56 -5.79
Si -0.81  5.74 -9.10
Si  4.26 -4.42  8.89
Si -3.84 -0.90 10.06
Si  7.42  7.82  0.84
Si  6.04 -8.82 -1.64
Si  1.13 -1.90 -10.59
Si -8.85  2.42 -5.79
Si -2.70  2.21 -10.27
Si  3.83 -10.13  0.84
Si  4.01  7.23 -7.07
Si -9.84 -1.90 -4.31
Si -2.15  8.67  6.27
Si -7.58  7.82  0.84
Si  4.13 -6.68  7.60
Si  7.61 -6.88  3.79
Si -7.09  6.16  5.63
Si -6.20  1.56  8.89
Si 10.47 -2.07  2.51
Si -0.79 10.06 -4.31
Si  0.02  8.24  7.30
Si -10.00  3.92  2.51
Si 10.00  3.92  2.51
Si  0.13 -6.23 -9.10
Si  7.31  1.68 -8.10
Si  1.53 -10.48  3.15
Si 10.57 -2.83 -1.64
Si  2.85  8.67  6.27
Si -4.32  8.41 -5.79
Si  5.55 -7.16 -6.43
Si  2.34 10.86 -0.69
Si 10.59  1.49  3.15
Si -8.82  6.75 -1.00
Si -1.19  1.03 11.06
Si -2.23 -3.77 -10.27
Si  4.53  9.90  2.51
Si -7.82  4.28 -6.77
Si 10.15 -1.90 -4.31
Si -2.66 10.86 -0.69
Si  3.87 -1.49 10.42
Si -0.74 -9.28  6.27
Si 10.64 -3.56  0.48
Si -0.41  0.48 -11.22
Si  7.32  6.54 -5.48
Si -5.75 -8.75  4.10
Si  9.51  5.58 -2.27
Si  8.75 -7.09 -0.69
Si  8.79 -3.29  6.27
Si  2.77 -3.77 -10.27
Si -2.15 -6.82 -8.74
Si  0.69  5.09 10.06
Si -7.69  1.68 -8.10
Si  8.26 -5.43 -5.48
Si  1.84  7.67 -8.10
Si  5.61  5.82  7.94
Si  6.12 -9.55  0.48
Si  9.68  4.08 -4.31
Si  2.09 -9.54 -5.79
Si  0.66  4.08 -10.59
Si  7.20  8.61 -1.98
Si -0.89 -11.00  2.81
Si -3.87 -1.90 -10.59
Si  2.85 -6.82 -8.74
Si -5.73 -4.42  8.89
Si  7.37 -0.83 -8.74
Si -1.60  4.50 10.42
Si -3.47 -10.48  3.15
Si -6.66 -8.47 -3.95
Si -7.68  6.54 -5.48
Si -6.38 -9.35 -1.98
Si  7.91  6.16  5.63
Si -6.81  5.29  7.60
Si -2.41 -11.20 -1.00
Si -2.90 -9.54 -5.79
Si  2.59 -11.20 -1.00
Si  8.65 -0.70  7.60
Si  4.19  5.74 -9.10
Si -8.86 -5.22  5.27
Si -5.47  9.90  2.51
Si -7.37 -2.55  8.57
Si -3.16  7.67 -8.10
Si -7.62 -0.83 -8.74
Si -7.21 -4.30 -8.10
Si  7.16  3.43  8.57
Si  5.68  8.41 -5.79
Si -5.87 -6.68  7.60
Si  8.77 -7.62  1.48
Si 11.64  0.77 -1.00
Si -9.55 -6.39 -2.27
Si  4.21 10.06 -4.31
Si  3.81  1.03 11.06
Si -5.98  7.23 -7.07
Si  7.63 -2.55  8.57
Si  2.16 -0.04 -11.56
Si  1.20 11.07  3.79
Si -1.68  7.54  8.89
Si -7.80  8.61 -1.98
Si -11.72 -1.10 -0.69
Si -0.96 11.56 -2.27
Si  6.16 -0.90 10.06
Si  3.40  4.50 10.42
Si -9.92 -1.18 -6.43
Si  9.48  1.25 -7.07
Si -6.17 -10.13  0.84
Si -10.31  4.08 -4.31
Si -2.84 -0.04 -11.56
Si -11.70 -1.64  1.48
Si 10.66  0.76  5.27
Si -8.91 -0.17  7.94
Si  4.26 -9.28  6.27
Si  8.85 -5.81  5.63
Si  6.55 -6.15  7.94
Si 10.07 -1.18 -6.43
Si  7.78 -4.30 -8.10
Si -4.87 -6.23 -9.10
Si -4.31  5.09 10.06
Si  4.11 -11.00  2.81
Si -4.98  8.24  7.30
Si -10.49  5.58 -2.27
Si  5.02  8.24  7.30
Si -7.84  3.43  8.57
Si  3.32  7.54  8.89
Si  4.58  0.48 -11.22
Si -0.72 -4.95 11.06
Si -4.34  4.08 -10.59
Si  0.99  0.60 12.09
Si  5.13 -6.23 -9.10
Si -6.12 -1.49 10.42
Si -9.50  2.26  7.30
Si -9.03 -3.73  7.30
Si -11.83  0.96  2.81
Si -5.81  5.74 -9.10
Si  1.44 -9.71  7.30
Si -1.90 -8.54  8.57
Si -1.00  2.91 -11.86
Si -0.53 -3.08 -11.86
Si -11.22 -2.76  4.10
Si  6.90  5.15 -8.74
Si -12.11  1.83  0.84
Si  1.63 -6.88 10.06
Si -3.80 11.07  3.79
Si -6.88 -7.69 -6.77
Si 11.06 -4.49  3.15
Si  8.18  5.29  7.60
Si -7.17  9.20  4.10
Si -9.05 -8.05  2.51
Si  6.13 -1.90 -10.59
Si  6.92  9.47 -3.95
Si -5.79 10.06 -4.31
Si -11.64 -4.15  0.84
Si  1.71 10.26 -6.77
Si  4.04 11.56 -2.27
Si -1.25 -11.94 -3.31
Si 10.45 -6.39 -2.27
Si -5.41  0.48 -11.22
Si -11.85 -3.36 -1.98
Si  1.61 -11.21  5.27
Si  3.10 -8.54  8.57
Si  0.06 -5.50 -11.22
Si  9.60  4.81 -6.43
Si  8.34 -8.47 -3.95
Si  1.86 11.99 -3.31
Si -5.74 -9.28  6.27
Si -0.86 10.79 -6.43
Si  8.79  1.56  8.89
Si  0.92 -12.38 -2.27
Si  5.69  5.09 10.06
Si -12.19  0.02 -3.31
Si -0.85 -2.35 12.39
Si -3.37 -6.88 10.06
Si -3.56 -9.71  7.30
Si -8.96 -8.82 -1.64
Si  5.66  4.08 -10.59
Si -6.19  1.03 11.06
Si -1.27 -11.41 -5.48
Si -10.51  1.25 -7.07
Si -3.29 10.26 -6.77
Si -11.36 -5.02  2.81
Si 12.13 -0.89  3.79
Si  6.53 -10.48  3.15
Si -12.32  2.62 -1.98
Si -4.01  0.60 12.09
Si  7.83  9.20  4.10
Si  7.35 10.33  1.48
Si -9.88  7.47  3.15
Si  0.70 12.73 -1.00
Si  7.29  2.21 -10.27
Si -5.89 -11.00  2.81
Si 11.15  2.42 -5.79
Si -11.69  3.22  4.10
Si -3.14 11.99 -3.31
Si -3.39 -11.21  5.27
Si -0.66 -7.47 10.42
Si  0.43 -10.72 -7.07
Si  3.99  2.91 -11.86
Si  9.70  8.40  0.48
Si  1.69  9.41  8.57
Si  4.28 -4.95 11.06
Si  8.61 -9.35 -1.98
Si -7.15  8.67  6.27
Si -11.62  0.17  5.63
Si -7.64 10.33  1.48
Si  3.75 -11.94 -3.31
Si  1.58 -1.83 12.73
Si 10.12  7.47  3.15
Si -8.09  5.15 -8.74
Si -0.89  6.47 -11.22
