500
set: 1023.00  0.00  0.00
Si  0.41 -1.17  0.84
Si -0.44  1.20 -0.80
Si -1.33 -1.19 -0.78
Si  1.36  1.19  0.83
Si -2.15  1.12  0.80
Si -0.89 -0.02  2.43
Si  0.91  0.01 -2.44
Si  2.17 -1.19 -0.83
Si -3.07 -1.14  0.83
Si -0.08 -2.35 -2.46
Si  0.02  2.36  2.46
Si  3.12  1.16 -0.79
Si  2.64 -0.01  2.44
Si -2.65  0.04 -2.46
Si  0.48  3.52 -0.78
Si -0.46 -3.52  0.83
Si  1.73 -2.34  2.42
Si  1.73  2.36 -2.46
Si -1.74  2.32 -2.50
Si -1.80 -2.34  2.46
Si  1.30 -3.55 -0.79
Si -1.26  3.56  0.83
Si -3.90  1.16 -0.79
Si  0.82  0.01  4.09
Si -0.89  0.01 -4.09
Si  3.94 -1.14  0.83
Si -2.25 -3.50 -0.80
Si  2.22  3.54  0.84
Si -3.03  3.52 -0.83
Si  0.00 -2.35  4.10
Si  0.02  2.33 -4.12
Si  3.05 -3.59  0.80
Si -2.65 -0.03  4.05
Si -3.47  2.37  2.42
Si  3.46 -2.39 -2.50
Si  2.64  0.02 -4.12
Si  3.54  2.37  2.42
Si -3.55 -2.39 -2.50
Si  4.37  0.04 -2.46
Si -4.38 -0.01  2.44
Si  1.73 -2.36 -4.11
Si -1.74  2.40  4.08
Si -4.84 -1.19 -0.83
Si  4.87  1.12  0.80
Si  1.81  2.36  4.10
Si -1.80 -2.37 -4.12
Si  0.92  4.69  2.43
Si  0.82 -4.71  2.44
Si -0.91 -4.70 -2.44
Si  3.98  3.52 -0.83
Si -3.96 -3.59  0.80
Si -0.84  4.75 -2.46
Si  3.46 -2.31  4.08
Si -5.66  1.19  0.83
Si  0.45 -1.17 -5.72
Si  5.68 -1.19 -0.78
Si  2.55 -4.66 -2.46
Si -3.47  2.35 -4.11
Si -2.56  4.70  2.44
Si -3.56 -2.31  4.08
Si -0.34  5.83  0.80
Si -0.43  1.16  5.77
Si  3.54  2.35 -4.11
Si  4.37 -0.03  4.05
Si -2.70 -4.72  2.43
Si  0.36 -5.89 -0.83
Si  2.72  4.71 -2.44
Si  4.77 -3.50 -0.80
Si  1.32  1.19 -5.71
Si -1.34 -1.15  5.74
Si -4.38  0.02 -4.12
Si -4.79  3.54  0.84
Si -1.40 -5.87  0.84
Si  1.38  5.91 -0.80
Si  5.22 -2.34  2.46
Si -2.17  1.21 -5.71
Si -0.83  4.67  4.05
Si -5.28 -2.34  2.42
Si -2.08  5.86 -0.79
Si  5.27  2.32 -2.50
Si  2.13 -5.85  0.83
Si  2.21 -1.20  5.76
Si -5.28  2.36 -2.46
Si  0.82 -4.69 -4.12
Si -0.99 -4.70  4.09
Si  0.92  4.72 -4.09
Si -6.11  0.01 -2.44
Si  6.13 -0.02  2.43
Si  3.08  1.17  5.72
Si -3.05 -1.24 -5.74
Si -0.49 -3.52 -5.71
Si -3.15 -5.90 -0.78
Si  6.58  1.20 -0.80
Si  2.56 -4.74  4.05
Si  3.17  5.89  0.83
Si -6.60 -1.17  0.84
Si  0.47  3.55  5.74
Si -5.71 -3.55 -0.79
Si -2.56  4.72 -4.12
Si  2.64  4.71  4.09
Si -2.70 -4.70 -4.09
Si  5.76  3.56  0.83
Si -1.24  3.47 -5.74
Si -4.29  4.71 -2.44
Si  4.31 -4.72  2.43
Si  1.26 -3.54  5.72
Si -4.46 -4.66 -2.46
Si  4.45  4.70  2.44
Si -5.20  2.36  4.10
Si -3.94  1.17  5.72
Si  5.22 -2.37 -4.12
Si -3.85  5.89  0.83
Si  5.27  2.40  4.08
Si  3.96 -1.24 -5.74
Si  2.26  3.54 -5.72
Si  3.87 -5.90 -0.78
Si -5.28 -2.36 -4.11
Si -2.24 -3.54  5.77
Si  3.04 -3.50 -5.71
Si  6.13  0.01 -4.09
Si -2.99  3.51  5.76
Si -6.19  0.01  4.09
Si -0.43  1.16 -7.32
Si -0.08 -7.04  2.42
Si  0.07  7.03 -2.50
Si -6.54  3.52 -0.78
Si  0.45 -1.17  7.38
Si  6.56 -3.52  0.83
Si -1.34 -1.15 -7.35
Si  7.43 -1.17  0.84
Si  4.31 -4.70 -4.09
Si -7.45  1.20 -0.80
Si  4.85  1.21 -5.71
Si -4.80 -1.20  5.76
Si  1.32  1.19  7.39
Si -4.38  4.71  4.09
Si -1.66  7.08  2.42
Si -4.46 -4.74  4.05
Si -4.88 -5.85  0.83
Si  4.45  4.72 -4.12
Si  1.65 -7.09 -2.50
Si  4.93  5.86 -0.79
Si  1.83  7.07  2.46
Si -1.89 -7.05 -2.46
Si  6.93 -2.35 -2.46
Si  2.21 -1.20 -7.33
Si -2.17  1.21  7.38
Si -7.00  2.36  2.46
Si -3.98 -3.50 -5.71
Si  7.03  2.36  2.46
Si  4.02  3.51  5.76
Si -7.10 -2.35 -2.46
Si -3.05 -1.24  7.35
Si -6.09  4.69  2.43
Si  3.08  1.17 -7.37
Si  6.11 -4.70 -2.44
Si -5.70  1.19 -5.71
Si  5.67 -1.15  5.74
Si -6.19 -4.71  2.44
Si  5.61 -5.87  0.84
Si  6.18  4.75 -2.46
Si -0.08 -7.07 -4.11
Si  0.47  3.55 -7.35
Si  0.07  7.10  4.08
Si -0.49 -3.52  7.39
Si -5.64  5.91 -0.80
Si  3.41 -7.05  2.46
Si -1.24  3.47  7.35
Si -4.75  3.54 -5.72
Si -0.35  5.92 -5.71
Si -3.47  7.07 -2.46
Si  0.40 -5.91  5.76
Si -7.91 -0.02  2.43
Si  1.26 -3.54 -7.37
Si  3.54  7.07 -2.46
Si  1.65 -7.02  4.08
Si  4.78 -3.54  5.77
Si  7.92  0.01 -2.44
Si -3.61 -7.05  2.46
Si -7.47 -3.52  0.83
Si -1.36 -5.88 -5.72
Si -0.51 -8.26 -0.79
Si  7.50  3.52 -0.78
Si -1.66  7.05 -4.11
Si  0.56  8.27  0.83
Si  1.39  5.87  5.77
Si -1.22  8.23 -0.83
Si -1.81 -7.05  4.10
Si  1.83  7.04 -4.12
Si  1.24 -8.29  0.80
Si -2.24 -3.54 -7.32
Si  3.96 -1.24  7.35
Si -3.94  1.17 -7.37
Si -7.00  2.33 -4.12
Si -7.01 -2.35  4.10
Si  7.02 -2.35  4.10
Si -2.12  5.87  5.72
Si -8.35 -1.19 -0.78
Si  7.03  2.33 -4.12
Si  2.26  3.54  7.38
Si  8.37  1.19  0.83
Si  2.15 -5.94 -5.74
Si  2.29  8.22 -0.78
Si -2.27 -8.23  0.83
Si -2.99  3.51 -7.33
Si  6.03 -4.70  4.09
Si  3.04 -3.50  7.38
Si -6.09  4.72 -4.09
Si  6.18  4.67  4.05
Si  2.95 -8.21 -0.80
Si  3.13  5.89 -5.71
Si -6.57 -1.17 -5.72
Si -3.16 -5.86  5.74
Si -6.19 -4.69 -4.12
Si -2.98  8.25  0.84
Si  6.59  1.16  5.77
Si  7.84  0.01  4.09
Si -3.39  7.07  4.10
Si -5.75 -3.54  5.72
Si -4.80 -1.20 -7.33
Si  5.77  3.47 -5.74
Si  3.41 -7.08 -4.12
Si -7.90  0.01 -4.09
Si  6.68  5.83  0.80
Si  4.85  1.21  7.38
Si -6.66 -5.89 -0.83
Si  3.63  7.07  4.10
Si -3.61 -7.08 -4.12
Si  0.82  0.01 -9.00
Si -8.27  3.56  0.83
Si -0.89  0.01  9.01
Si  5.12 -7.05 -2.46
Si  3.86 -5.86  5.74
Si  4.02  3.51 -7.33
Si -3.88  5.89 -5.71
Si  8.32 -3.55 -0.79
Si -3.98 -3.50  7.38
Si -5.18  7.07  2.46
Si -4.06 -8.21 -0.80
Si  5.36  7.08  2.42
Si  4.04  8.25  0.84
Si -5.37 -7.09 -2.50
Si -9.16  1.12  0.80
Si  0.02  2.33  8.97
Si  0.00 -2.35 -8.99
Si  9.19 -1.19 -0.83
Si  2.64  0.02  8.97
Si  6.52 -3.52 -5.71
Si  5.67 -1.15 -7.35
Si  8.75 -2.34  2.42
Si  8.75  2.36 -2.46
Si -8.76  2.32 -2.50
Si -5.70  1.19  7.39
Si -6.54  3.55  5.74
Si -7.35  5.83  0.80
Si -2.65 -0.03 -9.04
Si  0.40 -5.91 -7.33
Si  4.78 -3.54 -7.32
Si -8.81 -2.34  2.46
Si  1.73 -2.36  8.99
Si -1.80 -2.37  8.97
Si -4.75  3.54  7.38
Si -0.35  5.92  7.38
Si  7.84 -4.71  2.44
Si  1.81  2.36 -8.99
Si  7.46 -1.17 -5.72
Si  7.37 -5.89 -0.83
Si -1.74  2.40 -9.01
Si  1.39  5.87 -7.32
Si -7.44  1.16  5.77
Si -7.85  4.75 -2.46
Si -4.72  8.22 -0.78
Si -7.92 -4.70 -2.44
Si -1.36 -5.88  7.38
Si  7.94  4.69  2.43
Si  4.75 -8.23  0.83
Si  4.89  5.87  5.72
Si -4.87 -5.94 -5.74
Si -2.12  5.87 -7.37
Si -5.18  7.04 -4.12
Si  5.20 -7.05  4.10
Si  2.15 -5.94  7.35
Si  0.74 -9.37 -2.46
Si -5.37 -7.02  4.08
Si -0.75  9.41  2.44
Si  5.36  7.05 -4.11
Si -0.99 -9.42  2.44
Si  0.98  9.46 -2.46
Si -3.16 -5.86 -7.35
Si -3.47  2.35  8.99
Si  6.59  1.16 -7.32
Si  3.46 -2.31 -9.01
Si  9.24  3.54  0.84
Si -9.27 -3.50 -0.80
Si  3.54  2.35  8.99
Si -6.57 -1.17  7.38
Si  8.75 -2.36 -4.11
Si  3.13  5.89  7.39
Si  9.65 -0.01  2.44
Si -8.76  2.40  4.08
Si  5.65 -5.88 -5.72
Si -3.56 -2.31 -9.01
Si  5.77  3.47  7.35
Si -5.63  5.87  5.77
Si -9.67  0.04 -2.46
Si -4.38  0.02  8.97
Si -7.85  4.67  4.05
Si -5.75 -3.54 -7.37
Si  0.57  8.18 -5.74
Si -8.81 -2.37 -4.12
Si  8.83  2.36  4.10
Si  7.84 -4.69 -4.12
Si  4.37 -0.03 -9.04
Si -2.48  9.42 -2.44
Si -0.55 -8.25  5.72
Si  2.50 -9.43  2.43
Si -7.51 -3.52 -5.71
Si  1.22 -8.20 -5.71
Si  7.49  3.55  5.74
Si  2.74  9.39  2.43
Si -2.72 -9.40 -2.44
Si  5.80  8.23 -0.83
Si  7.94  4.72 -4.09
Si -1.18  8.21  5.76
Si -5.77 -8.29  0.80
Si -8.00 -4.70  4.09
Si  0.82 -4.69  8.97
Si  3.86 -5.86 -7.35
Si  8.33  1.19 -5.71
Si  6.93 -7.04  2.42
Si -10.09 -1.14  0.83
Si -6.94  7.03 -2.50
Si -0.99 -4.70 -9.00
Si -8.36 -1.15  5.74
Si  0.92  4.72  9.01
Si -0.83  4.67 -9.04
Si -3.88  5.89  7.39
Si 10.13  1.16 -0.79
Si  0.98  9.38  4.05
Si -2.31 -8.22 -5.71
Si  7.09  7.03 -2.50
Si -7.10 -7.04  2.42
Si  8.39  5.91 -0.80
Si -8.42 -5.87  0.84
Si  0.74 -9.45  4.05
Si -0.99 -9.40 -4.12
Si  2.28  8.26  5.74
Si -0.75  9.43 -4.12
Si -2.94  8.24 -5.72
Si -2.56  4.72  8.97
Si  6.52 -3.52  7.39
Si -6.54  3.55 -7.35
Si -9.66 -0.03  4.05
Si  2.96 -8.25  5.77
Si  9.65  0.02 -4.12
Si  2.64  4.71 -9.00
Si -7.44  1.16 -7.32
Si -2.70 -4.70  9.01
Si  2.56 -4.74 -9.04
Si -6.46  8.27  0.83
Si  6.51 -8.26 -0.79
Si  2.50 -9.40 -4.09
Si  7.46 -1.17  7.38
Si -6.62 -5.91  5.76
Si -2.56  9.42  4.09
Si  6.66  5.92 -5.71
Si  0.32 -10.56  0.83
Si -0.27 10.57 -0.79
Si -4.28  9.39  2.43
Si  4.89  5.87 -7.37
Si  4.30 -9.40 -2.44
Si  2.74  9.42 -4.09
Si -4.87 -5.94  7.35
Si -2.80 -9.41  4.09
Si -8.26  3.47 -5.74
Si  5.22 -2.37  8.97
Si -5.20  2.36 -8.99
Si  1.48 10.53  0.80
Si  8.28 -3.54  5.72
Si -10.05  3.52 -0.83
Si  0.91  0.01 10.65
Si -5.28 -2.36  8.99
Si -0.89 -0.02 -10.66
Si  5.27  2.40 -9.01
Si  6.93 -7.07 -4.11
Si 10.07 -3.59  0.80
Si -1.46 -10.60 -0.83
Si -4.52 -9.43  2.43
Si  4.54  9.42 -2.44
Si -6.95  7.10  4.08
Si -2.03 10.60  0.83
Si -7.10 -7.07 -4.11
Si  2.06 -10.60 -0.78
Si  4.08  8.24 -5.72
Si  7.08  7.10  4.08
Si -4.05 -8.25  5.77
Si -9.10  5.86 -0.79
Si -9.18  1.21 -5.71
Si  9.15 -5.85  0.83
Si -0.08 -2.35 10.63
Si  6.13  0.01  9.01
Si  0.02  2.36 -10.63
Si  9.57 -4.66 -2.46
Si -6.19  0.01 -9.00
Si  9.23 -1.20  5.76
Si -5.63  5.87 -7.32
Si -9.58  4.70  2.44
Si -2.65  0.04 10.63
Si  2.64 -0.01 -10.65
Si -1.74  2.32 10.60
Si  5.65 -5.88  7.38
Si -10.91  1.16 -0.79
Si  0.57  8.18  7.35
Si -10.49  2.37  2.42
Si  1.73  2.36 10.63
Si 10.48 -2.39 -2.50
Si  4.31 -4.70  9.01
Si -1.80 -2.34 -10.63
Si -7.37  5.92 -5.71
Si 10.96 -1.14  0.83
Si  1.73 -2.34 -10.67
Si  4.71 -8.22 -5.71
Si -4.38  4.71 -9.00
Si  4.45  4.72  8.97
Si -9.72 -4.72  2.43
Si  7.49  3.55 -7.35
Si -1.18  8.21 -7.33
Si -0.55 -8.25 -7.37
Si -3.21 -10.58  0.84
Si  4.21 -9.41  4.09
Si  7.41 -5.91  5.76
Si 10.56  2.37  2.42
Si  9.74  4.71 -2.44
Si  1.22 -8.20  7.38
Si -7.51 -3.52  7.39
Si  3.19 10.61 -0.80
Si -4.73  8.26  5.74
Si -10.57 -2.39 -2.50
Si -4.28  9.42 -4.09
Si -4.46 -4.74 -9.04
Si -8.36 -1.15 -7.35
Si  4.45  9.42  4.09
Si  8.33  1.19  7.39
Si -7.53 -8.26 -0.79
Si -4.51 -9.40 -4.09
Si  7.57  8.27  0.83
Si  3.80 -10.58  0.84
Si  2.28  8.26 -7.35
Si -2.31 -8.22  7.39
Si -3.83 10.61 -0.80
Si  3.46 -2.39 10.60
Si  9.57 -4.74  4.05
Si  2.96 -8.25 -7.32
Si -3.55 -2.39 10.60
Si -0.08 -7.07  8.99
Si  6.03 -9.42  2.44
Si -2.94  8.24  7.38
Si -9.58  4.72 -4.12
Si -8.67  7.08  2.42
Si  9.28  3.54 -5.72
Si -3.47  2.37 -10.67
Si -9.26 -3.54  5.77
Si  8.66 -7.09 -2.50
Si  0.07  7.10 -9.01
Si 10.47 -2.31  4.08
Si -6.04  9.46 -2.46
Si  3.54  2.37 -10.67
Si  4.37  0.04 10.63
Si  9.65  4.71  4.09
Si -10.49  2.35 -4.11
Si -6.62 -5.91 -7.33
Si -4.38 -0.01 -10.65
Si  1.65 -7.02 -9.01
Si -9.72 -4.70 -4.09
Si -6.28 -9.37 -2.46
Si -1.66  7.05  8.99
Si  1.83  7.04  8.97
Si -5.79 -8.20 -5.71
Si  6.26  9.41  2.44
Si -10.57 -2.31  4.08
Si -1.81 -7.05 -8.99
Si  6.66  5.92  7.38
Si 10.56  2.35 -4.11
Si -10.98 -3.59  0.80
Si 11.00  3.52 -0.83
Si -8.26  3.47  7.35
Si  8.85  7.07  2.46
Si  5.84  8.21  5.76
Si -7.00  2.33  8.97
Si -8.91 -7.05 -2.46
Si  7.03  2.33  8.97
Si  8.28 -3.54 -7.37
Si -7.01 -2.35 -8.99
Si  7.02 -2.35 -8.99
Si 11.38  0.04 -2.46
Si -11.39 -0.01  2.44
Si -10.07 -1.24 -5.74
Si 10.09  1.17  5.72
Si -8.23  8.23 -0.83
Si -0.84  4.75 10.63
