500
set: 390.00  0.00  0.00
Si -0.08 -0.03 -0.01
Si  1.73  1.06  0.81
Si -0.00 -0.01 -2.26
Si -1.90  1.04  0.79
Si -0.03 -2.18  0.77
Si  3.64  0.12 -0.07
Si  1.81  3.17 -0.01
Si -1.83  3.17  0.07
Si  0.11  2.13 -2.99
Si -1.88 -1.06 -2.99
Si  1.83 -1.12 -3.01
Si -1.87  1.02  3.03
Si  1.82  1.08  3.06
Si  0.11 -2.14  3.06
Si  1.87 -3.25  0.07
Si -1.89 -3.24 -0.01
Si -3.76  0.12 -0.07
Si -1.76  3.19 -2.23
Si -0.02  2.18  3.68
Si -1.76 -3.19 -2.27
Si  3.70 -2.07  0.71
Si -3.70 -2.07  0.71
Si -1.76 -1.09  3.81
Si  3.68  0.04 -2.36
Si  1.94 -1.05  3.78
Si  1.95 -3.23 -2.23
Si  1.94  3.22 -2.27
Si -0.00  4.34  0.71
Si -3.72  0.04 -2.36
Si -3.56 -2.13  2.95
Si -3.56  2.14 -3.09
Si  0.14  4.28  2.95
Si  0.14 -4.27 -3.09
Si  3.84 -2.13  2.95
Si  3.84  2.14 -3.09
Si  3.67  4.23  0.77
Si  5.50  1.04  0.79
Si  1.80 -1.10 -5.25
Si -0.03  2.09 -5.28
Si -3.73  4.23  0.77
Si -1.97 -1.07 -5.23
Si  3.70  2.13  3.79
Si -3.70  2.13  3.79
Si -0.00 -4.28  3.79
Si  1.80 -5.37  0.79
Si -1.97 -5.35  0.81
Si -5.68  1.06  0.81
Si -0.06 -6.29 -0.07
Si -3.60 -4.28 -2.99
Si  1.87  1.03 -5.97
Si -3.60  4.27  3.06
Si -1.87  5.29 -3.01
Si  5.53 -1.06 -2.99
Si -0.06  2.26  5.97
Si  5.53  1.02  3.03
Si  5.51 -3.24 -0.01
Si  1.82  5.35 -2.99
Si  1.81 -1.10  6.04
Si  5.58  3.17  0.07
Si -5.53 -3.25  0.07
Si -1.89  1.03 -6.05
Si -1.88 -5.33  3.06
Si -5.59  3.17 -0.01
Si -5.57 -1.12 -3.01
Si -0.06 -2.02 -6.12
Si  1.83 -5.39  3.03
Si -5.58  1.08  3.06
Si  3.81 -4.28 -2.99
Si -1.83 -1.11  6.12
Si  3.81  4.27  3.06
Si -0.06  6.53 -0.07
Si  3.68 -4.23  3.68
Si -5.46 -3.23 -2.23
Si -5.46 -1.05  3.78
Si -3.72 -4.23  3.68
Si -5.46  3.22 -2.27
Si -0.00  0.06  6.75
Si -1.76  5.36  3.78
Si -0.02 -6.37 -2.36
Si -0.00 -4.21 -5.33
Si  1.95  5.32  3.81
Si  3.70  2.20 -5.33
Si -3.70  2.20 -5.33
Si  5.65  3.19 -2.23
Si  5.64 -3.19 -2.27
Si -0.02  6.46 -2.36
Si  5.65 -1.09  3.81
Si  7.32 -0.03 -0.01
Si  3.62  6.39 -0.01
Si  3.62  2.11  6.03
Si  3.62 -2.16 -6.05
Si  3.62 -6.44 -0.01
Si -0.08  4.25 -6.05
Si -0.08 -4.30  6.03
Si -3.79  6.39 -0.01
Si -3.79  2.11  6.03
Si -3.79 -2.16 -6.05
Si -3.79 -6.44 -0.01
Si -7.49 -0.03 -0.01
Si  5.43 -1.07 -5.23
Si  5.43 -5.35  0.81
Si  1.73  5.33 -5.23
Si  1.80  7.45  0.79
Si -1.90  5.31 -5.25
Si  7.38 -2.18  0.77
Si  3.70  6.40 -2.26
Si -3.70  6.40 -2.26
Si  3.67 -0.04  6.81
Si  7.40 -0.01 -2.26
Si -7.40 -0.01 -2.26
Si -3.70 -6.42 -2.26
Si  3.70 -6.42 -2.26
Si  3.67 -4.32 -5.28
Si  1.80  3.17  6.84
Si -5.60 -1.10 -5.25
Si -3.73 -0.04  6.81
Si  1.73 -3.21  6.86
Si -1.97  7.47  0.81
Si -3.73 -4.32 -5.28
Si -7.43 -2.18  0.77
Si -1.90 -3.24  6.84
Si -5.60 -5.37  0.79
Si -1.97  3.20  6.86
Si  3.64 -4.15  5.97
Si -7.30  2.13 -2.99
Si -3.76 -4.15  5.97
Si -7.30 -2.14  3.06
Si -5.53  1.03 -5.97
Si  5.53  5.29 -3.01
Si  1.83  7.43  3.03
Si -1.83 -5.38 -5.97
Si  1.82 -7.47 -2.99
Si  5.51  1.03 -6.05
Si -1.89  5.31  6.04
Si  5.53 -5.33  3.06
Si -5.58  5.35 -2.99
Si  1.81 -5.38 -6.05
Si -5.59 -1.10  6.04
Si -1.88  7.49  3.06
Si  1.87  5.30  6.12
Si -1.87 -7.53 -3.01
Si -5.57 -5.39  3.03
Si  5.57 -1.11  6.12
Si  7.51  2.13 -2.99
Si  3.64  4.39 -6.12
Si  7.51 -2.14  3.06
Si -3.76  4.39 -6.12
Si -0.00 -8.48  0.71
Si -5.46  5.32  3.81
Si  7.38  2.18  3.68
Si -1.76 -7.46  3.78
Si -1.76  1.08 -8.31
Si  1.95  1.05 -8.28
Si -7.42  2.18  3.68
Si  7.40  4.34  0.71
Si -7.40  4.34  0.71
Si  1.95 -7.50  3.81
Si  5.64  5.36  3.78
Si -0.02 -2.09 -8.40
Si -7.27  4.28  2.95
Si -7.27 -4.27 -3.09
Si  0.14  0.01  8.99
Si  0.14 -8.54  2.95
Si  0.14  8.55 -3.09
Si  0.14  0.00 -9.14
Si  7.54  4.28  2.95
Si  7.54 -4.27 -3.09
Si  9.13  1.06  0.81
Si  5.43  7.47  0.81
Si  5.50  5.31 -5.25
Si  1.73 -7.49 -5.23
Si  7.38  2.09 -5.28
Si  5.43  3.20  6.86
Si -0.03  6.37  6.81
Si  0.00  4.27 -8.30
Si -3.70 -2.14 -8.30
Si  3.70 -2.14 -8.30
Si -0.00  8.54  3.79
Si -7.43  2.09 -5.28
Si  7.40 -4.28  3.79
Si -7.40 -4.28  3.79
Si -5.60  7.45  0.79
Si  5.50 -3.24  6.84
Si -1.90 -7.51 -5.25
Si  3.67 -8.59  0.77
Si -5.68  5.33 -5.23
Si -0.03 -6.46  6.81
Si -5.60  3.17  6.84
Si -9.30  1.04  0.79
Si -3.73 -8.59  0.77
Si -5.68 -3.21  6.86
Si  7.34 -6.29 -0.07
Si -1.83  7.44 -5.97
Si -3.60 -0.00 -9.03
Si  7.34  2.26  5.97
Si -3.60  8.55 -2.99
Si  9.21  3.17 -0.01
Si  5.51  5.31  6.04
Si  1.82 -3.19 -9.03
Si  1.87  9.58  0.07
Si -9.23  3.17  0.07
Si -7.46 -6.29 -0.07
Si  1.83  3.15 -9.06
Si  1.81  7.44 -6.05
Si -3.60 -8.55  3.06
Si -1.89  9.58 -0.01
Si  7.34 -2.02 -6.12
Si -5.58  7.43  3.03
Si -1.88  3.22 -9.03
Si  9.23 -1.12 -3.01
Si  1.83  3.15  9.07
Si  9.23  1.08  3.06
Si  5.58 -5.38 -5.97
Si -3.60 -0.00  9.10
Si -5.58 -7.47 -2.99
Si  5.53  7.49  3.06
Si  3.81 -0.00 -9.03
Si -5.53  5.30  6.12
Si -1.87 -3.26 -9.06
Si -9.28 -1.06 -2.99
Si -9.28  1.02  3.03
Si  1.82 -3.19  9.10
Si  5.53 -7.53 -3.01
Si  1.81 -9.65 -0.01
Si -7.46  2.26  5.97
Si -1.87 -3.26  9.07
Si  3.81  8.55 -2.99
Si -1.89 -7.51  6.04
Si -1.83 -9.66  0.07
Si  9.28 -3.25  0.07
Si  7.34  6.53 -0.07
Si -1.88  3.22  9.10
Si -5.59 -5.38 -6.05
Si -9.29 -3.24 -0.01
Si  3.81 -8.55  3.06
Si -7.46 -2.02 -6.12
Si  3.81 -0.00  9.10
Si  1.87 -7.52  6.12
Si -7.46  6.53 -0.07
Si -0.02 -2.09  9.73
Si -9.16  3.19 -2.23
Si -9.16 -3.19 -2.27
Si -5.46  1.05 -8.28
Si  3.70 -6.35  6.75
Si -3.70 -6.35  6.75
Si -9.16 -1.09  3.81
Si -1.76 -5.36 -8.28
Si  7.40  0.06  6.75
Si -7.40  0.06  6.75
Si -5.46 -7.50  3.81
Si  7.38 -6.37 -2.36
Si -1.76  1.08  9.82
Si  1.95  9.60 -2.23
Si -1.76 -9.64 -2.23
Si  3.68  8.59  3.68
Si  7.40 -4.21 -5.33
Si -7.40 -4.21 -5.33
Si -1.76  9.63 -2.27
Si  1.94 -9.60 -2.27
Si -7.42 -6.37 -2.36
Si  1.94 -5.33 -8.31
Si  3.70  6.47  6.75
Si -3.72  8.59  3.68
Si -3.70  6.47  6.75
Si  7.38  6.46 -2.36
Si  5.64 -7.46  3.78
Si  1.95  1.05  9.85
Si  5.64  1.08 -8.31
Si -7.42  6.46 -2.36
Si -0.00  8.61 -5.33
Si  9.35 -1.05  3.78
Si  9.35 -3.23 -2.23
Si  3.68  4.32 -8.40
Si  9.35  3.22 -2.27
Si -3.72  4.32 -8.40
Si  7.32  4.25 -6.05
Si  7.32 -4.30  6.03
Si -0.08  8.52  6.03
Si -0.08 -8.57 -6.05
Si -7.49  4.25 -6.05
Si -7.49 -4.30  6.03
Si  9.21 -1.10 -5.25
Si  3.67  8.50 -5.28
Si -0.03 10.64  0.77
Si -3.73  8.50 -5.28
Si  9.21 -5.37  0.79
Si  5.50 -7.51 -5.25
Si -0.00  4.27  9.83
Si  3.70 -2.14  9.83
Si -3.70 -2.14  9.83
Si -5.67 -7.49 -5.23
Si -9.38 -1.07 -5.23
Si -9.38 -5.35  0.81
Si  3.64 -8.43 -6.12
Si 11.04  0.12 -0.07
Si  5.58  7.44 -5.97
Si  5.51  9.58 -0.01
Si -5.53  9.58  0.07
Si  5.53  3.22 -9.03
Si  9.21 -1.10  6.04
Si -3.76 -8.43 -6.12
Si  0.11  6.41 -9.03
Si  0.11 -6.41 -9.03
Si  9.23  5.35 -2.99
Si  9.28  1.03 -5.97
Si -5.58 -3.19 -9.03
Si -5.57  3.15 -9.06
Si -9.28  5.29 -3.01
Si  0.11 -10.69 -2.99
Si  5.53 -3.26 -9.06
Si  5.51 -7.51  6.04
Si -5.59  7.44 -6.05
Si -5.58  3.15  9.07
Si  0.10 10.68  3.06
Si  9.23 -5.39  3.03
Si  5.53 -3.26  9.07
Si  5.53  3.22  9.10
Si -9.23 -1.11  6.12
Si -9.28 -5.33  3.06
Si  0.10  6.41  9.10
Si  0.11 -6.41  9.10
Si -9.29  1.03 -6.05
Si  3.64  8.67  5.97
Si -5.58 -3.19  9.10
Si  5.58 -9.66  0.07
Si -5.59 -9.65 -0.01
Si -5.53 -7.52  6.12
Si -11.16  0.12 -0.07
Si -3.76  8.67  5.97
Si -0.02 -10.64  3.68
Si  3.68  4.32  9.73
Si -5.46  9.60 -2.23
Si -9.16  5.36  3.78
Si -3.72  4.32  9.73
Si -5.46 -9.60 -2.27
Si -1.76  7.46 -8.28
Si -5.46 -5.33 -8.31
Si  7.40 -8.48  0.71
Si -7.40 -8.48  0.71
Si -5.46  1.05  9.85
Si 11.10 -2.07  0.71
Si -11.11 -2.07  0.71
Si 11.09  0.04 -2.36
Si  1.94 -5.33  9.82
Si -1.76 -5.36  9.85
Si  1.94  7.49 -8.31
Si  5.65 -5.36 -8.28
Si -11.12  0.04 -2.36
Si -0.00  0.06 -11.38
Si  5.64  1.08  9.82
Si  7.38 -2.09 -8.40
Si  5.65 -9.64 -2.23
Si  3.70 10.75  0.71
Si  5.64  9.63 -2.27
Si -3.70 10.75  0.71
Si -7.42 -2.09 -8.40
Si  9.35  5.32  3.81
Si -10.97 -2.13  2.95
Si -7.27  0.01  8.99
Si -10.97  2.14 -3.09
Si -7.27 -8.54  2.95
Si -3.56 -6.41  8.99
Si -3.57  6.42  8.99
Si -7.27  8.55 -3.09
Si -3.57 10.69  2.95
Si -7.27  0.00 -9.14
Si -3.56 -10.68 -3.09
Si  3.84 -6.41  8.99
Si  3.84  6.42  8.99
Si -3.56 -6.41 -9.14
Si -3.56  6.42 -9.14
Si  3.84 10.69  2.95
Si  7.54  0.01  8.99
Si  3.84 -10.68 -3.09
Si  7.54 -8.54  2.95
Si  9.13  5.33 -5.23
Si  3.84 -6.41 -9.14
Si  3.84  6.42 -9.14
Si  7.54  8.55 -3.09
Si 11.24 -2.13  2.95
Si  7.54  0.00 -9.14
Si  1.73 -3.21 -11.27
Si 11.24  2.14 -3.09
Si  9.13 -3.21  6.86
Si  9.21  7.45  0.79
Si  1.80  3.17 -11.29
Si 11.08  4.23  0.77
Si -1.97  3.20 -11.27
Si  7.38  6.37  6.81
Si  9.21  3.17  6.84
Si -1.90 -3.24 -11.29
Si  3.67 -0.04 -11.32
Si -7.40  4.27 -8.30
Si  7.40  4.27 -8.30
Si  1.73 -11.76  0.81
Si -3.73 -0.04 -11.32
Si  0.00 -8.55 -8.30
Si  7.40  8.54  3.79
Si -7.40  8.54  3.79
Si -7.43  6.37  6.81
Si 11.10  2.13  3.79
Si -11.11  2.13  3.79
Si -1.90  9.59  6.84
Si -9.30  5.31 -5.25
Si -3.70 -10.69  3.79
Si  3.70 -10.69  3.79
Si  1.73  9.61  6.86
Si -11.13  4.23  0.77
Si  7.38 -6.46  6.81
Si -0.03 -10.73 -5.28
Si  1.80 -9.65  6.84
Si -1.90 -11.78  0.79
Si -7.43 -6.46  6.81
Si -1.97 -9.62  6.86
Si -9.30 -3.24  6.84
Si -9.38  7.47  0.81
Si -9.38  3.20  6.86
Si -0.06 -10.56  5.97
Si -11.00 -4.28 -2.99
Si -0.06 -2.02 12.02
Si -11.00  4.27  3.06
Si -1.83 -1.11 -12.01
Si  1.83 11.70 -3.01
Si  9.23  7.43  3.03
Si -9.23 -5.38 -5.97
Si  9.23 -7.47 -2.99
Si  9.21 -5.38 -6.05
Si  1.82 -11.74  3.06
Si -1.89  1.03 12.08
Si  1.81 -1.10 -12.10
Si -1.88 11.76 -2.99
Si -9.29  5.31  6.04
Si -9.28  7.49  3.06
Si  9.28  5.30  6.12
Si -9.28 -7.53 -3.01
Si -1.87 -11.80  3.03
Si  1.87  1.03 12.16
Si 11.21 -4.28 -2.99
Si -0.06  2.26 -12.16
Si 11.21  4.27  3.06
Si  7.38 -2.09  9.73
Si -9.16 -7.46  3.78
Si -7.42 -2.09  9.73
Si -0.06 10.80 -6.12
Si -9.16  1.08 -8.31
Si 11.09 -4.23  3.68
Si -5.46 -5.33  9.82
Si  3.70 -10.62 -5.33
Si -3.70 -10.62 -5.33
Si -5.46  7.49 -8.31
Si -11.12 -4.23  3.68
Si -1.76 11.73  3.81
Si -1.76  7.46  9.85
Si  5.65  7.46 -8.28
Si  1.94  7.50  9.82
Si  3.68 -8.50 -8.40
Si  1.94 11.77  3.78
Si 11.10  2.20 -5.33
Si -11.11  2.20 -5.33
Si -3.72 -8.50 -8.40
Si  9.35  1.05 -8.28
Si  7.40  8.61 -5.33
Si -7.40  8.61 -5.33
Si  5.65 -5.36  9.85
Si  9.35 -7.50  3.81
Si 11.02  6.39 -0.01
Si 11.02  2.11  6.03
Si  7.32  8.52  6.03
Si 11.02 -2.16 -6.05
Si 11.02 -6.44 -0.01
Si  3.62 10.66 -6.05
Si  3.62 -2.16 12.08
Si  7.32 -8.57 -6.05
Si -0.08 12.80 -0.01
Si  3.62  2.11 -12.10
Si -0.08  4.25 12.08
Si  3.62 -10.71  6.03
Si -3.79 10.66 -6.05
Si -0.08 -4.30 -12.10
Si -3.79 -2.16 12.08
Si -0.08 -12.85 -0.01
Si -7.49  8.52  6.03
Si -3.79  2.11 -12.10
Si -3.79 -10.71  6.03
Si -11.19  6.39 -0.01
Si -11.19  2.11  6.03
Si -7.49 -8.57 -6.05
Si -11.19 -2.16 -6.05
Si -11.19 -6.44 -0.01
Si  9.13 -7.49 -5.23
Si  5.43  3.20 -11.27
Si  7.38 10.64  0.77
Si  1.80 11.72 -5.25
Si 12.91  1.04  0.79
Si  5.50 -3.24 -11.29
Si -0.03  6.37 -11.32
Si  5.50  9.59  6.84
Si -5.60  3.17 -11.29
Si -7.43 10.64  0.77
Si 11.08 -0.04  6.81
