500
set: 1547.00  0.00  0.00
Si  0.24 -0.20 -0.14
Si  1.00  1.29  1.44
Si -1.00 -0.14 -2.20
Si -0.71 -1.96  1.44
Si -2.54 -0.20 -0.14
Si -1.77  1.29  1.44
Si  1.78 -0.14 -2.20
Si  3.02 -0.20 -0.14
Si  2.07 -1.96  1.44
Si -0.01 -0.59  3.25
Si -0.62  3.57  0.81
Si -0.84  2.09 -3.05
Si -0.81 -2.17 -3.05
Si -0.36  3.70 -1.55
Si  1.94  2.09 -3.05
Si  1.97 -2.17 -3.05
Si  2.15  3.57  0.81
Si  3.78  1.29  1.44
Si -3.49 -1.96  1.44
Si  2.77 -0.59  3.25
Si -2.79 -0.59  3.25
Si -0.20  1.44  4.09
Si -3.78 -0.14 -2.20
Si -1.11 -4.18  0.81
Si -0.85 -4.05 -1.55
Si  1.67 -4.18  0.81
Si  2.42  3.70 -1.55
Si  1.93 -4.05 -1.55
Si  0.21 -0.29 -4.86
Si -0.04  3.66  3.24
Si -4.55  1.29  1.44
Si -3.40  3.57  0.81
Si  2.58  1.44  4.09
Si  4.56 -0.14 -2.20
Si -3.14  3.70 -1.55
Si -3.62  2.09 -3.05
Si -3.59 -2.17 -3.05
Si -0.53 -4.08  3.24
Si -2.98  1.44  4.09
Si -5.32 -0.20 -0.14
Si -0.05 -2.47  4.75
Si  4.85 -1.96  1.44
Si -2.57 -0.29 -4.86
Si  2.74  3.66  3.24
Si -2.82  3.66  3.24
Si -3.63 -4.05 -1.55
Si  2.25 -4.08  3.24
Si  2.99 -0.29 -4.86
Si -3.89 -4.18  0.81
Si  5.80 -0.20 -0.14
Si -0.23  5.78  1.44
Si  1.36  1.99 -5.48
Si  4.72  2.09 -3.05
Si -1.42  1.99 -5.48
Si  2.73 -2.47  4.75
Si  4.75 -2.17 -3.05
Si -2.83 -2.47  4.75
Si  1.27 -3.54 -4.85
Si  4.93  3.57  0.81
Si  4.45 -4.18  0.81
Si -3.31 -4.08  3.24
Si -1.50 -3.54 -4.85
Si -0.32  5.58 -3.05
Si  1.04  1.38  6.16
Si  4.71 -4.05 -1.55
Si  5.55 -0.59  3.25
Si -5.57 -0.59  3.25
Si  2.55  5.78  1.44
Si -1.02  4.21 -4.85
Si -1.74  1.38  6.16
Si  5.20  3.70 -1.55
Si -1.32 -5.66 -3.05
Si  1.46 -5.66 -3.05
Si  0.52 -6.46  1.44
Si  1.76  4.21 -4.85
Si -3.00  5.78  1.44
Si -0.55 -1.78 -6.44
Si -6.27 -1.96  1.44
Si  2.46  5.58 -3.05
Si  6.56  1.29  1.44
Si  5.36  1.44  4.09
Si -6.56 -0.14 -2.20
Si -2.26 -6.46  1.44
Si  2.23 -1.78 -6.44
Si -3.10  5.58 -3.05
Si  0.43  5.27  4.75
Si  4.14  1.99 -5.48
Si -5.92  3.70 -1.55
Si -6.18  3.57  0.81
Si -4.20  1.99 -5.48
Si -5.76  1.44  4.09
Si -5.35 -0.29 -4.86
Si  4.05 -3.54 -4.85
Si  5.03 -4.08  3.24
Si  5.52  3.66  3.24
Si  3.82  1.38  6.16
Si -4.29 -3.54 -4.85
Si -6.37 -2.17 -3.05
Si -6.40  2.09 -3.05
Si  3.30 -6.46  1.44
Si -5.60  3.66  3.24
Si -3.80  4.21 -4.85
Si -3.33 -1.78 -6.44
Si -2.35  5.27  4.75
Si  5.77 -0.29 -4.86
Si -0.69 -6.30  4.09
Si -0.31 -2.60  7.11
Si  0.73  7.54 -0.14
Si -7.33  1.29  1.44
Si -4.10 -5.66 -3.05
Si  7.34 -0.14 -2.20
Si  5.51 -2.47  4.75
Si  4.24 -5.66 -3.05
Si -6.41 -4.05 -1.55
Si  0.09 -0.39  7.74
Si -5.61 -2.47  4.75
Si -4.52  1.38  6.16
Si  3.21  5.27  4.75
Si  2.09 -6.30  4.09
Si -2.05  7.54 -0.14
Si  4.54  4.21 -4.85
Si  0.47  7.15  3.25
Si -6.67 -4.18  0.81
Si -0.52  7.61 -2.20
Si -0.24 -7.95 -0.14
Si  2.47 -2.60  7.11
Si  0.88 -5.75 -5.48
Si  5.33  5.78  1.44
Si  7.63 -1.96  1.44
Si -6.08 -4.08  3.24
Si -8.10 -0.20 -0.14
Si -1.91 -5.75 -5.48
Si -3.09 -2.60  7.11
Si -2.31  7.15  3.25
Si -2.69 -0.39  7.74
Si -1.16  2.12 -7.85
Si  5.24  5.58 -3.05
Si  2.26  7.61 -2.20
Si  2.87 -0.39  7.74
Si -3.46 -6.30  4.09
Si  1.30 -7.88 -2.20
Si  1.62  2.12 -7.85
Si -5.78  5.78  1.44
Si -0.98  2.86  7.74
Si -1.48 -7.88 -2.20
Si -5.04 -6.46  1.44
Si  3.51  7.54 -0.14
Si  2.54 -7.95 -0.14
Si  5.01 -1.78 -6.44
Si  7.50  2.09 -3.05
Si  7.23 -4.18  0.81
Si  7.53 -2.17 -3.05
Si  1.80  2.86  7.74
Si -3.02 -7.95 -0.14
Si  3.25  7.15  3.25
Si  7.71  3.57  0.81
Si -3.29  7.61 -2.20
Si  8.58 -0.20 -0.14
Si  7.49 -4.05 -1.55
Si -5.88  5.58 -3.05
Si  0.98 -1.71 -8.50
Si  3.65 -5.75 -5.48
Si -5.13  5.27  4.75
Si  0.17  5.14  7.11
Si -0.07  5.97 -6.44
Si -1.80 -1.71 -8.50
Si  0.56 -6.37  6.16
Si  0.69  7.46 -4.86
Si  7.98  3.70 -1.55
Si  4.87 -6.30  4.09
Si  8.33 -0.59  3.25
Si -4.83  7.54 -0.14
Si -0.49 -8.34  3.25
Si -8.35 -0.59  3.25
Si  6.08 -6.46  1.44
Si -3.94  2.12 -7.85
Si  6.92  1.99 -5.48
Si -6.11 -1.78 -6.44
Si -3.76  2.86  7.74
Si -6.98  1.99 -5.48
Si  6.83 -3.54 -4.85
Si  6.60  1.38  6.16
Si -2.22 -6.37  6.16
Si -2.09  7.46 -4.86
Si  4.08 -7.88 -2.20
Si -2.61  5.14  7.11
Si  2.71  5.97 -6.44
Si -6.58  4.21 -4.85
Si  5.25 -2.60  7.11
Si  8.14  1.44  4.09
Si -4.26 -7.88 -2.20
Si -4.68 -5.75 -5.48
Si -2.85  5.97 -6.44
Si -1.29  9.03  1.44
Si  2.29 -8.34  3.25
Si  4.40  2.12 -7.85
Si  1.32 -4.88  7.74
Si  2.95  5.14  7.11
Si -1.46 -4.88  7.74
Si  1.49  9.03  1.44
Si -7.07 -3.54 -4.85
Si  5.99  5.27  4.75
Si -5.09  7.15  3.25
Si -9.05 -1.96  1.44
Si  5.04  7.61 -2.20
Si  7.81 -4.08  3.24
Si -0.28 -8.04 -4.86
Si -6.88 -5.66 -3.05
Si  4.58  2.86  7.74
Si  1.14  0.51 -9.35
Si  3.76 -1.71 -8.50
Si  3.34 -6.37  6.16
Si -8.13 -0.29 -4.86
Si -5.47 -0.39  7.74
Si -1.64  0.51 -9.35
Si  7.02 -5.66 -3.05
Si -3.27 -8.34  3.25
Si  9.34  1.29  1.44
Si  3.47  7.46 -4.86
Si  5.32 -7.95 -0.14
Si -8.54  1.44  4.09
Si -8.70  3.70 -1.55
Si -5.87 -2.60  7.11
Si  5.65 -0.39  7.74
Si -9.34 -0.14 -2.20
Si  0.79  0.98  9.55
Si  8.30  3.66  3.24
Si -7.30  1.38  6.16
Si -8.96  3.57  0.81
Si -8.38  3.66  3.24
Si  2.50 -8.04 -4.86
Si  1.14 -5.62 -7.85
Si  7.32  4.21 -4.85
Si -6.25 -6.30  4.09
Si -1.64 -5.62 -7.85
Si -1.99  0.98  9.55
Si -4.58 -1.71 -8.50
Si  6.29  7.54 -0.14
Si  8.55 -0.29 -4.86
Si -5.80 -7.95 -0.14
Si  8.29 -2.47  4.75
Si  0.27 -2.51  9.54
Si -3.06 -8.04 -4.86
Si -9.15 -2.17 -3.05
Si -1.19 -9.71  1.44
Si -9.18  2.09 -3.05
Si  6.03  7.15  3.25
Si  1.59 -9.71  1.44
Si -8.39 -2.47  4.75
Si -6.08  7.61 -2.20
Si -4.07  9.03  1.44
Si  4.10 -4.88  7.74
Si  0.28  9.19  4.09
Si  8.11  5.78  1.44
Si -4.24 -4.88  7.74
Si  4.27  9.03  1.44
Si  1.18 -3.74 -9.34
Si -4.87  7.46 -4.86
Si  3.92  0.51 -9.35
Si -9.19 -4.05 -1.55
Si -5.00 -6.37  6.16
Si -2.51 -2.51  9.54
Si -1.60 -3.74 -9.34
Si -1.12  4.00 -9.34
Si  6.43 -5.75 -5.48
Si  8.02  5.58 -3.05
Si  3.57  0.98  9.55
Si -7.82 -6.46  1.44
Si  7.79 -1.78 -6.44
Si  5.07 -8.34  3.25
Si -8.87 -4.08  3.24
Si -10.11  1.29  1.44
Si -5.39  5.14  7.11
Si  1.66  4.00 -9.34
Si -0.36  9.83 -3.05
Si  3.05 -2.51  9.54
Si -4.42  0.51 -9.35
Si  5.49  5.97 -6.44
Si 10.12 -0.14 -2.20
Si -9.45 -4.18  0.81
Si -2.50  9.19  4.09
Si  3.92 -5.62 -7.85
Si -5.63  5.97 -6.44
Si -8.56  5.78  1.44
Si -1.29 -9.91 -3.05
Si  1.49 -9.91 -3.05
Si  5.73  5.14  7.11
Si -1.31  6.04 -8.50
Si  3.06  9.19  4.09
Si -6.54  2.86  7.74
Si  1.47  6.04 -8.50
Si -6.72  2.12 -7.85
Si  2.42  9.83 -3.05
Si -3.97 -9.71  1.44
Si -4.42 -5.62 -7.85
Si -7.91  5.27  4.75
Si  6.86 -7.88 -2.20
Si 10.41 -1.96  1.44
Si  0.57  7.36  7.74
Si -7.61  7.54 -0.14
Si -4.77  0.98  9.55
Si  7.65 -6.30  4.09
Si  4.37 -9.71  1.44
Si -8.66  5.58 -3.05
Si -3.13  9.83 -3.05
Si  6.12 -6.37  6.16
Si  5.28 -8.04 -4.86
Si -7.04 -7.88 -2.20
Si -6.05 -8.34  3.25
Si  3.96 -3.74 -9.34
Si  0.59  3.02 10.39
Si  7.18  2.12 -7.85
Si  6.54 -1.71 -8.50
Si  6.25  7.46 -4.86
Si -10.88 -0.20 -0.14
Si 10.01 -4.18  0.81
Si -3.90  4.00 -9.34
Si -7.46 -5.75 -5.48
Si -2.21  7.36  7.74
Si  0.75  5.24  9.54
Si 10.28  2.09 -3.05
Si 10.31 -2.17 -3.05
Si -4.38 -3.74 -9.34
Si  8.03 -2.60  7.11
Si -2.19  3.02 10.39
Si -5.83 -8.04 -4.86
Si  7.36  2.86  7.74
Si  8.86 -6.46  1.44
Si -2.02  5.24  9.54
Si -1.26  9.12  6.16
Si  4.44  4.00 -9.34
Si  0.75 -0.90 11.04
Si  1.52  9.12  6.16
Si 10.49  3.57  0.81
Si -7.87  7.15  3.25
Si -8.89 -1.78 -6.44
Si  7.82  7.61 -2.20
Si -4.07 -9.91 -3.05
Si 10.27 -4.05 -1.55
Si -5.29 -2.51  9.54
Si  3.35  7.36  7.74
Si -4.09  6.04 -8.50
Si -0.94  9.74 -5.48
Si  4.27 -9.91 -3.05
Si -0.40 -8.13  7.74
Si  4.25  6.04 -8.50
Si -2.03 -0.90 11.04
Si -0.53 -10.22  4.75
Si  8.77  5.27  4.75
Si  9.38  1.38  6.16
Si  9.70  1.99 -5.48
Si -8.25 -0.39  7.74
Si  1.84  9.74 -5.48
Si -0.59 -1.86 -11.15
Si  3.37  3.02 10.39
Si  9.61 -3.54 -4.85
Si -0.14 11.31  0.81
Si  8.10 -7.95 -0.14
Si -9.36  4.21 -4.85
Si -5.28  9.19  4.09
Si 11.36 -0.20 -0.14
Si -7.36 -1.71 -8.50
Si -9.76  1.99 -5.48
Si  0.11 -4.73 10.39
Si -6.85  9.03  1.44
Si  3.53  5.24  9.54
Si  6.88 -4.88  7.74
Si  8.43 -0.39  7.74
Si  5.83 -2.51  9.54
Si 10.76  3.70 -1.55
Si  2.38 -8.13  7.74
Si  2.25 -10.22  4.75
Si  0.96  2.63 -11.15
Si -8.65 -2.60  7.11
Si  6.35  0.98  9.55
Si  6.70  0.51 -9.35
Si  2.19 -1.86 -11.15
Si -9.84 -3.54 -4.85
Si -7.02 -4.88  7.74
Si  5.20  9.83 -3.05
Si -1.04 -9.52 -6.44
Si  7.05  9.03  1.44
Si  0.12 11.44 -1.55
Si 11.11 -0.59  3.25
Si -1.82  2.63 -11.15
Si -9.66 -5.66 -3.05
Si -11.13 -0.59  3.25
Si  1.74 -9.52 -6.44
Si  3.53 -0.90 11.04
Si  5.84  9.19  4.09
Si  2.64 11.31  0.81
Si -3.17 -8.13  7.74
Si -8.58 -7.95 -0.14
Si  0.30 -6.76  9.55
Si -2.92 11.31  0.81
Si  9.80 -5.66 -3.05
Si -4.04  9.12  6.16
Si -2.67 -4.73 10.39
Si -7.65  7.46 -4.86
Si -3.31 -10.22  4.75
Si -9.02 -6.30  4.09
Si  6.70 -5.62 -7.85
Si 10.92  1.44  4.09
Si -3.72  9.74 -5.48
Si  2.89 -4.73 10.39
Si -4.99  7.36  7.74
Si -7.78 -6.37  6.16
Si  9.07  7.54 -0.14
Si  0.56  0.41 -11.78
Si -3.37 -1.86 -11.15
Si  8.81  7.15  3.25
Si 10.59 -4.08  3.24
Si -7.20  0.51 -9.35
Si  4.30  9.12  6.16
Si  0.66 -7.23 -9.35
Si -2.66 11.44 -1.55
Si  0.44 11.41  3.24
Si -5.92  9.83 -3.05
Si -8.85  7.61 -2.20
Si -10.08  1.38  6.16
Si -4.80  5.24  9.54
Si  7.84 -8.34  3.25
Si -4.96  3.02 10.39
Si  2.90 11.44 -1.55
Si -6.75 -9.71  1.44
Si -10.91 -0.29 -4.86
Si -2.48 -6.76  9.55
Si 10.10  4.21 -4.85
Si -1.33 -11.79 -1.55
Si  1.45 -11.79 -1.55
Si -8.17  5.14  7.11
Si -2.22  0.41 -11.78
Si  1.19 -11.92  0.81
Si -2.12 -7.23 -9.35
Si -7.20 -5.62 -7.85
Si  3.74  2.63 -11.15
Si -1.59 -11.92  0.81
Si  8.27  5.97 -6.44
Si -11.83 -1.96  1.44
Si -4.81 -0.90 11.04
Si -2.34 11.41  3.24
Si  4.62  9.74 -5.48
Si  3.08 -6.76  9.55
Si 11.08  3.66  3.24
Si -3.82 -9.52 -6.44
Si  6.74 -3.74 -9.34
Si -11.32  1.44  4.09
Si  7.15 -9.71  1.44
Si -8.41  5.97 -6.44
Si -11.48  3.70 -1.55
Si -6.68  4.00 -9.34
Si  9.21 -5.75 -5.48
Si -11.16  3.66  3.24
Si -7.55  0.98  9.55
Si  8.51  5.14  7.11
Si  3.34  0.41 -11.78
Si 12.12  1.29  1.44
Si  0.48 -5.11 -11.15
Si  3.22 11.41  3.24
Si 11.07 -2.47  4.75
Si -11.74  3.57  0.81
Si -1.01 -11.83  3.24
Si  0.79 -11.28 -4.85
Si  3.44 -7.23 -9.35
Si  6.13  7.36  7.74
Si -12.12 -0.14 -2.20
Si 11.33 -0.29 -4.86
Si  5.03 -10.22  4.75
Si -4.60  2.63 -11.15
Si  4.52 -9.52 -6.44
Si -7.16 -3.74 -9.34
Si  4.97 -1.86 -11.15
Si  5.16 -8.13  7.74
Si  8.06 -8.04 -4.86
Si -11.17 -2.47  4.75
Si  1.77 -11.83  3.24
Si 10.89  5.78  1.44
Si -6.85 -9.91 -3.05
Si -1.99 -11.28 -4.85
Si -9.32  2.86  7.74
Si  6.15  3.02 10.39
Si  7.22  4.00 -9.34
Si -2.30 -5.11 -11.15
Si -6.87  6.04 -8.50
Si -10.60 -6.46  1.44
Si -11.93 -2.17 -3.05
Si 10.56 -1.78 -6.44
Si -9.50  2.12 -7.85
Si -11.96  2.09 -3.05
Si 10.79  5.58 -3.05
Si -1.15  8.26 -9.35
Si  7.05 -9.91 -3.05
Si  8.90 -6.37  6.16
Si  5.42 11.31  0.81
Si  7.03  6.04 -8.50
Si -8.83 -8.34  3.25
Si  1.63  8.26 -9.35
Si -0.79 -10.35  7.11
Si  6.31  5.24  9.54
Si -4.11 -11.79 -1.55
