500
set: 1166.00  0.00  0.00
Si -0.03  0.04 -0.00
Si  0.04 -0.08  2.34
Si -0.00 -0.00 -2.42
Si  1.23 -2.13 -0.01
Si  2.47 -0.01  0.04
Si -1.24 -2.17 -0.06
Si  1.27  2.15 -0.06
Si -2.51  0.04 -0.02
Si -1.28  2.22  0.07
Si -2.48  0.04  2.28
Si  1.30  2.12  2.31
Si -1.22  2.15 -2.33
Si -1.25 -2.20  2.29
Si  1.24 -2.17 -2.33
Si  1.21 -2.13  2.40
Si  1.27  2.11 -2.41
Si  2.49  0.01 -2.39
Si -1.18 -2.19 -2.42
Si  2.53 -0.01  2.38
Si -2.51 -0.06 -2.44
Si -1.19  2.23  2.45
Si  3.71  2.14  0.05
Si -3.71 -2.19  0.03
Si  0.11 -4.32  0.01
Si -3.75  2.17 -0.01
Si  3.75 -2.16  0.02
Si  0.12  4.34  0.04
Si -0.01 -0.00  4.66
Si -0.01 -0.00 -4.77
Si -0.04  4.25 -2.32
Si -3.68 -2.17 -2.33
Si -3.72 -2.07  2.36
Si -3.68  2.18  2.33
Si  0.02 -4.30  2.34
Si  3.74  2.19 -2.30
Si -0.01 -4.33 -2.33
Si  3.77 -2.13 -2.35
Si  3.78 -2.15  2.35
Si -3.77  2.12 -2.39
Si -2.41 -4.34  0.02
Si -4.98 -0.04 -0.04
Si -2.44  4.35  0.03
Si  0.01  4.39  2.38
Si  2.56  4.30  0.02
Si  2.59 -4.29  0.03
Si  5.01 -0.04 -0.04
Si  3.83  2.17  2.41
Si -2.47 -0.03  4.68
Si  1.12  2.21  4.69
Si -1.33  2.12 -4.69
Si -1.29 -2.18  4.68
Si  2.50  0.02  4.71
Si  1.25 -2.19 -4.71
Si  2.50  0.02 -4.72
Si  1.12  2.21 -4.75
Si  1.25 -2.19  4.72
Si -2.47 -0.03 -4.76
Si -1.33  2.12  4.75
Si -1.29 -2.18 -4.76
Si -2.50  4.24 -2.31
Si -2.51 -4.27 -2.34
Si  2.45  4.28  2.37
Si  2.51 -4.24  2.39
Si -4.97  0.04  2.35
Si  4.96  0.02 -2.39
Si  2.46  4.37 -2.34
Si  5.03  0.04  2.35
Si -2.52 -4.36  2.37
Si  2.52 -4.40 -2.31
Si -5.03  0.02 -2.39
Si -2.51  4.40  2.39
Si  3.66  2.18 -4.67
Si  3.70 -2.16  4.71
Si  3.70 -2.16 -4.73
Si -0.11  4.33 -4.70
Si  3.67  2.18  4.76
Si -3.83  2.15  4.67
Si -0.08 -4.36 -4.71
Si -3.77 -2.20 -4.71
Si -0.11  4.33  4.74
Si -0.07 -4.36  4.73
Si -3.77 -2.20  4.72
Si -4.85 -4.30  0.04
Si -3.83  2.15 -4.77
Si -4.91  4.32  0.01
Si  1.26  6.45  0.03
Si  1.28 -6.47 -0.01
Si -6.24 -2.16  0.02
Si -1.27  6.48  0.02
Si  6.25  2.17 -0.01
Si -1.26 -6.50  0.05
Si -6.28  2.14  0.05
Si  6.29 -2.19  0.03
Si  5.08  4.32  0.01
Si  5.14 -4.30  0.04
Si -2.54 -4.28 -4.67
Si  2.43 -4.37 -4.66
Si -2.59  4.27 -4.66
Si -4.98 -0.02  4.68
Si  2.43  4.36 -4.67
Si  5.01 -0.02  4.68
Si -4.98 -0.02 -4.75
Si -2.54 -4.28  4.76
Si  2.43  4.36  4.76
Si  5.01 -0.02 -4.75
Si  2.43 -4.37  4.78
Si -2.59  4.27  4.78
Si -1.23 -6.45 -2.30
Si -4.96 -4.25  2.38
Si -6.17  2.17  2.41
Si  4.96  4.31 -2.33
Si -6.21 -2.15  2.35
Si -6.22 -2.13 -2.35
Si  6.22  2.12 -2.39
Si  1.35 -6.46  2.33
Si -1.14 -6.47  2.41
Si  1.29  6.47 -2.33
Si  5.03 -4.25  2.38
Si -1.25  6.49  2.35
Si  4.99  4.34  2.34
Si -6.25  2.19 -2.30
Si -0.00 -0.00  7.02
Si  6.28 -2.07  2.36
Si -5.01  4.34  2.34
Si -5.04  4.31 -2.33
Si -1.25  6.51 -2.35
Si  4.98 -4.39 -2.32
Si  1.25 -6.51 -2.39
Si -5.01 -4.39 -2.32
Si  6.32 -2.17 -2.33
Si  6.32  2.18  2.33
Si  0.04 -0.08 -7.10
Si  1.25  6.57  2.36
Si -1.19  2.23 -6.98
Si -2.51 -0.06  7.00
Si  3.75 -6.42  0.07
Si -1.18 -2.19  7.02
Si  1.27  2.11  7.03
Si  1.21 -2.13 -7.04
Si -3.69 -6.49 -0.06
Si  3.73  6.47 -0.06
Si  2.49  0.01  7.05
Si  7.48  0.04 -0.02
Si  2.53 -0.01 -7.05
Si -1.22  2.15  7.11
Si -7.53 -0.01  0.04
Si -3.79  6.51 -0.01
Si  1.24 -2.17  7.10
Si  1.30  2.12 -7.13
Si -2.48  0.04 -7.15
Si -1.25 -2.20 -7.15
Si  3.73  6.44  2.29
Si -3.67 -6.52  2.31
Si -7.46 -0.01  2.38
Si -3.78  6.47 -2.33
Si  7.52  0.04  2.28
Si  3.83 -6.41  2.45
Si  3.79  6.46 -2.42
Si  7.48 -0.06 -2.44
Si  3.80 -6.49 -2.33
Si -7.51  0.01 -2.39
Si -3.70 -6.53 -2.41
Si -3.81  6.51  2.40
Si  6.16  2.15  4.67
Si  4.89  4.28 -4.71
Si  4.89  4.28  4.73
Si  4.91 -4.31 -4.70
Si  1.20  6.44 -4.71
Si  4.91 -4.31  4.74
Si -1.31 -6.46 -4.67
Si  1.20  6.44  4.72
Si  1.19 -6.49  4.67
Si  6.16  2.15 -4.77
Si  6.22 -2.20 -4.71
Si  6.22 -2.20  4.72
Si -1.33  6.48  4.71
Si -1.30 -6.46  4.76
Si -1.33  6.48 -4.73
Si  1.19 -6.49 -4.77
Si -5.08 -4.31 -4.70
Si -6.30 -2.16  4.71
Si -5.10  4.28 -4.71
Si -6.33  2.18 -4.67
Si -6.30 -2.16 -4.73
Si -5.10  4.28  4.73
Si -5.08 -4.31  4.74
Si -6.33  2.18  4.76
Si -3.72 -2.07 -7.08
Si -3.77  2.12  7.05
Si -0.04  4.25  7.12
Si  3.83  2.17 -7.02
Si -3.68 -2.17  7.11
Si -3.68  2.18 -7.11
Si  0.02 -4.30 -7.09
Si  3.77 -2.13  7.08
Si  0.01  4.39 -7.05
Si  3.78 -2.15 -7.09
Si -0.01 -4.33  7.11
Si  3.74  2.19  7.14
Si -7.41 -4.29  0.03
Si -7.43  4.30  0.02
Si -0.01  8.60 -0.04
Si  2.51 -4.24 -7.05
Si  2.45  4.28 -7.06
Si  4.96  0.02  7.04
Si -4.97  0.04 -7.08
Si -2.51 -4.27  7.10
Si -5.03  0.02  7.04
Si -2.50  4.24  7.12
Si -2.52 -4.36 -7.06
Si -2.51  4.40 -7.05
Si  0.04 -8.69 -0.04
Si  5.03  0.04 -7.08
Si  2.46  4.37  7.10
Si  7.56  4.35  0.03
Si  7.59 -4.34  0.02
Si  2.52 -4.40  7.12
Si  3.68  6.46  4.68
Si  3.68  6.46 -4.76
Si -3.77  6.46 -4.71
Si -3.85 -6.43  4.69
Si  3.69 -6.52 -4.69
Si -3.77  6.45  4.72
Si -7.49  0.02  4.71
Si -7.49  0.02 -4.72
Si  7.53 -0.03  4.68
Si  3.69 -6.52  4.75
Si -3.85 -6.43 -4.75
Si  7.53 -0.03 -4.76
Si  7.49  4.24 -2.31
Si  0.06 -8.60  2.35
Si -7.48 -4.24  2.39
Si  7.48 -4.27 -2.34
Si -0.01 -8.62 -2.39
Si  2.51 -8.60 -0.02
Si -6.25 -6.42  0.07
Si -7.47 -4.40 -2.31
Si  7.48 -4.36  2.37
Si -8.72  2.15 -0.06
Si -0.06  8.66 -2.39
Si -7.54  4.28  2.37
Si  0.00  8.68  2.35
Si  6.20  6.51 -0.01
Si  8.72  2.22  0.07
Si -2.56  8.62  0.04
Si  7.48  4.40  2.39
Si -6.26  6.47 -0.06
Si -2.50 -8.65  0.04
Si -8.76 -2.13 -0.01
Si -7.54  4.37 -2.34
Si  2.46  8.68 -0.02
Si  8.76 -2.17 -0.06
Si  6.30 -6.49 -0.06
Si -6.16 -6.41  2.45
Si -8.69  2.12  2.31
Si  2.46  8.58 -2.44
Si  2.55 -8.60  2.28
Si -6.19 -6.49 -2.33
Si  6.21  6.47 -2.33
Si -6.20  6.46 -2.42
Si -6.27  6.44  2.29
Si  6.18  6.51  2.40
Si -2.48 -8.63 -2.39
Si -8.73  2.11 -2.41
Si -2.44 -8.65  2.38
Si -2.49  8.63  2.38
Si  8.75 -2.20  2.29
Si -8.75 -2.17 -2.33
Si  2.50  8.68  2.28
Si -2.54  8.65 -2.39
Si  8.77  2.15 -2.33
Si -8.78 -2.13  2.40
Si  6.33 -6.52  2.31
Si  2.51 -8.70 -2.44
Si  6.29 -6.53 -2.41
Si  8.81 -2.19 -2.42
Si  8.80  2.23  2.45
Si -0.03  0.04  9.43
Si -0.03  0.04 -9.44
Si -6.17  2.17 -7.02
Si -1.14 -6.47 -7.02
Si -4.96 -4.25 -7.05
Si  6.22  2.12  7.05
Si  5.03 -4.25 -7.05
Si -6.22 -2.13  7.08
Si -6.21 -2.15 -7.09
Si  1.25 -6.51  7.05
Si  4.96  4.31  7.11
Si  6.28 -2.07 -7.08
Si -1.25  6.49 -7.09
Si  4.99  4.34 -7.09
Si -1.23 -6.45  7.14
Si -1.24 -2.17  9.37
Si  1.35 -6.46 -7.11
Si -1.25  6.51  7.08
Si  1.27  2.15  9.37
Si  1.29  6.47  7.11
Si -5.01  4.34 -7.09
Si -1.28  2.22 -9.36
Si  2.47 -0.01 -9.39
Si -5.04  4.31  7.11
Si  7.40  4.27 -4.66
Si  4.98 -4.39  7.12
Si  1.25  6.57 -7.08
Si -6.25  2.19  7.14
Si -2.51  0.04  9.41
Si  1.23 -2.13  9.43
Si -5.01 -4.39  7.12
Si  6.32 -2.17  7.11
Si  6.32  2.18 -7.11
Si  1.23 -2.13 -9.44
Si -2.51  0.04 -9.46
Si  7.46 -4.28 -4.67
Si  7.40  4.27  4.78
Si  2.47 -0.01  9.48
Si -0.01  8.62  4.68
Si  1.27  2.15 -9.50
Si -1.24 -2.17 -9.50
Si  7.46 -4.28  4.76
Si -0.01  8.62 -4.75
Si -1.28  2.22  9.51
Si  0.04 -8.66  4.68
Si  0.04 -8.66 -4.75
Si -7.56 -4.37 -4.66
Si -7.56  4.36 -4.67
Si -7.56  4.36  4.76
Si  4.99 -8.60 -0.00
Si -7.56 -4.37  4.78
Si -5.00 -8.60 -0.00
Si  9.96  0.04 -0.00
Si  4.94  8.68 -0.00
Si -10.03  0.04 -0.00
Si -5.06  8.68 -0.00
Si  6.15 -6.43  4.69
Si  8.66  2.12 -4.69
Si  6.15 -6.43 -4.75
Si  8.66  2.12  4.75
Si  2.50  8.61  4.68
Si  8.71 -2.18  4.68
Si  6.22  6.46 -4.71
Si  6.22  6.45  4.72
Si -2.47 -8.62  4.71
Si -2.47 -8.62 -4.72
Si  2.50  8.61 -4.76
Si  8.70 -2.18 -4.76
Si -8.75 -2.19 -4.71
Si -2.52  8.66  4.71
Si -6.31  6.46  4.68
Si -8.74 -2.19  4.72
Si -2.52  8.66 -4.72
Si -4.99  8.56  2.34
Si  2.56 -8.67  4.68
Si  5.00  8.56  2.34
Si -6.30 -6.52 -4.69
Si -6.31  6.46 -4.76
Si  2.56 -8.67 -4.76
Si  3.83 -6.41 -6.98
Si -9.96 -0.08  2.34
Si -6.30 -6.52  4.75
Si  7.48 -0.06  7.00
Si  4.97  8.64 -2.42
Si  3.79  6.46  7.02
Si -4.97 -8.64 -2.42
Si -7.46 -0.01 -7.05
Si -8.87  2.21  4.69
Si  9.99 -0.00 -2.42
Si -5.03  8.64 -2.42
Si -3.70 -6.53  7.03
Si  5.02 -8.64 -2.42
Si -10.00 -0.00 -2.42
Si -4.93 -8.72  2.34
Si -7.50  0.01  7.05
Si 10.03 -0.08  2.34
Si -8.87  2.21 -4.75
Si -3.81  6.51 -7.04
Si  3.73  6.44 -7.15
Si  3.71  2.14 -9.38
Si -3.78  6.47  7.10
Si -3.67 -6.52 -7.13
Si -3.71 -2.19 -9.40
Si  3.80 -6.49  7.11
Si  5.06 -8.72  2.34
Si  0.12  4.34 -9.40
Si  0.11 -4.32 -9.42
Si  3.75 -2.16 -9.42
Si -3.75  2.17  9.42
Si  7.52  0.04 -7.15
Si  0.11 -4.32  9.45
Si -3.75  2.17 -9.45
Si  3.75 -2.16  9.45
Si -3.71 -2.19  9.47
Si  3.71  2.14  9.49
Si  0.12  4.34  9.47
Si -4.98 -0.04  9.39
Si -2.41 -4.34 -9.41
Si -2.44  4.35 -9.40
Si  5.01 -0.04  9.39
Si  2.59 -4.29 -9.40
Si  2.56  4.30 -9.41
Si -2.41 -4.34  9.46
Si  2.56  4.30  9.46
Si -2.44  4.35  9.47
Si -4.98 -0.04 -9.48
Si  2.59 -4.29  9.47
Si  5.01 -0.04 -9.48
Si -9.87  4.34  0.04
Si -9.88 -4.32  0.01
Si -8.73  6.45  0.03
Si -8.71 -6.47 -0.01
Si -1.31 10.78  0.05
Si  8.72  6.48  0.02
Si -1.22 -10.80  0.02
Si  1.23 10.81 -0.01
Si  8.74 -6.50  0.05
Si  1.31 -10.83  0.03
Si 10.11 -4.32  0.01
Si  4.96  8.64  4.66
Si 10.11  4.34  0.04
Si -4.98 -8.64  4.66
Si  9.99 -0.00  4.66
Si  5.02 -8.64  4.66
Si -5.03  8.64  4.66
Si -10.00 -0.00  4.66
Si  1.31 -10.71  2.36
Si -8.65 -6.46  2.33
Si  4.96  8.64 -4.77
Si -4.98 -8.64 -4.77
Si  9.95  4.25 -2.32
Si  9.99 -0.00 -4.77
Si  5.02 -8.64 -4.77
Si -5.03  8.64 -4.77
Si -10.00 -0.00 -4.77
Si -1.20 -10.77 -2.35
Si  1.20 10.77 -2.39
Si -8.70  6.47 -2.33
Si -1.19 -10.79  2.35
Si -9.98 -4.30  2.34
Si -7.48 -4.24 -7.05
Si  8.76 -6.45 -2.30
Si  9.98 -4.33 -2.33
Si -0.01 -8.62  7.04
Si  1.34 -10.80 -2.33
Si -10.03  4.25 -2.32
Si  8.75  6.49  2.35
Si -1.20 10.81  2.41
Si  1.29 10.82  2.33
Si 10.01 -4.30  2.34
Si  0.06 -8.60 -7.08
Si -1.28 10.83 -2.30
Si -10.01 -4.33 -2.33
Si  8.74  6.51 -2.35
Si  7.48 -4.27  7.10
Si -8.74 -6.51 -2.39
Si -9.99  4.39  2.38
Si -0.06  8.66  7.04
Si  7.48 -4.36 -7.06
Si  7.49  4.24  7.12
Si 10.00  4.39  2.38
Si  7.48  4.40 -7.05
Si -7.54  4.28 -7.06
Si -8.74  6.57  2.36
Si  0.00  8.68 -7.08
Si -7.47 -4.40  7.12
Si  8.85 -6.47  2.41
Si -7.54  4.37  7.10
Si -6.16 -6.41 -6.98
Si  2.46  8.58  7.00
Si -6.20  6.46  7.02
Si  7.44  8.62  0.04
Si -7.48 -8.60 -0.02
Si -8.73  2.11  7.03
Si -3.74 -10.77 -0.01
Si  6.18  6.51 -7.04
Si -2.48 -8.63  7.05
Si -4.85 -4.30 -9.40
Si -2.44 -8.65 -7.05
Si -3.75 10.79 -0.06
Si -2.49  8.63 -7.05
Si 11.23 -2.13 -0.01
Si -11.23 -2.17 -0.06
Si -8.69  2.12 -7.13
Si -6.19 -6.49  7.11
Si -2.54  8.65  7.05
Si  6.21  6.47  7.10
Si  2.51 -8.70  7.00
Si  7.49 -8.65  0.04
Si  3.79 -10.81 -0.06
Si -8.78 -2.13 -7.04
Si  8.80  2.23 -6.98
Si  3.69 10.86  0.07
Si -4.91  4.32 -9.42
Si  1.26  6.45 -9.40
Si 11.27  2.15 -0.06
Si  2.55 -8.60 -7.15
Si  6.29 -6.53  7.03
Si  8.81 -2.19  7.02
Si -4.85 -4.30  9.47
Si -8.75 -2.17  7.10
Si -1.26 -6.50 -9.38
Si -6.27  6.44 -7.15
