500
set: 54.00  0.00  0.00
Si  0.00  0.00  0.00
Si -2.46  0.00  0.00
Si  2.46  0.00  0.00
Si -1.11  2.22  0.00
Si  1.11 -2.22  0.00
Si -0.12  0.16  2.51
Si  0.12 -0.16 -2.51
Si -1.35 -2.22  0.00
Si  1.35  2.22  0.00
Si -0.99  2.06 -2.51
Si  0.99 -2.06  2.51
Si  2.33  0.16  2.51
Si -2.33 -0.16 -2.51
Si  1.47  2.06 -2.51
Si -1.47 -2.06  2.51
Si -2.58  0.16  2.51
Si  2.58 -0.16 -2.51
Si -1.22 -2.37 -2.51
Si  1.22  2.37  2.51
Si -1.24  2.37  2.51
Si  1.24 -2.37 -2.51
Si  3.57 -2.22  0.00
Si -3.57  2.22  0.00
Si  3.81  2.22  0.00
Si -3.81 -2.22  0.00
Si -0.24 -4.43  0.00
Si  0.24  4.43  0.00
Si  3.44 -2.06  2.51
Si -3.44  2.06 -2.51
Si  4.92  0.00  0.00
Si -4.92  0.00  0.00
Si  2.22 -4.43  0.00
Si -2.22  4.43  0.00
Si -0.36 -4.28  2.51
Si  0.36  4.28 -2.51
Si  0.25 -0.31 -5.01
Si -0.25  0.31  5.01
Si  3.68  2.37  2.51
Si -3.68 -2.37 -2.51
Si  3.69 -2.37 -2.51
Si -3.69  2.37  2.51
Si  3.93  2.06 -2.51
Si -3.93 -2.06  2.51
Si  2.69  4.43  0.00
Si -2.69 -4.43  0.00
Si  0.11  4.59  2.51
Si -0.11 -4.59 -2.51
Si -2.10  4.28 -2.51
Si  2.10 -4.28  2.51
Si -4.79 -0.16 -2.51
Si  4.79  0.16  2.51
Si  0.86 -1.90  5.01
Si -0.86  1.90 -5.01
Si -2.21 -0.31 -5.01
Si  2.21  0.31  5.01
Si -1.60 -1.90  5.01
Si  1.60  1.90 -5.01
Si -5.04  0.16  2.51
Si  5.04 -0.16 -2.51
Si -2.82 -4.28  2.51
Si  2.82  4.28 -2.51
Si -2.71  0.31  5.01
Si  2.71 -0.31 -5.01
Si -1.10 -2.53 -5.01
Si  1.10  2.53  5.01
Si  2.35 -4.59 -2.51
Si -2.35  4.59  2.51
Si -1.36  2.53  5.01
Si  1.36 -2.53 -5.01
Si -2.57 -4.59 -2.51
Si  2.57  4.59  2.51
Si -3.32  1.90 -5.01
Si  3.32 -1.90  5.01
Si -6.03  2.22  0.00
Si  6.03 -2.22  0.00
Si -4.68  4.43  0.00
Si  4.68 -4.43  0.00
Si -0.49 -4.12  5.01
Si  0.49  4.12 -5.01
Si -6.26 -2.22  0.00
Si  6.26  2.22  0.00
Si  3.56  2.53  5.01
Si -3.56 -2.53 -5.01
Si -0.88  6.65  0.00
Si  0.88 -6.65  0.00
Si  4.05  1.90 -5.01
Si -4.05 -1.90  5.01
Si  4.55 -4.28  2.51
Si -4.55  4.28 -2.51
Si  5.90 -2.06  2.51
Si -5.90  2.06 -2.51
Si -1.97  4.12 -5.01
Si  1.97 -4.12  5.01
Si -3.82  2.53  5.01
Si  3.82 -2.53 -5.01
Si  5.15  4.43  0.00
Si -5.15 -4.43  0.00
Si  1.58  6.65  0.00
Si -1.58 -6.65  0.00
Si  4.67  0.31  5.01
Si -4.67 -0.31 -5.01
Si -0.01  4.74  5.01
Si  0.01 -4.74 -5.01
Si  0.75 -6.49  2.51
Si -0.75  6.49 -2.51
Si  6.14  2.37  2.51
Si -6.14 -2.37 -2.51
Si -6.15  2.37  2.51
Si  6.15 -2.37 -2.51
Si -4.80  4.59  2.51
Si  4.80 -4.59 -2.51
Si -2.94 -4.12  5.01
Si  2.94  4.12 -5.01
Si -1.71 -6.49  2.51
Si  1.71  6.49 -2.51
Si -6.39 -2.06  2.51
Si  6.39  2.06 -2.51
Si  5.17 -0.31 -5.01
Si -5.17  0.31  5.01
Si  5.28  4.28 -2.51
Si -5.28 -4.28  2.51
Si -5.03 -4.59 -2.51
Si  5.03  4.59  2.51
Si  1.00 -6.80 -2.51
Si -1.00  6.80  2.51
Si  2.44  4.74  5.01
Si -2.44 -4.74 -5.01
Si  2.47 -4.74 -5.01
Si -2.47  4.74  5.01
Si -7.38  0.00  0.00
Si  7.38  0.00  0.00
Si  1.46  6.80  2.51
Si -1.46 -6.80 -2.51
Si -3.33  6.65  0.00
Si  3.33 -6.65  0.00
Si  0.38 -0.47 -7.52
Si -0.38  0.47  7.52
Si -3.21  6.49 -2.51
Si  3.21 -6.49  2.51
Si -7.25 -0.16 -2.51
Si  7.25  0.16  2.51
Si -0.74  1.75 -7.52
Si  0.74 -1.75  7.52
Si  4.04  6.65  0.00
Si -4.04 -6.65  0.00
Si -2.08 -0.47 -7.52
Si  2.08  0.47  7.52
Si  4.43 -4.12  5.01
Si -4.43  4.12 -5.01
Si -5.78  1.90 -5.01
Si  5.78 -1.90  5.01
Si  7.50 -0.16 -2.51
Si -7.50  0.16  2.51
Si -1.72 -1.75  7.52
Si  1.72  1.75 -7.52
Si  3.46 -6.80 -2.51
Si -3.46  6.80  2.51
Si -0.97 -2.69 -7.52
Si  0.97  2.69  7.52
Si -2.83  0.47  7.52
Si  2.83 -0.47 -7.52
Si -0.62  6.33 -5.01
Si  0.62 -6.33  5.01
Si -4.17 -6.49  2.51
Si  4.17  6.49 -2.51
Si -1.49  2.69  7.52
Si  1.49 -2.69 -7.52
Si -6.01 -2.53 -5.01
Si  6.01  2.53  5.01
Si -3.92 -6.80 -2.51
Si  3.92  6.80  2.51
Si -1.83 -6.33  5.01
Si  1.83  6.33 -5.01
Si  3.19 -1.75  7.52
Si -3.19  1.75 -7.52
Si -7.14  4.43  0.00
Si  7.14 -4.43  0.00
Si -6.28  2.53  5.01
Si  6.28 -2.53 -5.01
Si  6.51  1.90 -5.01
Si -6.51 -1.90  5.01
Si -5.40 -4.12  5.01
Si  5.40  4.12 -5.01
Si -4.90 -4.74 -5.01
Si  4.90  4.74  5.01
Si  4.93 -4.74 -5.01
Si -4.93  4.74  5.01
Si -0.61 -3.96  7.52
Si  0.61  3.96 -7.52
Si  7.01 -4.28  2.51
Si -7.01  4.28 -2.51
Si  3.08 -6.33  5.01
Si -3.08  6.33 -5.01
Si -1.12  6.96  5.01
Si  1.12 -6.96 -5.01
Si -1.33 -6.96 -5.01
Si  1.33  6.96  5.01
Si  3.43  2.69  7.52
Si -3.43 -2.69 -7.52
Si -1.85  3.96 -7.52
Si  1.85 -3.96  7.52
Si -7.12 -0.31 -5.01
Si  7.12  0.31  5.01
Si -8.49  2.22  0.00
Si  8.49 -2.22  0.00
Si -4.18 -1.75  7.52
Si  4.18  1.75 -7.52
Si -4.54 -0.47 -7.52
Si  4.54  0.47  7.52
Si -7.61 -4.43  0.00
Si  7.61  4.43  0.00
Si -5.79  6.65  0.00
Si  5.79 -6.65  0.00
Si -0.47 -8.86  0.00
Si  0.47  8.86  0.00
Si -3.94  2.69  7.52
Si  3.94 -2.69 -7.52
Si  7.26 -4.59 -2.51
Si -7.26  4.59  2.51
Si -8.36  2.06 -2.51
Si  8.36 -2.06  2.51
Si -5.67  6.49 -2.51
Si  5.67 -6.49  2.51
Si -0.14  4.90  7.52
Si  0.14 -4.90 -7.52
Si -8.72 -2.22  0.00
Si  8.72  2.22  0.00
Si -3.07 -3.96  7.52
Si  3.07  3.96 -7.52
Si  0.60  8.71 -2.51
Si -0.60 -8.71  2.51
Si  1.99 -8.86  0.00
Si -1.99  8.86  0.00
Si -7.49 -4.59 -2.51
Si  7.49  4.59  2.51
Si -7.62  0.31  5.01
Si  7.62 -0.31 -5.01
Si  4.29  6.33 -5.01
Si -4.29 -6.33  5.01
Si -7.74 -4.28  2.51
Si  7.74  4.28 -2.51
Si -5.29  0.47  7.52
Si  5.29 -0.47 -7.52
Si  1.86 -8.71  2.51
Si -1.86  8.71 -2.51
Si -8.60 -2.37 -2.51
Si  8.60  2.37  2.51
Si  2.32  4.90  7.52
Si -2.32 -4.90 -7.52
Si  8.61 -2.37 -2.51
Si -8.61  2.37  2.51
Si  3.58 -6.96 -5.01
Si -3.58  6.96  5.01
Si -6.50 -6.65  0.00
Si  6.50  6.65  0.00
Si -2.93 -8.86  0.00
Si  2.93  8.86  0.00
Si -2.60  4.90  7.52
Si  2.60 -4.90 -7.52
Si  5.92 -6.80 -2.51
Si -5.92  6.80  2.51
Si  0.35  9.02  2.51
Si -0.35 -9.02 -2.51
Si -3.79 -6.96 -5.01
Si  3.79  6.96  5.01
Si -8.85 -2.06  2.51
Si  8.85  2.06 -2.51
Si  6.89 -4.12  5.01
Si -6.89  4.12 -5.01
Si  4.30 -3.96  7.52
Si -4.30  3.96 -7.52
Si -3.06 -8.71  2.51
Si  3.06  8.71 -2.51
Si -5.65  1.75 -7.52
Si  5.65 -1.75  7.52
Si -2.11  9.02  2.51
Si  2.11 -9.02 -2.51
Si -6.62 -6.49  2.51
Si  6.62  6.49 -2.51
Si  6.38  6.80  2.51
Si -6.38 -6.80 -2.51
Si -0.50  6.18 -7.52
Si  0.50 -6.18  7.52
Si  2.81  9.02  2.51
Si -2.81 -9.02 -2.51
Si -5.54  6.33 -5.01
Si  5.54 -6.33  5.01
Si -8.24  1.90 -5.01
Si  8.24 -1.90  5.01
Si  9.83  0.00  0.00
Si -9.83  0.00  0.00
Si -4.44  8.86  0.00
Si  4.44 -8.86  0.00
Si -5.89 -2.69 -7.52
Si  5.89  2.69  7.52
Si -1.96 -6.18  7.52
Si  1.96  6.18 -7.52
Si  0.72  8.55 -5.01
Si -0.72 -8.55  5.01
Si  9.71  0.16  2.51
Si -9.71 -0.16 -2.51
Si -4.32  8.71 -2.51
Si  4.32 -8.71  2.51
Si  0.50 -0.63 -10.03
Si -0.50  0.63 10.03
Si  1.74 -8.55  5.01
Si -1.74  8.55 -5.01
Si -7.36 -4.74 -5.01
Si  7.36  4.74  5.01
Si  7.39 -4.74 -5.01
Si -7.39  4.74  5.01
Si -5.53 -3.96  7.52
Si  5.53  3.96 -7.52
Si -8.47 -2.53 -5.01
Si  8.47  2.53  5.01
Si  4.78  4.90  7.52
Si -4.78 -4.90 -7.52
Si -0.61  1.59 -10.03
Si  0.61 -1.59 10.03
Si  2.96 -6.18  7.52
Si -2.96  6.18 -7.52
Si -6.64 -1.75  7.52
Si  6.64  1.75 -7.52
Si  7.86  4.12 -5.01
Si -7.86 -4.12  5.01
Si  6.40 -2.69 -7.52
Si -6.40  2.69  7.52
Si -1.96 -0.63 -10.03
Si  1.96  0.63 10.03
Si -9.96  0.16  2.51
Si  9.96 -0.16 -2.51
Si  7.00  0.47  7.52
Si -7.00 -0.47 -7.52
Si -5.05  4.90  7.52
Si  5.05 -4.90 -7.52
Si -1.85 -1.59 10.03
Si  1.85  1.59 -10.03
Si  5.39  8.86  0.00
Si -5.39 -8.86  0.00
Si -8.74  2.53  5.01
Si  8.74 -2.53 -5.01
Si  3.18  8.55 -5.01
Si -3.18 -8.55  5.01
Si  4.57 -9.02 -2.51
Si -4.57  9.02  2.51
Si -1.21 -7.12 -7.52
Si  1.21  7.12  7.52
Si -1.25  7.12  7.52
Si  1.25 -7.12 -7.52
Si  8.97  1.90 -5.01
Si -8.97 -1.90  5.01
Si -0.85 -2.84 -10.03
Si  0.85  2.84 10.03
Si  0.22  9.18  5.01
Si -0.22 -9.18 -5.01
Si  2.96 -0.63 -10.03
Si -2.96  0.63 10.03
Si  6.04 -6.96 -5.01
Si -6.04  6.96  5.01
Si  6.75  6.33 -5.01
Si -6.75 -6.33  5.01
Si  1.61 -2.84 -10.03
Si -1.61  2.84 10.03
Si  9.60 -4.43  0.00
Si -9.60  4.43  0.00
Si  8.25 -6.65  0.00
Si -8.25  6.65  0.00
Si -5.51 -8.71  2.51
Si  5.51  8.71 -2.51
Si -3.07  1.59 -10.03
Si  3.07 -1.59 10.03
Si  6.25  6.96  5.01
Si -6.25 -6.96 -5.01
Si  4.42  6.18 -7.52
Si -4.42 -6.18  7.52
Si  9.47 -4.28  2.51
Si -9.47  4.28 -2.51
Si -2.24  9.18  5.01
Si  2.24 -9.18 -5.01
Si -8.12  6.49 -2.51
Si  8.12 -6.49  2.51
Si  5.26  9.02  2.51
Si -5.26 -9.02 -2.51
Si  0.74  3.81 -10.03
Si -0.74 -3.81 10.03
Si -4.19  8.55 -5.01
Si  4.19 -8.55  5.01
Si  2.68  9.18  5.01
Si -2.68 -9.18 -5.01
Si  7.75 -0.47 -7.52
Si -7.75  0.47  7.52
Si  9.58  0.31  5.01
Si -9.58 -0.31 -5.01
Si  6.76 -3.96  7.52
Si -6.76  3.96 -7.52
Si -1.72  3.81 -10.03
Si  1.72 -3.81 10.03
Si  3.31  2.84 10.03
Si -3.31 -2.84 -10.03
Si  4.42  0.63 10.03
Si -4.42 -0.63 -10.03
Si -3.67 -7.12 -7.52
Si  3.67  7.12  7.52
Si -3.71  7.12  7.52
Si  3.71 -7.12 -7.52
Si -10.07 -4.43  0.00
Si 10.07  4.43  0.00
Si -4.30 -1.59 10.03
Si  4.30  1.59 -10.03
Si -9.72  4.59  2.51
Si  9.72 -4.59 -2.51
Si  8.38 -6.80 -2.51
Si -8.38  6.80  2.51
Si -0.64 11.08  0.00
Si  0.64 -11.08  0.00
Si -5.42  6.18 -7.52
Si  5.42 -6.18  7.52
Si -8.96 -6.65  0.00
Si  8.96  6.65  0.00
Si -10.94  2.22  0.00
Si 10.94 -2.22  0.00
Si -4.07  2.84 10.03
Si  4.07 -2.84 -10.03
Si -3.19 -3.81 10.03
Si  3.19  3.81 -10.03
Si  8.11 -1.75  7.52
Si -8.11  1.75 -7.52
Si -0.51 10.92 -2.51
Si  0.51 -10.92  2.51
Si -1.82 -11.08  0.00
Si  1.82 11.08  0.00
Si  6.90 -8.86  0.00
Si -6.90  8.86  0.00
Si -9.94 -4.59 -2.51
Si  9.94  4.59  2.51
Si -0.26  5.06 10.03
Si  0.26 -5.06 -10.03
Si -10.08  0.31  5.01
Si 10.08 -0.31 -5.01
Si -10.82  2.06 -2.51
Si 10.82 -2.06  2.51
Si -0.85 -8.39  7.52
Si  0.85  8.39 -7.52
Si -6.78  8.71 -2.51
Si  6.78 -8.71  2.51
Si -10.19 -4.28  2.51
Si 10.19  4.28 -2.51
Si  8.00 -6.33  5.01
Si -8.00  6.33 -5.01
Si -1.94 -10.92  2.51
Si  1.94 10.92 -2.51
Si  9.35 -4.12  5.01
Si -9.35  4.12 -5.01
Si -1.61  8.39 -7.52
Si  1.61 -8.39  7.52
Si 11.18  2.22  0.00
Si -11.18 -2.22  0.00
Si -5.64 -8.55  5.01
Si  5.64  8.55 -5.01
Si -5.42  0.63 10.03
Si  5.42 -0.63 -10.03
Si  8.83  6.80  2.51
Si -8.83 -6.80 -2.51
Si  9.08  6.49 -2.51
Si -9.08 -6.49  2.51
Si -2.19 -5.06 -10.03
Si  2.19  5.06 10.03
Si -4.69  9.18  5.01
Si  4.69 -9.18 -5.01
Si -3.10 11.08  0.00
Si  3.10 -11.08  0.00
Si -4.18  3.81 -10.03
Si  4.18 -3.81 10.03
Si -7.24 -4.90 -7.52
Si  7.24  4.90  7.52
Si  0.76 -11.24 -2.51
Si -0.76 11.24  2.51
Si  8.35  2.69  7.52
Si -8.35 -2.69 -7.52
Si -2.72  5.06 10.03
Si  2.72 -5.06 -10.03
Si -5.53  1.59 -10.03
Si  5.53 -1.59 10.03
Si 11.05  2.37  2.51
Si -11.05 -2.37 -2.51
Si -2.97 10.92 -2.51
Si  2.97 -10.92  2.51
Si 11.07 -2.37 -2.51
Si -11.07  2.37  2.51
Si -1.69 -11.24 -2.51
Si  1.69 11.24  2.51
Si -5.14 -9.18 -5.01
Si  5.14  9.18  5.01
Si  7.99  3.96 -7.52
Si -7.99 -3.96  7.52
Si  0.38 -6.02 10.03
Si -0.38  6.02 -10.03
Si -7.03  9.02  2.51
Si  7.03 -9.02 -2.51
Si -7.51  4.90  7.52
