500
set: 902.00  0.00  0.00
Si -0.43  1.21 -0.79
Si  0.47 -1.20  0.85
Si  1.37  1.12  0.80
Si -1.30 -1.20 -0.83
Si -0.81  0.04  2.42
Si  2.13 -1.18 -0.82
Si -2.16  1.25  0.83
Si  0.90  0.00 -2.48
Si  0.07  2.33  2.46
Si -3.11 -1.15  0.83
Si  3.12  1.18 -0.84
Si -0.09 -2.41 -2.51
Si -2.67 -0.03 -2.37
Si  2.65 -0.04  2.47
Si -0.48 -3.55  0.85
Si  0.48  3.58 -0.80
Si -1.74 -2.33  2.46
Si  1.77 -2.38  2.43
Si -1.25  3.52  0.87
Si -1.74  2.34 -2.50
Si  1.81  2.34 -2.48
Si  1.27 -3.59 -0.82
Si -0.93  0.02 -4.08
Si -3.95  1.24 -0.82
Si  3.98 -1.14  0.81
Si  0.86  0.01  4.14
Si -2.26 -3.53 -0.80
Si  2.26  3.56  0.85
Si -3.04  3.48 -0.88
Si  3.03 -3.52  0.81
Si -0.03 -2.38  4.10
Si  0.05  2.40 -4.10
Si  3.46 -2.36 -2.49
Si  2.62  0.03 -4.12
Si -3.47  2.38  2.48
Si -2.65 -0.05  4.14
Si  3.54  2.39  2.51
Si -3.59 -2.42 -2.44
Si  4.38  0.02 -2.46
Si -1.79 -2.35 -4.08
Si  1.74 -2.35 -4.12
Si -4.41 -0.00  2.48
Si -1.70  2.35  4.17
Si  4.86  1.20  0.82
Si  1.75  2.36  4.14
Si -4.89 -1.17 -0.85
Si -0.85  4.69 -2.44
Si  4.01  3.51 -0.82
Si  0.79 -4.72  2.51
Si -3.99 -3.58  0.87
Si -0.93 -4.77 -2.48
Si  1.00  4.78  2.46
Si  3.47 -2.36  4.09
Si  0.38 -1.20 -5.73
Si  5.69 -1.17 -0.85
Si -5.72  1.20  0.82
Si -3.53 -2.41  4.11
Si  3.53  2.37 -4.14
Si -0.42  1.21  5.80
Si  2.65  4.70 -2.51
Si  2.55 -4.76 -2.51
Si -2.57  4.78  2.48
Si -3.58  2.35 -4.15
Si  4.37  0.02  4.08
Si  0.37 -5.92 -0.84
Si -2.67 -4.77  2.46
Si -0.37  5.95  0.83
Si -1.32 -1.15  5.78
Si  1.34  1.18 -5.78
Si -4.41 -0.01 -4.14
Si -4.81  3.59  0.81
Si  4.80 -3.63 -0.88
Si  1.44  5.91 -0.83
Si -1.37 -5.99  0.80
Si  2.16 -1.18  5.74
Si -2.16  1.15 -5.76
Si  5.28 -2.33  2.48
Si -0.79  4.70  4.11
Si -5.31 -2.33  2.48
Si -5.29  2.35 -2.51
Si  5.29  2.35 -2.51
Si  2.12 -5.90  0.82
Si  0.79 -4.74 -4.14
Si  0.95  4.76 -4.08
Si -2.15  5.93 -0.85
Si -0.99 -4.75  4.14
Si -3.07 -1.21 -5.71
Si  6.17 -0.00  2.48
Si  3.11  1.20  5.76
Si -6.20  0.02 -2.46
Si -6.60 -1.14  0.81
Si -3.17 -5.90 -0.79
Si -0.51 -3.54 -5.73
Si  3.21  5.91  0.85
Si -2.69 -4.70 -4.10
Si  6.63  1.24 -0.82
Si -2.55  4.76 -4.14
Si  2.62 -4.73  4.14
Si  2.71  4.73  4.10
Si  0.44  3.57  5.79
Si -1.28  3.50 -5.74
Si  5.77  3.59  0.81
Si  1.25 -3.53  5.75
Si -5.78 -3.63 -0.88
Si  4.37 -4.72  2.48
Si -4.38  4.75 -2.49
Si  4.51  4.72  2.43
Si -4.48 -4.76 -2.50
Si -3.92  1.20  5.73
Si -5.22  2.38  4.14
Si  3.99 -1.18 -5.73
Si  3.89 -5.86 -0.82
Si  2.23  3.57 -5.73
Si  5.29 -2.35 -4.14
Si -5.29 -2.35 -4.14
Si -3.86  5.96  0.81
Si -2.30 -3.54  5.79
Si  5.36  2.38  4.14
Si -3.04  3.54  5.73
Si  3.00 -3.54 -5.80
Si -6.21  0.02  4.08
Si  6.17 -0.01 -4.14
Si  0.07  7.08 -2.37
Si -6.57  3.51 -0.82
Si  0.44 -1.22  7.39
Si -0.37  1.22 -7.41
Si  6.59 -3.58  0.87
Si  1.28  1.15  7.36
Si -0.09 -7.15  2.47
Si  7.47 -1.15  0.83
Si -7.47  1.18 -0.84
Si  4.26 -4.75 -4.15
Si -1.30 -1.22 -7.41
Si -4.37  4.75  4.09
Si  4.84  1.20 -5.78
Si -4.95 -1.20  5.73
Si  1.64 -7.09 -2.46
Si -4.90 -5.86  0.83
Si -1.67  7.11  2.48
Si  4.87  5.93 -0.82
Si  4.48  4.75 -4.12
Si -4.44 -4.76  4.17
Si -1.84 -7.11 -2.48
Si  2.16 -1.17 -7.36
Si  1.93  7.15  2.42
Si  7.00 -2.42 -2.44
Si -2.22  1.14  7.44
Si -7.05  2.39  2.51
Si  3.99  3.58  5.75
Si -4.02 -3.60 -5.74
Si  7.11  2.38  2.48
Si -7.12 -2.36 -2.49
Si -6.07  4.72  2.43
Si -3.11 -1.21  7.37
Si  5.63 -1.20  5.73
Si  6.10 -4.76 -2.50
Si  3.14  1.17 -7.44
Si  0.09  7.06  4.14
Si -6.21 -4.72  2.48
Si -0.12 -7.08 -4.12
Si  6.21  4.75 -2.49
Si  5.68 -5.86  0.83
Si -0.47 -3.55  7.39
Si -0.33  5.90 -5.71
Si -5.74  1.20 -5.78
Si  0.37 -5.91  5.76
Si  7.91 -0.03 -2.37
Si -3.56 -7.06  2.42
Si -5.71  5.93 -0.82
Si  3.43 -7.11  2.48
Si  4.80 -3.57  5.73
Si -3.46  7.13 -2.46
Si  0.56  3.60 -7.46
Si -7.93 -0.04  2.47
Si  1.28 -3.60 -7.40
Si  1.63 -7.09  4.08
Si -0.61 -8.28 -0.82
Si -4.84  3.57 -5.80
Si  7.54  3.48 -0.88
Si  3.65  7.11 -2.48
Si -7.55 -3.52  0.81
Si -1.67  7.09 -4.14
Si  1.24 -8.25  0.81
Si -1.30  3.52  7.50
Si -1.40 -5.93 -5.78
Si  1.81  7.12 -4.08
Si  0.58  8.35  0.83
Si  1.42  5.96  5.78
Si -1.88 -7.09  4.14
Si  3.92 -1.21  7.36
Si -3.94  1.22 -7.40
Si  7.00  2.35 -4.15
Si -1.21  8.35 -0.82
Si  7.05 -2.41  4.11
Si -7.05  2.37 -4.14
Si  2.27  3.55  7.39
Si -2.21  5.91  5.73
Si -2.19 -3.51 -7.46
Si -7.11 -2.36  4.09
Si  2.10 -5.91 -5.78
Si  8.42  1.25  0.83
Si -8.45 -1.18 -0.82
Si -2.27 -8.31  0.85
Si  2.31  8.31 -0.79
Si -3.04  3.55 -7.39
Si  3.02 -3.53  7.41
Si -6.10  4.75 -4.12
Si  3.12  5.91 -5.73
Si  6.14 -4.76  4.17
Si -6.59 -1.18 -5.73
Si  6.21  4.75  4.09
Si  2.95 -8.28 -0.85
Si -3.16 -5.90  5.80
Si -2.98  8.31  0.82
Si  6.66  1.20  5.73
Si -5.78 -3.57  5.73
Si  4.83  1.20  7.38
Si  5.74  3.57 -5.80
Si -3.47  7.12  4.08
Si -4.84 -1.17 -7.39
Si  3.43 -7.12 -4.14
Si -6.32 -4.75 -4.15
Si -6.69 -5.86 -0.82
Si  7.93 -0.05  4.14
Si -3.67 -7.09 -4.08
Si -7.96  0.03 -4.12
Si  3.60  7.12  4.14
Si  6.72  5.96  0.81
Si  0.89  0.00 -9.02
Si  8.32 -3.53 -0.80
Si -8.32  3.56  0.85
Si -3.85  5.93 -5.73
Si -5.19  7.06  2.47
Si  3.92 -5.90  5.73
Si -0.89  0.02  9.08
Si  5.17 -7.14 -2.37
Si  4.03  3.51 -7.40
Si  5.40  7.06  2.47
Si  4.11  8.22  0.80
Si -4.04 -3.58  7.50
Si -5.41 -7.14 -2.37
Si -4.04 -8.30 -0.83
Si -9.21  1.12  0.80
Si  0.07  2.36  9.04
Si -2.62 -0.03 -9.01
Si -0.00 -2.44 -9.07
Si  9.28 -1.20 -0.83
Si -8.77  2.34 -2.48
Si  6.56 -3.60 -5.74
Si  5.74 -1.17 -7.39
Si -5.75  1.20  7.38
Si  2.64 -0.04  9.05
Si -8.81 -2.38  2.43
Si -0.37  5.89  7.37
Si -6.59  3.58  5.75
Si  8.84 -2.33  2.46
Si -7.37  5.91  0.85
Si  8.85  2.34 -2.50
Si  4.80 -3.55 -7.39
Si  1.75 -2.37  9.04
Si  7.41 -5.90 -0.79
Si  1.84  2.35 -9.03
Si -7.47  1.20  5.76
Si  7.51 -1.21 -5.71
Si -1.74  2.40 -9.05
Si  0.40 -5.93 -7.44
Si -4.83  3.57  7.41
Si -1.80 -2.35  9.08
Si  4.73 -8.26  0.83
Si -7.93  4.70 -2.51
Si  7.91 -4.77  2.46
Si  1.44  5.89 -7.41
Si -4.72  8.29 -0.84
Si -1.46 -5.96  7.36
Si  4.90  5.92  5.74
Si -4.90 -5.96 -5.76
Si  8.02  4.78  2.48
Si -8.03 -4.76 -2.51
Si  2.09 -5.91  7.38
Si -2.10  5.93 -7.39
Si -5.22  7.13 -4.12
Si  5.19 -7.16  4.14
Si  0.72 -9.46 -2.49
Si  1.00  9.45 -2.50
Si  5.36  7.13 -4.12
Si -0.73  9.49  2.48
Si -0.97 -9.49  2.43
Si -5.39 -7.16  4.14
Si -3.11 -5.88 -7.41
Si  8.79 -2.35 -4.08
Si  3.18  5.89  7.39
Si -3.52  2.38  9.02
Si -3.53 -2.31 -9.05
Si  3.49 -2.35 -9.05
Si -9.68  0.00 -2.48
Si  3.50  2.38  9.05
Si -6.66 -1.21  7.36
Si -5.68  5.92  5.74
Si -9.31 -3.59 -0.82
Si  9.33  3.52  0.87
Si -4.41 -0.07  9.00
Si  6.65  1.22 -7.40
Si -8.84 -2.35 -4.12
Si -8.83  2.36  4.14
Si -5.79 -3.55 -7.39
Si  5.76  3.57  7.41
Si  5.68 -5.96 -5.76
Si -7.87  4.73  4.10
Si  7.89 -4.70 -4.10
Si  9.77  0.04  2.42
Si  4.40  0.03 -9.06
Si  2.53 -9.44  2.48
Si  0.58  8.25 -5.76
Si  8.88  2.35  4.17
Si -0.58 -8.29  5.74
Si -2.55  9.45 -2.51
Si  7.54  3.54  5.73
Si -7.96 -4.73  4.14
Si  1.25 -8.28 -5.73
Si  2.81  9.44  2.46
Si -5.85 -8.26  0.83
Si -1.18  8.31  5.73
Si -7.58 -3.54 -5.80
Si  5.86  8.29 -0.84
Si  8.03  4.76 -4.14
Si -3.92  5.90  7.36
Si -10.11 -1.20  0.85
Si  3.90 -5.88 -7.40
Si -6.94  7.11 -2.48
Si -2.83 -9.51 -2.51
Si -0.90 -4.75 -9.03
Si  0.76 -4.73  9.05
Si  7.03 -7.06  2.42
Si 10.15  1.21 -0.79
Si -8.42 -1.18  5.74
Si  8.42  1.15 -5.76
Si -0.79  4.80 -9.05
Si  0.94  4.76  9.08
Si  0.73 -9.46  4.09
Si  8.43  5.93 -0.85
Si -8.46 -5.90  0.82
Si -2.36 -8.30 -5.73
Si -0.84  9.46 -4.15
Si -1.00 -9.46 -4.12
Si  7.13  7.13 -2.46
Si  1.04  9.46  4.17
Si -7.16 -7.11  2.48
Si  2.32  8.31  5.80
Si  9.65  0.02 -4.08
Si -6.56  3.51 -7.40
Si  2.89 -8.31  5.73
Si -6.47  8.22  0.80
Si  2.61 -4.70 -9.07
Si -3.00  8.30 -5.78
Si -2.67 -4.75  9.04
Si -2.58  4.79  9.05
Si -9.72  0.01  4.14
Si  2.74  4.67 -9.07
Si  7.47 -1.21  7.37
Si  6.54 -3.58  7.50
Si -6.66 -5.90  5.73
Si -7.44  1.17 -7.44
Si  6.54 -8.30 -0.83
Si -0.30 10.58 -0.88
Si  2.55 -9.46 -4.14
Si -2.48  9.48  4.14
Si  6.73  5.93 -5.73
Si  4.91  5.94 -7.36
Si  0.29 -10.63  0.81
Si -2.77 -9.48  4.10
Si -0.89  0.02 -10.67
Si  8.28 -3.54  5.79
Si  6.91 -7.09 -4.08
Si  4.25 -9.52 -2.44
Si  5.26 -2.31  9.05
Si  2.79  9.51 -4.10
Si -4.31  9.49  2.51
Si -4.49 -9.44  2.46
Si -8.35  3.57 -5.73
Si -5.23  2.41 -9.07
Si 10.10 -3.55  0.85
Si -10.10  3.58 -0.80
Si -4.96 -5.97  7.44
Si -5.32 -2.31  9.05
Si  0.89  0.00 10.73
Si  1.49 10.63  0.87
Si  4.55  9.44 -2.48
Si -6.98  7.12  4.14
Si  5.35  2.41 -9.07
Si -1.47 -10.70 -0.82
Si  7.11  7.12  4.08
Si -4.07 -8.26  5.78
Si  4.08  8.28 -5.78
Si -7.15 -7.12 -4.14
Si  6.17 -0.07  9.00
Si -9.14  5.91 -0.83
Si -2.07 10.69  0.81
Si -0.00 -2.44 10.67
Si -9.24  1.18 -5.78
Si  0.07  2.36 -10.71
Si  2.06 -10.73 -0.88
Si -6.18  0.03 -9.06
Si  9.26 -1.15  5.78
Si -9.58  4.78  2.46
Si  2.64 -0.04 -10.69
Si  9.21 -5.99  0.80
Si -5.68  5.94 -7.36
Si -10.51  2.33  2.46
Si  9.65 -4.77 -2.48
Si 10.49 -2.41 -2.51
Si -2.62 -0.03 10.74
Si  4.32 -4.72  9.02
Si -1.80 -2.35 -10.66
Si  5.62 -5.97  7.44
Si  9.74  4.69 -2.44
Si -0.58 -8.27 -7.36
Si -1.74  2.40 10.70
Si  1.75 -2.37 -10.71
Si -11.01  1.21 -0.79
Si -7.46  5.91 -5.73
Si -4.35  4.76 -9.05
Si  7.42 -5.90  5.80
Si  0.53  8.24  7.44
Si  1.84  2.35 10.72
Si -4.48 -4.71 -9.05
Si  7.54  3.55 -7.39
Si  4.49  4.74  9.04
Si 11.05 -1.20  0.85
Si -9.79 -4.72  2.51
Si  4.77 -8.31 -5.71
Si -4.73  8.31  5.76
Si -3.22 -10.65  0.85
Si  1.18 -8.31  7.36
Si -7.57 -3.53  7.41
Si 10.65  2.33  2.46
Si  3.22 10.68 -0.80
Si -4.31  9.48 -4.14
Si -1.20  8.33 -7.40
Si  4.31 -9.51  4.11
Si -10.67 -2.41 -2.51
Si -8.42 -1.17 -7.36
Si -4.53 -9.45 -4.08
Si  8.37  1.14  7.44
Si  4.49  9.46  4.14
Si  7.61  8.31  0.82
Si -7.64 -8.28 -0.85
Si -3.83 10.62 -0.82
Si -2.30 -8.32  7.39
Si  3.85 -10.69  0.87
Si  2.37  8.33 -7.41
Si  0.12  7.08 -9.01
Si -6.03  9.44 -2.48
Si  9.30  3.50 -5.74
Si  9.59 -4.75  4.14
Si -8.65  7.15  2.42
Si -9.63  4.76 -4.08
Si  3.49 -2.35 10.69
Si  3.00 -8.28 -7.39
Si  3.50  2.38 -10.69
Si -3.53 -2.31 10.70
Si  6.10 -9.44  2.46
Si -3.01  8.30  7.38
Si -9.33 -3.53  5.75
Si -0.10 -7.14  9.05
Si -3.52  2.38 -10.72
Si  8.74 -7.11 -2.48
Si -1.67  7.03  9.00
Si  6.67  5.90  7.36
Si  4.40  0.03 10.68
Si -10.54  2.40 -4.10
Si 10.55 -2.38  4.10
Si -6.68 -5.88 -7.40
Si  9.79  4.70  4.11
Si  1.66 -7.07 -9.06
Si -4.41 -0.07 -10.75
Si -10.61 -2.38  4.10
Si -1.85 -7.10 -9.02
Si -9.79 -4.74 -4.14
Si -5.82 -8.31 -5.71
Si 10.63  2.40 -4.10
Si -11.06 -3.55  0.85
Si -11.40  0.04  2.42
Si 11.06  3.58 -0.80
Si  6.28  9.49  2.51
Si  8.91  7.11  2.48
Si -8.94 -7.09 -2.46
Si -8.31  3.55  7.39
Si  5.85  8.31  5.76
Si -6.33 -9.52 -2.44
Si  1.85  7.13  9.08
Si  7.05 -2.31 -9.05
Si  7.06  2.38  9.02
Si  0.76 -4.73 -10.69
Si  0.94  4.76 -10.66
Si -7.09 -2.35 -9.05
Si  8.37  5.91  5.73
Si -7.08  2.38  9.05
Si 11.48  0.00 -2.48
Si -0.79  4.80 10.70
Si -8.27  8.31 -0.79
