500
set: 487.00  0.00  0.00
Si -0.14 -0.14 -0.12
Si  1.71  0.85  0.59
Si -1.60  1.16  0.95
Si  0.14 -2.14  0.81
Si -0.20 -0.25 -2.33
Si  1.38  1.24  2.77
Si  0.02  1.92 -2.84
Si -3.45  0.17  0.10
Si  1.78 -1.26 -2.75
Si -1.50 -3.26 -0.14
Si -1.54  3.25  0.15
Si  2.06 -2.98  0.15
Si  2.09  2.97 -0.14
Si -1.81  0.82  3.12
Si  3.74  0.17  0.10
Si  0.02 -2.23  3.03
Si -3.19 -1.94  0.58
Si -2.21 -0.84 -3.10
Si  3.29  0.28 -2.09
Si -1.81  2.88 -2.07
Si  1.65 -0.85  3.58
Si -1.94 -2.92 -2.29
Si  1.78 -3.35 -2.07
Si  0.40  4.28  0.58
Si  1.65  3.30 -2.29
Si -1.81 -1.27  3.80
Si -3.90  0.28 -2.09
Si -0.31  2.35  3.78
Si  4.00 -1.94  0.58
Si  3.47 -1.88  2.80
Si -0.13 -3.96 -3.07
Si -3.72 -1.88  2.80
Si  3.47  2.27 -3.07
Si -0.13  4.34  2.80
Si  3.40  1.82  3.54
Si -3.72  2.27 -3.07
Si  2.00 -0.92 -4.92
Si -3.46  4.08  0.81
Si  0.14  2.01 -5.06
Si -3.79  1.82  3.54
Si  2.00 -5.07  0.95
Si -5.48  0.85  0.59
Si  3.73  4.08  0.81
Si -0.20 -4.40  3.54
Si -1.89 -5.37  0.59
Si -1.89 -1.22 -5.28
Si  5.59  1.16  0.95
Si -5.10  2.97 -0.14
Si  4.98 -0.84 -3.10
Si -5.13 -2.98  0.15
Si -1.81  4.97 -2.75
Si  0.14 -6.06  0.10
Si  0.14 -1.91 -5.77
Si -2.21 -4.99  2.77
Si -3.57  3.99  3.03
Si  3.62  3.99  3.03
Si  2.06  1.17 -5.72
Si -5.41 -1.26 -2.75
Si  2.09 -1.18  5.73
Si -1.50  0.89 -6.01
Si  5.38  0.82  3.12
Si -3.57 -4.31 -2.84
Si -1.54 -0.90  6.02
Si  3.62 -4.31 -2.84
Si -0.31 -5.95 -2.09
Si  3.29 -3.87  3.78
Si  1.38  5.39 -3.10
Si  0.14  2.24  5.97
Si  0.14  6.39  0.10
Si  5.25 -2.92 -2.29
Si  5.38  2.88 -2.07
Si  0.40  0.13  6.45
Si  1.78  4.95  3.80
Si  1.78 -5.41  3.12
Si  5.65  3.25  0.15
Si -5.81  1.24  2.77
Si  5.69 -3.26 -0.14
Si -3.19  2.21 -5.29
Si -5.54 -0.85  3.58
Si  0.41 -4.02 -5.29
Si -3.90 -3.87  3.78
Si -5.41 -3.35 -2.07
Si  5.38 -1.27  3.80
Si -1.94  5.38  3.58
Si -0.31  6.50 -2.09
Si -5.54  3.30 -2.29
Si  3.46  1.93  5.75
Si  4.00  2.21 -5.29
Si  3.46  6.08 -0.12
Si  7.05 -0.14 -0.12
Si -3.73  1.93  5.75
Si -3.73  6.08 -0.12
Si -0.14 -4.29  5.75
Si -0.14  4.01 -5.99
Si -5.19 -0.92 -4.92
Si  3.46 -6.37 -0.12
Si  3.40  5.97 -2.33
Si  3.46 -2.22 -5.99
Si -5.19 -5.07  0.95
Si -7.33 -0.14 -0.12
Si -1.89  2.93  6.47
Si -1.89  7.08  0.59
Si  6.99 -0.25 -2.33
Si -3.73 -6.37 -0.12
Si -3.73 -2.22 -5.99
Si -1.60  5.31 -4.92
Si -7.05 -2.14  0.81
Si -3.46 -4.22 -5.06
Si -3.79  5.97 -2.33
Si  1.71 -3.30  6.47
Si  1.71  5.00 -5.28
Si -3.46 -0.07  6.68
Si  3.73 -4.22 -5.06
Si  4.98 -4.99  2.77
Si  5.30 -5.37  0.59
Si  5.30 -1.22 -5.28
Si -1.60 -3.00  6.82
Si  3.73 -0.07  6.68
Si  7.33 -2.14  0.81
Si  3.40 -6.48 -2.33
Si  2.00  7.38  0.95
Si -7.39 -0.25 -2.33
Si -5.10 -1.18  5.73
Si -5.13  1.17 -5.72
Si -1.50  5.04  5.73
Si -1.54 -5.06 -5.72
Si  2.00  3.23  6.82
Si  5.38  4.97 -2.75
Si  1.38 -7.07 -3.10
Si -3.79 -6.48 -2.33
Si  1.78  7.04  3.12
Si -7.17  1.92 -2.84
Si -3.45 -3.98  5.97
Si  7.21  1.92 -2.84
Si -3.45  4.32 -5.77
Si -6.79  4.28  0.58
Si  3.74 -3.98  5.97
Si -7.17 -2.23  3.03
Si  3.74  4.32 -5.77
Si  7.21 -2.23  3.03
Si -1.94 -7.07  3.58
Si -0.31 -1.80 -7.96
Si  1.78  0.80 -7.94
Si -1.81 -7.49 -2.75
Si  6.88  2.35  3.78
Si  0.41 -8.17  0.58
Si -5.41  4.95  3.80
Si -5.41 -5.41  3.12
Si -2.21  7.46  2.77
Si  2.06  5.32  6.02
Si  2.09 -5.34 -6.01
Si  5.65 -0.90  6.02
Si  5.68  0.89 -6.01
Si  5.25  5.38  3.58
Si -1.94  1.23 -8.16
Si -5.81  5.39 -3.10
Si -0.13 -8.11  2.80
Si  1.78 -7.50  3.80
Si  7.06 -3.96 -3.07
Si -0.13  0.19  8.67
Si -7.50  2.35  3.78
Si  7.59  4.28  0.58
Si  7.06  4.34  2.80
Si -0.20  8.05  3.54
Si -1.60 -7.15 -4.92
Si  5.30  2.93  6.47
Si  5.30  7.08  0.59
Si -7.32 -3.96 -3.07
Si -7.05  2.01 -5.06
Si -8.79  1.16  0.95
Si -0.13  0.19 -8.94
Si  8.90  0.85  0.59
Si -7.32  4.34  2.80
Si  6.99 -4.40  3.54
Si -0.13  8.49 -3.07
Si -5.20  7.38  0.95
Si -0.20  3.90 -8.20
Si  0.14  6.16  6.68
Si -3.46 -8.37  0.81
Si  8.57  1.24  2.77
Si -5.48 -3.30  6.47
Si -5.48  5.00 -5.28
Si  7.33  2.01 -5.06
Si  5.59  5.31 -4.92
Si -5.19  3.23  6.82
Si  3.40 -2.33 -8.20
Si  0.14 -6.29  6.68
Si  3.73 -8.37  0.81
Si  1.38 -2.91  8.64
Si  1.78  2.89 -8.62
Si -8.70 -3.26 -0.14
Si  1.71 -7.45 -5.28
Si -7.05 -6.06  0.10
Si -7.39 -4.40  3.54
Si -7.05 -1.91 -5.77
Si -8.73  3.25  0.15
Si  5.59 -3.00  6.82
Si -1.51  9.19 -0.14
Si -3.79 -2.33 -8.20
Si -1.54 -9.21  0.15
Si -3.57  8.14 -2.84
Si  6.88 -5.95 -2.09
Si  3.62  8.14 -2.84
Si -6.79  0.13  6.45
Si  4.97  7.46  2.77
Si -5.41  7.04  3.12
Si -3.57 -0.16 -8.71
Si -1.81 -3.34 -8.62
Si -3.19 -6.09  6.45
Si  3.62 -0.16 -8.71
Si  8.97 -1.26 -2.75
Si -1.54  7.40 -5.72
Si -1.50 -7.41  5.73
Si -6.79 -4.02 -5.29
Si  5.65 -5.06 -5.72
Si  1.78  9.10 -2.07
Si -7.05  2.24  5.97
Si  5.25 -7.07  3.58
Si  7.33 -6.06  0.10
Si  5.68  5.04  5.73
Si -7.05  6.39  0.10
Si -2.21  3.31  8.64
Si -5.10 -5.34 -6.01
Si  7.33 -1.91 -5.77
Si  1.38 -2.92 -8.97
Si -5.13  5.32  6.02
Si  2.09  7.12 -6.01
Si  2.06 -7.13  6.02
Si -9.00  0.82  3.12
Si  1.65 -9.15 -2.29
Si  8.84 -0.85  3.58
Si -3.57 -0.16  8.90
Si -3.19  6.36  6.45
Si  3.62 -0.16  8.90
Si  1.78  2.89  8.99
Si  5.38 -7.49 -2.75
Si -5.41  0.80 -7.94
Si -5.81 -7.07 -3.10
Si -3.57 -8.46  3.03
Si -9.00  2.88 -2.07
Si  3.29  4.43 -7.96
Si  3.62 -8.46  3.03
Si  2.06  9.47  0.15
Si  6.88  6.50 -2.09
Si  1.65 -5.00 -8.16
Si  8.84  3.30 -2.29
Si  2.09 -9.49 -0.14
Si  9.25 -2.98  0.15
Si  7.33  2.24  5.97
Si -1.94  1.23  9.45
Si  7.33  6.39  0.10
Si  4.00 -6.09  6.45
Si  9.28  2.97 -0.14
Si -1.81 -3.34  8.99
Si  5.25  1.23 -8.16
Si -1.81 -5.43 -7.94
Si -7.50 -5.95 -2.09
Si  8.97 -3.35 -2.07
Si -2.21  3.31 -8.97
Si -0.31 -1.80  9.65
Si -9.00 -1.27  3.80
Si -9.13 -2.92 -2.29
Si  1.78  0.80  9.67
Si  4.00  6.36  6.45
Si -3.90  4.43 -7.96
Si  3.29  8.58  3.78
Si -9.40 -0.84 -3.10
Si  0.40  8.44 -5.29
Si -1.81 -9.58 -2.07
Si  7.59  0.13  6.45
Si -0.14  8.16  5.75
Si -1.94  9.53 -2.29
Si -5.41 -7.50  3.80
Si  7.05 -4.29  5.75
Si  7.05  4.01 -5.99
Si  7.59 -4.02 -5.29
Si -7.50  6.50 -2.09
Si -3.90  8.58  3.78
Si -0.20  3.90  9.41
Si -7.33 -4.29  5.75
Si -3.46  8.24 -5.06
Si  3.40 -2.33  9.41
Si -7.33  4.01 -5.99
Si  5.59 -7.15 -4.92
Si  0.13 10.31  0.81
Si -0.14 -8.45 -5.99
Si  3.73  8.24 -5.06
Si -3.79 -2.33  9.41
Si  9.19 -0.92 -4.92
Si  4.97  3.31  8.64
Si  9.19 -5.07  0.95
Si -3.45 -8.13 -5.77
Si -9.08 -5.37  0.59
Si -9.08 -1.22 -5.28
Si -10.38 -1.94  0.58
Si -5.41  2.89 -8.62
Si  8.57  5.39 -3.10
Si -8.70  0.89 -6.01
Si  0.02  6.07 -8.71
Si -5.10  7.12 -6.01
Si -6.79 -8.17  0.58
Si -8.73 -0.90  6.02
Si -10.64  0.17  0.10
Si -9.00  4.97 -2.75
Si -5.48 -7.45 -5.28
Si -5.13 -7.13  6.02
Si  3.74 -8.13 -5.77
Si  0.02 10.22  3.03
Si  6.88 -1.80 -7.96
Si 10.48  0.28 -2.09
Si  5.38 -3.34 -8.62
Si -1.81  7.03 -7.94
Si -5.10 -9.49 -0.14
Si  0.02  6.07  8.90
Si -5.13  9.47  0.15
Si  4.97  3.31 -8.97
Si -0.31 -10.10  3.78
Si -5.41  9.10 -2.07
Si  0.02 -6.38 -8.71
Si  5.65 -9.21  0.15
Si  5.68  9.19 -0.14
Si -5.81 -2.91  8.64
Si  1.65 -5.00  9.45
Si  5.25  1.23  9.45
Si -5.41  2.89  8.99
Si  0.02 -10.54 -2.84
Si -3.45  8.47  5.97
Si  5.65  7.40 -5.72
Si  8.97  4.95  3.80
Si 10.93  0.17  0.10
Si  8.97 -5.41  3.12
Si  9.25  1.17 -5.72
Si -5.54 -9.15 -2.29
Si  0.02 -6.38  8.90
Si  5.69 -7.41  5.73
Si  9.28 -1.18  5.73
Si  5.38 -3.34  8.99
Si -3.19 10.51  0.58
Si -9.40 -4.99  2.77
Si  3.74  8.47  5.97
Si  5.38 -5.43 -7.94
Si -5.54 -5.00 -8.16
Si -5.81 -2.92 -8.97
Si -7.50 -1.80 -7.96
Si -5.41  0.80  9.67
Si  3.29  4.43  9.65
Si  7.06 -8.11  2.80
Si  5.25  9.53 -2.29
Si  3.47 -6.04  8.67
Si  0.40  0.13 -11.16
Si  7.59 -8.17  0.58
Si  1.65  7.46 -8.16
Si  5.38 -9.58 -2.07
Si 10.66 -1.88  2.80
Si  7.06  0.19  8.67
Si -9.13  5.38  3.58
Si  3.47 -10.19 -3.07
Si -3.72 -6.04  8.67
Si  6.99  8.05  3.54
Si -1.81 -5.43  9.67
Si  4.00 10.51  0.58
Si -3.72 -10.19 -3.07
Si -7.32 -8.11  2.80
Si -11.09  0.28 -2.09
Si -3.90  4.43  9.65
Si 10.59  1.82  3.54
Si -1.60 -3.00 -10.79
Si 10.66  2.27 -3.07
Si  3.47  6.42  8.67
Si  3.47 -6.04 -8.94
Si  1.71  9.16  6.47
Si -7.32  0.19  8.67
Si 11.19 -1.94  0.58
Si -8.79  5.31 -4.92
Si  7.06  0.19 -8.94
Si -3.72 -6.04 -8.94
Si -3.72  6.42  8.67
Si -10.91 -1.88  2.80
Si -10.65  4.08  0.81
Si  2.00  3.23 -10.79
Si -1.60 -11.30  0.95
Si  6.99  3.90 -8.20
Si  7.06  8.49 -3.07
Si -3.46 -0.07 -10.93
Si  3.47 10.57  2.80
Si  8.90 -3.30  6.47
Si -7.39  8.05  3.54
Si  8.90  5.00 -5.28
Si -7.06  6.16  6.68
Si -8.79 -3.00  6.82
Si -9.08  2.93  6.47
Si -9.08  7.08  0.59
Si  8.57 -7.07 -3.10
Si  3.47  6.42 -8.94
Si -3.73 10.57  2.80
Si  3.73 -0.07 -10.93
Si -7.32  0.19 -8.94
Si -10.91  2.27 -3.07
Si -8.70  5.04  5.73
Si -7.05 -6.29  6.68
Si -8.73 -5.06 -5.72
Si  0.14 -10.45 -5.06
Si -3.72  6.42 -8.94
Si -7.32  8.49 -3.07
Si  1.38 -11.22  2.77
Si  2.00 -9.22  6.82
Si  1.78 11.19 -2.75
Si -1.89 -9.53  6.47
Si  7.33  6.16  6.68
Si -1.89  2.93 -11.15
Si -10.98  1.82  3.54
Si 10.92  4.08  0.81
Si -7.39  3.90 -8.20
Si  3.40 -10.63  3.54
Si -1.54 -0.91 -11.59
Si -1.50  0.89 11.60
Si  1.71 -11.60  0.59
Si  7.33 -6.29  6.68
Si  1.71 -3.30 -11.15
Si -1.60  9.46  6.82
Si  3.29 -8.03 -7.96
Si 10.48 -3.87  3.78
Si  9.19  7.38  0.95
Si  8.97  7.04  3.12
Si  0.14 -10.21  5.97
Si -3.79 -10.63  3.54
Si -0.20 -8.55 -8.20
Si  0.14  2.24 -11.64
Si -10.38  2.21 -5.29
Si -10.76  3.99  3.03
Si  5.38  7.03 -7.94
Si  9.19  3.23  6.82
Si 10.81  3.99  3.03
Si -10.76 -4.31 -2.84
Si -1.81 11.18  3.80
Si -3.90 -8.03 -7.96
Si -3.19 -10.25 -5.29
Si 10.81 -4.31 -2.84
Si  6.88 -1.80  9.65
Si  0.14 -1.91 11.84
Si  8.97  0.80 -7.94
Si  0.14 10.55 -5.77
Si -9.00 -7.49 -2.75
Si -5.54 -5.00  9.45
Si -6.79  8.44 -5.29
Si -1.81  7.03  9.67
Si -9.13 -7.07  3.58
Si  2.09 -1.18 -11.88
Si  2.06  1.17 11.89
Si  1.65  7.46  9.45
Si -1.81 -11.64  3.12
Si  4.00 -10.25 -5.29
Si  7.05  8.16  5.75
Si -2.22 11.62 -3.10
Si  9.25  5.32  6.02
Si 10.65  1.93  5.75
Si  1.65 11.61  3.58
Si 10.65  6.08 -0.12
Si  9.28 -5.34 -6.01
Si -0.14  4.01 11.62
Si  8.97 -7.50  3.80
Si -9.13  1.23 -8.16
Si -0.14 12.31 -0.12
Si -9.40  7.46  2.77
Si  5.38 -5.43  9.67
Si  3.46 -2.22 11.62
Si -11.09 -3.87  3.78
Si -8.79 -7.15 -4.92
Si -7.50 -1.80  9.65
Si  3.46 10.24 -5.99
Si  6.99  3.90  9.41
Si -5.54  7.46 -8.16
Si 10.59  5.97 -2.33
Si -7.33  8.16  5.75
Si -5.19  3.23 -10.79
Si 10.65 -6.37 -0.12
Si -3.73 -2.22 11.62
Si 10.65 -2.22 -5.99
Si -0.20 12.20 -2.33
Si -3.73 10.24 -5.99
Si -5.48  9.16  6.47
Si  3.46 -10.52  5.75
Si -10.92  1.93  5.75
Si  3.46  1.93 -11.86
Si -10.92  6.08 -0.12
Si  5.59 -3.00 -10.79
Si  8.57 -2.91  8.64
Si -7.06 10.31  0.81
Si  7.59  8.44 -5.29
Si -10.65 -4.22 -5.06
Si  7.05 -8.45 -5.99
Si -1.89 -1.22 12.34
Si  0.14  6.16 -10.93
Si -1.89 11.23 -5.28
Si -3.73 -10.52  5.75
Si -10.65 -0.07  6.68
Si 11.19  2.21 -5.29
Si 12.17 -0.84 -3.10
Si -3.73  1.93 -11.86
Si -7.39  3.90  9.41
