500
set: 1585.00  0.00  0.00
Si -0.43 -0.03 -1.59
Si  1.72  0.41  0.19
Si  0.03 -1.81 -0.27
Si -0.31  1.33  1.71
Si  1.11 -1.07  1.85
Si -2.40  0.41  0.19
Si  0.17  2.06 -1.79
Si -1.90  2.69 -0.27
Si  2.22  2.69 -0.27
Si -2.01 -2.44 -1.79
Si -3.01 -1.07  1.85
Si  2.11 -2.44 -1.79
Si  1.70  0.89  3.22
Si  0.12 -1.77 -3.31
Si -0.88 -1.20  3.65
Si  1.63 -3.17  1.71
Si -0.82  3.44  1.85
Si  3.69 -0.03 -1.59
Si -1.43  0.32 -3.75
Si -2.42  0.89  3.22
Si -0.46 -4.10  0.19
Si -2.49 -3.17  1.71
Si  3.81  1.33  1.71
Si -4.08 -1.81 -0.27
Si  4.15 -1.81 -0.27
Si  2.69  0.32 -3.75
Si -1.81  2.73 -3.31
Si -3.94  2.06 -1.79
Si -4.54 -0.03 -1.59
Si -0.49 -3.62  3.22
Si  2.30  2.73 -3.31
Si -0.21  4.91  0.19
Si -4.42  1.33  1.71
Si  3.24 -1.20  3.65
Si  1.50 -4.54 -1.59
Si  1.75  4.47 -1.59
Si  4.29  2.06 -1.79
Si  1.31  3.30  3.65
Si  3.29  3.44  1.85
Si -2.36  4.47 -1.59
Si  0.69  0.76 -5.25
Si -2.61 -4.54 -1.59
Si -4.00 -1.77 -3.31
Si  3.65 -4.10  0.19
Si -1.42  0.54  5.38
Si  1.11 -1.87  5.17
Si  0.50 -4.18 -3.75
Si  5.22 -1.07  1.85
Si  4.23 -1.77 -3.31
Si -2.81  3.30  3.65
Si -2.02 -1.64 -5.12
Si  2.10 -1.64 -5.12
Si  5.84  0.41  0.19
Si -0.82  2.63  5.17
Si  0.17  2.87 -5.12
Si -1.07 -5.57  1.85
Si  2.69  0.54  5.38
Si  3.63 -3.62  3.22
Si -4.58 -4.10  0.19
Si  0.76  4.82 -3.75
Si -3.00 -1.87  5.17
Si  3.90  4.91  0.19
Si -0.24  5.39  3.22
Si -4.94  3.44  1.85
Si -4.99 -1.20  3.65
Si -3.43  0.76 -5.25
Si  1.88  5.83  1.71
Si -2.24  5.83  1.71
Si -6.51  0.41  0.19
Si -4.33  4.91  0.19
Si -6.02  2.69 -0.27
Si  3.04 -5.57  1.85
Si -1.50 -3.74 -5.25
Si  1.97 -6.32 -0.27
Si  3.30  2.63  5.17
Si -3.61 -4.18 -3.75
Si -2.15 -6.32 -0.27
Si -4.61 -3.62  3.22
Si  0.51 -3.97  5.38
Si -5.54  0.32 -3.75
Si  5.81  0.89  3.22
Si  5.74 -3.17  1.71
Si -6.12 -2.44 -1.79
Si  1.06 -5.71  3.65
Si -0.96 -1.25  6.70
Si  6.33  2.69 -0.27
Si  6.22 -2.44 -1.79
Si -1.40 -0.16 -6.78
Si  2.62 -3.74 -5.25
Si -3.36  4.82 -3.75
Si -1.76  6.57 -1.79
Si -3.95  2.87 -5.12
Si  4.80  0.76 -5.25
Si -0.08 -6.94 -1.79
Si  0.28  7.19 -0.27
Si  2.36  6.57 -1.79
Si  0.73  0.97  7.15
Si  4.29  2.87 -5.12
Si  4.62 -4.18 -3.75
Si  2.71 -0.16 -6.78
Si -5.93  2.73 -3.31
Si  5.42  3.30  3.65
Si -6.54  0.89  3.22
Si  3.88  5.39  3.22
Si  2.05 -6.27 -3.31
Si -2.07 -6.27 -3.31
Si  5.62 -4.54 -1.59
Si  0.76  5.04  5.38
Si -3.06 -5.71  3.65
Si -7.12 -1.07  1.85
Si  3.16 -1.25  6.70
Si -6.61 -3.17  1.71
Si -1.25  5.26 -5.25
Si  1.22  3.26  6.70
Si  5.87  4.47 -1.59
Si  5.23 -1.87  5.17
Si -3.60 -3.97  5.38
Si -0.91  2.12 -7.23
Si -4.93  2.63  5.17
Si -4.35  5.39  3.22
Si  1.02 -2.38 -7.23
Si  6.42  2.73 -3.31
Si -5.54  0.54  5.38
Si  6.80  0.32 -3.75
Si  4.87  4.82 -3.75
Si -5.19 -5.57  1.85
Si -0.56 -7.68  1.71
Si  7.80 -0.03 -1.59
Si  0.37  7.24 -3.31
Si  2.87  5.26 -5.25
Si -3.39  0.97  7.15
Si -2.89  3.26  6.70
Si -0.08 -6.14 -5.12
Si -6.48  4.47 -1.59
Si  0.78  4.34 -6.78
Si -3.35  5.04  5.38
Si -1.45 -3.53  7.15
Si  4.63 -3.97  5.38
Si -6.13 -1.64 -5.12
Si -3.83  7.19 -0.27
Si  3.21  2.12 -7.23
Si  6.22 -1.64 -5.12
Si  7.93  1.33  1.71
Si -3.09 -2.38 -7.23
Si  4.04 -6.94 -1.79
Si  0.53 -4.67 -6.78
Si  1.36  7.94  1.85
Si -6.73 -4.54 -1.59
Si -1.07 -6.37  5.17
Si  7.36 -1.20  3.65
Si -4.19 -6.94 -1.79
Si  7.41  3.44  1.85
Si -8.20 -1.81 -0.27
Si  2.66 -3.53  7.15
Si  4.40  7.19 -0.27
Si  8.26 -1.81 -0.27
Si -6.92  3.30  3.65
Si -5.08 -1.25  6.70
Si -8.06  2.06 -1.79
Si  5.17 -5.71  3.65
Si  5.99  5.83  1.71
Si -5.61 -3.74 -5.25
Si  0.56 -0.60 -8.56
Si -2.76  7.94  1.85
Si  3.56 -7.68  1.71
Si -0.62  7.80  3.65
Si  4.85  0.97  7.15
Si  6.81  0.54  5.38
Si -3.33  4.34 -6.78
Si  1.47 -8.60  0.19
Si -5.52 -0.16 -6.78
Si  3.05 -6.37  5.17
Si  6.08 -6.32 -0.27
Si  7.77 -4.10  0.19
Si -6.35  5.83  1.71
Si -3.75  7.24 -3.31
Si -8.66 -0.03 -1.59
Si -8.54  1.33  1.71
Si  0.12 -0.50  8.82
Si  4.88  5.04  5.38
Si  8.41  2.06 -1.79
Si  1.44 -8.12  3.22
Si  0.97 -5.75  6.70
Si -6.27 -6.32 -0.27
Si  1.37  7.14  5.17
Si -8.12 -1.77 -3.31
Si  4.03 -6.14 -5.12
Si  1.17  1.50 -8.76
Si -3.59 -4.67 -6.78
Si -1.30  1.90  8.68
Si -5.87  6.57 -1.79
Si -7.12 -1.87  5.17
Si -2.65 -8.60  0.19
Si -4.20 -6.14 -5.12
Si -5.03  2.12 -7.23
Si  0.64 -2.61  8.68
Si -1.20  5.48  7.15
Si -0.18  8.97 -1.59
Si  7.74 -3.62  3.22
Si -2.67 -8.12  3.22
Si  4.49  7.24 -3.31
Si -1.76  7.37 -5.12
Si -4.67 -7.68  1.71
Si  8.35 -1.77 -3.31
Si  5.34  3.26  6.70
Si -5.36  5.26 -5.25
Si  5.14 -2.38 -7.23
Si -0.68 -9.04 -1.59
Si -7.55  0.76 -5.25
Si -2.75  7.14  5.17
Si  7.16 -5.57  1.85
Si  2.35  7.37 -5.12
Si -3.55 -0.60 -8.56
Si  3.49  7.80  3.65
Si -1.02 -3.01 -8.76
Si  2.82  1.90  8.68
Si  6.74 -3.74 -5.25
Si -2.95  1.50 -8.76
Si -3.14 -5.75  6.70
Si  6.47  6.57 -1.79
Si  6.17 -6.27 -3.31
Si  8.02  4.91  0.19
Si -6.18 -6.27 -3.31
Si  7.42  2.63  5.17
Si  4.90  4.34 -6.78
Si  4.65 -4.67 -6.78
Si  2.91  5.48  7.15
Si -1.37  3.90 -8.56
Si -7.73 -4.18 -3.75
Si  9.34 -1.07  1.85
Si -1.68 -8.69 -3.75
Si -8.69 -4.10  0.19
Si  1.97  9.41  0.19
Si  6.83 -0.16 -6.78
Si -2.14  9.41  0.19
Si -7.48  4.82 -3.75
Si -4.00 -0.50  8.82
Si -3.48 -2.61  8.68
Si -5.18 -6.37  5.17
Si -5.57 -3.53  7.15
Si  3.10 -3.01 -8.76
Si -8.44  4.91  0.19
Si  4.68 -0.60 -8.56
Si  2.44 -8.69 -3.75
Si  0.44 -8.24 -5.25
Si  4.23 -0.50  8.82
Si  2.75  3.90 -8.56
Si  3.44 -9.04 -1.59
Si  5.48  7.94  1.85
Si -4.74  7.80  3.65
Si -1.82  4.00  8.82
Si -9.06  3.44  1.85
Si -7.17 -5.71  3.65
Si -9.11 -1.20  3.65
Si  1.27  6.62 -7.23
Si  3.94  8.97 -1.59
Si  2.30  4.00  8.82
Si  9.95  0.41  0.19
Si  7.27 -1.25  6.70
Si -8.06  2.87 -5.12
Si -8.72 -3.62  3.22
Si -1.16 -6.89 -7.23
Si -4.29  8.97 -1.59
Si -1.62 -5.10 -8.56
Si -1.18  9.32 -3.75
Si  8.00  5.39  3.22
Si -1.67 -8.47  5.38
Si  5.09 -5.75  6.70
Si  6.99  5.26 -5.25
Si -7.72 -3.97  5.38
Si -2.84  6.62 -7.23
Si -7.01  3.26  6.70
Si  4.75 -2.61  8.68
Si  8.40  2.87 -5.12
Si  5.59 -8.60  0.19
Si  2.50 -5.10 -8.56
Si -0.71  7.76  6.70
Si  0.86 -10.07  1.85
Si  0.70  1.45 10.18
Si  2.44 -8.47  5.38
Si  5.28  1.50 -8.76
Si  2.05 -5.00  8.82
Si -2.07 -5.00  8.82
Si  5.56 -8.12  3.22
Si -4.80 -9.04 -1.59
Si -9.66  0.32 -3.75
Si  5.48  7.14  5.17
Si  8.92  0.76 -5.25
Si  8.74 -4.18 -3.75
Si -5.41  1.90  8.68
Si -7.50  0.97  7.15
Si  2.96 -6.89 -7.23
Si -3.68 -8.24 -5.25
Si -5.32  5.48  7.15
Si  6.78 -3.53  7.15
Si  2.94  9.32 -3.75
Si  9.93  0.89  3.22
Si -0.06 10.34  1.71
Si -7.21 -2.38 -7.23
Si -10.13  2.69 -0.27
Si -7.47  5.04  5.38
Si  9.86 -3.17  1.71
Si  7.32  2.12 -7.23
Si -0.82  2.17 -10.28
Si -8.47  5.39  3.22
Si  1.95  9.89  3.22
Si -5.13 -3.01 -8.76
Si  1.11 -2.34 -10.28
Si -2.17  9.89  3.22
Si -10.63  0.41  0.19
Si -0.77  6.00 -8.76
Si -6.87  7.94  1.85
Si -10.24 -2.44 -1.79
Si -7.95  7.19 -0.27
Si -0.44 -0.25 -10.71
Si -5.88  7.37 -5.12
Si -1.48 -3.05 10.18
Si  9.54  3.30  3.65
Si -3.26 -10.07  1.85
Si -9.05  2.63  5.17
Si  0.48 -8.03  7.15
Si 10.34 -2.44 -1.79
Si  4.55 -8.24 -5.25
Si 10.45  2.69 -0.27
Si -1.87 -0.64 10.62
Si  3.41  7.76  6.70
Si  0.89  6.40  8.68
Si -0.22 -10.82 -0.27
Si -3.41  1.45 10.18
Si  9.35 -1.87  5.17
Si  9.74 -4.54 -1.59
Si  8.16 -6.94 -1.79
Si  8.99  4.82 -3.75
Si  2.25 -0.64 10.62
Si -5.49  3.90 -8.56
Si  7.16 -6.37  5.17
Si -1.13 -10.21  3.65
Si -10.05  2.73 -3.31
Si -6.76 -8.60  0.19
Si  2.63 -3.05 10.18
Si -3.01 -2.34 -10.28
Si -7.45  4.34 -6.78
Si -8.31 -6.94 -1.79
Si  7.68 -7.68  1.71
Si -9.31 -5.57  1.85
Si  8.74 -3.97  5.38
Si  3.29  2.17 -10.28
Si -1.17  9.54  5.38
Si  9.99  4.47 -1.59
Si  6.47  7.37 -5.12
Si -9.65  0.54  5.38
Si -6.79 -8.12  3.22
Si -5.80 -8.69 -3.75
Si  0.94  9.77 -5.25
Si  3.35  6.00 -8.76
Si  8.52  7.19 -0.27
Si -10.65  0.89  3.22
Si -6.87  7.14  5.17
Si -7.86  7.24 -3.31
Si  5.39  6.62 -7.23
Si -1.15  8.84 -6.78
Si  6.09  9.41  0.19
Si  0.43 11.07 -1.79
Si  4.06 10.34  1.71
Si  2.99 -10.21  3.65
Si -3.23  6.40  8.68
Si  6.93  1.90  8.68
Si -7.70 -4.67 -6.78
Si -0.13 -10.78 -3.31
Si -4.17 10.34  1.71
Si -5.28 -6.89 -7.23
Si  0.32  3.87 10.62
Si -6.26  9.41  0.19
Si -10.72 -3.17  1.71
Si -1.55 -7.11  8.68
Si -4.83  7.76  6.70
Si  3.68 -0.25 -10.71
Si  2.95  9.54  5.38
Si -7.07  1.50 -8.76
Si -3.64 -8.03  7.15
Si -5.93  4.00  8.82
Si  4.82  1.45 10.18
Si -5.29  9.32 -3.75
Si 10.53  2.73 -3.31
Si  4.97 -10.07  1.85
Si  8.15 -6.14 -5.12
Si  7.03  5.48  7.15
Si -7.26 -5.75  6.70
Si -11.24 -1.07  1.85
Si -9.19 -1.25  6.70
Si  7.61  7.80  3.65
Si -5.74 -5.10 -8.56
Si  9.29 -5.71  3.65
Si -7.67 -0.60 -8.56
Si  3.90 -10.82 -0.27
Si  8.96  0.97  7.15
Si  2.57 -7.11  8.68
Si  6.55 -8.69 -3.75
Si -1.65 -9.17 -6.78
Si  2.96  8.84 -6.78
Si -8.31 -6.14 -5.12
Si -3.18  9.77 -5.25
Si 10.92  0.32 -3.75
Si -10.25 -1.64 -5.12
Si  0.92 -7.51 -8.76
Si -5.79 -8.47  5.38
Si -10.59  4.47 -1.59
Si -4.94  2.17 -10.28
Si  6.42  4.00  8.82
Si  8.99  5.04  5.38
Si  6.86  3.90 -8.56
Si -4.55 -0.25 -10.71
Si 10.33 -1.64 -5.12
Si  1.75  4.25 -10.71
Si -4.33 -10.82 -0.27
Si  2.46 -9.17 -6.78
Si -9.73 -3.74 -5.25
Si -4.88  6.00 -8.76
Si  4.59 -8.03  7.15
Si  8.60  7.24 -3.31
Si  1.86 -11.45 -1.79
Si  7.22 -3.01 -8.76
Si  5.23 -2.34 -10.28
Si -2.37  4.25 -10.71
Si -9.63 -0.16 -6.78
Si -8.79 -7.68  1.71
Si  0.07 -5.14 10.62
Si 10.11  5.83  1.71
Si -2.26 -11.45 -1.79
Si -3.69 11.07 -1.79
Si -1.65 11.70 -0.27
Si  1.50 -4.75 -10.71
Si -7.60 -2.61  8.68
Si -9.14  2.12 -7.23
Si -1.23  5.96 10.18
Si -10.84 -4.54 -1.59
Si  6.17 -5.00  8.82
Si -6.18 -5.00  8.82
Si  7.55 -9.04 -1.59
Si  5.00  6.40  8.68
Si -3.80  3.87 10.62
Si  1.85 -10.64 -5.12
Si  2.47 11.70 -0.27
Si  6.61 -5.10 -8.56
Si  3.98 -10.78 -3.31
Si -3.20 -7.51 -8.76
Si  9.26 -2.38 -7.23
Si  6.56 -8.47  5.38
Si -8.12 -0.50  8.82
Si 10.20 -6.32 -0.27
Si -2.62 -4.75 -10.71
Si -5.60 -3.05 10.18
Si  8.76 -4.67 -6.78
Si -2.27 -10.64 -5.12
Si  0.81  8.41 -8.56
Si -6.96  6.62 -7.23
Si 11.92 -0.03 -1.59
Si  9.46  3.26  6.70
Si  6.06  9.89  3.22
Si -5.24 -10.21  3.65
Si -9.48  5.26 -5.25
Si -4.25 -10.78 -3.31
Si  0.86 -10.88  5.17
Si  9.01  4.34 -6.78
Si -11.04  3.30  3.65
Si -9.99  6.57 -1.79
Si 11.47 -1.20  3.65
Si  4.54 11.07 -1.79
Si -10.47  5.83  1.71
Si  4.43  3.87 10.62
Si  2.89  5.96 10.18
Si  8.35 -0.50  8.82
Si -6.29  9.89  3.22
Si -10.38 -6.32 -0.27
Si -5.29  9.54  5.38
Si  8.05  8.97 -1.59
Si 11.53  3.44  1.85
Si  5.05  9.77 -5.25
Si 10.93  0.54  5.38
Si -5.98 -0.64 10.62
Si  0.12 -1.30 12.14
Si 12.04  1.33  1.71
Si  7.07 -6.89 -7.23
Si  0.37  8.51  8.82
Si  7.05  9.32 -3.75
Si  8.80 -0.60 -8.56
Si -1.56 11.74 -3.31
Si -1.21 -10.25  6.70
Si  0.98  9.98  7.15
Si -1.02 -2.20 -12.08
Si -5.27  8.84 -6.78
Si  1.36  6.67 -10.28
Si  1.68  0.19 -12.22
Si  1.16  2.30 -12.08
Si -8.86  7.80  3.65
Si  1.38 -12.18  1.71
Si  6.37 -0.64 10.62
Si -1.07 -6.84 -10.28
Si -8.41  8.97 -1.59
Si -9.30 -6.37  5.17
