500
set: 629.00  0.00  0.00
Si  0.46 -1.07  0.87
Si -0.46  1.07 -0.87
Si  1.35  1.09  0.87
Si -1.35 -1.09 -0.87
Si  2.39 -1.09 -0.87
Si -2.39  1.09  0.87
Si  1.04 -0.26 -2.73
Si -1.04  0.26  2.73
Si  0.42  3.23 -0.87
Si -0.42 -3.23  0.87
Si -3.27 -1.07  0.87
Si  3.27  1.07 -0.87
Si  0.15 -2.42 -2.73
Si -0.15  2.42  2.73
Si -1.50  3.25  0.87
Si  1.50 -3.25 -0.87
Si -1.81  1.89 -2.73
Si  1.81 -1.89  2.73
Si  1.93  1.89 -2.73
Si -1.93 -1.89  2.73
Si -2.70 -0.26 -2.73
Si  2.70  0.26  2.73
Si  2.23  3.25  0.87
Si -2.23 -3.25 -0.87
Si -4.20  1.07 -0.87
Si  4.20 -1.07  0.87
Si  0.77  0.29  4.46
Si -0.77 -0.29 -4.46
Si -3.31  3.23 -0.87
Si  3.31 -3.23  0.87
Si  0.11  1.87 -4.46
Si -0.11 -1.87  4.46
Si  0.92 -4.05  2.73
Si -0.92  4.05 -2.73
Si -3.58 -2.42 -2.73
Si  3.58  2.42  2.73
Si  5.08  1.09  0.87
Si -5.08 -1.09 -0.87
Si  3.89 -2.42 -2.73
Si -3.89  2.42  2.73
Si -4.16 -3.23  0.87
Si  4.16  3.23 -0.87
Si -1.66 -2.44 -4.46
Si  1.66  2.44  4.46
Si  2.96 -0.29 -4.46
Si -2.96  0.29  4.46
Si -0.73 -4.58 -2.73
Si  0.73  4.58  2.73
Si  2.08 -2.44 -4.46
Si -2.08  2.44  4.46
Si  4.77 -0.26 -2.73
Si -4.77  0.26  2.73
Si  0.61 -5.40 -0.87
Si -0.61  5.40  0.87
Si  1.31  5.38 -0.87
Si -1.31 -5.38  0.87
Si -2.81 -4.05  2.73
Si  2.81  4.05 -2.73
Si -2.43  5.38 -0.87
Si  2.43 -5.38  0.87
Si -3.62  1.87 -4.46
Si  3.62 -1.87  4.46
Si  1.00  4.03 -4.46
Si -1.00 -4.03  4.46
Si  3.00 -4.58 -2.73
Si -3.00  4.58  2.73
Si -3.85 -1.87  4.46
Si  3.85  1.87 -4.46
Si  5.24 -3.25 -0.87
Si -5.24  3.25  0.87
Si -6.12  1.09  0.87
Si  6.12 -1.09 -0.87
Si  3.12  5.40  0.87
Si -3.12 -5.40 -0.87
Si -4.51 -0.29 -4.46
Si  4.51  0.29  4.46
Si -5.54  1.89 -2.73
Si  5.54 -1.89  2.73
Si  1.19 -4.60 -4.46
Si -1.19  4.60  4.46
Si -1.61 -0.54  6.32
Si  1.61  0.54 -6.32
Si  5.66  1.89 -2.73
Si -5.66 -1.89  2.73
Si  0.73 -1.62 -6.32
Si -0.73  1.62  6.32
Si -2.74  4.03 -4.46
Si  2.74 -4.03  4.46
Si  2.12 -0.54  6.32
Si -2.12  0.54 -6.32
Si  4.66 -4.05  2.73
Si -4.66  4.05 -2.73
Si  0.04 -6.21  2.73
Si -0.04  6.21 -2.73
Si -5.97 -3.25 -0.87
Si  5.97  3.25  0.87
Si -2.55 -4.60 -4.46
Si  2.55  4.60  4.46
Si  4.47  4.58  2.73
Si -4.47 -4.58 -2.73
Si -1.23  2.70 -6.32
Si  1.23 -2.70  6.32
Si -4.35  5.40  0.87
Si  4.35 -5.40 -0.87
Si -6.43 -0.26 -2.73
Si  6.43  0.26  2.73
Si -7.01 -1.07  0.87
Si  7.01  1.07 -0.87
Si  3.01  1.62  6.32
Si -3.01 -1.62 -6.32
Si  2.50  2.70 -6.32
Si -2.50 -2.70  6.32
Si -0.16 -3.77 -6.32
Si  0.16  3.77  6.32
Si  5.39  2.44  4.46
Si -5.39 -2.44 -4.46
Si  5.04  5.38 -0.87
Si -5.04 -5.38  0.87
Si  1.62  6.74  2.73
Si -1.62 -6.74 -2.73
Si -2.12  6.74  2.73
Si  2.12 -6.74 -2.73
Si  0.27  7.56  0.87
Si -0.27 -7.56 -0.87
Si  4.73  4.03 -4.46
Si -4.73 -4.03  4.46
Si -5.81  2.44  4.46
Si  5.81 -2.44 -4.46
Si  3.70  6.21 -2.73
Si -3.70 -6.21  2.73
Si  1.54 -7.54  0.87
Si -1.54  7.54 -0.87
Si -3.77  6.21 -2.73
Si  3.77 -6.21  2.73
Si  7.05 -3.23  0.87
Si -7.05  3.23 -0.87
Si -1.85  6.19 -4.46
Si  1.85 -6.19  4.46
Si -1.89 -6.19  4.46
Si  1.89  6.19 -4.46
Si -2.20 -7.54  0.87
Si  2.20  7.54 -0.87
Si -4.46  1.62  6.32
Si  4.46 -1.62 -6.32
Si -0.35  4.86 -6.32
Si  0.35 -4.86  6.32
Si -6.70  0.29  4.46
Si  6.70 -0.29 -4.46
Si  7.93 -1.07  0.87
Si -7.93  1.07 -0.87
Si -0.20  0.52 -8.05
Si  0.20 -0.52  8.05
Si  4.92 -4.60 -4.46
Si -4.92  4.60  4.46
Si  0.30 -6.76 -4.46
Si -0.30  6.76  4.46
Si  6.55  4.05 -2.73
Si -6.55 -4.05  2.73
Si -7.32 -2.42 -2.73
Si  7.32  2.42  2.73
Si -3.58  3.77  6.32
Si  3.58 -3.77 -6.32
Si -6.16  5.38 -0.87
Si  6.16 -5.38  0.87
Si  1.08  1.64  8.05
Si -1.08 -1.64 -8.05
Si -5.35 -0.54  6.32
Si  5.35  0.54 -6.32
Si -3.89 -3.77 -6.32
Si  3.89  3.77  6.32
Si -3.46  7.56  0.87
Si  3.46 -7.56 -0.87
Si -7.62  2.42  2.73
Si  7.62 -2.42 -2.73
Si -4.97  2.70 -6.32
Si  4.97 -2.70  6.32
Si  0.69  2.67 -8.05
Si -0.69 -2.67  8.05
Si -7.89 -3.23  0.87
Si  7.89  3.23 -0.87
Si  6.74 -4.58 -2.73
Si -6.74  4.58  2.73
Si -4.01 -7.56 -0.87
Si  4.01  7.56  0.87
Si  5.86 -0.54  6.32
Si -5.86  0.54 -6.32
Si -2.65  1.64  8.05
Si  2.65 -1.64 -8.05
Si  3.39  4.86 -6.32
Si -3.39 -4.86  6.32
Si -1.04 -5.93 -6.32
Si  1.04  5.93  6.32
Si  6.86  5.40  0.87
Si -6.86 -5.40 -0.87
Si -3.43 -6.76 -4.46
Si  3.43  6.76  4.46
Si -7.36  1.87 -4.46
Si  7.36 -1.87  4.46
Si  3.54  0.52 -8.05
Si -3.54 -0.52  8.05
Si -6.47  4.03 -4.46
Si  6.47 -4.03  4.46
Si  0.85  8.37 -2.73
Si -0.85 -8.37  2.73
Si  8.82  1.09  0.87
Si -8.82 -1.09 -0.87
Si -8.51  0.26  2.73
Si  8.51 -0.26 -2.73
Si  4.08 -4.86  6.32
Si -4.08  4.86 -6.32
Si  6.28  4.60  4.46
Si -6.28 -4.60 -4.46
Si  3.93 -0.52  8.05
Si -3.93  0.52 -8.05
Si -7.58 -1.87  4.46
Si  7.58  1.87 -4.46
Si  3.05 -2.67  8.05
Si -3.05  2.67 -8.05
Si  5.36  6.74  2.73
Si -5.36 -6.74 -2.73
Si -4.04  6.76  4.46
Si  4.04 -6.76 -4.46
Si -1.76  3.80  8.05
Si  1.76 -3.80 -8.05
Si -2.69  5.93  6.32
Si  2.69 -5.93 -6.32
Si  1.97  3.80  8.05
Si -1.97 -3.80 -8.05
Si -5.28  7.54 -0.87
Si  5.28 -7.54  0.87
Si  2.89 -8.37  2.73
Si -2.89  8.37 -2.73
Si -6.24 -2.70  6.32
Si  6.24  2.70 -6.32
Si  5.85 -6.74 -2.73
Si -5.85  6.74  2.73
Si  8.24  0.29  4.46
Si -8.24 -0.29 -4.46
Si -6.74 -1.62 -6.32
Si  6.74  1.62  6.32
Si  1.23 -8.89 -2.73
Si -1.23  8.89  2.73
Si  5.58 -6.19  4.46
Si -5.58  6.19 -4.46
Si -0.54 -7.01  6.32
Si  0.54  7.01 -6.32
Si  5.62  6.19 -4.46
Si -5.62 -6.19  4.46
Si  0.96 -8.34  4.46
Si -0.96  8.34 -4.46
Si -1.57 -4.83  8.05
Si  1.57  4.83 -8.05
Si  4.82  1.64  8.05
Si -4.82 -1.64 -8.05
Si  4.42  2.67 -8.05
Si -4.42 -2.67  8.05
Si -8.97  3.25  0.87
Si  8.97 -3.25 -0.87
Si -5.93 -7.54  0.87
Si  5.93  7.54 -0.87
Si  2.51  8.89  2.73
Si -2.51 -8.89 -2.73
Si -2.16  4.83 -8.05
Si  2.16 -4.83  8.05
Si  8.39 -4.05  2.73
Si -8.39  4.05 -2.73
Si  0.65 -9.70  0.87
Si -0.65  9.70 -0.87
Si  8.08 -5.40 -0.87
Si -8.08  5.40  0.87
Si -8.20 -4.58 -2.73
Si  8.20  4.58  2.73
Si -1.16 -9.72 -0.87
Si  1.16  9.72  0.87
Si -9.28  1.89 -2.73
Si  9.28 -1.89  2.73
Si  2.77  8.34 -4.46
Si -2.77 -8.34  4.46
Si  4.78  5.93  6.32
Si -4.78 -5.93 -6.32
Si -4.58 -8.37  2.73
Si  4.58  8.37 -2.73
Si  9.86 -1.09 -0.87
Si -9.86  1.09  0.87
Si -9.40 -1.89  2.73
Si  9.40  1.89 -2.73
Si -3.20  7.01 -6.32
Si  3.20 -7.01  6.32
Si -0.58 -8.91 -4.46
Si  0.58  8.91  4.46
Si -1.30  0.81  9.91
Si  1.30 -0.81 -9.91
Si -0.88  5.95  8.05
Si  0.88 -5.95 -8.05
Si -7.43 -6.21  2.73
Si  7.43  6.21 -2.73
Si -2.58  9.72  0.87
Si  2.58 -9.72 -0.87
Si -7.51  6.21 -2.73
Si  7.51 -6.21  2.73
Si  1.54 -1.34  9.91
Si -1.54  1.34 -9.91
Si  3.08  9.70 -0.87
Si -3.08 -9.70  0.87
Si  2.43  0.81  9.91
Si -2.43 -0.81 -9.91
Si -2.19 -1.34  9.91
Si  2.19  1.34 -9.91
Si  9.71  3.25  0.87
Si -9.71 -3.25 -0.87
Si -8.78 -5.38  0.87
Si  8.78  5.38 -0.87
Si  0.42 -2.97 -9.91
Si -0.42  2.97  9.91
Si -4.27 -7.01  6.32
Si  4.27  7.01 -6.32
Si -7.31  3.77  6.32
Si  7.31 -3.77 -6.32
Si -8.47 -4.03  4.46
Si  8.47  4.03 -4.46
Si  6.39 -1.64 -8.05
Si -6.39  1.64  8.05
Si -2.86 -5.95 -8.05
Si  2.86  5.95  8.05
Si -1.80  8.09  6.32
Si  1.80 -8.09 -6.32
Si  1.93  8.09  6.32
Si -1.93 -8.09 -6.32
Si  9.13  2.44  4.46
Si -9.13 -2.44 -4.46
Si  3.15 -8.91 -4.46
Si -3.15  8.91  4.46
Si -5.50  3.80  8.05
Si  5.50 -3.80 -8.05
Si  7.20 -7.56 -0.87
Si -7.20  7.56  0.87
Si -8.20  1.62  6.32
Si  8.20 -1.62 -6.32
Si -10.17 -0.26 -2.73
Si 10.17  0.26  2.73
Si  0.66 -3.50  9.91
Si -0.66  3.50 -9.91
Si -4.96  8.89  2.73
Si  4.96 -8.89 -2.73
Si -4.70  8.34 -4.46
Si  4.70 -8.34  4.46
Si -5.71 -3.80 -8.05
Si  5.71  3.80  8.05
Si -7.63 -3.77 -6.32
Si  7.63  3.77  6.32
Si  4.39 -9.70  0.87
Si -4.39  9.70 -0.87
Si -7.12 -4.86  6.32
Si  7.12  4.86 -6.32
Si  1.27 -6.99  8.05
Si -1.27  6.99 -8.05
Si -8.66  4.60  4.46
Si  8.66 -4.60 -4.46
Si  5.31  4.83 -8.05
Si -5.31 -4.83  8.05
Si -6.43  5.93  6.32
Si  6.43 -5.93 -6.32
Si  7.17  6.76  4.46
Si -7.17 -6.76 -4.46
Si -9.55  2.44  4.46
Si  9.55 -2.44 -4.46
Si 10.74  1.07 -0.87
Si -10.74 -1.07  0.87
Si  7.74  7.56  0.87
Si -7.74 -7.56 -0.87
Si  6.78 -2.67  8.05
Si -6.78  2.67 -8.05
Si  7.27  0.52 -8.05
Si -7.27 -0.52  8.05
Si  4.32  8.91  4.46
Si -4.32 -8.91 -4.46
Si  3.32  2.97  9.91
Si -3.32 -2.97 -9.91
Si  4.89  9.72  0.87
Si -4.89 -9.72 -0.87
Si  2.46  6.99 -8.05
Si -2.46 -6.99  8.05
Si -3.08 -3.50  9.91
Si  3.08  3.50 -9.91
Si  1.74 10.52 -2.73
Si -1.74 -10.52  2.73
Si  6.62 -8.37  2.73
Si -6.62  8.37 -2.73
Si  4.61 -5.95 -8.05
Si -4.61  5.95  8.05
Si  2.00 -10.52  2.73
Si -2.00 10.52 -2.73
Si  9.09  0.54 -6.32
Si -9.09 -0.54  6.32
Si  5.89 -4.83  8.05
Si -5.89  4.83 -8.05
Si -8.71  2.70 -6.32
Si  8.71 -2.70  6.32
Si -7.67  0.52 -8.05
Si  7.67 -0.52  8.05
Si  5.04 -0.81 -9.91
Si -5.04  0.81  9.91
Si  4.15 -2.97 -9.91
Si -4.15  2.97  9.91
Si  7.82 -4.86  6.32
Si -7.82  4.86 -6.32
Si -0.47 -5.13 -9.91
Si  0.47  5.13  9.91
Si -6.24 -8.89 -2.73
Si  6.24  8.89  2.73
Si -7.77  6.76  4.46
Si  7.77 -6.76 -4.46
Si -1.42 -9.17  6.32
Si  1.42  9.17 -6.32
Si -10.78  3.23 -0.87
Si 10.78 -3.23  0.87
Si -9.90  5.38 -0.87
Si  9.90 -5.38  0.87
Si  5.28 -1.34  9.91
Si -5.28  1.34 -9.91
Si -10.43  0.29  4.46
Si 10.43 -0.29 -4.46
Si  2.31 -9.17  6.32
Si -2.31  9.17 -6.32
Si 10.28  4.05 -2.73
Si -10.28 -4.05  2.73
Si  0.34 -11.05 -2.73
Si -0.34 11.05  2.73
Si -4.39  3.50 -9.91
Si  4.39 -3.50  9.91
Si  0.08 -10.50  4.46
Si -0.08 10.50 -4.46
Si -0.23 -5.66  9.91
Si  0.23  5.66 -9.91
Si  0.01  8.11  8.05
Si -0.01 -8.11 -8.05
Si -6.51 -8.34  4.46
Si  6.51  8.34 -4.46
Si  9.59 -0.54  6.32
Si -9.59  0.54 -6.32
Si -6.31  9.72  0.87
Si  6.31 -9.72 -0.87
Si  5.93  1.34 -9.91
Si -5.93 -1.34  9.91
Si  3.27 -5.13 -9.91
Si -3.27  5.13  9.91
Si  9.09  6.74  2.73
Si -9.09 -6.74 -2.73
Si -11.05 -2.42 -2.73
Si 11.05  2.42  2.73
Si  5.54 -8.09 -6.32
Si -5.54  8.09  6.32
Si -0.51 -0.84 -11.65
Si  0.51  0.84 11.65
Si  6.17  0.81  9.91
Si -6.17 -0.81 -9.91
Si  6.93 -7.01  6.32
Si -6.93  7.01 -6.32
Si  5.67  8.09  6.32
Si -5.67 -8.09 -6.32
Si  0.38  1.32 -11.65
Si -0.38 -1.32 11.65
Si 11.67 -1.07  0.87
Si -11.67  1.07 -0.87
Si 10.47 -4.58 -2.73
Si -10.47  4.58  2.73
Si -8.16 -2.67  8.05
Si  8.16  2.67 -8.05
Si  9.01 -7.54  0.87
Si -9.01  7.54 -0.87
Si  5.01 -6.99  8.05
Si -5.01  6.99 -8.05
Si -10.21  4.03 -4.46
Si 10.21 -4.03  4.46
Si -8.55 -1.64 -8.05
Si  8.55  1.64  8.05
Si  3.39 11.05  2.73
Si -3.39 -11.05 -2.73
Si -6.82 -9.70  0.87
Si  6.82  9.70 -0.87
Si -0.23 -11.85  0.87
Si  0.23 11.85 -0.87
Si 10.02  4.60  4.46
Si -10.02 -4.60 -4.46
Si 10.59  5.40  0.87
Si -10.59 -5.40 -0.87
Si -4.20 -5.13 -9.91
Si  4.20  5.13  9.91
Si 11.36 -2.42 -2.73
Si -11.36  2.42  2.73
Si -3.51  5.66 -9.91
Si  3.51 -5.66  9.91
Si  3.66 10.50 -4.46
Si -3.66 -10.50  4.46
Si -6.59 -5.95 -8.05
Si  6.59  5.95  8.05
Si  3.73 -8.11 -8.05
Si -3.73  8.11  8.05
Si  1.47 11.07  4.46
Si -1.47 -11.07 -4.46
