500
set: 1155.00  0.00  0.00
Si -0.09 -0.04 -0.02
Si  0.03 -0.01 -2.35
Si  0.05 -0.01  2.37
Si -1.27 -2.12 -0.02
Si  1.23  2.14  0.05
Si  2.51  0.01  0.00
Si  1.23 -2.19  0.01
Si -1.26  2.21 -0.01
Si -2.54  0.00  0.02
Si -1.23  2.13  2.34
Si  1.21  2.15  2.38
Si  1.29  2.14 -2.35
Si -1.25 -2.19  2.35
Si  2.51 -0.05 -2.37
Si  1.29 -2.19 -2.34
Si -2.54  0.02  2.36
Si  2.52 -0.05  2.38
Si  1.24 -2.21  2.37
Si -2.50 -0.05 -2.40
Si -1.25 -2.19 -2.40
Si -1.25  2.18 -2.45
Si -0.00 -4.29 -0.00
Si  3.73 -2.15  0.01
Si -3.75  2.24 -0.01
Si -0.04  4.37  0.03
Si -3.80 -2.16  0.00
Si  3.81  2.15 -0.05
Si -0.02 -0.03 -4.71
Si -0.02 -0.03  4.76
Si -0.05 -4.27 -2.37
Si  0.05  4.32 -2.33
Si  3.75  2.15  2.35
Si -3.69  2.21  2.39
Si  3.75 -2.15  2.38
Si -3.77 -2.13 -2.38
Si  2.48  4.28 -0.01
Si -3.79 -2.14  2.35
Si  0.05  4.32  2.42
Si  3.76  2.16 -2.40
Si  3.77 -2.21 -2.35
Si -3.80  2.13 -2.39
Si -0.04 -4.38  2.34
Si -4.99  0.07  0.00
Si  2.51 -4.34 -0.01
Si -2.51  4.35 -0.01
Si  5.04  0.07  0.00
Si -2.53 -4.41 -0.01
Si -1.15  2.22  4.68
Si -2.52  0.04  4.69
Si  2.47  0.04  4.72
Si  1.28  2.14 -4.72
Si  1.24 -2.22 -4.70
Si  2.47  0.04 -4.75
Si  1.28  2.14  4.75
Si -1.32 -2.19 -4.73
Si -1.32 -2.19  4.74
Si -2.52  0.04 -4.78
Si -1.15  2.22 -4.79
Si  1.24 -2.22  4.77
Si -4.97  0.01 -2.30
Si -2.44  4.32  2.38
Si  2.44  4.34 -2.37
Si -2.51  4.30 -2.37
Si  4.99  0.02  2.38
Si -2.50 -4.33  2.37
Si  5.05  0.01 -2.30
Si  2.52  4.36  2.37
Si -2.57 -4.34 -2.37
Si -5.04  0.02  2.38
Si  2.50 -4.38 -2.37
Si  2.58 -4.37  2.38
Si  3.73 -2.14 -4.73
Si  3.73 -2.14  4.74
Si  0.01 -4.33  4.71
Si -3.70  2.22 -4.73
Si -3.77 -2.13  4.72
Si -3.70  2.22  4.74
Si -3.77 -2.13 -4.75
Si  0.01 -4.33 -4.76
Si  3.78  2.17 -4.73
Si  0.04  4.39 -4.71
Si  3.78  2.17  4.74
Si  0.04  4.39  4.76
Si  1.27 -6.45 -0.01
Si -6.22  2.15 -0.05
Si  4.98 -4.32  0.03
Si  6.23 -2.16  0.00
Si  1.21  6.52  0.00
Si -5.05 -4.32  0.03
Si -1.20 -6.54 -0.05
Si -6.30 -2.15  0.01
Si -1.29  6.53  0.01
Si  5.01  4.39 -0.00
Si  6.28  2.24 -0.01
Si -5.02  4.39 -0.00
Si -2.48  4.30 -4.73
Si  5.00  0.01 -4.70
Si -2.48  4.30  4.74
Si -2.50 -4.33  4.72
Si -5.03  0.01 -4.70
Si  2.51  4.35  4.72
Si -2.50 -4.33 -4.75
Si  5.00  0.01  4.77
Si  2.51  4.35 -4.75
Si  2.54 -4.38 -4.73
Si -5.03  0.01  4.77
Si  2.54 -4.38  4.74
Si  4.98  4.30  2.34
Si -1.24  6.47 -2.35
Si  6.24 -2.14  2.35
Si -4.96 -4.36 -2.33
Si  6.23  2.13 -2.39
Si  1.32 -6.47  2.39
Si  6.26 -2.13 -2.38
Si -5.05  4.30  2.34
Si -6.25 -2.21 -2.35
Si -4.97 -4.37  2.42
Si -6.28  2.15  2.35
Si -6.28 -2.15  2.38
Si -6.27  2.16 -2.40
Si  4.97  4.41 -2.37
Si -1.27 -6.53  2.35
Si  1.23  6.54  2.35
Si -1.25 -6.52 -2.40
Si -1.26  6.54  2.38
Si  1.22 -6.55 -2.39
Si  5.07 -4.36 -2.33
Si  1.25  6.56 -2.38
Si  0.05 -0.01 -7.10
Si  5.06 -4.37  2.42
Si  0.03 -0.01  7.12
Si -5.06  4.41 -2.37
Si  6.34  2.21  2.39
Si -1.25  2.18  7.02
Si  7.49  0.00  0.02
Si  3.76 -6.48 -0.01
Si -2.50 -0.05  7.07
Si  1.21  2.15 -7.09
Si -1.25 -2.19  7.07
Si -3.79  6.50  0.01
Si -7.52  0.01  0.00
Si  2.52 -0.05 -7.10
Si  2.51 -0.05  7.11
Si  1.24 -2.21 -7.11
Si -1.23  2.13 -7.13
Si  1.29  2.14  7.12
Si -1.25 -2.19 -7.12
Si -2.54  0.02 -7.11
Si -3.78 -6.54  0.05
Si  3.74  6.57 -0.02
Si  1.29 -2.19  7.13
Si -3.73  6.49 -2.34
Si  7.49  0.02  2.36
Si -3.77  6.48  2.37
Si  3.77  6.50  2.35
Si -7.51 -0.05  2.38
Si  3.77  6.49 -2.40
Si -7.52 -0.05 -2.37
Si -3.72 -6.54 -2.35
Si  3.76 -6.50 -2.45
Si  7.53 -0.05 -2.40
Si  3.78 -6.55  2.34
Si -3.80 -6.54  2.38
Si -4.98 -4.30 -4.71
Si -4.98 -4.30  4.76
Si  1.31 -6.46 -4.73
Si  1.31 -6.46  4.74
Si  6.26 -2.13  4.72
Si -6.25  2.17 -4.73
Si -6.25  2.17  4.74
Si -5.00  4.35  4.71
Si  5.05 -4.30 -4.71
Si  6.26 -2.13 -4.75
Si -1.23 -6.52 -4.73
Si -1.23 -6.52  4.74
Si  5.03  4.35  4.71
Si -5.00  4.35 -4.76
Si  5.05 -4.30  4.76
Si -6.30 -2.14 -4.73
Si -6.30 -2.14  4.74
Si -1.29  6.54 -4.73
Si  1.24  6.55  4.72
Si  5.03  4.35 -4.76
Si -1.29  6.54  4.74
Si  1.24  6.55 -4.75
Si  6.33  2.22 -4.73
Si  6.33  2.22  4.74
Si  0.05  4.32 -7.05
Si -3.69  2.21 -7.08
Si -0.05 -4.27  7.10
Si  3.76  2.16  7.07
Si  3.75 -2.15 -7.09
Si -3.77 -2.13  7.09
Si -3.80  2.13  7.08
Si  3.75  2.15 -7.12
Si -3.79 -2.14 -7.12
Si  0.05  4.32  7.14
Si  3.77 -2.21  7.12
Si -0.04 -4.38 -7.13
Si  0.03 -8.62  0.00
Si -2.44  4.32 -7.09
Si  4.99  0.02 -7.09
Si -2.51  4.30  7.10
Si -7.55  4.28 -0.01
Si  2.44  4.34  7.11
Si -2.50 -4.33 -7.10
Si -7.52 -4.34 -0.01
Si  7.52  4.35 -0.01
Si  7.50 -4.41 -0.01
Si -5.04  0.02 -7.09
Si  2.52  4.36 -7.10
Si  2.50 -4.38  7.10
Si  2.58 -4.37 -7.09
Si -2.57 -4.34  7.11
Si -4.97  0.01  7.17
Si  0.03  8.75  0.00
Si  5.05  0.01  7.17
Si -3.78  6.46 -4.70
Si  3.69  6.49 -4.73
Si  3.69  6.49  4.74
Si  7.51  0.04  4.69
Si  3.86 -6.47  4.68
Si -3.78  6.46  4.77
Si -3.73 -6.54 -4.72
Si -3.73 -6.54  4.75
Si  7.51  0.04 -4.78
Si -7.56  0.04  4.72
Si  3.86 -6.47 -4.79
Si -7.56  0.04 -4.75
Si  7.46 -4.34 -2.37
Si -7.45 -4.37  2.38
Si  0.04 -8.68 -2.30
Si  7.51  4.30 -2.37
Si -0.03 -8.66  2.38
Si  0.04  8.69 -2.30
Si -7.51  4.36  2.37
Si  7.53 -4.33  2.37
Si  8.76 -2.12 -0.02
Si  6.24  6.50  0.01
Si -6.27 -6.48 -0.01
Si -0.03  8.71  2.38
Si -7.53 -4.38 -2.37
Si  2.48 -8.68  0.02
Si -2.51 -8.68  0.00
Si  2.47  8.69  0.02
Si  8.77  2.21 -0.01
Si  6.25 -6.54  0.05
Si -2.51  8.70  0.00
Si  7.59  4.32  2.38
Si -8.79  2.14  0.05
Si -7.59  4.34 -2.37
Si -8.80 -2.19  0.01
Si -6.29  6.57 -0.02
Si -2.49  8.63  2.38
Si -2.50  8.63 -2.37
Si -8.74  2.14 -2.35
Si  2.51  8.63 -2.40
Si  6.26  6.48  2.37
Si  2.48 -8.66  2.36
Si -8.74 -2.19 -2.34
Si -6.26  6.50  2.35
Si -6.26  6.49 -2.40
Si  6.23 -6.54  2.38
Si  6.30  6.49 -2.34
Si  8.80  2.13  2.34
Si -6.25 -6.55  2.34
Si  8.78 -2.19  2.35
Si  2.47  8.71  2.36
Si -6.26 -6.50 -2.45
Si -8.79 -2.21  2.37
Si  8.78 -2.19 -2.40
Si  8.78  2.18 -2.45
Si -8.82  2.15  2.38
Si  6.31 -6.54 -2.35
Si -2.50 -8.73 -2.37
Si -2.49 -8.74  2.38
Si  2.52 -8.74 -2.40
Si -0.09 -0.04  9.45
Si -0.09 -0.04 -9.49
Si -4.97 -4.37 -7.05
Si  6.23  2.13  7.08
Si  1.32 -6.47 -7.08
Si -6.27  2.16  7.07
Si -1.25 -6.52  7.07
Si  4.98  4.30 -7.13
Si -1.24  6.47  7.12
Si  6.26 -2.13  7.09
Si  6.24 -2.14 -7.12
Si -6.28 -2.15 -7.09
Si  5.06 -4.37 -7.05
Si  1.22 -6.55  7.08
Si  4.97  4.41  7.10
Si -4.96 -4.36  7.14
Si -1.26  6.54 -7.09
Si -6.25 -2.21  7.12
Si -6.28  2.15 -7.12
Si  1.23  2.14 -9.42
Si -5.05  4.30 -7.13
Si  1.25  6.56  7.09
Si -1.27 -6.53 -7.12
Si  1.23  6.54 -7.12
Si  6.34  2.21 -7.08
Si -1.27 -2.12  9.45
Si -5.06  4.41  7.10
Si  5.07 -4.36  7.14
Si -2.54  0.00 -9.45
Si  1.23 -2.19 -9.46
Si  2.51  0.01 -9.47
Si  2.51  0.01  9.47
Si -1.26  2.21  9.46
Si -1.27 -2.12 -9.49
Si  1.23 -2.19  9.48
Si -1.26  2.21 -9.48
Si -2.54  0.00  9.49
Si  1.23  2.14  9.52
Si -0.01 -8.68 -4.70
Si -0.01  8.69 -4.70
Si  7.53 -4.33  4.72
Si -7.49 -4.38 -4.73
Si -7.52  4.35  4.72
Si  7.55  4.30 -4.73
Si -7.49 -4.38  4.74
Si  7.53 -4.33 -4.75
Si  7.55  4.30  4.74
Si -0.01 -8.68  4.77
Si -7.52  4.35 -4.75
Si -0.01  8.69  4.77
Si  9.94 -0.04 -0.02
Si  4.93  8.65 -0.02
Si  4.93 -8.72 -0.02
Si -5.10  8.65 -0.02
Si -6.17 -6.47  4.68
Si -5.10 -8.72 -0.02
Si -10.11 -0.04 -0.02
Si -6.17 -6.47 -4.79
Si  6.25  6.46 -4.70
Si  2.50 -8.64  4.69
Si  8.71 -2.19 -4.73
Si  8.71 -2.19  4.74
Si -8.75  2.14 -4.72
Si -2.54 -8.65  4.72
Si  6.25  6.46  4.77
Si -8.75  2.14  4.75
Si  2.50 -8.64 -4.78
Si -2.54 -8.65 -4.75
Si -8.79 -2.22 -4.70
Si  2.50  8.73  4.69
Si -6.34  6.49 -4.73
Si  6.30 -6.54 -4.72
Si -6.34  6.49  4.74
Si -2.54  8.72  4.72
Si  6.30 -6.54  4.75
Si -8.79 -2.22  4.77
Si -2.54  8.72 -4.75
Si  2.50  8.73 -4.78
Si -9.98 -0.01  2.37
Si -10.01 -0.01 -2.35
Si  8.88  2.22  4.68
Si -4.97  8.68  2.37
Si -4.99  8.68 -2.35
Si  3.76 -6.50  7.02
Si -4.97 -8.69  2.37
Si -4.99 -8.69 -2.35
Si  5.04  8.68 -2.35
Si  3.77  6.49  7.07
Si  5.04 -8.69 -2.35
Si  5.06  8.68  2.37
Si 10.05 -0.01 -2.35
Si  8.88  2.22 -4.79
Si -3.77  6.48 -7.11
Si  7.53 -0.05  7.07
Si -7.51 -0.05 -7.10
Si  7.49  0.02 -7.11
Si  5.06 -8.69  2.37
Si -3.73  6.49  7.13
Si -7.52 -0.05  7.11
Si  3.77  6.50 -7.12
Si 10.08 -0.01  2.37
Si -3.80 -6.54 -7.09
Si -3.72 -6.54  7.12
Si  3.81  2.15  9.42
Si  3.73 -2.15 -9.46
Si  3.78 -6.55 -7.13
Si -0.00 -4.29  9.47
Si -0.04  4.37 -9.44
Si -0.00 -4.29 -9.47
Si  3.73 -2.15  9.48
Si -3.75  2.24  9.47
Si -3.80 -2.16 -9.47
Si -3.80 -2.16  9.47
Si -3.75  2.24 -9.47
Si -0.04  4.37  9.50
Si  3.81  2.15 -9.52
Si  2.48  4.28  9.46
Si  2.48  4.28 -9.47
Si -4.99  0.07 -9.47
Si -4.99  0.07  9.47
Si  2.51 -4.34  9.46
Si -2.51  4.35  9.46
Si  2.51 -4.34 -9.48
Si -2.51  4.35 -9.48
Si  5.04  0.07 -9.47
Si  5.04  0.07  9.47
Si -2.53 -4.41  9.46
Si -2.53 -4.41 -9.47
Si -8.76 -6.45 -0.01
Si -1.20 10.83 -0.05
Si  9.99  4.37  0.03
Si 10.03 -4.29 -0.00
Si -1.29 -10.84  0.01
Si  8.74  6.53  0.01
Si -10.03 -4.29 -0.00
Si  1.22 -10.85  0.00
Si -8.81  6.52  0.00
Si -10.07  4.37  0.03
Si  8.83 -6.54 -0.05
Si  1.26 10.92 -0.01
Si  4.99  8.66 -4.71
Si 10.01 -0.03 -4.71
Si  4.99  8.66  4.76
Si -5.04  8.66 -4.71
Si 10.01 -0.03  4.76
Si -5.04  8.66  4.76
Si  5.00 -8.71 -4.71
Si -10.05 -0.03 -4.71
Si -5.03 -8.71 -4.71
Si -8.71 -6.47  2.39
Si  5.00 -8.71  4.76
Si  9.98 -4.27 -2.37
Si -10.05 -0.03  4.76
Si -9.98  4.32 -2.33
Si -5.03 -8.71  4.76
Si  1.25 -10.81 -2.38
Si -9.98  4.32  2.42
Si  1.23 -10.82  2.35
Si  1.22 10.82 -2.39
Si  9.99 -4.38  2.34
Si -1.26 -10.83  2.38
Si -1.27 10.84  2.35
Si  8.79  6.47 -2.35
Si -7.46 -4.37 -7.09
Si  8.76 -6.53  2.35
Si  7.46 -4.34  7.11
Si -1.25 10.85 -2.40
Si  8.77  6.54  2.38
Si -0.03 -8.66 -7.09
Si  8.78 -6.52 -2.40
Si -10.08 -4.27 -2.37
Si  7.51  4.30  7.10
Si 10.08  4.32 -2.33
Si -8.78  6.56 -2.38
Si -8.80  6.54  2.35
Si -1.24 -10.90 -2.35
Si -7.51  4.36 -7.10
Si  7.53 -4.33 -7.10
Si 10.07  4.32  2.42
Si -0.03  8.71 -7.09
Si -10.07 -4.38  2.34
Si  1.32 10.90  2.39
Si -8.81 -6.55 -2.39
Si -7.53 -4.38  7.10
Si  7.59  4.32 -7.09
Si  0.04 -8.68  7.17
Si -7.59  4.34  7.11
Si  0.04  8.69  7.17
Si  3.75 -10.80 -0.02
Si -6.26 -6.50  7.02
Si  2.51  8.63  7.07
Si -2.49  8.63 -7.10
Si  8.78  2.18  7.02
Si -2.50  8.63  7.11
Si -6.26  6.49  7.07
Si 11.26  2.14  0.05
Si -3.78 10.83  0.05
Si 11.26 -2.19  0.01
Si  6.26  6.48 -7.11
Si -8.74  2.14  7.12
Si  6.23 -6.54 -7.09
Si  2.48 -8.66 -7.11
Si  7.52 -8.68  0.00
Si -6.22  2.15  9.42
Si  8.78 -2.19  7.07
Si -8.74 -2.19  7.13
Si -6.26  6.50 -7.12
Si  7.52  8.70  0.00
Si -11.30 -2.12 -0.02
Si -11.29  2.21 -0.01
Si -7.55 -8.68  0.02
Si  4.98 -4.32 -9.44
Si -3.78 -10.87  0.01
Si -8.79 -2.21 -7.11
Si  2.47  8.71 -7.11
Si -7.56  8.69  0.02
Si -8.82  2.15 -7.09
Si  8.78 -2.19 -7.12
Si  6.30  6.49  7.13
Si  2.52 -8.74  7.07
Si  3.76 10.89 -0.01
Si  1.27 -6.45  9.47
Si  8.80  2.13 -7.13
