500
set: 80.00  0.00  0.00
Si  0.00  0.00  0.00
Si  1.33 -2.01  0.00
Si -1.33  2.01  0.00
Si  0.07 -0.08 -2.45
Si -0.07  0.08  2.45
Si  1.59  2.01  0.00
Si -1.59 -2.01  0.00
Si -2.92  0.00  0.00
Si  2.92  0.00  0.00
Si -1.27  1.93 -2.45
Si  1.27 -1.93  2.45
Si  1.40 -2.09 -2.45
Si -1.40  2.09  2.45
Si -1.66 -1.93  2.45
Si  1.66  1.93 -2.45
Si -1.52 -2.09 -2.45
Si  1.52  2.09  2.45
Si  2.85  0.08  2.45
Si -2.85 -0.08 -2.45
Si  2.99 -0.08 -2.45
Si -2.99  0.08  2.45
Si  0.25  4.02  0.00
Si -0.25 -4.02  0.00
Si -0.32 -3.94  2.45
Si  0.32  3.94 -2.45
Si  4.25 -2.01  0.00
Si -4.25  2.01  0.00
Si -0.19 -4.10 -2.45
Si  0.19  4.10  2.45
Si -2.67  4.02  0.00
Si  2.67 -4.02  0.00
Si -0.13  0.16  4.91
Si  0.13 -0.16 -4.91
Si  4.51  2.01  0.00
Si -4.51 -2.01  0.00
Si  3.17  4.02  0.00
Si -3.17 -4.02  0.00
Si -4.19  1.93 -2.45
Si  4.19 -1.93  2.45
Si  2.60 -3.94  2.45
Si -2.60  3.94 -2.45
Si  1.20 -1.85  4.91
Si -1.20  1.85 -4.91
Si -4.32  2.09  2.45
Si  4.32 -2.09 -2.45
Si -4.44 -2.09 -2.45
Si  4.44  2.09  2.45
Si  2.73 -4.10 -2.45
Si -2.73  4.10  2.45
Si -1.72 -1.85  4.91
Si  1.72  1.85 -4.91
Si  4.58  1.93 -2.45
Si -4.58 -1.93  2.45
Si -1.45 -2.17 -4.91
Si  1.45  2.17  4.91
Si  1.47 -2.17 -4.91
Si -1.47  2.17  4.91
Si  2.79  0.16  4.91
Si -2.79 -0.16 -4.91
Si  3.24  3.94 -2.45
Si -3.24 -3.94  2.45
Si -3.11 -4.10 -2.45
Si  3.11  4.10  2.45
Si  3.06 -0.16 -4.91
Si -3.06  0.16  4.91
Si  5.84  0.00  0.00
Si -5.84  0.00  0.00
Si -1.08  6.03  0.00
Si  1.08 -6.03  0.00
Si -0.39 -3.86  4.91
Si  0.39  3.86 -4.91
Si -5.78 -0.08 -2.45
Si  5.78  0.08  2.45
Si -1.84 -6.03  0.00
Si  1.84  6.03  0.00
Si -5.91  0.08  2.45
Si  5.91 -0.08 -2.45
Si -0.12 -4.18 -4.91
Si  0.12  4.18  4.91
Si -1.01  5.95 -2.45
Si  1.01 -5.95  2.45
Si -4.12  1.85 -4.91
Si  4.12 -1.85  4.91
Si -1.15  6.11  2.45
Si  1.15 -6.11 -2.45
Si -1.91 -5.95  2.45
Si  1.91  5.95 -2.45
Si  2.53 -3.86  4.91
Si -2.53  3.86 -4.91
Si -1.77 -6.11 -2.45
Si  1.77  6.11  2.45
Si -5.59  4.02  0.00
Si  5.59 -4.02  0.00
Si  4.37  2.17  4.91
Si -4.37 -2.17 -4.91
Si  4.39 -2.17 -4.91
Si -4.39  2.17  4.91
Si -4.64 -1.85  4.91
Si  4.64  1.85 -4.91
Si -2.80  4.18  4.91
Si  2.80 -4.18 -4.91
Si  3.31  3.86 -4.91
Si -3.31 -3.86  4.91
Si -3.04 -4.18 -4.91
Si  3.04  4.18  4.91
Si -5.52  3.94 -2.45
Si  5.52 -3.94  2.45
Si  4.00 -6.03  0.00
Si -4.00  6.03  0.00
Si -6.10 -4.02  0.00
Si  6.10  4.02  0.00
Si  0.20 -0.24 -7.36
Si -0.20  0.24  7.36
Si  5.66 -4.10 -2.45
Si -5.66  4.10  2.45
Si -7.18  2.01  0.00
Si  7.18 -2.01  0.00
Si -5.71 -0.16 -4.91
Si  5.71  0.16  4.91
Si -3.93  5.95 -2.45
Si  3.93 -5.95  2.45
Si -1.13  1.77 -7.36
Si  1.13 -1.77  7.36
Si  4.76  6.03  0.00
Si -4.76 -6.03  0.00
Si -6.03 -4.10 -2.45
Si  6.03  4.10  2.45
Si  7.43  2.01  0.00
Si -7.43 -2.01  0.00
Si  0.94 -5.87  4.91
Si -0.94  5.87 -4.91
Si  6.16  3.94 -2.45
Si -6.16 -3.94  2.45
Si  5.98 -0.16 -4.91
Si -5.98  0.16  4.91
Si  4.07 -6.11 -2.45
Si -4.07  6.11  2.45
Si -7.11  1.93 -2.45
Si  7.11 -1.93  2.45
Si -1.79 -1.77  7.36
Si  1.79  1.77 -7.36
Si -1.39 -2.25 -7.36
Si  1.39  2.25  7.36
Si -1.53  2.25  7.36
Si  1.53 -2.25 -7.36
Si  2.72  0.24  7.36
Si -2.72 -0.24 -7.36
Si  1.98  5.87 -4.91
Si -1.98 -5.87  4.91
Si -7.24  2.09  2.45
Si  7.24 -2.09 -2.45
Si  1.21 -6.19 -4.91
Si -1.21  6.19  4.91
Si  3.12 -0.24 -7.36
Si -3.12  0.24  7.36
Si  7.36  2.09  2.45
Si -7.36 -2.09 -2.45
Si  4.83  5.95 -2.45
Si -4.83 -5.95  2.45
Si -0.51 -8.04  0.00
Si  0.51  8.04  0.00
Si -1.71 -6.19 -4.91
Si  1.71  6.19  4.91
Si -4.70 -6.11 -2.45
Si  4.70  6.11  2.45
Si  7.50  1.93 -2.45
Si -7.50 -1.93  2.45
Si -0.46 -3.78  7.36
Si  0.46  3.78 -7.36
Si  5.45 -3.86  4.91
Si -5.45  3.86 -4.91
Si -0.57 -7.96  2.45
Si  0.57  7.96 -2.45
Si -2.41  8.04  0.00
Si  2.41 -8.04  0.00
Si -0.44 -8.12 -2.45
Si  0.44  8.12  2.45
Si -0.05 -4.26 -7.36
Si  0.05  4.26  7.36
Si  3.87 -5.87  4.91
Si -3.87  5.87 -4.91
Si  4.05 -1.77  7.36
Si -4.05  1.77 -7.36
Si  5.72 -4.18 -4.91
Si -5.72  4.18  4.91
Si  2.47 -3.78  7.36
Si -2.47  3.78 -7.36
Si  2.35 -7.96  2.45
Si -2.35  7.96 -2.45
Si -3.43 -8.04  0.00
Si  3.43  8.04  0.00
Si  8.76  0.00  0.00
Si -8.76  0.00  0.00
Si -7.04  1.85 -4.91
Si  7.04 -1.85  4.91
Si  5.96  4.18  4.91
Si -5.96 -4.18 -4.91
Si  4.31  2.25  7.36
Si -4.31 -2.25 -7.36
Si -6.23 -3.86  4.91
Si  6.23  3.86 -4.91
Si -2.48  8.12  2.45
Si  2.48 -8.12 -2.45
Si -4.46  2.25  7.36
Si  4.46 -2.25 -7.36
Si -4.71 -1.77  7.36
Si  4.71  1.77 -7.36
Si -4.13  6.19  4.91
Si  4.13 -6.19 -4.91
Si -3.38 -3.78  7.36
Si  3.38  3.78 -7.36
Si -2.87  4.26  7.36
Si  2.87 -4.26 -7.36
Si -2.97 -4.26 -7.36
Si  2.97  4.26  7.36
Si  3.50  7.96 -2.45
Si -3.50 -7.96  2.45
Si -8.70 -0.08 -2.45
Si  8.70  0.08  2.45
Si  7.30  2.17  4.91
Si -7.30 -2.17 -4.91
Si  7.31 -2.17 -4.91
Si -7.31  2.17  4.91
Si -4.90 -5.87  4.91
Si  4.90  5.87 -4.91
Si  3.36  8.12  2.45
Si -3.36 -8.12 -2.45
Si -4.63 -6.19 -4.91
Si  4.63  6.19  4.91
Si  8.83 -0.08 -2.45
Si -8.83  0.08  2.45
Si  6.92 -6.03  0.00
Si -6.92  6.03  0.00
Si -7.57 -1.85  4.91
Si  7.57  1.85 -4.91
Si -5.64 -0.24 -7.36
Si  5.64  0.24  7.36
Si  0.64  7.87 -4.91
Si -0.64 -7.87  4.91
Si -0.88  5.78 -7.36
Si  0.88 -5.78  7.36
Si -6.86  5.95 -2.45
Si  6.86 -5.95  2.45
Si -8.51  4.02  0.00
Si  8.51 -4.02  0.00
Si -6.04  0.24  7.36
Si  6.04 -0.24 -7.36
Si  2.28 -7.87  4.91
Si -2.28  7.87 -4.91
Si  0.37  8.20  4.91
Si -0.37 -8.20 -4.91
Si -2.04 -5.78  7.36
Si  2.04  5.78 -7.36
Si  6.99 -6.11 -2.45
Si -6.99  6.11  2.45
Si  8.44 -3.94  2.45
Si -8.44  3.94 -2.45
Si -5.33  8.04  0.00
Si  5.33 -8.04  0.00
Si  1.28 -6.27 -7.36
Si -1.28  6.27  7.36
Si  7.68  6.03  0.00
Si -7.68 -6.03  0.00
Si -1.64 -6.27 -7.36
Si  1.64  6.27  7.36
Si  8.58 -4.10 -2.45
Si -8.58  4.10  2.45
Si -0.27  0.32  9.81
Si  0.27 -0.32 -9.81
Si  5.27 -7.96  2.45
Si -5.27  7.96 -2.45
Si  5.39 -3.78  7.36
Si -5.39  3.78 -7.36
Si -9.02 -4.02  0.00
Si  9.02  4.02  0.00
Si -2.55  8.20  4.91
Si  2.55 -8.20 -4.91
Si  8.63  0.16  4.91
Si -8.63 -0.16 -4.91
Si  3.56  7.87 -4.91
Si -3.56 -7.87  4.91
Si  1.06 -1.69  9.81
Si -1.06  1.69 -9.81
Si  5.40 -8.12 -2.45
Si -5.40  8.12  2.45
Si  7.62  6.11  2.45
Si -7.62 -6.11 -2.45
Si  7.75  5.95 -2.45
Si -7.75 -5.95  2.45
Si -0.83 10.04  0.00
Si  0.83 -10.04  0.00
Si  3.80 -5.78  7.36
Si -3.80  5.78 -7.36
Si -3.29 -8.20 -4.91
Si  3.29  8.20  4.91
Si -1.86 -1.69  9.81
Si  1.86  1.69 -9.81
Si -8.95 -4.10 -2.45
Si  8.95  4.10  2.45
Si  8.90 -0.16 -4.91
Si -8.90  0.16  4.91
Si  2.65  0.32  9.81
Si -2.65 -0.32 -9.81
Si  1.32  2.33  9.81
Si -1.32 -2.33 -9.81
Si  9.09  3.94 -2.45
Si -9.09 -3.94  2.45
Si  1.60 -2.33 -9.81
Si -1.60  2.33  9.81
Si -6.79  5.87 -4.91
Si  6.79 -5.87  4.91
Si  6.35  8.04  0.00
Si -6.35 -8.04  0.00
Si  2.10 10.04  0.00
Si -2.10 -10.04  0.00
Si -5.79  4.26  7.36
Si  5.79 -4.26 -7.36
Si -0.76  9.96 -2.45
Si  0.76 -9.96  2.45
Si -6.97  1.77 -7.36
Si  6.97 -1.77  7.36
Si -10.10  2.01  0.00
Si 10.10 -2.01  0.00
Si  3.19 -0.32 -9.81
Si -3.19  0.32  9.81
Si  5.89  4.26  7.36
Si -5.89 -4.26 -7.36
Si  6.30  3.78 -7.36
Si -6.30 -3.78  7.36
Si  8.38 -3.86  4.91
Si -8.38  3.86 -4.91
Si -0.89 10.12  2.45
Si  0.89 -10.12 -2.45
Si -2.16 -9.96  2.45
Si  2.16  9.96 -2.45
Si  0.52  3.69 -9.81
Si -0.52 -3.69  9.81
Si -10.03  1.93 -2.45
Si 10.03 -1.93  2.45
Si -6.42 -7.96  2.45
Si  6.42  7.96 -2.45
Si  4.20 -6.27 -7.36
Si -4.20  6.27  7.36
Si 10.35  2.01  0.00
Si -10.35 -2.01  0.00
Si -6.28 -8.12 -2.45
Si  6.28  8.12  2.45
Si  7.23  2.25  7.36
Si -7.23 -2.25 -7.36
Si  7.06 -6.19 -4.91
Si -7.06  6.19  4.91
Si  4.96  5.78 -7.36
Si -4.96 -5.78  7.36
Si -2.03 -10.12 -2.45
Si  2.03 10.12  2.45
Si  5.20 -7.87  4.91
Si -5.20  7.87 -4.91
Si  7.38 -2.25 -7.36
Si -7.38  2.25  7.36
Si -10.16  2.09  2.45
Si 10.16 -2.09 -2.45
Si -4.56 -6.27 -7.36
Si  4.56  6.27  7.36
Si -3.75 10.04  0.00
Si  3.75 -10.04  0.00
Si -3.99  1.69 -9.81
Si  3.99 -1.69  9.81
Si -0.01  4.34  9.81
Si  0.01 -4.34 -9.81
Si -0.71 -7.79  7.36
Si  0.71  7.79 -7.36
Si  7.63  1.77 -7.36
Si -7.63 -1.77  7.36
Si -2.40  3.69 -9.81
Si  2.40 -3.69  9.81
Si 10.28  2.09  2.45
Si -10.28 -2.09 -2.45
Si  8.64 -4.18 -4.91
Si -8.64  4.18  4.91
Si 10.42  1.93 -2.45
Si -10.42 -1.93  2.45
Si  3.68 -9.96  2.45
Si -3.68  9.96 -2.45
Si -7.55 -6.19 -4.91
Si  7.55  6.19  4.91
Si -7.82 -5.87  4.91
Si  7.82  5.87 -4.91
Si  4.24  2.33  9.81
Si -4.24 -2.33 -9.81
Si -2.21  7.79 -7.36
Si  2.21 -7.79  7.36
Si -8.88 -4.18 -4.91
Si  8.88  4.18  4.91
Si -5.47  8.20  4.91
Si  5.47 -8.20 -4.91
Si -3.44 -3.69  9.81
Si  3.44  3.69 -9.81
Si -4.78 -1.69  9.81
Si  4.78  1.69 -9.81
Si  4.52 -2.33 -9.81
Si -4.52  2.33  9.81
Si -0.69  9.88 -4.91
Si  0.69 -9.88  4.91
Si  9.15  3.86 -4.91
Si -9.15 -3.86  4.91
Si -0.31 -8.28 -7.36
Si  0.31  8.28  7.36
Si -3.81 10.12  2.45
Si  3.81 -10.12 -2.45
Si -2.91 -4.34 -9.81
Si  2.91  4.34  9.81
Si  2.94 -4.34 -9.81
Si -2.94  4.34  9.81
Si  5.02 10.04  0.00
Si -5.02 -10.04  0.00
Si -2.23 -9.88  4.91
Si  2.23  9.88 -4.91
Si  9.96 -1.85  4.91
Si -9.96  1.85 -4.91
Si -5.57 -0.32 -9.81
Si  5.57  0.32  9.81
Si  8.56  0.24  7.36
Si -8.56 -0.24 -7.36
Si  3.63  7.79 -7.36
Si -3.63 -7.79  7.36
Si  6.49  7.87 -4.91
Si -6.49 -7.87  4.91
Si -0.96 10.21  4.91
Si  0.96 -10.21 -4.91
Si  0.81 -5.70  9.81
Si -0.81  5.70 -9.81
Si  2.62 -8.28 -7.36
Si -2.62  8.28  7.36
Si  6.22  8.20  4.91
Si -6.22 -8.20 -4.91
Si  5.08  9.96 -2.45
Si -5.08 -9.96  2.45
Si  1.96 10.21  4.91
Si -1.96 -10.21 -4.91
Si -8.26  8.04  0.00
Si  8.26 -8.04  0.00
Si  6.72 -5.78  7.36
Si -6.72  5.78 -7.36
Si  4.95 10.12  2.45
Si -4.95 -10.12 -2.45
Si  3.23  8.28  7.36
Si -3.23 -8.28 -7.36
Si -10.22 -2.17 -4.91
Si 10.22  2.17  4.91
Si  2.11  5.70 -9.81
Si -2.11 -5.70  9.81
Si  9.84 -6.03  0.00
Si -9.84  6.03  0.00
Si 10.23 -2.17 -4.91
Si -10.23  2.17  4.91
Si  6.11 -0.32 -9.81
Si -6.11  0.32  9.81
Si  8.96 -0.24 -7.36
Si -8.96  0.24  7.36
Si -3.61  9.88 -4.91
Si  3.61 -9.88  4.91
Si  8.19 -7.96  2.45
Si -8.19  7.96 -2.45
Si -11.69  0.00  0.00
Si 11.69  0.00  0.00
Si  9.78 -5.95  2.45
Si -9.78  5.95 -2.45
Si -8.31  3.78 -7.36
Si  8.31 -3.78  7.36
Si -10.49 -1.85  4.91
Si 10.49  1.85 -4.91
Si  5.32 -3.69  9.81
Si -5.32  3.69 -9.81
Si -1.35  6.35  9.81
Si  1.35 -6.35 -9.81
Si  1.57  6.35  9.81
Si -1.57 -6.35 -9.81
Si -11.62 -0.08 -2.45
Si 11.62  0.08  2.45
Si -8.32  8.12  2.45
Si  8.32 -8.12 -2.45
Si  5.13 -7.79  7.36
Si -5.13  7.79 -7.36
Si -9.91  6.11  2.45
Si  9.91 -6.11 -2.45
Si -3.73  5.70 -9.81
Si  3.73 -5.70  9.81
Si -3.88 10.21  4.91
Si  3.88 -10.21 -4.91
Si -11.75  0.08  2.45
Si 11.75 -0.08 -2.45
Si -7.12  6.27  7.36
Si  7.12 -6.27 -7.36
Si -6.67 10.04  0.00
Si  6.67 -10.04  0.00
Si -0.76 -12.05  0.00
Si  0.76 12.05  0.00
Si -6.91  1.69 -9.81
Si  6.91 -1.69  9.81
Si 11.43 -4.02  0.00
