500
set: 1401.00  0.00  0.00
Si -0.29  0.72 -0.08
Si  0.04 -1.36 -1.29
Si  1.10  0.98  1.71
Si -2.41  1.49  0.41
Si -0.56  0.28  3.02
Si -0.37  2.87 -1.29
Si  1.70 -0.66 -2.60
Si -2.27  0.96 -2.18
Si  2.69 -0.68  1.84
Si -2.00 -2.74  0.41
Si  0.12 -3.51 -0.08
Si -2.47 -1.63  2.12
Si -3.30 -1.38 -1.08
Si  1.50 -3.25  1.71
Si -4.06 -0.74  0.67
Si  2.89  1.91 -2.46
Si -1.80 -0.15 -3.89
Si -1.87 -3.27 -2.18
Si -2.88  2.60  2.12
Si  0.31 -0.92 -4.38
Si  4.45 -0.74  0.67
Si  1.29  3.57 -2.60
Si  2.29  3.56  1.84
Si -0.49 -1.87  4.22
Si  3.30 -2.32 -2.46
Si -3.71  2.85 -1.08
Si -0.90  2.37  4.22
Si -0.16 -3.95  3.02
Si -0.70  4.95 -0.08
Si -3.90  0.26  3.23
Si  4.04  3.49  0.67
Si  5.20 -1.38 -1.08
Si -0.10  3.31 -4.38
Si -2.60 -1.09  4.72
Si -0.97  4.52  3.02
Si  0.69  5.21  1.71
Si -3.45 -2.39 -3.64
Si -3.86  1.84 -3.64
Si  4.60  0.26  3.23
Si  4.79  2.85 -1.08
Si -4.47  3.49  0.67
Si  0.23  1.23 -5.59
Si  0.45 -5.59 -1.29
Si  2.11 -4.89 -2.60
Si -1.39 -4.38 -3.89
Si -2.21  4.08 -3.89
Si  3.10 -4.91  1.84
Si -5.81 -0.68  1.84
Si  4.64  1.84 -3.64
Si -3.50 -3.97  3.23
Si -3.65 -4.98  0.67
Si -5.21 -2.32 -2.46
Si -2.68  5.19 -2.18
Si  0.90 -1.61  6.01
Si  6.10  1.49  0.41
Si -3.10  1.21 -5.38
Si  3.84  0.90  4.97
Si  0.64 -3.00 -5.59
Si -2.81  5.72  0.41
Si -2.89 -5.61 -1.08
Si -3.01  3.14  4.72
Si -5.61  1.91 -2.46
Si  5.62  2.60  2.12
Si  2.09  0.97  6.14
Si -2.06 -5.86  2.12
Si  0.49  2.63  6.01
Si  6.03 -1.63  2.12
Si  5.05 -2.39 -3.64
Si  6.23  0.96 -2.18
Si -1.67 -0.68 -6.49
Si -2.70 -3.02 -5.38
Si  0.72 -5.15 -4.38
Si -4.66  0.90  4.97
Si  4.19  4.50  3.23
Si  4.85 -4.98  0.67
Si -4.31  4.50  3.23
Si  2.48  6.14 -2.46
Si  6.51 -2.74  0.41
Si -3.07  0.02  6.43
Si  5.01 -3.97  3.23
Si -1.59 -6.97  0.41
Si -0.78  7.11 -1.29
Si -6.80 -0.66 -2.60
Si  4.25 -3.33  4.97
Si -4.25 -3.33  4.97
Si  2.50 -3.26  6.14
Si -6.22  3.56  1.84
Si  1.90  1.93 -6.90
Si -0.08 -6.10  4.22
Si -2.19 -5.33  4.72
Si -5.40 -4.91  1.84
Si  3.49  0.27 -6.77
Si  2.30 -2.30 -6.90
Si  5.90 -1.09  4.72
Si -1.17  1.93  7.32
Si -7.41  0.98  1.71
Si -2.08  3.55 -6.49
Si -0.76 -2.30  7.32
Si  6.64 -3.27 -2.18
Si  5.40  1.21 -5.38
Si  6.70 -0.15 -3.89
Si  0.52 -7.74 -0.08
Si -0.17  5.46 -5.59
Si -3.29  6.84  2.12
Si  5.49  3.14  4.72
Si -7.00 -3.25  1.71
Si  1.91 -7.48  1.71
Si  3.71 -6.55 -2.46
Si  3.43  5.13  4.97
Si -1.31  6.60  4.22
Si -1.46 -7.50 -2.18
Si  5.61 -5.61 -1.08
Si  5.69  5.72  0.41
Si  5.82  5.19 -2.18
Si -2.67 -4.21  6.43
Si -3.05 -6.62 -3.64
Si  1.88  7.79  1.84
Si  1.68  5.20  6.14
Si -1.26 -4.91 -6.49
Si  8.21  0.72 -0.08
Si  4.23  6.08 -3.64
Si -4.12  7.08 -1.08
Si -4.27  6.08 -3.64
Si  0.88  7.80 -2.60
Si  4.39  7.08 -1.08
Si  5.43  0.02  6.43
Si -3.51  5.44 -5.38
Si -5.01  0.27 -6.77
Si  6.29  4.08 -3.89
Si -3.48  4.25  6.43
Si -7.21  3.57 -2.60
Si -6.39 -4.89 -2.60
Si -1.20 -1.79 -8.20
Si  5.81 -3.02 -5.38
Si  1.31 -5.84  6.01
Si -4.80 -6.55 -2.46
Si  7.94  0.28  3.02
Si  3.63  7.72  0.67
Si -3.26  0.20 -7.94
Si -1.09 -0.22  8.53
Si -8.46 -1.36 -1.29
Si  3.08  4.50 -6.77
Si -1.61  2.44 -8.20
Si  0.25 -8.18  3.02
Si  8.13  2.87 -1.29
Si  4.00  1.91  7.53
Si -0.51  7.54 -4.38
Si  8.54 -1.36 -1.29
Si -5.07  5.13  4.97
Si  3.90 -3.96 -6.77
Si -8.80  0.72 -0.08
Si  5.22  6.84  2.12
Si  0.51  1.67 -8.69
Si -4.10 -2.33  7.53
Si -6.41  0.97  6.14
Si -6.02  6.14 -2.46
Si  6.44 -5.86  2.12
Si -4.51  1.91  7.53
Si  7.61  2.37  4.22
Si  4.40 -2.33  7.53
Si -8.39 -3.51 -0.08
Si -4.60 -3.96 -6.77
Si  0.92 -2.56 -8.69
Si  0.08  6.86  6.01
Si  4.99  5.44 -5.38
Si -4.88  7.72  0.67
Si -6.00 -3.26  6.14
Si  5.02  4.25  6.43
Si  1.05 -7.23 -5.59
Si  7.11 -4.38 -3.89
Si  7.80  4.95 -0.08
Si  8.02 -1.87  4.22
Si -1.11  9.19 -0.08
Si  7.53  4.52  3.02
Si  8.62 -3.51 -0.08
Si  5.46 -6.62 -3.64
Si -2.29 -7.25 -5.38
Si -3.09 -8.20  3.23
Si -8.19 -0.92 -4.38
Si -2.85 -4.03 -7.94
Si -1.38  8.75  3.02
Si  1.49  6.16 -6.90
Si -3.42  7.37  4.72
Si -8.87  2.87 -1.29
Si  6.83 -0.68 -6.49
Si -0.98 -8.61 -3.89
Si  6.31 -5.33  4.72
Si  5.25  0.20 -7.94
Si -1.50  4.01  8.53
Si -2.62  8.31 -3.89
Si -7.82  5.21  1.71
Si -6.20 -2.30 -6.90
Si -9.07  0.28  3.02
Si -3.21  0.55  9.02
Si  0.28  9.45  1.71
Si -0.68 -4.46  8.53
Si  5.84 -4.21  6.43
Si -1.58  6.16  7.32
Si  8.35 -3.95  3.02
Si -6.61  1.93 -6.90
Si -5.42  4.50 -6.77
Si -3.24 -9.21  0.67
Si  6.42  3.55 -6.49
Si  9.60  0.98  1.71
Si -3.67  4.43 -7.94
Si  2.52 -9.12 -2.60
Si -0.35 -6.54  7.32
Si -7.60 -1.61  6.01
Si  6.92 -6.97  0.41
Si -3.85 -7.57  4.97
Si  2.71 -6.54 -6.90
Si  8.81 -0.92 -4.38
Si -8.06 -5.59 -1.29
Si  0.84 -0.41 -9.90
Si  0.86 -9.82 -1.29
Si  3.51 -9.14  1.84
Si -8.66 -3.95  3.02
Si -2.50 -0.43 -9.69
Si  8.41  3.31 -4.38
Si  3.78  8.73  3.23
Si -8.27  1.23 -5.59
Si -7.86 -3.00 -5.59
Si -8.99 -1.87  4.22
Si  3.65 -1.69  9.28
Si -6.59 -7.48  1.71
Si  2.91 -7.50  6.14
Si  5.08  7.37  4.72
Si -2.80 -3.68  9.02
Si  3.24  2.54  9.28
Si -3.09  9.42 -2.18
Si  4.66 -7.57  4.97
Si -0.79 -6.03 -8.20
Si -8.60  3.31 -4.38
Si -2.48 -9.84 -1.08
Si  4.84  4.43 -7.94
Si -7.78 -5.15 -4.38
Si  0.30  0.04 10.31
Si  5.42 -8.20  3.23
Si -8.01  2.63  6.01
Si  3.59  6.14  7.53
Si -6.63  7.79  1.84
Si  1.13 -9.38 -4.38
Si -2.49  7.78 -6.49
Si -4.72  8.73  3.23
Si -1.65 -10.09  2.12
Si  8.74  1.23 -5.59
Si -9.21  4.95 -0.08
Si -3.22  9.96  0.41
Si  5.30  0.55  9.02
Si  0.10  5.90 -8.69
Si  7.05 -7.50 -2.18
Si  7.33  1.93  7.32
Si  5.65 -4.03 -7.94
Si 10.20 -0.66 -2.60
Si -6.82  5.20  6.14
Si -9.40  2.37  4.22
Si  7.73  7.11 -1.29
Si -4.99 -9.14  1.84
Si -4.86 -1.69  9.28
Si  0.43  3.82 -9.90
Si  5.26 -9.21  0.67
Si  8.95 -5.59 -1.29
Si  7.20  6.60  4.22
Si -3.69 -6.56  7.53
Si 10.01 -3.25  1.71
Si  9.19  5.21  1.71
Si  1.89 -1.62 10.45
Si  9.79  3.57 -2.60
Si -2.02  6.67 -8.20
Si -2.91  3.80 -9.69
Si -1.78 -9.56  4.72
Si -3.61  4.78  9.02
Si -2.26 -8.45  6.43
Si -10.50 -2.74  0.41
Si  2.07 10.38 -2.46
Si  1.49  2.61 10.45
Si -4.92  6.14  7.53
Si  7.24 -4.91 -6.49
Si  7.74 -2.30  7.32
Si  5.88  8.31 -3.89
Si -9.48  4.52  3.02
Si -2.09 -4.67 -9.69
Si  6.22 -7.25 -5.38
Si -5.27  2.54  9.28
Si  6.90  2.44 -8.20
Si  1.25 -4.64 -9.90
Si -10.30 -0.15 -3.89
Si -10.91  1.49  0.41
Si  3.02  9.36  4.97
Si -10.78  0.96 -2.18
Si -7.20 -5.84  6.01
Si -1.48  1.91 -10.79
Si  4.81 -6.56  7.53
Si  5.41  9.42 -2.18
Si -1.07 -2.33 -10.79
Si -10.37 -3.27 -2.18
Si  1.32 -6.80 -8.69
Si -7.98 -7.74 -0.08
Si  7.31 -1.79 -8.20
Si -5.79 -6.54 -6.90
Si  9.15 -3.00 -5.59
Si  8.99  2.63  6.01
Si  0.70 -4.19 10.31
Si -0.11  4.27 10.31
Si  0.33 -10.33  4.22
Si -5.60 -7.50  6.14
Si -0.58  9.69 -5.59
Si -7.62  7.80 -2.60
Si -5.99 -9.12 -2.60
Si  8.42 -6.10  4.22
Si -0.85 -9.14 -6.49
Si -1.18 -11.20  0.41
Si  9.40 -1.61  6.01
Si  5.28  9.96  0.41
Si  5.71 -3.68  9.02
Si -10.97 -1.63  2.12
Si  7.41 -0.22  8.53
Si  4.89  4.78  9.02
Si  1.27  9.43  6.14
Si -3.89  8.48  6.43
Si -8.58 -6.10  4.22
Si 11.20 -0.68  1.84
Si  2.68  8.73 -6.77
Si  6.00 -0.43 -9.69
Si  8.33  5.46 -5.59
Si -4.19 -8.19 -6.77
Si  9.22 -5.15 -4.38
Si -3.68  1.66 10.73
Si  4.31 -8.19 -6.77
Si -1.19 11.34 -1.29
Si  2.50  0.28 -11.21
Si -9.90 -4.38 -3.89
Si 10.79  3.56  1.84
Si -3.27 -2.57 10.73
Si  3.82 10.31 -3.64
Si  6.02 -9.84 -1.08
Si  4.61  8.48  6.43
Si -7.02  6.16 -6.90
Si  7.12  8.75  3.02
Si -8.68  5.46 -5.59
Si -2.44 -8.26 -7.94
Si -1.36 -0.66 11.63
Si  4.05 -5.92  9.28
Si  7.00  4.01  8.53
Si -3.92  9.67 -5.38
Si -2.64 -10.85 -3.64
Si -1.71 10.83  4.22
Si -9.28  7.11 -1.29
Si  6.02  7.78 -6.49
Si  7.39  9.19 -0.08
Si -7.45 -7.23 -5.59
Si  4.12 -10.78 -2.46
Si  6.93  6.16  7.32
Si 11.39  1.91 -2.46
Si  5.59  3.80 -9.69
Si -7.59 -2.56 -8.69
Si  2.83  6.77  9.28
Si  8.00  7.54 -4.38
Si  1.72 -10.07  6.01
Si -3.69 11.07  2.12
Si -11.38  2.60  2.12
Si -4.45 -5.92  9.28
Si  4.83  1.66 10.73
Si  4.10 -1.37 -11.07
Si -4.68 10.31 -3.64
Si  9.03 -7.74 -0.08
Si -4.39 -10.78 -2.46
Si -8.00  1.67 -8.69
Si -5.48  9.36  4.97
Si -11.80 -1.38 -1.08
Si 10.61 -4.89 -2.60
Si  4.58  9.67 -5.38
Si -1.05 -11.73 -2.18
Si -4.41 -1.37 -11.07
Si -8.25 -8.18  3.02
Si  0.93 -11.97 -0.08
Si -1.91  8.24  8.53
Si  3.69  2.86 -11.07
Si -9.26 -2.30  7.32
Si  3.98 11.31 -1.08
Si  2.32 -11.71  1.71
Si  7.52 -8.61 -3.89
Si -10.17 -0.68 -6.49
Si -10.71  4.08 -3.89
Si -11.11 -1.09  4.72
Si -0.28 -8.69  8.53
Si  2.30 -5.85 10.45
Si  5.23 -2.57 10.73
Si  2.91 -3.95 -11.21
Si -4.53 11.31 -1.08
Si -2.39 -7.92  9.02
Si  1.47 12.02  1.84
Si  4.81 11.07  2.12
Si  2.09  4.52 -11.21
Si -10.56 -5.86  2.12
Si -10.09 -6.97  0.41
Si 11.80 -2.32 -2.46
Si -9.67  1.93  7.32
Si 10.59  0.97  6.14
Si -1.77  3.57 11.63
Si  6.25 -8.45  6.43
Si  0.47 12.03 -2.60
Si  8.76 -8.18  3.02
Si  6.85 -10.09  2.12
Si  3.22 11.95  0.67
Si  7.82 -4.46  8.53
Si  6.49  6.67 -8.20
Si -4.81  2.86 -11.07
Si -8.42  6.86  6.01
Si -4.08  8.66 -7.94
Si  3.80 -0.68 11.83
Si -6.43 10.38 -2.46
Si -6.61 -1.62 10.45
Si  9.39  7.80 -2.60
Si -5.83  8.73 -6.77
Si -7.65 -9.82 -1.29
Si  6.41 -4.67 -9.69
Si  1.08 10.39 -6.90
Si -7.67 -0.41 -9.90
Si -11.19  5.19 -2.18
Si  8.59  6.86  6.01
Si  1.08  6.84 10.45
Si -9.01  7.54 -4.38
Si -9.81  6.60  4.22
Si -1.88  6.14 -10.79
Si  4.43  8.66 -7.94
Si -1.00  0.80 -12.50
Si -12.21  2.85 -1.08
Si -0.91 11.77 -4.38
Si  6.72 -9.56  4.72
Si -12.56 -0.74  0.67
Si -2.65 -1.44 -12.24
Si -0.33 11.09  6.01
Si  9.01  1.67 -8.69
Si 10.40  1.93 -6.90
Si -8.22  9.45  1.71
Si -0.66 -6.56 -10.79
Si -0.96 -4.89 11.63
Si -9.96 -7.50 -2.18
Si -11.32  5.72  0.41
Si -9.77 -4.91 -6.49
Si -7.38 -9.38 -4.38
Si -6.00  0.28 -11.21
Si -11.96 -2.39 -3.64
Si 11.61 -4.91  1.84
Si -11.39 -5.61 -1.08
Si -4.70 -0.68 11.83
Si  0.02  8.05 -9.90
Si  8.15 -6.54  7.32
Si  7.71 -6.03 -8.20
Si  0.66 -12.41  3.02
Si -11.20 -3.02 -5.38
Si  3.39  3.55 11.83
Si -5.67  6.77  9.28
Si -12.41  0.26  3.23
Si -1.88 -11.49 -5.38
Si -9.70 -1.79 -8.20
Si 10.98  6.14 -2.46
Si -11.51  3.14  4.72
Si  1.46 -11.46 -5.59
Si -9.60 -0.22  8.53
Si -10.70 -5.33  4.72
Si -11.61  1.21 -5.38
Si -7.02  2.61 10.45
Si  5.87 -10.85 -3.64
Si -1.99 10.39  7.32
Si  9.81 -5.84  6.01
Si -4.09  5.89 10.73
Si -10.58  3.55 -6.49
Si -3.06  2.79 -12.24
Si 10.42 -7.48  1.71
Si  6.06 -8.26 -7.94
Si -0.59 -3.44 -12.50
Si 10.19  5.20  6.14
Si 12.95 -0.74  0.67
Si  8.78  9.45  1.71
Si -3.32  8.03 -9.69
Si  4.42  5.89 10.73
Si 11.00 -3.26  6.14
Si  7.03  1.91 -10.79
Si  0.06 -10.77  7.32
Si -12.37  1.84 -3.64
Si -1.70  1.42 12.83
Si -2.86 -6.80 10.73
Si 10.81 -2.30 -6.90
Si 12.54  3.49  0.67
Si -4.00 -5.61 -11.07
Si  1.11  0.02 -12.99
Si -12.00 -3.97  3.23
Si  9.42 -2.56 -8.69
Si -5.28 11.95  0.67
Si -3.83 11.60  4.72
Si 10.38  7.79  1.84
Si -2.68 -12.43  3.23
Si -7.26 -4.64 -9.90
Si -5.60 -3.95 -11.21
Si -0.38 -10.26 -8.20
Si -12.15 -4.98  0.67
Si -7.18 -6.80 -8.69
Si  3.12 -10.77 -6.90
