500
set: 912.00  0.00  0.00
Si  0.43 -1.14  0.81
Si -0.43  1.18 -0.80
Si -1.34 -1.18 -0.82
Si  1.37  1.18  0.83
Si -2.16  1.17  0.83
Si  0.87 -0.06 -2.44
Si -0.88  0.02  2.50
Si  2.22 -1.19 -0.85
Si  3.03  1.13 -0.84
Si  0.01  2.35  2.42
Si -0.02 -2.31 -2.47
Si -3.15 -1.20  0.81
Si -2.62 -0.01 -2.46
Si  2.64  0.01  2.46
Si -0.50 -3.49  0.87
Si  0.47  3.51 -0.80
Si  1.23 -3.50 -0.80
Si -1.81 -2.31  2.44
Si -1.76  2.32 -2.49
Si -1.26  3.55  0.83
Si  1.75 -2.36  2.54
Si  1.78  2.40 -2.48
Si -3.90  1.20 -0.84
Si  0.85 -0.03  4.08
Si  3.94 -1.16  0.79
Si -0.89 -0.05 -4.11
Si -2.25 -3.55 -0.80
Si  2.22  3.57  0.87
Si  3.01 -3.51  0.81
Si -0.02 -2.37  4.07
Si  0.03  2.38 -4.08
Si -3.07  3.53 -0.85
Si -2.62  0.02  4.07
Si  2.65  0.07 -4.06
Si -3.46  2.37  2.45
Si  3.49 -2.35 -2.48
Si  3.52  2.36  2.43
Si -3.50 -2.36 -2.47
Si -4.35  0.00  2.44
Si -1.79 -2.33 -4.07
Si  1.80  2.32  4.08
Si -1.73  2.36  4.09
Si  1.73 -2.42 -4.09
Si  4.43 -0.00 -2.45
Si -4.87 -1.24 -0.79
Si  4.88  1.18  0.82
Si  0.80 -4.70  2.43
Si -0.93 -4.66 -2.48
Si -0.79  4.70 -2.47
Si -3.98 -3.51  0.83
Si  3.95  3.56 -0.80
Si  0.91  4.75  2.44
Si -5.64  1.18  0.82
Si  5.66 -1.24 -0.79
Si  2.51 -4.68 -2.42
Si -3.47  2.35 -4.12
Si  0.44 -1.21 -5.74
Si -2.55  4.70  2.47
Si -0.43  1.20  5.75
Si  3.49 -2.38  4.13
Si -3.52 -2.36  4.13
Si  3.52  2.36 -4.14
Si -0.43  5.86  0.81
Si -2.71 -4.71  2.42
Si  4.73 -3.53 -0.85
Si -4.37 -0.04 -4.09
Si  4.38 -0.03  4.09
Si  2.70  4.75 -2.47
Si  0.31 -5.93 -0.84
Si -1.33 -1.15  5.74
Si  1.34  1.16 -5.75
Si -4.79  3.55  0.81
Si -1.35 -5.88  0.83
Si  1.38  5.88 -0.82
Si  2.17 -1.17  5.68
Si -2.16  1.17 -5.69
Si  5.23  2.38 -2.42
Si -2.15  5.83 -0.79
Si  5.25 -2.36  2.47
Si -5.27 -2.36  2.47
Si -5.29  2.38 -2.42
Si  0.93  4.73 -4.07
Si -0.80  4.70  4.13
Si  0.81 -4.70 -4.14
Si  2.16 -5.88  0.82
Si -0.92 -4.74  4.08
Si -6.09 -0.00 -2.45
Si  3.09  1.11  5.73
Si -3.09 -1.17 -5.73
Si  6.17  0.00  2.44
Si  0.47  3.48  5.71
Si -3.15 -5.88 -0.80
Si  2.58 -4.66  4.11
Si -6.58 -1.16  0.79
Si -2.58  4.70 -4.08
Si  3.15  5.92  0.81
Si -2.69 -4.68 -4.08
Si -0.51 -3.56 -5.74
Si  2.70  4.69  4.07
Si  6.62  1.20 -0.84
Si  5.73  3.55  0.81
Si -5.79 -3.53 -0.85
Si  1.29 -3.46  5.76
Si -4.31  4.71 -2.48
Si  4.35 -4.70  2.45
Si -1.26  3.55 -5.75
Si  4.47  4.70  2.54
Si -4.48 -4.74 -2.49
Si  3.94 -1.13 -5.71
Si  5.23 -2.36 -4.08
Si -3.94  1.17  5.74
Si -5.22  2.40  4.11
Si  2.21  3.50 -5.74
Si -5.30 -2.36 -4.08
Si  3.90 -5.86 -0.84
Si -3.87  5.90  0.79
Si -2.25 -3.58  5.71
Si  5.30  2.40  4.11
Si -3.01  3.49  5.73
Si  3.02 -3.56 -5.72
Si -6.15 -0.03  4.09
Si  6.15 -0.04 -4.09
Si  0.43 -1.13  7.34
Si  0.10  7.05 -2.46
Si -0.08 -7.05  2.46
Si  6.55 -3.51  0.83
Si -0.46  1.22 -7.38
Si  7.37 -1.20  0.81
Si -6.57  3.56 -0.80
Si -4.83 -1.18  5.70
Si  4.85  1.15 -5.69
Si  1.34  1.22  7.35
Si -4.31  4.68  4.13
Si  4.33 -4.71 -4.12
Si -1.35 -1.18 -7.40
Si  4.45  4.64 -4.09
Si -7.49  1.13 -0.84
Si -1.63  7.06  2.44
Si -4.45 -4.70  4.09
Si  1.71 -7.06 -2.45
Si -4.88 -5.89  0.83
Si  4.94  5.87 -0.85
Si  1.84  7.08  2.50
Si -2.15  1.17  7.35
Si -1.85 -7.12 -2.44
Si -7.00  2.36  2.43
Si  2.16 -1.17 -7.39
Si  7.02 -2.36 -2.47
Si -7.03 -2.35 -2.48
Si -3.98 -3.51 -5.75
Si  7.07  2.37  2.45
Si  4.01  3.60  5.76
Si  3.11  1.17 -7.28
Si -3.12 -1.21  7.33
Si -6.05  4.70  2.54
Si  6.04 -4.74 -2.49
Si -0.07 -6.99 -4.06
Si -5.67  1.15 -5.69
Si -6.18 -4.70  2.45
Si  5.70 -1.18  5.70
Si -5.58  5.87 -0.85
Si  0.48  3.55 -7.32
Si  0.10  7.08  4.07
Si  6.21  4.71 -2.48
Si -3.37  7.06 -2.45
Si  5.64 -5.89  0.83
Si -0.49 -3.58  7.38
Si -0.37  5.89 -5.73
Si  3.45 -7.06  2.44
Si  3.59  7.00 -2.44
Si -4.79  3.50 -5.72
Si -1.26  3.52  7.36
Si  1.28 -3.52 -7.36
Si -7.89  0.01  2.46
Si  0.37 -5.95  5.73
Si  7.90 -0.01 -2.46
Si  4.79 -3.57  5.73
Si  7.45  3.53 -0.85
Si  0.56  8.23  0.83
Si -1.65  7.02 -4.09
Si -3.60 -7.04  2.50
Si -0.50 -8.25 -0.85
Si  1.83  7.01 -4.11
Si -7.51 -3.51  0.81
Si  1.22 -8.22  0.79
Si  1.66 -7.09  4.09
Si -1.38 -5.90 -5.75
Si  1.39  5.91  5.74
Si -1.18  8.26 -0.84
Si -1.87 -7.09  4.08
Si -3.91  1.17 -7.35
Si -2.24 -3.51 -7.32
Si  3.87 -1.15  7.39
Si -8.30 -1.19 -0.85
Si  2.23  3.48  7.38
Si -2.11  5.88  5.70
Si -7.00  2.36 -4.14
Si  7.00 -2.36  4.13
Si  2.13 -5.91 -5.69
Si  8.36  1.17  0.83
Si -7.03 -2.38  4.13
Si  7.05  2.35 -4.12
Si -2.29 -8.20  0.81
Si  2.29  8.24 -0.80
Si -6.07  4.64 -4.09
Si  6.07 -4.70  4.09
Si -2.99  3.53 -7.38
Si  3.07 -3.53  7.37
Si -2.92  8.24  0.82
Si  3.16  5.85 -5.74
Si -6.58 -1.13 -5.71
Si -6.19 -4.71 -4.12
Si -3.15 -5.86  5.75
Si  6.21  4.68  4.13
Si  6.59  1.17  5.74
Si  5.74  3.50 -5.72
Si -3.43  7.03  4.09
Si  2.94 -8.29 -0.79
Si -5.73 -3.57  5.73
Si -7.88  0.07 -4.06
Si -4.82 -1.17 -7.37
Si -6.62 -5.86 -0.84
Si  4.85  1.18  7.34
Si  3.57  7.03  4.08
Si  3.43 -7.10 -4.09
Si  7.91  0.02  4.07
Si  6.66  5.90  0.79
Si -3.61 -7.11 -4.11
Si  0.86  0.04 -8.95
Si  8.27 -3.55 -0.80
Si -0.90 -0.02  9.02
Si -8.31  3.57  0.87
Si -3.98 -3.54  7.36
Si  3.87 -5.89  5.74
Si  4.00  3.54 -7.36
Si -3.87  5.93 -5.71
Si -5.17  7.07  2.46
Si  5.18 -7.07 -2.46
Si -5.34 -7.07 -2.46
Si  5.36  7.07  2.46
Si -4.06 -8.24 -0.82
Si  4.09  8.24  0.83
Si -9.15  1.18  0.83
Si  0.01 -2.35 -8.99
Si  9.19 -1.18 -0.82
Si  0.02  2.35  9.00
Si  8.71 -2.31  2.44
Si -5.67  1.18  7.34
Si -2.62  0.02 -8.99
Si  0.39 -5.89 -7.28
Si -0.40  5.85  7.33
Si  2.59  0.04  9.02
Si  5.71 -1.17 -7.37
Si  6.55 -3.51 -5.75
Si -8.74  2.40 -2.48
Si  8.77  2.32 -2.49
Si -6.52  3.60  5.76
Si -8.77 -2.36  2.54
Si  7.81 -4.71  2.42
Si -4.73  3.53  7.37
Si  1.67 -2.40  8.98
Si -7.43  1.11  5.73
Si  7.43 -1.17 -5.73
Si  7.38 -5.88 -0.80
Si -7.82  4.75 -2.47
Si -1.79  2.33 -9.01
Si -7.37  5.92  0.81
Si -1.79 -2.35  9.02
Si -1.38 -5.84  7.35
Si  1.79  2.39 -9.01
Si  4.81 -3.53 -7.38
Si -4.77  8.19 -0.84
Si  4.65 -8.26  0.81
Si  4.88  5.89  5.68
Si -4.88 -5.89 -5.69
Si  1.37  5.88 -7.40
Si  7.97  4.70  2.47
Si -8.01 -4.68 -2.42
Si  5.19 -7.04  4.07
Si  2.13 -5.88  7.34
Si -2.10  5.89 -7.37
Si -5.16  7.13 -4.06
Si -5.33 -7.04  4.07
Si  0.96  9.38 -2.49
Si  0.77 -9.41 -2.48
Si -0.74  9.42  2.45
Si  5.37  7.13 -4.06
Si -0.97 -9.42  2.54
Si -8.72  2.32  4.08
Si  8.73 -2.33 -4.07
Si -3.17 -5.84 -7.38
Si  3.58  2.34  8.97
Si -5.64  5.89  5.68
Si -3.52 -2.36 -8.99
Si  3.15  5.93  7.34
Si  5.64 -5.89 -5.69
Si  3.52 -2.35 -9.00
Si -3.51  2.29  9.03
Si  6.61  1.17 -7.35
Si -9.65 -0.06 -2.44
Si -9.29 -3.50 -0.80
Si  9.27  3.55  0.83
Si  9.64  0.02  2.50
Si  8.79  2.36  4.09
Si -5.71 -3.53 -7.38
Si -7.82  4.69  4.07
Si -8.79 -2.42 -4.09
Si  7.83 -4.68 -4.08
Si -4.43  0.00  8.97
Si -6.65 -1.15  7.39
Si  5.79  3.53  7.37
Si -0.55 -8.23  5.68
Si  4.37  0.02 -9.02
Si  0.56  8.23 -5.69
Si  5.75  8.19 -0.84
Si  1.22 -8.19 -5.71
Si  2.53 -9.42  2.47
Si -2.74 -9.37 -2.47
Si  7.51  3.49  5.73
Si -2.57  9.44 -2.42
Si -7.95 -4.66  4.11
Si -7.51 -3.56 -5.72
Si  7.95  4.70 -4.08
Si  2.73  9.41  2.42
Si -1.22  8.23  5.74
Si -6.93  7.00 -2.44
Si -5.87 -8.26  0.81
Si  0.86 -4.72  8.97
Si -8.36 -1.17  5.68
Si -0.80  4.70 -8.99
Si  8.36  1.17 -5.69
Si -10.09 -1.14  0.81
Si  6.92 -7.04  2.50
Si  3.89 -5.89 -7.35
Si -0.93 -4.67 -9.01
Si 10.10  1.18 -0.80
Si  0.93  4.71  9.02
Si  8.38  5.83 -0.79
Si -3.93  5.91  7.39
Si -8.36 -5.88  0.82
Si -7.07 -7.06  2.44
Si -0.75  9.41 -4.12
Si  0.99  9.42  4.09
Si  2.29  8.26  5.75
Si -2.28 -8.27 -5.74
Si  0.77 -9.44  4.13
Si  7.15  7.06 -2.45
Si -0.99 -9.48 -4.09
Si -2.95  8.21 -5.69
Si  2.98 -8.24  5.70
Si -6.53  3.54 -7.36
Si -7.41  1.17 -7.28
Si  6.54 -3.54  7.36
Si -2.54  4.73  8.98
Si  9.63 -0.05 -4.11
Si -6.43  8.24  0.83
Si  7.41 -1.21  7.33
Si  2.58 -4.69 -9.03
Si -9.67 -0.03  4.08
Si  6.47 -8.24 -0.82
Si -2.70 -4.71  9.00
Si  2.73  4.71 -8.99
Si  2.51 -9.42 -4.08
Si -6.66 -5.89  5.74
Si  6.66  5.93 -5.71
Si -4.87 -5.89  7.35
Si  0.29 -10.57  0.81
Si -2.51  9.46  4.11
Si -4.28  9.42  2.43
Si -0.35 10.59 -0.85
Si -2.74 -9.43  4.07
Si  4.88  5.89 -7.39
Si  2.75  9.44 -4.08
Si 10.02 -3.49  0.87
Si  4.30 -9.42 -2.47
Si -0.90 -0.02 -10.62
Si -5.26 -2.33  8.98
Si  5.26 -2.33  8.98
Si  8.27 -3.58  5.71
Si -10.06  3.51 -0.80
Si -1.49 -10.55 -0.80
Si -4.53 -9.37  2.44
Si -8.31  3.50 -5.74
Si -6.95  7.03  4.08
Si -5.22  2.37 -9.03
Si  0.86  0.04 10.69
Si  6.91 -7.11 -4.11
Si  5.30  2.37 -9.03
Si  1.46 10.61  0.83
Si  4.50  9.46 -2.48
Si  7.10  7.03  4.09
Si -4.05 -8.21  5.74
Si  2.01 -10.59 -0.85
Si  4.06  8.22 -5.75
Si -7.09 -7.10 -4.09
Si -2.07 10.61  0.81
Si  6.09  0.00  8.97
Si  0.02  2.35 -10.64
Si -9.18  1.16 -5.75
Si -9.14  5.88 -0.82
Si  9.19 -1.15  5.74
Si  0.01 -2.35 10.65
Si -6.15  0.02 -9.02
Si  9.18 -5.88  0.83
Si  2.59  0.04 -10.62
Si  9.59 -4.66 -2.48
Si -2.62  0.02 10.65
Si  5.66 -5.89  7.35
Si -9.62  4.75  2.44
Si -5.64  5.89 -7.39
Si -7.36  5.85 -5.74
Si -4.28  4.71 -9.00
Si -1.79 -2.35 -10.62
Si -1.79  2.33 10.63
Si  4.39  4.66  8.98
Si -4.71  8.17  5.73
Si  7.37 -5.86  5.75
Si 10.51 -2.31 -2.47
Si  1.79  2.39 10.63
Si  0.57  8.22  7.35
Si -10.95  1.18 -0.80
Si -10.52  2.35  2.42
Si 10.96 -1.14  0.81
Si  1.67 -2.40 -10.66
Si 10.53  2.35  2.42
Si -7.45 -3.53  7.37
Si -3.22 -10.55  0.87
Si -9.72 -4.70  2.43
Si -10.54 -2.31 -2.47
Si -0.56 -8.23 -7.39
Si  3.18 10.57 -0.80
Si  4.29 -4.76  9.03
Si  4.71 -8.23 -5.73
Si  9.74  4.70 -2.47
Si -1.19  8.23 -7.35
Si  1.15 -8.21  7.39
Si  7.53  3.53 -7.38
Si -4.51 -4.73 -9.01
Si -4.28  9.42 -4.14
Si  4.28 -9.42  4.13
Si  4.52  9.38  4.08
Si -4.51 -9.39 -4.07
Si  8.38  1.17  7.35
Si -8.36 -1.17 -7.39
Si -2.29 -8.19  7.34
Si  7.60  8.24  0.82
Si  3.83 -10.57  0.83
Si -7.59 -8.29 -0.79
Si  2.27  8.28 -7.38
Si -3.85 10.62 -0.80
Si  5.99 -9.37  2.44
Si -3.51  2.29 -10.61
Si -9.24 -3.46  5.76
Si -2.95  8.24  7.34
Si -0.13 -7.03  9.02
Si  2.99 -8.22 -7.37
Si -9.60  4.73 -4.07
Si  0.10  7.08 -8.99
Si  3.52 -2.35 10.64
Si -3.52 -2.36 10.65
Si  9.60 -4.74  4.08
Si  9.27  3.55 -5.75
Si -8.69  7.08  2.50
Si  8.68 -7.12 -2.44
Si -6.02  9.46 -2.48
Si  4.37  0.02 10.62
Si  3.58  2.34 -10.67
Si -10.49  2.38 -4.08
Si 10.50 -2.37  4.07
Si -6.63 -5.89 -7.35
Si -1.86 -7.02 -8.95
Si  6.59  5.91  7.39
Si  5.81  8.17  5.73
Si -1.71  7.06  8.97
Si -10.54 -2.37  4.07
Si -4.43  0.00 -10.67
Si -8.81 -7.06 -2.45
Si  1.65 -7.04 -9.02
Si  9.72  4.70  4.13
Si -9.72 -4.70 -4.14
Si 10.55  2.38 -4.08
Si  6.24  9.42  2.43
Si -6.22 -9.42 -2.47
Si 10.99  3.51 -0.80
Si -6.95  2.34  8.97
Si  1.82  7.04  9.02
Si -5.81 -8.23 -5.73
Si  8.28 -3.51 -7.32
Si -11.03 -3.49  0.87
Si  8.89  7.06  2.44
Si -8.29  3.48  7.38
Si  7.00 -2.36 -8.99
Si -7.00 -2.35 -9.00
Si -0.93 -4.67 10.63
Si  8.24 -8.20  0.81
Si 11.39 -0.06 -2.44
Si  0.93  4.71 -10.62
Si  7.01  2.29  9.03
Si -0.80  4.70 10.65
Si -10.08 -1.21 -5.74
