500
set: 826.00  0.00  0.00
Si  0.41 -1.16  0.80
Si -0.44  1.24 -0.84
Si  1.34  1.17  0.75
Si -1.39 -1.14 -0.76
Si -2.17  1.03  0.83
Si -0.75  0.06  2.46
Si  2.15 -1.17 -0.88
Si  0.90 -0.04 -2.51
Si -0.02 -2.35 -2.45
Si  0.03  2.36  2.46
Si  3.09  1.19 -0.87
Si -3.10 -1.34  0.90
Si  2.69  0.12  2.40
Si -2.71 -0.01 -2.44
Si  0.43  3.56 -0.78
Si -0.46 -3.57  0.81
Si  1.29 -3.43 -0.81
Si -1.36  3.42  0.83
Si  1.88 -2.23  2.41
Si  1.75  2.39 -2.43
Si -1.68 -2.34  2.53
Si -1.79  2.42 -2.43
Si  3.91 -1.26  0.80
Si -0.98  0.07 -4.08
Si  0.98 -0.17  4.08
Si -3.98  1.20 -0.78
Si  2.20  3.52  0.83
Si -2.20 -3.54 -0.87
Si  0.09 -2.43  4.05
Si -0.04  2.42 -4.09
Si -3.41  2.33  2.46
Si -3.09  3.59 -0.82
Si -3.52 -2.27 -2.38
Si -2.51 -0.04  4.11
Si  3.05 -3.66  0.80
Si  3.44 -2.40 -2.52
Si  2.63  0.13 -4.17
Si  4.30 -0.17 -2.47
Si -1.79 -2.27 -4.07
Si  1.84  2.24  4.08
Si  3.60  2.52  2.39
Si  1.76 -2.23 -4.13
Si -4.35  0.06  2.49
Si  4.84  1.08  0.86
Si -1.68  2.30  4.17
Si -4.89 -1.11 -0.78
Si  0.97 -4.62  2.46
Si  0.91  4.67  2.47
Si  3.90  3.60 -0.94
Si -0.89  4.78 -2.41
Si -0.92 -4.69 -2.62
Si -4.01 -3.70  0.81
Si -0.45  5.68  0.81
Si -0.27  1.11  5.72
Si  2.49 -4.70 -2.40
Si  0.34 -5.78 -0.94
Si  5.73 -1.12 -0.84
Si  3.45  2.46 -4.11
Si -2.53  4.70  2.53
Si  0.30 -1.21 -5.78
Si -3.49 -2.40  4.13
Si -3.58  2.42 -4.06
Si -5.75  1.18  0.87
Si -2.65 -4.71  2.47
Si -4.79  3.41  0.83
Si  4.81 -3.46 -0.83
Si  2.64  4.69 -2.62
Si -1.16 -1.15  5.76
Si  3.55 -2.58  4.08
Si  1.11  1.16 -5.79
Si  4.47 -0.16  4.04
Si -4.41  0.06 -4.14
Si  1.36  5.83 -0.87
Si -1.36 -5.85  0.83
Si -5.25 -2.31  2.42
Si  0.86 -4.55 -4.17
Si  5.25  2.32 -2.45
Si -0.78  4.64  4.15
Si -2.30  1.22 -5.74
Si  2.43 -1.18  5.72
Si  5.36 -2.27  2.49
Si -0.93 -4.75  4.09
Si  2.10 -5.95  0.72
Si -2.20  5.92 -0.71
Si -5.38  2.35 -2.46
Si  0.88  4.80 -4.16
Si -3.12 -1.14 -5.71
Si  3.10  5.80  0.81
Si -3.13 -5.81 -0.78
Si  5.67  3.42  0.72
Si  3.32  1.13  5.70
Si  0.65  3.46  5.71
Si  2.63  4.62  4.09
Si -6.26 -0.08 -2.48
Si -2.68 -4.57 -4.16
Si  6.27  0.10  2.48
Si  6.59  1.20 -0.82
Si -5.76 -3.45 -0.71
Si -6.63 -1.19  0.86
Si -2.72  4.76 -4.06
Si -4.46 -4.60 -2.41
Si -0.60 -3.51 -5.85
Si  4.42 -4.61  2.50
Si  2.59 -4.84  4.11
Si  1.33 -3.52  5.74
Si -4.47  4.62 -2.45
Si -1.48  3.52 -5.75
Si -3.82  1.18  5.69
Si  3.87 -5.79 -0.80
Si  4.53  4.75  2.46
Si -2.09 -3.50  5.72
Si  5.30  2.18  4.09
Si  5.26 -2.24 -4.11
Si -4.02  5.72  0.87
Si -5.25  2.26  4.12
Si  3.83 -1.27 -5.80
Si  2.13  3.49 -5.78
Si -5.36 -2.32 -4.07
Si  0.04 -6.85  2.39
Si  6.07  0.15 -4.13
Si -6.09 -0.10  4.16
Si -2.89  3.52  5.86
Si  2.95 -3.59 -5.79
Si  4.57  1.13 -5.77
Si  4.31 -4.59 -4.04
Si  0.05  7.10 -2.38
Si -4.31  4.49  4.18
Si  6.50 -3.66  0.87
Si  0.64 -1.32  7.38
Si -4.70 -1.14  5.78
Si  1.48  1.05  7.31
Si -0.60  1.31 -7.44
Si  7.45 -1.19  0.86
Si -6.66  3.58 -0.80
Si -1.81 -6.98 -2.43
Si -7.50  1.20 -0.82
Si -4.34 -4.73  4.15
Si -1.68  7.06  2.42
Si  1.68 -7.05 -2.45
Si -1.43 -1.11 -7.46
Si -2.13  1.05  7.33
Si  1.89  7.04  2.53
Si  4.86  5.95 -0.81
Si  2.07 -1.00 -7.38
Si  4.42  4.82 -4.17
Si  6.97 -2.40 -2.41
Si -4.92 -5.95  0.83
Si -7.02  2.50  2.46
Si -7.12 -2.40 -2.41
Si  7.07  2.50  2.46
Si  4.15  3.57  5.78
Si -4.20 -3.51 -5.83
Si  6.05  4.67 -2.40
Si  2.81  1.29 -7.42
Si -0.12 -6.91 -4.11
Si  6.05 -4.75 -2.45
Si -6.09 -4.68  2.53
Si -2.97 -1.29  7.42
Si  0.47  8.04  0.90
Si  3.51 -6.88  2.46
Si  0.07  6.97  4.13
Si -6.11  4.77  2.50
Si -3.55  6.97 -2.41
Si -7.82  0.10  2.48
Si  7.83 -0.08 -2.48
Si  0.59 -5.80  5.78
Si -3.54 -7.02  2.46
Si -0.38 -3.65  7.38
Si  3.54  7.03 -2.45
Si -0.47 -8.18 -0.87
Si  0.33  3.66 -7.40
Si -1.04  3.43  7.45
Si -5.72  5.92 -0.83
Si  7.43  3.58 -0.80
Si -0.64  5.86 -5.83
Si -5.83  1.18 -5.79
Si  1.25 -3.43 -7.46
Si  5.73 -5.96  0.83
Si  1.47  5.87  5.72
Si -4.90  3.55 -5.73
Si -1.80  7.06 -4.07
Si  5.93 -1.07  5.78
Si -1.44 -5.88 -5.78
Si  1.77  7.11 -4.07
Si  5.00 -3.44  5.79
Si -1.72 -7.13  4.08
Si -1.33  8.26 -0.78
Si  1.27 -8.30  0.86
Si  2.38  3.35  7.38
Si  1.74 -7.20  4.09
Si  8.34  1.18  0.87
Si -7.59 -3.66  0.87
Si  7.00  2.48 -4.09
Si -8.36 -1.12 -0.84
Si -4.06  1.34 -7.35
Si -1.98  5.90  5.81
Si -6.99 -2.53  4.17
Si  2.00 -5.98 -5.74
Si -2.34 -3.45 -7.44
Si -2.23 -8.21  0.75
Si  2.18  8.23 -0.76
Si -7.09  2.48 -4.09
Si  4.08 -1.41  7.42
Si  7.10 -2.53  4.17
Si  6.15  4.53  4.11
Si  5.57  3.40 -5.74
Si -3.42  6.84  4.17
Si -2.91 -5.92  5.71
Si  3.44 -6.90 -4.09
Si -5.55 -3.47  5.81
Si  3.02 -8.18 -0.82
Si  6.61  5.71  0.80
Si -3.07  8.19  0.86
Si -6.29 -4.61 -4.06
Si  2.96  5.86 -5.85
Si  3.09 -3.68  7.39
Si -6.21  4.78 -4.04
Si  3.65  6.95  4.05
Si -3.60 -6.96 -4.09
Si -3.21  3.67 -7.38
Si -6.66 -5.78 -0.82
Si -6.76 -1.16 -5.65
Si -4.97 -1.05 -7.30
Si  6.21 -4.88  4.18
Si  6.78  1.26  5.75
Si  5.03  0.97  7.37
Si  8.00 -0.10  4.16
Si -8.02  0.15 -4.13
Si -0.61 -0.01  9.00
Si  8.32 -3.45 -0.71
Si  5.14 -7.02 -2.46
Si -3.78 -3.59  7.42
Si  0.56  0.06 -9.07
Si -5.36 -6.95 -2.43
Si -4.00 -8.14 -0.84
Si -8.42  3.42  0.72
Si -5.17  7.11  2.49
Si  4.11 -5.79  5.75
Si  3.91  3.63 -7.44
Si  3.98  8.21  0.80
Si -4.05  5.83 -5.83
Si -5.54  1.02  7.33
Si  9.20 -1.11 -0.78
Si  5.44  7.14  2.41
Si  7.33 -1.16 -5.65
Si -6.41  3.58  5.75
Si  5.60 -0.98 -7.41
Si  8.70  2.35 -2.46
Si -9.25  1.08  0.86
Si -8.73 -2.27  2.49
Si -0.24 -2.33 -9.08
Si -7.30  1.26  5.75
Si  4.70 -3.31 -7.42
Si  0.28  2.30  9.09
Si  6.47 -3.54 -5.83
Si  0.35 -5.74 -7.44
Si -0.22  5.79  7.42
Si -7.48  5.71  0.80
Si  7.43 -5.78 -0.82
Si -2.86  0.08 -9.01
Si  8.84 -2.31  2.42
Si  2.94  0.01  8.99
Si -8.84  2.32 -2.45
Si -4.68  3.41  7.51
Si -1.53 -2.39  9.07
Si  4.77 -8.19  0.87
Si  4.89  5.86  5.74
Si  1.58  2.38 -9.12
Si  1.96 -2.35  9.05
Si -2.00  2.41 -9.03
Si -4.80  8.26 -0.84
Si  1.22  5.92 -7.44
Si -0.87 -9.25  2.40
Si -8.03  4.67 -2.40
Si -1.18 -6.02  7.38
Si  8.00 -4.68  2.53
Si  7.98  4.77  2.50
Si -5.04 -5.85 -5.75
Si -8.03 -4.75 -2.45
Si  0.85  9.37 -2.44
Si -5.24 -7.08  4.17
Si  5.27 -7.11  4.12
Si -5.26  7.13 -4.11
Si -0.79  9.44  2.49
Si  5.32  7.14 -4.13
Si  2.35 -6.08  7.36
Si -2.33  5.99 -7.47
Si  3.19  5.73  7.38
Si -6.39 -1.26  7.43
Si  0.74 -9.55 -2.47
Si -3.23 -5.71 -7.40
Si  8.72 -2.32 -4.07
Si  6.48  1.37 -7.37
Si  5.62 -5.83 -5.73
Si  3.23 -2.39 -9.07
Si -3.29  2.25  9.09
Si -8.78  2.18  4.09
Si  7.80 -4.61 -4.06
Si  4.08 -0.03 -9.06
Si  9.29  3.41  0.83
Si -9.28 -3.46 -0.83
Si -5.53  5.93  5.79
Si  2.71 -9.27  2.48
Si -8.83 -2.24 -4.11
Si -2.69  9.30 -2.48
Si  5.91  3.29  7.36
Si -3.76 -2.27 -8.99
Si  8.84  2.26  4.12
Si -7.93  4.53  4.11
Si -0.24 -8.24  5.70
Si -4.21 -0.04  9.10
Si  5.71  8.20 -0.88
Si  0.45  8.24 -5.71
Si  9.73  0.06  2.49
Si  3.85 -5.63 -7.38
Si -8.16 -1.07  5.78
Si  7.88  4.78 -4.04
Si -3.75  5.75  7.38
Si -9.78 -0.17 -2.47
Si  3.83  2.33  9.04
Si -2.66 -9.41 -2.51
Si -5.90 -3.39 -7.47
Si  1.01 -8.24 -5.77
Si -1.13  8.23  5.78
Si  2.81  9.43  2.46
Si  8.26  1.18 -5.79
Si -5.74 -8.35  0.83
Si -7.88 -4.88  4.18
Si -0.94 -9.24 -4.17
Si  7.00  6.97 -2.52
Si  1.14 -4.68  9.00
Si -6.97 -7.04  2.46
Si 10.11  1.20 -0.78
Si -7.62 -3.54 -5.83
Si  7.68  3.58  5.75
Si -7.08  6.97 -2.52
Si  1.05  9.33  4.11
Si  1.09  4.64  9.09
Si -1.02  4.77 -9.05
Si -10.17 -1.26  0.80
Si  8.37  5.92 -0.83
Si -1.10 -4.73 -9.08
Si -8.36 -5.96  0.83
Si  7.12 -7.04  2.46
Si  2.41  8.23  5.76
Si -0.84  9.43 -4.14
Si -2.45 -8.21 -5.79
Si  0.91 -9.54  4.04
Si -2.33  4.62  9.02
Si  2.51 -9.22 -4.13
Si -9.62 -0.16  4.04
Si  3.22 -8.11  5.75
Si  6.51  5.78 -5.79
Si -3.19  8.22 -5.65
Si -2.53  9.28  4.16
Si  2.46  4.64 -9.08
Si -6.61  8.12  0.80
Si -6.46 -5.86  5.86
Si  6.55 -8.18 -0.78
Si  9.68  0.06 -4.14
Si  1.39 10.40  0.83
Si -2.47 -4.74  9.09
Si -6.97  6.79  4.08
Si  2.39 -4.73 -9.13
Si -4.32 -9.32  2.46
Si -4.60 -5.95  7.45
Si  2.58  9.45 -4.08
Si -0.41 10.57 -0.78
Si  1.16 -0.12 10.54
Si  5.04  2.23 -9.08
Si -6.67  3.74 -7.38
Si  6.95 -6.95 -4.06
Si  4.46  9.33 -2.51
Si  6.77 -3.62  7.38
Si  7.12  6.79  4.08
Si  4.27 -9.45 -2.48
Si  0.35 -10.63  0.80
Si -1.42 -10.55 -0.88
Si -7.60  1.37 -7.37
Si -4.25  9.48  2.48
Si  4.81  5.94 -7.46
Si -5.07 -2.38  9.10
Si -2.59 -9.54  4.08
Si  3.87  8.16 -5.78
Si  2.16 -10.49 -0.84
Si -3.83 -8.26  5.72
Si -1.16  0.10 -10.69
Si -7.14 -6.95 -4.06
Si 10.07 -3.70  0.81
Si  7.70 -1.26  7.43
Si -5.50  2.28 -8.99
Si -2.19 10.55  0.87
Si -8.52  3.40 -5.74
Si -10.19  3.60 -0.94
Si  5.51 -2.33  9.07
Si  8.54 -3.47  5.81
Si -0.19  2.47 -10.63
Si  9.63 -4.60 -2.41
Si  9.62  4.62 -2.45
Si -9.55  4.75  2.46
Si  9.16 -5.95  0.83
Si  2.46  0.19 -10.71
Si  0.59  8.09  7.42
Si -0.75 -8.08 -7.42
Si -9.67 -4.61  2.50
Si -7.31 -3.62  7.38
Si  0.27 -2.42 10.73
Si -9.23  5.95 -0.81
Si -2.38 -0.04 10.75
Si -6.39 -0.07 -8.98
Si -3.15 -10.54  0.80
Si -10.48  2.52  2.39
Si  4.54  9.21  4.08
Si  7.48  8.12  0.80
Si  1.53 -2.04 -10.77
Si 10.57 -2.27 -2.38
Si  4.70 -8.19 -5.79
Si  9.39 -1.14  5.78
Si  3.12 10.61 -0.84
Si -11.00  1.19 -0.87
Si 10.99 -1.34  0.90
Si  7.42  3.74 -7.38
Si -1.44  2.29 10.78
Si -2.05 -2.21 -10.70
Si -4.59  8.31  5.78
Si -4.54 -9.30 -4.08
Si  2.05  2.22 10.71
Si  6.39 -0.03  9.12
Si -4.59 -4.61 -9.05
Si  4.58 -4.66  9.03
Si -7.58  5.78 -5.79
Si -7.54 -8.18 -0.78
Si -4.60  4.71 -9.00
Si -1.41  8.33 -7.30
Si -9.51  1.13 -5.77
Si  4.71  4.70  9.00
Si -10.65 -2.40 -2.52
Si 10.68  2.33  2.46
Si -5.82  6.07 -7.42
Si  5.84 -5.97  7.51
Si  4.43 -9.47  4.16
Si  7.63 -5.86  5.86
Si  2.92 -8.01 -7.37
Si  1.46 -8.40  7.37
Si -2.09 -8.32  7.31
Si  3.89 -10.56  0.86
Si -4.45  9.53 -4.13
Si -8.49 -0.98 -7.41
Si  8.55  1.02  7.33
Si -3.94 10.57 -0.82
Si -9.09 -3.44  5.79
Si  2.14  8.27 -7.46
Si -2.83  8.11  7.43
Si -6.22  9.20 -2.47
Si  9.18  3.55 -5.73
Si  8.73 -6.95 -2.43
Si  6.17 -9.31  2.49
Si  6.65  5.69  7.39
Si  0.27 -7.04  9.04
Si -0.19  7.11 -8.99
Si -3.28 -2.39 10.73
Si -8.65  7.14  2.41
Si -8.18  3.29  7.36
Si  6.76 -2.30 -9.04
Si 10.51  2.42 -4.06
Si -6.75  2.33  9.05
Si -6.77 -5.70 -7.38
Si -9.77 -4.59 -4.04
Si  9.77  4.49  4.18
Si -6.27 -9.38 -2.44
Si  3.36  2.58 -10.75
Si -5.86 -8.15 -5.74
Si -1.50  6.99  9.10
Si -9.66  4.82 -4.17
Si -4.61  0.13 -10.63
Si -10.53 -2.58  4.08
Si  8.19 -3.39 -7.47
Si 10.99  3.59 -0.82
Si  9.74 -4.73  4.15
Si 10.06  5.72  0.87
Si  3.76 -2.49 10.71
Si 10.59 -2.40  4.13
Si  6.26  9.49  2.40
Si  2.04  6.98  9.07
Si 11.38 -0.01 -2.44
Si -8.95 -7.02 -2.46
Si -11.39  0.12  2.40
Si  4.90 10.54  0.75
Si -4.95 -10.52 -0.76
Si  1.48 -7.15 -9.08
Si  5.99  8.19  5.72
Si -3.76  2.50 -10.74
Si  0.62 -4.44 -10.76
Si -1.99 -6.99 -9.12
Si -11.04 -3.66  0.80
Si -10.64  2.46 -4.11
Si -0.63  4.56 10.72
Si  8.92  7.11  2.49
Si  4.57 -0.13 10.76
Si  4.20  8.05  7.38
