500
set: 11.00  0.00  0.00
Si  0.00  0.00  0.00
Si -0.08 -0.09  2.43
Si  0.08  0.09 -2.43
Si -1.23  2.31  0.00
Si  1.23 -2.31  0.00
Si -1.58 -2.31  0.00
Si  1.58  2.31  0.00
Si -2.81  0.00  0.00
Si  2.81  0.00  0.00
Si  1.30 -2.22 -2.43
Si -1.30  2.22  2.43
Si  1.15 -2.40  2.43
Si -1.15  2.40 -2.43
Si  1.50  2.22  2.43
Si -1.50 -2.22 -2.43
Si -2.73  0.09 -2.43
Si  2.73 -0.09  2.43
Si -2.89 -0.09  2.43
Si  2.89  0.09 -2.43
Si  1.67  2.40 -2.43
Si -1.67 -2.40  2.43
Si  0.36  4.62  0.00
Si -0.36 -4.62  0.00
Si -4.04  2.31  0.00
Si  4.04 -2.31  0.00
Si  0.16  0.17 -4.86
Si -0.16 -0.17  4.86
Si  4.40  2.31  0.00
Si -4.40 -2.31  0.00
Si  0.28  4.54  2.43
Si -0.28 -4.54 -2.43
Si  3.96 -2.40  2.43
Si -3.96  2.40 -2.43
Si -2.45  4.62  0.00
Si  2.45 -4.62  0.00
Si  4.12 -2.22 -2.43
Si -4.12  2.22  2.43
Si -0.44 -4.71  2.43
Si  0.44  4.71 -2.43
Si -4.32 -2.22 -2.43
Si  4.32  2.22  2.43
Si -1.39  2.14  4.86
Si  1.39 -2.14 -4.86
Si -1.43 -2.14 -4.86
Si  1.43  2.14  4.86
Si -2.65  0.17 -4.86
Si  2.65 -0.17  4.86
Si -1.06  2.48 -4.86
Si  1.06 -2.48  4.86
Si -3.17 -4.62  0.00
Si  3.17  4.62  0.00
Si -5.62  0.00  0.00
Si  5.62  0.00  0.00
Si  4.48  2.40 -2.43
Si -4.48 -2.40  2.43
Si  2.97  0.17 -4.86
Si -2.97 -0.17  4.86
Si -1.75 -2.48  4.86
Si  1.75  2.48 -4.86
Si -2.53  4.54  2.43
Si  2.53 -4.54 -2.43
Si  2.37 -4.71  2.43
Si -2.37  4.71 -2.43
Si -3.09 -4.54 -2.43
Si  3.09  4.54  2.43
Si  5.54 -0.09  2.43
Si -5.54  0.09 -2.43
Si  5.70  0.09 -2.43
Si -5.70 -0.09  2.43
Si -3.25 -4.71  2.43
Si  3.25  4.71 -2.43
Si  0.20  4.45  4.86
Si -0.20 -4.45 -4.86
Si  3.87 -2.48  4.86
Si -3.87  2.48 -4.86
Si -4.20  2.14  4.86
Si  4.20 -2.14 -4.86
Si  4.24  2.14  4.86
Si -4.24 -2.14 -4.86
Si  0.52  4.80 -4.86
Si -0.52 -4.80  4.86
Si -0.86  6.93  0.00
Si  0.86 -6.93  0.00
Si  5.26 -4.62  0.00
Si -5.26  4.62  0.00
Si  2.61 -4.45 -4.86
Si -2.61  4.45  4.86
Si  4.56  2.48 -4.86
Si -4.56 -2.48  4.86
Si -2.29  4.80 -4.86
Si  2.29 -4.80  4.86
Si  1.95  6.93  0.00
Si -1.95 -6.93  0.00
Si -6.84  2.31  0.00
Si  6.84 -2.31  0.00
Si -3.01 -4.45 -4.86
Si  3.01  4.45  4.86
Si -0.24 -0.26  7.28
Si  0.24  0.26 -7.28
Si  5.46 -0.17  4.86
Si -5.46  0.17 -4.86
Si -0.94  6.85  2.43
Si  0.94 -6.85 -2.43
Si -5.18  4.71 -2.43
Si  5.18 -4.71  2.43
Si -5.34  4.54  2.43
Si  5.34 -4.54 -2.43
Si -0.78  7.02 -2.43
Si  0.78 -7.02  2.43
Si  1.87  6.85  2.43
Si -1.87 -6.85 -2.43
Si -5.78 -0.17  4.86
Si  5.78  0.17 -4.86
Si  5.98  4.62  0.00
Si -5.98 -4.62  0.00
Si -7.21 -2.31  0.00
Si  7.21  2.31  0.00
Si  6.76 -2.40  2.43
Si -6.76  2.40 -2.43
Si  3.33  4.80 -4.86
Si -3.33 -4.80  4.86
Si  6.92 -2.22 -2.43
Si -6.92  2.22  2.43
Si -1.34 -2.05 -7.28
Si  1.34  2.05  7.28
Si  2.03  7.02 -2.43
Si -2.03 -7.02  2.43
Si  1.47 -2.05 -7.28
Si -1.47  2.05  7.28
Si  2.57 -0.26  7.28
Si -2.57  0.26 -7.28
Si -0.98  2.57 -7.28
Si  0.98 -2.57  7.28
Si  5.90  4.54  2.43
Si -5.90 -4.54 -2.43
Si  3.67 -6.93  0.00
Si -3.67  6.93  0.00
Si  7.12  2.22  2.43
Si -7.12 -2.22 -2.43
Si -3.05 -0.26  7.28
Si  3.05  0.26 -7.28
Si  1.83  2.57 -7.28
Si -1.83 -2.57  7.28
Si  7.29  2.40 -2.43
Si -7.29 -2.40  2.43
Si  6.06  4.71 -2.43
Si -6.06 -4.71  2.43
Si -3.75  6.85  2.43
Si  3.75 -6.85 -2.43
Si -3.59  7.02 -2.43
Si  3.59 -7.02  2.43
Si -1.02  6.76  4.86
Si  1.02 -6.76 -4.86
Si  4.76  6.93  0.00
Si -4.76 -6.93  0.00
Si -8.43  0.00  0.00
Si  8.43  0.00  0.00
Si -0.12 -4.36 -7.28
Si  0.12  4.36  7.28
Si  1.79  6.76  4.86
Si -1.79 -6.76 -4.86
Si -5.10  4.80 -4.86
Si  5.10 -4.80  4.86
Si  5.42 -4.45 -4.86
Si -5.42  4.45  4.86
Si  3.79 -2.57  7.28
Si -3.79  2.57 -7.28
Si  6.68 -2.48  4.86
Si -6.68  2.48 -4.86
Si -4.16 -2.05 -7.28
Si  4.16  2.05  7.28
Si  0.70 -7.11  4.86
Si -0.70  7.11 -4.86
Si -4.68 -6.85 -2.43
Si  4.68  6.85  2.43
Si -4.28  2.05  7.28
Si  4.28 -2.05 -7.28
Si  8.35 -0.09  2.43
Si -8.35  0.09 -2.43
Si  7.00 -2.14 -4.86
Si -7.00  2.14  4.86
Si -5.82 -4.45 -4.86
Si  5.82  4.45  4.86
Si -0.60 -4.88  7.28
Si  0.60  4.88 -7.28
Si -7.04 -2.14 -4.86
Si  7.04  2.14  4.86
Si -8.51 -0.09  2.43
Si  8.51  0.09 -2.43
Si  2.11  7.11 -4.86
Si -2.11 -7.11  4.86
Si  4.84  7.02 -2.43
Si -4.84 -7.02  2.43
Si  2.69 -4.36 -7.28
Si -2.69  4.36  7.28
Si -2.93 -4.36 -7.28
Si  2.93  4.36  7.28
Si -4.64 -2.57  7.28
Si  4.64  2.57 -7.28
Si -2.21  4.88 -7.28
Si  2.21 -4.88  7.28
Si -5.38  0.26 -7.28
Si  5.38 -0.26  7.28
Si -3.83  6.76  4.86
Si  3.83 -6.76 -4.86
Si  7.37  2.48 -4.86
Si -7.37 -2.48  4.86
Si  6.14  4.80 -4.86
Si -6.14 -4.80  4.86
Si -0.72 -9.24  0.00
Si  0.72  9.24  0.00
Si  3.51 -7.11  4.86
Si -3.51  7.11 -4.86
Si  8.07 -4.62  0.00
Si -8.07  4.62  0.00
Si  5.86  0.26 -7.28
Si -5.86 -0.26  7.28
Si  3.41  4.88 -7.28
Si -3.41 -4.88  7.28
Si -2.09  9.24  0.00
Si  2.09 -9.24  0.00
Si  6.48 -6.93  0.00
Si -6.48  6.93  0.00
Si -0.64 -9.16 -2.43
Si  0.64  9.16  2.43
Si -4.60 -6.76 -4.86
Si  4.60  6.76  4.86
Si  7.99 -4.71  2.43
Si -7.99  4.71 -2.43
Si -8.27  0.17 -4.86
Si  8.27 -0.17  4.86
Si  8.15 -4.54 -2.43
Si -8.15  4.54  2.43
Si -0.80 -9.33  2.43
Si  0.80  9.33 -2.43
Si  2.17 -9.16 -2.43
Si -2.17  9.16  2.43
Si -0.32 -0.35  9.71
Si  0.32  0.35 -9.71
Si  6.56 -6.85 -2.43
Si -6.56  6.85  2.43
Si  6.40 -7.02  2.43
Si -6.40  7.02 -2.43
Si -2.01  9.33 -2.43
Si  2.01 -9.33  2.43
Si  8.59  0.17 -4.86
Si -8.59 -0.17  4.86
Si  3.53  9.24  0.00
Si -3.53 -9.24  0.00
Si  4.92  7.11 -4.86
Si -4.92 -7.11  4.86
Si -9.65  2.31  0.00
Si  9.65 -2.31  0.00
Si  8.79  4.62  0.00
Si -8.79 -4.62  0.00
Si -1.10  6.67  7.28
Si  1.10 -6.67 -7.28
Si -1.26 -1.96 -9.71
Si  1.26  1.96  9.71
Si -1.71 -6.67 -7.28
Si  1.71  6.67  7.28
Si -1.55  1.96  9.71
Si  1.55 -1.96 -9.71
Si  2.49 -0.35  9.71
Si -2.49  0.35 -9.71
Si  3.45  9.16  2.43
Si -3.45 -9.16 -2.43
Si  5.02 -4.88  7.28
Si -5.02  4.88 -7.28
Si -0.90  2.66 -9.71
Si  0.90 -2.66  9.71
Si -5.50  4.36  7.28
Si  5.50 -4.36 -7.28
Si  8.71  4.54  2.43
Si -8.71 -4.54 -2.43
Si -6.60  2.57 -7.28
Si  6.60 -2.57  7.28
Si  9.57 -2.40  2.43
Si -9.57  2.40 -2.43
Si -3.13 -0.35  9.71
Si  3.13  0.35 -9.71
Si  1.91  2.66 -9.71
Si -1.91 -2.66  9.71
Si  5.74  4.36  7.28
Si -5.74 -4.36 -7.28
Si -0.62  7.19 -7.28
Si  0.62 -7.19  7.28
Si  7.57  6.93  0.00
Si -7.57 -6.93  0.00
Si -9.73  2.22  2.43
Si  9.73 -2.22 -2.43
Si -10.02 -2.31  0.00
Si 10.02  2.31  0.00
Si -6.96 -2.05 -7.28
Si  6.96  2.05  7.28
Si -3.61 -9.33  2.43
Si  3.61  9.33 -2.43
Si -0.56 -9.07 -4.86
Si  0.56  9.07  4.86
Si  8.87  4.71 -2.43
Si -8.87 -4.71  2.43
Si -7.09  2.05  7.28
Si  7.09 -2.05 -7.28
Si -7.49 -6.85 -2.43
Si  7.49  6.85  2.43
Si -7.91  4.80 -4.86
Si  7.91 -4.80  4.86
Si  4.90 -9.24  0.00
Si -4.90  9.24  0.00
Si -9.94 -2.22 -2.43
Si  9.94  2.22  2.43
Si  2.19  7.19 -7.28
Si -2.19 -7.19  7.28
Si  2.25 -9.07 -4.86
Si -2.25  9.07  4.86
Si -8.23  4.45  4.86
Si  8.23 -4.45 -4.86
Si -0.04 -4.27 -9.71
Si  0.04  4.27  9.71
Si  3.92 -6.67 -7.28
Si -3.92  6.67  7.28
Si  0.88  9.42 -4.86
Si -0.88 -9.42  4.86
Si  6.64 -6.76 -4.86
Si -6.64  6.76  4.86
Si -10.10 -2.40  2.43
Si 10.10  2.40 -2.43
Si  7.65  7.02 -2.43
Si -7.65 -7.02  2.43
Si  6.32 -7.11  4.86
Si -6.32  7.11 -4.86
Si  4.98 -9.16 -2.43
Si -4.98  9.16  2.43
Si -4.08 -1.96 -9.71
Si  4.08  1.96  9.71
Si -7.45 -2.57  7.28
Si  7.45  2.57 -7.28
Si  3.71 -2.66  9.71
Si -3.71  2.66 -9.71
Si  6.22  4.88 -7.28
Si -6.22 -4.88  7.28
Si  1.93 -9.42  4.86
Si -1.93  9.42 -4.86
Si -4.82  9.33 -2.43
Si  4.82 -9.33  2.43
Si  3.43 -7.19  7.28
Si -3.43  7.19 -7.28
Si -4.36  1.96  9.71
Si  4.36 -1.96 -9.71
Si -3.37 -9.07 -4.86
Si  3.37  9.07  4.86
Si  8.63  4.45  4.86
Si -8.63 -4.45 -4.86
Si  4.52  6.67  7.28
Si -4.52 -6.67 -7.28
Si  0.68  4.97 -9.71
Si -0.68 -4.97  9.71
Si  9.49 -2.48  4.86
Si -9.49  2.48 -4.86
Si  8.19 -0.26  7.28
Si -8.19  0.26 -7.28
Si  2.77 -4.27 -9.71
Si -2.77  4.27  9.71
Si  2.85  4.27  9.71
Si -2.85 -4.27 -9.71
Si -5.30  0.35 -9.71
Si  5.30 -0.35  9.71
Si -2.13  4.97 -9.71
Si  2.13 -4.97  9.71
Si -4.72 -2.66  9.71
Si  4.72  2.66 -9.71
Si -7.41 -6.76 -4.86
Si  7.41  6.76  4.86
Si -9.81  2.14  4.86
Si  9.81 -2.14 -4.86
Si -9.86 -2.14 -4.86
Si  9.86  2.14  4.86
Si -6.34 -9.24  0.00
Si  6.34  9.24  0.00
Si -3.69 -9.42  4.86
Si  3.69  9.42 -4.86
Si 11.24  0.00  0.00
Si -11.24  0.00  0.00
Si  8.95  4.80 -4.86
Si -8.95 -4.80  4.86
Si -8.67 -0.26  7.28
Si  8.67  0.26 -7.28
Si -6.26 -9.16 -2.43
Si  6.26  9.16  2.43
Si -5.94 -0.35  9.71
Si  5.94  0.35 -9.71
Si -5.00 -7.19  7.28
Si  5.00  7.19 -7.28
Si 11.16 -0.09  2.43
Si -11.16  0.09 -2.43
Si  3.49  4.97 -9.71
Si -3.49 -4.97  9.71
Si  5.06 -9.07 -4.86
Si -5.06  9.07  4.86
Si -10.18 -2.48  4.86
Si 10.18  2.48 -4.86
Si -0.50 11.55  0.00
Si  0.50 -11.55  0.00
Si -7.73 -7.11  4.86
Si  7.73  7.11 -4.86
Si  0.48  8.98  7.28
Si -0.48 -8.98 -7.28
Si 11.32  0.09 -2.43
Si -11.32 -0.09  2.43
Si -6.42 -9.33  2.43
Si  6.42  9.33 -2.43
Si -9.29  6.93  0.00
Si  9.29 -6.93  0.00
Si  4.74 -9.42  4.86
Si -4.74  9.42 -4.86
Si  0.58 -11.47 -2.43
Si -0.58 11.47  2.43
Si -7.83  4.88 -7.28
Si  7.83 -4.88  7.28
Si -2.31 -11.55  0.00
Si  2.31 11.55  0.00
Si -1.19  6.58  9.71
Si  1.19 -6.58 -9.71
Si  2.33 -8.98 -7.28
Si -2.33  8.98  7.28
Si 10.88 -4.62  0.00
Si -10.88  4.62  0.00
Si  9.21 -7.02  2.43
Si -9.21  7.02 -2.43
Si -1.62 -6.58 -9.71
Si  1.62  6.58  9.71
Si  9.38 -6.85 -2.43
Si -9.38  6.85  2.43
Si  8.31 -4.36 -7.28
Si -8.31  4.36  7.28
Si  0.42 -11.64  2.43
Si -0.42 11.64 -2.43
Si -2.23 -11.47 -2.43
Si  2.23 11.47  2.43
Si  6.72 -6.67 -7.28
Si -6.72  6.67  7.28
Si -4.94  4.97 -9.71
Si  4.94 -4.97  9.71
Si  5.58 -4.27 -9.71
Si -5.58  4.27  9.71
Si  6.24 -7.19  7.28
Si -6.24  7.19 -7.28
Si -6.52  2.66 -9.71
Si  6.52 -2.66  9.71
Si  6.18  9.07  4.86
Si -6.18 -9.07 -4.86
Si  0.96  9.51 -7.28
Si -0.96 -9.51  7.28
Si -3.31 11.55  0.00
Si  3.31 -11.55  0.00
Si -3.29 -8.98 -7.28
Si  3.29  8.98  7.28
Si  5.66  4.27  9.71
Si -5.66 -4.27 -9.71
Si -10.80  4.71 -2.43
Si 10.80 -4.71  2.43
Si  7.71 -9.24  0.00
Si -7.71  9.24  0.00
Si  8.55  4.36  7.28
Si -8.55 -4.36 -7.28
Si  6.88  1.96  9.71
Si -6.88 -1.96 -9.71
Si -11.08  0.17 -4.86
Si 11.08 -0.17  4.86
Si 10.96 -4.54 -2.43
Si -10.96  4.54  2.43
Si -1.85  9.51 -7.28
Si  1.85 -9.51  7.28
Si -2.39 -11.64  2.43
Si  2.39 11.64 -2.43
Si -0.54  7.28 -9.71
Si  0.54 -7.28  9.71
Si  0.40  0.44 -12.14
Si -0.40 -0.44 12.14
Si -9.41  2.57 -7.28
Si  9.41 -2.57  7.28
Si -3.39 11.47  2.43
Si  3.39 -11.47 -2.43
Si -7.17  1.96  9.71
Si  7.17 -1.96 -9.71
Si  7.79 -9.16 -2.43
Si -7.79  9.16  2.43
Si -7.63  9.33 -2.43
Si  7.63 -9.33  2.43
Si -7.33 -6.67 -7.28
Si  7.33  6.67  7.28
Si -3.23 11.64 -2.43
Si  3.23 -11.64  2.43
Si  1.18  1.88 12.14
Si -1.18 -1.88 -12.14
Si -2.27 -7.28  9.71
Si  2.27  7.28 -9.71
Si  9.78  2.05  7.28
Si -9.78 -2.05 -7.28
Si  2.41 -0.44 12.14
