500
set: 86.00  0.00  0.00
Si  0.00  0.00  0.00
Si -1.17  2.19  0.00
Si  1.17 -2.19  0.00
Si  2.50  0.00  0.00
Si -2.50  0.00  0.00
Si  1.33  2.19  0.00
Si -1.33 -2.19  0.00
Si  0.33  0.01  2.56
Si -0.33 -0.01 -2.56
Si  2.17 -0.01 -2.56
Si -2.17  0.01  2.56
Si -0.84  2.20  2.56
Si  0.84 -2.20 -2.56
Si  1.00  2.18 -2.56
Si -1.00 -2.18  2.56
Si -1.50  2.18 -2.56
Si  1.50 -2.18  2.56
Si -1.66 -2.20 -2.56
Si  1.66  2.20  2.56
Si -2.83 -0.01 -2.56
Si  2.83  0.01  2.56
Si -3.67  2.19  0.00
Si  3.67 -2.19  0.00
Si  0.16  4.38  0.00
Si -0.16 -4.38  0.00
Si  3.83  2.19  0.00
Si -3.83 -2.19  0.00
Si -3.34  2.20  2.56
Si  3.34 -2.20 -2.56
Si -3.50 -2.18  2.56
Si  3.50  2.18 -2.56
Si -2.34  4.38  0.00
Si  2.34 -4.38  0.00
Si -5.00  0.00  0.00
Si  5.00  0.00  0.00
Si  0.17 -4.37  2.56
Si -0.17  4.37 -2.56
Si -0.49 -4.39 -2.56
Si  0.49  4.39  2.56
Si  2.66  4.38  0.00
Si -2.66 -4.38  0.00
Si -0.66 -0.02 -5.13
Si  0.66  0.02  5.13
Si  4.00 -2.18  2.56
Si -4.00  2.18 -2.56
Si  4.67 -0.01 -2.56
Si -4.67  0.01  2.56
Si -4.16 -2.20 -2.56
Si  4.16  2.20  2.56
Si  1.84 -0.02 -5.13
Si -1.84  0.02  5.13
Si -2.01  4.39  2.56
Si  2.01 -4.39 -2.56
Si  2.33  4.37 -2.56
Si -2.33 -4.37  2.56
Si  0.67  2.17 -5.13
Si -0.67 -2.17  5.13
Si  0.51 -2.21 -5.13
Si -0.51  2.21  5.13
Si -2.67  4.37 -2.56
Si  2.67 -4.37  2.56
Si -1.83  2.17 -5.13
Si  1.83 -2.17  5.13
Si -2.99 -4.39 -2.56
Si  2.99  4.39  2.56
Si -5.33 -0.01 -2.56
Si  5.33  0.01  2.56
Si  1.99  2.21  5.13
Si -1.99 -2.21 -5.13
Si  3.16  0.02  5.13
Si -3.16 -0.02 -5.13
Si  3.01 -2.21 -5.13
Si -3.01  2.21  5.13
Si -3.17 -2.17  5.13
Si  3.17  2.17 -5.13
Si -4.84  4.38  0.00
Si  4.84 -4.38  0.00
Si  6.17 -2.19  0.00
Si -6.17  2.19  0.00
Si -1.01  6.57  0.00
Si  1.01 -6.57  0.00
Si -6.33 -2.19  0.00
Si  6.33  2.19  0.00
Si  4.34 -0.02 -5.13
Si -4.34  0.02  5.13
Si -1.49 -6.57  0.00
Si  1.49  6.57  0.00
Si -5.84  2.20  2.56
Si  5.84 -2.20 -2.56
Si -0.50  4.36 -5.13
Si  0.50 -4.36  5.13
Si -5.16 -4.38  0.00
Si  5.16  4.38  0.00
Si  4.51 -4.39 -2.56
Si -4.51  4.39  2.56
Si -0.82 -4.40 -5.13
Si  0.82  4.40  5.13
Si  6.00  2.18 -2.56
Si -6.00 -2.18  2.56
Si  1.68 -4.40 -5.13
Si -1.68  4.40  5.13
Si -4.83 -4.37  2.56
Si  4.83  4.37 -2.56
Si -2.00 -4.36  5.13
Si  2.00  4.36 -5.13
Si  4.33 -2.17  5.13
Si -4.33  2.17 -5.13
Si -0.68  6.58  2.56
Si  0.68 -6.58 -2.56
Si  1.16  6.56 -2.56
Si -1.16 -6.56  2.56
Si -4.49 -2.21 -5.13
Si  4.49  2.21  5.13
Si  1.34 -6.56  2.56
Si -1.34  6.56 -2.56
Si  5.17 -4.37  2.56
Si -5.17  4.37 -2.56
Si  1.82  6.58  2.56
Si -1.82 -6.58 -2.56
Si  6.50 -2.18  2.56
Si -6.50  2.18 -2.56
Si  3.00 -4.36  5.13
Si -3.00  4.36 -5.13
Si  3.51 -6.57  0.00
Si -3.51  6.57  0.00
Si -6.66 -2.20 -2.56
Si  6.66  2.20  2.56
Si -5.49 -4.39 -2.56
Si  5.49  4.39  2.56
Si  7.50  0.00  0.00
Si -7.50  0.00  0.00
Si  3.32  4.40  5.13
Si -3.32 -4.40 -5.13
Si -7.17  0.01  2.56
Si  7.17 -0.01 -2.56
Si -5.66 -0.02 -5.13
Si  5.66  0.02  5.13
Si -3.99 -6.57  0.00
Si  3.99  6.57  0.00
Si  3.18 -6.58 -2.56
Si -3.18  6.58  2.56
Si -0.99 -0.03 -7.69
Si  0.99  0.03  7.69
Si -1.51  0.03  7.69
Si  1.51 -0.03 -7.69
Si  5.51 -2.21 -5.13
Si -5.51  2.21  5.13
Si -3.66 -6.56  2.56
Si  3.66  6.56 -2.56
Si -4.18  4.40  5.13
Si  4.18 -4.40 -5.13
Si -5.67 -2.17  5.13
Si  5.67  2.17 -5.13
Si  0.34  2.16 -7.69
Si -0.34 -2.16  7.69
Si -0.18  2.22  7.69
Si  0.18 -2.22 -7.69
Si -3.84  6.56 -2.56
Si  3.84 -6.56  2.56
Si  4.50  4.36 -5.13
Si -4.50 -4.36  5.13
Si -7.83 -0.01 -2.56
Si  7.83  0.01  2.56
Si -2.16  2.16 -7.69
Si  2.16 -2.16  7.69
Si  4.32  6.58  2.56
Si -4.32 -6.58 -2.56
Si  2.32  2.22  7.69
Si -2.32 -2.22 -7.69
Si  0.83  6.55 -5.13
Si -0.83 -6.55  5.13
Si -0.35  6.59  5.13
Si  0.35 -6.59 -5.13
Si  2.68 -2.22 -7.69
Si -2.68  2.22  7.69
Si  3.49  0.03  7.69
Si -3.49 -0.03 -7.69
Si  2.84  2.16 -7.69
Si -2.84 -2.16  7.69
Si  1.67 -6.55  5.13
Si -1.67  6.55 -5.13
Si -7.34  4.38  0.00
Si  7.34 -4.38  0.00
Si -6.84  0.02  5.13
Si  6.84 -0.02 -5.13
Si -2.15 -6.59 -5.13
Si  2.15  6.59  5.13
Si  7.01 -4.39 -2.56
Si -7.01  4.39  2.56
Si  4.01 -0.03 -7.69
Si -4.01  0.03  7.69
Si  5.50 -4.36  5.13
Si -5.50  4.36 -5.13
Si  0.32  8.76  0.00
Si -0.32 -8.76  0.00
Si -6.83  2.17 -5.13
Si  6.83 -2.17  5.13
Si  2.85 -6.59 -5.13
Si -2.85  6.59  5.13
Si  7.66  4.38  0.00
Si -7.66 -4.38  0.00
Si -0.83  4.35 -7.69
Si  0.83 -4.35  7.69
Si  6.01 -6.57  0.00
Si -6.01  6.57  0.00
Si  7.33  4.37 -2.56
Si -7.33 -4.37  2.56
Si  5.82  4.40  5.13
Si -5.82 -4.40 -5.13
Si  8.67 -2.19  0.00
Si -8.67  2.19  0.00
Si -1.15 -4.41 -7.69
Si  1.15  4.41  7.69
Si -6.99 -2.21 -5.13
Si  6.99  2.21  5.13
Si -3.33 -6.55  5.13
Si  3.33  6.55 -5.13
Si  1.35 -4.41 -7.69
Si -1.35  4.41  7.69
Si -1.67 -4.35  7.69
Si  1.67  4.35 -7.69
Si  8.34 -2.20 -2.56
Si -8.34  2.20  2.56
Si  2.18 -8.76  0.00
Si -2.18  8.76  0.00
Si -5.68  6.58  2.56
Si  5.68 -6.58 -2.56
Si  8.83  2.19  0.00
Si -8.83 -2.19  0.00
Si -0.01  8.75 -2.56
Si  0.01 -8.75  2.56
Si  8.50  2.18 -2.56
Si -8.50 -2.18  2.56
Si -0.65 -8.77 -2.56
Si  0.65  8.77  2.56
Si -7.67  4.37 -2.56
Si  7.67 -4.37  2.56
Si  2.82  8.76  0.00
Si -2.82 -8.76  0.00
Si  6.49  6.57  0.00
Si -6.49 -6.57  0.00
Si  4.66 -2.16  7.69
Si -4.66  2.16 -7.69
Si -4.17  6.55 -5.13
Si  4.17 -6.55  5.13
Si -1.85  8.77  2.56
Si  1.85 -8.77 -2.56
Si -4.82 -2.22 -7.69
Si  4.82  2.22  7.69
Si  6.16  6.56 -2.56
Si -6.16 -6.56  2.56
Si -3.33  4.35 -7.69
Si  3.33 -4.35  7.69
Si  2.49  8.75 -2.56
Si -2.49 -8.75  2.56
Si -2.51  8.75 -2.56
Si  2.51 -8.75  2.56
Si  7.99  4.39  2.56
Si -7.99 -4.39 -2.56
Si  6.34 -6.56  2.56
Si -6.34  6.56 -2.56
Si  6.68 -4.40 -5.13
Si -6.68  4.40  5.13
Si  5.18 -2.22 -7.69
Si -5.18  2.22  7.69
Si -4.65 -6.59 -5.13
Si  4.65  6.59  5.13
Si -3.65 -4.41 -7.69
Si  3.65  4.41  7.69
Si  5.34  2.16 -7.69
Si -5.34 -2.16  7.69
Si  9.00 -2.18  2.56
Si -9.00  2.18 -2.56
Si -8.16 -0.02 -5.13
Si  8.16  0.02  5.13
Si -3.15 -8.77 -2.56
Si  3.15  8.77  2.56
Si  3.85 -4.41 -7.69
Si -3.85  4.41  7.69
Si -7.00 -4.36  5.13
Si  7.00  4.36 -5.13
Si -5.99 -0.03 -7.69
Si  5.99  0.03  7.69
Si -8.01  2.21  5.13
Si  8.01 -2.21 -5.13
Si -9.16 -2.20 -2.56
Si  9.16  2.20  2.56
Si -4.17 -4.35  7.69
Si  4.17  4.35 -7.69
Si  6.82  6.58  2.56
Si -6.82 -6.58 -2.56
Si -8.17 -2.17  5.13
Si  8.17  2.17 -5.13
Si -5.35  6.59  5.13
Si  5.35 -6.59 -5.13
Si  4.68 -8.76  0.00
Si -4.68  8.76  0.00
Si 10.00  0.00  0.00
Si -10.00  0.00  0.00
Si  9.67 -0.01 -2.56
Si -9.67  0.01  2.56
Si  6.51 -0.03 -7.69
Si -6.51  0.03  7.69
Si -0.50 -6.54  7.69
Si  0.50  6.54 -7.69
Si  4.35 -8.77 -2.56
Si -4.35  8.77  2.56
Si  0.34 -8.74  5.13
Si -0.34  8.74 -5.13
Si -0.02  6.60  7.69
Si  0.02 -6.60 -7.69
Si -5.83 -6.55  5.13
Si  5.83  6.55 -5.13
Si -0.98 -8.78 -5.13
Si  0.98  8.78  5.13
Si  5.32  8.76  0.00
Si -5.32 -8.76  0.00
Si  1.52 -8.78 -5.13
Si -1.52  8.78  5.13
Si -2.00  6.54 -7.69
Si  2.00 -6.54  7.69
Si  1.18 -0.04 -10.26
Si -1.18  0.04 10.26
Si  1.32  0.04 10.26
Si -1.32 -0.04 -10.26
Si -2.16 -8.74  5.13
Si  2.16  8.74 -5.13
Si -4.99 -8.75  2.56
Si  4.99  8.75 -2.56
Si  5.01 -8.75  2.56
Si -5.01  8.75 -2.56
Si -2.48 -6.60 -7.69
Si  2.48  6.60  7.69
Si  2.52 -6.60 -7.69
Si -2.52  6.60  7.69
Si  8.00 -4.36  5.13
Si -8.00  4.36 -5.13
Si  0.01  2.15 -10.26
Si -0.01 -2.15 10.26
Si  0.15  2.23 10.26
Si -0.15 -2.23 -10.26
Si -2.84  8.74 -5.13
Si  2.84 -8.74  5.13
Si  3.00  6.54 -7.69
Si -3.00 -6.54  7.69
Si -5.83  4.35 -7.69
Si  5.83 -4.35  7.69
Si -10.33 -0.01 -2.56
Si 10.33  0.01  2.56
Si  9.34 -0.02 -5.13
Si -9.34  0.02  5.13
Si -6.67  6.55 -5.13
Si  6.67 -6.55  5.13
Si  8.32  4.40  5.13
Si -8.32 -4.40 -5.13
Si -7.16  2.16 -7.69
Si  7.16 -2.16  7.69
Si  5.65  8.77  2.56
Si -5.65 -8.77 -2.56
Si  3.48  8.78  5.13
Si -3.48 -8.78 -5.13
Si  8.51 -6.57  0.00
Si -8.51  6.57  0.00
Si  2.35 -2.23 -10.26
Si -2.35  2.23 10.26
Si  9.84 -4.38  0.00
Si -9.84  4.38  0.00
Si  2.49 -2.15 10.26
Si -2.49  2.15 -10.26
Si  2.51  2.15 -10.26
Si -2.51 -2.15 10.26
Si -9.51  4.39  2.56
Si  9.51 -4.39 -2.56
Si  6.16  4.41  7.69
Si -6.16 -4.41 -7.69
Si  8.18 -6.58 -2.56
Si -8.18  6.58  2.56
Si  2.65  2.23 10.26
Si -2.65 -2.23 -10.26
Si -7.33 -2.22 -7.69
Si  7.33  2.22  7.69
Si -9.33  2.17 -5.13
Si  9.33 -2.17  5.13
Si -3.68  0.04 10.26
Si  3.68 -0.04 -10.26
Si  6.35 -4.41 -7.69
Si -6.35  4.41  7.69
Si -4.02  8.78  5.13
Si  4.02 -8.78 -5.13
Si -3.83 -0.04 -10.26
Si  3.83  0.04 10.26
Si -0.85 10.95  0.00
Si  0.85 -10.95  0.00
Si -7.15 -6.59 -5.13
Si  7.15  6.59  5.13
Si -9.49 -2.21 -5.13
Si  9.49  2.21  5.13
Si -4.50  6.54 -7.69
Si  4.50 -6.54  7.69
Si -9.83 -4.37  2.56
Si  9.83  4.37 -2.56
Si -10.16 -4.38  0.00
Si 10.16  4.38  0.00
Si  6.67  4.35 -7.69
Si -6.67 -4.35  7.69
Si  1.65 10.95  0.00
Si -1.65 -10.95  0.00
Si  7.68 -2.22 -7.69
Si -7.68  2.22  7.69
Si -8.99 -6.57  0.00
Si  8.99  6.57  0.00
Si -4.66 -8.74  5.13
Si  4.66  8.74 -5.13
Si -8.66 -6.56  2.56
Si  8.66  6.56 -2.56
Si  7.84  2.16 -7.69
Si -7.84 -2.16  7.69
Si -1.16  4.34 -10.26
Si  1.16 -4.34 10.26
Si  1.34  4.34 -10.26
Si -1.34 -4.34 10.26
Si -1.02  4.42 10.26
Si  1.02 -4.42 -10.26
Si -0.52 10.96  2.56
Si  0.52 -10.96 -2.56
Si  1.48  4.42 10.26
Si -1.48 -4.42 -10.26
Si -1.18 10.94 -2.56
Si  1.18 -10.94  2.56
Si  4.98  6.60  7.69
Si -4.98 -6.60 -7.69
Si  8.84 -6.56  2.56
Si -8.84  6.56 -2.56
Si -5.02  6.60  7.69
Si  5.02 -6.60 -7.69
Si -1.32 -10.94  2.56
Si  1.32 10.94 -2.56
Si -7.18  8.76  0.00
Si  7.18 -8.76  0.00
Si -10.84  2.20  2.56
Si 10.84 -2.20 -2.56
Si -10.17  4.37 -2.56
Si 10.17 -4.37  2.56
Si -11.17  2.19  0.00
Si 11.17 -2.19  0.00
Si  9.18 -4.40 -5.13
Si -9.18  4.40  5.13
Si  6.85 -8.77 -2.56
Si -6.85  8.77  2.56
Si  1.98 10.96  2.56
Si -1.98 -10.96 -2.56
Si  3.35 -10.95  0.00
Si -3.35 10.95  0.00
Si  5.34 -8.74  5.13
Si -5.34  8.74 -5.13
Si -8.49 -0.03 -7.69
Si  8.49  0.03  7.69
Si  7.85 -6.59 -5.13
Si -7.85  6.59  5.13
Si -5.50 -6.54  7.69
Si  5.50  6.54 -7.69
Si 11.00  2.18 -2.56
Si -11.00 -2.18  2.56
Si -11.33 -2.19  0.00
Si 11.33  2.19  0.00
Si -4.85  2.23 10.26
Si  4.85 -2.23 -10.26
Si -5.00  2.15 -10.26
Si  5.00 -2.15 10.26
Si  5.01  2.15 -10.26
Si -5.01 -2.15 10.26
Si  9.50  4.36 -5.13
Si -9.50 -4.36  5.13
Si -0.67  8.73 -7.69
Si  0.67 -8.73  7.69
Si  3.02 -10.96 -2.56
Si -3.02 10.96  2.56
Si -10.49 -4.39 -2.56
Si 10.49  4.39  2.56
Si  5.16  2.23 10.26
Si -5.16 -2.23 -10.26
Si  9.32  6.58  2.56
Si -9.32 -6.58 -2.56
Si -4.15 -10.95  0.00
Si  4.15 10.95  0.00
Si -3.52  4.42 10.26
Si  3.52 -4.42 -10.26
Si -3.66  4.34 -10.26
Si  3.66 -4.34 10.26
Si -1.19  8.79  7.69
Si  1.19 -8.79 -7.69
Si  7.82  8.76  0.00
Si -7.82 -8.76  0.00
Si -1.31 -8.79 -7.69
Si  1.31  8.79  7.69
Si -8.33 -6.55  5.13
Si  8.33  6.55 -5.13
Si  1.83  8.73 -7.69
Si -1.83 -8.73  7.69
Si -3.84 -4.34 10.26
