500
set: 1027.00  0.00  0.00
Si  0.45 -1.13  0.77
Si -0.39  1.17 -0.88
Si -1.31 -1.10 -0.84
Si  1.27  1.24  0.84
Si -2.17  1.18  0.77
Si  0.92 -0.06 -2.43
Si -0.88 -0.09  2.46
Si  2.26 -1.23 -0.81
Si  3.00  1.21 -0.83
Si -0.05 -2.31 -2.44
Si  0.00  2.30  2.49
Si -3.09 -1.19  0.90
Si  2.62  0.01  2.48
Si -0.54 -3.47  0.84
Si -2.65  0.03 -2.45
Si  0.50  3.60 -0.84
Si  1.19 -3.50 -0.83
Si -1.69  2.36 -2.46
Si  1.71 -2.40  2.44
Si  1.76  2.40 -2.44
Si -1.27  3.52  0.90
Si -1.81 -2.40  2.49
Si -0.91 -0.05 -4.06
Si  0.86  0.04  4.11
Si  3.93 -1.19  0.90
Si -2.20 -3.54 -0.88
Si -4.01  1.21 -0.83
Si  2.26  3.58  0.77
Si -2.94  3.47 -0.81
Si  0.03  2.27 -4.08
Si  3.04 -3.53  0.77
Si  0.01 -2.41  4.12
Si -2.60  0.01  4.09
Si -3.50  2.31  2.44
Si  3.52  2.31  2.44
Si  2.61 -0.04 -4.11
Si -3.50 -2.34 -2.46
Si  3.51 -2.34 -2.46
Si -4.76 -1.23 -0.81
Si  1.71 -2.35 -4.07
Si  4.36  0.03 -2.45
Si -4.40  0.01  2.48
Si  4.85  1.18  0.77
Si -1.75  2.39  4.10
Si  1.83  2.29  4.12
Si -1.78 -2.44 -4.08
Si  0.94  4.62  2.46
Si -3.98 -3.53  0.77
Si  0.81 -4.70  2.48
Si -0.84  4.74 -2.45
Si  4.07  3.47 -0.81
Si -0.89 -4.77 -2.43
Si  0.37 -1.11 -5.71
Si  3.46 -2.32  4.10
Si -0.41  1.25  5.71
Si -3.49  2.36 -4.07
Si  2.55 -4.67 -2.45
Si  5.70 -1.10 -0.84
Si  3.53  2.36 -4.07
Si -3.56 -2.32  4.10
Si  2.73  4.65 -2.43
Si -2.58  4.72  2.48
Si -5.74  1.24  0.84
Si -1.30 -1.18  5.67
Si -0.35  5.89  0.77
Si -4.76  3.58  0.77
Si  0.45 -5.94 -0.81
Si  4.42  0.01  4.09
Si -2.69 -4.79  2.46
Si -4.40 -0.04 -4.11
Si  4.81 -3.54 -0.88
Si -1.37 -5.83  0.77
Si  1.35  1.23 -5.78
Si  1.43  5.88 -0.88
Si -2.18  1.17 -5.65
Si  2.09 -1.14  5.71
Si  0.91  4.66 -4.06
Si  5.21 -2.40  2.49
Si -5.25  2.40 -2.44
Si -0.95 -4.67  4.11
Si -0.79  4.72  4.09
Si -5.31 -2.40  2.44
Si  5.32  2.36 -2.46
Si  2.12 -5.89  0.90
Si  0.80 -4.75 -4.11
Si -2.20  5.92 -0.83
Si -6.09 -0.06 -2.43
Si  6.14 -0.09  2.46
Si  3.17  1.12  5.74
Si -3.07 -1.17 -5.78
Si -3.13 -5.81 -0.84
Si  0.52  3.52  5.67
Si -6.57 -1.13  0.77
Si -2.59  4.66 -4.11
Si  2.60 -4.70  4.09
Si  3.09  5.95  0.84
Si -0.46 -3.48 -5.78
Si -4.28  4.65 -2.43
Si  6.63  1.17 -0.88
Si  5.74  3.52  0.90
Si -2.72 -4.76 -4.06
Si  2.67  4.75  4.11
Si -5.83 -3.50 -0.83
Si -1.26  3.54 -5.78
Si  1.35 -3.59  5.74
Si  4.33 -4.79  2.46
Si -4.47 -4.67 -2.45
Si  4.43  4.72  2.48
Si -3.85  1.12  5.74
Si -5.19  2.29  4.12
Si -2.22 -3.46  5.71
Si  3.89 -5.81 -0.84
Si  5.23 -2.44 -4.08
Si -5.30 -2.35 -4.07
Si  5.27  2.39  4.10
Si  2.18  3.59 -5.71
Si  3.94 -1.17 -5.78
Si -3.93  5.95  0.84
Si  3.02 -3.54 -5.65
Si  6.11 -0.05 -4.06
Si  6.48 -3.47  0.84
Si -6.16  0.04  4.11
Si -3.11  3.57  5.71
Si  0.37 -1.11  7.38
Si  0.12  7.07 -2.46
Si -6.52  3.60 -0.84
Si -0.41  1.25 -7.39
Si -0.11 -7.11  2.44
Si  4.83  1.17 -5.65
Si  1.35  1.23  7.31
Si -7.41  1.17 -0.88
Si  7.46 -1.13  0.77
Si  4.30 -4.76 -4.06
Si -1.68  7.01  2.44
Si -1.29 -1.18 -7.42
Si -4.92 -1.14  5.71
Si  4.42  4.66 -4.11
Si -4.41 -4.70  4.09
Si -4.34  4.75  4.11
Si  1.70 -7.05 -2.46
Si  1.81  7.01  2.49
Si -1.86 -7.02 -2.44
Si  4.81  5.92 -0.83
Si -4.90 -5.89  0.90
Si  6.97 -2.31 -2.44
Si  2.09 -1.14 -7.38
Si -4.00 -3.54 -5.65
Si  3.91  3.57  5.71
Si -7.01  2.30  2.49
Si  7.02  2.30  2.49
Si -7.06 -2.31 -2.44
Si -2.18  1.17  7.44
Si -3.07 -1.17  7.32
Si -6.08  4.62  2.46
Si  3.17  1.12 -7.36
Si -0.46 -3.48  7.31
Si  6.12 -4.77 -2.43
Si -0.10 -7.05 -4.07
Si  5.72 -1.18  5.67
Si  5.65 -5.83  0.77
Si -0.37  5.87 -5.65
Si -5.59  5.88 -0.88
Si  6.18  4.74 -2.45
Si -6.21 -4.70  2.48
Si  0.28 -5.85  5.71
Si -5.66  1.23 -5.78
Si  0.07  7.09  4.10
Si  4.79 -3.46  5.71
Si -1.26  3.54  7.32
Si  0.52  3.52 -7.42
Si -3.44  7.10 -2.44
Si  3.39 -7.11  2.49
Si -7.89 -0.09  2.46
Si -0.63 -8.20 -0.83
Si -1.45 -5.82 -5.71
Si  1.84  6.97 -4.08
Si  0.54  8.23  0.90
Si  1.35 -3.59 -7.36
Si -1.13  8.18 -0.81
Si -4.83  3.59 -5.71
Si  1.64 -7.03  4.10
Si  7.94 -0.06 -2.43
Si  3.58  7.10 -2.44
Si -1.68  7.07 -4.07
Si -7.55 -3.47  0.84
Si  1.22 -8.23  0.77
Si -3.62 -7.11  2.49
Si  1.41  5.96  5.71
Si  7.51  3.60 -0.84
Si -3.85  1.12 -7.36
Si  3.94 -1.17  7.32
Si -6.98  2.27 -4.08
Si -1.80 -7.12  4.12
Si  8.29  1.24  0.84
Si -2.04  5.83  5.74
Si -8.33 -1.10 -0.84
Si -2.22 -3.46 -7.39
Si  7.05  2.27 -4.08
Si -7.00 -2.41  4.12
Si  7.03 -2.41  4.12
Si  2.18  3.59  7.38
Si  2.13 -5.88 -5.78
Si -2.35 -8.18  0.84
Si  2.31  8.31 -0.84
Si  6.06 -4.67  4.11
Si -6.11  4.66 -4.06
Si -3.11 -5.89  5.67
Si -3.11  3.56 -7.38
Si  3.02 -3.54  7.44
Si -3.38  7.00  4.12
Si  3.00 -8.24 -0.88
Si  6.61  1.25  5.71
Si  6.23  4.72  4.09
Si -5.66 -3.59  5.74
Si -2.94  8.29  0.77
Si -6.65 -1.11 -5.71
Si -6.22 -4.75 -4.11
Si  3.17  5.93 -5.78
Si  7.87  0.04  4.11
Si  5.76  3.54 -5.78
Si -6.57 -5.94 -0.81
Si -7.92 -0.05 -4.06
Si  3.64  7.00  4.12
Si  3.42 -7.15 -4.08
Si  6.66  5.89  0.77
Si -4.92 -1.14 -7.38
Si  4.83  1.17  7.44
Si  8.20 -3.50 -0.83
Si -3.60 -7.15 -4.08
Si  0.86  0.04 -8.99
Si  5.15 -7.02 -2.44
Si -8.29  3.52  0.90
Si  3.91 -5.89  5.67
Si -5.20  7.01  2.49
Si  3.91  3.56 -7.38
Si -0.91 -0.05  9.04
Si -3.85  5.93 -5.78
Si  5.33  7.01  2.44
Si -4.00 -3.54  7.44
Si -5.32 -7.05 -2.46
Si -4.01 -8.24 -0.88
Si  4.07  8.29  0.77
Si -9.18  1.18  0.77
Si  0.03  2.27  9.01
Si  0.01 -2.41 -8.98
Si -6.50  3.52  5.67
Si -5.67  1.23  7.31
Si -8.71  2.36 -2.46
Si  2.61 -0.04  8.98
Si  8.72 -2.40  2.44
Si -2.60  0.01 -9.00
Si  9.28 -1.23 -0.81
Si  7.38 -1.11 -5.71
Si  6.55 -3.48 -5.78
Si  0.28 -5.85 -7.38
Si  8.78  2.40 -2.44
Si  5.72 -1.18 -7.42
Si  1.83  2.29 -8.98
Si -7.42  1.25  5.71
Si  4.66 -8.18  0.84
Si  7.82 -4.70  2.48
Si  4.79 -3.46 -7.39
Si -7.37  5.89  0.77
Si -1.75  2.39 -9.00
Si -8.83 -2.40  2.49
Si  1.71 -2.35  9.03
Si -0.37  5.87  7.44
Si -7.86  4.74 -2.45
Si -1.78 -2.44  9.01
Si -1.45 -5.82  7.38
Si  7.95  4.62  2.46
Si -4.83  3.59  7.38
Si -7.91 -4.77 -2.43
Si  7.46 -5.94 -0.81
Si  4.98  5.83  5.74
Si -4.89 -5.88 -5.78
Si -4.70  8.31 -0.84
Si  1.41  5.96 -7.39
Si -5.17  6.97 -4.08
Si -2.04  5.83 -7.36
Si  2.13 -5.88  7.32
Si  0.74 -9.38 -2.45
Si  5.22 -7.12  4.12
Si  5.34  7.07 -4.07
Si -5.37 -7.03  4.10
Si -0.77  9.42  2.48
Si -1.01 -9.41  2.48
Si  0.97  9.45 -2.45
Si  5.57 -5.82 -5.71
Si  8.73 -2.35 -4.07
Si -9.22 -3.54 -0.88
Si  3.46 -2.32 -9.00
Si  3.17  5.93  7.31
Si  9.63  0.01  2.48
Si -3.56 -2.32 -9.00
Si -5.66 -3.59 -7.36
Si  5.76  3.54  7.32
Si -3.49  2.36  9.03
Si -8.76  2.39  4.10
Si  9.27  3.58  0.77
Si -3.11 -5.89 -7.42
Si -9.67  0.03 -2.45
Si  3.53  2.36  9.03
Si -5.61  5.96  5.71
Si -2.47  9.35 -2.43
Si  6.61  1.25 -7.39
Si -7.80  4.72  4.09
Si -6.65 -1.11  7.38
Si -8.80 -2.44 -4.08
Si -4.40 -0.04  8.98
Si  8.84  2.29  4.12
Si  7.81 -4.75 -4.11
Si  4.42  0.01 -9.00
Si  2.75  9.33  2.46
Si  7.92  4.66 -4.06
Si  7.53  3.52  5.67
Si  1.21 -8.25 -5.65
Si -7.48 -3.48 -5.78
Si  0.55  8.24 -5.78
Si -0.46 -8.29  5.74
Si -5.79 -8.23  0.77
Si -7.97 -4.67  4.11
Si  5.89  8.18 -0.81
Si 10.02  1.21 -0.83
Si  2.51 -9.50  2.46
Si -8.31 -1.18  5.67
Si -1.30  8.27  5.71
Si -2.71 -9.47 -2.43
Si -0.95 -4.67 -8.99
Si -3.85  5.93  7.31
Si -6.89  7.07 -2.46
Si  0.80 -4.75  8.98
Si -0.79  4.72 -9.00
Si  6.91 -7.11  2.44
Si  0.91  4.66  9.04
Si -10.10 -1.19  0.90
Si  8.37  1.23 -5.78
Si -8.38 -5.83  0.77
Si  3.91 -5.89 -7.42
Si -0.78  9.37 -4.11
Si  2.33  8.23  5.67
Si -2.27 -8.19 -5.78
Si  0.79 -9.40  4.09
Si  8.44  5.88 -0.88
Si  1.03  9.43  4.09
Si  7.14  7.07 -2.46
Si -7.12 -7.11  2.44
Si -1.01 -9.46 -4.11
Si  2.98 -8.17  5.71
Si  6.55 -3.48  7.31
Si  6.39 -8.20 -0.83
Si -2.59  4.66  8.98
Si -9.61  0.01  4.09
Si  9.63 -0.04 -4.11
Si -6.50  3.52 -7.42
Si  2.60 -4.70 -9.00
Si  7.38 -1.11  7.38
Si -6.48  8.23  0.90
Si  2.67  4.75 -8.99
Si -3.02  8.30 -5.71
Si  6.65  5.87 -5.65
Si -7.42  1.25 -7.39
Si -4.26  9.33  2.46
Si  2.72  9.36 -4.06
Si -2.72 -4.76  9.04
Si -9.96  3.47 -0.81
Si -4.89 -5.88  7.32
Si -6.74 -5.85  5.71
Si  2.48 -9.47 -4.06
Si -2.77 -9.37  4.11
Si -2.53  9.46  4.11
Si -5.19  2.29 -8.98
Si  4.98  5.83 -7.36
Si  0.30 -10.60  0.90
Si -0.39 10.63 -0.83
Si -0.88 -0.09 -10.63
Si 10.05 -3.53  0.77
Si  4.55  9.35 -2.43
Si  6.92 -7.05 -4.07
Si  4.31 -9.47 -2.43
Si -8.28  3.54 -5.78
Si  5.27  2.39 -9.00
Si  0.92 -0.06 10.66
Si  5.23 -2.44  9.01
Si  1.46 10.60  0.77
Si -5.30 -2.35  9.03
Si -6.95  7.09  4.10
Si -4.04 -8.17  5.71
Si  2.07 -10.52 -0.84
Si  8.37 -3.59  5.74
Si -1.37 -10.65 -0.81
Si -4.50 -9.50  2.46
Si -7.12 -7.05 -4.07
Si  9.11 -1.14  5.71
Si  7.08  7.09  4.10
Si  3.99  8.30 -5.71
Si  0.00  2.30 -10.60
Si -9.20  1.17 -5.65
Si -2.12 10.65  0.84
Si -6.16  0.04 -8.99
Si -0.05 -2.31 10.65
Si  9.13 -5.89  0.90
Si  6.11 -0.05  9.04
Si  9.57 -4.67 -2.45
Si  5.57 -5.82  7.38
Si  2.62  0.01 -10.61
Si  7.30 -5.85  5.71
Si -2.65  0.03 10.64
Si -9.60  4.72  2.48
Si -9.22  5.92 -0.83
Si -7.38  5.87 -5.65
Si -1.81 -2.40 -10.60
Si -5.61  5.96 -7.39
Si -7.48 -3.48  7.31
Si -1.69  2.36 10.64
Si  0.55  8.24  7.32
Si -10.51  2.31  2.44
Si -3.18 -10.54  0.77
Si -4.68  8.23  5.67
Si 10.94 -1.19  0.90
Si  4.42  4.66  8.98
Si -4.34  4.75 -8.99
Si -10.52 -2.34 -2.46
Si 10.53  2.31  2.44
Si  1.71 -2.40 -10.66
Si 10.53 -2.34 -2.46
Si  1.76  2.40 10.65
Si -4.29  9.36 -4.06
Si  9.75  4.65 -2.43
Si -4.41 -4.70 -9.00
Si  4.25 -9.37  4.11
Si  4.30 -4.76  9.04
Si  4.74 -8.19 -5.78
Si -0.46 -8.29 -7.36
Si -9.71 -4.79  2.46
Si  3.24 10.59 -0.88
Si -11.03  1.21 -0.83
Si  7.53  3.52 -7.42
Si -1.29  8.27 -7.38
Si  1.21 -8.25  7.44
Si  8.37  1.23  7.31
Si  7.55  8.23  0.90
Si -8.31 -1.18 -7.42
Si -2.28 -8.19  7.31
Si -7.64 -8.20 -0.83
Si  4.49  9.46  4.11
Si  3.83 -10.54  0.77
Si -4.53 -9.47 -4.06
Si -3.78 10.59 -0.88
Si  2.33  8.23 -7.42
Si -9.24 -3.46  5.71
Si  9.20  3.59 -5.71
Si  2.98 -8.17 -7.39
Si  6.01 -9.41  2.48
Si -8.70  7.01  2.44
Si -3.50 -2.34 10.64
Si -9.61  4.66 -4.11
Si  3.51 -2.34 10.64
Si -3.50  2.31 -10.66
Si -0.10 -7.05  9.03
Si  0.07  7.09 -9.00
Si  3.52  2.31 -10.66
Si  9.62 -4.70  4.09
Si  8.71 -7.05 -2.46
Si -6.04  9.45 -2.45
Si 10.47 -2.32  4.10
Si -4.40  0.01 -10.61
Si  4.36  0.03 10.64
Si -10.51  2.36 -4.07
Si -3.02  8.30  7.38
Si  1.64 -7.03 -9.00
Si  1.84  6.97  9.01
Si 10.54  2.36 -4.07
Si  9.69  4.75  4.11
Si  8.83  7.01  2.49
Si -6.28 -9.38 -2.45
Si -5.81 -8.25 -5.65
Si  5.72  8.27  5.71
Si -9.73 -4.76 -4.06
Si -10.99 -3.53  0.77
Si -8.15  8.18 -0.81
Si  6.25  9.42  2.48
Si -10.57 -2.32  4.10
Si -8.88 -7.02 -2.44
Si -6.74 -5.85 -7.38
Si  6.65  5.87  7.44
Si -1.68  7.07  9.03
Si -8.28  3.54  7.32
Si -1.80 -7.12 -8.98
Si -6.99  2.27  9.01
Si  0.94  4.62 -10.63
Si  0.81 -4.70 -10.61
Si -7.00 -2.41 -8.98
Si 11.38  0.03 -2.45
Si 11.09  3.47 -0.81
Si -4.94 -10.52 -0.84
Si  7.03 -2.41 -8.98
Si  7.05  2.27  9.01
Si  8.24 -8.23  0.77
Si -11.41  0.01  2.48
