500
set: 701.00  0.00  0.00
Si  0.69  0.18  1.67
Si -1.62 -0.47  1.42
Si -0.06 -2.22 -0.13
Si  1.63  1.63  0.07
Si -2.25  0.62 -0.41
Si  1.47 -0.26 -2.41
Si  2.12 -1.77  0.92
Si -0.51  2.69 -1.02
Si -2.14 -1.91 -1.20
Si -0.53 -1.30 -3.22
Si  3.62  0.23  0.07
Si  0.36 -1.81  3.69
Si  2.63  2.17 -2.40
Si -2.00  3.44  1.69
Si  3.33  1.02  2.68
Si  0.57 -3.86  2.26
Si  3.21  3.22  0.11
Si  3.33 -1.56 -2.74
Si -3.88 -2.46  0.61
Si -1.09 -4.51  0.40
Si -4.24  2.16 -0.00
Si  3.45 -3.27 -0.27
Si -4.75 -0.32 -0.40
Si -3.33  2.21  2.75
Si -1.20  2.52  4.03
Si  0.96  4.84  0.51
Si -0.73 -3.66 -3.38
Si  0.17  3.89 -3.35
Si -3.75 -0.66  3.51
Si  3.05 -2.26  3.63
Si -2.92  4.01 -1.73
Si -2.87 -3.03 -3.21
Si  2.02  1.53  4.65
Si -0.34 -5.13 -1.48
Si -2.48 -4.05  2.52
Si -0.86 -0.73  5.28
Si -2.11  3.14 -3.94
Si  2.13 -0.67 -5.00
Si -0.86 -0.73 -5.37
Si -0.40  4.85  3.00
Si -0.34  5.53 -1.48
Si -3.66 -4.45 -0.68
Si  2.32 -4.98 -1.87
Si  5.15 -0.11 -2.75
Si  2.94 -3.59 -3.60
Si  0.96 -5.82  0.51
Si  5.91 -0.32 -0.40
Si -3.06  0.88 -5.09
Si  4.98  2.58 -2.23
Si  2.13 -0.67  5.66
Si -3.24 -2.62  4.45
Si -3.94  4.54  1.18
Si  2.96  4.83  2.39
Si -5.51 -0.11 -2.75
Si -5.18 -2.70 -2.03
Si -1.09  6.15  0.40
Si -0.69 -3.48  5.28
Si  2.32  5.68 -1.87
Si -3.06  0.88  5.57
Si  5.16 -2.64  2.74
Si  5.48 -2.70 -2.03
Si -0.69 -3.48 -5.38
Si  4.69 -0.50  4.45
Si  2.02  1.53 -6.01
Si -0.40 -5.81  3.00
Si  4.62  1.41 -4.51
Si -5.67  2.58 -2.23
Si -4.67 -1.81 -4.39
Si -5.50 -2.64  2.74
Si  3.05  3.69  4.71
Si  6.41  2.16 -0.00
Si  4.53  4.96 -1.26
Si  4.82 -4.71  1.40
Si -3.44  4.79  3.58
Si  2.96 -5.83  2.39
Si  5.18  2.48  3.98
Si -7.03  0.23  0.07
Si  0.50  5.23  4.78
Si  0.57  6.80  2.26
Si -1.20  2.52 -6.63
Si  0.36 -1.81 -6.97
Si -5.48  2.48  3.98
Si  6.78 -2.46  0.61
Si -3.66  6.21 -0.68
Si  3.13 -4.40  4.83
Si  0.50 -5.43  4.78
Si -3.94 -6.12  1.18
Si  4.53 -5.70 -1.26
Si -4.26 -5.23 -3.02
Si -5.96 -0.50  4.45
Si -2.92 -6.65 -1.73
Si -3.24 -2.62 -6.21
Si -2.48  6.60  2.52
Si -4.26  5.43 -3.02
Si  0.17 -6.76 -3.35
Si -0.53 -1.30  7.43
Si -5.83 -4.71  1.40
Si  3.05  3.69 -5.94
Si  5.99 -1.81 -4.39
Si -6.04  1.41 -4.51
Si -2.00 -7.21  1.69
Si -3.44 -5.87  3.58
Si -2.11  3.14  6.72
Si -4.50  3.98 -4.85
Si  6.90 -0.66  3.51
Si  4.82  5.95  1.40
Si  4.69 -0.50 -6.21
Si -0.73  7.00 -3.38
Si  4.62  1.41  6.15
Si -7.33  1.02  2.68
Si  0.50  5.23 -5.88
Si -7.21 -3.27 -0.27
Si  3.13 -4.40 -5.83
Si -7.33 -1.56 -2.74
Si -6.13  4.96 -1.26
Si  3.05 -2.26 -7.03
Si  0.50 -5.43 -5.88
Si -4.67 -1.81  6.27
Si -0.51 -7.97 -1.02
Si -3.75 -0.66 -7.15
Si  3.21 -7.44  0.11
Si -7.45  3.22  0.11
Si  7.33  2.21  2.75
Si  3.45  7.38 -0.27
Si -0.73 -3.66  7.28
Si  6.72  4.54  1.18
Si -5.05 -4.19  4.95
Si  0.17  3.89  7.31
Si  7.00 -4.45 -0.68
Si -4.50  3.98  5.81
Si  1.47 -0.26  8.24
Si -0.06  8.44 -0.13
Si  8.41  0.62 -0.41
Si  2.94 -3.59  7.05
Si -5.83  5.95  1.40
Si  2.94  7.07 -3.60
Si -6.13 -5.70 -1.26
Si  3.13  6.25  4.83
Si -2.87 -3.03  7.45
Si  5.60 -4.19  4.95
Si -5.96 -0.50 -6.21
Si -8.03  2.17 -2.40
Si  3.33  1.02 -7.97
Si -5.05 -4.19 -5.71
Si -6.04  1.41  6.15
Si -7.61 -2.26  3.63
Si  3.33 -1.56  7.92
Si -2.11 -7.52 -3.94
Si -2.87  7.63 -3.21
Si -8.53 -1.77  0.92
Si  6.16  3.98 -4.85
Si  6.40 -5.23 -3.02
Si  5.18  2.48 -6.67
Si  8.52 -1.91 -1.20
Si  5.99 -1.81  6.27
Si -3.33  2.21 -7.91
Si  7.74  4.01 -1.73
Si  6.40  5.43 -3.02
Si -0.69  7.17  5.28
Si  2.63  2.17  8.26
Si  7.79 -3.03 -3.21
Si  3.05 -6.97  4.71
Si -5.48  2.48 -6.67
Si -0.69  7.17 -5.38
Si  0.69  0.18 -8.99
Si  5.60 -4.19 -5.71
Si  7.42 -2.62  4.45
Si -0.40  4.85 -7.66
Si -2.14  8.74 -1.20
Si -3.88  8.19  0.61
Si  3.13  6.25 -5.83
Si -1.20 -8.13  4.03
Si  9.04 -0.47  1.42
Si  6.72 -6.12  1.18
Si  1.63 -9.03  0.07
Si -9.03  1.63  0.07
Si  2.12  8.88  0.92
Si  7.60  0.88 -5.09
Si  2.63 -8.49 -2.40
Si -3.44  4.79 -7.08
Si -7.71 -3.59 -3.60
Si  0.57 -3.86 -8.39
Si  6.16  3.98  5.81
Si  7.21  4.79  3.58
Si  7.00  6.21 -0.68
Si -1.62 -0.47 -9.23
Si -7.69  4.83  2.39
Si -4.50 -6.68 -4.85
Si -2.48 -4.05 -8.14
Si  5.15 -0.11  7.91
Si  7.60  0.88  5.57
Si  8.18 -4.05  2.52
Si  8.66  3.44  1.69
Si -3.33 -8.45  2.75
Si -4.24 -8.50 -0.00
Si -9.19 -0.26 -2.41
Si -5.05  6.46  4.95
Si  0.36  8.84  3.69
Si -0.40 -5.81 -7.66
Si -5.51 -0.11  7.91
Si  3.05  8.39  3.63
Si  3.05 -6.97 -5.94
Si -7.61  3.69  4.71
Si -5.18  7.96 -2.03
Si -3.24  8.04  4.45
Si  4.98 -8.08 -2.23
Si -2.00  3.44 -8.97
Si -3.44 -5.87 -7.08
Si  5.16 -2.64 -7.92
Si  5.48  7.96 -2.03
Si  5.60  6.46  4.95
Si -2.14 -1.91  9.45
Si -8.34 -4.98 -1.87
Si -0.53  9.35 -3.22
Si -8.53 -0.67 -5.00
Si  5.16  8.01  2.74
Si  8.55  3.14 -3.94
Si -8.64  1.53  4.65
Si -4.50 -6.68  5.81
Si -7.69 -5.83  2.39
Si  6.90 -0.66 -7.15
Si  0.17 -6.76  7.31
Si  7.21 -5.87  3.58
Si -7.53 -4.40  4.83
Si -5.50 -2.64 -7.92
Si -5.05  6.46 -5.71
Si  7.42 -2.62 -6.21
Si -0.51  2.69  9.64
Si  2.96  4.83 -8.27
Si  3.33  9.10 -2.74
Si -5.50  8.01  2.74
Si -9.96  0.18  1.67
Si -5.67 -8.08 -2.23
Si  2.12 -1.77 -9.74
Si -0.73  7.00  7.28
Si  4.98  2.58  8.43
Si -4.26 -5.23  7.63
Si -2.92  4.01  8.93
Si -8.53 -0.67  5.66
Si -8.34  5.68 -1.87
Si  5.60  6.46 -5.71
Si -4.26  5.43  7.63
Si -2.25 -10.03 -0.41
Si  6.16 -6.68 -4.85
Si -2.11 -7.52  6.72
Si -7.21  7.38 -0.27
Si -7.61  3.69 -5.94
Si  7.74 -6.65 -1.73
Si  2.32 -4.98  8.78
Si  2.94  7.07  7.05
Si -1.62 10.19  1.42
Si -5.18 -2.70  8.63
Si  2.02 -9.13  4.65
Si  5.18 -8.18  3.98
Si -5.67  2.58  8.43
Si -7.53 -4.40 -5.83
Si -2.25  0.62 10.25
Si -0.34 -5.13  9.18
Si -7.45 -7.44  0.11
Si  2.96 -5.83 -8.27
Si  3.33 -9.64  2.68
Si 10.15  2.69 -1.02
Si -1.20 -8.13 -6.63
Si  5.48 -2.70  8.63
Si  9.56 -4.51  0.40
Si  9.46  2.52  4.03
Si -7.61 -2.26 -7.03
Si -5.48 -8.18  3.98
Si  0.69 -10.48  1.67
Si -8.64  1.53 -6.01
Si  6.41 -8.50 -0.00
Si  6.78  8.19  0.61
Si -3.24  8.04 -6.21
Si 10.12 -1.30 -3.22
Si  2.32  5.68  8.78
Si -0.34  5.53  9.18
Si -0.06 -2.22 10.53
Si -2.48  6.60 -8.14
Si  1.47 10.40 -2.41
Si  6.16 -6.68  5.81
Si  8.18  6.60  2.52
Si  0.57  6.80 -8.39
Si 10.59 -2.22 -0.13
Si  1.63  1.63 -10.59
Si -9.70  4.84  0.51
Si -7.33  1.02 -7.97
Si -7.33 -1.56  7.92
Si -7.53  6.25  4.83
Si -4.67  8.85 -4.39
Si -10.72 -2.22 -0.13
Si  1.63  1.63 10.72
Si  0.69 10.84  1.67
Si  7.33  2.21 -7.91
Si -0.06 -2.22 -10.79
Si -10.09 -3.86  2.26
Si  3.62 -10.42  0.07
Si -2.87  7.63  7.45
Si -3.88 -2.46 -10.04
Si -7.71 -3.59  7.05
Si -7.71  7.07 -3.60
Si -10.30 -1.81  3.69
Si  9.92 -3.66 -3.38
Si  2.02 -9.13 -6.01
Si  9.79 -0.73  5.28
Si  7.21  4.79 -7.08
Si  3.62  0.23 -10.58
Si  9.79 -0.73 -5.37
Si  7.79 -3.03  7.45
Si -3.94  4.54 -9.47
Si -3.75  9.99  3.51
Si  6.40 -5.23  7.63
Si -1.09 -4.51 -10.26
Si  0.36  8.84 -6.97
Si -0.86  9.92  5.28
Si  1.47 -10.91 -2.41
Si  4.62 -9.25 -4.51
Si  0.96  4.84 -10.15
Si -2.25  0.62 -11.06
Si -4.75 -0.32 10.26
Si -0.86  9.92 -5.37
Si  8.55  3.14  6.72
Si -9.70 -5.82  0.51
Si  3.62  0.23 10.73
Si -1.62 -11.13  1.42
Si  6.40  5.43  7.63
Si -7.61 -6.97  4.71
Si  2.13  9.98 -5.00
Si  7.79  7.63 -3.21
Si  3.05  8.39 -7.03
Si  9.56  6.15  0.40
Si -4.75 10.33 -0.40
Si -7.53  6.25 -5.83
Si  8.66 -7.21  1.69
Si  3.45 -3.27 10.39
Si -3.06 -9.77 -5.09
Si  4.82 -4.71 -9.26
Si 11.35  0.18  1.67
Si  3.62 10.89  0.07
Si  3.21  3.22 -10.55
Si -2.92 -6.65  8.93
Si -2.25 11.28 -0.41
Si  7.33 -8.45  2.75
Si -3.66 -4.45  9.97
Si -11.16  2.69 -1.02
Si  5.99  8.85 -4.39
Si  4.53  4.96  9.40
Si 10.32 -5.13 -1.48
Si -3.06 -9.77  5.57
Si -4.24  2.16 10.65
Si  2.13  9.98  5.66
Si -4.24  2.16 -10.66
Si -10.49  3.89 -3.35
Si -2.00 -7.21 -8.97
Si  7.21 -5.87 -7.08
Si  3.21  3.22 10.76
Si -11.19 -1.30 -3.22
Si -8.03  2.17  8.26
Si  0.96 -5.82 -10.15
Si 10.26  4.85  3.00
Si 11.02 -1.81  3.69
Si  5.18 -8.18 -6.67
Si 10.32  5.53 -1.48
Si  9.97 -3.48  5.28
Si -4.67  8.85  6.27
Si  7.42  8.04  4.45
Si  9.46  2.52 -6.63
Si  5.91 -0.32 10.26
Si  9.97 -3.48 -5.38
Si  4.53 -5.70  9.40
Si -5.48 -8.18 -6.67
Si -7.61  8.39  3.63
Si  2.12 -1.77 11.58
Si -7.61 -6.97 -5.94
Si  5.91 10.33 -0.40
Si  3.45 -3.27 -10.93
Si -5.83 -4.71 -9.26
Si -8.03 -8.49 -2.40
Si -6.04 -9.25 -4.51
Si -3.94 -6.12 -9.47
Si -0.53  9.35  7.43
Si -4.75 -10.98 -0.40
Si 10.82  3.89 -3.35
Si -1.09 -4.51 11.06
Si -0.51  2.69 -11.68
Si -7.33  9.10 -2.74
Si -1.09  6.15 -10.26
Si  4.82  5.95 -9.26
Si  4.62 -9.25  6.15
Si -4.75 -0.32 -11.05
Si -3.33 -8.45 -7.91
Si  4.69 10.15  4.45
Si  8.55 -7.52 -3.94
Si  5.15 10.54 -2.75
Si 11.23 -3.86  2.26
Si  2.63 -8.49  8.26
Si 10.26 -5.81  3.00
Si -3.88 -2.46 11.27
Si -1.62 -0.47 12.08
Si -2.14 -1.91 -11.86
Si -5.51 10.54 -2.75
Si  0.96  4.84 11.17
Si -10.99 -5.13 -1.48
Si  8.18 -4.05 -8.14
Si  5.15 -10.77 -2.75
Si  8.52  8.74 -1.20
Si -6.13  4.96  9.40
Si -7.69  4.83 -8.27
Si -3.66  6.21  9.97
Si -9.19 -0.26  8.24
Si  0.69  0.18 12.33
Si -8.53  8.88  0.92
Si  6.78 -2.46 -10.04
Si -12.27 -0.47  1.42
Si 12.13 -0.26 -2.41
Si -10.09  6.80  2.26
Si -10.15  5.23  4.78
Si  5.99  8.85  6.27
Si  5.16  8.01 -7.92
Si -10.99  5.53 -1.48
Si 12.28  1.63  0.07
Si  1.63 12.29  0.07
Si -0.53 -11.96 -3.22
Si -7.33 -9.64  2.68
Si -5.51 -10.77 -2.75
Si -11.39 -3.66 -3.38
Si -3.75 -11.32  3.51
Si  3.33 11.68  2.68
Si -11.05  4.85  3.00
Si -5.83  5.95 -9.26
Si -10.15 -5.43  4.78
Si  6.72  4.54 -9.47
Si  7.74  4.01  8.93
Si  5.91 -10.98 -0.40
Si  3.33  9.10  7.92
Si -0.51 -7.97  9.64
Si -5.50  8.01 -7.92
Si  5.91 -0.32 -11.05
Si  2.13 -11.33 -5.00
Si -10.30 -1.81 -6.97
Si -7.03 -10.42  0.07
Si  7.42  8.04 -6.21
Si -6.13 -5.70  9.40
Si -0.86 -11.39  5.28
Si -5.96 10.15  4.45
Si -11.75 -4.51  0.40
Si 11.62  4.84  0.51
Si  9.92  7.00 -3.38
Si -7.71  7.07  7.05
Si  6.41  2.16 10.65
Si -0.86 -11.39 -5.37
Si  6.41  2.16 -10.66
Si  0.96 -5.82 11.17
Si 10.12 -1.30  7.43
Si -6.04 -9.25  6.15
Si  6.90  9.99  3.51
Si  2.12 -12.43  0.92
Si -11.52 -0.73  5.28
Si  4.98 -8.08  8.43
Si -1.09  6.15 11.06
Si -7.69 -5.83 -8.27
Si -7.03  0.23 -10.58
Si -3.66 -4.45 -11.34
Si -11.52 -0.73 -5.37
Si -9.03 -9.03  0.07
Si -11.86  2.52  4.03
Si  4.69 10.15 -6.21
Si -2.14 -12.57 -1.20
Si -5.18  7.96  8.63
Si -7.03  0.23 10.73
Si  9.92 -3.66  7.28
Si -11.05 -5.81  3.00
Si  2.13 -11.33  5.66
Si -10.15  5.23 -5.88
Si -3.75  9.99 -7.15
Si  8.52 -1.91  9.45
Si -0.06 -12.87 -0.13
Si  4.69 -11.16  4.45
Si -10.49 -6.76 -3.35
Si -12.90  0.62 -0.41
Si -10.15 -5.43 -5.88
Si  9.04 -0.47 -9.23
Si  8.66  3.44 -8.97
Si 12.78 -1.77  0.92
Si 10.15 -7.97 -1.02
Si  3.33 -9.64 -7.97
Si  5.48  7.96  8.63
Si  3.33 -12.22 -2.74
Si -7.03 10.89  0.07
Si -2.00  3.44 12.34
Si  7.00 -4.45  9.97
Si -3.06 11.54 -5.09
Si -5.67 -8.08  8.43
Si -11.34 -3.48  5.28
Si -12.80 -1.91 -1.20
Si 11.62 -5.82  0.51
Si  0.36 -12.47  3.69
Si -11.34 -3.48 -5.38
Si -2.14  8.74  9.45
Si -7.21 -3.27 10.39
Si -8.53 -1.77 -9.74
