500
set: 1579.00  0.00  0.00
Si  0.03 -0.47 -0.87
Si  0.30  0.97  2.01
Si -2.11 -1.08 -0.21
Si -0.88  2.19 -0.68
Si  2.21  1.16 -0.48
Si -1.67 -1.04  1.73
Si  1.42 -1.34  2.15
Si  0.99  2.87  0.89
Si  0.01 -2.28 -2.52
Si -0.22 -3.29  0.89
Si -0.74  1.86 -2.81
Si -3.29  1.16 -0.48
Si  3.39 -1.08 -0.21
Si  2.35  1.57 -2.39
Si  0.71 -0.38 -3.65
Si -3.15  1.57 -2.39
Si -1.81 -0.72  3.85
Si  3.83 -1.04  1.73
Si -2.10 -3.96 -0.68
Si  1.27 -1.75  4.05
Si  0.32  2.77  3.67
Si  1.23  3.87 -2.52
Si -4.08 -1.34  2.15
Si -0.90 -3.38  3.67
Si  0.99 -5.00 -0.48
Si  4.61  2.19 -0.68
Si -0.89  5.07 -0.21
Si -1.82  2.17  4.33
Si -1.18  1.83 -4.74
Si  3.40 -3.96 -0.68
Si  1.13 -4.58 -2.39
Si  3.68 -0.72  3.85
Si -4.50  2.87  0.89
Si -0.46  5.11  1.73
Si  0.06 -0.04  5.42
Si -1.17 -1.05 -5.21
Si -1.96 -4.29 -2.81
Si -5.46 -0.47 -0.87
Si  5.53 -0.47 -0.87
Si -0.92 -5.19  2.01
Si -5.20  0.97  2.01
Si  1.92 -2.09 -5.02
Si  4.76  1.86 -2.81
Si  1.25  5.68 -0.87
Si  2.63  4.82  2.15
Si -2.86  4.82  2.15
Si  0.96  2.44 -5.41
Si -4.79 -0.38 -3.65
Si  3.67  2.17  4.33
Si -4.22 -1.75  4.05
Si  5.79  0.97  2.01
Si  3.54 -4.29 -2.81
Si  5.28 -3.29  0.89
Si -4.27  3.87 -2.52
Si  2.46 -3.99  4.33
Si -5.49 -2.28 -2.52
Si  5.51 -2.28 -2.52
Si  2.49  4.40  4.05
Si -3.57 -2.09 -5.02
Si -0.25 -3.72 -5.41
Si -3.04 -3.99  4.33
Si -5.72 -3.29  0.89
Si  4.32  1.83 -4.74
Si -0.60  5.44  3.85
Si -3.00  4.40  4.05
Si -4.50 -5.00 -0.48
Si -4.36 -4.58 -2.39
Si -6.38  2.19 -0.68
Si -1.39  2.20  6.26
Si  4.60 -3.38  3.67
Si -1.18 -6.63 -0.87
Si -2.39 -4.33 -4.74
Si  4.60  5.07 -0.21
Si  4.33 -1.05 -5.21
Si -0.64 -1.94  6.55
Si -2.36  4.06 -5.02
Si -5.18  2.77  3.67
Si -6.24  1.86 -2.81
Si  1.93  5.77 -3.65
Si  3.10 -4.33 -4.74
Si  0.94  0.63 -7.06
Si -4.25  5.68 -0.87
Si  6.49  2.87  0.89
Si  1.70  1.91  6.68
Si  3.14  4.06 -5.02
Si  4.58 -5.19  2.01
Si  6.21 -0.38 -3.65
Si  0.05  5.10 -5.21
Si  6.91 -1.34  2.15
Si  5.04  5.11  1.73
Si  5.82  2.77  3.67
Si  2.06 -1.68 -6.92
Si -7.17 -1.04  1.73
Si -4.53  2.44 -5.41
Si -0.51 -6.54 -3.65
Si -1.02 -1.38 -7.34
Si  1.51  7.12  2.01
Si  2.17 -7.24 -0.21
Si -2.07  7.31 -0.48
Si -5.43 -0.04  5.42
Si -7.60 -1.08 -0.21
Si -3.57  5.77 -3.65
Si  5.56 -0.04  5.42
Si  0.20 -7.49  2.15
Si  7.70  1.16 -0.48
Si  4.11  2.20  6.26
Si  0.58  4.21  6.55
Si -2.60 -3.95  6.26
Si  2.61 -7.20  1.73
Si -3.43 -1.68 -6.92
Si -3.79  1.91  6.68
Si  0.48 -4.24  6.68
Si -2.89 -7.20  1.73
Si  2.89 -3.95  6.26
Si  4.31 -6.63 -0.87
Si -3.32 -7.24 -0.21
Si -5.95  5.11  1.73
Si  6.77 -1.75  4.05
Si  3.42  7.31 -0.48
Si -6.39 -3.38  3.67
Si  6.72  3.87 -2.52
Si -6.39  5.07 -0.21
Si  6.49 -5.00 -0.48
Si -0.61 -0.13  8.20
Si  2.46 -6.87  3.85
Si  4.90  5.44  3.85
Si  1.28  6.11  5.42
Si -7.31 -0.72  3.85
Si -1.93  7.73 -2.39
Si -1.15 -6.20  5.42
Si  7.84  1.57 -2.39
Si  0.33  8.35 -0.68
Si  4.86 -1.94  6.55
Si -6.67  1.83 -4.74
Si  5.25 -3.72 -5.41
Si  6.63 -4.58 -2.39
Si -3.98  7.12  2.01
Si -4.55  0.63 -7.06
Si -3.03 -6.87  3.85
Si -6.42 -5.19  2.01
Si  0.48  8.02 -2.81
Si -6.67 -1.05 -5.21
Si -2.22  4.48 -6.92
Si -7.60 -3.96 -0.68
Si  4.47 -1.38 -7.34
Si  1.64  2.53 -8.18
Si -5.75 -3.72 -5.41
Si  0.19  4.77 -7.34
Si  6.46  2.44 -5.41
Si -7.32  2.17  4.33
Si  3.56  7.73 -2.39
Si  1.56  1.49  8.59
Si  6.75  5.68 -0.87
Si  3.28  4.48 -6.92
Si -8.79  1.16 -0.48
Si  0.06 -7.91  4.05
Si -1.21 -8.44 -2.52
Si -1.53  2.53  8.39
Si  8.88 -1.08 -0.21
Si  0.42 -3.63 -8.18
Si -0.27 -5.53 -7.06
Si  4.99 -6.54 -3.65
Si -6.09  5.44  3.85
Si -7.45 -4.29 -2.81
Si -5.45  5.10 -5.21
Si -8.64  1.57 -2.39
Si  5.54  5.10 -5.21
Si -6.13 -1.94  6.55
Si -4.22  6.11  5.42
Si  7.42 -2.09 -5.02
Si -4.92  4.21  6.55
Si -2.38 -7.21 -5.21
Si  0.04  7.98 -4.74
Si  2.74 -0.74  8.86
Si -2.75 -0.74  8.86
Si  4.34 -6.20  5.42
Si  2.21  9.02  0.89
Si -5.01 -4.24  6.68
Si -3.85  2.53 -8.18
Si -0.61  8.32  4.33
Si -5.29 -7.49  2.15
Si  3.11 -7.21 -5.21
Si -6.68 -6.63 -0.87
Si -1.46 -1.42 -9.28
Si  9.32 -1.04  1.73
Si -2.75 -3.62  8.39
Si  2.75 -3.62  8.39
Si  4.88 -0.13  8.20
Si -6.88  2.20  6.26
Si -3.94  1.49  8.59
Si  6.44  0.63 -7.06
Si -6.00 -6.54 -3.65
Si -1.44 -9.44  0.89
Si  3.97  2.53  8.39
Si -3.29  9.02  0.89
Si  5.70 -7.49  2.15
Si  0.71 -8.25 -5.02
Si  8.13  4.82  2.15
Si  8.89 -3.96 -0.68
Si  1.53  8.93  3.67
Si  0.34 -4.66  8.59
Si  4.29 -8.44 -2.52
Si -5.16  8.35 -0.68
Si -5.02  8.02 -2.81
Si  6.08  4.21  6.55
Si -8.36  4.82  2.15
Si  7.95 -3.99  4.33
Si -9.57 -1.34  2.15
Si -6.52 -1.38 -7.34
Si  5.98 -4.24  6.68
Si -0.24  1.85 -9.75
Si -2.64  0.82 -9.55
Si  7.99  4.40  4.05
Si  9.18 -0.72  3.85
Si  0.68 -0.81 -9.94
Si  2.85  0.82 -9.55
Si  7.20  1.91  6.68
Si  2.16  6.78 -7.06
Si  7.42  5.77 -3.65
Si -7.85  4.06 -5.02
Si -7.89 -4.33 -4.74
Si  0.60  6.02  8.20
Si  7.01  7.12  2.01
Si  5.83  8.35 -0.68
Si  4.04 -1.42 -9.28
Si -6.11 -0.13  8.20
Si -5.30  4.77 -7.34
Si -5.07 -3.63 -8.18
Si  4.06 -9.44  0.89
Si -3.34  6.78 -7.06
Si 10.11  2.19 -0.68
Si  9.17  2.17  4.33
Si -8.54 -3.99  4.33
Si  2.18 -10.12 -0.68
Si  5.22 -5.53 -7.06
Si  2.18  8.59 -5.41
Si  7.56 -1.68 -6.92
Si  5.97  8.02 -2.81
Si  9.04 -4.29 -2.81
Si -8.50  4.40  4.05
Si -5.44 -7.91  4.05
Si -0.24  4.73 -9.28
Si -0.87 -2.95  9.96
Si -2.11 -9.53  3.67
Si -3.96  8.93  3.67
Si -10.00  2.87  0.89
Si  5.69  4.77 -7.34
Si -0.17  8.36  6.26
Si  0.35  3.21  9.96
Si  5.55 -7.91  4.05
Si  0.85 -7.83 -6.92
Si -1.83 -6.29  8.20
Si -1.54  5.41  8.86
Si -7.57  7.31 -0.48
Si  7.67 -7.24 -0.21
Si -9.07 -2.09 -5.02
Si  4.89  8.32  4.33
Si -1.85 -8.10  6.55
Si -6.65 -6.20  5.42
Si  6.78  6.11  5.42
Si  2.44 10.03 -2.52
Si -5.77 -5.53 -7.06
Si -3.32 -10.12 -0.68
Si -9.72 -1.75  4.05
Si -3.31  8.59 -5.41
Si  5.92 -3.63 -8.18
Si  8.60 -4.33 -4.74
Si -1.45 -4.30 -9.75
Si -2.24 -7.54 -7.34
Si  3.38 -9.53  3.67
Si -5.46  7.98 -4.74
Si -4.79 -8.25 -5.02
Si  8.63  4.06 -5.02
Si -3.05 10.03 -2.52
Si -2.58  8.06  6.68
Si 10.25  1.86 -2.81
Si -9.77  3.87 -2.52
Si  5.54  7.98 -4.74
Si  2.92  8.06  6.68
Si -10.28 -0.38 -3.65
Si -10.70  0.97  2.01
Si  3.67 -6.29  8.20
Si -8.10 -3.95  6.26
Si  8.11 -7.20  1.73
Si -7.43  7.73 -2.39
Si -0.08 -10.74 -2.39
Si -10.96 -0.47 -0.87
Si  3.26 -7.54 -7.34
Si  3.64 -8.10  6.55
Si -5.15 -4.66  8.59
Si  9.81  1.83 -4.74
Si  2.32 -10.44 -2.81
Si -6.70 -8.44 -2.52
Si -2.32 -0.70 10.80
Si  1.64 -5.34 -9.55
Si 11.03 -0.47 -0.87
Si -4.82 -0.81 -9.94
Si  1.24 -10.14  4.33
Si  3.96  5.41  8.86
Si -9.86 -4.58 -2.39
Si  7.14  2.53 -8.18
Si -0.35  1.30 11.08
Si -0.23 -11.15 -0.48
Si  9.82 -1.05 -5.21
Si -8.38 -7.20  1.73
Si -6.10  8.32  4.33
Si  8.39 -3.95  6.26
Si -10.00 -5.00 -0.48
Si  7.96 -6.87  3.85
Si  7.06  1.49  8.59
Si  5.26  1.85 -9.75
Si -7.03  2.53  8.39
Si  0.32 11.23 -0.21
Si 10.09 -3.38  3.67
Si -3.17 -10.44 -2.81
Si  3.18 -0.70 10.80
Si  0.77 -1.00 11.22
Si -4.89  6.02  8.20
Si -7.71  4.48 -6.92
Si 10.77 -3.29  0.89
Si -1.65 10.97  2.15
Si 10.10  5.07 -0.21
Si -9.74  5.68 -0.87
Si  1.53 -6.90  8.86
Si -9.07  5.77 -3.65
Si -1.47 -9.87 -5.41
Si  4.63 -2.95  9.96
Si  5.84 -4.66  8.59
Si  4.04 -4.30 -9.75
Si -8.82 -7.24 -0.21
Si -8.93 -1.68 -6.92
Si  0.76 11.27  1.73
Si -4.65 -7.83 -6.92
Si -1.14 10.22 -5.02
Si  1.90  5.34 -9.94
Si -1.79 10.56  4.05
Si -5.73  1.85 -9.75
Si  6.20 -8.25 -5.02
Si -10.98 -2.28 -2.52
Si 11.29  0.97  2.01
Si 10.07 -5.19  2.01
Si 11.00 -2.28 -2.52
Si  8.92  7.31 -0.48
Si -9.29  1.91  6.68
Si -3.86 -5.34 -9.55
Si -8.53 -6.87  3.85
Si -10.67  2.77  3.67
Si -10.03  2.44 -5.41
Si -5.15  3.21  9.96
Si  1.89 -10.48 -4.74
Si  5.25  4.73 -9.28
Si  9.61  2.20  6.26
Si -6.96 -1.42 -9.28
Si -2.14 -11.34  2.01
Si -11.21 -3.29  0.89
Si  5.33  8.36  6.26
Si  6.18 -0.81 -9.94
Si -6.93 -9.44  0.89
Si -2.50  1.23 -11.46
Si -2.72  7.65  8.59
Si -4.25 -10.14  4.33
Si  3.85 10.97  2.15
Si  2.78  7.65  8.59
Si 10.54  5.11  1.73
Si -3.60  5.34 -9.94
Si  6.10  6.02  8.20
Si  9.81 -6.63 -0.87
Si -5.67  8.36  6.26
Si -7.88 -7.21 -5.21
Si -5.74  4.73 -9.28
Si  7.71  9.02  0.89
Si  3.71 10.56  4.05
Si  0.66 -2.62 -11.59
Si  2.99  1.23 -11.46
Si -3.97 -6.90  8.86
Si -1.43  6.97 -9.55
Si  7.03  8.93  3.67
Si  4.03 -9.87 -5.41
Si -0.09  1.53 -11.88
Si  5.84  3.21  9.96
Si  3.36 -11.34  2.01
Si  1.68 -10.11  6.26
Si -9.48  7.12  2.01
Si  8.78  4.48 -6.92
Si -3.61 -10.48 -4.74
Si -0.31  8.69  8.39
Si -11.88  2.19 -0.68
Si  8.24 -0.74  8.86
Si  2.47 11.84 -0.87
Si -8.25 -0.74  8.86
Si  9.06  7.73 -2.39
Si -1.10  5.45 10.80
Si -0.54 -6.96 -9.94
Si -6.36 -2.95  9.96
Si  4.35 10.22 -5.02
Si -1.57 -4.85 11.08
Si -10.93 -0.04  5.42
Si -11.73  1.86 -2.81
Si 11.31  2.77  3.67
Si -4.73 -1.00 11.22
Si -2.64  8.68 -8.18
Si  6.34 -7.83 -6.92
Si  0.62 11.59  3.85
Si -3.03 11.84 -0.87
Si  5.41 -10.74 -2.39
Si 11.70 -0.38 -3.65
Si  1.87  3.54 -11.59
Si  2.86  8.68 -8.18
Si -2.68 -7.58 -9.28
Si  5.14  1.30 11.08
Si -10.05  0.63 -7.06
Si  2.82 -7.58 -9.28
Si -8.24 -3.62  8.39
Si  8.25 -3.62  8.39
Si 11.05 -0.04  5.42
Si -5.58 -10.74 -2.39
Si -4.74 11.27  1.73
Si  5.27 -11.15 -0.48
Si 10.39  5.44  3.85
Si 11.99  2.87  0.89
Si -5.17 11.23 -0.21
Si  8.61 -7.21 -5.21
Si -0.73 -10.40  6.68
Si  1.80 10.37  6.55
Si 10.36 -1.94  6.55
Si  7.65  6.78 -7.06
Si  9.97 -1.38 -7.34
Si  1.26 11.25 -5.21
Si -3.82 -10.11  6.26
Si  1.99  5.16 11.22
Si  4.07  6.97 -9.55
Si -7.03  5.41  8.86
Si -5.72 -11.15 -0.48
Si -8.14  0.82 -9.55
Si 10.74 -3.72 -5.41
Si  1.78 -4.92 -11.46
Si -5.85  1.30 11.08
Si -8.78  9.02  0.89
Si  5.82 11.23 -0.21
Si -3.62  3.54 -11.59
Si  0.98  8.01 -9.75
Si -11.45  5.11  1.73
Si 12.41 -1.34  2.15
Si -7.32 -6.29  8.20
Si -9.35  2.53 -8.18
Si -9.71  6.11  5.42
Si -2.35 11.93 -3.65
Si  8.35  0.82 -9.55
Si  7.68 -10.12 -0.68
Si  3.93 -4.85 11.08
Si -6.95 -4.30 -9.75
Si  7.68  8.59 -5.41
Si -1.00 10.63 -6.92
Si -7.61 -9.53  3.67
Si -7.35 -8.10  6.55
Si -0.79 -9.78 -8.18
Si  1.36 -0.72 -12.72
Si -3.70 10.37  6.55
Si -1.31 -4.63 -11.88
Si -12.66 -1.04  1.73
Si  9.84 -6.20  5.42
Si -4.84 -2.62 -11.59
Si -3.51  5.16 11.22
Si -9.43  1.49  8.59
Si  3.14 11.93 -3.65
Si  4.39  5.45 10.80
Si 10.49 -6.54 -3.65
Si  6.27 -1.00 11.22
Si -11.89 -3.38  3.67
Si  9.46  2.53  8.39
Si -11.88  5.07 -0.21
Si  6.74 -10.14  4.33
Si  1.96 -6.86 10.80
Si  1.53 -9.78  8.39
Si 11.98 -5.00 -0.48
Si -10.41  4.21  6.55
Si  6.26 11.27  1.73
Si -3.72 -4.92 -11.46
Si -11.24 -3.72 -5.41
Si -2.40 -12.78 -0.87
Si  7.94 10.03 -2.52
Si 12.27 -1.75  4.05
Si -7.74 -7.54 -7.34
Si  7.13 -5.34 -9.55
Si 12.22  3.87 -2.52
Si -4.23 11.25 -5.21
Si  4.96 -6.96 -9.94
Si -0.33  3.11 12.73
Si  5.40  1.53 -11.88
Si  5.18  8.69  8.39
Si -13.10 -1.08 -0.21
Si -11.91 -5.19  2.01
Si -10.94  5.10 -5.21
Si -10.51 -4.24  6.68
Si -4.88 11.59  3.85
Si -2.46 -0.38 12.93
Si  9.79 -8.44 -2.52
Si -6.64 10.22 -5.02
Si 12.12 -4.58 -2.39
Si  3.10 -12.78 -0.87
