500
set: 686.00  0.00  0.00
Si  0.54  0.23 -1.42
Si  0.40  1.44  1.09
Si  1.15 -1.73  0.01
Si -1.38 -1.15  1.06
Si -1.40  1.79 -0.12
Si -1.75 -0.28 -1.77
Si  2.14 -0.75  1.70
Si -0.26 -0.49  3.17
Si  2.91  1.24  0.69
Si -3.08  0.21  1.14
Si -1.61 -2.89 -0.68
Si -1.81  1.71  2.31
Si -0.04  1.44 -3.20
Si  3.27 -1.53 -0.59
Si  1.66  3.08 -1.18
Si -0.05 -1.47 -3.40
Si  0.01 -3.59  0.99
Si -3.56 -1.42 -0.60
Si  0.02  3.88  1.51
Si  2.27 -1.83 -3.15
Si  3.93  0.92 -1.47
Si -1.46  3.08 -2.85
Si -3.61  2.58 -0.45
Si  1.30 -2.45  3.51
Si  2.72  0.70  3.56
Si  1.02  2.35  3.75
Si -1.89 -0.02 -4.13
Si -3.97  0.62 -2.57
Si -1.90 -2.06  3.87
Si  2.95  2.36 -2.92
Si  2.20 -4.17  0.84
Si  0.13  4.81 -0.47
Si -1.67 -3.51 -2.92
Si  2.78  3.46  2.00
Si  3.26  0.19 -3.61
Si -1.81 -4.10  2.15
Si  1.42 -0.15 -4.81
Si  0.74  4.01 -2.94
Si -3.50 -2.83  2.35
Si  4.62 -1.29  2.01
Si -0.98  1.87  4.76
Si -0.62 -5.16 -0.47
Si -3.73 -2.16 -2.94
Si  3.41 -3.06  2.76
Si  1.52 -0.45  5.12
Si -2.42  4.87  0.43
Si  4.18 -3.29 -1.58
Si  4.88  2.36  1.23
Si -4.71 -3.03  0.30
Si -3.72 -0.73  4.19
Si  0.43 -3.40 -4.50
Si -5.03  2.36  1.23
Si -2.38  4.82 -1.91
Si -1.09  2.17 -5.17
Si -4.91  0.86  2.89
Si -5.29 -1.29  2.01
Si  5.00  0.86  2.89
Si  3.99  4.19 -0.88
Si  0.66 -4.68  3.45
Si -3.33  2.03 -4.52
Si -3.17 -5.09  0.43
Si  5.20 -3.03  0.30
Si -2.53  4.18  3.54
Si -1.78 -0.32  5.80
Si -5.97  0.92 -1.47
Si -0.73 -6.08  1.51
Si -3.13 -5.14 -1.91
Si  3.93 -1.63  4.67
Si -1.07  5.86  2.15
Si  2.88 -3.94 -4.23
Si  1.40  5.28  3.45
Si  0.76  6.38  0.99
Si  5.94  0.62 -2.57
Si -3.23  1.73  5.41
Si  6.35 -1.42 -0.60
Si  2.95  5.79  0.84
Si  0.54 -3.70  5.43
Si -0.51  4.70  4.62
Si -2.01 -1.76 -6.06
Si  3.83 -1.33 -5.26
Si -0.01 -5.96 -2.94
Si -4.67  3.23  3.48
Si  3.25 -5.77 -0.88
Si  2.10  4.29 -4.70
Si  0.06 -1.76  6.53
Si -0.36 -0.19 -6.76
Si -3.63 -3.47  4.55
Si  0.91  2.65 -6.18
Si  4.12  2.61 -4.71
Si -5.73 -3.29 -1.58
Si  4.44 -4.88  1.70
Si  6.30  2.58 -0.45
Si  0.06  1.14  6.74
Si -6.64 -1.53 -0.59
Si  1.19 -2.15 -6.42
Si -3.83 -0.43 -5.74
Si  6.83  0.21  1.14
Si  2.21  3.99  5.24
Si  2.61  1.00 -6.38
Si  0.91 -6.88 -1.18
Si  5.24  3.23  3.48
Si  2.03 -6.51  2.00
Si  4.23  2.31  5.22
Si -1.25 -5.27  4.62
Si -4.72  5.08  1.70
Si -0.92  6.46 -2.92
Si -7.00  1.24  0.69
Si  3.37 -0.11  6.32
Si -0.86  7.08 -0.68
Si  6.18 -2.16 -2.94
Si -3.74 -3.17 -5.38
Si -5.92  4.19 -0.88
Si -0.61  5.00 -5.31
Si  6.41 -2.83  2.35
Si -1.36 -4.97 -5.31
Si -4.94 -4.53 -3.18
Si  4.97 -4.53 -3.18
Si  5.19  5.08  1.70
Si  1.35 -5.67 -4.70
Si  2.38 -2.13  6.78
Si  6.19 -0.73  4.19
Si -5.47 -4.88  1.70
Si -3.27 -5.78  3.54
Si -4.19  5.44 -3.18
Si -6.65  0.19 -3.61
Si -6.50 -3.06  2.76
Si  2.99 -4.24  5.70
Si -1.35  2.79  7.08
Si -5.98 -1.63  4.67
Si -2.21 -6.88 -2.85
Si  0.55 -4.38 -6.48
Si -5.79  2.61 -4.71
Si -6.96  2.36 -2.92
Si  3.06  2.06  7.01
Si  0.84  3.71  6.99
Si -7.77 -0.75  1.70
Si -3.96  6.93  0.30
Si -2.75  7.13  2.35
Si  1.18  6.57 -4.50
Si -5.68  2.31  5.22
Si -7.19  0.70  3.56
Si  1.46 -5.97  5.24
Si -1.92  2.01 -7.62
Si -1.56 -3.81  7.01
Si -6.08 -1.33 -5.26
Si -7.13  3.46  2.00
Si  3.63  6.02 -4.23
Si  6.57  2.03 -4.52
Si -2.63  4.48 -6.40
Si -3.62 -2.46  6.99
Si -3.86  0.32  7.36
Si -1.64 -0.58  8.16
Si  8.16 -0.28 -1.77
Si  3.31 -2.76 -7.17
Si  6.08 -0.43 -5.74
Si  1.28  6.27  5.43
Si -2.88  6.50  4.55
Si  2.20 -7.60 -2.92
Si  4.92  6.67 -1.58
Si  1.90  8.23  0.01
Si -2.15 -8.17 -0.12
Si  6.74 -5.09  0.43
Si -7.64 -1.83 -3.15
Si -4.98  6.67 -1.58
Si  2.03 -0.45 -8.23
Si  6.28 -3.47  4.55
Si  0.27 -7.62  3.75
Si  5.72  5.44 -3.18
Si  4.16  6.91  2.76
Si  0.65 -0.07  8.51
Si  2.05  7.51  3.51
Si -4.36 -7.38 -0.45
Si  8.10  1.71  2.31
Si -0.35 -8.53  1.09
Si  1.30  5.58 -6.48
Si  4.89  1.17 -7.04
Si  8.52 -1.15  1.06
Si  8.51  1.79 -0.12
Si -5.02  1.17 -7.04
Si  6.78 -5.14 -1.91
Si  4.13 -7.61  1.23
Si  6.68  1.73  5.41
Si -4.78  3.53 -6.46
Si -3.61 -2.53 -7.58
Si  6.17 -3.17 -5.38
Si -7.71 -4.17  0.84
Si  4.49 -6.74  3.48
Si  8.30 -2.89 -0.68
Si -6.66 -5.77 -0.88
Si -2.98  7.81 -2.94
Si -1.92 -3.80 -7.78
Si -1.15  7.91  3.87
Si -8.25  3.08 -1.18
Si  3.73  5.72  5.70
Si -0.64  8.82  1.06
Si -8.76 -1.73  0.01
Si  7.48  4.87  0.43
Si -2.56 -8.25  2.31
Si  5.13  3.53 -6.46
Si  0.29  1.74 -8.84
Si  2.16 -8.72  0.69
Si -2.81  8.55 -0.60
Si  8.02 -0.02 -4.13
Si -1.49 -0.85 -8.87
Si -3.38 -5.48 -6.40
Si -6.54 -0.11  6.32
Si -6.96  5.79  0.84
Si -7.03 -3.94 -4.23
Si  8.01 -2.06  3.87
Si -0.79 -8.52 -3.20
Si  5.95  6.93  0.30
Si  7.53  4.82 -1.91
Si -2.99  6.79 -5.38
Si  4.51 -0.99 -7.92
Si  2.67  3.76 -7.94
Si  0.70  8.50 -3.40
Si  7.38  4.18  3.54
Si  3.02  8.13 -3.15
Si  5.55 -7.38 -0.45
Si -5.42 -6.74  3.48
Si  8.09 -4.10  2.15
Si  1.76  2.78  8.75
Si  4.02  8.44 -0.59
Si -3.18  0.52 -8.79
Si  3.37 -7.35 -4.71
Si -0.81  6.16  7.01
Si  0.10 -6.25  6.99
Si  4.04  0.62  8.46
Si -5.75  6.91  2.76
Si -0.09  4.18 -8.42
Si -4.08  5.14  6.75
Si  8.24 -3.51 -2.92
Si  8.45  3.08 -2.85
Si -9.37  0.23 -1.42
Si  6.63 -5.78  3.54
Si -2.27  4.52  8.02
Si -0.10 -3.29 -8.94
Si  6.05  0.32  7.36
Si -1.84 -7.80 -5.17
Si -1.73 -8.10  4.76
Si  0.16 -7.32 -6.18
Si -4.83 -4.83  6.75
Si -8.61 -2.45  3.51
Si -5.77 -7.61  1.23
Si -5.40 -0.99 -7.92
Si -6.28  6.02 -4.23
Si -9.51  1.44  1.09
Si  3.19 -9.05 -1.47
Si  6.28 -2.46  6.99
Si  5.08 -4.83  6.75
Si -7.30  1.00 -6.38
Si -8.49 -0.15 -4.81
Si  2.80  1.54 -9.25
Si  2.89  9.21  1.70
Si -8.38 -0.45  5.12
Si -0.21 -9.74 -1.42
Si -1.00  9.68 -1.77
Si  3.48 -7.65  5.22
Si -1.50 -3.19  9.25
Si -6.92 -4.24  5.70
Si -8.89  2.35  3.75
Si  8.12 -0.32  5.80
Si -4.54  8.67  2.01
Si -1.17  6.16 -7.78
Si -1.29  1.50  9.81
Si -4.08 -7.94 -4.52
Si  0.49  9.48  3.17
Si -6.85  2.06  7.01
Si  4.28 -3.60  8.35
Si -7.81  4.29 -4.70
Si  1.04 -1.43 -9.92
Si -3.45 -1.72  9.33
Si  2.09 -3.87 -9.09
Si  3.38 -1.83  9.34
Si  7.90 -1.76 -6.06
Si  4.38 -6.44 -6.46
Si  1.97 -9.27  3.56
Si -7.70  3.99  5.24
Si -6.60 -2.76 -7.17
Si -3.02 -5.44  8.02
Si -6.17  5.72  5.70
Si  9.65 -0.49  3.17
Si  6.30 -2.53 -7.58
Si  1.26 -2.03  9.94
Si -0.84 -5.78 -8.42
Si  1.92 -6.21 -7.94
Si -1.26  8.21 -6.06
Si  4.78  2.66 -8.70
Si  8.93  1.87  4.76
Si  5.83  5.14  6.75
Si  1.94  7.82 -6.42
Si -2.10 -7.18  7.08
Si -5.89  8.44 -0.59
Si -5.87  0.62  8.46
Si -7.53 -2.13  6.78
Si -3.50  2.28  9.48
Si  4.33 -4.58 -8.23
Si  1.29 10.19 -1.42
Si  7.16  7.13  2.35
Si -1.51  2.10 -10.06
Si  5.37  8.67  2.01
Si -7.88 -6.51  2.00
Si -9.17  4.01 -2.94
Si -5.13  2.66 -8.70
Si  8.82  2.17 -5.17
Si  4.25 -9.10  2.89
Si 10.31  1.44  1.09
Si  9.86  1.44 -3.20
Si  0.24  4.51  9.46
Si -2.33 10.18  1.14
Si  0.81  8.20  6.53
Si  9.86 -1.47 -3.40
Si -3.82 -9.75  1.14
Si 10.45  0.23 -1.42
Si -9.95  1.44 -3.20
Si -2.97  9.24  4.19
Si -9.90 -3.59  0.99
Si -8.51  5.28  3.45
Si  9.92 -3.59  0.99
Si  7.03  6.50  4.55
Si -9.96 -1.47 -3.40
Si -3.98 -8.24  5.41
Si  9.29 -5.16 -0.47
Si  4.68  8.33  4.67
Si -2.88  7.51  6.99
Si  6.53 -5.48 -6.40
Si -10.16 -0.49  3.17
Si -5.52 -6.44 -6.46
Si  4.10  3.89  9.05
Si  7.27  4.48 -6.40
Si -5.62 -3.60  8.35
Si -2.50 -10.25 -1.77
Si  7.70 -6.88 -2.85
Si  2.51 -9.78 -3.61
Si -9.89  3.88  1.51
Si  9.93  3.88  1.51
Si -4.72 -9.34 -2.57
Si  2.31 -7.90  7.01
Si  3.12  7.83  6.78
Si  8.84  5.86  2.15
Si -1.14  9.94 -4.13
Si  5.83 -7.94 -4.52
Si  6.92  7.81 -2.94
Si -5.23  8.33  4.67
Si -6.53 -7.35 -4.71
Si -9.78  4.81 -0.47
Si -9.25 -4.68  3.45
Si -0.51 -5.46  9.46
Si  1.39 -10.71  1.70
Si -5.57 -4.58 -8.23
Si  4.05  7.21 -7.17
Si -4.83  5.38 -8.23
Si -1.00 -10.45  3.17
Si  5.19 -9.34 -2.57
Si -2.86  7.43 -7.58
Si -9.48 -3.40 -4.50
Si -8.71 -2.15 -6.42
Si  2.27  9.51  5.12
Si  3.16 -1.23 -10.52
Si -1.72 -2.59 -10.61
Si  5.08  5.38 -8.23
Si  3.01  0.94 10.62
Si  6.72  0.52 -8.79
Si  6.92  6.79 -5.38
Si  4.57  8.63 -5.26
Si  0.51  1.14 11.03
Si -5.66 -9.10  2.89
Si -2.53  5.17 -9.50
Si -4.82 -2.73 -9.63
Si  9.18 -6.08  1.51
Si -6.89  8.13 -3.15
Si -0.69 -8.82  6.74
Si -2.64 -9.98 -4.13
Si  7.10  8.55 -0.60
Si -3.28 -4.79 -9.50
Si  8.65 -5.27  4.62
Si 10.04  4.81 -0.47
Si  2.17  9.81 -4.81
Si  1.86 -8.97 -6.38
Si -1.28 -1.45 10.99
Si  0.65  6.68 -8.94
Si 11.06 -1.73  0.01
Si -9.15  6.38  0.99
Si -3.67 -1.12 -10.53
Si -7.71 -7.60 -2.92
Si  8.55 -4.97 -5.31
Si  0.67 -10.12 -4.81
Si  7.99  2.01 -7.62
Si -8.99  2.65 -6.18
Si  5.09 -2.73 -9.63
Si  7.76 -8.17 -0.12
Si -6.43 -7.65  5.22
Si -8.55 -5.67 -4.70
Si  7.35 -8.25  2.31
Si -1.04  9.64  5.80
Si  2.84  6.09 -9.09
Si -2.67 -7.95 -7.62
Si -3.22 10.59 -2.57
Si  1.01 -7.18  8.75
Si -2.13 -11.11  1.06
Si -6.72 -9.05 -1.47
Si  0.43  0.53 -11.35
Si -7.24  3.76 -7.94
Si -9.00 -6.88 -1.18
Si -3.72  2.88 -10.38
Si -11.29 -1.15  1.06
Si -7.88 -0.45 -8.23
Si  3.35 -6.07  9.05
Si -7.86  7.51  3.51
Si -5.33  8.63 -5.26
Si -5.81  3.89  9.05
Si  8.99  6.46 -2.92
Si -9.37 -3.70  5.43
Si -11.31  1.79 -0.12
Si  8.56  2.79  7.08
Si -2.97 -0.08 11.07
Si  6.46 -1.72  9.33
Si  9.40  4.70  4.62
Si -8.01  8.23  0.01
Si -0.75  6.78  9.25
Si  4.01 10.15 -3.61
Si  5.93 -8.24  5.41
Si -0.73 -4.86 -10.40
Si  9.05  7.08 -0.68
Si  1.15 11.40  1.09
Si -6.53 -1.83  9.34
Si  6.08 -9.75  1.14
Si -3.08  9.54 -5.74
Si  8.35 -3.81  7.01
Si -2.32  4.57 10.36
Si -4.88  6.37  8.35
Si  0.02  5.11 -10.40
Si -8.45 -5.97  5.24
Si  0.12 -3.89 10.92
Si  0.78 -10.42  5.12
Si  8.27 -0.58  8.16
Si  5.03  6.37  8.35
Si  6.41  2.28  9.48
Si -7.75 -8.72  0.69
Si  9.55 -0.19 -6.76
Si -4.60 -3.33 10.23
Si  0.40 -11.70  0.01
Si -7.02  9.21  1.70
Si  1.55  3.38 -11.11
Si -10.53 -5.16 -0.47
Si -5.86  7.21 -7.17
Si 10.65  4.01 -2.94
Si  3.47 10.66  3.56
Si -7.11  1.54 -9.25
Si 10.34 -3.40 -4.50
Si -0.65 11.76 -0.12
Si  7.99 -3.80 -7.78
Si  2.52 -11.49 -0.59
Si 10.93  2.35  3.75
Si -11.66 -0.28 -1.77
Si  3.65 11.21  0.69
Si  9.29  5.00 -5.31
Si -8.73  6.57 -4.50
Si -1.86  0.01 -11.70
Si  0.70 11.41 -3.20
Si  2.25 -1.05 11.63
Si  2.31 -4.47 10.78
Si  6.89 -5.44  8.02
Si  0.39  9.78 -6.76
Si -11.52 -2.89 -0.68
Si  9.90 -5.96 -2.94
Si  4.68 10.88 -1.47
Si -9.92 -5.96 -2.94
Si -9.85 -1.76  6.53
Si -1.06 11.68  2.31
Si -0.80 -11.43 -3.40
Si -4.16 10.83  2.89
Si  7.64  4.52  8.02
Si -8.62  6.27  5.43
Si -9.85  1.14  6.74
Si  0.13  3.58 11.45
Si  5.31 -3.33 10.23
Si 11.21 -2.45  3.51
Si  4.14 -8.80 -7.04
Si 11.56  3.08 -1.18
Si -10.89  1.87  4.76
Si -9.06  3.71  6.99
Si  9.97 -1.76  6.53
Si  4.03 -7.31 -8.70
Si 10.56 -4.68  3.45
Si -11.72  1.71  2.31
Si  3.87 -11.26  2.01
Si -3.06 -5.39 10.36
Si -2.53 -10.29  5.80
Si -0.45 -8.23 -8.84
Si  9.97  1.14  6.74
Si  3.83  1.22 -11.40
Si -11.37  3.08 -2.85
Si -8.61  5.58 -6.48
Si -5.23 10.88 -1.47
Si  2.62 -10.08  6.32
Si -4.31 -11.38 -0.60
Si 12.05 -0.75  1.70
Si -9.36 -4.38 -6.48
Si -1.11 -10.15 -6.76
