500
set: 746.00  0.00  0.00
Si  0.43 -1.18  0.81
Si -0.47  1.22 -0.85
Si  1.35  1.16  0.77
Si -1.36 -1.14 -0.82
Si -2.13  1.16  0.86
Si  0.88 -0.09 -2.46
Si -0.84 -0.01  2.50
Si  2.21 -1.18 -0.85
Si -3.10 -1.18  0.85
Si -0.07 -2.45 -2.46
Si  0.02  2.37  2.54
Si  3.17  1.22 -0.80
Si  2.65  0.06  2.49
Si -2.74  0.01 -2.51
Si -0.49 -3.62  0.77
Si  0.48  3.63 -0.82
Si  1.73 -2.37  2.43
Si  1.78  2.33 -2.46
Si  1.33 -3.56 -0.80
Si -1.74  2.40 -2.51
Si -1.26  3.59  0.85
Si -1.82 -2.40  2.54
Si -0.90 -0.02 -4.08
Si -3.92  1.22 -0.80
Si  0.85 -0.06  4.16
Si  3.99 -1.18  0.85
Si -2.31 -3.56 -0.85
Si  2.28  3.59  0.81
Si  0.08  2.38 -4.12
Si -3.05  3.59 -0.85
Si -0.04 -2.47  4.16
Si  3.12 -3.61  0.86
Si -2.67  0.02  4.11
Si -3.52  2.41  2.43
Si  3.51 -2.37 -2.51
Si  3.58  2.41  2.43
Si  2.65  0.02 -4.19
Si -3.59 -2.37 -2.51
Si  4.35  0.01 -2.51
Si  1.73 -2.33 -4.13
Si  1.80  2.30  4.16
Si -1.76 -2.40 -4.12
Si -4.44  0.06  2.49
Si -1.82  2.40  4.11
Si -4.89 -1.18 -0.85
Si  4.97  1.16  0.86
Si  0.81 -4.72  2.49
Si -3.98 -3.61  0.86
Si  1.00  4.76  2.50
Si -0.90  4.78 -2.51
Si  4.05  3.59 -0.85
Si -0.96 -4.86 -2.46
Si  3.43 -2.38  4.11
Si  5.74 -1.14 -0.82
Si -5.75  1.16  0.77
Si  2.51 -4.76 -2.51
Si -0.44  1.24  5.80
Si -3.52  2.44 -4.13
Si  2.73  4.69 -2.46
Si  3.58  2.44 -4.13
Si  0.43 -1.23 -5.85
Si -3.67 -2.38  4.11
Si -0.29  5.93  0.86
Si -2.60  4.83  2.49
Si  4.79 -3.56 -0.85
Si  0.36 -5.96 -0.85
Si -2.68 -4.78  2.50
Si  4.43  0.02  4.11
Si -1.39 -1.17  5.77
Si -4.82  3.59  0.81
Si  1.35  1.21 -5.81
Si -4.44  0.02 -4.19
Si -1.41 -5.95  0.81
Si  1.38  5.99 -0.85
Si -2.18  1.21 -5.77
Si -5.32  2.33 -2.46
Si  5.28 -2.40  2.54
Si  0.94  4.75 -4.08
Si -5.37 -2.37  2.43
Si  2.25 -1.17  5.82
Si -0.82  4.79  4.11
Si  5.35  2.40 -2.51
Si  2.15 -5.95  0.85
Si  0.81 -4.75 -4.19
Si -2.08  5.99 -0.80
Si -0.99 -4.83  4.16
Si -3.05 -1.22 -5.76
Si  3.13  1.20  5.77
Si -6.21 -0.09 -2.46
Si  6.26 -0.01  2.50
Si -3.21 -5.91 -0.82
Si  3.19  5.93  0.77
Si  6.63  1.22 -0.85
Si  2.59 -4.75  4.11
Si -6.66 -1.18  0.81
Si  0.46  3.60  5.77
Si -5.77 -3.56 -0.80
Si -0.49 -3.56 -5.81
Si  2.70  4.71  4.16
Si -2.74 -4.79 -4.08
Si -4.37  4.69 -2.46
Si -1.21  3.55 -5.76
Si -2.60  4.79 -4.19
Si  1.28 -3.57  5.77
Si  5.84  3.59  0.85
Si  4.41 -4.78  2.50
Si  4.50  4.83  2.49
Si -4.59 -4.76 -2.51
Si  5.28  2.40  4.11
Si -3.97  1.20  5.77
Si -5.29  2.30  4.16
Si  3.89 -5.91 -0.82
Si -3.90  5.93  0.77
Si  4.04 -1.22 -5.76
Si  5.33 -2.40 -4.12
Si -5.37 -2.33 -4.13
Si -2.28 -3.53  5.80
Si  2.27  3.54 -5.85
Si  6.20 -0.02 -4.08
Si  3.07 -3.57 -5.77
Si -3.00  3.60  5.82
Si -6.24 -0.06  4.16
Si  0.43 -1.23  7.39
Si -0.11 -7.14  2.43
Si -0.44  1.24 -7.44
Si  6.61 -3.62  0.77
Si -6.61  3.63 -0.82
Si  0.10  7.18 -2.51
Si  1.35  1.21  7.43
Si  4.36 -4.79 -4.08
Si -4.84 -1.17  5.82
Si  7.53 -1.18  0.81
Si -4.40  4.71  4.16
Si  4.92  1.21 -5.77
Si -1.39 -1.17 -7.47
Si -7.56  1.22 -0.85
Si -4.51 -4.75  4.11
Si  1.67 -7.14 -2.51
Si -1.68  7.18  2.43
Si -4.95 -5.95  0.85
Si  4.50  4.79 -4.19
Si  1.87  7.14  2.54
Si  7.03 -2.45 -2.46
Si  2.25 -1.17 -7.42
Si  5.02  5.99 -0.80
Si -1.91 -7.22 -2.46
Si -2.18  1.21  7.47
Si -7.07  2.37  2.54
Si -4.03 -3.57 -5.77
Si  7.12  2.37  2.54
Si -7.16 -2.45 -2.46
Si  4.10  3.60  5.82
Si -6.09  4.76  2.50
Si -3.05 -1.22  7.48
Si  3.13  1.20 -7.47
Si  5.71 -1.17  5.77
Si  6.13 -4.86 -2.46
Si -0.11 -7.10 -4.13
Si  6.20  4.78 -2.51
Si -6.29 -4.72  2.49
Si -5.74  1.21 -5.81
Si -0.49 -3.56  7.43
Si  0.02  7.17  4.11
Si  5.69 -5.95  0.81
Si -3.48  7.10 -2.46
Si  0.46  3.60 -7.47
Si -0.34  5.98 -5.77
Si  4.81 -3.53  5.80
Si -5.72  5.99 -0.85
Si -7.94 -0.01  2.50
Si  0.41 -5.94  5.82
Si  3.62  7.10 -2.46
Si  3.43 -7.17  2.54
Si  7.98 -0.09 -2.46
Si -4.82  3.54 -5.85
Si -1.21  3.55  7.48
Si  1.28 -3.57 -7.47
Si -0.51 -8.33 -0.80
Si  1.59 -7.15  4.11
Si  0.58  8.36  0.85
Si -7.59 -3.62  0.77
Si  7.58  3.63 -0.82
Si -3.66 -7.17  2.54
Si  1.93  7.15 -4.12
Si  1.40  6.01  5.80
Si -7.01  2.38 -4.12
Si -1.68  7.21 -4.13
Si -1.20  8.36 -0.85
Si -1.41 -6.00 -5.85
Si  2.27  3.54  7.39
Si  1.28 -8.38  0.86
Si -3.97  1.20 -7.47
Si -2.28 -3.53 -7.44
Si  7.06 -2.47  4.16
Si -1.88 -7.24  4.16
Si  8.45  1.16  0.77
Si -2.12  5.97  5.77
Si -8.46 -1.14 -0.82
Si  4.04 -1.22  7.48
Si  2.20 -6.00 -5.76
Si  7.18  2.38 -4.12
Si -7.14 -2.47  4.16
Si -2.34 -8.39  0.77
Si  2.33  8.40 -0.82
Si -3.00  3.60 -7.42
Si -6.15  4.75 -4.08
Si  6.11 -4.83  4.16
Si  3.07 -3.57  7.47
Si  2.94 -8.33 -0.85
Si -3.23 -5.94  5.77
Si -3.45  7.07  4.16
Si  6.28  4.79  4.11
Si  6.66  1.24  5.80
Si -2.98  8.37  0.81
Si -6.29 -4.75 -4.19
Si  3.20  5.98 -5.81
Si -5.81 -3.57  5.77
Si -4.84 -1.17 -7.42
Si -6.67 -1.23 -5.85
Si  5.89  3.55 -5.76
Si  7.95 -0.06  4.16
Si  3.49 -7.17 -4.12
Si -8.00 -0.02 -4.08
Si  3.65  7.07  4.16
Si -3.61 -7.17 -4.12
Si  4.92  1.21  7.47
Si -6.74 -5.96 -0.85
Si  6.81  5.93  0.86
Si  0.85 -0.06 -9.08
Si -8.36  3.59  0.85
Si  3.87 -5.94  5.77
Si  8.43 -3.56 -0.80
Si -3.90  5.98 -5.81
Si -0.90 -0.02  9.16
Si -4.03 -3.57  7.47
Si -5.23  7.14  2.54
Si  4.10  3.60 -7.42
Si  5.18 -7.22 -2.46
Si -5.43 -7.14 -2.51
Si  5.42  7.18  2.43
Si -9.23  1.16  0.86
Si -4.15 -8.33 -0.85
Si  4.12  8.37  0.81
Si -0.04 -2.47 -9.09
Si  9.30 -1.18 -0.85
Si  0.08  2.38  9.12
Si  2.65  0.02  9.05
Si  8.83 -2.37  2.43
Si -5.74  1.21  7.43
Si  5.71 -1.17 -7.47
Si  6.61 -3.56 -5.81
Si  8.87  2.33 -2.46
Si -8.84  2.40 -2.51
Si -6.64  3.60  5.77
Si -2.67  0.02 -9.13
Si -4.82  3.54  7.39
Si -7.38  5.93  0.86
Si  0.41 -5.94 -7.42
Si  7.91 -4.72  2.49
Si  4.81 -3.53 -7.44
Si  1.80  2.30 -9.09
Si  1.73 -2.33  9.11
Si -0.34  5.98  7.47
Si -8.92 -2.40  2.54
Si  7.46 -5.96 -0.85
Si -7.54  1.24  5.80
Si -1.76 -2.40  9.12
Si -1.82  2.40 -9.13
Si  7.53 -1.23 -5.85
Si -1.41 -6.00  7.39
Si -4.90 -6.00 -5.76
Si -8.00  4.78 -2.51
Si  1.40  6.01 -7.44
Si  4.76 -8.39  0.77
Si  4.97  5.97  5.77
Si -4.77  8.40 -0.82
Si  8.10  4.76  2.50
Si -8.06 -4.86 -2.46
Si -5.17  7.15 -4.12
Si -2.12  5.97 -7.47
Si  2.20 -6.00  7.48
Si  5.21 -7.24  4.16
Si -1.03 -9.49  2.49
Si  0.67 -9.53 -2.51
Si -5.51 -7.15  4.11
Si  5.42  7.21 -4.13
Si  0.94  9.55 -2.51
Si -0.76  9.60  2.49
Si  8.83 -2.33 -4.13
Si -6.67 -1.23  7.39
Si  3.43 -2.38 -9.13
Si -8.86 -2.40 -4.12
Si  3.20  5.98  7.43
Si  6.66  1.24 -7.44
Si  9.75  0.06  2.49
Si -3.52  2.44  9.11
Si  9.37  3.59  0.81
Si -3.23 -5.94 -7.47
Si -4.44  0.02  9.05
Si  8.90  2.30  4.16
Si  3.58  2.44  9.11
Si -9.40 -3.56 -0.85
Si -2.53  9.46 -2.46
Si -8.92  2.40  4.11
Si -5.69  6.01  5.80
Si -5.81 -3.57 -7.47
Si -3.67 -2.38 -9.13
Si  5.68 -6.00 -5.85
Si -7.92  4.79  4.11
Si  7.91 -4.75 -4.19
Si  0.63  8.32 -5.76
Si  4.43  0.02 -9.13
Si -9.84  0.01 -2.51
Si -0.56 -8.34  5.77
Si  5.89  3.55  7.48
Si  7.55  3.60  5.77
Si  8.04  4.75 -4.08
Si -7.59 -3.56 -5.81
Si  2.57 -9.55  2.50
Si  1.23 -8.34 -5.77
Si -5.82 -8.38  0.86
Si  0.81 -4.75  9.05
Si  2.85  9.53  2.50
Si  5.89  8.36 -0.85
Si -1.16  8.37  5.82
Si  6.99 -7.14  2.43
Si  3.87 -5.94 -7.47
Si -8.09 -4.83  4.16
Si -10.20 -1.18  0.85
Si -3.90  5.98  7.43
Si  8.45  1.21 -5.81
Si -8.48 -1.17  5.77
Si -2.81 -9.63 -2.46
Si -7.00  7.18 -2.51
Si -0.99 -4.83 -9.08
Si -0.82  4.79 -9.13
Si  0.94  4.75  9.16
Si 10.27  1.22 -0.80
Si  0.74 -9.53  4.11
Si  8.48  5.99 -0.85
Si -8.51 -5.95  0.81
Si -2.33 -8.34 -5.81
Si  2.30  8.37  5.77
Si -7.21 -7.14  2.43
Si -1.03 -9.52 -4.19
Si  1.02  9.56  4.11
Si  7.20  7.18 -2.51
Si -0.76  9.56 -4.19
Si  2.97 -8.30  5.80
Si -2.60  4.79  9.05
Si  6.61 -3.56  7.43
Si  2.70  4.71 -9.08
Si -9.76  0.02  4.11
Si -2.98  8.31 -5.85
Si  2.59 -4.75 -9.13
Si  9.75  0.02 -4.19
Si  7.53 -1.23  7.39
Si -6.64  3.60 -7.47
Si -6.51  8.36  0.85
Si  6.58 -8.33 -0.80
Si -2.56  9.48  4.16
Si -7.54  1.24 -7.44
Si -6.69 -5.94  5.82
Si -2.74 -4.79  9.16
Si  2.51 -9.56 -4.08
Si  6.76  5.98 -5.77
Si -8.31  3.55 -5.76
Si  2.79  9.53 -4.08
Si -4.25  9.53  2.50
Si  0.31 -10.72  0.85
Si -5.29  2.30 -9.09
Si -4.90 -6.00  7.48
Si -0.84 -0.01 -10.74
Si  4.97  5.97 -7.47
Si  6.98 -7.10 -4.13
Si  8.38 -3.57  5.77
Si  4.57  9.46 -2.46
Si -0.23 10.76 -0.80
Si -10.14  3.59 -0.85
Si  0.88 -0.09 10.78
Si  5.28  2.40 -9.13
Si  4.29 -9.63 -2.46
Si -5.37 -2.33  9.11
Si  5.33 -2.40  9.12
Si -2.83 -9.60  4.16
Si  1.56 10.71  0.86
Si -1.48 -10.73 -0.85
Si -4.53 -9.55  2.50
Si 10.22 -3.61  0.86
Si -7.07  7.17  4.11
Si  7.12  7.17  4.11
Si  2.05 -10.69 -0.82
Si -2.06 10.70  0.77
Si -7.21 -7.10 -4.13
Si -4.13 -8.30  5.80
Si  0.02  2.37 -10.70
Si  4.12  8.31 -5.85
Si -9.18  5.99 -0.80
Si -9.28  1.21 -5.77
Si  9.61 -4.76 -2.51
Si -6.24 -0.06 -9.08
Si  9.25 -5.95  0.85
Si -0.07 -2.45 10.78
Si  6.20 -0.02  9.16
Si  2.65  0.06 -10.75
Si  9.35 -1.17  5.82
Si -2.74  0.01 10.73
Si  5.68 -6.00  7.39
Si -9.70  4.83  2.49
Si -11.02  1.22 -0.80
Si -1.82 -2.40 -10.70
Si -5.69  6.01 -7.44
Si -1.74  2.40 10.73
Si -4.40  4.71 -9.08
Si -7.43  5.98 -5.77
Si 10.61 -2.37 -2.51
Si -10.62  2.41  2.43
Si  9.82  4.69 -2.46
Si  1.78  2.33 10.78
Si -9.78 -4.78  2.50
Si  4.50  4.79  9.05
Si 11.09 -1.18  0.85
Si -7.59 -3.56  7.43
Si  1.73 -2.37 -10.81
Si  7.51 -5.94  5.82
Si 10.67  2.41  2.43
Si  0.64  8.32  7.48
Si -0.56 -8.34 -7.47
Si  7.55  3.60 -7.47
Si  4.36 -4.79  9.16
Si  4.76 -8.34 -5.81
Si -4.31  9.53 -4.08
Si -10.68 -2.37 -2.51
Si -3.25 -10.72  0.81
Si -4.51 -4.75 -9.13
Si -4.80  8.37  5.77
Si -1.16  8.37 -7.42
Si  3.22 10.76 -0.85
Si  1.23 -8.34  7.47
Si  4.26 -9.60  4.16
Si  4.54  9.48  4.16
Si -7.61 -8.33 -0.80
Si  8.45  1.21  7.43
Si -4.59 -9.56 -4.08
Si -8.48 -1.17 -7.47
Si  7.68  8.36  0.85
Si -2.33 -8.34  7.43
Si  3.84 -10.72  0.81
Si  2.30  8.37 -7.47
Si -3.87 10.76 -0.85
Si -2.98  8.31  7.39
Si  6.06 -9.49  2.49
Si  2.97 -8.30 -7.44
Si  3.51 -2.37 10.73
Si  9.68 -4.75  4.11
Si 10.53 -2.38  4.11
Si -0.11 -7.10  9.11
Si -3.59 -2.37 10.73
Si  8.76 -7.14 -2.51
Si -9.38 -3.53  5.80
Si  4.35  0.01 10.73
Si -8.77  7.18  2.43
Si -9.70  4.79 -4.19
Si  9.37  3.54 -5.85
Si  0.02  7.17 -9.13
Si -6.69 -5.94 -7.42
Si -3.52  2.41 -10.81
Si -4.44  0.06 -10.75
Si  9.79  4.71  4.16
Si -6.15  9.55 -2.51
Si  3.58  2.41 -10.81
Si -10.62  2.44 -4.13
Si -11.07 -3.61  0.86
Si -9.84 -4.79 -4.08
Si 10.67  2.44 -4.13
Si  1.59 -7.15 -9.13
Si -5.87 -8.34 -5.77
Si  6.76  5.98  7.47
Si 11.45  0.01 -2.51
Si -8.31  3.55  7.48
Si -10.15 -1.22 -5.76
Si  8.96  7.14  2.54
Si 11.15  3.59 -0.85
Si -1.68  7.21  9.11
Si  1.93  7.15  9.12
Si -7.01  2.38  9.12
Si -10.76 -2.38  4.11
Si  0.81 -4.72 -10.75
Si  7.06 -2.47 -9.09
Si -6.43 -9.53 -2.51
Si -1.88 -7.24 -9.09
Si  6.34  9.60  2.49
Si  8.38 -3.57 -7.47
Si -0.90  4.78 10.73
Si  1.00  4.76 -10.74
Si 10.22  1.20  5.77
Si  5.94  8.37  5.82
Si -9.01 -7.22 -2.46
Si -11.54  0.06  2.49
Si -8.30  8.36 -0.85
