500
set: 1467.00  0.00  0.00
Si -0.12  0.61 -0.21
Si -0.45 -0.65  1.54
Si -0.98 -0.67 -1.76
Si  1.39  0.86  2.30
Si  2.73  0.88 -0.87
Si -2.82  0.88 -0.87
Si  0.36  3.05  0.26
Si  0.25 -2.76 -1.42
Si  0.79 -2.67  1.81
Si -2.59  2.21  0.65
Si  0.59  0.68 -3.41
Si  2.96  2.21  0.65
Si  2.62 -1.24  2.64
Si  0.65 -3.93  0.26
Si -0.45  2.40  3.19
Si -1.86  2.78 -2.25
Si -2.93 -1.24  2.64
Si  2.73 -2.18 -2.52
Si -2.82 -2.18 -2.52
Si -0.03  4.22 -1.42
Si -2.01  1.52 -3.80
Si  0.51  4.31  1.81
Si -4.16  0.86  2.30
Si  2.25  2.14  3.85
Si  4.58 -0.67 -1.76
Si  0.36 -0.65 -4.93
Si -1.58 -4.19 -2.25
Si -2.49 -0.91 -4.27
Si  3.69  2.78 -2.25
Si -2.31 -4.77  0.65
Si  3.06 -0.91 -4.27
Si  5.10 -0.65  1.54
Si  3.54  1.52 -3.80
Si  5.44  0.61 -0.21
Si -3.30  2.14  3.85
Si -2.54 -2.40  4.32
Si -0.16 -4.57  3.19
Si -5.67  0.61 -0.21
Si  0.07 -3.24  4.71
Si -4.76 -2.67  1.81
Si  3.02 -2.40  4.32
Si  3.25 -4.77  0.65
Si  2.44  4.80 -2.52
Si  1.92  0.87  5.60
Si -0.22  3.73  4.71
Si -5.19  3.05  0.26
Si -4.96  0.68 -3.41
Si -5.30 -2.76 -1.42
Si  3.97 -4.19 -2.25
Si -6.01 -0.65  1.54
Si -3.11  4.80 -2.52
Si -4.91 -3.93  0.26
Si  0.17 -6.36 -0.21
Si -2.39 -1.14  5.87
Si  5.11  2.40  3.19
Si -0.74  6.32  1.54
Si -2.41  2.69 -5.48
Si  1.32  1.26 -6.31
Si  5.80 -2.76 -1.42
Si  2.21 -2.19 -5.82
Si  5.92  3.05  0.26
Si -2.53 -6.10 -0.87
Si -1.26  6.31 -1.76
Si  2.54 -4.84  3.85
Si -3.64  0.87  5.60
Si -0.56  0.29  6.70
Si  2.34  5.74  2.64
Si  1.68 -6.12  2.30
Si  3.16 -1.14  5.87
Si -6.53 -0.67 -1.76
Si  2.73  4.58  4.32
Si  3.02 -6.10 -0.87
Si  3.15  2.69 -5.48
Si -1.73 -5.45 -3.80
Si -3.01 -4.84  3.85
Si -5.05  4.31  1.81
Si -2.82  4.58  4.32
Si -1.79  2.38  6.36
Si  6.15  0.68 -3.41
Si -3.35 -2.19 -5.82
Si  5.52  4.22 -1.42
Si -3.22  5.74  2.64
Si  6.34 -2.67  1.81
Si -5.59  4.22 -1.42
Si -5.19 -0.65 -4.93
Si -6.00  2.40  3.19
Si  0.88 -6.29 -3.41
Si -2.12 -4.29 -5.48
Si  6.20 -3.93  0.26
Si  0.07  3.27 -6.58
Si  6.95  0.86  2.30
Si  0.36 -3.70 -6.58
Si -3.87 -6.12  2.30
Si -0.40  7.59 -0.21
Si  6.06  4.31  1.81
Si  3.83 -5.45 -3.80
Si -4.24  1.26 -6.31
Si -1.78 -0.84 -7.47
Si  5.92 -0.65 -4.93
Si  5.39 -4.57  3.19
Si  3.43 -4.29 -5.48
Si  3.77  2.38  6.36
Si  1.92  4.78 -5.82
Si -0.17 -7.63  1.54
Si  4.29  6.31 -1.76
Si -0.69 -7.64 -1.76
Si -2.77  6.07 -4.27
Si  2.78  6.07 -4.27
Si -5.49 -3.24  4.71
Si  1.17 -0.00 -7.86
Si -5.72 -4.57  3.19
Si -1.50 -4.59  6.36
Si  5.62 -3.24  4.71
Si  0.08  6.33 -4.93
Si  5.33  3.73  4.71
Si  4.82  6.32  1.54
Si  2.21 -3.05  7.25
Si -7.42  2.78 -2.25
Si  1.11  7.83  2.30
Si  2.45  7.85 -0.87
Si -5.77  3.73  4.71
Si -5.38 -6.36 -0.21
Si -3.63  4.78 -5.82
Si  4.99  0.29  6.70
Si  8.29  0.88 -0.87
Si  0.31  7.66 -3.41
Si  3.77 -0.84 -7.47
Si -0.17 -0.88  8.38
Si -8.14  2.21  0.65
Si  1.92  3.93  7.25
Si -8.37  0.88 -0.87
Si -3.10  7.85 -0.87
Si -3.35 -3.05  7.25
Si -4.68 -6.29 -3.41
Si  5.72 -6.36 -0.21
Si  2.20 -6.10  5.60
Si -7.13 -4.19 -2.25
Si -0.64 -3.31  7.91
Si -7.56  1.52 -3.80
Si  1.60 -5.72 -6.31
Si  8.18 -1.24  2.64
Si -2.68  5.83  5.87
Si  0.69 -2.44 -8.33
Si  2.88  5.83  5.87
Si -0.93  3.66  7.91
Si  8.52  2.21  0.65
Si  4.05 -4.59  6.36
Si  8.28 -2.18 -2.52
Si -3.35 -6.10  5.60
Si  7.81  2.14  3.85
Si -8.48 -1.24  2.64
Si -4.38 -0.00 -7.86
Si -3.63  3.93  7.25
Si -8.38 -2.18 -2.52
Si -2.65 -8.21  2.64
Si -6.29  6.32  1.54
Si -6.11  0.29  6.70
Si  2.91 -8.21  2.64
Si  0.65 -7.62 -4.93
Si -8.04 -0.91 -4.27
Si -5.20 -3.70 -6.58
Si -5.48  3.27 -6.58
Si  5.15  7.59 -0.21
Si -7.86 -4.77  0.65
Si  4.86 -7.64 -1.76
Si -2.20 -7.89 -4.27
Si  5.63  3.27 -6.58
Si  2.44 -1.72  8.77
Si -4.45  7.83  2.30
Si  7.47  0.87  5.60
Si -3.95 -5.72 -6.31
Si  6.87  1.26 -6.31
Si -6.82  6.31 -1.76
Si  5.39 -7.63  1.54
Si -2.01 -2.17 -8.99
Si -3.12 -1.72  8.77
Si -0.28 -6.69  6.70
Si -8.09 -2.40  4.32
Si  0.41  4.54 -8.33
Si  3.35 -7.89 -4.27
Si  2.68  9.19  0.65
Si -2.30  8.50 -3.80
Si  5.91 -3.70 -6.58
Si  6.43 -6.29 -3.41
Si  0.78  1.17 -9.54
Si -2.88  9.19  0.65
Si -5.96  7.59 -0.21
Si -5.72 -7.63  1.54
Si  8.00  4.80 -2.52
Si  8.62 -0.91 -4.27
Si -5.48  6.33 -4.93
Si  7.23 -6.12  2.30
Si  1.63  7.85  5.60
Si  5.63  6.33 -4.93
Si -2.54 -9.15 -2.52
Si  0.54 -9.74 -1.42
Si -7.28 -5.45 -3.80
Si  3.26  8.50 -3.80
Si  4.62  3.66  7.91
Si  1.08 -9.64  1.81
Si  4.91 -3.31  7.91
Si -2.06  6.13 -7.47
Si -8.85  2.14  3.85
Si -5.25  7.66 -3.41
Si  8.57 -2.40  4.32
Si  3.55 -2.17 -8.99
Si  9.24  2.78 -2.25
Si -0.85  7.27  6.70
Si -0.73  9.38  3.19
Si -0.02  0.38  9.93
Si  7.76 -2.19 -5.82
Si -7.95 -1.14  5.87
Si -4.86 -2.44 -8.33
Si  3.02 -9.15 -2.52
Si  9.10  1.52 -3.80
Si  5.39 -0.88  8.38
Si -7.34  2.38  6.36
Si -9.71  0.86  2.30
Si -6.25 -7.64 -1.76
Si -7.96  2.69 -5.48
Si -1.26  2.40  9.66
Si  0.07 10.03  0.26
Si  8.80 -4.77  0.65
Si  1.97  9.12  3.85
Si  7.89  5.74  2.64
Si -8.09 -6.10 -0.87
Si -5.72 -0.88  8.38
Si  8.09 -4.84  3.85
Si -8.66  4.80 -2.52
Si  5.86  7.66 -3.41
Si -2.11 -8.12  5.87
Si -2.15  9.76 -2.25
Si  3.49  6.13 -7.47
Si 10.13 -0.67 -1.76
Si -4.91 -7.62 -4.93
Si  6.73 -0.00 -7.86
Si -7.67 -4.29 -5.48
Si -0.45  6.10  8.38
Si  8.29  4.58  4.32
Si -3.92  7.85  5.60
Si -0.45  3.26 -9.88
Si  1.03  8.23 -6.31
Si -1.05 -0.27 -10.37
Si -2.29  4.80 -8.99
Si  2.15  5.26  8.77
Si -8.38  4.58  4.32
Si -7.33 -0.84 -7.47
Si -3.58  9.12  3.85
Si  6.66  7.83  2.30
Si  0.89  6.98 -7.86
Si -7.06 -4.59  6.36
Si -0.17 -3.72 -9.88
Si  8.57 -6.10 -0.87
Si -8.57 -4.84  3.85
Si -2.25 -9.38  4.32
Si  8.72 -1.14  5.87
Si  3.40  9.76 -2.25
Si -6.20 -3.31  7.91
Si  3.45 -8.12  5.87
Si  7.47  4.78 -5.82
Si  1.46 -6.98 -7.86
Si  8.70  2.69 -5.48
Si  9.53 -4.19 -2.25
Si  6.25 -2.44 -8.33
Si  3.26  4.80 -8.99
Si -4.78  1.17 -9.54
Si -0.98 -4.58  9.66
Si -3.40  5.26  8.77
Si 10.65 -0.65  1.54
Si -4.48 -9.64  1.81
Si -5.14  4.54 -8.33
Si -9.19  0.87  5.60
Si -10.32 -2.67  1.81
Si -8.77  5.74  2.64
Si  4.29  2.40  9.66
Si  3.30 -9.38  4.32
Si  5.28 -6.69  6.70
Si -8.90 -2.19 -5.82
Si -6.48  3.66  7.91
Si  0.87 -3.07 10.42
Si -1.49 -7.82 -7.47
Si  0.93 -10.90  0.26
Si  4.71  7.27  6.70
Si  6.20 -7.62 -4.93
Si 10.99  0.61 -0.21
Si  4.82  9.38  3.19
Si -2.30  1.75 -10.64
Si -5.02 -9.74 -1.42
Si  7.76 -3.05  7.25
Si  1.81  1.81 10.76
Si -10.52  0.68 -3.41
Si -5.83 -6.69  6.70
Si  7.16 -5.72 -6.31
Si  7.48  3.93  7.25
Si  2.49 -9.17 -5.82
Si  0.58  3.91 10.42
Si -8.33  6.07 -4.27
Si  8.33  6.07 -4.27
Si -10.75  3.05  0.26
Si -10.46 -3.93  0.26
Si  5.96  4.54 -8.33
Si  1.06 -5.81 -9.54
Si -11.22  0.61 -0.21
Si  8.00  7.85 -0.87
Si  0.35 -10.22  4.71
Si  3.25  1.75 -10.64
Si -4.10 -6.98 -7.86
Si -3.06 -9.17 -5.82
Si -0.32 11.19 -1.42
Si -10.86 -2.76 -1.42
Si  4.50 -0.27 -10.37
Si -4.52  8.23 -6.31
Si  7.76 -6.10  5.60
Si  8.99 -4.29 -5.48
Si  5.53  0.38  9.93
Si 10.66  2.40  3.19
Si -5.57  0.38  9.93
Si -5.48 10.03  0.26
Si  0.22 11.28  1.81
Si -2.69  9.67 -5.48
Si -0.97 -1.52 11.31
Si -1.29 -11.17 -2.25
Si -9.43 -6.12  2.30
Si  2.86  9.67 -5.48
Si  0.12 -7.85  8.38
Si  9.38 -5.45 -3.80
Si -4.67  6.98 -7.86
Si  5.63 10.03  0.26
Si  6.33  1.17 -9.54
Si -2.07  9.36  6.36
Si  9.32  2.38  6.36
Si -3.74  1.81 10.76
Si  4.06 -7.82 -7.47
Si  5.10  6.10  8.38
Si  6.09 -9.74 -1.42
Si  5.10  3.26 -9.88
Si -10.60  4.31  1.81
Si  4.58 -4.58  9.66
Si -8.23  5.83  5.87
Si -11.56 -0.65  1.54
Si -0.51 10.71  4.71
Si -9.79  1.26 -6.31
Si -8.66  7.85 -0.87
Si -6.29  9.38  3.19
Si 11.36 -2.76 -1.42
Si -6.40  7.27  6.70
Si  8.43  5.83  5.87
Si  9.85  6.31 -1.76
Si -4.68 -3.07 10.42
Si  3.48  9.36  6.36
Si -10.74 -0.65 -4.93
Si  6.63 -9.64  1.81
Si -4.62 -10.90  0.26
Si  5.39 -3.72 -9.88
Si  1.40 -2.37 -11.53
Si -7.76 -7.89 -4.27
Si 11.47  3.05  0.26
Si -8.90 -3.05  7.25
Si -9.19  4.78 -5.82
Si -8.20 -8.21  2.64
Si  0.27 -6.59  9.93
Si 11.07  4.22 -1.42
Si -2.02 -11.74  0.65
Si -7.56 -2.17 -8.99
Si  9.33 -0.84 -7.47
Si -6.00  6.10  8.38
Si  0.12 -11.55  3.19
Si  7.99 -1.72  8.77
Si -11.14  4.22 -1.42
Si -5.72 -3.72 -9.88
Si -6.00  3.26 -9.88
Si  7.19  7.85  5.60
Si -2.01 -5.23 -10.64
Si -4.49 -5.81 -9.54
Si -6.82  2.40  9.66
Si -1.20 -1.52 -11.92
Si  8.46 -8.21  2.64
Si  2.10 -5.16 10.76
Si -8.90 -6.10  5.60
Si  4.26 -11.17 -2.25
Si -7.85  8.50 -3.80
Si -0.21 10.25 -6.58
Si -4.97  3.91 10.42
Si 11.70  0.68 -3.41
Si  1.73 -1.79 11.97
Si -11.56  2.40  3.19
Si -12.08 -0.67 -1.76
Si  2.16 11.78 -2.52
Si 10.37  6.32  1.54
Si 10.95 -4.57  3.19
Si  3.53 -11.74  0.65
Si  6.59  8.23 -6.31
Si  4.58 -1.52 11.31
Si -6.61 -0.27 -10.37
Si -7.62  6.13 -7.47
Si  6.44  6.98 -7.86
Si 11.90 -2.67  1.81
Si -9.19  3.93  7.25
Si  8.23  9.19  0.65
Si -0.30  7.36  9.93
Si  3.54 -5.23 -10.64
Si 11.75 -3.93  0.26
Si -5.20 -10.22  4.71
Si  9.61 -4.59  6.36
Si -1.34  6.71 -10.37
Si -3.46 -5.16 10.76
Si  7.52  9.12  3.85
Si -11.04 -3.24  4.71
Si  5.23 11.19 -1.42
Si 10.89  3.73  4.71
Si -8.67 -1.72  8.77
Si  1.12  4.61 -11.53
Si -8.09 -9.15 -2.52
Si -4.15 -2.37 -11.53
Si -8.43  9.19  0.65
Si -10.23 -6.29 -3.41
Si 10.55  0.29  6.70
Si 11.47 -0.65 -4.93
Si -3.40 11.78 -2.52
Si 11.61  4.31  1.81
Si -6.53 -4.58  9.66
Si  0.49  8.14 -9.54
Si 11.17 -3.24  4.71
Si  0.64 -10.68 -6.58
Si  2.45 11.55  4.32
Si -11.27 -4.57  3.19
Si  0.98 -9.41 -8.33
Si -5.33 11.28  1.81
Si -7.66 -8.12  5.87
Si -1.26  5.45 11.31
Si  2.49 -10.03  7.25
Si  6.42 -3.07 10.42
Si  7.01 -6.98 -7.86
Si -7.70  9.76 -2.25
Si  8.90 -7.89 -4.27
Si  2.72 -8.70  8.77
Si  2.21  0.65 12.44
Si -1.83 -11.26 -5.48
Si -10.94 -6.36 -0.21
Si -9.94 -0.00 -7.86
Si -2.83 -8.70  8.77
Si -0.77 -7.24 -10.37
Si  6.49 -10.90  0.26
Si -3.83 -1.79 11.97
Si -5.43 -7.85  8.38
Si  5.91 -10.22  4.71
Si  6.14  3.91 10.42
Si -3.11 11.55  4.32
Si -5.87 11.19 -1.42
Si -2.73 -11.81  3.85
Si 12.50  0.86  2.30
Si  2.83 -11.81  3.85
Si -3.06 -10.03  7.25
Si  5.05 10.71  4.71
Si -9.51 -5.72 -6.31
Si  4.36 -1.52 -11.92
Si  8.57 -9.15 -2.52
Si  5.77 11.28  1.81
Si  7.71  5.26  8.77
Si  5.67 -7.85  8.38
Si  8.81  8.50 -3.80
Si -11.33  3.73  4.71
Si -0.74 -0.19 12.83
Si -7.85  4.80 -8.99
Si -3.35  0.65 12.44
Si -1.96  3.02 -12.39
Si -7.05 -7.82 -7.47
Si -10.00  7.83  2.30
Si -7.80 -9.38  4.32
Si -1.72 -9.15 -8.99
Si 11.28 -6.36 -0.21
Si  9.10 -2.17 -8.99
Si  6.62 -5.81 -9.54
Si -0.36 -10.29  7.91
Si 10.42 -7.64 -1.76
Si -5.29 -6.59  9.93
Si  4.21  6.71 -10.37
Si  3.72 -11.26 -5.48
Si -1.44 -12.43 -3.80
Si -1.68 -3.96 -12.39
Si  1.44  5.19 11.97
Si 10.71  7.59 -0.21
Si -10.75 -3.70 -6.58
Si -6.53 -1.52 11.31
Si  2.05 12.72  2.64
Si -5.43 -11.55  3.19
Si  7.37  1.81 10.76
Si -6.06 10.71  4.71
Si -4.44  4.61 -11.53
Si -1.48  5.45 -11.92
Si  1.64 10.90  7.25
Si  1.64 11.76 -5.82
Si  9.04  6.13 -7.47
Si  3.59  3.02 -12.39
Si  5.68 -11.55  3.19
Si -11.04  3.27 -6.58
Si -1.22 -11.57  6.36
Si  5.82 -6.59  9.93
Si  4.29  5.45 11.31
Si -6.85 -11.17 -2.25
