500
set: 789.00  0.00  0.00
Si  0.37 -1.25  0.82
Si -0.42  1.23 -0.88
Si  1.27  1.04  0.78
Si -1.29 -1.08 -0.80
Si  2.12 -1.10 -0.78
Si  0.87  0.05 -2.44
Si -2.22  1.06  0.83
Si -0.85  0.06  2.49
Si -0.05 -2.29 -2.35
Si  0.10  2.30  2.45
Si  3.09  1.18 -0.81
Si -3.06 -1.33  0.72
Si -2.53  0.05 -2.45
Si  2.63 -0.02  2.38
Si -1.29  3.30  0.72
Si  0.48  3.55 -0.80
Si -0.50 -3.58  0.78
Si  1.73  2.34 -2.35
Si  1.74 -2.28  2.44
Si  1.31 -3.44 -0.81
Si -1.68 -2.33  2.45
Si -1.76  2.37 -2.40
Si  2.14  3.38  0.82
Si -0.79 -0.02 -4.01
Si -3.83  1.18 -0.81
Si -2.19 -3.40 -0.88
Si  3.85 -1.33  0.72
Si  0.84  0.03  4.11
Si -0.01 -2.26  4.02
Si  0.04  2.37 -3.97
Si  2.93 -3.57  0.83
Si -3.03  3.53 -0.78
Si  3.38 -2.26 -2.40
Si -3.40  2.34  2.44
Si  2.63  0.03 -4.02
Si -3.54 -2.26 -2.40
Si -2.65  0.06  4.06
Si  3.52  2.34  2.44
Si -1.74 -2.25 -3.97
Si  4.70  1.06  0.83
Si -4.29 -0.02  2.38
Si -1.65  2.36  4.01
Si  1.76  2.36  4.02
Si -4.80 -1.10 -0.78
Si  1.74 -2.33 -4.08
Si  4.38  0.05 -2.45
Si -0.90 -4.57 -2.44
Si  0.86 -4.64  2.38
Si  3.89  3.53 -0.78
Si -0.76  4.67 -2.45
Si  0.92  4.69  2.49
Si -3.99 -3.57  0.83
Si -3.42 -2.26  4.01
Si -0.45  5.68  0.83
Si -2.52  4.61  2.38
Si  3.50 -2.26  4.01
Si  5.63 -1.08 -0.80
Si  0.34 -5.72 -0.78
Si -3.40  2.29 -4.08
Si -5.65  1.04  0.78
Si -0.41  1.23  5.66
Si  2.61 -4.58 -2.45
Si -2.62 -4.56  2.49
Si -1.30 -1.08  5.58
Si  0.38 -1.27 -5.68
Si  3.52  2.29 -4.08
Si  1.25  1.06 -5.64
Si -4.29  0.03 -4.02
Si  4.73 -3.40 -0.88
Si  4.27  0.06  4.06
Si  2.65  4.68 -2.44
Si -4.78  3.38  0.82
Si  1.35  5.85 -0.88
Si -1.40 -5.87  0.82
Si -5.17 -2.28  2.44
Si  5.16  2.37 -2.40
Si -5.19  2.34 -2.35
Si  0.86 -4.59 -4.02
Si  2.20 -1.13  5.65
Si  0.98  4.61 -4.01
Si -2.06  5.81 -0.81
Si -2.18  0.99 -5.74
Si -0.93 -4.60  4.11
Si  5.24 -2.33  2.45
Si -0.87  4.68  4.06
Si  2.08 -5.95  0.72
Si  3.04  5.67  0.78
Si -6.04  0.05 -2.44
Si -3.06 -5.70 -0.80
Si  3.00  1.21  5.68
Si -3.10 -1.25 -5.63
Si  6.07  0.06  2.49
Si  5.63  3.30  0.72
Si  2.50 -4.57  4.06
Si  0.47  3.54  5.58
Si -5.61 -3.44 -0.81
Si -2.52  4.66 -4.02
Si -2.56 -4.64 -4.01
Si  6.50  1.23 -0.88
Si -0.52 -3.56 -5.64
Si -1.33  3.37 -5.63
Si -6.55 -1.25  0.82
Si  2.61  4.65  4.11
Si  4.30 -4.56  2.49
Si  1.23 -3.41  5.68
Si -4.31 -4.58 -2.45
Si -4.27  4.68 -2.44
Si  4.40  4.61  2.38
Si  5.18 -2.25 -3.97
Si -3.88  5.67  0.78
Si  3.81 -1.25 -5.63
Si  3.85 -5.70 -0.80
Si  2.15  3.35 -5.68
Si -2.18 -3.39  5.66
Si -5.16  2.36  4.02
Si -5.18 -2.33 -4.08
Si -3.92  1.21  5.68
Si  5.27  2.36  4.01
Si -2.94  3.49  5.65
Si  6.13 -0.02 -4.01
Si -0.03 -6.91  2.44
Si -6.08  0.03  4.11
Si  0.38 -1.27  7.24
Si -0.41  1.23 -7.26
Si  6.42 -3.58  0.78
Si  0.01  6.99 -2.40
Si -6.44  3.55 -0.80
Si  2.97 -3.64 -5.74
Si  7.29 -1.25  0.82
Si -4.72 -1.13  5.65
Si  1.26  1.06  7.28
Si  1.61 -6.88 -2.40
Si -7.34  1.23 -0.88
Si  4.74  0.99 -5.74
Si  4.36 -4.64 -4.01
Si -1.82 -6.91 -2.35
Si -1.31 -1.08 -7.34
Si -4.42 -4.57  4.06
Si -4.30  4.65  4.11
Si -1.63  6.97  2.44
Si  4.40  4.66 -4.02
Si -2.18  0.99  7.18
Si  1.87  6.92  2.45
Si -6.82  2.30  2.45
Si  6.87 -2.29 -2.35
Si  4.86  5.81 -0.81
Si  2.20 -1.13 -7.27
Si -6.97 -2.29 -2.35
Si -4.84 -5.95  0.72
Si  3.97  3.49  5.65
Si  7.01  2.30  2.45
Si -3.95 -3.64 -5.74
Si  3.00  1.21 -7.24
Si  6.02 -4.57 -2.44
Si  0.48  7.92  0.72
Si  5.62 -1.08  5.58
Si -6.06 -4.64  2.38
Si -6.00  4.69  2.49
Si -3.10 -1.25  7.29
Si -0.41  5.61 -5.74
Si  0.13  6.99  4.01
Si -0.03 -6.96 -4.08
Si -5.66  1.06 -5.64
Si  0.43 -5.75  5.65
Si  1.23 -3.41 -7.24
Si  5.51 -5.87  0.82
Si -3.42  6.96 -2.35
Si  6.16  4.67 -2.45
Si -0.52 -3.56  7.28
Si -0.46 -8.07 -0.81
Si -5.56  5.85 -0.88
Si  4.74 -3.39  5.66
Si -4.76  3.35 -5.68
Si -3.45 -6.95  2.45
Si  3.50  6.96 -2.35
Si -1.33  3.37  7.29
Si  3.47 -6.95  2.45
Si  1.73 -6.89  4.01
Si -7.77  0.06  2.49
Si  7.79  0.05 -2.44
Si  0.47  3.54 -7.34
Si -1.78 -6.89  4.02
Si -1.63  6.92 -4.08
Si  7.40  3.55 -0.80
Si  1.81  7.00 -3.97
Si  1.37  5.86  5.66
Si  2.16  3.35  7.24
Si -7.42 -3.58  0.78
Si -1.26  8.15 -0.78
Si  8.19  1.04  0.78
Si -6.88  2.37 -3.97
Si -2.18 -3.39 -7.26
Si -1.39 -5.89 -5.68
Si  6.91 -2.26  4.02
Si  1.16 -8.19  0.83
Si -3.92  1.21 -7.24
Si -8.21 -1.08 -0.80
Si  3.81 -1.25  7.29
Si -6.93 -2.26  4.02
Si  6.96  2.37 -3.97
Si  2.04 -5.88 -5.63
Si -2.14  5.84  5.68
Si  2.25  8.17 -0.80
Si -5.94  4.61 -4.01
Si -3.08 -5.71  5.58
Si -2.28 -8.21  0.78
Si  3.03  5.69 -5.64
Si  2.97 -3.64  7.18
Si -3.00  8.00  0.82
Si -2.95  3.50 -7.27
Si  2.96 -8.02 -0.88
Si  5.99 -4.60  4.11
Si -6.06 -4.59 -4.02
Si  5.59  3.37 -5.63
Si  3.41 -6.88 -3.97
Si  6.47  5.68  0.83
Si  6.04  4.68  4.06
Si  4.74  0.99  7.18
Si -3.51 -6.88 -3.97
Si -7.71 -0.02 -4.01
Si  6.51  1.23  5.66
Si -5.69 -3.41  5.68
Si -3.38  6.99  4.02
Si -4.72 -1.13 -7.27
Si -6.54 -1.27 -5.68
Si -6.58 -5.72 -0.78
Si  7.76  0.03  4.11
Si  3.53  6.99  4.02
Si  0.84  0.03 -8.81
Si  3.84 -5.71  5.58
Si -8.21  3.30  0.72
Si  5.10 -6.91 -2.35
Si -3.89  5.69 -5.64
Si -5.05  6.92  2.45
Si  3.92  8.00  0.82
Si -0.79 -0.02  8.91
Si  8.23 -3.44 -0.81
Si -3.95 -3.64  7.18
Si -3.96 -8.02 -0.88
Si  3.97  3.50 -7.27
Si -5.31 -6.88 -2.40
Si  5.29  6.97  2.44
Si -0.41  5.61  7.18
Si  9.03 -1.10 -0.78
Si -0.01 -2.26 -8.90
Si -6.45  3.54  5.58
Si -9.14  1.06  0.83
Si -8.60 -2.33  2.45
Si -2.65  0.06 -8.86
Si  6.40 -3.56 -5.64
Si  0.04  2.37  8.95
Si  8.64  2.34 -2.35
Si  7.26 -5.72 -0.78
Si  2.63  0.03  8.90
Si -5.66  1.06  7.28
Si  0.43 -5.75 -7.27
Si  8.66 -2.28  2.44
Si -4.76  3.35  7.24
Si  1.75 -2.33  8.84
Si  5.61 -1.08 -7.34
Si  4.74 -3.39 -7.26
Si -8.68  2.37 -2.40
Si -7.68  4.67 -2.45
Si  7.30 -1.27 -5.68
Si -7.32  1.23  5.66
Si -7.36  5.68  0.83
Si  7.78 -4.64  2.38
Si -1.65  2.36 -8.91
Si  1.76  2.36 -8.90
Si -7.82 -4.57 -2.44
Si -1.74 -2.25  8.95
Si  1.37  5.86 -7.26
Si -1.39 -5.89  7.24
Si -4.67  8.17 -0.80
Si  4.78  5.84  5.68
Si  4.64 -8.21  0.78
Si  7.84  4.69  2.49
Si  5.13 -6.89  4.02
Si -4.88 -5.88 -5.63
Si -5.19 -6.89  4.01
Si -5.11  7.00 -3.97
Si -2.15  5.84 -7.24
Si  0.84 -9.20 -2.45
Si -0.74  9.23  2.38
Si  2.04 -5.88  7.29
Si -0.92 -9.27  2.38
Si  5.29  6.92 -4.08
Si  1.01  9.30 -2.45
Si  9.06  3.38  0.82
Si  3.03  5.69  7.28
Si -3.40  2.29  8.84
Si -8.56  2.36  4.01
Si -9.11 -3.40 -0.88
Si -9.45  0.05 -2.45
Si  5.59  3.37  7.29
Si -8.65 -2.25 -3.97
Si  3.52  2.29  8.84
Si  0.44  8.00 -5.63
Si -3.08 -5.71 -7.34
Si -3.42 -2.26 -8.91
Si -5.69 -3.41 -7.24
Si  6.51  1.23 -7.26
Si  4.27  0.06 -8.86
Si -6.53 -1.27  7.24
Si  3.50 -2.26 -8.91
Si  9.55 -0.02  2.38
Si  2.52 -9.19  2.49
Si  8.68  2.36  4.02
Si  8.66 -2.33 -4.08
Si -5.55  5.86  5.66
Si -0.54 -8.04  5.68
Si  5.53 -5.89 -5.68
Si -4.29  0.03  8.90
Si -2.67 -9.20 -2.44
Si  7.78 -4.59 -4.02
Si  7.39  3.54  5.58
Si -2.50  9.30 -2.44
Si  5.66  8.15 -0.78
Si -7.79  4.68  4.06
Si -1.17  8.12  5.65
Si -7.85 -4.60  4.11
Si -0.94 -4.60 -8.81
Si  7.90  4.61 -4.01
Si  8.17  1.06 -5.64
Si -7.44 -3.56 -5.64
Si -8.22 -1.08  5.58
Si  2.70  9.31  2.49
Si -3.89  5.69  7.28
Si -5.76 -8.19  0.83
Si  0.86 -4.59  8.90
Si  6.89 -6.91  2.44
Si -0.88  4.68 -8.86
Si  3.84 -5.71 -7.34
Si  0.73 -9.20  4.06
Si  0.98  4.61  8.91
Si -6.95 -6.91  2.44
Si -9.98 -1.33  0.72
Si -0.92 -9.22 -4.02
Si 10.01  1.18 -0.81
Si -6.91  6.99 -2.40
Si  1.19 -8.26 -5.74
Si  6.93  6.99 -2.40
Si  2.24  8.17  5.58
Si -0.74  9.28 -4.02
Si  8.27  5.85 -0.88
Si  0.90  9.30  4.06
Si -2.29 -8.19 -5.64
Si -8.32 -5.87  0.82
Si -6.44  7.92  0.72
Si -2.99  7.98 -5.68
Si  2.97 -8.02  5.66
Si  2.50 -4.57 -8.86
Si  2.61  4.65 -8.81
Si  6.40 -3.56  7.28
Si  6.51  5.61 -5.74
Si -6.49 -5.75  5.65
Si -2.51  4.66  8.90
Si  9.55  0.03 -4.02
Si  7.30 -1.27  7.24
Si  6.46 -8.07 -0.81
Si -2.56 -4.64  8.91
Si -7.33  1.23 -7.26
Si -9.57  0.06  4.06
Si -6.45  3.54 -7.34
Si  2.58 -9.27 -4.01
Si  4.25 -9.20 -2.44
Si  1.33 10.31  0.83
Si  2.75  9.23 -4.01
Si  4.77  5.84 -7.24
Si -2.71 -9.22  4.11
Si -2.53  9.28  4.11
Si -0.85  0.06 -10.43
Si -0.29 10.43 -0.81
Si -1.43 -10.35 -0.78
Si -4.39 -9.19  2.49
Si -5.17 -2.33  8.84
Si  8.15 -3.41  5.68
Si  9.85 -3.57  0.83
Si  0.88  0.05 10.48
Si -4.22  9.31  2.49
Si -2.10 10.29  0.78
Si -6.79  6.99  4.01
Si -8.25  3.37 -5.63
Si  3.93  7.98 -5.68
Si -5.16  2.36 -8.90
Si -4.88 -5.88  7.29
Si  2.08 -10.33 -0.80
Si -3.95 -8.02  5.66
Si  4.42  9.30 -2.44
Si  5.18 -2.25  8.95
Si -9.95  3.53 -0.78
Si  0.31 -10.58  0.72
Si  6.89 -6.96 -4.08
Si  5.27  2.36 -8.91
Si -6.95 -6.96 -4.08
Si  7.04  6.99  4.01
Si -6.08  0.03 -8.81
Si  0.09  2.30 -10.47
Si -8.98  5.81 -0.81
Si -9.43  4.61  2.38
Si -2.53  0.05 10.47
Si  9.12 -1.13  5.65
Si -9.10  0.99 -5.74
Si -0.04 -2.29 10.57
Si  9.00 -5.95  0.72
Si 10.30 -2.26 -2.40
Si  6.13 -0.02  8.91
Si -0.55 -8.04 -7.24
Si  0.44  8.00  7.29
Si -10.75  1.18 -0.81
Si  5.53 -5.89  7.24
Si  9.53 -4.58 -2.45
Si -1.68 -2.33 -10.47
Si -5.55  5.86 -7.26
Si -4.31  4.65 -8.81
Si -10.32  2.34  2.44
Si  2.63 -0.02 -10.54
Si -9.54 -4.56  2.49
Si  7.40  7.92  0.72
Si -7.33  5.61 -5.74
Si  1.74 -2.28 -10.48
Si 10.77 -1.33  0.72
Si -4.16  9.23 -4.01
Si -4.42 -4.57 -8.86
Si  7.35 -5.75  5.65
Si  9.56  4.68 -2.44
Si -1.76  2.37 10.52
Si -4.68  8.17  5.58
Si  4.21 -9.22  4.11
Si  4.36 -4.64  8.91
Si -10.45 -2.26 -2.40
Si  1.73  2.34 10.57
Si -7.38 -8.07 -0.81
Si -1.17  8.12 -7.27
Si  4.63 -8.19 -5.64
Si  4.41  4.66  8.90
Si 10.44  2.34  2.44
Si  3.13 10.48 -0.88
Si -4.34 -9.27 -4.01
Si -7.43 -3.56  7.28
Si  8.18  1.06  7.28
Si -3.18 -10.50  0.82
Si  7.39  3.54 -7.34
Si  1.20 -8.26  7.18
Si  4.39  9.28  4.11
Si -8.22 -1.08 -7.34
Si  3.74 -10.50  0.82
Si -3.79 10.48 -0.88
Si -2.99  7.98  7.24
Si -2.29 -8.19  7.28
Si  6.51  5.61  7.18
Si  2.24  8.17 -7.34
Si  2.97 -8.02 -7.26
Si  8.53 -6.88 -2.40
Si  9.07  3.35 -5.68
Si  9.42 -4.57  4.06
Si -9.10 -3.39  5.66
Si -0.03 -6.96  8.84
Si -9.43  4.66 -4.02
Si -3.40  2.34 -10.48
Si  3.39 -2.26 10.52
Si -5.91  9.30 -2.45
Si -9.48 -4.64 -4.01
Si -8.55  6.97  2.44
Si -6.08 -9.20 -2.45
Si  6.00 -9.27  2.38
Si  3.52  2.34 -10.48
Si -10.34 -2.26  4.01
Si -6.49 -5.75 -7.27
Si  0.12  6.99 -8.91
Si -3.53 -2.26 10.52
Si -10.32  2.29 -4.08
Si -1.63  6.92  8.84
Si  4.39  0.05 10.47
Si  6.18  9.23  2.38
Si  9.53  4.65  4.11
Si -4.29 -0.02 -10.54
Si -8.74 -6.91 -2.35
Si  4.82 10.29  0.78
Si 10.42 -2.26  4.01
Si 10.81  3.53 -0.78
Si  1.73 -6.89 -8.91
Si -1.79 -6.88 -8.90
Si  8.15 -3.41 -7.24
Si -4.84 -10.33 -0.80
Si 10.43  2.29 -4.08
Si  5.75  8.12  5.65
Si  8.79  6.92  2.45
Si -11.21 -0.02  2.38
Si  3.93  7.98  7.24
Si -0.90 -4.57 10.48
Si  0.92  4.69 -10.43
Si  9.96  5.67  0.78
Si  6.91 -2.26 -8.90
Si -0.76  4.67 10.47
Si  9.92  1.21  5.68
Si  1.81  7.00  8.95
Si -6.93 -2.26 -8.90
Si -10.91 -3.57  0.83
Si -3.95 -8.02 -7.26
