500
set: 866.00  0.00  0.00
Si  0.37 -1.22  0.78
Si -0.42  1.22 -0.76
Si  1.40  1.24  0.85
Si -1.45 -1.25 -0.84
Si  0.89  0.10 -2.52
Si -0.87  0.00  2.53
Si  2.25 -1.24 -0.85
Si -2.30  1.21  0.86
Si -0.03 -2.42 -2.54
Si  3.20  1.20 -0.87
Si -3.21 -1.33  0.85
Si  0.04  2.43  2.63
Si  2.70  0.03  2.57
Si -0.49 -3.63  0.82
Si -2.75 -0.03 -2.57
Si  0.54  3.68 -0.86
Si  1.69 -2.44  2.47
Si -1.75  2.34 -2.56
Si  1.88  2.44 -2.52
Si -1.22  3.69  0.88
Si  1.27 -3.70 -0.92
Si -1.85 -2.48  2.58
Si -4.01  1.24 -0.81
Si -0.88 -0.01 -4.20
Si  4.02 -1.21  0.91
Si  0.87  0.02  4.25
Si -2.32 -3.67 -0.86
Si  2.37  3.73  0.82
Si -2.98  3.65 -0.82
Si  3.12 -3.64  0.80
Si  0.05  2.55 -4.21
Si -0.07 -2.50  4.27
Si -2.76  0.01  4.18
Si -3.56  2.50  2.51
Si  2.76 -0.05 -4.23
Si -3.64 -2.42 -2.56
Si  3.61 -2.50 -2.55
Si  3.69  2.50  2.48
Si  1.73 -2.44 -4.21
Si -4.55  0.05  2.46
Si -1.83 -2.41 -4.20
Si  4.97  1.24  0.81
Si -1.78  2.41  4.24
Si  4.55 -0.03 -2.52
Si -4.98 -1.26 -0.85
Si  1.93  2.45  4.18
Si  0.83 -4.85  2.48
Si -4.08 -3.66  0.88
Si  4.13  3.65 -0.92
Si  1.02  4.87  2.58
Si -0.77  4.93 -2.56
Si -0.99 -4.91 -2.52
Si -3.57  2.44 -4.17
Si  3.54 -2.41  4.25
Si  2.61 -4.87 -2.50
Si -0.40  1.26  5.93
Si -5.89  1.24  0.81
Si  5.89 -1.26 -0.85
Si -0.35  6.02  0.85
Si  0.49 -1.23 -5.95
Si  3.63  2.49 -4.22
Si  1.36  1.18 -5.86
Si -3.70 -2.50  4.21
Si -2.61  4.93  2.57
Si  4.48 -0.03  4.24
Si -1.38 -1.13  5.92
Si -4.89  3.71  0.80
Si -4.54 -0.01 -4.21
Si  0.34 -6.15 -0.87
Si  2.83  4.93 -2.54
Si -2.82 -4.92  2.63
Si  5.02 -3.70 -0.82
Si  1.41  6.10 -0.84
Si -1.46 -6.11  0.85
Si  2.20 -1.19  5.90
Si -5.39  2.49 -2.50
Si  5.39 -2.42  2.57
Si -2.27  1.17 -5.92
Si -0.84  4.85  4.21
Si  0.77 -4.87 -4.22
Si -2.12  6.09 -0.85
Si -0.94 -4.90  4.18
Si -5.48 -2.42  2.57
Si  5.48  2.49 -2.50
Si  2.11 -6.12  0.81
Si  1.03  4.94 -4.20
Si  6.32  0.05  2.46
Si -6.32 -0.03 -2.52
Si  3.16  1.24  5.92
Si -3.22 -1.27 -5.89
Si -0.56 -3.66 -5.88
Si  2.66 -4.91  4.16
Si -5.85 -3.70 -0.82
Si  3.23  6.13  0.78
Si -2.81 -4.80 -4.21
Si  0.55  3.67  5.93
Si -2.64  4.88 -4.26
Si -3.28 -6.13 -0.76
Si -6.85 -1.21  0.91
Si  6.86  1.24 -0.81
Si -4.40  4.85 -2.55
Si  2.79  4.85  4.27
Si  4.44 -4.85  2.51
Si  5.98  3.71  0.80
Si  1.33 -3.72  5.89
Si -1.33  3.68 -5.95
Si  4.55  4.92  2.47
Si -5.34  2.44  4.16
Si -4.07  1.21  5.87
Si -4.61 -5.01 -2.56
Si  5.37 -2.47 -4.26
Si  2.30  3.69 -5.88
Si  5.52  2.44  4.16
Si  4.09 -1.24 -5.96
Si  4.00 -6.11 -0.81
Si -2.31 -3.68  5.93
Si -3.98  6.14  0.91
Si -5.50 -2.47 -4.26
Si  3.05 -3.71 -5.89
Si  6.33 -0.01 -4.21
Si -3.11  3.67  5.92
Si -0.41  1.19 -7.55
Si -6.39 -0.03  4.24
Si -6.73  3.65 -0.92
Si  0.45 -1.24  7.61
Si -1.39 -1.25 -7.49
Si -0.17 -7.32  2.57
Si  6.79 -3.66  0.88
Si  0.11  7.32 -2.57
Si  4.97  1.26 -5.87
Si -7.66  1.20 -0.87
Si  7.65 -1.33  0.85
Si  1.40  1.26  7.59
Si  4.43 -4.92 -4.17
Si -5.00 -1.24  5.96
Si -4.47  4.94  4.25
Si -1.98 -7.25 -2.52
Si  4.59  4.91 -4.21
Si -1.69  7.40  2.46
Si  1.69 -7.38 -2.52
Si -2.21  1.25  7.57
Si -7.18  2.50  2.48
Si -4.65 -4.95  4.24
Si  5.12  6.11 -0.85
Si  2.00  7.36  2.53
Si  7.23 -2.42 -2.56
Si  2.26 -1.17 -7.64
Si -5.16 -6.14  0.86
Si -7.26 -2.50 -2.55
Si  4.19  3.63  5.89
Si  7.30  2.50  2.51
Si -4.19 -3.67 -5.95
Si -3.18 -1.34  7.57
Si  3.12  1.24 -7.66
Si -6.32  4.92  2.47
Si  6.25 -5.01 -2.56
Si -0.54 -3.57  7.60
Si -5.90  1.26 -5.87
Si  5.71 -6.14  0.86
Si -5.75  6.11 -0.85
Si -6.43 -4.85  2.51
Si  3.45 -7.30  2.46
Si  5.87 -1.24  5.96
Si  0.56  3.68 -7.59
Si  0.10  7.36  4.18
Si -0.35  6.08 -5.89
Si -3.45  7.32 -2.52
Si  6.47  4.85 -2.55
Si  1.26 -3.64 -7.56
Si -1.32  3.65  7.56
Si  8.12 -0.03 -2.57
Si  0.30 -6.11  5.92
Si -4.96  3.65 -5.89
Si  4.90 -3.68  5.92
Si -0.10 -7.40 -4.23
Si -8.17  0.03  2.57
Si -7.75 -3.64  0.80
Si  0.57  8.56  0.86
Si -3.73 -7.35  2.53
Si -1.68  7.35 -4.21
Si -1.51 -6.18 -5.86
Si -0.61 -8.59 -0.85
Si  1.61 -7.38  4.24
Si -4.04  1.25 -7.56
Si  7.17 -2.50  4.21
Si  1.16 -8.56  0.91
Si  1.98  7.34 -4.20
Si  8.57  1.21  0.86
Si -1.14  8.59 -0.81
Si -2.00 -7.33  4.25
Si  4.05 -1.19  7.62
Si  2.10 -6.09 -5.87
Si  3.75  7.45 -2.52
Si  1.49  6.23  5.92
Si  7.88  3.65 -0.82
Si -7.23  2.49 -4.22
Si -8.61 -1.24 -0.85
Si -2.30 -3.67 -7.59
Si  7.30  2.44 -4.17
Si -2.14  6.11  5.96
Si  2.32  3.78  7.60
Si -7.33 -2.41  4.25
Si  2.45  8.57 -0.76
Si -2.50 -8.57  0.78
Si  6.22 -4.95  4.24
Si -6.27  4.91 -4.21
Si  3.12 -3.71  7.61
Si  6.80  1.21  5.87
Si -3.12  3.72 -7.67
Si -3.27 -6.09  5.93
Si  5.91  3.65 -5.89
Si -6.44 -4.92 -4.17
Si -6.78 -1.24 -5.96
Si  8.11  0.01  4.18
Si  6.40  4.94  4.25
Si -3.03  8.59  0.81
Si -8.11 -0.05 -4.23
Si  3.46 -7.36 -4.21
Si -3.52  7.32  4.24
Si  3.02 -8.62 -0.85
Si  3.36  6.13 -5.95
Si -5.97 -3.68  5.92
Si  5.04  1.18  7.58
Si -5.00 -1.18 -7.61
Si -6.87 -6.11 -0.81
Si -3.74 -7.36 -4.20
Si  6.89  6.14  0.91
Si  3.73  7.37  4.25
Si -0.89  0.00  9.27
Si -8.50  3.73  0.82
Si  8.54 -3.67 -0.86
Si  0.94  0.05 -9.31
Si  3.94 -6.15  5.87
Si  4.13  3.71 -7.56
Si -3.91  6.12 -5.96
Si -4.18 -3.70  7.56
Si  5.25 -7.38 -2.57
Si -5.31  7.39  2.57
Si  9.42 -1.25 -0.84
Si -9.46  1.24  0.85
Si  2.70 -0.02  9.21
Si  5.56  7.39  2.57
Si -0.03 -2.44 -9.28
Si -0.02  2.43  9.28
Si -6.68  3.63  5.89
Si -2.65  0.01 -9.25
Si -5.62 -7.38 -2.57
Si  4.27  8.59  0.85
Si -5.83  1.18  7.58
Si -8.99  2.44 -2.52
Si -4.32 -8.60 -0.84
Si  6.68 -3.67 -5.95
Si -0.32  6.01  7.57
Si  5.87 -1.18 -7.61
Si  9.02 -2.48  2.58
Si -1.78  2.35 -9.27
Si  7.65 -1.27 -5.89
Si  1.77 -2.48  9.26
Si -4.88  3.65  7.61
Si  9.12  2.34 -2.56
Si -8.03  4.93 -2.54
Si  1.47  6.11 -7.49
Si  7.59 -6.13 -0.76
Si  4.89 -3.63 -7.67
Si  8.04 -4.92  2.63
Si -7.71  1.24  5.92
Si  0.25 -6.11 -7.66
Si -9.18 -2.44  2.47
Si -7.63  6.13  0.78
Si  1.80  2.45 -9.35
Si -1.46 -6.09  7.59
Si -4.80  8.55 -0.87
Si -1.85 -2.46  9.36
Si -8.25 -4.87 -2.50
Si  5.07  6.16  5.90
Si -5.25  7.30 -4.23
Si  5.24 -7.35  4.18
Si  4.79 -8.68  0.85
Si  8.26  4.93  2.57
Si -5.13 -6.18 -5.92
Si  2.17 -6.18  7.58
Si -2.13  6.17 -7.61
Si  1.11  9.69 -2.56
Si  5.62  7.30 -4.23
Si -5.62 -7.35  4.18
Si -1.18 -9.79  2.47
Si -8.94  2.45  4.18
Si -0.70  9.85  2.51
Si  0.74 -9.85 -2.55
Si -3.55  2.41  9.28
Si  9.03 -2.41 -4.20
Si  3.54 -2.44 -9.32
Si  6.82  1.25 -7.56
Si  3.69  2.44  9.28
Si  8.06 -4.80 -4.21
Si -3.28 -6.16 -7.55
Si -3.73 -2.47 -9.26
Si -9.98  0.10 -2.52
Si -4.42 -0.02  9.30
Si -6.82 -1.19  7.62
Si  5.74 -6.18 -5.92
Si  3.31  6.12  7.61
Si  9.08  2.41  4.24
Si 10.00  0.00  2.53
Si -5.80  6.16  5.90
Si -9.60 -3.70 -0.92
Si  5.99  3.65  7.61
Si -8.08  4.85  4.27
Si -9.14 -2.44 -4.21
Si  9.65  3.69  0.88
Si  4.55  0.04 -9.33
Si -5.98 -3.63 -7.67
Si  0.59  8.53 -5.92
Si -0.66 -8.54  5.90
Si  2.53 -9.78  2.57
Si  7.76  3.67  5.92
Si -8.21 -4.91  4.16
Si -1.21  8.56  5.87
Si -2.53  9.84 -2.50
Si -7.82 -3.71 -5.89
Si  8.23  4.88 -4.26
Si  3.96 -6.10 -7.56
Si -2.89 -9.77 -2.54
Si  8.60  1.17 -5.92
Si -0.86  4.88 -9.26
Si  6.07  8.55 -0.87
Si  1.23 -8.59 -5.96
Si  0.82 -4.92  9.28
Si  2.90  9.78  2.63
Si 10.45  1.22 -0.76
Si  7.14 -7.35  2.53
Si -8.67 -1.19  5.90
Si -3.96  6.16  7.62
Si -10.50 -1.22  0.78
Si -1.06 -4.90 -9.35
Si -7.12  7.45 -2.52
Si  1.01  4.90  9.36
Si -6.08 -8.68  0.85
Si -0.71  9.79 -4.17
Si  0.67 -9.76  4.25
Si -7.41 -7.30  2.46
Si  8.75  6.09 -0.85
Si  1.08  9.76  4.24
Si -2.37 -8.58 -5.95
Si -8.76 -6.12  0.81
Si -1.13 -9.79 -4.21
Si  7.42  7.32 -2.52
Si  2.46  8.62  5.93
Si  6.68 -3.70  7.56
Si  2.59 -4.89 -9.22
Si -6.74  3.71 -7.56
Si  9.99 -0.01 -4.20
Si  6.55 -8.60 -0.84
Si -2.58  4.91  9.32
Si -3.04  8.62 -5.87
Si -10.00  0.02  4.25
Si -6.60  8.59  0.85
Si  7.69 -1.34  7.57
Si  2.84  4.91 -9.28
Si  3.00 -8.59  5.96
Si -2.88 -4.92  9.28
Si -2.48  9.79  4.16
Si -5.07 -6.10  7.57
Si -6.93 -6.15  5.87
Si -7.75  1.24 -7.66
Si -5.41  2.46 -9.22
Si  0.94  0.05 10.95
Si  5.45  2.46 -9.22
Si  2.50 -9.82 -4.26
Si -10.33  3.68 -0.86
Si  4.37 -9.78 -2.56
Si  6.96  6.12 -5.96
Si  0.25 -10.99  0.80
Si 10.38 -3.63  0.82
Si -0.89  0.00 -10.99
Si -8.57  3.69 -5.88
Si -0.12 11.01 -0.82
Si  8.56 -3.68  5.93
Si -4.31  9.86  2.48
Si  5.43 -2.44  9.32
Si -5.44 -2.44  9.32
Si  7.12 -7.36 -4.20
Si  5.12  6.18 -7.64
Si -7.14  7.37  4.25
Si -2.94 -9.85  4.27
Si  2.92  9.90 -4.21
Si  4.74  9.79 -2.52
Si  4.22  8.53 -5.86
Si -4.24 -8.48  5.92
Si  1.65 11.04  0.88
Si  7.34  7.32  4.24
Si -1.59 -11.05 -0.92
Si -4.71 -9.83  2.58
Si -9.51  1.18 -5.86
Si -0.02  2.43 -10.97
Si -0.03 -2.44 10.97
Si  9.49 -1.13  5.92
Si  9.41 -6.11  0.85
Si -7.40 -7.36 -4.21
Si -6.32  0.04 -9.33
Si -2.02 11.06  0.80
Si -9.46  6.10 -0.84
Si -9.85  4.87  2.58
Si  2.16 -11.05 -0.82
Si -1.85 -2.46 -10.89
Si -2.65  0.01 11.00
Si  5.80 -6.10  7.57
Si  9.88 -4.91 -2.52
Si  6.45 -0.02  9.30
Si  1.80  2.45 10.91
Si 11.24 -1.22  0.78
Si -1.78  2.35 10.98
Si -7.51  6.13 -5.95
Si  2.70 -0.02 -11.05
Si -11.29  1.22 -0.76
Si -5.75  6.18 -7.64
Si 10.84 -2.42 -2.54
Si  7.60 -6.09  5.93
Si -10.83  2.43  2.63
Si  1.77 -2.48 -11.00
Si  4.46 -4.94  9.28
Si -10.04 -4.85  2.48
Si -4.46  4.91 -9.32
Si  4.64  4.87  9.26
Si -10.90 -2.42 -2.54
Si -0.60 -8.52 -7.64
Si -7.75 -3.71  7.61
Si  0.66  8.60  7.57
Si 10.91  2.43  2.63
Si  4.79 -8.62 -5.89
Si -4.84  8.59  5.92
Si -3.36 -10.98  0.82
Si  1.18 -8.54  7.62
Si -1.18  8.61 -7.56
Si -4.65 -5.00 -9.27
Si  7.75  3.72 -7.67
Si 10.10  4.93 -2.56
Si  4.30 -9.85  4.21
Si -4.37  9.84 -4.22
Si -8.61 -1.17 -7.64
Si  8.66  1.25  7.57
Si  3.40 11.03 -0.86
Si -4.70 -9.76 -4.20
Si  7.84  8.59  0.81
Si  2.45  8.55 -7.55
Si  4.79  9.80  4.18
Si -7.84 -8.62 -0.85
Si -3.87 11.00 -0.92
Si  3.92 -11.01  0.88
Si -2.42 -8.59  7.61
Si  8.89 -7.25 -2.52
Si  3.54 -2.44 10.94
Si -9.84  4.94 -4.20
Si -3.55  2.41 -10.98
Si -2.96  8.53  7.58
Si -0.16 -7.38  9.21
Si -8.87  7.36  2.53
Si -4.42 -0.02 -10.95
Si -9.54 -3.72  5.89
Si -6.13  9.79 -2.52
Si  3.01 -8.53 -7.61
Si  0.21  7.37 -9.25
Si  9.54  3.68 -5.95
Si  3.69  2.44 -10.98
Si  4.55  0.04 10.92
Si  9.93 -4.90  4.18
Si -3.73 -2.47 10.99
Si 10.79 -2.50  4.27
Si -10.81  2.55 -4.21
Si  6.16 -9.83  2.58
Si 10.03  4.85  4.21
Si -6.91 -6.10 -7.56
Si -1.55  7.33  9.30
Si -11.36 -3.63  0.82
Si  7.14 -2.47 -9.26
Si  1.69 -7.31 -9.33
Si -10.10 -4.87 -4.22
Si 10.92  2.55 -4.21
Si -7.18  2.44  9.28
Si  1.01  4.90 -10.89
Si -1.92 -7.30 -9.31
Si  1.97  7.36  9.27
Si  6.91  6.16  7.62
Si -1.06 -4.90 10.91
Si -11.74  0.00  2.53
Si -10.94 -2.50  4.27
Si  8.37 -8.57  0.78
Si -6.50 -9.78 -2.56
Si 11.41  3.68 -0.86
Si  8.57 -3.67 -7.59
Si -10.38 -1.23 -5.95
Si 11.76  0.10 -2.52
Si -8.42  8.57 -0.76
Si -9.18 -7.38 -2.52
Si  9.18  7.40  2.46
Si -8.55  3.78  7.60
Si  6.03  8.59  5.92
Si  0.82 -4.92 -10.98
Si -0.86  4.88 10.99
Si  7.32  2.41  9.28
