500
set: 465.00  0.00  0.00
Si  0.09  0.12  0.01
Si -0.16 -2.00  0.75
Si -1.91  0.95  0.59
Si  0.09  0.04 -2.22
Si  1.77  1.27  0.97
Si  3.37  0.10 -0.09
Si -1.78  0.97  2.80
Si -1.69 -1.27 -2.75
Si  1.78 -3.06  0.34
Si -1.78 -3.09 -0.25
Si -0.19 -2.04  2.95
Si -0.19  2.13 -2.95
Si  1.83  3.16 -0.25
Si -1.84  3.19  0.34
Si  1.83 -1.11 -3.10
Si  1.92  0.82  3.15
Si -3.85  0.10 -0.09
Si  1.75 -3.00 -1.89
Si  0.04  1.95  3.58
Si -3.51 -1.99  0.65
Si  1.89  2.79 -2.44
Si  1.89 -1.38  3.46
Si -1.86  3.26 -1.89
Si -3.57 -0.13 -2.32
Si  3.72 -1.99  0.65
Si  0.10  4.27  0.65
Si  3.65 -0.13 -2.32
Si -1.86 -0.91  4.01
Si -1.73 -3.46 -2.44
Si -3.36 -2.18  2.88
Si -3.36  1.99 -3.02
Si  0.25  4.08  2.88
Si  0.25 -4.27 -3.02
Si  3.87 -2.18  2.88
Si  3.87  1.99 -3.02
Si -1.84 -0.81 -4.93
Si -1.84 -4.99  0.97
Si  5.31  0.95  0.59
Si -3.52  2.13  3.68
Si  0.09 -4.13  3.68
Si  3.45  4.26  0.75
Si -0.16  2.18 -5.16
Si  1.70 -5.31  0.59
Si  3.71  2.13  3.68
Si -5.46  1.27  0.97
Si  1.70 -1.14 -5.31
Si -3.77  4.26  0.75
Si  1.78  1.11 -5.56
Si  1.92  4.99 -2.75
Si  1.83 -1.01  5.65
Si  3.42 -4.12 -2.95
Si -0.24 -6.16 -0.09
Si  3.42  4.22  2.95
Si  5.44  0.97  2.80
Si -0.24  2.19  5.82
Si -1.73  4.88  3.46
Si -5.31  0.82  3.15
Si  1.83 -5.29  2.80
Si -5.40  3.16 -0.25
Si -5.45 -3.06  0.34
Si -1.78  5.14 -3.10
Si  5.45 -3.09 -0.25
Si  5.39  3.19  0.34
Si  5.53 -1.27 -2.75
Si -0.24 -1.98 -5.99
Si -5.40 -1.11 -3.10
Si -3.80 -4.12 -2.95
Si -0.24  6.36 -0.09
Si -3.80  4.22  2.95
Si -1.78  1.08 -6.15
Si -5.34  2.79 -2.44
Si -5.34 -1.38  3.46
Si -1.69 -5.44  3.15
Si -5.48 -3.00 -1.89
Si  0.04  6.12 -2.32
Si  5.36  3.26 -1.89
Si  0.10  0.10  6.55
Si -1.84 -0.98  6.24
Si -3.57 -4.31  3.58
Si  0.10 -4.07 -5.25
Si -3.51  2.19 -5.25
Si  3.65 -4.31  3.58
Si  5.36 -0.91  4.01
Si  3.72  2.19 -5.25
Si  0.04 -6.39 -2.32
Si  1.75  5.35  4.01
Si  5.50 -3.46 -2.44
Si -3.52 -6.14  0.01
Si -3.52 -1.97 -5.89
Si -7.14  0.12  0.01
Si  3.70 -6.14  0.01
Si  0.09 -4.06  5.92
Si  3.70 -1.97 -5.89
Si -3.52  2.20  5.92
Si  0.09  4.29 -5.89
Si -3.52  6.37  0.01
Si  7.32  0.12  0.01
Si  3.70  2.20  5.92
Si  5.38 -0.81 -4.93
Si  1.70  3.03  6.49
Si  3.70  6.37  0.01
Si  7.07 -2.00  0.75
Si  5.38 -4.99  0.97
Si  3.45 -4.08 -5.16
Si  1.70  7.21  0.59
Si -7.13  0.04 -2.22
Si -3.52 -6.22 -2.22
Si  3.45  0.09  6.65
Si -1.91 -3.23  6.49
Si -3.52  6.30 -2.22
Si  1.77  5.45 -4.93
Si  3.71 -6.22 -2.22
Si -3.77 -4.08 -5.16
Si -1.91  5.12 -5.31
Si  3.71  6.30 -2.22
Si -3.77  0.09  6.65
Si  7.32  0.04 -2.22
Si  1.77 -2.90  6.87
Si -7.39 -2.00  0.75
Si -5.53 -5.31  0.59
Si -5.53 -1.14 -5.31
Si -5.31  4.99 -2.75
Si -1.84 -5.15 -5.56
Si -1.84  7.53  0.97
Si  3.37 -4.07  5.82
Si -5.45  1.11 -5.56
Si -1.84  3.36  6.87
Si -5.40 -1.01  5.65
Si  7.04 -2.04  2.95
Si -1.78  5.25  5.65
Si  7.04  2.13 -2.95
Si -1.69  7.08  3.15
Si  1.83  7.23  2.80
Si -5.40 -5.29  2.80
Si  1.75  1.18 -7.79
Si -3.85 -4.07  5.82
Si  3.37  4.27 -5.99
Si  5.44  5.14 -3.10
Si  5.50  4.88  3.46
Si -1.78 -7.37 -3.10
Si -7.42 -2.04  2.95
Si  1.92 -7.53 -2.75
Si  1.83 -5.18 -6.15
Si -7.42  2.13 -2.95
Si -7.19  1.95  3.58
Si  0.10 -8.25  0.65
Si  5.45  1.08 -6.15
Si  5.39 -0.98  6.24
Si -3.85  4.27 -5.99
Si -7.12  4.27  0.65
Si  7.27  1.95  3.58
Si  1.78  5.28  6.24
Si  5.53 -5.44  3.15
Si  1.75 -7.17  4.01
Si  7.33  4.27  0.65
Si  0.04 -2.22 -8.22
Si -1.73  0.71 -8.34
Si -1.73 -7.64  3.46
Si -6.98  4.08  2.88
Si -5.48  5.35  4.01
Si -6.98 -4.27 -3.02
Si  0.25 -0.10  8.78
Si  0.25  8.25 -3.02
Si  1.77 -7.07 -4.93
Si  0.25 -8.44  2.88
Si  0.25 -0.10 -8.92
Si  3.45 -8.25  0.75
Si  5.31 -3.23  6.49
Si  7.48  4.08  2.88
Si  7.07  2.18 -5.16
Si -7.13 -4.13  3.68
Si -5.53  3.03  6.49
Si -0.16 -6.17  6.65
Si -3.52 -2.04 -8.12
Si  5.31  5.12 -5.31
Si -5.53  7.21  0.59
Si -3.77 -8.25  0.75
Si  7.48 -4.27 -3.02
Si  9.00  1.27  0.97
Si  0.09  4.21 -8.12
Si -5.46  5.45 -4.93
Si  3.71 -2.04 -8.12
Si  0.09  8.39  3.68
Si  7.32 -4.13  3.68
Si -0.16  6.35  6.65
Si -9.14  0.95  0.59
Si -5.46 -2.90  6.87
Si -7.39  2.18 -5.16
Si -1.69  2.90 -8.65
Si  5.39 -5.15 -5.56
Si -1.91 -7.40 -5.31
Si  5.38  7.53  0.97
Si  6.99 -6.16 -0.09
Si  6.99  2.19  5.82
Si  5.38  3.36  6.87
Si -1.78 -7.27  5.65
Si  1.83  3.06  8.70
Si -1.84  7.37 -5.56
Si  6.99 -1.98 -5.99
Si -8.92 -1.27 -2.75
Si  5.45  5.25  5.65
Si -1.78 -3.20  8.70
Si -5.40  7.23  2.80
Si  6.99  6.36 -0.09
Si  3.42 -8.30  2.95
Si  1.92 -3.35 -8.65
Si -1.86 -5.08 -7.79
Si -9.01  0.97  2.80
Si  3.42  0.05 -8.85
Si  3.42  0.05  8.85
Si -1.84 -9.32  0.34
Si  9.00 -3.06  0.34
Si  5.53  7.08  3.15
Si -9.01 -3.09 -0.25
Si  3.42  8.39 -2.95
Si -1.73  9.05 -2.44
Si  1.83 -9.35 -0.25
Si -1.73  0.71  9.36
Si -5.48  1.18 -7.79
Si -3.80 -8.30  2.95
Si -1.78  9.42 -0.25
Si  9.06  3.16 -0.25
Si -5.31 -7.53 -2.75
Si -9.06  3.19  0.34
Si  1.78  9.45  0.34
Si -1.86 -9.26 -1.89
Si -3.80  0.05 -8.85
Si -3.80  0.05  8.85
Si  9.06 -1.11 -3.10
Si -3.57  8.21  3.58
Si  8.98 -3.00 -1.89
Si -3.51 -6.16  6.55
Si -1.69  2.90  9.05
Si  5.44 -7.37 -3.10
Si -3.80  8.39 -2.95
Si  3.65  8.21  3.58
Si  1.83  3.06 -9.00
Si -7.47 -6.16 -0.09
Si -7.12  0.10  6.55
Si -5.40 -5.18 -6.15
Si  9.15  0.82  3.15
Si -7.47  2.19  5.82
Si -1.78 -3.20 -9.00
Si  1.78 -7.24  6.24
Si -7.19  6.12 -2.32
Si  3.72 -6.16  6.55
Si  0.04 -2.22  9.48
Si -7.12 -4.07 -5.25
Si  1.83  7.34 -6.15
Si -7.47 -1.98 -5.99
Si -3.51  6.36  6.55
Si  7.27  6.12 -2.32
Si -7.47  6.36 -0.09
Si -5.45  5.28  6.24
Si -3.57  4.04 -8.22
Si  7.33  0.10  6.55
Si  9.12  2.79 -2.44
Si -9.09  3.26 -1.89
Si  1.92 -3.35  9.05
Si  9.12 -1.38  3.46
Si  3.72  6.36  6.55
Si  1.75  9.52 -1.89
Si  3.65  4.04 -8.22
Si -5.48 -7.17  4.01
Si -7.19 -6.39 -2.32
Si  7.33 -4.07 -5.25
Si -8.95 -3.46 -2.44
Si  0.10  8.44 -5.25
Si  7.27 -6.39 -2.32
Si -9.09 -0.91  4.01
Si  5.50  0.71 -8.34
Si  5.50 -7.64  3.46
Si  0.09 -8.23 -5.89
Si -7.14 -4.06  5.92
Si  1.75  1.18  9.92
Si  1.89 -5.55 -8.34
Si -7.14  4.29 -5.89
Si  1.89 -9.72 -2.44
Si -5.46 -7.07 -4.93
Si  7.32 -4.06  5.92
Si  7.32  4.29 -5.89
Si  0.09  8.46  5.92
Si -9.07 -0.81 -4.93
Si -9.07 -4.99  0.97
Si  8.93 -5.31  0.59
Si -3.52 -2.04  9.58
Si  8.93 -1.14 -5.31
Si  0.09  4.22  9.58
Si  3.45  8.44 -5.16
Si  3.71 -2.04  9.58
Si  5.31 -7.40 -5.31
Si -0.16 10.52  0.75
Si -3.77  8.44 -5.16
Si 10.60  0.10 -0.09
Si  9.00  1.11 -5.56
Si  5.53  2.90 -8.65
Si -5.31 -3.35 -8.65
Si  5.39  7.37 -5.56
Si -5.40  3.06  8.70
Si  5.45 -7.27  5.65
Si  9.06 -1.01  5.65
Si  3.37 -8.24 -5.99
Si  5.36 -5.08 -7.79
Si  5.44 -3.20  8.70
Si -8.95  4.88  3.46
Si  5.39 -9.32  0.34
Si  9.15  4.99 -2.75
Si -0.19 -10.38 -2.95
Si  3.37  8.45  5.82
Si -5.40 -9.35 -0.25
Si -0.19 -6.21 -8.85
Si -0.19 -6.21  8.85
Si -9.01  5.14 -3.10
Si  9.06 -5.29  2.80
Si  5.36 -9.26 -1.89
Si -0.19  6.31 -8.85
Si  5.50  9.05 -2.44
Si -0.19  6.31  8.85
Si  5.50  0.71  9.36
Si  5.45  9.42 -0.25
Si -0.19 10.48  2.95
Si -3.85 -8.24 -5.99
Si -3.57  4.04  9.48
Si -8.92 -5.44  3.15
Si -7.12 -8.25  0.65
Si -5.45  9.45  0.34
Si -1.86  7.43 -7.79
Si -5.40  3.06 -9.00
Si  3.65  4.04  9.48
Si -10.74 -1.99  0.65
Si -3.85  8.45  5.82
Si -9.01  1.08 -6.15
Si -5.40  7.34 -6.15
Si  5.44 -3.20 -9.00
Si -5.45 -7.24  6.24
Si  5.53  2.90  9.05
Si -5.31 -3.35  9.05
Si  1.89  6.97 -8.34
Si  1.89 -5.55  9.36
Si -10.80 -0.13 -2.32
Si -9.06 -0.98  6.24
Si  7.33 -8.25  0.65
Si -11.08  0.10 -0.09
Si -3.51 10.53  0.65
Si 10.88 -0.13 -2.32
Si -7.19 -2.22 -8.22
Si 10.95 -1.99  0.65
Si -5.48  9.52 -1.89
Si  0.10  0.10 -11.15
Si  0.04 -10.56  3.58
Si  3.72 10.53  0.65
Si -10.59 -2.18  2.88
Si -10.59  1.99 -3.02
Si  8.98  5.35  4.01
Si  7.27 -2.22 -8.22
Si -6.98 -0.10  8.78
Si -6.98  8.25 -3.02
Si -3.36  6.16  8.78
Si -3.36 10.33  2.88
Si -1.86 -5.08  9.92
Si -6.98 -8.44  2.88
Si -6.98 -0.10 -8.92
Si -3.36 -6.36  8.78
Si -3.36  6.16 -8.92
Si -5.34 -5.55 -8.34
Si  1.77 -2.90 -10.83
Si -5.34 -9.72 -2.44
Si -5.48  1.18  9.92
Si  3.87  6.16  8.78
Si  3.87 10.33  2.88
Si  1.77 -11.24  0.97
Si  8.93  3.03  6.49
Si -3.36 -10.53 -3.02
Si -3.36 -6.36 -8.92
Si  8.93  7.21  0.59
Si -1.84  3.36 -10.83
Si -1.91  9.29  6.49
Si  7.07 -6.17  6.65
Si  3.87 -6.36  8.78
Si  3.87  6.16 -8.92
Si 10.68  4.26  0.75
Si  7.48 -0.10  8.78
Si  7.48  8.25 -3.02
Si -0.16 -10.34 -5.16
Si -10.75  2.13  3.68
Si -3.52 -10.39  3.68
Si  3.45  0.09 -11.05
Si -1.84 -9.16  6.87
Si  7.07  6.35  6.65
Si -7.13  4.21 -8.12
Si  0.09 -8.30 -8.12
Si -7.13  8.39  3.68
Si  3.86 -10.53 -3.02
Si  3.86 -6.36 -8.92
Si  9.00  5.45 -4.93
Si  1.70 -9.48  6.49
Si  3.71 -10.39  3.68
Si  7.48 -8.44  2.88
Si  7.48 -0.10 -8.92
Si -1.84 -0.98 -11.46
Si 11.09 -2.18  2.88
Si -9.14 -3.23  6.49
Si 11.09  1.99 -3.02
Si -3.77  0.09 -11.05
Si  9.00 -2.90  6.87
Si -7.39 -6.17  6.65
Si -1.69 11.25 -2.75
Si  7.32  4.21 -8.12
Si  7.32  8.39  3.68
Si 10.93  2.13  3.68
Si -1.78  1.08 11.55
Si  1.70  3.03 -11.21
Si -1.91 -11.57  0.59
Si -9.14  5.12 -5.31
Si -7.39  6.35  6.65
Si 10.65 -4.12 -2.95
Si -8.92  7.08  3.15
Si  1.89 11.14  3.46
Si -9.06 -5.15 -5.56
Si -1.91 -3.23 -11.21
Si  1.89  6.97  9.36
Si -11.00  4.26  0.75
Si -9.07  7.53  0.97
Si 10.65  4.22  2.95
Si -0.24 -10.33  5.82
Si -9.01  5.25  5.65
Si -9.07  3.36  6.87
Si -0.24 -1.98 11.72
Si  9.06  7.23  2.80
Si  8.98  1.18 -7.79
Si  1.77  9.62  6.87
Si  1.83 11.40 -3.10
Si -1.78 -11.55  2.80
Si  5.36  7.43 -7.79
Si -9.01 -7.37 -3.10
Si -0.24  2.19 -11.89
Si -7.19 -2.22  9.48
Si -5.34  6.97 -8.34
Si -3.51 -10.33 -5.25
Si  9.06 -5.18 -6.15
Si -0.24 10.53 -5.99
Si -5.34 -5.55  9.36
Si -11.03 -4.12 -2.95
Si -10.74  2.19 -5.25
Si  7.27 -2.22  9.48
Si  9.15 -7.53 -2.75
Si  9.00  5.28  6.24
Si -10.80 -4.31  3.58
Si  8.98 -7.17  4.01
Si  3.72 -10.33 -5.25
Si -11.03  4.22  2.95
Si -7.12  8.44 -5.25
Si  1.83 -1.01 -12.05
Si 10.88 -4.31  3.58
Si -8.95  0.71 -8.34
Si -8.95 -7.64  3.46
Si  1.92 -11.70  3.15
Si  1.78  1.11 12.14
Si 10.95  2.19 -5.25
Si -3.57 -8.48 -8.22
Si  7.33  8.44 -5.25
Si  3.65 -8.48 -8.22
Si  5.36 -5.08  9.92
Si -7.14 -8.23 -5.89
Si -10.75 -6.14  0.01
Si  0.09 -12.40  0.01
Si -3.52 -10.31  5.92
Si -10.75 -1.97 -5.89
Si -1.86 11.61  4.01
Si  3.70 -10.31  5.92
Si  9.00 -7.07 -4.93
Si  0.09 -4.06 -11.79
Si -10.75  2.20  5.92
Si -5.46 -2.90 -10.83
Si  7.32 -8.23 -5.89
Si -3.52 -1.97 11.82
Si -3.52  2.20 -11.79
Si -10.75  6.37  0.01
Si  5.31  9.29  6.49
Si -1.86  7.43  9.92
Si -5.46 -11.24  0.97
Si 10.93 -6.14  0.01
Si  3.70 -1.97 11.82
Si 10.68 -4.08 -5.16
Si  3.70  2.20 -11.79
Si -7.14  8.46  5.92
Si  5.38  3.36 -10.83
Si  1.70 -1.14 12.39
Si 10.93 -1.97 -5.89
Si  0.09  4.29 11.82
Si 10.68  0.09  6.65
Si -3.52 10.55 -5.89
Si 12.54  0.95  0.59
Si -10.75 -6.22 -2.22
Si 10.93  2.20  5.92
Si  3.70 10.55 -5.89
Si  0.09 12.63  0.01
Si  5.38 -9.16  6.87
Si 10.93  6.37  0.01
Si  7.32  8.46  5.92
