500
set: 122.00  0.00  0.00
Si -0.07 -0.05 -0.04
Si  1.91  1.06  0.71
Si -0.01 -0.05 -2.34
Si -1.97  1.12  0.72
Si -0.05 -2.27  0.74
Si  1.88  1.10  2.98
Si -0.12 -2.19  3.06
Si  0.00  2.14 -3.13
Si  1.92 -3.28  0.06
Si -1.91  1.20  3.07
Si  1.95  3.27 -0.06
Si -1.85  3.34 -0.04
Si -1.96 -1.13 -3.12
Si -3.86  0.01  0.00
Si  3.87 -0.01 -0.05
Si  1.94 -1.09 -3.17
Si -1.98 -3.35 -0.00
Si  1.78 -1.07  3.90
Si -1.92  3.23 -2.34
Si  1.91 -3.27 -2.31
Si -3.80 -0.01 -2.29
Si -3.81 -2.15  0.80
Si  1.87  3.27 -2.36
Si -1.95 -0.97  3.90
Si  0.07  4.41  0.82
Si  0.01  2.22  3.90
Si  3.82 -0.02 -2.35
Si  3.83 -2.22  0.80
Si -1.92 -3.32 -2.37
Si  3.76 -2.14  3.11
Si -3.76  2.13 -3.16
Si -3.81 -2.15  3.12
Si -0.02 -4.37 -3.13
Si  3.82  2.21 -3.13
Si  0.02  4.48  3.13
Si -3.72  4.41  0.77
Si  3.77  2.20  3.87
Si  3.78  4.39  0.82
Si  0.02  2.14 -5.45
Si  1.92 -5.48  0.76
Si  0.02 -4.39  3.89
Si -1.96 -1.05 -5.43
Si -3.85  2.23  3.86
Si  5.74  1.14  0.76
Si -1.93 -5.55  0.74
Si  1.87 -1.11 -5.51
Si -5.76  1.14  0.81
Si -5.60  3.35  0.04
Si  0.03 -6.53 -0.03
Si  5.68  1.15  3.07
Si -5.67 -1.13 -3.09
Si  3.82 -4.34 -3.10
Si  0.06  6.56 -0.03
Si -1.96  5.42 -3.13
Si  1.86 -1.11  6.20
Si  3.78  4.38  3.12
Si  1.96 -5.45  3.11
Si -1.88 -5.50  3.09
Si  1.91  1.08 -6.21
Si  0.01  2.19  6.21
Si -3.77  4.43  3.09
Si -5.74 -3.27  0.03
Si -1.94  1.10 -6.22
Si -1.85 -1.11  6.24
Si -0.10 -2.21 -6.22
Si  5.76 -1.10 -3.08
Si  1.84  5.54 -3.13
Si  5.71 -3.35  0.04
Si -5.75  1.08  3.13
Si  5.71  3.37  0.05
Si -3.82 -4.44 -3.19
Si -3.72 -4.34  3.83
Si -5.63  3.27 -2.31
Si  5.67 -1.06  3.85
Si  5.69 -3.27 -2.29
Si -0.04  6.54 -2.35
Si  3.89 -4.33  3.80
Si  5.71  3.29 -2.25
Si -0.07 -6.58 -2.34
Si  3.81  2.20 -5.44
Si -5.69 -3.38 -2.30
Si  1.95  5.46  3.93
Si  0.04 -4.40 -5.46
Si -3.80  2.22 -5.47
Si -5.71 -1.17  3.93
Si  0.01  0.00  7.04
Si -1.93  5.51  3.96
Si  3.77  2.16  6.16
Si -3.81  2.23  6.14
Si -0.00  4.34 -6.19
Si  3.76  6.59 -0.02
Si  7.58 -0.05  0.02
Si  3.78 -6.59 -0.00
Si -3.82  6.57 -0.00
Si -3.85 -6.57 -0.02
Si -7.62 -0.05  0.02
Si -0.00 -4.43  6.22
Si  3.79 -2.17 -6.27
Si -3.83 -2.23 -6.25
Si  3.75 -0.05  6.92
Si -1.81  7.62  0.81
Si  3.76 -6.54 -2.36
Si -7.58  0.01 -2.27
Si -5.65 -1.15 -5.42
Si -3.76  0.02  6.97
Si  1.92 -3.33  6.93
Si -1.92  5.48 -5.40
Si  7.58 -2.21  0.80
Si -1.83  3.23  7.01
Si  3.81  6.56 -2.33
Si  1.96  3.25  7.00
Si  7.62  0.01 -2.27
Si  1.92  5.44 -5.48
Si -3.80 -6.60 -2.33
Si -5.74 -5.45  0.84
Si  3.84 -4.38 -5.44
Si  1.86  7.71  0.84
Si -7.63 -2.21  0.80
Si -1.91 -3.29  7.02
Si  5.77 -1.16 -5.41
Si -3.83  6.62 -2.36
Si -3.85 -4.44 -5.50
Si  5.79 -5.54  0.81
Si  5.70  1.03 -6.12
Si -7.54  2.20 -3.06
Si -5.63 -5.46  3.14
Si -1.83  7.64  3.14
Si  5.67  5.48 -3.06
Si -5.63 -1.10  6.24
Si -3.83 -4.36  6.19
Si  7.58 -2.21  3.12
Si -5.75  1.08 -6.16
Si  1.96 -5.49 -6.17
Si -1.93 -7.68 -3.06
Si  1.91 -7.67 -3.11
Si -5.69  5.49 -3.11
Si -1.90 -5.50 -6.20
Si  3.85 -4.41  6.17
Si  5.70 -1.10  6.22
Si  1.86  5.47  6.26
Si -1.90  5.42  6.29
Si -7.63 -2.21  3.12
Si  3.85  4.36 -6.24
Si -3.83  4.41 -6.22
Si  7.66  2.20 -3.06
Si  1.98  7.70  3.14
Si  5.77 -5.52  3.14
Si  0.07 -8.66  0.76
Si  1.94 -7.62  3.92
Si  1.93  1.15 -8.49
Si -1.81 -7.68  3.88
Si  7.57  2.19  3.90
Si -0.03 -2.21 -8.52
Si -1.81  1.09 -8.54
Si -7.53  4.50  0.76
Si -5.66  5.54  3.92
Si -7.63  2.19  3.90
Si  5.80  5.48  3.88
Si  7.67  4.50  0.76
Si -0.03  8.73 -3.07
Si -7.55  4.39  3.10
Si  7.57 -4.43 -3.07
Si  0.05 -8.77  3.10
Si  0.05 -0.00 -9.32
Si -0.02 -0.04  9.34
Si -7.63 -4.43 -3.07
Si  7.66  4.39  3.10
Si  5.68  7.61  0.74
Si  7.57  2.20 -5.35
Si  9.44  1.14  0.81
Si -5.73  3.28  6.90
Si -9.46  1.14  0.76
Si  1.88 -7.67 -5.40
Si -1.91 -7.67 -5.41
Si -5.68  7.68  0.76
Si -7.64  2.20 -5.35
Si  5.64  3.34  6.99
Si  3.75 -2.16 -8.55
Si  5.70  5.49 -5.41
Si -5.71  5.49 -5.40
Si  0.02  4.38 -8.53
Si  0.04  8.75  3.94
Si  3.88 -8.75  0.77
Si -3.83 -8.77  0.82
Si -7.57 -4.41  3.94
Si  5.70 -3.28  7.00
Si  0.02 -6.63  6.97
Si -3.83 -2.19 -8.55
Si -5.71 -3.28  7.02
Si  7.63 -4.41  3.94
Si -0.03  6.59  7.06
Si -1.89 -9.79  0.05
Si  3.79 -0.05  9.23
Si  7.51  2.18  6.19
Si -1.89  9.81  0.04
Si -9.45 -1.10 -3.08
Si  1.84 -3.23  9.28
Si -1.85  7.66 -6.17
Si  9.46 -3.27  0.03
Si  2.00 -9.81  0.04
Si  3.82 -8.73  3.09
Si  9.46  1.08  3.13
Si -7.54 -6.60 -0.03
Si  3.79  8.72 -3.19
Si  1.85 -3.31 -9.29
Si  5.67  5.49  6.20
Si  1.86  7.66 -6.22
Si -5.69  5.47  6.21
Si -7.59 -2.20 -6.20
Si -5.64  7.71  3.11
Si  5.72  7.66  3.09
Si -1.94 -7.67  6.20
Si -3.78  0.05  9.31
Si -5.76 -7.62 -3.13
Si -3.83 -0.01 -9.30
Si -1.96 -3.35  9.28
Si -1.88  3.27 -9.33
Si  7.61 -2.20 -6.20
Si  1.91 -7.69  6.21
Si -7.57  6.63 -0.03
Si  1.94  3.26  9.32
Si -9.49 -3.35  0.04
Si  1.86  9.89  0.03
Si -1.84  3.29  9.34
Si  5.74 -5.50 -6.17
Si  5.64 -7.74 -3.13
Si -3.83 -8.78  3.12
Si -9.49  3.37  0.05
Si -9.53  1.15  3.07
Si  1.96  3.32 -9.31
Si  3.82  0.04 -9.32
Si -1.93 -3.24 -9.35
Si  9.53 -1.13 -3.09
Si -3.78  8.82 -3.10
Si -5.74 -5.50 -6.22
Si  7.63  6.63 -0.03
Si  7.66 -6.60 -0.03
Si -7.69  2.18  6.19
Si  9.60  3.35  0.04
Si  1.92  9.78 -2.30
Si  5.67  1.12 -8.46
Si -5.66  1.07 -8.49
Si -3.80 -6.55  6.94
Si -7.56 -0.01  6.96
Si  7.53  6.58 -2.34
Si -7.59 -4.39 -5.37
Si  0.01  8.77 -5.37
Si  7.61 -4.39 -5.37
Si -1.90 -9.87 -2.25
Si -9.50  3.29 -2.25
Si -3.71  8.83  3.80
Si  5.67 -7.65  3.96
Si -0.04 -2.23 10.07
Si  3.80  6.61  6.94
Si  7.56 -6.62 -2.35
Si  3.81 -6.57  6.98
Si -3.79  6.59  6.98
Si  1.88 -5.56 -8.48
Si -9.52 -3.27 -2.29
Si -1.91  9.89 -2.29
Si -5.65 -7.70  3.93
Si -1.93 -5.45 -8.56
Si -9.53 -1.06  3.85
Si  9.49 -1.17  3.93
Si  7.65 -0.01  6.96
Si  1.97 -9.89 -2.31
Si  1.92  1.01 10.12
Si -3.72  4.43 -8.59
Si  9.52 -3.38 -2.30
Si -1.91  1.12 10.13
Si  3.88  8.82  3.83
Si -7.67  6.58 -2.34
Si  9.58  3.27 -2.31
Si -7.64 -6.62 -2.35
Si  3.89  4.43 -8.61
Si  0.02 -8.73 -6.19
Si -7.58 -4.34  6.22
Si -7.58  4.43 -6.19
Si  7.62 -4.34  6.22
Si  7.62  4.43 -6.19
Si  0.02  8.82  6.22
Si -9.44 -1.16 -5.41
Si  9.46 -5.45  0.84
Si -9.42 -5.54  0.81
Si  3.75  8.72 -5.50
Si  5.68 -7.68 -5.40
Si -3.83 -2.15 10.06
Si -0.02 10.96  0.80
Si -3.76  8.79 -5.44
Si  3.81 -2.21 10.09
Si  9.55 -1.15 -5.42
Si -5.68 -7.72 -5.48
Si  0.03  4.40 10.14
Si  5.63  9.81 -0.00
Si -5.66  3.30  9.25
Si  9.46  1.08 -6.16
Si -11.34 -0.01 -0.05
Si -5.63  3.31 -9.27
Si -5.64  7.67 -6.17
Si 11.34  0.01  0.00
Si -3.75  8.75  6.17
Si  5.65  3.26  9.29
Si -9.51  1.03 -6.12
Si -9.43 -5.52  3.14
Si  3.77 -8.75 -6.22
Si  0.06 -10.96 -3.06
Si  5.75 -9.82 -0.04
Si  5.70  7.67 -6.20
Si -0.02 10.95  3.12
Si -5.66 -9.89 -0.06
Si -5.69 -3.28  9.31
Si -5.68  9.88  0.06
Si  5.77  3.25 -9.27
Si -0.03 -6.60 -9.29
Si  5.69 -3.19 -9.35
Si -9.50 -1.10  6.22
Si  0.00 -6.63  9.28
Si  3.77  8.80  6.19
Si -9.53  5.48 -3.06
Si  9.51  5.49 -3.11
Si -3.76 -8.80 -6.24
Si  5.67 -3.29  9.36
Si -0.12  6.58 -9.36
Si  0.06  6.59  9.36
Si -5.75 -7.69  6.26
Si  9.57 -5.46  3.14
Si  9.57 -1.10  6.24
Si  5.70 -7.74  6.29
Si -5.72 -3.29 -9.43
Si  5.65 -5.37 -8.52
Si -9.41  5.48  3.88
Si -7.54 -8.75  0.82
Si  5.68  1.07 10.05
Si -3.77 10.94  0.80
Si -3.78  4.37 10.06
Si  5.68  9.84 -2.37
Si  1.88 -5.50 10.06
Si -11.38 -2.22  0.80
Si  1.78  7.70 -8.51
Si -7.60 -2.17 -8.52
Si -11.38 -0.02 -2.35
Si  7.61 -2.17 -8.52
Si 11.40 -0.01 -2.29
Si 11.40 -2.15  0.80
Si -5.69  9.89 -2.31
Si -0.03 -10.97  3.90
Si -1.92 -5.54 10.07
Si -5.69  1.12 10.11
Si  0.07  0.11 -11.66
Si  7.67 -8.75  0.82
Si -5.73 -9.89 -2.36
Si -5.82 -5.46 -8.51
Si  3.80  4.38 10.13
Si  5.68 -9.93 -2.34
Si  3.80 11.01  0.80
Si  9.54  5.54  3.92
Si -1.95  7.79 -8.52
Si -7.58 -8.68  3.13
Si  3.84  6.52  9.26
Si  7.62 -8.68  3.13
Si  3.79 -6.54 -9.30
Si  7.58  0.03  9.29
Si -7.59  0.09 -9.28
Si  3.82 -6.56  9.28
Si -3.76 -6.64  9.26
Si -3.84 -6.53 -9.30
Si -3.78 -10.95 -3.13
Si -3.78  6.60  9.28
Si  7.62  0.09 -9.28
Si 11.40 -2.15  3.12
Si -11.38  2.21 -3.13
Si -7.62  0.03  9.29
Si  7.58  8.79 -3.13
Si  3.76  6.63 -9.30
Si -3.81  6.62 -9.30
Si -11.44 -2.14  3.11
Si -7.62  8.79 -3.13
Si  3.80 11.01  3.12
Si 11.44  2.13 -3.16
Si -3.83 11.02  3.11
Si  3.84 -11.03 -3.16
Si -7.57  4.36 -8.48
Si  9.48  3.28  6.90
Si  3.75 -10.93  3.86
Si  1.83 -12.02  0.81
Si -1.87 -12.02  0.76
Si  1.83 -3.25 -11.61
Si -7.58  6.53  6.97
Si  1.87 -9.88  6.90
Si -0.04 -10.96 -5.35
Si 11.35  2.23  3.86
Si -3.83  0.00 -11.59
Si -1.96 -9.82  6.99
Si  7.63  4.36 -8.48
Si -9.53  7.61  0.74
Si  9.49  5.49 -5.40
Si  7.62  6.53  6.97
Si  0.03 -8.80 -8.48
Si -7.58  8.77  3.89
Si -3.83 -10.96  3.87
Si -1.87 -3.25 -11.65
Si -9.51  5.49 -5.41
Si  9.49 -3.28  7.02
Si  7.62  8.77  3.89
Si -9.51 -3.28  7.00
Si  7.57 -6.57  7.06
Si  1.92  3.29 -11.65
Si  9.53  7.68  0.76
Si -1.90  9.88  7.00
Si -11.43  2.20  3.87
Si -1.93  3.22 -11.68
Si  1.89  9.88  7.02
Si -11.43  4.39  0.82
Si  3.88  0.02 -11.65
Si -7.64 -6.57  7.06
Si -9.56  3.34  6.99
Si 11.48  4.41  0.77
Si  9.44 -7.62 -3.13
Si -1.93 -12.01  3.07
Si -1.89 -1.02 -12.36
Si -9.46 -5.50 -6.17
Si -11.38 -4.34 -3.10
Si  1.94 12.03 -3.09
Si -9.48  7.66  3.09
Si  2.00 -1.04 -12.38
Si  0.06 -2.21 12.39
Si -1.84 12.06 -3.08
Si  9.46 -5.50 -6.22
Si  0.01 10.96 -6.20
Si -0.09 -10.98  6.19
Si  9.52  5.47  6.21
Si  1.85 -12.07  3.13
Si -11.43  4.38  3.12
Si -9.54  5.49  6.20
Si 11.39 -4.44 -3.19
Si  1.86  1.13 12.45
Si -1.89  1.04 12.46
Si  0.03  2.24 -12.44
Si 11.43  4.43  3.09
Si  9.56  7.71  3.11
Si -11.31 -4.33  3.80
Si -9.57 -7.74 -3.13
Si -5.71  7.60 -8.48
Si  1.89 11.99  3.93
Si  7.53 -2.19 10.07
Si -7.56  8.77 -5.46
Si -9.54  1.12 -8.46
Si -3.71 -8.72 -8.61
Si  3.80 -10.94 -5.47
Si -5.63 -5.50 10.11
Si -3.79 -10.96 -5.44
Si -11.39  2.20 -5.44
Si  9.55  1.07 -8.49
Si  1.98  7.66 10.11
Si  5.67  7.71 -8.56
Si 11.40  2.22 -5.47
Si -1.93 12.10  3.85
Si  3.88 -8.73 -8.59
Si  7.64  8.77 -5.46
Si -7.67 -2.19 10.07
Si -9.54 -7.65  3.96
Si 11.48 -4.34  3.83
Si  5.71 -5.48 10.16
Si -1.89  7.68 10.16
Si  9.55 -7.70  3.93
Si  3.79 -10.93  6.14
Si -0.02 13.11  0.02
Si 11.36 -6.57 -0.02
Si  3.76 -2.18 12.39
Si 11.39  2.23  6.14
Si  3.77 10.93 -6.25
Si 11.38  6.57 -0.00
Si  7.60  8.73  6.22
Si -7.60  8.73  6.22
Si  3.78  2.18 -12.42
Si -0.02 -4.44 -12.39
Si -11.43  2.16  6.16
Si 11.37 -2.23 -6.25
Si -3.82 -2.20 12.41
Si -0.01  4.34 12.44
Si -3.83 -11.00  6.16
Si  7.60 -8.82 -6.19
Si -11.42 -6.59 -0.00
Si -7.61 -8.82 -6.19
Si -11.41 -2.17 -6.27
Si -3.85  2.20 -12.44
Si -11.45  6.59 -0.02
Si -0.02 -13.21  0.02
Si -3.81 11.00 -6.27
Si  7.55 10.89  0.74
Si -1.83 12.00 -5.41
Si -5.68  9.83  6.93
Si 13.24  1.12  0.72
Si  5.63 -12.04  0.72
Si  1.96 12.02 -5.42
Si -7.65 10.89  0.74
Si -5.74  3.32 -11.57
Si  7.59  4.34 10.07
Si -11.37 -4.38 -5.44
Si  0.02 -13.15 -2.27
