500
set: 742.00  0.00  0.00
Si  0.51 -1.11  0.78
Si -0.47  1.14 -0.80
Si -1.36 -1.14 -0.84
Si  1.39  1.23  0.87
Si -0.96 -0.07  2.44
Si  0.95  0.04 -2.49
Si -2.31  1.24  0.86
Si  2.39 -1.20 -0.82
Si -3.06 -1.19  0.87
Si  0.06  2.34  2.55
Si -0.13 -2.39 -2.52
Si  3.15  1.25 -0.91
Si  2.63 -0.04  2.55
Si -0.48 -3.58  0.87
Si -2.75 -0.04 -2.54
Si  0.50  3.67 -0.84
Si -1.72  2.30 -2.51
Si  1.67 -2.36  2.49
Si  1.28 -3.56 -0.91
Si  1.74  2.43 -2.52
Si -1.19  3.63  0.87
Si -1.80 -2.47  2.55
Si -0.87 -0.06 -4.11
Si  0.81  0.02  4.15
Si -4.00  1.25 -0.91
Si  4.09 -1.19  0.87
Si -2.34 -3.68 -0.80
Si  2.37  3.70  0.78
Si -2.89  3.61 -0.82
Si  2.98 -3.58  0.86
Si  0.03 -2.37  4.18
Si -0.03  2.34 -4.22
Si  2.60  0.05 -4.18
Si -2.65 -0.11  4.16
Si  3.54  2.46  2.49
Si -4.76 -1.20 -0.82
Si -3.61  2.46  2.49
Si  3.57 -2.52 -2.51
Si -3.58 -2.52 -2.51
Si  4.84  1.24  0.86
Si  4.39 -0.04 -2.54
Si  1.70 -2.45 -4.12
Si -1.82  2.36  4.13
Si -4.52 -0.04  2.55
Si  1.89  2.45  4.18
Si -1.89 -2.47 -4.22
Si  0.91  4.75  2.44
Si -0.91 -4.77 -2.49
Si -0.89  4.77 -2.54
Si  0.77 -4.86  2.55
Si -4.17 -3.58  0.86
Si  4.25  3.61 -0.82
Si  3.46 -2.45  4.13
Si  0.45 -1.18 -5.79
Si  3.56  2.37 -4.12
Si -3.58  2.37 -4.12
Si  5.78 -1.14 -0.84
Si -5.76  1.23  0.87
Si -0.43  1.26  5.83
Si -2.65  4.77  2.55
Si  2.53 -4.86 -2.54
Si -3.68 -2.45  4.13
Si  0.53 -6.01 -0.82
Si -4.78  3.70  0.78
Si  4.81 -3.68 -0.80
Si -1.36 -5.92  0.78
Si -0.44  6.05  0.86
Si  4.50 -0.11  4.16
Si  2.82  4.85 -2.49
Si -2.82 -4.88  2.44
Si -1.40 -1.27  5.87
Si  1.39  5.95 -0.80
Si -4.54  0.05 -4.18
Si  1.44  1.30 -5.89
Si  2.22 -1.15  5.75
Si -2.13  1.22 -5.79
Si -0.78  4.70  4.16
Si  0.99  4.75 -4.11
Si  0.74 -4.76 -4.18
Si  5.43  2.30 -2.51
Si  5.34 -2.47  2.55
Si -1.06 -4.79  4.15
Si -5.41  2.43 -2.52
Si  2.22 -6.00  0.87
Si -5.48 -2.36  2.49
Si -2.13  6.07 -0.91
Si  6.19 -0.07  2.44
Si -6.19  0.04 -2.49
Si -3.24 -1.17 -5.80
Si -6.64 -1.11  0.78
Si  6.67  1.14 -0.80
Si -3.23 -5.96 -0.84
Si  3.32  1.21  5.85
Si  0.46  3.54  5.87
Si -0.43 -3.52 -5.89
Si  2.67  4.83  4.15
Si -5.86 -3.56 -0.91
Si  3.25  6.04  0.87
Si -2.74 -4.88 -4.11
Si -2.68  4.86 -4.18
Si -4.33  4.85 -2.49
Si  2.64 -4.92  4.16
Si  4.33 -4.88  2.44
Si -1.38  3.65 -5.80
Si  1.46 -3.61  5.85
Si  5.95  3.63  0.87
Si  4.50  4.77  2.55
Si -3.82  1.21  5.85
Si  3.91 -1.17 -5.80
Si  5.33  2.36  4.13
Si -5.26  2.45  4.18
Si -4.62 -4.86 -2.54
Si  3.92 -5.96 -0.84
Si  5.26 -2.47 -4.22
Si -2.29 -3.55  5.83
Si  2.32  3.64 -5.79
Si -3.90  6.04  0.87
Si -5.45 -2.45 -4.12
Si -3.06  3.66  5.75
Si  6.28 -0.06 -4.11
Si  3.15 -3.59 -5.79
Si  0.15  7.11 -2.51
Si -6.34  0.02  4.15
Si -0.19 -7.17  2.49
Si -0.43  1.27 -7.50
Si  6.67 -3.58  0.87
Si -6.65  3.67 -0.84
Si  0.46 -1.18  7.54
Si -4.93 -1.15  5.75
Si  1.44  1.30  7.44
Si -1.41 -1.27 -7.46
Si -7.62  1.14 -0.80
Si  4.41 -4.88 -4.11
Si  5.02  1.22 -5.79
Si  7.65 -1.11  0.78
Si -4.48  4.83  4.15
Si -4.92 -6.00  0.87
Si  4.47  4.86 -4.18
Si  7.02 -2.39 -2.52
Si  1.93  7.16  2.55
Si -4.51 -4.92  4.16
Si -1.75  7.27  2.49
Si -1.99 -7.20 -2.52
Si -7.08  2.34  2.55
Si -3.99 -3.59 -5.79
Si  5.01  6.07 -0.91
Si -2.12  1.22  7.54
Si  1.70 -7.33 -2.51
Si  4.08  3.66  5.75
Si  2.21 -1.15 -7.58
Si  7.21  2.34  2.55
Si -7.28 -2.39 -2.52
Si -6.24  4.75  2.44
Si  6.24 -4.77 -2.49
Si -0.42 -3.52  7.44
Si  6.26  4.77 -2.54
Si  3.32  1.21 -7.48
Si  0.46  3.54 -7.46
Si  0.05  7.18  4.13
Si -3.24 -1.17  7.53
Si  0.35 -5.97  5.75
Si -5.71  1.30 -5.89
Si  5.74 -1.27  5.87
Si -5.76  5.95 -0.80
Si  5.79 -5.92  0.78
Si -0.17 -7.26 -4.12
Si -0.26  6.04 -5.79
Si -4.83  3.64 -5.79
Si  4.85 -3.55  5.83
Si -6.38 -4.86  2.55
Si  1.46 -3.61 -7.48
Si -0.58 -8.37 -0.91
Si -3.54  7.24 -2.52
Si -1.41 -5.99 -5.79
Si -1.72  7.18 -4.12
Si -8.10 -0.07  2.44
Si  3.48 -7.28  2.55
Si  3.60  7.24 -2.52
Si -7.62 -3.58  0.87
Si -1.37  3.64  7.53
Si  8.10  0.04 -2.49
Si -3.83  1.21 -7.48
Si  1.60 -7.26  4.13
Si  1.84  7.15 -4.22
Si  1.11 -8.39  0.86
Si -1.84 -7.18  4.18
Si  0.67  8.44  0.87
Si  7.65  3.67 -0.84
Si -1.03  8.43 -0.82
Si  1.43  6.08  5.83
Si -3.67 -7.28  2.55
Si  3.91 -1.17  7.53
Si  2.04 -5.98 -5.80
Si -7.12 -2.37  4.18
Si  7.12  2.34 -4.22
Si -2.30 -3.55 -7.50
Si -1.96  6.02  5.85
Si -8.51 -1.14 -0.84
Si  7.17 -2.37  4.18
Si -7.17  2.34 -4.22
Si  8.53  1.23  0.87
Si  2.32  3.64  7.54
Si -2.34 -8.40  0.87
Si  6.09 -4.79  4.15
Si -6.15  4.75 -4.11
Si  2.37  8.48 -0.84
Si -5.69 -3.61  5.85
Si  3.16 -3.59  7.54
Si -6.69 -1.18 -5.79
Si  6.37  4.70  4.16
Si -3.07  3.66 -7.58
Si  5.77  3.65 -5.80
Si  7.95  0.02  4.15
Si  6.72  1.26  5.83
Si -6.62 -6.01 -0.82
Si -8.02 -0.06 -4.11
Si -6.41 -4.76 -4.18
Si  2.94 -8.49 -0.80
Si -2.91  8.52  0.78
Si -3.39  7.26  4.18
Si -3.27 -6.08  5.87
Si  6.71  6.05  0.86
Si  3.39 -7.29 -4.22
Si  3.30  6.11 -5.89
Si -4.93 -1.15 -7.58
Si -8.34  3.63  0.87
Si  5.02  1.22  7.54
Si  3.75  7.26  4.18
Si  8.43 -3.56 -0.91
Si  5.16 -7.20 -2.52
Si  0.80  0.02 -9.18
Si -5.22  7.16  2.55
Si -3.75 -7.29 -4.22
Si -3.99 -3.59  7.54
Si -0.87 -0.06  9.22
Si  3.88 -6.08  5.87
Si -3.85  6.11 -5.89
Si  4.08  3.66 -7.58
Si  5.40  7.27  2.49
Si -0.02  2.34  9.11
Si  0.02 -2.37 -9.15
Si  8.82 -2.36  2.49
Si -5.71  1.30  7.44
Si -5.45 -7.33 -2.51
Si -8.86  2.30 -2.51
Si  5.74 -1.27 -7.46
Si -4.20 -8.49 -0.80
Si  2.61  0.05  9.15
Si  4.24  8.52  0.78
Si  8.88  2.43 -2.52
Si -2.65 -0.11 -9.17
Si -9.45  1.24  0.86
Si -6.69  3.54  5.87
Si  6.72 -3.52 -5.89
Si  4.85 -3.55 -7.50
Si -1.89 -2.48  9.11
Si  7.60 -1.18 -5.79
Si  7.91 -4.86  2.55
Si -8.95 -2.47  2.55
Si -7.58  1.26  5.83
Si  9.54 -1.20 -0.82
Si  0.35 -5.97 -7.58
Si -0.26  6.03  7.54
Si  1.89  2.45 -9.15
Si -4.83  3.64  7.54
Si  8.06  4.75  2.44
Si -1.82  2.36 -9.20
Si  1.70 -2.45  9.21
Si -8.03  4.77 -2.54
Si -8.06 -4.77 -2.49
Si  4.80 -8.40  0.87
Si -1.41 -5.99  7.54
Si -7.59  6.05  0.86
Si  1.43  6.08 -7.50
Si -5.11 -5.98 -5.80
Si -4.78  8.48 -0.84
Si  7.67 -6.01 -0.82
Si -1.96  6.02 -7.48
Si  2.05 -5.99  7.53
Si -5.31  7.15 -4.22
Si  5.31 -7.18  4.18
Si  5.19  6.02  5.85
Si  5.43  7.18 -4.12
Si -0.79  9.58  2.55
Si  0.98  9.58 -2.54
Si  0.67 -9.67 -2.54
Si -5.55 -7.26  4.13
Si  8.85 -2.45 -4.12
Si -1.10 -9.67  2.55
Si -5.69 -3.61 -7.48
Si  9.78 -0.04  2.55
Si -7.93  4.70  4.16
Si  5.74 -5.99 -5.79
Si  7.88 -4.76 -4.18
Si  3.46 -2.45 -9.20
Si  6.71  1.27 -7.50
Si -8.96  2.36  4.13
Si -6.69 -1.18  7.54
Si  3.57  2.36  9.21
Si -3.58  2.36  9.21
Si  5.78  3.64  7.53
Si -3.27 -6.08 -7.46
Si -5.71  6.08  5.83
Si  3.31  6.11  7.44
Si -9.48 -3.68 -0.80
Si -3.69 -2.45 -9.20
Si  4.50 -0.11 -9.17
Si -4.54  0.05  9.15
Si -7.58 -3.52 -5.89
Si -9.90 -0.04 -2.54
Si  7.61  3.54  5.87
Si  9.52  3.70  0.78
Si  2.77  9.56  2.44
Si  9.04  2.45  4.18
Si -0.41 -8.42  5.85
Si  0.49  8.46 -5.80
Si -9.04 -2.47 -4.22
Si -2.46  9.67 -2.49
Si  8.14  4.75 -4.11
Si -2.77 -9.59 -2.49
Si -7.00  7.11 -2.51
Si  1.29 -8.41 -5.79
Si  6.95 -7.17  2.49
Si  2.46 -9.70  2.44
Si -1.20  8.47  5.75
Si -10.21 -1.19  0.87
Si -0.79  4.70 -9.17
Si  0.74 -4.77  9.15
Si -3.84  6.11  7.44
Si -8.21 -4.79  4.15
Si -6.04 -8.39  0.86
Si  3.88 -6.08 -7.46
Si -8.51 -5.92  0.78
Si -1.06 -4.79 -9.18
Si 10.30  1.25 -0.91
Si  1.00  4.75  9.22
Si  8.54  5.95 -0.80
Si  1.08  9.52  4.16
Si  6.12  8.43 -0.82
Si -8.55 -1.27  5.87
Si -2.29 -8.33 -5.89
Si  2.33  8.36  5.87
Si  8.58  1.30 -5.89
Si  7.30  7.11 -2.51
Si -1.13 -9.58 -4.18
Si -7.34 -7.17  2.49
Si -0.82  9.68 -4.18
Si  9.75  0.05 -4.18
Si  0.77 -9.74  4.16
Si  2.99 -8.36  5.83
Si  6.72 -3.52  7.44
Si -6.69  3.54 -7.46
Si -9.79 -0.11  4.16
Si -2.96  8.45 -5.79
Si -6.48  8.44  0.87
Si  6.57 -8.37 -0.91
Si -10.04  3.61 -0.82
Si -2.68  4.86  9.15
Si  2.67  4.83 -9.18
Si -6.79 -5.97  5.75
Si  2.63 -4.92 -9.17
Si -7.58  1.27 -7.50
Si 10.12 -3.58  0.86
Si  7.60 -1.18  7.54
Si -2.73 -4.88  9.22
Si -4.37  9.56  2.44
Si  2.86  9.56 -4.11
Si  5.26 -2.48  9.11
Si -2.61  9.65  4.15
Si  4.37 -9.59 -2.49
Si  2.55 -9.69 -4.11
Si  6.88  6.04 -5.79
Si -5.26  2.45 -9.15
Si  0.36 -10.81  0.87
Si -2.92 -9.61  4.15
Si  6.98 -7.26 -4.12
Si  0.96  0.04 10.84
Si -5.10 -5.99  7.53
Si  5.33  2.36 -9.20
Si -7.10  7.18  4.13
Si  5.18  6.02 -7.48
Si -0.27 10.88 -0.91
Si -0.96 -0.07 -10.89
Si -8.52  3.65 -5.80
Si -1.34 -10.83 -0.82
Si  7.19  7.18  4.13
Si -5.45 -2.45  9.21
Si  1.42 10.86  0.86
Si  2.05 -10.77 -0.84
Si -9.28  1.22 -5.79
Si -4.16 -8.36  5.83
Si  8.61 -3.61  5.85
Si  4.68  9.67 -2.49
Si  0.06  2.35 -10.78
Si -4.69 -9.70  2.44
Si  9.37 -1.15  5.75
Si  4.18  8.45 -5.79
Si -0.12 -2.39 10.81
Si -2.03 10.86  0.87
Si  2.63 -0.04 -10.79
Si -7.31 -7.26 -4.12
Si  9.68 -4.86 -2.54
Si -9.28  6.07 -0.91
Si -2.75 -0.05 10.79
Si  6.28 -0.06  9.22
Si -6.34  0.02 -9.18
Si  9.37 -6.00  0.87
Si -7.41  6.04 -5.79
Si  7.50 -5.97  5.75
Si -7.57 -3.52  7.44
Si -9.80  4.77  2.55
Si -1.71  2.29 10.82
Si -1.80 -2.47 -10.78
Si  5.74 -5.99  7.54
Si  1.74  2.42 10.81
Si -5.72  6.08 -7.50
Si  1.67 -2.36 -10.84
Si  7.61  3.54 -7.46
Si -3.22 -10.74  0.78
Si 10.68  2.46  2.49
Si -11.14  1.25 -0.91
Si -4.29  9.56 -4.11
Si -0.41 -8.42 -7.48
Si  3.26 10.76 -0.80
Si  4.47  4.86  9.15
Si  4.22 -9.61  4.15
Si 10.71 -2.52 -2.51
Si -4.82  8.36  5.87
Si  4.86 -8.33 -5.89
Si -10.73 -2.52 -2.51
Si -4.48  4.83 -9.18
Si -10.76  2.46  2.49
Si  4.42 -4.88  9.22
Si 11.23 -1.19  0.87
Si  0.49  8.46  7.53
Si -4.51 -4.92 -9.17
Si  9.97  4.85 -2.49
Si  1.29 -8.41  7.54
Si -9.97 -4.88  2.44
Si -2.29 -8.33  7.44
Si -8.55 -1.27 -7.46
Si -7.73 -8.37 -0.91
Si -1.20  8.47 -7.58
Si  8.59  1.30  7.44
Si  4.54  9.65  4.15
Si  2.32  8.36 -7.46
Si  3.92 -10.74  0.78
Si -3.89 10.76 -0.80
Si -4.60 -9.69 -4.11
Si  7.82  8.44  0.87
Si  2.98 -8.36 -7.50
Si 10.61 -2.45  4.13
Si -9.44 -3.55  5.83
Si  4.40 -0.05 10.79
Si  3.53  2.46 -10.84
Si  3.57 -2.52 10.82
Si  0.04  7.18 -9.20
Si -3.58 -2.52 10.82
Si -6.17  9.58 -2.54
Si  9.46  3.64 -5.79
Si  6.05 -9.67  2.55
Si -3.61  2.46 -10.84
Si -4.52 -0.04 -10.79
Si  9.82  4.83  4.15
Si -2.96  8.45  7.54
Si 10.71  2.37 -4.12
Si  9.78 -4.92  4.16
Si  1.84  7.15  9.11
Si -0.16 -7.26  9.21
Si -9.83  4.86 -4.18
Si -10.73  2.37 -4.12
Si -8.89  7.27  2.49
Si  8.85 -7.33 -2.51
Si -9.88 -4.88 -4.11
Si -8.18  8.43 -0.82
Si -5.86 -8.41 -5.79
Si -1.84 -7.18 -9.15
Si  6.36  9.58  2.55
Si  7.12  2.34  9.11
Si -6.80 -5.97 -7.58
Si -1.72  7.18  9.21
Si  8.26 -8.39  0.86
Si 11.54 -0.04 -2.54
Si -7.17  2.34  9.11
Si -0.88  4.77 10.79
Si  1.60 -7.26 -9.20
Si  9.07  7.16  2.55
Si -7.13 -2.37 -9.15
Si  5.95  8.47  5.75
Si -10.83 -2.45  4.13
Si  0.76 -4.86 -10.79
Si  6.89  6.03  7.54
Si  7.17 -2.37 -9.15
Si -0.91 -4.78 10.84
Si -11.32 -3.58  0.86
Si -9.14 -7.20 -2.52
Si  0.91  4.75 -10.89
Si -6.48 -9.67 -2.54
Si -11.66 -0.04  2.55
Si -8.52  3.64  7.53
