500
set: 1195.00  0.00  0.00
Si  0.33  0.47 -1.05
Si  0.04  0.33  1.44
Si -1.20 -1.59 -1.08
Si  1.37 -1.58  1.57
Si -0.97 -2.13  1.32
Si -2.31  0.46  1.32
Si -2.44  0.58 -1.02
Si  1.53 -2.04 -0.92
Si  2.73  0.58 -1.02
Si -1.26  2.66 -0.92
Si  2.85  0.46  1.32
Si  1.41  2.56  1.32
Si  0.13  0.34 -3.45
Si  1.19  3.10 -1.08
Si -1.41  3.11  1.57
Si  0.25  0.45  3.83
Si  1.46 -1.56 -3.31
Si -2.22  0.47 -3.56
Si -0.88 -2.12 -3.56
Si  0.35 -4.11 -1.02
Si -3.64 -2.04 -0.92
Si -1.28 -1.60  3.80
Si -3.79 -1.58  1.57
Si  3.97 -1.59 -1.08
Si  0.47 -4.23  1.32
Si  1.50  2.57 -3.56
Si  2.94  0.47 -3.56
Si -2.52  0.56  3.86
Si  1.44 -2.05  3.96
Si  2.64  0.56  3.86
Si -3.75  2.56  1.32
Si -1.32  3.13 -3.31
Si -2.05 -4.23 -1.05
Si  3.91  2.66 -0.92
Si  4.19 -2.13  1.32
Si -1.34  2.64  3.96
Si -4.83  0.47 -1.05
Si  1.10  3.09  3.80
Si  3.75  3.11  1.57
Si -2.34 -4.36  1.44
Si -3.98  3.10 -1.08
Si -3.70 -1.56 -3.31
Si  0.07  5.15  1.32
Si -5.12  0.33  1.44
Si  3.12 -4.23 -1.05
Si -0.06  5.27 -1.02
Si  2.82 -4.36  1.44
Si  5.20  0.33  1.44
Si  0.56 -4.22 -3.56
Si  5.50  0.47 -1.05
Si  0.26 -4.13  3.86
Si  3.88 -1.60  3.80
Si -3.67  2.57 -3.56
Si  2.42  5.02  1.44
Si -2.45  5.16 -1.05
Si -3.72 -2.05  3.96
Si -2.74  5.02  1.44
Si  2.71  5.16 -1.05
Si  4.28 -2.12 -3.56
Si  3.84  3.13 -3.31
Si  0.42  0.48 -5.93
Si -2.25 -4.35 -3.45
Si -2.13 -4.24  3.83
Si  3.82  2.64  3.96
Si -5.04  0.34 -3.45
Si -4.92  0.45  3.83
Si -1.11 -1.57 -5.96
Si  2.91 -4.35 -3.45
Si  0.16  5.16 -3.56
Si  5.29  0.34 -3.45
Si -0.05  0.32  6.32
Si  1.61 -2.02 -5.80
Si -4.07  3.09  3.80
Si -2.35  0.59 -5.90
Si -4.81 -4.11 -1.02
Si -4.69 -4.23  1.32
Si  3.03 -4.24  3.83
Si -1.17  2.67 -5.80
Si -0.14  5.25  3.86
Si -1.00 -6.27  1.57
Si  1.59 -6.28 -1.08
Si  2.82  0.59 -5.90
Si  2.51  5.04 -3.45
Si -6.13 -2.13  1.32
Si -6.36 -1.59 -1.08
Si  5.41  0.45  3.83
Si -1.06 -2.15  6.20
Si -2.66  5.04 -3.45
Si -2.40  0.44  6.20
Si  1.29 -1.59  6.45
Si  2.76  0.44  6.20
Si  1.32  2.54  6.20
Si -0.85 -6.73 -0.92
Si  1.27  3.12 -5.96
Si -2.54  5.14  3.83
Si  6.54 -1.58  1.57
Si  2.62  5.14  3.83
Si  5.51 -4.11 -1.02
Si -6.42  2.66 -0.92
Si  6.69 -2.04 -0.92
Si -3.55 -2.02 -5.80
Si -0.92 -6.25 -3.31
Si  6.35  3.10 -1.08
Si  5.63 -4.23  1.32
Si  6.57  2.56  1.32
Si  1.81 -6.82  1.32
Si -4.60 -4.22 -3.56
Si  0.44 -4.10 -5.90
Si -3.58 -6.28 -1.08
Si -1.50  3.10  6.45
Si -6.05 -2.12 -3.56
Si -5.09  5.15  1.32
Si  4.06 -1.57 -5.96
Si  5.11  5.27 -1.02
Si -6.57  3.11  1.57
Si  5.23  5.15  1.32
Si -4.90 -4.13  3.86
Si -5.22  5.27 -1.02
Si  1.12  7.35 -0.92
Si -1.38  7.25  1.32
Si  1.50 -6.29  3.80
Si  0.38 -4.25  6.20
Si -1.96 -4.21 -5.93
Si  4.00  2.67 -5.80
Si  6.62 -1.56 -3.31
Si -7.47  0.46  1.32
Si -4.74  0.48 -5.93
Si -6.45 -1.60  3.80
Si  4.16 -6.27  1.57
Si -7.60  0.58 -1.02
Si -3.88 -1.59  6.45
Si -3.35 -6.82  1.32
Si -3.84  2.54  6.20
Si  4.10 -2.15  6.20
Si -3.89  3.12 -5.96
Si  5.42 -4.13  3.86
Si -0.94 -6.74  3.96
Si  1.90 -6.81 -3.56
Si  0.03  5.28 -5.90
Si -6.48  3.13 -3.31
Si  3.21 -4.21 -5.93
Si  6.26  3.09  3.80
Si  5.72 -4.22 -3.56
Si  6.60 -2.05  3.96
Si  6.66  2.57 -3.56
Si  7.89  0.58 -1.02
Si  0.97  7.80  1.57
Si -5.01  5.16 -3.56
Si -1.60  7.79 -1.08
Si  3.67  3.10  6.45
Si  4.31 -6.73 -0.92
Si -0.02  5.13  6.20
Si -2.43 -4.37  6.32
Si -6.51  2.64  3.96
Si  5.11  0.32  6.32
Si  8.01  0.46  1.32
Si  2.73 -4.37  6.32
Si  5.58  0.48 -5.93
Si -1.29  7.26 -3.56
Si -5.21  0.32  6.32
Si -2.36  5.17 -5.93
Si -7.39  0.47 -3.56
Si -3.66 -6.29  3.80
Si  5.32  5.16 -3.56
Si  5.02  5.25  3.86
Si  4.25 -6.25 -3.31
Si  3.79  7.25  1.32
Si  0.22  0.36 -8.33
Si -3.26 -6.81 -3.56
Si  2.80  5.17 -5.93
Si  2.33  5.01  6.32
Si  1.03  7.33  3.96
Si -5.31  5.25  3.86
Si -7.21 -4.23 -1.05
Si -4.04  7.35 -0.92
Si  1.55 -1.55 -8.20
Si -2.83  5.01  6.32
Si  1.06  7.82 -3.31
Si -4.73 -4.10 -5.90
Si -7.68  0.56  3.86
Si  3.56  7.79 -1.08
Si -2.13  0.48 -8.44
Si  7.80  0.56  3.86
Si  0.16  0.44  8.71
Si -0.80 -2.10 -8.44
Si -6.27 -1.57 -5.96
Si -7.50 -4.36  1.44
Si  1.68 -6.26 -5.96
Si -1.69  7.78  3.80
Si -1.23  3.14 -8.20
Si  8.10  0.47 -3.56
Si  4.22 -6.74  3.96
Si -0.76 -6.71 -5.80
Si -4.78 -4.25  6.20
Si -6.17 -6.27  1.57
Si -1.37 -1.61  8.69
Si  3.88  7.26 -3.56
Si  1.58  2.59 -8.44
Si  3.03  0.48 -8.44
Si -6.33  2.67 -5.80
Si -4.19  7.80  1.57
Si  0.74 -8.92 -1.05
Si -6.22 -2.15  6.20
Si -6.01 -6.73 -0.92
Si -1.09 -6.28  6.45
Si -8.80 -2.04 -0.92
Si -3.61 -1.55 -8.20
Si -2.03 -8.80 -1.02
Si  5.60 -4.10 -5.90
Si  2.55  0.55  8.74
Si -2.61  0.55  8.74
Si  6.78 -2.02 -5.80
Si  0.44 -9.05  1.44
Si  1.35 -2.06  8.84
Si  7.58  5.02  1.44
Si  7.98 -4.36  1.44
Si -1.91 -8.92  1.32
Si -8.95 -1.58  1.57
Si -7.61  5.16 -1.05
Si  6.45 -1.59  6.45
Si -7.42 -4.35 -3.45
Si -7.30 -4.24  3.83
Si  1.01  3.08  8.69
Si  6.75 -6.28 -1.08
Si -4.13  7.33  3.96
Si  6.44  3.12 -5.96
Si -3.49 -6.26 -5.96
Si  6.48  2.54  6.20
Si  9.13 -1.59 -1.08
Si -6.08 -6.25 -3.31
Si  3.48  7.78  3.80
Si -1.43  2.63  8.84
Si  5.54 -4.25  6.20
Si  8.28 -4.23 -1.05
Si -8.92  2.56  1.32
Si  1.72 -6.84  6.20
Si  3.13 -8.80 -1.02
Si -4.10  7.82 -3.31
Si -5.13  5.28 -5.90
Si  1.21  7.36 -5.80
Si  0.65 -4.21 -8.44
Si  5.20  5.28 -5.90
Si  7.88  5.16 -1.05
Si -7.91  5.02  1.44
Si  9.07  2.66 -0.92
Si -3.58  2.59 -8.44
Si  5.14  5.13  6.20
Si -7.51  0.59 -5.90
Si  8.92  3.11  1.57
Si -5.18  5.13  6.20
Si -8.86 -1.56 -3.31
Si  3.25 -8.92  1.32
Si  3.79 -1.61  8.69
Si  3.93  3.14 -8.20
Si -2.16 -4.33 -8.33
Si -1.46  7.24  6.20
Si  0.17 -4.14  8.74
Si  9.35 -2.13  1.32
Si  0.53 -9.04 -3.45
Si -4.95  0.36 -8.33
Si  6.29  7.35 -0.92
Si -9.14  3.10 -1.08
Si  4.37 -2.10 -8.44
Si  0.65 -8.93  3.83
Si -1.82 -8.91 -3.56
Si -6.66  3.10  6.45
Si -7.56  0.44  6.20
Si  8.07 -4.35 -3.45
Si  7.67  5.04 -3.45
Si -0.36  9.71  1.44
Si  6.97 -6.82  1.32
Si -3.81 -2.06  8.84
Si -6.54  7.25  1.32
Si -3.44 -6.84  6.20
Si  3.00 -4.33 -8.33
Si -2.12 -8.82  3.86
Si -8.83  2.57 -3.56
Si  4.07 -6.28  6.45
Si -0.07  9.85 -1.05
Si  4.40 -6.71 -5.80
Si  0.24  5.17 -8.44
Si -7.82  5.04 -3.45
Si -6.10 -6.74  3.96
Si  5.38  0.36 -8.33
Si  6.66 -6.29  3.80
Si -1.51  7.81 -5.96
Si  9.04 -1.60  3.80
Si  7.98  0.59 -5.90
Si -8.89 -2.05  3.96
Si -2.22 -4.25  8.71
Si  3.73  2.63  8.84
Si  8.19 -4.24  3.83
Si -4.42 -8.92 -1.05
Si -7.70  5.14  3.83
Si  6.13  7.80  1.57
Si -9.99  0.47 -1.05
Si -5.00  0.44  8.71
Si -2.57  5.05 -8.33
Si  7.92  0.44  6.20
Si  2.60  5.05 -8.33
Si  7.79  5.14  3.83
Si  9.01  3.13 -3.31
Si  3.04 -8.82  3.86
Si -4.15  3.08  8.69
Si  2.94 -4.25  8.71
Si  0.88  7.79  6.45
Si  3.34 -8.91 -3.56
Si  8.98  2.64  3.96
Si -3.95  7.36 -5.80
Si -7.12 -4.21 -5.93
Si -0.23  5.24  8.74
Si  5.32  0.44  8.71
Si  2.45  9.84  1.32
Si  3.70  7.24  6.20
Si  2.33  9.96 -1.02
Si -2.71  9.84  1.32
Si -4.72 -9.05  1.44
Si  9.44 -2.12 -3.56
Si -0.28  9.73 -3.45
Si -0.83 -6.24 -8.20
Si -6.45  7.26 -3.56
Si -6.76  7.79 -1.08
Si  6.20  7.33  3.96
Si -10.29  0.33  1.44
Si -2.84  9.96 -1.02
Si  2.54  5.13  8.71
Si  7.06 -6.81 -3.56
Si -2.62  5.13  8.71
Si -9.23  3.09  3.80
Si -4.51 -4.21 -8.44
Si 10.36  0.33  1.44
Si  3.65  7.81 -5.96
Si  6.22  7.82 -3.31
Si -5.96 -2.10 -8.44
Si -0.16  9.83  3.83
Si -8.71 -2.02 -5.80
Si -5.93 -6.71 -5.80
Si  6.71 -1.55 -8.20
Si -4.51 -8.93  3.83
Si 10.66  0.47 -1.05
Si -4.63 -9.04 -3.45
Si  0.83 -8.90 -5.93
Si  5.61 -9.05  1.44
Si  5.90 -8.92 -1.05
Si -1.94 -8.79 -5.90
Si -10.20  0.34 -3.45
Si  2.54  9.85 -3.56
Si -10.08  0.45  3.83
Si -2.63  9.85 -3.56
Si -7.59 -4.37  6.32
Si -9.85 -4.23  1.32
Si -8.74 -6.28 -1.08
Si  1.41 -6.30  8.69
Si  0.51  0.49 -10.81
Si -9.98 -4.11 -1.02
Si -6.39  3.14 -8.20
Si -7.52  5.17 -5.93
Si -4.99 -4.14  8.74
Si  2.24  9.94  3.86
Si  4.80  9.71  1.44
Si -6.26 -6.28  6.45
Si -4.28  7.79  6.45
Si -6.53 -1.61  8.69
Si -8.51 -6.82  1.32
Si -1.02 -1.56 -10.84
Si  1.70 -2.01 -10.69
Si  7.49  5.01  6.32
Si 10.45  0.34 -3.45
Si  1.99 -6.79 -8.44
Si  7.90 -4.37  6.32
Si  6.84 -6.26 -5.96
Si -2.26  0.60 -10.78
Si -6.85  7.78  3.80
Si  5.33 -4.14  8.74
Si -0.79 -10.97 -1.08
Si  0.35 -9.06  6.32
Si -4.92  5.17 -8.44
Si -2.00 -8.94  6.20
Si -2.93  9.94  3.86
Si  3.22 -8.79 -5.90
Si -1.08  2.68 -10.69
Si  5.81 -4.21 -8.44
Si  8.37 -4.21 -5.93
Si  6.17  3.08  8.69
Si  9.22 -1.57 -5.96
Si  6.75  2.59 -8.44
Si  5.09  9.85 -1.05
Si  9.16  2.67 -5.80
Si -7.30  0.48 -8.44
Si -1.03 -6.75  8.84
Si  6.51 -2.06  8.84
Si  4.33 -6.24 -8.20
Si  2.90  0.60 -10.78
Si  7.96  5.17 -5.93
Si -5.23  9.85 -1.05
Si -0.14  0.30 11.20
Si -1.20  7.28 -8.44
Si  1.78 -10.96  1.57
Si -9.04 -1.59  6.45
Si -9.77 -4.22 -3.56
Si  5.69 -9.04 -3.45
Si -9.01  2.54  6.20
Si 10.57  0.45  3.83
Si -5.53  9.71  1.44
Si -9.05  3.12 -5.96
Si  5.41  5.17 -8.44
Si -3.17 -6.79 -8.44
Si  5.81 -8.93  3.83
Si  4.93  5.24  8.74
Si  3.17 -8.94  6.20
Si  6.38  7.36 -5.80
Si -6.59  2.63  8.84
Si  9.32 -6.27  1.57
Si -1.15 -2.16 11.09
Si -8.00  5.01  6.32
Si  9.27 -2.15  6.20
Si  8.83  3.10  6.45
Si  1.36  3.13 -10.84
Si -2.49  0.43 11.08
Si -3.75 -6.30  8.69
Si  1.15  7.83 -8.20
Si -8.43 -6.81 -3.56
Si -3.46 -2.01 -10.69
Si  2.67  0.43 11.08
Si -7.19 -8.80 -1.02
Si  4.89  9.73 -3.45
Si  1.23  2.53 11.09
Si -7.07 -8.92  1.32
Si 10.67 -4.11 -1.02
Si -8.82 -6.29  3.80
Si  0.02  9.86 -5.93
Si  1.20 -1.60 11.33
Si  6.88 -6.84  6.20
Si  0.95  7.32  8.84
Si -5.39  5.24  8.74
Si -4.34 -8.90 -5.93
Si  0.53 -4.09 -10.78
Si -10.06 -4.13  3.86
Si -10.26  5.15  1.32
Si -9.90  0.48 -5.93
Si -11.30 -2.13  1.32
Si -3.38 -10.96  1.57
Si -0.45  9.70  6.32
Si 10.27  5.27 -1.02
Si  1.87 -10.95 -3.31
Si  8.95  7.25  1.32
Si -0.57 -11.51  1.32
Si -6.63  7.24  6.20
Si  1.93 -11.42 -0.92
Si  9.47 -6.73 -0.92
Si -0.88 -10.98  3.80
Si -5.44  9.73 -3.45
Si 10.80 -4.23  1.32
Si  7.71  0.55  8.74
Si 10.39  5.15  1.32
Si -11.52 -1.59 -1.08
Si  5.00  9.83  3.83
Si -10.38  5.27 -1.02
Si  4.14 -1.56 -10.84
Si -7.77  0.55  8.74
Si -1.87 -4.20 -10.81
Si  4.08  2.68 -10.69
Si  8.73  7.79 -1.08
Si  8.19  0.48 -8.44
Si  9.41 -6.25 -3.31
Si -4.65  0.49 -10.81
Si  6.04  7.79  6.45
Si -1.77  7.77  8.69
Si -9.20  7.35 -0.92
Si -5.32  9.83  3.83
Si  3.96  7.28 -8.44
Si  2.41  9.97 -5.90
Si -1.58  3.08 11.33
Si  2.36  9.82  6.20
Si  4.37 -10.97 -1.08
Si -6.98 -8.91 -3.56
Si  4.13 -6.75  8.84
Si -6.67  7.81 -5.96
Si  0.29 -4.26 11.08
Si -3.23 -11.42 -0.92
Si -3.30 -10.95 -3.31
Si -3.80  3.13 -10.84
Si -7.33 -4.33 -8.33
Si -2.75  9.97 -5.90
Si 11.70 -1.58  1.57
Si -5.99 -6.24 -8.20
Si -11.58  2.66 -0.92
Si -10.17  5.16 -3.56
Si -11.21 -2.12 -3.56
Si -2.80  9.82  6.20
Si 11.51  3.10 -1.08
Si  4.01 -2.16 11.09
Si 10.59 -4.13  3.86
Si  0.12  5.29 -10.78
Si -4.01  7.83 -8.20
Si -3.93  2.53 11.09
Si -0.48 -11.50 -3.56
Si -4.81 -9.06  6.32
Si  1.00 11.94  1.32
Si  3.29 -4.20 -10.81
