500
set: 1434.00  0.00  0.00
Si  0.73 -0.78 -1.05
Si  1.39 -0.26  1.02
Si  0.02  0.45  2.47
Si -1.64 -1.13 -1.62
Si -2.03 -1.63  0.51
Si  1.50  2.22  0.15
Si  0.88  1.68 -1.90
Si -2.35  0.09  1.90
Si  0.18  2.91  1.62
Si  0.13 -3.01  1.62
Si  2.09 -1.48 -2.50
Si  1.45 -3.70  0.15
Si -2.72  1.15 -2.75
Si  2.20  1.00 -3.36
Si  2.61 -2.48  2.10
Si -3.42  2.37  0.77
Si  3.35  2.21 -1.42
Si -1.33 -2.85 -3.01
Si -1.29  3.07 -3.01
Si  0.75 -2.48  3.67
Si  3.97  2.37  0.77
Si  0.69  0.96  4.54
Si  0.84 -4.23 -1.90
Si -1.99  4.29  0.51
Si  2.65  3.44  2.10
Si -4.04  2.21 -1.42
Si -2.73 -0.40  4.03
Si -3.47 -3.54  0.77
Si  0.79  3.44  3.67
Si  3.31 -3.70 -1.42
Si  1.43 -2.00 -4.57
Si -1.60  4.78 -1.62
Si  0.77  5.14 -1.05
Si  3.93 -3.54  0.77
Si  5.05  0.09  1.90
Si -0.57 -1.79  5.14
Si  2.14  4.44 -2.50
Si  4.67  1.15 -2.75
Si  5.36 -1.63  0.51
Si  1.58  0.46 -5.42
Si -4.09 -3.70 -1.42
Si -0.94 -2.36 -5.14
Si -4.79 -2.48  2.10
Si  3.23 -2.32  4.29
Si  1.44  5.66  1.02
Si -0.02 -5.47  2.47
Si -5.30 -1.48 -2.50
Si -3.34  0.99 -4.94
Si  1.91 -1.26  5.62
Si  5.75 -1.13 -1.62
Si -6.00 -0.26  1.02
Si -2.76 -4.77 -2.75
Si  4.66 -0.40  4.03
Si  1.47  3.92 -4.57
Si -4.75  3.44  2.10
Si -0.68  1.67  5.99
Si -5.20  1.00 -3.36
Si -5.90  2.22  0.15
Si -0.90  3.56 -5.14
Si  2.15 -4.92 -3.36
Si -3.05  1.31  5.42
Si  1.35 -6.17  1.02
Si -4.17 -2.32  4.29
Si  4.05  0.99 -4.94
Si  3.27  3.60  4.29
Si -2.39 -5.83  1.90
Si -2.02 -0.07 -6.27
Si -0.53  4.13  5.14
Si -2.30  6.01  1.90
Si  0.65 -4.95  4.54
Si -6.67 -0.78 -1.05
Si -0.58  1.84 -6.53
Si  0.68 -6.69 -1.05
Si  0.07  6.36  2.47
Si  5.41  4.29  0.51
Si -4.12  3.60  4.29
Si -6.52  1.68 -1.90
Si -5.94 -3.70  0.15
Si  4.35  1.31  5.42
Si  2.80 -2.70 -6.01
Si  4.63 -4.77 -2.75
Si  0.05 -1.25  7.19
Si -5.26  4.44 -2.50
Si -2.69  5.51  4.03
Si  6.07 -2.85 -3.01
Si -0.72 -4.25  5.99
Si  2.84  3.21 -6.01
Si -1.69 -7.05 -1.62
Si  6.11  3.07 -3.01
Si  2.90 -0.23 -6.88
Si  1.95  4.66  5.62
Si  5.79  4.78 -1.62
Si -0.63 -4.07 -6.53
Si -3.38 -4.93 -4.94
Si -3.09 -4.60  5.42
Si -5.97 -2.00 -4.57
Si -7.37  0.45  2.47
Si  7.42  0.45  2.47
Si -2.07 -7.54  0.51
Si  1.54 -5.46 -5.42
Si  0.92  7.60 -1.90
Si  5.01 -5.83  1.90
Si -5.24 -4.92 -3.36
Si -7.22  2.91  1.62
Si -5.49 -1.26  5.62
Si -5.82  0.46 -5.42
Si -6.65 -2.48  3.67
Si -2.78 -6.32  4.03
Si  2.24  6.91 -3.36
Si -7.26 -3.01  1.62
Si -6.56 -4.23 -1.90
Si -4.60 -2.70 -6.01
Si -2.68  7.07 -2.75
Si  4.01 -4.93 -4.94
Si  2.05 -7.40 -2.50
Si  5.09  6.01  1.90
Si -6.71  0.96  4.54
Si -4.56  3.21 -6.01
Si  8.12 -0.78 -1.05
Si -4.50 -0.23 -6.88
Si  5.38 -0.07 -6.27
Si  7.53 -3.01  1.62
Si  7.57  2.91  1.62
Si  0.73  6.88  4.54
Si  2.53 -1.10  7.81
Si  1.54  8.13  0.15
Si -5.96  5.66  1.02
Si  4.71  5.51  4.03
Si -6.60  3.44  3.67
Si  4.30 -4.60  5.42
Si -3.44  0.82  7.55
Si -0.01  2.19  8.06
Si -5.93  3.92 -4.57
Si -6.63  5.14 -1.05
Si  1.62  6.38 -5.42
Si  3.96  0.82  7.55
Si  0.09  4.66  7.19
Si  6.45 -2.36 -5.14
Si  8.27  1.68 -1.90
Si -6.05 -6.17  1.02
Si  6.83 -1.79  5.14
Si -1.27 -0.56  8.66
Si  2.17  2.69 -8.09
Si -1.98  5.84 -6.27
Si  4.62 -6.32  4.03
Si  8.79 -0.26  1.02
Si -2.64 -0.23 -8.46
Si -0.06 -3.73  8.06
Si -2.06 -5.99 -6.27
Si  3.40  8.13 -1.42
Si  4.72  7.07 -2.75
Si  2.13 -3.22 -8.09
Si -0.20  2.34 -8.66
Si  0.22  8.82  1.62
Si -3.38  8.29  0.77
Si  6.50  3.56 -5.14
Si  2.56 -8.40  2.10
Si  0.09 -8.93  1.62
Si -5.45  4.66  5.62
Si -3.30  6.91 -4.94
Si  6.72  1.67  5.99
Si  8.89  2.22  0.15
Si -4.00  8.13 -1.42
Si  0.71 -8.39  3.67
Si  5.71 -7.05 -1.62
Si  1.20 -0.04  9.14
Si  4.01  8.29  0.77
Si  1.39 -7.92 -4.57
Si  5.32 -7.54  0.51
Si  2.28 -0.76 -8.94
Si -9.04 -1.13 -1.62
Si -5.16  6.91 -3.36
Si -4.87 -1.10  7.81
Si  8.15 -2.48  3.67
Si -0.61 -7.70  5.14
Si  1.86 -7.17  5.62
Si  8.09  0.96  4.54
Si -1.37 -8.77 -3.01
Si -0.24 -3.58 -8.66
Si  2.94  5.69 -6.88
Si  4.10  6.91 -4.94
Si  8.23 -4.23 -1.90
Si -5.34 -7.40 -2.50
Si  7.38 -5.47  2.47
Si -3.01  7.23  5.42
Si  6.87  4.13  5.14
Si -6.75 -4.95  4.54
Si  2.57  4.82  7.81
Si -6.71 -6.69 -1.05
Si -7.42 -5.47  2.47
Si -1.24  8.98 -3.01
Si -9.43 -1.63  0.51
Si  8.85 -3.70  0.15
Si  6.81  1.84 -6.53
Si  8.19  3.44  3.67
Si -7.96 -1.79  5.14
Si -8.72 -2.85 -3.01
Si  2.86 -6.14 -6.88
Si -5.86 -5.46 -5.42
Si -0.64  7.58  5.99
Si -8.68  3.07 -3.01
Si  8.16  5.14 -1.05
Si  4.76 -0.23 -8.46
Si  1.41 -9.61  0.15
Si -3.48 -5.10  7.55
Si -0.98 -8.27 -5.14
Si  3.19 -8.24  4.29
Si -4.83 -8.40  2.10
Si  3.92 -5.10  7.55
Si  9.49 -1.48 -2.50
Si  6.67 -4.25  5.99
Si -9.74  0.09  1.90
Si  2.69  9.35  2.10
Si -1.32 -1.29 -9.79
Si  3.65  2.54  8.94
Si -4.45  5.69 -6.88
Si -5.22  2.69 -8.09
Si -7.33  6.36  2.47
Si -3.75  2.54  8.94
Si -5.86  8.13  0.15
Si -1.38  2.89  9.51
Si  4.39  7.23  5.42
Si  0.12  0.62 -10.04
Si -8.34 -2.36 -5.14
Si -1.42 -3.03  9.51
Si  0.83  9.36  3.67
Si  7.46  6.36  2.47
Si -3.51 -9.46  0.77
Si  8.82 -2.00 -4.57
Si  5.42  5.84 -6.27
Si -0.54  7.76 -6.53
Si  0.01 -7.17  7.19
Si -6.47  7.60 -1.90
Si -5.77  6.38 -5.42
Si -5.27 -3.22 -8.09
Si  5.33 -5.99 -6.27
Si -8.07  1.67  5.99
Si -4.21 -8.24  4.29
Si  3.60 -3.38  8.94
Si  9.59  1.00 -3.36
Si  6.77 -4.07 -6.53
Si -1.23  5.35  8.66
Si  3.89 -9.46  0.77
Si  3.27 -9.62 -1.42
Si -3.79 -3.38  8.94
Si -4.54 -6.14 -6.88
Si -7.92  4.13  5.14
Si -9.00  4.78 -1.62
Si -5.11 -0.76 -8.94
Si -9.38  4.29  0.51
Si  0.79 -10.15 -1.90
Si -7.35 -1.25  7.19
Si  3.54  1.99 -9.53
Si -4.83  4.82  7.81
Si -8.29  3.56 -5.14
Si -1.95 10.21  0.51
Si  7.44 -1.25  7.19
Si -7.98  1.84 -6.53
Si -3.85  1.99 -9.53
Si  8.04 -4.95  4.54
Si  8.98  0.46 -5.42
Si -2.60  5.68 -8.46
Si 10.00 -2.48  2.10
Si  8.83  5.66  1.02
Si  8.08 -6.69 -1.05
Si -10.12  1.15 -2.75
Si -4.13 -9.62 -1.42
Si  2.33  5.16 -8.94
Si -6.66  6.88  4.54
Si  6.13 -0.56  8.66
Si -5.53 -7.17  5.62
Si -3.39  6.74  7.55
Si -4.70  9.35  2.10
Si  8.87  3.92 -4.57
Si -0.65 -0.03 10.71
Si  8.75 -6.17  1.02
Si  2.48 -7.01  7.81
Si -2.68 -6.15 -8.46
Si  9.53  4.44 -2.50
Si -0.86  9.48 -5.14
Si 10.05  3.44  2.10
Si  2.75 -8.62 -6.01
Si  2.18 10.35 -2.50
Si  4.00  6.74  7.55
Si  3.50 -3.93 -9.53
Si -1.31 -6.48  8.66
Si -1.27  4.62 -9.79
Si -10.13 -0.40  4.03
Si -1.56 10.70 -1.62
Si -6.01 -7.92 -4.57
Si  1.25  5.88  9.14
Si  9.30 -1.26  5.62
Si  1.51  9.83 -4.57
Si -8.12 -4.25  5.99
Si  3.31  9.51  4.29
Si  1.16 -5.95  9.14
Si -3.90 -3.93 -9.53
Si -6.19 -0.04  9.14
Si  6.02 -8.77 -3.01
Si 10.75  2.21 -1.42
Si -10.82  2.37  0.77
Si  3.60 -1.45 -10.40
Si -8.02 -4.07 -6.53
Si  0.81 11.05 -1.05
Si  7.38  2.19  8.06
Si -7.41  2.19  8.06
Si -3.79 -1.45 -10.40
Si -4.08  9.51  4.29
Si  9.55 -4.92 -3.36
Si -7.30  4.66  7.19
Si  4.80  5.68 -8.46
Si -0.48 10.05  5.14
Si  6.15  8.98 -3.01
Si  2.88  9.13 -6.01
Si -9.41 -0.07 -6.27
Si -5.99 -9.61  0.15
Si -6.69 -8.39  3.67
Si  0.07 -5.29 -10.04
Si  2.24 -6.68 -8.94
Si  7.49  4.66  7.19
Si -2.81 -10.68 -2.75
Si 10.71 -3.70 -1.42
Si  8.32  7.60 -1.90
Si  0.03  8.10  8.06
Si -10.86 -3.54  0.77
Si  4.71 -6.15 -8.46
Si  1.82  0.12 11.33
Si  6.79 -7.70  5.14
Si -7.18  8.82  1.62
Si -4.64 -8.62 -6.01
Si -5.07  5.16 -8.94
Si  7.20  2.34 -8.66
Si  7.34 -3.73  8.06
Si  2.11 -10.84 -3.36
Si -9.79 -5.83  1.90
Si -10.16 -4.77 -2.75
Si -9.70  6.01  1.90
Si  8.13  6.88  4.54
Si  5.45 10.21  0.51
Si -4.91 -7.01  7.81
Si  6.08 -1.29 -9.79
Si -7.45 -3.73  8.06
Si -9.08 -7.05 -1.62
Si  6.01  2.89  9.51
Si  5.97 -3.03  9.51
Si 11.37  2.37  0.77
Si -7.30 -8.93  1.62
Si -0.06 -11.39  2.47
Si  6.41 -8.27 -5.14
Si 10.62 -2.32  4.29
Si  1.48 11.57  1.02
Si  3.26  2.04 11.07
Si -11.44  2.21 -1.42
Si -7.59  2.34 -8.66
Si  7.49 -8.93  1.62
Si  7.62  8.82  1.62
Si  8.93 -5.46 -5.42
Si  7.16 -3.58 -8.66
Si  6.76  7.58  5.99
Si  0.60 -10.87  4.54
Si -0.76 -10.17  5.99
Si -4.51  9.13 -6.01
Si -10.44  1.31  5.42
Si  9.34  4.66  5.62
Si -5.22 10.35 -2.50
Si -10.74  0.99 -4.94
Si -0.76 -2.51 11.58
Si 11.33 -3.54  0.77
Si  3.64  4.47 -10.40
Si  6.17  5.35  8.66
Si -3.75  4.47 -10.40
Si  4.59 -10.68 -2.75
Si -0.67 -9.99 -6.53
Si -0.15  8.26 -8.66
Si  0.16  6.54 -10.04
Si -4.14  2.04 11.07
Si -6.56  9.36  3.67
Si  2.21  8.61 -8.09
Si  2.87  1.47 -11.60
Si 10.67  3.60  4.29
Si  8.93  8.13  0.15
Si -7.64 -3.58 -8.66
Si -0.71  3.41 11.58
Si -9.47 -7.54  0.51
Si 10.19 -2.70 -6.01
Si  1.99 10.58  5.62
Si -2.43 -11.74  1.90
Si -11.48 -3.70 -1.42
Si  3.22 -3.88 11.07
Si -10.09  5.51  4.03
Si  1.31 -12.09  1.02
Si -1.94 -1.45 -11.98
Si  8.10 -8.39  3.67
Si -1.36 -7.21 -9.79
Si -0.61  5.89 10.71
Si  6.85  7.76 -6.53
Si  0.51  1.11 -12.18
Si -3.13 -10.52  5.42
Si -8.01 -7.70  5.14
Si  9.45 -7.40 -2.50
Si -6.60 -10.15 -1.90
Si -8.67 -0.56  8.66
Si -0.70 -5.95 10.71
Si -2.26 11.92  1.90
Si -5.16 -6.68 -8.94
Si  5.84 10.70 -1.62
Si 10.23  3.21 -6.01
Si  9.02  6.38 -5.42
Si  9.63  6.91 -3.36
Si -5.88  9.83 -4.57
Si -1.97  0.66 12.18
Si  2.09 -9.14 -8.09
Si 10.29 -0.23 -6.88
Si -3.43 -10.84 -4.94
Si -2.65 11.43  4.03
Si  6.08 -6.48  8.66
Si -7.28  0.62 -10.04
Si 12.07  1.15 -2.75
Si  6.12  4.62 -9.79
Si -4.18 -3.88 11.07
Si -6.15  5.88  9.14
Si 11.45  0.99 -4.94
Si -5.28 -10.84 -3.36
Si  0.11 12.28  2.47
Si -4.52  1.47 -11.60
Si  8.60 -0.04  9.14
Si -11.56 -2.32  4.29
Si  3.97 -10.84 -4.94
Si  7.51  0.62 -10.04
Si -7.39 -7.17  7.19
Si -6.24 -5.95  9.14
Si  7.40 -7.17  7.19
Si -8.03  7.58  5.99
Si -0.10 -9.65  8.06
Si  4.26 -10.52  5.42
Si 12.45  0.09  1.90
Si -10.07  7.07 -2.75
Si  6.54  9.48 -5.14
Si -12.18 -2.48  2.10
Si -5.57  0.12 11.33
Si -10.17 -6.32  4.03
Si  6.74 -0.03 10.71
Si -10.49 -4.60  5.42
Si  0.64 -12.61 -1.05
Si  9.92 -1.10  7.81
Si  8.78 -7.92 -4.57
Si  1.50 -11.37 -5.42
Si -9.37  5.84 -6.27
Si 12.06 -0.40  4.03
Si  0.50  1.19 12.66
Si  2.83 -4.45 -11.60
Si -8.77 -8.77 -3.01
Si -12.14  3.44  2.10
Si  0.13 10.58  7.19
Si -11.52  3.60  4.29
Si  9.57  2.69 -8.09
Si -8.64  8.98 -3.01
Si -9.46 -5.99 -6.27
Si -10.78 -4.93 -4.94
Si  3.69  8.45  8.94
Si -3.71  8.45  8.94
Si  1.78 -5.79 11.33
Si -8.38 -8.27 -5.14
Si -0.28 -9.49 -8.66
Si 12.76 -1.63  0.51
Si -7.94  7.76 -6.53
Si  4.96 -11.74  1.90
Si  3.58  7.91 -9.53
Si -5.18  8.61 -8.09
Si  9.53 -3.22 -8.09
Si -6.58 11.05 -1.05
Si -1.89  4.46 -11.98
Si -3.81  7.91 -9.53
Si  2.98 -1.99 -12.45
Si  2.90 -2.16 12.46
Si  1.87  6.04 11.33
Si  9.26 -7.17  5.62
Si  8.23  9.36  3.67
Si 11.74  1.31  5.42
Si  4.75 11.43  4.03
Si -12.70 -1.48 -2.50
Si -1.34  8.81  9.51
Si  8.81 -9.61  0.15
Si -5.92 11.57  1.02
Si -12.60  1.00 -3.36
Si  0.46 -4.80 -12.18
Si  5.13 11.92  1.90
Si -10.04 -0.23 -8.46
Si -1.47 -8.94  9.51
Si -5.41 10.58  5.62
Si -8.71 -1.29 -9.79
Si  8.19 -10.15 -1.90
Si -1.73 -12.97 -1.62
Si -2.82 -12.24  4.03
Si  9.68 -0.76 -8.94
Si  9.96 -8.40  2.10
Si 12.03 -4.77 -2.75
Si -10.83  0.82  7.55
Si  6.91 10.05  5.14
Si  3.56 -7.37 -10.40
