500
set: 348.00  0.00  0.00
Si  0.01 -0.06  0.01
Si  0.01  0.02 -2.26
Si -1.89  1.03  0.79
Si  1.89  1.08  0.72
Si  0.02 -2.23  0.84
Si -1.87  3.16  0.06
Si  0.01  2.15 -3.00
Si  3.72 -0.04 -0.03
Si  1.89 -1.08 -3.04
Si -1.86 -3.24 -0.03
Si -1.85 -0.97 -3.11
Si  1.90  1.19  3.02
Si  1.89  3.26 -0.03
Si -1.87  1.09  3.09
Si -3.79 -0.04 -0.03
Si  0.01 -2.19  3.13
Si  1.89 -3.35  0.06
Si  1.87 -0.99  3.78
Si -0.00  4.30  0.73
Si -1.89 -3.15 -2.35
Si  1.87 -3.25 -2.26
Si -1.89  3.25 -2.26
Si  0.02  2.24  3.79
Si -3.74  0.07 -2.34
Si  3.75 -2.21  0.73
Si -3.76 -2.21  0.73
Si  3.77  0.07 -2.34
Si -1.89 -1.08  3.88
Si  1.87  3.35 -2.35
Si  3.67 -2.12  3.01
Si -0.08 -4.28 -3.12
Si  3.67  2.22 -3.12
Si -3.84 -2.12  3.01
Si -0.08  4.39  3.01
Si -3.84  2.22 -3.12
Si  0.02  2.11 -5.29
Si -3.74  4.28  0.84
Si  3.78  4.28  0.84
Si -5.62  1.08  0.72
Si  5.63  1.03  0.79
Si -1.87 -5.42  0.72
Si  1.87 -1.14 -5.35
Si  0.01 -4.32  3.88
Si -3.74  2.19  3.88
Si  3.77  2.19  3.88
Si -1.87 -1.08 -5.42
Si  1.87 -5.48  0.79
Si -1.85 -5.31  3.02
Si  1.89  0.99 -6.08
Si -0.04  2.13  6.10
Si  5.64  3.16  0.06
Si -0.04  6.47 -0.03
Si  1.89 -1.07  6.11
Si -3.75 -4.36 -3.00
Si -5.62 -1.08 -3.04
Si -5.61  1.19  3.02
Si -1.87  5.43 -3.04
Si  3.77 -4.36 -3.00
Si -5.62  3.26 -0.03
Si  5.65 -3.24 -0.03
Si -3.75  4.31  3.13
Si  1.89 -5.42  3.09
Si  5.64  1.09  3.09
Si  3.77  4.31  3.13
Si -1.86  1.10 -6.16
Si  5.66 -0.97 -3.11
Si -0.04 -6.54 -0.03
Si -5.63 -3.35  0.06
Si -0.04 -2.21 -6.17
Si -1.87 -1.18  6.19
Si  1.90  5.53 -3.11
Si -3.74 -4.27  3.79
Si  3.77 -4.27  3.79
Si  0.02 -6.43 -2.34
Si -5.64 -0.99  3.78
Si -0.00 -0.04  6.86
Si  5.63 -3.15 -2.35
Si  5.63  3.25 -2.26
Si -5.64 -3.25 -2.26
Si  3.75  2.13 -5.40
Si -3.76  2.13 -5.40
Si  5.63 -1.08  3.88
Si  1.87  5.42  3.88
Si -1.89  5.52  3.78
Si -0.00 -4.38 -5.40
Si -5.64  3.35 -2.35
Si  0.02  6.58 -2.34
Si -3.74  6.44  0.01
Si  3.77  6.44  0.01
Si  0.01  4.27 -6.13
Si -3.74  2.10  6.14
Si -7.50 -0.06  0.01
Si  3.77  2.10  6.14
Si -3.74 -2.23 -6.13
Si  7.53 -0.06  0.01
Si  3.77 -2.23 -6.13
Si  0.01 -4.40  6.14
Si -3.74 -6.57  0.01
Si  3.77 -6.57  0.01
Si  1.87  7.53  0.79
Si -1.89  5.37 -5.35
Si -1.87  3.25  6.85
Si  1.89 -3.25  6.85
Si -3.74 -6.49 -2.26
Si -7.50  0.02 -2.26
Si -3.74 -4.39 -5.29
Si  3.77 -6.49 -2.26
Si  1.87  3.20  6.92
Si  3.78 -4.39 -5.29
Si -1.87  7.59  0.72
Si -3.74  6.52 -2.26
Si -5.64 -1.14 -5.35
Si  5.64 -5.42  0.72
Si  7.53  0.02 -2.26
Si -7.49 -2.23  0.84
Si  3.77  6.52 -2.26
Si  1.89  5.42 -5.42
Si -1.89 -3.31  6.92
Si  5.64 -1.08 -5.42
Si  7.53 -2.23  0.84
Si -5.64 -5.48  0.79
Si -3.74 -0.06  6.97
Si  3.78 -0.06  6.97
Si  1.90 -7.48 -3.11
Si  5.66 -5.31  3.02
Si -5.63  0.99 -6.08
Si -7.50  2.15 -3.00
Si -5.62 -1.07  6.11
Si  3.72 -4.37  6.10
Si  7.52  2.15 -3.00
Si -1.87 -7.58 -3.04
Si -1.86  5.43  6.11
Si  1.89  5.33  6.19
Si  3.72  4.30 -6.17
Si  5.64  5.43 -3.04
Si -5.63 -5.42  3.09
Si -3.79 -4.37  6.10
Si -1.87 -5.51 -6.08
Si  1.89 -5.41 -6.16
Si  1.89  7.59  3.09
Si -7.50 -2.19  3.13
Si -3.79  4.30 -6.17
Si  5.65  1.10 -6.16
Si  7.52 -2.19  3.13
Si  5.64 -1.18  6.19
Si -5.61  5.53 -3.11
Si -1.85  7.70  3.02
Si -1.89 -7.49  3.78
Si  1.87  1.08 -8.39
Si  7.51  4.30  0.73
Si -7.51  4.30  0.73
Si -7.50  2.24  3.79
Si  7.53  2.24  3.79
Si  1.87 -7.59  3.88
Si  0.02 -2.10 -8.47
Si -5.64  5.42  3.88
Si  5.63  5.52  3.78
Si -0.00 -8.71  0.73
Si -1.89  1.18 -8.49
Si  7.43 -4.28 -3.12
Si -0.08 -8.62  3.01
Si  7.43  4.39  3.01
Si -0.08  0.05  9.15
Si -0.08  0.05 -9.25
Si -7.59 -4.28 -3.12
Si -0.08  8.73 -3.12
Si -7.59  4.39  3.01
Si -7.49  2.11 -5.29
Si  5.63  5.37 -5.35
Si -3.74 -2.15 -8.39
Si -5.62 -3.25  6.85
Si -5.64  7.53  0.79
Si  7.53  2.11 -5.29
Si  3.77 -2.15 -8.39
Si  5.64  3.25  6.85
Si  0.02  4.36 -8.39
Si -7.50 -4.32  3.88
Si -5.64  3.20  6.92
Si  5.64  7.59  0.72
Si -9.40  1.03  0.79
Si  9.40  1.08  0.72
Si  0.02  6.45  6.97
Si  7.53 -4.32  3.88
Si -5.62  5.42 -5.42
Si  5.63 -3.31  6.92
Si  1.89 -7.59 -5.42
Si  0.02  8.69  3.88
Si -1.89 -7.65 -5.35
Si -3.74 -8.73  0.84
Si  3.77 -8.73  0.84
Si  0.02 -6.56  6.97
Si -1.87  7.50 -6.08
Si  1.89  9.67  0.06
Si -5.61 -7.48 -3.11
Si  1.90 -3.14  9.16
Si -3.75 -0.02 -9.14
Si  7.48  2.13  6.10
Si  3.77 -0.02 -9.14
Si  7.48  6.47 -0.03
Si -3.75  8.65 -3.00
Si -9.38  3.16  0.06
Si  3.77  8.65 -3.00
Si -1.87 -3.25 -9.18
Si -1.86 -7.58  6.11
Si  1.89  3.26 -9.18
Si -9.37 -0.97 -3.11
Si -9.38 -3.24 -0.03
Si -5.63  5.33  6.19
Si  1.89 -9.75 -0.03
Si  5.64 -7.58 -3.04
Si -1.85  3.36  9.16
Si  7.48 -6.54 -0.03
Si  5.65  5.43  6.11
Si -7.55  2.13  6.10
Si  9.40 -1.08 -3.04
Si -9.38  1.09  3.09
Si  7.48 -2.21 -6.17
Si -5.62 -5.41 -6.16
Si -7.55  6.47 -0.03
Si -5.62  7.59  3.09
Si  1.90 -3.14 -9.24
Si -1.86  9.77 -0.03
Si  9.41  3.26 -0.03
Si  5.64 -5.51 -6.08
Si -1.87 -3.25  9.23
Si  9.41  1.19  3.02
Si  1.89  3.26  9.23
Si  1.89  7.60 -6.16
Si -3.75 -8.70  3.13
Si  9.40 -3.35  0.06
Si  3.77 -8.70  3.13
Si -7.55 -6.54 -0.03
Si -3.75 -0.02  9.27
Si -7.55 -2.21 -6.17
Si  3.77 -0.02  9.27
Si -1.85  3.36 -9.24
Si  5.66  7.70  3.02
Si -1.87 -9.85  0.06
Si  1.89 -7.68  6.19
Si  5.63 -7.49  3.78
Si  1.87 -9.66 -2.35
Si  0.02 -2.10  9.93
Si  3.75  6.47  6.86
Si -7.50 -6.43 -2.34
Si -3.76  6.47  6.86
Si -1.89  1.18  9.92
Si  9.38 -0.99  3.78
Si -1.89 -5.42 -8.39
Si -5.64  1.08 -8.39
Si  7.51 -0.04  6.86
Si  7.53 -6.43 -2.34
Si -7.51 -0.04  6.86
Si  9.38 -3.25 -2.26
Si -0.00  8.64 -5.40
Si -9.40 -3.15 -2.35
Si  1.87 -5.32 -8.49
Si  1.87  9.76 -2.26
Si -1.89 -9.76 -2.26
Si -9.40  3.25 -2.26
Si  3.75 -6.54  6.86
Si -3.76 -6.54  6.86
Si -5.64 -7.59  3.88
Si -9.40 -1.08  3.88
Si  7.51 -4.38 -5.40
Si  9.38  3.35 -2.35
Si -7.51 -4.38 -5.40
Si -3.74  8.75  3.79
Si -7.50  6.58 -2.34
Si  1.87  1.08 10.01
Si  5.63  1.18 -8.49
Si  3.77  8.75  3.79
Si -3.74  4.41 -8.47
Si  7.53  6.58 -2.34
Si  3.77  4.41 -8.47
Si -1.89  9.86 -2.35
Si  0.01  8.61  6.14
Si -7.50  4.27 -6.13
Si  7.53  4.27 -6.13
Si -7.50 -4.40  6.14
Si  7.53 -4.40  6.14
Si  0.01 -8.74 -6.13
Si -3.74  8.62 -5.29
Si  3.78  8.62 -5.29
Si  0.02 10.79  0.84
Si -9.38 -5.42  0.72
Si  9.38 -1.14 -5.35
Si -9.38 -1.08 -5.42
Si -5.62 -7.59 -5.42
Si  9.38 -5.48  0.79
Si  5.63 -7.65 -5.35
Si -3.74 -2.15 10.01
Si  3.77 -2.15 10.01
Si  0.01  4.36 10.01
Si  5.64  7.50 -6.08
Si -5.63  9.67  0.06
Si -9.37 -5.31  3.02
Si -5.61 -3.14  9.16
Si  0.01  6.48 -9.14
Si  3.72  8.64  6.10
Si  0.01 -6.53 -9.14
Si 11.23 -0.04 -0.03
Si -3.79  8.64  6.10
Si  9.40  0.99 -6.08
Si -5.62  3.26 -9.18
Si  5.64 -3.25 -9.18
Si -5.62 -9.75 -0.03
Si  5.65 -7.58  6.11
Si -9.38  5.43 -3.04
Si -5.61 -3.14 -9.24
Si  0.01 10.82  3.13
Si  9.41 -1.07  6.11
Si -9.38  1.10 -6.16
Si  0.01 -10.87 -3.00
Si  5.66  3.36  9.16
Si  9.40 -5.42  3.09
Si -5.62  7.60 -6.16
Si  5.65  9.77 -0.03
Si -5.62  3.26  9.23
Si  5.64 -3.25  9.23
Si  3.72 -8.71 -6.17
Si -9.38 -1.18  6.19
Si -11.31 -0.04 -0.03
Si  0.01  6.48  9.27
Si -3.79 -8.71 -6.17
Si  0.01 -6.53  9.27
Si  5.66  3.36 -9.24
Si  5.64 -9.85  0.06
Si  9.41  5.53 -3.11
Si -5.63 -7.68  6.19
Si  1.87 -5.32  9.92
Si  0.02 -10.77  3.79
Si -5.64 -9.66 -2.35
Si  5.63  1.18  9.92
Si  3.75 10.81  0.73
Si -3.76 10.81  0.73
Si  5.63 -5.42 -8.39
Si -1.89  7.59 -8.39
Si  5.63 -9.76 -2.26
Si -3.74  4.41  9.93
Si -11.25  0.07 -2.34
Si -5.64  9.76 -2.26
Si -5.64 -5.32 -8.49
Si  3.77  4.41  9.93
Si 11.27 -2.21  0.73
Si -7.50 -2.10 -8.47
Si -11.27 -2.21  0.73
Si  9.38  5.42  3.88
Si  7.51 -8.71  0.73
Si 11.29  0.07 -2.34
Si  7.53 -2.10 -8.47
Si -7.51 -8.71  0.73
Si -9.40  5.52  3.78
Si -0.00 -0.04 -11.54
Si -1.89 -5.42 10.01
Si -5.64  1.08 10.01
Si  5.63  9.86 -2.35
Si  1.87  7.69 -8.49
Si  7.43 -8.62  3.01
Si 11.19 -2.12  3.01
Si  3.67 -6.45  9.15
Si  7.43  0.05  9.15
Si  3.67 -10.79 -3.12
Si 11.19  2.22 -3.12
Si -3.84 -6.45  9.15
Si  3.67  6.56  9.15
Si  3.67 -6.45 -9.25
Si  7.43  0.05 -9.25
Si -3.84 -10.79 -3.12
Si -7.59 -8.62  3.01
Si  7.43  8.73 -3.12
Si  3.67 10.90  3.01
Si -7.59  0.05  9.15
Si -3.84  6.56  9.15
Si -3.84 -6.45 -9.25
Si  3.67  6.56 -9.25
Si -11.35 -2.12  3.01
Si -3.84 10.90  3.01
Si -7.59  0.05 -9.25
Si -3.84  6.56 -9.25
Si -11.35  2.22 -3.12
Si -7.59  8.73 -3.12
Si -3.74 -0.06 -11.43
Si  3.78 -0.06 -11.43
Si  0.01 -8.66 -8.39
Si  9.38  7.53  0.79
Si -9.38  3.25  6.85
Si -1.89  9.70  6.92
Si -11.25  4.28  0.84
Si  1.87  3.20 -11.48
Si -7.50  4.36 -8.39
Si -1.87 -9.76  6.85
Si -9.40  5.37 -5.35
Si  1.89  9.76  6.85
Si  9.40 -3.25  6.85
Si  7.53  4.36 -8.39
Si  9.38  3.20  6.92
Si -9.38  7.59  0.72
Si -3.74 -10.83  3.88
Si  1.89 -11.93  0.72
Si -7.49  6.45  6.97
Si -1.89 -3.31 -11.48
Si  3.77 -10.83  3.88
Si -11.25  2.19  3.88
Si 11.29  4.28  0.84
Si -7.50  8.69  3.88
Si  0.02 -10.90 -5.29
Si  7.53  6.45  6.97
Si 11.28  2.19  3.88
Si  9.40  5.42 -5.42
Si -9.40 -3.31  6.92
Si  7.53  8.69  3.88
Si -1.87  3.25 -11.55
Si  1.89 -3.25 -11.55
Si  1.87 -9.82  6.92
Si -1.89 -11.98  0.79
Si -7.49 -6.56  6.97
Si  7.53 -6.56  6.97
Si  1.90 -11.82  3.02
Si -1.87 -1.18 -12.21
Si  9.41 -7.48 -3.11
Si -1.86  1.09 12.24
Si -0.04 -2.21 12.23
Si -9.38  5.43  6.11
Si -11.26 -4.36 -3.00
Si -9.38 -7.58 -3.04
Si -0.04 10.81 -6.17
Si  9.40  5.33  6.19
Si -11.26  4.31  3.13
Si  1.89 11.93 -3.04
Si -1.87 -11.92  3.09
Si 11.28 -4.36 -3.00
Si -9.38 -5.51 -6.08
Si -0.04 -10.88  6.10
Si  9.40  7.59  3.09
Si 11.28  4.31  3.13
Si  9.41 -5.41 -6.16
Si -0.04  2.13 -12.30
Si  1.89 -1.07 -12.29
Si -9.37  7.70  3.02
Si  1.89  0.99 12.33
Si -1.85 12.04 -3.11
Si -5.64 -5.32  9.92
Si -9.40 -7.49  3.78
Si -7.50 -2.10  9.93
Si -11.25 -4.27  3.79
Si  9.38  1.08 -8.39
Si  7.53 -2.10  9.93
Si  5.63  7.59 -8.39
Si -3.74 -8.60 -8.47
Si 11.29 -4.27  3.79
Si  3.77 -8.60 -8.47
Si  7.51  8.64 -5.40
Si -7.51  8.64 -5.40
Si 11.27  2.13 -5.40
Si  9.38 -7.59  3.88
Si -11.27  2.13 -5.40
Si -1.89 11.93  3.88
Si  1.87  7.69  9.92
Si  5.63 -5.42 10.01
Si -1.89  7.59 10.01
Si  3.75 -10.88 -5.40
Si -3.76 -10.88 -5.40
Si -9.40  1.18 -8.49
Si  1.87 12.03  3.78
Si -5.64  7.69 -8.49
Si  0.01 12.95  0.01
Si -3.74 10.78 -6.13
Si  3.77 10.78 -6.13
Si -7.50  8.61  6.14
Si -11.26  6.44  0.01
Si  7.53  8.61  6.14
Si -3.74  2.10 -12.26
Si 11.28  6.44  0.01
Si -11.26  2.10  6.14
Si  3.77  2.10 -12.26
Si  0.01  4.27 12.28
Si -11.26 -2.23 -6.13
Si 11.28  2.10  6.14
Si  0.01 -4.40 -12.26
Si -3.74 -2.23 12.28
Si 11.28 -2.23 -6.13
Si -11.26 -6.57  0.01
Si  3.77 -2.23 12.28
Si -7.50 -8.74 -6.13
Si 11.28 -6.57  0.01
Si  7.53 -8.74 -6.13
Si -3.74 -10.91  6.14
Si  3.77 -10.91  6.14
Si  0.01 -13.08  0.01
Si  0.02  6.45 -11.43
Si  1.87 11.87 -5.35
Si -7.49 10.79  0.84
Si -1.87 -1.08 12.98
Si  5.63  9.70  6.92
Si  0.02 -6.56 -11.43
Si  7.53 10.79  0.84
Si -5.62  9.76  6.85
Si -11.25 -6.49 -2.26
Si -11.25 -4.39 -5.29
Si -5.64  3.20 -11.48
