500
set: 699.00  0.00  0.00
Si -1.54 -0.39 -0.95
Si  0.12 -1.96  0.68
Si -1.39 -0.33  1.82
Si  1.91  1.85 -0.16
Si  1.85 -0.80  2.03
Si -1.89  1.76 -1.34
Si  1.27 -0.51 -2.63
Si  0.22  1.27  2.76
Si -3.15 -1.79  0.73
Si -0.10 -1.55  3.36
Si  3.65  0.84  0.53
Si  0.07  2.67 -2.96
Si  2.92 -2.75 -0.54
Si -4.02  0.44  0.69
Si  1.02  3.98 -0.25
Si -1.28  3.88  0.68
Si -0.59 -4.07  0.51
Si  2.43  2.04 -2.81
Si  3.13  1.02  2.73
Si -0.83 -1.41 -4.03
Si -3.35  1.30  2.52
Si -1.37  2.79  3.38
Si  3.32 -1.57 -2.80
Si -0.08 -3.50 -3.16
Si -0.65  0.20  4.68
Si  1.87 -4.03  1.82
Si -2.83 -3.92 -0.50
Si -2.83 -0.94  3.87
Si  3.60  3.38  0.73
Si -0.86  4.67 -1.65
Si -1.91 -4.09  2.41
Si  1.52  2.18  4.45
Si  2.77 -1.86  3.99
Si  0.24  4.64  2.37
Si -3.11  3.93 -1.57
Si -3.42 -2.79 -2.95
Si -1.90  2.13 -4.49
Si -3.15  0.39 -4.38
Si  2.41  3.99  2.80
Si -5.30 -1.20 -0.45
Si  5.33 -1.20 -0.45
Si -4.97  2.64  0.49
Si  2.35  0.01 -5.20
Si  2.42 -3.65 -3.73
Si  0.06 -4.34  3.82
Si -4.36 -2.88  2.49
Si  2.19 -5.10 -1.79
Si -3.63  4.56  0.62
Si  2.35  0.01  5.44
Si  5.16 -0.18 -2.91
Si -0.65  0.20 -5.95
Si -5.47 -0.18 -2.91
Si  2.19  5.54 -1.79
Si -0.86 -5.96 -1.65
Si -5.13  2.96 -2.06
Si  5.67  2.64  0.49
Si  5.18 -3.03 -1.92
Si -3.90  3.80  3.28
Si  0.24 -6.00  2.37
Si -5.45 -3.03 -1.92
Si  4.75  1.71 -4.14
Si  5.51  2.96 -2.06
Si -0.59  6.56  0.51
Si -3.26 -2.61 -5.18
Si  4.85 -0.35  4.56
Si  6.62  0.44  0.69
Si  1.52  2.18 -6.19
Si  1.02 -6.66 -0.25
Si -1.90  2.13  6.15
Si -0.83 -1.41  6.60
Si  4.55 -4.81  1.59
Si -3.95  3.45 -4.41
Si -3.26 -2.61  5.45
Si -1.28 -6.75  0.68
Si  5.14  2.44  3.97
Si  0.61  5.03 -4.82
Si -3.15  0.39  6.26
Si  4.34  5.17 -2.04
Si -6.98  0.84  0.53
Si  2.88 -4.50  4.61
Si  1.87  6.60  1.82
Si -3.63 -6.07  0.62
Si -5.29 -2.05 -4.43
Si -5.50  2.44  3.97
Si -1.91  6.55  2.41
Si  5.35 -2.05 -4.43
Si  4.34 -5.46 -2.04
Si -2.83  6.71 -0.50
Si  6.27 -2.88  2.49
Si  0.06  6.29  3.82
Si -5.79 -0.35  4.56
Si  3.58  3.70  5.30
Si -2.83 -0.94 -6.76
Si -5.88  1.71 -4.14
Si  3.58  3.70 -5.34
Si  0.61 -5.61 -4.82
Si  2.77 -1.86 -6.65
Si -0.10 -1.55 -7.27
Si -3.11 -6.71 -1.57
Si  4.55  5.83  1.59
Si  2.41 -6.65  2.80
Si  0.61  5.03  5.82
Si  7.48 -1.79  0.73
Si -5.17 -3.81  4.33
Si  4.85 -0.35 -6.08
Si -0.08  7.14 -3.16
Si  7.29  1.30  2.52
Si -7.04  3.38  0.73
Si -1.37  2.79 -7.26
Si -6.09 -4.81  1.59
Si  5.47 -3.81  4.33
Si  0.22  1.27 -7.87
Si -7.31 -1.57 -2.80
Si -7.50  1.02  2.73
Si  2.88 -4.50 -6.03
Si  0.06 -4.34 -6.81
Si  0.61 -5.61  5.82
Si  1.27 -0.51  8.00
Si  3.60 -7.25  0.73
Si  0.07  2.67  7.68
Si -4.88 -5.10 -4.05
Si -3.95  3.45  6.22
Si  2.42 -3.65  6.91
Si  2.88  6.13  4.61
Si -7.72 -2.75 -0.54
Si  4.75  1.71  6.50
Si -0.08 -3.50  7.47
Si  2.42  6.99 -3.73
Si  7.22 -2.79 -2.95
Si  7.01  4.56  0.62
Si  6.73  3.80  3.28
Si -5.79 -0.35 -6.08
Si -6.30  5.17 -2.04
Si -5.29 -2.05  6.20
Si -4.88  5.53 -4.05
Si  2.92  7.89 -0.54
Si  5.35 -2.05  6.20
Si  2.43  2.04  7.83
Si  0.07 -7.97 -2.96
Si -3.90 -6.83  3.28
Si  3.13  1.02 -7.91
Si -6.09  5.83  1.59
Si -6.30 -5.46 -2.04
Si  7.53  3.93 -1.57
Si -1.37 -7.85  3.38
Si  3.32 -1.57  7.84
Si  7.49  0.39 -4.38
Si  5.76 -5.10 -4.05
Si  0.12  8.67  0.68
Si  6.68  3.45 -4.41
Si  7.81 -3.92 -0.50
Si  5.14  2.44 -6.66
Si  7.80 -0.94  3.87
Si  1.85 -0.80 -8.61
Si -3.42 -2.79  7.68
Si -3.35  1.30 -8.11
Si -8.21  2.04 -2.81
Si -8.72  1.85 -0.16
Si -5.88  1.71  6.50
Si -1.39 -0.33 -8.82
Si  5.76  5.53 -4.05
Si -5.50  2.44 -6.66
Si  1.91 -8.79 -0.16
Si -5.17 -3.81 -6.31
Si -7.87 -1.86  3.99
Si  8.74  1.76 -1.34
Si -8.79 -0.80  2.03
Si -3.42  7.85 -2.95
Si  2.88  6.13 -6.03
Si  2.41  3.99 -7.84
Si  9.10 -0.39 -0.95
Si -3.90  3.80 -7.36
Si -1.89 -8.88 -1.34
Si  5.47 -3.81 -6.31
Si -4.36  7.76  2.49
Si  0.06  6.29 -6.81
Si  5.16 -0.18  7.72
Si  7.01 -6.07  0.62
Si -3.95 -7.19 -4.41
Si  2.43 -8.60 -2.81
Si -1.91 -4.09 -8.22
Si  7.38 -2.61 -5.18
Si  5.18  7.60 -1.92
Si -3.15  8.84  0.73
Si -4.97 -8.00  0.49
Si  9.25 -0.33  1.82
Si  3.58 -6.93  5.30
Si  3.58 -6.93 -5.34
Si -5.13 -7.68 -2.06
Si -5.47 -0.18  7.72
Si  0.24  4.64 -8.27
Si  7.38 -2.61  5.45
Si -5.45  7.60 -1.92
Si -8.22  3.99  2.80
Si -7.06  3.70  5.30
Si -7.06  3.70 -5.34
Si -5.17  6.83  4.33
Si -1.89  1.76  9.30
Si -4.88 -5.10  6.59
Si  1.52 -8.45  4.45
Si  5.51 -7.68 -2.06
Si -4.36 -2.88 -8.14
Si -0.10  9.08  3.36
Si -8.22 -3.65 -3.73
Si -9.36 -0.51 -2.63
Si  6.68  3.45  6.22
Si  5.47  6.83  4.33
Si  0.22 -9.36  2.76
Si  7.49  0.39  6.26
Si -8.29  0.01 -5.20
Si -1.90 -8.51 -4.49
Si  5.67 -8.00  0.49
Si -1.54 -0.39  9.69
Si -8.77 -4.03  1.82
Si  1.87 -4.03 -8.81
Si -4.88  5.53  6.59
Si -8.29  0.01  5.44
Si  8.73 -4.09  2.41
Si -8.44 -5.10 -1.79
Si  2.77  8.78  3.99
Si  8.74  2.13 -4.49
Si  3.32  9.06 -2.80
Si -7.75 -4.50  4.61
Si -3.26  8.03 -5.18
Si -0.83  9.23 -4.03
Si  2.42  6.99  6.91
Si  5.76 -5.10  6.59
Si -7.04 -7.25  0.73
Si  6.73 -6.83  3.28
Si  0.12 -1.96 -9.96
Si  9.35  3.88  0.68
Si -0.86  4.67  8.98
Si  7.53 -6.71 -1.57
Si  1.85  9.84  2.03
Si  0.24 -6.00 -8.27
Si -3.26  8.03  5.45
Si -3.35 -9.34  2.52
Si  9.26  2.79  3.38
Si -8.44  5.54 -1.79
Si  6.27  7.76  2.49
Si -3.95 -7.19  6.22
Si  7.81  6.71 -0.50
Si -0.08  7.14  7.47
Si  5.76  5.53  6.59
Si -3.11  3.93  9.06
Si  7.80 -0.94 -6.76
Si -9.12  2.18  4.45
Si -1.54 10.24 -0.95
Si -9.61  3.98 -0.25
Si -5.13  2.96  8.57
Si  2.19 -5.10  8.85
Si  5.14 -8.19  3.97
Si -7.87 -1.86 -6.65
Si  3.65 -9.80  0.53
Si  3.13 -9.62  2.73
Si  1.27 10.13 -2.63
Si -3.15 -1.79 -9.90
Si  2.41 -6.65 -7.84
Si -1.39 10.30  1.82
Si  5.18 -3.03  8.72
Si  1.52 -8.45 -6.19
Si  5.51  2.96  8.57
Si -5.50 -8.19  3.97
Si -5.17  6.83 -6.31
Si  2.19  5.54  8.85
Si -1.90 -8.51  6.15
Si  6.73  3.80 -7.36
Si  6.27 -2.88 -8.14
Si -1.91  6.55 -8.22
Si  9.81 -1.41 -4.03
Si -10.51 -1.96  0.68
Si -5.45 -3.03  8.72
Si -4.02  0.44 -9.94
Si -1.28  3.88 -9.95
Si  6.68 -7.19 -4.41
Si -3.90 -6.83 -7.36
Si  3.65  0.84 -10.10
Si -1.37 -7.85 -7.26
Si  5.47  6.83 -6.31
Si -7.75 -4.50 -6.03
Si  1.91  1.85 10.47
Si -0.86 -5.96  8.98
Si -2.83  9.70  3.87
Si -5.30  9.44 -0.45
Si -7.31 -1.57  7.84
Si  5.33  9.44 -0.45
Si -10.42  1.27  2.76
Si 10.05 -4.07  0.51
Si  2.92 -2.75 10.09
Si  8.74  2.13  6.15
Si -7.75  6.13  4.61
Si  7.22 -2.79  7.68
Si  4.75 -8.93 -4.14
Si -0.59 -4.07 -10.12
Si  4.34  5.17  8.60
Si -8.22 -6.65  2.80
Si -7.50  1.02 -7.91
Si 10.76 -1.96  0.68
Si  9.78  4.67 -1.65
Si -4.02 -10.20  0.69
Si  7.29  1.30 -8.11
Si -5.29  8.58 -4.43
Si  9.99  0.20  4.68
Si  5.35  8.58 -4.43
Si -7.72  7.89 -0.54
Si  0.07 -7.97  7.68
Si  7.22  7.85 -2.95
Si  3.60  3.38 -9.91
Si  4.34 -5.46  8.60
Si  1.91  1.85 -10.80
Si -8.77  6.60  1.82
Si  1.87  6.60 -8.81
Si  1.02  3.98 10.38
Si 10.54 -1.55  3.36
Si -1.54 -11.03 -0.95
Si  8.73  6.55  2.41
Si -1.39 -10.97  1.82
Si  4.55 -4.81 -9.05
Si -7.06 -6.93  5.30
Si -2.83 -3.92 10.13
Si -9.12  2.18 -6.19
Si -7.06 -6.93 -5.34
Si 10.86  1.27  2.76
Si -10.57  2.67 -2.96
Si -8.22 -3.65  6.91
Si -10.73 -1.55  3.36
Si  2.77  8.78 -6.65
Si -0.83  9.23  6.60
Si -8.22  6.99 -3.73
Si 10.71  2.67 -2.96
Si -0.65 -10.44  4.68
Si -5.88 -8.93 -4.14
Si  0.12 -1.96 11.31
Si -3.42  7.85  7.68
Si  1.27 -11.14 -2.63
Si -8.21  2.04  7.83
Si -5.30 -1.20 10.19
Si  9.35 -6.75  0.68
Si 10.55 -3.50 -3.16
Si  5.33 -1.20 10.19
Si  9.78 -5.96 -1.65
Si -7.75  6.13 -6.03
Si -3.15 -10.25 -4.38
Si -3.63  4.56 -10.02
Si -4.97  2.64 -10.14
Si  7.48  8.84  0.73
Si  6.68 -7.19  6.22
Si  9.99  0.20 -5.95
Si -10.40  4.64  2.37
Si  1.02  3.98 -10.89
Si -0.10  9.08 -7.27
Si  4.55  5.83 -9.05
Si -1.54 -0.39 -11.58
Si -3.11 -6.71  9.06
Si -9.61 -6.66 -0.25
Si -10.72 -3.50 -3.16
Si  5.14 -8.19 -6.66
Si  1.85 -11.43  2.03
Si  3.65  0.84 11.17
Si -4.02 11.07  0.69
Si -0.65 10.84  4.68
Si -5.29  8.58  6.20
Si -6.30  5.17  8.60
Si  5.35  8.58  6.20
Si  2.92 -2.75 -11.18
Si  2.43 -8.60  7.83
Si -0.59 -4.07 11.15
Si -5.50 -8.19 -6.66
Si  9.81 -1.41  6.60
Si  5.67  2.64 -10.14
Si -6.09 -4.81 -9.05
Si -3.15 -1.79 11.37
Si -11.22 -4.07  0.51
Si  6.62  0.44 -9.94
Si -7.31  9.06 -2.80
Si -6.30 -5.46  8.60
Si 10.05  6.56  0.51
Si  5.16 10.46 -2.91
Si  4.75 -8.93  6.50
Si -4.02  0.44 11.33
Si -0.65 -10.44 -5.95
Si -1.28  3.88 11.32
Si -8.22  3.99 -7.84
Si -6.98 -9.80  0.53
Si -10.57 -4.34  3.82
Si  3.65 11.47  0.53
Si 10.87  4.64  2.37
Si  2.35 -10.62 -5.20
Si -4.36  7.76 -8.14
Si  7.38  8.03 -5.18
Si -0.59  6.56 -10.12
Si  2.35 10.65 -5.20
Si  6.73 -6.83 -7.36
Si -1.28 -6.75 -9.95
Si  9.26  2.79 -7.26
Si  7.29 -9.34  2.52
Si -2.83 -3.92 -11.14
Si -2.83  9.70 -6.76
Si -5.47 10.46 -2.91
Si 10.70 -4.34  3.82
Si  2.35 -10.62  5.44
Si -12.02 -0.33  1.82
Si  6.62 -10.20  0.69
Si  2.35 10.65  5.44
Si  7.38  8.03  5.45
Si -10.03  5.03 -4.82
Si 11.91 -0.51 -2.63
Si -8.21 -8.60 -2.81
Si -11.28  0.20  4.68
Si -12.18 -0.39 -0.95
Si  0.22 11.91  2.76
Si -11.46 -1.41 -4.03
Si  0.22 -9.36 -7.87
Si -10.40 -6.00  2.37
Si -1.89  1.76 -11.97
Si  4.85 10.29  4.56
Si -3.63 -6.07 -10.02
Si -3.15 11.02 -4.38
Si -6.98  0.84 -10.10
Si 11.66  3.98 -0.25
Si -9.36 -0.51  8.00
Si -8.79 -0.80 -8.61
Si  5.16 -10.81 -2.91
Si -5.30 -1.20 -11.08
Si  5.33 -1.20 -11.08
Si -6.09  5.83 -9.05
Si  3.13 11.65  2.73
Si  1.02 -6.66 10.38
Si -0.65 10.84 -5.95
Si -8.72 -8.79 -0.16
Si  3.60  3.38 11.36
Si -3.15 -10.25  6.26
Si  7.53  3.93  9.06
Si  3.32  9.06  7.84
Si -7.87  8.78  3.99
Si -10.03 -5.61 -4.82
Si -5.47 -10.81 -2.91
Si -4.97  2.64 11.13
Si -2.83  6.71 10.13
Si -7.50 -9.62  2.73
Si -5.88 -8.93  6.50
Si -11.49  4.67 -1.65
Si  8.74 -8.88 -1.34
Si -2.83 -11.58  3.87
Si -1.39 -0.33 12.45
Si  7.48 -1.79 -9.90
Si -11.92  3.88  0.68
Si -5.13 -7.68  8.57
Si  9.26 -7.85  3.38
Si -1.89 12.40 -1.34
Si -7.04  3.38 -9.91
Si  0.12 -12.60  0.68
Si  1.91 12.48 -0.16
Si -10.03  5.03  5.82
Si 10.87 -6.00  2.37
Si -0.10 -12.19  3.36
Si -3.35 11.93  2.52
Si -5.79 10.29  4.56
Si 12.48 -0.80  2.03
Si  8.73 -4.09 -8.22
Si  5.18  7.60  8.72
Si -3.63  4.56 11.26
Si 12.55  1.85 -0.16
Si -12.53  1.76 -1.34
Si -0.83 -12.04 -4.03
Si -11.28  0.20 -5.95
Si  5.51 -7.68  8.57
Si  5.67  2.64 11.13
Si -12.01  2.79  3.38
Si  9.25 -0.33 -8.82
Si -5.45  7.60  8.72
Si  3.60 -7.25 -9.91
Si  1.02 -6.66 -10.89
Si -8.22  6.99  6.91
Si -3.35 -9.34 -8.11
Si  1.85 -0.80 12.66
Si  3.13 -9.62 -7.91
Si  4.85 -10.98  4.56
Si -3.15 -12.43  0.73
Si -10.03 -5.61  5.82
Si  6.27  7.76 -8.14
Si  8.74  1.76  9.30
Si -10.57  6.29  3.82
Si  4.85 10.29 -6.08
Si 10.54 -1.55 -7.27
Si  6.62 11.07  0.69
Si -0.59  6.56 11.15
Si  3.32 -12.21 -2.80
Si  1.27 10.13  8.00
Si -5.30 -11.84 -0.45
Si 10.70  6.29  3.82
Si  5.33 -11.84 -0.45
Si -1.89 -8.88  9.30
Si  8.74 -8.51 -4.49
Si -7.72 -2.75 10.09
Si -11.22  6.56  0.51
Si  7.80  9.70  3.87
Si  7.01  4.56 -10.02
Si -11.49 -5.96 -1.65
Si -3.15 11.02  6.26
