500
set: 605.00  0.00  0.00
Si  0.63 -1.38  1.10
Si -0.63  1.38 -1.10
Si  1.45  0.90  1.10
Si -1.45 -0.90 -1.10
Si  2.40 -0.90 -1.10
Si -2.40  0.90  1.10
Si -0.58  0.15  2.78
Si  0.58 -0.15 -2.78
Si -3.22 -1.38  1.10
Si  3.22  1.38 -1.10
Si  0.25  2.42  2.78
Si -0.25 -2.42 -2.78
Si  1.57 -3.17 -1.10
Si -1.57  3.17  1.10
Si -1.41 -2.13  2.78
Si  1.41  2.13 -2.78
Si -0.20 -3.65  1.10
Si  0.20  3.65 -1.10
Si  2.28  3.17  1.10
Si -2.28 -3.17 -1.10
Si -2.44  2.13 -2.78
Si  2.44 -2.13  2.78
Si  3.27  0.15  2.78
Si -3.27 -0.15 -2.78
Si -4.48  1.38 -1.10
Si  4.48 -1.38  1.10
Si  3.60 -2.42 -2.78
Si -3.60  2.42  2.78
Si  1.50 -0.33  4.97
Si -1.50  0.33 -4.97
Si  4.43 -0.15 -2.78
Si -4.43  0.15  2.78
Si  3.65 -3.65  1.10
Si -3.65  3.65 -1.10
Si  1.61 -4.40  2.78
Si -1.61  4.40 -2.78
Si -5.30 -0.90 -1.10
Si  5.30  0.90  1.10
Si  4.10  2.42  2.78
Si -4.10 -2.42 -2.78
Si -2.35 -0.33  4.97
Si  2.35  0.33 -4.97
Si -1.52  1.94  4.97
Si  1.52 -1.94 -4.97
Si  1.07  4.70  2.78
Si -1.07 -4.70 -2.78
Si  4.05  3.65 -1.10
Si -4.05 -3.65  1.10
Si -0.74  5.44  1.10
Si  0.74 -5.44 -1.10
Si -0.67  2.61 -4.97
Si  0.67 -2.61  4.97
Si -2.24 -4.40  2.78
Si  2.24  4.40 -2.78
Si -2.33 -1.94 -4.97
Si  2.33  1.94  4.97
Si -1.03 -5.93  1.10
Si  1.03  5.93 -1.10
Si -2.78  4.70  2.78
Si  2.78 -4.70 -2.78
Si  5.26  2.13 -2.78
Si -5.26 -2.13  2.78
Si -3.11 -5.44 -1.10
Si  3.11  5.44  1.10
Si  5.42 -3.17 -1.10
Si -5.42  3.17  1.10
Si -6.25  0.90  1.10
Si  6.25 -0.90 -1.10
Si  3.18  2.61 -4.97
Si -3.18 -2.61  4.97
Si  0.70 -4.21 -4.97
Si -0.70  4.21  4.97
Si -2.82  5.93 -1.10
Si  2.82 -5.93  1.10
Si  0.54  1.08 -6.65
Si -0.54 -1.08  6.65
Si  0.29  1.19  6.65
Si -0.29 -1.19 -6.65
Si  0.16  4.88 -4.97
Si -0.16 -4.88  4.97
Si -6.13 -3.17 -1.10
Si  6.13  3.17  1.10
Si -6.29  2.13 -2.78
Si  6.29 -2.13  2.78
Si -4.59  5.44  1.10
Si  4.59 -5.44 -1.10
Si -4.52  2.61 -4.97
Si  4.52 -2.61  4.97
Si -3.15 -4.21 -4.97
Si  3.15  4.21  4.97
Si -0.79  6.67 -2.78
Si  0.79 -6.67  2.78
Si  7.07  1.38 -1.10
Si -7.07 -1.38  1.10
Si  5.35 -0.33  4.97
Si -5.35  0.33 -4.97
Si  4.92  4.70  2.78
Si -4.92 -4.70 -2.78
Si -3.31  1.08 -6.65
Si  3.31 -1.08  6.65
Si  5.46 -4.40  2.78
Si -5.46  4.40 -2.78
Si -5.37  1.94  4.97
Si  5.37 -1.94 -4.97
Si -1.36 -3.36  6.65
Si  1.36  3.36 -6.65
Si -1.12 -3.47 -6.65
Si  1.12  3.47  6.65
Si  3.56 -1.19 -6.65
Si -3.56  1.19  6.65
Si  7.12  0.15  2.78
Si -7.12 -0.15 -2.78
Si -1.90 -6.97 -2.78
Si  1.90  6.97  2.78
Si -1.95  6.97  2.78
Si  1.95 -6.97 -2.78
Si -4.88 -5.93  1.10
Si  4.88  5.93 -1.10
Si  0.09  7.72  1.10
Si -0.09 -7.72 -1.10
Si  3.06  6.67 -2.78
Si -3.06 -6.67  2.78
Si -2.48  3.36 -6.65
Si  2.48 -3.36  6.65
Si  3.69 -4.88  4.97
Si -3.69  4.88 -4.97
Si  4.14  1.19  6.65
Si -4.14 -1.19 -6.65
Si  4.55 -4.21 -4.97
Si -4.55  4.21  4.97
Si  6.20  0.33 -4.97
Si -6.20 -0.33  4.97
Si  2.73 -3.47 -6.65
Si -2.73  3.47  6.65
Si -6.09 -4.40  2.78
Si  6.09  4.40 -2.78
Si  4.01  4.88 -4.97
Si -4.01 -4.88  4.97
Si  4.39  1.08 -6.65
Si -4.39 -1.08  6.65
Si  6.18  1.94  4.97
Si -6.18 -1.94 -4.97
Si -0.13 -6.49 -4.97
Si  0.13  6.49  4.97
Si -7.45  2.42  2.78
Si  7.45 -2.42 -2.78
Si  7.50 -3.65  1.10
Si -7.50  3.65 -1.10
Si -1.86 -8.20  1.10
Si  1.86  8.20 -1.10
Si -1.99  8.20 -1.10
Si  1.99 -8.20  1.10
Si  8.33 -1.38  1.10
Si -8.33  1.38 -1.10
Si  6.63 -4.70 -2.78
Si -6.63  4.70  2.78
Si -4.63  6.67 -2.78
Si  4.63 -6.67  2.78
Si -3.76  7.72  1.10
Si  3.76 -7.72 -1.10
Si  3.94  7.72  1.10
Si -3.94 -7.72 -1.10
Si  8.28 -0.15 -2.78
Si -8.28  0.15  2.78
Si  7.95  2.42  2.78
Si -7.95 -2.42 -2.78
Si  0.98  7.16 -4.97
Si -0.98 -7.16  4.97
Si -7.90 -3.65  1.10
Si  7.90  3.65 -1.10
Si  1.66 -5.63  6.65
Si -1.66  5.63 -6.65
Si -6.96 -5.44 -1.10
Si  6.96  5.44  1.10
Si -3.72  6.49  4.97
Si  3.72 -6.49 -4.97
Si  2.19  5.63 -6.65
Si -2.19 -5.63  6.65
Si  6.67 -5.93  1.10
Si -6.67  5.93 -1.10
Si -1.91  5.74  6.65
Si  1.91 -5.74 -6.65
Si  7.03  2.61 -4.97
Si -7.03 -2.61  4.97
Si -4.97 -3.47 -6.65
Si  4.97  3.47  6.65
Si  1.48 -0.71 -8.85
Si -1.48  0.71  8.85
Si  1.95  5.74  6.65
Si -1.95 -5.74 -6.65
Si  3.98  6.49  4.97
Si -3.98 -6.49 -4.97
Si -5.21 -3.36  6.65
Si  5.21  3.36 -6.65
Si  1.54 -1.56  8.85
Si -1.54  1.56 -8.85
Si  2.87 -7.16  4.97
Si -2.87  7.16 -4.97
Si -2.37 -0.71 -8.85
Si  2.37  0.71  8.85
Si  9.15  0.90  1.10
Si -9.15 -0.90 -1.10
Si -2.31 -1.56  8.85
Si  2.31  1.56 -8.85
Si  0.65 -2.98 -8.85
Si -0.65  2.98  8.85
Si -0.04 -8.95  2.78
Si  0.04  8.95 -2.78
Si  5.75  6.97  2.78
Si -5.75 -6.97 -2.78
Si -5.80  6.97  2.78
Si  5.80 -6.97 -2.78
Si -7.00 -4.21 -4.97
Si  7.00  4.21  4.97
Si  0.71 -3.84  8.85
Si -0.71  3.84 -8.85
Si -1.12  9.24  2.78
Si  1.12 -9.24 -2.78
Si -9.11 -2.13  2.78
Si  9.11  2.13 -2.78
Si  6.33 -3.36  6.65
Si -6.33  3.36 -6.65
Si  7.16 -1.08  6.65
Si -7.16  1.08 -6.65
Si  9.27 -3.17 -1.10
Si -9.27  3.17  1.10
Si  3.20  2.98  8.85
Si -3.20 -2.98 -8.85
Si -4.83 -7.16  4.97
Si  4.83  7.16 -4.97
Si -6.58  3.47  6.65
Si  6.58 -3.47 -6.65
Si -6.92 -6.67  2.78
Si  6.92  6.67 -2.78
Si -7.41  1.19  6.65
Si  7.41 -1.19 -6.65
Si -2.73 -9.24 -2.78
Si  2.73  9.24  2.78
Si -5.71 -8.20  1.10
Si  5.71  8.20 -1.10
Si  8.37 -2.61  4.97
Si -8.37  2.61 -4.97
Si -0.91 -9.99 -1.10
Si  0.91  9.99  1.10
Si  8.44 -5.44 -1.10
Si -8.44  5.44  1.10
Si  3.81 -8.95  2.78
Si -3.81  8.95 -2.78
Si  0.96  8.76  4.97
Si -0.96 -8.76 -4.97
Si  5.84 -8.20  1.10
Si -5.84  8.20 -1.10
Si  3.14  3.84 -8.85
Si -3.14 -3.84  8.85
Si -3.89 -8.95  2.78
Si  3.89  8.95 -2.78
Si 10.10 -0.90 -1.10
Si -10.10  0.90  1.10
Si -7.54  4.88 -4.97
Si  7.54 -4.88  4.97
Si  0.17  5.26  8.85
Si -0.17 -5.26 -8.85
Si -5.51  5.63 -6.65
Si  5.51 -5.63  6.65
Si  8.77  4.70  2.78
Si -8.77 -4.70 -2.78
Si -5.33  0.71  8.85
Si  5.33 -0.71 -8.85
Si -0.83  7.90 -6.65
Si  0.83 -7.90  6.65
Si  4.50 -2.98 -8.85
Si -4.50  2.98  8.85
Si -9.20  0.33 -4.97
Si  9.20 -0.33  4.97
Si -7.99 -1.19 -6.65
Si  7.99  1.19  6.65
Si  1.08 -8.01 -6.65
Si -1.08  8.01  6.65
Si  2.94 -9.99 -1.10
Si -2.94  9.99  1.10
Si  5.39 -1.56  8.85
Si -5.39  1.56 -8.85
Si  2.89 -8.76 -4.97
Si -2.89  8.76  4.97
Si  7.86  4.88 -4.97
Si -7.86 -4.88  4.97
Si  5.75 -5.74 -6.65
Si -5.75  5.74  6.65
Si  5.79  5.74  6.65
Si -5.79 -5.74 -6.65
Si  9.98  3.17  1.10
Si -9.98 -3.17 -1.10
Si  0.33 -0.04 10.53
Si -0.33  0.04 -10.53
Si  1.17 -10.47  1.10
Si -1.17 10.47 -1.10
Si  6.04  5.63 -6.65
Si -6.04 -5.63  6.65
Si -8.73 -5.93  1.10
Si  8.73  5.93 -1.10
Si  8.40 -4.21 -4.97
Si -8.40  4.21  4.97
Si  8.24  1.08 -6.65
Si -8.24 -1.08  6.65
Si -9.22  1.94  4.97
Si  9.22 -1.94 -4.97
Si -9.31  4.40 -2.78
Si  9.31 -4.40  2.78
Si -4.57  3.84 -8.85
Si  4.57 -3.84  8.85
Si 10.14 -2.13  2.78
Si -10.14  2.13 -2.78
Si  0.11  6.11 -8.85
Si -0.11 -6.11  8.85
Si  3.02  7.90 -6.65
Si -3.02 -7.90  6.65
Si  2.77  8.01  6.65
Si -2.77 -8.01 -6.65
Si -0.49 -2.31 10.53
Si  0.49  2.31 -10.53
Si -1.81 -9.43  4.97
Si  1.81  9.43 -4.97
Si  1.16  2.23 10.53
Si -1.16 -2.23 -10.53
Si -6.22 -0.71 -8.85
Si  6.22  0.71  8.85
Si  2.04 -9.43  4.97
Si -2.04  9.43 -4.97
Si  4.97 -9.24 -2.78
Si -4.97  9.24  2.78
Si  2.69 10.47 -1.10
Si -2.69 -10.47  1.10
Si -6.16 -1.56  8.85
Si  6.16  1.56 -8.85
Si  7.61 -7.72 -1.10
Si -7.61  7.72  1.10
Si  3.67 -5.26 -8.85
Si -3.67  5.26  8.85
Si -6.71  7.16 -4.97
Si  6.71 -7.16  4.97
Si  7.79  7.72  1.10
Si -7.79 -7.72 -1.10
Si -4.03 -5.26 -8.85
Si  4.03  5.26  8.85
Si -10.92 -1.38  1.10
Si 10.92  1.38 -1.10
Si -2.69  2.23 10.53
Si  2.69 -2.23 -10.53
Si -3.52 -0.04 10.53
Si  3.52  0.04 -10.53
Si -4.76 -9.99 -1.10
Si  4.76  9.99  1.10
Si -7.57  6.49  4.97
Si  7.57 -6.49 -4.97
Si  8.48 -6.67  2.78
Si -8.48  6.67 -2.78
Si -4.81 -8.76 -4.97
Si  4.81  8.76  4.97
Si  9.94  4.40 -2.78
Si -9.94 -4.40  2.78
Si 10.05  0.33 -4.97
Si -10.05 -0.33  4.97
Si -3.36  2.31 -10.53
Si  3.36 -2.31 10.53
Si -10.97 -0.15 -2.78
Si 10.97  0.15  2.78
Si  7.83  6.49  4.97
Si -7.83 -6.49 -4.97
Si -4.18  0.04 -10.53
Si  4.18 -0.04 10.53
Si -4.68  7.90 -6.65
Si  4.68 -7.90  6.65
Si -10.03 -1.94 -4.97
Si 10.03  1.94  4.97
Si  3.74 -6.11  8.85
Si -3.74  6.11 -8.85
Si  3.96  6.11 -8.85
Si -3.96 -6.11  8.85
Si  4.93 -8.01 -6.65
Si -4.93  8.01  6.65
Si  1.32  4.59 -10.53
Si -1.32 -4.59 10.53
Si -8.82 -3.47 -6.65
Si  8.82  3.47  6.65
Si  0.87 11.22 -2.78
Si -0.87 -11.22  2.78
Si  1.86 -4.51 -10.53
Si -1.86  4.51 10.53
Si  4.34  2.31 -10.53
Si -4.34 -2.31 10.53
Si -1.99 -4.51 -10.53
Si  1.99  4.51 10.53
Si -1.00 -7.53 -8.85
Si  1.00  7.53  8.85
Si -5.01 10.47 -1.10
Si  5.01 -10.47  1.10
Si  6.58  9.24  2.78
Si -6.58 -9.24 -2.78
Si  7.05  2.98  8.85
Si -7.05 -2.98 -8.85
Si -9.06 -3.36  6.65
Si  9.06  3.36 -6.65
Si  2.53 -4.59 10.53
Si -2.53  4.59 -10.53
Si -10.48  4.70  2.78
Si 10.48 -4.70 -2.78
Si -0.29 11.52  2.78
Si  0.29 -11.52 -2.78
Si -5.01 -2.23 -10.53
Si  5.01  2.23 10.53
Si 11.30 -2.42 -2.78
Si -11.30  2.42  2.78
Si -6.99 -3.84  8.85
Si  6.99  3.84 -8.85
Si -2.98 11.22 -2.78
Si  2.98 -11.22  2.78
Si  2.85 -7.53 -8.85
Si -2.85  7.53  8.85
Si -11.35  3.65 -1.10
Si 11.35 -3.65  1.10
Si  5.66  9.43 -4.97
Si -5.66 -9.43  4.97
Si -7.66  8.95 -2.78
Si  7.66 -8.95  2.78
Si  6.74 -8.76 -4.97
Si -6.74  8.76  4.97
Si -10.52  5.93 -1.10
Si 10.52 -5.93  1.10
Si  6.79 -9.99 -1.10
Si -6.79  9.99  1.10
Si -10.81 -5.44 -1.10
Si 10.81  5.44  1.10
Si  7.74  8.95 -2.78
Si -7.74 -8.95  2.78
Si  0.00 -10.18  6.65
Si -0.00 10.18 -6.65
Si  5.89 -9.43  4.97
Si -5.89  9.43 -4.97
Si -9.60 -6.97 -2.78
Si  9.60  6.97  2.78
Si  9.65 -6.97 -2.78
Si -9.65  6.97  2.78
Si  0.94  8.39 -8.85
Si -0.94 -8.39  8.85
Si -1.79 -11.04 -4.97
Si  1.79 11.04  4.97
Si 10.88  2.61 -4.97
Si -10.88 -2.61  4.97
Si -0.25 10.29  6.65
Si  0.25 -10.29 -6.65
Si  2.06 -11.04 -4.97
Si -2.06 11.04  4.97
Si  8.69  7.16 -4.97
Si -8.69 -7.16  4.97
Si -12.18  1.38 -1.10
Si 12.18 -1.38  1.10
Si  6.62  8.01  6.65
Si -6.62 -8.01 -6.65
Si 11.75  3.65 -1.10
Si -11.75 -3.65  1.10
Si -11.80 -2.42 -2.78
Si 11.80  2.42  2.78
Si -3.56 -11.52 -2.78
Si  3.56 11.52  2.78
Si -6.54 -10.47  1.10
Si  6.54 10.47 -1.10
Si -6.87 -7.90  6.65
Si  6.87  7.90 -6.65
Si -1.74 -12.27 -1.10
Si  1.74 12.27  1.10
Si -12.13  0.15  2.78
Si 12.13 -0.15 -2.78
Si -4.72 -11.22  2.78
Si  4.72 11.22 -2.78
Si -2.11 12.27  1.10
Si  2.11 -12.27 -1.10
Si -8.35  2.98  8.85
Si  8.35 -2.98 -8.85
Si -2.91  8.39 -8.85
Si  2.91 -8.39  8.85
Si -4.14 11.52  2.78
Si  4.14 -11.52 -2.78
Si  1.03 -6.78 -10.53
Si -1.03  6.78 10.53
Si -4.85 -7.53 -8.85
Si  4.85  7.53  8.85
Si -6.54  2.23 10.53
Si  6.54 -2.23 -10.53
Si  5.17  4.59 -10.53
Si -5.17 -4.59 10.53
Si -10.19  3.36 -6.65
Si 10.19 -3.36  6.65
Si  9.56  8.20 -1.10
Si -9.56 -8.20  1.10
Si 10.85  4.21  4.97
Si -10.85 -4.21 -4.97
Si  1.70 -6.86 10.53
Si -1.70  6.86 -10.53
Si  9.69 -8.20  1.10
Si -9.69  8.20 -1.10
