500
set: 277.00  0.00  0.00
Si  0.02  0.02  0.02
Si -0.01  0.00 -2.35
Si -1.91  1.11  0.81
Si  1.92  1.11  0.81
Si  0.01 -2.23  0.83
Si -0.02  2.22 -3.15
Si  3.85 -0.01 -0.06
Si  1.95 -3.33  0.01
Si  1.97  3.31 -0.00
Si  1.89 -1.09 -3.19
Si -1.91  3.37  0.01
Si -1.93 -1.13 -3.16
Si -1.97  1.15  3.14
Si  1.96  1.11  3.17
Si -1.92 -3.38 -0.00
Si -0.02 -2.23  3.18
Si -3.90 -0.01 -0.06
Si  0.00  2.25  3.88
Si  1.93  3.28 -2.39
Si  1.93 -3.33 -2.34
Si -1.93  3.37 -2.34
Si  0.01  4.46  0.80
Si  3.87 -2.23  0.80
Si -3.88 -2.23  0.80
Si  1.93 -1.17  3.94
Si -1.93 -1.08  3.99
Si  3.86  0.00 -2.45
Si -3.89  0.00 -2.45
Si -1.96 -3.41 -2.39
Si -3.85 -2.20  3.15
Si  0.00 -4.45 -3.18
Si  3.90 -2.20  3.15
Si -3.85  2.25 -3.18
Si  0.04  4.49  3.15
Si  3.89  2.25 -3.18
Si  0.01  2.23 -5.50
Si -3.85  4.47  0.83
Si  1.95 -1.13 -5.52
Si  1.95 -5.58  0.81
Si -1.97 -1.13 -5.52
Si -0.01 -4.45  3.99
Si -1.97 -5.59  0.81
Si -5.83  1.11  0.81
Si  3.90  4.47  0.83
Si -3.87  2.25  3.99
Si  3.88  2.25  3.99
Si  5.84  1.11  0.81
Si  1.89 -5.54  3.14
Si -5.78  3.31 -0.00
Si -0.01  2.23  6.28
Si  5.78  1.15  3.14
Si  3.84 -4.48 -3.15
Si -5.80 -3.33  0.01
Si -0.01  6.69 -0.06
Si  1.96  5.56 -3.16
Si -5.79  1.11  3.17
Si -0.04 -6.70 -0.06
Si -1.92  1.07 -6.33
Si -1.93 -5.58  3.17
Si  1.95  1.12 -6.32
Si  3.87  4.46  3.18
Si -1.91 -1.08  6.34
Si  5.82 -1.13 -3.16
Si -3.88  4.46  3.18
Si -3.91 -4.48 -3.15
Si  1.97 -1.14  6.33
Si  5.84  3.37  0.01
Si  5.83 -3.38 -0.00
Si -1.97  5.61 -3.19
Si -5.86 -1.09 -3.19
Si -0.04 -2.25 -6.39
Si  3.86 -4.45  3.88
Si -1.93  5.52  3.94
Si -3.89 -4.45  3.88
Si -5.82  3.28 -2.39
Si -5.82 -3.33 -2.34
Si  3.87  2.22 -5.53
Si -3.88  2.22 -5.53
Si -0.02 -4.47 -5.53
Si  5.82  3.37 -2.34
Si -5.82 -1.17  3.94
Si -0.03 -6.69 -2.45
Si  0.01  0.01  7.13
Si  0.00  6.70 -2.45
Si  5.79 -3.41 -2.39
Si  5.82 -1.08  3.99
Si  1.96  5.61  3.99
Si -3.87 -6.68  0.02
Si  3.88 -6.68  0.02
Si -7.73  0.02  0.02
Si -3.87 -2.23 -6.31
Si -3.84  6.71  0.02
Si  0.02  4.47 -6.31
Si  3.88 -2.23 -6.31
Si  0.02 -4.43  6.35
Si -3.84  2.26  6.35
Si  3.91  6.71  0.02
Si  7.77  0.02  0.02
Si  3.91  2.26  6.35
Si  3.85 -6.69 -2.35
Si  1.92  5.56 -5.52
Si -1.91  5.57 -5.52
Si  5.78 -1.13 -5.52
Si  5.78 -5.59  0.81
Si  3.87 -4.47 -5.50
Si -3.88 -4.47 -5.50
Si -1.94  7.80  0.81
Si  7.74  0.00 -2.35
Si -3.87  6.70 -2.35
Si  3.88  6.70 -2.35
Si -5.80 -1.13 -5.52
Si -5.80 -5.58  0.81
Si -7.74 -2.23  0.83
Si -3.90 -6.69 -2.35
Si  1.98  7.81  0.81
Si -7.76  0.00 -2.35
Si -1.91 -3.34  7.14
Si  1.92 -3.34  7.14
Si  7.76 -2.23  0.83
Si -1.94  3.35  7.14
Si -3.85  0.01  7.16
Si  1.98  3.36  7.14
Si  3.90  0.01  7.16
Si  3.85 -4.46  6.28
Si -3.90 -4.46  6.28
Si -1.89  5.56  6.33
Si -5.79  5.56 -3.16
Si  7.73  2.22 -3.15
Si -1.90  7.81  3.17
Si -5.78 -1.14  6.33
Si -1.94 -5.57 -6.32
Si -2.00 -7.78 -3.19
Si -5.80  1.12 -6.32
Si  7.73 -2.23  3.18
Si -5.86 -5.54  3.14
Si  1.93 -7.83 -3.16
Si  5.78  5.61 -3.19
Si  5.82 -5.58  3.17
Si  1.92  7.85  3.14
Si -7.77  2.22 -3.15
Si  5.83  1.07 -6.33
Si  3.85  4.45 -6.39
Si -7.77 -2.23  3.18
Si  1.94 -5.62 -6.33
Si  5.84 -1.08  6.34
Si  1.98  5.61  6.34
Si -3.90  4.45 -6.39
Si  5.82  5.52  3.94
Si -7.75  2.25  3.88
Si  1.93 -7.78  3.99
Si  7.75  2.25  3.88
Si  1.93  1.13 -8.67
Si -0.02 -8.93  0.80
Si -7.74  4.46  0.80
Si  7.76  4.46  0.80
Si -5.79  5.61  3.99
Si -1.96  1.04 -8.72
Si -1.96 -7.87  3.94
Si -0.03 -2.24 -8.78
Si  0.01 -8.90  3.15
Si -7.71  4.49  3.15
Si -7.74 -4.45 -3.18
Si  0.04  0.04  9.48
Si  7.75 -4.45 -3.18
Si  0.04  8.95 -3.18
Si  0.00  0.01 -9.51
Si  7.78  4.49  3.15
Si -5.77  7.81  0.81
Si -7.74  2.23 -5.50
Si  3.85 -2.24 -8.68
Si -0.01  4.46 -8.68
Si -9.66  1.11  0.81
Si  5.81  7.80  0.81
Si  3.87 -8.92  0.83
Si  9.67  1.11  0.81
Si -3.88 -8.92  0.83
Si  1.89 -7.83 -5.52
Si -5.83  5.56 -5.52
Si -1.94 -7.82 -5.52
Si  7.76  2.23 -5.50
Si -3.90 -2.24 -8.68
Si  5.84  5.57 -5.52
Si  7.74 -4.45  3.99
Si -5.77  3.36  7.14
Si  0.02  8.94  3.99
Si  0.01 -6.68  7.16
Si -7.76 -4.45  3.99
Si  5.81  3.35  7.14
Si -5.83 -3.34  7.14
Si  5.84 -3.34  7.14
Si  0.04  6.71  7.16
Si -1.89 10.01 -0.00
Si  5.75 -7.78 -3.19
Si -1.94 -10.02  0.01
Si  9.64 -1.09 -3.19
Si  7.74  2.23  6.28
Si  1.97  7.77 -6.33
Si  3.87  8.91 -3.15
Si  7.71 -6.70 -0.06
Si -3.88  8.91 -3.15
Si -1.97 -3.30  9.47
Si -7.75  2.23  6.28
Si  3.84 -0.02 -9.48
Si  1.95 -7.78  6.34
Si  3.84 -8.93  3.18
Si -9.66  3.37  0.01
Si  5.81 -5.57 -6.32
Si  7.74  6.69 -0.06
Si -1.91  7.82 -6.32
Si -7.75  6.69 -0.06
Si -9.67 -3.38 -0.00
Si  1.92  3.40  9.47
Si -1.93  3.32 -9.49
Si -5.77  5.61  6.34
Si -9.68 -1.13 -3.16
Si  9.70 -3.33  0.01
Si -1.92 -7.83  6.33
Si -1.90  3.35  9.50
Si -3.91 -0.02 -9.48
Si -3.91 -8.93  3.18
Si -5.82 -7.83 -3.16
Si  5.85  7.81  3.17
Si  1.98 10.06  0.01
Si  1.93 -3.37 -9.49
Si  1.96 -3.34  9.50
Si  5.86  5.56  6.33
Si  1.94 -10.08 -0.00
Si  7.71 -2.25 -6.39
Si -5.83  7.85  3.14
Si  9.72  3.31 -0.00
Si  9.71  1.11  3.17
Si -5.81 -5.62 -6.33
Si  3.87  0.01  9.52
Si -7.79 -6.70 -0.06
Si -9.72  1.15  3.14
Si -3.88  0.01  9.52
Si  1.89  3.36 -9.52
Si -2.00 -3.33 -9.52
Si -7.79 -2.25 -6.39
Si -1.93  9.98 -2.39
Si  0.00 -2.21 10.21
Si -1.96 -10.02 -2.34
Si -3.86  8.94  3.88
Si -1.96 -5.57 -8.67
Si  3.89  8.94  3.88
Si  0.01  8.92 -5.53
Si  9.68  3.28 -2.39
Si  9.68 -3.33 -2.34
Si -5.82 -7.78  3.99
Si  7.73 -4.47 -5.53
Si  7.72 -6.69 -2.45
Si -5.82  1.13 -8.67
Si -1.93  1.07 10.28
Si  3.87 -6.68  7.13
Si -9.68  3.37 -2.34
Si -3.88 -6.68  7.13
Si -3.85  6.71  7.13
Si  5.79  1.04 -8.72
Si  1.96 10.06 -2.34
Si -7.74  0.01  7.13
Si  9.68 -1.17  3.94
Si -9.68 -1.08  3.99
Si -7.75  6.70 -2.45
Si  7.75  6.70 -2.45
Si  5.79 -7.87  3.94
Si -7.77 -4.47 -5.53
Si  3.90  6.71  7.13
Si  7.76  0.01  7.13
Si -7.78 -6.69 -2.45
Si  1.90 -10.11 -2.39
Si -9.71 -3.41 -2.39
Si  1.90 -5.66 -8.72
Si  1.96  1.16 10.32
Si  3.86  4.46 -8.78
Si -3.89  4.46 -8.78
Si -0.01 -8.92 -6.31
Si -7.73  4.47 -6.31
Si -7.73 -4.43  6.35
Si  7.77  4.47 -6.31
Si  7.77 -4.43  6.35
Si  0.05  8.96  6.35
Si -3.85  8.92 -5.50
Si  3.90  8.92 -5.50
Si  0.04 11.16  0.83
Si  5.81 -7.82 -5.52
Si  9.70 -1.13 -5.52
Si  9.70 -5.58  0.81
Si -5.86 -7.83 -5.52
Si -9.72 -1.13 -5.52
Si -3.87 -2.21 10.32
Si -9.72 -5.59  0.81
Si  3.88 -2.21 10.32
Si  0.02  4.49 10.32
Si  9.64 -5.54  3.14
Si -5.78  7.77 -6.33
Si  5.78 -3.30  9.47
Si -3.87  8.93  6.28
Si  5.81 -10.02  0.01
Si  3.88  8.93  6.28
Si -0.02  6.67 -9.48
Si -5.80 -7.78  6.34
Si  5.86 10.01 -0.00
Si -5.77 10.06  0.01
Si 11.60 -0.01 -0.06
Si  0.01 11.16  3.18
Si -0.05 -11.17 -3.15
Si -9.66 -1.08  6.34
Si -9.67  1.07 -6.33
Si  5.75 -3.33 -9.52
Si  5.82  3.32 -9.49
Si -5.79 -3.34  9.50
Si -9.68 -5.58  3.17
Si -0.05 -6.72 -9.48
Si -5.83  3.40  9.47
Si  9.71  5.56 -3.16
Si  5.84  7.82 -6.32
Si  9.70  1.12 -6.32
Si -0.02 -6.69  9.52
Si -5.81 -10.08 -0.00
Si  3.82 -8.94 -6.39
Si  5.83 -7.83  6.33
Si -5.82 -3.37 -9.49
Si  0.01  6.70  9.52
Si -11.64 -0.01 -0.06
Si  5.85  3.35  9.50
Si  9.72 -1.14  6.33
Si -9.72  5.61 -3.19
Si -3.93 -8.94 -6.39
Si -5.86  3.36 -9.52
Si  5.82  9.98 -2.39
Si -0.03 -11.14  3.88
Si -3.86  4.49 10.21
Si  5.79 -10.02 -2.34
Si  3.89  4.49 10.21
Si  1.93  7.74 -8.72
Si -9.67  5.52  3.94
Si  5.79 -5.57 -8.67
Si -3.85 11.16  0.80
Si  7.73 -8.93  0.80
Si -1.93  7.82 -8.67
Si -5.79 10.06 -2.34
Si  3.90 11.16  0.80
Si 11.62 -2.23  0.80
Si -7.77 -8.93  0.80
Si  5.82  1.07 10.28
Si 11.61  0.00 -2.45
Si -0.02 -0.02 -11.87
Si -11.63 -2.23  0.80
Si -1.93 -5.54 10.32
Si  1.93 -5.62 10.28
Si -5.79  1.16 10.32
Si -11.64  0.00 -2.45
Si  9.71  5.61  3.99
Si  7.72 -2.24 -8.78
Si -5.85 -10.11 -2.39
Si -5.85 -5.66 -8.72
Si -7.78 -2.24 -8.78
Si -3.85 -6.66  9.48
Si -7.74 -8.90  3.15
Si  3.86 -11.14 -3.18
Si  7.75 -8.90  3.15
Si -3.89 -11.14 -3.18
Si  3.90 -6.66  9.48
Si -7.71  0.04  9.48
Si -11.60 -2.20  3.15
Si -7.71  8.95 -3.18
Si -3.82 11.19  3.15
Si -11.60  2.25 -3.18
Si -3.82  6.73  9.48
Si  3.86 -6.69 -9.51
Si -3.85  6.70 -9.51
Si -3.89 -6.69 -9.51
Si 11.64 -2.20  3.15
Si -7.75  0.01 -9.51
Si  3.93 11.19  3.15
Si  3.89  6.70 -9.51
Si  7.79  0.04  9.48
Si  7.75  0.01 -9.51
Si  3.93  6.73  9.48
Si  7.78  8.95 -3.18
Si 11.64  2.25 -3.18
Si -9.66  5.57 -5.52
Si  9.67  5.56 -5.52
Si  3.85 -11.14  3.99
Si -0.02 -11.17 -5.50
Si  7.74  4.46 -8.68
Si  3.87 -0.02 -11.83
Si -3.88 -0.02 -11.83
Si  1.89 -12.28  0.81
Si -11.59  4.47  0.83
Si -0.04 -8.93 -8.68
Si -1.94 -12.28  0.81
Si  1.95  3.33 -11.85
Si -3.90 -11.14  3.99
Si -7.76  4.46 -8.68
Si -1.97  3.32 -11.85
Si -9.69  7.80  0.81
Si -9.66 -3.34  7.14
Si  1.89 -3.38 -11.85
Si  1.95 -10.03  7.14
Si -1.94 -3.37 -11.85
Si -7.73  8.94  3.99
Si -1.88 10.05  7.14
Si  9.67 -3.34  7.14
Si -7.70  6.71  7.16
Si -1.97 -10.04  7.14
Si  1.95 10.05  7.14
Si -7.73 -6.68  7.16
Si -11.62  2.25  3.99
Si -9.69  3.35  7.14
Si 11.63  2.25  3.99
Si  7.77  8.94  3.99
Si  7.76 -6.68  7.16
Si  9.73  7.81  0.81
Si 11.65  4.47  0.83
Si  9.73  3.36  7.14
Si  7.79  6.71  7.16
Si -2.00 -12.24  3.14
Si -9.63  5.56  6.33
Si -0.04 -11.15  6.28
Si -0.01 -2.22 12.61
Si -1.90 12.26 -3.16
Si -9.65  7.81  3.17
Si 11.59 -4.48 -3.15
Si  1.93 -12.28  3.17
Si  9.67 -7.83 -3.16
Si -9.69 -5.57 -6.32
Si -0.01 11.14 -6.39
Si  9.67  7.85  3.14
Si 11.62  4.46  3.18
Si -1.94 -1.12 -12.65
Si -1.89  1.10 12.66
Si  1.92 12.30 -3.19
Si -11.63  4.46  3.18
Si  1.94 -1.17 -12.66
Si  9.69 -5.62 -6.33
Si -9.75 -7.78 -3.19
Si -11.66 -4.48 -3.15
Si  1.98  1.16 12.68
Si  9.73  5.61  6.34
Si -0.04  2.20 -12.72
Si  1.96 12.22  3.94
Si -7.75 -2.21 10.21
Si  7.75 -2.21 10.21
Si 11.61 -4.45  3.88
Si -5.82  7.74 -8.72
Si  1.97  7.77 10.28
Si -7.74  8.92 -5.53
Si  3.84 -11.17 -5.53
Si  9.68 -7.78  3.99
Si  9.68  1.13 -8.67
Si -11.64 -4.45  3.88
Si  5.82  7.82 -8.67
Si  7.76  8.92 -5.53
Si 11.62  2.22 -5.53
Si -3.91 -11.17 -5.53
Si -11.63  2.22 -5.53
Si -1.90 12.31  3.99
Si  5.82 -5.54 10.32
Si -5.82 -5.62 10.28
Si -9.71  1.04 -8.72
Si  3.83 -8.93 -8.78
Si -9.71 -7.87  3.94
Si -1.90  7.85 10.32
Si -3.92 -8.93 -8.78
Si -0.01 -13.37  0.02
Si -3.87 -11.13  6.35
Si -3.84 11.17 -6.31
Si -11.59  6.71  0.02
Si  3.88 -11.13  6.35
Si  7.74 -8.92 -6.31
Si -11.62 -6.68  0.02
Si -7.76 -8.92 -6.31
Si -11.59  2.26  6.35
Si -11.62 -2.23 -6.31
Si -7.70  8.96  6.35
Si -3.87  2.23 -12.64
Si  0.05 13.41  0.02
Si -0.01 -4.47 -12.64
Si  3.91 11.17 -6.31
Si 11.63 -6.68  0.02
Si  3.88  2.23 -12.64
Si 11.63 -2.23 -6.31
Si -3.84 -2.19 12.68
Si  3.91 -2.19 12.68
Si 11.66  6.71  0.02
Si  0.05  4.50 12.68
Si  7.80  8.96  6.35
Si 11.66  2.26  6.35
Si -1.94 12.26 -5.52
Si  0.01  6.68 -11.83
Si  9.63 -7.83 -5.52
Si -7.70 11.16  0.83
Si 11.59 -6.69 -2.35
Si -0.04 -13.39 -2.35
Si  1.98 12.26 -5.52
Si  0.02 13.39 -2.35
Si  5.78  3.32 -11.85
Si  5.81 -12.28  0.81
Si -0.02 -6.71 -11.83
