500
set: 974.00  0.00  0.00
Si  0.35 -1.20  0.83
Si -0.42  1.27 -0.89
Si  1.45  1.26  0.86
Si -1.53 -1.29 -0.84
Si -2.23  1.18  0.85
Si  2.25 -1.25 -0.86
Si -0.91 -0.01  2.62
Si  0.95  0.07 -2.64
Si -0.00  2.38  2.52
Si  0.02 -2.41 -2.55
Si  3.25  1.29 -0.83
Si -3.24 -1.33  0.93
Si -2.69  0.02 -2.51
Si  2.71 -0.04  2.54
Si  0.40  3.67 -0.84
Si -0.47 -3.70  0.86
Si  1.83 -2.40  2.54
Si -1.31  3.63  0.93
Si  1.32 -3.67 -0.83
Si -1.81  2.46 -2.58
Si -1.93 -2.58  2.52
Si  1.95  2.55 -2.55
Si -4.09  1.29 -0.83
Si  0.94  0.09  4.29
Si  4.10 -1.33  0.93
Si -0.92 -0.12 -4.31
Si -2.35 -3.69 -0.89
Si  2.28  3.76  0.83
Si -0.06 -2.39  4.19
Si  0.10  2.45 -4.21
Si -3.16  3.71 -0.86
Si  3.19 -3.78  0.85
Si -3.58  2.57  2.54
Si  3.60 -2.50 -2.58
Si -2.81  0.00  4.26
Si  2.83  0.07 -4.30
Si -3.74 -2.50 -2.58
Si  3.76  2.57  2.54
Si -1.83 -2.51 -4.21
Si  1.87  2.57  4.19
Si -4.63 -0.04  2.54
Si  4.65  0.02 -2.51
Si  1.79 -2.54 -4.29
Si -1.76  2.52  4.33
Si -5.09 -1.25 -0.86
Si  5.11  1.18  0.85
Si -0.76  4.98 -2.51
Si -0.98 -4.89 -2.64
Si  4.18  3.71 -0.86
Si  0.78 -5.00  2.54
Si -4.15 -3.78  0.85
Si  1.02  4.95  2.62
Si  5.81 -1.29 -0.84
Si -5.89  1.26  0.86
Si -3.62  2.42 -4.29
Si  0.53 -1.24 -5.97
Si -0.61  1.21  6.00
Si -2.70  4.92  2.54
Si  3.65 -2.44  4.33
Si  3.72  2.42 -4.29
Si  2.73 -4.95 -2.51
Si -3.69 -2.44  4.33
Si -0.30  6.14  0.85
Si  4.53  0.00  4.26
Si -1.43 -1.19  5.94
Si -4.51  0.07 -4.30
Si  4.99 -3.69 -0.89
Si  1.36  1.26 -6.00
Si  0.32 -6.21 -0.86
Si -2.83 -4.97  2.62
Si -5.06  3.76  0.83
Si  2.88  5.03 -2.64
Si -2.23  1.13 -5.91
Si -1.58 -6.17  0.83
Si  1.51  6.23 -0.89
Si -5.39  2.55 -2.55
Si  5.41 -2.58  2.52
Si  2.24 -1.17  6.00
Si -5.51 -2.40  2.54
Si  1.00  4.84 -4.31
Si -0.99 -4.87  4.29
Si  0.91 -4.89 -4.30
Si  5.53  2.46 -2.58
Si -0.89  4.96  4.26
Si -2.16  6.25 -0.83
Si  2.17 -6.29  0.93
Si  3.17  1.25  5.97
Si -3.15 -1.32 -5.99
Si -6.39  0.07 -2.64
Si  6.43 -0.01  2.62
Si  2.60 -4.96  4.26
Si  0.50  3.77  5.94
Si -0.57 -3.71 -6.00
Si  6.92  1.27 -0.89
Si  6.03  3.63  0.93
Si -2.58  5.03 -4.30
Si -6.02 -3.67 -0.83
Si -1.22  3.64 -5.99
Si  3.38  6.22  0.86
Si -6.99 -1.20  0.83
Si  1.24 -3.71  5.97
Si -3.46 -6.25 -0.84
Si  4.50 -4.97  2.62
Si -4.62 -4.95 -2.51
Si  2.87  5.05  4.29
Si -4.46  5.03 -2.64
Si  4.64  4.92  2.54
Si -2.85 -5.08 -4.31
Si -5.47  2.57  4.19
Si  5.51 -2.51 -4.21
Si -4.17  1.25  5.97
Si  3.88 -6.25 -0.84
Si -3.96  6.22  0.86
Si  4.19 -1.32 -5.99
Si  2.46  3.72 -5.97
Si -5.55 -2.54 -4.29
Si  5.58  2.52  4.33
Si -2.53 -3.75  6.00
Si -6.40  0.09  4.29
Si  3.18 -3.83 -5.91
Si  6.42 -0.12 -4.31
Si -3.17  3.79  6.00
Si -0.52  1.17 -7.67
Si -0.10 -7.36  2.54
Si  0.45 -1.20  7.69
Si  7.69 -1.20  0.83
Si  6.86 -3.70  0.86
Si  0.12  7.42 -2.58
Si  1.27  1.30  7.67
Si  5.11  1.13 -5.91
Si -6.94  3.67 -0.84
Si -7.76  1.27 -0.89
Si -1.34 -1.23 -7.73
Si -5.09 -1.17  6.00
Si -4.47  5.05  4.29
Si  1.93  7.34  2.52
Si -1.91 -7.37 -2.55
Si  4.49 -5.08 -4.31
Si  1.68 -7.46 -2.58
Si -4.74 -4.96  4.26
Si  2.33 -1.21 -7.67
Si -1.66  7.53  2.54
Si  7.34  2.38  2.52
Si -7.32 -2.41 -2.55
Si -7.34  2.38  2.52
Si  4.76  5.03 -4.30
Si  7.36 -2.41 -2.55
Si  5.18  6.25 -0.83
Si -4.16 -3.83 -5.91
Si -2.32  1.17  7.76
Si -5.17 -6.29  0.93
Si  4.17  3.79  6.00
Si -3.23 -1.28  7.68
Si -6.32  4.95  2.62
Si  3.26  1.21 -7.70
Si  6.36 -4.89 -2.64
Si  5.92 -1.19  5.94
Si  5.76 -6.17  0.83
Si -0.31  6.09 -5.91
Si -0.65 -3.66  7.67
Si  4.81 -3.75  6.00
Si -5.98  1.26 -6.00
Si -4.88  3.72 -5.97
Si -5.83  6.23 -0.89
Si  0.32 -6.13  6.00
Si  0.59  3.73 -7.73
Si  7.74  3.67 -0.84
Si -1.30  3.68  7.68
Si  6.58  4.98 -2.51
Si -6.56 -5.00  2.54
Si  0.16  7.48  4.33
Si -0.14 -7.50 -4.29
Si -8.25 -0.01  2.62
Si -3.46  7.51 -2.55
Si  0.62  8.59  0.93
Si  1.33 -3.75 -7.70
Si  3.48 -7.54  2.52
Si -7.82 -3.70  0.86
Si -1.98 -7.35  4.19
Si -0.61 -8.63 -0.83
Si -1.69  7.38 -4.29
Si  8.29  0.07 -2.64
Si  1.32  6.17  6.00
Si -1.40 -6.20 -5.97
Si -7.24  2.45 -4.21
Si  7.29 -2.39  4.19
Si  1.72 -7.41  4.33
Si  2.03  7.41 -4.21
Si -4.08  1.21 -7.70
Si -1.23  8.67 -0.86
Si  4.11 -1.28  7.68
Si  3.88  7.51 -2.55
Si -7.39 -2.39  4.19
Si -3.86 -7.54  2.52
Si  1.26 -8.74  0.85
Si  2.38  3.77  7.69
Si  7.44  2.45 -4.21
Si -2.24  6.21  5.97
Si -2.45 -3.79 -7.67
Si  8.79  1.26  0.86
Si  2.26 -6.28 -5.99
Si  2.33  8.63 -0.84
Si -8.87 -1.29 -0.84
Si -2.40 -8.66  0.86
Si -6.34  4.84 -4.31
Si -3.08  3.75 -7.67
Si  6.35 -4.87  4.29
Si  6.73  1.21  6.00
Si -6.81 -1.24 -5.97
Si -6.43 -4.89 -4.30
Si  3.09 -3.79  7.76
Si -3.35 -6.15  5.94
Si  6.45  4.96  4.26
Si  3.06 -8.65 -0.89
Si -5.01 -1.21 -7.67
Si  3.29  6.22 -6.00
Si  3.58 -7.47 -4.21
Si -3.13  8.72  0.83
Si  6.12  3.64 -5.99
Si -6.10 -3.71  5.97
Si -3.54  7.53  4.19
Si  5.02  1.17  7.76
Si -8.26 -0.12 -4.31
Si  8.28  0.09  4.29
Si -3.76 -7.47 -4.21
Si  7.04  6.14  0.85
Si -1.01 -0.08  9.36
Si -7.02 -6.21 -0.86
Si  3.80  7.53  4.19
Si -8.65  3.63  0.93
Si  3.99 -6.15  5.94
Si  1.02  0.05 -9.38
Si  8.66 -3.67 -0.83
Si -5.41  7.34  2.52
Si  5.43 -7.37 -2.55
Si  4.26  3.75 -7.67
Si -4.05  6.22 -6.00
Si -4.25 -3.79  7.76
Si -9.56  1.18  0.85
Si -4.28 -8.65 -0.89
Si  9.59 -1.25 -0.86
Si -5.66 -7.46 -2.58
Si  4.21  8.72  0.83
Si  5.68  7.53  2.54
Si  2.75  0.11  9.37
Si  6.77 -3.71 -6.00
Si  0.01  2.49  9.46
Si  0.03 -2.43 -9.48
Si -2.73 -0.04 -9.41
Si -1.68  2.48 -9.34
Si  9.17 -2.40  2.54
Si -6.84  3.77  5.94
Si -9.15  2.46 -2.58
Si -8.10  4.98 -2.51
Si -7.64  6.14  0.85
Si  0.40 -6.17 -7.67
Si  1.71 -2.50  9.38
Si  4.89 -3.79 -7.67
Si  6.00 -1.23 -7.73
Si -6.07  1.30  7.67
Si  8.12 -5.00  2.54
Si -0.39  6.13  7.76
Si -4.96  3.77  7.69
Si  7.66 -6.21 -0.86
Si  1.41  6.13 -7.67
Si -9.27 -2.58  2.52
Si  7.87 -1.24 -5.97
Si -1.91 -2.47  9.46
Si  9.29  2.55 -2.55
Si -1.48 -6.16  7.69
Si  1.96  2.53 -9.48
Si  4.94 -8.66  0.86
Si -8.32 -4.89 -2.64
Si  5.10  6.21  5.97
Si  5.36 -7.35  4.19
Si -5.01  8.63 -0.84
Si -7.95  1.21  6.00
Si -5.31  7.41 -4.21
Si -5.08 -6.28 -5.99
Si  8.36  4.95  2.62
Si -2.15  6.17 -7.70
Si  2.18 -6.24  7.68
Si -0.77  9.88  2.54
Si  5.65  7.38 -4.29
Si  0.80 -9.91 -2.51
Si -5.62 -7.41  4.33
Si  1.17  9.94 -2.51
Si -3.61 -2.48 -9.34
Si  6.82  1.17 -7.67
Si -10.03  0.02 -2.51
Si -1.14 -9.96  2.54
Si  3.63  2.46  9.38
Si  3.73 -2.48 -9.34
Si  9.62  3.76  0.83
Si 10.05 -0.04  2.54
Si -3.71  2.46  9.38
Si -9.10  2.52  4.33
Si -9.17 -2.51 -4.21
Si -6.89 -1.20  7.69
Si  3.20  6.26  7.67
Si -9.69 -3.69 -0.89
Si  9.13 -2.54 -4.29
Si -3.27 -6.19 -7.73
Si -4.59  0.11  9.37
Si  6.04  3.68  7.68
Si  9.21  2.57  4.19
Si  5.94 -6.20 -5.97
Si -6.01 -3.75 -7.70
Si  4.61 -0.04 -9.41
Si -6.02  6.17  6.00
Si  0.71  8.60 -5.99
Si -8.22  4.96  4.26
Si  8.24 -4.89 -4.30
Si  7.84  3.77  5.94
Si -0.68 -8.67  5.97
Si -8.33 -4.87  4.29
Si  8.34  4.84 -4.31
Si  0.82 -4.86  9.37
Si  2.58 -9.93  2.62
Si  0.92  4.88  9.36
Si -7.91 -3.71 -6.00
Si -2.90 -9.85 -2.64
Si -0.90 -4.91 -9.38
Si  7.24 -7.36  2.54
Si  6.11  8.67 -0.86
Si -2.53  9.99 -2.64
Si  8.70  1.26 -6.00
Si -0.80  4.92 -9.41
Si -8.76 -1.19  5.94
Si  1.25 -8.79 -5.91
Si  2.95  9.91  2.62
Si -7.22  7.42 -2.58
Si -6.08 -8.74  0.85
Si -1.24  8.75  6.00
Si 10.59  1.29 -0.83
Si -10.58 -1.33  0.93
Si  4.07 -6.19 -7.73
Si -4.14  6.26  7.67
Si -7.44 -7.36  2.54
Si -1.02 -9.86 -4.30
Si  6.69 -3.66  7.67
Si  0.67 -9.92  4.26
Si -2.50 -8.66 -6.00
Si  7.46  7.42 -2.58
Si  2.43  8.73  5.94
Si  1.04  9.92  4.26
Si  8.85  6.23 -0.89
Si -8.91 -6.17  0.83
Si -0.65  9.99 -4.30
Si -6.75  3.73 -7.73
Si -2.95  8.69 -5.97
Si -6.72  8.59  0.93
Si  2.88 -8.71  6.00
Si  6.73 -8.63 -0.83
Si -2.66  5.07  9.37
Si  2.68 -5.00 -9.41
Si -10.15  0.00  4.26
Si  7.79 -1.20  7.69
Si  7.03  6.09 -5.91
Si -2.94 -5.04  9.36
Si  2.95  5.01 -9.38
Si 10.17  0.07 -4.30
Si -7.86  1.17 -7.67
Si  0.87  0.11 11.03
Si -8.56  3.64 -5.99
Si -0.82 -0.05 -11.05
Si -7.02 -6.13  6.00
Si  8.58 -3.71  5.97
Si  2.93  9.80 -4.31
Si -2.92 -9.83  4.29
Si  4.43 -9.85 -2.64
Si  5.18  6.17 -7.70
Si -4.39  9.91  2.62
Si -5.16 -6.24  7.68
Si -10.50  3.71 -0.86
Si  5.43 -2.47  9.46
Si -2.54 10.02  4.29
Si -5.38  2.53 -9.48
Si  5.66  2.48 -9.34
Si 10.53 -3.78  0.85
Si -5.63 -2.50  9.38
Si  2.56 -10.04 -4.31
Si -7.18  7.48  4.33
Si -0.23 11.21 -0.83
Si  7.20 -7.50 -4.29
Si  1.63 11.10  0.85
Si  0.24 -11.25  0.93
Si  6.33 -0.08  9.36
Si -9.57  1.13 -5.91
Si -6.32  0.05 -9.38
Si -1.61 -11.17 -0.86
Si -4.76 -9.93  2.62
Si  9.58 -1.17  6.00
Si -0.07 -2.37 11.12
Si  0.08  2.34 -11.15
Si  4.81  9.99 -2.64
Si -2.03 11.19  0.86
Si -9.50  6.25 -0.83
Si  1.96 -11.21 -0.84
Si  4.39  8.69 -5.97
Si -7.65  6.09 -5.91
Si -7.48 -7.50 -4.29
Si  9.51 -6.29  0.93
Si  7.50  7.48  4.33
Si -10.04  4.92  2.54
Si  5.86 -6.16  7.69
Si  2.80 -0.08 -11.13
Si -4.46 -8.71  6.00
Si -5.93  6.13 -7.67
Si 10.06 -4.95 -2.51
Si  7.66 -6.13  6.00
Si -2.77  0.06 11.16
Si -10.92  2.57  2.54
Si  4.40 -5.04  9.36
Si -4.39  5.01 -9.38
Si 10.94 -2.50 -2.58
Si -1.89  2.50 11.09
Si -11.43  1.29 -0.83
Si 11.44 -1.33  0.93
Si  1.91 -2.44 -11.13
Si  1.86  2.59 11.12
Si -4.41  9.80 -4.31
Si  0.62  8.64  7.68
Si -1.85 -2.62 -11.15
Si  4.84 -8.66 -6.00
Si  4.42 -9.83  4.29
Si  8.61  1.30  7.67
Si -10.18 -4.97  2.62
Si -4.66 -5.00 -9.41
Si  4.68  5.07  9.37
Si -0.60 -8.71 -7.70
Si -11.07 -2.50 -2.58
Si -4.91  8.73  5.94
Si -1.16  8.71 -7.67
Si 11.10  2.57  2.54
Si -7.99 -3.66  7.67
Si  7.93  3.73 -7.73
Si -8.68 -1.23 -7.73
Si 10.22  5.03 -2.64
Si -3.50 -11.12  0.83
Si  3.44 11.19 -0.89
Si  7.96  8.59  0.93
Si  1.16 -8.75  7.76
Si -7.95 -8.63 -0.83
Si  3.84 -11.12  0.83
Si -2.58 -8.62  7.67
Si -3.90 11.19 -0.89
Si  9.94 -4.96  4.26
Si  3.52 -2.46 11.09
Si  2.52  8.69 -7.73
Si  4.80 10.02  4.29
Si -9.92  5.03 -4.30
Si -4.78 -10.04 -4.31
Si -3.50  2.53 -11.13
Si  0.25  7.44 -9.34
Si -6.17  9.94 -2.51
Si  9.02 -7.46 -2.58
Si -3.82 -2.46 11.09
Si -0.22 -7.46  9.38
Si -8.99  7.53  2.54
Si  6.20 -9.96  2.54
Si  2.96 -8.75 -7.67
Si -10.96  2.42 -4.29
Si -4.54 -0.08 -11.13
Si -3.04  8.72  7.69
Si -6.94 -6.17 -7.67
Si  3.84  2.53 -11.13
Si 10.99 -2.44  4.33
Si  4.57  0.06 11.16
Si  9.80  3.72 -5.97
Si  1.80 -7.45 -9.34
Si  9.27  7.34  2.52
Si -1.78  7.42  9.38
Si  6.95  6.13  7.76
Si -1.06 -4.85 11.03
Si -9.25 -7.37 -2.55
Si -11.03 -2.44  4.33
Si 11.06  2.42 -4.29
Si -11.49 -3.78  0.85
Si 11.52  3.71 -0.86
Si  6.57  9.88  2.54
Si -6.54 -9.91 -2.51
Si -8.64  3.68  7.68
Si  1.11  4.91 -11.05
Si -9.87 -3.75  6.00
Si -10.49 -1.32 -5.99
Si 10.51  1.25  5.97
Si -1.90 -7.39 -9.48
Si 10.21  5.05  4.29
Si -10.19 -5.08 -4.31
Si  8.67 -3.75 -7.70
Si  1.94  7.45  9.46
Si  8.66  6.17  6.00
Si -7.31 -2.43 -9.48
Si -7.33  2.49  9.46
Si -6.09 -8.79 -5.91
Si -8.57  8.67 -0.86
Si -11.97 -0.04  2.54
Si  7.36  2.49  9.46
Si  6.10  8.75  6.00
