500
set: 643.00  0.00  0.00
Si  0.48 -1.22  0.86
Si -0.48  1.22 -0.86
Si  1.33  1.10  0.86
Si -1.33 -1.10 -0.86
Si -0.86 -0.06  2.39
Si  0.86  0.06 -2.39
Si -2.14  1.10  0.86
Si  2.14 -1.10 -0.86
Si -0.02  2.27  2.39
Si  0.02 -2.27 -2.39
Si  2.98  1.22 -0.86
Si -2.98 -1.22  0.86
Si  2.60 -0.06  2.39
Si -2.60  0.06 -2.39
Si  0.36  3.55 -0.86
Si -0.36 -3.55  0.86
Si -1.29  3.43  0.86
Si  1.29 -3.43 -0.86
Si -1.71 -2.38  2.39
Si  1.71  2.38 -2.39
Si  1.76 -2.38  2.39
Si -1.76  2.38 -2.39
Si -2.17 -3.43 -0.86
Si  2.17  3.43  0.86
Si  0.95 -0.18  4.11
Si -0.95  0.18 -4.11
Si  3.95 -1.22  0.86
Si -3.95  1.22 -0.86
Si -3.45 -2.27 -2.39
Si  3.45  2.27  2.39
Si -3.10  3.55 -0.86
Si  3.10 -3.55  0.86
Si  3.48 -2.27 -2.39
Si -3.48  2.27  2.39
Si -0.10  2.50 -4.11
Si  0.10 -2.50  4.11
Si -2.52 -0.18  4.11
Si  2.52  0.18 -4.11
Si -1.67  2.15  4.11
Si  1.67 -2.15 -4.11
Si -4.33 -0.06  2.39
Si  4.33  0.06 -2.39
Si -1.79 -2.15 -4.11
Si  1.79  2.15  4.11
Si -4.79 -1.10 -0.86
Si  4.79  1.10  0.86
Si  0.83  4.59  2.39
Si -0.83 -4.59 -2.39
Si -3.83 -3.55  0.86
Si  3.83  3.55 -0.86
Si -0.91  4.71 -2.39
Si  0.91 -4.71  2.39
Si -0.39  0.98  5.64
Si  0.39 -0.98 -5.64
Si -5.60  1.10  0.86
Si  5.60 -1.10 -0.86
Si -2.64  4.59  2.39
Si  2.64 -4.59 -2.39
Si -0.45  5.75  0.86
Si  0.45 -5.75 -0.86
Si -2.55 -4.71  2.39
Si  2.55  4.71 -2.39
Si  3.36  2.50 -4.11
Si -3.36 -2.50  4.11
Si -4.76  3.43  0.86
Si  4.76 -3.43 -0.86
Si -1.24 -1.34  5.64
Si  1.24  1.34 -5.64
Si  3.57 -2.50  4.11
Si -3.57  2.50 -4.11
Si  4.42 -0.18  4.11
Si -4.42  0.18 -4.11
Si  1.21  5.87 -0.86
Si -1.21 -5.87  0.86
Si  0.82 -4.47 -4.11
Si -0.82  4.47  4.11
Si  5.17  2.38 -2.39
Si -5.17 -2.38  2.39
Si -2.23  1.34 -5.64
Si  2.23 -1.34  5.64
Si  5.22 -2.38  2.39
Si -5.22  2.38 -2.39
Si -2.26  5.87 -0.86
Si  2.26 -5.87  0.86
Si -0.74 -4.83  4.11
Si  0.74  4.83 -4.11
Si  3.07  0.98  5.64
Si -3.07 -0.98 -5.64
Si -6.07  0.06 -2.39
Si  6.07 -0.06  2.39
Si -3.02 -5.75 -0.86
Si  3.02  5.75  0.86
Si -0.45 -3.31 -5.64
Si  0.45  3.31  5.64
Si -6.45 -1.22  0.86
Si  6.45  1.22 -0.86
Si  2.64  4.47  4.11
Si -2.64 -4.47 -4.11
Si -5.64 -3.43 -0.86
Si  5.64  3.43  0.86
Si  4.29  4.59  2.39
Si -4.29 -4.59 -2.39
Si  4.38 -4.71  2.39
Si -4.38  4.71 -2.39
Si  1.38 -3.67  5.64
Si -1.38  3.67 -5.64
Si -2.73  4.83 -4.11
Si  2.73 -4.83  4.11
Si  3.86 -0.98 -5.64
Si -3.86  0.98  5.64
Si -5.13  2.15  4.11
Si  5.13 -2.15 -4.11
Si -3.91  5.75  0.86
Si  3.91 -5.75 -0.86
Si  5.26  2.15  4.11
Si -5.26 -2.15 -4.11
Si  2.08  3.67 -5.64
Si -2.08 -3.67  5.64
Si  3.01 -3.31 -5.64
Si -3.01  3.31  5.64
Si  5.98  0.18 -4.11
Si -5.98 -0.18  4.11
Si  0.07 -7.03  2.39
Si -0.07  7.03 -2.39
Si -4.29  4.47  4.11
Si  4.29 -4.47 -4.11
Si -4.70 -1.34  5.64
Si  4.70  1.34 -5.64
Si  1.67  6.91  2.39
Si -1.67 -6.91 -2.39
Si -6.57  3.55 -0.86
Si  6.57 -3.55  0.86
Si  0.57 -1.46  7.35
Si -0.57  1.46 -7.35
Si -1.79  6.91  2.39
Si  1.79 -6.91 -2.39
Si -1.42 -0.86 -7.35
Si  1.42  0.86  7.35
Si  4.67  5.87 -0.86
Si -4.67 -5.87  0.86
Si -7.41  1.22 -0.86
Si  7.41 -1.22  0.86
Si  4.21  4.83 -4.11
Si -4.21 -4.83  4.11
Si  3.92  3.31  5.64
Si -3.92 -3.31 -5.64
Si  6.92  2.27  2.39
Si -6.92 -2.27 -2.39
Si -2.05  0.86  7.35
Si  2.05 -0.86 -7.35
Si -6.95  2.27  2.39
Si  6.95 -2.27 -2.39
Si  0.02  6.79  4.11
Si -0.02 -6.79 -4.11
Si -6.10  4.59  2.39
Si  6.10 -4.59 -2.39
Si -6.02 -4.71  2.39
Si  6.02  4.71 -2.39
Si  2.89  1.46 -7.35
Si -2.89 -1.46  7.35
Si -1.30 -5.63 -5.64
Si  1.30  5.63  5.64
Si -1.20  3.19  7.35
Si  1.20 -3.19 -7.35
Si -5.69  1.34 -5.64
Si  5.69 -1.34  5.64
Si -0.40 -8.08 -0.86
Si  0.40  8.08  0.86
Si -7.79 -0.06  2.39
Si  7.79  0.06 -2.39
Si -7.29 -3.55  0.86
Si  7.29  3.55 -0.86
Si -3.40 -7.03  2.39
Si  3.40  7.03 -2.39
Si  3.54 -7.03  2.39
Si -3.54  7.03 -2.39
Si  0.54 -5.99  5.64
Si -0.54  5.99 -5.64
Si -5.72  5.87 -0.86
Si  5.72 -5.87  0.86
Si  2.17 -5.63 -5.64
Si -2.17  5.63  5.64
Si -0.27 -3.79  7.35
Si  0.27  3.79 -7.35
Si  4.85 -3.67  5.64
Si -4.85  3.67 -5.64
Si -2.26 -3.19 -7.35
Si  2.26  3.19  7.35
Si -6.83 -2.50  4.11
Si  6.83  2.50 -4.11
Si -1.41  8.20 -0.86
Si  1.41 -8.20  0.86
Si  8.26  1.10  0.86
Si -8.26 -1.10 -0.86
Si  1.58  7.15 -4.11
Si -1.58 -7.15  4.11
Si  1.88 -7.15  4.11
Si -1.88  7.15 -4.11
Si  2.05  8.20 -0.86
Si -2.05 -8.20  0.86
Si  4.04 -1.46  7.35
Si -4.04  1.46 -7.35
Si  7.04 -2.50  4.11
Si -7.04  2.50 -4.11
Si -6.11 -4.47 -4.11
Si  6.11  4.47  4.11
Si  3.44 -6.79 -4.11
Si -3.44  6.79  4.11
Si -3.48 -6.79 -4.11
Si  3.48  6.79  4.11
Si  3.07 -8.08 -0.86
Si -3.07  8.08  0.86
Si  6.54  0.98  5.64
Si -6.54 -0.98 -5.64
Si -6.48 -5.75 -0.86
Si  6.48  5.75  0.86
Si -5.55 -3.67  5.64
Si  5.55  3.67 -5.64
Si -2.93 -5.99  5.64
Si  2.93  5.99 -5.64
Si -6.19  4.83 -4.11
Si  6.19 -4.83  4.11
Si  3.19 -3.79  7.35
Si -3.19  3.79 -7.35
Si  4.88  0.86  7.35
Si -4.88 -0.86 -7.35
Si -7.88  0.18 -4.11
Si  7.88 -0.18  4.11
Si  0.77  0.30 -8.89
Si -0.77 -0.30  8.89
Si  5.14  6.91  2.39
Si -5.14 -6.91 -2.39
Si  8.22 -3.43 -0.86
Si -8.22  3.43  0.86
Si -3.86 -8.08 -0.86
Si  3.86  8.08  0.86
Si -5.26  6.91  2.39
Si  5.26 -6.91 -2.39
Si  3.74  3.79 -7.35
Si -3.74 -3.79  7.35
Si  0.07  2.03  8.89
Si -0.07 -2.03 -8.89
Si  4.00 -5.99  5.64
Si -4.00  5.99 -5.64
Si -9.07  1.10  0.86
Si  9.07 -1.10 -0.86
Si  0.36 -5.51 -7.35
Si -0.36  5.51  7.35
Si  6.48 -3.31 -5.64
Si -6.48  3.31  5.64
Si -5.51  0.86  7.35
Si  5.51 -0.86 -7.35
Si  8.64  2.38 -2.39
Si -8.64 -2.38  2.39
Si  4.67 -3.19 -7.35
Si -4.67  3.19  7.35
Si -4.76 -5.63 -5.64
Si  4.76  5.63  5.64
Si  2.69 -0.30  8.89
Si -2.69  0.30 -8.89
Si  7.32 -0.98 -5.64
Si -7.32  0.98  5.64
Si  8.69 -2.38  2.39
Si -8.69  2.38 -2.39
Si -7.76 -4.59 -2.39
Si  7.76  4.59  2.39
Si  7.38 -5.75 -0.86
Si -7.38  5.75  0.86
Si  1.62  2.62 -8.89
Si -1.62 -2.62  8.89
Si -1.85  2.62 -8.89
Si  1.85 -2.62  8.89
Si -7.84  4.71 -2.39
Si  7.84 -4.71  2.39
Si -4.88  8.20 -0.86
Si  4.88 -8.20  0.86
Si  0.95 -9.24 -2.39
Si -0.95  9.24  2.39
Si  1.12  6.11 -7.35
Si -1.12 -6.11  7.35
Si  5.05  7.15 -4.11
Si -5.05 -7.15  4.11
Si  0.78  9.36 -2.39
Si -0.78 -9.36  2.39
Si -3.11 -5.51 -7.35
Si  3.11  5.51  7.35
Si -3.39  2.03  8.89
Si  3.39 -2.03 -8.89
Si -5.63  5.63  5.64
Si  5.63 -5.63 -5.64
Si -9.10 -3.43 -0.86
Si  9.10  3.43  0.86
Si -8.60  2.15  4.11
Si  8.60 -2.15 -4.11
Si  3.54  2.03  8.89
Si -3.54 -2.03 -8.89
Si -5.35  7.15 -4.11
Si  5.35 -7.15  4.11
Si -9.54  0.06 -2.39
Si  9.54 -0.06  2.39
Si -6.36 -1.46  7.35
Si  6.36  1.46 -7.35
Si  1.32 -7.96 -5.64
Si -1.32  7.96  5.64
Si  2.35 -6.11  7.35
Si -2.35  6.11 -7.35
Si -7.76  4.47  4.11
Si  7.76 -4.47 -4.11
Si -4.24 -0.30  8.89
Si  4.24  0.30 -8.89
Si -5.73 -3.19 -7.35
Si  5.73  3.19  7.35
Si  7.38  3.31  5.64
Si -7.38 -3.31 -5.64
Si  2.52  9.24  2.39
Si -2.52 -9.24 -2.39
Si  8.73  2.15  4.11
Si -8.73 -2.15 -4.11
Si  5.52  8.20 -0.86
Si -5.52 -8.20  0.86
Si -0.92 -4.35 -8.89
Si  0.92  4.35  8.89
Si -7.67 -4.83  4.11
Si  7.67  4.83 -4.11
Si  3.82 -5.51 -7.35
Si -3.82  5.51  7.35
Si  2.14  7.96  5.64
Si -2.14 -7.96 -5.64
Si -8.17 -1.34  5.64
Si  8.17  1.34 -5.64
Si -9.91 -1.22  0.86
Si  9.91  1.22 -0.86
Si -2.69  9.36 -2.39
Si  2.69 -9.36  2.39
Si  0.86  9.12  4.11
Si -0.86 -9.12 -4.11
Si -0.31 -8.31  5.64
Si  0.31  8.31 -5.64
Si -8.14 -5.87  0.86
Si  8.14  5.87 -0.86
Si  6.86  7.03 -2.39
Si -6.86 -7.03  2.39
Si  7.00 -7.03  2.39
Si -7.00  7.03 -2.39
Si -2.55  4.35  8.89
Si  2.55 -4.35 -8.89
Si -1.00  4.95 -8.89
Si  1.00 -4.95  8.89
Si  9.45  0.18 -4.11
Si -9.45 -0.18  4.11
Si -2.60  9.12  4.11
Si  2.60 -9.12 -4.11
Si -1.03  9.48 -4.11
Si  1.03 -9.48  4.11
Si -6.39 -5.99  5.64
Si  6.39  5.99 -5.64
Si -6.53  8.08  0.86
Si  6.53 -8.08 -0.86
Si -2.46 -4.95  8.89
Si  2.46  4.95 -8.89
Si  1.24 10.40  0.86
Si -1.24 -10.40 -0.86
Si  4.41 -9.24 -2.39
Si -4.41  9.24  2.39
Si  6.91 -6.79 -4.11
Si -6.91  6.79  4.11
Si -3.16  8.31 -5.64
Si  3.16 -8.31  5.64
Si  4.24  9.36 -2.39
Si -4.24 -9.36  2.39
Si -6.95 -6.79 -4.11
Si  6.95  6.79  4.11
Si -5.08 -2.62  8.89
Si  5.08  2.62 -8.89
Si -0.57 10.52 -0.86
Si  0.57 -10.52  0.86
Si -4.58 -6.11  7.35
Si  4.58  6.11 -7.35
Si  7.50 -1.46  7.35
Si -7.50  1.46 -7.35
Si -2.43 -9.48  4.11
Si  2.43  9.48 -4.11
Si  6.66 -3.79  7.35
Si -6.66  3.79 -7.35
Si -1.04  0.42 -10.60
Si  1.04 -0.42 10.60
Si -2.22 10.40  0.86
Si  2.22 -10.40 -0.86
Si -10.03  3.55 -0.86
Si 10.03 -3.55  0.86
Si  5.31 -2.62  8.89
Si -5.31  2.62 -8.89
Si -8.31  3.67 -5.64
Si  8.31 -3.67  5.64
Si  3.77  8.31 -5.64
Si -3.77 -8.31  5.64
Si -0.49 -7.84 -7.35
Si  0.49  7.84  7.35
Si -6.16  0.30 -8.89
Si  6.16 -0.30  8.89
Si -4.38 -4.35 -8.89
Si  4.38  4.35  8.89
Si -9.16  1.34 -5.64
Si  9.16 -1.34  5.64
Si -9.48 -4.71  2.39
Si  9.48  4.71 -2.39
Si  4.79 -7.96 -5.64
Si -4.79  7.96  5.64
Si -9.57  4.59  2.39
Si  9.57 -4.59 -2.39
Si -2.43 -0.42 10.60
Si  2.43  0.42 -10.60
Si  1.58 -1.91 -10.60
Si -1.58  1.91 10.60
Si -10.38 -2.27 -2.39
Si 10.38  2.27  2.39
Si  4.33  9.12  4.11
Si -4.33 -9.12 -4.11
Si 10.41 -2.27 -2.39
Si -10.41  2.27  2.39
Si  1.89  1.91 10.60
Si -1.89 -1.91 -10.60
Si -9.19  5.87 -0.86
Si  9.19 -5.87  0.86
Si -7.33 -8.08 -0.86
Si  7.33  8.08  0.86
Si  2.90 10.52 -0.86
Si -2.90 -10.52  0.86
Si  0.20 -2.74 10.60
Si -0.20  2.74 -10.60
Si  7.20  3.79 -7.35
Si -7.20 -3.79  7.35
Si -10.88  1.22 -0.86
Si 10.88 -1.22  0.86
Si -4.47  4.95 -8.89
Si  4.47 -4.95  8.89
Si  7.47 -5.99  5.64
Si -7.47  5.99 -5.64
Si -2.98  7.84  7.35
Si  2.98 -7.84 -7.35
Si  8.35  0.86  7.35
Si -8.35 -0.86 -7.35
Si -5.81  6.11 -7.35
Si  5.81 -6.11  7.35
Si  1.70 -6.68 -8.89
Si -1.70  6.68  8.89
Si  9.02  3.67 -5.64
Si -9.02 -3.67  5.64
Si -5.61 -7.96 -5.64
Si  5.61  7.96  5.64
Si -1.76 -6.68 -8.89
Si  1.76  6.68  8.89
Si  5.99  9.24  2.39
Si -5.99 -9.24 -2.39
Si  4.50 -9.48  4.11
Si -4.50  9.48 -4.11
Si  1.50 -8.44  7.35
Si -1.50  8.44 -7.35
Si  8.61  6.91  2.39
Si -8.61 -6.91 -2.39
Si  6.57  5.51  7.35
Si -6.57 -5.51 -7.35
Si  4.03 -10.52  0.86
Si -4.03 10.52 -0.86
Si  9.57  4.47  4.11
Si -9.57 -4.47 -4.11
Si -10.29 -2.50  4.11
Si 10.29  2.50 -4.11
Si -10.76 -3.55  0.86
Si 10.76  3.55 -0.86
Si  1.96  8.44 -7.35
Si -1.96 -8.44  7.35
Si  8.72 -6.91 -2.39
Si -8.72  6.91  2.39
Si  6.86 -2.03 -8.89
Si -6.86  2.03  8.89
Si  8.13 -3.19 -7.35
Si -8.13  3.19  7.35
Si -3.27 -2.74 10.60
Si  3.27  2.74 -10.60
Si -0.74  4.23 10.60
Si  0.74 -4.23 -10.60
Si -4.71 -10.40 -0.86
Si  4.71 10.40  0.86
Si -3.95 -7.84 -7.35
Si  3.95  7.84  7.35
Si -6.16  9.36 -2.39
Si  6.16 -9.36  2.39
Si -8.23 -5.63 -5.64
Si  8.23  5.63  5.64
Si  0.16 -7.27  8.89
Si -0.16  7.27 -8.89
Si -7.00 -2.03 -8.89
Si  7.00  2.03  8.89
Si -11.26 -0.06  2.39
Si 11.26  0.06 -2.39
Si  9.95  5.75  0.86
Si -9.95 -5.75 -0.86
Si 10.00  0.98  5.64
Si -10.00 -0.98 -5.64
