500
set: 1022.00  0.00  0.00
Si  0.42 -1.22  0.89
Si -0.34  1.30 -0.91
Si -1.35 -1.21 -0.79
Si  1.41  1.17  0.82
Si  2.14 -1.19 -0.79
Si -2.15  1.20  0.80
Si  0.83 -0.02 -2.49
Si -0.93  0.00  2.52
Si -0.03  2.40  2.44
Si -3.19 -1.24  0.80
Si  3.19  1.21 -0.84
Si -0.04 -2.51 -2.49
Si -2.62  0.05 -2.48
Si  2.69  0.03  2.51
Si  0.52  3.61 -0.79
Si -0.46 -3.65  0.82
Si  1.83  2.31 -2.49
Si -1.32  3.58  0.80
Si -1.89 -2.42  2.44
Si  1.75 -2.46  2.53
Si  1.33 -3.61 -0.84
Si -1.81  2.49 -2.52
Si -3.96  1.21 -0.84
Si  3.97 -1.24  0.80
Si -2.21 -3.52 -0.91
Si  0.90 -0.10  4.18
Si -0.96 -0.01 -4.23
Si  2.29  3.60  0.89
Si  0.00  2.41 -4.15
Si -0.10 -2.44  4.18
Si  3.14 -3.62  0.80
Si -3.14  3.62 -0.79
Si  3.47 -2.33 -2.52
Si  2.69 -0.05 -4.14
Si -3.53  2.36  2.53
Si -2.75  0.08  4.15
Si  3.62  2.36  2.53
Si -3.68 -2.33 -2.52
Si  1.76 -2.38 -4.16
Si -4.46  0.03  2.51
Si  1.77  2.38  4.18
Si -1.69  2.46  4.19
Si -1.86 -2.40 -4.15
Si  4.53  0.05 -2.48
Si  5.00  1.20  0.80
Si -5.01 -1.19 -0.79
Si -4.02 -3.62  0.80
Si  4.01  3.62 -0.79
Si  0.83 -4.79  2.51
Si -0.76  4.87 -2.48
Si  0.94  4.82  2.52
Si -1.04 -4.84 -2.49
Si -5.75  1.17  0.82
Si -3.52  2.44 -4.16
Si -3.56 -2.36  4.19
Si  5.81 -1.21 -0.79
Si  0.47 -1.24 -5.85
Si  2.66 -4.77 -2.48
Si -1.27 -1.11  5.76
Si  3.60 -2.36  4.19
Si -0.41  1.20  5.88
Si  2.70  4.79 -2.49
Si  3.63  2.44 -4.16
Si -2.59  4.85  2.51
Si  1.36  1.19 -5.78
Si  4.41  0.08  4.15
Si  0.28 -6.01 -0.79
Si -0.28  6.02  0.80
Si -4.47 -0.05 -4.14
Si -2.80 -4.82  2.52
Si -4.86  3.60  0.89
Si  4.95 -3.52 -0.91
Si -1.44 -6.04  0.89
Si  5.26 -2.42  2.44
Si -5.32  2.31 -2.49
Si  2.26 -1.21  5.83
Si  1.53  6.12 -0.91
Si -2.25  1.17 -5.87
Si  5.34  2.49 -2.52
Si -2.09  6.03 -0.84
Si  0.82 -4.87 -4.14
Si -5.40 -2.46  2.53
Si  2.10 -6.06  0.80
Si  0.91  4.81 -4.23
Si -0.88  4.90  4.15
Si -0.97 -4.92  4.18
Si  6.22  0.00  2.52
Si -3.08 -1.21 -5.88
Si  3.08  1.21  5.88
Si  2.54 -4.74  4.15
Si -6.32 -0.02 -2.49
Si -2.60  4.77 -4.14
Si -0.51 -3.63 -5.78
Si  3.27  5.98  0.82
Si -3.21 -6.02 -0.79
Si  0.59  3.71  5.76
Si  2.77  4.72  4.18
Si  5.83  3.58  0.80
Si -6.73 -1.22  0.89
Si -5.83 -3.61 -0.84
Si  4.36 -4.82  2.52
Si  6.81  1.30 -0.91
Si -4.46  4.79 -2.49
Si  1.21 -3.60  5.88
Si -1.22  3.61 -5.88
Si -4.49 -4.77 -2.48
Si -2.83 -4.83 -4.23
Si  4.56  4.85  2.51
Si  5.29 -2.40 -4.15
Si -3.88  5.98  0.82
Si -5.39 -2.38 -4.16
Si -5.39  2.38  4.18
Si  3.94 -6.02 -0.79
Si  2.34  3.58 -5.85
Si  4.07 -1.21 -5.88
Si -4.07  1.21  5.88
Si -2.28 -3.62  5.88
Si  5.46  2.46  4.19
Si -3.02  3.61  5.83
Si  6.19 -0.01 -4.23
Si -6.25 -0.10  4.18
Si  3.03 -3.65 -5.87
Si -0.41  1.21 -7.46
Si -6.63  3.61 -0.79
Si  0.47 -1.25  7.50
Si -7.49  1.30 -0.91
Si  6.69 -3.65  0.82
Si -4.39  4.72  4.18
Si -0.12 -7.28  2.53
Si -4.89 -1.21  5.83
Si  7.58 -1.22  0.89
Si  0.06  7.31 -2.52
Si  4.90  1.17 -5.87
Si  4.33 -4.83 -4.23
Si  1.61 -7.15 -2.52
Si -1.27 -1.10 -7.58
Si  1.36  1.19  7.56
Si  4.55  4.77 -4.14
Si -1.67  7.18  2.53
Si -4.61 -4.74  4.15
Si  1.84  7.22  2.44
Si -2.25  1.17  7.47
Si  7.13  2.40  2.44
Si  5.06  6.03 -0.84
Si -5.05 -6.06  0.80
Si  2.26 -1.20 -7.51
Si  7.12 -2.51 -2.49
Si -7.18  2.40  2.44
Si -1.90 -7.33 -2.49
Si  4.13  3.61  5.83
Si -7.19 -2.51 -2.49
Si -4.12 -3.65 -5.87
Si  3.08  1.22 -7.46
Si -3.08 -1.21  7.47
Si  6.12 -4.84 -2.49
Si -6.21  4.82  2.52
Si -5.80  1.19 -5.78
Si -3.45  7.13 -2.49
Si  5.88 -1.11  5.76
Si -0.11 -7.20 -4.16
Si -6.33 -4.79  2.51
Si  3.39 -7.24  2.44
Si  5.71 -6.04  0.89
Si  7.98 -0.02 -2.49
Si -5.63  6.12 -0.91
Si  1.21 -3.60 -7.46
Si -4.82  3.58 -5.85
Si -1.21  3.61  7.47
Si -0.39  5.99 -5.87
Si  0.40 -6.02  5.83
Si  0.18  7.28  4.19
Si -0.51 -3.63  7.56
Si  3.70  7.13 -2.49
Si  6.40  4.87 -2.48
Si  4.87 -3.62  5.88
Si  0.55  8.39  0.80
Si -8.08  0.00  2.52
Si  0.59  3.71 -7.58
Si -7.62 -3.65  0.82
Si  1.73 -7.18  4.19
Si -0.54 -8.43 -0.84
Si -3.76 -7.24  2.44
Si  7.67  3.61 -0.79
Si -1.66  7.26 -4.16
Si -1.40 -6.06 -5.85
Si  1.46  6.02  5.88
Si  1.87  7.23 -4.15
Si  7.05 -2.44  4.18
Si  1.27 -8.44  0.80
Si -1.27  8.44 -0.79
Si -4.08  1.22 -7.46
Si  4.07 -1.21  7.47
Si -2.28 -3.61 -7.46
Si -1.97 -7.25  4.18
Si -7.15  2.41 -4.15
Si  7.16  2.41 -4.15
Si -8.50 -1.21 -0.79
Si  2.34  3.57  7.50
Si  8.56  1.17  0.82
Si  2.20 -6.02 -5.88
Si -2.21  6.03  5.88
Si -7.25 -2.44  4.18
Si  2.39  8.43 -0.79
Si -2.33 -8.47  0.82
Si -3.14 -5.93  5.76
Si  3.04 -3.65  7.47
Si -3.02  3.62 -7.51
Si  3.08 -8.33 -0.91
Si  3.22  6.01 -5.78
Si  6.19 -4.92  4.18
Si -6.25  4.81 -4.23
Si -6.68 -1.24 -5.85
Si -3.00  8.42  0.89
Si  6.28  4.90  4.15
Si -6.34 -4.87 -4.14
Si  3.42 -7.22 -4.15
Si  4.90  1.17  7.47
Si  6.74  1.20  5.88
Si -3.52  7.20  4.18
Si -4.89 -1.20 -7.51
Si  8.05 -0.10  4.18
Si  3.63  7.20  4.18
Si  5.94  3.61 -5.88
Si -5.94 -3.60  5.88
Si -3.73 -7.22 -4.15
Si -8.11 -0.01 -4.23
Si -0.96 -0.01  9.11
Si -6.88 -6.01 -0.79
Si  6.87  6.02  0.80
Si  4.01 -5.93  5.76
Si  0.90 -0.10 -9.16
Si -3.93  6.01 -5.78
Si -8.47  3.58  0.80
Si  8.48 -3.61 -0.84
Si -4.12 -3.65  7.47
Si -5.31  7.22  2.44
Si  4.13  3.62 -7.51
Si -4.08 -8.33 -0.91
Si  5.25 -7.33 -2.49
Si  5.49  7.18  2.53
Si -5.55 -7.15 -2.52
Si  9.30 -1.19 -0.79
Si -9.30  1.20  0.80
Si  4.16  8.42  0.89
Si -0.10 -2.43 -9.16
Si -6.56  3.71  5.76
Si  0.01  2.41  9.19
Si  6.64 -3.63 -5.78
Si  8.91 -2.46  2.53
Si -0.38  5.98  7.47
Si  2.69 -0.05  9.20
Si  7.43 -6.01 -0.79
Si -2.75  0.08 -9.19
Si -4.81  3.57  7.50
Si -7.43  6.02  0.80
Si -5.79  1.19  7.56
Si  8.99  2.31 -2.49
Si -7.91  4.87 -2.48
Si  4.87 -3.61 -7.46
Si  1.76  2.39 -9.16
Si -1.69  2.46 -9.15
Si  0.39 -6.02 -7.51
Si  7.98 -4.79  2.51
Si -8.96  2.49 -2.52
Si  1.76 -2.38  9.18
Si -7.57  1.20  5.88
Si  5.88 -1.10 -7.58
Si -9.05 -2.42  2.44
Si -1.86 -2.41  9.19
Si  7.62 -1.24 -5.85
Si  1.45  6.03 -7.46
Si -4.76  8.43 -0.79
Si -1.40 -6.06  7.50
Si  8.09  4.82  2.52
Si -4.95 -6.02 -5.88
Si  4.95  6.03  5.88
Si  4.82 -8.47  0.82
Si -8.19 -4.84 -2.49
Si  2.20 -6.03  7.47
Si  5.18 -7.25  4.18
Si -2.21  6.04 -7.46
Si -5.28  7.23 -4.15
Si -5.42 -7.18  4.19
Si  0.80 -9.59 -2.48
Si -1.04 -9.61  2.51
Si  5.50  7.26 -4.16
Si -0.72  9.67  2.51
Si -9.36 -3.52 -0.91
Si  1.11  9.69 -2.48
Si -9.78  0.05 -2.48
Si -8.84  2.46  4.19
Si -3.56 -2.36 -9.15
Si  3.60 -2.36 -9.15
Si -6.68 -1.25  7.50
Si  8.91 -2.38 -4.16
Si -3.14 -5.92 -7.58
Si  6.74  1.21 -7.46
Si -3.52  2.44  9.18
Si  8.92  2.38  4.18
Si  9.44  3.60  0.89
Si  9.85  0.03  2.51
Si -5.70  6.02  5.88
Si  3.63  2.44  9.18
Si  3.23  6.00  7.56
Si  4.41  0.08 -9.19
Si -5.94 -3.60 -7.46
Si  5.75 -6.06 -5.85
Si  5.94  3.61  7.47
Si -9.02 -2.40 -4.15
Si  7.97 -4.87 -4.14
Si -4.47 -0.05  9.20
Si -2.59  9.61 -2.49
Si -7.67 -3.63 -5.78
Si  2.49 -9.63  2.52
Si -8.43 -1.11  5.76
Si -8.03  4.90  4.15
Si -0.66 -8.42  5.88
Si  8.06  4.81 -4.23
Si  0.65  8.43 -5.88
Si -5.88 -8.44  0.80
Si -1.16  8.43  5.83
Si  5.88  8.44 -0.79
Si  0.91  4.81  9.11
Si  7.75  3.71  5.76
Si  2.81  9.64  2.52
Si  8.51  1.19 -5.78
Si  1.17 -8.47 -5.87
Si -8.12 -4.92  4.18
Si -2.90 -9.66 -2.49
Si  4.01 -5.92 -7.58
Si -3.93  6.00  7.56
Si  7.04 -7.28  2.53
Si -0.97 -4.92 -9.16
Si  0.82 -4.87  9.20
Si  0.67 -9.56  4.15
Si -10.34 -1.24  0.80
Si -0.88  4.90 -9.19
Si 10.35  1.21 -0.84
Si -0.73  9.59 -4.14
Si -7.10  7.31 -2.52
Si -2.38 -8.45 -5.78
Si -8.60 -6.04  0.89
Si  7.21  7.31 -2.52
Si  2.46  8.53  5.76
Si -1.05 -9.69 -4.14
Si -7.27 -7.28  2.53
Si  0.99  9.72  4.15
Si  2.54 -4.74 -9.19
Si -2.95  8.39 -5.85
Si  8.68  6.12 -0.91
Si  2.77  4.72 -9.16
Si  9.84 -0.05 -4.14
Si -2.60  4.77  9.20
Si -6.56  3.71 -7.58
Si -2.83 -4.83  9.11
Si -7.57  1.21 -7.46
Si  6.64 -3.63  7.56
Si -6.60  8.39  0.80
Si  3.01 -8.43  5.88
Si -2.52  9.54  4.18
Si -9.90  0.08  4.15
Si  6.61 -8.43 -0.84
Si  7.62 -1.25  7.50
Si -6.76 -6.02  5.83
Si  6.77  5.99 -5.87
Si  4.94  6.04 -7.46
Si -4.95 -6.03  7.47
Si  2.46 -9.65 -4.23
Si  8.37 -3.60  5.88
Si  4.25 -9.66 -2.49
Si -8.37  3.61 -5.88
Si -0.93  0.01 -10.82
Si -4.35  9.64  2.52
Si  5.29 -2.41  9.19
Si  2.77  9.63 -4.23
Si -0.22 10.84 -0.84
Si  0.83 -0.03 10.85
Si -5.39  2.39 -9.16
Si  7.05 -7.20 -4.16
Si -5.39 -2.38  9.18
Si  0.23 -10.88  0.80
Si -6.97  7.28  4.19
Si  4.57  9.61 -2.49
Si 10.29 -3.62  0.80
Si  5.46  2.46 -9.15
Si -10.29  3.62 -0.79
Si -2.83 -9.74  4.18
Si -1.59 -10.83 -0.79
Si  1.59 10.84  0.80
Si -4.66 -9.63  2.52
Si -2.01 10.80  0.82
Si  6.20 -0.01  9.11
Si -7.26 -7.20 -4.16
Si  4.21  8.39 -5.85
Si -9.24  6.03 -0.84
Si  2.07 -10.84 -0.79
Si -4.15 -8.43  5.88
Si  9.25 -6.06  0.80
Si -6.26 -0.10 -9.16
Si  9.42 -1.21  5.83
Si -0.03 -2.51 10.86
Si -9.41  1.17 -5.87
Si  7.33  7.28  4.19
Si -5.70  6.03 -7.46
Si -0.03  2.40 -10.90
Si  2.69  0.04 -10.84
Si 10.63 -2.33 -2.52
Si -9.74  4.85  2.51
Si -2.62  0.05 10.86
Si  4.33 -4.83  9.11
Si  9.81 -4.77 -2.48
Si -4.39  4.72 -9.16
Si -11.11  1.21 -0.84
Si 11.12 -1.24  0.80
Si  1.75 -2.46 -10.82
Si  5.76 -6.06  7.50
Si -10.69  2.36  2.53
Si  9.85  4.79 -2.49
Si  1.83  2.31 10.86
Si -1.81  2.49 10.82
Si -0.66 -8.42 -7.46
Si -7.54  5.99 -5.87
Si  0.65  8.43  7.47
Si  7.55 -6.02  5.83
Si  4.77 -8.45 -5.78
Si -4.69  8.53  5.76
Si 10.77  2.36  2.53
Si  4.55  4.77  9.20
Si -4.62 -4.74 -9.19
Si -1.90 -2.42 -10.90
Si -9.95 -4.82  2.52
Si -1.16  8.44 -7.51
Si  1.17 -8.47  7.47
Si -7.66 -3.63  7.56
Si -10.83 -2.33 -2.52
Si -3.31 -10.86  0.89
Si -8.43 -1.10 -7.58
Si -4.38  9.63 -4.23
Si  4.63  9.54  4.18
Si  7.70  8.39  0.80
Si -7.69 -8.43 -0.84
Si  4.32 -9.74  4.18
Si  8.51  1.19  7.56
Si  7.75  3.71 -7.58
Si  3.40 10.94 -0.91
Si -4.70 -9.65 -4.23
Si  3.84 -10.86  0.89
Si  9.69 -4.74  4.15
Si  8.76 -7.15 -2.52
Si -2.38 -8.45  7.56
Si -3.76 10.94 -0.91
Si  3.48 -2.33 10.82
Si -3.54  2.36 -10.82
Si -9.75  4.77 -4.14
Si -2.95  8.39  7.50
Si  3.62  2.36 -10.82
Si -8.82  7.18  2.53
Si  3.00 -8.43 -7.46
Si  6.11 -9.61  2.51
Si -0.10 -7.20  9.18
Si -3.68 -2.33 10.82
Si  2.46  8.53 -7.58
Si -6.04  9.69 -2.48
Si -9.43 -3.62  5.88
Si  0.18  7.28 -9.15
Si  9.49  3.58 -5.85
Si -4.46  0.04 -10.84
Si -10.68  2.44 -4.16
Si  6.77  5.98  7.47
Si -10.71 -2.36  4.19
Si  9.92  4.72  4.18
Si  1.73 -7.17 -9.15
Si -6.76 -6.02 -7.51
Si 11.16  3.62 -0.79
Si -11.17 -3.62  0.80
Si -6.36 -9.59 -2.48
Si  4.53  0.05 10.86
Si  8.36 -3.60 -7.46
Si 10.75 -2.36  4.19
Si -8.37  3.61  7.47
Si  8.99  7.22  2.44
Si  7.05 -2.43 -9.16
Si 10.78  2.44 -4.16
Si -1.66  7.26  9.18
Si  1.87  7.23  9.19
Si -1.97 -7.25 -9.16
Si 10.23  1.21  5.88
Si -10.24 -1.21 -5.88
Si -9.98 -4.83 -4.23
Si  0.82 -4.78 -10.84
Si  6.00  8.43  5.83
Si -11.61  0.03  2.51
Si  6.43  9.67  2.51
Si -7.15  2.41  9.19
Si  0.94  4.83 -10.82
Si  7.16  2.41  9.19
Si -9.06 -7.33 -2.49
Si -5.99 -8.47 -5.87
Si -0.75  4.87 10.86
Si -1.03 -4.85 10.85
