500
set: 1264.00  0.00  0.00
Si  0.18  0.37 -1.23
Si -1.52 -0.91 -0.24
Si  1.70  1.74 -0.21
Si  1.54 -2.04  0.67
Si -0.68 -2.04  1.58
Si  1.43 -1.59 -1.72
Si  2.66  0.04  1.15
Si -0.90  1.34 -3.00
Si  0.60  3.30  1.12
Si -1.80 -2.29 -2.16
Si -3.60 -0.27  0.56
Si -1.81  3.37  0.92
Si -3.09  1.63  1.87
Si -0.82 -1.16  3.79
Si  2.56  0.54  3.43
Si -2.14 -0.50 -3.73
Si  0.29 -2.98 -3.17
Si  2.82  2.59 -2.17
Si  1.49  2.65  3.31
Si -2.39  0.61  3.93
Si  3.13 -1.20 -3.30
Si -2.47 -3.60  1.80
Si  1.41 -1.19  4.47
Si  2.12 -3.96  1.90
Si -1.84  3.54 -3.00
Si  4.14  0.77 -2.72
Si  4.99  0.03  0.99
Si  0.46  1.58 -4.85
Si -4.25 -2.02  2.07
Si -2.95  4.28 -1.03
Si -5.31 -0.39 -0.96
Si  1.82 -0.42 -5.15
Si  1.58  3.46 -4.01
Si  1.47  5.33  0.22
Si -3.51 -3.86 -1.89
Si  1.83 -4.75 -2.69
Si  5.69  0.83 -1.03
Si -2.80 -5.13 -0.01
Si -5.18  1.29 -2.63
Si  2.60 -3.36  4.19
Si  4.17 -4.19  0.88
Si -3.89  0.82 -4.51
Si  0.12  3.15  5.13
Si -4.45 -0.54  4.01
Si  0.53 -5.79  1.62
Si -2.19  5.01  2.54
Si  5.54 -2.25  1.03
Si -0.08  5.05 -3.50
Si -1.63 -1.58 -5.74
Si  0.59 -2.39 -5.67
Si -1.69 -2.85  5.21
Si -5.14  2.72  2.38
Si -5.06  3.43 -1.65
Si  4.75  0.06  4.24
Si -1.89  2.10  5.71
Si  4.52  4.15 -1.75
Si -5.55 -2.65 -1.70
Si  3.74 -5.04 -1.24
Si -0.80 -6.40 -0.37
Si -2.92  2.91 -5.03
Si  3.00  4.39  3.79
Si -2.55 -4.58  3.94
Si  3.81  5.40  0.09
Si  0.47  6.40 -1.64
Si -0.64  5.13  4.30
Si  4.58 -3.02 -4.04
Si  6.28  1.04  2.72
Si  0.26 -6.46 -2.49
Si  1.58 -0.65  6.72
Si  4.81 -2.33  4.51
Si -1.08  2.59 -6.42
Si -6.46  2.78  0.31
Si -3.27 -4.87 -4.01
Si  4.67  4.90  2.26
Si -0.89 -6.18  3.52
Si  5.47  1.33 -4.49
Si -7.20  0.43  0.10
Si  6.48  3.00 -1.23
Si  0.97  6.98  1.75
Si -3.32 -3.18 -5.65
Si -4.28  4.58  3.74
Si -1.35  7.02  1.59
Si -6.23  1.06  3.71
Si  5.71 -4.03 -2.23
Si -6.21 -3.45  1.90
Si  1.41  6.11  3.84
Si  3.27 -4.88 -4.58
Si  2.98  0.61 -6.89
Si  7.03 -2.68 -0.71
Si -3.35  6.70 -1.11
Si  7.50 -0.51 -1.46
Si  6.44 -3.07  2.99
Si  1.61 -4.69  5.95
Si  2.78  4.27 -5.84
Si -1.41 -6.41 -4.21
Si -1.29  7.67 -0.62
Si -0.35 -3.82  6.85
Si  4.22  2.43 -6.16
Si -3.64  3.65  5.93
Si  1.67  3.52  6.87
Si  2.12 -7.49  1.40
Si  6.60  3.50  2.60
Si  1.67 -4.52 -6.27
Si -3.17 -2.29  6.90
Si -4.00 -6.74  1.24
Si  1.13  1.40  7.75
Si  3.15 -7.31 -0.73
Si -6.65 -2.50 -3.76
Si -7.14 -3.69 -0.27
Si -5.10 -1.32  6.11
Si  5.83 -5.18  2.22
Si -1.23  1.43  7.90
Si -5.11 -0.04 -6.33
Si -5.30  5.01 -3.61
Si  4.39 -5.63  3.95
Si -1.79 -0.74 -7.94
Si -7.86  0.00  2.40
Si -7.14  1.38 -3.86
Si -5.48 -2.22 -5.74
Si  3.76  4.28  6.01
Si  0.06 -1.88  8.10
Si  5.30  0.55  6.41
Si  7.22  2.56 -3.43
Si -0.61  6.46 -5.36
Si  5.29  5.54 -3.51
Si  0.40 -1.96 -8.21
Si -5.66 -5.73  2.60
Si -2.40 -7.76  2.69
Si -0.90  1.35 -8.41
Si -4.51  4.46 -5.79
Si  0.51 -6.75  5.30
Si -4.64 -5.57  4.66
Si  6.62 -0.52 -5.50
Si  3.69 -0.62  7.79
Si -0.82  4.83 -7.12
Si -7.71 -2.24  3.25
Si -2.13 -0.67  8.37
Si  7.76  3.84  0.59
Si -0.09 -6.14 -6.20
Si  1.77  8.22 -2.44
Si  8.44  0.00  2.40
Si  1.47  1.33 -8.56
Si  1.79 -8.27 -2.44
Si -4.10  7.06 -3.32
Si  5.92 -2.78 -5.97
Si -1.77  6.55  5.72
Si  4.71  7.52 -0.41
Si -1.27 -8.81 -0.62
Si -8.80 -0.51 -1.46
Si -8.13 -0.71 -3.71
Si  8.17 -0.71 -3.71
Si -4.50  0.21  7.82
Si  5.52  2.87  6.57
Si  3.59 -7.69  3.23
Si  3.99  6.16 -5.35
Si  9.10  0.43  0.10
Si -5.33 -5.84 -4.54
Si -5.24  2.35  7.14
Si -6.98 -2.57  5.48
Si  5.70 -3.13  6.57
Si -3.42  7.43  4.34
Si -4.96  7.83  0.29
Si  1.43  4.94 -7.75
Si -6.81  1.51 -6.16
Si  5.20  7.08  3.09
Si -3.18 -4.03 -7.81
Si  2.11  9.00  1.40
Si -8.54  3.84  0.59
Si -7.15  1.62  5.89
Si  4.03 -0.69 -8.52
Si -2.42  8.73  2.69
Si -4.17  0.14 -8.48
Si  8.59 -2.24  3.25
Si -6.18  5.93  4.03
Si -2.36  7.92 -4.72
Si -2.82  5.33  7.46
Si  4.61 -2.88 -7.94
Si  2.03  8.12  4.77
Si  7.38 -5.60 -2.66
Si  7.22  4.60 -4.43
Si  4.59 -6.89 -4.97
Si  2.71 -4.59  8.07
Si -9.27 -2.68 -0.71
Si -7.39 -4.67 -4.18
Si -1.34 -9.47  1.59
Si  2.79  8.06 -4.62
Si  0.98 -9.51  1.75
Si  3.13  9.18 -0.73
Si  6.10  7.32 -2.25
Si  5.54 -5.42  5.98
Si  2.64  0.69  9.41
Si  1.92 -0.72 -9.59
Si  4.28 -2.80  8.37
Si -6.47  7.11  1.99
Si -7.80 -5.93 -0.62
Si -1.32 -5.39 -8.12
Si  2.05 -8.37  4.77
Si  9.16 -3.69 -0.27
Si -1.66 -5.32  8.18
Si -5.88  3.29 -7.27
Si  3.04 -4.66 -8.24
Si -4.94 -8.65  0.29
Si  1.09  5.01  8.56
Si  7.32 -6.68  1.28
Si  6.08  2.84 -7.43
Si  2.81 -8.43 -4.62
Si -3.52 -3.96  8.50
Si -6.47 -4.80  5.95
Si  3.58  8.80  3.23
Si  9.16  1.38 -3.86
Si -9.08  2.56 -3.43
Si  6.36  7.69  1.19
Si -2.34 -8.57 -4.72
Si -2.83 -2.36 -9.40
Si -0.81 10.09 -0.37
Si -7.43  5.90 -3.54
Si  4.73 -8.97 -0.41
Si  7.83  4.90  4.24
Si  8.08  6.16  0.68
Si -0.01 -3.89 -9.46
Si  9.84  2.78  0.31
Si  0.49 -10.09 -1.64
Si -6.53 -7.79 -1.21
Si  2.00  3.44 -9.44
Si  0.96  8.17 -6.11
Si -5.78 -7.78 -3.40
Si -8.22  6.16  0.68
Si  7.56  0.14  7.02
Si  0.24 10.03 -2.49
Si -9.82  3.00 -1.23
Si -1.42  2.66  9.89
Si  0.97 -8.32 -6.11
Si  8.49 -5.93 -0.62
Si  7.50  0.94 -7.15
Si -3.34 -9.79 -1.11
Si  4.70  6.38  6.78
Si -10.02  1.04  2.72
Si -4.25 -7.54  5.85
Si -1.16  4.90  9.18
Si  7.76  3.55  6.12
Si -4.14  6.20 -7.40
Si -6.88 -3.25 -7.35
Si -2.49  5.26 -8.85
Si -3.40 -9.06  4.34
Si -4.02  9.75  1.24
Si  6.47  6.76  5.03
Si  6.56 -7.47 -3.74
Si -9.70  3.50  2.60
Si -4.90  2.28 -9.17
Si  9.65 -2.50 -3.76
Si -8.02  6.88 -1.50
Si -8.47  4.90  4.24
Si -0.56  8.21  6.80
Si -10.61  0.83 -1.03
Si -0.54 -8.28  6.80
Si  4.08 -6.45  7.56
Si -9.86 -3.07  2.99
Si 10.07  1.06  3.71
Si -7.39 -7.33  2.85
Si -4.08 -9.43 -3.32
Si  7.82 -2.17  7.16
Si -5.22 -6.71 -6.71
Si 10.09 -3.45  1.90
Si  0.51 10.70  1.62
Si -1.97 -1.50 10.57
Si -8.92 -5.60 -2.66
Si  8.28  6.88 -1.50
Si -2.57 -7.36  7.58
Si  7.76 -4.41 -6.21
Si  8.91 -4.67 -4.18
Si  0.25 -2.31 10.64
Si  7.05  4.86 -6.73
Si -1.55  2.02 -10.59
Si -5.34 -4.87 -8.17
Si -0.91 10.31  3.52
Si  6.38 -8.80  1.19
Si -6.54  8.70 -1.21
Si  5.74  2.92  8.87
Si  3.06  8.06  6.80
Si  9.15  1.62  5.89
Si -5.79  8.71 -3.40
Si -1.42 10.08 -4.21
Si -5.68 -4.79  8.14
Si  1.24  7.35  8.12
Si -10.76 -2.25  1.03
Si 10.99 -0.39 -0.96
Si  1.33 -4.45 10.04
Si  1.57  7.28 -8.19
Si -8.54  3.55  6.12
Si -9.07  4.60 -4.43
Si  0.49  9.74  5.30
Si  9.32 -2.57  5.48
Si -3.35 -8.15 -6.80
Si -9.68 -0.52 -5.50
Si  3.88  2.50 10.15
Si  1.42 -10.38  3.84
Si  5.21 -9.41  3.09
Si  5.51  6.60 -7.17
Si 10.75 -2.65 -1.70
Si -8.74  0.14  7.02
Si  8.87  5.90 -3.54
Si  6.11 -9.17 -2.25
Si  1.49 -11.15  0.22
Si  1.48 -0.34 11.16
Si  3.08 -8.43  6.80
Si -8.98 -6.68  1.28
Si -3.36  8.34 -6.80
Si -8.48 -2.17  7.16
Si -4.76 -1.40 -10.20
Si -11.31  0.03  0.99
Si -5.44  0.04  9.97
Si -8.80  0.94 -7.15
Si -6.20  7.55  5.84
Si -0.59 -10.03 -5.36
Si  5.63  0.48 -9.89
Si  9.49  1.51 -6.16
Si -8.54 -4.41 -6.21
Si -3.30  3.58 -10.37
Si -6.21  3.37  9.04
Si 11.12  1.29 -2.63
Si -4.26  8.95  5.85
Si -10.59 -4.03 -2.23
Si -1.36 -2.93 -11.09
Si -6.46 -9.38  1.99
Si  1.95 -4.76 -10.36
Si  0.13  1.65 11.46
Si  2.44  4.34 10.46
Si -1.75 -9.94  5.72
Si  0.45  3.08 -11.18
Si  7.16  1.01  9.16
Si -2.23 -7.43 -8.73
Si -3.66 -3.11 10.66
Si  5.86  2.79 -9.73
Si -2.82 11.35 -0.01
Si  5.63 -7.48 -7.03
Si  3.82 -11.09  0.09
Si 11.16  2.72  2.38
Si  4.57  9.60 -4.97
Si  6.55  9.01 -3.74
Si  7.76 -6.08  6.39
Si  4.42 -6.52 -8.75
Si -4.48  6.28  8.91
Si -0.42 -6.07 10.11
Si -10.83  1.33 -4.49
Si  4.10  4.21 -10.30
Si 11.24  3.43 -1.65
Si -10.47 -5.18  2.22
Si  8.91 -7.33  2.85
Si  6.04 -3.21 -9.74
Si -7.21 -3.17  8.96
Si -2.17 -11.47  2.54
Si -0.06 -11.44 -3.50
Si -7.69  7.97 -4.62
Si  1.75 -1.26 -11.83
Si  5.58 -2.70 10.34
Si -0.10 10.35 -6.20
Si -7.49  4.66 -8.24
Si  3.73 11.45 -1.24
Si -3.26  2.98 11.28
Si -7.40  9.15  2.85
Si -2.58  9.13  7.58
Si -0.62 -11.36  4.30
Si  1.81 11.74 -2.69
Si  7.90  0.07 -9.29
Si -7.82  4.74  8.07
Si -5.82 -2.14 10.57
Si -8.54 -6.08  6.39
Si  1.25 -9.14  8.12
Si  9.83  7.11  1.99
Si  7.31  9.80  1.28
Si -10.38 -2.78 -5.97
Si  4.00 -10.32 -5.35
Si -11.55  0.06  4.24
Si -6.19 -8.94  5.84
Si  4.37 10.86  3.95
Si 10.64 -5.73  2.60
Si -7.68 -8.52 -4.62
Si -6.29  6.66 -8.31
Si -6.62  6.74  7.99
Si  9.42 -3.25 -7.35
Si 12.04 -2.02  2.07
Si 10.12  5.93  4.03
Si  1.59 -9.21 -8.19
Si -9.25  4.86 -6.73
Si -4.85  4.53 10.52
Si  5.17  6.67  9.14
Si -5.68 10.76  2.60
Si -8.14 -2.25 -9.14
Si 10.82 -2.22 -5.74
Si  9.83 -4.80  5.95
Si  8.13 -7.96  5.07
Si  8.16 -2.25 -9.14
Si -12.15  0.77 -2.72
Si -8.17 -7.96  5.07
Si  5.04  6.30 -9.52
Si -1.43  6.47 -10.58
Si  6.28 -0.45 10.80
Si -0.22  8.13 -9.51
Si -7.15  1.58 10.15
Si 11.85 -0.54  4.01
Si -8.40  0.07 -9.29
Si -6.82  1.54 -10.41
Si  7.68 -6.47 -7.52
Si  9.77 -7.79 -1.21
Si -2.05  0.54 -12.38
Si -11.49 -2.33  4.51
Si -4.22  0.89 11.79
Si -0.48 -1.24 -12.52
Si -8.00 -9.61 -1.50
Si  8.61  7.97 -4.62
Si -2.93 -12.21 -1.03
Si -11.78  4.15 -1.75
Si 11.00  5.01 -3.61
Si -9.94  7.69  1.19
Si  8.47  4.74  8.07
Si -0.21 -8.35 -9.51
Si  5.31 -10.95 -3.51
Si  6.71  4.93  9.58
Si  4.68 -11.59  2.26
Si 12.70 -0.27  0.56
Si -3.28 11.62 -4.01
Si  5.61  9.01 -7.03
Si  6.48 -9.73  5.03
Si -11.00  0.55  6.41
Si -5.34 10.65 -4.54
Si -7.07 -8.10 -6.85
Si -4.66 10.92  4.66
Si -10.20  7.32 -2.25
Si -11.72 -3.02 -4.04
Si -2.25  9.06 -8.73
Si -0.95  6.53 10.95
Si  8.30 -9.61 -1.50
Si -2.57 11.91  3.94
Si -11.00  5.54 -3.51
Si  8.12  8.53  5.07
Si -2.48 -0.43 12.57
Si -11.63  4.90  2.26
Si 11.20 -1.32  6.11
Si -9.74 -7.47 -3.74
Si  2.11 12.52  1.90
Si  1.25  3.53 12.29
Si -10.60 -3.13  6.57
Si -12.13 -4.19  0.88
Si -8.18  8.53  5.07
Si 11.19 -0.04 -6.33
Si -6.16 -10.55  4.03
Si  3.40  7.99 -9.51
Si  3.25 11.61 -4.58
Si  5.82 11.30  2.22
Si -5.56 -6.64  9.60
Si  8.81  4.66 -8.24
Si  2.94 -3.43 -12.12
Si -7.09  8.39 -6.85
Si -10.78  2.87  6.57
Si -9.83  6.76  5.03
Si -10.22  2.84 -7.43
Si  5.13  1.41 11.81
Si -5.24  9.78 -6.71
Si -6.64 -2.64 -10.82
Si  8.62 -8.52 -4.62
Si  0.84 -6.83 -11.00
Si -4.12 -0.61 -12.29
Si -9.14  1.01  9.16
Si -6.13 -4.88 -10.36
Si  5.29 -7.41  9.28
Si -3.68 -8.07  9.51
Si  2.93 -4.81 11.73
Si  4.16 12.30  0.88
Si -0.30  5.05 -12.00
Si  3.02 -12.10  3.79
Si  4.71 -10.11  6.78
Si  8.90  9.15  2.85
Si  5.15 -2.40 -11.79
Si  5.88 -5.49 -10.33
Si  5.09 -0.02 -12.07
Si  7.35 -6.40  8.79
Si  9.75  8.70 -1.21
Si 10.42  3.29 -7.27
Si  3.65  6.24 10.96
Si  0.62  8.24 10.20
Si  0.64 -8.24 10.20
Si -5.28 -11.47 -3.61
Si -8.62 -6.47 -7.52
Si  8.09 -10.33  0.68
Si  9.09 -3.17  8.96
Si -7.82 10.55 -0.62
Si -4.26 -11.91  3.74
Si  3.42 -8.50 -9.51
Si  4.06 10.04  7.56
Si  2.90  0.47 -12.88
Si -8.21 -10.33  0.68
Si -3.70  8.41  9.51
Si 10.97 -5.84 -4.54
Si 12.41  0.82 -4.51
Si -3.52 12.63 -1.89
Si  0.61 -13.19  1.12
Si -2.49 12.89  1.80
Si  4.53 -12.34 -1.75
Si  7.42 -4.34 10.10
Si -1.79 -13.12  0.92
