500
set: 760.00  0.00  0.00
Si -0.45  1.22 -0.76
Si  0.42 -1.23  0.88
Si -1.32 -1.11 -0.85
Si  1.35  1.13  0.83
Si -0.87 -0.01  2.49
Si  0.85  0.05 -2.50
Si -2.23  1.14  0.85
Si  2.16 -1.23 -0.91
Si  3.05  1.22 -0.78
Si -3.13 -1.15  0.79
Si -0.03 -2.42 -2.46
Si  0.05  2.42  2.46
Si -2.65  0.01 -2.55
Si  2.72 -0.02  2.50
Si -0.49 -3.65  0.83
Si  0.52  3.67 -0.85
Si -1.65  2.40 -2.47
Si  1.20 -3.55 -0.78
Si -1.79 -2.36  2.46
Si  1.82  2.35 -2.46
Si  1.74 -2.43  2.49
Si -1.29  3.62  0.79
Si  3.97 -1.15  0.79
Si -0.88  0.03 -4.16
Si  0.90 -0.04  4.17
Si -2.30 -3.55 -0.76
Si  2.27  3.55  0.88
Si -4.06  1.22 -0.78
Si -0.07 -2.34  4.12
Si  0.05  2.38 -4.14
Si -3.09  3.55 -0.91
Si  3.02 -3.63  0.85
Si -2.57  0.01  4.15
Si -3.50 -2.38 -2.47
Si -3.52  2.35  2.49
Si  2.65 -0.04 -4.14
Si  3.58  2.35  2.49
Si  3.60 -2.38 -2.47
Si -1.72  2.40  4.07
Si -4.38 -0.02  2.50
Si  4.87  1.14  0.85
Si  1.79 -2.40 -4.13
Si  1.78  2.44  4.12
Si -1.80 -2.40 -4.14
Si  4.46  0.01 -2.55
Si -4.94 -1.23 -0.91
Si  4.01  3.55 -0.91
Si -1.00 -4.72 -2.50
Si  0.98  4.76  2.49
Si  0.87 -4.79  2.50
Si -0.80  4.79 -2.55
Si -4.08 -3.63  0.85
Si -3.47  2.37 -4.13
Si  3.54 -2.38  4.07
Si -3.56 -2.38  4.07
Si -5.75  1.13  0.83
Si -0.40  1.28  5.77
Si -2.54  4.76  2.50
Si  5.78 -1.11 -0.85
Si  0.42 -1.26 -5.79
Si  3.63  2.37 -4.13
Si -0.39  5.92  0.85
Si  2.61 -4.76 -2.55
Si  1.33  1.17 -5.75
Si  4.80 -3.55 -0.76
Si -2.71 -4.79  2.49
Si -4.84  3.55  0.88
Si  2.69  4.83 -2.50
Si -4.45 -0.04 -4.14
Si  0.32 -6.00 -0.91
Si -1.37 -1.17  5.86
Si  4.54  0.01  4.15
Si  1.39  6.00 -0.76
Si -1.43 -6.00  0.88
Si -5.28  2.35 -2.46
Si  5.31 -2.36  2.46
Si  2.13 -1.17  5.85
Si  2.12 -5.93  0.79
Si -2.22  1.24 -5.83
Si -0.72  4.79  4.15
Si -5.36 -2.43  2.49
Si  0.81 -4.81 -4.14
Si  0.97  4.81 -4.16
Si -2.21  6.00 -0.78
Si -0.94 -4.82  4.17
Si  5.45  2.40 -2.47
Si  3.09  1.16  5.72
Si -3.16 -1.24 -5.78
Si  6.23 -0.01  2.49
Si -6.25  0.05 -2.50
Si -3.17 -5.88 -0.85
Si  3.20  5.91  0.83
Si  6.65  1.22 -0.76
Si -0.51 -3.61 -5.75
Si -2.60  4.74 -4.14
Si -6.68 -1.23  0.88
Si  2.69 -4.77  4.15
Si -2.72 -4.74 -4.16
Si  1.25 -3.62  5.72
Si  2.75  4.74  4.17
Si -1.32  3.53 -5.78
Si  5.82  3.62  0.79
Si  0.48  3.61  5.86
Si -5.90 -3.55 -0.78
Si  4.39 -4.79  2.49
Si -4.41  4.83 -2.50
Si -4.49 -4.76 -2.55
Si  4.56  4.76  2.50
Si -4.01  1.16  5.72
Si  3.94 -1.24 -5.78
Si -2.24 -3.50  5.77
Si  3.93 -5.88 -0.85
Si -3.91  5.91  0.83
Si  5.30 -2.40 -4.14
Si -5.31 -2.40 -4.13
Si  2.27  3.52 -5.79
Si -5.33  2.44  4.12
Si  5.38  2.40  4.07
Si  3.04 -3.54 -5.83
Si -6.20 -0.04  4.17
Si  6.22  0.03 -4.16
Si -3.13  3.61  5.85
Si  0.43 -1.26  7.46
Si -6.58  3.67 -0.85
Si  0.19  7.18 -2.47
Si  6.61 -3.65  0.83
Si -0.41  1.28 -7.48
Si -1.38 -1.16 -7.39
Si -0.11 -7.20  2.49
Si -4.35  4.74  4.17
Si  7.52 -1.23  0.88
Si  4.38 -4.74 -4.16
Si -7.55  1.22 -0.76
Si  4.89  1.24 -5.83
Si  1.35  1.16  7.50
Si -4.41 -4.77  4.15
Si -1.67  7.12  2.49
Si  4.50  4.74 -4.14
Si -4.97 -1.17  5.85
Si  1.76 -7.15 -2.47
Si  4.89  6.00 -0.78
Si -4.98 -5.93  0.79
Si  2.12 -1.16 -7.41
Si -1.87 -7.20 -2.46
Si -2.20  1.23  7.42
Si  1.90  7.19  2.46
Si -7.05  2.42  2.46
Si  7.08 -2.42 -2.46
Si -7.13 -2.42 -2.46
Si  3.98  3.61  5.85
Si -4.06 -3.54 -5.83
Si  7.16  2.42  2.46
Si  6.10 -4.72 -2.50
Si -6.13  4.76  2.49
Si -3.15 -1.25  7.47
Si  3.08  1.16 -7.53
Si -5.77  1.17 -5.75
Si  0.46  3.61 -7.39
Si -6.23 -4.79  2.50
Si  0.13  7.17  4.07
Si -0.06 -7.18 -4.13
Si  5.73 -1.17  5.86
Si -3.44  7.13 -2.46
Si  3.46 -7.13  2.46
Si  5.68 -6.00  0.88
Si  6.30  4.79 -2.55
Si -5.71  6.00 -0.76
Si  4.86 -3.50  5.77
Si -4.84  3.52 -5.79
Si  7.95  0.05 -2.50
Si -0.50 -3.62  7.50
Si  0.28 -5.95  5.85
Si -7.97 -0.01  2.49
Si -1.30  3.53  7.47
Si -3.64 -7.13  2.46
Si  3.67  7.13 -2.46
Si -0.37  6.01 -5.83
Si -0.65 -8.33 -0.78
Si  1.69 -7.16  4.07
Si -1.62  7.15 -4.13
Si -1.91 -7.12  4.12
Si  1.23 -3.61 -7.53
Si  0.56  8.40  0.79
Si -1.25  8.32 -0.91
Si -7.60 -3.65  0.83
Si  1.89  7.15 -4.14
Si  7.03 -2.34  4.12
Si -1.43 -6.03 -5.79
Si  1.45  6.05  5.77
Si  7.62  3.67 -0.85
Si -7.05  2.38 -4.14
Si -2.16  5.93  5.72
Si  1.18 -8.41  0.85
Si -8.43 -1.11 -0.85
Si  3.95 -1.25  7.47
Si  2.28  3.51  7.46
Si -2.25 -3.49 -7.48
Si  8.45  1.13  0.83
Si  7.15  2.38 -4.14
Si -7.17 -2.34  4.12
Si  2.10 -6.02 -5.78
Si -4.02  1.16 -7.53
Si  3.06 -3.54  7.42
Si -2.34 -8.42  0.83
Si  2.37  8.44 -0.85
Si -3.14  3.61 -7.41
Si -6.13  4.81 -4.16
Si  3.18  5.94 -5.75
Si  6.16 -4.82  4.17
Si  2.96 -8.33 -0.76
Si -2.99  8.33  0.88
Si  5.79  3.53 -5.78
Si -6.68 -1.26 -5.79
Si -6.29 -4.81 -4.14
Si  6.71  1.28  5.77
Si -3.21 -5.94  5.86
Si -5.85 -3.62  5.72
Si  3.46 -7.17 -4.14
Si  4.90  1.23  7.42
Si  6.72  5.92  0.85
Si  6.38  4.79  4.15
Si -7.98  0.03 -4.16
Si -4.99 -1.16 -7.41
Si -3.48  7.21  4.12
Si  8.01 -0.04  4.17
Si -3.64 -7.17 -4.14
Si  3.62  7.21  4.12
Si  8.30 -3.55 -0.78
Si -6.78 -6.00 -0.91
Si  0.89 -0.03 -9.08
Si -0.86  0.03  9.09
Si  3.96  3.61 -7.41
Si -3.92  5.94 -5.75
Si -4.05 -3.54  7.42
Si -8.39  3.62  0.79
Si  3.89 -5.94  5.86
Si -5.20  7.19  2.46
Si  5.23 -7.20 -2.46
Si -5.34 -7.15 -2.47
Si  5.43  7.12  2.49
Si  4.11  8.33  0.88
Si -4.14 -8.33 -0.76
Si  9.27 -1.23 -0.91
Si -8.75  2.40 -2.47
Si  5.72 -1.16 -7.39
Si  0.06  2.37  9.11
Si -0.08 -2.33 -9.13
Si -9.33  1.14  0.85
Si -2.58  0.01 -9.10
Si  6.59 -3.61 -5.75
Si  2.67 -0.04  9.11
Si  0.27 -5.94 -7.41
Si  8.84 -2.43  2.49
Si -5.75  1.16  7.50
Si -8.89 -2.36  2.46
Si  8.92  2.35 -2.46
Si -7.50  1.28  5.77
Si -4.82  3.51  7.46
Si -0.36  6.01  7.42
Si -6.63  3.61  5.86
Si  4.85 -3.49 -7.48
Si  7.52 -1.26 -5.79
Si -7.49  5.92  0.85
Si -7.90  4.79 -2.55
Si  7.42 -6.00 -0.91
Si -1.78 -2.40  9.11
Si  1.80 -2.41  9.12
Si  4.94  5.93  5.72
Si  1.76  2.44 -9.13
Si  7.97 -4.79  2.50
Si -1.73  2.40 -9.18
Si -1.41 -6.04  7.46
Si  8.08  4.76  2.49
Si -8.10 -4.72 -2.50
Si  4.76 -8.42  0.83
Si -4.74  8.44 -0.85
Si  5.19 -7.12  4.12
Si -5.01 -6.02 -5.78
Si  1.44  6.06 -7.48
Si -5.21  7.15 -4.14
Si  2.11 -6.02  7.47
Si -2.18  5.94 -7.53
Si -5.41 -7.16  4.07
Si -0.69  9.53  2.50
Si  0.76 -9.54 -2.55
Si  5.48  7.15 -4.13
Si -0.97 -9.57  2.50
Si  1.04  9.56 -2.55
Si -8.82  2.40  4.07
Si -3.23 -5.94 -7.39
Si -3.46  2.37  9.12
Si  9.37  3.55  0.88
Si -7.82  4.79  4.15
Si -9.75  0.01 -2.55
Si -9.40 -3.55 -0.76
Si -6.67 -1.26  7.46
Si  3.19  5.93  7.50
Si  8.88  2.44  4.12
Si  8.89 -2.40 -4.13
Si -5.65  6.05  5.77
Si  5.80  3.53  7.47
Si -8.90 -2.40 -4.14
Si  3.65  2.37  9.12
Si  5.68 -6.03 -5.79
Si  3.53 -2.37 -9.18
Si  6.69  1.28 -7.48
Si  9.82 -0.02  2.50
Si  0.53  8.31 -5.78
Si -3.58 -2.37 -9.18
Si -4.43 -0.04  9.11
Si  7.91 -4.81 -4.14
Si  4.52  0.01 -9.10
Si -0.60 -8.40  5.72
Si -7.61 -3.61 -5.75
Si  2.54 -9.56  2.49
Si -5.87 -3.61 -7.53
Si  5.86  8.32 -0.91
Si  1.20 -8.31 -5.83
Si -2.84 -9.50 -2.50
Si  3.87 -5.94 -7.39
Si  7.58  3.61  5.86
Si -2.56  9.60 -2.50
Si 10.15  1.22 -0.78
Si  2.82  9.54  2.49
Si -8.04 -4.82  4.17
Si -6.91  7.18 -2.47
Si  8.07  4.81 -4.16
Si  8.44  1.17 -5.75
Si -1.28  8.38  5.85
Si -0.74  4.79 -9.10
Si -0.96 -4.81 -9.08
Si -5.92 -8.41  0.85
Si  0.98  4.80  9.09
Si -10.23 -1.15  0.79
Si -3.91  5.93  7.50
Si  0.82 -4.82  9.11
Si  6.99 -7.20  2.49
Si -8.47 -1.17  5.86
Si -0.76  9.52 -4.14
Si  8.49  6.00 -0.76
Si -2.36 -8.39 -5.75
Si  0.84 -9.54  4.15
Si -8.53 -6.00  0.88
Si  1.12  9.56  4.15
Si -7.21 -7.20  2.49
Si  2.32  8.38  5.86
Si -1.04 -9.59 -4.14
Si -9.67  0.01  4.15
Si  7.30  7.18 -2.47
Si  3.02 -8.28  5.77
Si -2.99  8.29 -5.79
Si  6.46 -8.33 -0.78
Si -6.64  3.61 -7.39
Si -2.59  4.73  9.11
Si  9.76 -0.04 -4.14
Si  2.73  4.74 -9.08
Si -2.71 -4.75  9.09
Si  2.68 -4.76 -9.10
Si  6.61 -3.62  7.50
Si -7.51  1.28 -7.48
Si -6.54  8.40  0.79
Si  7.54 -1.26  7.46
Si -2.51  9.51  4.17
Si  2.53 -9.52 -4.16
Si  4.26 -9.50 -2.50
Si  0.28 -10.70  0.79
Si -4.28  9.54  2.49
Si  6.73  6.01 -5.83
Si  8.35 -3.62  5.72
Si -6.82 -5.95  5.85
Si  4.92  5.94 -7.53
Si  0.86  0.04 10.75
Si 10.13 -3.63  0.85
Si -0.88 -0.01 -10.76
Si -6.97  7.17  4.07
Si -8.42  3.53 -5.78
Si -0.36 10.77 -0.78
Si -4.99 -6.02  7.47
Si -5.30 -2.41  9.12
Si  5.32 -2.40  9.11
Si  2.81  9.59 -4.16
Si -2.79 -9.59  4.17
Si  1.46 10.69  0.85
Si -10.20  3.55 -0.91
Si -5.34  2.44 -9.13
Si  7.04 -7.18 -4.13
Si -4.56 -9.56  2.49
Si -4.09 -8.28  5.77
Si  2.09 -10.66 -0.85
Si  5.37  2.40 -9.18
Si -2.06 10.68  0.83
Si  4.54  9.60 -2.50
Si  4.11  8.29 -5.79
Si -1.53 -10.78 -0.91
Si -7.16 -7.18 -4.13
Si  7.23  7.17  4.07
Si  9.23 -1.17  5.85
Si  9.23 -5.93  0.79
Si -6.21 -0.03 -9.08
Si -2.63  0.01 10.70
Si  6.24  0.03  9.09
Si -9.64  4.76  2.50
Si  0.04  2.42 -10.79
Si -9.32  1.24 -5.83
Si -0.01 -2.43 10.80
Si  2.70 -0.01 -10.75
Si -9.31  6.00 -0.78
Si  9.71 -4.76 -2.55
Si -4.37  4.74 -9.08
Si  7.39 -5.95  5.85
Si -10.60 -2.38 -2.47
Si  4.39 -4.75  9.09
Si  5.69 -6.04  7.46
Si -10.62  2.35  2.49
Si 11.07 -1.15  0.79
Si -1.64  2.39 10.78
Si  1.72 -2.42 -10.76
Si -5.67  6.06 -7.48
Si  7.57  3.61 -7.39
Si -4.43 -4.76 -9.10
Si  0.54  8.30  7.47
Si -1.81 -2.35 -10.79
Si  1.83  2.35 10.80
Si  9.79  4.83 -2.50
Si -9.82 -4.79  2.49
Si  1.21 -8.32  7.42
Si  4.51  4.73  9.11
Si 10.69  2.35  2.49
Si  4.75 -8.39 -5.75
Si -7.47  6.01 -5.83
Si 10.71 -2.38 -2.47
Si -11.16  1.22 -0.78
Si -1.29  8.39 -7.41
Si -7.60 -3.62  7.50
Si  3.24 10.78 -0.76
Si -0.61 -8.39 -7.53
Si -4.78  8.38  5.86
Si -4.29  9.59 -4.16
Si -3.27 -10.78  0.88
Si -8.48 -1.16 -7.39
Si  4.32 -9.59  4.17
Si -4.57 -9.52 -4.16
Si  4.59  9.51  4.17
Si  8.45  1.16  7.50
Si  7.66  8.40  0.79
Si -7.75 -8.33 -0.78
Si  2.31  8.39 -7.39
Si  3.83 -10.78  0.88
Si -3.86 10.78 -0.76
Si -2.34 -8.39  7.50
Si -9.34 -3.50  5.77
Si -2.98  8.29  7.46
Si  3.00 -8.27 -7.48
Si  9.37  3.52 -5.79
Si -9.71  4.74 -4.14
Si -3.53  2.36 -10.76
Si -3.48 -2.38 10.78
Si -8.78  7.12  2.49
Si  3.57  2.36 -10.76
Si  4.47  0.01 10.70
Si -10.57  2.37 -4.13
Si -6.06  9.56 -2.55
Si -0.04 -7.18  9.12
Si  3.62 -2.38 10.78
Si -4.40 -0.01 -10.75
Si  6.13 -9.57  2.50
Si 10.64 -2.38  4.07
Si  8.86 -7.15 -2.47
Si  0.12  7.18 -9.18
Si  9.79 -4.77  4.15
Si -10.66 -2.38  4.07
Si -9.82 -4.74 -4.16
Si  6.75  6.01  7.42
Si -6.83 -5.94 -7.41
Si -1.61  7.14  9.12
Si 11.11  3.55 -0.91
Si  9.85  4.74  4.17
Si -1.93 -7.11 -9.13
Si -6.34 -9.54 -2.55
Si  1.91  7.15  9.11
Si -0.79  4.78 10.70
Si 10.74  2.37 -4.13
Si 10.20  1.16  5.72
Si -5.91 -8.31 -5.83
Si  7.02 -2.33 -9.13
Si  1.68 -7.15 -9.18
Si -11.49 -0.02  2.50
Si  6.41  9.53  2.50
Si -7.04  2.37  9.11
Si  5.82  8.38  5.85
Si -8.97 -7.20 -2.46
Si  9.00  7.19  2.46
Si -0.98 -4.73 10.75
Si -11.18 -3.63  0.85
Si -8.40  3.53  7.47
Si  8.34 -3.61 -7.53
Si  0.86 -4.79 -10.75
Si  0.96  4.77 -10.76
Si -5.02 -10.66 -0.85
Si -8.35  8.32 -0.91
