500
set: 77.00  0.00  0.00
Si  0.00  0.00  0.00
Si  0.07 -0.04  2.42
Si -0.07  0.04 -2.42
Si  0.93  2.24  0.00
Si -0.93 -2.24  0.00
Si  2.43  0.00  0.00
Si -2.43  0.00  0.00
Si -1.50  2.24  0.00
Si  1.50 -2.24  0.00
Si  2.36  0.04 -2.42
Si -2.36 -0.04  2.42
Si  1.00  2.20  2.42
Si -1.00 -2.20 -2.42
Si -0.86 -2.29  2.42
Si  0.86  2.29 -2.42
Si -2.50  0.04 -2.42
Si  2.50 -0.04  2.42
Si  1.43 -2.20 -2.42
Si -1.43  2.20  2.42
Si -1.57  2.29 -2.42
Si  1.57 -2.29  2.42
Si  3.36  2.24  0.00
Si -3.36 -2.24  0.00
Si -0.57  4.49  0.00
Si  0.57 -4.49  0.00
Si  3.94 -2.24  0.00
Si -3.94  2.24  0.00
Si -3.29 -2.29  2.42
Si  3.29  2.29 -2.42
Si -3.43 -2.20 -2.42
Si  3.43  2.20  2.42
Si -0.14  0.09 -4.85
Si  0.14 -0.09  4.85
Si  1.86  4.49  0.00
Si -1.86 -4.49  0.00
Si -4.86  0.00  0.00
Si  4.86  0.00  0.00
Si -3.87  2.20  2.42
Si  3.87 -2.20 -2.42
Si -0.50  4.44  2.42
Si  0.50 -4.44 -2.42
Si  0.64 -4.53  2.42
Si -0.64  4.53 -2.42
Si -4.00  2.29 -2.42
Si  4.00 -2.29  2.42
Si -2.29 -0.09  4.85
Si  2.29  0.09 -4.85
Si -4.79 -0.04  2.42
Si  4.79  0.04 -2.42
Si -3.00  4.49  0.00
Si  3.00 -4.49  0.00
Si -1.07 -2.15 -4.85
Si  1.07  2.15  4.85
Si -1.93 -4.44 -2.42
Si  1.93  4.44  2.42
Si -0.79 -2.33  4.85
Si  0.79  2.33 -4.85
Si  1.79  4.53 -2.42
Si -1.79 -4.53  2.42
Si -1.36  2.15  4.85
Si  1.36 -2.15 -4.85
Si  2.57 -0.09  4.85
Si -2.57  0.09 -4.85
Si  4.93 -0.04  2.42
Si -4.93  0.04 -2.42
Si  1.64 -2.33  4.85
Si -1.64  2.33 -4.85
Si -2.94  4.44  2.42
Si  2.94 -4.44 -2.42
Si  3.07 -4.53  2.42
Si -3.07  4.53 -2.42
Si -4.29 -4.49  0.00
Si  4.29  4.49  0.00
Si -5.79 -2.24  0.00
Si  5.79  2.24  0.00
Si -3.22 -2.33  4.85
Si  3.22  2.33 -4.85
Si  3.50  2.15  4.85
Si -3.50 -2.15 -4.85
Si  3.80 -2.15 -4.85
Si -3.80  2.15  4.85
Si -0.43  4.40  4.85
Si  0.43 -4.40 -4.85
Si -5.72 -2.29  2.42
Si  5.72  2.29 -2.42
Si -4.22 -4.53  2.42
Si  4.22  4.53 -2.42
Si  4.36  4.44  2.42
Si -4.36 -4.44 -2.42
Si -0.71  4.57 -4.85
Si  0.71 -4.57  4.85
Si  5.86  2.20  2.42
Si -5.86 -2.20 -2.42
Si  0.36  6.73  0.00
Si -0.36 -6.73  0.00
Si  4.07 -2.33  4.85
Si -4.07  2.33 -4.85
Si -6.37  2.24  0.00
Si  6.37 -2.24  0.00
Si -4.73 -0.09  4.85
Si  4.73  0.09 -4.85
Si -2.00 -4.40 -4.85
Si  2.00  4.40  4.85
Si -1.72 -4.57  4.85
Si  1.72  4.57 -4.85
Si -5.00  0.09 -4.85
Si  5.00 -0.09  4.85
Si  2.08 -6.73  0.00
Si -2.08  6.73  0.00
Si  5.44 -4.49  0.00
Si -5.44  4.49  0.00
Si -6.30  2.20  2.42
Si  6.30 -2.20 -2.42
Si -0.43 -6.68 -2.42
Si  0.43  6.68  2.42
Si -2.87  4.40  4.85
Si  2.87 -4.40 -4.85
Si -0.29 -6.77  2.42
Si  0.29  6.77 -2.42
Si  6.44 -2.29  2.42
Si -6.44  2.29 -2.42
Si  0.21 -0.13  7.28
Si -0.21  0.13 -7.28
Si  2.79  6.73  0.00
Si -2.79 -6.73  0.00
Si -7.30  0.00  0.00
Si  7.30  0.00  0.00
Si  3.14 -4.57  4.85
Si -3.14  4.57 -4.85
Si  5.37 -4.44 -2.42
Si -5.37  4.44  2.42
Si  2.01 -6.68 -2.42
Si -2.01  6.68  2.42
Si -2.14  6.77 -2.42
Si  2.14 -6.77  2.42
Si  5.51 -4.53  2.42
Si -5.51  4.53 -2.42
Si  2.23  0.13 -7.28
Si -2.23 -0.13  7.28
Si -7.23 -0.04  2.42
Si  7.23  0.04 -2.42
Si  1.14  2.11  7.28
Si -1.14 -2.11 -7.28
Si  2.86  6.68  2.42
Si -2.86 -6.68 -2.42
Si  1.29 -2.11 -7.28
Si -1.29  2.11  7.28
Si  0.72  2.38 -7.28
Si -0.72 -2.38  7.28
Si  2.72  6.77 -2.42
Si -2.72 -6.77  2.42
Si -2.64  0.13 -7.28
Si  2.64 -0.13  7.28
Si  7.37 -0.04  2.42
Si -7.37  0.04 -2.42
Si -5.66 -2.33  4.85
Si  5.66  2.33 -4.85
Si  1.71 -2.38  7.28
Si -1.71  2.38 -7.28
Si  4.15  4.57 -4.85
Si -4.15 -4.57  4.85
Si  4.43  4.40  4.85
Si -4.43 -4.40 -4.85
Si -5.93 -2.15 -4.85
Si  5.93  2.15  4.85
Si  6.72  4.49  0.00
Si -6.72 -4.49  0.00
Si -4.51  6.73  0.00
Si  4.51 -6.73  0.00
Si  6.23 -2.15 -4.85
Si -6.23  2.15  4.85
Si -0.50 -6.64 -4.85
Si  0.50  6.64  4.85
Si -3.15 -2.38  7.28
Si  3.15  2.38 -7.28
Si  0.22  6.82 -4.85
Si -0.22 -6.82  4.85
Si  3.57  2.11  7.28
Si -3.57 -2.11 -7.28
Si  4.44 -6.68 -2.42
Si -4.44  6.68  2.42
Si  6.66  4.53 -2.42
Si -6.66 -4.53  2.42
Si -5.30  4.40  4.85
Si  5.30 -4.40 -4.85
Si  6.50 -2.33  4.85
Si -6.50  2.33 -4.85
Si  3.73 -2.11 -7.28
Si -3.73  2.11  7.28
Si -1.94  6.64  4.85
Si  1.94 -6.64 -4.85
Si  6.79  4.44  2.42
Si -6.79 -4.44 -2.42
Si -0.36  4.35  7.28
Si  0.36 -4.35 -7.28
Si  5.22  6.73  0.00
Si -5.22 -6.73  0.00
Si  4.58 -6.77  2.42
Si -4.58  6.77 -2.42
Si -8.23 -2.24  0.00
Si  8.23  2.24  0.00
Si -4.66 -0.13  7.28
Si  4.66  0.13 -7.28
Si  7.16  0.09 -4.85
Si -7.16 -0.09  4.85
Si  0.78 -4.62  7.28
Si -0.78  4.62 -7.28
Si  2.21 -6.82  4.85
Si -2.21  6.82 -4.85
Si  5.58 -4.57  4.85
Si -5.58  4.57 -4.85
Si -4.14  2.38 -7.28
Si  4.14 -2.38  7.28
Si  2.07  4.35  7.28
Si -2.07 -4.35 -7.28
Si  2.93  6.64  4.85
Si -2.93 -6.64 -4.85
Si  1.65  4.62 -7.28
Si -1.65 -4.62  7.28
Si  2.65  6.82 -4.85
Si -2.65 -6.82  4.85
Si -8.16 -2.29  2.42
Si  8.16  2.29 -2.42
Si -5.15 -6.77  2.42
Si  5.15  6.77 -2.42
Si -5.29 -6.68 -2.42
Si  5.29  6.68  2.42
Si  5.07 -0.13  7.28
Si -5.07  0.13 -7.28
Si -7.43  0.09 -4.85
Si  7.43 -0.09  4.85
Si  8.30  2.20  2.42
Si -8.30 -2.20 -2.42
Si  2.80 -4.35 -7.28
Si -2.80  4.35  7.28
Si -1.15  8.97  0.00
Si  1.15 -8.97  0.00
Si -7.87  4.49  0.00
Si  7.87 -4.49  0.00
Si  1.29  8.97  0.00
Si -1.29 -8.97  0.00
Si -8.80  2.24  0.00
Si  8.80 -2.24  0.00
Si  3.21 -4.62  7.28
Si -3.21  4.62 -7.28
Si -7.80  4.44  2.42
Si  7.80 -4.44 -2.42
Si  4.37 -6.64 -4.85
Si -4.37  6.64  4.85
Si -1.08  8.93  2.42
Si  1.08 -8.93 -2.42
Si  8.73 -2.20 -2.42
Si -8.73  2.20  2.42
Si  1.36  8.93  2.42
Si -1.36 -8.93 -2.42
Si -6.59 -4.57  4.85
Si  6.59  4.57 -4.85
Si  1.21 -9.02  2.42
Si -1.21  9.02 -2.42
Si  1.22  9.02 -2.42
Si -1.22 -9.02  2.42
Si  7.94 -4.53  2.42
Si -7.94  4.53 -2.42
Si  8.87 -2.29  2.42
Si -8.87  2.29 -2.42
Si -5.59 -2.38  7.28
Si  5.59  2.38 -7.28
Si  6.86  4.40  4.85
Si -6.86 -4.40 -4.85
Si  4.08  4.62 -7.28
Si -4.08 -4.62  7.28
Si -4.64  6.82 -4.85
Si  4.64 -6.82  4.85
Si  4.50  4.35  7.28
Si -4.50 -4.35 -7.28
Si  3.58 -8.97  0.00
Si -3.58  8.97  0.00
Si  6.00  2.11  7.28
Si -6.00 -2.11 -7.28
Si  6.94 -6.73  0.00
Si -6.94  6.73  0.00
Si  0.28 -0.18  9.70
Si -0.28  0.18 -9.70
Si -3.72 -8.97  0.00
Si  3.72  8.97  0.00
Si -8.09 -2.33  4.85
Si  8.09  2.33 -4.85
Si -9.73  0.00  0.00
Si  9.73  0.00  0.00
Si  6.16 -2.11 -7.28
Si -6.16  2.11  7.28
Si  5.08  6.82 -4.85
Si -5.08 -6.82  4.85
Si  5.36  6.64  4.85
Si -5.36 -6.64 -4.85
Si  0.56  6.60  7.28
Si -0.56 -6.60 -7.28
Si  6.87 -6.68 -2.42
Si -6.87  6.68  2.42
Si -3.51  8.93  2.42
Si  3.51 -8.93 -2.42
Si -8.37 -2.15 -4.85
Si  8.37  2.15  4.85
Si  2.16  0.18 -9.70
Si -2.16 -0.18  9.70
Si  9.66  0.04 -2.42
Si -9.66 -0.04  2.42
Si -5.23  4.35  7.28
Si  5.23 -4.35 -7.28
Si -1.21 -2.07 -9.70
Si  1.21  2.07  9.70
Si  1.23 -2.07 -9.70
Si -1.23  2.07  9.70
Si -1.87  6.60  7.28
Si  1.87 -6.60 -7.28
Si -3.79 -8.93 -2.42
Si  3.79  8.93  2.42
Si  0.15  6.86 -7.28
Si -0.15 -6.86  7.28
Si  0.65  2.42 -9.70
Si -0.65 -2.42  9.70
Si  3.65 -9.02  2.42
Si -3.65  9.02 -2.42
Si -3.65 -9.02  2.42
Si  3.65  9.02 -2.42
Si -7.01  6.77 -2.42
Si  7.01 -6.77  2.42
Si  2.71 -0.18  9.70
Si -2.71  0.18 -9.70
Si -6.57  2.38 -7.28
Si  6.57 -2.38  7.28
Si  9.80 -0.04  2.42
Si -9.80  0.04 -2.42
Si  7.73 -4.40 -4.85
Si -7.73  4.40  4.85
Si  1.78 -2.42  9.70
Si -1.78  2.42 -9.70
Si  8.66 -2.15 -4.85
Si -8.66  2.15  4.85
Si -7.09 -0.13  7.28
Si  7.09  0.13 -7.28
Si -1.01  8.88  4.85
Si  1.01 -8.88 -4.85
Si -7.65 -6.73  0.00
Si  7.65  6.73  0.00
Si  9.16  4.49  0.00
Si -9.16 -4.49  0.00
Si -1.43 -8.88 -4.85
Si  1.43  8.88  4.85
Si  2.28 -6.86  7.28
Si -2.28  6.86 -7.28
Si  3.00  6.60  7.28
Si -3.00 -6.60 -7.28
Si -5.64  4.62 -7.28
Si  5.64 -4.62  7.28
Si -2.58 -6.86  7.28
Si  2.58  6.86 -7.28
Si  1.15  9.06 -4.85
Si -1.15 -9.06  4.85
Si  1.28 -9.06  4.85
Si -1.28  9.06 -4.85
Si -8.01  4.57 -4.85
Si  8.01 -4.57  4.85
Si  8.94 -2.33  4.85
Si -8.94  2.33 -4.85
Si  9.09  4.53 -2.42
Si -9.09 -4.53  2.42
Si  7.50 -0.13  7.28
Si -7.50  0.13 -7.28
Si -7.58 -6.77  2.42
Si  7.58  6.77 -2.42
Si -3.08 -2.42  9.70
Si  3.08  2.42 -9.70
Si -7.72 -6.68 -2.42
Si  7.72  6.68  2.42
Si  9.22  4.44  2.42
Si -9.22 -4.44 -2.42
Si -3.64 -2.07 -9.70
Si  3.64  2.07  9.70
Si -3.66  2.07  9.70
Si  3.66 -2.07 -9.70
Si -0.30  4.31  9.70
Si  0.30 -4.31 -9.70
Si -6.80  6.64  4.85
Si  6.80 -6.64 -4.85
Si -3.44  8.88  4.85
Si  3.44 -8.88 -4.85
Si  4.30 -6.60 -7.28
Si -4.30  6.60  7.28
Si -4.59 -0.18  9.70
Si  4.59  0.18 -9.70
Si -9.59 -0.09  4.85
Si  9.59  0.09 -4.85
Si -0.85  4.66 -9.70
Si  0.85 -4.66  9.70
Si  6.01 -8.97  0.00
Si -6.01  8.97  0.00
Si  6.52  4.62 -7.28
Si -6.52 -4.62  7.28
Si  2.14  4.31  9.70
Si -2.14 -4.31 -9.70
Si  3.86  8.88  4.85
Si -3.86 -8.88 -4.85
Si  4.21 -2.42  9.70
Si -4.21  2.42 -9.70
Si  1.58  4.66 -9.70
Si -1.58 -4.66  9.70
Si -6.15 -8.97  0.00
Si  6.15  8.97  0.00
Si -3.58 -9.06  4.85
Si  3.58  9.06 -4.85
Si 10.66  2.24  0.00
Si -10.66 -2.24  0.00
Si  3.72 -9.06  4.85
Si -3.72  9.06 -4.85
Si -6.93 -4.35 -7.28
Si  6.93  4.35  7.28
Si  7.08 -6.82  4.85
Si -7.08  6.82 -4.85
Si  2.73 -4.31 -9.70
Si -2.73  4.31  9.70
Si  5.14 -0.18  9.70
Si -5.14  0.18 -9.70
Si  5.94 -8.93 -2.42
Si -5.94  8.93  2.42
Si  9.87 -0.09  4.85
Si -9.87  0.09 -4.85
Si  4.71 -6.86  7.28
Si -4.71  6.86 -7.28
Si -8.02 -2.38  7.28
Si  8.02  2.38 -7.28
Si -10.59 -2.29  2.42
Si 10.59  2.29 -2.42
Si  6.08 -9.02  2.42
Si -6.08  9.02 -2.42
Si -6.08 -9.02  2.42
Si  6.08  9.02 -2.42
Si -6.22 -8.93 -2.42
Si  6.22  8.93  2.42
Si -5.01 -6.86  7.28
Si  5.01  6.86 -7.28
Si  9.02  4.57 -4.85
Si -9.02 -4.57  4.85
Si 10.73  2.20  2.42
Si -10.73 -2.20 -2.42
Si -0.21 11.21  0.00
Si  0.21 -11.21  0.00
Si  5.43  6.60  7.28
Si -5.43 -6.60 -7.28
Si 10.30 -4.49  0.00
Si -10.30  4.49  0.00
Si -7.51 -6.82  4.85
Si  7.51  6.82 -4.85
Si  3.28 -4.66  9.70
Si -3.28  4.66 -9.70
Si  7.79  6.64  4.85
Si -7.79 -6.64 -4.85
Si -8.43 -2.11 -7.28
Si  8.43  2.11  7.28
Si -9.29 -4.40 -4.85
Si  9.29  4.40  4.85
Si 10.23 -4.44 -2.42
Si -10.23  4.44  2.42
Si -5.52 -2.42  9.70
Si  5.52  2.42 -9.70
Si  7.66 -4.35 -7.28
Si -7.66  4.35  7.28
Si -2.22 -11.21  0.00
Si  2.22 11.21  0.00
Si  0.15 -11.17 -2.42
Si -0.15 11.17  2.42
Si -11.23  2.24  0.00
Si 11.23 -2.24  0.00
Si -8.59  2.11  7.28
Si  8.59 -2.11 -7.28
Si -4.01 -4.66  9.70
Si  4.01  4.66 -9.70
Si -0.94  8.84  7.28
Si  0.94 -8.84 -7.28
Si -0.28 11.26 -2.42
Si  0.28 -11.26  2.42
Si -2.65 11.21  0.00
Si  2.65 -11.21  0.00
Si -9.37  6.73  0.00
Si  9.37 -6.73  0.00
Si  1.49  8.84  7.28
Si -1.49 -8.84 -7.28
Si -4.57 -4.31 -9.70
Si  4.57  4.31  9.70
Si -10.37  4.53 -2.42
Si 10.37 -4.53  2.42
Si -6.07 -2.07 -9.70
Si  6.07  2.07  9.70
Si -11.16  2.20  2.42
Si 11.16 -2.20 -2.42
Si  6.09 -2.07 -9.70
Si -6.09  2.07  9.70
Si -2.29 -11.17 -2.42
Si  2.29 11.17  2.42
Si -5.87  8.88  4.85
