500
set: 1133.00  0.00  0.00
Si -0.07  0.01  0.02
Si  0.04 -0.11  2.41
Si  0.04 -0.07 -2.45
Si  1.30 -2.19  0.03
Si -1.27 -2.25  0.02
Si  1.37  2.24 -0.10
Si  2.63 -0.03 -0.01
Si -2.64 -0.01  0.03
Si -1.33  2.30 -0.01
Si  1.15  2.10  2.43
Si -2.52  0.12 -2.46
Si -1.27 -2.24 -2.44
Si -2.58  0.13  2.43
Si -1.33  2.25  2.40
Si  1.30 -2.23 -2.45
Si  1.23  2.29 -2.45
Si -1.35 -2.30  2.40
Si  1.28 -2.34  2.43
Si  2.66  0.01 -2.45
Si  2.67  0.06  2.44
Si -1.33  2.29 -2.48
Si -3.86 -2.20 -0.00
Si  0.00  4.45  0.04
Si -3.88  2.28  0.01
Si  3.94  2.29  0.02
Si  0.05 -4.58 -0.01
Si  3.97 -2.29 -0.03
Si -0.01  0.10  4.85
Si -0.01  0.10 -4.90
Si  3.90  2.18 -2.41
Si -0.08 -4.49 -2.39
Si  3.87 -2.25  2.45
Si  3.85  2.30  2.48
Si  3.91 -2.25 -2.42
Si -3.90 -2.25 -2.44
Si -3.95 -2.17  2.46
Si  0.06 -4.51  2.48
Si  0.01  4.54 -2.42
Si  5.16  0.04  0.00
Si  2.60 -4.47 -0.03
Si  2.56  4.51  0.02
Si -2.62 -4.50  0.02
Si -4.06  2.19 -2.41
Si  0.05  4.61  2.46
Si -4.04  2.27  2.47
Si -2.65  4.53 -0.03
Si -5.27  0.04  0.00
Si  2.56 -0.06  4.83
Si  1.35  2.29  4.82
Si -1.28  2.27 -4.86
Si -1.28 -2.27 -4.88
Si -1.28 -2.27  4.88
Si  1.32 -2.26  4.88
Si  1.32 -2.26 -4.88
Si -1.28  2.26  4.90
Si -2.66 -0.07  4.88
Si  2.56 -0.06 -4.93
Si -2.66 -0.07 -4.88
Si  1.35  2.29 -4.94
Si  2.57  4.49 -2.40
Si -2.58 -4.50  2.43
Si -5.18 -0.06 -2.43
Si -2.62  4.49  2.41
Si -2.61 -4.52 -2.40
Si -5.20  0.03  2.43
Si  2.60  4.51  2.43
Si  2.63 -4.52  2.41
Si  5.23  0.03  2.43
Si -2.65  4.46 -2.52
Si  5.25 -0.06 -2.43
Si  2.61 -4.54 -2.52
Si  0.03  4.41 -4.84
Si -3.85  2.21 -4.84
Si  0.03  4.41  4.92
Si  3.93  2.27 -4.80
Si -3.87 -2.31 -4.84
Si -3.85  2.21  4.92
Si -3.87 -2.31  4.92
Si  0.06 -4.57  4.87
Si  4.03 -2.25 -4.84
Si  0.06 -4.57 -4.89
Si  3.93  2.27  4.95
Si  4.03 -2.25  4.91
Si -1.24 -6.71  0.02
Si -5.21  4.43 -0.01
Si -1.28  6.72 -0.03
Si  5.23  4.43 -0.01
Si -6.46 -2.29 -0.03
Si  1.38 -6.73  0.01
Si -6.49  2.29  0.02
Si -5.17 -4.56  0.04
Si  6.57 -2.20 -0.00
Si  1.31  6.81 -0.00
Si  6.56  2.28  0.01
Si  5.26 -4.56  0.04
Si  2.63 -4.48  4.83
Si  5.16  0.07  4.87
Si -2.58 -4.47 -4.88
Si -2.58 -4.47  4.88
Si  5.16  0.07 -4.89
Si -2.63  4.53  4.83
Si  2.60  4.54 -4.88
Si  2.60  4.54  4.88
Si  2.63 -4.48 -4.92
Si  6.37  2.19 -2.41
Si -5.27  0.07  4.87
Si -5.13 -4.39  2.46
Si -2.63  4.53 -4.92
Si -5.27  0.07 -4.89
Si  6.40  2.27  2.47
Si  5.10  4.52 -2.39
Si -5.17 -4.46 -2.42
Si  6.48 -2.17  2.46
Si -1.33 -6.71  2.48
Si  1.22 -6.74  2.47
Si -6.53  2.18 -2.41
Si -1.34  6.75 -2.42
Si  1.27  6.76 -2.44
Si  0.04 -0.07  7.30
Si -5.20  4.50  2.48
Si -6.52 -2.25 -2.42
Si  5.26 -4.46 -2.42
Si  5.31 -4.39  2.46
Si -1.39  6.75  2.45
Si  1.20 -6.81 -2.41
Si  6.53 -2.25 -2.44
Si  5.23  4.50  2.48
Si -1.27 -6.83 -2.41
Si  0.04 -0.11 -7.35
Si -6.57 -2.25  2.45
Si  1.23  6.84  2.46
Si -5.33  4.52 -2.39
Si -6.59  2.30  2.48
Si  1.15  2.10 -7.33
Si -2.52  0.12  7.30
Si -1.33  2.29  7.28
Si  1.23  2.29  7.31
Si  1.30 -2.23  7.31
Si -1.27 -2.24  7.32
Si -3.81 -6.77 -0.10
Si -2.58  0.13 -7.33
Si  3.93 -6.71 -0.01
Si  2.66  0.00  7.31
Si  7.79 -0.01  0.03
Si  2.67  0.06 -7.32
Si  1.28 -2.34 -7.33
Si  3.90  6.76  0.02
Si -7.80 -0.03 -0.01
Si -1.33  2.25 -7.36
Si -1.35 -2.30 -7.35
Si -3.95  6.81  0.03
Si  3.83  6.70  2.40
Si -7.76  0.06  2.44
Si -3.98  6.67  2.43
Si -7.78  0.01 -2.45
Si  3.93 -6.71 -2.48
Si -3.95 -6.72 -2.45
Si  3.92 -6.75  2.40
Si  3.90  6.77 -2.44
Si -3.95  6.78 -2.45
Si  7.85  0.13  2.43
Si  7.91  0.12 -2.46
Si -6.40 -2.25 -4.84
Si -4.03 -6.90  2.43
Si  1.31  6.69 -4.84
Si -1.25 -6.73 -4.80
Si -6.40 -2.25  4.91
Si -5.20  4.44  4.87
Si -6.50  2.27 -4.80
Si -1.23  6.75 -4.84
Si -5.20  4.44 -4.89
Si  1.31  6.69  4.92
Si  5.23  4.44  4.87
Si  5.23  4.44 -4.89
Si -5.15 -4.60 -4.84
Si -1.23  6.75  4.91
Si -1.25 -6.73  4.95
Si  6.58  2.21 -4.84
Si  1.40 -6.80 -4.84
Si -5.15 -4.60  4.92
Si  6.57 -2.31 -4.84
Si -6.50  2.27  4.95
Si  6.58  2.21  4.92
Si  1.40 -6.80  4.92
Si  5.28 -4.60 -4.84
Si  6.57 -2.31  4.92
Si  3.85  2.30 -7.28
Si  5.28 -4.60  4.92
Si  0.06 -4.51 -7.28
Si  3.87 -2.25 -7.31
Si -3.95 -2.17 -7.30
Si -3.90 -2.25  7.31
Si  3.90  2.18  7.35
Si  3.91 -2.25  7.34
Si -0.08 -4.49  7.37
Si  0.01  4.54  7.33
Si  0.05  4.61 -7.30
Si -4.04  2.27 -7.29
Si -4.06  2.19  7.35
Si -2.65  4.46  7.24
Si  2.61 -4.54  7.24
Si -0.01 -8.97  0.00
Si -2.58 -4.50 -7.33
Si -5.18 -0.06  7.33
Si  2.60  4.51 -7.33
Si -5.20  0.03 -7.33
Si  2.57  4.49  7.36
Si -2.62  4.49 -7.35
Si  5.23  0.03 -7.33
Si  7.78  4.53 -0.03
Si  5.25 -0.06  7.33
Si  7.81 -4.50  0.02
Si -7.83 -4.47 -0.03
Si  2.63 -4.52 -7.35
Si -2.61 -4.52  7.36
Si -0.10  9.04  0.00
Si -7.88  4.51  0.02
Si -3.82 -6.72  4.82
Si -3.82 -6.72 -4.94
Si  7.77 -0.07  4.88
Si  7.77 -0.07 -4.88
Si  3.89  6.74 -4.88
Si  3.89  6.74  4.88
Si -3.94  6.75  4.88
Si  3.98 -6.74 -4.86
Si -3.94  6.75 -4.88
Si -7.87 -0.06  4.83
Si  3.98 -6.74  4.90
Si -0.01  8.95 -2.43
Si -7.87 -0.06 -4.93
Si  0.05 -8.98  2.43
Si  7.81  4.49  2.41
Si  7.79  4.46 -2.52
Si -7.80 -4.52  2.41
Si -9.06  2.24 -0.10
Si  2.54  8.99  0.03
Si -6.51 -6.71 -0.01
Si  7.83 -4.52 -2.40
Si -2.63  8.98 -0.01
Si -0.03  9.04  2.43
Si -7.83  4.51  2.43
Si -7.86  4.49 -2.40
Si  7.86 -4.50  2.43
Si  0.07 -9.06 -2.43
Si -2.55 -9.03 -0.01
Si  9.10  2.30 -0.01
Si -9.13 -2.19  0.03
Si -7.82 -4.54 -2.52
Si  2.62 -9.02  0.03
Si -6.53  6.76  0.02
Si  6.48  6.81  0.03
Si  9.16 -2.25  0.02
Si  6.63 -6.77 -0.10
Si  2.68 -8.88  2.43
Si  6.46  6.67  2.43
Si -2.51 -8.95  2.44
Si  2.74 -8.89 -2.46
Si  6.49 -6.72 -2.45
Si -2.52 -9.00 -2.45
Si -6.50 -6.71 -2.48
Si  9.09 -2.30  2.40
Si  9.10  2.25  2.40
Si -6.51 -6.75  2.40
Si  6.48  6.78 -2.45
Si -2.60  9.01 -2.45
Si -9.13 -2.23 -2.45
Si  9.11  2.29 -2.48
Si -6.53  6.77 -2.44
Si -6.61  6.70  2.40
Si  6.41 -6.90  2.43
Si -2.59  9.06  2.44
Si -0.07  0.01 -9.74
Si  9.16 -2.24 -2.44
Si -9.15 -2.34  2.43
Si -0.07  0.01  9.78
Si -9.21  2.29 -2.45
Si  2.60  9.13  2.43
Si  2.65  9.12 -2.46
Si -9.29  2.10  2.43
Si -5.13 -4.39 -7.30
Si  6.40  2.27 -7.29
Si  6.37  2.19  7.35
Si -1.33 -6.71 -7.28
Si  6.48 -2.17 -7.30
Si  1.22 -6.74 -7.29
Si  1.37  2.24  9.66
Si -5.20  4.50 -7.28
Si -5.17 -4.46  7.33
Si  5.23  4.50 -7.28
Si  5.10  4.52  7.37
Si  5.31 -4.39 -7.30
Si  1.27  6.76  7.31
Si -1.39  6.75 -7.31
Si  6.53 -2.25  7.31
Si  1.30 -2.19 -9.73
Si -1.34  6.75  7.34
Si -6.53  2.18  7.35
Si  5.26 -4.46  7.33
Si -6.52 -2.25  7.34
Si -1.27 -2.25 -9.74
Si -6.57 -2.25 -7.31
Si  1.23  6.84 -7.30
Si -2.64 -0.01 -9.73
Si -6.59  2.30 -7.28
Si  1.20 -6.81  7.35
Si  2.63 -0.03  9.75
Si -1.33  2.30  9.74
Si  1.30 -2.19  9.78
Si -1.27 -2.25  9.78
Si -1.27 -6.83  7.35
Si  2.63 -0.03 -9.77
Si -1.33  2.30 -9.77
Si -2.64 -0.01  9.79
Si -5.33  4.52  7.37
Si -0.01 -8.94  4.87
Si -0.01 -8.94 -4.89
Si  1.37  2.24 -9.86
Si -7.81 -4.48  4.83
Si  7.80  4.53  4.83
Si -7.81 -4.48 -4.92
Si  7.85 -4.47 -4.88
Si  7.85 -4.47  4.88
Si  7.80  4.53 -4.92
Si -7.84  4.54 -4.88
Si -7.84  4.54  4.88
Si -0.10  9.07  4.87
Si -0.10  9.07 -4.89
Si  5.11  9.02  0.02
Si 10.36  0.01  0.02
Si  5.19 -9.00  0.02
Si -5.25 -9.00  0.02
Si -5.33  9.02  0.02
Si  2.52  8.94  4.88
Si  2.52  8.94 -4.88
Si -10.50  0.01  0.02
Si -2.69  8.94  4.83
Si -6.46 -6.74 -4.86
Si -9.08  2.29  4.82
Si -6.46 -6.74  4.90
Si  6.50  6.75  4.88
Si -2.69  8.94 -4.93
Si  6.50  6.75 -4.88
Si -9.11 -2.26  4.88
Si -6.54  6.74 -4.88
Si -6.54  6.74  4.88
Si -9.11 -2.26 -4.88
Si -9.08  2.29 -4.94
Si  6.61 -6.72  4.82
Si  5.21  8.89  2.41
Si -5.22  8.89  2.41
Si -2.61 -9.07  4.83
Si  9.15  2.27 -4.86
Si  9.15 -2.27 -4.88
Si  9.15 -2.27  4.88
Si  9.15  2.26  4.90
Si  2.60 -9.08  4.88
Si  2.60 -9.08 -4.88
Si  5.22  8.93 -2.45
Si -5.22  8.93 -2.45
Si  6.61 -6.72 -4.94
Si -2.61 -9.07 -4.93
Si  3.93 -6.71  7.28
Si  3.83  6.71 -7.35
Si -7.78  0.00  7.31
Si -10.39 -0.11  2.41
Si -7.76  0.06 -7.32
Si -3.98  6.67 -7.33
Si -10.39 -0.07 -2.45
Si -3.95 -6.72  7.31
Si  0.00  4.45 -9.71
Si  3.90  6.77  7.32
Si -5.14 -9.08 -2.45
Si -3.86 -2.20  9.75
Si -3.95  6.77  7.31
Si -3.86 -2.20 -9.76
Si  3.92 -6.75 -7.36
Si -3.88  2.28 -9.75
Si  7.85  0.13 -7.33
Si -5.14 -9.12  2.41
Si 10.47 -0.11  2.41
Si  3.94  2.29 -9.73
Si -3.88  2.28  9.77
Si  3.97 -2.29  9.73
Si 10.47 -0.07 -2.45
Si  0.00  4.45  9.80
Si  7.91  0.12  7.30
Si  0.05 -4.58  9.74
Si  0.05 -4.58 -9.77
Si  3.94  2.29  9.78
Si  5.30 -9.08 -2.45
Si  3.97 -2.29 -9.79
Si  5.30 -9.12  2.41
Si -4.03 -6.90 -7.33
Si  2.60 -4.47  9.73
Si  2.56  4.51 -9.74
Si  5.16  0.04 -9.75
Si  5.16  0.04  9.76
Si -2.62 -4.50 -9.74
Si -2.65  4.53  9.73
Si  2.56  4.51  9.77
Si  2.60 -4.47 -9.78
Si -2.62 -4.50  9.77
Si -5.27  0.04 -9.75
Si -5.27  0.04  9.76
Si -2.65  4.53 -9.78
Si -9.05 -6.73  0.01
Si  1.40 -11.21 -0.00
Si -10.43  4.45  0.04
Si 10.44  4.45  0.04
Si -10.38 -4.58 -0.01
Si  9.15  6.72 -0.03
Si -1.20 -11.29 -0.03
Si  1.30 11.28  0.01
Si -1.32 11.30  0.02
Si -9.12  6.81 -0.00
Si  9.20 -6.71  0.02
Si -5.19 -8.91  4.85
Si -5.19 -8.91 -4.90
Si  5.24 -8.91  4.85
Si 10.48 -4.58 -0.01
Si  5.24 -8.91 -4.90
Si 10.42  0.10  4.85
Si  1.12 11.20 -2.41
Si  1.31 -11.17  2.46
Si 10.42  0.10 -4.90
Si -10.45  0.10  4.85
Si -1.35 11.19 -2.41
Si  7.79  4.46  7.24
Si  5.16  9.10  4.85
Si 10.36 -4.49 -2.39
Si -10.45  0.10 -4.90
Si  9.04  6.75  2.45
Si  5.16  9.10 -4.90
Si -0.01  8.95  7.33
Si  9.10 -6.71  2.48
Si  9.09  6.75 -2.42
Si -7.82 -4.54  7.24
Si -10.38 -4.51  2.48
Si -1.26 -11.26 -2.42
Si -5.27  9.10  4.85
Si  0.05 -8.98 -7.33
Si  1.14 11.27  2.47
Si  1.35 -11.26 -2.44
Si -1.31 -11.26  2.45
Si -5.27  9.10 -4.90
Si  7.81  4.49 -7.35
Si -10.38  4.61  2.46
Si -10.43  4.54 -2.42
Si -7.80 -4.52 -7.35
Si -0.03  9.04 -7.33
Si -7.83  4.51 -7.33
Si 10.44  4.54 -2.42
Si -9.16  6.76 -2.44
Si  7.86 -4.50 -7.33
Si  0.07 -9.06  7.33
Si  7.83 -4.52  7.36
Si -1.41 11.31  2.48
Si -7.86  4.49  7.36
Si -10.51 -4.49 -2.39
Si  9.16 -6.83 -2.41
Si -9.21 -6.74  2.47
Si 10.49 -4.51  2.48
Si 10.48  4.61  2.46
Si -9.23 -6.81 -2.41
Si -9.21  6.84  2.46
Si  2.68 -8.88 -7.33
Si  2.74 -8.89  7.30
Si  6.46  6.67 -7.33
Si -2.51 -8.95 -7.32
Si -6.50 -6.71  7.28
Si -3.87 -11.20  0.03
Si  6.49 -6.72  7.31
Si -2.52 -9.00  7.31
Si  9.11  2.29  7.28
Si -2.60  9.01  7.31
Si  6.48  6.77  7.31
Si -1.24 -6.71 -9.73
Si -1.28  6.72  9.73
Si -3.89 11.24 -0.10
Si  7.80  8.98 -0.01
Si -6.46 -2.29  9.73
Si -5.21  4.43  9.74
Si -9.13 -2.23  7.31
Si -5.17 -4.56 -9.71
Si  5.23  4.43  9.74
Si  9.09 -2.30 -7.35
Si -6.53  6.77  7.32
Si -6.51 -6.75 -7.36
Si  9.10  2.25 -7.36
Si -11.71 -2.25  0.02
Si -5.21  4.43 -9.77
Si -6.49  2.29 -9.73
Si  1.38 -6.73 -9.75
Si -1.24 -6.71  9.78
Si  6.41 -6.90 -7.33
Si  5.23  4.43 -9.77
Si -2.59  9.06 -7.32
Si -7.82 -9.02  0.03
Si  9.16 -2.24  7.32
Si  3.98 -11.26  0.02
