500
set: 315.00  0.00  0.00
Si -0.02  0.04  0.04
Si -0.06 -0.03 -2.32
Si  0.05 -2.18  0.82
Si  1.89  1.15  0.81
Si -2.03  1.07  0.74
Si  3.75 -0.05 -0.06
Si -1.81 -3.30 -0.02
Si  0.00  2.21 -3.08
Si -1.89  3.29  0.05
Si -1.98  1.12  3.05
Si  1.90  1.06  3.13
Si -1.92 -1.15 -3.12
Si  1.84 -1.09 -3.21
Si  1.94 -3.34  0.05
Si  0.00 -2.22  3.17
Si  2.02  3.33 -0.02
Si -3.90 -0.05 -0.06
Si -1.85 -1.09  3.90
Si  1.95  3.29 -2.32
Si -1.85  3.33 -2.36
Si -3.83 -2.20  0.76
Si  3.83 -2.20  0.76
Si -1.88 -3.35 -2.32
Si -0.00  2.22  3.90
Si  0.00  4.43  0.76
Si -3.83  0.01 -2.36
Si  3.83  0.01 -2.36
Si  1.98 -3.30 -2.36
Si  1.95 -1.14  3.94
Si -3.75 -2.17  3.13
Si -3.75  2.25 -3.12
Si  0.08 -4.38 -3.12
Si  0.08  4.46  3.13
Si  3.91 -2.17  3.13
Si  3.91  2.25 -3.12
Si  5.63  1.07  0.74
Si -1.93 -5.48  0.81
Si  3.77  2.18  3.93
Si -1.93 -1.06 -5.45
Si  0.05  2.24 -5.44
Si  1.80 -5.56  0.74
Si -3.77  4.45  0.82
Si  1.80 -1.14 -5.52
Si -5.76  1.15  0.81
Si -0.06 -4.45  3.93
Si -3.89  2.18  3.93
Si  3.88  4.45  0.82
Si  5.67  1.12  3.05
Si -5.64  3.33 -0.02
Si -0.08  2.15  6.19
Si  1.84 -5.51  3.05
Si -0.08  6.58 -0.06
Si  1.90  5.49 -3.12
Si  1.94  1.08 -6.21
Si -3.82 -4.43 -3.08
Si  3.83 -4.43 -3.08
Si -5.72 -3.34  0.05
Si  5.73 -1.15 -3.12
Si -1.81  1.12 -6.28
Si -5.75  1.06  3.13
Si  2.02 -1.09  6.23
Si  5.77  3.29  0.05
Si -3.82  4.41  3.17
Si  3.83  4.41  3.17
Si -1.92 -5.57  3.13
Si -1.89 -1.13  6.30
Si -0.07 -6.68 -0.06
Si -1.98  5.54 -3.21
Si -0.07 -2.26 -6.31
Si  5.85 -3.30 -0.02
Si -5.81 -1.09 -3.21
Si -5.68 -3.30 -2.36
Si -5.71  3.29 -2.32
Si  0.00  0.01  7.01
Si -1.88  5.50  3.94
Si -3.83 -4.41  3.90
Si  3.83 -4.41  3.90
Si -5.71 -1.14  3.94
Si  0.00 -6.62 -2.36
Si  0.00 -4.41 -5.50
Si -0.00  6.64 -2.36
Si  1.98  5.54  3.90
Si -3.83  2.22 -5.50
Si  3.83  2.22 -5.50
Si  5.78 -3.35 -2.32
Si  5.81 -1.09  3.90
Si  5.81  3.33 -2.36
Si  3.80 -2.17 -6.21
Si  3.80 -6.59  0.04
Si -3.85 -2.17 -6.21
Si -3.85 -6.59  0.04
Si  7.63  0.04  0.04
Si -0.02  4.47 -6.21
Si -0.02 -4.38  6.29
Si -7.68  0.04  0.04
Si  3.80  6.67  0.04
Si  3.80  2.25  6.29
Si -3.85  6.67  0.04
Si -3.85  2.25  6.29
Si  1.80  3.28  6.99
Si -3.77 -4.39 -5.44
Si  7.60 -0.03 -2.32
Si  1.80  7.70  0.74
Si  3.77  6.60 -2.32
Si -7.60 -2.18  0.82
Si  5.72 -5.48  0.81
Si  5.72 -1.06 -5.45
Si  3.88 -4.39 -5.44
Si  3.77 -6.66 -2.32
Si  1.89 -3.27  7.06
Si -3.89  6.60 -2.32
Si -2.03 -3.35  6.99
Si -3.77  0.03  7.07
Si  1.89  5.58 -5.45
Si -2.03  5.50 -5.52
Si -3.88 -6.66 -2.32
Si  7.71 -2.18  0.82
Si -1.94  3.36  7.06
Si -7.71 -0.03 -2.32
Si -1.94  7.79  0.81
Si  3.88  0.03  7.07
Si -5.85 -5.56  0.74
Si -5.85 -1.14 -5.52
Si -5.64 -1.09  6.23
Si -5.72  1.08 -6.21
Si  3.75 -4.47  6.19
Si  1.84  7.75  3.05
Si -1.92  7.69  3.13
Si -1.81  5.54  6.23
Si -7.65  2.21 -3.08
Si -5.75  5.49 -3.12
Si -1.89 -5.55 -6.21
Si  3.75  4.37 -6.31
Si  7.66  2.21 -3.08
Si  5.67  5.54 -3.21
Si -5.81 -5.51  3.05
Si -7.65 -2.22  3.17
Si -3.90 -4.47  6.19
Si  1.94  5.50  6.30
Si  7.66 -2.22  3.17
Si  5.73 -5.57  3.13
Si  2.02 -5.51 -6.28
Si  1.91 -7.78 -3.12
Si -1.98 -7.72 -3.21
Si -3.90  4.37 -6.31
Si  5.77 -1.13  6.30
Si  5.85  1.12 -6.28
Si -5.68  5.54  3.90
Si -1.88  1.07 -8.57
Si  0.00 -8.83  0.76
Si  7.66  2.22  3.90
Si -7.66  2.22  3.90
Si  1.98 -7.72  3.90
Si -7.66  4.43  0.76
Si  7.66  4.43  0.76
Si  0.00 -2.20 -8.61
Si  5.78  5.50  3.94
Si  1.98  1.12 -8.61
Si -1.88 -7.77  3.94
Si -7.58 -4.38 -3.12
Si -7.58  4.46  3.13
Si  0.08 -8.80  3.13
Si  0.08  0.04 -9.37
Si  0.08  0.04  9.38
Si  0.08  8.88 -3.12
Si  7.74 -4.38 -3.12
Si  7.74  4.46  3.13
Si  5.63 -3.35  6.99
Si  5.63  5.50 -5.52
Si  1.89 -7.69 -5.45
Si -7.60  2.24 -5.44
Si -3.77 -8.81  0.82
Si  3.77 -2.24 -8.57
Si -0.06  4.39 -8.57
Si  7.60 -4.45  3.93
Si -0.06  8.81  3.93
Si  9.55  1.15  0.81
Si  3.88 -8.81  0.82
Si  0.05 -6.60  7.07
Si -3.88 -2.24 -8.57
Si -5.76 -3.27  7.06
Si  5.72  3.36  7.06
Si -5.86  3.28  6.99
Si -5.76  5.58 -5.45
Si  5.72  7.79  0.81
Si  7.71  2.24 -5.44
Si -5.86  7.70  0.74
Si  0.05  6.66  7.07
Si -7.71 -4.45  3.93
Si -2.03 -7.77 -5.52
Si -9.68  1.07  0.74
Si  7.58  2.15  6.19
Si -9.46 -3.30 -0.02
Si  7.58  6.58 -0.06
Si  1.84  3.33  9.30
Si -1.98 -3.31  9.30
Si -1.89  7.71 -6.21
Si -5.64 -5.51 -6.28
Si -1.81 -7.72  6.23
Si -3.82 -0.01 -9.33
Si  9.50 -1.09 -3.21
Si  3.83 -0.01 -9.33
Si  5.73  7.69  3.13
Si -9.54  3.29  0.05
Si  5.67 -7.72 -3.21
Si  1.94  9.92  0.05
Si  7.58 -6.68 -0.06
Si -3.82  8.84 -3.08
Si  3.83  8.84 -3.08
Si -1.92  3.27 -9.37
Si  9.56  1.06  3.13
Si  7.58 -2.26 -6.31
Si -1.92  3.27  9.38
Si -1.81  9.96 -0.02
Si -5.72  5.50  6.30
Si  5.77 -5.55 -6.21
Si  1.91 -3.36 -9.37
Si  2.02 -9.93 -0.02
Si -7.73  2.15  6.19
Si -9.58 -1.15 -3.12
Si  1.90 -3.36  9.38
Si -3.82 -8.85  3.17
Si  3.83 -8.85  3.17
Si -1.89 -9.97  0.05
Si -7.73  6.58 -0.06
Si -5.81  7.75  3.05
Si  9.60 -3.34  0.05
Si -5.75 -7.78 -3.12
Si -3.82 -0.01  9.42
Si -9.64  1.12  3.05
Si  3.83 -0.01  9.42
Si  2.02  7.75 -6.28
Si  5.85  5.54  6.23
Si  1.94 -7.76  6.30
Si  1.84  3.33 -9.46
Si -1.98 -3.30 -9.46
Si -7.73 -6.68 -0.06
Si  9.67  3.33 -0.02
Si -7.73 -2.26 -6.31
Si -9.50 -1.09  3.90
Si -9.50  3.33 -2.36
Si -5.68 -7.72  3.90
Si -1.88  9.92 -2.32
Si -9.53 -3.35 -2.32
Si -5.68  1.12 -8.61
Si -3.83 -6.62  7.01
Si  3.83 -6.62  7.01
Si -1.85 -9.94 -2.36
Si -7.66  0.01  7.01
Si  7.66  0.01  7.01
Si -0.00 -2.20 10.15
Si -3.83  6.64  7.01
Si  3.83  6.64  7.01
Si -1.85 -5.51 -8.61
Si  5.78  1.07 -8.57
Si -7.66 -6.62 -2.36
Si  7.66 -6.62 -2.36
Si  1.95 -5.56 -8.57
Si  1.98  1.11 10.15
Si  3.83  8.85  3.90
Si -3.83  8.85  3.90
Si -7.65 -4.41 -5.50
Si  7.66 -4.41 -5.50
Si  7.66  6.64 -2.36
Si -7.66  6.64 -2.36
Si  9.61  3.29 -2.32
Si -3.83  4.43 -8.61
Si  3.83  4.43 -8.61
Si -1.88  1.07 10.19
Si  0.00  8.85 -5.50
Si  1.98  9.96 -2.36
Si  1.95 -9.98 -2.32
Si  9.61 -1.14  3.94
Si  5.78 -7.77  3.94
Si  9.64 -3.30 -2.36
Si -0.02 -8.80 -6.21
Si  7.63  4.47 -6.21
Si  7.63 -4.38  6.29
Si -7.68  4.47 -6.21
Si -7.68 -4.38  6.29
Si -0.03  8.88  6.29
Si  9.46 -5.56  0.74
Si  9.46 -1.14 -5.52
Si -5.76 -7.69 -5.45
Si  5.63 -7.77 -5.52
Si -3.77  8.87 -5.44
Si -9.59 -5.48  0.81
Si -9.59 -1.06 -5.45
Si  3.77 -2.24 10.18
Si -0.06  4.39 10.18
Si  3.88  8.87 -5.44
Si  0.05 11.08  0.82
Si -3.89 -2.24 10.18
Si  5.67 -3.31  9.30
Si  3.75  8.79  6.19
Si  9.50 -5.51  3.05
Si 11.41 -0.05 -0.06
Si -9.46  1.12 -6.28
Si -5.64 -9.93 -0.02
Si -3.90  8.79  6.19
Si  0.00  6.63 -9.33
Si -5.72  9.92  0.05
Si  0.01 -6.64 -9.33
Si  9.56  5.49 -3.12
Si  5.77  7.71 -6.21
Si -5.64  7.75 -6.28
Si -5.81  3.33  9.30
Si  5.73  3.27 -9.37
Si  5.73  3.27  9.38
Si  0.01 -11.06 -3.08
Si  9.60  1.08 -6.21
Si -9.54 -1.13  6.30
Si  0.00 11.04  3.17
Si -5.75 -3.36 -9.37
Si -5.75 -3.36  9.38
Si  5.67 -3.30 -9.46
Si -9.58 -5.57  3.13
Si  5.85 -7.72  6.23
Si -5.72 -7.76  6.30
Si  0.00  6.62  9.42
Si  5.77 -9.97  0.05
Si  0.00 -6.64  9.42
Si  3.75 -8.89 -6.31
Si  5.85  9.96 -0.02
Si  9.67 -1.09  6.23
Si -11.56 -0.05 -0.06
Si -9.64  5.54 -3.21
Si -3.90 -8.89 -6.31
Si -5.81  3.33 -9.46
Si -5.68  1.11 10.15
Si  1.95  7.71 -8.57
Si -9.54  5.50  3.94
Si -1.85 -5.51 10.15
Si -5.71 -5.56 -8.57
Si -5.68  9.96 -2.36
Si  0.00 -11.04  3.90
Si  5.78  9.92 -2.32
Si -7.65 -8.83  0.76
Si  7.66 -8.83  0.76
Si  3.83  4.43 10.15
Si -3.83  4.43 10.15
Si -11.48 -2.20  0.76
Si 11.48 -2.20  0.76
Si -11.48  0.01 -2.36
Si 11.48  0.01 -2.36
Si -5.71 -9.98 -2.32
Si -7.66 -2.20 -8.61
Si  7.66 -2.20 -8.61
Si -3.83 11.06  0.76
Si -1.85  7.75 -8.61
Si  3.83 11.06  0.76
Si  0.00  0.01 -11.75
Si  5.81 -9.94 -2.36
Si  5.81 -5.51 -8.61
Si  5.78  1.07 10.19
Si  1.95 -5.56 10.19
Si  9.63  5.54  3.90
Si -11.40 -2.17  3.13
Si -7.58 -8.80  3.13
Si -11.40  2.25 -3.12
Si -3.75 -11.01 -3.12
Si -7.58  0.04 -9.37
Si -3.75 -6.59 -9.37
Si -7.58  0.04  9.38
Si -3.75 -6.59  9.38
Si -7.58  8.88 -3.12
Si  3.91 -11.01 -3.12
Si -3.75  6.67 -9.37
Si -3.75  6.67  9.38
Si  3.91 -6.59 -9.37
Si -3.75 11.09  3.13
Si  3.91 -6.59  9.38
Si  7.74 -8.80  3.13
Si  3.91  6.67 -9.37
Si  7.74  0.04 -9.37
Si  3.91  6.67  9.38
Si  7.74  0.04  9.38
Si  3.91 11.09  3.13
Si 11.56 -2.17  3.13
Si  7.74  8.88 -3.12
Si 11.56  2.25 -3.12
Si  9.46  3.28  6.99
Si  9.46  7.70  0.74
Si  7.60  4.39 -8.57
Si 11.43  2.18  3.93
Si  1.89 -12.11  0.81
Si -3.77  0.03 -11.69
Si  7.60  8.81  3.93
Si  0.05 -11.02 -5.44
Si  1.89 -3.27 -11.70
Si -11.43  4.45  0.82
Si -2.03  9.91  6.99
Si -7.60 -6.60  7.07
Si -1.93 -9.90  7.06
Si  1.80 -9.98  6.99
Si  3.88  0.03 -11.69
Si  9.55 -3.27  7.06
Si -1.93  3.37 -11.70
Si  9.55  5.58 -5.45
Si -7.60  6.66  7.07
Si -0.06 -8.87 -8.57
Si -7.71  4.39 -8.57
Si  3.77 -11.08  3.93
Si  1.80  3.29 -11.77
Si -7.71  8.81  3.93
Si  7.71 -6.60  7.07
Si -9.59  3.36  7.06
Si -2.03 -12.19  0.74
Si -9.59  7.79  0.81
Si -3.88 -11.08  3.93
Si  1.89  9.99  7.06
Si -11.54  2.18  3.93
Si 11.54  4.45  0.82
Si  7.71  6.66  7.07
Si -2.03 -3.35 -11.77
Si -9.68 -3.35  6.99
Si -9.68  5.50 -5.52
Si -9.47  5.54  6.23
Si  9.50  7.75  3.05
Si -0.08 -2.27 12.44
Si -1.89 -1.13 -12.46
Si -1.92 12.12 -3.12
Si -1.81  1.12 12.48
Si -9.54 -5.55 -6.21
Si -1.98 -12.15  3.05
Si -0.08 11.00 -6.31
Si -9.58  7.69  3.13
Si -11.48 -4.43 -3.08
Si 11.49 -4.43 -3.08
Si -11.48  4.41  3.17
Si 11.49  4.41  3.17
Si  9.56 -7.78 -3.12
Si -0.07 -11.11  6.19
Si  1.84 12.17 -3.21
Si  9.60  5.50  6.30
Si  2.02 -1.09 -12.53
Si  1.91 -12.20  3.13
Si  1.94  1.08 12.55
Si -0.07  2.16 -12.56
Si -9.64 -7.72 -3.21
Si  9.68 -5.51 -6.28
Si -5.71  7.71 -8.57
Si -9.53  1.07 -8.57
Si  1.95 12.12  3.94
Si -1.85  7.75 10.15
Si  7.66 -2.20 10.15
Si -7.66 -2.20 10.15
Si -11.48 -4.41  3.90
Si 11.48 -4.41  3.90
Si -1.85 12.17  3.90
Si -3.83 -8.83 -8.61
Si  3.83 -8.83 -8.61
Si -9.53 -7.77  3.94
Si -3.83 -11.04 -5.50
Si  3.83 -11.04 -5.50
Si  1.95  7.70 10.19
Si -11.48  2.22 -5.50
Si 11.48  2.22 -5.50
Si  5.81 -5.51 10.15
Si -7.66  8.85 -5.50
Si  7.66  8.85 -5.50
Si -5.71 -5.56 10.19
Si  9.64 -7.72  3.90
Si  5.81  7.75 -8.61
Si  9.64  1.12 -8.61
Si  7.63 -8.80 -6.21
Si -0.02 -4.38 -12.46
Si 11.46 -2.17 -6.21
Si -0.02 -13.22  0.04
Si 11.46 -6.59  0.04
Si  3.80  2.26 -12.46
Si -7.68 -8.80 -6.21
Si -3.85  2.26 -12.46
Si  3.80 -11.01  6.29
Si -3.85 -11.01  6.29
Si -11.51 -2.17 -6.21
Si -11.51 -6.59  0.04
Si 11.46  6.67  0.04
Si 11.46  2.25  6.29
Si  3.80 11.10 -6.21
Si  3.80 -2.17 12.54
Si -3.85 11.10 -6.21
Si  7.63  8.88  6.29
Si -3.85 -2.17 12.54
Si -11.51  6.67  0.04
Si -0.03 13.31  0.04
Si -11.51  2.25  6.29
Si -0.03  4.46 12.54
Si -7.68  8.88  6.29
Si 13.29  1.07  0.74
Si  5.63  9.91  6.99
Si -11.43 -4.39 -5.44
Si 11.43  6.60 -2.32
Si  1.80 -1.14 13.24
Si  9.55 -7.69 -5.45
Si  0.05 -6.60 -11.69
Si 11.43 -6.66 -2.32
Si -5.76 -12.11  0.81
Si  5.72 -9.90  7.06
Si -0.06 13.23 -2.32
