500
set: 838.00  0.00  0.00
Si  0.49 -1.11  0.76
Si -0.37  1.17 -0.81
Si -1.34 -1.11 -0.78
Si  1.43  1.22  0.79
Si -0.85 -0.02  2.36
Si -2.16  1.11  0.79
Si  0.87  0.00 -2.43
Si  2.23 -1.13 -0.88
Si  0.01  2.31  2.37
Si -0.03 -2.29 -2.40
Si -3.06 -1.20  0.87
Si  3.09  1.17 -0.83
Si  2.59 -0.10  2.41
Si  0.51  3.47 -0.77
Si -2.68 -0.05 -2.43
Si -0.45 -3.50  0.85
Si  1.23 -3.40 -0.80
Si -1.79  2.22 -2.40
Si  1.76  2.26 -2.41
Si -1.29  3.45  0.77
Si -1.72 -2.31  2.48
Si  1.71 -2.42  2.40
Si  0.89  0.04  4.03
Si -2.17 -3.44 -0.77
Si -3.90  1.15 -0.79
Si -0.87 -0.07 -4.07
Si  3.94 -1.17  0.74
Si  2.25  3.54  0.84
Si -0.03  2.25 -4.01
Si  0.04 -2.27  4.05
Si  3.06 -3.47  0.73
Si -3.06  3.46 -0.83
Si -3.44  2.25  2.44
Si -2.52 -0.00  4.06
Si  3.46  2.23  2.49
Si  2.61 -0.03 -4.09
Si  3.42 -2.39 -2.50
Si -3.53 -2.40 -2.48
Si -4.78 -1.15 -0.82
Si  1.71 -2.35 -4.05
Si -1.69  2.37  4.06
Si -4.34 -0.01  2.49
Si  4.36 -0.03 -2.46
Si  4.80  1.16  0.80
Si -1.77 -2.37 -4.06
Si  1.70  2.40  4.10
Si -0.82  4.52 -2.44
Si -0.96 -4.71 -2.35
Si  0.90  4.66  2.48
Si -3.99 -3.51  0.84
Si  3.99  3.52 -0.83
Si  0.82 -4.74  2.47
Si  3.39 -2.28  3.99
Si  2.58  4.56 -2.35
Si -5.57  1.17  0.84
Si  0.43 -1.18 -5.67
Si  3.53  2.27 -4.02
Si  2.52 -4.63 -2.48
Si  0.46 -5.74 -0.83
Si -0.45  5.76  0.84
Si -2.56  4.65  2.42
Si -0.44  1.14  5.71
Si -3.48 -2.26  4.12
Si -2.64 -4.61  2.48
Si -3.43  2.40 -4.11
Si  5.73 -1.03 -0.83
Si  4.79 -3.33 -0.81
Si  4.34  0.03  4.01
Si  1.30  1.13 -5.66
Si -1.29 -5.72  0.84
Si -4.71  3.51  0.82
Si -1.30 -1.24  5.66
Si -4.41 -0.04 -4.04
Si  1.38  5.82 -0.77
Si -5.15  2.30 -2.43
Si  2.16 -1.16  5.64
Si -5.19 -2.27  2.43
Si -2.19  1.13 -5.66
Si  0.89  4.58 -4.04
Si  5.23  2.24 -2.42
Si  5.21 -2.28  2.46
Si -0.89 -4.59  4.07
Si  2.13 -5.80  0.78
Si -2.15  5.80 -0.82
Si -0.84  4.66  4.07
Si  0.78 -4.74 -4.00
Si  3.03  1.16  5.69
Si -3.06 -1.15 -5.67
Si  6.11  0.01  2.40
Si -3.03 -5.79 -0.77
Si  3.09  5.77  0.85
Si -6.16  0.07 -2.41
Si -0.45 -3.48 -5.66
Si -6.51 -1.19  0.84
Si  0.42  3.47  5.69
Si -2.62  4.62 -4.05
Si  2.56 -4.66  4.07
Si  5.67  3.46  0.78
Si -1.20  3.42 -5.63
Si -5.69 -3.46 -0.82
Si -2.65 -4.68 -4.04
Si  2.65  4.67  4.07
Si  4.26 -4.62  2.45
Si  6.59  1.27 -0.73
Si -4.31  4.63 -2.36
Si  1.23 -3.50  5.65
Si  4.37  4.53  2.47
Si -4.36 -4.75 -2.44
Si -3.92  1.14  5.61
Si  5.23 -2.25 -4.03
Si  2.20  3.43 -5.66
Si  5.22  2.33  4.01
Si  3.96 -5.70 -0.84
Si  3.92 -1.11 -5.68
Si -5.21  2.33  4.08
Si -3.91  5.80  0.82
Si -5.26 -2.36 -4.09
Si -2.22 -3.52  5.74
Si  3.03 -3.42 -5.66
Si  0.01  6.87 -2.48
Si -3.02  3.52  5.66
Si -0.44  1.11 -7.25
Si  6.09  0.04 -4.11
Si  6.45 -3.47  0.82
Si -6.39  3.57 -0.84
Si -6.13  0.03  4.11
Si  4.32  4.53 -4.00
Si  0.42 -1.20  7.32
Si -7.30  1.27 -0.73
Si  4.31 -4.59 -3.99
Si -0.09 -7.04  2.49
Si  4.70  1.14 -5.71
Si -1.34 -1.17 -7.29
Si -4.34  4.63  4.03
Si  1.31  1.17  7.32
Si  7.39 -1.19  0.84
Si -4.38 -4.60  4.07
Si -4.81 -1.13  5.75
Si -1.65  7.00  2.43
Si -4.83 -5.82  0.77
Si  1.82  6.96  2.48
Si  4.77  5.87 -0.80
Si  1.69 -7.02 -2.42
Si -1.78 -7.01 -2.41
Si -6.92  2.28  2.40
Si  6.91 -2.34 -2.43
Si -2.22  1.15  7.29
Si  6.98  2.28  2.40
Si  3.97  3.45  5.66
Si  2.21 -1.19 -7.32
Si -6.99 -2.34 -2.43
Si -3.98 -3.49 -5.69
Si  6.04 -4.63 -2.36
Si  3.01  1.13 -7.33
Si -2.98 -1.21  7.35
Si -6.10 -4.61  2.42
Si  6.06  4.64 -2.48
Si -6.10  4.65  2.45
Si  5.64 -1.13  5.65
Si -0.01 -6.99 -4.02
Si  0.48  3.38 -7.33
Si  7.74  0.07 -2.41
Si  5.65 -5.75  0.82
Si -3.45  6.93 -2.43
Si -0.44  5.78 -5.69
Si  0.48  8.06  0.87
Si  0.07  7.00  4.12
Si  0.43 -5.81  5.66
Si -0.48 -3.50  7.33
Si  4.75 -3.43  5.66
Si -5.70  1.16 -5.70
Si  3.44 -6.99  2.40
Si -0.45 -8.09 -0.83
Si -7.79  0.01  2.40
Si -3.53 -6.96  2.37
Si  3.51  6.97 -2.40
Si -5.57  5.94 -0.81
Si  1.27 -3.49 -7.29
Si  1.68 -6.94  4.01
Si  1.77  6.90 -4.06
Si -1.30  3.49  7.31
Si -1.84 -6.87  4.10
Si -1.72  6.91 -4.09
Si  1.32  5.75  5.74
Si -4.79  3.51 -5.70
Si  1.27 -8.11  0.80
Si -1.34 -5.84 -5.66
Si -1.24  8.12 -0.82
Si -7.45 -3.47  0.82
Si -8.17 -1.03 -0.83
Si  3.89 -1.12  7.26
Si -3.91  1.18 -7.25
Si -6.93 -2.30  4.02
Si  7.50  3.57 -0.84
Si -2.12 -8.05  0.79
Si -2.20 -3.50 -7.27
Si  6.96 -2.30  4.02
Si -6.92  2.40 -4.06
Si  2.19  3.46  7.31
Si  2.13 -5.76 -5.73
Si  6.98  2.40 -4.06
Si -2.15  5.82  5.73
Si  8.32  1.17  0.84
Si  2.20  8.15 -0.78
Si  2.92 -3.49  7.27
Si -3.03  3.50 -7.23
Si  3.05 -8.00 -0.73
Si  6.01 -4.63  4.03
Si -6.05  4.68 -3.99
Si -2.97  8.08  0.84
Si  6.10  4.61  4.07
Si  3.09  5.79 -5.66
Si  3.44 -6.87 -4.06
Si -3.12 -5.79  5.69
Si -6.16 -4.64 -4.05
Si -3.39  6.96  4.02
Si  6.51  1.20  5.72
Si -5.70 -3.45  5.73
Si  7.76  0.03  4.11
Si  5.67  3.50 -5.73
Si -6.55 -1.14 -5.75
Si  6.60  5.79  0.73
Si -7.80  0.04 -4.11
Si -4.78 -1.12 -7.33
Si -6.60 -5.80 -0.83
Si -3.57 -7.02 -4.01
Si  3.58  7.00  4.05
Si  4.79  1.22  7.33
Si  8.21 -3.46 -0.82
Si  5.25  6.84  2.40
Si  3.82 -5.80  5.65
Si -8.23  3.46  0.78
Si  0.90  0.03 -8.92
Si -0.90 -0.04  8.94
Si -3.85  5.81 -5.68
Si -5.15  6.99  2.46
Si  3.94  3.47 -7.34
Si -3.91 -8.09 -0.81
Si  5.21 -6.96 -2.43
Si -3.97 -3.50  7.32
Si  4.03  8.15  0.76
Si -5.33 -7.04 -2.40
Si -0.06 -2.24 -8.88
Si -9.09  1.16  0.80
Si -0.01  2.27  8.93
Si  9.12 -1.15 -0.82
Si -8.67  2.24 -2.42
Si -2.60  0.02 -8.91
Si -5.64  1.18  7.30
Si  6.50 -3.46 -5.68
Si  5.61 -1.18 -7.33
Si -6.53  3.46  5.65
Si -8.69 -2.28  2.46
Si  8.70 -2.27  2.43
Si -1.69  2.37 -8.86
Si  2.54 -0.10  8.98
Si -0.43  5.77  7.32
Si  4.75 -3.44 -7.26
Si -7.30  5.79  0.73
Si -4.80  3.50  7.24
Si  7.30 -5.80 -0.83
Si  0.40 -5.79 -7.34
Si  8.74  2.30 -2.43
Si  1.34  5.77 -7.27
Si  4.77  5.77  5.65
Si  7.80 -4.61  2.42
Si  7.34 -1.14 -5.75
Si -4.74 -5.85 -5.63
Si  7.80  4.65  2.45
Si -7.85 -4.63 -2.36
Si  1.82  2.36 -8.94
Si -7.39  1.20  5.72
Si  1.75 -2.35  8.96
Si -1.35 -5.80  7.31
Si -7.84  4.64 -2.48
Si  4.79 -8.10  0.84
Si -1.81 -2.38  8.97
Si -4.63  8.24 -0.83
Si  2.14 -5.74  7.30
Si  5.14 -6.93  4.08
Si -5.22 -6.90  4.06
Si  0.86  9.22 -2.43
Si -5.13  7.02 -4.03
Si  5.25  6.91 -4.05
Si -2.14  5.76 -7.37
Si -0.80  9.26  2.49
Si  0.82 -9.30 -2.46
Si -0.95 -9.36  2.41
Si -9.11 -3.33 -0.81
Si  3.06  5.77  7.33
Si -8.67 -2.25 -4.03
Si -3.50  2.28  8.89
Si -3.44 -2.27 -8.92
Si  5.57 -5.76 -5.70
Si -8.68  2.33  4.01
Si -9.53 -0.03 -2.46
Si  8.64 -2.36 -4.09
Si  3.47  2.29  8.93
Si -6.57 -1.12  7.28
Si  9.55 -0.01  2.49
Si  9.19  3.51  0.82
Si  8.68  2.33  4.08
Si -5.61  5.84  5.66
Si  6.53  1.20 -7.32
Si -3.06 -5.88 -7.33
Si  3.46 -2.31 -8.97
Si  7.74 -4.64 -4.05
Si  5.68  3.53  7.30
Si  2.57 -9.26  2.40
Si  7.36  3.46  5.65
Si  0.48  8.11 -5.67
Si  2.69  9.24  2.36
Si  4.34 -0.03 -8.92
Si -0.51 -8.11  5.69
Si -7.80  4.61  4.07
Si -2.67 -9.26 -2.43
Si -5.68 -3.50 -7.37
Si -7.39 -3.46 -5.68
Si -4.40 -0.01  8.93
Si  7.85  4.68 -3.99
Si -5.70 -8.15  0.79
Si -2.62  9.33 -2.41
Si -7.88 -4.63  4.03
Si  1.16 -8.13 -5.71
Si  5.77  8.13 -0.88
Si -1.27  8.14  5.75
Si  8.20  1.16 -5.70
Si -9.95 -1.17  0.74
Si  0.89  4.57  8.91
Si  2.24  8.02  5.66
Si  0.83 -4.66  8.89
Si -8.26 -1.13  5.65
Si -0.73  4.62 -8.92
Si -6.94  6.88 -2.50
Si -8.24 -5.75  0.82
Si 10.00  1.15 -0.79
Si  6.96  6.88 -2.50
Si  0.81 -9.24  4.01
Si  3.88 -5.77 -7.33
Si -0.87  9.22 -4.04
Si -0.87 -4.60 -8.96
Si -3.94  5.80  7.29
Si  6.92 -7.02  2.44
Si -2.24 -8.14 -5.66
Si  1.02  9.26  4.06
Si -6.98 -7.02  2.44
Si -0.93 -9.29 -4.09
Si  8.33  5.94 -0.81
Si  6.41 -3.46  7.29
Si  9.49 -0.04 -4.04
Si  2.97 -8.06  5.72
Si -6.41  8.09  0.74
Si -9.55  0.03  4.01
Si  7.33 -1.12  7.28
Si -6.48  3.50 -7.33
Si  4.20 -9.20 -2.41
Si -6.56 -5.75  5.66
Si -2.65  4.59  8.94
Si  2.67  9.19 -4.07
Si -3.02  8.13 -5.75
Si  6.46 -8.12 -0.79
Si -2.65 -9.23  4.03
Si  2.59 -4.61 -8.97
Si  2.56 -9.23 -4.11
Si -2.65 -4.70  8.91
Si  2.67  4.66 -8.96
Si -0.36 10.42 -0.79
Si  6.57  5.84 -5.66
Si -7.37  1.20 -7.32
Si  0.41 -10.44  0.74
Si  4.81  5.78 -7.29
Si -4.25  9.28  2.40
Si -2.59  9.30  4.11
Si -4.84 -5.78  7.31
Si  1.38 10.38  0.79
Si -1.31 -10.40 -0.88
Si -5.21 -2.23  8.87
Si -0.86  0.02 -10.50
Si  9.90 -3.51  0.84
Si -4.39 -9.29  2.36
Si -9.90  3.52 -0.83
Si  4.41  9.27 -2.43
Si  2.19 -10.29 -0.83
Si  5.20 -2.23  8.93
Si  8.20 -3.45  5.73
Si  6.93 -6.87 -4.11
Si -5.15  2.32 -8.96
Si -6.97 -6.87 -4.11
Si -8.23  3.50 -5.73
Si  6.93  6.99  3.99
Si  5.17  2.35 -9.00
Si -6.96  6.99  3.99
Si  3.97  8.09 -5.67
Si  0.80 -0.07 10.63
Si -2.03 10.44  0.84
Si -3.98 -8.12  5.71
Si  0.06  2.32 -10.51
Si  5.56 -5.77  7.24
Si  9.06 -5.82  0.77
Si  9.09 -1.13  5.75
Si  2.61 -0.11 -10.51
Si -0.02 -2.37 10.57
Si -6.10 -0.01 -8.96
Si -9.53  4.53  2.47
Si -3.05 -10.38  0.76
Si  6.07  0.05  8.99
Si -2.61 -0.11 10.54
Si -5.61  5.83 -7.26
Si -9.13  5.87 -0.80
Si  4.31 -4.59  8.87
Si -1.77  2.24 10.50
Si -9.19  1.14 -5.71
Si  1.70 -2.41 -10.49
Si  7.34 -5.75  5.66
Si  9.58  4.63 -2.36
Si -10.81  1.17 -0.83
Si  0.56  8.06  7.35
Si 10.37 -2.40 -2.48
Si -4.35  4.66 -8.87
Si  4.37  4.61  8.89
Si -4.28 -4.64 -8.92
Si  9.53 -4.75 -2.44
Si 10.84 -1.20  0.87
Si  3.17 10.44 -0.81
Si  4.66 -8.10 -5.70
Si -7.33  5.84 -5.66
Si  4.22 -9.23  4.11
Si  1.25 -8.05  7.33
Si -10.44  2.23  2.49
Si -9.64 -4.62  2.45
Si -0.53 -8.14 -7.33
Si 10.46  2.25  2.44
Si  1.72  2.35 10.58
Si -4.72  8.14  5.65
Si -1.75 -2.33 -10.61
Si  7.42  3.50 -7.33
Si -7.48 -3.46  7.29
Si -1.24  8.14 -7.33
Si -4.26  9.31 -4.11
Si -10.48 -2.39 -2.50
Si -7.44 -8.12 -0.79
Si  7.48  8.09  0.74
Si  4.43  9.30  4.03
Si  8.26  1.18  7.30
Si -4.41 -9.34 -4.07
Si  2.20  8.10 -7.29
Si -8.29 -1.18 -7.33
Si -2.23 -8.10  7.32
Si  3.85 -10.46  0.84
Si -3.76 10.54 -0.73
Si -6.00  9.23 -2.46
Si -8.65  6.84  2.40
Si  6.13  9.17  2.41
Si -9.15 -3.43  5.66
Si  2.99 -8.07 -7.32
Si  9.11  3.51 -5.70
Si  6.46  5.78  7.27
Si -9.58  4.53 -4.00
Si  9.52 -4.60  4.07
Si  6.01 -9.27  2.49
Si  0.10  7.00 -8.92
Si -0.07 -6.98  8.93
Si -3.41  2.36 -10.56
Si -3.03  8.15  7.28
Si  4.28  0.01 10.51
Si -6.57 -5.77 -7.23
Si -10.36  2.27 -4.02
Si  8.57 -7.04 -2.40
Si -9.59 -4.59 -3.99
Si  9.55  4.63  4.03
Si  3.49  2.21 -10.58
Si  3.45 -2.38 10.57
Si -8.69 -6.96 -2.43
Si -10.84 -3.47  0.73
Si  5.70  8.11  5.64
Si -4.32  0.01 -10.56
Si 10.84  3.46 -0.83
Si -3.57 -2.40 10.58
Si -1.72 -6.91 -8.94
Si 10.42 -2.26  4.12
Si  1.73  6.89  8.97
Si -1.67  7.04  8.87
Si -5.72 -8.14 -5.66
Si -6.22 -9.31 -2.43
Si -10.50 -2.28  3.99
Si  8.75  6.99  2.46
Si  1.64 -6.92 -9.00
Si 11.22 -0.05 -2.43
Si -9.93 -5.70 -0.84
Si -4.88 -10.38 -0.78
Si  9.97  1.14  5.61
Si 10.47  2.40 -4.11
Si  6.93 -2.31 -8.90
Si -9.97 -1.11 -5.68
Si -8.13  8.13 -0.88
Si -6.97 -2.31 -8.90
Si -8.21  3.53  7.30
Si -0.92  4.59 10.56
Si -0.91 -4.62 10.55
Si -11.31 -0.10  2.41
