500
set: 281.00  0.00  0.00
Si -0.03  0.01  0.00
Si -0.00 -0.01 -2.32
Si  1.94  1.11  0.79
Si  0.04 -2.25  0.80
Si -1.98  1.10  0.80
Si -1.87  3.34  0.05
Si -0.03  2.25 -3.13
Si  1.92 -1.12 -3.15
Si -1.91 -1.09 -3.17
Si  3.86 -0.01 -0.06
Si -1.91 -3.37 -0.02
Si -1.94  1.11  3.16
Si  1.97  1.14  3.13
Si -3.88 -0.01 -0.06
Si  1.97  3.34 -0.02
Si -0.03 -2.23  3.18
Si  1.99 -3.36  0.05
Si -3.83 -2.19  0.78
Si  0.02  2.23  3.91
Si  1.90 -1.14  3.92
Si -1.96  3.34 -2.33
Si  1.89  3.33 -2.39
Si  1.91 -3.37 -2.33
Si  3.90 -2.19  0.78
Si -3.86  0.00 -2.40
Si  3.88  0.00 -2.40
Si  0.04  4.51  0.78
Si -1.96 -1.14  3.98
Si -1.98 -3.38 -2.39
Si  3.83 -2.21  3.14
Si -0.05 -4.44 -3.17
Si  3.82  2.27 -3.17
Si -3.92 -2.21  3.14
Si -0.04  4.50  3.14
Si -3.92  2.27 -3.17
Si  5.76  1.10  0.80
Si -3.82  4.46  0.80
Si  1.89 -1.13 -5.52
Si  0.04  2.23 -5.51
Si -1.94 -1.12 -5.52
Si -5.80  1.11  0.79
Si  1.89 -5.61  0.80
Si -1.94 -5.59  0.79
Si -3.87  2.22  3.99
Si  3.87  2.22  3.99
Si  3.92  4.46  0.80
Si -0.00 -4.49  3.99
Si  0.00  2.23  6.25
Si -5.75 -3.36  0.05
Si  1.99  1.11 -6.26
Si -5.77  1.14  3.13
Si  3.84 -4.46 -3.13
Si -1.91 -5.57  3.13
Si -5.77  3.34 -0.02
Si  1.97 -1.13  6.29
Si  5.80  1.11  3.16
Si -1.94  5.59 -3.15
Si -3.90 -4.46 -3.13
Si -0.00  6.70 -0.06
Si -1.91  1.11 -6.33
Si  3.85  4.48  3.18
Si  1.92 -5.60  3.16
Si -5.82 -1.12 -3.15
Si -0.01 -6.71 -0.06
Si -1.87 -1.13  6.36
Si  5.83 -1.09 -3.17
Si -3.89  4.48  3.18
Si  5.83 -3.37 -0.02
Si  1.97  5.62 -3.17
Si -0.01 -2.24 -6.37
Si  5.87  3.34  0.05
Si  5.78  3.34 -2.33
Si -3.86 -4.47  3.91
Si  0.03 -4.43 -5.53
Si -1.97  5.56  3.92
Si  5.76 -3.38 -2.39
Si  0.04  0.04  7.09
Si  3.88 -4.47  3.91
Si -3.84  2.28 -5.53
Si  1.92  5.57  3.98
Si  5.78 -1.14  3.98
Si  0.00 -6.71 -2.40
Si  0.02  6.71 -2.40
Si -5.83 -3.37 -2.33
Si -5.84 -1.14  3.92
Si -5.85  3.33 -2.39
Si  3.90  2.28 -5.53
Si  3.84 -2.22 -6.31
Si  7.71  0.01  0.00
Si  3.84 -6.70  0.00
Si  3.85  2.24  6.31
Si -0.02 -4.47  6.31
Si -0.03  4.49 -6.31
Si  3.85  6.72  0.00
Si -3.90 -2.22 -6.31
Si -3.89  2.24  6.31
Si -3.90 -6.70  0.00
Si -3.89  6.72  0.00
Si -7.76  0.01  0.00
Si -7.70 -2.25  0.80
Si -3.82 -0.02  7.11
Si -3.83 -4.48 -5.51
Si  7.74 -0.01 -2.32
Si -3.87  6.70 -2.32
Si  1.90  3.34  7.11
Si  3.87  6.70 -2.32
Si  1.90  7.81  0.80
Si -1.92  3.35  7.10
Si -7.74 -0.01 -2.32
Si  5.80 -1.12 -5.52
Si  3.86 -6.72 -2.32
Si -1.98  5.58 -5.52
Si  1.94  5.59 -5.52
Si  1.94 -3.36  7.10
Si -1.93  7.82  0.79
Si -3.88 -6.72 -2.32
Si  5.80 -5.59  0.79
Si  3.91 -4.48 -5.51
Si -1.97 -3.37  7.11
Si  3.92 -0.02  7.11
Si -5.85 -1.13 -5.52
Si  7.78 -2.25  0.80
Si -5.85 -5.61  0.80
Si -5.75  1.11 -6.26
Si  3.86 -4.48  6.25
Si -1.88 -5.60 -6.26
Si -5.77 -1.13  6.29
Si -3.88 -4.48  6.25
Si -1.89  5.58  6.29
Si  7.71  2.25 -3.13
Si  7.71 -2.23  3.18
Si  1.96 -7.80 -3.17
Si  5.80  5.59 -3.15
Si  5.83 -5.57  3.13
Si  1.93  7.82  3.16
Si -5.77  5.62 -3.17
Si -1.96 -7.83 -3.15
Si -1.89  7.85  3.13
Si -7.77  2.25 -3.13
Si -5.82 -5.60  3.16
Si  1.96 -5.60 -6.33
Si  5.83  1.11 -6.33
Si -7.76 -2.23  3.18
Si  3.86  4.47 -6.37
Si  2.01  5.58  6.36
Si -3.88  4.47 -6.37
Si  5.87 -1.13  6.36
Si  1.90  1.10 -8.64
Si  5.77  5.56  3.92
Si  0.03 -8.90  0.78
Si -7.72  2.23  3.91
Si -7.70  4.51  0.78
Si  7.76  2.23  3.91
Si -5.82  5.57  3.98
Si -1.98  1.10 -8.70
Si  0.00 -2.23 -8.71
Si -1.98 -7.85  3.92
Si  1.91 -7.85  3.98
Si  7.78  4.51  0.78
Si  7.69 -4.44 -3.17
Si -0.04  0.02  9.45
Si -0.05 -8.92  3.14
Si  7.70  4.50  3.14
Si -0.05  0.03 -9.48
Si -7.79 -4.44 -3.17
Si -0.04  8.97 -3.17
Si -7.78  4.50  3.14
Si  3.86 -2.24 -8.63
Si -0.01  4.47 -8.63
Si -7.70  2.23 -5.51
Si -3.88 -2.24 -8.63
Si  5.76  5.58 -5.52
Si  5.76 -3.37  7.11
Si  0.06  6.69  7.11
Si -5.80 -3.36  7.10
Si -5.80  5.59 -5.52
Si  5.82  3.35  7.10
Si  1.93 -7.83 -5.52
Si  9.68  1.11  0.79
Si -3.83 -8.96  0.80
Si  5.81  7.82  0.79
Si  0.01  8.93  3.99
Si -5.84  3.34  7.11
Si -5.84  7.81  0.80
Si  0.04 -6.73  7.11
Si -1.99 -7.84 -5.52
Si  7.74 -4.49  3.99
Si  7.78  2.23 -5.51
Si -7.74 -4.49  3.99
Si  3.91 -8.96  0.80
Si -9.71  1.10  0.80
Si -9.61  3.34  0.05
Si  3.84  0.01 -9.44
Si -1.87  7.82 -6.26
Si -7.74  2.23  6.25
Si  7.74  2.23  6.25
Si -1.89  3.38  9.45
Si  1.97 -3.33  9.45
Si -5.78 -7.80 -3.17
Si -9.65 -1.09 -3.17
Si -3.90  0.01 -9.44
Si -9.65 -3.37 -0.02
Si -5.73  5.58  6.36
Si  1.92  3.35 -9.46
Si  9.66 -1.12 -3.15
Si -1.96 -3.35 -9.46
Si -1.89 10.05 -0.02
Si  5.78 -7.83 -3.15
Si  1.94  3.34  9.47
Si -1.91 -7.84  6.29
Si  3.84 -8.94  3.18
Si  7.73 -6.71 -0.06
Si  3.85  8.95 -3.13
Si  7.74  6.70 -0.06
Si  5.85  5.58  6.29
Si  5.86 -5.60 -6.26
Si -1.94 -3.37  9.47
Si  1.95 -3.32 -9.49
Si -5.81  7.82  3.16
Si -7.74  6.70 -0.06
Si -5.78 -5.60 -6.33
Si  3.85  0.00  9.49
Si -9.68  1.11  3.16
Si -1.88 -10.07  0.05
Si  2.01 10.05  0.05
Si  1.97  7.82 -6.33
Si -1.91  3.39 -9.49
Si -3.89  8.95 -3.13
Si -3.89  0.00  9.49
Si -7.75 -6.71 -0.06
Si -3.90 -8.94  3.18
Si  7.72 -2.24 -6.37
Si  1.96 -10.07 -0.02
Si  9.71  1.14  3.13
Si  9.71  3.34 -0.02
Si  5.85  7.85  3.13
Si -7.75 -2.24 -6.37
Si  2.00 -7.84  6.36
Si  9.73 -3.36  0.05
Si  0.02 -2.24 10.22
Si -3.83 -6.67  7.09
Si -7.70  0.04  7.09
Si  9.63 -1.14  3.92
Si  9.63  3.33 -2.39
Si -7.71 -4.43 -5.53
Si -1.97  1.09 10.23
Si  9.64 -3.37 -2.33
Si -5.83  1.10 -8.64
Si -1.97 -5.61 -8.64
Si  1.92 10.04 -2.33
Si  5.76  1.10 -8.70
Si -3.85  8.94  3.91
Si  3.91 -6.67  7.09
Si  5.76 -7.85  3.92
Si  3.89  8.94  3.91
Si -1.97 10.04 -2.39
Si -3.82  6.75  7.09
Si -7.72  6.71 -2.40
Si  7.77 -4.43 -5.53
Si -9.70  3.34 -2.33
Si -7.74 -6.71 -2.40
Si  1.88 -5.61 -8.70
Si  7.74 -6.71 -2.40
Si  7.78  0.04  7.09
Si  1.92  1.09 10.29
Si -1.97 -10.08 -2.33
Si -3.86  4.48 -8.71
Si  1.88 -10.08 -2.39
Si  7.76  6.71 -2.40
Si  3.88  4.48 -8.71
Si  3.92  6.75  7.09
Si -9.70 -1.14  3.98
Si  0.04  8.99 -5.53
Si -5.83 -7.85  3.98
Si -9.72 -3.38 -2.39
Si  7.71 -4.47  6.31
Si  7.71  4.49 -6.31
Si -0.04 -8.93 -6.31
Si -0.01  8.95  6.31
Si -7.76 -4.47  6.31
Si -7.77  4.49 -6.31
Si  9.63 -1.13 -5.52
Si  9.63 -5.61  0.80
Si -3.82  8.93 -5.51
Si  5.75 -7.84 -5.52
Si  0.06 11.17  0.80
Si -9.68 -1.12 -5.52
Si  3.92  8.93 -5.51
Si -5.82 -7.83 -5.52
Si -9.68 -5.59  0.79
Si  0.01  4.46 10.30
Si -3.87 -2.25 10.30
Si  3.87 -2.25 10.30
Si -5.77 -3.33  9.45
Si -3.86  8.94  6.25
Si -9.65 -5.57  3.13
Si  3.88  8.94  6.25
Si -5.73 10.05  0.05
Si -0.04 -6.69 -9.44
Si -9.61 -1.13  6.36
Si  5.78 -3.35 -9.46
Si -0.03  6.72 -9.44
Si -9.65  1.11 -6.33
Si -5.79 -3.32 -9.49
Si -5.77  7.82 -6.33
Si -0.04 -11.17 -3.13
Si 11.60 -0.01 -0.06
Si -5.80  3.34  9.47
Si -5.82  3.35 -9.46
Si  9.66 -5.60  3.16
Si  5.80 -3.37  9.47
Si  5.85  3.38  9.45
Si  5.87  7.82 -6.26
Si -9.68  5.59 -3.15
Si -5.74 -7.84  6.36
Si -5.78 -10.07 -0.02
Si -11.62 -0.01 -0.06
Si -0.02 -6.71  9.49
Si  5.83 -7.84  6.29
Si -0.01  6.71  9.49
Si  9.71 -1.13  6.29
Si  9.73  1.11 -6.26
Si  5.84 10.05 -0.02
Si -0.01 11.19  3.18
Si  5.83  3.39 -9.49
Si  3.85 -8.95 -6.37
Si  5.86 -10.07  0.05
Si -3.89 -8.95 -6.37
Si  9.71  5.62 -3.17
Si -3.85  4.47 10.22
Si  5.77  1.09 10.23
Si  5.77 -5.61 -8.64
Si -7.71 -8.90  0.78
Si -11.57 -2.19  0.78
Si -1.96  7.81 -8.64
Si  3.90  4.47 10.22
Si  5.77 10.04 -2.39
Si  1.90 -5.62 10.23
Si  9.66  5.57  3.98
Si -5.82 10.04 -2.33
Si  7.77 -8.90  0.78
Si  1.89  7.81 -8.70
Si  0.03  0.05 -11.84
Si  5.77 -10.08 -2.33
Si  0.01 -11.18  3.91
Si -11.60  0.00 -2.40
Si -9.71  5.56  3.92
Si 11.62  0.00 -2.40
Si -7.74 -2.23 -8.71
Si  7.74 -2.23 -8.71
Si 11.64 -2.19  0.78
Si -5.82  1.09 10.29
Si -3.82 11.22  0.78
Si -1.96 -5.62 10.29
Si -5.86 -5.61 -8.70
Si -5.86 -10.08 -2.39
Si  3.92 11.22  0.78
Si 11.56 -2.21  3.14
Si  7.69 -8.92  3.14
Si  7.70  0.02  9.45
Si  3.83 -6.69  9.45
Si 11.56  2.27 -3.17
Si  3.81 -11.15 -3.17
Si  3.81 -6.67 -9.48
Si  7.69  0.03 -9.48
Si -3.91 -6.69  9.45
Si  3.84  6.73  9.45
Si -7.78  0.02  9.45
Si -3.93 -11.15 -3.17
Si -3.90  6.73  9.45
Si  7.70  8.97 -3.17
Si -3.93 -6.67 -9.48
Si  3.82  6.74 -9.48
Si -7.79 -8.92  3.14
Si  3.84 11.21  3.14
Si -11.65 -2.21  3.14
Si -7.79  0.03 -9.48
Si -3.90 11.21  3.14
Si -3.92  6.74 -9.48
Si -11.66  2.27 -3.17
Si -7.78  8.97 -3.17
Si -11.56  4.46  0.80
Si  7.73  4.47 -8.63
Si -7.68  6.69  7.11
Si -7.75  4.47 -8.63
Si -3.83 -0.01 -11.82
Si  9.64  3.34  7.11
Si  9.64  7.81  0.80
Si  1.89  3.35 -11.83
Si -0.02 -8.95 -8.63
Si  1.92 -3.35 -11.83
Si -7.70 -6.73  7.11
Si -9.66  3.35  7.10
Si -1.94  3.36 -11.83
Si  3.90 -0.01 -11.82
Si -1.99 -3.36 -11.83
Si -9.66  7.82  0.79
Si -1.96 10.04  7.11
Si  1.95 10.05  7.10
Si  9.68  5.59 -5.52
Si  9.68 -3.36  7.10
Si -7.73  8.93  3.99
Si -11.61  2.22  3.99
Si -1.94 -10.07  7.10
Si  0.03 -11.19 -5.51
Si  1.89 -10.08  7.11
Si 11.61  2.22  3.99
Si  1.93 -12.30  0.79
Si  7.75  8.93  3.99
Si -9.72  5.58 -5.52
Si  7.80  6.69  7.11
Si  3.86 -11.19  3.99
Si -1.99 -12.31  0.80
Si -9.71 -3.37  7.11
Si -3.88 -11.19  3.99
Si  7.79 -6.73  7.11
Si 11.66  4.46  0.80
Si  0.00 -2.25 12.56
Si -1.89 -1.12 -12.57
Si -9.62 -5.60 -6.26
Si -9.63  5.58  6.29
Si -1.89  1.10 12.60
Si 11.58 -4.46 -3.13
Si -0.01 -11.19  6.25
Si -9.63  7.85  3.13
Si  1.96 -12.27  3.13
Si 11.59  4.48  3.18
Si  9.67  7.82  3.16
Si  1.93 12.29 -3.15
Si  9.70 -7.80 -3.17
Si  1.95 -1.12 -12.64
Si -9.70 -7.83 -3.15
Si -11.64 -4.46 -3.13
Si -1.96 -12.30  3.16
Si -11.63  4.48  3.18
Si  9.70 -5.60 -6.33
Si -0.00 11.18 -6.37
Si -1.90 12.33 -3.17
Si  2.01  1.10 12.67
Si -0.02  2.24 -12.68
Si  9.75  5.58  6.36
Si  9.64  1.10 -8.64
Si -7.72 -2.24 10.22
Si  5.78  7.81 -8.64
Si  1.91  7.80 10.23
Si -3.85 -11.13 -5.53
Si  7.76 -2.24 10.22
Si  1.91 12.27  3.92
Si  3.89 -11.13 -5.53
Si -11.57  2.28 -5.53
Si -11.60 -4.47  3.91
Si 11.62 -4.47  3.91
Si -1.94 12.28  3.98
Si -5.84 -5.62 10.23
Si  9.65 -7.85  3.98
Si -1.94  7.80 10.29
Si -7.70  8.99 -5.53
Si  3.87 -8.94 -8.71
Si -5.85  7.81 -8.70
Si -3.87 -8.94 -8.71
Si  5.78 -5.62 10.29
Si 11.64  2.28 -5.53
Si -9.72  1.10 -8.70
Si -9.72 -7.85  3.92
Si  7.78  8.99 -5.53
Si 11.58 -2.22 -6.31
Si  7.70 -8.93 -6.31
Si 11.58 -6.70  0.00
Si  3.83  2.25 -12.62
Si -0.04 -4.46 -12.62
Si  3.85 -2.23 12.62
Si 11.59  2.24  6.31
Si -0.01  4.47 12.62
Si 11.59  6.72  0.00
Si -3.89 -2.23 12.62
Si  3.84 -11.18  6.31
Si -3.90  2.25 -12.62
Si  7.73  8.95  6.31
Si -0.04 -13.41  0.00
Si  3.85 11.19 -6.31
Si -3.90 -11.18  6.31
Si -7.75  8.95  6.31
Si -11.63  2.24  6.31
Si -7.78 -8.93 -6.31
Si -3.89 11.19 -6.31
Si -0.01 13.43  0.00
Si -11.64 -2.22 -6.31
Si -11.63  6.72  0.00
Si -11.64 -6.70  0.00
Si -11.56 -0.02  7.11
Si 13.50  1.10  0.80
Si  5.75 -3.36 -11.83
Si -7.68 11.17  0.80
Si -11.57 -4.48 -5.51
Si  0.04  6.70 -11.82
Si  5.78 10.04  7.11
Si -1.92 -1.13 13.41
Si  5.80  3.36 -11.83
Si  0.03 -6.71 -11.82
Si  1.90 -1.14 13.42
