500
set: 25.00  0.00  0.00
Si  0.00  0.00  0.00
Si -1.16  2.23  0.00
Si  1.16 -2.23  0.00
Si -0.24  0.12  2.54
Si  0.24 -0.12 -2.54
Si  2.61  0.00  0.00
Si -2.61  0.00  0.00
Si  1.45  2.23  0.00
Si -1.45 -2.23  0.00
Si -0.93  2.10 -2.54
Si  0.93 -2.10  2.54
Si  2.38  0.12  2.54
Si -2.38 -0.12 -2.54
Si -1.21 -2.35 -2.54
Si  1.21  2.35  2.54
Si  1.69  2.10 -2.54
Si -1.69 -2.10  2.54
Si  1.40 -2.35 -2.54
Si -1.40  2.35  2.54
Si -2.85  0.12  2.54
Si  2.85 -0.12 -2.54
Si  3.78 -2.23  0.00
Si -3.78  2.23  0.00
Si  0.29  4.46  0.00
Si -0.29 -4.46  0.00
Si  4.06  2.23  0.00
Si -4.06 -2.23  0.00
Si -3.54  2.10 -2.54
Si  3.54 -2.10  2.54
Si -2.33  4.46  0.00
Si  2.33 -4.46  0.00
Si -0.52 -4.33  2.54
Si  0.52  4.33 -2.54
Si  0.47 -0.25 -5.09
Si -0.47  0.25  5.09
Si  3.83  2.35  2.54
Si -3.83 -2.35 -2.54
Si -5.23  0.00  0.00
Si  5.23  0.00  0.00
Si -0.05 -4.58 -2.54
Si  0.05  4.58  2.54
Si  4.01 -2.35 -2.54
Si -4.01  2.35  2.54
Si -2.90 -4.46  0.00
Si  2.90  4.46  0.00
Si  4.30  2.10 -2.54
Si -4.30 -2.10  2.54
Si -2.09  4.33 -2.54
Si  2.09 -4.33  2.54
Si  0.69 -1.98  5.09
Si -0.69  1.98 -5.09
Si -2.14 -0.25 -5.09
Si  2.14  0.25  5.09
Si  4.99  0.12  2.54
Si -4.99 -0.12 -2.54
Si -0.98 -2.48 -5.09
Si  0.98  2.48  5.09
Si  1.92  1.98 -5.09
Si -1.92 -1.98  5.09
Si -2.56  4.58  2.54
Si  2.56 -4.58 -2.54
Si  2.66  4.58  2.54
Si -2.66 -4.58 -2.54
Si -1.64  2.48  5.09
Si  1.64 -2.48 -5.09
Si -3.14 -4.33  2.54
Si  3.14  4.33 -2.54
Si -3.09  0.25  5.09
Si  3.09 -0.25 -5.09
Si  5.46 -0.12 -2.54
Si -5.46  0.12  2.54
Si -3.30  1.98 -5.09
Si  3.30 -1.98  5.09
Si -0.76 -4.21  5.09
Si  0.76  4.21 -5.09
Si  4.94 -4.46  0.00
Si -4.94  4.46  0.00
Si -3.59 -2.48 -5.09
Si  3.59  2.48  5.09
Si -0.88  6.69  0.00
Si  0.88 -6.69  0.00
Si  6.39 -2.23  0.00
Si -6.39  2.23  0.00
Si -1.85  4.21 -5.09
Si  1.85 -4.21  5.09
Si  4.70 -4.33  2.54
Si -4.70  4.33 -2.54
Si -1.74 -6.69  0.00
Si  1.74  6.69  0.00
Si -0.19  4.71  5.09
Si  0.19 -4.71 -5.09
Si  4.75  0.25  5.09
Si -4.75 -0.25 -5.09
Si  6.15 -2.10  2.54
Si -6.15  2.10 -2.54
Si  6.68  2.23  0.00
Si -6.68 -2.23  0.00
Si -0.64  6.56 -2.54
Si  0.64 -6.56  2.54
Si  4.25 -2.48 -5.09
Si -4.25  2.48  5.09
Si  5.51  4.46  0.00
Si -5.51 -4.46  0.00
Si -4.54 -1.98  5.09
Si  4.54  1.98 -5.09
Si  1.97  6.56 -2.54
Si -1.97 -6.56  2.54
Si -6.44 -2.35 -2.54
Si  6.44  2.35  2.54
Si  2.42  4.71  5.09
Si -2.42 -4.71 -5.09
Si -1.11  6.81  2.54
Si  1.11 -6.81 -2.54
Si  5.18 -4.58 -2.54
Si -5.18  4.58  2.54
Si -3.37 -4.21  5.09
Si  3.37  4.21 -5.09
Si  1.50  6.81  2.54
Si -1.50 -6.81 -2.54
Si -5.28 -4.58 -2.54
Si  5.28  4.58  2.54
Si -2.80  4.71  5.09
Si  2.80 -4.71 -5.09
Si -6.63  2.35  2.54
Si  6.63 -2.35 -2.54
Si -3.49  6.69  0.00
Si  3.49 -6.69  0.00
Si -5.75 -4.33  2.54
Si  5.75  4.33 -2.54
Si -5.70  0.25  5.09
Si  5.70 -0.25 -5.09
Si -6.91 -2.10  2.54
Si  6.91  2.10 -2.54
Si -0.71  0.38  7.63
Si  0.71 -0.38 -7.63
Si  3.25 -6.56  2.54
Si -3.25  6.56 -2.54
Si -7.84  0.00  0.00
Si  7.84  0.00  0.00
Si -0.45  1.85 -7.63
Si  0.45 -1.85  7.63
Si -1.90 -0.38 -7.63
Si  1.90  0.38  7.63
Si -4.47  4.21 -5.09
Si  4.47 -4.21  5.09
Si -4.35 -6.69  0.00
Si  4.35  6.69  0.00
Si  7.60  0.12  2.54
Si -7.60 -0.12 -2.54
Si  5.92 -1.98  5.09
Si -5.92  1.98 -5.09
Si  0.74  2.60  7.63
Si -0.74 -2.60 -7.63
Si  2.16  1.85 -7.63
Si -2.16 -1.85  7.63
Si  3.73 -6.81 -2.54
Si -3.73  6.81  2.54
Si -0.40  6.43 -5.09
Si  0.40 -6.43  5.09
Si -1.88  2.60  7.63
Si  1.88 -2.60 -7.63
Si -3.33  0.38  7.63
Si  3.33 -0.38 -7.63
Si -4.11 -6.81 -2.54
Si  4.11  6.81  2.54
Si  6.20  2.48  5.09
Si -6.20 -2.48 -5.09
Si  4.59  6.56 -2.54
Si -4.59 -6.56  2.54
Si  3.07 -1.85  7.63
Si -3.07  1.85 -7.63
Si -8.08  0.12  2.54
Si  8.08 -0.12 -2.54
Si -2.21 -6.43  5.09
Si  2.21  6.43 -5.09
Si -5.04 -4.71 -5.09
Si  5.04  4.71  5.09
Si -1.26 -6.94 -5.09
Si  1.26  6.94  5.09
Si  1.35 -6.94 -5.09
Si -1.35  6.94  5.09
Si  1.00  4.08 -7.63
Si -1.00 -4.08  7.63
Si  3.35  2.60  7.63
Si -3.35 -2.60 -7.63
Si -3.02  6.43 -5.09
Si  3.02 -6.43  5.09
Si -7.55  4.46  0.00
Si  7.55 -4.46  0.00
Si  5.42 -4.71 -5.09
Si -5.42  4.71  5.09
Si  1.62 -4.08  7.63
Si -1.62  4.08 -7.63
Si -4.52 -0.38 -7.63
Si  4.52  0.38  7.63
Si -7.32  4.33 -2.54
Si  7.32 -4.33  2.54
Si -6.87  2.48  5.09
Si  6.87 -2.48 -5.09
Si  5.99  4.21 -5.09
Si -5.99 -4.21  5.09
Si  0.57  8.91  0.00
Si -0.57 -8.91  0.00
Si  7.37  0.25  5.09
Si -7.37 -0.25 -5.09
Si -7.15 -1.98  5.09
Si  7.15  1.98 -5.09
Si  0.42 -4.83 -7.63
Si -0.42  4.83  7.63
Si -6.11  6.69  0.00
Si  6.11 -6.69  0.00
Si -2.04  8.91  0.00
Si  2.04 -8.91  0.00
Si -5.87  6.56 -2.54
Si  5.87 -6.56  2.54
Si  0.81  8.79 -2.54
Si -0.81 -8.79  2.54
Si  4.77  1.85 -7.63
Si -4.77 -1.85  7.63
Si  4.49 -2.60 -7.63
Si -4.49  2.60  7.63
Si -8.13 -4.46  0.00
Si  8.13  4.46  0.00
Si  9.00 -2.23  0.00
Si -9.00  2.23  0.00
Si  2.19  4.83  7.63
Si -2.19 -4.83 -7.63
Si  1.80 -8.79  2.54
Si -1.80  8.79 -2.54
Si -8.77  2.10 -2.54
Si  8.77 -2.10  2.54
Si -3.61 -4.08  7.63
Si  3.61  4.08 -7.63
Si -7.79  4.58  2.54
Si  7.79 -4.58 -2.54
Si -0.34 -9.04 -2.54
Si  0.34  9.04  2.54
Si  3.88  6.94  5.09
Si -3.88 -6.94 -5.09
Si -3.19 -8.91  0.00
Si  3.19  8.91  0.00
Si -3.96  6.94  5.09
Si  3.96 -6.94 -5.09
Si -7.89 -4.58 -2.54
Si  7.89  4.58  2.54
Si -4.82 -6.43  5.09
Si  4.82  6.43 -5.09
Si -3.04  4.83  7.63
Si  3.04 -4.83 -7.63
Si -9.29 -2.23  0.00
Si  9.29  2.23  0.00
Si -4.23  4.08 -7.63
Si  4.23 -4.08  7.63
Si  6.34 -6.81 -2.54
Si -6.34  6.81  2.54
Si  6.96  6.69  0.00
Si -6.96 -6.69  0.00
Si -2.28  9.04  2.54
Si  2.28 -9.04 -2.54
Si -5.94  0.38  7.63
Si  5.94 -0.38 -7.63
Si  7.08 -4.21  5.09
Si -7.08  4.21 -5.09
Si -5.68  1.85 -7.63
Si  5.68 -1.85  7.63
Si  9.05  2.35  2.54
Si -9.05 -2.35 -2.54
Si  8.31 -0.25 -5.09
Si -8.31  0.25  5.09
Si  8.36  4.33 -2.54
Si -8.36 -4.33  2.54
Si -3.42 -8.79  2.54
Si  3.42  8.79 -2.54
Si -2.95 -9.04 -2.54
Si  2.95  9.04  2.54
Si  9.24 -2.35 -2.54
Si -9.24  2.35  2.54
Si  0.17 -6.31  7.63
Si -0.17  6.31 -7.63
Si  6.73  6.81  2.54
Si -6.73 -6.81 -2.54
Si -5.63  6.43 -5.09
Si  5.63 -6.43  5.09
Si -5.97 -2.60 -7.63
Si  5.97  2.60  7.63
Si  4.66 -8.91  0.00
Si -4.66  8.91  0.00
Si  7.20  6.56 -2.54
Si -7.20 -6.56  2.54
Si  9.53  2.10 -2.54
Si -9.53 -2.10  2.54
Si  1.05  8.66 -5.09
Si -1.05 -8.66  5.09
Si  8.53 -1.98  5.09
Si -8.53  1.98 -5.09
Si  4.42 -8.79  2.54
Si -4.42  8.79 -2.54
Si -1.57  8.66 -5.09
Si  1.57 -8.66  5.09
Si  2.45  6.31 -7.63
Si -2.45 -6.31  7.63
Si -0.95  0.50 10.17
Si  0.95 -0.50 -10.17
Si -4.80 -4.83 -7.63
Si  4.80  4.83  7.63
Si -2.78  6.31 -7.63
Si  2.78 -6.31  7.63
Si -1.67 -0.50 -10.17
Si  1.67  0.50 10.17
Si  0.22 -1.73 10.17
Si -0.22  1.73 -10.17
Si -7.65 -4.71 -5.09
Si  7.65  4.71  5.09
Si -1.02 -7.06 -7.63
Si  1.02  7.06  7.63
Si  7.13  0.38  7.63
Si -7.13 -0.38 -7.63
Si 10.45  0.00  0.00
Si -10.45  0.00  0.00
Si -8.82 -2.48 -5.09
Si  8.82  2.48  5.09
Si -0.10 -9.16 -5.09
Si  0.10  9.16  5.09
Si  1.59 -7.06 -7.63
Si -1.59  7.06  7.63
Si -10.22 -0.12 -2.54
Si 10.22  0.12  2.54
Si -0.50 -2.73 -10.17
Si  0.50  2.73 10.17
Si -4.89  9.04  2.54
Si  4.89 -9.04 -2.54
Si  2.40  1.73 -10.17
Si -2.40 -1.73 10.17
Si  8.03 -4.71 -5.09
Si -8.03  4.71  5.09
Si  5.80  8.91  0.00
Si -5.80 -8.91  0.00
Si  5.65 -4.83 -7.63
Si -5.65  4.83  7.63
Si -6.22 -4.08  7.63
Si  6.22  4.08 -7.63
Si -3.66 -8.66  5.09
Si  3.66  8.66 -5.09
Si -2.83  1.73 -10.17
Si  2.83 -1.73 10.17
Si  2.11 -2.73 -10.17
Si -2.11  2.73 10.17
Si -7.10  2.60  7.63
Si  7.10 -2.60 -7.63
Si -6.49 -6.94 -5.09
Si  6.49  6.94  5.09
Si  2.52 -9.16 -5.09
Si -2.52  9.16  5.09
Si  7.39  1.85 -7.63
Si -7.39 -1.85  7.63
Si -3.56  0.50 10.17
Si  3.56 -0.50 -10.17
Si -2.71 -9.16 -5.09
Si  2.71  9.16  5.09
Si -6.58  6.94  5.09
Si  6.58 -6.94 -5.09
Si -8.60 -4.21  5.09
Si  8.60  4.21 -5.09
Si  4.18 -8.66  5.09
Si -4.18  8.66 -5.09
Si  5.56  9.04  2.54
Si -5.56 -9.04 -2.54
Si  6.04  8.79 -2.54
Si -6.04 -8.79  2.54
Si -3.12 -2.73 -10.17
Si  3.12  2.73 10.17
Si  1.23  3.96 -10.17
Si -1.23 -3.96 10.17
Si -8.72  6.69  0.00
Si  8.72 -6.69  0.00
Si -10.69  0.12  2.54
Si 10.69 -0.12 -2.54
Si -1.38  3.96 -10.17
Si  1.38 -3.96 10.17
Si  3.64  7.06  7.63
Si -3.64 -7.06 -7.63
Si  8.48 -6.56  2.54
Si -8.48  6.56 -2.54
Si -6.84  4.08 -7.63
Si  6.84 -4.08  7.63
Si -9.48  2.48  5.09
Si  9.48 -2.48 -5.09
Si -4.28 -0.50 -10.17
Si  4.28  0.50 10.17
Si -7.44 -6.43  5.09
Si  7.44  6.43 -5.09
Si -10.17  4.46  0.00
Si 10.17 -4.46  0.00
Si -5.06 -6.31  7.63
Si  5.06  6.31 -7.63
Si  9.93 -4.33  2.54
Si -9.93  4.33 -2.54
Si  0.59 -11.14  0.00
Si -0.59 11.14  0.00
Si  9.77  1.98 -5.09
Si -9.77 -1.98  5.09
Si  9.98  0.25  5.09
Si -9.98 -0.25 -5.09
Si  4.20 -7.06 -7.63
Si -4.20  7.06  7.63
Si  5.39 -6.31  7.63
Si -5.39  6.31 -7.63
Si -0.35 11.02 -2.54
Si  0.35 -11.02  2.54
Si -2.02 -11.14  0.00
Si  2.02 11.14  0.00
Si -0.66  4.96 10.17
Si  0.66 -4.96 -10.17
Si  8.29 -1.85  7.63
Si -8.29  1.85 -7.63
Si -8.55  0.38  7.63
Si  8.55 -0.38 -7.63
Si -5.01 -1.73 10.17
Si  5.01  1.73 -10.17
Si -1.95 -4.96 -10.17
Si  1.95  4.96 10.17
Si -7.27  8.91  0.00
Si  7.27 -8.91  0.00
Si  1.28  8.54 -7.63
Si -1.28 -8.54  7.63
Si  1.33 -8.54  7.63
Si -1.33  8.54 -7.63
Si  2.26 11.02 -2.54
Si -2.26 -11.02  2.54
Si  8.96 -6.81 -2.54
Si -8.96  6.81  2.54
Si  7.03 -8.79  2.54
Si -7.03  8.79 -2.54
Si -4.73  2.73 10.17
Si  4.73 -2.73 -10.17
Si  3.85  3.96 -10.17
Si -3.85 -3.96 10.17
Si -0.83 11.27  2.54
Si  0.83 -11.27 -2.54
Si -3.21 11.14  0.00
Si  3.21 -11.14  0.00
Si -3.99  3.96 -10.17
Si  3.99 -3.96 10.17
Si 10.74  4.46  0.00
Si -10.74 -4.46  0.00
Si  8.24 -6.43  5.09
Si -8.24  6.43 -5.09
Si -10.40  4.58  2.54
Si 10.40 -4.58 -2.54
Si -5.44  1.73 -10.17
Si  5.44 -1.73 10.17
Si -5.13  9.16  5.09
Si  5.13 -9.16 -5.09
Si -9.58 -6.69  0.00
Si  9.58  6.69  0.00
Si -7.42 -4.83 -7.63
Si  7.42  4.83  7.63
Si -1.78 -11.27 -2.54
Si  1.78 11.27  2.54
Si -2.97 11.02 -2.54
Si  2.97 -11.02  2.54
Si  9.69 -4.21  5.09
Si -9.69  4.21 -5.09
Si 10.50  4.58  2.54
Si -10.50 -4.58 -2.54
Si  5.33  9.16  5.09
Si -5.33 -9.16 -5.09
Si -8.58 -2.60 -7.63
Si  8.58  2.60  7.63
Si  3.28 -4.96 -10.17
Si -3.28  4.96 10.17
Si -11.62  2.23  0.00
Si 11.62 -2.23  0.00
Si  9.34  6.81  2.54
Si -9.34 -6.81 -2.54
Si  6.27  8.66 -5.09
Si -6.27 -8.66  5.09
Si 11.38 -2.10  2.54
Si -11.38  2.10 -2.54
Si  0.07  6.18 -10.17
Si -0.07 -6.18 10.17
Si  6.17 -0.50 -10.17
Si -6.17  0.50 10.17
Si -5.73 -2.73 -10.17
Si  5.73  2.73 10.17
Si  7.51 -9.04 -2.54
Si -7.51  9.04  2.54
Si -0.12 10.89 -5.09
Si  0.12 -10.89  5.09
Si -0.14  9.29  7.63
Si  0.14 -9.29 -7.63
Si  3.44 -11.27 -2.54
Si -3.44 11.27  2.54
Si -10.93  0.25  5.09
Si 10.93 -0.25 -5.09
Si  4.63 11.14  0.00
Si -4.63 -11.14  0.00
Si 10.98  4.33 -2.54
Si -10.98 -4.33  2.54
Si  9.81  6.56 -2.54
