500
set: 1423.00  0.00  0.00
Si  1.47  0.03 -0.30
Si -0.12 -0.99 -1.19
Si -2.37 -0.41 -0.06
Si  0.41  2.31 -1.19
Si  1.71 -1.88  1.34
Si  2.25  1.42  1.34
Si -2.69  1.19  1.47
Si  0.94 -3.27 -0.30
Si -1.83  2.89 -0.06
Si -1.16  0.47  3.23
Si -1.00 -0.37 -3.31
Si  0.71  1.51  3.23
Si  0.17 -1.78  3.23
Si  2.00  3.32 -0.30
Si -3.33  1.95 -1.18
Si  3.62 -1.34 -1.18
Si -3.22 -2.11  1.47
Si -3.87 -1.34 -1.18
Si -0.47  2.92 -3.31
Si -2.33  1.88 -3.30
Si -0.65 -4.28 -1.19
Si -2.87 -1.41 -3.30
Si -1.70 -2.82  3.23
Si -2.90 -3.70 -0.06
Si  4.16  1.95 -1.18
Si  4.27 -2.11  1.47
Si -0.63  3.77  3.23
Si  5.12 -0.41 -0.06
Si  4.80  1.19  1.47
Si -1.53 -3.67 -3.31
Si -2.15  4.48  1.47
Si  0.54 -0.47 -5.19
Si  1.18 -5.17  1.34
Si -5.24  1.42  1.34
Si  2.78  4.71  1.34
Si  1.59  0.90  5.34
Si  3.09 -4.64 -1.18
Si -2.16  0.55  5.36
Si  0.95  5.60 -1.19
Si  4.62 -1.41 -3.30
Si  4.59 -3.70 -0.06
Si  1.24  4.81  3.23
Si  1.05 -2.40  5.34
Si  3.10 -0.70 -5.07
Si  1.07  2.83 -5.19
Si -6.02  0.03 -0.30
Si -0.36 -5.08  3.23
Si -2.80  5.25 -1.18
Si -5.78 -1.88  1.34
Si -1.30  6.18 -0.06
Si  5.66  2.89 -0.06
Si -1.80  5.18 -3.30
Si  5.15  1.88 -3.30
Si  0.01 -3.76 -5.19
Si -5.49  3.32 -0.30
Si -4.40 -4.64 -1.18
Si  0.40 -6.56 -0.30
Si -2.69 -2.75  5.36
Si -0.66  1.48  6.48
Si -3.40 -4.71 -3.30
Si  3.73 -5.40  1.47
Si -3.76 -5.40  1.47
Si -4.39 -0.70 -5.07
Si  3.63  2.60 -5.07
Si -1.63  3.84  5.36
Si -4.71  4.71  1.34
Si -1.20 -1.81  6.48
Si -3.86  2.60 -5.07
Si  2.64 -1.38  6.23
Si  2.56 -3.99 -5.07
Si  0.30  1.44 -6.84
Si  0.07  6.22 -3.31
Si  4.09 -4.71 -3.30
Si -0.24 -1.86 -6.84
Si  2.54  6.62 -0.30
Si  2.12  4.20  5.34
Si  6.33  0.47  3.23
Si  5.33  4.48  1.47
Si  4.69  5.25 -1.18
Si  5.79 -2.82  3.23
Si  3.18  1.92  6.23
Si -2.23 -6.12  3.23
Si  6.49 -0.37 -3.31
Si -6.55 -3.27 -0.30
Si  7.37 -0.99 -1.19
Si -7.07  2.31 -1.19
Si -3.54  1.00 -6.59
Si  5.33  0.55  5.36
Si -6.78  1.51  3.23
Si  4.79 -2.75  5.36
Si  5.96 -3.67 -3.31
Si  3.95  1.00 -6.59
Si -1.19 -7.58 -1.19
Si -7.61 -0.99 -1.19
Si -0.10  7.07  3.23
Si  3.42 -2.29 -6.59
Si -3.44 -7.00 -0.06
Si -4.31  1.92  6.23
Si  0.52 -5.69  5.34
Si -1.29  0.42 -7.73
Si -2.07 -6.96 -3.31
Si -5.90  0.90  5.34
Si -4.85 -1.38  6.23
Si -0.13  4.78  6.48
Si  2.11 -4.67  6.23
Si -1.62  7.78  1.47
Si -4.07 -2.29 -6.59
Si  4.05 -7.00 -0.06
Si  2.45  0.07 -7.72
Si -4.93 -3.99 -5.07
Si -1.52 -0.22  8.00
Si  6.84 -4.28 -1.19
Si  1.61  6.12 -5.19
Si -7.32 -1.78  3.23
Si -6.31 -5.17  1.34
Si -4.95  6.62 -0.30
Si  7.02  2.92 -3.31
Si  7.90  2.31 -1.19
Si  0.83  4.73 -6.84
Si  5.69  5.18 -3.30
Si  2.56 -7.93 -1.18
Si -3.01  4.30 -6.59
Si -1.73 -5.11  6.48
Si -1.82 -2.88 -7.73
Si -3.33  5.89 -5.07
Si  6.86  3.77  3.23
Si  7.66 -1.78  3.23
Si -6.25  4.81  3.23
Si  1.92 -3.23 -7.72
Si  3.42  0.01  7.88
Si  0.64 -8.47  1.34
Si -0.77 -5.16 -6.84
Si -0.76  3.71 -7.73
Si -0.98  3.08  8.00
Si -5.37  4.20  5.34
Si -6.95 -0.47 -5.19
Si  5.26 -6.12  3.23
Si -6.54  5.60 -1.19
Si -3.23 -6.05  5.36
Si -6.44 -2.40  5.34
Si -6.42  2.83 -5.19
Si  6.19  6.18 -0.06
Si  3.31  8.01  1.34
Si -0.53 -7.06 -5.19
Si  4.16  5.89 -5.07
Si  5.86  3.84  5.36
Si -4.07  0.01  7.88
Si  1.77  8.10  3.23
Si -2.27  8.54 -1.18
Si  2.98  3.36 -7.72
Si  3.71  5.21  6.23
Si  8.20  1.51  3.23
Si -3.78  5.21  6.23
Si  8.96  0.03 -0.30
Si -2.05 -3.51  8.00
Si -1.09  7.14  5.36
Si  2.88 -3.28  7.88
Si -0.90 -8.37  3.23
Si  8.43 -3.27 -0.30
Si  4.48  4.30 -6.59
Si -7.96  2.92 -3.31
Si  1.48  8.90 -1.19
Si  2.03 -7.29 -5.07
Si  2.88 -5.59 -6.59
Si -8.49 -0.37 -3.31
Si  4.26 -6.05  5.36
Si -4.18  8.01  1.34
Si -1.27  8.47 -3.30
Si  6.29 -1.81  6.48
Si -5.04  0.07 -7.72
Si -3.54  3.31  7.88
Si -8.65  0.47  3.23
Si -8.14 -4.28 -1.19
Si  7.13 -5.08  3.23
Si  3.55 -8.00 -3.30
Si  3.20 -8.70  1.47
Si  3.95  3.31  7.88
Si -4.93 -7.93 -1.18
Si  5.42 -6.96 -3.31
Si -5.38 -4.67  6.23
Si  9.20 -1.88  1.34
Si -0.77  9.48 -0.06
Si -3.94 -8.00 -3.30
Si -8.12  3.77  3.23
Si  6.83  1.48  6.48
Si -4.50  3.36 -7.72
Si  8.03 -0.47 -5.19
Si  2.65  7.49  5.34
Si -7.09 -6.56 -0.30
Si -4.61 -3.28  7.88
Si -9.32  2.89 -0.06
Si -4.61 -5.59 -6.59
Si -4.29 -8.70  1.47
Si  0.01 -0.93  9.77
Si  5.87  7.78  1.47
Si -7.48 -3.76 -5.19
Si -0.13 -9.86 -0.30
Si  7.50 -3.76 -5.19
Si -9.86 -0.41 -0.06
Si -7.85 -5.08  3.23
Si  6.20  0.42 -7.73
Si  9.73  1.42  1.34
Si  6.30 -7.58 -1.19
Si  1.88  0.10  9.76
Si -5.88  6.12 -5.19
Si  5.97 -0.22  8.00
Si  5.66 -2.88 -7.73
Si -7.19  1.44 -6.84
Si -5.57 -3.23 -7.72
Si  5.76 -5.11  6.48
Si  9.49  3.32 -0.30
Si  0.54  2.36  9.77
Si  5.22  8.54 -1.18
Si  0.60  9.51 -3.31
Si -2.17  1.03 -9.84
Si -9.19 -2.82  3.23
Si  7.25 -1.86 -6.84
Si -2.36 -6.17 -7.73
Si  8.67 -5.17  1.34
Si  8.44  5.60 -1.19
Si  1.38 -6.53 -7.72
Si -7.42  6.22 -3.31
Si -0.45  6.37  8.00
Si  1.57 -7.97  6.23
Si  7.89 -6.56 -0.30
Si -9.02 -3.67 -3.31
Si  5.44 -3.51  8.00
Si -2.77 -9.41  3.23
Si  7.56  6.22 -3.31
Si -10.18  1.19  1.47
Si -2.47  7.59 -6.59
Si  8.54 -2.40  5.34
Si  0.41  8.07  6.48
Si  1.34 -3.19  9.76
Si  3.07  9.91 -0.30
Si -4.83  7.49  5.34
Si  8.56  2.83 -5.19
Si -5.46 -7.29 -5.07
Si  3.45 -0.01 -9.84
Si -5.71  8.10  3.23
Si -0.22  7.01 -7.73
Si -0.01 -8.99  5.34
Si -2.71 -2.26 -9.84
Si  7.79  1.44 -6.84
Si -6.97 -5.69  5.34
Si  8.73  4.81  3.23
Si -7.72 -1.86 -6.84
Si -8.15  1.48  6.48
Si  2.35 -6.58  7.88
Si -9.82  1.88 -3.30
Si  9.08  0.90  5.34
Si  2.41  3.40  9.76
Si  1.36  8.03 -6.84
Si -4.04 -0.01 -9.84
Si -6.66  4.73 -6.84
Si -0.53 -4.23  9.77
Si -3.00  6.60  7.88
Si  7.39  7.07  3.23
Si -9.64  4.48  1.47
Si -8.79  6.18 -0.06
Si  6.51  3.08  8.00
Si  2.91 -3.30 -9.84
Si  3.52  6.66 -7.72
Si -6.01  8.90 -1.19
Si -2.58 -6.81  8.00
Si -2.26 -8.40  6.48
Si -7.58  7.07  3.23
Si -2.79  9.19 -5.07
Si -4.42  9.91 -0.30
Si  0.44 10.36  3.23
Si  3.52 -10.29 -0.06
Si -1.64  4.33 -9.84
Si  6.72 -5.16 -6.84
Si  6.73  3.71 -7.73
Si  7.36  4.78  6.48
Si -3.97  6.66 -7.72
Si -1.30 -8.45 -6.84
Si -3.51  3.29 -9.84
Si -10.36 -1.41 -3.30
Si  2.14  9.42 -5.19
Si -6.84 -8.47  1.34
Si  6.40  7.14  5.36
Si -8.68 -1.81  6.48
Si -10.71 -2.11  1.47
Si  4.72 -9.41  3.23
Si  6.22  8.47 -3.30
Si -10.39 -3.70 -0.06
Si -3.97 -10.29 -0.06
Si -3.25  8.51  6.23
Si -9.65  0.55  5.36
Si -10.82  1.95 -1.18
Si -1.72 -10.88 -1.19
Si -7.62  4.78  6.48
Si -2.60 -10.26 -3.31
Si  3.98  3.29 -9.84
Si  6.59 -8.37  3.23
Si -9.29  5.18 -3.30
Si  5.13 -6.17 -7.73
Si  4.78 -2.26 -9.84
Si  8.01 -5.69  5.34
Si  6.96 -7.06 -5.19
Si  4.49  6.60  7.88
Si -1.09 11.07  1.47
Si  5.32  1.03 -9.84
Si  5.02  7.59 -6.59
Si -9.12  3.84  5.36
Si 11.11 -1.34 -1.18
Si -5.61  0.10  9.76
Si  2.35 -8.88 -6.59
Si  1.08  5.66  9.77
Si -4.58 -3.30 -9.84
Si  4.24  8.51  6.23
Si 10.27  4.71  1.34
Si  3.73 -9.34  5.36
Si -3.76 -9.34  5.36
Si  2.02 -11.23 -1.18
Si -5.14 -6.58  7.88
Si -11.36 -1.34 -1.18
Si  4.70  9.19 -5.07
Si -5.08  3.40  9.76
Si -8.68 -7.58 -1.19
Si  4.91 -6.81  8.00
Si -10.29  5.25 -1.18
Si 10.58 -4.64 -1.18
Si  6.72  9.48 -0.06
Si -1.06 -10.35 -5.19
Si -8.78  0.42 -7.73
Si -5.92 -7.97  6.23
Si -0.56 10.43  5.36
Si  0.81 -6.49  9.76
Si 10.58 -0.70 -5.07
Si -3.24 -5.56 -9.84
Si  8.32  4.73 -6.84
Si  9.61  4.20  5.34
Si -0.63  0.94 -11.73
Si  1.92  0.71 -11.61
Si -6.11 -6.53 -7.72
Si  8.13 -8.47  1.34
Si  5.23 -8.40  6.48
Si -10.18 -2.75  5.36
Si  1.49 -10.59 -5.07
Si  4.89 -10.26 -3.31
Si  0.11 -11.76  1.34
Si 11.64  1.95 -1.18
Si -8.02 -7.06 -5.19
Si -8.25  3.71 -7.73
Si -8.26 -5.16 -6.84
Si -9.72 -6.12  3.23
Si 10.05 -3.99 -5.07
Si -3.64 11.31  1.34
Si -0.99 -0.86 11.89
Si -6.14 -3.19  9.76
Si  1.39 -2.59 -11.61
Si 10.13 -1.38  6.23
Si -5.35  9.42 -5.19
Si  3.85 11.31  1.34
Si 10.03  6.62 -0.30
Si -1.17 -2.36 -11.73
Si -1.73 11.84 -1.18
Si 11.76 -2.11  1.47
Si -9.01 -0.22  8.00
Si -8.47  3.08  8.00
Si -9.11  7.78  1.47
Si  2.31 11.40  3.23
Si  4.25 -5.56 -9.84
Si  2.38 -6.60 -9.84
Si  9.10  6.12 -5.19
Si -0.46  2.43 11.89
Si  3.02 -11.30 -3.30
Si -1.43 -11.67  3.23
Si -6.12  8.03 -6.84
Si -5.14 -8.88 -6.59
Si  2.95  6.70  9.76
Si -6.89  9.51 -3.31
Si  2.76 -0.51 11.88
Si -2.97  6.58 -9.84
Si -6.95  2.36  9.77
Si  5.85  4.33 -9.84
Si -0.73 11.77 -3.30
Si -9.56 -6.96 -3.31
Si -8.38 -8.37  3.23
Si  7.36 -9.86 -0.30
Si -10.89 -4.71 -3.30
Si -7.48 -0.93  9.77
Si  7.50 -0.93  9.77
Si  9.60 -4.67  6.23
Si  5.77 -10.88 -1.19
Si -9.22 -5.11  6.48
Si  2.67 -11.99  1.47
Si -1.06 -7.52  9.77
Si -8.58  7.14  5.36
Si  2.02 12.19 -1.19
Si  7.04  6.37  8.00
Si 12.29  1.19  1.47
Si -9.31 -2.88 -7.73
Si  3.19 10.79  5.34
Si -7.62 -9.86 -0.30
Si -0.10  4.24 -11.73
Si 11.12  2.60 -5.07
Si -1.10  7.62 -9.84
Si 10.66  1.92  6.23
Si  6.18 -8.45 -6.84
Si  0.85 -9.82 -7.72
Si  2.46  4.00 -11.61
Si 11.22 -5.40  1.47
Si -7.08  8.07  6.48
Si -5.47 -11.23 -1.18
Si  0.09  9.67  8.00
Si -2.89 -9.47 -7.73
Si -11.24 -5.40  1.47
Si -8.26  9.48 -0.06
Si  9.94  0.07 -7.72
Si  9.40 -3.23 -7.72
Si -4.47 -11.30 -3.30
Si 12.61 -0.41 -0.06
Si -8.76  8.47 -3.30
Si 12.11 -1.41 -3.30
Si 12.08 -3.70 -0.06
Si  3.29  2.79 11.88
Si  2.23 -3.80 11.88
Si  4.51  6.58 -9.84
Si -4.54  6.70  9.76
Si -1.52 -4.16 11.89
Si  8.97  8.90 -1.19
Si -11.35  2.60 -5.07
Si  7.26  7.01 -7.73
Si  6.96 -4.23  9.77
Si  9.26  8.10  3.23
Si  1.82 -9.87  7.88
Si -0.23 12.78 -0.06
Si -4.30 10.79  5.34
Si -4.73 -0.51 11.88
Si -11.89 -4.64 -1.18
Si  7.47 -8.99  5.34
Si 10.04 -7.93 -1.18
Si  8.03  2.36  9.77
Si -7.50 -8.99  5.34
Si -1.94 10.89 -6.59
Si  6.40 11.07  1.47
Si -12.73  1.42  1.34
Si  0.31 10.31 -7.73
Si -11.03  1.00 -6.59
Si -2.47  9.90  7.88
Si -5.57  0.71 -11.61
Si -5.11 -6.60 -9.84
Si -4.20  2.79 11.88
Si  1.04 -11.27  6.23
Si  8.09  9.51 -3.31
Si 11.57 -4.71 -3.30
Si -5.18 11.40  3.23
Si -9.54 -3.51  8.00
Si -11.88 -0.70 -5.07
Si -7.05 10.36  3.23
Si -7.94  6.37  8.00
Si 10.90 -2.29 -6.59
Si -10.92 -7.00 -0.06
Si -7.71  7.01 -7.73
Si -6.41  5.66  9.77
Si -4.82 -11.99  1.47
Si  9.52 -7.29 -5.07
Si  7.89  8.07  6.48
Si -9.75  8.54 -1.18
Si  0.51  0.07 13.01
Si  0.85 -5.88 -11.61
Si -3.44  9.95 -7.72
Si  4.60 -9.47 -7.73
Si  0.94 11.37  6.48
Si -10.49  4.30 -6.59
Si -1.70 -5.65 -11.73
Si -12.20  4.71  1.34
Si -3.14  0.51 12.77
Si -0.67 -13.15 -0.30
Si -6.00 -10.59 -5.07
Si  0.08  5.73 11.89
Si 12.64  1.88 -3.30
Si  5.76 11.84 -1.18
Si  4.05  9.95 -7.72
Si 11.44  1.00 -6.59
Si  6.43 -10.35 -5.19
Si -3.12 -10.11  8.00
Si -5.03  4.00 -11.61
Si  1.14 12.81 -3.31
Si 12.18  5.25 -1.18
Si -10.81  5.89 -5.07
Si -8.01 -4.23  9.77
Si  1.61  8.95  9.77
Si  2.24 -0.89 -13.13
Si  1.90 11.32 -6.84
Si -6.10 -2.59 -11.61
Si -12.97  3.32 -0.30
Si -0.55 -12.28  5.34
Si -0.02 -3.22 13.01
Si -5.47 12.19 -1.19
Si -10.72 -6.05  5.36
Si 10.37 -3.28  7.88
Si 10.47  3.36 -7.72
Si  7.93 10.36  3.23
Si  8.87 -6.53 -7.72
Si 10.91  0.01  7.88
Si -1.41 -0.45 -13.37
