500
set: 1376.00  0.00  0.00
Si  0.18 -0.58  1.04
Si -0.53  1.28 -0.15
Si -0.19 -0.80 -2.46
Si  2.62 -0.61  0.64
Si  1.56  2.37 -0.93
Si -1.72  2.00  1.82
Si -2.08  1.78 -1.69
Si -1.41 -2.27  1.86
Si  3.02  0.59 -1.30
Si -1.78 -2.48 -1.65
Si -0.17  1.50  3.36
Si  2.25 -0.83 -2.87
Si -0.90  1.06 -3.66
Si  3.39  0.81  2.20
Si  1.93  2.59  2.58
Si -3.35 -2.56  0.53
Si -4.19  0.59 -1.30
Si -3.83  0.81  2.20
Si  0.54 -0.36  4.55
Si  3.87 -2.56  0.53
Si -4.60 -0.61  0.64
Si  2.64  3.85  0.53
Si -0.49 -4.41  1.82
Si  2.79 -4.05 -0.93
Si -0.85 -4.63 -1.69
Si  1.20  2.15 -4.43
Si  2.98 -0.39  4.15
Si  0.69 -5.14 -0.15
Si -3.01  3.93 -1.65
Si  2.27  3.63 -2.98
Si -2.64  4.15  1.86
Si  3.50 -2.78 -2.98
Si  2.66  0.37 -4.81
Si -3.72 -2.78 -2.98
Si -2.99 -2.34  4.03
Si  3.16 -3.83  2.58
Si  5.14  1.78 -1.69
Si -4.97 -0.83 -2.87
Si -1.05 -2.04  5.37
Si -1.35  2.22  5.32
Si -4.24 -0.39  4.15
Si -2.45  1.56 -5.20
Si  4.21  3.93 -1.65
Si  1.39  5.80  0.64
Si -4.58  3.85  0.53
Si -1.05  5.83  1.04
Si  1.06 -4.92  3.36
Si -4.43 -4.05 -0.93
Si -0.56 -1.02 -5.97
Si  5.50  2.00  1.82
Si -4.06 -3.83  2.58
Si -5.66  2.37 -0.93
Si  5.44 -2.48 -1.65
Si -2.15 -2.71 -5.16
Si -1.42  5.61 -2.46
Si  4.23 -2.34  4.03
Si  1.02  5.58 -2.87
Si -5.29  2.59  2.58
Si  4.58  4.15  1.86
Si  3.00  4.08  4.03
Si  0.33 -5.36 -3.66
Si  5.80 -2.27  1.86
Si -2.60 -5.60  2.20
Si  2.42 -4.27 -4.43
Si -4.56  0.37 -4.81
Si -2.96 -5.82 -1.30
Si  1.88 -1.05 -6.37
Si -3.46  1.03  5.71
Si -0.12 -4.19  5.32
Si  6.68  1.28 -0.15
Si -4.95  3.63 -2.98
Si  3.76  1.03  5.71
Si  0.20  1.72  6.86
Si  2.29  2.81  6.09
Si -4.21  4.08  4.03
Si -7.04 -0.58  1.04
Si -3.37  3.71 -5.16
Si  1.40 -7.00  1.04
Si -1.22 -4.86 -5.20
Si  4.77  1.56 -5.20
Si -2.27  4.37  5.37
Si -1.27  0.84 -7.16
Si  4.25 -5.82 -1.30
Si  1.80  7.01 -1.30
Si  6.32  1.06 -3.66
Si  3.85  3.71 -5.16
Si  7.03 -0.80 -2.46
Si  7.39 -0.58  1.04
Si  1.75  6.02  4.15
Si  1.91  3.42 -6.49
Si  4.62 -5.60  2.20
Si -0.69  6.05  4.55
Si  1.04 -7.22 -2.46
Si  5.07 -2.71 -5.16
Si -6.02  2.15 -4.43
Si -4.79 -4.27 -4.43
Si  3.13 -3.00 -6.49
Si -3.38 -7.03  0.64
Si -7.41 -0.80 -2.46
Si -7.75  1.28 -0.15
Si  2.16  7.23  2.20
Si -1.76  7.69 -0.15
Si  3.52 -3.60  6.09
Si  7.05  1.50  3.36
Si -3.69 -3.60  6.09
Si  3.84 -7.03  0.64
Si  6.36 -4.63 -1.69
Si -6.68 -0.36  4.55
Si  0.91 -0.14  8.06
Si -2.23 -5.38  5.71
Si  0.83  1.93 -7.94
Si  5.87  2.22  5.32
Si -4.08 -3.00 -6.49
Si -1.78  5.39 -5.97
Si -7.38  1.50  3.36
Si  6.73 -4.41  1.82
Si -5.83  5.80  0.64
Si -2.62 -2.12  7.54
Si -6.52 -5.14 -0.15
Si -4.92  2.81  6.09
Si  1.77 -6.78  4.55
Si  0.66  5.36 -6.37
Si  3.35 -0.17  7.65
Si -5.33 -1.05 -6.37
Si -3.33 -6.04 -4.81
Si  6.17 -2.04  5.37
Si  5.80  5.61 -2.46
Si  1.43 -4.70  6.86
Si  1.43  6.79 -4.81
Si  4.94  4.37  5.37
Si -3.01 -6.81  4.15
Si  3.48 -7.25 -2.87
Si  6.17  5.83  1.04
Si -6.16 -4.92  3.36
Si -3.87 -0.17  7.65
Si -2.13  7.47 -3.66
Si  2.29  0.15 -8.32
Si -3.74 -7.25 -2.87
Si  3.89 -6.04 -4.81
Si -1.40  7.91  3.36
Si -6.20  5.58 -2.87
Si  0.34  8.78 -0.93
Si -0.18 -8.68  1.86
Si -5.42  7.01 -1.30
Si -8.12  1.06 -3.66
Si -3.31  8.20 -1.69
Si  6.66 -1.02 -5.97
Si  7.76 -0.36  4.55
Si  4.21 -6.81  4.15
Si -5.31  3.42 -6.49
Si -7.71 -4.41  1.82
Si -0.55 -8.90 -1.65
Si -0.04 -5.58 -7.16
Si -0.68 -1.82  8.87
Si  4.60 -2.12  7.54
Si -5.05  7.23  2.20
Si -2.94  8.42  1.82
Si -8.63 -2.27  1.86
Si -5.46  6.02  4.15
Si  8.78  2.37 -0.93
Si -5.82 -7.00  1.04
Si -0.98  2.44  8.83
Si  3.91  8.20 -1.69
Si -2.12 -8.97  0.53
Si -2.81  1.34 -8.70
Si  4.99 -5.38  5.71
Si  6.00 -4.86 -5.20
Si  3.37  4.30  7.54
Si -8.93  2.00  1.82
Si  2.06 -4.49 -7.94
Si  5.95  0.84 -7.16
Si  0.70  9.00  2.58
Si  5.46  7.69 -0.15
Si  7.91 -5.14 -0.15
Si -8.07 -4.63 -1.69
Si -6.89 -5.36 -3.66
Si -9.00 -2.48 -1.65
Si -2.51 -2.93 -8.66
Si -3.85  4.30  7.54
Si  0.67 -7.44 -5.97
Si -0.92 -1.25 -9.47
Si  4.28  8.42  1.82
Si -9.30  1.78 -1.69
Si -0.03  8.56 -4.43
Si -4.92  0.15 -8.32
Si  0.24 -3.97  8.83
Si  5.43  5.39 -5.97
Si  2.53  7.45  5.71
Si  8.41  2.15 -4.43
Si  5.09  7.47 -3.66
Si -1.76 -8.75  4.03
Si -3.09  1.25  9.21
Si  7.10 -4.19  5.32
Si -5.45 -6.78  4.55
Si -6.18 -7.22 -2.46
Si  4.40  1.34 -8.70
Si  9.15  2.59  2.58
Si -7.77 -1.02 -5.97
Si  9.83 -0.61  0.64
Si  9.47 -0.83 -2.87
Si  7.54 -5.36 -3.66
Si  3.48  3.49 -8.66
Si -7.02  1.72  6.86
Si -2.49 -9.20 -2.98
Si -7.34 -4.19  5.32
Si  6.53  6.05  4.55
Si  0.18 -8.46  5.37
Si -3.74  3.49 -8.66
Si -8.26 -2.04  5.37
Si  1.52 -1.27 -9.88
Si  2.12  6.25  7.65
Si -5.79  6.79 -4.81
Si -5.79 -4.70  6.86
Si  3.54  7.97 -5.20
Si -1.91  4.59  8.87
Si -8.27  5.83  1.04
Si  4.12  1.25  9.21
Si  8.28 -4.92  3.36
Si -1.59 -5.08 -8.70
Si -3.67  7.97 -5.20
Si -0.32  6.27  8.06
Si -6.31 -0.14  8.06
Si  7.42  1.72  6.86
Si  4.71 -2.93 -8.66
Si  3.11 -7.47 -6.37
Si -8.57  2.22  5.32
Si  5.09 -8.97  0.53
Si 10.24  0.59 -1.30
Si  8.24  5.58 -2.87
Si -6.39  1.93 -7.94
Si  1.41 10.27  0.53
Si  5.82  7.91  3.36
Si  8.61  5.80  0.64
Si  2.66  3.03  9.59
Si -2.64 -6.58  7.65
Si -2.58  8.64  5.32
Si -5.16 -4.49 -7.94
Si -4.69  7.45  5.71
Si -2.49  7.25 -7.16
Si -0.92 -9.12 -5.16
Si  1.04 10.05 -2.98
Si  0.56  1.94 10.37
Si -8.63  5.61 -2.46
Si  9.49  3.63 -2.98
Si  9.86  3.85  0.53
Si  1.54  3.19 -9.99
Si -6.56  5.36 -6.37
Si  2.13 -6.56  8.06
Si -4.11 -7.47 -6.37
Si  1.07  6.57 -8.32
Si -1.03  8.13  6.86
Si -3.33 -3.38  9.59
Si -1.87 -5.16  9.21
Si  4.73 -9.20 -2.98
Si -1.63  0.62 -10.67
Si 10.01 -4.05 -0.93
Si -9.86  4.15  1.86
Si  2.77 -3.22 -9.99
Si 10.61  0.81  2.20
Si -10.57 -2.56  0.53
Si  3.89 -3.38  9.59
Si  2.98 10.35 -1.65
Si -2.83 -10.24  2.58
Si -7.90  6.05  4.55
Si -3.20 -10.46 -0.93
Si  3.52 -6.26 -8.32
Si  9.88  0.37 -4.81
Si  0.74 -10.83  1.82
Si -2.15  5.17 -9.47
Si 10.20 -0.39  4.15
Si -9.36 -2.71 -5.16
Si -8.44 -4.86 -5.20
Si -4.56  3.03  9.59
Si -3.70 -6.26 -8.32
Si -10.22  3.93 -1.65
Si  5.46 -8.75  4.03
Si  6.24  2.44  8.83
Si -9.66  1.56 -5.20
Si  4.57 -6.58  7.65
Si  1.07  9.22  6.09
Si -5.10  6.25  7.65
Si -8.48  0.84 -7.16
Si  0.29  5.14 -9.88
Si  8.62 -7.00  1.04
Si  4.64  8.64  5.32
Si  9.10 -1.05 -6.37
Si  6.54 -1.82  8.87
Si  0.37 -11.05 -1.69
Si -6.88  8.78 -0.93
Si -10.20 -2.34  4.03
Si  4.72  7.25 -7.16
Si  3.35 10.57  1.86
Si  8.26 -7.22 -2.46
Si  6.67 -8.90 -1.65
Si  4.02 -10.46 -0.93
Si -11.04  0.81  2.20
Si -4.23 10.35 -1.65
Si  5.31  4.59  8.87
Si  7.03 -8.68  1.86
Si 10.37 -3.83  2.58
Si  1.78 10.49  4.03
Si 11.08 -2.56  0.53
Si -4.45 -3.22 -9.99
Si -3.87 10.57  1.86
Si -6.52  9.00  2.58
Si -2.25 -1.90 11.05
Si  4.38 -10.24  2.58
Si  1.79 -4.48 10.37
Si  9.64 -4.27 -4.43
Si  6.29 -1.25 -9.47
Si  8.13 -0.14  8.06
Si  7.87  5.36 -6.37
Si 10.72 -2.78 -2.98
Si  8.05  1.93 -7.94
Si -1.39 -8.53  7.54
Si -5.70 -1.27 -9.88
Si  9.02  7.01 -1.30
Si -11.41  0.59 -1.30
Si -9.82 -5.60  2.20
Si -0.40  8.34 -7.94
Si  5.63 -5.08 -8.70
Si -7.40 -8.68  1.86
Si -5.08 -6.56  8.06
Si -6.55 -7.44 -5.97
Si  7.18 -5.58 -7.16
Si  8.97  6.02  4.15
Si  0.47  1.71 -11.45
Si  7.55  8.78 -0.93
Si -7.26 -5.58 -7.16
Si  1.27  0.08 11.56
Si  9.51  2.81  6.09
Si  2.62 10.12 -5.16
Si -10.94 -2.78 -2.98
Si -3.50  0.05 11.16
Si  9.12  3.42 -6.49
Si  1.92 -11.55 -0.15
Si 10.22  4.08  4.03
Si -9.49  4.37  5.37
Si  3.71  0.05 11.16
Si -2.86 -9.41 -6.49
Si  0.68  9.83 -6.49
Si -10.18 -5.82 -1.30
Si -5.81 10.27  0.53
Si -8.98  7.69 -0.15
Si  5.35 -5.16  9.21
Si -11.82 -0.61  0.64
Si  1.11 -10.61  5.32
Si  5.07  5.17 -9.47
Si -7.77 -8.90 -1.65
Si -5.68  3.19 -9.99
Si -6.97 -3.97  8.83
Si -2.47 -10.02  6.09
Si  1.93 -0.07 -11.83
Si  8.64 -4.70  6.86
Si  8.65  6.79 -4.81
Si -7.90 -1.82  8.87
Si  7.19  8.56 -4.43
Si  2.29 -11.33  3.36
Si  9.38  7.23  2.20
Si  5.59  0.62 -10.67
Si -7.25  8.56 -4.43
Si -9.00  5.39 -5.97
Si  3.18  7.75 -8.70
Si -3.57 -10.68 -4.43
Si  0.55 -8.24  8.87
Si  3.65 -10.68 -4.43
Si  8.99 -6.78  4.55
Si -0.41 -5.80 -10.67
Si -10.68  1.03  5.71
Si -6.17 10.05 -2.98
Si -8.61  7.91  3.36
Si -11.28 -3.83  2.58
Si  0.30 -7.66 -9.47
Si -11.45 -0.39  4.15
Si 11.43  3.93 -1.65
Si  6.30 -9.12 -5.16
Si  7.46 -3.97  8.83
Si  4.36 -9.41 -6.49
Si  0.16 12.22  0.64
Si -7.04 -8.46  5.37
Si -6.15  6.57 -8.32
Si -4.60 10.12 -5.16
Si  4.96 -1.90 11.05
Si  7.92  9.00  2.58
Si -9.45 -5.38  5.71
Si -1.37 -12.02  2.20
Si -8.20  2.44  8.83
Si  6.19  8.13  6.86
Si  6.90  6.27  8.06
Si  2.90  7.67  9.21
Si -4.04  7.75 -8.70
Si -0.21 12.00 -2.87
Si -10.59  3.71 -5.16
Si 11.45 -2.34  4.03
Si -11.64 -4.05 -0.93
Si  7.89 -7.44 -5.97
Si  0.01 -11.27 -5.20
Si 10.97  1.03  5.71
Si -11.80  3.85  0.53
Si  1.55 -11.77 -3.66
Si -1.74 -12.24 -1.30
Si -3.48  4.52 11.05
Si  7.40 -8.46  5.37
Si -6.65  1.94 10.37
Si -0.31 -1.60 12.38
Si -5.44 10.49  4.03
Si  1.69 -4.71 -11.45
Si -2.28 12.25  1.04
Si  3.74  4.52 11.05
Si -9.35  7.47 -3.66
Si -5.42 -4.48 10.37
Si -3.50 10.79  5.37
Si -12.19 -0.83 -2.87
Si -8.14 -1.25 -9.47
Si -2.65 12.03 -2.46
Si -9.84 -2.12  7.54
Si 10.35 -3.00 -6.49
Si 12.35  1.78 -1.69
Si  3.72 10.79  5.37
Si -0.62  2.66 12.34
Si  9.51  0.15 -8.32
Si 11.80  4.15  1.86
Si -6.15  9.22  6.09
Si  4.75 -10.02  6.09
Si -3.18  1.12 -12.21
Si -7.54  6.27  8.06
Si -2.21  8.86  8.83
Si -5.30 -11.55 -0.15
Si -11.78  0.37 -4.81
Si -10.59 -7.03  0.64
Si -4.32  7.67  9.21
Si -6.48 -10.83  1.82
Si 11.06  3.71 -5.16
Si -11.43  4.08  4.03
Si  5.83 -8.53  7.54
Si -1.28 -9.34 -8.66
Si -4.93 -11.33  3.36
Si  2.74 -7.69 -9.88
Si 10.74 -3.60  6.09
Si -2.88 -3.15 -12.17
Si  4.04  1.12 -12.21
Si  0.61 -3.75 12.34
Si 11.47 -5.82 -1.30
Si -5.29 -0.07 -11.83
Si -9.34 -8.97  0.53
Si -10.23 -6.81  4.15
Si  3.11  3.27 -12.17
Si -5.94  0.08 11.56
Si 12.66 -2.48 -1.65
Si 12.72  2.00  1.82
Si -10.91 -3.60  6.09
Si  9.28 -4.49 -7.94
Si -12.51  2.59  2.58
Si -12.16  3.63 -2.98
Si 10.56 -0.17  7.65
Si -2.28 -6.37 11.16
Si -10.55 -6.04 -4.81
Si -2.73  1.47 12.72
Si -2.86  7.03 -10.67
Si  4.57 12.03 -2.46
Si -6.84 -11.05 -1.69
Si  7.78  1.94 10.37
Si -6.93  5.14 -9.88
Si 11.06 -7.03  0.64
Si -12.87  2.37 -0.93
Si  0.53 12.44  4.15
Si -1.29 -1.47 -12.98
Si  2.49  6.46 11.16
Si -1.00 -11.80  5.71
Si 11.99  1.56 -5.20
Si -8.98 -8.75  4.03
Si 10.69 -7.25 -2.87
Si  4.94 12.25  1.04
Si  8.73 -1.27 -9.88
Si -4.10  3.27 -12.17
Si  0.05  6.49 11.56
Si -8.13 -9.12 -5.16
Si  2.14 10.71  7.54
Si 11.84 -5.60  2.20
Si -4.47 -7.69 -9.88
Si  4.34 -3.15 -12.17
Si -10.16  8.42  1.82
Si  2.65 -11.11  6.86
Si -0.66  8.35 10.37
Si  8.26 10.05 -2.98
Si -10.03  1.34 -8.70
Si 13.02 -2.27  1.86
Si  2.25  9.90 -8.66
Si -9.73 -2.93 -8.66
Si -6.11 -10.61  5.32
Si -1.54  4.81 12.38
Si -11.30 -3.00 -6.49
Si -8.80 -5.08 -8.70
Si  6.82  8.34 -7.94
Si -6.75  1.71 -11.45
Si -0.57 11.78 -6.37
Si -1.91 12.47  4.55
Si  2.50 -6.34 11.56
Si  8.63 10.27  0.53
Si  7.51  5.14 -9.88
