500
set: 1302.00  0.00  0.00
Si -0.07  0.23  0.80
Si  0.09  1.02 -1.45
Si -2.06 -0.97  1.06
Si  1.53 -1.31  1.80
Si  0.00  2.20  2.12
Si -1.63 -0.00 -2.77
Si  1.82 -0.00 -2.77
Si -3.00 -0.97 -1.06
Si -0.09  3.38 -1.45
Si -1.53 -3.09  1.80
Si  0.00 -2.20  3.42
Si  2.06 -3.43  1.06
Si  3.54 -1.31 -1.80
Si  0.09 -1.02 -4.09
Si  1.53  1.31  3.74
Si  0.07  4.17  0.80
Si  3.24  0.00  2.77
Si -3.43  0.00  2.77
Si  3.00 -3.43 -1.06
Si  0.07 -4.62  0.80
Si -0.07 -0.23  4.74
Si -2.06  0.97  4.48
Si -3.54 -3.09 -1.80
Si -5.00  0.23 -0.80
Si -1.53  3.09  3.74
Si  5.13  0.23 -0.80
Si  4.98  1.02  1.45
Si -0.09 -3.38 -4.09
Si  3.54  1.31 -3.74
Si  1.63  4.40 -2.77
Si  1.63 -4.40 -2.77
Si -5.15  1.02  1.45
Si -3.00  0.97 -4.48
Si -1.82  4.40 -2.77
Si -1.82 -4.40 -2.77
Si -0.09 -5.42 -1.45
Si  2.06  5.37  1.06
Si -5.07  2.20 -2.12
Si  5.07  2.20 -2.12
Si -3.54  3.09 -3.74
Si  2.06  3.43  4.48
Si -3.24  4.40  2.77
Si -3.24 -4.40  2.77
Si -1.53  5.70  1.80
Si -4.98  3.38  1.45
Si  3.43  4.40  2.77
Si  3.43 -4.40  2.77
Si  3.00  5.37 -1.06
Si  0.07 -4.17  4.74
Si  5.15  3.38  1.45
Si -0.07 -0.23 -6.34
Si  3.00  3.43 -4.48
Si -5.07 -2.20 -3.42
Si  5.07 -2.20 -3.42
Si  4.98 -1.02  4.09
Si  5.00  4.17 -0.80
Si  0.07  4.62  4.74
Si -5.15 -1.02  4.09
Si -5.13  4.17 -0.80
Si -0.09  5.42 -4.09
Si  5.00 -4.62 -0.80
Si -5.00 -0.23 -4.74
Si -0.00 -6.60  2.12
Si -3.54  5.70 -1.80
Si -5.13 -4.62 -0.80
Si -6.59 -1.31 -1.80
Si -2.06  0.97 -6.60
Si  5.13 -0.23 -4.74
Si -1.53 -5.70  3.74
Si  0.09 -1.02  6.99
Si  6.70  0.00  2.77
Si  7.13 -0.97 -1.06
Si -4.98 -3.38  4.09
Si  2.06 -5.37  4.48
Si -3.00  0.97  6.60
Si  5.15 -3.38  4.09
Si -6.89  0.00  2.77
Si  0.00  6.60  3.42
Si -4.98 -5.42  1.45
Si  6.59 -3.09 -1.80
Si  0.07 -4.17 -6.34
Si  1.53  1.31 -7.34
Si  3.00 -5.37 -4.48
Si  5.15 -5.42  1.45
Si -3.54 -5.70 -3.74
Si -6.59  1.31 -3.74
Si  2.06  3.43 -6.60
Si -0.09 -3.38  6.99
Si  0.07  4.62 -6.34
Si  1.53  7.49  1.80
Si  0.09 -7.78 -1.45
Si -0.00 -2.20 -7.66
Si -7.13 -3.43 -1.06
Si  3.00  3.43  6.60
Si  5.00 -4.17 -4.74
Si -5.00 -0.23  6.34
Si -1.53  3.09 -7.34
Si -5.13 -4.17 -4.74
Si  5.13 -0.23  6.34
Si -2.06  7.83  1.06
Si  6.59  3.09 -3.74
Si  8.07 -0.97  1.06
Si  3.54  1.31  7.34
Si  5.00  4.62 -4.74
Si -5.13  4.62 -4.74
Si -4.98  5.42  4.09
Si -3.00  7.83 -1.06
Si -1.63  0.00  8.31
Si  7.13  0.97 -4.48
Si  3.54  7.49 -1.80
Si -6.70  4.40  2.77
Si -6.70 -4.40  2.77
Si  1.82  0.00  8.31
Si  1.53 -7.49  3.74
Si  5.15  5.42  4.09
Si -5.07 -6.60 -2.12
Si  5.07 -6.60 -2.12
Si -0.07 -8.57  0.80
Si  6.89  4.40  2.77
Si  6.89 -4.40  2.77
Si  4.98 -1.02 -6.99
Si -3.54  3.09  7.34
Si -5.15 -1.02 -6.99
Si  2.06 -5.37 -6.60
Si -8.31 -0.00 -2.77
Si  0.09  7.78 -4.09
Si -8.07 -3.43  1.06
Si -0.09  5.42  6.99
Si -8.60 -1.31  1.80
Si  6.59  5.70 -1.80
Si  3.24 -0.00 -8.31
Si  8.50 -0.00 -2.77
Si -7.13  5.37 -1.06
Si -3.43 -0.00 -8.31
Si -5.07  6.60 -3.42
Si  5.07  6.60 -3.42
Si  3.00 -5.37  6.60
Si -0.07  9.02  0.80
Si  3.54 -7.49 -3.74
Si  5.00 -4.17  6.34
Si -7.13  3.43 -4.48
Si -5.13 -4.17  6.34
Si -4.98 -3.38 -6.99
Si -0.00  2.20 -8.96
Si -2.06 -7.83  4.48
Si  8.07  0.97  4.48
Si  5.00  4.62  6.34
Si  8.60 -3.09  1.80
Si  5.15 -3.38 -6.99
Si  4.98 -7.78  1.45
Si -1.63 -8.80 -2.77
Si -1.63  8.80 -2.77
Si -5.13  4.62  6.34
Si  1.82  8.80 -2.77
Si  1.82 -8.80 -2.77
Si -1.53 -5.70 -7.34
Si -5.15 -7.78  1.45
Si -5.07 -2.20  7.66
Si  5.07 -2.20  7.66
Si -8.60  1.31  3.74
Si  6.59 -5.70 -3.74
Si  1.53 -1.31 -9.28
Si -3.00 -7.83 -4.48
Si  1.63  4.40  8.31
Si  1.63 -4.40  8.31
Si -1.82  4.40  8.31
Si -1.82 -4.40  8.31
Si  0.09  1.02  9.63
Si -8.07  5.37  1.06
Si  7.13  0.97  6.60
Si  3.24  8.80  2.77
Si  3.24 -8.80  2.77
Si -0.07  8.57  4.74
Si  8.31  4.40 -2.77
Si  8.31 -4.40 -2.77
Si -3.43 -8.80  2.77
Si -3.43  8.80  2.77
Si -8.07  3.43  4.48
Si  8.60  3.09  3.74
Si -1.53 -3.09 -9.28
Si  0.09  9.82 -1.45
Si -3.54 -5.70  7.34
Si -3.24  4.40 -8.31
Si -3.24 -4.40 -8.31
Si -6.59  1.31  7.34
Si -5.00 -8.57 -0.80
Si -8.50  4.40 -2.77
Si -8.50 -4.40 -2.77
Si -7.13 -5.37 -4.48
Si  3.43  4.40 -8.31
Si  3.43 -4.40 -8.31
Si  3.54 -1.31  9.28
Si  5.13 -8.57 -0.80
Si -2.06 -9.77  1.06
Si  4.98  7.78  4.09
Si 10.06  0.23  0.80
Si -0.00  6.60 -7.66
Si -6.59  7.49 -1.80
Si -4.98  5.42 -6.99
Si -5.15  7.78  4.09
Si -0.07 -9.02  4.74
Si -10.04  1.02 -1.45
Si -0.09  3.38  9.63
Si -10.20  0.23  0.80
Si  5.15  5.42 -6.99
Si -3.00 -9.77 -1.06
Si -2.06 -0.97 -10.02
Si -0.07  0.23 -10.28
Si -7.13  3.43  6.60
Si  6.59  3.09  7.34
Si -5.00  9.02 -0.80
Si 10.22  1.02 -1.45
Si  1.53 -10.10  1.80
Si -3.54 -3.09  9.28
Si  5.13  9.02 -0.80
Si -2.06 -7.83 -6.60
Si  0.09  7.78  6.99
Si  8.07  0.97 -6.60
Si  8.60  5.70  1.80
Si -3.00 -0.97 10.02
Si -5.07  2.20  8.96
Si  5.07  2.20  8.96
Si 10.13  2.20  2.12
Si -10.13  2.20  2.12
Si  1.53 -7.49 -7.34
Si  0.09 -9.82 -4.09
Si  7.13  7.83 -1.06
Si -6.59 -7.49 -3.74
Si -0.07  8.57 -6.34
Si -3.00 -7.83  6.60
Si  6.70 -0.00 -8.31
Si -8.07 -5.37  4.48
Si 10.04  3.38 -1.45
Si  2.06 -3.43 -10.02
Si -6.89 -0.00 -8.31
Si  3.54 -10.10 -1.80
Si -10.22  3.38 -1.45
Si  1.53 10.10  3.74
Si  4.98  1.02 -9.63
Si -10.04 -1.02 -4.09
Si 10.13 -2.20  3.42
Si -10.13 -2.20  3.42
Si -10.06  4.17  0.80
Si -2.06  9.77  4.48
Si -5.15  1.02 -9.63
Si -8.07  3.43 -6.60
Si  8.60 -5.70  3.74
Si -5.00  8.57 -4.74
Si -1.53  5.70 -9.28
Si  3.00 -3.43 10.02
Si -0.07 -9.02 -6.34
Si 10.20  4.17  0.80
Si -0.09 -5.42  9.63
Si 10.22 -1.02 -4.09
Si  5.13  8.57 -4.74
Si  3.54 -7.49  7.34
Si  0.07  4.17 -10.28
Si -7.13 -5.37  6.60
Si  4.98  9.82  1.45
Si -10.06 -4.62  0.80
Si 10.06 -0.23  4.74
Si -0.00 -6.60 -8.96
Si -3.00  9.77 -4.48
Si -5.15  9.82  1.45
Si  0.00 11.00  2.12
Si 10.20 -4.62  0.80
Si -10.20 -0.23  4.74
Si  0.07 -4.62 -10.28
Si  8.07  7.83  1.06
Si -5.07  6.60  7.66
Si  5.07  6.60  7.66
Si  3.54 10.10 -3.74
Si -5.00 -9.02 -4.74
Si -4.98  3.38 -9.63
Si 10.04 -3.38 -4.09
Si -8.60  1.31 -7.34
Si  6.59 -5.70  7.34
Si  6.70  8.80  2.77
Si  6.70 -8.80  2.77
Si  5.13 -9.02 -4.74
Si -5.00  0.23 10.28
Si  5.15  3.38 -9.63
Si -3.54  5.70  9.28
Si -6.59 -1.31  9.28
Si  5.13  0.23 10.28
Si  7.13 -7.83 -4.48
Si 10.04 -5.42 -1.45
Si -6.89  8.80  2.77
Si -6.89 -8.80  2.77
Si -10.22 -3.38 -4.09
Si -0.00 -11.00  3.42
Si -6.70  4.40 -8.31
Si -6.70 -4.40 -8.31
Si -8.60  7.49  1.80
Si  2.06  5.37 -10.02
Si  4.98  7.78 -6.99
Si  6.89  4.40 -8.31
Si  6.89 -4.40 -8.31
Si -10.22 -5.42 -1.45
Si -5.15  7.78 -6.99
Si  8.60  3.09 -7.34
Si -8.07 -5.37 -6.60
Si  4.98 -9.82  4.09
Si -8.31  0.00  8.31
Si  3.00  5.37 10.02
Si -5.00  8.57  6.34
Si  6.59 -3.09  9.28
Si -5.15 -9.82  4.09
Si  5.13  8.57  6.34
Si 11.66 -1.31  1.80
Si -10.06 -4.17  4.74
Si  8.50  0.00  8.31
Si -0.07  0.23 11.88
Si 10.06 -0.23 -6.34
Si -2.06  9.77 -6.60
Si 10.20 -4.17  4.74
Si -8.60 -7.49  3.74
Si -10.20 -0.23 -6.34
Si  1.53  7.49 -9.28
Si -10.06  4.62  4.74
Si  0.09 -9.82  6.99
Si -11.77 -0.00 -2.77
Si  8.07 -7.83  4.48
Si -5.00 -9.02  6.34
Si -4.98 -5.42 -9.63
Si 10.04  5.42 -4.09
Si -1.53 -11.89  1.80
Si  7.13 -9.77 -1.06
Si 10.20  4.62  4.74
Si -3.00  9.77  6.60
Si  5.13 -9.02  6.34
Si  5.00  4.17 10.28
Si  5.15 -5.42 -9.63
Si -11.66 -3.09  1.80
Si -6.59 -10.10 -1.80
Si -1.63 -8.80  8.31
Si -1.63  8.80  8.31
Si -5.13  4.17 10.28
Si -5.07 -6.60  8.96
Si  5.07 -6.60  8.96
Si  1.82  8.80  8.31
Si  1.82 -8.80  8.31
Si -0.09 12.18 -1.45
Si -10.22  5.42 -4.09
Si 11.95 -0.00 -2.77
Si -10.13 -6.60  2.12
Si 10.13 -6.60  2.12
Si -12.19 -0.97  1.06
Si -10.04 -1.02  6.99
Si -5.07 11.00 -2.12
Si  5.07 11.00 -2.12
Si 11.66  1.31  3.74
Si  5.00 -4.62 10.28
Si  7.13 -0.97 10.02
Si -2.06 -0.97 12.14
Si  0.09 -7.78  9.63
Si -5.13 -4.62 10.28
Si -6.59 -7.49  7.34
Si -8.31 -8.80 -2.77
Si -8.31  8.80 -2.77
Si 10.22 -1.02  6.99
Si  3.54  7.49  9.28
Si  2.06 -12.22  1.06
Si  7.13 -7.83  6.60
Si  3.24 -8.80 -8.31
Si  3.24  8.80 -8.31
Si -3.54 -11.89 -1.80
Si  8.50  8.80 -2.77
Si  8.50 -8.80 -2.77
Si -3.00 -0.97 -12.14
Si  8.31  4.40  8.31
Si  8.31 -4.40  8.31
Si -1.53 11.89  3.74
Si 10.13  6.60  3.42
Si -10.13  6.60  3.42
Si  0.09  1.02 -12.53
Si -3.43  8.80 -8.31
Si -3.43 -8.80 -8.31
Si  1.53 10.10 -7.34
Si -5.07 -11.00 -3.42
Si  5.07 -11.00 -3.42
Si  0.07  4.17 11.88
Si -10.06 -4.17 -6.34
Si -11.66  3.09  3.74
Si -6.59 10.10 -3.74
Si  3.00 -12.22 -1.06
Si  8.60 -5.70 -7.34
Si -8.50  4.40  8.31
Si -8.50 -4.40  8.31
Si 10.04 -3.38  6.99
Si 12.19 -3.43  1.06
Si 10.20 -4.17 -6.34
Si  8.07 -9.77  1.06
Si -8.60 -1.31 -9.28
Si  6.59  5.70  9.28
Si  0.07 -4.62 11.88
Si -10.06  4.62 -6.34
Si -7.13 -3.43 10.02
Si  2.06 -3.43 12.14
Si -10.04 -7.78 -1.45
Si -10.22 -3.38  6.99
Si -0.09 -12.18 -4.09
Si 11.77  4.40 -2.77
Si 11.77 -4.40 -2.77
Si 10.20  4.62 -6.34
Si -2.06  7.83 -10.02
Si -10.13 -2.20 -7.66
Si 10.13 -2.20 -7.66
Si -5.00  0.23 -11.88
Si  7.13  9.77 -4.48
Si  8.07 -0.97 -10.02
Si 10.22 -7.78 -1.45
Si  5.13  0.23 -11.88
Si -3.54 11.89 -3.74
Si  3.00 -3.43 -12.14
Si  3.54 10.10  7.34
Si -0.09  3.38 -12.53
Si  0.07 12.97  0.80
Si  8.60 -3.09 -9.28
Si -12.19  0.97  4.48
Si  8.07 -7.83 -6.60
Si -11.95  4.40 -2.77
Si -11.95 -4.40 -2.77
Si  1.53 -1.31 12.88
Si  4.98 -9.82 -6.99
Si -3.00  7.83 10.02
Si -11.66  5.70  1.80
Si -5.15 -9.82 -6.99
Si  2.06 12.22  4.48
Si -13.13 -0.97 -1.06
Si -4.98 12.18  1.45
Si 10.06 -8.57  0.80
Si  5.15 12.18  1.45
Si -8.07 -3.43 -10.02
Si -1.53 -3.09 12.88
Si  4.98 -7.78 -9.63
Si -10.04  7.78 -4.09
Si -10.20 -8.57  0.80
Si  3.00 12.22 -4.48
Si 12.19  5.37  1.06
Si  0.00  2.20 13.20
Si -0.07 -8.57 -10.28
Si 10.04  5.42  6.99
Si -8.60 -10.10  1.80
Si -0.00 -11.00 -7.66
Si -5.15 -7.78 -9.63
Si  3.54 -1.31 -12.88
Si -7.13  5.37 10.02
Si  2.06  5.37 12.14
Si 12.19  3.43  4.48
Si  8.07  9.77  4.48
Si  0.07 -13.42  0.80
Si 10.22  7.78 -4.09
Si -11.66 -5.70  3.74
Si -10.22  5.42  6.99
Si  4.98  1.02 12.53
Si 10.06  9.02  0.80
Si  5.00  4.17 -11.88
Si -8.60 -7.49 -7.34
Si  1.63 13.20 -2.77
Si  1.63 -13.20 -2.77
Si -5.15  1.02 12.53
Si -5.13  4.17 -11.88
Si -1.82 13.20 -2.77
Si -1.82 -13.20 -2.77
Si  3.00  5.37 -12.14
Si 13.13 -3.43 -1.06
Si -6.59  7.49  9.28
Si -10.20  9.02  0.80
Si -0.09 -5.42 -12.53
Si 13.37  0.00  2.77
Si -0.07  9.02 -10.28
Si  5.00 -4.62 -11.88
Si -10.13  2.20 -8.96
Si 10.13  2.20 -8.96
Si -3.54 -3.09 -12.88
Si  6.59 -11.89 -1.80
Si -5.13 -4.62 -11.88
Si  0.09  9.82  9.63
Si -4.98 -12.18  4.09
Si  7.13  9.77  6.60
Si -8.60 10.10  3.74
Si  1.53 -10.10 -9.28
Si  0.07 -12.97  4.74
Si  6.70 -8.80 -8.31
Si  6.70  8.80 -8.31
Si 11.66  1.31 -7.34
Si  5.15 -12.18  4.09
Si -13.56  0.00  2.77
Si 13.67 -1.31 -1.80
Si -3.24 13.20  2.77
Si -3.24 -13.20  2.77
Si  8.60  5.70 -9.28
Si -12.19  0.97 -6.60
Si -4.98  3.38 12.53
Si -13.13  0.97 -4.48
Si  3.43 13.20  2.77
Si  3.43 -13.20  2.77
Si  5.00 12.97 -0.80
Si -6.89  8.80 -8.31
