500
set: 813.00  0.00  0.00
Si -0.47  1.10 -0.86
Si  0.40 -1.26  0.84
Si  1.34  1.14  0.81
Si -1.35 -1.15 -0.84
Si  2.17 -1.15 -0.78
Si -2.20  1.11  0.80
Si -0.83 -0.02  2.48
Si  0.94 -0.03 -2.56
Si -0.06 -2.39 -2.49
Si  0.07  2.40  2.56
Si  3.20  1.17 -0.83
Si -3.14 -1.36  0.81
Si -2.63 -0.02 -2.55
Si  2.67  0.02  2.52
Si  0.51  3.58 -0.84
Si -0.54 -3.62  0.82
Si -1.30  3.43  0.80
Si  1.71 -2.30  2.49
Si -1.78  2.39 -2.48
Si -1.78 -2.38  2.54
Si  1.24 -3.64 -0.81
Si  1.86  2.41 -2.52
Si -3.96  1.20 -0.88
Si  0.87  0.08  4.18
Si -0.81  0.04 -4.20
Si  4.01 -1.31  0.83
Si  2.27  3.56  0.83
Si -2.26 -3.64 -0.87
Si  2.92 -3.65  0.88
Si  0.03  2.42 -4.13
Si -0.00 -2.32  4.22
Si  3.52 -2.33 -2.41
Si -3.15  3.63 -0.82
Si -2.69 -0.01  4.08
Si -3.56  2.33  2.49
Si  2.69 -0.01 -4.24
Si  3.60  2.44  2.51
Si -1.71  2.34  4.11
Si -3.65 -2.41 -2.49
Si -4.46 -0.07  2.38
Si  4.88  1.10  0.87
Si  4.43  0.02 -2.51
Si  1.81 -2.42 -4.17
Si -1.83 -2.41 -4.18
Si -4.96 -1.16 -0.82
Si  1.93  2.46  4.22
Si -0.93 -4.73 -2.53
Si  4.04  3.57 -0.86
Si  0.90 -4.78  2.48
Si -0.88  4.82 -2.49
Si -4.03 -3.65  0.88
Si  1.01  4.82  2.53
Si -2.62  4.70  2.44
Si -3.52  2.42 -4.14
Si  2.60 -4.74 -2.54
Si  3.58  2.42 -4.13
Si  5.80 -1.21 -0.81
Si  3.46 -2.48  4.20
Si  0.42 -1.22 -5.85
Si -5.83  1.18  0.78
Si -0.35  5.92  0.88
Si -3.60 -2.38  4.18
Si -2.67 -4.75  2.53
Si  4.81 -3.58 -0.78
Si -0.38  1.28  5.91
Si  0.36 -6.00 -0.86
Si  1.38  1.21 -5.82
Si -4.47  0.01 -4.18
Si  2.75  4.85 -2.53
Si  4.51  0.00  4.15
Si -4.94  3.55  0.83
Si  1.42  5.93 -0.87
Si -1.42 -1.15  5.91
Si -1.41 -6.01  0.83
Si  2.23 -1.13  5.83
Si  5.29 -2.41  2.55
Si -2.18  1.21 -5.84
Si -0.88 -4.77  4.15
Si -2.20  5.96 -0.80
Si  5.35  2.47 -2.50
Si -5.40  2.37 -2.54
Si  0.81 -4.82 -4.17
Si  0.94  4.78 -4.19
Si -5.40 -2.40  2.52
Si -0.89  4.82  4.18
Si  2.09 -6.09  0.86
Si -3.11 -1.14 -5.79
Si  3.15  1.19  5.78
Si -6.30 -0.04 -2.49
Si  6.31 -0.05  2.46
Si  3.14  5.96  0.82
Si  6.63  1.18 -0.86
Si  5.77  3.48  0.86
Si -3.17 -5.99 -0.84
Si -2.63  4.81 -4.12
Si  0.47  3.68  5.78
Si -6.72 -1.23  0.84
Si  2.62 -4.82  4.18
Si -0.41 -3.61 -5.87
Si -2.74 -4.79 -4.19
Si  2.80  4.80  4.15
Si -5.88 -3.62 -0.80
Si -1.27  3.64 -5.80
Si  4.45 -4.77  2.54
Si  1.33 -3.63  5.87
Si -4.56 -4.76 -2.49
Si -4.53  4.80 -2.51
Si  4.58  4.80  2.48
Si  5.29 -2.44 -4.16
Si -4.03  1.22  5.79
Si -5.34  2.48  4.13
Si -2.25 -3.54  5.85
Si  4.10 -1.10 -5.83
Si -4.00  5.95  0.80
Si -5.41 -2.37 -4.19
Si  3.91 -6.04 -0.88
Si  2.27  3.63 -5.86
Si  5.40  2.40  4.21
Si -6.22 -0.04  4.12
Si  6.20 -0.00 -4.16
Si -3.02  3.60  5.86
Si -0.07 -7.14  2.51
Si  0.03  7.17 -2.49
Si  6.62 -3.63  0.80
Si  0.42 -1.15  7.49
Si  3.14 -3.58 -5.94
Si -0.41  1.25 -7.50
Si -6.71  3.53 -0.88
Si  1.43  1.18  7.48
Si  4.35 -4.77 -4.22
Si  1.67 -7.10 -2.50
Si  7.58 -1.23  0.84
Si -4.33  4.82  4.21
Si -4.86 -1.15  5.91
Si  4.92  5.94 -0.81
Si  4.49  4.76 -4.17
Si -1.37 -1.11 -7.57
Si  4.93  1.28 -5.88
Si -1.72  7.18  2.52
Si -7.67  1.18 -0.86
Si -4.57 -4.75  4.18
Si -1.82 -7.17 -2.52
Si  7.05 -2.38 -2.50
Si  2.18 -1.17 -7.46
Si  1.90  7.20  2.54
Si -2.26  1.27  7.46
Si -7.14  2.30  2.50
Si  7.16  2.30  2.50
Si -4.98 -6.15  0.80
Si -4.09 -3.52 -5.89
Si  4.02  3.62  5.89
Si -7.25 -2.38 -2.50
Si  6.09 -4.78 -2.51
Si  3.17  1.15 -7.48
Si -6.17  4.80  2.54
Si -5.78  1.25 -5.74
Si -3.11 -1.15  7.55
Si -0.10 -7.15 -4.13
Si  0.54  8.22  0.81
Si  0.43  3.64 -7.44
Si  6.28  4.83 -2.54
Si  5.68 -6.02  0.83
Si  0.08  7.20  4.18
Si -6.30 -4.88  2.44
Si -4.82  3.65 -5.74
Si -0.46 -3.57  7.53
Si  5.88 -1.16  5.82
Si -7.99 -0.05  2.46
Si  0.34 -5.95  5.89
Si -5.81  5.99 -0.78
Si  8.01 -0.04 -2.49
Si -3.57  7.19 -2.50
Si  7.59  3.53 -0.88
Si  3.62  7.18 -2.49
Si  4.92 -3.53  5.86
Si -3.61 -7.17  2.56
Si  3.48 -7.27  2.50
Si -1.75 -7.11  4.22
Si -0.41  6.05 -5.89
Si -0.48 -8.40 -0.83
Si -1.41 -5.94 -5.86
Si -1.27  3.65  7.56
Si  1.31 -3.60 -7.58
Si  1.85  7.17 -4.18
Si  1.72 -7.18  4.21
Si -4.01  1.18 -7.41
Si -1.73  7.20 -4.19
Si -2.21 -3.51 -7.44
Si  1.43  6.04  5.85
Si -7.68 -3.63  0.80
Si -1.28  8.41 -0.82
Si  7.12  2.39 -4.10
Si  8.47  1.18  0.78
Si -7.18  2.39 -4.10
Si  1.20 -8.47  0.87
Si  2.25  3.57  7.50
Si  4.11 -1.21  7.47
Si -8.50 -1.21 -0.81
Si -7.15 -2.46  4.20
Si  7.15 -2.46  4.20
Si -2.18  5.97  5.94
Si  2.27 -6.00 -5.88
Si  2.33  8.43 -0.84
Si -2.34 -8.43  0.81
Si -3.02  3.63 -7.44
Si  3.09 -3.51  7.47
Si -3.21 -5.89  5.78
Si  6.60  5.92  0.88
Si -6.31 -4.76 -4.12
Si -3.04  8.34  0.84
Si  6.30  4.75  4.18
Si  6.29 -4.75  4.21
Si  2.95 -8.40 -0.86
Si -6.69 -1.15 -5.83
Si  6.73  1.20  5.79
Si -6.28  4.81 -4.22
Si -3.47  7.12  4.20
Si  3.44 -7.19 -4.10
Si  3.27  5.97 -5.87
Si -4.85 -1.19 -7.49
Si  4.98  1.21  7.41
Si -3.65 -7.16 -4.13
Si  8.08 -0.04  4.12
Si -5.86 -3.60  5.94
Si -6.83 -5.94 -0.82
Si  5.95  3.57 -5.88
Si -8.10 -0.00 -4.16
Si  3.68  7.25  4.22
Si  8.42 -3.62 -0.80
Si -0.91 -0.00  9.16
Si  4.01 -5.97  5.80
Si -4.02 -3.58  7.51
Si  0.96  0.01 -9.20
Si  5.22 -7.20 -2.54
Si -8.53  3.48  0.86
Si -3.92  6.06 -5.81
Si -5.33  7.17  2.55
Si  4.07  3.65 -7.52
Si  4.08  8.32  0.84
Si -5.46 -7.18 -2.48
Si  5.39  7.27  2.49
Si  0.09 -2.33 -9.13
Si  9.34 -1.16 -0.82
Si  0.00  2.38  9.17
Si -4.14 -8.48 -0.86
Si -6.61  3.60  5.80
Si -9.42  1.10  0.87
Si  6.70 -3.51 -5.81
Si  2.64 -0.03  9.18
Si  8.90 -2.40  2.52
Si  8.90  2.37 -2.54
Si -2.72  0.03 -9.17
Si -5.76  1.28  7.54
Si  0.39 -5.92 -7.52
Si  7.47 -5.94 -0.82
Si -7.57  1.20  5.79
Si -8.95  2.47 -2.50
Si -0.34  6.00  7.51
Si  5.85 -1.19 -7.55
Si  1.84  2.46 -9.13
Si -1.76  2.41 -9.17
Si  7.61 -1.15 -5.83
Si -4.85  3.64  7.52
Si -4.95 -5.94 -5.80
Si -9.01 -2.41  2.55
Si  1.74 -2.36  9.22
Si  8.00 -4.88  2.44
Si -4.82  8.37 -0.81
Si -1.81 -2.37  9.22
Si  4.89 -3.59 -7.56
Si  4.79 -8.40  0.78
Si -8.02  4.83 -2.54
Si -1.43 -6.00  7.50
Si  1.47  6.06 -7.44
Si  5.01  5.94  5.87
Si -7.70  5.92  0.88
Si  5.28 -7.10  4.13
Si  8.13  4.80  2.54
Si  2.26 -5.89  7.52
Si -8.21 -4.78 -2.51
Si -5.33  7.14 -4.16
Si -0.78  9.51  2.38
Si -2.18  6.00 -7.56
Si  0.76 -9.56 -2.51
Si -5.39 -7.24  4.11
Si  5.49  7.15 -4.17
Si -1.01 -9.56  2.52
Si  1.05  9.56 -2.55
Si  9.37  3.55  0.83
Si -3.25 -5.94 -7.44
Si  5.80 -5.93 -5.74
Si  3.57 -2.40 -9.14
Si  8.89 -2.37 -4.19
Si  9.84 -0.07  2.38
Si -3.58  2.42  9.16
Si -8.90  2.40  4.21
Si  3.21  6.00  7.53
Si  3.65  2.37  9.18
Si -5.70  6.05  5.86
Si -9.49 -3.58 -0.78
Si  7.99 -4.76 -4.12
Si  6.77  1.26 -7.49
Si  8.96  2.48  4.13
Si -6.66 -1.14  7.61
Si -9.87  0.02 -2.51
Si -2.62  9.53 -2.49
Si -3.54 -2.45 -9.24
Si -0.53 -8.38  5.78
Si -7.60 -3.51 -5.81
Si  4.47 -0.04 -9.17
Si -8.00  4.75  4.18
Si -5.86 -3.57 -7.56
Si -9.01 -2.44 -4.16
Si -8.01 -4.75  4.21
Si  1.25 -8.30 -5.88
Si  0.57  8.43 -5.79
Si -4.48  0.03  9.23
Si  8.03  4.81 -4.22
Si  5.94  3.69  7.52
Si  2.85  9.55  2.48
Si  2.63 -9.62  2.46
Si  7.69  3.60  5.80
Si  5.85  8.43 -0.78
Si -8.42 -1.16  5.82
Si -2.74 -9.61 -2.56
Si  0.85 -4.80  9.11
Si -5.88 -8.46  0.80
Si  8.52  1.25 -5.74
Si -1.18  8.42  5.91
Si -0.96 -4.71 -9.17
Si -10.29 -1.31  0.83
Si  1.03  4.83  9.15
Si  4.05 -5.95 -7.53
Si  7.06 -7.25  2.49
Si  8.49  5.99 -0.78
Si -7.10  7.25 -2.41
Si 10.34  1.20 -0.88
Si -2.30 -8.36 -5.82
Si  0.99  9.57  4.08
Si -0.85  4.78 -9.27
Si  0.83 -9.57  4.15
Si -3.94  6.04  7.61
Si -0.79  9.59 -4.18
Si  7.20  7.25 -2.41
Si -0.99 -9.59 -4.24
Si  2.26  8.43  5.91
Si -8.62 -6.02  0.83
Si -7.25 -7.25  2.49
Si -6.61  8.27  0.83
Si  3.05 -8.37  5.79
Si -9.79  0.00  4.15
Si -6.58  3.62 -7.53
Si -2.65 -4.74  9.15
Si -2.63  4.80  9.17
Si -3.01  8.43 -5.83
Si  9.83  0.01 -4.18
Si -2.54  9.53  4.12
Si -7.53  1.26 -7.49
Si  2.68 -4.79 -9.20
Si -6.69 -5.97  5.86
Si  6.68 -3.54  7.61
Si  2.71  4.87 -9.17
Si  6.66 -8.38 -0.88
Si  2.52 -9.58 -4.16
Si -2.81 -9.49  4.18
Si -4.31  9.53  2.46
Si -4.95 -5.93  7.56
Si -0.28 10.77 -0.88
Si  1.48 10.69  0.80
Si -8.35  3.57 -5.88
Si  5.31  2.30 -9.15
Si -5.30  2.33 -9.15
Si  4.33 -9.62 -2.49
Si  7.64 -1.14  7.61
Si  6.82  6.00 -5.94
Si -0.83  0.03 -10.82
Si -1.51 -10.72 -0.78
Si  0.91  0.06 10.82
Si  4.99  5.98 -7.58
Si  2.87  9.62 -4.20
Si -4.51 -9.60  2.48
Si  7.10 -7.15 -4.14
Si -10.26  3.57 -0.86
Si  4.62  9.54 -2.56
Si  7.14  7.09  4.20
Si -7.16  7.09  4.20
Si  5.28 -2.40  9.25
Si -5.37 -2.36  9.21
Si  0.34 -10.89  0.83
Si  8.44 -3.60  5.94
Si 10.27 -3.65  0.88
Si -7.20 -7.15 -4.14
Si -4.05 -8.30  5.91
Si -2.15 10.76  0.78
Si  4.10  8.36 -5.85
Si  2.12 -10.79 -0.81
Si -6.17  0.03 -9.14
Si  6.18  0.02  9.13
Si  0.06  2.40 -10.80
Si  0.01 -2.38 10.83
Si -9.72  4.80  2.48
Si  9.74 -4.76 -2.49
Si -9.38  5.94 -0.81
Si -9.37  1.28 -5.88
Si  9.78  4.80 -2.51
Si  3.21 10.67 -0.86
Si  5.77 -5.93  7.52
Si -11.10  1.17 -0.83
Si -2.73  0.03 10.86
Si  9.32 -6.15  0.80
Si -1.77 -2.39 -10.79
Si  9.44 -1.15  5.91
Si 10.65 -2.41 -2.49
Si  2.75  0.01 -10.87
Si  4.84 -8.33 -5.74
Si -5.73  5.99 -7.56
Si  1.77 -2.35 -10.84
Si  4.53  4.78  9.11
Si -9.86 -4.77  2.54
Si  4.36 -4.79  9.20
Si  1.30 -8.36  7.41
Si -10.70  2.44  2.51
Si  1.77  2.40 10.86
Si -1.81  2.38 10.86
Si 10.74  2.33  2.49
Si -4.38  4.74 -9.23
Si 11.16 -1.36  0.81
Si -4.74  8.41  5.82
Si -0.51 -8.42 -7.48
Si -7.48  6.00 -5.94
Si -10.78 -2.33 -2.41
Si -1.17  8.39 -7.49
Si  7.61 -5.97  5.86
Si  7.70  8.27  0.83
Si  0.57  8.43  7.55
Si -4.42  9.57 -4.16
Si -4.49 -9.53 -4.20
Si -7.62 -3.54  7.61
Si -3.28 -10.83  0.84
Si  4.40 -9.62  4.12
Si -7.64 -8.38 -0.88
Si -4.53 -4.80 -9.27
Si  7.72  3.62 -7.53
Si -8.45 -1.19 -7.55
Si  8.54  1.28  7.54
Si  4.55  9.66  4.18
Si -2.25 -8.39  7.48
Si -3.99 10.75 -0.86
Si  3.90 -10.81  0.84
Si  2.31  8.47 -7.57
Si -9.38 -3.53  5.86
Si  9.73 -4.75  4.18
Si  3.09 -8.32 -7.49
Si  3.51 -2.31 10.85
Si -6.69 -5.94 -7.44
Si -3.56  2.39 -10.83
Si  8.84 -7.18 -2.48
Si  0.14  7.12 -9.24
Si  9.48  3.65 -5.74
Si -0.03 -7.21  9.18
Si -9.82  4.76 -4.17
Si  6.16 -9.64  2.38
Si  4.44  0.05 10.81
Si -6.19  9.59 -2.51
Si  3.56  2.48 -10.86
Si -3.62 -2.39 10.87
Si -1.84 -7.11 -9.13
Si 10.70 -2.38  4.18
Si -10.72  2.42 -4.13
Si -2.98  8.44  7.61
Si 11.15  3.63 -0.82
Si  8.97  7.17  2.55
Si -6.31 -9.59 -2.55
Si -8.91  7.27  2.49
Si -5.86 -8.37 -5.84
Si  6.77  6.07  7.47
Si  6.35  9.59  2.52
Si -4.46 -0.09 -10.91
Si 10.78  2.42 -4.14
Si  1.63 -7.27 -9.15
Si -10.20 -1.10 -5.83
Si -9.96 -4.77 -4.22
Si -1.69  7.21  9.21
Si -0.80  4.77 10.80
Si -8.37  3.69  7.52
Si  5.91  8.45  5.83
Si -8.50 -5.93 -5.74
Si  9.97  4.82  4.21
Si -0.90 -4.82 10.79
Si  1.87  7.21  9.22
Si 10.27  1.22  5.79
Si -9.08 -7.20 -2.54
Si  5.02 10.72  0.81
Si  0.83 -4.77 -10.83
Si  7.13  2.35  9.19
Si -5.03 -10.72 -0.84
Si  8.44 -3.57 -7.56
Si  7.13 -2.31 -9.22
Si -10.84 -2.48  4.20
Si -7.17  2.35  9.19
