500
set: 110.00  0.00  0.00
Si  0.00  0.00  0.00
Si  0.12 -0.04 -2.28
Si -0.12  0.04  2.28
Si -1.22 -2.11  0.00
Si  1.22  2.11  0.00
Si  1.44 -2.11  0.00
Si -1.44  2.11  0.00
Si -2.66  0.00  0.00
Si  2.66  0.00  0.00
Si  1.09  2.15  2.28
Si -1.09 -2.15 -2.28
Si  1.32 -2.06  2.28
Si -1.32  2.06 -2.28
Si  1.34  2.06 -2.28
Si -1.34 -2.06  2.28
Si  2.54  0.04  2.28
Si -2.54 -0.04 -2.28
Si -1.57  2.15  2.28
Si  1.57 -2.15 -2.28
Si  2.79 -0.04 -2.28
Si -2.79  0.04  2.28
Si -0.22  4.22  0.00
Si  0.22 -4.22  0.00
Si  3.88  2.11  0.00
Si -3.88 -2.11  0.00
Si  0.25 -0.09 -4.57
Si -0.25  0.09  4.57
Si  4.11 -2.11  0.00
Si -4.11  2.11  0.00
Si -0.10  4.17 -2.28
Si  0.10 -4.17  2.28
Si  0.35 -4.26 -2.28
Si -0.35  4.26  2.28
Si -2.44 -4.22  0.00
Si  2.44  4.22  0.00
Si -3.76 -2.15 -2.28
Si  3.76  2.15  2.28
Si -3.98  2.06 -2.28
Si  3.98 -2.06  2.28
Si -4.01 -2.06  2.28
Si  4.01  2.06 -2.28
Si -2.89  4.22  0.00
Si  2.89 -4.22  0.00
Si -1.19  2.02 -4.57
Si  1.19 -2.02  4.57
Si -0.97 -2.20 -4.57
Si  0.97  2.20  4.57
Si  2.41  0.09  4.57
Si -2.41 -0.09 -4.57
Si  1.47  2.02 -4.57
Si -1.47 -2.02  4.57
Si  4.23 -2.15 -2.28
Si -4.23  2.15  2.28
Si -5.33  0.00  0.00
Si  5.33  0.00  0.00
Si -1.69  2.20  4.57
Si  1.69 -2.20 -4.57
Si  2.31  4.26  2.28
Si -2.31 -4.26 -2.28
Si -2.56 -4.17  2.28
Si  2.56  4.17 -2.28
Si  2.91 -0.09 -4.57
Si -2.91  0.09  4.57
Si -2.76  4.17 -2.28
Si  2.76 -4.17  2.28
Si -5.20 -0.04 -2.28
Si  5.20  0.04  2.28
Si -3.01  4.26  2.28
Si  3.01 -4.26 -2.28
Si  5.45 -0.04 -2.28
Si -5.45  0.04  2.28
Si  0.03  4.12 -4.57
Si -0.03 -4.12  4.57
Si -3.63 -2.20 -4.57
Si  3.63  2.20  4.57
Si  0.47 -4.31 -4.57
Si -0.47  4.31  4.57
Si  3.86 -2.02  4.57
Si -3.86  2.02 -4.57
Si -1.00 -6.32  0.00
Si  1.00  6.32  0.00
Si  4.13  2.02 -4.57
Si -4.13 -2.02  4.57
Si -1.67  6.32  0.00
Si  1.67 -6.32  0.00
Si -5.10 -4.22  0.00
Si  5.10  4.22  0.00
Si -2.19 -4.31 -4.57
Si  2.19  4.31  4.57
Si -4.36  2.20  4.57
Si  4.36 -2.20 -4.57
Si -2.64  4.12 -4.57
Si  2.64 -4.12  4.57
Si -2.69 -4.12  4.57
Si  2.69  4.12 -4.57
Si  1.12  6.28 -2.28
Si -1.12 -6.28  2.28
Si  0.87  6.37  2.28
Si -0.87 -6.37 -2.28
Si -5.08 -0.09 -4.57
Si  5.08  0.09  4.57
Si -1.54  6.28 -2.28
Si  1.54 -6.28  2.28
Si -0.37  0.14  6.85
Si  0.37 -0.14 -6.85
Si  6.54  2.11  0.00
Si -6.54 -2.11  0.00
Si  4.98  4.26  2.28
Si -4.98 -4.26 -2.28
Si -5.55  4.22  0.00
Si  5.55 -4.22  0.00
Si -1.79  6.37  2.28
Si  1.79 -6.37 -2.28
Si -3.14  4.31  4.57
Si  3.14 -4.31 -4.57
Si  5.23  4.17 -2.28
Si -5.23 -4.17  2.28
Si -6.77  2.11  0.00
Si  6.77 -2.11  0.00
Si  6.42  2.15  2.28
Si -6.42 -2.15 -2.28
Si -5.57  0.09  4.57
Si  5.57 -0.09 -4.57
Si -1.07  1.97 -6.85
Si  1.07 -1.97  6.85
Si  5.42 -4.17  2.28
Si -5.42  4.17 -2.28
Si  2.29  0.14  6.85
Si -2.29 -0.14 -6.85
Si  0.84  2.24  6.85
Si -0.84 -2.24 -6.85
Si  1.59  1.97 -6.85
Si -1.59 -1.97  6.85
Si -3.66 -6.32  0.00
Si  3.66  6.32  0.00
Si -6.64  2.06 -2.28
Si  6.64 -2.06  2.28
Si  6.67  2.06 -2.28
Si -6.67 -2.06  2.28
Si  1.82 -2.24 -6.85
Si -1.82  2.24  6.85
Si  5.67 -4.26 -2.28
Si -5.67  4.26  2.28
Si -3.04  0.14  6.85
Si  3.04 -0.14 -6.85
Si  6.89 -2.15 -2.28
Si -6.89  2.15  2.28
Si  3.53  6.37  2.28
Si -3.53 -6.37 -2.28
Si  4.33 -6.32  0.00
Si -4.33  6.32  0.00
Si -3.78 -6.28  2.28
Si  3.78  6.28 -2.28
Si  1.25  6.23 -4.57
Si -1.25 -6.23  4.57
Si  1.42 -6.23  4.57
Si -1.42  6.23 -4.57
Si  4.20 -6.28  2.28
Si -4.20  6.28 -2.28
Si  0.75  6.42  4.57
Si -0.75 -6.42 -4.57
Si  4.85  4.31  4.57
Si -4.85 -4.31 -4.57
Si  0.15  4.08 -6.85
Si -0.15 -4.08  6.85
Si  7.99  0.00  0.00
Si -7.99  0.00  0.00
Si  3.51  2.24  6.85
Si -3.51 -2.24 -6.85
Si -3.73  1.97 -6.85
Si  3.73 -1.97  6.85
Si -6.29 -2.20 -4.57
Si  6.29  2.20  4.57
Si  4.45 -6.37 -2.28
Si -4.45  6.37  2.28
Si  1.92 -6.42 -4.57
Si -1.92  6.42  4.57
Si  5.30 -4.12  4.57
Si -5.30  4.12 -4.57
Si -0.60  4.35  6.85
Si  0.60 -4.35 -6.85
Si -5.35 -4.12  4.57
Si  5.35  4.12 -4.57
Si  7.86  0.04  2.28
Si -7.86 -0.04 -2.28
Si -6.52  2.02 -4.57
Si  6.52 -2.02  4.57
Si -4.26 -1.97  6.85
Si  4.26  1.97 -6.85
Si  2.51 -4.08  6.85
Si -2.51  4.08 -6.85
Si  2.06  4.35  6.85
Si -2.06 -4.35 -6.85
Si  8.11 -0.04 -2.28
Si -8.11  0.04  2.28
Si -6.79 -2.02  4.57
Si  6.79  2.02 -4.57
Si -0.45  8.43  0.00
Si  0.45 -8.43  0.00
Si -4.95 -0.14 -6.85
Si  4.95  0.14  6.85
Si -2.81 -4.08  6.85
Si  2.81  4.08 -6.85
Si -4.48  2.24  6.85
Si  4.48 -2.24 -6.85
Si -5.80  4.31  4.57
Si  5.80 -4.31 -4.57
Si  3.41  6.42  4.57
Si -3.41 -6.42 -4.57
Si -7.02  2.20  4.57
Si  7.02 -2.20 -4.57
Si  3.91  6.23 -4.57
Si -3.91 -6.23  4.57
Si  0.32 -8.39  2.28
Si -0.32  8.39 -2.28
Si  2.21  8.43  0.00
Si -2.21 -8.43  0.00
Si -4.08  6.23 -4.57
Si  4.08 -6.23  4.57
Si  3.26 -4.35 -6.85
Si -3.26  4.35  6.85
Si  0.57 -8.48 -2.28
Si -0.57  8.48  2.28
Si -7.76 -4.22  0.00
Si  7.76  4.22  0.00
Si  5.70 -0.14 -6.85
Si -5.70  0.14  6.85
Si  6.32  6.32  0.00
Si -6.32 -6.32  0.00
Si -7.74 -0.09 -4.57
Si  7.74  0.09  4.57
Si -3.11  8.43  0.00
Si  3.11 -8.43  0.00
Si -2.34 -8.39  2.28
Si  2.34  8.39 -2.28
Si -2.09 -8.48 -2.28
Si  2.09  8.48  2.28
Si  7.64  4.26  2.28
Si -7.64 -4.26 -2.28
Si  4.58 -6.42 -4.57
Si -4.58  6.42  4.57
Si  0.50 -0.18 -9.13
Si -0.50  0.18  9.13
Si  6.20  6.37  2.28
Si -6.20 -6.37 -2.28
Si  2.98 -8.39  2.28
Si -2.98  8.39 -2.28
Si  7.89  4.17 -2.28
Si -7.89 -4.17  2.28
Si -8.21  4.22  0.00
Si  8.21 -4.22  0.00
Si -6.45 -6.28  2.28
Si  6.45  6.28 -2.28
Si -1.29  6.19 -6.85
Si  1.29 -6.19  6.85
Si  1.37  6.19 -6.85
Si -1.37 -6.19  6.85
Si  3.23 -8.48 -2.28
Si -3.23  8.48  2.28
Si -0.94  1.93 -9.13
Si  0.94 -1.93  9.13
Si  8.09 -4.17  2.28
Si -8.09  4.17 -2.28
Si  2.16  0.18  9.13
Si -2.16 -0.18 -9.13
Si -4.73 -4.35 -6.85
Si  4.73  4.35  6.85
Si  8.24 -0.09 -4.57
Si -8.24  0.09  4.57
Si -6.99  6.32  0.00
Si  6.99 -6.32  0.00
Si -0.62 -6.46 -6.85
Si  0.62  6.46  6.85
Si  0.72  2.29  9.13
Si -0.72 -2.29 -9.13
Si  9.21  2.11  0.00
Si -9.21 -2.11  0.00
Si  6.17  2.24  6.85
Si -6.17 -2.24 -6.85
Si -1.72 -1.93  9.13
Si  1.72  1.93 -9.13
Si -5.17  4.08 -6.85
Si  5.17 -4.08  6.85
Si -0.20  8.34 -4.57
Si  0.20 -8.34  4.57
Si -6.39  1.97 -6.85
Si  6.39 -1.97  6.85
Si  6.87 -6.28  2.28
Si -6.87  6.28 -2.28
Si  9.08  2.15  2.28
Si -9.08 -2.15 -2.28
Si -1.94  2.29  9.13
Si  1.94 -2.29 -9.13
Si  2.04 -6.46 -6.85
Si -2.04  6.46  6.85
Si  8.34 -4.26 -2.28
Si -8.34  4.26  2.28
Si -9.43  2.11  0.00
Si  9.43 -2.11  0.00
Si  3.16 -0.18 -9.13
Si -3.16  0.18  9.13
Si  5.47  4.08 -6.85
Si -5.47 -4.08  6.85
Si  0.70 -8.52 -4.57
Si -0.70  8.52  4.57
Si -4.88 -8.43  0.00
Si  4.88  8.43  0.00
Si -7.51 -4.31 -4.57
Si  7.51  4.31  4.57
Si -9.30  2.06 -2.28
Si  9.30 -2.06  2.28
Si -7.12  6.37  2.28
Si  7.12 -6.37 -2.28
Si -2.46 -8.34  4.57
Si  2.46  8.34 -4.57
Si -9.33 -2.06  2.28
Si  9.33  2.06 -2.28
Si  1.97  8.52  4.57
Si -1.97 -8.52 -4.57
Si -2.86  8.34 -4.57
Si  2.86 -8.34  4.57
Si -6.92 -1.97  6.85
Si  6.92  1.97 -6.85
Si  6.07  6.42  4.57
Si -6.07 -6.42 -4.57
Si -3.28 -6.46 -6.85
Si  3.28  6.46  6.85
Si -4.75 -8.48 -2.28
Si  4.75  8.48  2.28
Si -0.28 -4.03  9.13
Si  0.28  4.03 -9.13
Si -3.38 -2.29 -9.13
Si  3.38  2.29  9.13
Si  3.61 -1.93  9.13
Si -3.61  1.93 -9.13
Si -5.00 -8.39  2.28
Si  5.00  8.39 -2.28
Si -3.96  6.19 -6.85
Si  3.96 -6.19  6.85
Si -5.92  4.35  6.85
Si  5.92 -4.35 -6.85
Si -9.55  2.15  2.28
Si  9.55 -2.15 -2.28
Si -7.96  4.12 -4.57
Si  7.96 -4.12  4.57
Si  4.03  6.19 -6.85
Si -4.03 -6.19  6.85
Si  8.01  4.12 -4.57
Si -8.01 -4.12  4.57
Si  6.57  6.23 -4.57
Si -6.57 -6.23  4.57
Si  7.14 -2.24 -6.85
Si -7.14  2.24  6.85
Si  0.72 -4.40 -9.13
Si -0.72  4.40  9.13
Si -5.77  8.43  0.00
Si  5.77 -8.43  0.00
Si -3.36  8.52  4.57
Si  3.36 -8.52 -4.57
Si  7.61  0.14  6.85
Si -7.61 -0.14 -6.85
Si -6.74  6.23 -4.57
Si  6.74 -6.23  4.57
Si -2.39  4.03 -9.13
Si  2.39 -4.03  9.13
Si -8.96 -2.20 -4.57
Si  8.96  2.20  4.57
Si  4.38  1.93 -9.13
Si -4.38 -1.93  9.13
Si  1.94  4.40  9.13
Si -1.94 -4.40 -9.13
Si -4.83 -0.18 -9.13
Si  4.83  0.18  9.13
Si  5.65 -8.39  2.28
Si -5.65  8.39 -2.28
Si  2.94  4.03 -9.13
Si -2.94 -4.03  9.13
Si -9.18  2.02 -4.57
Si  9.18 -2.02  4.57
Si -4.61  2.29  9.13
Si  4.61 -2.29 -9.13
Si -4.70  6.46  6.85
Si  4.70 -6.46 -6.85
Si -8.46  4.31  4.57
Si  8.46 -4.31 -4.57
Si -0.77 -10.54  0.00
Si  0.77 10.54  0.00
Si -5.90  8.48  2.28
Si  5.90 -8.48 -2.28
Si -10.65  0.00  0.00
Si 10.65  0.00  0.00
Si -3.38  4.40  9.13
Si  3.38 -4.40 -9.13
Si -9.46 -2.02  4.57
Si  9.46  2.02 -4.57
Si -7.24  6.42  4.57
Si  7.24 -6.42 -4.57
Si  1.89 -10.54  0.00
Si -1.89 10.54  0.00
Si  4.63  8.52  4.57
Si -4.63 -8.52 -4.57
Si  0.07 -8.30  6.85
Si -0.07  8.30 -6.85
Si -10.53 -0.04 -2.28
Si 10.53  0.04  2.28
Si  0.90 10.49 -2.28
Si -0.90 -10.49  2.28
Si  5.13  8.34 -4.57
Si -5.13 -8.34  4.57
Si  8.36 -0.14 -6.85
Si -8.36  0.14  6.85
Si -5.82  0.18  9.13
Si  5.82 -0.18 -9.13
Si -0.65 -10.59 -2.28
Si  0.65 10.59  2.28
Si -1.77 10.49 -2.28
Si  1.77 -10.49  2.28
Si -9.68  2.20  4.57
Si  9.68 -2.20 -4.57
Si -7.39 -4.35 -6.85
Si  7.39  4.35  6.85
Si -8.98 -6.32  0.00
Si  8.98  6.32  0.00
Si  5.52 -8.34  4.57
Si -5.52  8.34 -4.57
Si  0.82 -8.57 -6.85
Si -0.82  8.57  6.85
Si -10.77  0.04  2.28
Si 10.77 -0.04 -2.28
Si  2.02 -10.59 -2.28
Si -2.02 10.59  2.28
Si  2.59  8.30 -6.85
Si -2.59 -8.30  6.85
Si  1.17 -6.14  9.13
Si -1.17  6.14 -9.13
Si -3.43 -10.54  0.00
Si  3.43 10.54  0.00
Si -2.73  8.30 -6.85
Si  2.73 -8.30  6.85
Si  1.50  6.14 -9.13
Si -1.50 -6.14  9.13
Si -1.84 -8.57 -6.85
Si  1.84  8.57  6.85
Si -4.60 -4.40 -9.13
Si  4.60  4.40  9.13
Si -5.95 -6.46 -6.85
Si  5.95  6.46  6.85
Si -8.86 -6.37 -2.28
Si  8.86  6.37  2.28
Si -7.84  4.08 -6.85
Si  7.84 -4.08  6.85
Si  5.05 -4.03  9.13
Si -5.05  4.03 -9.13
Si  6.04  2.29  9.13
Si -6.04 -2.29 -9.13
Si -0.50 -6.51 -9.13
Si  0.50  6.51  9.13
Si -6.27  1.93 -9.13
Si  6.27 -1.93  9.13
Si 10.43  4.22  0.00
Si -10.43 -4.22  0.00
Si -9.11 -6.28  2.28
Si  9.11  6.28 -2.28
Si -7.54 -8.43  0.00
Si  7.54  8.43  0.00
Si  3.56 10.49 -2.28
Si -3.56 -10.49  2.28
Si -3.31 -10.59 -2.28
Si  3.31 10.59  2.28
Si  6.62 -6.19  6.85
Si -6.62  6.19 -6.85
Si -10.40 -0.09 -4.57
Si 10.40  0.09  4.57
Si -10.30 -4.26 -2.28
Si 10.30  4.26  2.28
Si -6.02  8.52  4.57
Si  6.02 -8.52 -4.57
Si -8.14 -4.08  6.85
Si  8.14  4.08 -6.85
Si -8.83 -2.24 -6.85
Si  8.83  2.24  6.85
Si  6.70  6.19 -6.85
Si -6.70 -6.19  6.85
Si  2.17 -6.51 -9.13
Si -2.17  6.51  9.13
Si  0.62 -0.23 -11.41
Si -0.62  0.23 11.41
Si -5.60 -4.03  9.13
Si  5.60  4.03 -9.13
Si -1.02 -10.45  4.57
Si  1.02 10.45 -4.57
Si -4.55 10.54  0.00
Si  4.55 -10.54  0.00
Si -7.42 -8.48 -2.28
Si  7.42  8.48  2.28
Si  3.48 -8.57 -6.85
Si -3.48  8.57  6.85
Si  1.64 -10.45  4.57
Si -1.64 10.45 -4.57
Si -9.06  1.97 -6.85
