500
set: 1601.00  0.00  0.00
Si  0.01  0.96 -0.04
Si  0.17 -1.70  0.16
Si -1.70 -1.63 -1.34
Si  1.97 -1.46 -1.35
Si  1.68  1.60 -1.58
Si -1.96  1.61 -1.47
Si  1.85  2.27  0.70
Si -1.82  2.24  0.93
Si  1.51  0.50  2.64
Si -1.36  0.28 -3.06
Si -2.16  0.33  2.65
Si  1.47 -2.29  2.41
Si -2.17 -2.27  2.52
Si  2.31  0.31 -3.29
Si -1.57 -3.60  0.93
Si -0.08  4.14  0.16
Si -0.29  0.26  4.14
Si  0.47 -0.99 -4.03
Si  2.11 -3.58  0.70
Si  0.38  2.19 -3.83
Si  1.22  3.55  2.41
Si -4.14 -1.46 -1.35
Si  4.15  1.61 -1.47
Si  3.95  0.33  2.65
Si -1.71 -4.23 -1.47
Si -1.95  4.21 -1.34
Si -4.25  2.27  0.70
Si  4.41 -1.63 -1.34
Si  0.26 -4.88 -0.04
Si  1.72  4.38 -1.35
Si -0.20 -2.92  3.95
Si  4.29  2.24  0.93
Si  1.93 -4.25 -1.58
Si -0.45  2.92  3.95
Si -4.43  1.60 -1.58
Si -2.42  3.57  2.52
Si -3.79  0.31 -3.29
Si  3.94 -2.27  2.52
Si  1.65 -1.62  4.69
Si -4.60  0.50  2.64
Si  0.63 -3.65 -3.83
Si -4.00 -3.58  0.70
Si -2.03 -1.65  4.91
Si  4.75  0.28 -3.06
Si -1.50 -0.34 -5.45
Si -4.63 -2.29  2.41
Si  3.69  3.57  2.52
Si  4.54 -3.60  0.93
Si -1.50  2.26 -5.32
Si  2.14 -0.36 -5.57
Si  4.15  4.21 -1.34
Si -4.17 -4.25 -1.58
Si -6.10  0.96 -0.04
Si -5.94 -1.70  0.16
Si  6.12  0.96 -0.04
Si  1.76 -5.34  2.64
Si  2.17  2.42 -5.33
Si  4.40 -4.23 -1.47
Si  0.22  4.85 -4.03
Si -4.39  4.38 -1.35
Si -1.91 -5.51  2.65
Si -1.11 -5.56 -3.06
Si  1.40  4.22  4.69
Si  1.02 -0.33  6.39
Si -4.89  3.55  2.41
Si  6.28 -1.70  0.16
Si -1.24 -3.58 -5.32
Si  4.08 -1.65  4.91
Si -4.46 -1.62  4.69
Si  2.43 -3.42 -5.33
Si -0.24  6.80 -0.04
Si -3.97 -0.36 -5.57
Si -2.28  4.19  4.91
Si  2.57 -5.53 -3.29
Si -0.03 -5.58  4.14
Si  1.26  6.34  2.64
Si -5.64 -0.99 -4.03
Si -2.62 -0.32  6.51
Si -1.61  6.12 -3.06
Si -3.93  2.42 -5.33
Si -2.41  6.17  2.65
Si  1.05  2.45  6.63
Si  4.61 -0.34 -5.45
Si  5.82  0.26  4.14
Si -5.73  2.19 -3.83
Si  2.06  6.15 -3.29
Si -0.90 -1.68 -7.05
Si  6.03  4.14  0.16
Si -3.68 -3.42 -5.33
Si -3.54 -5.53 -3.29
Si -4.34 -5.34  2.64
Si  3.48 -0.32  6.51
Si -0.54  6.10  4.14
Si  4.61  2.26 -5.32
Si  4.20 -5.51  2.65
Si -6.19  4.14  0.16
Si  5.66  2.92  3.95
Si -2.62  2.28  6.64
Si  3.83  4.19  4.91
Si  0.42 -7.54  0.16
Si  1.31 -3.39  6.63
Si -5.84 -4.88 -0.04
Si -5.48 -3.65 -3.83
Si -6.39  0.26  4.14
Si  3.70  6.17  2.65
Si  5.91 -2.92  3.95
Si -1.45 -7.47 -1.34
Si  1.43  7.44 -1.58
Si  2.22 -7.30 -1.35
Si  6.58 -0.99 -4.03
Si  3.49  2.28  6.64
Si  6.48  2.19 -3.83
Si  0.83  0.23 -7.82
Si -4.71  4.22  4.69
Si -2.36 -3.56  6.64
Si -2.21  7.45 -1.47
Si -1.75  5.50 -5.45
Si  2.77 -1.65 -7.28
Si  0.72 -6.84 -4.03
Si -6.30 -2.92  3.95
Si -0.65 -0.97  7.94
Si  6.37 -4.88 -0.04
Si  1.89  5.48 -5.57
Si  4.87 -3.58 -5.32
Si -4.05  6.15 -3.29
Si -7.47  0.28 -3.06
Si  7.62  0.50  2.64
Si  5.00 -5.56 -3.06
Si -7.81 -1.63 -1.34
Si  7.79  1.60 -1.58
Si -3.34 -1.65 -7.28
Si -5.09 -0.33  6.39
Si  4.49  6.12 -3.06
Si -6.55  2.92  3.95
Si -1.16  4.17 -7.05
Si  7.58 -2.29  2.41
Si -7.93  2.24  0.93
Si  1.60  8.11  0.70
Si  7.96  2.27  0.70
Si  8.08 -1.46 -1.35
Si -1.25 -6.18 -5.45
Si -8.07  1.61 -1.47
Si -3.88 -7.30 -1.35
Si -2.07  8.08  0.93
Si -4.85  6.34  2.64
Si  3.74 -3.56  6.64
Si -0.74  2.21  8.13
Si  0.76  5.51  6.39
Si  7.33  3.55  2.41
Si -7.67 -3.60  0.93
Si  3.90  7.45 -1.47
Si  0.67  2.89 -8.02
Si  6.74 -3.65 -3.83
Si  0.93 -2.95 -8.02
Si -5.89  4.85 -4.03
Si  1.73 -8.13  2.41
Si  2.39 -6.20 -5.57
Si -8.27  0.33  2.65
Si -5.05  2.45  6.63
Si -1.91 -8.11  2.52
Si  1.19  0.34  8.67
Si  2.52  4.19 -7.28
Si -4.80 -3.39  6.63
Si -4.22  5.48 -5.57
Si  4.35  5.50 -5.45
Si  0.12  8.03 -3.83
Si  4.66 -7.47 -1.34
Si -0.49 -3.63  8.13
Si  5.20 -1.68 -7.05
Si  6.32  4.85 -4.03
Si -4.68  7.44 -1.58
Si -8.27 -2.27  2.52
Si  1.27 -6.17  6.39
Si  5.87  6.80 -0.04
Si  8.22 -3.58  0.70
Si -7.81 -4.23 -1.47
Si -2.88  5.53  6.51
Si  1.90 -7.46  4.69
Si  8.42  0.31 -3.29
Si  7.82  4.38 -1.35
Si  4.03  8.08  0.93
Si -3.72 -6.20 -5.57
Si  3.23  5.53  6.51
Si -1.77 -7.49  4.91
Si -3.59  4.19 -7.28
Si -8.06  4.21 -1.34
Si  7.76 -1.62  4.69
Si  8.04 -4.25 -1.58
Si  6.07 -5.58  4.14
Si  5.57  6.10  4.14
Si -2.48  0.31  8.90
Si -2.37 -6.16  6.51
Si -6.14 -5.58  4.14
Si -4.50  8.11  0.70
Si -6.35  6.80 -0.04
Si -0.91  4.88  7.94
Si -7.61 -0.34 -5.45
Si -1.04  0.30 -9.31
Si -5.27  0.23 -7.82
Si -5.68 -7.54  0.16
Si  4.20 -8.11  2.52
Si -4.38 -8.13  2.41
Si -7.60  2.26 -5.32
Si  4.95  4.17 -7.05
Si  4.86 -6.18 -5.45
Si  7.12 -0.33  6.39
Si -8.53  3.57  2.52
Si -1.31 -9.45  0.93
Si -5.39 -6.84 -4.03
Si -7.22 -5.56 -3.06
Si  0.06 -8.77  3.95
Si  3.62  0.31  8.90
Si -0.70  8.76  3.95
Si -8.13 -1.65  4.91
Si  5.45 -0.97  7.94
Si  1.09 -5.61 -7.82
Si  2.63  0.47 -9.32
Si  3.74 -6.16  6.51
Si  2.36 -9.42  0.70
Si  0.97  9.39  2.41
Si -7.35 -3.58 -5.32
Si -4.21 -7.46  4.69
Si -1.04 -2.30 -9.44
Si  7.50  4.22  4.69
Si -1.75  8.10 -5.32
Si  7.87 -5.34  2.64
Si  0.58  6.07 -7.82
Si -6.65  6.10  4.14
Si  4.33 -7.49  4.91
Si  8.24 -0.36 -5.57
Si -3.47  0.47 -9.32
Si -4.92  0.34  8.67
Si  6.53 -7.54  0.16
Si -5.18 -2.95 -8.02
Si  5.36  2.21  8.13
Si -5.34  5.51  6.39
Si -0.33  9.98  0.16
Si  1.92  8.27 -5.33
Si  7.16  2.45  6.63
Si  7.37  6.34  2.64
Si -8.01 -5.51  2.65
Si -7.01 -1.68 -7.05
Si -2.67  9.41  2.52
Si -5.43  2.89 -8.02
Si -4.84 -6.17  6.39
Si  8.28  2.42 -5.33
Si -3.75 -9.42  0.70
Si -1.30  3.54 -9.44
Si  2.60 -2.32 -9.56
Si  0.88 -9.50 -3.83
Si -1.45 -10.07 -1.47
Si -7.72  6.12 -3.06
Si -0.65 -7.52 -7.05
Si  3.44  9.41  2.52
Si  1.45 -5.50  8.67
Si -2.21 10.05 -1.34
Si 10.06  0.33  2.65
Si  1.46 10.22 -1.35
Si -10.24 -1.46 -1.35
Si -9.90  0.31 -3.29
Si -3.51 -2.32 -9.56
Si  2.19 -10.09 -1.58
Si  2.34  3.52 -9.56
Si  6.94  0.23 -7.82
Si -0.40 -6.81  7.94
Si  6.83 -6.84 -4.03
Si -6.76 -0.97  7.94
Si 10.26  1.61 -1.47
Si  7.41 -3.39  6.63
Si  0.56  1.62 10.38
Si  5.62 -3.63  8.13
Si -8.39  4.19  4.91
Si  5.07  0.30 -9.31
Si 10.05 -2.27  2.52
Si  4.36  8.10 -5.32
Si -10.36  2.27  0.70
Si  8.54 -3.42 -5.33
Si  4.79 -9.45  0.93
Si  0.80  8.29  6.63
Si  5.20  4.88  7.94
Si 10.39  2.24  0.93
Si  0.94  6.18  8.67
Si -4.18  8.27 -5.33
Si  7.53  7.44 -1.58
Si -7.55 -7.47 -1.34
Si -2.23 -5.53  8.90
Si -5.98  8.03 -3.83
Si 10.51 -1.63 -1.34
Si  9.80  3.57  2.52
Si  0.52 -10.72 -0.04
Si  8.17  6.15 -3.29
Si -10.11 -3.58  0.70
Si  0.85 -1.43 10.62
Si -10.54  1.60 -1.58
Si  8.67 -5.53 -3.29
Si -8.52  6.17  2.65
Si -5.02 -5.61 -7.82
Si -3.76  3.52 -9.56
Si  6.23  8.03 -3.83
Si -6.85  2.21  8.13
Si -0.78 -5.54 -9.31
Si  3.90 10.05 -1.34
Si -0.99 -9.43 -5.32
Si  3.02 -7.49 -7.28
Si -2.87  8.13  6.64
Si  6.87  5.51  6.39
Si -3.08 -7.49 -7.28
Si  6.78  2.89 -8.02
Si -8.73 -0.32  6.51
Si -3.92 -10.09 -1.58
Si -7.26  4.17 -7.05
Si  5.06 -2.30 -9.44
Si -5.14  9.39  2.41
Si  3.24  8.13  6.64
Si  2.68 -9.26 -5.33
Si  5.41  8.76  3.95
Si -10.70  0.50  2.64
Si -7.86  5.50 -5.45
Si  3.03  1.64 10.50
Si -7.36 -6.18 -5.45
Si -3.08  1.64 10.50
Si  7.03 -2.95 -8.02
Si -6.60 -3.63  8.13
Si -2.82 -1.60 10.63
Si  2.89 -5.37 -9.32
Si  8.33 -7.30 -1.35
Si  1.14 10.06  4.69
Si -2.74  6.15  8.90
Si 10.26  4.21 -1.34
Si  4.81  3.54 -9.44
Si  3.88 -5.53  8.90
Si  7.99  5.48 -5.57
Si  4.65 -10.07 -1.47
Si -8.72  2.28  6.64
Si  7.71  8.11  0.70
Si -3.43 -9.26 -5.33
Si -1.29  6.14 -9.31
Si -3.22 -5.37 -9.32
Si  0.81 -4.22 10.38
Si -10.28 -4.25 -1.58
Si  3.29 -1.60 10.63
Si -10.74 -2.29  2.41
Si -8.32  7.45 -1.47
Si -0.70  2.21 -11.04
Si 10.65 -3.60  0.93
Si 10.85  0.28 -3.06
Si -4.66 -5.50  8.67
Si -4.64 10.22 -1.35
Si  3.37  6.15  8.90
Si -8.47 -3.56  6.64
Si -5.53  6.07 -7.82
Si  7.30  0.34  8.67
Si -6.05 -8.77  3.95
Si  6.17 -8.77  3.95
Si 10.51 -4.23 -1.47
Si -0.04 10.69 -4.03
Si 10.19 -1.65  4.91
Si -10.50  4.38 -1.35
Si -2.53 10.03  4.91
Si  1.56 -9.23  6.63
Si -1.00  8.06  8.13
Si -5.22 -9.50 -3.83
Si  2.38  6.31 -9.32
Si  0.59  4.41 10.62
Si -10.08 -0.36 -5.57
Si -8.18  8.08  0.93
Si  5.77  9.98  0.16
Si  7.83 -8.13  2.41
Si  7.38 -6.17  6.39
Si  9.59 -0.32  6.51
Si  8.88 -1.65 -7.28
Si -9.65 -5.53 -3.29
Si -10.04  2.42 -5.33
Si -0.45 -3.63 -11.04
Si -2.83 -4.20 10.50
Si -9.79 -3.42 -5.33
Si -7.01  4.88  7.94
Si  5.46 -7.52 -7.05
Si  2.02 -11.19  2.64
Si -10.56 -1.62  4.69
Si -8.02 -8.11  2.52
Si -2.11 -9.40  6.64
Si  3.58 10.03  4.91
Si -7.14  0.30 -9.31
Si  3.28 -4.20 10.50
Si -6.81  8.76  3.95
Si -1.65 -11.36  2.65
Si -10.99  3.55  2.41
Si  3.03  4.24 10.63
Si -5.17  6.18  8.67
Si -0.86 -11.40 -3.06
Si -3.08  4.24 10.63
Si  9.94  4.19  4.91
Si -3.73  6.31 -9.32
Si  0.42  8.73 -8.02
Si  2.98  2.24 -11.27
Si -5.31  8.29  6.63
Si  9.80  6.17  2.65
Si -6.44  9.98  0.16
Si -5.55  1.62 10.38
Si  9.60  2.28  6.64
Si  8.50 -6.20 -5.57
Si -3.13  2.24 -11.27
Si  8.01 -7.46  4.69
Si  5.71 -6.81  7.94
Si -7.88 -7.49  4.91
Si -5.26 -1.43 10.62
Si  6.69  6.07 -7.82
Si  1.18 -8.79 -8.02
Si  5.12 -9.43 -5.32
Si 10.31 -5.51  2.65
Si  1.29 -1.73 -11.81
Si  7.08  9.39  2.41
Si  7.20 -5.61 -7.82
Si -1.11  0.99 11.92
Si 10.71 -0.34 -5.45
Si -10.45 -5.34  2.64
Si -9.44 -1.65 -7.28
Si  8.63  4.19 -7.28
Si -7.42 -9.45  0.93
Si -7.15 -2.30 -9.44
Si  5.32 -5.54 -9.31
Si -5.59 -10.72 -0.04
Si  1.13  0.93 -12.00
Si  4.82  6.14 -9.31
Si  0.22 -11.43  4.14
Si -4.96 10.06  4.69
Si -12.04 -1.70  0.16
Si  2.82 -11.37 -3.29
Si -2.88 -3.60 -11.27
Si 10.72  2.26 -5.32
Si  4.00 -9.40  6.64
Si -4.09 -11.19  2.64
Si -4.55 -9.23  6.63
Si -12.20  0.96 -0.04
Si  3.23 -3.60 -11.27
Si 12.22  0.96 -0.04
Si -0.95 -1.67 12.12
Si -3.29 -11.37 -3.29
Si -6.51 -6.81  7.94
Si -10.15  6.15 -3.29
Si -1.41 10.01 -7.05
Si -6.76 -7.52 -7.05
Si -8.48 -6.16  6.51
Si -8.59  0.31  8.90
Si -8.98  5.53  6.51
Si -5.30 -4.22 10.38
Si  6.99 -9.50 -3.83
Si  9.85 -3.56  6.64
Si  6.67  1.62 10.38
Si -9.99 -7.30 -1.35
Si -11.75 -0.99 -4.03
Si -7.86  8.10 -5.32
Si  4.46 -11.36  2.65
Si -0.24 -9.47  8.13
Si  5.41  2.21 -11.04
Si -1.87 11.96 -3.06
Si -0.79 -8.14 -9.44
Si  1.01 12.18  2.64
Si 12.39 -1.70  0.16
Si -7.40  3.54 -9.44
Si -10.82  4.22  4.69
Si  5.11  8.06  8.13
Si  1.04  4.12 -11.81
Si 10.00  7.45 -1.47
Si  1.81 11.99 -3.29
Si -2.67 12.01  2.65
Si  2.27 10.04 -7.28
Si  6.62 -10.72 -0.04
Si 10.60  6.12 -3.06
Si 11.93  0.26  4.14
Si -11.84  2.19 -3.83
Si  9.34  5.53  6.51
Si -0.50 12.64 -0.04
Si -0.79 11.94  4.14
Si  6.91  8.29  6.63
Si -7.56 -10.07 -1.47
Si  8.47 -9.42  0.70
Si  8.03  8.27 -5.33
Si 10.97 -3.58 -5.32
Si  1.63 11.32 -5.57
Si -11.59 -3.65 -3.83
Si -2.01 11.34 -5.45
Si -5.51  4.41 10.62
Si 11.77  2.92  3.95
Si  7.55 -5.50  8.67
Si  7.05  6.18  8.67
Si  6.96 -1.43 10.62
Si  3.44 12.01  2.65
Si  8.74  0.47 -9.32
Si  0.30  7.46 10.38
Si 11.11 -5.56 -3.06
Si  7.57 10.22 -1.35
Si 12.13  4.14  0.16
Si -9.70  4.19 -7.28
Si -6.89 -5.54 -9.31
Si -4.81 -1.73 -11.81
Si -1.20  4.17 12.12
Si -4.93 -8.79 -8.02
Si -9.82 -6.20 -5.57
