500
set: 1272.00  0.00  0.00
Si  0.18  0.32 -1.25
Si -1.61 -0.91 -0.34
Si  1.72  1.70 -0.20
Si  1.44 -2.07  0.65
Si -0.75 -2.00  1.56
Si  1.47 -1.64 -1.78
Si  2.62 -0.04  1.17
Si -0.89  1.36 -3.00
Si  0.64  3.30  1.15
Si -3.63 -0.24  0.59
Si -1.92 -2.23 -2.33
Si -1.78  3.32  0.95
Si -3.03  1.58  1.94
Si -0.90 -1.26  3.82
Si  2.47  0.45  3.45
Si  2.82  2.63 -2.12
Si  0.17 -3.04 -3.18
Si -2.14 -0.43 -3.87
Si  1.50  2.62  3.31
Si -2.52 -3.54  1.81
Si -2.44  0.56  4.00
Si  3.17 -1.19 -3.38
Si  2.03 -3.98  1.92
Si  1.40 -1.38  4.47
Si -1.83  3.56 -2.99
Si  4.14  0.78 -2.72
Si  4.95 -0.05  0.94
Si  0.47  1.59 -4.87
Si -4.30 -1.95  2.10
Si -2.93  4.26 -0.98
Si -5.31 -0.37 -1.01
Si  1.58  5.27  0.16
Si  1.84 -0.38 -5.19
Si  1.62  3.46 -4.01
Si -3.49 -3.91 -1.82
Si  1.81 -4.70 -2.60
Si -2.66 -5.12  0.05
Si  5.73  0.75 -1.06
Si -5.08  1.31 -2.65
Si  4.11 -4.12  0.90
Si  0.06  3.16  5.08
Si -2.26  5.00  2.50
Si -3.85  0.92 -4.63
Si -4.56 -0.49  4.03
Si -0.05  5.04 -3.47
Si  0.55 -5.89  1.58
Si  2.68 -3.53  4.22
Si  5.63 -2.29  0.94
Si  0.65 -2.38 -5.68
Si -5.11  2.60  2.40
Si -1.58 -1.60 -5.81
Si -1.76 -2.98  5.22
Si  4.70  0.09  4.15
Si -5.05  3.43 -1.62
Si -5.50 -2.65 -1.65
Si -1.91  2.10  5.73
Si  4.61  4.12 -1.67
Si  3.77 -5.07 -1.19
Si  3.03  4.35  3.74
Si -2.87  3.01 -5.08
Si -0.77 -6.51 -0.36
Si -2.60 -4.66  3.88
Si  0.51  6.40 -1.63
Si  3.93  5.41  0.13
Si -0.69  5.18  4.25
Si  6.24  1.03  2.62
Si  4.62 -3.01 -4.06
Si  0.25 -6.45 -2.48
Si  1.51 -0.73  6.71
Si -6.35  2.75  0.35
Si  4.83 -2.28  4.49
Si -1.00  2.69 -6.43
Si -3.28 -4.91 -3.93
Si -0.92 -6.23  3.40
Si  4.75  4.90  2.30
Si  1.04  6.92  1.68
Si -7.18  0.49  0.15
Si  5.47  1.45 -4.47
Si -4.31  4.42  3.75
Si -3.22 -3.25 -5.61
Si -1.29  6.98  1.58
Si  6.57  2.93 -1.21
Si -6.17 -3.46  1.85
Si  1.42  6.10  3.81
Si  5.72 -4.09 -2.23
Si  3.25 -4.86 -4.51
Si -6.35  1.11  3.75
Si -3.39  6.65 -1.05
Si  2.91  0.71 -6.97
Si  7.10 -2.71 -0.82
Si -1.30  7.61 -0.66
Si  6.50 -2.99  3.00
Si  7.61 -0.52 -1.46
Si  2.71  4.29 -5.91
Si -1.43 -6.43 -4.16
Si  1.06  1.43  7.63
Si  1.69 -4.52 -6.20
Si -3.68  3.60  5.93
Si  1.58 -4.78  6.04
Si  1.61  3.55  6.83
Si  4.20  2.46 -6.18
Si -3.95 -6.70  1.26
Si -0.37 -3.84  6.92
Si  6.65  3.47  2.57
Si -6.57 -2.52 -3.72
Si -3.23 -2.30  6.91
Si  2.18 -7.54  1.38
Si  3.18 -7.34 -0.74
Si  5.78 -5.12  2.29
Si -7.10 -3.78 -0.32
Si -5.22  5.02 -3.59
Si -5.16 -1.24  6.15
Si -1.27  1.46  7.91
Si  4.35 -5.59  4.04
Si -5.37 -2.27 -5.70
Si -5.14 -0.06 -6.34
Si -7.09  1.43 -3.85
Si -1.82 -0.73 -8.01
Si -7.91  0.01  2.40
Si  5.27  0.61  6.35
Si  3.71  4.36  5.99
Si  5.24  5.50 -3.50
Si -0.57  6.47 -5.29
Si  0.03 -1.91  8.15
Si  0.37 -1.99 -8.15
Si -5.65 -5.69  2.54
Si  7.27  2.62 -3.44
Si  3.66 -0.55  7.71
Si -0.93  1.39 -8.40
Si  6.65 -0.41 -5.38
Si  0.41 -6.75  5.25
Si -7.62 -2.25  3.24
Si -2.16 -0.66  8.30
Si -4.46  4.54 -5.82
Si -0.08 -6.13 -6.10
Si -2.47 -7.86  2.71
Si -0.81  4.92 -7.10
Si -4.67 -5.66  4.67
Si  8.39  0.01  2.40
Si  7.86  3.79  0.59
Si  1.76  8.23 -2.42
Si  1.77 -8.26 -2.42
Si -4.06  7.10 -3.27
Si  5.95 -2.61 -5.96
Si -8.69 -0.52 -1.46
Si -8.02 -0.69 -3.69
Si -1.84  6.50  5.76
Si  1.40  1.35 -8.68
Si  4.82  7.57 -0.32
Si -1.29 -8.88 -0.66
Si  5.47  2.93  6.54
Si  3.96  6.15 -5.36
Si -4.50  0.24  7.88
Si  3.66 -7.67  3.22
Si  8.28 -0.69 -3.69
Si -5.35 -5.83 -4.55
Si  9.12  0.49  0.15
Si -6.92 -2.62  5.46
Si -5.27  2.35  7.17
Si  5.69 -3.12  6.55
Si -3.54  7.35  4.39
Si -8.44  3.79  0.59
Si -6.82  1.51 -6.15
Si -4.92  7.90  0.31
Si  2.17  8.95  1.38
Si  5.24  7.04  3.18
Si -3.19 -4.05 -7.79
Si  1.41  5.01 -7.80
Si -2.48  8.63  2.71
Si -6.14  5.92  3.94
Si -4.16  0.17 -8.43
Si -2.32  7.92 -4.67
Si -7.20  1.65  5.96
Si  4.00 -0.62 -8.60
Si  8.68 -2.25  3.24
Si  4.46 -6.90 -4.84
Si  4.62 -2.77 -7.92
Si -2.84  5.28  7.48
Si  2.73  8.01 -4.58
Si -9.20 -2.71 -0.82
Si  2.02  8.17  4.73
Si  7.21  4.68 -4.46
Si  7.34 -5.70 -2.78
Si -7.40 -4.65 -4.22
Si  3.16  9.15 -0.74
Si  2.72 -4.53  8.16
Si  2.58  0.79  9.34
Si -1.28 -9.51  1.58
Si  6.10  7.28 -2.24
Si -1.28 -5.40 -8.04
Si  1.06 -9.57  1.68
Si  2.03 -8.32  4.73
Si  4.28 -2.70  8.38
Si  1.84 -0.80 -9.60
Si -6.47  7.12  1.94
Si  5.45 -5.43  6.10
Si  3.06 -4.60 -8.15
Si -7.84 -5.98 -0.69
Si -5.88  3.33 -7.23
Si -4.91 -8.59  0.31
Si  7.32 -6.61  1.30
Si  9.20 -3.78 -0.32
Si  1.07  5.08  8.50
Si -1.62 -5.33  8.27
Si -9.03  2.62 -3.44
Si -0.79  9.98 -0.36
Si  2.75 -8.48 -4.58
Si  6.06  2.86 -7.47
Si -2.30 -8.57 -4.67
Si -3.53 -3.98  8.52
Si -6.49 -4.85  5.96
Si  3.64  8.82  3.22
Si  9.21  1.43 -3.85
Si -2.89 -2.38 -9.40
Si -7.37  5.95 -3.61
Si  6.45  7.71  1.32
Si  4.83 -8.92 -0.32
Si -0.03 -3.91 -9.39
Si  8.11  6.13  0.65
Si  7.88  4.90  4.21
Si  0.53 -10.09 -1.63
Si -9.73  2.93 -1.21
Si  0.92  8.19 -6.08
Si -6.52 -7.81 -1.22
Si -8.19  6.13  0.65
Si -5.78 -7.77 -3.42
Si  7.52  0.10  7.01
Si  1.95  3.48 -9.48
Si  9.95  2.75  0.35
Si  0.93 -8.30 -6.08
Si -1.34  2.76  9.88
Si  0.24 10.04 -2.48
Si  7.46  0.95 -7.15
Si  8.46 -5.98 -0.69
Si  4.69  6.42  6.76
Si -10.06  1.03  2.62
Si -3.38 -9.84 -1.05
Si  7.74  3.60  6.14
Si -6.80 -3.18 -7.38
Si -1.15  5.00  9.20
Si -2.50  5.21 -8.83
Si -4.15  6.21 -7.48
Si -4.35 -7.59  5.93
Si -9.65  3.47  2.57
Si -8.41  4.90  4.21
Si -4.93  2.28 -9.14
Si -0.63  8.21  6.74
Si -3.97  9.79  1.26
Si -8.00  6.86 -1.54
Si -10.57  0.75 -1.06
Si -9.80 -2.99  3.00
Si  9.95  1.11  3.75
Si -0.62 -8.28  6.74
Si  9.73 -2.52 -3.72
Si  6.55  6.76  5.13
Si -4.05 -9.39 -3.27
Si -3.53 -9.13  4.39
Si  0.54 10.60  1.58
Si -7.35 -7.33  2.83
Si  6.57 -7.61 -3.89
Si -1.92 -1.52 10.49
Si -5.12 -6.73 -6.70
Si  7.83 -2.24  7.12
Si -0.93 10.26  3.40
Si -2.58 -7.33  7.57
Si  7.79 -4.26 -6.24
Si  4.05 -6.44  7.74
Si 10.13 -3.46  1.85
Si  8.30  6.86 -1.54
Si  0.32 -2.31 10.63
Si -1.57  2.03 -10.57
Si  6.96  4.92 -6.77
Si  8.90 -4.65 -4.22
Si -5.34 -4.89 -8.15
Si  5.72  2.93  8.84
Si -6.53  8.68 -1.22
Si -10.67 -2.29  0.94
Si -8.95 -5.70 -2.78
Si -1.45 10.06 -4.16
Si  6.47 -8.78  1.32
Si  9.10  1.65  5.96
Si -5.79  8.71 -3.42
Si  3.04  8.11  6.83
Si  1.15  7.42  8.10
Si 10.99 -0.37 -1.01
Si -5.68 -4.82  8.16
Si -9.65 -0.41 -5.38
Si  0.40  9.73  5.25
Si  1.48  7.34 -8.21
Si  1.35 -4.45 10.11
Si  3.86  2.53 10.13
Si -8.56  3.60  6.14
Si -3.27 -8.21 -6.79
Si  1.44 -10.39  3.81
Si -9.09  4.68 -4.46
Si  9.38 -2.62  5.46
Si -3.29  8.28 -6.79
Si  5.43  6.66 -7.19
Si  1.50 -0.30 11.11
Si -8.98 -6.61  1.30
Si  3.06 -8.38  6.83
Si -8.78  0.10  7.01
Si 10.80 -2.65 -1.65
Si  5.25 -9.44  3.18
Si  6.12 -9.21 -2.24
Si -8.47 -2.24  7.12
Si -6.26  7.44  5.78
Si -4.82 -1.32 -10.15
Si  8.93  5.95 -3.61
Si  1.60 -11.21  0.16
Si -0.56 -10.02 -5.29
Si -5.48  0.01  9.97
Si -8.51 -4.26 -6.24
Si -11.35 -0.05  0.94
Si  9.48  1.51 -6.15
Si -8.83  0.95 -7.15
Si  5.61  0.54 -9.96
Si -3.35  3.53 -10.37
Si -6.22  3.40  9.07
Si  1.92 -4.85 -10.27
Si  2.37  4.36 10.40
Si -6.45 -9.37  1.94
Si -4.37  8.90  5.93
Si  0.14  1.66 11.44
Si -10.58 -4.09 -2.23
Si  5.64 -7.46 -6.82
Si -1.42 -3.06 -11.08
Si 11.21  1.31 -2.65
Si  4.44  9.59 -4.84
Si  4.38 -6.52 -8.57
Si  0.40  3.09 -11.22
Si  7.13  1.03  9.16
Si -2.24 -7.41 -8.74
Si -1.82 -9.99  5.76
Si -2.68 11.37  0.05
Si  7.70 -6.03  6.42
Si  6.55  8.88 -3.89
Si -3.56 -3.17 10.69
Si  5.81  2.85 -9.77
Si -4.48  6.29  8.83
Si 11.19  2.60  2.40
Si  3.95 -11.08  0.13
Si -10.83  1.45 -4.47
Si -7.13 -3.11  8.93
Si 11.25  3.43 -1.62
Si -0.41 -6.06 10.21
Si  4.04  4.29 -10.32
Si  6.02 -3.19 -9.76
Si  8.95 -7.33  2.83
Si -10.52 -5.12  2.29
Si -0.03 -11.45 -3.47
Si -2.25 -11.49  2.50
Si -0.09 10.36 -6.10
Si  5.61 -2.53 10.34
Si -7.65  8.00 -4.74
Si  1.74 -1.46 -11.84
Si  3.75 11.42 -1.19
Si -3.21  3.08 11.23
Si -7.51  4.71 -8.21
Si -7.36  9.16  2.83
Si -0.67 -11.31  4.25
Si -2.59  9.16  7.57
Si  7.85  0.03 -9.29
Si  1.80 11.79 -2.60
Si  1.16 -9.07  8.10
Si -10.35 -2.61 -5.96
Si -5.71 -2.20 10.60
Si -7.85  4.78  8.09
Si  9.83  7.12  1.94
Si  3.97 -10.34 -5.36
Si -8.60 -6.03  6.42
Si -11.60  0.09  4.15
Si 11.99 -1.95  2.10
Si 10.65 -5.69  2.54
Si  7.30  9.88  1.30
Si -7.64 -8.49 -4.74
Si  1.50 -9.15 -8.21
Si -6.28  6.70 -8.31
Si -6.62  6.77  8.00
Si 10.16  5.92  3.94
Si  4.33 10.90  4.04
Si -6.24 -9.04  5.78
Si -4.80  4.61 10.48
Si 11.74 -0.49  4.03
Si -8.15 -7.91  5.05
Si  5.09  6.74  9.12
Si  8.15 -7.91  5.05
Si -1.50  6.43 -10.54
Si -4.18  0.99 11.68
Si  9.50 -3.18 -7.38
Si -5.66 10.80  2.54
Si  9.81 -4.85  5.96
Si  7.63 -6.37 -7.51
Si -12.16  0.78 -2.72
Si -8.13 -2.31 -9.18
Si -2.11  0.49 -12.30
Si  8.17 -2.31 -9.18
Si -11.69  4.12 -1.67
Si -6.87  1.58 -10.34
Si  5.03  6.35 -9.55
Si -11.47 -2.28  4.49
Si -7.16  1.58 10.16
Si 10.93 -2.27 -5.70
Si -9.34  4.92 -6.77
Si -8.45  0.03 -9.29
Si -0.29  8.13 -9.57
Si -0.56 -1.34 -12.49
Si -9.85  7.71  1.32
Si  9.78 -7.81 -1.22
Si -7.98 -9.63 -1.54
Si -2.92 -12.22 -0.98
Si  6.32 -0.33 10.93
Si  5.62  9.03 -6.82
Si  6.62  4.99  9.53
Si  8.45  4.78  8.09
Si -3.29 11.58 -3.93
Si  5.25 -10.98 -3.50
Si 11.08  5.02 -3.59
Si 12.67 -0.24  0.59
Si -4.69 10.83  4.67
Si -2.48 -0.35 12.44
Si  8.64  8.00 -4.74
Si -0.28 -8.36 -9.57
Si -2.62 11.83  3.88
Si -11.68 -3.01 -4.06
Si -10.20  7.28 -2.24
Si -7.06 -8.00 -6.95
Si -11.03  0.61  6.35
Si  4.76 -11.59  2.30
Si -11.55  4.90  2.30
Si -5.36 10.66 -4.55
Si 11.14 -1.24  6.15
Si  6.56 -9.72  5.13
Si -2.25  9.08 -8.74
Si  2.01 12.51  1.92
Si  8.32 -9.63 -1.54
Si 11.15 -0.06 -6.34
Si -6.12 -10.57  3.94
Si -11.06  5.50 -3.50
Si -0.91  6.54 11.02
Si -10.61 -3.12  6.55
Si  8.13  8.58  5.05
Si  1.28  3.53 12.30
Si  3.38  8.04 -9.48
Si -8.16  8.58  5.05
Si  3.24 11.63 -4.51
Si -5.46 -6.66  9.61
Si -12.19 -4.12  0.90
Si -5.14  9.76 -6.70
Si  8.79  4.71 -8.21
Si -9.75  6.76  5.13
Si -9.73 -7.61 -3.89
Si  5.76 11.37  2.29
Si  5.78 -5.50 -10.21
Si -6.58 -2.69 -10.85
Si  3.02 -3.61 -12.09
Si -10.82  2.93  6.54
Si -10.24  2.86 -7.47
Si  5.13  1.52 11.84
Si -4.22 -0.57 -12.28
Si -9.17  1.03  9.16
Si  4.71 -10.07  6.76
Si -6.15 -4.93 -10.35
Si  0.75 -6.83 -11.05
Si  8.66 -8.49 -4.74
Si -3.61 -8.13  9.52
Si  7.30 -6.30  8.80
Si -7.07  8.49 -6.95
Si  4.09 12.36  0.90
Si  2.91 -4.79 11.80
Si  3.04 -12.14  3.74
Si -0.35  5.11 -12.05
Si -5.21 -11.47 -3.59
Si  3.62  6.23 10.95
Si  8.94  9.16  2.83
Si  5.17 -2.35 -11.82
Si 10.42  3.33 -7.23
Si -8.66 -6.37 -7.51
Si  9.77  8.68 -1.22
Si  0.60 -8.23 10.22
Si -7.86 10.51 -0.69
Si  5.30 -7.38  9.49
Si  3.39 -8.45 -9.48
Si  0.58  8.26 10.22
Si  5.04  0.01 -12.15
Si  2.81  0.38 -12.86
Si  9.17 -3.11  8.93
Si -3.63  8.35  9.52
Si  8.13 -10.36  0.65
Si -3.51 12.58 -1.82
Si  7.45 -4.19 10.06
Si -8.17 -10.36  0.65
Si 10.95 -5.83 -4.55
Si -9.83 -8.78  1.32
Si  0.66 -13.18  1.15
Si  1.57 11.71  6.04
Si  2.83 -1.12 12.93
Si  4.03 10.04  7.74
Si  4.28 -2.94 12.25
Si  4.62 -12.37 -1.67
