500
set: 109.00  0.00  0.00
Si  0.00  0.00  0.00
Si -0.21  0.06  2.19
Si  0.21 -0.06 -2.19
Si -1.23 -2.02  0.00
Si  1.23  2.02  0.00
Si -1.44  2.02  0.00
Si  1.44 -2.02  0.00
Si  2.68  0.00  0.00
Si -2.68  0.00  0.00
Si  1.02  2.07  2.19
Si -1.02 -2.07 -2.19
Si  1.23 -1.96  2.19
Si -1.23  1.96 -2.19
Si -1.45 -1.96  2.19
Si  1.45  1.96 -2.19
Si -2.46 -0.06 -2.19
Si  2.46  0.06  2.19
Si  1.66 -2.07 -2.19
Si -1.66  2.07  2.19
Si -2.89  0.06  2.19
Si  2.89 -0.06 -2.19
Si -0.21  4.03  0.00
Si  0.21 -4.03  0.00
Si  3.91  2.02  0.00
Si -3.91 -2.02  0.00
Si  0.42 -0.12 -4.39
Si -0.42  0.12  4.39
Si  0.00  3.97 -2.19
Si -0.00 -3.97  2.19
Si  4.12 -2.02  0.00
Si -4.12  2.02  0.00
Si -0.42  4.09  2.19
Si  0.42 -4.09 -2.19
Si -2.47 -4.03  0.00
Si  2.47  4.03  0.00
Si  3.70  2.07  2.19
Si -3.70 -2.07 -2.19
Si  3.91 -1.96  2.19
Si -3.91  1.96 -2.19
Si -1.02  1.90 -4.39
Si  1.02 -1.90  4.39
Si  2.25  0.12  4.39
Si -2.25 -0.12 -4.39
Si  0.81  2.13  4.39
Si -0.81 -2.13 -4.39
Si  2.88 -4.03  0.00
Si -2.88  4.03  0.00
Si  1.66  1.90 -4.39
Si -1.66 -1.90  4.39
Si -4.12 -1.96  2.19
Si  4.12  1.96 -2.19
Si -2.25 -4.09 -2.19
Si  2.25  4.09  2.19
Si -1.87  2.13  4.39
Si  1.87 -2.13 -4.39
Si -2.67  3.97 -2.19
Si  2.67 -3.97  2.19
Si  2.68  3.97 -2.19
Si -2.68 -3.97  2.19
Si -4.33  2.07  2.19
Si  4.33 -2.07 -2.19
Si  5.35  0.00  0.00
Si -5.35  0.00  0.00
Si  3.10 -0.12 -4.39
Si -3.10  0.12  4.39
Si -3.10  4.09  2.19
Si  3.10 -4.09 -2.19
Si -5.14 -0.06 -2.19
Si  5.14  0.06  2.19
Si  0.22  3.91 -4.39
Si -0.22 -3.91  4.39
Si -5.57  0.06  2.19
Si  5.57 -0.06 -2.19
Si  3.48  2.13  4.39
Si -3.48 -2.13 -4.39
Si  3.69 -1.90  4.39
Si -3.69  1.90 -4.39
Si -0.63  4.15  4.39
Si  0.63 -4.15 -4.39
Si -1.02 -6.05  0.00
Si  1.02  6.05  0.00
Si  1.65 -6.05  0.00
Si -1.65  6.05  0.00
Si -2.04 -4.15 -4.39
Si  2.04  4.15  4.39
Si -2.46  3.91 -4.39
Si  2.46 -3.91  4.39
Si -4.33 -1.90  4.39
Si  4.33  1.90 -4.39
Si -1.24 -5.99  2.19
Si  1.24  5.99 -2.19
Si -5.14 -4.03  0.00
Si  5.14  4.03  0.00
Si -0.81 -6.10 -2.19
Si  0.81  6.10  2.19
Si  1.44 -5.99  2.19
Si -1.44  5.99 -2.19
Si -2.89 -3.91  4.39
Si  2.89  3.91 -4.39
Si  4.93  0.12  4.39
Si -4.93 -0.12 -4.39
Si  0.64 -0.17 -6.58
Si -0.64  0.17  6.58
Si -4.54  2.13  4.39
Si  4.54 -2.13 -4.39
Si -1.86  6.10  2.19
Si  1.86 -6.10 -2.19
Si  4.93  4.09  2.19
Si -4.93 -4.09 -2.19
Si -5.56  4.03  0.00
Si  5.56 -4.03  0.00
Si  0.81 -1.84  6.58
Si -0.81  1.84 -6.58
Si -3.31  4.15  4.39
Si  3.31 -4.15 -4.39
Si  6.59  2.02  0.00
Si -6.59 -2.02  0.00
Si  2.04  0.17  6.58
Si -2.04 -0.17 -6.58
Si -0.60 -2.19 -6.58
Si  0.60  2.19  6.58
Si -5.35  3.97 -2.19
Si  5.35 -3.97  2.19
Si  5.36  3.97 -2.19
Si -5.36 -3.97  2.19
Si  6.37  2.07  2.19
Si -6.37 -2.07 -2.19
Si  6.79 -2.02  0.00
Si -6.79  2.02  0.00
Si  1.87  1.84 -6.58
Si -1.87 -1.84  6.58
Si -3.70 -6.05  0.00
Si  3.70  6.05  0.00
Si -6.58  1.96 -2.19
Si  6.58 -1.96  2.19
Si  2.08 -2.19 -6.58
Si -2.08  2.19  6.58
Si -5.78  0.12  4.39
Si  5.78 -0.12 -4.39
Si -3.49 -6.10 -2.19
Si  3.49  6.10  2.19
Si  3.31 -0.17 -6.58
Si -3.31  0.17  6.58
Si -5.77  4.09  2.19
Si  5.77 -4.09 -2.19
Si -6.80 -1.96  2.19
Si  6.80  1.96 -2.19
Si -4.33  6.05  0.00
Si  4.33 -6.05  0.00
Si -1.23  5.93 -4.39
Si  1.23 -5.93  4.39
Si  3.91  5.99 -2.19
Si -3.91 -5.99  2.19
Si  1.45  5.93 -4.39
Si -1.45 -5.93  4.39
Si  4.12 -5.99  2.19
Si -4.12  5.99 -2.19
Si -0.60 -6.16 -4.39
Si  0.60  6.16  4.39
Si -7.01  2.07  2.19
Si  7.01 -2.07 -2.19
Si -0.43 -3.86  6.58
Si  0.43  3.86 -6.58
Si -4.72 -4.15 -4.39
Si  4.72  4.15  4.39
Si  3.27  2.19  6.58
Si -3.27 -2.19 -6.58
Si  3.48 -1.84  6.58
Si -3.48  1.84 -6.58
Si -5.14  3.91 -4.39
Si  5.14 -3.91  4.39
Si  2.08 -6.16 -4.39
Si -2.08  6.16  4.39
Si -0.85  4.21  6.58
Si  0.85 -4.21 -6.58
Si -6.16 -2.13 -4.39
Si  6.16  2.13  4.39
Si  4.54 -6.10 -2.19
Si -4.54  6.10  2.19
Si -2.25  3.86 -6.58
Si  2.25 -3.86  6.58
Si  6.37 -1.90  4.39
Si -6.37  1.90 -4.39
Si -1.83 -4.21 -6.58
Si  1.83  4.21  6.58
Si -8.03  0.00  0.00
Si  8.03  0.00  0.00
Si  0.42 -8.06  0.00
Si -0.42  8.06  0.00
Si  5.57  3.91 -4.39
Si -5.57 -3.91  4.39
Si  4.71  0.17  6.58
Si -4.71 -0.17 -6.58
Si -7.82 -0.06 -2.19
Si  7.82  0.06  2.19
Si  4.55  1.84 -6.58
Si -4.55 -1.84  6.58
Si  3.10  3.86 -6.58
Si -3.10 -3.86  6.58
Si -3.28 -6.16 -4.39
Si  3.28  6.16  4.39
Si -0.20  8.00 -2.19
Si  0.20 -8.00  2.19
Si  3.90 -5.93  4.39
Si -3.90  5.93 -4.39
Si -2.26 -8.06  0.00
Si  2.26  8.06  0.00
Si -4.76  2.19  6.58
Si  4.76 -2.19 -6.58
Si -0.63  8.12  2.19
Si  0.63 -8.12 -2.19
Si  4.13  5.93 -4.39
Si -4.13 -5.93  4.39
Si  7.01  1.90 -4.39
Si -7.01 -1.90  4.39
Si -5.99  4.15  4.39
Si  5.99 -4.15 -4.39
Si -8.24  0.06  2.19
Si  8.24 -0.06 -2.19
Si -3.52  4.21  6.58
Si  3.52 -4.21 -6.58
Si  3.09 -8.06  0.00
Si -3.09  8.06  0.00
Si -2.05 -8.12 -2.19
Si  2.05  8.12  2.19
Si  2.47  8.00 -2.19
Si -2.47 -8.00  2.19
Si  7.22 -2.13 -4.39
Si -7.22  2.13  4.39
Si  7.60  0.12  4.39
Si -7.60 -0.12 -4.39
Si  2.88 -8.00  2.19
Si -2.88  8.00 -2.19
Si  6.38  6.05  0.00
Si -6.38 -6.05  0.00
Si  7.82  4.03  0.00
Si -7.82 -4.03  0.00
Si -0.85  0.23  8.78
Si  0.85 -0.23 -8.78
Si  1.01 -5.87  6.58
Si -1.01  5.87 -6.58
Si -5.99  0.17  6.58
Si  5.99 -0.17 -6.58
Si  7.61  4.09  2.19
Si -7.61 -4.09 -2.19
Si -4.75  6.16  4.39
Si  4.75 -6.16 -4.39
Si  6.17  6.10  2.19
Si -6.17 -6.10 -2.19
Si  1.83  0.23  8.78
Si -1.83 -0.23 -8.78
Si  1.66  5.87 -6.58
Si -1.66 -5.87  6.58
Si -0.59  1.78 -8.78
Si  0.59 -1.78  8.78
Si -4.51 -4.21 -6.58
Si  4.51  4.21  6.58
Si -3.31  8.12  2.19
Si  3.31 -8.12 -2.19
Si  0.39  6.22  6.58
Si -0.39 -6.22 -6.58
Si -0.38 -2.25 -8.78
Si  0.38  2.25  8.78
Si  0.01  7.94 -4.39
Si -0.01 -7.94  4.39
Si -4.92  3.86 -6.58
Si  4.92 -3.86  6.58
Si  5.95  2.19  6.58
Si -5.95 -2.19 -6.58
Si  8.24 -4.03  0.00
Si -8.24  4.03  0.00
Si -6.59 -5.99  2.19
Si  6.59  5.99 -2.19
Si  2.08  1.78 -8.78
Si -2.08 -1.78  8.78
Si  6.16 -1.84  6.58
Si -6.16  1.84 -6.58
Si  8.03 -3.97  2.19
Si -8.03  3.97 -2.19
Si  8.03  3.97 -2.19
Si -8.03 -3.97  2.19
Si -7.00  6.05  0.00
Si  7.00 -6.05  0.00
Si -6.79  5.99 -2.19
Si  6.79 -5.99  2.19
Si  0.84 -8.18 -4.39
Si -0.84  8.18  4.39
Si  2.29 -6.22 -6.58
Si -2.29  6.22  6.58
Si  2.29 -2.25 -8.78
Si -2.29  2.25  8.78
Si -4.93 -8.06  0.00
Si  4.93  8.06  0.00
Si -1.83 -8.18 -4.39
Si  1.83  8.18  4.39
Si -2.67  7.94 -4.39
Si  2.67 -7.94  4.39
Si -3.53  0.23  8.78
Si  3.53 -0.23 -8.78
Si  2.68  7.94 -4.39
Si -2.68 -7.94  4.39
Si  9.26  2.02  0.00
Si -9.26 -2.02  0.00
Si -8.45  0.12  4.39
Si  8.45 -0.12 -4.39
Si  3.27 -1.78  8.78
Si -3.27  1.78 -8.78
Si  9.05  2.07  2.19
Si -9.05 -2.07 -2.19
Si  7.40  4.15  4.39
Si -7.40 -4.15 -4.39
Si  3.06  6.22  6.58
Si -3.06 -6.22 -6.58
Si -3.69  5.87 -6.58
Si  3.69 -5.87  6.58
Si  3.06  2.25  8.78
Si -3.06 -2.25 -8.78
Si  5.78  3.86 -6.58
Si -5.78 -3.86  6.58
Si -0.64 -3.80  8.78
Si  0.64  3.80 -8.78
Si -5.95 -6.16 -4.39
Si  5.95  6.16  4.39
Si  8.45 -4.09 -2.19
Si -8.45  4.09  2.19
Si  4.72  8.12  2.19
Si -4.72 -8.12 -2.19
Si  9.47 -2.02  0.00
Si -9.47  2.02  0.00
Si  7.22 -6.10 -2.19
Si -7.22  6.10  2.19
Si -9.26  1.96 -2.19
Si  9.26 -1.96  2.19
Si  5.15  8.00 -2.19
Si -5.15 -8.00  2.19
Si -7.81  3.91 -4.39
Si  7.81 -3.91  4.39
Si -2.04  3.80 -8.78
Si  2.04 -3.80  8.78
Si  1.06 -4.26 -8.78
Si -1.06  4.26  8.78
Si  4.34  5.87 -6.58
Si -4.34 -5.87  6.58
Si  4.50  0.23  8.78
Si -4.50 -0.23 -8.78
Si -6.58  5.93 -4.39
Si  6.58 -5.93  4.39
Si -1.62 -4.26 -8.78
Si  1.62  4.26  8.78
Si -7.39 -0.17 -6.58
Si  7.39  0.17  6.58
Si  5.77 -8.06  0.00
Si -5.77  8.06  0.00
Si  9.47  1.96 -2.19
Si -9.47 -1.96  2.19
Si -3.52  8.18  4.39
Si  3.52 -8.18 -4.39
Si  7.22  1.84 -6.58
Si -7.22 -1.84  6.58
Si  6.20 -4.21 -6.58
Si -6.20  4.21  6.58
Si  5.56 -8.00  2.19
Si -5.56  8.00 -2.19
Si -6.80 -5.93  4.39
Si  6.80  5.93 -4.39
Si  8.84  2.13  4.39
Si -8.84 -2.13 -4.39
Si  0.82 10.08  0.00
Si -0.82 -10.08  0.00
Si  3.32  3.80 -8.78
Si -3.32 -3.80  8.78
Si  8.24  3.91 -4.39
Si -8.24 -3.91  4.39
Si -9.68  2.07  2.19
Si  9.68 -2.07 -2.19
Si  4.76  1.78 -8.78
Si -4.76 -1.78  8.78
Si  7.43 -2.19 -6.58
Si -7.43  2.19  6.58
Si  9.05 -1.90  4.39
Si -9.05  1.90 -4.39
Si -1.86 10.08  0.00
Si  1.86 -10.08  0.00
Si  0.22  7.89 -6.58
Si -0.22 -7.89  6.58
Si -1.03 -10.02  2.19
Si  1.03 10.02 -2.19
Si  4.51  8.18  4.39
Si -4.51 -8.18 -4.39
Si -5.98  8.12  2.19
Si  5.98 -8.12 -2.19
Si -4.96  6.22  6.58
Si  4.96 -6.22 -6.58
Si -4.97  2.25  8.78
Si  4.97 -2.25 -8.78
Si  0.60 10.13  2.19
Si -0.60 -10.13 -2.19
Si -1.65 10.02 -2.19
Si  1.65 -10.02  2.19
Si  3.73 -4.26 -8.78
Si -3.73  4.26  8.78
Si  5.34 -7.94  4.39
Si -5.34  7.94 -4.39
Si  5.36  7.94 -4.39
Si -5.36 -7.94  4.39
Si -8.66  4.15  4.39
Si  8.66 -4.15 -4.39
Si -0.80  5.81 -8.78
Si  0.80 -5.81  8.78
Si -2.46  7.89 -6.58
Si  2.46 -7.89  6.58
Si  2.07 -10.13 -2.19
Si -2.07 10.13  2.19
Si  1.05 -8.23 -6.58
Si -1.05  8.23  6.58
Si  7.43 -6.16 -4.39
Si -7.43  6.16  4.39
Si -7.18 -4.21 -6.58
Si  7.18  4.21  6.58
Si -4.29 -4.26 -8.78
Si  4.29  4.26  8.78
Si -4.71  3.80 -8.78
Si  4.71 -3.80  8.78
Si  3.49 10.08  0.00
Si -3.49 -10.08  0.00
Si  1.62  8.23  6.58
Si -1.62 -8.23 -6.58
Si  2.90  7.89 -6.58
Si -2.90 -7.89  6.58
Si -1.88 -5.81  8.78
Si  1.88  5.81 -8.78
Si -10.71  0.00  0.00
Si 10.71  0.00  0.00
Si -10.49 -0.06 -2.19
Si 10.49  0.06  2.19
Si  5.74  6.22  6.58
Si -5.74 -6.22 -6.58
Si -5.74 -2.25 -8.78
Si  5.74  2.25  8.78
Si  6.20 -0.23 -8.78
Si -6.20  0.23  8.78
Si  5.95 -1.78  8.78
Si -5.95  1.78 -8.78
Si  7.60 -3.86  6.58
Si -7.60  3.86 -6.58
Si -0.18 -6.28 -8.78
Si  0.18  6.28  8.78
Si -9.69 -1.90  4.39
Si  9.69  1.90 -4.39
Si -3.28 -10.13 -2.19
Si  3.28 10.13  2.19
Si -6.37  5.87 -6.58
Si  6.37 -5.87  6.58
Si  8.67 -0.17 -6.58
Si -8.67  0.17  6.58
Si -9.05 -6.05  0.00
Si  9.05  6.05  0.00
Si  3.71 10.02 -2.19
Si -3.71 -10.02  2.19
Si -1.24 -9.96  4.39
Si  1.24  9.96 -4.39
Si  8.84  6.10  2.19
Si -8.84 -6.10 -2.19
Si -1.44  9.96 -4.39
Si  1.44 -9.96  4.39
Si  1.06 -0.29 -10.97
Si -1.06  0.29 10.97
Si -9.90  2.13  4.39
Si  9.90 -2.13 -4.39
Si  4.54 -10.08  0.00
Si -4.54 10.08  0.00
Si -8.63 -2.19 -6.58
Si  8.63  2.19  6.58
Si  2.50 -6.28 -8.78
Si -2.50  6.28  8.78
Si  7.61  8.06  0.00
Si -7.61 -8.06  0.00
Si  3.48 -5.81  8.78
Si -3.48  5.81 -8.78
Si  1.61  0.29 10.97
Si -1.61 -0.29 -10.97
Si  0.39 10.19  4.39
Si -0.39 -10.19 -4.39
Si  0.38 -1.72 10.97
Si -0.38  1.72 -10.97
Si  4.32 -10.02  2.19
Si -4.32 10.02 -2.19
Si -10.92  0.06  2.19
Si 10.92 -0.06 -2.19
Si  6.19 -8.18 -4.39
Si -6.19  8.18  4.39
Si -2.85 -6.28 -8.78
Si  2.85  6.28  8.78
Si  8.83 -1.84  6.58
Si -8.83  1.84 -6.58
Si -10.28 -0.12 -4.39
Si 10.28  0.12  4.39
Si  3.73 -8.23 -6.58
Si -3.73  8.23  6.58
Si  7.40  8.12  2.19
