500
set: 1583.00  0.00  0.00
Si -1.69  0.44  1.40
Si  0.74  1.91  1.08
Si -1.71  0.89 -1.63
Si  1.40 -0.29  2.12
Si -1.70 -2.22  0.05
Si -1.44  2.56  0.05
Si  0.47 -2.86  1.08
Si  1.20 -0.04 -2.94
Si  2.54  1.94 -0.07
Si -1.23 -1.51 -2.63
Si -3.43  0.09 -0.30
Si  1.87 -2.24 -1.90
Si  2.27 -2.83 -0.07
Si  3.39 -0.82  1.37
Si  2.13  2.53 -1.90
Si -2.44 -1.93  2.40
Si -0.97  0.60 -3.97
Si  4.19  0.09 -0.30
Si -0.96  3.27 -2.63
Si -2.17  2.84  2.40
Si  1.81 -0.88  3.96
Si -4.24 -0.82  1.37
Si -2.16 -0.27  4.08
Si -1.98 -3.89 -1.63
Si -3.51  2.00 -2.66
Si -1.96 -4.33  1.40
Si  3.00 -0.01 -4.09
Si  0.01 -0.91  5.10
Si  1.67  4.49  2.12
Si  4.12  2.00 -2.66
Si -3.78 -2.77 -2.66
Si  3.85 -2.77 -2.66
Si -5.09  1.94 -0.07
Si  3.66  3.96  1.37
Si -2.97 -1.86 -4.32
Si -1.42  5.22  1.40
Si  1.14 -5.07  2.12
Si  3.73  2.05  3.72
Si  0.93 -4.82 -2.94
Si  1.47  4.73 -2.94
Si -3.90  2.05  3.72
Si -3.97  3.96  1.37
Si  3.46 -2.73  3.72
Si -3.17  4.87 -0.30
Si -2.71  2.92 -4.32
Si -1.25 -1.06 -5.65
Si -1.24 -4.17 -3.97
Si  2.08  3.90  3.96
Si -3.70 -4.68 -0.30
Si  5.19 -1.93  2.40
Si -5.36 -2.83 -0.07
Si -1.44  5.67 -1.63
Si  5.94  0.44  1.40
Si  3.93 -4.68 -0.30
Si -4.63 -0.01 -4.09
Si  5.92  0.89 -1.63
Si -4.16 -2.73  3.72
Si  2.93  1.14  5.39
Si -2.15  2.40  5.42
Si  5.92 -2.22  0.05
Si -5.49  2.53 -1.90
Si -1.90  4.51  4.08
Si -2.42 -2.38  5.42
Si  0.28  3.87  5.10
Si  0.94  1.67  6.14
Si -5.76 -2.24 -1.90
Si  2.60  0.58 -5.92
Si  3.12 -5.59  1.37
Si -6.22 -0.29  2.12
Si  5.46  2.84  2.40
Si  4.46  4.87 -0.30
Si  4.66 -1.86 -4.32
Si  6.19  2.56  0.05
Si -0.71  5.38 -3.97
Si -0.50  1.31 -6.65
Si  5.46 -0.27  4.08
Si -0.98  3.71 -5.65
Si  1.01  6.69  1.08
Si  2.73 -4.79 -4.09
Si  0.68 -3.11  6.14
Si -2.43 -5.04  4.08
Si -1.49 -6.29 -2.63
Si  2.66 -3.64  5.39
Si -2.90  0.02  6.42
Si  5.65 -3.89 -1.63
Si -6.43 -0.04 -2.94
Si  1.54 -5.65  3.96
Si  3.27  4.76 -4.09
Si  6.40 -1.51 -2.63
Si -5.82 -0.88  3.96
Si  4.92  2.92 -4.32
Si -6.89  1.91  1.08
Si -4.70  1.14  5.39
Si -1.97 -7.00  0.05
Si  5.67 -4.33  1.40
Si  2.81  6.72 -0.07
Si -4.51 -5.59  1.37
Si -3.05  0.05 -6.68
Si -1.17  7.33  0.05
Si  1.66 -2.00 -6.96
Si  1.60 -7.02 -1.90
Si -0.77 -3.46 -6.65
Si -2.71 -6.71  2.40
Si  2.33 -4.20 -5.92
Si -4.36  4.76 -4.09
Si -0.26 -5.68  5.10
Si  0.20 -7.64  1.08
Si  1.93  2.78 -6.96
Si -5.96  4.49  2.12
Si  6.65  0.60 -3.97
Si -7.16 -2.86  1.08
Si -5.03  0.58 -5.92
Si -5.55  3.90  3.96
Si  2.00 -7.61 -0.07
Si  6.67  3.27 -2.63
Si  5.21 -2.38  5.42
Si  2.40  7.31 -1.90
Si -3.24  6.78 -2.66
Si  4.73  0.02  6.42
Si -4.89 -4.79 -4.09
Si  5.48  2.40  5.42
Si  4.58  0.05 -6.68
Si -0.51 -1.35 -7.99
Si  1.35  1.08  7.98
Si -4.97 -3.64  5.39
Si -1.90  7.62  2.40
Si  6.21  5.22  1.40
Si -1.51 -5.84 -5.65
Si -4.82  6.72 -0.07
Si -6.16  4.73 -2.94
Si  5.20 -5.04  4.08
Si  3.00 -0.77  7.75
Si  5.73  4.51  4.08
Si -2.63  4.80  6.42
Si  2.86  5.35 -5.92
Si -0.69  8.04 -2.63
Si  4.39  6.78 -2.66
Si -6.49 -5.07  2.12
Si  6.18  5.67 -1.63
Si -3.24 -6.64 -4.32
Si -3.63  6.82  3.72
Si  6.38 -1.06 -5.65
Si -3.17 -4.75  6.42
Si  6.39 -4.17 -3.97
Si  3.19  5.91  5.39
Si  8.37  1.91  1.08
Si  4.92 -6.71  2.40
Si  8.10 -2.86  1.08
Si -2.63  1.69  8.10
Si -2.24  0.96 -8.35
Si -2.78  4.82 -6.68
Si -0.24  3.42 -7.99
Si  4.00  6.82  3.72
Si -6.69 -4.82 -2.94
Si  3.58 -7.55 -2.66
Si -3.31 -4.73 -6.68
Si  1.08 -3.70  7.98
Si  3.20 -7.50  3.72
Si -4.04 -7.55 -2.66
Si  1.21  6.44  6.14
Si -5.30 -4.20 -5.92
Si  5.66 -7.00  0.05
Si -0.23  6.09 -6.65
Si  3.46 -1.96 -8.11
Si  4.39 -6.64 -4.32
Si -4.62 -0.77  7.75
Si -2.25 -8.66 -1.63
Si -2.89 -3.09  8.10
Si -4.43  5.91  5.39
Si  4.46 -4.75  6.42
Si -2.44  7.69 -4.32
Si  6.13 -6.29 -2.63
Si -5.23  7.31 -1.90
Si -1.88  7.17  5.42
Si -0.45  1.04  9.13
Si -6.08 -5.65  3.96
Si -7.62 -0.91  5.10
Si -6.68  1.67  6.14
Si  7.64 -0.91  5.10
Si  4.31 -4.73 -6.68
Si  9.03 -0.29  2.12
Si -4.76  5.35 -5.92
Si  8.83 -0.04 -2.94
Si  3.27  4.00  7.75
Si -4.16 -1.96 -8.11
Si -8.85 -1.51 -2.63
Si  3.73  2.81 -8.11
Si -2.69 -7.15  5.42
Si -5.96 -2.00 -6.96
Si -9.06  2.56  0.05
Si -5.70  2.78 -6.96
Si -3.90  2.81 -8.11
Si -9.32  0.44  1.40
Si  4.99  4.80  6.42
Si -6.03 -7.02 -1.90
Si -5.62 -7.61 -0.07
Si -6.62  6.69  1.08
Si -4.43 -7.50  3.72
Si -2.22 -9.11  1.40
Si  6.65  3.71 -5.65
Si -8.60  0.60 -3.97
Si -2.51 -3.81 -8.35
Si -9.34  0.89 -1.63
Si -8.59  3.27 -2.63
Si  4.85  4.82 -6.68
Si -3.70  8.73  1.37
Si -9.33 -2.22  0.05
Si  6.92  5.38 -3.97
Si  5.00  1.69  8.10
Si  3.92  8.73  1.37
Si  1.94  9.26  2.12
Si -4.36  4.00  7.75
Si -7.35  3.87  5.10
Si  6.46  7.33  0.05
Si -6.95 -3.11  6.14
Si  2.20 -1.69  9.41
Si  1.40 -6.77 -6.96
Si  2.35  8.67  3.96
Si  5.72  7.62  2.40
Si  7.13  1.31 -6.65
Si -0.52  1.76 -9.67
Si  4.73 -3.09  8.10
Si -2.88 -0.42  9.44
Si -0.72 -3.73  9.13
Si -1.51 -8.95 -3.97
Si  2.73 -5.55  7.75
Si  9.49 -2.24 -1.90
Si  5.38  0.96 -8.35
Si  0.41 -7.89  6.14
Si  1.62  5.85  7.98
Si  0.55  8.64  5.10
Si  0.67 -9.59 -2.94
Si -2.90  9.64 -0.30
Si -0.78 -6.13 -7.99
Si  1.74  9.51 -2.94
Si  0.87 -9.84  2.12
Si  3.66 -9.46 -0.30
Si -1.15  9.99  1.40
Si -0.79 -3.02 -9.67
Si  6.86 -3.46 -6.65
Si  6.11 -5.84 -5.65
Si  7.91  3.87  5.10
Si  2.46  3.09  9.41
Si -6.28  1.08  7.98
Si -0.71  8.49 -5.65
Si  0.21 -1.16 10.17
Si  5.19  7.69 -4.32
Si  4.94 -7.15  5.42
Si  8.56 -4.82 -2.94
Si -3.97 -9.46 -0.30
Si  9.76  2.53 -1.90
Si -1.63  9.28  4.08
Si  9.44 -0.88  3.96
Si  2.39 -8.42  5.39
Si  9.90 -2.83 -0.07
Si -1.98  5.74 -8.35
Si  5.38 -8.66 -1.63
Si  8.76 -5.07  2.12
Si 10.17  1.94 -0.07
Si -9.80  2.84  2.40
Si -9.60 -3.89 -1.63
Si  3.06 -1.38 -9.95
Si  5.12 -3.81 -8.35
Si  2.20  7.55 -6.96
Si -10.07 -1.93  2.40
Si -9.05  5.22  1.40
Si  9.30  4.49  2.12
Si -8.88 -1.06 -5.65
Si -8.87 -4.17 -3.97
Si  4.75 -0.42  9.44
Si -8.12  1.31 -6.65
Si -9.58 -4.33  1.40
Si -9.79 -0.27  4.08
Si  7.37 -5.68  5.10
Si -2.36  6.46  8.10
Si -1.18 10.44 -1.63
Si -1.03 -8.24 -6.65
Si  9.10  4.73 -2.94
Si  5.74  7.17  5.42
Si  8.57  1.67  6.14
Si  5.40 -9.11  1.40
Si -8.33  5.38 -3.97
Si  2.47 -9.56 -4.09
Si -0.04 -0.64 -10.67
Si -7.42 -7.64  1.08
Si -4.89 -5.55  7.75
Si -2.61  4.35  9.44
Si  4.73  9.64 -0.30
Si  8.30 -3.11  6.14
Si  7.12 -1.35 -7.99
Si  0.48  3.62 10.17
Si -9.07  5.67 -1.63
Si -0.18  5.82  9.13
Si  2.85 -10.37  1.37
Si -5.28  8.67  3.96
Si -0.44 10.15 -3.97
Si  6.94  8.04 -2.63
Si -8.61  3.71 -5.65
Si  2.06 -8.97 -5.92
Si -6.55 -3.70  7.98
Si  3.54  9.54 -4.09
Si -2.70 -9.82  4.08
Si -6.42  6.44  6.14
Si  8.63  6.69  1.08
Si -7.88 -5.68  5.10
Si  7.83 -7.64  1.08
Si -5.43 -1.69  9.41
Si  3.20 -6.74 -8.11
Si  3.33  3.40 -9.95
Si -4.57 -1.38 -9.95
Si -11.06  0.09 -0.30
Si -5.69  9.26  2.12
Si 11.02 -0.82  1.37
Si -3.36  1.98 10.44
Si -4.09  9.54 -4.09
Si -5.16  3.09  9.41
Si -2.58 -1.91 -10.70
Si  9.71  3.90  3.96
Si  1.28 -10.43  3.96
Si -3.15 -5.20  9.44
Si -8.39 -3.46 -6.65
Si  2.39  0.82 -10.99
Si -5.24 -8.42  5.39
Si -9.52  4.51  4.08
Si -2.32  2.87 -10.70
Si -4.30  3.40 -9.95
Si -9.12 -6.29 -2.63
Si 10.63 -0.01 -4.09
Si -3.63 -2.80 10.44
Si  7.38  3.42 -7.99
Si -9.78  2.40  5.42
Si -4.43 -6.74 -8.11
Si  0.23  4.13 -10.67
Si -8.79  7.33  0.05
Si  0.02  8.20 -7.99
Si  4.26  1.98 10.44
Si  9.17 -5.65  3.96
Si -8.14 -1.35 -7.99
Si -4.77 -10.37  1.37
Si -1.76 -11.06 -2.63
Si  4.00 -2.80 10.44
Si -6.23 -6.77 -6.96
Si  5.01  4.35  9.44
Si  6.12 -8.95 -3.97
Si -5.89  9.51 -2.94
Si -10.33  2.92 -4.32
Si -6.01  5.85  7.98
Si  1.93 -6.46  9.41
Si  1.27 11.46  1.08
Si  5.65  5.74 -8.35
Si -10.60 -1.86 -4.32
Si -5.16 -9.56 -4.09
Si -5.43  7.55 -6.96
Si -11.14  2.00 -2.66
Si  5.27  6.46  8.10
Si -0.52 -10.46  5.10
Si  7.18  1.04  9.13
Si -10.04 -2.38  5.42
Si  7.40  6.09 -6.65
Si  0.81 -8.47  7.98
Si  4.48 -5.20  9.44
Si -0.25  6.53 -9.67
Si -3.63  7.59 -8.11
Si  4.93 -9.82  4.08
Si -3.16 -7.86  8.10
Si -7.87  3.42 -7.99
Si  9.23 -7.02 -1.90
Si -2.37  9.57  6.42
Si -0.05 -5.93 10.17
Si  6.00  9.28  4.08
Si  9.29 -2.00 -6.96
Si  4.00  7.59 -8.11
Si 11.82  0.09 -0.30
Si 10.22  0.58 -5.92
Si -10.79  4.87 -0.30
Si -8.32  8.04 -2.63
Si  2.12 -3.95 -10.99
Si -9.60 -7.00  0.05
Si  3.08 11.49 -0.07
Si 10.55  1.14  5.39
Si -7.86  6.09 -6.65
Si -2.51  9.60 -6.68
Si -10.06 -5.04  4.08
Si -11.87 -0.82  1.37
Si -0.30 -5.42 -10.67
Si -2.24 -11.77  0.05
Si  5.04 -1.91 -10.70
Si  6.47  9.99  1.40
Si -3.44 -9.53  6.42
Si 11.09 -2.73  3.72
Si  1.33 -11.79 -1.90
Si  2.79 -6.15 -9.95
Si -11.40 -2.77 -2.66
Si 11.28  3.96  1.37
Si  6.91 -3.73  9.13
Si  8.98  1.08  7.98
Si  2.54  1.18 11.77
Si -2.97 -11.48  2.40
Si 11.48 -2.77 -2.66
Si  0.22  1.47 -12.02
Si -5.57 -8.97 -5.92
Si 10.36 -4.79 -4.09
Si -6.76 -9.84  2.12
Si 11.36  2.05  3.72
Si  7.11  1.76 -9.67
Si  4.47 -7.86  8.10
Si -0.90 12.11  0.05
Si  0.62 -1.74 12.00
Si  3.13 10.13 -5.92
Si  9.56  2.78 -6.96
Si -3.58 -9.50 -6.68
Si -1.78 -10.62 -5.65
Si 10.29 -3.64  5.39
Si  6.85 -6.13 -7.99
Si 10.75 -5.59  1.37
Si -5.24  0.82 -10.99
Si 11.75  2.00 -2.66
Si -6.96 -9.59 -2.94
Si -2.97 11.55 -2.66
Si  6.84 -3.02 -9.67
Si  3.54  8.78  7.75
Si  4.19 -9.53  6.42
Si -9.14 -5.84 -5.65
Si -8.08  1.04  9.13
Si -11.33 -4.68 -0.30
Si  9.63 -7.61 -0.07
Si -11.52  2.05  3.72
Si -7.08  8.64  5.10
Si  5.31  2.87 -10.70
Si -2.78 -8.59 -8.35
Si  4.04 -9.50 -6.68
Si  6.92  8.49 -5.65
Si  9.96 -4.20 -5.92
Si -11.60  3.96  1.37
Si -10.53  0.02  6.42
Si -7.22 -7.89  6.14
Si -4.55 11.49 -0.07
Si  8.71 -3.70  7.98
Si  6.45 10.44 -1.63
Si -4.09  8.78  7.75
Si  0.89  3.03 12.00
Si 10.44  6.72 -0.07
Si -9.53  7.62  2.40
Si  3.46 10.69  5.39
Si -0.06 -12.41  1.08
Si -0.05 -3.31 -12.02
Si -1.05 -7.79 -9.67
Si 11.55 -4.68 -0.30
Si  6.59 -8.24 -6.65
Si  1.74 -12.38 -0.07
Si  2.27 -3.59 11.77
Si -0.99 -8.51  9.13
Si  2.67 12.08 -1.90
Si -1.78 -0.99 -12.37
Si  8.84  6.44  6.14
Si -10.33 -6.71  2.40
Si 10.03  7.31 -1.90
Si  2.73  7.87  9.41
Si -4.50 10.13 -5.92
Si 10.90  4.76 -4.09
Si -10.68  0.05 -6.68
Si  2.66  5.60 -10.99
Si  4.65 -11.48  2.40
Si -3.35 -1.13 12.12
Si -7.41 -1.16 10.17
Si -3.36 11.60  3.72
Si -3.44  0.86 -12.14
Si -4.84 -6.15 -9.95
Si -11.79 -2.73  3.72
Si  5.26  9.57  6.42
Si -4.17 10.69  5.39
Si -3.51 -11.41 -4.32
Si -1.64 12.39  2.40
Si  4.65 11.55 -2.66
Si  0.04 10.86 -6.65
Si -5.70 -6.46  9.41
Si  5.12  9.60 -6.68
Si -8.15  1.76 -9.67
Si  5.87 -11.06 -2.63
Si -3.10  6.75 10.44
Si  8.04 -7.89  6.14
Si -6.35 -10.43  3.96
Si -12.71  1.94 -0.07
Si  4.19  0.86 -12.14
Si  1.48 11.22  6.14
Si -5.09  1.18 11.77
Si  4.12 -11.41 -4.32
Si  7.84 -1.16 10.17
Si  4.27 -1.13 12.12
Si  4.27 11.60  3.72
Si -5.50 -3.95 -10.99
Si -12.25 -0.01 -4.09
Si -8.35 -3.73  9.13
Si  4.85 -8.59 -8.35
Si -2.85 -6.68 -10.70
Si  8.17  8.64  5.10
Si -7.15  3.62 10.17
Si  5.39 -11.77  0.05
Si -9.87  0.96 -8.35
Si  8.29 -9.59 -2.94
