500
set: 59.00  0.00  0.00
Si  0.00  0.00  0.00
Si -0.40  0.17 -2.47
Si  0.40 -0.17  2.47
Si  1.41  2.16  0.00
Si -1.41 -2.16  0.00
Si  1.46 -2.16  0.00
Si -1.46  2.16  0.00
Si -2.87  0.00  0.00
Si  2.87  0.00  0.00
Si  1.06 -1.99 -2.47
Si -1.06  1.99  2.47
Si -2.47 -0.17  2.47
Si  2.47  0.17 -2.47
Si -1.00 -2.32  2.47
Si  1.00  2.32 -2.47
Si -1.80 -1.99 -2.47
Si  1.80  1.99  2.47
Si -1.86  2.32 -2.47
Si  1.86 -2.32  2.47
Si  3.27 -0.17  2.47
Si -3.27  0.17 -2.47
Si -0.06  4.31  0.00
Si  0.06 -4.31  0.00
Si  4.27  2.16  0.00
Si -4.27 -2.16  0.00
Si -4.33  2.16  0.00
Si  4.33 -2.16  0.00
Si -0.34 -4.14 -2.47
Si  0.34  4.14  2.47
Si -0.80  0.33 -4.94
Si  0.80 -0.33  4.94
Si  3.93 -1.99 -2.47
Si -3.93  1.99  2.47
Si  0.46 -4.48  2.47
Si -0.46  4.48 -2.47
Si  2.81  4.31  0.00
Si -2.81 -4.31  0.00
Si  3.87  2.32 -2.47
Si -3.87 -2.32  2.47
Si -2.92  4.31  0.00
Si  2.92 -4.31  0.00
Si -0.66  1.82  4.94
Si  0.66 -1.82 -4.94
Si  2.07  0.33 -4.94
Si -2.07 -0.33  4.94
Si -2.52  4.14  2.47
Si  2.52 -4.14 -2.47
Si -0.60 -2.49  4.94
Si  0.60  2.49 -4.94
Si  4.67  1.99  2.47
Si -4.67 -1.99 -2.47
Si -2.41 -4.48  2.47
Si  2.41  4.48 -2.47
Si -2.20 -1.82 -4.94
Si  2.20  1.82  4.94
Si  5.73  0.00  0.00
Si -5.73  0.00  0.00
Si -3.21 -4.14 -2.47
Si  3.21  4.14  2.47
Si -4.73  2.32 -2.47
Si  4.73 -2.32  2.47
Si  5.33  0.17 -2.47
Si -5.33 -0.17  2.47
Si -2.26  2.49 -4.94
Si  2.26 -2.49  4.94
Si -3.32  4.48 -2.47
Si  3.32 -4.48  2.47
Si -3.67  0.33 -4.94
Si  3.67 -0.33  4.94
Si  3.53 -1.82 -4.94
Si -3.53  1.82  4.94
Si  0.74  3.98  4.94
Si -0.74 -3.98 -4.94
Si -3.47 -2.49  4.94
Si  3.47  2.49 -4.94
Si -1.35 -6.47  0.00
Si  1.35  6.47  0.00
Si  6.13 -0.17  2.47
Si -6.13  0.17 -2.47
Si  1.52 -6.47  0.00
Si -1.52  6.47  0.00
Si  2.12 -3.98 -4.94
Si -2.12  3.98  4.94
Si  0.86 -4.64  4.94
Si -0.86  4.64 -4.94
Si  1.12 -6.30 -2.47
Si -1.12  6.30  2.47
Si -1.75 -6.30 -2.47
Si  1.75  6.30  2.47
Si  4.93  0.33 -4.94
Si -4.93 -0.33  4.94
Si  2.01  4.64 -4.94
Si -2.01 -4.64  4.94
Si  5.67  4.31  0.00
Si -5.67 -4.31  0.00
Si -0.95 -6.63  2.47
Si  0.95  6.63 -2.47
Si -5.79  4.31  0.00
Si  5.79 -4.31  0.00
Si -5.39  4.14  2.47
Si  5.39 -4.14 -2.47
Si -3.61 -3.98 -4.94
Si  3.61  3.98  4.94
Si  5.07  1.82  4.94
Si -5.07 -1.82 -4.94
Si  1.92 -6.63  2.47
Si -1.92  6.63 -2.47
Si  5.28  4.48 -2.47
Si -5.28 -4.48  2.47
Si -7.14 -2.16  0.00
Si  7.14  2.16  0.00
Si -6.79  1.99  2.47
Si  6.79 -1.99 -2.47
Si  7.19 -2.16  0.00
Si -7.19  2.16  0.00
Si  1.20 -0.50  7.41
Si -1.20  0.50 -7.41
Si -6.74 -2.32  2.47
Si  6.74  2.32 -2.47
Si -5.13  2.49 -4.94
Si  5.13 -2.49  4.94
Si  0.26 -1.65 -7.41
Si -0.26  1.65  7.41
Si -1.67 -0.50  7.41
Si  1.67  0.50 -7.41
Si  4.21  6.47  0.00
Si -4.21 -6.47  0.00
Si -3.72  4.64 -4.94
Si  3.72 -4.64  4.94
Si -6.08 -4.14 -2.47
Si  6.08  4.14  2.47
Si -4.38  6.47  0.00
Si  4.38 -6.47  0.00
Si  3.98 -6.30 -2.47
Si -3.98  6.30  2.47
Si  0.21  2.66 -7.41
Si -0.21 -2.66  7.41
Si  0.72 -6.13 -4.94
Si -0.72  6.13  4.94
Si -2.60 -1.65 -7.41
Si  2.60  1.65  7.41
Si -6.19  4.48 -2.47
Si  6.19 -4.48  2.47
Si  3.81  6.63 -2.47
Si -3.81 -6.63  2.47
Si -4.99  3.98  4.94
Si  4.99 -3.98 -4.94
Si -2.15 -6.13 -4.94
Si  2.15  6.13  4.94
Si -7.54 -1.99 -2.47
Si  7.54  1.99  2.47
Si -4.61 -6.30 -2.47
Si  4.61  6.30  2.47
Si  6.53 -0.33  4.94
Si -6.53  0.33 -4.94
Si  3.13 -1.65 -7.41
Si -3.13  1.65  7.41
Si  6.39 -1.82 -4.94
Si -6.39  1.82  4.94
Si  2.66 -2.66  7.41
Si -2.66  2.66 -7.41
Si  7.59 -2.32  2.47
Si -7.59  2.32 -2.47
Si -4.88 -4.64  4.94
Si  4.88  4.64 -4.94
Si -1.14 -3.81 -7.41
Si  1.14  3.81  7.41
Si  6.34  2.49 -4.94
Si -6.34 -2.49  4.94
Si  0.55  6.80 -4.94
Si -0.55 -6.80  4.94
Si  3.07  2.66 -7.41
Si -3.07 -2.66  7.41
Si  4.07 -0.50  7.41
Si -4.07  0.50 -7.41
Si -1.72  3.81  7.41
Si  1.72 -3.81 -7.41
Si -4.78  6.63 -2.47
Si  4.78 -6.63  2.47
Si -8.20 -0.17  2.47
Si  8.20  0.17 -2.47
Si -8.60  0.00  0.00
Si  8.60  0.00  0.00
Si  0.11 -8.62  0.00
Si -0.11  8.62  0.00
Si  3.58 -6.13 -4.94
Si -3.58  6.13  4.94
Si  4.53  0.50 -7.41
Si -4.53 -0.50  7.41
Si -2.32  6.80 -4.94
Si  2.32 -6.80  4.94
Si -0.29 -8.46 -2.47
Si  0.29  8.46  2.47
Si  1.26 -4.81  7.41
Si -1.26  4.81 -7.41
Si  1.61  4.81 -7.41
Si -1.61 -4.81  7.41
Si  2.75  8.62  0.00
Si -2.75 -8.62  0.00
Si  6.47  3.98  4.94
Si -6.47 -3.98 -4.94
Si  3.41  6.80 -4.94
Si -3.41 -6.80  4.94
Si  2.98 -8.62  0.00
Si -2.98  8.62  0.00
Si  0.51 -8.79  2.47
Si -0.51  8.79 -2.47
Si  2.58 -8.46 -2.47
Si -2.58  8.46  2.47
Si  7.80  0.33 -4.94
Si -7.80 -0.33  4.94
Si  4.01  3.81  7.41
Si -4.01 -3.81 -7.41
Si  9.00 -0.17  2.47
Si -9.00  0.17 -2.47
Si -5.01 -6.13 -4.94
Si  5.01  6.13  4.94
Si -3.15 -8.46 -2.47
Si  3.15  8.46  2.47
Si -5.47 -1.65 -7.41
Si  5.47  1.65  7.41
Si -2.35 -8.79  2.47
Si  2.35  8.79 -2.47
Si -6.59  4.64 -4.94
Si  6.59 -4.64  4.94
Si -4.59  3.81  7.41
Si  4.59 -3.81 -7.41
Si  0.32 -5.96 -7.41
Si -0.32  5.96  7.41
Si -7.94 -1.82 -4.94
Si  7.94  1.82  4.94
Si  8.26 -4.14 -2.47
Si -8.26  4.14  2.47
Si -8.54 -4.31  0.00
Si  8.54  4.31  0.00
Si -7.08 -6.47  0.00
Si  7.08  6.47  0.00
Si  8.14  4.48 -2.47
Si -8.14 -4.48  2.47
Si  5.53 -2.66  7.41
Si -5.53  2.66 -7.41
Si -6.85  6.30  2.47
Si  6.85 -6.30 -2.47
Si  8.65 -4.31  0.00
Si -8.65  4.31  0.00
Si  0.69  8.29  4.94
Si -0.69 -8.29 -4.94
Si  6.00 -1.65 -7.41
Si -6.00  1.65  7.41
Si  7.25 -6.47  0.00
Si -7.25  6.47  0.00
Si  7.99 -2.49  4.94
Si -7.99  2.49 -4.94
Si  6.68  6.63 -2.47
Si -6.68 -6.63  2.47
Si -3.38  8.79 -2.47
Si  3.38 -8.79  2.47
Si -4.12  4.81 -7.41
Si  4.12 -4.81  7.41
Si  2.55  5.96  7.41
Si -2.55 -5.96 -7.41
Si -5.94 -2.66  7.41
Si  5.94  2.66 -7.41
Si  5.18 -6.80  4.94
Si -5.18  6.80 -4.94
Si  2.18 -8.29 -4.94
Si -2.18  8.29  4.94
Si -4.48 -4.81  7.41
Si  4.48  4.81 -7.41
Si  1.27  0.67 -9.88
Si -1.27 -0.67  9.88
Si  0.14  1.49  9.88
Si -0.14 -1.49 -9.88
Si  1.60 -0.67  9.88
Si -1.60  0.67 -9.88
Si  3.19 -5.96 -7.41
Si -3.19  5.96  7.41
Si -7.48 -6.30 -2.47
Si  7.48  6.30  2.47
Si  7.86 -3.98 -4.94
Si -7.86  3.98  4.94
Si  6.93 -0.50  7.41
Si -6.93  0.50 -7.41
Si -8.94 -4.14 -2.47
Si  8.94  4.14  2.47
Si  9.66 -1.99 -2.47
Si -9.66  1.99  2.47
Si -0.15 -6.97  7.41
Si  0.15  6.97 -7.41
Si -6.45  6.13  4.94
Si  6.45 -6.13 -4.94
Si -9.60 -2.32  2.47
Si  9.60  2.32 -2.47
Si 10.00  2.16  0.00
Si -10.00 -2.16  0.00
Si  0.91 -8.96  4.94
Si -0.91  8.96 -4.94
Si  0.19 -2.82  9.88
Si -0.19  2.82 -9.88
Si  3.55  8.29  4.94
Si -3.55 -8.29 -4.94
Si 10.06 -2.16  0.00
Si -10.06  2.16  0.00
Si  5.62  8.62  0.00
Si -5.62 -8.62  0.00
Si  7.74  4.64 -4.94
Si -7.74 -4.64  4.94
Si  2.73 -1.49 -9.88
Si -2.73  1.49  9.88
Si -5.45  8.46  2.47
Si  5.45 -8.46 -2.47
Si  9.05 -4.48  2.47
Si -9.05  4.48 -2.47
Si  1.95  8.96 -4.94
Si -1.95 -8.96  4.94
Si -5.85  8.62  0.00
Si  5.85 -8.62  0.00
Si -7.65  6.63 -2.47
Si  7.65 -6.63  2.47
Si -3.00 -1.49 -9.88
Si  3.00  1.49  9.88
Si  7.40  0.50 -7.41
Si -7.40 -0.50  7.41
Si  6.28  6.80 -4.94
Si -6.28 -6.80  4.94
Si -5.22 -8.79  2.47
Si  5.22  8.79 -2.47
Si -2.72  6.97 -7.41
Si  2.72 -6.97  7.41
Si -3.02 -6.97  7.41
Si  3.02  6.97 -7.41
Si -1.32  3.64  9.88
Si  1.32 -3.64 -9.88
Si -2.67 -2.82  9.88
Si  2.67  2.82 -9.88
Si -9.40  0.33 -4.94
Si  9.40 -0.33  4.94
Si -1.54 -3.64 -9.88
Si  1.54  3.64  9.88
Si -9.26  1.82  4.94
Si  9.26 -1.82 -4.94
Si -6.02 -8.46 -2.47
Si  6.02  8.46  2.47
Si -3.06  2.82 -9.88
Si  3.06 -2.82  9.88
Si  4.13  0.67 -9.88
Si -4.13 -0.67  9.88
Si  9.20  2.49 -4.94
Si -9.20 -2.49  4.94
Si  6.87  3.81  7.41
Si -6.87 -3.81 -7.41
Si  1.29 10.78  0.00
Si -1.29 -10.78  0.00
Si -4.46  0.67 -9.88
Si  4.46 -0.67  9.88
Si -10.40 -1.99 -2.47
Si 10.40  1.99  2.47
Si -5.05  8.29  4.94
Si  5.05 -8.29 -4.94
Si -1.58 10.78  0.00
Si  1.58 -10.78  0.00
Si -3.78  8.96 -4.94
Si  3.78 -8.96  4.94
Si -5.41 -5.96 -7.41
Si  5.41  5.96  7.41
Si -1.18 10.61  2.47
Si  1.18 -10.61 -2.47
Si -10.46  2.32 -2.47
Si 10.46 -2.32  2.47
Si -1.69 -10.61 -2.47
Si  1.69 10.61  2.47
Si  1.08  8.12  7.41
Si -1.08 -8.12 -7.41
Si  6.25 -8.79  2.47
Si -6.25  8.79 -2.47
Si -1.21 -4.98  9.88
Si  1.21  4.98 -9.88
Si  1.78 -8.12 -7.41
Si -1.78  8.12  7.41
Si  7.88  6.13  4.94
Si -7.88 -6.13 -4.94
Si -7.46  3.81  7.41
Si  7.46 -3.81 -7.41
Si -1.66  4.98 -9.88
Si  1.66 -4.98  9.88
Si -0.89 -10.95  2.47
Si  0.89 10.95 -2.47
Si -6.99  4.81 -7.41
Si  6.99 -4.81  7.41
Si  6.05 -5.96 -7.41
Si -6.05  5.96  7.41
Si  8.34  1.65  7.41
Si -8.34 -1.65 -7.41
Si  9.34  3.98  4.94
Si -9.34 -3.98 -4.94
Si  4.82  8.96 -4.94
Si -4.82 -8.96  4.94
Si  4.19 -3.64 -9.88
Si -4.19  3.64  9.88
Si -11.06 -0.17  2.47
Si 11.06  0.17 -2.47
Si -1.98 10.95 -2.47
Si  1.98 -10.95  2.47
Si  4.41  3.64  9.88
Si -4.41 -3.64 -9.88
Si -5.59  1.49  9.88
Si  5.59 -1.49 -9.88
Si -0.08 -5.80 -9.88
Si  0.08  5.80  9.88
Si -11.46  0.00  0.00
Si 11.46  0.00  0.00
Si -7.34 -4.81  7.41
Si  7.34  4.81 -7.41
Si -8.39  2.66 -7.41
Si  8.39 -2.66  7.41
Si  4.16 10.78  0.00
Si -4.16 -10.78  0.00
Si -0.78 10.44  4.94
Si  0.78 -10.44 -4.94
Si -5.87 -1.49 -9.88
Si  5.87  1.49  9.88
Si  6.42  8.29  4.94
Si -6.42 -8.29 -4.94
Si -5.58  6.97 -7.41
Si  5.58 -6.97  7.41
Si  4.04 -10.61 -2.47
Si -4.04 10.61  2.47
Si  9.45 -4.64  4.94
Si -9.45  4.64 -4.94
Si  8.05 -6.80  4.94
Si -8.05  6.80 -4.94
Si  4.44 -10.78  0.00
Si -4.44 10.78  0.00
Si  8.86 -1.65 -7.41
Si -8.86  1.65  7.41
Si -5.54 -2.82  9.88
Si  5.54  2.82 -9.88
Si  3.95  8.12  7.41
Si -3.95 -8.12 -7.41
Si  2.09 10.44  4.94
Si -2.09 -10.44 -4.94
Si -5.88 -6.97  7.41
Si  5.88  6.97 -7.41
Si 10.66  0.33 -4.94
Si -10.66 -0.33  4.94
Si -2.79  5.80  9.88
Si  2.79 -5.80 -9.88
Si  4.08  4.98 -9.88
Si -4.08 -4.98  9.88
Si -4.56 -10.61 -2.47
Si  4.56 10.61  2.47
Si  8.80  2.66 -7.41
Si -8.80 -2.66  7.41
Si -1.31  9.12 -7.41
Si  1.31 -9.12  7.41
Si  2.95  5.80  9.88
Si -2.95 -5.80 -9.88
Si -3.76 -10.95  2.47
Si  3.76 10.95 -2.47
Si -9.72  6.30  2.47
Si  9.72 -6.30 -2.47
Si -1.55 -9.12  7.41
Si  1.55  9.12 -7.41
Si  5.93 -2.82  9.88
Si -5.93  2.82 -9.88
Si  9.95  6.47  0.00
Si -9.95 -6.47  0.00
Si -9.55 -6.63  2.47
Si  9.55  6.63 -2.47
Si -4.65  8.12  7.41
Si  4.65 -8.12 -7.41
Si -4.52  4.98 -9.88
Si  4.52 -4.98  9.88
Si 10.12 -6.47  0.00
Si -10.12  6.47  0.00
Si -10.80 -1.82 -4.94
Si 10.80  1.82  4.94
Si -8.48 -8.62  0.00
Si  8.48  8.62  0.00
Si  8.31 -8.46 -2.47
Si -8.31  8.46  2.47
Si -3.64 10.44  4.94
Si  3.64 -10.44 -4.94
Si 11.86 -0.17  2.47
Si -11.86  0.17 -2.47
Si 11.12 -4.14 -2.47
Si -11.12  4.14  2.47
Si -7.00 -0.67  9.88
Si  7.00  0.67 -9.88
Si 11.01  4.48 -2.47
Si -11.01 -4.48  2.47
Si  0.49 11.11 -4.94
Si -0.49 -11.11  4.94
Si -10.86  2.49 -4.94
Si 10.86 -2.49  4.94
Si  0.25 -7.13  9.88
Si -0.25  7.13 -9.88
Si -11.41 -4.31  0.00
Si 11.41  4.31  0.00
Si  8.08  8.79 -2.47
