500
set: 957.00  0.00  0.00
Si -0.42  1.22 -0.86
Si  0.42 -1.23  0.86
Si  1.40  1.23  0.84
Si -1.39 -1.24 -0.85
Si  2.25 -1.22 -0.86
Si -2.24  1.25  0.88
Si -0.93  0.01  2.56
Si  0.89 -0.00 -2.57
Si  3.21  1.19 -0.84
Si -3.20 -1.24  0.84
Si  0.08  2.47  2.57
Si -0.06 -2.46 -2.58
Si -2.73  0.03 -2.56
Si  2.76 -0.00  2.57
Si  0.55  3.72 -0.85
Si -0.54 -3.73  0.84
Si  1.74 -2.48  2.57
Si -1.77  2.47 -2.57
Si -1.26  3.72  0.84
Si -1.86 -2.49  2.57
Si  1.88  2.49 -2.58
Si  1.27 -3.76 -0.84
Si  0.91  0.02  4.23
Si -0.89 -0.01 -4.24
Si -4.10  1.19 -0.84
Si  4.11 -1.24  0.84
Si  2.36  3.73  0.86
Si -2.36 -3.74 -0.86
Si -0.08 -2.48  4.23
Si  0.04  2.49 -4.24
Si  3.12 -3.70  0.88
Si -3.12  3.74 -0.86
Si  2.71 -0.01 -4.23
Si -2.74 -0.01  4.24
Si  3.60 -2.49 -2.57
Si -3.63  2.47  2.57
Si  3.67  2.47  2.57
Si -3.71 -2.49 -2.57
Si  1.79 -2.48 -4.23
Si -4.55 -0.00  2.57
Si -1.76  2.51  4.24
Si  4.57  0.03 -2.56
Si  1.86  2.48  4.23
Si -1.90 -2.47 -4.24
Si -5.06 -1.22 -0.86
Si  5.06  1.25  0.88
Si  0.82 -4.96  2.57
Si -4.18 -3.70  0.88
Si -0.79  4.99 -2.56
Si  4.19  3.74 -0.86
Si  1.01  4.97  2.56
Si -1.05 -4.96 -2.57
Si -3.58  2.48 -4.23
Si  3.60 -2.45  4.24
Si -5.90  1.23  0.84
Si -0.42  1.24  5.95
Si  5.92 -1.24 -0.85
Si  0.43 -1.25 -5.96
Si -3.70 -2.45  4.24
Si  2.63 -4.93 -2.56
Si  3.73  2.48 -4.23
Si -2.61  4.96  2.57
Si -1.39 -1.26  5.94
Si  4.57 -0.01  4.24
Si  1.39  1.25 -5.94
Si  0.31 -6.18 -0.86
Si -4.95  3.73  0.86
Si -4.60 -0.01 -4.23
Si  4.95 -3.74 -0.86
Si  2.83  4.96 -2.57
Si -2.87 -4.95  2.56
Si -0.30  6.21  0.88
Si  1.52  6.18 -0.86
Si -1.52 -6.19  0.86
Si -2.23  1.24 -5.96
Si  2.24 -1.28  5.96
Si -5.43  2.49 -2.58
Si  5.45 -2.49  2.57
Si -0.80  4.95  4.24
Si  0.77 -4.96 -4.23
Si -2.16  6.15 -0.84
Si  5.54  2.47 -2.57
Si -1.03 -4.94  4.23
Si  1.05  4.95 -4.24
Si -5.57 -2.48  2.57
Si  2.17 -6.20  0.84
Si -3.21 -1.23 -5.93
Si  6.38  0.01  2.56
Si  3.22  1.26  5.95
Si -6.41 -0.00 -2.57
Si  0.55  3.70  5.94
Si -0.55 -3.71 -5.94
Si  2.63 -4.96  4.24
Si -2.66  4.95 -4.23
Si  6.89  1.22 -0.86
Si -6.89 -1.23  0.86
Si  3.34  6.19  0.84
Si -3.33 -6.19 -0.85
Si -2.83 -4.97 -4.24
Si  1.28 -3.70  5.95
Si -1.27  3.73 -5.93
Si  2.85  4.97  4.23
Si  4.44 -4.95  2.56
Si  6.05  3.72  0.84
Si -4.47  4.96 -2.57
Si -6.04 -3.76 -0.84
Si -4.67 -4.93 -2.56
Si  4.70  4.96  2.57
Si  5.41 -2.47 -4.24
Si  4.09 -1.23 -5.93
Si -5.44  2.48  4.23
Si -4.09  1.26  5.95
Si -5.52 -2.48 -4.23
Si -3.96  6.19  0.84
Si -2.36 -3.72  5.95
Si  3.98 -6.19 -0.85
Si  2.37  3.71 -5.96
Si  5.54  2.51  4.24
Si -6.40  0.02  4.23
Si -3.13  3.67  5.96
Si  6.42 -0.01 -4.24
Si  3.14 -3.72 -5.96
Si  0.43 -1.25  7.64
Si -6.76  3.72 -0.85
Si -0.42  1.24 -7.66
Si  6.77 -3.73  0.84
Si  0.17  7.43 -2.57
Si -7.72  1.22 -0.86
Si  7.72 -1.23  0.86
Si -0.20 -7.44  2.57
Si  1.39  1.25  7.66
Si -1.39 -1.26 -7.67
Si -4.46  4.97  4.23
Si  4.48 -4.97 -4.24
Si  5.08  1.24 -5.96
Si -5.07 -1.28  5.96
Si  4.64  4.95 -4.23
Si -4.68 -4.96  4.24
Si -1.69  7.43  2.57
Si  1.66 -7.44 -2.57
Si -7.23  2.47  2.57
Si -2.23  1.24  7.65
Si  5.15  6.15 -0.84
Si  2.24 -1.28 -7.64
Si  7.25 -2.46 -2.58
Si -5.13 -6.20  0.84
Si -2.00 -7.42 -2.58
Si  2.02  7.42  2.57
Si  4.18  3.67  5.96
Si -4.17 -3.72 -5.96
Si -7.37 -2.46 -2.58
Si  7.38  2.47  2.57
Si  6.26 -4.96 -2.57
Si  3.22  1.26 -7.66
Si -3.21 -1.23  7.68
Si -6.29  4.97  2.56
Si  5.92 -1.26  5.94
Si -5.92  1.25 -5.94
Si -5.79  6.18 -0.86
Si  5.79 -6.19  0.86
Si  0.55  3.70 -7.67
Si -0.55 -3.71  7.66
Si -0.15 -7.44 -4.23
Si -6.49 -4.96  2.57
Si -4.93  3.71 -5.96
Si  4.95 -3.72  5.95
Si  0.18  7.46  4.24
Si  6.51  4.99 -2.56
Si  8.20 -0.00 -2.57
Si -0.29  6.20 -5.96
Si  1.28 -3.70 -7.66
Si -3.49  7.45 -2.58
Si  3.51 -7.45  2.57
Si -8.23  0.01  2.56
Si -1.27  3.73  7.68
Si  0.30 -6.24  5.96
Si  1.66 -7.41  4.24
Si -1.64  7.43 -4.23
Si -7.84 -3.73  0.84
Si  1.52  6.20  5.95
Si  7.85  3.72 -0.85
Si  7.23 -2.48  4.23
Si -1.51 -6.20 -5.96
Si  0.68  8.67  0.84
Si -3.80 -7.45  2.57
Si  3.82  7.45 -2.58
Si -7.26  2.49 -4.24
Si -4.09  1.26 -7.66
Si  1.18 -8.66  0.88
Si -0.67 -8.72 -0.84
Si  4.09 -1.23  7.68
Si -2.02 -7.44  4.23
Si  1.98  7.45 -4.24
Si -1.18  8.69 -0.86
Si  2.37  3.71  7.64
Si -8.70 -1.24 -0.85
Si -2.36 -3.72 -7.66
Si  2.15 -6.18 -5.93
Si  8.71  1.23  0.84
Si  7.35  2.49 -4.24
Si -7.38 -2.48  4.23
Si -2.15  6.21  5.95
Si -6.26  4.95 -4.24
Si  6.28 -4.94  4.23
Si -3.13  3.67 -7.64
Si  3.14 -3.72  7.65
Si  2.49  8.68 -0.85
Si -2.48 -8.68  0.84
Si -6.87 -1.25 -5.96
Si  6.88  1.24  5.95
Si  6.50  4.95  4.24
Si  3.33  6.20 -5.94
Si -3.33 -6.21  5.94
Si -8.20 -0.01 -4.24
Si  3.47 -7.42 -4.24
Si -3.01  8.68  0.86
Si -6.54 -4.96 -4.23
Si  8.21  0.02  4.23
Si  3.01 -8.69 -0.86
Si -6.03 -3.70  5.95
Si -3.50  7.43  4.23
Si  6.03  3.73 -5.93
Si -5.07 -1.28 -7.64
Si  5.08  1.24  7.65
Si  3.80  7.43  4.23
Si -3.83 -7.42 -4.24
Si -8.56  3.72  0.84
Si -7.00 -6.18 -0.86
Si  7.00  6.21  0.88
Si  8.57 -3.76 -0.84
Si -0.89 -0.01  9.37
Si  0.91  0.01 -9.38
Si  4.18  3.67 -7.64
Si -3.98  6.20 -5.94
Si -4.17 -3.72  7.65
Si -5.29  7.42  2.57
Si  3.98 -6.21  5.94
Si  5.31 -7.42 -2.58
Si  5.61  7.43  2.57
Si  9.55 -1.22 -0.86
Si -9.55  1.25  0.88
Si -5.65 -7.44 -2.57
Si  0.04  2.49  9.36
Si -0.08 -2.48 -9.38
Si  9.04 -2.48  2.57
Si  4.30  8.68  0.86
Si -6.76  3.70  5.94
Si  6.76 -3.71 -5.94
Si -4.30 -8.69 -0.86
Si -9.08  2.47 -2.57
Si  2.70 -0.01  9.37
Si -5.92  1.25  7.66
Si -2.74 -0.01 -9.37
Si  5.92 -1.26 -7.67
Si -4.93  3.71  7.64
Si -7.73  1.24  5.95
Si -9.17 -2.49  2.57
Si  7.61 -6.18 -0.86
Si  4.95 -3.72 -7.66
Si -0.29  6.20  7.65
Si  7.74 -1.25 -5.96
Si -8.10  4.99 -2.56
Si -1.76  2.51 -9.37
Si  8.12 -4.96  2.57
Si  9.18  2.49 -2.58
Si -7.61  6.21  0.88
Si  1.79 -2.48  9.38
Si -1.90 -2.47  9.36
Si  0.30 -6.24 -7.64
Si  1.86  2.48 -9.38
Si -1.51 -6.20  7.64
Si -4.82  8.68 -0.85
Si  1.52  6.20 -7.66
Si  4.83 -8.68  0.84
Si -5.15 -6.18 -5.93
Si  8.32  4.97  2.56
Si  5.16  6.21  5.95
Si -8.35 -4.96 -2.57
Si  5.29 -7.44  4.23
Si  2.15 -6.18  7.68
Si -5.32  7.45 -4.24
Si -2.15  6.21 -7.66
Si -5.64 -7.41  4.24
Si  0.69 -9.88 -2.56
Si  5.67  7.43 -4.23
Si -0.67  9.91  2.57
Si -1.12 -9.91  2.57
Si -9.07  2.51  4.24
Si  9.09 -2.48 -4.23
Si  1.15  9.94 -2.56
Si  3.60 -2.45 -9.37
Si -3.58  2.48  9.38
Si -6.87 -1.25  7.64
Si -10.04  0.03 -2.56
Si -5.79  6.20  5.95
Si -3.70 -2.45 -9.37
Si  6.88  1.24 -7.66
Si  5.80 -6.20 -5.96
Si  8.07 -4.96 -4.23
Si 10.06 -0.00  2.57
Si  3.73  2.48  9.38
Si  9.66  3.73  0.86
Si  9.17  2.48  4.23
Si -9.66 -3.74 -0.86
Si -8.11  4.95  4.24
Si  3.33  6.20  7.66
Si -3.33 -6.21 -7.67
Si  4.57 -0.01 -9.37
Si -6.03 -3.70 -7.66
Si -9.20 -2.47 -4.24
Si -4.60 -0.01  9.37
Si  6.03  3.73  7.68
Si  7.86  3.70  5.94
Si -0.66 -8.66  5.95
Si -7.86 -3.71 -5.94
Si  2.50 -9.90  2.56
Si  0.67  8.69 -5.93
Si -2.53  9.91 -2.57
Si -1.19  8.63  5.96
Si -8.34 -4.94  4.23
Si  8.35  4.95 -4.24
Si  1.20 -8.68 -5.96
Si  7.10 -7.44  2.57
Si -8.70 -1.26  5.94
Si  8.70  1.25 -5.94
Si -10.50 -1.24  0.84
Si 10.51  1.19 -0.84
Si -7.14  7.43 -2.57
Si -0.80  4.95 -9.37
Si -3.98  6.20  7.66
Si  0.77 -4.96  9.37
Si  3.98 -6.21 -7.67
Si -6.12 -8.66  0.88
Si  1.05  4.95  9.37
Si -1.03 -4.94 -9.38
Si  2.95  9.93  2.56
Si -2.98 -9.91 -2.57
Si  6.13  8.69 -0.86
Si  2.49  8.65  5.94
Si -0.72  9.91 -4.23
Si -2.49 -8.67 -5.94
Si  8.82  6.18 -0.86
Si  0.69 -9.92  4.24
Si -8.82 -6.19  0.86
Si  1.14  9.91  4.24
Si  7.47  7.43 -2.57
Si -1.17 -9.92 -4.23
Si -6.75  3.70 -7.67
Si  6.75 -3.71  7.66
Si 10.01 -0.01 -4.23
Si -7.51 -7.44  2.57
Si -10.05 -0.01  4.24
Si  2.63 -4.96 -9.37
Si -2.66  4.95  9.37
Si -2.99  8.67 -5.96
Si  3.01 -8.67  5.95
Si -6.62  8.67  0.84
Si -7.73  1.24 -7.66
Si  7.74 -1.25  7.64
Si -2.83 -4.97  9.37
Si  6.63 -8.72 -0.84
Si  2.85  4.97 -9.38
Si  0.89 -0.00 11.03
Si -8.58  3.73 -5.93
Si  8.58 -3.70  5.95
Si -2.52  9.93  4.23
Si  2.54 -9.92 -4.24
Si -0.93  0.01 -11.05
Si  5.41 -2.47  9.36
Si  7.02  6.20 -5.96
Si 10.43 -3.70  0.88
Si -10.42  3.74 -0.86
Si  4.32 -9.91 -2.57
Si -7.01 -6.24  5.96
Si -5.44  2.48 -9.38
Si -5.15 -6.18  7.68
Si  5.16  6.21 -7.66
Si -4.35  9.93  2.56
Si -0.22 11.11 -0.84
Si  7.15 -7.44 -4.23
Si -7.13  7.46  4.24
Si -5.52 -2.48  9.38
Si -2.97 -9.90  4.23
Si  5.54  2.51 -9.37
Si  2.99  9.90 -4.24
Si  0.23 -11.15  0.84
Si -1.63 -11.13 -0.86
Si  4.77  9.91 -2.57
Si -4.81 -9.90  2.56
Si -0.06 -2.46 11.03
Si -9.53  1.24 -5.96
Si  0.08  2.47 -11.04
Si -9.46  6.15 -0.84
Si  1.63 11.17  0.88
Si  9.54 -1.28  5.96
Si -7.46 -7.44 -4.23
Si -6.40  0.01 -9.38
Si  9.48 -6.20  0.84
Si  6.41 -0.01  9.37
Si -2.02 11.14  0.84
Si -4.30 -8.67  5.95
Si  2.04 -11.15 -0.85
Si  4.31  8.67 -5.96
Si  2.76 -0.00 -11.03
Si -2.73  0.03 11.04
Si -9.91  4.96  2.57
Si  7.48  7.46  4.24
Si  9.94 -4.93 -2.56
Si -5.79  6.20 -7.66
Si  5.80 -6.20  7.64
Si  1.74 -2.48 -11.04
Si -1.77  2.47 11.04
Si  1.88  2.49 11.03
Si -1.86 -2.49 -11.04
Si -7.59  6.20 -5.96
Si 10.90 -2.49 -2.57
Si -11.40  1.19 -0.84
Si -10.94  2.47  2.57
Si  7.60 -6.24  5.96
Si  4.47 -4.97  9.37
Si 11.41 -1.24  0.84
Si -4.46  4.97 -9.38
Si 10.98  2.47  2.57
Si -4.82  8.65  5.94
Si  4.82 -8.67 -5.94
Si  4.64  4.95  9.37
Si 10.14  4.96 -2.57
Si -0.66 -8.66 -7.66
Si -11.02 -2.49 -2.57
Si  7.86  3.70 -7.67
Si -7.86 -3.71  7.66
Si -1.19  8.63 -7.64
Si -4.68 -4.96 -9.37
Si -10.17 -4.95  2.56
Si  4.34 -9.90  4.23
Si -4.32  9.90 -4.24
Si  0.66  8.69  7.68
Si  1.20 -8.68  7.65
Si  8.69  1.25  7.66
Si -8.69 -1.26 -7.67
Si  3.46 11.13 -0.86
Si -3.46 -11.14  0.86
Si -4.77 -9.92 -4.24
Si  4.79  9.93  4.23
Si -3.85 11.13 -0.86
Si  7.99  8.67  0.84
Si  3.85 -11.14  0.86
Si  2.49  8.65 -7.67
Si -2.49 -8.67  7.66
Si -7.98 -8.72 -0.84
Si  3.60 -2.49 11.04
Si -3.63  2.47 -11.04
Si  9.93 -4.96  4.24
Si  3.67  2.47 -11.04
Si -9.97  4.95 -4.23
Si -3.71 -2.49 11.04
Si  8.96 -7.44 -2.57
Si -4.55 -0.00 -11.03
Si -10.88  2.48 -4.23
Si -3.00  8.67  7.64
Si -9.67 -3.72  5.95
Si -9.00  7.43  2.57
Si  4.57  0.03 11.04
Si  3.01 -8.67 -7.66
Si  9.68  3.71 -5.96
Si 10.91 -2.45  4.24
Si  6.18 -9.91  2.57
Si -0.15 -7.44  9.38
Si -6.16  9.94 -2.56
Si  0.18  7.46 -9.37
Si -11.01 -2.45  4.24
Si -10.13 -4.97 -4.24
Si  1.67 -7.41 -9.37
Si 10.15  4.97  4.23
Si 11.03  2.48 -4.23
Si -1.64  7.43  9.38
Si  8.58 -3.70 -7.66
Si  7.02  6.20  7.65
Si  7.23 -2.48 -9.38
Si -7.01 -6.24 -7.64
Si -11.49 -3.70  0.88
Si -8.58  3.73  7.68
Si -7.26  2.49  9.36
Si 11.49  3.74 -0.86
Si  0.82 -4.96 -11.03
Si  1.98  7.45  9.36
Si -11.86 -0.00  2.57
Si -2.02 -7.44 -9.38
Si -10.52 -1.23 -5.93
Si -1.05 -4.96 11.03
Si -0.79  4.99 11.04
Si  6.12  8.63  5.96
Si 10.52  1.26  5.95
Si 11.88  0.03 -2.56
Si  1.01  4.97 -11.05
Si  8.49 -8.66  0.88
Si  7.35  2.49  9.36
Si -6.61 -9.88 -2.56
Si -6.11 -8.68 -5.96
Si -9.30 -7.42 -2.58
