500
set: 41.00  0.00  0.00
Si  0.00  0.00  0.00
Si -0.03  0.07  2.42
Si  0.03 -0.07 -2.42
Si -2.53  0.00  0.00
Si  2.53  0.00  0.00
Si  1.20  2.25  0.00
Si -1.20 -2.25  0.00
Si -1.33  2.25  0.00
Si  1.33 -2.25  0.00
Si -2.50 -0.07 -2.42
Si  2.50  0.07  2.42
Si -1.23 -2.18  2.42
Si  1.23  2.18 -2.42
Si -1.30  2.18 -2.42
Si  1.30 -2.18  2.42
Si  2.55 -0.07 -2.42
Si -2.55  0.07  2.42
Si -1.17 -2.33 -2.42
Si  1.17  2.33  2.42
Si -1.35  2.33  2.42
Si  1.35 -2.33 -2.42
Si  3.73  2.25  0.00
Si -3.73 -2.25  0.00
Si -3.85  2.25  0.00
Si  3.85 -2.25  0.00
Si -0.13  4.51  0.00
Si  0.13 -4.51  0.00
Si  0.05 -0.15 -4.83
Si -0.05  0.15  4.83
Si -3.75 -2.18  2.42
Si  3.75  2.18 -2.42
Si -3.70 -2.33 -2.42
Si  3.70  2.33  2.42
Si -3.83  2.18 -2.42
Si  3.83 -2.18  2.42
Si -0.10  4.44 -2.42
Si  0.10 -4.44  2.42
Si  5.05  0.00  0.00
Si -5.05  0.00  0.00
Si  2.40  4.51  0.00
Si -2.40 -4.51  0.00
Si -3.88  2.33  2.42
Si  3.88 -2.33 -2.42
Si  0.15 -4.58 -2.42
Si -0.15  4.58  2.42
Si -2.65  4.51  0.00
Si  2.65 -4.51  0.00
Si -1.25 -2.11  4.83
Si  1.25  2.11 -4.83
Si -1.27  2.11 -4.83
Si  1.27 -2.11  4.83
Si -2.47 -0.15 -4.83
Si  2.47  0.15  4.83
Si -2.58  0.15  4.83
Si  2.58 -0.15 -4.83
Si -1.15 -2.40 -4.83
Si  1.15  2.40  4.83
Si  1.38 -2.40 -4.83
Si -1.38  2.40  4.83
Si  5.03  0.07  2.42
Si -5.03 -0.07 -2.42
Si  2.43  4.44 -2.42
Si -2.43 -4.44  2.42
Si -5.08  0.07  2.42
Si  5.08 -0.07 -2.42
Si  2.63 -4.44  2.42
Si -2.63  4.44 -2.42
Si -2.37 -4.58 -2.42
Si  2.37  4.58  2.42
Si  2.68 -4.58 -2.42
Si -2.68  4.58  2.42
Si  3.78  2.11 -4.83
Si -3.78 -2.11  4.83
Si -3.80  2.11 -4.83
Si  3.80 -2.11  4.83
Si  0.07 -4.36  4.83
Si -0.07  4.36 -4.83
Si  3.67  2.40  4.83
Si -3.67 -2.40 -4.83
Si  6.25  2.25  0.00
Si -6.25 -2.25  0.00
Si -3.91  2.40  4.83
Si  3.91 -2.40 -4.83
Si  4.93  4.51  0.00
Si -4.93 -4.51  0.00
Si  0.18 -4.66 -4.83
Si -0.18  4.66  4.83
Si  6.38 -2.25  0.00
Si -6.38  2.25  0.00
Si  1.07  6.76  0.00
Si -1.07 -6.76  0.00
Si  5.18 -4.51  0.00
Si -5.18  4.51  0.00
Si -1.45  6.76  0.00
Si  1.45 -6.76  0.00
Si  5.00  0.15  4.83
Si -5.00 -0.15 -4.83
Si -2.46 -4.36  4.83
Si  2.46  4.36 -4.83
Si -2.60  4.36 -4.83
Si  2.60 -4.36  4.83
Si  5.11 -0.15 -4.83
Si -5.11  0.15  4.83
Si  6.23  2.33  2.42
Si -6.23 -2.33 -2.42
Si -6.28 -2.18  2.42
Si  6.28  2.18 -2.42
Si -4.96 -4.44  2.42
Si  4.96  4.44 -2.42
Si -2.35 -4.66 -4.83
Si  2.35  4.66  4.83
Si  4.90  4.58  2.42
Si -4.90 -4.58 -2.42
Si  6.35 -2.18  2.42
Si -6.35  2.18 -2.42
Si -1.10 -6.69  2.42
Si  1.10  6.69 -2.42
Si -5.15  4.44 -2.42
Si  5.15 -4.44  2.42
Si  6.41 -2.33 -2.42
Si -6.41  2.33  2.42
Si  2.71 -4.66 -4.83
Si -2.71  4.66  4.83
Si  1.43 -6.69  2.42
Si -1.43  6.69 -2.42
Si -0.08  0.22  7.25
Si  0.08 -0.22 -7.25
Si  1.05  6.84  2.42
Si -1.05 -6.84 -2.42
Si  5.21 -4.58 -2.42
Si -5.21  4.58  2.42
Si  1.48 -6.84 -2.42
Si -1.48  6.84  2.42
Si -7.58  0.00  0.00
Si  7.58  0.00  0.00
Si -1.25  2.04 -7.25
Si  1.25 -2.04  7.25
Si  1.28  2.04 -7.25
Si -1.28 -2.04  7.25
Si  2.45  0.22  7.25
Si -2.45 -0.22 -7.25
Si  3.60  6.76  0.00
Si -3.60 -6.76  0.00
Si  2.61 -0.22 -7.25
Si -2.61  0.22  7.25
Si  1.12  2.47  7.25
Si -1.12 -2.47 -7.25
Si  1.41 -2.47 -7.25
Si -1.41  2.47  7.25
Si -3.98  6.76  0.00
Si  3.98 -6.76  0.00
Si  7.55  0.07  2.42
Si -7.55 -0.07 -2.42
Si  7.61 -0.07 -2.42
Si -7.61  0.07  2.42
Si -3.63 -6.69  2.42
Si  3.63  6.69 -2.42
Si -3.57 -6.84 -2.42
Si  3.57  6.84  2.42
Si -3.95  6.69 -2.42
Si  3.95 -6.69  2.42
Si  4.98  4.36 -4.83
Si -4.98 -4.36  4.83
Si  6.20  2.40  4.83
Si -6.20 -2.40 -4.83
Si -6.31 -2.11  4.83
Si  6.31  2.11 -4.83
Si  6.33 -2.11  4.83
Si -6.33  2.11 -4.83
Si -1.13 -6.62  4.83
Si  1.13  6.62 -4.83
Si -4.01  6.84  2.42
Si  4.01 -6.84 -2.42
Si -5.13  4.36 -4.83
Si  5.13 -4.36  4.83
Si -4.87 -4.66 -4.83
Si  4.87  4.66  4.83
Si  1.40 -6.62  4.83
Si -1.40  6.62 -4.83
Si  6.43 -2.40 -4.83
Si -6.43  2.40  4.83
Si -3.77  2.04 -7.25
Si  3.77 -2.04  7.25
Si  0.04 -4.29  7.25
Si -0.04  4.29 -7.25
Si -3.81 -2.04  7.25
Si  3.81  2.04 -7.25
Si -3.65 -2.47 -7.25
Si  3.65  2.47  7.25
Si -1.02 -6.91 -4.83
Si  1.02  6.91  4.83
Si  5.23 -4.66 -4.83
Si -5.23  4.66  4.83
Si  1.51 -6.91 -4.83
Si -1.51  6.91  4.83
Si -3.94  2.47  7.25
Si  3.94 -2.47 -7.25
Si  0.21 -4.73 -7.25
Si -0.21  4.73  7.25
Si -7.46 -4.51  0.00
Si  7.46  4.51  0.00
Si  2.48  4.29 -7.25
Si -2.48 -4.29  7.25
Si  4.97  0.22  7.25
Si -4.97 -0.22 -7.25
Si  2.57 -4.29  7.25
Si -2.57  4.29 -7.25
Si -5.13  0.22  7.25
Si  5.13 -0.22 -7.25
Si  7.71 -4.51  0.00
Si -7.71  4.51  0.00
Si  7.53  0.15  4.83
Si -7.53 -0.15 -4.83
Si -2.32 -4.73 -7.25
Si  2.32  4.73  7.25
Si -3.65 -6.62  4.83
Si  3.65  6.62 -4.83
Si -0.25  9.02  0.00
Si  0.25 -9.02  0.00
Si  7.48  4.44 -2.42
Si -7.48 -4.44  2.42
Si -7.63  0.15  4.83
Si  7.63 -0.15 -4.83
Si -7.43 -4.58 -2.42
Si  7.43  4.58  2.42
Si  8.78  2.25  0.00
Si -8.78 -2.25  0.00
Si  2.73 -4.73 -7.25
Si -2.73  4.73  7.25
Si -3.93  6.62 -4.83
Si  3.93 -6.62  4.83
Si  6.13  6.76  0.00
Si -6.13 -6.76  0.00
Si -3.55 -6.91 -4.83
Si  3.55  6.91  4.83
Si -8.91  2.25  0.00
Si  8.91 -2.25  0.00
Si -7.68  4.44 -2.42
Si  7.68 -4.44  2.42
Si  0.23 -8.94  2.42
Si -0.23  8.94 -2.42
Si  2.27  9.02  0.00
Si -2.27 -9.02  0.00
Si -7.73  4.58  2.42
Si  7.73 -4.58 -2.42
Si -4.03  6.91  4.83
Si  4.03 -6.91 -4.83
Si -8.76 -2.33 -2.42
Si  8.76  2.33  2.42
Si  6.51 -6.76  0.00
Si -6.51  6.76  0.00
Si  8.81  2.18 -2.42
Si -8.81 -2.18  2.42
Si  6.16  6.69 -2.42
Si -6.16 -6.69  2.42
Si  0.28 -9.09 -2.42
Si -0.28  9.09  2.42
Si -2.78  9.02  0.00
Si  2.78 -9.02  0.00
Si  8.88 -2.18  2.42
Si -8.88  2.18 -2.42
Si  6.10  6.84  2.42
Si -6.10 -6.84 -2.42
Si -8.94  2.33  2.42
Si  8.94 -2.33 -2.42
Si  2.30  8.94 -2.42
Si -2.30 -8.94  2.42
Si  6.48 -6.69  2.42
Si -6.48  6.69 -2.42
Si  2.75 -8.94  2.42
Si -2.75  8.94 -2.42
Si -2.25 -9.09 -2.42
Si  2.25  9.09  2.42
Si -0.11  0.29  9.67
Si  0.11 -0.29 -9.67
Si -6.53  6.84  2.42
Si  6.53 -6.84 -2.42
Si -5.01 -4.29  7.25
Si  5.01  4.29 -7.25
Si -2.81  9.09  2.42
Si  2.81 -9.09 -2.42
Si -6.30  2.04 -7.25
Si  6.30 -2.04  7.25
Si  1.16  6.54 -7.25
Si -1.16 -6.54  7.25
Si -6.17 -2.47 -7.25
Si  6.17  2.47  7.25
Si -6.34 -2.04  7.25
Si  6.34  2.04 -7.25
Si -5.10  4.29 -7.25
Si  5.10 -4.29  7.25
Si  1.37 -6.54  7.25
Si -1.37  6.54 -7.25
Si  4.85  4.73  7.25
Si -4.85 -4.73 -7.25
Si -7.51 -4.36  4.83
Si  7.51  4.36 -4.83
Si  1.22 -1.96  9.67
Si -1.22  1.96 -9.67
Si -1.31 -1.96  9.67
Si  1.31  1.96 -9.67
Si -2.42 -0.29 -9.67
Si  2.42  0.29  9.67
Si  7.40  4.66  4.83
Si -7.40 -4.66 -4.83
Si -6.46  2.47  7.25
Si  6.46 -2.47 -7.25
Si -2.63  0.29  9.67
Si  2.63 -0.29 -9.67
Si -7.65  4.36 -4.83
Si  7.65 -4.36  4.83
Si -1.09 -2.55 -9.67
Si  1.09  2.55  9.67
Si -1.43  2.55  9.67
Si  1.43 -2.55 -9.67
Si -0.20  8.87 -4.83
Si  0.20 -8.87  4.83
Si 10.11  0.00  0.00
Si -10.11  0.00  0.00
Si -0.99 -6.98 -7.25
Si  0.99  6.98  7.25
Si  5.26 -4.73 -7.25
Si -5.26  4.73  7.25
Si  1.53 -6.98 -7.25
Si -1.53  6.98  7.25
Si -4.80 -9.02  0.00
Si  4.80  9.02  0.00
Si -7.76  4.66  4.83
Si  7.76 -4.66 -4.83
Si -8.73 -2.40 -4.83
Si  8.73  2.40  4.83
Si -6.18 -6.62  4.83
Si  6.18  6.62 -4.83
Si  8.84  2.11 -4.83
Si -8.84 -2.11  4.83
Si  8.85 -2.11  4.83
Si -8.85  2.11 -4.83
Si  0.31 -9.16 -4.83
Si -0.31  9.16  4.83
Si -10.08 -0.07 -2.42
Si 10.08  0.07  2.42
Si  2.33  8.87 -4.83
Si -2.33 -8.87  4.83
Si -6.08 -6.91 -4.83
Si  6.08  6.91  4.83
Si 10.13 -0.07 -2.42
Si -10.13  0.07  2.42
Si -6.45  6.62 -4.83
Si  6.45 -6.62  4.83
Si  7.50  0.22  7.25
Si -7.50 -0.22 -7.25
Si  3.68  6.54 -7.25
Si -3.68 -6.54  7.25
Si  4.83  8.94 -2.42
Si -4.83 -8.94  2.42
Si  8.96 -2.40 -4.83
Si -8.96  2.40  4.83
Si -5.31  9.02  0.00
Si  5.31 -9.02  0.00
Si  2.73 -8.87  4.83
Si -2.73  8.87 -4.83
Si  3.90 -6.54  7.25
Si -3.90  6.54 -7.25
Si -0.02  4.22 -9.67
Si  0.02 -4.22  9.67
Si  4.78  9.09  2.42
Si -4.78 -9.09 -2.42
Si -7.66  0.22  7.25
Si  7.66 -0.22 -7.25
Si  3.75 -1.96  9.67
Si -3.75  1.96 -9.67
Si  3.83  1.96 -9.67
Si -3.83 -1.96  9.67
Si -2.22 -9.16 -4.83
Si  2.22  9.16  4.83
Si -3.62 -2.55 -9.67
Si  3.62  2.55  9.67
Si  5.28 -8.94  2.42
Si -5.28  8.94 -2.42
Si  3.52  6.98  7.25
Si -3.52 -6.98 -7.25
Si -6.56  6.91  4.83
Si  6.56 -6.91 -4.83
Si  2.83 -9.16 -4.83
Si -2.83  9.16  4.83
Si  3.96 -2.55 -9.67
Si -3.96  2.55  9.67
Si -0.23  4.80  9.67
Si  0.23 -4.80 -9.67
Si  5.33 -9.09 -2.42
Si -5.33  9.09  2.42
Si  2.51  4.22 -9.67
Si -2.51 -4.22  9.67
Si  2.54 -4.22  9.67
Si -2.54  4.22 -9.67
Si -4.06  6.98  7.25
Si  4.06 -6.98 -7.25
Si  4.95  0.29  9.67
Si -4.95 -0.29 -9.67
Si  9.98  4.51  0.00
Si -9.98 -4.51  0.00
Si  5.16 -0.29 -9.67
Si -5.16  0.29  9.67
Si -8.66 -6.76  0.00
Si  8.66  6.76  0.00
Si -2.29 -4.80 -9.67
Si  2.29  4.80  9.67
Si -2.76  4.80  9.67
Si  2.76 -4.80 -9.67
Si 10.05  0.15  4.83
Si -10.05 -0.15 -4.83
Si -10.23  4.51  0.00
Si 10.23 -4.51  0.00
Si  4.86  8.87 -4.83
Si -4.86 -8.87  4.83
Si 10.01  4.44 -2.42
Si -10.01 -4.44  2.42
Si -9.96 -4.58 -2.42
Si  9.96  4.58  2.42
Si  8.68  6.69 -2.42
Si -8.68 -6.69  2.42
Si -10.16  0.15  4.83
Si 10.16 -0.15 -4.83
Si  8.63  6.84  2.42
Si -8.63 -6.84 -2.42
Si  9.03 -6.76  0.00
Si -9.03  6.76  0.00
Si  7.54  4.29 -7.25
Si -7.54 -4.29  7.25
Si -0.95 -11.27  0.00
Si  0.95 11.27  0.00
Si  7.63 -4.29  7.25
Si -7.63  4.29 -7.25
Si  7.37  4.73  7.25
Si -7.37 -4.73 -7.25
Si  1.58 -11.27  0.00
Si -1.58 11.27  0.00
Si  5.25 -8.87  4.83
Si -5.25  8.87 -4.83
Si -10.21  4.44 -2.42
Si 10.21 -4.44  2.42
Si  4.75  9.16  4.83
Si -4.75 -9.16 -4.83
Si -0.17  8.80 -7.25
Si  0.17 -8.80  7.25
Si  9.01 -6.69  2.42
Si -9.01  6.69 -2.42
Si -10.26  4.58  2.42
Si 10.26 -4.58 -2.42
Si -0.97 -11.20  2.42
Si  0.97 11.20 -2.42
Si -11.31 -2.25  0.00
Si 11.31  2.25  0.00
Si  1.55 -11.20  2.42
Si -1.55 11.20 -2.42
Si  6.21  6.54 -7.25
Si -6.21 -6.54  7.25
Si  8.70  2.47  7.25
Si -8.70 -2.47 -7.25
Si -8.83  2.04 -7.25
Si  8.83 -2.04  7.25
Si  9.06 -6.84 -2.42
Si -9.06  6.84  2.42
Si  7.33  9.02  0.00
Si -7.33 -9.02  0.00
Si -8.86 -2.04  7.25
Si  8.86  2.04 -7.25
Si  0.92 11.35  2.42
Si -0.92 -11.35 -2.42
Si -2.36 -8.80  7.25
Si  2.36  8.80 -7.25
Si -7.79  4.73  7.25
Si  7.79 -4.73 -7.25
Si 11.44 -2.25  0.00
Si -11.44  2.25  0.00
Si  5.36 -9.16 -4.83
Si -5.36  9.16  4.83
Si  5.04  4.22 -9.67
Si -5.04 -4.22  9.67
Si  6.27 -1.96  9.67
Si -6.27  1.96 -9.67
Si  6.43 -6.54  7.25
Si -6.43  6.54 -7.25
Si  1.18  6.47 -9.67
Si -1.18 -6.47  9.67
Si  5.07 -4.22  9.67
Si -5.07  4.22 -9.67
Si  1.61 -11.35 -2.42
Si -1.61 11.35  2.42
Si  1.34 -6.47  9.67
Si -1.34  6.47 -9.67
Si -2.70  8.80 -7.25
Si  2.70 -8.80  7.25
Si  6.15  2.55  9.67
Si -6.15 -2.55 -9.67
Si  6.36  1.96 -9.67
Si -6.36 -1.96  9.67
Si  6.05  6.98  7.25
Si -6.05 -6.98 -7.25
Si  0.33 -9.24 -7.25
