500
set: 403.00  0.00  0.00
Si  0.04  0.03  0.03
Si  0.00 -2.10  0.67
Si -1.78  1.10  0.72
Si -0.01 -0.03 -2.25
Si  1.84  1.11  0.90
Si -1.95 -1.03 -2.83
Si -1.87  0.96  2.93
Si  0.14 -2.20  2.90
Si  1.87 -3.14 -0.09
Si -1.85 -3.17  0.03
Si  3.67  0.08  0.04
Si  1.82  3.20  0.03
Si -3.68  0.08  0.04
Si -1.80  3.23 -0.09
Si  0.14  2.04 -3.11
Si  1.80 -1.16 -3.08
Si  1.72  1.09  3.17
Si  3.51  0.00 -2.19
Si -1.76  3.04 -2.32
Si -1.76 -1.20  3.68
Si  3.67 -2.06  0.75
Si -3.68 -2.06  0.75
Si  1.86 -1.06  3.73
Si -1.81 -3.18 -2.27
Si  1.86  3.19 -2.27
Si -0.00  4.30  0.75
Si -0.16  2.12  3.81
Si -3.84  0.00 -2.19
Si  1.91 -3.32 -2.32
Si -0.02  4.21  3.00
Si  3.66  2.09 -3.01
Si  3.66 -2.15  3.00
Si -3.70  2.09 -3.01
Si -3.70 -2.15  3.00
Si -0.02 -4.28 -3.01
Si -1.84 -1.02 -5.10
Si  1.90 -5.26  0.72
Si -1.84 -5.26  0.90
Si  3.66  2.09  3.75
Si -3.69  2.09  3.75
Si -3.67  4.27  0.67
Si  3.68  4.27  0.67
Si -0.01 -4.28  3.75
Si -5.51  1.11  0.90
Si  1.90 -1.02 -5.28
Si  5.57  1.10  0.72
Si  0.00  2.15 -5.33
Si  5.40 -1.03 -2.83
Si -3.53  4.16  2.90
Si -1.80 -1.01  5.91
Si  1.72  5.34 -2.83
Si  5.48  0.96  2.93
Si -0.01 -6.29  0.04
Si -0.01 -2.04 -5.96
Si -5.48 -3.14 -0.09
Si -1.87  5.21 -3.08
Si  5.50 -3.17  0.03
Si  3.82  4.16  2.90
Si -1.85  1.08 -5.98
Si  1.82 -1.04  6.03
Si -5.53  3.20  0.03
Si -3.53 -4.33 -3.11
Si  1.80 -5.41  2.93
Si  5.55  3.23 -0.09
Si -0.01  2.20  6.04
Si -0.01  6.45  0.04
Si -5.55 -1.16 -3.08
Si -1.95 -5.27  3.17
Si  1.87  1.11 -6.10
Si  3.82 -4.33 -3.11
Si -5.63  1.09  3.17
Si  1.91  5.17  3.68
Si  3.51 -4.24  3.81
Si -0.00 -4.19 -5.25
Si -5.49 -1.06  3.73
Si -0.16 -6.36 -2.19
Si -1.81  5.31  3.73
Si -0.16  6.37 -2.19
Si -5.49  3.19 -2.27
Si -0.00  0.06  6.75
Si  3.67  2.18 -5.25
Si -3.68  2.18 -5.25
Si  5.59  3.04 -2.32
Si  5.54 -3.18 -2.27
Si -5.44 -3.32 -2.32
Si  5.59 -1.20  3.68
Si -3.84 -4.24  3.81
Si -3.64 -2.09 -5.97
Si -3.64 -6.34  0.03
Si -7.32  0.03  0.03
Si  3.71 -2.09 -5.97
Si  0.04  4.28 -5.97
Si  3.71 -6.34  0.03
Si -3.64  6.40  0.03
Si  0.04 -4.21  6.04
Si -3.64  2.15  6.04
Si  7.39  0.03  0.03
Si  3.71  6.40  0.03
Si  3.71  2.15  6.04
Si  5.51 -1.02 -5.10
Si -5.46 -5.26  0.72
Si -3.67  0.03  6.67
Si  3.68  0.03  6.67
Si  1.84  5.35 -5.10
Si -1.78 -3.14  6.72
Si  3.66  6.34 -2.25
Si -5.46 -1.02 -5.28
Si -3.69  6.34 -2.25
Si -7.35 -2.10  0.67
Si  5.51 -5.26  0.90
Si  7.34 -0.03 -2.25
Si  7.36 -2.10  0.67
Si  1.90  3.23  6.72
Si -7.37 -0.03 -2.25
Si  3.66 -6.40 -2.25
Si -3.69 -6.40 -2.25
Si -1.78  5.35 -5.28
Si -3.67 -4.22 -5.33
Si  3.68 -4.22 -5.33
Si  1.90  7.47  0.72
Si -1.84  7.47  0.90
Si  1.84 -3.14  6.90
Si -1.84  3.23  6.90
Si -7.21 -2.20  2.90
Si  1.80  7.33  2.93
Si  1.72 -7.39 -2.83
Si -7.21  2.04 -3.11
Si  5.48  5.21 -3.08
Si  5.55 -1.01  5.91
Si  1.82 -5.29 -5.98
Si  5.40 -5.27  3.17
Si  1.87  5.35  5.91
Si  5.50  1.08 -5.98
Si  3.67 -4.17  6.04
Si -3.68 -4.17  6.04
Si  3.67  4.32 -5.96
Si -3.68  4.32 -5.96
Si -5.53 -1.04  6.03
Si -1.80 -5.26 -6.10
Si -1.85  5.32  6.03
Si -5.63  5.34 -2.83
Si -5.48  1.11 -6.10
Si -5.55 -5.41  2.93
Si  7.49 -2.20  2.90
Si -1.95  7.46  3.17
Si -1.87 -7.53 -3.08
Si -5.44  5.17  3.68
Si  7.49  2.04 -3.11
Si  7.19  2.12  3.81
Si -0.16 -2.12 -8.19
Si -0.00 -8.43  0.75
Si -1.81 -7.43  3.73
Si  5.54  5.31  3.73
Si -1.81  1.06 -8.28
Si  7.35  4.30  0.75
Si -7.36  4.30  0.75
Si  1.91  0.92 -8.33
Si  1.91 -7.57  3.68
Si -7.52  2.12  3.81
Si  7.33  4.21  3.00
Si -0.02  8.46 -3.01
Si -0.02 -0.03  9.00
Si -7.37  4.21  3.00
Si  7.33 -4.28 -3.01
Si -0.02 -0.03 -9.01
Si -0.02 -8.52  3.00
Si -7.37 -4.28 -3.01
Si  1.84 -7.38 -5.10
Si  0.00 -6.34  6.67
Si -5.51  5.35 -5.10
Si -9.13  1.10  0.72
Si -5.46  3.23  6.72
Si  0.00  6.39  6.67
Si -3.67 -8.46  0.67
Si  3.68 -8.46  0.67
Si -1.78 -7.38 -5.28
Si -0.01  8.46  3.75
Si -0.01  4.21 -8.25
Si  5.57 -3.14  6.72
Si -5.46  7.47  0.72
Si  3.66 -2.15 -8.25
Si  7.34 -4.28  3.75
Si -3.69 -2.15 -8.25
Si  9.19  1.11  0.90
Si -7.37 -4.28  3.75
Si  5.51  7.47  0.90
Si -7.35  2.15 -5.33
Si  7.36  2.15 -5.33
Si  5.57  5.35 -5.28
Si -5.51 -3.14  6.90
Si  5.51  3.23  6.90
Si  1.72 -3.15 -8.83
Si -3.53 -0.08  8.90
Si -1.95  3.22 -8.83
Si  1.80  3.08  8.93
Si -3.53  8.41 -3.11
Si  1.87 -7.38  5.91
Si -5.55  7.33  2.93
Si  7.34 -6.29  0.04
Si -1.80 -9.50 -0.09
Si -5.48  5.35  5.91
Si  9.07  1.09  3.17
Si  7.34 -2.04 -5.96
Si -7.36 -6.29  0.04
Si  3.82 -0.08  8.90
Si -7.36 -2.04 -5.96
Si -1.87 -3.28  8.93
Si  1.82 -9.53  0.03
Si -5.53 -5.29 -5.98
Si -9.16  3.23 -0.09
Si -3.53 -8.57  2.90
Si -5.63 -7.39 -2.83
Si  9.17  3.20  0.03
Si  1.82  7.45 -5.98
Si -9.22  0.96  2.93
Si  9.16 -1.16 -3.08
Si -1.85 -7.41  6.03
Si -9.21 -3.17  0.03
Si  5.40  7.46  3.17
Si  3.82  8.41 -3.11
Si  9.22 -3.14 -0.09
Si  5.50  5.32  6.03
Si -1.85  9.57  0.03
Si  1.80  3.08 -9.08
Si  7.34  2.20  6.04
Si -3.53 -0.08 -9.11
Si  7.34  6.45  0.04
Si -7.36  2.20  6.04
Si  1.87  9.60 -0.09
Si  5.55 -5.26 -6.10
Si -9.30 -1.03 -2.83
Si -7.36  6.45  0.04
Si  5.48 -7.53 -3.08
Si -1.80  7.47 -6.10
Si  3.82 -8.57  2.90
Si -1.87 -3.28 -9.08
Si  7.19 -6.36 -2.19
Si  7.19  6.37 -2.19
Si  1.72 -3.15  9.18
Si  3.51  4.25 -8.19
Si  3.82 -0.08 -9.11
Si  1.91  9.41 -2.32
Si -9.12  3.04 -2.32
Si -9.12 -1.20  3.68
Si  1.91  0.92  9.68
Si -1.95  3.22  9.18
Si  3.67 -6.31  6.75
Si -3.68 -6.31  6.75
Si  3.51  8.49  3.81
Si  7.35 -4.19 -5.25
Si -1.81  1.06  9.73
Si -7.36 -4.19 -5.25
Si -9.16 -3.18 -2.27
Si  7.35  0.06  6.75
Si -1.81  9.55 -2.27
Si -7.36  0.06  6.75
Si  5.54 -7.43  3.73
Si -5.44  0.92 -8.33
Si  1.86 -9.55 -2.27
Si -3.84  4.25 -8.19
Si  9.22 -1.06  3.73
Si  1.86 -5.30 -8.28
Si  9.22  3.19 -2.27
Si  5.54  1.06 -8.28
Si -5.44 -7.57  3.68
Si  3.67  6.42  6.75
Si -3.68  6.42  6.75
Si -0.00  8.55 -5.25
Si -0.16 -2.12  9.82
Si -3.84  8.49  3.81
Si -7.52 -6.36 -2.19
Si -7.52  6.37 -2.19
Si -1.76 -5.44 -8.33
Si  9.26 -3.32 -2.32
Si -1.76 -9.69 -2.32
Si  0.04 -8.46 -5.97
Si -7.32  4.28 -5.97
Si -7.32 -4.21  6.04
Si  7.39  4.28 -5.97
Si  7.39 -4.21  6.04
Si  0.04  8.52  6.04
Si -5.51 -7.38 -5.10
Si -9.19 -1.02 -5.10
Si -9.19 -5.26  0.90
Si -0.01  4.21  9.76
Si  3.66 -2.15  9.76
Si -3.69 -2.15  9.76
Si  5.57 -7.38 -5.28
Si  0.00 10.64  0.67
Si  9.25 -5.26  0.72
Si -3.67  8.52 -5.33
Si  9.25 -1.02 -5.28
Si  3.68  8.52 -5.33
Si  5.40  3.22 -8.83
Si  0.14  6.29  8.90
Si  9.07  5.34 -2.83
Si  0.14 10.53  2.90
Si -5.48 -7.38  5.91
Si -5.63 -3.15 -8.83
Si  3.67 -8.41 -5.96
Si -9.16 -1.01  5.91
Si -3.68 -8.41 -5.96
Si -5.55  3.08  8.93
Si  5.48 -3.28  8.93
Si  0.14 -6.45  8.90
Si  5.55 -9.50 -0.09
Si -5.53 -9.53  0.03
Si 11.02  0.08  0.04
Si  5.50 -7.41  6.03
Si  9.17 -1.04  6.03
Si  9.16 -5.41  2.93
Si -9.21  1.08 -5.98
Si -9.22  5.21 -3.08
Si -5.53  7.45 -5.98
Si  5.50  9.57  0.03
Si -11.04  0.08  0.04
Si -5.48  9.60 -0.09
Si  0.14  6.29 -9.11
Si -5.55  3.08 -9.08
Si 10.86  0.00 -2.19
Si  7.19 -2.12 -8.19
Si  5.48 -3.28 -9.08
Si  3.67  8.57  6.04
Si  9.22  1.11 -6.10
Si -3.69  8.57  6.04
Si -5.44  9.41 -2.32
Si  5.40  3.22  9.18
Si  5.55  7.47 -6.10
Si  0.14 -10.69 -3.11
Si -5.44  0.92  9.68
Si -9.30 -5.27  3.17
Si  0.14 -6.45 -9.11
Si -1.76  7.29 -8.33
Si  7.35 -8.43  0.75
Si -7.36 -8.43  0.75
Si -5.63 -3.15  9.18
Si -9.16  5.31  3.73
Si  9.26  5.17  3.68
Si  1.86 -5.30  9.73
Si 11.02 -2.06  0.75
Si -5.49 -9.55 -2.27
Si -1.76 -5.44  9.68
Si -11.03 -2.06  0.75
Si  5.54  1.06  9.73
Si -0.00  0.06 -11.25
Si -5.49 -5.30 -8.28
Si  3.51  4.25  9.82
Si  5.54  9.55 -2.27
Si -0.16 -10.61  3.81
Si  1.86  7.43 -8.28
Si  3.67 10.67  0.75
Si -3.68 10.67  0.75
Si -7.52 -2.12 -8.19
Si -3.84  4.25  9.82
Si -11.19  0.00 -2.19
Si  5.59 -5.44 -8.33
Si  5.59 -9.69 -2.32
Si  3.66 10.58  3.00
Si  7.33  8.46 -3.01
Si  3.66  6.33  9.00
Si -3.70 10.58  3.00
Si 11.01  2.09 -3.01
Si  3.66  6.33 -9.01
Si  7.33 -0.03  9.00
Si -3.70  6.33  9.00
Si 11.01 -2.15  3.00
Si -7.37  8.46 -3.01
Si  7.33 -0.03 -9.01
Si -3.70  6.33 -9.01
Si  3.66 -6.40  9.00
Si -7.37 -0.03  9.00
Si  7.33 -8.52  3.00
Si -11.05  2.09 -3.01
Si  3.66 -6.40 -9.01
Si -7.37 -0.03 -9.01
Si -3.70 -6.40  9.00
Si -11.05 -2.15  3.00
Si  3.66 -10.64 -3.01
Si -3.70 -6.40 -9.01
Si -7.37 -8.52  3.00
Si -3.70 -10.64 -3.01
Si  1.84 -3.14 -11.11
Si -1.84  3.23 -11.11
Si -9.13 -3.14  6.72
Si -7.35 -6.34  6.67
Si  7.36 -6.34  6.67
Si -1.78 -11.63  0.72
Si  9.19  5.35 -5.10
Si  1.90 -9.51  6.72
Si -7.35  6.39  6.67
Si  1.84 -11.63  0.90
Si  7.35  6.39  6.67
Si  7.34  8.46  3.75
Si  7.34  4.21 -8.25
Si 11.02  2.09  3.75
Si -7.37  8.46  3.75
Si -9.13  5.35 -5.28
Si -7.37  4.21 -8.25
Si -11.03  4.27  0.67
Si 11.03  4.27  0.67
Si -11.04  2.09  3.75
Si -1.78  9.59  6.72
Si -1.78 -3.14 -11.29
Si  0.00 -10.59 -5.33
Si -0.01 -8.52 -8.25
Si  3.66 -10.64  3.75
Si -3.69 -10.64  3.75
Si -9.19  7.47  0.90
Si  9.25  3.23  6.72
Si -1.84 -9.51  6.90
Si  1.90  3.23 -11.29
Si  9.25  7.47  0.72
Si  9.19 -3.14  6.90
Si -3.67  0.03 -11.34
Si  3.68  0.03 -11.34
Si -9.19  3.23  6.90
Si  1.84  9.60  6.90
Si -10.89  4.16  2.90
Si  9.07 -7.39 -2.83
Si  9.16  7.33  2.93
Si  1.87  1.11 11.91
Si  1.80 11.57 -3.08
Si -10.89 -4.33 -3.11
Si -0.01 -10.53  6.04
Si  9.17 -5.29 -5.98
Si  1.82 -1.04 -11.98
Si -0.01  2.20 -11.96
Si  1.72 -11.64  3.17
Si  9.22  5.35  5.91
Si -9.16 -5.26 -6.10
Si -1.95 11.71 -2.83
Si -0.01 -2.04 12.05
Si -1.85  1.08 12.03
Si -9.21  5.32  6.03
Si -1.76 11.53  3.68
Si -0.01 10.69 -5.96
Si -1.76  7.29  9.68
Si 11.17  4.16  2.90
Si 10.86 -4.24  3.81
Si -1.87 -11.77  2.93
Si -1.80 -1.01 -12.10
Si -9.22 -7.53 -3.08
Si  3.51 -8.49 -8.19
Si -9.30  7.46  3.17
Si  3.67 -10.55 -5.25
Si -3.68 -10.55 -5.25
Si  7.19 -2.12  9.82
Si -5.49 -5.30  9.73
Si -9.16 -7.43  3.73
Si 11.17 -4.33 -3.11
Si  1.86  7.43  9.73
Si -9.16  1.06 -8.28
Si  1.86 11.67  3.73
Si  5.59  7.29 -8.33
Si -5.49  7.43 -8.28
Si -3.84 -8.49 -8.19
Si 11.02  2.18 -5.25
Si -11.03  2.18 -5.25
Si  5.59 -5.44  9.68
Si  7.35  8.55 -5.25
Si -7.36  8.55 -5.25
Si  9.26  0.92 -8.33
Si  9.26 -7.57  3.68
Si -7.52 -2.12  9.82
Si -11.19 -4.24  3.81
Si -7.32 -8.46 -5.97
Si -10.99 -2.09 -5.97
Si -10.99 -6.34  0.03
Si  0.04 -4.21 -11.97
Si -3.64  2.15 -11.97
Si  0.04 -12.70  0.03
Si -3.64 -10.58  6.04
Si -10.99  6.40  0.03
Si  3.71  2.15 -11.97
Si  7.39 -8.46 -5.97
Si -10.99  2.15  6.04
Si -3.64 10.64 -5.97
Si  3.71 -10.58  6.04
Si 11.06 -2.09 -5.97
Si -7.32  8.52  6.04
Si -3.64 -2.09 12.04
Si 11.06 -6.34  0.03
Si  3.71 10.64 -5.97
Si  0.04 12.76  0.03
Si  3.71 -2.09 12.04
Si  0.04  4.28 12.04
Si 11.06  6.40  0.03
Si 11.06  2.15  6.04
Si  7.39  8.52  6.04
Si -5.51 -3.14 -11.11
Si  5.51  3.23 -11.11
Si  9.19 -7.38 -5.10
Si  0.00  2.15 12.67
Si -5.46 -9.51  6.72
Si -9.13 -7.38 -5.28
Si -11.03  0.03  6.67
Si 11.03  0.03  6.67
Si -0.01 12.70 -2.25
Si -5.51 -11.63  0.90
Si 11.02  6.34 -2.25
