500
set:  1.00  0.00  0.00
Si  0.00  0.00  0.00
Si -0.08 -0.09  2.45
Si  0.08  0.09 -2.45
Si -1.24  2.35  0.00
Si  1.24 -2.35  0.00
Si  2.84  0.00  0.00
Si -2.84  0.00  0.00
Si  1.60  2.35  0.00
Si -1.60 -2.35  0.00
Si -1.32  2.26  2.45
Si  1.32 -2.26 -2.45
Si -1.16  2.44 -2.45
Si  1.16 -2.44  2.45
Si -1.52 -2.26 -2.45
Si  1.52  2.26  2.45
Si  2.75 -0.09  2.45
Si -2.75  0.09 -2.45
Si -2.92 -0.09  2.45
Si  2.92  0.09 -2.45
Si -1.68 -2.44  2.45
Si  1.68  2.44 -2.45
Si -4.07  2.35  0.00
Si  4.07 -2.35  0.00
Si  0.36  4.70  0.00
Si -0.36 -4.70  0.00
Si  0.16  0.17 -4.89
Si -0.16 -0.17  4.89
Si  4.43  2.35  0.00
Si -4.43 -2.35  0.00
Si  0.28  4.61  2.45
Si -0.28 -4.61 -2.45
Si -3.99  2.44 -2.45
Si  3.99 -2.44  2.45
Si  2.48 -4.70  0.00
Si -2.48  4.70  0.00
Si -4.15  2.26  2.45
Si  4.15 -2.26 -2.45
Si -0.44 -4.79  2.45
Si  0.44  4.79 -2.45
Si  4.35  2.26  2.45
Si -4.35 -2.26 -2.45
Si  1.40 -2.17 -4.89
Si -1.40  2.17  4.89
Si -1.44 -2.17 -4.89
Si  1.44  2.17  4.89
Si  2.67 -0.17  4.89
Si -2.67  0.17 -4.89
Si -1.08  2.52 -4.89
Si  1.08 -2.52  4.89
Si -5.67  0.00  0.00
Si  5.67  0.00  0.00
Si -3.20 -4.70  0.00
Si  3.20  4.70  0.00
Si -4.51 -2.44  2.45
Si  4.51  2.44 -2.45
Si  3.00  0.17 -4.89
Si -3.00 -0.17  4.89
Si -1.76 -2.52  4.89
Si  1.76  2.52 -4.89
Si -2.56  4.61  2.45
Si  2.56 -4.61 -2.45
Si -2.40  4.79 -2.45
Si  2.40 -4.79  2.45
Si -3.12 -4.61 -2.45
Si  3.12  4.61  2.45
Si -5.59  0.09 -2.45
Si  5.59 -0.09  2.45
Si  5.75  0.09 -2.45
Si -5.75 -0.09  2.45
Si -3.28 -4.79  2.45
Si  3.28  4.79 -2.45
Si -0.20 -4.52 -4.89
Si  0.20  4.52  4.89
Si -3.91  2.52 -4.89
Si  3.91 -2.52  4.89
Si  4.23 -2.17 -4.89
Si -4.23  2.17  4.89
Si  4.27  2.17  4.89
Si -4.27 -2.17 -4.89
Si -0.52 -4.87  4.89
Si  0.52  4.87 -4.89
Si -5.31  4.70  0.00
Si  5.31 -4.70  0.00
Si  0.88 -7.05  0.00
Si -0.88  7.05  0.00
Si -2.63  4.52  4.89
Si  2.63 -4.52 -4.89
Si  4.59  2.52 -4.89
Si -4.59 -2.52  4.89
Si  2.31 -4.87  4.89
Si -2.31  4.87 -4.89
Si -6.91  2.35  0.00
Si  6.91 -2.35  0.00
Si  1.96  7.05  0.00
Si -1.96 -7.05  0.00
Si  3.04  4.52  4.89
Si -3.04 -4.52 -4.89
Si -0.24 -0.26  7.34
Si  0.24  0.26 -7.34
Si -5.51  0.17 -4.89
Si  5.51 -0.17  4.89
Si -0.96  6.96  2.45
Si  0.96 -6.96 -2.45
Si  5.23 -4.79  2.45
Si -5.23  4.79 -2.45
Si  5.39 -4.61 -2.45
Si -5.39  4.61  2.45
Si -0.80  7.13 -2.45
Si  0.80 -7.13  2.45
Si -1.88 -6.96 -2.45
Si  1.88  6.96  2.45
Si  5.83  0.17 -4.89
Si -5.83 -0.17  4.89
Si -7.27 -2.35  0.00
Si  7.27  2.35  0.00
Si  6.03  4.70  0.00
Si -6.03 -4.70  0.00
Si  6.83 -2.44  2.45
Si -6.83  2.44 -2.45
Si  3.36  4.87 -4.89
Si -3.36 -4.87  4.89
Si -6.99  2.26  2.45
Si  6.99 -2.26 -2.45
Si -1.36 -2.09 -7.34
Si  1.36  2.09  7.34
Si -1.48  2.09  7.34
Si  1.48 -2.09 -7.34
Si -2.60  0.26 -7.34
Si  2.60 -0.26  7.34
Si -2.04 -7.13  2.45
Si  2.04  7.13 -2.45
Si -1.00  2.61 -7.34
Si  1.00 -2.61  7.34
Si -5.95 -4.61 -2.45
Si  5.95  4.61  2.45
Si  7.19  2.26  2.45
Si -7.19 -2.26 -2.45
Si  3.08  0.26 -7.34
Si -3.08 -0.26  7.34
Si  3.71 -7.05  0.00
Si -3.71  7.05  0.00
Si -1.84 -2.61  7.34
Si  1.84  2.61 -7.34
Si  7.35  2.44 -2.45
Si -7.35 -2.44  2.45
Si -6.11 -4.79  2.45
Si  6.11  4.79 -2.45
Si -3.79  6.96  2.45
Si  3.79 -6.96 -2.45
Si -3.63  7.13 -2.45
Si  3.63 -7.13  2.45
Si -1.04  6.87  4.89
Si  1.04 -6.87 -4.89
Si -8.51  0.00  0.00
Si  8.51  0.00  0.00
Si  4.79  7.05  0.00
Si -4.79 -7.05  0.00
Si  0.12  4.44  7.34
Si -0.12 -4.44 -7.34
Si  5.15 -4.87  4.89
Si -5.15  4.87 -4.89
Si -5.47  4.52  4.89
Si  5.47 -4.52 -4.89
Si  1.80  6.87  4.89
Si -1.80 -6.87 -4.89
Si -3.83  2.61 -7.34
Si  3.83 -2.61  7.34
Si -4.19 -2.09 -7.34
Si  4.19  2.09  7.34
Si -6.75  2.52 -4.89
Si  6.75 -2.52  4.89
Si -0.72  7.22 -4.89
Si  0.72 -7.22  4.89
Si  4.71  6.96  2.45
Si -4.71 -6.96 -2.45
Si  4.31 -2.09 -7.34
Si -4.31  2.09  7.34
Si -8.43  0.09 -2.45
Si  8.43 -0.09  2.45
Si  7.07 -2.17 -4.89
Si -7.07  2.17  4.89
Si -0.60 -4.96  7.34
Si  0.60  4.96 -7.34
Si -5.87 -4.52 -4.89
Si  5.87  4.52  4.89
Si -7.11 -2.17 -4.89
Si  7.11  2.17  4.89
Si  8.59  0.09 -2.45
Si -8.59 -0.09  2.45
Si  2.12  7.22 -4.89
Si -2.12 -7.22  4.89
Si -4.88 -7.13  2.45
Si  4.88  7.13 -2.45
Si -2.71  4.44  7.34
Si  2.71 -4.44 -7.34
Si  2.96  4.44  7.34
Si -2.96 -4.44 -7.34
Si  4.67  2.61 -7.34
Si -4.67 -2.61  7.34
Si -5.43  0.26 -7.34
Si  5.43 -0.26  7.34
Si -2.23  4.96 -7.34
Si  2.23 -4.96  7.34
Si  7.43  2.52 -4.89
Si -7.43 -2.52  4.89
Si  6.19  4.87 -4.89
Si -6.19 -4.87  4.89
Si  3.87 -6.87 -4.89
Si -3.87  6.87  4.89
Si  8.15 -4.70  0.00
Si -8.15  4.70  0.00
Si  3.55 -7.22  4.89
Si -3.55  7.22 -4.89
Si  0.72  9.40  0.00
Si -0.72 -9.40  0.00
Si -5.91 -0.26  7.34
Si  5.91  0.26 -7.34
Si  3.44  4.96 -7.34
Si -3.44 -4.96  7.34
Si -6.55  7.05  0.00
Si  6.55 -7.05  0.00
Si -4.63 -6.87 -4.89
Si  4.63  6.87  4.89
Si  2.11 -9.40  0.00
Si -2.11  9.40  0.00
Si  0.64  9.31  2.45
Si -0.64 -9.31 -2.45
Si  8.35 -0.17  4.89
Si -8.35  0.17 -4.89
Si  8.07 -4.79  2.45
Si -8.07  4.79 -2.45
Si -8.23  4.61  2.45
Si  8.23 -4.61 -2.45
Si  0.32  0.35 -9.79
Si -0.32 -0.35  9.79
Si -0.80 -9.48  2.45
Si  0.80  9.48 -2.45
Si  2.19 -9.31 -2.45
Si -2.19  9.31  2.45
Si -6.63  6.96  2.45
Si  6.63 -6.96 -2.45
Si  6.47 -7.13  2.45
Si -6.47  7.13 -2.45
Si -8.67 -0.17  4.89
Si  8.67  0.17 -4.89
Si  2.03 -9.48  2.45
Si -2.03  9.48 -2.45
Si  9.74 -2.35  0.00
Si -9.74  2.35  0.00
Si  4.96  7.22 -4.89
Si -4.96 -7.22  4.89
Si  8.87  4.70  0.00
Si -8.87 -4.70  0.00
Si -3.56 -9.40  0.00
Si  3.56  9.40  0.00
Si  1.12 -6.79 -7.34
Si -1.12  6.79  7.34
Si  1.28  2.00  9.79
Si -1.28 -2.00 -9.79
Si -1.56  2.00  9.79
Si  1.56 -2.00 -9.79
Si -2.52  0.35 -9.79
Si  2.52 -0.35  9.79
Si  1.72  6.79  7.34
Si -1.72 -6.79 -7.34
Si -0.92  2.70 -9.79
Si  0.92 -2.70  9.79
Si  5.07 -4.96  7.34
Si -5.07  4.96 -7.34
Si -5.55  4.44  7.34
Si  5.55 -4.44 -7.34
Si -8.79 -4.61 -2.45
Si  8.79  4.61  2.45
Si -3.48 -9.31 -2.45
Si  3.48  9.31  2.45
Si  6.67 -2.61  7.34
Si -6.67  2.61 -7.34
Si  9.66 -2.44  2.45
Si -9.66  2.44 -2.45
Si -3.16 -0.35  9.79
Si  3.16  0.35 -9.79
Si  1.92  2.70 -9.79
Si -1.92 -2.70  9.79
Si  5.79  4.44  7.34
Si -5.79 -4.44 -7.34
Si  9.82 -2.26 -2.45
Si -9.82  2.26  2.45
Si -10.11 -2.35  0.00
Si 10.11  2.35  0.00
Si  7.03  2.09  7.34
Si -7.03 -2.09 -7.34
Si  0.64 -7.31  7.34
Si -0.64  7.31 -7.34
Si  7.63  7.05  0.00
Si -7.63 -7.05  0.00
Si -8.95 -4.79  2.45
Si  8.95  4.79 -2.45
Si -3.64 -9.48  2.45
Si  3.64  9.48 -2.45
Si -0.56 -9.22 -4.89
Si  0.56  9.22  4.89
Si -7.15  2.09  7.34
Si  7.15 -2.09 -7.34
Si -7.55 -6.96 -2.45
Si  7.55  6.96  2.45
Si -7.99  4.87 -4.89
Si  7.99 -4.87  4.89
Si 10.02  2.26  2.45
Si -10.02 -2.26 -2.45
Si  2.20  7.31 -7.34
Si -2.20 -7.31  7.34
Si -4.95  9.40  0.00
Si  4.95 -9.40  0.00
Si  8.31 -4.52 -4.89
Si -8.31  4.52  4.89
Si  2.27 -9.22 -4.89
Si -2.27  9.22  4.89
Si  0.04  4.35  9.79
Si -0.04 -4.35 -9.79
Si  3.95 -6.79 -7.34
Si -3.95  6.79  7.34
Si -10.19 -2.44  2.45
Si 10.19  2.44 -2.45
Si  6.71 -6.87 -4.89
Si -6.71  6.87  4.89
Si -0.88 -9.57  4.89
Si  0.88  9.57 -4.89
Si -7.71 -7.13  2.45
Si  7.71  7.13 -2.45
Si  4.11  2.00  9.79
Si -4.11 -2.00 -9.79
Si -6.39  7.22 -4.89
Si  6.39 -7.22  4.89
Si -7.51 -2.61  7.34
Si  7.51  2.61 -7.34
Si -3.75  2.70 -9.79
Si  3.75 -2.70  9.79
Si  6.27  4.96 -7.34
Si -6.27 -4.96  7.34
Si -5.03  9.31  2.45
Si  5.03 -9.31 -2.45
Si  4.39 -2.00 -9.79
Si -4.39  2.00  9.79
Si  3.47 -7.31  7.34
Si -3.47  7.31 -7.34
Si -1.95  9.57 -4.89
Si  1.95 -9.57  4.89
Si -4.87  9.48 -2.45
Si  4.87 -9.48  2.45
Si  8.71  4.52  4.89
Si -8.71 -4.52 -4.89
Si  3.40  9.22  4.89
Si -3.40 -9.22 -4.89
Si  4.55  6.79  7.34
Si -4.55 -6.79 -7.34
Si -0.68 -5.05  9.79
Si  0.68  5.05 -9.79
Si  9.58 -2.52  4.89
Si -9.58  2.52 -4.89
Si  8.27 -0.26  7.34
Si -8.27  0.26 -7.34
Si  2.80 -4.35 -9.79
Si -2.80  4.35  9.79
Si -2.88 -4.35 -9.79
Si  2.88  4.35  9.79
Si  5.35 -0.35  9.79
Si -5.35  0.35 -9.79
Si -4.75 -2.70  9.79
Si  4.75  2.70 -9.79
Si -2.15  5.05 -9.79
Si  2.15 -5.05  9.79
Si  9.90 -2.17 -4.89
Si -9.90  2.17  4.89
Si -7.47 -6.87 -4.89
Si  7.47  6.87  4.89
Si  9.94  2.17  4.89
Si -9.94 -2.17 -4.89
Si 11.34  0.00  0.00
Si -11.34  0.00  0.00
Si  6.39  9.40  0.00
Si -6.39 -9.40  0.00
Si  9.03  4.87 -4.89
Si -9.03 -4.87  4.89
Si -3.72 -9.57  4.89
Si  3.72  9.57 -4.89
Si -8.75 -0.26  7.34
Si  8.75  0.26 -7.34
Si  5.99  0.35 -9.79
Si -5.99 -0.35  9.79
Si -6.31 -9.31 -2.45
Si  6.31  9.31  2.45
Si  5.04  7.31 -7.34
Si -5.04 -7.31  7.34
Si -11.26  0.09 -2.45
Si 11.26 -0.09  2.45
Si  3.52  5.05 -9.79
Si -3.52 -5.05  9.79
Si -5.11  9.22  4.89
Si  5.11 -9.22 -4.89
Si -10.27 -2.52  4.89
Si 10.27  2.52 -4.89
Si -11.42 -0.09  2.45
Si 11.42  0.09 -2.45
Si -7.79 -7.22  4.89
Si  7.79  7.22 -4.89
Si -0.48 -9.14 -7.34
Si  0.48  9.14  7.34
Si  9.38 -7.05  0.00
Si -9.38  7.05  0.00
Si  6.47  9.48 -2.45
Si -6.47 -9.48  2.45
Si  0.52 -11.75  0.00
Si -0.52 11.75  0.00
Si  4.79 -9.57  4.89
Si -4.79  9.57 -4.89
Si  7.91 -4.96  7.34
Si -7.91  4.96 -7.34
Si -1.20  6.70  9.79
Si  1.20 -6.70 -9.79
Si -0.60 11.66  2.45
Si  0.60 -11.66 -2.45
Si -10.98  4.70  0.00
Si 10.98 -4.70  0.00
Si -2.35  9.14  7.34
Si  2.35 -9.14 -7.34
Si  2.32 11.75  0.00
Si -2.32 -11.75  0.00
Si  1.64  6.70  9.79
Si -1.64 -6.70 -9.79
Si  9.30 -7.13  2.45
Si -9.30  7.13 -2.45
Si -8.39  4.44  7.34
Si  8.39 -4.44 -7.34
Si  9.46 -6.96 -2.45
Si -9.46  6.96  2.45
Si -6.79  6.79  7.34
Si  6.79 -6.79 -7.34
Si  4.99 -5.05  9.79
Si -4.99  5.05 -9.79
Si  0.44 -11.83  2.45
Si -0.44 11.83 -2.45
Si  5.63 -4.35 -9.79
Si -5.63  4.35  9.79
Si  6.59 -2.70  9.79
Si -6.59  2.70 -9.79
Si  2.24 11.66  2.45
Si -2.24 -11.66 -2.45
Si  6.31 -7.31  7.34
Si -6.31  7.31 -7.34
Si -5.71 -4.35 -9.79
Si  5.71  4.35  9.79
Si 10.90 -4.79  2.45
Si -10.90  4.79 -2.45
Si -6.23 -9.22 -4.89
Si  6.23  9.22  4.89
Si -8.63 -4.44 -7.34
Si  8.63  4.44  7.34
Si  6.95  2.00  9.79
Si -6.95 -2.00 -9.79
Si  0.96  9.66 -7.34
Si -0.96 -9.66  7.34
Si -3.32 -9.14 -7.34
Si  3.32  9.14  7.34
Si  7.79 -9.40  0.00
Si -7.79  9.40  0.00
Si 11.18 -0.17  4.89
Si -11.18  0.17 -4.89
Si  3.35 -11.75  0.00
Si -3.35 11.75  0.00
Si 11.06 -4.61 -2.45
Si -11.06  4.61  2.45
Si  0.40  0.44 -12.23
Si -0.40 -0.44 12.23
Si  1.87 -9.66  7.34
Si -1.87  9.66 -7.34
Si  0.56 -7.40  9.79
Si -0.56  7.40 -9.79
Si  9.50 -2.61  7.34
Si -9.50  2.61 -7.34
Si -2.40 -11.83  2.45
Si  2.40 11.83 -2.45
Si -7.23  2.00  9.79
Si  7.23 -2.00 -9.79
Si -3.43 11.66  2.45
Si  3.43 -11.66 -2.45
Si  7.87 -9.31 -2.45
Si -7.87  9.31  2.45
Si  7.39  6.79  7.34
Si -7.39 -6.79 -7.34
Si  1.20  1.91 12.23
Si -1.20 -1.91 -12.23
Si  7.71 -9.48  2.45
Si -7.71  9.48 -2.45
Si  9.86  2.09  7.34
Si -9.86 -2.09 -7.34
Si -2.28 -7.40  9.79
Si  2.28  7.40 -9.79
Si  2.43 -0.44 12.23
Si -2.43  0.44 -12.23
Si  1.64 -1.91 -12.23
