500
set: 1153.00  0.00  0.00
Si -0.04  0.02 -0.02
Si  0.01  0.04  2.35
Si -0.03 -0.04 -2.40
Si  2.47 -0.01  0.07
Si  1.24  2.17  0.04
Si -1.24 -2.18 -0.04
Si  1.25 -2.17  0.08
Si -2.56 -0.05 -0.04
Si -1.28  2.22 -0.06
Si -2.46  0.04  2.33
Si  1.32 -2.14 -2.29
Si  1.18  2.18 -2.36
Si  1.19 -2.13  2.44
Si  2.54  0.04 -2.35
Si -2.53 -0.06 -2.38
Si -1.26 -2.21  2.38
Si  1.24  2.23  2.43
Si -1.22 -2.25 -2.42
Si -1.32  2.26  2.39
Si  2.60  0.07  2.43
Si -1.31  2.20 -2.48
Si  3.82 -2.11 -0.04
Si  0.01  4.37  0.03
Si -3.80 -2.19 -0.02
Si -3.76  2.25  0.06
Si  3.81  2.17 -0.05
Si  0.04 -4.41  0.05
Si -0.08 -0.01  4.75
Si -0.08 -0.01 -4.81
Si  3.76 -2.15  2.34
Si -3.80  2.16 -2.32
Si -3.79 -2.25  2.36
Si -3.78 -2.21 -2.42
Si  3.84  2.19  2.35
Si -0.02 -4.41 -2.37
Si -0.03  4.38 -2.42
Si  3.82 -2.18 -2.41
Si  0.07 -4.40  2.44
Si -3.83  2.20  2.41
Si  2.51  4.37  0.02
Si  2.64 -4.29 -0.04
Si  3.85  2.17 -2.46
Si -0.00  4.45  2.40
Si -5.06  0.04  0.03
Si -2.54 -4.41  0.02
Si  5.09  0.04  0.03
Si -2.46  4.49 -0.04
Si  1.27 -2.11 -4.72
Si  1.26  2.14 -4.78
Si  1.26  2.14  4.78
Si  2.50 -0.01  4.77
Si  2.50 -0.01 -4.79
Si -1.26  2.19  4.78
Si -1.26  2.19 -4.78
Si -2.61 -0.05  4.75
Si -1.25 -2.24  4.78
Si -1.25 -2.24 -4.79
Si  1.27 -2.11  4.85
Si -2.61 -0.05 -4.81
Si  2.52  4.27 -2.40
Si -4.97 -0.06  2.42
Si -5.05 -0.01 -2.37
Si  2.59 -4.34  2.37
Si  2.54 -4.36 -2.40
Si -2.49 -4.41  2.37
Si  2.56  4.37  2.37
Si -2.52  4.44  2.37
Si  5.11 -0.01 -2.37
Si -2.57  4.42 -2.40
Si -2.53 -4.50 -2.40
Si  5.18 -0.06  2.42
Si -3.77  2.12 -4.74
Si -0.02  4.38 -4.77
Si -3.77  2.12  4.82
Si  3.81  2.21  4.75
Si  3.79 -2.20  4.78
Si  3.79 -2.20 -4.78
Si -0.02  4.38  4.80
Si  0.02 -4.42 -4.76
Si  3.81  2.21 -4.81
Si  0.02 -4.42  4.80
Si -3.87 -2.24  4.76
Si -3.87 -2.24 -4.80
Si  1.34 -6.53  0.06
Si -6.33 -2.11 -0.04
Si -5.06  4.37  0.05
Si -5.05 -4.41  0.03
Si -6.34  2.17 -0.05
Si  1.25  6.59 -0.02
Si  5.09  4.37  0.05
Si -1.24 -6.60 -0.05
Si  6.36 -2.19 -0.02
Si  5.11 -4.41  0.03
Si  6.39  2.25  0.06
Si -1.28  6.67 -0.04
Si  2.51 -4.38 -4.74
Si  5.05 -0.01  4.75
Si  2.50  4.37  4.77
Si  2.50  4.37 -4.79
Si -2.59  4.40 -4.74
Si  5.05 -0.01 -4.81
Si -2.55 -4.40  4.77
Si -5.11 -0.01  4.75
Si  2.51 -4.38  4.82
Si -2.55 -4.40 -4.79
Si -5.11 -0.01 -4.81
Si -2.59  4.40  4.82
Si  1.26  6.53  2.36
Si  5.03  4.37 -2.37
Si -5.05 -4.33  2.40
Si -6.31  2.19  2.35
Si -1.21 -6.59  2.35
Si  6.36  2.16 -2.32
Si -5.03  4.38  2.44
Si  5.10 -4.33  2.40
Si -6.31  2.17 -2.46
Si  1.27  6.57 -2.42
Si -6.33 -2.18 -2.41
Si  6.32  2.20  2.41
Si  1.27 -6.57  2.41
Si  5.07 -4.39 -2.42
Si  1.30 -6.62 -2.32
Si -1.28  6.60 -2.41
Si -5.12  4.37 -2.37
Si -6.39 -2.15  2.34
Si -5.08 -4.39 -2.42
Si -1.34  6.62  2.34
Si  6.37 -2.25  2.36
Si -1.20 -6.61 -2.46
Si -0.03 -0.04  7.16
Si  5.12  4.38  2.44
Si  6.37 -2.21 -2.42
Si  0.01  0.04 -7.21
Si -1.31  2.20  7.08
Si  1.19 -2.13 -7.12
Si  1.24  2.23 -7.13
Si -1.22 -2.25  7.14
Si  3.82 -6.56 -0.06
Si  2.60  0.07 -7.13
Si  7.60 -0.05 -0.04
Si -2.53 -0.06  7.18
Si  1.18  2.18  7.21
Si  3.81  6.60 -0.04
Si -1.26 -2.21 -7.19
Si -3.81 -6.61  0.04
Si -1.32  2.26 -7.18
Si -2.46  0.04 -7.23
Si  2.54  0.04  7.21
Si -3.85  6.60  0.08
Si -7.68 -0.01  0.07
Si  1.32 -2.14  7.27
Si  3.79 -6.51  2.39
Si -7.56  0.07  2.43
Si  3.79  6.56  2.38
Si  3.83  6.52 -2.42
Si -3.81 -6.55  2.43
Si -7.61  0.04 -2.35
Si -3.78  6.63 -2.29
Si  3.79 -6.58 -2.48
Si  7.63 -0.06 -2.38
Si -3.88 -6.59 -2.36
Si  7.69  0.04  2.33
Si -3.92  6.65  2.44
Si  1.18  6.54  4.76
Si  1.18  6.54 -4.80
Si -1.24 -6.56  4.75
Si  6.29 -2.24  4.76
Si  5.07  4.35 -4.76
Si -5.08  4.35 -4.76
Si  6.29 -2.24 -4.80
Si  6.38  2.12 -4.74
Si -5.07 -4.39 -4.77
Si -6.34  2.21  4.75
Si  5.07  4.35  4.80
Si -1.24 -6.56 -4.81
Si -5.08  4.35  4.80
Si -1.31  6.58 -4.78
Si -1.31  6.58  4.78
Si  5.09 -4.39 -4.77
Si -5.07 -4.39  4.80
Si  5.09 -4.39  4.80
Si -6.36 -2.20  4.78
Si -6.36 -2.20 -4.78
Si -6.34  2.21 -4.81
Si  6.38  2.12  4.82
Si  1.33 -6.65 -4.74
Si  1.33 -6.65  4.82
Si  3.85  2.17  7.10
Si  0.07 -4.40 -7.12
Si -3.78 -2.21  7.14
Si -0.03  4.38  7.14
Si  3.82 -2.18  7.16
Si -3.83  2.20 -7.15
Si  3.76 -2.15 -7.22
Si -0.00  4.45 -7.16
Si -0.02 -4.41  7.19
Si -3.79 -2.25 -7.21
Si -3.80  2.16  7.24
Si  3.84  2.19 -7.21
Si -7.51 -4.29 -0.04
Si -4.97 -0.06 -7.15
Si  2.52  4.27  7.16
Si  0.04 -8.73  0.03
Si  2.54 -4.36  7.16
Si -5.05 -0.01  7.20
Si  2.59 -4.34 -7.20
Si -2.57  4.42  7.16
Si -2.49 -4.41 -7.20
Si  2.56  4.37 -7.20
Si -7.64  4.37  0.02
Si  7.62 -4.41  0.02
Si -0.01  8.82  0.03
Si -2.52  4.44 -7.20
Si  5.11 -0.01  7.20
Si -2.53 -4.50  7.16
Si  5.18 -0.06 -7.15
Si  7.69  4.49 -0.04
Si  7.54 -0.05  4.75
Si  3.80  6.53  4.78
Si  3.80  6.53 -4.79
Si  7.54 -0.05 -4.81
Si  3.84 -6.58  4.78
Si  3.84 -6.58 -4.78
Si -7.65 -0.01  4.77
Si -3.83  6.66 -4.72
Si -3.79 -6.64 -4.78
Si -3.79 -6.64  4.78
Si -7.65 -0.01 -4.79
Si -7.57 -4.34  2.37
Si  0.08  8.71  2.42
Si  2.49  8.72 -0.04
Si -7.59  4.37  2.37
Si -7.63  4.27 -2.40
Si  0.00  8.77 -2.37
Si -3.83  6.66  4.85
Si  0.06 -8.78 -2.37
Si -7.62 -4.36 -2.40
Si  7.59  4.42 -2.40
Si -6.33 -6.56 -0.06
Si  6.30  6.60  0.08
Si  7.64  4.44  2.37
Si  8.88  2.22 -0.06
Si -2.58 -8.78  0.07
Si -6.34  6.60 -0.04
Si  7.67 -4.41  2.37
Si -2.63  8.77  0.07
Si  6.34 -6.61  0.04
Si  0.14 -8.84  2.42
Si -8.90 -2.17  0.08
Si -8.91  2.17  0.04
Si  7.62 -4.50 -2.40
Si  8.91 -2.18 -0.04
Si  2.55 -8.83 -0.04
Si -2.45 -8.71  2.43
Si -8.83 -2.14 -2.29
Si  2.52  8.72 -2.38
Si -2.51 -8.73 -2.35
Si -6.32  6.52 -2.42
Si  6.28 -6.59 -2.36
Si -6.37 -6.51  2.39
Si  2.64 -8.74  2.33
Si  8.84  2.26  2.39
Si  6.34 -6.55  2.43
Si  6.24  6.65  2.44
Si  8.84  2.20 -2.48
Si -6.37  6.56  2.38
Si  8.89 -2.21  2.38
Si  2.58  8.81  2.33
Si  6.37  6.63 -2.29
Si -2.56  8.82 -2.35
Si -6.36 -6.58 -2.48
Si -8.91  2.23  2.43
Si  2.58 -8.84 -2.38
Si -2.50  8.85  2.43
Si  8.94 -2.25 -2.42
Si -8.97 -2.13  2.44
Si -8.98  2.18 -2.36
Si -0.04  0.02  9.54
Si -0.04  0.01 -9.58
Si -6.31  2.17  7.10
Si -5.03  4.38 -7.12
Si -5.05 -4.33 -7.16
Si -1.20 -6.61  7.10
Si  1.27  6.57  7.14
Si  6.32  2.20 -7.15
Si  1.27 -6.57 -7.15
Si  5.07 -4.39  7.14
Si -6.33 -2.18  7.16
Si  5.03  4.37  7.19
Si  5.10 -4.33 -7.16
Si  1.26  6.53 -7.21
Si  5.12  4.38 -7.12
Si -5.08 -4.39  7.14
Si  2.47 -0.01 -9.49
Si  1.25 -2.17 -9.48
Si -1.28  6.60  7.16
Si  6.37 -2.21  7.14
Si -6.31  2.19 -7.21
Si  1.24  2.17 -9.52
Si -1.21 -6.59 -7.21
Si -1.28  2.22  9.51
Si -1.24 -2.18  9.53
Si -5.12  4.37  7.19
Si -2.56 -0.05  9.52
Si  6.36  2.16  7.24
Si  6.37 -2.25 -7.21
Si -6.39 -2.15 -7.22
Si -1.34  6.62 -7.22
Si  1.30 -6.62  7.24
Si -1.24 -2.18 -9.60
Si  1.24  2.17  9.61
Si -2.56 -0.05 -9.61
Si  2.47 -0.01  9.63
Si  7.56  4.40 -4.74
Si -1.28  2.22 -9.62
Si  1.25 -2.17  9.64
Si -0.06  8.76  4.75
Si  7.56  4.40  4.82
Si -0.00 -8.79  4.75
Si -0.06  8.76 -4.81
Si  7.61 -4.40  4.77
Si -7.64 -4.38 -4.74
Si  7.61 -4.40 -4.79
Si -0.00 -8.79 -4.81
Si -7.65  4.37  4.77
Si -7.65  4.37 -4.79
Si -7.64 -4.38  4.82
Si 10.12  0.02 -0.02
Si  5.07 -8.76 -0.02
Si  5.01  8.79 -0.02
Si -5.09 -8.76 -0.02
Si -5.14  8.79 -0.02
Si -10.19  0.02 -0.02
Si  2.44  8.73  4.75
Si  2.44  8.73 -4.81
Si -8.88 -2.11 -4.72
Si -6.35  6.53  4.78
Si -6.35  6.53 -4.79
Si -6.31 -6.58  4.78
Si -6.31 -6.58 -4.78
Si -2.60  8.77  4.77
Si -2.55 -8.79  4.77
Si -2.60  8.77 -4.79
Si -8.89  2.14 -4.78
Si -8.89  2.14  4.78
Si -2.55 -8.79 -4.79
Si  2.50 -8.82  4.75
Si  6.32  6.66 -4.72
Si  8.89  2.19  4.78
Si  8.89  2.19 -4.78
Si -8.88 -2.11  4.85
Si  8.90 -2.24  4.78
Si -5.04 -8.73  2.35
Si  8.90 -2.24 -4.79
Si  5.02  8.73 -2.40
Si  2.50 -8.82 -4.81
Si  6.36 -6.64 -4.78
Si  6.36 -6.64  4.78
Si  3.79 -6.58  7.08
Si  6.32  6.66  4.85
Si  5.12 -8.73  2.35
Si -7.56  0.07 -7.13
Si 10.12 -0.04 -2.40
Si  3.83  6.52  7.14
Si  3.79 -6.51 -7.18
Si -3.81 -6.55 -7.13
Si -10.14  0.04  2.35
Si -5.13  8.73 -2.40
Si 10.17  0.04  2.35
Si  5.06  8.82  2.35
Si  3.79  6.56 -7.19
Si -5.09  8.82  2.35
Si  5.07 -8.82 -2.40
Si -5.08 -8.82 -2.40
Si -10.19 -0.04 -2.40
Si -3.76  2.25 -9.51
Si  7.63 -0.06  7.18
Si  3.82 -2.11  9.52
Si  3.81  2.17  9.52
Si -7.61  0.04  7.21
Si  0.01  4.37 -9.53
Si  0.04 -4.41 -9.52
Si -3.80 -2.19  9.54
Si -3.92  6.65 -7.12
Si -3.88 -6.59  7.21
Si -3.80 -2.19 -9.58
Si -3.78  6.63  7.27
Si  0.01  4.37  9.60
Si  3.82 -2.11 -9.60
Si  7.69  0.04 -7.23
Si  3.81  2.17 -9.61
Si -3.76  2.25  9.62
Si  0.04 -4.41  9.61
Si  2.64 -4.29  9.52
Si  2.51  4.37 -9.54
Si -5.06  0.04 -9.53
Si  5.09  0.04 -9.53
Si -2.46  4.49  9.52
Si -2.54 -4.41 -9.54
Si  2.51  4.37  9.59
Si  2.64 -4.29 -9.60
Si -5.06  0.04  9.60
Si -2.54 -4.41  9.59
Si  5.09  0.04  9.60
Si -2.46  4.49 -9.60
Si -1.23 -10.88 -0.04
Si -8.81 -6.53  0.06
Si -1.29 10.95 -0.05
Si -10.11 -4.41  0.05
Si  1.31 -10.96 -0.02
Si -10.15  4.37  0.03
Si 10.16  4.37  0.03
Si -8.90  6.59 -0.02
Si  8.91 -6.60 -0.05
Si  8.87  6.67 -0.04
Si  1.29 11.03  0.06
Si 10.20 -4.41  0.05
Si 10.07 -0.01  4.75
Si  4.97  8.77  4.75
Si 10.07 -0.01 -4.81
Si  4.97  8.77 -4.81
Si  5.02 -8.78  4.75
Si  5.02 -8.78 -4.81
Si -5.13 -8.78  4.75
Si -5.19  8.77  4.75
Si  1.25 10.94 -2.32
Si -1.29 -10.93  2.34
Si -5.13 -8.78 -4.81
Si -10.08 -4.40  2.44
Si -5.19  8.77 -4.81
Si  8.81  6.62  2.34
Si  0.08  8.71 -7.15
Si -8.89  6.53  2.36
Si -1.26 10.96  2.35
Si -1.23 -10.96 -2.41
Si -1.26 10.94 -2.46
Si -10.24 -0.01  4.75
Si -8.85 -6.62 -2.32
Si 10.12  4.38 -2.42
Si 10.13 -4.41 -2.37
Si -7.63  4.27  7.16
Si  1.22 10.98  2.41
Si -7.57 -4.34 -7.20
Si -8.88  6.57 -2.42
Si -8.88 -6.57  2.41
Si -10.24 -0.01 -4.81
Si  8.87  6.60 -2.41
Si -7.62 -4.36  7.16
Si  1.32 -10.99 -2.42
Si  7.59  4.42  7.16
Si -7.59  4.37 -7.20
Si -10.17 -4.41 -2.37
Si 10.15  4.45  2.40
Si -10.15  4.45  2.40
Si  0.00  8.77  7.20
Si  1.32 -11.03  2.36
Si -10.19  4.38 -2.42
Si  0.06 -8.78  7.20
Si  8.95 -6.59  2.35
Si  0.14 -8.84 -7.15
Si  7.62 -4.50  7.16
Si 10.23 -4.40  2.44
Si  8.95 -6.61 -2.46
Si  7.64  4.44 -7.20
Si  7.67 -4.41 -7.20
Si -2.45 -8.71 -7.13
Si  8.84  2.20  7.08
Si -6.32  6.52  7.14
Si  7.53  8.77  0.07
Si -6.36 -6.58  7.08
Si  6.24  6.65 -7.12
Si  2.52  8.72  7.18
Si  6.34 -6.55 -7.13
Si -3.80 -10.95  0.08
Si -6.37 -6.51 -7.18
Si -2.51 -8.73  7.21
Si 11.39  2.17  0.04
Si  7.58 -8.78  0.07
Si -11.39 -2.18 -0.04
Si -3.86 10.94  0.04
Si  8.84  2.26 -7.18
Si 11.40 -2.17  0.08
Si -7.66  8.72 -0.04
Si  1.34 -6.53 -9.51
Si  6.28 -6.59  7.21
Si  3.86 -10.95 -0.04
Si  3.77 10.99 -0.06
Si -6.33 -2.11  9.52
Si -6.37  6.56 -7.19
Si -8.91  2.23 -7.13
Si -5.06  4.37 -9.52
Si -2.50  8.85 -7.13
Si -8.83 -2.14  7.27
Si -6.34  2.17  9.52
Si  2.64 -8.74 -7.23
Si  5.09  4.37 -9.52
Si  8.89 -2.21 -7.19
Si -11.43  2.22 -0.06
Si -8.97 -2.13 -7.12
Si -5.05 -4.41 -9.53
