500
set: 1528.00  0.00  0.00
Si -0.47 -1.50 -0.42
Si  1.99 -0.22 -0.10
Si  0.64 -0.12  2.11
Si  0.81  1.27 -1.78
Si -1.67  1.06  1.38
Si -1.41  2.06 -0.74
Si -0.52 -0.36 -2.54
Si -2.73 -0.22 -0.10
Si  0.63 -2.19  2.10
Si  3.06  1.06  1.38
Si  1.90 -2.91 -0.74
Si  0.95  3.47 -0.42
Si  3.31  2.06 -0.74
Si  2.05  2.77  2.10
Si -2.83 -2.91 -0.74
Si -0.61 -3.69 -1.78
Si -0.38 -0.77  4.23
Si  1.82 -0.15 -3.92
Si -0.29  2.57  3.48
Si -2.68  2.77  2.10
Si  1.64 -3.91  1.38
Si -3.91  1.27 -1.78
Si  4.26 -1.50 -0.42
Si -1.71 -2.40  3.48
Si -4.09 -0.12  2.11
Si  1.83  1.92 -3.91
Si -2.90 -0.15 -3.92
Si -1.32  4.75 -0.10
Si  4.21 -0.36 -2.54
Si  0.41 -3.04 -3.91
Si -4.09 -2.19  2.10
Si -3.78  3.47 -0.42
Si -3.09 -3.91  1.38
Si  3.01 -2.40  3.48
Si  0.57 -5.19 -0.10
Si -2.90  1.92 -3.91
Si  0.90  4.61 -2.54
Si -1.90 -1.87 -4.63
Si -5.20 -1.50 -0.42
Si -0.78 -5.08  2.11
Si -0.48  3.10 -4.63
Si  2.06  4.85  2.11
Si  2.12  0.01  5.27
Si  2.83 -1.87 -4.63
Si  5.36 -0.12  2.11
Si -0.24  1.43  5.59
Si  4.12 -3.69 -1.78
Si -5.25 -0.36 -2.54
Si  3.41  4.75 -0.10
Si -2.60  0.01  5.27
Si -2.67  4.85  2.11
Si  5.54  1.27 -1.78
Si  1.04  4.20  4.23
Si  4.34 -0.77  4.23
Si  5.36 -2.19  2.10
Si -0.25  6.03  1.38
Si  4.43  2.57  3.48
Si -1.94 -5.32 -2.54
Si -1.48  4.82 -3.92
Si  0.80 -2.26  5.91
Si  0.41 -5.12 -3.92
Si  0.72  0.54 -6.44
Si -3.83  4.61 -2.54
Si -6.14  2.06 -0.74
Si  2.79 -5.32 -2.54
Si -1.54  1.82 -6.12
Si -4.32 -3.04 -3.91
Si -5.02  2.57  3.48
Si -6.40  1.06  1.38
Si -4.15 -5.19 -0.10
Si  5.67  3.47 -0.42
Si -5.11 -0.77  4.23
Si  6.72 -0.22 -0.10
Si -5.33 -3.69 -1.78
Si -1.89 -6.47 -0.42
Si  3.94 -5.08  2.11
Si -1.66 -3.54  5.59
Si  2.23  6.24 -1.78
Si  2.22  2.70  5.91
Si -2.50  6.24 -1.78
Si -2.51  2.70  5.91
Si  3.24  4.82 -3.92
Si  4.25  3.10 -4.63
Si -1.64 -0.87 -6.76
Si -3.69  4.20  4.23
Si  0.01  7.02 -0.74
Si  2.84 -6.47 -0.42
Si  1.77 -3.15 -6.12
Si  3.18  1.82 -6.12
Si  5.14 -3.04 -3.91
Si  0.70 -4.95  5.27
Si  6.62 -2.91 -0.74
Si  3.06 -3.54  5.59
Si  4.48  1.43  5.59
Si -1.80 -5.73  4.23
Si -1.19  4.98  5.27
Si  5.30 -5.19 -0.10
Si -3.93 -2.26  5.91
Si -7.46 -0.22 -0.10
Si  3.09 -0.87 -6.76
Si -2.96 -3.15 -6.12
Si -0.79 -7.16  2.10
Si  6.36 -3.91  1.38
Si -4.00  0.54 -6.44
Si -4.97  1.43  5.59
Si  6.78  2.77  2.10
Si -5.20  3.10 -4.63
Si  4.47  6.03  1.38
Si  6.55 -0.15 -3.92
Si -6.04  4.75 -0.10
Si  1.86 -0.98  7.40
Si -6.44 -2.40  3.48
Si  5.62  4.61 -2.54
Si  2.93 -5.73  4.23
Si -4.32 -5.12 -3.92
Si -5.51 -5.08  2.11
Si -0.70 -4.43 -6.44
Si  6.55  1.92 -3.91
Si -0.22  4.10 -6.76
Si  0.48 -7.88 -0.74
Si -4.98  6.03  1.38
Si  7.78  1.06  1.38
Si -2.86 -0.98  7.40
Si  0.59 -1.65 -7.80
Si -1.48  6.89 -3.91
Si  3.54  4.98  5.27
Si -1.26  7.74  2.10
Si -7.55 -2.91 -0.74
Si -7.40  2.77  2.10
Si  0.86  0.73  8.12
Si  5.13 -5.12 -3.92
Si -4.02 -4.95  5.27
Si  5.76  4.20  4.23
Si -6.62 -1.87 -4.63
Si  1.60 -7.36  3.48
Si  8.04  2.06 -0.74
Si  1.41 -6.83 -4.63
Si  1.12  7.54  3.48
Si  5.53 -2.26  5.91
Si -0.56 -2.16  8.12
Si  3.94 -7.16  2.10
Si  5.45  0.54 -6.44
Si -4.72  7.02 -0.74
Si  4.73  7.02 -0.74
Si -1.45  3.98  7.40
Si  3.25  6.89 -3.91
Si  1.17  6.39  5.59
Si -7.63 -0.15 -3.92
Si  6.78  4.85  2.11
Si  0.86  2.81  8.12
Si  6.85  0.01  5.27
Si  2.00  3.31 -7.80
Si -3.13 -7.36  3.48
Si  3.47  7.74  2.10
Si  2.14  5.51 -6.44
Si  0.67  1.69 -8.55
Si -2.36  8.43 -0.42
Si  2.37  8.43 -0.42
Si -6.21  4.82 -3.92
Si -7.62  1.92 -3.91
Si  4.03 -4.43 -6.44
Si  7.74 -2.40  3.48
Si -7.82 -3.91  1.38
Si -2.59  5.51 -6.44
Si -3.31 -6.83 -4.63
Si -6.66 -5.32 -2.54
Si -2.72  3.31 -7.80
Si -8.64  1.27 -1.78
Si -6.27  1.82 -6.12
Si -1.01 -8.01 -3.91
Si -4.25 -7.88 -0.74
Si -4.14 -1.65 -7.80
Si  0.22 -8.88  1.38
Si  3.28  3.98  7.40
Si -3.87  0.73  8.12
Si -7.33  0.01  5.27
Si  5.43 -4.95  5.27
Si -3.60  7.54  3.48
Si  7.56 -1.87 -4.63
Si -8.81 -0.12  2.11
Si -2.02 -8.66 -1.78
Si  1.67 -5.84 -6.76
Si -7.40  4.85  2.11
Si  4.51  4.10 -6.76
Si  8.98 -1.50 -0.42
Si -0.12  6.79 -6.12
Si -0.56 -4.23  8.12
Si -0.74 -3.28 -8.55
Si -8.50  3.47 -0.42
Si -6.39 -3.54  5.59
Si -3.55  6.39  5.59
Si  2.70 -8.66 -1.78
Si -6.61 -6.47 -0.42
Si -5.51 -7.16  2.10
Si  8.93 -0.36 -2.54
Si -4.95  4.10 -6.76
Si -6.36 -0.87 -6.76
Si -8.82 -2.19  2.10
Si  0.94  8.07 -4.63
Si -5.91  4.98  5.27
Si -0.62 -7.23  5.91
Si  4.17 -2.16  8.12
Si  8.14  4.75 -0.10
Si -3.86  2.81  8.12
Si -3.06 -5.84 -6.76
Si  6.49 -3.15 -6.12
Si  5.21 -7.88 -0.74
Si  0.45 -5.95  7.40
Si -5.42 -4.43 -6.44
Si  6.94  2.70  5.91
Si  6.96  6.24 -1.78
Si  7.51 -5.32 -2.54
Si  5.31 -1.65 -7.80
Si -4.05  1.69 -8.55
Si -1.49  0.53  9.50
Si  3.72 -8.01 -3.91
Si -6.53 -5.73  4.23
Si -7.22  6.24 -1.78
Si  0.10  9.71 -0.10
Si -7.24  2.70  5.91
Si -1.09  7.67  5.91
Si  8.85 -3.69 -1.78
Si  5.58  0.73  8.12
Si -5.28 -2.16  8.12
Si  6.59 -0.98  7.40
Si  7.56 -6.47 -0.42
Si  3.98 -3.28 -8.55
Si -5.99  7.74  2.10
Si  9.07 -0.77  4.23
Si -3.79  8.07 -4.63
Si -8.55  4.61 -2.54
Si -9.92 -1.50 -0.42
Si  3.24  0.53  9.50
Si -4.51 -8.88  1.38
Si  4.17 -4.23  8.12
Si -6.20  6.89 -3.91
Si  7.97  4.82 -3.92
Si  1.60 -1.00 -9.93
Si -1.25  9.82  2.11
Si  9.16  2.57  3.48
Si  5.85  7.54  3.48
Si  7.91  1.82 -6.12
Si  0.35 -8.12 -6.12
Si  2.32  9.58 -2.54
Si  2.27  5.70  8.12
Si -0.84 -10.16 -0.10
Si -2.41  9.58 -2.54
Si  4.11 -7.23  5.91
Si -2.45  5.70  8.12
Si  7.79 -3.54  5.59
Si  4.60  6.79 -6.12
Si -1.71  1.89 -9.93
Si  5.59  2.81  8.12
Si  4.95 -8.88  1.38
Si  5.40  1.69 -8.55
Si -0.83 -6.62 -7.80
Si  8.67 -5.08  2.11
Si -8.88 -5.19 -0.10
Si  6.14 -6.83 -4.63
Si -9.97 -0.36 -2.54
Si 10.09 -0.12  2.11
Si -9.04 -3.04 -3.91
Si  6.32 -7.36  3.48
Si  1.65 -8.51  5.59
Si -8.41  4.20  4.23
Si -7.69 -3.15 -6.12
Si  5.90  6.39  5.59
Si -4.85  6.79 -6.12
Si  3.63  7.67  5.91
Si -2.27  9.17  4.23
Si  7.82 -0.87 -6.76
Si  2.46  9.17  4.23
Si -4.28 -5.95  7.40
Si -6.17  3.98  7.40
Si -3.12 -1.00 -9.93
Si  7.65 -5.73  4.23
Si -0.15  2.16 10.25
Si 10.26  1.27 -1.78
Si -2.20 -10.05  2.11
Si  1.60 -3.08 -9.93
Si 10.08 -2.19  2.10
Si -0.07  9.78 -3.92
Si  3.02  1.89 -9.93
Si  8.97  3.10 -4.63
Si -5.29 -4.23  8.12
Si  2.53 -10.05  2.11
Si -5.73 -8.01 -3.91
Si  3.47  9.82  2.11
Si -3.08 -8.51  5.59
Si  1.82 -4.44  9.50
Si -7.59 -0.98  7.40
Si -9.75  2.57  3.48
Si -5.47 -3.28 -8.55
Si -0.70  0.17 -10.65
Si  1.37 -10.29 -2.54
Si -8.65 -2.26  5.91
Si -9.83 -0.77  4.23
Si -1.57 -2.81 10.25
Si -4.62  9.71 -0.10
Si -5.34 -7.23  5.91
Si  5.17 -5.95  7.40
Si -1.70  3.96 -9.93
Si  6.73  3.31 -7.80
Si  4.83  9.71 -0.10
Si -3.13 -3.08 -9.93
Si -10.06 -3.69 -1.78
Si -8.73  0.54 -6.44
Si -1.01 -10.09 -3.92
Si  9.21  1.43  5.59
Si  3.88 -10.16 -0.10
Si -2.90 -4.44  9.50
Si  5.67  8.07 -4.63
Si  6.87  5.51 -6.44
Si  3.90 -6.62 -7.80
Si 10.40  3.47 -0.42
Si -0.07  5.50  9.50
Si -1.97 -7.12  8.12
Si  6.40 -5.84 -6.76
Si  8.27  4.98  5.27
Si -7.09  8.43 -0.42
Si  7.09  8.43 -0.42
Si  2.09  6.65 -8.55
Si  9.86 -3.04 -3.91
Si -4.38 -8.12 -6.12
Si -10.86  2.06 -0.74
Si  9.20  6.03  1.38
Si  3.15 -2.81 10.25
Si  3.02  3.96 -9.93
Si -9.05 -5.12 -3.92
Si -3.36 -10.29 -2.54
Si -6.75 -8.66 -1.78
Si  1.17 10.99  1.38
Si  2.75 -7.12  8.12
Si -2.63  6.65 -8.55
Si -7.31  5.51 -6.44
Si  7.97  6.89 -3.91
Si -0.71 -9.92  5.27
Si -11.12  1.06  1.38
Si  0.23  9.95  5.27
Si -7.45  3.31 -7.80
Si -9.70  1.43  5.59
Si 10.03 -5.19 -0.10
Si -5.82  7.67  5.91
Si -7.86 -7.36  3.48
Si -8.75 -4.95  5.27
Si -6.21  0.53  9.50
Si  5.07 -8.12 -6.12
Si  1.20  9.06 -6.76
Si  4.02  0.17 -10.65
Si -9.93  3.10 -4.63
Si -1.08 11.21 -1.78
Si  4.57  2.16 10.25
Si  8.66 -7.16  2.10
Si  3.71 -10.09 -3.92
Si 11.44 -0.22 -0.10
Si -1.30  8.28 -7.80
Si  8.19  7.74  2.10
Si  2.28  7.78  8.12
Si -9.71  6.03  1.38
Si  0.93 -2.03 11.29
Si -2.45  7.78  8.12
Si  4.66  9.78 -3.92
Si -8.04 -6.83 -4.63
Si  1.42 -11.43 -0.42
Si  7.43 -8.66 -1.78
Si -4.88  2.16 10.25
Si -4.79  9.78 -3.92
Si  0.19 -5.97 -9.93
Si -2.11 -9.39 -6.44
Si -5.57 -10.16 -0.10
Si  1.51 -10.70  4.23
Si  8.01  3.98  7.40
Si 10.35  4.61 -2.54
Si -0.03  8.95  7.40
Si -10.23 -5.08  2.11
Si -3.56 10.99  1.38
Si -5.56 -6.62 -7.80
Si  2.61 -9.39 -6.44
Si -5.98  9.82  2.11
Si -1.44 -0.61 11.61
Si  8.76 -4.43 -6.44
Si 11.35 -2.91 -0.74
Si -8.33  7.54  3.48
Si -10.77  4.75 -0.10
Si  9.86 -5.12 -3.92
Si -9.45  7.02 -0.74
Si  9.46  7.02 -0.74
Si  6.33 -1.00 -9.93
Si 11.09 -3.91  1.38
Si -3.53  9.06 -6.76
Si -8.60  0.73  8.12
Si -7.78 -5.84 -6.76
Si  0.71  5.14 -10.65
Si -8.28  6.39  5.59
Si -2.12 -4.79 -10.65
Si  3.42  8.28 -7.80
Si  2.35  2.94 11.29
Si -2.38  2.94 11.29
Si -3.31 -11.43 -0.42
Si  4.66  5.50  9.50
Si  3.65 11.21 -1.78
Si -8.87 -1.65 -7.80
Si  4.01 -9.92  5.27
Si -11.16 -2.40  3.48
Si 11.28 -0.15 -3.92
Si -3.22 -10.70  4.23
Si -5.43  0.17 -10.65
Si -8.97 -7.88 -0.74
Si  2.60 -4.79 -10.65
Si -4.79  5.50  9.50
Si -6.43  1.89 -9.93
Si  1.02  0.66 11.93
Si  6.37 -8.51  5.59
Si 11.50  2.77  2.10
Si 10.25 -2.26  5.91
Si 10.17  0.54 -6.44
Si 10.49  4.20  4.23
Si -0.29  6.86 -9.93
Si -2.16 -8.25 -8.55
Si  3.29 -0.61 11.61
Si -3.80 -2.03 11.29
Si 11.28  1.92 -3.91
Si  1.43 11.99 -0.74
Si -4.49  9.95  5.27
Si  7.00  5.70  8.12
Si -8.59  2.81  8.12
Si  9.23  4.10 -6.76
Si  7.04  9.58 -2.54
Si  2.56 -8.25 -8.55
Si  6.33 -3.08 -9.93
Si -12.19 -0.22 -0.10
Si -7.14  9.58 -2.54
Si  6.10 -10.29 -2.54
Si  8.90 -2.16  8.12
Si -7.18  5.70  8.12
Si -5.74 -10.09 -3.92
Si  8.45 -8.01 -3.91
Si -7.00  9.17  4.23
Si  4.96  9.95  5.27
Si -1.77 -1.11 -12.14
Si -1.17 10.47 -6.44
Si -6.30 -2.81 10.25
Si  6.55 -4.44  9.50
Si -8.78  1.69 -8.55
Si -6.92 -10.05  2.11
Si  7.18  9.17  4.23
Si -0.02  4.35 11.61
Si -11.35 -1.87 -4.63
Si  7.96  0.53  9.50
Si -1.98 -9.20  8.12
Si -4.54 -5.97 -9.93
Si -3.30 11.99 -0.74
Si 10.16 -4.95  5.27
Si -6.43  3.96 -9.93
Si -5.44 -9.92  5.27
Si -0.06 11.86 -3.91
Si -4.01  5.14 -10.65
Si -9.67  4.10 -6.76
Si -2.21 -12.13  2.10
Si -3.70  0.66 11.93
Si  4.70  8.95  7.40
Si  2.96 -1.11 -12.14
Si  1.26  7.13 10.25
Si  5.89 10.99  1.38
Si -4.75  8.95  7.40
Si  2.52 -12.13  2.10
Si  7.25 -10.05  2.11
Si  2.75 -9.20  8.12
Si -10.94  4.82 -3.92
Si  4.91 -5.97 -9.93
Si -8.51  8.07 -4.63
Si -12.13  2.77  2.10
Si 12.51  1.06  1.38
Si  8.71 -3.28 -8.55
Si -12.28 -2.91 -0.74
Si 11.51  4.85  2.11
Si -10.24 -7.16  2.10
Si -0.01 -11.80 -4.63
Si -0.39 -4.30 11.93
Si -7.85 -1.00 -9.93
Si  0.50 -2.38 -12.46
Si  9.93 -7.88 -0.74
Si -10.99  1.82 -6.12
Si -6.70 -7.12  8.12
Si 11.57  0.01  5.27
Si  7.74  1.89 -9.93
Si -0.35  3.86 -12.14
Si -5.80 11.21 -1.78
Si  0.25 -10.80 -6.76
Si  8.89 -4.23  8.12
Si  5.92  9.06 -6.76
Si  0.18 -8.04 -9.93
Si  5.66 -2.03 11.29
Si  8.36  7.67  5.91
Si  3.56 10.47 -6.44
Si  6.82  6.65 -8.55
Si -10.15 -4.43 -6.44
Si  0.18 -12.33  3.48
Si 10.04 -1.65 -7.80
Si -11.39 -5.32 -2.54
