500
set: 1132.00  0.00  0.00
Si -0.07  0.04  0.02
Si -0.01  0.01 -2.39
Si  0.03 -0.16  2.39
Si  1.27 -2.23 -0.03
Si -1.28 -2.26 -0.00
Si  1.37  2.23 -0.04
Si -2.62 -0.04  0.02
Si  2.64  0.00  0.03
Si -1.34  2.29 -0.07
Si  1.21  2.17  2.36
Si -2.54  0.05 -2.43
Si -1.26 -2.23 -2.44
Si -2.55  0.12  2.46
Si -1.29  2.24  2.44
Si -1.38 -2.24  2.40
Si  1.28 -2.26 -2.44
Si  2.65  0.04  2.39
Si  1.23  2.24 -2.49
Si  2.66 -0.04 -2.44
Si  1.31 -2.33  2.45
Si -1.30  2.32 -2.47
Si -3.85 -2.23  0.00
Si  0.04  4.45  0.06
Si -3.88  2.21  0.04
Si  3.93 -2.27 -0.01
Si  3.92  2.30  0.01
Si  0.07 -4.55  0.02
Si -0.02  0.03  4.84
Si -0.02  0.03 -4.91
Si  3.82  2.19 -2.40
Si  0.06 -4.42  2.44
Si  3.77  2.31  2.50
Si -3.87 -2.21 -2.46
Si  3.88 -2.28  2.42
Si -0.04 -4.49 -2.45
Si  3.90 -2.26 -2.45
Si  5.13  0.03 -0.03
Si -3.95  2.22 -2.41
Si -3.95 -2.19  2.45
Si  0.01  4.54 -2.47
Si  2.54 -4.50 -0.01
Si -2.59 -4.49  0.07
Si  0.02  4.55  2.49
Si  2.59  4.50  0.07
Si -3.97  2.27  2.48
Si -2.68  4.49 -0.01
Si -5.27  0.03 -0.03
Si  2.53 -0.04  4.77
Si -1.30  2.22  4.83
Si -1.25 -2.26  4.86
Si  1.33  2.27  4.84
Si  1.34 -2.28 -4.85
Si -1.25 -2.26 -4.89
Si -2.65 -0.04  4.85
Si -1.30  2.22 -4.91
Si  1.34 -2.28  4.89
Si -2.65 -0.04 -4.89
Si  1.33  2.27 -4.91
Si  2.53 -0.04 -4.97
Si  2.54  4.44 -2.36
Si -2.52  4.44  2.40
Si -5.17 -0.05 -2.39
Si -5.17  0.09  2.44
Si -2.67  4.44 -2.44
Si  2.58  4.49  2.46
Si -2.60 -4.50  2.46
Si  5.24 -0.05 -2.39
Si  2.55 -4.55 -2.44
Si -2.64 -4.55 -2.36
Si  5.23  0.09  2.44
Si  2.70 -4.55  2.40
Si  0.03  4.45 -4.85
Si -3.87  2.25 -4.84
Si -3.87 -2.29 -4.85
Si  0.03  4.45  4.89
Si -3.87  2.25  4.90
Si -3.87 -2.29  4.89
Si  0.01 -4.53  4.86
Si  3.99 -2.22 -4.83
Si  0.01 -4.53 -4.88
Si  3.96  2.32 -4.84
Si  3.99 -2.22  4.92
Si  3.96  2.32  4.91
Si -5.15  4.44  0.02
Si -1.25 -6.69  0.01
Si -1.30  6.72 -0.01
Si -5.14 -4.54  0.06
Si -6.47 -2.27 -0.01
Si -6.48  2.30  0.01
Si  5.25  4.44  0.02
Si  6.52  2.21  0.04
Si  1.33  6.76  0.00
Si  1.34 -6.79  0.04
Si  6.56 -2.23  0.00
Si  5.26 -4.54  0.06
Si  2.60 -4.47  4.82
Si -2.60 -4.46 -4.84
Si  5.16  0.04  4.87
Si  5.16  0.04 -4.88
Si -2.62  4.52  4.82
Si  2.58  4.53 -4.84
Si -2.60 -4.46  4.90
Si  2.60 -4.47 -4.93
Si -5.24  0.04  4.87
Si  2.58  4.53  4.90
Si -5.24  0.04 -4.88
Si -2.62  4.52 -4.93
Si  6.45  2.22 -2.41
Si -5.15 -4.44  2.49
Si  6.45 -2.19  2.45
Si -5.17 -4.45 -2.47
Si  6.43  2.27  2.48
Si -1.35  6.71  2.42
Si  5.14  4.51 -2.45
Si -1.41 -6.68  2.50
Si  1.25 -6.73  2.48
Si -1.33  6.73 -2.45
Si  5.23 -4.45 -2.47
Si  1.27 -6.77 -2.41
Si -6.50 -2.26 -2.45
Si  5.25 -4.44  2.49
Si -5.16  4.57  2.44
Si -6.53 -2.28  2.42
Si  6.54 -2.21 -2.46
Si  1.23  6.80  2.45
Si -6.58  2.19 -2.40
Si  1.31  6.79 -2.46
Si -1.35 -6.80 -2.40
Si -5.26  4.51 -2.45
Si -0.01  0.01  7.35
Si  0.03 -0.16 -7.36
Si  5.24  4.57  2.44
Si -6.63  2.31  2.50
Si  1.23  2.24  7.25
Si -2.55  0.12 -7.28
Si -1.26 -2.23  7.30
Si -2.54  0.05  7.31
Si -1.30  2.32  7.27
Si  3.89 -6.70 -0.07
Si -1.29  2.24 -7.31
Si  1.28 -2.26  7.30
Si -3.81 -6.76 -0.04
Si -7.76  0.00  0.03
Si  1.31 -2.33 -7.30
Si  2.66 -0.04  7.30
Si  3.90  6.73 -0.00
Si  7.78 -0.04  0.02
Si  1.21  2.17 -7.38
Si -1.38 -2.24 -7.34
Si  2.65  0.04 -7.36
Si -3.96  6.76 -0.03
Si -3.91  6.66  2.45
Si -7.75  0.04  2.39
Si  3.80  6.75  2.40
Si -7.74 -0.04 -2.44
Si  3.92 -6.67 -2.47
Si -3.94  6.73 -2.44
Si  3.93 -6.75  2.44
Si  3.92  6.76 -2.44
Si -3.95 -6.75 -2.49
Si  7.85  0.12  2.46
Si -3.97 -6.82  2.36
Si  7.87  0.05 -2.43
Si -6.41 -2.22 -4.83
Si -1.22 -6.67 -4.84
Si -1.22 -6.67  4.91
Si  1.31  6.70 -4.85
Si -6.41 -2.22  4.92
Si -6.44  2.32 -4.84
Si  5.19  4.46  4.86
Si  1.31  6.70  4.89
Si -5.15 -4.54 -4.85
Si -1.23  6.77 -4.83
Si -5.21  4.46  4.86
Si  1.35 -6.74 -4.84
Si  5.19  4.46 -4.88
Si -5.21  4.46 -4.88
Si -6.44  2.32  4.91
Si -5.15 -4.54  4.89
Si  6.53  2.25 -4.84
Si  1.35 -6.74  4.90
Si -1.23  6.77  4.92
Si  6.54 -2.29 -4.85
Si  6.53  2.25  4.90
Si  5.25 -4.54 -4.85
Si  6.54 -2.29  4.89
Si  3.77  2.31 -7.24
Si  5.25 -4.54  4.89
Si -3.87 -2.21  7.28
Si  0.06 -4.42 -7.30
Si -0.04 -4.49  7.29
Si  0.02  4.55 -7.26
Si  3.82  2.19  7.35
Si  3.90 -2.26  7.30
Si -3.95 -2.19 -7.29
Si  0.01  4.54  7.28
Si -3.97  2.27 -7.27
Si  3.88 -2.28 -7.33
Si -3.95  2.22  7.34
Si  7.72  4.49 -0.01
Si  2.58  4.49 -7.28
Si -2.60 -4.50 -7.28
Si -2.52  4.44 -7.34
Si -5.17  0.09 -7.31
Si -2.67  4.44  7.30
Si -0.05 -8.96 -0.03
Si  2.55 -4.55  7.30
Si  2.54  4.44  7.39
Si -5.17 -0.05  7.36
Si  5.23  0.09 -7.31
Si  7.82 -4.49  0.07
Si -7.81  4.50  0.07
Si -0.10  9.02 -0.03
Si  5.24 -0.05  7.36
Si  2.70 -4.55 -7.34
Si -7.86 -4.50 -0.01
Si -2.64 -4.55  7.39
Si -3.84 -6.72  4.84
Si  7.75 -0.04  4.85
Si -3.89  6.71 -4.85
Si  7.75 -0.04 -4.89
Si -3.84 -6.72 -4.91
Si -3.89  6.71  4.89
Si  3.92  6.73  4.86
Si  3.92  6.73 -4.89
Si  3.93 -6.77  4.83
Si -7.87 -0.04  4.77
Si  0.06 -8.90  2.44
Si  3.93 -6.77 -4.91
Si  7.73  4.44 -2.44
Si  0.01  8.94 -2.39
Si -7.70 -4.55  2.40
Si -9.03  2.23 -0.04
Si  7.76 -4.55 -2.36
Si -7.87 -0.04 -4.97
Si  2.56  8.96  0.02
Si -7.86  4.44 -2.36
Si  7.80 -4.50  2.46
Si -2.54 -8.99  0.03
Si  6.44  6.76 -0.03
Si -6.51 -6.70 -0.07
Si  9.06  2.29 -0.07
Si  0.06 -9.04 -2.39
Si -7.82  4.49  2.46
Si -2.58  8.99  0.03
Si  7.88  4.44  2.40
Si -6.50  6.73 -0.00
Si -7.85 -4.55 -2.44
Si  2.60 -9.03  0.02
Si  9.12 -2.26 -0.00
Si -9.14 -2.23 -0.03
Si  0.01  9.08  2.44
Si  6.59 -6.76 -0.04
Si  2.67 -8.87  2.46
Si -2.52 -8.95  2.39
Si  9.03 -2.24  2.40
Si  6.49  6.66  2.45
Si -6.48 -6.67 -2.47
Si -2.56  8.96 -2.44
Si  6.46  6.73 -2.44
Si  2.69 -8.94 -2.43
Si -6.47 -6.75  2.44
Si  6.46 -6.75 -2.49
Si  6.43 -6.82  2.36
Si -2.52 -9.03 -2.44
Si -6.49  6.76 -2.44
Si -2.57  9.03  2.39
Si  9.11  2.24  2.44
Si -9.09 -2.33  2.45
Si -9.12 -2.26 -2.44
Si  9.10  2.32 -2.47
Si  9.14 -2.23 -2.44
Si  2.64  9.04 -2.43
Si -0.07  0.04 -9.73
Si -9.19  2.17  2.36
Si -6.60  6.75  2.40
Si -0.07  0.04  9.76
Si -9.17  2.24 -2.49
Si  2.62  9.11  2.46
Si -5.15 -4.44 -7.26
Si -1.41 -6.68 -7.24
Si  6.43  2.27 -7.27
Si -5.17 -4.45  7.28
Si  6.45 -2.19 -7.29
Si  1.25 -6.73 -7.27
Si  5.25 -4.44 -7.26
Si  5.14  4.51  7.29
Si  5.23 -4.45  7.28
Si  6.45  2.22  7.34
Si -1.33  6.73  7.30
Si -1.35  6.71 -7.33
Si  6.54 -2.21  7.28
Si -6.50 -2.26  7.30
Si -1.34  2.29  9.68
Si  1.31  6.79  7.28
Si -5.16  4.57 -7.30
Si  1.23  6.80 -7.29
Si  1.27 -2.23  9.72
Si  1.37  2.23  9.71
Si -5.26  4.51  7.29
Si  2.64  0.00 -9.71
Si  1.27 -6.77  7.34
Si -2.62 -0.04 -9.72
Si -6.53 -2.28 -7.33
Si -1.28 -2.26  9.74
Si  5.24  4.57 -7.30
Si -6.63  2.31 -7.24
Si -1.28 -2.26 -9.75
Si  1.27 -2.23 -9.77
Si -6.58  2.19  7.35
Si -1.35 -6.80  7.35
Si -2.62 -0.04  9.76
Si  1.37  2.23 -9.78
Si  2.64  0.00  9.78
Si -1.34  2.29 -9.81
Si -0.02 -8.96  4.87
Si -7.80 -4.47  4.82
Si -0.02 -8.96 -4.88
Si  7.78  4.52  4.82
Si  7.80 -4.46 -4.84
Si  7.80 -4.46  4.90
Si -7.80 -4.47 -4.93
Si -0.06  9.03  4.87
Si -7.83  4.53 -4.84
Si -0.06  9.03 -4.88
Si  7.78  4.52 -4.93
Si -7.83  4.53  4.90
Si  5.16 -8.95  0.02
Si 10.33  0.04  0.02
Si -5.25 -8.95  0.02
Si  5.11  9.04  0.02
Si -10.47  0.04  0.02
Si -5.29  9.04  0.02
Si  2.52  8.95  4.85
Si -2.69  8.95  4.77
Si  2.52  8.95 -4.89
Si -5.19  8.83  2.39
Si -9.07  2.27  4.84
Si -6.48  6.73  4.86
Si  5.21  8.83  2.39
Si -9.06 -2.28 -4.85
Si  6.51  6.71 -4.85
Si -6.47 -6.77  4.83
Si -6.48  6.73 -4.89
Si  9.10  2.22  4.83
Si -9.06 -2.28  4.89
Si -2.65 -9.03  4.77
Si  6.51  6.71  4.89
Si -9.07  2.27 -4.91
Si  6.56 -6.72  4.84
Si  2.57 -9.03  4.85
Si -6.47 -6.77 -4.91
Si  9.10  2.22 -4.91
Si  2.57 -9.03 -4.89
Si -2.69  8.95 -4.97
Si  6.56 -6.72 -4.91
Si  9.15 -2.26  4.86
Si  9.15 -2.26 -4.89
Si  3.92 -6.67  7.27
Si -3.91  6.66 -7.30
Si -2.65 -9.03 -4.97
Si -10.37 -0.16  2.39
Si -7.74 -0.04  7.30
Si  5.16  9.00 -2.39
Si -5.19 -8.99 -2.39
Si  0.04  4.45 -9.68
Si 10.39  0.01 -2.39
Si  5.21 -8.99 -2.39
Si -3.95 -6.75  7.25
Si  3.80  6.75 -7.34
Si -5.24  9.00 -2.39
Si -3.88  2.21 -9.71
Si -7.75  0.04 -7.36
Si -3.94  6.73  7.30
Si -10.42  0.01 -2.39
Si  3.92  6.76  7.30
Si  3.93 -6.75 -7.31
Si  7.85  0.12 -7.28
Si -3.85 -2.23 -9.74
Si 10.44 -0.16  2.39
Si -3.85 -2.23  9.75
Si  0.07 -4.55 -9.72
Si  3.93 -2.27  9.73
Si  7.87  0.05  7.31
Si  3.92  2.30 -9.73
Si -3.88  2.21  9.78
Si  3.93 -2.27 -9.75
Si  3.92  2.30  9.76
Si -5.14 -9.15  2.39
Si  0.04  4.45  9.80
Si  0.07 -4.55  9.77
Si -3.97 -6.82 -7.38
Si  5.26 -9.15  2.39
Si -2.59 -4.49 -9.67
Si  2.59  4.50 -9.67
Si  5.13  0.03  9.72
Si  2.54 -4.50  9.73
Si  5.13  0.03 -9.77
Si  2.54 -4.50 -9.75
Si -2.68  4.49  9.73
Si -5.27  0.03  9.72
Si -2.68  4.49 -9.75
Si -2.59 -4.49  9.82
Si -5.27  0.03 -9.77
Si  2.59  4.50  9.82
Si  1.29 11.20  0.04
Si -10.37  4.45  0.06
Si -10.33 -4.55  0.02
Si  1.38 -11.22  0.00
Si -9.07  6.76  0.00
Si  9.10  6.72 -0.01
Si -9.06 -6.79  0.04
Si -1.25 -11.26 -0.01
Si  9.15 -6.69  0.01
Si 10.44  4.45  0.06
Si -1.30 11.29  0.01
Si 10.47 -4.55  0.02
Si -5.20 -8.97  4.84
Si  5.20 -8.97  4.84
Si 10.38  0.03  4.84
Si  5.15  9.02  4.84
Si -5.20 -8.97 -4.91
Si  5.20 -8.97 -4.91
Si 10.38  0.03 -4.91
Si  8.99 -6.68  2.50
Si  5.16  9.02 -4.91
Si -10.42  0.03  4.84
Si -5.25  9.02  4.84
Si -10.34 -4.42  2.44
Si  0.06 -8.90 -7.31
Si  1.28 -11.18  2.45
Si -1.40 11.18 -2.40
Si -10.42  0.03 -4.91
Si  9.05  6.71  2.42
Si  7.73  4.44  7.30
Si -5.25  9.02 -4.91
Si  1.22 11.21 -2.41
Si  1.36 -11.20 -2.46
Si 10.37 -4.49 -2.45
Si  9.07  6.73 -2.45
Si  9.05 -6.80 -2.40
Si -7.70 -4.55 -7.34
Si  0.01  8.94  7.36
Si  7.80 -4.50 -7.28
Si -1.28 -11.25 -2.45
Si  1.21 11.26  2.48
Si -7.82  4.49 -7.28
Si -10.38  4.55  2.49
Si -1.30 -11.27  2.42
Si -9.09  6.79 -2.46
Si -10.39  4.54 -2.47
Si 10.46 -4.42  2.44
Si -9.15 -6.73  2.48
Si -10.44 -4.49 -2.45
Si -9.13 -6.77 -2.41
Si 10.41  4.54 -2.47
Si  7.76 -4.55  7.39
Si 10.43  4.55  2.49
Si -7.85 -4.55  7.30
Si  7.88  4.44 -7.34
Si  0.06 -9.04  7.36
Si  0.01  9.08 -7.31
Si -1.46 11.30  2.50
Si -7.86  4.44  7.39
Si -9.17  6.80  2.45
Si  2.67 -8.87 -7.28
Si -6.48 -6.67  7.27
Si  6.49  6.66 -7.30
Si  6.46 -6.75  7.25
Si -2.56  8.96  7.30
Si  6.46  6.73  7.30
Si  9.03 -2.24 -7.34
Si -2.52 -8.95 -7.36
Si  2.69 -8.94  7.31
Si -3.86 11.22 -0.04
Si -5.14 -4.54 -9.68
Si -5.15  4.44 -9.72
Si -6.47 -6.75 -7.31
Si  9.10  2.32  7.27
Si 11.67 -2.23 -0.03
Si -3.91 -11.22 -0.03
Si -1.25 -6.69 -9.73
Si -2.52 -9.03  7.30
Si -6.49  6.76  7.30
Si -9.09 -2.33 -7.30
Si  9.11  2.24 -7.31
Si -1.25 -6.69  9.76
Si -11.68 -2.26 -0.00
Si  6.52  2.21 -9.71
Si -5.15  4.44  9.77
Si -1.30  6.72  9.73
Si -9.12 -2.26  7.30
Si -7.85  8.96  0.02
Si -9.17  2.24  7.25
Si -6.47 -2.27  9.73
Si  9.14 -2.23  7.30
Si  5.25  4.44 -9.72
Si  7.82  8.99  0.03
Si -6.48  2.30 -9.73
Si -1.30  6.72 -9.75
