500
set: 628.00  0.00  0.00
Si  0.22 -1.25  0.81
Si -0.22  1.25 -0.81
Si  1.35  0.84  0.81
Si -1.35 -0.84 -0.81
Si  1.97 -0.84 -0.81
Si -1.97  0.84  0.81
Si  0.68  0.15 -2.77
Si -0.68 -0.15  2.77
Si  0.84 -2.93 -0.81
Si -0.84  2.93  0.81
Si -0.45 -1.93 -2.77
Si  0.45  1.93  2.77
Si -3.10 -1.25  0.81
Si  3.10  1.25 -0.81
Si -0.91 -3.34  0.81
Si  0.91  3.34 -0.81
Si  2.64 -0.15  2.77
Si -2.64  0.15 -2.77
Si  3.55 -1.25  0.81
Si -3.55  1.25 -0.81
Si -1.51  2.24 -2.77
Si  1.51 -2.24  2.77
Si -2.48 -2.93 -0.81
Si  2.48  2.93  0.81
Si  1.81  2.24 -2.77
Si -1.81 -2.24  2.77
Si -2.42  3.34 -0.81
Si  2.42 -3.34  0.81
Si  2.88 -1.93 -2.77
Si -2.88  1.93  2.77
Si -0.90  0.56 -4.39
Si  0.90 -0.56  4.39
Si  4.68  0.84  0.81
Si -4.68 -0.84 -0.81
Si -1.30  1.53  4.39
Si  1.30 -1.53 -4.39
Si -4.01 -0.15  2.77
Si  4.01  0.15 -2.77
Si  2.43  0.56 -4.39
Si -2.43 -0.56  4.39
Si  3.77  1.93  2.77
Si -3.77 -1.93 -2.77
Si -2.03 -1.53 -4.39
Si  2.03  1.53  4.39
Si -0.29 -5.02 -0.81
Si  0.29  5.02  0.81
Si -0.23 -2.65  4.39
Si  0.23  2.65 -4.39
Si -1.58 -4.02 -2.77
Si  1.58  4.02  2.77
Si  4.17 -2.93 -0.81
Si -4.17  2.93  0.81
Si -0.38  4.33 -2.77
Si  0.38 -4.33  2.77
Si  1.75 -4.02 -2.77
Si -1.75  4.02  2.77
Si  5.29 -0.84 -0.81
Si -5.29  0.84  0.81
Si -4.23 -3.34  0.81
Si  4.23  3.34 -0.81
Si  1.29 -5.42  0.81
Si -1.29  5.42 -0.81
Si -0.17  3.62  4.39
Si  0.17 -3.62 -4.39
Si -2.04 -5.42  0.81
Si  2.04  5.42 -0.81
Si -3.04  5.02  0.81
Si  3.04 -5.02 -0.81
Si -2.94 -4.33  2.77
Si  2.94  4.33 -2.77
Si -3.09  2.65 -4.39
Si  3.09 -2.65  4.39
Si  4.84 -2.24  2.77
Si -4.84  2.24 -2.77
Si  4.22 -0.56  4.39
Si -4.22  0.56 -4.39
Si -3.56 -2.65  4.39
Si  3.56  2.65 -4.39
Si  3.61  5.02  0.81
Si -3.61 -5.02 -0.81
Si  5.13  2.24 -2.77
Si -5.13 -2.24  2.77
Si  3.71 -4.33  2.77
Si -3.71  4.33 -2.77
Si  0.01 -0.53 -6.36
Si -0.01  0.53  6.36
Si -3.16 -3.62 -4.39
Si  3.16  3.62  4.39
Si -4.62  1.53  4.39
Si  4.62 -1.53 -4.39
Si  5.81  2.93  0.81
Si -5.81 -2.93 -0.81
Si -5.97  0.15 -2.77
Si  5.97 -0.15  2.77
Si  6.42  1.25 -0.81
Si -6.42 -1.25  0.81
Si -1.36 -4.74  4.39
Si  1.36  4.74 -4.39
Si -1.14 -1.56  6.36
Si  1.14  1.56 -6.36
Si  3.49 -3.62 -4.39
Si -3.49  3.62  4.39
Si  5.74 -3.34  0.81
Si -5.74  3.34 -0.81
Si  0.62 -6.11 -2.77
Si -0.62  6.11  2.77
Si -1.96  4.74 -4.39
Si  1.96 -4.74  4.39
Si  2.19 -1.56  6.36
Si -2.19  1.56 -6.36
Si -4.90 -4.02 -2.77
Si  4.90  4.02  2.77
Si -1.12 -2.62 -6.36
Si  1.12  2.62  6.36
Si  6.87 -1.25  0.81
Si -6.87  1.25 -0.81
Si -0.75 -6.42  2.77
Si  0.75  6.42 -2.77
Si -5.07  4.02  2.77
Si  5.07 -4.02 -2.77
Si  6.20 -1.93 -2.77
Si -6.20  1.93  2.77
Si  5.35  1.53  4.39
Si -5.35 -1.53 -4.39
Si  4.61 -5.42  0.81
Si -4.61  5.42 -0.81
Si  3.32  0.53  6.36
Si -3.32 -0.53 -6.36
Si -3.33  0.53  6.36
Si  3.33 -0.53 -6.36
Si -2.20  2.62  6.36
Si  2.20 -2.62 -6.36
Si  2.71  6.11  2.77
Si -2.71 -6.11 -2.77
Si -5.75 -0.56  4.39
Si  5.75  0.56 -4.39
Si -0.96 -5.71 -4.39
Si  0.96  5.71  4.39
Si -1.42 -7.11 -0.81
Si  1.42  7.11  0.81
Si  1.06 -3.65  6.36
Si -1.06  3.65 -6.36
Si -1.91  7.11  0.81
Si  1.91 -7.11 -0.81
Si -2.58  6.42 -2.77
Si  2.58 -6.42  2.77
Si -0.16  7.51 -0.81
Si  0.16 -7.51  0.81
Si  2.36 -5.71 -4.39
Si -2.36  5.71  4.39
Si  5.36  5.42 -0.81
Si -5.36 -5.42  0.81
Si  2.27  3.65 -6.36
Si -2.27 -3.65  6.36
Si -3.94  6.11  2.77
Si  3.94 -6.11 -2.77
Si  7.33  0.15 -2.77
Si -7.33 -0.15  2.77
Si  7.10  1.93  2.77
Si -7.10 -1.93 -2.77
Si -4.46 -1.56  6.36
Si  4.46  1.56 -6.36
Si  4.69  4.74 -4.39
Si -4.69 -4.74  4.39
Si  1.07 -4.71 -6.36
Si -1.07  4.71  6.36
Si  7.49 -2.93 -0.81
Si -7.49  2.93  0.81
Si -8.00 -0.84 -0.81
Si  8.00  0.84  0.81
Si -4.07 -6.42  2.77
Si  4.07  6.42 -2.77
Si -6.26 -4.33  2.77
Si  6.26  4.33 -2.77
Si -1.57 -0.13 -7.97
Si  1.57  0.13  7.97
Si  6.36 -5.02 -0.81
Si -6.36  5.02  0.81
Si -0.83  6.83 -4.39
Si  0.83 -6.83  4.39
Si  1.75 -0.13 -7.97
Si -1.75  0.13  7.97
Si  4.45  2.62  6.36
Si -4.45 -2.62 -6.36
Si  3.17  7.51 -0.81
Si -3.17 -7.51  0.81
Si -6.42  2.65 -4.39
Si  6.42 -2.65  4.39
Si -0.44  1.96 -7.97
Si  0.44 -1.96  7.97
Si -2.25 -4.71 -6.36
Si  2.25  4.71  6.36
Si -0.62  2.22  7.97
Si  0.62 -2.22 -7.97
Si -7.55 -3.34  0.81
Si  7.55  3.34 -0.81
Si -3.48  7.51 -0.81
Si  3.48 -7.51  0.81
Si  5.29 -4.74  4.39
Si -5.29  4.74 -4.39
Si -4.29 -5.71 -4.39
Si  4.29  5.71  4.39
Si -2.49 -6.83  4.39
Si  2.49  6.83 -4.39
Si  4.38 -3.65  6.36
Si -4.38  3.65 -6.36
Si  5.51 -1.56  6.36
Si -5.51  1.56 -6.36
Si -0.07 -5.74  6.36
Si  0.07  5.74 -6.36
Si -6.88 -2.65  4.39
Si  6.88  2.65 -4.39
Si  4.74  7.11  0.81
Si -4.74 -7.11 -0.81
Si  6.94  5.02  0.81
Si -6.94 -5.02 -0.81
Si -6.48 -3.62 -4.39
Si  6.48  3.62  4.39
Si  0.51  8.20  2.77
Si -0.51 -8.20 -2.77
Si  2.88  1.96 -7.97
Si -2.88 -1.96  7.97
Si -8.62  0.84  0.81
Si  8.62 -0.84 -0.81
Si -2.70 -2.22 -7.97
Si  2.70  2.22  7.97
Si  7.03 -4.33  2.77
Si -7.03  4.33 -2.77
Si  7.55 -0.56  4.39
Si -7.55  0.56 -4.39
Si  5.53 -2.62 -6.36
Si -5.53  2.62  6.36
Si -5.23  7.11  0.81
Si  5.23 -7.11 -0.81
Si -6.82  3.62  4.39
Si  6.82 -3.62 -4.39
Si -8.16  2.24 -2.77
Si  8.16 -2.24  2.77
Si -0.69 -4.05  7.97
Si  0.69  4.05 -7.97
Si -6.03 -6.11 -2.77
Si  6.03  6.11  2.77
Si  3.77 -1.96  7.97
Si -3.77  1.96 -7.97
Si -1.23  7.80  4.39
Si  1.23 -7.80 -4.39
Si  4.40 -4.71 -6.36
Si -4.40  4.71  6.36
Si -1.45  8.51 -2.77
Si  1.45 -8.51  2.77
Si  0.51  4.31  7.97
Si -0.51 -4.31 -7.97
Si -2.81  8.20  2.77
Si  2.81 -8.20 -2.77
Si  4.16 -6.83  4.39
Si -4.16  6.83 -4.39
Si  1.88  8.51 -2.77
Si -1.88 -8.51  2.77
Si  5.90 -6.42  2.77
Si -5.90  6.42 -2.77
Si -3.25  5.74 -6.36
Si  3.25 -5.74  6.36
Si  3.95 -2.22 -7.97
Si -3.95  2.22  7.97
Si  5.69 -5.71 -4.39
Si -5.69  5.71  4.39
Si -8.46 -2.24  2.77
Si  8.46  2.24 -2.77
Si -2.09 -7.80 -4.39
Si  2.09  7.80  4.39
Si -7.95  1.53  4.39
Si  7.95 -1.53 -4.39
Si  6.64  0.53  6.36
Si -6.64 -0.53 -6.36
Si  3.40  5.74 -6.36
Si -3.40 -5.74  6.36
Si -5.59 -3.65  6.36
Si  5.59  3.65 -6.36
Si  6.66 -0.53 -6.36
Si -6.66  0.53  6.36
Si  0.78 -9.20 -0.81
Si -0.78  9.20  0.81
Si -0.06 -6.80 -6.36
Si  0.06  6.80  6.36
Si -2.63  4.05 -7.97
Si  2.63 -4.05  7.97
Si  4.89  0.13  7.97
Si -4.89 -0.13 -7.97
Si -5.08  0.13  7.97
Si  5.08 -0.13 -7.97
Si -3.84 -8.20 -2.77
Si  3.84  8.20  2.77
Si  2.82 -4.31 -7.97
Si -2.82  4.31  7.97
Si  8.23  4.02  2.77
Si -8.23 -4.02 -2.77
Si -2.55 -9.20 -0.81
Si  2.55  9.20  0.81
Si -9.13 -2.93 -0.81
Si  9.13  2.93  0.81
Si  7.94 -5.42  0.81
Si -7.94  5.42 -0.81
Si  5.58  4.71  6.36
Si -5.58 -4.71 -6.36
Si  0.97  9.60 -0.81
Si -0.97 -9.60  0.81
Si  9.07 -3.34  0.81
Si -9.07  3.34 -0.81
Si  9.29 -0.15  2.77
Si -9.29  0.15 -2.77
Si  8.39 -4.02 -2.77
Si -8.39  4.02  2.77
Si -4.01 -4.05  7.97
Si  4.01  4.05 -7.97
Si  3.83  4.31  7.97
Si -3.83 -4.31 -7.97
Si -8.68 -1.53 -4.39
Si  8.68  1.53  4.39
Si  9.75  1.25 -0.81
Si -9.75 -1.25  0.81
Si -3.27  6.80  6.36
Si  3.27 -6.80 -6.36
Si -7.26  6.11  2.77
Si  7.26 -6.11 -2.77
Si -3.38 -6.80 -6.36
Si  3.38  6.80  6.36
Si -2.35  9.60 -0.81
Si  2.35 -9.60  0.81
Si -0.30 -8.92  4.39
Si  0.30  8.92 -4.39
Si  6.49  7.51 -0.81
Si -6.49 -7.51  0.81
Si -5.82 -6.83  4.39
Si  5.82  6.83 -4.39
Si  0.47  0.87 -9.94
Si -0.47 -0.87  9.94
Si -0.67 -1.22 -9.94
Si  0.67  1.22  9.94
Si  4.56 -7.80 -4.39
Si -4.56  7.80  4.39
Si -9.08 -0.56  4.39
Si  9.08  0.56 -4.39
Si  4.10 -9.20 -0.81
Si -4.10  9.20  0.81
Si  9.53 -1.93 -2.77
Si -9.53  1.93  2.77
Si  4.77 -8.51  2.77
Si -4.77  8.51 -2.77
Si  1.20  7.82 -6.36
Si -1.20 -7.82  6.36
Si -1.50  6.14 -7.97
Si  1.50 -6.14  7.97
Si -7.79 -1.56  6.36
Si  7.79  1.56 -6.36
Si  6.81 -7.51  0.81
Si -6.81  7.51 -0.81
Si -7.39 -6.42  2.77
Si  7.39  6.42 -2.77
Si  1.82  6.14 -7.97
Si -1.82 -6.14  7.97
Si -6.03 -2.22 -7.97
Si  6.03  2.22  7.97
Si  8.68  5.42 -0.81
Si -8.68 -5.42  0.81
Si  8.01  4.74 -4.39
Si -8.01 -4.74  4.39
Si  6.21  1.96 -7.97
Si -6.21 -1.96  7.97
Si -2.12  7.82 -6.36
Si  2.12 -7.82  6.36
Si 10.20 -1.25  0.81
Si -10.20  1.25 -0.81
Si -1.64 -6.40 -7.97
Si  1.64  6.40  7.97
Si -5.20 -8.51  2.77
Si  5.20  8.51 -2.77
Si -1.69  6.40  7.97
Si  1.69 -6.40 -7.97
Si  2.66 -1.22 -9.94
Si -2.66  1.22  9.94
Si -7.77 -2.62 -6.36
Si  7.77  2.62  6.36
Si -2.86  0.87 -9.94
Si  2.86 -0.87  9.94
Si -3.03  8.92 -4.39
Si  3.03 -8.92  4.39
Si  5.42  7.80  4.39
Si -5.42 -7.80 -4.39
Si -7.61 -5.71 -4.39
Si  7.61  5.71  4.39
Si  1.59  2.96 -9.94
Si -1.59 -2.96  9.94
Si  1.73 -2.96  9.94
Si -1.73  2.96 -9.94
Si -4.29 -9.60  0.81
Si  4.29  9.60 -0.81
Si  3.62  8.92 -4.39
Si -3.62 -8.92  4.39
Si -1.53  3.31  9.94
Si  1.53 -3.31 -9.94
Si -6.13  8.20  2.77
Si  6.13 -8.20 -2.77
Si  1.79  3.31  9.94
Si -1.79 -3.31 -9.94
Si  7.71 -3.65  6.36
Si -7.71  3.65 -6.36
Si  3.79  0.87 -9.94
Si -3.79 -0.87  9.94
Si  5.96 -4.05  7.97
Si -5.96  4.05 -7.97
Si -8.61  4.74 -4.39
Si  8.61 -4.74  4.39
Si -3.99 -1.22 -9.94
Si  3.99  1.22  9.94
Si  8.07  7.11  0.81
Si -8.07 -7.11 -0.81
Si -1.64 -10.29 -2.77
Si  1.64 10.29  2.77
Si -1.68 10.29  2.77
Si  1.68 -10.29 -2.77
Si  6.58 -5.74  6.36
Si -6.58  5.74 -6.36
Si  0.10 -9.89 -4.39
Si -0.10  9.89  4.39
Si -7.09  1.96 -7.97
Si  7.09 -1.96  7.97
Si  9.59  4.33 -2.77
Si -9.59 -4.33  2.77
Si -6.72 -5.74  6.36
Si  6.72  5.74 -6.36
Si  9.68 -5.02 -0.81
Si -9.68  5.02  0.81
Si -5.87 -9.20 -0.81
Si  5.87  9.20  0.81
Si -6.14  4.31  7.97
Si  6.14 -4.31 -7.97
Si 10.42  1.93  2.77
Si -10.42 -1.93 -2.77
Si  0.32 -10.60  2.77
Si -0.32 10.60 -2.77
Si  1.19  8.89  6.36
Si -1.19 -8.89 -6.36
Si  8.84 -1.56  6.36
Si -8.84  1.56 -6.36
Si  9.74 -2.65  4.39
Si -9.74  2.65 -4.39
Si -10.65 -0.15  2.77
Si 10.65  0.15 -2.77
Si  7.27 -2.22 -7.97
Si -7.27  2.22  7.97
Si  7.48 -6.83  4.39
Si -7.48  6.83 -4.39
Si  4.53  7.82 -6.36
Si -4.53 -7.82  6.36
Si -7.72  4.71  6.36
Si  7.72 -4.71 -6.36
Si -2.14  8.89  6.36
Si  2.14 -8.89 -6.36
Si  8.55 -7.11 -0.81
Si -8.55  7.11  0.81
Si -4.83  6.14 -7.97
Si  4.83 -6.14  7.97
Si -0.60  5.05 -9.94
Si  0.60 -5.05  9.94
Si -5.68  9.60 -0.81
Si  5.68 -9.60  0.81
Si -8.85  2.62  6.36
Si  8.85 -2.62 -6.36
Si -10.81  2.93  0.81
Si 10.81 -2.93 -0.81
Si  7.16  8.20  2.77
Si -7.16 -8.20 -2.77
Si  3.22  9.89  4.39
Si -3.22 -9.89 -4.39
Si  5.14  6.14 -7.97
Si -5.14 -6.14  7.97
Si -0.40  5.40  9.94
Si  0.40 -5.40 -9.94
Si  0.35 11.29  0.81
Si -0.35 -11.29 -0.81
Si  9.81  3.62  4.39
Si -9.81 -3.62 -4.39
Si -3.43  9.89  4.39
Si  3.43 -9.89 -4.39
Si  4.96  6.40  7.97
Si -4.96 -6.40 -7.97
Si  3.01 10.60 -2.77
Si -3.01 -10.60  2.77
Si -5.01  6.40  7.97
Si  5.01 -6.40 -7.97
Si 11.33  0.84  0.81
Si -11.33 -0.84 -0.81
Si  6.59 -6.80 -6.36
Si -6.59  6.80  6.36
Si -10.88 -3.34  0.81
Si 10.88  3.34 -0.81
Si 10.21  2.65 -4.39
Si -10.21 -2.65  4.39
Si -8.22 -0.13 -7.97
Si  8.22  0.13  7.97
