500
set: 40.00  0.00  0.00
Si  0.00  0.00  0.00
Si  0.06 -0.02 -2.42
Si -0.06  0.02  2.42
Si  1.26 -2.20  0.00
Si -1.26  2.20  0.00
Si  1.37  2.20  0.00
Si -1.37 -2.20  0.00
Si -2.64  0.00  0.00
Si  2.64  0.00  0.00
Si  1.20 -2.18  2.42
Si -1.20  2.18 -2.42
Si  2.58  0.02  2.42
Si -2.58 -0.02 -2.42
Si  1.31  2.22  2.42
Si -1.31 -2.22 -2.42
Si  1.32 -2.22 -2.42
Si -1.32  2.22  2.42
Si  1.43  2.18 -2.42
Si -1.43 -2.18  2.42
Si  2.70 -0.02 -2.42
Si -2.70  0.02  2.42
Si  0.11  4.39  0.00
Si -0.11 -4.39  0.00
Si  3.90 -2.20  0.00
Si -3.90  2.20  0.00
Si  4.01  2.20  0.00
Si -4.01 -2.20  0.00
Si -0.12  0.04  4.83
Si  0.12 -0.04 -4.83
Si -0.17 -4.37  2.42
Si  0.17  4.37 -2.42
Si  3.84 -2.18  2.42
Si -3.84  2.18 -2.42
Si -0.05 -4.42 -2.42
Si  0.05  4.42  2.42
Si -2.53  4.39  0.00
Si  2.53 -4.39  0.00
Si  3.95  2.22  2.42
Si -3.95 -2.22 -2.42
Si -3.96  2.22  2.42
Si  3.96 -2.22 -2.42
Si  2.75  4.39  0.00
Si -2.75 -4.39  0.00
Si  4.07  2.18 -2.42
Si -4.07 -2.18  2.42
Si  5.27  0.00  0.00
Si -5.27  0.00  0.00
Si  1.14 -2.15  4.83
Si -1.14  2.15 -4.83
Si -2.52 -0.04 -4.83
Si  2.52  0.04  4.83
Si  1.25  2.24  4.83
Si -1.25 -2.24 -4.83
Si -1.49 -2.15  4.83
Si  1.49  2.15 -4.83
Si  1.38 -2.24 -4.83
Si -1.38  2.24  4.83
Si  2.76 -0.04 -4.83
Si -2.76  0.04  4.83
Si  2.47 -4.37  2.42
Si -2.47  4.37 -2.42
Si  2.59 -4.42 -2.42
Si -2.59  4.42  2.42
Si  2.69  4.42  2.42
Si -2.69 -4.42 -2.42
Si  2.81  4.37 -2.42
Si -2.81 -4.37  2.42
Si -5.21 -0.02 -2.42
Si  5.21  0.02  2.42
Si -5.33  0.02  2.42
Si  5.33 -0.02 -2.42
Si  3.78 -2.15  4.83
Si -3.78  2.15 -4.83
Si  0.23  4.35 -4.83
Si -0.23 -4.35  4.83
Si  0.01 -4.44 -4.83
Si -0.01  4.44  4.83
Si -3.89 -2.24 -4.83
Si  3.89  2.24  4.83
Si  4.02 -2.24 -4.83
Si -4.02  2.24  4.83
Si -1.15  6.59  0.00
Si  1.15 -6.59  0.00
Si -4.13 -2.15  4.83
Si  4.13  2.15 -4.83
Si -1.48 -6.59  0.00
Si  1.48  6.59  0.00
Si -5.16  4.39  0.00
Si  5.16 -4.39  0.00
Si -6.54  2.20  0.00
Si  6.54 -2.20  0.00
Si -2.41  4.35 -4.83
Si  2.41 -4.35  4.83
Si  5.38  4.39  0.00
Si -5.38 -4.39  0.00
Si  6.65  2.20  0.00
Si -6.65 -2.20  0.00
Si -5.15 -0.04 -4.83
Si  5.15  0.04  4.83
Si  2.63  4.44  4.83
Si -2.63 -4.44 -4.83
Si -2.65  4.44  4.83
Si  2.65 -4.44 -4.83
Si -1.09  6.57 -2.42
Si  1.09 -6.57  2.42
Si  2.87  4.35 -4.83
Si -2.87 -4.35  4.83
Si -5.10  4.37 -2.42
Si  5.10 -4.37  2.42
Si  1.21 -6.61 -2.42
Si -1.21  6.61  2.42
Si -1.54 -6.57  2.42
Si  1.54  6.57 -2.42
Si -1.42 -6.61 -2.42
Si  1.42  6.61  2.42
Si  5.39 -0.04 -4.83
Si -5.39  0.04  4.83
Si  6.48 -2.18  2.42
Si -6.48  2.18 -2.42
Si -0.18  0.06  7.25
Si  0.18 -0.06 -7.25
Si  5.22 -4.42 -2.42
Si -5.22  4.42  2.42
Si -5.33 -4.42 -2.42
Si  5.33  4.42  2.42
Si  6.59  2.22  2.42
Si -6.59 -2.22 -2.42
Si  6.60 -2.22 -2.42
Si -6.60  2.22  2.42
Si  5.45  4.37 -2.42
Si -5.45 -4.37  2.42
Si  6.71  2.18 -2.42
Si -6.71 -2.18  2.42
Si  3.79 -6.59  0.00
Si -3.79  6.59  0.00
Si -1.08  2.13 -7.25
Si  1.08 -2.13  7.25
Si -2.46 -0.06 -7.25
Si  2.46  0.06  7.25
Si  1.19  2.26  7.25
Si -1.19 -2.26 -7.25
Si  1.55  2.13 -7.25
Si -1.55 -2.13  7.25
Si  1.44 -2.26 -7.25
Si -1.44  2.26  7.25
Si  4.12  6.59  0.00
Si -4.12 -6.59  0.00
Si -2.82  0.06  7.25
Si  2.82 -0.06 -7.25
Si -7.91  0.00  0.00
Si  7.91  0.00  0.00
Si  3.73 -6.57  2.42
Si -3.73  6.57 -2.42
Si  3.85 -6.61 -2.42
Si -3.85  6.61  2.42
Si  4.06  6.61  2.42
Si -4.06 -6.61 -2.42
Si  4.18  6.57 -2.42
Si -4.18 -6.57  2.42
Si  1.03 -6.55  4.83
Si -1.03  6.55 -4.83
Si  7.85  0.02  2.42
Si -7.85 -0.02 -2.42
Si -5.04  4.35 -4.83
Si  5.04 -4.35  4.83
Si  1.60  6.55 -4.83
Si -1.60 -6.55  4.83
Si -1.27  6.63  4.83
Si  1.27 -6.63 -4.83
Si -6.42  2.15 -4.83
Si  6.42 -2.15  4.83
Si  1.36  6.63  4.83
Si -1.36 -6.63 -4.83
Si -7.97  0.02  2.42
Si  7.97 -0.02 -2.42
Si  5.26  4.44  4.83
Si -5.26 -4.44 -4.83
Si -5.28  4.44  4.83
Si  5.28 -4.44 -4.83
Si -3.72  2.13 -7.25
Si  3.72 -2.13  7.25
Si -6.53 -2.24 -4.83
Si  6.53  2.24  4.83
Si -0.29 -4.33  7.25
Si  0.29  4.33 -7.25
Si -3.83 -2.26 -7.25
Si  3.83  2.26  7.25
Si  0.07 -4.46 -7.25
Si -0.07  4.46  7.25
Si  5.50  4.35 -4.83
Si -5.50 -4.35  4.83
Si  6.66 -2.24 -4.83
Si -6.66  2.24  4.83
Si -6.77 -2.15  4.83
Si  6.77  2.15 -4.83
Si  4.08 -2.26 -7.25
Si -4.08  2.26  7.25
Si  4.19  2.13 -7.25
Si -4.19 -2.13  7.25
Si  2.35 -4.33  7.25
Si -2.35  4.33 -7.25
Si -0.22 -8.79  0.00
Si  0.22  8.79  0.00
Si -5.09 -0.06 -7.25
Si  5.09  0.06  7.25
Si  2.57  4.46  7.25
Si -2.57 -4.46 -7.25
Si -3.67  6.55 -4.83
Si  3.67 -6.55  4.83
Si  2.71 -4.46 -7.25
Si -2.71  4.46  7.25
Si -2.93 -4.33  7.25
Si  2.93  4.33 -7.25
Si -7.80  4.39  0.00
Si  7.80 -4.39  0.00
Si -5.45  0.06  7.25
Si  5.45 -0.06 -7.25
Si -3.91  6.63  4.83
Si  3.91 -6.63 -4.83
Si  0.28  8.77 -2.42
Si -0.28 -8.77  2.42
Si -2.42  8.79  0.00
Si  2.42 -8.79  0.00
Si -4.00 -6.63 -4.83
Si  4.00  6.63  4.83
Si -0.16 -8.81 -2.42
Si  0.16  8.81  2.42
Si -8.02 -4.39  0.00
Si  8.02  4.39  0.00
Si -7.79 -0.04 -4.83
Si  7.79  0.04  4.83
Si -4.24 -6.55  4.83
Si  4.24  6.55 -4.83
Si -6.43  6.59  0.00
Si  6.43 -6.59  0.00
Si  7.74 -4.37  2.42
Si -7.74  4.37 -2.42
Si  2.86  8.79  0.00
Si -2.86 -8.79  0.00
Si -7.86  4.42  2.42
Si  7.86 -4.42 -2.42
Si -8.03  0.04  4.83
Si  8.03 -0.04 -4.83
Si  2.36 -8.77  2.42
Si -2.36  8.77 -2.42
Si  7.96  4.42  2.42
Si -7.96 -4.42 -2.42
Si -9.18  2.20  0.00
Si  9.18 -2.20  0.00
Si -6.76 -6.59  0.00
Si  6.76  6.59  0.00
Si  6.37 -6.57  2.42
Si -6.37  6.57 -2.42
Si  2.48 -8.81 -2.42
Si -2.48  8.81  2.42
Si  8.08  4.37 -2.42
Si -8.08 -4.37  2.42
Si  9.29  2.20  0.00
Si -9.29 -2.20  0.00
Si -2.92 -8.77  2.42
Si  2.92  8.77 -2.42
Si  2.80  8.81  2.42
Si -2.80 -8.81 -2.42
Si -6.49  6.61  2.42
Si  6.49 -6.61 -2.42
Si  0.24 -0.08 -9.67
Si -0.24  0.08  9.67
Si -9.12  2.18 -2.42
Si  9.12 -2.18  2.42
Si  6.70  6.61  2.42
Si -6.70 -6.61 -2.42
Si -6.82 -6.57  2.42
Si  6.82  6.57 -2.42
Si  9.22  2.22  2.42
Si -9.22 -2.22 -2.42
Si  9.23 -2.22 -2.42
Si -9.23  2.22  2.42
Si -0.97  6.53 -7.25
Si  0.97 -6.53  7.25
Si -4.98  4.33 -7.25
Si  4.98 -4.33  7.25
Si -6.36  2.13 -7.25
Si  6.36 -2.13  7.25
Si  9.35  2.18 -2.42
Si -9.35 -2.18  2.42
Si -1.66 -6.53  7.25
Si  1.66  6.53 -7.25
Si -1.30 -6.66 -7.25
Si  1.30  6.66  7.25
Si -1.33  6.66  7.25
Si  1.33 -6.66 -7.25
Si  1.02 -2.11  9.67
Si -1.02  2.11 -9.67
Si -2.40 -0.08 -9.67
Si  2.40  0.08  9.67
Si  6.47  2.26  7.25
Si -6.47 -2.26 -7.25
Si -5.21 -4.46 -7.25
Si  5.21  4.46  7.25
Si  1.13  2.28  9.67
Si -1.13 -2.28 -9.67
Si  0.34  8.75 -4.83
Si -0.34 -8.75  4.83
Si -1.61 -2.11  9.67
Si  1.61  2.11 -9.67
Si -1.50  2.28  9.67
Si  1.50 -2.28 -9.67
Si  5.34 -4.46 -7.25
Si -5.34  4.46  7.25
Si -7.68  4.35 -4.83
Si  7.68 -4.35  4.83
Si  0.10  8.83  4.83
Si -0.10 -8.83 -4.83
Si -2.88  0.08  9.67
Si  2.88 -0.08 -9.67
Si  5.57  4.33 -7.25
Si -5.57 -4.33  7.25
Si  5.05 -8.79  0.00
Si -5.05  8.79  0.00
Si -6.72  2.26  7.25
Si  6.72 -2.26 -7.25
Si -6.83 -2.13  7.25
Si  6.83  2.13 -7.25
Si  2.30 -8.75  4.83
Si -2.30  8.75 -4.83
Si  7.90  4.44  4.83
Si -7.90 -4.44 -4.83
Si -7.92  4.44  4.83
Si  7.92 -4.44 -4.83
Si -6.31  6.55 -4.83
Si  6.31 -6.55  4.83
Si  5.50  8.79  0.00
Si -5.50 -8.79  0.00
Si  4.99 -8.77  2.42
Si -4.99  8.77 -2.42
Si  2.54 -8.83 -4.83
Si -2.54  8.83  4.83
Si  3.61 -6.53  7.25
Si -3.61  6.53 -7.25
Si  8.14  4.35 -4.83
Si -8.14 -4.35  4.83
Si  2.98  8.75 -4.83
Si -2.98 -8.75  4.83
Si  2.74  8.83  4.83
Si -2.74 -8.83 -4.83
Si  5.11 -8.81 -2.42
Si -5.11  8.81  2.42
Si -9.05  2.15 -4.83
Si  9.05 -2.15  4.83
Si  6.55 -6.63 -4.83
Si -6.55  6.63  4.83
Si -10.55  0.00  0.00
Si 10.55  0.00  0.00
Si -3.66  2.11 -9.67
Si  3.66 -2.11  9.67
Si  6.64  6.63  4.83
Si -6.64 -6.63 -4.83
Si -0.35 -4.31  9.67
Si  0.35  4.31 -9.67
Si -7.73 -0.06 -7.25
Si  7.73  0.06  7.25
Si  9.16  2.24  4.83
Si -9.16 -2.24 -4.83
Si  3.94  6.66  7.25
Si -3.94 -6.66 -7.25
Si  3.97 -6.66 -7.25
Si -3.97  6.66  7.25
Si  3.77  2.28  9.67
Si -3.77 -2.28 -9.67
Si -5.43 -8.81 -2.42
Si  5.43  8.81  2.42
Si  0.13 -4.48 -9.67
Si -0.13  4.48  9.67
Si -6.88 -6.55  4.83
Si  6.88  6.55 -4.83
Si  5.55  8.77 -2.42
Si -5.55 -8.77  2.42
Si -4.30 -6.53  7.25
Si  4.30  6.53 -7.25
Si  9.29 -2.24 -4.83
Si -9.29  2.24  4.83
Si -10.49 -0.02 -2.42
Si 10.49  0.02  2.42
Si  4.14 -2.28 -9.67
Si -4.14  2.28  9.67
Si -4.25 -2.11  9.67
Si  4.25  2.11 -9.67
Si  9.40  2.15 -4.83
Si -9.40 -2.15  4.83
Si  2.29 -4.31  9.67
Si -2.29  4.31 -9.67
Si  8.09 -0.06 -7.25
Si -8.09  0.06  7.25
Si -10.61  0.02  2.42
Si 10.61 -0.02 -2.42
Si -5.03 -0.08 -9.67
Si  5.03  0.08  9.67
Si -2.51 -4.48 -9.67
Si  2.51  4.48  9.67
Si -2.99 -4.31  9.67
Si  2.99  4.31 -9.67
Si -2.77  4.48  9.67
Si  2.77 -4.48 -9.67
Si  1.04 -10.99  0.00
Si -1.04 10.99  0.00
Si -1.59 -10.99  0.00
Si  1.59 10.99  0.00
Si  5.51 -0.08 -9.67
Si -5.51  0.08  9.67
Si -4.93  8.75 -4.83
Si  4.93 -8.75  4.83
Si -9.06  6.59  0.00
Si  9.06 -6.59  0.00
Si  0.98 -10.97  2.42
Si -0.98 10.97 -2.42
Si -5.17  8.83  4.83
Si  5.17 -8.83 -4.83
Si -1.10 11.01  2.42
Si  1.10 -11.01 -2.42
Si 10.44 -4.39  0.00
Si -10.44  4.39  0.00
Si  1.66 10.97 -2.42
Si -1.66 -10.97  2.42
Si  0.40  8.73 -7.25
Si -0.40 -8.73  7.25
Si  1.53 11.01  2.42
Si -1.53 -11.01 -2.42
Si  7.62 -4.33  7.25
Si -7.62  4.33 -7.25
Si  9.00 -6.57  2.42
Si -9.00  6.57 -2.42
Si -5.38 -8.83 -4.83
Si  5.38  8.83  4.83
Si  0.04  8.85  7.25
Si -0.04 -8.85 -7.25
Si  5.62  8.75 -4.83
Si -5.62 -8.75  4.83
Si  9.40  6.59  0.00
Si -9.40 -6.59  0.00
Si -10.43 -0.04 -4.83
Si 10.43  0.04  4.83
Si 10.38 -4.37  2.42
Si -10.38  4.37 -2.42
Si -9.12  6.61  2.42
Si  9.12 -6.61 -2.42
Si -10.66 -4.39  0.00
Si 10.66  4.39  0.00
Si  2.24 -8.73  7.25
Si -2.24  8.73 -7.25
Si  7.84  4.46  7.25
Si -7.84 -4.46 -7.25
Si  6.25 -6.53  7.25
Si -6.25  6.53 -7.25
Si  3.68 -10.99  0.00
Si -3.68 10.99  0.00
Si -10.50  4.42  2.42
Si 10.50 -4.42 -2.42
Si -7.98  4.46  7.25
Si  7.98 -4.46 -7.25
Si  4.92 -4.31  9.67
Si -4.92  4.31 -9.67
Si -7.69  8.79  0.00
Si  7.69 -8.79  0.00
Si -0.91  6.51 -9.67
Si  0.91 -6.51  9.67
Si  9.34  6.61  2.42
Si -9.34 -6.61 -2.42
Si -10.67  0.04  4.83
Si 10.67 -0.04 -4.83
Si  6.30 -2.11  9.67
Si -6.30  2.11 -9.67
Si -10.60 -4.42 -2.42
Si 10.60  4.42  2.42
Si  2.60 -8.85 -7.25
Si -2.60  8.85  7.25
Si  3.04  8.73 -7.25
Si -3.04 -8.73  7.25
Si -8.99  2.13 -7.25
Si  8.99 -2.13  7.25
Si  2.68  8.85  7.25
Si -2.68 -8.85 -7.25
Si  9.46  6.57 -2.42
Si -9.46 -6.57  2.42
Si -8.20 -4.33  7.25
Si  8.20  4.33 -7.25
Si -4.23 -10.99  0.00
Si  4.23 10.99  0.00
Si  1.72  6.51 -9.67
Si -1.72 -6.51  9.67
Si -3.62 10.97 -2.42
Si  3.62 -10.97  2.42
Si  1.24  6.68  9.67
Si -1.24 -6.68 -9.67
Si  6.41  2.28  9.67
Si -6.41 -2.28 -9.67
Si 10.72  4.37 -2.42
Si -10.72 -4.37  2.42
Si  1.39 -6.68 -9.67
Si -1.39  6.68  9.67
Si -5.14 -4.48 -9.67
