500
set: 984.00  0.00  0.00
Si -0.39  1.21 -0.80
Si  0.43 -1.21  0.87
Si -1.39 -1.24 -0.80
Si  1.48  1.28  0.85
Si -0.94 -0.04  2.50
Si  0.89  0.04 -2.54
Si  2.25 -1.17 -0.90
Si -2.25  1.27  0.82
Si -0.03 -2.36 -2.54
Si  0.06  2.39  2.54
Si -3.18 -1.19  0.85
Si  3.14  1.27 -0.92
Si  2.70 -0.05  2.51
Si -2.75 -0.07 -2.51
Si -0.43 -3.62  0.85
Si  0.52  3.67 -0.80
Si -1.78  2.36 -2.49
Si  1.23 -3.63 -0.92
Si  1.77 -2.48  2.56
Si -1.27  3.71  0.85
Si -1.85 -2.51  2.54
Si  1.88  2.54 -2.54
Si -0.90 -0.06 -4.22
Si  0.92  0.09  4.22
Si  4.07 -1.19  0.85
Si -4.11  1.27 -0.92
Si -2.30 -3.70 -0.80
Si  2.34  3.69  0.87
Si  3.09 -3.64  0.82
Si -0.07 -2.41  4.22
Si  0.02  2.41 -4.26
Si -3.09  3.74 -0.90
Si  2.72 -0.03 -4.20
Si -3.57  2.42  2.56
Si  3.56 -2.54 -2.49
Si -2.74 -0.09  4.26
Si  3.68  2.42  2.56
Si -3.69 -2.54 -2.49
Si  4.50 -0.07 -2.51
Si -1.79  2.38  4.24
Si -4.54 -0.05  2.51
Si -5.00 -1.17 -0.90
Si  5.00  1.27  0.82
Si  1.75 -2.50 -4.24
Si  1.84  2.49  4.22
Si -1.89 -2.50 -4.26
Si -0.84  4.84 -2.51
Si  0.97  4.86  2.50
Si -1.02 -4.87 -2.54
Si -4.16 -3.64  0.82
Si  0.79 -4.95  2.51
Si  4.16  3.74 -0.90
Si -5.77  1.28  0.85
Si  0.52 -1.17 -5.90
Si  5.86 -1.24 -0.80
Si -3.59  2.40 -4.24
Si -2.63  4.86  2.51
Si  3.55 -2.52  4.24
Si -0.43  1.22  5.95
Si  3.66  2.40 -4.24
Si  2.59 -4.97 -2.51
Si  0.34 -6.07 -0.90
Si -3.70 -2.52  4.24
Si  1.39  1.24 -5.88
Si -4.53 -0.03 -4.20
Si -4.91  3.69  0.87
Si  4.51 -0.09  4.26
Si  2.80  4.94 -2.54
Si  4.95 -3.70 -0.80
Si -2.85 -4.95  2.50
Si -1.35 -1.25  5.96
Si -0.34  6.17  0.82
Si  2.18 -1.18  5.83
Si  1.52  6.11 -0.80
Si -1.48 -6.12  0.87
Si -2.22  1.26 -5.90
Si  5.47  2.36 -2.49
Si -5.37  2.54 -2.54
Si  5.39 -2.51  2.54
Si -0.99 -4.81  4.22
Si -0.83  4.81  4.26
Si  1.01  4.84 -4.22
Si  2.16 -6.10  0.85
Si  0.81 -4.93 -4.20
Si -5.48 -2.48  2.56
Si -2.20  6.17 -0.92
Si  6.31 -0.04  2.50
Si  3.20  1.28  5.86
Si -3.21 -1.19 -5.93
Si -6.36  0.04 -2.54
Si -2.62  4.87 -4.20
Si -0.53 -3.67 -5.88
Si -6.82 -1.21  0.87
Si  1.29 -3.62  5.86
Si  6.86  1.21 -0.80
Si  0.56  3.66  5.96
Si -3.30 -6.14 -0.80
Si  2.60 -5.00  4.26
Si  4.40 -4.95  2.50
Si -6.02 -3.63 -0.92
Si  5.98  3.71  0.85
Si -2.81 -4.97 -4.22
Si  3.39  6.19  0.85
Si -4.45  4.94 -2.54
Si -1.30  3.72 -5.93
Si  2.83  4.99  4.22
Si  4.61  4.86  2.51
Si -4.05  1.28  5.86
Si -4.66 -4.97 -2.51
Si  4.04 -1.19 -5.93
Si  5.36 -2.50 -4.26
Si -5.41  2.49  4.22
Si  5.46  2.38  4.24
Si -3.86  6.19  0.85
Si  3.95 -6.14 -0.80
Si -5.50 -2.50 -4.24
Si -2.34 -3.69  5.95
Si  2.43  3.73 -5.90
Si -6.33  0.09  4.22
Si  3.12 -3.65 -5.90
Si -3.15  3.72  5.83
Si  6.35 -0.06 -4.22
Si -0.43  1.22 -7.56
Si  0.13  7.26 -2.49
Si -6.73  3.67 -0.80
Si  0.52 -1.17  7.61
Si  6.82 -3.62  0.85
Si -1.35 -1.25 -7.55
Si -7.64  1.21 -0.80
Si -5.06 -1.18  5.83
Si -0.14 -7.38  2.56
Si  7.68 -1.21  0.87
Si  1.38  1.24  7.63
Si  5.03  1.26 -5.90
Si  4.44 -4.97 -4.22
Si -4.42  4.99  4.22
Si  4.63  4.87 -4.20
Si -1.66  7.33  2.56
Si -1.94 -7.27 -2.54
Si  1.97  7.29  2.54
Si -5.09 -6.10  0.85
Si -7.19  2.39  2.54
Si  7.22 -2.36 -2.54
Si -2.22  1.26  7.61
Si  1.65 -7.45 -2.49
Si  5.05  6.17 -0.92
Si  4.09  3.72  5.83
Si -4.65 -5.00  4.26
Si -7.28 -2.36 -2.54
Si  2.19 -1.18 -7.67
Si -4.13 -3.65 -5.90
Si  7.30  2.39  2.54
Si  6.22 -4.87 -2.54
Si -3.21 -1.19  7.58
Si -6.28  4.86  2.50
Si  3.20  1.28 -7.65
Si -5.86  1.24 -5.88
Si  0.56  3.66 -7.55
Si  6.41  4.84 -2.51
Si -5.73  6.11 -0.80
Si  0.27 -6.08  5.83
Si  0.12  7.29  4.24
Si  5.77 -6.12  0.87
Si  5.90 -1.25  5.96
Si -0.53 -3.66  7.63
Si -4.82  3.73 -5.90
Si -6.45 -4.95  2.51
Si  8.13  0.04 -2.54
Si -7.68 -3.62  0.85
Si -0.16 -7.41 -4.24
Si -1.30  3.72  7.58
Si -0.31  6.16 -5.90
Si  4.90 -3.69  5.95
Si -8.19 -0.04  2.50
Si  1.29 -3.62 -7.65
Si  3.48 -7.42  2.54
Si -1.39 -6.07 -5.90
Si -3.46  7.45 -2.54
Si -0.68 -8.54 -0.92
Si -1.68  7.31 -4.24
Si  7.77  3.67 -0.80
Si  1.18 -8.54  0.82
Si  1.48  6.12  5.95
Si  4.04 -1.19  7.58
Si  7.18 -2.41  4.22
Si -1.98 -7.32  4.22
Si  1.93  7.31 -4.26
Si  0.64  8.62  0.85
Si -3.76 -7.42  2.54
Si  1.64 -7.42  4.24
Si -7.23  2.41 -4.26
Si  3.79  7.45 -2.54
Si -2.34 -3.69 -7.56
Si -4.04  1.28 -7.65
Si  7.27  2.41 -4.26
Si -8.64 -1.24 -0.80
Si  2.13 -6.09 -5.93
Si -1.18  8.64 -0.90
Si -2.14  6.19  5.86
Si -7.32 -2.41  4.22
Si  2.43  3.74  7.61
Si  8.72  1.28  0.85
Si -2.34 -8.52  0.85
Si  2.43  8.57 -0.80
Si -6.24  4.84 -4.22
Si  6.26 -4.81  4.22
Si  3.12 -3.64  7.61
Si -6.73 -1.17 -5.90
Si  6.42  4.81  4.26
Si -3.15  3.72 -7.67
Si -5.96 -3.62  5.86
Si  3.29  6.14 -5.88
Si  6.81  1.22  5.95
Si -6.44 -4.93 -4.20
Si -3.00  8.60  0.87
Si  3.04 -8.60 -0.80
Si -3.26 -6.15  5.96
Si -8.15 -0.06 -4.22
Si  5.95  3.72 -5.93
Si  8.17  0.09  4.22
Si -3.50  7.39  4.22
Si  5.03  1.26  7.61
Si  3.45 -7.40 -4.26
Si -6.91 -6.07 -0.90
Si -5.06 -1.18 -7.67
Si  8.48 -3.63 -0.92
Si  6.91  6.17  0.82
Si  3.75  7.39  4.22
Si -8.52  3.71  0.85
Si -0.90 -0.06  9.29
Si  0.92  0.09 -9.29
Si -3.80 -7.40 -4.26
Si  5.30 -7.27 -2.54
Si -5.28  7.29  2.54
Si -3.95  6.14 -5.88
Si -4.13 -3.64  7.61
Si  3.99 -6.15  5.96
Si  4.10  3.72 -7.67
Si  0.02  2.41  9.25
Si  5.59  7.33  2.56
Si -0.07 -2.42 -9.29
Si  9.50 -1.17 -0.90
Si -4.21 -8.60 -0.80
Si -9.50  1.27  0.82
Si  4.25  8.60  0.87
Si -2.73 -0.09 -9.25
Si -5.60 -7.45 -2.49
Si  6.72 -3.67 -5.88
Si -9.03  2.36 -2.49
Si  5.90 -1.25 -7.55
Si -6.69  3.66  5.96
Si  9.02 -2.48  2.56
Si -5.87  1.24  7.63
Si  2.72 -0.03  9.31
Si -1.79  2.38 -9.27
Si  4.91 -3.69 -7.56
Si -4.82  3.74  7.61
Si -8.09  4.84 -2.51
Si  1.75 -2.50  9.27
Si  7.59 -6.07 -0.90
Si -1.89 -2.49  9.25
Si  8.04 -4.95  2.51
Si -9.10 -2.51  2.54
Si -7.68  1.22  5.95
Si  1.84  2.49 -9.29
Si -0.31  6.16  7.61
Si  0.28 -6.08 -7.67
Si  9.13  2.54 -2.54
Si -7.59  6.17  0.82
Si  7.77 -1.17 -5.90
Si -1.39 -6.07  7.61
Si  1.48  6.12 -7.56
Si -4.82  8.57 -0.80
Si  4.91 -8.52  0.85
Si  8.22  4.86  2.50
Si -5.12 -6.09 -5.93
Si -8.27 -4.87 -2.54
Si  5.11  6.19  5.86
Si  2.13 -6.09  7.58
Si  5.27 -7.32  4.22
Si -5.32  7.31 -4.26
Si -2.13  6.19 -7.65
Si -0.72  9.76  2.51
Si  1.07  9.74 -2.51
Si  5.57  7.31 -4.24
Si  0.68 -9.88 -2.51
Si -6.73 -1.17  7.61
Si -3.59  2.40  9.27
Si -5.61 -7.42  4.24
Si -1.12 -9.86  2.51
Si  3.55 -2.52 -9.27
Si  3.66  2.40  9.27
Si  6.82  1.22 -7.56
Si  9.00 -2.50 -4.24
Si  9.95 -0.05  2.51
Si -9.04  2.38  4.24
Si -3.26 -6.15 -7.55
Si -9.55 -3.70 -0.80
Si -3.70 -2.52 -9.27
Si  4.51 -0.09 -9.25
Si  5.86 -6.07 -5.90
Si -5.77  6.12  5.95
Si -9.99 -0.07 -2.51
Si  9.59  3.69  0.87
Si -8.07  4.81  4.26
Si  9.09  2.49  4.22
Si  5.95  3.72  7.58
Si  3.29  6.14  7.63
Si  8.06 -4.93 -4.20
Si -5.96 -3.62 -7.65
Si -4.53 -0.03  9.31
Si -0.62 -8.52  5.86
Si -9.14 -2.50 -4.26
Si -7.77 -3.67 -5.88
Si -8.24 -4.81  4.22
Si -0.82  4.81 -9.25
Si  1.21 -8.55 -5.90
Si  8.26  4.84 -4.22
Si  2.49 -9.85  2.50
Si -7.12  7.26 -2.49
Si -2.54  9.85 -2.54
Si  7.81  3.66  5.96
Si  0.61  8.62 -5.93
Si  2.88  9.76  2.50
Si -1.24  8.63  5.83
Si 10.39  1.27 -0.92
Si -0.99 -4.82 -9.29
Si -6.07 -8.54  0.82
Si -2.93 -9.77 -2.54
Si  8.63  1.24 -5.88
Si  1.01  4.84  9.29
Si -10.43 -1.19  0.85
Si  3.99 -6.15 -7.55
Si -8.60 -1.25  5.96
Si -3.96  6.14  7.63
Si  7.10 -7.38  2.56
Si  0.81 -4.93  9.31
Si  6.07  8.64 -0.90
Si  7.38  7.26 -2.49
Si  1.08  9.71  4.26
Si -0.71  9.78 -4.20
Si -2.44 -8.57 -5.88
Si -8.73 -6.12  0.87
Si  8.77  6.11 -0.80
Si  2.47  8.56  5.96
Si -6.69  3.66 -7.55
Si -1.10 -9.84 -4.20
Si -7.39 -7.38  2.56
Si  0.69 -9.90  4.26
Si  6.72 -3.66  7.63
Si  6.57 -8.54 -0.92
Si  9.97 -0.03 -4.20
Si  2.60 -5.00 -9.25
Si -2.62  4.88  9.31
Si -7.68  1.22 -7.56
Si -9.98 -0.09  4.26
Si -2.91  8.64 -5.90
Si  2.99 -8.59  5.95
Si -6.61  8.62  0.85
Si -2.81 -4.97  9.29
Si  2.83  4.99 -9.29
Si  7.77 -1.17  7.61
Si -6.97 -6.08  5.83
Si  8.54 -3.62  5.86
Si  5.36 -2.49  9.25
Si  4.32 -9.77 -2.54
Si -4.37  9.76  2.50
Si -2.90 -9.72  4.22
Si -5.12 -6.09  7.58
Si 10.34 -3.64  0.82
Si  6.94  6.16 -5.90
Si  0.89  0.04 10.97
Si  2.92  9.74 -4.22
Si  5.46  2.38 -9.27
Si  2.53 -9.87 -4.22
Si -10.34  3.74 -0.90
Si -5.41  2.49 -9.29
Si  0.25 -11.00  0.85
Si -7.13  7.29  4.24
Si -8.54  3.72 -5.93
Si -2.51  9.90  4.22
Si -0.94 -0.04 -11.01
Si -5.50 -2.50  9.27
Si  5.11  6.19 -7.65
Si  7.09 -7.41 -4.24
Si -0.29 11.08 -0.92
Si -1.57 -10.97 -0.90
Si  9.43 -1.18  5.83
Si  7.37  7.29  4.24
Si  4.71  9.85 -2.54
Si  1.57 11.07  0.82
Si -4.76 -9.85  2.50
Si -0.04 -2.36 10.97
Si -9.47  1.26 -5.90
Si  0.06  2.39 -10.97
Si -6.33  0.09 -9.29
Si  9.41 -6.10  0.85
Si  6.35 -0.06  9.29
Si  2.04 -11.04 -0.80
Si -4.25 -8.59  5.95
Si -9.88  4.86  2.51
Si -1.95 11.09  0.85
Si  7.52 -6.08  5.83
Si -7.41 -7.41 -4.24
Si  9.84 -4.97 -2.51
Si -5.77  6.12 -7.56
Si -9.45  6.17 -0.92
Si  2.71 -0.05 -11.00
Si  4.34  8.64 -5.90
Si -2.75 -0.07 11.00
Si  5.86 -6.07  7.61
Si  1.77 -2.48 -10.95
Si 10.81 -2.54 -2.49
Si -10.82  2.42  2.56
Si -7.56  6.16 -5.90
Si -1.78  2.36 11.02
Si -1.85 -2.52 -10.97
Si 11.32 -1.19  0.85
Si  1.88  2.54 10.97
Si  4.44 -4.97  9.29
Si -4.42  4.99 -9.29
Si  4.35 -9.72  4.22
Si  4.81 -8.57 -5.88
Si -11.36  1.27 -0.92
Si  7.81  3.66 -7.55
Si -4.33  9.74 -4.22
Si -4.78  8.56  5.96
Si -0.62 -8.52 -7.65
Si 10.04  4.94 -2.54
Si 10.93  2.42  2.56
Si  4.63  4.88  9.31
Si -7.78 -3.66  7.63
Si -4.64 -5.00 -9.25
Si  0.61  8.62  7.58
Si  1.21 -8.55  7.61
Si -10.94 -2.54 -2.49
Si -8.60 -1.25 -7.55
Si -10.10 -4.95  2.50
Si  3.43 11.01 -0.80
Si -3.39 -11.02  0.87
Si  8.63  1.24  7.63
Si -1.24  8.63 -7.67
Si  2.47  8.56 -7.55
Si -3.82 11.01 -0.80
Si -7.93 -8.54 -0.92
Si  3.86 -11.02  0.87
Si  7.89  8.62  0.85
Si -4.72 -9.87 -4.22
Si -2.44 -8.57  7.63
Si  4.74  9.90  4.22
Si -3.57  2.42 -10.95
Si -9.87  4.87 -4.20
Si  0.12  7.29 -9.27
Si -6.17  9.74 -2.51
Si  3.68  2.42 -10.95
Si -8.91  7.33  2.56
Si  3.00 -8.59 -7.56
Si  9.85 -5.00  4.26
Si  3.56 -2.54 11.02
Si -0.16 -7.40  9.27
Si  8.90 -7.45 -2.49
Si 10.79 -2.52  4.24
Si -2.91  8.64  7.61
Si -9.59 -3.69  5.95
Si  6.13 -9.86  2.51
Si -10.84  2.40 -4.24
Si  4.50 -0.07 11.00
Si -3.69 -2.54 11.02
Si -4.54 -0.05 -11.00
Si -1.68  7.31  9.27
Si  9.68  3.73 -5.90
Si 10.91  2.40 -4.24
Si  1.93  7.31  9.25
Si -10.06 -4.97 -4.22
Si  1.64 -7.42 -9.27
Si -7.23  2.41  9.25
Si -9.19 -7.27 -2.54
Si  7.18 -2.42 -9.29
Si -1.98 -7.32 -9.29
Si  6.94  6.16  7.61
Si -11.41 -3.64  0.82
Si  6.53  9.76  2.51
Si  7.27  2.41  9.25
Si -8.55  3.72  7.58
Si -10.95 -2.52  4.24
Si 10.08  4.99  4.22
Si 11.75 -0.07 -2.51
Si -6.04 -8.55 -5.90
Si -6.97 -6.08 -7.67
Si  9.21  7.29  2.54
Si  6.00  8.63  5.83
Si  8.43 -8.54  0.82
Si  8.54 -3.62 -7.65
Si 11.41  3.74 -0.90
Si -0.84  4.84 11.00
Si -1.02 -4.87 10.97
Si 10.45  1.28  5.86
Si -11.79 -0.05  2.51
Si -7.32 -2.42 -9.29
Si  0.97  4.86 -11.01
