500
set: 1421.00  0.00  0.00
Si -0.14  0.34 -0.53
Si -0.39  0.51  1.68
Si  2.22 -0.03 -0.78
Si -1.55 -1.48 -1.36
Si -1.37  2.22 -1.36
Si  1.18 -1.36  2.37
Si -2.20 -1.30  1.94
Si -0.32 -3.36 -0.53
Si -0.90 -0.21 -3.42
Si  1.37  2.34  2.37
Si  2.97  0.45  2.05
Si -0.58 -3.20  1.68
Si -2.01  2.40  1.94
Si -3.38  1.78 -0.01
Si  2.48 -0.27 -2.99
Si  3.48 -1.92 -0.01
Si -3.57 -1.92 -0.01
Si  0.05  4.04 -0.53
Si  3.67  1.78 -0.01
Si  0.91  1.59 -3.68
Si  0.72 -2.11 -3.68
Si  2.04 -3.73 -0.78
Si  2.41  3.67 -0.78
Si -0.21  4.21  1.68
Si -2.79  1.54 -3.30
Si -4.09  0.45  2.05
Si  2.78 -3.25  2.05
Si  0.92 -1.12  4.58
Si -4.83 -0.03 -0.78
Si -0.71  3.49 -3.42
Si -2.67  1.13  4.00
Si -2.98 -2.16 -3.30
Si -1.44 -0.75  4.83
Si  2.67  3.43 -2.99
Si -1.09 -3.91 -3.42
Si  1.11  2.58  4.58
Si  4.86 -1.30  1.94
Si -4.58 -0.27 -2.99
Si  2.29 -3.97 -2.99
Si -2.85 -2.57  4.00
Si  3.15  4.15  2.05
Si  4.26  1.54 -3.30
Si -1.74 -5.18 -1.36
Si  4.08 -2.16 -3.30
Si  0.99 -5.06  2.37
Si -4.27 -3.25  2.05
Si -1.25  2.95  4.83
Si  5.50 -1.48 -1.36
Si -2.38 -5.00  1.94
Si  2.37  0.69  5.34
Si -2.27 -0.83 -5.37
Si  5.04  2.40  1.94
Si -4.64  3.67 -0.78
Si  4.39  1.13  4.00
Si -3.90  4.15  2.05
Si  1.16  1.43 -5.89
Si -1.18  5.92 -1.36
Si  5.68  2.22 -1.36
Si -5.02 -3.73 -0.78
Si -4.39  3.43 -2.99
Si  4.20 -2.57  4.00
Si -3.20  5.48 -0.01
Si  0.98 -2.27 -5.89
Si -2.09  2.87 -5.37
Si -5.87 -1.36  2.37
Si  2.18 -3.01  5.34
Si  3.30 -5.62 -0.01
Si  1.09  5.29 -3.68
Si -5.69  2.34  2.37
Si -1.83  6.10  1.94
Si  1.55  6.04  2.37
Si  0.74 -4.82  4.58
Si  3.85  5.48 -0.01
Si -2.60  5.24 -3.30
Si -0.26 -0.39 -6.71
Si -2.48  4.83  4.00
Si -3.76 -5.62 -0.01
Si -1.62 -4.45  4.83
Si -4.76 -3.97 -2.99
Si  6.66  0.51  1.68
Si  0.53 -5.81 -3.68
Si  6.92  0.34 -0.53
Si  6.15 -0.21 -3.42
Si -0.51 -7.06 -0.53
Si  4.67 -5.00  1.94
Si -4.68  0.69  5.34
Si -0.77 -6.90  1.68
Si  3.52  1.06 -6.14
Si -3.53  1.06 -6.14
Si -7.19  0.34 -0.53
Si  4.78 -0.83 -5.37
Si -1.69 -0.58  7.04
Si -6.15  1.59 -3.68
Si  2.56  4.39  5.34
Si  6.47 -3.20  1.68
Si -3.16 -5.86 -3.30
Si  5.62 -0.75  4.83
Si -2.46 -4.53 -5.37
Si  3.34 -2.64 -6.14
Si -0.07  3.31 -6.71
Si  6.73 -3.36 -0.53
Si  5.31 -5.18 -1.36
Si -6.33 -2.11 -3.68
Si  1.67 -0.64  7.41
Si  4.45  5.24 -3.30
Si -3.72 -2.64 -6.14
Si -7.45  0.51  1.68
Si  2.59 -6.95  2.05
Si  1.85 -7.43 -0.78
Si -6.13 -1.12  4.58
Si  4.57  4.83  4.00
Si  0.24  7.74 -0.53
Si  3.89 -5.86 -3.30
Si  0.07  1.25  7.73
Si -4.87 -3.01  5.34
Si -1.50  3.12  7.04
Si  2.60  7.37 -0.78
Si  4.97  2.87 -5.37
Si -0.44 -4.09 -6.71
Si  1.30  6.28  4.58
Si  5.97 -3.91 -3.42
Si  1.35  5.13 -5.89
Si -5.94  2.58  4.58
Si -0.53  7.19 -3.42
Si  6.34  3.49 -3.42
Si -3.04 -6.27  4.00
Si -0.02  7.91  1.68
Si -7.00  4.04 -0.53
Si  5.80  2.95  4.83
Si -0.12 -2.45  7.73
Si -3.31  1.31  7.30
Si -7.38 -3.36 -0.53
Si  7.10  4.04 -0.53
Si  6.85  4.21  1.68
Si  1.85  3.06  7.41
Si  2.85  7.13 -2.99
Si -6.06 -5.06  2.37
Si -4.50  4.39  5.34
Si  5.23  6.10  1.94
Si -1.06  6.66  4.83
Si  3.74  1.31  7.30
Si  4.60 -4.53 -5.37
Si  0.79 -5.97 -5.89
Si -3.50 -2.39  7.30
Si -1.27 -7.61 -3.42
Si -7.63 -3.20  1.68
Si  5.87  5.92 -1.36
Si -1.88 -4.29  7.04
Si  4.01 -6.27  4.00
Si -5.89  1.43 -5.89
Si -3.35  4.76 -6.14
Si  3.56 -2.39  7.30
Si  2.11 -7.67 -2.99
Si -5.50  6.04  2.37
Si -4.46 -6.95  2.05
Si  5.43 -4.45  4.83
Si -7.26  4.21  1.68
Si  3.71  4.76 -6.14
Si -4.46  7.37 -0.78
Si -7.95 -0.21 -3.42
Si  8.23 -1.36  2.37
Si -1.90  6.57 -5.37
Si  1.48 -4.34  7.41
Si -6.08 -2.27 -5.89
Si  3.34  7.85  2.05
Si -5.96  5.29 -3.68
Si -4.20  7.13 -2.99
Si  2.00 -6.71  5.34
Si -8.42  2.22 -1.36
Si  0.40  0.88 -8.77
Si -8.61 -1.48 -1.36
Si  7.77 -2.11 -3.68
Si  5.36 -0.58  7.04
Si -1.68 -1.07 -8.66
Si  7.96  1.59 -3.68
Si -3.72  7.85  2.05
Si -3.28  0.82 -8.34
Si  8.42  2.34  2.37
Si -5.20 -7.43 -0.78
Si  0.81 -8.76  2.37
Si -6.32 -4.82  4.58
Si -1.49  2.63 -8.66
Si -7.77  3.49 -3.42
Si  0.25  4.95  7.73
Si -5.39 -0.64  7.41
Si -1.93 -8.88 -1.36
Si  3.78  0.82 -8.34
Si  0.21 -2.82 -8.77
Si  7.98 -1.12  4.58
Si -2.57 -8.70  1.94
Si  9.28 -0.03 -0.78
Si  2.02 -1.02 -9.04
Si  3.15 -6.34 -6.14
Si -3.12  5.01  7.30
Si -6.52 -5.81 -3.68
Si -3.46 -2.88 -8.34
Si  6.29 -6.90  1.68
Si  5.55  3.12  7.04
Si  3.59 -2.88 -8.34
Si -9.25 -1.30  1.94
Si -5.20  3.06  7.41
Si  6.80 -0.39 -6.71
Si -9.07  2.40  1.94
Si -4.95 -7.67 -2.99
Si -1.81 -8.15  4.83
Si  6.54 -7.06 -0.53
Si -3.90 -6.34 -6.14
Si -8.14 -3.91 -3.42
Si -3.01  9.19 -0.01
Si -5.76  6.28  4.58
Si -5.71  5.13 -5.89
Si  2.21  2.68 -9.04
Si  3.93  5.01  7.30
Si  0.55 -8.52  4.58
Si -2.29  8.54  4.00
Si  8.16  2.58  4.58
Si  0.12  7.01 -6.71
Si  5.18 -4.29  7.04
Si -1.00  9.62 -1.36
Si -8.49 -0.75  4.83
Si  8.05 -5.06  2.37
Si  1.28  9.00 -3.68
Si  3.11 -9.32 -0.01
Si -2.42  8.94 -3.30
Si  3.09  0.04  9.36
Si  9.09 -3.73 -0.78
Si -0.30 -6.15  7.73
Si -1.32  6.82  7.04
Si  0.58  4.58 -8.77
Si  5.15  6.57 -5.37
Si -7.31 -0.39 -6.71
Si -5.06 -6.71  5.34
Si -3.09  4.52 -8.34
Si  4.48 -8.70  1.94
Si  9.53 -0.27 -2.99
Si  4.04  9.19 -0.01
Si -0.19  1.49  9.93
Si -8.30  2.95  4.83
Si -1.86 -4.77 -8.66
Si  2.74  8.10  5.34
Si  3.37 -6.09  7.30
Si -3.94 -9.32 -0.01
Si -1.64  9.80  1.94
Si  5.78 -7.61 -3.42
Si -3.97  0.04  9.36
Si  5.99  6.66  4.83
Si  1.74  9.74  2.37
Si -2.64 -8.23 -5.37
Si  9.46  3.67 -0.78
Si -0.37 -2.21  9.93
Si -3.68 -6.09  7.30
Si  0.35 -9.51 -3.68
Si  8.22  1.43 -5.89
Si  8.03 -2.27 -5.89
Si -8.24  5.92 -1.36
Si -5.57 -4.34  7.41
Si 10.02  0.45  2.05
Si  6.98  3.31 -6.71
Si  7.59 -5.81 -3.68
Si  2.04  6.76  7.41
Si  7.79 -4.82  4.58
Si  5.38 -1.07 -8.66
Si  6.61 -4.09 -6.71
Si  3.96  4.52 -8.34
Si  6.53  7.19 -3.42
Si -8.79 -5.18 -1.36
Si -0.63 -7.79 -6.71
Si -6.82  7.74 -0.53
Si -7.12  3.31 -6.71
Si  5.13 -8.88 -1.36
Si  1.83 -4.72 -9.04
Si -7.56 -7.06 -0.53
Si  8.15  5.29 -3.68
Si -5.04 -1.02 -9.04
Si  2.90 -3.66  9.36
Si -6.26 -5.97 -5.89
Si -6.99  1.25  7.73
Si -9.84  1.54 -3.30
Si  9.83 -3.25  2.05
Si  4.76  8.54  4.00
Si -7.82 -6.90  1.68
Si -9.72  1.13  4.00
Si  7.12  1.25  7.73
Si  9.35 -3.97 -2.99
Si -10.44  1.78 -0.01
Si  3.27  3.75  9.36
Si -4.85  2.68 -9.04
Si  4.64  8.94 -3.30
Si -4.31  8.10  5.34
Si  5.56  2.63 -8.66
Si  7.29  7.74 -0.53
Si -3.35 -9.56 -3.30
Si -2.55  1.86 10.18
Si  6.93 -2.45  7.73
Si -2.73 -1.84 10.18
Si 10.54 -1.92 -0.01
Si  7.03  7.91  1.68
Si  1.53  8.83 -5.89
Si  9.72  3.43 -2.99
Si -7.08  7.91  1.68
Si  1.07 -0.40 10.70
Si -3.78  3.75  9.36
Si  4.41 -8.23 -5.37
Si -0.95 -10.60  1.68
Si  3.71 -9.56 -3.30
Si -0.97  0.26 -10.73
Si -10.03 -2.16 -3.30
Si  8.61  6.04  2.37
Si -9.33 -0.83 -5.37
Si -10.62 -1.92 -0.01
Si -0.69 -10.76 -0.53
Si -1.30  6.33 -8.66
Si -7.17 -2.45  7.73
Si  5.25 -8.15  4.83
Si -2.06 -7.99  7.04
Si  9.42  0.69  5.34
Si -9.44 -5.00  1.94
Si -7.50 -4.09 -6.71
Si -4.15 -3.66  9.36
Si 10.72  1.78 -0.01
Si -8.68 -4.45  4.83
Si -3.16  8.46 -6.14
Si  0.03 -6.53 -8.77
Si -8.88  6.10  1.94
Si -9.14  2.87 -5.37
Si -9.91 -2.57  4.00
Si -7.58  7.19 -3.42
Si  1.29 -8.04  7.41
Si -6.25 -8.76  2.37
Si -6.66  0.88 -8.77
Si  1.48  9.98  4.58
Si  9.24 -3.01  5.34
Si  2.41 -10.65  2.05
Si  3.89  8.46 -6.14
Si  3.40 -6.58 -8.34
Si  5.19 -4.77 -8.66
Si -0.00  5.19  9.93
Si 10.21  4.15  2.05
Si  4.32 -1.84 10.18
Si -3.23 -9.97  4.00
Si -5.01  6.76  7.41
Si -3.65 -6.58 -8.34
Si -8.75 -0.58  7.04
Si  1.26  3.31 10.70
Si  1.67 -11.13 -0.78
Si  4.51  1.86 10.18
Si -5.78  9.00 -3.68
Si  2.39  6.38 -9.04
Si -1.16 -3.44 -10.73
Si -11.14  0.45  2.05
Si  0.60 -9.67 -5.89
Si -5.32  9.74  2.37
Si  5.74  6.82  7.04
Si  5.41  9.80  1.94
Si  3.83 -9.97  4.00
Si  8.35  6.28  4.58
Si -9.54  4.83  4.00
Si -0.34 10.89 -3.42
Si -6.80  4.95  7.73
Si  2.78 11.07 -0.78
Si  6.06  9.62 -1.36
Si -5.22 -4.72 -9.04
Si -0.88 10.36  4.83
Si  8.72 -0.64  7.41
Si -0.79  3.96 -10.73
Si  0.42 11.45 -0.53
Si  8.40  5.13 -5.89
Si -9.66  5.24 -3.30
Si -6.84 -2.82 -8.77
Si  7.84 -5.97 -5.89
Si  0.89 -4.10 10.70
Si -8.56  3.12  7.04
Si  2.27 -1.18 -11.24
Si  7.45  0.88 -8.77
Si -8.12  6.66  4.83
Si -0.56 -5.91  9.93
Si  0.44  8.65  7.73
Si  8.90 -7.43 -0.78
Si -10.25  5.48 -0.01
Si  3.04 10.83 -2.99
Si -6.50 -8.52  4.58
Si -1.71 10.27 -5.37
Si  0.17 11.61  1.68
Si  7.31  4.95  7.73
Si  7.27 -2.82 -8.77
Si -2.94  8.71  7.30
Si  4.99 -7.99  7.04
Si 10.35 -5.62 -0.01
Si  2.46  2.52 -11.24
Si -8.33 -7.61 -3.42
Si -4.65 -10.65  2.05
Si 11.13 -2.16 -3.30
Si -6.47  4.58 -8.77
Si -9.51 -4.53 -5.37
Si  1.81 -10.41  5.34
Si  9.61  4.39  5.34
Si -2.36  5.57 10.18
Si -2.42 -1.55 -11.49
Si 11.32  1.54 -3.30
Si -4.27 11.07 -0.78
Si -10.96  4.15  2.05
Si -2.23  2.15 -11.49
Si -1.46 -11.31 -3.42
Si -11.88 -0.03 -0.78
Si  1.92 -11.37 -2.99
Si -6.94  7.01 -6.71
Si -4.02 10.83 -2.99
Si -2.92 -5.54 10.18
Si  6.75 -6.15  7.73
Si -11.33 -3.25  2.05
Si -5.52  8.83 -5.89
Si  8.91  3.06  7.41
Si -4.66  6.38 -9.04
Si  7.86 -8.76  2.37
Si -11.63 -0.27 -2.99
Si  9.65 -6.95  2.05
Si -2.90  8.22 -8.34
Si  7.17  7.01 -6.71
Si  4.12  8.71  7.30
Si  0.77  8.28 -8.77
Si  8.54 -4.34  7.41
Si  6.43 -7.79 -6.71
Si  1.04  0.70 -12.07
Si 11.91 -1.30  1.94
Si  2.96 -10.04 -6.14
Si -8.93 -4.29  7.04
Si  6.87  1.49  9.93
Si  9.65  7.37 -0.78
Si  5.75  6.33 -8.66
Si  6.68 -2.21  9.93
Si 11.44  1.13  4.00
Si -10.81 -5.62 -0.01
Si -6.71 -9.51 -3.68
Si  2.71 -7.36  9.36
Si 10.91  5.48 -0.01
Si 11.25 -2.57  4.00
Si -10.22 -5.86 -3.30
Si  3.52 11.55  2.05
Si -3.53 11.55  2.05
Si -5.98 -0.40 10.70
Si 10.58  1.06 -6.14
Si -4.78 -1.18 -11.24
Si -10.59  1.06 -6.14
Si -11.70  3.67 -0.78
Si -2.05 -8.47 -8.66
Si  7.61 -8.52  4.58
Si  4.13 -5.54 10.18
Si -11.44  3.43 -2.99
Si -5.57  9.98  4.58
Si -7.36 -6.15  7.73
Si  9.16 -7.67 -2.99
Si  6.08  0.26 -10.73
Si -8.95  6.57 -5.37
Si -8.73 -1.07 -8.66
Si  6.10 -10.60  1.68
Si 10.39 -2.64 -6.14
Si -5.76 -8.04  7.41
Si -7.24  1.49  9.93
Si -5.39 -11.13 -0.78
Si -4.59  2.52 -11.24
Si  4.15  8.22 -8.34
Si  2.09 -4.88 -11.24
Si -8.54  2.63 -8.66
Si  3.46  7.45  9.36
Si  1.65 -8.42 -9.04
Si -4.09 -10.04 -6.14
Si  0.86 -3.00 -12.07
Si  9.05 -6.71  5.34
Si 12.10  2.40  1.94
Si -3.59  7.45  9.36
Si  4.63 -1.55 -11.49
Si  7.64  4.58 -8.77
Si  6.36 -10.76 -0.53
Si  4.69  5.57 10.18
Si -0.49 -9.85  7.73
Si -10.09 -6.27  4.00
Si  9.90  7.13 -2.99
Si -7.43 -2.21  9.93
Si  7.40 -9.51 -3.68
Si -5.80  3.31 10.70
Si  3.19 -9.79  7.30
Si -8.05  9.62 -1.36
Si  0.30 10.71 -6.71
Si  4.82  2.15 -11.49
Si -12.07 -3.73 -0.78
Si -4.34 -7.36  9.36
Si -10.77 -2.64 -6.14
Si  0.62 -12.46  2.37
Si -8.98 -8.88 -1.36
Si -1.13 10.52  7.04
Si 12.55 -1.48 -1.36
Si  5.89 -3.44 -10.73
Si -10.37  1.31  7.30
Si  5.34 10.27 -5.37
Si  8.33  9.00 -3.68
Si -3.87 -9.79  7.30
Si -11.81 -3.97 -2.99
Si -5.24 -10.41  5.34
Si -5.13 -11.37 -2.99
Si -2.11 -12.58 -1.36
