500
set: 771.00  0.00  0.00
Si -0.40  1.17 -0.87
Si  0.47 -1.24  0.87
Si  1.28  1.10  0.81
Si -1.34 -1.19 -0.80
Si -2.16  1.17  0.76
Si  0.86 -0.05 -2.46
Si -0.85  0.09  2.48
Si  2.18 -1.22 -0.84
Si  3.07  1.16 -0.76
Si -3.12 -1.09  0.80
Si -0.06 -2.42 -2.44
Si  0.03  2.45  2.46
Si -2.67  0.03 -2.47
Si  2.63  0.05  2.51
Si  0.49  3.55 -0.80
Si -0.55 -3.64  0.81
Si -1.80 -2.29  2.46
Si  1.77  2.32 -2.44
Si -1.71  2.39 -2.50
Si  1.25 -3.58 -0.76
Si  1.78 -2.41  2.45
Si -1.29  3.65  0.80
Si  3.94 -1.09  0.80
Si -3.98  1.16 -0.76
Si -0.89  0.08 -4.13
Si  0.86 -0.05  4.14
Si  2.30  3.50  0.87
Si -2.23 -3.57 -0.87
Si -3.04  3.52 -0.84
Si  3.07 -3.57  0.76
Si -0.05 -2.42  4.12
Si  0.06  2.46 -4.11
Si -3.45  2.33  2.45
Si -2.62  0.02  4.08
Si  3.52 -2.35 -2.50
Si  2.69 -0.04 -4.13
Si -3.54 -2.35 -2.50
Si  3.61  2.33  2.45
Si  1.72 -2.32 -4.08
Si -1.77 -2.28 -4.11
Si  4.39  0.03 -2.47
Si  1.78  2.31  4.12
Si -1.75  2.40  4.12
Si -4.42  0.05  2.51
Si  4.90  1.17  0.76
Si -4.87 -1.22 -0.84
Si  0.81 -4.69  2.51
Si  4.01  3.52 -0.84
Si -3.99 -3.57  0.76
Si -0.84  4.77 -2.47
Si -0.97 -4.79 -2.46
Si  0.98  4.83  2.48
Si  3.48 -2.34  4.12
Si  5.72 -1.19 -0.80
Si  2.56 -4.71 -2.47
Si -3.51  2.42 -4.08
Si -2.68 -4.65  2.48
Si -0.42  1.18  5.78
Si  0.36 -1.27 -5.77
Si  3.55  2.42 -4.08
Si  2.69  4.68 -2.46
Si -3.58 -2.34  4.12
Si -5.78  1.10  0.81
Si -0.33  5.91  0.76
Si -4.76  3.50  0.87
Si -1.31 -1.20  5.72
Si  1.38  1.13 -5.72
Si -2.59  4.79  2.51
Si -4.37 -0.04 -4.13
Si  0.35 -5.96 -0.84
Si  4.43  0.02  4.08
Si  4.83 -3.57 -0.87
Si  1.43  5.91 -0.87
Si -1.36 -5.98  0.87
Si  5.26 -2.29  2.46
Si  2.11 -5.83  0.80
Si -5.29  2.32 -2.44
Si -5.28 -2.41  2.45
Si -2.21  1.28 -5.78
Si -0.80  4.76  4.08
Si -2.15  5.90 -0.76
Si  2.16 -1.21  5.83
Si  5.34  2.39 -2.50
Si  0.86 -4.78 -4.13
Si -0.97 -4.79  4.14
Si  0.94  4.82 -4.13
Si  3.10  1.15  5.75
Si -6.19 -0.05 -2.46
Si  3.11  5.84  0.81
Si  6.21  0.09  2.48
Si -3.08 -1.20 -5.83
Si  0.52  3.54  5.72
Si -2.54  4.70 -4.13
Si -6.59 -1.24  0.87
Si  2.60 -4.72  4.08
Si -3.17 -5.93 -0.80
Si -0.45 -3.60 -5.72
Si -2.72 -4.66 -4.13
Si  2.69  4.69  4.14
Si  6.66  1.17 -0.87
Si  4.38 -4.65  2.48
Si -4.37  4.68 -2.46
Si -5.81 -3.58 -0.76
Si  5.77  3.65  0.80
Si  1.27 -3.59  5.75
Si -1.25  3.54 -5.83
Si -4.50 -4.71 -2.47
Si  4.46  4.79  2.51
Si -3.96  1.15  5.75
Si  5.29 -2.28 -4.11
Si  2.19  3.47 -5.77
Si -5.28  2.31  4.12
Si -3.95  5.84  0.81
Si -5.34 -2.32 -4.08
Si  5.30  2.40  4.12
Si  3.89 -5.93 -0.80
Si -2.25 -3.56  5.78
Si  3.98 -1.20 -5.83
Si  3.02 -3.46 -5.78
Si  6.17  0.08 -4.13
Si -6.20 -0.05  4.14
Si -3.07  3.53  5.83
Si -0.43  1.18 -7.39
Si  6.51 -3.64  0.81
Si -6.57  3.55 -0.80
Si  0.37 -1.27  7.40
Si -0.05 -7.15  2.45
Si  0.12  7.13 -2.50
Si  4.34 -4.66 -4.13
Si -7.46  1.17 -0.87
Si -4.37  4.69  4.14
Si  4.85  1.28 -5.78
Si -1.62  7.07  2.45
Si  1.39  1.13  7.45
Si -1.32 -1.20 -7.45
Si -4.45 -4.72  4.08
Si  7.53 -1.24  0.87
Si -4.95 -5.83  0.80
Si  1.69 -7.09 -2.50
Si -4.89 -1.21  5.83
Si  4.90  5.90 -0.76
Si  4.52  4.70 -4.13
Si  2.16 -1.21 -7.34
Si -1.89 -7.15 -2.44
Si  7.00 -2.42 -2.44
Si -2.20  1.27  7.38
Si  1.86  7.19  2.46
Si -7.03  2.45  2.46
Si -4.04 -3.46 -5.78
Si  7.08  2.45  2.46
Si  3.99  3.53  5.83
Si -7.11 -2.42 -2.44
Si -3.07 -1.20  7.34
Si  3.10  1.15 -7.42
Si  6.09 -4.79 -2.46
Si -5.67  1.13 -5.72
Si -6.08  4.83  2.48
Si -0.11 -7.06 -4.08
Si  5.74 -1.20  5.72
Si  3.43 -7.03  2.46
Si -6.25 -4.69  2.51
Si -5.63  5.91 -0.87
Si  6.21  4.77 -2.47
Si -3.46  7.06 -2.44
Si  0.07  7.14  4.12
Si -1.24  3.54  7.34
Si  0.51  3.54 -7.45
Si -3.63 -7.03  2.46
Si -7.91  0.09  2.48
Si -0.44 -3.61  7.45
Si  7.92 -0.05 -2.46
Si  3.60  7.06 -2.44
Si  5.70 -5.98  0.87
Si -4.87  3.47 -5.77
Si  4.81 -3.56  5.78
Si  0.33 -5.95  5.83
Si  1.27 -3.59 -7.42
Si -0.38  6.01 -5.78
Si  1.65 -7.08  4.12
Si -0.58 -8.32 -0.76
Si  7.55  3.55 -0.80
Si  1.41  5.92  5.78
Si -1.22  8.26 -0.84
Si -1.68  7.16 -4.08
Si  1.24 -8.31  0.76
Si  0.54  8.38  0.80
Si  3.98 -1.20  7.34
Si  8.34  1.10  0.81
Si -1.47 -6.01 -5.77
Si  2.19  3.47  7.40
Si -7.61 -3.64  0.81
Si -1.88 -7.16  4.12
Si -7.00  2.46 -4.11
Si  7.01 -2.42  4.12
Si -3.96  1.15 -7.42
Si -2.13  5.89  5.75
Si  1.89  7.20 -4.11
Si -2.25 -3.56 -7.39
Si -8.39 -1.19 -0.80
Si -7.11 -2.42  4.12
Si  7.12  2.46 -4.11
Si  2.15 -5.94 -5.83
Si  2.32  8.29 -0.80
Si  3.03 -3.46  7.38
Si -3.07  3.53 -7.34
Si -2.38 -8.38  0.81
Si  6.09 -4.79  4.14
Si -2.93  8.24  0.87
Si  3.21  5.87 -5.72
Si -6.12  4.82 -4.13
Si -3.14 -5.94  5.72
Si  3.46 -7.02 -4.11
Si -6.20 -4.78 -4.13
Si  6.26  4.76  4.08
Si -3.45  7.05  4.12
Si  3.00 -8.31 -0.87
Si  6.63  1.18  5.78
Si -3.60 -7.02 -4.11
Si -4.90 -1.21 -7.34
Si -5.79 -3.59  5.75
Si -6.69 -1.27 -5.77
Si  4.86  1.27  7.38
Si  3.61  7.05  4.12
Si  7.92 -0.05  4.14
Si -7.95  0.08 -4.13
Si  5.81  3.54 -5.83
Si  6.72  5.91  0.76
Si -6.70 -5.96 -0.84
Si -3.85  5.87 -5.72
Si  3.98  3.53 -7.34
Si  0.85 -0.04 -9.03
Si  8.30 -3.58 -0.76
Si -0.88  0.08  9.04
Si -4.03 -3.46  7.38
Si  3.92 -5.94  5.72
Si -8.35  3.65  0.80
Si  5.17 -7.15 -2.44
Si -5.20  7.19  2.46
Si -5.37 -7.09 -2.50
Si  5.43  7.07  2.45
Si  4.13  8.24  0.87
Si -4.06 -8.31 -0.87
Si -9.22  1.17  0.76
Si  9.24 -1.22 -0.84
Si -0.05 -2.42 -9.04
Si -6.54  3.54  5.72
Si  0.07  2.46  9.06
Si -8.77  2.39 -2.50
Si -5.67  1.13  7.45
Si  2.69 -0.04  9.04
Si  8.83  2.32 -2.44
Si  0.33 -5.95 -7.34
Si  6.61 -3.60 -5.72
Si -2.63  0.02 -9.09
Si -8.86 -2.29  2.46
Si  8.83 -2.41  2.45
Si  5.74 -1.20 -7.45
Si  7.42 -1.27 -5.77
Si -7.39  5.91  0.76
Si  7.86 -4.69  2.51
Si  4.80 -3.56 -7.39
Si  1.77  2.32 -9.04
Si -1.76 -2.28  9.06
Si -4.86  3.47  7.40
Si -7.48  1.18  5.78
Si -1.76  2.40 -9.05
Si -0.37  6.01  7.38
Si  1.72 -2.32  9.09
Si  7.41 -5.96 -0.84
Si -7.90  4.77 -2.47
Si  1.40  5.92 -7.39
Si -4.74  8.29 -0.80
Si  4.93  5.89  5.75
Si  4.68 -8.38  0.81
Si -1.46 -6.01  7.40
Si -4.90 -5.94 -5.83
Si -8.02 -4.79 -2.46
Si  2.16 -5.94  7.34
Si  8.03  4.83  2.48
Si -2.13  5.89 -7.42
Si  5.18 -7.16  4.12
Si -5.17  7.20 -4.11
Si  0.73 -9.45 -2.47
Si -1.02 -9.43  2.51
Si -5.41 -7.08  4.12
Si  5.37  7.16 -4.08
Si  0.99  9.51 -2.47
Si -0.77  9.53  2.51
Si  8.78 -2.32 -4.08
Si  3.47 -2.34 -9.05
Si -9.29 -3.57 -0.87
Si  6.63  1.18 -7.39
Si -8.82 -2.28 -4.11
Si  9.69  0.05  2.51
Si  5.81  3.54  7.34
Si -3.59 -2.34 -9.05
Si  3.21  5.87  7.45
Si -8.81  2.40  4.12
Si -5.65  5.92  5.78
Si  8.84  2.31  4.12
Si  9.36  3.50  0.87
Si  5.59 -6.01 -5.77
Si -3.15 -5.94 -7.45
Si -9.73  0.03 -2.47
Si -4.36 -0.04  9.04
Si  2.55 -9.39  2.48
Si -3.51  2.42  9.09
Si -7.85  4.76  4.08
Si -6.69 -1.27  7.40
Si  3.55  2.42  9.09
Si -2.54  9.42 -2.46
Si -5.79 -3.59 -7.42
Si -7.50 -3.60 -5.72
Si  1.19 -8.20 -5.78
Si  4.43  0.02 -9.09
Si  7.57  3.54  5.72
Si  7.92 -4.78 -4.13
Si -0.56 -8.33  5.75
Si  0.58  8.28 -5.83
Si  5.84  8.26 -0.84
Si -5.82 -8.31  0.76
Si -1.24  8.27  5.83
Si -8.37 -1.20  5.72
Si  8.00  4.82 -4.13
Si -8.03 -4.79  4.14
Si 10.13  1.16 -0.76
Si -3.84  5.87  7.45
Si -2.79 -9.53 -2.46
Si  8.44  1.13 -5.72
Si  0.87 -4.78  9.04
Si -6.94  7.13 -2.50
Si -0.97 -4.78 -9.03
Si -10.18 -1.09  0.80
Si  2.81  9.57  2.48
Si -0.80  4.76 -9.09
Si  0.94  4.82  9.04
Si  3.91 -5.94 -7.45
Si  7.01 -7.15  2.45
Si -0.71  9.44 -4.13
Si  0.78 -9.46  4.08
Si  2.34  8.28  5.72
Si -8.41 -5.98  0.87
Si -2.27 -8.35 -5.72
Si -7.11 -7.15  2.45
Si  8.48  5.91 -0.87
Si  1.03  9.50  4.08
Si  7.17  7.13 -2.50
Si -0.97 -9.52 -4.13
Si -3.04  8.21 -5.77
Si -2.54  4.70  9.04
Si -9.68  0.02  4.08
Si  2.68  4.69 -9.03
Si -2.71 -4.66  9.04
Si -6.55  3.54 -7.45
Si  2.98 -8.30  5.78
Si  7.42 -1.27  7.40
Si  2.60 -4.71 -9.09
Si  2.51 -9.39 -4.13
Si  6.47 -8.32 -0.76
Si -7.48  1.18 -7.39
Si  9.75 -0.04 -4.13
Si  6.62 -3.61  7.45
Si  0.28 -10.57  0.80
Si -2.54  9.43  4.14
Si -4.90 -5.94  7.34
Si -6.52  8.38  0.80
Si -0.33 10.64 -0.76
Si  4.92  5.89 -7.42
Si  6.68  6.01 -5.78
Si -6.72 -5.95  5.83
Si -4.51 -9.39  2.48
Si  6.95 -7.06 -4.08
Si -0.86  0.09 -10.69
Si -5.28  2.32 -9.04
Si  4.26 -9.53 -2.46
Si -10.10  3.52 -0.84
Si  8.33 -3.59  5.75
Si  4.52  9.42 -2.46
Si  5.29 -2.28  9.06
Si  0.87 -0.06 10.71
Si -8.30  3.54 -5.83
Si -2.80 -9.53  4.14
Si  5.30  2.40 -9.05
Si -4.25  9.57  2.48
Si 10.13 -3.57  0.76
Si  2.77  9.56 -4.13
Si  1.50 10.65  0.76
Si -5.33 -2.32  9.09
Si -6.98  7.14  4.12
Si  4.02  8.21 -5.77
Si -2.12 10.58  0.81
Si -1.47 -10.70 -0.84
Si -7.17 -7.06 -4.08
Si  9.17 -5.83  0.80
Si  7.13  7.14  4.12
Si  2.06 -10.67 -0.80
Si -4.08 -8.30  5.78
Si  6.17  0.08  9.04
Si -6.20 -0.04 -9.03
Si -9.21  5.90 -0.76
Si  9.22 -1.21  5.83
Si  2.63  0.05 -10.66
Si  9.62 -4.71 -2.47
Si  0.02  2.46 -10.71
Si -0.05 -2.42 10.72
Si -9.26  1.28 -5.78
Si -5.66  5.92 -7.39
Si -2.67  0.03 10.70
Si -10.51  2.33  2.45
Si  5.59 -6.01  7.40
Si  4.34 -4.66  9.04
Si -9.65  4.79  2.51
Si -1.71  2.39 10.67
Si -9.74 -4.65  2.48
Si -4.37  4.69 -9.03
Si 10.99 -1.09  0.80
Si  0.58  8.28  7.34
Si  9.75  4.68 -2.46
Si -1.80 -2.28 -10.71
Si  1.20 -8.20  7.38
Si -4.71  8.28  5.72
Si 10.57 -2.35 -2.50
Si  1.78  2.32 10.72
Si  1.77 -2.41 -10.71
Si -11.04  1.16 -0.76
Si -1.24  8.27 -7.34
Si  7.39 -5.95  5.83
Si -10.60 -2.35 -2.50
Si  4.52  4.70  9.04
Si -4.46 -4.71 -9.09
Si -7.50 -3.61  7.45
Si -0.56 -8.32 -7.42
Si  3.25 10.65 -0.87
Si -7.43  6.01 -5.78
Si 10.66  2.33  2.45
Si  4.78 -8.35 -5.72
Si  7.57  3.54 -7.45
Si -3.19 -10.71  0.87
Si -4.54 -9.39 -4.13
Si  4.26 -9.53  4.14
Si  4.52  9.43  4.14
Si -4.29  9.56 -4.13
Si -8.38 -1.20 -7.45
Si  8.44  1.13  7.45
Si -7.64 -8.32 -0.76
Si  7.59  8.38  0.80
Si -3.80 10.65 -0.87
Si  2.34  8.28 -7.45
Si -2.27 -8.35  7.45
Si  3.87 -10.71  0.87
Si  9.25  3.47 -5.77
Si -9.60  4.70 -4.13
Si -8.68  7.07  2.45
Si -3.03  8.21  7.40
Si  6.04 -9.43  2.51
Si  3.52 -2.35 10.67
Si -3.54 -2.35 10.67
Si -3.46  2.33 -10.71
Si  9.66 -4.72  4.08
Si  2.97 -8.30 -7.39
Si -0.10 -7.06  9.09
Si -9.31 -3.56  5.78
Si  0.07  7.14 -9.05
Si  8.74 -7.09 -2.50
Si  3.60  2.33 -10.71
Si -4.43  0.05 -10.66
Si 10.53 -2.34  4.12
Si -6.07  9.51 -2.47
Si  4.39  0.03 10.70
Si  9.74  4.69  4.14
Si -10.57  2.42 -4.08
Si -9.77 -4.66 -4.13
Si -6.73 -5.95 -7.34
Si  1.64 -7.08 -9.05
Si 10.60  2.42 -4.08
Si -5.86 -8.20 -5.78
Si -11.04 -3.57  0.76
Si -8.30  3.54  7.34
Si -6.33 -9.45 -2.47
Si  6.68  6.01  7.38
Si -10.64 -2.34  4.12
Si 11.07  3.52 -0.84
Si  5.82  8.27  5.83
Si  0.80 -4.69 -10.66
Si -1.88 -7.16 -9.04
Si  6.29  9.53  2.51
Si  7.00 -2.42 -9.04
Si -1.68  7.16  9.09
Si  4.93 10.58  0.81
Si 11.44  0.03 -2.47
Si -6.99  2.46  9.06
Si -8.94 -7.15 -2.44
Si  8.91  7.19  2.46
Si  8.32 -3.59 -7.42
Si -8.27  8.26 -0.84
Si 10.16  1.15  5.75
Si  1.89  7.20  9.06
Si -0.84  4.77 10.70
Si -10.13 -1.20 -5.83
Si -11.48  0.05  2.51
