500
set: 1431.00  0.00  0.00
Si  0.58 -0.80 -0.48
Si -1.33 -0.85 -1.27
Si -0.72 -0.73  1.83
Si  1.20 -0.69  2.62
Si  3.01 -0.20  0.12
Si -2.17  1.40  1.94
Si -2.78  1.29 -1.16
Si -2.13  2.66 -0.01
Si -0.03 -0.92 -3.59
Si  2.52 -2.53 -1.38
Si  2.40 -0.32 -2.98
Si -3.10 -2.35 -0.01
Si  3.14 -2.42  1.73
Si -0.37  4.16 -1.27
Si -1.51  2.78  3.10
Si  3.49  2.48 -1.38
Si  1.55  4.21 -0.48
Si -2.48 -2.23  3.10
Si  0.25  4.28  1.83
Si  3.62 -0.08  3.23
Si -2.74  2.54 -3.11
Si -1.95 -0.97 -4.38
Si  4.41 -1.07 -2.00
Si -0.11 -0.62  4.93
Si  4.83  1.27 -0.03
Si  4.10  2.60  1.73
Si -3.13 -3.61  1.94
Si  5.02 -0.95  1.10
Si  4.21  1.15 -3.13
Si  3.86 -3.74 -0.03
Si -3.75 -3.73 -1.16
Si -3.71 -2.47 -3.11
Si -1.55  1.52  5.05
Si  2.17  4.33  2.62
Si -5.31 -0.95  1.10
Si  0.94  4.09 -3.59
Si  1.91 -2.65 -4.48
Si -3.40  1.17 -4.26
Si  2.04 -5.21  0.12
Si -5.51  1.27 -0.03
Si  2.88  2.36 -4.48
Si -0.38 -5.82 -0.48
Si  3.25 -3.86 -3.13
Si -4.89  1.39  3.08
Si  1.81 -0.57  5.72
Si -0.98  4.04 -4.38
Si -4.35  4.06  1.10
Si  3.98  4.81  0.12
Si -1.69 -5.75  1.83
Si  1.43 -5.33 -2.98
Si  0.23 -5.70  2.62
Si -5.93 -1.07 -2.00
Si  1.78 -0.43 -6.08
Si -4.70 -0.83  4.20
Si  5.44  1.39  3.08
Si -2.30 -5.86 -1.27
Si  3.79 -1.18 -5.11
Si  3.36  4.69 -2.98
Si  4.47 -3.62  3.08
Si  3.75 -2.30  4.83
Si  2.66 -5.09  3.23
Si -2.52 -3.49  5.05
Si -4.96  3.94 -2.00
Si -1.81  6.30 -1.16
Si  0.86  4.39  4.93
Si -0.65 -1.04 -6.69
Si -1.20  6.41  1.94
Si -1.87 -2.12  6.20
Si -0.90  2.90  6.20
Si  5.38  3.94 -2.00
Si -6.23  2.60  1.73
Si -6.12  1.15 -3.13
Si -1.00 -5.93 -3.59
Si -3.73  4.18  4.20
Si  5.64 -0.83  4.20
Si -4.36 -3.84 -4.26
Si  3.44 -6.08 -2.00
Si  3.60  1.04 -6.23
Si  4.72  2.71  4.83
Si  4.06 -5.96  1.10
Si  5.99  4.06  1.10
Si -7.33 -0.20  0.12
Si -6.85  2.48 -1.38
Si -6.71 -0.08  3.23
Si -3.36  2.43 -6.21
Si  4.59  4.93  3.23
Si -6.48 -3.74 -0.03
Si -5.86 -3.62  3.08
Si -1.07 -5.63  4.93
Si  7.24 -2.35 -0.01
Si  4.24  0.04  6.33
Si  6.59 -3.73 -1.16
Si -4.28  1.51  6.18
Si  6.63 -2.47 -3.11
Si  7.55  1.29 -1.16
Si -4.54  6.28 -0.03
Si -1.16  7.67 -0.01
Si  2.78  4.44  5.72
Si -7.20 -2.42  1.73
Si  0.32  3.97 -6.69
Si  1.56 -7.54 -1.38
Si  2.63 -3.98 -6.23
Si -5.62  2.71  4.83
Si -2.43  6.18 -4.26
Si  2.17 -7.43  1.73
Si  4.76  3.83 -5.11
Si -2.92 -5.98 -4.38
Si -6.36  4.81  0.12
Si -2.56 -1.09 -7.48
Si -4.32 -2.58 -6.21
Si  0.84 -5.58  5.72
Si  0.51 -0.50  8.04
Si  2.75  4.58 -6.08
Si -3.93  6.40  3.08
Si  1.29 -2.77 -7.59
Si  0.82 -5.45 -6.08
Si  2.26  2.24 -7.59
Si -5.74  4.93  3.23
Si  6.94  1.17 -4.26
Si -0.59  6.53  5.05
Si  5.97 -3.84 -4.26
Si  7.20 -3.61  1.94
Si -7.81 -2.53 -1.38
Si -1.77  7.55 -3.11
Si -0.94  1.64  8.15
Si -6.54 -1.18 -5.11
Si -0.55  7.79  3.10
Si -4.08 -0.71  7.31
Si -4.06 -7.36 -0.01
Si -4.01  1.05 -7.37
Si -5.57  3.83 -5.11
Si -6.58 -2.30  4.83
Si -7.94 -0.32 -2.98
Si  8.17  1.40  1.94
Si  2.83 -6.20 -5.11
Si  5.79  6.28 -0.03
Si  4.67 -5.84  4.20
Si  7.59  2.54 -3.11
Si -1.60  3.93 -7.48
Si -3.45 -7.24  3.10
Si -5.16  6.17 -3.13
Si  8.21  2.66 -0.01
Si  5.18  6.17 -3.13
Si -7.09 -3.86 -3.13
Si  3.27 -4.98  6.33
Si -6.28 -5.96  1.10
Si  7.86 -2.23  3.10
Si  5.09 -3.51  6.18
Si  6.06  1.51  6.18
Si -6.10  0.04  6.33
Si  4.46  7.49 -1.38
Si -5.25 -3.51  6.18
Si  6.60  4.18  4.20
Si  3.18 -1.30 -8.21
Si -6.97  4.69 -2.98
Si  0.94 -7.66 -4.48
Si -7.46  2.36 -4.48
Si  6.01 -2.58 -6.21
Si -1.91 -3.37  8.15
Si -3.12  4.30  7.31
Si  9.00 -0.85 -1.27
Si -5.67 -5.84  4.20
Si -1.61 -6.05 -6.69
Si  2.43 -0.45  8.83
Si  2.78 -7.31  4.83
Si  2.89 -8.75 -0.03
Si -6.74  1.04 -6.23
Si  1.17 -0.55 -9.19
Si  0.60  9.17 -1.27
Si  5.07  7.61  1.73
Si  4.37 -2.18  7.93
Si  1.47  4.51  8.04
Si -4.68 -7.48 -3.11
Si -6.89 -6.08 -2.00
Si -5.26  7.61  1.73
Si  3.84  7.37 -4.48
Si  8.39 -0.97 -4.38
Si -9.14 -0.69  2.62
Si  1.21  9.29  1.83
Si  6.41  6.40  3.08
Si  2.52  9.22 -0.48
Si -3.31  6.52  6.18
Si -5.13  5.05  6.33
Si -1.25 -2.00  9.30
Si -8.17  4.33  2.62
Si -5.88  7.49 -1.38
Si  5.21  5.05  6.33
Si  6.25 -0.71  7.31
Si  6.98  2.43 -6.21
Si  6.27 -7.36 -0.01
Si  2.28 -8.87 -3.13
Si -4.98 -3.96 -7.37
Si -4.10 -8.62  1.94
Si -3.38  9.07  1.10
Si -8.79  4.21 -0.48
Si  8.82  2.78  3.10
Si -0.46 -5.51  8.04
Si -7.68 -5.09  3.23
Si  6.33  1.05 -7.37
Si -0.29  3.01  9.30
Si -8.29 -5.21  0.12
Si -9.75 -0.80 -0.48
Si -5.00  2.83  7.93
Si  4.57  6.05 -6.23
Si  3.51 -8.63  3.08
Si  9.62 -0.73  1.83
Si  2.98  0.92 -9.34
Si -2.83 -7.13  6.20
Si  5.66 -7.48 -3.11
Si -8.43 -2.65 -4.48
Si  4.15  3.71 -8.21
Si  5.36 -3.96 -7.37
Si  7.82 -3.49  5.05
Si -1.26 -1.16 -9.79
Si  1.90  9.10 -3.59
Si  5.33  2.83  7.93
Si -2.39  7.44 -6.21
Si -4.72 -8.74 -1.16
Si -3.99  8.96 -2.00
Si -3.04  6.06 -7.37
Si  8.03 -5.86 -1.27
Si  0.07  7.91  6.20
Si -0.01  9.05 -4.38
Si -3.67  1.62  9.29
Si -5.97 -2.18  7.93
Si  3.13  9.34  2.62
Si -4.65  7.72  4.83
Si  8.78  1.52  5.05
Si -3.53 -6.10 -7.48
Si  1.08 -10.22  0.12
Si -8.53 -0.57  5.72
Si -3.97  2.31 -9.32
Si  2.02 -4.09 -9.34
Si -5.77  6.05 -6.23
Si  2.14  4.46 -9.19
Si  5.62 -8.74 -1.16
Si  6.89 -7.24  3.10
Si -7.56  4.44  5.72
Si -2.77  9.19  4.20
Si  1.46 -5.46  8.83
Si -3.49 -8.50  5.05
Si  7.42 -5.98 -4.38
Si  3.39  4.56  8.83
Si -8.55 -0.43 -6.08
Si  0.03  6.65  8.15
Si -0.29  3.86 -9.79
Si  8.65 -5.75  1.83
Si -5.05 -5.73  7.31
Si  2.21 -6.31 -8.21
Si  4.85  0.15  9.44
Si  8.52  6.30 -1.16
Si -7.70 -3.98 -6.23
Si  5.28 -5.73  7.31
Si  8.47 -2.12  6.20
Si -7.06 -4.98  6.33
Si  5.68  7.72  4.83
Si  1.69 -10.11  3.23
Si  0.20 -5.56 -9.19
Si -7.59  4.58 -6.08
Si  0.46 -10.34 -2.98
Si  1.83  9.41  4.93
Si -8.91 -5.33 -2.98
Si -6.49  7.37 -4.48
Si  6.23 -8.62  1.94
Si  7.77 -1.09 -7.48
Si -9.40  4.09 -3.59
Si  0.33 -7.78 -7.59
Si  9.97  4.16 -1.27
Si -4.94 -2.70 -9.32
Si  7.91  6.18 -4.26
Si -5.48  0.15  9.44
Si -4.63 -3.39  9.29
Si -1.35 -10.83 -0.48
Si -6.19  3.71 -8.21
Si 10.31 -0.92 -3.59
Si 10.92 -0.80 -0.48
Si -7.16 -1.30 -8.21
Si  3.23  7.26 -7.59
Si -3.47 -0.60 10.41
Si -7.51 -6.20 -5.11
Si  4.95  9.82  0.12
Si -10.37 -0.92 -3.59
Si  1.65  2.13 -10.69
Si  5.01 -8.86 -4.26
Si  5.05 -7.60 -6.21
Si  4.33  9.71 -2.98
Si -0.74 -10.71  2.62
Si  1.67 -8.99 -6.23
Si  9.35  4.04 -4.38
Si  0.68 -2.88 -10.69
Si  5.40 -2.70 -9.32
Si -10.09  4.28  1.83
Si -3.18 -1.20 -10.59
Si  7.22  4.30  7.31
Si -5.29 -7.60 -6.21
Si  6.34  8.96 -2.00
Si -8.17 -7.43  1.73
Si -5.33 -8.86 -4.26
Si -4.61  8.84 -5.11
Si  1.12 -0.38 11.14
Si -5.39  9.82  0.12
Si -2.65 -10.76  1.83
Si -11.06 -0.73  1.83
Si  3.40 -7.19  7.93
Si  1.29  8.98 -6.69
Si  3.89 -4.86  9.44
Si  4.12 -8.52  6.18
Si -8.07  2.24 -7.59
Si  9.13  6.41  1.94
Si 10.23 -0.62  4.93
Si -0.33  1.75 11.26
Si -0.85 11.31 -1.16
Si  7.02  6.52  6.18
Si  5.70 -3.39  9.29
Si -3.27 -10.87 -1.27
Si -6.83 -8.63  3.08
Si  3.09 -10.97  1.10
Si -2.21  3.81 -10.59
Si -4.62  0.93 -10.47
Si  6.96  9.07  1.10
Si -7.44 -8.75 -0.03
Si -4.78  9.94  3.23
Si  6.37  2.31 -9.32
Si  9.95 -5.82 -0.48
Si  2.48 -11.09 -2.00
Si  6.67  1.62  9.29
Si -9.48  4.39  4.93
Si -10.71  4.16 -1.27
Si 10.58  4.28  1.83
Si -7.55 -7.31  4.83
Si -10.44 -0.62  4.93
Si -2.50  4.42 10.41
Si -0.23 11.43  1.94
Si  9.34 -5.93 -3.59
Si  9.44  2.90  6.20
Si -8.78 -7.54 -1.38
Si -4.52  5.16  9.44
Si  3.75  9.45  5.72
Si -0.63  8.94 -7.48
Si -1.97 -10.94 -3.59
Si  2.57 -1.42 -11.32
Si  5.73  8.84 -5.11
Si -2.70  6.63  9.29
Si  3.95  5.93 -9.34
Si -11.67 -0.85 -1.27
Si -2.23 -6.17 -9.79
Si -1.29 -3.26 11.26
Si -6.00  9.71 -2.98
Si  6.81 -6.10 -7.48
Si  9.69 -1.04 -6.69
Si  8.56  7.55 -3.11
Si  5.56  9.94  3.23
Si -3.58 11.29 -0.03
Si 11.53 -0.69  2.62
Si -2.22 -7.01  9.30
Si -7.91 -0.45  8.83
Si -4.04  7.84  7.93
Si -10.11 -5.70  2.62
Si -2.04 -10.64  4.93
Si  9.26 -5.63  4.93
Si -7.35  0.92 -9.34
Si  3.72  9.59 -6.08
Si  9.18  7.67 -0.01
Si  5.71  0.93 -10.47
Si  7.29  6.06 -7.37
Si  6.85 -8.50  5.05
Si -2.15  9.31  7.31
Si -0.12 -10.59  5.72
Si -2.87 -8.38  8.15
Si  2.31 -9.99  6.33
Si  7.50 -7.13  6.20
Si -1.46 11.19 -4.26
Si -7.21  9.34  2.62
Si -7.82  9.22 -0.48
Si -0.15 -10.46 -6.08
Si -6.94  4.56  8.83
Si -9.04 -2.77 -7.59
Si  8.74  3.93 -7.48
Si -2.96 11.41  3.08
Si  4.75 -4.08 -10.47
Si  8.43 -3.37  8.15
Si -10.72 -5.82 -0.48
Si  3.70 -10.85  4.20
Si -6.21 -8.52  6.18
Si -3.00  7.32 -9.32
Si  5.82  5.16  9.44
Si -4.39  2.95 11.04
Si  2.09  4.63 11.14
Si  4.98 -2.06 11.04
Si 10.57 -5.70  2.62
Si  0.68  8.03  9.30
Si  3.04 -0.33 11.93
Si  0.56 -0.67 -12.29
Si -4.19 11.18 -3.13
Si  0.15 -5.39 11.14
Si -8.06 -8.87 -3.13
Si  3.53  3.59 -11.32
Si -9.49 -5.58  5.72
Si  4.39 -8.97 -7.37
Si -6.45 -4.86  9.44
Si -5.36 -2.06 11.04
Si -3.88 -10.99 -4.38
Si  1.86 -11.21 -5.11
Si  6.87 -0.60 10.41
Si 11.27  4.09 -3.59
Si  7.95  7.44 -6.21
Si -9.52 -5.45 -6.08
Si  9.40  1.64  8.15
Si  8.72 -6.05 -6.69
Si -5.59 -4.08 -10.47
Si -11.85  2.78  3.10
Si -0.64 -1.88 12.41
Si -3.66  5.95 -10.47
Si -4.16 10.06  6.33
Si  0.38 11.54  5.05
Si  1.20 -12.44  1.73
Si 11.89  4.21 -0.48
Si  7.57  9.19  4.20
Si -4.44 -5.61 10.41
Si  0.59 -12.55 -1.38
Si -7.11  7.26 -7.59
Si -10.01  3.97 -6.69
Si -0.19 12.68 -0.01
Si  2.37  0.80 -12.44
Si  2.44  9.52  8.04
Si -9.83 -0.50  8.04
Si -12.50  1.40  1.94
Si -12.46  2.66 -0.01
Si -6.94 -7.19  7.93
Si -6.38  5.93 -9.34
Si  9.75  6.53  5.05
Si -8.86  4.51  8.04
Si -11.32  4.04 -4.38
Si  0.33  3.13 12.41
Si  6.30  7.84  7.93
Si  7.16 -1.20 -10.59
Si -6.59  9.45  5.72
Si -3.05  1.74 12.39
Si  5.95  2.95 11.04
Si  4.43 -7.71 -9.32
Si  9.79  7.79  3.10
Si -10.98 -1.04 -6.69
Si -8.43  9.10 -3.59
Si -9.39 -7.66 -4.48
Si -4.14 -6.21 -10.59
Si -0.81 12.57 -3.11
Si -9.17 -0.55 -9.19
Si 11.20  4.39  4.93
Si -11.89  1.52  5.05
Si  5.12  8.72 -8.21
Si  7.07 -10.87 -1.27
Si -5.94 -8.97 -7.37
Si -5.22  8.72 -8.21
Si -12.29 -0.97 -4.38
Si 12.73 -0.32 -2.98
Si  1.05 -9.10 -9.34
Si -1.87 -1.27 -12.90
Si -8.20  4.46 -9.19
Si  1.60 -6.43 -11.32
Si  2.62  7.14 -10.69
Si  1.52  4.34 -12.29
Si  6.15 11.18 -3.13
Si -6.62  9.59 -6.08
Si -9.12  9.29  1.83
Si  0.64  6.77 11.26
Si  9.08 -2.00  9.30
Si -11.24  2.90  6.20
Si -8.32 -4.09 -9.34
Si -8.12 -6.31 -8.21
Si  6.76 11.29 -0.03
Si  0.42 12.80  3.10
Si 12.86 -2.53 -1.38
Si -2.58 -11.06 -6.69
Si -7.25 -10.97  1.10
Si 10.66  3.97 -6.69
Si  1.40 -4.21 -12.44
Si  5.90 -5.61 10.41
Si  0.68  8.87 -9.79
Si -13.12  1.29 -1.16
Si  2.07 -5.34 11.93
Si 11.77 -5.33 -2.98
Si -11.33 -5.93 -3.59
Si -2.35 11.53  6.18
Si -0.29 -7.90 -10.69
Si 12.24 -2.65 -4.48
Si -1.43 -10.52  8.04
Si -11.54  6.41  1.94
Si  7.68 -10.76  1.83
Si 13.35 -0.20  0.12
Si -5.03 -12.37 -0.01
Si  1.82 -12.32  4.83
Si -12.82 -2.23  3.10
Si  4.74 -8.40  9.29
Si -4.42 -12.26  3.10
Si  6.17 10.06  6.33
Si -6.63 -10.85  4.20
Si  9.08 -1.16 -9.79
Si -4.58  2.19 -12.42
Si  4.01  4.68 11.93
Si -4.02 -3.27 12.39
