500
set: 604.00  0.00  0.00
Si  0.74 -1.24  1.05
Si -0.74  1.24 -1.05
Si -1.30 -1.08 -1.05
Si  1.30  1.08  1.05
Si  2.38 -1.08 -1.05
Si -2.38  1.08  1.05
Si -0.57  0.21  2.82
Si  0.57 -0.21 -2.82
Si -2.94 -1.24  1.05
Si  2.94  1.24 -1.05
Si -1.12 -2.11  2.82
Si  1.12  2.11 -2.82
Si  0.19 -3.56  1.05
Si -0.19  3.56 -1.05
Si  0.02 -2.52 -2.82
Si -0.02  2.52  2.82
Si -1.83  3.40  1.05
Si  1.83 -3.40 -1.05
Si  1.85  3.40  1.05
Si -1.85 -3.40 -1.05
Si  3.11  0.21  2.82
Si -3.11 -0.21 -2.82
Si  2.55 -2.11  2.82
Si -2.55  2.11 -2.82
Si -4.42  1.24 -1.05
Si  4.42 -1.24  1.05
Si -3.49 -3.56  1.05
Si  3.49  3.56 -1.05
Si -4.25  0.21  2.82
Si  4.25 -0.21 -2.82
Si  1.47  0.05  4.92
Si -1.47 -0.05 -4.92
Si  4.97  1.08  1.05
Si -4.97 -1.08 -1.05
Si -3.66 -2.52 -2.82
Si  3.66  2.52  2.82
Si -3.70  2.52  2.82
Si  3.70 -2.52 -2.82
Si  3.87 -3.56  1.05
Si -3.87  3.56 -1.05
Si  2.21 -0.05 -4.92
Si -2.21  0.05  4.92
Si -0.92  2.27 -4.92
Si  0.92 -2.27  4.92
Si  1.68  4.43 -2.82
Si -1.68 -4.43  2.82
Si  2.00 -4.43  2.82
Si -2.00  4.43 -2.82
Si  0.53  4.84  2.82
Si -0.53 -4.84 -2.82
Si  1.66 -2.37 -4.92
Si -1.66  2.37  4.92
Si  2.02  2.37  4.92
Si -2.02 -2.37 -4.92
Si -1.28  5.72  1.05
Si  1.28 -5.72 -1.05
Si -4.80 -2.11  2.82
Si  4.80  2.11 -2.82
Si  0.36  5.87 -1.05
Si -0.36 -5.87  1.05
Si -2.76 -2.27  4.92
Si  2.76  2.27 -4.92
Si -6.06  1.08  1.05
Si  6.06 -1.08 -1.05
Si  2.40  5.72  1.05
Si -2.40 -5.72 -1.05
Si -3.15  4.84  2.82
Si  3.15 -4.84 -2.82
Si -5.51  3.40  1.05
Si  5.51 -3.40 -1.05
Si -5.53 -3.40 -1.05
Si  5.53  3.40  1.05
Si -0.36  4.58 -4.92
Si  0.36 -4.58  4.92
Si  0.40  0.82 -6.69
Si -0.40 -0.82  6.69
Si  6.61  1.24 -1.05
Si -6.61 -1.24  1.05
Si  3.32 -5.87  1.05
Si -3.32  5.87 -1.05
Si  0.15  1.49  6.69
Si -0.15 -1.49 -6.69
Si -1.10  4.69  4.92
Si  1.10 -4.69 -4.92
Si  4.21  4.84  2.82
Si -4.21 -4.84 -2.82
Si -4.59  2.27 -4.92
Si  4.59 -2.27  4.92
Si  5.15  0.05  4.92
Si -5.15 -0.05 -4.92
Si  6.23 -2.11  2.82
Si -6.23  2.11 -2.82
Si  4.04  5.87 -1.05
Si -4.04 -5.87  1.05
Si -2.57 -4.69 -4.92
Si  2.57  4.69  4.92
Si -6.79 -0.21 -2.82
Si  6.79  0.21  2.82
Si -0.95 -3.14  6.69
Si  0.95  3.14 -6.69
Si -1.45  6.75 -2.82
Si  1.45 -6.75  2.82
Si -3.28  0.82 -6.69
Si  3.28 -0.82  6.69
Si -3.32 -4.58  4.92
Si  3.32  4.58 -4.92
Si -5.36 -4.43  2.82
Si  5.36  4.43 -2.82
Si  5.34 -2.37 -4.92
Si -5.34  2.37  4.92
Si  4.96 -5.72 -1.05
Si -4.96  5.72  1.05
Si -2.23 -6.75  2.82
Si  2.23  6.75 -2.82
Si  5.89 -0.05 -4.92
Si -5.89  0.05  4.92
Si -3.53  1.49  6.69
Si  3.53 -1.49 -6.69
Si -0.71 -3.81 -6.69
Si  0.71  3.81  6.69
Si -5.68  4.43 -2.82
Si  5.68 -4.43  2.82
Si -1.09 -7.16 -2.82
Si  1.09  7.16  2.82
Si  4.04 -4.58  4.92
Si -4.04  4.58 -4.92
Si -3.83 -1.49 -6.69
Si  3.83  1.49  6.69
Si -2.73  3.14 -6.69
Si  2.73 -3.14  6.69
Si -4.08 -0.82  6.69
Si  4.08  0.82 -6.69
Si -5.70 -2.37 -4.92
Si  5.70  2.37  4.92
Si  7.17  3.56 -1.05
Si -7.17 -3.56  1.05
Si  2.59 -7.16 -2.82
Si -2.59  7.16  2.82
Si  0.72 -8.04 -1.05
Si -0.72  8.04  1.05
Si  2.97 -3.81 -6.69
Si -2.97  3.81  6.69
Si  7.34  2.52  2.82
Si -7.34 -2.52 -2.82
Si  8.10 -1.24  1.05
Si -8.10  1.24 -1.05
Si -7.38  2.52  2.82
Si  7.38 -2.52 -2.82
Si -4.78  4.69  4.92
Si  4.78 -4.69 -4.92
Si -0.92 -8.19  1.05
Si  0.92  8.19 -1.05
Si  7.55 -3.56  1.05
Si -7.55  3.56 -1.05
Si -6.08 -5.72 -1.05
Si  6.08  5.72  1.05
Si -6.44 -2.27  4.92
Si  6.44  2.27 -4.92
Si -7.93  0.21  2.82
Si  7.93 -0.21 -2.82
Si -0.19 -6.90  4.92
Si  0.19  6.90 -4.92
Si -0.55  7.00  4.92
Si  0.55 -7.00 -4.92
Si -2.96 -8.04 -1.05
Si  2.96  8.04  1.05
Si  2.76 -8.19  1.05
Si -2.76  8.19 -1.05
Si -4.63 -3.14  6.69
Si  4.63  3.14 -6.69
Si -1.51 -5.46  6.69
Si  1.51  5.46 -6.69
Si -8.65 -1.08 -1.05
Si  8.65  1.08  1.05
Si  6.82 -4.84 -2.82
Si -6.82  4.84  2.82
Si  4.38  3.81  6.69
Si -4.38 -3.81 -6.69
Si -2.17  5.46 -6.69
Si  2.17 -5.46  6.69
Si  5.13 -6.75  2.82
Si -5.13  6.75 -2.82
Si  1.64 -0.98  8.78
Si -1.64  0.98 -8.78
Si -1.49  1.34  8.78
Si  1.49 -1.34 -8.78
Si -4.77 -7.16 -2.82
Si  4.77  7.16  2.82
Si -2.04 -0.98  8.78
Si  2.04  0.98 -8.78
Si  3.13  7.00  4.92
Si -3.13 -7.00 -4.92
Si -2.19 -1.34 -8.78
Si  2.19  1.34  8.78
Si  1.26  6.13  6.69
Si -1.26 -6.13 -6.69
Si -3.49  6.90 -4.92
Si  3.49 -6.90  4.92
Si  8.48  2.11 -2.82
Si -8.48 -2.11  2.82
Si -7.00  5.87 -1.05
Si  7.00 -5.87  1.05
Si  4.40 -8.04 -1.05
Si -4.40  8.04  1.05
Si  6.25  4.69  4.92
Si -6.25 -4.69 -4.92
Si  3.87  6.90 -4.92
Si -3.87 -6.90  4.92
Si  2.42 -6.13 -6.69
Si -2.42  6.13  6.69
Si -5.91 -6.75  2.82
Si  5.91  6.75 -2.82
Si  1.09 -3.30  8.78
Si -1.09  3.30 -8.78
Si -4.59 -8.19  1.05
Si  4.59  8.19 -1.05
Si -0.90  9.07 -2.82
Si  0.90 -9.07  2.82
Si -4.23  7.00  4.92
Si  4.23 -7.00 -4.92
Si -0.93  3.66  8.78
Si  0.93 -3.66 -8.78
Si  7.89  4.84  2.82
Si -7.89 -4.84 -2.82
Si -6.96  0.82 -6.69
Si  6.96 -0.82  6.69
Si -7.00 -4.58  4.92
Si  7.00  4.58 -4.92
Si  2.59  3.30 -8.78
Si -2.59 -3.30  8.78
Si  7.72  5.87 -1.05
Si -7.72 -5.87  1.05
Si -6.41  3.14 -6.69
Si  6.41 -3.14  6.69
Si -9.19  3.40  1.05
Si  9.19 -3.40 -1.05
Si  9.74 -1.08 -1.05
Si -9.74  1.08  1.05
Si  9.21  3.40  1.05
Si -9.21 -3.40 -1.05
Si  8.27 -2.27  4.92
Si -8.27  2.27 -4.92
Si -2.78 -9.07  2.82
Si  2.78  9.07 -2.82
Si  2.75  3.66  8.78
Si -2.75 -3.66 -8.78
Si  6.27 -7.16 -2.82
Si -6.27  7.16  2.82
Si  7.21 -1.49 -6.69
Si -7.21  1.49  6.69
Si  1.64  9.48  2.82
Si -1.64 -9.48 -2.82
Si -5.18 -5.46  6.69
Si  5.18  5.46 -6.69
Si -2.04  9.48  2.82
Si  2.04 -9.48 -2.82
Si -8.83 -0.05 -4.92
Si  8.83  0.05  4.92
Si -7.51 -1.49 -6.69
Si  7.51  1.49  6.69
Si -6.65  3.81  6.69
Si  6.65 -3.81 -6.69
Si -7.72  4.58 -4.92
Si  7.72 -4.58  4.92
Si  7.76  0.82 -6.69
Si -7.76 -0.82  6.69
Si -5.17  1.34  8.78
Si  5.17 -1.34 -8.78
Si  5.32 -0.98  8.78
Si -5.32  0.98 -8.78
Si -4.94 -6.13 -6.69
Si  4.94  6.13  6.69
Si  1.62 -7.78  6.69
Si -1.62  7.78 -6.69
Si -0.17 10.35  1.05
Si  0.17 -10.35 -1.05
Si -8.63  5.72  1.05
Si  8.63 -5.72 -1.05
Si -10.29 -1.24  1.05
Si 10.29  1.24 -1.05
Si  5.85 -5.46  6.69
Si -5.85  5.46 -6.69
Si -0.53  5.62 -8.78
Si  0.53 -5.62  8.78
Si  9.04  4.43 -2.82
Si -9.04 -4.43  2.82
Si -2.06 -7.78  6.69
Si  2.06  7.78 -6.69
Si  6.44 -8.19  1.05
Si -6.44  8.19 -1.05
Si  6.63  8.04  1.05
Si -6.63 -8.04 -1.05
Si -0.74 -9.22  4.92
Si  0.74  9.22 -4.92
Si -9.91  2.11 -2.82
Si  9.91 -2.11  2.82
Si -4.77  3.30 -8.78
Si  4.77 -3.30  8.78
Si -5.72 -0.98  8.78
Si  5.72  0.98 -8.78
Si  9.02 -2.37 -4.92
Si -9.02  2.37  4.92
Si  4.57 -9.07  2.82
Si -4.57  9.07 -2.82
Si -0.00 -9.32 -4.92
Si  0.00  9.32  4.92
Si  0.33  0.46 10.55
Si -0.33 -0.46 -10.55
Si  4.61 -3.66 -8.78
Si -4.61  3.66  8.78
Si -0.38  5.97  8.78
Si  0.38 -5.97 -8.78
Si -5.87 -1.34 -8.78
Si  5.87  1.34  8.78
Si -1.47 -10.51  1.05
Si  1.47 10.51 -1.05
Si -0.23 -1.85 10.55
Si  0.23  1.85 -10.55
Si -9.36  4.43 -2.82
Si  9.36 -4.43  2.82
Si  9.57 -0.05 -4.92
Si -9.57  0.05  4.92
Si  2.21 -10.51  1.05
Si -2.21 10.51 -1.05
Si -10.46 -0.21 -2.82
Si 10.46  0.21  2.82
Si  9.38  2.37  4.92
Si -9.38 -2.37 -4.92
Si -8.46  4.69  4.92
Si  8.46 -4.69 -4.92
Si -2.94  9.22 -4.92
Si  2.94 -9.22  4.92
Si -3.15 -5.62  8.78
Si  3.15  5.62 -8.78
Si -1.81 -8.45 -6.69
Si  1.81  8.45  6.69
Si  6.10 -6.13 -6.69
Si -6.10  6.13  6.69
Si  6.81  7.00  4.92
Si -6.81 -7.00 -4.92
Si -1.87  8.45  6.69
Si  1.87 -8.45 -6.69
Si -0.88 -2.78 -10.55
Si  0.88  2.78 10.55
Si -3.51 -10.35 -1.05
Si  3.51 10.35  1.05
Si -3.35  0.46 10.55
Si  3.35 -0.46 -10.55
Si  3.85 -10.35 -1.05
Si -3.85 10.35  1.05
Si -7.17  6.90 -4.92
Si  7.17 -6.90  4.92
Si -8.31 -3.14  6.69
Si  8.31  3.14 -6.69
Si  3.30  5.97  8.78
Si -3.30 -5.97 -8.78
Si -8.06 -3.81 -6.69
Si  8.06  3.81  6.69
Si  3.68 -9.32 -4.92
Si -3.68  9.32  4.92
Si  3.68  9.32  4.92
Si -3.68 -9.32 -4.92
Si -5.32 -9.48 -2.82
Si  5.32  9.48  2.82
Si  4.21 -5.62  8.78
Si -4.21  5.62 -8.78
Si -3.45  1.85 -10.55
Si  3.45 -1.85 10.55
Si -2.80  2.78 10.55
Si  2.80 -2.78 -10.55
Si  6.27  3.30 -8.78
Si -6.27 -3.30  8.78
Si  4.00  0.46 10.55
Si -4.00 -0.46 -10.55
Si -4.42 -9.22  4.92
Si  4.42  9.22 -4.92
Si  7.55  6.90 -4.92
Si -7.55 -6.90  4.92
Si  9.76  5.72  1.05
Si -9.76 -5.72 -1.05
Si -4.06  5.97  8.78
Si  4.06 -5.97 -8.78
Si -0.78 -4.17 10.55
Si  0.78  4.17 -10.55
Si -3.91 -1.85 10.55
Si  3.91  1.85 -10.55
Si -5.72  9.48  2.82
Si  5.72 -9.48 -2.82
Si -8.45 -7.16 -2.82
Si  8.45  7.16  2.82
Si -8.08  8.04  1.05
Si  8.08 -8.04 -1.05
Si -8.81  6.75 -2.82
Si  8.81 -6.75  2.82
Si 10.85  3.56 -1.05
Si -10.85 -3.56  1.05
Si -10.12 -2.27  4.92
Si 10.12  2.27 -4.92
Si  6.42  3.66  8.78
Si -6.42 -3.66 -8.78
Si -6.46 -9.07  2.82
Si  6.46  9.07 -2.82
Si  5.30 -7.78  6.69
Si -5.30  7.78 -6.69
Si -11.02 -2.52 -2.82
Si 11.02  2.52  2.82
Si  7.91 -7.00 -4.92
Si -7.91  7.00  4.92
Si -11.05  2.52  2.82
Si 11.05 -2.52 -2.82
Si -8.27 -8.19  1.05
Si  8.27  8.19 -1.05
Si -2.90  4.17 -10.55
Si  2.90 -4.17 10.55
Si -0.34 11.38 -2.82
Si  0.34 -11.38  2.82
Si -5.15 -10.51  1.05
Si  5.15 10.51 -1.05
Si -5.74 -7.78  6.69
Si  5.74  7.78 -6.69
Si  1.43  5.10 10.55
Si -1.43 -5.10 -10.55
Si 11.23 -3.56  1.05
Si -11.23  3.56 -1.05
Si -4.56 -2.78 -10.55
Si  4.56  2.78 10.55
Si  0.02  7.93 -8.78
Si -0.02 -7.93  8.78
Si 11.78 -1.24  1.05
Si -11.78  1.24 -1.05
Si 10.50 -4.84 -2.82
Si -10.50  4.84  2.82
Si  2.25 -5.10 -10.55
Si -2.25  5.10 10.55
Si -11.61  0.21  2.82
Si 11.61 -0.21 -2.82
Si -9.93 -4.69 -4.92
Si  9.93  4.69  4.92
Si  9.59  6.75 -2.82
Si -9.59 -6.75  2.82
Si -0.17 -8.29 -8.78
Si  0.17  8.29  8.78
Si -5.89 10.51 -1.05
Si  5.89 -10.51  1.05
Si -5.49 -8.45 -6.69
Si  5.49  8.45  6.69
Si -5.55  8.45  6.69
Si  5.55 -8.45 -6.69
Si -1.07 10.10 -6.69
Si  1.07 -10.10  6.69
Si -3.34 -11.38  2.82
Si  3.34 11.38 -2.82
Si  4.46  4.17 -10.55
Si -4.46 -4.17 10.55
Si -1.49 11.80  2.82
Si  1.49 -11.80 -2.82
Si -10.67  5.87 -1.05
Si 10.67 -5.87  1.05
Si  2.19 11.80  2.82
Si -2.19 -11.80 -2.82
Si -6.61  9.22 -4.92
Si  6.61 -9.22  4.92
Si -8.86 -5.46  6.69
Si  8.86  5.46 -6.69
Si -3.66  7.93 -8.78
Si  3.66 -7.93  8.78
Si -2.61 -10.10  6.69
Si  2.61 10.10 -6.69
Si  4.02 -11.38  2.82
Si -4.02 11.38 -2.82
Si -3.70 -7.93  8.78
Si  3.70  7.93 -8.78
Si -12.33 -1.08 -1.05
Si 12.33  1.08  1.05
Si -6.82 -5.62  8.78
Si  6.82  5.62 -8.78
Si -1.33 -6.49 10.55
Si  1.33  6.49 -10.55
Si -10.08  3.14 -6.69
Si 10.08 -3.14  6.69
Si -8.62 -6.13 -6.69
Si  8.62  6.13  6.69
Si  8.84 -1.34 -8.78
Si -8.84  1.34  8.78
Si  3.51 -8.29 -8.78
Si -3.51  8.29  8.78
Si -9.95  7.16  2.82
Si  9.95 -7.16 -2.82
Si  8.25 -9.07  2.82
Si -8.25  9.07 -2.82
Si -10.64  0.82 -6.69
Si 10.64 -0.82  6.69
Si -1.30 -11.54  4.92
Si  1.30 11.54 -4.92
Si  9.00 -0.98  8.78
Si -9.00  0.98 -8.78
Si  2.35 -6.49 10.55
Si -2.35  6.49 -10.55
Si -10.68 -4.58  4.92
Si 10.68  4.58 -4.92
