500
set: 314.00  0.00  0.00
Si -0.02  0.05  0.04
Si  0.07 -2.17  0.82
Si -0.02 -0.01 -2.32
Si  1.89  1.13  0.79
Si -2.01  1.05  0.74
Si -1.80 -3.28 -0.01
Si  3.75 -0.05 -0.06
Si  0.01  2.17 -3.07
Si -1.99  1.12  3.04
Si -1.92  3.30  0.06
Si -1.94 -1.15 -3.09
Si  1.88  1.06  3.16
Si  1.91 -3.33  0.06
Si  1.84 -1.09 -3.21
Si  0.01 -2.25  3.18
Si -3.90 -0.05 -0.06
Si  2.02  3.35 -0.01
Si -1.85 -1.09  3.89
Si -1.87 -3.31 -2.32
Si -0.04  2.24  3.86
Si  0.01  4.41  0.75
Si -1.85  3.33 -2.36
Si  3.79  0.03 -2.39
Si -3.82 -2.23  0.75
Si  1.95  3.31 -2.32
Si  3.83 -2.23  0.75
Si  1.98 -3.30 -2.36
Si  1.95 -1.11  3.93
Si -3.87  0.03 -2.39
Si -3.75 -2.19  3.13
Si -3.75  2.23 -3.12
Si  0.07 -4.40 -3.12
Si  0.07  4.44  3.13
Si  3.90 -2.19  3.13
Si  3.90  2.23 -3.12
Si  5.64  1.05  0.74
Si  0.07  2.25 -5.43
Si -1.94 -5.50  0.79
Si -1.94 -1.08 -5.46
Si -3.76  4.46  0.82
Si  3.81  2.20  3.93
Si  1.82 -5.58  0.74
Si -0.02 -4.43  3.93
Si  1.82 -1.16 -5.51
Si -3.85  2.20  3.93
Si -5.76  1.13  0.79
Si  3.90  4.46  0.82
Si  5.67  1.12  3.04
Si -5.63  3.35 -0.01
Si  1.84 -5.51  3.04
Si -0.07  2.16  6.19
Si  1.91  1.09 -6.19
Si  1.88  5.48 -3.09
Si -0.07  6.58 -0.06
Si  5.71 -1.15 -3.09
Si -1.80  1.14 -6.26
Si  5.74  3.30  0.06
Si -3.81  4.38  3.18
Si -3.81 -4.46 -3.07
Si  3.84  4.38  3.18
Si -5.74 -3.33  0.06
Si  3.84 -4.46 -3.07
Si  2.02 -1.07  6.24
Si -5.77  1.06  3.16
Si -0.07 -6.68 -0.06
Si -1.94 -5.57  3.16
Si -1.92 -1.12  6.31
Si -0.07 -2.26 -6.31
Si -1.99  5.54 -3.21
Si  5.85 -3.28 -0.01
Si -5.81 -1.09 -3.21
Si  3.79 -4.39  3.86
Si -5.68 -3.30 -2.36
Si -5.70  3.31 -2.32
Si  0.01 -0.01  7.00
Si -5.70 -1.11  3.93
Si -3.87 -4.39  3.86
Si -0.04 -6.60 -2.39
Si -1.87  5.52  3.93
Si -3.82  2.19 -5.50
Si  1.98  5.54  3.89
Si  3.83  2.19 -5.50
Si  5.78 -3.31 -2.32
Si  0.01 -4.43 -5.50
Si -0.04  6.66 -2.39
Si  5.80 -1.09  3.89
Si  5.80  3.33 -2.36
Si  3.80 -2.16 -6.21
Si  3.80 -6.58  0.04
Si -3.85 -2.16 -6.21
Si -3.85 -6.58  0.04
Si  7.63  0.05  0.04
Si -0.02  4.47 -6.21
Si -0.02 -4.37  6.29
Si -7.68  0.05  0.04
Si  3.80  6.68  0.04
Si  3.80  2.26  6.29
Si -3.85  6.68  0.04
Si -3.85  2.26  6.29
Si  1.82  3.26  6.99
Si -3.76 -4.38 -5.43
Si  1.82  7.68  0.74
Si -7.58 -2.17  0.82
Si  5.72 -5.50  0.79
Si  7.63 -0.01 -2.32
Si  5.72 -1.08 -5.46
Si  3.81  6.62 -2.32
Si  3.90 -4.38 -5.43
Si  3.81 -6.64 -2.32
Si  1.89 -3.29  7.04
Si -3.85  6.62 -2.32
Si -3.76  0.04  7.07
Si  1.89  5.55 -5.46
Si -2.01 -3.37  6.99
Si -3.85 -6.64 -2.32
Si -7.68 -0.01 -2.32
Si -2.01  5.47 -5.51
Si -1.94  3.34  7.04
Si -1.94  7.76  0.79
Si  7.72 -2.17  0.82
Si  3.90  0.04  7.07
Si -5.84 -5.58  0.74
Si -5.84 -1.16 -5.51
Si -5.63 -1.07  6.24
Si  3.75 -4.47  6.19
Si -5.74  1.09 -6.19
Si -7.64  2.17 -3.07
Si -1.92 -5.54 -6.19
Si  1.84  7.75  3.04
Si -5.77  5.48 -3.09
Si -1.95  7.69  3.16
Si  7.67  2.17 -3.07
Si  3.75  4.37 -6.31
Si -1.80  5.56  6.24
Si  5.67  5.54 -3.21
Si -5.81 -5.51  3.04
Si  2.02 -5.49 -6.26
Si -7.64 -2.25  3.18
Si -3.90 -4.47  6.19
Si  1.88 -7.78 -3.09
Si  5.71 -5.57  3.16
Si -1.98 -7.72 -3.21
Si  1.91  5.51  6.31
Si  7.67 -2.25  3.18
Si  5.74 -1.12  6.31
Si -3.90  4.37 -6.31
Si  5.85  1.14 -6.26
Si  7.62  2.24  3.86
Si -5.68  5.54  3.89
Si -1.87  1.10 -8.57
Si -7.65  4.41  0.75
Si  7.66  4.41  0.75
Si  1.98 -7.72  3.89
Si -1.87 -7.74  3.93
Si  0.01 -8.86  0.75
Si -7.69  2.24  3.86
Si  1.98  1.12 -8.61
Si  5.78  5.52  3.93
Si -0.04 -2.18 -8.64
Si -7.58 -4.40 -3.12
Si -7.58  4.44  3.13
Si  0.07 -8.82  3.13
Si  0.07  0.02 -9.37
Si  0.07  0.02  9.38
Si  0.07  8.86 -3.12
Si  7.73 -4.40 -3.12
Si  7.73  4.44  3.13
Si  5.64 -3.37  6.99
Si -7.58  2.25 -5.43
Si -3.76 -8.80  0.82
Si  5.64  5.47 -5.51
Si  1.89 -7.71 -5.46
Si  3.81 -2.22 -8.57
Si -0.02  4.41 -8.57
Si  9.55  1.13  0.79
Si -3.85 -2.22 -8.57
Si  3.90 -8.80  0.82
Si  7.63 -4.43  3.93
Si  0.07 -6.59  7.07
Si -0.02  8.83  3.93
Si  5.72  3.34  7.04
Si -5.84  3.26  6.99
Si -5.84  7.68  0.74
Si  5.72  7.76  0.79
Si -5.76 -3.29  7.04
Si -5.76  5.55 -5.46
Si -7.68 -4.43  3.93
Si  7.72  2.25 -5.43
Si  0.07  6.67  7.07
Si -9.66  1.05  0.74
Si -2.01 -7.79 -5.51
Si -9.46 -3.28 -0.01
Si  7.58  2.16  6.19
Si  7.58  6.58 -0.06
Si  1.84  3.33  9.29
Si -5.63 -5.49 -6.26
Si -1.99 -3.30  9.29
Si -3.81  8.80 -3.07
Si -3.81 -0.04 -9.32
Si -1.80 -7.70  6.24
Si -1.92  7.72 -6.19
Si  3.84  8.80 -3.07
Si  9.50 -1.09 -3.21
Si  3.84 -0.04 -9.32
Si -1.94  3.27 -9.34
Si  5.71  7.69  3.16
Si  5.74 -5.54 -6.19
Si  5.67 -7.72 -3.21
Si  1.88 -3.36 -9.34
Si  9.54  1.06  3.16
Si  7.58 -6.68 -0.06
Si  1.91  9.93  0.06
Si  2.02 -9.91 -0.01
Si  7.58 -2.26 -6.31
Si -9.57  3.30  0.06
Si  9.57 -3.33  0.06
Si -7.73  2.16  6.19
Si -1.92 -9.96  0.06
Si -1.80  9.98 -0.01
Si -7.73  6.58 -0.06
Si -9.60 -1.15 -3.09
Si -1.95  3.27  9.41
Si -5.81  7.75  3.04
Si -5.74  5.51  6.31
Si -5.77 -7.78 -3.09
Si  1.88 -3.36  9.41
Si -9.64  1.12  3.04
Si -3.81 -0.04  9.43
Si -3.81 -8.88  3.18
Si  1.91 -7.75  6.31
Si  3.84 -0.04  9.43
Si  2.02  7.77 -6.26
Si  3.84 -8.88  3.18
Si  1.84  3.33 -9.46
Si  5.85  5.56  6.24
Si -1.98 -3.30 -9.46
Si -7.73 -6.68 -0.06
Si -7.73 -2.26 -6.31
Si  9.68  3.35 -0.01
Si -9.51 -1.09  3.89
Si -9.51  3.33 -2.36
Si -5.68 -7.72  3.89
Si -0.04 -2.18 10.12
Si -9.53 -3.31 -2.32
Si  7.62 -6.60 -2.39
Si -3.82  6.61  7.00
Si  3.83  6.61  7.00
Si -7.65 -0.01  7.00
Si -5.68  1.12 -8.61
Si -1.85 -9.93 -2.36
Si  7.66 -0.01  7.00
Si -3.82 -6.64  7.00
Si -1.87  9.94 -2.32
Si  1.95 -5.53 -8.57
Si  3.79  8.87  3.86
Si -1.85 -5.51 -8.61
Si  3.83 -6.64  7.00
Si  7.62  6.66 -2.39
Si  1.98  1.11 10.14
Si  1.95 -9.95 -2.32
Si  0.01  8.82 -5.50
Si  5.78  1.10 -8.57
Si -1.87  1.10 10.18
Si -7.65 -4.43 -5.50
Si -7.69 -6.60 -2.39
Si -3.87  8.87  3.86
Si  1.98  9.96 -2.36
Si  7.66 -4.43 -5.50
Si  9.61  3.31 -2.32
Si  5.78 -7.74  3.93
Si  3.79  4.45 -8.64
Si  9.61 -1.11  3.93
Si -7.69  6.66 -2.39
Si  9.63 -3.30 -2.36
Si -3.87  4.45 -8.64
Si -0.02 -8.79 -6.21
Si  7.63  4.47 -6.21
Si  7.63 -4.37  6.29
Si -7.68  4.47 -6.21
Si -7.68 -4.37  6.29
Si -0.02  8.89  6.29
Si  9.47 -5.58  0.74
Si  9.47 -1.16 -5.51
Si -5.76 -7.71 -5.46
Si -3.76  8.88 -5.43
Si -9.59 -5.50  0.79
Si -9.59 -1.08 -5.46
Si  5.65 -7.79 -5.51
Si  3.81 -2.22 10.18
Si -0.02  4.41 10.18
Si -3.85 -2.22 10.18
Si  3.90  8.88 -5.43
Si  0.07 11.09  0.82
Si  5.67 -3.30  9.29
Si  3.75  8.79  6.19
Si  9.50 -5.51  3.04
Si -5.63 -9.91 -0.01
Si -9.46  1.14 -6.26
Si 11.41 -0.05 -0.06
Si  0.01  6.59 -9.32
Si  5.71  3.27 -9.34
Si  9.54  5.48 -3.09
Si -3.90  8.79  6.19
Si  5.74  7.72 -6.19
Si  9.57  1.09 -6.19
Si -5.81  3.33  9.29
Si -5.63  7.77 -6.26
Si  0.01 11.01  3.18
Si  0.01 -6.67 -9.32
Si -5.74  9.93  0.06
Si -5.77 -3.36 -9.34
Si  5.71  3.27  9.41
Si  5.74 -9.96  0.06
Si  0.01  6.59  9.43
Si  0.01 -11.09 -3.07
Si  5.85 -7.70  6.24
Si  5.67 -3.30 -9.46
Si -9.57 -1.12  6.31
Si -5.74 -7.75  6.31
Si  3.75 -8.89 -6.31
Si -9.60 -5.57  3.16
Si -5.77 -3.36  9.41
Si  0.01 -6.67  9.43
Si -11.55 -0.05 -0.06
Si  9.68 -1.07  6.24
Si  5.85  9.98 -0.01
Si -9.64  5.54 -3.21
Si -3.90 -8.89 -6.31
Si -5.81  3.33 -9.46
Si -5.68  1.11 10.14
Si  3.79  4.45 10.12
Si -0.04 -11.02  3.86
Si -5.70 -5.53 -8.57
Si 11.44  0.03 -2.39
Si -9.53  5.52  3.93
Si -1.85 -5.51 10.14
Si -5.70 -9.95 -2.32
Si -5.68  9.96 -2.36
Si -3.82 11.04  0.75
Si -3.87  4.45 10.12
Si  3.83 11.04  0.75
Si  1.95  7.74 -8.57
Si -11.47 -2.23  0.75
Si  7.62 -2.18 -8.64
Si -7.65 -8.86  0.75
Si -1.85  7.75 -8.61
Si 11.49 -2.23  0.75
Si  7.66 -8.86  0.75
Si  5.78  9.94 -2.32
Si  5.80 -9.93 -2.36
Si  1.95 -5.53 10.18
Si  0.01 -0.01 -11.75
Si  5.80 -5.51 -8.61
Si  5.78  1.10 10.18
Si -11.52  0.03 -2.39
Si  9.63  5.54  3.89
Si -7.69 -2.18 -8.64
Si -11.41 -2.19  3.13
Si -11.41  2.23 -3.12
Si -7.58 -8.82  3.13
Si -7.58  0.02 -9.37
Si -7.58  0.02  9.38
Si -3.75 -11.03 -3.12
Si -3.75 -6.61 -9.37
Si -7.58  8.86 -3.12
Si -3.75 -6.61  9.38
Si -3.75  6.65 -9.37
Si -3.75  6.65  9.38
Si -3.75 11.07  3.13
Si  3.90 -11.03 -3.12
Si  3.90 -6.61 -9.37
Si  3.90 -6.61  9.38
Si  3.90  6.65 -9.37
Si  7.73 -8.82  3.13
Si  3.90  6.65  9.38
Si  3.90 11.07  3.13
Si  7.73  0.02 -9.37
Si  7.73  0.02  9.38
Si  7.73  8.86 -3.12
Si 11.55 -2.19  3.13
Si 11.55  2.23 -3.12
Si  9.47  3.26  6.99
Si  9.47  7.68  0.74
Si -3.76  0.04 -11.68
Si -2.01  9.89  6.99
Si  0.07 -11.01 -5.43
Si -11.41  4.46  0.82
Si -7.58 -6.59  7.07
Si  7.63  4.41 -8.57
Si  1.89 -12.13  0.79
Si  1.89 -3.29 -11.71
Si  9.55 -3.29  7.04
Si 11.46  2.20  3.93
Si  3.90  0.04 -11.68
Si  7.63  8.83  3.93
Si  9.55  5.55 -5.46
Si -0.02 -8.85 -8.57
Si -1.94 -9.92  7.04
Si -7.68  4.41 -8.57
Si -1.94  3.34 -11.71
Si -7.58  6.67  7.07
Si  1.82 -10.00  6.99
Si  3.81 -11.06  3.93
Si  1.82  3.26 -11.77
Si -7.68  8.83  3.93
Si -3.85 -11.06  3.93
Si  1.89  9.97  7.04
Si -11.50  2.20  3.93
Si -9.59  3.34  7.04
Si -9.59  7.76  0.79
Si  7.72 -6.59  7.07
Si -9.66 -3.37  6.99
Si -2.01 -12.21  0.74
Si -9.66  5.47 -5.51
Si -2.01 -3.37 -11.77
Si 11.55  4.46  0.82
Si  7.72  6.67  7.07
Si -9.46  5.56  6.24
Si  9.50  7.75  3.04
Si -1.92 -1.12 -12.44
Si -0.07 -2.27 12.44
Si -1.95 12.11 -3.09
Si -1.98 -12.14  3.04
Si -9.57 -5.54 -6.19
Si -1.80  1.14 12.49
Si -0.07 11.00 -6.31
Si -11.47  4.38  3.18
Si -11.47 -4.46 -3.07
Si  9.54 -7.78 -3.09
Si -9.60  7.69  3.16
Si 11.50  4.38  3.18
Si 11.50 -4.46 -3.07
Si -0.07 -11.10  6.19
Si  9.56  5.51  6.31
Si  2.02 -1.07 -12.51
Si  1.84 12.17 -3.21
Si  1.88 -12.20  3.16
Si -0.07  2.16 -12.56
Si  1.91  1.09 12.56
Si -9.64 -7.72 -3.21
Si  9.68 -5.49 -6.26
Si  7.62 -2.18 10.12
Si 11.44 -4.39  3.86
Si -9.53  1.10 -8.57
Si -5.70  7.74 -8.57
Si -9.53 -7.74  3.93
Si -7.70 -2.18 10.12
Si -1.85  7.75 10.14
Si -1.85 12.16  3.89
Si -7.65  8.82 -5.50
Si  3.79 -8.81 -8.64
Si -5.70 -5.53 10.18
Si -11.47  2.19 -5.50
Si  7.66  8.82 -5.50
Si  1.95 12.15  3.93
Si -11.52 -4.39  3.86
Si  5.80 -5.51 10.14
Si 11.49  2.19 -5.50
Si -3.87 -8.81 -8.64
Si -3.82 -11.06 -5.50
Si  1.95  7.73 10.18
Si  3.84 -11.06 -5.50
Si  9.63 -7.72  3.89
Si  5.80  7.75 -8.61
Si  9.63  1.12 -8.61
Si  7.63 -8.79 -6.21
Si -0.02 -4.37 -12.46
Si -0.02 -13.21  0.04
Si 11.46 -2.16 -6.21
Si 11.46 -6.58  0.04
Si -7.68 -8.79 -6.21
Si  3.80  2.27 -12.46
Si  3.80 -11.00  6.29
Si -3.85  2.27 -12.46
Si -3.85 -11.00  6.29
Si -11.51 -2.16 -6.21
Si -11.51 -6.58  0.04
Si 11.46  6.68  0.04
Si 11.46  2.26  6.29
Si  3.80 11.10 -6.21
Si  3.80 -2.16 12.54
Si -3.85 11.10 -6.21
Si -3.85 -2.16 12.54
Si  7.63  8.89  6.29
Si -11.51  6.68  0.04
Si -11.51  2.26  6.29
Si -0.02 13.31  0.04
Si -0.02  4.47 12.54
Si -7.68  8.89  6.29
Si  5.64  9.89  6.99
Si 13.30  1.05  0.74
Si -11.41 -4.38 -5.43
Si  0.07 -6.59 -11.68
Si  1.82 -1.16 13.24
Si  1.82 12.10 -5.51
Si -11.41  0.04  7.07
Si  9.55 -7.71 -5.46
Si 11.46  6.62 -2.32
Si  5.72 -9.92  7.04
Si 11.46 -6.64 -2.32
