500
set: 1059.00  0.00  0.00
Si  0.41 -1.14  0.82
Si -0.43  1.16 -0.81
Si  1.30  1.11  0.79
Si -1.32 -1.13 -0.82
Si  0.88  0.03 -2.42
Si  2.17 -1.16 -0.82
Si -2.16  1.18  0.80
Si -0.93  0.01  2.47
Si  0.07  2.31  2.41
Si -3.02 -1.17  0.82
Si  3.06  1.12 -0.80
Si -0.01 -2.31 -2.45
Si -2.57 -0.02 -2.46
Si  2.64  0.03  2.40
Si  0.46  3.52 -0.82
Si -0.48 -3.54  0.79
Si -1.76  2.28 -2.40
Si  1.69 -2.30  2.47
Si -1.72 -2.35  2.41
Si -1.23  3.48  0.82
Si  1.77  2.33 -2.45
Si  1.27 -3.53 -0.80
Si -3.89  1.12 -0.80
Si  0.88  0.01  4.04
Si -0.83 -0.02 -4.08
Si  3.93 -1.17  0.82
Si -2.21 -3.49 -0.81
Si  2.19  3.51  0.82
Si -0.04  2.34 -4.02
Si  3.00 -3.47  0.80
Si -3.00  3.49 -0.82
Si -0.01 -2.30  4.07
Si  2.58  0.03 -4.02
Si  3.40 -2.37 -2.40
Si -3.47  2.35  2.47
Si  3.48  2.35  2.47
Si -2.65 -0.04  4.09
Si -3.54 -2.37 -2.40
Si -1.68  2.30  4.03
Si -4.31  0.03  2.40
Si -1.82 -2.31 -4.02
Si -4.78 -1.16 -0.82
Si  4.79  1.18  0.80
Si  1.75 -2.29 -4.09
Si  4.38 -0.02 -2.46
Si  1.77  2.35  4.07
Si  0.85 -4.62  2.40
Si -0.91 -4.62 -2.42
Si -0.79  4.62 -2.46
Si -3.95 -3.47  0.80
Si  3.95  3.49 -0.82
Si  0.86  4.66  2.47
Si  5.63 -1.13 -0.82
Si -3.46 -2.35  4.03
Si -0.43  1.19  5.67
Si -5.65  1.11  0.79
Si  3.48 -2.35  4.03
Si -3.42  2.36 -4.09
Si -2.52  4.68  2.40
Si  0.41 -1.21 -5.70
Si  0.38 -5.81 -0.82
Si  2.59 -4.67 -2.46
Si  3.53  2.36 -4.09
Si -0.38  5.83  0.80
Si  2.66  4.68 -2.42
Si -2.71 -4.63  2.47
Si  4.30 -0.04  4.09
Si  1.30  1.19 -5.66
Si -4.37  0.03 -4.02
Si  4.74 -3.49 -0.81
Si -1.32 -1.16  5.68
Si -4.76  3.51  0.82
Si -1.38 -5.79  0.82
Si  1.36  5.81 -0.81
Si  5.19  2.28 -2.40
Si -2.13  1.15 -5.67
Si  0.80 -4.62 -4.02
Si -5.18  2.33 -2.45
Si -2.11  5.77 -0.80
Si  2.16 -1.21  5.68
Si  5.23 -2.35  2.41
Si -0.91 -4.64  4.04
Si -0.87  4.61  4.09
Si  0.96  4.63 -4.08
Si -5.26 -2.30  2.47
Si  2.15 -5.82  0.82
Si  6.02  0.01  2.47
Si -6.07  0.03 -2.42
Si  3.06  1.17  5.67
Si -3.06 -1.14 -5.69
Si  3.08  5.76  0.79
Si -3.11 -5.78 -0.82
Si -0.49 -3.46 -5.66
Si  6.52  1.16 -0.81
Si  0.46  3.49  5.68
Si -2.58  4.68 -4.02
Si -6.54 -1.14  0.82
Si  2.51 -4.69  4.09
Si  2.67  4.66  4.04
Si -2.61 -4.67 -4.08
Si -5.68 -3.53 -0.80
Si  5.71  3.48  0.82
Si  4.24 -4.63  2.47
Si  1.27 -3.48  5.67
Si -4.29  4.68 -2.42
Si -1.27  3.51 -5.69
Si -4.36 -4.67 -2.46
Si  4.42  4.68  2.40
Si  5.13 -2.31 -4.02
Si -3.89  1.17  5.67
Si -3.86  5.76  0.79
Si  3.89 -1.14 -5.69
Si  3.84 -5.78 -0.82
Si -5.18  2.35  4.07
Si -2.21 -3.46  5.67
Si -5.20 -2.29 -4.09
Si  2.19  3.44 -5.70
Si  5.27  2.30  4.03
Si -3.00  3.44  5.68
Si -6.07  0.01  4.04
Si  3.04 -3.50 -5.67
Si  0.03  6.93 -2.40
Si  6.12 -0.02 -4.08
Si -0.10 -6.95  2.47
Si  0.41 -1.21  7.28
Si  6.46 -3.54  0.79
Si -0.43  1.19 -7.30
Si -6.49  3.52 -0.82
Si  7.36 -1.14  0.82
Si -1.32 -1.16 -7.29
Si -4.28  4.66  4.04
Si -7.38  1.16 -0.81
Si  1.30  1.19  7.31
Si -4.79 -1.21  5.68
Si  4.82  1.15 -5.67
Si  4.37  4.68 -4.02
Si  4.34 -4.67 -4.08
Si  4.84  5.77 -0.80
Si  1.85  6.96  2.41
Si  1.62 -7.02 -2.40
Si -4.80 -5.82  0.82
Si -1.80 -6.96 -2.45
Si -1.69  7.00  2.47
Si -4.44 -4.69  4.09
Si -6.88  2.31  2.41
Si -2.13  1.15  7.30
Si  2.16 -1.21 -7.29
Si  6.94 -2.31 -2.45
Si -3.91 -3.50 -5.67
Si  3.95  3.44  5.68
Si -6.96 -2.31 -2.45
Si  7.01  2.31  2.41
Si  6.04 -4.62 -2.42
Si -3.06 -1.14  7.29
Si  3.06  1.17 -7.31
Si -6.09 -4.62  2.40
Si  0.11  6.95  4.03
Si -0.04 -6.94 -4.09
Si -6.09  4.66  2.47
Si  5.57 -5.79  0.82
Si  5.63 -1.16  5.68
Si -5.65  1.19 -5.66
Si  6.16  4.62 -2.46
Si  0.46  3.49 -7.29
Si -0.49 -3.46  7.31
Si -5.59  5.81 -0.81
Si -0.34  5.80 -5.67
Si -3.39  6.99 -2.45
Si  4.74 -3.46  5.67
Si  3.44 -7.00  2.41
Si  0.38 -5.86  5.68
Si -4.76  3.44 -5.70
Si -3.50 -7.00  2.41
Si -1.27  3.51  7.29
Si  0.55  8.13  0.82
Si  7.83  0.03 -2.42
Si  1.27 -3.48 -7.31
Si  3.56  6.99 -2.45
Si -0.51 -8.18 -0.80
Si  7.41  3.52 -0.82
Si  1.22 -8.12  0.80
Si  1.75  6.99 -4.02
Si -1.80 -6.95  4.07
Si  1.70 -7.00  4.03
Si  1.36  5.84  5.67
Si -7.88  0.01  2.47
Si -7.43 -3.54  0.79
Si -1.21  8.14 -0.82
Si -1.63  7.01 -4.09
Si -1.38 -5.86 -5.70
Si  6.91  2.34 -4.02
Si  3.89 -1.14  7.29
Si  2.19  3.44  7.28
Si  8.25  1.11  0.79
Si -3.89  1.17 -7.31
Si  6.93 -2.30  4.07
Si -2.21 -3.46 -7.30
Si -6.96 -2.30  4.07
Si  2.11 -5.79 -5.69
Si -8.27 -1.13 -0.82
Si -2.10  5.82  5.67
Si -6.98  2.34 -4.02
Si  2.25  8.17 -0.82
Si -2.27 -8.19  0.79
Si -5.99  4.63 -4.08
Si -3.00  3.44 -7.29
Si  6.04 -4.64  4.04
Si  3.04 -3.50  7.30
Si  6.08  4.61  4.09
Si -6.15 -4.62 -4.02
Si  2.95 -8.14 -0.81
Si  3.08  5.84 -5.66
Si -3.11 -5.81  5.68
Si  3.34 -6.96 -4.02
Si  6.52  1.19  5.67
Si -2.97  8.16  0.82
Si -5.67 -3.48  5.67
Si -6.54 -1.21 -5.70
Si  5.68  3.51 -5.69
Si -7.78 -0.02 -4.08
Si -3.39  7.00  4.07
Si -6.57 -5.81 -0.82
Si -4.79 -1.21 -7.29
Si -3.60 -6.96 -4.02
Si  7.83  0.01  4.04
Si  6.57  5.83  0.80
Si  4.82  1.15  7.30
Si  3.56  7.00  4.07
Si -8.18  3.48  0.82
Si -0.83 -0.02  8.89
Si -5.10  6.96  2.41
Si  0.88  0.01 -8.93
Si  3.95  3.44 -7.29
Si  8.22 -3.53 -0.80
Si  3.84 -5.81  5.68
Si -3.91 -3.50  7.30
Si  5.15 -6.96 -2.45
Si -3.87  5.84 -5.66
Si  5.26  7.00  2.47
Si -4.00 -8.14 -0.81
Si  3.98  8.16  0.82
Si -5.33 -7.02 -2.40
Si -0.01 -2.30 -8.90
Si -9.11  1.18  0.80
Si  9.12 -1.16 -0.82
Si -0.04  2.34  8.96
Si  6.46 -3.46 -5.66
Si  8.64 -2.30  2.47
Si -2.65 -0.04 -8.89
Si  5.63 -1.16 -7.29
Si -8.67 -2.35  2.41
Si -6.49  3.49  5.68
Si -5.65  1.19  7.31
Si -8.71  2.28 -2.40
Si  2.58  0.03  8.95
Si -0.34  5.80  7.30
Si  1.75 -2.29  8.89
Si -7.74  4.62 -2.46
Si -4.76  3.44  7.28
Si  8.72  2.33 -2.45
Si  0.38 -5.86 -7.29
Si  4.74 -3.46 -7.30
Si  1.77  2.35 -8.90
Si  7.80 -4.62  2.40
Si -7.38  1.19  5.67
Si  7.36 -1.21 -5.70
Si  7.33 -5.81 -0.82
Si -1.68  2.30 -8.95
Si -7.33  5.83  0.80
Si  7.81  4.66  2.47
Si -1.82 -2.31  8.96
Si -7.86 -4.62 -2.42
Si -1.38 -5.86  7.28
Si  1.36  5.84 -7.30
Si -4.84 -5.79 -5.69
Si  4.84  5.82  5.67
Si -4.70  8.17 -0.82
Si  4.68 -8.19  0.79
Si  2.11 -5.79  7.29
Si  5.15 -6.95  4.07
Si -2.10  5.82 -7.31
Si -5.20  6.99 -4.02
Si -0.93 -9.27  2.40
Si -5.25 -7.00  4.03
Si  1.00  9.28 -2.46
Si -0.74  9.33  2.40
Si  0.81 -9.32 -2.46
Si  5.32  7.01 -4.09
Si -8.63  2.30  4.03
Si -3.42  2.36  8.89
Si  9.14  3.51  0.82
Si -3.11 -5.81 -7.29
Si -9.52 -0.02 -2.46
Si -9.16 -3.49 -0.81
Si  3.53  2.36  8.89
Si  3.08  5.84  7.31
Si -6.54 -1.21  7.28
Si  6.52  1.19 -7.30
Si  4.30 -0.04 -8.89
Si  7.75 -4.62 -4.02
Si -5.59  5.84  5.67
Si -3.46 -2.35 -8.95
Si  8.70 -2.29 -4.09
Si  5.68  3.51  7.29
Si  9.59  0.03  2.40
Si -5.67 -3.48 -7.31
Si  3.48 -2.35 -8.95
Si  5.57 -5.86 -5.70
Si  8.72  2.35  4.07
Si  2.45 -9.29  2.47
Si -8.77 -2.31 -4.02
Si -0.51 -8.13  5.67
Si -2.69 -9.27 -2.42
Si -7.82  4.61  4.09
Si -2.50  9.33 -2.42
Si  0.52  8.16 -5.69
Si -4.37  0.03  8.95
Si -1.22  8.09  5.68
Si -7.43 -3.46 -5.66
Si  7.41  3.49  5.68
Si -5.73 -8.12  0.80
Si -7.85 -4.64  4.04
Si  2.64  9.31  2.47
Si  5.74  8.14 -0.82
Si  1.25 -8.15 -5.67
Si  7.91  4.63 -4.08
Si -0.87  4.61 -8.89
Si  6.85 -6.95  2.47
Si -9.97 -1.17  0.82
Si  0.96  4.63  8.89
Si  8.25  1.19 -5.66
Si  3.84 -5.81 -7.29
Si -6.92  6.93 -2.40
Si 10.00  1.12 -0.80
Si -8.27 -1.16  5.68
Si -0.91 -4.64 -8.93
Si  0.80 -4.62  8.95
Si -3.87  5.84  7.31
Si  6.97  6.93 -2.40
Si -2.27 -8.11 -5.66
Si -0.99 -9.27 -4.02
Si  0.92  9.26  4.09
Si  8.30  5.81 -0.81
Si -8.33 -5.79  0.82
Si  2.25  8.14  5.68
Si -0.80  9.33 -4.02
Si -7.04 -6.95  2.47
Si  0.73 -9.34  4.09
Si  2.95 -8.11  5.67
Si -2.97  8.09 -5.70
Si  9.53  0.03 -4.02
Si  6.46 -3.46  7.31
Si  2.51 -4.69 -8.89
Si -6.49  3.49 -7.29
Si -6.40  8.13  0.82
Si -2.61 -4.67  8.89
Si  7.36 -1.21  7.28
Si  2.67  4.66 -8.93
Si -2.58  4.68  8.95
Si -9.60 -0.04  4.09
Si  6.43 -8.18 -0.80
Si -7.38  1.19 -7.30
Si -2.50  9.31  4.04
Si -0.32 10.42 -0.80
Si  6.61  5.80 -5.67
Si -6.57 -5.86  5.68
Si -2.69 -9.29  4.04
Si  4.26 -9.27 -2.42
Si  2.55 -9.32 -4.08
Si -4.84 -5.79  7.29
Si  2.74  9.28 -4.08
Si  0.36 -10.47  0.82
Si  4.84  5.82 -7.31
Si -0.93  0.01 -10.50
Si -5.20 -2.29  8.89
Si -6.84  6.95  4.03
Si -4.31  9.31  2.47
Si -5.18  2.35 -8.90
Si  9.95 -3.47  0.80
Si -9.95  3.49 -0.82
Si  8.22 -3.48  5.67
Si  5.13 -2.31  8.96
Si -1.40 -10.46 -0.82
Si -8.22  3.51 -5.69
Si  0.88  0.03 10.56
Si  1.41 10.48  0.80
Si -4.50 -9.29  2.47
Si  4.45  9.33 -2.42
Si  6.91 -6.94 -4.09
Si  5.27  2.30 -8.95
Si -2.08 10.41  0.79
Si  3.98  8.09 -5.70
Si -6.99 -6.94 -4.09
Si  2.06 -10.43 -0.82
Si -4.00 -8.11  5.67
Si  7.05  6.95  4.03
Si -9.07  1.15 -5.67
Si -9.06  5.77 -0.80
Si -0.01 -2.31 10.53
Si  6.12 -0.02  8.89
Si -6.07  0.01 -8.93
Si  9.11 -1.21  5.68
Si  0.07  2.31 -10.57
Si -2.57 -0.03 10.51
Si  9.09 -5.82  0.82
Si -9.47  4.68  2.40
Si  5.57 -5.86  7.28
Si 10.35 -2.37 -2.40
Si  1.69 -2.30 -10.51
Si -5.59  5.84 -7.30
Si  2.64  0.03 -10.58
Si  9.54 -4.67 -2.46
Si -7.29  5.80 -5.67
Si  1.77  2.33 10.53
Si -10.84  1.12 -0.80
Si -3.16 -10.44  0.82
Si  4.34 -4.67  8.89
Si  4.68 -8.11 -5.66
Si -0.51 -8.13 -7.31
Si -4.28  4.66 -8.93
Si  0.52  8.16  7.29
Si  3.14 10.46 -0.81
Si  9.61  4.68 -2.42
Si -1.76  2.28 10.57
Si -1.22  8.09 -7.29
Si -1.72 -2.35 -10.57
Si -10.42  2.35  2.47
Si 10.42  2.35  2.47
Si  7.33 -5.86  5.68
Si  7.41  3.49 -7.29
Si 10.88 -1.17  0.82
Si -4.21  9.28 -4.08
Si -4.70  8.14  5.68
Si -4.44 -4.69 -8.89
Si -7.43 -3.46  7.31
Si  4.26 -9.29  4.04
Si -9.66 -4.63  2.47
Si  4.37  4.68  8.95
Si  1.25 -8.15  7.30
Si -10.49 -2.37 -2.40
Si  4.45  9.31  4.04
Si -4.40 -9.32 -4.08
Si  8.25  1.19  7.31
Si -8.27 -1.16 -7.29
Si  7.50  8.13  0.82
Si -7.46 -8.18 -0.80
Si  3.79 -10.44  0.82
Si -2.27 -8.11  7.31
Si  2.25  8.14 -7.29
Si -3.81 10.46 -0.81
Si -0.04 -6.94  8.89
Si -2.97  8.09  7.28
Si -5.95  9.28 -2.46
Si  2.95 -8.11 -7.30
Si  9.14  3.44 -5.70
Si  6.02 -9.27  2.40
Si -3.47  2.35 -10.51
Si  3.48  2.35 -10.51
Si -9.16 -3.46  5.67
Si  9.46 -4.69  4.09
Si  8.57 -7.02 -2.40
Si  0.11  6.95 -8.95
Si -9.53  4.68 -4.02
Si  3.40 -2.37 10.57
Si  4.38 -0.03 10.51
Si -10.37  2.36 -4.09
Si -8.64  7.00  2.47
Si -9.56 -4.67 -4.08
Si -3.54 -2.37 10.57
Si -10.41 -2.35  4.03
Si -4.31  0.03 -10.58
Si  9.61  4.66  4.04
Si 10.43 -2.35  4.03
Si -6.57 -5.86 -7.29
Si  5.73  8.09  5.68
Si  6.61  5.80  7.30
Si -6.14 -9.32 -2.46
Si -1.63  7.01  8.89
Si -1.80 -6.95 -8.90
Si -8.75 -6.96 -2.45
Si -5.70 -8.15 -5.67
Si -10.90 -3.47  0.80
Si  6.21  9.33  2.40
Si  8.80  6.96  2.41
Si 10.90  3.49 -0.82
Si  1.70 -7.00 -8.95
Si 10.48  2.36 -4.09
Si  1.75  6.99  8.96
Si -11.26  0.03  2.40
Si -0.79  4.62 10.51
Si  6.93 -2.30 -8.90
Si  4.87 10.41  0.79
Si  0.86  4.67 -10.50
Si -8.22  3.51  7.29
Si -6.96 -2.30 -8.90
Si  8.22 -3.48 -7.31
Si  8.16 -8.12  0.80
Si -4.89 -10.43 -0.82
Si  6.91  2.34  8.96
Si -8.16  8.14 -0.82
