500
set: 340.00  0.00  0.00
Si  0.06 -0.03  0.01
Si -0.03  0.11 -2.26
Si -1.86  1.11  0.67
Si  0.01 -2.17  0.84
Si  1.97  1.02  0.80
Si -1.84 -1.08 -3.01
Si  1.92  3.18  0.04
Si  1.88 -3.22 -0.06
Si -3.73 -0.09 -0.00
Si -0.03 -2.06  3.12
Si -1.97  1.13  2.97
Si  1.79 -1.03 -3.16
Si -0.03  2.27 -3.01
Si  3.78 -0.09 -0.00
Si -1.87  3.28 -0.06
Si -1.84 -3.32  0.04
Si  1.91  1.09  3.12
Si -0.03  2.12  3.79
Si  1.81 -3.19 -2.34
Si  0.01  4.29  0.78
Si -1.95 -1.02  3.79
Si  1.87  3.25 -2.27
Si -1.89 -3.25 -2.27
Si  3.72 -0.05 -2.34
Si -3.74 -2.21  0.78
Si  1.87 -1.08  3.86
Si  3.77 -2.21  0.78
Si -3.79 -0.05 -2.34
Si -1.95  3.31 -2.34
Si -0.04  4.29  3.06
Si  3.72  2.13 -3.08
Si  3.72 -2.21  3.06
Si -3.79  2.13 -3.08
Si -3.79 -2.21  3.06
Si -0.04 -4.38 -3.08
Si -5.54  1.02  0.80
Si  0.01  2.16 -5.29
Si -0.03 -4.22  3.87
Si -1.78 -1.15 -5.33
Si  1.89 -5.39  0.67
Si -3.74  4.33  0.84
Si  5.65  1.11  0.67
Si  3.77  4.33  0.84
Si -1.78 -5.48  0.80
Si  3.73  2.28  3.87
Si  1.89 -1.06 -5.46
Si -3.78  2.28  3.87
Si  3.72 -4.23 -3.01
Si  5.54  1.13  2.97
Si  1.79 -5.37  2.97
Si  0.02  6.41 -0.00
Si -3.79 -4.23 -3.01
Si -5.59  3.18  0.04
Si -1.84  1.01 -6.09
Si -1.87 -1.05  6.08
Si  0.02  2.07  6.13
Si -5.62 -3.22 -0.06
Si  1.91  5.42 -3.01
Si -5.59  1.09  3.12
Si  5.67 -1.08 -3.01
Si -1.84 -5.41  3.12
Si  5.64  3.28 -0.06
Si  0.02 -2.26 -6.14
Si  1.88  1.11 -6.19
Si  1.92 -1.16  6.17
Si  5.67 -3.32  0.04
Si  3.72  4.44  3.12
Si  0.02 -6.60 -0.00
Si -1.97  5.47 -3.16
Si -5.72 -1.03 -3.16
Si -3.79  4.44  3.12
Si  5.56 -1.02  3.79
Si -0.03  6.45 -2.34
Si -3.74  2.12 -5.35
Si  5.62 -3.25 -2.27
Si  5.56  3.31 -2.34
Si  3.77  2.12 -5.35
Si  3.72 -4.39  3.79
Si -5.64  3.25 -2.27
Si  1.81  5.48  3.79
Si  0.01 -0.04  6.91
Si  0.01 -4.38 -5.35
Si -1.89  5.42  3.86
Si -5.64 -1.08  3.86
Si -3.79 -4.39  3.79
Si -5.70 -3.19 -2.34
Si -0.03 -6.55 -2.34
Si -7.45 -0.03  0.01
Si -3.70  6.48  0.01
Si -3.70  2.14  6.14
Si -3.70 -2.19 -6.12
Si  0.06  4.31 -6.12
Si -3.70 -6.53  0.01
Si  3.81  6.48  0.01
Si  0.06 -4.36  6.14
Si  3.81  2.14  6.14
Si  3.81 -2.19 -6.12
Si  3.81 -6.53  0.01
Si  7.56 -0.03  0.01
Si  3.73 -6.39 -2.26
Si -1.86 -3.23  6.80
Si -3.78 -6.39 -2.26
Si -1.78  7.53  0.80
Si  1.89  3.28  6.80
Si -3.74 -4.34 -5.29
Si  1.97  5.36 -5.33
Si  3.77 -4.34 -5.29
Si -5.62 -5.39  0.67
Si  7.48  0.11 -2.26
Si -1.78  3.19  6.93
Si -7.50 -2.17  0.84
Si -7.54  0.11 -2.26
Si  7.52 -2.17  0.84
Si  1.89  7.61  0.67
Si -5.62 -1.06 -5.46
Si -3.74 -0.01  6.97
Si  5.73 -1.15 -5.33
Si  3.77 -0.01  6.97
Si  3.73  6.62 -2.26
Si  1.97 -3.31  6.93
Si -1.86  5.44 -5.46
Si -3.78  6.62 -2.26
Si  5.73 -5.48  0.80
Si -3.73  4.24 -6.14
Si -5.59  5.42 -3.01
Si  5.64 -1.05  6.08
Si  7.48 -2.06  3.12
Si  3.78  4.24 -6.14
Si -1.84  5.35  6.17
Si  7.48  2.27 -3.01
Si  1.88  5.45  6.08
Si  1.91 -7.58 -3.01
Si  5.67  1.01 -6.09
Si  1.79  7.64  2.97
Si -5.72 -5.37  2.97
Si  5.54  5.47 -3.16
Si -1.97 -7.54 -3.16
Si -5.59 -1.16  6.17
Si -1.84  7.59  3.12
Si -1.87 -5.39 -6.19
Si -7.54 -2.06  3.12
Si  1.92 -5.49 -6.09
Si -3.73 -4.43  6.13
Si -7.54  2.27 -3.01
Si -5.62  1.11 -6.19
Si  5.67 -5.41  3.12
Si  3.78 -4.43  6.13
Si  1.81 -7.53  3.79
Si  7.48  2.12  3.79
Si -7.50  4.29  0.78
Si -1.89  1.09 -8.40
Si  7.52  4.29  0.78
Si -7.54  2.12  3.79
Si  5.62  5.42  3.86
Si -1.89 -7.58  3.86
Si  1.81  1.15 -8.47
Si  0.01 -8.71  0.78
Si -0.03 -2.22 -8.47
Si -5.70  5.48  3.79
Si  7.47  4.29  3.06
Si -0.04  8.63 -3.08
Si -0.04 -0.04  9.19
Si  7.47 -4.38 -3.08
Si -7.54  4.29  3.06
Si -0.04 -0.04 -9.21
Si -0.04 -8.71  3.06
Si -7.54 -4.38 -3.08
Si -5.54  5.36 -5.33
Si  3.73 -2.05 -8.39
Si -5.62  3.28  6.80
Si  5.65 -3.23  6.80
Si  7.48 -4.22  3.87
Si -3.78 -2.05 -8.39
Si -7.50  2.16 -5.29
Si  7.52  2.16 -5.29
Si -9.37  1.11  0.67
Si -7.54 -4.22  3.87
Si -5.54 -3.31  6.93
Si -5.62  7.61  0.67
Si -3.74 -8.68  0.84
Si  5.73  7.53  0.80
Si  3.77 -8.68  0.84
Si -0.03  4.45 -8.39
Si -1.86 -7.56 -5.46
Si  0.01  6.50  6.97
Si  1.97 -7.65 -5.33
Si  0.01 -6.51  6.97
Si  5.73  3.19  6.93
Si  5.65  5.44 -5.46
Si  9.48  1.02  0.80
Si -0.03  8.79  3.87
Si  3.72 -8.57  3.12
Si  1.79  3.30  9.11
Si -1.97 -3.20  9.11
Si -1.84  9.68  0.04
Si -7.49  6.41 -0.00
Si  1.92  7.52 -6.09
Si -3.79 -8.57  3.12
Si  9.30 -1.03 -3.16
Si  3.72  0.10 -9.14
Si  5.54 -7.54 -3.16
Si -1.84  3.26 -9.14
Si  1.88 -7.56  6.08
Si -9.35 -1.08 -3.01
Si  1.91 -3.25 -9.14
Si  7.53  6.41 -0.00
Si -5.59 -7.58 -3.01
Si -7.49  2.07  6.13
Si -3.79  0.10 -9.14
Si -1.87 -9.72 -0.06
Si -5.63  5.45  6.08
Si -9.35 -3.32  0.04
Si -5.59 -5.49 -6.09
Si  7.53  2.07  6.13
Si  9.39 -3.22 -0.06
Si -9.38  3.28 -0.06
Si -7.49 -2.26 -6.14
Si  5.67  5.35  6.17
Si  9.43  3.18  0.04
Si  5.64 -5.39 -6.19
Si  1.88  9.79 -0.06
Si  3.72  0.10  9.25
Si  7.53 -2.26 -6.14
Si  5.67  7.59  3.12
Si -7.49 -6.60 -0.00
Si -1.84  3.26  9.26
Si  9.42  1.09  3.12
Si -1.87  7.62 -6.19
Si  1.91 -3.25  9.26
Si -5.72  7.64  2.97
Si -3.79  0.10  9.25
Si -9.47  1.13  2.97
Si  3.72  8.78 -3.01
Si -1.84 -7.66  6.17
Si  1.92 -9.83  0.04
Si  7.53 -6.60 -0.00
Si  1.79  3.30 -9.29
Si -1.97 -3.20 -9.29
Si -3.79  8.78 -3.01
Si  9.32 -3.19 -2.34
Si  3.72  8.62  3.79
Si -3.79  8.62  3.79
Si  7.48  6.45 -2.34
Si  1.81  1.15  9.92
Si  0.01  8.63 -5.35
Si -1.95 -9.69 -2.34
Si -0.03 -2.22  9.92
Si  5.62  1.09 -8.40
Si  1.87 -5.42 -8.40
Si -3.74  6.46  6.91
Si -5.70 -7.53  3.79
Si  9.38  3.25 -2.27
Si  3.77  6.46  6.91
Si  1.87 -9.75 -2.27
Si -7.50 -0.04  6.91
Si  9.38 -1.08  3.86
Si -1.89  9.76 -2.27
Si -7.54  6.45 -2.34
Si  5.62 -7.58  3.86
Si -7.50 -4.38 -5.35
Si  3.72  4.28 -8.47
Si -9.40 -3.25 -2.27
Si -1.95 -5.36 -8.47
Si  7.52 -0.04  6.91
Si  7.48 -6.55 -2.34
Si  7.52 -4.38 -5.35
Si -3.79  4.28 -8.47
Si -1.89  1.09  9.99
Si -3.74 -6.55  6.91
Si  3.77 -6.55  6.91
Si -9.46 -1.02  3.79
Si  1.81  9.81 -2.34
Si -7.54 -6.55 -2.34
Si -5.70  1.15 -8.47
Si -9.46  3.31 -2.34
Si -7.45  4.31 -6.12
Si -7.45 -4.36  6.14
Si  0.06  8.65  6.14
Si  0.06 -8.70 -6.12
Si  7.56  4.31 -6.12
Si  7.56 -4.36  6.14
Si -9.29 -1.15 -5.33
Si -9.29 -5.48  0.80
Si -3.74  8.66 -5.29
Si  3.77  8.66 -5.29
Si -5.54 -7.65 -5.33
Si  9.40 -5.39  0.67
Si  0.01 10.83  0.84
Si  3.73 -2.05 10.01
Si -3.78 -2.05 10.01
Si  5.65 -7.56 -5.46
Si  9.40 -1.06 -5.46
Si -0.03  4.45 10.01
Si  5.54 -3.20  9.11
Si  9.30 -5.37  2.97
Si -0.03 -10.73 -3.01
Si -0.03 -6.40 -9.14
Si -5.59  7.52 -6.09
Si -3.73  8.58  6.13
Si -5.59 -3.25 -9.14
Si  3.78  8.58  6.13
Si -9.35  1.01 -6.09
Si -5.62 -7.56  6.08
Si  5.67  9.68  0.04
Si -9.38 -1.05  6.08
Si  5.67  3.26 -9.14
Si  5.64 -9.72 -0.06
Si -11.24 -0.09 -0.00
Si -9.35 -5.41  3.12
Si -0.03 -6.40  9.25
Si -5.72  3.30  9.11
Si  5.54 -3.20 -9.29
Si  9.42  5.42 -3.01
Si -0.03  6.61 -9.14
Si 11.29 -0.09 -0.00
Si -5.63  9.79 -0.06
Si -5.59 -3.25  9.26
Si  9.39  1.11 -6.19
Si -5.59 -9.83  0.04
Si  5.64  7.62 -6.19
Si  9.43 -1.16  6.17
Si -3.73 -8.76 -6.14
Si  5.67  3.26  9.26
Si  3.78 -8.76 -6.14
Si  5.67 -7.66  6.17
Si -0.03  6.61  9.25
Si -0.03 10.94  3.12
Si -9.47  5.47 -3.16
Si -5.72  3.30 -9.29
Si  5.56 -9.69 -2.34
Si  3.72  4.28  9.92
Si -1.95 -5.36  9.92
Si -3.79  4.28  9.92
Si -3.74 10.80  0.78
Si  9.31  5.48  3.79
Si  3.77 10.80  0.78
Si  5.56 -5.36 -8.47
Si 11.23 -0.05 -2.34
Si  1.87  7.59 -8.40
Si -5.64 -5.42 -8.40
Si  0.01 -0.04 -11.48
Si  5.62  9.76 -2.27
Si -11.25 -2.21  0.78
Si -5.64 -9.75 -2.27
Si -5.70  1.15  9.92
Si  5.62  1.09  9.99
Si  1.87 -5.42  9.99
Si -9.40  5.42  3.86
Si  7.48 -2.22 -8.47
Si 11.28 -2.21  0.78
Si -7.50 -8.71  0.78
Si -0.03 -10.89  3.79
Si -11.30 -0.05 -2.34
Si  7.52 -8.71  0.78
Si -7.54 -2.22 -8.47
Si -1.95  7.65 -8.47
Si -5.70  9.81 -2.34
Si  3.72 10.80  3.06
Si  7.47  8.63 -3.08
Si  3.72  6.46  9.19
Si 11.23  2.13 -3.08
Si  7.47 -0.04  9.19
Si -3.79 10.80  3.06
Si 11.23 -2.21  3.06
Si  3.72  6.46 -9.21
Si -3.79  6.46  9.19
Si  7.47 -0.04 -9.21
Si -7.54  8.63 -3.08
Si -3.79  6.46 -9.21
Si  3.72 -6.54  9.19
Si  7.47 -8.71  3.06
Si -7.54 -0.04  9.19
Si  3.72 -6.54 -9.21
Si -3.79 -6.54  9.19
Si  3.72 -10.88 -3.08
Si -11.30  2.13 -3.08
Si -7.54 -0.04 -9.21
Si -11.30 -2.21  3.06
Si -3.79 -6.54 -9.21
Si -7.54 -8.71  3.06
Si -3.79 -10.88 -3.08
Si -9.29  7.53  0.80
Si -0.03 -8.56 -8.39
Si  3.73 -10.72  3.87
Si -3.78 -10.72  3.87
Si -9.29  3.19  6.93
Si -9.37 -3.23  6.80
Si  1.89 -9.73  6.80
Si -3.74 -0.01 -11.43
Si  3.77 -0.01 -11.43
Si -1.78  3.19 -11.46
Si -1.86  9.78  6.80
Si  9.40  3.28  6.80
Si -1.86 -11.90  0.67
Si  0.01 -10.85 -5.29
Si  1.97  9.69  6.93
Si -11.25  4.33  0.84
Si  7.48  4.45 -8.39
Si  1.97 -3.31 -11.46
Si 11.24  2.28  3.87
Si 11.27  4.33  0.84
Si  9.40  7.61  0.67
Si -7.54  4.45 -8.39
Si -7.50  6.50  6.97
Si  9.48  5.36 -5.33
Si -7.50 -6.51  6.97
Si -9.37  5.44 -5.46
Si  7.52  6.50  6.97
Si  7.52 -6.51  6.97
Si -1.78 -9.82  6.93
Si -11.29  2.28  3.87
Si  7.48  8.79  3.87
Si  1.97 -11.98  0.80
Si -1.86 -3.23 -11.59
Si  1.89  3.28 -11.59
Si  9.48 -3.31  6.93
Si -7.54  8.79  3.87
Si  0.02 10.74 -6.14
Si 11.23 -4.23 -3.01
Si  9.30  7.64  2.97
Si -1.97 -11.87  2.97
Si  1.88  1.11 12.21
Si -9.35  5.35  6.17
Si  1.92 -1.16 -12.22
Si -11.30 -4.23 -3.01
Si -1.84 11.93 -3.01
Si  0.02  2.07 -12.27
Si -9.35  7.59  3.12
Si  9.39  5.45  6.08
Si -9.38 -5.39 -6.19
Si  9.42 -7.58 -3.01
Si  0.02 -2.26 12.26
Si  1.91 -11.92  3.12
Si 11.23  4.44  3.12
Si -1.84  1.01 12.30
Si  9.43 -5.49 -6.09
Si -1.87 -1.05 -12.32
Si  1.79 11.97 -3.16
Si -9.47 -7.54 -3.16
Si -11.30  4.44  3.12
Si  0.02 -10.93  6.13
Si  9.32 -7.53  3.79
Si  5.56 -5.36  9.92
Si  7.48 -2.22  9.92
Si -7.50  8.63 -5.35
Si  7.52  8.63 -5.35
Si -11.25  2.12 -5.35
Si 11.23 -4.39  3.79
Si  9.32  1.15 -8.47
Si -5.64  7.59 -8.40
Si -9.40  1.09 -8.40
Si -7.54 -2.22  9.92
Si 11.28  2.12 -5.35
Si  1.87 11.93  3.86
Si -9.40 -7.58  3.86
Si -1.95  7.65  9.92
Si  1.87  7.59  9.99
Si -5.64 -5.42  9.99
Si -3.74 -10.88 -5.35
Si  5.56  7.65 -8.47
Si -11.30 -4.39  3.79
Si  3.77 -10.88 -5.35
Si  3.72 -8.72 -8.47
Si -1.95 11.98  3.79
Si -3.79 -8.72 -8.47
Si -11.21  6.48  0.01
Si -11.21  2.14  6.14
Si -11.21 -2.19 -6.12
Si -7.46  8.65  6.14
Si -3.70 10.81 -6.12
Si -11.21 -6.53  0.01
Si -3.70  2.14 -12.25
Si  0.06 12.98  0.01
Si -7.45 -8.70 -6.12
Si  3.81 10.81 -6.12
Si -3.70 -2.19 12.27
Si  0.06  4.31 12.27
Si  0.06 -4.36 -12.25
Si  3.81  2.14 -12.25
Si -3.70 -10.86  6.14
Si  7.56  8.65  6.14
Si  0.06 -13.03  0.01
Si  3.81 -2.19 12.27
Si 11.32  6.48  0.01
Si  3.81 -10.86  6.14
Si  7.56 -8.70 -6.12
Si 11.32  2.14  6.14
Si 11.32 -2.19 -6.12
Si 11.32 -6.53  0.01
Si -0.03 -12.89 -2.26
Si -13.04  1.02  0.80
Si  1.89 -1.06 12.94
Si 11.24 -6.39 -2.26
Si -1.78 11.86 -5.33
Si -5.62 -9.73  6.80
Si -5.54  9.69  6.93
Si  0.01  6.50 -11.43
Si  0.01 -6.51 -11.43
Si -5.54 -3.31 -11.46
Si -0.03 -8.56 10.01
