500
set: 524.00  0.00  0.00
Si  0.00  0.00  0.00
Si  0.02 -0.01 -2.28
Si  1.88  1.08  0.77
Si -1.94  1.08  0.77
Si  0.17 -2.29  0.77
Si -1.86 -1.09 -3.04
Si  1.86  1.09  3.04
Si  1.96 -1.09 -3.04
Si -1.96  1.09  3.04
Si  1.71  3.38  0.00
Si -1.71 -3.38  0.00
Si -0.14  2.29 -3.04
Si  0.14 -2.29  3.04
Si  3.81  0.00  0.00
Si -3.81  0.00  0.00
Si -2.10  3.38  0.00
Si  2.10 -3.38  0.00
Si -3.65 -2.29  0.77
Si -1.79 -1.20  3.81
Si -0.08  2.17  3.81
Si -1.69 -3.38 -2.28
Si  1.73  3.37 -2.28
Si -3.79 -0.01 -2.28
Si  3.83 -0.01 -2.28
Si  2.02 -1.20  3.81
Si -0.23  4.46  0.77
Si -2.08  3.37 -2.28
Si  2.12 -3.38 -2.28
Si  3.98 -2.29  0.77
Si -3.67 -2.29  3.04
Si  3.67  2.29 -3.04
Si  0.24 -4.46 -3.04
Si -0.24  4.46  3.04
Si -3.96  2.29 -3.04
Si  3.96 -2.29  3.04
Si -1.84 -1.09 -5.32
Si  3.73  2.17  3.81
Si  3.59  4.46  0.77
Si  1.98 -1.09 -5.32
Si -0.12  2.28 -5.32
Si  5.69  1.08  0.77
Si -3.89  2.17  3.81
Si -5.75  1.08  0.77
Si -1.55 -5.67  0.77
Si  0.31 -4.58  3.81
Si -4.04  4.46  0.77
Si  2.27 -5.67  0.77
Si -1.81 -1.20  6.09
Si  1.81  1.20 -6.09
Si -0.10  2.18  6.09
Si  0.10 -2.18 -6.09
Si  5.53  3.38  0.00
Si -5.53 -3.38  0.00
Si -3.57 -4.46 -3.04
Si  3.57  4.46  3.04
Si  2.00 -1.20  6.09
Si -2.00  1.20 -6.09
Si  5.67  1.09  3.04
Si -5.67 -1.09 -3.04
Si  5.77 -1.09 -3.04
Si -5.77  1.09  3.04
Si  1.57  5.66 -3.04
Si -1.57 -5.66  3.04
Si  4.06 -4.46 -3.04
Si -4.06  4.46  3.04
Si -0.39  6.75  0.00
Si  0.39 -6.75  0.00
Si  2.25 -5.66  3.04
Si -2.25  5.66 -3.04
Si  5.92 -3.38  0.00
Si -5.92  3.38  0.00
Si -5.51 -3.38 -2.28
Si  0.07 -0.11  6.86
Si  3.69  2.28 -5.32
Si  5.55  3.37 -2.28
Si -5.61 -1.20  3.81
Si -3.50 -4.58  3.81
Si  1.63  5.55  3.81
Si  0.27 -4.47 -5.32
Si -3.94  2.28 -5.32
Si  5.84 -1.20  3.81
Si -2.18  5.55  3.81
Si -0.37  6.75 -2.28
Si  0.41 -6.76 -2.28
Si -5.90  3.37 -2.28
Si  5.94 -3.38 -2.28
Si  4.12 -4.58  3.81
Si  3.71  2.18  6.09
Si -3.71 -2.18 -6.09
Si  3.91 -2.18 -6.09
Si -3.91  2.18  6.09
Si  3.42  6.75  0.00
Si -3.42 -6.75  0.00
Si -0.29  4.57 -6.09
Si  0.29 -4.57  6.09
Si -7.63  0.00  0.00
Si  7.63  0.00  0.00
Si  1.78  3.26  6.86
Si -3.55 -4.47 -5.32
Si -3.75 -0.11  6.86
Si -5.36 -5.67  0.77
Si -5.65 -1.09 -5.32
Si -7.46 -2.29  0.77
Si -2.04  3.26  6.86
Si -1.65 -3.49  6.86
Si  3.88 -0.11  6.86
Si -3.40 -6.76 -2.28
Si  3.44  6.75 -2.28
Si  1.59  5.66 -5.32
Si -7.61 -0.01 -2.28
Si  5.79 -1.09 -5.32
Si  4.21 -6.75  0.00
Si -4.21  6.75  0.00
Si  7.65 -0.01 -2.28
Si  2.17 -3.49  6.86
Si  1.49  7.83  0.77
Si  4.08 -4.47 -5.32
Si -2.23  5.66 -5.32
Si  7.79 -2.29  0.77
Si -2.33  7.83  0.77
Si -4.18  6.75 -2.28
Si  4.22 -6.76 -2.28
Si  6.08 -5.67  0.77
Si  5.63  1.20 -6.09
Si -5.63 -1.20  6.09
Si -5.38 -5.66  3.04
Si  5.38  5.66 -3.04
Si  3.52  4.57 -6.09
Si -3.52 -4.57  6.09
Si  7.48  2.29 -3.04
Si -7.48 -2.29  3.04
Si  1.61  5.55  6.09
Si -1.61 -5.55 -6.09
Si  5.82 -1.20  6.09
Si -5.82  1.20 -6.09
Si  2.20 -5.55 -6.09
Si -2.20  5.55  6.09
Si -1.47 -7.84 -3.04
Si  1.47  7.84  3.04
Si  1.83  1.19 -8.37
Si  0.12 -2.18 -8.37
Si -4.11  4.57 -6.09
Si  4.11 -4.57  6.09
Si  7.77 -2.29  3.04
Si -7.77  2.29 -3.04
Si  5.45  5.55  3.81
Si  7.40  4.46  0.77
Si -1.98  1.19 -8.37
Si  7.55  2.17  3.81
Si  2.35 -7.84 -3.04
Si -2.35  7.84  3.04
Si  6.06 -5.66  3.04
Si -6.06  5.66 -3.04
Si -7.71  2.17  3.81
Si -1.40 -7.95  3.81
Si -6.00  5.55  3.81
Si -7.85  4.46  0.77
Si  0.56 -9.04  0.77
Si  0.05 -0.11  9.14
Si -0.05  0.11 -9.14
Si  2.41 -7.95  3.81
Si  7.38  4.46  3.04
Si -7.38 -4.46 -3.04
Si -3.69 -2.18 -8.37
Si  5.59  3.26  6.86
Si -5.46 -3.49  6.86
Si -7.32 -4.58  3.81
Si  5.40  5.66 -5.32
Si  7.50  2.28 -5.32
Si  5.30  7.83  0.77
Si  3.93 -2.18 -8.37
Si -0.27  4.57 -8.37
Si -0.33  6.64  6.86
Si  7.87 -4.46 -3.04
Si -7.87  4.46  3.04
Si  0.54 -9.04  3.04
Si -0.54  9.04 -3.04
Si -5.85  3.26  6.86
Si -1.45 -7.84 -5.32
Si  9.51  1.08  0.77
Si -3.26 -9.04  0.77
Si -9.56  1.08  0.77
Si -7.75  2.28 -5.32
Si  0.46 -6.86  6.86
Si -0.47  8.92  3.81
Si  5.98 -3.49  6.86
Si  2.37 -7.84 -5.32
Si -6.04  5.66 -5.32
Si -1.76 -3.27 -9.14
Si  1.76  3.27  9.14
Si  5.43  5.55  6.09
Si -5.43 -5.55 -6.09
Si  3.77  0.11 -9.14
Si -3.77 -0.11  9.14
Si -7.24 -6.75  0.00
Si  7.24  6.75  0.00
Si  1.67  3.48 -9.14
Si -1.67 -3.48  9.14
Si  2.06 -3.27 -9.14
Si -2.06  3.27  9.14
Si -3.86  0.11 -9.14
Si  3.86 -0.11  9.14
Si  7.94 -4.58  3.81
Si -7.53 -2.18 -6.09
Si  7.53  2.18  6.09
Si  5.28  7.84  3.04
Si -5.28 -7.84 -3.04
Si  9.34  3.38  0.00
Si -9.34 -3.38  0.00
Si -6.14  7.83  0.77
Si -2.15  3.48 -9.14
Si  2.15 -3.48  9.14
Si -9.48 -1.09 -3.04
Si  9.48  1.09  3.04
Si  4.37 -9.04  0.77
Si  7.73 -2.18 -6.09
Si -7.73  2.18  6.09
Si -3.28 -9.04  3.04
Si  3.28  9.04 -3.04
Si  1.42  7.95 -6.09
Si -1.42 -7.95  6.09
Si  9.59 -1.09 -3.04
Si -9.59  1.09  3.04
Si -7.36 -4.47 -5.32
Si -1.89  0.98  9.90
Si  1.92  0.98  9.90
Si -7.22 -6.76 -2.28
Si  3.49  6.64  6.86
Si  5.65  1.19 -8.37
Si  7.26  6.75 -2.28
Si  3.54  4.57 -8.37
Si -9.32 -3.38 -2.28
Si -1.59 -5.56 -8.37
Si  0.21 -2.40  9.90
Si -6.02  5.55  6.09
Si  6.02 -5.55 -6.09
Si  9.36  3.37 -2.28
Si -7.56 -0.11  6.86
Si  1.32 10.13  0.00
Si -1.32 -10.13  0.00
Si -9.42 -1.20  3.81
Si -5.21 -7.95  3.81
Si -5.80  1.19 -8.37
Si  3.34  8.92  3.81
Si -3.36 -6.86  6.86
Si  2.22 -5.56 -8.37
Si -2.39  7.95 -6.09
Si  2.39 -7.95  6.09
Si  9.73 -3.38  0.00
Si -9.73  3.38  0.00
Si  7.69 -0.11  6.86
Si -4.08  4.57 -8.37
Si -4.14  6.64  6.86
Si  6.16 -7.84 -3.04
Si -6.16  7.84  3.04
Si  2.49 -10.13  0.00
Si -2.49 10.13  0.00
Si  9.65 -1.20  3.81
Si  1.34 10.12 -2.28
Si -1.30 -10.13 -2.28
Si  4.35 -9.04  3.04
Si -4.35  9.04 -3.04
Si -8.02  6.75  0.00
Si  8.02 -6.75  0.00
Si -0.52  9.03 -5.32
Si  7.89 -4.47 -5.32
Si -9.71  3.37 -2.28
Si  9.75 -3.38 -2.28
Si -7.34 -4.57  6.09
Si  7.34  4.57 -6.09
Si  4.27 -6.86  6.86
Si -4.29  8.92  3.81
Si -2.47 10.12 -2.28
Si  2.51 -10.13 -2.28
Si -8.00  6.75 -2.28
Si  8.04 -6.76 -2.28
Si  6.23 -7.95  3.81
Si -3.60 -2.40  9.90
Si -9.18 -5.67  0.77
Si -0.18  4.35  9.90
Si  0.49 -8.93 -6.09
Si -0.49  8.93  6.09
Si -5.26 -7.84 -5.32
Si -9.46 -1.09 -5.32
Si  4.03 -2.40  9.90
Si  7.92 -4.57  6.09
Si -7.92  4.57 -6.09
Si  3.30  9.03 -5.32
Si  9.61 -1.09 -5.32
Si -5.57 -3.27 -9.14
Si  5.57  3.27  9.14
Si -5.48 -3.48  9.14
Si  5.48  3.48 -9.14
Si -9.20 -5.66  3.04
Si  9.20  5.66 -3.04
Si -0.62 11.21  0.77
Si -9.44 -1.20  6.09
Si  9.44  1.20 -6.09
Si -5.24 -7.95  6.09
Si  5.24  7.95 -6.09
Si  0.34 -6.64 -9.14
Si -0.34  6.64  9.14
Si  3.32  8.93  6.09
Si -3.32 -8.93 -6.09
Si  6.18 -7.84 -5.32
Si  5.87 -3.27 -9.14
Si -5.87  3.27  9.14
Si -4.33  9.03 -5.32
Si  5.13 10.13  0.00
Si -5.13 -10.13  0.00
Si -5.41 -5.56 -8.37
Si  3.63  4.35  9.90
Si -0.03  0.10 -11.41
Si  9.90 -5.67  0.77
Si -0.44  6.86 -9.14
Si  0.44 -6.86  9.14
Si -11.44  0.00  0.00
Si 11.44  0.00  0.00
Si  9.26  5.55  3.81
Si -5.96  3.48 -9.14
Si  5.96 -3.48  9.14
Si -7.51 -2.18 -8.37
Si -9.63  1.20 -6.09
Si  9.63 -1.20  6.09
Si -5.71  0.98  9.90
Si  5.74  0.98  9.90
Si -7.07 -9.04  0.77
Si -3.99  4.35  9.90
Si -11.28 -2.29  0.77
Si -1.50 -5.77  9.90
Si -5.12 -10.13 -2.28
Si  5.16 10.12 -2.28
Si  7.75 -2.18 -8.37
Si  1.44  7.94 -8.37
Si -4.30  8.93  6.09
Si  4.30 -8.93 -6.09
Si  0.64 -11.21 -3.04
Si -0.64 11.21  3.04
Si -11.42 -0.01 -2.28
Si  3.20 11.21  0.77
Si 11.46 -0.01 -2.28
Si  2.31 -5.77  9.90
Si  6.04 -5.56 -8.37
Si -2.37  7.94 -8.37
Si  6.21 -7.95  6.09
Si -6.21  7.95 -6.09
Si -9.88  5.66 -3.04
Si  9.88 -5.66  3.04
Si  3.47  6.64  9.14
Si -3.47 -6.64 -9.14
Si 11.61 -2.29  0.77
Si -7.58 -0.11  9.14
Si  7.58  0.11 -9.14
Si  7.09  9.04 -3.04
Si -7.09 -9.04  3.04
Si -9.81  5.55  3.81
Si -3.38 -6.86  9.14
Si  3.38  6.86 -9.14
Si 11.30  2.29 -3.04
Si -11.30 -2.29  3.04
Si  6.31 -10.13  0.00
Si -6.31 10.13  0.00
Si  7.67 -0.11  9.14
Si -7.67  0.11 -9.14
Si  0.70 -11.33  3.81
Si -1.74 -3.27 -11.41
Si  7.30  6.64  6.86
Si  3.79  0.10 -11.41
Si -4.16  6.64  9.14
Si  4.16 -6.64 -9.14
Si  7.36  4.57 -8.37
Si  9.12  7.83  0.77
Si -3.84  0.10 -11.41
Si -3.18 -11.21 -3.04
Si  3.18 11.21  3.04
Si -9.27 -3.49  6.86
Si  1.69  3.48 -11.41
Si  9.21  5.66 -5.32
Si  2.08 -3.27 -11.41
Si  7.16  8.92  3.81
Si -7.17 -6.86  6.86
Si -4.43 11.21  0.77
Si  9.41  3.26  6.86
Si 11.22  4.46  0.77
Si -2.13  3.48 -11.41
Si -6.29 10.12 -2.28
Si  6.33 -10.13 -2.28
Si 11.36  2.17  3.81
Si  4.25 -6.86  9.14
Si -4.25  6.86 -9.14
Si 11.59 -2.29  3.04
Si -11.59  2.29 -3.04
Si  1.39 10.01  6.86
Si  8.19 -9.04  0.77
Si  0.51 -8.93 -8.37
Si -9.66  3.26  6.86
Si -11.52  2.17  3.81
Si -3.11 -11.33  3.81
Si  1.90  0.98 12.18
Si -1.90 -0.98 -12.18
Si  1.91 -0.98 -12.18
Si -1.91  0.98 12.18
Si -2.43 10.01  6.86
Si -7.90  4.57 -8.37
Si  9.24  5.55  6.09
Si -9.24 -5.55 -6.09
Si -1.25 -10.24  6.86
Si  9.10  7.84  3.04
Si -9.10 -7.84 -3.04
Si  0.19 -2.39 12.18
Si -0.19  2.39 -12.18
Si -7.95  6.64  6.86
Si -11.20 -4.46 -3.04
Si 11.20  4.46  3.04
Si  0.66 -11.22 -5.32
Si  4.45 -11.21 -3.04
Si -4.45 11.21  3.04
Si  9.80 -3.49  6.86
Si -1.16 -12.42  0.77
Si -11.67  4.46  0.77
Si -9.86  5.66 -5.32
Si  8.16 -9.04  3.04
Si -8.16  9.04 -3.04
Si  2.56 -10.24  6.86
Si -7.42 -2.40  9.90
Si -9.03 -7.95  3.81
Si -11.13 -4.58  3.81
Si  8.09 -6.86  6.86
Si -5.32 -5.77  9.90
Si -8.10  8.92  3.81
Si  1.53  7.73  9.90
Si  7.11  9.03 -5.32
Si  5.25  7.94 -8.37
Si -3.30 -8.93 -8.37
Si  9.46  1.19 -8.37
Si -9.96  7.83  0.77
Si 11.32  2.28 -5.32
Si  2.66 -12.42  0.77
Si -2.28  7.73  9.90
Si  4.52 -11.33  3.81
Si -9.61  1.19 -8.37
Si -3.16 -11.22 -5.32
Si  9.83 -5.55 -6.09
Si -9.83  5.55  6.09
Si -1.18 -12.41  3.04
Si  1.18 12.41 -3.04
Si  7.84 -2.40  9.90
Si -0.68 11.32 -6.09
Si  0.68 -11.32  6.09
Si 11.69 -4.46 -3.04
Si -11.69  4.46  3.04
Si -3.62 -2.39 12.18
Si  3.62  2.39 -12.18
Si  1.24 12.30  3.81
Si -11.57  2.28 -5.32
Si -0.20  4.36 12.18
Si  0.20 -4.36 -12.18
Si 11.05  6.75  0.00
Si -11.05 -6.75  0.00
Si -7.14 -8.93 -6.09
Si  7.14  8.93  6.09
Si  4.33 -8.93 -8.37
Si  6.13 -5.77  9.90
Si -4.00  2.39 -12.18
Si  4.00 -2.39 12.18
Si  9.98 -7.84 -3.04
Si -9.98  7.84  3.04
Si  2.64 -12.41  3.04
Si -2.64 12.41 -3.04
Si 11.34  2.18  6.09
Si -11.34 -2.18 -6.09
Si -6.19  7.94 -8.37
Si -5.55 -3.27 -11.41
Si -0.03  2.06 12.95
Si -9.07 -7.84 -5.32
Si -1.75 -1.31 12.95
Si -2.57 12.30  3.81
Si  7.45  4.35  9.90
Si -11.03 -6.76 -2.28
Si  5.50  3.48 -11.41
Si -11.18 -4.47 -5.32
Si 11.07  6.75 -2.28
Si 11.75 -4.58  3.81
Si  2.07 -1.31 12.95
Si  4.47 -11.22 -5.32
Si  5.20 10.01  6.86
Si  0.36 -6.65 -11.41
Si 11.54 -2.18 -6.09
Si -11.54  2.18  6.09
Si  3.13 11.32 -6.09
Si -3.13 -11.32  6.09
Si  7.01 11.21  0.77
Si  5.89 -3.27 -11.41
Si -8.14  9.03 -5.32
Si -11.38 -0.11  6.86
Si -0.42  6.85 -11.41
Si -5.07 -10.24  6.86
Si -5.94  3.48 -11.41
Si -7.81  4.35  9.90
Si 10.04 -7.95  3.81
