500
set: 71.00  0.00  0.00
Si  0.00  0.00  0.00
Si -0.18  0.02 -2.23
Si  0.18 -0.02  2.23
Si -1.22 -2.19  0.00
Si  1.22  2.19  0.00
Si  1.48 -2.19  0.00
Si -1.48  2.19  0.00
Si -2.69  0.00  0.00
Si  2.69  0.00  0.00
Si -1.04 -2.21  2.23
Si  1.04  2.21 -2.23
Si -2.51 -0.02  2.23
Si  2.51  0.02 -2.23
Si  1.30 -2.17 -2.23
Si -1.30  2.17  2.23
Si -1.40 -2.17 -2.23
Si  1.40  2.17  2.23
Si -1.66  2.21 -2.23
Si  1.66 -2.21  2.23
Si -2.88  0.02 -2.23
Si  2.88 -0.02  2.23
Si -0.26  4.38  0.00
Si  0.26 -4.38  0.00
Si  0.36 -0.04  4.46
Si -0.36  0.04 -4.46
Si  3.91  2.19  0.00
Si -3.91 -2.19  0.00
Si  4.17 -2.19  0.00
Si -4.17  2.19  0.00
Si  3.73  2.21 -2.23
Si -3.73 -2.21  2.23
Si -0.08  4.36  2.23
Si  0.08 -4.36 -2.23
Si  0.44 -4.39  2.23
Si -0.44  4.39 -2.23
Si -2.44 -4.38  0.00
Si  2.44  4.38  0.00
Si -2.33 -0.04  4.46
Si  2.33  0.04 -4.46
Si -0.86 -2.22  4.46
Si  0.86  2.22 -4.46
Si  3.99 -2.17 -2.23
Si -3.99  2.17  2.23
Si  1.12 -2.15 -4.46
Si -1.12  2.15  4.46
Si -4.09 -2.17 -2.23
Si  4.09  2.17  2.23
Si -1.58 -2.15 -4.46
Si  1.58  2.15  4.46
Si -2.95  4.38  0.00
Si  2.95 -4.38  0.00
Si  1.84 -2.22  4.46
Si -1.84  2.22 -4.46
Si  4.35 -2.21  2.23
Si -4.35  2.21 -2.23
Si -5.39  0.00  0.00
Si  5.39  0.00  0.00
Si -3.06  0.04 -4.46
Si  3.06 -0.04  4.46
Si -2.25 -4.39  2.23
Si  2.25  4.39 -2.23
Si  2.62  4.36  2.23
Si -2.62 -4.36 -2.23
Si -2.77  4.36  2.23
Si  2.77 -4.36 -2.23
Si -5.21 -0.02  2.23
Si  5.21  0.02 -2.23
Si  3.13 -4.39  2.23
Si -3.13  4.39 -2.23
Si -5.57  0.02 -2.23
Si  5.57 -0.02  2.23
Si -3.55 -2.22  4.46
Si  3.55  2.22 -4.46
Si -0.10 -4.34 -4.46
Si  0.10  4.34  4.46
Si -3.81  2.15  4.46
Si  3.81 -2.15 -4.46
Si  0.62 -4.41  4.46
Si -0.62  4.41 -4.46
Si -4.27 -2.15 -4.46
Si  4.27  2.15  4.46
Si -2.07 -4.41  4.46
Si  2.07  4.41 -4.46
Si  0.96  6.57  0.00
Si -0.96 -6.57  0.00
Si  0.54 -0.05  6.69
Si -0.54  0.05 -6.69
Si -5.03 -0.04  4.46
Si  5.03  0.04 -4.46
Si  4.53 -2.22  4.46
Si -4.53  2.22 -4.46
Si -5.13 -4.38  0.00
Si  5.13  4.38  0.00
Si  2.59 -4.34 -4.46
Si -2.59  4.34  4.46
Si  1.74 -6.57  0.00
Si -1.74  6.57  0.00
Si -2.79 -4.34 -4.46
Si  2.79  4.34  4.46
Si  6.61  2.19  0.00
Si -6.61 -2.19  0.00
Si  4.95  4.39 -2.23
Si -4.95 -4.39  2.23
Si  0.78  6.58 -2.23
Si -0.78 -6.58  2.23
Si  1.14  6.55  2.23
Si -1.14 -6.55 -2.23
Si -2.15 -0.05  6.69
Si  2.15  0.05 -6.69
Si -0.94  2.13  6.69
Si  0.94 -2.13 -6.69
Si  1.56 -6.55 -2.23
Si -1.56  6.55  2.23
Si  0.68  2.24 -6.69
Si -0.68 -2.24  6.69
Si  3.31 -4.41  4.46
Si -3.31  4.41 -4.46
Si -5.65  4.38  0.00
Si  5.65 -4.38  0.00
Si -6.43 -2.21  2.23
Si  6.43  2.21 -2.23
Si  6.87 -2.19  0.00
Si -6.87  2.19  0.00
Si -1.92  6.58 -2.23
Si  1.92 -6.58  2.23
Si -5.31 -4.36 -2.23
Si  5.31  4.36  2.23
Si  1.76  2.13  6.69
Si -1.76 -2.13 -6.69
Si  5.75 -0.04  4.46
Si -5.75  0.04 -4.46
Si -5.47  4.36  2.23
Si  5.47 -4.36 -2.23
Si  2.02 -2.24  6.69
Si -2.02  2.24 -6.69
Si -6.69  2.17  2.23
Si  6.69 -2.17 -2.23
Si  3.23 -0.05  6.69
Si -3.23  0.05 -6.69
Si  6.79  2.17  2.23
Si -6.79 -2.17 -2.23
Si  3.65  6.57  0.00
Si -3.65 -6.57  0.00
Si  5.83 -4.39  2.23
Si -5.83  4.39 -2.23
Si -7.05  2.21 -2.23
Si  7.05 -2.21  2.23
Si -3.47 -6.58  2.23
Si  3.47  6.58 -2.23
Si  3.37  2.24 -6.69
Si -3.37 -2.24  6.69
Si  4.77  4.41 -4.46
Si -4.77 -4.41  4.46
Si  3.83  6.55  2.23
Si -3.83 -6.55 -2.23
Si -3.63  2.13  6.69
Si  3.63 -2.13 -6.69
Si  4.43 -6.57  0.00
Si -4.43  6.57  0.00
Si -0.28 -4.32 -6.69
Si  0.28  4.32  6.69
Si  0.60  6.60 -4.46
Si -0.60 -6.60  4.46
Si -6.25 -2.22  4.46
Si  6.25  2.22 -4.46
Si  1.32  6.53  4.46
Si -1.32 -6.53 -4.46
Si -1.38  6.53  4.46
Si  1.38 -6.53 -4.46
Si  0.80 -4.43  6.69
Si -0.80  4.43 -6.69
Si -8.08  0.00  0.00
Si  8.08  0.00  0.00
Si  4.25 -6.55 -2.23
Si -4.25  6.55  2.23
Si  5.29 -4.34 -4.46
Si -5.29  4.34  4.46
Si -6.51  2.15  4.46
Si  6.51 -2.15 -4.46
Si -7.90 -0.02  2.23
Si  7.90  0.02 -2.23
Si -2.10  6.60 -4.46
Si  2.10 -6.60  4.46
Si -1.89 -4.43  6.69
Si  1.89  4.43 -6.69
Si  4.85  0.05 -6.69
Si -4.85 -0.05  6.69
Si  5.49  4.34  4.46
Si -5.49 -4.34 -4.46
Si  4.45  2.13  6.69
Si -4.45 -2.13 -6.69
Si -2.41  4.32  6.69
Si  2.41 -4.32 -6.69
Si -4.61  6.58 -2.23
Si  4.61 -6.58  2.23
Si -4.71  2.24 -6.69
Si  4.71 -2.24  6.69
Si  2.98  4.32  6.69
Si -2.98 -4.32 -6.69
Si -6.97 -2.15 -4.46
Si  6.97  2.15  4.46
Si -8.26  0.02 -2.23
Si  8.26 -0.02  2.23
Si -3.29 -6.60  4.46
Si  3.29  6.60 -4.46
Si -6.01  4.41 -4.46
Si  6.01 -4.41  4.46
Si  3.50 -4.43  6.69
Si -3.50  4.43 -6.69
Si -0.52  8.75  0.00
Si  0.52 -8.75  0.00
Si  7.23 -2.22  4.46
Si -7.23  2.22 -4.46
Si -4.01 -6.53 -4.46
Si  4.01  6.53  4.46
Si  4.07 -6.53 -4.46
Si -4.07  6.53  4.46
Si -7.72 -0.04  4.46
Si  7.72  0.04 -4.46
Si  5.93 -0.05  6.69
Si -5.93  0.05 -6.69
Si  0.72 -0.07  8.93
Si -0.72  0.07 -8.93
Si  7.82  4.38  0.00
Si -7.82 -4.38  0.00
Si  2.17  8.75  0.00
Si -2.17 -8.75  0.00
Si  0.34 -8.74 -2.23
Si -0.34  8.74  2.23
Si  0.70 -8.77  2.23
Si -0.70  8.77 -2.23
Si -7.64 -4.39  2.23
Si  7.64  4.39 -2.23
Si  6.35  6.57  0.00
Si -6.35 -6.57  0.00
Si -1.97 -0.07  8.93
Si  1.97  0.07 -8.93
Si  0.76 -2.12 -8.93
Si -0.76  2.12  8.93
Si  0.50  2.26 -8.93
Si -0.50 -2.26  8.93
Si -4.59 -4.43  6.69
Si  4.59  4.43 -6.69
Si -2.00 -8.77  2.23
Si  2.00  8.77 -2.23
Si  6.17  6.58 -2.23
Si -6.17 -6.58  2.23
Si  4.79 -6.60  4.46
Si -4.79  6.60 -4.46
Si -6.07 -2.24  6.69
Si  6.07  2.24 -6.69
Si  2.35  8.74  2.23
Si -2.35 -8.74 -2.23
Si -3.21  8.75  0.00
Si  3.21 -8.75  0.00
Si -1.94 -2.12 -8.93
Si  1.94  2.12  8.93
Si -8.00 -4.36 -2.23
Si  8.00  4.36  2.23
Si -1.20  6.51  6.69
Si  1.20 -6.51 -6.69
Si  8.34 -4.38  0.00
Si -8.34  4.38  0.00
Si -0.42 -6.62  6.69
Si  0.42  6.62 -6.69
Si  6.33 -2.13 -6.69
Si -6.33  2.13  6.69
Si  1.50  6.51  6.69
Si -1.50 -6.51 -6.69
Si -2.20  2.26 -8.93
Si  2.20 -2.26  8.93
Si -5.11  4.32  6.69
Si  5.11 -4.32 -6.69
Si -6.53 -6.55 -2.23
Si  6.53  6.55  2.23
Si  3.03 -8.74 -2.23
Si -3.03  8.74  2.23
Si -8.16  4.36  2.23
Si  8.16 -4.36 -2.23
Si -8.44  0.04 -4.46
Si  8.44 -0.04  4.46
Si -9.30 -2.19  0.00
Si  9.30  2.19  0.00
Si  3.42 -0.07  8.93
Si -3.42  0.07 -8.93
Si -9.12 -2.21  2.23
Si  9.12  2.21 -2.23
Si  3.39 -8.77  2.23
Si -3.39  8.77 -2.23
Si  2.28 -6.62  6.69
Si -2.28  6.62 -6.69
Si  7.13 -6.57  0.00
Si -7.13  6.57  0.00
Si -3.19 -2.26  8.93
Si  3.19  2.26 -8.93
Si  7.46  4.41 -4.46
Si -7.46 -4.41  4.46
Si -5.67 -4.32 -6.69
Si  5.67  4.32  6.69
Si  0.16 -8.72 -4.46
Si -0.16  8.72  4.46
Si -3.45  2.12  8.93
Si  3.45 -2.12 -8.93
Si -6.95  6.55  2.23
Si  6.95 -6.55 -2.23
Si -9.56  2.19  0.00
Si  9.56 -2.19  0.00
Si  8.52 -4.39  2.23
Si -8.52  4.39 -2.23
Si -9.38  2.17  2.23
Si  9.38 -2.17 -2.23
Si -0.88  8.79 -4.46
Si  0.88 -8.79  4.46
Si  3.11  6.62 -6.69
Si -3.11 -6.62  6.69
Si -0.46 -4.31 -8.93
Si  0.46  4.31  8.93
Si -5.99 -6.60  4.46
Si  5.99  6.60 -4.46
Si -9.48 -2.17 -2.23
Si  9.48  2.17  2.23
Si  4.87  8.75  0.00
Si -4.87 -8.75  0.00
Si -0.98  4.45 -8.93
Si  0.98 -4.45  8.93
Si -7.15 -2.13 -6.69
Si  7.15  2.13  6.69
Si  1.81  8.79 -4.46
Si -1.81 -8.79  4.46
Si -4.67 -0.07  8.93
Si  4.67  0.07 -8.93
Si -7.31  6.58 -2.23
Si  7.31 -6.58  2.23
Si -7.54 -0.05  6.69
Si  7.54  0.05 -6.69
Si -2.54 -8.72 -4.46
Si  2.54  8.72  4.46
Si  3.89 -6.51 -6.69
Si -3.89  6.51  6.69
Si -1.71 -4.45  8.93
Si  1.71  4.45 -8.93
Si -7.98  4.34  4.46
Si  7.98 -4.34 -4.46
Si  6.19 -4.43  6.69
Si -6.19  4.43 -6.69
Si  2.23 -4.31 -8.93
Si -2.23  4.31  8.93
Si  4.69  8.77 -2.23
Si -4.69 -8.77  2.23
Si -2.85  8.72  4.46
Si  2.85 -8.72 -4.46
Si  7.41 -2.24  6.69
Si -7.41  2.24 -6.69
Si  9.74 -2.21  2.23
Si -9.74  2.21 -2.23
Si  8.94  2.22 -4.46
Si -8.94 -2.22  4.46
Si  4.19  6.51  6.69
Si -4.19 -6.51 -6.69
Si  4.63  2.12  8.93
Si -4.63 -2.12 -8.93
Si  8.18  4.34  4.46
Si -8.18 -4.34 -4.46
Si  5.05  8.74  2.23
Si -5.05 -8.74 -2.23
Si  6.71  6.53  4.46
Si -6.71 -6.53 -4.46
Si  3.15  4.31  8.93
Si -3.15 -4.31 -8.93
Si -6.77  6.53  4.46
Si  6.77 -6.53 -4.46
Si -4.89  2.26 -8.93
Si  4.89 -2.26  8.93
Si -9.20  2.15  4.46
Si  9.20 -2.15 -4.46
Si -3.57  8.79 -4.46
Si  3.57 -8.79  4.46
Si  5.91 -8.75  0.00
Si -5.91  8.75  0.00
Si -3.67  4.45 -8.93
Si  3.67 -4.45  8.93
Si  4.97 -6.62  6.69
Si -4.97  6.62 -6.69
Si  5.73 -8.74 -2.23
Si -5.73  8.74  2.23
Si  8.70 -4.41  4.46
Si -8.70  4.41 -4.46
Si 10.78  0.00  0.00
Si -10.78  0.00  0.00
Si  6.11 -0.07  8.93
Si -6.11  0.07 -8.93
Si -10.60 -0.02  2.23
Si 10.60  0.02 -2.23
Si  7.28  4.43 -6.69
Si -7.28 -4.43  6.69
Si  4.51  8.79 -4.46
Si -4.51 -8.79  4.46
Si  9.66  2.15  4.46
Si -9.66 -2.15 -4.46
Si -4.41 -4.45  8.93
Si  4.41  4.45 -8.93
Si  6.09 -8.77  2.23
Si -6.09  8.77 -2.23
Si -8.62  0.05 -6.69
Si  8.62 -0.05  6.69
Si -5.89 -2.26  8.93
Si  5.89  2.26 -8.93
Si  7.49 -6.60  4.46
Si -7.49  6.60 -4.46
Si -0.70 -10.94  0.00
Si  0.70 10.94  0.00
Si -0.02 -8.70 -6.69
Si  0.02  8.70  6.69
Si  6.14 -2.12 -8.93
Si -6.14  2.12  8.93
Si  5.81  6.62 -6.69
Si -5.81 -6.62  6.69
Si  4.93 -4.31 -8.93
Si -4.93  4.31  8.93
Si -1.02  6.50  8.93
Si  1.02 -6.50 -8.93
Si  5.23  8.72  4.46
Si -5.23 -8.72 -4.46
Si  9.92 -2.22  4.46
Si -9.92  2.22 -4.46
Si -1.06  8.81 -6.69
Si  1.06 -8.81  6.69
Si  2.00 -10.94  0.00
Si -2.00 10.94  0.00
Si -0.24 -6.64  8.93
Si  0.24  6.64 -8.93
Si  7.80 -4.32 -6.69
Si -7.80  4.32  6.69
Si  1.68  6.50  8.93
Si -1.68 -6.50 -8.93
Si  9.04  6.57  0.00
Si -9.04 -6.57  0.00
Si -1.63 -8.81  6.69
Si  1.63  8.81 -6.69
Si 10.96 -0.02  2.23
Si -10.96  0.02 -2.23
Si -0.88 -10.92 -2.23
Si  0.88 10.92  2.23
Si  0.90 -0.09 11.16
Si -0.90  0.09 -11.16
Si  0.52 10.96 -2.23
Si -0.52 -10.96  2.23
Si  8.76  2.24 -6.69
Si -8.76 -2.24  6.69
Si  5.55 -8.72 -4.46
Si -5.55  8.72  4.46
Si -8.86 -6.58  2.23
Si  8.86  6.58 -2.23
Si  1.82 -10.92 -2.23
Si -1.82 10.92  2.23
Si -2.67  8.70  6.69
Si  2.67 -8.70 -6.69
Si -1.79 -0.09 11.16
Si  1.79  0.09 -11.16
Si -2.71 -8.70 -6.69
Si  2.71  8.70  6.69
Si 10.42  0.04 -4.46
Si -10.42 -0.04  4.46
Si -0.58  2.10 11.16
Si  0.58 -2.10 -11.16
Si -2.46  6.64 -8.93
Si  2.46 -6.64  8.93
Si -0.32 -2.28 11.16
Si  0.32  2.28 -11.16
Si 10.52  4.38  0.00
Si -10.52 -4.38  0.00
Si -2.18 10.96 -2.23
Si  2.18 -10.96  2.23
Si -6.58  6.51  6.69
Si  6.58 -6.51 -6.69
Si  9.02 -2.13 -6.69
Si -9.02  2.13  6.69
Si 10.34  4.39 -2.23
Si -10.34 -4.39  2.23
Si  3.39 10.94  0.00
Si -3.39 -10.94  0.00
Si -2.93 -6.64  8.93
Si  2.93  6.64 -8.93
Si -5.85 -4.31 -8.93
Si  5.85  4.31  8.93
Si  9.22  6.55  2.23
Si -9.22 -6.55 -2.23
Si -2.12 -2.10 -11.16
Si  2.12  2.10 11.16
Si -8.36 -4.32 -6.69
Si  8.36  4.32  6.69
Si  7.56  8.75  0.00
Si -7.56 -8.75  0.00
Si -7.36 -0.07  8.93
Si  7.36  0.07 -8.93
Si -6.89 -6.51 -6.69
Si  6.89  6.51  6.69
Si  2.38 -2.28 11.16
Si -2.38  2.28 -11.16
Si  3.21 10.96 -2.23
