500
set: 1385.00  0.00  0.00
Si  0.23  0.10 -0.03
Si  0.11 -0.73  1.57
Si  0.18 -1.86 -1.14
Si -1.64  1.26 -0.93
Si -1.93  0.73  1.98
Si  0.29 -1.02 -2.75
Si  1.19  2.05  2.18
Si  2.63  2.25 -0.26
Si  2.05 -3.03 -0.26
Si -2.63  0.30 -2.55
Si -0.19  1.48 -3.37
Si  0.77  3.42 -1.14
Si -3.00 -2.05  1.36
Si  3.05 -2.05  1.36
Si  0.60 -3.23  2.18
Si -3.42  2.25 -0.26
Si -2.04 -0.11  3.58
Si -2.41  3.23  1.36
Si  3.41  0.30 -2.55
Si  4.11  0.73  1.98
Si  2.33 -2.48 -3.16
Si -0.18 -1.28  4.46
Si  4.41  1.26 -0.93
Si -2.22 -4.02 -0.93
Si  1.60 -2.27  3.80
Si  0.69  4.54  1.57
Si -4.00 -3.03 -0.26
Si  3.64  3.23  1.36
Si  2.92  2.79 -3.16
Si -0.77 -3.80 -3.37
Si  0.87  4.26 -2.75
Si -1.19  0.50 -4.99
Si -0.35 -5.17 -0.03
Si -3.13  2.79 -3.16
Si  2.19  3.01  3.80
Si  4.01 -0.11  3.58
Si -1.99  1.85  4.69
Si  0.82  5.38 -0.03
Si -3.72 -2.48 -3.16
Si -2.52 -4.55  1.98
Si  2.45 -1.65 -4.76
Si  3.83 -4.02 -0.93
Si  0.59 -0.49 -5.65
Si -4.86  2.05  2.18
Si -5.82  0.10 -0.03
Si  0.41  4.00  4.46
Si  3.53 -4.55  1.98
Si  0.83 -0.30  6.08
Si -5.94 -0.73  1.57
Si -3.59 -1.65 -4.76
Si -3.86  3.01  3.80
Si -0.48 -6.01  1.57
Si -5.86 -1.86 -1.14
Si  2.83 -4.97 -2.55
Si -4.44 -2.27  3.80
Si  6.28  0.10 -0.03
Si -2.58 -3.42  4.69
Si -5.28  3.42 -1.14
Si  6.15 -0.73  1.57
Si -3.22 -4.97 -2.55
Si -1.45  5.17  3.58
Si -5.76 -1.02 -2.75
Si -2.05  5.58 -2.55
Si -1.35  6.01  1.98
Si  4.06  1.85  4.69
Si  6.23 -1.86 -1.14
Si -1.05  6.53 -0.93
Si -5.44 -3.23  2.18
Si -3.01  3.63 -4.76
Si  3.04  3.63 -4.76
Si -2.11  1.02  6.29
Si  3.47 -3.42  4.69
Si  2.99  1.67 -5.87
Si -3.06  1.67 -5.87
Si -0.30 -6.30 -2.75
Si  5.86  1.48 -3.37
Si  4.85  0.50 -4.99
Si  6.33 -1.02 -2.75
Si -2.62 -5.39  3.58
Si -1.78 -4.78 -4.99
Si -5.35  4.54  1.57
Si -6.23  1.48 -3.37
Si -0.40 -7.14 -1.14
Si -5.17  4.26 -2.75
Si -1.62 -1.48  6.90
Si  2.40 -3.61 -5.87
Si  5.27 -3.80 -3.37
Si  3.42 -5.39  3.58
Si  4.00  5.58 -2.55
Si  1.31 -2.80  6.71
Si  1.89  2.48  6.71
Si -0.41 -1.45 -7.27
Si  5.87 -1.28  4.46
Si  3.93  1.02  6.29
Si  1.17  4.79 -5.65
Si -5.23  5.38 -0.03
Si  0.40  6.76 -3.37
Si -0.61  5.78 -4.99
Si  5.69 -5.17 -0.03
Si  6.65 -3.23  2.18
Si  6.81  3.42 -1.14
Si -6.22 -1.28  4.46
Si  4.59  5.17  3.58
Si -3.64 -3.61 -5.87
Si  7.24  2.05  2.18
Si -7.68  1.26 -0.93
Si  2.47 -7.33  1.36
Si  1.77  7.33  2.18
Si -5.46 -0.49 -5.65
Si  4.70  6.01  1.98
Si -1.03  3.80  6.90
Si -0.76 -6.55  4.46
Si  1.42  4.98  6.08
Si -0.91  1.04 -7.88
Si -5.22 -0.30  6.08
Si -2.83  7.53 -0.26
Si -2.70 -4.26  6.29
Si  0.00 -5.77 -5.65
Si  4.27 -4.78 -4.99
Si  3.22  7.53 -0.26
Si  0.17  3.83 -7.27
Si -5.64  4.00  4.46
Si -6.40 -5.17 -0.03
Si -7.98  0.73  1.98
Si  0.24 -5.58  6.08
Si -3.58 -7.33  1.36
Si -4.16  2.48  6.71
Si  5.00  6.53 -0.93
Si  6.74  4.54  1.57
Si  3.35 -4.26  6.29
Si  4.43 -1.48  6.90
Si  5.57 -6.01  1.57
Si  2.03 -0.27 -8.09
Si  2.51 -2.77 -7.47
Si -2.95  2.51 -7.47
Si  1.46 -8.30 -0.26
Si  3.10  2.51 -7.47
Si -6.82 -3.80 -3.37
Si  1.02 -7.55  3.80
Si  1.74 -7.76 -3.16
Si -0.62 -0.52  8.52
Si  6.92  4.26 -2.75
Si  1.87 -6.92 -4.76
Si  8.09 -3.03 -0.26
Si -1.41  7.13  4.69
Si  1.78  1.64  8.31
Si -4.74 -2.80  6.71
Si -3.54 -2.77 -7.47
Si  6.86  5.38 -0.03
Si  6.63 -0.49 -5.65
Si -4.27  7.33  2.18
Si  0.02 -8.50  2.18
Si -7.24  0.50 -4.99
Si -1.82  8.51  1.36
Si  6.46  4.00  4.46
Si  7.65 -2.27  3.80
Si -8.09 -0.11  3.58
Si -4.88  4.79 -5.65
Si  1.35  8.69 -1.14
Si  5.75 -6.30 -2.75
Si  8.68  2.25 -0.26
Si -6.52 -6.01  1.57
Si -1.53  6.29  6.29
Si -2.55  8.07 -3.16
Si -4.01 -0.27 -8.09
Si -8.68  0.30 -2.55
Si -1.50 -4.23 -7.88
Si -4.63  4.98  6.08
Si  1.20 -3.64  8.31
Si -8.46  3.23  1.36
Si  5.64 -7.14 -1.14
Si  6.88 -0.30  6.08
Si -8.27 -4.02 -0.93
Si  8.38 -2.48 -3.16
Si  5.63 -1.45 -7.27
Si  5.01  3.80  6.90
Si  3.50  8.07 -3.16
Si -6.34 -6.30 -2.75
Si -9.04 -2.05  1.36
Si  5.44  5.78 -4.99
Si -4.18 -6.92 -4.76
Si -4.30 -7.76 -3.16
Si -2.47  6.94 -5.87
Si  9.10 -2.05  1.36
Si -5.65  6.76 -3.37
Si  5.14  1.04 -7.88
Si -4.26  1.64  8.31
Si -8.04  1.85  4.69
Si -4.58 -8.30 -0.26
Si -2.40  0.47  9.19
Si  2.77  8.28  3.80
Si  5.29 -6.55  4.46
Si  8.23  3.01  3.80
Si  4.22  8.51  1.36
Si  1.25 -1.68  9.42
Si -3.27  8.28  3.80
Si -6.45 -7.14 -1.14
Si -7.10  6.53 -0.93
Si -0.79  1.88 -9.48
Si  4.64  7.13  4.69
Si -9.46  2.25 -0.26
Si -7.39  6.01  1.98
Si -2.81 -9.30 -0.93
Si -0.03  4.76  8.52
Si  3.57  6.94 -5.87
Si -1.36 -9.07 -3.37
Si -7.50  5.17  3.58
Si  9.46  0.30 -2.55
Si -5.03 -7.55  3.80
Si -6.46 -1.45 -7.27
Si  1.03 -1.25 -9.71
Si  2.62  5.01 -8.09
Si  8.50 -1.65 -4.76
Si  3.24 -9.30 -0.93
Si -8.56 -4.55  1.98
Si  3.65  0.47  9.19
Si  8.96  2.79 -3.16
Si -2.20 -6.75  6.90
Si  1.45 -5.55 -8.09
Si  6.44  6.76 -3.37
Si -4.69  8.69 -1.14
Si -1.00 -6.72 -7.27
Si  4.52  6.29  6.29
Si  1.28  9.82  1.57
Si  1.46  9.54 -2.75
Si  4.55 -4.23 -7.88
Si -5.80 -5.58  6.08
Si -6.04 -5.77 -5.65
Si  6.05 -5.77 -5.65
Si -9.18  2.79 -3.16
Si -5.87  3.83 -7.27
Si -0.33  6.32 -7.88
Si -3.43  5.01 -8.09
Si  5.43 -0.52  8.52
Si -6.66  5.78 -4.99
Si -8.10  5.58 -2.55
Si -1.37 -3.40 -9.48
Si  1.83  3.60  9.42
Si -4.85 -3.64  8.31
Si  9.68  3.23  1.36
Si  2.89 -8.70  4.69
Si  6.22  3.83 -7.27
Si  7.35 -2.80  6.71
Si  7.22  4.79 -5.65
Si  0.99  9.28  4.46
Si -8.16  1.02  6.29
Si 10.16  0.73  1.98
Si  6.29 -5.58  6.08
Si -1.20 -5.80  8.52
Si -3.16 -8.70  4.69
Si -2.42  8.91 -4.76
Si  3.84 -6.75  6.90
Si -8.62 -3.42  4.69
Si -7.66 -1.48  6.90
Si -7.83 -4.78 -4.99
Si  2.94 -9.82  1.98
Si -6.81 -6.55  4.46
Si  8.87 -4.97 -2.55
Si -3.10 -9.82  1.98
Si -0.94 -10.45 -0.03
Si -10.05 -3.03 -0.26
Si  0.72 -8.07  6.71
Si  2.48  7.76  6.71
Si -9.76 -2.48 -3.16
Si -6.96  1.04 -7.88
Si 10.46  1.26 -0.93
Si -7.08  3.80  6.90
Si -0.84 -0.08 -10.59
Si  1.61  4.03 -9.71
Si -6.03 -8.50  2.18
Si  6.07 -8.50  2.18
Si 10.05 -0.11  3.58
Si  7.94  2.48  6.71
Si  9.87 -4.02 -0.93
Si -4.80 -1.68  9.42
Si  3.62  8.91 -4.76
Si  1.40 10.66 -0.03
Si  4.69 -9.07 -3.37
Si  9.57 -4.55  1.98
Si -2.98 -4.81  9.19
Si  2.24 -10.25 -2.55
Si  1.82 -8.89 -5.87
Si  3.06 -4.81  9.19
Si -8.67 -5.39  3.58
Si -9.27 -4.97 -2.55
Si -6.66 -0.52  8.52
Si -4.60 -5.55 -8.09
Si  7.46  4.98  6.08
Si -9.05  3.63 -4.76
Si -3.57  7.76  6.71
Si -9.64 -1.65 -4.76
Si  9.08  3.63 -4.76
Si  9.03  1.67 -5.87
Si  8.45 -3.61 -5.87
Si -4.21  3.60  9.42
Si -4.59  9.54 -2.75
Si  7.82  7.33  2.18
Si -9.10  1.67 -5.87
Si  2.81 -2.24 -10.38
Si -1.81  5.75  9.19
Si -1.39  1.45 10.81
Si -5.02 -1.25 -9.71
Si  5.26  1.88 -9.48
Si  7.07 -7.55  3.80
Si -9.90  3.01  3.80
Si -4.77  9.82  1.57
Si -2.37  7.79 -7.47
Si  2.37  6.92  8.31
Si -0.87 10.44  3.58
Si -3.24 -2.24 -10.38
Si  4.67 -3.40 -9.48
Si  5.05 -6.72 -7.27
Si -2.65  3.04 -10.38
Si  1.92 -8.04 -7.47
Si  9.52 -3.42  4.69
Si  7.51 -8.30 -0.26
Si -3.81 -10.25 -2.55
Si -1.46 10.86 -2.55
Si 10.10  1.85  4.69
Si -10.90  2.05  2.18
Si  8.51 -7.33  1.36
Si -7.45  7.13  4.69
Si  3.39  3.04 -10.38
Si  1.13 -2.51 11.02
Si -10.49 -2.27  3.80
Si  4.84 -5.80  8.52
Si  3.68  7.79 -7.47
Si -4.43  4.03 -9.71
Si -0.45  9.08  6.90
Si -3.68  6.92  8.31
Si  8.08 -0.27 -8.09
Si  7.79 -7.76 -3.16
Si -1.06 -11.29  1.57
Si -4.23 -8.89 -5.87
Si  6.01  4.76  8.52
Si  9.47 -5.39  3.58
Si -5.05  9.28  4.46
Si -2.36 -10.05 -4.99
Si  7.40  8.69 -1.14
Si -0.76 11.29  1.98
Si  1.71  2.77 11.02
Si -6.08  4.76  8.52
Si -0.92 -1.05 11.43
Si  7.83  1.64  8.31
Si  7.91 -6.92 -4.76
Si -8.74 -4.26  6.29
Si  2.84 -10.67  3.58
Si  7.25 -3.64  8.31
Si  5.72  6.32 -7.88
Si -4.64 10.66 -0.03
Si  5.11 -10.45 -0.03
Si -1.98 -3.83 10.81
Si  4.23  5.75  9.19
Si -8.88  7.53 -0.26
Si -7.87  8.51  1.36
Si  1.76 10.06 -5.65
Si  0.76  9.11 -7.27
Si -7.57  6.29  6.29
Si  8.56 -2.77 -7.47
Si -3.21 -10.67  3.58
Si -7.54 -4.23 -7.88
Si  0.44 -6.53 -9.71
Si  0.66 -6.95  9.42
Si -4.12 -8.04 -7.47
Si  2.76 -9.54  6.29
Si 10.04  5.58 -2.55
Si -5.33 -8.07  6.71
Si -0.25  5.20 -10.59
Si  5.21 -0.08 -10.59
Si  3.68 -10.05 -4.99
Si -6.83  1.88 -9.48
Si  2.21  0.27 11.63
Si  9.98  1.02  6.29
Si -0.47 11.81 -0.93
Si  4.66  1.45 10.81
Si -11.86  0.10 -0.03
Si -0.20  7.16 -9.48
Si -11.32  3.42 -1.14
Si -9.69 -3.61 -5.87
Si -3.28 -9.54  6.29
Si -0.88 -11.57 -2.75
Si  9.26  7.53 -0.26
Si -6.37  6.32 -7.88
Si -1.42 -5.36 -10.59
Si -9.00  2.51 -7.47
Si 10.90  0.50 -4.99
Si  7.30 -1.68  9.42
Si  4.58 10.86 -2.55
Si  9.14  2.51 -7.47
Si  7.07 -1.25 -9.71
Si  9.39 -4.26  6.29
Si  2.00 10.26  6.08
Si -11.98 -0.73  1.57
Si -11.91 -1.86 -1.14
Si -0.02 11.05 -4.99
Si -11.49 -3.23  2.18
Si -7.04 -6.72 -7.27
Si -4.33  2.77 11.02
Si -11.80 -1.02 -2.75
Si  4.07 -3.83 10.81
Si -9.63 -7.33  1.36
Si -7.41 -9.07 -3.37
Si -0.33  4.23 11.43
Si  5.18 10.44  3.58
Si  0.61 -8.92  8.31
Si -8.59  8.07 -3.16
Si -0.73  0.76 -12.20
Si -3.84  0.27 11.63
Si -11.22  4.26 -2.75
Si -4.29 10.06 -5.65
Si 12.20 -0.73  1.57
Si 12.32  0.10 -0.03
Si -4.92 -2.51 11.02
Si  7.49 -5.55 -8.09
Si  7.33  9.82  1.57
Si 10.64  5.17  3.58
Si -11.40  4.54  1.57
Si 11.32 -3.80 -3.37
Si  2.39  2.08 -12.00
Si 10.31 -4.78 -4.99
Si -0.58 -11.05 -5.65
Si  4.98 -11.29  1.57
Si  7.50  9.54 -2.75
Si -0.34 -10.85  6.08
Si -10.20  2.48  6.71
Si 11.90  1.48 -3.37
Si -8.52  6.94 -5.87
Si -9.58 -2.77 -7.47
Si 12.27 -1.86 -1.14
Si 10.74  6.01  1.98
Si  7.04  9.28  4.46
Si  6.77 -8.07  6.71
Si -8.44  0.47  9.19
Si -11.28  5.38 -0.03
Si -0.99 -12.41 -1.14
Si -7.42 -3.40 -9.48
Si -2.08 -9.51 -7.88
Si  0.98 12.03 -3.37
Si  1.81 -3.20 -12.00
Si -6.99 -10.45 -0.03
Si  5.13 -1.05 11.43
Si -4.05 10.26  6.08
Si -7.25 -5.80  8.52
Si  5.28 11.29  1.98
Si 10.48 -1.48  6.90
Si -6.88 -0.08 -10.59
Si  8.82  8.28  3.80
Si  1.31 -0.71 -12.61
Si -8.25 -6.75  6.90
Si  5.60  9.08  6.90
Si -3.65  2.08 -12.00
Si -1.35 -11.83  4.46
Si 12.38 -1.02 -2.75
Si  4.62 -5.36 -10.59
Si -0.81  6.73 10.81
Si  1.62 -5.00 11.63
Si 11.92 -1.28  4.46
Si  7.88  3.60  9.42
Si -5.29  9.11 -7.27
Si -11.26 -0.30  6.08
Si  1.88 -12.60  1.36
Si -12.28  1.48 -3.37
Si 11.74 -5.17 -0.03
Si -11.51 -0.49 -5.65
Si -10.32  7.33  2.18
Si 11.04  6.53 -0.93
Si  8.66  5.01 -8.09
Si -8.85 -9.30 -0.93
Si -5.38 -6.95  9.42
Si  9.55  8.07 -3.16
Si -10.06 -0.27 -8.09
Si  5.16 -11.57 -2.75
Si  3.97 -9.51 -7.88
Si -5.60 -6.53 -9.71
Si -1.96 -8.67 -9.48
Si  7.45 10.66 -0.03
Si -2.25 12.80 -0.26
Si -10.79 -2.80  6.71
Si  7.66  4.03 -9.71
Si  2.22 -7.52 -10.38
Si  2.36 12.61  2.18
Si -6.92 10.44  3.58
Si -9.32  8.28  3.80
Si -1.31 -4.52 -12.20
Si  5.58 11.81 -0.93
Si -1.79 -2.02 -12.81
Si -12.27 -1.28  4.46
Si -4.24 -3.20 -12.00
Si -6.49  9.08  6.90
Si -11.68  4.00  4.46
Si  5.79  5.20 -10.59
Si -1.50 -6.32 11.43
Si  1.28 -12.20 -4.76
Si  2.42  8.88  9.42
Si 11.62 -6.01  1.57
Si  9.29 -9.30 -0.93
Si  0.55 10.03  8.52
Si -8.47  8.91 -4.76
Si  2.79  5.55 11.63
Si -10.92  4.79 -5.65
