500
set: 525.00  0.00  0.00
Si  0.00  0.00  0.00
Si  0.04 -2.08  0.77
Si -1.78  1.08  0.77
Si  1.88  1.08  0.77
Si -0.04  0.09 -2.41
Si  1.82 -3.16  0.00
Si -1.82  3.16  0.00
Si  1.84  3.16  0.00
Si -1.84 -3.16  0.00
Si -3.66  0.00  0.00
Si  3.66  0.00  0.00
Si  1.74 -0.99 -3.18
Si -1.74  0.99  3.18
Si -1.92 -0.99 -3.18
Si  1.92  0.99  3.18
Si  0.08 -2.17  3.18
Si -0.08  2.17 -3.18
Si -3.63 -2.08  0.77
Si  1.77 -3.07 -2.41
Si  3.70 -2.08  0.77
Si  0.06  4.25  0.77
Si -1.89 -3.07 -2.41
Si  3.62  0.09 -2.41
Si -3.71  0.09 -2.41
Si  1.80  3.25 -2.41
Si -1.71 -1.08  3.95
Si -1.86  3.25 -2.41
Si  0.14  2.08  3.95
Si  1.96 -1.08  3.95
Si -0.10 -4.15 -3.18
Si  0.10  4.15  3.18
Si  3.58  2.17 -3.18
Si -3.58 -2.17  3.18
Si  3.74 -2.17  3.18
Si -3.74  2.17 -3.18
Si -1.81 -5.24  0.77
Si -5.45  1.08  0.77
Si  1.85 -5.24  0.77
Si -3.60  4.25  0.77
Si -3.52  2.08  3.95
Si  5.54  1.08  0.77
Si  3.72  4.25  0.77
Si  0.11 -4.25  3.95
Si  3.80  2.08  3.95
Si  1.70 -0.90 -5.59
Si -1.97 -0.90 -5.59
Si -0.12  2.26 -5.59
Si  0.02  6.32  0.00
Si -0.02 -6.32  0.00
Si -5.48  3.16  0.00
Si  5.48 -3.16  0.00
Si  3.56 -4.15 -3.18
Si -3.56  4.15  3.18
Si  5.40 -0.99 -3.18
Si -5.40  0.99  3.18
Si  5.50  3.16  0.00
Si -5.50 -3.16  0.00
Si  3.76  4.15  3.18
Si -3.76 -4.15 -3.18
Si -1.76 -5.33  3.18
Si  1.76  5.33 -3.18
Si -1.90  5.33 -3.18
Si  1.90 -5.33  3.18
Si  5.58  0.99  3.18
Si -5.58 -0.99 -3.18
Si  0.18  1.99  6.36
Si -0.18 -1.99 -6.36
Si -1.66 -1.18  6.36
Si  1.66  1.18 -6.36
Si -0.07 -6.23 -2.41
Si  5.44 -3.07 -2.41
Si -5.37 -1.08  3.95
Si -1.68  5.24  3.95
Si  2.00 -1.18  6.36
Si -2.00  1.18 -6.36
Si -5.55 -3.07 -2.41
Si -3.55 -4.25  3.95
Si  5.46  3.25 -2.41
Si  1.98  5.24  3.95
Si -5.53  3.25 -2.41
Si -0.02  6.41 -2.41
Si -0.15 -4.06 -5.59
Si  3.78 -4.25  3.95
Si  5.62 -1.08  3.95
Si  3.54  2.26 -5.59
Si -3.79  2.26 -5.59
Si  0.22 -0.09  7.13
Si  3.64 -6.32  0.00
Si -3.64  6.32  0.00
Si  3.69  6.32  0.00
Si -3.69 -6.32  0.00
Si  7.32  0.00  0.00
Si -7.32  0.00  0.00
Si  3.48 -1.99 -6.36
Si -3.48  1.99  6.36
Si  3.59 -6.23 -2.41
Si -5.47 -5.24  0.77
Si -7.29 -2.08  0.77
Si  5.51 -5.24  0.77
Si -1.76  7.41  0.77
Si -3.73 -6.23 -2.41
Si  7.28  0.09 -2.41
Si  7.36 -2.08  0.77
Si  1.90  7.41  0.77
Si -3.84 -1.99 -6.36
Si  3.84  1.99  6.36
Si  0.16 -4.34  6.36
Si -0.16  4.34 -6.36
Si -7.37  0.09 -2.41
Si  3.51 -4.06 -5.59
Si  3.64  6.41 -2.41
Si -3.68  6.41 -2.41
Si  5.36 -0.90 -5.59
Si -3.81 -4.06 -5.59
Si -3.44 -0.09  7.13
Si -1.60  3.07  7.13
Si  1.72  5.42 -5.59
Si -5.63 -0.90 -5.59
Si -1.62 -3.25  7.13
Si -1.94  5.42 -5.59
Si  2.06  3.07  7.13
Si  2.04 -3.25  7.13
Si  3.88 -0.09  7.13
Si -1.72  7.32  3.18
Si  1.72 -7.32 -3.18
Si  7.24  2.17 -3.18
Si -7.24 -2.17  3.18
Si  1.95  7.32  3.18
Si -1.95 -7.32 -3.18
Si -5.42 -5.33  3.18
Si  5.42  5.33 -3.18
Si -5.56  5.33 -3.18
Si  5.56 -5.33  3.18
Si -7.40  2.17 -3.18
Si  7.40 -2.17  3.18
Si -1.64  5.15  6.36
Si  1.64 -5.15 -6.36
Si -5.32 -1.18  6.36
Si  5.32  1.18 -6.36
Si -2.02 -5.15 -6.36
Si  2.02  5.15  6.36
Si  0.01 -8.40  0.77
Si -7.26  4.25  0.77
Si -7.19  2.08  3.95
Si -3.50 -4.34  6.36
Si  3.50  4.34 -6.36
Si -5.34  5.24  3.95
Si  7.38  4.25  0.77
Si -1.73 -7.41  3.95
Si -3.82  4.34 -6.36
Si  3.82 -4.34  6.36
Si -5.66  1.18 -6.36
Si  5.66 -1.18  6.36
Si  1.93 -7.41  3.95
Si  5.64  5.24  3.95
Si  7.46  2.08  3.95
Si -7.22  4.15  3.18
Si  7.22 -4.15 -3.18
Si -0.23 -1.89 -8.78
Si  1.61  1.27 -8.78
Si  0.06 -8.49  3.18
Si -0.06  8.49 -3.18
Si  7.43  4.15  3.18
Si -7.43 -4.15 -3.18
Si -2.05  1.27 -8.78
Si -3.65 -8.40  0.77
Si  3.67 -8.40  0.77
Si -9.11  1.08  0.77
Si -5.42  7.41  0.77
Si -7.21 -4.25  3.95
Si  0.16  8.40  3.95
Si  1.67 -7.22 -5.59
Si  5.56  7.41  0.77
Si  9.20  1.08  0.77
Si -1.99 -7.22 -5.59
Si -5.26  3.07  7.13
Si  7.20  2.26 -5.59
Si  7.44 -4.25  3.95
Si -5.29 -3.25  7.13
Si  5.38  5.42 -5.59
Si  0.24  6.23  7.13
Si -0.26  0.18 -9.54
Si  0.26 -0.18  9.54
Si -7.45  2.26 -5.59
Si  0.19 -6.41  7.13
Si -5.61  5.42 -5.59
Si  3.43 -1.89 -8.78
Si  5.38 -7.32 -3.18
Si -5.38  7.32  3.18
Si  5.72  3.07  7.13
Si -1.80  9.48  0.00
Si  1.80 -9.48  0.00
Si  9.06 -0.99 -3.18
Si -9.06  0.99  3.18
Si -7.30  6.32  0.00
Si  7.30 -6.32  0.00
Si  1.87  9.48  0.00
Si -1.87 -9.48  0.00
Si -9.14  3.16  0.00
Si  9.14 -3.16  0.00
Si  5.70 -3.25  7.13
Si  7.35  6.32  0.00
Si -7.35 -6.32  0.00
Si  9.17  3.16  0.00
Si -9.17 -3.16  0.00
Si -5.30  5.15  6.36
Si  5.30 -5.15 -6.36
Si -5.61 -7.32 -3.18
Si  5.61  7.32  3.18
Si  3.60  8.49 -3.18
Si -3.60 -8.49  3.18
Si  7.14 -1.99 -6.36
Si -7.14  1.99  6.36
Si -3.89 -1.89 -8.78
Si -3.72  8.49 -3.18
Si  3.72 -8.49  3.18
Si -9.24 -0.99 -3.18
Si  9.24  0.99  3.18
Si -0.20  4.43 -8.78
Si  1.75 -9.39 -2.41
Si  7.25 -6.23 -2.41
Si -1.91 -9.39 -2.41
Si  9.10 -3.07 -2.41
Si -9.03 -1.08  3.95
Si -3.50  8.40  3.95
Si  5.69  5.15  6.36
Si -5.69 -5.15 -6.36
Si -7.39 -6.23 -2.41
Si  7.17 -4.06 -5.59
Si -5.39 -7.41  3.95
Si  1.68  7.50 -6.36
Si -1.68 -7.50  6.36
Si  9.12  3.25 -2.41
Si -9.21 -3.07 -2.41
Si  7.30  6.41 -2.41
Si -1.98  7.50 -6.36
Si  1.98 -7.50  6.36
Si  3.82  8.40  3.95
Si -7.51 -1.99 -6.36
Si  7.51  1.99  6.36
Si  1.82  9.57 -2.41
Si -9.19  3.25 -2.41
Si -1.84  9.57 -2.41
Si -7.34  6.41 -2.41
Si -7.11 -0.09  7.13
Si -3.42  6.23  7.13
Si  5.59 -7.41  3.95
Si  1.56 -2.98 -9.54
Si -1.56  2.98  9.54
Si -3.40 -0.18  9.54
Si  3.40  0.18 -9.54
Si  9.28 -1.08  3.95
Si -7.47 -4.06 -5.59
Si -3.47 -6.41  7.13
Si -2.10 -2.98 -9.54
Si  2.10  2.98  9.54
Si  1.58  3.34 -9.54
Si -1.58 -3.34  9.54
Si  3.90  6.23  7.13
Si -0.10  8.58 -5.59
Si  1.59 -5.05 -8.78
Si  5.28  1.27 -8.78
Si  3.92 -0.18  9.54
Si -3.92  0.18 -9.54
Si -2.08  3.34 -9.54
Si  2.08 -3.34  9.54
Si  3.85 -6.41  7.13
Si -2.07 -5.05 -8.78
Si  7.54 -0.09  7.13
Si  3.46  4.43 -8.78
Si -1.52  0.90 10.31
Si  0.21  8.31  6.36
Si -0.21 -8.31 -6.36
Si -7.16 -4.34  6.36
Si  7.16  4.34 -6.36
Si -5.71  1.27 -8.78
Si -9.13 -5.24  0.77
Si  0.30 -2.26 10.31
Si -3.87  4.43 -8.78
Si  2.14  0.90 10.31
Si  5.33 -7.22 -5.59
Si  9.18 -5.24  0.77
Si  0.08 10.57  0.77
Si  9.02 -0.90 -5.59
Si  7.48 -4.34  6.36
Si -7.48  4.34 -6.36
Si -5.65 -7.22 -5.59
Si  3.56  8.58 -5.59
Si -9.29 -0.90 -5.59
Si -3.76  8.58 -5.59
Si -5.46  9.48  0.00
Si  5.46 -9.48  0.00
Si -0.13 -10.47 -3.18
Si  0.13 10.47  3.18
Si  5.53  9.48  0.00
Si -5.53 -9.48  0.00
Si 10.98  0.00  0.00
Si -10.98  0.00  0.00
Si -9.09 -5.33  3.18
Si  9.09  5.33 -3.18
Si -3.46  8.31  6.36
Si  3.46 -8.31 -6.36
Si -8.98 -1.18  6.36
Si  8.98  1.18 -6.36
Si -3.37 -2.26 10.31
Si  0.32  4.06 10.31
Si  5.41 -9.39 -2.41
Si -9.22  5.33 -3.18
Si  9.22 -5.33  3.18
Si -9.01  5.24  3.95
Si  3.87  8.31  6.36
Si -3.87 -8.31 -6.36
Si -7.31 -8.40  0.77
Si -10.95 -2.08  0.77
Si  7.33 -8.40  0.77
Si -3.58 10.57  0.77
Si -5.57 -9.39 -2.41
Si  5.34  7.50 -6.36
Si -5.34 -7.50  6.36
Si 10.94  0.09 -2.41
Si  3.74 10.57  0.77
Si 11.02 -2.08  0.77
Si  3.96 -2.26 10.31
Si -5.22  2.98  9.54
Si  5.22 -2.98 -9.54
Si  0.09 -10.57  3.95
Si -11.03  0.09 -2.41
Si  5.48  9.57 -2.41
Si -5.50  9.57 -2.41
Si  5.64 -7.50  6.36
Si -5.64  7.50 -6.36
Si -9.32  1.18 -6.36
Si  9.32 -1.18  6.36
Si -0.28 -6.14 -9.54
Si  0.28  6.14  9.54
Si  9.30  5.24  3.95
Si  5.24  3.34 -9.54
Si -5.24 -3.34  9.54
Si  5.25 -5.05 -8.78
Si  7.10 -1.89 -8.78
Si  3.54 -10.47 -3.18
Si -3.54 10.47  3.18
Si  5.77  2.98  9.54
Si -5.77 -2.98 -9.54
Si -0.24  6.50 -9.54
Si  0.24 -6.50  9.54
Si 10.90  2.17 -3.18
Si -10.90 -2.17  3.18
Si -3.34  4.06 10.31
Si -5.18  0.90 10.31
Si -3.79 -10.47 -3.18
Si  3.79 10.47  3.18
Si  7.27  8.49 -3.18
Si -7.27 -8.49  3.18
Si  5.74 -3.34  9.54
Si -5.74  3.34 -9.54
Si -5.73 -5.05 -8.78
Si -7.38  8.49 -3.18
Si  7.38 -8.49  3.18
Si -11.06  2.17 -3.18
Si 11.06 -2.17  3.18
Si  1.64  7.59 -8.78
Si -7.16  8.40  3.95
Si -10.85  2.08  3.95
Si  1.83 -11.56  0.77
Si -1.83 -11.56  0.77
Si -7.55 -1.89 -8.78
Si -9.08  7.41  0.77
Si -10.93  4.25  0.77
Si -1.55 -5.42 10.31
Si  3.98  4.06 10.31
Si -2.02  7.59 -8.78
Si -0.17 -10.38 -5.59
Si -7.08  6.23  7.13
Si -8.93  3.07  7.13
Si -3.57 -10.57  3.95
Si  2.12 -5.42 10.31
Si -3.38  6.14  9.54
Si  3.38 -6.14 -9.54
Si  9.22  7.41  0.77
Si 11.04  4.25  0.77
Si  5.80  0.90 10.31
Si -7.06 -0.18  9.54
Si  7.06  0.18 -9.54
Si  3.75 -10.57  3.95
Si -8.95 -3.25  7.13
Si -1.58  9.39  7.13
Si  7.48  8.40  3.95
Si  9.04  5.42 -5.59
Si -7.13 -6.41  7.13
Si -0.31  0.27 -11.96
Si  2.08  9.39  7.13
Si 11.12  2.08  3.95
Si -3.95 -6.14 -9.54
Si  3.95  6.14  9.54
Si -0.25 -8.22 -8.78
Si -3.42 -6.50  9.54
Si  3.42  6.50 -9.54
Si -1.65 -9.57  7.13
Si  9.04 -7.32 -3.18
Si -9.04  7.32  3.18
Si 10.88 -4.15 -3.18
Si -10.88  4.15  3.18
Si  2.01 -9.57  7.13
Si -9.27  5.42 -5.59
Si  7.56  6.23  7.13
Si  8.96 -5.15 -6.36
Si -8.96  5.15  6.36
Si  7.12  4.43 -8.78
Si  9.38  3.07  7.13
Si  7.52 -6.41  7.13
Si -3.90  6.50 -9.54
Si  3.90 -6.50  9.54
Si -7.58  0.18 -9.54
Si  7.58 -0.18  9.54
Si  9.36 -3.25  7.13
Si  1.79 11.65 -3.18
Si -1.79 -11.65  3.18
Si  1.88 -11.65  3.18
Si -1.88 11.65 -3.18
Si -9.27 -7.32 -3.18
Si  9.27  7.32  3.18
Si 11.09  4.15  3.18
Si -11.09 -4.15 -3.18
Si  3.49 -10.38 -5.59
Si -10.87 -4.25  3.95
Si -1.66 11.56  3.95
Si -9.05 -7.41  3.95
Si  2.00 11.56  3.95
Si -7.53  4.43 -8.78
Si  1.51 -2.89 -11.96
Si -3.83 -10.38 -5.59
Si  0.14 -10.66  6.36
Si -0.14 10.66 -6.36
Si  3.35  0.27 -11.96
Si  9.35  5.15  6.36
Si -9.35 -5.15 -6.36
Si 10.86  2.26 -5.59
Si -2.15 -2.89 -11.96
Si  9.26 -7.41  3.95
Si  3.41 -8.22 -8.78
Si 11.10 -4.25  3.95
Si  1.53  3.44 -11.96
Si  7.22  8.58 -5.59
Si  8.94  1.27 -8.78
Si -3.97  0.27 -11.96
Si -2.13  3.44 -11.96
Si -3.91 -8.22 -8.78
Si -11.11  2.26 -5.59
Si -0.05 -12.64  0.00
Si  0.05 12.64  0.00
Si -7.42  8.58 -5.59
Si -10.96  6.32  0.00
Si 10.96 -6.32  0.00
Si -7.12  8.31  6.36
Si  7.12 -8.31 -6.36
Si -1.50  7.22 10.31
Si -7.03 -2.26 10.31
Si 10.80 -1.99 -6.36
Si -10.80  1.99  6.36
Si 11.01  6.32  0.00
Si -11.01 -6.32  0.00
Si  5.30  7.59 -8.78
Si -5.21 -5.42 10.31
Si  2.16  7.22 10.31
Si -0.09 -12.55 -2.41
Si 10.92 -6.23 -2.41
Si  8.99 -7.22 -5.59
Si  5.49 -11.56  0.77
Si -5.49 -11.56  0.77
Si -7.24 10.57  0.77
Si  1.48 -0.81 -12.72
Si -1.48  0.81 12.72
Si -12.77  1.08  0.77
Si 10.84 -4.06 -5.59
Si -7.53 -8.31 -6.36
Si  7.53  8.31  6.36
Si -9.37  1.27 -8.78
Si -5.24  9.39  7.13
Si -3.53 -10.66  6.36
Si  3.53 10.66 -6.36
Si -10.77 -0.09  7.13
Si -11.05 -6.23 -2.41
Si -5.68  7.59 -8.78
Si  7.40 10.57  0.77
Si 10.96  6.41 -2.41
Si 12.86  1.08  0.77
Si  2.18  0.81 12.72
Si -2.18 -0.81 -12.72
Si -0.34  2.35 -12.72
Si  0.34 -2.35 12.72
Si  0.00 12.73 -2.41
Si -11.01  6.41 -2.41
Si  3.80 -10.66  6.36
Si -3.80 10.66 -6.36
Si  5.78 -5.42 10.31
Si 11.17  1.99  6.36
Si -11.17 -1.99 -6.36
Si  7.62 -2.26 10.31
Si -9.31 -7.22 -5.59
