500
set: 1076.00  0.00  0.00
Si  0.46 -1.13  0.78
Si -0.47  1.21 -0.79
Si -1.29 -1.13 -0.82
Si  1.35  1.19  0.75
Si  2.14 -1.16 -0.84
Si  0.80  0.09 -2.46
Si -2.12  1.23  0.90
Si -0.90 -0.06  2.46
Si -0.00  2.21  2.41
Si  0.04 -2.36 -2.41
Si -3.08 -1.17  0.80
Si  3.13  1.06 -0.80
Si  2.59  0.02  2.42
Si -0.44 -3.46  0.75
Si -2.63 -0.02 -2.44
Si  0.49  3.52 -0.82
Si  1.72 -2.29  2.45
Si -1.75  2.32 -2.41
Si  1.83  2.29 -2.41
Si -1.29  3.49  0.80
Si -1.79 -2.45  2.41
Si  1.34 -3.59 -0.80
Si -3.83  1.06 -0.80
Si  3.88 -1.17  0.80
Si -0.90 -0.12 -4.08
Si  0.94 -0.03  4.08
Si -2.26 -3.44 -0.79
Si  2.24  3.52  0.78
Si -0.09 -2.24  4.03
Si -0.01  2.27 -4.03
Si  3.05 -3.42  0.90
Si -3.02  3.50 -0.84
Si  3.42 -2.34 -2.41
Si  2.61  0.04 -4.04
Si -3.45  2.37  2.45
Si -2.64 -0.01  4.08
Si -3.54 -2.34 -2.41
Si  3.51  2.37  2.45
Si  4.33 -0.02 -2.44
Si -1.73  2.31  4.05
Si  1.70 -2.30 -4.08
Si -4.36  0.02  2.42
Si  1.70  2.41  4.03
Si -1.80 -2.39 -4.03
Si -4.81 -1.16 -0.84
Si  4.84  1.23  0.90
Si -3.90 -3.42  0.90
Si -0.98 -4.57 -2.46
Si  0.89  4.59  2.46
Si  0.81 -4.63  2.42
Si -0.84  4.63 -2.44
Si  3.93  3.50 -0.84
Si -5.61  1.19  0.75
Si -0.40  1.19  5.67
Si  3.44 -2.35  4.05
Si  5.66 -1.13 -0.82
Si -3.47  2.35 -4.08
Si  2.54 -4.67 -2.44
Si -3.52 -2.35  4.05
Si  3.48  2.35 -4.08
Si -2.58  4.68  2.42
Si  4.69 -3.44 -0.79
Si  0.45 -1.14 -5.75
Si  0.36 -5.81 -0.84
Si -4.71  3.52  0.78
Si -4.34  0.04 -4.04
Si  2.59  4.74 -2.46
Si  4.32 -0.01  4.08
Si -2.69 -4.72  2.46
Si -0.33  5.88  0.90
Si -1.37 -1.12  5.71
Si -1.33 -5.79  0.78
Si  1.35  1.20 -5.72
Si  1.31  5.87 -0.79
Si -5.12  2.29 -2.41
Si -2.04  5.72 -0.80
Si  0.89  4.53 -4.08
Si  5.21  2.32 -2.41
Si  0.82 -4.62 -4.04
Si  5.16 -2.45  2.41
Si -2.19  1.16 -5.69
Si -5.24 -2.29  2.45
Si  2.09 -5.82  0.80
Si -0.85  4.64  4.08
Si  2.24 -1.26  5.70
Si -0.85 -4.69  4.08
Si -3.01 -1.10 -5.59
Si  3.04  1.17  5.65
Si  6.06 -0.06  2.46
Si -3.08 -5.79 -0.82
Si -6.15  0.09 -2.46
Si  6.48  1.21 -0.79
Si -6.50 -1.13  0.78
Si  3.14  5.84  0.75
Si -0.44 -3.46 -5.72
Si  2.53 -4.67  4.08
Si  5.67  3.49  0.80
Si -2.56  4.69 -4.04
Si -5.62 -3.59 -0.80
Si  0.42  3.54  5.71
Si -1.23  3.56 -5.59
Si  2.73  4.62  4.08
Si  1.25 -3.49  5.65
Si  4.27 -4.72  2.46
Si -2.69 -4.78 -4.08
Si  4.38  4.68  2.42
Si -4.41 -4.67 -2.44
Si -4.36  4.74 -2.46
Si  3.94 -1.10 -5.59
Si  5.16 -2.39 -4.03
Si -3.91  1.17  5.65
Si -2.19 -3.46  5.67
Si  5.23  2.31  4.05
Si  3.87 -5.79 -0.82
Si -3.82  5.84  0.75
Si -5.26 -2.30 -4.08
Si -5.25  2.41  4.03
Si  2.24  3.52 -5.75
Si -2.93  3.39  5.70
Si -6.01 -0.03  4.08
Si  6.05 -0.12 -4.08
Si  2.98 -3.50 -5.69
Si  0.46 -1.14  7.24
Si -0.07 -6.95  2.45
Si  0.04  6.97 -2.41
Si -6.46  3.52 -0.82
Si  6.52 -3.46  0.75
Si -0.40  1.20 -7.32
Si -4.23  4.62  4.08
Si  1.78  6.86  2.41
Si  1.35  1.19  7.27
Si -1.37 -1.11 -7.28
Si -4.72 -1.26  5.70
Si  4.77  1.16 -5.69
Si  7.41 -1.13  0.78
Si -7.43  1.21 -0.79
Si  1.63 -6.99 -2.41
Si  4.92  5.72 -0.80
Si  4.27 -4.78 -4.08
Si  4.40  4.69 -4.04
Si -4.43 -4.67  4.08
Si -1.66  7.02  2.45
Si -1.74 -7.01 -2.41
Si -4.86 -5.82  0.80
Si  6.95  2.21  2.41
Si -6.96  2.21  2.41
Si -6.91 -2.36 -2.41
Si -2.18  1.16  7.30
Si  2.23 -1.26 -7.29
Si  4.02  3.39  5.70
Si  7.00 -2.36 -2.41
Si -3.97 -3.50 -5.69
Si  5.97 -4.57 -2.46
Si -6.07  4.59  2.46
Si  3.04  1.17 -7.33
Si  6.12  4.63 -2.44
Si  0.06  6.96  4.05
Si -3.01 -1.10  7.39
Si -0.43 -3.46  7.27
Si -0.09 -6.96 -4.08
Si  5.59 -1.12  5.71
Si -6.15 -4.63  2.42
Si -3.34  6.95 -2.41
Si -5.61  1.20 -5.72
Si  0.42  3.54 -7.28
Si  5.62 -5.79  0.78
Si  7.76  0.09 -2.46
Si -0.40  5.81 -5.69
Si -5.64  5.87 -0.79
Si  4.77 -3.46  5.67
Si  0.50  8.14  0.80
Si  3.62  6.95 -2.41
Si -7.39 -3.46  0.75
Si  1.78  6.92 -4.03
Si -1.87 -6.90  4.03
Si  1.25 -3.48 -7.33
Si -4.71  3.52 -5.75
Si  1.26 -8.08  0.90
Si  0.45 -5.92  5.70
Si  3.38 -7.11  2.41
Si -7.86 -0.06  2.46
Si  1.65 -7.00  4.05
Si  1.39  5.85  5.67
Si -1.33 -5.79 -5.75
Si  6.87 -2.24  4.03
Si  7.45  3.52 -0.82
Si -1.69  7.01 -4.08
Si -1.24  8.15 -0.84
Si -1.22  3.56  7.39
Si -0.45 -8.25 -0.80
Si  2.16 -5.75 -5.59
Si -3.58 -7.11  2.41
Si  6.95  2.27 -4.03
Si  2.25  3.52  7.24
Si -6.96  2.27 -4.03
Si -8.25 -1.13 -0.82
Si -2.19 -3.46 -7.32
Si -2.13  5.82  5.65
Si -3.92  1.17 -7.33
Si -7.04 -2.24  4.03
Si  8.31  1.19  0.75
Si -2.22 -8.12  0.75
Si  3.95 -1.10  7.39
Si  2.28  8.18 -0.82
Si -2.94  3.39 -7.29
Si -6.07  4.53 -4.08
Si  2.99 -3.50  7.30
Si  2.91 -8.10 -0.79
Si -6.13 -4.62 -4.04
Si  6.10  4.64  4.08
Si -3.15 -5.77  5.71
Si  6.11 -4.69  4.08
Si -2.92  8.18  0.78
Si  6.56  1.19  5.67
Si -6.50 -1.14 -5.75
Si -5.70 -3.49  5.65
Si  3.13  5.85 -5.72
Si  5.73  3.56 -5.59
Si -4.72 -1.26 -7.29
Si  3.37 -7.04 -4.03
Si  4.78  1.16  7.30
Si -6.60 -5.81 -0.84
Si -3.47  7.07  4.03
Si  3.49  7.07  4.03
Si -7.86 -0.12 -4.08
Si -3.58 -7.04 -4.03
Si  7.89 -0.03  4.08
Si  6.63  5.88  0.90
Si -5.17  6.86  2.41
Si  0.93 -0.03 -8.90
Si -0.89 -0.12  8.91
Si  3.80 -5.77  5.71
Si -8.24  3.49  0.80
Si  4.02  3.39 -7.29
Si -3.97 -3.50  7.30
Si -3.82  5.85 -5.72
Si  5.21 -7.01 -2.41
Si  8.29 -3.59 -0.80
Si -4.05 -8.10 -0.79
Si -5.32 -6.99 -2.41
Si  5.29  7.02  2.45
Si  4.03  8.18  0.78
Si -9.07  1.23  0.90
Si  9.10 -1.16 -0.84
Si -0.09 -2.24 -8.95
Si -0.00  2.26  8.96
Si  5.58 -1.11 -7.28
Si -5.60  1.19  7.27
Si -2.65 -0.01 -8.90
Si  8.68 -2.29  2.45
Si  2.62  0.04  8.94
Si -8.70  2.32 -2.41
Si -4.71  3.52  7.24
Si  6.51 -3.46 -5.72
Si -0.39  5.81  7.30
Si -4.80 -5.75 -5.59
Si  7.76 -4.63  2.42
Si  1.70 -2.31  8.91
Si -7.35  1.19  5.67
Si -1.33 -5.79  7.24
Si -6.53  3.54  5.71
Si  7.31 -5.81 -0.84
Si -1.74  2.31 -8.94
Si -7.79  4.63 -2.44
Si  4.76 -3.46 -7.32
Si  8.79  2.29 -2.41
Si -8.75 -2.45  2.41
Si  0.44 -5.92 -7.29
Si -7.28  5.88  0.90
Si  7.84  4.59  2.46
Si  1.70  2.41 -8.95
Si  4.73 -8.12  0.75
Si -1.79 -2.39  8.96
Si  4.83  5.82  5.65
Si  7.41 -1.14 -5.75
Si -4.67  8.18 -0.82
Si  5.08 -6.90  4.03
Si  1.38  5.85 -7.32
Si -7.94 -4.57 -2.46
Si -5.18  6.92 -4.03
Si -2.13  5.83 -7.33
Si  2.16 -5.75  7.39
Si -0.98 -9.29  2.42
Si  0.95  9.29 -2.44
Si  5.27  7.01 -4.08
Si -0.79  9.33  2.42
Si  0.76 -9.33 -2.44
Si -5.30 -7.00  4.05
Si -6.50 -1.14  7.24
Si -3.16 -5.77 -7.28
Si  8.65 -2.30 -4.08
Si -3.47  2.35  8.91
Si  3.14  5.85  7.27
Si  8.66  2.41  4.03
Si  9.55  0.02  2.42
Si  3.49  2.35  8.91
Si  3.43 -2.35 -8.94
Si -8.68  2.31  4.05
Si -5.57  5.85  5.67
Si -9.22 -3.44 -0.79
Si  9.20  3.52  0.78
Si -9.58 -0.02 -2.44
Si -3.52 -2.35 -8.94
Si  4.31 -0.01 -8.90
Si  6.55  1.20 -7.32
Si  7.78 -4.62 -4.04
Si  5.62 -5.79 -5.75
Si -5.69 -8.08  0.90
Si -1.14  8.04  5.70
Si -5.71 -3.48 -7.33
Si -0.53 -8.14  5.65
Si -8.75 -2.39 -4.03
Si  2.67  9.25  2.46
Si  7.84  4.53 -4.08
Si -4.34  0.04  8.94
Si -2.77 -9.22 -2.46
Si  0.56  8.21 -5.59
Si -7.81  4.64  4.08
Si -7.39 -3.46 -5.72
Si  7.38  3.54  5.71
Si -7.80 -4.69  4.08
Si  5.72  8.15 -0.84
Si  2.48 -9.37  2.46
Si  5.74  3.56  7.39
Si  1.20 -8.15 -5.69
Si  0.89  4.53  8.91
Si  3.80 -5.77 -7.28
Si -2.58  9.39 -2.46
Si -0.86  4.65 -8.90
Si -3.81  5.85  7.27
Si  6.89 -6.95  2.45
Si -0.85 -4.69 -8.90
Si  0.83 -4.62  8.94
Si -6.92  6.97 -2.41
Si -10.03 -1.17  0.80
Si -8.29 -5.79  0.78
Si  8.30  1.20 -5.72
Si -8.32 -1.12  5.71
Si -0.96 -9.27 -4.04
Si  6.99  6.97 -2.41
Si  8.27  5.87 -0.79
Si 10.08  1.06 -0.80
Si -2.23 -8.11 -5.72
Si -7.02 -6.95  2.45
Si  0.94  9.30  4.08
Si  0.74 -9.32  4.08
Si -0.77  9.35 -4.04
Si  2.21  8.19  5.71
Si  2.98 -8.12  5.67
Si  6.52 -3.46  7.27
Si  2.52 -4.66 -8.90
Si  9.57  0.04 -4.04
Si  2.72  4.62 -8.90
Si  2.67  9.19 -4.08
Si -0.25 10.37 -0.80
Si -6.54  3.54 -7.28
Si -2.93  8.17 -5.75
Si -2.55  4.69  8.94
Si -6.46  8.14  0.80
Si  4.18 -9.22 -2.46
Si -2.44  9.28  4.08
Si  7.42 -1.14  7.24
Si -9.59 -0.01  4.08
Si -7.36  1.20 -7.32
Si  6.56  5.81 -5.69
Si -2.68 -4.78  8.91
Si -6.51 -5.92  5.70
Si -4.28  9.25  2.46
Si  0.30 -10.48  0.80
Si -4.79 -5.75  7.39
Si -8.18  3.56 -5.59
Si -2.63 -9.34  4.08
Si  4.82  5.83 -7.33
Si  6.51 -8.25 -0.80
Si  0.81  0.08 10.53
Si  8.21 -3.49  5.65
Si -0.91 -0.06 -10.53
Si  2.48 -9.43 -4.08
Si  6.86 -6.96 -4.08
Si -5.25 -2.31  8.91
Si -1.43 -10.47 -0.84
Si  5.22  2.31 -8.94
Si -6.90  6.96  4.05
Si -9.98  3.50 -0.84
Si  5.17 -2.39  8.96
Si 10.01 -3.42  0.90
Si  4.38  9.39 -2.46
Si -5.26  2.41 -8.95
Si -3.97 -8.12  5.67
Si -4.47 -9.37  2.46
Si  1.46 10.54  0.90
Si  7.01  6.96  4.05
Si  2.09 -10.44 -0.82
Si -9.00  5.72 -0.80
Si -7.05 -6.96 -4.08
Si -2.03 10.50  0.75
Si -6.02 -0.03 -8.90
Si  4.03  8.17 -5.75
Si  6.06 -0.12  8.91
Si  9.05 -5.82  0.80
Si -0.01  2.21 -10.57
Si -9.14  1.16 -5.69
Si  0.05 -2.36 10.58
Si  5.63 -5.79  7.24
Si  9.50 -4.67 -2.44
Si -10.78  1.06 -0.80
Si -2.62 -0.02 10.54
Si  2.59  0.03 -10.57
Si -4.23  4.62 -8.90
Si  9.19 -1.26  5.70
Si -9.53  4.68  2.42
Si -5.57  5.85 -7.32
Si 10.38 -2.34 -2.41
Si  1.71 -2.29 -10.54
Si -1.15  8.05 -7.29
Si -3.12 -10.44  0.78
Si 10.83 -1.17  0.80
Si -4.28  9.19 -4.08
Si -7.39 -3.46  7.27
Si  9.55  4.74 -2.46
Si -10.40  2.37  2.45
Si  7.37  3.54 -7.28
Si -7.35  5.81 -5.69
Si -1.74  2.32 10.58
Si -0.54 -8.14 -7.33
Si  4.27 -4.78  8.91
Si  1.84  2.29 10.58
Si -4.43 -4.66 -8.90
Si  4.73 -8.11 -5.72
Si  3.10 10.52 -0.79
Si -1.80 -2.45 -10.57
Si 10.46  2.37  2.45
Si  1.20 -8.15  7.30
Si -9.64 -4.72  2.46
Si -10.49 -2.34 -2.41
Si  4.40  4.69  8.94
Si -4.75  8.19  5.71
Si  7.41 -5.92  5.70
Si  0.57  8.21  7.39
Si  7.45  8.14  0.80
Si  4.32 -9.34  4.08
Si  4.51  9.28  4.08
Si  8.31  1.19  7.27
Si -7.40 -8.25 -0.80
Si -8.33 -1.11 -7.28
Si -2.22 -8.12  7.27
Si  3.84 -10.44  0.78
Si  2.20  8.20 -7.28
Si -4.47 -9.43 -4.08
Si -3.86 10.52 -0.79
Si -9.14 -3.46  5.67
Si -2.92  8.17  7.24
Si  5.97 -9.29  2.42
Si -0.09 -6.96  8.91
Si  2.98 -8.11 -7.32
Si  0.05  6.96 -8.94
Si -6.01  9.29 -2.44
Si  9.48 -4.67  4.08
Si  8.59 -6.99 -2.41
Si -3.45  2.37 -10.54
Si -9.51  4.69 -4.04
Si  3.50  2.37 -10.54
Si  3.42 -2.34 10.58
Si  8.74  6.86  2.41
Si -8.62  7.02  2.45
Si -3.53 -2.34 10.58
Si 10.39 -2.35  4.05
Si  4.33 -0.02 10.54
Si  9.20  3.52 -5.75
Si  6.56  5.81  7.30
Si -10.86 -3.42  0.90
Si -6.51 -5.92 -7.29
Si -8.70 -7.01 -2.41
Si -4.37  0.03 -10.57
Si -10.43  2.35 -4.08
Si  5.81  8.04  5.70
Si  6.17  9.33  2.42
Si 10.44  2.35 -4.08
Si  1.78  6.92  8.96
Si -1.88 -6.90 -8.95
Si -1.68  7.00  8.91
Si 10.89  3.50 -0.84
Si -6.20 -9.33 -2.44
Si  1.65 -7.00 -8.94
Si -10.47 -2.35  4.05
Si  9.68  4.62  4.08
Si -9.97 -1.10 -5.59
Si -5.76 -8.15 -5.69
Si  6.86 -2.24 -8.95
Si -9.64 -4.78 -4.08
Si  0.88  4.59 -10.53
Si -0.98 -4.57 10.53
Si  8.20 -3.48 -7.33
Si 10.00  1.17  5.65
Si 11.29 -0.02 -2.44
Si -0.83  4.63 10.54
Si -4.87 -10.44 -0.82
Si  6.95  2.26  8.96
Si  8.22 -8.08  0.90
Si -6.96  2.26  8.96
