500
set: 1480.00  0.00  0.00
Si  1.29 -0.15 -0.96
Si -0.39 -1.58  0.01
Si -0.06  2.14 -0.23
Si -1.57  1.06  1.13
Si  0.39  0.20  2.47
Si -2.44 -0.15 -0.96
Si  2.16  1.06  1.13
Si -0.93  0.96 -2.31
Si  1.64 -1.91  1.48
Si -2.09 -1.91  1.48
Si  0.32 -1.15 -3.30
Si  3.34 -1.58  0.01
Si  2.80  0.96 -2.31
Si  0.92  3.18  2.11
Si -0.90 -3.71 -1.23
Si -1.11 -0.90  3.83
Si  1.63  3.57 -1.23
Si -3.34  0.20  2.47
Si  0.83  1.82 -3.65
Si  3.68  2.14 -0.23
Si -2.10  3.57 -1.23
Si  0.80 -3.34 -2.68
Si -3.79  2.14 -0.23
Si -4.12 -1.58  0.01
Si -0.78  2.81  3.56
Si  2.62 -0.90  3.83
Si -2.81  3.18  2.11
Si -0.40  3.94 -2.68
Si  4.12  0.20  2.47
Si  2.83 -3.71 -1.23
Si -1.61 -4.09  2.11
Si -3.41 -1.15 -3.30
Si  1.27  1.39  4.55
Si -2.90  1.82 -3.65
Si  2.12 -4.09  2.11
Si  5.03 -0.15 -0.96
Si -1.72 -0.83 -4.77
Si -2.93 -3.34 -2.68
Si  2.01 -0.83 -4.77
Si  1.15 -5.13 -0.23
Si -4.67  0.96 -2.31
Si  4.05 -1.15 -3.30
Si -2.46  1.39  4.55
Si  2.95  2.81  3.56
Si  0.93 -2.34  4.79
Si -5.30  1.06  1.13
Si  0.44  5.37  1.48
Si  0.42 -4.46  3.56
Si -2.59 -5.13 -0.23
Si -0.03  0.61 -5.74
Si  3.33  3.94 -2.68
Si  5.37 -1.91  1.48
Si -1.59  5.69  0.01
Si -0.25  0.31  5.91
Si -1.38  2.90 -5.01
Si  4.65  3.18  2.11
Si -2.80 -2.34  4.79
Si -4.63 -3.71 -1.23
Si  2.14  5.69  0.01
Si  5.89  1.06  1.13
Si  4.57  1.82 -3.65
Si  4.53 -3.34 -2.68
Si -4.84 -0.90  3.83
Si -6.17 -0.15 -0.96
Si  2.35  2.90 -5.01
Si -5.82 -1.91  1.48
Si -4.13  3.94 -2.68
Si -0.37 -6.21  1.13
Si -4.51  2.81  3.56
Si -3.29  5.37  1.48
Si  5.36  3.57 -1.23
Si -3.31 -4.46  3.56
Si -0.18 -4.38 -5.01
Si  0.27 -6.32 -2.31
Si -1.70 -5.46 -3.65
Si -0.77 -2.66  6.26
Si  3.70  0.61 -5.74
Si  1.50 -2.95 -6.01
Si  3.48  0.31  5.91
Si  2.04 -5.46 -3.65
Si -0.27  4.94  4.79
Si -3.76  0.61 -5.74
Si  5.00  1.39  4.55
Si -5.84  3.57 -1.23
Si  4.17  5.37  1.48
Si  6.53  0.96 -2.31
Si -0.88  6.13 -3.30
Si -5.34 -4.09  2.11
Si -2.23 -2.95 -6.01
Si  4.15 -4.46  3.56
Si  4.66 -2.34  4.79
Si  4.88 -5.13 -0.23
Si -3.98  0.31  5.91
Si  3.36 -6.21  1.13
Si  0.09  7.13 -0.96
Si  7.07 -1.58  0.01
Si -5.45 -0.83 -4.77
Si  0.30  4.32 -6.01
Si  2.97 -2.66  6.26
Si  5.85 -4.09  2.11
Si  1.47  1.71 -7.10
Si -1.49  2.43  6.89
Si  6.35 -0.90  3.83
Si  1.72 -0.55  7.25
Si -7.07  0.20  2.47
Si  5.75 -0.83 -4.77
Si  2.85  6.13 -3.30
Si -4.10 -6.21  1.13
Si  3.55 -4.38 -5.01
Si -2.02 -0.55  7.25
Si -1.26 -5.89  4.55
Si  1.42  6.37  3.83
Si -3.46 -6.32 -2.31
Si -6.54  3.18  2.11
Si -1.24 -7.43 -0.96
Si  6.56 -3.71 -1.23
Si -2.26  1.71 -7.10
Si  2.25  2.43  6.89
Si  1.59 -7.08  2.47
Si  3.46  4.94  4.79
Si  7.41  2.14 -0.23
Si -3.91 -4.38 -5.01
Si -5.11  2.90 -5.01
Si -6.63  1.82 -3.65
Si -2.31  6.37  3.83
Si -2.14 -7.08  2.47
Si -5.33  5.69  0.01
Si -6.19  1.39  4.55
Si -7.52  2.14 -0.23
Si  4.00 -6.32 -2.31
Si  2.47 -5.89  4.55
Si  2.50 -7.43 -0.96
Si -0.53 -2.58 -7.46
Si -0.81  7.48  2.47
Si -6.67 -3.34 -2.68
Si -7.15 -1.15 -3.30
Si -4.00  4.94  4.79
Si  1.76  4.62  6.26
Si -7.86 -1.58  0.01
Si -1.97  4.62  6.26
Si -3.64  7.13 -0.96
Si  0.81  6.45 -4.77
Si  6.68  2.81  3.56
Si -6.32 -5.13 -0.23
Si  3.83  7.13 -0.96
Si -4.50 -2.66  6.26
Si -1.01 -0.39 -8.09
Si -3.43  4.32 -6.01
Si  5.87  5.69  0.01
Si  7.85  0.20  2.47
Si -4.62  6.13 -3.30
Si  6.08  2.90 -5.01
Si  2.92  7.48  2.47
Si -0.28 -4.85  6.89
Si  4.03  4.32 -6.01
Si -6.53 -2.34  4.79
Si  0.96  8.34  1.13
Si  5.24 -2.95 -6.01
Si  7.06  3.94 -2.68
Si  3.21 -2.58 -7.46
Si -5.43 -5.46 -3.65
Si  7.78 -1.15 -3.30
Si -2.92  6.45 -4.77
Si  2.72 -0.39 -8.09
Si  0.54  2.06  8.34
Si  1.60  8.23 -2.31
Si  5.77 -5.46 -3.65
Si -8.40  0.96 -2.31
Si  0.21 -1.66  8.61
Si  8.76 -0.15 -0.96
Si -2.13  8.23 -2.31
Si -0.49  2.57 -8.44
Si -2.77  8.34  1.13
Si  1.17 -6.67 -5.74
Si  0.81 -8.86  0.01
Si -5.96 -2.95 -6.01
Si -4.99 -5.89  4.55
Si -7.02  5.37  1.48
Si  5.21  1.71 -7.10
Si -4.26 -2.58 -7.46
Si -5.22  2.43  6.89
Si -1.73  4.69 -7.46
Si -4.97 -7.43 -0.96
Si  0.09 -8.18  3.83
Si  2.00  4.69 -7.46
Si  5.15  6.37  3.83
Si -7.04 -4.46  3.56
Si -1.06 -5.57 -7.10
Si  5.45 -0.55  7.25
Si -4.54  7.48  2.47
Si  3.45 -4.85  6.89
Si -3.19  2.06  8.34
Si -2.56 -6.67 -5.74
Si -9.04  1.06  1.13
Si  1.52 -8.43 -3.30
Si  0.95 -6.97  5.91
Si  5.32 -7.08  2.47
Si -7.87  3.94 -2.68
Si  8.38  3.18  2.11
Si  4.54  6.45 -4.77
Si -8.37 -3.71 -1.23
Si  8.30  1.82 -3.65
Si -5.75 -0.55  7.25
Si  8.26 -3.34 -2.68
Si -2.21 -8.43 -3.30
Si -2.92 -8.86  0.01
Si  7.21  0.31  5.91
Si -4.02 -4.85  6.89
Si -0.89 -9.18  1.48
Si -4.74 -0.39 -8.09
Si  3.24  2.57 -8.44
Si  2.67 -5.57 -7.10
Si -8.24  2.81  3.56
Si  7.43  0.61 -5.74
Si  9.10 -1.91  1.48
Si -0.52 -8.11 -4.77
Si -1.14  0.63  9.34
Si -8.57 -0.90  3.83
Si  5.98  2.43  6.89
Si -5.99  1.71 -7.10
Si -3.52 -1.66  8.61
Si -7.49  0.61 -5.74
Si  7.09 -6.21  1.13
Si -1.26  9.42 -0.23
Si -5.87 -7.08  2.47
Si  5.50  4.62  6.26
Si  6.70 -2.66  6.26
Si -2.78 -6.97  5.91
Si  6.58  6.13 -3.30
Si -6.04  6.37  3.83
Si  0.69 -0.07 -9.56
Si  4.28  2.06  8.34
Si  3.94 -1.66  8.61
Si  4.69  8.34  1.13
Si -5.70  4.62  6.26
Si  7.90  5.37  1.48
Si  0.71 -4.70 -8.44
Si  6.20 -5.89  4.55
Si  2.59  0.63  9.34
Si -7.71  0.31  5.91
Si -1.45  7.58  5.91
Si  2.84 -9.18  1.48
Si  7.88 -4.46  3.56
Si  6.23 -7.43 -0.96
Si -3.64 -8.18  3.83
Si  2.48  9.42 -0.23
Si  9.62  1.06  1.13
Si -4.22  2.57 -8.44
Si  0.07  8.66  4.55
Si  3.82 -8.18  3.83
Si -0.37  9.09 -3.65
Si -1.23  7.88 -5.74
Si  9.09  3.57 -1.23
Si -9.55 -1.91  1.48
Si -7.20 -6.32 -2.31
Si  7.28 -4.38 -5.01
Si  2.28  7.58  5.91
Si  0.51  6.72  7.25
Si  3.21 -8.11 -4.77
Si  8.39 -2.34  4.79
Si  8.73  1.39  4.55
Si -9.90 -0.15 -0.96
Si  7.19  4.94  4.79
Si  4.54 -8.86  0.01
Si  1.75 -5.22  8.34
Si  8.61 -5.13 -0.23
Si -3.04 -0.07 -9.56
Si -1.99 -5.22  8.34
Si -7.83 -6.21  1.13
Si  2.50  7.88 -5.74
Si  4.90 -6.67 -5.74
Si  5.33  8.23 -2.31
Si -3.02 -4.70 -8.44
Si -7.64 -4.38 -5.01
Si -1.48 -3.10  9.57
Si -9.07 -4.09  2.11
Si -4.79 -5.57 -7.10
Si  7.73 -6.32 -2.31
Si  4.68 -6.97  5.91
Si -9.57  3.57 -1.23
Si -7.37  7.13 -0.96
Si -7.16  4.32 -6.01
Si  6.65  7.48  2.47
Si  2.26 -3.10  9.57
Si -4.25 -8.11 -4.77
Si -0.99  5.62  8.61
Si -7.73  4.94  4.79
Si  6.46 -0.39 -8.09
Si  3.37  9.09 -3.65
Si -5.46  4.69 -7.46
Si -5.87  8.23 -2.31
Si -9.18 -0.83 -4.77
Si -4.62 -9.18  1.48
Si -3.22  6.72  7.25
Si -6.65  6.45 -4.77
Si  7.56  7.13 -0.96
Si -3.66  8.66  4.55
Si  5.25 -8.43 -3.30
Si  1.05  4.18  9.57
Si  3.80  8.66  4.55
Si  1.03  3.65 -9.79
Si  6.94 -2.58 -7.46
Si  5.74  4.69 -7.46
Si  4.42 -0.07 -9.56
Si -1.50 -3.62 -9.79
Si -4.87  0.63  9.34
Si 10.26  0.96 -2.31
Si -8.84  2.90 -5.01
Si -4.10  9.09 -3.65
Si  4.44 -4.70 -8.44
Si  9.59 -4.09  2.11
Si -6.50  8.34  1.13
Si  2.74  5.62  8.61
Si  9.48 -0.83 -4.77
Si -4.99  9.42 -0.23
Si -0.28 10.46  2.11
Si  2.23 -3.62 -9.79
Si -8.23 -2.66  6.26
Si -1.35  1.36 -10.52
Si -9.06  5.69  0.01
Si -0.82 -7.83  7.25
Si  1.52  6.88 -8.09
Si  7.76  4.32 -6.01
Si  1.08 -0.45 10.69
Si  4.25  6.72  7.25
Si -2.68  4.18  9.57
Si -2.70  3.65 -9.79
Si -6.29 -6.67 -5.74
Si 10.08 -0.90  3.83
Si -5.95 -8.43 -3.30
Si  1.75 10.09  3.56
Si -2.21  6.88 -8.09
Si -1.60 -9.62  4.79
Si -8.35  6.13 -3.30
Si  2.38  1.36 -10.52
Si -1.98 10.09  3.56
Si 10.80 -1.58  0.01
Si -5.18  7.58  5.91
Si  0.43 10.85 -1.23
Si -4.96  7.88 -5.74
Si  2.13 -9.62  4.79
Si -10.27  3.18  2.11
Si 10.29 -3.71 -1.23
Si -9.93  1.39  4.55
Si  0.18 -2.20 -10.79
Si -2.65 -0.45 10.69
Si -6.92  2.06  8.34
Si  0.30 -10.98 -1.23
Si  6.41 -5.57 -7.10
Si  2.92 -7.83  7.25
Si  7.18 -4.85  6.89
Si -1.73 -10.61 -2.68
Si -6.66 -8.86  0.01
Si -10.80  0.20  2.47
Si  2.00 -10.61 -2.68
Si -10.36  1.82 -3.65
Si  0.19 -7.67 -8.09
Si  9.60  5.69  0.01
Si  8.97 -2.95 -6.01
Si  3.45 10.46  2.11
Si -6.51 -6.97  5.91
Si -7.99 -2.58 -7.46
Si -10.40 -3.34 -2.68
Si  6.97  2.57 -8.44
Si  5.48 -5.22  8.34
Si -9.16 -5.46 -3.65
Si  6.21  9.42 -0.23
Si -10.05 -5.13 -0.23
Si  6.33  0.63  9.34
Si -4.72  5.62  8.61
Si -5.21 -3.10  9.57
Si  6.01  7.58  5.91
Si 11.14  2.14 -0.23
Si 10.41  2.81  3.56
Si -7.25 -1.66  8.61
Si -5.72 -5.22  8.34
Si  6.57 -9.18  1.48
Si  9.81  2.90 -5.01
Si -4.01 10.46  2.11
Si  1.15 10.18 -5.01
Si -3.31 10.85 -1.23
Si -8.27  7.48  2.47
Si -10.88 -1.15 -3.30
Si -7.75 -4.85  6.89
Si -11.25  2.14 -0.23
Si  0.27  8.99 -7.10
Si  0.06 -6.64  9.34
Si -8.72 -5.89  4.55
Si -8.70 -7.43 -0.96
Si  4.76  3.65 -9.79
Si  4.79  4.18  9.57
Si  8.28  6.45 -4.77
Si  8.94  1.71 -7.10
Si  9.50 -5.46 -3.65
Si -8.95  2.43  6.89
Si -10.26 -2.34  4.79
Si -0.41 -11.37  2.11
Si -3.55 -2.20 -10.79
Si  6.23  7.88 -5.74
Si -3.44 -10.98 -1.23
Si  0.56 -3.42 11.04
Si  8.88  6.37  3.83
Si -4.55 -7.83  7.25
Si -2.58 10.18 -5.01
Si -1.60 11.22 -2.68
Si  7.67 -1.66  8.61
Si -7.38 -8.18  3.83
Si  4.16 10.85 -1.23
Si -5.24 -3.62 -9.79
Si  3.91 -2.20 -10.79
Si -3.54 -7.67 -8.09
Si  6.95 -8.11 -4.77
Si -11.59 -1.58  0.01
Si  5.99 -3.10  9.57
Si  9.18 -0.55  7.25
Si -6.77 -0.07 -9.56
Si -8.47 -0.39 -8.09
Si -0.64  3.86 11.04
Si  2.13 11.22 -2.68
Si  4.81 -0.45 10.69
Si  8.01  2.06  8.34
Si  9.05 -7.08  2.47
Si  0.43 -9.94  6.26
Si  4.03 -10.98 -1.23
Si -5.09  1.36 -10.52
Si  7.55 -8.18  3.83
Si -9.69 -2.95 -6.01
Si -6.75 -4.70 -8.44
Si -0.16  1.67 11.67
Si 10.79  3.94 -2.68
Si  3.92 -7.67 -8.09
Si 11.59  0.20  2.47
Si  5.25  6.88 -8.09
Si -7.95  2.57 -8.44
Si  8.42  8.34  1.13
Si -1.03 -10.23 -6.01
Si  1.04  9.71  6.89
Si -9.48 -0.55  7.25
Si -3.46  8.99 -7.10
Si -1.02  5.08 -10.79
Si -0.51  7.20 -9.56
Si -3.17 -3.42 11.04
Si -5.33 -9.62  4.79
Si  5.48 10.09  3.56
Si  5.96 -3.62 -9.79
Si  3.32 -11.37  2.11
Si 11.51 -1.15 -3.30
Si -3.67 -6.64  9.34
Si  9.23  4.62  6.26
Si -0.15 -5.92 -10.52
Si  3.79 -6.64  9.34
Si -6.95  6.72  7.25
Si  7.10  9.09 -3.65
Si  3.09  3.86 11.04
Si -10.75  5.37  1.48
Si  8.27 -8.86  0.01
Si -0.69 -1.31 12.03
Si -5.71 10.09  3.56
Si  4.00  8.99 -7.10
Si  0.15  2.47 -11.88
Si  6.47  5.62  8.61
Si  9.71  2.43  6.89
Si -9.72  1.71 -7.10
Si -5.94  6.88 -8.09
Si  2.70 -10.23 -6.01
Si -9.60 -7.08  2.47
Si -10.77 -4.46  3.56
Si -1.84 -7.35 -9.56
Si -3.30 -9.94  6.26
Si -2.69  9.71  6.89
Si  1.89 -7.35 -9.56
Si -9.43  4.62  6.26
Si  2.71  5.08 -10.79
Si -5.46 -10.61 -2.68
Si  5.86 -9.62  4.79
Si  6.11  1.36 -10.52
Si -6.41  4.18  9.57
Si -7.39  8.66  4.55
Si -6.43  3.65 -9.79
Si -9.78  6.37  3.83
Si -4.14 -11.37  2.11
Si  1.39  7.91  9.34
Si  3.57  1.67 11.67
Si  8.63 -6.67 -5.74
Si  4.29 -3.42 11.04
Si -7.98 -8.11 -4.77
Si  4.88 10.18 -5.01
Si  7.53  8.66  4.55
Si  5.73 -10.61 -2.68
Si  1.62 -11.74  3.56
Si  0.67 -9.86 -7.46
Si -12.13  0.96 -2.31
Si  3.22  7.20 -9.56
Si -8.52 -5.57 -7.10
Si  9.93 -5.89  4.55
Si -3.89  1.67 11.67
Si  8.42 -6.97  5.91
Si 10.31  6.13 -3.30
Si 10.95  0.31  5.91
Si -2.11 -11.74  3.56
