500
set: 915.00  0.00  0.00
Si  0.45 -1.12  0.81
Si -0.41  1.18 -0.82
Si -1.35 -1.17 -0.81
Si  1.36  1.18  0.84
Si  0.87 -0.06 -2.47
Si -2.18  1.20  0.85
Si -0.86  0.01  2.50
Si  2.23 -1.20 -0.84
Si -0.00 -2.30 -2.45
Si  3.06  1.12 -0.85
Si  0.02  2.36  2.42
Si -3.15 -1.18  0.80
Si -2.60 -0.03 -2.48
Si  2.62  0.00  2.45
Si  0.47  3.51 -0.77
Si -0.53 -3.48  0.86
Si  1.22 -3.48 -0.81
Si -1.84 -2.29  2.42
Si -1.76  2.32 -2.50
Si -1.27  3.55  0.82
Si  1.75 -2.37  2.54
Si  1.79  2.39 -2.50
Si -3.87  1.21 -0.85
Si  0.84 -0.01  4.07
Si  3.94 -1.16  0.83
Si -0.88 -0.05 -4.12
Si -2.25 -3.55 -0.77
Si  2.19  3.58  0.86
Si -3.04  3.48 -0.85
Si  3.02 -3.51  0.81
Si  0.04  2.38 -4.07
Si -0.06 -2.40  4.08
Si  2.65  0.05 -4.04
Si -3.48  2.35  2.45
Si -2.64  0.03  4.09
Si  3.51  2.36  2.43
Si -3.50 -2.37 -2.47
Si  3.49 -2.36 -2.53
Si -4.39  0.01  2.41
Si -1.80 -2.33 -4.06
Si  1.80  2.33  4.08
Si -1.75  2.37  4.10
Si  1.74 -2.42 -4.09
Si  4.46  0.00 -2.44
Si  4.88  1.19  0.81
Si -4.91 -1.27 -0.80
Si  0.79 -4.70  2.43
Si -0.78  4.69 -2.47
Si -0.93 -4.67 -2.50
Si -3.99 -3.51  0.82
Si  3.94  3.58 -0.81
Si  0.88  4.77  2.42
Si  5.62 -1.27 -0.80
Si -5.64  1.19  0.81
Si  2.53 -4.69 -2.41
Si -3.49  2.34 -4.11
Si  0.45 -1.20 -5.74
Si -2.54  4.70  2.49
Si  3.49  2.35 -4.13
Si -3.50 -2.38  4.11
Si -0.44  1.20  5.76
Si -2.70 -4.70  2.42
Si  3.51 -2.38  4.16
Si -0.43  5.88  0.80
Si -4.36 -0.06 -4.10
Si  1.30  1.14 -5.74
Si  4.40 -0.01  4.08
Si -1.32 -1.15  5.75
Si  2.72  4.76 -2.45
Si -4.78  3.55  0.81
Si  0.34 -5.94 -0.85
Si  4.76 -3.58 -0.85
Si  1.37  5.89 -0.81
Si -1.36 -5.88  0.84
Si  2.13 -1.18  5.69
Si -2.14  1.15 -5.71
Si -2.19  5.79 -0.80
Si  5.25  2.37 -2.41
Si -5.27  2.37 -2.41
Si -0.78  4.67  4.11
Si -5.26 -2.37  2.49
Si  5.26 -2.37  2.49
Si  0.92  4.73 -4.06
Si  2.16 -5.87  0.81
Si  0.77 -4.71 -4.13
Si -0.92 -4.73  4.08
Si -6.06  0.00 -2.44
Si  6.13  0.01  2.41
Si  3.10  1.11  5.73
Si -3.11 -1.16 -5.72
Si  2.55 -4.62  4.11
Si  0.48  3.48  5.70
Si -3.13 -5.88 -0.82
Si -6.58 -1.16  0.83
Si -2.56  4.73 -4.07
Si  2.66  4.67  4.08
Si -2.68 -4.67 -4.07
Si -0.52 -3.54 -5.75
Si  3.17  5.94  0.81
Si  5.74  3.55  0.81
Si  6.65  1.21 -0.85
Si -5.76 -3.58 -0.85
Si  4.33 -4.70  2.45
Si -1.28  3.56 -5.72
Si -4.32  4.70 -2.53
Si  1.29 -3.48  5.78
Si  4.47  4.69  2.54
Si -4.47 -4.74 -2.50
Si  3.91 -1.09 -5.71
Si  5.24 -2.33 -4.07
Si -3.92  1.20  5.75
Si -5.28 -2.33 -4.07
Si  2.21  3.52 -5.75
Si -2.24 -3.58  5.70
Si  3.93 -5.85 -0.85
Si -3.86  5.90  0.83
Si -5.25  2.44  4.11
Si  5.27  2.44  4.11
Si -3.00  3.47  5.72
Si -6.13 -0.01  4.08
Si  3.04 -3.54 -5.74
Si  6.16 -0.06 -4.10
Si  0.43 -1.14  7.33
Si  0.12  7.04 -2.48
Si  6.54 -3.51  0.82
Si -0.10 -7.06  2.45
Si  7.37 -1.18  0.80
Si -0.48  1.24 -7.40
Si -6.58  3.58 -0.81
Si  4.87  1.15 -5.66
Si -4.85 -1.19  5.71
Si -4.29  4.68  4.16
Si  1.36  1.23  7.37
Si  4.32 -4.72 -4.11
Si -7.47  1.12 -0.85
Si -1.34 -1.17 -7.40
Si  4.46  4.64 -4.09
Si -1.67  7.07  2.41
Si  1.74 -7.06 -2.44
Si -4.47 -4.69  4.10
Si -4.90 -5.86  0.85
Si  4.95  5.86 -0.84
Si  1.86  7.07  2.50
Si -2.14  1.16  7.35
Si -1.85 -7.12 -2.47
Si  2.15 -1.17 -7.39
Si -7.01  2.36  2.43
Si  7.02 -2.37 -2.47
Si -4.00 -3.50 -5.72
Si  7.05  2.35  2.45
Si -7.03 -2.36 -2.53
Si  4.01  3.58  5.78
Si  3.11  1.16 -7.28
Si -3.12 -1.21  7.32
Si -6.06  4.69  2.54
Si  6.05 -4.74 -2.50
Si -5.65  1.15 -5.66
Si -0.07 -7.01 -4.04
Si -5.57  5.86 -0.84
Si  5.68 -1.19  5.71
Si  0.50  3.54 -7.32
Si -6.20 -4.70  2.45
Si  5.62 -5.86  0.85
Si  0.08  7.09  4.09
Si -3.34  7.06 -2.44
Si  6.21  4.70 -2.53
Si -0.49 -3.59  7.35
Si  3.41 -7.05  2.41
Si -0.39  5.90 -5.72
Si -1.24  3.50  7.34
Si  3.59  7.00 -2.47
Si -4.77  3.52 -5.74
Si  1.26 -3.53 -7.37
Si  0.38 -5.95  5.73
Si -7.90  0.00  2.45
Si -1.64  7.00 -4.10
Si  4.80 -3.59  5.72
Si -3.58 -7.05  2.50
Si  7.48  3.48 -0.85
Si  7.92 -0.03 -2.48
Si  0.54  8.26  0.85
Si -0.49 -8.26 -0.84
Si -7.50 -3.51  0.81
Si  1.68 -7.07  4.08
Si  1.84  7.01 -4.12
Si  1.22 -8.22  0.83
Si  1.40  5.92  5.75
Si -1.42 -5.92 -5.74
Si -1.88 -7.08  4.07
Si -3.90  1.17 -7.33
Si -1.15  8.27 -0.85
Si -8.29 -1.20 -0.84
Si -2.22 -3.52 -7.32
Si  2.23  3.47  7.35
Si  3.89 -1.16  7.41
Si  2.15 -5.91 -5.66
Si -2.13  5.87  5.71
Si  8.34  1.20  0.85
Si  7.04  2.34 -4.11
Si  7.03 -2.38  4.11
Si -7.04  2.35 -4.13
Si -7.01 -2.38  4.16
Si -2.27 -8.18  0.81
Si  2.31  8.24 -0.82
Si -6.06  4.64 -4.09
Si  6.05 -4.69  4.10
Si  3.10 -3.53  7.38
Si -3.03  3.54 -7.41
Si  3.17  5.86 -5.74
Si -2.92  8.25  0.81
Si -3.16 -5.86  5.76
Si -6.62 -1.09 -5.71
Si -6.21 -4.72 -4.11
Si -3.41  7.05  4.08
Si  4.85  1.17  7.29
Si  6.23  4.68  4.16
Si  6.60  1.20  5.75
Si -5.72 -3.59  5.72
Si -6.59 -5.85 -0.85
Si -7.88  0.05 -4.04
Si  2.90 -8.33 -0.80
Si  5.76  3.52 -5.74
Si  3.56  7.04  4.07
Si  7.89  0.03  4.09
Si -4.84 -1.17 -7.37
Si  3.44 -7.12 -4.10
Si  6.66  5.90  0.83
Si -3.60 -7.11 -4.12
Si  0.83  0.05 -8.96
Si  8.27 -3.55 -0.77
Si -3.96 -3.56  7.34
Si  3.88 -5.86  5.75
Si  3.98  3.53 -7.37
Si -0.89 -0.02  9.05
Si -5.18  7.06  2.45
Si -8.33  3.58  0.86
Si -3.90  5.96 -5.71
Si  5.20 -7.08 -2.48
Si  5.34  7.06  2.45
Si -5.32 -7.08 -2.48
Si -4.07 -8.23 -0.81
Si  4.08  8.23  0.84
Si -0.00 -2.35 -8.97
Si -9.17  1.18  0.84
Si  9.17 -1.17 -0.81
Si  8.69 -2.29  2.42
Si -5.67  1.17  7.29
Si  0.01  2.36  9.01
Si  6.53 -3.50 -5.72
Si -2.63  0.02 -9.00
Si  2.58  0.05  9.01
Si -0.40  5.85  7.32
Si  0.39 -5.90 -7.28
Si  5.69 -1.17 -7.37
Si -8.73  2.39 -2.50
Si  8.77  2.32 -2.50
Si -6.52  3.58  5.78
Si -4.70  3.53  7.38
Si  7.42 -1.16 -5.72
Si -8.78 -2.37  2.54
Si -7.42  1.11  5.73
Si  1.70 -2.41  8.97
Si  7.82 -4.70  2.42
Si -1.77 -2.35  8.99
Si -7.80  4.76 -2.45
Si  7.39 -5.88 -0.82
Si  4.77 -3.52 -7.41
Si -7.36  5.94  0.81
Si -1.36 -5.83  7.37
Si  4.65 -8.24  0.80
Si -1.79  2.35 -9.02
Si -4.75  8.18 -0.85
Si  1.81  2.41 -9.01
Si  4.85  5.88  5.69
Si -4.86 -5.92 -5.71
Si  1.38  5.89 -7.40
Si -7.99 -4.69 -2.41
Si  7.98  4.70  2.49
Si  2.13 -5.89  7.29
Si  5.17 -7.03  4.09
Si -2.12  5.88 -7.37
Si -5.16  7.11 -4.04
Si -5.36 -7.03  4.09
Si  0.96  9.38 -2.50
Si -0.76  9.41  2.45
Si  0.77 -9.42 -2.53
Si  5.37  7.11 -4.04
Si -0.97 -9.43  2.54
Si  8.73 -2.33 -4.06
Si -8.72  2.33  4.08
Si -3.54 -2.33 -8.97
Si  3.15  5.92  7.33
Si -3.20 -5.82 -7.40
Si  6.62  1.17 -7.33
Si  9.26  3.55  0.82
Si  3.52 -2.34 -9.01
Si  3.59  2.33  8.98
Si -5.67  5.88  5.69
Si -3.55  2.26  9.03
Si -9.30 -3.48 -0.81
Si -9.66 -0.06 -2.47
Si  8.78  2.37  4.10
Si  9.66  0.01  2.50
Si -8.78 -2.42 -4.09
Si  5.67 -5.92 -5.71
Si -4.40 -0.05  8.97
Si  7.85 -4.67 -4.07
Si -7.86  4.67  4.08
Si  0.58  8.21 -5.71
Si -6.63 -1.16  7.41
Si -5.75 -3.52 -7.41
Si  4.38  0.02 -9.01
Si  1.19 -8.15 -5.71
Si -0.59 -8.24  5.69
Si  5.82  3.53  7.38
Si -2.72 -9.36 -2.45
Si  5.77  8.18 -0.85
Si -2.55  9.43 -2.41
Si  7.52  3.47  5.72
Si  2.54 -9.43  2.49
Si -7.49 -3.54 -5.74
Si -7.97 -4.62  4.11
Si  2.74  9.42  2.42
Si  7.96  4.73 -4.07
Si -1.20  8.26  5.75
Si -5.87 -8.24  0.80
Si -6.94  7.00 -2.47
Si -10.07 -1.12  0.81
Si -0.82  4.73 -8.97
Si -0.91 -4.65 -9.01
Si  3.90 -5.89 -7.33
Si  8.34  5.79 -0.80
Si  0.87 -4.73  8.98
Si  0.95  4.71  8.99
Si  6.94 -7.05  2.50
Si  8.39  1.15 -5.71
Si -8.39 -1.18  5.69
Si 10.12  1.18 -0.82
Si -3.91  5.90  7.41
Si -8.36 -5.87  0.81
Si -0.77  9.40 -4.11
Si -7.11 -7.05  2.41
Si -2.27 -8.26 -5.74
Si  2.28  8.26  5.76
Si  0.97  9.43  4.10
Si  0.79 -9.44  4.16
Si  7.18  7.06 -2.44
Si -0.98 -9.47 -4.09
Si -2.93  8.21 -5.66
Si -2.51  4.74  8.97
Si -7.42  1.16 -7.28
Si  2.96 -8.25  5.71
Si  2.58 -4.69 -8.99
Si -6.54  3.53 -7.37
Si  6.56 -3.56  7.34
Si  7.41 -1.21  7.32
Si  9.64 -0.05 -4.12
Si  6.45 -8.23 -0.81
Si  2.72  4.71 -8.97
Si -6.45  8.23  0.84
Si -9.68 -0.01  4.07
Si -2.71 -4.70  9.01
Si  2.52 -9.39 -4.07
Si -6.64 -5.86  5.75
Si -0.32 10.54 -0.85
Si  6.63  5.96 -5.71
Si -4.86 -5.90  7.35
Si  0.30 -10.57  0.81
Si 10.00 -3.48  0.86
Si -0.89 -0.02 -10.59
Si  4.87  5.89 -7.39
Si -4.29  9.42  2.43
Si -5.23 -2.32  8.97
Si  2.76  9.45 -4.07
Si  4.30 -9.43 -2.47
Si -2.54  9.49  4.11
Si -5.22  2.37 -8.99
Si -2.77 -9.46  4.08
Si  5.29 -2.32  8.97
Si -1.50 -10.54 -0.81
Si  8.28 -3.58  5.70
Si -10.05  3.51 -0.77
Si -4.56 -9.35  2.42
Si  5.30  2.37 -8.99
Si -8.32  3.52 -5.75
Si -6.96  7.04  4.07
Si  0.83  0.05 10.68
Si  1.45 10.61  0.82
Si  6.92 -7.11 -4.12
Si  4.51  9.45 -2.50
Si  4.02  8.20 -5.74
Si -4.04 -8.21  5.75
Si  7.12  7.05  4.08
Si -2.06 10.61  0.81
Si -7.08 -7.12 -4.10
Si  6.12 -0.05  8.97
Si  2.04 -10.64 -0.85
Si  0.01  2.36 -10.63
Si -6.14  0.02 -9.01
Si  9.21 -1.15  5.75
Si -9.15  5.89 -0.81
Si -9.22  1.14 -5.74
Si  9.16 -5.88  0.84
Si -0.00 -2.35 10.66
Si  2.58  0.05 -10.63
Si  9.59 -4.67 -2.50
Si -2.63  0.02 10.64
Si  5.66 -5.90  7.35
Si -5.66  5.89 -7.39
Si -7.36  5.86 -5.74
Si -1.79  2.35 10.62
Si -9.64  4.77  2.42
Si -10.93  1.18 -0.82
Si  4.41  4.65  8.97
Si -4.28  4.72 -9.01
Si -10.50  2.36  2.42
Si -4.70  8.18  5.73
Si  7.37 -5.86  5.76
Si -1.77 -2.35 -10.64
Si -7.42 -3.53  7.38
Si  0.58  8.22  7.35
Si 10.52 -2.30 -2.45
Si -10.52 -2.30 -2.45
Si  1.81  2.41 10.63
Si 10.97 -1.12  0.81
Si  4.70 -8.22 -5.72
Si -3.25 -10.54  0.86
Si  3.19 10.57 -0.77
Si  1.70 -2.41 -10.67
Si  4.26 -4.80  9.03
Si 10.54  2.36  2.42
Si -1.18  8.22 -7.33
Si -0.57 -8.23 -7.39
Si -9.73 -4.70  2.43
Si  9.74  4.69 -2.47
Si  7.49  3.54 -7.41
Si  1.17 -8.22  7.41
Si -4.51 -4.71 -9.02
Si -4.32  9.41 -4.13
Si  4.31 -9.45  4.11
Si -4.52 -9.39 -4.06
Si  4.53  9.39  4.08
Si  8.38  1.16  7.35
Si -2.29 -8.20  7.33
Si -8.38 -1.17 -7.39
Si  7.60  8.25  0.81
Si  3.82 -10.57  0.82
Si -7.63 -8.33 -0.80
Si  2.24  8.30 -7.40
Si -3.86 10.64 -0.81
Si  5.97 -9.35  2.42
Si -2.96  8.23  7.29
Si -0.14 -7.01  9.01
Si -3.55  2.26 -10.62
Si -9.23 -3.48  5.78
Si  9.25  3.56 -5.72
Si  2.97 -8.23 -7.37
Si -9.60  4.73 -4.06
Si  3.52 -2.34 10.63
Si  0.09  7.08 -9.00
Si -8.66  7.07  2.50
Si  9.61 -4.73  4.08
Si -6.01  9.45 -2.50
Si -3.54 -2.33 10.66
Si  3.59  2.33 -10.66
Si 10.47 -2.40  4.08
Si  8.67 -7.12 -2.47
Si -10.48  2.38 -4.07
Si  4.38  0.02 10.62
Si -6.62 -5.89 -7.33
Si -1.68  7.01  8.97
Si -8.78 -7.06 -2.44
Si -1.89 -7.01 -8.96
Si -4.40 -0.05 -10.67
Si  6.23  9.42  2.43
Si  6.61  5.90  7.41
Si  5.82  8.18  5.73
Si  1.66 -7.04 -9.01
Si -6.22 -9.43 -2.47
Si 10.99  3.51 -0.77
Si  9.75  4.67  4.11
Si 10.57  2.38 -4.07
Si -6.93  2.33  8.98
Si  8.85  7.07  2.41
Si -5.83 -8.22 -5.72
Si -10.58 -2.40  4.08
Si -9.76 -4.71 -4.13
Si  6.98 -2.33 -8.97
Si  1.83  7.04  9.05
Si -8.30  3.47  7.35
Si  8.30 -3.52 -7.32
Si -11.05 -3.48  0.86
Si  6.98  2.26  9.03
Si -0.91 -4.65 10.63
Si -7.00 -2.34 -9.01
Si  8.25 -8.18  0.81
Si 11.39 -0.06 -2.47
Si -11.38  0.01  2.50
Si -10.08 -1.20 -5.74
Si -8.21  8.24 -0.82
