500
set: 947.00  0.00  0.00
Si  0.42 -1.15  0.81
Si -0.42  1.17 -0.80
Si  1.28  1.14  0.79
Si -1.32 -1.14 -0.81
Si  0.85  0.01 -2.40
Si -2.15  1.12  0.80
Si -0.86 -0.02  2.42
Si  2.16 -1.13 -0.84
Si -0.01 -2.29 -2.39
Si -0.02  2.30  2.42
Si  3.03  1.15 -0.81
Si -3.03 -1.16  0.81
Si -2.58  0.02 -2.41
Si  0.47  3.42 -0.81
Si  2.60 -0.01  2.44
Si -0.46 -3.45  0.81
Si  1.70 -2.29  2.43
Si -1.74 -2.29  2.40
Si -1.25  3.44  0.83
Si -1.69  2.32 -2.42
Si  1.76  2.30 -2.39
Si  1.25 -3.46 -0.81
Si  3.85 -1.14  0.80
Si  0.88 -0.01  4.01
Si -0.84  0.03 -4.03
Si -3.87  1.14 -0.80
Si  2.19  3.45  0.81
Si -2.17 -3.48 -0.81
Si  2.98 -3.44  0.80
Si -0.02 -2.29  4.03
Si  0.03  2.33 -4.01
Si -3.01  3.45 -0.82
Si -3.37  2.31  2.41
Si  3.40 -2.31 -2.40
Si  2.57 -0.00 -4.01
Si -2.57 -0.00  4.02
Si  3.45  2.30  2.41
Si -3.44 -2.30 -2.42
Si -1.72  2.29  4.00
Si -4.72 -1.17 -0.80
Si  1.72 -2.30 -4.01
Si -4.31 -0.00  2.40
Si -1.74 -2.30 -4.01
Si  4.31 -0.02 -2.41
Si  4.75  1.12  0.79
Si  1.74  2.31  4.01
Si  0.80 -4.60  2.41
Si -0.80  4.60 -2.42
Si -0.89 -4.60 -2.39
Si  3.89  3.44 -0.81
Si  0.90  4.61  2.40
Si -3.89 -3.46  0.83
Si -5.58  1.12  0.79
Si  3.43 -2.30  4.02
Si  0.41 -1.14 -5.63
Si -3.44  2.29 -4.02
Si  2.55 -4.58 -2.41
Si -0.42  1.15  5.64
Si -2.53  4.60  2.41
Si  5.62 -1.17 -0.80
Si -3.50 -2.29  4.02
Si  3.47  2.29 -4.04
Si -0.39  5.74  0.81
Si  0.39 -5.75 -0.81
Si  2.63  4.61 -2.39
Si -2.66 -4.60  2.42
Si  4.68 -3.45 -0.82
Si  4.32  0.01  4.00
Si  1.30  1.16 -5.62
Si -1.29 -1.12  5.63
Si -4.71  3.46  0.80
Si -4.33  0.01 -4.02
Si -1.36 -5.76  0.79
Si  1.32  5.76 -0.81
Si  2.15 -1.16  5.61
Si -5.14  2.32 -2.41
Si  5.16 -2.30  2.41
Si -2.08  5.73 -0.80
Si -2.18  1.16 -5.63
Si -5.18 -2.30  2.41
Si -0.91 -4.59  4.01
Si  0.90  4.60 -4.01
Si -0.86  4.61  4.02
Si  5.19  2.32 -2.41
Si  0.83 -4.61 -4.04
Si  2.11 -5.78  0.79
Si  6.02 -0.00  2.40
Si -6.02 -0.02 -2.41
Si  3.04  1.15  5.64
Si -3.04 -1.16 -5.64
Si -3.06 -5.73 -0.80
Si  3.07  5.76  0.81
Si -2.55  4.59 -3.99
Si  6.46  1.14 -0.80
Si -2.62 -4.57 -4.01
Si -6.48 -1.14  0.80
Si -0.45 -3.46 -5.63
Si  0.48  3.48  5.62
Si  2.54 -4.62  4.01
Si  5.62  3.46  0.80
Si  2.62  4.61  4.03
Si -5.65 -3.45 -0.82
Si -1.25  3.45 -5.63
Si -4.29  4.59 -2.40
Si  1.25 -3.45  5.64
Si  4.32 -4.59  2.41
Si -4.33 -4.58 -2.42
Si  4.34  4.61  2.43
Si  5.14 -2.31 -3.99
Si -5.15  2.27  4.01
Si -2.16 -3.42  5.62
Si  3.86 -1.18 -5.63
Si  5.18  2.27  4.01
Si -5.19 -2.31 -3.99
Si -3.87  1.14  5.66
Si  2.20  3.44 -5.63
Si  3.82 -5.76 -0.80
Si -3.83  5.76  0.80
Si -6.01  0.01  4.00
Si  6.00  0.01 -4.02
Si -3.01  3.46  5.63
Si  3.00 -3.44 -5.65
Si -0.05 -6.91  2.44
Si  0.06  6.92 -2.41
Si -6.44  3.44 -0.81
Si -0.42  1.16 -7.25
Si  6.44 -3.46  0.83
Si  0.44 -1.15  7.25
Si -7.30  1.15 -0.81
Si  7.30 -1.16  0.81
Si -1.34 -1.15 -7.23
Si -4.26  4.60  4.02
Si  4.25 -4.61 -4.02
Si  4.75  1.15 -5.63
Si -4.76 -1.16  5.62
Si  1.31  1.16  7.26
Si -1.67  6.90  2.40
Si  4.36  4.60 -4.01
Si -4.36 -4.61  4.00
Si  1.78  6.88  2.42
Si  1.67 -6.92 -2.41
Si -1.79 -6.89 -2.40
Si -4.79 -5.78  0.80
Si  4.80  5.77 -0.84
Si -2.12  1.15  7.23
Si  2.12 -1.15 -7.24
Si -6.89  2.30  2.41
Si  6.89 -2.30 -2.42
Si -3.89 -3.45 -5.63
Si  3.89  3.45  5.64
Si -6.93 -2.31 -2.40
Si  6.96  2.31  2.41
Si -3.01 -1.13  7.23
Si  3.02  1.16 -7.22
Si  6.00 -4.58 -2.42
Si -5.99  4.61  2.43
Si -6.02 -4.59  2.41
Si  6.04  4.59 -2.40
Si  0.07  6.90  4.02
Si -0.07 -6.90 -4.01
Si  5.57 -1.16  5.62
Si -5.58  1.15 -5.63
Si  0.46  3.43 -7.23
Si -0.47 -3.44  7.25
Si -5.53  5.77 -0.84
Si -3.38  6.88 -2.41
Si  3.38 -6.90  2.40
Si  5.54 -5.78  0.80
Si  0.40 -5.75  5.64
Si -0.40  5.75 -5.64
Si  0.50  8.02  0.80
Si  4.68 -3.44  5.63
Si -0.48 -8.03 -0.84
Si  1.27 -3.46 -7.21
Si  3.50  6.91 -2.40
Si -7.74 -0.01  2.44
Si  7.75  0.02 -2.41
Si -4.69  3.46 -5.65
Si -1.26  3.47  7.24
Si -3.51 -6.92  2.42
Si  7.32  3.45 -0.82
Si  1.68 -6.89  4.00
Si -1.34 -5.74 -5.62
Si -7.35 -3.44  0.80
Si  1.21 -8.04  0.80
Si -1.69  6.91 -4.02
Si -1.23  8.04 -0.80
Si  1.35  5.78  5.63
Si -1.77 -6.91  4.01
Si  1.80  6.93 -4.03
Si  6.83 -2.29  4.02
Si -6.86  2.29 -4.04
Si -3.85  1.15 -7.24
Si  3.87 -1.13  7.24
Si -8.17 -1.13 -0.84
Si  8.19  1.12  0.80
Si  6.89  2.29 -4.02
Si -2.19 -3.47 -7.23
Si -2.12  5.74  5.62
Si -6.91 -2.30  4.02
Si  2.18  3.46  7.25
Si  2.11 -5.75 -5.63
Si -2.22 -8.04  0.81
Si  2.22  8.07 -0.80
Si  5.97 -4.61  4.00
Si -5.97  4.60 -4.01
Si  2.99 -3.47  7.24
Si -2.99  3.45 -7.25
Si -2.94  8.02  0.79
Si  6.07  4.60  4.02
Si -3.06 -5.75  5.64
Si  3.06  5.76 -5.63
Si -6.08 -4.61 -4.02
Si  2.97 -8.07 -0.80
Si  3.36 -6.89 -4.02
Si -6.47 -1.18 -5.63
Si  6.46  1.14  5.66
Si -3.37  6.91  4.00
Si -5.65 -3.44  5.63
Si -3.48 -6.87 -4.03
Si  5.64  3.46 -5.65
Si -4.70 -1.14 -7.24
Si  3.52  6.89  4.01
Si  6.50  5.76  0.80
Si  4.72  1.14  7.25
Si -6.51 -5.76 -0.80
Si -7.76 -0.00 -4.01
Si  7.76 -0.00  4.02
Si  0.86 -0.00 -8.83
Si -8.15  3.45  0.81
Si -0.85 -0.03  8.84
Si  3.92  3.44 -7.21
Si -3.83  5.72 -5.63
Si  5.11 -6.88 -2.41
Si  8.16 -3.48 -0.81
Si -3.90 -3.43  7.24
Si -5.09  6.89  2.44
Si  3.82 -5.76  5.66
Si -5.22 -6.88 -2.41
Si  3.92  8.04  0.79
Si -3.96 -8.04 -0.81
Si  5.24  6.89  2.44
Si  9.01 -1.14 -0.81
Si  0.00  2.31  8.84
Si -0.04 -2.31 -8.86
Si -9.05  1.14  0.79
Si -2.57 -0.01 -8.81
Si -8.57  2.30 -2.39
Si  2.57 -0.01  8.83
Si  8.59 -2.29  2.40
Si  6.44 -3.45 -5.63
Si -6.44  3.45  5.64
Si  0.38 -5.74 -7.22
Si -5.61  1.14  7.25
Si  5.64 -1.14 -7.24
Si -0.37  5.77  7.23
Si -8.63 -2.29  2.43
Si  7.67 -4.60  2.42
Si  8.64  2.32 -2.42
Si -7.70  4.61 -2.39
Si -1.71  2.29 -8.84
Si -4.70  3.43  7.24
Si  7.27 -5.73 -0.80
Si -7.29  1.15  5.64
Si  7.29 -1.16 -5.64
Si  1.71 -2.30  8.84
Si  1.75  2.31 -8.84
Si  4.70 -3.45 -7.25
Si -7.27  5.76  0.81
Si -1.74 -2.28  8.85
Si  1.30  5.75 -7.23
Si -4.66  8.05 -0.81
Si  4.66 -8.06  0.81
Si  4.79  5.74  5.61
Si -7.78 -4.58 -2.41
Si -1.33 -5.74  7.26
Si  7.80  4.60  2.41
Si -4.82 -5.74 -5.63
Si -5.12  6.90 -4.01
Si -2.05  5.76 -7.24
Si  5.12 -6.90  4.02
Si  2.08 -5.76  7.25
Si  5.21  6.90 -4.01
Si -5.21 -6.90  4.02
Si  0.76 -9.21 -2.40
Si -0.73  9.21  2.41
Si -0.94 -9.19  2.43
Si  0.95  9.22 -2.42
Si -3.06 -5.74 -7.25
Si -3.40  2.28  8.85
Si  9.08  3.44  0.83
Si -5.54  5.74  5.61
Si  5.51 -5.74 -5.63
Si  3.48  2.32  8.81
Si  8.59 -2.30 -4.01
Si -9.09 -3.46 -0.81
Si  3.08  5.75  7.25
Si -8.60  2.31  4.01
Si -6.46 -1.13  7.24
Si  8.61  2.29  4.00
Si  9.47 -0.02  2.42
Si -9.48  0.01 -2.40
Si  3.43 -2.33 -8.86
Si -8.62 -2.30 -4.01
Si  6.48  1.15 -7.24
Si -3.47 -2.33 -8.85
Si  5.63  3.43  7.24
Si -5.63 -3.45 -7.25
Si  7.72 -4.57 -4.01
Si -0.49 -8.06  5.61
Si -4.33  0.00  8.83
Si  2.51 -9.20  2.41
Si  0.46  8.06 -5.63
Si  4.30  0.01 -8.85
Si -7.71  4.61  4.03
Si -2.50  9.22 -2.41
Si  7.32  3.46  5.63
Si -2.65 -9.19 -2.39
Si  2.62  9.20  2.42
Si  7.78  4.59 -3.99
Si -7.33 -3.44 -5.65
Si  5.67  8.05 -0.81
Si -5.67 -8.06  0.81
Si -7.79 -4.62  4.01
Si -1.23  8.04  5.66
Si  1.22 -8.07 -5.63
Si  0.84 -4.58  8.81
Si  8.15  1.16 -5.63
Si -8.18 -1.16  5.61
Si -0.82  4.57 -8.85
Si -0.90 -4.59 -8.84
Si -9.91 -1.15  0.81
Si  9.91  1.17 -0.80
Si  3.83 -5.75 -7.24
Si -6.83  6.91 -2.40
Si -3.82  5.77  7.24
Si  6.83 -6.92  2.42
Si  0.90  4.62  8.85
Si -0.80  9.19 -4.02
Si -2.23 -8.04 -5.63
Si  0.92  9.20  4.00
Si  0.79 -9.20  4.02
Si  6.95  6.88 -2.41
Si -0.93 -9.20 -4.01
Si  2.22  8.05  5.64
Si -8.22 -5.78  0.79
Si  8.26  5.73 -0.80
Si -6.96 -6.90  2.40
Si -6.42  3.44 -7.21
Si -2.94  8.05 -5.63
Si  2.93 -8.06  5.62
Si  6.43 -3.43  7.24
Si -9.46 -0.01  4.01
Si  2.53 -4.59 -8.85
Si  6.37 -8.04 -0.81
Si -2.55  4.59  8.85
Si -2.64 -4.59  8.84
Si  9.49  0.03 -4.03
Si  2.60  4.59 -8.86
Si -6.41  8.04  0.79
Si -2.51  9.18  4.01
Si  6.50  5.72 -5.63
Si -7.31  1.16 -7.22
Si  2.50 -9.21 -3.99
Si  7.32 -1.13  7.23
Si -6.51 -5.76  5.66
Si  0.34 -10.34  0.80
Si -2.66 -9.19  4.03
Si -0.37 10.35 -0.82
Si -4.76 -5.75  7.23
Si  4.77  5.75 -7.24
Si  2.67  9.23 -4.01
Si -4.24  9.20  2.41
Si  4.25 -9.20 -2.42
Si -4.38 -9.19  2.40
Si  1.39 10.34  0.83
Si -9.86  3.42 -0.81
Si -8.13  3.44 -5.63
Si  4.40  9.20 -2.39
Si -1.40 -10.36 -0.81
Si -6.81  6.89  4.01
Si -0.85 -0.03 -10.46
Si  5.14 -2.31  8.85
Si  8.17 -3.42  5.62
Si  9.88 -3.45  0.81
Si -5.16  2.31 -8.85
Si  0.86 -0.00 10.46
Si  6.85 -6.87 -4.03
Si  5.18  2.31 -8.85
Si -5.19 -2.31  8.85
Si -3.94 -8.02  5.63
Si  2.04 -10.35 -0.82
Si  3.94  8.06 -5.62
Si -2.07 10.36  0.80
Si  6.96  6.91  4.00
Si -6.97 -6.89 -4.02
Si  6.00  0.00  8.83
Si  8.97 -5.76  0.79
Si -0.04 -2.31 10.44
Si -9.03  1.16 -5.62
Si  0.00  2.31 -10.45
Si  9.04 -1.12  5.63
Si -6.03  0.01 -8.85
Si -9.01  5.76 -0.81
Si -9.43  4.61  2.40
Si  2.57 -0.01 -10.46
Si  9.45 -4.60 -2.39
Si  5.57 -5.75  7.23
Si -5.57  5.75 -7.24
Si -2.57 -0.01 10.48
Si  3.11 10.32 -0.81
Si  0.52  8.05  7.23
Si -1.74 -2.28 -10.45
Si -0.52 -8.05 -7.24
Si -3.10 -10.35  0.81
Si -4.26  4.57 -8.86
Si 10.31  2.30  2.42
Si 10.32 -2.29 -2.39
Si  1.71 -2.30 -10.46
Si -1.71  2.29 10.46
Si 10.76 -1.15  0.81
Si -10.76  1.17 -0.80
Si  7.27 -5.75  5.64
Si  1.75  2.31 10.46
Si -9.53 -4.60  2.41
Si  9.53  4.60 -2.42
Si -7.28  5.76 -5.63
Si -10.34 -2.29 -2.39
Si  4.29 -4.62  8.85
Si  4.19 -9.19  4.02
Si  4.35  4.60  8.84
Si -10.35  2.30  2.42
Si -4.35 -4.61 -8.84
Si -4.65  8.05  5.64
Si -7.34 -3.47  7.24
Si  4.65 -8.06 -5.64
Si  7.34  3.45 -7.25
Si  1.23 -8.03  7.24
Si -4.22  9.19 -4.04
Si -1.21  8.05 -7.24
Si  7.39  8.02  0.79
Si -4.38 -9.20 -4.01
Si -7.36 -8.07 -0.80
Si  4.38  9.21  4.01
Si  8.21  1.15  7.23
Si -8.21 -1.15 -7.24
Si -3.80 10.35 -0.81
Si -2.21 -8.05  7.25
Si  2.22  8.06 -7.25
Si  3.80 -10.36  0.83
Si  0.07  6.89 -8.81
Si  5.95 -9.19  2.40
Si -5.93  9.20 -2.39
Si -0.07 -6.91  8.83
Si -3.40  2.28 -10.45
Si  3.00 -8.04 -7.24
Si  9.43 -4.59  4.01
Si  9.08  3.45 -5.63
Si -2.97  8.04  7.25
Si -9.08 -3.45  5.64
Si -9.43  4.60 -4.01
Si  3.43 -2.33 10.44
Si  8.55 -6.89 -2.40
Si -8.55  6.88  2.42
Si -3.47 -2.33 10.45
Si  9.47  4.61  4.02
Si  3.48  2.32 -10.49
Si  6.09  9.20  2.41
Si -6.09 -9.20 -2.42
Si  4.30  0.01 10.44
Si -6.50 -5.75 -7.24
Si -10.30  2.33 -4.01
Si 10.31 -2.29  4.03
Si -9.50 -4.61 -4.04
Si  6.51  5.77  7.24
Si -4.33  0.00 -10.47
Si  8.66  6.90  2.40
Si -1.69  6.90  8.83
Si  1.79  6.87  8.84
Si -10.35 -2.29  4.03
Si  1.66 -6.89 -8.85
Si -8.66 -6.92 -2.41
Si -1.78 -6.90 -8.83
Si 10.36  2.33 -4.01
Si  5.68  8.05  5.64
Si -10.79 -3.45  0.81
Si 10.80  3.42 -0.81
Si -5.68 -8.06 -5.64
Si -6.85  2.32  8.81
Si  8.15 -3.47 -7.23
Si -0.82  4.57 10.45
Si  6.87 -2.33 -8.85
Si 11.19  0.01 -2.40
Si -8.16  3.46  7.25
Si  4.83 10.35  0.81
Si -11.20 -0.02  2.42
Si  8.11 -8.04  0.81
Si -0.90 -4.59 10.46
Si  0.90  4.62 -10.45
Si  9.91  1.15  5.64
