500
set: 840.00  0.00  0.00
Si -0.40  1.14 -0.85
Si  0.46 -1.19  0.82
Si -1.26 -1.17 -0.78
Si  1.36  1.15  0.80
Si -2.08  1.09  0.85
Si -0.82 -0.08  2.46
Si  2.23 -1.16 -0.82
Si  0.93 -0.03 -2.47
Si  0.01  2.16  2.50
Si -0.01 -2.23 -2.47
Si -3.02 -1.15  0.83
Si  3.16  1.17 -0.85
Si  2.60  0.02  2.46
Si -0.43 -3.47  0.75
Si -2.69 -0.12 -2.38
Si  0.41  3.48 -0.81
Si -1.25  3.39  0.86
Si -1.75  2.22 -2.42
Si  1.35 -3.42 -0.89
Si  1.73  2.32 -2.44
Si  1.76 -2.34  2.48
Si -1.84 -2.42  2.41
Si -0.91  0.01 -3.98
Si  2.18  3.39  0.82
Si -3.88  1.17 -0.83
Si  3.95 -1.15  0.86
Si -2.23 -3.49 -0.75
Si  0.96  0.10  4.15
Si -0.05 -2.19  4.05
Si -2.95  3.45 -0.83
Si -0.00  2.30 -4.07
Si  3.06 -3.49  0.80
Si -3.45  2.30  2.44
Si -2.51  0.08  4.11
Si  3.43 -2.42 -2.48
Si -3.56 -2.38 -2.38
Si  3.58  2.30  2.44
Si -4.27 -0.05  2.46
Si  2.61 -0.05 -4.21
Si  4.27 -0.15 -2.50
Si -4.80 -1.08 -0.81
Si -1.79 -2.30 -4.05
Si  1.72 -2.33 -4.11
Si  4.87  1.13  0.78
Si -1.77  2.35  4.12
Si  1.80  2.44  4.07
Si  0.83 -4.59  2.38
Si  0.84  4.57  2.46
Si -0.94 -4.62 -2.41
Si -0.95  4.58 -2.50
Si -3.97 -3.42  0.92
Si  3.91  3.58 -0.77
Si  0.39 -5.68 -0.77
Si -2.50  4.62  2.49
Si  0.43 -1.07 -5.71
Si  3.43  2.26 -4.12
Si -5.64  1.16  0.87
Si -3.51  2.37 -4.01
Si  5.67 -1.07 -0.81
Si  2.58  4.64 -2.41
Si  3.59 -2.29  4.02
Si -0.50  1.08  5.74
Si -3.53 -2.24  4.12
Si  2.59 -4.67 -2.50
Si -4.71  3.48  0.77
Si -0.45  5.84  0.92
Si -2.68 -4.70  2.46
Si  1.29  5.77 -0.75
Si  4.83 -3.41 -0.80
Si  4.46  0.07  3.97
Si -4.41 -0.01 -4.03
Si  1.32  1.23 -5.75
Si -1.34 -1.24  5.77
Si -0.90 -4.43  4.06
Si -1.34 -5.87  0.82
Si  5.14  2.30 -2.42
Si  0.91  4.57 -4.04
Si -5.26  2.23 -2.37
Si -2.26  1.14 -5.65
Si -2.14  5.76 -0.82
Si  2.16 -1.25  5.68
Si  0.77 -4.62 -4.11
Si  2.15 -5.80  0.81
Si  5.31 -2.32  2.42
Si -0.83  4.65  4.15
Si -5.32 -2.32  2.52
Si  3.03  1.04  5.66
Si -3.10 -1.12 -5.67
Si -0.44 -3.33 -5.68
Si  3.09  5.79  0.75
Si -3.10 -5.78 -0.81
Si  2.63 -4.66  3.93
Si -6.17 -0.12 -2.50
Si  6.20  0.02  2.43
Si  5.67  3.46  0.81
Si  0.42  3.40  5.75
Si  1.25 -3.52  5.56
Si -5.66 -3.50 -0.82
Si -6.55 -1.21  0.82
Si -2.61 -4.69 -4.04
Si -1.36  3.41 -5.65
Si -2.66  4.67 -4.07
Si  6.61  1.15 -0.86
Si -4.39  4.52 -2.44
Si  4.35  4.67  2.38
Si  2.62  4.83  4.06
Si  4.47 -4.62  2.42
Si -4.47 -4.68 -2.50
Si -3.85  5.71  0.85
Si -5.12  2.38  4.08
Si  3.92 -5.74 -0.81
Si  5.21 -2.24 -4.11
Si -3.87  1.20  5.71
Si -5.30 -2.31 -4.03
Si  2.20  3.56 -5.71
Si  5.29  2.40  4.08
Si -2.25 -3.51  5.76
Si  3.90 -1.20 -5.84
Si -6.06  0.06  4.03
Si -0.04  6.88 -2.38
Si  6.05  0.09 -4.11
Si  0.06 -6.96  2.44
Si -0.48  1.12 -7.27
Si  3.04 -3.44 -5.81
Si -3.06  3.49  5.77
Si  0.44 -1.06  7.33
Si -6.50  3.52 -0.81
Si  1.68  6.84  2.41
Si -7.34  1.15 -0.86
Si -1.34 -1.24 -7.28
Si  4.34 -4.58 -4.09
Si -4.26  4.66  4.08
Si  6.58 -3.55  0.85
Si  4.29  4.64 -4.11
Si -4.79 -1.15  5.70
Si  7.39 -1.21  0.82
Si  1.62 -6.96 -2.42
Si  4.74  1.08 -5.78
Si -1.79 -6.94 -2.44
Si -4.34 -4.61  4.15
Si  1.31  1.30  7.36
Si -1.80  6.94  2.52
Si -4.77 -5.87  0.86
Si  3.83  3.47  5.64
Si  4.87  5.84 -0.89
Si  6.87 -2.38 -2.43
Si -6.89  2.40  2.45
Si -3.99 -3.49 -5.61
Si  2.07 -1.17 -7.40
Si  7.05  2.40  2.45
Si -2.23  1.15  7.43
Si -7.08 -2.38 -2.43
Si -5.96  4.63  2.42
Si -6.02 -4.64  2.49
Si  0.42  3.38 -7.26
Si  6.11  4.59 -2.50
Si  6.03 -4.74 -2.44
Si -0.45 -3.40  7.28
Si -0.47  5.77 -5.61
Si  5.54 -1.10  5.76
Si  0.31 -5.79  5.64
Si  3.53 -6.86  2.45
Si -3.12 -1.21  7.38
Si -3.56  6.88 -2.43
Si -5.70  1.18 -5.66
Si -7.75  0.02  2.43
Si -0.09 -7.00 -4.12
Si -1.72 -6.83  4.07
Si  3.01  1.10 -7.47
Si -0.36 -8.09 -0.85
Si -5.60  5.85 -0.80
Si -0.01  7.02  4.12
Si  5.71 -5.78  0.77
Si  7.77 -0.12 -2.50
Si  0.50  8.11  0.83
Si  1.77 -6.86  4.08
Si  4.80 -3.44  5.65
Si -1.32 -5.70 -5.71
Si -4.81  3.45 -5.67
Si -7.37 -3.55  0.85
Si -1.78  6.95 -4.03
Si  1.73  6.96 -4.05
Si  1.27  5.75  5.76
Si  3.51  7.03 -2.47
Si -1.34  3.51  7.36
Si  7.44  3.52 -0.81
Si  1.35 -8.13  0.78
Si  1.27 -3.59 -7.38
Si -3.51 -7.10  2.50
Si -1.28  8.18 -0.81
Si -8.27 -1.07 -0.81
Si  6.94 -2.20  4.15
Si  3.88 -1.18  7.35
Si -3.91  1.16 -7.34
Si -6.97  2.37 -4.05
Si  6.97  2.37 -4.05
Si  2.12 -5.81 -5.69
Si -2.16  5.80  5.70
Si -2.26 -3.55 -7.29
Si -2.16 -8.11  0.80
Si  8.30  1.16  0.87
Si -7.00 -2.20  4.15
Si  2.26  8.09 -0.78
Si  2.18  3.57  7.33
Si  2.98 -3.54  7.25
Si  6.15  4.60  3.93
Si -3.03  8.05  0.82
Si -3.02  3.48 -7.33
Si -6.08  4.68 -4.09
Si  3.45 -6.89 -4.05
Si  6.17 -4.60  4.08
Si -6.18 -4.59 -4.07
Si  5.64  3.45 -5.69
Si  3.09 -8.11 -0.86
Si -6.47 -5.81 -0.83
Si  6.59  1.12  5.63
Si  4.80  1.20  7.22
Si -6.57 -1.10 -5.67
Si -5.67 -3.46  5.70
Si  3.08  5.92 -5.68
Si -3.10 -5.86  5.75
Si  6.58  5.77  0.80
Si -4.82 -1.14 -7.26
Si -3.52 -6.96 -4.07
Si  3.46  7.07  4.05
Si  7.89  0.06  4.03
Si -7.89  0.09 -4.11
Si -3.48  7.06  4.15
Si -5.11  6.94  2.42
Si  3.93 -5.80  5.62
Si  3.92  3.38 -7.35
Si -8.27  3.46  0.81
Si  0.87  0.20 -8.97
Si  8.29 -3.50 -0.82
Si  5.16 -7.03 -2.37
Si -0.86 -0.05  9.00
Si  3.98  8.07  0.82
Si  5.28  6.92  2.48
Si -3.92 -8.12 -0.85
Si -3.93  5.85 -5.73
Si -4.03 -3.48  7.38
Si -5.27 -7.04 -2.42
Si -9.07  1.13  0.78
Si  0.05 -2.20 -8.96
Si  9.14 -1.08 -0.81
Si -2.58  0.01 -8.88
Si -6.49  3.46  5.62
Si -8.63 -2.32  2.42
Si  8.62 -2.32  2.52
Si  8.68  2.23 -2.37
Si  2.52  0.01  8.93
Si -0.04  2.34  8.98
Si  4.77  5.74  5.56
Si  6.50 -3.41 -5.73
Si -7.35  1.12  5.63
Si -5.69  1.23  7.30
Si  1.26  5.71 -7.29
Si  7.37 -1.10 -5.67
Si  1.67 -2.36  8.91
Si -1.34 -5.69  7.33
Si -7.36  5.77  0.80
Si -0.51  5.78  7.38
Si -1.77  2.39 -8.92
Si -8.80  2.30 -2.42
Si -7.83  4.59 -2.50
Si  0.40 -5.88 -7.35
Si  5.70 -1.18 -7.42
Si -1.76 -2.32  8.97
Si  4.78 -8.10  0.87
Si  1.71  2.43 -8.98
Si -4.82  3.53  7.36
Si  0.83  9.14 -2.38
Si -4.88 -5.85 -5.65
Si  2.14 -5.82  7.20
Si  7.48 -5.81 -0.83
Si -4.75  8.19 -0.81
Si  4.83 -3.51 -7.40
Si  7.92 -4.64  2.49
Si -7.91 -4.74 -2.44
Si  7.99  4.63  2.42
Si -0.75  9.21  2.46
Si -2.11  5.82 -7.32
Si  5.30 -6.88  4.08
Si -0.92 -9.24  2.46
Si  5.23  6.93 -4.11
Si -5.29 -6.91  4.12
Si -5.21  7.02 -4.11
Si  0.76 -9.41 -2.50
Si -9.12 -3.41 -0.80
Si  5.66  3.44  7.20
Si  8.64 -2.31 -4.03
Si -3.10 -5.88 -7.26
Si -2.65  9.14 -2.50
Si  3.07  5.86  7.28
Si  3.47  2.30  8.92
Si -3.52 -2.29 -8.91
Si -5.63 -3.44 -7.32
Si -7.79  4.60  3.93
Si -8.66  2.40  4.08
Si -5.63  5.82  5.65
Si  5.62 -5.81 -5.67
Si  2.69  9.18  2.46
Si  3.53 -2.23 -8.95
Si  9.23  3.48  0.77
Si  7.76 -4.59 -4.07
Si -8.73 -2.24 -4.11
Si -7.78 -4.60  4.08
Si  2.68 -9.24  2.43
Si  0.42  8.14 -5.67
Si -5.60 -8.17  0.85
Si -6.57 -1.18  7.36
Si  6.56  1.18 -7.38
Si -3.54  2.33  9.00
Si  7.45  3.46  5.62
Si -2.59 -9.29 -2.47
Si  5.75  8.10 -0.82
Si  9.67 -0.05  2.46
Si -9.67 -0.15 -2.50
Si -0.49 -8.22  5.66
Si -4.42  0.05  8.96
Si -7.45 -3.41 -5.73
Si -1.27  8.11  5.70
Si  3.78 -5.74 -7.27
Si  8.82  2.38  4.08
Si -0.80 -4.53 -8.89
Si  7.86  4.68 -4.09
Si  0.85 -4.67  8.82
Si  0.94 -9.19  3.97
Si  6.95  6.84 -2.48
Si  8.24  1.18 -5.66
Si -8.23 -5.78  0.77
Si  1.22 -8.18 -5.78
Si -6.99  6.84 -2.48
Si -9.99 -1.15  0.86
Si  4.39 -0.04 -9.11
Si -0.74  4.70 -8.93
Si  2.18  8.02  5.77
Si -2.20 -8.03 -5.75
Si -0.89  9.25 -4.03
Si  6.97 -6.96  2.44
Si -6.97 -6.96  2.44
Si 10.07  1.17 -0.83
Si -3.94  5.81  7.37
Si  0.84  4.65  9.05
Si  8.34  5.85 -0.80
Si  1.01  9.34  4.11
Si -8.41 -1.10  5.76
Si -0.91 -9.31 -4.21
Si -9.48  0.07  3.97
Si  9.54 -0.01 -4.03
Si  3.07 -8.13  5.63
Si  2.53 -9.18 -4.11
Si -2.56 -9.15  4.15
Si -3.05  8.16 -5.67
Si  6.48 -3.45  7.37
Si -6.47  8.11  0.86
Si  2.61  9.27 -3.98
Si  2.72  4.73 -8.89
Si  6.55 -8.10 -0.83
Si  0.43 -10.41  0.86
Si -6.64  3.52 -7.27
Si  4.79  5.67 -7.38
Si -0.36 10.43 -0.83
Si -2.65  4.63  9.00
Si -2.54  9.32  4.03
Si -4.23  9.28  2.43
Si -6.58 -5.77  5.77
Si  7.37 -1.18  7.36
Si  1.44 10.35  0.85
Si -2.67 -4.61  9.05
Si  2.70 -4.57 -9.07
Si -7.38  1.18 -7.38
Si  6.56  5.82 -5.81
Si -4.86 -5.75  7.36
Si -1.29 -10.42 -0.82
Si  4.45  9.23 -2.47
Si  6.92 -6.89 -4.01
Si -6.84  6.97  4.02
Si  2.15 -10.33 -0.81
Si  9.97 -3.42  0.92
Si -4.34 -9.34  2.46
Si -5.24  2.42 -8.88
Si  4.25 -9.38 -2.50
Si -0.92 -0.07 -10.58
Si  8.27 -3.46  5.70
Si -7.03 -6.89 -4.01
Si  5.21 -2.26  8.99
Si -8.30  3.45 -5.69
Si  0.82  0.02 10.63
Si -2.12 10.42  0.87
Si -10.04  3.58 -0.77
Si -5.27 -2.26  9.03
Si  7.11  6.97  4.02
Si  3.95  8.19 -5.71
Si  5.35  2.33 -9.02
Si -4.02 -8.18  5.74
Si -6.01  0.03 -8.95
Si -9.48 -4.62  2.42
Si  6.09  0.06  8.94
Si -9.07  5.84 -0.89
Si -0.03 -2.31 10.59
Si  9.55  4.52 -2.44
Si  9.15 -1.15  5.70
Si -0.07  2.20 -10.62
Si  9.47 -4.68 -2.50
Si  4.37  4.59  8.82
Si -2.71 -0.04 10.53
Si  5.61 -5.73  7.36
Si -10.79  1.17 -0.85
Si  3.12 10.39 -0.85
Si  7.30  3.52 -7.27
Si  4.29 -4.54  8.92
Si -4.26 -4.56 -8.93
Si -10.36  2.30  2.44
Si  1.28 -8.06  7.22
Si -5.59  5.75 -7.40
Si -3.06 -10.45  0.82
Si 10.38 -2.38 -2.38
Si  9.17 -5.87  0.86
Si -9.20  1.08 -5.78
Si  0.40  8.05  7.38
Si -9.60  4.67  2.38
Si  4.73 -8.09 -5.66
Si  4.37 -9.20  4.03
Si -1.75 -2.48 -10.53
Si -1.30  8.12 -7.26
Si  2.59  0.03 -10.66
Si  1.75  2.41 10.56
Si  7.36 -5.77  5.77
Si -7.39 -8.10 -0.83
Si  1.82 -2.33 -10.60
Si -4.43 -9.25 -3.98
Si 10.49  2.30  2.44
Si 10.92 -1.15  0.83
Si -4.29  4.68 -9.00
Si -1.80  2.25 10.66
Si -7.46 -3.45  7.37
Si  2.18  8.02 -7.28
Si -7.38  5.82 -5.81
Si  7.47  8.11  0.86
Si -2.21 -7.96  7.36
Si -10.51 -2.42 -2.48
Si -0.51 -8.16 -7.47
Si  8.25  1.23  7.30
Si -4.37  9.35 -4.11
Si -3.82 10.41 -0.86
Si -4.89  8.16  5.76
Si -8.25 -1.18 -7.42
Si  4.48  9.37  4.15
Si  3.87 -10.47  0.82
Si -6.15  9.11 -2.50
Si -9.15 -3.44  5.65
Si  9.13  3.45 -5.67
Si  6.49  5.72  7.25
Si -0.05 -6.96  8.92
Si -0.00  6.97 -8.91
Si -3.56  2.31 -10.51
Si -10.36 -2.29  4.02
Si  5.68  8.01  5.68
Si -3.05  8.08  7.36
Si -8.66  6.92  2.48
Si  3.04 -8.08 -7.38
Si  3.53  2.28 -10.55
Si -4.26 -0.02 -10.54
Si  3.38 -2.32 10.61
Si  6.12  9.28  2.46
Si  4.35 -0.03 10.53
Si -9.60 -4.58 -4.09
Si -6.54 -5.78 -7.33
Si 10.41 -2.24  4.12
Si 10.43  2.37 -4.01
Si  8.67 -7.04 -2.42
Si  6.15 -9.31  2.46
Si -1.81 -6.83 -8.98
Si  9.60 -4.61  4.15
Si -3.51 -2.40 10.61
Si -10.88 -3.49  0.80
Si -5.78 -8.12 -5.65
Si -9.65  4.64 -4.11
Si  1.75  6.94  8.97
Si  8.83  6.94  2.42
Si -8.78 -7.03 -2.37
Si -6.21 -9.38 -2.38
Si  9.68  4.66  4.08
Si -4.78 -10.43 -0.78
Si 11.25 -0.12 -2.38
Si -8.28  3.44  7.20
Si -10.51  2.26 -4.12
Si -6.88 -2.26 -8.96
Si  1.83 -6.93 -9.02
Si  4.88 10.41  0.80
Si  0.94  4.54 -10.57
Si 10.99  3.45 -0.83
Si -8.20  8.10 -0.82
Si -1.75  7.00  9.03
Si -0.83 -4.65 10.56
Si  0.85 -4.62 -10.58
Si  6.97  2.40  8.93
Si -10.02 -5.74 -0.81
Si -6.98  2.40  8.93
