500
set: 155.00  0.00  0.00
Si -0.01 -0.05 -0.03
Si -1.81  1.03  0.78
Si  0.02  0.03 -2.24
Si  0.04 -2.13  0.70
Si  1.89  0.99  0.73
Si  1.79  3.09  0.03
Si -1.81  3.10  0.01
Si -0.02 -2.10  2.93
Si -1.82 -1.01 -2.95
Si  1.79  1.07  2.96
Si -3.63 -0.04 -0.02
Si  1.85 -1.04 -2.96
Si -1.83 -3.16 -0.01
Si  1.85 -3.16 -0.00
Si -1.89  1.02  2.98
Si -0.06  2.10 -3.03
Si  3.69 -0.04 -0.02
Si  1.74  3.09 -2.16
Si -0.04  2.15  3.62
Si -1.76 -3.15 -2.19
Si  1.75 -0.97  3.74
Si -3.63  0.08 -2.25
Si -1.85 -1.04  3.71
Si -1.89  3.14 -2.22
Si  3.65 -2.09  0.80
Si -0.07  4.22  0.74
Si  1.86 -3.16 -2.25
Si -3.67 -2.14  0.72
Si  3.72 -0.08 -2.24
Si  3.53  2.03 -2.94
Si  3.57 -2.01  3.05
Si -3.66 -2.08  2.96
Si  0.07 -4.24 -2.93
Si -0.06  4.31  2.98
Si -3.75  2.15 -3.04
Si -5.39  1.06  0.72
Si  3.63  4.14  0.71
Si  0.09 -4.20  3.66
Si -1.79 -1.10 -5.17
Si  5.43  1.07  0.77
Si -3.57  4.24  0.74
Si -1.81 -5.26  0.67
Si  1.80 -1.05 -5.22
Si  3.58  2.20  3.77
Si  1.84 -5.29  0.72
Si -3.67  2.14  3.74
Si  0.08  2.15 -5.26
Si  1.81  5.15 -2.93
Si -0.06  2.10  5.83
Si -1.77 -5.22  2.90
Si -5.38  3.16  0.00
Si  5.35  1.05  3.05
Si  1.91 -5.20  2.90
Si -3.58  4.20  2.95
Si  5.44  3.13 -0.07
Si -1.82  5.24 -2.95
Si -5.41 -3.20 -0.15
Si -0.01  6.29 -0.01
Si -1.78 -1.05  5.95
Si -1.77  0.99 -5.96
Si  1.81  1.05 -5.94
Si -3.58 -4.24 -2.99
Si  3.61  4.25  2.93
Si  5.47 -3.13  0.19
Si -5.48 -0.97 -3.00
Si -5.47  1.13  2.95
Si  0.00 -2.12 -5.96
Si  1.82 -1.00  5.98
Si  3.75 -4.20 -2.91
Si  0.01 -6.34  0.07
Si  5.52 -1.19 -2.95
Si  3.61  2.06 -5.14
Si  5.37  3.12 -2.32
Si  0.00  6.25 -2.23
Si -0.10 -6.29 -2.13
Si  3.63 -4.13  3.73
Si -3.62  1.95 -5.22
Si  0.06 -4.21 -5.15
Si  5.43 -1.03  3.70
Si -3.59 -4.20  3.72
Si -5.40 -0.99  3.79
Si -5.40 -3.12 -2.37
Si  1.80  5.31  3.65
Si  5.54 -3.24 -2.02
Si -0.03  0.04  6.74
Si -5.54  3.22 -2.24
Si -1.87  5.29  3.87
Si -0.06 -4.16  5.89
Si -3.56  6.27 -0.04
Si -7.24  0.03  0.10
Si -3.72 -2.06 -5.87
Si  3.62 -2.09 -5.93
Si  3.67  6.27 -0.03
Si -3.61 -6.33 -0.03
Si -3.66  2.12  5.95
Si  7.31  0.03  0.10
Si  3.56  2.15  6.02
Si  3.71 -6.33 -0.04
Si -0.06  4.24 -6.00
Si -7.14 -2.10  0.70
Si  7.21 -0.00 -2.16
Si -1.76  7.30  0.80
Si  3.60  6.26 -2.24
Si -3.68  6.20 -2.29
Si  1.75  3.15  6.66
Si  1.84  7.33  0.69
Si  1.72  5.27 -5.19
Si  1.72 -3.13  6.70
Si  3.71 -4.17 -5.15
Si  5.43 -1.07 -5.21
Si -1.84  3.13  6.68
Si -5.44 -5.28  0.69
Si -3.58 -4.21 -5.23
Si -3.56  0.03  6.73
Si  3.70 -0.01  6.66
Si -1.88  5.23 -5.21
Si -1.88 -3.17  6.67
Si -7.34 -0.00 -2.16
Si -3.68 -6.35 -2.24
Si -5.53 -1.05 -5.23
Si  3.59 -6.40 -2.29
Si  5.52 -5.30  0.80
Si  7.42 -2.10  0.70
Si  1.84  5.21  5.83
Si -7.21 -2.01  2.93
Si  3.53  4.19 -5.89
Si -5.44 -5.16  2.93
Si  1.68 -7.31 -2.98
Si -3.67  4.05 -5.94
Si  7.21  2.09 -2.97
Si  1.90 -5.22 -5.86
Si  5.51  1.10 -5.83
Si  5.42  5.24 -3.03
Si -1.72 -5.24 -5.97
Si  3.53 -4.21  6.00
Si -5.38 -1.02  6.02
Si  5.43 -5.26  3.02
Si -1.85  7.34  3.02
Si  7.35 -2.01  2.93
Si -1.86 -7.36 -3.03
Si  5.55 -1.04  5.92
Si -7.34  2.09 -2.97
Si -5.44  1.01 -6.06
Si  1.84  7.45  2.93
Si -3.67 -4.34  5.95
Si -1.77  5.30  6.06
Si -5.60  5.29 -2.98
Si  7.20  2.14  3.67
Si -1.84 -7.31  3.70
Si  1.88 -7.32  3.69
Si -5.39  5.29  3.69
Si  7.28  4.16  0.75
Si -7.28  4.16  0.75
Si  5.44  5.29  3.70
Si -1.84  1.09 -8.19
Si -0.07 -2.07 -8.21
Si -0.01 -8.45  0.75
Si  1.88  1.08 -8.20
Si -7.35  2.14  3.67
Si -0.01  0.07 -8.85
Si -0.01 -8.33  3.04
Si -7.25 -4.21 -2.92
Si  0.03  8.39 -2.92
Si  7.31 -4.21 -2.92
Si  7.27  4.27  3.04
Si  0.03 -0.01  8.97
Si -7.28  4.27  3.04
Si  0.07 -6.25  6.63
Si -7.18  2.13 -5.21
Si -5.44  7.31  0.72
Si  7.26 -4.16  3.68
Si -3.70 -2.01 -8.12
Si  3.60 -2.06 -8.15
Si  5.45 -3.19  6.62
Si -7.29 -4.16  3.68
Si -5.42  5.25 -5.20
Si -5.43 -3.15  6.69
Si  3.70 -8.36  0.74
Si  5.47  7.34  0.67
Si -5.47  3.15  6.66
Si  1.85 -7.35 -5.20
Si  5.45  5.21 -5.27
Si  0.10  6.33  6.68
Si -0.01  8.44  3.68
Si  5.49  3.10  6.71
Si -9.12  1.07  0.77
Si  0.10  4.20 -8.23
Si -3.65 -8.46  0.71
Si  9.16  1.06  0.72
Si -1.83 -7.40 -5.27
Si  7.37  2.13 -5.21
Si -3.52  8.40 -2.91
Si -5.45 -5.20 -5.91
Si -1.92 -3.15 -8.84
Si -3.67 -8.35  2.93
Si -9.04 -1.19 -2.95
Si  1.87  9.40 -0.15
Si -5.37  7.40  2.90
Si -7.27  6.26  0.07
Si -1.76  3.01  8.94
Si  7.29  6.26  0.07
Si -9.08 -3.13  0.19
Si  9.08 -0.97 -3.00
Si -7.27  2.08  5.93
Si  5.51  5.19  5.92
Si  9.08  1.13  2.95
Si -1.78  7.35 -5.94
Si  7.28  2.08  5.93
Si  1.80 -3.07 -8.93
Si  7.26 -6.31 -0.01
Si  1.81 -7.35  5.94
Si  5.45 -7.36 -2.95
Si  3.70  8.36 -2.99
Si  1.80  3.23  8.89
Si  1.90 -9.44  0.00
Si -5.47  5.25  5.94
Si  3.70 -0.03  8.89
Si -9.11  3.13 -0.07
Si -7.29 -6.31 -0.01
Si -1.80  9.47  0.19
Si  3.70 -8.40  2.95
Si  1.83  7.40 -5.91
Si -1.84 -9.47 -0.07
Si  5.49 -5.25 -5.94
Si -3.52  0.00  8.98
Si -1.77 -7.41  5.92
Si  7.22 -2.10 -6.06
Si -1.82 -3.16  8.94
Si  5.51  7.38  2.90
Si  3.70 -0.01 -8.93
Si -3.67  0.05 -8.96
Si  9.14 -3.20 -0.15
Si -5.47 -7.45 -2.93
Si -1.76  3.18 -8.99
Si  1.81 -3.25  8.96
Si  9.18  3.16  0.00
Si  1.91  3.20 -8.99
Si  5.40  1.09 -8.02
Si -1.73  9.36 -2.02
Si -7.34 -2.10 -6.06
Si -9.20  1.05  3.05
Si  1.88  1.08  9.51
Si  3.66  6.15  6.67
Si -9.01 -3.24 -2.02
Si  7.19  6.31 -2.13
Si  1.73 -9.38 -2.24
Si  1.88 -5.20 -8.10
Si  7.25 -4.16 -5.15
Si -5.48 -7.29  3.65
Si  9.01  3.22 -2.24
Si -3.59  4.20 -8.16
Si -7.30 -4.16 -5.15
Si  5.40 -7.31  3.87
Si -7.22 -0.01  6.74
Si -0.02  8.44 -5.15
Si -1.85 -5.24 -8.19
Si  3.63  4.27 -8.15
Si -0.00 -2.15  9.66
Si -9.12 -1.03  3.70
Si  3.69  8.40  3.72
Si -3.67  6.26  6.75
Si  7.27 -6.35 -2.23
Si -7.28 -6.35 -2.23
Si -7.37  6.31 -2.13
Si  3.61 -6.34  6.75
Si -1.91 -9.48 -2.32
Si  1.88  9.48 -2.37
Si -3.65  8.47  3.73
Si -5.48  1.10 -8.24
Si -3.62 -6.45  6.67
Si  9.15 -3.12 -2.37
Si  9.16 -0.99  3.79
Si  7.33 -0.01  6.74
Si -9.19  3.12 -2.32
Si -1.73  0.96  9.87
Si -7.26 -4.18  5.92
Si  7.29 -4.18  5.92
Si  0.01 -8.38 -5.97
Si  0.02  8.42  5.92
Si -7.26  4.22 -5.97
Si  7.29  4.22 -5.97
Si  9.02 -1.05 -5.23
Si -3.56  8.43 -5.15
Si -9.04 -5.30  0.80
Si  3.60 -2.14  9.64
Si -3.69 -2.20  9.60
Si  5.39 -7.37 -5.21
Si  0.14 10.51  0.70
Si  3.70  8.39 -5.23
Si -9.12 -1.07 -5.21
Si  9.12 -5.28  0.69
Si -5.56 -7.33 -5.19
Si -0.06  4.20  9.73
Si  3.61  8.26  5.95
Si -9.05  1.10 -5.83
Si -9.00 -1.04  5.92
Si  8.96  5.29 -2.98
Si -5.37  7.38 -5.86
Si  5.42 -3.16  8.86
Si  5.43  3.13 -8.87
Si -10.86 -0.04 -0.02
Si -0.07 -6.29  8.86
Si  9.11 -5.16  2.93
Si -5.44 -7.39  5.83
Si -5.42  9.44 -0.00
Si  5.38 -3.18 -8.91
Si  0.07 -6.22 -8.95
Si  5.46  9.44 -0.01
Si -0.06  6.30  8.91
Si -5.43  3.16  8.93
Si 10.92 -0.04 -0.02
Si -0.07 -10.51 -2.97
Si -3.75 -8.41 -5.89
Si -5.49 -3.13 -8.93
Si  5.46  3.19  8.94
Si -0.02  6.30 -8.96
Si -9.13  5.24 -3.03
Si  5.47 -9.50  0.01
Si -9.13 -5.26  3.02
Si -5.44  3.24 -8.96
Si  5.50 -7.30  6.06
Si -5.60 -3.11  8.91
Si -3.74  8.39  6.00
Si -5.49 -9.51  0.03
Si  0.07 10.59  2.93
Si  9.11  1.01 -6.06
Si  5.56  7.36 -5.97
Si  3.60 -8.55 -5.94
Si  9.18 -1.02  6.02
Si -10.84 -0.08 -2.24
Si  7.20 -8.38  0.74
Si -3.56  4.12  9.65
Si  3.61 10.46  0.72
Si -0.08 -10.46  3.67
Si -5.42  1.04  9.64
Si 10.88 -2.14  0.72
Si -5.41  9.44 -2.25
Si  5.38 -9.46 -2.22
Si -5.53 -5.18 -8.14
Si  5.42 -5.24 -8.18
Si -10.90 -2.09  0.80
Si -0.00 -0.05 -11.14
Si -3.62 10.51  0.80
Si 10.93  0.08 -2.25
Si -1.85  7.36 -8.18
Si  1.75  7.42 -8.14
Si  5.52  9.46 -2.19
Si  3.65  4.29  9.64
Si -1.89 -5.26  9.67
Si -9.12  5.29  3.70
Si -7.35 -8.38  0.74
Si  7.24 -2.05 -8.27
Si  9.16  5.29  3.69
Si  5.52  1.06  9.70
Si  1.74 -5.31  9.72
Si -5.54 -9.51 -2.16
Si -7.32 -2.05 -8.27
Si  7.21 -8.29  2.98
Si -7.21  8.37 -2.93
Si -3.71 -6.22 -8.84
Si 10.81  2.15 -3.04
Si  3.53 -10.45 -3.04
Si  3.53  6.35  8.85
Si  7.21  0.10 -8.90
Si -3.75 -6.25  8.85
Si  3.57  6.38 -8.84
Si -7.34 -8.29  2.98
Si 10.89 -2.08  2.96
Si  3.62 -6.28 -8.93
Si -7.21 -0.03  8.96
Si  7.35  8.37 -2.93
Si  3.62 10.52  2.96
Si -3.74  6.24  8.95
Si -3.66  6.32 -8.93
Si  3.53 -6.37  8.95
Si -7.34  0.10 -8.90
Si -10.99 -2.01  3.05
Si -11.02  2.03 -2.94
Si  7.35 -0.03  8.96
Si -3.75 -10.57 -2.94
Si -3.71 10.59  3.05
Si -7.18  8.40  3.66
Si -7.18 -6.27  6.68
Si -1.82  9.41  6.62
Si -7.20  6.35  6.63
Si -3.70 -10.40  3.77
Si  3.60 -10.46  3.74
Si  9.08  3.15  6.66
Si -9.08  7.34  0.67
Si  0.09 -10.48 -5.21
Si  1.80 -9.45  6.66
Si -9.06  3.10  6.71
Si -1.85 -3.13 -11.12
Si -9.10 -3.19  6.62
Si -1.85 -11.53  0.77
Si -10.92  4.14  0.71
Si 10.88  2.14  3.74
Si  9.12  7.31  0.72
Si  1.88 -11.54  0.72
Si -0.01 -8.37 -8.21
Si  1.85  9.45  6.69
Si -9.10  5.21 -5.27
Si  1.84  3.11 -11.17
Si  9.13  5.25 -5.20
Si  9.13 -3.15  6.69
Si  1.89 -3.14 -11.16
Si  3.70  0.04 -11.15
Si  7.27  4.24 -8.21
Si -3.65 -0.06 -11.18
Si  7.37 -6.27  6.68
Si  7.35  6.35  6.63
Si  7.37  8.40  3.66
Si -7.29  4.24 -8.21
Si -1.79 -9.50  6.71
Si -1.80  3.14 -11.22
Si 10.98  4.24  0.74
Si -10.98  2.20  3.77
Si -1.76 11.41 -2.95
Si  1.86  1.00 11.74
Si -10.80 -4.20 -2.91
Si  1.80 -11.47  2.95
Si -9.05  5.19  5.92
Si  0.01  2.06 -11.82
Si -9.04  7.38  2.90
Si  9.10 -5.20 -5.91
Si -9.06 -5.25 -5.94
Si  9.09  5.25  5.94
Si -0.01 -2.11 11.88
Si -9.10 -7.36 -2.95
Si  0.00 -10.52  5.93
Si  1.90 -1.04 -11.89
Si -1.93 -11.55  3.05
Si -10.94  4.25  2.93
Si  9.08 -7.45 -2.93
Si 10.98  4.20  2.95
Si -0.06 10.50 -6.06
Si 10.98 -4.24 -2.99
Si  1.80 11.63 -3.00
Si  9.19  7.40  2.90
Si -1.84 -1.07 -11.96
Si  5.37 -5.28  9.57
Si -1.91  7.32  9.57
Si  9.07 -7.29  3.65
Si -7.22  8.39 -5.15
Si -3.65 -8.33 -8.15
Si -9.15  1.09 -8.02
Si -5.39  7.40 -8.10
Si -10.93 -4.13  3.73
Si -1.80  1.07 12.08
Si -10.95  2.06 -5.14
Si -5.54 -5.18  9.65
Si  7.34  8.39 -5.15
Si 10.94  1.95 -5.22
Si  5.43  7.37 -8.19
Si  3.68 -8.40 -8.16
Si -1.84 11.57  3.70
Si -3.67 -10.55 -5.14
Si  1.74  7.42  9.65
Si  7.18 -2.09  9.76
Si  9.08  1.10 -8.24
Si 10.96 -4.20  3.72
Si -9.15 -7.31  3.87
Si  1.88 11.61  3.79
Si -7.37 -2.09  9.76
Si  3.65 -10.65 -5.22
Si 10.84 -2.06 -5.87
Si  0.03 -4.18 -11.79
Si -3.57 -2.13 11.85
Si -10.84 -6.33 -0.04
Si -10.88  6.27 -0.03
Si  7.21 -8.36 -6.00
Si  7.22  8.45  5.89
Si  0.03 -12.57  0.10
Si  3.56 10.54 -5.87
Si  3.62 -10.49  5.95
Si 10.90  2.12  5.95
Si  3.67 -2.13 11.86
Si -3.65 10.51 -5.93
Si -10.93 -2.09 -5.93
Si -3.61  2.07 -11.91
Si -3.72 -10.46  6.02
Si  0.04 12.63  0.10
Si -7.34 -8.36 -6.00
Si 10.94 -6.33 -0.03
Si -7.34  8.45  5.89
Si 10.99  6.27 -0.04
Si  3.71  2.06 -11.93
Si -10.84 -4.17 -5.15
Si  9.00 -7.33 -5.19
Si  0.04  4.23 11.99
Si -10.99  2.15  6.02
Si 10.87  6.20 -2.29
Si -12.67  0.99  0.73
Si -10.85 -0.01  6.66
Si -7.24 10.47  0.70
Si  1.84 -1.07 12.57
Si  5.40  9.43  6.67
Si  0.14  2.11 12.58
Si  5.52  3.10 -11.09
Si  0.01 -8.37  9.65
