500
set: 1613.00  0.00  0.00
Si  1.01 -0.77  1.00
Si  0.82  1.49  0.59
Si -0.86  0.47  2.05
Si -1.51 -2.21 -0.13
Si -1.05  2.58 -0.18
Si  0.91 -2.79  1.67
Si -3.28 -0.77  1.00
Si  2.79 -2.21 -0.13
Si -3.48  1.49  0.59
Si  0.36  3.45 -1.78
Si  0.31 -2.21 -3.22
Si  0.95 -3.37 -1.78
Si  3.43  0.47  2.05
Si  3.25  2.58 -0.18
Si  0.97  2.08 -3.55
Si -0.46 -4.24 -0.18
Si -2.11  3.00  2.38
Si  0.32  4.03  1.67
Si -1.55 -1.18 -3.94
Si  2.19  3.00  2.38
Si -1.46  1.84  3.82
Si -3.38 -2.79  1.67
Si -1.51 -3.82  2.38
Si -1.46  0.84 -4.60
Si  2.74 -1.18 -3.94
Si -2.10  4.61 -0.13
Si -3.34 -3.37 -1.78
Si  2.83  1.84  3.82
Si  2.19  4.61 -0.13
Si  2.78 -3.82  2.38
Si -3.33  2.08 -3.55
Si  5.11  1.49  0.59
Si  5.30 -0.77  1.00
Si  2.84  0.84 -4.60
Si -3.93  3.45 -1.78
Si  1.41 -5.33  0.59
Si -5.15  0.47  2.05
Si -3.98 -2.21 -3.22
Si -0.28  4.61 -3.22
Si  1.42  0.97  5.42
Si  3.84 -4.24 -0.18
Si  0.32 -0.60 -5.73
Si -3.97  4.03  1.67
Si -5.34  2.58 -0.18
Si  4.61 -2.21 -3.22
Si  4.66  3.45 -1.78
Si -2.88 -5.33  0.59
Si -1.65  3.10 -5.01
Si  1.56 -4.74 -3.55
Si  5.21 -2.79  1.67
Si  0.42  6.05  1.00
Si -5.80 -2.21 -0.13
Si -2.88  0.97  5.42
Si  0.37  2.99  5.47
Si -1.01 -0.12  6.20
Si -1.06 -3.72 -5.01
Si -0.87 -4.98  3.82
Si  4.62  4.03  1.67
Si -4.75 -4.24 -0.18
Si  2.64  3.10 -5.01
Si  5.25 -3.37 -1.78
Si  1.37 -2.62 -5.78
Si -2.74 -4.74 -3.55
Si  5.26  2.08 -3.55
Si -0.27 -6.35  2.05
Si  0.96 -3.83  5.47
Si  4.01  4.61 -3.22
Si -2.93 -2.62 -5.78
Si -3.98 -0.60 -5.73
Si  3.29 -0.12  6.20
Si  3.24 -3.72 -5.01
Si -0.81 -2.38  6.60
Si -5.85 -1.18 -3.94
Si -5.76  1.84  3.82
Si  3.42 -4.98  3.82
Si  0.78  4.20 -5.78
Si -2.15  5.64 -3.94
Si  2.15  5.64 -3.94
Si -4.58  4.61 -3.22
Si -3.88  6.05  1.00
Si -5.81 -3.82  2.38
Si -3.92  2.99  5.47
Si  4.61 -0.60 -5.73
Si -5.75  0.84 -4.60
Si  7.08 -2.21 -0.13
Si -6.40  3.00  2.38
Si -3.33 -3.83  5.47
Si  6.48  3.00  2.38
Si -0.87 -5.98 -4.60
Si -7.58 -0.77  1.00
Si -1.45  7.28  2.05
Si  4.71  6.05  1.00
Si -1.51 -1.76 -7.38
Si  4.66  2.99  5.47
Si  4.03 -6.35  2.05
Si -1.50  2.41  7.27
Si  1.60 -7.59  1.00
Si  5.71 -5.33  0.59
Si  3.48 -2.38  6.60
Si -6.39  4.61 -0.13
Si  1.61 -1.15  7.65
Si -7.77  1.49  0.59
Si  5.71  0.97  5.42
Si  6.49  4.61 -0.13
Si -3.52  4.20 -5.78
Si  7.54  2.58 -0.18
Si  7.73  0.47  2.05
Si -1.41  4.44  6.60
Si  2.78 -1.76 -7.38
Si  2.84  7.28  2.05
Si -4.56 -6.35  2.05
Si  0.36  1.38  7.98
Si -2.69 -7.59  1.00
Si -5.17 -4.98  3.82
Si  7.03 -1.18 -3.94
Si  2.79  2.41  7.27
Si -5.30 -0.12  6.20
Si -2.69 -1.15  7.65
Si -5.35 -3.72 -5.01
Si  2.01 -5.85  5.42
Si  3.43 -5.98 -4.60
Si  7.12  1.84  3.82
Si -2.28 -5.85  5.42
Si  5.85 -4.74 -3.55
Si  0.23  8.31  0.59
Si -7.67 -2.79  1.67
Si -5.95  3.10 -5.01
Si  7.07 -3.82  2.38
Si -0.27  6.22 -5.73
Si  2.89  4.44  6.60
Si  5.26 -3.83  5.47
Si  5.66 -2.62 -5.78
Si  7.13  0.84 -4.60
Si -7.63 -3.37 -1.78
Si -0.91 -4.41  7.27
Si -7.62  2.08 -3.55
Si -5.11 -2.38  6.60
Si  5.07  4.20 -5.78
Si -7.18 -5.33  0.59
Si -0.96 -8.00 -3.94
Si -3.93  1.38  7.98
Si -7.17  0.97  5.42
Si -0.92 -9.03 -0.13
Si -8.23  3.45 -1.78
Si  2.14 -0.60 -8.83
Si  6.94  3.10 -5.01
Si -2.16 -0.60 -8.83
Si -5.16 -5.98 -4.60
Si  3.38 -4.41  7.27
Si -8.28 -2.21 -3.22
Si  8.13 -4.24 -0.18
Si -2.05  7.66 -4.60
Si -7.03 -4.74 -3.55
Si -2.11  5.06 -7.38
Si  2.19  5.06 -7.38
Si  2.24  7.66 -4.60
Si -1.60  6.70  6.20
Si -4.07  8.31  0.59
Si -0.42 -6.94  6.20
Si  4.66  1.38  7.98
Si -8.27  4.03  1.67
Si  4.02  6.22 -5.73
Si -6.44  5.64 -3.94
Si  6.44  5.64 -3.94
Si  0.91 -7.42 -5.73
Si  4.52  8.31  0.59
Si  1.00  0.22  9.43
Si -5.75  7.28  2.05
Si  2.69  6.70  6.20
Si  3.33 -8.00 -3.94
Si  0.83  7.79  5.42
Si  9.41  1.49  0.59
Si -1.64  9.40 -0.18
Si  0.27  0.43 -9.54
Si -5.81 -1.76 -7.38
Si  1.02  5.67  7.65
Si  0.37  8.90 -3.55
Si -5.80  2.41  7.27
Si -4.57  6.22 -5.73
Si -7.22 -2.62 -5.78
Si  0.90 -9.03 -3.22
Si  3.38 -9.03 -0.13
Si  5.90 -7.59  1.00
Si -9.45  0.47  2.05
Si  9.60 -0.77  1.00
Si -2.06  8.65  3.82
Si  0.95 -5.43  7.98
Si -0.91 -3.13 -9.15
Si  8.90 -2.21 -3.22
Si  2.24  8.65  3.82
Si  5.90 -1.15  7.65
Si  8.95  3.45 -1.78
Si  2.65  9.40 -0.18
Si  7.53 -3.72 -5.01
Si -5.70  4.44  6.60
Si  7.58 -0.12  6.20
Si  1.51 -9.61  1.67
Si  8.91  4.03  1.67
Si  7.72 -4.98  3.82
Si -5.21 -4.41  7.27
Si -3.38 -7.42 -5.73
Si -9.64  2.58 -0.18
Si -1.50  3.69 -9.15
Si -3.29  0.22  9.43
Si -9.05 -4.24 -0.18
Si  8.31  4.61 -3.22
Si  9.50 -2.79  1.67
Si -3.28  5.67  7.65
Si  3.88 -6.94  6.20
Si -8.27 -0.60 -5.73
Si -3.47  7.79  5.42
Si -7.63 -3.83  5.47
Si -2.79 -9.61  1.67
Si  6.31 -5.85  5.42
Si -3.39 -9.03 -3.22
Si -8.17  6.05  1.00
Si -3.34 -5.43  7.98
Si  1.60  9.82  2.38
Si  3.38 -3.13 -9.15
Si  2.79  3.69 -9.15
Si  9.54 -3.37 -1.78
Si -8.22  2.99  5.47
Si -10.10 -2.21 -0.13
Si -6.58 -5.85  5.42
Si -5.26 -8.00 -3.94
Si -3.92  8.90 -3.55
Si -4.02  0.43 -9.54
Si -6.99 -7.59  1.00
Si  7.08 -1.76 -7.38
Si  7.14  7.28  2.05
Si  9.55  2.08 -3.55
Si -6.98 -1.15  7.65
Si -0.23 10.27 -1.78
Si -5.21 -9.03 -0.13
Si -4.71 -6.94  6.20
Si  7.08  2.41  7.27
Si -2.70  9.82  2.38
Si  1.55 -10.19 -1.78
Si  7.77 -2.38  6.60
Si -8.87  4.61 -3.22
Si  0.37  2.46 -10.21
Si  4.57  0.43 -9.54
Si -7.81  4.20 -5.78
Si  8.91 -0.60 -5.73
Si  4.67  8.90 -3.55
Si  8.32 -6.35  2.05
Si -2.75 -10.19 -1.78
Si  7.18  4.44  6.60
Si  5.21 -7.42 -5.73
Si  5.12  7.79  5.42
Si  7.72 -5.98 -4.60
Si  5.30  0.22  9.43
Si  0.77 -2.10 -10.61
Si -5.89  6.70  6.20
Si  9.01  6.05  1.00
Si  5.20 -9.03 -3.22
Si  5.31  5.67  7.65
Si  1.54  6.22 -8.83
Si -10.05  1.84  3.82
Si  8.96  2.99  5.47
Si  6.43 -0.60 -8.83
Si -0.92 -10.64  2.38
Si -10.14 -1.18 -3.94
Si -6.45 -0.60 -8.83
Si -6.34  7.66 -4.60
Si -0.27 10.84  1.67
Si -5.21 -3.13 -9.15
Si  5.25 -5.43  7.98
Si -6.40  5.06 -7.38
Si  6.48  5.06 -7.38
Si -0.41 -0.64 11.03
Si  0.14 -11.05 -0.18
Si -10.10 -3.82  2.38
Si  6.54  7.66 -4.60
Si -10.05  0.84 -4.60
Si -8.86 -6.35  2.05
Si -5.94  9.40 -0.18
Si  0.96 -4.36 -10.21
Si -2.75  6.22 -8.83
Si  4.07 10.27 -1.78
Si -3.93  2.46 -10.21
Si -0.22  9.81  5.47
Si  1.96 -9.44 -5.78
Si -2.09 -7.97  7.65
Si -1.46  1.38 11.07
Si  2.20 -7.97  7.65
Si  2.05  9.92 -5.01
Si -2.33 -9.44 -5.78
Si -0.22 -9.20  6.60
Si -2.24  9.92 -5.01
Si 10.00 -5.33  0.59
Si  5.80 -9.61  1.67
Si -0.92 -8.58 -7.38
Si -9.46 -4.98  3.82
Si -10.70  3.00  2.38
Si -4.52 10.27 -1.78
Si -3.53 -2.10 -10.61
Si -6.35  8.65  3.82
Si  3.37 -10.64  2.38
Si -9.60 -0.12  6.20
Si 10.01  0.97  5.42
Si 10.78  3.00  2.38
Si -5.80  3.69 -9.15
Si -0.23  8.20  7.98
Si  7.68 -4.41  7.27
Si -1.10 -1.01 -11.38
Si  4.66  2.46 -10.21
Si -9.65 -3.72 -5.01
Si  6.99  6.70  6.20
Si  6.53  8.65  3.82
Si  0.86 -6.39 -9.54
Si  2.84  1.38 11.07
Si  1.60 11.42 -0.13
Si -8.23  1.38  7.98
Si  2.15  1.01 -11.34
Si -2.15  1.01 -11.34
Si -3.33 -4.36 -10.21
Si 11.38 -2.21 -0.13
Si  0.18  4.71 -10.61
Si  1.60 -6.60  9.43
Si -1.56 -7.42 -8.83
Si -10.69  4.61 -0.13
Si  9.55 -3.83  5.47
Si -0.47 -10.54 -5.01
Si  4.02 10.84  1.67
Si  5.89  9.82  2.38
Si  6.95  9.40 -0.18
Si  3.89 -0.64 11.03
Si 10.78  4.61 -0.13
Si  7.63 -8.00 -3.94
Si -9.40 -2.38  6.60
Si -2.69 11.42 -0.13
Si 10.15 -4.74 -3.55
Si  0.41  7.04  9.43
Si  9.37  4.20 -5.78
Si -8.36  8.31  0.59
Si  3.37 -8.58 -7.38
Si  9.96 -2.62 -5.78
Si -4.16 -11.05 -0.18
Si -10.24  3.10 -5.01
Si -2.70 -6.60  9.43
Si  2.73 -7.42 -8.83
Si  7.67 -9.03 -0.13
Si  8.31  6.22 -5.73
Si  3.19 -1.01 -11.38
Si  5.84 -10.19 -1.78
Si -4.57 10.84  1.67
Si -0.87 11.43 -3.22
Si  4.43 -11.05 -0.18
Si -2.10  9.23  7.27
Si -11.87 -0.77  1.00
Si  5.06 -2.10 -10.61
Si  4.07  9.81  5.47
Si  2.20  9.23  7.27
Si -3.43 -6.39 -9.54
Si -0.32  7.25 -9.54
Si -4.70 -0.64 11.03
Si  1.46 -1.74 11.80
Si  4.07 -9.20  6.60
Si 11.33 -1.18 -3.94
Si -7.08 -9.61  1.67
Si  1.55 -10.65  5.47
Si  8.95  1.38  7.98
Si -5.22 -10.64  2.38
Si -9.45 -5.98 -4.60
Si -7.58  0.22  9.43
Si -4.52  9.81  5.47
Si 11.83  2.58 -0.18
Si -7.68 -7.42 -5.73
Si  8.81  8.31  0.59
Si  4.06  8.20  7.98
Si  7.09  3.69 -9.15
Si -7.57  5.67  7.65
Si -12.06  1.49  0.59
Si 11.42  1.84  3.82
Si -4.52 -9.20  6.60
Si 12.02  0.47  2.05
Si 11.37 -3.82  2.38
Si -8.86  6.22 -5.73
Si -2.83 -1.74 11.80
Si -7.76  7.79  5.42
Si  5.84  6.22 -8.83
Si  3.83 -10.54 -5.01
Si -2.74 -10.65  5.47
Si  5.25 -4.36 -10.21
Si -2.14 -11.56 -3.55
Si  2.15 -11.56 -3.55
Si -6.99  9.82  2.38
Si -7.68 -9.03 -3.22
Si -4.53  8.20  7.98
Si -7.63 -5.43  7.98
Si -4.12  4.71 -10.61
Si  2.00 -12.15  0.59
Si 11.43  0.84 -4.60
Si  7.68 -3.13 -9.15
Si  3.42 11.43 -3.22
Si -0.86 -5.44 11.07
Si -2.29 -12.15  0.59
Si  8.17 -6.94  6.20
Si -3.88  7.04  9.43
Si -11.97 -2.79  1.67
Si -0.28 -11.80  3.82
Si  0.18 11.02 -5.78
Si  4.47  4.71 -10.61
Si -5.22 -8.58 -7.38
Si -7.04 -10.19 -1.78
Si -11.93 -3.37 -1.78
Si -5.75  1.38 11.07
Si  1.06  2.82 12.21
Si -10.04  7.28  2.05
Si  5.16 -6.39 -9.54
Si -4.76 -10.54 -5.01
Si -11.92  2.08 -3.55
Si -8.21  8.90 -3.55
Si  3.97  7.25 -9.54
Si -10.10 -1.76 -7.38
Si -5.39 -1.01 -11.38
Si -8.32  0.43 -9.54
Si -11.47 -5.33  0.59
Si -10.09  2.41  7.27
Si  4.71  7.04  9.43
Si -1.00  6.18 11.03
Si 11.23  3.10 -5.01
Si  6.25 -9.44 -5.78
Si -11.46  0.97  5.42
Si 10.19 -7.59  1.00
Si -10.73  5.64 -3.94
Si 10.74  5.64 -3.94
Si -9.50 -4.41  7.27
Si -6.39 -7.97  7.65
Si -10.00  4.44  6.60
Si -11.32 -4.74 -3.55
Si  6.35  9.92 -5.01
Si 10.20 -1.15  7.65
Si  3.43 -5.44 11.07
Si  6.50 -7.97  7.65
Si -1.56 -5.81 -11.34
Si -4.62  7.25 -9.54
Si  5.90 11.42 -0.13
Si  0.87  5.08 11.80
Si -1.69  5.81 -11.38
Si -7.04  6.22 -8.83
Si -6.54  9.92 -5.01
Si -6.63 -9.44 -5.78
Si -0.17 12.87  1.00
Si  5.89 -6.60  9.43
Si -5.86 -7.42 -8.83
Si  0.96  0.80 12.87
Si -3.23  2.82 12.21
Si -9.00 -6.94  6.20
Si  1.65 -4.00 12.21
Si -5.17 11.43 -3.22
Si  0.31 -0.14 -12.98
Si  8.86  0.43 -9.54
Si  2.74 -5.81 -11.34
Si  4.01 -11.80  3.82
Si  2.60  5.81 -11.38
Si  3.29  6.18 11.03
Si -9.55 -8.00 -3.94
Si  6.44  1.01 -11.34
Si -6.44  1.01 -11.34
Si -4.11 11.02 -5.78
Si -12.52  3.45 -1.78
Si -2.64 -4.00 12.21
Si -9.50 -9.03 -0.13
Si  8.96  8.90 -3.55
Si 12.43 -4.24 -0.18
Si -11.51 -2.62 -5.78
Si  1.55 12.46 -3.94
Si -12.57 -2.21 -3.22
Si -2.00 11.26  6.60
Si  4.48 11.02 -5.78
Si -4.57 -11.80  3.82
Si  5.75 -1.74 11.80
Si  7.13  1.38 11.07
Si  2.29 11.26  6.60
Si 10.60 -5.85  5.42
Si -12.56  4.03  1.67
Si -3.43  5.08 11.80
Si  0.18 -7.46 11.03
Si -3.33  0.80 12.87
Si  5.85 -10.65  5.47
Si  7.67 -10.64  2.38
Si -8.22  2.46 -10.21
Si  0.32 -13.17  2.05
Si -2.74 12.46 -3.94
Si  9.50 -7.42 -5.73
Si -7.82 -2.10 -10.61
Si  8.36 10.27 -1.78
Si 11.82 -3.72 -5.01
Si  9.42  7.79  5.42
Si -5.16 -5.44 11.07
Si -6.39  9.23  7.27
Si -0.32 -11.23  7.27
Si -6.99 11.42 -0.13
Si 11.88 -0.12  6.20
Si  6.49  9.23  7.27
Si  9.59  0.22  9.43
Si -6.99 -6.60  9.43
Si -7.63 -4.36 -10.21
