500
set: 808.00  0.00  0.00
Si -0.45  1.17 -0.84
Si  0.45 -1.15  0.88
Si  1.35  1.21  0.89
Si -1.35 -1.26 -0.83
Si -2.16  1.26  0.88
Si  2.27 -1.17 -0.89
Si  0.95  0.03 -2.54
Si -0.93  0.07  2.57
Si  0.01  2.44  2.50
Si  3.17  1.22 -0.85
Si -3.19 -1.25  0.82
Si -0.01 -2.46 -2.52
Si -2.69 -0.03 -2.50
Si -0.40 -3.58  0.76
Si  0.50  3.62 -0.86
Si  2.75  0.06  2.57
Si -1.79 -2.34  2.48
Si  1.68 -2.41  2.58
Si  1.36 -3.57 -0.87
Si -1.77  2.42 -2.53
Si -1.35  3.61  0.84
Si  1.87  2.42 -2.53
Si  4.02 -1.13  0.84
Si -4.00  1.23 -0.79
Si -0.87  0.01 -4.19
Si  0.91  0.03  4.25
Si -2.29 -3.67 -0.77
Si  2.35  3.69  0.90
Si  3.06 -3.61  0.82
Si -3.11  3.61 -0.87
Si  0.03  2.44 -4.19
Si -0.14 -2.46  4.25
Si -3.62 -2.42 -2.46
Si -2.77 -0.03  4.17
Si -3.55  2.46  2.53
Si  3.58 -2.45 -2.52
Si  3.63  2.45  2.51
Si  2.75 -0.04 -4.31
Si -1.76  2.38  4.20
Si  1.81  2.41  4.16
Si -4.52  0.03  2.46
Si  4.50 -0.11 -2.50
Si  4.97  1.20  0.86
Si -1.88 -2.36 -4.24
Si  1.73 -2.45 -4.25
Si -4.98 -1.29 -0.78
Si -0.92 -4.76 -2.48
Si -4.08 -3.56  0.85
Si  0.87 -4.81  2.54
Si -0.82  4.85 -2.52
Si  4.13  3.60 -0.84
Si  0.95  4.84  2.54
Si  0.41 -1.20 -5.87
Si  3.52 -2.44  4.23
Si -3.59  2.39 -4.21
Si  5.84 -1.25 -0.84
Si  2.71 -4.79 -2.49
Si -3.69 -2.45  4.12
Si -5.87  1.30  0.83
Si -0.47  1.21  5.95
Si -2.75 -4.80  2.54
Si  3.61  2.41 -4.28
Si -2.62  4.92  2.47
Si  0.42 -6.04 -0.84
Si -1.44 -1.14  5.85
Si  2.78  4.88 -2.48
Si -4.45 -0.02 -4.24
Si -0.38  6.09  0.85
Si -1.35 -5.95  0.90
Si  4.93 -3.61 -0.87
Si  1.41  5.97 -0.77
Si  4.52 -0.07  4.27
Si -4.95  3.68  0.86
Si  1.34  1.23 -5.98
Si -0.87  4.72  4.22
Si  5.35 -2.44  2.51
Si  2.20 -5.96  0.82
Si -5.39  2.42 -2.52
Si  2.21 -1.21  5.91
Si -2.26  1.20 -5.92
Si -2.20  6.01 -0.79
Si  5.44  2.35 -2.56
Si -0.97 -4.81  4.19
Si  0.89 -4.85 -4.18
Si  1.00  4.88 -4.15
Si -5.48 -2.40  2.50
Si  3.15  1.21  5.81
Si -6.28 -0.06 -2.52
Si -3.10 -1.21 -5.96
Si  6.33  0.02  2.58
Si -0.46 -3.60 -5.83
Si -2.70 -4.76 -4.15
Si -3.20 -6.03 -0.86
Si -2.65  4.79 -4.17
Si  0.55  3.62  5.83
Si  6.75  1.14 -0.83
Si -6.80 -1.13  0.87
Si  3.31  6.06  0.76
Si  2.73  4.83  4.19
Si  2.64 -4.87  4.24
Si -5.91 -3.63 -0.79
Si  5.90  3.68  0.82
Si  4.47 -4.76  2.55
Si -1.39  3.58 -5.88
Si  1.33 -3.62  5.90
Si -4.53 -4.79 -2.52
Si -4.48  4.86 -2.52
Si  4.57  4.83  2.54
Si -2.37 -3.58  5.81
Si -4.03  1.12  5.90
Si -5.40  2.35  4.22
Si -5.40 -2.36 -4.21
Si  5.39  2.35  4.25
Si  2.20  3.59 -5.91
Si  3.95 -6.06 -0.83
Si  5.43 -2.41 -4.25
Si -3.97  6.08  0.88
Si  4.07 -1.25 -5.98
Si -6.24 -0.02  4.16
Si  6.29  0.09 -4.17
Si -3.11  3.56  5.91
Si  3.16 -3.57 -5.90
Si -0.07 -7.20  2.51
Si  0.08  7.23 -2.46
Si  0.34 -1.23  7.53
Si  6.73 -3.57  0.88
Si -6.75  3.58 -0.83
Si -4.41  4.74  4.17
Si  7.61 -1.13  0.87
Si -0.51  1.24 -7.64
Si -7.66  1.14 -0.83
Si  4.45 -4.85 -4.21
Si -1.30 -1.20 -7.62
Si -5.02 -1.28  5.88
Si  1.39  1.22  7.62
Si  4.95  1.21 -5.96
Si  4.60  4.79 -4.18
Si -1.78  7.24  2.50
Si -1.83 -7.23 -2.53
Si -5.05 -6.04  0.84
Si  1.73 -7.29 -2.56
Si -4.58 -4.93  4.22
Si  1.92  7.30  2.48
Si  5.06  6.07 -0.87
Si  7.17 -2.42 -2.47
Si  2.19 -1.22 -7.56
Si  4.03  3.60  5.89
Si -7.20  2.46  2.53
Si  7.20  2.46  2.53
Si -7.24 -2.42 -2.47
Si -4.16 -3.71 -5.81
Si -2.32  1.11  7.64
Si  6.22 -4.78 -2.52
Si -6.33 -4.72  2.47
Si  3.19  1.21 -7.55
Si  0.02  7.20  4.12
Si -0.52 -3.59  7.47
Si -6.23  4.88  2.55
Si -0.46  5.94 -5.81
Si -3.25 -1.25  7.57
Si  5.75 -5.96  0.86
Si -5.83  1.21 -5.85
Si  3.50 -7.18  2.53
Si -5.77  6.04 -0.87
Si -1.25  3.61  7.49
Si -0.09 -7.24 -4.28
Si -3.53  7.22 -2.47
Si -4.92  3.61 -5.80
Si  6.42  4.85 -2.49
Si  5.89 -1.15  5.93
Si  0.33 -6.04  5.89
Si  0.51  8.40  0.82
Si  0.42  3.68 -7.60
Si  3.70  7.18 -2.52
Si  4.95 -3.65  5.81
Si -3.70 -7.20  2.50
Si -8.07  0.02  2.58
Si -0.53 -8.42 -0.85
Si -1.28  8.36 -0.78
Si  7.66  3.58 -0.83
Si  1.33  6.06  5.81
Si  8.13 -0.06 -2.52
Si -7.68 -3.57  0.88
Si  1.31 -3.61 -7.64
Si -1.90 -7.23  4.16
Si  7.04 -2.45  4.23
Si -1.70  7.28 -4.21
Si  1.27 -8.44  0.86
Si -1.51 -6.05 -5.91
Si  1.69 -7.30  4.25
Si  1.82  7.28 -4.24
Si -7.13  2.41 -4.21
Si -2.31 -3.61 -7.50
Si  4.04 -1.21  7.54
Si  8.53  1.30  0.83
Si -2.23  6.00  5.87
Si -4.07  1.18 -7.58
Si  2.25  3.62  7.58
Si -8.57 -1.25 -0.84
Si  2.19 -6.03 -5.91
Si  2.35  8.38 -0.83
Si  7.28  2.41 -4.21
Si -2.36 -8.43  0.89
Si -7.36 -2.45  4.23
Si  3.09 -3.61  7.49
Si -6.25  4.79 -4.21
Si -3.16  3.55 -7.57
Si -6.68 -1.07 -5.83
Si -3.16 -6.02  5.83
Si  6.34  4.78  4.24
Si  3.25  6.04 -5.83
Si  6.29 -4.90  4.17
Si -6.36 -4.85 -4.17
Si  6.83  1.14  5.84
Si  3.04 -8.50 -0.83
Si  3.56  7.18  4.25
Si  5.90  3.62 -5.91
Si  3.57 -7.23 -4.21
Si -3.09  8.51  0.87
Si -3.67 -7.20 -4.19
Si  6.77  6.03  0.82
Si -5.93 -3.65  5.87
Si -3.66  7.19  4.23
Si -4.95 -1.26 -7.54
Si -8.12  0.09 -4.17
Si -6.81 -6.04 -0.87
Si  5.00  1.25  7.55
Si  8.16 -0.02  4.16
Si -3.98  5.93 -5.90
Si  8.50 -3.63 -0.79
Si  4.07  3.61 -7.54
Si  0.89  0.01 -9.26
Si -8.50  3.68  0.82
Si  5.31 -7.22 -2.52
Si -4.12 -3.62  7.53
Si -5.35  7.20  2.51
Si -0.86  0.06  9.30
Si  4.05 -6.02  5.91
Si  5.39  7.23  2.58
Si -5.47 -7.22 -2.53
Si -4.16 -8.47 -0.84
Si  4.15  8.49  0.88
Si -0.04  2.46  9.21
Si  9.42 -1.29 -0.78
Si -9.44  1.20  0.86
Si  8.92 -2.40  2.50
Si -0.04 -2.41 -9.29
Si -6.65  3.62  5.91
Si -5.84  1.11  7.55
Si -8.97  2.35 -2.56
Si -2.71 -0.10 -9.23
Si -7.57  1.14  5.84
Si  1.75 -2.42  9.17
Si -0.42  6.02  7.53
Si  1.72  2.36 -9.20
Si  5.91 -1.20 -7.54
Si  0.37 -6.03 -7.54
Si  2.73 -0.03  9.27
Si  9.01  2.42 -2.52
Si -7.99  4.85 -2.49
Si  8.08 -4.72  2.47
Si  4.83 -8.35  0.83
Si  6.72 -3.71 -5.90
Si -9.05 -2.44  2.51
Si  1.39  6.04 -7.50
Si -1.83 -2.38  9.26
Si -4.86  8.39 -0.84
Si  7.59 -6.04 -0.87
Si  7.72 -1.07 -5.83
Si -7.64  6.03  0.82
Si -4.84  3.75  7.62
Si -1.45 -6.02  7.58
Si -1.83  2.38 -9.33
Si -8.18 -4.78 -2.52
Si  4.99 -3.68 -7.61
Si  5.04  6.03  5.90
Si -2.17  5.95 -7.54
Si  8.18  4.88  2.55
Si -5.09 -6.07 -5.88
Si  2.21 -6.07  7.47
Si -5.27  7.24 -4.25
Si  5.30 -7.29  4.22
Si -0.95 -9.58  2.57
Si  5.43  7.20 -4.25
Si  1.01  9.61 -2.50
Si -5.46 -7.26  4.20
Si -0.82  9.67  2.46
Si  0.79 -9.76 -2.50
Si  3.18  6.05  7.47
Si -5.76  5.99  5.81
Si  3.57  2.37  9.19
Si  5.78 -6.03 -5.80
Si  3.55 -2.47 -9.20
Si -9.47 -3.61 -0.87
Si  5.91  3.57  7.47
Si  9.46  3.68  0.86
Si  9.88  0.03  2.46
Si -3.56  2.46  9.24
Si -3.29 -5.96 -7.60
Si  9.00 -2.36 -4.21
Si  9.01  2.35  4.22
Si -8.98 -2.41 -4.25
Si -9.91 -0.11 -2.50
Si -3.60 -2.44 -9.25
Si -2.58  9.58 -2.52
Si -9.02  2.35  4.25
Si -5.87 -3.70 -7.54
Si -0.55 -8.43  5.81
Si  4.50 -0.04 -9.21
Si -5.86 -8.38  0.88
Si  8.05 -4.85 -4.17
Si -8.06  4.78  4.24
Si -6.78 -1.21  7.65
Si  6.81  1.17 -7.64
Si  2.63 -9.62  2.58
Si -1.32  8.37  5.88
Si -2.75 -9.61 -2.54
Si -4.52 -0.03  9.28
Si  0.61  8.43 -5.96
Si  8.15  4.79 -4.21
Si -8.12 -4.90  4.17
Si -7.68 -3.71 -5.90
Si  0.89 -4.86  9.13
Si  1.25 -8.43 -5.96
Si  7.75  3.62  5.91
Si  5.97  8.48 -0.89
Si -0.94 -4.79 -9.19
Si  4.05 -5.97 -7.52
Si  2.77  9.71  2.57
Si -7.12  7.20 -2.52
Si -8.51 -1.15  5.93
Si  7.15 -7.18  2.53
Si  8.58  1.21 -5.85
Si -10.38 -1.13  0.84
Si -3.98  6.03  7.60
Si -0.91  4.79 -9.28
Si  0.98  4.83  9.26
Si 10.40  1.23 -0.79
Si  0.94  9.61  4.17
Si -7.25 -7.18  2.53
Si -0.75  9.62 -4.24
Si -8.65 -5.96  0.86
Si  7.28  7.20 -2.52
Si  2.26  8.50  5.85
Si  8.64  6.04 -0.87
Si -2.37 -8.41 -5.98
Si  0.81 -9.71  4.27
Si -0.95 -9.68 -4.31
Si -6.65  3.67 -7.52
Si -2.61  4.80  9.21
Si  2.58 -9.55 -4.17
Si  2.68 -4.89 -9.18
Si  2.77  4.85 -9.19
Si  6.72 -3.62  7.60
Si -9.89 -0.07  4.27
Si  3.13 -8.51  5.84
Si  6.70 -8.42 -0.79
Si -2.98  8.57 -5.83
Si -2.73 -4.82  9.26
Si -2.54  9.62  4.16
Si  0.32 -10.77  0.84
Si  9.95 -0.02 -4.24
Si -4.96 -6.04  7.49
Si -7.60  1.17 -7.64
Si -6.68  8.52  0.84
Si  7.62 -1.21  7.65
Si -6.81 -6.08  5.91
Si -2.80 -9.61  4.25
Si  2.84  9.65 -4.19
Si  6.87  6.07 -5.90
Si -0.30 10.87 -0.79
Si -4.37  9.66  2.58
Si -10.28  3.60 -0.84
Si  8.47 -3.65  5.87
Si -1.44 -10.81 -0.89
Si  5.38  2.38 -9.22
Si -0.89  0.02 -10.90
Si -4.63 -9.58  2.57
Si  5.01  6.03 -7.64
Si  4.42 -9.70 -2.52
Si 10.33 -3.56  0.85
Si -8.51  3.62 -5.91
Si  5.42 -2.41  9.24
Si -5.50  2.37 -9.22
Si -5.45 -2.43  9.24
Si  7.12 -7.25 -4.21
Si -7.18  7.20  4.23
Si  0.92  0.06 10.97
Si  4.66  9.67 -2.54
Si  7.23  7.20  4.23
Si  1.55 10.91  0.88
Si  4.12  8.45 -5.87
Si -7.29 -7.25 -4.21
Si -4.17 -8.43  5.95
Si  2.13 -10.90 -0.84
Si  9.38 -1.28  5.88
Si  9.36 -6.04  0.84
Si -9.34  6.07 -0.87
Si  6.29 -0.03  9.24
Si -2.17 10.94  0.83
Si  0.01 -2.41 10.92
Si -6.25 -0.08 -9.27
Si -5.71  5.96 -7.61
Si -9.45  1.21 -5.96
Si -9.83  4.83  2.54
Si  0.07  2.48 -10.97
Si  2.73  0.01 -10.91
Si -2.69  0.03 10.93
Si  9.88 -4.79 -2.52
Si  5.86 -5.89  7.62
Si  4.59  4.78  9.13
Si -9.93 -4.76  2.55
Si  0.46  8.39  7.57
Si 11.21 -1.25  0.82
Si -3.26 -10.80  0.88
Si  4.43 -4.73  9.28
Si  3.25 10.81 -0.84
Si 10.79 -2.42 -2.46
Si -10.77  2.45  2.51
Si -11.23  1.22 -0.85
Si  1.84  2.36 10.93
Si -0.51 -8.44 -7.55
Si -7.54  6.07 -5.90
Si  9.93  4.86 -2.52
Si  1.79 -2.37 -10.94
Si -4.38  4.80 -9.29
Si -1.25  8.38 -7.54
Si -1.84 -2.38 -10.95
Si  1.30 -8.39  7.55
Si  4.87 -8.44 -5.85
Si -10.82 -2.45 -2.52
Si  7.59 -6.08  5.91
Si -1.78  2.40 10.99
Si -7.69 -3.62  7.60
Si  7.75  3.67 -7.52
Si 10.85  2.46  2.53
Si -8.49 -1.20 -7.54
Si -4.81  8.49  5.93
Si  4.46 -9.66  4.16
Si -7.71 -8.42 -0.79
Si -4.61 -4.85 -9.28
Si -4.57 -9.63 -4.19
Si  8.56  1.11  7.55
Si -4.41  9.73 -4.17
Si  3.91 -10.77  0.87
Si -3.96 10.79 -0.83
Si  7.72  8.52  0.84
Si  4.61  9.67  4.25
Si -2.32 -8.42  7.62
Si  2.41  8.45 -7.62
Si -6.21  9.53 -2.50
Si  3.54  2.41 -10.87
Si -9.46 -3.65  5.81
Si  6.18 -9.61  2.46
Si  9.48  3.61 -5.80
Si -9.81  4.79 -4.18
Si -0.13 -7.27  9.19
Si  0.10  7.20 -9.25
Si  3.58 -2.47 10.89
Si 10.72 -2.45  4.12
Si -3.63 -2.40 10.92
Si  8.94 -7.22 -2.53
Si  9.83 -4.93  4.22
Si  6.80  6.03  7.49
Si -3.62  2.42 -10.95
Si -3.08  8.43  7.65
Si  9.99  4.74  4.17
Si  3.10 -8.47 -7.64
Si  9.05  7.20  2.51
Si -9.02  7.23  2.58
Si -9.95 -4.85 -4.21
Si -1.74  7.21  9.24
Si -4.47  0.10 -10.98
Si 10.82  2.39 -4.21
Si  1.68 -7.26 -9.22
Si -10.79  2.41 -4.28
Si -8.49  3.57  7.47
Si -6.40 -9.68 -2.50
Si  4.56  0.03 10.96
Si  5.91  8.43  5.91
Si -9.10 -7.22 -2.52
Si -7.13  2.41  9.19
Si 11.29  3.61 -0.87
Si -6.86 -6.10 -7.57
Si -1.98 -7.28 -9.20
Si  0.91 -4.76 -10.88
Si -5.96 -8.44 -5.92
Si  1.88  7.26  9.26
Si -10.88 -2.44  4.23
Si -11.34 -3.61  0.82
Si -11.65  0.06  2.57
Si  6.46  9.70  2.57
Si  7.16 -2.47 -9.23
Si -0.91 -4.79 10.90
Si  0.93  4.89 -10.88
Si  7.27  2.41  9.19
Si  8.53 -3.70 -7.54
Si 11.71 -0.03 -2.50
Si -0.85  4.79 10.95
Si -7.24 -2.47 -9.23
