500
set: 1477.00  0.00  0.00
Si -0.37  1.59  0.23
Si  1.27 -1.19 -0.47
Si -0.97  0.01 -1.55
Si  1.50  1.46  1.44
Si  0.65  1.60 -2.09
Si -0.40 -2.82  0.23
Si -2.58 -1.19 -0.47
Si  1.38 -0.36  2.54
Si -2.36  1.46  1.44
Si  2.89  0.01 -1.55
Si  1.30  3.22 -0.47
Si  0.62 -2.80 -2.09
Si -2.48 -0.36  2.54
Si  1.47 -2.94  1.44
Si  3.48  1.59  0.23
Si -0.75  0.11  3.80
Si -2.38 -2.94  1.44
Si -2.56  3.22 -0.47
Si -3.21  1.60 -2.09
Si  1.18  1.19 -3.90
Si  3.46 -2.82  0.23
Si -4.23  1.59  0.23
Si -3.23 -2.80 -2.09
Si -0.99 -4.40 -1.55
Si -0.94  4.41 -1.55
Si -2.68  1.19 -3.90
Si  3.10  0.11  3.80
Si  1.41  4.04  2.54
Si  1.62 -1.51  4.46
Si -1.23 -1.60 -4.56
Si -4.83  0.01 -1.55
Si -4.25 -2.82  0.23
Si  1.15 -3.22 -3.90
Si -2.23 -1.51  4.46
Si  4.51  1.60 -2.09
Si  5.13 -1.19 -0.47
Si -2.45  4.04  2.54
Si  2.86 -4.40 -1.55
Si -1.20  2.80 -4.56
Si  2.63 -1.60 -4.56
Si  2.91  4.41 -1.55
Si  1.65  2.90  4.46
Si  1.36 -4.77  2.54
Si  4.48 -2.80 -2.09
Si -2.71 -3.22 -3.90
Si  5.36  1.46  1.44
Si  1.25 -5.59 -0.47
Si -2.21  2.90  4.46
Si -0.78 -4.29  3.80
Si  5.24 -0.36  2.54
Si -0.73  4.51  3.80
Si -2.50 -4.77  2.54
Si  2.65  2.80 -4.56
Si -4.61  0.11  3.80
Si -0.35  5.99  0.23
Si  5.15  3.22 -0.47
Si -2.61 -5.59 -0.47
Si  1.53  5.87  1.44
Si  0.91 -2.07 -5.82
Si  5.33 -2.94  1.44
Si  0.94  2.33 -5.82
Si  0.68  6.00 -2.09
Si  1.10 -1.09  6.27
Si -2.33  5.87  1.44
Si  5.03  1.19 -3.90
Si  3.08 -4.29  3.80
Si -6.21  1.46  1.44
Si -6.44 -1.19 -0.47
Si  3.13  4.51  3.80
Si -4.80  4.41 -1.55
Si -4.85 -4.40 -1.55
Si -6.33 -0.36  2.54
Si -2.95 -2.07 -5.82
Si -2.92  2.33 -5.82
Si  6.74  0.01 -1.55
Si  1.20  5.59 -3.90
Si -2.76 -1.09  6.27
Si  3.51  5.99  0.23
Si  1.03 -0.24 -6.92
Si -5.08 -1.60 -4.56
Si -0.50  1.72  6.81
Si -6.24 -2.94  1.44
Si  5.26  4.04  2.54
Si -3.18  6.00 -2.09
Si  5.00 -3.22 -3.90
Si  1.12  3.31  6.27
Si -6.42  3.22 -0.47
Si  5.48 -1.51  4.46
Si -0.42 -7.22  0.23
Si -2.66  5.59 -3.90
Si -4.20  5.99  0.23
Si -0.52 -2.69  6.81
Si -5.06  2.80 -4.56
Si -4.64 -4.29  3.80
Si -4.58  4.51  3.80
Si -2.83 -0.24 -6.92
Si  5.21 -4.77  2.54
Si  7.34  1.59  0.23
Si  0.60 -7.20 -2.09
Si -7.06  1.60 -2.09
Si  1.59 -5.91  4.46
Si  5.10 -5.59 -0.47
Si -2.73  3.31  6.27
Si  1.45 -7.34  1.44
Si -1.25 -6.00 -4.56
Si  5.50  2.90  4.46
Si -6.09 -1.51  4.46
Si -6.54  1.19 -3.90
Si -2.26 -5.91  4.46
Si  1.32  7.62 -0.47
Si  3.36  1.72  6.81
Si  4.76 -2.07 -5.82
Si  4.53  6.00 -2.09
Si  7.31 -2.82  0.23
Si -2.41 -7.34  1.44
Si  4.79  2.33 -5.82
Si -7.09 -2.80 -2.09
Si -6.30  4.04  2.54
Si  6.96  0.11  3.80
Si  2.60 -6.00 -4.56
Si  3.43 -7.22  0.23
Si -2.53  7.62 -0.47
Si  3.33 -2.69  6.81
Si  4.95 -1.09  6.27
Si -6.07  2.90  4.46
Si  6.49 -1.60 -4.56
Si  5.38  5.87  1.44
Si  1.75  0.52  7.89
Si  1.05  4.16 -6.92
Si -0.85 -0.12 -8.13
Si  6.72 -4.40 -1.55
Si -3.26 -7.20 -2.09
Si -2.11  0.52  7.89
Si  6.77  4.41 -1.55
Si -8.09  1.59  0.23
Si -4.35  1.72  6.81
Si -6.56 -3.22 -3.90
Si -6.36 -4.77  2.54
Si  1.00 -4.65 -6.92
Si -4.28 -7.22  0.23
Si  1.07 -5.49  6.27
Si  6.51  2.80 -4.56
Si  4.88 -0.24 -6.92
Si  5.06  5.59 -3.90
Si -4.38 -2.69  6.81
Si -2.80  4.16 -6.92
Si -6.47 -5.59 -0.47
Si -8.11 -2.82  0.23
Si -1.18  7.21 -4.56
Si  1.12 -7.62 -3.90
Si -6.19  5.87  1.44
Si  0.07 -1.11  8.59
Si  4.98  3.31  6.27
Si  3.01 -0.12 -8.13
Si  1.67  7.30  4.46
Si  4.45 -7.20 -2.09
Si  0.88 -6.48 -5.82
Si  8.36  1.60 -2.09
Si -2.79 -5.49  6.27
Si -2.85 -4.65 -6.92
Si -8.68  0.01 -1.55
Si -2.18  7.30  4.46
Si  1.43  8.44  2.54
Si  2.68  7.21 -4.56
Si  0.96  6.73 -5.82
Si  1.72 -3.88  7.89
Si -2.73 -7.62 -3.90
Si  0.82  1.51 -8.82
Si -1.02 -8.80 -1.55
Si -0.92  8.81 -1.55
Si  6.93 -4.29  3.80
Si  8.34 -2.80 -2.09
Si -2.14 -3.88  7.89
Si  8.98 -1.19 -0.47
Si -5.11 -6.00 -4.56
Si -2.42  8.44  2.54
Si  6.98  4.51  3.80
Si -0.47  6.12  6.81
Si  5.30 -7.34  1.44
Si -6.62 -1.09  6.27
Si -6.80 -2.07 -5.82
Si  5.45 -5.91  4.46
Si  0.10  3.29  8.59
Si -2.97 -6.48 -5.82
Si -0.82  4.28 -8.13
Si  5.18  7.62 -0.47
Si -6.78  2.33 -5.82
Si -8.47  0.11  3.80
Si  0.80 -2.89 -8.82
Si -0.87 -4.53 -8.13
Si -2.90  6.73 -5.82
Si  2.83 -8.80 -1.55
Si -4.70 -0.12 -8.13
Si  2.94  8.81 -1.55
Si -6.51  5.59 -3.90
Si  9.21  1.46  1.44
Si  9.09 -0.36  2.54
Si  4.91  4.16 -6.92
Si -3.03  1.51 -8.82
Si -3.78 -1.11  8.59
Si  1.77  4.92  7.89
Si -7.04  6.00 -2.09
Si  7.37  5.99  0.23
Si  3.93 -1.11  8.59
Si -0.81 -8.70  3.80
Si -2.08  4.92  7.89
Si  9.01  3.22 -0.47
Si -6.12 -5.91  4.46
Si  1.33 -9.17  2.54
Si -6.69 -0.24 -6.92
Si  4.86 -4.65 -6.92
Si  3.04  4.28 -8.13
Si -6.59  3.31  6.27
Si  4.93 -5.49  6.27
Si  5.60  0.52  7.89
Si -0.70  8.91  3.80
Si  9.19 -2.94  1.44
Si -6.26 -7.34  1.44
Si  3.39  6.12  6.81
Si  2.98 -4.53 -8.13
Si -3.06 -2.89 -8.82
Si  8.89  1.19 -3.90
Si -8.66  4.41 -1.55
Si -2.53 -9.17  2.54
Si -0.55 -7.09  6.81
Si -8.71 -4.40 -1.55
Si -5.03  7.21 -4.56
Si  4.98 -7.62 -3.90
Si -5.97  0.52  7.89
Si  4.74 -6.48 -5.82
Si  6.46 -6.00 -4.56
Si -3.76  3.29  8.59
Si -6.39  7.62 -0.47
Si  3.05 -8.70  3.80
Si  1.15  7.71  6.27
Si  3.96  3.29  8.59
Si -8.06  5.99  0.23
Si -1.91 -1.23  9.79
Si  1.95 -1.23  9.79
Si  7.22  1.72  6.81
Si  1.22 -9.99 -0.47
Si  4.68  1.51 -8.82
Si  4.82  6.73 -5.82
Si -4.33  6.12  6.81
Si -4.77  8.81 -1.55
Si -1.44 -1.70 -9.90
Si -8.94 -1.60 -4.56
Si -4.88 -8.80 -1.55
Si  5.53  7.30  4.46
Si  3.15  8.91  3.80
Si  8.86 -3.22 -3.90
Si  0.05 -5.51  8.59
Si -8.49 -4.29  3.80
Si  7.29 -7.22  0.23
Si  7.19 -2.69  6.81
Si -10.07  1.46  1.44
Si  5.29  8.44  2.54
Si  9.12  4.04  2.54
Si -8.44  4.51  3.80
Si -2.71  7.71  6.27
Si -4.68  4.28 -8.13
Si  2.42 -1.70 -9.90
Si -7.12 -7.20 -2.09
Si -2.64 -9.99 -0.47
Si -1.42  2.70 -9.90
Si  3.31 -7.09  6.81
Si -10.30 -1.19 -0.47
Si  4.66 -2.89 -8.82
Si -8.91  2.80 -4.56
Si -0.32 10.39  0.23
Si  5.58 -3.88  7.89
Si -4.73 -4.53 -8.13
Si  0.18 -0.11 -10.45
Si  9.33 -1.51  4.46
Si -6.66  4.16 -6.92
Si -1.88  3.17  9.79
Si -6.04  7.30  4.46
Si  1.97  3.17  9.79
Si  1.55 10.27  1.44
Si -10.19 -0.36  2.54
Si  8.39  6.00 -2.09
Si  2.44  2.70 -9.90
Si  9.07 -4.77  2.54
Si  8.96 -5.59 -0.47
Si -4.66 -8.70  3.80
Si  8.62 -2.07 -5.82
Si -10.10 -2.94  1.44
Si -2.30 10.27  1.44
Si  0.70 10.41 -2.09
Si  6.87 -0.12 -8.13
Si -5.99 -3.88  7.89
Si  0.85  5.91 -8.82
Si -6.64 -5.49  6.27
Si  8.65  2.33 -5.82
Si -6.71 -4.65 -6.92
Si -4.56  8.91  3.80
Si 10.60  0.01 -1.55
Si  6.54  7.21 -4.56
Si  9.36  2.90  4.46
Si -10.27  3.22 -0.47
Si -4.41 -7.09  6.81
Si  1.23  9.99 -3.90
Si -6.59 -7.62 -3.90
Si -8.21  1.72  6.81
Si -6.28  8.44  2.54
Si  5.19 -9.17  2.54
Si  8.81 -1.09  6.27
Si  5.63  4.92  7.89
Si -8.14 -7.22  0.23
Si -3.81 -5.51  8.59
Si  3.90 -5.51  8.59
Si  3.54 10.39  0.23
Si -9.95 -1.51  4.46
Si -8.23 -2.69  6.81
Si -3.00  5.91 -8.82
Si  9.24  5.87  1.44
Si -5.94  4.92  7.89
Si -2.63  9.99 -3.90
Si  1.08  8.56 -6.92
Si -6.83 -6.48 -5.82
Si -3.15 10.41 -2.09
Si -3.68 -0.11 -10.45
Si  5.00  7.71  6.27
Si  1.85  1.34 10.89
Si  8.74 -0.24 -6.92
Si -2.00  1.34 10.89
Si  6.69 -8.80 -1.55
Si -10.39  1.19 -3.90
Si -6.75  6.73 -5.82
Si  8.31 -7.20 -2.09
Si -4.18 10.39  0.23
Si  4.03 -0.11 -10.45
Si  5.08 -9.99 -0.47
Si  8.91  5.59 -3.90
Si -10.16  4.04  2.54
Si -10.92  1.60 -2.09
Si  6.80  8.81 -1.55
Si -9.92  2.90  4.46
Si -6.89  1.51 -8.82
Si  0.20  4.30 -10.45
Si 11.20  1.59  0.23
Si  8.84  3.31  6.27
Si  1.57 -10.31  4.46
Si -2.78  8.56 -6.92
Si -5.30 -1.70 -9.90
Si  0.15 -4.51 -10.45
Si 10.34 -1.60 -4.56
Si -1.28 -10.40 -4.56
Si -5.77 -1.23  9.79
Si  0.97 -9.05 -6.92
Si  5.80 -1.23  9.79
Si -6.38 -9.17  2.54
Si  1.92 -5.63  9.79
Si  1.83 -3.06 10.89
Si 10.81  0.11  3.80
Si -1.94 -5.63  9.79
Si -2.29 -10.31  4.46
Si  0.77 -7.30 -8.82
Si  6.89  4.28 -8.13
Si -10.95 -2.80 -2.09
Si -2.03 -3.06 10.89
Si 11.17 -2.82  0.23
Si  0.13  7.70  8.59
Si -5.27  2.70 -9.90
Si  6.84 -4.53 -8.13
Si -7.64 -1.11  8.59
Si  4.56 10.41 -2.09
Si -10.21 -4.77  2.54
Si 10.57 -4.40 -1.55
Si  1.69 -8.28  7.89
Si -6.91 -2.89 -8.82
Si -10.42 -3.22 -3.90
Si 10.63  4.41 -1.55
Si  4.71  5.91 -8.82
Si -0.45 -11.62  0.23
Si -2.16 -8.28  7.89
Si  7.79 -1.11  8.59
Si  2.58 -10.40 -4.56
Si 10.37  2.80 -4.56
Si  7.24  6.12  6.81
Si  5.41 10.27  1.44
Si -8.97 -6.00 -4.56
Si -10.04  5.87  1.44
Si -1.47 -6.11 -9.90
Si  6.91 -8.70  3.80
Si -10.32 -5.59 -0.47
Si -2.88 -9.05 -6.92
Si  1.04 -9.90  6.27
Si -5.74  3.17  9.79
Si -8.56 -0.12 -8.13
Si  0.57 -11.61 -2.09
Si  9.16 -7.34  1.44
Si  9.04  7.62 -0.47
Si  5.83  3.17  9.79
Si  6.27 -1.70 -9.90
Si -3.08 -7.30 -8.82
Si  5.08  9.99 -3.90
Si -3.65  4.30 -10.45
Si  2.39 -6.11 -9.90
Si  9.31 -5.91  4.46
Si -6.56  7.71  6.27
Si  8.77  4.16 -6.92
Si  1.42 -11.74  1.44
Si -0.79  8.68 -8.13
Si -6.49 -9.99 -0.47
Si -7.61  3.29  8.59
Si  7.01  8.91  3.80
Si -3.71 -4.51 -10.45
Si  4.06  4.30 -10.45
Si  6.30  2.70 -9.90
Si -2.81 -9.90  6.27
Si -11.94  1.59  0.23
Si  8.71 -4.65 -6.92
Si -6.16 10.27  1.44
Si  4.93  8.56 -6.92
Si  4.01 -4.51 -10.45
Si  7.81  3.29  8.59
Si -2.44 -11.74  1.44
Si -0.90 -8.93 -8.13
Si  1.35 12.02 -0.47
Si  8.78 -5.49  6.27
Si  3.40 -11.62  0.23
Si -3.73  7.70  8.59
Si  7.16 -7.09  6.81
Si  3.98  7.70  8.59
Si 10.79 -4.29  3.80
Si  8.60 -6.48 -5.82
Si -3.28 -11.61 -2.09
Si -10.47 -1.09  6.27
Si -1.39  7.10 -9.90
Si -8.18  6.12  6.81
Si  3.06  8.68 -8.13
Si -2.51 12.02 -0.47
Si  0.70 -0.52 -12.26
Si -0.28  1.82 12.16
Si -11.97 -2.82  0.23
Si  8.84 -7.62 -3.90
Si -8.89  7.21 -4.56
Si -10.66 -2.07 -5.82
Si  9.46  0.52  7.89
Si 10.84  4.51  3.80
Si -10.63  2.33 -5.82
Si  4.63 -7.30 -8.82
Si  1.80  9.33  7.89
Si  0.86 -10.88 -5.82
Si  8.54  1.51 -8.82
Si  5.71  1.34 10.89
Si  4.83 -9.05 -6.92
Si -2.06  9.33  7.89
Si -4.31 -11.62  0.23
Si -10.37  5.59 -3.90
Si -9.97 -5.91  4.46
Si  8.67  6.73 -5.82
Si -8.63  8.81 -1.55
Si  2.96 -8.93 -8.13
Si -0.31 -2.58 12.16
Si  2.47  7.10 -9.90
Si -5.86  1.34 10.89
Si  1.88  5.75 10.89
Si -5.14 -10.40 -4.56
Si -1.98  5.75 10.89
Si  5.43 -10.31  4.46
Si -8.73 -8.80 -1.55
Si 12.22  1.60 -2.09
Si -1.86  7.57  9.79
Si -1.15 11.61 -4.56
Si -6.49  9.99 -3.90
Si -8.53  4.28 -8.13
Si -0.44 10.52  6.81
Si  2.00  7.57  9.79
Si -10.12 -7.34  1.44
Si  8.51 -2.89 -8.82
Si  4.43 -11.61 -2.09
Si  0.99 11.13 -5.82
Si -10.89  6.00 -2.09
Si -9.82  0.52  7.89
Si -10.54 -0.24 -6.92
Si -10.45  3.31  6.27
Si -12.54  0.01 -1.55
Si  1.70 11.70  4.46
Si -6.86  5.91 -8.82
Si -8.58 -4.53 -8.13
Si  5.68 -3.06 10.89
Si -3.15 -0.52 -12.26
Si 12.19 -2.80 -2.09
Si  1.10 -12.02 -3.90
Si  5.78 -5.63  9.79
Si  9.39  7.30  4.46
Si -5.79 -5.63  9.79
Si -3.00 -10.88 -5.82
Si  4.90 -9.90  6.27
Si  9.15  8.44  2.54
Si -2.16 11.70  4.46
Si  5.55 -8.28  7.89
Si -7.01 10.41 -2.09
Si 11.22  5.99  0.23
Si -8.52 -8.70  3.80
Si  7.39 10.39  0.23
Si -5.88 -3.06 10.89
Si  2.71 11.61 -4.56
