500
set: 146.00  0.00  0.00
Si -0.06 -0.01 -0.01
Si  1.82  1.05  0.67
Si -0.05  0.03 -2.23
Si  0.01 -2.12  0.77
Si -1.82  1.08  0.76
Si  3.61 -0.07 -0.09
Si  1.81 -3.15  0.01
Si  1.84  1.10  2.94
Si -1.82  1.05  2.99
Si  1.77 -1.08 -3.02
Si -1.80 -3.19 -0.01
Si -3.68  0.00 -0.02
Si -1.82 -1.04 -3.03
Si -0.00  2.12 -3.02
Si -1.81  3.23  0.01
Si  0.07 -2.15  3.03
Si  1.91  3.19  0.07
Si  1.80  3.12 -2.21
Si -3.60  0.08 -2.24
Si  0.03  2.11  3.69
Si  0.02  4.20  0.75
Si  1.80 -3.18 -2.23
Si -3.65 -2.11  0.79
Si -1.75 -1.10  3.77
Si  3.66 -2.11  0.79
Si -1.83 -3.17 -2.26
Si -1.84  3.19 -2.26
Si  3.65 -0.11 -2.34
Si  1.84 -1.01  3.79
Si  3.60  2.08 -2.96
Si -3.58 -2.08  3.03
Si -0.05 -4.25 -2.90
Si  3.62 -2.10  3.03
Si -0.02  4.21  3.02
Si -3.68  2.15 -3.00
Si  5.44  0.94  0.70
Si  3.71  2.08  3.66
Si  1.85 -5.25  0.79
Si -5.47  1.09  0.74
Si -3.65  2.12  3.74
Si  1.78 -0.99 -5.26
Si -1.80 -5.30  0.71
Si -1.82 -1.07 -5.24
Si -0.03  2.10 -5.26
Si -3.70  4.25  0.77
Si -0.03 -4.31  3.73
Si  3.76  4.25  0.80
Si -5.43 -0.96 -2.98
Si  1.83  5.25 -2.94
Si  0.00  2.09  5.94
Si -1.88  1.03 -5.92
Si -5.45  3.15 -0.04
Si  5.49  3.11 -0.02
Si  3.64  4.19  3.00
Si -3.65  4.21  2.98
Si -0.02  6.32  0.04
Si  5.50 -3.13  0.03
Si -3.67 -4.18 -3.03
Si  3.60 -4.26 -2.99
Si -1.83  5.30 -2.95
Si -5.51 -3.14  0.04
Si  1.86 -5.25  3.03
Si -5.47  1.08  3.02
Si -1.83 -5.31  2.94
Si  5.50 -1.17 -2.97
Si  5.55  0.98  2.95
Si -1.86 -1.01  6.00
Si  1.84  1.08 -6.01
Si -0.00 -2.13 -6.01
Si  0.05 -6.40  0.00
Si  1.88 -1.09  6.04
Si  0.05 -4.16 -5.14
Si -5.44 -3.11 -2.21
Si -3.66 -4.18  3.73
Si -5.49 -1.02  3.70
Si  3.65  2.14 -5.21
Si  1.84  5.28  3.72
Si  3.68 -4.20  3.74
Si  5.51  3.12 -2.27
Si -0.01  6.36 -2.21
Si -5.49  3.20 -2.23
Si  5.47 -3.28 -2.20
Si  5.53 -1.10  3.72
Si -1.84  5.32  3.74
Si -0.03 -6.39 -2.21
Si -0.00 -0.02  6.77
Si -3.73  2.14 -5.24
Si  3.64 -6.31  0.04
Si  3.67  2.18  5.91
Si -0.06 -4.24  5.93
Si  3.67 -2.05 -5.96
Si  3.66  6.32  0.02
Si -7.30  0.03  0.00
Si -3.65 -6.34  0.02
Si  7.32  0.03  0.00
Si -3.64  2.17  5.98
Si -0.06  4.21 -6.01
Si -3.64 -2.04 -6.03
Si -3.68  6.35  0.04
Si  1.77  5.19 -5.16
Si  3.68  0.08  6.64
Si  7.28 -0.05 -2.21
Si  7.30 -2.08  0.76
Si  5.47 -5.27  0.74
Si  1.82  3.14  6.71
Si -5.47 -5.26  0.75
Si  3.63 -4.21 -5.23
Si  3.62 -6.34 -2.24
Si  3.65  6.32 -2.27
Si -3.63 -4.14 -5.30
Si -1.80  3.17  6.71
Si -1.85  5.29 -5.19
Si -7.33 -2.08  0.76
Si -3.69  6.32 -2.24
Si -3.68  0.01  6.71
Si -5.49 -1.08 -5.23
Si -1.84  7.40  0.74
Si  1.84  7.40  0.75
Si  5.51 -1.05 -5.23
Si -7.34 -0.05 -2.21
Si -3.66 -6.34 -2.27
Si -1.85 -3.15  6.75
Si  1.77 -3.25  6.78
Si  5.41  5.21 -3.04
Si -1.75 -5.23 -5.97
Si  3.61  4.24 -5.92
Si  1.80 -7.34 -3.01
Si -7.26 -2.16  2.97
Si  1.81  5.24  5.96
Si -5.46 -5.28  2.97
Si  7.31  2.07 -2.99
Si  1.80 -5.24 -6.00
Si  1.85  7.38  2.97
Si -7.32  2.07 -2.99
Si -5.52 -1.02  5.94
Si -3.68 -4.18  5.98
Si -1.79  7.41  2.96
Si  5.47  1.08 -5.97
Si  5.53 -5.26  2.96
Si  3.61 -4.21  6.02
Si -5.50  1.02 -5.98
Si -1.84  5.30  5.97
Si -3.68  4.26 -5.96
Si  5.56 -1.00  5.97
Si  7.36 -2.16  2.97
Si -5.51  5.32 -3.01
Si -1.90 -7.45 -3.04
Si  7.30  4.15  0.73
Si  7.28  2.18  3.66
Si -7.32  4.15  0.73
Si -1.84  1.05 -8.18
Si -5.47  5.28  3.69
Si  1.84 -7.38  3.69
Si  5.47  5.27  3.76
Si -7.34  2.18  3.66
Si -1.84 -7.39  3.76
Si  1.84  1.06 -8.25
Si -0.03 -2.04 -8.28
Si -0.01 -8.51  0.73
Si -7.23 -4.23 -2.99
Si -0.01 -8.40  2.99
Si  0.08  8.43 -2.99
Si -0.01  0.04 -8.95
Si  0.08 -0.01  8.95
Si  7.30  4.26  2.99
Si -7.32  4.26  2.99
Si  7.39 -4.23 -2.99
Si -3.55 -8.41  0.80
Si  5.48 -3.11  6.67
Si -0.03  4.13 -8.21
Si  3.61 -8.41  0.77
Si -7.26 -4.24  3.73
Si -5.51 -3.12  6.67
Si  0.05  8.42  3.73
Si -1.83 -7.33 -5.27
Si  1.80 -7.34 -5.27
Si -0.03 -6.34  6.68
Si  5.49  3.15  6.70
Si  5.51  7.36  0.71
Si  7.30  2.12 -5.22
Si  3.67 -2.10 -8.20
Si -7.32  2.12 -5.22
Si -5.46  7.41  0.79
Si -0.01  6.34  6.72
Si  9.15  1.09  0.74
Si -5.54  3.23  6.68
Si -9.18  0.94  0.70
Si -3.60 -2.14 -8.28
Si  7.36 -4.24  3.73
Si  5.48  5.33 -5.27
Si -5.51  5.32 -5.27
Si -7.26  6.26  0.00
Si -9.07  0.98  2.95
Si  5.45 -5.23 -5.93
Si  1.88  7.35 -5.90
Si -5.42 -5.31 -5.90
Si  3.64  0.04  8.91
Si  5.47  7.35  2.94
Si  1.84 -7.36  5.93
Si  1.84 -3.14 -8.92
Si  7.30  2.09  5.92
Si  9.11 -3.14  0.04
Si -9.12 -3.13  0.03
Si  5.48 -7.36 -2.95
Si -1.81  3.05  8.97
Si -7.32  2.09  5.92
Si  1.86  3.19 -8.91
Si -9.14  3.11 -0.02
Si -5.47  5.30  5.93
Si -3.71  8.40 -2.99
Si -3.67 -0.03 -8.94
Si  5.43  5.25  6.02
Si  7.29 -6.34  0.04
Si -9.12 -1.17 -2.97
Si  7.36  6.26  0.00
Si -5.48 -7.42 -2.94
Si  3.66 -0.01 -8.96
Si -5.45  7.41  3.03
Si  3.66 -8.46  2.98
Si -3.71 -0.04  8.95
Si  1.80  9.52  0.04
Si -1.83 -3.14  8.99
Si -1.86  7.43 -5.93
Si -7.33 -6.34  0.04
Si  9.17  3.15 -0.04
Si  1.86 -9.52 -0.04
Si  9.15  1.08  3.02
Si -7.31 -2.13 -6.00
Si -1.83  3.13 -9.00
Si  7.31 -2.13 -6.00
Si -1.81  9.53  0.03
Si -3.67 -8.47  3.00
Si  9.19 -0.96 -2.98
Si  1.87  3.26  8.96
Si -1.76 -3.24 -8.99
Si  3.64  8.48 -3.03
Si  1.83 -3.19  9.00
Si -1.82 -9.56 -0.02
Si -1.88 -7.41  6.02
Si -1.85  9.38 -2.20
Si  7.28  6.27 -2.21
Si -0.00  8.42 -5.17
Si  1.82 -9.46 -2.23
Si -9.10 -1.10  3.72
Si  5.47 -7.34  3.74
Si -9.11  3.12 -2.27
Si  7.30 -6.30 -2.21
Si -7.34  6.27 -2.21
Si -7.32 -6.30 -2.21
Si  3.58  6.36  6.70
Si -7.31 -4.25 -5.17
Si  9.13 -1.02  3.70
Si  7.31 -4.25 -5.17
Si -5.47 -7.38  3.72
Si  3.65 -6.30  6.73
Si  5.47  1.10 -8.20
Si -5.47  1.06 -8.22
Si  9.13  3.20 -2.23
Si -3.73 -6.30  6.70
Si  1.82 -5.25 -8.24
Si  9.18 -3.11 -2.21
Si -3.63  8.46  3.74
Si  3.68  4.24 -8.20
Si -3.66  4.26 -8.21
Si -7.26  0.06  6.80
Si -1.78 -5.32 -8.22
Si -0.01 -2.08  9.73
Si  3.65  8.48  3.73
Si -1.85  0.94  9.74
Si -3.66  6.36  6.73
Si  1.87  1.11  9.73
Si -1.80 -9.54 -2.27
Si -9.15 -3.28 -2.20
Si  1.87  9.55 -2.21
Si  7.36  0.06  6.80
Si  7.29  4.23 -5.96
Si -0.02 -8.44 -5.96
Si  7.29 -4.21  5.98
Si -7.33  4.23 -5.96
Si -0.02  8.45  5.98
Si -7.33 -4.21  5.98
Si  5.46 -7.37 -5.19
Si  3.65 -2.12  9.67
Si -9.12 -1.05 -5.23
Si  9.15 -5.26  0.75
Si -0.03  4.17  9.72
Si  9.14 -1.08 -5.23
Si -9.15 -5.27  0.74
Si -3.69 -2.12  9.70
Si -3.68  8.45 -5.23
Si -0.02 10.58  0.76
Si -5.54 -7.47 -5.16
Si  3.68  8.52 -5.30
Si -9.06 -1.00  5.97
Si -5.40 -9.47  0.07
Si  0.07  6.29 -8.91
Si  5.41 -3.23  8.90
Si -9.10 -5.26  2.96
Si  5.50 -9.43  0.01
Si  0.05 10.51  2.97
Si  9.11 -1.02  5.94
Si  3.63 -8.40 -5.96
Si -0.00 -6.32  8.92
Si  5.48  3.19  8.91
Si -0.01  6.29  8.95
Si  5.47 -7.36  5.97
Si 10.94  0.00 -0.02
Si -3.70 -8.43 -5.92
Si -5.51 -3.12  8.93
Si  9.12  1.02 -5.98
Si  5.51  9.47 -0.01
Si -5.54  3.14  8.93
Si  9.11  5.32 -3.01
Si -5.46  3.16 -8.97
Si  5.49 -3.17 -8.95
Si -9.15  1.08 -5.97
Si -5.47 -3.12 -9.00
Si  9.16 -5.28  2.97
Si -5.50  9.51  0.01
Si  3.63  8.48  5.98
Si -5.50 -7.42  5.96
Si  0.05 -6.38 -8.97
Si -0.00 -10.59 -2.99
Si -9.21  5.21 -3.04
Si -11.01 -0.07 -0.09
Si  5.53  3.18 -8.98
Si -3.70  8.46  6.02
Si -5.52  7.42 -6.00
Si  5.56  7.44 -5.97
Si -3.66  4.11  9.60
Si -0.03 -10.48  3.66
Si -5.47 -5.23 -8.15
Si -1.75  7.34 -8.17
Si  5.47 -9.47 -2.26
Si -1.84 -5.25  9.68
Si  5.47  1.05  9.68
Si  1.84  7.43 -8.15
Si  5.47  9.49 -2.26
Si  9.15  5.28  3.69
Si -3.65 10.55  0.79
Si -10.96 -2.11  0.79
Si -7.29 -8.46  0.75
Si -5.52  9.48 -2.23
Si  3.66 10.55  0.79
Si -7.28 -2.11 -8.25
Si 10.97 -2.11  0.79
Si -9.15  5.27  3.76
Si -0.01 -0.07 -11.21
Si -10.97 -0.11 -2.34
Si -5.52  1.04  9.71
Si  7.33 -8.46  0.75
Si  5.56 -5.32 -8.17
Si  1.80 -5.32  9.73
Si -5.51 -9.54 -2.21
Si  3.71  4.30  9.70
Si 11.02  0.08 -2.24
Si  7.35 -2.11 -8.25
Si  7.26  8.41 -2.90
Si -3.58  6.36 -8.91
Si  3.62  6.34 -8.91
Si  3.63 -10.51 -3.00
Si  7.29 -0.01 -8.92
Si -3.69 -6.33 -8.91
Si  3.73 -6.30 -8.91
Si -3.68 -6.29  8.94
Si -7.36  8.41 -2.90
Si -7.33 -0.01 -8.92
Si 10.94  2.15 -3.00
Si  7.29 -8.45  3.02
Si  3.63  6.37  8.94
Si -3.71  6.30  8.98
Si  3.60 -6.37  8.98
Si -7.33 -8.45  3.02
Si -3.69 10.56  3.03
Si -11.02  2.08 -2.96
Si  7.26 -0.03  9.04
Si -11.00 -2.10  3.03
Si -3.71 -10.59 -2.96
Si  3.73 10.58  3.03
Si 11.04 -2.08  3.03
Si -7.36 -0.03  9.04
Si  7.28  8.35  3.73
Si -10.91  2.08  3.66
Si  1.78 -9.43  6.68
Si -10.86  4.25  0.80
Si -3.55  0.03 -11.14
Si  9.11 -3.12  6.67
Si -7.34  8.35  3.73
Si  9.09  3.23  6.68
Si  7.28  6.32  6.68
Si -9.11  7.36  0.71
Si -9.14 -3.11  6.67
Si  3.61  0.03 -11.17
Si -7.26  4.20 -8.21
Si 10.92  4.25  0.77
Si  1.84 -11.58  0.74
Si  1.85  3.19 -11.16
Si -9.13  3.15  6.70
Si -3.60 -10.58  3.66
Si -0.01 -10.55 -5.22
Si  3.67 -10.54  3.74
Si -7.34  6.32  6.68
Si  7.30 -6.33  6.72
Si  1.84 -3.13 -11.20
Si -1.82 -9.51  6.70
Si -7.32 -6.33  6.72
Si  1.79  9.54  6.67
Si 10.97  2.12  3.74
Si  9.11  5.32 -5.27
Si  0.05 -8.46 -8.21
Si -1.83  9.55  6.67
Si  7.36  4.20 -8.21
Si -1.80  3.14 -11.23
Si  9.16  7.41  0.79
Si -9.14  5.33 -5.27
Si -1.87 -3.28 -11.24
Si -1.87 -11.72  0.70
Si -1.81 11.49 -2.97
Si -9.15  7.35  2.94
Si -9.14 -7.36 -2.95
Si  1.84 -11.58  3.02
Si  0.05  2.04 -11.94
Si -9.17 -5.23 -5.93
Si 10.96 -4.18 -3.03
Si -0.00 -10.57  5.92
Si  0.00 10.53 -6.00
Si 10.97  4.21  2.98
Si  9.15  5.30  5.93
Si -10.98  4.19  3.00
Si  9.14 -7.42 -2.94
Si  9.20 -5.31 -5.90
Si -1.82 -1.11 -11.96
Si -1.81  1.09 11.97
Si -0.02 -2.12 11.98
Si  1.80  1.08 11.98
Si  9.17  7.41  3.03
Si -1.76 -11.68  2.95
Si  1.86 -1.07 -11.98
Si -9.19  5.25  6.02
Si -11.02 -4.26 -2.99
Si  1.87 11.70 -2.98
Si 10.89  2.14 -5.24
Si -1.80  7.34  9.67
Si -1.79 11.57  3.72
Si  3.58 -10.53 -5.24
Si -3.66 -10.52 -5.21
Si  3.65 -8.40 -8.21
Si -10.94 -4.20  3.74
Si -3.63 -8.42 -8.20
Si -7.26  8.50 -5.14
Si 10.96 -4.18  3.73
Si -9.15 -7.34  3.74
Si -5.49 -5.24  9.71
Si  5.53  7.34 -8.22
Si  9.15 -7.38  3.72
Si -10.97  2.14 -5.21
Si -9.15  1.10 -8.20
Si  5.51 -5.32  9.67
Si  9.15  1.06 -8.22
Si  1.82 11.64  3.70
Si  7.28 -2.17  9.73
Si  1.82  7.42  9.71
Si  7.36  8.50 -5.14
Si -5.49  7.42 -8.24
Si -7.34 -2.17  9.73
Si -3.64 -10.48  5.91
Si  7.25  8.43  5.93
Si  3.67 -10.49  5.98
Si  3.64  2.13 -11.90
Si  0.01 -12.63  0.00
Si -10.95 -2.05 -5.96
Si -10.95  2.18  5.91
Si -3.65  2.10 -11.92
Si  0.01 -4.19 -11.94
Si -10.96  6.32  0.02
Si 10.95  6.35  0.04
Si  7.26 -8.46 -6.01
Si -7.37  8.43  5.93
Si -10.99 -6.31  0.04
Si 10.97 -6.34  0.02
Si  0.01  4.25 11.95
Si  3.66 -2.12 11.96
Si 10.98  2.17  5.98
Si 10.98 -2.04 -6.03
Si  0.01 12.70  0.00
Si -3.68 -2.09 11.98
Si -3.64 10.61 -5.96
Si -7.36 -8.46 -6.01
Si  3.67 10.62 -6.03
Si -10.94  0.08  6.64
Si -0.03 12.62 -2.21
Si 10.93  6.32 -2.24
Si -0.01 -6.30 -11.18
Si 10.94  0.01  6.71
Si  5.49 -11.58  0.76
Si  0.01  6.33 -11.17
Si  9.08 -7.47 -5.16
Si  1.82 11.59 -5.23
Si -0.05 -8.41  9.71
Si  7.26  4.25  9.71
