500
set: 945.00  0.00  0.00
Si -0.37  1.13 -0.87
Si  0.38 -1.19  0.81
Si -1.29 -1.16 -0.81
Si  1.31  1.14  0.83
Si  2.13 -1.15 -0.80
Si  0.87 -0.02 -2.40
Si -2.13  1.18  0.79
Si -0.88  0.08  2.42
Si -3.02 -1.18  0.79
Si  3.02  1.21 -0.81
Si  0.04  2.31  2.44
Si  0.00 -2.35 -2.41
Si -2.58 -0.03 -2.43
Si -0.47 -3.44  0.79
Si  2.60 -0.04  2.48
Si  0.47  3.49 -0.79
Si -1.27  3.43  0.78
Si  1.72  2.31 -2.40
Si -1.66  2.30 -2.46
Si  1.28 -3.45 -0.78
Si  1.75 -2.33  2.39
Si -1.80 -2.34  2.41
Si -0.84 -0.00 -4.00
Si -3.89  1.11 -0.80
Si  0.86 -0.02  4.05
Si -2.19 -3.45 -0.79
Si  3.91 -1.16  0.85
Si  2.18  3.50  0.79
Si -0.07 -2.33  3.99
Si -2.97  3.46 -0.85
Si  3.04 -3.48  0.73
Si  0.09  2.34 -4.08
Si -3.42  2.32  2.40
Si  3.42 -2.32 -2.43
Si -2.57  0.01  4.07
Si  3.48  2.32  2.41
Si  2.62  0.03 -4.08
Si -3.53 -2.29 -2.47
Si -4.27  0.06  2.37
Si  4.28 -0.02 -2.40
Si  4.73  1.15  0.76
Si -1.75 -2.23 -4.04
Si  1.73 -2.30 -4.05
Si  1.73  2.30  4.08
Si -4.80 -1.17 -0.78
Si -1.74  2.32  4.08
Si  0.86  4.60  2.41
Si  0.82 -4.62  2.41
Si -0.94 -4.62 -2.40
Si  3.94  3.49 -0.78
Si -3.93 -3.51  0.78
Si -0.87  4.65 -2.47
Si  3.44  2.31 -3.98
Si  0.40 -1.17 -5.61
Si -3.42  2.31 -4.00
Si  5.58 -1.17 -0.78
Si  3.40 -2.31  4.04
Si  2.55 -4.61 -2.38
Si -0.42  1.24  5.64
Si  0.36 -5.73 -0.81
Si -5.65  1.15  0.76
Si  2.66  4.58 -2.41
Si -0.37  5.76  0.79
Si -2.56  4.62  2.48
Si -2.62 -4.62  2.44
Si -1.25 -1.13  5.61
Si -3.49 -2.33  4.09
Si -4.67  3.46  0.73
Si  4.74 -3.48 -0.85
Si  1.25  1.14 -5.70
Si -4.37  0.06 -4.04
Si  1.37  5.78 -0.81
Si  4.38 -0.02  4.11
Si -1.35 -5.80  0.83
Si -2.16  1.14 -5.60
Si -5.17  2.33 -2.38
Si  0.78 -4.63 -3.98
Si  5.16 -2.32  2.48
Si  5.21  2.33 -2.38
Si  2.07 -5.79  0.76
Si  2.11 -1.16  5.71
Si -2.14  5.77 -0.78
Si -0.83  4.61  4.09
Si -5.22 -2.32  2.48
Si -0.93 -4.63  4.08
Si  0.91  4.71 -4.04
Si -3.07 -1.15 -5.61
Si  3.06  1.16  5.64
Si  6.10  0.06  2.37
Si -6.09 -0.02 -2.40
Si  3.04  5.75  0.81
Si -3.03 -5.81 -0.87
Si  2.58  4.61  3.99
Si -6.46 -1.16  0.85
Si  2.55 -4.64  3.98
Si  6.49  1.11 -0.80
Si -0.47 -3.49 -5.64
Si -2.57 -4.60 -4.08
Si -2.60  4.60 -4.07
Si -5.63 -3.48 -0.85
Si  0.49  3.47  5.69
Si  1.29 -3.44  5.61
Si  5.70  3.46  0.73
Si -1.24  3.48 -5.62
Si  4.30 -4.62  2.40
Si -4.30  4.61 -2.43
Si -4.32 -4.63 -2.46
Si  4.41  4.61  2.39
Si -5.16  2.30  3.98
Si  5.11 -2.33 -4.07
Si  5.21  2.30  3.98
Si -3.94  1.13  5.62
Si  2.19  3.45 -5.64
Si -3.80  5.78  0.85
Si  3.88 -1.17 -5.71
Si -2.17 -3.47  5.69
Si  3.83 -5.83 -0.80
Si -5.26 -2.33 -4.07
Si  6.01  0.06 -4.04
Si  3.05 -3.49 -5.58
Si -6.00 -0.02  4.11
Si -3.04  3.52  5.65
Si  0.08  6.91 -2.43
Si -6.43  3.49 -0.78
Si  6.44 -3.51  0.78
Si -0.47  1.13 -7.28
Si  0.39 -1.16  7.29
Si -0.06 -6.98  2.48
Si -1.29 -1.15 -7.25
Si  4.73  1.16 -5.65
Si  4.29 -4.62 -4.00
Si  1.33  1.11  7.28
Si  7.35 -1.18  0.79
Si -7.36  1.21 -0.81
Si -4.75 -1.16  5.69
Si -4.31  4.63  4.04
Si -4.79 -5.76  0.79
Si  1.62 -6.95 -2.40
Si  4.79  5.78 -0.80
Si  4.39  4.63 -4.05
Si -1.61  6.99  2.37
Si -4.40 -4.62  4.08
Si -1.78 -6.96 -2.40
Si  1.78  7.01  2.42
Si  6.85 -2.29 -2.47
Si -2.20  1.18  7.21
Si -3.90 -3.46 -5.62
Si -6.90  2.32  2.41
Si  2.15 -1.15 -7.28
Si  3.95  3.50  5.61
Si  6.96  2.32  2.40
Si -6.96 -2.32 -2.43
Si -2.99 -1.16  7.23
Si -5.97  4.61  2.39
Si  3.08  1.14 -7.30
Si -6.08 -4.62  2.40
Si  6.07  4.61 -2.43
Si  6.05 -4.63 -2.46
Si -0.04 -6.90 -4.08
Si  3.44 -6.88  2.37
Si  0.09  6.95  4.07
Si -4.67  3.45 -5.58
Si  5.59 -5.76  0.79
Si -5.64  1.16 -5.65
Si -0.41  5.79 -5.61
Si -5.58  5.78 -0.80
Si  5.62 -1.16  5.69
Si  0.40 -5.77  5.64
Si -3.54 -6.86  2.42
Si -0.46 -3.49  7.29
Si  4.68 -3.41  5.65
Si -3.44  6.92 -2.40
Si  0.45  3.54 -7.27
Si  1.27 -3.51 -7.21
Si -1.25  3.44  7.26
Si  3.53  6.92 -2.40
Si -0.52 -8.09 -0.80
Si -7.33 -3.48  0.73
Si  7.79 -0.03 -2.43
Si -7.78 -0.04  2.48
Si  0.53  8.12  0.79
Si -1.23  8.05 -0.80
Si  1.41  5.81  5.61
Si  1.82  6.94 -4.00
Si  7.40  3.46 -0.85
Si  1.25 -8.10  0.85
Si -1.80 -6.96  4.05
Si -1.41 -5.80 -5.70
Si -1.71  6.99 -4.04
Si  1.72 -6.96  4.11
Si -3.89  1.15 -7.20
Si -2.21 -3.39 -7.27
Si -6.94  2.31 -3.98
Si  6.89 -2.33  4.09
Si  2.07 -5.78 -5.65
Si  6.95  2.31 -4.00
Si  3.88 -1.14  7.31
Si  2.20  3.45  7.29
Si -8.24 -1.15 -0.80
Si  8.25  1.18  0.79
Si -2.10  5.78  5.69
Si -6.97 -2.31  4.04
Si  2.29  8.06 -0.87
Si -2.28 -8.12  0.81
Si  5.98 -4.62  4.08
Si -5.99  4.63 -4.05
Si -3.08 -5.70  5.64
Si  2.95 -3.49  7.29
Si  3.06  5.77 -5.61
Si  6.44  1.13  5.62
Si -6.08 -4.62 -4.00
Si  6.06  4.63  4.04
Si -2.94  3.53 -7.32
Si  2.92 -8.11 -0.78
Si -2.99  8.09  0.76
Si  3.35 -6.88 -4.04
Si  5.71  3.45 -5.58
Si -3.34  6.92  4.11
Si -5.70 -3.41  5.65
Si -6.49 -1.17 -5.71
Si -3.50 -6.94 -4.00
Si  4.74  1.14  7.25
Si  3.52  6.92  4.05
Si -7.76  0.03 -4.08
Si -4.75 -1.15 -7.28
Si  6.57  5.78  0.85
Si -6.55 -5.83 -0.80
Si  7.81  0.01  4.07
Si  3.92  3.42 -7.21
Si  8.19 -3.45 -0.79
Si  3.78 -5.80  5.62
Si -5.12  6.89  2.48
Si  0.85  0.03 -8.90
Si -0.86  0.02  8.90
Si -8.19  3.50  0.79
Si -3.91 -3.50  7.26
Si -3.83  5.77 -5.71
Si  5.14 -6.97 -2.43
Si  5.25  6.89  2.48
Si  3.97  8.07  0.83
Si -3.95 -8.10 -0.81
Si -5.24 -6.97 -2.43
Si -0.02 -2.33 -8.86
Si -9.07  1.14  0.83
Si  0.04  2.31  8.88
Si  9.08 -1.16 -0.81
Si  8.58 -2.34  2.41
Si -6.43  3.50  5.61
Si  6.48 -3.46 -5.62
Si -8.63 -2.33  2.39
Si -0.33  5.77  7.23
Si -5.63  1.14  7.25
Si -8.66  2.31 -2.40
Si  5.63 -1.15 -7.28
Si -1.70 -2.34  8.82
Si  2.61  0.02  8.91
Si -2.60 -0.04 -8.91
Si  7.31 -1.15 -5.61
Si -7.71  4.58 -2.41
Si -7.32  1.16  5.64
Si  1.69 -2.26  8.88
Si  1.71  2.28 -8.88
Si  0.42 -5.80 -7.30
Si -1.70  2.29 -8.89
Si  8.71  2.30 -2.46
Si  7.76 -4.62  2.44
Si -7.34  5.75  0.81
Si -4.76  3.45  7.29
Si  1.37  5.78 -7.25
Si  4.77 -3.41 -7.32
Si -7.83 -4.61 -2.38
Si -4.82 -5.80 -5.60
Si  7.35 -5.81 -0.87
Si  4.69 -8.11  0.79
Si -1.33 -5.82  7.28
Si  7.82  4.62  2.48
Si  4.76  5.78  5.71
Si -4.70  8.14 -0.81
Si  2.08 -5.79  7.25
Si -2.09  5.78 -7.28
Si  5.15 -6.93  4.07
Si -5.10  6.97 -4.08
Si -5.23 -6.93  4.07
Si -0.76  9.25  2.40
Si  0.76 -9.26 -2.43
Si -0.91 -9.27  2.39
Si  1.00  9.24 -2.46
Si  5.28  6.97 -4.08
Si -9.09 -3.45 -0.78
Si  9.10  3.43  0.78
Si  6.49  1.15 -7.20
Si  8.62 -2.23 -4.04
Si  5.56 -5.80 -5.60
Si  3.05  5.78  7.29
Si -9.50 -0.02 -2.40
Si  9.50  0.08  2.42
Si -3.46 -2.29 -8.90
Si  3.46  2.32  8.89
Si -8.65 -2.30 -4.05
Si -3.13 -5.81 -7.28
Si  5.61  3.45  7.29
Si  8.64  2.32  4.08
Si -5.60 -3.41 -7.32
Si -4.30 -0.01  8.84
Si -3.47  2.30  8.91
Si  3.40 -2.32 -8.93
Si -8.65  2.30  4.08
Si  0.50  8.08 -5.60
Si -6.50 -1.14  7.31
Si -7.33 -3.49 -5.58
Si -5.61  5.78  5.71
Si -2.51  9.27 -2.38
Si -7.79  4.61  3.99
Si  2.50 -9.25  2.48
Si  7.77  4.60 -4.07
Si  7.34  3.52  5.65
Si -1.28  8.07  5.62
Si -0.55 -8.09  5.71
Si -7.82 -4.64  3.98
Si  7.80 -4.60 -4.08
Si -5.68 -8.11  0.79
Si  2.70  9.25  2.44
Si -2.66 -9.29 -2.41
Si  5.68  8.14 -0.81
Si  4.37 -0.01 -8.96
Si  6.84 -6.86  2.42
Si  1.22 -8.10 -5.71
Si  0.96  4.60  8.82
Si  3.83 -5.78 -7.20
Si  8.22  1.14 -5.60
Si -6.84  6.92 -2.40
Si -6.93 -6.88  2.37
Si  0.81 -4.62  8.89
Si -0.95 -4.66 -8.88
Si -0.80  4.65 -8.90
Si -3.84  5.80  7.31
Si  8.24  5.77 -0.78
Si  6.94  6.92 -2.40
Si -10.00 -1.19  0.81
Si -0.77  9.25 -4.00
Si 10.01  1.13 -0.87
Si -2.26 -8.10 -5.61
Si -8.27 -1.16  5.71
Si  0.74 -9.25  4.04
Si -0.93 -9.24 -4.05
Si -8.30 -5.79  0.76
Si  0.92  9.26  4.08
Si  2.23  8.18  5.64
Si -6.45  3.42 -7.21
Si  2.58 -4.63 -8.84
Si -2.98  8.09 -5.65
Si -2.56  4.58  8.88
Si  2.96 -8.09  5.69
Si  2.64  4.61 -8.86
Si  6.46 -3.50  7.26
Si -9.51 -0.02  4.05
Si -6.41  8.07  0.83
Si  9.54 -0.00 -4.00
Si -2.62 -4.63  8.88
Si -2.50  9.24  3.98
Si  6.42 -8.10 -0.81
Si -7.30  1.14 -7.30
Si  7.38 -1.16  7.23
Si  2.45 -9.27 -4.07
Si  6.54  5.77 -5.71
Si  4.19 -9.22 -2.47
Si -6.59 -5.80  5.62
Si -4.86 -5.75  7.21
Si -0.32 10.39 -0.85
Si  0.39 -10.41  0.73
Si -2.73 -9.27  3.99
Si -4.24  9.26  2.41
Si  4.80  5.79 -7.28
Si -5.13  2.31 -8.84
Si  1.38 10.36  0.78
Si  2.74  9.28 -4.08
Si -1.37 -10.38 -0.78
Si  4.38  9.25 -2.40
Si  9.90 -3.44  0.79
Si -0.86  0.02 -10.48
Si  0.85  0.03 10.48
Si -8.19  3.45 -5.64
Si -9.90  3.49 -0.79
Si  5.24  2.31 -8.84
Si  5.16 -2.36  8.88
Si -6.86  6.92  4.05
Si  6.88 -6.94 -4.00
Si -4.46 -9.27  2.41
Si -3.90 -8.07  5.61
Si -5.22 -2.36  8.88
Si  8.21 -3.47  5.69
Si -2.01 10.39  0.73
Si  3.91  8.07 -5.70
Si -7.03 -6.88 -4.04
Si  2.08 -10.41 -0.85
Si  7.03  6.92  4.11
Si  6.07 -0.01  8.84
Si -9.01  5.78 -0.81
Si  0.04  2.31 -10.49
Si  5.52 -5.75  7.21
Si  9.03 -5.80  0.83
Si -0.02 -2.33 10.52
Si  9.13 -1.13  5.61
Si  9.44 -4.62 -2.40
Si -6.00 -0.01 -8.96
Si -2.60 -0.04 10.47
Si  2.61  0.02 -10.47
Si -9.12  1.14 -5.70
Si  7.29 -5.70  5.64
Si -5.57  5.79 -7.28
Si -9.52  4.60  2.41
Si -10.75  1.13 -0.87
Si 10.76 -1.19  0.81
Si -1.70  2.29 10.48
Si -3.13 -10.37  0.79
Si  9.51  4.65 -2.47
Si -10.34  2.31  2.44
Si  0.46  8.12  7.21
Si  1.69 -2.26 -10.50
Si -7.32  5.77 -5.61
Si  4.65 -8.08 -5.61
Si  1.71  2.28 10.50
Si -9.56 -4.62  2.41
Si -0.51 -8.08 -7.28
Si -1.23  8.09 -7.20
Si  4.25 -4.64  8.91
Si -10.37 -2.35 -2.41
Si 10.38 -2.35 -2.41
Si  3.13 10.43 -0.79
Si -4.66  8.10  5.64
Si  4.35  4.68  8.88
Si -4.35 -4.64 -8.89
Si -4.28  9.25 -3.98
Si -4.32  4.62 -8.93
Si -4.41 -9.16 -4.04
Si 10.42  2.31  2.44
Si -1.70 -2.34 -10.56
Si  1.22 -8.07  7.31
Si  8.18  1.18  7.21
Si -7.42 -3.49  7.29
Si  4.23 -9.26  4.09
Si  7.39  8.09  0.76
Si  4.39  9.24  4.08
Si  7.43  3.53 -7.32
Si -7.46 -8.11 -0.78
Si -8.23 -1.15 -7.28
Si  2.19  8.07 -7.28
Si -3.77 10.43 -0.78
Si -2.27 -8.09  7.29
Si  3.78 -10.45  0.78
Si -9.09 -3.44  5.61
Si  3.40 -2.32 10.45
Si -2.97  8.08  7.25
Si  5.92 -9.27  2.41
Si -3.47  2.30 -10.47
Si  0.06  6.89 -8.91
Si -3.46 -2.29 10.48
Si -0.04 -6.91  8.91
Si  9.14  3.48 -5.62
Si -6.00  9.25 -2.40
Si  9.45 -4.63  4.08
Si  2.97 -8.09 -7.28
Si  3.46  2.32 -10.49
Si 10.30 -2.33  3.99
Si  4.37 -0.01 10.42
Si  8.59 -6.96 -2.40
Si -10.29  2.34 -4.08
Si -6.54 -5.78 -7.20
Si -9.47  4.71 -4.04
Si -1.65  6.93  8.84
Si -8.60  7.01  2.42
Si  6.13  9.26  2.41
Si  9.55  4.61  4.09
Si -9.60 -4.63 -3.98
Si -6.19 -9.22 -2.47
Si -4.30 -0.01 -10.54
Si -5.73 -8.08 -5.61
Si  6.54  5.80  7.31
Si -1.80 -6.90 -8.90
Si  5.72  8.10  5.64
Si -10.85 -3.44  0.79
Si 10.85  3.49 -0.79
Si -10.45 -2.33  3.99
Si -8.75 -6.95 -2.40
Si  1.80  6.96  8.90
Si  8.17 -3.39 -7.27
Si -8.09  8.06 -0.87
Si  8.76  6.99  2.37
Si  1.72 -6.95 -8.96
Si 10.46  2.34 -4.08
Si -8.17  3.45  7.29
Si -4.85 -10.38 -0.79
Si  0.81 -4.62 -10.49
Si -0.80  4.65 10.48
Si -6.91  2.32  8.89
Si  8.10 -8.12  0.81
Si  6.92 -2.29 -8.90
Si 11.25 -0.02 -2.40
Si  6.91  2.30  8.91
Si -9.98 -1.17 -5.61
