500
set: 801.00  0.00  0.00
Si  0.34 -1.15  0.85
Si -0.48  1.21 -0.88
Si  1.31  1.24  0.83
Si -1.38 -1.30 -0.96
Si  2.19 -1.23 -0.88
Si -2.26  1.30  0.83
Si  0.91  0.05 -2.60
Si -1.06  0.04  2.59
Si  3.16  1.21 -0.81
Si -3.21 -1.16  0.84
Si  0.03  2.50  2.56
Si -0.05 -2.57 -2.52
Si  2.72 -0.05  2.53
Si -2.72  0.03 -2.56
Si  0.57  3.63 -0.82
Si -0.55 -3.74  0.81
Si  1.75 -2.39  2.52
Si  1.89  2.42 -2.58
Si -1.72  2.53 -2.61
Si -1.33  3.73  0.85
Si  1.36 -3.73 -0.81
Si -1.90 -2.57  2.50
Si  0.81  0.01  4.21
Si  4.01 -1.25  0.84
Si -4.09  1.25 -0.89
Si -0.88 -0.02 -4.30
Si  2.41  3.69  0.85
Si -2.39 -3.80 -0.87
Si  3.13 -3.60  0.86
Si  0.07  2.41 -4.26
Si -3.11  3.69 -0.90
Si -0.15 -2.50  4.25
Si -3.66 -2.42 -2.50
Si  3.63 -2.41 -2.56
Si -3.68  2.42  2.54
Si -2.80 -0.10  4.24
Si  2.77  0.02 -4.30
Si  3.68  2.47  2.60
Si  1.80  2.37  4.29
Si -1.78  2.44  4.26
Si -1.81 -2.40 -4.29
Si  1.75 -2.58 -4.23
Si  5.04  1.23  0.85
Si  4.61  0.08 -2.54
Si -4.61 -0.04  2.53
Si -5.06 -1.25 -0.80
Si  0.92  4.86  2.54
Si  0.87 -4.92  2.55
Si -4.25 -3.61  0.86
Si -0.81  4.97 -2.58
Si  4.23  3.66 -0.86
Si -1.03 -4.96 -2.61
Si  5.88 -1.22 -0.88
Si -2.71  4.85  2.52
Si -5.89  1.33  0.84
Si  2.67 -4.85 -2.61
Si -3.62  2.44 -4.30
Si  3.61 -2.50  4.28
Si  3.73  2.42 -4.23
Si -3.74 -2.48  4.20
Si  1.38  1.18 -5.88
Si  0.47 -1.37 -6.00
Si -0.47  1.28  6.04
Si  2.80  4.88 -2.61
Si -4.54 -0.14 -4.23
Si  4.98 -3.67 -0.85
Si  0.40 -6.18 -0.86
Si -1.46 -1.21  5.96
Si -4.99  3.71  0.84
Si  1.44  6.04 -0.87
Si  4.60  0.02  4.31
Si -0.42  6.23  0.86
Si -2.92 -4.98  2.54
Si -1.42 -6.15  0.85
Si  2.21 -1.21  5.93
Si  5.42 -2.42  2.58
Si -5.40  2.53 -2.58
Si -2.33  1.20 -5.98
Si -0.98  4.95  4.15
Si -2.19  6.09 -0.93
Si  0.98  4.87 -4.25
Si -5.55 -2.46  2.53
Si -1.06 -4.99  4.23
Si  2.21 -6.20  0.86
Si  5.59  2.52 -2.58
Si  0.83 -5.05 -4.29
Si -6.37  0.01 -2.51
Si  3.18  1.20  5.98
Si -3.16 -1.25 -6.02
Si  6.47  0.07  2.58
Si  0.57  3.76  5.84
Si  3.29  6.10  0.81
Si  6.84  1.18 -0.84
Si -2.66  4.87 -4.28
Si  2.78  4.86  4.23
Si -1.25  3.59 -5.90
Si  2.67 -4.88  4.29
Si -6.88 -1.19  0.84
Si -0.54 -3.76 -5.92
Si -3.27 -6.21 -0.82
Si  1.32 -3.62  5.96
Si  6.05  3.64  0.86
Si  4.55 -4.86  2.56
Si -4.40  5.04 -2.50
Si -2.86 -4.97 -4.25
Si -6.02 -3.75 -0.93
Si -4.65 -4.87 -2.58
Si  4.70  4.92  2.55
Si  5.45 -2.42 -4.18
Si -3.98  1.23  5.99
Si  4.03 -1.32 -5.94
Si -5.42  2.49  4.27
Si -5.51 -2.49 -4.19
Si  2.39  3.59 -5.97
Si  4.02 -6.12 -0.91
Si  5.53  2.39  4.30
Si -2.42 -3.65  6.01
Si -4.00  6.24  0.92
Si -6.33  0.12  4.29
Si  6.40  0.04 -4.26
Si -3.10  3.66  6.01
Si  3.20 -3.76 -5.91
Si -0.45  1.24 -7.61
Si  6.79 -3.60  0.92
Si  0.41 -1.30  7.65
Si -6.77  3.72 -0.91
Si -0.16 -7.38  2.60
Si  0.18  7.42 -2.50
Si  7.74 -1.19  0.84
Si  4.52 -4.96 -4.14
Si  1.32  1.19  7.70
Si -5.05 -1.24  5.95
Si -7.78  1.18 -0.84
Si  5.06  1.24 -5.97
Si  1.94  7.27  2.50
Si -4.42  4.96  4.34
Si  4.67  4.79 -4.29
Si  1.76 -7.32 -2.58
Si -1.29 -1.19 -7.78
Si -1.71  7.38  2.53
Si -4.82 -4.90  4.15
Si -5.17 -6.12  0.85
Si  7.29 -2.40 -2.46
Si  5.20  6.11 -0.81
Si -4.13 -3.77 -5.85
Si -7.33 -2.40 -2.46
Si -1.94 -7.43 -2.58
Si -7.25  2.51  2.61
Si  4.19  3.68  5.88
Si  2.33 -1.27 -7.74
Si -2.27  1.19  7.77
Si  7.37  2.51  2.61
Si  6.39 -4.80 -2.50
Si -6.24  4.99  2.56
Si -5.80  1.22 -5.93
Si  3.30  1.27 -7.66
Si -0.30  6.08 -5.85
Si -3.22 -1.30  7.73
Si  0.09  7.37  4.20
Si  5.80 -6.13  0.84
Si  5.97 -1.22  5.91
Si  0.52  3.68 -7.66
Si -5.81  6.17 -0.85
Si  0.35 -6.16  5.88
Si -0.10 -7.42 -4.23
Si  3.54 -7.33  2.61
Si -8.15  0.07  2.58
Si -1.30  3.70  7.61
Si  3.79  7.28 -2.52
Si -3.50  7.44 -2.46
Si  4.97 -3.61  6.01
Si -0.60 -3.71  7.74
Si  6.51  4.99 -2.61
Si -6.55 -5.00  2.52
Si  1.32 -3.76 -7.64
Si  8.25  0.01 -2.51
Si -1.67  7.35 -4.19
Si -4.89  3.84 -6.01
Si -3.81 -7.35  2.56
Si -7.83 -3.60  0.92
Si -0.68 -8.63 -0.81
Si  7.23 -2.39  4.23
Si -1.23  8.59 -0.80
Si -7.21  2.46 -4.27
Si  2.33  3.59  7.62
Si  7.85  3.72 -0.91
Si  1.21 -8.61  0.85
Si -2.33 -3.67 -7.58
Si  0.63  8.68  0.84
Si  1.41  6.20  6.01
Si  4.11 -1.28  7.63
Si  1.70 -7.45  4.30
Si -1.45 -6.26 -5.97
Si -2.20  6.17  5.86
Si  2.02  7.44 -4.29
Si -7.39 -2.39  4.23
Si -4.06  1.22 -7.76
Si -2.03 -7.47  4.29
Si  8.73  1.33  0.84
Si -8.74 -1.22 -0.88
Si  7.41  2.46 -4.27
Si  2.25 -6.24 -5.99
Si  2.46  8.55 -0.96
Si -6.26  4.88 -4.14
Si -2.53 -8.60  0.83
Si  3.09 -3.65  7.65
Si -3.08  3.65 -7.67
Si -3.27 -6.08  5.84
Si  3.29  6.08 -5.92
Si  6.37 -4.88  4.34
Si -6.87 -1.14 -5.92
Si -4.96 -1.29 -7.61
Si -6.04 -3.67  5.86
Si  3.01 -8.66 -0.84
Si -3.05  8.65  0.84
Si -6.49 -4.97 -4.28
Si  6.51  4.96  4.29
Si  3.68  7.34  4.25
Si  3.57 -7.39 -4.27
Si -8.22  0.04 -4.26
Si  6.90  1.28  6.04
Si  6.08  3.60 -5.99
Si -3.55  7.45  4.23
Si  5.07  1.19  7.71
Si -6.94 -6.16 -0.90
Si  8.29  0.12  4.29
Si -8.57  3.64  0.86
Si -3.76 -7.43 -4.26
Si  6.97  6.24  0.86
Si  3.92 -6.08  6.02
Si -0.99 -0.02  9.37
Si  8.60 -3.75 -0.93
Si  5.38 -7.31 -2.58
Si  0.91 -0.10 -9.39
Si -3.91  6.22 -5.96
Si  4.18  3.67 -7.70
Si -4.30 -3.69  7.64
Si -5.36  7.42  2.58
Si -5.56 -7.31 -2.61
Si  5.59  7.45  2.52
Si  0.05  2.55  9.33
Si  9.56 -1.25 -0.80
Si  4.18  8.69  0.85
Si -0.06 -2.58 -9.34
Si  5.89 -1.19 -7.60
Si -4.32 -8.63 -0.88
Si -9.58  1.23  0.85
Si  2.69 -0.09  9.33
Si -9.03  2.52 -2.58
Si  9.07 -2.46  2.53
Si -5.88  1.33  7.66
Si  6.88 -3.62 -5.96
Si -0.46  6.15  7.64
Si  5.04 -3.68 -7.58
Si  7.75 -1.14 -5.92
Si  8.07 -5.00  2.52
Si  1.82  2.38 -9.37
Si -9.20 -2.42  2.58
Si -8.23 -4.80 -2.50
Si  4.89 -8.52  0.84
Si  0.35 -6.17 -7.70
Si -1.90 -2.48  9.36
Si  1.76 -2.46  9.39
Si -8.11  4.99 -2.61
Si -6.87  3.77  6.02
Si  7.68 -6.16 -0.90
Si -7.72  1.28  6.04
Si -1.77  2.41 -9.42
Si -2.84 -0.01 -9.47
Si  1.50  6.17 -7.58
Si  9.22  2.53 -2.58
Si -7.66  6.24  0.86
Si -5.00  3.81  7.71
Si -4.91  8.63 -0.88
Si -1.50 -6.25  7.62
Si -5.08 -6.25 -5.90
Si -2.01  6.12 -7.64
Si  5.16  6.22  5.96
Si -5.34  7.42 -4.18
Si  5.37 -7.36  4.27
Si  5.58  7.26 -4.23
Si  8.39  4.99  2.56
Si  2.06 -6.21  7.69
Si  0.77 -9.76 -2.54
Si -0.78  9.80  2.53
Si -5.62 -7.40  4.26
Si  1.11  9.87 -2.56
Si -1.12 -9.89  2.53
Si -6.86 -1.04  7.61
Si -5.84 -3.73 -7.64
Si 10.01 -0.04  2.53
Si -9.09  2.39  4.30
Si -10.02  0.08 -2.54
Si  9.11 -2.49 -4.19
Si  5.90 -6.00 -6.01
Si  3.61  2.37  9.40
Si  3.67 -2.56 -9.32
Si  5.89  3.63  7.69
Si -9.64 -3.67 -0.85
Si  9.63  3.71  0.84
Si -3.65 -2.52 -9.36
Si -9.17 -2.42 -4.18
Si -3.32 -6.17 -7.66
Si  6.95  1.28 -7.61
Si  3.24  6.13  7.74
Si -3.64  2.46  9.44
Si  4.64  0.01 -9.33
Si -7.74 -3.62 -5.96
Si -4.63 -0.02  9.35
Si -5.81  6.23  6.01
Si -8.12  4.96  4.29
Si  8.13 -4.97 -4.28
Si  9.20  2.49  4.27
Si  2.64 -9.77  2.58
Si -2.54  9.85 -2.51
Si  0.68  8.59 -6.02
Si  7.75  3.77  6.02
Si -8.25 -4.88  4.34
Si  8.36  4.88 -4.14
Si -6.10 -8.54  0.83
Si -0.65 -8.64  5.98
Si -1.22  8.60  5.95
Si  0.79 -4.87  9.32
Si -2.92 -9.79 -2.60
Si  1.23 -8.61 -5.97
Si  6.03  8.61 -0.88
Si -8.65 -1.22  5.91
Si -0.83  4.79 -9.38
Si  7.11 -7.42  2.54
Si  2.77  9.89  2.59
Si  0.98  4.94  9.32
Si -0.71  9.70 -4.23
Si -3.94  6.17  7.69
Si -7.15  7.43 -2.56
Si 10.53  1.25 -0.89
Si  1.03  9.75  4.24
Si -1.06 -4.95 -9.42
Si  8.82  1.22 -5.93
Si  4.10 -6.18 -7.71
Si -10.61 -1.25  0.84
Si  0.76 -9.82  4.31
Si  2.38  8.63  5.96
Si -2.46 -8.67 -5.88
Si -8.82 -6.13  0.84
Si -1.07 -9.82 -4.30
Si  8.81  6.17 -0.85
Si  7.47  7.43 -2.56
Si -6.68  3.67 -7.71
Si -7.51 -7.42  2.54
Si -7.67  1.28 -7.61
Si  2.73 -4.93 -9.31
Si -2.68  4.81  9.39
Si -10.02  0.02  4.31
Si -2.86 -4.91  9.32
Si  3.07 -8.56  6.04
Si  7.76 -1.04  7.61
Si  6.69 -8.59 -0.89
Si 10.08 -0.14 -4.23
Si  6.85 -3.67  7.69
Si -3.03  8.70 -5.92
Si -6.77  8.59  0.84
Si  2.78  4.90 -9.42
Si  2.56 -9.81 -4.26
Si 10.37 -3.61  0.86
Si  7.04  6.08 -5.91
Si  8.59 -3.67  5.86
Si -8.54  3.60 -5.99
Si -5.13 -6.14  7.61
Si  0.83 -0.01 11.01
Si  5.16  6.09 -7.64
Si -10.39  3.66 -0.86
Si -6.93 -6.18  6.01
Si  4.41 -9.84 -2.51
Si  5.43 -2.43  9.36
Si -3.03 -9.83  4.21
Si -4.32  9.91  2.58
Si -0.95 -0.09 -11.08
Si  2.95  9.82 -4.30
Si -7.17  7.35  4.28
Si -5.42  2.50 -9.39
Si  0.18 -11.10  0.84
Si -0.26 11.10 -0.89
Si -2.50  9.97  4.29
Si  5.58  2.39 -9.35
Si -5.60 -2.45  9.33
Si  7.16 -7.40 -4.30
Si -6.28  0.00 -9.29
Si -1.64 -11.07 -0.88
Si  4.31  8.48 -6.00
Si -4.90 -9.80  2.59
Si -9.42  6.11 -0.81
Si  4.75  9.89 -2.60
Si  2.04 -11.06 -0.88
Si  1.57 11.14  0.83
Si  9.45 -6.12  0.85
Si  7.45  7.35  4.28
Si -0.08 -2.47 11.04
Si -4.30 -8.56  6.04
Si  9.57 -1.24  5.95
Si -5.75  6.17 -7.58
Si -9.56  1.24 -5.97
Si -7.46 -7.40 -4.30
Si  0.07  2.31 -11.12
Si -9.92  4.92  2.55
Si  5.78 -6.03  7.71
Si -7.58  6.08 -5.91
Si -2.78  0.08 11.04
Si -2.06 11.17  0.84
Si  9.97 -4.87 -2.58
Si  2.84 -0.03 -11.07
Si  6.39 -0.01  9.48
Si  4.43 -4.85  9.36
Si  1.81 -2.49 -11.02
Si -4.36  5.01 -9.34
Si -10.07 -4.86  2.56
Si -1.84 -2.46 -11.06
Si 10.94  2.42  2.54
Si -1.12  8.55 -7.61
Si  1.81  2.39 11.11
Si 11.41 -1.16  0.84
Si 10.96 -2.42 -2.50
Si -4.82  8.62  5.91
Si -0.54 -8.57 -7.66
Si -10.94  2.47  2.60
Si  4.45 -9.72  4.29
Si -7.77 -3.67  7.69
Si  4.63  4.97  9.32
Si  0.61  8.54  7.73
Si -10.99 -2.41 -2.56
Si -1.79  2.53 11.12
Si  7.69 -6.18  6.01
Si -11.46  1.21 -0.81
Si -3.49 -11.00  0.85
Si  3.35 11.05 -0.88
Si  4.99 -8.62 -5.93
Si -4.39  9.88 -4.26
Si -4.67 -5.05 -9.38
Si -8.73 -1.19 -7.60
Si  1.23 -8.65  7.71
Si  7.94  3.67 -7.71
Si  7.85  8.59  0.84
Si 10.22  5.04 -2.50
Si  4.64  9.85  4.21
Si  8.74  1.33  7.66
Si  9.81 -4.90  4.15
Si -7.93 -8.59 -0.89
Si  3.90 -11.03  0.84
Si -3.94 11.02 -0.84
Si -4.72 -9.86 -4.30
Si -2.51 -8.65  7.70
Si -3.69 -2.35 11.01
Si -9.96  4.79 -4.29
Si  3.62 -2.36 11.04
Si  3.11 -8.56 -7.61
Si  0.19  7.33 -9.36
Si -3.58  2.42 -11.10
Si  2.54  8.65 -7.78
Si  4.54  0.10 11.02
Si 10.88 -2.48  4.20
Si  6.17 -9.88  2.53
Si -10.89  2.42 -4.23
Si -9.65 -3.61  6.01
Si  9.07 -7.31 -2.61
Si -6.18  9.92 -2.54
Si  3.72  2.50 -11.10
Si -9.04  7.45  2.52
Si -10.10 -4.96 -4.14
Si -0.23 -7.47  9.40
Si -4.58 -0.11 -11.11
Si -3.02  8.80  7.61
Si -1.76  7.40  9.33
Si  6.93  6.19  7.65
Si -6.92 -6.20 -7.67
Si  6.55  9.79  2.53
Si 11.00  2.44 -4.30
Si -9.24 -7.31 -2.58
Si  9.73  3.84 -6.01
Si  1.94  7.37  9.36
Si -11.01 -2.50  4.28
Si -11.49 -3.60  0.86
Si -6.56 -9.81 -2.56
Si  1.75 -7.45 -9.35
Si  6.04  8.63  5.93
Si -1.06 -4.84 11.03
Si  8.53 -8.54  0.83
Si -7.28 -2.47 -9.35
Si  0.91  4.93 -11.03
Si 11.51  3.69 -0.90
Si  7.34 -2.47 -9.35
Si  9.26  7.42  2.58
Si -2.02 -7.46 -9.37
Si 10.21  4.96  4.34
Si -0.86  4.98 11.07
Si -11.90 -0.05  2.53
Si 11.90  0.03 -2.56
Si -8.72 -6.00 -6.01
Si -8.73  3.63  7.69
Si -6.16 -8.65 -5.98
Si -8.59  8.61 -0.88
Si -7.31  2.53  9.44
