500
set: 1558.00  0.00  0.00
Si  1.62 -1.13  0.22
Si  1.29  0.86  1.60
Si  1.21 -0.77 -1.91
Si  0.85  1.64 -1.73
Si  1.03  2.83  0.40
Si -1.51 -1.42 -2.25
Si -1.38  2.33 -1.71
Si -0.10  0.13  3.19
Si  0.22 -3.23  0.40
Si -1.35  3.22  0.45
Si -2.16 -2.84  0.45
Si  0.26 -2.27  3.01
Si -3.69 -1.13  0.22
Si -2.33  0.82  3.21
Si  3.15 -2.84  0.45
Si -4.02  0.86  1.60
Si -1.65  3.14  2.67
Si  2.99  0.82  3.21
Si -4.11 -0.77 -1.91
Si  3.80 -1.42 -2.25
Si  2.25  2.37 -3.31
Si -2.19 -3.73 -1.71
Si -2.46 -2.92  2.67
Si  0.03 -4.42 -1.73
Si -1.21 -1.33 -4.47
Si  2.85 -2.92  2.67
Si  3.94  2.33 -1.71
Si  1.07  3.79  3.01
Si  1.17 -1.73 -4.52
Si -4.47  1.64 -1.73
Si -3.07  2.37 -3.31
Si  3.96  3.22  0.45
Si -4.28  2.83  0.40
Si  3.12 -3.73 -1.71
Si  1.43 -3.69 -3.31
Si -0.70  4.64 -2.25
Si  2.57  0.37 -4.70
Si -2.74  0.37 -4.70
Si  0.48 -5.19  1.60
Si  0.09  1.32  5.32
Si  2.43  4.93  0.22
Si  3.67  3.14  2.67
Si -2.88  4.93  0.22
Si  0.67 -2.63  5.14
Si  2.02  5.29 -1.91
Si -5.09 -3.23  0.40
Si -2.30  1.72  5.37
Si  5.21  0.13  3.19
Si  4.10 -1.33 -4.47
Si -5.42  0.13  3.19
Si -3.88 -3.69 -3.31
Si -5.06 -2.27  3.01
Si  1.48  3.42  5.14
Si -4.14 -1.73 -4.52
Si  3.02  1.72  5.37
Si  5.54 -3.23  0.40
Si -4.25  3.79  3.01
Si -0.40  4.72 -4.47
Si  2.17 -5.24  3.21
Si -3.29  5.29 -1.91
Si  0.34 -0.64  6.52
Si  1.99  4.33 -4.52
Si  6.16  1.64 -1.73
Si  5.57 -2.27  3.01
Si -0.92 -5.93  3.19
Si  6.52 -0.77 -1.91
Si  6.61  0.86  1.60
Si -3.14 -5.24  3.21
Si  4.62  4.64 -2.25
Si  6.35  2.83  0.40
Si  0.71  6.19  3.19
Si  6.93 -1.13  0.22
Si -3.33  4.33 -4.52
Si  0.39 -6.83 -1.91
Si -5.28 -4.42 -1.73
Si -1.24 -2.23 -6.63
Si  5.35 -4.42 -1.73
Si -0.73 -4.74  5.32
Si -0.56  0.09 -7.17
Si  2.16  0.74 -6.83
Si  0.81 -7.19  0.22
Si  2.20 -4.34  5.37
Si -3.83  3.42  5.14
Si -4.83 -5.19  1.60
Si -6.69  2.33 -1.71
Si  0.98 -2.92 -6.64
Si -6.83 -1.42 -2.25
Si -4.64 -2.63  5.14
Si  2.11  6.92  1.60
Si -6.66  3.22  0.45
Si -3.16  0.74 -6.83
Si  1.80  3.14 -6.64
Si -5.23  1.32  5.32
Si -3.11 -4.34  5.37
Si  1.76 -5.69 -4.70
Si -0.43  3.83 -6.63
Si  5.40  1.32  5.32
Si -1.51  6.88  3.21
Si -3.21  6.92  1.60
Si -6.01  4.64 -2.25
Si  5.80 -5.19  1.60
Si -7.48 -2.84  0.45
Si  6.38  3.79  3.01
Si -6.53 -1.33 -4.47
Si  4.40 -5.93  3.19
Si  1.66  7.70 -1.73
Si -6.96  3.14  2.67
Si  4.07 -2.23 -6.63
Si  6.49 -1.73 -4.52
Si -2.33 -7.47 -2.25
Si -3.52  3.14 -6.64
Si  4.92  4.72 -4.47
Si -2.60  1.64  7.59
Si -3.56 -5.69 -4.70
Si -1.93  6.43 -4.70
Si  2.71  1.64  7.59
Si -4.97 -0.64  6.52
Si  0.12  2.29  7.93
Si -1.05 -1.37  8.11
Si  5.99 -2.63  5.14
Si -7.64  0.82  3.21
Si -4.60  6.19  3.19
Si  2.99 -7.47 -2.25
Si  6.75 -3.69 -3.31
Si  2.04 -0.68  8.13
Si -4.33 -2.92 -6.64
Si  4.59 -4.74  5.32
Si -4.51 -7.19  0.22
Si  3.80  6.88  3.21
Si -7.51 -3.73 -1.71
Si  1.16  5.42  6.52
Si -0.56  8.38 -1.71
Si  7.56  2.37 -3.31
Si  4.75  0.09 -7.17
Si -4.92 -6.83 -1.91
Si  3.38  6.43 -4.70
Si -5.71  4.72 -4.47
Si  5.66 -0.64  6.52
Si -3.65  7.70 -1.73
Si -7.78 -2.92  2.67
Si  1.34 -5.32 -6.83
Si -3.28 -0.68  8.13
Si -0.69 -3.77  7.93
Si  2.38 -2.19 -8.23
Si -2.03 -7.39 -4.47
Si -0.56 -8.33  3.01
Si  8.30  0.82  3.21
Si  8.47 -2.84  0.45
Si  1.90 -4.42  7.59
Si -2.93 -2.19 -8.23
Si  0.36 -7.79 -4.52
Si  8.17 -2.92  2.67
Si -9.01 -1.13  0.22
Si  4.89  3.83 -6.63
Si  1.85  8.89  0.40
Si  5.71 -6.83 -1.91
Si  0.90  7.38  5.32
Si -6.23 -5.93  3.19
Si  6.80  3.42  5.14
Si  7.75  4.93  0.22
Si  7.88  0.37 -4.70
Si  2.34 -8.90  0.45
Si  6.03  6.19  3.19
Si  3.29 -7.39 -4.47
Si  7.33  5.29 -1.91
Si  4.26 -1.37  8.11
Si -5.88  0.09 -7.17
Si -0.54  9.28  0.45
Si -0.59 -9.29  0.40
Si -8.38  2.37 -3.31
Si -2.26  8.43 -3.31
Si -8.06  0.37 -4.70
Si -6.04 -4.74  5.32
Si -2.12  3.87 -8.23
Si -0.47 -6.70  6.52
Si -0.24  4.69  8.11
Si  8.44 -3.73 -1.71
Si -0.26  0.17 -9.39
Si -2.98 -8.90  0.45
Si -3.41 -4.42  7.59
Si -1.38 -5.97 -7.17
Si -4.16  5.42  6.52
Si  6.12 -7.19  0.22
Si  0.25  6.15 -7.17
Si -7.61  1.72  5.37
Si  9.12 -1.42 -2.25
Si -9.33  0.86  1.60
Si -3.97 -5.32 -6.83
Si -3.47  8.89  0.40
Si  3.06  8.43 -3.31
Si -8.19  4.93  0.22
Si -1.49  7.78  5.37
Si -5.74  3.83 -6.63
Si  2.04 -8.98  2.67
Si -6.56 -2.23 -6.63
Si  6.30 -2.92 -6.64
Si -0.84  9.20  2.67
Si  7.30  4.33 -4.52
Si  3.19  3.87 -8.23
Si -9.42 -0.77 -1.91
Si  2.12 -0.22 -9.44
Si  7.49 -5.24  3.21
Si  9.25  2.33 -1.71
Si -5.20  2.29  7.93
Si  4.75  8.38 -1.71
Si  9.28  3.22  0.45
Si  8.98  3.14  2.67
Si  5.43  2.29  7.93
Si -2.35  6.80 -6.83
Si -3.28 -8.98  2.67
Si  4.62 -3.77  7.93
Si -1.79  1.88 -9.62
Si -3.19 -0.22 -9.44
Si -9.59  2.83  0.40
Si  4.76 -8.33  3.01
Si -2.46  5.38  8.13
Si  8.33  1.72  5.37
Si -9.78  1.64 -1.73
Si  2.97  6.80 -6.83
Si -0.14 -8.69  5.14
Si -4.42  7.38  5.32
Si  3.94 -5.97 -7.17
Si  7.47  0.74 -6.83
Si  2.85  5.38  8.13
Si  3.83  7.78  5.37
Si  2.31 -9.79 -1.71
Si  7.52 -4.34  5.37
Si -6.83  6.88  3.21
Si  7.07 -5.69 -4.70
Si  7.11  3.14 -6.64
Si  0.53  1.92 10.06
Si -0.86 -0.18 10.24
Si  7.42  6.92  1.60
Si -4.96 -7.79 -4.52
Si -8.61  5.29 -1.91
Si  0.62 -9.75 -3.31
Si -5.88  8.38 -1.71
Si -3.00 -9.79 -1.71
Si -6.37 -1.37  8.11
Si  3.52  1.88 -9.62
Si  4.72 -9.29  0.40
Si  4.78  9.28  0.45
Si -9.20 -3.69 -3.31
Si -8.46 -5.24  3.21
Si  1.88  9.85  3.01
Si  2.06  0.21 10.29
Si  9.42 -1.33 -4.47
Si  6.97  7.70 -1.73
Si  4.85 -6.70  6.52
Si  4.48  9.20  2.67
Si -9.46 -1.73 -4.52
Si -5.87 -8.33  3.01
Si  1.22 -6.74  8.13
Si  5.67 -7.79 -4.52
Si -6.01 -3.77  7.93
Si -0.78 -10.48 -1.73
Si  5.08  4.69  8.11
Si  5.05  0.17 -9.39
Si  6.47  5.42  6.52
Si -8.64  4.33 -4.52
Si -9.56  3.79  3.01
Si -5.06  6.15 -7.17
Si -7.24  6.43 -4.70
Si -3.25  0.21 10.29
Si -2.61 -4.18 -9.62
Si -2.06 -8.29 -6.63
Si  2.71 -4.18 -9.62
Si -3.43  9.85  3.01
Si -0.28 -4.14 10.06
Si -5.55  4.69  8.11
Si -8.43 -4.34  5.37
Si -10.41 -3.23  0.40
Si -8.47  0.74 -6.83
Si  6.66 -5.32 -6.83
Si -5.58  0.17 -9.39
Si -7.64 -7.47 -2.25
Si  0.11 10.70 -2.25
Si -1.79  7.70  7.59
Si  5.57  6.15 -7.17
Si -5.85  9.28  0.45
Si  7.35 -0.68  8.13
Si -5.78 -6.70  6.52
Si 10.53  0.13  3.19
Si -5.91 -9.29  0.40
Si  6.21  7.38  5.32
Si  2.30  9.48  5.14
Si -9.14  3.42  5.14
Si -10.37 -2.27  3.01
Si -7.91  1.64  7.59
Si -8.52  6.92  1.60
Si  3.26 -8.29 -6.63
Si -1.08 -5.89 -9.39
Si -1.87 -7.43  8.11
Si  4.45 -0.18 10.24
Si  8.03  1.64  7.59
Si  0.17 -8.98 -6.64
Si -2.07 10.99  0.22
Si  9.93  4.64 -2.25
Si -10.73  0.13  3.19
Si -3.02  9.48  5.14
Si  0.55  6.23 -9.39
Si -4.78  1.92 10.06
Si -4.70 -9.75 -3.31
Si -4.09 -6.74  8.13
Si 10.85 -3.23  0.40
Si -7.34 -7.39 -4.47
Si  5.17 -8.69  5.14
Si -2.38  5.83 -9.44
Si  7.22 -4.42  7.59
Si  3.53  7.70  7.59
Si -0.33 -11.25  1.60
Si -6.15  9.20  2.67
Si  8.30 -7.47 -2.25
Si  1.31 -6.28 -9.44
Si  7.16  8.89  0.40
Si  3.25 10.99  0.22
Si -5.46 -8.69  5.14
Si  2.94  5.83 -9.44
Si  7.70 -2.19 -8.23
Si -6.69 -5.97 -7.17
Si -8.83  3.14 -6.64
Si -9.96 -2.63  5.14
Si -10.15 -5.19  1.60
Si 10.88 -2.27  3.01
Si  3.45 -7.43  8.11
Si -8.87 -5.69 -4.70
Si  4.54 -10.48 -1.73
Si  0.93  8.35  7.93
Si -0.29 -0.73 -11.55
Si -2.52 10.39 -4.52
Si -10.60 -4.42 -1.73
Si -6.80  7.78  5.37
Si  2.61  9.20 -6.64
Si -0.60 -2.14 11.44
Si -2.70  9.20 -6.64
Si 10.66 -4.42 -1.73
Si  2.80 10.39 -4.52
Si  0.41 10.78 -4.47
Si  9.39 -2.23 -6.63
Si 11.48  1.64 -1.73
Si  7.65 -8.90  0.45
Si -7.43  3.87 -8.23
Si  1.57 -8.25 -8.23
Si -2.48 11.35 -1.91
Si  1.39 -10.40  5.37
Si  5.85  1.92 10.06
Si  8.70  6.43 -4.70
Si -7.57  8.43 -3.31
Si -0.05  5.88 10.24
Si  1.93 -1.42 -11.56
Si  9.71 -5.93  3.19
Si  1.36 -11.30  3.21
Si -8.59 -0.68  8.13
Si  2.83 11.35 -1.91
Si -8.25 -2.19 -8.23
Si  9.11  6.88  3.21
Si  4.24 -5.89 -9.39
Si -10.54  1.32  5.32
Si  5.93 -9.75 -3.31
Si  1.25 -5.84 10.29
Si  7.35 -8.98  2.67
Si  0.39  9.89 -6.63
Si -8.97  7.70 -1.73
Si -6.18 -0.18 10.24
Si  5.04 -4.14 10.06
Si 11.66  2.83  0.40
Si 11.84 -0.77 -1.91
Si  7.44 -0.22 -9.44
Si -4.01 -6.28 -9.44
Si 10.71  1.32  5.32
Si 11.92  0.86  1.60
Si -9.64 -2.92 -6.64
Si  0.21  3.92 11.44
Si -1.68 -6.24 10.24
Si -7.11  1.88 -9.62
Si -5.20 10.70 -2.25
Si 10.23  4.72 -4.47
Si -9.92  6.19  3.19
Si -1.54 -10.79  5.32
Si -3.38 -1.42 -11.56
Si -2.21  2.24 -11.74
Si -8.29 -8.90  0.45
Si -9.82 -7.19  0.22
Si  8.60 -7.39 -4.47
Si  9.90 -4.74  5.32
Si -10.28 -0.64  6.52
Si  0.39  1.59 -12.09
Si  5.43 10.70 -2.25
Si -5.59 -4.14 10.06
Si -4.76  6.23 -9.39
Si -3.75 -8.25 -8.23
Si -6.09 -10.48 -1.73
Si -2.44  6.27 10.29
Si -5.14 -8.98 -6.64
Si 12.25 -1.13  0.22
Si -7.66  6.80 -6.83
Si -4.38  8.35  7.93
Si  8.37  8.43 -3.31
Si -3.93 -10.40  5.37
Si -12.01  2.33 -1.71
Si  3.11  2.24 -11.74
Si 10.07  0.09 -7.17
Si 11.11 -5.19  1.60
Si -8.73 -4.42  7.59
Si  2.88  6.27 10.29
Si -3.96 -11.30  3.21
Si  4.98 -11.25  1.60
Si -11.98  3.22  0.45
Si  6.54 -6.74  8.13
Si -12.14 -1.42 -2.25
Si  5.49 -8.98 -6.64
Si -11.33  4.64 -2.25
Si -10.24 -6.83 -1.91
Si  8.51  3.87 -8.23
Si -7.78  5.38  8.13
Si -8.78  8.89  0.40
Si -0.98  7.93 -9.62
Si -4.06 -5.84 10.29
Si -1.73 -11.98  3.19
Si  3.64 -6.24 10.24
Si  7.62 -9.79 -1.71
Si  4.71 -2.14 11.44
Si  2.29 -3.82 -11.74
Si  7.20  9.85  3.01
Si  3.77 -10.79  5.32
Si  5.02 -0.73 -11.55
Si  9.58 -1.37  8.11
Si  1.76  0.13 12.51
Si -4.90 10.78 -4.47
Si 11.70  3.79  3.01
Si  7.38  0.21 10.29
Si  0.94 -11.74 -4.70
Si 11.30 -2.63  5.14
Si -5.65 -11.25  1.60
Si -9.29 -5.32 -6.83
Si  5.87  6.23 -9.39
Si  8.28  6.80 -6.83
Si -8.59 -8.98  2.67
Si -8.51 -0.22 -9.44
Si -9.47  5.42  6.52
Si -3.02 -3.82 -11.74
Si  8.16  5.38  8.13
Si -1.51 -9.83  7.93
Si -2.57  4.64 -11.56
Si -11.84 -1.33 -4.47
Si  0.52  5.33 -11.55
Si  1.52 12.25  3.19
Si 10.20  3.83 -6.63
Si 11.80 -1.73 -4.52
Si  2.75  4.64 -11.56
Si 10.97 -0.64  6.52
Si -6.39 -5.89 -9.39
Si -11.03  4.72 -4.47
Si -5.61 -0.73 -11.55
Si -4.93  9.89 -6.63
Si -0.43 -4.47 -12.09
Si -0.83  0.78 12.85
Si  1.35  7.98 10.06
Si  3.58 -11.98  3.19
Si -7.37 -8.29 -6.63
Si  5.26  5.88 10.24
Si -7.10  7.70  7.59
Si -12.28  3.14  2.67
Si -8.32 -9.79 -1.71
Si -5.37  5.88 10.24
Si -1.31  9.93 -8.23
Si  1.09 -10.48  7.59
Si -3.55  0.13 12.51
Si  5.73 10.78 -4.47
Si -0.42 -12.88 -1.91
Si 12.06 -3.69 -3.31
Si -5.92 -2.14 11.44
Si  6.25  8.35  7.93
Si 11.02 -6.83 -1.91
Si -12.79 -2.84  0.45
Si -5.11  3.92 11.44
Si  6.62 -6.28 -9.44
Si -7.18 -7.43  8.11
Si  9.25 -5.97 -7.17
Si -7.92 -4.18 -9.62
Si  9.14  7.78  5.37
Si -4.93  1.59 -12.09
Si  3.81 -9.83  7.93
Si  8.84  1.88 -9.62
Si  5.70  9.89 -6.63
Si  7.61  9.48  5.14
Si  4.33  7.93 -9.62
Si  8.02 -4.18 -9.62
Si 10.06  8.38 -1.71
Si -3.79 12.25  3.19
Si -7.38 10.99  0.22
Si -0.01 -13.25  0.22
Si  9.93 -3.77  7.93
Si  1.09 -2.19 13.05
Si  0.53 -11.38 -6.83
Si -11.19  0.09 -7.17
Si  5.52  3.92 11.44
Si -2.39 12.98  1.60
Si 11.34  6.19  3.19
Si -1.98 -0.68 -13.15
