500
set: 287.00  0.00  0.00
Si  0.07  0.01 -0.07
Si -0.01 -2.19  0.78
Si -1.93  1.08  0.77
Si  1.95  1.19  0.81
Si  0.05 -0.04 -2.43
Si -1.92  1.09  3.14
Si  1.88 -3.36 -0.06
Si  0.04  2.21 -3.16
Si -2.02 -3.29  0.01
Si -1.96 -1.09 -3.16
Si  3.88  0.00  0.08
Si -3.89  0.00  0.08
Si  0.04 -2.25  3.18
Si  1.94  1.16  3.17
Si  1.88  3.43  0.01
Si -2.00  3.36 -0.06
Si  1.96 -1.16 -3.19
Si  3.77 -2.27  0.81
Si  3.87 -0.02 -2.27
Si -1.90  3.33 -2.40
Si -3.91 -0.02 -2.27
Si -1.90 -1.14  3.94
Si -0.10  4.45  0.81
Si -1.91 -3.34 -2.40
Si  1.99 -1.09  3.94
Si  1.99  3.38 -2.40
Si  1.98 -3.39 -2.40
Si -0.01  2.23  4.07
Si -4.00 -2.27  0.81
Si -3.87  2.18 -3.14
Si  0.02  4.43  3.20
Si  3.90  2.18 -3.14
Si  0.01 -4.54 -3.14
Si -3.88 -2.29  3.20
Si  3.90 -2.29  3.20
Si -3.83  2.21  3.90
Si -1.95 -5.53  0.81
Si -1.94 -1.06 -5.53
Si  0.05 -4.51  3.90
Si  3.95  2.21  3.90
Si  5.84  1.08  0.77
Si -0.01  2.28 -5.55
Si -5.83  1.19  0.81
Si  1.95 -1.17 -5.56
Si  1.95 -5.64  0.77
Si  3.88  4.53  0.78
Si -3.90  4.53  0.78
Si  5.76 -3.29  0.01
Si -0.01 -2.25 -6.26
Si -2.00 -1.11  6.28
Si  5.78  3.36 -0.06
Si -1.92  5.55 -3.19
Si -3.84  4.46  3.18
Si -1.96 -5.55  3.17
Si  1.87 -1.04  6.35
Si  5.82 -1.09 -3.16
Si -0.01 -6.71  0.08
Si -3.85 -4.50 -3.16
Si  0.01  6.72  0.08
Si  5.86  1.09  3.14
Si -5.82 -1.16 -3.19
Si  1.96 -5.63  3.14
Si -2.02  1.18 -6.33
Si  1.94  5.63 -3.16
Si  3.94  4.46  3.18
Si -5.84  1.16  3.17
Si  3.92 -4.50 -3.16
Si  1.89  1.11 -6.40
Si -5.90 -3.36 -0.06
Si  0.00  2.25  6.41
Si -5.90  3.43  0.01
Si  3.78  2.20 -5.52
Si -0.01  6.70 -2.27
Si -5.79 -1.09  3.94
Si -0.03 -6.74 -2.27
Si  2.00  5.58  3.94
Si -5.79  3.38 -2.40
Si -1.90  5.63  3.94
Si -5.80 -3.39 -2.40
Si -0.12 -4.52 -5.52
Si -0.11 -0.02  7.15
Si -4.00  2.20 -5.52
Si  5.87 -3.34 -2.40
Si  5.88 -1.14  3.94
Si  5.88  3.33 -2.40
Si  3.86 -4.49  4.07
Si -3.91 -4.49  4.07
Si -3.81  2.26  6.27
Si  0.07 -4.46  6.27
Si -7.70  0.01 -0.07
Si -3.82 -6.71 -0.07
Si -3.81  6.73 -0.07
Si  3.97  2.26  6.27
Si -3.82 -2.24 -6.40
Si  3.95 -6.71 -0.07
Si  0.08  4.48 -6.40
Si  3.97  6.73 -0.07
Si  3.96 -2.24 -6.40
Si  7.85  0.01 -0.07
Si -3.83  6.67 -2.43
Si  5.83 -5.53  0.81
Si  1.97  7.80  0.77
Si -1.93  5.55 -5.56
Si  1.96  3.33  7.11
Si  3.87 -4.44 -5.55
Si  1.95 -3.28  7.15
Si -7.73 -0.04 -2.43
Si  7.76 -2.19  0.78
Si  5.83 -1.06 -5.53
Si  3.88  0.06  7.12
Si -1.94 -3.39  7.11
Si -3.91 -4.44 -5.55
Si -3.90  0.06  7.12
Si  3.95  6.67 -2.43
Si -7.79 -2.19  0.78
Si -5.83 -1.17 -5.56
Si -5.83 -5.64  0.77
Si  1.96  5.66 -5.53
Si -3.85 -6.76 -2.43
Si -1.93  3.44  7.15
Si -1.93  7.91  0.81
Si  3.93 -6.76 -2.43
Si  7.83 -0.04 -2.43
Si  5.78 -1.11  6.28
Si  1.86 -5.54 -6.33
Si  3.89  4.47 -6.26
Si -3.89  4.47 -6.26
Si  1.90  5.61  6.28
Si  5.76  1.18 -6.33
Si  1.92 -7.80 -3.16
Si  1.98  7.80  3.14
Si -7.73  2.21 -3.16
Si  5.82 -5.55  3.17
Si -7.74 -2.25  3.18
Si  5.86  5.55 -3.19
Si -5.82 -5.63  3.14
Si -5.84  5.63 -3.16
Si -1.94  7.88  3.17
Si  7.82  2.21 -3.16
Si -1.94 -7.88 -3.19
Si  3.88 -4.46  6.41
Si -5.91 -1.04  6.35
Si -3.90 -4.46  6.41
Si  7.82 -2.25  3.18
Si -2.01 -5.61 -6.40
Si -2.01  5.68  6.35
Si -5.89  1.11 -6.40
Si -0.03 -2.27 -8.61
Si  7.67  4.45  0.81
Si -1.91 -7.81  3.94
Si -5.78  5.58  3.94
Si  1.98 -7.86  3.94
Si -1.91  1.13 -8.73
Si  1.98  1.08 -8.73
Si -0.12 -8.99  0.81
Si  7.76  2.23  4.07
Si  5.88  5.63  3.94
Si -7.79  2.23  4.07
Si -7.88  4.45  0.81
Si  0.02  8.89 -3.14
Si  0.01 -0.07 -9.48
Si -7.76  4.43  3.20
Si  7.80  4.43  3.20
Si  0.02 -0.04  9.53
Si -7.77 -4.54 -3.14
Si  7.78 -4.54 -3.14
Si  0.00 -9.01  3.20
Si  1.94 -7.78 -5.53
Si  0.07  8.92  3.90
Si  3.86 -8.91  0.78
Si -0.02 -6.66  7.12
Si -5.81  7.80  0.77
Si -3.91 -8.91  0.78
Si -7.73 -4.51  3.90
Si -5.82  3.33  7.11
Si -5.83 -3.28  7.15
Si  5.85  5.55 -5.56
Si -9.71  1.08  0.77
Si  5.84 -3.39  7.11
Si  7.77  2.28 -5.55
Si  0.05  4.42 -8.77
Si -5.82  5.66 -5.53
Si  0.00  6.78  7.12
Si -7.79  2.28 -5.55
Si  9.73  1.19  0.81
Si  7.83 -4.51  3.90
Si -1.95 -7.89 -5.56
Si -3.84 -2.29 -8.77
Si  5.85  3.44  7.15
Si  5.85  7.91  0.81
Si  3.93 -2.29 -8.77
Si  1.86 -10.01  0.01
Si  1.88 -7.83  6.28
Si -5.80  7.80  3.14
Si -3.83  8.93 -3.16
Si  7.77 -2.25 -6.26
Si -2.02 -7.76  6.35
Si  9.66 -3.36 -0.06
Si  1.97  3.34  9.48
Si -7.79 -2.25 -6.26
Si  9.65  3.43  0.01
Si -1.93 -3.38  9.48
Si -3.85 -0.04 -9.50
Si  1.92 -3.33 -9.50
Si  1.93 -3.30  9.51
Si -9.70  1.09  3.14
Si -5.86 -7.80 -3.16
Si  1.90 10.08 -0.06
Si -3.84 -0.00  9.51
Si  3.94  8.93 -3.16
Si  7.76 -6.71  0.08
Si -5.88  5.61  6.28
Si -3.86 -8.97  3.18
Si -1.96  3.38 -9.50
Si -2.02 -10.07 -0.06
Si  5.76 -5.61 -6.40
Si -7.77  6.72  0.08
Si  1.96  3.30 -9.53
Si  3.93 -0.04 -9.50
Si -5.92 -5.54 -6.33
Si  7.78  6.72  0.08
Si  9.71  1.16  3.17
Si -7.79 -6.71  0.08
Si  5.77  5.68  6.35
Si  1.88  7.90 -6.33
Si -1.95  3.41  9.51
Si  3.92 -8.97  3.18
Si  3.94 -0.00  9.51
Si -9.74 -1.09 -3.16
Si -1.99  7.83 -6.40
Si -1.93 -3.41 -9.53
Si  5.83  7.88  3.17
Si  9.74 -1.16 -3.19
Si  5.84 -7.88 -3.19
Si -7.78  2.25  6.41
Si  7.78  2.25  6.41
Si -9.78  3.36 -0.06
Si -9.80 -3.29  0.01
Si -2.00 10.15  0.01
Si  3.87  4.45 -8.61
Si -3.91  4.45 -8.61
Si  7.66 -4.52 -5.52
Si  7.67 -0.02  7.15
Si -0.10  8.92 -5.52
Si  7.77  6.70 -2.27
Si  3.79  6.70  7.15
Si -9.68  3.33 -2.40
Si -1.90  1.16 10.28
Si -9.68 -1.14  3.94
Si  7.75 -6.74 -2.27
Si -7.79  6.70 -2.27
Si  2.00 10.05 -2.40
Si -9.69 -3.34 -2.40
Si  1.97 -10.06 -2.40
Si  3.77 -6.74  7.15
Si  1.99  1.11 10.28
Si  5.86 -7.81  3.94
Si -5.80 -7.86  3.94
Si -5.79  1.08 -8.73
Si -1.89 10.10 -2.40
Si  1.97 -5.59 -8.73
Si -1.92 -10.11 -2.40
Si -7.81 -6.74 -2.27
Si  3.88  8.95  4.07
Si -1.92 -5.64 -8.73
Si -3.90  8.95  4.07
Si -3.99  6.70  7.15
Si  9.76 -1.09  3.94
Si  5.87  1.13 -8.73
Si  9.76 -3.39 -2.40
Si  9.77  3.38 -2.40
Si -4.01 -6.74  7.15
Si -0.02 -2.24 10.40
Si -7.90 -4.52 -5.52
Si -7.89 -0.02  7.15
Si -7.71 -4.46  6.27
Si  0.09  8.98  6.27
Si -7.70  4.48 -6.40
Si  7.85 -4.46  6.27
Si  0.06 -8.96 -6.40
Si  7.86  4.48 -6.40
Si -3.83 -2.26 10.24
Si  0.06  4.46 10.24
Si -5.84 -7.78 -5.53
Si  3.94 -2.26 10.24
Si -9.72 -5.53  0.81
Si -9.72 -1.06 -5.53
Si  3.89  8.99 -5.55
Si -3.89  8.99 -5.55
Si  9.72 -5.64  0.77
Si  9.73 -1.17 -5.56
Si  0.00 11.24  0.78
Si  5.83 -7.89 -5.56
Si  5.75 -7.76  6.35
Si  9.65 -1.04  6.35
Si  3.87 -8.96 -6.26
Si -5.80  3.34  9.48
Si  5.76 -10.07 -0.06
Si -3.91 -8.96 -6.26
Si  0.05  6.68 -9.50
Si -9.70  5.55 -3.19
Si  0.06 11.18  3.18
Si -5.92 -10.01  0.01
Si -5.90 -7.83  6.28
Si  9.66  1.11 -6.40
Si -5.85 -3.30  9.51
Si  5.85 -3.38  9.48
Si -5.81  3.30 -9.53
Si  5.82  3.38 -9.50
Si  0.06  6.71  9.51
Si -5.86 -3.33 -9.50
Si  0.04 -6.72  9.51
Si  5.78  7.83 -6.40
Si -9.74 -5.55  3.17
Si  0.03 -6.75 -9.50
Si  0.03 -11.22 -3.16
Si 11.66  0.00  0.08
Si  5.83  3.41  9.51
Si  9.72  5.63 -3.16
Si -5.88 10.08 -0.06
Si -11.67  0.00  0.08
Si -9.78 -1.11  6.28
Si  5.78 10.15  0.01
Si  9.73 -5.63  3.14
Si  5.84 -3.41 -9.53
Si -3.88  8.97  6.41
Si  3.90  8.97  6.41
Si -5.90  7.90 -6.33
Si -9.80  1.18 -6.33
Si 11.55 -2.27  0.81
Si  7.75 -2.27 -8.61
Si  3.79 11.17  0.81
Si  7.65 -8.99  0.81
Si -5.78 10.05 -2.40
Si -7.80 -2.27 -8.61
Si -5.79  1.11 10.28
Si  1.98 -5.56 10.28
Si -5.81 -10.06 -2.40
Si -0.12 -0.05 -11.86
Si -1.90  7.80 -8.73
Si -1.91 -5.61 10.28
Si 11.64 -0.02 -2.27
Si -9.67  5.63  3.94
Si -5.80 -5.59 -8.73
Si -3.98 11.17  0.81
Si  5.88  1.16 10.28
Si -11.69 -0.02 -2.27
Si  1.99  7.85 -8.73
Si -0.03 -11.21  4.07
Si  5.86 -10.11 -2.40
Si  9.77  5.58  3.94
Si  5.86 -5.64 -8.73
Si  5.89 10.10 -2.40
Si  3.88  4.48 10.40
Si -3.90  4.48 10.40
Si -7.90 -8.99  0.81
Si -11.78 -2.27  0.81
Si -3.87  6.64 -9.48
Si -7.75  8.89 -3.14
Si  3.91  6.64 -9.48
Si -3.86 11.14  3.20
Si  3.92 11.14  3.20
Si  7.80  8.89 -3.14
Si -7.77 -0.07 -9.48
Si -11.65  2.18 -3.14
Si -3.86  6.68  9.53
Si  7.79 -0.07 -9.48
Si  3.92  6.68  9.53
Si  3.89 -6.79 -9.48
Si -3.89 -6.79 -9.48
Si 11.68  2.18 -3.14
Si -7.76 -0.04  9.53
Si -11.65 -2.29  3.20
Si -3.88 -6.76  9.53
Si  7.79 -0.04  9.53
Si  3.88 -11.26 -3.14
Si  3.90 -6.76  9.53
Si -3.89 -11.26 -3.14
Si 11.68 -2.29  3.20
Si -7.78 -9.01  3.20
Si  7.78 -9.01  3.20
Si  1.93 -12.24  0.81
Si -7.71  8.92  3.90
Si -1.95 -9.99  7.15
Si -11.61  2.21  3.90
Si -1.92 10.05  7.11
Si  7.76 -6.66  7.12
Si -0.03 -11.16 -5.55
Si  1.94 -3.31 -11.86
Si -7.80 -6.66  7.12
Si -9.71  5.55 -5.56
Si -1.94  3.41 -11.86
Si -7.72  4.42 -8.77
Si -3.85 -11.23  3.90
Si  1.95  3.30 -11.90
Si  3.87  0.03 -11.89
Si  9.74  7.80  0.77
Si -9.71 -3.39  7.11
Si  7.84  8.92  3.90
Si  9.73 -3.28  7.15
Si  1.94 -10.11  7.11
Si  9.74  3.33  7.11
Si -3.91  0.03 -11.89
Si  3.93 -11.23  3.90
Si -1.95 -3.42 -11.90
Si -1.95 -12.36  0.77
Si 11.66  4.53  0.78
Si -7.78  6.78  7.12
Si  7.78  6.78  7.12
Si -9.71  3.44  7.15
Si  9.73  5.66 -5.53
Si -11.67  4.53  0.78
Si -9.71  7.91  0.81
Si 11.72  2.21  3.90
Si  7.83  4.42 -8.77
Si  0.04 -9.01 -8.77
Si  1.97 10.16  7.15
Si -0.01  2.22 -12.60
Si  9.64 -5.54 -6.33
Si  1.89  1.14 12.61
Si  1.92 -12.27  3.17
Si  0.01 11.19 -6.26
Si  9.68  5.61  6.28
Si  1.98 12.27 -3.19
Si  9.70 -7.80 -3.16
Si  1.86 -1.07 -12.66
Si -11.62  4.46  3.18
Si -11.63 -4.50 -3.16
Si  9.75  7.80  3.14
Si -1.94 -12.35  3.14
Si -0.02 -11.18  6.41
Si -1.94 12.35 -3.16
Si -2.01  1.21 12.68
Si -9.72 -7.88 -3.19
Si -9.72  7.88  3.17
Si 11.70 -4.50 -3.16
Si 11.72  4.46  3.18
Si -0.00 -2.21 12.75
Si -2.01 -1.14 -12.73
Si -9.79 -5.61 -6.40
Si -9.78  5.68  6.35
Si 11.56  2.20 -5.52
Si  7.68  8.92 -5.52
Si  3.85 -8.99 -8.61
Si -5.80 -5.56 10.28
Si -3.93 -8.99 -8.61
Si -1.88 12.30  3.94
Si -9.69 -7.81  3.94
Si -1.89  7.83 10.28
Si  3.76 -11.24 -5.52
Si -9.69  1.13 -8.73
Si -5.79  7.85 -8.73
Si  5.87 -5.61 10.28
Si  5.88  7.80 -8.73
Si  2.00  7.88 10.28
Si  2.00 12.35  3.94
Si -7.88  8.92 -5.52
Si 11.64 -4.49  4.07
Si  9.75 -7.86  3.94
Si  9.76  1.08 -8.73
Si -4.02 -11.24 -5.52
Si -11.69 -4.49  4.07
Si  7.76 -2.24 10.40
Si -7.80 -2.24 10.40
Si -11.78  2.20 -5.52
Si -3.81 -2.21 12.61
Si -11.59  2.26  6.27
Si -3.83 -11.18  6.27
Si -7.69  8.98  6.27
Si  0.09  4.51 12.61
Si -11.58  6.73 -0.07
Si  3.97 -2.21 12.61
Si -11.60 -6.71 -0.07
Si  3.95 -11.18  6.27
Si  0.06 -13.43 -0.07
Si -11.60 -2.24 -6.40
Si -7.72 -8.96 -6.40
Si -3.80 11.20 -6.40
Si  0.09 13.45 -0.07
Si -3.82  2.23 -12.74
Si  7.87  8.98  6.27
Si  3.98 11.20 -6.40
Si  0.06 -4.49 -12.74
Si 11.75  2.26  6.27
Si 11.73 -6.71 -0.07
Si  7.84 -8.96 -6.40
Si  3.96  2.23 -12.74
Si 11.75  6.73 -0.07
Si 11.73 -2.24 -6.40
Si -7.71  4.46 10.24
Si -5.84 -12.24  0.81
Si  5.83 -9.99  7.15
Si -11.61  6.67 -2.43
Si  0.07 13.39 -2.43
Si  1.97 12.27 -5.56
Si  9.71 -7.78 -5.53
Si  0.04 -8.98 10.24
Si -5.84 -3.31 -11.86
Si  5.86 10.05  7.11
Si  1.96 -1.14 13.45
