500
set: 1435.00  0.00  0.00
Si  0.05 -1.26 -1.24
Si  0.00  0.69  1.67
Si -0.81  0.94 -1.52
Si -1.68  1.57  0.68
Si  0.87 -1.52  1.95
Si -1.80 -1.90  0.75
Si  2.46 -0.74 -1.16
Si  2.00  2.16  0.83
Si  2.87  1.55 -1.37
Si  1.18  2.41 -2.35
Si -2.62 -1.65 -2.43
Si -2.49  1.83 -2.50
Si  1.40 -3.63  0.83
Si  3.28 -1.00  2.03
Si -1.20  3.89  0.75
Si  0.58 -3.38 -2.35
Si -0.86  1.32  3.87
Si  3.69  1.29  1.81
Si -3.91 -2.05 -0.16
Si  3.98 -2.05 -0.16
Si -0.98 -2.16  3.94
Si -0.76 -1.01 -4.43
Si  1.65 -0.49 -4.34
Si  0.66  4.52 -1.24
Si -4.20  1.29  1.81
Si -2.28 -4.22  0.68
Si -3.09 -2.31  3.02
Si  1.47  4.27  1.95
Si  0.82  0.43  4.85
Si  3.16 -1.80 -3.35
Si -3.31  3.74 -0.16
Si  2.27 -4.24 -1.37
Si -1.63  1.20 -4.71
Si -4.61 -1.00  2.03
Si -2.01  4.14 -2.43
Si -2.49  3.48  3.02
Si  2.81  1.90  4.02
Si -1.42 -4.85 -1.52
Si  2.06  1.80 -4.56
Si -0.38  3.63  3.94
Si -0.60 -5.10  1.67
Si -5.01  1.55 -1.37
Si -5.42 -0.74 -1.16
Si -3.09 -3.96 -2.50
Si  1.69 -1.77  5.13
Si  3.09 -4.50  1.81
Si  4.58  3.74 -0.16
Si  2.21 -3.89  4.02
Si  3.06  5.05 -1.16
Si  5.27 -1.65 -2.43
Si -4.72 -1.80 -3.35
Si -1.46 -4.47  3.87
Si  4.79 -2.31  3.02
Si -3.38  1.04  5.00
Si  0.37  2.67 -5.54
Si  5.39  1.83 -2.50
Si  1.46 -3.99 -4.56
Si -5.89  2.16  0.83
Si -0.23 -3.12 -5.54
Si  6.08 -1.90  0.75
Si  3.76  3.99 -3.35
Si  6.21  1.57  0.68
Si  3.88  4.79  2.03
Si -0.16  4.78 -4.43
Si -4.01  4.79  2.03
Si -3.79 -1.25  5.21
Si -4.12  3.99 -3.35
Si  4.79 -3.96 -2.50
Si  0.60  6.48  1.67
Si -3.43 -1.39 -5.62
Si -5.07  1.90  4.02
Si  4.09 -1.25  5.21
Si  4.50  1.04  5.00
Si -4.80 -4.50  1.81
Si  1.86 -6.53 -1.16
Si -0.21  6.73 -1.52
Si -3.31  2.08 -5.69
Si  2.29  4.01  5.13
Si -2.23 -4.59 -4.71
Si  5.61 -4.22  0.68
Si -4.82  5.05 -1.16
Si -2.28 -2.56  6.21
Si  5.39  3.48  3.02
Si  2.35 -1.54 -6.53
Si -0.05  1.06  7.05
Si -5.61 -4.24 -1.37
Si -0.55 -7.05 -1.24
Si -1.68  3.23  6.21
Si  2.25  5.30 -4.34
Si  0.21 -5.36  4.85
Si  7.07  0.94 -1.52
Si  4.45 -1.39 -5.62
Si -7.01 -1.52  1.95
Si -1.08  7.36  0.68
Si -6.49 -3.63  0.83
Si -6.70  2.41 -2.35
Si -0.17 -2.41  7.13
Si  0.27 -7.31  1.95
Si  2.68 -6.79  2.03
Si  0.83 -0.23 -7.53
Si  5.87  4.14 -2.43
Si  4.58  2.08 -5.69
Si -3.19  4.54  5.21
Si -5.83  1.80 -4.56
Si -6.24 -0.49 -4.34
Si -2.83  4.40 -5.62
Si  1.04 -6.28 -4.34
Si  6.69  3.89  0.75
Si -1.58 -0.76 -7.61
Si -3.91 -3.71 -5.69
Si  3.98 -3.71 -5.69
Si  0.43  3.38  7.13
Si  6.25  1.20 -4.71
Si  3.90 -4.75  5.00
Si -6.41  4.27  1.95
Si -5.67 -3.89  4.02
Si -3.98 -4.75  5.00
Si  1.42  6.22  4.85
Si -7.83 -1.26 -1.24
Si -7.88  0.69  1.67
Si  7.88  0.69  1.67
Si -2.40 -7.69  0.75
Si -0.26  7.11  3.87
Si  1.24  2.06 -7.75
Si  7.02  1.32  3.87
Si  7.94 -1.26 -1.24
Si -3.60  7.08  1.81
Si  1.63  0.18  8.04
Si  6.47 -4.85 -1.52
Si -1.36 -6.80 -4.43
Si  3.47  7.33 -1.37
Si  6.90 -2.16  3.94
Si  3.63  1.65  7.21
Si -1.89  7.62 -2.50
Si -6.20 -1.77  5.13
Si  2.95  4.25 -6.53
Si  4.69  4.54  5.21
Si -7.30 -3.38 -2.35
Si -2.45  1.45 -7.89
Si  2.60  7.95  0.83
Si  7.12 -1.01 -4.43
Si -3.21 -7.44 -2.43
Si  4.29  7.08  1.81
Si -1.03  6.99 -4.71
Si -0.65 -4.73  7.05
Si -4.25  1.65  7.21
Si  3.38 -7.84 -0.16
Si -7.07  0.43  4.85
Si -5.60  4.01  5.13
Si -2.57  0.78  8.19
Si -7.23  4.52 -1.24
Si  0.64 -3.73 -7.75
Si -4.41  7.33 -1.37
Si  5.65 -4.59 -4.71
Si  2.56 -7.59 -3.35
Si -5.54 -1.54 -6.53
Si  1.78  8.20 -2.35
Si  6.42 -4.47  3.87
Si  5.05  4.40 -5.62
Si  5.61 -2.56  6.21
Si -5.21 -6.79  2.03
Si -6.43 -3.99 -4.56
Si  3.03 -4.14  7.21
Si -5.64  5.30 -4.34
Si -8.70  0.94 -1.52
Si -2.78  6.83  5.00
Si  2.50 -2.03  8.32
Si -6.02 -6.53 -1.16
Si -1.58 -7.95  3.94
Si -2.98 -1.51  8.40
Si -4.51 -7.84 -0.16
Si  7.28 -5.10  1.67
Si  8.75 -1.52  1.95
Si  4.67 -7.44 -2.43
Si -0.98  5.03 -7.61
Si  1.08 -7.56  5.13
Si -0.45  2.92 -8.73
Si  7.50  3.63  3.94
Si -4.94  4.25 -6.53
Si  2.66  7.59 -4.56
Si -1.05 -2.87 -8.73
Si  3.41  7.69  4.02
Si  6.21  3.23  6.21
Si -3.69 -8.10  3.02
Si  8.47 -3.38 -2.35
Si  3.49 -7.04  5.21
Si -0.02 -9.17 -2.35
Si  1.43  5.56 -7.53
Si  5.48 -7.69  0.75
Si  0.80 -9.42  0.83
Si -3.05 -4.34 -7.89
Si -5.29  7.95  0.83
Si  3.64 -1.14 -8.81
Si  4.19 -8.10  3.02
Si -4.86 -4.14  7.21
Si  3.10  3.76  8.32
Si  0.23 -6.02 -7.53
Si -8.75  1.32  3.87
Si  9.07  2.41 -2.35
Si  5.44  1.45 -7.89
Si -7.52  2.67 -5.54
Si -9.56  1.57  0.68
Si -2.38  4.28  8.40
Si -0.60  9.68  0.75
Si  8.54  4.52 -1.24
Si -4.47  7.69  4.02
Si -8.64 -1.01 -4.43
Si  5.32  0.78  8.19
Si -4.39 -7.04  5.21
Si -4.25 -1.14 -8.81
Si  4.91 -1.51  8.40
Si  0.55  6.85  7.05
Si -8.27  3.63  3.94
Si -5.32 -7.59 -3.35
Si  1.03 -5.61  8.04
Si  5.10  6.83  5.00
Si -7.28  6.48  1.67
Si -0.86  2.97  9.40
Si -9.68 -1.90  0.75
Si  3.85 -7.18 -5.62
Si -2.71  9.53 -0.16
Si -9.08  3.89  0.75
Si  6.31 -0.76 -7.61
Si -1.46 -2.82  9.40
Si  3.76  2.34 -8.88
Si  1.53 -1.29 -9.72
Si -1.89  9.27  3.02
Si -8.87 -2.16  3.94
Si  7.65 -3.12 -5.54
Si -4.03 -7.18 -5.62
Si  8.70  0.43  4.85
Si  1.75 -7.33 -6.53
Si  9.28 -3.63  0.83
Si  5.99  7.62 -2.50
Si  3.16 -3.45 -8.88
Si -8.48 -5.10  1.67
Si  6.81  7.36  0.68
Si -4.12  2.34 -8.88
Si -2.71  7.87 -5.69
Si  7.72  4.78 -4.43
Si -3.17 -5.01  8.19
Si -5.38 -2.03  8.32
Si  9.88  2.16  0.83
Si  0.97  8.46 -5.54
Si -6.25  0.18  8.04
Si -6.47  6.22  4.85
Si  0.22  9.42  3.94
Si  4.84 -4.34 -7.89
Si -6.84 -6.28 -4.34
Si  7.34 -7.05 -1.24
Si  2.23  5.97  8.04
Si  1.67 -10.03 -1.37
Si -2.18 -6.54 -7.61
Si -5.23  7.59 -4.56
Si  8.25  2.67 -5.54
Si  0.77  0.81 10.24
Si -4.78  3.76  8.32
Si -8.12 -3.12 -5.54
Si  7.67  6.73 -1.52
Si -7.05 -0.23 -7.53
Si -1.41  9.93 -2.43
Si -8.04  4.78 -4.43
Si  6.52 -6.80 -4.43
Si -6.64  2.06 -7.75
Si -2.88 -10.01  0.68
Si 10.35 -0.74 -1.16
Si  2.07 10.06  1.95
Si  1.25 10.31 -1.24
Si  9.35  4.27  1.95
Si  9.53 -0.49 -4.34
Si -6.10  8.20 -2.35
Si -0.83 -8.91 -5.54
Si -7.67 -5.36  4.85
Si -9.30 -4.85 -1.52
Si  7.84  1.06  7.05
Si  1.61 -9.68  4.02
Si -3.65  4.65 -8.81
Si -4.72 -3.45 -8.88
Si -8.10  6.73 -1.52
Si -7.93  1.06  7.05
Si  0.65 -2.67 10.31
Si -1.97  6.57  8.19
Si -9.51  1.20 -4.71
Si  4.72 -5.01  8.19
Si  0.01  0.02 -10.72
Si -3.69 -9.75 -2.50
Si -7.62 -7.31  1.95
Si  2.48 -10.29  1.81
Si  7.72 -2.41  7.13
Si -2.88 -8.35  6.21
Si  8.48  6.48  1.67
Si  0.85 -9.78 -4.56
Si  4.24  4.65 -8.81
Si -10.38  1.83 -2.50
Si  5.18  9.53 -0.16
Si  1.25  3.12 10.31
Si -7.45  3.38  7.13
Si  8.10 -5.36  4.85
Si  6.86  6.99 -4.71
Si -1.84  7.24 -7.89
Si  6.30 -7.95  3.94
Si -0.77 -8.20  7.13
Si -10.50 -1.65 -2.43
Si  4.19 -9.75 -2.50
Si  5.51  4.28  8.40
Si -3.52  9.78 -3.35
Si  2.13  4.50 -9.72
Si -2.02 -10.64 -1.52
Si 10.76  1.55 -1.37
Si -3.65  7.44  7.21
Si -1.07  9.02  6.21
Si -9.90  4.14 -2.43
Si  9.57 -1.77  5.13
Si  5.18  7.87 -5.69
Si -8.05 -2.41  7.13
Si -10.16 -4.22  0.68
Si -3.44  1.39 10.39
Si -9.35 -4.47  3.87
Si -8.43 -7.05 -1.24
Si -2.39 -0.50 -10.80
Si  9.94  1.80 -4.56
Si -1.20 -10.89  1.67
Si 10.15 -4.24 -1.37
Si  7.62  7.11  3.87
Si  8.15 -7.31  1.95
Si  9.34 -3.99 -4.56
Si  7.24 -4.73  7.05
Si -2.06 -10.26  3.87
Si  1.84  7.84 -7.75
Si  0.42  2.31 -10.93
Si  4.23  7.44  7.21
Si  5.00 -10.01  0.68
Si  4.36  9.78 -3.35
Si -7.25 -3.73 -7.75
Si -3.41 10.58  2.03
Si -10.38  3.48  3.02
Si -6.45  5.56 -7.53
Si 11.16 -1.00  2.03
Si  4.44  1.39 10.39
Si  0.17 -4.98 10.24
Si -6.80 -7.56  5.13
Si  2.89  9.80  5.13
Si  6.91  5.03 -7.61
Si  5.99  9.27  3.02
Si  6.83 -2.87 -8.73
Si  8.32  3.38  7.13
Si  0.44 10.57 -4.43
Si -0.18 -3.48 -10.93
Si -8.15  7.11  3.87
Si  2.45 -0.08 11.22
Si  3.66 10.84 -1.16
Si -5.65  5.97  8.04
Si -1.75  0.53 11.37
Si  8.71 -0.23 -7.53
Si 10.10 -3.89  4.02
Si  5.71 -6.54 -7.61
Si  5.01 -8.35  6.21
Si  1.90 -7.82  8.32
Si  3.37 -9.50 -5.69
Si -6.14 -7.33 -6.53
Si 10.70  1.90  4.02
Si  3.04 -6.93 -8.81
Si -10.98 -2.31  3.02
Si -8.96  7.36  0.68
Si  1.03  9.17  7.13
Si  4.48 10.58  2.03
Si -3.26  1.71 -11.08
Si 11.05 -1.80 -3.35
Si -6.35 -1.29 -9.72
Si -4.22 10.84 -1.16
Si -3.58 -7.30  8.40
Si  6.42 -2.82  9.40
Si -2.83 -10.38 -4.71
Si  8.93 -6.28 -4.34
Si -5.40 -10.29  1.81
Si -5.81 10.06  1.95
Si 11.57  1.29  1.81
Si  9.74 -6.53 -1.16
Si -11.19  3.74 -0.16
Si -7.09 -9.42  0.83
Si  7.44  2.92 -8.73
Si -2.23 10.19 -5.62
Si -9.56  3.23  6.21
Si -2.59 10.33  5.21
Si -6.21 -10.03 -1.37
Si -2.16 -1.76 11.59
Si  3.84 -4.40 10.39
Si  4.31 -7.30  8.40
Si -10.98 -3.96 -2.50
Si -4.51 -9.50 -5.69
Si -6.85 -5.61  8.04
Si -11.79 -2.05 -0.16
Si -4.04 -4.40 10.39
Si 10.97 -4.50  1.81
Si -8.53 -4.73  7.05
Si 11.86 -2.05 -0.16
Si  5.92  6.57  8.19
Si  0.93 -7.08 -9.72
Si -10.12 -4.59 -4.71
Si 10.17  4.01  5.13
Si  6.47  9.93 -2.43
Si  7.02  2.97  9.40
Si 10.95  5.05 -1.16
Si  8.52 -3.73 -7.75
Si  5.49 -0.50 -10.80
Si  3.30 -10.54  5.00
Si  4.62  1.71 -11.08
Si  7.29  9.68  0.75
Si -5.00  9.80  5.13
Si  9.12  2.06 -7.75
Si -1.79  5.29 -10.80
Si -5.75  4.50 -9.72
Si -0.39 -11.15  4.85
Si -9.46 -0.76 -7.61
Si -10.16 -2.56  6.21
Si -0.59 -5.77 -10.72
Si  3.32 -2.28 11.51
Si  9.30  6.22  4.85
Si  0.61  5.81 -10.72
Si -4.85 -6.93 -8.81
Si -6.27 -9.68  4.02
Si 10.13  5.30 -4.34
Si 10.23 -1.54 -6.53
Si  5.87 -10.64 -1.52
Si  2.85 11.09 -4.34
Si -6.92  8.46 -5.54
Si  1.37  6.60 10.24
Si -8.91  6.99 -4.71
Si -7.33  6.85  7.05
Si  0.04 -9.52 -7.75
Si -12.08  1.29  1.81
Si  6.04  7.24 -7.89
Si -9.25 -6.80 -4.43
Si  7.87 -9.17 -2.35
Si -7.66 -6.02 -7.53
Si -6.63 10.31 -1.24
Si -7.90 -9.17 -2.35
Si  0.15  8.71 -8.73
Si -1.86 -2.61 -11.91
Si  2.82 -0.88 -11.99
Si -1.56  4.03 11.59
Si -11.27  1.04  5.00
Si -1.26  3.18 -11.91
Si -1.65 -8.66 -8.73
Si -8.33  2.92 -8.73
Si  5.82 -10.26  3.87
Si -3.86 -4.08 -11.08
Si  1.20 12.27  1.67
Si  1.26 -12.32 -1.16
Si  9.52  0.18  8.04
Si  5.05 -10.38 -4.71
Si -5.44 -0.08 11.22
Si  4.02 -4.08 -11.08
Si  3.55 10.04 -6.53
Si -7.12  0.81 10.24
Si  2.43 -9.93  7.21
Si -4.58 -10.54  5.00
Si -3.52  8.12 -8.88
Si -6.04  7.84 -7.75
Si -4.57 -2.28 11.51
Si  8.11 -6.02 -7.53
Si  0.39 12.52 -1.52
Si  7.05 -8.91 -5.54
Si -9.78  7.62 -2.50
Si  3.92  3.51 11.51
Si -6.64  3.12 10.31
Si -3.97  3.51 11.51
Si  2.94  2.59 -12.06
Si -12.49 -1.00  2.03
Si  2.34 -3.20 -12.06
Si -11.31 -1.39 -5.62
Si 10.56 -6.79  2.03
Si -8.86  5.03 -7.61
Si  5.29 10.33  5.21
Si -1.25 -10.52  7.05
Si -11.19  2.08 -5.69
Si -4.34 10.04 -6.53
Si -2.35 -5.26 11.37
Si 11.65  3.99 -3.35
Si -7.67  9.42  3.94
Si  1.85 -5.87 11.22
Si  4.36  8.12 -8.88
Si  8.97 -7.56  5.13
Si -8.93 -2.87 -8.73
Si  0.44 -12.07 -4.34
Si  8.68 -9.42  0.83
Si -11.68 -1.25  5.21
Si -2.99 -6.29 -10.80
Si -0.26  8.76  9.40
Si 11.76  4.79  2.03
Si -10.28 -7.69  0.75
Si -10.71  4.40 -5.62
Si -0.04  2.72 12.58
Si -7.24 -2.67 10.31
Si -7.03 -9.78 -4.56
Si  6.68 -10.89  1.67
Si -5.98 -7.82  8.32
Si -8.48  9.68  0.75
Si  6.81  9.02  6.21
Si  9.67  8.20 -2.35
