500
set: 1002.00  0.00  0.00
Si  0.49 -1.13  0.82
Si -0.41  1.30 -0.87
Si -1.36 -1.15 -0.80
Si  1.36  1.23  0.86
Si -2.17  1.20  0.83
Si  0.90 -0.07 -2.53
Si -0.94 -0.00  2.57
Si  2.29 -1.27 -0.88
Si  0.03  2.40  2.47
Si  3.14  1.22 -0.83
Si -3.16 -1.19  0.86
Si -0.03 -2.45 -2.49
Si  2.64 -0.04  2.47
Si -2.71  0.02 -2.50
Si -0.53 -3.63  0.86
Si  0.53  3.71 -0.80
Si -1.87  2.36 -2.52
Si  1.86  2.40 -2.49
Si  1.25 -3.63 -0.83
Si -1.85 -2.45  2.47
Si  1.79 -2.44  2.53
Si -1.27  3.66  0.86
Si  4.04 -1.19  0.86
Si  0.92 -0.02  4.21
Si -4.06  1.22 -0.83
Si -2.30 -3.56 -0.87
Si -0.91 -0.03 -4.23
Si  2.37  3.72  0.82
Si -3.01  3.58 -0.88
Si -0.00  2.43 -4.13
Si -0.04 -2.49  4.18
Si  3.14 -3.65  0.83
Si  3.43 -2.49 -2.52
Si -3.52  2.41  2.53
Si  2.73 -0.02 -4.18
Si -2.82 -0.07  4.18
Si  3.68  2.41  2.53
Si  4.49  0.02 -2.50
Si -4.90 -1.27 -0.88
Si  1.84  2.36  4.18
Si -1.89 -2.43 -4.13
Si -3.76 -2.49 -2.52
Si -1.76  2.45  4.21
Si -4.55 -0.04  2.47
Si  1.70 -2.46 -4.23
Si  5.03  1.20  0.83
Si -4.05 -3.65  0.83
Si  0.76 -4.89  2.47
Si -0.82  4.88 -2.50
Si  0.94  4.85  2.57
Si  4.18  3.58 -0.88
Si -0.98 -4.92 -2.53
Si  0.41 -1.20 -5.85
Si  5.84 -1.15 -0.80
Si  3.54 -2.40  4.21
Si -5.84  1.23  0.86
Si  2.60 -4.83 -2.50
Si -2.67  4.82  2.47
Si  3.58  2.39 -4.23
Si -0.41  1.28  5.90
Si -3.61  2.39 -4.23
Si  4.38 -0.07  4.18
Si -3.65 -2.40  4.21
Si  2.79  4.79 -2.53
Si -1.36 -1.13  5.83
Si -4.46 -0.02 -4.18
Si  4.89 -3.56 -0.87
Si -0.28  6.06  0.83
Si -4.82  3.72  0.82
Si -2.83 -4.85  2.57
Si  1.43  1.30 -5.88
Si -1.40 -5.98  0.82
Si  0.41 -6.12 -0.88
Si  5.32  2.36 -2.52
Si -5.34  2.40 -2.49
Si -2.21  1.24 -5.84
Si  5.34 -2.45  2.47
Si  2.19 -1.20  5.87
Si  1.47  6.15 -0.87
Si -0.93  4.79  4.18
Si -5.40 -2.44  2.53
Si  0.85 -4.87 -4.18
Si  2.15 -6.04  0.86
Si  0.97  4.83 -4.23
Si -2.17  6.08 -0.83
Si -0.97 -4.88  4.21
Si -3.11 -1.22 -5.87
Si  6.25 -0.00  2.57
Si  3.24  1.16  5.83
Si -6.29 -0.07 -2.53
Si -6.70 -1.13  0.82
Si -3.24 -6.00 -0.80
Si -2.57  4.84 -4.18
Si -0.45 -3.56 -5.88
Si  2.49 -4.92  4.18
Si  0.53  3.72  5.83
Si  3.24  6.08  0.86
Si  6.78  1.30 -0.87
Si -4.41  4.79 -2.53
Si  2.80  4.83  4.21
Si -1.22  3.63 -5.87
Si -5.94 -3.63 -0.83
Si  5.92  3.66  0.86
Si  4.37 -4.85  2.57
Si  1.35 -3.70  5.83
Si -2.79 -4.88 -4.23
Si  4.53  4.82  2.47
Si -4.59 -4.83 -2.50
Si -3.96  1.16  5.83
Si  5.31 -2.43 -4.13
Si -5.35  2.36  4.18
Si  3.95 -6.00 -0.80
Si  4.08 -1.22 -5.87
Si  2.30  3.65 -5.85
Si -2.30 -3.58  5.90
Si  5.43  2.45  4.21
Si -3.95  6.08  0.86
Si -5.49 -2.46 -4.23
Si  3.09 -3.62 -5.84
Si -6.28 -0.02  4.21
Si  6.28 -0.03 -4.23
Si -3.11  3.65  5.87
Si -0.41  1.28 -7.51
Si  6.66 -3.63  0.86
Si  0.01  7.21 -2.52
Si -6.66  3.71 -0.80
Si  0.41 -1.20  7.56
Si -0.09 -7.30  2.53
Si -7.61  1.30 -0.87
Si  1.43  1.30  7.53
Si -4.39  4.83  4.21
Si  4.98  1.24 -5.84
Si -1.36 -1.13 -7.58
Si -5.00 -1.20  5.87
Si  7.68 -1.13  0.82
Si  4.40 -4.88 -4.23
Si -1.63  7.26  2.53
Si  4.62  4.84 -4.18
Si  1.92  7.25  2.47
Si -5.04 -6.04  0.86
Si  1.55 -7.35 -2.52
Si  5.02  6.08 -0.83
Si  2.19 -1.20 -7.54
Si -7.16  2.40  2.47
Si -1.91 -7.30 -2.49
Si  7.16 -2.45 -2.49
Si -2.21  1.24  7.57
Si -4.70 -4.92  4.18
Si -4.10 -3.62 -5.84
Si  7.22  2.40  2.47
Si -7.22 -2.45 -2.49
Si  4.08  3.65  5.87
Si -3.11 -1.22  7.54
Si  6.21 -4.92 -2.53
Si -6.25  4.85  2.57
Si  3.24  1.16 -7.58
Si  5.84 -1.13  5.83
Si -5.76  1.30 -5.88
Si -0.45 -3.56  7.53
Si  5.80 -5.98  0.82
Si  6.37  4.88 -2.50
Si -3.45  7.26 -2.49
Si  0.12  7.30  4.21
Si  0.31 -6.06  5.87
Si -0.33  6.09 -5.84
Si -5.72  6.15 -0.87
Si  3.46 -7.30  2.47
Si -6.44 -4.89  2.47
Si -4.89  3.65 -5.85
Si -1.22  3.63  7.54
Si -0.19 -7.32 -4.23
Si  0.53  3.72 -7.58
Si  4.89 -3.58  5.90
Si  8.09 -0.07 -2.53
Si -8.13 -0.00  2.57
Si  3.74  7.26 -2.49
Si  1.35 -3.70 -7.58
Si -1.47 -6.05 -5.85
Si -0.63 -8.48 -0.83
Si  1.66 -7.26  4.21
Si -1.13  8.44 -0.88
Si -1.73  7.24 -4.23
Si -3.74 -7.30  2.47
Si -7.72 -3.63  0.86
Si  1.88  7.28 -4.13
Si  0.61  8.52  0.86
Si  7.72  3.71 -0.80
Si -2.07  6.01  5.83
Si -2.30 -3.58 -7.51
Si -3.96  1.16 -7.58
Si  1.26 -8.50  0.83
Si  1.47  6.13  5.90
Si  7.19  2.43 -4.13
Si -7.19  2.43 -4.13
Si  7.15 -2.49  4.18
Si  4.09 -1.22  7.54
Si -8.55 -1.15 -0.80
Si -1.93 -7.35  4.18
Si  8.55  1.23  0.86
Si  2.30  3.65  7.56
Si -7.23 -2.49  4.18
Si  2.20 -6.08 -5.87
Si -2.41 -8.48  0.86
Si  6.26  4.79  4.18
Si  2.41  8.56 -0.80
Si -3.11  3.65 -7.54
Si -6.22  4.83 -4.23
Si  3.09 -3.62  7.57
Si  6.22 -4.88  4.21
Si -3.24 -5.98  5.83
Si  3.01 -8.41 -0.87
Si -6.34 -4.87 -4.18
Si -3.46  7.21  4.18
Si -6.78 -1.20 -5.85
Si -5.84 -3.70  5.83
Si  3.42 -7.28 -4.13
Si  6.78  1.28  5.90
Si -2.93  8.58  0.82
Si -5.00 -1.20 -7.54
Si  5.97  3.63 -5.87
Si  3.73  7.21  4.18
Si  3.32  6.15 -5.88
Si  8.11 -0.02  4.21
Si -8.10 -0.03 -4.23
Si  4.98  1.24  7.57
Si -6.78 -6.12 -0.88
Si -3.77 -7.28 -4.13
Si -0.91 -0.03  9.18
Si  6.91  6.06  0.83
Si  8.44 -3.63 -0.83
Si  0.91 -0.02 -9.20
Si  3.95 -5.98  5.83
Si -8.46  3.66  0.86
Si -5.28  7.25  2.47
Si  4.08  3.65 -7.54
Si -4.10 -3.62  7.57
Si  5.28 -7.30 -2.49
Si -3.88  6.15 -5.88
Si -4.18 -8.41 -0.87
Si -9.36  1.20  0.83
Si  5.56  7.26  2.53
Si -0.04 -2.49 -9.23
Si -5.76  1.30  7.53
Si -0.00  2.43  9.28
Si -5.64 -7.35 -2.52
Si -6.66  3.72  5.83
Si  4.26  8.58  0.82
Si  9.49 -1.27 -0.88
Si  6.74 -3.56 -5.88
Si  2.73 -0.02  9.23
Si  5.84 -1.13 -7.58
Si -2.82 -0.07 -9.22
Si  8.98 -2.44  2.53
Si  4.89 -3.58 -7.51
Si  1.70 -2.46  9.18
Si  7.95 -4.89  2.47
Si -7.47  6.06  0.83
Si  7.61 -1.20 -5.85
Si  0.31 -6.06 -7.54
Si -1.76  2.45 -9.20
Si  9.05  2.40 -2.49
Si -9.04 -2.45  2.47
Si -9.07  2.36 -2.52
Si  1.84  2.36 -9.23
Si -8.01  4.88 -2.50
Si -7.61  1.28  5.90
Si -0.33  6.09  7.57
Si -4.89  3.65  7.56
Si  4.78 -8.48  0.86
Si -1.89 -2.43  9.28
Si -1.47 -6.05  7.56
Si  7.60 -6.12 -0.88
Si  1.47  6.13 -7.51
Si  5.12  6.01  5.83
Si -4.99 -6.08 -5.87
Si  8.13  4.85  2.57
Si -4.78  8.56 -0.80
Si -8.18 -4.92 -2.53
Si -2.07  6.01 -7.58
Si -5.31  7.28 -4.13
Si  2.20 -6.08  7.54
Si  5.27 -7.35  4.18
Si -0.78  9.67  2.47
Si  5.47  7.24 -4.23
Si  0.72 -9.68 -2.50
Si -5.53 -7.26  4.21
Si  1.06  9.73 -2.50
Si -1.13 -9.74  2.47
Si  3.58  2.39  9.18
Si  9.83 -0.04  2.47
Si -3.61  2.39  9.18
Si  8.89 -2.46 -4.23
Si  3.54 -2.40 -9.20
Si -9.49 -3.56 -0.87
Si  5.72 -6.05 -5.85
Si -3.24 -5.98 -7.58
Si -3.65 -2.40 -9.20
Si -8.96  2.45  4.21
Si  6.78  1.28 -7.51
Si -9.90  0.02 -2.50
Si  4.38 -0.07 -9.22
Si -6.78 -1.20  7.56
Si  9.04  2.36  4.18
Si -4.46 -0.02  9.23
Si -5.72  6.13  5.90
Si -5.84 -3.70 -7.58
Si -9.08 -2.43 -4.13
Si  3.32  6.15  7.53
Si  5.97  3.63  7.54
Si -2.52  9.64 -2.53
Si -7.64 -3.56 -5.88
Si  8.04 -4.87 -4.18
Si  9.57  3.72  0.82
Si -8.12  4.79  4.18
Si  0.66  8.48 -5.87
Si  2.48 -9.71  2.57
Si  1.21 -8.47 -5.84
Si -0.53 -8.55  5.83
Si  7.72  3.72  5.83
Si  8.17  4.83 -4.23
Si -8.16 -4.88  4.21
Si -5.93 -8.50  0.83
Si -1.23  8.50  5.87
Si -8.55 -1.13  5.83
Si  0.97  4.83  9.18
Si  6.06  8.44 -0.88
Si  3.95 -5.98 -7.58
Si  2.83  9.71  2.57
Si -0.93  4.79 -9.22
Si 10.33  1.22 -0.83
Si -10.35 -1.19  0.86
Si -0.97 -4.88 -9.20
Si -3.88  6.15  7.53
Si  0.85 -4.87  9.23
Si -7.18  7.21 -2.52
Si  7.10 -7.30  2.53
Si -2.87 -9.77 -2.53
Si -8.59 -5.98  0.82
Si  7.20  7.21 -2.52
Si  8.62  1.30 -5.88
Si -2.34 -8.41 -5.88
Si  0.95  9.64  4.18
Si -0.69  9.69 -4.18
Si -7.29 -7.30  2.53
Si -1.03 -9.72 -4.18
Si  0.61 -9.77  4.18
Si  2.41  8.58  5.83
Si  8.66  6.15 -0.87
Si  6.74 -3.56  7.53
Si  3.01 -8.43  5.90
Si -2.57  4.84  9.23
Si  2.49 -4.92 -9.22
Si -3.01  8.51 -5.85
Si  6.56 -8.48 -0.83
Si -6.66  3.72 -7.58
Si  2.80  4.83 -9.20
Si -2.79 -4.88  9.18
Si -7.61  1.28 -7.51
Si  9.93 -0.02 -4.18
Si  7.61 -1.20  7.56
Si -6.58  8.52  0.86
Si -10.01 -0.07  4.18
Si -10.21  3.58 -0.88
Si -2.51  9.68  4.21
Si -0.94 -0.00 -10.84
Si  6.86  6.09 -5.84
Si -8.41  3.63 -5.87
Si -6.88 -6.06  5.87
Si -4.99 -6.08  7.54
Si  2.51 -9.73 -4.23
Si  0.90 -0.07 10.88
Si -5.35  2.36 -9.23
Si  0.27 -10.90  0.86
Si  2.86  9.68 -4.23
Si  5.12  6.01 -7.58
Si -4.37  9.71  2.57
Si  5.31 -2.43  9.28
Si  5.43  2.45 -9.20
Si -0.29 10.93 -0.83
Si -5.49 -2.46  9.18
Si  7.01 -7.32 -4.23
Si -2.85 -9.73  4.21
Si  4.33 -9.77 -2.53
Si  8.54 -3.70  5.83
Si 10.34 -3.65  0.83
Si -7.07  7.30  4.21
Si  4.67  9.64 -2.53
Si  1.60 10.91  0.83
Si  2.07 -10.86 -0.80
Si -4.71 -9.71  2.57
Si -4.18 -8.43  5.90
Si -1.47 -10.98 -0.88
Si  6.28 -0.03  9.18
Si -6.28 -0.02 -9.20
Si  4.18  8.51 -5.85
Si  9.39 -1.20  5.87
Si -9.41  1.24 -5.84
Si  7.31  7.30  4.21
Si -2.07 10.93  0.86
Si  9.34 -6.04  0.86
Si -0.03 -2.45 10.92
Si -9.36  6.08 -0.83
Si  0.03  2.40 -10.94
Si 10.62 -2.49 -2.52
Si  9.79 -4.83 -2.50
Si -7.38 -7.32 -4.23
Si -2.71  0.02 10.91
Si -9.86  4.82  2.47
Si  2.64 -0.04 -10.94
Si  5.72 -6.05  7.56
Si -5.72  6.13 -7.51
Si -10.71  2.41  2.53
Si -4.39  4.83 -9.20
Si  4.40 -4.88  9.18
Si  7.50 -6.06  5.87
Si  1.79 -2.44 -10.88
Si -1.87  2.36 10.89
Si -7.64 -3.56  7.53
Si -7.52  6.09 -5.84
Si 11.23 -1.19  0.86
Si  1.86  2.40 10.92
Si -11.25  1.22 -0.83
Si  9.98  4.79 -2.53
Si -3.28 -10.84  0.82
Si  4.86 -8.41 -5.88
Si -1.85 -2.45 -10.94
Si  0.66  8.48  7.54
Si  4.62  4.84  9.23
Si 10.87  2.41  2.53
Si -4.78  8.58  5.83
Si -4.33  9.68 -4.23
Si  1.21 -8.47  7.57
Si -10.02 -4.85  2.57
Si -1.23  8.50 -7.54
Si  7.72  3.72 -7.58
Si -0.53 -8.55 -7.58
Si  4.34 -9.73  4.21
Si -4.70 -4.92 -9.22
Si -8.55 -1.13 -7.58
Si -10.95 -2.49 -2.52
Si  8.62  1.30  7.53
Si -2.34 -8.41  7.53
Si  3.35 11.00 -0.87
Si  3.91 -10.84  0.82
Si  4.68  9.68  4.21
Si -7.83 -8.48 -0.83
Si  7.80  8.52  0.86
Si -4.68 -9.73 -4.23
Si  9.68 -4.92  4.18
Si -9.77  4.84 -4.18
Si  3.01 -8.43 -7.51
Si -3.52  2.41 -10.88
Si -3.84 11.00 -0.87
Si  3.43 -2.49 10.89
Si  8.74 -7.35 -2.52
Si  2.41  8.58 -7.58
Si -8.82  7.26  2.53
Si  9.49  3.65 -5.85
Si -9.49 -3.58  5.90
Si  3.68  2.41 -10.88
Si -0.19 -7.32  9.18
Si  6.06 -9.74  2.47
Si  0.12  7.30 -9.20
Si -6.13  9.73 -2.50
Si -3.01  8.51  7.56
Si 10.74 -2.40  4.21
Si -3.76 -2.49 10.89
Si  4.49  0.02 10.91
Si -1.73  7.24  9.18
Si 10.78  2.39 -4.23
Si  1.66 -7.26 -9.20
Si -10.80  2.39 -4.23
Si -4.55 -0.04 -10.94
Si -11.24 -3.65  0.83
Si  6.41  9.67  2.47
Si -8.41  3.63  7.54
Si -6.88 -6.06 -7.54
Si  9.99  4.83  4.21
Si -10.84 -2.40  4.21
Si -8.32  8.44 -0.88
Si -9.99 -4.88 -4.23
Si  6.86  6.09  7.57
Si -5.98 -8.47 -5.84
Si  9.11  7.25  2.47
Si  0.94  4.85 -10.84
Si -6.47 -9.68 -2.50
Si -10.30 -1.22 -5.87
Si  5.96  8.50  5.87
Si -9.10 -7.30 -2.49
Si  7.15 -2.49 -9.23
Si 11.68  0.02 -2.50
Si  1.88  7.28  9.28
Si -1.93 -7.35 -9.23
Si 11.37  3.58 -0.88
Si -0.82  4.88 10.91
Si -0.98 -4.92 10.88
Si  7.19  2.43  9.28
Si -7.19  2.43  9.28
Si -7.23 -2.49 -9.23
Si -11.74 -0.04  2.47
