500
set: 141.00  0.00  0.00
Si -0.02 -0.01 -0.00
Si -0.04 -2.10  0.79
Si  1.81  1.08  0.79
Si  0.04  0.03 -2.27
Si -1.90  1.07  0.74
Si  1.77  1.00  2.98
Si -1.76  1.08  2.97
Si  1.80 -3.16  0.01
Si  3.65  0.01  0.05
Si -1.82 -3.16 -0.01
Si  1.83 -1.09 -2.97
Si -1.80 -1.04 -3.04
Si -1.80  3.23  0.02
Si  0.01  2.14 -3.02
Si  0.03 -2.15  3.02
Si -3.71  0.01 -0.04
Si  1.86  3.21  0.11
Si  1.90  3.13 -2.15
Si  3.65 -2.11  0.74
Si -1.84 -1.04  3.72
Si -1.84  3.16 -2.23
Si  1.84 -3.17 -2.22
Si -3.63  0.02 -2.29
Si  3.68 -0.04 -2.24
Si -3.70 -2.10  0.74
Si -1.79 -3.21 -2.29
Si  1.85 -1.09  3.80
Si  0.04  4.30  0.81
Si  0.05  2.13  3.83
Si -3.64 -2.09  2.98
Si  3.70  2.09 -2.96
Si  3.64 -2.17  2.99
Si -3.71  2.13 -2.98
Si  0.03 -4.27 -3.01
Si  0.00  4.28  3.07
Si  3.63  2.03  3.70
Si -3.69  2.07  3.70
Si  5.47  1.07  0.77
Si  1.86 -1.07 -5.22
Si  0.04 -4.29  3.68
Si -1.84 -5.30  0.69
Si -3.70  4.21  0.79
Si  0.02  2.12 -5.26
Si -5.53  1.04  0.72
Si  1.87 -5.33  0.71
Si -1.85 -1.05 -5.32
Si  3.70  4.35  0.83
Si  1.83  5.23 -2.97
Si  5.47 -3.15 -0.01
Si  5.46  3.19  0.01
Si -1.81 -1.07  5.98
Si -1.80  5.26 -3.06
Si -5.52 -3.12 -0.01
Si -1.83 -5.33  2.93
Si -3.70 -4.22 -2.98
Si  1.92 -5.28  2.97
Si -5.54  3.13  0.02
Si  3.65  4.21  3.07
Si -5.53 -0.96 -3.00
Si  1.88  1.11 -5.98
Si  5.54  1.03  2.98
Si  0.01 -2.10 -6.02
Si -3.68  4.21  3.07
Si  5.49 -1.10 -3.07
Si -0.00 -6.39  0.04
Si  3.68 -4.27 -3.01
Si  0.00  2.11  6.03
Si -1.84  1.06 -6.04
Si -5.57  1.08  2.98
Si -0.01  6.41 -0.03
Si  1.89 -1.05  6.06
Si  3.69  2.16 -5.15
Si  5.49 -1.05  3.72
Si -5.50 -1.04  3.71
Si -3.63 -4.22  3.77
Si -5.52 -3.11 -2.26
Si -3.67  2.12 -5.24
Si  5.52  3.18 -2.25
Si  0.03 -0.03  6.76
Si -5.54  3.14 -2.26
Si -1.84  5.32  3.76
Si  0.01 -6.39 -2.23
Si  5.52 -3.20 -2.25
Si -0.02  6.38 -2.29
Si  1.87  5.37  3.72
Si  3.72 -4.25  3.78
Si  0.00 -4.27 -5.32
Si -3.70  6.28 -0.04
Si  7.29 -0.05  0.07
Si -3.69  2.11  5.95
Si  3.68  2.17  5.94
Si -3.71 -6.31 -0.01
Si  0.04 -4.27  5.95
Si  0.04  4.22 -6.06
Si  3.64  6.43 -0.01
Si -3.67 -2.08 -6.08
Si  3.67 -2.14 -6.06
Si -7.42 -0.05  0.07
Si  3.66 -6.46 -0.04
Si  7.28 -0.08 -2.17
Si -1.76 -3.19  6.67
Si -1.85  3.17  6.69
Si  5.43 -5.32  0.71
Si -3.64 -4.18 -5.26
Si -3.67  6.32 -2.32
Si -5.50 -0.96 -5.27
Si  3.69 -4.27 -5.21
Si  1.81  5.34 -5.22
Si  3.63  6.38 -2.26
Si  7.33 -2.18  0.81
Si -1.92  7.42  0.71
Si  1.78  7.46  0.70
Si  1.81 -3.15  6.79
Si  3.72  0.07  6.75
Si -3.72 -6.36 -2.26
Si -5.58 -5.28  0.70
Si  1.85  3.28  6.74
Si -3.67 -0.03  6.80
Si -1.76  5.30 -5.34
Si  5.50 -1.07 -5.32
Si -7.39 -2.18  0.81
Si -7.44 -0.08 -2.17
Si  3.69 -6.42 -2.32
Si -5.45 -5.23  2.97
Si -5.46 -1.11  5.96
Si -1.86 -7.37 -3.01
Si  7.35  1.99 -2.98
Si -3.65  4.22 -5.99
Si -7.37  1.99 -2.98
Si  5.52 -5.28  2.96
Si  5.46  1.06 -6.03
Si  3.68  4.29 -5.95
Si  7.31 -2.15  3.07
Si  5.51 -1.08  6.00
Si -1.90  5.31  5.98
Si  1.84 -7.43 -3.02
Si -3.65 -4.27  6.02
Si -5.52  5.31 -3.02
Si  1.84  5.38  5.96
Si -1.83  7.46  2.96
Si  3.68 -4.20  6.06
Si -1.84 -5.33 -6.02
Si  5.49  5.37 -3.01
Si -5.51  1.14 -6.05
Si -7.41 -2.15  3.07
Si  1.90  7.51  2.97
Si  1.90 -5.35 -6.05
Si  7.33  4.20  0.73
Si -0.03 -2.08 -8.22
Si  1.82  1.10 -8.22
Si  1.82 -7.39  3.79
Si -1.84 -7.43  3.75
Si  5.52  5.31  3.75
Si -7.39  4.20  0.73
Si  7.33  2.17  3.79
Si -1.84  1.06 -8.27
Si -0.03 -8.55  0.73
Si -7.38  2.17  3.79
Si -5.54  5.35  3.79
Si -7.33 -4.21 -2.98
Si  0.01 -8.48  2.99
Si -7.34  4.26  2.99
Si  7.38 -4.21 -2.98
Si  7.37  4.26  2.99
Si  0.01  0.02 -9.03
Si  0.03  0.04  9.03
Si  0.03  8.53 -2.98
Si -3.65 -8.39  0.83
Si  5.51  3.20  6.69
Si -1.80 -7.42 -5.20
Si -5.49  7.41  0.71
Si  7.34  2.09 -5.24
Si -5.49  5.30 -5.25
Si  9.18  1.04  0.72
Si -0.01  6.34  6.78
Si -0.01  8.47  3.79
Si -5.49 -3.19  6.76
Si -7.37  2.09 -5.24
Si  0.02 -6.38  6.75
Si  5.56  5.32 -5.20
Si  5.52  7.44  0.69
Si  1.87 -7.44 -5.25
Si -5.50  3.18  6.79
Si  7.35 -4.27  3.79
Si  3.65 -8.53  0.79
Si -7.36 -4.27  3.79
Si  0.04  4.20 -8.33
Si -9.24  1.07  0.77
Si  3.66 -2.18 -8.31
Si  5.56 -3.17  6.81
Si -3.73 -2.22 -8.31
Si -5.46 -5.30 -5.95
Si -1.87  3.15  8.94
Si  3.68 -0.04 -8.95
Si  9.15  1.08  2.98
Si -3.71 -0.04 -8.94
Si -1.80 -3.24  8.96
Si -5.43  7.46  2.97
Si  9.18  3.13  0.02
Si  7.34 -6.33 -0.03
Si -9.17  1.03  2.98
Si  5.53  7.42  2.93
Si -1.84 -7.43  5.97
Si  9.19 -3.12 -0.01
Si  9.18 -0.96 -3.00
Si  5.52  5.31  5.97
Si -3.68  8.47 -3.01
Si  1.89  7.44 -5.95
Si -7.35 -2.14 -5.98
Si -7.37 -6.33 -0.03
Si  1.88 -7.38  6.03
Si -7.34  2.15  5.99
Si  7.36  6.36  0.04
Si  7.36 -2.14 -5.98
Si -7.36  6.36  0.04
Si -3.68 -0.02  9.00
Si -1.81  7.42 -6.03
Si  1.79 -3.17 -9.03
Si  7.37  2.15  5.99
Si -1.89 -9.55  0.01
Si  3.66  0.03  9.03
Si  3.66  8.52 -2.98
Si -5.48  5.36  6.03
Si -1.82 -3.22 -9.03
Si  1.82  3.29  9.02
Si  5.55 -5.32 -6.03
Si -9.25 -3.15 -0.01
Si -1.89  9.59 -0.01
Si  1.82 -9.61  0.02
Si  3.68 -8.53  3.07
Si -9.25  3.19  0.01
Si -5.53 -7.51 -2.97
Si -9.23 -1.10 -3.07
Si  1.83 -3.26  9.04
Si  1.92  3.21 -9.04
Si -1.83  3.17 -9.08
Si -3.71 -8.53  3.07
Si  1.83  9.62 -0.01
Si  5.56 -7.48 -3.06
Si -5.49 -7.38  3.72
Si -7.36 -0.02  6.69
Si  7.36 -0.02  6.69
Si  9.17  3.14 -2.26
Si -0.02 -2.11  9.73
Si  0.03  8.46 -5.26
Si -7.34  6.35 -2.23
Si  9.19 -3.11 -2.26
Si -3.63  4.27 -8.24
Si -1.83  9.54 -2.25
Si  7.34 -6.36 -2.29
Si  7.37  6.35 -2.23
Si -7.33 -4.28 -5.26
Si -3.64  8.49  3.78
Si  5.52 -7.42  3.76
Si -1.83  1.05  9.76
Si  3.72  4.25 -8.24
Si  5.52  1.07 -8.26
Si  9.21 -1.04  3.71
Si -9.20  3.18 -2.25
Si -9.19 -3.20 -2.25
Si  1.84  1.14  9.76
Si -1.84 -9.56 -2.25
Si -3.67 -6.37  6.77
Si  3.69  6.37  6.77
Si -7.38 -6.36 -2.29
Si -9.23 -1.05  3.72
Si -5.49  1.12 -8.29
Si  1.86 -5.29 -8.30
Si -1.87 -5.30 -8.29
Si  7.39 -4.28 -5.26
Si  1.81 -9.61 -2.26
Si  3.73  8.52  3.77
Si  3.69 -6.33  6.86
Si  1.84  9.63 -2.26
Si -3.66  6.41  6.86
Si -7.34  4.24 -5.97
Si  0.02 -8.50 -5.97
Si  7.38  4.24 -5.97
Si -7.34 -4.26  6.04
Si  0.02  8.48  6.04
Si  7.38 -4.26  6.04
Si  9.13 -5.28  0.70
Si -3.67 -2.17  9.69
Si -0.03 10.56  0.81
Si -3.67  8.47 -5.21
Si -5.54 -7.40 -5.22
Si  3.63 -2.11  9.75
Si  9.21 -0.96 -5.27
Si -0.08  4.17  9.84
Si -9.21 -1.07 -5.32
Si  3.72  8.56 -5.26
Si -9.28 -5.32  0.71
Si  5.60 -7.44 -5.34
Si -5.52 -7.36  5.96
Si -3.68 -8.45 -5.95
Si -0.01  6.24  9.03
Si  5.46 -7.43  5.98
Si -0.05 -6.39 -8.95
Si  5.49 -3.12  9.01
Si -5.46  7.39 -6.05
Si  0.03  6.35 -8.99
Si -9.19 -5.28  2.96
Si -5.50 -9.53  0.11
Si 11.01  0.01 -0.04
Si  0.01 -6.35  8.99
Si  5.55 -9.51  0.02
Si  5.51  7.41 -6.02
Si -5.52 -3.18  8.99
Si  5.55  3.20  8.97
Si -0.05 10.60  3.07
Si -9.20 -1.08  6.00
Si  3.71  8.47  6.02
Si  9.19  5.31 -3.02
Si  9.26 -5.23  2.97
Si -5.45  3.27 -9.04
Si  3.71 -8.52 -5.99
Si -5.53  3.15  9.04
Si  9.26 -1.11  5.96
Si  5.54  9.58 -0.01
Si -11.07  0.01  0.05
Si  9.20  1.14 -6.05
Si -5.56  9.58  0.01
Si  5.52  3.22 -9.05
Si -9.22  5.37 -3.01
Si -9.26  1.06 -6.03
Si  5.60 -3.17 -9.05
Si -3.68  8.54  6.06
Si -5.59 -3.24 -9.04
Si -0.01 -10.75 -2.98
Si -7.31 -2.12 -8.18
Si -7.32 -8.44  0.81
Si  1.85  7.40 -8.21
Si -0.03 -10.57  3.79
Si  7.41 -2.12 -8.18
Si -5.51 -5.34 -8.21
Si 11.01 -2.10  0.74
Si  7.39 -8.44  0.81
Si  5.57  1.04  9.72
Si  3.73  4.27  9.73
Si -3.68  4.21  9.77
Si -9.20  5.31  3.75
Si -5.46 -9.61 -2.15
Si -11.04 -0.04 -2.24
Si -5.52  9.57 -2.22
Si  3.66 10.64  0.74
Si  5.57  9.53 -2.29
Si  5.52 -5.29 -8.29
Si  9.17  5.35  3.79
Si  5.52 -9.59 -2.23
Si -3.71 10.63  0.74
Si -0.03 -0.05 -11.28
Si -5.52  1.07  9.79
Si -11.07 -2.11  0.74
Si -1.84 -5.34  9.78
Si -1.84  7.46 -8.29
Si 11.08  0.02 -2.29
Si  1.90 -5.36  9.86
Si -7.35  0.03 -8.94
Si  7.36  0.03 -8.94
Si 11.00  2.13 -2.98
Si -11.01  2.09 -2.96
Si -3.72 10.57  2.99
Si -7.33  8.47 -3.01
Si  3.64  6.32 -9.02
Si -7.33 -0.03  9.00
Si  3.64 -10.61 -2.98
Si -7.35 -8.46  3.07
Si  7.36 -8.46  3.07
Si  7.39  8.47 -3.01
Si -3.66  6.34  9.05
Si  3.64  6.38  9.04
Si  7.39 -0.03  9.00
Si  3.71 -6.34 -9.03
Si -3.65 -10.65 -2.96
Si 11.07 -2.09  2.98
Si -3.64  6.40 -9.03
Si -3.71 -6.37  9.04
Si  3.71 10.65  2.98
Si -11.07 -2.17  2.99
Si -3.71 -6.42 -9.02
Si  3.70 -6.40  9.05
Si -3.65  0.10 -11.18
Si -7.32  8.45  3.68
Si -9.16  5.32 -5.20
Si -1.85 -9.54  6.69
Si  3.65 -0.04 -11.23
Si 11.02  2.07  3.70
Si  7.35  4.22 -8.23
Si 11.01  4.21  0.79
Si -7.36  4.22 -8.23
Si -9.21  3.20  6.69
Si  7.40  8.45  3.68
Si -1.88 -3.18 -11.24
Si -7.34  6.37  6.75
Si -0.00 -8.52 -8.23
Si -9.16 -3.17  6.81
Si -9.19  7.44  0.69
Si -1.88 -11.67  0.77
Si  9.22  7.41  0.71
Si  1.87  9.55  6.76
Si  7.37  6.37  6.75
Si -11.09  2.03  3.70
Si  9.22  5.30 -5.25
Si  1.83 -11.70  0.72
Si  7.34 -6.41  6.78
Si -11.01  4.35  0.83
Si -0.01 -10.65 -5.24
Si  1.86 -9.56  6.79
Si  3.66 -10.67  3.70
Si  9.22 -3.19  6.76
Si  9.21  3.18  6.79
Si  1.83 -3.21 -11.29
Si -1.80  9.57  6.81
Si -7.37 -6.41  6.78
Si  1.87  3.16 -11.31
Si -1.84  3.19 -11.32
Si -3.73 -10.71  3.70
Si -0.00  2.11 -11.97
Si -0.01 -2.08 11.98
Si -9.19  7.42  2.93
Si  0.01 -10.59  5.99
Si  1.79 -11.66  2.98
Si 11.02 -4.22 -2.98
Si  0.00 10.60 -5.98
Si -1.87 11.64 -3.07
Si -9.19  5.31  5.97
Si  1.82 -1.12 -11.99
Si -9.16 -5.32 -6.03
Si -1.89 -1.06 -12.00
Si  1.83  1.13 12.01
Si 11.03  4.21  3.07
Si -1.89  1.09 12.00
Si  9.25 -5.30 -5.95
Si -9.15 -7.48 -3.06
Si -11.04 -4.27 -3.01
Si -1.82 -11.71  2.98
Si -11.06  4.21  3.07
Si  9.19 -7.51 -2.97
Si  9.24  5.36  6.03
Si  9.28  7.46  2.97
Si  1.82 11.78 -3.00
Si -3.66 -10.58 -5.15
Si -11.02  2.16 -5.15
Si  1.81  7.38  9.76
Si -10.99 -4.25  3.78
Si -3.63 -8.49 -8.24
Si  9.23 -7.38  3.72
Si  3.73 -8.47 -8.24
Si -9.20 -7.42  3.76
Si  3.69 -10.62 -5.24
Si -1.84  7.43  9.76
Si -9.20  1.07 -8.26
Si  5.52 -5.31  9.76
Si 11.04  2.12 -5.24
Si -1.87 11.69  3.72
Si  1.85 11.70  3.71
Si -7.36  8.47 -5.32
Si  7.36  8.47 -5.32
Si  5.49  7.44 -8.29
Si -7.34 -2.14  9.78
Si -5.50  7.45 -8.30
Si  7.37 -2.14  9.78
Si -5.54 -5.36  9.76
Si 11.09 -4.22  3.77
Si  9.23  1.12 -8.29
Si -3.67 -10.57  5.94
Si 11.01  6.28 -0.04
Si -7.32  8.47  5.95
Si 11.00 -6.31 -0.01
Si -0.07 -4.30 -11.94
Si -0.07 12.69  0.07
Si 11.02  2.11  5.95
Si  3.64 -2.06 12.01
Si -11.03  2.17  5.94
Si -3.70 -2.21 11.97
Si  3.67 -10.63  5.95
Si  7.40  8.47  5.95
Si -7.32 -8.52 -6.06
Si -3.69 10.60 -6.06
Si  3.66  2.03 -12.06
Si -3.71  2.18 -12.02
Si 11.04 -2.08 -6.08
Si -11.05 -2.14 -6.06
Si -0.07 -12.79  0.07
Si -0.07  4.20 12.09
Si -11.07  6.43 -0.01
Si  7.40 -8.52 -6.06
Si -11.06 -6.46 -0.04
Si  3.68 10.66 -6.08
Si -0.08 12.66 -2.17
Si -5.50 -9.46  6.74
Si 12.81  1.07  0.74
Si  1.78 -1.03 12.72
Si  9.17 -7.40 -5.22
Si 10.99 -6.36 -2.26
Si  5.46 -11.67  0.74
Si -11.00  0.07  6.75
Si  0.04 -8.47  9.74
Si  5.50 -9.57  6.69
Si -7.32  4.27  9.74
