500
set: 139.00  0.00  0.00
Si -0.08  0.06 -0.04
Si  0.01 -2.09  0.72
Si  1.78  1.11  0.72
Si  0.03  0.04 -2.28
Si -1.93  1.11  0.76
Si  1.90 -1.08 -2.95
Si -1.88 -1.02 -2.98
Si -1.89 -3.15 -0.00
Si -1.78  3.23  0.01
Si  3.69  0.10 -0.01
Si -0.05 -2.16  3.00
Si  1.87  1.07  3.02
Si  1.89 -3.19  0.02
Si -1.81  1.05  3.06
Si  1.90  3.22  0.01
Si -3.75  0.02  0.02
Si  0.01  2.18 -3.10
Si -1.89 -3.16 -2.23
Si  1.90  3.16 -2.28
Si -1.83  3.22 -2.27
Si -3.74 -2.09  0.77
Si  1.88 -3.21 -2.25
Si  3.73 -2.10  0.81
Si  1.85 -1.10  3.79
Si  3.74  0.06 -2.25
Si -1.86 -1.08  3.80
Si -3.74  0.03 -2.25
Si  0.11  4.31  0.76
Si  0.06  2.20  3.79
Si -0.00 -4.27 -2.95
Si  0.02  4.27  2.98
Si -3.73  2.13 -3.04
Si -3.71 -2.18  3.03
Si  3.76 -2.14  3.02
Si  3.76  2.19 -3.12
Si  1.76 -5.31  0.69
Si  1.88 -1.09 -5.22
Si -3.70  4.27  0.69
Si  5.52  1.13  0.83
Si -1.81 -5.35  0.75
Si -1.86 -1.08 -5.30
Si -3.71  2.19  3.76
Si  3.72  2.10  3.83
Si  0.04 -4.34  3.75
Si  3.78  4.25  0.79
Si -5.63  1.06  0.79
Si -0.04  2.18 -5.37
Si  0.03 -2.13 -5.99
Si -5.50  0.99  3.04
Si -5.56 -1.11 -2.94
Si  3.69  4.22  3.08
Si  5.53 -3.22 -0.03
Si  1.79  1.05 -6.06
Si -3.70 -4.27 -3.02
Si -5.53  3.24 -0.08
Si -5.57 -3.19 -0.00
Si -1.87 -1.08  6.04
Si  1.81 -1.03  6.08
Si  1.92  5.33 -3.03
Si -1.85  5.33 -3.10
Si -0.02  6.44 -0.01
Si -3.75  4.32  2.96
Si  5.56  1.07  3.07
Si  3.76 -4.30 -3.00
Si  5.58  3.23  0.00
Si  1.87 -5.42  2.95
Si -0.03 -6.45 -0.07
Si  0.01  2.15  6.09
Si  5.61 -0.98 -3.05
Si -1.83 -5.42  3.02
Si -1.91  1.05 -6.10
Si -1.86  5.27  3.69
Si -0.05 -4.29 -5.18
Si  0.01  6.35 -2.32
Si  3.72 -4.31  3.69
Si -3.65 -4.33  3.78
Si -5.54 -3.26 -2.26
Si  5.62 -3.11 -2.30
Si  0.02 -6.42 -2.29
Si  1.84  5.34  3.83
Si -3.76  2.13 -5.29
Si  5.59  3.23 -2.27
Si -5.57  3.23 -2.33
Si  5.59 -1.08  3.85
Si -5.55 -1.15  3.90
Si  3.73  2.13 -5.38
Si -0.02 -0.01  6.89
Si  7.36 -0.00  0.06
Si  0.04 -4.28  6.00
Si -3.69 -6.41  0.08
Si -3.73 -2.15 -6.04
Si -3.71  2.14  6.06
Si -3.81  6.38 -0.04
Si  3.62 -6.49 -0.04
Si  3.71 -2.15 -6.07
Si  3.69  2.13  6.09
Si  3.73  6.45  0.08
Si  0.04  4.30 -6.13
Si -7.49 -0.00  0.06
Si -1.86 -3.23  6.71
Si -5.56 -1.06 -5.22
Si -3.73 -4.24 -5.23
Si -7.39  0.03 -2.21
Si  5.50 -5.36  0.74
Si  7.38 -2.14  0.79
Si -3.73 -6.39 -2.22
Si  1.86  5.35 -5.28
Si  3.71 -4.31 -5.28
Si  3.72 -6.41 -2.31
Si  5.60 -1.06 -5.28
Si  3.69  6.47 -2.22
Si -1.92  7.50  0.74
Si  7.46  0.03 -2.21
Si  1.78  7.54  0.76
Si -1.83  3.22  6.85
Si -5.64 -5.32  0.76
Si -3.72 -0.03  6.85
Si  1.86 -3.23  6.84
Si -3.70  6.46 -2.31
Si -7.47 -2.14  0.79
Si  3.68  0.04  6.90
Si -1.86  5.35 -5.41
Si  1.86  3.23  6.90
Si  1.83 -5.28 -5.96
Si -1.87  5.31  5.96
Si -1.88 -5.35 -5.95
Si -1.85  7.46  2.97
Si  3.72 -4.28  6.00
Si -5.58  1.05 -5.99
Si -5.52 -5.36  3.04
Si -3.76 -4.27  6.01
Si  5.55  5.35 -3.03
Si  7.42  2.10 -3.07
Si  1.86 -7.47 -3.10
Si -7.43  2.10 -3.07
Si  5.57 -5.40  2.97
Si  1.90  7.50  3.04
Si  7.42 -2.14  3.09
Si -1.87 -7.52 -3.03
Si -7.42 -2.14  3.09
Si  1.83  5.33  6.14
Si -5.56  5.39 -3.10
Si  3.72  4.31 -6.12
Si  5.54 -1.07  6.17
Si  5.56  1.03 -6.17
Si -3.76  4.31 -6.11
Si -5.59 -1.00  6.16
Si -7.37  2.04  3.84
Si -5.58  5.31  3.75
Si  5.60  5.29  3.76
Si -7.41  4.27  0.75
Si  0.06 -2.24 -8.29
Si  7.44  4.27  0.75
Si -1.81  1.01 -8.37
Si  0.02 -8.59  0.75
Si  1.84 -7.55  3.75
Si  1.85  1.03 -8.37
Si  7.47  2.04  3.84
Si -1.82 -7.57  3.76
Si  7.38  4.19  3.01
Si -0.01  8.53 -3.00
Si -7.47  4.19  3.01
Si  7.42 -4.33 -3.00
Si -7.43 -4.33 -3.00
Si -0.04 -0.09 -9.12
Si -0.01 -0.05  9.13
Si -0.04 -8.67  3.01
Si -0.04 -6.40  6.75
Si  9.21  1.06  0.79
Si  7.34  2.14 -5.32
Si -5.57 -3.18  6.75
Si  0.01  8.55  3.74
Si -3.70 -2.18 -8.30
Si -7.41 -4.31  3.74
Si -0.09  6.42  6.81
Si  5.56  3.21  6.83
Si  7.44 -4.31  3.74
Si  1.86 -7.46 -5.37
Si  5.61  5.32 -5.31
Si -3.64 -8.62  0.79
Si  0.04  4.24 -8.38
Si  3.72 -8.60  0.69
Si  3.72 -2.09 -8.37
Si -1.81 -7.54 -5.31
Si  5.61  7.51  0.75
Si  5.61 -3.26  6.82
Si -5.55  3.20  6.91
Si -9.33  1.13  0.83
Si -5.57  5.40 -5.37
Si -7.51  2.14 -5.32
Si -5.66  7.55  0.69
Si -5.56  7.44  2.95
Si  5.51  5.33  6.03
Si  3.68 -8.54  2.96
Si -1.85 -3.25  9.03
Si -9.24 -0.98 -3.05
Si -1.86 -3.21 -9.05
Si  7.39  6.41 -0.07
Si  5.59  7.44  3.02
Si -3.73 -0.06 -9.05
Si -3.67  8.57 -3.00
Si -7.40 -2.13 -6.04
Si -5.50 -7.53 -3.03
Si  7.40 -6.42 -0.01
Si  9.29 -1.11 -2.94
Si  9.27 -3.19 -0.00
Si -5.61 -5.31 -6.04
Si -1.84 -9.63  0.00
Si -1.83  3.16 -9.11
Si  1.89 -9.63 -0.08
Si -9.27  3.23  0.00
Si  7.44 -2.13 -6.04
Si -1.82  3.30  9.07
Si -1.89  9.64 -0.03
Si -7.44 -6.42 -0.01
Si -7.45  6.41 -0.07
Si  5.56 -5.37 -6.08
Si -1.87  7.50 -6.08
Si -1.91 -7.54  6.03
Si  3.72  8.59 -3.02
Si  1.79 -7.54  6.07
Si -3.67 -0.01  9.13
Si -9.29  1.07  3.07
Si  1.81  7.55 -6.04
Si  3.72  0.01  9.11
Si  1.92 -3.25  9.09
Si -7.40  2.15  6.13
Si -5.64  5.33  6.07
Si  1.93 -3.29 -9.08
Si  1.85  9.68 -0.00
Si -9.31 -3.22 -0.03
Si  9.31  3.24 -0.08
Si  5.57 -7.54 -3.10
Si  3.68  0.04 -9.17
Si  9.35  0.99  3.04
Si  1.87  3.16 -9.18
Si  7.45  2.15  6.13
Si  1.86  3.17  9.19
Si -3.73 -8.64  3.08
Si -9.23 -3.11 -2.30
Si -3.70  6.42  6.74
Si -3.71  8.56  3.69
Si -1.83 -5.36 -8.28
Si  7.41 -4.29 -5.24
Si  1.87 -5.43 -8.23
Si  1.88  9.60 -2.26
Si -0.02  8.57 -5.24
Si  3.72 -6.45  6.74
Si -3.65  4.25 -8.35
Si -5.58  1.06 -8.30
Si -7.44 -4.29 -5.24
Si -1.81  1.17  9.83
Si  0.01 -2.23  9.81
Si  3.66  6.41  6.83
Si -9.26  3.23 -2.27
Si  3.77  8.53  3.78
Si -1.83 -9.64 -2.27
Si -7.41  6.44 -2.29
Si -9.26 -1.08  3.85
Si  1.85 -9.63 -2.33
Si  9.28  3.23 -2.33
Si  1.88  1.02  9.87
Si  7.44  6.44 -2.29
Si  5.57 -7.59  3.69
Si  9.30 -3.26 -2.26
Si -5.58 -7.52  3.83
Si -3.76 -6.45  6.83
Si  7.37 -0.01  6.95
Si -7.41 -6.51 -2.32
Si  9.29 -1.15  3.90
Si  7.44 -6.51 -2.32
Si  5.57  0.99 -8.44
Si  3.72  4.28 -8.44
Si -1.81  9.75 -2.30
Si -7.47 -0.01  6.95
Si -7.41 -4.26  6.00
Si  7.44 -4.26  6.00
Si  0.01  8.60  6.00
Si  0.02 -8.54 -6.12
Si -7.40  4.32 -6.12
Si  7.44  4.32 -6.12
Si  9.21 -5.32  0.76
Si -9.24 -1.06 -5.28
Si -3.70 -2.13  9.81
Si  9.29 -1.06 -5.22
Si -3.72  8.55 -5.28
Si -5.56 -7.51 -5.28
Si  3.69  8.62 -5.23
Si -0.05 10.72  0.79
Si  3.69 -2.11  9.91
Si -9.34 -5.36  0.74
Si  5.57 -7.51 -5.41
Si  0.03  4.31  9.91
Si  0.01 -6.40  9.03
Si  5.54  7.51 -5.95
Si -5.56 -3.19  9.03
Si -0.01  6.38  9.05
Si  9.26  1.05 -5.99
Si  0.00 -6.42 -9.04
Si 11.09  0.02  0.02
Si  3.66  8.59  6.01
Si  5.55 -7.55  5.96
Si -5.52 -9.64  0.01
Si -5.52  3.22 -9.09
Si -3.70  8.59  6.00
Si -9.27 -5.40  2.97
Si  5.55 -3.23  9.09
Si  3.67 -8.55 -6.11
Si -5.55 -3.21 -9.11
Si  5.61 -3.23 -9.07
Si -9.29  5.35 -3.03
Si -5.54  9.67  0.02
Si -5.59  7.58 -5.96
Si -11.15  0.10 -0.01
Si -3.70 -8.56 -6.12
Si -0.05  6.42 -9.12
Si -0.01 10.72  3.09
Si  9.25 -1.00  6.16
Si  5.65 -9.63  0.01
Si  9.29  5.39 -3.10
Si  5.54  9.71 -0.00
Si  5.54  3.26  9.14
Si  9.33 -5.36  3.04
Si  5.58  3.18 -9.15
Si -5.52  3.21  9.18
Si -0.00 -10.76 -3.07
Si -9.29  1.03 -6.17
Si -5.58 -7.53  6.14
Si -9.31 -1.07  6.17
Si -7.31 -8.56  0.76
Si -9.24  5.29  3.76
Si -7.36 -2.08 -8.34
Si  9.26  5.31  3.75
Si 11.11 -2.09  0.77
Si 11.10  0.03 -2.25
Si -11.11  0.06 -2.25
Si -11.12 -2.10  0.81
Si  1.85  7.48 -8.34
Si -5.54  9.65 -2.25
Si  5.57 -5.36 -8.33
Si -1.86  7.50 -8.33
Si -1.83 -5.36  9.86
Si  5.60 -9.64 -2.27
Si -5.55  1.07  9.88
Si  0.02 -0.01 -11.38
Si -5.57 -5.38 -8.34
Si  3.68  4.31  9.88
Si  5.53  9.70 -2.23
Si -5.52 -9.70 -2.28
Si  7.48 -2.08 -8.34
Si  5.53  1.12  9.90
Si  1.90 -5.42  9.85
Si -3.69  4.34  9.88
Si -3.70 10.76  0.81
Si  3.68 10.77  0.77
Si  7.54 -8.56  0.76
Si  0.05 -10.82  3.84
Si  3.76 -6.39  9.01
Si -3.67  6.47  9.01
Si -11.09 -2.14  3.02
Si  3.71 10.68  3.03
Si -3.66 -10.68 -3.12
Si  3.69  6.41  9.09
Si -3.71  6.40 -9.09
Si 11.12  2.13 -3.04
Si -11.09  2.19 -3.12
Si -3.66 -6.42 -9.10
Si -7.40 -8.59  2.98
Si  7.42  8.59 -2.95
Si -3.67 10.72  3.02
Si -7.42  8.59 -2.95
Si 11.13 -2.18  3.03
Si -3.73 -6.45  9.09
Si  3.70 -10.73 -3.04
Si  7.45 -8.59  2.98
Si  3.72 -6.46 -9.09
Si -7.40 -0.01 -9.14
Si  3.76  6.44 -9.10
Si  7.45 -0.01 -9.14
Si  7.42  0.01  9.17
Si -7.43  0.01  9.17
Si -11.07  4.25  0.79
Si -7.38  8.52  3.75
Si -1.90 -3.15 -11.30
Si  7.34 -6.44  6.81
Si -9.23  5.32 -5.31
Si -3.64 -0.04 -11.34
Si  3.72 -10.67  3.76
Si  9.28 -3.18  6.75
Si  7.38  6.46  6.75
Si -1.90 -11.73  0.83
Si  9.19  7.55  0.69
Si -1.81  9.61  6.82
Si  1.79 -3.22 -11.34
Si -9.23  7.51  0.75
Si  7.46  8.52  3.75
Si -9.23 -3.26  6.82
Si -11.12  2.10  3.83
Si  1.85  9.68  6.75
Si 11.14  4.27  0.69
Si  1.79 -11.80  0.79
Si 11.14  2.19  3.76
Si -9.28  3.21  6.83
Si -1.81  3.23 -11.38
Si -7.47  6.46  6.75
Si -0.08 -10.72 -5.32
Si -1.86 -9.66  6.83
Si -7.40  4.27 -8.39
Si  7.44  4.27 -8.39
Si  9.28  5.40 -5.37
Si -3.70 -10.76  3.83
Si  0.02 -8.60 -8.39
Si -7.51 -6.44  6.81
Si  9.29  3.20  6.91
Si  3.73 -0.01 -11.44
Si  1.77  3.27 -11.44
Si  1.88 -9.67  6.91
Si  9.21  5.33  6.07
Si  9.24 -5.31 -6.04
Si  1.86 11.75 -2.94
Si -9.26  7.44  3.02
Si  9.29  7.44  2.95
Si -11.09 -4.30 -3.00
Si 11.10  4.32  2.96
Si -1.90  1.06 12.10
Si -0.02 -2.14 12.11
Si 11.14 -4.27 -3.02
Si -1.84 -1.05 -12.12
Si  1.85  1.10 12.12
Si  0.02 10.73 -6.04
Si -9.33  5.33  6.03
Si -11.16  4.22  3.08
Si -1.86 -11.79  3.07
Si -9.29 -5.37 -6.08
Si  0.03 -10.71  6.13
Si -9.27 -7.54 -3.10
Si -0.03  2.13 -12.19
Si  9.35 -7.53 -3.03
Si -5.55  7.43 -8.23
Si  1.90 -1.05 -12.21
Si  1.93 -11.87  3.04
Si -1.82 11.88 -3.05
Si  7.37  8.57 -5.18
Si 11.09  2.13 -5.29
Si -5.57 -5.35  9.79
Si  1.85  7.51  9.79
Si  1.87 11.71  3.90
Si  9.27  1.06 -8.30
Si -11.12 -4.31  3.69
Si  5.59  7.50 -8.28
Si -7.41 -2.14  9.83
Si -7.47  8.57 -5.18
Si  7.44 -2.14  9.83
Si  3.67 -10.73 -5.29
Si -1.84 11.78  3.85
Si -1.84  7.51  9.86
Si  5.58 -5.36  9.86
Si  9.27 -7.52  3.83
Si -11.12  2.13 -5.38
Si -9.28 -7.59  3.69
Si -3.69 -10.73 -5.38
Si  3.78 -8.61 -8.35
Si -9.28  0.99 -8.44
Si 11.20 -4.33  3.78
Si -3.70 -8.59 -8.44
Si 11.04  6.38 -0.04
Si -3.69  2.17 -12.04
Si -0.06 -4.29 -12.07
Si -7.38  8.58  6.00
Si 11.11 -2.15 -6.04
Si  3.69 10.72 -6.04
Si -11.11  6.45  0.08
Si -11.13 -2.15 -6.07
Si 11.13  2.14  6.06
Si -7.38 -8.56 -6.13
Si  7.46  8.58  6.00
Si -0.07 12.86  0.06
Si -3.71 10.72 -6.07
Si  3.62  2.10 -12.16
Si -3.81 -2.21 12.09
Si -0.07 -12.87  0.06
Si 11.16 -6.41  0.08
Si  3.71 -10.73  6.06
Si -3.73 -10.73  6.09
Si -11.16  2.13  6.09
Si  7.47 -8.56 -6.13
Si -0.07  4.28 12.19
Si  3.73 -2.13 12.21
Si -11.23 -6.49 -0.04
Si 12.91  1.11  0.76
Si  5.56  9.63  6.71
Si 11.11 -4.24 -5.23
Si  5.49 -11.75  0.76
Si 11.12 -6.39 -2.22
Si  5.49 -3.17 -11.37
Si -0.04 -6.42 -11.33
Si  0.04 -12.84 -2.21
Si  0.03 -8.54  9.85
Si -11.12 -6.41 -2.31
Si  1.86 11.81 -5.22
