500
set: 698.00  0.00  0.00
Si -0.93 -0.93 -0.61
Si  1.06 -1.61  0.19
Si  1.80  1.25 -0.55
Si -1.93  0.32  1.63
Si  0.78 -0.33 -2.85
Si  0.01  1.44  2.68
Si  1.53 -0.33  2.60
Si -2.04  1.72 -1.63
Si -3.05 -1.62  0.20
Si -0.16 -3.80  0.30
Si  2.70 -2.68 -0.75
Si  2.17  1.52 -2.89
Si  0.89  3.85 -0.66
Si -1.75  3.64  0.41
Si -0.35  2.77 -3.01
Si -0.53 -2.09  3.53
Si -4.19  0.40  0.44
Si  4.07  1.34  0.70
Si  3.18 -1.32 -2.89
Si -2.50 -3.80 -0.41
Si  0.61  4.21  1.67
Si -1.15 -1.49 -4.22
Si -0.06 -3.49 -3.25
Si  3.34  1.20  3.22
Si -1.83 -3.82  2.53
Si -2.66 -3.31 -2.58
Si -2.48 -0.97  4.25
Si  4.79 -1.54 -0.43
Si  2.74 -1.91  3.86
Si -0.41  0.37  5.12
Si -3.38  1.22  3.79
Si -3.84 -2.67  2.62
Si -1.27  3.76  3.62
Si -3.51 -1.24 -3.89
Si  3.44  4.04  0.88
Si  2.71  3.59  2.99
Si -5.00 -0.16 -2.23
Si  2.46  0.28 -4.92
Si -0.41  0.37 -5.51
Si -4.67  3.00  0.47
Si  2.39 -4.54  2.26
Si  2.26 -4.87 -1.63
Si  2.04 -3.70 -3.69
Si  0.12 -4.25  3.75
Si  1.40  2.26  5.06
Si -0.52  5.08 -2.73
Si -1.37  2.75 -4.93
Si -3.05  4.62 -1.78
Si -5.84 -1.54 -0.43
Si  5.64 -0.16 -2.23
Si -3.74  3.69  3.06
Si  1.40  2.26 -5.57
Si  4.46  1.66 -3.95
Si -0.52 -5.55 -2.73
Si  2.46  0.28  5.71
Si -5.23  2.80 -1.93
Si  5.40  2.80 -1.93
Si  2.26  5.77 -1.63
Si  4.90 -0.48  4.12
Si  6.44  0.40  0.44
Si -3.67  5.26  0.91
Si -1.37  2.75  5.70
Si -3.67 -5.38  0.91
Si  0.61 -6.43  1.67
Si  2.25 -4.29  4.60
Si -1.15 -1.49  6.42
Si  5.97  3.00  0.47
Si -2.95 -3.16 -5.13
Si -3.71  3.27 -4.55
Si -6.56  1.34  0.70
Si  5.26 -3.61 -2.26
Si  4.24 -2.43 -4.77
Si -0.16  6.84  0.30
Si -5.37 -3.61 -2.26
Si  0.89 -6.79 -0.66
Si -2.48 -0.97 -6.39
Si  2.39  6.10  2.26
Si  4.67 -4.85  1.71
Si  0.34  4.87 -4.94
Si -3.05 -6.01 -1.78
Si -2.95 -3.16  5.51
Si  4.42  4.98 -2.33
Si -5.74 -0.48  4.12
Si  5.17  2.27  4.48
Si -1.75 -6.99  0.41
Si -2.50  6.83 -0.41
Si  0.12  6.38  3.75
Si -5.46  2.27  4.48
Si -0.53 -2.09 -7.11
Si  3.07  4.21  5.31
Si  3.07  4.21 -5.32
Si  3.44 -6.59  0.88
Si  0.34  4.87  5.69
Si -1.83  6.82  2.53
Si -6.18  1.66 -3.95
Si  4.42 -5.66 -2.33
Si  2.74 -1.91 -6.78
Si  0.34 -5.76 -4.94
Si  4.67  5.79  1.71
Si  4.24 -2.43  5.86
Si -3.51 -1.24  6.75
Si -3.38  1.22 -6.85
Si  2.25 -4.29 -6.03
Si  6.80 -2.67  2.62
Si  7.58 -1.62  0.20
Si  0.78 -0.33  7.78
Si -3.71  3.27  6.09
Si -0.06  7.15 -3.25
Si -1.27 -6.88  3.62
Si -5.97 -4.85  1.71
Si  5.20 -4.22  4.23
Si -1.27  3.76 -7.01
Si -7.29  1.20  3.22
Si -5.44 -4.22  4.23
Si  0.01  1.44 -7.96
Si  0.12 -4.25 -6.89
Si -7.45 -1.32 -2.89
Si  0.34 -5.76  5.69
Si  2.71 -7.04  2.99
Si -0.35  2.77  7.62
Si  2.04  6.94 -3.69
Si  2.04 -3.70  6.94
Si  2.25  6.35  4.60
Si  4.90 -0.48 -6.51
Si -0.06 -3.49  7.38
Si  2.17  1.52  7.74
Si  1.53 -0.33 -8.04
Si  4.46  1.66  6.68
Si -2.66  7.32 -2.58
Si  7.13 -1.24 -3.89
Si  3.34  1.20 -7.42
Si  7.26  1.22  3.79
Si -6.21  4.98 -2.33
Si -7.19  4.04  0.88
Si -6.40 -2.43 -4.77
Si  5.17  2.27 -6.16
Si  6.89  3.69  3.06
Si -7.93 -2.68 -0.75
Si -0.35 -7.87 -3.01
Si  2.70  7.95 -0.75
Si -4.93 -5.20 -4.45
Si -3.74 -6.95  3.06
Si  3.18 -1.32  7.75
Si -5.97  5.79  1.71
Si -5.46  2.27 -6.16
Si -4.93  5.44 -4.45
Si -5.74 -0.48 -6.51
Si -6.21 -5.66 -2.33
Si  6.97  5.26  0.91
Si  6.97 -5.38  0.91
Si  8.71  0.32  1.63
Si  2.71  3.59 -7.65
Si  3.07 -6.42  5.31
Si  3.07 -6.42 -5.32
Si  5.70 -5.20 -4.45
Si  6.92  3.27 -4.55
Si  8.60  1.72 -1.63
Si -8.84  1.25 -0.55
Si -4.67 -7.64  0.47
Si -7.89 -1.91  3.86
Si  8.14 -3.80 -0.41
Si -6.40 -2.43  5.86
Si  7.97 -3.31 -2.58
Si  2.25  6.35 -6.03
Si  5.70  5.44 -4.45
Si  7.59  4.62 -1.78
Si  5.26  7.03 -2.26
Si -8.47  1.52 -2.89
Si  1.06  9.02  0.19
Si -2.66 -3.31  8.05
Si -5.37  7.03 -2.26
Si -1.83 -3.82 -8.10
Si -7.93  3.59  2.99
Si -1.93  0.32 -9.00
Si -3.84  7.96  2.62
Si -3.74  3.69 -7.58
Si  8.15 -0.97  4.25
Si -6.18  1.66  6.68
Si -0.53  8.54  3.53
Si  5.20 -4.22 -6.41
Si  5.20  6.41  4.23
Si -3.84 -2.67 -8.02
Si -2.04 -8.91 -1.63
Si -2.04  1.72  9.01
Si  0.12  6.38 -6.89
Si -5.44 -4.22 -6.41
Si -1.37 -7.89 -4.93
Si -5.44  6.41  4.23
Si -0.52  5.08  7.90
Si -3.71 -7.36 -4.55
Si -4.93 -5.20  6.19
Si -9.10 -0.33  2.60
Si -3.05  9.01  0.20
Si -2.95  7.48 -5.13
Si -8.17  0.28 -4.92
Si  1.80 -9.38 -0.55
Si  0.01 -9.20  2.68
Si -4.93  5.44  6.19
Si  8.89  3.64  0.41
Si -5.23 -7.83 -1.93
Si -0.52 -5.55  7.90
Si -8.25 -4.54  2.26
Si  5.97 -7.64  0.47
Si  5.40 -7.83 -1.93
Si -9.57 -1.61  0.19
Si -2.95  7.48  5.51
Si  7.68 -3.16 -5.13
Si -0.93  9.70 -0.61
Si  9.70 -0.93 -0.61
Si -5.00 -0.16  8.41
Si  6.92  3.27  6.09
Si -7.19 -6.59  0.88
Si  2.17 -9.11 -2.89
Si  2.39 -4.54 -8.37
Si -8.37 -4.87 -1.63
Si -1.37 -7.89  5.70
Si  7.59 -6.01 -1.78
Si  1.40 -8.37  5.06
Si  5.70 -5.20  6.19
Si  7.13 -1.24  6.75
Si -1.27 -6.88 -7.01
Si  0.61  4.21 -8.96
Si  8.80 -3.82  2.53
Si  2.74  8.73  3.86
Si  7.68 -3.16  5.51
Si -8.17  0.28  5.71
Si  5.70  5.44  6.19
Si  2.04  6.94  6.94
Si  7.26  1.22 -6.85
Si -8.59 -3.70 -3.69
Si -0.93 -0.93 10.02
Si  5.64 -0.16  8.41
Si -1.15  9.14 -4.22
Si  1.40 -8.37 -5.57
Si -7.57  4.21  5.31
Si -7.57  4.21 -5.32
Si  4.07 -9.29  0.70
Si -3.71 -7.36  6.09
Si  6.89 -6.95  3.06
Si  3.18  9.32 -2.89
Si -9.86 -0.33 -2.85
Si -0.06  7.15  7.38
Si  4.79  9.09 -0.43
Si -8.37  5.77 -1.63
Si  1.80  1.25 10.08
Si  4.24  8.21 -4.77
Si  8.15 -0.97 -6.39
Si -3.05  4.62  8.85
Si  5.20  6.41 -6.41
Si -7.29  1.20 -7.42
Si -8.39 -4.29  4.60
Si  2.26 -4.87  9.01
Si  9.49 -1.49 -4.22
Si -9.74  3.85 -0.66
Si -8.25  6.10  2.26
Si  3.34 -9.43  3.22
Si  5.26 -3.61  8.38
Si -5.23  2.80  8.71
Si -5.44  6.41 -6.41
Si -7.89 -1.91 -6.78
Si -5.37 -3.61  8.38
Si  2.70 -2.68  9.89
Si  5.40  2.80  8.71
Si -1.93 -10.32  1.63
Si  1.06 -1.61 -10.45
Si  2.39  6.10 -8.37
Si  8.14  6.83 -0.41
Si  4.42  4.98  8.30
Si -3.38 -9.41  3.79
Si  9.37  3.76  3.62
Si  0.78 10.31 -2.85
Si  0.89  3.85  9.97
Si  1.53 10.30  2.60
Si  2.71 -7.04 -7.65
Si -1.83  6.82 -8.10
Si -3.51  9.40 -3.89
Si  4.46 -8.97 -3.95
Si -9.24  2.26  5.06
Si  6.80  7.96  2.62
Si  5.17 -8.36  4.48
Si -5.84  9.09 -0.43
Si  4.07  1.34 -9.93
Si -7.45 -1.32  7.75
Si -2.48  9.67  4.25
Si  9.26  2.75 -4.93
Si  6.80 -2.67 -8.02
Si  6.89  3.69 -7.58
Si 10.11 -2.09  3.53
Si  2.26  5.77  9.01
Si  4.24  8.21  5.86
Si -3.74 -6.95 -7.58
Si -5.46 -8.36  4.48
Si -0.35 -7.87  7.62
Si  4.42 -5.66  8.30
Si -3.05 -1.62 -10.43
Si  1.06 -1.61 10.82
Si -10.02  4.21  1.67
Si -1.75  3.64 -10.23
Si -0.16 -3.80 -10.33
Si -7.93 -7.04  2.99
Si -9.24  2.26 -5.57
Si -4.19  0.40 -10.19
Si  0.61 -6.43 -8.96
Si -10.62  1.44  2.68
Si 10.28  2.77 -3.01
Si -4.19 -10.24  0.44
Si 10.65  1.44  2.68
Si  6.92 -7.36 -4.55
Si  3.44  4.04 -9.75
Si -0.53  8.54 -7.11
Si -3.05 -6.01  8.85
Si  7.97  7.32 -2.58
Si 10.47 -3.80  0.30
Si  4.67 -4.85 -8.93
Si -8.39 -4.29 -6.03
Si -2.50 -3.80 10.22
Si -2.66  7.32  8.05
Si  9.26  2.75  5.70
Si -1.15  9.14  6.42
Si -1.93 10.95  1.63
Si -7.57 -6.42  5.31
Si -7.93  7.95 -0.75
Si -7.57 -6.42 -5.32
Si  8.89 -6.99  0.41
Si -0.93 -0.93 -11.25
Si  0.78 -10.96 -2.85
Si  1.53 -10.97  2.60
Si -3.05 -1.62 10.84
Si  4.79 -1.54 10.20
Si  2.74  8.73 -6.78
Si -6.56 -9.29  0.70
Si  1.80  1.25 -11.19
Si  8.80  6.82  2.53
Si 10.22  0.37  5.12
Si -6.40  8.21 -4.77
Si -10.80 -3.80  0.30
Si -0.41 -10.27  5.12
Si -8.39  6.35  4.60
Si -6.21  4.98  8.30
Si  9.49 -1.49  6.42
Si -8.47  1.52  7.74
Si -0.16 -3.80 10.94
Si -4.67  3.00 -10.17
Si -7.93  3.59 -7.65
Si -6.18 -8.97 -3.95
Si  5.17 -8.36 -6.16
Si 10.58 -3.49 -3.25
Si  4.67  5.79 -8.93
Si -11.57 -0.93 -0.61
Si -0.93 -11.57 -0.61
Si 10.22  0.37 -5.51
Si -8.59  6.94 -3.69
Si 10.12  5.08 -2.73
Si -8.59 -3.70  6.94
Si -3.67  5.26 -9.73
Si -0.41 -10.27 -5.51
Si -3.67 -5.38 -9.73
Si -10.69 -3.49 -3.25
Si  2.46 -10.35 -4.92
Si -10.99  2.77 -3.01
Si -5.46 -8.36 -6.16
Si -1.75  3.64 11.04
Si 11.41 -0.33 -2.85
Si  7.58  9.01  0.20
Si -5.97 -4.85 -8.93
Si  6.92 -7.36  6.09
Si  7.97 -3.31  8.05
Si 11.70 -1.61  0.19
Si -4.19 11.03  0.44
Si -6.21 -5.66  8.30
Si -5.00 10.48 -2.23
Si -4.19  0.40 11.08
Si -2.48  9.67 -6.39
Si -5.84 -1.54 10.20
Si 10.12 -5.55 -2.73
Si  7.68  7.48 -5.13
Si -11.16 -2.09  3.53
Si -9.74 -6.79 -0.66
Si -3.84  7.96 -8.02
Si -6.40  8.21  5.86
Si -10.52 -4.25  3.75
Si -2.50 -3.80 -11.05
Si  0.89  3.85 -11.30
Si -6.56  1.34 -9.93
Si  2.70 -2.68 -11.38
Si  4.90 10.15  4.12
Si -10.02 -6.43  1.67
Si  1.80 11.89 -0.55
Si  4.46 -8.97  6.68
Si  7.68  7.48  5.51
Si  6.44  0.40 -10.19
Si  2.46 -10.35  5.71
Si -3.51  9.40  6.75
Si  0.89 -6.79  9.97
Si -5.00 -10.79 -2.23
Si  5.64 10.48 -2.23
Si  6.44 -10.24  0.44
Si -3.38 -9.41 -6.85
Si  4.07  1.34 11.34
Si -8.39  6.35 -6.03
Si 11.25  4.21  1.67
Si  5.26  7.03  8.38
Si -9.10 -0.33 -8.04
Si -0.41 11.00  5.12
Si 10.75 -4.25  3.75
Si  2.17 -9.11  7.74
Si  4.79 -1.54 -11.07
Si  0.01 -9.20 -7.96
Si  5.97  3.00 -10.17
Si 11.53  3.85 -0.66
Si  9.37 -6.88  3.62
Si -11.04  0.37  5.12
Si -5.37  7.03  8.38
Si -5.97  5.79 -8.93
Si  2.46 10.92 -4.92
Si  3.44 -6.59 -9.75
Si -7.45  9.32 -2.89
Si  9.37  3.76 -7.01
Si  1.06 -12.24  0.19
Si -0.41 11.00 -5.51
Si -7.29 -9.43  3.22
Si -11.04  0.37 -5.51
Si  0.01 12.07  2.68
Si -5.74 10.15  4.12
Si  6.89 -6.95 -7.58
Si  5.64 -10.79 -2.23
Si -7.89  8.73  3.86
Si -0.16  6.84 -10.33
Si -4.67  3.00 11.10
Si -10.30  4.87 -4.94
Si -1.93  0.32 12.27
Si  7.13  9.40 -3.89
Si 12.17 -0.33  2.60
Si  3.34 -9.43 -7.42
Si  7.26 -9.41  3.79
Si  8.60 -8.91 -1.63
Si 12.43  1.25 -0.55
Si 10.47  6.84  0.30
Si -1.75 -6.99 -10.23
Si  3.18  9.32  7.75
Si  8.71  0.32 -9.00
Si 10.11 -2.09 -7.11
Si  7.59  4.62  8.85
Si -2.50  6.83 10.22
Si -2.04  1.72 -12.26
Si -11.15  5.08 -2.73
Si  8.80 -3.82 -8.10
Si -9.86 -0.33  7.78
Si  2.46 10.92  5.71
Si  8.60  1.72  9.01
Si -8.25 -4.54 -8.37
Si -2.48 -11.60  4.25
Si -11.78 -1.49 -4.22
Si -5.84 -1.54 -11.07
Si -2.04 12.36 -1.63
Si -3.05 -12.26  0.20
Si  4.07 11.98  0.70
Si -12.56  0.32  1.63
Si  3.44  4.04 11.52
Si  2.17 12.16 -2.89
Si  3.18 -11.95 -2.89
Si  3.34 11.84  3.22
Si -10.30  4.87  5.69
Si -11.15 -5.55 -2.73
Si -8.47 -9.11 -2.89
Si -7.19  4.04 -9.75
Si -6.18 -8.97  6.68
Si  6.44 11.03  0.44
Si -10.80  6.84  0.30
Si -10.30 -5.76 -4.94
Si  6.44  0.40 11.08
Si -5.23 -7.83  8.71
Si  4.90 -11.12  4.12
Si -2.04 -8.91  9.01
Si -10.52  6.38  3.75
Si -12.67  1.72 -1.63
Si -1.15 -12.13 -4.22
Si  5.40 -7.83  8.71
Si -3.38 11.86  3.79
Si -8.84 -9.38 -0.55
Si -0.16  6.84 10.94
Si -12.38  3.64  0.41
Si  0.78 10.31  7.78
Si  5.97  3.00 11.10
Si -7.93 -2.68  9.89
Si  2.70  7.95  9.89
Si -3.51 -11.87 -3.89
Si 10.97  4.87 -4.94
Si -11.90  3.76  3.62
Si  7.58 -1.62 -10.43
Si  4.90 10.15 -6.51
Si  0.61  4.21 12.31
Si -8.59  6.94  6.94
Si 10.75  6.38  3.75
Si 11.25 -6.43  1.67
Si  6.97  5.26 -9.73
Si -7.93 -7.04 -7.65
Si 10.28  2.77  7.62
Si  4.79 -12.18 -0.43
Si -10.30 -5.76  5.69
