500
set: 1588.00  0.00  0.00
Si -0.40 -0.11  0.25
Si  1.42  0.45 -1.19
Si  1.24  1.00  2.02
Si  0.26 -2.15  1.45
Si -1.92  1.90 -0.29
Si -2.16 -1.35 -0.95
Si -1.39  1.22  2.16
Si  0.34 -0.70 -3.11
Si  3.07 -1.35 -0.95
Si -2.37 -2.41  1.10
Si  1.47  3.26  1.10
Si  1.34 -1.00  3.37
Si  1.32  2.45 -2.54
Si -0.52 -3.77 -0.29
Si -1.31  2.67 -2.40
Si  3.32  1.90 -0.29
Si  0.09 -3.00 -2.40
Si  2.86 -2.41  1.10
Si -1.14  3.52  1.45
Si -3.82  0.45 -1.19
Si -2.29 -0.96 -3.46
Si -0.32  1.34 -4.31
Si  3.85  1.22  2.16
Si -3.99  1.00  2.02
Si  2.94 -0.96 -3.46
Si  1.68  4.31 -0.95
Si -2.00  0.46  4.27
Si -2.51 -3.22 -2.54
Si  4.84 -0.11  0.25
Si  1.60  2.87  3.61
Si  2.72 -3.22 -2.54
Si  0.01 -4.45  2.16
Si -0.48 -1.55  4.81
Si -2.24 -2.80  3.61
Si -3.77  3.26  1.10
Si -3.90 -1.00  3.37
Si -3.91  2.45 -2.54
Si  3.93  2.67 -2.40
Si  3.24  0.46  4.27
Si -0.44 -2.32 -4.85
Si  2.99 -2.80  3.61
Si  4.09  3.52  1.45
Si -4.98 -2.15  1.45
Si -5.63 -0.11  0.25
Si -3.56  4.31 -0.95
Si -2.59 -4.67  2.02
Si  2.64 -4.67  2.02
Si -0.06  4.67  3.37
Si -4.90 -0.70 -3.11
Si -1.79  5.56  0.25
Si  1.00 -5.77  0.25
Si -3.64  2.87  3.61
Si -2.42 -5.22 -1.19
Si -2.08  0.09 -5.51
Si -1.06  4.97 -3.11
Si  1.55  4.70 -3.46
Si  4.71 -3.77 -0.29
Si  2.81 -5.22 -1.19
Si  5.49 -2.15  1.45
Si  1.39  1.81  5.67
Si -1.84  3.35 -4.85
Si  1.08 -4.33 -4.31
Si  0.02  6.11 -1.19
Si  1.50  1.90 -5.75
Si  3.15  0.09 -5.51
Si  5.57 -0.70 -3.11
Si -5.14 -3.00 -2.40
Si -1.22  2.07  6.01
Si  3.44  5.56  0.25
Si  5.32 -3.00 -2.40
Si -1.87  4.11  4.81
Si  4.92  1.34 -4.31
Si  1.16 -0.45  6.58
Si -0.60 -5.21  4.27
Si  6.65  0.45 -1.19
Si  3.40  3.35 -4.85
Si  6.48  1.00  2.02
Si -5.75 -3.77 -0.29
Si -1.47 -0.23  6.72
Si -3.69  4.70 -3.46
Si  4.76 -1.55  4.81
Si -0.15  6.67  2.02
Si  0.18 -3.60  6.01
Si -6.62  1.22  2.16
Si -3.85  1.81  5.67
Si -3.74  1.90 -5.75
Si -0.76 -7.02 -0.95
Si  0.17 -1.55 -6.96
Si -5.55  1.34 -4.31
Si -4.23 -5.77  0.25
Si  3.36  4.11  4.81
Si -5.22 -4.45  2.16
Si  4.17  4.97 -3.11
Si  4.79 -2.32 -4.85
Si  5.24 -4.45  2.16
Si -2.34 -3.77 -5.75
Si -2.45 -3.86  5.67
Si  1.73 -6.37 -3.11
Si -4.15 -4.33 -4.31
Si  2.78 -3.86  5.67
Si -7.15  1.90 -0.29
Si -6.37  3.52  1.45
Si  6.56  2.45 -2.54
Si  6.57 -1.00  3.37
Si  2.89 -3.77 -5.75
Si -6.54  2.67 -2.40
Si  4.01  2.07  6.01
Si -0.89 -6.63 -3.46
Si  6.70  3.26  1.10
Si -7.39 -1.35 -0.95
Si  2.45  6.89  2.16
Si -5.71 -1.55  4.81
Si  1.84  6.12  4.27
Si  3.77 -0.23  6.72
Si  0.41  0.75 -7.67
Si -2.43 -1.77 -7.11
Si -2.78  6.89  2.16
Si  5.17  4.67  3.37
Si -4.07 -0.45  6.58
Si -5.67 -2.32 -4.85
Si  1.92  7.57 -0.29
Si -5.29  4.67  3.37
Si  2.80 -1.77 -7.11
Si -0.68 -5.57 -5.51
Si -2.50 -6.67  3.37
Si -3.50 -6.37 -3.11
Si  2.73 -6.67  3.37
Si -7.60 -2.41  1.10
Si  1.65 -7.82  1.45
Si -5.21  6.11 -1.19
Si  5.25  6.11 -1.19
Si  1.76  5.76 -5.51
Si  4.63 -5.21  4.27
Si -1.23  4.12 -6.96
Si -3.39  6.12  4.27
Si  6.91  4.31 -0.95
Si -0.97 -8.08  1.10
Si  1.40  3.90 -7.11
Si  6.83  2.87  3.61
Si -3.31  7.57 -0.29
Si -2.21  0.48 -8.02
Si -7.52 -0.96 -3.46
Si  4.47 -7.02 -0.95
Si  1.26 -2.45  7.93
Si -0.23  5.22  6.58
Si -1.71  7.01 -4.31
Si -7.23  0.46  4.27
Si  1.52  1.42  8.17
Si  8.30 -1.35 -0.95
Si  6.23 -5.77  0.25
Si -0.07  8.12 -2.54
Si  8.10 -2.41  1.10
Si -0.14  3.22  7.93
Si  3.02  0.48 -8.02
Si -6.29  4.97 -3.11
Si  5.08  6.67  2.02
Si -5.06 -3.60  6.01
Si  4.34 -6.63 -3.46
Si -3.48  5.76 -5.51
Si -3.58 -7.82  1.45
Si  0.92 -7.22  4.81
Si -5.06 -1.55 -6.96
Si -7.47 -2.80  3.61
Si  8.55  1.90 -0.29
Si -7.75 -3.22 -2.54
Si  6.31 -4.33 -4.31
Si -5.38  6.67  2.02
Si  5.41 -3.60  6.01
Si  6.62  1.81  5.67
Si -5.83 -5.21  4.27
Si  8.18 -0.96 -3.46
Si -0.07 -5.89  6.72
Si  5.40 -1.55 -6.96
Si  6.78  4.70 -3.46
Si  3.52  7.01 -4.31
Si  7.95 -3.22 -2.54
Si -3.83  3.90 -7.11
Si -7.03  5.56  0.25
Si  2.37  5.44  6.72
Si  0.07  8.92  1.10
Si  4.00  4.12 -6.96
Si  2.53  8.34 -2.40
Si  6.73  1.90 -5.75
Si -6.45  2.07  6.01
Si  4.55 -5.57 -5.51
Si -2.70  8.34 -2.40
Si -4.82  0.75 -7.67
Si -3.72  1.42  8.17
Si -2.86  5.44  6.72
Si  1.49 -8.67 -2.40
Si -2.08 -0.99  8.83
Si -9.05  0.45 -1.19
Si -7.31  0.09 -5.51
Si  6.40 -0.45  6.58
Si  4.26 -8.08  1.10
Si -7.07  3.35 -4.85
Si -3.98 -2.45  7.93
Si -0.84 -8.47  3.61
Si  0.20  8.53  3.61
Si -6.00 -7.02 -0.95
Si  1.81 -4.92 -7.67
Si -0.24  2.79 -8.87
Si -1.12 -8.89 -2.54
Si -7.83 -4.67  2.02
Si  2.56 -6.11  6.58
Si -7.65 -5.22 -1.19
Si -2.67 -6.11  6.58
Si  7.87 -4.67  2.02
Si -0.01  7.48  5.67
Si  0.96 -7.99 -4.85
Si  1.16 -2.88 -8.87
Si  8.22 -2.80  3.61
Si  9.08  1.22  2.16
Si  3.16 -0.99  8.83
Si -0.36 -0.87 -9.41
Si  0.88 -9.43 -0.29
Si -9.22  1.00  2.02
Si -6.70 -0.23  6.72
Si  8.47  0.46  4.27
Si -2.32 -4.25  8.17
Si  0.10  7.56 -5.75
Si -7.11  4.11  4.81
Si  5.65  0.75 -7.67
Si -0.81 -5.18 -8.02
Si -9.00  3.26  1.10
Si -2.54  9.19  1.45
Si  2.91 -4.25  8.17
Si  8.04 -5.22 -1.19
Si -6.12 -6.63 -3.46
Si  2.70  9.19  1.45
Si -4.31 -7.22  4.81
Si -3.42 -4.92 -7.67
Si -3.75 -8.67 -2.40
Si  5.00  5.22  6.58
Si -9.13 -1.00  3.37
Si -9.14  2.45 -2.54
Si -5.92 -5.57 -5.51
Si -8.79  4.31 -0.95
Si  9.16  2.67 -2.40
Si -0.56 -3.00  9.37
Si  6.96 -6.37 -3.11
Si -1.95  2.67  9.37
Si  5.16  8.12 -2.54
Si  5.09  3.22  7.93
Si -8.87  2.87  3.61
Si -5.46  5.22  6.58
Si -5.30  8.12 -2.54
Si  0.28  9.98 -0.95
Si  8.38  0.09 -5.51
Si -0.98  6.41 -7.67
Si  9.32  3.52  1.45
Si 10.07 -0.11  0.25
Si -5.37  3.22  7.93
Si  4.12 -8.89 -2.54
Si  2.62  7.74  6.01
Si -2.62  7.74  6.01
Si  1.76  4.67  8.83
Si  1.56 -7.22 -6.96
Si -4.07 -2.88 -8.87
Si  4.39 -8.47  3.61
Si -7.57 -3.77 -5.75
Si  1.63  6.15 -8.02
Si -6.21 -8.08  1.10
Si -4.28 -7.99 -4.85
Si  3.28  2.67  9.37
Si  7.07  6.12  4.27
Si -7.68 -3.86  5.67
Si  8.67  5.56  0.25
Si  1.31  0.36 10.22
Si  5.16 -5.89  6.72
Si -1.04 -7.44 -7.11
Si -6.46  4.12 -6.96
Si -5.16  8.92  1.10
Si -2.00  1.54 -10.07
Si -5.30 -5.89  6.72
Si -4.36 -9.43 -0.29
Si  7.15  7.57 -0.29
Si  2.00  9.02 -4.85
Si  1.41 -10.11  2.16
Si  5.30  8.92  1.10
Si  8.63  3.35 -4.85
Si  6.64  3.90 -7.11
Si  6.88 -7.82  1.45
Si  4.42 -5.18 -8.02
Si -10.21 -2.15  1.45
Si  6.49 -2.45  7.93
Si  7.68  6.89  2.16
Si -5.03  8.53  3.61
Si  8.02 -3.86  5.67
Si  5.00  2.79 -8.87
Si -3.47  4.67  8.83
Si -1.20 -10.33  2.02
Si  6.99  5.76 -5.51
Si -7.67 -1.77 -7.11
Si -10.13 -0.70 -3.11
Si  4.87 -0.87 -9.41
Si  6.15 -7.22  4.81
Si  9.95 -3.77 -0.29
Si  8.12 -3.77 -5.75
Si -8.92  4.70 -3.46
Si -1.30  0.62 10.57
Si  8.59  4.11  4.81
Si -3.67 -7.22 -6.96
Si  3.23  1.54 -10.07
Si  6.75  1.42  8.17
Si -1.76  4.80 -9.41
Si -3.60  6.15 -8.02
Si -3.23  9.02 -4.85
Si  5.22  7.48  5.67
Si  5.43  8.53  3.61
Si -5.24  7.48  5.67
Si -7.73 -6.67  3.37
Si -6.95  7.01 -4.31
Si -5.47  2.79 -8.87
Si -8.02  6.89  2.16
Si -5.13  7.56 -5.75
Si -2.26 -2.33 -10.31
Si  0.12  7.08  8.17
Si -8.97  1.90 -5.75
Si -9.08  1.81  5.67
Si  4.25  6.41 -7.67
Si -10.86 -0.11  0.25
Si  8.03 -1.77 -7.11
Si  5.33  7.56 -5.75
Si  4.68 -3.00  9.37
Si -0.60 -4.13 -10.07
Si  7.96 -6.67  3.37
Si  0.15 10.37 -3.46
Si -7.44  0.48 -8.02
Si  1.57  3.34 -10.31
Si -3.92  0.36 10.22
Si -1.46 10.33  3.37
Si  2.97 -2.33 -10.31
Si -5.59 -0.87 -9.41
Si -1.02 -10.89 -1.19
Si -3.83 -10.11  2.16
Si 10.72 -2.15  1.45
Si -6.08 -8.47  3.61
Si -10.38 -3.00 -2.40
Si  1.96  9.78  4.81
Si  9.40  4.97 -3.11
Si -0.68 -6.66  8.83
Si -9.47 -5.77  0.25
Si -0.94 -9.44 -5.75
Si 10.15  1.34 -4.31
Si  4.20 -7.44 -7.11
Si  3.48  4.80 -9.41
Si -1.05 -9.53  5.67
Si  1.57 -9.26  6.01
Si  2.48 -9.99 -4.31
Si -4.95  9.98 -0.95
Si  9.99 -1.55  4.81
Si -9.39 -4.33 -4.31
Si  6.19 -7.99 -4.85
Si -6.35 -8.89 -2.54
Si  9.24  2.07  6.01
Si  6.72 -8.67 -2.40
Si -2.76 -9.99 -4.31
Si 10.55 -3.00 -2.40
Si  9.00 -0.23  6.72
Si  6.11 -9.43 -0.29
Si -8.73 -6.37 -3.11
Si 10.80 -0.70 -3.11
Si  4.04 -10.33  2.02
Si  3.93  0.62 10.57
Si -6.05 -5.18 -8.02
Si  6.39 -2.88 -8.87
Si  1.08 -1.89 11.13
Si -2.46 10.63 -3.11
Si 10.03 -2.32 -4.85
Si -3.27  9.78  4.81
Si -9.30 -0.45  6.58
Si -8.62  6.12  4.27
Si  2.04 11.23  0.25
Si -5.79 -3.00  9.37
Si -8.54  7.57 -0.29
Si  2.78 10.63 -3.11
Si -3.66  3.34 -10.31
Si  5.51  9.98 -0.95
Si  1.04 -6.54 -9.41
Si -7.31 -0.99  8.83
Si  3.78 10.33  3.37
Si -1.55 -1.67 11.28
Si  7.60  5.44  6.72
Si  7.04 -4.92 -7.67
Si  8.26  0.48 -8.02
Si  0.25 -0.10 -11.52
Si -10.46 -4.45  2.16
Si 10.47 -4.45  2.16
Si -10.98 -3.77 -0.29
Si -3.66 -9.26  6.01
Si -2.58 -8.12  7.93
Si  7.76  8.34 -2.40
Si  2.65 -8.12  7.93
Si -3.19 11.23  0.25
Si -10.78  1.34 -4.31
Si  2.40 -11.44  0.25
Si  0.10 -5.04 10.57
Si  0.80 -10.88  4.27
Si  4.21 -10.89 -1.19
Si -7.94  8.34 -2.40
Si -0.31  3.77 11.13
Si -6.21  6.41 -7.67
Si -2.84 -11.44  0.25
Si -2.53 -5.31 10.22
Si -8.71  5.76 -5.51
Si  4.63 -4.13 -10.07
Si  2.70 -5.31 10.22
Si  4.18 -9.53  5.67
Si -8.10  5.44  6.72
Si  4.29 -9.44 -5.75
Si -8.81 -7.82  1.45
Si -0.09  6.03 10.22
Si  7.79 -6.11  6.58
Si 10.40  4.67  3.37
Si -2.35 -0.32 -11.66
Si -7.55 -4.25  8.17
Si  0.01  9.56 -7.11
Si -1.38 11.78 -1.19
Si 11.71  1.00  2.02
Si  9.87 -5.21  4.27
Si 11.88  0.45 -1.19
Si  4.55 -6.66  8.83
Si -7.91 -6.11  6.58
Si -5.11  7.08  8.17
Si  3.69 -1.67 11.28
Si -10.53  4.67  3.37
Si -1.54  8.89  7.93
Si  8.75  7.01 -4.31
Si  9.70 -7.02 -0.95
Si  2.88 -0.32 -11.66
Si -4.15 -1.89 11.13
Si -6.27 -7.44 -7.11
Si -10.94 -1.55  4.81
Si -5.08 10.37 -3.46
Si  5.35  7.08  8.17
Si -7.18  2.67  9.37
Si -11.85  1.22  2.16
Si  6.80 -7.22 -6.96
Si -7.77  9.19  1.45
Si  6.54  0.36 10.22
Si  9.57 -6.63 -3.46
Si -9.06  3.90 -7.11
Si -10.90 -2.32 -4.85
Si -10.45  6.11 -1.19
Si  2.29  3.99 11.28
Si  5.38 10.37 -3.46
Si 10.48  6.11 -1.19
Si  6.99  4.67  8.83
Si -8.95  1.42  8.17
Si -4.20 -6.54 -9.41
Si  6.86  6.15 -8.02
Si -11.61  3.52  1.45
Si  7.93  9.19  1.45
Si  8.39 -0.99  8.83
Si  9.24  4.12 -6.96
Si  2.61  9.78 -6.96
Si  6.64 -10.11  2.16
Si -2.62  9.78 -6.96
Si  8.14 -4.25  8.17
Si 11.79  2.45 -2.54
Si -11.77  2.67 -2.40
Si 11.80 -1.00  3.37
Si -2.94  3.99 11.28
Si -6.43 -10.33  2.02
Si -5.84 -4.13 -10.07
Si -1.63  8.46 -8.87
Si -9.21 -2.45  7.93
Si 11.93  3.26  1.10
Si  0.49  2.19 -12.23
Si -6.53  0.62 10.57
Si 10.31  6.67  2.02
Si -10.29 -3.60  6.01
Si  3.86 11.78 -1.19
Si  3.70  8.89  7.93
Si -7.23  1.54 -10.07
Si -4.43 -10.88  4.27
Si  9.49 -8.08  1.10
Si  1.84  7.21 -10.07
Si -10.30 -1.55 -6.96
Si -12.38  1.90 -0.29
Si  9.78 -5.57 -5.51
Si  7.23  9.02 -4.85
Si  0.71 -11.24 -5.51
Si -5.91 -6.66  8.83
Si  0.45 11.79  4.27
Si -4.98 -0.10 -11.52
Si  7.85  7.74  6.01
Si -7.85  7.74  6.01
Si  2.54  6.29 10.57
Si -8.65 -4.92 -7.67
Si  2.56 -8.54 -8.87
Si -1.55 12.34  2.02
Si -2.70  6.29 10.57
Si -2.68 -8.54 -8.87
Si -2.10 -12.04 -3.11
Si -6.26 -10.89 -1.19
Si -0.22  1.77 12.49
Si -6.18 -9.44 -5.75
Si -10.05  0.75 -7.67
