500
set: 1103.00  0.00  0.00
Si  0.44 -1.15  0.79
Si -0.40  1.16 -0.82
Si -1.31 -1.16 -0.80
Si  1.36  1.16  0.75
Si  0.86 -0.07 -2.37
Si -0.88  0.06  2.37
Si  2.16 -1.11 -0.74
Si -2.11  1.22  0.79
Si -2.97 -1.10  0.90
Si  0.11  2.28  2.40
Si -0.08 -2.31 -2.38
Si  3.04  1.19 -0.83
Si  2.49 -0.04  2.44
Si -0.41 -3.44  0.75
Si  0.46  3.44 -0.80
Si -2.62 -0.04 -2.48
Si  1.68  2.29 -2.38
Si -1.65 -2.32  2.40
Si  1.63 -2.35  2.39
Si  1.28 -3.41 -0.83
Si -1.72  2.27 -2.43
Si -1.21  3.50  0.90
Si -0.77 -0.02 -4.04
Si -3.85  1.19 -0.83
Si  0.80 -0.01  4.05
Si -2.17 -3.44 -0.82
Si  2.21  3.45  0.79
Si  3.92 -1.10  0.90
Si  3.02 -3.39  0.79
Si -2.97  3.50 -0.74
Si  0.00  2.36 -4.06
Si -0.02 -2.38  4.07
Si  3.39  2.25  2.39
Si  2.51 -0.05 -4.04
Si -2.60 -0.04  4.00
Si  3.41 -2.34 -2.43
Si -3.50  2.25  2.39
Si -3.48 -2.34 -2.43
Si -1.74  2.26  3.96
Si  1.61 -2.34 -3.99
Si -4.73 -1.11 -0.74
Si  4.27 -0.04 -2.48
Si  1.75  2.23  4.07
Si -1.76 -2.24 -4.06
Si  4.78  1.22  0.79
Si -4.40 -0.04  2.44
Si -3.87 -3.39  0.79
Si -0.86  4.57 -2.48
Si  0.73 -4.64  2.44
Si  0.89  4.66  2.37
Si  3.92  3.50 -0.74
Si -0.90 -4.68 -2.37
Si  3.37  2.26 -3.99
Si -5.53  1.16  0.75
Si  3.39 -2.34  3.96
Si  2.62  4.53 -2.37
Si  5.58 -1.16 -0.80
Si -2.64 -4.54  2.37
Si  0.40 -5.71 -0.74
Si -0.42  1.14  5.64
Si -3.50 -2.34  3.96
Si -3.52  2.26 -3.99
Si -2.64  4.56  2.44
Si  0.47 -1.14 -5.68
Si  2.50 -4.64 -2.48
Si -4.68  3.45  0.79
Si  4.29 -0.04  4.00
Si -1.28 -1.14  5.62
Si -0.35  5.82  0.79
Si  4.72 -3.44 -0.82
Si  1.32  1.15 -5.65
Si -1.32 -5.75  0.79
Si -4.38 -0.05 -4.04
Si  1.36  5.76 -0.82
Si -2.09  1.20 -5.53
Si  2.16 -1.11  5.61
Si -0.83  4.57  4.00
Si  5.17  2.27 -2.43
Si  2.16 -5.70  0.90
Si -5.21  2.29 -2.38
Si  0.99  4.58 -4.04
Si  0.75 -4.65 -4.04
Si  5.24 -2.32  2.40
Si -2.08  5.79 -0.83
Si -0.96 -4.62  4.05
Si -5.26 -2.35  2.39
Si  6.01  0.06  2.37
Si -6.03 -0.07 -2.37
Si -2.99 -1.08 -5.64
Si  3.04  1.19  5.69
Si -3.07 -5.76 -0.80
Si -6.45 -1.15  0.79
Si  3.12  5.76  0.75
Si  0.48  3.46  5.62
Si -5.61 -3.41 -0.83
Si -2.62  4.55 -4.04
Si  2.53 -4.64  4.00
Si -0.44 -3.45 -5.65
Si  2.56  4.59  4.05
Si -2.54 -4.62 -4.04
Si  6.49  1.16 -0.82
Si -4.26  4.53 -2.37
Si  4.25 -4.54  2.37
Si  4.25  4.56  2.44
Si  5.68  3.50  0.90
Si  1.28 -3.41  5.69
Si -1.23  3.52 -5.64
Si -4.39 -4.64 -2.48
Si  5.15  2.26  3.96
Si  5.13 -2.24 -4.06
Si -5.14  2.23  4.07
Si -3.77  5.76  0.75
Si  3.90 -1.08 -5.64
Si  3.82 -5.76 -0.80
Si -2.19 -3.46  5.64
Si -3.85  1.19  5.69
Si  2.24  3.46 -5.68
Si -5.28 -2.34 -3.99
Si  3.04 -3.40 -5.53
Si -2.96  3.49  5.61
Si  0.05  6.87 -2.43
Si  0.48 -1.14  7.19
Si -6.09 -0.01  4.05
Si  6.12 -0.02 -4.04
Si -0.43  1.15 -7.23
Si -6.43  3.44 -0.80
Si -0.13 -6.95  2.39
Si  6.48 -3.44  0.75
Si -4.73 -1.11  5.61
Si  4.80  1.20 -5.53
Si -7.29  1.16 -0.82
Si  1.33  1.15  7.22
Si  4.27  4.55 -4.04
Si -1.28 -1.14 -7.25
Si -1.74  6.85  2.39
Si -4.73 -5.70  0.90
Si  7.33 -1.15  0.79
Si -4.33  4.59  4.05
Si -4.36 -4.64  4.00
Si  4.35 -4.62 -4.04
Si  1.87  6.88  2.40
Si  1.65 -6.94 -2.43
Si -1.84 -6.92 -2.38
Si -6.78  2.28  2.40
Si -3.85 -3.40 -5.53
Si  4.80  5.79 -0.83
Si  6.81 -2.31 -2.38
Si  2.16 -1.11 -7.26
Si  3.92  3.49  5.61
Si -6.97 -2.31 -2.38
Si -2.09  1.20  7.34
Si  7.00  2.28  2.40
Si  3.04  1.20 -7.18
Si -2.99 -1.08  7.23
Si  0.02  6.87  3.96
Si  6.03  4.57 -2.48
Si  5.99 -4.68 -2.37
Si -6.00  4.66  2.37
Si -0.16 -6.94 -3.99
Si -5.57  1.15 -5.65
Si  0.40 -5.71  5.61
Si -0.44 -3.45  7.22
Si  5.61 -1.14  5.62
Si -0.33  5.80 -5.53
Si -5.53  5.76 -0.82
Si  5.57 -5.75  0.79
Si  1.27 -3.41 -7.18
Si  0.48  3.46 -7.25
Si  3.44  6.89 -2.38
Si -3.45  6.89 -2.38
Si -0.48 -8.01 -0.83
Si -3.42 -6.92  2.40
Si -6.16 -4.64  2.44
Si -7.30 -3.44  0.75
Si  7.75 -0.07 -2.37
Si  3.47 -6.92  2.40
Si  4.70 -3.46  5.64
Si -4.65  3.46 -5.68
Si -7.77  0.06  2.37
Si  1.25 -7.99  0.79
Si -1.23  3.52  7.23
Si -1.76  6.87 -3.99
Si  1.62 -6.94  3.96
Si  7.35  3.44 -0.80
Si  1.34  5.75  5.64
Si  0.56  8.10  0.90
Si -1.29 -5.74 -5.68
Si -1.21  8.10 -0.74
Si -3.85  1.20 -7.18
Si  1.76  6.96 -4.06
Si -1.78 -6.98  4.07
Si  3.90 -1.08  7.23
Si  2.24  3.46  7.19
Si  2.13 -5.69 -5.64
Si -2.19 -3.46 -7.23
Si -8.20 -1.16 -0.80
Si  6.87 -2.38  4.07
Si -6.89  2.36 -4.06
Si  6.89  2.36 -4.06
Si -6.91 -2.38  4.07
Si  8.25  1.16  0.75
Si -2.17 -8.04  0.75
Si  2.22  8.05 -0.80
Si -2.09  5.79  5.69
Si -5.90  4.58 -4.04
Si  5.93 -4.62  4.05
Si  6.06  4.57  4.00
Si -2.97  3.49 -7.26
Si -3.04 -5.75  5.62
Si -2.92  8.05  0.79
Si  2.96 -8.04 -0.82
Si  3.09  5.75 -5.65
Si -3.38  6.83  4.07
Si  3.04 -3.40  7.34
Si  3.37 -6.85 -4.06
Si -6.42 -1.14 -5.68
Si  6.47  1.14  5.64
Si -7.66 -0.02 -4.04
Si -6.50 -5.71 -0.74
Si  3.51  6.83  4.07
Si -5.61 -3.41  5.69
Si  7.69 -0.01  4.05
Si -6.14 -4.65 -4.04
Si -3.52 -6.85 -4.06
Si  5.66  3.52 -5.64
Si -4.73 -1.11 -7.26
Si  6.54  5.82  0.79
Si -5.02  6.88  2.40
Si  0.80 -0.01 -8.81
Si  4.80  1.20  7.34
Si -0.77 -0.02  8.83
Si -8.10  3.50  0.90
Si  5.04 -6.92 -2.38
Si  8.17 -3.41 -0.83
Si  5.15  6.85  2.39
Si  3.85 -5.75  5.62
Si -3.80  5.75 -5.65
Si -3.85 -3.40  7.34
Si  3.92  3.49 -7.26
Si -3.93 -8.04 -0.82
Si  3.97  8.05  0.79
Si -5.24 -6.94 -2.43
Si -0.02 -2.38 -8.80
Si -9.00  1.22  0.79
Si  0.01  2.36  8.81
Si  9.05 -1.11 -0.74
Si  8.52 -2.35  2.39
Si -8.54 -2.32  2.40
Si  2.51 -0.05  8.83
Si  8.57  2.29 -2.38
Si -5.56  1.15  7.22
Si -6.41  3.46  5.62
Si -8.61  2.27 -2.43
Si -4.65  3.46  7.19
Si  5.61 -1.14 -7.25
Si -2.60 -0.04 -8.87
Si  1.74  2.23 -8.80
Si  6.45 -3.45 -5.65
Si  7.62 -4.64  2.44
Si  0.40 -5.71 -7.26
Si -1.76 -2.25  8.81
Si  7.29 -5.71 -0.74
Si -1.29 -5.74  7.19
Si  4.70 -3.46 -7.23
Si -7.31  1.14  5.64
Si -4.75 -5.69 -5.64
Si  1.61 -2.34  8.87
Si -7.24  5.82  0.79
Si  1.34  5.75 -7.23
Si -7.75  4.57 -2.48
Si -4.67  8.05 -0.80
Si  4.72 -8.04  0.75
Si -1.74  2.27 -8.91
Si -0.33  5.80  7.34
Si  7.78  4.66  2.37
Si  7.36 -1.14 -5.68
Si -7.79 -4.68 -2.37
Si  4.80  5.79  5.69
Si  2.14 -5.69  7.23
Si  5.13  6.87 -3.99
Si -2.09  5.80 -7.18
Si -0.88  9.16  2.44
Si  0.90  9.17 -2.48
Si -5.12  6.96 -4.06
Si  5.11 -6.98  4.07
Si -5.27 -6.94  3.96
Si  0.74 -9.24 -2.48
Si -1.04 -9.24  2.44
Si  8.50 -2.34 -3.99
Si  9.38 -0.04  2.44
Si -6.41 -1.14  7.19
Si -9.05 -3.44 -0.82
Si -5.62 -3.41 -7.18
Si  3.09  5.75  7.22
Si -3.05 -5.74 -7.25
Si -2.50  9.13 -2.37
Si  3.37  2.26  8.87
Si  9.10  3.45  0.79
Si -8.63  2.26  3.96
Si  6.46  1.15 -7.23
Si  2.49 -9.15  2.37
Si -5.55  5.75  5.64
Si  8.63  2.23  4.07
Si -5.63 -7.99  0.79
Si  1.28 -8.00 -5.53
Si -3.52  2.26  8.87
Si  7.64 -4.65 -4.04
Si -8.65 -2.24 -4.06
Si  3.38 -2.34 -8.91
Si -7.72  4.57  4.00
Si  5.60 -5.74 -5.68
Si  5.66  3.52  7.23
Si -9.51 -0.04 -2.48
Si -0.48 -8.01  5.69
Si  4.29 -0.04 -8.87
Si -4.38 -0.05  8.83
Si -3.51 -2.34 -8.91
Si -7.33 -3.45 -5.65
Si  7.37  3.46  5.62
Si  0.53  8.12 -5.64
Si -1.20  8.09  5.61
Si  2.65  9.26  2.37
Si  5.68  8.10 -0.74
Si -2.66 -9.28 -2.37
Si -9.86 -1.10  0.90
Si  7.88  4.58 -4.04
Si -7.85 -4.62  4.05
Si -8.17 -1.14  5.62
Si -3.80  5.75  7.22
Si  6.76 -6.95  2.39
Si -6.84  6.87 -2.43
Si -0.96 -4.61 -8.81
Si  0.99  4.58  8.83
Si  0.75 -4.65  8.83
Si -0.84  4.57 -8.87
Si  3.84 -5.74 -7.25
Si  8.21  1.15 -5.65
Si  9.93  1.19 -0.83
Si -0.86  9.15 -4.04
Si  0.93  9.17  4.00
Si -8.21 -5.75  0.79
Si  6.94  6.87 -2.43
Si  2.24  8.06  5.62
Si -2.20 -8.05 -5.65
Si  8.25  5.76 -0.82
Si  0.77 -9.24  4.00
Si -1.02 -9.25 -4.04
Si -7.02 -6.95  2.39
Si  9.40 -0.05 -4.04
Si  2.56  4.59 -8.81
Si  2.94 -8.06  5.64
Si -2.62  4.55  8.83
Si -2.89  8.06 -5.68
Si -6.41  3.46 -7.25
Si  6.45 -3.45  7.22
Si -2.53 -4.62  8.83
Si  6.41 -8.01 -0.83
Si -9.48 -0.04  4.00
Si -6.49 -5.71  5.61
Si  2.53 -4.64 -8.87
Si -6.33  8.10  0.90
Si -7.32  1.15 -7.23
Si  0.40 -10.30  0.90
Si -4.75 -5.69  7.23
Si  7.37 -1.14  7.19
Si  6.56  5.80 -5.53
Si -2.57  9.19  4.05
Si  2.59 -9.22 -4.04
Si  4.80  5.80 -7.18
Si  4.39  9.13 -2.37
Si  2.75  9.18 -4.04
Si -4.40 -9.15  2.37
Si -1.37 -10.31 -0.74
Si -2.73 -9.22  4.05
Si -0.32 10.39 -0.83
Si -5.15  2.23 -8.80
Si  5.13 -2.25  8.81
Si -4.24  9.26  2.37
Si  6.73 -6.94 -3.99
Si  4.23 -9.28 -2.37
Si -6.87  6.87  3.96
Si -9.86  3.50 -0.74
Si -8.12  3.52 -5.64
Si  9.91 -3.39  0.79
Si  6.91  6.87  3.96
Si  8.17 -3.41  5.69
Si -0.88  0.06 -10.49
Si  5.15  2.27 -8.91
Si  0.86 -0.08 10.50
Si  1.41 10.42  0.79
Si -2.01 10.37  0.75
Si -5.28 -2.34  8.87
Si  2.06 -10.36 -0.80
Si -3.95 -8.06  5.64
Si -8.98  1.20 -5.53
Si  4.00  8.06 -5.68
Si -7.05 -6.94 -3.99
Si  9.05 -1.11  5.61
Si -8.97  5.79 -0.83
Si -6.09 -0.01 -8.81
Si -2.62 -0.04 10.39
Si  0.11  2.28 -10.47
Si  2.49 -0.04 -10.43
Si  9.05 -5.70  0.90
Si -0.08 -2.31 10.49
Si  6.12 -0.02  8.83
Si  9.39 -4.64 -2.48
Si -0.49 -8.01 -7.18
Si  5.60 -5.74  7.19
Si -5.55  5.75 -7.23
Si -7.22  5.80 -5.53
Si 10.28  2.25  2.39
Si  9.52  4.53 -2.37
Si  4.27  4.55  8.83
Si -1.71  2.26 10.44
Si -9.53 -4.54  2.37
Si  7.29 -5.71  5.61
Si -3.08 -10.36  0.79
Si -10.74  1.19 -0.83
Si 10.30 -2.34 -2.43
Si -4.33  4.59 -8.81
Si -9.53  4.56  2.44
Si -7.33 -3.45  7.22
Si  3.12 10.36 -0.82
Si -4.14  9.18 -4.04
Si -1.66 -2.32 -10.47
Si  1.63 -2.35 -10.47
Si  1.68  2.29 10.49
Si -4.65  8.06  5.62
Si  4.36 -4.62  8.83
Si  0.53  8.12  7.23
Si -10.39  2.25  2.39
Si  4.17 -9.22  4.05
Si  4.69 -8.05 -5.65
Si -10.37 -2.34 -2.43
Si  7.37  3.46 -7.25
Si 10.81 -1.10  0.90
Si -4.36 -4.64 -8.87
Si -7.37 -8.01 -0.83
Si  1.28 -8.00  7.34
Si  4.32  9.19  4.05
Si -1.21  8.10 -7.26
Si -4.30 -9.22 -4.04
Si -8.18 -1.14 -7.25
Si  8.22  1.15  7.22
Si -2.20 -8.05  7.22
Si  7.45  8.10  0.90
Si -3.77 10.36 -0.82
Si  3.81 -10.36  0.79
Si  2.24  8.06 -7.25
Si -2.89  8.06  7.19
Si  5.85 -9.24  2.44
Si  2.94 -8.06 -7.23
Si -5.99  9.17 -2.48
Si  3.41 -2.34 10.44
Si  6.01  9.16  2.44
Si -5.61 -8.00 -5.53
Si -9.08 -3.46  5.64
Si  4.27 -0.04 10.39
Si  3.39  2.25 -10.47
Si 10.26  2.26 -3.99
Si  9.42 -4.64  4.00
Si -3.48 -2.34 10.44
Si -9.43 -4.62 -4.04
Si  0.02  6.87 -8.91
Si 10.28 -2.34  3.96
Si  9.45  4.59  4.05
Si -0.15 -6.94  8.87
Si  8.54 -6.94 -2.43
Si -3.50  2.25 -10.47
Si -8.63  6.85  2.39
Si -9.51  4.55 -4.04
Si -6.49 -5.71 -7.26
Si  9.13  3.46 -5.68
Si -10.76 -3.39  0.79
Si -4.40 -0.04 -10.43
Si -1.76  6.86  8.87
Si  1.77  6.96  8.81
Si -10.39 -2.34  3.96
Si  5.69  8.09  5.61
Si -1.78 -6.98 -8.80
Si -6.15 -9.24 -2.48
Si -10.41  2.26 -3.99
Si -0.86  4.56 10.39
Si 10.81  3.50 -0.74
Si -8.73 -6.92 -2.38
Si  8.16 -3.41 -7.18
Si  8.76  6.88  2.40
Si  1.62 -6.94 -8.91
Si  6.87 -2.38 -8.80
Si -8.12  3.52  7.23
Si -6.88  2.36  8.81
Si 11.16 -0.04 -2.48
Si  6.57  5.80  7.34
Si -9.88 -1.08 -5.64
Si  6.89  2.36  8.81
Si  8.14 -7.99  0.79
Si  0.72 -4.64 -10.43
Si -6.91 -2.38 -8.80
Si -4.83 -10.36 -0.80
