500
set: 845.00  0.00  0.00
Si -0.55  0.92 -0.77
Si  0.45 -1.00  0.84
Si  1.27  1.27  0.83
Si -1.36 -1.31 -0.83
Si  0.98  0.12 -2.38
Si -1.00 -0.01  2.44
Si  2.13 -1.37 -0.83
Si -2.27  1.21  0.84
Si  2.99  0.89 -0.84
Si  0.11 -2.27 -2.37
Si -0.11  2.26  2.49
Si  0.35  3.29 -0.78
Si -0.46 -3.28  0.81
Si -3.10 -1.09  0.93
Si  2.50 -0.07  2.37
Si -2.55  0.04 -2.38
Si -1.69  2.33 -2.34
Si  1.68 -2.35  2.48
Si -1.33  3.49  0.88
Si  1.87  2.41 -2.37
Si -1.84 -2.35  2.50
Si  1.23 -3.66 -0.84
Si  0.80  0.06  3.99
Si -0.82 -0.16 -4.00
Si  3.90 -1.07  0.74
Si -4.00  1.14 -0.78
Si  2.14  3.61  0.84
Si -2.24 -3.71 -0.74
Si  0.04  2.18 -3.95
Si  2.96 -3.34  0.77
Si -2.98  3.44 -0.77
Si -3.36 -2.29 -2.26
Si -0.07 -2.30  4.06
Si  3.40  2.30  2.44
Si  2.61 -0.20 -4.09
Si  3.58 -2.19 -2.50
Si -2.71 -0.15  4.11
Si -3.54  2.44  2.45
Si  4.75  1.27  0.75
Si  1.73  2.31  4.08
Si -4.38  0.14  2.44
Si -1.82  2.23  4.11
Si -1.72 -2.49 -4.01
Si -4.84 -1.15 -0.79
Si  3.79  3.26 -0.83
Si  1.74 -2.47 -4.09
Si  4.44  0.13 -2.56
Si -0.77 -4.51 -2.40
Si  0.70 -4.58  2.40
Si  0.85  4.59  2.52
Si -3.99 -3.41  0.88
Si -0.85  4.70 -2.40
Si  1.26  5.51 -0.74
Si -3.34  2.39 -4.05
Si  3.50  2.13 -4.06
Si  5.57 -1.16 -0.95
Si  2.63 -4.47 -2.54
Si -0.42  1.18  5.65
Si  3.43 -2.31  4.06
Si -4.22  0.01 -3.98
Si  0.53 -1.15 -5.67
Si  4.26  0.01  3.97
Si -1.36 -5.61  0.84
Si  4.67 -3.44 -0.81
Si  1.32  1.14 -5.63
Si -0.49  5.80  0.88
Si -2.66 -4.62  2.52
Si -5.74  1.12  0.78
Si -2.61  4.70  2.46
Si  2.73  4.70 -2.40
Si -3.59 -2.42  4.10
Si -1.28 -1.09  5.75
Si -4.86  3.43  0.72
Si -2.08  1.05 -5.55
Si  0.29 -5.96 -0.83
Si  0.97  4.47 -3.96
Si  2.10 -5.65  0.75
Si  5.17 -2.17  2.38
Si -5.20 -2.19  2.43
Si  2.16 -1.18  5.65
Si -5.16  2.33 -2.48
Si -2.17  5.75 -0.81
Si -0.97  4.52  4.16
Si -0.94 -4.64  4.16
Si  5.31  2.46 -2.50
Si  0.88 -4.78 -4.15
Si -2.96 -1.26 -5.58
Si  3.01  1.11  5.64
Si -6.01 -0.01 -2.48
Si  6.07  0.18  2.43
Si  2.53 -4.56  4.00
Si -1.19  3.37 -5.55
Si  4.29 -4.44  2.34
Si -2.48  4.63 -4.02
Si -0.38 -3.43 -5.69
Si  6.49  1.16 -0.90
Si -2.53 -4.74 -3.96
Si  5.60  3.57  0.75
Si  2.56  4.57  4.16
Si -5.67 -3.47 -0.81
Si  0.48  3.46  5.72
Si  4.21  4.64  2.40
Si -4.35 -4.52 -2.40
Si  3.05  5.94  0.81
Si -3.15 -5.93 -0.78
Si  1.20 -3.45  5.69
Si -6.62 -1.15  0.80
Si -4.29  4.68 -2.40
Si -5.02 -2.26 -3.99
Si  5.20  2.31  3.98
Si  3.83 -5.72 -0.92
Si -3.86  1.29  5.66
Si -5.31  2.17  4.02
Si -2.21 -3.37  5.76
Si  2.29  3.46 -5.68
Si -3.98  5.79  0.80
Si  5.30 -2.33 -4.07
Si  4.02 -1.18 -5.73
Si  0.15  6.92 -2.26
Si  6.38 -3.43  0.80
Si -0.39  1.21 -7.21
Si -0.10 -6.92  2.44
Si  4.74  5.55 -0.84
Si  3.07 -3.45 -5.75
Si  0.47 -1.13  7.28
Si -6.16 -0.15  4.07
Si  7.25 -1.15  0.80
Si -1.64 -6.80 -2.37
Si -2.91  3.63  5.75
Si  1.81 -6.76 -2.50
Si -1.21 -1.18 -7.24
Si -6.53  3.49 -0.92
Si  6.18  0.08 -4.20
Si -4.41  4.47  4.08
Si  1.31  1.20  7.28
Si  1.67  6.86  2.50
Si  4.38  4.44 -4.15
Si  4.38 -4.52 -4.09
Si -7.38  1.16 -0.90
Si -4.72 -1.05  5.77
Si -4.83 -5.73  0.88
Si  4.79  1.11 -5.79
Si -1.70  7.02  2.43
Si -6.89 -2.27 -2.45
Si -2.17  1.05  7.30
Si -4.47 -4.69  4.16
Si  3.97  3.44  5.67
Si  2.28 -1.20 -7.29
Si  6.93  2.47  2.38
Si  6.98 -2.27 -2.45
Si -3.86 -3.59 -5.67
Si -6.94  2.47  2.38
Si  3.43 -6.75  2.38
Si -0.09  6.80  4.10
Si  3.02  1.14 -7.27
Si  6.08 -4.54 -2.40
Si -6.11 -4.52  2.46
Si -5.48  1.00 -5.74
Si -0.35  5.63 -5.67
Si  5.51 -5.79  0.72
Si  1.78  6.73 -4.01
Si  0.54  3.50 -7.22
Si  5.69 -1.00  5.61
Si -6.07  4.78  2.34
Si  1.25 -7.95  0.75
Si -3.01 -1.22  7.41
Si -3.39  6.95 -2.45
Si  0.47 -5.78  5.67
Si -0.50 -3.44  7.34
Si  4.81 -3.29  5.67
Si -4.80  3.35 -5.65
Si  1.70 -6.91  3.98
Si -5.70  5.78 -0.81
Si -1.52  6.95 -3.99
Si -0.00 -7.08 -4.06
Si  6.14  4.75 -2.54
Si -7.80  0.18  2.43
Si  3.61  6.94 -2.37
Si  7.34  3.49 -0.92
Si -1.21 -5.76 -5.68
Si  0.40  8.13  0.93
Si -1.34  8.06 -0.79
Si -1.27  3.37  7.38
Si -1.77 -6.91  4.08
Si -3.62 -6.95  2.49
Si  2.14  7.91 -0.83
Si  1.33 -3.52 -7.32
Si  8.13  1.12  0.78
Si  7.86 -0.01 -2.48
Si -7.48 -3.43  0.80
Si  6.83 -2.44  4.01
Si -3.71  1.29 -7.30
Si  3.97 -1.10  7.20
Si -2.24 -7.95  0.83
Si  1.29  5.84  5.76
Si -6.86  2.27 -4.13
Si -2.11 -3.45 -7.32
Si  2.21  3.48  7.30
Si -0.51 -8.33 -0.84
Si -8.30 -1.16 -0.95
Si  7.01  2.27 -4.13
Si -2.03  5.92  5.66
Si  2.28 -5.74 -5.76
Si -7.04 -2.44  4.01
Si  2.97 -3.47  7.18
Si -2.90  3.53 -7.20
Si -5.99 -4.58 -4.02
Si -5.53 -3.29  5.66
Si  6.03  4.65  4.00
Si -4.60 -1.00 -7.22
Si -3.54  6.78  4.01
Si -5.98  4.70 -4.09
Si  5.95 -4.75  4.08
Si  2.99 -8.06 -0.90
Si -3.02 -5.76  5.72
Si -3.12  8.06  0.80
Si  3.13  5.79 -5.69
Si -6.44 -1.30 -5.70
Si  7.71 -0.15  4.07
Si -6.48 -5.78 -0.77
Si  3.44  6.91  4.06
Si  4.76  1.18  7.21
Si  6.55  1.33  5.61
Si -7.69  0.08 -4.20
Si  6.46  5.87  0.77
Si -3.46 -7.04 -3.95
Si  3.90 -5.59  5.56
Si  3.50 -6.94 -4.13
Si  0.88 -0.06 -8.80
Si -3.82  5.59 -5.71
Si  5.79  3.48 -5.76
Si  8.20 -3.47 -0.81
Si -5.20 -6.89 -2.34
Si  5.19  6.87  2.48
Si  5.21 -6.89 -2.48
Si  3.98  3.41 -7.31
Si -8.27  3.57  0.75
Si -0.85 -0.11  9.00
Si -5.20  7.05  2.38
Si -3.90 -3.53  7.41
Si  9.03 -1.15 -0.79
Si  3.95  8.22  0.84
Si  2.57 -0.14  8.81
Si  0.04 -2.33 -8.89
Si -2.65 -0.11 -8.81
Si -0.04  2.14  8.96
Si -9.12  1.27  0.75
Si -5.64  1.00  7.26
Si -8.56  2.46 -2.50
Si  8.67 -2.19  2.43
Si -4.06 -8.29 -0.77
Si -6.47  3.63  5.56
Si -8.70 -2.17  2.38
Si -1.77  2.17 -8.86
Si -4.76  3.33  7.27
Si  7.75 -4.52  2.46
Si -7.32  1.33  5.61
Si -7.79 -4.54 -2.40
Si -4.69 -5.85 -5.55
Si  8.71  2.33 -2.48
Si  0.47 -5.81 -7.31
Si -0.40  5.68  7.41
Si  4.62 -8.10  0.78
Si  1.75  2.28 -8.90
Si -1.29 -5.73  7.30
Si  4.71  5.77  5.69
Si  1.68 -2.45  8.91
Si  5.71 -1.00 -7.40
Si  7.39 -5.78 -0.77
Si  6.54 -3.63 -5.71
Si  4.87 -3.30 -7.35
Si  1.40  5.77 -7.32
Si -7.73  4.75 -2.54
Si -4.79  8.06 -0.95
Si  7.80  4.78  2.34
Si  7.42 -1.30 -5.70
Si  5.24  6.75 -4.09
Si -5.07  6.89 -4.07
Si -7.40  5.87  0.77
Si  0.94 -9.09 -2.56
Si -1.78 -2.40  9.01
Si  2.20 -5.77  7.23
Si  5.06 -7.04  4.02
Si -2.04  5.87 -7.30
Si  0.95  9.25 -2.38
Si -1.00 -9.29  2.37
Si  9.01  3.43  0.72
Si -2.96 -5.72 -7.22
Si -5.32 -6.98  4.11
Si  5.63  7.85 -0.83
Si  2.56 -9.04  2.43
Si  8.56  2.17  4.02
Si -0.88  9.36  2.44
Si  0.54  7.96 -5.58
Si -2.52 -9.10 -2.38
Si  3.42  2.16  8.88
Si -5.54 -3.34 -7.30
Si -8.57 -2.33 -4.07
Si -9.43  0.13 -2.56
Si  9.49  0.14  2.44
Si -8.66  2.31  3.98
Si  3.01  5.78  7.34
Si -3.50 -2.40 -8.85
Si  5.71  3.45  7.23
Si  2.51  9.20  2.44
Si -9.20 -3.44 -0.81
Si -3.33  2.37  8.97
Si -2.50  9.21 -2.48
Si  5.57 -5.87 -5.65
Si -0.49 -8.11  5.64
Si -5.77 -8.01  0.84
Si -5.55  5.93  5.67
Si -3.79  5.63  7.23
Si -4.30  0.05  8.94
Si  6.82 -6.78  2.45
Si  3.52 -2.33 -8.99
Si -6.62 -1.23  7.31
Si  6.63  1.29 -7.29
Si  7.40  3.63  5.56
Si -0.89  4.44 -8.86
Si -7.83  4.65  4.00
Si  4.35  0.02 -8.96
Si  7.88 -4.58 -4.02
Si  8.85 -2.26 -3.99
Si -8.18 -1.00  5.61
Si  9.87  1.14 -0.78
Si -7.33 -3.63 -5.71
Si  0.79  9.07  4.11
Si  1.29 -8.10 -5.79
Si  8.17  5.78 -0.81
Si  7.88  4.70 -4.09
Si  0.76 -9.20  3.97
Si -9.97 -1.07  0.74
Si  0.87  4.47  8.97
Si -1.21  8.16  5.77
Si -0.71  9.23 -3.98
Si -2.18 -8.07 -5.63
Si -7.04 -6.78  2.45
Si -6.79  7.03 -2.50
Si -7.92 -4.75  4.08
Si  4.00 -5.64 -7.36
Si  0.79 -4.79  8.87
Si -0.89 -4.58 -8.97
Si  3.05 -7.88  5.61
Si -2.94  7.92 -5.70
Si -8.36 -5.79  0.72
Si  2.23  8.13  5.75
Si  8.39  1.00 -5.74
Si  2.68  9.05 -4.00
Si -6.42 -5.59  5.75
Si  7.08  7.03 -2.50
Si -2.66  9.06  4.07
Si -0.90 -9.42 -4.09
Si  6.37 -8.08 -0.78
Si  0.40 -10.29  0.74
Si -2.71 -9.16  3.99
Si -7.24  1.29 -7.29
Si -6.36  3.58 -7.36
Si  7.25 -1.23  7.31
Si -0.49 10.35 -0.78
Si -9.61  0.01  3.97
Si  2.68 -9.14 -4.20
Si  6.58 -3.58  7.23
Si -2.53  4.64  8.98
Si -6.46  8.14  0.74
Si  2.57 -4.62 -8.99
Si  2.62  4.64 -8.97
Si  9.65  0.01 -3.98
Si  4.83  5.69 -7.32
Si  6.58  5.77 -5.75
Si -0.84 -0.04 -10.45
Si -2.64 -4.75  8.97
Si -6.85 -6.83 -4.05
Si  9.88 -3.41  0.88
Si  4.36 -9.22 -2.48
Si  5.19 -2.31  8.84
Si -8.08  3.48 -5.76
Si  1.24 10.43  0.84
Si -5.16 -2.20  8.92
Si -4.50 -9.23  2.44
Si -4.78 -5.84  7.38
Si -3.93 -8.04  5.65
Si -5.22  2.14 -8.95
Si  5.25  2.28 -8.90
Si  2.95 10.14 -0.77
Si  6.93  6.91  4.06
Si -6.93  6.91  4.06
Si  7.02 -6.83 -4.05
Si  8.34 -3.29  5.66
Si -2.24 10.34  0.78
Si  0.92  0.12 10.57
Si -4.30  9.40  2.43
Si  2.07 -10.37 -0.95
Si -10.08  3.26 -0.83
Si  4.48  9.33 -2.38
Si  4.03  8.07 -5.67
Si -0.02  2.23 -10.46
Si -3.06 -10.22  0.84
Si -1.37 -10.58 -0.83
Si -9.13  5.55 -0.84
Si  9.04 -5.73  0.88
Si  6.07  0.11  8.87
Si -6.10 -0.17 -8.89
Si  4.36 -4.51  8.77
Si  4.29  4.43  8.87
Si  9.52 -4.52 -2.40
Si -9.58 -4.44  2.34
Si -10.29 -2.19 -2.50
Si  0.05 -2.17 10.60
Si -9.08  1.11 -5.79
Si -4.34  4.43 -8.90
Si 10.77 -1.09  0.93
Si  2.52  0.01 -10.57
Si  1.25 -8.03  7.21
Si  9.15 -1.05  5.77
Si -7.29 -3.58  7.23
Si -0.48 -8.08 -7.27
Si 10.33  2.44  2.45
Si -1.80 -2.37 -10.48
Si -2.66  0.12 10.57
Si  5.61 -5.88  7.27
Si  1.71 -2.33 -10.52
Si  0.49  8.00  7.41
Si -5.50  5.92 -7.35
Si  9.58  4.68 -2.40
Si -7.29  5.77 -5.75
Si  7.45 -5.59  5.75
Si -10.88  0.89 -0.84
Si  4.30  9.27  3.99
Si -9.66  4.64  2.40
Si -4.39 -4.78 -8.86
Si -1.10  8.21 -7.22
Si -4.68  8.21  5.61
Si 10.51 -2.29 -2.26
Si -10.47  2.30  2.44
Si  1.79  2.36 10.60
Si  8.23  1.00  7.26
Si -4.18  9.29 -4.20
Si  7.41  8.14  0.74
Si  4.20 -9.37  4.07
Si -2.19 -8.01  7.28
Si -7.50 -8.08 -0.78
Si  3.75 -10.37  0.80
Si -8.15 -1.00 -7.40
Si  2.30  8.04 -7.24
Si -4.32 -9.38 -4.00
Si -1.67  2.34 10.71
Si  7.51  3.58 -7.36
Si -3.87 10.38 -0.90
Si  5.98 -9.07  2.44
Si  4.89 -8.21 -5.74
Si -0.00  6.82 -8.85
Si -9.05 -3.29  5.67
Si -6.40 -5.69 -7.20
Si  6.00  9.14  2.37
Si  9.07  3.35 -5.65
Si  3.13 -7.92 -7.29
Si  9.46  4.47  4.08
Si  3.50 -2.12 10.46
Si  6.48  5.75  7.18
Si -6.06 -9.18 -2.38
Si -9.49  4.44 -4.15
Si -3.11  7.98  7.31
Si -9.49 -4.52 -4.09
Si  3.50  2.24 -10.49
Si  4.32  0.17 10.43
Si  9.40 -4.69  4.16
Si -3.38  2.39 -10.54
Si  8.67 -6.89 -2.34
Si 10.28 -2.42  4.10
Si -0.08 -7.05  8.88
Si -10.37  2.13 -4.06
Si  5.66  8.04  5.65
Si -5.59 -8.16 -5.55
Si -8.66 -6.89 -2.48
Si -8.68  6.87  2.48
Si -4.30  0.07 -10.51
Si -5.93  9.35 -2.56
Si -8.24  7.85 -0.83
Si -3.51 -2.26 10.62
Si  8.10 -8.01  0.84
Si -1.75 -6.94 -8.90
Si  1.75 -6.94 -8.90
Si  1.73  6.81  9.01
Si  8.67  7.05  2.38
Si -10.91 -3.34  0.77
Si -10.44 -2.31  4.06
Si -8.16  3.45  7.23
Si 10.89  3.44 -0.77
Si -3.90 -8.00 -7.21
Si -9.85 -1.18 -5.73
Si -1.66  7.02  8.92
Si -6.88  2.30  8.89
Si  9.89  5.79  0.80
Si  0.82  4.57 -10.53
Si -0.84 -4.47 10.58
Si 10.53  2.39 -4.05
Si  6.99  2.30  8.89
Si  4.77 10.48  0.83
Si  6.88 -2.46 -8.95
