500
set: 300.00  0.00  0.00
Si -0.06  0.00 -0.05
Si -0.06 -2.16  0.79
Si  1.89  1.09  0.84
Si -1.91  1.17  0.77
Si -0.01 -0.00 -2.42
Si  1.89 -3.27 -0.02
Si  1.86  3.28  0.04
Si -3.79  0.05  0.01
Si  0.04 -2.21  3.09
Si -1.90  1.11  3.11
Si -1.91 -1.16 -3.10
Si  1.91  1.05  3.15
Si  1.93 -1.09 -3.13
Si  0.04  2.21 -3.15
Si  3.85  0.05  0.01
Si -1.96 -3.34  0.04
Si -1.93  3.35 -0.02
Si -1.88 -1.11  3.86
Si -3.81 -2.17  0.79
Si  1.97  3.26 -2.32
Si -3.82 -0.06 -2.31
Si  3.83 -0.06 -2.31
Si  0.00  2.14  3.93
Si  3.84 -2.17  0.79
Si -1.85 -3.36 -2.32
Si -1.88  3.30 -2.38
Si  0.01  4.45  0.79
Si  1.94 -3.32 -2.38
Si  1.97 -1.15  3.92
Si -3.78  2.17 -3.08
Si  3.86  2.17 -3.08
Si  0.04  4.37  3.16
Si  0.04 -4.45 -3.08
Si -3.78 -2.25  3.16
Si  3.86 -2.25  3.16
Si  1.91 -5.45  0.77
Si  3.81  2.20  3.82
Si -0.01 -4.42  3.82
Si -3.83  2.20  3.82
Si -1.94 -1.12 -5.40
Si  1.91 -1.04 -5.47
Si  3.76  4.46  0.79
Si  5.73  1.17  0.77
Si -0.06  2.25 -5.46
Si -1.94 -5.53  0.84
Si -5.76  1.09  0.84
Si -3.88  4.46  0.79
Si  1.91  5.46 -3.10
Si  0.03 -6.57  0.01
Si -3.79  4.41  3.09
Si  5.69 -3.34  0.04
Si -1.96  1.08 -6.21
Si  0.03 -2.15 -6.24
Si -1.93 -1.06  6.22
Si -5.72 -1.09 -3.13
Si  1.93 -5.51  3.11
Si -3.78 -4.41 -3.15
Si -5.75 -3.27 -0.02
Si  5.73 -1.16 -3.10
Si  5.71  3.35 -0.02
Si -5.74  1.05  3.15
Si  3.86  4.41  3.09
Si -1.90  5.53 -3.13
Si  5.75  1.11  3.11
Si  1.89  1.15 -6.26
Si  0.03  2.26  6.25
Si  1.86 -1.13  6.28
Si -5.78  3.28  0.04
Si  3.86 -4.41 -3.15
Si  0.03  6.67  0.01
Si -1.91 -5.57  3.15
Si -5.67  3.26 -2.32
Si  0.00  6.56 -2.31
Si -1.85  5.47  3.92
Si -5.67 -1.15  3.92
Si  0.02 -4.38 -5.45
Si  1.94  5.51  3.86
Si -5.70 -3.32 -2.38
Si -3.81  2.24 -5.45
Si  5.76 -1.11  3.86
Si  3.84  2.24 -5.45
Si  0.01  0.03  7.03
Si  5.76  3.30 -2.38
Si  0.00 -6.68 -2.31
Si -3.82 -4.47  3.93
Si  3.83 -4.47  3.93
Si  5.79 -3.36 -2.32
Si  3.76  2.21  6.19
Si  7.58  0.00 -0.05
Si -0.06 -4.41  6.19
Si  3.76 -6.62 -0.05
Si  3.76  6.62 -0.05
Si -3.88  2.21  6.19
Si  3.76 -2.20 -6.29
Si -3.88 -6.62 -0.05
Si -3.88  6.62 -0.05
Si -0.06  4.42 -6.29
Si -7.71  0.00 -0.05
Si -3.88 -2.20 -6.29
Si  7.58 -2.16  0.79
Si  3.76 -4.36 -5.46
Si  5.71 -1.12 -5.40
Si  1.89  5.50 -5.40
Si -5.74 -5.45  0.77
Si -1.91 -3.24  7.01
Si  3.76  0.05  7.03
Si  5.71 -5.53  0.84
Si -5.74 -1.04 -5.47
Si -3.88 -4.36 -5.46
Si -1.94  7.71  0.84
Si  7.64 -0.00 -2.42
Si  3.81  6.62 -2.42
Si  1.91  3.38  7.01
Si  3.81 -6.62 -2.42
Si -3.83  6.62 -2.42
Si -3.83 -6.62 -2.42
Si -7.65 -0.00 -2.42
Si -3.88  0.05  7.03
Si -7.71 -2.16  0.79
Si -1.91  5.58 -5.47
Si  1.89 -3.32  7.08
Si -1.94  3.30  7.08
Si  1.91  7.79  0.77
Si  5.69  1.08 -6.21
Si -7.61 -2.21  3.09
Si -5.74  5.46 -3.10
Si -1.91  7.67  3.15
Si -3.79 -4.36  6.25
Si  5.71 -1.06  6.22
Si -7.61  2.21 -3.15
Si -5.72 -5.51  3.11
Si  1.86 -5.54 -6.21
Si  3.85 -4.36  6.25
Si -1.90 -7.71 -3.13
Si -1.93 -5.47 -6.26
Si  1.89  5.56  6.22
Si  1.93  7.73  3.11
Si -3.79  4.47 -6.24
Si  5.75  5.53 -3.13
Si -1.96  5.49  6.28
Si  7.68 -2.21  3.09
Si -5.75  1.15 -6.26
Si  3.85  4.47 -6.24
Si  1.91 -7.78 -3.10
Si  5.73 -5.57  3.15
Si  7.68  2.21 -3.15
Si -5.78 -1.13  6.28
Si -5.70  5.51  3.86
Si -1.85  1.05 -8.56
Si  0.02 -8.79  0.79
Si  0.00 -2.27 -8.55
Si  1.94 -7.73  3.86
Si -7.64  2.14  3.93
Si  7.65  2.14  3.93
Si -7.63  4.45  0.79
Si  5.79  5.47  3.92
Si  7.66  4.45  0.79
Si -1.85 -7.77  3.92
Si  1.94  1.10 -8.62
Si  0.04  8.79 -3.08
Si  0.04 -0.04 -9.32
Si -7.61  4.37  3.16
Si -7.61 -4.45 -3.08
Si  7.68  4.37  3.16
Si  7.68 -4.45 -3.08
Si  0.04 -0.04  9.40
Si  0.04 -8.87  3.16
Si  3.76 -8.78  0.79
Si -1.91 -7.66 -5.47
Si  7.58  2.25 -5.46
Si  7.64 -4.42  3.82
Si -0.01  8.82  3.82
Si -0.06 -6.57  7.03
Si  5.73 -3.24  7.01
Si  1.89 -7.74 -5.40
Si -5.76  5.50 -5.40
Si -7.65 -4.42  3.82
Si  9.53  1.09  0.84
Si  5.71  7.71  0.84
Si -3.88 -8.78  0.79
Si -9.56  1.17  0.77
Si -5.74  3.38  7.01
Si  5.71  3.30  7.08
Si -0.06  6.67  7.03
Si  5.73  5.58 -5.47
Si -5.74  7.79  0.77
Si -7.71  2.25 -5.46
Si -5.76 -3.32  7.08
Si  3.81 -2.21 -8.66
Si -0.01  4.41 -8.66
Si -3.83 -2.21 -8.66
Si -7.62 -6.57  0.01
Si  9.51  3.28  0.04
Si  1.86  7.70 -6.21
Si  1.89 -7.68  6.22
Si -3.79 -0.00  9.33
Si -1.91  3.25 -9.34
Si -1.93 -9.89 -0.02
Si  5.73  7.67  3.15
Si -7.62 -2.15 -6.24
Si  9.54 -3.27 -0.02
Si -3.78 -8.83  3.09
Si  5.71 -5.47 -6.26
Si  5.68  5.49  6.28
Si -1.96  9.90  0.04
Si -9.54  1.11  3.11
Si  3.86 -0.00  9.33
Si  7.67 -6.57  0.01
Si -1.90 -3.30  9.36
Si  1.91 -3.37 -9.34
Si -3.79  8.83 -3.15
Si -7.62  2.26  6.25
Si -5.72  7.73  3.11
Si  9.55  1.05  3.15
Si  1.93  3.32  9.36
Si -1.90 -3.30 -9.37
Si -9.56 -1.16 -3.10
Si  5.75 -7.71 -3.13
Si  3.86 -8.83  3.09
Si  7.67 -2.15 -6.24
Si -1.91  3.25  9.39
Si  1.93  3.32 -9.37
Si -7.62  6.67  0.01
Si -3.78 -0.00 -9.39
Si  9.57 -1.09 -3.13
Si  1.86 -9.96  0.04
Si -5.78 -5.54 -6.21
Si -5.75  5.56  6.22
Si  3.86  8.83 -3.15
Si -9.57  3.35 -0.02
Si  7.67  2.26  6.25
Si -5.74 -7.78 -3.10
Si  1.89  9.97 -0.02
Si  1.91 -3.37  9.39
Si  3.86 -0.00 -9.39
Si -1.93  7.77 -6.26
Si -1.96 -7.75  6.28
Si -9.60 -3.34  0.04
Si  7.67  6.67  0.01
Si -1.85  9.88 -2.32
Si -3.82  4.35 -8.55
Si  3.83  4.35 -8.55
Si -7.64  6.56 -2.31
Si -9.49 -3.36 -2.32
Si  7.65  6.56 -2.31
Si -3.82  8.76  3.93
Si -9.53 -1.11  3.86
Si  3.83  8.76  3.93
Si  1.94  1.10 10.10
Si -7.63 -4.38 -5.45
Si -5.70 -7.73  3.86
Si -9.53  3.30 -2.38
Si -3.81 -6.59  7.03
Si  7.66 -4.38 -5.45
Si  3.84 -6.59  7.03
Si -7.63  0.03  7.03
Si -1.85  1.05 10.16
Si  1.94  9.92 -2.38
Si -1.88 -9.94 -2.38
Si  5.79  1.05 -8.56
Si -5.70  1.10 -8.62
Si  0.01  8.86 -5.45
Si  7.66  0.03  7.03
Si  1.97 -5.57 -8.56
Si -3.81  6.65  7.03
Si -7.64 -6.68 -2.31
Si -1.88 -5.52 -8.62
Si  3.84  6.65  7.03
Si  7.65 -6.68 -2.31
Si  9.62  3.26 -2.32
Si  9.59 -3.32 -2.38
Si  0.00 -2.27 10.17
Si  1.97 -9.98 -2.32
Si  9.62 -1.15  3.92
Si  5.79 -7.77  3.92
Si  7.58 -4.41  6.19
Si -0.06  8.83  6.19
Si  7.58  4.42 -6.29
Si -7.71 -4.41  6.19
Si -0.06 -8.82 -6.29
Si -7.71  4.42 -6.29
Si  3.81 -2.21 10.06
Si -0.01  4.41 10.06
Si -3.83 -2.21 10.06
Si  5.73 -7.66 -5.47
Si  9.55 -5.45  0.77
Si -5.76 -7.74 -5.40
Si -9.58 -1.12 -5.40
Si  9.55 -1.04 -5.47
Si  3.76  8.88 -5.46
Si -9.58 -5.53  0.84
Si -0.06 11.08  0.79
Si -3.88  8.88 -5.46
Si -3.79 -8.77 -6.24
Si  5.68  9.90  0.04
Si  5.71 -9.89 -0.02
Si  5.73  3.25 -9.34
Si  9.55  5.46 -3.10
Si  3.85 -8.77 -6.24
Si -5.75 -7.68  6.22
Si  0.04  6.62  9.33
Si -11.44  0.05  0.01
Si  0.04 -6.62  9.33
Si  9.51 -1.13  6.28
Si -5.78  7.70 -6.21
Si -5.72  3.32  9.36
Si  0.04 11.03  3.09
Si -9.54  5.53 -3.13
Si -5.74 -3.37 -9.34
Si  9.54  1.15 -6.26
Si  5.75 -3.30  9.36
Si -5.72  3.32 -9.37
Si -9.57 -1.06  6.22
Si  5.73  3.25  9.39
Si  9.57 -5.51  3.11
Si  0.04 -11.03 -3.15
Si  5.75 -3.30 -9.37
Si  5.69 -7.75  6.28
Si -9.60  1.08 -6.21
Si  0.04  6.62 -9.39
Si 11.49  0.05  0.01
Si  0.04 -6.62 -9.39
Si  5.71  7.77 -6.26
Si -3.80  8.88  6.25
Si -9.56 -5.57  3.15
Si -5.74 -3.37  9.39
Si -5.78 -9.96  0.04
Si -5.75  9.97 -0.02
Si  3.85  8.88  6.25
Si -9.49  5.47  3.92
Si -5.70  1.10 10.10
Si  1.97  7.67 -8.56
Si -1.88 -5.52 10.10
Si -7.63 -8.79  0.79
Si -5.67 -5.57 -8.56
Si -11.45 -2.17  0.79
Si  5.79  9.88 -2.32
Si -7.64 -2.27 -8.55
Si  7.66 -8.79  0.79
Si  0.02  0.03 -11.69
Si -5.70  9.92 -2.38
Si -11.46 -0.06 -2.31
Si  7.65 -2.27 -8.55
Si 11.47 -0.06 -2.31
Si -3.82  4.35 10.17
Si  3.83  4.35 10.17
Si -5.67 -9.98 -2.32
Si  9.58  5.51  3.86
Si 11.48 -2.17  0.79
Si -1.88  7.72 -8.62
Si -3.81 11.06  0.79
Si  5.76 -9.94 -2.38
Si  3.84 11.06  0.79
Si  5.79  1.05 10.16
Si  5.76 -5.52 -8.62
Si  1.97 -5.57 10.16
Si  0.00 -11.10  3.93
Si -3.78  6.58 -9.32
Si -7.61  8.79 -3.08
Si -7.61 -0.04 -9.32
Si -11.43  2.17 -3.08
Si  3.86  6.58 -9.32
Si -3.78 10.99  3.16
Si -3.78 -6.66 -9.32
Si -11.43 -2.25  3.16
Si  7.68  8.79 -3.08
Si  3.86 10.99  3.16
Si  7.68 -0.04 -9.32
Si -3.78  6.58  9.40
Si  3.86 -6.66 -9.32
Si -7.61 -0.04  9.40
Si -3.78 -11.07 -3.08
Si -7.61 -8.87  3.16
Si 11.50  2.17 -3.08
Si  3.86  6.58  9.40
Si  3.86 -11.07 -3.08
Si -3.78 -6.66  9.40
Si 11.50 -2.25  3.16
Si  7.68 -0.04  9.40
Si  7.68 -8.87  3.16
Si  3.86 -6.66  9.40
Si -1.91 -12.07  0.77
Si  7.58 -6.57  7.03
Si  1.91 -9.86  7.01
Si  1.89 -3.32 -11.64
Si -1.94  3.30 -11.64
Si  9.53  5.50 -5.40
Si -0.06 -10.98 -5.46
Si 11.40  4.46  0.79
Si 11.46  2.20  3.82
Si  7.63  8.82  3.82
Si  3.81 -11.04  3.82
Si  3.76  0.05 -11.70
Si -7.65  8.82  3.82
Si -3.83 -11.04  3.82
Si -9.56 -3.24  7.01
Si -11.47  2.20  3.82
Si -1.91 -3.24 -11.71
Si  7.58  6.67  7.03
Si  9.55  3.38  7.01
Si  1.89 -12.15  0.84
Si -3.88  0.05 -11.70
Si -7.71 -6.57  7.03
Si -9.58  7.71  0.84
Si  9.53 -3.32  7.08
Si  1.89  9.92  7.08
Si  1.91  3.38 -11.71
Si -9.56  5.58 -5.47
Si  9.55  7.79  0.77
Si -1.94 -9.94  7.08
Si  7.64  4.41 -8.66
Si -1.92 10.00  7.01
Si -9.58  3.30  7.08
Si -0.01 -8.83 -8.66
Si -7.65  4.41 -8.66
Si -7.71  6.67  7.03
Si -11.53  4.46  0.79
Si -1.91 12.08 -3.10
Si  0.03 -10.98  6.25
Si  9.51 -5.54 -6.21
Si -11.43  4.41  3.09
Si  1.86 -1.13 -12.45
Si -11.43 -4.41 -3.15
Si -9.56  7.67  3.15
Si  1.89  1.15 12.46
Si -9.54 -7.71 -3.13
Si -1.89 -12.12  3.11
Si  9.54  5.56  6.22
Si  0.03 -2.15 12.49
Si  0.03  2.26 -12.48
Si -9.57 -5.47 -6.26
Si  1.93 12.15 -3.13
Si  9.57  7.73  3.11
Si -1.93 -1.06 -12.50
Si 11.50  4.41  3.09
Si  9.55 -7.78 -3.10
Si -1.96  1.08 12.52
Si 11.50 -4.41 -3.15
Si -9.60  5.49  6.28
Si  0.03 11.09 -6.24
Si  1.91 -12.19  3.15
Si -5.67  7.67 -8.56
Si -9.49  1.05 -8.56
Si -1.88  7.72 10.10
Si -3.81 -11.00 -5.45
Si  1.97 12.09  3.92
Si  3.84 -11.00 -5.45
Si -1.88 12.13  3.86
Si  5.76 -5.52 10.10
Si -11.45  2.24 -5.45
Si -9.49 -7.77  3.92
Si  1.97  7.67 10.16
Si -7.63  8.86 -5.45
Si -5.67 -5.57 10.16
Si 11.48  2.24 -5.45
Si  9.59 -7.73  3.86
Si -3.82 -8.89 -8.55
Si  3.83 -8.89 -8.55
Si  7.66  8.86 -5.45
Si -11.46 -4.47  3.93
Si -7.64 -2.27 10.17
Si 11.47 -4.47  3.93
Si  5.76  7.72 -8.62
Si  7.65 -2.27 10.17
Si  9.59  1.10 -8.62
Si 11.40  2.21  6.19
Si  3.76 -2.20 12.43
Si  7.58  8.83  6.19
Si 11.41 -6.62 -0.05
Si 11.40  6.62 -0.05
Si -0.06  4.42 12.43
Si  3.76 -11.03  6.19
Si -3.88 -2.20 12.43
Si 11.41 -2.20 -6.29
Si  7.58 -8.82 -6.29
Si -3.88 -11.03  6.19
Si -0.06 -13.24 -0.05
Si -0.06 13.24 -0.05
Si  3.76 11.04 -6.29
Si -7.71  8.83  6.19
Si -11.53  2.21  6.19
Si  3.76  2.21 -12.53
Si -3.88 11.04 -6.29
Si -0.06 -4.41 -12.53
Si -11.53 -6.62 -0.05
Si -11.53  6.62 -0.05
Si -7.70 -8.82 -6.29
Si -3.88  2.21 -12.53
Si -11.53 -2.20 -6.29
Si 11.40 -4.36 -5.46
Si  7.63  4.41 10.06
Si  5.71  3.30 -11.64
Si  5.73 -12.07  0.77
Si -0.01 -8.83 10.06
Si -7.65  4.41 10.06
Si -5.74 -9.86  7.01
Si 11.40  0.05  7.03
Si -5.76 -3.32 -11.64
Si  9.53 -7.74 -5.40
Si -9.56 -7.66 -5.47
