500
set: 274.00  0.00  0.00
Si -0.02 -0.00  0.03
Si  0.05  0.03 -2.16
Si  1.79  1.06  0.72
Si -0.07 -2.11  0.73
Si -1.86  1.04  0.74
Si -1.75 -1.02 -2.93
Si  3.57  0.03  0.03
Si -1.78  3.10 -0.03
Si  1.76  3.13 -0.04
Si -0.05 -2.10  2.91
Si -3.59 -0.01 -0.02
Si -1.83  0.99  2.94
Si  1.82  1.04  2.93
Si  1.80 -1.05 -2.94
Si -1.84 -3.10 -0.05
Si  1.77 -3.15  0.03
Si  0.04  2.07 -2.96
Si  1.76 -1.08  3.63
Si -0.01  2.01  3.66
Si -1.76  3.09 -2.21
Si  3.60  0.00 -2.17
Si -3.57  0.04 -2.22
Si -3.58 -2.08  0.73
Si  0.00  4.13  0.81
Si  1.78 -3.12 -2.20
Si  3.59 -2.07  0.75
Si -1.81 -3.10 -2.23
Si  1.78  3.13 -2.24
Si -1.83 -1.07  3.73
Si -0.01  4.08  2.96
Si  3.57  2.03 -2.94
Si  3.59 -2.06  2.93
Si -3.54  2.12 -2.97
Si -3.60 -2.06  2.95
Si -0.02 -4.21 -2.91
Si  3.57  4.12  0.74
Si -5.35  1.03  0.78
Si -3.61  4.11  0.68
Si -1.82 -0.97 -5.12
Si -3.54  2.13  3.65
Si  0.04 -4.16  3.65
Si  0.04  2.07 -5.15
Si  1.85 -0.98 -5.16
Si  3.57  2.15  3.69
Si  1.78 -5.23  0.68
Si -1.82 -5.22  0.74
Si  5.44  1.03  0.78
Si -3.51  4.18  2.89
Si  1.79 -1.01  5.82
Si -1.80 -5.14  2.92
Si  5.37  3.08  0.03
Si  0.00 -2.02 -5.85
Si  0.02  6.19  0.05
Si -5.36 -1.00 -2.94
Si  3.60 -4.13 -2.90
Si  1.89 -5.16  2.89
Si -1.79  5.21 -2.90
Si -5.42  3.08  0.03
Si -5.38 -3.15  0.05
Si -3.60 -4.12 -2.99
Si  0.04  2.12  5.87
Si -5.39  1.10  2.95
Si  5.39  1.10  2.95
Si -1.80  1.09 -5.89
Si  3.59  4.20  2.92
Si  5.43 -1.00 -2.94
Si -1.79 -1.02  5.91
Si  5.41 -3.15  0.05
Si -0.02 -6.26  0.03
Si  1.79  5.22 -2.99
Si  1.89  1.06 -5.92
Si -5.37 -3.06 -2.15
Si  0.00 -4.10 -5.12
Si  5.38  3.06 -2.19
Si -5.40  3.06 -2.19
Si  5.42 -3.06 -2.15
Si -1.76  5.21  3.65
Si  3.63 -4.13  3.65
Si -3.63 -4.13  3.66
Si  1.77  5.21  3.66
Si -5.39 -0.98  3.68
Si  5.39 -0.98  3.68
Si  0.03  6.28 -2.15
Si -3.63  2.10 -5.15
Si  3.63  2.10 -5.16
Si -0.01 -6.29 -2.19
Si  0.03  0.05  6.66
Si  0.04 -4.16  5.85
Si -3.62  6.20  0.03
Si  3.55  6.24 -0.05
Si -3.59  2.06  5.87
Si -3.57 -2.07 -5.88
Si  3.56 -2.12 -5.87
Si  7.20 -0.01 -0.02
Si -0.05  4.13 -5.90
Si -3.64 -6.22 -0.04
Si  3.61 -6.24 -0.03
Si -7.21  0.03  0.03
Si  3.64  2.09  5.88
Si -1.83  5.16 -5.08
Si  1.78 -3.10  6.57
Si  3.57 -4.18 -5.08
Si  3.58  0.01  6.57
Si -7.18  0.00 -2.17
Si -1.76 -3.14  6.59
Si  1.76  5.15 -5.18
Si  1.81  7.26  0.73
Si -7.19 -2.07  0.75
Si -3.61 -6.21 -2.24
Si  1.82  3.15  6.59
Si -3.62  6.22 -2.20
Si -1.80  7.27  0.75
Si -3.62 -0.01  6.60
Si  5.38 -1.11 -5.14
Si  7.20 -2.08  0.73
Si  3.58  6.24 -2.23
Si -5.39 -5.21  0.81
Si -5.40 -1.11 -5.14
Si  5.40 -5.21  0.81
Si  7.22  0.04 -2.22
Si -1.79  3.12  6.64
Si  3.63 -6.25 -2.21
Si -3.63 -4.19 -5.18
Si -3.54 -4.11  5.84
Si  5.37  5.13 -2.91
Si  5.38  0.97 -5.84
Si -1.82  5.14  5.86
Si -5.41  5.13 -2.91
Si -5.41  0.97 -5.84
Si  1.79 -5.18 -5.86
Si  1.86 -7.22 -2.97
Si -1.80 -5.17 -5.88
Si  7.19 -2.06  2.95
Si -7.20 -2.06  2.93
Si -3.60  4.17 -5.86
Si  5.37 -1.10  5.89
Si -7.21  2.03 -2.94
Si  3.57 -4.20  5.86
Si  3.59  4.17 -5.88
Si -1.80  7.28  2.93
Si  1.79  7.28  2.95
Si  1.86  5.23  5.84
Si -5.41 -1.10  5.89
Si  5.38 -5.26  2.96
Si -1.82 -7.31 -2.94
Si -5.41 -5.26  2.96
Si  7.25  2.12 -2.97
Si  1.85 -7.21  3.65
Si -1.82 -7.19  3.69
Si  0.04 -2.08 -8.02
Si  7.17  4.11  0.68
Si -5.35  5.18  3.65
Si -1.82  1.00 -8.07
Si -7.21  4.12  0.74
Si  0.04 -8.31  0.78
Si  5.43  5.18  3.65
Si -7.21  2.15  3.69
Si  1.78  0.99 -8.13
Si  7.24  2.13  3.65
Si  0.00 -8.24  2.95
Si -0.02 -0.04 -8.78
Si -7.18 -4.13 -2.90
Si  7.18 -4.12 -2.99
Si -7.19  4.20  2.92
Si  0.04  8.35 -2.94
Si  0.02 -0.04  8.85
Si  7.28  4.18  2.89
Si  5.33  7.23  0.73
Si  8.92  1.04  0.74
Si -7.15 -4.13  3.65
Si  7.16 -4.13  3.66
Si -0.01  6.17  6.61
Si  3.53 -2.08 -8.07
Si  3.53 -8.30  0.74
Si -3.60 -8.28  0.72
Si  1.77 -7.25 -5.15
Si -7.15  2.10 -5.16
Si  7.16  2.10 -5.15
Si -0.07  4.11 -8.08
Si -1.76 -7.25 -5.16
Si -8.99  1.06  0.72
Si -5.46  7.23  0.73
Si  0.05 -6.20  6.65
Si -5.34  3.15  6.65
Si -3.60 -2.06 -8.09
Si  5.38 -3.17  6.61
Si -5.39  5.24 -5.12
Si  5.39  5.24 -5.12
Si -5.40 -3.17  6.61
Si  0.00  8.36  3.68
Si  5.45  3.15  6.65
Si  3.55  0.01  8.76
Si  5.34  7.24  2.91
Si  1.76 -3.10  8.77
Si  8.95 -3.10 -0.05
Si -5.35  5.18  5.85
Si  7.15 -6.22 -0.04
Si  7.17  6.20  0.03
Si  1.77  3.08 -8.78
Si -1.82 -3.09 -8.77
Si  8.96  0.99  2.94
Si -1.83  7.22 -5.87
Si -1.78 -3.12  8.78
Si -7.15  2.09  5.88
Si  1.80  3.10  8.79
Si -1.82 -9.31  0.03
Si -8.97  1.04  2.93
Si -1.75 -7.25  5.88
Si -3.57 -8.30  2.93
Si -3.59  8.29 -2.94
Si -5.35 -7.27 -2.96
Si  1.80  9.33 -0.02
Si -7.17 -6.24 -0.03
Si -8.98 -1.05 -2.94
Si  7.20  2.06  5.87
Si  5.34 -5.21 -5.90
Si -5.44  7.24  2.91
Si  5.44  5.18  5.85
Si  1.80 -7.28  5.87
Si  1.80 -9.35 -0.02
Si  1.82  7.27 -5.88
Si  9.01  3.10 -0.03
Si  7.21 -2.07 -5.88
Si  1.80 -3.12 -8.83
Si  3.56 -8.35  2.94
Si  3.64  8.32 -2.93
Si -1.82  9.37  0.03
Si -7.22 -2.12 -5.87
Si -3.62 -0.03  8.83
Si -9.01 -3.15  0.03
Si  3.61 -0.01 -8.84
Si  5.44 -7.27 -2.96
Si  9.04 -1.02 -2.93
Si -7.24  6.24 -0.05
Si -9.03  3.13 -0.04
Si -1.82  3.14  8.84
Si -3.64  0.01 -8.85
Si -1.84  3.13 -8.85
Si -5.44 -5.21 -5.90
Si -5.39  1.02 -8.00
Si  5.40  1.02 -8.00
Si -0.01  8.24 -5.14
Si -3.57 -6.19  6.59
Si -3.63  8.26  3.63
Si  1.82 -9.31 -2.22
Si  7.17  6.22 -2.20
Si  7.17 -0.01  6.60
Si -7.20  0.01  6.57
Si -1.80 -5.18 -8.06
Si  7.18 -6.21 -2.24
Si  3.57  8.27  3.73
Si -3.61  6.25  6.57
Si -1.79 -9.34 -2.17
Si  3.63  6.20  6.59
Si  3.59  4.16 -8.06
Si -7.16 -6.25 -2.21
Si  8.98 -3.10 -2.23
Si -1.79  9.34 -2.17
Si -3.58  4.15 -8.07
Si  1.81  1.03  9.54
Si  8.96 -1.07  3.73
Si -7.22 -4.18 -5.08
Si  1.81 -5.20 -8.07
Si -1.80  1.04  9.55
Si  7.16 -4.19 -5.18
Si -9.01 -3.12 -2.20
Si -9.03 -1.08  3.63
Si  3.60 -6.23  6.64
Si -7.20  6.24 -2.23
Si -9.00  3.13 -2.24
Si  9.03  3.09 -2.21
Si  1.82  9.38 -2.22
Si  5.38 -7.33  3.66
Si -5.40 -7.33  3.66
Si  0.00 -2.10  9.61
Si -0.02  8.25  5.89
Si  7.19  4.17 -5.86
Si  7.25 -4.11  5.84
Si -7.20  4.17 -5.88
Si -7.21 -4.20  5.86
Si -0.01 -8.37 -5.84
Si -8.94 -0.98 -5.16
Si -3.61 -2.12  9.48
Si  8.97 -0.97 -5.12
Si -5.35 -7.28 -5.15
Si  8.97 -5.22  0.74
Si  0.04 10.37  0.78
Si  3.57 -2.11  9.55
Si -9.01 -5.23  0.68
Si  5.43 -7.28 -5.15
Si  3.57  8.38 -5.12
Si -3.54  8.36 -5.16
Si  0.04  4.15  9.59
Si -8.90 -5.16  2.89
Si -5.38  3.08 -8.76
Si -5.36 -7.22  5.87
Si -8.90  1.06 -5.92
Si  0.04 -10.34 -2.94
Si  5.41  3.08 -8.76
Si  5.38 -3.12 -8.77
Si  3.59 -8.25 -5.89
Si  8.99 -5.14  2.92
Si -0.02  6.22 -8.77
Si -3.51 -8.28 -5.92
Si -9.00 -1.01  5.82
Si 10.77 -0.00  0.03
Si -5.41 -3.12 -8.77
Si  0.02 -6.26 -8.76
Si  5.43 -7.22  5.87
Si  5.38  9.34  0.03
Si  5.38 -9.35  0.03
Si -3.60  8.33  5.82
Si -0.02  6.19  8.84
Si  9.00  5.21 -2.90
Si -5.41  9.34  0.03
Si -5.41 -9.35  0.03
Si  8.99  1.09 -5.89
Si  5.38  3.11  8.84
Si -10.80 -0.00  0.03
Si  5.37 -3.15  8.84
Si  9.00 -1.02  5.91
Si -0.02 -6.23  8.84
Si -5.39  7.33 -5.85
Si  5.39  7.33 -5.85
Si  3.60  8.32  5.91
Si -9.00  5.22 -2.99
Si -5.41  3.11  8.84
Si -5.42 -3.15  8.84
Si  0.00 10.44  2.95
Si -5.34 -9.31 -2.16
Si -10.73  0.03 -2.16
Si 10.72 -2.11  0.73
Si  0.00 -10.32  3.68
Si  5.33  1.00  9.53
Si  1.79 -5.17  9.53
Si  3.53 10.38  0.74
Si  7.18 -8.28  0.72
Si  3.53  4.15  9.54
Si  5.45 -9.31 -2.16
Si  5.33 -5.23 -8.08
Si -0.01 -0.06 -11.00
Si -5.34  9.37 -2.16
Si -3.60  4.17  9.53
Si  7.18 -2.06 -8.09
Si -1.86  7.26 -8.07
Si -1.86 -5.19  9.54
Si -3.60 10.40  0.72
Si -5.46  1.00  9.53
Si  1.79  7.29 -8.09
Si -9.02  5.21  3.66
Si  9.03  5.21  3.65
Si -7.26 -2.08 -8.07
Si 10.84  0.03 -2.16
Si  5.45  9.37 -2.16
Si -7.26 -8.30  0.74
Si -5.46 -5.23 -8.08
Si -10.85 -2.11  0.73
Si  3.56 10.34  2.94
Si 10.74 -2.10  2.91
Si -10.74  2.07 -2.96
Si  3.61  6.22  8.78
Si  3.57  6.25 -8.77
Si -7.15  8.32 -2.93
Si -3.59 -6.24  8.79
Si -3.64  6.24  8.77
Si -7.24  0.01  8.76
Si  7.20  8.29 -2.94
Si -3.57 10.38  2.93
Si  3.64 -10.36 -2.93
Si  7.15  0.01 -8.85
Si  7.17 -0.03  8.83
Si  3.57 -6.20  8.84
Si -3.62 -6.26 -8.78
Si  7.21 -8.30  2.93
Si -3.59  6.22 -8.83
Si -3.59 -10.39 -2.94
Si -7.17 -0.01 -8.84
Si  3.55 -6.21 -8.85
Si -10.84 -2.10  2.91
Si 10.83  2.07 -2.96
Si -7.22 -8.35  2.94
Si  7.16  8.26  3.63
Si  8.96  5.16 -5.08
Si -7.16  6.20  6.59
Si  0.00 -8.32 -8.00
Si -1.79 -3.11 -10.97
Si -1.81 -9.33  6.57
Si  7.18  6.25  6.57
Si 10.78  2.01  3.66
Si -8.96  3.15  6.59
Si -9.00 -3.10  6.57
Si  7.22 -6.19  6.59
Si -8.98  7.26  0.73
Si  1.78  9.34  6.60
Si -10.79  2.01  3.66
Si -7.19  4.16 -8.06
Si -10.78  4.13  0.81
Si -1.81  9.36  6.57
Si -1.80 -11.41  0.75
Si  1.78  3.11 -11.01
Si  1.78 -9.35  6.60
Si 10.79  4.13  0.81
Si  8.99  7.27  0.75
Si  7.20  4.15 -8.07
Si  1.81 -11.42  0.73
Si  1.82 -3.08 -11.03
Si -7.18 -6.23  6.64
Si -7.22  8.27  3.73
Si  3.63 -0.02 -11.02
Si  8.99  3.12  6.64
Si  9.03 -3.14  6.59
Si -9.03  5.15 -5.18
Si -3.63 -10.42  3.63
Si -1.81  3.13 -11.04
Si  3.57 -10.41  3.73
Si -3.61  0.02 -11.05
Si -0.01 -10.45 -5.14
Si -0.01 10.31 -5.84
Si -8.93 -7.22 -2.97
Si -8.93  5.23  5.84
Si -1.82 11.37 -2.94
Si  8.97  5.14  5.86
Si -0.02  2.02 -11.72
Si 10.77  4.08  2.96
Si -1.80 -11.40  2.93
Si  1.79 -11.40  2.95
Si  8.98 -5.17 -5.88
Si -8.99 -5.18 -5.86
Si -1.80  1.05 11.74
Si -10.80  4.08  2.96
Si 10.77 -4.21 -2.91
Si  8.98  7.28  2.93
Si  1.79  1.05 11.76
Si -8.99  7.28  2.95
Si -1.82 -1.09 -11.75
Si  8.97 -7.31 -2.94
Si -10.81 -4.21 -2.91
Si  1.86 -1.00 -11.78
Si -0.01 -2.14 11.77
Si  1.86 11.46 -2.97
Si -0.02 -10.44  5.89
Si -8.94 -7.21  3.65
Si  3.57 -10.31 -5.12
Si  1.78  7.22  9.48
Si -5.35  7.26 -8.02
Si -3.54 -10.32 -5.16
Si  8.97 -7.19  3.69
Si  7.17 -2.12  9.48
Si -10.75 -4.16  3.65
Si -10.75  2.07 -5.15
Si  8.97  1.00 -8.07
Si  5.44  7.26 -8.02
Si -1.82  7.23  9.55
Si  3.57 -8.34 -8.07
Si -5.35 -5.20  9.59
Si -7.21 -2.11  9.55
Si 10.83 -4.16  3.65
Si 10.83  2.07 -5.15
Si -9.01  0.99 -8.13
Si -7.21  8.38 -5.12
Si  1.85 11.47  3.65
Si  5.44 -5.20  9.59
Si -3.61 -8.35 -8.13
Si -1.82 11.49  3.69
Si  7.24  8.36 -5.16
Si -3.51 -2.05 11.70
Si -3.60 -10.35  5.82
Si -0.02 12.42  0.03
Si -10.77  6.19  0.05
Si  3.60  2.09 -11.71
Si -10.75  2.12  5.87
Si -7.19 -8.25 -5.89
Si  3.59 -2.03 11.73
Si -10.79 -2.02 -5.85
Si 10.79 -2.02 -5.85
Si  0.04 -4.11 -11.75
Si  7.18  8.33  5.82
Si 10.80  6.19  0.05
Si 10.77 -6.26  0.03
Si  3.60 -10.36  5.91
Si -3.51 10.41 -5.92
Si -7.18  8.32  5.91
Si 10.82  2.12  5.87
Si  0.02 -12.49  0.05
Si  0.00  4.21 11.76
Si -10.81 -6.26  0.03
Si  3.59 10.43 -5.89
Si -3.60  2.11 -11.79
Si  7.28 -8.28 -5.92
Si  0.03 -6.18 -10.95
Si -5.34 -3.08 -10.97
Si  0.03 -12.40 -2.15
Si -0.01 12.40 -2.19
Si -5.37  3.16 -10.95
Si -1.76 -1.02 12.45
Si -10.79 -4.10 -5.12
Si  5.42  3.16 -10.95
Si 10.79 -4.10 -5.12
Si  5.45 -3.08 -10.97
Si  0.05  6.26 -10.97
