500
set: 1482.00  0.00  0.00
Si -0.61 -0.18 -0.40
Si  0.59  0.69  1.74
Si  1.81 -1.10  0.64
Si -2.11  1.37  0.38
Si  0.87  2.32 -0.62
Si -0.99 -1.30  2.14
Si  0.93 -2.55 -0.62
Si  2.13  0.54 -1.75
Si -0.28  1.10 -3.19
Si -1.86 -0.90 -2.79
Si -1.68 -2.35 -2.12
Si  3.31  1.37  0.38
Si -0.88  2.12  2.81
Si -1.74  2.52 -2.12
Si -3.29  0.54 -1.75
Si -3.61 -1.10  0.64
Si -2.43  0.14  3.18
Si -0.82 -2.75  2.81
Si -2.05 -3.50  0.38
Si  1.75  3.77  0.64
Si -1.05  3.57  2.14
Si  2.99  0.14  3.18
Si  0.95 -0.70 -4.30
Si  0.65 -4.18  1.74
Si  0.26 -0.58  4.53
Si  3.56 -0.90 -2.79
Si -0.67  4.69 -0.40
Si  4.81 -0.18 -0.40
Si  3.37 -3.50  0.38
Si  3.74 -2.35 -2.12
Si  3.68  2.52 -2.12
Si -0.22 -3.77 -3.19
Si  1.73  1.91  4.31
Si  4.42 -1.30  2.14
Si -0.55 -5.04 -0.40
Si -4.55  2.32 -0.62
Si  2.19 -4.33 -1.75
Si -4.83  0.69  1.74
Si -4.49 -2.55 -0.62
Si -1.92  3.97 -2.79
Si -3.67  3.77  0.64
Si  2.44  1.78 -4.55
Si  1.79 -2.95  4.31
Si -1.47  0.23 -5.33
Si -1.24  0.97  5.31
Si -3.23 -4.33 -1.75
Si -2.97  1.78 -4.55
Si  4.54  2.12  2.81
Si  0.53  5.56  1.74
Si  0.06 -2.14 -5.55
Si  3.50  3.97 -2.79
Si -3.69  1.91  4.31
Si  4.36  3.57  2.14
Si -6.03 -0.18 -0.40
Si  2.50 -3.09 -4.55
Si  2.07  5.41 -1.75
Si  4.60 -2.75  2.81
Si  0.89  4.17 -4.30
Si  5.14  1.10 -3.19
Si -2.37 -4.73  3.18
Si  0.00  2.73 -5.55
Si -2.91 -3.09 -4.55
Si  0.20  4.29  4.53
Si -4.47 -0.70 -4.30
Si  1.87 -5.97  0.64
Si  6.01  0.69  1.74
Si  2.68 -1.51  5.57
Si -3.63 -2.95  4.31
Si -2.74 -1.51  5.57
Si -2.49  5.00  3.18
Si  3.05 -4.73  3.18
Si -4.77 -4.18  1.74
Si -0.94 -6.17  2.14
Si -3.35  5.41 -1.75
Si  2.93  5.00  3.18
Si -2.17  6.24  0.38
Si -5.70  1.10 -3.19
Si  3.95  0.23 -5.33
Si -1.80 -5.76 -2.79
Si  4.75  4.69 -0.40
Si -1.18 -3.90  5.31
Si  6.29  2.32 -0.62
Si -0.34  5.96 -3.19
Si  4.18  0.97  5.31
Si  1.45  0.28  6.67
Si  6.35 -2.55 -0.62
Si  1.26  0.95 -6.69
Si -6.41 -1.30  2.14
Si -5.16 -0.58  4.53
Si -3.55 -5.97  0.64
Si  2.62  3.36  5.57
Si  4.87 -5.04 -0.40
Si  3.25  6.24  0.38
Si -2.80  3.36  5.57
Si  0.32 -5.45  4.53
Si  1.01 -5.56 -4.30
Si  5.20 -3.77 -3.19
Si -1.41 -4.64 -5.33
Si -6.30  2.12  2.81
Si  0.81  7.19 -0.62
Si -0.13 -1.71  7.08
Si  5.68 -0.58  4.53
Si  7.23 -1.10  0.64
Si  3.62 -5.76 -2.79
Si -6.24 -2.75  2.81
Si -5.64 -3.77 -3.19
Si  0.99 -7.42 -0.62
Si -4.53  4.17 -4.30
Si -1.53  5.10 -5.33
Si  6.07 -4.18  1.74
Si -0.94  6.99  2.81
Si -4.89  5.56  1.74
Si -7.53  1.37  0.38
Si -1.62 -7.21 -2.12
Si -6.09  4.69 -0.40
Si -6.47  3.57  2.14
Si  6.37 -0.70 -4.30
Si -2.55 -1.94 -7.06
Si -0.19  3.16  7.08
Si  7.54  0.54 -1.75
Si -3.97  0.28  6.67
Si -7.10 -2.35 -2.12
Si -5.97 -5.04 -0.40
Si  4.24 -3.90  5.31
Si -7.28 -0.90 -2.79
Si  2.87 -1.94 -7.06
Si  1.32 -3.92 -6.69
Si -7.16  2.52 -2.12
Si -1.80  7.39 -2.12
Si  4.48 -6.17  2.14
Si -0.01  1.71  7.74
Si -4.16  0.95 -6.69
Si -1.30  5.84  5.31
Si -5.36 -2.14 -5.55
Si -2.61  2.93 -7.06
Si  5.48 -2.14 -5.55
Si  7.17  3.77  0.64
Si  4.01 -4.64 -5.33
Si -5.22  4.29  4.53
Si  2.81  2.93 -7.06
Si -0.76 -7.62  2.81
Si  2.69 -0.49 -7.72
Si -2.73 -0.49 -7.72
Si  1.67  6.78  4.31
Si -5.42  2.73 -5.55
Si  5.42  2.73 -5.55
Si  1.51 -4.58  6.67
Si -7.47 -3.50  0.38
Si -1.56 -0.27  8.11
Si -4.41 -5.56 -4.30
Si  5.95  5.56  1.74
Si -1.14  1.50 -8.12
Si  3.89  5.10 -5.33
Si  0.05 -3.16  7.74
Si  5.62  4.29  4.53
Si  2.38  6.65 -4.55
Si  3.80 -7.21 -2.12
Si  5.08  5.96 -3.19
Si -7.85  0.14  3.18
Si  3.62  7.39 -2.12
Si  1.39  5.15  6.67
Si -4.61  7.19 -0.62
Si  7.15  1.91  4.31
Si -6.66  0.97  5.31
Si -1.99 -8.36  0.38
Si -3.03  6.65 -4.55
Si -4.43 -7.42 -0.62
Si  6.31  4.17 -4.30
Si -6.89  0.23 -5.33
Si -5.10 -5.45  4.53
Si  4.48  6.99  2.81
Si -4.10 -3.92 -6.69
Si -1.11  8.44  2.14
Si -7.34  3.97 -2.79
Si  1.69  8.64  0.64
Si  8.73  1.37  0.38
Si -1.08 -3.37 -8.12
Si -3.75  6.78  4.31
Si -2.68 -6.38  5.57
Si -5.76  5.96 -3.19
Si  2.74 -6.38  5.57
Si  4.12  5.84  5.31
Si -8.71  0.54 -1.75
Si  7.21 -2.95  4.31
Si  7.61 -4.33 -1.75
Si  1.20  5.82 -6.69
Si  0.12 -7.01 -5.55
Si  3.86 -0.27  8.11
Si -3.91 -4.58  6.67
Si  8.41  0.14  3.18
Si  5.29 -1.71  7.08
Si  3.43 -8.36  0.38
Si -6.35 -6.17  2.14
Si -9.03 -1.10  0.64
Si  5.74 -5.45  4.53
Si  1.85 -7.82  4.31
Si -5.55 -1.71  7.08
Si -0.16 -8.64 -3.19
Si  0.08 -0.29 -9.23
Si  0.71 -9.05  1.74
Si  7.86  1.78 -4.55
Si  2.63  4.38 -7.72
Si  4.28  1.50 -8.12
Si -2.79  4.38 -7.72
Si -6.60 -3.90  5.31
Si -4.03  5.15  6.67
Si  5.23  3.16  7.08
Si  4.66 -7.62  2.81
Si  7.49  5.41 -1.75
Si -0.06  7.59 -5.55
Si -3.73  8.64  0.64
Si  8.98 -0.90 -2.79
Si  7.29 -5.97  0.64
Si -1.62  4.60  8.11
Si  8.79 -3.50  0.38
Si -1.98  8.84 -2.79
Si  6.68  0.95 -6.69
Si  2.56 -7.96 -4.55
Si  6.43 -5.56 -4.30
Si  6.23  7.19 -0.62
Si -5.61  3.16  7.08
Si  1.12 -0.99  9.46
Si  6.87  0.28  6.67
Si  5.41  1.71  7.74
Si -0.73  9.56 -0.40
Si -2.85 -7.96 -4.55
Si -5.43  1.71  7.74
Si -3.57 -7.82  4.31
Si  2.25 -9.20 -1.75
Si  7.92 -3.09 -4.55
Si -7.22 -5.76 -2.79
Si -7.79 -4.73  3.18
Si -0.07 -6.57  7.08
Si  9.10  2.52 -2.12
Si  9.16 -2.35 -2.12
Si  4.30  8.44  2.14
Si -8.39  1.78 -4.55
Si -1.50 -5.14  8.11
Si  2.60  1.51  9.24
Si -2.67 -5.36 -7.72
Si -2.82  1.51  9.24
Si  2.75 -5.36 -7.72
Si  4.34 -3.37 -8.12
Si -4.22  5.82 -6.69
Si  6.41 -7.42 -0.62
Si -6.83 -4.64 -5.33
Si -8.65 -4.33 -1.75
Si -7.59  6.24  0.38
Si -6.36  6.99  2.81
Si -9.09  3.77  0.64
Si  1.58  2.18 -9.48
Si -7.91  5.00  3.18
Si -3.17 -9.20 -1.75
Si  3.44  8.84 -2.79
Si -0.49 -9.91 -0.40
Si -5.37 -3.16  7.74
Si  8.10 -1.51  5.57
Si -8.33 -3.09 -4.55
Si  5.47 -3.16  7.74
Si  1.64 -2.69 -9.48
Si -8.16 -1.51  5.57
Si  0.83  9.04 -4.30
Si  3.80  4.60  8.11
Si -2.49 -6.81 -7.06
Si -6.95  5.10 -5.33
Si  8.92  3.97 -2.79
Si  9.84 -1.30  2.14
Si -0.07  6.58  7.74
Si  2.66 -3.36  9.24
Si -6.18 -7.62  2.81
Si  8.47 -4.73  3.18
Si  0.14  9.15  4.53
Si -2.76 -3.36  9.24
Si  2.93 -6.81 -7.06
Si 10.23 -0.18 -0.40
Si  8.35  5.00  3.18
Si -9.91 -2.55 -0.62
Si -9.11  1.91  4.31
Si -9.97  2.32 -0.62
Si  2.56  8.23  5.57
Si -0.38  0.56 10.24
Si  6.74 -3.92 -6.69
Si  1.06  3.88  9.46
Si  0.02  4.58 -9.23
Si -7.04 -7.21 -2.12
Si -1.12 -8.77  5.31
Si  8.04  3.36  5.57
Si -2.86  8.23  5.57
Si -4.71 -9.05  1.74
Si -6.72  5.84  5.31
Si  3.92 -5.14  8.11
Si -2.31 -9.60  3.18
Si -1.20  6.37 -8.12
Si -5.30 -7.01 -5.55
Si -10.25  0.69  1.74
Si -4.29 -0.99  9.46
Si -9.05 -2.95  4.31
Si -8.77  5.41 -1.75
Si -3.84  2.18 -9.48
Si -8.22  3.36  5.57
Si  5.54 -7.01 -5.55
Si -7.22  7.39 -2.12
Si -2.34  0.63 -10.27
Si -6.56  1.50 -8.12
Si -3.78 -2.69 -9.48
Si  9.96  2.12  2.81
Si  0.14 -5.16 -9.23
Si  3.11 -9.60  3.18
Si  0.47 10.43  1.74
Si  5.26 -8.64 -3.19
Si  2.01 10.28 -1.75
Si  9.78  3.57  2.14
Si -0.80 -1.74 -10.48
Si  4.69  9.56 -0.40
Si  6.93 -4.58  6.67
Si -5.34 -0.29 -9.23
Si -2.55  9.87  3.18
Si  8.67  6.24  0.38
Si -6.98 -0.27  8.11
Si -0.25  8.03  7.08
Si  7.09  6.78  4.31
Si  3.08  0.63 -10.27
Si  5.50 -0.29 -9.23
Si  2.87  9.87  3.18
Si 10.02 -2.75  2.81
Si -5.58 -8.64 -3.19
Si  9.37  0.23 -5.33
Si -8.97 -5.97  0.64
Si -9.89 -0.70 -4.30
Si -7.97 -1.94 -7.06
Si  5.36  7.59 -5.55
Si -1.88 -1.91 10.50
Si  6.81  5.15  6.67
Si -2.67  7.80 -7.06
Si  2.75  7.80 -7.06
Si -6.53  8.44  2.14
Si -5.48  7.59 -5.55
Si -6.50 -3.37 -8.12
Si -3.41 10.28 -1.75
Si -0.86  3.13 -10.48
Si -1.35 -9.51 -5.33
Si  9.60  0.97  5.31
Si -4.59  9.04 -4.30
Si  1.93 -10.84  0.64
Si  5.35 -6.57  7.08
Si  8.29 -1.94 -7.06
Si  6.62  5.82 -6.69
Si  6.13 -9.05  1.74
Si  9.04 -5.76 -2.79
Si -1.94  2.96 10.50
Si  4.93 -9.91 -0.40
Si -8.03  2.93 -7.06
Si 10.56  1.10 -3.19
Si -5.49 -6.57  7.08
Si  4.30 -8.77  5.31
Si -4.36  3.88  9.46
Si -0.32 -4.31 10.24
Si -1.74 -10.63 -2.79
Si  1.38 -8.79 -6.69
Si  0.11 -8.03  7.74
Si -10.19 -4.18  1.74
Si  4.22  6.37 -8.12
Si -7.41 -8.36  0.38
Si  1.18 -5.86  9.46
Si  7.11  8.64  0.64
Si 10.17  4.69 -0.40
Si  8.11 -0.49 -7.72
Si  7.80  6.65 -4.55
Si  8.23  2.93 -7.06
Si -8.14 -0.49 -7.72
Si  3.54 -1.91 10.50
Si  0.38 -10.32  4.53
Si -0.88 -11.04  2.14
Si -0.40 10.83 -3.19
Si  1.07 -10.43 -4.30
Si -2.28 -4.23 -10.27
Si -2.23 11.11  0.38
Si -6.15  9.56 -0.40
Si -3.49 -10.84  0.64
Si -1.59  9.97 -5.33
Si  5.04  0.56 10.24
Si  3.48  2.96 10.50
Si -11.45 -0.18 -0.40
Si 10.29 -5.04 -0.40
Si  5.35  6.58  7.74
Si -5.28  9.15  4.53
Si  2.54  6.38  9.24
Si  7.27 -7.82  4.31
Si -9.38  0.28  6.67
Si -10.58 -0.58  4.53
Si  3.14 -4.23 -10.27
Si -5.91 -9.91 -0.40
Si  6.54 -0.99  9.46
Si -5.49  6.58  7.74
Si  3.19 11.11  0.38
Si 11.43  0.69  1.74
Si  4.62 -1.74 -10.48
Si  3.68 -10.63 -2.79
Si -2.88  6.38  9.24
Si -0.44  5.43 10.24
Si -1.02 -8.23 -8.12
Si -9.95  4.17 -4.30
Si -11.12  1.10 -3.19
Si  5.56  9.15  4.53
Si -5.40  4.58 -9.23
Si  4.07 -9.51 -5.33
Si  5.44  4.58 -9.23
Si -4.95 10.43  1.74
Si  1.57 -9.45  6.67
Si -8.45  6.65 -4.55
Si -7.04  4.60  8.11
Si  9.65 -3.90  5.31
Si  0.40  1.35 -11.62
Si 10.62 -3.77 -3.19
Si -8.10 -6.38  5.57
Si -9.58  0.95 -6.69
Si  8.16 -6.38  5.57
Si -4.04 -8.79 -6.69
Si  9.43 -4.64 -5.33
Si -5.80  0.56 10.24
Si  6.25  9.04 -4.30
Si -5.28 -5.16 -9.23
Si  2.32 -0.12 11.61
Si -6.92 -5.14  8.11
Si -10.31  5.56  1.74
Si  4.55  3.13 -10.48
Si -7.40  8.84 -2.79
Si  9.90 -6.17  2.14
Si  9.04  7.39 -2.12
Si  9.31  5.10 -5.33
Si  5.17  8.03  7.08
Si -2.40  5.50 -10.27
Si  9.22 -7.21 -2.12
Si -4.24 -5.86  9.46
Si  1.52  7.05 -9.48
Si  3.83  9.97 -5.33
Si  5.56 -5.16 -9.23
Si 11.71  2.32 -0.62
Si  8.05  4.38 -7.72
Si  7.00  2.18 -9.48
Si 11.10 -0.58  4.53
Si -3.10 -0.12 11.61
Si -1.36 10.70  5.31
Si  3.02  5.50 -10.27
Si 11.77 -2.55 -0.62
Si -9.83 -5.56 -4.30
Si -8.20  4.38 -7.72
Si -4.35 -10.43 -4.30
Si  0.75 12.06 -0.62
Si -11.83 -1.30  2.14
Si  7.67 -9.20 -1.75
Si  5.89 10.43  1.74
Si  6.48  3.88  9.46
Si -11.06 -3.77 -3.19
Si -5.67  8.03  7.08
Si  1.33 10.02  6.67
Si  7.06 -2.69 -9.48
Si  4.54 -11.04  2.14
Si  0.46 -3.52 -11.62
Si  7.98 -7.96 -4.55
Si -6.54 -8.77  5.31
Si  8.85 -8.36  0.38
Si -9.17  6.78  4.31
Si -3.85 -9.45  6.67
Si  0.74 -2.11 12.01
Si -1.00 11.85  2.81
Si  5.10 -4.31 10.24
Si -11.71  2.12  2.81
Si  1.70 -7.55 -9.48
Si  2.01 -1.54 -11.99
Si -6.62  6.37 -8.12
Si -9.52 -3.92 -6.69
Si -11.65 -2.75  2.81
Si -10.78 -2.14 -5.55
Si -6.22 -1.74 -10.48
Si  2.57  9.25 -7.72
Si  9.28 -0.27  8.11
Si  8.02  1.51  9.24
Si -10.64  4.29  4.53
Si  0.68  2.76 12.01
Si -5.04 -10.32  4.53
Si 11.48 -4.18  1.74
Si  1.05 -12.29 -0.62
Si -9.85 -7.42 -0.62
Si -8.27 -7.96 -4.55
Si -9.32 -4.58  6.67
Si -5.31 -8.03  7.74
Si -10.03  7.19 -0.62
Si  5.02 10.83 -3.19
Si -1.56 -12.08 -2.12
Si  4.40 -8.23 -8.12
Si  9.54  5.84  5.31
Si -2.85  9.25 -7.72
Si -8.08 -5.36 -7.72
Si -0.74 -6.61 -10.48
Si 10.90 -2.14 -5.55
Si -11.51  4.69 -0.40
Si  9.90  6.99  2.81
Si  5.53 -8.03  7.74
Si -3.90  7.05 -9.48
