500
set: 1345.00  0.00  0.00
Si  1.01 -0.31  0.13
Si  0.94  0.48 -1.91
Si -0.66 -1.77  1.10
Si  1.11  1.60  1.37
Si -1.47  0.78 -2.62
Si -0.57 -0.96  3.15
Si  2.79 -2.04  0.40
Si -0.67  3.33  1.10
Si  1.19  0.79  3.41
Si -3.07 -2.04  0.40
Si  2.71  2.22 -1.63
Si  1.12 -3.50  1.37
Si  2.62 -0.97 -2.88
Si  2.78  3.05  0.40
Si -3.15  2.22 -1.63
Si  2.72 -2.87 -1.63
Si -3.08  3.05  0.40
Si -3.23 -0.97 -2.88
Si -3.14 -2.87 -1.63
Si -2.26  0.49  4.12
Si -4.85 -0.31  0.13
Si  1.00  4.79  0.13
Si -0.49  2.23  4.39
Si  0.94 -4.61 -1.91
Si -1.55  1.59 -4.65
Si  4.39  0.78 -2.62
Si -4.75  1.60  1.37
Si -0.58  4.13  3.15
Si -1.46 -4.31 -2.62
Si -0.48 -2.87  4.39
Si -4.92  0.48 -1.91
Si  3.60  0.49  4.12
Si  1.02 -5.40  0.13
Si  5.20 -1.77  1.10
Si  1.20 -4.31  3.41
Si  2.62  4.12 -2.88
Si  2.54 -1.77 -4.92
Si -4.67  0.79  3.41
Si  0.93  5.58 -1.91
Si -3.24  4.12 -2.88
Si  0.13 -2.05 -5.62
Si -1.54 -3.50 -4.65
Si -4.74 -3.50  1.37
Si -1.65 -0.31 -5.89
Si -3.32 -1.77 -4.92
Si  5.28 -0.96  3.15
Si  5.19  3.33  1.10
Si  0.12  3.04 -5.62
Si  2.53  3.32 -4.92
Si  4.31  1.59 -4.65
Si -2.19 -0.30  6.16
Si -2.25 -4.61  4.12
Si -1.48  5.87 -2.62
Si  4.40 -4.31 -2.62
Si -0.41 -2.04  6.43
Si -3.33  3.32 -4.92
Si -4.85  4.79  0.13
Si -6.52 -1.77  1.10
Si -0.57 -6.06  3.15
Si  6.87 -0.31  0.13
Si  1.19  5.88  3.41
Si  1.11  6.69  1.37
Si -0.66 -6.86  1.10
Si -4.91 -4.61 -1.91
Si  6.80  0.48 -1.91
Si -0.42  3.05  6.43
Si  3.60 -4.61  4.12
Si  3.67 -0.30  6.16
Si -4.66 -4.31  3.41
Si  2.63 -6.06 -2.88
Si -6.43 -0.96  3.15
Si  4.21 -0.31 -5.89
Si  4.32 -3.50 -4.65
Si -4.84 -5.40  0.13
Si  6.97  1.60  1.37
Si  5.37  2.23  4.39
Si -2.27  5.58  4.12
Si  5.28  4.13  3.15
Si -6.53  3.33  1.10
Si -3.23 -6.06 -2.88
Si  5.38 -2.87  4.39
Si  2.00 -1.76  7.13
Si  2.79 -7.14  0.40
Si -4.93  5.58 -1.91
Si -1.66  4.78 -5.89
Si -3.06 -7.14  0.40
Si  4.38  5.87 -2.62
Si  3.59  5.58  4.12
Si -7.33  0.78 -2.62
Si -2.08  1.60  7.40
Si  7.05  0.79  3.41
Si  6.98 -3.50  1.37
Si  2.71  7.31 -1.63
Si  0.05  2.21 -7.66
Si -6.35  2.23  4.39
Si -2.19  4.79  6.16
Si  1.99  3.33  7.13
Si -3.15  7.31 -1.63
Si -1.72  0.48 -7.93
Si -1.64 -5.40 -5.89
Si  0.06 -2.88 -7.66
Si -6.34 -2.87  4.39
Si -4.67  5.88  3.41
Si -6.44  4.13  3.15
Si -5.73 -2.05 -5.62
Si -1.55  6.68 -4.65
Si -3.86 -1.76  7.13
Si -4.75  6.69  1.37
Si  6.86  4.79  0.13
Si  6.80 -4.61 -1.91
Si -2.08 -3.49  7.40
Si  3.77  1.60  7.40
Si  5.99 -2.05 -5.62
Si -2.18 -5.39  6.16
Si -0.67  8.42  1.10
Si -0.49  7.32  4.39
Si  2.72 -7.96 -1.63
Si -5.74  3.04 -5.62
Si  2.78  8.14  0.40
Si  3.67  4.79  6.16
Si  5.29 -6.06  3.15
Si  5.45 -2.04  6.43
Si  4.20  4.78 -5.89
Si  5.20 -6.86  1.10
Si -3.08  8.14  0.40
Si -3.13 -7.96 -1.63
Si  6.88 -5.40  0.13
Si  5.98  3.04 -5.62
Si -3.87  3.33  7.13
Si  1.13 -8.59  1.37
Si  2.54 -6.86 -4.92
Si  1.73  0.78 -8.64
Si -7.41  1.59 -4.65
Si -7.32 -4.31 -2.62
Si  8.65 -2.04  0.40
Si  7.06 -4.31  3.41
Si  5.44  3.05  6.43
Si -0.04 -0.97 -8.90
Si  4.14  0.48 -7.93
Si  3.68 -5.39  6.16
Si  6.79  5.58 -1.91
Si  8.57  2.22 -1.63
Si  8.48 -0.97 -2.88
Si  3.78 -3.49  7.40
Si  4.22 -5.40 -5.89
Si -3.32 -6.86 -4.92
Si  0.14 -7.14 -5.62
Si -0.47 -7.96  4.39
Si -8.12  0.49  4.12
Si -8.93 -2.04  0.40
Si  8.64  3.05  0.40
Si  8.58 -2.87 -1.63
Si -6.27 -2.04  6.43
Si  4.31  6.68 -4.65
Si -1.72 -4.62 -7.93
Si -6.43 -6.06  3.15
Si -7.40 -3.50 -4.65
Si -9.01  2.22 -1.63
Si -8.93  3.05  0.40
Si  2.08 -0.96  9.17
Si -6.28  3.05  6.43
Si -6.51 -6.86  1.10
Si -7.51 -0.31 -5.89
Si -9.00 -2.87 -1.63
Si -9.09 -0.97 -2.88
Si -4.13  0.78 -8.64
Si -0.40 -7.13  6.43
Si -2.01  0.79  9.44
Si -7.33  5.87 -2.62
Si  6.97  6.69  1.37
Si -0.59  9.22  3.15
Si  7.04  5.88  3.41
Si -0.04  4.12 -8.90
Si  1.74 -4.32 -8.64
Si -1.73  5.57 -7.93
Si  8.48  4.12 -2.88
Si -5.81  2.21 -7.66
Si -1.46 -9.40 -2.62
Si -1.53 -8.59 -4.65
Si  0.12  8.13 -5.62
Si  8.39 -1.77 -4.92
Si -4.73 -8.59  1.37
Si  5.91  2.21 -7.66
Si  1.00  9.88  0.13
Si  0.95 -9.70 -1.91
Si  5.18  8.42  1.10
Si -3.77 -0.96  9.17
Si  2.61  9.22 -2.88
Si -5.80 -2.88 -7.66
Si  2.52  8.41 -4.92
Si  4.14 -4.62 -7.93
Si  1.20 -9.40  3.41
Si  5.37  7.32  4.39
Si  2.00 -6.85  7.13
Si  5.92 -2.88 -7.66
Si -8.05 -0.30  6.16
Si  0.40  0.49 10.14
Si -3.25  9.22 -2.88
Si -8.11 -4.61  4.12
Si -2.09  6.70  7.40
Si  3.85  0.79  9.44
Si  2.08  4.13  9.17
Si  8.39  3.32 -4.92
Si -3.33  8.41 -4.92
Si  9.46  0.49  4.12
Si -0.42  8.14  6.43
Si -9.10  4.12 -2.88
Si -4.12 -4.32 -8.64
Si  4.13  5.57 -7.93
Si  1.02 -10.49  0.13
Si -2.00 -4.30  9.44
Si  5.38 -7.96  4.39
Si -9.18 -1.77 -4.92
Si  1.72  5.87 -8.64
Si  0.04  7.31 -7.66
Si 10.25  0.78 -2.62
Si -3.85 -6.85  7.13
Si -6.35  7.32  4.39
Si  3.77  6.70  7.40
Si -7.51  4.78 -5.89
Si -8.12  5.58  4.12
Si  5.82 -0.97 -8.90
Si  4.33 -8.59 -4.65
Si  4.40 -9.40 -2.62
Si -10.71 -0.31  0.13
Si -6.53  8.42  1.10
Si -5.89 -0.97 -8.90
Si -5.72 -7.14 -5.62
Si -3.78  4.13  9.17
Si  7.86 -1.76  7.13
Si -2.25 -9.70  4.12
Si -0.03 -6.07 -8.90
Si -10.60  1.60  1.37
Si  8.49 -6.06 -2.88
Si  2.17  2.23 10.42
Si  0.93 10.67 -1.91
Si  5.99 -7.14 -5.62
Si  1.65  1.59 -10.68
Si -9.19  3.32 -4.92
Si -10.78  0.48 -1.91
Si -7.50 -5.40 -5.89
Si -7.94  1.60  7.40
Si -7.58  0.48 -7.93
Si -4.86  9.88  0.13
Si -7.41  6.68 -4.65
Si  2.18 -2.86 10.42
Si -4.66 -9.40  3.41
Si -4.91 -9.70 -1.91
Si  5.46 -7.13  6.43
Si  0.06 -7.97 -7.66
Si  3.86 -4.30  9.44
Si  5.27  9.22  3.15
Si -6.33 -7.96  4.39
Si -0.12 -1.78 -10.95
Si -10.53  0.79  3.41
Si  7.85  3.33  7.13
Si  3.61 -9.70  4.12
Si  0.41 -4.60 10.14
Si  6.99 -8.59  1.37
Si  2.09 -6.05  9.17
Si -8.05  4.79  6.16
Si  1.99  8.43  7.13
Si  8.65 -7.14  0.40
Si -4.13  5.87 -8.64
Si -10.60 -3.50  1.37
Si 11.05 -1.77  1.10
Si -3.69  2.23 10.42
Si -9.09 -6.06 -2.88
Si 10.17  1.59 -4.65
Si  9.46 -4.61  4.12
Si -2.01  5.88  9.44
Si  9.53 -0.30  6.16
Si  1.66 -3.50 -10.68
Si -1.48 10.96 -2.62
Si  8.56  7.31 -1.63
Si -7.94 -3.49  7.40
Si  5.82  4.12 -8.90
Si -3.68 -2.86 10.42
Si 10.26 -4.31 -2.62
Si -8.92 -7.14  0.40
Si -5.74  8.13 -5.62
Si -0.13  3.32 -10.95
Si -5.90  4.12 -8.90
Si -6.26 -7.13  6.43
Si -8.04 -5.39  6.16
Si -2.07 -8.58  7.40
Si  7.59  0.78 -8.64
Si -5.46  0.49 10.14
Si  1.18 10.97  3.41
Si -4.83 -10.49  0.13
Si  5.97  8.13 -5.62
Si  0.39  5.58 10.14
Si -4.21  1.59 -10.68
Si 11.05  3.33  1.10
Si -0.56 -11.15  3.15
Si -3.77 -6.05  9.17
Si -1.66  9.87 -5.89
Si 11.14 -0.96  3.15
Si -2.27 10.67  4.12
Si 10.07 -0.31 -5.89
Si -6.45  9.22  3.15
Si -3.87  8.43  7.13
Si  5.44  8.14  6.43
Si -9.01  7.31 -1.63
Si  9.45  5.58  4.12
Si 10.18 -3.50 -4.65
Si -10.71  4.79  0.13
Si  3.85  5.88  9.44
Si  2.64 -11.15 -2.88
Si  8.58 -7.96 -1.63
Si -2.20  9.88  6.16
Si -10.52 -4.31  3.41
Si -10.77 -4.61 -1.91
Si  8.63  8.14  0.40
Si -7.57 -4.62 -7.93
Si -4.93 10.67 -1.91
Si  8.40 -6.86 -4.92
Si  1.10 11.78  1.37
Si  6.26  0.49 10.14
Si  3.79 -8.58  7.40
Si -3.22 -11.15 -2.88
Si -10.70 -5.40  0.13
Si  3.59 10.67  4.12
Si -4.20 -3.50 -10.68
Si  6.81 -9.70 -1.91
Si -0.65 -11.95  1.10
Si  1.55 -0.32 -11.92
Si  6.86  9.88  0.13
Si -5.81  7.31 -7.66
Si  4.38 10.96 -2.62
Si 10.24  5.87 -2.62
Si -2.53 -2.06 -11.65
Si -8.94  8.14  0.40
Si  5.90  7.31 -7.66
Si -8.99 -7.96 -1.63
Si -6.28  8.14  6.43
Si -1.64 -10.50 -5.89
Si  7.94 -0.96  9.17
Si -9.72 -1.76  7.13
Si  0.47 -0.30 12.19
Si -7.32 -9.40 -2.62
Si  3.66  9.88  6.16
Si  4.20  9.87 -5.89
Si  7.06 -9.40  3.41
Si  5.83 -6.07 -8.90
Si  9.63  1.60  7.40
Si -7.39 -8.59 -4.65
Si 11.23  2.23  4.39
Si -5.89 -6.07 -8.90
Si 11.14  4.13  3.15
Si  7.59 -4.32 -8.64
Si  3.33 -2.06 -11.65
Si -10.79  5.58 -1.91
Si -2.54  3.04 -11.65
Si -7.87  0.79  9.44
Si -7.59  5.57 -7.93
Si  9.52  4.79  6.16
Si -2.17 -10.49  6.16
Si -5.45 -4.60 10.14
Si 11.24 -2.87  4.39
Si -4.68 10.97  3.41
Si -9.17 -6.86 -4.92
Si -5.79 -7.97 -7.66
Si  5.74 -1.78 -10.95
Si  3.32  3.04 -11.65
Si -9.72  3.33  7.13
Si -10.53  5.88  3.41
Si  5.92 -7.97 -7.66
Si  6.88 -10.49  0.13
Si  2.80 -12.23  0.40
Si -12.38 -1.77  1.10
Si  9.54 -5.39  6.16
Si -5.98 -1.78 -10.95
Si 10.06  4.78 -5.89
Si -3.06 -12.23  0.40
Si -10.61  6.69  1.37
Si  7.86 -6.85  7.13
Si  9.64 -3.49  7.40
Si -1.71 -9.71 -7.93
Si -4.31 -0.32 -11.92
Si  1.65  6.68 -10.68
Si  3.68 -10.49  6.16
Si -12.29 -0.96  3.15
Si 12.73 -0.31  0.13
Si  5.30 -11.15  3.15
Si  4.22 -10.50 -5.89
Si -1.56 11.78 -4.65
Si -7.95  6.70  7.40
Si 10.00  0.48 -7.93
Si  6.26 -4.60 10.14
Si -4.76 11.78  1.37
Si  6.78 10.67 -1.91
Si  5.73  3.32 -10.95
Si  2.70 12.40 -1.63
Si -5.46  5.58 10.14
Si 12.66  0.48 -1.91
Si -0.05  9.21 -8.90
Si  7.94  4.13  9.17
Si  2.25 -2.04 12.45
Si  8.47  9.22 -2.88
Si  8.38  8.41 -4.92
Si 10.07 -5.40 -5.89
Si -12.38  3.33  1.10
Si  1.74 -9.41 -8.64
Si -3.16 12.40 -1.63
Si  7.58  5.87 -8.64
Si -5.99  3.32 -10.95
Si  2.17  7.32 10.42
Si -0.12 -6.87 -10.95
Si  1.54  4.78 -11.92
Si 12.83  1.60  1.37
Si -7.86 -4.30  9.44
Si  2.24  3.06 12.45
Si 10.16  6.68 -4.65
Si -11.59 -2.05 -5.62
Si 11.06 -6.86  1.10
Si 11.15 -6.06  3.15
Si  5.21 -11.95  1.10
Si  0.47  4.80 12.19
Si -3.61 -2.04 12.45
Si  7.51  1.59 -10.68
Si  6.25  5.58 10.14
Si -12.20  2.23  4.39
Si 11.31 -2.04  6.43
Si  2.07  9.23  9.17
Si -0.50 12.41  4.39
Si  2.55 -11.96 -4.92
Si  1.56 -5.41 -11.92
Si  4.15 -9.71 -7.93
Si -9.99  0.78 -8.64
Si -11.59  3.04 -5.62
Si -6.42 -11.15  3.15
Si -3.69  7.32 10.42
Si -9.11  9.22 -2.88
Si 11.85 -2.05 -5.62
Si -12.20 -2.87  4.39
Si -4.21  6.68 -10.68
Si  2.19 -7.96 10.42
Si -8.11 -9.70  4.12
Si -3.62  3.06 12.45
Si -5.39 -0.30 12.19
Si -1.20 -1.75 13.15
Si  0.48 -5.39 12.19
Si -9.63 -0.96  9.17
Si  8.03  2.23 10.42
Si -3.31 -11.96 -4.92
Si -12.30  4.13  3.15
Si 11.30  3.05  6.43
Si  4.30 11.78 -4.65
Si 12.91  0.79  3.41
Si 12.84 -3.50  1.37
Si -9.19  8.41 -4.92
Si -1.73 10.66 -7.93
Si -4.12 -9.41 -8.64
Si  2.73 -13.06 -1.63
Si -7.34 10.96 -2.62
Si 11.84  3.04 -5.62
Si -2.00 -9.39  9.44
Si  8.04 -2.86 10.42
Si -13.19  0.78 -2.62
Si  0.14 -12.23 -5.62
Si  7.04 10.97  3.41
Si  7.52 -3.50 -10.68
Si  2.77 13.23  0.40
Si -3.13 -13.06 -1.63
Si  0.57  1.61 13.43
Si  7.84  8.43  7.13
Si -4.32  4.78 -11.92
Si -3.79  9.23  9.17
Si  7.95 -6.05  9.17
Si  9.71  0.79  9.44
Si -0.68 13.51  1.10
Si 10.00 -4.62 -7.93
Si 12.72  4.79  0.13
Si -3.09 13.23  0.40
Si 12.66 -4.61 -1.91
Si -3.67 -7.96 10.42
Si -7.87  5.88  9.44
Si -1.21  3.34 13.15
Si -6.51 -11.95  1.10
Si -10.59 -8.59  1.37
Si  6.33 -0.30 12.19
Si -7.52  9.87 -5.89
Si  6.96 11.78  1.37
Si -4.30 -5.41 -11.92
Si -0.47 -13.05  4.39
Si  1.13 -13.68  1.37
Si -0.14  8.41 -10.95
Si  1.67 -8.60 -10.68
Si -0.40 -12.22  6.43
Si -7.93 -8.58  7.40
Si 12.73 -5.40  0.13
Si -9.71 -6.85  7.13
Si  3.86 -9.39  9.44
Si  9.63  6.70  7.40
Si -12.13 -2.04  6.43
Si  0.58 -3.48 13.43
Si -9.98 -4.32 -8.64
Si -2.52 -7.15 -11.65
Si  4.12 10.66 -7.93
