500
set: 126.00  0.00  0.00
Si  0.03 -0.02 -0.01
Si  1.84  1.09  0.83
Si -1.89  1.09  0.74
Si -0.06 -0.06 -2.30
Si  0.00 -2.19  0.72
Si -0.04 -2.16  2.99
Si -0.02  2.13 -3.02
Si  3.70 -0.03  0.04
Si  1.84  1.06  3.09
Si -1.93  1.09  3.03
Si -1.86  3.26 -0.04
Si -3.76  0.01 -0.05
Si  1.87 -3.27 -0.02
Si -1.87 -1.10 -3.09
Si  1.91  3.26  0.05
Si  1.88 -1.04 -3.11
Si -1.89 -3.28 -0.00
Si  1.87 -3.18 -2.29
Si  1.88  3.19 -2.29
Si  0.01  4.32  0.71
Si  1.90 -1.13  3.79
Si -1.88 -1.05  3.83
Si  3.78 -0.01 -2.25
Si  3.74 -2.17  0.81
Si -0.06  2.13  3.86
Si -3.75 -0.01 -2.33
Si -3.77 -2.18  0.74
Si -1.89 -3.28 -2.30
Si -1.92  3.25 -2.33
Si  0.05  4.25  3.04
Si  3.78  2.17 -2.99
Si -3.74 -2.17  3.05
Si  0.06 -4.33 -3.07
Si -3.78  2.15 -3.12
Si  3.78 -2.25  3.07
Si  0.05  2.14 -5.29
Si -3.71  4.32  0.73
Si -0.01 -4.28  3.86
Si  5.62  1.09  0.79
Si -1.85 -1.01 -5.38
Si  3.78  4.29  0.82
Si  1.83 -1.09 -5.38
Si  3.73  2.13  3.89
Si -5.64  1.09  0.71
Si -1.90 -5.45  0.80
Si  1.89 -5.47  0.76
Si -3.81  2.24  3.85
Si  1.92 -1.07  6.06
Si  1.86 -5.37  3.05
Si  5.58  1.05  3.06
Si -0.00 -6.46  0.01
Si  1.82  5.39 -3.06
Si  5.60 -3.23 -0.01
Si -5.63  1.06  3.03
Si -1.91  5.40 -3.06
Si -0.02  2.12  6.15
Si  0.04  6.50  0.01
Si -3.74 -4.36 -3.06
Si -5.62 -1.08 -3.09
Si  5.65  3.23  0.03
Si  3.73 -4.34 -3.11
Si -1.86  1.15 -6.14
Si -5.65 -3.25 -0.01
Si  1.89  1.11 -6.14
Si -3.76  4.38  3.04
Si -1.87 -5.43  3.10
Si -5.63  3.32 -0.01
Si  3.81  4.29  3.13
Si -1.89 -1.09  6.17
Si  5.69 -1.11 -3.07
Si -0.03 -2.19 -6.20
Si  3.76  2.17 -5.29
Si -1.76  5.44  3.77
Si  5.58 -3.26 -2.30
Si -5.62 -1.13  3.79
Si -5.62 -3.23 -2.31
Si  5.64 -1.07  3.79
Si -0.03 -4.32 -5.36
Si  0.05 -6.49 -2.33
Si  1.90  5.42  3.83
Si -0.05  6.52 -2.30
Si -3.77 -4.36  3.81
Si -5.62  3.28 -2.33
Si  0.01 -0.06  6.91
Si  5.67  3.25 -2.30
Si  3.71 -4.39  3.92
Si -3.76  2.22 -5.41
Si -3.72 -2.10 -6.06
Si -0.02  4.33 -6.08
Si  3.79  6.46  0.00
Si  3.74 -2.12 -6.13
Si  7.50 -0.01  0.06
Si  3.78 -6.50 -0.02
Si -3.74  6.52 -0.02
Si -7.53 -0.01  0.06
Si -3.78  2.22  6.14
Si -3.72 -6.56  0.00
Si -0.02 -4.35  6.20
Si  3.80  2.23  6.22
Si  3.74  6.46 -2.31
Si -7.50  0.03 -2.25
Si -3.76 -4.31 -5.36
Si -5.59 -5.45  0.79
Si  5.63 -1.08 -5.36
Si  5.68 -5.37  0.75
Si -3.78  0.01  6.88
Si  1.92  7.57  0.79
Si  7.50 -2.21  0.82
Si  1.90 -3.27  6.89
Si -1.91  5.42 -5.37
Si  3.73 -4.33 -5.40
Si  7.54  0.03 -2.25
Si  3.72 -6.53 -2.32
Si  1.90  5.42 -5.38
Si -3.79  6.49 -2.32
Si  3.75  0.03  6.92
Si -1.91 -3.26  6.91
Si -5.68 -1.06 -5.36
Si  1.84  3.28  6.92
Si -1.89  3.26  6.92
Si -7.54 -2.21  0.82
Si -1.84  7.65  0.75
Si -3.78 -6.56 -2.31
Si -3.76 -4.29  6.08
Si -1.82 -7.55 -3.04
Si -5.64 -1.07  6.07
Si  5.60 -5.40  3.09
Si -1.88 -5.36 -6.16
Si  5.64 -1.02  6.11
Si -7.49  2.17 -3.07
Si -5.60  1.09 -6.15
Si -5.60  5.42 -3.13
Si -1.89  5.46  6.10
Si  1.91  5.43  6.13
Si  3.81  4.40 -6.07
Si  7.50 -2.19  3.11
Si  1.77  7.62  3.09
Si  7.54  2.17 -3.07
Si -7.53 -2.19  3.11
Si  5.63  1.12 -6.18
Si  1.92 -7.60 -3.13
Si -1.92  7.62  3.09
Si  1.88 -5.41 -6.21
Si  3.81 -4.28  6.21
Si  5.70  5.47 -3.04
Si -5.74 -5.40  3.09
Si -3.76  4.39 -6.20
Si -7.48  2.12  3.79
Si  1.88 -7.54  3.83
Si  0.03 -8.63  0.77
Si -1.80  1.04 -8.45
Si -7.48  4.38  0.77
Si  7.55  2.12  3.79
Si  1.88  1.14 -8.45
Si  5.71  5.38  3.83
Si -1.80 -7.64  3.83
Si -5.64  5.47  3.83
Si  7.55  4.38  0.77
Si  0.04 -2.22 -8.49
Si -7.44  4.27  3.04
Si -7.50 -4.29 -3.05
Si  7.53 -4.29 -3.05
Si  7.59  4.27  3.04
Si  0.01  0.05  9.23
Si  0.07 -0.07 -9.23
Si  0.01  8.73 -3.05
Si  0.07 -8.75  3.04
Si -1.85 -7.51 -5.34
Si  3.71 -2.09 -8.43
Si -5.63  7.55  0.76
Si -5.64 -3.25  6.85
Si  7.44 -4.31  3.94
Si  5.61  7.57  0.80
Si -3.79 -2.21 -8.38
Si  7.51  2.17 -5.35
Si  9.39  1.09  0.71
Si -7.52  2.17 -5.35
Si -0.01  4.40 -8.41
Si -0.01  6.51  6.92
Si  5.67 -3.17  6.94
Si -5.68  3.25  6.89
Si -9.42  1.09  0.79
Si  1.88 -7.58 -5.42
Si  5.66  3.32  6.90
Si  3.81 -8.70  0.73
Si -3.73 -8.73  0.82
Si -5.64  5.43 -5.42
Si  5.67  5.51 -5.34
Si -0.08  8.71  3.94
Si  0.05 -6.54  6.98
Si -7.59 -4.31  3.94
Si -3.70 -0.05 -9.14
Si  7.49  2.15  6.08
Si  1.89 -9.70 -0.01
Si -1.86 -7.53  6.14
Si -9.34 -1.11 -3.07
Si  3.76 -8.64  3.04
Si -1.87  3.25 -9.18
Si -3.79 -0.00  9.16
Si -1.89  7.59 -6.10
Si -7.48 -6.52  0.01
Si  5.63 -5.43 -6.10
Si -7.54  2.15  6.08
Si -9.38  3.23  0.03
Si  1.89 -7.57  6.13
Si  1.89  3.26  9.19
Si  3.77  8.66 -3.06
Si -1.83  3.23  9.21
Si  9.38 -3.25 -0.01
Si  7.49 -2.22 -6.13
Si  9.40  1.06  3.03
Si  1.86  9.76 -0.01
Si  5.61 -7.62 -3.06
Si -5.63  5.45  6.13
Si  5.65  7.59  3.10
Si  1.82 -3.29  9.21
Si -5.59 -5.41 -6.22
Si  9.41 -1.08 -3.09
Si -1.86 -9.78  0.03
Si  3.77 -0.02  9.22
Si -1.91 -3.28  9.21
Si -7.54 -2.22 -6.13
Si -9.43 -3.23 -0.01
Si -1.93 -3.29 -9.21
Si  3.76  0.04 -9.23
Si -3.79  8.68 -3.11
Si  9.40  3.32 -0.01
Si  1.86  3.32 -9.22
Si  7.51  6.56  0.01
Si  7.55 -6.52  0.01
Si -1.92  9.79 -0.01
Si -7.52  6.56  0.01
Si -3.70 -8.73  3.13
Si  5.65  5.49  6.14
Si -9.45  1.05  3.06
Si  1.89 -3.28 -9.24
Si -5.66  7.66  3.05
Si -5.69 -7.63 -3.06
Si  1.92  7.61 -6.22
Si  3.71  4.29 -8.36
Si -3.76 -6.46  6.86
Si  0.01  8.62 -5.36
Si -9.36  3.25 -2.30
Si  7.47 -6.50 -2.30
Si  3.74  8.66  3.81
Si -9.39 -1.07  3.79
Si  7.48  0.02  6.91
Si -7.47  6.53 -2.33
Si  1.90 -9.74 -2.33
Si -5.61  1.08 -8.44
Si -5.61 -7.60  3.83
Si -0.05 -2.16  9.97
Si  9.41 -1.13  3.79
Si  3.75  6.56  6.86
Si  1.90  1.11  9.97
Si -1.84 -9.77 -2.30
Si -1.94  9.76 -2.30
Si -7.50 -4.40 -5.36
Si -3.81  8.63  3.92
Si  9.42 -3.23 -2.31
Si -1.94  1.08  9.98
Si -3.77  4.32 -8.46
Si -7.56 -6.50 -2.30
Si  9.41  3.28 -2.33
Si -7.55  0.02  6.91
Si -1.87 -5.41 -8.49
Si  7.53 -4.40 -5.36
Si  1.90  9.79 -2.31
Si  5.76 -7.58  3.77
Si -9.45 -3.26 -2.30
Si  7.56  6.53 -2.33
Si  3.76 -6.51  6.99
Si -3.76  6.51  6.99
Si  1.90 -5.46 -8.49
Si  5.76  1.10 -8.50
Si  7.49  4.35 -6.05
Si -0.02 -8.67 -6.05
Si -7.54  4.35 -6.05
Si  7.49 -4.33  6.22
Si -0.02  8.69  6.22
Si -7.54 -4.33  6.22
Si -9.35 -5.37  0.75
Si  9.36 -1.06 -5.36
Si -0.02 10.81  0.82
Si  5.61 -7.60 -5.37
Si  3.74 -2.22  9.96
Si -9.40 -1.08 -5.36
Si -5.62 -7.60 -5.38
Si -3.79 -2.19  9.96
Si  3.75  8.71 -5.36
Si -3.78  8.69 -5.40
Si  9.44 -5.45  0.79
Si  0.02  4.37 10.02
Si -3.70 -8.62 -6.07
Si  9.29 -5.40  3.09
Si -5.60 -3.26  9.15
Si  5.63 -7.56  6.10
Si  9.39 -1.07  6.07
Si -9.33  5.47 -3.04
Si  5.62  9.74 -0.00
Si  5.60  3.28 -9.19
Si -5.60 -7.59  6.13
Si -0.01 -6.53 -9.17
Si -9.39 -1.02  6.11
Si -5.60 -9.76  0.05
Si -5.64  3.30  9.16
Si  5.64  3.24  9.19
Si -5.64  9.75 -0.02
Si 11.27  0.01 -0.05
Si -0.01 10.83  3.11
Si  3.76 -8.63 -6.20
Si  0.02  6.51  9.20
Si  0.03 -10.85 -3.07
Si  3.75  8.72  6.08
Si  5.65 -9.76 -0.04
Si  5.59 -3.25 -9.24
Si -5.67 -3.28 -9.19
Si -9.44 -5.40  3.09
Si -9.40  1.12 -6.18
Si  9.43  1.09 -6.15
Si -5.74  3.28 -9.18
Si  9.43  5.42 -3.13
Si  5.70 -3.21  9.24
Si -5.64  7.61 -6.21
Si -11.33 -0.03  0.04
Si  5.64  7.66 -6.16
Si -0.02 -6.55  9.26
Si -3.71  8.74  6.21
Si -0.04  6.52 -9.28
Si -9.32  5.38  3.83
Si  7.46 -2.21 -8.41
Si  3.76  4.33  9.94
Si  5.63  9.74 -2.30
Si -11.25 -0.01 -2.25
Si -1.92 -5.44  9.94
Si  3.74 10.84  0.74
Si  5.64 -5.39 -8.44
Si 11.26 -2.18  0.74
Si  5.63  1.06  9.98
Si  5.60 -9.77 -2.33
Si -7.50 -8.70  0.71
Si  0.03  0.05 -11.51
Si -3.78 10.85  0.81
Si  1.90  7.55 -8.48
Si 11.28 -0.01 -2.33
Si  7.53 -8.70  0.71
Si  9.39  5.47  3.83
Si -11.29 -2.17  0.81
Si -5.65  1.16  9.98
Si -1.88  7.63 -8.44
Si -7.57 -2.21 -8.41
Si  0.04 -10.90  3.79
Si -3.74  4.33 10.02
Si  1.88 -5.49  9.98
Si -5.62 -5.47 -8.48
Si -5.63 -9.83 -2.29
Si -5.65  9.84 -2.29
Si -3.74 10.77  3.07
Si  3.73  6.49  9.16
Si -11.25  2.17 -2.99
Si  3.78  6.43 -9.20
Si -7.46  0.01  9.21
Si -7.46  8.69 -3.07
Si -3.73 -10.85 -2.99
Si -3.78 -6.53  9.16
Si 11.25  2.15 -3.12
Si -7.46 -0.09 -9.23
Si  3.78 10.85  3.05
Si -11.26 -2.25  3.07
Si -3.74  6.51 -9.22
Si 11.29 -2.17  3.05
Si  3.74 -10.86 -3.12
Si  3.78 -6.51 -9.22
Si -7.46 -8.77  3.04
Si  7.57  0.01  9.21
Si -3.74 -6.59 -9.20
Si  7.57  8.69 -3.07
Si -3.74  6.50  9.29
Si  7.57 -0.09 -9.23
Si  3.78 -6.52  9.29
Si  7.57 -8.77  3.04
Si  7.44  4.37 -8.34
Si -0.07 -8.65 -8.34
Si  3.71 -10.78  3.85
Si -1.85 -9.70  6.90
Si -3.73 -0.05 -11.46
Si  9.35  3.25  6.89
Si  9.39 -3.25  6.85
Si -1.90  3.23 -11.47
Si -11.25  4.29  0.82
Si 11.22  2.24  3.85
Si  9.40  7.55  0.76
Si -9.37 -3.17  6.94
Si  1.87  9.77  6.85
Si -1.90 -3.25 -11.48
Si -7.59  4.37 -8.34
Si  1.87 -11.93  0.71
Si  1.83 -9.77  6.89
Si -0.01 -10.85 -5.35
Si  1.89  3.21 -11.52
Si -9.37  3.32  6.90
Si -7.47  6.48  6.98
Si -9.37  5.51 -5.34
Si -1.90 -11.93  0.79
Si  7.51 -6.51  6.92
Si -9.42  7.57  0.80
Si -7.52 -6.51  6.92
Si  9.39  5.43 -5.42
Si 11.32  4.32  0.73
Si -11.30  2.13  3.89
Si  7.50  8.74  3.86
Si  1.87 -3.25 -11.56
Si  3.81 -0.02 -11.54
Si  7.56  6.48  6.98
Si -7.53  8.74  3.86
Si -3.79 -10.89  3.89
Si -1.85  9.85  6.94
Si -11.22  4.29  3.13
Si -0.02 10.80 -6.13
Si -1.86 -1.10 -12.25
Si -1.83 11.91 -3.07
Si  9.34 -7.63 -3.06
Si -0.03 -10.87  6.08
Si -9.40 -5.43 -6.10
Si  1.86  1.08 12.27
Si -9.38  7.59  3.10
Si -0.00  2.22 -12.26
Si -1.92  1.11 12.27
Si 11.27  4.38  3.04
Si  1.89 -1.02 -12.29
Si  9.40  5.45  6.13
Si -9.38  5.49  6.14
Si  1.89 11.94 -3.09
Si  9.37  7.66  3.05
Si  1.89 -11.96  3.03
Si  0.04 -2.18 12.29
Si 11.29 -4.36 -3.06
Si -9.42 -7.62 -3.06
Si -11.30 -4.34 -3.11
Si -1.93 -11.97  3.06
Si  9.44 -5.41 -6.22
Si -9.27 -7.58  3.77
Si -7.47 -2.15  9.95
Si -9.27  1.10 -8.50
Si  1.89 11.89  3.79
Si -5.62 -5.40  9.94
Si -3.76 -10.85 -5.29
Si -11.28  2.17 -5.29
Si  3.76 -10.80 -5.41
Si 11.26 -4.36  3.81
Si  7.48  8.70 -5.36
Si -3.80 -8.73 -8.36
Si -1.84  7.58  9.98
Si  1.89  7.62  9.94
Si -1.88 11.95  3.79
Si -5.62  7.55 -8.49
Si  7.56 -2.15  9.95
Si  9.42  1.08 -8.44
Si  9.42 -7.60  3.83
Si 11.27  2.22 -5.41
Si  5.67 -5.43  9.98
Si  3.75 -8.70 -8.46
Si -7.55  8.70 -5.36
Si  5.64  7.61 -8.49
Si -11.32 -4.39  3.92
Si -0.01 -4.34 -12.21
Si -11.24  6.46  0.00
Si  3.74 -10.80  6.14
Si  7.50 -8.69 -6.08
Si -3.72 -10.79  6.22
Si -11.25 -6.50 -0.02
Si -3.74 -2.16 12.26
Si -3.72  2.12 -12.27
Si 11.31 -2.10 -6.06
Si -7.53 -8.69 -6.08
Si 11.25  2.22  6.14
Si -0.02 13.01  0.06
Si -11.29 -2.12 -6.13
Si -0.01 -13.03  0.06
Si  7.50  8.67  6.20
Si -11.23  2.23  6.22
Si  3.79 -2.23 12.28
Si 11.29  6.52 -0.02
Si  3.78  2.18 -12.29
Si  3.80 10.91 -6.06
Si -7.54  8.67  6.20
Si -3.78 10.90 -6.13
Si -0.02  4.33 12.34
Si 11.31 -6.56  0.00
Si  7.45  4.28  9.97
Si -5.59  3.23 -11.49
Si -5.67 -3.25 -11.44
Si 11.24  6.49 -2.32
Si 11.25  0.01  6.88
Si  0.02 -12.99 -2.25
Si -0.02 -6.54 -11.45
Si -1.84 -1.03 13.03
Si 11.27 -4.31 -5.36
Si  5.60  9.76  6.91
Si -5.62  9.75  6.89
