500
set: 591.00  0.00  0.00
Si  0.00  0.00  0.00
Si -0.02 -2.07  0.73
Si  1.80  1.04  0.73
Si -1.86  1.04  0.73
Si -0.10 -0.09 -2.28
Si -1.82 -3.11  0.00
Si  1.82  3.11  0.00
Si  0.07 -1.98  3.01
Si -0.07  1.98 -3.01
Si  1.83 -3.11  0.00
Si -1.83  3.11  0.00
Si  3.65  0.00  0.00
Si -3.65  0.00  0.00
Si -1.76  1.12  3.01
Si  1.76 -1.12 -3.01
Si  1.89  1.12  3.01
Si -1.89 -1.12 -3.01
Si  1.73  3.02 -2.28
Si -0.04  4.14  0.73
Si  3.56 -0.09 -2.28
Si  3.63 -2.07  0.73
Si -1.93  3.02 -2.28
Si -1.78 -0.95  3.75
Si -3.68 -2.07  0.73
Si  1.74 -3.19 -2.28
Si  1.87 -0.95  3.75
Si  0.04  2.16  3.75
Si -1.92 -3.19 -2.28
Si -3.75 -0.09 -2.28
Si -3.58 -1.98  3.01
Si  3.58  1.98 -3.01
Si  3.73 -1.98  3.01
Si -3.73  1.98 -3.01
Si -0.06 -4.23 -3.01
Si  0.06  4.23  3.01
Si  0.05 -4.05  3.75
Si  1.81 -5.18  0.73
Si -1.84 -5.18  0.73
Si  3.62  4.14  0.73
Si -3.69  4.14  0.73
Si  5.45  1.04  0.73
Si -0.17  1.90 -5.29
Si -3.62  2.16  3.75
Si -5.51  1.04  0.73
Si  1.67 -1.21 -5.29
Si  3.69  2.16  3.75
Si -1.99 -1.21 -5.29
Si  1.75  5.09 -3.01
Si -1.75 -5.09  3.01
Si -0.01  6.21  0.00
Si  0.01 -6.21  0.00
Si -1.91  5.09 -3.01
Si  1.91 -5.09  3.01
Si -5.48 -3.11  0.00
Si  5.48  3.11  0.00
Si  5.42 -1.12 -3.01
Si -5.42  1.12  3.01
Si  5.49 -3.11  0.00
Si -5.49  3.11  0.00
Si  1.69  0.86 -6.02
Si -1.69 -0.86  6.02
Si  3.60 -4.23 -3.01
Si -3.60  4.23  3.01
Si -3.71 -4.23 -3.01
Si  3.71  4.23  3.01
Si -1.97  0.86 -6.02
Si  1.97 -0.86  6.02
Si -5.55 -1.12 -3.01
Si  5.55  1.12  3.01
Si -0.13 -2.25 -6.02
Si  0.13  2.25  6.02
Si -0.11  6.13 -2.28
Si  5.38  3.02 -2.28
Si -3.61 -4.05  3.75
Si  3.49  1.90 -5.29
Si  3.70 -4.05  3.75
Si  5.39 -3.19 -2.28
Si -5.44 -0.95  3.75
Si -0.08 -6.30 -2.28
Si -1.80  5.27  3.75
Si  1.86  5.27  3.75
Si  5.53 -0.95  3.75
Si -5.58  3.02 -2.28
Si  0.11  0.18  6.76
Si -3.82  1.90 -5.29
Si -5.57 -3.19 -2.28
Si -0.16 -4.32 -5.29
Si -3.64 -6.21  0.00
Si  3.64  6.21  0.00
Si  0.14 -3.97  6.02
Si -0.14  3.97 -6.02
Si -3.67  6.21  0.00
Si  3.67 -6.21  0.00
Si  7.31  0.00  0.00
Si -7.31  0.00  0.00
Si -3.52  2.25  6.02
Si  3.52 -2.25 -6.02
Si  3.55  6.13 -2.28
Si -3.79 -2.25 -6.02
Si  3.79  2.25  6.02
Si  1.65  5.00 -5.29
Si  1.78  7.25  0.73
Si -1.87  7.25  0.73
Si -3.76  6.13 -2.28
Si -2.00  5.00 -5.29
Si -1.71 -2.93  6.76
Si  5.46 -5.18  0.73
Si  7.21 -0.09 -2.28
Si -5.50 -5.18  0.73
Si  3.57 -6.30 -2.28
Si  5.32 -1.21 -5.29
Si  7.29 -2.07  0.73
Si  1.94 -2.93  6.76
Si -3.55  0.18  6.76
Si -7.33 -2.07  0.73
Si  3.50 -4.32 -5.29
Si -3.74 -6.30 -2.28
Si -1.73  3.28  6.76
Si  3.76  0.18  6.76
Si -7.41 -0.09 -2.28
Si  1.93  3.28  6.76
Si -3.81 -4.32 -5.29
Si -5.64 -1.21 -5.29
Si -5.40 -5.09  3.01
Si  5.40  5.09 -3.01
Si -3.51 -3.97  6.02
Si  3.51  3.97 -6.02
Si -7.24 -1.98  3.01
Si  7.24  1.98 -3.01
Si  5.34  0.86 -6.02
Si -5.34 -0.86  6.02
Si  5.56 -5.09  3.01
Si -5.56  5.09 -3.01
Si  1.77 -7.34 -3.01
Si -1.77  7.34  3.01
Si -1.88 -7.34 -3.01
Si  1.88  7.34  3.01
Si -3.80  3.97 -6.02
Si  3.80 -3.97  6.02
Si -7.38  1.98 -3.01
Si  7.38 -1.98  3.01
Si -1.70  5.35  6.02
Si  1.70 -5.35 -6.02
Si -1.77 -7.16  3.75
Si  5.62 -0.86  6.02
Si -5.62  0.86 -6.02
Si  1.95  5.35  6.02
Si -1.95 -5.35 -6.02
Si  1.88 -7.16  3.75
Si -0.01 -8.28  0.73
Si  7.27  4.14  0.73
Si -5.45  5.27  3.75
Si -7.27  2.16  3.75
Si -7.35  4.14  0.73
Si  1.59  0.78 -8.30
Si  5.51  5.27  3.75
Si  7.35  2.16  3.75
Si -2.06  0.78 -8.30
Si -0.23 -2.33 -8.30
Si  0.09 -8.20  3.01
Si -0.09  8.20 -3.01
Si -7.25  4.23  3.01
Si  7.25 -4.23 -3.01
Si  5.31  5.00 -5.29
Si -7.37 -4.23 -3.01
Si  7.37  4.23  3.01
Si  0.20  0.26  9.03
Si -0.20 -0.26 -9.03
Si  0.12 -6.04  6.76
Si  3.64 -8.28  0.73
Si  7.14  1.90 -5.29
Si -3.67 -8.28  0.73
Si  5.44  7.25  0.73
Si -5.37 -2.93  6.76
Si -7.26 -4.05  3.75
Si -5.53  7.25  0.73
Si -0.24  3.88 -8.30
Si  0.02  8.38  3.75
Si  9.11  1.04  0.73
Si  7.36 -4.05  3.75
Si -5.66  5.00 -5.29
Si -5.38  3.28  6.76
Si  5.60 -2.93  6.76
Si -9.17  1.04  0.73
Si  1.68 -7.42 -5.29
Si  3.43 -2.33 -8.30
Si  0.10  6.39  6.76
Si -1.98 -7.42 -5.29
Si -7.48  1.90 -5.29
Si  5.58  3.28  6.76
Si -3.57 -8.20  3.01
Si  3.57  8.20 -3.01
Si  1.68  7.07 -6.02
Si -1.68 -7.07  6.02
Si -3.88 -2.33 -8.30
Si  1.81  9.32  0.00
Si -1.81 -9.32  0.00
Si  1.98 -7.07  6.02
Si -1.98  7.07 -6.02
Si -3.74  8.20 -3.01
Si  3.74 -8.20  3.01
Si -1.85  9.32  0.00
Si  1.85 -9.32  0.00
Si -7.30 -6.21  0.00
Si  7.30  6.21  0.00
Si -7.32  6.21  0.00
Si  7.32 -6.21  0.00
Si  1.62  2.84 -9.03
Si -1.62 -2.84  9.03
Si -5.43  7.34  3.01
Si  5.43 -7.34 -3.01
Si  9.07 -1.12 -3.01
Si -9.07  1.12  3.01
Si -7.18  2.25  6.02
Si  7.18 -2.25 -6.02
Si  9.13  3.11  0.00
Si -9.13 -3.11  0.00
Si -9.14  3.11  0.00
Si  9.14 -3.11  0.00
Si  1.71  9.23 -2.28
Si  5.54  7.34  3.01
Si -5.54 -7.34 -3.01
Si  3.45 -0.26 -9.03
Si -3.45  0.26  9.03
Si -5.36  5.35  6.02
Si  5.36 -5.35 -6.02
Si -0.18  8.11 -5.29
Si  2.04 -2.84  9.03
Si -2.04  2.84 -9.03
Si -1.94  9.23 -2.28
Si -3.53 -6.04  6.76
Si  7.20  6.13 -2.28
Si -5.43 -7.16  3.75
Si -9.20 -1.12 -3.01
Si  9.20  1.12  3.01
Si  3.41  3.88 -8.30
Si  1.63 -3.37 -9.03
Si -1.63  3.37  9.03
Si  9.04  3.02 -2.28
Si  5.54 -7.16  3.75
Si  3.78 -6.04  6.76
Si -5.61 -5.35 -6.02
Si  5.61  5.35  6.02
Si -3.86 -0.26 -9.03
Si  3.86  0.26  9.03
Si -7.44 -2.25 -6.02
Si  7.44  2.25  6.02
Si  1.75 -9.41 -2.28
Si  5.25  0.78 -8.30
Si -2.03 -3.37 -9.03
Si  2.03  3.37  9.03
Si  7.23 -6.30 -2.28
Si  9.05 -3.19 -2.28
Si -1.91 -9.41 -2.28
Si -3.63  8.38  3.75
Si -7.20  0.18  6.76
Si -9.09 -0.95  3.75
Si  3.68  8.38  3.75
Si  7.15 -4.32 -5.29
Si -7.42  6.13 -2.28
Si  0.18 -1.81  9.77
Si -3.90  3.88 -8.30
Si -3.56  6.39  6.76
Si  9.18 -0.95  3.75
Si -7.39 -6.30 -2.28
Si -9.24  3.02 -2.28
Si -1.65  1.30  9.77
Si -9.23 -3.19 -2.28
Si  3.75  6.39  6.76
Si  7.42  0.18  6.76
Si  1.60 -5.44 -8.30
Si  2.00  1.30  9.77
Si -5.72  0.78 -8.30
Si -7.47 -4.32 -5.29
Si -2.05 -5.44 -8.30
Si -7.17 -3.97  6.02
Si  7.17  3.97 -6.02
Si  3.47  8.11 -5.29
Si  7.46 -3.97  6.02
Si -7.46  3.97 -6.02
Si -0.05 10.36  0.73
Si -0.12 -8.46 -6.02
Si  0.12  8.46  6.02
Si -3.84  8.11 -5.29
Si  8.97 -1.21 -5.29
Si  9.12 -5.18  0.73
Si -3.47 -1.81  9.77
Si -9.15 -5.18  0.73
Si  5.33 -7.42 -5.29
Si  3.84 -1.81  9.77
Si -5.33 -7.07  6.02
Si  5.33  7.07 -6.02
Si -5.63 -7.42 -5.29
Si  0.17  4.41  9.77
Si -9.30 -1.21 -5.29
Si -5.46 -9.32  0.00
Si  5.46  9.32  0.00
Si -9.06 -5.09  3.01
Si  9.06  5.09 -3.01
Si -0.22  5.95 -9.03
Si  0.22 -5.95  9.03
Si  5.50 -9.32  0.00
Si -5.50  9.32  0.00
Si -5.27 -2.84  9.03
Si  5.27  2.84 -9.03
Si -9.00 -0.86  6.02
Si  9.00  0.86 -6.02
Si  5.63 -7.07  6.02
Si -5.63  7.07 -6.02
Si -0.05 -10.44 -3.01
Si  0.05 10.44  3.01
Si  5.37  9.23 -2.28
Si  0.06 -10.27  3.75
Si -9.22  5.09 -3.01
Si  9.22 -5.09  3.01
Si 10.96  0.00  0.00
Si -10.96  0.00  0.00
Si  1.58  6.99 -8.30
Si -3.54  8.46  6.02
Si  3.54 -8.46 -6.02
Si  3.61 10.36  0.73
Si -5.28  3.37  9.03
Si  5.28 -3.37 -9.03
Si -3.70 10.36  0.73
Si -5.60  9.23 -2.28
Si -2.08  6.99 -8.30
Si  3.77  8.46  6.02
Si -3.77 -8.46 -6.02
Si  5.69 -2.84  9.03
Si -5.69  2.84 -9.03
Si -1.64 -4.91  9.77
Si  7.30 -8.28  0.73
Si -7.32 -8.28  0.73
Si  5.41 -9.41 -2.28
Si -9.28  0.86 -6.02
Si  9.28 -0.86  6.02
Si 10.87 -0.09 -2.28
Si -0.19 -6.48 -9.03
Si  0.19  6.48  9.03
Si  2.02 -4.91  9.77
Si  7.08 -2.33 -8.30
Si 10.94 -2.07  0.73
Si -5.56 -9.41 -2.28
Si -9.11  5.27  3.75
Si  5.68  3.37  9.03
Si -5.68 -3.37 -9.03
Si -5.31  1.30  9.77
Si -10.99 -2.07  0.73
Si  9.17  5.27  3.75
Si  5.26 -5.44 -8.30
Si -3.49  4.41  9.77
Si -11.06 -0.09 -2.28
Si -0.30 -0.35 -11.31
Si -7.22 -8.20  3.01
Si  7.22  8.20 -3.01
Si -3.44 -5.95  9.03
Si  3.44  5.95 -9.03
Si  5.66  1.30  9.77
Si  3.82  4.41  9.77
Si -7.39  8.20 -3.01
Si  7.39 -8.20  3.01
Si -5.71 -5.44 -8.30
Si -3.61 10.44  3.01
Si  3.61 -10.44 -3.01
Si -7.54 -2.33 -8.30
Si 10.89  1.98 -3.01
Si -10.89 -1.98  3.01
Si -3.70 -10.44 -3.01
Si  3.70 10.44  3.01
Si  3.87 -5.95  9.03
Si -3.87  5.95 -9.03
Si -1.70 -9.14  6.76
Si  7.11 -0.26 -9.03
Si -7.11  0.26  9.03
Si -3.59 -10.27  3.75
Si  1.96 -9.14  6.76
Si  3.72 -10.27  3.75
Si  8.96  5.00 -5.29
Si  1.82 -11.39  0.73
Si -1.83 -11.39  0.73
Si -7.19 -6.04  6.76
Si  7.07  3.88 -8.30
Si -11.04  1.98 -3.01
Si 11.04 -1.98  3.01
Si -3.46  6.48  9.03
Si  3.46 -6.48 -9.03
Si -9.02 -2.93  6.76
Si  9.10  7.25  0.73
Si 10.93  4.14  0.73
Si -7.29  8.38  3.75
Si  7.43 -6.04  6.76
Si -9.18  7.25  0.73
Si  1.52  2.76 -11.31
Si  7.33  8.38  3.75
Si -9.03  3.28  6.76
Si -10.93  2.16  3.75
Si  7.51  0.26  9.03
Si -7.51 -0.26 -9.03
Si  3.85  6.48  9.03
Si -3.85 -6.48 -9.03
Si -7.21  6.39  6.76
Si -11.00  4.14  0.73
Si -0.14 -10.53 -5.29
Si -1.74  9.50  6.76
Si  3.35 -0.35 -11.31
Si  1.92  9.50  6.76
Si 11.00  2.16  3.75
Si -9.31  5.00 -5.29
Si  9.25 -2.93  6.76
Si  1.74 11.30 -3.01
Si -1.74 -11.30  3.01
Si -0.16 10.18 -6.02
Si  0.16 -10.18  6.02
Si -2.13  2.76 -11.31
Si -1.92 11.30 -3.01
Si  1.92 -11.30  3.01
Si -7.55  3.88 -8.30
Si  7.41  6.39  6.76
Si  9.24  3.28  6.76
Si -0.22 -8.54 -8.30
Si  1.53 -3.46 -11.31
Si -3.96 -0.35 -11.31
Si -2.12 -3.46 -11.31
Si  7.13  8.11 -5.29
Si  5.24  6.99 -8.30
Si  9.08 -7.34 -3.01
Si -9.08  7.34  3.01
Si -10.90  4.23  3.01
Si 10.90 -4.23 -3.01
Si -9.01  5.35  6.02
Si  9.01 -5.35 -6.02
Si  9.19  7.34  3.01
Si -9.19 -7.34 -3.01
Si -5.29 -4.91  9.77
Si -9.08 -7.16  3.75
Si 10.80  1.90 -5.29
Si  0.28 -1.72 12.05
Si -0.28  1.72 -12.05
Si -11.03 -4.23 -3.01
Si 11.03  4.23  3.01
Si  8.90  0.78 -8.30
Si -1.81 11.48  3.75
Si  1.84 11.48  3.75
Si -1.56  1.39 12.05
Si  1.56 -1.39 -12.05
Si -7.13 -1.81  9.77
Si -10.92 -4.05  3.75
Si  9.19 -7.16  3.75
Si -7.49  8.11 -5.29
Si -5.73  6.99 -8.30
Si -9.26 -5.35 -6.02
Si  9.26  5.35  6.02
Si  3.51 -10.53 -5.29
Si -2.10 -1.39 -12.05
Si  2.10  1.39 12.05
Si  5.67 -4.91  9.77
Si 11.01 -4.05  3.75
Si -3.50 -10.18  6.02
Si  3.50 10.18 -6.02
Si -3.80 -10.53 -5.29
Si  3.44 -8.54 -8.30
Si  0.03 -12.43  0.00
Si -0.03 12.43  0.00
Si  3.81 -10.18  6.02
Si -3.81 10.18 -6.02
Si -1.66  7.51  9.77
Si  7.49 -1.81  9.77
Si -11.13  1.90 -5.29
Si  1.99  7.51  9.77
Si  1.64 11.22 -5.29
Si -3.87 -8.54 -8.30
Si -9.37  0.78 -8.30
Si -0.12 12.34 -2.28
Si -2.02 11.22 -5.29
Si -5.35 -9.14  6.76
Si -10.95 -6.21  0.00
Si 10.95  6.21  0.00
Si -10.83  2.25  6.02
Si 10.83 -2.25 -6.02
Si 10.98 -6.21  0.00
Si -10.98  6.21  0.00
Si -3.38 -1.72 12.05
Si  3.38  1.72 -12.05
Si -7.19  8.46  6.02
Si  7.19 -8.46 -6.02
Si  0.19 -8.02  9.77
Si  5.48 -11.39  0.73
Si -5.49 -11.39  0.73
Si  7.26 10.36  0.73
Si 10.86  6.13 -2.28
Si  5.61 -9.14  6.76
Si -0.07 -12.51 -2.28
Si -7.36 10.36  0.73
Si  5.17  2.76 -11.31
Si -0.31  5.87 -11.31
Si  7.43  8.46  6.02
Si -7.43 -8.46 -6.02
Si 10.88 -6.30 -2.28
Si 10.81 -4.32 -5.29
Si -10.86  0.18  6.76
