500
set: 1294.00  0.00  0.00
Si  0.60 -2.28  0.00
Si -0.60  2.28  0.00
Si  1.72  1.69  0.00
Si -1.72 -1.69  0.00
Si  2.33 -0.63  0.00
Si -2.33  0.63  0.00
Si  1.00 -3.73 -1.83
Si -1.00  3.73 -1.83
Si  1.00 -3.73  1.83
Si -1.00  3.73  1.83
Si  2.73  2.78 -1.85
Si  2.73  2.78  1.85
Si -2.73 -2.78 -1.85
Si -2.73 -2.78  1.85
Si -3.77  1.03  1.86
Si -3.77  1.03 -1.86
Si  3.77 -1.03  1.86
Si  3.77 -1.03 -1.86
Si  1.00  3.73  3.12
Si -1.00 -3.73  3.12
Si  1.00  3.73 -3.12
Si -1.00 -3.73 -3.12
Si -3.77 -1.03 -3.09
Si -3.77 -1.03  3.09
Si  3.77  1.03 -3.09
Si  3.77  1.03  3.09
Si -2.73  2.78  3.10
Si -2.73  2.78 -3.10
Si  2.73 -2.78  3.10
Si  2.73 -2.78 -3.10
Si  0.60  2.28  4.95
Si  0.60  2.28 -4.95
Si -0.60 -2.28  4.95
Si -0.60 -2.28 -4.95
Si -1.72  1.69  4.95
Si -1.72  1.69 -4.95
Si  1.72 -1.69  4.95
Si  1.72 -1.69 -4.95
Si -2.33 -0.63  4.95
Si -2.33 -0.63 -4.95
Si  2.33  0.63  4.95
Si  2.33  0.63 -4.95
Si -5.99  1.45 -1.19
Si -5.99  1.45  1.19
Si  5.99 -1.45 -1.19
Si  5.99 -1.45  1.19
Si  3.97  4.72  1.21
Si  3.97  4.72 -1.21
Si -3.97 -4.72  1.21
Si -3.97 -4.72 -1.21
Si  1.64 -5.96 -1.21
Si  1.64 -5.96  1.21
Si -1.64  5.96 -1.21
Si -1.64  5.96  1.21
Si -3.97  4.72 -3.74
Si -3.97  4.72  3.74
Si  3.97 -4.72 -3.74
Si  3.97 -4.72  3.74
Si -5.99 -1.45  3.75
Si -5.99 -1.45 -3.75
Si  5.99  1.45  3.75
Si  5.99  1.45 -3.75
Si  1.64  5.96 -3.73
Si  1.64  5.96  3.73
Si -1.64 -5.96 -3.73
Si -1.64 -5.96  3.73
Si  0.00  7.13 -2.47
Si -0.00 -7.13 -2.47
Si  0.00  7.13  2.47
Si -0.00 -7.13  2.47
Si -7.36 -0.00 -2.47
Si -7.36  0.00  2.47
Si  7.36 -0.00 -2.47
Si  7.36  0.00  2.47
Si  1.00  3.73  6.77
Si -1.00 -3.73  6.77
Si  1.00  3.73 -6.77
Si -1.00 -3.73 -6.77
Si -6.29 -4.51  1.17
Si -6.29 -4.51 -1.17
Si  6.29  4.51  1.17
Si  6.29  4.51 -1.17
Si -2.73  2.78  6.80
Si -2.73  2.78 -6.80
Si  2.73 -2.78  6.80
Si  2.73 -2.78 -6.80
Si -3.77 -1.03 -6.81
Si -3.77 -1.03  6.81
Si  3.77  1.03 -6.81
Si  3.77  1.03  6.81
Si  3.68 -6.64  2.34
Si -3.68  6.64  2.34
Si  3.68 -6.64 -2.34
Si -3.68  6.64 -2.34
Si  3.68  6.64 -2.61
Si  3.68  6.64  2.61
Si -3.68 -6.64 -2.61
Si -3.68 -6.64  2.61
Si -7.36  2.91 -2.47
Si -7.36  2.91  2.47
Si  7.36  2.91 -2.47
Si  7.36  2.91  2.47
Si -7.36 -2.91 -2.47
Si -7.36 -2.91  2.47
Si  7.36 -2.91 -2.47
Si  7.36 -2.91  2.47
Si  6.29 -4.51 -3.78
Si  6.29 -4.51  3.78
Si -6.29  4.51 -3.78
Si -6.29  4.51  3.78
Si -5.99 -1.45  6.14
Si  5.99  1.45  6.14
Si -5.99 -1.45 -6.14
Si  5.99  1.45 -6.14
Si -3.97  4.72 -6.15
Si -3.97  4.72  6.15
Si  3.97 -4.72 -6.15
Si  3.97 -4.72  6.15
Si  1.64  5.96 -6.16
Si  1.64  5.96  6.16
Si -1.64 -5.96 -6.16
Si -1.64 -5.96  6.16
Si  1.06  8.77  1.17
Si  1.06  8.77 -1.17
Si -1.06 -8.77  1.17
Si -1.06 -8.77 -1.17
Si -8.72 -1.45 -1.19
Si -8.72 -1.45  1.19
Si  8.72  1.45 -1.19
Si  8.72  1.45  1.19
Si -3.77  1.03  8.04
Si  3.77 -1.03  8.04
Si -3.77  1.03 -8.04
Si  3.77 -1.03 -8.04
Si  2.73  2.78 -8.05
Si  2.73  2.78  8.05
Si -2.73 -2.78 -8.05
Si -2.73 -2.78  8.05
Si  1.00 -3.73 -8.07
Si -1.00  3.73 -8.07
Si  1.00 -3.73  8.07
Si -1.00  3.73  8.07
Si -3.39 -8.57  1.21
Si -3.39 -8.57 -1.21
Si  3.39  8.57  1.21
Si  3.39  8.57 -1.21
Si -5.72  7.33 -1.21
Si -5.72  7.33  1.21
Si  5.72 -7.33 -1.21
Si  5.72 -7.33  1.21
Si -8.72  1.45  3.75
Si -8.72  1.45 -3.75
Si  8.72 -1.45  3.75
Si  8.72 -1.45 -3.75
Si -1.06  8.77 -3.78
Si -1.06  8.77  3.78
Si  1.06 -8.77 -3.78
Si  1.06 -8.77  3.78
Si  8.42 -4.51  1.17
Si  8.42 -4.51 -1.17
Si -8.42  4.51  1.17
Si -8.42  4.51 -1.17
Si  6.29 -4.51 -6.12
Si  6.29 -4.51  6.12
Si -6.29  4.51 -6.12
Si -6.29  4.51  6.12
Si -7.36  6.16 -2.47
Si -7.36 -6.16 -2.47
Si -7.36  6.16  2.47
Si -7.36 -6.16  2.47
Si  7.36 -6.16 -2.47
Si  7.36  6.16 -2.47
Si  7.36 -6.16  2.47
Si  7.36  6.16  2.47
Si  3.39 -8.57 -3.74
Si  3.39 -8.57  3.74
Si -3.39  8.57 -3.74
Si -3.39  8.57  3.74
Si -5.72 -7.33 -3.73
Si -5.72 -7.33  3.73
Si  5.72  7.33 -3.73
Si  5.72  7.33  3.73
Si  0.60 -2.28  9.90
Si  0.60 -2.28 -9.90
Si -0.60  2.28 -9.90
Si -0.60  2.28  9.90
Si  1.72  1.69 -9.90
Si  1.72  1.69  9.90
Si -1.72 -1.69 -9.90
Si -1.72 -1.69  9.90
Si  2.33 -0.63  9.90
Si  2.33 -0.63 -9.90
Si -2.33  0.63  9.90
Si -2.33  0.63 -9.90
Si -8.42 -4.51 -3.78
Si -8.42 -4.51  3.78
Si  8.42  4.51 -3.78
Si  8.42  4.51  3.78
Si -0.00  7.13 -7.42
Si -0.00 -7.13 -7.42
Si  0.00 -7.13  7.42
Si  0.00  7.13  7.42
Si -7.36 -0.00 -7.42
Si -7.36  0.00  7.42
Si  7.36 -0.00 -7.42
Si  7.36  0.00  7.42
Si  3.68  6.64 -7.29
Si -3.68 -6.64 -7.29
Si  3.68  6.64  7.29
Si -3.68 -6.64  7.29
Si  3.97  4.72  8.69
Si  3.97  4.72 -8.69
Si -3.97 -4.72  8.69
Si -3.97 -4.72 -8.69
Si  1.64 -5.96 -8.68
Si  1.64 -5.96  8.68
Si -1.64  5.96 -8.68
Si -1.64  5.96  8.68
Si -5.99  1.45 -8.70
Si -5.99  1.45  8.70
Si  5.99 -1.45 -8.70
Si  5.99 -1.45  8.70
Si -0.00 -10.38 -2.47
Si -0.00 -10.38  2.47
Si  0.00 10.38 -2.47
Si  0.00 10.38  2.47
Si  3.68 -6.64  7.56
Si -3.68  6.64  7.56
Si  3.68 -6.64 -7.56
Si -3.68  6.64 -7.56
Si -1.06  8.77 -6.12
Si -1.06  8.77  6.12
Si  1.06 -8.77 -6.12
Si  1.06 -8.77  6.12
Si -8.72  1.45  6.14
Si -8.72  1.45 -6.14
Si  8.72 -1.45  6.14
Si  8.72 -1.45 -6.14
Si -7.36  2.91 -7.42
Si -7.36  2.91  7.42
Si  7.36  2.91 -7.42
Si  7.36  2.91  7.42
Si -7.36 -2.91 -7.42
Si -7.36 -2.91  7.42
Si  7.36 -2.91 -7.42
Si  7.36 -2.91  7.42
Si  3.39 -8.57 -6.15
Si  3.39 -8.57  6.15
Si -3.39  8.57 -6.15
Si -3.39  8.57  6.15
Si -10.95 -1.03  1.86
Si -10.95 -1.03 -1.86
Si 10.95  1.03  1.86
Si 10.95  1.03 -1.86
Si -5.72 -7.33 -6.16
Si -5.72 -7.33  6.16
Si  5.72  7.33 -6.16
Si  5.72  7.33  6.16
Si -8.42 -4.51 -6.12
Si -8.42 -4.51  6.12
Si  8.42  4.51 -6.12
Si  8.42  4.51  6.12
Si -10.95  1.03 -3.09
Si -10.95  1.03  3.09
Si 10.95 -1.03 -3.09
Si 10.95 -1.03  3.09
Si -6.35  9.55 -1.83
Si -6.35  9.55  1.83
Si  6.35 -9.55 -1.83
Si  6.35 -9.55  1.83
Si -4.62 -10.51 -1.85
Si -4.62 -10.51  1.85
Si  4.62 10.51 -1.85
Si  4.62 10.51  1.85
Si -8.99 -7.33 -1.21
Si -8.99 -7.33  1.21
Si  8.99  7.33 -1.21
Si  8.99  7.33  1.21
Si -6.29 -4.51  8.73
Si -6.29 -4.51 -8.73
Si  6.29  4.51  8.73
Si  6.29  4.51 -8.73
Si -10.74  4.72  1.21
Si -10.74  4.72 -1.21
Si 10.74 -4.72  1.21
Si 10.74 -4.72 -1.21
Si  4.62 -10.51  3.10
Si  4.62 -10.51 -3.10
Si -4.62 10.51  3.10
Si -4.62 10.51 -3.10
Si -6.35 -9.55  3.12
Si -6.35 -9.55 -3.12
Si  6.35  9.55  3.12
Si  6.35  9.55 -3.12
Si -1.37 11.83 -1.19
Si -1.37 11.83  1.19
Si  1.37 -11.83 -1.19
Si  1.37 -11.83  1.19
Si -7.36  6.16 -7.42
Si -7.36 -6.16 -7.42
Si -7.36 -6.16  7.42
Si -7.36  6.16  7.42
Si  7.36 -6.16 -7.42
Si  7.36  6.16 -7.42
Si  7.36 -6.16  7.42
Si  7.36  6.16  7.42
Si -8.99  7.33 -3.73
Si -8.99  7.33  3.73
Si  8.99 -7.33 -3.73
Si  8.99 -7.33  3.73
Si 10.74  4.72 -3.74
Si 10.74  4.72  3.74
Si -10.74 -4.72 -3.74
Si -10.74 -4.72  3.74
Si  1.00 -3.73 -11.72
Si -1.00  3.73 -11.72
Si  1.00 -3.73 11.72
Si -1.00  3.73 11.72
Si  2.73  2.78 -11.75
Si  2.73  2.78 11.75
Si -2.73 -2.78 -11.75
Si -2.73 -2.78 11.75
Si -3.77  1.03 11.76
Si  3.77 -1.03 11.76
Si -3.77  1.03 -11.76
Si  3.77 -1.03 -11.76
Si -12.38 -0.63  0.00
Si 12.38  0.63  0.00
Si -8.72 -1.45 -8.70
Si -8.72 -1.45  8.70
Si  8.72  1.45 -8.70
Si  8.72  1.45  8.70
Si  1.06  8.77  8.73
Si  1.06  8.77 -8.73
Si -1.06 -8.77  8.73
Si -1.06 -8.77 -8.73
Si -11.98  2.78 -1.85
Si -11.98  2.78  1.85
Si 11.98 -2.78 -1.85
Si 11.98 -2.78  1.85
Si -1.37 -11.83  3.75
Si -1.37 -11.83 -3.75
Si  1.37 11.83  3.75
Si  1.37 11.83 -3.75
Si -3.39 -8.57  8.69
Si -3.39 -8.57 -8.69
Si  3.39  8.57  8.69
Si  3.39  8.57 -8.69
Si 11.98  2.78  3.10
Si 11.98  2.78 -3.10
Si -11.98 -2.78  3.10
Si -11.98 -2.78 -3.10
Si -5.99  1.45 -11.09
Si -5.99  1.45 11.09
Si  5.99 -1.45 -11.09
Si  5.99 -1.45 11.09
Si  3.97  4.72 11.10
Si  3.97  4.72 -11.10
Si -3.97 -4.72 11.10
Si -3.97 -4.72 -11.10
Si  1.64 -5.96 -11.11
Si  1.64 -5.96 11.11
Si -1.64  5.96 -11.11
Si -1.64  5.96 11.11
Si -5.72  7.33 -8.68
Si -5.72  7.33  8.68
Si  5.72 -7.33 -8.68
Si  5.72 -7.33  8.68
Si -0.00 -10.38 -7.42
Si -0.00 -10.38  7.42
Si  0.00 10.38 -7.42
Si  0.00 10.38  7.42
Si -8.36 -9.55 -1.83
Si -8.36 -9.55  1.83
Si  8.36  9.55 -1.83
Si  8.36  9.55  1.83
Si  5.63 11.60  0.00
Si -5.63 -11.60  0.00
Si -3.59 12.26  1.86
Si -3.59 12.26 -1.86
Si  3.59 -12.26  1.86
Si  3.59 -12.26 -1.86
Si -6.76 11.01  0.00
Si  6.76 -11.01  0.00
Si -10.95  1.03 -6.81
Si -10.95  1.03  6.81
Si 10.95 -1.03 -6.81
Si 10.95 -1.03  6.81
Si  8.42 -4.51  8.73
Si  8.42 -4.51 -8.73
Si -8.42  4.51  8.73
Si -8.42  4.51 -8.73
Si -8.36  9.55  3.12
Si -8.36  9.55 -3.12
Si  8.36 -9.55  3.12
Si  8.36 -9.55 -3.12
Si 11.03  6.64  2.34
Si 11.03  6.64 -2.34
Si -11.03 -6.64  2.34
Si -11.03 -6.64 -2.34
Si 12.99 -1.69  0.00
Si -12.99  1.69  0.00
Si -8.99  7.33 -6.16
Si -8.99  7.33  6.16
Si  8.99 -7.33 -6.16
Si  8.99 -7.33  6.16
Si 11.03 -6.64 -2.61
Si 11.03 -6.64  2.61
Si -11.03  6.64 -2.61
Si -11.03  6.64  2.61
Si  3.59 12.26 -3.09
Si  3.59 12.26  3.09
Si -3.59 -12.26 -3.09
Si -3.59 -12.26  3.09
Si 10.74  4.72 -6.15
Si 10.74  4.72  6.15
Si -10.74 -4.72 -6.15
Si -10.74 -4.72  6.15
Si -6.35 -9.55  6.77
Si -6.35 -9.55 -6.77
Si  6.35  9.55  6.77
Si  6.35  9.55 -6.77
Si  4.62 -10.51  6.80
Si  4.62 -10.51 -6.80
Si -4.62 10.51  6.80
Si -4.62 10.51 -6.80
Si 12.38 -0.63  4.95
Si 12.38 -0.63 -4.95
Si -12.38  0.63  4.95
Si -12.38  0.63 -4.95
Si -1.37 -11.83  6.14
Si -1.37 -11.83 -6.14
Si  1.37 11.83  6.14
Si  1.37 11.83 -6.14
Si -6.29 -4.51 11.06
Si -6.29 -4.51 -11.06
Si  6.29  4.51 11.06
Si  6.29  4.51 -11.06
Si  0.00 13.29 -2.47
Si -0.00 -13.29 -2.47
Si  0.00 13.29  2.47
Si -0.00 -13.29  2.47
Si -3.77 -1.03 -12.98
Si  3.77  1.03 -12.98
Si -3.77 -1.03 12.98
Si  3.77  1.03 12.98
Si -2.73  2.78 12.99
Si -2.73  2.78 -12.99
Si  2.73 -2.78 12.99
Si  2.73 -2.78 -12.99
Si  1.00  3.73 13.02
Si -1.00 -3.73 13.02
Si  1.00  3.73 -13.02
Si -1.00 -3.73 -13.02
Si -7.95 -11.01  0.00
Si  7.95 11.01  0.00
Si -5.02 12.65  0.00
Si  5.02 -12.65  0.00
Si -10.95 -1.03  8.04
Si -10.95 -1.03 -8.04
Si 10.95  1.03  8.04
Si 10.95  1.03 -8.04
Si  5.63 -11.60  4.95
Si -5.63 11.60  4.95
Si  5.63 -11.60 -4.95
Si -5.63 11.60 -4.95
Si -6.76 -11.01  4.95
Si -6.76 -11.01 -4.95
Si  6.76 11.01  4.95
Si  6.76 11.01 -4.95
Si 12.99  1.69  4.95
Si 12.99  1.69 -4.95
Si -12.99 -1.69  4.95
Si -12.99 -1.69 -4.95
Si -4.62 -10.51 -8.05
Si -4.62 -10.51  8.05
Si  4.62 10.51 -8.05
Si  4.62 10.51  8.05
Si -6.35  9.55 -8.07
Si -6.35  9.55  8.07
Si  6.35 -9.55 -8.07
Si  6.35 -9.55  8.07
Si 11.98  2.78  6.80
Si 11.98  2.78 -6.80
Si -11.98 -2.78  6.80
Si -11.98 -2.78 -6.80
Si  1.06  8.77 11.06
Si  1.06  8.77 -11.06
Si -1.06 -8.77 11.06
Si -1.06 -8.77 -11.06
Si -8.72 -1.45 -11.09
Si -8.72 -1.45 11.09
Si  8.72  1.45 -11.09
Si  8.72  1.45 11.09
Si 11.32 -8.57  1.21
Si 11.32 -8.57 -1.21
Si -11.32  8.57  1.21
Si -11.32  8.57 -1.21
Si -0.00  7.13 -12.37
Si -0.00 -7.13 -12.37
