500
set: 660.00  0.00  0.00
Si -0.98  0.96 -0.34
Si -0.84 -0.33  1.61
Si  0.67  1.74 -1.26
Si -0.02 -2.28  0.30
Si -0.34  1.71  2.57
Si  1.89 -2.42 -0.67
Si  1.36 -0.99 -2.72
Si -1.70 -2.30 -1.52
Si -2.01 -0.31 -2.53
Si -2.54  2.49 -0.12
Si  1.31  3.36  0.59
Si  2.25  1.62  2.44
Si  2.88  0.96 -2.21
Si -3.23 -0.85  1.73
Si  2.42 -1.28  2.66
Si  0.38 -1.96  3.39
Si -2.92  1.43  2.30
Si -0.98  3.50  1.78
Si -0.10 -1.04 -4.21
Si -0.08  2.82 -3.33
Si  4.14 -1.77 -0.50
Si  4.60  0.54 -0.13
Si  0.43 -4.11  2.14
Si -0.04  0.29  4.83
Si -3.36 -3.43  1.28
Si  4.56  1.03  1.89
Si -1.84  2.61  3.93
Si -3.77 -1.85 -2.94
Si  4.04 -2.55  1.99
Si -1.08 -3.92 -3.38
Si  2.39 -4.08 -2.55
Si -1.56 -5.03  1.23
Si -1.98  5.00 -0.91
Si -4.90  2.31 -1.10
Si  2.73 -4.55  1.59
Si  1.91 -2.79 -4.49
Si -0.03  5.16 -2.25
Si  3.77  0.34 -4.27
Si  0.44  2.28  5.31
Si  2.66  3.01  4.19
Si -3.57 -1.72  4.38
Si -2.14  3.03 -4.63
Si -0.20 -2.90 -5.26
Si -4.28  2.82 -3.17
Si -2.07 -3.57  4.41
Si  0.44  2.28 -5.61
Si -4.60  0.51 -3.94
Si  3.49 -1.10  4.85
Si -4.99  2.79  2.10
Si -0.04  0.29 -6.08
Si -3.18  0.48  5.21
Si  3.45  5.07  0.10
Si  3.37  2.80 -4.30
Si -0.03 -5.76 -2.25
Si -1.56  5.88  1.23
Si -5.22 -3.14 -1.47
Si -5.42 -0.92  3.07
Si -1.98 -5.92 -0.91
Si -6.31  0.54 -0.13
Si -0.20 -2.90  5.65
Si  5.50 -0.92  3.07
Si -3.85 -5.04 -0.96
Si  6.02  2.31 -1.10
Si -3.18  0.48 -5.71
Si  5.70 -3.14 -1.47
Si -6.36  1.03  1.89
Si -0.10 -1.04  6.70
Si  3.45 -5.84  0.10
Si -3.22 -3.90 -4.58
Si -5.24  4.40 -0.38
Si  5.93  2.79  2.10
Si  4.23 -5.09 -2.14
Si -2.92  5.04  3.90
Si -6.78 -1.77 -0.50
Si  3.49 -1.10 -6.06
Si -3.85  5.87 -0.96
Si  2.73  6.36  1.59
Si  0.43  6.80  2.14
Si  5.68  4.40 -0.38
Si -5.33 -4.09  2.67
Si  1.91 -2.79  6.42
Si -2.14  3.03  6.29
Si  3.65 -4.20 -4.86
Si  3.63  5.20  3.83
Si  5.59 -4.09  2.67
Si  6.31  0.51 -3.94
Si  4.23  5.82 -2.14
Si -6.88 -2.55  1.99
Si -2.92 -5.88  3.90
Si  5.16  4.32 -3.62
Si -3.57 -1.72 -6.53
Si  3.77  0.34  6.64
Si -5.20  4.47  3.38
Si  2.39  6.84 -2.55
Si -1.84  2.61 -6.98
Si -0.98 -7.41  1.78
Si  1.31 -7.56  0.59
Si -2.07 -3.57 -6.51
Si  3.63 -5.72  3.83
Si  0.38 -1.96 -7.52
Si  2.66  3.01 -6.72
Si -1.08  6.99 -3.38
Si  6.63  2.82 -3.17
Si  7.68 -0.85  1.73
Si  3.37  2.80  6.61
Si  7.15 -1.85 -2.94
Si  5.71  4.47  3.38
Si -5.76  4.32 -3.62
Si -0.08  2.82  7.59
Si -3.22 -3.90  6.34
Si  3.65 -4.20  6.05
Si -3.36  7.48  1.28
Si -7.14  0.34 -4.27
Si  1.36 -0.99  8.19
Si -5.24 -6.51 -0.38
Si -4.60  0.51  6.98
Si -8.03  0.96 -2.21
Si  7.55 -3.43  1.28
Si  8.00  1.43  2.30
Si -0.34  1.71 -8.35
Si -1.08 -3.92  7.53
Si -2.01 -0.31  8.39
Si -0.02  8.64  0.30
Si  5.68 -6.51 -0.38
Si -6.69 -5.09 -2.14
Si  2.42 -1.28 -8.25
Si  7.34 -1.72  4.38
Si  1.89  8.49 -0.67
Si -5.21 -4.93 -4.97
Si  7.06 -5.04 -0.96
Si  8.37  2.49 -0.12
Si -0.08 -8.10 -3.33
Si -2.54 -8.42 -0.12
Si -2.07  7.34  4.41
Si -1.70  8.61 -1.52
Si  2.25  1.62 -8.48
Si -7.42 -1.10  4.85
Si -5.20 -6.44  3.38
Si -3.22  7.02 -4.58
Si -8.49 -1.28  2.66
Si -3.77 -1.85  7.97
Si -7.46  5.07  0.10
Si  5.70 -4.93 -4.97
Si  3.65  6.72 -4.86
Si -5.33  6.83  2.67
Si -2.92  5.04 -7.01
Si  5.16 -6.59 -3.62
Si -6.69  5.82 -2.14
Si -7.55  2.80 -4.30
Si -8.66  1.62  2.44
Si -2.92  1.43 -8.61
Si  5.59  6.83  2.67
Si  2.88  0.96  8.71
Si  7.06  5.87 -0.96
Si  5.71 -6.44  3.38
Si  8.91 -0.31 -2.53
Si -4.28  2.82  7.74
Si  0.67 -9.18 -1.26
Si -5.21 -4.93  5.94
Si  2.66 -7.90  4.19
Si  7.74  0.48  5.21
Si -0.84 -0.33 -9.31
Si -5.21  5.99 -4.97
Si -1.84 -8.30  3.93
Si -9.03 -2.42 -0.67
Si -2.14 -7.88 -4.63
Si  6.31  0.51  6.98
Si -5.76 -6.59 -3.62
Si -5.22  7.78 -1.47
Si -7.46 -5.84  0.10
Si  1.91  8.13 -4.49
Si -8.18 -4.55  1.59
Si  4.04  8.36  1.99
Si  3.63  5.20 -7.08
Si -0.34 -9.21  2.57
Si -5.42 -0.92 -7.84
Si  0.38  8.96  3.39
Si -0.20  8.01 -5.26
Si  5.70 -4.93  5.94
Si -2.92 -5.88 -7.01
Si  2.39 -4.08  8.36
Si  5.50 -0.92 -7.84
Si  9.22 -2.30 -1.52
Si  7.74  0.48 -5.71
Si -7.42 -1.10 -6.06
Si  5.70  5.99 -4.97
Si -4.28 -8.09 -3.17
Si -7.26 -4.20 -4.86
Si  0.43 -4.11 -8.77
Si -7.28  5.20  3.83
Si -8.25  3.01  4.19
Si  5.70  7.78 -1.47
Si  3.65  6.72  6.05
Si -7.14  0.34  6.64
Si  7.69 -3.90 -4.58
Si -4.99 -8.13  2.10
Si -3.23 -0.85 -9.19
Si  3.37 -8.11 -4.30
Si -8.53 -4.08 -2.55
Si  3.63 -5.72 -7.08
Si -0.20  8.01  5.65
Si -1.70 -2.30  9.39
Si -0.98  3.50 -9.14
Si  0.67  1.74  9.66
Si  2.25 -9.29  2.44
Si -5.21  5.99  5.94
Si  5.16  4.32  7.29
Si -4.90 -8.60 -1.10
Si  7.34 -1.72 -6.53
Si -9.55 -0.99 -2.72
Si  9.93  0.96 -0.34
Si -3.22  7.02  6.34
Si -0.98 -9.95 -0.34
Si -7.28 -5.72  3.83
Si -2.07  7.34 -6.51
Si  4.14  9.15 -0.50
Si -0.03  5.16  8.66
Si  4.04 -2.55 -8.93
Si  0.44 -8.64  5.31
Si  4.56  1.03 -9.03
Si  5.70  5.99  5.94
Si -2.92 -9.48  2.30
Si -5.20  4.47 -7.53
Si -9.61  3.36  0.59
Si 10.08 -0.33  1.61
Si  8.00  5.04  3.90
Si  9.07  2.61  3.93
Si -3.77  9.06 -2.94
Si -5.76  4.32  7.29
Si  8.93  5.00 -0.91
Si  5.93 -8.13  2.10
Si  2.42  9.63  2.66
Si  0.44 -8.64 -5.61
Si -2.14 -7.88  6.29
Si -1.08  6.99  7.53
Si -7.26 -4.20  6.05
Si  8.78  3.03 -4.63
Si  1.36  9.92 -2.72
Si -0.03 -5.76  8.66
Si -7.55  2.80  6.61
Si -9.00 -2.79 -4.49
Si  5.71  4.47 -7.53
Si -10.24  1.74 -1.26
Si -8.18  6.36  1.59
Si -4.99  2.79 -8.81
Si  8.84 -3.57  4.41
Si  1.91  8.13  6.42
Si  6.02 -8.60 -1.10
Si  6.63  2.82  7.74
Si  2.88 -9.95 -2.21
Si -5.33 -4.09 -8.24
Si  8.00 -5.88  3.90
Si -0.98  0.96 10.58
Si  9.93  3.50  1.78
Si  1.89 -2.42 10.24
Si  9.36 -5.03  1.23
Si  7.69 -3.90  6.34
Si  7.55  7.48  1.28
Si -3.23 10.07  1.73
Si  2.66 -7.90 -6.72
Si  2.73 -4.55 -9.33
Si -0.10  9.88 -4.21
Si -0.84 10.58  1.61
Si  8.93 -5.92 -0.91
Si  5.59 -4.09 -8.24
Si -3.36 -3.43 -9.64
Si -3.57  9.20  4.38
Si -0.02 -2.28 -10.62
Si  7.15 -1.85  7.97
Si  1.31  3.36 -10.32
Si  6.63 -8.09 -3.17
Si  5.93  2.79 -8.81
Si  4.23 -5.09  8.78
Si  3.37 -8.11  6.61
Si -1.84 -8.30 -6.98
Si -6.88  8.36  1.99
Si 10.57  1.71  2.57
Si -7.26  6.72 -4.86
Si -1.56 -5.03 -9.69
Si  4.56 -9.88  1.89
Si -8.25  3.01 -6.72
Si  2.39  6.84  8.36
Si -6.36  1.03 -9.03
Si -2.01 10.61 -2.53
Si -0.08 -8.10  7.59
Si  5.16 -6.59  7.29
Si  0.43  6.80 -8.77
Si  9.83 -3.92 -3.38
Si  9.36  5.88  1.23
Si 10.89 -2.28  0.30
Si -10.94 -2.28  0.30
Si -5.20 -6.44 -7.53
Si -4.90  2.31  9.81
Si  8.78  3.03  6.29
Si -8.53  6.84 -2.55
Si -10.53 -1.96  3.39
Si -5.22 -3.14  9.44
Si -0.98  0.96 -11.25
Si  4.14 -1.77 10.41
Si  4.60 -10.37 -0.13
Si  4.23  5.82  8.78
Si -1.98  5.00 10.00
Si -2.54  2.49 10.79
Si  7.69  7.02 -4.58
Si -0.84 -11.24  1.61
Si -5.76 -6.59  7.29
Si -6.78  9.15 -0.50
Si -9.00 -2.79  6.42
Si -7.28  5.20 -7.08
Si -1.56  5.88 -9.69
Si  5.71 -6.44 -7.53
Si -0.02 -2.28 11.21
Si -10.48 -4.11  2.14
Si  5.70 -3.14  9.44
Si  3.49  9.81  4.85
Si  8.84 -3.57 -6.51
Si -6.88 -2.55 -8.93
Si -2.54  2.49 -11.03
Si -7.26  6.72  6.05
Si  2.73  6.36 -9.33
Si 10.81 -1.04 -4.21
Si -7.28 -5.72 -7.08
Si -0.04 -10.62  4.83
Si -11.26  1.71  2.57
Si -2.01 -11.22 -2.53
Si 10.84  2.82 -3.33
Si  0.38  8.96 -7.52
Si  6.02  2.31  9.81
Si  4.60  0.54 10.79
Si  9.07  2.61 -6.98
Si  8.00  5.04 -7.01
Si -5.42 10.00  3.07
Si 11.58  1.74 -1.26
Si -1.98 -5.92 10.00
Si -3.85 -5.04  9.95
Si -0.98 -7.41 -9.14
Si  5.50 10.00  3.07
Si -10.99  2.82 -3.33
Si -3.57  9.20 -6.53
Si -11.02 -1.04 -4.21
Si  8.00  1.43 -8.61
Si -11.75 -0.33  1.61
Si  8.37 -8.42 -0.12
Si -8.03  0.96  8.71
Si -7.55 -8.11 -4.30
Si -6.36 -9.88  1.89
Si 10.88  0.29  4.83
Si  7.15  9.06 -2.94
Si -8.49 -1.28 -8.25
Si -0.98 11.88 -0.34
Si -0.10  9.88  6.70
Si -11.90  0.96 -0.34
Si -5.33  6.83 -8.24
Si 11.30 -1.96  3.39
Si -10.48  2.28  5.31
Si  4.60  0.54 -11.04
Si -10.95  0.29  4.83
Si  1.89 -2.42 -11.58
Si -4.28 -8.09  7.74
Si  7.68 -0.85 -9.19
Si  3.77 -10.58 -4.27
Si -4.60 -10.41 -3.94
Si  3.49  9.81 -6.06
Si  1.31  3.36 11.51
Si  5.59  6.83 -8.24
Si -3.18 -10.44  5.21
Si -10.48  2.28 -5.61
Si -6.31 -10.37 -0.13
Si -6.69 -5.09  8.78
Si  8.00 -5.88 -7.01
Si -8.25 -7.90  4.19
Si -3.85  5.87  9.95
Si  7.69  7.02  6.34
Si -0.04 11.21  4.83
Si -8.66  1.62 -8.48
Si -9.61 -7.56  0.59
Si -0.04 -10.62 -6.08
Si  8.91 -0.31  8.39
Si 10.88  5.16 -2.25
Si 11.35 -4.11  2.14
Si  4.14 -1.77 -11.41
Si 10.71 -2.90 -5.26
Si  1.36 -11.90 -2.72
Si -10.94  5.16 -2.25
Si  8.84  7.34  4.41
Si  0.67  1.74 -12.17
Si -3.18 -10.44 -5.71
Si -3.23 -11.76  1.73
Si  4.60 11.46 -0.13
Si -9.03  8.49 -0.67
Si  2.88 11.88 -2.21
Si  3.45  5.07 -10.81
Si -0.34 -9.21 -8.35
Si 10.71 -2.90  5.65
Si 10.88  0.29 -6.08
Si -6.69  5.82  8.78
Si -6.31  0.54 10.79
Si  9.93 -7.41  1.78
Si 10.88 -5.76 -2.25
Si -11.90  3.50  1.78
Si -10.95  0.29 -6.08
Si  9.83  6.99 -3.38
Si -6.78 -1.77 10.41
Si -0.84 -0.33 12.52
Si  7.34  9.20  4.38
Si -5.24  4.40 10.53
Si -10.94 -5.76 -2.25
Si  3.45  5.07 11.01
Si  3.77 11.25 -4.27
Si 12.28 -0.99 -2.72
Si  8.00 -9.48  2.30
Si -9.55 -0.99  8.19
Si -8.53 -4.08  8.36
Si -11.12 -2.90 -5.26
Si -3.77  9.06  7.97
Si -3.36  7.48 -9.64
Si  8.78 -7.88 -4.63
Si -0.10 -11.95 -4.21
Si -10.48  6.80  2.14
Si 12.22  3.36  0.59
Si  9.22  8.61 -1.52
Si  7.55 -3.43 -9.64
Si  2.42 -12.20  2.66
Si  0.67 12.65 -1.26
Si -6.31  0.54 -11.04
Si 11.35  2.28  5.31
Si  5.68  4.40 10.53
Si -0.04 11.21 -6.08
Si -1.70 -2.30 -12.44
Si 10.81 -1.04  6.70
Si  3.45 -5.84 -10.81
Si  2.25 -9.29 -8.48
Si  7.68 10.07  1.73
Si  6.31 -10.41 -3.94
Si -11.12 -2.90  5.65
Si -1.70  8.61  9.39
Si  1.31 -7.56 -10.32
Si 11.35  2.28 -5.61
Si  4.04  8.36 -8.93
Si -0.34 12.62  2.57
Si -2.92 12.34  2.30
Si -7.55 -8.11  6.61
Si -12.61 -2.30 -1.52
Si  2.42  9.63 -8.25
Si  9.07 -8.30  3.93
Si -3.18 11.39  5.21
Si  4.56 11.94  1.89
Si -4.60 11.42 -3.94
Si -9.00  8.13 -4.49
Si -8.66 -9.29  2.44
Si -11.02 -1.04  6.70
Si  3.45 -5.84 11.01
Si  1.36  9.92  8.19
Si  2.25 12.54  2.44
Si -8.03 -9.95 -2.21
Si -4.99 -8.13 -8.81
Si  9.83 -3.92  7.53
Si -1.98  5.00 -11.83
Si  6.63 -8.09  7.74
Si 12.80 -2.42 -0.67
Si  3.77 -10.58  6.64
Si -11.99 -3.92 -3.38
Si -3.23 -0.85 12.64
Si -6.31 11.46 -0.13
Si -10.53 -1.96 -7.52
Si -3.36 -3.43 12.19
Si -8.49  9.63  2.66
Si -3.18 11.39 -5.71
Si -2.92 -9.48 -8.61
Si -12.92 -0.31 -2.53
Si -4.90  2.31 -12.02
Si -0.02 -13.19  0.30
Si -0.98  3.50 12.69
Si  7.06 -5.04  9.95
Si -5.24  4.40 -11.30
Si  8.84  7.34 -6.51
Si -8.18 -4.55 -9.33
Si -7.42  9.81  4.85
Si -1.56 -5.03 12.14
Si -8.25 -7.90 -6.72
Si -5.22  7.78  9.44
Si  0.38 -12.87  3.39
Si  0.67 -9.18  9.66
Si  4.14 -12.68 -0.50
Si -4.60 -10.41  6.98
Si  9.22 -2.30  9.39
Si  8.78 -7.88  6.29
Si -5.42 -11.83  3.07
Si  5.93 -8.13 -8.81
Si -1.98 -5.92 -11.83
Si  5.68  4.40 -11.30
Si -6.78 -1.77 -11.41
Si 11.35  6.80  2.14
Si  5.50 -11.83  3.07
Si -1.70 -13.21 -1.52
Si  3.49 -12.01  4.85
Si  1.89  8.49 10.24
Si -5.24 -6.51 10.53
Si  7.34  9.20 -6.53
Si -7.14 -10.58 -4.27
