500
set: 1521.00  0.00  0.00
Si -0.37  1.47 -1.06
Si  0.26  1.96  1.06
Si -2.29 -0.51  0.90
Si  1.36 -1.96 -1.06
Si  0.12 -0.26 -2.67
Si  1.99 -1.47  1.05
Si -2.58  0.51 -0.90
Si -0.34 -2.57  1.06
Si  1.51  0.26  2.67
Si -1.72  1.46  2.10
Si -0.96 -3.05 -1.06
Si  1.95  2.57 -1.06
Si -0.47 -0.23  3.71
Si  3.91  0.51 -0.90
Si -3.15 -1.46 -2.10
Si  2.58  3.05  1.05
Si  3.34 -1.46 -2.10
Si  2.09  0.23 -3.71
Si  4.20 -0.51  0.90
Si -2.31 -3.06  2.10
Si -1.70  4.01  0.90
Si -2.08  1.33 -3.71
Si -0.46 -2.23 -3.87
Si  0.13  2.29 -3.87
Si -2.56  3.06 -2.10
Si  1.49 -2.29  3.87
Si -2.79 -1.33  3.71
Si -4.50 -1.47  1.05
Si  2.08  2.24  3.87
Si -3.91  3.05  1.05
Si  0.71  4.26 -2.67
Si  0.92 -4.26  2.67
Si -3.17 -4.01 -0.90
Si  3.32 -4.01 -0.90
Si -4.54  2.57 -1.06
Si -2.20  3.19  3.71
Si  3.93  3.06 -2.10
Si  3.70 -1.33  3.71
Si  4.78  1.46  2.10
Si -1.99  5.04 -0.90
Si -0.48 -4.78 -2.67
Si -2.67 -3.19 -3.71
Si -5.13 -1.96 -1.06
Si  4.18 -3.06  2.10
Si -4.98  0.26  2.67
Si  0.12  4.29  3.71
Si -4.40  0.23 -3.71
Si  0.16  0.25  5.82
Si -0.75 -1.21 -5.67
Si  1.50 -4.29 -3.71
Si  2.10  4.78  2.67
Si -2.88 -5.04  0.90
Si  4.41  1.33 -3.71
Si  1.47 -0.25 -5.82
Si  0.23  5.99 -1.06
Si -1.06 -4.76  3.71
Si  3.82 -3.19 -3.71
Si  1.40 -5.99  1.05
Si  3.61 -5.04  0.90
Si  2.37  1.21  5.67
Si -2.17 -0.84  5.82
Si -4.41  2.24  3.87
Si  4.79  4.01  0.90
Si  6.12  1.47 -1.06
Si  5.53 -3.05 -1.06
Si -1.12  5.99  2.10
Si -2.71  0.84 -5.83
Si  4.29  3.19  3.71
Si -0.16  3.31 -5.67
Si  2.68  4.76 -3.71
Si  0.77 -6.48 -1.06
Si -6.23  1.96  1.06
Si  0.85  6.48  1.06
Si -5.00 -2.29  3.87
Si  6.16 -2.57  1.06
Si  1.78 -3.31  5.67
Si  4.50  5.04 -0.90
Si  2.75 -5.99 -2.10
Si -6.37 -0.26 -2.67
Si  3.79  0.84 -5.83
Si -4.39  4.78  2.67
Si -0.73  1.34 -6.86
Si -1.57  3.68  5.82
Si  6.02 -0.23  3.71
Si -1.49  5.85 -3.71
Si -6.86  1.47 -1.06
Si  6.75  1.96  1.06
Si -4.12  1.21  5.67
Si  6.61 -0.26 -2.67
Si -3.81  4.76 -3.71
Si -0.93 -7.09  1.06
Si -0.43 -4.27  5.82
Si  4.32 -0.84  5.82
Si -3.74 -5.99 -2.10
Si -6.83 -2.57  1.06
Si  2.35 -1.34  6.87
Si  6.03 -2.23 -3.87
Si -5.57 -4.26  2.67
Si  2.06  4.27 -5.82
Si -4.99 -4.29 -3.71
Si  0.75  4.78  5.82
Si  0.87 -4.78 -5.82
Si  3.19 -3.68 -5.83
Si  3.11 -5.85  3.71
Si  2.54  7.09 -1.06
Si -3.30 -3.68 -5.83
Si -5.78  4.26 -2.67
Si -1.32 -3.19 -6.86
Si -5.03 -0.25 -5.82
Si -0.32  1.98  7.44
Si -3.38 -5.85  3.71
Si -6.36  2.29 -3.87
Si -1.55 -7.58 -1.06
Si -1.05 -6.76 -3.87
Si  0.72  6.81 -3.87
Si  0.90 -6.81  3.87
Si -6.96 -0.23  3.71
Si -0.91 -2.54  7.44
Si -5.09 -5.99  1.05
Si  1.95 -1.98 -7.43
Si  6.62  2.29 -3.87
Si -4.71 -3.31  5.67
Si -1.97  7.58 -2.10
Si  5.43 -4.76  3.71
Si -7.45 -3.05 -1.06
Si  2.94  3.19  6.87
Si -4.14 -1.34  6.87
Si  6.01 -4.78 -2.67
Si  5.74 -1.21 -5.67
Si  7.85 -1.96 -1.06
Si -1.34 -5.73 -5.67
Si -3.94  7.09 -1.06
Si -2.11  5.37 -5.83
Si  2.67  6.76  3.87
Si  2.54  2.54 -7.43
Si -6.95 -2.23 -3.87
Si  3.17  7.58  1.05
Si  5.37  5.99  2.10
Si -3.32  7.58  1.05
Si -3.55  3.19  6.87
Si -2.90 -7.58  2.10
Si -2.76 -5.37  5.82
Si  8.00  0.26  2.67
Si  4.92  3.68  5.82
Si -4.43  4.27 -5.82
Si -0.25 -0.39 -8.48
Si -6.37  4.29  3.71
Si  5.00  5.85 -3.71
Si  2.96  5.73  5.67
Si -8.21  1.46  2.10
Si -6.33  0.25  5.82
Si  3.59 -7.58  2.10
Si -1.11  8.53  0.90
Si -5.64  6.48  1.06
Si -0.34 -0.56  8.63
Si  8.48 -1.47  1.05
Si -3.82  6.76  3.87
Si  1.87  0.39  8.48
Si -5.72 -6.48 -1.06
Si -1.61  7.71  3.71
Si  6.61  4.29  3.71
Si -6.26  5.99 -1.06
Si  3.73 -5.37  5.82
Si  7.20  4.26 -2.67
Si -3.95  2.54 -7.43
Si -3.53  5.73  5.67
Si  6.65  0.25  5.82
Si -8.78 -0.51  0.90
Si -6.97 -4.78 -2.67
Si  1.97  0.57 -8.63
Si  8.44  2.57 -1.06
Si -2.30  1.49  8.47
Si -4.54 -1.98 -7.43
Si  7.41 -4.26  2.67
Si -2.57 -1.49 -8.48
Si  2.73 -8.53 -0.90
Si -0.14  5.86 -6.86
Si  4.38  5.37 -5.83
Si  6.71  5.99 -1.06
Si  5.76  1.34 -6.86
Si  5.56 -7.09  1.06
Si  4.52  7.58 -2.10
Si  4.94 -7.58 -1.06
Si  6.33  3.31 -5.67
Si -9.07  0.51 -0.90
Si  3.23 -7.71 -3.71
Si  7.98 -2.29  3.87
Si -3.26 -7.71 -3.71
Si -8.19  4.01  0.90
Si  5.17 -3.19 -6.86
Si  0.33 -8.79  2.67
Si  1.76 -5.86  6.87
Si -1.98  3.03 -8.48
Si -7.24 -1.21 -5.67
Si  1.30  8.79 -2.67
Si -6.65  3.31 -5.67
Si  8.58  0.23 -3.71
Si -3.76 -8.53 -0.90
Si -5.62 -4.78 -5.82
Si  6.06 -4.27  5.82
Si -8.57  1.33 -3.71
Si  0.34  4.13 -8.48
Si -2.89 -3.04  8.47
Si  3.92 -1.49 -8.48
Si -5.74  4.78  5.82
Si  5.44 -6.76 -3.87
Si  0.25  3.96  8.63
Si  1.28 -4.13  8.48
Si -8.80 -3.06  2.10
Si  5.15 -5.73 -5.67
Si  4.19  1.49  8.47
Si  0.71  8.81  3.71
Si  1.37 -3.96 -8.63
Si  0.91 -8.81 -3.71
Si -5.59 -6.81  3.87
Si  9.07  3.05  1.05
Si  5.58 -2.54  7.44
Si -4.62  0.39  8.48
Si -7.55 -4.76  3.71
Si  8.57  2.24  3.87
Si  0.43  7.84 -5.67
Si  3.60 -3.04  8.47
Si -1.40  9.56 -0.90
Si -5.76  6.81 -3.87
Si -1.07 -9.30 -2.67
Si  1.19 -7.84  5.67
Si -4.53  0.57 -8.63
Si -9.05  3.06 -2.10
Si  7.26 -6.48 -1.06
Si  7.99 -4.29 -3.71
Si -0.84 -4.91 -8.48
Si  7.34  6.48  1.06
Si  4.88  7.71  3.71
Si  7.96 -0.25 -5.82
Si  6.17  1.98  7.44
Si  0.27  6.50  7.44
Si -8.48  5.04 -0.90
Si -7.61  5.99  2.10
Si  7.89 -5.99  1.05
Si  1.36 -6.50 -7.43
Si -8.69  3.19  3.71
Si -9.64 -1.46 -2.10
Si -6.92 -4.27  5.82
Si  2.69  9.30  2.67
Si -7.22  1.34 -6.86
Si  3.02 -9.56  0.90
Si -0.94 -5.09  8.63
Si  4.51  3.03 -8.48
Si -9.28 -1.33  3.71
Si  2.46  4.91  8.48
Si -0.98  8.20  5.82
Si -1.65 -9.28  3.71
Si  5.38  8.53  0.90
Si  9.83 -1.46 -2.10
Si  8.59  4.78  2.67
Si -4.73 -5.86  6.87
Si -3.47 -9.56  0.90
Si -6.81  1.98  7.44
Si -7.42 -7.09  1.06
Si  2.56  5.09 -8.63
Si -1.50 -7.07  7.44
Si -9.16 -3.19 -3.71
Si  2.60 -8.20 -5.83
Si -3.80  9.30  2.67
Si  7.24  4.78  5.82
Si 10.40  0.51 -0.90
Si -8.66 -0.84  5.82
Si -1.91 -7.71 -6.86
Si -9.66 -4.01 -0.90
Si -3.22  9.28 -3.71
Si  3.27  9.28 -3.71
Si -1.71  6.01  8.47
Si  7.36 -4.78 -5.82
Si  6.24 -0.39 -8.48
Si -5.19  8.79 -2.67
Si -0.05 -1.59 10.43
Si  8.27 -3.31  5.67
Si -7.98  5.85 -3.71
Si  8.86  1.21  5.67
Si -1.02 -8.79  5.82
Si -4.03  4.91  8.48
Si  0.81 -10.51  1.05
Si  0.82 10.52 -1.06
Si -8.06  3.68  5.82
Si  6.15 -0.56  8.63
Si  9.81 -4.01 -0.90
Si  7.21  6.81 -3.87
Si -0.87 -0.88 -10.59
Si -9.37 -5.04  0.90
Si  1.67  1.59 -10.43
Si  3.13  7.06 -7.43
Si -0.53 10.51  2.10
Si -2.96  7.71  6.87
Si 10.69 -0.51  0.90
Si  7.39 -6.81  3.87
Si -3.93  5.09 -8.63
Si -5.21 -4.13  8.48
Si -3.89 -8.20 -5.83
Si -5.12 -3.96 -8.63
Si -3.36  7.06 -7.43
Si -7.40 -2.54  7.44
Si -7.54 -6.76 -3.87
Si -6.74 -0.39 -8.48
Si  0.54  2.93 10.43
Si -3.16 -6.01 -8.48
Si  5.09  9.56 -0.90
Si -7.81 -3.19 -6.86
Si  2.65  8.79 -5.82
Si -10.40  3.05  1.05
Si  1.08 -2.93 -10.43
Si -1.67  1.98 10.59
Si  3.54  7.71  6.87
Si  3.33 -6.01 -8.48
Si  2.49  0.88 10.59
Si -9.20  0.84 -5.83
Si 10.19 -1.33  3.71
Si  2.16 -10.51 -2.10
Si  0.28 -9.30 -5.82
Si  9.17  4.76 -3.71
Si -6.83 -0.56  8.63
Si -5.30 -7.84  5.67
Si  6.36  5.86 -6.86
Si  1.34  9.30  5.82
Si  0.18 -11.00 -1.06
Si -0.90 10.38 -3.71
Si -6.16 -8.79  2.67
Si 10.42  3.06 -2.10
Si -5.58 -8.81 -3.71
Si  5.42 -9.30 -2.67
Si -8.04 -7.58 -1.06
Si  4.84 -9.28  3.71
Si -2.26 -2.55 10.59
Si -5.13 -6.50 -7.43
Si -10.99 -1.47  1.05
Si  1.44 11.00  1.06
Si -5.78  8.81  3.71
Si  8.55  4.27 -5.82
Si -6.62  5.86 -6.86
Si -2.60  2.55 -10.59
Si -0.28  3.65 -10.59
Si  9.24 -5.99 -2.10
Si -3.84  8.79 -5.82
Si -7.83 -5.73 -5.67
Si -3.19 -1.98 -10.59
Si -6.15  4.13 -8.48
Si  3.30 -1.98 -10.59
Si  8.84 -1.34  6.87
Si  4.58 -7.71 -6.86
Si 10.67 -3.06  2.10
Si  2.52 -10.38  3.71
Si  5.65 -4.91 -8.48
Si 10.10 -5.04  0.90
Si -4.00  0.88 10.59
Si  1.90 -3.65 10.59
Si -6.24  3.96  8.63
Si -11.03  2.57 -1.06
Si  4.99 -7.07  7.44
Si -6.06  7.84 -5.67
Si 10.31 -3.19 -3.71
Si  8.44 -1.98 -7.43
Si  4.78  6.01  8.47
Si  6.82 -8.79  2.67
Si -1.39  7.56 -8.48
Si  5.56 -5.09  8.63
Si -7.60  8.53  0.90
Si  5.51  8.20  5.82
Si -10.89  0.23 -3.71
Si  9.04  7.09 -1.06
Si -8.46  7.58 -2.10
Si 11.27  1.46  2.10
Si -4.33 -10.51 -2.10
Si  3.89  2.55 -10.59
Si -1.52  9.89 -5.83
Si 10.90  1.33 -3.71
Si -4.82  1.59 -10.43
Si  6.74  3.96  8.63
Si  6.83  4.13 -8.48
Si  0.52  0.38 11.63
Si -6.22  6.50  7.44
Si  4.23 -2.55 10.59
Si  1.10 -0.39 -11.63
Si -8.60  5.37 -5.83
Si -3.97 -10.38  3.71
Si  3.01 -7.56  8.47
Si -1.52 -11.61  1.06
Si -11.47  0.26  2.67
Si -10.90  2.24  3.87
Si -8.10  7.71  3.71
Si  4.82  1.98 10.59
Si -11.62 -1.96 -1.06
Si  9.60 -5.85  3.71
Si 10.78  3.19  3.71
Si 10.28  0.84 -5.83
Si -1.93 -10.25 -5.67
Si  5.47 -8.79  5.82
Si -3.48 -7.56  8.47
Si  9.68 -3.68 -5.83
Si  6.92  7.84 -5.67
Si  3.14 -9.89  5.82
Si  8.36  0.39  8.48
Si -10.30  4.76 -3.71
Si -3.35 -9.89  5.82
Si  9.03  2.54 -7.43
Si -9.79 -3.68 -5.83
Si  7.20  8.81  3.71
Si  6.76  6.50  7.44
Si  0.30 -11.33  3.87
Si -1.47 -5.40 -10.59
Si -5.67 10.52 -1.06
Si -5.68 -10.51  1.05
Si 11.28  4.01  0.90
Si  5.62 -0.88 -10.59
Si  9.16  6.76  3.87
Si -1.64 -11.28 -3.87
Si -10.23 -5.99 -2.10
Si  7.79  8.79 -2.67
Si  1.32 11.33 -3.87
Si -9.87 -5.85  3.71
Si  3.14 11.61 -1.06
Si -2.94 10.26  5.67
Si  7.39 -8.81 -3.71
Si -10.61  1.21  5.67
Si  9.43  3.19  6.87
Si  8.46  0.57 -8.63
Si -4.59 -3.65 10.59
Si -0.64 -6.11 10.43
Si -5.41 -2.93 -10.43
Si -5.15  9.30  5.82
Si 10.99  5.04 -0.90
Si  0.78 -8.48 -8.63
Si  0.84  8.48  8.63
Si -3.35 11.61 -1.06
Si  0.69 -8.65  8.48
Si -5.05 11.00  1.06
Si  0.94  8.65 -8.48
Si -9.25 -5.37  5.82
Si -10.88  4.78  2.67
Si  7.77 -4.13  8.48
Si  8.25 -5.86  6.87
Si -7.33 -4.91 -8.48
Si  3.55 10.26  5.67
Si -9.39 -7.58  2.10
Si  5.96 10.51  2.10
Si -7.56 -9.30 -2.67
Si  3.08  5.40 10.59
Si -8.79  1.49  8.47
Si  2.27  6.12 -10.43
Si 10.81 -0.84  5.82
Si  9.66  7.58  1.05
Si  7.86 -3.96 -8.63
Si -2.14 -12.10 -1.06
Si -11.49 -2.29  3.87
Si  7.68 -7.84  5.67
Si -0.07 -4.14 11.63
Si -3.23 11.28  3.87
Si  5.59 10.38 -3.71
Si -1.37 12.10 -2.10
Si -8.47  3.03 -8.48
Si  6.44 -1.59 10.43
Si  3.26 11.28  3.87
Si -5.95  2.93 10.43
Si -3.41  5.40 10.59
Si -2.12  0.82 -12.20
Si -6.54 -1.59 10.43
Si  9.45  5.73  5.67
Si -7.89  9.56 -0.90
Si -9.81  7.58  1.05
Si -2.73 12.10  1.05
Si 12.02 -3.05 -1.06
Si  5.10  7.56 -8.48
Si  0.46 10.38 -6.86
Si  1.70  4.14 -11.63
Si -1.08  6.50 10.59
Si -7.42 -5.09  8.63
Si -9.06 -1.49 -8.48
Si  1.17 -10.38  6.87
Si  4.97  9.89 -5.83
Si -7.47  8.20  5.82
Si -2.74 -0.82 12.20
Si  4.56 -10.25 -5.67
Si -10.04  3.19  6.87
Si  9.22 -8.53 -0.90
Si -6.21 -9.30 -5.82
Si  7.85 -6.50 -7.43
Si  0.51 -4.91 -11.63
Si  3.00 -12.11  2.10
Si -10.44  7.09 -1.06
Si  1.11  4.91 11.63
Si  4.97 -11.61  1.06
Si  3.76 12.10  1.05
Si  2.71 -6.50 -10.59
Si -10.63 -1.34  6.87
Si -6.31 -11.00 -1.06
Si 12.61  1.47 -1.06
Si -1.43 -9.44 -8.48
Si -3.49 -12.11  2.10
Si 10.08 -7.58  2.10
Si  3.75 -0.82 12.20
Si  6.21  3.65 -10.59
Si -11.48 -4.29 -3.71
