500
set: 305.00  0.00  0.00
Si -0.03 -0.02  0.02
Si  1.86  1.12  0.75
Si  0.02 -0.06 -2.31
Si  0.00 -2.21  0.77
Si -1.91  1.17  0.75
Si -3.78  0.03 -0.04
Si  1.98 -3.24 -0.02
Si  1.92  1.05  3.10
Si -1.92  1.07  3.11
Si -1.94 -3.28  0.05
Si  0.07 -2.24  3.09
Si  0.07  2.18 -3.15
Si  1.88  3.34  0.05
Si  1.90 -1.13 -3.14
Si -1.90 -1.15 -3.15
Si -1.85  3.38 -0.02
Si  3.86  0.03 -0.04
Si -3.77 -2.13  0.85
Si  1.85  3.29 -2.30
Si -0.01  2.15  3.86
Si -1.93 -1.11  3.89
Si  1.89 -3.32 -2.35
Si -1.93  3.30 -2.35
Si  3.81 -0.05 -2.38
Si  1.85 -1.12  3.94
Si -1.98 -3.33 -2.30
Si  3.88 -2.13  0.85
Si -3.83 -0.05 -2.38
Si  0.06  4.49  0.85
Si  3.77  2.20 -3.08
Si -0.05 -4.42 -3.08
Si  3.77 -2.22  3.16
Si -3.87  2.20 -3.08
Si -0.05  4.41  3.16
Si -3.87 -2.22  3.16
Si  1.92 -5.45  0.75
Si -3.81  2.15  3.94
Si -3.82  4.41  0.77
Si  3.83  4.41  0.77
Si -1.96 -5.51  0.75
Si  0.00  2.20 -5.48
Si  5.74  1.17  0.75
Si  3.84  2.15  3.94
Si  1.92 -1.04 -5.50
Si -1.96 -1.09 -5.49
Si -5.78  1.12  0.75
Si  0.02 -4.47  3.94
Si -5.67 -3.24 -0.02
Si -3.76  4.38  3.09
Si -1.85 -1.03  6.23
Si  5.71 -3.28  0.05
Si -1.94  1.14 -6.20
Si -5.72  1.05  3.10
Si  1.92  5.47 -3.15
Si  0.04 -6.59 -0.04
Si  0.04  2.23  6.21
Si  5.72  1.07  3.11
Si -1.92  5.49 -3.14
Si -3.76 -4.45 -3.15
Si  3.89  4.38  3.09
Si  1.90 -5.55  3.11
Si -5.75 -1.13 -3.14
Si  0.04 -2.18 -6.28
Si  0.04  6.65 -0.04
Si -1.90 -5.57  3.10
Si  5.75 -1.15 -3.15
Si  1.88 -1.07  6.29
Si -5.76  3.34  0.05
Si  1.98  1.18 -6.26
Si  3.89 -4.45 -3.15
Si  5.80  3.38 -0.02
Si  0.06 -4.34 -5.40
Si -3.77  2.28 -5.40
Si  5.67 -3.33 -2.30
Si -0.01  6.57 -2.38
Si  5.72 -1.11  3.89
Si  1.89  5.51  3.89
Si  5.72  3.30 -2.35
Si  3.81 -4.47  3.86
Si  3.88  2.28 -5.40
Si -3.83 -4.47  3.86
Si -5.75 -3.32 -2.35
Si -1.98  5.50  3.94
Si -5.80  3.29 -2.30
Si -0.01 -6.67 -2.38
Si  0.06  0.08  7.09
Si -5.80 -1.12  3.94
Si  7.61 -0.02  0.02
Si  3.79  6.61  0.02
Si  3.79 -2.23 -6.22
Si -0.03  4.40 -6.22
Si  3.79  2.19  6.27
Si  3.79 -6.64  0.02
Si -3.86  6.61  0.02
Si -3.86 -2.23 -6.22
Si -0.03 -4.43  6.27
Si -3.86  2.19  6.27
Si -3.86 -6.64  0.02
Si -7.68 -0.02  0.02
Si -3.81  6.56 -2.31
Si -1.91 -3.25  6.99
Si -5.73 -5.45  0.75
Si  3.84  6.56 -2.31
Si  5.69 -5.51  0.75
Si  1.86 -3.30  7.00
Si -7.63 -0.06 -2.31
Si  5.69 -1.09 -5.49
Si -3.82 -0.01  7.01
Si  3.83 -0.01  7.01
Si -1.96  3.32  7.00
Si -7.64 -2.21  0.77
Si  1.92  3.38  6.99
Si  7.65 -2.21  0.77
Si  7.67 -0.06 -2.31
Si -5.73 -1.04 -5.50
Si -3.82 -4.42 -5.48
Si  3.83 -4.42 -5.48
Si  1.86  5.53 -5.49
Si -1.96  7.74  0.75
Si -3.81 -6.68 -2.31
Si  3.84 -6.68 -2.31
Si  1.92  7.79  0.75
Si -1.91  5.58 -5.50
Si -7.58 -2.24  3.09
Si  1.89 -5.49 -6.20
Si -1.90  7.67  3.10
Si -3.78 -4.39  6.21
Si -7.58  2.18 -3.15
Si -1.84 -5.45 -6.26
Si  5.71  1.14 -6.20
Si  1.90  7.70  3.11
Si -5.72  5.47 -3.15
Si  5.72  5.49 -3.14
Si  3.86 -4.39  6.21
Si -5.67  1.18 -6.26
Si -5.75 -5.55  3.11
Si  5.80 -1.03  6.23
Si -3.78  4.44 -6.28
Si  5.75 -5.57  3.10
Si -1.92 -7.75 -3.14
Si  1.98  5.59  6.23
Si -5.76 -1.07  6.29
Si  7.71 -2.24  3.09
Si  3.86  4.44 -6.28
Si  1.93 -7.78 -3.15
Si -1.94  5.55  6.29
Si  7.71  2.18 -3.15
Si  0.06 -8.75  0.85
Si  7.63  2.15  3.86
Si  5.67  5.50  3.94
Si -1.98  1.08 -8.54
Si -7.66  2.15  3.86
Si -7.59  4.49  0.85
Si  1.89 -7.74  3.89
Si  1.89  1.09 -8.59
Si -5.75  5.51  3.89
Si -1.98 -7.75  3.94
Si -0.01 -2.26 -8.63
Si  7.70  4.49  0.85
Si  7.60 -4.42 -3.08
Si -0.05 -0.01 -9.33
Si  7.60  4.41  3.16
Si -0.05  8.82 -3.08
Si -0.05 -8.84  3.16
Si -7.70 -4.42 -3.08
Si -0.05 -0.01  9.40
Si -7.70  4.41  3.16
Si  0.02  4.36 -8.55
Si  9.51  1.12  0.75
Si  5.69  3.32  7.00
Si  5.74 -3.25  6.99
Si  0.02  8.77  3.94
Si -1.91 -7.66 -5.50
Si -3.81 -2.27 -8.55
Si  5.69  7.74  0.75
Si  0.00  6.62  7.01
Si  3.84 -2.27 -8.55
Si  0.00 -6.63  7.01
Si -5.73  3.38  6.99
Si  1.87 -7.71 -5.49
Si -9.55  1.17  0.75
Si -5.78 -3.30  7.00
Si -3.82 -8.84  0.77
Si -7.64  2.20 -5.48
Si  3.83 -8.84  0.77
Si  7.65  2.20 -5.48
Si -7.63 -4.47  3.94
Si -5.73  7.79  0.75
Si -5.78  5.53 -5.49
Si  7.67 -4.47  3.94
Si  5.74  5.58 -5.50
Si -1.84 -9.86 -0.02
Si -3.76 -0.03  9.33
Si  1.98 -7.65  6.23
Si -7.61 -6.59 -0.04
Si -7.61  2.23  6.21
Si -1.90  3.26  9.34
Si -3.76  8.80 -3.15
Si  5.75  7.67  3.10
Si -9.49  3.38 -0.02
Si  1.89 -9.90  0.05
Si -5.76 -5.49 -6.20
Si  1.90  3.28  9.35
Si -5.75  7.70  3.11
Si  9.53  3.34  0.05
Si -7.61 -2.18 -6.28
Si -7.61  6.65 -0.04
Si  1.88  7.76 -6.20
Si -3.76 -8.86  3.09
Si -5.67  5.59  6.23
Si  3.89 -0.03  9.33
Si  1.92 -3.36  9.34
Si  9.55 -1.13 -3.14
Si  9.57  1.05  3.10
Si -1.92 -3.34  9.35
Si -9.55 -1.15 -3.15
Si  1.90  3.28 -9.38
Si -9.57  1.07  3.11
Si -1.90  3.26 -9.39
Si -3.76 -0.03 -9.40
Si  3.89  8.80 -3.15
Si  5.80 -5.45 -6.26
Si -1.94 -7.70  6.29
Si  7.69 -6.59 -0.04
Si  7.68  2.23  6.21
Si -9.59 -3.28  0.05
Si  5.72 -7.75 -3.14
Si -1.92 -3.34 -9.38
Si  5.71  5.55  6.29
Si -1.94  9.96  0.05
Si  9.62 -3.24 -0.02
Si -5.72 -7.78 -3.15
Si  3.89 -8.86  3.09
Si  1.93 -3.36 -9.39
Si  7.69 -2.18 -6.28
Si  7.68  6.65 -0.04
Si -1.85  7.80 -6.26
Si  3.89 -0.03 -9.40
Si  1.98 10.01 -0.02
Si -7.59 -4.34 -5.40
Si  9.49  3.29 -2.30
Si  5.67  1.08 -8.54
Si  3.81  8.78  3.86
Si -3.84  8.78  3.86
Si  9.49 -1.12  3.94
Si  1.85 -5.54 -8.54
Si  7.63  6.57 -2.38
Si -0.01 -2.26 10.11
Si -3.77 -6.54  7.09
Si  7.71 -4.34 -5.40
Si -1.98  9.91 -2.30
Si -7.66  6.57 -2.38
Si  1.89  1.09 10.14
Si  9.54 -3.32 -2.35
Si  1.89  9.92 -2.35
Si  5.67 -7.75  3.94
Si  1.85 -9.96 -2.30
Si -7.59  0.08  7.09
Si  3.81  4.36 -8.63
Si -5.75 -7.74  3.89
Si -1.93 -9.94 -2.35
Si -1.93 -5.53 -8.59
Si -9.58 -1.11  3.89
Si -3.83  4.36 -8.63
Si -5.75  1.09 -8.59
Si -9.58  3.30 -2.35
Si  3.88 -6.54  7.09
Si  0.06  8.91 -5.40
Si  7.64 -6.67 -2.38
Si -7.66 -6.67 -2.38
Si -1.98  1.08 10.19
Si -9.62 -3.33 -2.30
Si -3.77  6.70  7.09
Si  7.70  0.08  7.09
Si  3.88  6.70  7.09
Si  7.61  4.40 -6.22
Si  7.61 -4.43  6.27
Si -0.04  8.81  6.27
Si -0.03 -8.85 -6.22
Si -7.68  4.40 -6.22
Si -7.68 -4.43  6.27
Si  9.56 -5.45  0.75
Si  5.74 -7.66 -5.50
Si  0.00 11.03  0.77
Si -3.82  8.82 -5.48
Si  3.83  8.82 -5.48
Si  0.02  4.36 10.18
Si  9.56 -1.04 -5.50
Si -5.78 -7.71 -5.49
Si -9.61 -5.51  0.75
Si -3.81 -2.27 10.18
Si  3.84 -2.27 10.18
Si -9.61 -1.09 -5.49
Si -5.67 -7.65  6.23
Si -9.49 -1.03  6.23
Si  0.06  6.59  9.33
Si -11.43  0.03 -0.04
Si  0.06 11.01  3.09
Si  5.80 -9.86 -0.02
Si  5.75  3.26  9.34
Si -3.78 -8.80 -6.28
Si -5.76 -9.90  0.05
Si -5.75  3.28  9.35
Si -5.72 -3.36  9.34
Si -3.79  8.86  6.21
Si  5.72 -3.34  9.35
Si  0.07 -6.65  9.33
Si  5.71 -7.70  6.29
Si  9.57  5.47 -3.15
Si -9.59  1.14 -6.20
Si  9.53 -1.07  6.29
Si  9.55 -5.55  3.11
Si -9.57  5.49 -3.14
Si -9.55 -5.57  3.10
Si -5.76  7.76 -6.20
Si  0.07  6.59 -9.40
Si -5.75  3.28 -9.38
Si  3.86 -8.80 -6.28
Si  5.75  3.26 -9.39
Si  5.71  9.96  0.05
Si  3.86  8.86  6.21
Si  5.72 -3.34 -9.38
Si -5.72 -3.36 -9.39
Si -5.67 10.01 -0.02
Si  0.07 -11.07 -3.15
Si 11.51  0.03 -0.04
Si  0.07 -6.65 -9.40
Si  9.62  1.18 -6.26
Si  5.80  7.80 -6.26
Si -7.59 -8.75  0.85
Si -11.41 -2.13  0.85
Si  0.06  0.08 -11.64
Si  5.67  9.91 -2.30
Si  3.81  4.36 10.11
Si  1.85  7.70 -8.54
Si -3.84  4.36 10.11
Si  9.54  5.51  3.89
Si  7.71 -8.75  0.85
Si 11.46 -0.05 -2.38
Si -1.93 -5.53 10.14
Si  5.72 -9.94 -2.35
Si -5.75  1.09 10.14
Si  5.72 -5.53 -8.59
Si  5.67  1.08 10.19
Si -1.93  7.72 -8.59
Si -5.75  9.92 -2.35
Si -5.80 -5.54 -8.54
Si -11.48 -0.05 -2.38
Si  7.64 -2.26 -8.63
Si -0.01 -11.09  3.86
Si  1.85 -5.54 10.19
Si -5.80 -9.96 -2.30
Si -7.66 -2.26 -8.63
Si 11.53 -2.13  0.85
Si -9.62  5.50  3.94
Si -3.77 11.11  0.85
Si  3.88 11.11  0.85
Si  7.60 -0.01 -9.33
Si 11.42  2.20 -3.08
Si  3.77  6.61 -9.33
Si  7.60  8.82 -3.08
Si  3.78 -6.63 -9.33
Si 11.42 -2.22  3.16
Si -3.87  6.61 -9.33
Si  3.78 -11.05 -3.08
Si  3.77 11.03  3.16
Si  7.60 -8.84  3.16
Si -3.87 -6.63 -9.33
Si  7.60 -0.01  9.40
Si -7.70 -0.01 -9.33
Si  3.77  6.61  9.40
Si -3.87 -11.05 -3.08
Si -7.70  8.82 -3.08
Si -3.87 11.03  3.16
Si  3.77 -6.63  9.40
Si -11.52  2.20 -3.08
Si -3.87  6.61  9.40
Si -7.70 -8.84  3.16
Si -3.87 -6.63  9.40
Si -11.52 -2.22  3.16
Si -7.70 -0.01  9.40
Si  1.92 -9.87  6.99
Si -1.91 -12.07  0.75
Si -7.63  4.36 -8.55
Si  9.51 -3.30  7.00
Si -7.63  8.77  3.94
Si -9.55 -3.25  6.99
Si  7.67  4.36 -8.55
Si  1.87 -12.13  0.75
Si  7.66  8.77  3.94
Si -1.96 -9.92  7.00
Si  9.51  5.53 -5.49
Si -11.45  2.15  3.94
Si  1.86  9.95  7.00
Si -7.64  6.62  7.01
Si  7.65  6.62  7.01
Si -7.64 -6.63  7.01
Si -11.47  4.41  0.77
Si  7.65 -6.63  7.01
Si 11.47  4.41  0.77
Si  9.56  3.38  6.99
Si  0.00 -11.04 -5.48
Si -3.82 -0.01 -11.72
Si -1.91 -3.25 -11.74
Si  3.83 -0.01 -11.72
Si 11.49  2.15  3.94
Si  1.87 -3.30 -11.74
Si  0.02 -8.89 -8.55
Si -9.61  3.32  7.00
Si -1.91 10.00  6.99
Si -1.96  3.32 -11.74
Si -9.55  5.58 -5.50
Si  9.56  7.79  0.75
Si -9.61  7.74  0.75
Si  1.92  3.38 -11.74
Si -3.81 -11.10  3.94
Si  3.84 -11.10  3.94
Si -11.40  4.38  3.09
Si -9.49 -5.45 -6.26
Si  9.53 -5.49 -6.20
Si  1.89 -1.07 -12.44
Si -9.55  7.67  3.10
Si -1.90 12.09 -3.15
Si -11.40 -4.45 -3.15
Si  0.04 -11.01  6.21
Si  0.04 -2.18 12.45
Si  9.54  7.70  3.11
Si  1.90 12.11 -3.14
Si  1.98  1.18 12.47
Si -1.84 -1.03 -12.51
Si -1.92 -12.17  3.11
Si -9.57 -7.75 -3.14
Si  0.04  2.23 -12.52
Si 11.54  4.38  3.09
Si  0.04 11.06 -6.28
Si  1.93 -12.19  3.10
Si  9.57 -7.78 -3.15
Si -1.94  1.14 12.54
Si -9.59  5.55  6.29
Si  9.62  5.59  6.23
Si 11.54 -4.45 -3.15
Si -3.76 -10.96 -5.40
Si  3.88 -10.96 -5.40
Si -11.41  2.28 -5.40
Si  7.63 -2.26 10.11
Si  1.84 12.12  3.94
Si -7.66 -2.26 10.11
Si  5.72 -5.53 10.14
Si -5.80  7.70 -8.54
Si  9.54 -7.74  3.89
Si -7.59  8.91 -5.40
Si -1.93  7.72 10.14
Si  9.54  1.09 -8.59
Si  5.72  7.72 -8.59
Si -1.93 12.13  3.89
Si 11.46 -4.47  3.86
Si  1.84  7.71 10.19
Si -11.48 -4.47  3.86
Si -9.62  1.08 -8.54
Si 11.53  2.28 -5.40
Si  7.70  8.91 -5.40
Si  3.81 -8.88 -8.63
Si -3.83 -8.88 -8.63
Si -5.80 -5.54 10.19
Si -9.62 -7.75  3.94
Si 11.44  6.61  0.02
Si 11.44 -2.23 -6.22
Si  3.79 11.02 -6.22
Si  3.79  2.19 -12.47
Si 11.44  2.19  6.27
Si  7.61  8.81  6.27
Si 11.44 -6.64  0.02
Si -0.04 13.23  0.02
Si  7.61 -8.85 -6.22
Si -3.86 11.02 -6.22
Si -0.03 -4.43 -12.47
Si -3.86  2.19 -12.47
Si  3.79 -2.23 12.51
Si  3.79 -11.05  6.27
Si -0.04  4.40 12.51
Si -0.03 -13.26  0.02
Si -7.68  8.81  6.27
Si -7.68 -8.85 -6.22
Si -11.51  6.61  0.02
Si -11.50 -2.23 -6.22
Si -3.86 -2.23 12.51
Si -3.86 -11.05  6.27
Si -11.50 -6.64  0.02
Si -11.51  2.19  6.27
Si -5.73 -9.87  6.99
Si  0.02 13.19 -2.31
Si  5.74 -12.07  0.75
Si -11.45  6.56 -2.31
Si  5.69 -9.92  7.00
Si  1.92 -1.04 13.23
Si -9.55 -7.66 -5.50
Si  9.51 -7.71 -5.49
Si -1.96 -1.09 13.24
Si 11.49  6.56 -2.31
Si  0.00  2.20 13.25
