500
set: 1063.00  0.00  0.00
Si  0.34 -1.20  0.82
Si -0.40  1.18 -0.89
Si  1.28  1.17  0.81
Si -1.31 -1.21 -0.86
Si  2.09 -1.26 -0.74
Si -0.78  0.08  2.43
Si -2.14  1.19  0.88
Si  0.90 -0.05 -2.46
Si -3.03 -1.11  0.80
Si  3.06  1.13 -0.82
Si  0.02 -2.37 -2.39
Si -0.01  2.41  2.46
Si  2.55  0.04  2.42
Si -2.59 -0.03 -2.43
Si  0.47  3.44 -0.86
Si -0.51 -3.48  0.81
Si  1.81  2.28 -2.39
Si  1.73 -2.33  2.41
Si -1.80 -2.24  2.46
Si -1.70  2.36 -2.44
Si  1.27 -3.52 -0.82
Si -1.25  3.54  0.80
Si -0.91  0.08 -4.03
Si -3.89  1.13 -0.82
Si  2.13  3.45  0.82
Si  3.92 -1.11  0.80
Si -2.18 -3.47 -0.89
Si  0.91 -0.04  4.10
Si -3.08  3.39 -0.74
Si  0.01 -2.37  4.03
Si  3.02 -3.46  0.88
Si  0.12  2.40 -4.06
Si -3.44  2.32  2.41
Si -2.60  0.03  4.04
Si  3.46 -2.29 -2.44
Si -3.49 -2.29 -2.44
Si  2.62 -0.01 -4.08
Si  3.51  2.32  2.41
Si -1.67 -2.25 -4.06
Si  1.66 -2.29 -4.06
Si  1.80  2.28  4.03
Si -1.70  2.30  4.06
Si  4.36 -0.03 -2.43
Si -4.40  0.04  2.42
Si  4.81  1.19  0.88
Si -4.86 -1.26 -0.74
Si  3.87  3.39 -0.74
Si  0.77 -4.61  2.42
Si -0.81  4.62 -2.43
Si -3.92 -3.46  0.88
Si -0.88 -4.70 -2.46
Si  1.01  4.73  2.43
Si -0.42  1.11  5.62
Si -2.56 -4.58  2.43
Si  0.39 -1.15 -5.67
Si  5.63 -1.21 -0.86
Si  3.45  2.36 -4.06
Si  3.46 -2.35  4.06
Si -3.49 -2.35  4.06
Si -5.67  1.17  0.81
Si -1.29 -1.15  5.60
Si -3.50  2.36 -4.06
Si  2.57 -4.68 -2.43
Si  2.69  4.60 -2.46
Si -2.61  4.69  2.42
Si  1.24  1.13 -5.66
Si -0.35  5.84  0.88
Si  4.35  0.03  4.04
Si -4.33 -0.01 -4.08
Si  0.30 -5.91 -0.74
Si  4.77 -3.47 -0.89
Si -4.82  3.45  0.82
Si  1.39  5.83 -0.89
Si -1.44 -5.85  0.82
Si -5.14  2.28 -2.39
Si  5.15 -2.24  2.46
Si  2.17 -1.20  5.67
Si  2.13 -5.76  0.80
Si -2.14  1.21 -5.69
Si -2.11  5.78 -0.82
Si -5.22 -2.33  2.41
Si -0.81  4.68  4.04
Si  0.83 -4.66 -4.08
Si  5.25  2.36 -2.44
Si  0.88  4.73 -4.03
Si -0.87 -4.69  4.10
Si -3.03 -1.13 -5.61
Si -6.05 -0.05 -2.46
Si  2.98  1.06  5.75
Si  0.50  3.51  5.60
Si  3.06  5.82  0.81
Si  6.17  0.08  2.43
Si  2.57 -4.62  4.04
Si -2.69 -4.57 -4.03
Si -2.54  4.64 -4.08
Si -3.10 -5.86 -0.86
Si -0.55 -3.52 -5.66
Si  6.55  1.18 -0.89
Si -5.68 -3.52 -0.82
Si  2.70  4.61  4.10
Si -4.26  4.60 -2.46
Si -1.25  3.52 -5.61
Si  5.70  3.54  0.80
Si -6.61 -1.20  0.82
Si  4.39 -4.58  2.43
Si  4.34  4.69  2.42
Si -4.38 -4.68 -2.43
Si  1.20 -3.58  5.75
Si -5.15  2.28  4.03
Si  3.92 -1.13 -5.61
Si -2.21 -3.54  5.62
Si  2.17  3.50 -5.67
Si  5.25  2.30  4.06
Si  5.28 -2.25 -4.06
Si -3.88  5.82  0.81
Si -5.29 -2.29 -4.06
Si -3.97  1.06  5.75
Si  3.85 -5.86 -0.86
Si  6.04  0.08 -4.03
Si -3.00  3.45  5.67
Si -6.04 -0.04  4.10
Si  3.02 -3.44 -5.69
Si  6.45 -3.48  0.81
Si -6.48  3.44 -0.86
Si -0.06 -6.98  2.41
Si  0.39 -1.15  7.30
Si  0.08  7.01 -2.44
Si  4.26 -4.57 -4.03
Si  7.29 -1.20  0.82
Si -0.42  1.11 -7.35
Si -4.25  4.61  4.10
Si -7.34  1.18 -0.89
Si  1.24  1.13  7.31
Si -4.79 -1.20  5.67
Si -4.38 -4.62  4.04
Si  1.68 -6.94 -2.44
Si  4.81  1.21 -5.69
Si -4.82 -5.76  0.80
Si -1.65  6.97  2.41
Si -1.29 -1.14 -7.38
Si  4.84  5.78 -0.82
Si  4.41  4.64 -4.08
Si -1.76 -7.02 -2.39
Si  1.77  7.06  2.46
Si -2.14  1.21  7.28
Si -6.93 -2.37 -2.39
Si  2.16 -1.20 -7.31
Si -3.93 -3.44 -5.69
Si  3.95  3.45  5.67
Si  6.97 -2.37 -2.39
Si  6.94  2.41  2.46
Si -6.96  2.41  2.46
Si  2.98  1.06 -7.23
Si -5.94  4.73  2.43
Si -0.12 -6.94 -4.06
Si -3.03 -1.13  7.36
Si  5.66 -1.15  5.60
Si  0.08  6.95  4.06
Si  3.37 -6.89  2.46
Si  6.07 -4.70 -2.46
Si  6.14  4.62 -2.43
Si -3.36  6.93 -2.39
Si  5.51 -5.85  0.82
Si -6.18 -4.61  2.42
Si -7.73  0.08  2.43
Si -5.56  5.83 -0.89
Si -5.71  1.13 -5.66
Si -0.55 -3.52  7.31
Si -3.58 -6.89  2.46
Si  0.38 -5.85  5.67
Si  1.20 -3.58 -7.23
Si  4.74 -3.54  5.62
Si  3.59  6.93 -2.39
Si  1.36  5.76  5.62
Si -1.29  8.04 -0.74
Si -0.36  5.86 -5.69
Si  0.50  3.51 -7.38
Si -4.78  3.50 -5.67
Si  7.42  3.44 -0.86
Si  7.85 -0.05 -2.46
Si -0.51 -8.17 -0.82
Si -1.40 -5.80 -5.67
Si  0.54  8.19  0.80
Si  1.24 -8.11  0.88
Si -1.25  3.52  7.36
Si  1.68 -7.00  4.06
Si -7.46 -3.48  0.81
Si -1.72  7.01 -4.06
Si -1.77 -7.02  4.03
Si -6.83  2.40 -4.06
Si -3.97  1.06 -7.23
Si  2.13 -5.78 -5.61
Si  8.23  1.17  0.81
Si  1.90  7.05 -4.06
Si -6.94 -2.37  4.03
Si  2.17  3.50  7.30
Si  6.96 -2.37  4.03
Si -2.18  5.72  5.75
Si -8.27 -1.21 -0.86
Si  3.92 -1.13  7.36
Si  2.25  8.09 -0.86
Si -2.21 -3.54 -7.35
Si -2.29 -8.13  0.81
Si  7.06  2.40 -4.06
Si  3.02 -3.44  7.28
Si -3.00  3.45 -7.31
Si -3.07 -5.79  5.60
Si  3.02  5.78 -5.66
Si -6.07  4.73 -4.03
Si  6.53  1.11  5.62
Si -3.04  8.10  0.82
Si -3.37  6.93  4.03
Si  2.98 -8.12 -0.89
Si -6.11 -4.66 -4.08
Si  6.08 -4.69  4.10
Si  6.14  4.68  4.04
Si -3.46 -6.90 -4.06
Si  3.49 -6.90 -4.06
Si  5.70  3.52 -5.61
Si -6.56 -1.15 -5.67
Si  3.58  6.93  4.03
Si  4.81  1.21  7.28
Si -4.79 -1.20 -7.31
Si -7.86  0.08 -4.03
Si  6.59  5.84  0.88
Si  7.86 -0.04  4.10
Si -5.75 -3.58  5.75
Si  0.91 -0.04 -8.88
Si -6.65 -5.91 -0.74
Si  3.88 -5.79  5.60
Si -3.93 -3.44  7.28
Si -8.20  3.54  0.80
Si  8.22 -3.52 -0.82
Si -3.93  5.78 -5.66
Si  3.95  3.45 -7.31
Si -0.91  0.08  8.95
Si  3.91  8.10  0.82
Si  5.18 -7.02 -2.39
Si -5.27 -6.94 -2.44
Si  5.30  6.97  2.41
Si -3.97 -8.12 -0.89
Si -5.18  7.06  2.46
Si  9.04 -1.26 -0.74
Si -9.09  1.19  0.88
Si  0.12  2.40  8.91
Si -6.45  3.51  5.60
Si  6.40 -3.52 -5.66
Si  0.01 -2.37 -8.95
Si  2.62 -0.01  8.90
Si -8.65  2.36 -2.44
Si -2.60  0.03 -8.93
Si  8.68 -2.33  2.41
Si  7.72 -4.61  2.42
Si -7.37  1.11  5.62
Si -1.67 -2.25  8.91
Si  7.34 -1.15 -5.67
Si -5.71  1.13  7.31
Si  1.66 -2.29  8.91
Si -7.76  4.62 -2.43
Si -0.36  5.86  7.28
Si  8.76  2.28 -2.39
Si -8.75 -2.24  2.46
Si -1.70  2.30 -8.92
Si  0.38 -5.85 -7.31
Si  5.66 -1.14 -7.38
Si  7.25 -5.91 -0.74
Si -4.82 -5.78 -5.61
Si -4.69  8.09 -0.86
Si -7.30  5.84  0.88
Si -4.78  3.50  7.30
Si  4.66 -8.13  0.81
Si  4.77  5.72  5.75
Si  1.80  2.28 -8.95
Si -1.40 -5.80  7.30
Si  4.74 -3.54 -7.35
Si  1.36  5.76 -7.35
Si -7.83 -4.70 -2.46
Si -2.18  5.72 -7.23
Si  7.96  4.73  2.43
Si -5.05  7.05 -4.06
Si  2.13 -5.78  7.36
Si  5.17 -7.02  4.03
Si -1.02 -9.26  2.42
Si  0.98  9.27 -2.43
Si  5.23  7.01 -4.06
Si -5.27 -7.00  4.06
Si  0.79 -9.33 -2.43
Si -0.83  9.34  2.42
Si  9.08  3.45  0.82
Si -8.62 -2.25 -4.06
Si  8.61 -2.29 -4.06
Si  3.02  5.78  7.31
Si -5.59  5.76  5.62
Si  9.50  0.04  2.42
Si -9.13 -3.47 -0.89
Si -8.65  2.30  4.06
Si  5.55 -5.80 -5.67
Si  3.45  2.36  8.91
Si -9.54 -0.03 -2.43
Si  3.46 -2.35 -8.92
Si -3.49 -2.35 -8.92
Si  5.66  8.04 -0.74
Si -3.50  2.36  8.91
Si -3.07 -5.79 -7.38
Si -6.56 -1.15  7.30
Si  2.60 -9.22  2.43
Si -2.48  9.25 -2.46
Si  8.74  2.28  4.03
Si  6.53  1.11 -7.35
Si -4.33 -0.01  8.90
Si -5.75 -3.58 -7.23
Si -7.76  4.68  4.04
Si  0.54  8.17 -5.61
Si  4.35  0.03 -8.93
Si  7.79 -4.66 -4.08
Si  7.45  3.51  5.60
Si -5.71 -8.11  0.88
Si  5.70  3.52  7.36
Si -1.22  8.10  5.67
Si  1.24 -8.09 -5.69
Si  7.83  4.73 -4.03
Si -7.82 -4.69  4.10
Si  8.18  1.13 -5.66
Si -8.24 -1.15  5.60
Si -2.67 -9.35 -2.46
Si -7.50 -3.52 -5.66
Si -0.59 -8.23  5.75
Si -9.98 -1.11  0.80
Si -0.87 -4.69 -8.88
Si  0.83 -4.66  8.90
Si  2.79  9.38  2.43
Si 10.01  1.13 -0.82
Si  6.89 -6.98  2.41
Si -6.87  7.01 -2.44
Si -3.93  5.78  7.31
Si -0.81  4.68 -8.93
Si  0.78 -9.27  4.04
Si  3.88 -5.79 -7.38
Si  2.28  8.16  5.60
Si  0.88  4.73  8.95
Si -0.76  9.29 -4.08
Si -7.01 -6.98  2.41
Si -0.95 -9.31 -4.08
Si  8.34  5.83 -0.89
Si -2.34 -8.17 -5.66
Si  0.97  9.33  4.04
Si  7.03  7.01 -2.44
Si -8.39 -5.85  0.82
Si  6.40 -3.52  7.31
Si -2.54  4.64  8.90
Si  2.47 -9.22 -4.03
Si  2.70  4.61 -8.88
Si  2.96 -8.19  5.62
Si -9.55  0.03  4.04
Si -2.99  8.15 -5.67
Si  4.77  5.72 -7.23
Si  2.57 -4.62 -8.93
Si  9.57 -0.01 -4.08
Si -2.69 -4.57  8.95
Si -6.45  3.51 -7.38
Si  7.34 -1.15  7.30
Si -2.47  9.26  4.10
Si -6.41  8.19  0.80
Si  6.44 -8.17 -0.82
Si  0.35 -10.41  0.80
Si -6.57 -5.85  5.67
Si -0.32 10.43 -0.82
Si -7.37  1.11 -7.35
Si -4.35 -9.22  2.43
Si  6.59  5.86 -5.69
Si -4.82 -5.78  7.36
Si -8.20  3.52 -5.61
Si -4.16  9.38  2.43
Si -2.66 -9.34  4.10
Si  6.83 -6.94 -4.06
Si  2.67  9.38 -4.03
Si  0.90 -0.05 10.52
Si  4.47  9.25 -2.46
Si  4.28 -9.35 -2.46
Si -5.15  2.28 -8.95
Si -0.78  0.08 -10.55
Si -6.87  6.95  4.06
Si  9.97 -3.46  0.88
Si  8.14 -3.58  5.75
Si  5.25  2.30 -8.92
Si  5.28 -2.25  8.91
Si -10.03  3.39 -0.74
Si -5.29 -2.29  8.91
Si  1.43 10.49  0.88
Si  7.03  6.95  4.06
Si  3.96  8.15 -5.67
Si -1.48 -10.56 -0.74
Si -3.99 -8.19  5.62
Si -7.07 -6.94 -4.06
Si -2.10 10.47  0.81
Si -6.04 -0.04 -8.88
Si  2.06 -10.51 -0.86
Si -9.06  5.78 -0.82
Si  9.08 -5.76  0.80
Si -0.01  2.41 -10.51
Si -9.09  1.21 -5.69
Si  9.11 -1.20  5.67
Si  6.04  0.08  8.95
Si -9.51 -4.58  2.43
Si  0.02 -2.37 10.59
Si  5.55 -5.80  7.30
Si  2.55  0.04 -10.55
Si -2.59 -0.03 10.55
Si -4.25  4.61 -8.88
Si  9.52 -4.68 -2.43
Si -5.59  5.76 -7.35
Si -1.80 -2.24 -10.51
Si -10.39  2.32  2.41
Si  4.26 -4.57  8.95
Si -9.56  4.69  2.42
Si -1.70  2.36 10.53
Si -10.84  1.13 -0.82
Si 10.41 -2.29 -2.44
Si -4.67  8.16  5.60
Si 10.87 -1.11  0.80
Si  1.24 -8.09  7.28
Si  7.33 -5.85  5.67
Si  1.73 -2.33 -10.57
Si  9.64  4.60 -2.46
Si  4.41  4.64  8.90
Si -7.30  5.86 -5.69
Si  4.61 -8.17 -5.66
Si -10.44 -2.29 -2.44
Si -4.38 -4.62 -8.93
Si -0.59 -8.23 -7.23
Si -1.22  8.10 -7.31
Si  1.81  2.28 10.59
Si 10.46  2.32  2.41
Si  3.17 10.48 -0.89
Si -4.48 -9.22 -4.03
Si  0.54  8.17  7.36
Si -3.23 -10.50  0.82
Si  8.19  1.13  7.31
Si -7.50 -3.52  7.31
Si  7.45  3.51 -7.38
Si  4.29 -9.34  4.10
Si -4.29  9.38 -4.03
Si  4.48  9.26  4.10
Si -7.46 -8.17 -0.82
Si -8.24 -1.14 -7.38
Si  7.49  8.19  0.80
Si  3.72 -10.50  0.82
Si -3.77 10.48 -0.89
Si -2.33 -8.17  7.31
Si  2.28  8.16 -7.38
Si  5.93 -9.26  2.42
Si -0.12 -6.94  8.91
Si -5.97  9.27 -2.43
Si  9.12  3.50 -5.67
Si  0.08  6.95 -8.92
Si -9.16 -3.54  5.62
Si  3.46 -2.29 10.53
Si  9.52 -4.62  4.04
Si -9.49  4.64 -4.08
Si -3.49 -2.29 10.53
Si -8.60  6.97  2.41
Si  8.62 -6.94 -2.44
Si -2.99  8.15  7.30
Si -3.44  2.32 -10.57
Si 10.82  3.39 -0.74
Si  3.51  2.32 -10.57
Si  2.96 -8.19 -7.35
Si -9.64 -4.57 -4.03
Si 10.39  2.36 -4.06
Si  4.36 -0.03 10.55
Si 10.41 -2.35  4.06
Si -5.71 -8.09 -5.69
Si  6.12  9.34  2.42
Si -4.40  0.04 -10.55
Si  5.74  8.10  5.67
Si -6.57 -5.85 -7.31
Si -8.71 -7.02 -2.39
Si  6.59  5.86  7.28
Si -6.16 -9.33 -2.43
Si -10.44 -2.35  4.06
Si -10.88 -3.46  0.88
Si  9.65  4.61  4.10
Si  1.68 -7.00 -8.92
Si -10.45  2.36 -4.06
Si  8.14 -3.58 -7.23
Si -1.72  7.01  8.91
Si  8.72  7.06  2.46
Si -6.83  2.40  8.91
Si -9.98 -1.13 -5.61
Si -1.77 -7.02 -8.95
Si  9.93  1.06  5.75
Si  1.90  7.05  8.91
Si -8.24  8.04 -0.74
Si  0.77 -4.61 -10.55
Si -0.81  4.62 10.55
Si -0.88 -4.70 10.52
Si  8.19 -8.11  0.88
Si 11.31 -0.03 -2.43
Si -8.20  3.52  7.36
Si -6.94 -2.37 -8.95
