500
set: 1251.00  0.00  0.00
Si  0.84 -0.82 -0.10
Si  0.42  0.95  1.29
Si -1.42 -1.38 -1.04
Si  2.04  0.37 -1.73
Si -2.30  1.11  1.60
Si -3.05  0.51 -0.47
Si  1.26 -2.77  1.04
Si  1.23  3.10  0.25
Si  1.54  0.33  3.24
Si -1.84 -3.34 -0.06
Si  1.05 -1.98  3.25
Si -2.82  2.45 -1.48
Si  1.54  3.03 -2.31
Si -1.83 -1.35 -3.52
Si  3.54  2.33  0.80
Si  4.12  1.14 -1.06
Si -1.39  2.70 -3.27
Si  0.13 -4.58 -0.06
Si -2.41  3.36  2.01
Si  2.36 -0.26 -3.95
Si -1.09  0.60 -4.54
Si -3.33  0.01  3.34
Si  3.59 -3.23  0.64
Si -0.27  4.62  1.62
Si  3.75  1.39  2.84
Si -2.86 -2.52  3.38
Si  1.82 -2.47 -4.31
Si -0.69 -3.21  4.20
Si -5.30 -0.69 -0.74
Si -0.56 -3.14 -4.36
Si -3.84  3.97  0.10
Si -3.79 -3.77  1.40
Si  0.97  0.74 -5.46
Si  3.96  3.37 -2.10
Si  2.58 -4.08 -3.10
Si  0.97  0.74  5.64
Si  1.69  3.02 -4.73
Si  5.80 -0.69 -0.74
Si  1.00  5.45 -2.08
Si  4.44 -3.75 -1.44
Si  5.54 -2.09  1.09
Si -5.56 -2.09  1.09
Si -2.20  3.43  4.47
Si -3.67 -2.94 -3.83
Si  1.00 -5.65 -2.08
Si  2.98 -2.96  4.46
Si  5.45 -0.52  2.78
Si -3.02  1.04  5.40
Si -5.65 -0.52  2.78
Si  5.52 -1.89 -2.59
Si -0.88 -5.35 -3.44
Si  4.85  4.21  0.18
Si -4.92  2.78 -3.08
Si -3.09 -4.97 -2.69
Si  4.62 -0.58 -4.45
Si -5.59 -1.89 -2.59
Si  0.13  6.53 -0.06
Si -3.02  1.04 -5.71
Si  0.65 -5.38  3.71
Si -1.09  0.60  6.57
Si -0.27 -6.48  1.62
Si -0.88  5.76 -3.44
Si  0.65  5.72  3.71
Si  3.92 -5.38  1.72
Si -4.60 -5.07 -0.71
Si  4.95 -1.82  4.68
Si  3.92  5.72  1.72
Si -6.98  1.14 -1.06
Si  2.93 -5.41  3.84
Si -5.17  1.34 -4.90
Si  1.69  3.02  6.38
Si -0.49  4.70  5.51
Si  4.84  2.67  4.71
Si -0.49  4.70 -5.59
Si -3.09  6.14 -2.69
Si  6.19  2.78 -3.08
Si -0.56 -3.14  6.74
Si  1.82 -2.47  6.80
Si  2.93  5.70  3.84
Si -4.48 -3.35  5.04
Si  2.36 -0.26  7.15
Si -6.26  4.21  0.18
Si -4.60  6.04 -0.71
Si  4.08  5.39 -3.54
Si -0.69 -3.21 -6.90
Si -5.06 -4.93  3.06
Si -4.48  4.36  4.62
Si -2.20  3.43 -6.63
Si -6.67 -3.75 -1.44
Si  5.93  1.34 -4.90
Si  2.98 -2.96 -6.64
Si  4.08 -5.72 -3.54
Si -6.49 -0.58 -4.45
Si -1.83 -1.35  7.58
Si -4.66  4.89 -4.13
Si  3.56  4.40 -5.54
Si  3.56  4.40  5.56
Si -6.15 -1.82  4.68
Si -7.56  2.33  0.80
Si -1.84  7.77 -0.06
Si -7.35  1.39  2.84
Si  1.54  0.33 -7.86
Si  8.06  0.51 -0.47
Si -3.84 -7.13  0.10
Si  1.23 -8.00  0.25
Si  2.58  7.03 -3.10
Si  4.62 -0.58  6.65
Si  1.05 -1.98 -7.85
Si -7.15  3.37 -2.10
Si -5.17  1.34  6.20
Si -7.52 -3.23  0.64
Si -4.48 -3.35 -6.07
Si  6.50 -5.07 -0.71
Si -6.26  2.67  4.71
Si  7.27  3.97  0.10
Si  4.95 -1.82 -6.42
Si  7.31 -3.77  1.40
Si -2.41 -7.74  2.01
Si -3.79  7.33  1.40
Si  6.05 -4.93  3.06
Si -1.39  2.70  7.83
Si  4.85 -6.89  0.18
Si -3.33  0.01 -7.76
Si  4.84  2.67 -6.40
Si  7.78  0.01  3.34
Si -0.49 -6.41  5.51
Si  1.26  8.33  1.04
Si -0.49 -6.41 -5.59
Si  1.54 -8.07 -2.31
Si -5.06  6.18  3.06
Si -2.86 -2.52 -7.73
Si -3.67 -2.94  7.28
Si  3.59  7.87  0.64
Si  5.93  1.34  6.20
Si  4.44  7.36 -1.44
Si  8.29  2.45 -1.48
Si -4.66 -6.21 -4.13
Si  7.44 -2.94 -3.83
Si  6.50  6.04 -0.71
Si  3.96 -7.74 -2.10
Si -0.69  7.89  4.20
Si  6.63 -3.35  5.04
Si -4.48  4.36 -6.48
Si  8.81  1.11  1.60
Si -6.15 -1.82 -6.42
Si  6.45  4.89 -4.13
Si -0.56  7.97 -4.36
Si -1.39 -8.40 -3.27
Si -7.18 -5.38  1.72
Si -2.20 -7.68  4.47
Si  0.65 -5.38 -7.39
Si  6.05  6.18  3.06
Si  3.75  1.39 -8.26
Si  6.63  4.36  4.62
Si -2.82 -8.65 -1.48
Si -9.07  0.37 -1.73
Si  8.24 -2.52  3.38
Si -6.49 -0.58  6.65
Si -6.26 -6.89  0.18
Si -4.48 -6.75  4.62
Si -6.26  2.67 -6.40
Si -7.18  5.72  1.72
Si  2.58 -4.08  8.00
Si  0.65  5.72 -7.39
Si -0.88 -5.35  7.66
Si  3.56 -6.70 -5.54
Si  3.56 -6.70  5.56
Si  1.54  3.03  8.79
Si  3.54 -8.78  0.80
Si  2.93 -5.41 -7.26
Si  1.69 -8.09 -4.73
Si  8.70  3.36  2.01
Si -7.03  5.39 -3.54
Si  6.63 -3.35 -6.07
Si -8.74 -0.26 -3.95
Si  2.04  0.37  9.37
Si -0.88  5.76  7.66
Si -2.86  8.58  3.38
Si  2.93  5.70 -7.26
Si -4.66  4.89  6.97
Si -7.03 -5.72 -3.54
Si -8.13 -2.96  4.46
Si -3.67  8.17 -3.83
Si  1.05  9.13  3.25
Si  2.98  8.15  4.46
Si  8.09  1.04  5.40
Si  8.01 -4.97 -2.69
Si -4.92  2.78  8.03
Si  1.82  8.63 -4.31
Si  9.69 -1.38 -1.04
Si -2.30  1.11 -9.51
Si  9.27 -3.34 -0.06
Si  6.45 -6.21 -4.13
Si  0.42  0.95 -9.81
Si -1.42  9.73 -1.04
Si -8.53 -4.08 -3.10
Si  8.09  1.04 -5.71
Si  5.45 -0.52 -8.33
Si -2.41  3.36 -9.10
Si  9.27 -1.35 -3.52
Si -6.67  7.36 -1.44
Si -5.65 -0.52 -8.33
Si -9.56  0.33  3.24
Si  4.08  5.39  7.56
Si -4.92 -8.33 -3.08
Si  7.27 -7.13  0.10
Si  6.63  4.36 -6.48
Si  0.42 -10.15  1.29
Si -3.09 -4.97  8.41
Si -1.42 -1.38 10.07
Si -4.48  7.76  5.04
Si -9.84 -2.77  1.04
Si -9.57  3.03 -2.31
Si -10.27 -0.82 -0.10
Si  4.08 -5.72  7.56
Si  5.52 -1.89  8.51
Si  0.84 10.29 -0.10
Si -2.82  2.45  9.62
Si -7.55  4.40 -5.54
Si -9.87  3.10  0.25
Si -5.59 -1.89  8.51
Si -7.55  4.40  5.56
Si -4.48 -6.75 -6.48
Si -2.30 -9.99  1.60
Si -2.20 -7.68 -6.63
Si  3.96  3.37  9.00
Si  1.69 -8.09  6.38
Si -4.66 -6.21  6.97
Si  8.01  6.14 -2.69
Si  7.31  7.33  1.40
Si -0.56  7.97  6.74
Si -0.69  7.89 -6.90
Si  6.19  2.78  8.03
Si  1.26 -2.77 -10.07
Si -8.18 -5.41  3.84
Si  6.63 -6.75  4.62
Si -1.83  9.75 -3.52
Si -9.29 -2.47 -4.31
Si  8.90  3.43  4.47
Si -0.27  4.62 -9.49
Si  1.00  5.45  9.03
Si  9.71  2.70 -3.27
Si  5.54  9.01  1.09
Si -5.56  9.01  1.09
Si  6.45  4.89  6.97
Si -8.18  5.70  3.84
Si  1.00 -5.65  9.03
Si -5.06 -4.93 -8.05
Si -7.15 -7.74 -2.10
Si -10.06 -1.98  3.25
Si  3.75 -9.72  2.84
Si  4.84 -8.44  4.71
Si -10.69  0.95  1.29
Si  7.44 -2.94  7.28
Si -4.48  7.76 -6.07
Si  6.19 -8.33 -3.08
Si  4.12 -9.97 -1.06
Si -3.09  6.14  8.41
Si -7.52  7.87  0.64
Si -8.13 -2.96 -6.64
Si  4.12  1.14 10.04
Si  2.98  8.15 -6.64
Si  2.58  7.03  8.00
Si -9.42  3.02 -4.73
Si  7.78  0.01 -7.76
Si 10.01  0.60 -4.54
Si -3.05 -10.60 -0.47
Si  5.52  9.21 -2.59
Si  2.04 -10.73 -1.73
Si  0.84 -0.82 11.00
Si -3.05  0.51 10.63
Si -5.59  9.21 -2.59
Si -3.79 -3.77 -9.71
Si  1.82  8.63  6.80
Si  3.54  2.33 -10.31
Si -7.35  1.39 -8.26
Si  6.05 -4.93 -8.05
Si  0.84 -0.82 -11.21
Si  4.44 -3.75  9.66
Si -8.74 -0.26  7.15
Si -5.06  6.18 -8.05
Si  6.45 -6.21  6.97
Si  1.23  3.10 -10.86
Si  1.54 -10.78  3.24
Si  6.63  7.76  5.04
Si  6.63 -6.75 -6.48
Si -8.53  7.03 -3.10
Si -0.27 -6.48 -9.49
Si -1.09 -10.51 -4.54
Si -6.26 -8.44  4.71
Si  3.92 -5.38 -9.39
Si -7.55 -6.70 -5.54
Si  4.95  9.29  4.68
Si  3.59 -3.23 -10.46
Si -7.55 -6.70  5.56
Si -3.67  8.17  7.28
Si -10.14  0.74 -5.46
Si -1.39 -8.40  7.83
Si  8.24 -2.52 -7.73
Si -7.56 -8.78  0.80
Si  8.90  3.43 -6.63
Si -10.14  0.74  5.64
Si 11.53  0.95  1.29
Si  5.54 -2.09 -10.02
Si -7.03  5.39  7.56
Si  4.84 -8.44 -6.40
Si -5.56 -2.09 -10.02
Si -5.30 -0.69 10.37
Si -10.11  5.45 -2.08
Si  3.92  5.72 -9.39
Si 10.42 -3.21  4.20
Si -1.84 -3.34 11.05
Si  7.44  8.17 -3.83
Si -5.30 10.41 -0.74
Si  0.97 -10.36 -5.46
Si -9.42  3.02  6.38
Si -10.11 -5.65 -2.08
Si -9.29 -2.47  6.80
Si  2.36 10.84 -3.95
Si  2.04 11.48 -1.73
Si -1.84 -3.34 -11.16
Si -7.03 -5.72  7.56
Si  6.05  6.18 -8.05
Si -3.02 -10.07  5.40
Si  8.70 -7.74  2.01
Si  1.23  3.10 11.35
Si 10.55 -3.14 -4.36
Si  0.97 -10.36  5.64
Si  6.63  7.76 -6.07
Si -10.98 -4.58 -0.06
Si 10.84  4.62  1.62
Si -2.86  8.58 -7.73
Si  5.80 -0.69 10.37
Si  5.80 10.41 -0.74
Si  0.84 -11.93 -0.10
Si  0.13 -4.58 11.05
Si -3.02 -10.07 -5.71
Si 11.94 -0.82 -0.10
Si -7.15  3.37  9.00
Si -3.05  0.51 -11.58
Si  1.54 11.44  3.24
Si 10.01  0.60  6.57
Si -3.05 11.62 -0.47
Si  1.54 -8.07  8.79
Si 10.22 -5.35 -3.44
Si  9.27 -1.35  7.58
Si -3.33 -11.09  3.34
Si  0.13 -4.58 -11.17
Si  8.29 -8.65 -1.48
Si -3.33 11.12  3.34
Si -6.15  9.29  4.68
Si -5.17 -9.76 -4.90
Si  1.05  9.13 -7.85
Si  9.27  7.77 -0.06
Si 11.24 -4.58 -0.06
Si  0.42 12.06  1.29
Si -2.41 -7.74 -9.10
Si -8.18 -5.41 -7.26
Si -6.98 -9.97 -1.06
Si 10.22  5.76 -3.44
Si  5.45 10.59  2.78
Si  2.36 -11.37 -3.95
Si -6.98  1.14 10.04
Si -6.26 -8.44 -6.40
Si -1.42 -1.38 -12.15
Si -3.84  3.97 -11.01
Si -5.65 10.59  2.78
Si -6.67 -3.75  9.66
Si  4.95  9.29 -6.42
Si  4.62 10.53 -4.45
Si -8.18  5.70 -7.26
Si -10.46 -5.38  3.71
Si -8.13  8.15  4.46
Si  8.24  8.58  3.38
Si -8.53 -4.08  8.00
Si -11.38  4.62  1.62
Si -9.56  0.33 -7.86
Si  5.93 -9.76 -4.90
Si -1.09 -10.51  6.57
Si  0.42  0.95 12.40
Si -4.60 -5.07 10.39
Si -10.46  5.72  3.71
Si -1.83  9.75  7.58
Si -3.84  3.97 11.20
Si  3.96 -7.74  9.00
Si -7.35 -9.72  2.84
Si  1.26 -2.77 12.15
Si -2.30 12.22  1.60
Si -4.92 -8.33  8.03
Si  8.90 -7.68  4.47
Si -1.09 11.71 -4.54
Si -1.42 -12.48 -1.04
Si  8.01 -4.97  8.41
Si  3.54  2.33 11.90
Si -12.52 -1.38 -1.04
Si -5.17 -9.76  6.20
Si  4.85  4.21 -10.93
Si  3.59 -3.23 11.75
Si -9.87 -8.00  0.25
Si 12.37 -2.77  1.04
Si 12.34  3.10  0.25
Si  7.31 -3.77 -9.71
Si 10.84 -6.48  1.62
Si -9.57 -8.07 -2.31
Si 12.15 -1.98  3.25
Si -3.79  7.33 -9.71
Si  9.71  2.70  7.83
Si -10.98  6.53 -0.06
Si  0.13  6.53 11.05
Si -11.66 -3.14 -4.36
Si 10.62  4.70  5.51
Si -6.15  9.29 -6.42
Si -4.60  6.04 10.39
Si 10.62  4.70 -5.59
Si  4.12  1.14 -12.17
Si 10.42 -3.21 -6.90
Si 10.55 -3.14  6.74
Si -10.06 -1.98 -7.85
Si -11.80 -3.21  4.20
Si  4.44  7.36  9.66
Si  0.13  6.53 -11.17
Si  8.29  2.45  9.62
Si -9.84  8.33  1.04
Si -5.30 -11.80 -0.74
Si -2.30  1.11 12.71
Si  4.12 12.24 -1.06
Si  4.85  4.21 11.29
Si -7.18 -5.38 -9.39
Si -7.56  2.33 -10.31
Si 11.24  6.53 -0.06
Si -5.30 -0.69 -11.85
Si  5.93 -9.76  6.20
Si  2.04  0.37 -12.84
Si  8.81  1.11 -9.51
Si  8.70  3.36 -9.10
Si -12.20  0.60 -4.54
Si -9.07  0.37  9.37
Si 12.65  0.33  3.24
Si -1.83 -12.46 -3.52
Si  0.97 11.85 -5.46
Si  6.19 -8.33  8.03
Si  1.26  8.33 -10.07
Si -2.82  2.45 -12.59
Si -7.18  5.72 -9.39
Si  5.45 -11.62  2.78
Si  8.01  6.14  8.41
Si -6.49 10.53 -4.45
Si  0.97 11.85  5.64
Si  5.80 -11.80 -0.74
Si -11.38 -6.48  1.62
Si -12.50  2.70 -3.27
Si  2.36 10.84  7.15
Si 12.64  3.03 -2.31
Si  5.80 -0.69 -11.85
Si -5.65 -11.62  2.78
Si  7.44  8.17  7.28
Si -2.82 -8.65  9.62
Si  9.71 -8.40 -3.27
Si 13.14  0.37 -1.73
Si  6.50 -5.07 10.39
Si 12.07  0.74 -5.46
Si -6.26  4.21 -10.93
Si -7.52 -3.23 -10.46
Si -9.42 -8.09 -4.73
Si  4.62 10.53  6.65
Si -8.13  8.15 -6.64
Si  3.75 -9.72 -8.26
Si  8.06 -10.60 -0.47
Si  4.62 -11.68 -4.45
Si -9.57  3.03  8.79
Si 12.07  0.74  5.64
Si  8.06  0.51 10.63
Si  3.75 12.50  2.84
Si -12.95 -3.34 -0.06
Si -9.29  8.63 -4.31
Si  8.81 -9.99  1.60
Si  1.54 -10.78 -7.86
Si 12.10  5.45 -2.08
Si 11.76 -5.38  3.71
Si -1.09 11.71  6.57
Si -12.94 -1.35 -3.52
Si  8.90 -7.68 -6.63
Si 12.10 -5.65 -2.08
Si  1.05 -13.08  3.25
Si -0.27  4.62 12.73
Si  1.23 -8.00 -10.86
Si -13.40  1.11  1.60
Si  5.54 -2.09 12.19
Si -5.56 -2.09 12.19
Si 10.62 -6.41  5.51
Si -11.99 -5.35 -3.44
Si -6.26  4.21 11.29
Si  3.59  7.87 -10.46
Si 11.76  5.72  3.71
Si -3.79 -3.77 12.50
Si 10.62 -6.41 -5.59
Si -3.02 12.15  5.40
Si -1.84  7.77 11.05
Si  2.36 -11.37  7.15
Si -8.53  7.03  8.00
