500
set: 172.00  0.00  0.00
Si -0.01  0.00  0.03
Si -0.00 -2.20  0.77
Si  1.91  1.08  0.82
Si  0.01 -0.01 -2.35
Si -1.91  1.14  0.77
Si -1.91 -3.31  0.02
Si -1.94  1.09  3.13
Si -1.93  3.34  0.02
Si  1.94 -3.34 -0.02
Si  0.01 -2.22  3.17
Si  3.87 -0.01 -0.01
Si  0.03  2.25 -3.16
Si -1.91 -1.17 -3.18
Si  1.95  3.37 -0.02
Si -3.89  0.02  0.03
Si  1.98  1.11  3.19
Si  1.93 -1.13 -3.22
Si  1.94 -3.30 -2.34
Si  3.83 -0.03 -2.37
Si -3.86 -0.01 -2.34
Si  3.85 -2.23  0.80
Si -1.93 -1.10  3.95
Si -1.94  3.34 -2.37
Si  1.93  3.36 -2.35
Si -1.94 -3.38 -2.34
Si  0.05  4.49  0.75
Si  1.94 -1.10  3.98
Si  0.01  2.27  3.95
Si -3.88 -2.25  0.84
Si  3.82  2.22 -3.15
Si  0.03 -4.47 -3.14
Si  3.90 -2.19  3.14
Si  0.02  4.48  3.14
Si -3.87  2.24 -3.18
Si -3.88 -2.28  3.17
Si -1.97 -5.55  0.74
Si -3.86  2.21  3.92
Si -1.91 -1.13 -5.50
Si  5.77  1.15  0.80
Si -0.04  2.22 -5.51
Si -3.88  4.44  0.75
Si  3.84  4.50  0.74
Si  1.91 -5.60  0.75
Si -0.04 -4.48  3.96
Si  1.93 -1.13 -5.55
Si  3.89  2.22  3.97
Si -5.83  1.15  0.80
Si -3.86  4.45  3.12
Si -0.00 -2.23 -6.29
Si  0.00  6.68  0.02
Si -0.03 -6.68 -0.03
Si -1.93  5.58 -3.13
Si  3.86  4.44  3.16
Si  5.77  3.37 -0.03
Si  3.87 -4.46 -3.13
Si  1.93 -5.59  3.12
Si  1.94 -1.13  6.30
Si  5.79 -1.11 -3.16
Si -1.94  1.10 -6.31
Si  0.00  2.24  6.31
Si  1.94  5.57 -3.17
Si -5.80 -1.11 -3.16
Si  5.80 -3.37  0.02
Si -5.80  1.12  3.18
Si -5.80 -3.37  0.02
Si  5.80  1.12  3.18
Si -3.86 -4.48 -3.17
Si -1.94 -5.60  3.16
Si -1.93 -1.12  6.34
Si -5.82  3.37 -0.03
Si  1.93  1.11 -6.35
Si -1.90  5.58  3.88
Si -0.01  6.67 -2.32
Si  5.78 -3.38 -2.32
Si  3.89 -4.47  3.88
Si  0.01 -4.46 -5.51
Si -0.02 -6.68 -2.37
Si -5.78 -1.11  3.96
Si  1.92  5.58  3.94
Si  5.79  3.36 -2.37
Si -3.88 -4.46  3.94
Si -5.82 -3.38 -2.32
Si -3.88  2.24 -5.53
Si -5.81  3.36 -2.37
Si  5.82 -1.11  3.96
Si -0.01 -0.03  7.15
Si  3.89  2.23 -5.59
Si -3.87  2.22  6.25
Si -3.82 -2.24 -6.29
Si  7.70  0.02  0.03
Si -3.85 -6.67 -0.02
Si  3.90  2.17  6.29
Si  0.03 -4.45  6.31
Si -7.73 -0.01 -0.01
Si -3.86  6.70 -0.02
Si  0.01  4.48 -6.31
Si  3.86 -6.71  0.02
Si  3.86 -2.26 -6.35
Si  3.89  6.74  0.02
Si -5.76 -5.56  0.75
Si  3.87  6.66 -2.34
Si -3.86 -4.45 -5.50
Si  1.92  7.79  0.84
Si -3.87 -6.68 -2.35
Si -5.79 -1.07 -5.52
Si  7.71 -2.25  0.84
Si  3.87 -4.45 -5.53
Si -1.96  3.32  7.10
Si  5.80 -1.07 -5.52
Si  1.94  5.60 -5.50
Si  7.74 -0.01 -2.34
Si  3.86 -6.70 -2.37
Si -1.95  7.81  0.80
Si -1.94 -3.36  7.10
Si -1.93  5.60 -5.53
Si  5.84 -5.56  0.75
Si  1.94 -3.34  7.12
Si -7.75 -2.23  0.80
Si -3.85  6.74 -2.34
Si  3.87 -0.03  7.13
Si -3.85  0.04  7.14
Si  1.94  3.34  7.14
Si -7.77 -0.03 -2.37
Si -7.70 -2.19  3.14
Si  1.92  7.77  3.17
Si -5.76  5.57 -3.14
Si -5.79 -5.56  3.14
Si -1.91 -5.53 -6.33
Si -3.88  4.42 -6.31
Si -3.87 -4.46  6.30
Si  5.81 -5.56  3.14
Si  3.82 -4.48  6.32
Si  1.93  5.59  6.30
Si -5.76 -1.12  6.34
Si  1.93 -7.80 -3.18
Si  7.71 -2.28  3.17
Si  7.73  2.24 -3.18
Si -1.98  5.57  6.32
Si -5.79  1.14 -6.33
Si  5.83  5.57 -3.14
Si  1.91 -5.62 -6.31
Si -1.99 -7.83 -3.15
Si  5.81  1.14 -6.33
Si -1.90  7.86  3.14
Si -7.78  2.22 -3.15
Si  5.83 -1.12  6.34
Si  3.90  4.51 -6.33
Si -0.03 -8.90  0.80
Si  7.72  4.44  0.75
Si  5.77  5.57  3.96
Si -0.04 -2.20 -8.67
Si -7.70  2.22  3.97
Si  7.74  2.21  3.92
Si  1.93 -7.83  3.92
Si -1.91 -7.82  3.97
Si -5.83  5.57  3.96
Si  1.91  1.10 -8.72
Si -7.76  4.50  0.74
Si -1.97  1.15 -8.73
Si  7.73  4.45  3.12
Si -7.73 -4.46 -3.13
Si -7.73  4.44  3.16
Si -0.00 -8.93  3.18
Si  0.00  8.94 -3.16
Si  7.74 -4.48 -3.17
Si  0.00 -0.02  9.49
Si -0.03  0.02 -9.50
Si -7.71 -4.47  3.88
Si  7.71 -4.46  3.94
Si  3.88 -8.90  0.77
Si -5.78  5.58 -5.51
Si  5.79 -3.34  7.10
Si  7.71  2.24 -5.53
Si -3.89 -2.26 -8.65
Si  1.91 -7.81 -5.53
Si -5.81 -3.34  7.10
Si -5.78  3.33  7.13
Si  5.82  5.58 -5.51
Si -0.01  6.71  7.10
Si  0.02  8.93  3.96
Si -7.71  2.23 -5.59
Si -9.69  1.08  0.82
Si  5.81  3.33  7.13
Si -5.79  7.84  0.77
Si  9.69  1.14  0.77
Si  3.88 -2.21 -8.71
Si  5.80  7.84  0.77
Si  0.01 -6.71  7.13
Si -0.00  4.50 -8.70
Si -1.91 -7.82 -5.59
Si -3.89 -8.96  0.82
Si -7.70  2.17  6.29
Si  1.90 -3.32 -9.44
Si  7.73  2.22  6.25
Si -9.61  1.11  3.19
Si  1.90 -10.02  0.03
Si  3.90  8.87 -3.18
Si -5.77 -7.79 -3.16
Si  1.93 -7.83  6.25
Si -5.79 -5.56 -6.31
Si  9.66  1.09  3.13
Si  1.95 -3.33  9.45
Si -3.86  0.00  9.46
Si -1.93 10.03 -0.01
Si -5.76  5.60  6.31
Si  3.86 -0.01 -9.46
Si -9.64  3.37 -0.02
Si  1.98  7.80 -6.29
Si -1.93  3.33  9.46
Si -1.91  3.39 -9.45
Si  5.81 -5.56 -6.31
Si -9.66 -3.34 -0.02
Si  9.66  3.34  0.02
Si  7.75 -6.67 -0.02
Si -3.82 -8.94  3.19
Si -1.94  7.79 -6.35
Si -5.78  7.83  3.17
Si  5.83 -7.79 -3.16
Si  9.68 -3.31  0.02
Si -7.71  6.74  0.02
Si -3.87  8.92 -3.22
Si  7.74  6.70 -0.02
Si -7.73 -6.71  0.02
Si  3.86 -8.96  3.13
Si -3.85  0.02 -9.49
Si -1.94 -10.06 -0.01
Si -1.94 -3.36 -9.48
Si  7.78 -2.24 -6.29
Si  1.91 10.07  0.03
Si  1.94  3.35 -9.49
Si -1.93 -3.36  9.49
Si -9.67 -1.13 -3.22
Si  5.82  7.83  3.17
Si -1.91 -7.87  6.29
Si  5.84  5.60  6.31
Si -7.74 -2.26 -6.35
Si  3.89  0.04  9.50
Si  1.91  3.37  9.51
Si  9.69 -1.17 -3.18
Si -3.88  4.45 -8.64
Si  0.05 -2.21 10.23
Si -5.79 -7.77  3.95
Si  1.91 -5.60 -8.64
Si -9.66 -3.30 -2.34
Si -7.73  6.66 -2.34
Si  5.80 -7.77  3.95
Si  7.73 -4.45 -5.50
Si -1.96 10.02 -2.37
Si  7.73 -6.68 -2.35
Si  3.85  4.46 -8.67
Si  1.94 10.04 -2.34
Si  9.66  3.34 -2.37
Si -7.73 -4.45 -5.53
Si  3.87  6.69  7.10
Si -9.66  3.36 -2.35
Si -1.96 -5.58 -8.67
Si  1.94 -10.05 -2.34
Si  9.66 -3.38 -2.34
Si  9.67 -1.10  3.95
Si -9.66 -1.10  3.98
Si  3.83 -6.72  7.10
Si -5.76  1.14 -8.72
Si -7.74 -6.70 -2.37
Si  3.88  8.94  3.95
Si -1.95  1.11 10.27
Si -7.73 -0.03  7.13
Si -3.86  6.71  7.12
Si -3.85  8.95  3.98
Si -3.86 -6.70  7.14
Si  7.74  6.74 -2.34
Si  7.74  0.04  7.14
Si -1.97 -10.07 -2.37
Si  0.01  8.97 -5.52
Si  1.92  1.09 10.31
Si  5.84  1.14 -8.72
Si  7.71  4.42 -6.31
Si  7.73 -4.46  6.30
Si  0.01 -8.91 -6.33
Si -7.70  4.51 -6.33
Si  0.04  8.92  6.34
Si -7.78 -4.48  6.32
Si  3.84 -2.20 10.21
Si  9.63 -5.55  0.74
Si -3.88 -2.25 10.22
Si  5.76 -7.82 -5.51
Si  3.89  8.92 -5.50
Si -3.86  8.91 -5.55
Si  9.69 -1.13 -5.50
Si -9.66 -1.13 -5.55
Si -9.68 -5.60  0.75
Si -5.84 -7.82 -5.51
Si -0.03  4.50 10.28
Si -0.03 11.19  0.80
Si  5.77 -3.33  9.45
Si  5.79 -3.34 -9.45
Si -3.85  8.91  6.30
Si  5.80  3.33 -9.46
Si -9.65 -1.13  6.30
Si -5.80  3.33 -9.46
Si -0.01  6.70 -9.45
Si -5.81 -3.34 -9.45
Si -5.82 -3.33  9.45
Si -5.80  7.81 -6.29
Si -9.65  5.57 -3.17
Si  5.80  7.81 -6.29
Si  5.79 -7.80  6.31
Si  5.79 -10.04  0.03
Si -0.02  6.71  9.45
Si 11.59  0.00  0.03
Si  9.66  1.10 -6.31
Si -0.01 -11.15 -3.16
Si -5.80 -7.80  6.31
Si -9.67 -5.59  3.12
Si  9.67  5.58 -3.13
Si -0.01 -6.71 -9.46
Si -5.81 -10.04  0.03
Si  5.80 10.05  0.03
Si  9.66 -5.60  3.16
Si -5.80 10.05  0.03
Si -11.60  0.00  0.03
Si  0.01 11.16  3.18
Si  3.85 -8.95 -6.31
Si  3.88  8.93  6.34
Si  9.67 -1.12  6.34
Si -9.67  1.11 -6.35
Si -0.01 -6.69  9.50
Si  5.80  3.35  9.50
Si -5.80  3.35  9.50
Si -3.87 -8.94 -6.35
Si  1.91  7.78 -8.65
Si -7.71 -8.90  0.77
Si -1.91 -5.56 10.24
Si  7.70 -2.26 -8.65
Si -3.88 11.13  0.82
Si -5.78 10.03 -2.35
Si -11.59 -0.01 -2.35
Si -5.79  1.15 10.24
Si  5.81 10.03 -2.35
Si 11.60 -2.20  0.77
Si  5.80  1.15 10.24
Si -11.60 -2.20  0.77
Si  5.79 -5.55 -8.70
Si  9.69  5.58  3.88
Si -7.71 -2.21 -8.71
Si  3.89  4.49 10.24
Si -5.80 -5.55 -8.70
Si 11.61 -0.01 -2.35
Si  0.01 -11.16  3.96
Si -5.79 -10.06 -2.35
Si -9.68  5.58  3.94
Si  7.70 -8.96  0.82
Si  5.80 -10.06 -2.35
Si -0.02  0.01 -11.85
Si -3.88  4.43 10.29
Si  3.89 11.19  0.77
Si -1.91  7.84 -8.71
Si  1.91 -5.62 10.29
Si -7.70  8.87 -3.18
Si  3.88 -6.65 -9.45
Si  3.87 11.13  3.13
Si -11.56  2.25 -3.16
Si -3.81 11.15  3.19
Si -11.58 -2.22  3.17
Si -3.84  6.72  9.45
Si -7.74 -0.01 -9.46
Si  7.74  0.00  9.46
Si -3.90  6.72 -9.44
Si  3.87  6.68 -9.48
Si -7.71  0.04  9.50
Si  3.87 -6.71  9.46
Si  7.73  8.92 -3.22
Si  3.87  6.68  9.49
Si 11.61 -2.22  3.17
Si -3.87 -6.69 -9.49
Si -7.74 -8.96  3.13
Si -3.89 -6.67  9.51
Si  7.75  0.02 -9.49
Si -3.87 -11.17 -3.22
Si 11.63  2.25 -3.16
Si  7.78 -8.94  3.19
Si  3.89 -11.22 -3.18
Si  7.71  4.45 -8.64
Si  0.00 -11.12 -5.52
Si -11.55  4.49  0.75
Si  9.63  3.32  7.10
Si -1.94  3.32 -11.82
Si  1.94 -3.35 -11.81
Si  1.94 -10.00  7.14
Si  9.65  7.81  0.80
Si  1.94  3.39 -11.81
Si -3.87  0.01 -11.82
Si -1.93 10.01  7.13
Si  3.87 -11.15  3.95
Si -9.66  5.60 -5.50
Si -7.73  6.69  7.10
Si -3.86 -11.14  3.98
Si  9.66 -3.36  7.10
Si -11.59  2.27  3.95
Si -9.68  7.79  0.84
Si -7.72  8.94  3.95
Si  3.85 -0.01 -11.84
Si -7.75  4.46 -8.67
Si -9.66 -3.34  7.12
Si -1.96 -12.28  0.80
Si -9.65  3.34  7.14
Si  9.67  5.60 -5.53
Si  0.04 -8.91 -8.72
Si 11.61  2.27  3.95
Si  1.91 -12.30  0.84
Si -1.97 -3.38 -11.85
Si  7.74  6.71  7.12
Si  7.74 -6.70  7.14
Si  7.74  8.95  3.98
Si -7.77 -6.72  7.10
Si -1.94 -10.08  7.13
Si 11.64  4.49  0.75
Si  1.95 10.09  7.14
Si -1.91 -12.23  3.14
Si  9.62  5.57  6.32
Si  9.61 -7.83 -3.15
Si -11.57 -4.47 -3.14
Si  0.03  2.23 -12.61
Si -9.68  7.77  3.17
Si  0.02 -2.21 12.61
Si -11.58  4.48  3.14
Si -1.90  1.16 12.62
Si -9.66  5.59  6.30
Si -1.98 12.26 -3.15
Si -9.67 -7.80 -3.18
Si  9.69 -5.53 -6.33
Si  1.92  1.07 12.64
Si -1.99 -1.13 -12.62
Si  1.93 12.29 -3.18
Si 11.61  4.48  3.14
Si  0.03 -11.17  6.34
Si  1.92 -1.10 -12.65
Si 11.63 -4.47 -3.14
Si  0.02 11.18 -6.33
Si -9.68 -5.62 -6.31
Si  1.91 -12.32  3.17
Si  9.70  7.86  3.14
Si  1.92  7.79 10.22
Si 11.56  2.22 -5.51
Si  7.72 -2.25 10.22
Si -7.70  8.92 -5.50
Si 11.56 -4.48  3.96
Si -7.76 -2.20 10.21
Si  1.94 12.26  3.92
Si -1.96  7.84 10.21
Si  5.77 -5.55 10.28
Si -1.90 12.27  3.97
Si  5.77  7.84 -8.67
Si  3.83 -8.89 -8.73
Si  7.74  8.91 -5.55
Si -9.66 -7.83  3.92
Si  3.88 -11.17 -5.50
Si  9.63  1.15 -8.73
Si -5.83 -5.55 10.28
Si -5.83  7.84 -8.67
Si -11.63  2.22 -5.51
Si -3.87 -11.18 -5.55
Si  9.69 -7.82  3.97
Si -9.68  1.10 -8.72
Si -11.63 -4.48  3.96
Si -3.89 -8.95 -8.72
Si 11.57 -6.68 -0.03
Si -3.86 -2.24 12.59
Si  3.87  2.23 -12.60
Si  3.86 11.14 -6.31
Si 11.59 -2.23 -6.29
Si -11.59  6.68  0.02
Si -11.60 -2.23 -6.29
Si 11.60  6.68  0.02
Si  7.75  8.91  6.30
Si -11.59  2.24  6.31
Si 11.60  2.24  6.31
Si -3.86 -11.17  6.30
Si -7.72  8.93  6.34
Si -0.01 -4.45 -12.64
Si  3.86 -2.25 12.63
Si -3.86 11.15 -6.35
Si -11.62 -6.68 -0.03
Si -3.86  2.22 -12.65
Si  3.87 -11.16  6.34
Si -7.74 -8.95 -6.31
Si  7.72 -8.94 -6.35
Si -0.02 13.41 -0.03
Si -0.01 -13.41  0.02
Si  0.01  4.46 12.65
Si -1.90 -1.12 13.36
Si  5.78  3.32 -11.79
Si -5.82  3.32 -11.79
Si  7.71 11.13  0.82
Si 11.58  6.67 -2.32
Si  5.79 -12.24  0.77
Si  0.00 -8.90 10.24
Si -5.80 -12.24  0.77
Si -0.02 -6.72 -11.79
Si 13.51  1.08  0.82
Si -13.51  1.14  0.77
