500
set: 888.00  0.00  0.00
Si  0.43 -1.17  0.83
Si -0.44  1.19 -0.81
Si  1.33  1.20  0.82
Si -1.33 -1.19 -0.85
Si  2.19 -1.18 -0.82
Si -0.88 -0.01  2.47
Si -2.21  1.19  0.83
Si  0.89  0.02 -2.51
Si  3.10  1.17 -0.85
Si  0.03  2.39  2.47
Si -0.04 -2.36 -2.50
Si -3.13 -1.19  0.82
Si -2.65 -0.00 -2.50
Si  2.66  0.01  2.48
Si  0.50  3.56 -0.80
Si -0.50 -3.57  0.87
Si  1.74 -2.37  2.50
Si -1.75  2.37 -2.51
Si -1.28  3.57  0.83
Si  1.29 -3.58 -0.81
Si  1.83  2.38 -2.47
Si -1.81 -2.40  2.50
Si -0.88  0.05 -4.12
Si  0.90 -0.00  4.13
Si -3.97  1.18 -0.83
Si  3.98 -1.20  0.84
Si -2.27 -3.59 -0.80
Si  2.27  3.59  0.87
Si -3.04  3.59 -0.81
Si  3.04 -3.58  0.84
Si  0.02  2.39 -4.14
Si -0.03 -2.38  4.15
Si -3.50  2.37  2.48
Si -2.66  0.01  4.13
Si  3.50 -2.39 -2.50
Si  2.65 -0.01 -4.15
Si  3.58  2.39  2.48
Si -3.59 -2.40 -2.46
Si  1.72 -2.38 -4.13
Si -4.43  0.01  2.48
Si  4.44  0.00 -2.46
Si -1.76  2.39  4.13
Si  1.81  2.39  4.13
Si -1.80 -2.40 -4.13
Si -4.89 -1.21 -0.85
Si  4.90  1.21  0.83
Si -0.82  4.76 -2.46
Si  0.81 -4.76  2.48
Si  0.96  4.76  2.50
Si -0.94 -4.78 -2.47
Si -4.05 -3.58  0.83
Si  4.06  3.58 -0.81
Si  3.50 -2.39  4.11
Si -3.51  2.37 -4.13
Si -5.74  1.21  0.83
Si -0.41  1.18  5.80
Si  0.43 -1.19 -5.80
Si -3.57 -2.37  4.12
Si  5.76 -1.21 -0.85
Si  3.58  2.37 -4.12
Si -2.60  4.78  2.50
Si  2.60 -4.80 -2.47
Si -2.73 -4.77  2.47
Si -0.36  5.97  0.82
Si  2.72  4.79 -2.50
Si  1.36  1.19 -5.78
Si  0.34 -5.99 -0.85
Si  4.43 -0.00  4.13
Si  4.84 -3.57 -0.81
Si -1.37 -1.19  5.79
Si -4.83  3.58  0.84
Si -4.43  0.01 -4.15
Si -1.44 -5.96  0.82
Si  1.44  5.96 -0.85
Si -5.28  2.36 -2.47
Si  5.28 -2.38  2.50
Si -2.19  1.21 -5.81
Si  2.20 -1.21  5.81
Si  5.37  2.36 -2.47
Si  0.82 -4.79 -4.12
Si -0.80  4.79  4.12
Si -2.12  5.95 -0.85
Si  0.97  4.76 -4.13
Si  2.14 -5.95  0.83
Si -0.95 -4.77  4.13
Si -5.36 -2.38  2.50
Si -6.20  0.00 -2.46
Si  3.10  1.20  5.80
Si  6.22  0.01  2.48
Si -3.15 -1.19 -5.79
Si -3.21 -5.97 -0.81
Si -6.66 -1.20  0.84
Si  6.67  1.18 -0.83
Si -2.60  4.76 -4.14
Si  3.19  5.98  0.83
Si -0.49 -3.58 -5.80
Si  2.60 -4.79  4.14
Si -5.80 -3.57 -0.81
Si  0.51  3.63  5.81
Si  5.81  3.58  0.84
Si -2.75 -4.77 -4.14
Si  2.74  4.77  4.15
Si  1.27 -3.59  5.78
Si -1.27  3.59 -5.80
Si -4.38  4.77 -2.50
Si  4.38 -4.78  2.48
Si  4.50  4.79  2.50
Si -4.52 -4.79 -2.51
Si -5.28  2.37  4.14
Si -3.99  1.18  5.78
Si  5.27 -2.40 -4.14
Si  3.98 -1.21 -5.79
Si -2.26 -3.53  5.81
Si -3.90  5.96  0.84
Si  5.36  2.37  4.14
Si  2.28  3.58 -5.80
Si  3.91 -5.98 -0.83
Si -5.37 -2.40 -4.14
Si -3.05  3.59  5.78
Si -6.21 -0.00  4.13
Si  3.05 -3.58 -5.80
Si  6.21  0.01 -4.15
Si -0.42  1.18 -7.43
Si -6.58  3.58 -0.81
Si  6.60 -3.58  0.83
Si  0.44 -1.20  7.46
Si -0.10 -7.15  2.48
Si  0.12  7.16 -2.50
Si  1.34  1.22  7.43
Si  7.52 -1.19  0.82
Si -4.38  4.77  4.11
Si -1.35 -1.19 -7.46
Si -7.54  1.17 -0.85
Si -4.89 -1.21  5.80
Si  4.37 -4.79 -4.13
Si  4.89  1.19 -5.82
Si  4.48  4.78 -4.13
Si  1.68 -7.16 -2.46
Si -1.66  7.17  2.48
Si -4.53 -4.77  4.13
Si  1.89  7.14  2.47
Si -1.87 -7.14 -2.51
Si  4.95  5.98 -0.82
Si -4.97 -5.96  0.83
Si  7.05 -2.40 -2.46
Si  2.19 -1.19 -7.45
Si -7.07  2.39  2.48
Si -2.21  1.18  7.47
Si  4.03  3.57  5.78
Si -4.04 -3.57 -5.80
Si  7.15  2.37  2.48
Si -7.15 -2.39 -2.50
Si -3.13 -1.21  7.42
Si  3.12  1.21 -7.43
Si  6.13 -4.79 -2.51
Si -6.14  4.79  2.50
Si -0.49 -3.56  7.42
Si  6.26  4.77 -2.50
Si  5.75 -1.21  5.80
Si -6.26 -4.78  2.48
Si  0.11  7.17  4.13
Si -5.76  1.19 -5.82
Si  5.67 -5.96  0.83
Si -0.12 -7.16 -4.15
Si  0.51  3.56 -7.46
Si -5.70  5.98 -0.82
Si -3.44  7.16 -2.46
Si  3.45 -7.15  2.48
Si  0.33 -5.96  5.80
Si -0.38  5.97 -5.79
Si  4.83 -3.57  5.78
Si -1.26  3.58  7.43
Si -4.83  3.58 -5.80
Si  1.28 -3.57 -7.45
Si -7.98  0.01  2.48
Si  8.00 -0.00 -2.50
Si -0.58 -8.33 -0.82
Si  0.56  8.35  0.83
Si -3.64 -7.17  2.47
Si -1.41 -5.96 -5.78
Si  1.67 -7.16  4.13
Si  3.66  7.17 -2.51
Si  1.40  5.97  5.79
Si -7.60 -3.58  0.84
Si  7.61  3.59 -0.81
Si -1.67  7.17 -4.15
Si -1.21  8.34 -0.83
Si -1.87 -7.16  4.13
Si  1.22 -8.36  0.84
Si -7.06  2.37 -4.12
Si -3.98  1.20 -7.43
Si  1.89  7.21 -4.12
Si  7.08 -2.37  4.12
Si  3.98 -1.22  7.46
Si  2.27  3.59  7.42
Si  8.44  1.19  0.83
Si -2.12  5.95  5.80
Si -7.14 -2.39  4.11
Si  7.14  2.37 -4.13
Si -8.46 -1.18 -0.82
Si -2.26 -3.59 -7.46
Si  2.12 -5.97 -5.82
Si -2.34 -8.33  0.83
Si  2.33  8.35 -0.81
Si  6.12 -4.77  4.13
Si -3.04  3.59 -7.45
Si -6.16  4.78 -4.13
Si  3.06 -3.58  7.46
Si  6.27  4.77  4.11
Si  6.66  1.18  5.78
Si -6.27 -4.79 -4.13
Si -6.66 -1.21 -5.79
Si  3.19  5.97 -5.80
Si -3.18 -5.98  5.80
Si -2.98  8.37  0.83
Si  2.99 -8.37 -0.85
Si -5.82 -3.57  5.78
Si  3.44 -7.14 -4.15
Si -3.45  7.16  4.13
Si  5.81  3.58 -5.80
Si  4.88  1.19  7.43
Si -4.88 -1.21 -7.45
Si -3.64 -7.11 -4.12
Si  7.99  0.01  4.13
Si -7.99 -0.01 -4.15
Si  3.66  7.15  4.13
Si  6.75  5.96  0.84
Si -6.74 -5.98 -0.83
Si  0.89  0.01 -9.06
Si  8.38 -3.59 -0.80
Si -8.38  3.59  0.87
Si -0.89 -0.01  9.12
Si -3.90  5.95 -5.79
Si -4.03 -3.58  7.43
Si  3.89 -5.98  5.78
Si  4.04  3.58 -7.45
Si -5.22  7.16  2.48
Si  5.23 -7.16 -2.50
Si -5.41 -7.16 -2.50
Si  5.43  7.16  2.48
Si -4.09 -8.35 -0.85
Si  4.10  8.36  0.82
Si  0.06  2.38  9.08
Si -0.05 -2.38 -9.11
Si -9.31  1.20  0.82
Si  9.32 -1.19 -0.85
Si -8.82  2.38 -2.47
Si -5.77  1.19  7.43
Si -6.61  3.57  5.78
Si -2.67 -0.01 -9.10
Si  6.61 -3.57 -5.80
Si  8.84 -2.40  2.50
Si  5.77 -1.21 -7.45
Si  2.68  0.00  9.12
Si -0.37  5.95  7.42
Si  0.35 -5.95 -7.43
Si  8.89  2.37 -2.51
Si -8.91 -2.37  2.50
Si  1.72 -2.41  9.08
Si  7.50 -1.19 -5.79
Si  7.91 -4.77  2.47
Si  7.44 -5.97 -0.81
Si  4.84 -3.57 -7.45
Si -4.82  3.58  7.46
Si  1.81  2.40 -9.10
Si -1.75  2.39 -9.11
Si -7.55  1.20  5.80
Si -7.92  4.79 -2.50
Si -7.45  5.98  0.83
Si -1.82 -2.39  9.12
Si -1.43 -5.94  7.43
Si  4.75 -8.34  0.82
Si -4.78  8.33 -0.85
Si  1.42  5.97 -7.46
Si -4.95 -5.95 -5.81
Si  4.97  5.94  5.81
Si -8.04 -4.80 -2.47
Si  8.05  4.78  2.50
Si  2.11 -5.97  7.43
Si -2.11  5.95 -7.45
Si  5.22 -7.15  4.13
Si -5.23  7.15 -4.15
Si -0.73  9.53  2.48
Si -5.42 -7.15  4.13
Si  5.42  7.15 -4.15
Si  0.73 -9.55 -2.50
Si -1.03 -9.52  2.50
Si  1.01  9.52 -2.51
Si -3.50  2.37  9.08
Si  3.52 -2.37 -9.10
Si -8.83  2.39  4.13
Si -9.35 -3.58 -0.81
Si  6.66  1.20 -7.43
Si  9.36  3.57  0.83
Si -3.19 -5.97 -7.43
Si  8.85 -2.40 -4.13
Si -3.59 -2.39 -9.10
Si  3.21  5.96  7.46
Si -5.68  5.94  5.81
Si -9.75  0.02 -2.51
Si -6.66 -1.22  7.46
Si  3.57  2.40  9.11
Si  9.77 -0.01  2.47
Si  5.70 -5.95 -5.81
Si  8.88  2.39  4.13
Si -5.81 -3.57 -7.45
Si  4.43 -0.00 -9.09
Si  7.90 -4.77 -4.14
Si -8.93 -2.38 -4.13
Si  5.83  3.58  7.46
Si -7.90  4.77  4.15
Si -4.42  0.01  9.12
Si -2.51  9.52 -2.47
Si  2.52 -9.54  2.50
Si  7.59  3.59  5.78
Si -7.60 -3.58 -5.80
Si  0.58  8.37 -5.81
Si -0.56 -8.37  5.81
Si -1.22  8.34  5.78
Si  8.04  4.76 -4.14
Si  5.87  8.33 -0.85
Si -8.05 -4.79  4.14
Si -2.81 -9.52 -2.50
Si  1.22 -8.37 -5.79
Si -5.89 -8.34  0.82
Si  2.80  9.55  2.47
Si  3.90 -5.96 -7.43
Si -3.89  5.94  7.46
Si -0.82  4.77 -9.10
Si 10.21  1.19 -0.81
Si  0.80 -4.75  9.11
Si -0.95 -4.75 -9.10
Si -10.22 -1.17  0.83
Si  7.00 -7.17  2.47
Si -6.99  7.17 -2.51
Si -8.45 -1.21  5.81
Si  0.94  4.77  9.12
Si  8.46  1.21 -5.81
Si -0.74  9.53 -4.13
Si -8.51 -5.95  0.83
Si  0.74 -9.54  4.11
Si  2.35  8.34  5.80
Si  8.52  5.95 -0.85
Si -2.34 -8.35 -5.80
Si -7.19 -7.15  2.48
Si -1.05 -9.54 -4.13
Si  1.00  9.55  4.13
Si  7.21  7.16 -2.46
Si  6.62 -3.58  7.43
Si -6.60  3.58 -7.45
Si -9.75 -0.00  4.13
Si -2.59  4.76  9.10
Si  2.60 -4.78 -9.09
Si  9.77  0.05 -4.12
Si -2.99  8.35 -5.82
Si  2.99 -8.37  5.80
Si -2.71 -4.77  9.08
Si  7.51 -1.21  7.42
Si  2.71  4.78 -9.11
Si -7.53  1.21 -7.43
Si -6.55  8.36  0.82
Si  6.55 -8.35 -0.85
Si -2.52  9.53  4.14
Si  6.75  5.95 -5.79
Si -6.75 -5.98  5.78
Si  2.51 -9.56 -4.14
Si  4.96  5.97 -7.45
Si  4.29 -9.56 -2.46
Si -4.30  9.55  2.48
Si  2.78  9.55 -4.14
Si -0.89 -0.01 -10.73
Si -2.79 -9.54  4.15
Si  0.28 -10.74  0.84
Si -5.28  2.38 -9.09
Si -0.27 10.75 -0.81
Si -4.97 -5.98  7.47
Si -10.15  3.56 -0.80
Si -8.37  3.58 -5.80
Si 10.15 -3.57  0.87
Si  8.39 -3.53  5.81
Si  5.29 -2.40  9.10
Si  7.00 -7.11 -4.12
Si -6.98  7.15  4.13
Si  5.36  2.38 -9.09
Si -5.36 -2.40  9.10
Si  0.89  0.01 10.80
Si -1.47 -10.73 -0.81
Si  1.48 10.73  0.83
Si  4.59  9.54 -2.47
Si -4.57 -9.55  2.50
Si  2.08 -10.73 -0.81
Si  7.20  7.16  4.13
Si -7.20 -7.14 -4.15
Si  4.12  8.35 -5.78
Si -2.07 10.73  0.84
Si -4.13 -8.35  5.79
Si  9.21 -5.96  0.82
Si -9.21  5.96 -0.85
Si -9.29  1.19 -5.78
Si  9.28 -1.19  5.79
Si -6.22 -0.00 -9.09
Si -0.05 -2.38 10.75
Si  0.06  2.38 -10.78
Si  6.22  0.01  9.12
Si  2.68  0.00 -10.74
Si -9.69  4.76  2.50
Si -2.67 -0.01 10.76
Si  9.71 -4.78 -2.47
Si -5.69  5.97 -7.45
Si  5.67 -5.98  7.47
Si -1.75  2.39 10.74
Si 10.60 -2.36 -2.50
Si -10.61  2.39  2.47
Si -1.82 -2.39 -10.74
Si  4.38 -4.79  9.08
Si -4.36  4.79 -9.10
Si 11.07 -1.17  0.83
Si -7.45  5.97 -5.80
Si  1.81  2.40 10.76
Si  1.72 -2.41 -10.78
Si -11.09  1.19 -0.81
Si  9.82  4.76 -2.46
Si  7.47 -5.98  5.80
Si  4.49  4.75  9.08
Si -0.57 -8.34 -7.45
Si -9.84 -4.76  2.48
Si  4.73 -8.35 -5.79
Si  0.56  8.34  7.47
Si 10.68  2.39  2.47
Si -7.58 -3.58  7.46
Si -4.30  9.52 -4.12
Si -10.69 -2.36 -2.50
Si -4.51 -4.76 -9.11
Si  7.60  3.59 -7.45
Si -4.78  8.35  5.80
Si  3.26 10.72 -0.80
Si  4.31 -9.52  4.12
Si -3.26 -10.72  0.87
Si -1.22  8.36 -7.43
Si  1.22 -8.38  7.46
Si -8.45 -1.19 -7.45
Si  8.44  1.18  7.47
Si  4.58  9.54  4.13
Si -4.56 -9.56 -4.13
Si -7.65 -8.37 -0.85
Si  7.67  8.37  0.83
Si  2.34  8.34 -7.43
Si -3.82 10.74 -0.81
Si  3.83 -10.74  0.83
Si -2.32 -8.36  7.46
Si -9.68  4.76 -4.13
Si  9.69 -4.77  4.13
Si -6.05  9.54 -2.47
Si -8.76  7.14  2.47
Si  3.52 -2.37 10.76
Si -3.00  8.35  7.43
Si  0.10  7.15 -9.10
Si  3.57  2.40 -10.75
Si -3.50  2.37 -10.78
Si -9.38 -3.59  5.78
Si  8.77 -7.14 -2.51
Si -0.09 -7.15  9.12
Si  9.37  3.59 -5.80
Si  6.07 -9.55  2.50
Si -3.59 -2.39 10.76
Si  3.00 -8.36 -7.45
Si -4.42  0.01 -10.74
Si  4.43 -0.00 10.77
Si 10.62 -2.38  4.15
Si -10.63  2.39 -4.14
Si -6.75 -5.96 -7.43
Si  6.75  5.94  7.46
Si -9.83 -4.79 -4.12
Si 10.66  2.39 -4.14
Si  1.66 -7.16 -9.09
Si -1.88 -7.14 -9.06
Si -10.67 -2.38  4.15
Si  9.84  4.79  4.12
Si -1.65  7.17  9.12
Si 11.14  3.56 -0.80
Si  6.34  9.55  2.48
Si -11.14 -3.57  0.87
Si -8.97 -7.16 -2.46
Si -6.36 -9.56 -2.46
Si  5.87  8.35  5.80
Si  1.88  7.14  9.12
Si -8.37  3.59  7.42
Si -5.91 -8.35 -5.79
Si  8.98  7.17  2.48
Si  7.06 -2.39 -9.10
Si  0.80 -4.75 -10.75
Si -7.08  2.40  9.11
Si  8.38 -3.59 -7.46
Si -11.52 -0.01  2.47
Si  7.14  2.37  9.08
Si  0.94  4.77 -10.74
Si  8.31 -8.33  0.83
Si -7.13 -2.37 -9.10
Si -0.82  4.77 10.76
Si -0.95 -4.75 10.76
