500
set: 550.00  0.00  0.00
Si  0.00  0.00  0.00
Si  0.08 -2.06  0.76
Si -1.84  1.07  0.76
Si  1.85  1.07  0.76
Si -0.00 -0.05 -2.35
Si -1.77 -3.13  0.00
Si  1.77  3.13  0.00
Si  1.92 -3.13  0.00
Si -1.92  3.13  0.00
Si -3.69  0.00  0.00
Si  3.69  0.00  0.00
Si -0.08  2.01 -3.11
Si  0.08 -2.01  3.11
Si  1.84 -1.12 -3.11
Si -1.84  1.12  3.11
Si  1.85  1.12  3.11
Si -1.85 -1.12 -3.11
Si -3.62 -2.06  0.76
Si  1.77  3.07 -2.35
Si -0.07  4.20  0.76
Si -1.93  3.07 -2.35
Si -1.78 -3.18 -2.35
Si -1.76 -0.94  3.86
Si  3.77 -2.06  0.76
Si  3.69 -0.05 -2.35
Si -3.70 -0.05 -2.35
Si  1.92 -3.18 -2.35
Si  1.93 -0.94  3.86
Si  0.01  2.19  3.86
Si  3.61  2.01 -3.11
Si -3.61 -2.01  3.11
Si -0.07  4.25  3.11
Si  0.07 -4.25 -3.11
Si -3.77  2.01 -3.11
Si  3.77 -2.01  3.11
Si -1.70 -5.19  0.76
Si  3.62  4.20  0.76
Si  2.00 -5.19  0.76
Si  0.16 -4.07  3.86
Si -3.77  4.20  0.76
Si -5.54  1.07  0.76
Si  5.54  1.07  0.76
Si -3.69  2.19  3.86
Si  3.70  2.19  3.86
Si -0.09  1.95 -5.46
Si  1.84 -1.18 -5.46
Si -1.86 -1.18 -5.46
Si -1.69 -5.13  3.11
Si  1.69  5.13 -3.11
Si -0.15  6.26  0.00
Si  0.15 -6.26  0.00
Si  5.47  3.13  0.00
Si -5.47 -3.13  0.00
Si -2.00  5.13 -3.11
Si  2.00 -5.13  3.11
Si -3.63 -4.25 -3.11
Si  3.63  4.25  3.11
Si -5.62  3.13  0.00
Si  5.62 -3.13  0.00
Si  5.54 -1.12 -3.11
Si -5.54  1.12  3.11
Si  5.55  1.12  3.11
Si -5.55 -1.12 -3.11
Si  3.76 -4.25 -3.11
Si -3.76  4.25  3.11
Si  1.76  0.88 -6.22
Si -1.76 -0.88  6.22
Si -1.94  0.88 -6.22
Si  1.94 -0.88  6.22
Si -0.01 -2.24 -6.22
Si  0.01  2.24  6.22
Si -3.54 -4.07  3.86
Si -0.15  6.20 -2.35
Si  5.46  3.07 -2.35
Si  0.14 -6.31 -2.35
Si -5.46 -0.94  3.86
Si -5.47 -3.18 -2.35
Si  3.85 -4.07  3.86
Si  1.78  5.32  3.86
Si -5.62  3.07 -2.35
Si  3.61  1.95 -5.46
Si -1.91  5.32  3.86
Si  5.61 -3.18 -2.35
Si  5.62 -0.94  3.86
Si -3.78  1.95 -5.46
Si  0.06 -4.30 -5.46
Si  0.09  0.18  6.97
Si -3.55 -6.26  0.00
Si  3.55  6.26  0.00
Si -3.84  6.26  0.00
Si  3.84 -6.26  0.00
Si  7.39  0.00  0.00
Si -7.39  0.00  0.00
Si -0.16  4.01 -6.22
Si  0.16 -4.01  6.22
Si -5.39 -5.19  0.76
Si  3.54  6.20 -2.35
Si  1.70  7.32  0.76
Si  3.68 -2.24 -6.22
Si -3.68  2.24  6.22
Si -3.71 -2.24 -6.22
Si  3.71  2.24  6.22
Si -3.55 -6.31 -2.35
Si -1.99  7.32  0.76
Si -7.31 -2.06  0.76
Si  1.69  5.08 -5.46
Si -3.85  6.20 -2.35
Si -2.01  5.08 -5.46
Si  5.69 -5.19  0.76
Si  7.38 -0.05 -2.35
Si  3.84 -6.31 -2.35
Si -1.68 -2.94  6.97
Si -7.39 -0.05 -2.35
Si  7.46 -2.06  0.76
Si  2.01 -2.94  6.97
Si -3.63 -4.30 -5.46
Si -3.60  0.18  6.97
Si  5.53 -1.18 -5.46
Si -5.55 -1.18 -5.46
Si  3.76 -4.30 -5.46
Si -1.83  3.31  6.97
Si  3.79  0.18  6.97
Si  1.86  3.31  6.97
Si -5.39 -5.13  3.11
Si  5.39  5.13 -3.11
Si  1.71  7.38  3.11
Si -1.71 -7.38 -3.11
Si -7.31 -2.01  3.11
Si  7.31  2.01 -3.11
Si  3.53  4.01 -6.22
Si -3.53 -4.01  6.22
Si -1.99  7.38  3.11
Si  1.99 -7.38 -3.11
Si  5.70 -5.13  3.11
Si -5.70  5.13 -3.11
Si -5.45 -0.88  6.22
Si  5.45  0.88 -6.22
Si -1.62 -7.19  3.86
Si -7.47  2.01 -3.11
Si  7.47 -2.01  3.11
Si  3.86 -4.01  6.22
Si -3.86  4.01 -6.22
Si  0.23 -8.32  0.76
Si -1.79 -5.37 -6.22
Si  1.79  5.37  6.22
Si  2.08 -7.19  3.86
Si -5.63  0.88 -6.22
Si  5.63 -0.88  6.22
Si  1.91 -5.37 -6.22
Si -1.91  5.37  6.22
Si  7.32  4.20  0.76
Si  5.48  5.32  3.86
Si -7.46  4.20  0.76
Si -7.38  2.19  3.86
Si  7.40  2.19  3.86
Si -5.61  5.32  3.86
Si  1.75  0.83 -8.57
Si -1.94  0.83 -8.57
Si  0.23 -8.26  3.11
Si -0.23  8.26 -3.11
Si -0.02 -2.30 -8.57
Si -7.32 -4.25 -3.11
Si  7.32  4.25  3.11
Si -3.47 -8.32  0.76
Si -7.46  4.25  3.11
Si  7.46 -4.25 -3.11
Si  5.40  7.32  0.76
Si -7.23 -4.07  3.86
Si  5.38  5.08 -5.46
Si  3.92 -8.32  0.76
Si  0.24 -6.07  6.97
Si -5.38 -2.94  6.97
Si -0.14  8.45  3.86
Si -5.69  7.32  0.76
Si -9.23  1.07  0.76
Si  7.30  1.95 -5.46
Si  0.09  0.24  9.33
Si -0.09 -0.24 -9.33
Si  9.24  1.07  0.76
Si -1.71 -7.43 -5.46
Si -5.70  5.08 -5.46
Si  7.55 -4.07  3.86
Si  1.98 -7.43 -5.46
Si -0.17  3.96 -8.57
Si -7.47  1.95 -5.46
Si  5.71 -2.94  6.97
Si -3.46 -8.26  3.11
Si  3.46  8.26 -3.11
Si -0.06  6.44  6.97
Si -5.53  3.31  6.97
Si  5.56  3.31  6.97
Si  1.62  9.38  0.00
Si -1.62 -9.38  0.00
Si -7.24 -6.26  0.00
Si  7.24  6.26  0.00
Si -1.61 -7.14  6.22
Si  1.61  7.14 -6.22
Si  3.68 -2.30 -8.57
Si -2.07  9.38  0.00
Si  2.07 -9.38  0.00
Si -3.71 -2.30 -8.57
Si  5.40  7.38  3.11
Si -5.40 -7.38 -3.11
Si -3.92  8.26 -3.11
Si  3.92 -8.26  3.11
Si  9.16  3.13  0.00
Si -9.16 -3.13  0.00
Si -2.08  7.14 -6.22
Si  2.08 -7.14  6.22
Si -5.31 -7.19  3.86
Si  1.62  9.33 -2.35
Si  7.54 -6.26  0.00
Si -7.54  6.26  0.00
Si  9.23 -1.12 -3.11
Si -9.23  1.12  3.11
Si  9.24  1.12  3.11
Si -9.24 -1.12 -3.11
Si  7.24  6.20 -2.35
Si -5.68  7.38  3.11
Si  5.68 -7.38 -3.11
Si  9.31 -3.13  0.00
Si -9.31  3.13  0.00
Si -2.07  9.33 -2.35
Si -0.23  8.21 -5.46
Si -1.63 -9.44 -2.35
Si -3.46 -6.07  6.97
Si  5.48  5.37  6.22
Si -5.48 -5.37 -6.22
Si -7.25 -6.31 -2.35
Si -7.38  2.24  6.22
Si  7.38 -2.24 -6.22
Si  1.68  2.89 -9.33
Si -1.68 -2.89  9.33
Si  7.40  2.24  6.22
Si -7.40 -2.24 -6.22
Si  9.16  3.07 -2.35
Si  2.06 -9.44 -2.35
Si  5.60 -5.37 -6.22
Si -5.60  5.37  6.22
Si  3.56  8.45  3.86
Si  2.02 -2.89  9.33
Si -2.02  2.89 -9.33
Si -9.15 -0.94  3.86
Si -9.17 -3.18 -2.35
Si -3.60  0.24  9.33
Si  3.60 -0.24 -9.33
Si  5.77 -7.19  3.86
Si -7.54  6.20 -2.35
Si  3.93 -6.07  6.97
Si -3.83  8.45  3.86
Si  3.79  0.24  9.33
Si -3.79 -0.24 -9.33
Si  3.53  3.96 -8.57
Si  1.83 -3.37 -9.33
Si -1.83  3.37  9.33
Si -9.31  3.07 -2.35
Si  1.87  3.37  9.33
Si -1.87 -3.37 -9.33
Si -7.30  0.18  6.97
Si -7.33 -4.30 -5.46
Si  7.53 -6.31 -2.35
Si  9.30 -3.18 -2.35
Si  9.32 -0.94  3.86
Si  3.64  6.44  6.97
Si  5.45  0.83 -8.57
Si  7.45 -4.30 -5.46
Si -3.86  3.96 -8.57
Si -3.75  6.44  6.97
Si  7.48  0.18  6.97
Si  0.17 -1.82 10.08
Si -5.63  0.83 -8.57
Si -1.79 -5.43 -8.57
Si -1.75  1.31 10.08
Si  1.90 -5.43 -8.57
Si  7.23  4.01 -6.22
Si -7.23 -4.01  6.22
Si  1.94  1.31 10.08
Si  3.46  8.21 -5.46
Si -0.22 10.45  0.76
Si -9.09 -5.19  0.76
Si -0.13  8.50  6.22
Si  0.13 -8.50 -6.22
Si  7.55 -4.01  6.22
Si -7.55  4.01 -6.22
Si -3.93  8.21 -5.46
Si -5.40 -7.43 -5.46
Si  9.39 -5.19  0.76
Si  9.22 -1.18 -5.46
Si -5.32 -9.38  0.00
Si  5.32  9.38  0.00
Si -9.25 -1.18 -5.46
Si  5.68 -7.43 -5.46
Si -3.52 -1.82 10.08
Si  5.31  7.14 -6.22
Si -5.31 -7.14  6.22
Si  9.08  5.13 -3.11
Si -9.08 -5.13  3.11
Si  3.87 -1.82 10.08
Si  0.21 -10.51 -3.11
Si -0.21 10.51  3.11
Si  5.32  9.33 -2.35
Si -7.16 -8.32  0.76
Si  5.76 -9.38  0.00
Si -5.76  9.38  0.00
Si  0.02  4.43 10.08
Si  0.31 -10.32  3.86
Si  3.48 10.45  0.76
Si -11.08  0.00  0.00
Si 11.08  0.00  0.00
Si -5.32 -9.44 -2.35
Si  5.78 -7.14  6.22
Si -5.78  7.14 -6.22
Si  9.15  0.88 -6.22
Si -9.15 -0.88  6.22
Si -0.24  6.02 -9.33
Si  0.24 -6.02  9.33
Si  3.56  8.50  6.22
Si -3.56 -8.50 -6.22
Si -5.37 -2.89  9.33
Si  5.37  2.89 -9.33
Si -9.39  5.13 -3.11
Si  9.39 -5.13  3.11
Si -3.91 10.45  0.76
Si -3.83  8.50  6.22
Si  3.83 -8.50 -6.22
Si -5.77  9.33 -2.35
Si -11.01 -2.06  0.76
Si  1.61  7.09 -8.57
Si -9.32  0.88 -6.22
Si  9.32 -0.88  6.22
Si  9.17  5.32  3.86
Si  7.61 -8.32  0.76
Si  5.76 -9.44 -2.35
Si -5.71  2.89 -9.33
Si  5.71 -2.89  9.33
Si -2.09  7.09 -8.57
Si 11.08 -0.05 -2.35
Si -11.09 -0.05 -2.35
Si -1.60 -4.95 10.08
Si  5.52 -3.37 -9.33
Si -5.52  3.37  9.33
Si  0.05 -6.49 -9.33
Si -0.05  6.49  9.33
Si  7.16  8.26 -3.11
Si -7.16 -8.26  3.11
Si -5.56 -3.37 -9.33
Si  5.56  3.37  9.33
Si 11.16 -2.06  0.76
Si -9.30  5.32  3.86
Si  2.09 -4.95 10.08
Si  3.48 10.51  3.11
Si -3.48 -10.51 -3.11
Si -3.39 -10.32  3.86
Si -5.44  1.31 10.08
Si -5.49 -5.43 -8.57
Si  7.37 -2.30 -8.57
Si -7.41 -2.30 -8.57
Si -1.55 -11.44  0.76
Si  5.60 -5.43 -8.57
Si 11.00  2.01 -3.11
Si -11.00 -2.01  3.11
Si -3.67  4.43 10.08
Si  3.72  4.43 10.08
Si  3.45  6.02 -9.33
Si -3.45 -6.02  9.33
Si  5.64  1.31 10.08
Si  3.91 -10.51 -3.11
Si -3.91 10.51  3.11
Si -1.53 -9.20  6.97
Si  7.62 -8.26  3.11
Si -7.62  8.26 -3.11
Si  2.15 -11.44  0.76
Si -0.10 -0.29 -11.68
Si -7.15 -6.07  6.97
Si  9.09  7.32  0.76
Si  4.00 -10.32  3.86
Si  2.16 -9.20  6.97
Si  9.08  5.08 -5.46
Si 11.16 -2.01  3.11
Si -11.16  2.01 -3.11
Si -3.94  6.02 -9.33
Si  3.94 -6.02  9.33
Si  7.25  8.45  3.86
Si 11.01  4.20  0.76
Si -9.07 -2.94  6.97
Si -7.29  0.24  9.33
Si  7.29 -0.24 -9.33
Si  7.22  3.96 -8.57
Si  0.21 -10.56 -5.46
Si  1.54 11.39 -3.11
Si -1.54 -11.39  3.11
Si -9.38  7.32  0.76
Si -11.07  2.19  3.86
Si  3.64  6.49  9.33
Si -3.64 -6.49 -9.33
Si -11.15  4.20  0.76
Si 11.09  2.19  3.86
Si -7.53  8.45  3.86
Si  7.48  0.24  9.33
Si -7.48 -0.24 -9.33
Si  1.72  9.57  6.97
Si -3.75  6.49  9.33
Si  3.75 -6.49 -9.33
Si  7.63 -6.07  6.97
Si  7.33  6.44  6.97
Si -9.39  5.08 -5.46
Si  2.15 -11.39  3.11
Si -2.15 11.39 -3.11
Si -1.98  9.57  6.97
Si -0.31 10.27 -6.22
Si  0.31 -10.27  6.22
Si -9.22  3.31  6.97
Si  9.25  3.31  6.97
Si -7.45  6.44  6.97
Si  9.40 -2.94  6.97
Si -7.55  3.96 -8.57
Si  0.13 -8.55 -8.57
Si -9.09 -7.38 -3.11
Si  9.09  7.38  3.11
Si  1.67  2.84 -11.68
Si -9.00 -7.19  3.86
Si  7.16  8.21 -5.46
Si -2.02  2.84 -11.68
Si -11.02 -4.25 -3.11
Si 11.02  4.25  3.11
Si  3.60 -0.29 -11.68
Si -10.93 -4.07  3.86
Si -3.79 -0.29 -11.68
Si  1.82 -3.42 -11.68
Si  1.63 11.57  3.86
Si -1.87 -3.42 -11.68
Si  9.18  5.37  6.22
Si -9.18 -5.37 -6.22
Si  5.30  7.09 -8.57
Si  9.38 -7.38 -3.11
Si -9.38  7.38  3.11
Si 11.15 -4.25 -3.11
Si -11.15  4.25  3.11
Si -2.06 11.57  3.86
Si -3.48 -10.56 -5.46
Si  9.30 -5.37 -6.22
Si -9.30  5.37  6.22
Si -5.30 -4.95 10.08
Si 11.00  1.95 -5.46
Si -7.62  8.21 -5.46
Si  3.38 10.27 -6.22
Si -3.38 -10.27  6.22
Si  9.47 -7.19  3.86
Si  3.90 -10.56 -5.46
Si -0.30 12.51  0.00
Si  0.30 -12.51  0.00
Si -7.22 -1.82 10.08
Si -5.78  7.09 -8.57
Si  9.14  0.83 -8.57
Si -0.17  1.77 -12.44
Si  0.17 -1.77 12.44
Si 11.24 -4.07  3.86
Si -11.17  1.95 -5.46
Si -10.94 -6.26  0.00
Si 10.94  6.26  0.00
Si -5.24 -11.44  0.76
Si -3.56 -8.55 -8.57
Si -1.75  1.36 12.44
Si  1.75 -1.36 -12.44
Si  5.79 -4.95 10.08
Si -4.00 10.27 -6.22
Si  4.00 -10.27  6.22
Si -1.95 -1.36 -12.44
Si  1.95  1.36 12.44
Si -5.23 -9.20  6.97
Si  1.54 11.34 -5.46
Si -0.30 12.46 -2.35
Si -9.33  0.83 -8.57
Si  7.17 10.45  0.76
Si  3.82 -8.55 -8.57
Si  1.80  7.56 10.08
Si  7.56 -1.82 10.08
Si -1.90  7.56 10.08
Si -2.15 11.34 -5.46
Si 10.93  6.20 -2.35
Si  7.25  8.50  6.22
Si -7.25 -8.50 -6.22
Si  0.29 -12.57 -2.35
Si -10.94 -6.31 -2.35
Si -11.23  6.26  0.00
Si 11.23 -6.26  0.00
Si  5.84 -11.44  0.76
Si 11.07 -2.24 -6.22
Si -11.07  2.24  6.22
Si 11.10  2.24  6.22
Si -11.10 -2.24 -6.22
Si -5.24 -11.39  3.11
Si  5.24 11.39 -3.11
Si  0.32 -8.08 10.08
Si  7.52 -8.50 -6.22
Si -7.52  8.50  6.22
Si  5.85 -9.20  6.97
Si -7.61 10.45  0.76
Si -9.10 -7.43 -5.46
Si -3.40 -12.51  0.00
