500
set: 248.00  0.00  0.00
Si -0.03 -0.00  0.01
Si  0.00 -0.01 -2.21
Si  1.82  1.04  0.74
Si -1.82  1.05  0.72
Si  0.01 -2.11  0.76
Si  1.82 -3.12 -0.02
Si -1.81  1.05  2.95
Si  1.81 -1.04 -2.97
Si -1.80  3.15 -0.00
Si  1.82  3.15  0.01
Si  3.64  0.01 -0.02
Si -1.82 -3.15 -0.00
Si -1.83 -1.06 -2.96
Si  1.86  1.03  2.96
Si -0.01 -2.10  2.99
Si -3.65  0.00  0.03
Si  0.00  2.11 -3.00
Si  0.01  2.06  3.68
Si  0.04  4.16  0.74
Si  3.62  0.00 -2.22
Si -3.63 -2.09  0.71
Si  1.83  3.14 -2.23
Si -3.65  0.03 -2.21
Si -1.81 -3.18 -2.20
Si  1.83 -1.04  3.72
Si  1.82 -3.15 -2.25
Si -1.80  3.18 -2.22
Si  3.64 -2.12  0.78
Si -1.84 -1.07  3.73
Si -0.02  4.17  2.98
Si -0.03 -4.20 -2.97
Si -3.62  2.14 -2.96
Si -3.64 -2.10  2.98
Si  3.65 -2.08  3.00
Si  3.65  2.12 -2.99
Si  5.42  1.06  0.74
Si  0.00 -4.18  3.69
Si  1.79 -1.03 -5.19
Si  3.63  4.17  0.75
Si  3.65  2.10  3.67
Si  1.80 -5.25  0.75
Si -3.65  4.19  0.75
Si -1.81 -5.26  0.75
Si  0.00  2.11 -5.21
Si -3.66  2.12  3.71
Si -1.79 -1.04 -5.23
Si -5.48  1.06  0.74
Si  1.80  1.06 -5.89
Si -1.78  1.01 -5.91
Si -0.00  6.26 -0.02
Si -3.61 -4.17 -2.97
Si  5.43  3.14 -0.03
Si -5.44 -1.04 -2.96
Si  5.44  1.06  2.95
Si -1.80  5.25 -2.94
Si  3.65 -4.19 -2.94
Si  1.83 -1.03  5.93
Si -5.46  1.06  2.95
Si  3.67  4.15  2.98
Si -0.01 -6.30 -0.03
Si  0.01  2.11  5.93
Si  5.46 -1.04 -2.96
Si  1.80 -5.23  3.01
Si -5.46  3.14 -0.03
Si -0.01 -2.08 -5.95
Si -1.80 -1.04  5.95
Si  5.45 -3.18 -0.02
Si -5.45 -3.18 -0.02
Si  1.83  5.26 -2.97
Si -1.78 -5.29  2.98
Si -3.65  4.21  3.01
Si -0.01 -6.26 -2.21
Si -0.01 -0.01  6.65
Si  3.60 -4.19  3.70
Si -3.63 -4.19  3.69
Si  3.60  2.10 -5.20
Si  1.82  5.25  3.69
Si  5.44 -1.07  3.71
Si  5.44  3.17 -2.21
Si -0.01  6.29 -2.25
Si  5.44 -3.15 -2.25
Si -1.84  5.25  3.70
Si -5.46 -1.07  3.71
Si -3.63  2.10 -5.21
Si -0.01 -4.22 -5.19
Si -5.46 -3.15 -2.25
Si -5.46  3.17 -2.21
Si  0.00 -4.18  5.90
Si  7.24  0.00  0.03
Si -0.01  4.19 -5.91
Si -3.59 -2.12 -5.94
Si  3.62  2.09  5.93
Si  3.63  6.29 -0.00
Si -7.26  0.01 -0.02
Si -3.62 -6.29  0.01
Si  3.65 -6.28 -0.00
Si -3.64  2.10  5.93
Si  3.64 -2.10 -5.95
Si -3.63  6.31 -0.02
Si  3.64  6.26 -2.20
Si -3.62 -0.00  6.65
Si -1.84  5.22 -5.17
Si  3.65 -6.25 -2.22
Si -1.81  7.31  0.78
Si  7.25  0.03 -2.21
Si -3.62 -4.19 -5.18
Si -1.80 -3.11  6.67
Si  3.61 -4.22 -5.17
Si  7.26 -2.09  0.71
Si -5.41 -5.28  0.74
Si  1.83  5.25 -5.18
Si -3.62  6.29 -2.25
Si  1.83 -3.15  6.67
Si -3.62 -6.30 -2.23
Si  1.81  7.35  0.71
Si -7.26 -2.12  0.78
Si -1.83  3.15  6.68
Si -7.28  0.00 -2.22
Si -5.44 -1.08 -5.21
Si  3.64 -0.04  6.70
Si  1.80  3.18  6.69
Si  5.46 -1.08 -5.21
Si  5.49 -5.28  0.74
Si -1.80 -5.23 -5.90
Si  1.83 -7.30 -2.96
Si  5.43  1.02 -5.92
Si  5.42 -1.05  5.93
Si -3.62 -4.15  5.94
Si  5.42  5.24 -2.97
Si  3.65 -4.17  5.91
Si -1.80 -7.32 -2.99
Si  1.81 -5.25 -5.91
Si -3.64  4.19 -5.91
Si  3.65  4.21 -5.90
Si -7.25 -2.08  3.00
Si -1.80  5.26  5.91
Si -7.24  2.12 -2.99
Si -5.47  1.02 -5.92
Si  7.26 -2.10  2.98
Si  1.81  7.34  2.98
Si  5.43 -5.27  2.98
Si  7.28  2.14 -2.96
Si -5.48 -1.05  5.93
Si -5.48  5.24 -2.97
Si -1.80  7.36  3.00
Si -5.47 -5.27  2.98
Si  1.83  5.28  5.94
Si -7.24  2.10  3.67
Si -1.79 -7.33  3.67
Si  1.79 -7.32  3.71
Si  7.23  2.12  3.71
Si  7.25  4.19  0.75
Si -1.81  1.03 -8.15
Si -7.26  4.17  0.75
Si -0.03 -8.38  0.74
Si  1.80  1.04 -8.15
Si -0.03 -2.09 -8.15
Si -5.45  5.26  3.69
Si  5.45  5.26  3.69
Si -7.22  4.15  2.98
Si -7.25 -4.19 -2.94
Si -0.01 -8.37  2.95
Si -0.00 -0.03  8.88
Si  7.25  4.21  3.01
Si  7.28 -4.17 -2.97
Si  0.01  8.40 -2.96
Si -0.01 -0.01 -8.92
Si -0.01  8.37  3.71
Si  0.01  4.18 -8.14
Si  5.44  5.22 -5.19
Si  3.62 -8.38  0.72
Si -5.44  7.33  0.76
Si  9.07  1.05  0.72
Si  5.44 -3.12  6.69
Si -5.46  5.22 -5.19
Si  7.27 -4.19  3.69
Si  5.45  7.33  0.76
Si -9.08  1.04  0.74
Si -3.63 -8.39  0.74
Si -3.63 -2.10 -8.16
Si -1.84 -7.34 -5.20
Si -5.46 -3.12  6.69
Si  1.82 -7.34 -5.21
Si -5.45  3.14  6.69
Si  7.27  2.10 -5.21
Si  5.45  3.14  6.69
Si  0.00 -6.30  6.69
Si  3.62 -2.09 -8.18
Si -7.29 -4.19  3.70
Si -7.29  2.10 -5.20
Si -0.01  6.32  6.69
Si -9.04  1.03  2.96
Si  1.79 -3.14 -8.87
Si -3.63  0.02  8.88
Si -1.81  3.15  8.88
Si  5.44 -5.24 -5.91
Si -7.25 -6.28 -0.00
Si  3.62  8.38 -2.96
Si -5.45  5.25  5.90
Si -9.08 -3.12 -0.02
Si -5.46 -5.24 -5.91
Si -3.62 -0.00 -8.89
Si  5.45  5.25  5.90
Si  9.07 -1.06 -2.96
Si -1.80 -3.14  8.89
Si -1.81 -9.43 -0.02
Si -9.07  3.15  0.01
Si  1.81 -7.34  5.93
Si  1.79 -9.44  0.03
Si  7.26  2.10  5.93
Si  3.63 -0.01  8.89
Si  3.64 -8.39  2.95
Si -7.27  6.29 -0.00
Si -3.59 -8.41  2.96
Si  1.79  9.44  0.03
Si  1.86  7.32 -5.94
Si  9.09  1.05  2.95
Si -5.45 -7.33 -3.00
Si  9.08 -3.15 -0.00
Si  5.45 -7.33 -3.00
Si -1.82  3.14 -8.90
Si  5.44  7.34  2.99
Si -9.09 -1.04 -2.97
Si -1.81  9.45 -0.02
Si -7.28  2.09  5.93
Si  7.27 -6.29  0.01
Si -3.64  8.39 -2.97
Si -7.26 -2.10 -5.95
Si  3.65  0.01 -8.90
Si -1.81  7.34 -5.95
Si  1.82 -3.15  8.91
Si -5.46  7.34  2.99
Si -1.83 -7.35  5.93
Si  9.09  3.15 -0.00
Si -1.81 -3.14 -8.92
Si  7.27  6.31 -0.02
Si  1.79  3.15  8.93
Si  1.82  3.17 -8.92
Si  7.31 -2.12 -5.94
Si  3.64  4.17 -8.12
Si  1.80 -9.40 -2.21
Si -7.25 -6.25 -2.22
Si -7.26  6.26 -2.20
Si  1.81  1.06  9.61
Si  3.61  8.36  3.73
Si -5.41  1.01 -8.16
Si -1.81 -5.27 -8.12
Si  0.01  8.36 -5.21
Si  9.06 -1.07  3.73
Si -3.62  6.28  6.67
Si -9.07  3.14 -2.23
Si  7.27 -0.00  6.65
Si -9.07 -1.04  3.72
Si -3.65 -6.26  6.69
Si  7.28 -4.19 -5.18
Si  3.62 -6.29  6.68
Si -9.07 -3.15 -2.25
Si -1.83 -9.44 -2.22
Si  0.04 -2.13  9.63
Si -1.83  9.44 -2.22
Si -5.44 -7.37  3.68
Si -3.62  8.40  3.72
Si  7.27  6.29 -2.25
Si -7.26 -0.04  6.70
Si  7.28 -6.30 -2.23
Si  9.09 -3.18 -2.20
Si -7.29 -4.22 -5.17
Si  1.81 -5.24 -8.19
Si  5.46 -7.37  3.68
Si  5.49  1.01 -8.16
Si  9.10  3.18 -2.22
Si  1.80  9.47 -2.21
Si  3.65  6.33  6.67
Si -3.63  4.20 -8.19
Si -1.81  1.02  9.68
Si -7.24 -4.17  5.91
Si -7.25  4.21 -5.90
Si  7.26  4.19 -5.91
Si  7.28 -4.15  5.94
Si -0.03  8.39  5.93
Si -0.02 -8.41 -5.92
Si -5.45 -7.32 -5.21
Si  5.45 -7.32 -5.21
Si -0.03  4.21  9.64
Si -0.03 10.50  0.74
Si -3.65 -2.10  9.64
Si  9.08 -5.26  0.75
Si  3.63 -2.12  9.65
Si -9.10 -5.25  0.75
Si -9.11 -1.03 -5.19
Si -3.66  8.41 -5.19
Si  3.65  8.40 -5.23
Si  9.10 -1.04 -5.23
Si 10.87 -0.00  0.01
Si -3.65 -8.38 -5.89
Si  5.43 -3.15  8.87
Si -0.01  6.29  8.87
Si -9.06 -1.03  5.93
Si  5.42 -3.15 -8.89
Si  5.42  9.44  0.01
Si -5.46 -3.15  8.87
Si  5.42 -9.44  0.01
Si -5.44 -7.33  5.93
Si  0.01 -10.48 -2.96
Si -9.10  1.06 -5.89
Si  5.42  3.14  8.90
Si -0.03  6.29 -8.89
Si -9.06  5.26 -2.97
Si  5.46 -7.33  5.93
Si  5.45  3.12 -8.91
Si -5.45  3.12 -8.91
Si -0.03 -6.29  8.90
Si -3.61  8.41  5.93
Si  9.10  5.25 -2.94
Si -5.48 -3.15 -8.89
Si -0.01 10.50  2.95
Si -5.48  9.44  0.01
Si  5.44  7.36 -5.95
Si -5.48 -9.44  0.01
Si -5.48  3.14  8.90
Si  9.12  1.01 -5.91
Si  3.65  8.39  5.95
Si -9.10 -5.23  3.01
Si  9.10 -1.04  5.95
Si -5.46  7.36 -5.95
Si -10.93 -0.00  0.01
Si -0.00 -6.32 -8.91
Si  3.67 -8.43 -5.91
Si  9.12 -5.29  2.98
Si -1.82 -5.24  9.62
Si  9.05  5.25  3.70
Si  3.62  4.20  9.62
Si -0.01  0.03 -11.11
Si -5.45  9.43 -2.21
Si -5.44 -5.25 -8.14
Si  5.45  9.43 -2.21
Si -10.89 -0.01 -2.21
Si -9.08  5.25  3.69
Si -3.63  4.19  9.64
Si -3.63 10.48  0.74
Si  5.45 -5.25 -8.14
Si -10.89 -2.11  0.76
Si 10.90 -0.01 -2.21
Si -5.45 -9.44 -2.21
Si -7.27 -8.38  0.72
Si  1.82 -5.25  9.64
Si  1.82  7.34 -8.16
Si  3.62 10.49  0.72
Si  5.45 -9.44 -2.21
Si  7.27 -8.39  0.74
Si  7.27 -2.10 -8.16
Si 10.90 -2.11  0.76
Si -5.44  1.04  9.65
Si  5.45  1.04  9.65
Si -0.01 -10.51  3.71
Si -7.27 -2.09 -8.18
Si -1.82  7.35 -8.18
Si -3.59 10.47  2.96
Si  3.64 -6.28  8.88
Si -3.65  6.29 -8.87
Si  7.27  0.02  8.88
Si -7.26 -8.39  2.95
Si -7.25  0.01 -8.90
Si  3.64 10.49  2.95
Si -7.27 -0.01  8.89
Si -3.64 -10.48 -2.97
Si -7.28  8.38 -2.96
Si  7.27 -0.00 -8.89
Si 10.89 -2.10  2.99
Si  7.26  8.39 -2.97
Si -3.63 -6.27 -8.92
Si -3.62  6.29  8.91
Si  3.65  6.30  8.89
Si  3.63 -6.30 -8.90
Si  3.62 -10.50 -2.96
Si -10.89  2.11 -3.00
Si -10.90 -2.10  2.99
Si 10.90  2.11 -3.00
Si  3.64  6.30 -8.92
Si -3.65 -6.29  8.93
Si  7.31 -8.41  2.96
Si -10.86  4.16  0.74
Si -7.26  4.17 -8.12
Si  9.06  5.22 -5.17
Si -1.81  3.11 -11.10
Si  1.80 -3.11 -11.10
Si -10.88  2.06  3.68
Si  7.25 -6.26  6.69
Si -1.81  9.40  6.70
Si  1.82  9.44  6.65
Si  1.82 -9.44  6.65
Si  1.81 -11.53  0.71
Si  9.09  7.31  0.78
Si -9.07  5.25 -5.18
Si -9.07 -3.15  6.67
Si -3.62 -10.48  3.72
Si  9.07  3.15  6.68
Si -1.83 -3.14 -11.12
Si 10.91  2.06  3.68
Si  7.28  6.28  6.67
Si -3.62 -0.01 -11.13
Si -7.29  8.36  3.73
Si  9.10 -3.11  6.67
Si  3.65  0.04 -11.12
Si -9.08  7.35  0.71
Si -7.28 -6.29  6.68
Si -7.25  6.33  6.67
Si  7.28  8.40  3.72
Si  3.61 -10.51  3.73
Si  1.82  3.15 -11.15
Si 10.94  4.16  0.74
Si  7.26  4.20 -8.19
Si -1.81 -11.56  0.78
Si  0.04 -8.43 -8.16
Si -9.10  3.18  6.69
Si  0.01 -10.52 -5.21
Si -1.81 -9.47  6.70
Si -9.07 -7.30 -2.96
Si -0.02 10.46 -5.92
Si 10.87 -4.20 -2.97
Si 10.88  4.17  2.98
Si  1.83 -1.01 -11.86
Si  9.10 -5.23 -5.90
Si -1.80 -11.52  3.00
Si -9.09 -5.25 -5.91
Si -0.03 -10.49  5.93
Si -0.03  2.10 -11.87
Si  1.81 -11.54  2.98
Si  9.10 -7.32 -2.99
Si -9.09  7.34  2.98
Si -10.92  4.17  2.98
Si -9.07  5.28  5.94
Si  9.10  5.26  5.91
Si -1.80 -1.03 -11.88
Si  1.81  1.05 11.88
Si -0.02 -2.12 11.88
Si -1.80 11.56 -2.99
Si -10.93 -4.20 -2.97
Si  9.10  7.36  3.00
Si -1.80  1.06 11.90
Si  1.83 11.58 -2.96
Si  5.42 -5.23  9.64
Si -10.89 -4.18  3.69
Si 10.90 -4.18  3.69
Si -1.79 11.54  3.67
Si  5.42  7.35 -8.15
Si -3.66 -10.47 -5.19
Si  9.08  1.03 -8.15
Si  7.23  8.41 -5.19
Si  7.25 -2.10  9.64
Si -1.81  7.32  9.65
Si  9.10 -7.33  3.67
Si  1.80  7.34  9.64
Si -3.65 -8.39 -8.15
Si  3.63 -8.41 -8.15
Si -9.10  1.04 -8.15
Si -7.26 -2.12  9.65
Si -10.89  2.11 -5.21
Si -7.24  8.40 -5.23
Si -5.48 -5.23  9.64
Si -9.11 -7.32  3.71
Si  1.79 11.55  3.71
Si 10.90  2.11 -5.21
Si  3.65 -10.48 -5.23
Si -5.48  7.35 -8.15
Si  7.25 -8.38 -5.89
Si  3.67 10.44 -5.91
Si -3.61 -10.46  5.93
Si 10.90  6.26 -0.02
Si -10.90  6.26 -0.02
Si  3.65  2.10 -11.84
Si -0.01  4.21 11.85
Si 10.88 -6.30 -0.03
Si -3.65 10.50 -5.89
Si -10.89  2.11  5.93
Si  0.01 -4.18 -11.86
Si -0.01 12.58 -0.03
Si -7.22 -8.43 -5.91
Si 10.89 -2.08 -5.95
Si -3.61  2.12 -11.87
Si -7.25  8.39  5.95
Si  3.65 -10.48  5.95
Si -10.91 -2.08 -5.95
Si 10.91  2.11  5.93
Si -10.91 -6.30 -0.03
Si  7.28  8.41  5.93
Si -0.00 -12.62 -0.02
Si  3.67 -2.14 11.88
Si -3.65 -2.09 11.91
Si 10.88 -6.26 -2.21
Si  5.44  9.43  6.65
Si 10.89 -0.01  6.65
Si  9.05 -7.34 -5.20
Si  0.00  6.29 -11.11
Si -5.45 -3.15 -11.11
Si  1.82 -1.05 12.59
Si -5.46  9.43  6.65
Si  5.44 -9.44  6.65
Si  5.45 -3.15 -11.11
Si -7.27  4.20  9.62
