500
set: 803.00  0.00  0.00
Si -0.49  1.12 -0.77
Si  0.54 -1.14  0.81
Si -1.30 -1.19 -0.82
Si  1.39  1.31  0.89
Si -0.94 -0.02  2.48
Si  0.92 -0.06 -2.52
Si  2.29 -1.25 -0.96
Si -2.31  1.28  0.91
Si -3.14 -1.17  0.84
Si  3.14  1.18 -0.88
Si -0.01  2.46  2.57
Si  0.02 -2.48 -2.57
Si  0.47  3.56 -0.90
Si -2.73 -0.04 -2.55
Si  2.77  0.05  2.53
Si -0.49 -3.68  0.84
Si -1.74  2.42 -2.44
Si -1.78 -2.39  2.44
Si  1.76 -2.35  2.52
Si  1.86  2.37 -2.56
Si  1.29 -3.68 -0.86
Si -1.34  3.68  0.81
Si  4.03 -1.19  0.84
Si  0.91 -0.01  4.21
Si -0.92  0.02 -4.22
Si -4.06  1.30 -0.81
Si  2.33  3.67  0.81
Si -2.37 -3.67 -0.85
Si  3.07 -3.67  0.83
Si -0.02 -2.47  4.21
Si -0.02  2.48 -4.20
Si -3.14  3.65 -0.92
Si -2.74  0.05  4.22
Si -3.65 -2.40 -2.50
Si -3.64  2.38  2.59
Si  3.67 -2.43 -2.52
Si  2.73  0.04 -4.29
Si  3.67  2.53  2.54
Si  4.50 -0.07 -2.55
Si  1.84  2.35  4.23
Si  1.83 -2.43 -4.20
Si -1.83 -2.44 -4.19
Si  4.97  1.27  0.80
Si -1.79  2.46  4.28
Si -5.06 -1.17 -0.83
Si -4.61 -0.11  2.55
Si -4.04 -3.49  0.85
Si  4.08  3.54 -0.88
Si  0.92  4.87  2.52
Si  0.84 -4.90  2.50
Si -0.98 -4.91 -2.53
Si -0.90  4.92 -2.58
Si -3.57 -2.36  4.22
Si  5.85 -1.15 -0.83
Si -2.75  4.72  2.52
Si -3.58  2.48 -4.21
Si  0.45 -1.23 -5.92
Si  2.74  4.80 -2.53
Si -0.43  1.28  5.95
Si -5.91  1.21  0.89
Si  3.66 -2.39  4.29
Si -1.32 -1.18  5.86
Si -2.80 -4.84  2.52
Si  2.73 -4.92 -2.52
Si  1.31  1.27 -5.90
Si  3.67  2.57 -4.26
Si -4.92  3.64  0.90
Si  4.55  0.04  4.20
Si  4.97 -3.62 -0.85
Si  0.35 -6.17 -0.88
Si -1.39 -6.04  0.81
Si  1.36  6.04 -0.85
Si -4.58  0.06 -4.27
Si -0.32  6.22  0.85
Si -2.27  1.18 -5.87
Si  0.89 -4.82 -4.19
Si  5.43 -2.38  2.55
Si -2.20  6.02 -0.78
Si -5.43  2.38 -2.57
Si  2.23 -1.19  5.96
Si  5.46  2.40 -2.55
Si -5.44 -2.53  2.51
Si -0.96 -4.88  4.23
Si  1.00  4.88 -4.25
Si -0.92  4.91  4.25
Si  2.27 -6.13  0.77
Si  6.38  0.04  2.50
Si  3.20  1.14  5.98
Si -3.17 -1.24 -5.99
Si  3.23  6.03  0.84
Si -6.40 -0.03 -2.58
Si -0.47 -3.67 -5.86
Si  2.69 -4.79  4.24
Si  2.76  4.83  4.23
Si -2.72 -4.83 -4.25
Si -6.83 -1.22  0.84
Si  6.84  1.18 -0.87
Si  0.56  3.66  5.94
Si -2.65  4.83 -4.32
Si -3.25 -6.14 -0.90
Si  5.99  3.58  0.77
Si -5.92 -3.69 -0.78
Si  4.47 -4.84  2.58
Si  4.57  4.81  2.50
Si -1.28  3.60 -6.01
Si  1.29 -3.69  5.97
Si -4.47  4.93 -2.59
Si -4.62 -4.79 -2.58
Si -4.06  1.19  5.92
Si  4.05 -1.20 -5.93
Si -5.46 -2.37 -4.21
Si  5.47 -2.38 -4.22
Si -5.47  2.37  4.25
Si  2.30  3.63 -5.94
Si -2.36 -3.65  5.92
Si  4.02 -6.11 -0.84
Si -4.05  6.10  0.92
Si  5.49  2.46  4.29
Si -0.05 -7.18  2.54
Si -6.36 -0.07  4.26
Si -3.20  3.61  5.94
Si  3.23 -3.65 -5.94
Si  6.39 -0.03 -4.27
Si  6.76 -3.61  0.92
Si -6.79  3.60 -0.84
Si  0.07  7.32 -2.50
Si  0.44 -1.23  7.62
Si -0.50  1.21 -7.64
Si -1.71  7.18  2.51
Si -7.69  1.18 -0.87
Si -1.30 -1.20 -7.62
Si  7.69 -1.22  0.84
Si -4.55  4.79  4.25
Si  5.00  1.28 -5.93
Si  4.56 -4.83 -4.21
Si -5.01 -1.25  5.96
Si  5.02  6.03 -0.86
Si -4.64 -4.80  4.25
Si  1.40  1.18  7.70
Si -5.07 -6.03  0.81
Si  4.61  4.89 -4.19
Si  1.74 -7.31 -2.55
Si  1.95  7.32  2.44
Si -1.86 -7.34 -2.56
Si  7.25 -2.46 -2.45
Si  4.10  3.58  5.93
Si  2.23 -1.27 -7.64
Si -7.28 -2.46 -2.45
Si -4.13 -3.67 -5.89
Si -7.26  2.45  2.57
Si -2.26  1.19  7.68
Si  7.27  2.45  2.57
Si -3.14 -1.26  7.55
Si  3.15  1.17 -7.59
Si -0.06 -7.14 -4.26
Si  6.34 -4.78 -2.59
Si -6.33  4.87  2.58
Si  6.46  4.79 -2.52
Si  5.85 -1.28  5.94
Si -3.56  7.25 -2.45
Si -0.40  6.05 -5.89
Si  0.15  7.35  4.22
Si  3.55 -7.26  2.57
Si -5.84  6.09 -0.85
Si -5.91  1.29 -5.94
Si -0.55 -3.59  7.67
Si -1.30  3.61  7.58
Si  5.88 -6.07  0.90
Si -4.96  3.60 -5.91
Si  8.12 -0.03 -2.58
Si -8.15  0.04  2.50
Si  0.37 -6.13  5.93
Si  3.75  7.23 -2.57
Si -6.47 -4.99  2.52
Si -3.73 -7.25  2.57
Si  1.34 -3.71 -7.58
Si  0.54  3.68 -7.71
Si  5.00 -3.67  5.90
Si  1.24 -8.44  0.80
Si  1.36  6.06  5.92
Si  7.74  3.60 -0.84
Si -0.58 -8.53 -0.88
Si  1.89  7.27 -4.19
Si  0.58  8.54  0.84
Si  1.77 -7.25  4.29
Si -7.77 -3.61  0.92
Si -1.42 -6.08 -5.94
Si -1.74  7.34 -4.21
Si -1.34  8.54 -0.83
Si -1.89 -7.36  4.23
Si -7.25  2.47 -4.18
Si -2.29 -3.58 -7.62
Si -4.06  1.27 -7.62
Si -7.26 -2.45  4.22
Si  8.62  1.21  0.89
Si  7.27 -2.45  4.22
Si  7.28  2.47 -4.18
Si  4.06 -1.28  7.65
Si -2.33 -8.40  0.89
Si  2.31  3.62  7.65
Si -8.68 -1.15 -0.83
Si  2.19 -6.13 -5.92
Si -2.20  6.13  5.94
Si  2.42  8.52 -0.82
Si -6.24  4.88 -4.21
Si -3.15  3.60 -7.61
Si  3.14 -3.58  7.64
Si  3.25  6.04 -5.86
Si  6.25 -4.92  4.25
Si -3.16 -6.05  5.94
Si  3.56 -7.24 -4.18
Si -3.11  8.50  0.84
Si  5.92  3.58 -5.92
Si -3.54  7.26  4.22
Si -6.38 -4.88 -4.32
Si -5.92 -3.58  5.94
Si  6.41  4.92  4.24
Si  6.85  1.13  5.92
Si  6.79  6.04  0.83
Si  3.12 -8.54 -0.87
Si  3.70  7.24  4.21
Si -3.74 -7.23 -4.20
Si -6.87 -1.27 -5.97
Si -8.14 -0.03 -4.27
Si -6.86 -6.06 -0.92
Si  8.17 -0.07  4.26
Si -5.07 -1.24 -7.62
Si  5.09  1.21  7.63
Si -8.54  3.58  0.77
Si -0.86  0.02  9.31
Si  4.02 -6.05  5.93
Si  4.09  3.67 -7.61
Si  0.90 -0.02 -9.34
Si  8.61 -3.69 -0.78
Si -4.05  6.07 -5.94
Si -5.46 -7.29 -2.44
Si  5.37 -7.33 -2.57
Si -5.38  7.33  2.55
Si -4.13 -3.68  7.70
Si  5.48  7.36  2.52
Si  9.47 -1.17 -0.83
Si -4.21 -8.59 -0.77
Si  4.27  8.57  0.81
Si -0.03 -2.50 -9.34
Si -9.56  1.27  0.80
Si  0.03  2.41  9.38
Si  6.75 -3.64 -5.94
Si  5.88 -1.19 -7.64
Si -8.07  4.79 -2.52
Si -9.07  2.40 -2.55
Si -6.79  3.66  5.93
Si  0.36 -6.04 -7.61
Si -5.91  1.22  7.62
Si -2.78  0.06 -9.32
Si  9.10  2.38 -2.57
Si -9.10 -2.38  2.55
Si  1.81 -2.29  9.31
Si -7.68  1.13  5.92
Si  9.09 -2.53  2.51
Si  2.75  0.04  9.37
Si -5.00  3.58  7.60
Si -0.41  6.03  7.70
Si  7.66 -1.27 -5.97
Si  8.06 -4.99  2.52
Si  7.67 -6.06 -0.92
Si -1.71  2.50 -9.35
Si -8.19 -4.78 -2.59
Si  1.83  2.39 -9.36
Si -1.88 -2.38  9.37
Si -7.74  6.04  0.83
Si  4.90 -8.50  0.89
Si  5.01  6.02  5.97
Si  4.99 -3.72 -7.65
Si  8.20  4.87  2.58
Si -1.41 -6.09  7.65
Si  1.43  6.13 -7.62
Si -4.96  8.56 -0.83
Si -5.01 -6.11 -6.01
Si -0.89  9.60  2.55
Si  2.19 -6.06  7.64
Si -2.20  6.04 -7.65
Si -5.33  7.33 -4.22
Si  5.33 -7.34  4.25
Si -0.96 -9.66  2.53
Si  0.99  9.67 -2.55
Si -5.52 -7.25  4.28
Si  5.55  7.28 -4.20
Si  0.77 -9.78 -2.55
Si  3.63 -2.39 -9.28
Si  9.92 -0.11  2.55
Si -5.81  6.04  5.90
Si -9.56 -3.62 -0.85
Si -3.66 -2.39 -9.29
Si  9.07 -2.37 -4.21
Si -9.06 -2.38 -4.22
Si  9.06  2.37  4.25
Si -3.19 -6.03 -7.71
Si -4.51 -0.02  9.25
Si -9.04  2.46  4.29
Si  9.61  3.64  0.90
Si  3.17  6.12  7.67
Si  5.84 -6.11 -5.91
Si  5.91  3.65  7.64
Si -3.60  2.49  9.36
Si -6.82 -1.26  7.66
Si  2.65 -9.68  2.50
Si -5.93 -3.67 -7.65
Si  6.86  1.19 -7.66
Si -10.04 -0.07 -2.55
Si  3.69  2.42  9.37
Si -2.68  9.68 -2.58
Si  4.55  0.07 -9.33
Si  2.78  9.69  2.48
Si  1.28 -8.43 -5.93
Si  0.56  8.47 -5.99
Si -8.12  4.92  4.24
Si -6.04 -8.43  0.91
Si  7.74  3.66  5.93
Si  6.01  8.46 -0.96
Si -1.29  8.46  5.96
Si  8.15 -4.88 -4.32
Si -7.78 -3.64 -5.94
Si -0.52 -8.57  5.98
Si -2.81 -9.77 -2.52
Si  0.87 -4.82  9.28
Si  8.29  4.88 -4.21
Si -7.14  7.28 -2.52
Si -8.27 -4.92  4.25
Si  8.62  1.29 -5.94
Si  3.99 -6.13 -7.63
Si  7.16 -7.33  2.59
Si  0.83 -9.67  4.20
Si -2.42 -8.44 -5.90
Si 10.47  1.30 -0.81
Si  0.95  4.87  9.35
Si -8.68 -1.28  5.94
Si -10.49 -1.19  0.84
Si -0.88  4.91 -9.35
Si -0.96 -4.87 -9.36
Si -4.05  6.14  7.63
Si -8.65 -6.07  0.90
Si -0.99 -9.67 -4.29
Si  2.40  8.53  5.86
Si  8.69  6.09 -0.85
Si  7.39  7.28 -2.52
Si  0.99  9.76  4.22
Si -0.85  9.77 -4.27
Si -7.37 -7.33  2.59
Si  6.76 -3.57  7.63
Si -3.14  8.44 -5.97
Si  6.75 -8.41 -0.81
Si -9.98  0.04  4.20
Si  9.95  0.06 -4.27
Si -6.82  3.58 -7.63
Si -2.71  4.91  9.29
Si  2.69 -4.81 -9.37
Si -2.63  9.64  4.26
Si  3.13 -8.58  5.92
Si -2.77 -4.84  9.35
Si  2.77  4.84 -9.36
Si -7.67  1.19 -7.66
Si  5.06  6.00 -7.58
Si -6.77  8.52  0.84
Si  0.31 -10.90  0.84
Si  7.71 -1.26  7.66
Si -5.02 -6.10  7.58
Si  2.67 -9.74 -4.27
Si -2.82 -9.72  4.21
Si  2.81  9.73 -4.22
Si  6.95  6.06 -5.94
Si -6.93 -6.10  5.94
Si -4.43  9.75  2.50
Si  4.64  9.65 -2.52
Si  4.40 -9.74 -2.58
Si -8.61  3.58 -5.92
Si -0.34 11.01 -0.81
Si  7.22 -7.23 -4.21
Si  8.61 -3.58  5.94
Si -5.40  2.41 -9.35
Si -4.67 -9.73  2.48
Si -10.45  3.54 -0.88
Si  5.52  2.47 -9.28
Si  0.88 -0.06 11.04
Si -5.44 -2.38  9.36
Si -0.94  0.02 -11.04
Si 10.49 -3.49  0.85
Si -7.15  7.32  4.29
Si -1.43 -10.96 -0.96
Si  2.12 -10.86 -0.83
Si  5.42 -2.38  9.39
Si -7.30 -7.23 -4.21
Si  1.41 10.99  0.91
Si -4.15 -8.43  5.95
Si  4.17  8.48 -5.92
Si -2.19 10.92  0.89
Si  7.38  7.32  4.29
Si  9.46 -6.03  0.81
Si  0.01 -2.48 11.01
Si -9.53  1.28 -5.93
Si -9.51  6.03 -0.86
Si  9.91 -4.79 -2.58
Si  9.52 -1.25  5.96
Si -6.41 -0.06 -9.32
Si -5.82  5.99 -7.65
Si -2.76  0.06 10.99
Si  3.23 10.83 -0.77
Si -3.18 -10.85  0.81
Si -9.96  4.81  2.50
Si  0.58  8.45  7.55
Si  6.43  0.03  9.36
Si  5.80 -6.13  7.60
Si -7.58  6.06 -5.94
Si -4.50  4.79 -9.30
Si  2.70 -0.04 -11.07
Si  0.08  2.47 -11.12
Si  1.89  2.37 11.00
Si  4.89 -8.42 -5.94
Si -1.88 -2.39 -11.00
Si -10.86 -2.43 -2.52
Si  1.81 -2.33 -11.03
Si  7.60 -6.10  5.94
Si 10.88 -2.40 -2.50
Si  7.71  3.58 -7.63
Si -10.86  2.53  2.54
Si  4.53 -4.88  9.29
Si 10.89  2.38  2.59
Si -4.96  8.43  5.94
Si -0.58 -8.54 -7.59
Si  4.59  4.89  9.28
Si -10.06 -4.84  2.58
Si -7.77 -3.57  7.63
Si -4.60 -4.80 -9.35
Si -4.42  9.68 -4.27
Si 11.39 -1.17  0.84
Si -1.34  8.47 -7.62
Si -1.79  2.46 11.07
Si -11.39  1.18 -0.88
Si -7.78 -8.41 -0.81
Si 10.06  4.93 -2.59
Si  1.37 -8.51  7.63
Si  4.63  9.70  4.21
Si -4.64 -9.69 -4.22
Si  7.76  8.52  0.84
Si  4.45 -9.78  4.26
Si  8.62  1.22  7.62
Si -8.65 -1.19 -7.64
Si -3.96 10.89 -0.87
Si  3.97 -10.93  0.84
Si  2.42  8.52 -7.62
Si -2.33 -8.53  7.70
Si  9.89 -4.80  4.25
Si -6.31  9.64 -2.55
Si -9.53 -3.67  5.90
Si  9.57  3.60 -5.91
Si -3.10  8.45  7.66
Si -9.92  4.89 -4.19
Si  0.07  7.32 -9.29
Si -9.97 -4.83 -4.21
Si  3.60 -2.46 11.02
Si -3.58  2.33 -11.06
Si  9.98  4.79  4.25
Si -0.03 -7.29  9.37
Si  3.13 -8.52 -7.66
Si  6.20 -9.82  2.55
Si  9.07 -7.29 -2.44
Si  3.62  2.51 -11.05
Si  1.79 -7.25 -9.28
Si -10.87 -2.39  4.29
Si -6.87 -6.11 -7.61
Si -9.05  7.36  2.52
Si -10.86  2.57 -4.26
Si -3.59 -2.44 11.13
Si -5.99 -8.53 -5.87
Si  6.87  6.13  7.64
Si  4.60 -0.07 11.05
Si -4.61 -0.13 -11.04
Si -6.46 -9.75 -2.55
Si 10.96 -2.36  4.22
Si  5.95  8.52  5.96
Si 10.95  2.48 -4.21
Si  6.49  9.76  2.53
Si 11.39  3.65 -0.92
Si  9.15  7.33  2.55
Si  8.49 -8.43  0.91
Si -9.16 -7.33 -2.57
Si -1.72  7.33  9.36
Si  7.19 -2.48 -9.31
Si -11.76  0.05  2.53
Si -1.89 -7.32 -9.36
Si -5.03 -10.90 -0.82
Si  1.85  7.33  9.37
Si -8.52  8.46 -0.96
Si -7.19  2.47  9.35
Si -0.87  4.81 11.02
Si -11.46 -3.67  0.83
Si 11.80 -0.04 -2.55
Si  0.90 -4.80 -11.04
Si -8.62  3.65  7.64
Si  8.60 -3.67 -7.65
Si 10.46  1.19  5.92
