500
set: 291.00  0.00  0.00
Si  0.03  0.03 -0.00
Si -0.06 -2.17  0.81
Si -1.88  1.10  0.79
Si -0.03  0.03 -2.36
Si  1.97  1.15  0.77
Si  1.80 -3.35 -0.00
Si -1.87  1.11  3.14
Si -1.97 -3.29 -0.01
Si -0.01  2.28 -3.11
Si -3.85 -0.01  0.01
Si  2.02  1.09  3.10
Si -0.00 -2.16  3.20
Si  3.88 -0.01  0.01
Si -1.88 -1.15 -3.21
Si  1.92  3.38 -0.01
Si  1.96 -1.13 -3.17
Si -2.04  3.32 -0.00
Si -3.80 -0.10 -2.33
Si  3.79 -2.23  0.77
Si  1.89 -3.32 -2.35
Si -0.05  4.45  0.77
Si  1.96 -1.12  3.90
Si  0.10  2.14  3.98
Si  1.96  3.31 -2.40
Si -1.94 -1.08  3.96
Si -1.95  3.36 -2.35
Si -1.94 -3.36 -2.40
Si  3.93 -0.10 -2.33
Si -3.94 -2.23  0.77
Si  3.85  2.14 -3.13
Si  0.02  4.38  3.18
Si -3.87  2.14 -3.13
Si  3.86 -2.30  3.18
Si -3.87 -2.30  3.18
Si -0.03 -4.53 -3.13
Si -1.93 -5.52  0.77
Si -0.02 -4.41  3.95
Si -5.76  1.15  0.77
Si -0.07  2.27 -5.50
Si  1.96 -5.57  0.79
Si  1.95 -1.14 -5.52
Si -1.93 -1.08 -5.54
Si  3.83  4.51  0.81
Si -3.86  2.26  3.95
Si  3.87  2.26  3.95
Si  5.85  1.10  0.79
Si -3.90  4.51  0.81
Si  5.69  3.32 -0.00
Si -5.71  1.09  3.10
Si  3.83 -4.40 -3.11
Si  5.76 -3.29 -0.01
Si -3.90 -4.40 -3.11
Si  1.80  1.08 -6.31
Si -1.87 -5.58  3.10
Si -1.88  5.55 -3.17
Si  0.04  6.67  0.01
Si  1.93 -1.05  6.30
Si -5.77 -1.13 -3.17
Si  1.97 -5.56  3.14
Si -0.01 -6.69  0.01
Si -0.02 -2.25 -6.30
Si  0.04  2.23  6.32
Si  2.01  5.53 -3.21
Si -2.03 -1.12  6.31
Si -1.97  1.14 -6.32
Si -5.81  3.38 -0.01
Si -3.84  4.52  3.20
Si  5.86  1.11  3.14
Si  3.89  4.52  3.20
Si  5.85 -1.15 -3.21
Si -5.93 -3.35 -0.00
Si  0.09  6.57 -2.33
Si -1.88  5.55  3.90
Si -5.77 -1.12  3.90
Si  3.78  2.21 -5.54
Si -5.78  3.31 -2.40
Si -0.04  0.01  7.08
Si  5.78  3.36 -2.35
Si  5.79 -1.08  3.96
Si -0.11 -4.47 -5.54
Si -5.84 -3.32 -2.35
Si  5.79 -3.36 -2.40
Si  1.95  5.59  3.96
Si -3.79 -4.54  3.98
Si -3.95  2.21 -5.54
Si  0.04 -6.78 -2.33
Si  3.94 -4.54  3.98
Si -3.86 -6.65 -0.00
Si  3.87 -6.65 -0.00
Si  0.04 -4.41  6.31
Si -7.70  0.03 -0.00
Si -3.80  2.27  6.31
Si -3.81  6.71 -0.00
Si  3.86 -2.21 -6.31
Si -3.87 -2.21 -6.31
Si  0.02  4.47 -6.31
Si  7.76  0.03 -0.00
Si  3.92  6.71 -0.00
Si  3.93  2.27  6.31
Si  3.77 -4.41 -5.50
Si  7.67 -2.17  0.81
Si  3.81 -6.65 -2.36
Si  1.97 -3.28  7.08
Si -1.89  5.54 -5.52
Si  5.80 -5.52  0.77
Si  7.70  0.03 -2.36
Si -5.77 -5.57  0.79
Si -1.88 -3.33  7.10
Si -1.87  3.39  7.08
Si -3.92 -6.65 -2.36
Si  2.01  7.78  0.79
Si -5.78 -1.14 -5.52
Si -3.96 -4.41 -5.50
Si  3.86  6.70 -2.36
Si -1.88  7.83  0.77
Si  3.84  0.07  7.12
Si -3.87  6.70 -2.36
Si  5.80 -1.08 -5.54
Si  2.02  3.34  7.10
Si -7.76  0.03 -2.36
Si  1.96  5.59 -5.54
Si -3.89  0.07  7.12
Si -7.79 -2.17  0.81
Si -1.82  7.77  3.10
Si  5.70 -1.12  6.31
Si -5.72  5.53 -3.21
Si -5.76 -5.56  3.14
Si  1.87 -5.53 -6.32
Si  1.86  5.56  6.31
Si -3.86  4.43 -6.30
Si  3.87  4.43 -6.30
Si  5.76  1.14 -6.32
Si -5.80 -1.05  6.30
Si  7.72  2.28 -3.11
Si -3.85 -4.45  6.32
Si  2.02  7.79  3.14
Si -1.93 -7.80 -3.17
Si  7.73 -2.16  3.20
Si -7.73 -2.16  3.20
Si -7.74  2.28 -3.11
Si  3.88 -4.45  6.32
Si -1.91  5.62  6.30
Si  5.86 -5.58  3.10
Si  5.85  5.55 -3.17
Si  1.96 -7.82 -3.21
Si -2.09 -5.59 -6.31
Si -5.93  1.08 -6.31
Si -7.63  2.14  3.98
Si  7.68  4.45  0.77
Si  1.90 -7.76  3.96
Si -1.93 -7.80  3.90
Si  1.88  1.12 -8.66
Si -0.10 -8.91  0.77
Si  0.04 -2.34 -8.64
Si  5.85  5.55  3.90
Si -5.78  5.59  3.96
Si -1.94  1.07 -8.71
Si -7.78  4.45  0.77
Si  7.83  2.14  3.98
Si  0.01  8.82 -3.13
Si -7.71  4.38  3.18
Si -0.04 -0.10 -9.44
Si  7.75  4.38  3.18
Si  7.70 -4.53 -3.13
Si  0.03 -0.06  9.49
Si -0.03 -8.97  3.18
Si -7.76 -4.53 -3.13
Si  3.78 -8.85  0.81
Si -5.72  7.78  0.79
Si -5.76 -3.28  7.08
Si  7.66  2.27 -5.50
Si -5.71  3.34  7.10
Si -9.61  1.10  0.79
Si -0.05 -6.61  7.12
Si  3.80 -2.21 -8.67
Si  7.71 -4.41  3.95
Si -3.95 -8.85  0.81
Si  1.91 -7.76 -5.54
Si -0.04  4.46 -8.67
Si -7.75 -4.41  3.95
Si -1.94 -7.81 -5.52
Si -5.77  5.59 -5.54
Si  5.84  5.54 -5.52
Si -3.93 -2.21 -8.67
Si  0.03  8.94  3.95
Si  5.86 -3.33  7.10
Si  9.70  1.15  0.77
Si  5.86  3.39  7.08
Si -7.79  2.27 -5.50
Si  5.86  7.83  0.77
Si -0.00  6.75  7.12
Si  9.53 -3.35 -0.00
Si  1.87 -9.97 -0.01
Si  5.64 -5.59 -6.31
Si -1.82  3.33  9.41
Si  3.84 -8.83  3.20
Si -5.71  7.79  3.14
Si -9.60  1.11  3.14
Si -1.96 -7.73  6.30
Si  3.82  0.04 -9.42
Si  1.85 10.00 -0.00
Si -3.89 -8.83  3.20
Si -7.69  6.67  0.01
Si  1.81 -7.79  6.31
Si -1.86 -3.33  9.45
Si  2.02 -3.34  9.41
Si -3.91  0.04 -9.42
Si -7.69  2.23  6.32
Si -9.61 -1.15 -3.21
Si -2.04  7.76 -6.31
Si  7.71 -2.25 -6.30
Si  7.72 -6.69  0.01
Si  5.80 -7.80 -3.17
Si  9.65  3.38 -0.01
Si  1.96  3.31 -9.48
Si  2.03  3.35  9.45
Si -7.74 -6.69  0.01
Si -3.85  8.96 -3.11
Si  7.77  6.67  0.01
Si -5.77 -7.82 -3.21
Si  1.92  7.82 -6.32
Si -7.75 -2.25 -6.30
Si -1.92 10.06 -0.01
Si  5.91  7.77  3.10
Si -9.70 -3.29 -0.01
Si -1.93 -3.37 -9.48
Si  3.88  8.96 -3.11
Si -5.86 -5.53 -6.32
Si -1.89  3.29 -9.52
Si -2.09 -10.03 -0.00
Si  5.82  5.62  6.30
Si -5.87  5.56  6.31
Si -3.84  0.08  9.51
Si  9.69 -1.13 -3.17
Si  7.77  2.23  6.32
Si  3.89  0.08  9.51
Si  9.74  1.09  3.10
Si  1.95 -3.38 -9.52
Si -9.77  3.32 -0.00
Si -7.64  6.57 -2.33
Si -3.74  8.81  3.98
Si -3.81  4.33 -8.64
Si  7.62 -4.47 -5.54
Si  3.92  4.33 -8.64
Si  3.80 -6.67  7.08
Si -1.87  1.11 10.21
Si  9.62 -3.32 -2.35
Si -1.89  9.99 -2.40
Si  7.69  0.01  7.08
Si  3.99  8.81  3.98
Si -2.00 -9.99 -2.35
Si -0.06  8.88 -5.54
Si  3.85  6.68  7.08
Si  5.80 -7.80  3.90
Si  7.82  6.57 -2.33
Si -5.83 -7.76  3.96
Si -3.88  6.68  7.08
Si -2.01 -5.56 -8.66
Si  1.94 10.03 -2.35
Si -3.93 -6.67  7.08
Si  1.91 -10.04 -2.40
Si -9.67 -1.08  3.96
Si  9.69 -1.12  3.90
Si -5.85  1.12 -8.66
Si -7.69 -6.78 -2.33
Si -9.66 -3.36 -2.40
Si -9.68  3.36 -2.35
Si  1.95  1.16 10.27
Si  9.69  3.31 -2.40
Si -7.77  0.01  7.08
Si  5.79  1.07 -8.71
Si  1.90 -5.60 -8.71
Si  0.10 -2.30 10.29
Si  7.77 -6.78 -2.33
Si -7.84 -4.47 -5.54
Si -7.69 -4.41  6.31
Si -0.03 -8.88 -6.31
Si -7.71  4.47 -6.31
Si  7.77 -4.41  6.31
Si  0.09  8.94  6.31
Si  7.75  4.47 -6.31
Si -9.65 -5.52  0.77
Si -5.82 -7.76 -5.54
Si  3.82  8.94 -5.50
Si -3.86 -2.17 10.26
Si  3.87 -2.17 10.26
Si  5.79 -7.81 -5.52
Si -9.66 -1.08 -5.54
Si -3.91  8.94 -5.50
Si  9.68 -1.14 -5.52
Si  9.69 -5.57  0.79
Si  0.03  4.50 10.26
Si -0.01 11.18  0.81
Si  9.53  1.08 -6.31
Si -0.06 -11.07 -3.11
Si -5.71 -3.34  9.41
Si  5.69  7.76 -6.31
Si  5.64 -10.03 -0.00
Si -0.07 -6.63 -9.42
Si  5.77 -7.73  6.30
Si -9.60 -5.58  3.10
Si -5.70  3.35  9.45
Si -9.61  5.55 -3.17
Si -3.80  8.90  6.32
Si -5.86 -9.97 -0.01
Si -0.02  6.72 -9.42
Si  3.82 -8.93 -6.30
Si  0.00 -6.59  9.51
Si  9.66 -1.05  6.30
Si -5.77  3.31 -9.48
Si -11.58 -0.01  0.01
Si -5.88 10.00 -0.00
Si  5.91  3.33  9.41
Si  3.93  8.90  6.32
Si -3.91 -8.93 -6.30
Si 11.61 -0.01  0.01
Si  5.80 -3.37 -9.48
Si  5.87 -3.33  9.45
Si -5.81  7.82 -6.32
Si  9.70 -5.56  3.14
Si  5.81 10.06 -0.01
Si -5.78 -3.38 -9.52
Si -9.70  1.14 -6.32
Si -5.92 -7.79  6.31
Si  5.84  3.29 -9.52
Si  0.05 11.19  3.20
Si  9.74  5.53 -3.21
Si  0.05  6.76  9.51
Si -9.76 -1.12  6.31
Si  7.63 -8.91  0.77
Si  5.73 -9.99 -2.35
Si 11.52 -2.23  0.77
Si -11.53 -0.10 -2.33
Si -9.61  5.55  3.90
Si  5.72 -5.56 -8.66
Si  3.84 11.12  0.77
Si -3.74  4.37 10.29
Si  1.97 -5.56 10.21
Si -7.70 -2.34 -8.64
Si -3.89 11.12  0.77
Si -1.94 -5.52 10.27
Si -1.96  7.79 -8.66
Si  5.84  9.99 -2.40
Si -5.79 10.03 -2.35
Si  1.95  7.75 -8.71
Si  5.86  1.11 10.21
Si -5.78  1.16 10.27
Si -0.11 -0.03 -11.85
Si  7.76 -2.34 -8.64
Si -5.82 -10.04 -2.40
Si  9.68  5.59  3.96
Si  3.99  4.37 10.29
Si -7.83 -8.91  0.77
Si -5.83 -5.60 -8.71
Si 11.66 -0.10 -2.33
Si  0.05 -11.22  3.98
Si -11.67 -2.23  0.77
Si -3.82 11.06  3.18
Si -7.71  8.82 -3.13
Si  3.85  6.58 -9.44
Si -3.88  6.58 -9.44
Si  7.75  8.82 -3.13
Si  3.91 11.06  3.18
Si  7.69 -0.10 -9.44
Si -3.81  6.62  9.49
Si 11.59  2.14 -3.13
Si -11.60  2.14 -3.13
Si  3.92  6.62  9.49
Si -7.70 -0.06  9.49
Si  3.80 -6.77 -9.44
Si -7.77 -0.10 -9.44
Si 11.59 -2.30  3.18
Si -11.60 -2.30  3.18
Si  7.70 -8.97  3.18
Si  3.81 -11.21 -3.13
Si  7.76 -0.06  9.49
Si -3.86 -6.73  9.49
Si  3.87 -6.73  9.49
Si -3.93 -6.77 -9.44
Si -7.76 -8.97  3.18
Si -3.92 -11.21 -3.13
Si -1.92 -9.96  7.08
Si  1.92 -12.20  0.77
Si -0.12 -11.08 -5.50
Si  3.82 -11.09  3.95
Si  7.68 -6.61  7.12
Si  3.77  0.03 -11.81
Si -9.62  5.54 -5.52
Si -9.60  3.39  7.08
Si -9.61 -3.33  7.10
Si -3.91 -11.09  3.95
Si -1.82 10.02  7.10
Si -0.09 -8.89 -8.67
Si -9.61  7.83  0.77
Si  7.69  4.46 -8.67
Si -1.93 -12.25  0.79
Si  1.97 -10.01  7.10
Si 11.56  4.51  0.81
Si  1.95  3.30 -11.83
Si -7.70  8.94  3.95
Si -7.78 -6.61  7.12
Si  9.70 -3.28  7.08
Si -3.96  0.03 -11.81
Si  1.90 -3.32 -11.85
Si -11.59  2.26  3.95
Si -1.94 -3.37 -11.83
Si 11.60  2.26  3.95
Si -7.77  4.46 -8.67
Si -1.94  3.35 -11.85
Si  2.02 10.07  7.08
Si  7.76  8.94  3.95
Si  9.69  5.59 -5.54
Si  7.73  6.75  7.12
Si  9.74  7.78  0.79
Si -7.73  6.75  7.12
Si -11.63  4.51  0.81
Si  9.74  3.34  7.10
Si -9.55  7.77  3.10
Si  9.59  5.56  6.31
Si 11.56 -4.40 -3.11
Si -1.83 12.21 -3.21
Si  9.60 -5.53 -6.32
Si  0.03 11.10 -6.30
Si -1.92 -12.24  3.14
Si  2.01 12.22 -3.17
Si -0.01 -11.12  6.32
Si  1.97 -12.26  3.10
Si -0.03  2.19 -12.61
Si  1.86  1.12 12.62
Si -1.91  1.18 12.61
Si -9.66 -7.80 -3.17
Si  1.86 -1.09 -12.63
Si -9.64  5.62  6.30
Si -11.63 -4.40 -3.11
Si  0.05 -2.21 12.63
Si -11.57  4.52  3.20
Si -2.10 -1.16 -12.62
Si  9.69 -7.82 -3.21
Si  9.75  7.79  3.14
Si 11.62  4.52  3.20
Si -9.82 -5.59 -6.31
Si 11.51  2.21 -5.54
Si  7.67  8.88 -5.54
Si -5.76 -5.56 10.21
Si  9.63 -7.76  3.96
Si  9.61  1.12 -8.66
Si  2.01 12.23  3.90
Si  3.73 -11.14 -5.54
Si  2.02  7.79 10.21
Si  5.77  7.79 -8.66
Si -11.52 -4.54  3.98
Si -7.63 -2.30 10.29
Si -9.66 -7.80  3.90
Si  5.79 -5.52 10.27
Si -5.78  7.75 -8.71
Si -1.89 12.27  3.96
Si -7.79  8.88 -5.54
Si -1.89  7.83 10.27
Si -9.67  1.07 -8.71
Si -3.85 -9.02 -8.64
Si -4.00 -11.14 -5.54
Si  3.88 -9.02 -8.64
Si -11.68  2.21 -5.54
Si  7.83 -2.30 10.29
Si 11.67 -4.54  3.98
Si -0.02 -13.32 -0.00
Si -3.85 -11.08  6.31
Si  3.88 -11.08  6.31
Si -11.53  2.27  6.31
Si  7.70 -8.88 -6.31
Si -11.54  6.71 -0.00
Si -7.64  8.94  6.31
Si -3.80 -2.17 12.62
Si -11.59 -6.65 -0.00
Si -3.82 11.14 -6.31
Si 11.60 -6.65 -0.00
Si -7.76 -8.88 -6.31
Si -0.03 -4.45 -12.62
Si  0.08 13.38 -0.00
Si  3.86  2.23 -12.62
Si 11.59 -2.21 -6.31
Si -11.60 -2.21 -6.31
Si -3.87  2.23 -12.62
Si  3.91 11.14 -6.31
Si  3.93 -2.17 12.62
Si  0.09  4.51 12.62
Si 11.65  6.71 -0.00
Si 11.66  2.27  6.31
Si  7.82  8.94  6.31
Si 11.50 -4.41 -5.50
Si 11.54 -6.65 -2.36
Si  5.81 -9.96  7.08
Si -0.08 -13.33 -2.36
Si -5.82 -12.20  0.77
Si -0.02 -8.85 10.26
Si -0.12 -6.65 -11.81
Si -1.86 -1.05 13.38
Si  2.00 12.22 -5.52
Si -5.76 -10.01  7.10
Si  9.64 -7.76 -5.54
