500
set: 541.00  0.00  0.00
Si  0.00  0.00  0.00
Si -1.78  1.07  0.76
Si  0.34 -0.20 -2.23
Si  1.85  1.07  0.76
Si -0.35 -2.11  0.76
Si -1.43  3.18  0.00
Si  1.43 -3.18  0.00
Si -1.51 -1.26 -2.98
Si  1.51  1.26  2.98
Si  0.69  1.91 -2.98
Si -0.69 -1.91  2.98
Si -3.63  0.00  0.00
Si  3.63  0.00  0.00
Si -2.20 -3.18  0.00
Si  2.20  3.18  0.00
Si  2.12 -1.26 -2.98
Si -2.12  1.26  2.98
Si -1.09  2.98 -2.23
Si  3.28 -2.11  0.76
Si -3.29 -0.20 -2.23
Si  1.16 -0.84  3.74
Si  0.42  4.25  0.76
Si -0.27  2.33  3.74
Si  1.77 -3.37 -2.23
Si -1.86 -3.37 -2.23
Si  2.54  2.98 -2.23
Si  3.97 -0.20 -2.23
Si -2.47 -0.84  3.74
Si -3.98 -2.11  0.76
Si  2.94 -1.91  2.98
Si -2.94  1.91 -2.98
Si  0.08  4.44  2.98
Si -0.08 -4.44 -2.98
Si -3.21  4.25  0.76
Si  1.08 -5.29  0.76
Si -1.17 -1.46 -5.21
Si  3.36  2.33  3.74
Si -5.41  1.07  0.76
Si  1.03  1.72 -5.21
Si -4.32 -1.91  2.98
Si  4.32  1.91 -2.98
Si -1.04 -4.02  3.74
Si  5.48  1.07  0.76
Si -3.90  2.33  3.74
Si  4.05  4.25  0.76
Si -2.55 -5.29  0.76
Si  2.46 -1.46 -5.21
Si -0.74  5.09 -2.98
Si  0.74 -5.09  2.98
Si  5.06 -3.18  0.00
Si -5.06  3.18  0.00
Si -4.72  2.98 -2.23
Si -0.82  0.65 -5.96
Si  0.82 -0.65  5.96
Si -2.60  1.72 -5.21
Si  2.59 -4.02  3.74
Si -5.14 -1.26 -2.98
Si  5.14  1.26  2.98
Si  4.79 -0.84  3.74
Si -0.77 -6.36  0.00
Si  0.77  6.36  0.00
Si -3.55  4.44  2.98
Si  3.55 -4.44 -2.98
Si -0.61  2.53  5.96
Si  0.61 -2.53 -5.96
Si  3.71  4.44  2.98
Si -3.71 -4.44 -2.98
Si -2.89 -5.09  2.98
Si  2.89  5.09 -2.98
Si -5.75  1.26  2.98
Si  5.75 -1.26 -2.98
Si -2.81 -0.65  5.96
Si  2.81  0.65 -5.96
Si -5.83 -3.18  0.00
Si  5.83  3.18  0.00
Si  1.11  6.16 -2.23
Si  5.40 -3.37 -2.23
Si -0.96  0.42  6.72
Si -5.49 -3.37 -2.23
Si -1.70  5.51  3.74
Si  1.93  5.51  3.74
Si -0.43 -6.55 -2.23
Si  2.86 -6.36  0.00
Si -2.86  6.36  0.00
Si  0.26 -4.64 -5.21
Si -2.52  6.16 -2.23
Si  4.71 -5.29  0.76
Si  3.02  2.53  5.96
Si -3.02 -2.53 -5.96
Si -0.40  4.89 -5.21
Si  4.66  1.72 -5.21
Si -6.09 -0.84  3.74
Si  6.17  2.98 -2.23
Si -4.67 -4.02  3.74
Si  1.38  3.83 -5.96
Si -1.38 -3.83  5.96
Si -4.80 -1.46 -5.21
Si  2.67  0.42  6.72
Si -7.26  0.00  0.00
Si  7.26  0.00  0.00
Si  6.91 -2.11  0.76
Si -6.92 -0.20 -2.23
Si  0.47 -2.76  6.72
Si -4.37  5.09 -2.98
Si  4.37 -5.09  2.98
Si  2.25 -3.83  5.96
Si -2.25  3.83 -5.96
Si -6.57  1.91 -2.98
Si  6.57 -1.91  2.98
Si  4.45 -0.65  5.96
Si -4.45  0.65 -5.96
Si -1.01  7.42  0.76
Si  3.20 -6.55 -2.23
Si  1.24  3.60  6.72
Si  4.39  6.36  0.00
Si -4.39 -6.36  0.00
Si  4.24 -2.53 -5.96
Si -4.24  2.53  5.96
Si -3.37 -4.64 -5.21
Si  3.23  4.89 -5.21
Si  2.62  7.42  0.76
Si -3.16 -2.76  6.72
Si  7.60 -0.20 -2.23
Si -7.60 -2.11  0.76
Si  3.89 -4.64 -5.21
Si -2.39  3.60  6.72
Si -4.05 -6.55 -2.23
Si  4.74  6.16 -2.23
Si -6.84  4.25  0.76
Si  0.39 -7.20  3.74
Si  6.09 -1.46 -5.21
Si -4.59  0.42  6.72
Si -6.17 -5.29  0.76
Si -4.03  4.89 -5.21
Si -0.48  0.45 -8.19
Si  6.99  2.33  3.74
Si -1.35  7.62  2.98
Si  1.35 -7.62 -2.98
Si  6.22 -4.02  3.74
Si -6.23  1.72 -5.21
Si  4.10 -2.76  6.72
Si  1.59  5.71  5.96
Si -1.59 -5.71 -5.96
Si  2.28  7.62  2.98
Si -2.28 -7.62 -2.98
Si  2.04 -5.71 -5.96
Si -2.04  5.71  5.96
Si -5.33  5.51  3.74
Si -1.11 -8.46  0.76
Si  5.56  5.51  3.74
Si  5.00  3.83 -5.96
Si -5.00 -3.83  5.96
Si  0.95 -2.73 -8.19
Si -7.95 -1.91  2.98
Si  7.95  1.91 -2.98
Si -7.53  2.33  3.74
Si -3.23 -7.20  3.74
Si  3.15  0.45 -8.19
Si -4.64  7.42  0.76
Si -6.51 -5.09  2.98
Si  6.51  5.09 -2.98
Si -6.44 -0.65  5.96
Si  6.44  0.65 -5.96
Si  7.67  4.25  0.76
Si  2.51 -8.46  0.76
Si  1.46  8.27 -2.98
Si -1.46 -8.27  2.98
Si  7.18 -4.44 -2.98
Si -7.18  4.44  2.98
Si -6.15  6.16 -2.23
Si -2.68 -2.73 -8.19
Si  4.87  3.60  6.72
Si -2.17  8.27 -2.98
Si  2.17 -8.27  2.98
Si  4.02 -7.20  3.74
Si -1.30  0.61  8.94
Si  1.30 -0.61 -8.94
Si -7.33 -4.44 -2.98
Si  7.33  4.44  2.98
Si  6.49 -6.36  0.00
Si -6.49  6.36  0.00
Si  1.72  3.63 -8.19
Si -9.03  1.07  0.76
Si -1.73 -5.94  6.72
Si -8.35  2.98 -2.23
Si -1.91  3.63 -8.19
Si  1.90 -5.94  6.72
Si -4.11  0.45 -8.19
Si  0.05 -7.00  5.96
Si -0.05  7.00 -5.96
Si  9.11  1.07  0.76
Si -5.88  3.83 -5.96
Si  5.88 -3.83  5.96
Si  6.30  0.42  6.72
Si  8.42 -0.84  3.74
Si  8.69 -3.18  0.00
Si -8.69  3.18  0.00
Si -2.33 -0.61 -8.94
Si  2.33  0.61  8.94
Si -6.65 -2.53 -5.96
Si  6.65  2.53  5.96
Si  0.13 -2.56  8.94
Si -0.13  2.56 -8.94
Si -8.77 -1.26 -2.98
Si  8.77  1.26  2.98
Si  0.50  8.69  3.74
Si -0.19  6.77  6.72
Si  1.69 -7.82 -5.21
Si  0.66 -9.53  0.00
Si -0.66  9.53  0.00
Si  4.98 -7.62 -2.98
Si -4.98  7.62  2.98
Si -1.94 -7.82 -5.21
Si -0.32  9.34 -2.23
Si -6.02  3.60  6.72
Si  6.83 -6.55 -2.23
Si  6.25  7.42  0.76
Si -4.74 -8.46  0.76
Si  0.90  3.79  8.94
Si -0.90 -3.79 -8.94
Si  5.22  5.71  5.96
Si -5.22 -5.71 -5.96
Si  4.58 -2.73 -8.19
Si  1.80  8.07 -5.21
Si -1.83  8.07 -5.21
Si  0.55  1.68  9.70
Si -3.58 -7.00  5.96
Si  3.58  7.00 -5.96
Si -6.99 -4.64 -5.21
Si  9.03 -3.37 -2.23
Si  8.34 -5.29  0.76
Si  6.86  4.89 -5.21
Si  3.68 -7.00  5.96
Si -3.68  7.00 -5.96
Si -9.38  1.26  2.98
Si  9.38 -1.26 -2.98
Si  8.29  1.72 -5.21
Si -6.78 -2.76  6.72
Si  8.00 -5.09  2.98
Si -8.00  5.09 -2.98
Si  3.50  2.56 -8.94
Si -3.50 -2.56  8.94
Si -8.29 -4.02  3.74
Si -1.65 -1.49  9.70
Si -3.13  8.69  3.74
Si -9.11 -3.37 -2.23
Si -9.45 -3.18  0.00
Si  9.45  3.18  0.00
Si -2.96 -9.53  0.00
Si  2.96  9.53  0.00
Si -8.42 -1.46 -5.21
Si  1.98 -1.49  9.70
Si -5.67  5.71  5.96
Si  5.67 -5.71 -5.96
Si  1.00 -9.73 -2.23
Si -3.76  2.56 -8.94
Si  3.76 -2.56  8.94
Si -8.08  0.65 -5.96
Si  8.08 -0.65  5.96
Si -5.90 -7.62 -2.98
Si  5.90  7.62  2.98
Si  2.73 -3.79 -8.94
Si -2.73  3.79  8.94
Si  3.44  6.77  6.72
Si  3.31  9.34 -2.23
Si  5.08  8.27 -2.98
Si -5.08 -8.27  2.98
Si -1.25 -5.90 -8.19
Si  7.87 -2.53 -5.96
Si -7.87  2.53  5.96
Si  4.93 -0.61 -8.94
Si -4.93  0.61  8.94
Si  8.02  6.36  0.00
Si -8.02 -6.36  0.00
Si  7.52 -4.64 -5.21
Si -3.82  6.77  6.72
Si -3.08  1.68  9.70
Si  4.13  8.69  3.74
Si -2.62 -9.73 -2.23
Si -7.68 -6.55 -2.23
Si  2.38 -5.90 -8.19
Si -3.95  9.34 -2.23
Si  5.35  3.63 -8.19
Si -5.35 -5.94  6.72
Si -9.72 -0.84  3.74
Si -4.29  9.53  0.00
Si  4.29 -9.53  0.00
Si -7.66  4.89 -5.21
Si  9.79  2.98 -2.23
Si  6.14 -8.46  0.76
Si  5.80 -8.27  2.98
Si -5.80  8.27 -2.98
Si -5.54  3.63 -8.19
Si  5.53 -5.94  6.72
Si  7.73 -2.76  6.72
Si -8.21  0.42  6.72
Si  8.36  6.16 -2.23
Si -6.86 -7.20  3.74
Si  6.78  0.45 -8.19
Si  0.29  6.81 -8.19
Si -6.30 -2.73 -8.19
Si  1.19 10.60  0.76
Si  4.18  1.68  9.70
Si -0.16 -8.88 -5.96
Si  0.16  8.88  5.96
Si  4.53  3.79  8.94
Si -4.53 -3.79 -8.94
Si -1.56  5.74 -8.94
Si  1.56 -5.74  8.94
Si -5.96 -0.61 -8.94
Si  5.96  0.61  8.94
Si -0.22 -4.67  9.70
Si 10.54 -2.11  0.76
Si -10.54 -0.20 -2.23
Si 10.20 -1.91  2.98
Si -10.20  1.91 -2.98
Si  5.32 -7.82 -5.21
Si  2.07  5.74 -8.94
Si -2.07 -5.74  8.94
Si 10.88  0.00  0.00
Si -10.88  0.00  0.00
Si -0.88  4.86  9.70
Si -2.44 10.60  0.76
Si -5.56 -7.82 -5.21
Si  4.63 -9.73 -2.23
Si  5.42  8.07 -5.21
Si -5.46  8.07 -5.21
Si  9.72 -1.46 -5.21
Si -8.27  7.42  0.76
Si -5.28 -1.49  9.70
Si  7.65 -7.20  3.74
Si -8.96  5.51  3.74
Si -3.34  6.81 -8.19
Si -9.80 -5.29  0.76
Si -8.63 -3.83  5.96
Si  8.63  3.83 -5.96
Si -1.80 -10.38  3.74
Si  1.82 -10.38  3.74
Si  2.75  4.86  9.70
Si -4.88 -5.90 -8.19
Si  0.85 10.80  2.98
Si -0.85 -10.80 -2.98
Si  3.47 -8.88 -5.96
Si -3.47  8.88  5.96
Si -7.74  0.45 -8.19
Si  9.85 -4.02  3.74
Si -9.85  1.72 -5.21
Si  3.41 -4.67  9.70
Si  5.61 -1.49  9.70
Si -10.46  4.25  0.76
Si  1.64 -0.81 -11.17
Si -0.29 -9.11  6.72
Si  9.18  5.51  3.74
Si  3.92  6.81 -8.19
Si -3.79 -8.88 -5.96
Si  3.79  8.88  5.96
Si  0.53 -6.97 -8.94
Si -0.53  6.97  8.94
Si -1.99 -0.81 -11.17
Si  8.50  3.60  6.72
Si  0.21  2.37 -11.17
Si -3.84 -4.67  9.70
Si 11.22 -0.20 -2.23
Si -11.23 -2.11  0.76
Si 10.62  2.33  3.74
Si -2.78 10.80  2.98
Si  2.78 -10.80 -2.98
Si -6.59 -9.53  0.00
Si  6.59  9.53  0.00
Si  6.36 -3.79 -8.94
Si -6.36  3.79  8.94
Si -6.76  8.69  3.74
Si  4.82 10.60  0.76
Si  0.32 -11.64  0.76
Si -7.20 -7.00  5.96
Si  7.20  7.00 -5.96
Si -10.06 -0.65  5.96
Si 10.06  0.65 -5.96
Si  7.12  2.56 -8.94
Si -7.12 -2.56  8.94
Si 10.14  5.09 -2.98
Si -10.14 -5.09  2.98
Si  6.01 -5.90 -8.19
Si -4.51  4.86  9.70
Si  7.31 -7.00  5.96
Si -7.31  7.00 -5.96
Si -3.10 -6.97 -8.94
Si  3.10  6.97  8.94
Si -9.78  6.16 -2.23
Si -6.25 -9.73 -2.23
Si  3.33 -9.11  6.72
Si -5.19  5.74 -8.94
Si  5.19 -5.74  8.94
Si -0.03 -11.45  2.98
Si  0.03 11.45 -2.98
Si  6.93  9.34 -2.23
Si  9.51 -3.83  5.96
Si -9.51  3.83 -5.96
Si  7.07  6.77  6.72
Si -0.56 -3.99 -11.17
Si  8.61 -7.62 -2.98
Si -8.61  7.62  2.98
Si -7.39  2.56 -8.94
Si  7.39 -2.56  8.94
Si -1.48 10.18 -5.96
Si  1.48 -10.18  5.96
Si  8.21 -2.73 -8.19
Si -6.71  1.68  9.70
Si -3.42  2.37 -11.17
Si -8.37 -8.46  0.76
Si -10.12  6.36  0.00
Si 10.12 -6.36  0.00
Si -3.92 -9.11  6.72
Si -11.15  2.33  3.74
Si  2.15 10.18 -5.96
Si -2.15 -10.18  5.96
Si  9.93  0.42  6.72
Si  3.84  2.37 -11.17
Si  5.69  5.74 -8.94
Si -5.69 -5.74  8.94
Si 10.80 -4.44 -2.98
Si -10.80  4.44  2.98
Si -4.47 -10.80 -2.98
Si  4.47 10.80  2.98
Si -0.21 -1.88 -11.93
Si  0.21  1.88 11.93
Si  4.16 -6.97 -8.94
Si -4.16  6.97  8.94
Si -8.84 -5.71 -5.96
Si  8.84  5.71  5.96
Si 11.30  4.25  0.76
Si -7.45  6.77  6.72
Si 11.57  1.91 -2.98
Si -11.57 -1.91  2.98
Si -1.64  1.30 -11.93
Si  1.64 -1.30 11.93
Si -1.62  9.95  6.72
Si -3.31 -11.64  0.76
Si 10.27  2.53  5.96
Si -10.27 -2.53 -5.96
Si -1.99 -1.30 11.93
Si  1.99  1.30 -11.93
Si  2.01  9.95  6.72
Si -0.51 -10.99 -5.21
Si 10.96  4.44  2.98
Si -10.96 -4.44 -2.98
Si  0.18 -9.08 -8.19
Si -7.58  9.34 -2.23
Si  7.75  8.69  3.74
Si -6.07 10.60  0.76
Si  3.07 -3.99 -11.17
Si -9.64  3.60  6.72
Si -5.43 -10.38  3.74
Si  5.45 -10.38  3.74
Si  3.94 -11.64  0.76
Si  3.60 -11.45  2.98
Si -3.60 11.45 -2.98
Si  9.87  7.42  0.76
Si -8.71 -8.27  2.98
Si  8.71  8.27 -2.98
Si  5.27 -0.81 -11.17
Si  3.65 11.45 -2.98
Si -3.65 -11.45  2.98
Si -8.55  0.61  8.94
Si  8.55 -0.61 -8.94
Si  7.92 -9.53  0.00
Si -7.92  9.53  0.00
Si  0.37 11.25 -5.21
Si  9.30 -5.71 -5.96
Si -9.30  5.71  5.96
Si -0.93 11.87  3.74
Si -5.62 -0.81 -11.17
Si -1.22  5.54 -11.17
Si  1.21 -7.85  9.70
Si -11.97  2.98 -2.23
Si 10.46 -6.55 -2.23
Si  3.42 -1.88 -11.93
Si -3.42  1.88 11.93
Si  3.12 -10.99 -5.21
Si -9.53 -7.62 -2.98
Si  9.53  7.62  2.98
Si  7.81  1.68  9.70
Si -4.19 -3.99 -11.17
Si  6.38  4.86  9.70
Si 12.04 -0.84  3.74
Si  0.64  8.92 -8.94
Si -0.64 -8.92  8.94
Si  1.32  8.04  9.70
Si  3.84  1.88 11.93
Si -3.84 -1.88 -11.93
Si  8.97  3.63 -8.19
Si -0.14 -0.23 12.68
Si -8.15 -3.79 -8.94
Si  8.15  3.79  8.94
Si 10.48  4.89 -5.21
Si -8.98 -5.94  6.72
Si -10.41 -2.76  6.72
Si  2.41  5.54 -11.17
Si -3.44 -9.08 -8.19
Si -10.62 -4.64 -5.21
