500
set: 1344.00  0.00  0.00
Si -1.26  0.37  0.41
Si  0.96  1.33 -0.42
Si -0.02 -2.04  0.66
Si -0.98  0.69  2.01
Si  0.68  1.01 -2.02
Si -1.88 -0.21 -2.41
Si  0.92 -3.08 -0.65
Si -1.15 -1.53  2.83
Si  1.58  1.92  2.40
Si -2.05 -2.43 -1.59
Si -0.28  3.74 -0.65
Si -2.35 -2.67  1.60
Si  4.03  0.37  0.41
Si  3.42 -0.21 -2.41
Si  2.94 -2.67  1.60
Si  3.25 -2.43 -1.59
Si  0.85  3.24 -2.82
Si -4.33  1.33 -0.42
Si -2.16 -0.54 -4.01
Si  1.82 -2.17  3.77
Si  1.75  4.15  1.60
Si  4.32  0.69  2.01
Si -3.72  1.92  2.40
Si  0.07  0.42 -4.83
Si -0.92 -2.95 -3.76
Si  1.86  2.23  4.00
Si -1.22  4.77  0.66
Si  2.05 -3.57 -2.82
Si -0.37  1.27  4.83
Si  2.05  4.38 -1.59
Si  3.13 -0.54 -4.01
Si -4.62  1.01 -2.02
Si  4.15 -1.53  2.83
Si  0.88 -1.14  5.08
Si -4.38 -3.08 -0.65
Si -3.48 -2.17  3.77
Si -3.25 -3.57 -2.82
Si -3.25  4.38 -1.59
Si -3.55  4.15  1.60
Si  5.28 -2.04  0.66
Si -3.44  2.23  4.00
Si -5.32 -2.04  0.66
Si -2.12  3.87 -3.76
Si  2.16 -5.48 -0.42
Si -1.18  2.83 -5.07
Si -2.52 -4.90  2.40
Si  0.62  4.64  3.77
Si  2.78 -4.90  2.40
Si -4.45  3.24 -2.82
Si  3.18  3.87 -3.76
Si  5.02  3.74 -0.65
Si  4.08  4.77  0.66
Si -3.14 -5.48 -0.42
Si  5.98  1.01 -2.02
Si  6.26  1.33 -0.42
Si  1.88 -5.80 -2.02
Si -1.46 -1.76  6.02
Si -2.35  5.29  2.83
Si -0.22  0.11 -6.44
Si  0.02 -3.98 -5.07
Si  0.22 -6.12  2.01
Si -0.07 -6.45  0.41
Si -2.24 -4.58  4.00
Si  4.38 -2.95 -3.76
Si -6.56  0.37  0.41
Si -0.08  1.60  6.43
Si -6.28  0.69  2.01
Si  2.95  5.29  2.83
Si -5.58  3.74 -0.65
Si  3.06 -4.58  4.00
Si -4.42 -1.14  5.08
Si  6.22 -3.08 -0.65
Si  4.93  1.27  4.83
Si -3.42 -5.80 -2.02
Si  1.15  3.48 -6.01
Si  4.12  2.83 -5.07
Si -5.23  0.42 -4.83
Si -6.45 -1.53  2.83
Si  5.36  0.42 -4.83
Si  2.35 -3.34 -6.01
Si -0.25 -0.62  7.25
Si  3.84 -1.76  6.02
Si  2.52 -1.12 -6.83
Si  2.22  6.60 -2.41
Si  0.83 -5.54  4.83
Si -2.77 -1.12 -6.83
Si -0.68 -7.03 -2.41
Si -2.95 -3.34 -6.01
Si  6.14  3.24 -2.82
Si  6.88  1.92  2.40
Si -5.66  1.27  4.83
Si -7.17 -0.21 -2.41
Si -4.68  4.64  3.77
Si -2.46  7.18  0.41
Si -0.05  2.34 -7.24
Si -0.32  5.68  5.08
Si -3.07  6.60 -2.41
Si  1.94  6.27 -4.01
Si  2.83  7.18  0.41
Si  2.48  2.82  6.82
Si -6.22 -2.95 -3.76
Si -7.34 -2.43 -1.59
Si -2.82  2.82  6.82
Si -1.62 -3.99  6.82
Si -2.18  7.51  2.01
Si  6.17 -1.14  5.08
Si -4.14  3.48 -6.01
Si -0.52  7.83 -2.02
Si -6.52  4.77  0.66
Si  1.26 -6.39 -4.83
Si -0.23  8.14 -0.42
Si -3.36  6.27 -4.01
Si  5.08  0.11 -6.44
Si -5.08 -6.12  2.01
Si -7.65 -2.67  1.60
Si  2.64  5.05  6.02
Si -2.65  5.05  6.02
Si  5.23 -6.45  0.41
Si -5.28 -3.98 -5.07
Si  7.04  4.15  1.60
Si  7.12 -2.17  3.77
Si  1.12 -5.21  6.43
Si  5.32 -3.98 -5.07
Si  3.12  7.51  2.01
Si -5.36 -6.45  0.41
Si  5.92  4.64  3.77
Si -0.96 -7.35 -4.01
Si  5.22  1.60  6.43
Si -5.52  0.11 -6.44
Si  5.52 -6.12  2.01
Si -7.46 -0.54 -4.01
Si  7.16  2.23  4.00
Si -5.38  1.60  6.43
Si  1.15 -4.48 -7.24
Si -4.47 -5.54  4.83
Si  7.34 -3.57 -2.82
Si -2.58 -1.26  8.19
Si -6.47  2.83 -5.07
Si  7.35  4.38 -1.59
Si  3.67 -3.99  6.82
Si  2.72 -1.26  8.19
Si  4.62 -7.03 -2.41
Si -1.13  7.24 -4.83
Si  0.05 -8.34  2.83
Si  8.24 -2.67  1.60
Si  2.24 -1.45 -8.43
Si  5.05 -0.62  7.25
Si  1.18 -8.85  0.66
Si -4.03 -6.39 -4.83
Si  1.32  5.70 -6.83
Si  2.28  2.96 -8.18
Si  8.55 -2.43 -1.59
Si  8.72 -0.21 -2.41
Si  0.38  8.73  2.40
Si -3.06 -1.45 -8.43
Si  4.98  5.68  5.08
Si -5.55 -0.62  7.25
Si -7.42  3.87 -3.76
Si -3.02  2.96 -8.18
Si -6.75 -1.76  6.02
Si -1.82 -3.85 -8.18
Si  5.25  2.34 -7.24
Si  7.46 -5.48 -0.42
Si -4.18 -5.21  6.43
Si -1.34 -3.67  8.42
Si -5.35  2.34 -7.24
Si -0.83 -0.48 -9.25
Si -2.54  3.14  8.42
Si  9.33  0.37  0.41
Si  0.98 -6.71 -6.44
Si  8.43 -0.54 -4.01
Si  4.78  7.83 -2.02
Si  2.76  3.14  8.42
Si -0.85 -9.25 -1.59
Si  4.33 -7.35 -4.01
Si  7.18 -5.80 -2.02
Si -5.62  5.68  5.08
Si -4.15 -4.48 -7.24
Si  6.45  3.48 -6.01
Si  0.53  2.18  9.24
Si -9.02  1.92  2.40
Si -5.98 -7.03 -2.41
Si -7.82 -4.90  2.40
Si -1.56  8.09  4.83
Si -1.42  6.92 -6.44
Si  6.13 -5.54  4.83
Si  5.06  8.14 -0.42
Si -1.45  6.19  7.25
Si  4.17  7.24 -4.83
Si  2.08 -7.95  5.08
Si  1.78 -0.23  9.49
Si -1.16 -9.48  1.60
Si -7.54 -4.58  4.00
Si -8.55 -3.57 -2.82
Si  3.48 -3.85 -8.18
Si -7.64  5.29  2.83
Si -8.54  4.38 -1.59
Si -9.63  1.33 -0.42
Si -3.97  5.70 -6.83
Si  8.07 -4.90  2.40
Si -4.12 -8.85  0.66
Si -8.78 -2.17  3.77
Si  9.62  0.69  2.01
Si -5.53  8.14 -0.42
Si -8.73  2.23  4.00
Si -2.07  1.93 -9.49
Si -8.85  4.15  1.60
Si  0.66  9.05  4.00
Si -5.82  7.83 -2.02
Si -3.22 -7.95  5.08
Si  9.45 -1.53  2.83
Si  3.96 -3.67  8.42
Si -2.28 -8.98  3.77
Si  1.52  5.55  8.19
Si  1.04  5.37 -8.43
Si  8.48  3.87 -3.76
Si -8.43 -5.48 -0.42
Si -3.52 -0.23  9.49
Si  3.73  8.09  4.83
Si  2.12 -9.89 -0.65
Si -9.91  1.01 -2.02
Si -9.67 -3.08 -0.65
Si  8.25  5.29  2.83
Si  3.02 -8.98  3.77
Si  3.22  1.93 -9.49
Si  3.88  6.92 -6.44
Si -4.32 -6.71 -6.44
Si -5.25 -8.34  2.83
Si  3.85  6.19  7.25
Si  7.65 -3.34 -6.01
Si  4.46 -0.48 -9.25
Si  7.52  6.60 -2.41
Si  5.35 -8.34  2.83
Si -4.92  8.73  2.40
Si  8.36 -4.58  4.00
Si  6.56 -6.39 -4.83
Si  7.24  6.27 -4.01
Si  4.45 -9.25 -1.59
Si -3.18 -9.89 -0.65
Si  0.95 -7.43  7.25
Si  7.82 -1.12 -6.83
Si -0.35 10.06 -2.82
Si -6.26 -7.35 -4.01
Si  0.28 -9.76 -3.76
Si  4.14 -9.48  1.60
Si  6.42 -5.21  6.43
Si -0.26 -8.57  6.02
Si  1.73 -4.64  9.24
Si -0.56 -0.85 10.44
Si -6.92 -3.99  6.82
Si  9.38  4.77  0.66
Si -7.76  7.18  0.41
Si -1.58 -7.93 -6.83
Si -3.78  5.55  8.19
Si -4.77  2.18  9.24
Si -8.07 -1.12 -6.83
Si -9.75  3.24 -2.82
Si -8.72 -5.80 -2.02
Si -1.28  8.41  6.43
Si -1.48 10.55 -0.65
Si  6.45 -4.48 -7.24
Si  5.68  8.73  2.40
Si -0.88 -4.89 -9.49
Si  7.77  2.82  6.82
Si -8.24 -3.34 -6.01
Si  0.26  2.57 -10.43
Si -7.47  7.51  2.01
Si 10.57 -2.04  0.66
Si  9.68 -2.95 -3.76
Si -6.43  7.24 -4.83
Si -10.62 -2.04  0.66
Si  8.13  7.18  0.41
Si -4.26  5.37 -8.43
Si -4.63  9.05  4.00
Si -8.37  6.60 -2.41
Si -3.57 -4.64  9.24
Si -1.12 -0.80 -10.86
Si -2.05 -10.39 -2.82
Si -8.12  2.82  6.82
Si  6.47 -8.85  0.66
Si 10.32  3.74 -0.65
Si -9.72 -1.14  5.08
Si  9.42  2.83 -5.07
Si  9.14 -1.76  6.02
Si  6.62  5.70 -6.83
Si  0.55 10.96  1.60
Si  3.72 -7.93 -6.83
Si -6.13 -0.48 -9.25
Si  5.83  2.18  9.24
Si -2.37  9.65 -5.07
Si  0.82  2.50 10.85
Si  7.94  5.05  6.02
Si -7.95  5.05  6.02
Si -6.15 -9.25 -1.59
Si  6.28 -6.71 -6.44
Si  3.24 -10.39 -2.82
Si  3.82 10.55 -0.65
Si -4.35 -7.43  7.25
Si  2.92  9.65 -5.07
Si  4.02  8.41  6.43
Si -6.64 -3.67  8.42
Si  0.85 11.20 -1.59
Si  1.45 -4.24 -10.43
Si 10.23  1.27  4.83
Si -2.03  6.33 -9.25
Si  7.54 -1.45 -8.43
Si -8.66  6.27 -4.01
Si -7.88 -1.26  8.19
Si  8.42  7.51  2.01
Si  4.74 -0.85 10.44
Si  1.98 10.68 -3.76
Si 11.28  1.01 -2.02
Si -7.12 -3.85 -8.18
Si -10.87  3.74 -0.65
Si  8.02 -1.26  8.19
Si  7.58  2.96 -8.18
Si  1.62 -2.02 -11.25
Si  4.42 -4.89 -9.49
Si  5.96  9.05  4.00
Si  4.95 10.06 -2.82
Si  0.58  6.58  9.49
Si -6.45 -9.48  1.60
Si -1.38 -8.08  8.19
Si -6.71  6.92 -6.44
Si -10.53  0.42 -4.83
Si -5.02 -9.76 -3.76
Si  5.04 -8.57  6.02
Si -9.97  4.64  3.77
Si 11.56  1.33 -0.42
Si -6.86  8.09  4.83
Si  4.18 -0.80 -10.86
Si -0.72 -3.09 11.23
Si  3.27  6.33 -9.25
Si -6.75  6.19  7.25
Si  0.65  0.28 11.67
Si 10.66  0.42 -4.83
Si -9.44  3.48 -6.01
Si -1.25  9.15 -7.24
Si -11.57  0.69  2.01
Si -0.95  1.43 -11.66
Si  0.36 -7.29 -9.25
Si -3.31 10.68 -3.76
Si  6.34  5.37 -8.43
Si  7.07 -0.23  9.49
Si  2.02 -4.31 10.85
Si  5.58 -9.76 -3.76
Si -2.42 11.59  0.66
Si -5.55 -8.57  6.02
Si -5.04  2.57 -10.43
Si -11.86  0.37  0.41
Si -5.65 10.06 -2.82
Si  1.28  9.64  6.82
Si -3.84 -4.24 -10.43
Si -0.04 10.29 -6.01
Si -7.84  3.14  8.42
Si -1.75 -10.15 -6.01
Si 11.52 -3.08 -0.65
Si -1.86 -8.26 -8.43
Si  8.97 -3.99  6.82
Si  2.88 11.59  0.66
Si -8.36 -1.45 -8.43
Si  7.37 -7.95  5.08
Si  1.22 -10.80 -5.07
Si -1.92  3.73 11.23
Si -5.86 -0.85 10.44
Si -4.48  2.50 10.85
Si -3.67 -2.02 -11.25
Si  6.82  5.55  8.19
Si -1.32 -11.71  2.40
Si -8.31  2.96 -8.18
Si -10.96  1.27  4.83
Si -2.32 -7.04  9.49
Si -4.75 10.96  1.60
Si  8.06  3.14  8.42
Si -0.58 11.46  3.77
Si  5.55  2.57 -10.43
Si  6.25 -7.43  7.25
Si -1.04 -11.39  4.00
Si -3.28 -4.31 10.85
Si -1.76  5.96 10.44
Si -4.44 11.20 -1.59
Si  3.92 -8.08  8.19
Si -7.37  1.93 -9.49
Si -11.74 -1.53  2.83
Si  2.97 -7.04  9.49
Si -10.38 -6.12  2.01
Si 10.38  0.11 -6.44
Si -9.76 -5.54  4.83
Si 11.44  3.24 -2.82
Si  0.43  4.79 -11.25
Si  3.44 -8.26 -8.43
Si -9.33 -6.39 -4.83
Si  3.38  3.73 11.23
Si  3.55 -10.15 -6.01
Si -6.17 -4.89 -9.49
Si -7.58 -8.98  3.77
Si  4.05  9.15 -7.24
Si 10.53 -6.45  0.41
Si  7.42 -9.89 -0.65
Si -10.57 -3.98 -5.07
Si  9.92 -7.03 -2.41
Si 10.62 -3.98 -5.07
Si 10.52  1.60  6.43
Si -1.94 -12.30 -0.42
Si -6.58  8.41  6.43
Si -11.51 -2.95 -3.76
Si -10.66 -6.45  0.41
Si -4.02  9.64  6.82
Si -4.72  6.58  9.49
Si  7.03 -4.64  9.24
Si  4.57 -3.09 11.23
Si -6.87 -7.93 -6.83
Si  4.35  1.43 -11.66
Si  5.84 10.96  1.60
Si  3.54  5.96 10.44
Si  1.75 12.10  2.83
Si 12.17  1.92  2.40
Si -6.77 10.55 -0.65
Si -10.68  1.60  6.43
Si -4.65  0.28 11.67
Si -9.48 -5.21  6.43
Si -10.81  0.11 -6.44
Si 10.82 -6.12  2.01
Si 11.47 -1.14  5.08
Si  3.98 -11.71  2.40
Si  8.78 -3.85 -8.18
Si -4.08 -10.80 -5.07
Si -2.31  6.01 -10.86
Si -6.41 -0.80 -10.86
Si 10.34 -0.62  7.25
Si  6.12  2.50 10.85
Si -12.47 -0.21 -2.41
Si -8.52 -7.95  5.08
Si 11.22  4.64  3.77
Si -9.45 -4.48 -7.24
Si -1.68 -0.36 12.61
Si  3.36 -12.30 -0.42
Si -11.81  4.77  0.66
Si  9.63 -7.35 -4.01
Si  2.98  6.01 -10.86
Si -4.93 -7.29 -9.25
Si -0.42 -10.80  6.82
Si 10.28  5.68  5.08
Si  1.08  9.78 -8.18
Si  4.26 -11.39  4.00
Si  8.31 -8.98  3.77
Si  1.39  2.06 -12.60
Si  0.25 -5.38 -11.66
Si -9.27  5.70 -6.83
Si  9.46  7.24 -4.83
Si  6.15 11.20 -1.59
Si  8.52  1.93 -9.49
Si -0.67  8.99  9.24
Si 10.08  7.83 -2.02
Si -3.55 12.10  2.83
Si -9.42 -8.85  0.66
Si  4.72 11.46  3.77
Si -8.82 -0.23  9.49
Si  5.88  6.58  9.49
Si  0.64 -7.67 10.44
Si -2.22 -12.62 -2.02
Si -12.64 -2.43 -1.59
Si 10.54  2.34 -7.24
Si  5.25 10.29 -6.01
Si -7.35 -10.39 -2.82
Si  9.26 -3.67  8.42
Si -8.48 -9.89 -0.65
Si  9.03  8.09  4.83
Si  2.03  8.74 -9.49
Si -5.34 10.29 -6.01
Si -10.85 -0.62  7.25
Si  5.66 -7.29 -9.25
Si -10.65  2.34 -7.24
Si  5.95  0.28 11.67
Si -6.02 -3.09 11.23
Si 12.34  4.15  1.60
Si  3.62 -0.36 12.61
Si -11.77  2.83 -5.07
Si  6.75 -4.24 -10.43
Si  1.34 -2.35 -12.85
Si  1.56  9.96  8.42
Si -0.44 -2.77 12.84
Si  3.08 -12.62 -2.02
Si 12.41 -2.17  3.77
Si -4.87  4.79 -11.25
Si  1.42 -12.93  2.01
Si  9.18  6.92 -6.44
Si 10.36  8.14 -0.42
Si  9.15  6.19  7.25
Si  0.08 -7.61 -10.86
Si 12.46  2.23  4.00
Si -6.25  1.43 -11.66
Si -6.68 -8.08  8.19
Si -3.27  8.74 -9.49
Si -10.92  5.68  5.08
Si  1.13 -13.26  0.41
Si -12.95 -2.67  1.60
Si -7.67  9.65 -5.07
Si -3.91  2.06 -12.60
Si  6.92 -2.02 -11.25
