500
set: 144.00  0.00  0.00
Si  0.05 -0.03  0.00
Si -1.82  1.03  0.71
Si  0.00 -0.01 -2.26
Si  1.86  1.05  0.77
Si  0.02 -2.15  0.75
Si  0.04 -2.05  2.95
Si -1.84  3.14 -0.03
Si -1.81 -3.17 -0.00
Si  1.83  3.19  0.05
Si  1.86 -3.17 -0.00
Si -1.84  1.13  2.98
Si  1.81  1.05  3.03
Si -3.72 -0.02 -0.03
Si -1.85 -1.12 -3.03
Si  3.74 -0.05  0.01
Si  1.84 -1.03 -3.09
Si  0.02  2.13 -3.09
Si  1.88  3.08 -2.23
Si -1.82 -1.01  3.73
Si  3.65 -0.06 -2.23
Si -0.04  4.23  0.75
Si  1.88 -3.12 -2.27
Si -3.67 -0.04 -2.26
Si  3.69 -2.15  0.82
Si -1.81  3.23 -2.28
Si -0.02  2.16  3.81
Si -1.81 -3.27 -2.28
Si -3.76 -2.19  0.72
Si  1.89 -1.08  3.84
Si -3.60  2.11 -3.03
Si  3.67  2.04 -2.99
Si -3.66 -2.08  3.00
Si  0.08  4.25  3.01
Si  0.07 -4.25 -3.01
Si  3.79 -2.13  3.06
Si  0.01 -4.22  3.72
Si -3.67  4.21  0.75
Si  5.47  1.08  0.83
Si  1.87 -5.28  0.71
Si -1.77 -1.08 -5.28
Si  3.66  4.25  0.83
Si -1.88 -5.31  0.69
Si -5.54  1.04  0.73
Si -3.73  2.13  3.72
Si  3.64  2.19  3.83
Si  1.81 -1.00 -5.36
Si -0.03  2.22 -5.37
Si  1.79  5.19 -3.05
Si  1.85 -5.27  2.95
Si -0.07  6.34  0.04
Si -1.90 -1.10  5.96
Si  0.02 -6.36  0.01
Si  5.50  3.19  0.07
Si -5.57 -1.06 -2.89
Si -3.70 -4.25 -2.98
Si -1.81  1.05 -6.02
Si -5.55  3.16 -0.03
Si -3.66  4.31  2.97
Si  5.50  1.12  3.06
Si  5.54 -3.18  0.01
Si -1.84 -5.35  2.98
Si -5.57  1.07  2.96
Si  3.71 -4.28 -3.00
Si -0.01 -2.18 -6.03
Si  5.50 -1.09 -3.13
Si -1.85  5.37 -3.02
Si  0.03  2.17  6.07
Si  1.82 -1.01  6.11
Si  3.68  4.35  3.10
Si  1.82  1.10 -6.13
Si -5.58 -3.32 -0.02
Si -0.08  0.02  6.69
Si -5.48  3.10 -2.26
Si -3.61 -4.18  3.78
Si  5.47  3.17 -2.21
Si -1.77  5.33  3.71
Si  0.06  6.34 -2.25
Si  3.65  2.09 -5.27
Si -5.53 -1.03  3.75
Si -0.07 -6.40 -2.22
Si -5.55 -3.20 -2.27
Si  3.69 -4.28  3.79
Si -3.73  2.10 -5.30
Si  5.56 -3.22 -2.31
Si  5.60 -1.00  3.78
Si -0.01 -4.35 -5.27
Si  1.86  5.39  3.86
Si  0.03 -4.13  5.99
Si -3.65 -2.01 -6.01
Si  3.67  6.37 -0.04
Si -3.68  2.12  6.00
Si  7.35  0.05  0.04
Si  3.66 -6.38 -0.00
Si -3.71  6.38 -0.00
Si -3.71 -6.40 -0.04
Si -7.40  0.05  0.04
Si  3.69 -2.14 -6.04
Si  3.73  2.25  6.04
Si  0.02  4.38 -6.05
Si  3.55  6.30 -2.30
Si  7.27 -0.01 -2.23
Si -3.65 -4.14 -5.23
Si -5.50 -1.07 -5.16
Si  1.81  7.40  0.84
Si -1.84  5.32 -5.23
Si -1.88  7.42  0.73
Si  1.90 -3.14  6.76
Si  5.50 -5.35  0.73
Si  5.51 -1.00 -5.30
Si -7.37 -2.15  0.75
Si -3.65 -0.00  6.80
Si  3.72 -4.26 -5.25
Si -3.75  6.35 -2.28
Si  3.62 -6.42 -2.28
Si -1.87  3.26  6.74
Si  7.39 -2.15  0.75
Si -1.84 -3.19  6.81
Si  3.73  0.12  6.81
Si  1.90  5.37 -5.28
Si -5.57 -5.37  0.84
Si -7.49 -0.01 -2.23
Si  1.87  3.19  6.88
Si -3.82 -6.47 -2.30
Si  5.47  5.30 -3.00
Si  5.47 -1.03  6.01
Si  3.70  4.21 -5.98
Si -5.57  1.02 -5.94
Si -5.49 -1.05  6.02
Si  7.37  2.13 -2.93
Si -3.65  4.25 -6.01
Si -5.48 -5.29  3.07
Si -7.35 -2.13  3.00
Si -7.38  2.13 -2.93
Si  5.52 -5.31  3.00
Si -3.65 -4.26  6.03
Si -1.91 -5.29 -6.03
Si  1.89 -5.31 -6.02
Si -1.82  5.39  5.98
Si -1.86  7.46  3.00
Si  1.78 -7.48 -3.03
Si  7.40 -2.13  3.00
Si  1.80  5.28  6.10
Si -1.91 -7.47 -3.00
Si -5.60  5.29 -3.03
Si  5.55  1.13 -6.06
Si  3.70 -4.30  6.06
Si  1.89  7.48  3.07
Si  1.85 -7.37  3.67
Si -0.04 -2.12 -8.25
Si -1.78  1.03 -8.27
Si  7.33  2.14  3.79
Si  0.01 -8.50  0.78
Si -7.37  4.27  0.78
Si -5.52  5.40  3.67
Si -1.78 -7.48  3.77
Si  7.39  4.27  0.78
Si  5.59  5.29  3.77
Si -7.42  2.14  3.79
Si  1.85  1.14 -8.37
Si  0.04 -0.03  8.95
Si -7.34  4.23  3.04
Si  0.04 -0.03 -9.01
Si  0.03  8.48 -3.09
Si -7.34 -4.29 -3.09
Si  7.41  4.23  3.04
Si  0.04 -8.54  3.04
Si  7.41 -4.29 -3.09
Si -0.03 -6.29  6.68
Si  7.35  2.12 -5.16
Si -3.73 -2.08 -8.21
Si -5.50 -3.18  6.76
Si -7.41  2.12 -5.16
Si  0.00  8.48  3.76
Si -5.57  3.25  6.68
Si  5.49  7.46  0.69
Si -1.80 -7.42 -5.29
Si  9.22  1.04  0.73
Si -5.50  5.33 -5.28
Si  5.57 -3.16  6.75
Si  1.88 -7.44 -5.28
Si -7.37 -4.28  3.76
Si  7.38 -4.28  3.76
Si -5.51  7.49  0.71
Si -3.71 -8.52  0.83
Si  3.64 -2.13 -8.32
Si  5.60  3.18  6.77
Si  3.71 -8.56  0.75
Si  5.57  5.35 -5.29
Si  0.01  4.29 -8.32
Si -9.28  1.08  0.83
Si -0.03  6.38  6.88
Si  1.79  9.45 -0.02
Si -1.88  3.17  8.91
Si  1.82 -7.41  5.92
Si -3.70  0.09 -8.95
Si  9.18 -1.06 -2.89
Si -5.55 -5.27 -5.93
Si -7.35 -2.08 -5.97
Si -1.88 -3.14 -8.98
Si -3.70 -8.42  3.10
Si  9.18  1.07  2.96
Si  3.71 -8.46  2.97
Si  5.52 -7.39 -3.02
Si -3.67  8.49 -3.00
Si -5.56  5.36  5.92
Si -1.85 -3.13  9.02
Si  5.54  7.42  2.98
Si  1.82  7.50 -5.93
Si  7.30 -6.43  0.04
Si  9.21  3.16 -0.03
Si  7.37  2.08  6.02
Si  7.41 -2.08 -5.97
Si -9.21 -3.18  0.01
Si  3.68  8.52 -2.98
Si -7.39  2.08  6.02
Si  9.17 -3.32 -0.02
Si -7.36  6.41  0.01
Si -1.81 -7.46  6.02
Si  1.80 -3.32  9.00
Si -1.84  9.59  0.01
Si -3.67 -0.02  9.05
Si -1.87 -9.58  0.07
Si  5.57  5.31  6.02
Si -5.53  7.50  2.95
Si -1.84  3.16 -9.06
Si  3.68  0.01  9.06
Si -1.91  7.41 -6.09
Si  1.83 -9.61 -0.03
Si -9.25  3.19  0.07
Si  5.47 -5.36 -6.09
Si  7.40  6.41  0.01
Si  1.80 -3.19 -9.08
Si  3.71  0.05 -9.07
Si -9.26  1.12  3.06
Si  1.85  3.24 -9.09
Si -9.26 -1.09 -3.13
Si -7.45 -6.43  0.04
Si  1.80  3.20  9.15
Si -5.58 -7.58 -3.05
Si -5.51  1.13 -8.18
Si  7.31  6.37 -2.22
Si -9.15 -1.00  3.78
Si  3.64  6.36  6.75
Si -1.81  1.04  9.74
Si -1.77 -5.26 -8.27
Si  3.69  4.23 -8.25
Si -5.51 -7.38  3.86
Si -1.82  9.55 -2.31
Si -7.31 -6.43 -2.25
Si  7.30 -4.24 -5.36
Si  1.82  1.06  9.77
Si  1.82  9.57 -2.27
Si  9.20 -3.20 -2.27
Si -3.72  6.35  6.78
Si  7.36 -0.09  6.78
Si -3.69  8.49  3.79
Si -3.61  4.33 -8.27
Si  1.85 -5.29 -8.29
Si -9.19 -3.22 -2.31
Si  9.22 -1.03  3.75
Si  3.65 -6.42  6.78
Si  0.06 -2.17  9.79
Si -7.39 -0.09  6.78
Si -3.73 -6.42  6.75
Si  9.27  3.10 -2.26
Si -1.90 -9.60 -2.21
Si  5.61 -7.44  3.71
Si -7.44  6.37 -2.22
Si -9.28  3.17 -2.21
Si -0.08  8.53 -5.36
Si  7.44 -6.43 -2.25
Si  5.61  1.07 -8.33
Si  3.76  8.59  3.78
Si -7.45 -4.24 -5.36
Si  1.90 -9.68 -2.26
Si  0.02 -8.49 -6.01
Si -7.36 -4.23  6.04
Si -7.36  4.28 -6.01
Si  7.40 -4.23  6.04
Si  7.39  4.28 -6.01
Si  0.02  8.54  6.04
Si  3.55 -2.21  9.74
Si -5.48 -7.40 -5.28
Si -3.65  8.51 -5.25
Si  9.25 -1.07 -5.16
Si  0.01 10.62  0.75
Si  5.54 -7.45 -5.23
Si  9.19 -5.37  0.84
Si -3.75 -2.16  9.77
Si -0.11  4.25  9.81
Si -9.24 -1.00 -5.30
Si -9.26 -5.35  0.73
Si  3.72  8.63 -5.23
Si  9.18  1.02 -5.94
Si  0.02 -6.38  8.95
Si  9.15  5.29 -3.03
Si -5.48  3.22 -8.97
Si  5.55 -7.38  5.98
Si -5.54  3.23  8.95
Si -11.02 -0.05  0.01
Si  5.52  3.13  9.01
Si 11.03 -0.02 -0.03
Si -0.00 -10.64 -2.93
Si -5.49  7.46 -6.02
Si  5.47 -3.21  9.04
Si -3.68  8.47  6.06
Si  5.46  7.48 -6.03
Si  0.02 10.64  3.00
Si  5.52  3.20 -9.04
Si -9.23 -5.31  3.00
Si -5.56 -3.21 -9.01
Si -3.68 -8.56 -5.98
Si  0.03 -6.39 -9.04
Si  5.54 -3.13 -9.06
Si -9.20  1.13 -6.06
Si  3.72  8.51  6.03
Si  3.72 -8.52 -6.01
Si -5.55 -9.58  0.05
Si -5.52  9.60 -0.00
Si -5.60 -3.22  9.01
Si  5.57  9.60 -0.00
Si  9.27 -1.05  6.02
Si -9.28  5.30 -3.00
Si  9.27 -5.29  3.07
Si  5.54 -9.63 -0.03
Si -9.29 -1.03  6.01
Si -0.01  6.39  9.11
Si -5.57 -7.49  6.10
Si  0.04  6.46 -9.09
Si  3.62 10.58  0.72
Si -5.49 -5.34 -8.20
Si  1.89  7.42 -8.20
Si -9.16  5.29  3.77
Si 10.99 -2.19  0.72
Si  5.56  9.50 -2.28
Si  7.36 -2.10 -8.24
Si -1.81 -5.28  9.76
Si -7.39 -2.10 -8.24
Si  0.01  0.01 -11.27
Si -5.50  1.14  9.78
Si -3.68 10.62  0.82
Si  5.57 -9.54 -2.28
Si  5.56  0.99  9.76
Si  3.70  4.22  9.78
Si  7.33 -8.54  0.75
Si -0.04 -10.63  3.79
Si -11.06 -2.15  0.82
Si  5.55 -5.27 -8.31
Si -3.73  4.20  9.81
Si  9.23  5.40  3.67
Si 11.08 -0.04 -2.26
Si -11.10 -0.06 -2.23
Si -5.50  9.65 -2.27
Si -7.42 -8.54  0.75
Si -1.82  7.50 -8.31
Si -5.50 -9.69 -2.23
Si  1.88 -5.42  9.82
Si -10.97 -2.13  3.06
Si -3.59 -6.39 -8.98
Si -7.29 -8.52  3.01
Si -7.29 -0.01 -9.04
Si -7.31  0.01  9.03
Si -7.31  8.52 -3.01
Si -3.59 -6.40  9.01
Si -3.71  6.30  9.05
Si -3.59 10.64  3.06
Si  3.78  6.38 -8.98
Si  3.71 -6.34 -9.04
Si -11.09  2.04 -2.99
Si  3.78  6.37  9.01
Si 11.09 -2.08  3.00
Si -3.67  6.43 -9.04
Si  7.45  0.01  9.03
Si  3.71 10.69  3.00
Si  7.45  8.52 -3.01
Si  3.78 -10.66 -3.03
Si  3.67 -6.46  9.05
Si  7.46 -0.01 -9.04
Si  7.46 -8.52  3.01
Si -3.71 -10.72 -2.99
Si 11.16  2.11 -3.03
Si  1.81 -9.52  6.68
Si -3.71 -0.01 -11.21
Si -1.90 -3.17 -11.21
Si  9.19  3.25  6.68
Si -9.15  3.18  6.77
Si 11.02  2.13  3.72
Si -9.18 -3.16  6.75
Si -0.03 -10.65 -5.16
Si  3.65 -10.64  3.72
Si  7.35  6.48  6.68
Si -3.73 -10.59  3.83
Si -1.90 -11.68  0.83
Si -1.77 -9.59  6.77
Si -7.38  4.23 -8.29
Si  7.38  4.23 -8.29
Si -9.18  5.35 -5.29
Si 11.08  4.21  0.75
Si -1.81  9.61  6.75
Si -7.37  8.55  3.72
Si  3.71 -0.05 -11.29
Si  1.88  9.59  6.76
Si -7.40  6.48  6.68
Si  1.84 -11.72  0.73
Si  9.26 -3.18  6.76
Si  7.39  8.55  3.72
Si  0.00 -8.54 -8.29
Si  1.84 -3.21 -11.31
Si -11.09  4.25  0.83
Si -9.26  7.46  0.69
Si  9.24  7.49  0.71
Si  9.26  5.33 -5.28
Si  7.35 -6.39  6.88
Si  1.87  3.23 -11.33
Si -1.88  3.20 -11.35
Si -11.11  2.19  3.83
Si -7.41 -6.39  6.88
Si  9.20 -5.27 -5.93
Si -1.87 -1.07 -11.97
Si  9.20  5.36  5.92
Si  1.79  0.94 12.02
Si -1.88 -11.65  3.06
Si  1.80 11.71 -2.89
Si  1.80 -11.70  2.96
Si -9.19  5.31  6.02
Si -9.22  7.42  2.98
Si -9.23 -7.39 -3.02
Si 11.05 -4.25 -2.98
Si -11.04 -4.28 -3.00
Si  0.02  2.15 -12.03
Si -1.88 11.68 -3.13
Si -1.84  1.08 12.05
Si  0.03 10.69 -5.97
Si  9.22  7.50  2.95
Si  1.83 -1.10 -12.07
Si 11.09  4.31  2.97
Si -0.01 -10.69  6.02
Si -0.07 -2.17 12.08
Si  9.17 -7.58 -3.05
Si -11.07  4.35  3.10
Si -9.28 -5.36 -6.09
Si  7.36  8.42 -5.27
Si -9.14 -7.44  3.71
Si -7.39  8.42 -5.27
Si  1.89  7.36  9.78
Si  9.24  1.13 -8.18
Si  3.77 -8.44 -8.27
Si 11.02  2.10 -5.30
Si -9.15  1.07 -8.33
Si  7.31 -2.14  9.82
Si -3.69 -8.54 -8.25
Si  9.24 -7.38  3.86
Si -5.48 -5.42  9.78
Si -11.06 -4.28  3.79
Si -5.53  7.48 -8.29
Si  5.47 -5.34  9.84
Si  1.84 11.74  3.75
Si -11.10  2.09 -5.27
Si  3.65 -10.68 -5.30
Si -1.90  7.43  9.84
Si -3.72 -10.68 -5.27
Si -1.78 11.76  3.78
Si 11.14 -4.18  3.78
Si  5.60  7.50 -8.27
Si -7.44 -2.14  9.82
Si -3.65 -10.52  6.04
Si -7.35 -8.39 -6.05
Si -0.02 -4.21 -12.00
Si -0.02 -12.72  0.04
Si  7.40 -8.39 -6.05
Si  3.67 -2.14 12.00
Si 11.04  6.38 -0.00
Si 11.04 -6.40 -0.04
Si -3.68 10.63 -6.04
Si  3.66  2.12 -12.05
Si -11.03  2.25  6.04
Si 11.07  2.12  6.00
Si  3.70 -10.65  6.00
Si -3.71 -2.13 12.04
Si -11.06 -2.14 -6.04
Si 11.10 -2.01 -6.01
Si -11.09  6.37 -0.04
Si -11.09 -6.38 -0.00
Si -3.71  2.11 -12.09
Si -0.02 12.82  0.04
Si -7.35  8.64  5.99
Si -0.02  4.31 12.09
Si  7.40  8.64  5.99
Si  3.73 10.76 -6.01
Si  5.51 -9.51  6.74
Si -5.57  3.14 -11.20
Si 11.00  6.35 -2.28
Si 10.93 -6.47 -2.30
Si  1.87 11.70 -5.16
Si -11.03 -4.26 -5.25
Si -7.36 10.62  0.75
Si -5.51 -3.21 -11.27
Si 11.10 -4.14 -5.23
Si -9.21 -7.45 -5.23
Si -12.89  1.05  0.77
