500
set: 1354.00  0.00  0.00
Si  0.79  0.56  1.28
Si -1.29 -0.28 -1.15
Si -1.29 -1.75  0.75
Si  2.19 -1.16 -0.00
Si -0.86  2.39  0.75
Si  0.45  0.78 -2.50
Si -0.95 -0.49  2.64
Si -2.77  1.43  0.13
Si  2.30  1.79 -1.89
Si  1.88 -2.35 -1.89
Si  2.64  1.57  1.90
Si -1.63 -1.53 -3.04
Si  0.36 -3.57  1.28
Si  2.22 -2.56  1.90
Si  2.62  2.97 -0.00
Si -0.86  3.86 -1.15
Si -1.21  2.61 -3.04
Si  0.02 -3.35 -2.50
Si -3.20 -2.71  0.13
Si  1.85 -0.94 -3.79
Si -0.52  3.64  2.64
Si  4.54 -0.89 -0.51
Si -4.47  0.30  1.39
Si  2.54 -1.38  3.79
Si -2.43  1.21  3.92
Si -4.75 -0.89 -0.51
Si -1.71 -4.41 -1.15
Si  1.21  4.70  1.28
Si  4.82  0.30  1.39
Si -0.95 -1.97  4.54
Si -0.52  2.17  4.54
Si -3.11  1.65 -3.66
Si  4.48  0.52 -2.40
Si -1.63 -0.06 -4.94
Si  1.13  0.35  5.07
Si -4.81  0.52 -2.40
Si -4.33  3.24 -0.51
Si  2.28  3.19 -3.79
Si -1.37 -4.63  2.64
Si  2.96  2.75  3.79
Si  1.77 -5.30 -0.00
Si  0.87  4.92 -2.50
Si -4.41 -1.11  3.28
Si -2.85 -2.93  3.92
Si -3.54 -2.49 -3.66
Si  4.05 -3.62 -2.40
Si  4.96  3.24 -0.51
Si  4.88 -1.11  3.28
Si -3.99  3.02  3.28
Si  4.40 -3.84  1.39
Si -2.35  5.56  0.13
Si  4.20 -0.67 -4.30
Si -4.05  4.43  1.39
Si -1.71 -5.88  0.75
Si  1.54 -2.13 -5.68
Si  1.96  2.01 -5.68
Si  0.11  1.00 -6.29
Si  0.71 -3.79  5.07
Si -4.89 -3.84  1.39
Si -0.61 -0.71  6.42
Si  1.43 -5.08 -3.79
Si -1.21  4.08 -4.94
Si  4.12 -5.03 -0.51
Si  2.98  1.35  5.68
Si -0.44  6.52  0.75
Si -4.13  0.08  5.18
Si  6.09 -2.71  0.13
Si  6.52  1.43  0.13
Si -5.09 -0.67 -4.30
Si -2.05 -5.66 -3.04
Si  3.06  5.71  1.90
Si  2.72  5.92 -1.89
Si -2.05 -4.19 -4.94
Si -5.24 -3.62 -2.40
Si  2.56 -2.78  5.68
Si -4.39  4.65 -2.40
Si  1.46 -6.48 -1.89
Si -2.01  5.34  3.92
Si  5.30  3.02  3.28
Si  1.55  4.48  5.07
Si  5.24  4.43  1.39
Si  2.11 -5.52  3.79
Si -0.32 -3.13 -6.29
Si -6.65  1.57  1.90
Si  4.90  4.65 -2.40
Si  1.80 -6.70  1.90
Si -7.10 -1.16 -0.00
Si  4.62  3.46 -4.30
Si -1.97 -1.31 -6.83
Si -4.67  3.46 -4.30
Si -5.18 -5.03 -0.51
Si  5.75 -2.49 -3.66
Si -0.18  3.42  6.42
Si -6.67  2.97 -0.00
Si  5.16  0.08  5.18
Si -2.69  5.78 -3.66
Si  6.18  1.65 -3.66
Si -0.78  6.74 -3.04
Si -6.99  1.79 -1.89
Si  3.77 -4.81 -4.30
Si  4.14  0.73 -6.18
Si -1.55  2.83 -6.83
Si  4.46 -5.25  3.28
Si -3.71  4.21  5.18
Si -1.37 -6.10  4.54
Si  3.04  7.11 -0.00
Si -3.62 -6.84  0.13
Si -7.07 -2.56  1.90
Si  1.51 -0.72 -7.58
Si -0.10  6.30  4.54
Si -0.06 -7.71  1.28
Si -4.83 -5.25  3.28
Si -6.76 -1.38  3.79
Si -6.33  2.75  3.79
Si -0.40 -7.49 -2.50
Si  3.71 -3.40 -6.18
Si  6.86  1.21  3.92
Si -4.55 -4.06  5.18
Si -7.41 -2.35 -1.89
Si -2.09  0.99  7.70
Si  6.44 -2.93  3.92
Si -5.15  0.73 -6.18
Si -0.44  7.99 -1.15
Si  8.00 -0.28 -1.15
Si  4.74 -4.06  5.18
Si -1.03 -4.85  6.42
Si  0.53  5.14 -6.29
Si -0.10  7.78  2.64
Si  8.00 -1.75  0.75
Si  2.88 -1.60  7.57
Si -4.07 -1.33  7.07
Si -3.91  7.38 -0.51
Si  7.66 -1.53 -3.04
Si -7.44 -0.94 -3.79
Si -3.46  1.86 -7.45
Si -3.65  2.81  7.07
Si -5.52 -4.81 -4.30
Si  1.11 -6.26 -5.68
Si  1.94  3.41 -7.58
Si -3.96 -6.62 -3.66
Si -0.18  1.95  8.33
Si  3.38  6.89  3.79
Si -7.01  3.19 -3.79
Si -6.31  1.35  5.68
Si  3.41  5.49  5.68
Si -8.50  0.56  1.28
Si -0.61 -2.18  8.33
Si  3.30  2.54  7.57
Si -3.57  7.16  3.28
Si -6.23  5.71  1.90
Si  2.70  7.33 -3.79
Si -2.51 -3.15  7.70
Si  2.38  6.14 -5.68
Si -3.88 -2.27 -7.45
Si  5.58  4.21  5.18
Si -3.28 -7.06  3.92
Si  8.34 -0.49  2.64
Si  8.43  2.39  0.75
Si  7.58 -4.41 -1.15
Si -2.13 -8.55 -1.15
Si  5.22 -1.33  7.07
Si  5.67 -6.84  0.13
Si  3.63 -7.75 -2.40
Si  6.94  5.56  0.13
Si -1.97  0.16 -8.73
Si  3.86 -0.46 -8.09
Si  1.47  0.13  8.86
Si -5.58 -3.40 -6.18
Si  3.97 -7.97  1.39
Si  8.09  2.61 -3.04
Si -6.57  5.92 -1.89
Si -2.39 -5.44 -6.83
Si  1.09 -4.86 -7.58
Si  1.63  8.84  1.28
Si  4.56  4.87 -6.18
Si  7.66 -0.06 -4.94
Si  5.38  7.38 -0.51
Si -4.73  4.87 -6.18
Si -7.52 -5.30 -0.00
Si  2.14 -6.92  5.68
Si -8.84  0.78 -2.50
Si -6.73 -2.78  5.68
Si  5.33 -6.62 -3.66
Si -1.79 -8.77  2.64
Si  8.43  3.86 -1.15
Si -1.67  5.12  7.70
Si -3.63  8.57  1.39
Si  0.28 -7.92  5.07
Si -8.08  4.70  1.28
Si -6.25  7.11 -0.00
Si  5.64  2.81  7.07
Si  1.29  9.05 -2.50
Si  5.41 -2.27 -7.45
Si -7.33  2.01 -5.68
Si  6.60  5.78 -3.66
Si  1.35 -9.43 -0.00
Si  7.92 -4.63  2.64
Si -0.78  8.21 -4.94
Si -8.16  0.35  5.07
Si  7.58 -5.88  0.75
Si -0.74 -7.27 -6.29
Si  5.84  1.86 -7.45
Si  7.24 -5.66 -3.04
Si -5.32 -7.97  1.39
Si -8.93 -3.57  1.28
Si  8.34 -1.97  4.54
Si -4.25  7.60 -4.30
Si  7.24 -4.19 -4.94
Si  1.20 -1.91 -9.47
Si  5.72  7.16  3.28
Si -3.79 -0.14  8.97
Si -5.43 -0.46 -8.09
Si  1.05 -4.01  8.86
Si  2.45 -5.74  7.57
Si -7.18 -5.52  3.79
Si -1.12  6.96 -6.83
Si -5.91  6.89  3.79
Si -7.75 -2.13 -5.68
Si  7.28  5.34  3.92
Si -1.55  4.30 -8.73
Si  8.77  3.64  2.64
Si -5.88  5.49  5.68
Si  1.62  2.23 -9.47
Si  4.28  3.68 -8.09
Si -2.39 -3.97 -8.73
Si -1.93  9.70  0.13
Si  3.69 -9.16 -0.51
Si -5.66 -7.75 -2.40
Si  3.43 -4.59 -8.09
Si  0.24  7.56  6.42
Si -3.97  8.78 -2.40
Si -5.99  2.54  7.57
Si -2.48 -8.33 -4.94
Si -4.49 -5.46  7.07
Si  1.89  4.26  8.86
Si  1.01 -9.21 -3.79
Si -3.03  6.00 -7.45
Si -6.42 -1.60  7.57
Si  6.01 -7.06  3.92
Si -8.42  4.92 -2.50
Si  5.04  7.60 -4.30
Si  9.74  0.78 -2.50
Si  7.32 -1.31 -6.83
Si -7.86 -5.08 -3.79
Si  3.32  1.13  9.47
Si  8.77  2.17  4.54
Si  4.80 -5.46  7.07
Si -0.23  1.22 -10.08
Si -9.27 -3.35 -2.50
Si 10.08  0.56  1.28
Si  1.98  8.62  5.07
Si -5.01  3.68 -8.09
Si  9.31 -3.35 -2.50
Si -7.50 -6.70  1.90
Si -0.27 -0.93 10.21
Si -2.13 -10.02  0.75
Si -7.74  4.48  5.07
Si  3.29 -7.54 -6.18
Si  8.09  4.08 -4.94
Si  0.24  6.09  8.33
Si -7.84 -6.48 -1.89
Si  2.90 -3.00  9.47
Si -3.29  8.35  5.18
Si  5.67  8.57  1.39
Si  9.66 -3.57  1.28
Si -3.37  3.99  8.97
Si -1.59  9.48  3.92
Si -3.23  6.94  7.07
Si -10.16  2.39  0.75
Si  3.35 -8.94 -4.30
Si -1.03 -6.32  8.33
Si  1.69 -9.65  3.79
Si -0.66 -2.91 -10.08
Si  5.50 -0.14  8.97
Si  5.32  8.78 -2.40
Si -2.48 -9.80 -3.04
Si -6.59  7.33 -3.79
Si -10.24 -0.49  2.64
Si  7.20  0.99  7.70
Si  4.31 -8.19  5.18
Si  3.49  9.84  1.90
Si -10.58 -0.28 -1.15
Si -8.59 -3.79  5.07
Si -0.02 10.66  0.75
Si  7.74  2.83 -6.83
Si  0.16  3.20 10.21
Si  3.15 10.06 -1.89
Si  3.80  0.95 -9.97
Si -4.30 -6.41 -7.45
Si  4.03 -9.38  3.28
Si  6.78 -3.15  7.70
Si -10.58 -1.75  0.75
Si -5.60 -9.16 -0.51
Si  3.72  6.67  7.57
Si -4.21 -4.28  8.97
Si -9.82  3.64  2.64
Si -2.27  9.92 -3.66
Si  8.69 -0.71  6.42
Si  1.03 -10.62 -1.89
Si -6.91  6.14 -5.68
Si -7.78 -0.72 -7.58
Si -4.98 -8.19  5.18
Si -2.31 -1.09 -10.61
Si -10.16  3.86 -1.15
Si  2.36  7.54 -7.58
Si  7.92 -6.10  4.54
Si -5.86 -4.59 -8.09
Si -2.94 -7.28  7.70
Si  3.37 -3.18 -9.97
Si  4.99 -6.41 -7.45
Si  8.85  6.52  0.75
Si -9.82  2.17  4.54
Si  1.37 -10.83  1.90
Si -7.36  3.41 -7.58
Si  6.90 -5.44 -6.83
Si -1.45 -8.98  6.42
Si  5.08 -4.28  8.97
Si -9.19  1.00 -6.29
Si -1.89  3.04 -10.61
Si  7.16 -8.55 -1.15
Si -10.50  2.61 -3.04
Si -5.26 -9.38  3.28
Si  0.95  9.27 -6.29
Si -5.97  1.13  9.47
Si  0.77 -6.04 -9.47
Si  8.51  6.74 -3.04
Si -0.36 10.88 -3.04
Si -1.79 -10.23  4.54
Si  9.40  1.00 -6.29
Si -10.24 -1.97  4.54
Si  0.32 10.44  4.54
Si  7.32  0.16 -8.73
Si  8.97 -3.13 -6.29
Si  0.19  5.36 -10.08
Si -0.69 -5.07 10.21
Si -5.50  0.95 -9.97
Si  6.26  6.00 -7.45
Si  1.17 -0.51 -11.37
Si -10.92 -1.53 -3.04
Si -6.00 -7.54 -6.18
Si -7.15 -6.92  5.68
Si  5.92  3.99  8.97
Si  3.75  5.27  9.47
Si  6.01  8.35  5.18
Si -5.57  6.67  7.57
Si  8.26 -4.85  6.42
Si 11.48 -1.16 -0.00
Si 10.16  4.92 -2.50
Si -5.94 -8.94 -4.30
Si 11.17 -2.35 -1.89
Si 10.50  4.70  1.28
Si -3.73 -1.55 10.85
Si -5.80  9.84  1.90
Si  2.04  6.36 -9.47
Si 10.42  0.35  5.07
Si  6.07  6.94  7.07
Si -3.31  2.59 10.85
Si -1.75  0.77 11.49
Si  9.11  3.42  6.42
Si -4.04 -10.98  0.13
Si -6.84 -5.74  7.57
Si -9.73  6.52  0.75
Si -4.31  9.00 -6.18
Si -8.18 -6.26 -5.68
Si -7.66  8.84  1.28
Si  3.46 11.24 -0.00
Si  0.67 -8.99 -7.58
Si 11.14 -0.94 -3.79
Si  6.90 -3.97 -8.73
Si  3.83  9.62  5.68
Si -6.39 -3.00  9.47
Si -7.82  0.13  8.86
Si -9.90 -0.71  6.42
Si  7.50 -8.77  2.64
Si 10.00 -3.79  5.07
Si  6.82 -8.33 -4.94
Si  0.69 -10.40 -5.68
Si 11.59  1.79 -1.89
Si  8.89 -7.49 -2.50
Si -9.61 -3.13 -6.29
Si -11.00 -4.41 -1.15
Si -0.82 -11.62 -2.50
Si -10.66 -4.63  2.64
Si -0.48 -11.84  1.28
Si -6.14 10.06 -1.89
Si 11.51 -2.56  1.90
Si -8.76  5.14 -6.29
Si  3.22 -1.82 11.36
Si -9.47  3.42  6.42
Si  4.22  5.09 -9.97
Si  8.85  7.99 -1.15
Si -10.92 -0.06 -4.94
Si  7.62  5.12  7.70
Si  4.98  9.00 -6.18
Si -5.92 -3.18 -9.97
Si  9.19  6.30  4.54
Si  1.59  3.63 -11.37
Si -3.48 11.51 -0.51
Si -3.80  2.08 -11.24
Si  0.62 -8.14  8.86
Si  2.81 10.28 -5.68
Si -2.82 -9.58 -6.83
Si  9.23 -7.71  1.28
Si -1.25  9.26  7.70
Si  2.48 -7.14  9.47
Si -2.73 -5.22 -10.61
Si -4.59  7.82 -8.09
Si -12.06  1.43  0.13
Si  3.64  2.32 11.36
Si -2.17 -3.36 11.49
Si  5.25 -10.98  0.13
Si -3.14 11.29  3.28
Si -5.54  5.27  9.47
Si -4.22 -2.05 -11.24
Si  7.36  9.70  0.13
Si -8.20 -4.86 -7.58
Si -4.38 -10.76 -3.66
Si -9.35 -7.71  1.28
Si -0.02 12.13 -1.15
Si 11.93  1.57  1.90
Si -1.12  8.43 -8.73
Si  4.70  7.82 -8.09
Si -9.39  6.30  4.54
Si  0.32 11.91  2.64
Si  8.69 -2.18  8.33
Si  0.16  1.73 12.11
Si -2.82 -8.11 -8.73
Si  3.80 11.02  3.79
Si 11.06 -5.30 -0.00
Si  3.01 -8.72 -8.09
Si 11.91  2.97 -0.00
Si -5.07  5.09 -9.97
Si  5.56 -1.55 10.85
Si -10.50  4.08 -4.94
Si  0.75 -4.64 -11.37
Si -7.40  4.26  8.86
Si  6.82 -9.80 -3.04
Si  9.19  7.78  2.64
Si -7.94 -9.43 -0.00
Si  7.16 -10.02  0.75
Si -8.00  9.05 -2.50
Si -1.08 -7.05 -10.08
Si -0.27 -2.40 12.11
Si  6.35 -7.28  7.70
Si  4.91 -10.76 -3.66
Si  3.52 -0.24 -11.87
Si -7.67  2.23 -9.47
Si -7.32  8.62  5.07
Si 10.83 -2.13 -5.68
Si -11.72  1.21  3.92
Si -3.70 -11.20  3.92
Si  2.32  8.40  8.86
Si  7.74  4.30 -8.73
Si -5.46  9.62  5.68
Si 10.72 -5.08 -3.79
Si -2.94  8.13  8.97
Si  3.12 11.46 -3.79
Si -9.39  7.78  2.64
Si  9.11  1.95  8.33
Si 11.83 -1.38  3.79
Si  5.07 -2.05 -11.24
Si -10.07  6.74 -3.04
Si -9.69 -7.49 -2.50
Si -11.00 -5.88  0.75
Si  1.71 -11.05  5.68
Si  3.21 -11.89 -2.40
Si -1.33  4.91 11.49
Si 11.57  3.19 -3.79
Si  0.58  7.34 10.21
Si -8.10 -1.91 -9.47
Si  2.03 -9.87  7.57
Si -9.73  7.99 -1.15
Si  5.98  2.59 10.85
Si -5.83 11.24 -0.00
Si  5.50  2.08 -11.24
Si  7.02  9.92 -3.66
Si 10.75 -6.48 -1.89
Si  3.55 -12.11  1.39
Si  4.37 -9.60  7.07
Si  2.95 -7.32 -9.97
Si  8.17  6.96 -6.83
Si -2.31  0.38 -12.51
Si -6.93  7.54 -7.58
Si  9.82  5.14 -6.29
Si -8.24 -4.01  8.86
Si  6.98 -1.09 -10.61
Si 11.25  2.01 -5.68
Si -9.47  1.95  8.33
Si  1.81 -0.09 12.65
Si -12.49 -2.71  0.13
Si 10.84  4.48  5.07
Si  8.51  8.21 -4.94
Si  7.71  9.48  3.92
Si -2.61 10.13 -7.45
Si -7.60 -9.65  3.79
Si  8.55 -7.27 -6.29
Si -5.49 11.02  3.79
Si -4.92 -9.60  7.07
Si -1.47  7.18 -10.61
Si -5.65  2.32 11.36
