500
set: 1141.00  0.00  0.00
Si -0.02  0.03  0.03
Si  0.05 -0.01 -2.39
Si  0.01 -0.04  2.47
Si  1.24 -2.20  0.04
Si  2.54 -0.03 -0.06
Si -2.54  0.04 -0.04
Si -1.27 -2.20 -0.02
Si  1.32  2.20  0.06
Si -1.24  2.26  0.04
Si -1.22  2.14  2.42
Si -1.26  2.15 -2.40
Si  2.52 -0.09  2.37
Si  1.29 -2.19 -2.38
Si  1.29  2.21 -2.36
Si -1.27 -2.23 -2.39
Si -1.34 -2.20  2.38
Si -2.53 -0.06 -2.44
Si -2.64  0.00  2.37
Si  1.26 -2.22  2.47
Si  1.37  2.20  2.46
Si  2.61  0.02 -2.46
Si  0.00  4.39 -0.08
Si  3.83  2.16  0.00
Si -3.83 -2.17 -0.04
Si -3.80  2.26 -0.00
Si  3.84 -2.21 -0.01
Si -0.03 -4.45 -0.04
Si -0.03  0.12 -4.75
Si -0.03  0.12  4.86
Si -0.02 -4.38  2.38
Si  3.80 -2.17 -2.41
Si  0.01  4.41  2.36
Si -3.77 -2.28  2.36
Si  3.83  2.18  2.37
Si  2.52 -4.34  0.03
Si -3.80  2.24 -2.40
Si  0.02 -4.43 -2.44
Si  3.82 -2.26  2.42
Si  3.88  2.19 -2.41
Si -0.07  4.44 -2.46
Si -2.53 -4.42 -0.01
Si -3.88  2.30  2.38
Si -5.10 -0.02  0.06
Si -3.89 -2.29 -2.42
Si  2.58  4.43 -0.01
Si  5.12 -0.02  0.06
Si -2.60  4.51  0.03
Si  1.22 -2.19 -4.76
Si  2.54 -0.02  4.76
Si -2.56  0.01  4.78
Si  1.24  2.27 -4.78
Si -1.31  2.27 -4.77
Si -1.30 -2.22 -4.80
Si -1.30 -2.22  4.82
Si  1.22 -2.19  4.85
Si -2.56  0.01 -4.83
Si  2.54 -0.02 -4.85
Si  1.24  2.27  4.83
Si -1.31  2.27  4.85
Si -5.03 -0.03 -2.39
Si  2.57 -4.40 -2.35
Si -2.53  4.37  2.44
Si  2.55  4.37 -2.42
Si  2.58  4.40  2.37
Si -2.52 -4.45  2.37
Si -2.55  4.45 -2.35
Si -5.09  0.02  2.46
Si  5.14  0.02  2.46
Si -2.55 -4.48 -2.42
Si  5.19 -0.03 -2.39
Si  2.59 -4.47  2.44
Si -3.80  2.17  4.78
Si -3.80  2.17 -4.84
Si -3.84 -2.21  4.80
Si -0.01  4.44  4.79
Si -0.03 -4.44  4.80
Si  3.88 -2.18 -4.78
Si -3.84 -2.21 -4.82
Si -0.03 -4.44 -4.82
Si  3.85  2.24  4.80
Si -0.01  4.44 -4.83
Si  3.85  2.24 -4.81
Si  3.88 -2.18  4.84
Si  5.08  4.40 -0.04
Si  1.32 -6.59 -0.00
Si -6.39  2.16  0.00
Si  6.39 -2.17 -0.04
Si -6.38 -2.21 -0.01
Si -1.28  6.64 -0.01
Si -5.15  4.40 -0.04
Si -5.10 -4.45 -0.08
Si  5.12 -4.45 -0.08
Si  1.27  6.68 -0.04
Si -1.27 -6.69  0.00
Si  6.42  2.26 -0.00
Si  2.50 -4.38 -4.79
Si  5.07  0.02 -4.80
Si  2.50 -4.38  4.83
Si -2.59 -4.38  4.79
Si  5.07  0.02  4.82
Si -2.59 -4.38 -4.83
Si  2.51  4.47  4.79
Si -5.15  0.02 -4.80
Si  2.51  4.47 -4.83
Si -2.62  4.46 -4.79
Si -5.15  0.02  4.82
Si  1.24 -6.54  2.38
Si -2.62  4.46  4.83
Si  1.21  6.56 -2.42
Si  1.33  6.57  2.36
Si -6.34  2.19 -2.41
Si -1.30  6.58  2.42
Si  5.05 -4.41 -2.46
Si  6.33 -2.29 -2.42
Si  0.01 -0.04 -7.15
Si  1.31 -6.61 -2.40
Si -6.39  2.18  2.37
Si -5.09 -4.44  2.36
Si  6.34  2.30  2.38
Si -5.10  4.41 -2.44
Si  5.09  4.47  2.38
Si  5.13 -4.44  2.36
Si -1.22 -6.66 -2.41
Si  5.12  4.41 -2.44
Si -1.27 -6.67  2.37
Si -6.42 -2.17 -2.41
Si -6.40 -2.26  2.42
Si  6.42  2.24 -2.40
Si -5.13  4.47  2.38
Si -1.32  6.67 -2.41
Si -5.17 -4.41 -2.46
Si  0.05 -0.01  7.23
Si  6.45 -2.28  2.36
Si  1.25 -2.22 -7.15
Si -1.22  2.14 -7.19
Si -2.53 -0.06  7.18
Si  1.37  2.20 -7.16
Si  2.61  0.02  7.16
Si -1.26  2.15  7.22
Si  3.88 -6.59  0.04
Si -3.78 -6.65  0.06
Si -1.27 -2.23  7.23
Si  3.83  6.64 -0.02
Si  2.52 -0.09 -7.25
Si  1.29 -2.19  7.24
Si -1.34 -2.20 -7.23
Si  7.68  0.04 -0.04
Si -7.68 -0.03 -0.06
Si  1.29  2.21  7.25
Si -3.88  6.65  0.04
Si -2.64  0.00 -7.25
Si  7.58  0.00  2.37
Si -7.61  0.02 -2.46
Si  3.77  6.64  2.38
Si -3.73 -6.65  2.46
Si  3.83  6.62 -2.39
Si -3.82 -6.64 -2.36
Si -3.83  6.66 -2.38
Si -3.86  6.62  2.47
Si -7.70 -0.09  2.37
Si  7.69 -0.06 -2.44
Si  3.86 -6.70 -2.40
Si  3.89 -6.71  2.42
Si -6.34 -2.18 -4.78
Si  5.07  4.41  4.80
Si -1.25 -6.61  4.80
Si -6.34 -2.18  4.84
Si -1.25 -6.61 -4.81
Si  5.07  4.41 -4.82
Si  5.11 -4.41  4.79
Si -5.11 -4.41  4.79
Si -6.37  2.24  4.80
Si  6.38 -2.21  4.80
Si  1.27  6.64  4.80
Si  6.42  2.17  4.78
Si -6.37  2.24 -4.81
Si -1.24  6.66 -4.78
Si  5.11 -4.41 -4.83
Si  6.38 -2.21 -4.82
Si -5.11 -4.41 -4.83
Si  1.27  6.64 -4.82
Si -5.15  4.41  4.80
Si  1.32 -6.68  4.78
Si -5.15  4.41 -4.82
Si -1.24  6.66  4.84
Si  6.42  2.17 -4.84
Si  1.32 -6.68 -4.84
Si -0.07  4.44  7.16
Si  3.80 -2.17  7.21
Si  0.02 -4.44  7.18
Si  3.82 -2.26 -7.19
Si -0.02 -4.38 -7.24
Si -3.80  2.24  7.21
Si  3.88  2.19  7.21
Si  3.83  2.18 -7.25
Si -3.77 -2.28 -7.25
Si  0.01  4.41 -7.26
Si -3.89 -2.29  7.20
Si -3.88  2.30 -7.24
Si -2.53  4.37 -7.18
Si -5.09  0.03 -7.16
Si  2.55  4.37  7.19
Si -5.03 -0.03  7.23
Si  5.14  0.03 -7.16
Si  0.01  8.83  0.06
Si -7.65  4.43 -0.01
Si -7.71 -4.34  0.03
Si  2.59 -4.47 -7.18
Si -2.55 -4.48  7.19
Si  7.62  4.51  0.03
Si  2.58  4.40 -7.25
Si  0.02 -8.86  0.06
Si -2.52 -4.45 -7.25
Si  7.69 -4.42 -0.01
Si  2.57 -4.40  7.27
Si -2.55  4.45  7.27
Si  5.19 -0.03  7.23
Si  3.81 -6.58 -4.77
Si -3.86 -6.58 -4.78
Si  3.81 -6.58  4.85
Si  3.81  6.63 -4.80
Si -3.86 -6.58  4.83
Si  7.66  0.01  4.78
Si  3.81  6.63  4.82
Si -7.68 -0.02  4.76
Si  7.66  0.01 -4.83
Si -3.90  6.65 -4.76
Si -7.68 -0.02 -4.85
Si -3.90  6.65  4.85
Si -7.64  4.40  2.37
Si  0.07  8.81 -2.39
Si -7.66 -4.40 -2.35
Si -6.34 -6.59  0.04
Si -7.67  4.37 -2.42
Si  0.03 -8.82  2.46
Si -8.90  2.20  0.06
Si  7.67  4.45 -2.35
Si  7.69  4.37  2.44
Si -7.63 -4.47  2.44
Si  2.58 -8.81 -0.04
Si -2.58  8.82 -0.06
Si  6.34  6.65  0.04
Si  0.09 -8.88 -2.39
Si  7.70 -4.45  2.37
Si  7.67 -4.48 -2.42
Si  0.02  8.87  2.46
Si -6.39  6.64 -0.02
Si  8.95 -2.20 -0.02
Si -2.56 -8.88 -0.06
Si  2.56  8.88 -0.04
Si -8.98 -2.20  0.04
Si  6.44 -6.65  0.06
Si  8.99  2.26  0.04
Si -2.60  8.76  2.37
Si -8.85  2.20  2.46
Si  8.88 -2.20  2.38
Si  2.57  8.79 -2.44
Si  2.48 -8.85  2.37
Si  2.46  8.85  2.37
Si -8.93 -2.19 -2.38
Si -2.49 -8.83 -2.46
Si -8.94  2.21 -2.36
Si -6.39  6.62 -2.39
Si  6.36  6.62  2.47
Si  6.41 -6.64 -2.36
Si  8.96  2.15 -2.40
Si  8.95 -2.23 -2.39
Si  6.39  6.66 -2.38
Si -2.51  8.87 -2.46
Si -6.33 -6.71  2.42
Si -6.36 -6.70 -2.40
Si  9.00  2.14  2.42
Si -8.97 -2.22  2.47
Si -6.46  6.64  2.38
Si  2.59 -8.90 -2.44
Si -0.02  0.03 -9.59
Si -2.58 -8.93  2.37
Si  6.49 -6.65  2.46
Si -0.02  0.03  9.65
Si  5.05 -4.41  7.16
Si  1.21  6.56  7.20
Si -1.30  6.58 -7.19
Si  1.24 -6.54 -7.24
Si -6.34  2.19  7.21
Si -5.10  4.41  7.18
Si  6.33 -2.29  7.20
Si  5.12  4.41  7.18
Si  1.31 -6.61  7.21
Si -5.17 -4.41  7.16
Si  1.33  6.57 -7.25
Si -1.22 -6.66  7.21
Si -6.40 -2.26 -7.19
Si  2.54 -0.03  9.56
Si  1.32  2.20 -9.56
Si -6.42 -2.17  7.21
Si  6.34  2.30 -7.24
Si -6.39  2.18 -7.25
Si  1.24 -2.20 -9.58
Si -2.54  0.04  9.58
Si  5.09  4.47 -7.24
Si  6.42  2.24  7.21
Si -1.32  6.67  7.21
Si -5.09 -4.44 -7.26
Si -1.24  2.26 -9.58
Si -1.27 -2.20  9.60
Si -1.27 -6.67 -7.25
Si  5.13 -4.44 -7.26
Si -5.13  4.47 -7.24
Si -1.27 -2.20 -9.64
Si  6.45 -2.28 -7.25
Si  1.24 -2.20  9.66
Si -2.54  0.04 -9.66
Si -1.24  2.26  9.66
Si  2.54 -0.03 -9.67
Si  1.32  2.20  9.68
Si  7.63 -4.38  4.79
Si  7.60  4.46 -4.79
Si  7.63 -4.38 -4.83
Si -0.03 -8.83 -4.80
Si  7.60  4.46  4.83
Si -0.03 -8.83  4.82
Si -0.05  8.87 -4.80
Si -7.72 -4.38 -4.79
Si -0.05  8.87  4.82
Si -7.72 -4.38  4.83
Si -7.71  4.47  4.79
Si -7.71  4.47 -4.83
Si  5.10 -8.82  0.03
Si -5.13 -8.82  0.03
Si 10.20  0.03  0.03
Si  5.08  8.88  0.03
Si -10.24  0.03  0.03
Si -5.14  8.88  0.03
Si  6.36 -6.58 -4.78
Si  6.33  6.65 -4.76
Si  6.36 -6.58  4.83
Si -6.41 -6.58 -4.77
Si -2.58  8.83  4.76
Si  8.91  2.27 -4.77
Si  8.93 -2.22 -4.80
Si  2.56 -8.84  4.78
Si  2.54  8.85  4.78
Si  8.93 -2.22  4.82
Si  6.33  6.65  4.85
Si -2.57 -8.87  4.76
Si -6.41 -6.58  4.85
Si  8.91  2.27  4.85
Si  2.56 -8.84 -4.83
Si -2.58  8.83 -4.85
Si -6.42  6.63 -4.80
Si  2.54  8.85 -4.83
Si -6.42  6.63  4.82
Si -9.00 -2.19 -4.76
Si -8.98  2.27 -4.78
Si -2.57 -8.87 -4.85
Si -8.98  2.27  4.83
Si -7.61  0.02  7.16
Si -10.17 -0.01 -2.39
Si -9.00 -2.19  4.85
Si -3.73 -6.65 -7.16
Si -5.07  8.83 -2.39
Si -5.11  8.80  2.47
Si  5.12  8.80  2.47
Si -5.05 -8.86 -2.39
Si -3.86  6.62 -7.15
Si  7.58  0.00 -7.25
Si  5.15  8.83 -2.39
Si -10.21 -0.04  2.47
Si  0.00  4.39  9.54
Si  3.77  6.64 -7.23
Si  7.69 -0.06  7.18
Si  3.83  6.62  7.23
Si 10.23 -0.04  2.47
Si  5.17 -8.86 -2.39
Si -5.09 -8.89  2.47
Si -3.83 -2.17  9.58
Si 10.27 -0.01 -2.39
Si -3.82 -6.64  7.25
Si -3.83  6.66  7.24
Si  5.13 -8.89  2.47
Si -0.03 -4.45  9.58
Si -7.70 -0.09 -7.25
Si  3.83  2.16 -9.61
Si  3.84 -2.21  9.60
Si  3.86 -6.70  7.22
Si  3.89 -6.71 -7.19
Si  3.83  2.16  9.62
Si -3.80  2.26  9.62
Si -3.80  2.26 -9.62
Si  3.84 -2.21 -9.63
Si -3.83 -2.17 -9.66
Si -0.03 -4.45 -9.65
Si  0.00  4.39 -9.69
Si  2.52 -4.34 -9.59
Si -5.10 -0.02 -9.56
Si  5.12 -0.02 -9.56
Si  2.52 -4.34  9.64
Si -2.53 -4.42  9.61
Si  2.58  4.43  9.61
Si -2.53 -4.42 -9.63
Si  2.58  4.43 -9.63
Si -2.60  4.51 -9.59
Si -5.10 -0.02  9.68
Si  5.12 -0.02  9.68
Si -2.60  4.51  9.64
Si -8.90 -6.59 -0.00
Si -1.28 11.01  0.00
Si  1.28 -11.02 -0.04
Si 10.19 -4.45 -0.04
Si -10.22  4.39 -0.08
Si 10.22  4.39 -0.08
Si -1.26 -11.06 -0.01
Si  8.94  6.64 -0.01
Si  5.09 -8.73 -4.75
Si -8.95  6.68 -0.04
Si -10.25 -4.45 -0.04
Si  8.95 -6.69  0.00
Si  1.31 11.11 -0.00
Si -5.13 -8.73 -4.75
Si  5.09 -8.73  4.86
Si -5.13 -8.73  4.86
Si 10.19  0.12 -4.75
Si 10.19  0.12  4.86
Si -10.25  0.12 -4.75
Si -8.89  6.57  2.36
Si -8.91 -6.61 -2.40
Si  5.07  8.97 -4.75
Si -10.25  0.12  4.86
Si -1.28 11.03  2.37
Si 10.16  4.44 -2.46
Si  8.93  6.58  2.42
Si -1.30 -11.02 -2.41
Si 10.21 -4.38  2.38
Si -8.98 -6.54  2.38
Si  0.03 -8.82 -7.16
Si -1.24 11.04 -2.41
Si -10.21  4.41  2.36
Si -5.15  8.97 -4.75
Si  8.90  6.67 -2.41
Si -10.24 -4.38  2.38
Si 10.23  4.41  2.36
Si -7.67  4.37  7.19
Si -10.20 -4.43 -2.44
Si  5.07  8.97  4.86
Si  7.69  4.37 -7.18
Si -7.63 -4.47 -7.18
Si  0.02  8.87 -7.16
Si  0.07  8.81  7.23
Si -9.01  6.56 -2.42
Si  8.95 -6.67  2.37
Si -7.64  4.40 -7.25
Si  1.30 11.09 -2.40
Si 10.24 -4.43 -2.44
Si -5.15  8.97  4.86
Si  7.67 -4.48  7.19
Si -7.66 -4.40  7.27
Si -1.28 -11.11  2.42
Si  9.00 -6.66 -2.41
Si  0.09 -8.88  7.23
Si  1.23 -11.13 -2.42
Si  1.35 -11.13  2.36
Si  7.67  4.45  7.27
Si  1.23 11.15  2.38
Si -10.29  4.44 -2.46
Si  7.70 -4.45 -7.25
Si -8.85  2.20 -7.16
Si  6.36  6.62 -7.15
Si -2.49 -8.83  7.16
Si  2.57  8.79  7.18
Si -2.60  8.76 -7.25
Si  8.88 -2.20 -7.23
Si -7.64 -8.81 -0.04
Si -2.51  8.87  7.16
Si 11.46 -2.20  0.04
Si  7.64  8.82 -0.06
Si -11.46  2.26  0.04
Si -3.80 11.05  0.06
Si -8.97 -2.22 -7.15
Si -6.33 -6.71 -7.19
Si  5.08  4.40  9.58
Si -6.39  6.62  7.23
Si -5.10 -4.45  9.54
Si -11.49 -2.20 -0.02
Si  3.85 -11.05 -0.02
Si  2.48 -8.85 -7.25
Si -3.87 -11.05  0.04
Si  2.46  8.85 -7.25
Si -8.93 -2.19  7.24
Si  8.96  2.15  7.22
Si  5.12 -4.45  9.54
Si  6.39 -2.17  9.58
Si  9.00  2.14 -7.19
Si  8.95 -2.23  7.23
Si -8.94  2.21  7.25
Si -6.36 -6.70  7.22
Si  2.59 -8.90  7.18
Si  7.66 -8.88 -0.06
Si  6.49 -6.65 -7.16
Si -7.66  8.88 -0.04
Si -5.15  4.40  9.58
