500
set: 1544.00  0.00  0.00
Si  0.23  1.44 -0.17
Si  1.46 -0.79 -0.01
Si -1.50 -0.39 -1.29
Si  0.13 -2.41 -1.05
Si -2.30 -0.12  1.75
Si -0.18  2.09 -2.15
Si -0.55 -1.98  2.22
Si  2.56 -0.12  1.75
Si -2.13  2.15  0.70
Si  0.88 -0.40  3.25
Si -3.40 -0.79 -0.01
Si  2.73  2.15  0.70
Si -1.61  0.51 -3.18
Si  3.35 -0.39 -1.29
Si -0.02 -3.87  0.70
Si -1.98  3.61 -1.05
Si  3.25  0.51 -3.18
Si -0.93  1.12  4.35
Si  1.50  2.37 -3.65
Si  2.87  3.61 -1.05
Si -4.63  1.44 -0.17
Si  1.93 -3.92 -2.15
Si -1.08 -1.38 -4.70
Si -0.44 -2.88  4.11
Si  2.19  4.04  2.22
Si  2.34 -4.57 -0.17
Si -3.98 -0.40  3.25
Si -2.52 -4.57 -0.17
Si  4.30 -1.98  2.22
Si -0.65  5.23 -0.01
Si  5.08  1.44 -0.17
Si -1.25 -3.65 -3.65
Si -2.66  4.04  2.22
Si -2.93 -3.92 -2.15
Si -4.73 -2.41 -1.05
Si  1.28 -1.04  5.23
Si -3.36  2.37 -3.65
Si  4.67  2.09 -2.15
Si  4.98 -2.41 -1.05
Si  2.30  3.14  4.11
Si  0.40  1.70 -5.41
Si -2.55  3.14  4.11
Si -5.04  2.09 -2.15
Si  1.24  5.63 -1.29
Si  3.93  1.12  4.35
Si  0.41  2.74  5.39
Si  1.28 -2.09 -5.57
Si  0.45  5.90  1.75
Si -5.41 -1.98  2.22
Si  3.78 -1.38 -4.70
Si -1.07 -0.34  6.10
Si  4.84 -3.87  0.70
Si -4.87 -3.87  0.70
Si  3.61 -3.65 -3.65
Si  6.31 -0.79 -0.01
Si  0.50 -5.51 -3.18
Si -0.19 -6.13  1.75
Si -3.57 -1.04  5.23
Si -6.36 -0.39 -1.29
Si -0.93  0.08 -6.45
Si  0.61 -6.41 -1.29
Si  5.73 -0.40  3.25
Si -1.23  5.62  3.25
Si  1.18 -4.90  4.35
Si  4.41 -2.88  4.11
Si  4.20  5.23 -0.01
Si -2.34 -3.27  5.39
Si  2.52 -3.27  5.39
Si -3.61  5.63 -1.29
Si  1.67  4.64 -4.70
Si -0.83  3.93 -5.57
Si -1.29 -6.80 -0.01
Si -3.58 -2.09 -5.57
Si  3.79 -0.34  6.10
Si -4.46  1.70 -5.41
Si -6.47  0.51 -3.18
Si -0.83  4.97  5.23
Si -5.30 -2.88  4.11
Si -2.35 -4.32 -5.41
Si -5.78  1.12  4.35
Si -3.19  4.64 -4.70
Si -6.98  2.15  0.70
Si  1.14  6.52 -3.18
Si  2.51 -4.32 -5.41
Si -7.16 -0.12  1.75
Si  2.29  2.10 -6.69
Si -1.87 -6.41  3.25
Si  3.62  5.62  3.25
Si -2.56  2.10 -6.69
Si -4.45  2.74  5.39
Si -3.67 -4.90  4.35
Si  3.92  0.08 -6.45
Si -4.41  5.90  1.75
Si -5.51  5.23 -0.01
Si  7.41 -0.12  1.75
Si  3.57 -6.80 -0.01
Si -1.88  7.46 -0.17
Si -5.93 -1.38 -4.70
Si  6.36  2.37 -3.65
Si -4.36 -5.51 -3.18
Si -1.24 -2.60  7.15
Si  0.87 -1.44 -7.55
Si  5.25  1.70 -5.41
Si -0.45 -3.92 -6.69
Si  2.99 -6.41  3.25
Si -4.25 -6.41 -1.29
Si -6.84  3.61 -1.05
Si  4.67 -6.13  1.75
Si  7.58  2.15  0.70
Si  4.02  3.93 -5.57
Si -1.60  1.55  7.62
Si -6.10 -3.65 -3.65
Si  5.26  2.74  5.39
Si  2.97  7.46 -0.17
Si  1.51  3.41  7.15
Si  6.78 -3.92 -2.15
Si  5.30  5.90  1.75
Si  6.14 -1.04  5.23
Si -5.05 -6.13  1.75
Si -3.72  6.52 -3.18
Si  0.62  8.17  0.70
Si  4.03  4.97  5.23
Si -8.26 -0.79 -0.01
Si  5.36 -5.51 -3.18
Si  8.21 -0.39 -1.29
Si  6.10  5.63 -1.29
Si  7.05  4.04  2.22
Si  3.62 -2.60  7.15
Si  3.25  1.55  7.62
Si  1.56 -8.00  2.22
Si  1.68  5.68  6.10
Si -5.93 -0.34  6.10
Si  5.46 -6.41 -1.29
Si  7.19 -4.57 -0.17
Si  6.13 -2.09 -5.57
Si  1.82  7.14  4.35
Si  7.73  3.61 -1.05
Si -3.35  3.41  7.15
Si -3.99 -1.44 -7.55
Si -5.79  0.08 -6.45
Si -7.38 -4.57 -0.17
Si -2.29  8.11 -2.15
Si  8.10  0.51 -3.18
Si  2.56  8.11 -2.15
Si  2.24 -8.43 -1.05
Si -7.52  4.04  2.22
Si  1.03 -7.40 -4.70
Si  7.16  3.14  4.11
Si  1.18 -5.94 -6.45
Si  0.51 -4.47  7.62
Si  1.04 -6.36  6.10
Si -5.69  3.93 -5.57
Si -2.62 -8.43 -1.05
Si -3.04  7.14  4.35
Si -6.09  5.62  3.25
Si -1.46 -7.06  5.23
Si  6.04 -4.90  4.35
Si -1.24  4.58 -7.55
Si -3.18  5.68  6.10
Si  4.41 -3.92 -6.69
Si -3.30 -8.00  2.22
Si -7.79 -3.92 -2.15
Si -7.41  3.14  4.11
Si  1.81  6.09 -6.45
Si -0.56 -3.02 -8.58
Si -0.61  8.39 -3.65
Si -6.15 -6.80 -0.01
Si -5.68  4.97  5.23
Si -0.17  3.13  8.65
Si -4.24  8.17  0.70
Si  6.53  4.64 -4.70
Si -8.21  2.37 -3.65
Si  1.93 -2.88  8.65
Si  2.19  2.99 -8.58
Si -3.04  6.09 -6.45
Si -5.31 -3.92 -6.69
Si -2.31 -1.16 -9.05
Si  5.99  6.52 -3.18
Si  3.39 -7.06  5.23
Si -8.84 -0.40  3.25
Si -2.67  2.99 -8.58
Si  2.55 -1.16 -9.05
Si -3.68 -5.94 -6.45
Si  3.62  4.58 -7.55
Si -3.82 -7.40 -4.70
Si -7.20 -3.27  5.39
Si -2.92 -2.88  8.65
Si -1.71  7.72 -5.41
Si  5.72 -1.44 -7.55
Si -9.49  1.44 -0.17
Si -3.82 -6.36  6.10
Si  9.16 -1.98  2.22
Si -1.50  0.65  9.51
Si  7.37 -3.27  5.39
Si  0.76  9.62 -1.05
Si -6.10 -2.60  7.15
Si  0.13 -1.37  9.75
Si -6.73 -6.41  3.25
Si -4.35 -4.47  7.62
Si  5.47  8.17  0.70
Si  8.79  1.12  4.35
Si  8.46 -3.65 -3.65
Si  8.64 -1.38 -4.70
Si  3.14  7.72 -5.41
Si  1.67 -8.89  4.11
Si -9.59 -2.41 -1.05
Si -1.47 -8.10 -5.57
Si -8.43 -1.04  5.23
Si  9.53  2.09 -2.15
Si -7.21 -4.32 -5.41
Si  7.15  2.10 -6.69
Si  0.19  9.16  4.11
Si  9.94  1.44 -0.17
Si -6.74  7.46 -0.17
Si  4.30 -3.02 -8.58
Si  4.25  8.39 -3.65
Si  7.36 -4.32 -5.41
Si  3.36  0.65  9.51
Si -6.46  1.55  7.62
Si  2.09 -9.88  0.70
Si  6.36  3.41  7.15
Si  9.84 -2.41 -1.05
Si -0.82 -9.94 -2.15
Si -7.42  2.10 -6.69
Si -8.47  5.63 -1.29
Si  0.44  4.86 -9.05
Si -2.77 -9.88  0.70
Si  0.09 10.05  2.22
Si -3.19 -8.89  4.11
Si -8.44 -2.09 -5.57
Si  4.68  3.13  8.65
Si  5.36 -4.47  7.62
Si -9.89  2.09 -2.15
Si  0.86 -9.66 -3.65
Si -2.13  1.11 -10.10
Si  3.39 -8.10 -5.57
Si -8.04  4.64 -4.70
Si -1.71  8.76  5.39
Si  9.06  5.23 -0.01
Si  9.70 -3.87  0.70
Si -5.03  3.13  8.65
Si  6.41 -8.00  2.22
Si -9.73 -3.87  0.70
Si -4.09  9.62 -1.05
Si  0.18  8.12 -6.69
Si  2.72  1.11 -10.10
Si  9.27 -2.88  4.11
Si  5.89 -7.40 -4.70
Si  8.64 -0.34  6.10
Si -5.42 -3.02 -8.58
Si  6.53  5.68  6.10
Si  5.90 -6.36  6.10
Si -0.41 -10.59 -0.17
Si  7.84 -6.41  3.25
Si  6.03 -5.94 -6.45
Si -5.47  8.39 -3.65
Si  8.48  5.62  3.25
Si -10.27 -1.98  2.22
Si  6.68  7.14  4.35
Si -6.10  4.58 -7.55
Si -0.23 -9.29  5.39
Si -8.53 -4.90  4.35
Si  3.15  8.76  5.39
Si -1.88 -7.45 -7.55
Si  1.14  7.57  7.62
Si  7.83  7.46 -0.17
Si -6.32 -7.06  5.23
Si  8.42 -6.80 -0.01
Si  1.46  0.25 10.79
Si  8.78  0.08 -6.45
Si -9.31  1.70 -5.41
Si  0.23  2.48 10.63
Si -4.72 -1.37  9.75
Si  0.61 -5.36  9.51
Si  4.04 -9.94 -2.15
Si -1.98  4.65  9.75
Si  0.22  0.40 -10.97
Si  2.98 -7.45 -7.55
Si -7.15  8.11 -2.15
Si  4.99 -1.37  9.75
Si  1.45 -1.83 -10.81
Si  7.09 -8.43 -1.05
Si -4.66  9.16  4.11
Si -3.99 -9.66 -3.65
Si 10.59 -0.40  3.25
Si -9.31  2.74  5.39
Si  6.67  6.09 -6.45
Si -9.27  5.90  1.75
Si  2.88  4.65  9.75
Si -4.42  4.86 -9.05
Si  5.62  9.62 -1.05
Si -9.21 -5.51 -3.18
Si 11.17 -0.79 -0.01
Si  8.88  3.93 -5.57
Si  7.42  8.11 -2.15
Si -9.11 -6.41 -1.29
Si -0.03 -4.91 -10.10
Si -8.58  6.52 -3.18
Si  0.87 -8.62  7.15
Si  5.05  9.16  4.11
Si  8.11  1.55  7.62
Si -11.21 -0.39 -1.29
Si -3.39  0.25 10.79
Si -7.48 -8.43 -1.05
Si -10.16 -2.88  4.11
Si -4.77 10.05  2.22
Si -3.71  7.57  7.62
Si  6.79 -2.88  8.65
Si  8.47 -2.60  7.15
Si -8.21  3.41  7.15
Si  4.94 10.05  2.22
Si  2.09 11.25 -0.01
Si  2.34 -3.53 10.63
Si  8.89  4.97  5.23
Si -6.35  0.65  9.51
Si  9.52 -6.13  1.75
Si -2.51 -3.53 10.63
Si -3.41 -1.83 -10.81
Si  4.45 -10.59 -0.17
Si -6.57  7.72 -5.41
Si -7.89  7.14  4.35
Si  7.04  2.99 -8.58
Si -4.67  8.12 -6.69
Si -10.64  1.12  4.35
Si -0.20 -7.17 -9.05
Si  5.30  4.86 -9.05
Si  1.91  9.95 -5.57
Si -8.04  5.68  6.10
Si -2.76 11.25 -0.01
Si 10.11  1.70 -5.41
Si -7.16 -1.16 -9.05
Si -10.37  5.23 -0.01
Si -0.66  4.19 -10.81
Si -8.15 -8.00  2.22
Si -5.68 -9.94 -2.15
Si -0.44 10.65 -4.70
Si  5.04  8.12 -6.69
Si -0.24 -10.33 -5.41
Si  1.25  6.67  9.51
Si -6.33 -8.10 -5.57
Si  4.62 -9.29  5.39
Si -4.24 -5.36  9.51
Si -8.84 -1.44 -7.55
Si -0.87 11.64 -1.29
Si  7.41 -1.16 -9.05
Si  6.52 -8.89  4.11
Si -11.32  0.51 -3.18
Si -2.94  9.95 -5.57
Si -9.90 -6.13  1.75
Si 10.12  2.74  5.39
Si -7.53  2.99 -8.58
Si  5.72 -9.66 -3.65
Si -5.27 -10.59 -0.17
Si -0.01 -2.83 11.50
Si -10.79 -1.38 -4.70
Si -4.62  2.48 10.63
Si -0.60  9.43  7.15
Si -1.56 -10.91  4.35
Si 10.16  5.90  1.75
Si -7.90  6.09 -6.45
Si -5.09 -9.29  5.39
Si -3.99 -8.62  7.15
Si -4.64  0.40 -10.97
Si -7.78 -2.88  8.65
Si 11.21  2.37 -3.65
Si 10.21 -5.51 -3.18
Si  5.09  2.48 10.63
Si  8.25 -7.06  5.23
Si -11.84  2.15  0.70
Si  9.26 -3.92 -6.69
Si  1.66 -9.94 -6.69
Si  5.08  0.40 -10.97
Si  6.95 -9.88  0.70
Si -10.96 -3.65 -3.65
Si -2.12  3.19 11.50
Si -12.01 -0.12  1.75
Si -1.66 11.92  1.75
Si -3.60  6.67  9.51
Si -2.25 -11.53 -3.18
Si  1.51 11.64  3.25
Si -6.56  8.76  5.39
Si  3.29 -10.91  4.35
Si  5.47 -5.36  9.51
Si 10.32 -6.41 -1.29
Si 11.00 -1.04  5.23
Si  4.83 -4.91 -10.10
Si  8.47  4.58 -7.55
Si -8.54 -5.94 -6.45
Si  2.61 -11.53 -3.18
Si  2.74  3.19 11.50
Si -9.09  8.17  0.70
Si -4.88 -4.91 -10.10
Si -1.51 -1.43 -12.09
Si -11.70  3.61 -1.05
Si -1.99  2.56 -11.85
Si -1.28 -5.76 10.79
Si  6.00  7.57  7.62
Si  1.92 10.99  5.23
Si  4.20  4.19 -10.81
Si -8.68 -7.40 -4.70
Si -6.99  1.11 -10.10
Si  0.12 -3.45 -11.85
Si -8.67 -6.36  6.10
Si  8.00  7.72 -5.41
Si  3.99 11.64 -1.29
Si  0.61  7.12 -10.10
Si 10.96  5.63 -1.29
Si -10.78 -0.34  6.10
Si 12.27 -0.12  1.75
Si -3.20 -9.94 -6.69
Si  1.92 -12.15  1.75
Si  2.24 -7.39  9.75
Si -0.81 -8.90  8.65
Si  0.08  9.01 -8.58
Si -10.64  0.08 -6.45
Si  4.66 -7.17 -9.05
Si  4.42 10.65 -4.70
Si  2.87  2.56 -11.85
Si  3.19 11.92  1.75
Si 11.64 -3.92 -2.15
Si -0.65  6.27 10.79
Si 10.99 -2.09 -5.57
Si -7.62 -9.88  0.70
Si  6.32  0.25 10.79
Si -2.61 -7.39  9.75
Si -2.94 10.99  5.23
Si -3.34 11.64  3.25
Si  2.33 -5.62 -10.97
Si  4.62 -10.33 -5.41
Si  1.55 -9.04 -8.58
Si -10.55  3.93 -5.57
Si -6.73 -7.45 -7.55
Si  4.25  9.43  7.15
Si  5.73 -8.62  7.15
Si -2.53 -5.62 -10.97
Si  8.22  0.65  9.51
Si -5.05 -7.17 -9.05
Si -2.94 -12.15  1.75
Si  3.35 -1.43 -12.09
Si 12.44  2.15  0.70
Si  6.30 -1.83 -10.81
Si -2.14 -12.42 -1.29
Si  7.58  1.11 -10.10
Si -8.05 -8.89  4.11
Si 10.90 -4.90  4.35
Si -10.95  5.62  3.25
Si -5.10 -10.33 -5.41
Si  3.57 -5.76 10.79
Si -9.21 -4.47  7.62
Si 11.91  4.04  2.22
Si -10.54  4.97  5.23
Si -6.83  4.65  9.75
Si  2.72 -12.42 -1.29
Si -10.16 -3.92 -6.69
Si  4.85 -2.83 11.50
Si -5.30 10.65 -4.70
Si -2.29  0.93 12.55
Si -2.29  9.15  8.65
Si -4.87 -2.83 11.50
Si  8.24 -8.10 -5.57
Si -5.52  4.19 -10.81
Si  2.56  0.93 12.55
Si  0.82 -12.82 -0.01
Si  0.24 -12.43  3.25
Si -1.89  6.42 -10.97
Si  2.57  9.15  8.65
Si 12.05 -4.57 -0.17
Si -3.31 -9.04 -8.58
Si  9.15 -3.02 -8.58
Si  9.10  8.39 -3.65
Si -11.00 -6.80 -0.01
Si -0.97 12.54 -3.18
Si  1.24  4.59 -12.09
Si -0.19  1.05 -12.95
Si  8.01  8.76  5.39
Si -5.46  9.43  7.15
Si -5.72 11.64 -1.29
Si 10.85  6.52 -3.18
Si  2.96  6.42 -10.97
Si  4.04 -8.90  8.65
Si -12.23 -4.57 -0.17
Si -0.54 -0.94 13.02
Si -4.25  7.12 -10.10
Si 10.58 -1.44 -7.55
Si 12.02  3.14  4.11
Si  1.50 10.60 -7.55
Si  6.11  6.67  9.51
Si 12.59  3.61 -1.05
Si 13.07 -0.39 -1.29
Si -13.11 -0.79 -0.01
Si -2.24 -10.49  7.62
Si 11.38  4.64 -4.70
Si  4.21  6.27 10.79
Si -8.95  9.62 -1.05
Si 10.33  8.17  0.70
Si  7.83 -7.45 -7.55
Si -0.43 11.70  6.10
Si -12.37  4.04  2.22
Si  6.95 11.25 -0.01
Si -4.74 -3.45 -11.85
