500
set: 200.00  0.00  0.00
Si  0.05 -0.03 -0.01
Si -0.03 -0.01 -2.26
Si -1.86  1.06  0.77
Si  1.89  1.05  0.77
Si  0.03 -2.19  0.76
Si  1.85 -1.08 -3.02
Si -0.02 -2.18  3.02
Si  1.85  1.09  3.05
Si  1.86  3.25  0.05
Si -1.87 -3.25 -0.02
Si -3.76  0.01 -0.05
Si  3.77  0.04  0.02
Si  1.91 -3.26  0.01
Si -1.88  3.28  0.03
Si -0.00  2.17 -3.10
Si -1.88  1.11  3.09
Si -1.85 -1.13 -3.15
Si -1.86  3.25 -2.25
Si  1.88 -1.08  3.79
Si  3.73  0.02 -2.29
Si -3.72 -2.18  0.78
Si -1.86 -3.24 -2.31
Si -1.88 -1.07  3.83
Si  1.84  3.26 -2.31
Si -0.01  4.34  0.75
Si  0.03  2.19  3.83
Si  1.84 -3.27 -2.32
Si  3.77 -2.17  0.78
Si -3.75 -0.00 -2.34
Si -3.74  2.17 -3.05
Si -0.01 -4.35 -3.04
Si  0.01  4.33  3.09
Si  3.77 -2.19  3.06
Si -3.77 -2.17  3.07
Si  3.77  2.17 -3.08
Si  1.85 -5.37  0.78
Si -5.60  1.05  0.75
Si  3.75  2.20  3.78
Si -1.83 -5.42  0.74
Si  1.86 -1.09 -5.35
Si -0.03  2.16 -5.35
Si -0.03 -4.34  3.85
Si  5.66  1.05  0.75
Si -3.77  2.16  3.85
Si  3.80  4.34  0.74
Si -1.88 -1.05 -5.41
Si -3.78  4.39  0.78
Si  1.88 -1.09  6.10
Si  5.61  3.24  0.04
Si  1.88  1.08 -6.11
Si -1.88 -5.40  3.07
Si -1.87  5.41 -3.06
Si -5.62 -1.07 -3.06
Si -5.61  1.06  3.08
Si  5.62 -3.25 -0.03
Si  0.02 -2.19 -6.11
Si  5.64 -1.07 -3.06
Si -0.01  6.50 -0.03
Si -1.88  1.10 -6.13
Si -1.87 -1.10  6.13
Si -5.65  3.24  0.04
Si  1.88 -5.42  3.08
Si -5.64 -3.25 -0.03
Si -3.76  4.33  3.08
Si  3.76 -4.35 -3.06
Si  0.01  2.18  6.14
Si  1.88  5.41 -3.10
Si  3.76  4.35  3.07
Si -3.75 -4.34 -3.10
Si -0.02 -6.52  0.04
Si  5.65  1.06  3.08
Si -0.01 -6.46 -2.23
Si  5.57 -1.07  3.85
Si  3.73 -4.32  3.80
Si -0.01 -0.02  6.86
Si -3.75  2.15 -5.34
Si -0.06 -4.32 -5.35
Si -0.01  6.48 -2.33
Si  5.63  3.29 -2.23
Si  1.88  5.40  3.86
Si -1.90  5.43  3.80
Si -5.64  3.29 -2.23
Si  5.62 -3.27 -2.33
Si  3.73  2.18 -5.39
Si -3.75 -4.36  3.86
Si -5.64 -3.27 -2.33
Si -5.69 -1.07  3.85
Si  3.78  2.12  6.05
Si  3.75 -2.14 -6.11
Si -0.00 -4.33  6.10
Si  3.75 -6.47  0.03
Si -3.72  6.50  0.01
Si -7.49  0.04  0.02
Si  7.50  0.01 -0.05
Si  3.76  6.51 -0.02
Si -3.77 -6.50  0.05
Si -3.78 -2.16 -6.14
Si -0.02  4.33 -6.18
Si -3.78  2.17  6.18
Si  1.88  3.25  6.86
Si  1.84 -3.24  6.88
Si -5.60 -1.06 -5.37
Si  5.63 -5.41  0.75
Si  3.75 -4.32 -5.36
Si -7.50 -2.17  0.78
Si  3.77 -6.50 -2.25
Si  3.77  0.01  6.88
Si -5.64 -5.41  0.75
Si  1.91  7.57  0.78
Si -1.87  7.59  0.78
Si -3.79 -0.02  6.88
Si -3.79  6.48 -2.32
Si -1.88  5.43 -5.36
Si -3.79 -6.49 -2.31
Si -7.53  0.02 -2.29
Si  7.51 -0.00 -2.34
Si  3.77  6.51 -2.31
Si  5.66 -1.06 -5.37
Si -1.90  3.27  6.91
Si  1.88  5.42 -5.40
Si -3.75 -4.34 -5.40
Si -1.86 -3.25  6.94
Si  7.54 -2.18  0.78
Si -5.62  1.07 -6.11
Si  5.62  5.41 -3.04
Si -1.86  7.57  3.06
Si  7.49 -2.17  3.07
Si -5.64  5.41 -3.04
Si  5.64  1.07 -6.11
Si -7.49 -2.19  3.06
Si  3.77 -4.33  6.11
Si -1.86  5.43  6.11
Si  1.86 -5.42 -6.12
Si  1.89 -7.58 -3.05
Si  1.86  7.58  3.07
Si -1.86 -7.58 -3.08
Si -7.50  2.17 -3.08
Si  3.77  4.32 -6.13
Si -3.74 -4.33  6.14
Si -3.77  4.33 -6.12
Si -5.62 -5.43  3.09
Si -1.86 -5.44 -6.13
Si  7.53  2.17 -3.05
Si  5.62 -1.10  6.16
Si  1.89  5.43  6.14
Si  5.64 -5.43  3.09
Si -5.64 -1.10  6.16
Si -1.88 -7.55  3.78
Si -7.46  4.34  0.74
Si  1.85  1.14 -8.41
Si  5.60  5.42  3.85
Si  7.49  2.16  3.85
Si -7.51  2.20  3.78
Si  7.48  4.39  0.78
Si -1.83  1.09 -8.45
Si  1.86 -7.60  3.85
Si -5.66  5.42  3.85
Si  0.03 -2.20 -8.45
Si  0.03 -8.71  0.75
Si -0.02 -0.01 -9.15
Si -0.01  0.00  9.17
Si -7.50 -4.35 -3.06
Si  7.51  4.33  3.08
Si -7.51  4.35  3.07
Si  0.01  8.68 -3.06
Si  7.51 -4.34 -3.10
Si  0.02 -8.69  3.08
Si -5.60  7.56  0.76
Si  5.57  5.43 -5.35
Si -9.37  1.05  0.77
Si  7.51  2.15 -5.34
Si  0.03  4.31 -8.43
Si  5.66  7.56  0.76
Si -7.53 -4.32  3.80
Si -3.74 -2.20 -8.43
Si  1.88 -7.61 -5.34
Si -1.90 -7.57 -5.39
Si  5.60  3.25  6.94
Si  3.77 -2.19 -8.43
Si  9.40  1.06  0.77
Si -0.06  8.69  3.85
Si -3.74 -8.70  0.77
Si  7.51 -4.36  3.86
Si  3.77 -8.69  0.77
Si  5.63 -3.21  6.96
Si -0.03 -6.51  6.94
Si -5.69  5.43 -5.35
Si -5.64 -3.21  6.96
Si -7.53  2.18 -5.39
Si -5.66  3.25  6.94
Si -0.01  6.55  6.96
Si -7.48  2.12  6.05
Si  1.87  3.26  9.15
Si -1.86 -9.72  0.02
Si -3.77 -0.00 -9.15
Si  3.75  0.03 -9.16
Si -9.35 -3.26  0.01
Si  5.61  7.58  3.02
Si -1.86 -3.21 -9.18
Si -1.85 -7.63  6.05
Si  5.63  5.42  6.10
Si  3.75 -8.64  3.09
Si -5.63  5.42  6.10
Si -7.51 -2.14 -6.11
Si  3.76  0.00  9.18
Si -7.51 -6.47  0.03
Si  7.48 -2.16 -6.14
Si  7.49 -6.50  0.05
Si -5.65  7.58  3.02
Si  1.87 -9.74 -0.05
Si -3.72 -0.01  9.20
Si  3.78  8.62 -3.15
Si  1.91  3.24 -9.19
Si -7.50  6.51 -0.02
Si -3.78  8.68 -3.02
Si  9.39 -3.25 -0.02
Si -3.78 -8.67  3.05
Si  1.85  7.59 -6.14
Si  9.38  3.28  0.03
Si  9.38  1.11  3.09
Si -1.88  7.61 -6.11
Si  1.87  9.76 -0.05
Si  5.63 -7.58 -3.10
Si  7.48  2.17  6.18
Si -5.63 -7.58 -3.10
Si -9.41 -1.08 -3.02
Si -9.40  3.25  0.05
Si  1.85 -7.58  6.18
Si -1.87  3.25 -9.22
Si -9.41  1.09  3.05
Si -1.88 -3.22  9.23
Si  7.54  6.50  0.01
Si -1.86  3.29  9.21
Si  5.61 -5.43 -6.18
Si -1.86  9.79  0.02
Si  1.86 -3.25  9.24
Si  1.87 -3.24 -9.24
Si -5.65 -5.43 -6.18
Si  9.41 -1.13 -3.15
Si  7.47 -0.02  6.88
Si  7.47  6.48 -2.32
Si -5.60 -7.56  3.83
Si  7.47 -6.49 -2.31
Si -3.72  4.32 -8.42
Si -3.75 -6.50  6.86
Si -7.49  0.01  6.88
Si -7.49 -6.50 -2.25
Si -0.01 -2.16  9.94
Si -1.90 -9.73 -2.29
Si -3.75  8.67  3.79
Si -9.38 -1.08  3.79
Si -1.87 -5.42 -8.41
Si  3.73 -6.48  6.91
Si  3.77  4.34 -8.41
Si -7.49  6.51 -2.31
Si  5.66 -7.56  3.83
Si -7.51 -4.32 -5.36
Si  9.38 -1.07  3.83
Si  1.91 -5.43 -8.42
Si  9.40  3.25 -2.25
Si  1.88  9.75 -2.34
Si  3.75  8.68  3.83
Si -3.79  6.51  6.88
Si -1.87  1.08  9.98
Si  1.88 -9.76 -2.34
Si  5.63  1.09 -8.45
Si  1.91  1.07  9.97
Si -1.90  9.77 -2.29
Si -5.64  1.09 -8.45
Si  9.40 -3.24 -2.31
Si  7.51 -4.34 -5.40
Si  0.03  8.70 -5.37
Si  3.77  6.50  6.94
Si -9.43  3.26 -2.31
Si -9.42 -3.27 -2.32
Si -7.50 -4.33  6.11
Si  7.49  4.33 -6.12
Si -7.49  4.32 -6.13
Si  0.01 -8.68 -6.11
Si -0.01  8.66  6.16
Si  7.53 -4.33  6.14
Si  0.03 10.80  0.75
Si  0.03  4.30  9.95
Si  5.60 -7.59 -5.35
Si -3.77  8.66 -5.35
Si  3.80 -2.17  9.94
Si -9.41 -5.37  0.78
Si -9.40 -1.09 -5.35
Si -5.66 -7.59 -5.35
Si -3.78 -2.12  9.98
Si  9.38 -1.05 -5.41
Si  9.43 -5.42  0.74
Si  3.75  8.71 -5.41
Si -5.58  9.72 -0.01
Si -11.21 -0.03 -0.01
Si -5.58  3.22  9.19
Si -5.61  7.57 -6.11
Si -3.75  8.67  6.10
Si -9.38 -1.09  6.10
Si  0.01 -10.82 -3.06
Si  0.02 10.82  3.08
Si  3.76 -8.65 -6.13
Si  5.65  7.57 -6.11
Si  0.05  6.47 -9.20
Si -5.58 -3.28 -9.20
Si -3.76 -8.67 -6.11
Si -9.39  1.08 -6.11
Si  3.76  8.66  6.13
Si -5.62 -7.57  6.14
Si  9.39 -5.40  3.07
Si  9.39  5.41 -3.06
Si  5.68  9.72 -0.01
Si  5.64 -7.57  6.14
Si -5.58 -9.78 -0.01
Si -9.38  5.41 -3.10
Si  9.39  1.10 -6.13
Si -9.39 -5.42  3.08
Si  9.39 -1.10  6.13
Si  5.68  3.22  9.19
Si  0.05 -6.53  9.19
Si  5.62  3.25 -9.22
Si -0.01 -6.50 -9.22
Si -5.64  3.25 -9.22
Si -0.02  6.49  9.24
Si  5.61 -3.27  9.24
Si  5.68 -3.28 -9.20
Si 11.31 -0.03 -0.01
Si  5.68 -9.78 -0.01
Si -5.65 -3.27  9.24
Si -0.01  0.04 -11.43
Si 11.23 -0.01 -2.26
Si -3.74 10.81  0.77
Si  5.60  9.75 -2.26
Si -11.23 -2.19  0.76
Si -5.60  1.06  9.96
Si  9.36  5.43  3.80
Si -1.86  7.56 -8.43
Si  5.60 -9.76 -2.26
Si  1.89  7.56 -8.43
Si  3.77 10.81  0.77
Si -3.74  4.30  9.96
Si -0.06 -10.82  3.85
Si -7.49 -2.19 -8.43
Si -9.38  5.40  3.86
Si  3.77  4.31  9.96
Si -5.60 -5.45 -8.43
Si -5.66  9.75 -2.26
Si -7.49 -8.69  0.77
Si  5.66  1.06  9.96
Si -1.86 -5.44  9.96
Si -5.66 -9.76 -2.26
Si  7.52 -2.20 -8.43
Si  1.89 -5.45  9.96
Si -11.29 -0.01 -2.26
Si  5.66 -5.45 -8.43
Si  7.52 -8.70  0.77
Si 11.29 -2.19  0.76
Si  7.49 -0.00 -9.15
Si -3.76 -6.49  9.15
Si -7.48  8.62 -3.15
Si 11.25 -2.18  3.02
Si  7.48  8.68 -3.02
Si -7.51  0.03 -9.16
Si  7.48 -8.67  3.05
Si -7.50  0.00  9.18
Si -3.72 -6.51 -9.19
Si -7.51 -8.64  3.09
Si -3.78 -10.83 -3.02
Si  3.77 -6.47  9.21
Si -11.28 -2.18  3.02
Si 11.26  2.17 -3.10
Si -3.78 10.84  3.05
Si -11.26  2.17 -3.10
Si  3.77  6.54 -9.18
Si  3.76 -6.50 -9.22
Si  7.54 -0.01  9.20
Si  3.75 10.87  3.09
Si  3.75  6.53  9.23
Si -3.77  6.50  9.24
Si -3.76  6.51 -9.24
Si  3.78 -10.88 -3.15
Si  3.77  0.00 -11.45
Si  1.84  9.73  6.88
Si -9.35  7.57  0.78
Si  7.47  6.51  6.88
Si -9.38  3.25  6.86
Si -11.23  2.19  3.83
Si  0.03 -10.81 -5.37
Si  7.51 -6.50  6.86
Si -1.86 -9.75  6.88
Si -7.50  4.34 -8.41
Si -1.90 -3.23 -11.48
Si  3.75 -10.82  3.83
Si  7.51  8.67  3.79
Si -3.75 -10.84  3.79
Si -1.86  9.76  6.88
Si 11.26  4.34  0.75
Si  9.37  3.27  6.91
Si -1.87 -11.92  0.78
Si  1.84 -9.78  6.88
Si  9.38  5.43 -5.36
Si  1.84  3.23 -11.51
Si -11.27  4.34  0.75
Si -0.01 -8.66 -8.45
Si  9.40  7.59  0.78
Si -7.53 -6.48  6.91
Si  7.54  4.32 -8.42
Si -7.51  8.68  3.83
Si -1.86  3.26 -11.51
Si -9.38  5.42 -5.40
Si -7.49  6.50  6.94
Si  1.91 -11.93  0.78
Si -9.43 -3.24  6.88
Si -3.79  0.01 -11.51
Si 11.29  2.19  3.83
Si  1.88 -3.25 -11.54
Si  9.40 -3.25  6.94
Si -0.01  2.15 -12.23
Si -9.37 -7.58 -3.05
Si  0.01 10.83 -6.11
Si  1.89 -1.08 -12.25
Si 11.25 -4.35 -3.04
Si -11.25  4.33  3.09
Si -1.86  1.06 12.26
Si -9.37  5.43  6.14
Si  9.40  7.57  3.06
Si  1.86 -11.93  3.07
Si  9.40  5.43  6.11
Si  1.86  1.08 12.27
Si -11.27 -4.35 -3.04
Si  1.89 11.93 -3.05
Si  9.40 -7.58 -3.08
Si -1.86 11.93 -3.08
Si 11.27  4.33  3.09
Si -9.41 -5.42 -6.12
Si -1.86 -1.08 -12.28
Si -9.41  7.58  3.07
Si -1.86 -11.94  3.06
Si  9.40 -5.44 -6.13
Si  0.01 -2.18 12.28
Si -0.01 -10.85  6.16
Si -7.46 -2.17  9.94
Si  9.38 -7.55  3.78
Si -3.78 -8.62 -8.41
Si 11.23  2.16 -5.35
Si  7.49  8.66 -5.35
Si -5.60  7.55 -8.45
Si -1.83  7.59  9.94
Si 11.23 -4.34  3.85
Si  7.48 -2.12  9.98
Si  3.75 -10.80 -5.41
Si -5.60 -5.46  9.95
Si  1.86 11.91  3.85
Si  5.66  7.55 -8.45
Si -3.77 -10.85 -5.35
Si  5.66 -5.46  9.95
Si -9.41  1.14 -8.41
Si -1.88 11.96  3.78
Si -11.29  2.16 -5.35
Si  3.80 -8.67 -8.45
Si -9.40 -7.60  3.85
Si -11.29 -4.34  3.85
Si  1.85  7.64  9.98
Si  9.43  1.09 -8.45
Si -7.51  8.71 -5.41
Si -11.24 -2.19 -6.11
Si -0.02 12.99  0.04
Si -7.51 -8.65 -6.13
Si  7.51  8.67  6.10
Si  0.01 -4.32 -12.25
Si -3.75 -10.84  6.10
Si -7.50  8.66  6.13
Si  7.51 -8.67 -6.11
Si 11.25  6.50 -0.03
Si -3.76 10.84 -6.11
Si 11.25 -6.52  0.04
Si  3.76  2.15 -12.26
Si  3.76 -2.15 12.26
Si -0.01 -13.01 -0.03
Si -11.26  2.18  6.14
Si  0.02  4.31 12.28
Si -11.27  6.50 -0.03
Si 11.28 -2.19 -6.11
Si 11.27  2.18  6.14
Si  3.76 -10.85  6.13
Si  3.76 10.86 -6.13
Si -3.76 -2.17 12.28
Si -11.28 -6.52  0.04
Si -3.75  2.16 -12.29
Si 11.20 -4.32 -5.35
Si  5.60 -3.26 -11.46
Si  5.62  9.73  6.86
Si 11.26 -6.46 -2.23
Si -0.03  6.50 -11.46
Si -5.64  9.73  6.86
Si 11.25 -0.02  6.86
Si -11.27 -6.46 -2.23
Si  1.88 11.90 -5.34
Si -7.49 10.81  0.77
Si -1.90 -1.07 13.00
