500
set: 511.00  0.00  0.00
Si  0.00  0.00  0.00
Si -1.85  1.10  0.78
Si  1.91  1.10  0.78
Si -0.12 -2.24  0.78
Si -0.05  0.01 -2.52
Si -3.76  0.00  0.00
Si  3.76  0.00  0.00
Si -1.73  3.35  0.00
Si  1.73 -3.35  0.00
Si -1.80  1.10  3.30
Si  1.80 -1.10 -3.30
Si  2.03  3.35  0.00
Si -2.03 -3.35  0.00
Si  1.96  1.10  3.30
Si -1.96 -1.10 -3.30
Si -0.07 -2.25  3.30
Si  0.07  2.25 -3.30
Si  3.64 -2.24  0.78
Si  3.71  0.01 -2.52
Si  1.68 -3.34 -2.52
Si  0.18  4.45  0.78
Si -3.88 -2.24  0.78
Si -1.78  3.35 -2.52
Si -3.81  0.01 -2.52
Si  1.84 -1.15  4.08
Si  0.11  2.20  4.08
Si  1.98  3.35 -2.52
Si -1.92 -1.15  4.08
Si -2.08 -3.34 -2.52
Si  3.69 -2.25  3.30
Si -3.69  2.25 -3.30
Si  3.83  2.25 -3.30
Si -3.83 -2.25  3.30
Si -0.23 -4.44 -3.30
Si  0.23  4.44  3.30
Si -3.58  4.45  0.78
Si -5.61  1.10  0.78
Si  5.67  1.10  0.78
Si  1.60 -5.59  0.78
Si -3.65  2.20  4.08
Si  3.94  4.45  0.78
Si  3.87  2.20  4.08
Si -2.15 -5.59  0.78
Si -0.20 -4.49  4.08
Si  1.75 -1.09 -5.82
Si  0.02  2.26 -5.82
Si -2.01 -1.09 -5.82
Si  5.49 -3.35  0.00
Si -5.49  3.35  0.00
Si  5.56 -1.10 -3.30
Si -5.56  1.10  3.30
Si -3.53  4.44  3.30
Si  3.53 -4.44 -3.30
Si -5.79 -3.35  0.00
Si  5.79  3.35  0.00
Si -5.72 -1.10 -3.30
Si  5.72  1.10  3.30
Si -0.31 -6.69  0.00
Si  0.31  6.69  0.00
Si -1.65  5.60 -3.30
Si  1.65 -5.60  3.30
Si  3.99  4.44  3.30
Si -3.99 -4.44 -3.30
Si -2.11 -5.60  3.30
Si  2.11  5.60 -3.30
Si  5.44 -3.34 -2.52
Si -5.54  3.35 -2.52
Si -0.16 -2.19 -6.60
Si  0.16  2.19  6.60
Si  1.87  1.15 -6.60
Si -1.87 -1.15  6.60
Si  1.89 -1.15  6.60
Si -1.89  1.15 -6.60
Si  5.60 -1.15  4.08
Si  3.56 -4.49  4.08
Si -1.62  5.54  4.08
Si -5.68 -1.15  4.08
Si  5.74  3.35 -2.52
Si -0.35 -6.68 -2.52
Si  0.26  6.70 -2.52
Si -5.84 -3.34 -2.52
Si  2.14  5.54  4.08
Si -3.96 -4.49  4.08
Si -3.74  2.26 -5.82
Si  3.78  2.26 -5.82
Si -0.28 -4.43 -5.82
Si  0.04 -0.05  7.38
Si  7.52  0.00  0.00
Si -7.52  0.00  0.00
Si  3.45 -6.69  0.00
Si -3.45  6.69  0.00
Si  7.40 -2.24  0.78
Si  5.37 -5.59  0.78
Si -3.60  2.19  6.60
Si  3.60 -2.19 -6.60
Si  4.07  6.69  0.00
Si -4.07 -6.69  0.00
Si  7.47  0.01 -2.52
Si  3.40 -6.68 -2.52
Si -3.50  6.70 -2.52
Si -7.57  0.01 -2.52
Si -3.92 -2.19 -6.60
Si  3.92  2.19  6.60
Si -1.54  7.79  0.78
Si  0.15  4.50 -6.60
Si -0.15 -4.50  6.60
Si -7.64 -2.24  0.78
Si  5.51 -1.09 -5.82
Si  3.48 -4.43 -5.82
Si  2.22  7.79  0.78
Si -5.91 -5.59  0.78
Si  4.02  6.70 -2.52
Si -4.11 -6.68 -2.52
Si -1.69  3.29  7.38
Si -1.70  5.60 -5.82
Si -3.72 -0.05  7.38
Si -5.77 -1.09 -5.82
Si  3.80 -0.05  7.38
Si  1.76 -3.40  7.38
Si  2.06  5.60 -5.82
Si  2.07  3.29  7.38
Si -4.04 -4.43 -5.82
Si -2.00 -3.40  7.38
Si -7.45  2.25 -3.30
Si  7.45 -2.25  3.30
Si -5.41  5.60 -3.30
Si  5.41 -5.60  3.30
Si -7.59 -2.25  3.30
Si  7.59  2.25 -3.30
Si -1.50  7.79  3.30
Si  1.50 -7.79 -3.30
Si -7.34  4.45  0.78
Si -5.38  5.54  4.08
Si -7.41  2.20  4.08
Si -5.63 -1.15  6.60
Si  5.63  1.15 -6.60
Si -5.87 -5.60  3.30
Si  5.87  5.60 -3.30
Si  1.57 -5.54 -6.60
Si -1.57  5.54  6.60
Si  2.27  7.79  3.30
Si -2.27 -7.79 -3.30
Si  5.65 -1.15  6.60
Si -5.65  1.15 -6.60
Si -3.61  4.50 -6.60
Si  3.61 -4.50  6.60
Si -2.19 -5.54 -6.60
Si  2.19  5.54  6.60
Si -3.91 -4.50  6.60
Si  3.91  4.50 -6.60
Si  7.63  2.20  4.08
Si  7.70  4.45  0.78
Si  1.53 -7.84  4.08
Si -0.43 -8.94  0.78
Si  5.90  5.54  4.08
Si -2.23 -7.84  4.08
Si  7.29 -4.44 -3.30
Si -7.29  4.44  3.30
Si  1.82  1.16 -9.12
Si -0.21 -2.18 -9.12
Si -1.94  1.16 -9.12
Si -5.30  7.79  0.78
Si -9.37  1.10  0.78
Si  7.33 -4.49  4.08
Si  7.75  4.44  3.30
Si -7.75 -4.44 -3.30
Si  9.43  1.10  0.78
Si -0.38 -8.94  3.30
Si  0.38  8.94 -3.30
Si  3.33 -8.94  0.78
Si -5.45  3.29  7.38
Si -5.46  5.60 -5.82
Si -7.50  2.26 -5.82
Si  7.54  2.26 -5.82
Si  0.42  8.89  4.08
Si -7.71 -4.49  4.08
Si  1.45 -7.78 -5.82
Si  5.53 -3.40  7.38
Si  9.25 -3.35  0.00
Si -9.25  3.35  0.00
Si  7.21 -6.69  0.00
Si -7.21  6.69  0.00
Si  5.98  7.79  0.78
Si  0.09 -0.06  9.90
Si -0.09  0.06 -9.90
Si -4.19 -8.94  0.78
Si  0.34  6.64  7.38
Si  9.32 -1.10 -3.30
Si -9.32  1.10  3.30
Si  5.82  5.60 -5.82
Si -5.75 -3.40  7.38
Si -5.25  7.79  3.30
Si  5.25 -7.79 -3.30
Si  5.83  3.29  7.38
Si -2.31 -7.78 -5.82
Si -0.27 -6.74  7.38
Si  3.55 -2.18 -9.12
Si -9.48 -1.10 -3.30
Si  9.48  1.10  3.30
Si  9.20 -3.34 -2.52
Si  3.38 -8.94  3.30
Si -3.38  8.94 -3.30
Si  7.17 -6.68 -2.52
Si -9.55 -3.35  0.00
Si  9.55  3.35  0.00
Si  7.36 -2.19 -6.60
Si -7.36  2.19  6.60
Si -5.33  5.54  6.60
Si  5.33 -5.54 -6.60
Si  1.42 -10.04  0.00
Si -1.42 10.04  0.00
Si  0.10  4.51 -9.12
Si -3.97 -2.18 -9.12
Si -7.26  6.70 -2.52
Si -9.30  3.35 -2.52
Si  9.36 -1.15  4.08
Si  7.24 -4.43 -5.82
Si -7.83 -6.69  0.00
Si  7.83  6.69  0.00
Si  5.29 -7.84  4.08
Si  2.34 10.04  0.00
Si -2.34 -10.04  0.00
Si -3.34  8.89  4.08
Si -9.44 -1.15  4.08
Si -7.68 -2.19 -6.60
Si  7.68  2.19  6.60
Si -1.58  7.85 -6.60
Si  1.58 -7.85  6.60
Si -6.03 -7.79 -3.30
Si  6.03  7.79  3.30
Si  9.50  3.35 -2.52
Si -4.14 -8.94  3.30
Si  4.14  8.94 -3.30
Si  1.37 -10.03 -2.52
Si -1.47 10.05 -2.52
Si  5.95  5.54  6.60
Si -5.95 -5.54 -6.60
Si -9.60 -3.34 -2.52
Si -2.18 -7.85  6.60
Si  2.18  7.85 -6.60
Si -3.42  6.64  7.38
Si -7.48 -0.05  7.38
Si  3.67  0.06 -9.90
Si -3.67 -0.06  9.90
Si  1.64 -3.29 -9.90
Si -1.64  3.29  9.90
Si  7.56 -0.05  7.38
Si  7.78  6.70 -2.52
Si  3.49 -6.74  7.38
Si  2.29 10.05 -2.52
Si -2.39 -10.03 -2.52
Si  3.85 -0.06  9.90
Si -3.85  0.06 -9.90
Si -1.81  3.40 -9.90
Si  1.81 -3.40  9.90
Si -7.87 -6.68 -2.52
Si  4.18  8.89  4.08
Si -2.12 -3.29 -9.90
Si  2.12  3.29  9.90
Si -1.95 -3.40  9.90
Si  1.95  3.40 -9.90
Si -5.99 -7.84  4.08
Si  0.33  8.95 -5.82
Si -7.80 -4.43 -5.82
Si  9.12 -5.59  0.78
Si  4.10  6.64  7.38
Si  5.58  1.16 -9.12
Si  1.52 -5.53 -9.12
Si -4.03 -6.74  7.38
Si -3.66  4.51 -9.12
Si -5.70  1.16 -9.12
Si  7.37 -4.50  6.60
Si -7.37  4.50 -6.60
Si -1.76  1.04 10.68
Si  3.86  4.51 -9.12
Si -2.24 -5.53 -9.12
Si  2.00  1.04 10.68
Si -0.04 -2.30 10.68
Si  9.27 -1.09 -5.82
Si  5.21 -7.78 -5.82
Si -7.67 -4.50  6.60
Si  7.67  4.50 -6.60
Si -0.47 -8.88 -6.60
Si  0.47  8.88  6.60
Si  0.49 11.14  0.78
Si -9.67 -5.59  0.78
Si -3.43  8.95 -5.82
Si -9.53 -1.09 -5.82
Si -9.17  5.60 -3.30
Si  9.17 -5.60  3.30
Si 11.28  0.00  0.00
Si -11.28  0.00  0.00
Si  5.18 -10.04  0.00
Si -5.18 10.04  0.00
Si 11.16 -2.24  0.78
Si  4.09  8.95 -5.82
Si  7.09 -8.94  0.78
Si -9.14  5.54  4.08
Si -6.07 -7.78 -5.82
Si 11.23  0.01 -2.52
Si -9.39 -1.15  6.60
Si  9.39  1.15 -6.60
Si  3.72 -2.30 10.68
Si  3.29 -8.88 -6.60
Si -3.29  8.88  6.60
Si  5.13 -10.03 -2.52
Si  0.27  4.39 10.68
Si -9.41  1.15 -6.60
Si  9.41 -1.15  6.60
Si  5.34 -7.85  6.60
Si -5.34  7.85 -6.60
Si -3.79 -2.30 10.68
Si -5.23 10.05 -2.52
Si -11.33  0.01 -2.52
Si -9.62 -5.60  3.30
Si  9.62  5.60 -3.30
Si  0.54 11.13  3.30
Si -0.54 -11.13 -3.30
Si -3.27 11.14  0.78
Si -11.40 -2.24  0.78
Si -5.40  3.29  9.90
Si  5.40 -3.29 -9.90
Si -6.10 -10.04  0.00
Si  6.10 10.04  0.00
Si -4.22 -8.88 -6.60
Si  4.22  8.88  6.60
Si -5.94 -7.85  6.60
Si  5.94  7.85 -6.60
Si -5.57  3.40 -9.90
Si  5.57 -3.40  9.90
Si  9.66  5.54  4.08
Si  7.31 -2.18 -9.12
Si -11.21  2.25 -3.30
Si 11.21 -2.25  3.30
Si  5.28 -5.53 -9.12
Si -7.14  8.94 -3.30
Si  7.14 -8.94  3.30
Si -0.50 -11.19  4.08
Si  5.71  3.40 -9.90
Si -5.71 -3.40  9.90
Si  0.39  6.63  9.90
Si -0.39 -6.63 -9.90
Si  4.25 11.14  0.78
Si -5.88 -3.29 -9.90
Si  5.88  3.29  9.90
Si -9.06  7.79  0.78
Si -11.10  4.45  0.78
Si  0.22  6.75 -9.90
Si -0.22 -6.75  9.90
Si -7.95 -8.94  0.78
Si  6.05 10.05 -2.52
Si -6.15 -10.03 -2.52
Si 11.35  2.25 -3.30
Si -11.35 -2.25  3.30
Si -3.22 11.13  3.30
Si  3.22 -11.13 -3.30
Si -3.49  4.39 10.68
Si -5.52  1.04 10.68
Si -7.10  8.89  4.08
Si -11.17  2.20  4.08
Si -1.63  7.85 -9.12
Si -7.73 -2.18 -9.12
Si  5.76  1.04 10.68
Si  1.69 -5.65 10.68
Si  2.13  7.85 -9.12
Si  4.03  4.39 10.68
Si -6.00 -5.53 -9.12
Si -7.18  6.64  7.38
Si -9.21  3.29  7.38
Si -2.07 -5.65 10.68
Si -9.22  5.60 -5.82
Si 11.39  2.20  4.08
Si 11.46  4.45  0.78
Si  9.28 -3.40  7.38
Si  3.26 -11.19  4.08
Si  7.25 -6.74  7.38
Si -11.05  4.44  3.30
Si 11.05 -4.44 -3.30
Si  9.01 -7.79 -3.30
Si -9.01  7.79  3.30
Si  1.30 -12.28  0.78
Si -7.43 -0.06  9.90
Si  7.43  0.06 -9.90
Si -7.90 -8.94  3.30
Si  7.90  8.94 -3.30
Si -3.37  6.63  9.90
Si  3.37 -6.63 -9.90
Si  4.30 11.13  3.30
Si -4.30 -11.13 -3.30
Si -0.14  0.07 -12.41
Si -7.61  0.06 -9.90
Si  7.61 -0.06  9.90
Si -3.54  6.75 -9.90
Si  3.54 -6.75  9.90
Si -1.38  9.99  7.38
Si  9.74  7.79  0.78
Si -9.52 -3.40  7.38
Si -9.09  5.54  6.60
Si  9.09 -5.54 -6.60
Si  9.58  5.60 -5.82
Si  9.59  3.29  7.38
Si -2.46 -12.28  0.78
Si -0.59 -11.13 -5.82
Si  1.46 -10.09  7.38
Si -7.42  4.51 -9.12
Si  7.94  8.89  4.08
Si -4.15 -6.63 -9.90
Si  4.15  6.63  9.90
Si  3.98  6.75 -9.90
Si -3.98 -6.75  9.90
Si 11.08 -4.49  4.08
Si  2.38  9.99  7.38
Si -4.26 -11.19  4.08
Si  9.05 -7.84  4.08
Si  7.86  6.64  7.38
Si -7.79 -6.74  7.38
Si  7.62  4.51 -9.12
Si -2.30 -10.09  7.38
Si -0.51 -8.88 -9.12
Si 11.51  4.44  3.30
Si -11.51 -4.44 -3.30
Si  1.35 -12.29  3.30
Si -1.35 12.29 -3.30
Si 10.97 -6.69  0.00
Si -10.97  6.69  0.00
Si -11.26  2.26 -5.82
Si -7.19  8.95 -5.82
Si 11.30  2.26 -5.82
Si  3.62  0.07 -12.41
Si -9.79 -7.79 -3.30
Si  9.79  7.79  3.30
Si  1.59 -3.28 -12.41
Si -2.41 -12.29  3.30
Si  2.41 12.29 -3.30
Si  3.17 -11.13 -5.82
Si -1.31 12.24  4.08
Si -11.47 -4.49  4.08
Si -9.71 -5.54 -6.60
Si  9.71  5.54  6.60
Si  0.45 11.19 -6.60
Si -0.45 -11.19  6.60
Si -1.86  3.41 -12.41
Si -3.90  0.07 -12.41
Si  1.90  3.41 -12.41
Si -2.17 -3.28 -12.41
Si 10.93 -6.68 -2.52
Si  9.34  1.16 -9.12
Si -11.12  2.19  6.60
Si 11.12 -2.19 -6.60
Si  7.05 -8.88 -6.60
Si -7.05  8.88  6.60
Si  2.45 12.24  4.08
Si  3.25 -8.88 -9.12
Si -11.02  6.70 -2.52
Si -9.75 -7.84  4.08
Si -5.39  7.85 -9.12
Si -9.46  1.16 -9.12
Si -7.03 11.14  0.78
Si -13.13  1.10  0.78
Si 11.00 -4.43 -5.82
Si  8.96 -7.78 -5.82
Si  7.48 -2.30 10.68
Si  7.85  8.95 -5.82
Si  5.45 -5.65 10.68
Si 13.19  1.10  0.78
Si -1.46  7.74 10.68
Si -7.55 -2.30 10.68
Si -4.35 -11.13 -5.82
Si  5.06 -12.28  0.78
Si  1.71 -1.04 -13.20
Si -1.71  1.04 13.20
Si -11.59 -6.69  0.00
Si 11.59  6.69  0.00
Si  2.30  7.74 10.68
Si 11.44  2.19  6.60
Si -11.44 -2.19 -6.60
Si -2.05 -1.04 -13.20
Si  2.05  1.04 13.20
Si -0.01  2.31 -13.20
Si  0.01 -2.31 13.20
Si  5.89  7.85 -9.12
Si -0.61 -13.38  0.00
Si  0.61 13.38  0.00
Si  3.31 -11.19  6.60
Si -3.31 11.19 -6.60
Si -5.83 -5.65 10.68
Si -4.27 -8.88 -9.12
Si 13.01 -3.35  0.00
Si -13.01  3.35  0.00
Si -5.14  9.99  7.38
Si  8.94 -10.04  0.00
Si -8.94 10.04  0.00
Si -11.24 -0.05  7.38
Si 11.32 -0.05  7.38
Si -13.08  1.10  3.30
Si 13.08 -1.10 -3.30
Si  5.22 -10.09  7.38
Si -6.98 11.13  3.30
Si  6.98 -11.13 -3.30
Si 11.54  6.70 -2.52
