500
set: 481.00  0.00  0.00
Si -0.09  0.01 -0.08
Si  1.79  0.94  0.61
Si  0.11 -2.05  0.77
Si -1.71  1.09  0.94
Si -0.15 -0.16 -2.27
Si  1.52  1.14  2.82
Si  1.77 -1.14 -2.73
Si  0.04  1.94 -2.88
Si -3.48  0.06  0.09
Si -1.58 -3.19 -0.03
Si -1.72  3.13  0.08
Si  1.88 -3.10  0.08
Si  2.01  3.03 -0.03
Si  3.71  0.06  0.09
Si  0.04 -2.21  2.99
Si -1.82  0.93  3.14
Si -2.07 -0.94 -3.06
Si -3.41 -2.08  0.58
Si -1.78  2.95 -2.16
Si  3.45  0.23 -2.15
Si  1.74 -0.93  3.62
Si  0.19  4.14  0.58
Si -1.85 -3.01 -2.25
Si -1.77 -1.21  3.72
Si  1.74  3.22 -2.25
Si -3.74  0.23 -2.15
Si  1.82 -3.28 -2.16
Si  3.78 -2.08  0.58
Si -0.15  2.31  3.72
Si  3.50 -1.93  2.78
Si -3.69 -1.93  2.78
Si -0.10 -4.01 -3.09
Si -0.10  4.29  2.78
Si  3.50  2.22 -3.09
Si -3.69  2.22 -3.09
Si  3.45  1.91  3.60
Si  1.89 -0.99 -4.93
Si -3.49  4.18  0.77
Si  0.11  2.10 -5.10
Si -5.41  0.94  0.61
Si -3.75  1.91  3.60
Si  1.89 -5.14  0.94
Si -1.81 -5.29  0.61
Si -0.15 -4.32  3.60
Si  3.71  4.18  0.77
Si  5.48  1.09  0.94
Si -1.81 -1.13 -5.26
Si -5.18  3.03 -0.03
Si  5.12 -0.94 -3.06
Si -1.82  5.09 -2.73
Si  0.11 -2.01 -5.79
Si -3.55  4.02  2.99
Si -5.32 -3.10  0.08
Si  0.11 -6.17  0.09
Si  1.88  1.06 -5.79
Si -2.07 -5.09  2.82
Si -5.42 -1.14 -2.73
Si -1.58  0.96 -5.90
Si  3.64  4.02  2.99
Si -3.55 -4.29 -2.88
Si -1.72 -1.02  5.96
Si  2.01 -1.12  5.84
Si  5.37  0.93  3.14
Si  0.11  6.29  0.09
Si  1.52  5.29 -3.06
Si  5.47  3.13  0.08
Si  3.64 -4.29 -2.88
Si  0.11  2.14  5.96
Si -0.15 -6.00 -2.15
Si  1.77 -5.29  3.14
Si  3.45 -3.92  3.72
Si -5.67  1.14  2.82
Si  0.19 -0.01  6.45
Si  5.61 -3.19 -0.03
Si  1.82  5.02  3.72
Si  5.34 -3.01 -2.25
Si  5.42  2.95 -2.16
Si -3.74 -3.92  3.72
Si -5.45 -0.93  3.62
Si -3.41  2.07 -5.29
Si -5.37 -3.28 -2.16
Si  5.42 -1.21  3.72
Si -1.86  5.29  3.62
Si -5.45  3.22 -2.25
Si  0.19 -4.16 -5.29
Si -0.15  6.46 -2.15
Si  3.78  2.07 -5.29
Si  3.50  2.09  5.80
Si  7.10  0.01 -0.08
Si -0.09 -4.14  5.80
Si  3.50 -6.22 -0.08
Si  3.50  6.24 -0.08
Si -3.69  2.09  5.80
Si  3.50 -2.07 -5.95
Si -3.69 -6.22 -0.08
Si -3.69  6.24 -0.08
Si -0.09  4.16 -5.95
Si -7.29  0.01 -0.08
Si -3.69 -2.07 -5.95
Si -5.30 -0.99 -4.93
Si  3.45  6.07 -2.27
Si -1.81  3.02  6.49
Si -1.71  5.24 -4.93
Si  7.04 -0.16 -2.27
Si -7.08 -2.05  0.77
Si -1.81  7.17  0.61
Si -3.48 -4.12 -5.10
Si -5.30 -5.14  0.94
Si  1.79 -3.21  6.49
Si -3.75  6.07 -2.27
Si -3.48  0.03  6.64
Si  3.71 -4.12 -5.10
Si  1.79  5.09 -5.26
Si  5.38 -5.29  0.61
Si  3.71  0.03  6.64
Si  5.38 -1.13 -5.26
Si  3.45 -6.39 -2.27
Si  1.89  7.32  0.94
Si  7.30 -2.05  0.77
Si -1.71 -3.06  6.82
Si -7.34 -0.16 -2.27
Si  1.89  3.17  6.82
Si  5.12 -5.09  2.82
Si -3.74 -6.39 -2.27
Si  5.37  5.09 -2.73
Si -5.18 -1.12  5.84
Si -1.58  5.11  5.84
Si -5.32  1.06 -5.79
Si  1.52 -7.17 -3.06
Si -7.15  1.94 -2.88
Si -1.72 -5.17 -5.79
Si -3.48  4.21 -5.79
Si  1.77  7.16  3.14
Si -3.48 -4.09  5.96
Si  7.23  1.94 -2.88
Si -7.15 -2.21  2.99
Si  3.71  4.21 -5.79
Si -1.82 -7.37 -2.73
Si  3.71 -4.09  5.96
Si  1.88  5.21  5.96
Si  7.23 -2.21  2.99
Si  5.47 -1.02  5.96
Si -2.07  7.36  2.82
Si -7.00  4.14  0.58
Si  2.01 -5.27 -5.90
Si  5.61  0.96 -5.90
Si -5.42 -5.29  3.14
Si -0.15 -1.84 -8.02
Si -1.85 -7.16  3.62
Si -5.37  5.02  3.72
Si  1.82  0.87 -8.03
Si  7.04  2.31  3.72
Si  0.19 -8.31  0.58
Si -5.67  5.29 -3.06
Si  5.34  5.29  3.62
Si -1.85  1.14 -8.12
Si  7.38  4.14  0.58
Si  1.82 -7.43  3.72
Si -7.34  2.31  3.72
Si -0.09 -8.16  2.78
Si -0.10  0.14  8.65
Si  7.10 -4.01 -3.09
Si  7.10  4.29  2.78
Si -7.29 -4.01 -3.09
Si -0.15  8.14  3.60
Si -1.71 -7.21 -4.93
Si -7.29  4.29  2.78
Si  5.38  3.02  6.49
Si -0.10  0.14 -8.96
Si -7.08  2.10 -5.10
Si  5.38  7.17  0.61
Si -0.10  8.45 -3.09
Si  7.04 -4.32  3.60
Si -3.48 -8.28  0.77
Si -8.90  1.09  0.94
Si -5.41 -3.21  6.49
Si  5.48  5.24 -4.93
Si  8.98  0.94  0.61
Si -0.15  3.99 -8.15
Si -5.30  7.32  0.94
Si  0.11 -6.20  6.64
Si -5.41  5.09 -5.26
Si  3.71 -8.28  0.77
Si  3.45 -2.24 -8.15
Si  0.11  6.26  6.64
Si  7.30  2.10 -5.10
Si -5.30  3.17  6.82
Si  1.79 -7.36 -5.26
Si  8.71  1.14  2.82
Si -3.74 -2.24 -8.15
Si -7.34 -4.32  3.60
Si  5.48 -3.06  6.82
Si  1.77  3.01 -8.61
Si  1.52 -3.02  8.69
Si -8.77 -3.19 -0.03
Si -7.08 -2.01 -5.79
Si -3.56  8.17 -2.88
Si -1.82 -3.22 -8.61
Si -7.08 -6.17  0.09
Si -1.58  9.26 -0.03
Si  3.64  8.17 -2.88
Si  5.12  7.36  2.82
Si  8.96 -1.14 -2.73
Si -8.91  3.13  0.08
Si -3.55 -0.13 -8.75
Si -5.18 -5.27 -5.90
Si -1.72  7.28 -5.79
Si -7.08  6.29  0.09
Si  3.64 -0.13 -8.75
Si -1.72 -9.32  0.08
Si -2.07  3.21  8.69
Si -7.08  2.14  5.96
Si  7.04 -6.00 -2.15
Si  5.47 -5.17 -5.79
Si  2.01  7.19 -5.90
Si -5.42  7.16  3.14
Si  5.37 -7.37 -2.73
Si -1.58 -7.35  5.84
Si -7.00 -0.01  6.45
Si -5.32  5.21  5.96
Si  7.30 -2.01 -5.79
Si  1.52 -3.02 -8.93
Si  1.88  9.36  0.08
Si -3.55 -0.13  8.86
Si  7.30 -6.17  0.09
Si  1.88 -7.25  5.96
Si  5.61  5.11  5.84
Si  3.64 -0.13  8.86
Si  9.07 -3.10  0.08
Si -3.41  6.22  6.45
Si -9.02  0.93  3.14
Si -3.41 -6.24  6.45
Si  1.82  9.18 -2.16
Si -3.55 -8.44  2.99
Si  2.01 -9.42 -0.03
Si -5.67 -7.17 -3.06
Si  5.34 -7.16  3.62
Si  7.30  6.29  0.09
Si  3.64 -8.44  2.99
Si  1.77  3.01  9.01
Si  7.30  2.14  5.96
Si  1.74 -9.24 -2.25
Si -8.97  2.95 -2.16
Si  8.93 -0.93  3.62
Si  9.21  3.03 -0.03
Si -5.37  0.87 -8.03
Si -2.07  3.21 -8.93
Si -7.00 -4.16 -5.29
Si -7.34 -6.00 -2.15
Si  3.78  6.22  6.45
Si  3.78 -6.24  6.45
Si  1.74 -5.09 -8.12
Si -1.82 -3.22  9.01
Si -1.86  1.14  9.50
Si  8.93  3.22 -2.25
Si  3.45  4.38 -8.02
Si -0.15 -1.84  9.60
Si -8.97 -1.21  3.72
Si  5.34  1.14 -8.12
Si -9.05 -3.01 -2.25
Si  7.04  6.46 -2.15
Si  1.82  0.87  9.59
Si  7.38 -0.01  6.45
Si -9.27 -0.94 -3.06
Si -1.77 -5.36 -8.03
Si  9.01 -3.28 -2.16
Si  0.19  8.30 -5.29
Si -3.74  4.38 -8.02
Si -1.86  9.45 -2.25
Si -5.37 -7.43  3.72
Si -1.77 -9.51 -2.16
Si  3.45  8.54  3.72
Si  7.38 -4.16 -5.29
Si -7.34  6.46 -2.15
Si -3.74  8.54  3.72
Si  7.10 -4.14  5.80
Si -0.10  8.31  5.80
Si  7.10  4.16 -5.95
Si -7.29 -4.14  5.80
Si -0.09 -8.29 -5.95
Si -0.15  3.99  9.47
Si -7.29  4.16 -5.95
Si  5.48 -7.21 -4.93
Si  3.45 -2.24  9.47
Si -3.49  8.33 -5.10
Si  9.08 -0.99 -4.93
Si -3.75 -2.24  9.47
Si  0.11 10.41  0.77
Si  3.71  8.33 -5.10
Si -9.00 -5.29  0.61
Si  9.08 -5.14  0.94
Si -9.00 -1.13 -5.26
Si -5.40 -7.36 -5.26
Si  5.12  3.21  8.69
Si -5.42  3.01 -8.61
Si -8.77  0.96 -5.90
Si  5.37 -3.22 -8.61
Si  8.71  5.29 -3.06
Si -5.18  7.19 -5.90
Si -3.48 -8.24 -5.79
Si  0.04  6.09 -8.75
Si -10.67  0.06  0.09
Si  0.04 10.25  2.99
Si -9.02  5.09 -2.73
Si  3.71 -8.24 -5.79
Si -5.18 -9.42 -0.03
Si  0.04  6.09  8.86
Si -5.32  9.36  0.08
Si -8.91 -1.02  5.96
Si  5.12  3.21 -8.93
Si -5.32 -7.25  5.96
Si  5.47  7.28 -5.79
Si -5.67 -3.02  8.69
Si -0.15 -10.15  3.72
Si  9.07  1.06 -5.79
Si  5.47 -9.32  0.08
Si -10.60 -2.08  0.58
Si  0.04 -6.36 -8.75
Si  5.61  9.26 -0.03
Si  7.04 -1.84 -8.02
Si -3.48  8.37  5.96
Si -5.37  9.18 -2.16
Si 10.64  0.23 -2.15
Si -1.78  7.10 -8.03
Si  8.96 -5.29  3.14
Si -7.00 -8.31  0.58
Si  0.04 -10.51 -2.88
Si 10.90  0.06  0.09
Si  0.04 -6.36  8.86
Si  1.74 -5.09  9.50
Si  3.71  8.37  5.96
Si -3.41 10.37  0.58
Si  5.61 -7.35  5.84
Si -5.42  3.01  9.01
Si -9.27 -5.09  2.82
Si  5.34  1.14  9.50
Si -5.45 -9.24 -2.25
Si  9.21 -1.12  5.84
Si  9.01  5.02  3.72
Si  5.37 -3.22  9.01
Si -5.67 -3.02 -8.93
Si -5.45 -5.09 -8.12
Si -5.37  0.87  9.59
Si -7.34 -1.84 -8.02
Si  3.78 10.37  0.58
Si  5.42 -5.36 -8.03
Si  5.34  9.45 -2.25
Si -9.05  5.29  3.62
Si  3.45  4.38  9.60
Si  1.74  7.37 -8.12
Si -1.77 -5.36  9.59
Si  7.38 -8.31  0.58
Si  3.50 -6.09  8.65
Si -10.94  0.23 -2.15
Si  5.42 -9.51 -2.16
Si  7.10 -8.16  2.78
Si  0.19 -0.01 -11.17
Si 10.97 -2.08  0.58
Si  7.10  0.14  8.65
Si -3.74  4.38  9.60
Si -3.69 -6.09  8.65
Si 10.69 -1.93  2.78
Si  3.50 -10.24 -3.09
Si -7.29 -8.16  2.78
Si  3.50  6.37  8.65
Si -3.69 -10.24 -3.09
Si -7.29  0.14  8.65
Si 10.69  2.22 -3.09
Si  7.04  8.14  3.60
Si -1.71 -3.06 -10.80
Si -3.69  6.37  8.65
Si  3.50 -6.09 -8.96
Si 10.64  1.91  3.60
Si -10.88 -1.93  2.78
Si  1.89  3.17 -10.80
Si  7.10  0.14 -8.96
Si  3.50 10.52  2.78
Si  1.79  9.25  6.49
Si -3.69 -6.09 -8.96
Si -8.90  5.24 -4.93
Si  7.10  8.45 -3.09
Si  7.04  3.99 -8.15
Si -10.68  4.18  0.77
Si -3.69 10.52  2.78
Si -9.00  3.02  6.49
Si -3.48  0.03 -10.97
Si -7.08 -6.20  6.64
Si -9.00  7.17  0.61
Si -10.88  2.22 -3.09
Si  8.98 -3.21  6.49
Si -1.71 -11.37  0.94
Si -7.34  8.14  3.60
Si  3.50  6.37 -8.96
Si  0.11 -10.35 -5.10
Si -7.29  0.14 -8.96
Si -7.08  6.26  6.64
Si -7.29  8.45 -3.09
Si  3.71  0.03 -10.97
Si  8.98  5.09 -5.26
Si -1.81 -9.44  6.49
Si -3.69  6.37 -8.96
Si -8.90 -3.06  6.82
Si  7.30 -6.20  6.64
Si  3.45 -10.54  3.60
Si  1.79 -11.51  0.61
Si -7.34  3.99 -8.15
Si -10.94  1.91  3.60
Si -1.81  3.02 -11.13
Si  1.89 -9.29  6.82
Si  7.30  6.26  6.64
Si  8.71 -7.17 -3.06
Si 10.90  4.18  0.77
Si  9.08  7.32  0.94
Si -8.77  5.11  5.84
Si  1.79 -3.21 -11.13
Si -1.71  9.39  6.82
Si -0.15 -8.47 -8.15
Si -3.74 -10.54  3.60
Si  1.52 -11.32  2.82
Si  1.77 11.31 -2.73
Si  9.08  3.17  6.82
Si -8.91 -5.17 -5.79
Si -1.72 -1.02 -11.66
Si  0.11  2.14 -11.66
Si -10.75  4.02  2.99
Si -1.58  0.96 11.72
Si  3.45 -8.07 -8.02
Si  8.96  7.16  3.14
Si  0.11 -10.32  5.96
Si -10.74 -4.29 -2.88
Si 10.83  4.02  2.99
Si 10.64 -3.92  3.72
Si  0.11 10.44 -5.79
Si -9.02 -7.37 -2.73
Si -3.74 -8.07 -8.02
Si -1.78 11.25  3.72
Si  2.01 -1.12 -11.77
Si 10.83 -4.29 -2.88
Si  0.11 -2.01 11.83
Si  5.42  7.10 -8.03
Si  1.88  1.06 11.83
Si -10.60  2.07 -5.29
Si  9.07  5.21  5.96
Si  7.04 -1.84  9.60
Si -1.78  7.10  9.59
Si -5.45 -5.09  9.50
Si -1.82 -11.52  3.14
Si -7.00  8.30 -5.29
Si -2.08 11.52 -3.06
Si -9.05 -7.16  3.62
Si  9.01  0.87 -8.03
Si  9.21 -5.27 -5.90
Si  1.74  7.37  9.50
Si -3.41 -10.39 -5.29
Si -9.27  7.36  2.82
Si -10.94 -3.92  3.72
Si  1.74 11.52  3.62
Si -9.05  1.14 -8.12
Si -7.34 -1.84  9.60
Si  5.42 -5.36  9.59
Si -5.45  7.37 -8.12
Si  3.78 -10.39 -5.29
Si  9.01 -7.43  3.72
Si  7.38  8.30 -5.29
Si 10.69  2.09  5.80
Si  3.50 -2.07 11.67
Si 10.97  2.07 -5.29
Si 10.69 -6.22 -0.08
Si  7.10  8.31  5.80
Si 10.69  6.24 -0.08
Si  3.50 -10.37  5.80
Si -0.10  4.16 11.67
Si 10.69 -2.07 -5.95
Si -3.69 -2.07 11.67
Si  7.10 -8.29 -5.95
Si -3.69 -10.37  5.80
Si -5.30  3.17 -10.80
Si -0.09 -12.45 -0.08
Si 10.64  6.07 -2.27
Si  7.04  3.99  9.47
Si -0.10 12.47 -0.08
Si -8.90 -7.21 -4.93
Si  3.50 10.39 -5.95
Si -7.29  8.31  5.80
Si  5.48 -3.06 -10.80
Si -0.15 12.29 -2.27
Si  3.50  2.09 -11.82
Si -10.88  2.09  5.80
Si -5.41  9.25  6.49
Si -0.09 -4.14 -11.82
Si -3.69 10.39 -5.95
Si -10.68 -4.12 -5.10
Si -10.88 -6.22 -0.08
Si -7.29 -8.29 -5.95
Si -1.81 -1.13 12.36
Si -10.88  6.24 -0.08
Si -3.69  2.09 -11.82
Si -10.88 -2.07 -5.95
Si -10.68  0.03  6.64
Si  0.11 -6.20 -10.97
