500
set: 1638.00  0.00  0.00
Si  0.46  0.46  0.00
Si  0.71 -1.90  0.07
Si -1.90  0.71 -0.07
Si  0.94  2.12 -1.64
Si  2.12  0.94  1.64
Si -2.12 -0.94 -1.78
Si -0.94 -2.12  1.78
Si -0.46 -0.46  3.43
Si -0.46 -0.46 -3.43
Si  2.37 -2.37  1.71
Si -2.37  2.37 -1.71
Si  0.71  3.77  0.07
Si  3.77  0.71 -0.07
Si  1.90 -0.71  3.36
Si -0.71  1.90 -3.36
Si  0.94 -3.54 -1.64
Si -3.54  0.94  1.64
Si  1.90 -0.71 -3.50
Si -0.71  1.90  3.50
Si  3.54 -0.94 -1.78
Si -0.94  3.54  1.78
Si  2.37  3.29  1.71
Si -2.37 -3.29 -1.71
Si  3.29  2.37 -1.71
Si -3.29 -2.37  1.71
Si -3.29  3.29  1.71
Si  3.29 -3.29 -1.71
Si -3.77 -0.71  3.36
Si -0.71 -3.77 -3.36
Si -3.77 -0.71 -3.50
Si -0.71 -3.77  3.50
Si  0.46 -5.21  0.00
Si -5.21  0.46  0.00
Si -4.96 -1.90  0.07
Si -1.90 -4.96 -0.07
Si  2.12 -4.73  1.64
Si -4.73  2.12 -1.64
Si -2.12  4.73 -1.78
Si  4.73 -2.12  1.78
Si -2.12 -0.94  5.07
Si -0.94 -2.12 -5.07
Si  2.12  0.94 -5.21
Si  0.94  2.12  5.21
Si -4.73 -3.54 -1.64
Si -3.54 -4.73  1.64
Si  2.37 -2.37 -5.14
Si -2.37  2.37  5.14
Si  6.13  0.46  0.00
Si  0.46  6.13  0.00
Si  4.73  3.54  1.78
Si  3.54  4.73 -1.78
Si -4.96  3.77  0.07
Si  3.77 -4.96 -0.07
Si  5.21 -0.46 -3.43
Si  5.21 -0.46  3.43
Si -0.46  5.21 -3.43
Si -0.46  5.21  3.43
Si  3.54 -0.94  5.07
Si -0.94  3.54 -5.07
Si  1.90  4.96  3.36
Si  4.96  1.90 -3.36
Si  4.96  1.90  3.50
Si  1.90  4.96 -3.50
Si  0.94 -3.54  5.21
Si -3.54  0.94 -5.21
Si  2.37  3.29 -5.14
Si -2.37 -3.29  5.14
Si  3.29  2.37  5.14
Si -3.29 -2.37 -5.14
Si  6.38 -1.90  0.07
Si -1.90  6.38 -0.07
Si  0.46  0.46 -6.86
Si  0.46  0.46  6.86
Si  3.29 -3.29  5.14
Si -3.29  3.29 -5.14
Si -0.46 -6.13 -3.43
Si -0.46 -6.13  3.43
Si -6.13 -0.46 -3.43
Si -6.13 -0.46  3.43
Si  4.96 -3.77 -3.36
Si -3.77  4.96  3.36
Si -1.90  0.71  6.78
Si  0.71 -1.90 -6.78
Si  2.12  6.60  1.64
Si  6.60  2.12 -1.64
Si  4.96 -3.77  3.50
Si -3.77  4.96 -3.50
Si -2.12 -6.60 -1.78
Si -6.60 -2.12  1.78
Si  0.71 -1.90  6.93
Si -1.90  0.71 -6.93
Si -2.12  4.73  5.07
Si  4.73 -2.12 -5.07
Si -4.73  2.12  5.21
Si  2.12 -4.73 -5.21
Si -5.21 -5.21  0.00
Si  6.38  3.77  0.07
Si  3.77  6.38 -0.07
Si  1.90 -6.38  3.36
Si -6.38  1.90 -3.36
Si  1.90 -6.38 -3.50
Si -6.38  1.90  3.50
Si  0.71 -7.57  0.07
Si -7.57  0.71 -0.07
Si  6.60 -3.54 -1.64
Si -3.54  6.60  1.64
Si -6.60  3.54  1.78
Si  3.54 -6.60 -1.78
Si  4.73  3.54 -5.07
Si  3.54  4.73  5.07
Si  3.77  0.71  6.78
Si  0.71  3.77 -6.78
Si -4.73 -3.54  5.21
Si -3.54 -4.73 -5.21
Si  0.71  3.77  6.93
Si  3.77  0.71 -6.93
Si  7.79  0.94  1.64
Si  0.94  7.79 -1.64
Si -5.21  6.13  0.00
Si  6.13 -5.21  0.00
Si -0.94 -7.79  1.78
Si -7.79 -0.94 -1.78
Si  5.21  5.21  3.43
Si  5.21  5.21 -3.43
Si -3.77 -6.38  3.36
Si -6.38 -3.77 -3.36
Si -6.38 -3.77  3.50
Si -3.77 -6.38 -3.50
Si  7.57 -0.71  3.36
Si -0.71  7.57 -3.36
Si -0.71  7.57  3.50
Si  7.57 -0.71 -3.50
Si  8.04 -2.37  1.71
Si  2.37 -8.04  1.71
Si -2.37  8.04 -1.71
Si -8.04  2.37 -1.71
Si -2.12 -6.60  5.07
Si -6.60 -2.12 -5.07
Si -1.90 -4.96  6.78
Si -4.96 -1.90 -6.78
Si  0.46 -5.21  6.86
Si -5.21  0.46 -6.86
Si -5.21  0.46  6.86
Si  0.46 -5.21 -6.86
Si  6.13  6.13  0.00
Si  6.60  2.12  5.21
Si  2.12  6.60 -5.21
Si -4.96 -1.90  6.93
Si -1.90 -4.96 -6.93
Si  5.21 -6.13  3.43
Si -6.13  5.21 -3.43
Si  5.21 -6.13 -3.43
Si -6.13  5.21  3.43
Si  0.94  2.12 -8.50
Si  2.12  0.94  8.50
Si  8.04  3.29  1.71
Si  3.29  8.04 -1.71
Si -8.04 -3.29 -1.71
Si -3.29 -8.04  1.71
Si -0.94 -2.12  8.64
Si -2.12 -0.94 -8.64
Si  3.54 -6.60  5.07
Si -6.60  3.54 -5.07
Si -4.96 -7.57  0.07
Si -7.57 -4.96 -0.07
Si  6.60 -3.54  5.21
Si -3.54  6.60 -5.21
Si  2.37 -2.37  8.57
Si -2.37  2.37 -8.57
Si  6.13  0.46 -6.86
Si  0.46  6.13 -6.86
Si  0.46  6.13  6.86
Si  6.13  0.46  6.86
Si  3.77 -4.96  6.78
Si -4.96  3.77 -6.78
Si -3.54  0.94  8.50
Si  0.94 -3.54 -8.50
Si  7.79 -4.73  1.64
Si -4.73  7.79 -1.64
Si  4.73 -7.79  1.78
Si -7.79  4.73 -1.78
Si -4.96  3.77  6.93
Si  3.77 -4.96 -6.93
Si -6.13 -6.13  3.43
Si -6.13 -6.13 -3.43
Si -7.79 -0.94  5.07
Si -0.94 -7.79 -5.07
Si  3.54 -0.94 -8.64
Si -0.94  3.54  8.64
Si  0.94 -9.21 -1.64
Si -9.21  0.94  1.64
Si  7.79  0.94 -5.21
Si  0.94  7.79  5.21
Si  8.96  2.37 -1.71
Si  2.37  8.96  1.71
Si -2.37 -8.96 -1.71
Si -8.96 -2.37  1.71
Si  9.21 -0.94 -1.78
Si -0.94  9.21  1.78
Si  0.71  9.44  0.07
Si  9.44  0.71 -0.07
Si -2.37 -3.29 -8.57
Si  2.37  3.29  8.57
Si  3.29  2.37 -8.57
Si -3.29 -2.37  8.57
Si -1.90  6.38  6.78
Si  6.38 -1.90 -6.78
Si  6.38 -1.90  6.93
Si -1.90  6.38 -6.93
Si  7.57  4.96  3.36
Si  4.96  7.57 -3.36
Si  7.57  4.96 -3.50
Si  4.96  7.57  3.50
Si  3.29 -8.96 -1.71
Si -3.29  8.96  1.71
Si  8.96 -3.29 -1.71
Si -8.96  3.29  1.71
Si -3.29  3.29  8.57
Si  3.29 -3.29 -8.57
Si  8.04 -2.37 -5.14
Si -8.04  2.37  5.14
Si  2.37 -8.04 -5.14
Si -2.37  8.04  5.14
Si  6.38 -7.57  0.07
Si -7.57  6.38 -0.07
Si  2.12 -4.73  8.50
Si -4.73  2.12 -8.50
Si -0.71 -9.44 -3.36
Si -9.44 -0.71  3.36
Si  3.77  6.38  6.78
Si  6.38  3.77 -6.78
Si -5.21 -5.21  6.86
Si -5.21 -5.21 -6.86
Si -2.12  4.73 -8.64
Si  4.73 -2.12  8.64
Si -9.44 -0.71 -3.50
Si -0.71 -9.44  3.50
Si  8.04  3.29 -5.14
Si -3.29 -8.04 -5.14
Si  3.29  8.04  5.14
Si -8.04 -3.29  5.14
Si  6.38  3.77  6.93
Si  3.77  6.38 -6.93
Si -7.57  0.71  6.78
Si  0.71 -7.57 -6.78
Si  0.71 -7.57  6.93
Si -7.57  0.71 -6.93
Si -0.46 -0.46 10.28
Si -0.46 -0.46 -10.28
Si  7.79  6.60  1.64
Si  6.60  7.79 -1.64
Si -3.54 -4.73  8.50
Si -4.73 -3.54 -8.50
Si -7.79 -6.60 -1.78
Si -6.60 -7.79  1.78
Si  1.90 -0.71 10.21
Si -0.71  1.90 -10.21
Si  4.73 -7.79 -5.07
Si -7.79  4.73  5.07
Si  7.57 -6.38  3.36
Si -6.38  7.57 -3.36
Si  3.54  4.73 -8.64
Si  4.73  3.54  8.64
Si -9.21 -4.73  1.64
Si -4.73 -9.21 -1.64
Si -6.38  7.57  3.50
Si  7.57 -6.38 -3.50
Si  7.79 -4.73 -5.21
Si -4.73  7.79  5.21
Si  4.73  9.21  1.78
Si  9.21  4.73 -1.78
Si -0.71  1.90 10.35
Si  1.90 -0.71 -10.35
Si -0.94  9.21 -5.07
Si  9.21 -0.94  5.07
Si -5.21  6.13  6.86
Si -5.21  6.13 -6.86
Si  6.13 -5.21 -6.86
Si  6.13 -5.21  6.86
Si -2.37 -8.96  5.14
Si  2.37  8.96 -5.14
Si  8.96  2.37  5.14
Si -8.96 -2.37 -5.14
Si  0.94 -9.21  5.21
Si -9.21  0.94 -5.21
Si -4.96  9.44  0.07
Si  9.44 -4.96 -0.07
Si  2.12 -10.40  1.64
Si -10.40  2.12 -1.64
Si -2.12 10.40 -1.78
Si 10.40 -2.12  1.78
Si -10.63 -1.90  0.07
Si -1.90 -10.63 -0.07
Si -3.29  8.96 -5.14
Si  3.29 -8.96  5.14
Si  8.96 -3.29  5.14
Si -8.96  3.29 -5.14
Si  0.46 -10.88  0.00
Si -10.88  0.46  0.00
Si -0.71 -3.77 -10.21
Si -3.77 -0.71 10.21
Si  6.60  2.12 -8.50
Si  2.12  6.60  8.50
Si -0.71 -3.77 10.35
Si -3.77 -0.71 -10.35
Si  6.13  6.13  6.86
Si  6.13  6.13 -6.86
Si -2.12 -6.60 -8.64
Si -6.60 -2.12  8.64
Si -10.40 -3.54 -1.64
Si -3.54 -10.40  1.64
Si 10.40  3.54  1.78
Si  3.54 10.40 -1.78
Si  4.96 -9.44 -3.36
Si -9.44  4.96  3.36
Si  4.96 -9.44  3.50
Si -9.44  4.96 -3.50
Si -10.63  3.77  0.07
Si  3.77 -10.63 -0.07
Si  1.90 10.63  3.36
Si 10.63  1.90 -3.36
Si -7.57 -4.96  6.78
Si -4.96 -7.57 -6.78
Si  6.60 -3.54 -8.50
Si -3.54  6.60  8.50
Si  1.90 10.63 -3.50
Si 10.63  1.90  3.50
Si  6.38  9.44  0.07
Si  9.44  6.38 -0.07
Si -4.96 -7.57  6.93
Si -7.57 -4.96 -6.93
Si -7.79 -6.60  5.07
Si -6.60 -7.79 -5.07
Si -0.46 10.88 -3.43
Si 10.88 -0.46  3.43
Si -0.46 10.88  3.43
Si 10.88 -0.46 -3.43
Si -6.60  3.54  8.64
Si  3.54 -6.60 -8.64
Si  6.60 -9.21 -1.64
Si -9.21  6.60  1.64
Si  7.79  6.60 -5.21
Si  6.60  7.79  5.21
Si  9.21 -6.60 -1.78
Si -6.60  9.21  1.78
Si  8.04 -8.04  1.71
Si -8.04  8.04 -1.71
Si  4.96  1.90 -10.21
Si  1.90  4.96 10.21
Si  9.21  4.73  5.07
Si  4.73  9.21 -5.07
Si -0.46  5.21 -10.28
Si  5.21 -0.46 -10.28
Si -0.46  5.21 10.28
Si  5.21 -0.46 10.28
Si  0.94  7.79 -8.50
Si  7.79  0.94  8.50
Si -9.21 -4.73 -5.21
Si -4.73 -9.21  5.21
Si  1.90  4.96 -10.35
Si  4.96  1.90 10.35
Si  9.44  0.71  6.78
Si  0.71  9.44 -6.78
Si -0.94 -7.79  8.64
Si -7.79 -0.94 -8.64
Si  0.71  9.44  6.93
Si  9.44  0.71 -6.93
Si -2.12 10.40  5.07
Si 10.40 -2.12 -5.07
Si -3.77 10.63  3.36
Si 10.63 -3.77 -3.36
Si 11.80  0.46  0.00
Si  0.46 11.80  0.00
Si -3.77 10.63 -3.50
Si 10.63 -3.77  3.50
Si -10.40  2.12  5.21
Si  2.12 -10.40 -5.21
Si -6.38 -9.44 -3.36
Si -9.44 -6.38  3.36
Si -6.38 -9.44  3.50
Si -9.44 -6.38 -3.50
Si -3.77  4.96 10.21
Si  4.96 -3.77 -10.21
Si -6.13 -0.46 -10.28
Si -0.46 -6.13 -10.28
Si -0.46 -6.13 10.28
Si -6.13 -0.46 10.28
Si  2.37 -8.04  8.57
Si -2.37  8.04 -8.57
Si -8.04  2.37 -8.57
Si  8.04 -2.37  8.57
Si -7.57  6.38  6.78
Si  6.38 -7.57 -6.78
Si -10.88 -5.21  0.00
Si -5.21 -10.88  0.00
Si  6.38 -7.57  6.93
Si -7.57  6.38 -6.93
Si  4.96 -3.77 10.35
Si -3.77  4.96 -10.35
Si  3.54 10.40  5.07
Si 10.40  3.54 -5.07
Si -2.12 -0.94 11.93
Si -0.94 -2.12 -11.93
Si -3.54 -10.40 -5.21
Si -10.40 -3.54  5.21
Si  8.04  8.96  1.71
Si -8.04 -8.96 -1.71
Si -8.96 -8.04  1.71
Si  8.96  8.04 -1.71
Si  1.90 -6.38 10.21
Si -6.38  1.90 -10.21
Si 12.05 -1.90  0.07
Si -1.90 12.05 -0.07
Si  3.29  8.04 -8.57
Si  8.04  3.29  8.57
Si -8.04 -3.29 -8.57
Si -3.29 -8.04  8.57
Si  0.94  2.12 12.07
Si  2.12  0.94 -12.07
Si -0.46 -11.80 -3.43
Si -11.80 -0.46 -3.43
Si -0.46 -11.80  3.43
Si -11.80 -0.46  3.43
Si -6.38  1.90 10.35
Si  1.90 -6.38 -10.35
Si  9.21 -6.60  5.07
Si -6.60  9.21 -5.07
Si  2.37 -2.37 -12.00
Si -2.37  2.37 12.00
Si -4.73  7.79 -8.50
Si  7.79 -4.73  8.50
Si -0.94  3.54 -11.93
Si  3.54 -0.94 11.93
Si  6.60 -9.21  5.21
Si -9.21  6.60 -5.21
Si  8.04 -8.04 -5.14
Si -8.04  8.04  5.14
Si -10.88  6.13  0.00
Si  6.13 -10.88  0.00
Si  5.21 10.88 -3.43
Si 10.88  5.21 -3.43
Si 10.88  5.21  3.43
Si  5.21 10.88  3.43
Si -7.79  4.73 -8.64
Si  4.73 -7.79  8.64
Si 12.27  2.12 -1.64
Si  2.12 12.27  1.64
Si  0.94 -9.21 -8.50
Si -9.21  0.94  8.50
Si -2.12 -12.27 -1.78
Si -12.27 -2.12  1.78
Si  0.94 -3.54 12.07
Si -3.54  0.94 -12.07
Si -3.77 -6.38 10.21
Si -6.38 -3.77 -10.21
Si 12.05  3.77  0.07
Si  3.77 12.05 -0.07
Si  2.37  8.96  8.57
Si -2.37 -8.96 -8.57
Si  8.96  2.37 -8.57
Si -8.96 -2.37  8.57
Si  9.44 -4.96  6.78
Si -4.96  9.44 -6.78
Si -12.05  1.90 -3.36
Si  1.90 -12.05  3.36
Si  5.21  5.21 -10.28
Si  5.21  5.21 10.28
Si  9.21 -0.94 -8.64
Si -0.94  9.21  8.64
Si  2.37  3.29 -12.00
Si -2.37 -3.29 12.00
Si  3.29  2.37 12.00
Si -3.29 -2.37 -12.00
Si  1.90 -12.05 -3.50
Si -12.05  1.90  3.50
Si -4.96  9.44  6.93
Si  9.44 -4.96 -6.93
Si  7.57 -0.71 10.21
Si -0.71  7.57 -10.21
Si -6.38 -3.77 10.35
Si -3.77 -6.38 -10.35
Si -1.90 -10.63  6.78
Si -10.63 -1.90 -6.78
Si  8.96 -8.96 -1.71
Si -8.96  8.96  1.71
Si -10.63 -1.90  6.93
Si -1.90 -10.63 -6.93
Si -3.29  8.96  8.57
Si  3.29 -8.96 -8.57
Si  8.96 -3.29 -8.57
Si -8.96  3.29  8.57
Si  7.57 -0.71 -10.35
Si -0.71  7.57 10.35
Si -10.88  0.46 -6.86
Si -10.88  0.46  6.86
Si  0.46 -10.88  6.86
Si  0.46 -10.88 -6.86
Si  3.29 -3.29 12.00
Si -3.29  3.29 -12.00
Si 12.27 -3.54 -1.64
