500
set: 329.00  0.00  0.00
Si -0.00  0.06 -0.03
Si -0.00 -2.13  0.77
Si  1.93  1.09  0.71
Si  0.03 -0.04 -2.34
Si -1.96  1.08  0.79
Si  0.04  2.17 -3.07
Si -1.90 -3.25 -0.01
Si -1.90  1.01  3.10
Si -1.89  3.27  0.06
Si -3.78 -0.04 -0.04
Si  1.88  1.15  3.08
Si -1.91 -1.04 -3.11
Si  3.80 -0.04 -0.04
Si  1.90 -3.29  0.06
Si  1.89 -1.18 -3.09
Si  1.90  3.31 -0.01
Si  0.04 -2.20  3.12
Si -1.88  3.24 -2.28
Si  0.00  2.19  3.81
Si -1.89 -3.24 -2.32
Si -0.02  4.34  0.82
Si  1.90 -1.05  3.87
Si  3.77 -2.22  0.82
Si  1.91 -3.32 -2.28
Si -3.79  0.00 -2.38
Si  1.90  3.32 -2.32
Si  3.79  0.00 -2.38
Si -1.88 -1.14  3.91
Si -3.81 -2.22  0.82
Si -0.03 -4.35 -3.04
Si  3.76  2.21 -3.04
Si -3.81  2.21 -3.04
Si  3.76 -2.16  3.14
Si -3.81 -2.16  3.14
Si -0.03  4.40  3.14
Si  5.62  1.08  0.79
Si -5.65  1.09  0.71
Si -3.76  2.15  3.85
Si  1.83 -1.10 -5.40
Si -1.86 -5.48  0.71
Si  1.83 -5.48  0.79
Si  3.82  2.15  3.85
Si  0.03 -4.41  3.85
Si -0.00  2.25 -5.42
Si  3.79  4.43  0.77
Si -3.79  4.43  0.77
Si -1.86 -1.10 -5.47
Si -1.90  5.39 -3.09
Si  1.90  1.08 -6.13
Si -1.91 -5.41  3.08
Si  0.01  2.15  6.15
Si  0.01  6.52 -0.04
Si -3.75 -4.39 -3.07
Si -3.75  4.36  3.12
Si  5.68 -3.25 -0.01
Si  5.68  1.01  3.10
Si  1.90 -1.06  6.18
Si  5.67 -1.04 -3.11
Si  5.69  3.27  0.06
Si -5.68 -3.29  0.06
Si -5.70  1.15  3.08
Si -1.90  1.12 -6.20
Si -5.68  3.31 -0.01
Si  3.83 -4.39 -3.07
Si -5.69 -1.18 -3.09
Si  3.83  4.36  3.12
Si  0.01 -6.60 -0.04
Si  0.01 -2.23 -6.23
Si  1.88  5.53 -3.11
Si -1.89 -1.10  6.25
Si  1.89 -5.55  3.10
Si  3.77  2.16 -5.37
Si -3.79 -4.38  3.81
Si  3.79 -4.38  3.81
Si -3.81  2.16 -5.37
Si  5.70  3.24 -2.28
Si  5.69 -3.24 -2.32
Si -0.02 -4.41 -5.37
Si -5.68 -1.05  3.87
Si  1.91  5.43  3.91
Si -5.67 -3.32 -2.28
Si -5.68  3.32 -2.32
Si  0.00 -6.56 -2.38
Si  0.00  6.56 -2.38
Si -1.89  5.51  3.87
Si  5.70 -1.14  3.91
Si -0.02 -0.03  7.00
Si -0.00 -4.32  6.16
Si  3.79 -6.50 -0.03
Si -3.79 -6.50 -0.03
Si -3.79  2.25  6.16
Si  3.79  2.25  6.16
Si  7.58  0.06 -0.03
Si -7.58  0.06 -0.03
Si  3.79 -2.13 -6.22
Si -3.79 -2.13 -6.22
Si -3.79  6.62 -0.03
Si  3.79  6.62 -0.03
Si -0.00  4.43 -6.22
Si -1.86  3.27  6.90
Si  1.93 -3.29  6.90
Si -3.76  6.53 -2.34
Si  3.79 -4.32 -5.42
Si -3.79 -4.32 -5.42
Si -7.55 -0.04 -2.34
Si  1.83  7.65  0.79
Si -1.86  7.65  0.71
Si  7.58 -2.13  0.77
Si -7.58 -2.13  0.77
Si  3.82  6.53 -2.34
Si  3.79  0.06  6.95
Si -3.79  0.06  6.95
Si  1.83  3.27  6.98
Si -1.96  5.46 -5.40
Si -3.76 -6.60 -2.34
Si  5.72 -5.48  0.71
Si -1.96 -3.29  6.98
Si  7.61 -0.04 -2.34
Si -5.75 -1.10 -5.40
Si  1.93  5.46 -5.47
Si  3.82 -6.60 -2.34
Si -5.75 -5.48  0.79
Si  5.72 -1.10 -5.47
Si  1.89  7.58  3.10
Si  5.68  5.39 -3.09
Si  5.67 -5.41  3.08
Si  1.88 -7.60 -3.11
Si -5.68  1.08 -6.13
Si -7.54  2.17 -3.07
Si -1.89 -5.48 -6.13
Si -7.54 -2.20  3.12
Si  1.89 -5.44 -6.20
Si -3.78 -4.41  6.15
Si -5.68 -1.06  6.18
Si  3.80 -4.41  6.15
Si -3.78  4.33 -6.23
Si  5.68  1.12 -6.20
Si  3.80  4.33 -6.23
Si -1.89  5.50  6.18
Si  7.62  2.17 -3.07
Si  1.90  5.46  6.25
Si  7.62 -2.20  3.12
Si -1.91  7.71  3.08
Si  5.69 -1.10  6.25
Si -5.70  5.53 -3.11
Si -5.69 -5.55  3.10
Si -1.90 -7.74 -3.09
Si  1.91  1.05 -8.47
Si -1.89 -7.62  3.87
Si  7.56  4.34  0.82
Si -7.58  2.19  3.81
Si  7.58  2.19  3.81
Si -5.67  5.43  3.91
Si -1.89  1.13 -8.51
Si -7.60  4.34  0.82
Si  5.69  5.51  3.87
Si -0.02 -8.78  0.82
Si  1.91 -7.70  3.91
Si  0.00 -2.19 -8.57
Si -0.03  0.02 -9.23
Si  7.55 -4.35 -3.04
Si -0.03 -8.73  3.14
Si -7.61 -4.35 -3.04
Si -0.03  8.78 -3.04
Si  7.55  4.40  3.14
Si -0.03  0.03  9.33
Si -7.61  4.40  3.14
Si -5.65 -3.29  6.90
Si  3.79 -8.69  0.77
Si  5.62  5.46 -5.40
Si -3.79 -8.69  0.77
Si -0.00 -6.50  6.95
Si  0.03  8.71  3.85
Si  5.62 -3.29  6.98
Si  5.72  3.27  6.90
Si -7.55 -4.41  3.85
Si  0.03  4.34 -8.53
Si -5.65  5.46 -5.47
Si -3.76 -2.22 -8.53
Si -1.96 -7.67 -5.40
Si  5.72  7.65  0.71
Si  7.58  2.25 -5.42
Si -7.58  2.25 -5.42
Si  9.51  1.09  0.71
Si -5.75  7.65  0.79
Si  7.61 -4.41  3.85
Si -0.00  6.62  6.95
Si  3.82 -2.22 -8.53
Si  1.93 -7.67 -5.47
Si -5.75  3.27  6.98
Si -9.54  1.08  0.79
Si -5.69  7.58  3.10
Si -1.89  7.64 -6.13
Si -7.57  2.15  6.15
Si  1.88 -3.22  9.26
Si -3.75 -0.01 -9.26
Si -3.75  8.74 -3.07
Si -7.57  6.52 -0.04
Si  1.89 -9.81 -0.01
Si  1.89  3.20 -9.28
Si -5.70 -7.60 -3.11
Si -1.90 -7.62  6.18
Si  5.69 -5.48 -6.13
Si  1.89  3.20  9.29
Si  7.59  2.15  6.15
Si  7.59  6.52 -0.04
Si  3.83 -0.01 -9.26
Si -5.68 -5.44 -6.20
Si  1.90  9.83  0.06
Si -9.47 -3.25 -0.01
Si  9.46  1.15  3.08
Si  3.83  8.74 -3.07
Si -9.47  3.27  0.06
Si  1.88 -3.23 -9.30
Si -9.48  1.01  3.10
Si  9.47 -1.18 -3.09
Si -1.91  3.34  9.26
Si -3.75 -8.76  3.12
Si  9.48 -3.29  0.06
Si -1.89 -9.86  0.06
Si -3.75 -0.01  9.31
Si  9.47  3.31 -0.01
Si -9.49 -1.04 -3.11
Si  5.69  5.50  6.18
Si -7.57 -6.60 -0.04
Si -1.90 -3.36 -9.28
Si -7.57 -2.23 -6.23
Si  1.90  7.69 -6.20
Si -5.68  5.46  6.25
Si -1.90 -3.36  9.29
Si -1.89  9.88 -0.01
Si  5.67  7.71  3.08
Si  3.83 -8.76  3.12
Si  7.59 -6.60 -0.04
Si -1.91  3.34 -9.30
Si  3.83 -0.01  9.31
Si  7.59 -2.23 -6.23
Si  1.90 -7.67  6.25
Si  5.68 -7.74 -3.09
Si  0.00 -2.19  9.99
Si -0.02  8.72 -5.37
Si  1.91  9.80 -2.28
Si -5.67  1.05 -8.47
Si  1.90 -9.80 -2.32
Si -9.46  3.24 -2.28
Si  5.69 -7.62  3.87
Si  7.56 -4.41 -5.37
Si -3.79  8.75  3.81
Si  3.79  8.75  3.81
Si  1.90 -5.43 -8.51
Si -9.47 -3.24 -2.32
Si -1.89 -5.51 -8.47
Si  9.48 -1.05  3.87
Si  3.77  6.53  7.00
Si -1.89  1.14 10.05
Si  5.69  1.13 -8.51
Si -7.60 -4.41 -5.37
Si -9.46 -1.14  3.91
Si -7.58  6.56 -2.38
Si -7.58 -6.56 -2.38
Si  7.56 -0.03  7.00
Si  9.48 -3.32 -2.28
Si  7.58 -6.56 -2.38
Si  7.58  6.56 -2.38
Si -3.81  6.53  7.00
Si  9.48  3.32 -2.32
Si -1.89 -9.89 -2.28
Si  1.91  1.05 10.10
Si -1.89  9.88 -2.32
Si  3.77 -6.59  7.00
Si -5.67 -7.70  3.91
Si -7.60 -0.03  7.00
Si -3.79  4.38 -8.57
Si  3.79  4.38 -8.57
Si -3.81 -6.59  7.00
Si  7.58 -4.32  6.16
Si -7.58 -4.32  6.16
Si -0.00 -8.69 -6.22
Si  0.00  8.81  6.16
Si  7.58  4.43 -6.22
Si -7.58  4.43 -6.22
Si  9.41 -1.10 -5.40
Si  9.41 -5.48  0.79
Si  5.62 -7.67 -5.40
Si -9.44 -5.48  0.71
Si  0.03  4.34 10.04
Si -3.76 -2.22 10.04
Si -9.44 -1.10 -5.47
Si  3.82 -2.22 10.04
Si -5.65 -7.67 -5.47
Si  3.79  8.81 -5.42
Si -3.79  8.81 -5.42
Si -0.00 11.00  0.77
Si -3.78  8.71  6.15
Si  3.80  8.71  6.15
Si  5.69  7.64 -6.13
Si -9.48  5.39 -3.09
Si  9.48  1.08 -6.13
Si  0.04  6.55 -9.26
Si -5.68 -9.81 -0.01
Si  5.68 -7.62  6.18
Si -5.70 -3.22  9.26
Si -5.69  3.20 -9.28
Si -9.49 -5.41  3.08
Si -5.69  3.20  9.29
Si  0.04 -6.58 -9.26
Si -5.68  9.83  0.06
Si -11.36 -0.04 -0.04
Si  9.47 -1.06  6.18
Si  0.04 10.93  3.12
Si  5.67  3.34  9.26
Si -5.70 -3.23 -9.30
Si  0.04 -10.95 -3.07
Si -9.47  1.12 -6.20
Si  5.69 -9.86  0.06
Si 11.38 -0.04 -0.04
Si  0.04  6.55  9.31
Si  5.68 -3.36 -9.28
Si  5.68 -3.36  9.29
Si  9.46  5.53 -3.11
Si  5.67  3.34 -9.30
Si -5.68  7.69 -6.20
Si  5.69  9.88 -0.01
Si  0.04 -6.58  9.31
Si -9.47 -1.10  6.25
Si  9.47 -5.55  3.10
Si -5.68 -7.67  6.25
Si -3.78 -8.79 -6.23
Si  3.80 -8.79 -6.23
Si -1.88  7.61 -8.47
Si -3.79  4.38  9.99
Si  3.79  4.38  9.99
Si -5.67  9.80 -2.28
Si -0.02 -0.03 -11.56
Si -5.68 -9.80 -2.32
Si  3.77 10.91  0.82
Si  0.00 -10.94  3.81
Si  1.90 -5.43 10.05
Si -3.81 10.91  0.82
Si -5.68 -5.43 -8.51
Si 11.35 -2.22  0.82
Si  5.69 -5.51 -8.47
Si  9.48  5.43  3.91
Si  5.69  1.14 10.05
Si -11.37  0.00 -2.38
Si  7.56 -8.78  0.82
Si 11.37  0.00 -2.38
Si -9.47  5.51  3.87
Si -5.67  1.05 10.10
Si  1.90  7.70 -8.51
Si  5.69 -9.89 -2.28
Si -11.39 -2.22  0.82
Si  5.69  9.88 -2.32
Si -7.60 -8.78  0.82
Si -7.58 -2.19 -8.57
Si  7.58 -2.19 -8.57
Si -1.88 -5.51 10.10
Si  3.76 -6.54 -9.23
Si  7.55  0.02 -9.23
Si  3.76 -10.91 -3.04
Si -3.82 -6.54 -9.23
Si  3.76  6.59 -9.23
Si 11.34  2.21 -3.04
Si -3.82 -10.91 -3.04
Si -7.61  0.02 -9.23
Si  7.55 -8.73  3.14
Si -3.81  6.59 -9.23
Si 11.34 -2.16  3.14
Si  7.55  8.78 -3.04
Si -7.61 -8.73  3.14
Si  3.76 -6.54  9.33
Si -11.39  2.21 -3.04
Si -7.61  8.78 -3.04
Si  7.55  0.03  9.33
Si  3.77 10.96  3.14
Si -3.81 -6.54  9.33
Si -11.39 -2.16  3.14
Si -3.81 10.96  3.14
Si  3.77  6.59  9.33
Si -7.61  0.03  9.33
Si -3.81  6.59  9.33
Si -9.44  3.27  6.90
Si  9.41  7.65  0.79
Si -7.55  8.71  3.85
Si -0.00 -10.88 -5.42
Si  9.41  3.27  6.98
Si -11.34  2.15  3.85
Si -9.44  7.65  0.71
Si  7.58 -6.50  6.95
Si  1.94  9.84  6.90
Si -7.58 -6.50  6.95
Si -1.86 -9.85  6.90
Si  1.83  3.27 -11.59
Si -7.55  4.34 -8.53
Si  7.61  8.71  3.85
Si -1.96 -3.29 -11.59
Si  9.51 -3.29  6.90
Si  1.83 -9.85  6.98
Si  3.79  0.06 -11.61
Si -3.79  0.06 -11.61
Si  1.93 -12.04  0.71
Si -1.96  9.84  6.98
Si -3.76 -10.97  3.85
Si  7.61  4.34 -8.53
Si 11.40  2.15  3.85
Si 11.37  4.43  0.77
Si -1.96 -12.04  0.79
Si -11.37  4.43  0.77
Si  7.58  6.62  6.95
Si -7.58  6.62  6.95
Si  3.82 -10.97  3.85
Si  0.03 -8.79 -8.53
Si -9.54  5.46 -5.40
Si -1.86  3.27 -11.66
Si  9.51  5.46 -5.47
Si  1.93 -3.29 -11.66
Si -9.54 -3.29  6.98
Si  1.89 11.95 -3.09
Si  1.88 -11.97  3.08
Si -1.89 -1.11 -12.31
Si  9.47  7.58  3.10
Si  9.46 -7.60 -3.11
Si  0.01 -2.23 12.34
Si -11.33 -4.39 -3.07
Si -11.33  4.36  3.12
Si -9.47 -5.48 -6.13
Si  0.01 10.90 -6.23
Si  9.47 -5.44 -6.20
Si -1.89  1.13 12.37
Si  1.89 -1.06 -12.38
Si -9.47  5.50  6.18
Si  0.01 -10.98  6.15
Si  9.48  5.46  6.25
Si 11.40 -4.39 -3.07
Si  0.01  2.15 -12.41
Si 11.40  4.36  3.12
Si -9.49  7.71  3.08
Si -9.48 -7.74 -3.09
Si  1.90  1.08 12.44
Si -1.91 12.09 -3.11
Si -1.90 -12.11  3.10
Si  7.56  8.72 -5.37
Si -7.58 -2.19  9.99
Si  5.70  7.61 -8.47
Si  7.58 -2.19  9.99
Si 11.35  2.16 -5.37
Si -1.88 11.99  3.91
Si -9.47 -7.62  3.87
Si -7.60  8.72 -5.37
Si  9.48  1.05 -8.47
Si -5.68 -5.43 10.05
Si -11.37 -4.38  3.81
Si 11.37 -4.38  3.81
Si -11.39  2.16 -5.37
Si  3.77 -10.97 -5.37
Si -9.47  1.13 -8.51
Si -1.88  7.62 10.10
Si -3.81 -10.97 -5.37
Si -5.68  7.70 -8.51
Si  1.90  7.70 10.05
Si  1.90 12.07  3.87
Si -3.79 -8.75 -8.57
Si  3.79 -8.75 -8.57
Si  9.48 -7.70  3.91
Si  5.70 -5.51 10.10
Si  3.79 -10.88  6.16
Si -3.79 -10.88  6.16
Si -0.00 -13.07 -0.03
Si -3.79 -2.13 12.35
Si  3.79 -2.13 12.35
Si 11.37 -6.50 -0.03
Si -11.37 -6.50 -0.03
Si  7.58 -8.69 -6.22
Si -7.58 -8.69 -6.22
Si  0.00  4.44 12.35
Si -11.37  2.25  6.16
Si 11.37  2.25  6.16
Si 11.37 -2.13 -6.22
Si -11.37 -2.13 -6.22
Si -0.00 -4.32 -12.40
Si -7.58  8.81  6.16
Si  7.58  8.81  6.16
Si -11.37  6.62 -0.03
Si 11.37  6.62 -0.03
Si  3.79  2.25 -12.40
Si -3.79  2.25 -12.40
Si  0.00 13.19 -0.03
Si -3.79 11.00 -6.22
Si  3.79 11.00 -6.22
Si 13.20  1.08  0.79
Si -1.86 -1.10 13.09
Si -5.64  9.84  6.90
Si -7.55  4.34 10.04
Si  5.62 -3.29 -11.59
Si -13.23  1.09  0.71
Si -11.34  6.53 -2.34
Si  0.03 13.09 -2.34
Si  5.62  9.84  6.98
Si  1.83 12.02 -5.40
Si -0.00 -6.50 -11.61
