500
set: 1229.00  0.00  0.00
Si  0.61 -0.81  0.18
Si  0.07  1.37  1.60
Si -1.61 -1.45 -0.75
Si  1.89  0.32 -1.83
Si -2.36  1.29  1.65
Si -3.11  0.29 -0.50
Si -0.81  1.79 -2.77
Si  1.32  3.17  0.38
Si  1.27 -3.07  0.95
Si  1.38  0.55  3.27
Si  1.04  3.05 -1.98
Si -2.73  2.29 -1.35
Si -1.75 -1.40 -3.15
Si  1.23 -2.05  3.31
Si -2.28 -3.59 -0.34
Si  3.44  2.56  0.92
Si -0.03 -4.42 -0.28
Si  4.17  1.03 -1.26
Si -3.10  0.08  3.35
Si -1.98  3.74  1.74
Si  2.18 -0.38 -4.11
Si -1.06  0.43 -4.59
Si  3.56 -3.47  0.45
Si  3.79  1.41  2.96
Si  0.00  4.82  1.63
Si -2.77 -2.45  3.64
Si -0.58 -3.07  4.32
Si  1.65 -2.69 -4.30
Si -5.37 -0.53 -0.63
Si -3.93 -3.37  1.68
Si -0.85 -3.05 -4.45
Si  1.45  3.07 -4.30
Si -3.68 -2.65 -3.30
Si  0.97  0.90 -5.47
Si  5.34 -1.91  1.05
Si  5.73 -0.53 -0.63
Si  0.97  0.90  5.64
Si -3.70  4.47 -0.02
Si  0.81  5.33 -2.28
Si -2.28  3.44  4.21
Si -4.15  2.89 -3.07
Si  2.66 -4.39 -2.98
Si -5.76 -1.91  1.05
Si -5.47 -0.45  2.85
Si  4.51 -3.89 -1.70
Si -4.02 -4.51 -1.51
Si  4.93  3.37 -1.82
Si  4.62 -0.34 -4.20
Si  0.81 -5.78 -2.28
Si  2.89 -3.05  4.67
Si  5.42 -1.91 -2.54
Si  5.64 -0.45  2.85
Si -3.07  1.11  5.43
Si  0.00 -6.29  1.63
Si -5.69 -1.91 -2.54
Si -3.07  1.11 -5.67
Si  5.03  4.19  0.53
Si  0.45 -5.33  3.86
Si -1.06  0.43  6.51
Si -0.03  6.69 -0.28
Si -1.18 -5.46 -3.85
Si  3.74 -5.44  1.78
Si -1.18  5.65 -3.85
Si  0.45  5.77  3.86
Si -0.58  4.25 -5.50
Si -3.34  5.01 -3.59
Si  3.74  5.67  1.78
Si -0.58  4.25  5.61
Si -6.94  1.03 -1.26
Si -5.19  1.48 -4.66
Si  4.92 -1.60  4.90
Si  4.95  2.63  4.62
Si  2.81 -5.28  4.11
Si -6.18  3.37 -1.82
Si  2.18 -0.38  7.00
Si -0.85 -3.05  6.66
Si -6.08  4.19  0.53
Si -0.58 -3.07 -6.79
Si  1.65 -2.69  6.81
Si -4.57  4.34  4.16
Si  4.40  5.05 -3.54
Si -3.70 -6.64 -0.02
Si  1.45  3.07  6.81
Si  3.34  4.08  5.53
Si -4.22 -3.14  5.55
Si -4.22 -3.14 -5.56
Si  2.81  5.82  4.11
Si -4.88  5.54  2.05
Si  3.34  4.08 -5.58
Si  5.92  1.48 -4.66
Si -4.88 -5.56  2.05
Si  2.89 -3.05 -6.44
Si -6.49 -0.34 -4.20
Si  2.66  6.72 -2.98
Si -1.98 -7.37  1.74
Si -3.34 -6.10 -3.59
Si -6.59 -3.89 -1.70
Si -2.28  7.52 -0.34
Si -4.02  6.60 -1.51
Si  1.38  0.55 -7.83
Si -7.32  1.41  2.96
Si  8.00  0.29 -0.50
Si -2.28  3.44 -6.90
Si  1.32 -7.93  0.38
Si -6.18 -1.60  4.90
Si  4.92 -1.60 -6.20
Si  7.17 -3.37  1.68
Si -7.67  2.56  0.92
Si -6.16  2.63  4.62
Si  6.96  2.89 -3.07
Si  1.23 -2.05 -7.79
Si  1.27  8.03  0.95
Si -1.75 -1.40  7.96
Si  4.40 -6.06 -3.54
Si  4.62 -0.34  6.90
Si -7.54 -3.47  0.45
Si -2.77 -2.45 -7.47
Si -3.10  0.08 -7.75
Si  1.04 -8.05 -1.98
Si -5.19  1.48  6.45
Si  3.56  7.64  0.45
Si  7.09 -4.51 -1.51
Si  7.43 -2.65 -3.30
Si  5.03 -6.91  0.53
Si -0.81  1.79  8.34
Si  4.95  2.63 -6.49
Si  6.22  5.54  2.05
Si  6.22 -5.56  2.05
Si  7.41  4.47 -0.02
Si  4.51  7.21 -1.70
Si  8.01  0.08  3.35
Si  8.38  2.29 -1.35
Si -0.58 -6.86 -5.50
Si -3.93  7.74  1.68
Si  5.92  1.48  6.45
Si -0.58 -6.86  5.61
Si  6.54  4.34  4.16
Si -6.18 -1.60 -6.20
Si  8.74  1.29  1.65
Si  0.45 -5.33 -7.25
Si -3.68 -2.65  7.80
Si -5.05 -5.28 -5.30
Si -2.28 -7.67  4.21
Si  3.79  1.41 -8.15
Si -6.71  5.05 -3.54
Si -0.58  8.04  4.32
Si -1.18 -5.46  7.25
Si -4.57 -6.77  4.16
Si  2.81 -5.28 -7.00
Si -6.08 -6.91  0.53
Si  1.45 -8.03 -4.30
Si -0.85  8.05 -4.45
Si  3.44 -8.54  0.92
Si -1.18  5.65  7.25
Si  0.45  5.77 -7.25
Si -2.73 -8.81 -1.35
Si -6.16  2.63 -6.49
Si -7.37 -5.44  1.78
Si -5.05 -5.28  5.80
Si  4.93 -7.74 -1.82
Si -5.05  5.82 -5.30
Si -4.57  4.34 -6.95
Si  6.88 -3.14  5.55
Si  6.88 -3.14 -5.56
Si -9.22  0.32 -1.83
Si  8.33 -2.45  3.64
Si -7.37  5.67  1.78
Si  1.89  0.32  9.28
Si -6.49 -0.34  6.90
Si -4.15  2.89  8.03
Si  2.81  5.82 -7.00
Si  8.83 -3.59 -0.34
Si  3.34 -7.03  5.53
Si  3.34 -7.03 -5.58
Si  1.65  8.41 -4.30
Si  0.07  1.37 -9.51
Si  2.66 -4.39  8.12
Si  6.05 -5.28 -5.30
Si -3.34  5.01  7.51
Si  9.50 -1.45 -0.75
Si -5.05  5.82  5.80
Si  1.04  3.05  9.13
Si -4.15 -8.21 -3.07
Si -6.71 -6.06 -3.54
Si  1.23  9.06  3.31
Si -0.81 -9.31 -2.77
Si  2.89  8.06  4.67
Si  8.03  1.11  5.43
Si -2.77  8.65  3.64
Si -3.68  8.45 -3.30
Si  7.09  6.60 -1.51
Si -1.61  9.65 -0.75
Si -8.93 -0.38 -4.11
Si -2.36  1.29 -9.46
Si  0.07 -9.73  1.60
Si  8.03  1.11 -5.67
Si  7.76  5.01 -3.59
Si  6.05 -5.28  5.80
Si -5.47 -0.45 -8.26
Si -6.59  7.21 -1.70
Si -8.21 -3.05  4.67
Si  6.05  5.82 -5.30
Si  7.41 -6.64 -0.02
Si  9.36 -1.40 -3.15
Si -8.44 -4.39 -2.98
Si  5.64 -0.45 -8.26
Si  9.12  3.74  1.74
Si -6.18 -7.74 -1.82
Si  4.40  5.05  7.56
Si  6.05  5.82  5.80
Si -2.36 -9.81  1.65
Si -3.34 -6.10  7.51
Si -9.72  0.55  3.27
Si -1.98  3.74 -9.37
Si  6.54 -6.77  4.16
Si -9.79  3.17  0.38
Si  5.42 -1.91  8.56
Si  0.61 10.29  0.18
Si  0.81  5.33  8.83
Si -9.84 -3.07  0.95
Si -1.75  9.71 -3.15
Si  8.82  3.44  4.21
Si -7.77  4.08  5.53
Si -2.73  2.29  9.76
Si -7.77  4.08 -5.58
Si -5.69 -1.91  8.56
Si  6.54  4.34 -6.95
Si -0.85  8.05  6.66
Si  7.76 -6.10 -3.59
Si -10.49 -0.81  0.18
Si -0.58  8.04 -6.79
Si -2.28 -7.67 -6.90
Si  0.81 -5.78  8.83
Si -1.61 -1.45 10.36
Si -4.22  7.97  5.55
Si -4.22  7.97 -5.56
Si -9.88 -2.05  3.31
Si  1.45 -8.03  6.81
Si  0.00  4.82 -9.48
Si  4.40 -6.06  7.56
Si -8.29 -5.28  4.11
Si  1.27 -3.07 -10.15
Si  7.17  7.74  1.68
Si  5.34  9.20  1.05
Si -10.06  3.05 -1.98
Si  2.89  8.06 -6.44
Si -4.57 -6.77 -6.95
Si -9.46 -2.69 -4.30
Si  4.17  1.03  9.85
Si -7.54  7.64  0.45
Si -3.93 -3.37 -9.43
Si 10.30  1.79 -2.77
Si  3.79 -9.69  2.96
Si  4.95 -8.47  4.62
Si -8.21 -3.05 -6.44
Si  2.66  6.72  8.12
Si -5.76  9.20  1.05
Si -8.29  5.82  4.11
Si  1.65  8.41  6.81
Si  0.61 -0.81 -10.92
Si  4.17 -10.07 -1.26
Si  5.42  9.20 -2.54
Si -9.66  3.07 -4.30
Si  6.96  2.89  8.03
Si  4.93  3.37  9.28
Si -7.32  1.41 -8.15
Si 10.04  0.43 -4.59
Si  3.44  2.56 -10.19
Si -3.11  0.29 10.61
Si  7.43 -2.65  7.80
Si  1.89 -10.79 -1.83
Si -5.69  9.20 -2.54
Si  4.51 -3.89  9.40
Si  1.38 -10.55  3.27
Si  8.01  0.08 -7.75
Si -8.44  6.72 -2.98
Si  6.96 -8.21 -3.07
Si -11.04  1.37  1.60
Si  1.32  3.17 -10.73
Si -3.11 -10.82 -0.50
Si -6.71  5.05  7.56
Si  0.61 -0.81 11.29
Si -4.02 -4.51  9.60
Si -8.93 -0.38  7.00
Si 11.17  1.37  1.60
Si  0.00 -6.29 -9.48
Si  3.74 -5.44 -9.32
Si -6.16 -8.47  4.62
Si  8.33 -2.45 -7.47
Si -7.67 -8.54  0.92
Si  3.74  5.67 -9.32
Si  5.34 -1.91 -10.06
Si -10.13  0.90 -5.47
Si -2.28 -3.59 10.77
Si 10.26 -3.05 -4.45
Si  8.83  7.52 -0.34
Si  0.97 -10.21 -5.47
Si -10.13  0.90  5.64
Si -6.18  3.37  9.28
Si -1.06 -10.68 -4.59
Si -4.88  5.54 -9.06
Si  2.18 10.73 -4.11
Si -4.88 -5.56 -9.06
Si -0.03 -4.42 10.83
Si  6.54 -6.77 -6.95
Si  0.97 -10.21  5.64
Si  8.82  3.44 -6.90
Si  1.89 11.43 -1.83
Si  7.43  8.45 -3.30
Si -5.76 -1.91 -10.06
Si 11.72 -0.81  0.18
Si -2.77  8.65 -7.47
Si  3.56 -3.47 -10.66
Si  4.95 -8.47 -6.49
Si  4.92  9.51  4.90
Si 10.53 -3.07  4.32
Si -6.71 -6.06  7.56
Si -3.07 -10.00  5.43
Si -5.37 -0.53 10.48
Si -10.29  5.33 -2.28
Si -3.11 11.39 -0.50
Si -7.77 -7.03  5.53
Si  9.12 -7.37  1.74
Si -7.77 -7.03 -5.58
Si -5.37 10.58 -0.63
Si -5.19 -9.63 -4.66
Si -3.07 -10.00 -5.67
Si  6.88  7.97  5.55
Si  6.88  7.97 -5.56
Si  7.76  5.01  7.51
Si 11.08 -4.42 -0.28
Si -3.10 -11.03  3.35
Si  0.61 -11.92  0.18
Si  5.73 -0.53 10.48
Si -9.46 -2.69  6.81
Si  9.93 -5.46 -3.85
Si 10.04  0.43  6.51
Si -11.13 -4.42 -0.28
Si  1.32  3.17 11.48
Si  1.23  9.06 -7.79
Si -3.11  0.29 -11.61
Si -10.29 -5.78 -2.28
Si  5.73 10.58 -0.63
Si -1.61 -1.45 -11.85
Si  9.93  5.65 -3.85
Si -8.29 -5.28 -7.00
Si -3.68  8.45  7.80
Si -3.10 11.19  3.35
Si -1.98 -7.37 -9.37
Si -6.94  1.03  9.85
Si -6.59 -3.89  9.40
Si  1.38 11.66  3.27
Si -2.28 -3.59 -11.44
Si -0.03 -4.42 -11.38
Si -9.66  3.07  6.81
Si -11.10  4.82  1.63
Si -4.15 -8.21  8.03
Si 11.11  4.82  1.63
Si  1.04 -8.05  9.13
Si  5.92 -9.63 -4.66
Si  8.38 -8.81 -1.35
Si -6.94 -10.07 -1.26
Si  6.22  5.54 -9.06
Si -5.47 10.66  2.85
Si -8.29  5.82 -7.00
Si  7.17 -3.37 -9.43
Si  6.22 -5.56 -9.06
Si -4.02  6.60  9.60
Si -6.16 -8.47 -6.49
Si -6.18  9.51  4.90
Si  9.36 -1.40  7.96
Si -11.91  1.79 -2.77
Si  4.92  9.51 -6.20
Si  2.18 -11.48 -4.11
Si  5.64 10.66  2.85
Si  7.76 -6.10  7.51
Si -8.21  8.06  4.67
Si  8.82 -7.67  4.21
Si  5.03  4.19 -10.58
Si  4.62 10.77 -4.20
Si -1.06 11.54 -4.59
Si -9.72  0.55 -7.83
Si -7.32 -9.69  2.96
Si  1.27 -3.07 12.06
Si -3.70  4.47 11.09
Si -8.44 -4.39  8.12
Si -10.65 -5.33  3.86
Si -0.81 -9.31  8.34
Si -3.70  4.47 -11.12
Si -1.06 -10.68  6.51
Si  8.33  8.65  3.64
Si  3.56 -3.47 11.55
Si  0.07 12.48  1.60
Si 10.26 -3.05  6.66
Si -9.79 -7.93  0.38
Si 10.53  4.25 -5.50
Si 10.53  4.25  5.61
Si -1.75  9.71  7.96
Si 12.15  3.05 -1.98
Si -1.61 -12.56 -0.75
Si  4.51  7.21  9.40
Si -5.19 -9.63  6.45
Si -10.65  5.77  3.86
Si -0.03  6.69 10.83
Si -2.36 12.40  1.65
Si -9.84  8.03  0.95
Si -9.88 -2.05 -7.79
Si  7.09 -4.51  9.60
Si  3.44  2.56 12.02
Si  0.07  1.37 12.70
Si 12.38 -3.07  0.95
Si -3.93  7.74 -9.43
Si -12.71 -1.45 -0.75
Si 12.42  3.17  0.38
Si -11.69 -3.07  4.32
Si -5.37 -11.63 -0.63
Si -11.10 -6.29  1.63
Si 11.11 -6.29  1.63
Si  4.17 12.14 -1.26
Si 10.53 -3.07 -6.79
Si -6.08  4.19 -10.58
Si -5.37 -0.53 -11.73
Si 12.49  0.55  3.27
Si -6.18  9.51 -6.20
Si 12.33 -2.05  3.31
Si 11.08  6.69 -0.28
Si  8.74  1.29 -9.46
Si -2.73  2.29 -12.46
Si  5.73 -11.63 -0.63
Si -11.13  6.69 -0.28
Si  2.18 10.73  7.00
Si  1.27  8.03 -10.15
Si -7.67  2.56 -10.19
Si  5.92 -9.63  6.45
Si -1.75 -12.50 -3.15
Si -12.17  0.43 -4.59
Si -2.36  1.29 12.75
Si  4.62 -11.45 -4.20
Si -10.06 -8.05 -1.98
Si  4.93 -7.74  9.28
Si  8.38  2.29  9.76
Si -7.37 -5.44 -9.32
Si  5.73 -0.53 -11.73
Si  1.89  0.32 -12.94
Si -9.22  0.32  9.28
Si  4.17  1.03 -12.37
Si -5.47 -11.55  2.85
Si -11.95 -3.05 -4.45
Si 12.99  0.32 -1.83
Si -7.37  5.67 -9.32
Si  5.64 -11.55  2.85
Si -8.21  8.06 -6.44
Si -0.03  6.69 -11.38
Si  1.38 -10.55 -7.83
Si -0.81 12.90 -2.77
Si  3.79 -9.69 -8.15
Si  0.97 12.01 -5.47
Si  8.74 -9.81  1.65
Si 11.92  5.33 -2.28
Si -6.49 10.77 -4.20
Si -9.66 -8.03 -4.30
Si 12.08  0.90 -5.47
Si  8.00  0.29 10.61
Si -1.06 11.54  6.51
Si  0.97 12.01  5.64
Si 11.56 -5.33  3.86
Si -12.86 -1.40 -3.15
Si -2.28  7.52 10.77
Si  5.03  4.19 11.64
Si 12.08  0.90  5.64
Si -9.46  8.41 -4.30
Si 10.30  1.79  8.34
Si  1.32 -7.93 -10.73
Si  3.79 12.52  2.96
Si  5.34 -1.91 12.16
Si -2.73 -8.81  9.76
Si  6.96 -8.21  8.03
Si 11.92 -5.78 -2.28
Si -3.70 -6.64 11.09
Si  9.93 -5.46  7.25
Si  8.00 -10.82 -0.50
Si -3.70 -6.64 -11.12
Si  1.04  3.05 -13.08
Si 11.56  5.77  3.86
Si -8.44  6.72  8.12
Si -7.54 -3.47 -10.66
Si -1.98  3.74 12.85
Si  9.93  5.65  7.25
Si -6.59  7.21  9.40
Si  9.50  9.65 -0.75
Si -6.18 -7.74  9.28
Si  8.82 -7.67 -6.90
Si -5.76 -1.91 12.16
Si  3.56  7.64 -10.66
Si -11.68  4.25 -5.50
Si  4.62 10.77  6.90
Si  5.03 -6.91 -10.58
Si  9.12  3.74 -9.37
Si  0.07 -9.73 -9.51
Si  0.00  4.82 12.73
