500
set: 956.00  0.00  0.00
Si  0.48 -1.18  0.75
Si -0.46  1.16 -0.82
Si  1.31  1.16  0.80
Si -1.30 -1.17 -0.82
Si -2.12  1.11  0.75
Si  0.88  0.09 -2.39
Si -0.83 -0.05  2.41
Si  2.15 -1.14 -0.82
Si  0.03 -2.22 -2.37
Si -0.00  2.25  2.44
Si -2.99 -1.20  0.80
Si  3.04  1.17 -0.79
Si  2.58  0.00  2.33
Si -2.55  0.03 -2.41
Si -0.49 -3.40  0.80
Si  0.45  3.45 -0.77
Si  1.66 -2.27  2.46
Si  1.30 -3.44 -0.74
Si -1.31  3.46  0.77
Si  1.76  2.35 -2.41
Si -1.76  2.35 -2.43
Si -1.76 -2.38  2.42
Si -0.88  0.07 -3.99
Si  0.90  0.05  4.01
Si  3.87 -1.21  0.78
Si -3.90  1.14 -0.87
Si -2.19 -3.45 -0.77
Si  2.15  3.50  0.80
Si -2.99  3.41 -0.74
Si  2.97 -3.41  0.88
Si -0.06 -2.31  4.03
Si  0.09  2.38 -4.01
Si  3.42  2.25  2.37
Si -3.45  2.25  2.36
Si  2.60 -0.03 -4.01
Si -2.61  0.00  4.02
Si  3.44 -2.34 -2.41
Si -3.48 -2.29 -2.41
Si -1.67 -2.25 -4.02
Si  4.29 -0.02 -2.37
Si -4.28 -0.04  2.40
Si -4.77 -1.18 -0.77
Si  1.68 -2.32 -4.06
Si -1.72  2.28  4.08
Si  4.77  1.19  0.81
Si  1.73  2.36  4.07
Si  0.88  4.53  2.42
Si -0.88 -4.55 -2.41
Si -0.84  4.61 -2.41
Si  0.78 -4.65  2.37
Si  3.94  3.46 -0.74
Si -3.96 -3.44  0.77
Si  0.41 -1.09 -5.58
Si  5.57 -1.18 -0.77
Si -5.56  1.19  0.81
Si  3.44  2.28 -4.02
Si  3.41 -2.35  4.01
Si -0.34  1.20  5.63
Si -0.35  5.70  0.80
Si -3.40  2.29 -4.07
Si -3.41 -2.32  4.04
Si  0.40 -5.74 -0.79
Si  2.50 -4.64 -2.44
Si -2.54  4.63  2.42
Si -4.30  0.04 -3.99
Si  1.26  1.14 -5.62
Si -1.24 -1.07  5.64
Si -2.64 -4.65  2.44
Si  2.68  4.68 -2.37
Si  4.32 -0.06  4.01
Si  4.70 -3.49 -0.74
Si -4.72  3.50  0.88
Si  1.34  5.73 -0.82
Si -1.33 -5.74  0.80
Si -2.09  1.13 -5.60
Si  5.14  2.26 -2.44
Si  2.12 -1.17  5.63
Si  5.15 -2.27  2.42
Si  2.13 -5.71  0.81
Si -5.18 -2.27  2.42
Si -2.12  5.72 -0.77
Si -0.77  4.58  4.04
Si -0.91 -4.54  4.07
Si -5.20  2.26 -2.44
Si  0.80 -4.62 -4.02
Si  0.98  4.65 -4.02
Si  3.00  1.13  5.59
Si -3.04 -1.17 -5.57
Si -6.04 -0.02 -2.37
Si  6.05 -0.04  2.40
Si  3.12  5.72  0.75
Si -2.56 -4.52 -4.01
Si -3.10 -5.74 -0.82
Si  6.43  1.14 -0.87
Si  2.55 -4.62  3.97
Si -0.42 -3.40 -5.64
Si -6.46 -1.21  0.78
Si  2.58  4.59  4.03
Si -5.63 -3.49 -0.74
Si -2.60  4.63 -4.03
Si  5.61  3.50  0.88
Si  0.44  3.52  5.66
Si -4.25  4.56 -2.41
Si  4.24 -4.65  2.36
Si -1.29  3.45 -5.63
Si  1.28 -3.48  5.64
Si -4.40 -4.55 -2.43
Si  4.30  4.63  2.46
Si  5.09 -2.27 -4.03
Si -5.14  2.28  3.97
Si -3.82  5.69  0.78
Si  5.19  2.28  3.97
Si -2.20 -3.38  5.66
Si -3.92  1.18  5.62
Si  3.79 -5.76 -0.87
Si  3.87 -1.17 -5.68
Si -5.25 -2.27 -4.03
Si  2.22  3.50 -5.64
Si -6.01 -0.06  4.01
Si  6.03  0.04 -3.99
Si -0.06 -6.90  2.33
Si  3.00 -3.51 -5.64
Si -2.98  3.49  5.66
Si  6.38 -3.44  0.77
Si -6.39  3.46 -0.74
Si -0.44  1.07 -7.22
Si  0.09  6.93 -2.41
Si  0.44 -1.10  7.24
Si -4.72 -1.16  5.58
Si -4.28  4.55  4.01
Si -7.29  1.17 -0.79
Si -1.32 -1.20 -7.21
Si -1.76 -6.82 -2.39
Si  4.73  1.10 -5.64
Si -1.64  6.86  2.40
Si  7.34 -1.20  0.80
Si  1.81  6.85  2.41
Si  4.32  4.58 -4.06
Si  1.65 -6.92 -2.37
Si  4.29 -4.61 -4.07
Si  1.35  1.23  7.29
Si -4.76 -5.79  0.75
Si  4.80  5.76 -0.82
Si -4.36 -4.62  4.08
Si  6.85 -2.29 -2.41
Si  6.89  2.25  2.36
Si -6.91  2.25  2.37
Si -2.16  1.16  7.24
Si -6.89 -2.34 -2.41
Si  2.10 -1.20 -7.28
Si  3.92  3.42  5.64
Si -3.93 -3.45 -5.63
Si  5.93 -4.55 -2.43
Si  2.98  1.18 -7.19
Si -3.08 -1.09  7.22
Si  6.08  4.56 -2.41
Si  0.03  6.90  4.02
Si -6.03  4.63  2.46
Si -0.40  5.73 -5.57
Si  5.61 -1.16  5.58
Si -0.04 -6.93 -4.01
Si -6.09 -4.65  2.36
Si  0.49  3.40 -7.24
Si -0.44 -3.37  7.26
Si -5.60  1.10 -5.64
Si -5.54  5.76 -0.82
Si -3.40  6.88 -2.37
Si  0.36 -5.77  5.59
Si  5.57 -5.79  0.75
Si  0.52  8.02  0.75
Si -4.69  3.39 -5.64
Si -7.75  0.00  2.33
Si  3.41 -6.94  2.40
Si -0.49 -8.04 -0.82
Si  4.71 -3.41  5.66
Si -1.23  3.48  7.24
Si -1.74 -6.85  4.01
Si  7.34  3.41 -0.74
Si -3.47 -6.95  2.41
Si  7.78  0.03 -2.41
Si -7.36 -3.41  0.88
Si -1.38 -5.76 -5.62
Si -1.66  6.94 -3.99
Si  3.52  6.99 -2.39
Si -1.25  8.04 -0.87
Si  1.26 -3.45 -7.32
Si  1.68 -6.96  4.01
Si  1.76  6.97 -3.99
Si  1.41  5.83  5.64
Si  3.82 -1.19  7.21
Si  1.23 -8.11  0.78
Si -2.08  5.74  5.58
Si -3.86  1.18 -7.23
Si -8.18 -1.14 -0.82
Si -6.89  2.28 -4.02
Si  8.21  1.11  0.75
Si -2.15 -3.50 -7.24
Si -6.92 -2.35  4.01
Si  6.92 -2.32  4.04
Si  6.93  2.29 -4.07
Si  2.09 -5.80 -5.64
Si  2.20  3.54  7.26
Si  2.18  8.06 -0.82
Si -2.16 -8.08  0.75
Si -2.96  3.41 -7.25
Si -2.99 -5.70  5.63
Si  6.05  4.55  4.01
Si -6.01  4.58 -4.06
Si  5.97 -4.62  4.08
Si  2.97 -3.47  7.28
Si  6.41  1.18  5.62
Si  3.05  5.81 -5.58
Si -3.37  6.84  4.01
Si -6.04 -4.61 -4.07
Si  2.92 -8.08 -0.77
Si  3.39 -6.86 -3.99
Si -2.92  8.09  0.81
Si -3.52 -6.83 -3.99
Si  5.64  3.39 -5.64
Si -5.62 -3.41  5.66
Si  6.51  5.69  0.78
Si -6.46 -1.17 -5.68
Si  7.72  0.00  4.02
Si -7.73 -0.03 -4.01
Si  4.76  1.11  7.24
Si -6.54 -5.76 -0.87
Si  3.54  6.95  4.01
Si -4.77 -1.20 -7.29
Si  3.77 -5.72  5.62
Si  8.14 -3.45 -0.77
Si  0.83  0.05 -8.85
Si -3.87 -3.42  7.24
Si -5.11  6.90  2.33
Si  5.14 -6.88 -2.41
Si -0.87  0.00  8.88
Si -8.18  3.50  0.80
Si -3.82  5.74 -5.68
Si -5.19 -6.88 -2.41
Si  5.22  6.90  2.33
Si  3.90  3.45 -7.32
Si  3.95  8.06  0.80
Si -3.95 -8.07 -0.82
Si  0.02  2.28  8.83
Si -9.02  1.16  0.80
Si  9.03 -1.17 -0.82
Si -0.01 -2.29 -8.85
Si  6.40 -3.45 -5.63
Si -6.41  3.42  5.64
Si  0.34 -5.72 -7.19
Si -5.57  1.11  7.24
Si -8.57  2.35 -2.41
Si  8.57 -2.38  2.42
Si  8.57  2.35 -2.43
Si -7.21  5.72  0.75
Si  7.29 -1.17 -5.57
Si  5.57 -1.20 -7.29
Si -2.63  0.01 -8.88
Si  7.23 -5.74 -0.82
Si -0.44  5.80  7.22
Si -7.66  4.68 -2.37
Si -1.67  2.25 -8.85
Si -7.33  1.13  5.59
Si -1.78 -2.29  8.82
Si  1.32  5.70 -7.21
Si  2.62  0.01  8.91
Si -8.67 -2.27  2.46
Si  1.72 -2.29  8.86
Si  7.69 -4.65  2.44
Si -1.29 -5.67  7.29
Si -4.72  3.43  7.28
Si -4.73 -5.77 -5.60
Si  4.73 -3.49 -7.25
Si  4.76  5.73  5.63
Si -4.65  8.06 -0.79
Si  1.80  2.27 -8.90
Si  7.80  4.63  2.42
Si  4.70 -8.10  0.80
Si -7.84 -4.64 -2.44
Si -5.09  6.87 -4.01
Si  5.08 -6.90  4.02
Si -0.80  9.15  2.36
Si -2.12  5.71 -7.29
Si  2.12 -5.79  7.24
Si  5.24  6.87 -4.01
Si -0.98 -9.17  2.46
Si -5.25 -6.90  4.02
Si  0.80 -9.24 -2.41
Si  0.89  9.26 -2.43
Si  9.02  3.46  0.77
Si -9.03 -3.44 -0.74
Si -9.45  0.09 -2.39
Si  3.45 -2.26 -8.84
Si  4.29  0.04 -8.77
Si  3.48  2.31  8.83
Si  3.08  5.80  7.24
Si  6.47  1.18 -7.23
Si -2.61 -9.12 -2.37
Si -5.57  5.73  5.63
Si -3.08 -5.83 -7.22
Si -6.52 -1.19  7.21
Si -3.44  2.27  8.88
Si  8.61  2.28  4.08
Si -8.60  2.36  4.07
Si  5.60 -5.77 -5.60
Si  9.50 -0.05  2.41
Si -5.60 -3.49 -7.25
Si  5.61  3.43  7.28
Si  0.55  8.03 -5.60
Si  2.51 -9.17  2.42
Si  8.67 -2.25 -4.02
Si -3.44 -2.34 -8.90
Si -2.55  9.16 -2.44
Si  2.64  9.15  2.44
Si -8.65 -2.32 -4.06
Si  7.78 -4.52 -4.01
Si -0.53 -8.07  5.63
Si -7.75  4.59  4.03
Si  7.73  4.63 -4.03
Si -7.79 -4.62  3.97
Si -7.33 -3.51 -5.64
Si -5.63 -8.10  0.80
Si -4.31 -0.04  8.91
Si  5.68  8.06 -0.79
Si  7.35  3.49  5.66
Si -1.28  8.08  5.62
Si  1.23 -8.07 -5.68
Si -9.86 -1.18  0.75
Si  9.87  1.16 -0.82
Si -3.87  5.71  7.21
Si  3.83 -5.72 -7.23
Si  0.83 -4.59  8.83
Si  0.86  4.61  8.82
Si -2.23 -7.99 -5.58
Si -8.20 -5.71  0.81
Si -8.22 -1.17  5.63
Si  8.24  1.13 -5.60
Si -0.80  4.56 -8.90
Si  8.21  5.72 -0.77
Si -6.81  6.99 -2.39
Si  6.93  6.88 -2.37
Si  6.86 -6.95  2.41
Si -0.84 -4.63 -8.90
Si -0.76  9.19 -4.07
Si  0.92  9.18  4.08
Si -6.92 -6.94  2.40
Si  0.77 -9.25  4.01
Si -0.96 -9.22 -4.06
Si  2.30  8.10  5.63
Si -2.96  8.00 -5.64
Si -2.58  4.59  8.78
Si  2.97 -8.06  5.58
Si -9.43  0.05  4.01
Si  9.45  0.07 -3.99
Si  6.46 -3.42  7.24
Si  7.25 -1.09  7.22
Si -2.62 -4.62  8.83
Si -6.38  8.06  0.80
Si  2.44 -9.17 -4.03
Si -2.50  9.19  3.97
Si  2.63  4.61 -8.85
Si  6.39 -8.07 -0.82
Si -6.43  3.45 -7.32
Si  2.55 -4.66 -8.87
Si -0.35 10.31 -0.74
Si  0.33 -10.31  0.88
Si -7.35  1.18 -7.19
Si -6.57 -5.72  5.62
Si  6.51  5.74 -5.68
Si -4.27  9.15  2.37
Si  4.21 -9.19 -2.41
Si  4.74  5.70 -7.28
Si -2.70 -9.21  4.03
Si -4.80 -5.74  7.24
Si  5.12 -2.31  8.78
Si  6.81 -6.83 -3.99
Si  9.85 -3.40  0.80
Si -1.34 -10.34 -0.74
Si -0.87  0.00 -10.41
Si  2.73  9.28 -4.01
Si  8.13 -3.38  5.66
Si  1.33 10.36  0.77
Si -5.22 -2.31  8.78
Si  0.83  0.05 10.45
Si -8.11  3.50 -5.64
Si -5.14  2.24 -8.87
Si -9.88  3.45 -0.77
Si -3.88 -7.97  5.64
Si -6.79  6.95  4.01
Si  5.19  2.24 -8.87
Si  4.40  9.25 -2.41
Si -6.94 -6.86 -3.99
Si -4.41 -9.28  2.42
Si  6.96  6.84  4.01
Si  3.90  8.04 -5.62
Si  2.06 -10.39 -0.74
Si -2.08 10.39  0.88
Si -6.04  0.04 -8.77
Si -8.99  5.73 -0.82
Si -0.01 -2.29 10.45
Si  9.00 -5.74  0.80
Si  2.62  0.01 -10.39
Si  0.02  2.28 -10.47
Si -9.07  1.14 -5.62
Si -2.63  0.01 10.42
Si  6.02 -0.04  8.91
Si -9.45  4.53  2.42
Si  9.10 -1.07  5.64
Si  9.45 -4.55 -2.41
Si  5.53 -5.74  7.24
Si  1.80  2.27 10.40
Si -10.30 -2.22 -2.37
Si -3.13 -10.30  0.80
Si -5.59  5.70 -7.28
Si -1.67  2.25 10.45
Si  9.49  4.61 -2.41
Si  1.72 -2.29 -10.44
Si  3.09 10.35 -0.77
Si  0.48  8.06  7.24
Si -4.24  4.64 -8.84
Si 10.33  2.25  2.44
Si -4.69  8.03  5.59
Si -10.33  2.25  2.44
Si  4.65 -8.07 -5.57
Si -7.28  5.81 -5.58
Si 10.37 -2.22 -2.37
Si -1.78 -2.29 -10.47
Si  7.35 -5.70  5.63
Si  4.25 -4.63  8.88
Si -4.31 -9.15 -4.02
Si -9.55 -4.65  2.37
Si -4.25  9.18 -4.02
Si -10.79  1.16 -0.82
Si -4.31 -4.65 -8.85
Si  7.38  3.41 -7.25
Si  1.17 -8.09  7.21
Si  4.36  4.62  8.86
Si 10.81 -1.18  0.75
Si -0.54 -8.10 -7.28
Si -1.22  8.08 -7.23
Si -7.37 -3.47  7.28
Si  4.28 -9.22  4.04
Si  8.17  1.16  7.24
Si  2.20  7.98 -7.22
Si -7.41 -8.08 -0.77
Si  7.42  8.09  0.81
Si -2.20 -8.01  7.24
Si  4.38  9.26  4.07
Si  3.74 -10.34  0.77
Si -3.75 10.36 -0.74
Si -8.23 -1.20 -7.28
Si -2.93  8.01  7.24
Si -8.52  6.85  2.41
Si -9.36  4.65 -4.02
Si  9.04  3.45 -5.63
Si -3.44 -2.34 10.40
Si -3.44  2.27 -10.41
Si  8.57 -6.82 -2.39
Si -9.05 -3.48  5.64
Si  9.42 -4.54  4.07
Si  6.06  9.15  2.37
Si  6.46  5.71  7.21
Si  3.45 -2.26 10.46
Si -5.93  9.25 -2.41
Si -4.31 -0.04 -10.39
Si  0.01  6.91 -8.88
Si  1.65 -6.86 -8.77
Si -10.25  2.38 -4.01
Si -0.02 -6.89  8.91
Si  5.93 -9.28  2.42
Si  3.48  2.31 -10.47
Si 10.27 -2.31  4.03
Si -6.50 -5.72 -7.23
Si  2.92 -8.10 -7.29
Si  5.64  8.03  5.59
Si -6.12 -9.19 -2.41
Si  8.70  6.86  2.40
Si -9.54 -4.62 -4.02
Si -5.68 -8.07 -5.57
Si -1.81 -6.85 -8.85
Si 10.78  3.45 -0.77
Si  9.56  4.58  4.04
Si -8.69 -6.92 -2.37
Si -1.67  6.86  8.91
Si -10.82 -3.40  0.80
Si  4.29  0.04 10.53
Si -10.39 -2.31  4.03
Si -0.80  4.56 10.40
Si  1.77  6.90  8.88
Si 10.42  2.38 -4.01
Si -0.84 -4.63 10.40
Si -6.86  2.31  8.83
Si -11.16 -0.05  2.41
Si -6.88 -2.26 -8.84
Si -9.92 -1.09 -5.58
Si -4.84 -10.35 -0.77
Si  0.83 -4.59 -10.47
Si -8.13  3.54  7.26
Si 11.21  0.09 -2.39
Si  6.89  2.27  8.88
Si  8.18 -3.50 -7.24
