500
set: 1507.00  0.00  0.00
Si -0.59 -1.32  0.08
Si -1.15  1.43 -0.16
Si  0.48 -1.63  1.78
Si  1.80 -0.00 -2.13
Si  1.02  2.64  0.08
Si  1.41 -2.83 -0.56
Si  1.29  0.33  2.92
Si  3.03  1.13 -0.56
Si  3.00 -1.24  0.58
Si -2.61  1.60 -1.73
Si  2.09  2.33  1.78
Si -2.76 -2.53 -0.16
Si  0.98 -1.97 -3.28
Si -3.19  2.73  0.58
Si  3.84  0.02  2.14
Si -3.96  0.02  2.14
Si  0.19 -3.97 -2.13
Si -3.45 -0.32 -2.92
Si  3.57 -2.36 -1.73
Si  2.60  2.00 -3.28
Si -0.32 -3.63  2.92
Si -4.77  1.13 -0.56
Si -3.12  1.94  3.33
Si  3.07 -2.02  3.33
Si -4.80 -1.24  0.58
Si  2.23 -3.94  2.14
Si -1.84  3.65 -2.92
Si -2.34  3.98  2.14
Si -4.23 -2.36 -1.73
Si  0.91 -2.49  4.49
Si -0.08 -1.66 -4.97
Si  4.35 -0.32 -2.92
Si -1.10 -0.98  5.14
Si  2.52  1.47  4.49
Si -0.64  1.10 -5.21
Si  4.62  2.73  0.58
Si  1.39 -5.20  0.58
Si  0.47  5.40 -0.16
Si -1.65  1.77  4.90
Si  5.04 -2.53 -0.16
Si  3.42  3.96 -2.13
Si  1.53  2.31 -4.97
Si  5.19  1.60 -1.73
Si -2.21 -5.28  0.08
Si -2.68  2.39 -4.48
Si  2.73 -4.28 -2.92
Si  3.51 -1.57 -4.48
Si -1.00  5.56 -1.73
Si  2.91  4.29  2.92
Si  0.52  2.98  5.14
Si -1.14 -5.59  1.78
Si -3.16  5.10 -0.56
Si  4.68  1.94  3.33
Si -4.74 -2.02  3.33
Si  2.49 -0.90  5.64
Si -4.38  3.96 -2.13
Si -3.27 -2.19  4.90
Si -2.25 -2.87 -5.21
Si -6.00 -0.00 -2.13
Si -4.29 -1.57 -4.48
Si -5.71  2.33  1.78
Si -5.20  2.00 -3.28
Si  3.53  0.80 -5.62
Si  1.92 -3.17 -5.62
Si -0.63 -5.93 -3.28
Si  6.66  1.43 -0.16
Si -0.20 -6.79 -0.56
Si  1.96 -6.32 -1.73
Si -1.57  6.69  0.58
Si  4.64  5.10 -0.56
Si -1.51  5.90  3.33
Si -0.03 -1.29  6.84
Si  1.45 -5.99  3.33
Si -6.39 -2.83 -0.56
Si  4.54 -2.19  4.90
Si -5.28  1.47  4.49
Si  5.46  3.98  2.14
Si -4.27  0.80 -5.62
Si  2.64  6.60  0.08
Si -4.89  4.29  2.92
Si -6.50  0.33  2.92
Si -5.57 -3.94  2.14
Si  5.12  2.39 -4.48
Si -2.11  1.26 -6.79
Si -5.07 -4.28 -2.92
Si -6.78  2.64  0.08
Si  0.97  5.06 -5.21
Si  7.21 -1.32  0.08
Si  3.43 -6.49 -0.16
Si  1.89 -5.54 -4.48
Si -3.69  3.06  5.64
Si  0.88 -4.86  5.64
Si  1.59  2.67  6.84
Si  3.71  6.30  1.78
Si -0.04  5.73  4.90
Si  2.31 -0.34 -7.19
Si  5.96  3.65 -2.92
Si  4.11  3.06  5.64
Si -2.71 -4.95  5.14
Si -3.59  5.96 -3.28
Si -1.70 -5.62 -4.97
Si  5.60 -5.28  0.08
Si -7.32 -1.63  1.78
Si -4.09  6.30  1.78
Si -5.31 -0.90  5.64
Si -6.82 -1.97 -3.28
Si -4.38 -6.49 -0.16
Si -2.65  4.76 -5.62
Si -1.07  6.35 -4.48
Si -0.71 -6.46  4.49
Si  3.34  0.36  7.20
Si -3.66  5.43  4.49
Si  4.21  5.96 -3.28
Si  0.79  0.67  7.98
Si  6.15  1.77  4.90
Si  5.55 -2.87 -5.21
Si -0.22  7.61 -2.92
Si  4.14  5.43  4.49
Si -3.72 -2.70 -6.79
Si  0.61 -7.90  2.14
Si  1.72 -3.60  7.20
Si -0.73  7.95  2.14
Si -6.42 -5.20  0.58
Si -6.27  2.31 -4.97
Si -1.43 -7.93 -2.13
Si  4.08 -2.70 -6.79
Si -1.93 -7.59  2.92
Si -5.16  6.60  0.08
Si  2.92 -6.16  4.90
Si  0.69 -4.30 -7.19
Si -4.46  0.36  7.20
Si -8.39 -1.32  0.08
Si  6.71 -0.98  5.14
Si -2.94 -0.65 -7.97
Si -0.49  5.23 -6.79
Si -6.89 -2.49  4.49
Si  3.15  6.27 -4.97
Si  8.28 -1.63  1.78
Si -2.77  7.92 -2.13
Si -0.82 -3.29  7.98
Si -5.88 -3.17 -5.62
Si -1.33  3.31 -7.97
Si  5.09 -4.95  5.14
Si  1.49 -2.30 -8.34
Si -1.64 -5.25  6.84
Si -5.84 -6.32 -1.73
Si  1.12 -8.24 -2.92
Si  7.48 -3.63  2.92
Si -7.61 -3.97 -2.13
Si -2.85  4.32  7.20
Si  6.66 -5.59  1.78
Si  2.13  6.94  5.14
Si  7.16  1.10 -5.21
Si  2.56 -1.69  8.39
Si -3.88  3.62 -7.19
Si  5.69  1.26 -6.79
Si  6.80  5.56 -1.73
Si  3.92  3.62 -7.19
Si  5.15  4.76 -5.62
Si  3.10  1.66 -8.34
Si -5.49 -0.34 -7.19
Si -8.95  1.43 -0.16
Si  0.30 -7.13 -5.62
Si -7.33  5.40 -0.16
Si  6.23  6.69  0.58
Si  7.99 -3.97 -2.13
Si -0.23 -9.16  0.58
Si -1.54  9.06 -0.56
Si  8.82  2.64  0.08
Si -2.08  7.03  5.64
Si  6.29  5.90  3.33
Si -5.91 -5.54 -4.48
Si -4.66  6.27 -4.97
Si -4.88 -6.16  4.90
Si  7.72 -1.66 -4.97
Si -6.35 -5.99  3.33
Si -3.28  8.26  2.92
Si  4.86 -0.65 -7.97
Si -8.12 -3.63  2.92
Si -7.28  2.98  5.14
Si -3.63  2.27  8.39
Si -3.87 -6.83 -5.21
Si  3.93 -6.83 -5.21
Si -7.88 -1.66 -4.97
Si  2.40  4.63  7.98
Si  9.10  0.33  2.92
Si  8.78 -1.97 -3.28
Si  2.08  9.36 -0.16
Si -6.21  2.67  6.84
Si  5.03  7.92 -2.13
Si  4.17  2.27  8.39
Si  9.21 -2.83 -0.56
Si  6.10 -5.62 -4.97
Si  0.61  9.53 -1.73
Si -4.70  1.66 -8.34
Si  4.95  4.32  7.20
Si  3.24 -4.61 -7.97
Si  0.40 -2.16  9.55
Si  2.46 -6.66 -6.79
Si  9.60 -0.00 -2.13
Si  4.53  8.26  2.92
Si  7.17 -5.93 -3.28
Si  8.27  5.40 -0.16
Si  2.02  1.81  9.55
Si -6.83  5.06 -5.21
Si -8.44  1.10 -5.21
Si -2.17  2.05 -9.54
Si -3.82 -9.25  0.08
Si  5.87 -7.59  2.92
Si -5.24 -1.69  8.39
Si  3.20  6.63  6.84
Si  3.98 -9.25  0.08
Si -6.08 -3.60  7.20
Si -2.75 -9.55  1.78
Si  8.71 -2.49  4.49
Si  0.94 -5.65  8.39
Si -6.92 -4.86  5.64
Si  7.60 -6.79 -0.56
Si  8.32  2.98  5.14
Si  0.42 -1.99 -10.03
Si -4.56 -4.61 -7.97
Si  6.74  6.35 -4.48
Si -0.13  0.76 -10.27
Si  9.89  2.33  1.78
Si -8.90 -0.98  5.14
Si -5.67  6.94  5.14
Si -1.60 -0.65 10.20
Si  6.37 -7.93 -2.13
Si -2.16  2.11  9.96
Si  0.11  9.86  3.33
Si  2.04  1.97 -10.03
Si -0.12 -6.26 -8.34
Si -1.04  8.72 -5.62
Si  7.77 -1.29  6.84
Si  0.34 -10.29 -1.73
Si -3.79 -1.91 -9.54
Si  0.11 -7.57  7.20
Si -7.83 -1.29  6.84
Si -0.16 -9.95  3.33
Si -0.73 -8.82  5.64
Si  0.28 -9.50 -4.48
Si -8.00 -6.79 -0.56
Si -3.08  5.62 -8.34
Si  4.01 -1.91 -9.54
Si -8.80  5.56 -1.73
Si  9.19 -5.20  0.58
Si -4.60  6.63  6.84
Si  7.09 -6.46  4.49
Si  6.16 -5.25  6.84
Si  1.81 -10.45 -0.16
Si -2.05  9.39  4.49
Si -1.97  9.92 -3.28
Si -2.01  6.24  8.39
Si -7.01  0.67  7.98
Si -2.25 -9.89 -3.28
Si  0.04 10.65  0.58
Si  5.72  7.03  5.64
Si -10.41  1.60 -1.73
Si -5.40  4.63  7.98
Si -8.94 -5.59  1.78
Si -2.27  7.58 -7.19
Si -2.48 10.26  1.78
Si -6.31 -2.30 -8.34
Si -9.64  3.65 -2.92
Si  0.01  3.31 10.20
Si  2.59  9.02 -5.21
Si  6.47  3.31 -7.97
Si -9.45  1.77  4.90
Si  0.28  7.27 -7.97
Si -3.77 -1.86  9.96
Si -8.43 -5.93 -3.28
Si  9.33  2.31 -4.97
Si  7.76  5.73  4.90
Si  7.07  7.95  2.14
Si  3.48 -8.91  5.14
Si -10.56 -2.53 -0.16
Si -7.84  5.73  4.90
Si 10.80 -1.24  0.58
Si  1.99 -0.56 10.70
Si -7.19 -7.90  2.14
Si -1.75 -3.20 -10.27
Si  4.03 -1.86  9.96
Si 10.83  1.13 -0.56
Si -5.34 -6.66 -6.79
Si -1.82 -10.75 -0.56
Si  5.05 -9.55  1.78
Si -5.72  9.36 -0.16
Si  1.58  9.70  4.90
Si 10.03 -3.94  2.14
Si -7.11 -4.30 -7.19
Si -0.92 -8.27 -7.19
Si -6.68 -8.24 -2.92
Si  6.26  9.06 -0.56
Si -1.23  8.28  7.20
Si -2.44 -7.26  7.98
Si 10.40  2.00 -3.28
Si  6.98 -3.29  7.98
Si -10.14  3.98  2.14
Si  4.72  5.62 -8.34
Si  7.58  7.61 -2.92
Si -3.55 10.57  0.08
Si -4.33 -8.91  5.14
Si  7.31  5.23 -6.79
Si  0.55 10.31 -4.48
Si  5.63  2.05 -9.54
Si -0.56  6.02 -9.54
Si -3.31 -9.58 -4.97
Si -5.78  1.81  9.55
Si -10.01 -5.28  0.08
Si  1.31 -10.12  4.90
Si -3.76  0.46 -10.68
Si -10.99  2.73  0.58
Si 10.32  1.47  4.49
Si  4.25 10.57  0.08
Si  8.78  5.06 -5.21
Si  1.48  4.72 -10.27
Si -1.21 -6.12  9.55
Si  4.04  0.46 -10.68
Si  8.68 -4.86  5.64
Si -8.02  7.61 -2.92
Si  2.40 -5.87 -9.54
Si  1.12  9.19 -6.79
Si  2.42 -3.50 -10.68
Si -9.31  5.90  3.33
Si  9.25 -5.99  3.33
Si -9.37  6.69  0.58
Si 10.87 -2.02  3.33
Si -2.32 -10.42  4.49
Si -10.92  1.94  3.33
Si -8.51 -6.46  4.49
Si  0.37 -4.53 10.70
Si -11.25 -0.32 -2.92
Si  5.64  2.11  9.96
Si -3.22 -4.61 10.20
Si -10.48  2.39 -4.48
Si -5.21  9.02 -5.21
Si  9.72 -3.17 -5.62
Si -0.54  6.07  9.96
Si -10.05 -2.87 -5.21
Si  4.49 -9.58 -4.97
Si  5.32 10.26  1.78
Si -1.19 -5.96 -10.03
Si  3.63  5.77  9.55
Si -5.76  1.97 -10.03
Si 10.54 -4.28 -2.92
Si  8.41 -7.90  2.14
Si 11.37 -2.36 -1.73
Si  8.59  0.67  7.98
Si  9.76 -6.32 -1.73
Si -2.15  4.42 -10.68
Si 10.29 -0.90  5.64
Si -7.50 -7.13 -5.62
Si -3.04 10.23 -4.97
Si  2.41 -5.82  9.96
Si  3.60  3.40 10.70
Si -8.87  6.35 -4.48
Si  5.55 -9.89 -3.28
Si  1.63 -8.58 -7.97
Si  5.54  7.58 -7.19
Si 11.64  0.02  2.14
Si -8.53  7.95  2.14
Si  5.75  9.39  4.49
Si  7.57 -9.16  0.58
Si 10.71  4.29  2.92
Si -4.17  5.77  9.55
Si  9.39  2.67  6.84
Si -8.29  5.23 -6.79
Si -3.26 -9.22  6.84
Si  8.49 -4.30 -7.19
Si -0.53 -0.95 11.89
Si  5.79  6.24  8.39
Si -11.76  0.02  2.14
Si  6.20 -0.65 10.20
Si  5.83  9.92 -3.28
Si -4.20  3.40 10.70
Si -1.60  0.93 -11.84
Si  1.39 11.57 -2.92
Si  9.69 -5.54 -4.48
Si  5.36 -7.26  7.98
Si -5.99 -10.45 -0.16
Si -7.19  9.53 -1.73
Si -9.91  1.26 -6.79
Si 11.22  3.96 -2.13
Si  4.58 -4.61 10.20
Si -10.96  5.10 -0.56
Si -1.00 -11.87  2.14
Si -9.50 -5.62 -4.97
Si -1.16 11.88 -2.13
Si  0.89 11.91  2.14
Si  8.11 -7.13 -5.62
Si -5.81 -0.56 10.70
Si -8.03 -9.16  0.58
Si -8.63 -3.29  7.98
Si  2.32 -10.79 -5.21
Si  3.65  5.93 -10.03
Si -6.86 -5.65  8.39
Si 11.31 -1.57 -4.48
Si -7.40 -2.16  9.55
Si -11.07 -2.19  4.90
Si  1.08  3.01 11.89
Si  5.99 -10.75 -0.56
Si -3.78  8.59  7.98
Si  4.76 10.23 -4.97
Si  4.54 -9.22  6.84
Si  6.05 -3.20 -10.27
Si -9.23 -7.93 -2.13
Si 10.44  6.60  0.08
Si -0.46 10.99  5.64
Si -4.15  5.93 -10.03
Si -12.03 -2.36 -1.73
Si  6.76  8.72 -5.62
Si  4.02  8.59  7.98
Si 10.11 -0.34 -7.19
Si -5.40 -5.87 -9.54
Si -3.55 -11.55  2.92
Si -5.38 -3.50 -10.68
Si -3.04 -11.89 -2.13
Si  9.52 -3.60  7.20
Si  8.92 -8.24 -2.92
Si 12.15 -0.32 -2.92
Si -1.31 -11.09 -5.62
Si -6.22  9.70  4.90
Si -0.49 -12.20 -2.92
Si -9.13  3.31 -7.97
Si  2.81 -0.68 -12.25
Si  5.48 -10.42  4.49
Si  2.83  0.69 12.26
Si -7.38 -1.99 -10.03
Si  3.75 10.90  5.14
Si  7.07 -8.82  5.64
Si  1.63  7.28 10.20
Si  0.85 -10.62 -6.79
Si -12.57  1.13 -0.56
Si -3.22 -3.03 -11.84
Si  4.25 -11.55  2.92
Si -1.66 12.22  2.92
Si -12.60 -1.24  0.58
Si 11.33  0.80 -5.62
Si -9.73 -7.59  2.92
Si  9.29 -2.30 -8.34
Si -10.51 -4.95  5.14
Si -4.05 10.90  5.14
Si 12.41  2.73  0.58
Si -5.39 -5.82  9.96
Si  1.22 -3.27 12.26
Si  8.20 -2.16  9.55
Si -0.67 -9.61  8.39
Si -9.44 -5.25  6.84
Si -10.45  4.76 -5.62
Si -1.47  9.59 -8.34
Si  6.57  8.28  7.20
Si  0.01  4.89 -11.84
Si -7.46 -10.29 -1.73
Si  8.42  9.53 -1.73
Si  7.67  0.76 -10.27
Si  5.65  4.42 -10.68
Si -7.52 -9.50 -4.48
Si  6.88 -8.27 -7.19
Si -7.69  9.86  3.33
Si  7.67 -6.26 -8.34
Si -6.32  4.72 -10.27
Si -2.98 10.60  6.84
Si -3.36 -7.16 -10.27
Si 11.23 -6.49 -0.16
Si -7.69 -7.57  7.20
Si  7.64 -9.95  3.33
Si -6.50 -10.12  4.90
Si  4.76 -11.89 -2.13
Si -12.19  3.96 -2.13
Si -12.10 -1.57 -4.48
Si -7.93  0.76 -10.27
Si -9.34  9.06 -0.56
Si  0.07 13.02 -0.56
Si -2.15 -4.92 11.89
Si  0.81 -7.46 -10.68
Si  4.58 -3.03 -11.84
Si 12.48  1.94  3.33
Si  7.91  9.86  3.33
Si  0.28  1.00 13.04
Si 12.84 -2.53 -0.16
Si -7.93 -6.26 -8.34
Si  7.91 -7.57  7.20
Si  6.59 -6.12  9.55
Si -3.37  3.29 -12.25
Si  8.22 -1.99 -10.03
Si -12.54 -2.02  3.33
Si -7.52  7.27 -7.97
Si  1.20 -4.64 -12.25
Si -11.49  3.06  5.64
Si  9.93  6.94  5.14
Si -7.96 -9.95  3.33
Si -5.48 -10.79 -5.21
Si -7.76 10.65  0.58
Si 12.99  1.60 -1.73
Si -0.40 10.20  8.39
Si -6.68  9.19 -6.79
Si  8.14 -10.29 -1.73
Si -2.58  7.36 10.70
Si 11.51  6.30  1.78
Si -6.17 -8.58 -7.97
