500
set: 1419.00  0.00  0.00
Si -1.69  0.52 -0.95
Si -1.89 -0.85  0.93
Si -0.62 -2.01 -1.06
Si  0.23  2.06 -1.50
Si  1.56 -2.24  0.21
Si -1.29  0.78  2.46
Si -0.22 -1.75  2.36
Si  0.63  2.32  1.92
Si  2.42  1.16 -1.97
Si  2.69 -1.12 -1.88
Si  2.82  1.42  1.45
Si -2.29 -1.11 -2.48
Si  3.09 -0.87  1.53
Si  0.00  3.76  0.21
Si -3.50  1.97 -0.62
Si  1.16 -2.50 -3.21
Si  4.00  1.97 -0.62
Si -1.93 -4.03 -0.62
Si  1.96 -1.98  3.62
Si  1.79 -3.94 -1.50
Si -1.49 -0.59  4.35
Si -2.18  3.98 -1.06
Si  2.19 -3.68  1.92
Si -3.10  2.22  2.79
Si -4.41 -0.87  1.53
Si -0.40  3.50 -3.21
Si -2.09  0.26 -4.37
Si -1.53 -3.77  2.79
Si -4.67  1.42  1.45
Si -1.02 -2.27 -4.47
Si -1.78  4.24  2.36
Si -0.18  1.80 -4.91
Si -4.81 -1.12 -1.88
Si  1.12  4.87 -1.88
Si  0.40  4.02  3.62
Si -0.13 -5.48 -0.95
Si -5.08  1.16 -1.97
Si  1.52  5.13  1.53
Si  4.40  2.22  2.79
Si  3.60  1.71 -4.03
Si -3.11 -4.58  1.45
Si  5.61 -0.85  0.93
Si  0.27 -5.22  2.46
Si  2.02  0.91 -5.38
Si -3.90  1.71 -4.03
Si  5.21 -1.11 -2.48
Si  5.80  0.52 -0.95
Si  2.28 -1.38 -5.30
Si  0.18 -1.50  5.77
Si  1.03  2.58  5.33
Si -0.89  1.03  5.88
Si  3.22  1.68  4.86
Si  3.49 -0.61  4.95
Si -3.45  5.15  0.93
Si -3.51 -4.83 -1.97
Si -2.33 -4.29 -4.03
Si -5.93 -2.24  0.21
Si -2.58  3.73 -4.47
Si -4.01 -0.61  4.95
Si  4.38 -4.58  1.45
Si  3.98 -4.83 -1.97
Si  3.65  4.89 -2.48
Si  1.39 -4.19 -4.91
Si  4.05  5.15  0.93
Si -2.69 -1.37 -5.90
Si -4.27  1.68  4.86
Si -3.85  4.89 -2.48
Si  6.21  0.78  2.46
Si  5.31  3.98 -1.06
Si -5.31 -3.68  1.92
Si  2.59 -3.42  5.33
Si  5.56 -4.03 -0.62
Si -5.53 -1.98  3.62
Si -0.32 -6.85  0.93
Si  5.40  0.26 -4.37
Si -2.71 -4.32  4.86
Si  0.72  4.62 -5.30
Si -5.71 -3.94 -1.50
Si -2.69  2.48  6.21
Si  0.76 -2.75 -6.62
Si -1.13 -3.52  6.21
Si -0.53 -5.74 -4.37
Si  6.88 -2.01 -1.06
Si -3.25  6.52 -0.95
Si -0.80  3.24 -6.62
Si  6.01 -0.59  4.35
Si -1.38  4.50  5.77
Si  0.86  7.16 -1.97
Si  5.71  4.24  2.36
Si -6.87  2.32  1.92
Si -6.33 -2.50 -3.21
Si -5.21 -1.38 -5.30
Si -0.72 -7.11 -2.48
Si  1.92  5.39  4.95
Si -3.05  5.40  4.35
Si -2.85 -6.86  1.53
Si  5.96 -3.77  2.79
Si  4.91  3.73 -4.47
Si  2.37 -1.72  7.04
Si  1.26  7.42  1.45
Si -7.27  2.06 -1.50
Si  0.67 -4.96  5.88
Si -5.48  0.91 -5.38
Si  4.81 -1.37 -5.90
Si -2.85  6.77  2.46
Si  5.16 -4.29 -4.03
Si  4.24  6.52 -0.95
Si -1.08 -0.34  7.76
Si  7.28 -1.75  2.36
Si  0.08 -6.59  4.35
Si -4.91 -3.42  5.33
Si -5.97  5.13  1.53
Si -3.25 -7.12 -1.88
Si  4.79 -4.32  4.86
Si  7.72  2.06 -1.50
Si  0.94 -8.01 -1.06
Si  3.25  4.63 -5.90
Si -2.49  0.00 -7.78
Si  6.47 -2.27 -4.47
Si  1.34 -7.75  2.36
Si  3.58 -5.09 -5.38
Si  4.80  2.48  6.21
Si  3.20  1.45 -7.45
Si  4.45  5.40  4.35
Si -6.37  4.87 -1.88
Si -7.72 -1.75  2.36
Si  0.80  4.28  7.04
Si -1.34  8.06 -1.50
Si  2.44  7.96 -0.62
Si -3.91 -5.09 -5.38
Si -7.50  3.76  0.21
Si  7.50  3.76  0.21
Si -1.42 -2.53 -7.88
Si -8.12 -2.01 -1.06
Si  4.65 -6.86  1.53
Si -3.66  6.26 -4.37
Si -0.58  1.54 -8.32
Si  4.25 -7.12 -1.88
Si  7.10  3.50 -3.21
Si  3.84  6.26 -4.37
Si  4.64  6.77  2.46
Si -0.94  8.31  1.92
Si -2.45 -6.61  4.95
Si -4.25  4.63 -5.90
Si  8.12  2.32  1.92
Si -4.30  1.45 -7.45
Si  0.46  6.90 -5.38
Si -6.47  2.58  5.33
Si  3.13 -8.23  0.21
Si -5.13 -1.72  7.04
Si -6.11 -4.19 -4.91
Si  6.61  1.03  5.88
Si -7.09  4.02  3.62
Si  2.04  7.71 -4.03
Si  1.62  0.65 -8.79
Si  7.32  1.80 -4.91
Si  1.88 -1.64 -8.71
Si -3.61 -0.35  8.36
Si -2.99  3.47 -7.88
Si  2.84  8.22  2.79
Si -2.73 -4.55 -7.45
Si -8.79  0.78  2.46
Si -5.57  5.39  4.95
Si -7.90  3.50 -3.21
Si  3.89 -0.35  8.36
Si  7.37 -5.48 -0.95
Si  1.66  7.67  4.86
Si  3.62  1.94  8.28
Si -7.22 -5.22  2.46
Si  5.00  0.00 -7.78
Si -9.19  0.52 -0.95
Si -7.67  1.80 -4.91
Si  0.58 -1.24  9.19
Si  1.43  2.83  8.75
Si -4.37 -8.23  0.21
Si  9.06 -2.24  0.21
Si -3.87  1.94  8.28
Si -1.74  7.80 -4.91
Si -0.49  1.29  9.29
Si  0.54 -8.27 -4.47
Si -7.63 -5.48 -0.95
Si -7.32 -1.50  5.77
Si  3.53 -7.98  3.62
Si -5.06  7.96 -0.62
Si -9.38 -0.85  0.93
Si  2.73 -8.49 -3.21
Si -2.45  7.03  5.88
Si  0.98 -4.45 -8.32
Si -1.12 -7.36 -5.90
Si -2.31 -4.06  8.28
Si  6.11  4.50  5.77
Si  6.36 -3.52  6.21
Si  8.66 -2.50 -3.21
Si  7.90  4.02  3.62
Si -3.97 -7.98  3.62
Si  1.74 -7.49  5.77
Si  5.05 -6.61  4.95
Si  7.77 -5.22  2.46
Si  7.68 -1.50  5.77
Si  4.51  3.47 -7.88
Si  0.32  4.36 -8.71
Si -6.77  4.62 -5.30
Si  2.99 -3.16  8.75
Si -3.65 -7.38 -5.30
Si -6.24  7.42  1.45
Si -6.73 -2.75 -6.62
Si -4.66  8.22  2.79
Si  3.85 -7.38 -5.30
Si -0.93 -5.99 -7.78
Si -1.56  9.76  0.21
Si -8.52 -2.27 -4.47
Si  4.76 -4.55 -7.45
Si -3.09 -1.62 -9.31
Si -6.64  7.16 -1.97
Si  6.70  3.24 -6.62
Si  7.17 -6.85  0.93
Si -2.65  5.66  7.76
Si -8.98 -0.59  4.35
Si  6.96 -5.74 -4.37
Si  0.48 -6.33  7.76
Si -0.37 -10.03 -0.62
Si  6.41 -0.34  7.76
Si  8.62  4.87 -1.88
Si -0.54  8.57  5.33
Si  6.77 -7.11 -2.48
Si -9.78 -1.11 -2.48
Si  0.03 -9.77  2.79
Si -6.15 -7.75  2.36
Si  9.92  1.16 -1.97
Si -9.03 -3.77  2.79
Si -0.73 -3.26  9.62
Si  9.28 -3.94 -1.50
Si -1.96  9.50 -3.21
Si  6.16  8.06 -1.50
Si -4.77 -8.49 -3.21
Si -2.29  2.74  9.62
Si  6.07 -2.53 -7.88
Si -5.46  7.71 -4.03
Si -9.43 -4.03 -0.62
Si -6.82 -4.96  5.88
Si -8.39  1.03  5.88
Si  9.46 -1.98  3.62
Si -4.51 -3.16  8.75
Si  2.33  5.65  8.36
Si  8.52  2.58  5.33
Si -0.98  4.76  9.19
Si -6.55 -8.01 -1.06
Si  3.44  6.00 -7.78
Si 10.18 -1.12 -1.88
Si  4.41 -1.62 -9.31
Si -7.82 -6.85  0.93
Si  5.04  7.03  5.88
Si  1.07 -4.70  9.29
Si -9.28  4.24  2.36
Si  0.36 -3.01 -10.04
Si  9.02  5.13  1.53
Si -5.61 -1.64 -8.71
Si 10.32  1.42  1.45
Si -9.68  3.98 -1.06
Si  9.68 -3.68  1.92
Si -1.20  2.99 -10.04
Si -9.59  0.26 -4.37
Si -3.75 -9.68  1.92
Si  3.75 -9.68  1.92
Si  5.19 -4.06  8.28
Si  3.35 -9.93 -1.50
Si -5.88  0.65 -8.79
Si -6.69  4.28  7.04
Si -4.06  6.00 -7.78
Si  1.64  7.45 -7.45
Si  2.85  4.37 -9.31
Si -2.05 -6.35  8.36
Si -1.16 10.01  3.62
Si -3.75  9.98 -1.06
Si  3.75  9.98 -1.06
Si 10.58 -0.87  1.53
Si  4.85  5.66  7.76
Si  6.56  8.31  1.92
Si  3.18 -5.35 -8.79
Si -1.55 -10.57  1.45
Si -8.03 -5.74 -4.37
Si -5.84  7.67  4.86
Si  8.22  4.62 -5.30
Si -7.42 -6.59  4.35
Si  5.76  7.80 -4.91
Si -4.15 -9.93 -1.50
Si  2.77 -1.46 10.45
Si  6.92  1.54 -8.32
Si  8.26 -2.75 -6.62
Si  7.57 -6.59  4.35
Si  9.52  0.91 -5.38
Si  8.88 -4.19 -4.91
Si  3.24  8.48  6.21
Si -6.07  2.83  8.75
Si  0.06  6.64 -8.79
Si -3.35 10.24  2.36
Si -3.57 -7.72  7.04
Si -0.44 10.87 -1.88
Si -5.75 -7.49  5.77
Si -0.77 -10.29 -4.03
Si -8.30  3.24 -6.62
Si -8.22 -7.11 -2.48
Si  3.93 -7.72  7.04
Si -4.32 -5.35 -8.79
Si  8.35  7.16 -1.97
Si -10.59  2.22  2.79
Si -1.95 -10.83 -1.97
Si -10.99  1.97 -0.62
Si -8.63 -3.52  6.21
Si -0.68 -0.08 11.18
Si  9.78 -1.38 -5.30
Si  3.35  9.72 -4.47
Si  2.32 -8.75 -6.62
Si  8.17 -4.96  5.88
Si -7.04  6.90 -5.38
Si -0.04 11.13  1.53
Si  5.20  2.74  9.62
Si  2.80  1.19 -10.86
Si -4.65  4.37 -9.31
Si  4.15 10.24  2.36
Si -3.35 -9.42  5.33
Si -5.17  5.65  8.36
Si -4.26  8.48  6.21
Si  2.08 10.88 -2.48
Si  0.43 -9.51  6.21
Si  6.37 -7.36 -5.90
Si  5.93  9.76  0.21
Si -2.14  7.54 -8.32
Si  5.53  9.50 -3.21
Si  2.48 11.14  0.93
Si  1.20  4.53 10.45
Si -9.83 -4.29 -4.03
Si -1.15 -10.31  4.86
Si -6.51 -4.45 -8.32
Si -4.15  9.72 -4.47
Si -8.88  4.50  5.77
Si  8.76  7.42  1.45
Si -6.92 -1.24  9.19
Si -4.73 -1.46 10.45
Si -2.90 -0.25 -11.20
Si -8.58 -0.34  7.76
Si  4.15 -9.42  5.33
Si  1.43 -11.47 -0.95
Si -2.36  9.24 -6.62
Si  0.14 -8.52 -7.88
Si  1.83 -11.22  2.46
Si -10.08  3.73 -4.47
Si -10.61 -4.58  1.45
Si  2.06  7.93  8.28
Si 11.50  1.97 -0.62
Si  8.44 -8.01 -1.06
Si  2.95 -10.19 -4.91
Si  8.30  4.28  7.04
Si -6.96 -8.27 -4.47
Si -8.07  1.54 -8.32
Si  7.01  1.29  9.29
Si -1.82 -2.79 -11.30
Si  6.57 -5.99 -7.78
Si  7.95  6.90 -5.38
Si  5.45 -6.35  8.36
Si -10.18 -1.37 -5.90
Si -0.98  1.29 -11.74
Si 10.72  1.68  4.86
Si -0.84 10.61 -5.30
Si  2.14 -7.24  9.19
Si -4.70  1.19 -10.86
Si 10.09 -3.42  5.33
Si  9.42  5.39  4.95
Si 11.10  1.71 -4.03
Si -2.05  7.29  9.29
Si  8.84 -7.75  2.36
Si -8.43  8.31  1.92
Si -11.91 -0.87  1.53
Si -8.83  8.06 -1.50
Si -5.86  7.45 -7.45
Si 10.98 -0.61  4.95
Si  3.45 -7.64 -8.71
Si -7.17  4.36 -8.71
Si -10.21 -4.32  4.86
Si  4.60 -0.25 -11.20
Si -1.53 -7.62 -9.31
Si -5.17 -8.75 -6.62
Si -10.95  5.15  0.93
Si -8.92 -2.53 -7.88
Si -11.01 -4.83 -1.97
Si -10.19  2.48  6.21
Si -4.55 -10.19 -4.91
Si -3.21 -0.09 11.78
Si -11.39  1.71 -4.03
Si  6.76 -3.26  9.62
Si  6.29  2.99 -10.04
Si  5.95 -10.57  1.45
Si -3.39  3.21 -11.30
Si  6.51  4.76  9.19
Si -7.02 -6.33  7.76
Si -6.42 -4.70  9.29
Si  9.86 -1.72  7.04
Si -5.01 11.14  0.93
Si  6.96  8.57  5.33
Si  1.68 10.63 -5.90
Si -4.05 -7.64 -8.71
Si  1.22  0.39 -12.21
Si -3.14 -4.80 -10.86
Si  8.08 -1.24  9.19
Si  7.12 -10.03 -0.62
Si -7.99  1.29  9.29
Si  5.55 -10.83 -1.97
Si -2.94 10.50  5.77
Si -12.17  1.42  1.45
Si  1.48 -1.90 -12.13
Si  8.04 -8.27 -4.47
Si  6.33 10.01  3.62
Si -3.47  2.19 11.69
Si -5.41 10.88 -2.48
Si 11.14  4.89 -2.48
Si  0.36 11.38  4.95
Si 11.90  2.22  2.79
Si -0.14  8.83  8.75
Si -1.91 -3.80 11.69
Si  5.36  7.54 -8.32
Si  4.11  3.21 -11.30
Si  5.13  9.24 -6.62
Si -0.76 10.27  7.04
Si  7.82  4.36 -8.71
Si -12.31 -1.12 -1.88
Si -10.34 -6.86  1.53
Si  4.29 -0.09 11.78
Si  2.89 11.40  4.35
Si -11.51 -0.61  4.95
Si -2.35 -11.09 -5.38
Si  4.02  2.19 11.69
Si  1.03 -11.73 -4.37
Si -11.35  4.89 -2.48
Si -10.75  6.52 -0.95
Si -7.47 -9.77  2.79
Si 11.48 -4.83 -1.97
Si -10.35  6.77  2.46
Si -10.54  5.40  4.35
Si  2.23 -10.96  5.88
Si  7.53 -9.77  2.79
Si  4.36 -4.80 -10.86
Si  0.58 -4.71 -11.74
Si -9.99  0.00 -7.78
Si  2.95  9.46 -7.88
Si 11.54  5.15  0.93
Si -7.13 -3.01 -10.04
Si  0.98 -0.98 12.60
Si  9.12  0.65 -8.79
Si  1.83  3.09 12.16
Si -5.43  7.93  8.28
Si  8.48 -4.45 -8.32
Si  9.93  7.96 -0.62
Si  0.88 -6.07 11.18
Si -7.87 -10.03 -0.62
Si -12.57  1.16 -1.97
Si -8.62 -7.36 -5.90
Si -0.08  4.10 -12.13
Si -0.09  1.55 12.71
Si  7.97 -6.33  7.76
Si -5.66 -11.22  2.46
Si 11.88 -4.58  1.45
Si  8.92  2.83  8.75
Si  4.55 10.50  5.77
Si  2.68 12.51 -0.95
Si -2.25  5.92 11.18
Si -11.77  1.68  4.86
Si -5.35 -7.24  9.19
Si -1.33 -6.25 -11.20
Si  9.16  7.67  4.86
Si -8.03  8.57  5.33
Si  9.53  7.71 -4.03
Si  9.38 -1.64 -8.71
Si -9.94 -6.61  4.95
Si  6.72 -10.29 -4.03
Si  1.24 -12.84  0.93
Si -8.43 -5.99 -7.78
Si  3.04  5.74 -11.20
Si  5.67 -2.79 -11.30
Si  3.39 -2.90 12.16
Si -1.17 -10.54 -7.45
Si 12.71 -1.11 -2.48
Si  5.44  7.29  9.29
Si -2.94 -9.16  8.75
Si -6.06 -11.47 -0.95
Si -1.28 -12.86  1.53
Si -6.29  4.53 10.45
Si -10.74 -7.12 -1.88
Si -4.61 11.40  4.35
Si -9.23  7.80 -4.91
Si -0.75 -10.06  8.28
Si  6.35 -10.31  4.86
Si -8.23 -3.26  9.62
Si  1.24  7.19 -10.86
Si  6.81 -0.08 11.18
Si  7.06 10.87 -1.88
Si  7.86 -3.01 -10.04
Si 10.74  4.63 -5.90
Si 10.69  1.45 -7.45
Si -4.55  9.46 -7.88
Si -4.11 -2.90 12.16
