500
set: 318.00  0.00  0.00
Si  0.00 -0.02 -0.04
Si -1.85  1.07  0.71
Si  1.87  1.08  0.86
Si  0.02 -0.01 -2.33
Si -0.02 -2.23  0.74
Si -1.92 -1.05 -3.00
Si -1.83  1.12  3.05
Si -0.02 -2.20  3.05
Si -1.88  3.26 -0.04
Si  1.87  3.27 -0.00
Si -3.78  0.03  0.06
Si  3.79  0.03  0.06
Si -1.92 -3.29 -0.00
Si  1.91 -3.30 -0.04
Si -0.02  2.17 -3.13
Si  1.95 -1.06 -3.13
Si  1.87  1.13  3.19
Si  3.76  0.03 -2.29
Si  3.78 -2.16  0.77
Si -3.79 -2.16  0.77
Si -1.90 -1.10  3.85
Si -1.88 -3.28 -2.32
Si  1.90 -1.09  3.86
Si -1.90  3.27 -2.33
Si  1.90  3.28 -2.32
Si  1.88 -3.29 -2.33
Si -3.81  0.03 -2.29
Si -0.00  4.40  0.77
Si -0.03  2.21  3.90
Si -3.78  2.18 -3.07
Si  3.79  2.18 -3.07
Si  0.01 -4.38 -3.07
Si  0.01  4.36  3.11
Si -3.78 -2.19  3.11
Si  3.79 -2.19  3.11
Si -1.92 -1.11 -5.32
Si  3.77  4.33  0.74
Si -3.77  2.18  3.85
Si -3.80  4.33  0.74
Si  0.02 -4.38  3.85
Si  3.81  2.18  3.85
Si -0.02  2.15 -5.44
Si  1.93 -5.49  0.71
Si  5.72  1.07  0.71
Si -5.71  1.08  0.86
Si -1.92 -5.48  0.86
Si  1.93 -1.11 -5.48
Si  5.65 -1.05 -3.00
Si  0.00 -2.16 -6.12
Si  3.77  4.36  3.05
Si -5.62 -1.06 -3.13
Si -1.88 -1.11  6.15
Si  1.95 -5.43  3.05
Si  0.00 -6.53  0.06
Si  1.87  5.50 -3.00
Si  5.65 -3.29 -0.00
Si -3.81  4.36  3.05
Si  1.87 -1.10  6.18
Si -5.66 -3.30 -0.04
Si  5.70  3.26 -0.04
Si -1.92  1.09 -6.19
Si  3.77 -4.38 -3.13
Si -5.70  3.27 -0.00
Si -1.92 -5.42  3.19
Si  0.01  6.58  0.06
Si -1.83  5.50 -3.13
Si  1.91  1.07 -6.22
Si  5.74  1.12  3.05
Si -3.81 -4.38 -3.13
Si  0.01  2.21  6.25
Si -5.71  1.13  3.19
Si -0.03 -6.53 -2.29
Si  3.76 -4.34  3.90
Si  1.88  5.46  3.85
Si  5.67 -1.10  3.85
Si -0.00 -4.34 -5.42
Si -5.67 -1.09  3.86
Si  5.67  3.27 -2.33
Si -5.67  3.28 -2.32
Si -0.00  0.03  6.95
Si -1.88  5.46  3.86
Si  5.69 -3.28 -2.32
Si  3.78  2.21 -5.42
Si -3.81 -4.34  3.90
Si -5.69 -3.29 -2.33
Si -0.03  6.59 -2.29
Si -3.79  2.21 -5.42
Si -3.78  2.17  6.14
Si  3.79  2.17  6.14
Si  0.00 -4.39  6.14
Si -3.78  6.54 -0.04
Si  3.79  6.54 -0.04
Si -7.57 -0.02 -0.04
Si  7.57 -0.02 -0.04
Si -3.79 -6.58 -0.04
Si  3.79 -6.58 -0.04
Si  0.00  4.35 -6.23
Si -3.79 -2.21 -6.23
Si  3.79 -2.21 -6.23
Si  1.87  5.45 -5.32
Si  5.65 -1.11 -5.32
Si -1.85 -3.30  6.89
Si  1.93  3.26  6.89
Si  3.77 -0.04  6.92
Si -5.64 -5.49  0.71
Si -3.80 -0.04  6.92
Si  1.93  7.63  0.71
Si -7.55 -0.01 -2.33
Si -3.77  6.55 -2.33
Si  7.55 -2.23  0.74
Si -3.77 -6.56 -2.33
Si -1.92  7.63  0.86
Si  5.65 -5.48  0.86
Si  3.81  6.55 -2.33
Si  3.81 -6.56 -2.33
Si -5.64 -1.11 -5.48
Si -1.85  5.44 -5.48
Si  7.59 -0.01 -2.33
Si -7.59 -2.23  0.74
Si  3.77 -4.41 -5.44
Si -3.81 -4.41 -5.44
Si -1.92  3.26  7.04
Si  1.87 -3.29  7.04
Si  1.87 -7.61 -3.00
Si -5.62 -5.43  3.05
Si  1.91  5.45  6.15
Si -3.78  4.40 -6.12
Si  7.55 -2.20  3.05
Si  3.79  4.40 -6.12
Si -1.83 -7.62 -3.13
Si  5.65  1.09 -6.19
Si  5.70 -1.11  6.15
Si  7.55  2.17 -3.13
Si  5.65 -5.42  3.19
Si -1.92  5.46  6.18
Si  1.87 -5.47 -6.19
Si -7.59 -2.20  3.05
Si -5.71  5.50 -3.00
Si -5.66  1.07 -6.22
Si -5.70 -1.10  6.18
Si  1.95  7.68  3.05
Si -3.78 -4.34  6.25
Si -7.59  2.17 -3.13
Si  3.79 -4.34  6.25
Si -1.88 -5.48 -6.22
Si  5.74  5.50 -3.13
Si -1.92  7.69  3.19
Si -0.03 -2.16 -8.47
Si -0.00 -8.71  0.77
Si -1.88 -7.65  3.86
Si  7.55  2.21  3.90
Si -5.69  5.46  3.85
Si  1.88 -7.66  3.85
Si -1.88  1.09 -8.51
Si  5.69  5.46  3.86
Si  1.88  1.09 -8.51
Si  7.57  4.40  0.77
Si -7.58  4.40  0.77
Si -7.60  2.21  3.90
Si  0.01 -0.01 -9.25
Si  0.01  8.73 -3.07
Si -7.57 -4.38 -3.07
Si -7.57  4.36  3.11
Si  7.58 -4.38 -3.07
Si  7.58  4.36  3.11
Si  0.01 -8.75  3.11
Si  0.01 -0.01  9.29
Si -5.64  3.26  6.89
Si -0.02  6.52  6.92
Si -9.43  1.07  0.71
Si -5.64  7.63  0.71
Si -5.71  5.45 -5.32
Si  1.87 -7.67 -5.32
Si  5.65  7.63  0.86
Si  9.44  1.08  0.86
Si -7.55 -4.38  3.85
Si  5.72 -3.30  6.89
Si  0.02  8.74  3.85
Si  7.55  2.15 -5.44
Si -0.02 -6.60  6.92
Si -3.77 -2.19 -8.52
Si  0.02  4.37 -8.52
Si  7.59 -4.38  3.85
Si  3.81 -2.19 -8.52
Si -7.59  2.15 -5.44
Si  3.77 -8.78  0.74
Si -3.81 -8.78  0.74
Si  5.65  3.26  7.04
Si -1.85 -7.67 -5.48
Si  5.72  5.44 -5.48
Si -5.71 -3.29  7.04
Si  1.87 -3.24 -9.18
Si -1.92  3.32 -9.18
Si -9.41  1.12  3.05
Si -1.83 -3.25  9.24
Si -7.57 -2.16 -6.12
Si  3.77 -0.01  9.23
Si -5.71 -7.61 -3.00
Si -5.66  5.45  6.15
Si  7.58 -2.16 -6.12
Si -3.81 -0.01  9.23
Si  9.44  3.27 -0.00
Si -9.45  3.26 -0.04
Si -7.57 -6.53  0.06
Si -5.62  7.68  3.05
Si  5.65  5.46  6.18
Si  1.91  9.82 -0.04
Si  7.58 -6.53  0.06
Si  1.95  3.31  9.24
Si  3.77 -8.76  3.05
Si -9.49 -1.05 -3.00
Si  1.87  7.64 -6.19
Si  3.77  8.73 -3.13
Si  1.91 -7.67  6.15
Si -1.92  9.83 -0.00
Si  1.87 -9.84 -0.00
Si -1.88  7.63 -6.22
Si -3.81 -8.76  3.05
Si -1.92 -7.66  6.18
Si -3.81  8.73 -3.13
Si  9.44  1.13  3.19
Si -1.83 -3.25 -9.31
Si -7.57  6.58  0.06
Si -1.88 -9.86 -0.04
Si -5.71 -5.47 -6.19
Si  5.74 -7.62 -3.13
Si  7.58  6.58  0.06
Si  9.48 -3.30 -0.04
Si -9.49 -3.29 -0.00
Si  3.77 -0.01 -9.31
Si -7.57  2.21  6.25
Si  5.70 -5.48 -6.22
Si  5.65  7.69  3.19
Si -3.81 -0.01 -9.31
Si  7.58  2.21  6.25
Si  1.95  3.31 -9.31
Si  9.52 -1.06 -3.13
Si  1.87 -3.24  9.37
Si -1.92  3.32  9.37
Si  7.54 -6.53 -2.29
Si  3.78 -6.53  6.95
Si  3.76  4.40 -8.47
Si -3.79 -6.53  6.95
Si  1.88  1.09 10.04
Si  7.57 -4.34 -5.42
Si  7.55  6.59 -2.29
Si -9.46 -3.28 -2.32
Si  7.57  0.03  6.95
Si  1.88  9.83 -2.33
Si -1.88  1.09 10.04
Si  9.45 -3.29 -2.33
Si -7.58 -4.34 -5.42
Si -7.60 -6.53 -2.29
Si -3.81  4.40 -8.47
Si -1.88  9.84 -2.32
Si -7.58  0.03  6.95
Si  1.90 -9.84 -2.32
Si  5.69 -7.65  3.86
Si  1.90 -5.47 -8.51
Si -9.48 -1.10  3.85
Si -5.69 -7.66  3.85
Si  9.48 -1.09  3.86
Si  5.69  1.09 -8.51
Si -9.48  3.27 -2.33
Si  9.48  3.28 -2.32
Si -1.90 -9.84 -2.33
Si  3.78  6.59  6.95
Si -5.69  1.09 -8.51
Si -1.90 -5.47 -8.51
Si -3.79  6.59  6.95
Si -0.03 -2.16 10.08
Si  3.76  8.77  3.90
Si -0.00  8.77 -5.42
Si -7.60  6.59 -2.29
Si -3.81  8.77  3.90
Si  0.00  8.72  6.14
Si -7.57 -4.39  6.14
Si  7.57 -4.39  6.14
Si -7.57  4.35 -6.23
Si  7.57  4.35 -6.23
Si  0.00 -8.76 -6.23
Si -0.02 10.89  0.74
Si  3.77  8.70 -5.44
Si -3.77 -2.19 10.03
Si -9.49 -1.11 -5.32
Si -5.71 -7.67 -5.32
Si  0.02  4.37 10.03
Si -3.80  8.70 -5.44
Si  3.81 -2.19 10.03
Si -9.49 -5.48  0.86
Si  9.51 -5.49  0.71
Si  5.72 -7.67 -5.48
Si  9.51 -1.11 -5.48
Si  5.65  3.32 -9.18
Si -5.71 -3.24 -9.18
Si -3.78 -8.72 -6.12
Si  3.79 -8.72 -6.12
Si -5.62  3.31  9.24
Si -0.02  6.54  9.23
Si -9.45 -1.11  6.15
Si  9.44  5.50 -3.00
Si -0.02 -6.57  9.23
Si -5.66  9.82 -0.04
Si -0.02 10.92  3.05
Si -9.41  5.50 -3.13
Si  9.44 -1.10  6.18
Si  5.65  9.83 -0.00
Si -5.66 -7.67  6.15
Si  5.65 -7.66  6.18
Si  5.74 -3.25  9.24
Si -11.35  0.03  0.06
Si 11.36  0.03  0.06
Si -5.70  7.64 -6.19
Si -5.62  3.31 -9.31
Si  5.70  7.63 -6.22
Si -5.71 -9.84 -0.00
Si -9.49  1.09 -6.19
Si -0.02 -10.94 -3.13
Si  9.52 -5.43  3.05
Si  5.70 -9.86 -0.04
Si -0.02  6.54 -9.31
Si -9.49 -5.42  3.19
Si  9.48  1.07 -6.22
Si -0.02 -6.57 -9.31
Si  5.74 -3.25 -9.31
Si -3.78  8.77  6.25
Si  3.79  8.77  6.25
Si  5.65  3.32  9.37
Si -5.71 -3.24  9.37
Si  7.54 -2.16 -8.47
Si 11.33  0.03 -2.29
Si  7.57 -8.71  0.77
Si -7.58 -8.71  0.77
Si -0.03 -10.90  3.90
Si  9.46  5.46  3.85
Si -9.45  5.46  3.86
Si -7.60 -2.16 -8.47
Si 11.35 -2.16  0.77
Si -5.69  1.09 10.04
Si -1.90 -5.47 10.04
Si -5.67 -9.84 -2.32
Si -11.36 -2.16  0.77
Si -5.67 -5.47 -8.51
Si  1.90 -5.47 10.04
Si -5.69  9.83 -2.33
Si  5.69  1.09 10.04
Si  5.67 -9.84 -2.33
Si  1.90  7.65 -8.51
Si -1.90  7.64 -8.51
Si  5.69  9.84 -2.32
Si  5.67 -5.47 -8.51
Si -0.00  0.03 -11.60
Si -11.38  0.03 -2.29
Si  3.78 10.96  0.77
Si -3.79 10.96  0.77
Si  3.76  4.40 10.08
Si -3.81  4.40 10.08
Si -3.78  6.55 -9.25
Si -7.57 -0.01 -9.25
Si  3.79  6.55 -9.25
Si -7.57  8.73 -3.07
Si -3.78 -6.57 -9.25
Si  7.58 -0.01 -9.25
Si -11.35  2.18 -3.07
Si  3.79 -6.57 -9.25
Si  7.58  8.73 -3.07
Si -3.78 10.92  3.11
Si 11.36  2.18 -3.07
Si  3.79 10.92  3.11
Si -3.78 -10.94 -3.07
Si -11.35 -2.19  3.11
Si  3.79 -10.94 -3.07
Si -7.57 -8.75  3.11
Si -3.78  6.55  9.29
Si 11.36 -2.19  3.11
Si -7.57 -0.01  9.29
Si  3.79  6.55  9.29
Si  7.58 -8.75  3.11
Si -3.78 -6.57  9.29
Si  7.58 -0.01  9.29
Si  3.79 -6.57  9.29
Si -1.92  3.26 -11.51
Si  1.87 -3.30 -11.51
Si  9.44  5.45 -5.32
Si -9.43 -3.30  6.89
Si -1.85  9.82  6.89
Si  7.55  6.52  6.92
Si 11.34  4.33  0.74
Si -7.59  6.52  6.92
Si -11.34  2.18  3.85
Si -7.55  8.74  3.85
Si  1.93 -9.86  6.89
Si  9.51  3.26  6.89
Si -9.43  5.44 -5.48
Si  7.55 -6.60  6.92
Si -3.77 -10.93  3.85
Si -7.55  4.37 -8.52
Si -11.38  4.33  0.74
Si  7.59  8.74  3.85
Si  3.81 -10.93  3.85
Si -1.85 -12.04  0.71
Si  0.02 -8.75 -8.52
Si -7.59 -6.60  6.92
Si  9.51  7.63  0.71
Si 11.38  2.18  3.85
Si -9.49  7.63  0.86
Si  1.87 -12.04  0.86
Si  7.59  4.37 -8.52
Si  3.77 -0.04 -11.62
Si  1.87  9.82  7.04
Si  9.44 -3.29  7.04
Si -3.81 -0.04 -11.62
Si -0.02 -10.97 -5.44
Si -1.85 -3.30 -11.66
Si  1.93  3.26 -11.66
Si -9.49  3.26  7.04
Si -1.92 -9.85  7.04
Si  9.44 -7.61 -3.00
Si  0.00  2.21 -12.30
Si -9.41 -7.62 -3.13
Si -1.83 -11.99  3.05
Si  1.91  1.07 12.33
Si 11.34  4.36  3.05
Si  1.87 -11.98  3.19
Si  9.44 -5.47 -6.19
Si  9.48  5.45  6.15
Si  0.01 10.96 -6.12
Si 11.34 -4.38 -3.13
Si  1.87 -1.10 -12.37
Si -1.92  1.09 12.36
Si -11.38  4.36  3.05
Si  0.00 -10.90  6.25
Si -9.45 -5.48 -6.22
Si -9.49  5.46  6.18
Si -1.92 12.06 -3.00
Si -11.38 -4.38 -3.13
Si -1.88 -1.11 -12.40
Si  1.95 12.05 -3.13
Si  9.52  7.68  3.05
Si  0.01 -2.16 12.43
Si -9.49  7.69  3.19
Si  3.76 -8.71 -8.47
Si -3.81 -8.71 -8.47
Si 11.33 -4.34  3.90
Si  3.78 -10.90 -5.42
Si -3.79 -10.90 -5.42
Si -1.90  7.64 10.04
Si  5.67 -5.47 10.04
Si -9.46 -7.65  3.86
Si -1.90 12.02  3.85
Si -5.67 -5.47 10.04
Si  9.45 -7.66  3.85
Si -9.46  1.09 -8.51
Si -5.67  7.65 -8.51
Si  5.67  7.64 -8.51
Si  1.90  7.65 10.04
Si  9.45  1.09 -8.51
Si  1.90 12.02  3.86
Si  7.55 -2.16 10.08
Si 11.35  2.21 -5.42
Si -11.36  2.21 -5.42
Si  7.57  8.77 -5.42
Si -11.38 -4.34  3.90
Si -7.58  8.77 -5.42
Si -7.60 -2.16 10.08
Si  0.00  4.35 12.32
Si -3.78 -2.21 12.32
Si  3.79 -2.21 12.32
Si -7.57  8.72  6.14
Si  7.58  8.72  6.14
Si -11.36  2.17  6.14
Si 11.36  2.17  6.14
Si  0.00 13.10 -0.04
Si -11.36  6.54 -0.04
Si 11.36  6.54 -0.04
Si -3.79 -10.95  6.14
Si  3.79 -10.95  6.14
Si -3.78 10.91 -6.23
Si  3.79 10.91 -6.23
Si -11.36 -6.58 -0.04
Si 11.36 -6.58 -0.04
Si  0.00 -13.14 -0.04
Si -11.36 -2.21 -6.23
Si 11.36 -2.21 -6.23
Si -7.57 -8.76 -6.23
Si  7.57 -8.76 -6.23
Si -3.78  2.17 -12.41
Si  3.79  2.17 -12.41
Si  0.00 -4.39 -12.41
Si  5.65  3.26 -11.51
Si -5.71 -3.30 -11.51
Si  1.93 -1.11 13.07
Si -1.92 12.01 -5.32
Si  9.44 -7.67 -5.32
Si  7.55 10.89  0.74
Si -0.02  2.15 13.11
Si -5.64 -9.86  6.89
Si  5.72  9.82  6.89
Si 11.34 -0.04  6.92
Si -7.55  4.37 10.03
