500
set: 732.00  0.00  0.00
Si -0.38  1.25 -0.81
Si  0.47 -1.25  0.87
Si -1.33 -1.17 -0.82
Si  1.32  1.26  0.81
Si -2.16  1.11  0.82
Si  2.19 -1.16 -0.91
Si  0.88  0.02 -2.51
Si -0.89 -0.08  2.60
Si  0.00 -2.34 -2.48
Si  0.02  2.45  2.46
Si  3.17  1.25 -0.79
Si -3.22 -1.21  0.81
Si  2.67  0.03  2.43
Si -2.66 -0.02 -2.52
Si -0.54 -3.55  0.81
Si  0.53  3.64 -0.82
Si -1.83  2.32 -2.50
Si  1.31 -3.56 -0.79
Si -1.84 -2.36  2.46
Si -1.35  3.60  0.81
Si  1.75 -2.46  2.54
Si  1.86  2.47 -2.48
Si  3.93 -1.21  0.81
Si -3.97  1.25 -0.79
Si  0.93  0.06  4.18
Si -2.25 -3.56 -0.81
Si -0.91  0.05 -4.20
Si  2.33  3.56  0.87
Si  0.04  2.33 -4.06
Si -0.06 -2.38  4.15
Si -3.09  3.65 -0.91
Si  3.12 -3.70  0.82
Si  2.68 -0.06 -4.12
Si  3.45 -2.49 -2.50
Si -3.53  2.35  2.54
Si -2.76 -0.09  4.16
Si  3.62  2.35  2.54
Si -1.73  2.38  4.14
Si -4.47  0.03  2.43
Si -1.82 -2.48 -4.06
Si -3.69 -2.49 -2.50
Si  1.81  2.42  4.15
Si  4.48 -0.02 -2.52
Si  1.74 -2.38 -4.23
Si -4.96 -1.16 -0.91
Si  4.98  1.11  0.82
Si  0.81 -4.78  2.43
Si -0.80  4.79 -2.52
Si  0.97  4.73  2.60
Si -0.99 -4.79 -2.51
Si -4.02 -3.70  0.82
Si  4.05  3.65 -0.91
Si  3.55 -2.43  4.14
Si  0.39 -1.14 -5.86
Si -0.40  1.23  5.84
Si -0.30  5.92  0.82
Si  5.81 -1.17 -0.82
Si -3.60 -2.43  4.14
Si -5.82  1.26  0.81
Si -2.61  4.84  2.43
Si -3.54  2.43 -4.23
Si  4.38 -0.09  4.16
Si  0.32 -5.97 -0.91
Si  2.62 -4.83 -2.52
Si -4.81  3.56  0.87
Si  3.60  2.43 -4.23
Si  1.40  1.16 -5.79
Si -4.46 -0.06 -4.12
Si  2.74  4.83 -2.51
Si -1.31 -1.16  5.85
Si  4.90 -3.56 -0.81
Si -2.75 -4.89  2.60
Si -1.39 -6.06  0.87
Si  1.48  6.05 -0.81
Si  5.30 -2.36  2.46
Si  5.31  2.32 -2.50
Si -5.28  2.47 -2.48
Si -0.90  4.72  4.16
Si  2.24 -1.15  5.87
Si -2.29  1.20 -5.85
Si -0.93 -4.75  4.18
Si  2.06 -6.02  0.81
Si  0.82 -4.87 -4.12
Si -5.39 -2.46  2.54
Si -2.10  6.06 -0.79
Si  0.95  4.86 -4.20
Si  3.12  1.25  5.75
Si -3.09 -1.29 -5.84
Si -6.27  0.02 -2.51
Si  6.25 -0.08  2.60
Si -2.60  4.75 -4.12
Si -3.19 -5.98 -0.82
Si -6.67 -1.25  0.87
Si -0.46 -3.65 -5.79
Si  5.79  3.60  0.81
Si -5.83 -3.56 -0.79
Si  1.25 -3.56  5.75
Si  2.52 -4.90  4.16
Si  3.19  6.07  0.81
Si  0.55  3.65  5.85
Si  6.76  1.25 -0.81
Si -1.23  3.52 -5.84
Si -2.77 -4.76 -4.20
Si  2.79  4.87  4.18
Si -4.41  4.83 -2.51
Si  4.53  4.84  2.43
Si  4.39 -4.89  2.60
Si -4.53 -4.83 -2.52
Si -4.03  1.25  5.75
Si  5.32 -2.48 -4.06
Si -5.34  2.42  4.15
Si -2.26 -3.58  5.84
Si  5.41  2.38  4.14
Si  3.95 -5.98 -0.82
Si  4.05 -1.29 -5.84
Si -5.41 -2.38 -4.23
Si  2.25  3.67 -5.86
Si -3.96  6.07  0.81
Si -6.21  0.06  4.18
Si  2.99 -3.61 -5.85
Si  6.23  0.05 -4.20
Si  6.60 -3.55  0.81
Si  0.03  7.13 -2.50
Si -3.04  3.66  5.87
Si  0.39 -1.14  7.46
Si -6.61  3.64 -0.82
Si -0.40  1.23 -7.48
Si -7.53  1.25 -0.81
Si -1.32 -1.16 -7.47
Si  4.86  1.20 -5.85
Si -0.11 -7.27  2.54
Si  4.37 -4.76 -4.20
Si -4.90 -1.15  5.87
Si  1.40  1.16  7.53
Si -4.35  4.87  4.18
Si  4.55  4.75 -4.12
Si  7.61 -1.25  0.87
Si -1.66  7.16  2.54
Si -1.86 -7.15 -2.48
Si  2.24 -1.15 -7.45
Si  1.59 -7.30 -2.50
Si  1.88  7.26  2.46
Si -2.29  1.20  7.47
Si -7.14 -2.34 -2.48
Si -5.08 -6.02  0.81
Si  7.14 -2.34 -2.48
Si -4.62 -4.90  4.16
Si  5.04  6.06 -0.79
Si -7.12  2.45  2.46
Si  7.16  2.45  2.46
Si -4.15 -3.61 -5.85
Si  4.11  3.66  5.87
Si  6.16 -4.79 -2.51
Si -3.09 -1.29  7.48
Si -6.17  4.73  2.60
Si -5.74  1.16 -5.79
Si  3.12  1.25 -7.57
Si  0.13  7.19  4.14
Si -6.34 -4.78  2.43
Si  3.44 -7.17  2.46
Si -5.66  6.05 -0.81
Si  0.55  3.65 -7.47
Si  6.34  4.79 -2.52
Si  5.83 -1.16  5.85
Si -0.12 -7.19 -4.23
Si -1.23  3.52  7.48
Si  0.38 -5.96  5.87
Si -0.46 -3.65  7.53
Si -0.42  6.01 -5.85
Si  5.75 -6.06  0.87
Si  8.02  0.02 -2.51
Si  4.88 -3.58  5.84
Si -3.42  7.28 -2.48
Si -0.55 -8.37 -0.79
Si  1.90  7.14 -4.06
Si -3.70 -7.17  2.46
Si -8.04 -0.08  2.60
Si  1.25 -3.56 -7.57
Si -4.89  3.67 -5.86
Si  0.51  8.41  0.81
Si -1.47 -5.95 -5.86
Si -7.68 -3.55  0.81
Si  1.69 -7.24  4.14
Si -7.10  2.33 -4.06
Si -1.92 -7.20  4.15
Si  1.47  6.04  5.84
Si  7.68  3.64 -0.82
Si  3.73  7.28 -2.48
Si  7.09 -2.38  4.15
Si -1.68  7.24 -4.23
Si  7.18  2.33 -4.06
Si -8.47 -1.17 -0.82
Si  8.46  1.26  0.81
Si -2.26 -3.58 -7.48
Si -1.23  8.46 -0.91
Si  4.05 -1.29  7.48
Si  2.25  3.67  7.46
Si -2.16  6.06  5.75
Si  1.26 -8.51  0.82
Si -7.20 -2.38  4.15
Si -4.03  1.25 -7.57
Si  2.19 -6.11 -5.84
Si -2.40 -8.36  0.81
Si  2.40  8.45 -0.82
Si  3.00 -3.61  7.47
Si -3.04  3.66 -7.45
Si  6.24  4.72  4.16
Si  6.21 -4.75  4.18
Si -6.19  4.86 -4.20
Si -2.95  8.37  0.87
Si  3.27  5.97 -5.79
Si -3.18 -5.97  5.85
Si  3.03 -8.38 -0.81
Si -5.89 -3.56  5.75
Si -6.32 -4.87 -4.12
Si -4.90 -1.15 -7.45
Si  4.86  1.20  7.47
Si  6.75  1.23  5.84
Si -6.75 -1.14 -5.86
Si  5.91  3.52 -5.84
Si  3.46 -7.29 -4.06
Si -3.47  7.24  4.15
Si -8.05  0.05 -4.20
Si  6.84  5.92  0.82
Si  8.07  0.06  4.18
Si -6.82 -5.97 -0.91
Si  3.67  7.24  4.15
Si -3.69 -7.29 -4.06
Si -0.91  0.05  9.12
Si -3.88  5.97 -5.79
Si  0.93  0.06 -9.14
Si  8.46 -3.56 -0.79
Si  5.28 -7.15 -2.48
Si  3.96 -5.97  5.85
Si  4.11  3.66 -7.45
Si -8.50  3.60  0.81
Si -4.15 -3.61  7.47
Si -5.26  7.26  2.46
Si -4.11 -8.38 -0.81
Si  5.48  7.16  2.54
Si -9.30  1.11  0.82
Si  4.20  8.37  0.87
Si  9.33 -1.16 -0.91
Si -0.06 -2.38 -9.17
Si -5.55 -7.30 -2.50
Si -6.59  3.65  5.85
Si -5.74  1.16  7.53
Si -7.44  5.92  0.82
Si  5.83 -1.16 -7.47
Si  0.38 -5.96 -7.45
Si  0.04  2.33  9.26
Si  1.74 -2.38  9.09
Si  6.68 -3.65 -5.79
Si -2.76 -0.09 -9.16
Si  8.90 -2.46  2.54
Si  2.69 -0.06  9.20
Si  7.95 -4.78  2.43
Si -0.42  6.01  7.47
Si -8.97  2.32 -2.50
Si  7.47 -5.97 -0.91
Si -8.98 -2.36  2.46
Si  7.53 -1.14 -5.86
Si -7.94  4.79 -2.52
Si -7.54  1.23  5.84
Si  4.88 -3.58 -7.48
Si  4.74 -8.36  0.81
Si -1.73  2.38 -9.18
Si -4.89  3.67  7.46
Si  1.81  2.42 -9.17
Si -1.47 -5.95  7.46
Si  9.01  2.47 -2.48
Si -4.75  8.45 -0.82
Si  4.98  6.06  5.75
Si  1.47  6.04 -7.48
Si -5.24  7.14 -4.06
Si  8.11  4.73  2.60
Si -1.82 -2.48  9.26
Si -8.13 -4.79 -2.51
Si -4.95 -6.11 -5.84
Si  5.22 -7.20  4.15
Si  2.19 -6.11  7.48
Si -2.16  6.06 -7.57
Si -1.06 -9.59  2.43
Si -5.46 -7.24  4.14
Si -0.75  9.65  2.43
Si  1.06  9.60 -2.52
Si  0.75 -9.64 -2.52
Si  5.46  7.24 -4.23
Si -3.54  2.43  9.09
Si -9.39 -3.56 -0.81
Si -8.88  2.38  4.14
Si  3.60  2.43  9.09
Si -3.18 -5.97 -7.47
Si  5.67 -5.95 -5.86
Si  9.81  0.03  2.43
Si  8.88 -2.38 -4.23
Si -9.81 -0.02 -2.52
Si -6.75 -1.14  7.46
Si  3.55 -2.43 -9.18
Si -5.68  6.04  5.84
Si  6.74  1.23 -7.48
Si  3.27  5.97  7.53
Si -8.97 -2.48 -4.06
Si  4.38 -0.09 -9.16
Si -3.60 -2.43 -9.18
Si  8.95  2.42  4.15
Si  9.48  3.56  0.87
Si  5.91  3.52  7.48
Si -0.61 -8.37  5.75
Si  0.63  8.32 -5.84
Si  7.96 -4.87 -4.12
Si -8.04  4.72  4.16
Si -4.46 -0.06  9.20
Si -7.60 -3.65 -5.79
Si -5.89 -3.56 -7.57
Si -8.07 -4.75  4.18
Si -2.54  9.64 -2.51
Si  2.83  9.54  2.60
Si  1.13 -8.42 -5.85
Si -2.85 -9.60 -2.51
Si  7.69  3.65  5.85
Si  8.09  4.86 -4.20
Si -0.93 -4.75 -9.14
Si -0.90  4.72 -9.16
Si -8.46 -1.16  5.85
Si  2.52 -9.70  2.60
Si  3.96 -5.97 -7.47
Si  5.91  8.46 -0.91
Si -3.88  5.97  7.53
Si -1.17  8.47  5.87
Si -7.11  7.13 -2.50
Si -5.88 -8.51  0.82
Si  0.95  4.86  9.12
Si  8.54  1.16 -5.79
Si  7.18  7.13 -2.50
Si 10.32  1.25 -0.79
Si  7.03 -7.27  2.54
Si  0.82 -4.87  9.20
Si -0.73  9.56 -4.12
Si  0.96  9.53  4.16
Si -10.36 -1.21  0.81
Si -8.53 -6.06  0.87
Si -2.32 -8.46 -5.79
Si  2.41  8.46  5.85
Si  8.62  6.05 -0.81
Si -1.04 -9.68 -4.12
Si -7.25 -7.27  2.54
Si  0.66 -9.71  4.16
Si -6.59  3.65 -7.47
Si  9.83 -0.06 -4.12
Si  3.02 -8.39  5.84
Si -2.77 -4.76  9.12
Si  7.53 -1.14  7.46
Si -2.60  4.75  9.20
Si  6.59 -8.37 -0.79
Si  2.52 -4.90 -9.16
Si -7.54  1.23 -7.48
Si  6.68 -3.65  7.53
Si  2.79  4.87 -9.14
Si -3.03  8.48 -5.86
Si -9.90 -0.09  4.16
Si -6.63  8.41  0.81
Si  6.72  6.01 -5.85
Si  2.51 -9.57 -4.20
Si -0.89 -0.08 -10.72
Si -6.76 -5.96  5.87
Si  8.40 -3.56  5.75
Si -4.31  9.54  2.60
Si -8.37  3.52 -5.84
Si -2.79 -9.56  4.18
Si  4.29 -9.60 -2.51
Si -2.48  9.68  4.18
Si -5.40 -2.38  9.09
Si  0.88  0.02 10.81
Si -4.95 -6.11  7.48
Si  0.20 -10.83  0.81
Si -7.01  7.19  4.14
Si  1.56 10.73  0.82
Si -5.34  2.42 -9.17
Si  7.02 -7.19 -4.23
Si  4.98  6.06 -7.57
Si -0.24 10.87 -0.79
Si -10.24  3.65 -0.91
Si  2.81  9.67 -4.20
Si  5.41  2.38 -9.18
Si -1.54 -10.78 -0.91
Si 10.26 -3.70  0.82
Si  5.32 -2.48  9.26
Si  4.60  9.64 -2.51
Si -4.12 -8.39  5.84
Si  2.09 -10.79 -0.82
Si  9.21 -6.02  0.81
Si  7.27  7.19  4.14
Si  6.23  0.05  9.12
Si -6.21  0.06 -9.14
Si -4.62 -9.70  2.60
Si -7.27 -7.19 -4.23
Si -9.25  6.06 -0.79
Si  0.00 -2.34 10.84
Si  4.12  8.48 -5.86
Si  5.67 -5.95  7.46
Si -2.09 10.88  0.81
Si -2.66 -0.02 10.80
Si  9.39 -1.15  5.87
Si  0.02  2.45 -10.86
Si -9.75  4.84  2.43
Si -9.43  1.20 -5.85
Si 11.07 -1.21  0.81
Si 10.59 -2.49 -2.50
Si -5.68  6.04 -7.48
Si  9.76 -4.83 -2.52
Si  4.37 -4.76  9.12
Si  1.75 -2.46 -10.78
Si -11.11  1.25 -0.79
Si  2.67  0.03 -10.89
Si  0.63  8.32  7.48
Si -10.67  2.35  2.54
Si -1.83  2.32 10.82
Si -4.35  4.87 -9.14
Si  7.52 -5.96  5.87
Si -1.84 -2.36 -10.86
Si  1.86  2.47 10.84
Si  9.88  4.83 -2.51
Si -7.57  6.01 -5.85
Si 10.76  2.35  2.54
Si -0.61 -8.37 -7.57
Si  4.35 -9.56  4.18
Si -7.60 -3.65  7.53
Si  4.55  4.75  9.20
Si  1.13 -8.42  7.47
Si -4.73  8.46  5.85
Si  7.69  3.65 -7.47
Si  4.82 -8.46 -5.79
Si -1.17  8.47 -7.45
Si -9.90 -4.89  2.60
Si -8.46 -1.16 -7.47
Si -4.62 -4.90 -9.16
Si -3.25 -10.87  0.87
Si -7.69 -8.37 -0.79
Si -4.33  9.67 -4.20
Si -10.83 -2.49 -2.50
Si  3.34 10.87 -0.81
Si  7.65  8.41  0.81
Si -4.64 -9.57 -4.20
Si  8.54  1.16  7.53
Si  4.66  9.68  4.18
Si -3.80 10.87 -0.81
Si  2.41  8.46 -7.47
Si -2.32 -8.46  7.53
Si  3.89 -10.87  0.87
Si -3.53  2.35 -10.78
Si -0.12 -7.19  9.09
Si -9.74  4.75 -4.12
Si  9.66 -4.90  4.16
Si  3.62  2.35 -10.78
Si  6.09 -9.59  2.43
Si -8.81  7.16  2.54
Si  3.45 -2.49 10.82
Si -9.40 -3.58  5.84
Si -6.08  9.60 -2.52
Si  3.02 -8.39 -7.48
Si  8.73 -7.30 -2.50
Si  9.40  3.67 -5.86
Si  0.13  7.19 -9.18
Si  4.48 -0.02 10.80
Si -6.76 -5.96 -7.45
Si -3.02  8.48  7.46
Si -3.69 -2.49 10.82
Si  6.72  6.01  7.47
Si 10.69 -2.43  4.14
Si -10.68  2.43 -4.23
Si -1.68  7.24  9.09
Si  0.97  4.73 -10.72
Si -10.74 -2.43  4.14
Si -9.00 -7.15 -2.48
Si -8.37  3.52  7.48
Si -4.47  0.03 -10.89
Si -9.92 -4.76 -4.20
Si -11.16 -3.70  0.82
Si 10.74  2.43 -4.23
Si 11.19  3.65 -0.91
Si  1.68 -7.24 -9.18
Si -1.92 -7.20 -9.17
Si  6.39  9.65  2.43
Si 10.26  1.25  5.75
Si  9.94  4.87  4.18
Si  7.09 -2.38 -9.17
Si -6.39 -9.64 -2.52
Si -0.80  4.79 10.80
Si  9.03  7.26  2.46
Si  1.90  7.14  9.26
Si -10.23 -1.29 -5.84
Si  8.40 -3.56 -7.57
Si -0.99 -4.79 10.81
Si -11.62  0.03  2.43
Si -6.01 -8.42 -5.85
Si 11.62 -0.02 -2.52
Si -7.20 -2.38 -9.17
Si -7.10  2.33  9.26
Si  5.97  8.47  5.87
