500
set: 1025.00  0.00  0.00
Si  0.50 -1.15  0.80
Si -0.39  1.18 -0.87
Si -1.36 -1.17 -0.80
Si  1.32  1.21  0.85
Si -2.14  1.13  0.80
Si  0.90 -0.02 -2.45
Si -0.90 -0.05  2.46
Si  2.21 -1.24 -0.81
Si  3.06  1.20 -0.81
Si -0.08 -2.33 -2.48
Si -3.09 -1.18  0.83
Si  0.02  2.36  2.48
Si  2.60  0.01  2.48
Si -2.65  0.04 -2.44
Si -0.49 -3.50  0.85
Si  0.46  3.54 -0.80
Si  1.73 -2.37  2.41
Si  1.25 -3.50 -0.81
Si -1.72  2.37 -2.46
Si -1.27  3.52  0.83
Si  1.73  2.38 -2.48
Si -1.80 -2.35  2.48
Si  0.82  0.03  4.06
Si -0.89  0.00 -4.07
Si  3.93 -1.18  0.83
Si -3.96  1.20 -0.81
Si -2.20 -3.52 -0.87
Si  2.31  3.56  0.80
Si -3.00  3.46 -0.81
Si  0.01  2.31 -4.09
Si -0.00 -2.38  4.10
Si  3.06 -3.58  0.80
Si -3.47  2.34  2.41
Si  3.48 -2.34 -2.46
Si -2.63  0.01  4.09
Si  3.54  2.34  2.41
Si -3.54 -2.34 -2.46
Si  2.64 -0.02 -4.13
Si  1.69 -2.34 -4.06
Si  4.37  0.04 -2.44
Si -4.81 -1.24 -0.81
Si  1.81  2.33  4.10
Si -1.74  2.40  4.11
Si  4.88  1.13  0.80
Si -4.42  0.01  2.48
Si -1.81 -2.40 -4.09
Si  0.91  4.66  2.46
Si  0.78 -4.69  2.48
Si  4.02  3.46 -0.81
Si -3.95 -3.58  0.80
Si -0.83  4.75 -2.44
Si -0.91 -4.73 -2.45
Si  0.41 -1.14 -5.70
Si  5.66 -1.17 -0.80
Si  2.56 -4.67 -2.44
Si  3.46 -2.31  4.11
Si  3.50  2.37 -4.06
Si -3.51  2.37 -4.06
Si -5.70  1.21  0.85
Si -0.45  1.19  5.75
Si -0.33  5.83  0.80
Si -3.55 -2.31  4.11
Si -2.61  4.72  2.48
Si -1.30 -1.17  5.68
Si  2.72  4.68 -2.45
Si -4.71  3.56  0.80
Si  4.39  0.01  4.09
Si -2.71 -4.75  2.46
Si  0.39 -5.95 -0.81
Si -4.38 -0.02 -4.13
Si  4.81 -3.52 -0.87
Si  1.40  1.21 -5.75
Si -1.32 -5.85  0.80
Si  1.42  5.89 -0.87
Si -2.18  1.17 -5.72
Si  2.15 -1.15  5.73
Si  5.22 -2.35  2.48
Si -5.29 -2.37  2.41
Si -0.99 -4.68  4.06
Si  0.92  4.71 -4.07
Si  5.29  2.37 -2.46
Si -0.82  4.72  4.09
Si -5.29  2.38 -2.48
Si  2.12 -5.89  0.83
Si  0.82 -4.72 -4.13
Si -2.14  5.91 -0.81
Si -6.11 -0.02 -2.45
Si  6.11 -0.05  2.46
Si -3.05 -1.23 -5.74
Si  3.11  1.11  5.74
Si -6.52 -1.15  0.80
Si  0.52  3.54  5.68
Si -3.17 -5.88 -0.80
Si  2.57 -4.69  4.09
Si -0.41 -3.50 -5.75
Si  3.13  5.92  0.85
Si -2.57  4.69 -4.13
Si  2.64  4.73  4.06
Si -2.70 -4.70 -4.07
Si  6.62  1.18 -0.87
Si  5.74  3.52  0.83
Si -5.77 -3.50 -0.81
Si -4.30  4.68 -2.45
Si -1.23  3.48 -5.74
Si  4.30 -4.75  2.46
Si -4.46 -4.67 -2.44
Si  1.30 -3.60  5.74
Si  4.41  4.72  2.48
Si -5.21  2.33  4.10
Si -3.90  1.11  5.74
Si  5.21 -2.40 -4.09
Si  3.85 -5.88 -0.80
Si  2.23  3.56 -5.70
Si  3.97 -1.23 -5.74
Si -5.33 -2.34 -4.06
Si  5.28  2.40  4.11
Si -2.26 -3.52  5.75
Si -3.88  5.92  0.85
Si  6.12  0.00 -4.07
Si  3.02 -3.54 -5.72
Si -3.05  3.56  5.73
Si -6.19  0.03  4.06
Si  6.52 -3.50  0.85
Si -0.45  1.19 -7.34
Si -0.08 -7.08  2.41
Si  0.09  7.07 -2.46
Si -6.56  3.54 -0.80
Si  0.41 -1.14  7.40
Si -7.41  1.18 -0.87
Si  4.31 -4.70 -4.07
Si  1.40  1.21  7.35
Si  4.84  1.17 -5.72
Si -4.86 -1.15  5.73
Si -1.30 -1.17 -7.42
Si -4.38  4.73  4.06
Si -1.66  7.04  2.41
Si  7.51 -1.15  0.80
Si  1.67 -7.05 -2.46
Si -4.44 -4.69  4.09
Si  4.45  4.69 -4.13
Si -1.90 -7.03 -2.48
Si  4.87  5.91 -0.81
Si -4.90 -5.89  0.83
Si  1.83  7.06  2.48
Si  6.93 -2.33 -2.48
Si  2.15 -1.15 -7.36
Si -2.18  1.17  7.38
Si -7.00  2.36  2.48
Si -3.99 -3.54 -5.72
Si  7.03  2.36  2.48
Si  3.96  3.56  5.73
Si -7.10 -2.33 -2.48
Si -3.05 -1.23  7.35
Si  3.11  1.11 -7.35
Si -6.10  4.66  2.46
Si  6.11 -4.73 -2.45
Si -5.61  1.21 -5.75
Si -0.12 -7.05 -4.06
Si  5.72 -1.17  5.68
Si -0.41 -3.50  7.35
Si  6.18  4.75 -2.44
Si -5.59  5.89 -0.87
Si -6.23 -4.69  2.48
Si  0.34 -5.86  5.73
Si  0.07  7.10  4.11
Si  5.70 -5.85  0.80
Si -0.37  5.88 -5.72
Si  3.40 -7.06  2.48
Si -1.23  3.48  7.35
Si  0.52  3.54 -7.42
Si  4.75 -3.52  5.75
Si -4.79  3.56 -5.70
Si -0.57 -8.21 -0.81
Si -3.47  7.09 -2.48
Si -1.40 -5.85 -5.70
Si  1.30 -3.60 -7.35
Si -7.92 -0.05  2.46
Si  7.92 -0.02 -2.45
Si  0.54  8.23  0.83
Si -1.18  8.17 -0.81
Si  1.65 -7.02  4.11
Si  3.54  7.09 -2.48
Si -3.61 -7.06  2.48
Si  7.47  3.54 -0.80
Si  1.82  7.01 -4.09
Si -7.51 -3.50  0.85
Si -1.70  7.07 -4.06
Si  1.36  5.89  5.75
Si -1.82 -7.08  4.10
Si -3.90  1.11 -7.35
Si  1.25 -8.29  0.80
Si -2.09  5.82  5.74
Si -7.01  2.31 -4.09
Si  3.97 -1.23  7.35
Si  7.02  2.31 -4.09
Si -2.26 -3.52 -7.34
Si  7.01 -2.38  4.10
Si -7.02 -2.38  4.10
Si  8.34  1.21  0.85
Si -8.37 -1.17 -0.80
Si  2.23  3.56  7.40
Si  2.16 -5.93 -5.74
Si -2.31 -8.20  0.85
Si  2.27  8.24 -0.80
Si  6.03 -4.68  4.06
Si -6.09  4.71 -4.07
Si  3.02 -3.54  7.38
Si -3.05  3.56 -7.36
Si -3.11 -5.88  5.68
Si -6.60 -1.14 -5.70
Si -2.89  8.27  0.80
Si  6.20  4.72  4.09
Si  3.00 -8.23 -0.87
Si  6.57  1.19  5.75
Si -6.19 -4.72 -4.13
Si -3.39  7.04  4.10
Si  7.84  0.03  4.06
Si  3.22  5.92 -5.75
Si  5.78  3.48 -5.74
Si -5.71 -3.60  5.74
Si  3.39 -7.11 -4.09
Si -7.91  0.00 -4.07
Si -4.86 -1.15 -7.36
Si  4.84  1.17  7.38
Si  6.69  5.83  0.80
Si  3.62  7.04  4.10
Si -6.62 -5.95 -0.81
Si -3.62 -7.11 -4.09
Si  8.26 -3.50 -0.81
Si -8.29  3.52  0.83
Si  5.12 -7.03 -2.48
Si  3.90 -5.88  5.68
Si -0.89  0.00  9.02
Si  0.82  0.03 -9.03
Si -3.80  5.92 -5.75
Si  3.96  3.56 -7.36
Si -3.99 -3.54  7.38
Si -5.19  7.06  2.48
Si  5.36  7.04  2.41
Si -5.35 -7.05 -2.46
Si -4.02 -8.23 -0.87
Si -9.15  1.13  0.80
Si  4.12  8.27  0.80
Si  0.01  2.31  9.00
Si -0.00 -2.38 -9.00
Si -5.61  1.21  7.35
Si -6.50  3.54  5.68
Si  9.22 -1.24 -0.81
Si  2.64 -0.02  8.96
Si  8.74 -2.37  2.41
Si -2.63  0.01 -9.00
Si -8.74  2.37 -2.46
Si  8.74  2.38 -2.48
Si -7.34  5.83  0.80
Si  0.34 -5.86 -7.36
Si  6.61 -3.50 -5.75
Si  4.75 -3.52 -7.34
Si  7.43 -1.14 -5.70
Si  7.80 -4.69  2.48
Si  5.72 -1.17 -7.42
Si -0.37  5.88  7.38
Si -8.81 -2.35  2.48
Si -1.74  2.40 -8.98
Si  1.81  2.33 -9.00
Si  1.69 -2.34  9.03
Si -7.85  4.75 -2.44
Si -1.81 -2.40  9.00
Si -7.47  1.19  5.75
Si  4.71 -8.20  0.85
Si -4.79  3.56  7.40
Si  1.36  5.89 -7.34
Si  7.93  4.66  2.46
Si -1.40 -5.85  7.40
Si  7.41 -5.95 -0.81
Si  4.93  5.82  5.74
Si -4.75  8.24 -0.80
Si -7.92 -4.73 -2.45
Si -4.86 -5.93 -5.74
Si -2.09  5.82 -7.35
Si -5.20  7.01 -4.09
Si  2.16 -5.93  7.35
Si  5.20 -7.08  4.10
Si  0.74 -9.37 -2.44
Si  5.32  7.07 -4.06
Si -5.37 -7.02  4.11
Si -1.03 -9.40  2.48
Si -0.79  9.43  2.48
Si  0.98  9.46 -2.44
Si  8.70 -2.34 -4.06
Si  3.46 -2.31 -8.98
Si -9.22 -3.52 -0.87
Si  5.62 -5.85 -5.70
Si  6.57  1.19 -7.34
Si  9.61  0.01  2.48
Si -3.55 -2.31 -8.98
Si -3.11 -5.88 -7.42
Si -9.66  0.04 -2.44
Si -8.76  2.40  4.11
Si  3.22  5.92  7.35
Si  3.50  2.37  9.03
Si -3.51  2.37  9.03
Si -4.38 -0.02  8.96
Si  5.78  3.48  7.35
Si -6.60 -1.14  7.40
Si -5.71 -3.60 -7.35
Si -5.65  5.89  5.75
Si  8.83  2.33  4.10
Si  4.39  0.01 -9.00
Si  9.33  3.56  0.80
Si  0.58  8.19 -5.74
Si -7.83  4.72  4.09
Si -8.82 -2.40 -4.09
Si -2.49  9.39 -2.45
Si -7.42 -3.50 -5.75
Si  7.84 -4.72 -4.13
Si  2.73  9.37  2.46
Si  5.83  8.17 -0.81
Si  7.53  3.54  5.68
Si  2.49 -9.46  2.46
Si  7.94  4.71 -4.07
Si  1.21 -8.24 -5.72
Si -0.51 -8.30  5.74
Si -2.72 -9.44 -2.45
Si -8.01 -4.68  4.06
Si -5.77 -8.29  0.80
Si -1.24  8.26  5.73
Si -8.31 -1.17  5.68
Si  0.82 -4.72  8.96
Si -3.80  5.92  7.35
Si 10.07  1.20 -0.81
Si  6.93 -7.08  2.41
Si -0.82  4.72 -9.00
Si -6.92  7.07 -2.46
Si -10.10 -1.18  0.83
Si -8.33 -5.85  0.80
Si -0.99 -4.68 -9.03
Si  0.92  4.71  9.02
Si  3.90 -5.88 -7.42
Si -2.22 -8.21 -5.75
Si  8.42  1.21 -5.75
Si  2.33  8.24  5.68
Si  0.76 -9.40  4.09
Si -0.75  9.40 -4.13
Si -7.10 -7.08  2.41
Si  7.11  7.07 -2.46
Si  1.00  9.43  4.09
Si  8.44  5.89 -0.87
Si -0.99 -9.43 -4.13
Si -2.57  4.69  8.96
Si  2.94 -8.23  5.75
Si  6.45 -8.21 -0.81
Si  2.57 -4.69 -9.00
Si -2.98  8.27 -5.70
Si -9.64  0.01  4.09
Si -6.50  3.54 -7.42
Si  6.61 -3.50  7.35
Si  9.65 -0.02 -4.13
Si -6.48  8.23  0.83
Si -2.70 -4.70  9.02
Si  2.64  4.73 -9.03
Si -7.47  1.19 -7.34
Si  7.43 -1.14  7.40
Si  2.50 -9.41 -4.07
Si  6.65  5.88 -5.72
Si -6.68 -5.86  5.73
Si -4.29  9.37  2.46
Si  4.93  5.82 -7.35
Si -2.57  9.44  4.06
Si -2.80 -9.39  4.06
Si  2.74  9.42 -4.07
Si -4.86 -5.93  7.35
Si -10.01  3.46 -0.81
Si  0.30 -10.60  0.83
Si -8.25  3.48 -5.74
Si  4.29 -9.44 -2.45
Si -5.21  2.33 -9.00
Si -0.33 10.62 -0.81
Si  6.89 -7.05 -4.06
Si  5.21 -2.40  9.00
Si  1.49 10.54  0.80
Si -0.90 -0.05 -10.64
Si  0.90 -0.02 10.64
Si  5.28  2.40 -8.98
Si  4.53  9.39 -2.45
Si 10.08 -3.58  0.80
Si  8.32 -3.60  5.74
Si -5.33 -2.34  9.03
Si -6.94  7.10  4.11
Si -4.53 -9.46  2.46
Si -1.42 -10.66 -0.81
Si  2.03 -10.58 -0.80
Si -7.14 -7.05 -4.06
Si  4.04  8.27 -5.70
Si -4.08 -8.23  5.75
Si  7.09  7.10  4.11
Si -2.07 10.62  0.85
Si -0.08 -2.33 10.61
Si  9.17 -1.15  5.73
Si  0.02  2.36 -10.62
Si -9.20  1.17 -5.72
Si  9.13 -5.89  0.83
Si  6.12  0.00  9.02
Si  9.57 -4.67 -2.44
Si  2.60  0.01 -10.61
Si -9.16  5.91 -0.81
Si -6.19  0.03 -9.03
Si  5.62 -5.85  7.40
Si -2.65  0.04 10.66
Si -5.65  5.89 -7.34
Si -9.62  4.72  2.48
Si  1.73  2.38 10.61
Si  7.35 -5.86  5.73
Si -10.49  2.34  2.41
Si -7.42 -3.50  7.35
Si  0.58  8.19  7.35
Si -1.80 -2.35 -10.62
Si 10.49 -2.34 -2.46
Si -1.72  2.37 10.64
Si -7.38  5.88 -5.72
Si 10.94 -1.18  0.83
Si -3.13 -10.56  0.80
Si  4.45  4.69  8.96
Si  4.31 -4.70  9.02
Si -4.69  8.24  5.68
Si  4.21 -9.39  4.06
Si -10.97  1.20 -0.81
Si  1.73 -2.37 -10.68
Si  9.73  4.68 -2.45
Si 10.56  2.34  2.41
Si -4.44 -4.69 -9.00
Si -10.55 -2.34 -2.46
Si -4.38  4.73 -9.03
Si -0.51 -8.30 -7.35
Si -9.73 -4.75  2.46
Si  4.79 -8.21 -5.75
Si  3.24 10.60 -0.87
Si -4.28  9.42 -4.07
Si  1.21 -8.24  7.38
Si -1.24  8.26 -7.36
Si  7.53  3.54 -7.42
Si  4.45  9.44  4.06
Si -8.31 -1.17 -7.42
Si -4.52 -9.41 -4.07
Si  7.55  8.23  0.83
Si -7.58 -8.21 -0.81
Si -2.22 -8.21  7.35
Si  8.42  1.21  7.35
Si  3.89 -10.56  0.80
Si -3.78 10.60 -0.87
Si  2.33  8.24 -7.42
Si  2.94 -8.23 -7.34
Si  5.98 -9.40  2.48
Si  9.24  3.56 -5.70
Si  9.59 -4.69  4.09
Si -8.68  7.04  2.41
Si  3.48 -2.34 10.64
Si -9.58  4.69 -4.13
Si  8.68 -7.05 -2.46
Si  0.07  7.10 -8.98
Si -3.54 -2.34 10.64
Si -0.12 -7.05  9.03
Si -9.28 -3.52  5.75
Si -3.47  2.34 -10.68
Si -6.04  9.46 -2.44
Si -2.98  8.27  7.40
Si  9.65  4.73  4.06
Si 10.48 -2.31  4.11
Si  3.54  2.34 -10.68
Si -4.42  0.01 -10.61
Si  1.65 -7.02 -8.98
Si  4.37  0.04 10.66
Si 10.52  2.37 -4.06
Si -10.53  2.37 -4.06
Si -6.68 -5.86 -7.36
Si -6.27 -9.37 -2.44
Si -9.72 -4.70 -4.07
Si  6.65  5.88  7.38
Si  1.82  7.01  9.00
Si  6.22  9.43  2.48
Si -10.97 -3.58  0.80
Si -10.57 -2.31  4.11
Si -8.25  3.48  7.35
Si  8.85  7.06  2.48
Si -5.81 -8.24 -5.72
Si -1.82 -7.08 -9.00
Si 11.04  3.46 -0.81
Si -1.70  7.07  9.03
Si  5.78  8.26  5.73
Si -8.20  8.17 -0.81
Si -8.91 -7.03 -2.48
Si  0.78 -4.69 -10.61
Si -7.01  2.31  9.00
Si 11.38  0.04 -2.44
Si  7.02  2.31  9.00
Si  0.91  4.66 -10.64
Si -10.06 -1.23 -5.74
Si  7.01 -2.38 -9.00
Si -7.02 -2.38 -9.00
Si  8.32 -3.60 -7.35
Si -0.91 -4.73 10.64
