500
set: 1066.00  0.00  0.00
Si -0.41  1.14 -0.83
Si  0.38 -1.22  0.84
Si  1.26  1.08  0.88
Si -1.31 -1.12 -0.80
Si -2.13  1.15  0.76
Si -0.82  0.15  2.44
Si  0.85 -0.03 -2.45
Si  2.18 -1.24 -0.82
Si  2.96  1.09 -0.74
Si  0.01 -2.35 -2.41
Si -3.12 -1.13  0.77
Si  0.08  2.50  2.40
Si -2.65  0.03 -2.45
Si  2.66 -0.05  2.47
Si -1.71 -2.15  2.40
Si  0.48  3.53 -0.80
Si -0.53 -3.57  0.88
Si -1.67  2.32 -2.45
Si  1.74 -2.34  2.41
Si  1.80  2.31 -2.41
Si  1.18 -3.56 -0.74
Si -1.34  3.52  0.77
Si  3.83 -1.13  0.77
Si  2.16  3.43  0.84
Si -0.81  0.17 -4.09
Si  0.91 -0.02  4.08
Si -3.99  1.09 -0.74
Si -2.20 -3.51 -0.83
Si -2.99  3.42 -0.82
Si -0.04 -2.35  4.04
Si  3.03 -3.50  0.76
Si  0.07  2.48 -4.05
Si -2.56 -0.00  4.04
Si -3.42  2.31  2.41
Si -3.46 -2.33 -2.45
Si  2.63 -0.01 -4.08
Si  3.53  2.31  2.41
Si  3.49 -2.33 -2.45
Si -1.72 -2.17 -4.05
Si  4.30  0.03 -2.45
Si -4.29 -0.05  2.47
Si  1.75  2.30  4.04
Si  1.77 -2.37 -4.02
Si -1.76  2.35  4.04
Si -4.77 -1.24 -0.82
Si  4.82  1.15  0.76
Si  3.96  3.42 -0.82
Si -3.92 -3.50  0.76
Si -0.87  4.68 -2.45
Si -0.93 -4.68 -2.45
Si  0.88 -4.70  2.47
Si  0.96  4.80  2.44
Si -3.40  2.28 -4.02
Si -2.61 -4.50  2.44
Si  0.37 -1.25 -5.61
Si  3.41 -2.30  4.04
Si -2.50  4.60  2.47
Si  2.51 -4.62 -2.45
Si  5.64 -1.12 -0.80
Si -0.42  1.20  5.68
Si  3.55  2.28 -4.02
Si -3.54 -2.30  4.04
Si -5.69  1.08  0.88
Si  2.64  4.63 -2.45
Si -0.35  5.80  0.76
Si  1.27  1.11 -5.65
Si -1.30 -1.18  5.66
Si -4.32 -0.01 -4.08
Si -4.79  3.43  0.84
Si  0.39 -5.89 -0.82
Si  4.39 -0.00  4.04
Si  4.75 -3.51 -0.83
Si  1.38  5.79 -0.83
Si -1.41 -5.87  0.84
Si -5.15  2.31 -2.41
Si  5.24 -2.15  2.40
Si  2.04 -5.78  0.77
Si -2.20  5.74 -0.74
Si -5.21 -2.34  2.41
Si -0.78  4.65  4.04
Si  2.07 -1.24  5.74
Si  0.85 -4.66 -4.08
Si -2.23  1.20 -5.72
Si -0.88 -4.67  4.08
Si  5.28  2.32 -2.45
Si  0.97  4.83 -4.09
Si  3.07  1.09  5.67
Si  3.04  5.73  0.88
Si -6.10 -0.03 -2.45
Si -3.03 -1.17 -5.73
Si  6.13  0.15  2.44
Si -2.60 -4.48 -4.09
Si -3.10 -5.78 -0.80
Si  0.48  3.47  5.66
Si  5.61  3.52  0.77
Si -2.53  4.64 -4.08
Si  2.60 -4.65  4.04
Si -0.52 -3.54 -5.65
Si  6.54  1.14 -0.83
Si  4.34 -4.50  2.44
Si  2.69  4.63  4.08
Si -6.57 -1.22  0.84
Si -4.31  4.63 -2.45
Si  1.28 -3.56  5.67
Si -1.24  3.48 -5.73
Si -5.77 -3.56 -0.74
Si -4.44 -4.62 -2.45
Si  4.45  4.60  2.47
Si  2.15  3.40 -5.61
Si -3.88  1.09  5.67
Si  5.23 -2.17 -4.05
Si -5.18 -2.37 -4.02
Si -5.20  2.30  4.04
Si  5.19  2.35  4.04
Si -3.91  5.73  0.88
Si  3.85 -5.78 -0.80
Si -2.20 -3.45  5.68
Si  3.92 -1.17 -5.73
Si -6.04 -0.02  4.08
Si  2.94 -3.45 -5.72
Si -3.10  3.41  5.74
Si  6.14  0.17 -4.09
Si -0.04 -6.99  2.41
Si  0.12  6.97 -2.45
Si -0.42  1.20 -7.29
Si  6.42 -3.57  0.88
Si -6.47  3.53 -0.80
Si  4.35 -4.48 -4.09
Si  7.33 -1.22  0.84
Si  0.37 -1.25  7.37
Si  4.75  5.74 -0.74
Si -7.36  1.14 -0.83
Si -4.26  4.63  4.08
Si  4.72  1.20 -5.72
Si  1.27  1.11  7.33
Si -1.30 -1.18 -7.32
Si -4.35 -4.65  4.04
Si -1.64  6.96  2.41
Si  1.71 -6.98 -2.45
Si  4.42  4.64 -4.08
Si -1.77 -7.00 -2.41
Si -4.91 -5.78  0.77
Si  2.07 -1.24 -7.23
Si -4.88 -1.24  5.74
Si -2.23  1.20  7.26
Si -6.87  2.50  2.40
Si -6.93 -2.35 -2.41
Si  3.85  3.41  5.74
Si  6.97 -2.35 -2.41
Si  1.86  7.15  2.40
Si -4.01 -3.45 -5.72
Si  7.03  2.50  2.40
Si -3.03 -1.17  7.25
Si  3.46 -6.80  2.40
Si  3.07  1.09 -7.31
Si  6.02 -4.68 -2.45
Si -3.49 -6.80  2.40
Si  6.08  4.68 -2.45
Si -5.99  4.80  2.44
Si -6.08 -4.70  2.47
Si  5.65 -1.18  5.66
Si -5.58  5.79 -0.83
Si  0.03  7.00  4.04
Si -5.68  1.11 -5.65
Si -0.02 -7.03 -4.02
Si -3.36  6.96 -2.41
Si  0.48  3.47 -7.32
Si  5.54 -5.87  0.84
Si -4.80  3.40 -5.61
Si -1.24  3.48  7.25
Si -7.78  0.15  2.44
Si -0.52 -3.54  7.33
Si -1.61  6.93 -4.02
Si  4.75 -3.45  5.68
Si  7.80 -0.03 -2.45
Si  3.59  6.96 -2.41
Si -0.44  5.85 -5.72
Si -1.20  8.07 -0.82
Si  1.62 -6.95  4.04
Si  0.45  8.17  0.77
Si  0.28 -5.89  5.74
Si  1.28 -3.56 -7.31
Si  7.43  3.53 -0.80
Si -1.42 -5.90 -5.61
Si -0.61 -8.21 -0.74
Si  1.37  5.85  5.68
Si  1.25 -8.15  0.76
Si -1.82 -7.00  4.04
Si  3.92 -1.17  7.25
Si  8.21  1.08  0.88
Si -7.48 -3.57  0.88
Si -2.10  5.74  5.67
Si  6.91 -2.35  4.04
Si -3.88  1.09 -7.31
Si -6.88  2.48 -4.05
Si -2.20 -3.45 -7.29
Si -8.26 -1.12 -0.80
Si  2.15  3.40  7.37
Si  1.85  7.13 -4.05
Si -6.99 -2.35  4.04
Si  2.14 -5.82 -5.73
Si  7.02  2.48 -4.05
Si  2.26  8.18 -0.80
Si  2.94 -3.45  7.26
Si -3.10  3.42 -7.23
Si -2.31 -8.22  0.88
Si  3.05  5.76 -5.65
Si  3.45 -6.83 -4.05
Si -3.00  8.08  0.84
Si -3.50 -6.83 -4.05
Si  6.07 -4.67  4.08
Si -3.09 -5.83  5.66
Si -6.10 -4.66 -4.08
Si -5.98  4.83 -4.09
Si  6.17  4.65  4.04
Si  2.97 -8.16 -0.83
Si -3.42  6.95  4.04
Si  4.72  1.20  7.26
Si -6.58 -1.25 -5.61
Si  6.53  1.20  5.68
Si -5.67 -3.56  5.67
Si -7.76  0.17 -4.09
Si  3.53  6.95  4.04
Si  5.71  3.48 -5.73
Si -4.88 -1.24 -7.23
Si  6.60  5.80  0.76
Si -6.56 -5.89 -0.82
Si  7.86 -0.02  4.08
Si  3.85  3.42 -7.23
Si  8.13 -3.56 -0.74
Si -0.81  0.17  8.88
Si  0.91 -0.02 -8.90
Si -3.90  5.76 -5.65
Si -4.01 -3.45  7.26
Si  3.86 -5.83  5.66
Si  5.18 -7.00 -2.41
Si  3.95  8.08  0.84
Si -8.29  3.52  0.77
Si -5.24 -6.98 -2.45
Si  5.31  6.96  2.41
Si -5.09  7.15  2.40
Si -3.98 -8.16 -0.83
Si -9.08  1.15  0.76
Si -8.66 -2.15  2.40
Si -0.04 -2.35 -8.94
Si  9.13 -1.24 -0.82
Si -8.62  2.32 -2.45
Si -6.47  3.47  5.66
Si  0.07  2.48  8.93
Si  6.43 -3.54 -5.65
Si  2.63 -0.01  8.90
Si -2.56 -0.00 -8.94
Si  7.32 -1.25 -5.61
Si  8.69 -2.34  2.41
Si  5.65 -1.18 -7.32
Si -0.44  5.85  7.26
Si  0.28 -5.89 -7.23
Si -5.68  1.11  7.33
Si -1.72 -2.17  8.93
Si -7.30  5.80  0.76
Si  4.75 -3.45 -7.29
Si  8.75  2.31 -2.41
Si -7.37  1.20  5.68
Si  1.75  2.30 -8.94
Si -1.76  2.35 -8.94
Si  4.86  5.74  5.67
Si -4.80  3.40  7.37
Si -7.82  4.68 -2.45
Si  1.77 -2.37  8.96
Si  7.34 -5.89 -0.82
Si  1.37  5.85 -7.29
Si  7.83 -4.70  2.47
Si -4.69  8.18 -0.80
Si -4.81 -5.82 -5.73
Si  4.64 -8.22  0.88
Si -7.88 -4.68 -2.45
Si -2.10  5.74 -7.31
Si  2.14 -5.82  7.25
Si -1.42 -5.90  7.37
Si  5.13 -7.00  4.04
Si  7.91  4.80  2.44
Si -0.72  9.25  2.47
Si  0.73 -9.28 -2.45
Si  5.34  6.93 -4.02
Si -5.33 -6.95  4.04
Si -5.10  7.13 -4.05
Si  0.92  9.33 -2.45
Si -0.91 -9.35  2.47
Si  9.11  3.43  0.84
Si  3.06  5.76  7.33
Si  2.56 -9.15  2.44
Si -8.67 -2.17 -4.05
Si -9.15 -3.51 -0.83
Si  3.40 -2.30 -8.94
Si  5.53 -5.90 -5.61
Si -3.40  2.28  8.96
Si -3.09 -5.83 -7.32
Si  5.71  3.48  7.25
Si  8.70  2.30  4.04
Si  6.53  1.20 -7.29
Si -7.73  4.65  4.04
Si -3.54 -2.30 -8.94
Si -5.58  5.85  5.68
Si -8.71  2.35  4.04
Si  8.72 -2.37 -4.02
Si -4.32 -0.01  8.90
Si  3.55  2.28  8.96
Si -9.60  0.03 -2.45
Si -5.67 -3.56 -7.31
Si -2.53  9.28 -2.45
Si  9.61 -0.05  2.47
Si  5.75  8.07 -0.82
Si  7.80 -4.66 -4.08
Si -6.58 -1.25  7.37
Si  4.39 -0.00 -8.94
Si  0.55  8.13 -5.73
Si  7.43  3.47  5.66
Si -5.70 -8.15  0.76
Si -7.83 -4.67  4.08
Si  1.15 -8.11 -5.72
Si -1.31  8.06  5.74
Si -0.50 -8.21  5.67
Si  9.91  1.09 -0.74
Si -7.47 -3.54 -5.65
Si -2.72 -9.33 -2.45
Si  8.22  1.11 -5.65
Si -6.83  6.97 -2.45
Si -8.25 -1.18  5.66
Si  0.85 -4.66  8.90
Si -0.88 -4.67 -8.90
Si -3.90  5.76  7.33
Si -0.78  4.65 -8.94
Si  6.91 -6.99  2.41
Si  3.86 -5.83 -7.32
Si  7.92  4.83 -4.09
Si  2.75  9.45  2.44
Si  2.27  8.12  5.66
Si  0.97  4.83  8.88
Si -10.07 -1.13  0.77
Si -0.75  9.29 -4.08
Si  0.82 -9.30  4.04
Si  8.33  5.79 -0.83
Si -7.00 -6.99  2.41
Si  1.01  9.30  4.04
Si -0.94 -9.31 -4.08
Si -2.30 -8.20 -5.65
Si  7.07  6.97 -2.45
Si -8.36 -5.87  0.84
Si -3.01  8.05 -5.61
Si -2.60 -4.48  8.88
Si  2.56 -9.13 -4.09
Si  2.96 -8.10  5.68
Si -9.51 -0.00  4.04
Si -2.53  4.64  8.90
Si -6.47  3.47 -7.32
Si  6.43 -3.54  7.33
Si  2.69  4.63 -8.90
Si  6.34 -8.21 -0.74
Si  2.60 -4.65 -8.94
Si  9.58 -0.01 -4.08
Si -0.42 10.39 -0.74
Si -7.37  1.20 -7.29
Si -2.47  9.28  4.08
Si -4.40 -9.15  2.44
Si  6.51  5.85 -5.72
Si  7.32 -1.25  7.37
Si  0.26 -10.43  0.77
Si -4.81 -5.82  7.25
Si -6.50  8.17  0.77
Si  4.86  5.74 -7.31
Si -2.66 -9.32  4.08
Si  4.23 -9.33 -2.45
Si -9.94  3.42 -0.82
Si  0.85 -0.03 10.53
Si  4.42  9.28 -2.45
Si -0.82  0.15 -10.54
Si  3.94  8.05 -5.61
Si  5.23 -2.17  8.93
Si  1.44 10.46  0.76
Si -8.19  3.48 -5.73
Si -6.67 -5.89  5.74
Si -5.20  2.30 -8.94
Si  5.19  2.35 -8.94
Si  9.98 -3.50  0.76
Si  8.23 -3.56  5.67
Si -5.18 -2.37  8.96
Si -4.20  9.45  2.44
Si -2.12 10.38  0.88
Si -6.92  7.00  4.04
Si  6.93 -7.03 -4.02
Si -1.39 -10.54 -0.82
Si  2.07 -10.43 -0.80
Si -3.99 -8.10  5.68
Si -6.97 -7.03 -4.02
Si  6.98  7.00  4.04
Si  2.76  9.48 -4.09
Si  8.99 -5.78  0.77
Si -6.04 -0.02 -8.90
Si  9.02 -1.24  5.74
Si  6.14  0.17  8.88
Si -9.46  4.60  2.47
Si  9.46 -4.62 -2.45
Si  0.02 -2.35 10.57
Si -9.15  5.74 -0.74
Si  2.66 -0.05 -10.51
Si -9.56 -4.50  2.44
Si -2.65  0.03 10.53
Si  4.35 -4.48  8.88
Si 10.78 -1.13  0.77
Si  0.08  2.50 -10.58
Si -9.18  1.20 -5.72
Si -5.58  5.85 -7.29
Si -4.26  4.63 -8.90
Si -10.38  2.31  2.41
Si  0.55  8.13  7.25
Si -1.67  2.32 10.53
Si -1.31  8.07 -7.23
Si -4.38 -9.13 -4.09
Si  9.59  4.63 -2.45
Si -1.71 -2.15 -10.58
Si  5.53 -5.90  7.37
Si  1.15 -8.11  7.26
Si -10.41 -2.33 -2.45
Si  3.16 10.45 -0.83
Si -4.68  8.12  5.66
Si  7.23 -5.89  5.74
Si  1.74 -2.34 -10.56
Si  1.80  2.31 10.57
Si  4.42  4.64  8.90
Si -4.35 -4.65 -8.94
Si 10.45 -2.33 -2.45
Si  4.65 -8.20 -5.65
Si  7.43  3.47 -7.32
Si 10.48  2.31  2.41
Si -0.50 -8.21 -7.31
Si -10.94  1.09 -0.74
Si -3.19 -10.52  0.84
Si -7.39  5.85 -5.72
Si  4.29 -9.32  4.08
Si -7.47 -3.54  7.33
Si  7.40  8.17  0.77
Si  8.22  1.11  7.33
Si  4.48  9.28  4.08
Si -8.25 -1.18 -7.32
Si -4.19  9.48 -4.09
Si -3.79 10.45 -0.83
Si  2.27  8.12 -7.32
Si -7.56 -8.21 -0.74
Si  3.76 -10.52  0.84
Si  9.10  3.40 -5.61
Si -2.30 -8.20  7.33
Si  2.96 -8.10 -7.29
Si -9.15 -3.45  5.68
Si -9.55 -4.48 -4.09
Si -9.48  4.64 -4.08
Si -8.59  6.96  2.41
Si -3.46 -2.33 10.53
Si -3.01  8.05  7.37
Si -10.35  2.28 -4.02
Si  3.50 -2.33 10.53
Si -3.42  2.31 -10.56
Si -4.29 -0.05 -10.51
Si 10.36 -2.30  4.04
Si  0.03  7.00 -8.94
Si  9.55 -4.65  4.04
Si  6.51  5.85  7.26
Si  4.30  0.03 10.53
Si  3.52  2.31 -10.56
Si -6.03  9.33 -2.45
Si -0.02 -7.03  8.96
Si  8.66 -6.98 -2.45
Si  5.64  8.06  5.74
Si  6.04 -9.35  2.47
Si  6.23  9.25  2.47
Si -6.22 -9.28 -2.45
Si  1.62 -6.95 -8.94
Si -8.72 -7.00 -2.41
Si -1.61  6.93  8.96
Si -10.87 -3.50  0.76
Si  9.64  4.63  4.08
Si 10.91  3.42 -0.82
Si -6.67 -5.89 -7.23
Si 10.50  2.28 -4.02
Si -8.19  3.48  7.25
Si -10.49 -2.30  4.04
Si  4.83 10.38  0.88
Si -5.80 -8.11 -5.72
Si -8.15  8.07 -0.82
Si -1.82 -7.00 -8.94
Si -11.24 -0.05  2.47
Si 11.25  0.03 -2.45
Si -4.88 -10.43 -0.80
Si  0.87 -4.70 -10.51
Si  6.91 -2.35 -8.94
Si -6.88  2.48  8.93
Si  9.99  5.73  0.88
Si -0.87  4.68 10.53
Si -0.93 -4.68 10.53
Si 10.02  1.09  5.67
Si -9.98 -1.17 -5.73
