500
set: 1358.00  0.00  0.00
Si  1.45 -1.65  0.10
Si -0.48 -1.61  1.46
Si  1.45 -0.28 -1.79
Si -2.42 -1.65  0.10
Si -2.42 -0.28 -1.79
Si  1.45  2.13 -1.73
Si -0.48 -0.24 -3.15
Si -0.49 -0.24  3.36
Si -2.42  2.13 -1.73
Si  1.45  3.50  0.17
Si -0.48  2.17 -3.09
Si -0.48  3.54  1.53
Si  3.39 -1.61  1.46
Si -0.48  2.17  3.42
Si -2.42  3.50  0.17
Si  1.45 -4.06  0.17
Si -0.49 -4.02  1.53
Si  3.39 -0.24 -3.15
Si -2.42 -4.06  0.17
Si  3.38 -0.24  3.36
Si -4.36 -1.61  1.46
Si  1.45 -0.28  4.72
Si  3.39  2.17 -3.09
Si  3.39  3.54  1.53
Si  3.39  2.17  3.42
Si -2.42 -0.28  4.72
Si -0.48 -1.61 -5.05
Si -4.35 -0.24 -3.15
Si  1.45  2.13  4.78
Si  3.38 -4.02  1.53
Si -4.36 -0.24  3.36
Si  5.32 -1.65  0.10
Si  5.32 -0.28 -1.79
Si -4.35  2.17 -3.09
Si -2.42  2.13  4.78
Si -4.36  3.54  1.53
Si  1.45 -5.43 -1.73
Si -4.36  2.17  3.42
Si  5.32  2.13 -1.73
Si  1.45  5.91  0.10
Si -4.36 -4.02  1.53
Si -0.48  3.55 -4.99
Si -0.48  5.95  1.46
Si -2.42 -5.43 -1.73
Si -0.48 -5.39 -3.09
Si  3.39 -1.61 -5.05
Si  5.32  3.50  0.17
Si -2.42  5.91  0.10
Si -0.49 -5.39  3.42
Si -0.48 -4.02 -4.99
Si -6.29 -1.65  0.10
Si -6.29 -0.28 -1.79
Si  5.32 -4.06  0.17
Si  1.46 -1.65 -6.42
Si -4.35 -1.61 -5.05
Si -6.29  2.13 -1.73
Si  1.45 -1.66  6.62
Si  3.39  3.55 -4.99
Si  3.39  5.95  1.46
Si -2.42 -1.65 -6.42
Si  3.39 -5.39 -3.09
Si  5.32 -0.28  4.72
Si -6.29  3.50  0.17
Si  3.38 -5.39  3.42
Si -2.42 -1.66  6.62
Si  3.39 -4.02 -4.99
Si  1.45 -5.43  4.78
Si  1.46  3.50 -6.35
Si  5.32  2.13  4.78
Si -6.29 -4.06  0.17
Si -4.35  3.55 -4.99
Si -4.35  5.95  1.46
Si  7.26 -1.61  1.46
Si -4.35 -5.39 -3.09
Si -2.42 -5.43  4.78
Si  1.45  7.28 -1.79
Si -2.41  3.50 -6.35
Si  1.46 -4.06 -6.35
Si  1.45  3.50  6.68
Si -4.36 -5.39  3.42
Si -4.35 -4.02 -4.99
Si  5.32 -5.43 -1.73
Si -0.48  5.96 -5.05
Si -6.29 -0.28  4.72
Si -2.42  7.28 -1.79
Si -2.42 -4.06 -6.35
Si  7.26 -0.24 -3.15
Si -2.42  3.50  6.68
Si  1.45 -4.07  6.68
Si  5.32  5.91  0.10
Si -0.48  7.32 -3.15
Si  7.26 -0.24  3.36
Si -0.48  7.32  3.36
Si -0.49 -1.61  7.98
Si  1.45 -7.84 -1.79
Si  7.26  2.17 -3.09
Si -6.29  2.13  4.78
Si -2.42 -4.07  6.68
Si  7.26  3.54  1.53
Si  7.26  2.17  3.42
Si -2.42 -7.84 -1.79
Si -0.48 -7.80 -3.15
Si  7.26 -4.02  1.53
Si  1.46 -0.28 -8.31
Si -6.29 -5.43 -1.73
Si  5.33 -1.65 -6.42
Si -8.23 -1.61  1.46
Si -0.49 -7.81  3.36
Si  3.39  5.96 -5.05
Si -6.29  5.91  0.10
Si  1.46  2.14 -8.25
Si  5.32 -1.66  6.62
Si -2.41 -0.28 -8.31
Si  3.39  7.32 -3.15
Si  3.39  7.32  3.36
Si  1.45  7.28  4.72
Si -0.49  3.54  8.05
Si -8.22 -0.24 -3.15
Si  3.38 -1.61  7.98
Si  1.46  5.92 -6.42
Si -2.41  2.14 -8.25
Si -8.23 -0.24  3.36
Si -4.35  5.96 -5.05
Si  5.32 -5.43  4.78
Si  1.45  5.91  6.62
Si  7.26 -1.61 -5.05
Si  5.33  3.50 -6.35
Si -2.42  7.28  4.72
Si -0.49 -4.03  8.05
Si -8.22  2.17 -3.09
Si -2.41  5.92 -6.42
Si  3.39 -7.80 -3.15
Si -4.35  7.32 -3.15
Si -8.23  3.54  1.53
Si -6.29 -1.65 -6.42
Si  3.38 -7.81  3.36
Si -4.36  7.32  3.36
Si -8.23  2.17  3.42
Si -2.42  5.91  6.62
Si  5.33  7.28 -1.79
Si  5.33 -4.06 -6.35
Si  5.32  3.50  6.68
Si -4.36 -1.61  7.98
Si  1.45 -7.85  4.72
Si -6.29 -1.66  6.62
Si -8.23 -4.02  1.53
Si -0.49 -9.17  1.46
Si  1.45 -9.21  0.10
Si  9.19 -1.65  0.10
Si  9.19 -0.28 -1.79
Si  3.38  3.54  8.05
Si  5.32 -4.07  6.68
Si -2.42 -7.85  4.72
Si -4.35 -7.80 -3.15
Si  7.26  3.55 -4.99
Si  7.26  5.95  1.46
Si -2.42 -9.21  0.10
Si -4.36 -7.81  3.36
Si  7.26 -5.39 -3.09
Si -6.29 -5.43  4.78
Si  9.19  2.13 -1.73
Si -6.29  3.50 -6.35
Si  3.38 -4.03  8.05
Si  5.32 -7.84 -1.79
Si  7.25 -5.39  3.42
Si  7.26 -4.02 -4.99
Si -0.48 -0.24 -9.67
Si -8.22 -1.61 -5.05
Si -6.29  7.28 -1.79
Si -4.36  3.54  8.05
Si -6.29 -4.06 -6.35
Si -6.29  3.50  6.68
Si  9.19  3.50  0.17
Si -0.48  2.18 -9.61
Si  5.33 -0.28 -8.31
Si  3.38 -9.17  1.46
Si -0.49 -0.25  9.88
Si  1.46  9.70 -1.73
Si -0.49  5.95  7.98
Si  1.46 -5.43 -8.25
Si -4.36 -4.03  8.05
Si -6.30 -4.07  6.68
Si  5.33  2.14 -8.25
Si  9.19 -4.06  0.17
Si -2.42  9.70 -1.73
Si -2.42 -5.43 -8.25
Si  5.32  7.28  4.72
Si -0.49  2.17  9.94
Si -6.29 -7.84 -1.79
Si  5.33  5.92 -6.42
Si -0.48  9.74 -3.09
Si -8.22  3.55 -4.99
Si  3.39 -0.24 -9.67
Si -8.22  5.95  1.46
Si -4.36 -9.17  1.46
Si -10.16 -1.65  0.10
Si -8.22 -5.39 -3.09
Si -10.16 -0.28 -1.79
Si -0.48  9.73  3.42
Si  9.19 -0.28  4.72
Si  5.32  5.91  6.62
Si -8.23 -5.39  3.42
Si  3.40  2.18 -9.61
Si -8.22 -4.02 -4.99
Si -6.29 -0.28 -8.31
Si  3.38 -0.25  9.88
Si -0.48 -9.17 -5.05
Si  3.38  5.95  7.98
Si -10.16  2.13 -1.73
Si  9.19  2.13  4.78
Si -6.29  2.14 -8.25
Si  5.32 -7.85  4.72
Si -4.35 -0.24 -9.67
Si  5.32 -9.21  0.10
Si  7.26  5.96 -5.05
Si -6.29  7.28  4.72
Si  3.38  2.17  9.94
Si -10.16  3.50  0.17
Si -6.28  5.92 -6.42
Si  3.39  9.74 -3.09
Si -4.35  2.18 -9.61
Si  7.26  7.32 -3.15
Si -4.36 -0.25  9.88
Si  9.19 -5.43 -1.73
Si  7.26  7.32  3.36
Si  3.39  9.73  3.42
Si -4.36  5.95  7.98
Si -6.29  5.91  6.62
Si  7.25 -1.61  7.98
Si  1.45  9.69  4.78
Si  9.19  5.91  0.10
Si -10.16 -4.06  0.17
Si  3.39 -9.17 -5.05
Si -0.48 -5.38 -9.61
Si -4.36  2.17  9.94
Si -2.42  9.69  4.78
Si -4.35  9.74 -3.09
Si -6.30 -7.85  4.72
Si  7.26 -7.80 -3.15
Si  1.46  7.29 -8.31
Si -6.29 -9.21  0.10
Si  1.45 11.06  0.17
Si  7.25 -7.81  3.36
Si  5.33  9.70 -1.73
Si -4.35  9.73  3.42
Si -10.16 -0.28  4.72
Si  5.33 -5.43 -8.25
Si -0.48 11.11  1.53
Si -2.41  7.29 -8.31
Si  1.45 -9.21 -6.42
Si -0.49 -5.40  9.94
Si -2.42 11.06  0.17
Si  1.44 -0.29 11.24
Si  9.20 -1.65 -6.42
Si 11.13 -1.61  1.46
Si -4.35 -9.17 -5.05
Si -8.22  5.96 -5.05
Si  7.25  3.54  8.05
Si -10.16  2.13  4.78
Si  1.45 -9.22  6.62
Si  9.19 -1.66  6.62
Si -8.22  7.32 -3.15
Si -2.42 -9.21 -6.42
Si -2.43 -0.29 11.24
Si -8.23  7.32  3.36
Si  1.46 -7.84 -8.31
Si  3.39 -5.38 -9.61
Si  7.25 -4.03  8.05
Si 11.13 -0.24 -3.15
Si -8.23 -1.61  7.98
Si  1.44  2.12 11.30
Si -2.43 -9.22  6.62
Si 11.13 -0.24  3.36
Si -10.16 -5.43 -1.73
Si -2.42 -7.84 -8.31
Si -6.29  9.70 -1.73
Si -0.48 -1.60 -11.57
Si -0.49 -11.59  1.53
Si  9.19 -5.43  4.78
Si -6.29 -5.43 -8.25
Si  3.39 11.11  1.53
Si  9.20  3.50 -6.35
Si  1.45 -11.63  0.17
Si -2.43  2.12 11.30
Si -10.16  5.91  0.10
Si 11.13  2.17 -3.09
Si -8.22 -7.80 -3.15
Si 11.13  3.54  1.53
Si  7.25 -9.17  1.46
Si  3.38 -5.40  9.94
Si -8.23 -7.81  3.36
Si 11.13  2.17  3.42
Si -4.35 -5.38 -9.61
Si  9.20  7.28 -1.79
Si -2.42 -11.63  0.17
Si  9.19  3.50  6.68
Si  9.20 -4.06 -6.35
Si 11.13 -4.02  1.53
Si -4.35 11.11  1.53
Si -8.23  3.54  8.05
Si -0.47  3.55 -11.50
Si  5.32  9.69  4.78
Si  9.19 -4.07  6.68
Si  7.26 -0.24 -9.67
Si -4.36 -5.40  9.94
Si -10.16 -1.65 -6.42
Si -0.47  7.33 -9.67
Si  3.40 -1.60 -11.57
Si  3.38 -11.59  1.53
Si -0.49 -9.18  7.98
Si -0.48 11.11 -4.99
Si -0.48 -4.01 -11.50
Si -8.23 -4.03  8.05
Si  9.19 -7.84 -1.79
Si -10.17 -1.66  6.62
Si  7.27  2.18 -9.61
Si  7.25 -0.25  9.88
Si  5.33  7.29 -8.31
Si  5.33 11.06  0.17
Si -12.10 -1.61  1.46
Si -0.49  7.32  9.88
Si  7.25  5.95  7.98
Si 11.13 -1.61 -5.05
Si  9.20 -0.28 -8.31
Si -8.23 -9.17  1.46
Si  5.32 -9.21 -6.42
Si -0.48 -7.80 -9.67
Si  5.31 -0.29 11.24
Si -4.35 -1.60 -11.57
Si -4.36 -11.59  1.53
Si -10.16  3.50 -6.35
Si -10.17 -5.43  4.78
Si  7.25  2.17  9.94
Si -12.09 -0.24 -3.15
Si  3.40  3.55 -11.50
Si -6.29  9.69  4.78
Si  5.32 -9.22  6.62
Si  7.26  9.74 -3.09
Si  9.20  2.14 -8.25
Si -12.10 -0.24  3.36
Si  3.40  7.33 -9.67
Si -0.49 -7.81  9.88
Si  5.33 -7.84 -8.31
Si  7.26  9.73  3.42
Si -0.48 -11.58 -4.99
Si  3.38 -9.18  7.98
Si  1.44 -5.44 11.30
Si -10.16  7.28 -1.79
Si  9.19  7.28  4.72
Si  3.39 11.11 -4.99
Si  3.39 -4.01 -11.50
Si -10.16 -4.06 -6.35
Si -10.16  3.50  6.68
Si  5.32  2.12 11.30
Si -12.09  2.17 -3.09
Si  9.20  5.92 -6.42
Si -8.22 -0.24 -9.67
Si -12.10  3.54  1.53
Si 11.13  3.55 -4.99
Si 11.13  5.95  1.46
Si -6.28  7.29 -8.31
Si -6.29 11.06  0.17
Si  7.26 -9.17 -5.05
Si 11.13 -5.39 -3.09
Si  3.38  7.32  9.88
Si -12.10  2.17  3.42
Si  9.19  5.91  6.62
Si -2.43 -5.44 11.30
Si  5.32 -11.63  0.17
Si -4.35  3.55 -11.50
Si  1.46  9.70 -8.25
Si -10.17 -4.07  6.68
Si 11.13 -5.39  3.42
Si -8.22  2.18 -9.61
Si -12.10 -4.02  1.53
Si 11.13 -4.02 -4.99
Si  1.46 11.07 -6.35
Si -8.23 -0.25  9.88
Si -6.29 -9.21 -6.42
Si  3.39 -7.80 -9.67
Si -6.30 -0.29 11.24
Si -4.35  7.33 -9.67
Si -8.23  5.95  7.98
Si -4.36 -9.18  7.98
Si -4.35 11.11 -4.99
Si -4.35 -4.01 -11.50
Si -2.41  9.70 -8.25
Si -10.16 -7.84 -1.79
Si  9.19 -7.85  4.72
Si -6.30 -9.22  6.62
Si -2.41 11.07 -6.35
Si  1.45 11.06  6.68
Si  9.19 -9.21  0.10
Si -0.47  5.96 -11.57
Si  3.38 -7.81  9.88
Si -6.29 -7.84 -8.31
Si -4.36  7.32  9.88
Si  3.39 -11.58 -4.99
Si -8.23  2.17  9.94
Si -6.30  2.12 11.30
Si -8.22  9.74 -3.09
Si  1.46 -1.64 -12.93
Si -10.16 -0.28 -8.31
Si -2.42 11.06  6.68
Si -4.35 -7.80 -9.67
Si 13.06 -1.65  0.10
Si  1.45 -12.99 -1.73
Si 13.06 -0.28 -1.79
Si  7.26 -5.38 -9.61
Si -8.22  9.73  3.42
Si -12.09 -1.61 -5.05
Si -6.29 -11.63  0.17
Si -10.16  2.14 -8.25
Si -2.41 -1.64 -12.93
Si  1.44 -1.66 13.13
Si -8.22 -9.17 -5.05
Si  1.45 -11.62 -6.35
Si -0.48 -12.95 -3.09
Si -4.36 -7.81  9.88
Si -2.42 -12.99 -1.73
Si -4.35 -11.58 -4.99
Si 13.06  2.13 -1.73
Si  7.26 11.11  1.53
Si -10.16  7.28  4.72
Si -10.15  5.92 -6.42
Si -0.49 -12.96  3.42
Si  1.46  3.51 -12.87
Si  7.25 -5.40  9.94
Si  3.40  5.96 -11.57
Si -2.43 -1.66 13.13
Si -2.42 -11.62 -6.35
Si  1.45  7.28 11.24
Si  9.20  9.70 -1.73
Si -10.16  5.91  6.62
Si  1.44 -11.63  6.68
Si  9.20 -5.43 -8.25
Si 13.06  3.50  0.17
Si -2.41  3.51 -12.87
Si -12.09  3.55 -4.99
Si  1.46 13.47  0.10
Si -12.10  5.95  1.46
Si  1.46 -4.05 -12.87
Si -12.10 -5.39 -3.09
Si 11.13  5.96 -5.05
Si -0.48 13.52  1.46
Si -2.42  7.28 11.24
Si  5.31 -5.44 11.30
Si -2.43 -11.63  6.68
Si 13.06 -4.06  0.17
Si -12.10 -5.39  3.42
Si -10.17 -7.85  4.72
Si -12.09 -4.02 -4.99
Si -2.42 13.47  0.10
Si -0.47  9.74 -9.61
Si 11.13  7.32 -3.15
Si -2.41 -4.05 -12.87
Si -0.49 11.10  8.05
Si -10.16 -9.21  0.10
Si -4.34  5.96 -11.57
Si  1.44  3.49 13.20
Si 11.13  7.32  3.36
Si  3.39 -12.95 -3.09
Si -8.22 -5.38 -9.61
Si  7.25 -11.59  1.53
Si  7.26 -1.60 -11.57
Si 11.12 -1.61  7.98
Si  1.44 -7.85 11.24
Si  5.33  9.70 -8.25
Si  3.38 -12.96  3.42
Si  5.33 11.07 -6.35
Si -2.43  3.49 13.20
Si  1.44 -4.07 13.20
Si 13.06 -0.28  4.72
Si -8.22 11.11  1.53
Si -0.49  9.73  9.94
Si -2.43 -7.85 11.24
Si  1.44 -13.00  4.78
Si 11.13 -7.80 -3.15
Si  5.32 11.06  6.68
Si -8.23 -5.40  9.94
Si 11.12 -7.81  3.36
Si -4.36 -12.95 -3.09
Si  3.39 13.52  1.46
Si -2.43 -4.07 13.20
Si -6.30 -5.44 11.30
Si  7.27  3.55 -11.50
Si -2.43 -13.00  4.78
Si 13.06  2.13  4.78
Si  5.33 -1.64 -12.93
Si -4.36 -12.96  3.42
Si  3.40  9.74 -9.61
Si -0.49 -11.59  8.05
Si  3.38 11.10  8.05
Si -14.03 -1.65  0.10
Si  7.27  7.33 -9.67
Si  5.32 -12.99 -1.73
Si -14.03 -0.28 -1.79
Si -10.16  9.70 -1.73
Si  7.25 -9.18  7.98
Si -10.16 -5.43 -8.25
