500
set: 1397.00  0.00  0.00
Si  1.06  0.00 -0.00
Si  0.48 -1.50  1.20
Si -0.67  1.50 -1.20
Si  0.06 -1.82 -1.20
Si -0.25  1.81  1.20
Si  0.60 -0.33 -2.40
Si -2.76  0.00 -0.00
Si  1.48  0.33  2.40
Si  0.34  3.32 -0.00
Si -2.34  0.33  2.41
Si  3.15  1.50 -1.20
Si  1.78 -3.31 -0.00
Si -0.12  2.99 -2.40
Si -3.33 -1.50  1.20
Si -2.04 -3.31 -0.00
Si  0.93 -1.17  3.61
Si -1.11  1.16 -3.61
Si -3.21 -0.33 -2.40
Si -1.62 -2.99  2.41
Si  3.57  1.82  1.20
Si  0.20  2.15  3.61
Si -0.39 -2.16 -3.61
Si -3.76 -1.82 -1.20
Si  2.20 -2.99  2.40
Si  0.76  3.65  2.40
Si  3.87 -1.82 -1.20
Si  1.32 -3.65 -2.40
Si -4.05  1.82  1.20
Si  2.69  1.16 -3.61
Si  4.29 -1.50  1.20
Si -2.88 -1.16  3.61
Si -3.48  3.32 -0.00
Si  0.18 -0.65 -4.81
Si  4.87  0.00 -0.00
Si -4.48  1.50 -1.20
Si -2.49 -3.65 -2.40
Si  4.42 -0.33 -2.40
Si  1.20 -4.82  1.20
Si -1.39  4.82 -1.20
Si -1.88  0.66  4.81
Si  1.93  0.66  4.81
Si  4.15  3.32 -0.00
Si  3.70  2.99 -2.40
Si  0.78 -5.14 -1.20
Si -3.06  3.65  2.41
Si -0.97  5.13  1.20
Si  3.42 -2.16 -3.61
Si -3.93  2.99 -2.40
Si  2.42  4.82 -1.20
Si -0.54  2.67 -4.81
Si -3.61  2.16  3.61
Si -2.61 -4.82  1.20
Si -1.16 -2.66  4.81
Si  5.29  0.33  2.41
Si  4.02  2.16  3.61
Si -4.21 -2.16 -3.61
Si  1.65 -4.48  3.61
Si  2.85  5.14  1.20
Si -1.84  4.48 -3.61
Si -3.63 -0.65 -4.81
Si  4.74 -1.16  3.61
Si  1.97  4.48 -3.61
Si -3.04 -5.14 -1.20
Si  2.65 -2.66  4.81
Si -2.16 -4.48  3.61
Si  1.35 -0.84  6.01
Si -4.93  1.16 -3.61
Si -1.54  0.84 -6.01
Si  4.00 -0.65 -4.81
Si  0.90 -3.97 -4.81
Si  4.57  3.65  2.41
Si  1.21  3.98  4.81
Si  3.28  2.67 -4.81
Si  2.27  0.84 -6.01
Si  5.59 -3.31 -0.00
Si  0.63  2.48  6.01
Si -2.46 -0.85  6.01
Si -0.82 -2.48 -6.01
Si -6.57  0.00 -0.00
Si  0.33 -5.48 -3.61
Si -0.52  5.47  3.61
Si -6.15  0.33  2.40
Si -5.43 -2.99  2.40
Si -0.38  6.64 -0.00
Si -5.84 -3.31 -0.00
Si  5.14 -3.65 -2.40
Si -2.60  3.98  4.81
Si -1.32 -6.63 -0.00
Si -0.84  6.31 -2.40
Si -0.90 -6.31  2.41
Si -2.90 -3.97 -4.81
Si  4.59 -5.14 -1.20
Si -4.35  2.67 -4.81
Si  5.01 -4.82  1.20
Si  2.50 -6.63 -0.00
Si -4.78  5.14  1.20
Si  6.01 -2.99  2.41
Si  3.00 -2.48 -6.01
Si -5.20  4.82 -1.20
Si  6.96  1.50 -1.20
Si -3.19  2.47  6.01
Si -0.27 -0.99 -7.21
Si  3.30  5.47  3.61
Si  2.92 -6.31  2.40
Si  0.03  6.97  2.40
Si  2.98  6.31 -2.40
Si -7.15 -1.50  1.20
Si -4.98 -2.66  4.81
Si -1.46  0.99  7.21
Si -3.49 -5.48 -3.61
Si -7.03 -0.33 -2.40
Si  1.55  4.16 -6.01
Si  3.43  6.64 -0.00
Si -5.70  0.66  4.81
Si -1.74 -4.17  6.01
Si  5.75  0.66  4.81
Si  6.51  1.16 -3.61
Si -1.77 -6.97 -2.40
Si  2.07 -4.16  6.01
Si -0.74 -2.33  7.21
Si  2.04 -6.96 -2.40
Si -0.99  2.33 -7.21
Si -2.26  4.16 -6.01
Si  2.35  0.99  7.22
Si -6.31 -3.65 -2.40
Si -0.44 -5.98  4.81
Si  7.38  1.81  1.20
Si -6.70 -1.17  3.61
Si  4.14 -5.48 -3.61
Si -1.26  5.98 -4.81
Si  4.72 -3.97 -4.81
Si -4.33  5.47  3.61
Si -4.20  6.64 -0.00
Si  4.44  2.47  6.01
Si -7.57 -1.82 -1.20
Si  5.46 -4.48  3.61
Si  5.16 -0.85  6.01
Si  6.24  4.82 -1.20
Si -4.63 -2.48 -6.01
Si  7.68 -1.82 -1.20
Si -7.29  3.32 -0.00
Si  5.03  3.98  4.81
Si -5.65  4.48 -3.61
Si  2.82  2.33 -7.21
Si -5.35  0.84 -6.01
Si  2.56  5.98 -4.81
Si  3.54 -0.98 -7.21
Si -6.43 -4.82  1.20
Si -6.87  3.65  2.40
Si  5.79  4.48 -3.61
Si -7.87  1.81  1.20
Si  3.07 -2.33  7.22
Si -4.65  6.31 -2.40
Si -4.71 -6.31  2.40
Si -3.78  6.97  2.41
Si -5.98 -4.48  3.61
Si  3.84  6.97  2.41
Si  8.10 -1.50  1.20
Si -0.09  5.79  6.01
Si -4.09 -0.98 -7.21
Si -0.10 -5.80 -6.01
Si  7.24 -2.16 -3.61
Si  3.37 -5.98  4.81
Si -5.12 -6.63 -0.00
Si  1.70  8.13 -1.20
Si  0.45 -4.30 -7.21
Si  7.50  2.99 -2.40
Si -1.89 -8.14  1.20
Si  1.92 -8.14  1.20
Si  6.47 -2.66  4.81
Si -2.11  8.14 -1.20
Si  6.66  5.13  1.20
Si -8.29  1.50 -1.20
Si -7.42  2.15  3.61
Si  1.62  4.31  7.22
Si  8.23 -0.33 -2.40
Si  6.09  0.84 -6.01
Si  1.80 -0.51  8.42
Si  1.83  0.50 -8.42
Si  7.97  3.32 -0.00
Si -6.85 -5.14 -1.20
Si -7.75  2.99 -2.40
Si -1.99  0.50 -8.42
Si  1.50 -8.46 -1.20
Si -2.01 -0.51  8.42
Si -2.19  4.30  7.21
Si  1.25  7.79 -3.61
Si  8.69  0.00 -0.00
Si -1.69  8.45  1.20
Si -1.44 -7.80  3.61
Si -6.28 -0.84  6.01
Si  0.49  7.30  4.81
Si -4.26 -5.98  4.81
Si  2.13  8.46  1.20
Si -4.56 -2.33  7.22
Si -2.32 -8.46 -1.20
Si  1.62 -7.29 -4.81
Si -7.45 -0.65 -4.81
Si  7.83  2.15  3.61
Si  2.37 -7.80  3.61
Si  1.08  2.81  8.42
Si -6.42  3.98  4.81
Si -2.56  7.80 -3.61
Si -1.27 -2.82 -8.42
Si  7.09  2.67 -4.81
Si -4.81  2.33 -7.21
Si -5.28  0.99  7.22
Si -2.18 -7.29 -4.81
Si -3.37 -4.30 -7.21
Si -8.02 -2.16 -3.61
Si  5.37  4.16 -6.01
Si  3.72  5.79  6.01
Si  3.72 -5.79 -6.01
Si  6.31 -6.63 -0.00
Si -0.02 -5.65  7.21
Si -6.72 -3.97 -4.81
Si -5.55 -4.16  6.01
Si  7.81 -0.65 -4.81
Si -5.07  5.98 -4.81
Si -3.91  5.79  6.01
Si -3.91 -5.79 -6.01
Si  2.55 -2.81 -8.42
Si -5.59 -6.96 -2.40
Si -2.74  2.81  8.42
Si  1.10  3.82 -8.42
Si -1.71  5.65 -7.21
Si -1.29 -3.83  8.42
Si -3.32  7.30  4.81
Si  8.55 -1.17  3.61
Si  5.88 -4.17  6.01
Si  2.10  5.65 -7.21
Si  6.81 -2.48 -6.01
Si  5.86 -6.97 -2.40
Si  4.26 -4.30 -7.21
Si  9.10  0.33  2.40
Si  8.38  3.65  2.40
Si -6.07  4.16 -6.01
Si -8.74  1.16 -3.61
Si  6.73 -6.31  2.41
Si  6.16  0.99  7.21
Si -7.00  2.48  6.01
Si  1.05 -8.79 -3.61
Si  6.78  6.31 -2.40
Si -1.24  8.79  3.61
Si  2.52 -3.82  8.42
Si  0.83  7.48 -6.01
Si -2.71  3.82 -8.42
Si -1.02 -7.48  6.01
Si  7.11  5.47  3.61
Si -0.69 -1.31 -9.62
Si  4.31  7.30  4.81
Si -1.01  1.32  9.62
Si -7.30 -5.48 -3.61
Si -0.29 -2.00  9.62
Si  7.25  6.64 -0.00
Si -8.17  2.67 -4.81
Si  2.58  8.79  3.61
Si  5.52  8.14 -1.20
Si -2.77 -8.80 -3.61
Si  3.79 -5.65  7.22
Si  8.40 -5.14 -1.20
Si -0.18 -9.63  2.41
Si -1.41  2.01 -9.62
Si -3.84 -5.65  7.22
Si  8.95 -3.65 -2.40
Si -0.59 -9.95 -0.00
Si  6.37  5.98 -4.81
Si  9.41 -3.31 -0.00
Si  5.07  7.80 -3.61
Si  2.80 -7.48  6.01
Si  5.44  4.30  7.21
Si -9.25 -2.99  2.41
Si -5.71 -8.14  1.20
Si -1.10  9.96 -0.00
Si  5.74 -8.14  1.20
Si -2.98  7.48 -6.01
Si -1.56  9.63 -2.40
Si  5.31 -8.46 -1.20
Si  6.64  2.33 -7.21
Si -5.26 -7.80  3.61
Si -8.60  5.13  1.20
Si  2.81  1.32  9.62
Si  2.40  2.01 -9.62
Si  8.82 -4.82  1.20
Si  5.61 -0.51  8.42
Si -5.92  8.13 -1.20
Si  4.89  2.81  8.42
Si  5.64  0.50 -8.42
Si -5.50  8.46  1.20
Si  2.25  9.63 -2.40
Si  3.12 -1.31 -9.62
Si -9.66 -3.31 -0.00
Si -5.08 -2.81 -8.42
Si -5.80  0.50 -8.42
Si  6.88 -2.33  7.21
Si -5.83 -0.51  8.42
Si -9.97  0.33  2.41
Si -9.02  4.82 -1.20
Si  5.44 -7.29 -4.81
Si  7.96 -5.48 -3.61
Si  2.71  9.96 -0.00
Si -6.00  4.31  7.22
Si  7.36 -0.99 -7.21
Si -8.79 -2.66  4.81
Si -10.39  0.00 -0.00
Si  5.94  8.45  1.20
Si -8.01  6.64 -0.00
Si  0.36  6.13  8.42
Si -0.55 -6.14 -8.42
Si  3.53 -2.00  9.62
Si -8.14  5.47  3.61
Si  3.23 -9.95 -0.00
Si  0.28 -9.29  4.81
Si  4.92  3.82 -8.42
Si  8.26  2.48  6.01
Si -6.13 -8.46 -1.20
Si  7.19 -5.98  4.81
Si  0.90  7.62  7.22
Si  9.82 -2.99  2.40
Si  1.17 -7.62 -7.21
Si -5.11 -3.82  8.42
Si  8.53 -3.97 -4.81
Si  3.64 -9.63  2.40
Si -7.59  6.97  2.40
Si -0.69 10.28  2.40
Si  6.18 -7.80  3.61
Si -6.00 -7.29 -4.81
Si -1.05 -10.29 -2.40
Si  7.66  6.97  2.40
Si  1.84  9.30 -4.81
Si -4.10 -2.00  9.62
Si  4.64  7.48 -6.01
Si -1.98  9.30 -4.81
Si -8.45 -2.48 -6.01
Si -9.51  0.66  4.81
Si  0.04 -4.63 -9.62
Si  4.86 -8.80 -3.61
Si -3.99 -9.63  2.40
Si -6.38  7.79 -3.61
Si -5.53  5.65 -7.21
Si -4.50 -1.31 -9.62
Si  9.56  0.66  4.81
Si -4.83 -7.48  6.01
Si -7.90 -0.99 -7.21
Si -5.05  8.79  3.61
Si -1.73  4.64  9.62
Si  8.84  3.98  4.81
Si -2.65 -7.62 -7.21
Si -8.47  6.31 -2.40
Si  8.98 -0.84  6.01
Si -4.82  1.32  9.62
Si -8.53 -6.31  2.41
Si  2.09  4.64  9.62
Si -4.40 -9.95 -0.00
Si -2.91  7.62  7.21
Si  5.92  5.65 -7.21
Si  1.40  0.18 -10.82
Si  2.76 -10.28 -2.40
Si  9.28 -4.48  3.61
Si  3.27 -6.13 -8.42
Si  6.36 -2.82 -8.42
Si -1.59 -0.19 10.82
Si  0.62 -9.12 -6.01
Si 10.77  1.50 -1.20
Si -0.81  9.11  6.01
Si -3.46  6.13  8.42
Si -9.17  0.84 -6.01
Si 10.32  1.16 -3.61
Si  0.43 -5.32  9.62
Si  3.12 10.29  2.41
Si -10.12 -3.65 -2.40
Si -6.55  2.81  8.42
Si -3.54 -9.29  4.81
Si  2.22 -0.19 10.82
Si  0.38  7.14 -8.42
Si -7.18 -4.30 -7.21
Si -0.57 -7.14  8.42
Si -9.46  4.48 -3.61
Si -2.41  0.18 -10.82
Si -10.84 -0.33 -2.40
Si -4.92  9.96 -0.00
Si  1.68  5.33 -9.62
Si -10.96 -1.50  1.20
Si -8.06 -5.98  4.81
Si -5.23  2.01 -9.62
Si -8.94 -6.63 -0.00
Si -10.51 -1.16  3.61
Si  9.60  4.48 -3.61
Si -2.13  5.33 -9.62
Si  6.33 -3.83  8.42
Si 10.05  4.82 -1.20
Si  4.17  6.13  8.42
Si  4.09 -9.29  4.81
Si  7.53 -5.80 -6.01
Si  7.54  5.79  6.01
Si -5.38  9.63 -2.40
Si -7.14  7.30  4.81
Si -4.36 -6.13 -8.42
Si -8.37 -2.33  7.21
Si -6.52  3.82 -8.42
Si  3.00  9.11  6.01
Si -3.78 -4.63 -9.62
Si  3.84 -4.63 -9.62
Si -9.79 -4.48  3.61
Si  1.50  3.13 10.82
Si -7.72  5.79  6.01
Si -3.19 -9.11 -6.01
Si -7.73 -5.80 -6.01
Si -10.24 -4.82  1.20
Si -1.69 -3.13 -10.82
Si  0.68  3.50 -10.82
Si -0.87 -3.50 10.82
Si 11.20  1.82  1.20
Si  6.39  8.79  3.61
Si  2.12 -3.14 -10.82
Si -8.62  2.33 -7.21
Si -4.51 10.29  2.41
Si -2.31  3.13 10.82
Si -3.38 -5.32  9.62
Si  4.72  7.62  7.21
Si  3.24 -7.14  8.42
Si  0.70 -8.97  7.21
Si -10.69  3.65  2.41
Si  0.98 11.45 -1.20
Si -3.43  7.14 -8.42
Si -6.58 -8.79 -3.61
Si -1.17 -11.46  1.20
Si  1.38  8.97 -7.21
Si -11.11  3.32 -0.00
Si -11.39 -1.82 -1.20
Si  9.90  0.84 -6.01
Si  4.98 -7.62 -7.21
Si -4.87 -10.28 -2.40
Si  6.06  9.63 -2.40
Si  6.22  2.01 -9.62
Si -9.09  0.99  7.21
Si  6.61 -7.48  6.01
Si 10.28 -2.66  4.81
Si  8.08 -4.30 -7.21
Si -0.23 10.62  4.81
Si  0.53 11.11 -3.61
Si 11.49 -1.82 -1.20
Si -0.72 -11.12  3.61
Si 10.48  5.14  1.20
Si  9.18  4.16 -6.01
Si -1.46 -10.61 -4.81
Si -8.89  5.98 -4.81
Si  6.62  1.32  9.62
Si  2.94 -3.51 10.82
Si -6.79  7.48 -6.01
Si -2.43  8.97 -7.21
Si -10.09 -0.85  6.01
Si  4.44 -9.11 -6.01
Si  4.25 -5.32  9.62
Si -3.13  3.50 -10.82
Si  4.19  7.14 -8.42
Si 11.04 -2.16 -3.61
Si  2.64 -11.46  1.20
Si -4.63  9.11  6.01
Si -2.83 11.46 -1.20
Si -4.38 -7.14  8.42
Si  2.35 -10.61 -4.81
Si -11.68  1.82  1.20
Si -9.37 -4.17  6.01
Si  5.65  9.30 -4.81
Si -10.67 -5.14 -1.20
Si  6.53  9.96 -0.00
Si  7.61 -5.65  7.21
Si  1.41 11.77  1.20
Si  8.11  7.30  4.81
Si -3.12 -8.97  7.22
Si  6.94 -1.31 -9.62
Si -7.65 -5.65  7.21
Si -9.40 -6.97 -2.40
Si -1.60 -11.78 -1.20
Si 11.32  2.99 -2.40
Si -5.79  9.30 -4.81
Si -10.23  3.98  4.81
Si -11.23  2.16  3.61
Si  5.22  0.18 -10.82
Si -5.54  4.64  9.62
Si  2.22 -11.78 -1.20
Si -2.41 11.77  1.20
Si 11.92 -1.50  1.20
Si  3.09 -11.12  3.61
Si -5.41 -0.19 10.82
Si 10.13 -6.63 -0.00
Si -3.28 11.12 -3.61
Si  0.13 -1.67 12.03
Si  9.70 -4.16  6.01
Si -0.59  1.65 12.03
Si  9.67 -6.96 -2.40
Si -11.56  2.99 -2.40
Si  7.03 -9.95 -0.00
Si -1.15 -1.64 -12.02
Si  3.58 10.62  4.81
Si  5.89  4.64  9.62
Si 10.91  2.67 -4.81
Si  4.50  3.50 -10.82
Si 11.78  3.32 -0.00
