500
set: 1488.00  0.00  0.00
Si -1.26  1.11  0.07
Si  1.12  1.29  0.78
Si -1.20 -1.49  0.07
Si  1.18 -1.31  0.78
Si  2.82 -0.39 -0.54
Si  1.48 -0.52 -2.64
Si -2.90  0.19  1.40
Si -2.59  0.99 -2.03
Si -0.89 -0.69 -3.35
Si  2.75  2.23 -0.53
Si -2.52 -1.63 -2.04
Si  1.42  2.08 -2.64
Si -1.56  0.32  3.50
Si -1.31  3.74  0.07
Si -2.82 -2.42  1.39
Si -0.95  1.91 -3.35
Si  2.52 -1.19  2.88
Si  2.45  1.43  2.90
Si  1.06  3.92  0.78
Si  2.87 -3.00 -0.53
Si  1.24 -3.94  0.78
Si -1.14 -4.12  0.07
Si -2.94  2.81  1.39
Si  0.82  0.49  4.21
Si  1.54 -3.15 -2.64
Si -1.50 -2.28  3.50
Si -4.67 -0.39 -0.54
Si  0.88 -2.11  4.21
Si -0.83 -3.32 -3.35
Si  4.59  0.19  1.40
Si -1.62  2.95  3.50
Si -2.64  3.60 -2.04
Si  3.12  0.40 -3.97
Si -4.74  2.23 -0.53
Si  0.76  3.12  4.21
Si -2.47 -4.24 -2.03
Si  4.89  0.99 -2.03
Si  2.56 -3.80  2.90
Si  4.67 -2.42  1.39
Si  2.40  4.04  2.88
Si  4.54  2.81  1.39
Si  3.17 -2.21 -3.96
Si -4.62 -3.00 -0.53
Si  2.70  4.84 -0.54
Si  1.36  4.71 -2.64
Si  4.97 -1.63 -2.04
Si -1.01  4.54 -3.35
Si -3.20 -0.60  4.82
Si  3.05  3.02 -3.96
Si -4.97 -1.19  2.88
Si -4.36  0.40 -3.97
Si -2.78 -5.04  1.40
Si -2.21 -0.83 -5.46
Si -5.04  1.43  2.90
Si -3.24  2.01  4.82
Si -2.29  1.78 -5.46
Si -1.44 -4.91  3.50
Si -4.32 -2.21 -3.96
Si  6.23  1.11  0.07
Si  1.78  0.28 -6.07
Si -3.02  5.42  1.40
Si  2.94 -5.62 -0.54
Si  4.85  3.60 -2.04
Si  0.94 -4.74  4.21
Si  6.29 -1.49  0.07
Si  4.29 -0.60  4.82
Si -6.31 -1.31  0.78
Si -1.38  6.34  0.07
Si  1.60 -5.75 -2.64
Si -6.37  1.29  0.78
Si -3.12 -3.22  4.82
Si -6.00 -0.52 -2.64
Si  1.00  6.52  0.78
Si -4.43  3.02 -3.96
Si  2.14  0.64  6.32
Si  1.30 -6.54  0.78
Si  4.24  2.01  4.82
Si  1.84 -2.35 -6.07
Si -1.68  5.55  3.50
Si -1.08 -6.72  0.07
Si -0.59  0.10 -6.78
Si -2.17 -3.45 -5.46
Si -4.79  4.84 -0.54
Si -0.77 -5.92 -3.35
Si -4.92 -3.80  2.90
Si  5.01 -4.24 -2.03
Si  5.93  0.32  3.50
Si  1.72  2.87 -6.07
Si -6.06  2.08 -2.64
Si  2.21 -1.98  6.31
Si  4.71 -5.04  1.40
Si  3.24 -4.83 -3.97
Si -2.71  6.22 -2.03
Si -5.09  4.04  2.88
Si  0.70  5.72  4.21
Si  4.47  5.42  1.40
Si -1.86 -0.48  6.93
Si  6.17  3.74  0.07
Si -5.94 -3.15 -2.64
Si -4.55 -5.62 -0.54
Si  4.36 -3.22  4.82
Si -0.53 -2.53 -6.78
Si  5.99 -2.28  3.50
Si -0.65  2.70 -6.78
Si -2.33  4.40 -5.46
Si  2.10  3.25  6.31
Si  6.59 -0.69 -3.35
Si -6.25 -3.94  0.78
Si  5.87  2.95  3.50
Si -3.32  4.63  4.82
Si -1.92  2.15  6.92
Si  2.64 -6.42  2.88
Si  3.00  5.63 -3.97
Si -2.40 -6.86 -2.04
Si -4.24 -4.83 -3.97
Si -6.43  3.92  0.78
Si  6.35 -4.12  0.07
Si  6.53  1.91 -3.35
Si  2.33  6.66  2.90
Si  5.27 -0.83 -5.46
Si  0.51 -0.30  7.63
Si  5.19  1.78 -5.46
Si -1.80 -3.08  6.92
Si  4.17  4.63  4.82
Si  1.30  7.31 -2.64
Si -6.67  0.49  4.21
Si  2.63  7.46 -0.53
Si -1.07  7.14 -3.35
Si  0.46  2.33  7.63
Si  1.91 -4.96 -6.07
Si  4.77  6.22 -2.03
Si -6.61 -2.11  4.21
Si  2.26 -4.59  6.32
Si  6.65 -3.32 -3.35
Si -6.12  4.71 -2.64
Si -3.08 -5.83  4.82
Si  0.57 -2.90  7.63
Si -4.48  5.63 -3.97
Si -2.70 -7.65  1.39
Si  3.42  1.20 -7.39
Si  3.47 -1.41 -7.38
Si -5.34  0.64  6.32
Si -5.70  0.28 -6.07
Si  5.31 -3.45 -5.46
Si  1.67  5.50 -6.07
Si -1.38 -7.51  3.50
Si -2.10 -6.06 -5.46
Si -5.27 -1.98  6.31
Si -0.47 -5.13 -6.78
Si  1.00 -7.34  4.21
Si -4.06  1.20 -7.39
Si -4.01 -1.41 -7.38
Si -6.73  3.12  4.21
Si  6.04 -4.91  3.50
Si -4.85 -6.42  2.88
Si  6.47  4.54 -3.35
Si -5.64 -2.35 -6.07
Si -1.98  4.75  6.93
Si -5.88 -5.75 -2.64
Si -0.71  5.33 -6.78
Si  5.15  4.40 -5.46
Si -3.06  8.04  1.39
Si  8.61  1.29  0.78
Si  4.41 -5.83  4.82
Si  5.81  5.55  3.50
Si  2.99 -8.23 -0.53
Si  5.09 -6.86 -2.04
Si  8.67 -1.31  0.78
Si  6.11  6.34  0.07
Si -8.68 -1.49  0.07
Si -8.74  1.11  0.07
Si -5.76  2.87 -6.07
Si  2.02  5.87  6.32
Si -5.16  6.66  2.90
Si -5.39  3.25  6.31
Si -4.86  7.46 -0.53
Si  5.62 -0.48  6.93
Si  1.66 -8.38 -2.64
Si  3.35  3.82 -7.38
Si -6.19 -6.54  0.78
Si  3.29 -7.44 -3.96
Si -8.38 -0.69 -3.35
Si -3.55  1.22  8.24
Si -1.74  8.18  3.50
Si -3.50 -1.40  8.25
Si -1.44  8.97  0.07
Si -1.91 -0.04 -8.89
Si  0.39  4.93  7.63
Si -6.55 -4.74  4.21
Si  4.79 -7.65  1.39
Si  3.54 -4.03 -7.39
Si  5.57  2.15  6.92
Si -1.74 -5.71  6.93
Si -2.41  7.01 -5.46
Si -0.71 -8.55 -3.35
Si  3.94  1.22  8.24
Si -6.49  6.52  0.78
Si  0.94  9.15  0.78
Si  3.98 -1.40  8.25
Si -8.44  1.91 -3.35
Si  4.42  8.04  1.39
Si -4.13  3.82 -7.38
Si  6.41 -6.72  0.07
Si -3.94 -4.03 -7.39
Si  1.36 -9.17  0.78
Si  8.30  0.49  4.21
Si -3.36  7.24  4.82
Si  8.97 -0.52 -2.64
Si  0.64  8.35  4.21
Si -4.50 -8.23 -0.53
Si -5.22 -4.59  6.32
Si -1.02 -9.35  0.07
Si -4.20 -7.44 -3.96
Si  8.55  3.92  0.78
Si  0.63 -5.53  7.63
Si -1.87 -2.65 -8.88
Si -1.99  2.58 -8.88
Si  5.68 -3.08  6.92
Si -2.76  8.83 -2.04
Si  8.91  2.08 -2.64
Si -8.62 -4.12  0.07
Si  6.71 -5.92 -3.35
Si -8.80  3.74  0.07
Si -8.32 -3.32 -3.35
Si  8.36 -2.11  4.21
Si  8.72 -3.94  0.78
Si  2.93  8.25 -3.96
Si -5.58 -4.96 -6.07
Si  4.12  7.24  4.82
Si  6.89  0.10 -6.78
Si -9.05  0.32  3.50
Si  8.24  3.12  4.21
Si  5.39 -6.06 -5.46
Si  2.09  1.07 -9.50
Si -3.43 -4.01  8.24
Si -3.62  3.83  8.25
Si -6.79  5.72  4.21
Si  2.69 -9.03  2.90
Si  2.15 -1.56 -9.49
Si  2.33 -7.21  6.31
Si  3.86  3.83  8.25
Si -8.98 -2.28  3.50
Si  1.96 -7.58 -6.07
Si  9.03 -3.15 -2.64
Si  1.84 -0.16  9.75
Si -6.18  7.31 -2.64
Si -2.35 -9.47 -2.03
Si  2.28  9.28  2.88
Si  6.83  2.70 -6.78
Si  4.06 -4.01  8.24
Si  6.95 -2.53 -6.78
Si  5.50  4.75  6.93
Si -5.82  5.50 -6.07
Si  6.41  7.14 -3.35
Si -3.00 -8.45  4.82
Si -9.10  2.95  3.50
Si  1.79  2.46  9.74
Si -8.50  4.54 -3.35
Si -5.46  5.87  6.32
Si -4.55  8.25 -3.96
Si  4.73  8.83 -2.04
Si  5.07  7.01 -5.46
Si -0.29  0.90 -10.20
Si  1.60  8.10 -6.07
Si  6.11 -7.51  3.50
Si  1.91 -2.77  9.74
Si -0.41 -7.76 -6.78
Si -2.04  7.38  6.92
Si 10.31 -0.39 -0.54
Si -10.08  0.99 -2.03
Si -10.00 -1.63 -2.04
Si  3.31  6.43 -7.39
Si -6.97 -0.30  7.63
Si -0.23 -1.74 -10.20
Si  1.24  9.94 -2.64
Si  8.85  4.71 -2.64
Si  2.03  3.67 -9.49
Si -1.13  9.77 -3.35
Si  2.58 10.07 -0.54
Si  9.93  1.43  2.90
Si -2.05 -8.68 -5.46
Si -0.77  7.93 -6.78
Si -10.38  0.19  1.40
Si 10.00 -1.19  2.88
Si 10.23  2.23 -0.53
Si -1.79 -5.27 -8.89
Si  5.57 -0.04 -8.89
Si -2.03  5.19 -8.89
Si  8.42 -4.74  4.21
Si -5.82 -8.38 -2.64
Si -8.08  0.10 -6.78
Si  3.59 -6.64 -7.38
Si  5.75  8.18  3.50
Si  2.21 -4.16 -9.50
Si -4.80 -9.03  2.90
Si -7.03  2.33  7.63
Si -4.18  6.43 -7.39
Si -2.17 -1.27 10.35
Si  5.74 -5.71  6.93
Si -6.49 -7.34  4.21
Si -3.89 -6.64 -7.38
Si -2.22  1.36 10.35
Si -10.31 -2.42  1.39
Si -2.66 -10.27  1.40
Si -6.91 -2.90  7.63
Si -8.26 -5.92 -3.35
Si  4.48 -8.45  4.82
Si  8.48  6.52  0.78
Si  0.34  7.56  7.63
Si  1.98  8.48  6.31
Si  5.50  2.58 -8.88
Si -8.93 -4.91  3.50
Si -0.35  3.50 -10.20
Si 10.35 -3.00 -0.53
Si -8.02 -2.53 -6.78
Si -1.32 -10.14  3.50
Si  6.05  8.97  0.07
Si  8.18  5.72  4.21
Si  5.62 -2.65 -8.88
Si  1.06 -9.97  4.21
Si -5.15 -7.21  6.31
Si -8.56 -6.72  0.07
Si -10.43  2.81  1.39
Si -8.86  6.34  0.07
Si -8.14  2.70 -6.78
Si -10.12  3.60 -2.04
Si -1.68 -8.30  6.92
Si  5.13 -9.47 -2.03
Si  6.78  5.33 -6.78
Si -5.40  1.07 -9.50
Si  8.79 -6.54  0.78
Si -5.34 -1.56 -9.49
Si -9.96 -4.24 -2.03
Si  7.01 -5.13 -6.78
Si -5.21  9.28  2.88
Si -6.13 -9.17  0.78
Si  8.00 -0.30  7.63
Si  9.88  4.04  2.88
Si  9.09 -5.75 -2.64
Si  9.27  0.28 -6.07
Si -0.17 -4.33 -10.20
Si -3.67  6.45  8.24
Si -3.38 -6.63  8.25
Si  0.21 -1.10 11.06
Si  1.72  5.07  9.75
Si 10.05 -3.80  2.90
Si  3.82  6.45  8.24
Si -9.70 -0.83 -5.46
Si  0.15  1.53 11.06
Si -5.52 -7.58 -6.07
Si  0.69 -8.13  7.63
Si -3.14 10.65  1.40
Si -4.91 10.07 -0.54
Si -2.10 -3.87 10.35
Si  7.94  2.33  7.63
Si -5.64 -0.16  9.75
Si -9.16  5.55  3.50
Si -6.54  9.15  0.78
Si  3.06 -10.85 -0.54
Si 10.19  4.84 -0.54
Si  1.96 -5.39  9.75
Si -2.29  3.96 10.35
Si  3.36 -10.06 -3.97
Si 10.61  0.40 -3.97
Si -9.78  1.78 -5.46
Si -2.46  9.63 -5.46
Si  4.10 -6.63  8.25
Si  6.47 -9.35  0.07
Si  9.33 -2.35 -6.07
Si  9.21  2.87 -6.07
Si  6.77 -8.55 -3.35
Si  1.72 -10.98 -2.64
Si  4.83 -10.27  1.40
Si -3.71 -0.62 -10.81
Si  3.78 -0.62 -10.81
Si -1.80 10.78  3.50
Si  8.06 -2.90  7.63
Si  5.45  7.38  6.92
Si -3.44  9.86  4.82
Si -10.26 -5.04  1.40
Si -7.09  4.93  7.63
Si  9.63  0.64  6.32
Si -5.69  2.46  9.74
Si -5.46  3.67 -9.49
Si -5.57 -2.77  9.74
Si  1.97  6.30 -9.50
Si -4.12 -10.06 -3.97
Si 10.66 -2.21 -3.96
Si  4.35 10.65  1.40
Si -6.85  8.35  4.21
Si  5.43 -8.68 -5.46
Si -9.66 -3.45 -5.46
Si  3.73  1.99 -10.82
Si -3.76  1.99 -10.82
Si -5.28 -4.16 -9.50
Si -8.56  7.14 -3.35
Si -7.96 -5.13 -6.78
Si -9.35 -0.48  6.93
Si  5.45  5.19 -8.89
Si 10.54  3.02 -3.96
Si -6.85 -5.53  7.63
Si -0.65 -11.15 -3.35
Si  0.27 -3.70 11.06
Si -1.50 11.57  0.07
Si  5.26  1.36 10.35
Si  4.05  9.86  4.82
Si  5.32 -1.27 10.35
Si -5.88  8.10 -6.07
Si -4.43 -10.85 -0.54
Si  8.79  7.31 -2.64
Si -10.69 -0.60  4.82
Si  9.70 -1.98  6.31
Si  0.58 10.95  4.21
Si  5.69 -5.27 -8.89
Si  0.88 11.74  0.78
Si  0.09  4.13 11.06
Si 10.43 -5.62 -0.54
Si -3.64 -3.24 -10.82
Si -9.41  2.15  6.92
Si  1.42 -11.77  0.78
Si  2.27 -6.79 -9.49
Si -8.20  5.33 -6.78
Si -10.50  5.42  1.40
Si -0.41  6.13 -10.20
Si  2.88 10.86 -3.97
Si  2.38 -9.82  6.32
Si -5.51  8.48  6.31
Si  9.58  3.25  6.31
Si -10.73  2.01  4.82
Si  3.85 -3.24 -10.82
Si -2.83 11.45 -2.03
Si  8.48 -7.34  4.21
Si -0.96 -11.95  0.07
Si -9.29 -3.08  6.92
Si -1.75 -7.88 -8.88
Si -2.11  7.81 -8.88
Si  7.88  4.93  7.63
Si  2.02 -10.18 -6.07
Si -6.24  9.94 -2.64
Si -9.82  4.40 -5.46
Si -10.61 -3.22  4.82
Si  3.23  9.05 -7.38
Si -10.20  6.22 -2.03
Si  6.35  9.77 -3.35
Si -8.86 -7.51  3.50
Si 12.07  0.19  1.40
Si  5.03  9.63 -5.46
Si -12.15 -0.39 -0.54
Si -9.88 -6.86 -2.04
Si  9.81  6.66  2.90
Si  3.64  0.42 11.67
Si  9.39 -4.96 -6.07
Si  5.20  3.96 10.35
Si  5.80 -8.30  6.92
Si  9.15  5.50 -6.07
Si  5.38 -3.87 10.35
Si -3.85  0.42 11.67
Si  3.66  4.61 -10.81
Si  2.76 -11.64  2.88
Si -8.20 -8.55 -3.35
Si 10.12 -6.42  2.88
Si -2.10  9.98  6.93
Si -0.11 -6.96 -10.20
Si -3.83  4.61 -10.81
Si  6.17 -10.14  3.50
Si -0.35 -10.36 -6.78
Si  8.12  8.35  4.21
Si -2.04 -6.50 10.35
Si  3.67 -9.26 -7.39
Si  6.71  7.93 -6.78
Si -5.76  5.07  9.75
Si 10.73 -4.83 -3.97
Si -2.96 -11.06  4.82
Si -4.25  9.05 -7.38
Si  1.54 10.73 -6.07
Si -5.53 -5.39  9.75
Si 12.03  2.81  1.39
Si -12.22  2.23 -0.53
Si  3.68 -2.19 11.68
Si  2.21 11.89  2.90
Si -1.61  0.76 -12.31
Si  8.12 -5.53  7.63
Si -4.60 10.86 -3.97
Si -3.82 -9.26 -7.39
Si  8.43  9.15  0.78
Si 12.15 -2.42  1.39
Si -2.28 -12.09 -2.04
Si -3.80 -2.19 11.68
Si -12.10 -3.00 -0.53
Si -2.34  6.59 10.35
Si  9.75 -4.59  6.32
Si  7.07 -7.76 -6.78
Si -11.85  0.40 -3.97
Si  1.67  7.69  9.74
Si  7.20  0.90 -10.20
Si  4.65 11.45 -2.03
Si -1.57 -1.86 -12.31
Si 10.49  5.63 -3.97
Si 10.11  7.46 -0.53
Si -0.83 10.56 -6.78
