500
set: 1064.00  0.00  0.00
Si  0.35 -1.18  0.82
Si -0.42  1.18 -0.85
Si  1.25  1.11  0.81
Si -1.34 -1.17 -0.86
Si -0.75  0.11  2.44
Si  2.09 -1.26 -0.77
Si -2.13  1.19  0.81
Si  0.90 -0.07 -2.45
Si -3.04 -1.10  0.80
Si  3.06  1.09 -0.80
Si  0.03 -2.35 -2.40
Si -0.03  2.44  2.45
Si -2.61 -0.01 -2.40
Si  2.61  0.01  2.44
Si  0.44  3.48 -0.86
Si -0.53 -3.54  0.81
Si -1.81 -2.21  2.45
Si  1.81  2.30 -2.40
Si  1.74 -2.34  2.42
Si -1.70  2.35 -2.46
Si -1.26  3.55  0.80
Si  1.28 -3.56 -0.80
Si -3.89  1.09 -0.80
Si  3.91 -1.10  0.80
Si -0.92  0.12 -4.04
Si  2.14  3.47  0.82
Si  0.92 -0.03  4.08
Si -2.21 -3.47 -0.85
Si -3.08  3.39 -0.77
Si  3.04 -3.46  0.81
Si  0.00 -2.39  4.04
Si  0.14  2.44 -4.05
Si -3.43  2.31  2.42
Si -2.60  0.03  4.03
Si  3.46 -2.30 -2.46
Si  2.63 -0.02 -4.07
Si -3.49 -2.30 -2.46
Si  3.52  2.31  2.42
Si -1.64 -2.21 -4.05
Si  4.34 -0.01 -2.40
Si  1.79  2.26  4.04
Si  1.72 -2.31 -4.05
Si -4.34  0.01  2.44
Si -1.72  2.31  4.09
Si  4.82  1.19  0.81
Si -4.86 -1.26 -0.77
Si  3.88  3.39 -0.77
Si -0.82  4.64 -2.40
Si -3.91 -3.46  0.81
Si  0.82 -4.63  2.44
Si -0.89 -4.72 -2.45
Si  1.03  4.76  2.44
Si -2.54 -4.54  2.44
Si -0.45  1.16  5.63
Si  5.60 -1.17 -0.86
Si -3.45  2.34 -4.05
Si  0.36 -1.22 -5.67
Si  2.55 -4.67 -2.40
Si  3.45 -2.34  4.09
Si  3.50  2.34 -4.05
Si  2.68  4.58 -2.45
Si -2.56  4.67  2.44
Si -5.70  1.11  0.81
Si -3.50 -2.34  4.09
Si -0.34  5.84  0.81
Si -1.32 -1.14  5.64
Si  1.25  1.15 -5.67
Si -4.32 -0.02 -4.07
Si  4.35  0.03  4.03
Si  4.74 -3.47 -0.85
Si  0.30 -5.92 -0.77
Si -4.81  3.47  0.82
Si  1.36  5.83 -0.85
Si -1.43 -5.83  0.82
Si  5.14 -2.21  2.45
Si -5.14  2.30 -2.40
Si -2.10  5.74 -0.80
Si  2.12 -5.75  0.80
Si -2.15  1.22 -5.69
Si -5.21 -2.34  2.42
Si  2.17 -1.24  5.69
Si -0.81  4.68  4.03
Si  0.84 -4.67 -4.07
Si  5.25  2.35 -2.46
Si -0.86 -4.68  4.08
Si  0.87  4.77 -4.04
Si -6.05 -0.07 -2.45
Si -3.02 -1.14 -5.68
Si  2.98  1.06  5.72
Si  3.04  5.76  0.81
Si -2.70 -4.53 -4.04
Si  2.57 -4.62  4.03
Si  0.47  3.51  5.64
Si  6.20  0.11  2.44
Si -3.13 -5.82 -0.86
Si -2.54  4.63 -4.07
Si  6.53  1.18 -0.85
Si -0.54 -3.51 -5.67
Si -4.27  4.58 -2.45
Si  2.71  4.62  4.08
Si -5.67 -3.56 -0.80
Si -6.60 -1.18  0.82
Si  5.69  3.55  0.80
Si  4.41 -4.54  2.44
Si -1.24  3.51 -5.68
Si -4.39 -4.67 -2.40
Si  1.20 -3.59  5.72
Si  4.39  4.67  2.44
Si -5.16  2.26  4.04
Si  2.15  3.43 -5.67
Si -2.24 -3.49  5.63
Si  3.93 -1.14 -5.68
Si -3.91  5.76  0.81
Si -5.23 -2.31 -4.05
Si  3.82 -5.82 -0.86
Si  5.23  2.31  4.09
Si  5.31 -2.21 -4.05
Si -3.97  1.06  5.72
Si  6.03  0.12 -4.04
Si -3.00  3.41  5.69
Si -6.03 -0.03  4.08
Si  3.02 -3.43 -5.69
Si  6.42 -3.54  0.81
Si -0.05 -6.99  2.42
Si  4.25 -4.53 -4.04
Si  0.36 -1.22  7.30
Si  0.08  7.00 -2.46
Si -6.51  3.48 -0.86
Si  7.30 -1.18  0.82
Si -0.45  1.16 -7.35
Si -4.24  4.62  4.08
Si  1.25  1.15  7.31
Si -7.37  1.18 -0.85
Si -4.78 -1.24  5.69
Si -4.38 -4.62  4.03
Si -1.32 -1.14 -7.33
Si  4.80  1.22 -5.69
Si -1.64  6.96  2.42
Si -4.83 -5.75  0.80
Si  4.85  5.74 -0.80
Si  1.68 -6.95 -2.46
Si  4.41  4.63 -4.07
Si -1.76 -7.00 -2.40
Si -2.15  1.22  7.28
Si -6.92 -2.35 -2.40
Si  2.17 -1.24 -7.29
Si  1.76  7.09  2.45
Si -3.93 -3.43 -5.69
Si  3.95  3.41  5.69
Si  6.92  2.44  2.45
Si  6.98 -2.35 -2.40
Si -6.97  2.44  2.45
Si  2.98  1.06 -7.26
Si -5.92  4.76  2.44
Si -3.02 -1.14  7.29
Si  3.35 -6.86  2.45
Si  6.12  4.64 -2.40
Si -0.07 -6.96 -4.05
Si  5.63 -1.14  5.64
Si -6.13 -4.63  2.44
Si  6.06 -4.72 -2.45
Si  5.52 -5.83  0.82
Si  0.07  6.96  4.09
Si -7.70  0.11  2.44
Si -3.35  6.95 -2.40
Si -3.60 -6.86  2.45
Si -5.59  5.83 -0.85
Si -0.54 -3.51  7.31
Si -5.71  1.15 -5.67
Si  4.71 -3.49  5.63
Si  0.47  3.51 -7.33
Si -1.29  8.04 -0.77
Si  1.20 -3.59 -7.26
Si  3.60  6.95 -2.40
Si -0.36  5.87 -5.69
Si -4.80  3.43 -5.67
Si -1.24  3.51  7.29
Si  1.33  5.81  5.63
Si  0.38 -5.89  5.69
Si  7.39  3.48 -0.86
Si  7.85 -0.07 -2.45
Si -1.66  6.99 -4.05
Si  1.25 -8.11  0.81
Si  0.53  8.20  0.80
Si -0.51 -8.21 -0.80
Si  1.66 -6.99  4.09
Si -1.43 -5.87 -5.67
Si -6.81  2.44 -4.05
Si -1.78 -7.04  4.04
Si  8.20  1.11  0.81
Si -7.48 -3.54  0.81
Si -3.97  1.06 -7.26
Si  2.15  3.43  7.30
Si  3.93 -1.14  7.29
Si -2.18  5.71  5.72
Si -6.95 -2.39  4.04
Si  1.93  7.09 -4.05
Si  2.14 -5.79 -5.68
Si  6.95 -2.39  4.04
Si -8.29 -1.17 -0.86
Si -2.24 -3.49 -7.35
Si  2.23  8.13 -0.86
Si  7.09  2.44 -4.05
Si -2.32 -8.19  0.81
Si -3.00  3.41 -7.29
Si  3.02 -3.43  7.28
Si  3.03  5.79 -5.67
Si -3.10 -5.79  5.64
Si  6.50  1.16  5.63
Si -3.43 -6.87 -4.05
Si  2.96 -8.12 -0.85
Si -3.38  6.91  4.04
Si  6.09 -4.68  4.08
Si -6.11 -4.67 -4.07
Si -3.03  8.12  0.82
Si  6.14  4.68  4.03
Si  3.52 -6.87 -4.05
Si -6.08  4.77 -4.04
Si  3.58  6.91  4.04
Si -6.59 -1.22 -5.67
Si  5.71  3.51 -5.68
Si -4.78 -1.24 -7.29
Si  4.80  1.22  7.28
Si -7.87  0.12 -4.04
Si  6.61  5.84  0.81
Si  7.87 -0.03  4.08
Si -5.75 -3.59  5.72
Si -6.64 -5.92 -0.77
Si  0.92 -0.03 -8.89
Si  3.85 -5.79  5.64
Si -3.93 -3.43  7.28
Si  3.95  3.41 -7.29
Si -8.21  3.55  0.80
Si -0.92  0.12  8.94
Si  8.23 -3.56 -0.80
Si -3.92  5.79 -5.67
Si  5.19 -7.00 -2.40
Si  3.92  8.12  0.82
Si -5.27 -6.95 -2.46
Si  5.31  6.96  2.42
Si -3.99 -8.12 -0.85
Si -5.19  7.09  2.45
Si  9.04 -1.26 -0.77
Si -9.08  1.19  0.81
Si  6.41 -3.51 -5.67
Si  0.14  2.44  8.93
Si  0.00 -2.39 -8.94
Si -6.48  3.51  5.64
Si  2.63 -0.02  8.91
Si -8.65  2.35 -2.46
Si -2.60  0.03 -8.95
Si  8.69 -2.34  2.42
Si  5.63 -1.14 -7.33
Si  7.31 -1.22 -5.67
Si -5.70  1.15  7.31
Si -1.72  2.31 -8.89
Si -1.64 -2.21  8.93
Si -8.76 -2.21  2.45
Si -0.36  5.87  7.28
Si -7.78  4.64 -2.40
Si -7.40  1.16  5.63
Si  8.76  2.30 -2.40
Si  7.77 -4.63  2.44
Si  0.38 -5.89 -7.29
Si -7.29  5.84  0.81
Si  1.72 -2.31  8.93
Si  4.77  5.71  5.72
Si -4.80  3.43  7.30
Si  7.25 -5.92 -0.77
Si  1.79  2.26 -8.94
Si  4.71 -3.49 -7.35
Si -4.81 -5.79 -5.68
Si -4.72  8.13 -0.86
Si  4.63 -8.19  0.81
Si  1.33  5.81 -7.35
Si -7.84 -4.72 -2.45
Si -1.42 -5.87  7.30
Si -2.18  5.71 -7.26
Si  2.15 -5.79  7.29
Si -5.02  7.09 -4.05
Si  7.99  4.76  2.44
Si  5.17 -7.04  4.04
Si  0.96  9.29 -2.40
Si -0.96 -9.29  2.44
Si  0.77 -9.32 -2.40
Si  5.29  6.99 -4.05
Si -0.77  9.32  2.44
Si -5.29 -6.99  4.09
Si -8.59 -2.21 -4.05
Si  9.09  3.47  0.82
Si  3.03  5.79  7.31
Si  3.45 -2.34 -8.89
Si -9.16 -3.47 -0.85
Si -3.50 -2.34 -8.89
Si  8.67 -2.31 -4.05
Si -5.62  5.81  5.63
Si -3.10 -5.79 -7.33
Si -3.45  2.34  8.93
Si -9.56 -0.01 -2.40
Si  5.53 -5.87 -5.67
Si -8.67  2.31  4.09
Si  5.66  8.04 -0.77
Si  2.63 -9.19  2.44
Si  9.56  0.01  2.44
Si  3.50  2.34  8.93
Si -2.48  9.23 -2.45
Si  6.50  1.16 -7.35
Si  8.74  2.26  4.04
Si -4.32 -0.02  8.91
Si -6.59 -1.22  7.30
Si  5.71  3.51  7.29
Si -7.76  4.68  4.03
Si -5.75 -3.59 -7.26
Si -1.21  8.06  5.69
Si -5.70 -8.11  0.81
Si  4.35  0.03 -8.95
Si  7.79 -4.67 -4.07
Si  7.42  3.51  5.64
Si  1.23 -8.08 -5.69
Si  0.55  8.16 -5.68
Si -7.81 -4.68  4.08
Si  7.82  4.77 -4.04
Si -7.49 -3.51 -5.67
Si  8.20  1.15 -5.67
Si -2.67 -9.37 -2.45
Si -0.59 -8.24  5.72
Si -8.27 -1.14  5.64
Si -9.99 -1.10  0.80
Si -0.86 -4.68 -8.89
Si  0.84 -4.67  8.91
Si 10.01  1.09 -0.80
Si  3.85 -5.79 -7.33
Si -6.87  7.00 -2.46
Si -3.92  5.79  7.31
Si  6.90 -6.99  2.42
Si  2.82  9.41  2.44
Si -0.81  4.68 -8.95
Si  0.78 -9.27  4.03
Si -0.75  9.29 -4.07
Si  0.87  4.77  8.94
Si  2.25  8.16  5.64
Si -7.00 -6.99  2.42
Si  8.31  5.83 -0.85
Si -2.33 -8.16 -5.67
Si -0.94 -9.32 -4.07
Si  0.97  9.33  4.03
Si  7.03  7.00 -2.46
Si -8.38 -5.83  0.82
Si  2.93 -8.14  5.63
Si -3.02  8.08 -5.67
Si  2.46 -9.18 -4.04
Si  6.41 -3.51  7.31
Si -2.54  4.63  8.91
Si -9.54  0.03  4.03
Si -2.70 -4.53  8.94
Si  2.71  4.62 -8.89
Si  2.57 -4.62 -8.95
Si  4.77  5.71 -7.26
Si -6.48  3.51 -7.33
Si  9.58 -0.02 -4.07
Si  7.31 -1.22  7.30
Si -0.32 10.39 -0.80
Si -2.46  9.27  4.08
Si  0.34 -10.40  0.80
Si -4.32 -9.19  2.44
Si -6.42  8.20  0.80
Si  6.44 -8.21 -0.80
Si -4.80 -5.79  7.29
Si -6.57 -5.89  5.69
Si -7.40  1.16 -7.35
Si  6.59  5.87 -5.69
Si -2.65 -9.33  4.08
Si  4.47  9.23 -2.45
Si -4.13  9.41  2.44
Si  0.90 -0.07 10.53
Si -8.19  3.51 -5.68
Si -0.75  0.11 -10.54
Si -5.16  2.26 -8.94
Si  5.23  2.31 -8.89
Si  8.15 -3.59  5.72
Si  4.28 -9.37 -2.45
Si  2.65  9.42 -4.04
Si  6.88 -6.96 -4.05
Si  9.99 -3.46  0.81
Si -5.23 -2.31  8.93
Si -10.02  3.39 -0.77
Si -6.88  6.96  4.09
Si  5.31 -2.21  8.93
Si  1.44 10.49  0.81
Si  3.93  8.08 -5.67
Si -2.13 10.41  0.81
Si -7.02 -6.96 -4.05
Si -4.02 -8.14  5.63
Si -1.48 -10.56 -0.77
Si  7.02  6.96  4.09
Si  2.03 -10.47 -0.86
Si -6.03 -0.03 -8.89
Si -9.05  5.74 -0.80
Si  9.07 -5.75  0.80
Si  6.03  0.12  8.94
Si -9.48 -4.54  2.44
Si -9.10  1.22 -5.69
Si -0.03  2.44 -10.53
Si  9.12 -1.24  5.69
Si  0.03 -2.35 10.57
Si  9.50 -4.67 -2.40
Si  2.61  0.01 -10.54
Si -9.51  4.67  2.44
Si  5.53 -5.87  7.30
Si -4.24  4.62 -8.89
Si  4.25 -4.53  8.94
Si -2.61 -0.01 10.58
Si -1.81 -2.21 -10.53
Si -10.38  2.31  2.42
Si -1.70  2.35 10.52
Si -10.84  1.09 -0.80
Si -5.62  5.81 -7.35
Si -1.21  8.06 -7.29
Si 10.41 -2.30 -2.46
Si 10.86 -1.10  0.80
Si  9.63  4.58 -2.45
Si  1.23 -8.08  7.28
Si  1.74 -2.34 -10.55
Si  4.62 -8.16 -5.67
Si  0.55  8.16  7.29
Si -10.44 -2.30 -2.46
Si  1.81  2.30 10.57
Si  4.41  4.63  8.91
Si -7.31  5.87 -5.69
Si -4.70  8.16  5.64
Si  3.15 10.48 -0.85
Si -4.38 -4.62 -8.95
Si -4.49 -9.18 -4.04
Si 10.47  2.31  2.42
Si  7.33 -5.89  5.69
Si -3.22 -10.48  0.82
Si -0.59 -8.24 -7.26
Si  7.42  3.51 -7.33
Si -7.49 -3.51  7.31
Si  8.20  1.15  7.31
Si  4.30 -9.33  4.08
Si  4.49  9.27  4.08
Si -8.27 -1.14 -7.33
Si -4.30  9.42 -4.04
Si -7.46 -8.21 -0.80
Si  7.48  8.20  0.80
Si  3.73 -10.48  0.82
Si -3.80 10.48 -0.85
Si -2.33 -8.16  7.31
Si  2.25  8.16 -7.33
Si  9.10  3.43 -5.67
Si  0.07  6.96 -8.89
Si -3.02  8.08  7.30
Si -5.99  9.29 -2.40
Si  3.46 -2.30 10.52
Si -9.49  4.63 -4.07
Si  5.99 -9.29  2.44
Si -3.49 -2.30 10.52
Si -0.07 -6.96  8.93
Si -8.59  6.96  2.42
Si  9.52 -4.62  4.03
Si -9.19 -3.49  5.63
Si -3.43  2.31 -10.55
Si  8.63 -6.95 -2.46
Si  2.93 -8.14 -7.35
Si  3.52  2.31 -10.55
Si 10.82  3.39 -0.77
Si -4.34  0.01 -10.54
Si -10.40  2.34 -4.05
Si -9.65 -4.53 -4.04
Si 10.40 -2.34  4.09
Si  5.74  8.06  5.69
Si -5.72 -8.08 -5.69
Si  1.66 -6.99 -8.89
Si -8.71 -7.00 -2.40
Si -10.86 -3.46  0.81
Si -6.18 -9.32 -2.40
Si  4.34 -0.01 10.58
Si -6.57 -5.89 -7.29
Si  6.59  5.87  7.28
Si  6.18  9.32  2.44
Si 10.45  2.34 -4.05
Si  9.66  4.62  4.08
Si -1.66  6.99  8.93
Si -10.45 -2.34  4.09
Si  8.15 -3.59 -7.26
Si -6.81  2.44  8.93
Si  8.71  7.09  2.45
Si  4.82 10.41  0.81
Si  9.93  1.06  5.72
Si -8.18  3.51  7.29
Si -1.78 -7.04 -8.94
Si -9.97 -1.14 -5.68
Si -8.24  8.04 -0.77
Si  0.82 -4.63 -10.54
Si 11.29 -0.01 -2.40
Si -11.29  0.01  2.44
Si  9.99  5.76  0.81
Si  1.93  7.09  8.93
Si  8.20 -8.11  0.81
