500
set: 661.00  0.00  0.00
Si -1.07  0.95 -0.24
Si -0.91 -0.37  1.64
Si -0.18 -2.21  0.43
Si  1.00  1.62 -1.38
Si  1.36 -0.99 -2.44
Si -1.68 -0.28 -2.46
Si -0.40  1.39  2.77
Si -1.46 -2.57 -1.50
Si  2.06 -2.57 -0.86
Si  1.38  3.25  0.63
Si  2.12  1.72  2.40
Si -2.76  2.41 -0.16
Si -3.29 -0.78  1.50
Si  2.90  0.86 -2.17
Si  2.53 -1.22  2.80
Si  0.38 -2.11  3.35
Si -2.89  1.44  2.39
Si -0.12  2.86 -3.15
Si -1.23  3.71  1.72
Si -0.20 -1.02 -4.24
Si  4.16 -1.74 -0.63
Si  0.24 -4.05  2.06
Si  4.31  0.88  1.96
Si  4.89  0.42 -0.51
Si -0.46 -0.04  4.91
Si -3.68 -1.88 -2.91
Si  4.08 -2.56  1.63
Si -3.52 -3.47  1.27
Si -1.74  4.94 -0.92
Si -1.94  2.92  4.05
Si -1.54 -4.99  1.24
Si  2.58 -4.47  1.56
Si -4.78  2.30 -1.08
Si  2.42 -4.15 -2.54
Si  1.88 -2.73 -4.41
Si -0.09  5.17 -2.24
Si -1.20 -4.17 -3.62
Si -3.61 -1.66  4.12
Si  3.66  0.60 -4.39
Si -4.14  2.65 -3.19
Si  0.44  2.19  5.45
Si  2.76  3.04  4.23
Si  0.44  2.19 -5.47
Si -4.98  2.49  2.19
Si -0.46 -0.04 -6.00
Si -2.01 -3.49  4.49
Si  3.51 -0.92  4.84
Si -4.83  0.42 -3.63
Si -6.03  0.42 -0.51
Si  3.28  3.04 -4.09
Si  3.50  4.99  0.05
Si -2.14  3.40 -4.58
Si -3.06  0.45  5.32
Si -0.09 -5.74 -2.24
Si -1.54  5.93  1.24
Si -5.06 -3.21 -1.77
Si -0.12 -3.13 -5.42
Si -1.74 -5.97 -0.92
Si -3.93 -4.79 -1.21
Si -0.12 -3.13  5.50
Si  5.45 -0.81  3.18
Si -5.46 -0.81  3.18
Si -3.06  0.45 -5.59
Si  6.13  2.30 -1.08
Si -3.35 -3.94 -4.24
Si -0.20 -1.02  6.67
Si  5.93  2.49  2.19
Si  3.50 -5.93  0.05
Si -5.27  4.43 -0.37
Si  5.85 -3.21 -1.77
Si -6.61  0.88  1.96
Si -6.76 -1.74 -0.63
Si  3.51 -0.92 -6.08
Si  6.09  0.42 -3.63
Si  2.58  6.44  1.56
Si  0.24  6.86  2.06
Si -5.34 -3.90  2.77
Si  5.65  4.43 -0.37
Si  4.54 -5.21 -2.12
Si -2.99  5.35  3.84
Si  1.88 -2.73  6.50
Si  5.57 -3.90  2.77
Si -3.93  6.12 -1.21
Si -2.99 -5.56  3.84
Si  3.80 -4.06 -4.88
Si -6.83 -2.56  1.63
Si -2.14  3.40  6.33
Si  3.66  0.60  6.53
Si -1.23 -7.20  1.72
Si  5.13  4.11 -3.66
Si  3.62  5.35  3.87
Si -2.01 -3.49 -6.43
Si -5.08  4.62  3.22
Si  4.54  5.70 -2.12
Si  2.42  6.76 -2.54
Si  3.62 -5.57  3.87
Si -1.94  2.92 -6.86
Si -1.20  6.75 -3.62
Si  1.38 -7.66  0.63
Si  7.63 -0.78  1.50
Si  2.76  3.04 -6.68
Si  0.38 -2.11 -7.57
Si -3.61 -1.66 -6.79
Si  6.77  2.65 -3.19
Si -5.79  4.11 -3.66
Si  7.23 -1.88 -2.91
Si  5.84  4.62  3.22
Si  3.28  3.04  6.82
Si  3.80 -4.06  6.03
Si  7.40 -3.47  1.27
Si -0.40  1.39 -8.14
Si -0.12  2.86  7.76
Si -3.52  7.45  1.27
Si -8.02  0.86 -2.17
Si -5.27 -6.48 -0.37
Si -3.35 -3.94  6.67
Si -1.20 -4.17  7.29
Si  8.02  1.44  2.39
Si -7.25  0.60 -4.39
Si  8.15  2.41 -0.16
Si -6.37 -5.21 -2.12
Si  7.30 -1.66  4.12
Si  6.99 -4.79 -1.21
Si  2.53 -1.22 -8.12
Si -5.10 -4.86 -4.93
Si -1.46  8.34 -1.50
Si  5.65 -6.48 -0.37
Si -1.68 -0.28  8.45
Si  1.36 -0.99  8.47
Si  2.06  8.34 -0.86
Si -0.12 -8.05 -3.15
Si -5.08 -6.29  3.22
Si -0.18  8.71  0.43
Si -4.83  0.42  7.28
Si -6.37  5.70 -2.12
Si -3.35  6.98 -4.24
Si -7.40 -0.92  4.84
Si -2.01  7.43  4.49
Si -8.39 -1.22  2.80
Si -7.42  4.99  0.05
Si -2.76 -8.50 -0.16
Si  2.12  1.72 -8.52
Si -3.68 -1.88  8.00
Si  5.81 -4.86 -4.93
Si -2.14 -7.51 -4.58
Si -2.89  1.44 -8.52
Si -4.14  2.65  7.72
Si  5.84 -6.29  3.22
Si -1.94 -8.00  4.05
Si -7.63  3.04 -4.09
Si  3.80  6.85 -4.88
Si -5.10 -4.86  5.98
Si -5.34  7.02  2.77
Si  2.90  0.86  8.74
Si -8.86 -2.57 -0.86
Si  5.13 -6.80 -3.66
Si -8.79  1.72  2.40
Si -0.91 -0.37 -9.27
Si -5.10  6.06 -4.93
Si  2.76 -7.87  4.23
Si -2.99  5.35 -7.07
Si  6.99  6.12 -1.21
Si  5.57  7.02  2.77
Si -5.06  7.71 -1.77
Si  0.38  8.80  3.35
Si  4.08  8.35  1.63
Si  1.00 -9.29 -1.38
Si  3.28 -7.87 -4.09
Si -2.99 -5.56 -7.07
Si -0.12  7.78 -5.42
Si  1.88  8.18 -4.41
Si  7.85  0.45  5.32
Si -7.42 -5.93  0.05
Si  5.45 -0.81 -7.73
Si  6.09  0.42  7.28
Si -5.46 -0.81 -7.73
Si  7.56 -3.94 -4.24
Si -0.12  7.78  5.50
Si -7.12 -4.06 -4.88
Si  3.62  5.35 -7.04
Si  9.23 -0.28 -2.46
Si -8.34 -4.47  1.56
Si -7.40 -0.92 -6.08
Si -5.79 -6.80 -3.66
Si  7.85  0.45 -5.59
Si  5.81 -4.86  5.98
Si  2.42 -4.15  8.37
Si -8.15  3.04  4.23
Si  3.62 -5.57 -7.04
Si  1.00  1.62  9.54
Si  5.81  6.06 -4.93
Si  2.12 -9.19  2.40
Si  0.24 -4.05 -8.85
Si -7.25  0.60  6.53
Si -4.14 -8.26 -3.19
Si  5.13  4.11  7.26
Si -8.50 -4.15 -2.54
Si  5.85  7.71 -1.77
Si -7.29  5.35  3.87
Si -1.46 -2.57  9.41
Si  3.80  6.85  6.03
Si  9.84  0.95 -0.24
Si -4.78 -8.61 -1.08
Si  9.45 -2.57 -1.50
Si -9.56 -0.99 -2.44
Si -0.40 -9.52  2.77
Si -5.10  6.06  5.98
Si -7.29 -5.57  3.87
Si  4.31  0.88 -8.96
Si -1.23  3.71 -9.20
Si -3.29 -0.78 -9.41
Si -1.20  6.75  7.29
Si -1.07 -9.96 -0.24
Si -2.01  7.43 -6.43
Si -4.98 -8.43  2.19
Si -2.14 -7.51  6.33
Si  4.16  9.17 -0.63
Si -9.54  3.25  0.63
Si -0.09  5.17  8.68
Si  7.30 -1.66 -6.79
Si -9.91  1.62 -1.38
Si 10.00 -0.37  1.64
Si -5.79  4.11  7.26
Si -7.12 -4.06  6.03
Si -3.68  9.03 -2.91
Si -2.89 -9.47  2.39
Si -3.35  6.98  6.67
Si  8.97  2.92  4.05
Si  0.44 -8.73  5.45
Si  7.92  5.35  3.84
Si  5.81  6.06  5.98
Si  0.44 -8.73 -5.47
Si -5.08  4.62 -7.69
Si  1.36  9.93 -2.44
Si -4.98  2.49 -8.73
Si -0.09 -5.74  8.68
Si  2.53  9.70  2.80
Si  7.92 -5.56  3.84
Si -9.03 -2.73 -4.41
Si  4.08 -2.56 -9.28
Si  9.18  4.94 -0.92
Si  8.78  3.40 -4.58
Si -5.34 -3.90 -8.15
Si  9.69  3.71  1.72
Si  5.93 -8.43  2.19
Si  8.90 -3.49  4.49
Si  7.40  7.45  1.27
Si  2.06 -2.57 10.05
Si  6.77  2.65  7.72
Si  5.57 -3.90 -8.15
Si  1.88  8.18  6.50
Si  6.13 -8.61 -1.08
Si -8.34  6.44  1.56
Si  2.58 -4.47 -9.35
Si -7.63  3.04  6.82
Si  2.90 -10.05 -2.17
Si  9.37 -4.99  1.24
Si  2.76 -7.87 -6.68
Si  5.84  4.62 -7.69
Si -0.91 10.54  1.64
Si -1.94 -8.00 -6.86
Si -0.18 -2.21 -10.49
Si -3.61  9.25  4.12
Si -3.29 10.14  1.50
Si -0.20  9.89 -4.24
Si -1.07  0.95 10.68
Si  7.56 -3.94  6.67
Si -3.52 -3.47 -9.64
Si  5.93  2.49 -8.73
Si  1.38  3.25 -10.28
Si -6.83  8.35  1.63
Si  3.28 -7.87  6.82
Si -5.06 -3.21  9.14
Si  7.23 -1.88  8.00
Si 10.73 -2.21  0.43
Si 10.52  1.39  2.77
Si -8.15  3.04 -6.68
Si  9.18 -5.97 -0.92
Si -1.54 -4.99 -9.67
Si -7.12  6.85 -4.88
Si  2.42  6.76  8.37
Si -1.68 10.63 -2.46
Si  4.31 -10.03  1.96
Si  7.56  6.98 -4.24
Si  6.77 -8.26 -3.19
Si -8.50  6.76 -2.54
Si -5.08 -6.29 -7.69
Si  9.37  5.93  1.24
Si -6.61  0.88 -8.96
Si  9.71 -4.17 -3.62
Si -4.78  2.30  9.83
Si -0.12 -8.05  7.76
Si  4.54 -5.21  8.80
Si  5.13 -6.80  7.26
Si  0.24  6.86 -8.85
Si  4.16 -1.74 10.29
Si -1.07  0.95 -11.15
Si -10.54 -2.11  3.35
Si -1.74  4.94  9.99
Si  5.85 -3.21  9.14
Si -11.10 -2.21  0.43
Si  8.78  3.40  6.33
Si -2.76  2.41 10.75
Si -6.76  9.17 -0.63
Si  4.54  5.70  8.80
Si -0.91 -11.29  1.64
Si -1.54  5.93 -9.67
Si -9.03 -2.73  6.50
Si -7.29  5.35 -7.04
Si  4.89  0.42 10.41
Si -5.79 -6.80  7.26
Si -3.93 -4.79  9.70
Si  8.90 -3.49 -6.43
Si  5.84 -6.29 -7.69
Si 10.45 -0.04  4.91
Si -0.18 -2.21 11.34
Si -7.29 -5.57 -7.04
Si 10.71 -1.02 -4.24
Si -7.12  6.85  6.03
Si  4.89 -10.49 -0.51
Si -1.68 -11.20 -2.46
Si 10.80  2.86 -3.15
Si -10.68 -4.05  2.06
Si  0.38  8.80 -7.57
Si  3.51  9.99  4.84
Si  2.58  6.44 -9.35
Si  8.97  2.92 -6.86
Si -2.76  2.41 -11.08
Si -7.63 -7.87 -4.09
Si -11.31  1.39  2.77
Si -8.39 -1.22 -8.12
Si -1.23 -7.20 -9.20
Si -1.74 -5.97  9.99
Si  8.15 -8.50 -0.16
Si  3.66 -10.31 -4.39
Si  8.02  1.44 -8.52
Si -6.83 -2.56 -9.28
Si  6.13  2.30  9.83
Si -11.03  2.86 -3.15
Si -8.02  0.86  8.74
Si  7.92  5.35 -7.07
Si  5.45 10.11  3.18
Si -1.07 11.87 -0.24
Si -5.46 10.11  3.18
Si  7.23  9.03 -2.91
Si -0.20  9.89  6.67
Si -11.12 -1.02 -4.24
Si -0.46 10.88  4.91
Si -11.82 -0.37  1.64
Si 11.29 -2.11  3.35
Si  7.92 -5.56 -7.07
Si -5.34  7.02 -8.15
Si -10.48  2.19  5.45
Si -0.46 -10.95  4.91
Si -10.48  2.19 -5.47
Si -3.61  9.25 -6.79
Si -11.99  0.95 -0.24
Si -6.03  0.42 10.41
Si -4.14 -8.26  7.72
Si 11.15 -4.05  2.06
Si -6.37 -5.21  8.80
Si 10.45 -0.04 -6.00
Si  1.38  3.25 11.54
Si -8.15 -7.87  4.23
Si 11.91  1.62 -1.38
Si -4.83 -10.49 -3.63
Si  5.57  7.02 -8.15
Si -6.03 -10.49 -0.51
Si -3.93  6.12  9.70
Si -3.06 -10.46  5.32
Si  7.63 -0.78 -9.41
Si -6.61 -10.03  1.96
Si  9.69 -7.20  1.72
Si -8.86  8.34 -0.86
Si 10.83  5.17 -2.24
Si  3.51  9.99 -6.08
Si  1.36 -11.90 -2.44
Si  2.06 -2.57 -11.78
Si -3.29 -11.69  1.50
Si -9.54 -7.66  0.63
Si -3.06 -10.46 -5.59
Si  7.56  6.98  6.67
Si -6.37  5.70  8.80
Si  2.90 11.78 -2.17
Si  4.89 11.34 -0.51
Si -8.79  1.72 -8.52
Si -11.00  5.17 -2.24
Si  9.71  6.75 -3.62
Si  4.16 -1.74 -11.54
Si -11.38 -0.04  4.91
Si  8.78 -7.51 -4.58
Si  4.89  0.42 -11.42
Si -0.46 10.88 -6.00
Si  8.90  7.43  4.49
Si -6.76 -1.74 10.29
Si  1.00  1.62 -12.29
Si  3.50  4.99 -10.86
Si 10.83 -5.74 -2.24
Si 10.80 -3.13 -5.42
Si  7.30  9.25  4.12
Si -0.46 -10.95 -6.00
Si 10.80 -3.13  5.50
Si  9.23 -0.28  8.45
Si -0.40 -9.52 -8.14
Si  3.50  4.99 10.97
Si 12.27 -0.99 -2.44
Si -5.27  4.43 10.54
Si -0.91 -0.37 12.56
Si -11.00 -5.74 -2.24
Si -3.68  9.03  8.00
Si -0.40 12.31  2.77
Si -8.50 -4.15  8.37
Si  7.40 -3.47 -9.64
Si  8.02 -9.47  2.39
Si  1.00 12.53 -1.38
Si 10.71 -1.02  6.67
Si  6.09 -10.49 -3.63
Si -1.46  8.34  9.41
Si -0.20 -11.93 -4.24
Si -11.03 -3.13 -5.42
Si  8.97 -8.00  4.05
Si -3.52  7.45 -9.64
Si  9.45  8.34 -1.50
Si  2.53 -12.13  2.80
Si  2.12 -9.19 -8.52
Si  4.31 11.80  1.96
Si -11.03 -3.13  5.50
Si -12.38 -2.57 -1.50
Si 12.29  3.25  0.63
Si  3.66 -10.31  6.53
Si  5.65  4.43 10.54
Si -1.46 -2.57 -12.41
Si  7.63 10.14  1.50
Si 11.35  2.19  5.45
Si 11.35  2.19 -5.47
Si -9.56 -0.99  8.47
Si -12.14  3.71  1.72
Si -12.59 -0.28 -2.46
Si  9.71 -4.17  7.29
Si -4.83 11.34 -3.63
Si -6.03 11.34 -0.51
Si -10.68  6.86  2.06
Si  3.66 11.52 -4.39
Si  3.50 -5.93 -10.86
Si -11.38 -0.04 -6.00
Si -3.29 -0.78 12.42
Si  6.99 -4.79  9.70
Si  1.38 -7.66 -10.28
Si  2.53  9.70 -8.12
Si -2.89 12.36  2.39
Si -7.63 -7.87  6.82
Si -3.06 11.37  5.32
Si -6.03  0.42 -11.42
Si -8.79 -9.19  2.40
Si -1.74  4.94 -11.84
Si  3.50 -5.93 10.97
Si -9.03  8.18 -4.41
Si -5.06  7.71  9.14
Si -11.12 -1.02  6.67
Si -3.06 11.37 -5.59
Si  2.12 12.64  2.40
Si -8.02 -10.05 -2.17
Si -2.89 -9.47 -8.52
Si -4.98 -8.43 -8.73
Si -4.78  2.30 -12.00
Si  1.36  9.93  8.47
Si -8.39  9.70  2.80
Si -0.18 -13.12  0.43
Si  4.08  8.35 -9.28
Si -10.54 -2.11 -7.57
Si -3.52 -3.47 12.19
Si -8.15 -7.87 -6.68
Si  8.78 -7.51  6.33
Si  6.77 -8.26  7.72
Si -5.27  4.43 -11.29
Si -1.23  3.71 12.63
Si  2.06  8.34 10.05
Si -1.54 -4.99 12.15
Si 12.97 -2.57 -0.86
Si 11.15  6.86  2.06
Si  8.90  7.43 -6.43
Si  3.51 -11.84  4.84
Si -8.34 -4.47 -9.35
Si  5.85  7.71  9.14
Si -12.11 -4.17 -3.62
Si  5.45 -11.72  3.18
Si -5.46 -11.72  3.18
Si  4.16 -12.66 -0.63
Si -7.40  9.99  4.84
Si -7.25 -10.31 -4.39
Si  1.00 -9.29  9.54
Si 13.04  1.72  2.40
Si 10.52  1.39 -8.14
Si -1.74 -5.97 -11.84
Si  6.09 11.34 -3.63
Si  5.65  4.43 -11.29
Si  2.90  0.86 -13.08
Si  6.99  6.12  9.70
Si  4.08 -2.56 12.54
Si -5.27 -6.48 10.54
