500
set: 1011.00  0.00  0.00
Si -0.42  1.27 -0.84
Si  0.44 -1.28  0.90
Si -1.29 -1.20 -0.89
Si  1.37  1.24  0.84
Si  2.15 -1.25 -0.83
Si -0.89  0.04  2.50
Si -2.23  1.21  0.82
Si  0.83 -0.05 -2.56
Si -3.13 -1.17  0.77
Si -0.01  2.49  2.50
Si  3.22  1.25 -0.84
Si -0.03 -2.53 -2.54
Si -2.75 -0.03 -2.46
Si  2.72 -0.01  2.52
Si -0.52 -3.62  0.84
Si  0.59  3.66 -0.89
Si  1.85  2.33 -2.54
Si -1.75  2.48 -2.48
Si -1.90 -2.37  2.50
Si  1.33 -3.61 -0.84
Si -1.25  3.69  0.77
Si  1.77 -2.45  2.58
Si -3.98  1.25 -0.84
Si  0.91 -0.10  4.17
Si  4.06 -1.17  0.77
Si -0.96  0.06 -4.21
Si -2.31 -3.58 -0.84
Si  2.32  3.57  0.90
Si -0.11 -2.48  4.15
Si  3.08 -3.65  0.82
Si -3.16  3.61 -0.83
Si  0.05  2.47 -4.20
Si  2.72 -0.03 -4.13
Si  3.56 -2.37 -2.48
Si -3.54  2.40  2.58
Si -3.63 -2.37 -2.48
Si -2.69  0.06  4.23
Si  3.66  2.40  2.58
Si  4.45 -0.03 -2.46
Si  1.78  2.38  4.15
Si -4.47 -0.01  2.52
Si  1.78 -2.44 -4.19
Si -1.83 -2.39 -4.20
Si  4.97  1.21  0.82
Si -1.81  2.40  4.25
Si -5.04 -1.25 -0.83
Si  4.04  3.61 -0.83
Si -0.86  4.83 -2.46
Si  0.84 -4.87  2.52
Si -4.11 -3.65  0.82
Si  1.00  4.90  2.50
Si -1.05 -4.91 -2.56
Si -0.35  1.23  5.82
Si -3.53  2.42 -4.19
Si  0.42 -1.19 -5.87
Si -5.83  1.24  0.84
Si  3.50 -2.45  4.25
Si  2.56 -4.88 -2.46
Si -2.59  4.84  2.52
Si  3.67  2.42 -4.19
Si  1.38  1.15 -5.81
Si  2.72  4.80 -2.56
Si  5.90 -1.20 -0.89
Si -4.48 -0.03 -4.13
Si -2.78 -4.82  2.50
Si -4.87  3.57  0.90
Si  4.89 -3.58 -0.84
Si -0.34  6.06  0.82
Si -1.36 -1.16  5.87
Si -3.69 -2.45  4.25
Si  0.27 -6.11 -0.83
Si  4.50  0.06  4.23
Si  5.30 -2.37  2.50
Si  1.47  6.13 -0.84
Si -5.34  2.33 -2.54
Si -1.45 -6.14  0.90
Si  2.28 -1.18  5.87
Si  0.83 -4.88 -4.13
Si  2.17 -6.03  0.77
Si -2.19  1.26 -5.94
Si  5.45  2.48 -2.48
Si -5.42 -2.45  2.58
Si -2.09  6.10 -0.84
Si -0.81  4.91  4.23
Si  0.93  4.92 -4.21
Si -0.97 -4.96  4.17
Si  3.10  1.18  5.88
Si  6.31  0.04  2.50
Si -3.17 -1.22 -5.89
Si -6.36 -0.05 -2.56
Si -2.59  4.83 -4.13
Si -3.18 -6.06 -0.89
Si -0.51 -3.71 -5.81
Si  2.62 -4.80  4.23
Si  2.80  4.76  4.17
Si -5.86 -3.61 -0.84
Si -6.76 -1.28  0.90
Si  6.78  1.27 -0.84
Si  0.52  3.70  5.87
Si  3.25  6.09  0.84
Si -2.84 -4.80 -4.21
Si  4.42 -4.82  2.50
Si -1.28  3.63 -5.89
Si  1.21 -3.68  5.88
Si  5.95  3.69  0.77
Si -4.48  4.80 -2.56
Si  4.61  4.84  2.52
Si -4.64 -4.88 -2.46
Si -2.24 -3.63  5.82
Si  5.36 -2.39 -4.20
Si -5.42  2.38  4.15
Si  4.03 -1.22 -5.89
Si -4.10  1.18  5.88
Si  5.39  2.40  4.25
Si -5.42 -2.44 -4.19
Si  2.31  3.67 -5.87
Si -3.94  6.09  0.84
Si  4.02 -6.06 -0.89
Si  6.24  0.06 -4.21
Si -6.29 -0.10  4.17
Si -3.03  3.67  5.87
Si -6.60  3.66 -0.89
Si  3.12 -3.60 -5.94
Si  6.68 -3.62  0.84
Si  0.42 -1.19  7.55
Si -0.35  1.23 -7.59
Si -4.40  4.76  4.17
Si  4.35 -4.80 -4.21
Si  0.14  7.34 -2.48
Si -4.92 -1.18  5.87
Si -0.11 -7.31  2.58
Si -1.36 -1.16 -7.55
Si -7.62  1.27 -0.84
Si  7.63 -1.28  0.90
Si  1.38  1.15  7.61
Si  1.68 -7.23 -2.48
Si  4.60  4.83 -4.13
Si -4.58 -4.80  4.23
Si  5.00  1.26 -5.94
Si -1.65  7.26  2.58
Si -5.02 -6.03  0.77
Si -2.19  1.26  7.48
Si  2.28 -1.18 -7.54
Si  1.87  7.34  2.50
Si  7.18  2.49  2.50
Si  5.11  6.10 -0.84
Si  7.17 -2.53 -2.54
Si -7.21  2.49  2.50
Si -1.92 -7.38 -2.54
Si -4.08 -3.60 -5.94
Si -7.23 -2.53 -2.54
Si  4.16  3.67  5.87
Si  3.10  1.18 -7.54
Si -3.17 -1.22  7.53
Si  6.14 -4.91 -2.56
Si -6.20  4.90  2.50
Si -5.82  1.15 -5.81
Si  6.33  4.83 -2.46
Si  5.83 -1.16  5.87
Si -3.46  7.19 -2.54
Si  3.41 -7.23  2.50
Si -6.36 -4.87  2.52
Si  0.08  7.26  4.25
Si -0.11 -7.30 -4.19
Si  0.52  3.70 -7.55
Si  8.03 -0.05 -2.56
Si  0.39 -6.04  5.87
Si -5.73  6.13 -0.84
Si -1.28  3.63  7.53
Si  5.75 -6.14  0.90
Si -8.09  0.04  2.50
Si  4.96 -3.63  5.82
Si -4.89  3.67 -5.87
Si  1.21 -3.68 -7.54
Si -0.51 -3.71  7.61
Si  3.74  7.19 -2.54
Si -0.55 -8.47 -0.84
Si -3.79 -7.23  2.50
Si -0.31  6.12 -5.94
Si -1.46 -6.05 -5.87
Si -1.65  7.27 -4.19
Si  1.54  6.08  5.82
Si -7.72 -3.62  0.84
Si  7.09 -2.48  4.15
Si -1.27  8.46 -0.83
Si  0.64  8.55  0.77
Si  1.62 -7.31  4.25
Si -8.49 -1.20 -0.89
Si  4.03 -1.22  7.53
Si  1.20 -8.51  0.82
Si -7.14  2.47 -4.20
Si  7.79  3.66 -0.89
Si -4.10  1.18 -7.54
Si -2.00 -7.34  4.15
Si  1.94  7.33 -4.20
Si  8.56  1.24  0.84
Si  2.31  3.67  7.55
Si -2.24 -3.63 -7.59
Si -2.21  6.04  5.88
Si  2.14 -6.08 -5.89
Si  7.25  2.47 -4.20
Si -7.30 -2.48  4.15
Si -2.41 -8.47  0.84
Si  3.12 -3.60  7.48
Si  2.48  8.51 -0.89
Si -3.03  3.67 -7.54
Si  3.27  6.00 -5.81
Si  6.22 -4.96  4.17
Si -2.99  8.43  0.90
Si  3.00 -8.44 -0.84
Si -6.27  4.92 -4.21
Si -3.25 -6.01  5.87
Si -6.37 -4.88 -4.13
Si -6.77 -1.19 -5.87
Si -3.53  7.23  4.15
Si  3.48 -7.24 -4.20
Si  6.85  1.23  5.82
Si -4.92 -1.18 -7.54
Si  5.00  1.26  7.48
Si  5.91  3.63 -5.89
Si  6.39  4.91  4.23
Si  3.66  7.23  4.15
Si  8.11 -0.10  4.17
Si -5.99 -3.68  5.88
Si -3.72 -7.24 -4.20
Si -8.15  0.06 -4.21
Si  6.86  6.06  0.82
Si -3.93  6.00 -5.81
Si -4.08 -3.60  7.48
Si -8.45  3.69  0.77
Si -0.96  0.06  9.21
Si -6.93 -6.11 -0.83
Si  3.95 -6.01  5.87
Si  0.91 -0.10 -9.25
Si  8.53 -3.61 -0.84
Si  4.16  3.67 -7.54
Si -5.32  7.34  2.50
Si  5.28 -7.38 -2.54
Si -5.52 -7.23 -2.48
Si -4.19 -8.44 -0.84
Si  4.21  8.43  0.90
Si  9.35 -1.25 -0.83
Si  5.55  7.26  2.58
Si -9.42  1.21  0.82
Si  0.05  2.47  9.21
Si -2.69  0.06 -9.19
Si -0.11 -2.48 -9.27
Si  6.69 -3.71 -5.81
Si -8.95  2.48 -2.48
Si  5.83 -1.16 -7.55
Si -7.55  1.23  5.82
Si -6.67  3.70  5.87
Si -5.82  1.15  7.61
Si  8.97 -2.45  2.58
Si -1.81  2.40 -9.17
Si -0.31  6.12  7.48
Si  0.39 -6.04 -7.54
Si  2.72 -0.03  9.29
Si  7.46 -6.11 -0.83
Si  9.05  2.33 -2.54
Si  7.62 -1.19 -5.87
Si -1.83 -2.39  9.21
Si -7.54  6.06  0.82
Si  1.78 -2.44  9.23
Si -4.89  3.67  7.55
Si -8.06  4.83 -2.46
Si  8.03 -4.87  2.52
Si -9.10 -2.37  2.50
Si  1.78  2.38 -9.27
Si  4.96 -3.63 -7.59
Si  4.79 -8.47  0.84
Si -4.72  8.51 -0.89
Si -1.46 -6.05  7.55
Si  4.98  6.04  5.88
Si  1.54  6.08 -7.59
Si -5.05 -6.08 -5.89
Si  8.19  4.90  2.50
Si  5.20 -7.34  4.15
Si -2.21  6.04 -7.54
Si  2.14 -6.08  7.53
Si -8.25 -4.91 -2.56
Si -5.26  7.33 -4.20
Si -0.70  9.70  2.52
Si  1.02  9.69 -2.46
Si  5.55  7.27 -4.19
Si  0.67 -9.74 -2.46
Si -1.05 -9.73  2.52
Si  3.50 -2.45 -9.17
Si -5.58 -7.31  4.25
Si -5.66  6.08  5.82
Si  8.97  2.38  4.15
Si -3.53  2.42  9.23
Si -3.25 -6.01 -7.55
Si -3.69 -2.45 -9.17
Si  5.73 -6.05 -5.87
Si -9.50 -3.58 -0.84
Si  8.97 -2.44 -4.19
Si  9.52  3.57  0.90
Si -6.77 -1.19  7.55
Si  3.67  2.42  9.23
Si  3.27  6.00  7.61
Si  4.50  0.06 -9.19
Si  9.92 -0.01  2.52
Si  5.91  3.63  7.53
Si -9.00  2.40  4.25
Si -9.03 -2.39 -4.20
Si -9.95 -0.03 -2.46
Si  8.03 -4.88 -4.13
Si  6.85  1.23 -7.59
Si -8.00  4.91  4.23
Si -5.99 -3.68 -7.54
Si  2.53 -9.67  2.50
Si -4.48 -0.03  9.29
Si -2.59  9.66 -2.56
Si -7.70 -3.71 -5.81
Si  0.60  8.49 -5.89
Si  5.93  8.46 -0.83
Si  7.72  3.70  5.87
Si -0.68 -8.54  5.88
Si  8.13  4.92 -4.21
Si  1.23 -8.45 -5.94
Si  8.57  1.15 -5.81
Si -1.15  8.53  5.87
Si -8.17 -4.96  4.17
Si -10.33 -1.17  0.77
Si  3.95 -6.01 -7.55
Si -6.00 -8.51  0.82
Si -8.56 -1.16  5.87
Si -0.81  4.91 -9.19
Si -3.93  6.00  7.61
Si  2.88  9.76  2.50
Si  0.93  4.92  9.21
Si -7.06  7.34 -2.48
Si  7.08 -7.31  2.58
Si -2.94 -9.77 -2.56
Si 10.42  1.25 -0.84
Si  0.83 -4.88  9.29
Si -0.97 -4.96 -9.25
Si -0.71  9.69 -4.13
Si  0.73 -9.66  4.23
Si -2.39 -8.57 -5.81
Si -1.05 -9.74 -4.13
Si -8.65 -6.14  0.90
Si  8.66  6.13 -0.84
Si  2.41  8.56  5.87
Si -7.31 -7.31  2.58
Si  7.33  7.34 -2.48
Si  2.62 -4.80 -9.19
Si  1.08  9.77  4.23
Si -6.67  3.70 -7.55
Si  9.91 -0.03 -4.13
Si  3.08 -8.49  5.82
Si -9.89  0.06  4.23
Si -2.84 -4.80  9.21
Si -3.00  8.52 -5.87
Si  2.80  4.76 -9.25
Si -2.51  9.61  4.17
Si -7.55  1.23 -7.59
Si -2.59  4.83  9.29
Si  6.69 -3.71  7.61
Si  7.62 -1.19  7.55
Si  6.64 -8.47 -0.84
Si -6.56  8.55  0.77
Si  2.47 -9.66 -4.21
Si -6.80 -6.04  5.87
Si  4.98  6.04 -7.54
Si  0.83 -0.05 10.86
Si  8.41 -3.68  5.88
Si  5.39  2.40 -9.17
Si  0.29 -10.88  0.77
Si -5.05 -6.08  7.53
Si  5.36 -2.39  9.21
Si 10.28 -3.65  0.82
Si -8.48  3.63 -5.89
Si -0.89  0.04 -10.91
Si -4.31  9.76  2.50
Si  4.26 -9.77 -2.56
Si  6.89  6.12 -5.94
Si -5.42 -2.44  9.23
Si -0.20 10.96 -0.84
Si -10.35  3.61 -0.83
Si -5.42  2.38 -9.27
Si  4.61  9.66 -2.56
Si  7.09 -7.30 -4.19
Si  2.82  9.77 -4.21
Si -7.12  7.26  4.25
Si -4.66 -9.67  2.50
Si -2.86 -9.81  4.17
Si  1.55 10.92  0.82
Si -4.12 -8.49  5.82
Si -1.62 -10.96 -0.83
Si  7.28  7.26  4.25
Si  6.24  0.06  9.21
Si -7.30 -7.30 -4.19
Si -9.29  6.10 -0.84
Si  2.13 -10.91 -0.89
Si -0.03 -2.53 10.87
Si  4.20  8.52 -5.87
Si  9.37 -6.03  0.77
Si -2.06 10.95  0.84
Si -9.39  1.26 -5.94
Si  9.76 -4.88 -2.46
Si -6.29 -0.10 -9.25
Si -0.01  2.49 -10.92
Si -9.79  4.84  2.52
Si  9.47 -1.18  5.87
Si  2.72 -0.01 -10.90
Si  5.73 -6.05  7.55
Si  1.77 -2.45 -10.84
Si -5.66  6.08 -7.59
Si  4.35 -4.80  9.21
Si -11.17  1.25 -0.84
Si  1.85  2.33 10.87
Si 10.76 -2.37 -2.48
Si -2.75 -0.02 10.96
Si -4.40  4.76 -9.25
Si -10.73  2.40  2.58
Si  9.92  4.80 -2.56
Si -4.58 -4.80 -9.19
Si -1.90 -2.37 -10.92
Si  7.59 -6.04  5.87
Si 11.26 -1.17  0.77
Si  1.23 -8.45  7.48
Si -9.97 -4.82  2.50
Si -1.75  2.48 10.94
Si -7.50  6.12 -5.94
Si -10.83 -2.37 -2.48
Si  0.60  8.49  7.53
Si -0.68 -8.54 -7.54
Si  4.80 -8.57 -5.81
Si  7.72  3.70 -7.55
Si 10.86  2.40  2.58
Si -4.79  8.56  5.87
Si  4.60  4.83  9.29
Si -1.15  8.53 -7.54
Si -7.70 -3.71  7.61
Si -8.56 -1.16 -7.55
Si  4.68  9.61  4.17
Si -4.38  9.77 -4.21
Si -7.75 -8.47 -0.84
Si  4.34 -9.81  4.17
Si  3.35 10.99 -0.84
Si  8.57  1.15  7.61
Si -3.34 -11.00  0.90
Si -4.73 -9.66 -4.21
Si  7.83  8.55  0.77
Si -3.54  2.40 -10.84
Si  2.41  8.56 -7.55
Si -9.43 -3.63  5.82
Si -3.85 10.99 -0.84
Si -9.79  4.83 -4.13
Si  3.66  2.40 -10.84
Si  3.86 -11.00  0.90
Si  0.08  7.26 -9.17
Si -2.39 -8.57  7.61
Si  8.87 -7.23 -2.48
Si  9.81 -4.80  4.23
Si -8.85  7.26  2.58
Si  3.56 -2.37 10.94
Si -6.17  9.69 -2.46
Si  9.51  3.67 -5.87
Si -0.11 -7.30  9.23
Si -10.73  2.42 -4.19
Si 10.70 -2.45  4.25
Si -3.63 -2.37 10.94
Si -3.00  8.52  7.55
Si  6.15 -9.73  2.52
Si -4.47 -0.01 -10.90
Si  3.08 -8.49 -7.59
Si -6.80 -6.04 -7.54
Si  4.45 -0.02 10.96
Si  9.99  4.76  4.17
Si 11.24  3.61 -0.83
Si  1.62 -7.31 -9.17
Si -1.65  7.27  9.23
Si  6.89  6.12  7.48
Si  8.41 -3.68 -7.54
Si 10.86  2.42 -4.19
Si -10.04 -4.80 -4.21
Si 11.64 -0.03 -2.46
Si -8.48  3.63  7.53
Si -11.31 -3.65  0.82
Si 10.29  1.18  5.88
Si -7.14  2.47  9.21
Si  7.09 -2.48 -9.27
Si -5.96 -8.45 -5.94
Si  1.94  7.33  9.21
Si  9.07  7.34  2.50
Si -11.67 -0.01  2.52
Si  6.49  9.70  2.52
Si -10.89 -2.45  4.25
Si -1.05 -4.91 10.86
Si  0.84 -4.87 -10.90
Si -6.52 -9.74 -2.46
Si  8.40 -8.51  0.82
Si  7.25  2.47  9.21
Si -10.37 -1.22 -5.89
Si -2.00 -7.34 -9.27
Si  6.05  8.53  5.87
Si -8.47  8.46 -0.83
