500
set: 1014.00  0.00  0.00
Si  0.39 -1.26  0.84
Si -0.38  1.25 -0.89
Si  1.32  1.15  0.89
Si -1.32 -1.21 -0.87
Si  2.17 -1.25 -0.79
Si  0.84 -0.12 -2.54
Si -2.25  1.23  0.86
Si -0.88  0.07  2.62
Si -3.17 -1.17  0.76
Si  3.16  1.20 -0.83
Si  0.03  2.51  2.52
Si -0.02 -2.49 -2.58
Si -2.63  0.00 -2.53
Si  2.76 -0.00  2.49
Si  0.57  3.65 -0.87
Si -0.57 -3.71  0.89
Si  1.72 -2.38  2.57
Si -1.86 -2.35  2.52
Si -1.74  2.48 -2.51
Si  1.27 -3.66 -0.83
Si  1.87  2.37 -2.58
Si -1.29  3.69  0.76
Si  0.93 -0.06  4.13
Si  4.03 -1.17  0.76
Si -0.92  0.08 -4.19
Si -4.04  1.20 -0.83
Si  2.28  3.60  0.84
Si -2.26 -3.61 -0.89
Si  0.06  2.50 -4.10
Si  3.06 -3.63  0.86
Si -3.14  3.60 -0.79
Si -0.10 -2.54  4.17
Si  2.67  0.05 -4.14
Si  3.57 -2.38 -2.51
Si -2.69  0.05  4.20
Si -3.63 -2.38 -2.51
Si -3.59  2.48  2.57
Si -1.83 -2.36 -4.10
Si  3.61  2.48  2.57
Si -4.44 -0.00  2.49
Si  1.78  2.31  4.17
Si -1.69  2.43  4.19
Si  4.95  1.23  0.86
Si  1.81 -2.43 -4.22
Si  4.57  0.00 -2.53
Si -5.03 -1.25 -0.79
Si  4.06  3.60 -0.79
Si -0.74  4.86 -2.53
Si  0.87 -4.86  2.49
Si -4.13 -3.63  0.86
Si  1.00  4.93  2.62
Si -1.05 -4.97 -2.54
Si  0.37 -1.28 -5.83
Si -0.38  1.22  5.84
Si -3.50  2.43 -4.22
Si -3.57 -2.42  4.19
Si -2.56  4.86  2.49
Si  2.73  4.74 -2.54
Si  3.62 -2.42  4.19
Si -5.88  1.15  0.89
Si  5.88 -1.21 -0.87
Si -1.32 -1.18  5.82
Si  2.68 -4.86 -2.53
Si  3.70  2.43 -4.22
Si -2.77 -4.79  2.62
Si  1.33  1.17 -5.87
Si -4.53  0.05 -4.14
Si -4.92  3.60  0.84
Si -0.36  6.08  0.86
Si  4.51  0.05  4.20
Si  0.28 -6.11 -0.79
Si  4.94 -3.61 -0.89
Si  5.34 -2.35  2.52
Si  1.51  6.11 -0.89
Si -1.50 -6.12  0.84
Si -5.33  2.37 -2.58
Si  0.78 -4.80 -4.14
Si  2.22 -1.23  5.88
Si  2.14 -6.03  0.76
Si -2.15  6.05 -0.83
Si -2.23  1.26 -5.96
Si -0.96 -4.92  4.13
Si  5.46  2.48 -2.51
Si -5.48 -2.38  2.57
Si -0.80  4.91  4.20
Si  0.97  4.94 -4.19
Si -3.19 -1.20 -5.85
Si  3.12  1.18  5.93
Si  6.32  0.07  2.62
Si -6.36 -0.12 -2.54
Si  3.20  6.01  0.89
Si  2.63 -4.81  4.20
Si  0.57  3.68  5.82
Si -3.21 -6.07 -0.87
Si  2.81  4.80  4.13
Si -2.80 -4.78 -4.19
Si -2.65  4.91 -4.14
Si -0.55 -3.69 -5.87
Si -6.81 -1.26  0.84
Si  6.82  1.25 -0.89
Si -4.47  4.74 -2.54
Si  5.91  3.69  0.76
Si -5.93 -3.66 -0.83
Si -1.30  3.65 -5.85
Si  4.43 -4.79  2.62
Si  1.23 -3.68  5.93
Si -4.52 -4.86 -2.53
Si  5.37 -2.36 -4.10
Si  4.64  4.86  2.49
Si  4.01 -1.20 -5.85
Si  2.26  3.58 -5.83
Si -5.42  2.31  4.17
Si -2.26 -3.64  5.84
Si -5.38 -2.43 -4.22
Si -3.99  6.01  0.89
Si -4.08  1.18  5.93
Si  3.99 -6.07 -0.87
Si  5.51  2.43  4.19
Si -6.27 -0.06  4.13
Si  6.28  0.08 -4.19
Si -3.10  3.62  5.88
Si  3.08 -3.60 -5.96
Si -6.63  3.65 -0.87
Si  6.63 -3.71  0.89
Si -0.17 -7.23  2.57
Si -0.38  1.22 -7.58
Si -4.38  4.80  4.13
Si  0.37 -1.28  7.60
Si -7.57  1.25 -0.89
Si  4.39 -4.78 -4.19
Si  7.59 -1.26  0.84
Si  1.33  1.17  7.55
Si  0.15  7.34 -2.51
Si -1.32 -1.18 -7.60
Si -4.98 -1.23  5.88
Si  1.68 -7.24 -2.51
Si -4.57 -4.81  4.20
Si  4.97  1.26 -5.96
Si  4.55  4.91 -4.14
Si -2.23  1.26  7.47
Si -5.06 -6.03  0.76
Si  5.05  6.05 -0.83
Si  2.22 -1.23 -7.54
Si -1.70  7.34  2.57
Si -7.17  2.51  2.52
Si  1.91  7.37  2.52
Si -1.90 -7.35 -2.58
Si  7.18 -2.49 -2.58
Si  4.10  3.62  5.88
Si  7.23  2.51  2.52
Si -7.22 -2.49 -2.58
Si -4.12 -3.60 -5.96
Si  3.12  1.18 -7.50
Si -3.19 -1.20  7.57
Si  6.15 -4.97 -2.54
Si -6.19  4.93  2.62
Si -6.33 -4.86  2.49
Si  5.88 -1.18  5.82
Si  3.45 -7.21  2.52
Si -5.86  1.17 -5.87
Si -5.69  6.11 -0.89
Si  5.70 -6.12  0.84
Si -3.44  7.22 -2.58
Si  0.20  7.29  4.19
Si -0.55 -3.69  7.55
Si -0.07 -7.29 -4.22
Si  8.04 -0.12 -2.54
Si -4.94  3.58 -5.83
Si  1.23 -3.68 -7.50
Si  0.57  3.68 -7.60
Si  6.46  4.86 -2.53
Si  4.94 -3.64  5.84
Si  0.33 -6.09  5.88
Si -8.08  0.07  2.62
Si -3.75 -7.21  2.52
Si -1.30  3.66  7.57
Si  3.76  7.22 -2.58
Si -0.34  6.12 -5.96
Si  1.51  6.08  5.84
Si -1.61  7.29 -4.22
Si  1.74 -7.28  4.19
Si -0.61 -8.52 -0.83
Si -1.25  8.46 -0.79
Si -1.51 -6.14 -5.83
Si -7.14  2.50 -4.10
Si  0.60  8.55  0.76
Si  1.18 -8.49  0.86
Si  7.09 -2.54  4.17
Si -4.08  1.18 -7.50
Si  7.77  3.65 -0.87
Si  8.52  1.15  0.89
Si  1.95  7.36 -4.10
Si -8.52 -1.21 -0.87
Si  4.01 -1.20  7.57
Si -7.77 -3.71  0.89
Si  2.12 -6.06 -5.85
Si  2.26  3.58  7.60
Si  7.26  2.50 -4.10
Si -2.26 -3.64 -7.58
Si -1.99 -7.40  4.17
Si -2.20  6.03  5.93
Si -7.30 -2.54  4.17
Si  3.08 -3.60  7.47
Si  2.45  8.51 -0.87
Si -3.10  3.62 -7.54
Si  6.24 -4.92  4.13
Si -2.46 -8.57  0.89
Si -3.21 -6.04  5.82
Si -6.23  4.94 -4.19
Si  3.49 -7.22 -4.10
Si  3.22  6.03 -5.87
Si -3.53  7.17  4.17
Si -6.42 -4.80 -4.14
Si -3.03  8.46  0.84
Si  3.05 -8.47 -0.89
Si  4.97  1.26  7.47
Si -6.83 -1.28 -5.83
Si  6.82  1.22  5.84
Si  3.67  7.17  4.17
Si  5.89  3.65 -5.85
Si -3.71 -7.22 -4.10
Si  6.40  4.91  4.20
Si  8.12 -0.06  4.13
Si -4.98 -1.23 -7.54
Si -8.12  0.08 -4.19
Si -5.97 -3.68  5.93
Si  6.84  6.08  0.86
Si -4.12 -3.60  7.47
Si -6.91 -6.11 -0.79
Si  8.47 -3.66 -0.83
Si -0.92  0.08  9.23
Si -8.48  3.69  0.76
Si  3.99 -6.04  5.82
Si -3.98  6.03 -5.87
Si  4.10  3.62 -7.54
Si  0.93 -0.06 -9.29
Si -5.28  7.37  2.52
Si  5.29 -7.35 -2.58
Si -5.51 -7.24 -2.51
Si  4.17  8.46  0.84
Si -4.15 -8.47 -0.89
Si  9.37 -1.25 -0.79
Si  5.50  7.34  2.57
Si -6.63  3.68  5.82
Si -9.45  1.23  0.86
Si  8.92 -2.38  2.57
Si -0.10 -2.55 -9.25
Si -2.69  0.05 -9.22
Si  6.65 -3.69 -5.87
Si -8.94  2.48 -2.51
Si -5.86  1.17  7.55
Si  7.57 -1.28 -5.83
Si -7.58  1.22  5.84
Si -7.94  4.86 -2.53
Si  0.06  2.50  9.33
Si  2.67  0.05  9.28
Si -0.34  6.12  7.47
Si  5.88 -1.18 -7.60
Si  1.81 -2.43  9.20
Si -9.06 -2.35  2.52
Si  7.48 -6.11 -0.79
Si -1.69  2.43 -9.24
Si  1.78  2.31 -9.25
Si  0.33 -6.09 -7.54
Si  9.07  2.37 -2.58
Si -7.56  6.08  0.86
Si -4.94  3.58  7.60
Si  8.07 -4.86  2.49
Si  4.94 -3.64 -7.58
Si -4.74  8.51 -0.87
Si -1.83 -2.36  9.33
Si  5.00  6.03  5.93
Si  1.51  6.08 -7.58
Si  4.74 -8.57  0.89
Si -5.08 -6.06 -5.85
Si -2.20  6.03 -7.50
Si -1.51 -6.14  7.60
Si  8.20  4.93  2.62
Si -5.25  7.36 -4.10
Si  2.12 -6.06  7.57
Si -8.24 -4.97 -2.54
Si  5.21 -7.40  4.17
Si -5.46 -7.28  4.19
Si -0.67  9.72  2.49
Si  0.80 -9.71 -2.53
Si -1.02 -9.72  2.49
Si  5.59  7.29 -4.22
Si  1.14  9.72 -2.53
Si -8.88  2.43  4.19
Si -3.50  2.43  9.20
Si -9.83  0.00 -2.53
Si -9.46 -3.61 -0.89
Si -5.69  6.08  5.84
Si  8.98  2.31  4.17
Si  9.48  3.60  0.84
Si  3.22  6.03  7.55
Si -9.03 -2.36 -4.10
Si  7.98 -4.80 -4.14
Si  5.69 -6.14 -5.83
Si -3.57 -2.43 -9.24
Si  3.70  2.43  9.20
Si  3.62 -2.43 -9.24
Si -3.21 -6.04 -7.60
Si  9.01 -2.43 -4.22
Si -2.58  9.60 -2.54
Si  9.96 -0.00  2.49
Si -5.97 -3.68 -7.50
Si  4.51  0.05 -9.22
Si  5.89  3.66  7.57
Si  6.82  1.22 -7.58
Si -8.00  4.91  4.20
Si -6.83 -1.28  7.60
Si  2.54 -9.65  2.62
Si -4.53  0.05  9.28
Si  0.58  8.51 -5.85
Si  5.95  8.46 -0.79
Si  7.77  3.68  5.82
Si -8.16 -4.92  4.13
Si -8.52 -1.18  5.82
Si -1.21  8.48  5.88
Si -7.75 -3.69 -5.87
Si  7.03 -7.23  2.57
Si  1.19 -8.46 -5.96
Si -0.66 -8.54  5.93
Si  8.53  1.17 -5.87
Si  8.17  4.94 -4.19
Si -6.02 -8.49  0.86
Si -3.98  6.03  7.55
Si 10.36  1.20 -0.83
Si -10.37 -1.17  0.76
Si -0.80  4.91 -9.22
Si -7.05  7.34 -2.51
Si  0.78 -4.80  9.28
Si  3.99 -6.04 -7.60
Si  0.97  4.94  9.23
Si  2.89  9.79  2.62
Si -0.96 -4.92 -9.29
Si  0.74 -9.67  4.20
Si -1.11 -9.66 -4.14
Si -2.93 -9.83 -2.54
Si  2.46  8.54  5.82
Si -7.36 -7.23  2.57
Si -0.76  9.77 -4.14
Si -2.44 -8.55 -5.87
Si -8.69 -6.12  0.84
Si  8.71  6.11 -0.89
Si  7.34  7.34 -2.51
Si  1.09  9.77  4.20
Si -3.05  8.44 -5.83
Si  9.86  0.05 -4.14
Si  6.65 -3.69  7.55
Si  2.63 -4.81 -9.22
Si -6.63  3.68 -7.60
Si -9.88  0.05  4.20
Si  3.05 -8.50  5.84
Si -2.80 -4.78  9.23
Si -7.58  1.22 -7.58
Si -2.50  9.65  4.13
Si  6.58 -8.52 -0.83
Si  7.57 -1.28  7.60
Si  2.51 -9.63 -4.19
Si -6.60  8.55  0.76
Si  2.81  4.79 -9.29
Si -2.65  4.91  9.28
Si -0.88  0.07 -10.81
Si  5.00  6.03 -7.50
Si -6.87 -6.09  5.88
Si  0.25 -10.89  0.76
Si  0.84 -0.12 10.88
Si 10.26 -3.63  0.86
Si -5.38 -2.43  9.20
Si -7.00  7.29  4.19
Si  8.43 -3.68  5.93
Si -5.08 -6.06  7.57
Si -0.27 10.91 -0.83
Si -8.50  3.65 -5.85
Si  6.86  6.12 -5.96
Si  4.61  9.60 -2.54
Si -5.42  2.31 -9.25
Si -10.34  3.60 -0.79
Si -2.85 -9.78  4.13
Si -4.31  9.79  2.62
Si  4.26 -9.83 -2.54
Si  5.37 -2.36  9.33
Si -4.66 -9.65  2.62
Si  5.51  2.43 -9.24
Si  7.12 -7.29 -4.22
Si  2.86  9.80 -4.19
Si  4.15  8.44 -5.83
Si  1.53 10.94  0.86
Si -2.11 10.87  0.89
Si -1.60 -10.97 -0.79
Si -4.15 -8.50  5.84
Si -0.02 -2.49 10.84
Si -7.27 -7.29 -4.22
Si  9.34 -6.03  0.76
Si  2.10 -10.93 -0.87
Si  6.28  0.08  9.23
Si  9.41 -1.23  5.88
Si -9.35  6.05 -0.83
Si -9.75  4.86  2.49
Si  0.03  2.51 -10.90
Si  7.40  7.29  4.19
Si -2.63  0.00 10.90
Si -6.27 -0.06 -9.29
Si -9.43  1.26 -5.96
Si  1.72 -2.38 -10.85
Si  1.87  2.37 10.84
Si -5.69  6.08 -7.58
Si  2.76 -0.00 -10.93
Si  4.40 -4.78  9.23
Si  9.93  4.74 -2.54
Si  9.88 -4.86 -2.53
Si  5.69 -6.14  7.60
Si -1.86 -2.35 -10.90
Si 11.22 -1.17  0.76
Si 10.77 -2.38 -2.51
Si -1.74  2.48 10.91
Si  7.53 -6.09  5.88
Si -11.24  1.20 -0.83
Si -4.39  4.79 -9.29
Si  1.20 -8.46  7.47
Si -4.57 -4.81 -9.22
Si -9.97 -4.79  2.62
Si -10.79  2.48  2.57
Si -10.83 -2.38 -2.51
Si -4.74  8.54  5.82
Si -0.66 -8.54 -7.50
Si 10.81  2.48  2.57
Si -7.54  6.12 -5.96
Si  0.58  8.51  7.57
Si  4.76 -8.55 -5.87
Si -1.21  8.48 -7.54
Si -7.75 -3.69  7.55
Si  4.55  4.91  9.28
Si  8.53  1.17  7.55
Si  7.77  3.68 -7.60
Si  4.35 -9.78  4.13
Si -8.52 -1.18 -7.60
Si  4.70  9.65  4.13
Si -4.69 -9.63 -4.19
Si -4.34  9.80 -4.19
Si  3.40 10.96 -0.89
Si -3.38 -10.98  0.84
Si -7.81 -8.52 -0.83
Si  7.80  8.55  0.76
Si -3.80 10.96 -0.89
Si  3.82 -10.98  0.84
Si -2.44 -8.55  7.55
Si  9.46  3.58 -5.83
Si  2.46  8.54 -7.60
Si -3.59  2.48 -10.85
Si -9.46 -3.64  5.84
Si  3.61  2.48 -10.85
Si  9.83 -4.81  4.20
Si  3.57 -2.38 10.91
Si -6.05  9.72 -2.53
Si  8.88 -7.24 -2.51
Si -0.07 -7.29  9.20
Si -3.63 -2.38 10.91
Si -10.70  2.43 -4.22
Si -9.85  4.91 -4.14
Si -3.05  8.44  7.60
Si  0.20  7.29 -9.24
Si  6.18 -9.72  2.49
Si  3.05 -8.50 -7.58
Si -4.44 -0.00 -10.93
Si -10.77 -2.42  4.19
Si  4.57  0.00 10.90
Si -8.90  7.34  2.57
Si  6.86  6.12  7.47
Si 10.01  4.80  4.13
Si 11.26  3.60 -0.79
Si -1.61  7.29  9.20
Si -10.00 -4.78 -4.19
Si 10.82 -2.42  4.19
Si  8.43 -3.68 -7.50
Si -6.87 -6.09 -7.54
Si  1.74 -7.28 -9.24
Si -11.64 -0.00  2.49
Si -6.40 -9.71 -2.53
Si  1.00  4.93 -10.81
Si -11.33 -3.63  0.86
Si  7.09 -2.55 -9.25
Si  5.99  8.48  5.88
Si 10.90  2.43 -4.22
Si 10.31  1.18  5.93
Si -0.74  4.86 10.90
Si -8.50  3.66  7.57
Si  8.38 -8.49  0.86
Si -6.00 -8.46 -5.96
Si  6.53  9.72  2.49
Si -9.10 -7.35 -2.58
Si -10.39 -1.20 -5.85
Si -8.45  8.46 -0.79
Si  9.11  7.37  2.52
Si  0.87 -4.86 -10.93
Si -7.14  2.50  9.33
Si -1.05 -4.97 10.88
Si -1.99 -7.40 -9.25
