500
set: 930.00  0.00  0.00
Si  0.38 -1.14  0.83
Si -0.41  1.14 -0.83
Si -1.31 -1.18 -0.81
Si  1.34  1.19  0.81
Si -2.13  1.16  0.83
Si  2.16 -1.15 -0.82
Si  0.87 -0.01 -2.44
Si -0.86 -0.02  2.45
Si -3.03 -1.15  0.80
Si  0.05  2.30  2.42
Si -0.02 -2.31 -2.46
Si  3.06  1.18 -0.83
Si -2.57  0.02 -2.41
Si  2.62 -0.00  2.42
Si  0.46  3.47 -0.79
Si -0.48 -3.48  0.83
Si  1.71 -2.32  2.42
Si  1.26 -3.49 -0.82
Si -1.76 -2.33  2.44
Si -1.30  3.48  0.84
Si -1.75  2.34 -2.46
Si  1.78  2.33 -2.46
Si  0.89 -0.00  4.04
Si -3.89  1.17 -0.81
Si -0.87  0.00 -4.06
Si  3.90 -1.20  0.78
Si  2.19  3.49  0.83
Si -2.22 -3.50 -0.79
Si -2.99  3.47 -0.80
Si -0.01 -2.35  4.02
Si  2.97 -3.50  0.81
Si  0.02  2.34 -4.06
Si  3.44 -2.34 -2.42
Si -2.60 -0.01  4.05
Si  2.61 -0.06 -4.06
Si -3.44  2.34  2.46
Si  3.49  2.33  2.46
Si -3.54 -2.31 -2.41
Si -4.74 -1.18 -0.77
Si  1.71 -2.31 -4.04
Si  4.33 -0.02 -2.44
Si -4.34  0.02  2.46
Si -1.74  2.35  4.07
Si -1.78 -2.32 -4.07
Si  1.76  2.36  4.06
Si  4.84  1.20  0.82
Si -0.86  4.66 -2.41
Si  0.81 -4.65  2.46
Si  3.94  3.48 -0.82
Si  0.91  4.64  2.44
Si -0.89 -4.64 -2.46
Si -3.98 -3.50  0.84
Si -5.59  1.20  0.82
Si  3.40 -2.30  4.07
Si -3.43  2.31 -4.05
Si  0.42 -1.13 -5.67
Si -0.44  1.17  5.66
Si -2.54  4.63  2.46
Si  3.47  2.32 -4.07
Si -3.53 -2.31  4.04
Si  2.57 -4.65 -2.44
Si  5.68 -1.18 -0.77
Si  0.38 -5.80 -0.83
Si -2.63 -4.67  2.42
Si -0.35  5.83  0.80
Si  2.66  4.67 -2.46
Si  4.31 -0.01  4.05
Si -1.32 -1.15  5.67
Si -4.34  0.01 -4.05
Si -4.77  3.48  0.81
Si  4.76 -3.50 -0.80
Si  1.33  1.14 -5.71
Si -1.34 -5.79  0.81
Si  1.37  5.79 -0.81
Si  2.13 -1.17  5.66
Si -5.18  2.32 -2.44
Si -2.06  5.79 -0.77
Si -2.19  1.18 -5.69
Si -0.92 -4.61  4.06
Si  5.21 -2.35  2.46
Si  2.16 -5.78  0.82
Si -5.22 -2.35  2.46
Si  0.79 -4.65 -4.07
Si -0.85  4.67  4.04
Si  5.25  2.32 -2.44
Si  0.90  4.66 -4.07
Si -3.08 -1.14 -5.67
Si -6.09 -0.02 -2.44
Si  3.05  1.18  5.69
Si  6.09  0.02  2.46
Si  3.06  5.84  0.83
Si -3.09 -5.83 -0.83
Si  2.56 -4.64  4.03
Si  0.47  3.49  5.67
Si -6.52 -1.20  0.78
Si  5.65  3.48  0.81
Si  2.67  4.63  4.02
Si  6.54  1.17 -0.81
Si -0.45 -3.49 -5.69
Si -5.67 -3.50 -0.80
Si -2.57  4.67 -4.08
Si -2.66 -4.64 -4.06
Si -4.31  4.63 -2.42
Si -1.26  3.48 -5.68
Si  4.30 -4.64  2.46
Si  1.27 -3.55  5.67
Si  4.38  4.66  2.42
Si -4.42 -4.63 -2.46
Si -3.91  1.18  5.65
Si -5.19  2.33  4.03
Si -3.84  5.77  0.78
Si  5.18 -2.31 -4.08
Si  3.90 -1.15 -5.70
Si  5.24  2.33  4.03
Si -2.21 -3.49  5.67
Si  3.86 -5.81 -0.81
Si  2.23  3.48 -5.69
Si -5.25 -2.31 -4.08
Si  2.97 -3.50 -5.68
Si -3.00  3.50  5.68
Si  6.09  0.01 -4.05
Si -6.11 -0.01  4.05
Si  0.45 -1.16  7.27
Si  6.45 -3.50  0.84
Si -0.06 -6.98  2.42
Si  0.11  6.99 -2.41
Si -0.42  1.16 -7.29
Si -6.49  3.48 -0.82
Si  4.74  1.19 -5.67
Si  1.32  1.18  7.27
Si -7.37  1.18 -0.83
Si -4.77 -1.18  5.67
Si -1.29 -1.18 -7.31
Si  7.39 -1.15  0.80
Si  4.31 -4.66 -4.05
Si -4.34  4.68  4.07
Si  4.39  4.66 -4.04
Si -4.42 -4.63  4.07
Si  1.66 -6.99 -2.44
Si  1.81  6.95  2.45
Si -4.80 -5.82  0.83
Si -1.66  6.99  2.46
Si  4.84  5.82 -0.82
Si -1.81 -6.99 -2.44
Si  6.89 -2.31 -2.41
Si  2.15 -1.16 -7.27
Si -6.93  2.33  2.46
Si  3.94  3.43  5.67
Si -2.20  1.17  7.32
Si -3.94 -3.50 -5.68
Si -6.99 -2.34 -2.42
Si  6.98  2.34  2.46
Si  6.00 -4.63 -2.46
Si -3.09 -1.15  7.28
Si -6.04  4.66  2.42
Si  3.05  1.17 -7.31
Si  6.11  4.63 -2.42
Si  0.08  6.96  4.05
Si -6.12 -4.64  2.46
Si  0.47  3.46 -7.28
Si  5.65 -1.18  5.67
Si -0.47 -3.50  7.29
Si -5.58  5.82 -0.82
Si -5.68  1.19 -5.67
Si -0.07 -7.04 -4.06
Si -3.41  6.96 -2.44
Si  3.41 -6.96  2.46
Si  5.62 -5.82  0.83
Si  0.37 -5.80  5.69
Si -0.40  5.83 -5.67
Si -7.80 -0.00  2.42
Si  4.75 -3.48  5.68
Si -0.52 -8.13 -0.82
Si  3.55  6.96 -2.44
Si  0.55  8.13  0.83
Si -4.77  3.48 -5.68
Si  1.28 -3.49 -7.31
Si -1.23  3.50  7.32
Si -3.54 -7.00  2.45
Si  7.86  0.02 -2.41
Si  1.63 -6.99  4.05
Si  1.36  5.83  5.67
Si -1.66  6.98 -4.05
Si  7.43  3.47 -0.80
Si -1.79 -6.98  4.04
Si -7.45 -3.50  0.81
Si  1.81  6.97 -4.06
Si -1.21  8.14 -0.81
Si -1.35 -5.83 -5.71
Si  1.23 -8.18  0.78
Si -3.88  1.14 -7.27
Si  6.90 -2.31  4.04
Si  3.91 -1.17  7.29
Si  2.06 -5.79 -5.67
Si  2.21  3.48  7.29
Si -2.20 -3.51 -7.28
Si -2.10  5.80  5.67
Si -8.26 -1.15 -0.82
Si -6.96  2.32 -4.07
Si  6.99  2.31 -4.05
Si  8.30  1.16  0.83
Si -7.02 -2.30  4.07
Si  2.27  8.11 -0.83
Si -2.29 -8.11  0.83
Si  6.00 -4.63  4.07
Si -3.00  3.50 -7.27
Si  2.99 -3.50  7.29
Si -6.03  4.66 -4.04
Si  6.08  4.68  4.07
Si -3.12 -5.80  5.66
Si -6.11 -4.66 -4.05
Si  6.51  1.18  5.65
Si  3.10  5.85 -5.67
Si -2.91  8.18  0.82
Si  3.01 -8.16 -0.77
Si  5.65  3.48 -5.68
Si -6.53 -1.15 -5.70
Si -5.67 -3.48  5.68
Si  3.41 -6.96 -4.05
Si -3.43  6.96  4.05
Si -4.78 -1.15 -7.28
Si  6.58  5.77  0.78
Si -6.57 -5.81 -0.81
Si -7.82 -0.06 -4.06
Si  4.77  1.15  7.32
Si  7.82 -0.01  4.05
Si  3.56  6.97  4.04
Si -3.55 -6.97 -4.06
Si  0.85  0.00 -8.90
Si  8.20 -3.50 -0.79
Si  3.84 -5.80  5.65
Si -8.23  3.49  0.83
Si -0.88 -0.02  8.94
Si -5.12  6.97  2.42
Si -3.91 -3.47  7.32
Si  5.18 -6.96 -2.41
Si -3.85  5.82 -5.70
Si  3.96  3.48 -7.31
Si -5.24 -6.96 -2.41
Si  5.30  6.97  2.42
Si -3.98 -8.16 -0.81
Si  4.01  8.16  0.81
Si -9.09  1.19  0.81
Si -0.00 -2.30 -8.91
Si  0.03  2.30  8.92
Si  9.12 -1.18 -0.81
Si -6.48  3.43  5.67
Si -2.64 -0.01 -8.89
Si  5.64 -1.15 -7.28
Si  2.60 -0.01  8.91
Si -8.64  2.33 -2.46
Si  8.66 -2.33  2.44
Si  6.49 -3.50 -5.68
Si -5.65  1.15  7.32
Si  8.68  2.34 -2.46
Si -0.41  5.83  7.28
Si -8.72 -2.32  2.42
Si  0.37 -5.80 -7.31
Si  7.34 -1.14 -5.67
Si  4.75 -3.47 -7.27
Si  1.72 -2.31  8.90
Si  1.72  2.35 -8.90
Si -4.75  3.47  7.29
Si -1.75 -2.35  8.90
Si -7.76  4.67 -2.46
Si -1.69  2.34 -8.93
Si -7.37  1.18  5.69
Si -1.35 -5.80  7.27
Si  7.80 -4.67  2.42
Si  7.33 -5.83 -0.83
Si  4.71 -8.12  0.80
Si  1.39  5.79 -7.31
Si  4.80  5.81  5.66
Si -7.36  5.84  0.83
Si -4.69  8.15 -0.83
Si -7.86 -4.65 -2.44
Si  7.88  4.63  2.46
Si -4.86 -5.79 -5.69
Si -5.14  6.91 -4.06
Si -2.11  5.83 -7.28
Si  5.15 -6.99  4.05
Si  2.10 -5.83  7.32
Si  5.28  6.91 -4.06
Si -5.28 -6.99  4.05
Si -0.97 -9.29  2.42
Si  0.76 -9.31 -2.42
Si -0.77  9.31  2.46
Si  0.93  9.31 -2.46
Si  9.12  3.48  0.84
Si  3.12  5.82  7.27
Si  8.64 -2.32 -4.07
Si -3.46 -2.33 -8.90
Si -3.10 -5.82 -7.29
Si  3.50 -2.29 -8.91
Si -9.16 -3.49 -0.82
Si  5.56 -5.79 -5.69
Si  6.54  1.14 -7.27
Si -6.52 -1.17  7.29
Si -5.67 -3.47 -7.27
Si  3.50  2.33  8.91
Si -3.40  2.30  8.96
Si -8.66  2.36  4.06
Si -9.55 -0.01 -2.44
Si  9.56 -0.02  2.45
Si  5.67  3.47  7.29
Si -5.62  5.81  5.66
Si  8.68  2.35  4.07
Si -8.71 -2.31 -4.04
Si -7.75  4.63  4.02
Si  4.31 -0.01 -8.92
Si  7.77 -4.64 -4.06
Si -4.33 -0.01  8.93
Si -2.50  9.30 -2.44
Si -0.55 -8.14  5.66
Si  0.49  8.15 -5.69
Si -5.71 -8.12  0.80
Si  2.53 -9.32  2.46
Si  2.73  9.28  2.42
Si -2.69 -9.28 -2.46
Si  7.43  3.50  5.68
Si -7.86 -4.64  4.03
Si -1.23  8.15  5.65
Si  1.22 -8.13 -5.70
Si  5.74  8.15 -0.83
Si -7.45 -3.50 -5.68
Si  7.85  4.67 -4.08
Si -0.79  4.64 -8.90
Si  0.93  4.63  8.90
Si -0.95 -4.62 -8.90
Si  0.82 -4.64  8.91
Si  8.24  1.18 -5.69
Si -3.84  5.81  7.29
Si -6.88  6.96 -2.44
Si  3.87 -5.84 -7.27
Si 10.01  1.14 -0.83
Si -8.29 -1.17  5.66
Si  6.88 -7.00  2.45
Si -8.27 -5.78  0.82
Si -10.04 -1.14  0.83
Si -2.26 -8.10 -5.67
Si  0.73 -9.27  4.07
Si -0.76  9.29 -4.05
Si  2.23  8.14  5.66
Si -0.96 -9.29 -4.04
Si  7.01  6.96 -2.44
Si -7.01 -6.96  2.46
Si  8.36  5.79 -0.77
Si  0.94  9.32  4.07
Si -9.54 -0.00  4.04
Si -6.46  3.48 -7.31
Si  2.97 -8.15  5.67
Si -3.00  8.16 -5.67
Si  9.55  0.00 -4.06
Si -2.55  4.66  8.93
Si  7.34 -1.15  7.28
Si  6.52 -3.47  7.32
Si -6.41  8.16  0.81
Si -2.64 -4.67  8.92
Si  2.68  4.67 -8.91
Si  2.56 -4.69 -8.95
Si  6.44 -8.16 -0.81
Si -6.59 -5.80  5.65
Si  2.50 -9.28 -4.08
Si -2.51  9.31  4.03
Si -7.38  1.17 -7.31
Si  6.58  5.82 -5.70
Si  4.21 -9.29 -2.41
Si -0.31 10.45 -0.80
Si  4.83  5.82 -7.27
Si -2.69 -9.32  4.02
Si  0.30 -10.47  0.81
Si  2.70  9.31 -4.06
Si -4.25  9.30  2.46
Si -4.88 -5.80  7.32
Si -0.88 -0.02 -10.53
Si  9.94 -3.48  0.83
Si -8.20  3.48 -5.69
Si  8.22 -3.49  5.67
Si  1.38 10.45  0.84
Si -9.97  3.47 -0.79
Si -6.86  6.97  4.04
Si  5.20 -2.32  8.93
Si -5.18  2.28 -8.95
Si -4.44 -9.30  2.44
Si -1.42 -10.47 -0.82
Si  0.85  0.00 10.56
Si -5.23 -2.32  8.93
Si  6.88 -6.97 -4.06
Si  4.46  9.31 -2.46
Si  5.24  2.28 -8.95
Si  6.99  6.96  4.05
Si -4.00 -8.12  5.67
Si -7.01 -6.96 -4.05
Si -2.10 10.45  0.81
Si  4.01  8.12 -5.71
Si  2.08 -10.48 -0.80
Si -9.05  5.79 -0.81
Si  9.11 -1.15  5.67
Si  0.03  2.30 -10.54
Si -0.00 -2.30 10.55
Si -9.09  1.14 -5.71
Si  9.08 -5.79  0.81
Si  6.10 -0.01  8.93
Si -6.11 -0.01 -8.92
Si -9.51  4.64  2.44
Si  5.55 -5.80  7.32
Si -5.59  5.82 -7.27
Si  2.60 -0.01 -10.55
Si  9.53 -4.64 -2.46
Si -2.64 -0.01 10.57
Si 10.81 -1.14  0.83
Si -10.37  2.30  2.42
Si  9.56  4.66 -2.41
Si  7.30 -5.80  5.66
Si -1.69  2.34 10.53
Si -0.52 -8.13 -7.27
Si -4.25  4.69 -8.91
Si -10.84  1.14 -0.83
Si  3.13 10.45 -0.79
Si 10.41 -2.31 -2.46
Si  4.67 -8.12 -5.67
Si  1.72 -2.31 -10.56
Si -9.61 -4.65  2.46
Si  1.72  2.35 10.56
Si -7.33  5.85 -5.67
Si -3.16 -10.46  0.83
Si -1.75 -2.35 -10.56
Si -1.20  8.11 -7.27
Si  0.48  8.15  7.32
Si  7.42  3.50 -7.27
Si  4.22 -9.28  4.04
Si -10.44 -2.31 -2.46
Si -4.37 -4.63 -8.93
Si  4.40  4.67  8.90
Si -7.43 -3.50  7.29
Si -4.70  8.15  5.69
Si 10.47  2.30  2.42
Si  4.34 -4.67  8.96
Si  1.23 -8.14  7.29
Si -4.28  9.30 -4.07
Si -7.42 -8.16 -0.77
Si  8.23  1.17  7.32
Si -8.27 -1.16 -7.27
Si -4.46 -9.29 -4.07
Si  4.44  9.34  4.06
Si -2.23 -8.13  7.27
Si  7.51  8.18  0.82
Si  2.25  8.13 -7.29
Si -3.81 10.46 -0.82
Si  3.77 -10.47  0.84
Si -3.40  2.30 -10.50
Si  0.04  6.97 -8.89
Si  2.96 -8.12 -7.28
Si -0.08 -6.98  8.91
Si  9.51 -4.61  4.06
Si -5.96  9.31 -2.46
Si  9.16  3.48 -5.68
Si  5.98 -9.30  2.44
Si -2.97  8.12  7.32
Si -8.61  6.95  2.45
Si -9.15 -3.55  5.67
Si  3.50 -2.29 10.55
Si -3.46 -2.33 10.56
Si  8.61 -6.99 -2.44
Si -9.53  4.66 -4.07
Si  3.50  2.33 -10.55
Si -4.33 -0.01 -10.53
Si  4.31 -0.01 10.54
Si  9.57  4.67  4.04
Si -6.56 -5.84 -7.27
Si 10.41 -2.35  4.02
Si -10.40  2.34 -4.06
Si  6.58  5.81  7.29
Si -10.43 -2.35  4.02
Si  6.17  9.30  2.46
Si -6.21 -9.29 -2.41
Si -1.65  6.96  8.93
Si -9.63 -4.65 -4.07
Si  1.64 -6.98 -8.92
Si 10.88  3.47 -0.79
Si 10.44  2.34 -4.06
Si -5.76 -8.12 -5.67
Si -1.82 -6.97 -8.90
Si  1.79  6.96  8.94
Si  5.73  8.15  5.69
Si -8.77 -6.99 -2.44
Si  8.76  6.99  2.46
Si -10.91 -3.48  0.83
Si -6.93 -2.29 -8.91
Si  8.13 -8.11  0.83
Si -8.22  3.48  7.29
Si -6.92  2.33  8.91
Si  8.22 -3.51 -7.28
Si  9.98  1.17  5.66
Si -8.16  8.11 -0.83
Si  6.96 -2.33 -8.90
Si -11.29 -0.02  2.45
Si -10.00 -1.13 -5.67
Si 11.29 -0.01 -2.44
Si  0.82 -4.64 -10.55
