500
set: 546.00  0.00  0.00
Si  0.00  0.00  0.00
Si -0.16  0.02 -2.25
Si  1.85  1.07  0.76
Si -1.85  1.07  0.76
Si -0.02 -2.19  0.76
Si  1.69 -1.05 -3.01
Si -1.69  1.05  3.01
Si  3.71  0.00  0.00
Si -3.71  0.00  0.00
Si -0.14  2.21 -3.01
Si  0.14 -2.21  3.01
Si -1.83  3.26  0.00
Si  1.83 -3.26  0.00
Si  1.87  3.26  0.00
Si -1.87 -3.26  0.00
Si  2.01  1.05  3.01
Si -2.01 -1.05 -3.01
Si  3.54  0.02 -2.25
Si  1.67 -3.24 -2.25
Si -1.71 -1.15  3.76
Si  0.16  2.12  3.76
Si  1.71  3.28 -2.25
Si  3.68 -2.19  0.76
Si -3.73 -2.19  0.76
Si  0.01  4.33  0.76
Si  1.99 -1.15  3.76
Si -2.03 -3.24 -2.25
Si -2.00  3.28 -2.25
Si -3.87  0.02 -2.25
Si -3.56 -2.21  3.01
Si  3.56  2.21 -3.01
Si  0.18  4.31  3.01
Si -0.18 -4.31 -3.01
Si -3.85  2.21 -3.01
Si  3.85 -2.21  3.01
Si  1.53 -1.02 -5.26
Si -3.55  2.12  3.76
Si  5.55  1.07  0.76
Si -5.56  1.07  0.76
Si -0.30  2.23 -5.26
Si -3.69  4.33  0.76
Si  3.72  4.33  0.76
Si -2.17 -1.02 -5.26
Si  3.86  2.12  3.76
Si  0.12 -4.41  3.76
Si  1.81 -5.45  0.76
Si -1.89 -5.45  0.76
Si  5.40 -1.05 -3.01
Si -5.40  1.05  3.01
Si  1.55  1.17 -6.01
Si -1.55 -1.17  6.01
Si  3.53 -4.31 -3.01
Si -3.53  4.31  3.01
Si -0.32 -2.09 -6.01
Si  0.32  2.09  6.01
Si  5.54 -3.26  0.00
Si -5.54  3.26  0.00
Si  5.58  3.26  0.00
Si -5.58 -3.26  0.00
Si  1.73  5.47 -3.01
Si -1.73 -5.47  3.01
Si -2.15  1.17 -6.01
Si  2.15 -1.17  6.01
Si -0.04 -6.52  0.00
Si  0.04  6.52  0.00
Si  3.88  4.31  3.01
Si -3.88 -4.31 -3.01
Si  5.72  1.05  3.01
Si -5.72 -1.05 -3.01
Si  1.98 -5.47  3.01
Si -1.98  5.47 -3.01
Si  3.40  2.23 -5.26
Si  5.38 -3.24 -2.25
Si -5.42 -1.15  3.76
Si  5.41  3.28 -2.25
Si -1.68  5.38  3.76
Si  0.30 -0.10  6.77
Si -0.34 -4.29 -5.26
Si -3.58 -4.41  3.76
Si  2.03  5.38  3.76
Si -0.20 -6.50 -2.25
Si -0.12  6.54 -2.25
Si  5.70 -1.15  3.76
Si  3.83 -4.41  3.76
Si -5.70  3.28 -2.25
Si -5.74 -3.24 -2.25
Si -4.01  2.23 -5.26
Si  3.39 -2.09 -6.01
Si -3.39  2.09  6.01
Si -7.41  0.00  0.00
Si  7.41  0.00  0.00
Si -0.28  4.43 -6.01
Si  0.28 -4.43  6.01
Si -3.67  6.52  0.00
Si  3.67 -6.52  0.00
Si  5.24 -1.02 -5.26
Si  3.74  6.52  0.00
Si -3.74 -6.52  0.00
Si  4.02  2.09  6.01
Si -4.02 -2.09 -6.01
Si  3.37 -4.29 -5.26
Si -3.41 -0.10  6.77
Si  7.25  0.02 -2.25
Si -1.54  3.16  6.77
Si -1.57 -3.36  6.77
Si  3.51 -6.50 -2.25
Si  7.39 -2.19  0.76
Si  1.57  5.50 -5.26
Si  2.17  3.16  6.77
Si -7.43 -2.19  0.76
Si  3.58  6.54 -2.25
Si  5.52 -5.45  0.76
Si -1.82  7.59  0.76
Si -5.59 -5.45  0.76
Si  2.13 -3.36  6.77
Si  1.89  7.59  0.76
Si  4.00 -0.10  6.77
Si -4.04 -4.29 -5.26
Si -7.57  0.02 -2.25
Si -2.14  5.50 -5.26
Si -3.90 -6.50 -2.25
Si -3.83  6.54 -2.25
Si -5.88 -1.02 -5.26
Si  5.26  1.17 -6.01
Si -5.26 -1.17  6.01
Si  7.27  2.21 -3.01
Si -7.27 -2.21  3.01
Si -1.52  5.35  6.01
Si  1.52 -5.35 -6.01
Si -3.42 -4.43  6.01
Si  3.42  4.43 -6.01
Si  5.43  5.47 -3.01
Si -5.43 -5.47  3.01
Si  1.66 -7.57 -3.01
Si -1.66  7.57  3.01
Si  2.19  5.35  6.01
Si -2.19 -5.35 -6.01
Si  2.05  7.57  3.01
Si -2.05 -7.57 -3.01
Si -7.55  2.21 -3.01
Si  7.55 -2.21  3.01
Si -7.25  2.12  3.76
Si -5.68  5.47 -3.01
Si  5.68 -5.47  3.01
Si -3.99  4.43 -6.01
Si  3.99 -4.43  6.01
Si  1.39  1.19 -8.27
Si -5.86  1.17 -6.01
Si  5.86 -1.17  6.01
Si -5.38  5.38  3.76
Si -0.48 -2.07 -8.27
Si -7.39  4.33  0.76
Si  7.42  4.33  0.76
Si -2.31  1.19 -8.27
Si  7.57  2.12  3.76
Si  5.73  5.38  3.76
Si -1.75 -7.67  3.76
Si -0.06 -8.71  0.76
Si  1.96 -7.67  3.76
Si -7.23  4.31  3.01
Si  7.23 -4.31 -3.01
Si  0.46 -0.12  9.02
Si -0.46  0.12 -9.02
Si  3.23 -2.07 -8.27
Si  7.11  2.23 -5.26
Si -5.24  3.16  6.77
Si -5.28 -3.36  6.77
Si  7.59  4.31  3.01
Si -7.59 -4.31 -3.01
Si  0.10 -8.73  3.01
Si -0.10  8.73 -3.01
Si  5.27  5.50 -5.26
Si -7.29 -4.41  3.76
Si  1.50 -7.55 -5.26
Si  0.33  6.42  6.77
Si  9.26  1.07  0.76
Si -9.27  1.07  0.76
Si -0.44  4.45 -8.27
Si -5.52  7.59  0.76
Si  0.19  8.64  3.76
Si  5.59  7.59  0.76
Si -2.21 -7.55 -5.26
Si  0.26 -6.62  6.77
Si  3.65 -8.71  0.76
Si -4.18 -2.07 -8.27
Si  7.53 -4.41  3.76
Si  5.87  3.16  6.77
Si -3.76 -8.71  0.76
Si -7.09  2.09  6.01
Si  7.09 -2.09 -6.01
Si  5.84 -3.36  6.77
Si  3.25  0.12 -9.02
Si -3.25 -0.12  9.02
Si -5.84  5.50 -5.26
Si  5.22 -5.35 -6.01
Si -5.22  5.35  6.01
Si -7.71  2.23 -5.26
Si -9.10  1.05  3.01
Si  9.10 -1.05 -3.01
Si -1.38  3.14  9.02
Si  1.38 -3.14 -9.02
Si  1.41  3.38 -9.02
Si -1.41 -3.38  9.02
Si -5.36  7.57  3.01
Si  5.36 -7.57 -3.01
Si  5.10  1.19 -8.27
Si  7.07 -4.29 -5.26
Si -9.24  3.26  0.00
Si  9.24 -3.26  0.00
Si -7.11 -0.10  6.77
Si -2.33 -3.14 -9.02
Si  2.33  3.14  9.02
Si  9.28  3.26  0.00
Si -9.28 -3.26  0.00
Si -7.37  6.52  0.00
Si  7.37 -6.52  0.00
Si  1.59  7.69 -6.01
Si -1.59 -7.69  6.01
Si  7.45  6.52  0.00
Si -7.45 -6.52  0.00
Si  2.29 -3.38  9.02
Si -2.29  3.38 -9.02
Si  9.08 -3.24 -2.25
Si -3.60 -8.73  3.01
Si  3.60  8.73 -3.01
Si -1.40  0.95  9.78
Si -3.37  6.42  6.77
Si  1.36 -5.33 -8.27
Si -4.16  0.12 -9.02
Si  4.16 -0.12  9.02
Si -9.12 -1.15  3.76
Si  3.26  4.45 -8.27
Si -9.42 -1.05 -3.01
Si  9.42  1.05  3.01
Si  1.80 -9.78  0.00
Si -1.80  9.78  0.00
Si  9.12  3.28 -2.25
Si -1.91 -9.78  0.00
Si  1.91  9.78  0.00
Si  7.21 -6.50 -2.25
Si  5.75  7.57  3.01
Si -5.75 -7.57 -3.01
Si  5.89  5.35  6.01
Si -5.89 -5.35 -6.01
Si -2.12  7.69 -6.01
Si  2.12 -7.69  6.01
Si -3.81  8.73 -3.01
Si  3.81 -8.73  3.01
Si -7.73 -2.09 -6.01
Si  7.73  2.09  6.01
Si  7.28  6.54 -2.25
Si -3.51  8.64  3.76
Si  0.44 -2.31  9.78
Si -3.44 -6.62  6.77
Si  2.31  0.95  9.78
Si -2.35 -5.33 -8.27
Si -5.46 -7.67  3.76
Si  1.64 -9.76 -2.25
Si  4.04  6.42  6.77
Si  9.40 -1.15  3.76
Si  3.90  8.64  3.76
Si  1.75  9.80 -2.25
Si -9.40  3.28 -2.25
Si -0.27  8.76 -5.26
Si -2.07 -9.76 -2.25
Si -7.54  6.54 -2.25
Si -9.44 -3.24 -2.25
Si  5.66 -7.67  3.76
Si -1.96  9.80 -2.25
Si -7.61 -6.50 -2.25
Si  7.71 -0.10  6.77
Si -4.15  4.45 -8.27
Si  3.96 -6.62  6.77
Si -6.02  1.19 -8.27
Si -7.75 -4.29 -5.26
Si  7.13  4.43 -6.01
Si -7.13 -4.43  6.01
Si  8.94 -1.02 -5.26
Si -0.35 -8.62 -6.01
Si  0.35  8.62  6.01
Si -3.27 -2.31  9.78
Si  5.20 -7.55 -5.26
Si  0.47  4.21  9.78
Si -7.69  4.43 -6.01
Si  7.69 -4.43  6.01
Si  9.22 -5.45  0.76
Si  3.44  8.76 -5.26
Si -9.30 -5.45  0.76
Si  5.08 -3.14 -9.02
Si -5.08  3.14  9.02
Si  8.96  1.17 -6.01
Si -8.96 -1.17  6.01
Si  4.14 -2.31  9.78
Si  0.05 10.85  0.76
Si  5.12  3.38 -9.02
Si -5.12 -3.38  9.02
Si -5.91 -7.55 -5.26
Si -3.97  8.76 -5.26
Si -9.58 -1.02 -5.26
Si  6.93 -2.07 -8.27
Si -3.35  8.62  6.01
Si  3.35 -8.62 -6.01
Si  5.06 -5.33 -8.27
Si -5.10  0.95  9.78
Si  9.14  5.47 -3.01
Si -9.14 -5.47  3.01
Si -0.49 -6.40 -9.02
Si  0.49  6.40  9.02
Si  5.29  7.69 -6.01
Si -5.29 -7.69  6.01
Si -11.11  0.00  0.00
Si 11.11  0.00  0.00
Si -3.23  4.21  9.78
Si 10.95  0.02 -2.25
Si -9.09  5.38  3.76
Si -0.42  6.64 -9.02
Si  0.42 -6.64  9.02
Si  5.50 -9.78  0.00
Si -5.50  9.78  0.00
Si  0.21 10.83  3.01
Si -0.21 -10.83 -3.01
Si -4.06 -8.62 -6.01
Si  4.06  8.62  6.01
Si -9.38  5.47 -3.01
Si  9.38 -5.47  3.01
Si  5.61  9.78  0.00
Si -5.61 -9.78  0.00
Si -0.62  0.14 -11.27
Si -6.03 -3.14 -9.02
Si  6.03  3.14  9.02
Si 11.09 -2.19  0.76
Si -1.43 -5.57  9.78
Si -6.00  3.38 -9.02
Si  6.00 -3.38  9.02
Si  5.34 -9.76 -2.25
Si  9.56 -1.17  6.01
Si -9.56  1.17 -6.01
Si  5.82 -7.69  6.01
Si -5.82  7.69 -6.01
Si -11.13 -2.19  0.76
Si -6.95 -0.12  9.02
Si  6.95  0.12 -9.02
Si  1.43  7.71 -8.27
Si  7.35 -8.71  0.76
Si  4.18  4.21  9.78
Si  5.45  9.80 -2.25
Si -3.65 10.85  0.76
Si  2.27 -5.57  9.78
Si  9.44  5.38  3.76
Si -11.28  0.02 -2.25
Si -7.47 -8.71  0.76
Si  3.75 10.85  0.76
Si  6.01  0.95  9.78
Si  3.21 -6.40 -9.02
Si -3.21  6.40  9.02
Si -2.28  7.71 -8.27
Si -5.67  9.80 -2.25
Si -6.05 -5.33 -8.27
Si  0.09 -10.93  3.76
Si -5.77 -9.76 -2.25
Si -10.97 -2.21  3.01
Si 10.97  2.21 -3.01
Si -7.89 -2.07 -8.27
Si -8.95  3.16  6.77
Si  3.28  6.64 -9.02
Si -3.28 -6.64  9.02
Si  3.09  0.14 -11.27
Si  6.97  4.45 -8.27
Si -7.08  6.42  6.77
Si -8.98 -3.36  6.77
Si  1.22 -3.12 -11.27
Si  8.98  5.50 -5.26
Si  3.49 -10.83 -3.01
Si -3.49 10.83  3.01
Si  7.30  8.73 -3.01
Si -7.30 -8.73  3.01
Si -10.96  2.12  3.76
Si  4.20  6.40  9.02
Si -4.20 -6.40 -9.02
Si  1.25  3.40 -11.27
Si -11.26  2.21 -3.01
Si 11.26 -2.21  3.01
Si -7.15 -6.62  6.77
Si -7.22  8.64  3.76
Si  3.92 10.83  3.01
Si -3.92 -10.83 -3.01
Si  7.51 -8.73  3.01
Si -7.51  8.73 -3.01
Si -1.50  9.68  6.77
Si -0.51 -8.59 -8.27
Si -11.10  4.33  0.76
Si -4.13  6.64 -9.02
Si  4.13 -6.64  9.02
Si -2.49 -3.12 -11.27
Si 11.13  4.33  0.76
Si -7.87  0.12 -9.02
Si  7.87 -0.12  9.02
Si -9.23  7.59  0.76
Si  2.20  9.68  6.77
Si  8.93 -5.35 -6.01
Si -8.93  5.35  6.01
Si  9.29  7.59  0.76
Si -0.37 -10.81 -5.26
Si -2.45  3.40 -11.27
Si 11.27  2.12  3.76
Si -4.32  0.14 -11.27
Si -1.61 -9.88  6.77
Si  7.60  8.64  3.76
Si -3.62 -10.93  3.76
Si  7.74  6.42  6.77
Si -1.24  0.93 12.03
Si  1.24 -0.93 -12.03
Si  1.78 -11.97  0.76
Si  8.80  1.19 -8.27
Si 10.94 -4.31 -3.01
Si -10.94  4.31  3.01
Si  9.58  3.16  6.77
Si -1.93 -11.97  0.76
Si  2.10 -9.88  6.77
Si  3.79 -10.93  3.76
Si  9.54 -3.36  6.77
Si  7.67 -6.62  6.77
Si -9.07  7.57  3.01
Si  9.07 -7.57 -3.01
Si -9.55  5.50 -5.26
Si -6.97 -2.31  9.78
Si 10.81  2.23 -5.26
Si -7.85  4.45 -8.27
Si -0.60  2.33 -12.03
Si  0.60 -2.33 12.03
Si -2.47 -0.93 -12.03
Si  2.47  0.93 12.03
Si  3.19 -8.59 -8.27
Si -5.14 -5.57  9.78
Si -1.36  7.47  9.78
Si  5.13  7.71 -8.27
Si -10.99 -4.41  3.76
Si 11.29  4.31  3.01
Si -11.29 -4.31 -3.01
Si  7.14  8.76 -5.26
Si  3.33 -10.81 -5.26
Si  9.46  7.57  3.01
Si -9.46 -7.57 -3.01
Si -1.76 -12.00  3.01
Si  1.76 12.00 -3.01
Si -0.25 10.95 -6.01
Si  0.25 -10.95  6.01
Si  1.94 -12.00  3.01
Si -1.94 12.00 -3.01
Si  2.34  7.47  9.78
Si -9.16 -7.67  3.76
Si -9.60 -5.35 -6.01
Si  9.60  5.35  6.01
Si -10.80  2.09  6.01
Si 10.80 -2.09 -6.01
Si -1.64 11.90  3.76
Si -3.11 -2.33 12.03
Si  3.11  2.33 -12.03
Si 11.23 -4.41  3.76
Si  2.06 11.90  3.76
Si -4.22 -8.59 -8.27
Si -7.06  8.62  6.01
Si  7.06 -8.62 -6.01
Si  9.36 -7.67  3.76
Si  4.92 -3.12 -11.27
Si -4.08 -10.81 -5.26
Si -6.94  4.21  9.78
Si 10.78 -4.29 -5.26
Si  5.98 -5.57  9.78
Si  7.85 -2.31  9.78
Si -0.63 -4.19 -12.03
Si  0.63  4.19 12.03
Si -10.82 -0.10  6.77
Si -11.42  2.23 -5.26
Si  4.96  3.40 -11.27
Si -7.68  8.76 -5.26
Si -5.98  7.71 -8.27
Si  8.91 -7.55 -5.26
Si -9.72  1.19 -8.27
Si -11.08  6.52  0.00
Si 11.08 -6.52  0.00
Si 10.92 -6.50 -2.25
Si -1.26 -1.27 12.78
Si -5.21  9.68  6.77
Si -11.15 -6.52  0.00
Si 11.15  6.52  0.00
Si  0.61  1.99 12.78
Si  3.46 10.95 -6.01
Si -3.46 -10.95  6.01
Si -0.65 -6.38 -11.27
Si  8.79 -3.14 -9.02
Si -8.79  3.14  9.02
Si  4.30 -2.33 12.03
Si -4.30  2.33 -12.03
Si 10.99  6.54 -2.25
Si 12.96  1.07  0.76
Si -12.97  1.07  0.76
Si  4.94 -0.93 -12.03
Si -4.94  0.93 12.03
Si -0.07 -13.04  0.00
