500
set: 681.00  0.00  0.00
Si -0.27  0.81  0.62
Si  0.94 -0.06 -0.93
Si -1.18 -1.64 -0.61
Si -1.45  1.49 -1.68
Si  1.85 -0.42  2.01
Si  2.32 -1.61  0.19
Si -2.71 -0.92  1.03
Si  1.61  2.68 -0.75
Si  0.81 -1.35 -2.84
Si  1.69  1.37 -2.58
Si -0.91 -1.55  2.95
Si -0.36  0.59  3.39
Si  3.28  0.91  0.68
Si -2.33  2.01  1.61
Si -1.43  3.43 -0.19
Si  3.26 -1.18 -1.92
Si  1.20 -3.61 -1.11
Si -2.26 -0.76 -3.19
Si -0.29  3.45  2.03
Si -0.48 -3.55  1.85
Si -2.63  0.20  3.20
Si -0.54  0.96 -4.00
Si  3.71  1.27 -1.53
Si -1.77 -3.15 -2.22
Si -1.80 -3.97  0.03
Si -3.86  1.77 -1.01
Si -4.00 -1.38 -1.37
Si  0.25  4.25 -1.35
Si  2.84 -2.93  1.89
Si  1.06 -2.33  3.82
Si -0.19  3.35 -3.35
Si  2.76  2.57  2.89
Si  0.80  2.34  4.07
Si -3.36 -2.21  2.80
Si  1.54  0.40  4.73
Si  2.40 -1.42 -4.27
Si -2.96  2.53 -3.37
Si  1.80  4.79  0.96
Si  4.82 -1.43  1.49
Si -1.78  2.12  4.54
Si  1.05 -5.17  0.96
Si  1.43  0.70 -5.20
Si -1.23 -2.40 -4.74
Si  1.07 -3.92 -3.65
Si -5.09 -1.43  1.49
Si  4.57  0.29  3.13
Si -2.93  4.78  1.13
Si  4.94  2.69  1.27
Si -4.97  2.69  1.27
Si -4.56  0.75 -3.52
Si -3.72  4.35 -1.19
Si -3.51  3.39  3.25
Si  3.91 -1.78  4.01
Si  3.63 -3.39 -3.17
Si  2.02  3.62 -4.18
Si -0.50 -5.72 -1.35
Si  3.76  4.58 -0.53
Si -1.12 -2.71  5.19
Si -0.43  0.66  5.93
Si  4.91 -3.37 -0.61
Si -5.00 -3.37 -0.61
Si -1.05  5.99  0.03
Si  0.58 -4.83  3.68
Si -4.11 -1.83 -4.19
Si  3.02 -5.38 -0.53
Si -5.33  0.29  3.13
Si -1.88  2.42 -5.39
Si  5.91 -1.38 -1.37
Si  3.78  4.16 -2.68
Si  4.90 -3.59  1.64
Si -5.00 -3.59  1.64
Si  6.05  1.77 -1.01
Si  2.51 -1.72  5.66
Si  5.34  0.75 -3.52
Si  1.33  5.13  3.68
Si -3.68 -5.18  1.13
Si  0.69  2.64 -5.86
Si -6.19  1.27 -1.53
Si  0.95 -2.03 -6.11
Si -0.46  0.89 -6.54
Si  4.39  4.46  2.20
Si  0.27  6.41  1.85
Si -3.66 -4.68 -3.09
Si  4.42  2.12  4.57
Si -6.63  0.91  0.68
Si  1.94  6.36 -1.11
Si -2.92  5.28 -3.09
Si -3.43 -4.26  4.11
Si -2.17 -6.53 -0.19
Si -1.04 -6.51  2.03
Si -1.79 -4.87 -4.63
Si  3.64 -5.50  2.20
Si -1.04  5.09 -4.63
Si  2.13  3.32  5.75
Si -6.65 -1.18 -1.92
Si  3.03 -5.80 -2.68
Si -2.15 -1.06  6.75
Si -1.02 -1.25 -6.98
Si  3.81 -1.48 -5.92
Si -0.94  4.79  5.30
Si -1.02  6.81 -2.22
Si -0.08  3.05  6.58
Si  2.89 -4.33 -5.07
Si -4.47 -5.62 -1.19
Si -2.74  0.51 -6.73
Si  1.82  6.04 -3.65
Si  4.31  2.42 -5.36
Si -4.00 -2.13  5.75
Si  7.20 -0.92  1.03
Si  0.92 -1.65  7.09
Si  3.00 -4.63  4.87
Si  0.86 -7.29 -0.75
Si  5.80 -1.83 -4.19
Si -4.31  4.18 -4.36
Si -5.52  4.46  2.20
Si -6.00 -1.78  4.01
Si -5.49  2.12  4.57
Si  6.55 -2.21  2.80
Si -0.94 -6.62 -3.35
Si -2.85  2.23  6.56
Si -2.68  5.71  4.11
Si -1.69 -5.17  5.30
Si  1.80  1.07  7.35
Si  6.19  4.35 -1.19
Si  1.18 -4.22  6.28
Si -6.14  4.58 -0.53
Si  1.27 -6.35 -4.18
Si  0.47 -4.53 -6.25
Si -7.59 -1.61  0.19
Si -6.28 -3.39 -3.17
Si -4.46  0.45  6.42
Si -4.26  6.37  1.64
Si -4.25  6.60 -0.61
Si -6.13  4.16 -2.68
Si -3.54 -3.96 -5.82
Si -7.07 -2.93  1.89
Si  5.44 -5.62 -1.19
Si  6.40  3.39  3.25
Si  7.28  0.20  3.20
Si -4.20  3.88  5.57
Si  7.57  2.01  1.61
Si  2.66  2.87 -7.04
Si  1.74 -0.12 -7.92
Si -5.59  2.42 -5.36
Si  3.58  7.04  1.89
Si -7.14  2.57  2.89
Si  6.95  2.53 -3.37
Si  3.75  5.33  4.87
Si  4.46  0.59 -6.80
Si -3.47 -1.91 -7.13
Si  6.23 -5.18  1.13
Si  2.02 -7.40  2.89
Si  5.60  4.18 -4.36
Si -8.06 -0.42  2.01
Si  7.65 -0.76 -3.19
Si -0.43  8.33 -0.61
Si  1.22  5.43 -6.25
Si  6.25 -4.68 -3.09
Si  3.64  5.63 -5.07
Si  5.45  0.45  6.42
Si -1.34  1.19  8.25
Si -3.61  3.69 -6.68
Si -4.25 -6.58  3.25
Si  4.19 -7.27  1.27
Si  4.38  6.58 -3.17
Si  5.91 -2.13  5.75
Si  6.98  4.78  1.13
Si  3.74 -3.69  6.76
Si -1.66 -3.45  7.71
Si -6.26 -5.50  2.20
Si -6.10 -1.48 -5.92
Si  0.05 -7.63  4.07
Si -2.61  7.75  2.80
Si  5.65  6.37  1.64
Si -3.08 -7.96  1.61
Si  5.66  6.60 -0.61
Si  4.85 -5.79 -4.36
Si -8.22  1.37 -2.58
Si  1.93  5.74  6.28
Si  1.81  7.63  3.82
Si -5.44  0.59 -6.80
Si -0.59 -3.25 -8.08
Si  8.46  1.49 -1.68
Si -7.50 -1.42 -4.27
Si -0.40  3.75 -7.90
Si -8.30  2.68 -0.75
Si -6.89 -5.38 -0.53
Si  6.48 -4.26  4.11
Si  3.37 -1.48  8.01
Si -2.79  6.01 -5.82
Si -5.05 -5.79 -4.36
Si  5.71  3.88  5.57
Si  2.73 -2.63 -8.05
Si  1.38 -6.65  5.75
Si  8.73 -1.64 -0.61
Si  3.07  8.36  0.19
Si -2.20 -8.47 -1.68
Si -2.81  4.98  6.84
Si -0.16  8.41  2.95
Si -0.37  7.26  5.19
Si -0.48  7.56 -4.74
Si -3.71 -7.44 -3.37
Si -2.44  2.31 -8.32
Si  8.14 -3.15 -2.22
Si -8.96 -0.06 -0.93
Si  0.94 -8.59 -2.58
Si  8.11 -3.97  0.03
Si  1.05 -0.36  9.00
Si  3.89  3.86  7.25
Si  8.48  3.43 -0.19
Si -5.53  6.58 -3.17
Si -3.56 -4.98  6.84
Si  1.56  8.61 -2.84
Si -1.01 -9.16  0.62
Si  5.65 -6.58  3.25
Si -3.25  8.58 -1.37
Si  3.82  0.97  8.40
Si  6.99  5.28 -3.09
Si -1.96  9.04  1.03
Si  2.97 -8.70 -1.53
Si -5.72 -7.27  1.27
Si -2.82 -0.62 -8.90
Si -0.05 -7.33 -5.86
Si -0.37  1.11 -9.31
Si -6.87 -5.80 -2.68
Si -2.52 -7.85  4.54
Si  2.53 -9.06  0.68
Si -4.61 -8.19 -1.01
Si  0.36  3.95  8.58
Si -8.11  4.79  0.96
Si -7.40 -1.72  5.66
Si -6.16  5.33  4.87
Si  6.37 -3.96 -5.82
Si -8.71 -3.61 -1.11
Si  8.13  2.12  4.54
Si -3.89 -1.68  8.56
Si -0.83 -6.92  6.58
Si -1.07 -1.94  9.32
Si  9.00 -1.55  2.95
Si -4.95 -6.08  5.57
Si -8.37  0.40  4.73
Si -9.10 -1.35 -2.84
Si  4.96 -6.08  5.57
Si -7.89  3.62 -4.18
Si -6.91 -4.63  4.87
Si  1.71  2.38  9.19
Si -2.63 -7.55 -5.39
Si -6.32  7.04  1.89
Si -7.01 -4.33 -5.07
Si -4.34  8.53  1.49
Si  9.64  0.81  0.62
Si  4.71 -1.13 -8.44
Si  1.30 -3.91  8.82
Si -3.36  8.13 -4.19
Si  3.67 -7.84  4.57
Si -3.75  1.48  8.92
Si  6.44 -1.91 -7.13
Si  5.30 -8.19 -1.01
Si -6.27  5.63 -5.07
Si  7.17  0.51 -6.73
Si  4.01  8.79 -1.92
Si  3.17  1.21 -9.25
Si -1.51  9.21 -3.19
Si -6.17 -3.69  6.76
Si  7.06  2.23  6.56
Si  6.29  3.69 -6.68
Si  3.57 -7.54 -5.36
Si -8.85 -2.33  3.82
Si -1.28 -9.01 -4.00
Si  8.03  2.42 -5.39
Si  3.54 -5.20 -7.73
Si -8.48  0.70 -5.20
Si -5.20 -1.13 -8.44
Si  3.14 -6.10  7.25
Si -1.10 -9.38  3.39
Si  4.28  4.76 -7.73
Si  3.15  8.54 -4.27
Si  0.20 -10.02 -0.93
Si  2.21 -1.31 -9.74
Si  7.23  5.71  4.11
Si  2.60  9.54  2.01
Si  1.69  9.91 -0.93
Si -1.15 -6.21 -7.90
Si  7.73 -6.53 -0.19
Si  4.80 -3.29 -8.29
Si -0.91  6.51  7.71
Si  9.55  0.59  3.39
Si -4.36 -6.28 -6.68
Si  1.70  7.93 -6.11
Si  1.91 -7.10 -7.04
Si  8.68 -2.40 -4.74
Si -6.02  3.86  7.25
Si -10.17  0.81  0.62
Si -7.78  3.32  5.75
Si  4.66  8.18  4.01
Si  9.37  0.96 -4.00
Si  9.43 -3.55  1.85
Si -3.25  7.83  5.75
Si -9.11  2.34  4.07
Si  0.95 -4.87 -8.97
Si -7.96  6.36 -1.11
Si  6.20 -7.44 -3.37
Si  4.48  6.28  6.76
Si -5.11 -3.29 -8.29
Si -3.61  4.05  8.75
Si  5.56  8.53  1.49
Si -8.85 -5.17  0.96
Si -1.32  3.13  9.74
Si -8.84 -3.92 -3.65
Si  7.76 -1.06  6.75
Si  4.83  2.99 -8.66
Si  9.62  3.45  2.03
Si -6.08  0.97  8.40
Si  1.70  5.09 -8.97
Si -6.54 -1.48  8.01
Si -5.08  2.99 -8.66
Si -0.39 -6.02  8.58
Si  0.16  6.71 -8.08
Si -7.25  2.87 -7.04
Si  3.26  8.24  5.66
Si -5.25  8.18  4.01
Si  8.12 -4.87 -4.63
Si  8.79 -2.71  5.19
Si -0.16  0.51 10.55
Si  6.35 -4.98  6.84
Si  2.43 -1.91 10.12
Si  6.02 -1.68  8.56
Si  6.83 -7.96  1.61
Si -3.04  5.08 -8.80
Si -9.66  4.25 -1.35
Si  1.10 -10.39  2.01
Si  0.68 -9.26 -5.20
Si -8.58  5.13  3.68
Si -5.62  4.76 -7.73
Si  8.86  5.99  0.03
Si  0.79 -9.56  4.73
Si -1.29 -1.34 -10.54
Si -5.42  6.28  6.76
Si  5.54 -6.28 -6.68
Si -8.09  6.04 -3.65
Si -1.91 -3.67 -9.91
Si -3.79 -4.88 -8.80
Si -5.90  8.79 -1.92
Si -3.60 -7.74  6.56
Si -6.84  8.36  0.19
Si  0.48 10.77  0.62
Si -3.38 -9.76  3.20
Si  9.72  3.35 -3.35
Si -10.26  0.59  3.39
Si -1.89 10.17  3.20
Si  3.83 -9.68  3.13
Si  4.59 -9.21 -3.52
Si  2.05  6.06  8.82
Si 10.85 -0.06 -0.93
Si -1.53  3.73 -10.12
Si  0.84  0.24 -10.87
Si  6.16  1.48  8.92
Si  6.66  8.58 -1.37
Si -10.20  3.45  2.03
Si -1.69 -4.27  9.96
Si  7.12  6.01 -5.82
Si -8.11  1.07  7.35
Si  7.30  7.75  2.80
Si -6.24 -7.84  4.57
Si -8.96 -2.03 -6.11
Si  3.87  4.28  9.40
Si  7.10  4.98  6.84
Si  1.67  8.31  7.09
Si  8.22 -5.17  5.30
Si  0.39 10.55  3.39
Si  9.41 -5.72 -1.35
Si 10.16  4.25 -1.35
Si -2.72  8.05 -7.13
Si -1.18 -9.31  5.93
Si -7.18 -2.63 -8.05
Si -9.33 -4.83  3.68
Si -10.39 -3.55  1.85
Si -4.89 -3.67  9.32
Si -10.10  3.35 -3.35
Si  3.38  0.61 10.61
Si -0.27  8.71 -6.98
Si 10.72 -1.35 -2.84
Si  1.50  2.98 -10.68
Si  8.87 -6.51  2.03
Si -7.89 -7.40  2.89
Si  9.48  0.66  5.93
Si -5.31 -9.21 -3.52
Si  5.02 -3.67  9.32
Si -6.34 -7.54 -5.36
Si  8.86  5.09 -4.63
Si -11.09 -1.64 -0.61
Si -10.44  0.96 -4.00
Si -6.94 -8.70 -1.53
Si -9.21  2.64 -5.86
Si  6.55  8.13 -4.19
Si -1.21 -9.08 -6.54
Si -1.40  8.91  6.75
Si -6.37 -5.20 -7.73
Si  4.55  8.48 -5.92
Si -10.82 -1.55  2.95
Si -2.60 -1.22 10.96
Si  8.89 -1.25 -6.98
Si -8.16 -0.12 -7.92
Si  7.09 -0.62 -8.90
Si  7.46  2.31 -8.32
Si  8.89  6.81 -2.22
Si  3.12 -5.68  9.40
Si -4.36 -5.92  8.75
Si  3.48  7.34 -8.05
Si -3.46 -10.89  1.03
Si  8.97  4.79  5.30
Si -4.36  6.67 -8.29
Si -8.64 -6.35 -4.18
Si -6.74  1.21 -9.25
Si -0.94  5.69  9.96
Si  6.30  4.05  8.75
Si  9.45  0.89 -6.54
Si -8.73 -4.22  6.28
Si -8.99 -1.65  7.09
Si  7.71 -8.47 -1.68
Si  2.51 -11.14 -1.92
Si -11.36  1.49 -1.68
Si  1.09 -3.31 -11.05
Si -3.00 -10.72 -3.19
Si  1.05 -8.89  7.35
Si -0.70 11.46 -1.68
Si  4.03 10.87  0.68
Si  2.29 10.37  4.73
Si  0.21 10.92 -4.00
Si  8.97 -6.62 -3.35
Si -6.77 -6.10  7.25
Si -9.05 -7.29 -0.75
Si -5.35  8.48 -5.92
Si -4.59 10.25  3.13
Si -7.98  5.74  6.28
Si  0.06 -11.31 -2.84
Si  1.57 -11.57  0.19
Si 10.71  2.34  4.07
Si  7.38 -7.85  4.54
Si -6.76  8.54 -4.27
Si -7.38 -9.06  0.68
Si 11.10 -3.61 -1.11
Si -9.64  6.41  1.85
Si -3.19 -7.66 -8.32
Si -8.10  7.63  3.82
Si -1.93 -11.60 -0.61
Si  6.66  7.83  5.75
Si  6.12 -4.88 -8.80
Si  7.28 -7.55 -5.39
Si -1.16  6.29 -9.91
Si  8.25 -3.45  7.71
Si -3.97  2.07 -10.94
Si 11.51  2.68 -0.75
Si -11.34  3.43 -0.19
Si  4.08 -6.97 -8.66
Si 10.97 -2.33  3.82
Si -6.08 -9.68  3.13
Si -1.56  1.79 -11.61
Si  2.44 11.34 -2.58
Si -2.23  1.71 11.54
Si -3.82 10.71 -3.52
Si  5.55 -5.92  8.75
Si -10.34  0.66  5.93
Si 11.76 -0.42  2.01
Si  1.91  4.49 10.90
Si  6.31 -7.74  6.56
Si -10.41 -5.72 -1.35
Si  8.56  1.19  8.25
Si  0.96 -7.59  9.19
Si 11.60  1.37 -2.58
Si -6.04  4.28  9.40
Si  5.32 10.25  3.13
Si  4.80 -3.07 -10.54
Si  2.91 -5.08 -10.46
Si -4.14  6.30  9.32
Si  5.54  6.67 -8.29
Si -8.69  5.43 -6.25
Si -1.66 -11.52  2.95
Si -6.65  8.24  5.66
Si  2.18 10.67 -5.20
Si -4.11 -1.08 -11.30
Si -2.07 -6.83  9.74
Si  7.95  9.04  1.03
Si -2.28 -6.23 -10.12
Si -5.11 -3.07 -10.54
Si  3.65  4.88 -10.46
Si  3.61  1.57 -11.46
Si 10.49 -4.83  3.68
Si -3.49 -9.46 -6.73
Si  1.96 -0.72 11.94
Si  3.72 -9.38 -6.80
Si 10.96 -5.17  0.96
Si  0.14  4.55 -11.28
Si  0.32 10.62  5.93
Si 10.17  6.41  1.85
Si  6.53 -9.76  3.20
Si -1.59 11.97  1.61
Si  4.46 11.23 -1.53
Si -3.11 11.74 -1.01
Si -7.31  9.54  2.01
