500
set: 24.00  0.00  0.00
Si  0.00  0.00  0.00
Si -0.04 -0.13 -2.47
Si  0.04  0.13  2.47
Si  1.41  2.21  0.00
Si -1.41 -2.21  0.00
Si  1.47 -2.21  0.00
Si -1.47  2.21  0.00
Si  2.88  0.00  0.00
Si -2.88  0.00  0.00
Si  1.37  2.08 -2.47
Si -1.37 -2.08  2.47
Si -1.51  2.08 -2.47
Si  1.51 -2.08  2.47
Si -1.42  2.34  2.47
Si  1.42 -2.34 -2.47
Si  1.46  2.34  2.47
Si -1.46 -2.34 -2.47
Si  2.83 -0.13 -2.47
Si -2.83  0.13  2.47
Si  2.92  0.13  2.47
Si -2.92 -0.13 -2.47
Si  0.05 -4.42  0.00
Si -0.05  4.42  0.00
Si -4.29 -2.21  0.00
Si  4.29  2.21  0.00
Si  4.34 -2.21  0.00
Si -4.34  2.21  0.00
Si  0.09  0.26  4.94
Si -0.09 -0.26 -4.94
Si -0.10  4.29 -2.47
Si  0.10 -4.29  2.47
Si -0.01  4.55  2.47
Si  0.01 -4.55 -2.47
Si -2.83 -4.42  0.00
Si  2.83  4.42  0.00
Si  2.93 -4.42  0.00
Si -2.93  4.42  0.00
Si -4.25 -2.08  2.47
Si  4.25  2.08 -2.47
Si  4.39 -2.08  2.47
Si -4.39  2.08 -2.47
Si -1.33 -1.95  4.94
Si  1.33  1.95 -4.94
Si  4.30 -2.34 -2.47
Si -4.30  2.34  2.47
Si  4.33  2.34  2.47
Si -4.33 -2.34 -2.47
Si -1.55  1.95 -4.94
Si  1.55 -1.95  4.94
Si -2.78 -4.29  2.47
Si  2.78  4.29 -2.47
Si  2.79 -0.26 -4.94
Si -2.79  0.26  4.94
Si  1.38 -2.47 -4.94
Si -1.38  2.47  4.94
Si  1.50  2.47  4.94
Si -1.50 -2.47 -4.94
Si  5.76  0.00  0.00
Si -5.76  0.00  0.00
Si -2.96 -0.26 -4.94
Si  2.96  0.26  4.94
Si  2.97 -4.29  2.47
Si -2.97  4.29 -2.47
Si  2.87  4.55  2.47
Si -2.87 -4.55 -2.47
Si  2.89 -4.55 -2.47
Si -2.89  4.55  2.47
Si -5.71  0.13  2.47
Si  5.71 -0.13 -2.47
Si  5.80  0.13  2.47
Si -5.80 -0.13 -2.47
Si -0.14  4.16 -4.94
Si  0.14 -4.16  4.94
Si -1.36 -6.63  0.00
Si  1.36  6.63  0.00
Si  4.21  1.95 -4.94
Si -4.21 -1.95  4.94
Si  1.52 -6.63  0.00
Si -1.52  6.63  0.00
Si -0.03 -4.68 -4.94
Si  0.03  4.68  4.94
Si -4.43  1.95 -4.94
Si  4.43 -1.95  4.94
Si  4.26 -2.47 -4.94
Si -4.26  2.47  4.94
Si -2.74 -4.16  4.94
Si  2.74  4.16 -4.94
Si -4.38 -2.47 -4.94
Si  4.38  2.47  4.94
Si  1.32  6.50 -2.47
Si -1.32 -6.50  2.47
Si  1.56 -6.50  2.47
Si -1.56  6.50 -2.47
Si  3.02 -4.16  4.94
Si -3.02  4.16 -4.94
Si  5.70  4.42  0.00
Si -5.70 -4.42  0.00
Si -5.81  4.42  0.00
Si  5.81 -4.42  0.00
Si -1.40 -6.76 -2.47
Si  1.40  6.76  2.47
Si  1.48 -6.76 -2.47
Si -1.48  6.76  2.47
Si  2.85 -4.68 -4.94
Si -2.85  4.68  4.94
Si -2.91 -4.68 -4.94
Si  2.91  4.68  4.94
Si  0.13  0.39  7.42
Si -0.13 -0.39 -7.42
Si  7.17  2.21  0.00
Si -7.17 -2.21  0.00
Si -5.66 -4.29  2.47
Si  5.66  4.29 -2.47
Si -5.67  0.26  4.94
Si  5.67 -0.26 -4.94
Si -7.22  2.21  0.00
Si  7.22 -2.21  0.00
Si -5.84 -0.26 -4.94
Si  5.84  0.26  4.94
Si -5.85  4.29 -2.47
Si  5.85 -4.29  2.47
Si  5.75  4.55  2.47
Si -5.75 -4.55 -2.47
Si  1.28  1.82 -7.42
Si -1.28 -1.82  7.42
Si  5.77 -4.55 -2.47
Si -5.77  4.55  2.47
Si  1.59 -1.82  7.42
Si -1.59  1.82 -7.42
Si -7.13 -2.08  2.47
Si  7.13  2.08 -2.47
Si -4.24 -6.63  0.00
Si  4.24  6.63  0.00
Si  2.75 -0.39 -7.42
Si -2.75  0.39  7.42
Si  7.18 -2.34 -2.47
Si -7.18  2.34  2.47
Si -7.26  2.08 -2.47
Si  7.26 -2.08  2.47
Si -4.40  6.63  0.00
Si  4.40 -6.63  0.00
Si -1.34  2.60  7.42
Si  1.34 -2.60 -7.42
Si -7.21 -2.34 -2.47
Si  7.21  2.34  2.47
Si -1.54 -2.60 -7.42
Si  1.54  2.60  7.42
Si  3.00  0.39  7.42
Si -3.00 -0.39 -7.42
Si  4.20  6.50 -2.47
Si -4.20 -6.50  2.47
Si -1.27 -6.37  4.94
Si  1.27  6.37 -4.94
Si  1.60 -6.37  4.94
Si -1.60  6.37 -4.94
Si  4.44 -6.50  2.47
Si -4.44  6.50 -2.47
Si -4.28 -6.76 -2.47
Si  4.28  6.76  2.47
Si  4.35 -6.76 -2.47
Si -4.35  6.76  2.47
Si  0.18 -4.03  7.42
Si -0.18  4.03 -7.42
Si -5.62 -4.16  4.94
Si  5.62  4.16 -4.94
Si  1.43 -6.89 -4.94
Si -1.43  6.89  4.94
Si -1.45 -6.89 -4.94
Si  1.45  6.89  4.94
Si -8.63  0.00  0.00
Si  8.63  0.00  0.00
Si -4.16 -1.82  7.42
Si  4.16  1.82 -7.42
Si -5.89  4.16 -4.94
Si  5.89 -4.16  4.94
Si  0.07  4.81  7.42
Si -0.07 -4.81 -7.42
Si -0.11  8.84  0.00
Si  0.11 -8.84  0.00
Si -4.47  1.82 -7.42
Si  4.47 -1.82  7.42
Si  7.08  1.95 -4.94
Si -7.08 -1.95  4.94
Si  2.70  4.03 -7.42
Si -2.70 -4.03  7.42
Si  5.72 -4.68 -4.94
Si -5.72  4.68  4.94
Si -4.22  2.60  7.42
Si  4.22 -2.60 -7.42
Si -5.79 -4.68 -4.94
Si  5.79  4.68  4.94
Si  8.59 -0.13 -2.47
Si -8.59  0.13  2.47
Si  3.06 -4.03  7.42
Si -3.06  4.03 -7.42
Si -4.42 -2.60 -7.42
Si  4.42  2.60  7.42
Si  8.68  0.13  2.47
Si -8.68 -0.13 -2.47
Si  7.14 -2.47 -4.94
Si -7.14  2.47  4.94
Si -7.31  1.95 -4.94
Si  7.31 -1.95  4.94
Si -0.15  8.71 -2.47
Si  0.15 -8.71  2.47
Si  4.15  6.37 -4.94
Si -4.15 -6.37  4.94
Si  7.25  2.47  4.94
Si -7.25 -2.47 -4.94
Si  4.48 -6.37  4.94
Si -4.48  6.37 -4.94
Si  2.77  8.84  0.00
Si -2.77 -8.84  0.00
Si  2.80 -4.81 -7.42
Si -2.80  4.81  7.42
Si -0.06  8.97  2.47
Si  0.06 -8.97 -2.47
Si -5.63  0.39  7.42
Si  5.63 -0.39 -7.42
Si -2.95 -4.81 -7.42
Si  2.95  4.81  7.42
Si  2.98 -8.84  0.00
Si -2.98  8.84  0.00
Si -2.73 -8.71  2.47
Si  2.73  8.71 -2.47
Si  5.88  0.39  7.42
Si -5.88 -0.39 -7.42
Si  4.31 -6.89 -4.94
Si -4.31  6.89  4.94
Si -4.32 -6.89 -4.94
Si  4.32  6.89  4.94
Si  3.03 -8.71  2.47
Si -3.03  8.71 -2.47
Si -8.58 -4.42  0.00
Si  8.58  4.42  0.00
Si  2.81  8.97  2.47
Si -2.81 -8.97 -2.47
Si  7.12  6.63  0.00
Si -7.12 -6.63  0.00
Si  8.69 -4.42  0.00
Si -8.69  4.42  0.00
Si  2.94 -8.97 -2.47
Si -2.94  8.97  2.47
Si -1.23 -6.24  7.42
Si  1.23  6.24 -7.42
Si -1.65  6.24 -7.42
Si  1.65 -6.24  7.42
Si -7.27  6.63  0.00
Si  7.27 -6.63  0.00
Si  8.54  4.29 -2.47
Si -8.54 -4.29  2.47
Si  8.55 -0.26 -4.94
Si -8.55  0.26  4.94
Si -0.17 -0.52 -9.89
Si  0.17  0.52  9.89
Si -0.19  8.58 -4.94
Si  0.19 -8.58  4.94
Si  7.07  6.50 -2.47
Si -7.07 -6.50  2.47
Si -8.72 -0.26 -4.94
Si  8.72  0.26  4.94
Si -8.73  4.29 -2.47
Si  8.73 -4.29  2.47
Si  8.62  4.55  2.47
Si -8.62 -4.55 -2.47
Si -8.64  4.55  2.47
Si  8.64 -4.55 -2.47
Si -7.32  6.50 -2.47
Si  7.32 -6.50  2.47
Si -1.24 -1.69  9.89
Si  1.24  1.69 -9.89
Si -5.58 -4.03  7.42
Si  5.58  4.03 -7.42
Si  7.16  6.76  2.47
Si -7.16 -6.76 -2.47
Si -1.64  1.69 -9.89
Si  1.64 -1.69  9.89
Si  7.23 -6.76 -2.47
Si -7.23  6.76  2.47
Si  2.69  8.58 -4.94
Si -2.69 -8.58  4.94
Si  2.71 -0.52 -9.89
Si -2.71  0.52  9.89
Si 10.05  2.21  0.00
Si -10.05 -2.21  0.00
Si -1.39  7.02  7.42
Si  1.39 -7.02 -7.42
Si -5.94  4.03 -7.42
Si  5.94 -4.03  7.42
Si -1.49 -7.02 -7.42
Si  1.49  7.02  7.42
Si 10.10 -2.21  0.00
Si -10.10  2.21  0.00
Si  1.29 -2.73 -9.89
Si -1.29  2.73  9.89
Si  3.05  0.52  9.89
Si -3.05 -0.52 -9.89
Si  0.02 -9.10 -4.94
Si -0.02  9.10  4.94
Si  3.07 -8.58  4.94
Si -3.07  8.58 -4.94
Si -1.58 -2.73 -9.89
Si  1.58  2.73  9.89
Si  7.04  1.82 -7.42
Si -7.04 -1.82  7.42
Si -5.65 -8.84  0.00
Si  5.65  8.84  0.00
Si  5.68 -4.81 -7.42
Si -5.68  4.81  7.42
Si -10.00 -2.08  2.47
Si 10.00  2.08 -2.47
Si -4.11 -6.24  7.42
Si  4.11  6.24 -7.42
Si  7.09 -2.60 -7.42
Si -7.09  2.60  7.42
Si -5.83 -4.81 -7.42
Si  5.83  4.81  7.42
Si  7.35 -1.82  7.42
Si -7.35  1.82 -7.42
Si -5.86  8.84  0.00
Si  5.86 -8.84  0.00
Si -10.06  2.34  2.47
Si 10.06 -2.34 -2.47
Si -0.22  3.90 -9.89
Si  0.22 -3.90  9.89
Si -10.14  2.08 -2.47
Si 10.14 -2.08  2.47
Si 10.09  2.34  2.47
Si -10.09 -2.34 -2.47
Si  5.61  8.71 -2.47
Si -5.61 -8.71  2.47
Si  8.49  4.16 -4.94
Si -8.49 -4.16  4.94
Si -4.52  6.24 -7.42
Si  4.52 -6.24  7.42
Si -7.03 -6.37  4.94
Si  7.03  6.37 -4.94
Si -7.30 -2.60 -7.42
Si  7.30  2.60  7.42
Si -2.86 -9.10 -4.94
Si  2.86  9.10  4.94
Si  2.90 -9.10 -4.94
Si -2.90  9.10  4.94
Si  5.90 -8.71  2.47
Si -5.90  8.71 -2.47
Si  4.12  1.69 -9.89
Si -4.12 -1.69  9.89
Si  8.77 -4.16  4.94
Si -8.77  4.16 -4.94
Si -5.69 -8.97 -2.47
Si  5.69  8.97  2.47
Si  7.36 -6.37  4.94
Si -7.36  6.37 -4.94
Si -2.65 -3.90  9.89
Si  2.65  3.90 -9.89
Si -8.60  4.68  4.94
Si  8.60 -4.68 -4.94
Si -5.82  8.97  2.47
Si  5.82 -8.97 -2.47
Si -4.51  1.69 -9.89
Si  4.51 -1.69  9.89
Si -8.67 -4.68 -4.94
Si  8.67  4.68  4.94
Si  0.12  4.94  9.89
Si -0.12 -4.94 -9.89
Si -4.27  7.02  7.42
Si  4.27 -7.02 -7.42
Si  3.10 -3.90  9.89
Si -3.10  3.90 -9.89
Si  4.17 -2.73 -9.89
Si -4.17  2.73  9.89
Si  4.37  7.02  7.42
Si -4.37 -7.02 -7.42
Si  7.19 -6.89 -4.94
Si -7.19  6.89  4.94
Si -7.20 -6.89 -4.94
Si  7.20  6.89  4.94
Si -1.31 -11.05  0.00
Si  1.31 11.05  0.00
Si  1.57 -11.05  0.00
Si -1.57 11.05  0.00
Si -4.46 -2.73 -9.89
Si  4.46  2.73  9.89
Si  0.23 -8.45  7.42
Si -0.23  8.45 -7.42
Si  1.26 10.92 -2.47
Si -1.26 -10.92  2.47
Si  9.96  1.95 -4.94
Si -9.96 -1.95  4.94
Si -8.51  0.39  7.42
Si  8.51 -0.39 -7.42
Si -1.61 10.92 -2.47
Si  1.61 -10.92  2.47
Si  5.57  8.58 -4.94
Si -5.57 -8.58  4.94
Si -5.58  0.52  9.89
Si  5.58 -0.52 -9.89
Si  2.76 -4.94 -9.89
Si -2.76  4.94  9.89
Si 10.01 -2.47 -4.94
Si -10.01  2.47  4.94
Si  3.00  4.94  9.89
Si -3.00 -4.94 -9.89
Si  8.76  0.39  7.42
Si -8.76 -0.39 -7.42
Si -10.18  1.95 -4.94
Si 10.18 -1.95  4.94
Si -11.51  0.00  0.00
Si 11.51  0.00  0.00
Si  1.35 11.18  2.47
Si -1.35 -11.18 -2.47
Si  5.93  0.52  9.89
Si -5.93 -0.52 -9.89
Si -10.13 -2.47 -4.94
Si 10.13  2.47  4.94
Si  2.64  8.45 -7.42
Si -2.64 -8.45  7.42
Si  5.95 -8.58  4.94
Si -5.95  8.58 -4.94
Si  1.53 -11.18 -2.47
Si -1.53 11.18  2.47
Si  3.11 -8.45  7.42
Si -3.11  8.45 -7.42
Si -1.19 -6.11  9.89
Si  1.19  6.11 -9.89
Si -11.47  0.13  2.47
Si 11.47 -0.13 -2.47
Si -1.69  6.11 -9.89
Si  1.69 -6.11  9.89
Si 11.55  0.13  2.47
Si -11.55 -0.13 -2.47
Si  4.18 11.05  0.00
Si -4.18 -11.05  0.00
Si  5.74  9.10  4.94
Si -5.74 -9.10 -4.94
Si -0.02 -9.23 -7.42
Si  0.02  9.23  7.42
Si -5.78  9.10  4.94
Si  5.78 -9.10 -4.94
Si -4.45 11.05  0.00
Si  4.45 -11.05  0.00
Si  1.22 10.79 -4.94
Si -1.22 -10.79  4.94
Si -4.14 -10.92  2.47
Si  4.14 10.92 -2.47
Si -8.45 -4.03  7.42
Si  8.45  4.03 -7.42
Si -6.99 -6.24  7.42
Si  6.99  6.24 -7.42
Si -5.53 -3.90  9.89
Si  5.53  3.90 -9.89
Si -1.66 10.79 -4.94
Si  1.66 -10.79  4.94
Si  9.99  6.63  0.00
Si -9.99 -6.63  0.00
Si -4.49 10.92 -2.47
Si  4.49 -10.92  2.47
Si 10.15 -6.63  0.00
Si -10.15  6.63  0.00
Si -9.95 -6.50  2.47
Si  9.95  6.50 -2.47
Si  2.86 -9.23 -7.42
Si -2.86  9.23  7.42
Si -2.90 -9.23 -7.42
Si  2.90  9.23  7.42
Si -5.98  3.90 -9.89
Si  5.98 -3.90  9.89
Si -7.40  6.24 -7.42
Si  7.40 -6.24  7.42
Si  8.81 -4.03  7.42
Si -8.81  4.03 -7.42
Si -4.23 -11.18 -2.47
Si  4.23 11.18  2.47
Si -7.00 -1.69  9.89
Si  7.00  1.69 -9.89
Si  4.41 -11.18 -2.47
Si -4.41 11.18  2.47
Si  1.35 -7.16 -9.89
Si -1.35  7.16  9.89
Si -11.46 -4.42  0.00
Si 11.46  4.42  0.00
Si  8.53  8.84  0.00
Si -8.53 -8.84  0.00
Si  1.53  7.16  9.89
Si -1.53 -7.16 -9.89
Si -8.56  4.81  7.42
Si  8.56 -4.81 -7.42
Si  4.07  6.11 -9.89
Si -4.07 -6.11  9.89
Si 10.19 -6.50  2.47
Si -10.19  6.50 -2.47
Si -10.04 -6.76 -2.47
Si 10.04  6.76  2.47
Si -0.21 -0.65 -12.36
Si  0.21  0.65 12.36
Si 11.56 -4.42  0.00
Si -11.56  4.42  0.00
Si -5.64  4.94  9.89
Si  5.64 -4.94 -9.89
Si -8.71 -4.81 -7.42
