500
set: 103.00  0.00  0.00
Si  0.00  0.00  0.00
Si  0.19 -0.03  2.33
Si -0.19  0.03 -2.33
Si -1.17 -2.09  0.00
Si  1.17  2.09  0.00
Si -1.41  2.09  0.00
Si  1.41 -2.09  0.00
Si  2.58  0.00  0.00
Si -2.58  0.00  0.00
Si -0.98 -2.12  2.33
Si  0.98  2.12 -2.33
Si  2.39  0.03 -2.33
Si -2.39 -0.03  2.33
Si -1.22  2.06  2.33
Si  1.22 -2.06 -2.33
Si  1.35  2.06  2.33
Si -1.35 -2.06 -2.33
Si -1.60  2.12 -2.33
Si  1.60 -2.12  2.33
Si -2.76  0.03 -2.33
Si  2.76 -0.03  2.33
Si -0.24  4.17  0.00
Si  0.24 -4.17  0.00
Si -3.75 -2.09  0.00
Si  3.75  2.09  0.00
Si  3.99 -2.09  0.00
Si -3.99  2.09  0.00
Si  0.37 -0.06  4.65
Si -0.37  0.06 -4.65
Si -3.56 -2.12  2.33
Si  3.56  2.12 -2.33
Si  0.05 -4.14 -2.33
Si -0.05  4.14  2.33
Si -2.34 -4.17  0.00
Si  2.34  4.17  0.00
Si  0.43 -4.21  2.33
Si -0.43  4.21 -2.33
Si -3.80  2.06  2.33
Si  3.80 -2.06 -2.33
Si  3.93  2.06  2.33
Si -3.93 -2.06 -2.33
Si -2.82  4.17  0.00
Si  2.82 -4.17  0.00
Si  2.20  0.06 -4.65
Si -2.20 -0.06  4.65
Si -5.15  0.00  0.00
Si  5.15  0.00  0.00
Si -1.04  2.02  4.65
Si  1.04 -2.02 -4.65
Si -0.80 -2.15  4.65
Si  0.80  2.15 -4.65
Si  4.17 -2.12  2.33
Si -4.17  2.12 -2.33
Si -2.15 -4.21  2.33
Si  2.15  4.21 -2.33
Si -1.54 -2.02 -4.65
Si  1.54  2.02  4.65
Si -2.52 -4.14 -2.33
Si  2.52  4.14  2.33
Si -1.78  2.15 -4.65
Si  1.78 -2.15  4.65
Si -2.63  4.14  2.33
Si  2.63 -4.14 -2.33
Si  4.97  0.03 -2.33
Si -4.97 -0.03  2.33
Si -2.95  0.06 -4.65
Si  2.95 -0.06  4.65
Si  3.00 -4.21  2.33
Si -3.00  4.21 -2.33
Si  5.34 -0.03  2.33
Si -5.34  0.03 -2.33
Si -3.37 -2.15  4.65
Si  3.37  2.15 -4.65
Si  0.13  4.11  4.65
Si -0.13 -4.11 -4.65
Si -3.61  2.02  4.65
Si  3.61 -2.02 -4.65
Si  0.61 -4.24  4.65
Si -0.61  4.24 -4.65
Si -0.93 -6.26  0.00
Si  0.93  6.26  0.00
Si -4.91 -4.17  0.00
Si  4.91  4.17  0.00
Si  1.65 -6.26  0.00
Si -1.65  6.26  0.00
Si  4.12  2.02  4.65
Si -4.12 -2.02 -4.65
Si  1.96  4.24 -4.65
Si -1.96 -4.24  4.65
Si  6.32  2.09  0.00
Si -6.32 -2.09  0.00
Si -4.78 -0.06  4.65
Si  4.78  0.06 -4.65
Si  2.44 -4.11 -4.65
Si -2.44  4.11  4.65
Si  4.36 -2.15  4.65
Si -4.36  2.15 -4.65
Si  4.73  4.21 -2.33
Si -4.73 -4.21  2.33
Si  1.11  6.23  2.33
Si -1.11 -6.23 -2.33
Si  0.74  6.29 -2.33
Si -0.74 -6.29  2.33
Si  2.71  4.11  4.65
Si -2.71 -4.11 -4.65
Si -1.46  6.23  2.33
Si  1.46 -6.23 -2.33
Si -5.39  4.17  0.00
Si  5.39 -4.17  0.00
Si -6.56  2.09  0.00
Si  6.56 -2.09  0.00
Si  6.14  2.12 -2.33
Si -6.14 -2.12  2.33
Si -1.84  6.29 -2.33
Si  1.84 -6.29  2.33
Si -5.10 -4.14 -2.33
Si  5.10  4.14  2.33
Si -0.56  0.09 -6.98
Si  0.56 -0.09  6.98
Si  5.21 -4.14 -2.33
Si -5.21  4.14  2.33
Si -3.19  4.24 -4.65
Si  3.19 -4.24  4.65
Si -6.38  2.06  2.33
Si  6.38 -2.06 -2.33
Si -3.50 -6.26  0.00
Si  3.50  6.26  0.00
Si -6.51 -2.06 -2.33
Si  6.51  2.06  2.33
Si  5.53 -0.06  4.65
Si -5.53  0.06 -4.65
Si  2.02  0.09 -6.98
Si -2.02 -0.09  6.98
Si  0.85 -1.99 -6.98
Si -0.85  1.99  6.98
Si -0.61 -2.18  6.98
Si  0.61  2.18 -6.98
Si  5.58 -4.21  2.33
Si -5.58  4.21 -2.33
Si  6.75 -2.12  2.33
Si -6.75  2.12 -2.33
Si  1.73  1.99  6.98
Si -1.73 -1.99 -6.98
Si -3.32 -6.29  2.33
Si  3.32  6.29 -2.33
Si  4.23 -6.26  0.00
Si -4.23  6.26  0.00
Si -1.97  2.18 -6.98
Si  1.97 -2.18  6.98
Si -3.69 -6.23 -2.33
Si  3.69  6.23  2.33
Si  3.14 -0.09  6.98
Si -3.14  0.09 -6.98
Si -7.73  0.00  0.00
Si  7.73  0.00  0.00
Si -4.54 -4.24  4.65
Si  4.54  4.24 -4.65
Si -4.04  6.23  2.33
Si  4.04 -6.23 -2.33
Si -5.95 -2.15  4.65
Si  5.95  2.15 -4.65
Si -1.28  6.20  4.65
Si  1.28 -6.20 -4.65
Si -1.30 -6.20 -4.65
Si  1.30  6.20  4.65
Si -0.55 -6.32  4.65
Si  0.55  6.32 -4.65
Si  7.54  0.03 -2.33
Si -7.54 -0.03  2.33
Si  3.19  2.18 -6.98
Si -3.19 -2.18  6.98
Si -5.02  4.11  4.65
Si  5.02 -4.11 -4.65
Si -6.19  2.02  4.65
Si  6.19 -2.02 -4.65
Si -3.43  1.99  6.98
Si  3.43 -1.99 -6.98
Si -4.41  6.29 -2.33
Si  4.41 -6.29  2.33
Si -0.32 -4.08 -6.98
Si  0.32  4.08  6.98
Si -2.02  6.32 -4.65
Si  2.02 -6.32  4.65
Si -5.29 -4.11 -4.65
Si  5.29  4.11  4.65
Si -0.80  4.27 -6.98
Si  0.80 -4.27  6.98
Si -7.92  0.03 -2.33
Si  7.92 -0.03  2.33
Si -4.59 -0.09  6.98
Si  4.59  0.09 -6.98
Si -0.48  8.35  0.00
Si  0.48 -8.35  0.00
Si  1.78  4.27 -6.98
Si -1.78 -4.27  6.98
Si -2.26  4.08  6.98
Si  2.26 -4.08 -6.98
Si  6.70  2.02  4.65
Si -6.70 -2.02 -4.65
Si -4.30 -1.99 -6.98
Si  4.30  1.99  6.98
Si  3.13  6.32 -4.65
Si -3.13 -6.32  4.65
Si  5.77 -4.24  4.65
Si -5.77  4.24 -4.65
Si -7.49 -4.17  0.00
Si  7.49  4.17  0.00
Si  2.90  4.08  6.98
Si -2.90 -4.08 -6.98
Si -2.10 -8.35  0.00
Si  2.10  8.35  0.00
Si  4.55 -2.18  6.98
Si -4.55  2.18 -6.98
Si -6.94  2.15 -4.65
Si  6.94 -2.15  4.65
Si  0.29 -8.32 -2.33
Si -0.29  8.32  2.33
Si -3.85  6.20  4.65
Si  3.85 -6.20 -4.65
Si  3.88  6.20  4.65
Si -3.88 -6.20 -4.65
Si  7.36  0.06 -4.65
Si -7.36 -0.06  4.65
Si  0.67 -8.38  2.33
Si -0.67  8.38 -2.33
Si  6.08  6.26  0.00
Si -6.08 -6.26  0.00
Si -7.30 -4.21  2.33
Si  7.30  4.21 -2.33
Si -3.38  4.27 -6.98
Si  3.38 -4.27  6.98
Si -3.06  8.35  0.00
Si  3.06 -8.35  0.00
Si  1.91  8.38 -2.33
Si -1.91 -8.38  2.33
Si  5.89  6.29 -2.33
Si -5.89 -6.29  2.33
Si  2.28  8.32  2.33
Si -2.28 -8.32 -2.33
Si -7.97  4.17  0.00
Si  7.97 -4.17  0.00
Si -5.71  0.09 -6.98
Si  5.71 -0.09  6.98
Si -7.68 -4.14 -2.33
Si  7.68  4.14  2.33
Si -4.60  6.32 -4.65
Si  4.60 -6.32  4.65
Si -2.87  8.32  2.33
Si  2.87 -8.32 -2.33
Si  7.79 -4.14 -2.33
Si -7.79  4.14  2.33
Si -6.27 -6.23 -2.33
Si  6.27  6.23  2.33
Si  8.90  2.09  0.00
Si -8.90 -2.09  0.00
Si -6.80  6.26  0.00
Si  6.80 -6.26  0.00
Si -8.71 -2.12  2.33
Si  8.71  2.12 -2.33
Si -4.35 -4.27  6.98
Si  4.35  4.27 -6.98
Si -3.25  8.38 -2.33
Si  3.25 -8.38  2.33
Si -5.76 -2.18  6.98
Si  5.76  2.18 -6.98
Si  0.75 -0.12  9.30
Si -0.75  0.12 -9.30
Si  8.11 -0.06  4.65
Si -8.11  0.06 -4.65
Si  9.14 -2.09  0.00
Si -9.14  2.09  0.00
Si -1.09  6.17  6.98
Si  1.09 -6.17 -6.98
Si  6.62 -6.23 -2.33
Si -6.62  6.23  2.33
Si -6.00  1.99  6.98
Si  6.00 -1.99 -6.98
Si  4.84 -4.08 -6.98
Si -4.84  4.08  6.98
Si  1.49  6.17  6.98
Si -1.49 -6.17 -6.98
Si  0.37  6.35 -6.98
Si -0.37 -6.35  6.98
Si -8.16  4.21 -2.33
Si  8.16 -4.21  2.33
Si  8.95 -2.06 -2.33
Si -8.95  2.06  2.33
Si -1.83 -0.12  9.30
Si  1.83  0.12 -9.30
Si  7.12  4.24 -4.65
Si -7.12 -4.24  4.65
Si -0.11  8.29  4.65
Si  0.11 -8.29 -4.65
Si -0.66  1.96  9.30
Si  0.66 -1.96 -9.30
Si  4.67  8.35  0.00
Si -4.67 -8.35  0.00
Si -0.42 -2.21  9.30
Si  0.42  2.21 -9.30
Si  9.09  2.06  2.33
Si -9.09 -2.06 -2.33
Si -0.85  8.41 -4.65
Si  0.85 -8.41  4.65
Si -6.99  6.29 -2.33
Si  6.99 -6.29  2.33
Si -2.21  6.35 -6.98
Si  2.21 -6.35  6.98
Si  1.91  1.96  9.30
Si -1.91 -1.96 -9.30
Si -5.71 -6.32  4.65
Si  5.71  6.32 -4.65
Si -5.47 -4.08 -6.98
Si  5.47  4.08  6.98
Si  1.72  8.41 -4.65
Si -1.72 -8.41  4.65
Si  4.49  8.38 -2.33
Si -4.49 -8.38  2.33
Si -2.15  2.21 -9.30
Si  2.15 -2.21  9.30
Si -7.60  4.11  4.65
Si  7.60 -4.11 -4.65
Si  2.47  8.29  4.65
Si -2.47 -8.29 -4.65
Si -9.33  2.12 -2.33
Si  9.33 -2.12  2.33
Si  2.69 -8.29 -4.65
Si -2.69  8.29  4.65
Si -3.32  0.12 -9.30
Si  3.32 -0.12  9.30
Si  2.94  6.35 -6.98
Si -2.94 -6.35  6.98
Si  4.86  8.32  2.33
Si -4.86 -8.32 -2.33
Si -8.53 -2.15  4.65
Si  8.53  2.15 -4.65
Si  6.88  1.99  6.98
Si -6.88 -1.99 -6.98
Si -7.17 -0.09  6.98
Si  7.17  0.09 -6.98
Si  3.67 -6.17 -6.98
Si -3.67  6.17  6.98
Si -7.86 -4.11 -4.65
Si  7.86  4.11  4.65
Si  3.00  2.21 -9.30
Si -3.00 -2.21  9.30
Si  3.24 -1.96 -9.30
Si -3.24  1.96  9.30
Si -6.43  6.20  4.65
Si  6.43 -6.20 -4.65
Si  5.64 -8.35  0.00
Si -5.64  8.35  0.00
Si  6.46  6.20  4.65
Si -6.46 -6.20 -4.65
Si  5.96 -4.27  6.98
Si -5.96  4.27 -6.98
Si -8.77  2.02  4.65
Si  8.77 -2.02 -4.65
Si  0.51  4.05  9.30
Si -0.51 -4.05 -9.30
Si  4.06  6.17  6.98
Si -4.06 -6.17 -6.98
Si -3.43  8.41 -4.65
Si  3.43 -8.41  4.65
Si  7.12 -2.18  6.98
Si -7.12  2.18 -6.98
Si  5.45 -8.32 -2.33
Si -5.45  8.32  2.33
Si -0.99  4.30 -9.30
Si  0.99 -4.30  9.30
Si  4.41  0.12 -9.30
Si -4.41 -0.12  9.30
Si -10.31  0.00  0.00
Si 10.31  0.00  0.00
Si -2.07  4.05  9.30
Si  2.07 -4.05 -9.30
Si -1.59 -4.30  9.30
Si  1.59  4.30 -9.30
Si -10.12 -0.03  2.33
Si 10.12  0.03 -2.33
Si  8.35 -4.24  4.65
Si -8.35  4.24 -4.65
Si  0.69 10.43  0.00
Si -0.69 -10.43  0.00
Si  5.82 -8.38  2.33
Si -5.82  8.38 -2.33
Si  4.49  1.96  9.30
Si -4.49 -1.96 -9.30
Si  4.30  8.41 -4.65
Si -4.30 -8.41  4.65
Si -9.27 -2.02 -4.65
Si  9.27  2.02  4.65
Si -4.79  6.35 -6.98
Si  4.79 -6.35  6.98
Si  1.89 -10.43  0.00
Si -1.89 10.43  0.00
Si  3.08  4.05  9.30
Si -3.08 -4.05 -9.30
Si -7.18  6.32 -4.65
Si  7.18 -6.32  4.65
Si  4.73 -2.21  9.30
Si -4.73  2.21 -9.30
Si  8.66  6.26  0.00
Si -8.66 -6.26  0.00
Si -0.87 -10.40 -2.33
Si  0.87 10.40  2.33
Si  6.93  4.27 -6.98
Si -6.93 -4.27  6.98
Si -0.50 -10.46  2.33
Si  0.50 10.46 -2.33
Si 10.49 -0.03  2.33
Si -10.49  0.03 -2.33
Si -5.05 -8.29 -4.65
Si  5.05  8.29  4.65
Si  1.70 -10.40 -2.33
Si -1.70 10.40  2.33
Si  9.51 -2.15  4.65
Si -9.51  2.15 -4.65
Si  8.47  6.29 -2.33
Si -8.47 -6.29  2.33
Si  0.08  8.25  6.98
Si -0.08 -8.25 -6.98
Si  8.29 -0.09  6.98
Si -8.29  0.09 -6.98
Si -3.56  4.30 -9.30
Si  3.56 -4.30  9.30
Si -5.26  8.29  4.65
Si  5.26 -8.29 -4.65
Si 10.07  4.17  0.00
Si -10.07 -4.17  0.00
Si -2.08 10.46 -2.33
Si  2.08 -10.46  2.33
Si -3.26 -10.43  0.00
Si  3.26 10.43  0.00
Si  5.52  6.35 -6.98
Si -5.52 -6.35  6.98
Si  7.41 -4.08 -6.98
Si -7.41  4.08  6.98
Si -9.94 -0.06  4.65
Si  9.94  0.06 -4.65
Si  9.88  4.21 -2.33
Si -9.88 -4.21  2.33
Si -1.04  8.44 -6.98
Si  1.04 -8.44  6.98
Si -5.90  0.12 -9.30
Si  5.90 -0.12  9.30
Si -7.25 -8.35  0.00
Si  7.25  8.35  0.00
Si -1.54 -8.44  6.98
Si  1.54  8.44 -6.98
Si  4.17  4.30 -9.30
Si -4.17 -4.30  9.30
Si  8.85  6.23  2.33
Si -8.85 -6.23 -2.33
Si -5.58 -2.21  9.30
Si  5.58  2.21 -9.30
Si -8.34 -2.18  6.98
Si  8.34  2.18 -6.98
Si  2.50 -8.25 -6.98
Si -2.50  8.25  6.98
Si  2.65  8.25  6.98
Si -2.65 -8.25 -6.98
Si -5.82  1.96  9.30
Si  5.82 -1.96 -9.30
Si  3.08 10.46 -2.33
Si -3.08 -10.46  2.33
Si -4.65  4.05  9.30
Si  4.65 -4.05 -9.30
Si -0.90  6.14  9.30
Si  0.90 -6.14 -9.30
Si  7.06  8.38 -2.33
Si -7.06 -8.38  2.33
Si  3.45 10.40  2.33
Si -3.45 -10.40 -2.33
Si  6.25 -6.17 -6.98
Si -6.25  6.17  6.98
Si -8.58  1.99  6.98
Si  8.58 -1.99 -6.98
Si  1.67  6.14  9.30
Si -1.67 -6.14 -9.30
Si -9.38  6.26  0.00
Si  9.38 -6.26  0.00
Si -0.18 -6.38  9.30
Si  0.18  6.38 -9.30
Si 10.25  4.14  2.33
Si -10.25 -4.14 -2.33
Si -6.01  8.41 -4.65
Si  6.01 -8.41  4.65
Si 10.55 -4.17  0.00
Si -10.55  4.17  0.00
Si  9.20 -6.23 -2.33
Si -9.20  6.23  2.33
Si -4.47 10.43  0.00
Si  4.47 -10.43  0.00
Si -7.44 -8.32 -2.33
Si  7.44  8.32  2.33
Si 10.36 -4.14 -2.33
Si -10.36  4.14  2.33
Si  8.05  4.08  6.98
Si -8.05 -4.08 -6.98
Si  8.29  6.32 -4.65
