500
set: 1033.00  0.00  0.00
Si -0.46  1.12 -0.81
Si  0.42 -1.19  0.82
Si  1.32  1.22  0.80
Si -1.38 -1.23 -0.83
Si  2.14 -1.20 -0.81
Si  0.82 -0.07 -2.45
Si -0.84  0.06  2.45
Si -2.12  1.28  0.84
Si -3.05 -1.09  0.83
Si  3.10  1.12 -0.76
Si  0.06  2.44  2.46
Si  0.00 -2.44 -2.49
Si  2.62  0.01  2.40
Si -2.62  0.02 -2.42
Si  0.43  3.48 -0.83
Si -0.49 -3.49  0.80
Si -1.75 -2.27  2.46
Si  1.70 -2.37  2.46
Si -1.72  2.32 -2.49
Si  1.81  2.27 -2.49
Si  1.29 -3.59 -0.76
Si -1.24  3.62  0.83
Si -3.92  1.12 -0.76
Si  0.91 -0.09  4.06
Si -0.84  0.09 -4.09
Si  3.97 -1.09  0.83
Si  2.24  3.52  0.82
Si -2.28 -3.59 -0.81
Si  3.08 -3.43  0.84
Si -3.06  3.51 -0.81
Si  0.07  2.41 -4.10
Si -0.09 -2.42  4.10
Si -2.63 -0.03  4.06
Si  2.60 -0.01 -4.09
Si -3.51  2.34  2.46
Si  3.51  2.34  2.46
Si  3.49 -2.39 -2.49
Si -3.53 -2.39 -2.49
Si  1.73  2.29  4.10
Si -4.40  0.01  2.40
Si -1.75 -2.30 -4.10
Si  4.40  0.02 -2.42
Si -1.71  2.37  4.13
Si  1.72 -2.34 -4.15
Si -4.88 -1.20 -0.81
Si  4.90  1.28  0.84
Si -3.94 -3.43  0.84
Si  0.81 -4.70  2.40
Si  3.96  3.51 -0.81
Si -0.80  4.73 -2.42
Si  0.97  4.77  2.45
Si -0.99 -4.78 -2.45
Si  5.64 -1.23 -0.83
Si -0.47  1.12  5.71
Si  2.64  4.64 -2.45
Si  0.42 -1.14 -5.75
Si  2.59 -4.69 -2.42
Si -5.70  1.22  0.80
Si -2.66 -4.65  2.45
Si -2.58  4.72  2.40
Si  3.50 -2.34  4.13
Si -3.52 -2.34  4.13
Si -3.49  2.37 -4.15
Si  3.53  2.37 -4.15
Si  0.33 -5.91 -0.81
Si  4.39 -0.03  4.06
Si  1.33  1.16 -5.73
Si -4.78  3.52  0.82
Si  4.74 -3.59 -0.81
Si -4.42 -0.01 -4.09
Si -1.37 -1.24  5.74
Si  1.35  5.83 -0.81
Si -0.31  5.99  0.84
Si -1.39 -5.90  0.82
Si -5.21  2.27 -2.49
Si  5.27 -2.27  2.46
Si  2.15 -5.80  0.83
Si -2.14  1.27 -5.72
Si -2.10  5.83 -0.76
Si -0.81  4.68  4.06
Si  0.79 -4.72 -4.09
Si  5.30  2.32 -2.49
Si  2.20 -1.23  5.79
Si -5.32 -2.37  2.46
Si -0.91 -4.80  4.06
Si  0.97  4.80 -4.09
Si -3.03 -1.08 -5.71
Si  3.05  1.16  5.74
Si  6.17  0.06  2.45
Si -6.20 -0.07 -2.45
Si  6.56  1.12 -0.81
Si  0.45  3.47  5.74
Si -2.66 -4.62 -4.09
Si  2.72  4.62  4.06
Si -2.60  4.70 -4.09
Si -0.48 -3.55 -5.73
Si  2.58 -4.74  4.06
Si -6.60 -1.19  0.82
Si  3.14  5.93  0.80
Si -3.19 -5.94 -0.83
Si -5.73 -3.59 -0.76
Si  4.36 -4.65  2.45
Si -4.38  4.64 -2.45
Si  1.23 -3.55  5.74
Si -1.22  3.63 -5.71
Si  5.78  3.62  0.83
Si -4.43 -4.69 -2.42
Si  4.44  4.72  2.40
Si  3.99 -1.08 -5.71
Si  5.27 -2.30 -4.10
Si -5.29  2.29  4.10
Si -3.97  1.16  5.74
Si  3.83 -5.94 -0.83
Si -2.29 -3.59  5.71
Si  2.23  3.57 -5.75
Si -5.30 -2.34 -4.15
Si -3.88  5.93  0.80
Si  5.31  2.37  4.13
Si -6.11 -0.09  4.06
Si  3.06 -3.44 -5.72
Si -3.01  3.48  5.79
Si  6.17  0.09 -4.09
Si  6.53 -3.49  0.80
Si  0.41 -1.13  7.35
Si  0.10  7.03 -2.49
Si -0.47  1.12 -7.39
Si -0.12 -7.08  2.46
Si -6.59  3.48 -0.83
Si -4.30  4.62  4.06
Si  4.36 -4.62 -4.09
Si  7.44 -1.19  0.82
Si  1.33  1.16  7.38
Si -1.37 -1.24 -7.36
Si -7.48  1.12 -0.81
Si -4.87 -5.80  0.83
Si  4.88  1.27 -5.72
Si -4.82 -1.23  5.79
Si  4.42  4.70 -4.09
Si -4.44 -4.74  4.06
Si -1.69  7.05  2.46
Si  4.92  5.83 -0.76
Si  1.67 -7.10 -2.49
Si  2.20 -1.24 -7.31
Si -3.96 -3.44 -5.72
Si -6.96  2.44  2.46
Si -1.81 -7.15 -2.49
Si -2.15  1.27  7.38
Si  1.88  7.15  2.46
Si -7.02 -2.44 -2.49
Si  7.02 -2.44 -2.49
Si  4.01  3.48  5.79
Si  7.08  2.44  2.46
Si  3.05  1.16 -7.36
Si -3.03 -1.08  7.39
Si  6.03 -4.78 -2.45
Si -6.05  4.77  2.45
Si -3.39  6.98 -2.49
Si  5.65 -1.24  5.74
Si -6.21 -4.70  2.40
Si  0.45  3.47 -7.36
Si -5.69  1.16 -5.73
Si  3.45 -6.98  2.46
Si -5.67  5.83 -0.81
Si  6.22  4.73 -2.42
Si -0.10 -7.05 -4.15
Si  5.63 -5.90  0.82
Si -0.49 -3.55  7.38
Si  0.10  7.08  4.13
Si -3.57 -6.98  2.46
Si  7.84 -0.07 -2.45
Si -7.86  0.06  2.45
Si  4.73 -3.59  5.71
Si  3.63  6.98 -2.49
Si  7.45  3.48 -0.83
Si  1.24 -3.55 -7.36
Si  1.34  5.83  5.71
Si -0.33  5.98 -5.72
Si  1.27 -8.14  0.84
Si -4.79  3.57 -5.75
Si  0.38 -5.94  5.79
Si -1.40 -5.85 -5.75
Si -7.51 -3.49  0.80
Si -1.22  3.63  7.39
Si  1.68 -7.05  4.13
Si -0.52 -8.30 -0.76
Si -1.25  8.22 -0.81
Si -1.67  7.08 -4.15
Si  0.58  8.33  0.83
Si  6.93 -2.42  4.10
Si  2.18 -5.79 -5.71
Si -6.96  2.41 -4.10
Si  1.88  7.12 -4.10
Si -1.90 -7.13  4.10
Si -3.97  1.16 -7.36
Si  8.34  1.22  0.80
Si  3.99 -1.08  7.39
Si  2.23  3.58  7.35
Si -2.16  5.87  5.74
Si -2.29 -3.59 -7.39
Si  2.25  8.19 -0.83
Si -8.40 -1.23 -0.83
Si  7.08  2.41 -4.10
Si -7.11 -2.42  4.10
Si -2.31 -8.20  0.80
Si -3.01  3.48 -7.31
Si  3.06 -3.44  7.38
Si -6.05  4.80 -4.09
Si  6.54  1.12  5.71
Si  6.11 -4.80  4.06
Si  6.21  4.68  4.06
Si  3.15  5.87 -5.73
Si -2.97  8.23  0.82
Si -6.23 -4.72 -4.09
Si  3.46 -7.01 -4.10
Si -3.48  7.00  4.10
Si -6.60 -1.14 -5.75
Si  2.93 -8.30 -0.81
Si -4.82 -1.24 -7.31
Si  3.54  7.00  4.10
Si -3.18 -5.95  5.74
Si -7.86  0.09 -4.09
Si -3.56 -7.01 -4.10
Si -5.79 -3.55  5.74
Si  7.93 -0.09  4.06
Si  5.80  3.63 -5.71
Si  4.87  1.27  7.38
Si -6.69 -5.91 -0.81
Si  6.71  5.99  0.84
Si  4.01  3.48 -7.31
Si -0.85  0.09  9.01
Si -3.96 -3.44  7.38
Si -8.26  3.62  0.83
Si -3.88  5.87 -5.73
Si  0.91 -0.09 -9.04
Si  8.31 -3.59 -0.76
Si  3.83 -5.95  5.74
Si -5.14  7.15  2.46
Si  5.33  7.05  2.46
Si  5.21 -7.15 -2.49
Si  4.05  8.23  0.82
Si -5.35 -7.10 -2.49
Si -9.14  1.28  0.84
Si  9.16 -1.20 -0.81
Si -4.09 -8.30 -0.81
Si  0.06  2.42  9.00
Si -0.08 -2.42 -9.00
Si  8.72 -2.37  2.46
Si  5.65 -1.24 -7.36
Si -8.74  2.32 -2.49
Si  2.60 -0.01  9.02
Si  6.54 -3.55 -5.73
Si -5.69  1.16  7.38
Si -8.77 -2.27  2.46
Si -6.58  3.47  5.74
Si  1.71 -2.34  8.95
Si -2.62 -0.04 -9.04
Si -1.71  2.37 -8.97
Si  0.39 -5.94 -7.31
Si  7.83 -4.70  2.40
Si  1.73  2.29 -9.00
Si -7.82  4.73 -2.42
Si -1.75 -2.29  9.00
Si  8.84  2.27 -2.49
Si -4.84 -5.79 -5.71
Si  7.35 -5.91 -0.81
Si  7.44 -1.14 -5.75
Si -4.79  3.58  7.35
Si  4.73 -3.59 -7.39
Si  4.71 -8.20  0.80
Si -7.49  1.12  5.71
Si -1.40 -5.84  7.35
Si -7.33  5.99  0.84
Si -0.33  5.98  7.38
Si  1.34  5.83 -7.39
Si -4.77  8.19 -0.83
Si  4.86  5.87  5.74
Si  7.99  4.77  2.45
Si  2.17 -5.79  7.39
Si -8.01 -4.78 -2.45
Si -2.15  5.87 -7.36
Si  5.12 -7.13  4.10
Si -5.14  7.12 -4.10
Si  0.78 -9.40 -2.42
Si -5.34 -7.05  4.13
Si -1.01 -9.41  2.40
Si -0.77  9.43  2.40
Si  5.35  7.08 -4.15
Si  1.01  9.44 -2.42
Si -3.49  2.37  8.95
Si  3.50 -2.34 -8.97
Si  3.53  2.37  8.95
Si -3.52 -2.34 -8.97
Si  8.75  2.29  4.10
Si -9.63  0.02 -2.42
Si  6.55  1.12 -7.39
Si  9.26  3.52  0.82
Si  9.64  0.01  2.40
Si  3.14  5.87  7.38
Si  5.62 -5.85 -5.75
Si -5.68  5.83  5.71
Si -8.73  2.37  4.13
Si -6.61 -1.13  7.35
Si -8.77 -2.30 -4.10
Si  8.74 -2.34 -4.15
Si -7.83  4.68  4.06
Si -3.18 -5.95 -7.36
Si -9.29 -3.59 -0.81
Si  7.81 -4.72 -4.09
Si -2.57  9.35 -2.45
Si -5.75 -8.14  0.84
Si  2.55 -9.36  2.45
Si -5.78 -3.55 -7.36
Si  7.46  3.47  5.74
Si  1.25 -8.15 -5.72
Si -4.42 -0.01  9.02
Si  4.40 -0.04 -9.04
Si -0.58 -8.26  5.74
Si  5.77  8.22 -0.81
Si  5.80  3.63  7.39
Si -7.50 -3.55 -5.73
Si -1.19  8.19  5.79
Si -7.93 -4.80  4.06
Si  0.60  8.34 -5.71
Si -10.07 -1.09  0.83
Si -6.92  7.03 -2.49
Si  7.99  4.80 -4.09
Si  2.79  9.48  2.45
Si  6.90 -7.08  2.46
Si  8.35  1.16 -5.73
Si -2.81 -9.49 -2.45
Si -3.88  5.87  7.38
Si  0.79 -4.72  9.02
Si -0.81  4.67 -9.04
Si 10.12  1.12 -0.76
Si  3.84 -5.95 -7.36
Si  8.37  5.83 -0.81
Si -8.39 -1.24  5.74
Si  2.26  8.18  5.74
Si  0.97  4.80  9.01
Si -0.91 -4.80 -9.04
Si  1.00  9.39  4.06
Si -0.79  9.41 -4.09
Si -2.30 -8.26 -5.73
Si  7.12  7.03 -2.49
Si -8.41 -5.90  0.82
Si  0.76 -9.45  4.06
Si -1.02 -9.43 -4.09
Si -7.14 -7.08  2.46
Si  9.62 -0.01 -4.09
Si -6.57  3.47 -7.36
Si -9.65 -0.03  4.06
Si -2.66 -4.62  9.01
Si  6.53 -3.55  7.38
Si -2.48  9.33  4.06
Si  2.92 -8.30  5.71
Si -2.60  4.70  9.02
Si  2.55 -9.33 -4.09
Si  2.72  4.62 -9.04
Si -2.97  8.28 -5.75
Si  7.43 -1.13  7.35
Si  2.58 -4.75 -9.04
Si  0.34 -10.51  0.83
Si -6.44  8.33  0.83
Si  6.50 -8.30 -0.76
Si -4.85 -5.79  7.39
Si -0.28 10.54 -0.76
Si -7.49  1.12 -7.39
Si  4.87  5.87 -7.36
Si -6.64 -5.94  5.79
Si  6.69  5.98 -5.72
Si  4.45  9.35 -2.45
Si -8.23  3.63 -5.71
Si -4.47 -9.36  2.45
Si  8.25 -3.55  5.74
Si -5.31 -2.34  8.95
Si -4.24  9.48  2.45
Si  4.21 -9.49 -2.45
Si  5.27 -2.29  9.00
Si  0.82 -0.07 10.65
Si -0.84  0.06 -10.65
Si -5.29  2.29 -9.00
Si  5.31  2.37 -8.97
Si -2.72 -9.51  4.06
Si 10.10 -3.43  0.84
Si -10.08  3.51 -0.81
Si  2.79  9.51 -4.09
Si  6.92 -7.05 -4.15
Si -6.92  7.08  4.13
Si -1.49 -10.62 -0.81
Si  1.51 10.70  0.84
Si -7.12 -7.05 -4.15
Si -9.12  5.83 -0.76
Si  7.12  7.08  4.13
Si  4.05  8.28 -5.75
Si -2.07 10.64  0.80
Si  2.01 -10.65 -0.83
Si -9.16  1.27 -5.72
Si -4.10 -8.30  5.71
Si  9.17 -5.80  0.83
Si -0.00 -2.44 10.62
Si -6.11 -0.09 -9.04
Si  0.06  2.44 -10.64
Si  6.17  0.09  9.01
Si  5.62 -5.84  7.35
Si  9.22 -1.23  5.79
Si  9.61 -4.69 -2.42
Si -9.60  4.72  2.40
Si -5.68  5.83 -7.39
Si  9.66  4.64 -2.45
Si -1.72  2.32 10.61
Si -2.62  0.02 10.69
Si  1.81  2.27 10.62
Si -9.68 -4.65  2.45
Si  2.63  0.01 -10.70
Si -10.93  1.12 -0.76
Si -1.75 -2.27 -10.64
Si -4.30  4.62 -9.04
Si  4.36 -4.62  9.01
Si  1.70 -2.37 -10.64
Si  3.17 10.54 -0.81
Si -1.19  8.19 -7.31
Si  7.47  3.47 -7.36
Si 10.51 -2.39 -2.49
Si -10.53  2.34  2.46
Si  1.25 -8.15  7.38
Si 10.53  2.34  2.46
Si -7.35  5.98 -5.72
Si -4.76  8.18  5.74
Si 10.99 -1.09  0.83
Si -0.58 -8.26 -7.36
Si  4.42  4.70  9.02
Si -10.55 -2.39 -2.49
Si  4.72 -8.26 -5.73
Si -7.51 -3.55  7.38
Si -3.21 -10.61  0.82
Si  7.40 -5.94  5.79
Si -4.47 -9.33 -4.09
Si -4.44 -4.75 -9.04
Si  4.54  9.33  4.06
Si  0.60  8.34  7.39
Si -4.24  9.51 -4.09
Si  4.30 -9.51  4.06
Si  8.35  1.16  7.38
Si -8.39 -1.24 -7.36
Si  2.26  8.18 -7.36
Si -7.54 -8.30 -0.76
Si -3.85 10.54 -0.81
Si  3.81 -10.61  0.82
Si  7.60  8.33  0.83
Si -2.30 -8.26  7.38
Si -0.10 -7.05  8.95
Si  3.48 -2.39 10.61
Si  6.01 -9.41  2.40
Si  0.11  7.08 -8.97
Si -3.54 -2.39 10.61
Si -3.51  2.34 -10.64
Si -6.01  9.44 -2.42
Si  3.51  2.34 -10.64
Si  9.60 -4.74  4.06
Si -9.62  4.70 -4.09
Si  9.25  3.57 -5.75
Si -2.98  8.29  7.35
Si -8.71  7.05  2.46
Si -9.68 -4.62 -4.09
Si  2.92 -8.30 -7.39
Si  8.69 -7.10 -2.49
Si -9.31 -3.59  5.71
Si -5.77 -8.15 -5.72
Si -10.96 -3.43  0.84
Si  9.74  4.62  4.06
Si -6.63 -5.94 -7.31
Si  1.68 -7.05 -8.97
Si -1.68  7.08  8.95
Si 10.52 -2.34  4.13
Si -6.25 -9.40 -2.42
Si -10.51  2.37 -4.15
Si 10.98  3.51 -0.81
Si  4.40  0.02 10.69
Si -10.54 -2.34  4.13
Si  6.25  9.43  2.40
Si -4.39  0.01 -10.70
Si 10.55  2.37 -4.15
Si  5.83  8.19  5.79
Si -10.05 -1.08 -5.71
Si  6.69  5.98  7.38
Si  8.26 -3.55 -7.36
Si  6.94 -2.42 -9.00
Si -6.96  2.42  9.00
Si  1.88  7.12  9.00
Si -8.83 -7.15 -2.49
Si -1.90 -7.13 -9.00
Si 10.07  1.16  5.74
Si  8.29 -8.14  0.84
Si -8.24  3.63  7.39
Si -11.42  0.01  2.40
Si  8.89  7.15  2.46
Si 11.42  0.02 -2.42
Si  8.36  5.83  5.71
Si -8.27  8.22 -0.81
Si  7.08  2.42  9.00
