500
set: 100.00  0.00  0.00
Si  0.00  0.00  0.00
Si  0.04 -0.01  2.32
Si -0.04  0.01 -2.32
Si  2.54  0.00  0.00
Si -2.54  0.00  0.00
Si -1.27  2.24  0.00
Si  1.27 -2.24  0.00
Si -1.27 -2.24  0.00
Si  1.27  2.24  0.00
Si -2.51 -0.01  2.32
Si  2.51  0.01 -2.32
Si  1.23 -2.23 -2.32
Si -1.23  2.23  2.32
Si -1.24 -2.26  2.32
Si  1.24  2.26 -2.32
Si -2.58  0.01 -2.32
Si  2.58 -0.01  2.32
Si -1.31 -2.23 -2.32
Si  1.31  2.23  2.32
Si  1.31 -2.26  2.32
Si -1.31  2.26 -2.32
Si -3.81  2.24  0.00
Si  3.81 -2.24  0.00
Si  3.82  2.24  0.00
Si -3.82 -2.24  0.00
Si -0.00 -4.49  0.00
Si  0.00  4.49  0.00
Si -0.07  0.03 -4.64
Si  0.07 -0.03  4.64
Si -3.78  2.23  2.32
Si  3.78 -2.23 -2.32
Si -3.78 -2.26  2.32
Si  3.78  2.26 -2.32
Si -3.85 -2.23 -2.32
Si  3.85  2.23  2.32
Si -3.85  2.26 -2.32
Si  3.85 -2.26  2.32
Si  0.04  4.47  2.32
Si -0.04 -4.47 -2.32
Si  0.03 -4.50  2.32
Si -0.03  4.50 -2.32
Si  5.09  0.00  0.00
Si -5.09  0.00  0.00
Si  2.54 -4.49  0.00
Si -2.54  4.49  0.00
Si -2.55 -4.49  0.00
Si  2.55  4.49  0.00
Si  2.47  0.03 -4.64
Si -2.47 -0.03  4.64
Si -1.20  2.21  4.64
Si  1.20 -2.21 -4.64
Si -1.20 -2.27  4.64
Si  1.20  2.27 -4.64
Si -1.35 -2.21 -4.64
Si  1.35  2.21  4.64
Si -2.62  0.03 -4.64
Si  2.62 -0.03  4.64
Si  1.34 -2.27  4.64
Si -1.34  2.27 -4.64
Si  5.05  0.01 -2.32
Si -5.05 -0.01  2.32
Si  5.12 -0.01  2.32
Si -5.12  0.01 -2.32
Si  2.50 -4.47 -2.32
Si -2.50  4.47  2.32
Si  2.51  4.50 -2.32
Si -2.51 -4.50  2.32
Si -2.58 -4.47 -2.32
Si  2.58  4.47  2.32
Si -2.58  4.50 -2.32
Si  2.58 -4.50  2.32
Si -3.74  2.21  4.64
Si  3.74 -2.21 -4.64
Si -3.75 -2.27  4.64
Si  3.75  2.27 -4.64
Si  0.08  4.46  4.64
Si -0.08 -4.46 -4.64
Si -3.89 -2.21 -4.64
Si  3.89  2.21  4.64
Si  3.89 -2.27  4.64
Si -3.89  2.27 -4.64
Si  0.07 -4.52  4.64
Si -0.07  4.52 -4.64
Si  6.36 -2.24  0.00
Si -6.36  2.24  0.00
Si  6.36  2.24  0.00
Si -6.36 -2.24  0.00
Si -5.08  4.49  0.00
Si  5.08 -4.49  0.00
Si  5.09  4.49  0.00
Si -5.09 -4.49  0.00
Si  5.02  0.03 -4.64
Si -5.02 -0.03  4.64
Si -1.27  6.73  0.00
Si  1.27 -6.73  0.00
Si -1.28 -6.73  0.00
Si  1.28  6.73  0.00
Si -2.47  4.46  4.64
Si  2.47 -4.46 -4.64
Si  2.48  4.52 -4.64
Si -2.48 -4.52  4.64
Si  5.16 -0.03  4.64
Si -5.16  0.03 -4.64
Si  2.62  4.46  4.64
Si -2.62 -4.46 -4.64
Si -0.11  0.04 -6.95
Si  0.11 -0.04  6.95
Si  2.61 -4.52  4.64
Si -2.61  4.52 -4.64
Si -6.32  2.23  2.32
Si  6.32 -2.23 -2.32
Si -6.33 -2.26  2.32
Si  6.33  2.26 -2.32
Si -5.05  4.47  2.32
Si  5.05 -4.47 -2.32
Si  5.06  4.50 -2.32
Si -5.06 -4.50  2.32
Si  6.40  2.23  2.32
Si -6.40 -2.23 -2.32
Si -6.39  2.26 -2.32
Si  6.39 -2.26  2.32
Si  5.13  4.47  2.32
Si -5.13 -4.47 -2.32
Si  5.12 -4.50  2.32
Si -5.12  4.50 -2.32
Si -1.23  6.72  2.32
Si  1.23 -6.72 -2.32
Si -1.31 -6.72 -2.32
Si  1.31  6.72  2.32
Si -1.24 -6.75  2.32
Si  1.24  6.75 -2.32
Si -1.30  6.75 -2.32
Si  1.30 -6.75  2.32
Si -2.44 -0.04  6.95
Si  2.44  0.04 -6.95
Si -1.16  2.20  6.95
Si  1.16 -2.20 -6.95
Si -1.17 -2.29  6.95
Si  1.17  2.29 -6.95
Si -1.38 -2.20 -6.95
Si  1.38  2.20  6.95
Si  2.65 -0.04  6.95
Si -2.65  0.04 -6.95
Si  1.38 -2.29  6.95
Si -1.38  2.29 -6.95
Si  7.63  0.00  0.00
Si -7.63  0.00  0.00
Si  3.81 -6.73  0.00
Si -3.81  6.73  0.00
Si  3.82  6.73  0.00
Si -3.82 -6.73  0.00
Si -7.60 -0.01  2.32
Si  7.60  0.01 -2.32
Si -7.67  0.01 -2.32
Si  7.67 -0.01  2.32
Si -3.77  6.72  2.32
Si  3.77 -6.72 -2.32
Si  3.79  6.75 -2.32
Si -3.79 -6.75  2.32
Si -3.86 -6.72 -2.32
Si  3.86  6.72  2.32
Si  3.85 -6.75  2.32
Si -3.85  6.75 -2.32
Si -6.29  2.21  4.64
Si  6.29 -2.21 -4.64
Si -6.29 -2.27  4.64
Si  6.29  2.27 -4.64
Si -5.01  4.46  4.64
Si  5.01 -4.46 -4.64
Si  3.71 -2.20 -6.95
Si -3.71  2.20  6.95
Si -5.02 -4.52  4.64
Si  5.02  4.52 -4.64
Si  3.71  2.29 -6.95
Si -3.71 -2.29  6.95
Si -6.44 -2.21 -4.64
Si  6.44  2.21  4.64
Si  1.19 -6.70 -4.64
Si -1.19  6.70  4.64
Si  6.43 -2.27  4.64
Si -6.43  2.27 -4.64
Si  5.17  4.46  4.64
Si -5.17 -4.46 -4.64
Si  0.11  4.44  6.95
Si -0.11 -4.44 -6.95
Si -1.35 -6.70 -4.64
Si  1.35  6.70  4.64
Si  5.16 -4.52  4.64
Si -5.16  4.52 -4.64
Si -3.93 -2.20 -6.95
Si  3.93  2.20  6.95
Si -1.21 -6.76  4.64
Si  1.21  6.76 -4.64
Si -0.10  4.53 -6.95
Si  0.10 -4.53  6.95
Si  3.92 -2.29  6.95
Si -3.92  2.29 -6.95
Si -1.34  6.76 -4.64
Si  1.34 -6.76  4.64
Si  4.98  0.04 -6.95
Si -4.98 -0.04  6.95
Si -2.43  4.44  6.95
Si  2.43 -4.44 -6.95
Si  2.44  4.53 -6.95
Si -2.44 -4.53  6.95
Si  2.66  4.44  6.95
Si -2.66 -4.44 -6.95
Si  5.20 -0.04  6.95
Si -5.20  0.04 -6.95
Si -2.65  4.53 -6.95
Si  2.65 -4.53  6.95
Si  7.63 -4.49  0.00
Si -7.63  4.49  0.00
Si -7.64 -4.49  0.00
Si  7.64  4.49  0.00
Si -7.56 -0.03  4.64
Si  7.56  0.03 -4.64
Si  3.74 -6.70 -4.64
Si -3.74  6.70  4.64
Si  0.01  8.98  0.00
Si -0.01 -8.98  0.00
Si  7.71 -0.03  4.64
Si -7.71  0.03 -4.64
Si -3.75 -6.76  4.64
Si  3.75  6.76 -4.64
Si  3.90  6.70  4.64
Si -3.90 -6.70 -4.64
Si -3.88  6.76 -4.64
Si  3.88 -6.76  4.64
Si  7.59 -4.47 -2.32
Si -7.59  4.47  2.32
Si -7.60 -4.50  2.32
Si  7.60  4.50 -2.32
Si -7.67 -4.47 -2.32
Si  7.67  4.47  2.32
Si -8.90  2.24  0.00
Si  8.90 -2.24  0.00
Si  8.91  2.24  0.00
Si -8.91 -2.24  0.00
Si  7.67 -4.50  2.32
Si -7.67  4.50 -2.32
Si  0.04  8.96  2.32
Si -0.04 -8.96 -2.32
Si -6.35  6.73  0.00
Si  6.35 -6.73  0.00
Si  6.37  6.73  0.00
Si -6.37 -6.73  0.00
Si  0.14 -0.06  9.27
Si -0.14  0.06 -9.27
Si -0.03  8.99 -2.32
Si  0.03 -8.99  2.32
Si -2.54  8.98  0.00
Si  2.54 -8.98  0.00
Si -2.55 -8.98  0.00
Si  2.55  8.98  0.00
Si -8.87  2.23  2.32
Si  8.87 -2.23 -2.32
Si -8.87 -2.26  2.32
Si  8.87  2.26 -2.32
Si -8.94 -2.23 -2.32
Si  8.94  2.23  2.32
Si  8.94 -2.26  2.32
Si -8.94  2.26 -2.32
Si -6.32  6.72  2.32
Si  6.32 -6.72 -2.32
Si -6.33 -6.75  2.32
Si  6.33  6.75 -2.32
Si  6.40  6.72  2.32
Si -6.40 -6.72 -2.32
Si -2.40 -0.06  9.27
Si  2.40  0.06 -9.27
Si -6.39  6.75 -2.32
Si  6.39 -6.75  2.32
Si  2.50 -8.96 -2.32
Si -2.50  8.96  2.32
Si  1.12 -2.19 -9.27
Si -1.12  2.19  9.27
Si  6.25 -2.20 -6.95
Si -6.25  2.20  6.95
Si -2.59 -8.96 -2.32
Si  2.59  8.96  2.32
Si -1.13 -2.30  9.27
Si  1.13  2.30 -9.27
Si -2.52 -8.99  2.32
Si  2.52  8.99 -2.32
Si  6.25  2.29 -6.95
Si -6.25 -2.29  6.95
Si -1.42 -2.19 -9.27
Si  1.42  2.19  9.27
Si -2.57  8.99 -2.32
Si  2.57 -8.99  2.32
Si -4.97  4.44  6.95
Si  4.97 -4.44 -6.95
Si -2.69  0.06 -9.27
Si  2.69 -0.06  9.27
Si  1.42 -2.30  9.27
Si -1.42  2.30 -9.27
Si  4.98  4.53 -6.95
Si -4.98 -4.53  6.95
Si  1.16 -6.69 -6.95
Si -1.16  6.69  6.95
Si  1.39  6.69  6.95
Si -1.39 -6.69 -6.95
Si -6.47 -2.20 -6.95
Si  6.47  2.20  6.95
Si  5.20  4.44  6.95
Si -5.20 -4.44 -6.95
Si  6.47 -2.29  6.95
Si -6.47  2.29 -6.95
Si  1.17  6.78 -6.95
Si -1.17 -6.78  6.95
Si -5.19  4.53 -6.95
Si  5.19 -4.53  6.95
Si -1.37  6.78 -6.95
Si  1.37 -6.78  6.95
Si  7.56 -4.46 -4.64
Si -7.56  4.46  4.64
Si -7.57 -4.52  4.64
Si  7.57  4.52 -4.64
Si -7.71 -4.46 -4.64
Si  7.71  4.46  4.64
Si  7.70 -4.52  4.64
Si -7.70  4.52 -4.64
Si  0.08  8.95  4.64
Si -0.08 -8.95 -4.64
Si  0.06 -9.01  4.64
Si -0.06  9.01 -4.64
Si 10.18  0.00  0.00
Si -10.18  0.00  0.00
Si  3.67 -2.19 -9.27
Si -3.67  2.19  9.27
Si -8.83  2.21  4.64
Si  8.83 -2.21 -4.64
Si  8.84  2.27 -4.64
Si -8.84 -2.27  4.64
Si  3.67  2.30 -9.27
Si -3.67 -2.30  9.27
Si  7.52  0.04 -6.95
Si -7.52 -0.04  6.95
Si  0.15  4.43  9.27
Si -0.15 -4.43 -9.27
Si -6.28  6.70  4.64
Si  6.28 -6.70 -4.64
Si  5.08 -8.98  0.00
Si -5.08  8.98  0.00
Si -3.96 -2.19 -9.27
Si  3.96  2.19  9.27
Si  5.10  8.98  0.00
Si -5.10 -8.98  0.00
Si -0.14  4.55 -9.27
Si  0.14 -4.55  9.27
Si  3.70 -6.69 -6.95
Si -3.70  6.69  6.95
Si -6.29 -6.76  4.64
Si  6.29  6.76 -4.64
Si -3.96  2.30 -9.27
Si  3.96 -2.30  9.27
Si  8.98  2.21  4.64
Si -8.98 -2.21 -4.64
Si  8.97 -2.27  4.64
Si -8.97  2.27 -4.64
Si -2.46  8.95  4.64
Si  2.46 -8.95 -4.64
Si -6.44 -6.70 -4.64
Si  6.44  6.70  4.64
Si -3.71 -6.78  6.95
Si  3.71  6.78 -6.95
Si 10.14  0.01 -2.32
Si -10.14 -0.01  2.32
Si -7.74  0.04 -6.95
Si  7.74 -0.04  6.95
Si  2.63  8.95  4.64
Si -2.63 -8.95 -4.64
Si  6.43 -6.76  4.64
Si -6.43  6.76 -4.64
Si  3.93  6.69  6.95
Si -3.93 -6.69 -6.95
Si -2.48 -9.01  4.64
Si  2.48  9.01 -4.64
Si -2.61  9.01 -4.64
Si  2.61 -9.01  4.64
Si -3.92  6.78 -6.95
Si  3.92 -6.78  6.95
Si -10.21  0.01 -2.32
Si 10.21 -0.01  2.32
Si -4.94 -0.06  9.27
Si  4.94  0.06 -9.27
Si  5.04 -8.96 -2.32
Si -5.04  8.96  2.32
Si  2.40 -4.43 -9.27
Si -2.40  4.43  9.27
Si -5.06 -8.99  2.32
Si  5.06  8.99 -2.32
Si -5.13 -8.96 -2.32
Si  5.13  8.96  2.32
Si -5.12  8.99 -2.32
Si  5.12 -8.99  2.32
Si  2.40  4.55 -9.27
Si -2.40 -4.55  9.27
Si  2.69  4.43  9.27
Si -2.69 -4.43 -9.27
Si  5.23 -0.06  9.27
Si -5.23  0.06 -9.27
Si  2.69 -4.55  9.27
Si -2.69  4.55 -9.27
Si 10.11  0.03 -4.64
Si -10.11 -0.03  4.64
Si -10.17  4.49  0.00
Si 10.17 -4.49  0.00
Si -10.18 -4.49  0.00
Si 10.18  4.49  0.00
Si  8.90 -6.73  0.00
Si -8.90  6.73  0.00
Si  7.52 -4.44 -6.95
Si -7.52  4.44  6.95
Si -8.91 -6.73  0.00
Si  8.91  6.73  0.00
Si -7.53 -4.53  6.95
Si  7.53  4.53 -6.95
Si 10.25 -0.03  4.64
Si -10.25  0.03 -4.64
Si  5.01 -8.95 -4.64
Si -5.01  8.95  4.64
Si -1.26 11.22  0.00
Si  1.26 -11.22  0.00
Si  1.28 11.22  0.00
Si -1.28 -11.22  0.00
Si  5.03  9.01 -4.64
Si -5.03 -9.01  4.64
Si  7.75  4.44  6.95
Si -7.75 -4.44 -6.95
Si 10.14 -4.47 -2.32
Si -10.14  4.47  2.32
Si  0.12  8.93  6.95
Si -0.12 -8.93 -6.95
Si  5.17  8.95  4.64
Si -5.17 -8.95 -4.64
Si 10.14  4.50 -2.32
Si -10.14 -4.50  2.32
Si -7.74  4.53 -6.95
Si  7.74 -4.53  6.95
Si -8.86  6.72  2.32
Si  8.86 -6.72 -2.32
Si -5.15  9.01 -4.64
Si  5.15 -9.01  4.64
Si  6.21 -2.19 -9.27
Si -6.21  2.19  9.27
Si  8.88  6.75 -2.32
Si -8.88 -6.75  2.32
Si -0.10  9.02 -6.95
Si  0.10 -9.02  6.95
Si -10.22 -4.47 -2.32
Si 10.22  4.47  2.32
Si -10.21  4.50 -2.32
Si 10.21 -4.50  2.32
Si  6.22  2.30 -9.27
Si -6.22 -2.30  9.27
Si  4.94 -4.43 -9.27
Si -4.94  4.43  9.27
Si -8.79  2.20  6.95
Si  8.79 -2.20 -6.95
Si  8.95  6.72  2.32
Si -8.95 -6.72 -2.32
Si  8.94 -6.75  2.32
Si -8.94  6.75 -2.32
Si -8.80 -2.29  6.95
Si  8.80  2.29 -6.95
Si  4.95  4.55 -9.27
Si -4.95 -4.55  9.27
Si  1.12 -6.67 -9.27
Si -1.12  6.67  9.27
Si  6.25 -6.69 -6.95
Si -6.25  6.69  6.95
Si  1.23 -11.21 -2.32
Si -1.23 11.21  2.32
Si  1.42  6.67  9.27
Si -1.42 -6.67 -9.27
Si -1.32 -11.21 -2.32
Si  1.32 11.21  2.32
Si  5.24  4.43  9.27
Si -5.24 -4.43 -9.27
Si -6.51 -2.19 -9.27
Si  6.51  2.19  9.27
Si -1.25 -11.24  2.32
Si  1.25 11.24 -2.32
Si -1.30 11.24 -2.32
Si  1.30 -11.24  2.32
Si  1.13  6.79 -9.27
Si -1.13 -6.79  9.27
Si -6.26 -6.78  6.95
Si  6.26  6.78 -6.95
Si -6.50  2.30 -9.27
Si  6.50 -2.30  9.27
Si  5.23 -4.55  9.27
Si -5.23  4.55 -9.27
Si -2.43  8.93  6.95
Si  2.43 -8.93 -6.95
Si -1.41  6.79 -9.27
Si  1.41 -6.79  9.27
Si -0.18  0.07 -11.59
