500
set: 353.00  0.00  0.00
Si  0.05  0.03 -0.03
Si -1.86  1.04  0.79
Si -0.04 -2.19  0.70
Si  1.93  1.02  0.80
Si -0.01  0.07 -2.37
Si -3.68 -0.03 -0.01
Si -0.01 -2.15  3.01
Si  1.81  3.23 -0.06
Si  1.82 -1.07 -3.04
Si -1.85 -1.06 -3.06
Si  1.88 -3.24  0.08
Si -1.87  3.27  0.08
Si  1.91  1.11  3.08
Si -1.93  1.10  3.09
Si -1.94 -3.28 -0.06
Si -0.01  2.19 -3.13
Si  3.84 -0.03 -0.01
Si  1.86 -1.03  3.76
Si -1.87  3.22 -2.21
Si  3.73 -0.00 -2.28
Si  1.89 -3.29 -2.21
Si -0.01  4.33  0.82
Si  3.75 -2.17  0.82
Si -1.90 -3.20 -2.37
Si -3.79 -0.00 -2.28
Si -0.03  2.17  3.86
Si -3.77 -2.17  0.82
Si  1.86  3.31 -2.37
Si -1.87 -1.12  3.92
Si  3.75  2.17 -3.02
Si -0.01 -4.34 -3.02
Si -3.77  2.17 -3.02
Si  3.75 -2.17  3.11
Si -0.01  4.34  3.11
Si -3.77 -2.17  3.11
Si -0.01 -4.27  3.76
Si -5.58  1.02  0.80
Si  3.72  4.32  0.70
Si -1.82 -1.15 -5.34
Si  3.75  2.24  3.76
Si -3.76  2.24  3.76
Si  1.90 -1.13 -5.35
Si -3.80  4.32  0.70
Si  5.66  1.04  0.79
Si -1.82 -5.48  0.80
Si  1.90 -5.47  0.79
Si -0.04  2.15 -5.43
Si  1.81 -1.11  6.07
Si  1.88  1.10 -6.06
Si  5.57 -3.28 -0.06
Si  5.58  1.10  3.09
Si  0.08  6.48 -0.01
Si -1.85 -5.40  3.08
Si  3.74  4.36  3.01
Si -5.61  1.11  3.08
Si  0.08  2.14  6.13
Si  1.82 -5.41  3.09
Si -5.63 -3.24  0.08
Si -3.77  4.36  3.01
Si  3.74 -4.32 -3.13
Si  5.64  3.27  0.08
Si -1.93  5.43 -3.04
Si  0.08 -2.20 -6.14
Si  5.67 -1.06 -3.06
Si -3.77 -4.32 -3.13
Si  1.91  5.45 -3.06
Si  0.08 -6.54 -0.01
Si -5.69 -1.07 -3.04
Si -5.70  3.23 -0.06
Si -1.87 -1.07  6.22
Si -1.94  1.06 -6.20
Si  3.75  2.17 -5.32
Si -3.76  2.17 -5.32
Si  5.65  3.22 -2.21
Si -0.01 -4.34 -5.32
Si -5.66 -1.03  3.76
Si -5.63 -3.29 -2.21
Si  5.62 -3.20 -2.37
Si -0.03  6.51 -2.28
Si -0.03 -6.51 -2.28
Si  3.73 -4.34  3.86
Si -1.90  5.48  3.76
Si  1.89  5.39  3.92
Si -3.79 -4.34  3.86
Si -0.01 -0.01  6.96
Si  5.65 -1.12  3.92
Si -5.66  3.31 -2.37
Si -3.71 -6.48 -0.03
Si -7.47  0.03 -0.03
Si  0.05 -4.31  6.10
Si -3.71  2.20  6.10
Si -3.71 -2.14 -6.17
Si  3.81 -6.48 -0.03
Si -3.71  6.54 -0.03
Si  3.81  2.20  6.10
Si  3.81 -2.14 -6.17
Si  0.05  4.37 -6.17
Si  7.56  0.03 -0.03
Si  3.81  6.54 -0.03
Si  3.72 -0.02  6.84
Si -1.82  7.53  0.80
Si -1.86  5.38 -5.35
Si  1.93  5.36 -5.34
Si  7.47 -2.19  0.70
Si  3.75 -6.44 -2.37
Si -3.80 -0.02  6.84
Si -3.76 -6.44 -2.37
Si  1.90  7.55  0.79
Si -5.62 -1.13 -5.35
Si -1.82  3.19  6.93
Si  1.90  3.21  6.93
Si -5.62 -5.47  0.79
Si  7.51  0.07 -2.37
Si -7.52  0.07 -2.37
Si  5.69 -1.15 -5.34
Si -1.86 -3.30  6.93
Si  3.72 -4.36 -5.43
Si -7.56 -2.19  0.70
Si  1.93 -3.31  6.93
Si -3.80 -4.36 -5.43
Si  3.75  6.58 -2.37
Si -3.76  6.58 -2.37
Si  5.69 -5.48  0.80
Si -1.87 -5.41 -6.06
Si -5.63  1.10 -6.06
Si -1.94  5.40  6.07
Si -3.68  4.31 -6.14
Si  7.50 -2.15  3.01
Si  5.58  5.43 -3.04
Si -3.68 -4.37  6.13
Si  1.91 -7.57 -3.06
Si -7.53 -2.15  3.01
Si -5.61  5.45 -3.06
Si -1.93 -7.58 -3.04
Si  5.57  1.06 -6.20
Si -5.70 -1.11  6.07
Si  5.67 -5.40  3.08
Si  1.82  7.61  3.09
Si  7.50  2.19 -3.13
Si -1.85  7.62  3.08
Si  3.84  4.31 -6.14
Si -5.69 -5.41  3.09
Si -7.53  2.19 -3.13
Si  3.84 -4.37  6.13
Si  1.81 -5.45 -6.20
Si  5.64 -1.07  6.22
Si  1.88  5.44  6.22
Si  1.89  1.05 -8.35
Si -1.90 -7.54  3.76
Si -0.03 -2.17 -8.42
Si  7.49  2.17  3.86
Si  5.62  5.48  3.76
Si  7.51  4.33  0.82
Si -7.52  4.33  0.82
Si -0.01 -8.68  0.82
Si -5.63  5.39  3.92
Si -7.55  2.17  3.86
Si  1.89 -7.63  3.92
Si -1.90  1.14 -8.51
Si -0.01  0.00 -9.16
Si  7.50 -4.34 -3.02
Si -0.01  8.68 -3.02
Si -7.53 -4.34 -3.02
Si  7.50  4.34  3.11
Si -0.01 -8.68  3.11
Si -7.53  4.34  3.11
Si -0.01 -0.00  9.25
Si -5.58  5.36 -5.34
Si  7.51 -4.27  3.76
Si -0.04  6.49  6.84
Si -7.52 -4.27  3.76
Si -5.62  7.55  0.79
Si -0.04 -6.53  6.84
Si -9.37  1.04  0.79
Si  5.66  5.38 -5.35
Si  5.69  7.53  0.80
Si -5.62  3.21  6.93
Si  3.72 -8.70  0.70
Si  7.47  2.15 -5.43
Si -5.58 -3.31  6.93
Si -1.86 -7.64 -5.35
Si -3.80 -8.70  0.70
Si  5.69  3.19  6.93
Si -0.01  8.75  3.76
Si  1.93 -7.65 -5.34
Si  5.66 -3.30  6.93
Si  3.75 -2.10 -8.51
Si  9.45  1.02  0.80
Si -3.76 -2.10 -8.51
Si -7.56  2.15 -5.43
Si -0.01  4.41 -8.51
Si  5.57  5.40  6.07
Si -7.43  6.48 -0.01
Si -7.43  2.14  6.13
Si  9.33  3.23 -0.06
Si  3.74  0.02  9.14
Si  9.34 -1.07 -3.04
Si  5.64 -5.41 -6.06
Si -3.77  0.02  9.14
Si -7.43 -2.20 -6.14
Si  5.58 -7.58 -3.04
Si  3.74 -8.65  3.01
Si -7.43 -6.54 -0.01
Si -1.87  7.61 -6.06
Si -5.61 -7.57 -3.06
Si -3.77 -8.65  3.01
Si -9.37 -1.06 -3.06
Si  1.82  3.27 -9.18
Si -1.93 -3.24 -9.18
Si -1.94  9.74 -0.06
Si -1.87 -9.75  0.08
Si  1.91 -3.23 -9.20
Si -1.85  3.28 -9.20
Si -1.94 -7.62  6.07
Si -9.39  3.27  0.08
Si  9.40 -3.24  0.08
Si  1.91 -3.23  9.21
Si  1.81  7.57 -6.20
Si -1.85  3.28  9.21
Si  1.88  9.78  0.08
Si  1.81 -9.79 -0.06
Si  1.82  3.27  9.23
Si -1.93 -3.24  9.23
Si  9.42  1.11  3.08
Si  3.74  8.70 -3.13
Si  5.67  7.62  3.08
Si  1.88 -7.58  6.22
Si  7.60  6.48 -0.01
Si -3.77  8.70 -3.13
Si -5.69  7.61  3.09
Si  7.60  2.14  6.13
Si  3.74  0.03 -9.27
Si -5.63  5.44  6.22
Si -9.45  1.10  3.09
Si -3.77  0.03 -9.27
Si -9.46 -3.28 -0.06
Si  7.60 -2.20 -6.14
Si  7.60 -6.54 -0.01
Si -5.70 -5.45 -6.20
Si -5.63  1.05 -8.35
Si  5.62 -7.54  3.76
Si -1.90  1.14  9.90
Si -1.87 -5.46 -8.35
Si  1.89  9.73 -2.21
Si  9.38 -1.03  3.76
Si -9.38  3.22 -2.21
Si  1.86 -9.71 -2.37
Si -0.01  8.67 -5.32
Si  7.51 -4.34 -5.32
Si  3.73  4.34 -8.42
Si  7.49  6.51 -2.28
Si  7.49 -6.51 -2.28
Si -7.52 -4.34 -5.32
Si -3.79  4.34 -8.42
Si  3.73  8.68  3.86
Si  9.40 -3.29 -2.21
Si -1.87 -9.80 -2.21
Si  9.38  3.31 -2.37
Si -7.55  6.51 -2.28
Si -3.79  8.68  3.86
Si -9.41 -3.20 -2.37
Si -7.55 -6.51 -2.28
Si -0.03 -2.17  9.99
Si  1.86 -5.37 -8.51
Si -9.38 -1.12  3.92
Si  3.75  6.50  6.96
Si  7.51 -0.01  6.96
Si -3.76  6.50  6.96
Si  3.75 -6.51  6.96
Si -7.52 -0.01  6.96
Si -3.77 -6.51  6.96
Si  5.62  1.14 -8.51
Si -5.63 -7.63  3.92
Si -1.90  9.81 -2.37
Si  1.89  1.05 10.06
Si -7.47 -4.31  6.10
Si  0.05 -8.65 -6.17
Si -7.47  4.37 -6.17
Si  7.56 -4.31  6.10
Si  0.05  8.71  6.10
Si  7.56  4.37 -6.17
Si  3.75 -2.10  9.90
Si -3.76 -2.10  9.90
Si -9.34 -1.15 -5.34
Si -0.01  4.41  9.90
Si -0.04 10.83  0.70
Si -9.34 -5.48  0.80
Si -5.58 -7.65 -5.34
Si  3.72  8.66 -5.43
Si  9.42 -1.13 -5.35
Si  5.66 -7.64 -5.35
Si -3.80  8.66 -5.43
Si  9.42 -5.47  0.79
Si  9.33 -1.11  6.07
Si -11.19 -0.03 -0.01
Si -0.01 -6.49  9.14
Si  5.57  9.74 -0.06
Si -3.68  8.65  6.13
Si  5.58 -3.24 -9.18
Si  5.57 -7.62  6.07
Si  9.34 -5.41  3.09
Si  9.40  1.10 -6.06
Si -0.01  6.53  9.14
Si -9.37 -5.40  3.08
Si  5.64  7.61 -6.06
Si -5.61 -3.23 -9.20
Si -5.61 -3.23  9.21
Si  5.58 -3.24  9.23
Si  5.64 -9.75  0.08
Si -0.01 -10.82 -3.13
Si -3.68 -8.71 -6.14
Si  3.84  8.65  6.13
Si -0.01 10.87  3.01
Si -5.63  9.78  0.08
Si -5.69  3.27 -9.18
Si  5.67  3.28 -9.20
Si  5.67  3.28  9.21
Si -5.63 -7.58  6.22
Si  9.42  5.45 -3.06
Si -0.01 -6.48 -9.27
Si -9.39 -1.07  6.22
Si -9.45  5.43 -3.04
Si -5.70  7.57 -6.20
Si -5.69  3.27  9.23
Si  3.84 -8.71 -6.14
Si -5.70 -9.79 -0.06
Si -0.01  6.53 -9.27
Si 11.35 -0.03 -0.01
Si -9.46  1.06 -6.20
Si  1.86 -5.37  9.90
Si -1.87  7.56 -8.35
Si  5.62  1.14  9.90
Si -0.01 -0.00 -11.45
Si -5.63  9.73 -2.21
Si  5.65 -5.46 -8.35
Si  7.49 -2.17 -8.42
Si 11.24 -0.00 -2.28
Si -5.66 -9.71 -2.37
Si  3.75 10.84  0.82
Si 11.27 -2.17  0.82
Si -3.76 10.84  0.82
Si  7.51 -8.68  0.82
Si -7.55 -2.17 -8.42
Si  3.73  4.34  9.99
Si -0.03 -10.85  3.86
Si -11.28 -2.17  0.82
Si -7.52 -8.68  0.82
Si -9.41  5.48  3.76
Si  5.65 -9.80 -2.21
Si  9.40  5.39  3.92
Si -11.30 -0.00 -2.28
Si -3.79  4.34  9.99
Si -5.66 -5.37 -8.51
Si  5.62  9.81 -2.37
Si -5.63  1.05 10.06
Si  1.86  7.65 -8.51
Si -1.87 -5.46 10.06
Si  7.50  0.00 -9.16
Si  3.75 -6.51 -9.16
Si  3.75  6.51 -9.16
Si -3.77 -6.51 -9.16
Si -3.77  6.51 -9.16
Si -7.53  0.00 -9.16
Si 11.26  2.17 -3.02
Si  7.50  8.68 -3.02
Si  3.75 -10.85 -3.02
Si -3.77 -10.85 -3.02
Si -7.53  8.68 -3.02
Si -11.29  2.17 -3.02
Si 11.26 -2.17  3.11
Si  7.50 -8.68  3.11
Si  3.75 10.85  3.11
Si -3.77 10.85  3.11
Si -7.53 -8.68  3.11
Si -11.29 -2.17  3.11
Si  7.50 -0.00  9.25
Si  3.75  6.51  9.25
Si  3.75 -6.51  9.25
Si -3.77  6.51  9.25
Si -3.77 -6.51  9.25
Si -7.53 -0.00  9.25
Si  3.75 -10.78  3.76
Si -3.76 -10.78  3.76
Si -9.34  7.53  0.80
Si  7.47  6.49  6.84
Si -1.82  3.19 -11.48
Si  7.47 -6.53  6.84
Si 11.23  4.32  0.70
Si -9.37  5.38 -5.35
Si -9.34  3.19  6.93
Si  1.90  3.21 -11.48
Si -1.86  9.72  6.93
Si  1.93  9.70  6.93
Si -7.56  6.49  6.84
Si 11.27  2.24  3.76
Si -1.86 -3.30 -11.48
Si  9.42  7.55  0.79
Si -11.28  2.24  3.76
Si  1.93 -3.31 -11.48
Si -0.01 -8.61 -8.51
Si -7.56 -6.53  6.84
Si  9.45  5.36 -5.34
Si -9.37 -3.30  6.93
Si  9.42  3.21  6.93
Si  7.51  8.75  3.76
Si -11.31  4.32  0.70
Si -7.52  8.75  3.76
Si -1.86 -11.97  0.79
Si -0.04 -10.87 -5.43
Si  3.72 -0.02 -11.57
Si  1.90 -9.81  6.93
Si -1.82 -9.82  6.93
Si  1.93 -11.99  0.80
Si  7.51  4.41 -8.51
Si -3.80 -0.02 -11.57
Si  9.45 -3.31  6.93
Si -7.52  4.41 -8.51
Si -1.87 -1.07 -12.19
Si -1.94  1.06 12.21
Si -9.39 -5.41 -6.06
Si  9.34  7.61  3.09
Si  0.08 10.82 -6.14
Si 11.26  4.36  3.01
Si  1.91 -11.91  3.08
Si 11.26 -4.32 -3.13
Si  9.33 -5.45 -6.20
Si -9.37  7.62  3.08
Si  1.82 11.94 -3.04
Si  0.08 -2.20 12.27
Si  0.08  2.14 -12.28
Si  9.42 -7.57 -3.06
Si -1.93 -11.92  3.09
Si -9.46  5.40  6.07
Si -11.29  4.36  3.01
Si -1.85 11.96 -3.06
Si -11.29 -4.32 -3.13
Si  0.08 -10.88  6.13
Si -9.45 -7.58 -3.04
Si  9.40  5.44  6.22
Si  1.81 -1.11 -12.34
Si  1.88  1.10 12.35
Si  5.65  7.56 -8.35
Si -5.66 -5.37  9.90
Si  9.40  1.05 -8.35
Si -9.41 -7.54  3.76
Si  7.51  8.67 -5.32
Si 11.27  2.17 -5.32
Si  1.86  7.64  9.90
Si  3.73 -8.68 -8.42
Si -7.52  8.67 -5.32
Si 11.24 -4.34  3.86
Si  3.75 -10.85 -5.32
Si -11.28  2.17 -5.32
Si -3.77 -10.85 -5.32
Si -1.87 11.90  3.92
Si -3.79 -8.68 -8.42
Si  7.49 -2.17  9.99
Si  1.86 11.98  3.76
Si -11.30 -4.34  3.86
Si -7.55 -2.17  9.99
Si -1.87  7.56 10.06
Si  9.40 -7.63  3.92
Si -9.41  1.14 -8.51
Si -5.66  7.65 -8.51
Si  5.65 -5.46 10.06
Si -11.23 -6.48 -0.03
Si -3.71 -10.82  6.10
Si -11.23  2.20  6.10
Si -3.71 -2.14 12.24
Si -7.47 -8.65 -6.17
Si -11.23 -2.14 -6.17
Si  0.05 -12.99 -0.03
Si -11.23  6.54 -0.03
Si  3.81 -10.82  6.10
Si -7.47  8.71  6.10
Si  3.81 -2.14 12.24
Si  0.05  4.37 12.24
Si  0.05 -4.31 -12.30
Si -3.71  2.20 -12.30
Si  7.56 -8.65 -6.17
Si -3.71 10.88 -6.17
Si 11.32 -6.48 -0.03
Si  0.05 13.05 -0.03
Si 11.32  2.20  6.10
Si  7.56  8.71  6.10
Si  3.81  2.20 -12.30
Si 11.32 -2.14 -6.17
Si  3.81 10.88 -6.17
Si 11.32  6.54 -0.03
Si -0.01 -8.61  9.90
Si -1.82 11.87 -5.34
Si 11.23 -0.02  6.84
Si -0.04  2.15 12.98
Si -13.10  1.02  0.80
Si -0.01 -12.95 -2.37
Si -5.58  9.70  6.93
Si  7.47 10.83  0.70
Si  1.90 11.89 -5.35
Si -5.62  3.21 -11.48
Si -5.58 -3.31 -11.48
