500
set: 669.00  0.00  0.00
Si -0.41 -0.51  0.31
Si  0.77 -1.03 -1.68
Si  0.64  0.88  1.90
Si -2.50  0.18 -0.05
Si -0.16  0.69 -2.76
Si  1.47  2.62  0.17
Si -0.67 -2.80  1.25
Si  2.22 -1.08  2.19
Si -0.19  2.80 -1.76
Si -2.30  2.46 -0.68
Si -0.69 -2.65 -2.70
Si -1.44  3.38  1.53
Si -2.43  0.94 -3.03
Si  3.73 -1.66 -0.14
Si -1.94 -3.63 -0.59
Si -3.59 -0.44  2.20
Si -0.10  2.09  3.71
Si -2.94 -1.21 -3.06
Si  2.15  2.93  2.55
Si  4.37  0.78  0.38
Si  2.21  1.02 -3.87
Si  1.69 -1.32 -4.04
Si  1.27 -4.04  1.83
Si -4.00 -2.29  0.18
Si -4.45 -0.43 -1.23
Si  3.42 -2.18 -2.54
Si  3.61  3.17 -0.20
Si  4.17  0.77 -2.45
Si  0.19  4.82  1.05
Si  0.81 -4.72 -1.31
Si -2.17 -2.71  3.67
Si -4.59  1.83  1.11
Si  3.43 -3.51  1.50
Si  3.47 -3.78 -0.87
Si -1.17  1.08 -5.08
Si  2.82 -1.45  4.50
Si -4.80  2.34 -1.46
Si -0.77  4.80 -2.67
Si -2.86  4.68 -1.41
Si  0.03 -2.58 -5.14
Si  1.87  2.35  4.91
Si  3.53  3.18 -3.30
Si  4.00  0.93  4.11
Si  3.04  4.84  1.30
Si  1.37 -3.75  4.42
Si -1.93 -1.58  5.42
Si -1.93 -1.58 -5.50
Si -1.17  1.08  5.83
Si  0.19 -6.10  1.05
Si -1.44  3.39  4.98
Si -4.80  0.88  3.84
Si -2.48  4.59  3.50
Si  0.03 -2.58  5.78
Si -3.42  0.51 -5.31
Si  0.81  6.20 -1.31
Si -4.60 -4.37 -0.88
Si  4.31  3.17  3.64
Si -5.14 -2.82 -2.78
Si -3.42  0.51  5.60
Si  6.47 -0.43 -1.23
Si -6.55  0.78  0.38
Si  6.32  1.83  1.11
Si -5.08 -3.98  1.80
Si -0.77 -6.11 -2.67
Si  6.12  2.34 -1.46
Si  1.87  2.35 -6.01
Si -4.70  4.06 -2.76
Si  4.92 -0.75 -4.68
Si -4.99  4.29  2.10
Si  3.04 -6.08  1.30
Si -1.44  3.39 -5.93
Si -2.86 -6.24 -1.41
Si  5.78 -2.82 -2.78
Si  2.82 -1.45 -6.41
Si  4.58  5.24 -1.78
Si  1.69 -1.32  6.87
Si -6.74  0.77 -2.45
Si -0.33  5.23 -4.96
Si  1.27  6.87  1.83
Si -3.69 -4.53  4.28
Si  6.11  0.88  3.84
Si  6.91 -2.29  0.18
Si  5.83 -3.98  1.80
Si -7.18 -1.66 -0.14
Si  2.21  1.02  7.04
Si -0.10  2.09 -7.20
Si  4.58 -5.67 -1.78
Si -0.33 -5.69 -4.96
Si -1.94  7.28 -0.59
Si  5.92  4.29  2.10
Si  1.37 -3.75 -6.50
Si  2.08  5.45 -4.92
Si -2.48 -6.32  3.50
Si -5.99 -0.75 -4.68
Si  2.08 -5.46 -4.92
Si  7.32 -0.44  2.20
Si  3.48  4.18  5.45
Si  3.48  4.18 -5.46
Si  6.31 -4.37 -0.88
Si -1.44 -7.54  1.53
Si  6.21  4.06 -2.76
Si -0.33  5.23  5.95
Si  4.00  0.93 -6.80
Si -4.66 -4.93 -4.16
Si -7.30  3.17 -0.20
Si  4.92 -0.75  6.23
Si  3.47  7.13 -0.87
Si -2.17 -2.71 -7.25
Si -4.60  6.55 -0.88
Si  5.14 -3.19 -5.37
Si -6.92  0.93  4.11
Si -0.16  0.69  8.15
Si -6.61  3.17  3.64
Si  5.14 -3.19  5.54
Si -7.50 -2.18 -2.54
Si -0.67  8.11  1.25
Si -0.33 -5.69  5.95
Si  3.43  7.40  1.50
Si -2.43  0.94  7.89
Si -0.19 -8.12 -1.76
Si  2.08  5.45  6.00
Si  2.08 -5.46  6.00
Si -7.44 -3.78 -0.87
Si -7.49 -3.51  1.50
Si -6.33  5.24 -1.78
Si  8.41  0.18 -0.05
Si  1.47 -8.29  0.17
Si -2.94 -1.21  7.86
Si -5.77 -3.19 -5.37
Si -3.69  6.38  4.28
Si  1.37  7.16  4.42
Si  3.61 -7.74 -0.20
Si -4.99 -6.63  2.10
Si -4.80  0.88 -7.07
Si -5.77 -3.19  5.54
Si  7.98 -1.21 -3.06
Si -4.66  5.98 -4.16
Si  2.15 -7.99  2.55
Si -0.69 -2.65  8.21
Si -5.99 -0.75  6.23
Si -6.33 -5.67 -1.78
Si -7.39  3.18 -3.30
Si -0.69  8.26 -2.70
Si -4.70 -6.85 -2.76
Si -5.08  6.93  1.80
Si -2.30 -8.45 -0.68
Si -3.69 -4.53 -6.64
Si  3.53  3.18  7.61
Si  8.61  2.46 -0.68
Si  6.26 -4.93 -4.16
Si  4.31  3.17 -7.27
Si -8.69 -1.08  2.19
Si  8.49  0.94 -3.03
Si -2.48  4.59 -7.41
Si  2.22 -1.08 -8.73
Si  0.64  0.88 -9.01
Si  3.53 -7.73 -3.30
Si  2.15  2.93 -8.36
Si  5.92 -6.63  2.10
Si -1.44 -7.52  4.98
Si  6.31  6.55 -0.88
Si  7.50  0.51 -5.31
Si  5.83  6.93  1.80
Si -2.17  8.20  3.67
Si  3.42 -2.18  8.37
Si  0.77 -1.03  9.24
Si -7.88  4.84  1.30
Si  3.48 -6.74  5.45
Si  3.48 -6.74 -5.46
Si  7.50  0.51  5.60
Si -8.09 -1.45  4.50
Si  6.11  0.88 -7.07
Si  8.05  4.68 -1.41
Si -3.59 -0.44 -8.72
Si  4.17  0.77  8.46
Si -4.00  8.63  0.18
Si  7.23 -4.53  4.28
Si -0.10 -8.82  3.71
Si -0.19  2.80  9.16
Si -4.66 -4.93  6.76
Si -0.77  4.80  8.25
Si  4.31 -7.74  3.64
Si -8.71  1.02 -3.87
Si -8.76  2.93  2.55
Si  6.26  5.98 -4.16
Si  6.21 -6.85 -2.76
Si -1.44 -7.52 -5.93
Si  8.98 -3.63 -0.59
Si  3.42  8.73 -2.54
Si -6.92  0.93 -6.80
Si  1.37  7.16 -6.50
Si  0.03  8.34 -5.14
Si -9.44  2.62  0.17
Si  8.74 -2.71  3.67
Si -3.69  6.38 -6.64
Si -4.80 -8.57 -1.46
Si  3.73  9.25 -0.14
Si -5.14  8.09 -2.78
Si  1.27 -4.04 -9.09
Si -5.14 -2.82  8.13
Si -7.88 -6.08  1.30
Si  1.87 -8.57  4.91
Si -2.48 -6.32 -7.41
Si  0.77  9.89 -1.68
Si -1.44  3.38 -9.39
Si -0.67 -2.80 -9.67
Si -7.44  4.18  5.45
Si -7.44  4.18 -5.46
Si  0.03  8.34  5.78
Si -4.66  5.98  6.76
Si -9.22 -1.32 -4.04
Si  9.47  3.38  1.53
Si  8.44  4.59  3.50
Si  0.64 -10.04  1.90
Si -4.59 -9.09  1.11
Si -4.70  4.06  8.15
Si  8.05 -6.24 -1.41
Si -0.77 -6.11  8.25
Si  2.22  9.83  2.19
Si  5.78  8.09 -2.78
Si -6.61  3.17 -7.27
Si -10.14 -1.03 -1.68
Si -7.44  7.13 -0.87
Si  5.78 -2.82  8.13
Si -0.41 10.40  0.31
Si -8.09 -1.45 -6.41
Si  6.26 -4.93  6.76
Si -10.28  0.88  1.90
Si 10.50 -0.51  0.31
Si  1.69  9.59 -4.04
Si  7.23  6.38  4.28
Si -9.05  2.35  4.91
Si -2.94  9.70 -3.06
Si -0.16 -10.23 -2.76
Si  8.98 -1.58  5.42
Si  3.43 -3.51 -9.41
Si -9.64 -4.04  1.83
Si -0.41 -0.51 -10.60
Si  1.87 -8.57 -6.01
Si  6.12 -8.57 -1.46
Si -7.49  7.40  1.50
Si -7.30 -7.74 -0.20
Si  8.98 -1.58 -5.50
Si -4.45 -0.43  9.69
Si 10.25 -2.80  1.25
Si -2.43 -9.97 -3.03
Si  5.14  7.73 -5.37
Si  0.81 -4.72  9.60
Si -2.30  2.46 10.23
Si -6.61 -7.74  3.64
Si  5.14  7.73  5.54
Si  7.23 -4.53 -6.64
Si -6.74  0.77  8.46
Si  2.21 -9.89 -3.87
Si -4.80  2.34  9.45
Si  2.82  9.47  4.50
Si 10.23 -2.65 -2.70
Si -1.93  9.33  5.42
Si -2.86  4.68  9.50
Si  0.19  4.82 -9.86
Si  6.26  5.98  6.76
Si -4.59  1.83 -9.81
Si -1.93  9.33 -5.50
Si -4.99  4.29 -8.82
Si  6.21  4.06  8.15
Si -2.50 -10.74 -0.05
Si  9.74  1.08 -5.08
Si -5.77  7.73 -5.37
Si  4.37 -10.14  0.38
Si  6.91  8.63  0.18
Si -7.39  3.18  7.61
Si  8.44 -6.32  3.50
Si -9.05  2.35 -6.01
Si -1.94 -3.63 10.33
Si -5.77  7.73  5.54
Si  6.32 -9.09  1.11
Si 10.76  0.69 -2.76
Si -1.17 -9.84 -5.08
Si -2.50  0.18 10.86
Si  1.47  2.62 -10.74
Si -2.17  8.20 -7.25
Si -5.08 -3.98 -9.11
Si -9.54 -3.75  4.42
Si  3.04  4.84 -9.61
Si -7.39 -7.73 -3.30
Si 10.73  2.80 -1.76
Si  9.48  3.39  4.98
Si -10.11 -4.72 -1.31
Si  4.17 -10.14 -2.45
Si -8.71  1.02  7.04
Si -0.41 -0.51 11.23
Si -2.50  0.18 -10.97
Si  7.98 -1.21  7.86
Si  3.47 -3.78 10.04
Si -3.59 10.47  2.20
Si -11.33 -0.51  0.31
Si -2.50 11.09 -0.05
Si -0.10 -8.82 -7.20
Si  7.32 -0.44 -8.72
Si  9.74  1.08  5.83
Si  3.53 -7.73  7.61
Si -7.44 -6.74  5.45
Si -7.44 -6.74 -5.46
Si  4.37  0.78 -10.54
Si -11.07  0.69 -2.76
Si -0.41 -11.42  0.31
Si -7.50 -2.18  8.37
Si  0.81  6.20  9.60
Si  5.92  4.29 -8.82
Si -4.45 10.49 -1.23
Si  4.31 -7.74 -7.27
Si  1.27  6.87 -9.09
Si  4.58  5.24  9.13
Si -8.83  5.45 -4.92
Si  1.47  2.62 11.09
Si -8.83 -5.46 -4.92
Si -1.17 -9.84  5.83
Si  6.12  2.34  9.45
Si  4.00 -9.98  4.11
Si  3.73 -1.66 10.77
Si  5.83 -3.98 -9.11
Si 10.14  4.80 -2.67
Si  8.98  7.28 -0.59
Si -9.22 -1.32  6.87
Si -11.10  2.80 -1.76
Si  0.19 -6.10 -9.86
Si 10.81  2.09  3.71
Si  8.49  0.94  7.89
Si -4.70 -6.85  8.15
Si  6.47 -0.43  9.69
Si -0.69  8.26  8.21
Si  8.74 -2.71 -7.25
Si  4.58 -5.67  9.13
Si -4.00 -2.29 -10.74
Si  9.48  3.39 -5.93
Si  7.23  6.38 -6.64
Si -7.18  9.25 -0.14
Si -2.86 -6.24  9.50
Si  3.61  3.17 10.71
Si 11.55  0.88  1.90
Si  2.15 -7.99 -8.36
Si  3.04 -6.08 -9.61
Si -4.80 -10.04  3.84
Si  2.82  9.47 -6.41
Si -7.50  8.73 -2.54
Si  3.73 -1.66 -11.06
Si -10.72  4.82  1.05
Si  6.32  1.83 -9.81
Si -11.02  2.09  3.71
Si 11.68 -1.03 -1.68
Si -4.60 -4.37 10.04
Si  1.69  9.59  6.87
Si -0.16 11.60 -2.76
Si -10.11  6.20 -1.31
Si  0.64 11.79  1.90
Si -11.58 -2.80  1.25
Si -9.64  6.87  1.83
Si -8.83  5.45  6.00
Si -8.83 -5.46  6.00
Si -4.00 -2.29 11.09
Si -2.30  2.46 -11.59
Si -6.55 -10.14  0.38
Si  0.77 -11.94 -1.68
Si  8.61 -8.45 -0.68
Si -4.99 -6.63 -8.82
Si -3.59 -11.36  2.20
Si  3.61  3.17 -11.12
Si -1.44 -7.54 -9.39
Si -8.76 -7.99  2.55
Si  4.37  0.78 11.29
Si  8.44  4.59 -7.41
Si 10.14 -6.11 -2.67
Si -9.54 -3.75 -6.50
Si 11.10  4.82  1.05
Si -3.42 -10.40 -5.31
Si  9.47 -7.54  1.53
Si -11.60 -2.65 -2.70
Si -1.94 -3.63 -11.50
Si  4.92 10.17 -4.68
Si -0.19 -8.12  9.16
Si -4.45 -11.34 -1.23
Si -6.33  5.24  9.13
Si -3.42 -10.40  5.60
Si -10.89 -2.58 -5.14
Si  6.21 -6.85  8.15
Si  2.21 -9.89  7.04
Si 10.94 -2.58 -5.14
Si  6.11 -10.04  3.84
Si -8.69 -1.08 -8.73
Si -10.72 -6.10  1.05
Si  6.47 10.49 -1.23
Si  2.22 -12.00  2.19
Si -6.74 -10.14 -2.45
Si -6.55  0.78 -10.54
Si  3.43  7.40 -9.41
Si -8.76  2.93 -8.36
Si -6.33 -5.67  9.13
Si -2.43 11.86 -3.03
Si  4.37 11.69  0.38
Si -0.67 -2.80 12.16
Si -6.61 -7.74 -7.27
Si  5.92 -6.63 -8.82
Si -5.08  6.93 -9.11
Si -7.49 -3.51 -9.41
Si  8.74  8.20  3.67
Si -9.44 -8.29  0.17
Si  3.42  8.73  8.37
Si -5.14  8.09  8.13
Si -10.89 -2.58  5.78
Si  6.31 -4.37 10.04
Si 10.94 -2.58  5.78
Si -0.67  8.11 -9.67
Si  4.17 11.69 -2.45
Si  0.77 -1.03 -12.59
Si 12.39  2.62  0.17
Si -5.99 10.17 -4.68
Si 11.72 -4.72 -1.31
Si 11.10 -6.10  1.05
Si -9.54  7.16  4.42
Si  4.00 -9.98 -6.80
Si  2.21 11.93 -3.87
Si -1.94  7.28 10.33
Si  3.47  7.13 10.04
Si 10.59  5.23 -4.96
Si -2.94  9.70  7.86
Si -6.92 -9.98  4.11
Si -4.60  6.55 10.04
Si  5.78  8.09  8.13
Si -2.94 -12.13 -3.06
Si  5.83  6.93 -9.11
Si  3.47 -3.78 -11.78
Si  0.64  0.88 12.82
Si  8.44 -6.32 -7.41
Si -12.35  3.38  1.53
Si  4.92 10.17  6.23
Si  0.19  4.82 11.97
Si -11.69  4.80 -2.67
Si  7.98  9.70 -3.06
Si -4.45 -0.43 -12.14
Si -2.43 -9.97  7.89
Si  7.32 10.47  2.20
Si 12.19 -4.04  1.83
Si -1.44  3.38 12.44
Si  6.91 -2.29 -10.74
Si -0.19  2.80 -12.67
Si -4.59  1.83 12.02
Si  1.69 -12.24 -4.04
Si 10.59 -5.69 -4.96
Si -7.18 -1.66 10.77
Si -3.42 11.43 -5.31
Si -7.44 -3.78 10.04
Si -1.17 11.99 -5.08
Si -6.55  0.78 11.29
Si -0.16 -10.23  8.15
Si  9.48 -7.52  4.98
Si  6.47 -11.34 -1.23
Si  3.73 -12.58 -0.14
Si -7.39 -7.73  7.61
Si 10.25  8.11  1.25
Si  0.81 -4.72 -12.23
Si -12.09  1.08 -5.08
Si 10.81  2.09 -7.20
Si  4.00 11.84  4.11
Si -3.42 11.43  5.60
Si -4.80 -10.04 -7.07
Si 10.59  5.23  5.95
Si -8.09  9.47  4.50
Si  6.91 -2.29 11.09
Si -7.18 -1.66 -11.06
Si -4.80 11.79  3.84
Si 12.61 -1.32 -4.04
Si  8.05  4.68  9.50
Si -8.69  9.83  2.19
Si 11.72  6.20 -1.31
Si -11.02  2.09 -7.20
Si  2.22  9.83 -8.73
Si  2.22 -1.08 13.10
Si -7.88  4.84 -9.61
Si -5.99 10.17  6.23
Si -7.30  3.17 10.71
Si  3.43 -3.51 12.42
Si -11.24  5.23 -4.96
Si 13.14 -1.08  2.19
Si -12.85 -3.63 -0.59
Si 10.23 -2.65  8.21
Si -1.17 11.99  5.83
Si -4.60 -4.37 -11.79
Si -9.05 -8.57  4.91
Si -6.55 11.69  0.38
Si 10.59 -5.69  5.95
Si -13.42  0.18 -0.05
Si 10.23  8.26 -2.70
Si  1.27 -4.04 12.74
Si  0.19 -6.10 11.97
Si  8.49 -9.97 -3.03
Si -11.69 -6.11 -2.67
Si  2.82 -12.36  4.50
Si -13.22  2.46 -0.68
Si -12.09  1.08  5.83
Si -2.30 -8.45 10.23
