500
set: 224.00  0.00  0.00
Si -0.03  0.04  0.01
Si -0.01 -0.00 -2.23
Si  0.07 -2.12  0.73
Si -1.89  1.03  0.76
Si  1.87  1.10  0.79
Si -1.79 -3.14  0.01
Si -1.86  3.14 -0.03
Si -1.78 -1.09 -3.02
Si  1.85 -1.06 -2.99
Si  0.01  2.12 -3.00
Si -3.70 -0.03 -0.07
Si  1.90 -3.18 -0.01
Si -1.88  1.08  3.02
Si  1.83  1.01  3.08
Si  0.01 -2.16  3.05
Si  1.88  3.23  0.00
Si  3.74  0.06  0.04
Si  3.64  0.02 -2.23
Si -0.02  4.22  0.69
Si -0.03  2.14  3.71
Si  3.69 -2.08  0.74
Si -1.85 -3.18 -2.27
Si  1.86  3.19 -2.25
Si -1.79 -1.05  3.80
Si -3.71 -2.11  0.80
Si -1.83  3.19 -2.31
Si  1.89 -3.20 -2.29
Si  1.85 -1.14  3.81
Si -3.73  0.00 -2.33
Si -0.02  4.25  2.95
Si -0.00 -4.26 -3.01
Si  3.70 -2.16  2.98
Si -3.67 -2.14  3.03
Si  3.70  2.15 -3.02
Si -3.69  2.15 -3.05
Si -5.44  1.06  0.78
Si -1.84 -5.29  0.74
Si  1.85 -1.03 -5.27
Si -3.71  4.25  0.74
Si  3.68  2.18  3.76
Si -0.05  2.08 -5.31
Si -1.87 -1.02 -5.30
Si  1.84 -5.36  0.74
Si -3.70  2.17  3.79
Si -0.05 -4.33  3.76
Si  3.71  4.32  0.74
Si  5.66  1.06  0.78
Si -1.73  5.34 -3.00
Si  5.50 -1.03 -3.03
Si  3.61  4.32  2.98
Si  0.00 -2.15 -6.00
Si  5.51  3.19  0.05
Si -1.94 -5.30  2.98
Si -5.53 -3.17  0.05
Si  1.78 -5.35  3.00
Si  1.85 -1.09  6.02
Si  1.85  5.32 -3.04
Si -1.73 -1.07  6.07
Si  5.56 -3.17  0.05
Si  1.78  1.05 -6.06
Si -0.05  2.17  6.03
Si -0.04 -6.42  0.05
Si -5.55  1.05  3.06
Si  5.55  1.05  3.06
Si -3.77  4.26  3.00
Si -3.70 -4.29 -3.04
Si -5.58  3.19  0.05
Si  0.01  6.44  0.05
Si -5.60 -1.03 -3.03
Si  3.81 -4.28 -3.00
Si -1.94  1.11 -6.09
Si -5.49 -3.18 -2.23
Si -1.91  5.26  3.75
Si  3.64  2.06 -5.31
Si  5.51 -1.12  3.78
Si -5.55  3.20 -2.25
Si  5.55  3.20 -2.25
Si  0.00 -6.41 -2.25
Si  1.76  5.35  3.81
Si  3.64 -4.35  3.75
Si  0.06  6.43 -2.23
Si  5.61 -3.18 -2.23
Si -3.79  2.14 -5.25
Si -0.04 -4.33 -5.28
Si -5.58 -1.12  3.78
Si  0.06  0.02  6.84
Si -3.79 -4.26  3.81
Si -7.36  0.06  0.04
Si -3.67 -6.38  0.00
Si  0.01  4.25 -6.01
Si -3.72 -2.19 -5.98
Si  3.67 -2.13 -6.04
Si -3.65  6.43 -0.01
Si  7.40 -0.03 -0.07
Si  0.01 -4.29  6.06
Si -3.70  2.14  6.07
Si  3.77  2.12  6.05
Si  3.69 -6.47 -0.03
Si  3.76  6.47  0.01
Si  1.85  5.27 -5.25
Si  1.82  3.21  6.74
Si -1.83 -3.21  6.75
Si -3.66  0.00  6.78
Si -1.79  5.36 -5.27
Si  7.39 -2.11  0.80
Si -3.66  6.41 -2.29
Si  7.37  0.00 -2.33
Si -7.41 -2.08  0.74
Si  3.70  0.02  6.79
Si -3.69 -6.42 -2.25
Si  3.76 -4.25 -5.27
Si  5.53 -5.39  0.69
Si -3.70 -4.34 -5.25
Si  1.86 -3.22  6.81
Si  3.70  6.43 -2.27
Si  1.84  7.50  0.80
Si  5.53 -1.06 -5.35
Si  3.72 -6.42 -2.31
Si -5.57 -5.39  0.69
Si -7.46  0.02 -2.23
Si -1.91  3.22  6.83
Si -1.86  7.53  0.74
Si -5.57 -1.06 -5.35
Si -1.85  7.45  2.98
Si -3.69 -4.26  6.01
Si -3.67  4.27 -6.03
Si  5.53 -5.37  2.95
Si -1.85 -7.46 -3.02
Si  1.86  5.35  6.01
Si -7.40 -2.16  2.98
Si  3.70 -4.26  6.04
Si -7.40  2.15 -3.02
Si  1.86 -7.46 -3.05
Si  1.88 -5.34 -6.03
Si  5.55  5.35 -3.01
Si -5.57 -5.37  2.95
Si -5.55  5.35 -3.01
Si  5.55 -1.05  6.05
Si  1.88  7.47  3.03
Si -5.55 -1.05  6.05
Si -1.85  5.35  6.04
Si  3.70  4.25 -6.08
Si  7.41  2.15 -3.05
Si  7.43 -2.14  3.03
Si  5.53  1.04 -6.11
Si -1.85 -5.36 -6.08
Si -5.57  1.04 -6.11
Si  5.50  5.28  3.76
Si -1.87 -7.43  3.76
Si  1.85 -7.44  3.79
Si  0.11 -2.14 -8.28
Si  7.39  4.25  0.74
Si -5.60  5.28  3.76
Si  0.11 -8.55  0.78
Si  1.84  1.05 -8.33
Si  7.40  2.17  3.79
Si -7.39  4.32  0.74
Si -1.84  1.12 -8.33
Si -7.42  2.18  3.76
Si -7.28 -4.28 -3.00
Si  7.33  4.26  3.00
Si -0.04 -0.01 -9.02
Si  7.40 -4.29 -3.04
Si  0.00 -8.56  3.06
Si -0.05  8.58 -3.03
Si  0.01  0.03  9.11
Si -7.49  4.32  2.98
Si  7.31  2.14 -5.25
Si  7.31 -4.26  3.81
Si  5.51  5.29 -5.28
Si -0.04  8.49  3.78
Si -3.68 -2.11 -8.27
Si  9.21  1.03  0.76
Si  1.76 -7.47 -5.25
Si -5.48  7.49  0.73
Si -3.68 -8.51  0.79
Si  3.66 -2.18 -8.30
Si -9.23  1.10  0.79
Si -5.58  5.29 -5.28
Si  5.53  3.20  6.83
Si  0.00  6.41  6.82
Si -5.55 -3.21  6.82
Si  5.55 -3.21  6.82
Si  3.66 -8.59  0.76
Si -0.01 -6.41  6.83
Si  0.07  4.29 -8.33
Si -5.56  3.20  6.83
Si -7.46  2.06 -5.31
Si  5.62  7.49  0.73
Si -7.46 -4.35  3.75
Si -1.91 -7.55 -5.31
Si  1.83  7.42 -5.98
Si  1.85  3.17  8.99
Si -1.81 -9.55  0.04
Si -1.81 -3.14 -9.03
Si -9.20 -3.18 -0.01
Si -7.33  2.12  6.05
Si  7.38 -2.19 -5.98
Si  9.24  3.14 -0.03
Si  1.85  9.58 -0.07
Si -3.65  0.02  9.05
Si  9.22  1.08  3.02
Si -9.22  3.23  0.00
Si  3.67 -8.53  3.02
Si -3.67  0.02 -9.06
Si -9.25 -1.06 -2.99
Si -5.54 -5.36 -6.01
Si -5.54  7.46  3.05
Si -5.54  5.32  6.06
Si -3.70  8.55 -2.99
Si -7.34  6.47  0.01
Si  5.56 -5.36 -6.01
Si  5.56  7.46  3.05
Si -1.86 -3.27  9.04
Si -5.54 -7.49 -3.00
Si  1.88 -3.18  9.06
Si -1.79  3.27 -9.05
Si  3.77  8.52 -3.02
Si -1.78 -7.50  6.05
Si  5.56  5.32  6.06
Si  7.43 -6.38  0.00
Si -1.88  7.49 -6.04
Si  5.56 -7.49 -3.00
Si  1.85 -7.47  6.07
Si -7.43 -2.13 -6.04
Si  3.69 -0.07 -9.09
Si  7.40  2.14  6.07
Si  1.90  3.22 -9.07
Si -9.27  1.01  3.08
Si  3.76  0.06  9.07
Si  1.85 -9.64 -0.07
Si  9.31 -3.14  0.01
Si -1.81  3.27  9.10
Si  7.45  6.43 -0.01
Si -7.41 -6.47 -0.03
Si -1.81  9.68  0.04
Si  9.31 -1.09 -3.02
Si -3.72 -8.60  3.08
Si  1.85 -3.23 -9.13
Si -7.34 -4.25 -5.27
Si -0.02 -2.19  9.76
Si  1.84 -5.32 -8.27
Si -3.70  8.47  3.81
Si  5.53 -7.47  3.71
Si -9.21 -3.20 -2.29
Si -3.73 -6.41  6.74
Si  3.72  6.40  6.75
Si -3.71  4.29 -8.27
Si -1.91 -9.59 -2.23
Si -9.24  3.19 -2.25
Si -5.57 -7.47  3.71
Si -1.86 -5.28 -8.33
Si  3.64 -6.39  6.83
Si -1.86  1.13  9.80
Si -7.39  0.02  6.79
Si -3.69  6.39  6.81
Si  9.25 -3.18 -2.27
Si -7.38 -6.42 -2.31
Si  1.82 -9.61 -2.33
Si  1.82  9.61 -2.33
Si  7.41 -6.42 -2.25
Si  7.40 -4.34 -5.25
Si -7.39  6.43 -2.27
Si  7.44  0.00  6.78
Si -1.91  9.63 -2.23
Si -9.25 -1.14  3.81
Si  9.27  3.19 -2.31
Si  5.53  1.02 -8.37
Si  3.69  4.33 -8.33
Si -0.03  8.55 -5.35
Si  7.44  6.41 -2.29
Si  1.84  1.09  9.86
Si  3.76  8.56  3.80
Si -5.57  1.02 -8.37
Si  9.31 -1.05  3.80
Si  7.41 -4.26  6.01
Si -7.40 -4.26  6.04
Si  7.43  4.27 -6.03
Si -7.40  4.25 -6.08
Si -0.00  8.56  6.05
Si -0.02 -8.57 -6.11
Si  3.71 -2.08  9.80
Si  9.26 -5.29  0.74
Si  9.23 -1.02 -5.30
Si -9.25 -1.03 -5.27
Si -3.71 -2.15  9.80
Si  0.11 10.67  0.78
Si -9.26 -5.36  0.74
Si  0.11  4.26  9.84
Si -3.70  8.58 -5.27
Si  5.50 -7.53 -5.31
Si  3.68  8.59 -5.30
Si -5.60 -7.53 -5.31
Si  9.16 -5.30  2.98
Si  0.01 -6.37 -9.02
Si  5.52 -9.57  0.01
Si  5.50 -7.44  6.03
Si  9.16  1.11 -6.09
Si  5.52 -3.16 -9.05
Si  3.61 -8.50 -6.09
Si -5.53  3.24 -9.02
Si -5.55  7.46 -6.00
Si  5.55  7.46 -6.00
Si -0.05 -10.64 -3.03
Si 11.07  0.04  0.01
Si -3.70  8.52  6.02
Si -5.58 -9.57  0.01
Si  5.56  3.24 -9.02
Si -0.03 -6.36  9.08
Si -5.58 -3.16 -9.05
Si -9.25 -1.09  6.02
Si -9.25  5.32 -3.04
Si  0.00 10.66  3.06
Si -5.60 -7.44  6.03
Si  5.52  3.25  9.08
Si -0.03  6.45 -9.05
Si  5.52  9.66  0.01
Si  5.51 -3.21  9.11
Si -11.13  0.04  0.01
Si -0.04  6.40  9.11
Si -5.58  3.25  9.08
Si -3.77 -8.56 -6.06
Si  3.81  8.54  6.07
Si -5.58  9.66  0.01
Si -5.58 -3.21  9.11
Si -9.32 -5.35  3.00
Si -9.32  1.05 -6.06
Si  9.36  5.34 -3.00
Si  9.36 -1.07  6.07
Si  9.19  5.26  3.75
Si -11.03 -2.12  0.73
Si  3.66 10.64  0.76
Si -5.48  1.08  9.80
Si -5.48 -5.33 -8.33
Si -1.89  7.43 -8.30
Si  3.66  4.23  9.82
Si  7.42 -2.11 -8.27
Si 11.08 -0.00 -2.23
Si  0.00 -0.00 -11.31
Si  5.53  9.61 -2.23
Si  5.53 -9.62 -2.23
Si  7.42 -8.51  0.79
Si  1.87  7.51 -8.27
Si -5.56  9.61 -2.23
Si -5.56 -9.62 -2.23
Si -11.11 -0.00 -2.23
Si  5.62  1.08  9.80
Si  1.87 -5.31  9.85
Si -3.68 10.71  0.79
Si -7.44 -2.18 -8.30
Si -1.89 -5.38  9.82
Si -3.68  4.30  9.85
Si  5.62 -5.33 -8.33
Si -0.04 -10.73  3.78
Si -7.44 -8.59  0.76
Si 11.17 -2.12  0.73
Si -9.34  5.35  3.81
Si  3.69  6.34  9.04
Si -7.33  8.52 -3.02
Si -3.70 -6.44  8.99
Si -3.72 10.62  3.08
Si -7.34  0.06  9.07
Si  3.76 -6.35 -9.05
Si -11.09  2.12 -3.00
Si -3.65 -6.39 -9.07
Si -3.70 -10.67 -2.99
Si  7.40  8.55 -2.99
Si  3.67 10.69  3.02
Si -3.67  6.43  9.06
Si -11.09 -2.16  3.05
Si  3.74 -6.34  9.10
Si 11.11  2.12 -3.00
Si -7.43 -8.53  3.02
Si 11.11 -2.16  3.05
Si  7.43  0.02 -9.06
Si  3.74  6.47 -9.03
Si  7.45  0.02  9.05
Si -7.41 -0.07 -9.09
Si -3.70  6.38 -9.13
Si  3.77 -10.70 -3.02
Si  7.38 -8.60  3.08
Si -1.86 -11.69  0.74
Si  7.37 -6.41  6.74
Si -7.38  6.40  6.75
Si -9.25  5.27 -5.25
Si  7.40  8.47  3.81
Si 11.07  2.14  3.71
Si 11.08  4.22  0.69
Si  7.39  4.29 -8.27
Si -1.91 -3.19 -11.30
Si -1.85 -9.59  6.79
Si  1.84 -11.73  0.80
Si  9.19  3.22  6.83
Si -7.34  8.56  3.80
Si -3.69 -0.01 -11.31
Si -9.28  3.21  6.74
Si  9.27 -3.21  6.75
Si  1.89 -9.61  6.78
Si -11.12  4.22  0.69
Si  1.89  9.61  6.78
Si -11.12  2.14  3.71
Si -9.24 -3.22  6.81
Si  7.41  6.39  6.81
Si  3.76 -10.66  3.80
Si -1.85  3.23 -11.33
Si -1.85  9.63  6.79
Si -0.03 -10.67 -5.35
Si -9.26  7.50  0.80
Si  9.24  7.53  0.74
Si  1.89  3.21 -11.35
Si -7.41  4.33 -8.33
Si  9.31  5.36 -5.27
Si -7.46 -6.39  6.83
Si  3.72 -0.01 -11.38
Si  1.82 -3.20 -11.39
Si -3.70 -10.75  3.81
Si -0.02 -8.60 -8.37
Si -0.02 -2.16 12.01
Si 11.08  4.25  2.95
Si -1.85  1.04 12.04
Si -9.22 -5.34 -6.03
Si  9.25  7.45  2.98
Si -9.22  7.47  3.03
Si -9.24  5.35  6.01
Si -11.12  4.25  2.95
Si -0.00  2.15 -12.07
Si 11.10 -4.26 -3.01
Si -9.24 -7.46 -3.05
Si  9.25 -7.46 -3.02
Si -11.10 -4.26 -3.01
Si -0.00 -10.67  6.05
Si -1.85 -1.05 -12.08
Si  9.25  5.35  6.04
Si  1.88 -11.75  3.03
Si -0.02 10.65 -6.11
Si -1.85 11.76 -3.02
Si -1.85 -11.77  2.98
Si  1.88  1.06 12.09
Si  1.86 11.76 -3.05
Si  9.25 -5.36 -6.08
Si  1.86 -1.05 -12.11
Si -5.44  7.47 -8.28
Si  9.23 -7.43  3.76
Si 11.04  2.08 -5.31
Si  3.68 -10.63 -5.30
Si -3.70 -10.64 -5.27
Si 11.04 -4.33  3.76
Si -7.39 -2.08  9.80
Si  1.84  7.46  9.80
Si -5.44 -5.35  9.84
Si  3.71 -8.49 -8.33
Si  7.39 -2.15  9.80
Si -9.25 -7.44  3.79
Si -1.84  7.53  9.80
Si  7.40  8.58 -5.27
Si -9.26  1.05 -8.33
Si  9.26  1.12 -8.33
Si -3.71 -8.56 -8.33
Si  5.66  7.47 -8.28
Si  1.85 11.78  3.79
Si -1.87 11.80  3.76
Si -11.15  2.08 -5.31
Si -7.42  8.59 -5.30
Si -11.15 -4.33  3.76
Si  5.66 -5.35  9.84
Si  3.61 -2.09 12.04
Si -7.28  8.54  6.07
Si 11.05  2.17  6.03
Si  0.01 -12.78  0.05
Si 11.06 -6.42  0.05
Si  7.40  8.52  6.02
Si  7.33 -8.56 -6.06
Si -11.10 -2.15 -6.00
Si 11.10 -2.15 -6.00
Si -0.04 12.80  0.05
Si -0.05 -4.24 -12.09
Si -3.77 -2.15 12.06
Si -11.08  6.44  0.05
Si -3.70 -10.70  6.02
Si  3.81  2.13 -12.06
Si -3.70  2.11 -12.10
Si -3.77 10.66 -6.06
Si 11.11  6.44  0.05
Si  3.61 10.72 -6.09
Si -11.13 -6.42  0.05
Si  0.00  4.26 12.13
Si -7.49 -8.50 -6.09
Si -11.15  2.17  6.03
Si  3.81 -10.68  6.07
Si -5.49  3.22 -11.29
Si -1.91 11.67 -5.31
Si  0.06 -6.39 -11.29
Si -11.04  6.43 -2.23
Si -5.48 -11.73  0.73
Si  5.53 -3.21 -11.30
Si -0.01  6.41 -11.30
Si  0.06 -12.79 -2.23
Si -11.04  0.02  6.84
Si  0.07 -8.53  9.80
Si -5.56 -3.21 -11.30
