500
set: 233.00  0.00  0.00
Si  0.01  0.01  0.02
Si -0.06  0.00 -2.21
Si  0.01 -2.10  0.76
Si  1.84  1.01  0.75
Si -1.81  1.07  0.75
Si -3.63 -0.01  0.00
Si  1.84  3.13 -0.02
Si  1.79 -1.05 -2.99
Si -1.78  3.19 -0.03
Si  1.79  1.05  3.01
Si -1.83  1.03  3.00
Si -1.80 -3.19 -0.01
Si  1.86 -3.16  0.00
Si -0.01  2.11 -3.02
Si  3.68  0.02  0.05
Si -1.88 -1.03 -3.00
Si  0.03 -2.14  3.03
Si -1.80 -3.14 -2.24
Si  3.65 -0.06 -2.23
Si  3.67 -2.08  0.79
Si -3.65 -2.12  0.78
Si -0.04  2.13  3.75
Si  1.82  3.19 -2.27
Si  1.81 -3.19 -2.29
Si  1.84 -1.03  3.79
Si -1.86  3.20 -2.26
Si -3.71  0.00 -2.27
Si -1.84 -1.11  3.78
Si  0.04  4.30  0.71
Si -0.03  4.22  2.94
Si  3.69  2.09 -2.96
Si -3.62  2.13 -3.04
Si  3.64 -2.10  3.04
Si -0.02 -4.28 -3.01
Si -3.72 -2.13  3.06
Si -3.62  4.22  0.67
Si  3.64  4.20  0.72
Si  0.02  2.08 -5.23
Si  3.64  2.10  3.75
Si -5.49  1.09  0.73
Si -3.67  2.15  3.73
Si -1.87 -1.08 -5.25
Si  1.84 -1.04 -5.27
Si  5.54  1.09  0.73
Si  1.90 -5.33  0.67
Si  0.02 -4.28  3.78
Si -1.87 -5.35  0.72
Si -3.62  4.22  2.94
Si -5.50 -3.11  0.00
Si  5.47 -1.07 -2.99
Si  3.67  4.20  2.99
Si -3.68 -4.22 -2.96
Si  5.52 -3.11  0.00
Si -1.85  5.29 -2.98
Si  0.01 -6.35  0.01
Si -5.51  1.14  2.97
Si  3.66 -4.26 -2.98
Si -5.50  3.20  0.01
Si  1.83  5.33 -2.96
Si  5.52  1.14  2.97
Si  0.01 -2.04 -6.04
Si -1.84  1.02 -6.02
Si -0.04  2.12  6.01
Si  1.90 -5.33  2.94
Si  5.53  3.20  0.01
Si -1.85 -1.08  6.02
Si -1.84 -5.35  2.99
Si -5.55 -1.07 -2.99
Si  1.83 -1.04  6.04
Si  1.90  1.03 -6.06
Si  0.01  6.44  0.00
Si  1.84  5.24  3.74
Si  5.47 -1.01  3.75
Si -5.50  3.14 -2.25
Si -0.05 -4.19 -5.26
Si -5.50 -3.18 -2.26
Si -3.67  2.06 -5.26
Si  5.53  3.14 -2.25
Si  0.02  0.01  6.75
Si  0.02  6.37 -2.26
Si  5.53 -3.18 -2.26
Si -1.78  5.33  3.77
Si  3.73 -4.22  3.77
Si  3.73  2.15 -5.24
Si -5.56 -1.01  3.75
Si -3.67 -4.31  3.74
Si  0.01 -6.41 -2.25
Si  0.03  4.22 -5.97
Si  3.64  2.15  6.00
Si -7.34  0.02  0.05
Si -0.01 -4.26  5.98
Si -3.65  6.39  0.00
Si  3.71  6.36 -0.01
Si  3.68 -2.15 -6.00
Si -3.73 -2.13 -5.99
Si  3.73 -6.36 -0.03
Si -3.72  2.14  6.01
Si  7.40 -0.01  0.00
Si -3.67 -6.42 -0.02
Si -5.48 -5.25  0.71
Si -1.84  5.26 -5.22
Si -3.68 -4.22 -5.21
Si  5.47 -1.05 -5.26
Si  7.32  0.00 -2.27
Si  3.65 -6.35 -2.26
Si  1.82 -3.18  6.73
Si  1.80  3.18  6.73
Si -3.70 -0.01  6.71
Si  5.55 -5.25  0.71
Si -1.86 -3.17  6.75
Si  1.84  5.33 -5.21
Si -7.35 -2.08  0.79
Si  3.67 -4.29 -5.22
Si -1.86  3.13  6.78
Si  1.86  7.43  0.78
Si -3.70 -6.36 -2.27
Si -7.38 -0.06 -2.23
Si -3.70  6.36 -2.29
Si  7.37 -2.12  0.78
Si  3.71  0.04  6.76
Si -5.55 -1.05 -5.26
Si -1.84  7.47  0.79
Si  3.71  6.41 -2.24
Si -3.62 -4.23  5.97
Si  1.79 -5.32 -5.95
Si -1.87 -5.28 -5.96
Si -7.34  2.09 -2.96
Si  5.49  5.27 -3.01
Si  5.49 -5.32  2.94
Si  3.64  4.27 -5.96
Si -3.72  4.23 -5.95
Si  5.49 -1.09  5.99
Si  7.31 -2.13  3.06
Si  1.89  5.32  5.97
Si -5.53  5.27 -3.01
Si  1.79  7.42  3.06
Si -5.54 -5.32  2.94
Si -1.83  5.27  6.04
Si -5.53 -1.09  5.99
Si -1.83 -7.46 -2.96
Si  1.89 -7.42 -3.04
Si  5.49  1.04 -6.07
Si -7.38 -2.10  3.04
Si -1.87  7.45  3.04
Si  3.69 -4.28  6.04
Si  7.40  2.13 -3.04
Si -5.54  1.04 -6.07
Si  1.84 -7.40  3.73
Si  0.03 -8.46  0.73
Si -5.50  5.27  3.78
Si  5.53  5.27  3.78
Si  7.35  2.15  3.73
Si -7.38  4.20  0.72
Si  0.03 -2.10 -8.28
Si -1.87 -7.45  3.75
Si -7.39  2.10  3.75
Si -1.87  1.02 -8.28
Si  7.41  4.22  0.67
Si  1.90  1.04 -8.33
Si  0.01 -8.40  2.97
Si  7.35 -4.22 -2.96
Si -7.36  4.20  2.99
Si  0.01  0.02 -8.99
Si -0.04  8.48 -2.99
Si  0.01  0.07  9.01
Si -7.36 -4.26 -2.98
Si  7.41  4.22  2.94
Si -7.30 -4.22  3.77
Si -7.30  2.15 -5.24
Si -1.78 -7.40 -5.24
Si  0.01  6.33  6.75
Si -9.19  1.01  0.75
Si  5.45  3.18  6.79
Si  7.35  2.06 -5.26
Si  0.01  4.27 -8.24
Si -5.50 -3.22  6.75
Si  3.71 -8.48  0.75
Si  5.47  5.36 -5.26
Si  3.71 -2.12 -8.25
Si -3.67 -2.17 -8.25
Si -5.51  7.45  0.76
Si  5.53 -3.22  6.75
Si  5.52  7.45  0.76
Si  7.35 -4.31  3.74
Si  9.22  1.07  0.75
Si -0.06 -6.37  6.79
Si -3.67 -8.54  0.75
Si -0.05  8.54  3.75
Si  1.84 -7.49 -5.26
Si -5.56  5.36 -5.26
Si -5.58  3.18  6.79
Si -1.83 -3.17 -8.95
Si -7.30 -6.36 -0.03
Si  7.30 -2.13 -5.99
Si  9.15 -1.03 -3.00
Si -1.78 -3.18  8.98
Si -7.31  6.36 -0.01
Si -9.16 -3.16  0.00
Si  7.30  2.14  6.01
Si -5.48 -5.32 -5.97
Si -5.48  7.41  3.03
Si  5.51  5.29  5.98
Si -1.83  7.40 -6.00
Si  1.79  7.42 -5.99
Si -9.19  3.13 -0.02
Si -1.88 -7.40  6.00
Si -1.83 -9.53  0.05
Si -5.52  5.29  5.98
Si  1.79 -7.41  6.01
Si -3.65  0.02  9.00
Si -7.35 -2.15 -6.00
Si  1.89  9.54  0.00
Si  3.71 -0.01  8.99
Si -1.80  3.17 -9.02
Si  9.19  1.03  3.00
Si  1.84 -3.24  8.99
Si  1.89 -3.19 -9.00
Si  1.89  3.17  9.01
Si  5.55 -5.32 -5.97
Si  1.86  3.21 -9.00
Si  5.55  7.41  3.03
Si  5.51 -7.44 -3.02
Si  3.64  8.52 -3.00
Si -3.67 -0.06 -9.02
Si -1.83  9.57  0.05
Si  1.89 -9.56  0.00
Si -5.52 -7.44 -3.02
Si  3.68 -8.52  3.00
Si -3.72  8.50 -2.99
Si -3.73 -8.49  3.01
Si -7.39  2.15  6.00
Si  7.38  6.39  0.00
Si  7.35 -6.42 -0.02
Si  9.23 -3.19 -0.01
Si -9.24 -1.05 -2.99
Si  3.73  0.01 -9.03
Si -9.24  1.05  3.01
Si -1.83  3.20  9.05
Si  9.24  3.19 -0.03
Si -1.86  9.49 -2.23
Si -1.84 -5.26 -8.22
Si  0.04 -2.07  9.71
Si  7.32 -0.01  6.71
Si  7.35 -4.22 -5.21
Si  3.67  8.44  3.78
Si  5.47 -7.42  3.75
Si -3.65  4.25 -8.23
Si -7.32  0.04  6.76
Si  1.86 -5.30 -8.23
Si  7.32  6.36 -2.29
Si  7.33 -6.36 -2.27
Si  9.16  3.20 -2.26
Si  3.67  4.29 -8.22
Si  3.65  6.38  6.75
Si  1.80 -9.55 -2.27
Si -3.70  6.37  6.73
Si  1.80  9.55 -2.27
Si -3.71 -6.37  6.73
Si -7.32  6.41 -2.24
Si -7.37 -6.35 -2.26
Si -7.36 -4.29 -5.22
Si -0.04  8.49 -5.26
Si -9.19 -1.03  3.79
Si  9.19 -1.11  3.78
Si -5.55 -7.42  3.75
Si  9.22 -3.14 -2.24
Si -5.48  1.11 -8.29
Si -9.21  3.19 -2.27
Si  1.86  1.06  9.78
Si -9.22 -3.19 -2.29
Si -3.68  8.52  3.79
Si -1.84  1.10  9.79
Si  3.65 -6.42  6.78
Si -1.86 -9.61 -2.23
Si  5.55  1.11 -8.29
Si  7.31  4.23 -5.95
Si -0.02  8.46  5.99
Si -7.38  4.27 -5.96
Si  7.40 -4.23  5.97
Si -7.34 -4.28  6.04
Si -0.03 -8.51 -6.07
Si -3.62 -2.14  9.67
Si -9.13 -5.33  0.67
Si  9.15 -1.08 -5.25
Si  3.64 -2.16  9.72
Si  3.64  8.47 -5.25
Si  0.03  4.27  9.73
Si  9.16 -5.35  0.72
Si -5.50 -7.47 -5.23
Si -9.19 -1.04 -5.27
Si  5.53 -7.47 -5.23
Si  0.03 10.64  0.73
Si -3.67  8.51 -5.27
Si -9.13 -5.33  2.94
Si  0.01 -6.30 -9.00
Si  9.18  5.29 -2.98
Si -5.50 -3.17 -8.99
Si -9.13  1.03 -6.06
Si -5.50 -9.54  0.02
Si  5.52 -3.17 -8.99
Si  5.47 -7.43  6.01
Si -11.02  0.01  0.02
Si  5.52 -9.54  0.02
Si  3.66  8.47  6.02
Si  0.01  6.38 -8.99
Si -5.50 -3.17  9.02
Si  9.18  1.02 -6.02
Si  9.18 -1.08  6.02
Si -0.04 -10.62 -2.99
Si -9.19  5.33 -2.96
Si  0.01 -6.35  9.02
Si -5.50  9.56  0.02
Si 11.04  0.01  0.02
Si -5.50  3.20  9.02
Si  9.18 -5.35  2.99
Si  5.53 -3.17  9.02
Si -5.50  3.25 -9.00
Si  5.52  9.56  0.02
Si  0.01  6.38  9.02
Si  5.52  3.20  9.02
Si  5.52  3.25 -9.00
Si -9.19 -1.04  6.04
Si -5.55 -7.43  6.01
Si -3.62 -8.51 -6.06
Si  3.67 -8.53 -6.02
Si -3.68  8.51  6.04
Si  0.01 10.69  2.97
Si -5.51  7.51 -6.04
Si  5.52  7.51 -6.04
Si 10.96  0.00 -2.21
Si -0.05 -10.55  3.75
Si -3.67 10.56  0.75
Si  5.45 -9.55 -2.21
Si  5.45  9.55 -2.21
Si -9.19  5.24  3.74
Si  1.84  7.38 -8.25
Si -7.32 -8.48  0.75
Si -5.51 -5.28 -8.24
Si -7.32 -2.12 -8.25
Si -3.67  4.20  9.75
Si  5.52 -5.28 -8.24
Si -11.02 -2.10  0.76
Si -1.81 -5.30  9.76
Si -1.81  7.43 -8.25
Si  0.01 -0.04 -11.25
Si 11.03 -2.10  0.76
Si -5.51  1.09  9.76
Si  7.35 -2.17 -8.25
Si  5.52  1.09  9.76
Si  3.71  4.25  9.76
Si  3.71 10.62  0.75
Si  1.84 -5.35  9.75
Si -5.58 -9.55 -2.21
Si -5.58  9.55 -2.21
Si  7.35 -8.54  0.75
Si -11.09  0.00 -2.21
Si  9.24  5.33  3.77
Si -3.67  6.31  8.99
Si  3.64 -10.58 -3.00
Si -7.31 -0.01  8.99
Si  3.68  6.38 -8.95
Si  7.30 -8.49  3.01
Si  3.68 10.58  3.00
Si -3.63  6.36 -9.00
Si  7.30  8.50 -2.99
Si -3.65 -6.34 -9.00
Si -10.99 -2.14  3.03
Si -7.30  0.01 -9.03
Si -3.63 -6.37  9.01
Si 11.02  2.11 -3.02
Si -3.72 -10.60 -2.99
Si  3.73  6.37  8.98
Si -11.03  2.11 -3.02
Si  7.35 -0.06 -9.02
Si -3.73 10.60  3.01
Si -7.35 -8.52  3.00
Si  7.38  0.02  9.00
Si  3.71 -6.38 -9.02
Si  3.68 -6.35  9.05
Si 11.06 -2.14  3.03
Si -7.39  8.52 -3.00
Si -1.84 -11.63  0.79
Si  9.19  5.26 -5.22
Si 10.99  2.13  3.75
Si -1.80 -9.51  6.76
Si  1.81  9.54  6.71
Si  7.32 -6.37  6.73
Si  9.16 -3.17  6.75
Si  1.81 -9.56  6.71
Si -7.36  8.44  3.78
Si  7.33  6.37  6.73
Si  9.16  3.13  6.78
Si -10.99  4.30  0.71
Si -3.68 -10.58  3.79
Si -9.17  7.43  0.78
Si  0.04 -8.43 -8.29
Si -7.35  4.29 -8.22
Si -1.86 -3.24 -11.23
Si -0.04 -10.60 -5.26
Si -9.19  5.33 -5.21
Si  7.37  4.25 -8.23
Si  3.65  0.02 -11.26
Si -1.80  3.23 -11.25
Si  1.86 -11.67  0.78
Si -9.21 -3.18  6.73
Si  1.80 -3.18 -11.27
Si -9.22  3.18  6.73
Si -7.37  6.38  6.75
Si -3.70  0.01 -11.27
Si  9.19  7.47  0.79
Si  7.35  8.52  3.79
Si -1.80  9.59  6.76
Si  1.81  3.18 -11.29
Si -11.07  2.13  3.75
Si 11.06  4.30  0.71
Si  3.67 -10.66  3.78
Si -7.38 -6.42  6.78
Si -0.03 -2.14 11.94
Si  9.16 -5.28 -5.96
Si -9.14  5.32  5.97
Si 11.00  4.22  2.94
Si -1.83 11.64 -2.96
Si -1.83 -1.09 -11.96
Si -9.14 -7.42 -3.04
Si -1.87 -11.65  3.04
Si 11.01 -4.28 -3.01
Si  9.16  7.45  3.04
Si -11.05  4.22  2.94
Si -0.02  2.09 -12.02
Si -9.23 -5.32 -5.95
Si  9.20  5.27  6.04
Si -0.03 10.59 -6.07
Si  1.79 -11.68  3.06
Si  9.20 -7.46 -2.96
Si -0.02 -10.64  5.99
Si  1.89 11.68 -3.04
Si -11.05 -4.28 -3.01
Si -9.23  7.42  3.06
Si  1.89 -1.05 -12.04
Si -1.87  1.08 12.04
Si  1.79  1.05 12.06
Si  1.90  7.41  9.67
Si -1.87  7.38  9.72
Si -5.49 -5.28  9.73
Si -11.01  2.08 -5.23
Si  7.41 -2.14  9.67
Si -9.19 -7.40  3.73
Si  5.54 -5.28  9.73
Si  9.15 -7.45  3.75
Si -3.67 -10.59 -5.27
Si -1.87 11.65  3.75
Si  9.16  1.02 -8.28
Si 11.04  2.08 -5.23
Si -7.38 -2.16  9.72
Si  3.64 -10.63 -5.25
Si -11.01 -4.28  3.78
Si -7.39  8.47 -5.25
Si -9.13  1.04 -8.33
Si  1.84 11.70  3.73
Si -5.49  7.45 -8.28
Si  7.35  8.51 -5.27
Si 11.04 -4.28  3.78
Si  3.64 -8.53 -8.28
Si  5.54  7.45 -8.28
Si -3.62 -8.51 -8.33
Si  0.01 -12.66  0.00
Si -3.62 -2.15 11.94
Si -3.68  2.15 -11.96
Si 10.99  2.12  6.01
Si  3.67 10.57 -6.02
Si  3.66  2.11 -11.98
Si -11.01 -6.35  0.01
Si -3.62 10.58 -6.06
Si -0.04 -4.25 -11.99
Si  3.67 -2.16 11.99
Si  0.01  4.33 11.97
Si -11.02 -2.04 -6.04
Si -3.68 -10.59  6.04
Si 11.04 -6.35  0.01
Si -7.36  8.47  6.02
Si 11.03 -2.04 -6.04
Si  0.01 12.75  0.01
Si  3.66 -10.63  6.02
Si -11.02  6.44  0.00
Si  7.35  8.51  6.04
Si -7.36 -8.53 -6.02
Si -11.07  2.12  6.01
Si 11.04  6.44  0.00
Si  7.41 -8.51 -6.06
Si  5.45 -3.18 -11.21
Si 10.98 -4.19 -5.26
Si  1.84 11.61 -5.26
Si  0.01 12.69 -2.25
Si  7.35 10.56  0.75
Si -0.06  6.37 -11.21
Si -12.84  1.07  0.75
Si -5.51 -11.64  0.76
Si  5.52 -11.64  0.76
Si -11.01  0.01  6.75
Si  7.35  4.20  9.75
