500
set: 823.00  0.00  0.00
Si -0.45  1.20 -0.82
Si  0.39 -1.19  0.90
Si  1.31  1.16  0.85
Si -1.30 -1.18 -0.84
Si  2.12 -1.08 -0.85
Si -2.17  1.21  0.85
Si -0.90  0.01  2.52
Si  0.87  0.07 -2.53
Si -3.07 -1.13  0.80
Si  3.06  1.19 -0.87
Si  0.08  2.37  2.45
Si -0.01 -2.32 -2.54
Si -2.67 -0.01 -2.40
Si  2.65 -0.03  2.48
Si  0.49  3.53 -0.83
Si -0.45 -3.58  0.81
Si -1.76  2.40 -2.39
Si  1.29 -3.50 -0.89
Si -1.23  3.56  0.80
Si  1.73 -2.40  2.48
Si -1.80 -2.43  2.46
Si  1.80  2.41 -2.52
Si  3.88 -1.25  0.79
Si -0.97 -0.01 -4.10
Si  0.90 -0.02  4.13
Si -3.97  1.24 -0.82
Si  2.30  3.48  0.79
Si -2.24 -3.53 -0.81
Si -0.03  2.29 -4.09
Si  3.01 -3.55  0.79
Si -0.04 -2.37  4.10
Si -3.04  3.60 -0.80
Si  3.44 -2.31 -2.53
Si -3.54 -2.30 -2.43
Si  3.50  2.35  2.45
Si  2.60 -0.11 -4.14
Si -2.59  0.01  4.17
Si -3.48  2.43  2.47
Si  4.76  1.08  0.86
Si -4.34  0.07  2.45
Si -1.70  2.37  4.06
Si  4.32 -0.00 -2.52
Si -1.77 -2.36 -4.13
Si -4.89 -1.15 -0.76
Si  1.77  2.31  4.20
Si  1.73 -2.36 -4.21
Si  0.92  4.66  2.40
Si -0.89 -4.70 -2.43
Si -4.03 -3.45  0.84
Si -0.81  4.71 -2.48
Si  4.07  3.47 -0.82
Si  0.86 -4.80  2.46
Si -5.71  1.14  0.84
Si  5.72 -1.09 -0.81
Si  0.34 -1.17 -5.77
Si -3.50  2.40 -4.10
Si  3.49 -2.40  4.13
Si  3.58  2.34 -4.12
Si -0.40  1.16  5.81
Si -2.57  4.76  2.46
Si  2.57 -4.77 -2.48
Si  4.73 -3.53 -0.84
Si -3.56 -2.32  4.20
Si -2.70 -4.78  2.40
Si  2.73  4.75 -2.43
Si -4.38  0.03 -4.10
Si -4.82  3.54  0.83
Si  0.45 -5.97 -0.82
Si -1.32 -1.18  5.78
Si -0.41  5.99  0.84
Si  1.37  1.15 -5.79
Si  4.46 -0.06  4.12
Si  1.38  5.92 -0.81
Si -1.32 -5.96  0.79
Si  5.22 -2.35  2.46
Si -5.29 -2.30  2.50
Si -0.77  4.71  4.10
Si -5.28  2.40 -2.50
Si  5.34  2.33 -2.46
Si  1.02  4.72 -4.08
Si -2.24  1.23 -5.79
Si -0.99 -4.74  4.09
Si  2.29 -1.11  5.80
Si  0.83 -4.77 -4.10
Si -2.11  5.96 -0.83
Si  2.19 -5.97  0.80
Si  6.17  0.09  2.48
Si  3.15  1.18  5.73
Si -6.19  0.02 -2.44
Si -3.18 -1.23 -5.73
Si  3.17  5.86  0.81
Si -3.13 -5.91 -0.83
Si -2.60 -4.72 -4.08
Si -5.73 -3.48 -0.83
Si -0.44 -3.51 -5.77
Si  2.63  4.70  4.09
Si  0.44  3.54  5.78
Si -2.54  4.76 -4.12
Si  1.36 -3.45  5.71
Si  5.81  3.48  0.80
Si  6.66  1.22 -0.78
Si  2.55 -4.83  4.10
Si -6.70 -1.25  0.83
Si -1.28  3.57 -5.75
Si  4.48  4.65  2.46
Si  4.39 -4.72  2.49
Si -4.30  4.82 -2.49
Si -4.43 -4.74 -2.48
Si  5.25  2.29  4.11
Si -5.24 -2.34 -4.10
Si -3.87  1.27  5.77
Si  3.93 -5.82 -0.90
Si  2.22  3.54 -5.73
Si -5.31  2.30  4.10
Si  5.28 -2.37 -4.12
Si -2.20 -3.53  5.76
Si  3.96 -1.20 -5.80
Si -3.96  5.89  0.81
Si  6.19 -0.06 -4.11
Si -6.18 -0.04  4.13
Si  3.03 -3.65 -5.75
Si -2.97  3.65  5.82
Si  6.54 -3.55  0.81
Si -0.13 -7.10  2.45
Si -0.43  1.22 -7.42
Si  0.08  7.14 -2.43
Si -6.57  3.63 -0.90
Si  0.45 -1.21  7.45
Si  4.78  1.10 -5.76
Si  7.42 -1.25  0.83
Si -7.46  1.22 -0.78
Si -4.33  4.67  4.15
Si -1.41 -1.16 -7.41
Si -4.79 -1.09  5.84
Si  1.41  1.19  7.41
Si -4.40 -4.73  4.10
Si  4.45  4.67 -4.10
Si  1.82  7.02  2.46
Si -4.85 -5.88  0.80
Si -1.82 -7.04 -2.52
Si  4.43 -4.78 -4.09
Si  1.71 -7.12 -2.46
Si -1.67  7.14  2.50
Si  4.91  5.94 -0.89
Si  2.17 -1.10 -7.38
Si  7.03 -2.28 -2.46
Si -2.16  1.12  7.44
Si -7.09 -2.28 -2.46
Si -7.05  2.38  2.50
Si -4.01 -3.58 -5.74
Si  7.07  2.38  2.50
Si  4.02  3.60  5.80
Si -6.11  4.72  2.49
Si  6.20 -4.63 -2.49
Si -3.06 -1.18  7.44
Si  6.19  4.67 -2.48
Si -6.19 -4.68  2.46
Si  3.13  1.29 -7.47
Si -0.04 -7.10 -4.12
Si  5.73 -1.20  5.77
Si -0.39  5.87 -5.74
Si -0.40 -3.59  7.39
Si  0.45  3.56 -7.40
Si  5.68 -5.91  0.83
Si  0.40 -5.84  5.80
Si  3.45 -7.07  2.50
Si -5.78  1.09 -5.80
Si -4.86  3.43 -5.74
Si  0.07  7.12  4.20
Si -3.55 -7.07  2.45
Si  7.93  0.02 -2.44
Si -5.76  5.91 -0.84
Si -0.56 -8.25 -0.87
Si  4.81 -3.55  5.78
Si -3.47  7.16 -2.46
Si -1.33  3.47  7.46
Si -7.95  0.09  2.48
Si  1.30 -3.52 -7.45
Si -1.41 -5.91 -5.73
Si -1.62  7.11 -4.10
Si  0.55  8.32  0.80
Si  3.61  7.12 -2.54
Si  1.42  5.92  5.76
Si  1.85  7.08 -4.13
Si  1.63 -7.15  4.11
Si -7.58 -3.55  0.81
Si  6.98 -2.40  4.06
Si  7.55  3.63 -0.90
Si -1.27  8.29 -0.76
Si -7.03  2.35 -4.11
Si -1.85 -7.13  4.20
Si -2.25 -3.54 -7.37
Si  1.14 -8.36  0.86
Si  2.20  3.53  7.41
Si -8.40 -1.09 -0.81
Si -4.01  1.27 -7.41
Si  7.09  2.35 -4.11
Si  4.01 -1.27  7.42
Si  8.41  1.14  0.84
Si -7.14 -2.40  4.06
Si  2.16 -5.96 -5.76
Si -2.16  5.97  5.77
Si  2.33  8.26 -0.84
Si -2.32 -8.29  0.85
Si -6.07  4.66 -4.09
Si  6.17  4.62  4.10
Si -3.02  3.66 -7.34
Si -6.17 -4.68 -4.12
Si  3.01 -3.64  7.42
Si -3.08  8.20  0.83
Si  3.04 -8.22 -0.78
Si  6.17 -4.77  4.15
Si -3.18 -5.91  5.78
Si -3.52  7.05  4.06
Si  6.62  1.22  5.76
Si -4.82 -1.05 -7.36
Si  3.18  5.93 -5.77
Si  5.78  3.48 -5.76
Si -5.78 -3.48  5.77
Si -6.66 -5.84 -0.80
Si  3.47 -7.09 -4.11
Si  6.63  5.89  0.79
Si -6.63 -1.30 -5.80
Si  3.58  7.07  4.10
Si -7.93 -0.06 -4.11
Si  7.94 -0.04  4.13
Si  4.89  1.05  7.43
Si -3.65 -7.16 -4.09
Si -8.31  3.48  0.80
Si  3.97 -5.86  5.73
Si  5.21 -7.04 -2.50
Si -4.01 -3.51  7.39
Si  8.39 -3.48 -0.83
Si  0.78  0.01 -9.09
Si -0.75 -0.02  9.11
Si -3.93  5.87 -5.81
Si -5.27  7.09  2.46
Si  4.06  3.63 -7.38
Si -5.38 -7.04 -2.39
Si  5.35  7.05  2.48
Si  4.01  8.25  0.90
Si -4.07 -8.24 -0.82
Si -0.09 -2.38 -8.98
Si  9.23 -1.15 -0.76
Si  0.08  2.34  9.05
Si -5.70  1.12  7.38
Si -6.53  3.58  5.73
Si  0.44 -5.81 -7.38
Si -8.78  2.33 -2.46
Si -4.78  3.40  7.38
Si -2.63  0.02 -9.09
Si -9.36  1.08  0.86
Si  8.83 -2.30  2.50
Si  2.68 -0.07  9.08
Si  6.57 -3.58 -5.81
Si  5.74 -1.11 -7.45
Si -1.79  2.42 -8.98
Si -0.39  5.93  7.39
Si  4.77 -3.48 -7.42
Si  8.84  2.40 -2.50
Si -7.92 -4.63 -2.49
Si  7.46 -5.84 -0.80
Si -8.90 -2.35  2.46
Si -7.50  1.22  5.76
Si  7.93 -4.68  2.46
Si -7.93  4.67 -2.48
Si  1.37  5.90 -7.37
Si  1.73  2.37 -9.08
Si  1.81 -2.40  9.06
Si -7.49  5.89  0.79
Si  7.49 -1.30 -5.80
Si -4.91 -5.88 -5.75
Si -1.43 -5.92  7.41
Si -1.80 -2.46  9.10
Si  4.79 -8.31  0.84
Si  8.01  4.72  2.49
Si -4.78  8.35 -0.81
Si  4.98  5.99  5.71
Si -5.22  7.08 -4.12
Si  2.19 -5.94  7.38
Si -5.32 -7.07  4.06
Si  5.18 -7.14  4.10
Si -2.10  6.02 -7.41
Si  0.95  9.43 -2.40
Si  0.70 -9.44 -2.52
Si  5.35  7.08 -4.21
Si -0.97 -9.47  2.48
Si -0.72  9.51  2.45
Si  3.58  2.34  8.97
Si  3.22  5.85  7.39
Si -3.17 -5.88 -7.40
Si -5.72 -3.42 -7.41
Si -3.39  2.36  9.08
Si  6.58  1.19 -7.40
Si  9.30  3.54  0.83
Si  8.81  2.30  4.10
Si  3.40 -2.41 -9.08
Si  2.54 -9.36  2.48
Si  0.44  8.21 -5.73
Si  5.81  3.50  7.38
Si -5.69  5.89  5.78
Si -4.31  0.02  9.06
Si -8.84 -2.37 -4.12
Si -8.87  2.29  4.11
Si  5.64 -6.01 -5.74
Si -6.63 -1.31  7.44
Si  4.32 -0.08 -9.08
Si  8.88 -2.34 -4.10
Si -9.38 -3.53 -0.84
Si -3.55 -2.33 -9.12
Si -7.95  4.62  4.10
Si -0.47 -8.26  5.73
Si  9.78  0.07  2.45
Si -2.75 -9.38 -2.53
Si -5.79 -8.23  0.85
Si  7.95 -4.68 -4.12
Si -2.57  9.46 -2.44
Si -9.80 -0.00 -2.52
Si -7.95 -4.77  4.15
Si  2.72  9.46  2.52
Si  8.05  4.66 -4.09
Si  7.59  3.58  5.73
Si -3.93  5.79  7.38
Si -7.55 -3.58 -5.81
Si  5.74  8.37 -0.85
Si  1.16 -8.34 -5.76
Si  8.34  1.09 -5.80
Si  7.02 -7.01  2.47
Si -0.82  4.76 -9.01
Si  3.88 -5.90 -7.42
Si -8.39 -1.20  5.77
Si -0.95 -4.72 -9.05
Si 10.15  1.24 -0.82
Si  0.88  4.68  9.08
Si -1.16  8.36  5.84
Si  8.36  5.91 -0.84
Si -7.10 -7.01  2.47
Si  0.83 -4.86  9.04
Si -8.44 -5.91  0.83
Si  2.30  8.26  5.78
Si  7.06  7.13 -2.53
Si -7.06  7.13 -2.53
Si -10.24 -1.25  0.79
Si -0.76  9.47 -4.10
Si -2.26 -8.29 -5.79
Si  1.03  9.46  4.17
Si  0.83 -9.50  4.12
Si -3.01  8.14 -5.80
Si -1.02 -9.56 -4.14
Si  3.00 -8.22  5.76
Si -9.66 -0.06  4.12
Si  6.53 -8.20 -0.82
Si -6.59 -5.79  5.82
Si  6.66  5.80 -5.75
Si  6.57 -3.65  7.38
Si -2.53  4.73  9.08
Si  2.67  4.72 -9.05
Si -6.62  3.54 -7.42
Si  2.60 -4.76 -9.06
Si  9.73  0.03 -4.10
Si -6.62  8.20  0.79
Si -2.56  9.40  4.13
Si -2.75 -4.76  9.08
Si  2.65  9.43 -4.10
Si -7.54  1.19 -7.40
Si  7.49 -1.31  7.44
Si  4.30 -9.42 -2.44
Si -1.50 -10.52 -0.85
Si -10.05  3.47 -0.82
Si  2.57 -9.50 -4.11
Si -2.72 -9.47  4.13
Si 10.09 -3.45  0.84
Si -8.34  3.48 -5.76
Si  4.92  5.92 -7.45
Si  8.34 -3.48  5.77
Si  0.25 -10.69  0.79
Si -0.35 10.69 -0.82
Si  5.26  2.34 -9.05
Si  7.00 -7.04 -4.10
Si -5.26 -2.34  9.08
Si -7.01  7.04  4.13
Si -4.52 -9.43  2.52
Si -4.33  9.53  2.48
Si -4.95 -5.98  7.46
Si  2.10 -10.53 -0.81
Si  1.45 10.65  0.85
Si  0.96  0.00 10.75
Si  5.32 -2.40  9.08
Si -2.08 10.58  0.84
Si  4.50  9.51 -2.53
Si -7.12 -7.04 -4.10
Si  7.11  7.04  4.13
Si -0.93 -0.04 -10.79
Si  3.97  8.27 -5.77
Si -5.37  2.35 -9.12
Si -4.02 -8.29  5.81
Si  0.03 -2.34 10.66
Si -6.18 -0.03 -9.04
Si -0.04  2.32 -10.72
Si -9.64  4.65  2.46
Si -9.21  5.94 -0.89
Si -2.58 -0.04 10.70
Si  9.27 -5.88  0.80
Si -9.34  1.10 -5.76
Si  2.63 -0.05 -10.72
Si  6.28 -0.08  9.09
Si  1.84  2.38 10.64
Si -7.46  5.80 -5.75
Si  9.69 -4.74 -2.48
Si  9.33 -1.09  5.84
Si -0.50 -8.15 -7.47
Si  4.45  4.58  9.04
Si -4.44 -4.69 -9.01
Si -9.73 -4.72  2.49
Si 10.58 -2.30 -2.43
Si  1.64 -2.35 -10.73
Si -5.72  5.96 -7.42
Si -4.31  9.38 -4.11
Si -4.41  4.71 -9.05
Si  5.72 -6.05  7.38
Si -1.78 -2.33 -10.73
Si  7.50  3.54 -7.42
Si  0.57  8.27  7.44
Si 11.05 -1.13  0.80
Si -4.77  8.24  5.77
Si  7.50  8.20  0.79
Si  3.17 10.64 -0.82
Si  7.53 -5.79  5.82
Si -1.69  2.40 10.75
Si -3.24 -10.63  0.90
Si -10.62  2.35  2.45
Si -11.05  1.19 -0.87
Si  4.42 -4.81  9.07
Si -7.55 -3.65  7.38
Si 10.64  2.43  2.47
Si -7.59 -8.20 -0.82
Si  4.32 -9.48  4.13
Si  4.72 -8.35 -5.80
Si  9.82  4.82 -2.49
Si -10.68 -2.31 -2.53
Si -1.20  8.40 -7.36
Si  4.52  9.42  4.13
Si  8.42  1.12  7.38
Si -8.38 -1.11 -7.45
Si  1.26 -8.39  7.43
Si -4.60 -9.46 -4.10
Si -2.21 -8.26  7.41
Si  2.21  8.28 -7.41
Si -3.83 10.66 -0.78
Si  3.80 -10.69  0.83
Si  9.26  3.43 -5.74
Si -3.01  8.13  7.44
Si -0.04 -7.11  8.97
Si -6.64 -5.79 -7.34
Si  2.96 -8.25 -7.40
Si  8.73 -7.04 -2.39
Si  6.15 -9.38  2.45
Si  3.50  2.35 -10.70
Si -9.67  4.67 -4.10
Si -3.52  2.44 -10.69
Si  6.63  5.80  7.42
Si -9.31 -3.55  5.78
Si -8.77  7.05  2.48
Si  3.57 -2.42 10.72
Si -10.54  2.34 -4.12
Si -9.69 -4.78 -4.09
Si -6.18  9.44 -2.52
Si  9.72 -4.73  4.10
Si  0.07  7.12 -9.12
Si  4.42 -0.07 10.70
Si  6.27  9.41  2.48
Si -3.53 -2.34 10.79
Si -4.42  0.06 -10.72
Si  8.85  7.09  2.46
Si 10.56 -2.32  4.20
Si -6.30 -9.45 -2.40
Si  1.82  6.98  9.10
Si  9.79  4.67  4.15
Si  1.64 -7.10 -9.05
Si -8.91 -7.04 -2.50
Si -5.86 -8.21 -5.79
Si 10.62  2.40 -4.10
Si -1.64  7.10  9.08
Si -10.63 -2.40  4.13
Si -8.31  3.50  7.38
Si -1.90 -7.07 -9.08
Si -0.90 -4.68 10.65
Si 11.08  3.60 -0.80
Si -6.99  2.33  9.06
Si  6.96 -2.40 -9.08
Si -11.11 -3.55  0.79
Si 11.44 -0.01 -2.40
Si  0.87  4.76 -10.66
Si  8.40 -3.42 -7.41
Si  4.93 10.60  0.85
Si  0.80 -4.73 -10.71
Si -11.47 -0.03  2.48
Si -4.92 -10.62 -0.84
Si  8.32 -8.23  0.85
Si  5.92  8.33  5.80
