500
set: 720.00  0.00  0.00
Si  0.82 -0.18  0.67
Si -1.11 -0.00 -0.83
Si  1.34  1.14 -1.30
Si  0.14  1.89  1.32
Si  1.36 -2.00 -0.62
Si  0.12 -2.27  1.41
Si -2.05 -1.38  1.14
Si -0.48  2.30 -1.60
Si -1.55 -2.14 -1.43
Si -1.48  0.27  2.62
Si -0.32 -1.08 -2.92
Si  2.08 -1.29  2.09
Si  2.39  2.17  0.37
Si  1.73 -1.30 -2.51
Si -3.20  0.89 -0.53
Si -2.21  2.23  1.70
Si  3.59 -0.28 -0.00
Si  0.00 -1.47  3.59
Si  1.28  0.77  3.61
Si  0.36 -3.66 -2.04
Si -3.51 -0.93 -2.13
Si -2.40  3.53 -0.46
Si -1.69  2.39 -3.36
Si -4.20 -1.52  0.47
Si  0.76  4.46 -0.39
Si  3.91 -0.48 -2.38
Si  1.18  3.16 -3.18
Si  4.03 -0.36  2.32
Si -0.42  3.78  2.77
Si  3.38  1.75  2.90
Si  2.50 -4.07  0.37
Si  2.00  3.83  2.08
Si -0.92  0.25 -4.76
Si  1.13 -4.04  2.51
Si  4.41  1.85 -1.19
Si -1.62 -4.61  1.24
Si  3.55  1.70 -3.26
Si -0.92  0.25  5.04
Si -1.51 -2.17 -4.41
Si  2.94 -3.51 -2.50
Si -3.50  1.76  3.52
Si  4.88  1.59  1.29
Si -4.92  1.59  1.29
Si  4.16 -3.00  1.52
Si -3.63  1.20 -3.78
Si  0.04  2.46  4.79
Si  0.76 -5.33 -0.39
Si -3.09 -0.56  4.40
Si -3.39 -3.00  3.04
Si  1.89 -1.75  4.82
Si -1.25 -3.93  3.63
Si -3.75 -4.04  0.43
Si  0.04  2.46 -5.01
Si -1.62  5.19  1.24
Si  3.13  4.42 -1.43
Si  1.89 -1.75 -4.98
Si  3.28  0.53  4.63
Si -4.42 -3.25 -1.54
Si -2.36 -4.62 -2.47
Si -5.39  1.85 -1.19
Si  5.60 -1.52  0.47
Si  2.46  2.94  4.43
Si -4.48  3.74 -1.16
Si -1.51 -2.17  5.39
Si  3.20 -3.38  3.89
Si  3.28  0.53 -5.17
Si  4.56  4.01  1.16
Si -0.54 -4.87 -3.79
Si -2.36  5.18 -2.47
Si -6.21 -0.28 -0.00
Si -5.77 -0.36  2.32
Si -0.54  4.93 -3.79
Si -3.09 -0.56 -5.40
Si  2.50  5.73  0.37
Si  1.28  0.77 -6.19
Si -5.89 -0.48 -2.38
Si  1.13  5.76  2.51
Si  0.00 -1.47 -6.21
Si  3.13 -5.38 -1.43
Si -2.74  3.64 -4.53
Si  5.38 -3.25 -1.54
Si  0.36  6.14 -2.04
Si -4.01 -3.46 -3.81
Si  1.37 -4.34 -4.72
Si -5.64 -3.00  1.52
Si  2.46  2.94 -5.37
Si  5.32  3.74 -1.16
Si  2.00 -5.96  2.08
Si -0.42 -6.02  2.77
Si  4.28 -1.59 -4.85
Si  6.60  0.89 -0.53
Si -5.24  4.01  1.16
Si  6.29 -0.93 -2.13
Si  4.28 -1.59  4.95
Si -2.40 -6.27 -0.46
Si -3.89  4.21  3.55
Si  1.37 -4.34  5.08
Si -3.75  5.76  0.43
Si -0.32 -1.08  6.88
Si -2.74  3.64  5.28
Si -1.25  5.87  3.63
Si -1.69  2.39  6.44
Si -3.63  1.20  6.02
Si -6.25  1.70 -3.26
Si -6.42  1.75  2.90
Si  6.05 -4.04  0.43
Si -1.48  0.27 -7.18
Si  6.17  1.20 -3.78
Si  1.37  5.46 -4.72
Si  2.94  6.29 -2.50
Si  4.05  4.62 -4.10
Si -3.50  1.76 -6.28
Si -1.25 -3.93 -6.17
Si  1.18  3.16  6.62
Si  6.30  1.76  3.52
Si  1.18 -6.64 -3.18
Si  4.56 -5.79  1.16
Si -5.52 -1.59 -4.85
Si  3.20 -3.38 -5.91
Si  1.37  5.46  5.08
Si -5.52 -1.59  4.95
Si  1.73 -1.30  7.29
Si -4.48 -6.06 -1.16
Si  3.55  1.70  6.54
Si  0.12  7.53  1.41
Si -3.89 -5.59  3.55
Si -0.48 -7.50 -1.60
Si  6.41 -3.00  3.04
Si -7.41  2.17  0.37
Si  5.79 -3.46 -3.81
Si  4.05 -5.18 -4.10
Si -0.54 -4.87  6.01
Si -0.54  4.93  6.01
Si  3.38  1.75 -6.90
Si -5.24 -5.79  1.16
Si  1.36  7.80 -0.62
Si -1.55  7.66 -1.43
Si  7.75 -1.38  1.14
Si -0.42  3.78 -7.03
Si -4.01 -3.46  5.99
Si  2.39 -7.63  0.37
Si -6.52  0.53  4.63
Si  0.14 -7.91  1.32
Si  6.71 -0.56  4.40
Si -4.42  6.55 -1.54
Si -2.21 -7.57  1.70
Si  5.91  4.21  3.55
Si  7.58  2.23  1.70
Si  2.08 -1.29 -7.71
Si -7.72 -1.29  2.09
Si -6.87 -3.51 -2.50
Si  4.16  6.80  1.52
Si -2.74 -6.16 -4.53
Si -6.67  4.42 -1.43
Si -3.39 -3.00 -6.76
Si  5.32 -6.06 -1.16
Si  3.20  6.42  3.89
Si -3.39  6.80  3.04
Si  7.40  3.53 -0.46
Si -1.69 -7.41 -3.36
Si -6.52  0.53 -5.17
Si -7.30 -4.07  0.37
Si  6.05  5.76  0.43
Si -6.60 -3.38  3.89
Si  4.05  4.62  5.70
Si  3.91 -0.48  7.42
Si -4.01  6.34 -3.81
Si  1.13 -4.04 -7.29
Si -5.75  4.62 -4.10
Si -3.89  4.21 -6.25
Si -3.51 -0.93  7.67
Si  4.03 -0.36 -7.48
Si -0.48  2.30  8.20
Si  2.46 -6.86  4.43
Si -8.07 -1.30 -2.51
Si -2.74 -6.16  5.28
Si  0.36 -3.66  7.76
Si -1.25  5.87 -6.17
Si  5.38  6.55 -1.54
Si  2.94 -3.51  7.30
Si  6.71 -0.56 -5.40
Si -8.46  1.14 -1.30
Si  8.25 -2.14 -1.43
Si  0.14  1.89 -8.47
Si  1.34  1.14  8.50
Si -2.21  2.23 -8.10
Si -6.67 -5.38 -1.43
Si  0.12 -2.27 -8.39
Si -8.44 -2.00 -0.62
Si  6.17  1.20  6.02
Si  4.05 -5.18  5.70
Si  8.32  0.27  2.62
Si  8.69 -0.00 -0.83
Si -2.05  8.42  1.14
Si -5.75 -5.18 -4.10
Si  0.04 -7.34  4.79
Si -1.55 -2.14  8.37
Si  2.00  3.83 -7.72
Si  1.34 -8.66 -1.30
Si  5.91 -5.59  3.55
Si  0.04 -7.34 -5.01
Si -1.51  7.63 -4.41
Si -7.80  3.83  2.08
Si -5.64  6.80  1.52
Si -2.36 -4.62  7.33
Si  2.08  8.51  2.09
Si -8.98 -0.18  0.67
Si -2.05 -1.38 -8.66
Si  5.79 -3.46  5.99
Si  1.73  8.50 -2.51
Si -1.11 -0.00  8.96
Si  2.46 -6.86 -5.37
Si -7.34  2.94  4.43
Si  0.00  8.33  3.59
Si  6.30  1.76 -6.28
Si  8.11  2.39 -3.36
Si  7.44 -4.62 -2.47
Si  7.06  3.64 -4.53
Si  4.41 -7.95 -1.19
Si  0.82 -0.18 -9.13
Si  3.38 -8.05  2.90
Si -0.32  8.72 -2.92
Si -6.25  1.70  6.54
Si -3.89 -5.59 -6.25
Si -0.42 -6.02 -7.03
Si -2.36  5.18  7.33
Si -7.30  5.73  0.37
Si -8.52  0.77  3.61
Si -4.20  8.28  0.47
Si  3.20  6.42 -5.91
Si -5.75  4.62  5.70
Si  1.13  5.76 -7.29
Si  5.79  6.34 -3.81
Si  7.44  5.18 -2.47
Si  3.55 -8.10 -3.26
Si -7.91 -1.75  4.82
Si -3.50 -8.04  3.52
Si  1.18 -6.64  6.62
Si -5.77 -0.36 -7.48
Si -1.51  7.63  5.39
Si  8.18 -4.61  1.24
Si -3.20 -8.91 -0.53
Si -5.89 -0.48  7.42
Si -6.60 -3.38 -5.91
Si  1.36 -2.00  9.18
Si -7.91 -1.75 -4.98
Si  7.06  3.64  5.28
Si -7.34  2.94 -5.37
Si  1.89  8.04  4.82
Si  5.91  4.21 -6.25
Si -6.42  1.75 -6.90
Si -4.01  6.34  5.99
Si -5.75 -5.18  5.70
Si  8.29 -2.17 -4.41
Si  4.88 -8.21  1.29
Si -6.87  6.29 -2.50
Si  1.89  8.04 -4.98
Si -4.92 -8.21  1.29
Si -5.39 -7.95 -1.19
Si  0.82  9.62  0.67
Si  7.40 -6.27 -0.46
Si -8.62  3.16 -3.18
Si  9.32  2.30 -1.60
Si  4.16 -3.00 -8.28
Si  8.18  5.19  1.24
Si -3.51  8.87 -2.13
Si  6.41 -3.00 -6.76
Si  1.28 -9.03  3.61
Si  6.41  6.80  3.04
Si -3.20  0.89  9.27
Si  4.41  1.85  8.61
Si -1.62 -4.61 -8.56
Si -8.67 -4.04  2.51
Si -1.11  9.80 -0.83
Si  0.36  6.14  7.76
Si -1.11 -9.80 -0.83
Si -4.42 -3.25  8.26
Si -9.66  1.89  1.32
Si  4.88  1.59 -8.51
Si  2.00 -5.96 -7.72
Si  6.29 -0.93  7.67
Si -1.69 -7.41  6.44
Si -4.92  1.59 -8.51
Si  2.39  2.17 -9.43
Si  3.13  4.42  8.38
Si  9.48 -1.08 -2.92
Si -1.48 -9.53  2.62
Si -6.60  6.42  3.89
Si  5.60  8.28  0.47
Si  0.82 -9.98  0.67
Si -7.80 -5.96  2.08
Si -9.68 -2.27  1.41
Si -3.63 -8.60 -3.78
Si  2.94  6.29  7.30
Si  8.88  0.25 -4.76
Si  8.55 -3.93  3.63
Si -9.04  4.46 -0.39
Si  8.29 -2.17  5.39
Si -1.62  5.19 -8.56
Si -3.39  6.80 -6.76
Si  3.59  9.53 -0.00
Si  9.94  1.89  1.32
Si  8.88  0.25  5.04
Si  5.91 -5.59 -6.25
Si -2.40  3.53  9.34
Si  9.92 -2.27  1.41
Si -9.44 -3.66 -2.04
Si -5.39  1.85  8.61
Si -4.20 -1.52 -9.33
Si  5.38 -3.25  8.26
Si  3.91  9.32 -2.38
Si  0.00  8.33 -6.21
Si  7.06 -6.16 -4.53
Si -4.48  3.74  8.64
Si  3.13 -5.38  8.38
Si  3.59 -0.28  9.80
Si  3.59 -0.28 -9.80
Si  0.76  4.46  9.41
Si  4.28  8.21 -4.85
Si -5.64 -3.00 -8.28
Si  5.79  6.34  5.99
Si  9.38  3.78  2.77
Si  4.28  8.21  4.95
Si  0.82 -0.18 10.47
Si -9.04 -5.33 -0.39
Si -1.48 10.07  2.62
Si  4.03  9.44  2.32
Si -9.80 -1.47  3.59
Si  9.80 -1.47  3.59
Si -8.52  0.77 -6.19
Si  4.56  4.01 -8.64
Si  2.50 -4.07 -9.43
Si -10.12 -1.08 -2.92
Si -8.43 -4.34 -4.72
Si -6.87 -3.51  7.30
Si  8.11  2.39  6.44
Si 10.62 -0.18  0.67
Si -7.41 -7.63  0.37
Si -10.28  2.30 -1.60
Si  2.39  2.17 10.17
Si -3.09  9.24  4.40
Si -1.11 -0.00 -10.63
Si  3.59 -10.07 -0.00
Si -6.42 -8.05  2.90
Si  1.36 -2.00 -10.42
Si -8.67  5.76  2.51
Si -0.92 -9.55 -4.76
Si -6.25 -8.10 -3.26
Si  7.06 -6.16  5.28
Si -8.43 -4.34  5.08
Si -3.50 -8.04 -6.28
Si  6.30 -8.04  3.52
Si  5.32  3.74  8.64
Si -0.92 -9.55  5.04
Si  0.76 -5.33  9.41
Si  7.58 -7.57  1.70
Si -3.20  0.89 -10.33
Si  3.28 -9.27  4.63
Si -3.75 -4.04 -9.37
Si -5.24  4.01 -8.64
Si -10.91 -0.00 -0.83
Si -6.60  6.42 -5.91
Si -8.07 -1.30  7.29
Si -7.34 -6.86  4.43
Si  8.55  5.87  3.63
Si -7.72 -1.29 -7.71
Si  5.60 -1.52 -9.33
Si  3.55 -8.10  6.54
Si  8.32  0.27 -7.18
Si 10.16 -3.66 -2.04
Si  1.28 -9.03 -6.19
Si -5.52  8.21 -4.85
Si -5.52  8.21  4.95
Si  6.29  8.87 -2.13
Si -8.43  5.46 -4.72
Si  6.60 -8.91 -0.53
Si  1.34 10.94 -1.30
Si -0.32  8.72  6.88
Si -3.63 -8.60  6.02
Si  3.28 -9.27 -5.17
Si -2.40  3.53 -10.26
Si -0.48 -7.50  8.20
Si  9.26 -4.87 -3.79
Si  3.38 -8.05 -6.90
Si -3.09  9.24 -5.40
Si -9.76  2.46  4.79
Si  0.76  4.46 -10.19
Si  9.26  4.93 -3.79
Si -0.92 10.05 -4.76
Si -3.20 10.69 -0.53
Si  4.03 -10.16  2.32
Si -4.20 -1.52 10.27
Si -2.05 -1.38 10.94
Si  9.84  2.46  4.79
Si  2.50 -4.07 10.17
Si  1.34  1.14 -11.10
Si -9.76  2.46 -5.01
Si  6.17 -8.60 -3.78
Si -10.22  3.78  2.77
Si  1.28 10.57  3.61
Si  8.55 -3.93 -6.17
Si -8.43  5.46  5.08
Si  3.91 -10.28 -2.38
Si  0.12  7.53 -8.39
Si -0.32 -10.88 -2.92
Si 11.14  1.14 -1.30
Si -5.89  9.32 -2.38
Si -0.92 10.05  5.04
Si  0.14  1.89 11.12
Si -5.77  9.44  2.32
Si -2.21 -7.57 -8.10
Si  9.84  2.46 -5.01
Si  7.58  2.23 -8.10
Si  2.50  5.73 -9.43
Si -8.62  3.16  6.62
Si  1.73  8.50  7.29
Si -8.62 -6.64 -3.18
Si  8.25  7.66 -1.43
Si  4.56 -5.79 -8.64
Si 11.16 -2.00 -0.62
Si -6.21  9.53 -0.00
Si -7.34 -6.86 -5.37
Si  6.60  0.89  9.27
Si  7.44 -4.62  7.33
Si -2.05 -11.18  1.14
Si -4.42  6.55  8.26
Si -9.44  6.14 -2.04
Si  0.12 -2.27 11.21
Si -1.55  7.66  8.37
Si -4.48 -6.06  8.64
Si 10.56  4.46 -0.39
Si  2.08 -11.09  2.09
Si  9.38 -6.02  2.77
Si  8.11 -7.41 -3.36
Si -3.51 -10.73 -2.13
Si  4.16  6.80 -8.28
Si -2.40 -6.27  9.34
Si  7.75  8.42  1.14
Si -8.44  7.80 -0.62
Si  1.73 -11.10 -2.51
Si  0.76 -5.33 -10.19
Si -1.55 -2.14 -11.23
Si  6.41  6.80 -6.76
Si -11.28  0.27  2.62
Si -6.67  4.42  8.38
Si  0.14 -7.91 -8.47
Si -6.21 -0.28  9.80
Si -6.21 -0.28 -9.80
Si -3.75  5.76 -9.37
Si -3.75 -4.04 10.23
Si -7.80  3.83 -7.72
Si -11.35 -2.14 -1.43
Si -0.48  2.30 -11.40
Si -5.24 -5.79 -8.64
Si  7.44  5.18  7.33
Si  2.08  8.51 -7.71
Si -3.09 -10.36  4.40
Si 11.08  0.77  3.61
Si -7.72  8.51  2.09
Si -9.80 -1.47 -6.21
Si  9.80 -1.47 -6.21
Si  7.75 -1.38 -8.66
Si -10.72  0.25 -4.76
Si  9.48 -1.08  6.88
Si  0.14 11.69  1.32
Si  3.28 10.33  4.63
Si  5.60 -1.52 10.27
Si  5.32 -6.06  8.64
Si  0.00 -11.27  3.59
Si -6.87  6.29  7.30
Si  5.38  6.55  8.26
Si -6.21 -10.07 -0.00
Si 10.56 -5.33 -0.39
Si -10.72  0.25  5.04
Si 10.97  3.16 -3.18
Si  6.05 -4.04 -9.37
Si 11.53 -1.30 -2.51
Si  1.36 -11.80 -0.62
Si -5.77 -10.16  2.32
Si 10.93 -4.04  2.51
Si -2.21  2.23 11.50
Si  2.50  5.73 10.17
Si  8.25 -2.14  8.37
Si -6.67 -5.38  8.38
Si -11.85 -1.38  1.14
Si  4.41  1.85 -10.99
Si -8.07  8.50 -2.51
Si  6.30 -8.04 -6.28
Si  3.28 10.33 -5.17
Si -1.48 -9.53 -7.18
Si -8.67 -4.04 -7.29
Si -10.34 -4.87 -3.79
Si -8.46  1.14  8.50
Si 10.16  6.14 -2.04
Si  8.55  5.87 -6.17
Si  9.26 -4.87  6.01
Si -10.34  4.93 -3.79
Si  9.32 -7.50 -1.60
Si -1.62 -4.61 11.04
Si -4.20 -11.32  0.47
