500
set: 66.00  0.00  0.00
Si  0.00  0.00  0.00
Si  0.04  0.08  2.42
Si -0.04 -0.08 -2.42
Si -1.10 -2.16  0.00
Si  1.10  2.16  0.00
Si  2.59  0.00  0.00
Si -2.59  0.00  0.00
Si -1.49  2.16  0.00
Si  1.49 -2.16  0.00
Si -1.06 -2.09  2.42
Si  1.06  2.09 -2.42
Si -1.14 -2.24 -2.42
Si  1.14  2.24  2.42
Si  2.55 -0.08 -2.42
Si -2.55  0.08  2.42
Si  1.53 -2.09  2.42
Si -1.53  2.09 -2.42
Si  2.63  0.08  2.42
Si -2.63 -0.08 -2.42
Si -1.45  2.24  2.42
Si  1.45 -2.24 -2.42
Si  3.69  2.16  0.00
Si -3.69 -2.16  0.00
Si  0.39 -4.33  0.00
Si -0.39  4.33  0.00
Si  4.08 -2.16  0.00
Si -4.08  2.16  0.00
Si -0.07 -0.15 -4.85
Si  0.07  0.15  4.85
Si  2.21  4.33  0.00
Si -2.21 -4.33  0.00
Si  3.66  2.09 -2.42
Si -3.66 -2.09  2.42
Si -0.42  4.25 -2.42
Si  0.42 -4.25  2.42
Si  3.73  2.24  2.42
Si -3.73 -2.24 -2.42
Si  0.35 -4.40 -2.42
Si -0.35  4.40  2.42
Si  5.18  0.00  0.00
Si -5.18  0.00  0.00
Si  4.12 -2.09  2.42
Si -4.12  2.09 -2.42
Si  4.04 -2.24 -2.42
Si -4.04  2.24  2.42
Si  2.98 -4.33  0.00
Si -2.98  4.33  0.00
Si -1.03 -2.01  4.85
Si  1.03  2.01 -4.85
Si  2.17  4.25 -2.42
Si -2.17 -4.25  2.42
Si -2.52  0.15  4.85
Si  2.52 -0.15 -4.85
Si -1.56  2.01 -4.85
Si  1.56 -2.01  4.85
Si  1.18  2.31  4.85
Si -1.18 -2.31 -4.85
Si  2.24  4.40  2.42
Si -2.24 -4.40 -2.42
Si -2.67 -0.15 -4.85
Si  2.67  0.15  4.85
Si -1.41  2.31  4.85
Si  1.41 -2.31 -4.85
Si  5.14 -0.08 -2.42
Si -5.14  0.08  2.42
Si -3.02  4.25 -2.42
Si  3.02 -4.25  2.42
Si  5.22  0.08  2.42
Si -5.22 -0.08 -2.42
Si -2.94  4.40  2.42
Si  2.94 -4.40 -2.42
Si -3.62 -2.01  4.85
Si  3.62  2.01 -4.85
Si -0.46  4.17 -4.85
Si  0.46 -4.17  4.85
Si  4.80  4.33  0.00
Si -4.80 -4.33  0.00
Si -0.72 -6.49  0.00
Si  0.72  6.49  0.00
Si -3.77 -2.31 -4.85
Si  3.77  2.31  4.85
Si  0.31 -4.48 -4.85
Si -0.31  4.48  4.85
Si  6.28  2.16  0.00
Si -6.28 -2.16  0.00
Si  4.16 -2.01  4.85
Si -4.16  2.01 -4.85
Si -4.00  2.31  4.85
Si  4.00 -2.31 -4.85
Si  2.13  4.17 -4.85
Si -2.13 -4.17  4.85
Si -1.88  6.49  0.00
Si  1.88 -6.49  0.00
Si  4.76  4.25 -2.42
Si -4.76 -4.25  2.42
Si  0.68  6.41 -2.42
Si -0.68 -6.41  2.42
Si  4.83  4.40  2.42
Si -4.83 -4.40 -2.42
Si -2.28 -4.48 -4.85
Si  2.28  4.48  4.85
Si  6.67 -2.16  0.00
Si -6.67  2.16  0.00
Si  6.25  2.09 -2.42
Si -6.25 -2.09  2.42
Si  0.75  6.56  2.42
Si -0.75 -6.56 -2.42
Si  5.11 -0.15 -4.85
Si -5.11  0.15  4.85
Si -5.57  4.33  0.00
Si  5.57 -4.33  0.00
Si  3.05 -4.17  4.85
Si -3.05  4.17 -4.85
Si  1.91 -6.41  2.42
Si -1.91  6.41 -2.42
Si  6.32  2.24  2.42
Si -6.32 -2.24 -2.42
Si  5.26  0.15  4.85
Si -5.26 -0.15 -4.85
Si  2.90 -4.48 -4.85
Si -2.90  4.48  4.85
Si  1.84 -6.56 -2.42
Si -1.84  6.56  2.42
Si  0.11  0.23  7.28
Si -0.11 -0.23 -7.28
Si  3.31  6.49  0.00
Si -3.31 -6.49  0.00
Si -6.63  2.24  2.42
Si  6.63 -2.24 -2.42
Si  6.71 -2.09  2.42
Si -6.71  2.09 -2.42
Si -5.61  4.25 -2.42
Si  5.61 -4.25  2.42
Si  5.53 -4.40 -2.42
Si -5.53  4.40  2.42
Si -0.99 -1.94  7.28
Si  0.99  1.94 -7.28
Si  3.27  6.41 -2.42
Si -3.27 -6.41  2.42
Si  2.48 -0.23 -7.28
Si -2.48  0.23  7.28
Si  1.60 -1.94  7.28
Si -1.60  1.94 -7.28
Si  1.22  2.39  7.28
Si -1.22 -2.39 -7.28
Si -3.34 -6.56 -2.42
Si  3.34  6.56  2.42
Si  2.70  0.23  7.28
Si -2.70 -0.23 -7.28
Si  7.77  0.00  0.00
Si -7.77  0.00  0.00
Si  1.38 -2.39 -7.28
Si -1.38  2.39  7.28
Si -4.47  6.49  0.00
Si  4.47 -6.49  0.00
Si  4.72  4.17 -4.85
Si -4.72 -4.17  4.85
Si  0.64  6.34 -4.85
Si -0.64 -6.34  4.85
Si  7.74 -0.08 -2.42
Si -7.74  0.08  2.42
Si -6.21 -2.01  4.85
Si  6.21  2.01 -4.85
Si -7.81 -0.08 -2.42
Si  7.81  0.08  2.42
Si -4.50  6.41 -2.42
Si  4.50 -6.41  2.42
Si -4.87 -4.48 -4.85
Si  4.87  4.48  4.85
Si  1.95 -6.34  4.85
Si -1.95  6.34 -4.85
Si -0.79 -6.64 -4.85
Si  0.79  6.64  4.85
Si -4.43  6.56  2.42
Si  4.43 -6.56 -2.42
Si  6.36  2.31  4.85
Si -6.36 -2.31 -4.85
Si -3.58 -1.94  7.28
Si  3.58  1.94 -7.28
Si -0.50  4.10 -7.28
Si  0.50 -4.10  7.28
Si  1.80 -6.64 -4.85
Si -1.80  6.64  4.85
Si -6.59  2.31  4.85
Si  6.59 -2.31 -4.85
Si -5.64  4.17 -4.85
Si  5.64 -4.17  4.85
Si  6.75 -2.01  4.85
Si -6.75  2.01 -4.85
Si  3.81  2.39  7.28
Si -3.81 -2.39 -7.28
Si -7.39 -4.33  0.00
Si  7.39  4.33  0.00
Si -0.27  4.55  7.28
Si  0.27 -4.55 -7.28
Si -5.49  4.48  4.85
Si  5.49 -4.48 -4.85
Si  2.09  4.10 -7.28
Si -2.09 -4.10  7.28
Si -3.23 -6.34  4.85
Si  3.23  6.34 -4.85
Si  4.19 -1.94  7.28
Si -4.19  1.94 -7.28
Si -3.97  2.39  7.28
Si  3.97 -2.39 -7.28
Si -0.77  8.65  0.00
Si  0.77 -8.65  0.00
Si  5.90  6.49  0.00
Si -5.90 -6.49  0.00
Si  7.35  4.25 -2.42
Si -7.35 -4.25  2.42
Si -1.82 -8.65  0.00
Si  1.82  8.65  0.00
Si -5.07  0.23  7.28
Si  5.07 -0.23 -7.28
Si  2.32  4.55  7.28
Si -2.32 -4.55 -7.28
Si -3.38 -6.64 -4.85
Si  3.38  6.64  4.85
Si  3.09 -4.10  7.28
Si -3.09  4.10 -7.28
Si -0.81  8.57 -2.42
Si  0.81 -8.57  2.42
Si  7.42  4.40  2.42
Si -7.42 -4.40 -2.42
Si  5.29  0.23  7.28
Si -5.29 -0.23 -7.28
Si -5.86 -6.41  2.42
Si  5.86  6.41 -2.42
Si -2.86  4.55  7.28
Si  2.86 -4.55 -7.28
Si -0.73  8.72  2.42
Si  0.73 -8.72 -2.42
Si  1.78  8.57 -2.42
Si -1.78 -8.57  2.42
Si -7.70  0.15  4.85
Si  7.70 -0.15 -4.85
Si  8.88  2.16  0.00
Si -8.88 -2.16  0.00
Si  5.94  6.56  2.42
Si -5.94 -6.56 -2.42
Si  4.54 -6.34  4.85
Si -4.54  6.34 -4.85
Si  7.85  0.15  4.85
Si -7.85 -0.15 -4.85
Si -8.16  4.33  0.00
Si  8.16 -4.33  0.00
Si  1.86  8.72  2.42
Si -1.86 -8.72 -2.42
Si  3.36 -8.65  0.00
Si -3.36  8.65  0.00
Si  4.39 -6.64 -4.85
Si -4.39  6.64  4.85
Si  8.84  2.09 -2.42
Si -8.84 -2.09  2.42
Si -8.91 -2.24 -2.42
Si  8.91  2.24  2.42
Si -9.26  2.16  0.00
Si  9.26 -2.16  0.00
Si  3.40 -8.57  2.42
Si -3.40  8.57 -2.42
Si -8.20  4.25 -2.42
Si  8.20 -4.25  2.42
Si  8.12 -4.40 -2.42
Si -8.12  4.40  2.42
Si  4.68  4.10 -7.28
Si -4.68 -4.10  7.28
Si  7.06 -6.49  0.00
Si -7.06  6.49  0.00
Si  0.60  6.26 -7.28
Si -0.60 -6.26  7.28
Si  3.33 -8.72 -2.42
Si -3.33  8.72  2.42
Si  0.15  0.30  9.70
Si -0.15 -0.30 -9.70
Si -4.41 -8.65  0.00
Si  4.41  8.65  0.00
Si  7.31  4.17 -4.85
Si -7.31 -4.17  4.85
Si -6.17 -1.94  7.28
Si  6.17  1.94 -7.28
Si -9.22  2.24  2.42
Si  9.22 -2.24 -2.42
Si -1.99  6.26 -7.28
Si  1.99 -6.26  7.28
Si  0.85 -8.50  4.85
Si -0.85  8.50 -4.85
Si -9.30  2.09 -2.42
Si  9.30 -2.09  2.42
Si -7.09  6.41 -2.42
Si  7.09 -6.41  2.42
Si -5.82 -6.34  4.85
Si  5.82  6.34 -4.85
Si -4.91 -4.55 -7.28
Si  4.91  4.55  7.28
Si -7.02  6.56  2.42
Si  7.02 -6.56 -2.42
Si -0.95 -1.86  9.70
Si  0.95  1.86 -9.70
Si  4.37  8.57 -2.42
Si -4.37 -8.57  2.42
Si  0.83  6.71  7.28
Si -0.83 -6.71 -7.28
Si -1.74 -8.50  4.85
Si  1.74  8.50 -4.85
Si -7.46 -4.48 -4.85
Si  7.46  4.48  4.85
Si  6.40  2.39  7.28
Si -6.40 -2.39 -7.28
Si -2.44  0.30  9.70
Si  2.44 -0.30 -9.70
Si -1.64  1.86 -9.70
Si  1.64 -1.86  9.70
Si  1.76 -6.71 -7.28
Si -1.76  6.71  7.28
Si -0.70  8.80  4.85
Si  0.70 -8.80 -4.85
Si -6.56  2.39  7.28
Si  6.56 -2.39 -7.28
Si  2.74  0.30  9.70
Si -2.74 -0.30 -9.70
Si  1.25  2.46  9.70
Si -1.25 -2.46 -9.70
Si -4.45 -8.72 -2.42
Si  4.45  8.72  2.42
Si -1.34  2.46  9.70
Si  1.34 -2.46 -9.70
Si  5.68 -4.10  7.28
Si -5.68  4.10 -7.28
Si  3.19  6.26 -7.28
Si -3.19 -6.26  7.28
Si -6.78  1.94 -7.28
Si  6.78 -1.94  7.28
Si -5.97 -6.64 -4.85
Si  5.97  6.64  4.85
Si -5.46  4.55  7.28
Si  5.46 -4.55 -7.28
Si  1.89  8.80  4.85
Si -1.89 -8.80 -4.85
Si -8.80 -2.01  4.85
Si  8.80  2.01 -4.85
Si 10.36  0.00  0.00
Si -10.36  0.00  0.00
Si  3.44 -8.50  4.85
Si -3.44  8.50 -4.85
Si -8.23  4.17 -4.85
Si  8.23 -4.17  4.85
Si -8.08  4.48  4.85
Si  8.08 -4.48 -4.85
Si -8.95 -2.31 -4.85
Si  8.95  2.31  4.85
Si -3.42 -6.71 -7.28
Si  3.42  6.71  7.28
Si  3.54  1.86 -9.70
Si -3.54 -1.86  9.70
Si  5.96 -8.65  0.00
Si -5.96  8.65  0.00
Si -0.54  4.02 -9.70
Si  0.54 -4.02  9.70
Si  7.66 -0.23 -7.28
Si -7.66  0.23  7.28
Si  3.29 -8.80 -4.85
Si -3.29  8.80  4.85
Si 10.33 -0.08 -2.42
Si -10.33  0.08  2.42
Si  4.58 -6.26  7.28
Si -4.58  6.26 -7.28
Si  9.19 -2.31 -4.85
Si -9.19  2.31  4.85
Si 10.40  0.08  2.42
Si -10.40 -0.08 -2.42
Si  8.49  6.49  0.00
Si -8.49 -6.49  0.00
Si -2.05 -4.02  9.70
Si  2.05  4.02 -9.70
Si -4.33 -8.50  4.85
Si  4.33  8.50 -4.85
Si -7.13  6.34 -4.85
Si  7.13 -6.34  4.85
Si  9.34 -2.01  4.85
Si -9.34  2.01 -4.85
Si -3.84 -2.46 -9.70
Si  3.84  2.46  9.70
Si -7.89 -0.23 -7.28
Si  7.89  0.23  7.28
Si  5.99 -8.57  2.42
Si -5.99  8.57 -2.42
Si -4.23  1.86 -9.70
Si  4.23 -1.86  9.70
Si -0.24  4.63  9.70
Si  0.24 -4.63 -9.70
Si -3.93  2.46  9.70
Si  3.93 -2.46 -9.70
Si  6.98 -6.64 -4.85
Si -6.98  6.64  4.85
Si -4.35  6.71  7.28
Si  4.35 -6.71 -7.28
Si  0.33 10.81  0.00
Si -0.33 -10.81  0.00
Si  5.92 -8.72 -2.42
Si -5.92  8.72  2.42
Si -9.98 -4.33  0.00
Si  9.98  4.33  0.00
Si  8.45  6.41 -2.42
Si -8.45 -6.41  2.42
Si  5.03 -0.30 -9.70
Si -5.03  0.30  9.70
Si  3.13 -4.02  9.70
Si -3.13  4.02 -9.70
Si  2.35  4.63  9.70
Si -2.35 -4.63 -9.70
Si -4.48 -8.80 -4.85
Si  4.48  8.80  4.85
Si  0.29 10.74 -2.42
Si -0.29 -10.74  2.42
Si -8.53 -6.56 -2.42
Si  8.53  6.56  2.42
Si -2.26 10.81  0.00
Si  2.26 -10.81  0.00
Si  5.33  0.30  9.70
Si -5.33 -0.30 -9.70
Si -7.27 -4.10  7.28
Si  7.27  4.10 -7.28
Si  9.94  4.25 -2.42
Si -9.94 -4.25  2.42
Si  2.83 -4.63 -9.70
Si -2.83  4.63  9.70
Si -7.00 -8.65  0.00
Si  7.00  8.65  0.00
Si -0.37 -10.89 -2.42
Si  0.37 10.89  2.42
Si  0.89 -8.42  7.28
Si -0.89  8.42 -7.28
Si -2.92 -10.81  0.00
Si  2.92 10.81  0.00
Si -10.02 -4.40 -2.42
Si 10.02  4.40  2.42
Si  5.79  6.26 -7.28
Si -5.79 -6.26  7.28
Si  2.30 -10.74  2.42
Si -2.30 10.74 -2.42
Si  1.71  8.42 -7.28
Si -1.71 -8.42  7.28
Si -6.96 -8.57  2.42
Si  6.96  8.57 -2.42
Si  2.22 -10.89 -2.42
Si -2.22 10.89  2.42
Si 10.29 -0.15 -4.85
Si -10.29  0.15  4.85
Si -2.88 -10.74  2.42
Si  2.88 10.74 -2.42
Si  7.50  4.55  7.28
Si -7.50 -4.55 -7.28
Si  7.04  8.72  2.42
Si -7.04 -8.72 -2.42
Si -4.64 -4.02  9.70
Si  4.64  4.02 -9.70
Si -6.03  8.50 -4.85
Si  6.03 -8.50  4.85
Si -0.66  8.88  7.28
Si  0.66 -8.88 -7.28
Si -10.44 -0.15 -4.85
Si 10.44  0.15  4.85
Si -0.56 -6.18  9.70
Si  0.56  6.18 -9.70
Si -2.96 -10.89 -2.42
Si  2.96 10.89  2.42
Si -8.76 -1.94  7.28
Si  8.76  1.94 -7.28
Si  6.01  6.71  7.28
Si -6.01 -6.71 -7.28
Si 10.75 -4.33  0.00
Si -10.75  4.33  0.00
Si  8.41  6.34 -4.85
Si -8.41 -6.34  4.85
Si -6.13 -1.86  9.70
Si  6.13  1.86 -9.70
Si -9.65  6.49  0.00
Si  9.65 -6.49  0.00
Si  1.93  8.88  7.28
Si -1.93 -8.88 -7.28
Si -5.88  8.80  4.85
Si  5.88 -8.80 -4.85
Si  3.48 -8.42  7.28
Si -3.48  8.42 -7.28
Si 11.47  2.16  0.00
Si -11.47 -2.16  0.00
Si  2.03 -6.18  9.70
Si -2.03  6.18 -9.70
Si  0.25 10.66 -4.85
Si -0.25 -10.66  4.85
Si -8.27  4.10 -7.28
Si  8.27 -4.10  7.28
Si -8.05  4.55  7.28
Si  8.05 -4.55 -7.28
Si -9.90 -4.17  4.85
Si  9.90  4.17 -4.85
Si -8.99 -2.39 -7.28
Si  8.99  2.39  7.28
Si  4.95  4.63  9.70
