500
set: 897.00  0.00  0.00
Si -0.43  1.18 -0.81
Si  0.43 -1.20  0.83
Si  1.34  1.18  0.81
Si -1.33 -1.19 -0.82
Si  2.17 -1.18 -0.81
Si  0.86  0.03 -2.46
Si -2.19  1.21  0.81
Si -0.89  0.01  2.48
Si -3.10 -1.18  0.81
Si  3.11  1.19 -0.81
Si  0.05  2.39  2.47
Si -0.04 -2.39 -2.47
Si  2.62 -0.01  2.44
Si -2.63  0.00 -2.44
Si  0.47  3.56 -0.83
Si -0.48 -3.59  0.84
Si -1.78 -2.33  2.46
Si  1.73 -2.40  2.46
Si  1.25 -3.55 -0.81
Si -1.26  3.54  0.84
Si -1.76  2.38 -2.47
Si  1.79  2.38 -2.46
Si  0.91 -0.00  4.10
Si -0.88  0.01 -4.12
Si  3.96 -1.20  0.83
Si -3.96  1.21 -0.82
Si  2.27  3.52  0.84
Si -2.27 -3.55 -0.83
Si -3.05  3.54 -0.83
Si  3.07 -3.54  0.81
Si  0.00 -2.39  4.12
Si  0.03  2.35 -4.14
Si -3.49  2.37  2.44
Si -2.63 -0.02  4.11
Si  3.49 -2.35 -2.46
Si  2.64 -0.01 -4.13
Si  3.54  2.38  2.48
Si -3.57 -2.38 -2.45
Si -4.40  0.03  2.47
Si  1.76  2.36  4.10
Si  4.41  0.01 -2.47
Si  1.75 -2.37 -4.11
Si -4.86 -1.19 -0.81
Si -1.79 -2.36 -4.12
Si -1.72  2.38  4.15
Si  4.87  1.21  0.82
Si -0.83  4.73 -2.45
Si  0.80 -4.73  2.48
Si  3.99  3.56 -0.81
Si -0.95 -4.73 -2.46
Si -4.00 -3.56  0.84
Si  0.96  4.78  2.46
Si -0.42  1.19  5.75
Si -5.71  1.21  0.82
Si  5.72 -1.19 -0.81
Si -3.53  2.35 -4.12
Si  3.53 -2.38  4.10
Si  0.39 -1.19 -5.78
Si -3.54 -2.37  4.13
Si  3.55  2.36 -4.15
Si  2.59 -4.76 -2.48
Si -2.58  4.77  2.49
Si -2.69 -4.72  2.47
Si  2.70  4.72 -2.47
Si  0.37 -5.92 -0.81
Si -0.36  5.93  0.81
Si -1.34 -1.20  5.73
Si  4.39 -0.01  4.11
Si -4.77  3.57  0.81
Si  1.37  1.17 -5.75
Si  4.79 -3.57 -0.83
Si -4.42 -0.01 -4.11
Si  1.41  5.92 -0.82
Si -1.40 -5.93  0.81
Si  2.18 -1.20  5.72
Si -2.17  1.18 -5.74
Si -5.25  2.35 -2.48
Si  5.26 -2.34  2.49
Si  2.13 -5.90  0.82
Si -5.33 -2.34  2.49
Si  5.33  2.35 -2.48
Si -2.12  5.92 -0.81
Si -0.80  4.74  4.13
Si -0.98 -4.75  4.10
Si  0.95  4.75 -4.12
Si  0.81 -4.75 -4.15
Si -3.09 -1.18 -5.72
Si -6.17  0.01 -2.47
Si  6.18  0.03  2.47
Si  3.12  1.18  5.76
Si  3.18  5.91  0.83
Si -3.17 -5.93 -0.81
Si  6.62  1.21 -0.82
Si -6.62 -1.20  0.83
Si  0.49  3.56  5.75
Si  2.60 -4.75  4.10
Si -0.46 -3.56 -5.77
Si -2.60  4.76 -4.11
Si  2.74  4.72  4.12
Si -5.79 -3.57 -0.83
Si -2.71 -4.75 -4.14
Si  5.81  3.57  0.81
Si  1.27 -3.56  5.74
Si -1.26  3.53 -5.77
Si  4.35 -4.74  2.44
Si -4.35  4.75 -2.46
Si  4.47  4.71  2.46
Si -4.50 -4.72 -2.47
Si  5.24 -2.34 -4.11
Si -5.25  2.36  4.10
Si  3.96 -1.20 -5.77
Si  3.88 -5.89 -0.82
Si -3.97  1.21  5.76
Si -3.88  5.91  0.83
Si -2.25 -3.55  5.75
Si  5.34  2.36  4.10
Si -5.34 -2.34 -4.11
Si  2.28  3.55 -5.77
Si  6.16 -0.01 -4.11
Si -3.05  3.54  5.76
Si  3.02 -3.56 -5.77
Si -6.19 -0.01  4.11
Si  0.42 -1.18  7.41
Si  0.11  7.11 -2.44
Si -0.41  1.22 -7.41
Si -0.12 -7.12  2.44
Si  6.58 -3.56  0.84
Si -6.59  3.56 -0.81
Si -4.32  4.73  4.10
Si -7.47  1.19 -0.81
Si -1.32 -1.17 -7.40
Si  1.33  1.16  7.40
Si  7.48 -1.18  0.81
Si  4.31 -4.76 -4.12
Si -4.90 -1.21  5.76
Si  4.90  1.17 -5.77
Si  1.67 -7.10 -2.47
Si  4.49  4.73 -4.11
Si -4.46 -4.73  4.15
Si -1.88 -7.08 -2.46
Si -1.66  7.13  2.47
Si -4.93 -5.90  0.81
Si  4.91  5.93 -0.81
Si  1.85  7.11  2.48
Si  2.17 -1.18 -7.39
Si  7.01 -2.38 -2.45
Si -2.20  1.17  7.42
Si -7.04  2.38  2.48
Si  4.01  3.54  5.74
Si  7.09  2.37  2.44
Si -7.09 -2.35 -2.46
Si -4.00 -3.57 -5.77
Si  6.08 -4.72 -2.47
Si -6.11  4.71  2.46
Si  3.10  1.16 -7.42
Si -3.13 -1.17  7.41
Si  5.68 -1.21  5.76
Si -5.68  1.17 -5.77
Si  0.11  7.09  4.11
Si -6.23 -4.74  2.44
Si  5.65 -5.90  0.81
Si  6.23  4.75 -2.46
Si  0.48  3.56 -7.39
Si -0.51 -3.53  7.42
Si -0.10 -7.12 -4.13
Si -5.67  5.93 -0.81
Si  3.44 -7.08  2.47
Si -0.35  5.93 -5.72
Si -3.43  7.11 -2.47
Si  0.38 -5.93  5.76
Si  4.79 -3.57  5.76
Si -4.82  3.54 -5.77
Si  7.95  0.00 -2.44
Si -7.96 -0.01  2.44
Si -1.26  3.56  7.43
Si  1.25 -3.57 -7.43
Si -0.57 -8.28 -0.81
Si -7.51 -3.54  0.81
Si  1.40  5.91  5.73
Si -3.63 -7.10  2.48
Si  3.61  7.13 -2.46
Si -1.68  7.09 -4.11
Si  7.54  3.54 -0.83
Si  0.55  8.32  0.81
Si  1.65 -7.12  4.11
Si -1.37 -5.94 -5.75
Si -1.83 -7.11  4.10
Si  1.86  7.11 -4.12
Si  1.22 -8.30  0.83
Si -1.22  8.32 -0.82
Si -3.95  1.21 -7.38
Si  3.96 -1.21  7.40
Si  7.05  2.35 -4.12
Si -7.03  2.36 -4.15
Si -7.06 -2.38  4.10
Si -2.26 -3.55 -7.39
Si  7.04 -2.37  4.13
Si  8.39  1.21  0.81
Si -2.16  5.90  5.76
Si -8.41 -1.18 -0.81
Si  2.23  3.58  7.42
Si  2.15 -5.93 -5.77
Si  2.31  8.28 -0.81
Si -2.31 -8.31  0.83
Si -6.09  4.73 -4.11
Si  3.04 -3.55  7.40
Si -3.03  3.58 -7.40
Si  6.12 -4.73  4.15
Si -3.17 -5.91  5.75
Si  3.13  5.91 -5.78
Si  6.61  1.21  5.76
Si  2.98 -8.30 -0.81
Si  6.27  4.73  4.10
Si -6.62 -1.20 -5.77
Si -2.97  8.31  0.82
Si -6.27 -4.76 -4.12
Si  5.76  3.54 -5.77
Si -3.45  7.09  4.11
Si  3.42 -7.12 -4.11
Si -5.79 -3.57  5.76
Si  4.86  1.20  7.41
Si  7.95 -0.02  4.11
Si -7.94 -0.01 -4.13
Si -4.86 -1.19 -7.43
Si -6.71 -5.89 -0.82
Si -3.62 -7.10 -4.12
Si  6.70  5.91  0.83
Si  3.65  7.10  4.10
Si -8.32  3.52  0.84
Si  8.31 -3.55 -0.83
Si  0.89 -0.04 -9.04
Si -0.90  0.00  9.05
Si  3.87 -5.89  5.76
Si -3.88  5.91 -5.77
Si -5.22  7.09  2.44
Si  5.21 -7.10 -2.44
Si  3.99  3.54 -7.43
Si -4.00 -3.55  7.43
Si  5.36  7.09  2.44
Si -5.37 -7.10 -2.44
Si  4.08  8.29  0.81
Si -4.07 -8.29 -0.82
Si -9.24  1.18  0.81
Si  0.04  2.37  9.05
Si  9.25 -1.19 -0.82
Si -0.03 -2.37 -9.06
Si -2.63 -0.01 -9.03
Si -6.57  3.54  5.74
Si  8.80 -2.33  2.46
Si -8.79  2.38 -2.46
Si  2.62  0.00  9.06
Si -5.72  1.20  7.41
Si  6.58 -3.57 -5.77
Si  5.72 -1.19 -7.43
Si  8.82  2.38 -2.47
Si -8.85 -2.40  2.46
Si -0.39  5.93  7.41
Si  7.49 -1.18 -5.72
Si -7.46  1.18  5.76
Si  4.81 -3.52 -7.40
Si -7.41  5.91  0.83
Si  1.80  2.35 -9.04
Si -7.89  4.72 -2.47
Si -4.80  3.56  7.40
Si  0.36 -5.95 -7.42
Si  7.89 -4.72  2.47
Si  1.74 -2.37  9.06
Si -1.73  2.38 -9.06
Si  7.42 -5.93 -0.81
Si -1.80 -2.38  9.07
Si  4.74 -8.29  0.81
Si -4.73  8.29 -0.81
Si  4.92  5.91  5.72
Si -4.91 -5.92 -5.74
Si  1.42  5.94 -7.40
Si -1.42 -5.94  7.40
Si -7.99 -4.76 -2.48
Si  8.00  4.77  2.49
Si  2.12 -5.91  7.41
Si -5.20  7.09 -4.13
Si  5.21 -7.13  4.11
Si -2.12  5.92 -7.43
Si  0.75 -9.46 -2.46
Si -0.75  9.47  2.44
Si  5.38  7.09 -4.13
Si -5.37 -7.13  4.11
Si  0.98  9.49 -2.47
Si -1.01 -9.50  2.46
Si -3.15 -5.88 -7.41
Si  3.50 -2.34 -9.05
Si -5.66  5.91  5.72
Si  8.79 -2.36 -4.12
Si -3.49  2.36  9.06
Si  6.63  1.21 -7.38
Si  3.16  5.93  7.41
Si -6.62 -1.21  7.40
Si  9.69  0.01  2.48
Si -8.82  2.36  4.10
Si  9.32  3.54  0.84
Si  5.67 -5.92 -5.74
Si -3.56 -2.34 -9.06
Si  3.54  2.38  9.06
Si -9.34 -3.55 -0.81
Si -9.72  0.03 -2.46
Si -5.77 -3.52 -7.40
Si -8.84 -2.37 -4.11
Si -7.84  4.72  4.12
Si  5.78  3.56  7.40
Si -4.42 -0.01  9.04
Si  8.86  2.38  4.15
Si  7.87 -4.75 -4.14
Si  2.52 -9.45  2.49
Si  4.44  0.01 -9.06
Si -2.51  9.45 -2.48
Si -0.56 -8.30  5.72
Si  0.57  8.29 -5.74
Si  7.53  3.54  5.76
Si -7.99 -4.75  4.10
Si -7.56 -3.56 -5.77
Si  7.98  4.76 -4.11
Si -5.84 -8.29  0.81
Si  1.22 -8.30 -5.77
Si  5.86  8.29 -0.81
Si -1.23  8.32  5.76
Si  2.79  9.49  2.47
Si -2.79 -9.50 -2.47
Si  3.89 -5.89 -7.38
Si -3.88  5.90  7.40
Si -8.40 -1.20  5.72
Si  6.95 -7.10  2.48
Si  0.80 -4.73  9.06
Si -10.15 -1.20  0.83
Si  8.41  1.18 -5.74
Si -0.94 -4.75 -9.04
Si 10.16  1.18 -0.81
Si -0.82  4.76 -9.06
Si  0.94  4.73  9.07
Si -6.98  7.13 -2.46
Si -0.79  9.45 -4.12
Si -8.45 -5.90  0.82
Si -7.14 -7.08  2.47
Si  8.47  5.92 -0.81
Si  2.32  8.30  5.75
Si  0.79 -9.49  4.10
Si -0.99 -9.48 -4.11
Si -2.35 -8.30 -5.78
Si  7.15  7.11 -2.47
Si  1.02  9.48  4.15
Si -9.67 -0.00  4.10
Si -2.94  8.28 -5.77
Si  2.94 -8.31  5.76
Si  2.59 -4.75 -9.04
Si -6.59  3.54 -7.43
Si  6.58 -3.55  7.43
Si  9.71  0.01 -4.12
Si -2.59  4.76  9.05
Si -6.50  8.29  0.81
Si -2.70 -4.74  9.05
Si  7.45 -1.17  7.41
Si  6.51 -8.29 -0.82
Si  2.71  4.73 -9.06
Si -7.48  1.16 -7.42
Si  2.50 -9.45 -4.11
Si -2.50  9.46  4.10
Si -6.71 -5.89  5.76
Si  6.71  5.91 -5.77
Si  4.92  5.93 -7.39
Si  0.33 -10.64  0.81
Si -0.30 10.65 -0.83
Si  4.27 -9.49 -2.45
Si  2.77  9.46 -4.14
Si -4.30  9.48  2.48
Si -2.74 -9.49  4.12
Si -4.94 -5.93  7.42
Si -8.30  3.55 -5.77
Si -5.25  2.36 -9.04
Si  5.25 -2.34  9.05
Si  8.34 -3.55  5.75
Si -0.90  0.00 -10.70
Si -6.93  7.10  4.10
Si  0.89 -0.04 10.71
Si -10.11  3.56 -0.83
Si -4.52 -9.44  2.46
Si 10.11 -3.59  0.84
Si  5.33  2.36 -9.04
Si -5.33 -2.34  9.05
Si  6.96 -7.10 -4.12
Si  1.48 10.65  0.84
Si -1.50 -10.66 -0.81
Si  4.53  9.48 -2.46
Si  7.13  7.09  4.11
Si  4.11  8.27 -5.75
Si -4.08 -8.30  5.73
Si -2.03 10.67  0.81
Si  2.05 -10.67 -0.83
Si -7.16 -7.12 -4.11
Si -9.21  1.17 -5.75
Si  9.24 -1.20  5.73
Si  6.17 -0.01  9.04
Si -0.03 -2.37 10.68
Si -6.14  0.01 -9.06
Si -9.17  5.92 -0.82
Si  9.18 -5.93  0.81
Si  0.04  2.37 -10.70
Si  2.62  0.00 -10.68
Si  9.63 -4.73 -2.46
Si -9.62  4.78  2.46
Si -2.63 -0.01 10.71
Si -5.67  5.93 -7.39
Si  5.64 -5.93  7.42
Si -10.53  2.39  2.47
Si -1.73  2.38 10.68
Si  1.74 -2.37 -10.68
Si 10.54 -2.39 -2.47
Si -1.80 -2.38 -10.68
Si  7.42 -5.91  5.75
Si -11.01  1.18 -0.81
Si -4.34  4.76 -9.05
Si  1.80  2.35 10.71
Si  9.75  4.73 -2.45
Si 11.02 -1.20  0.83
Si  4.35 -4.74  9.06
Si -0.57 -8.28 -7.39
Si -7.45  5.91 -5.78
Si  0.54  8.28  7.42
Si  4.75 -8.28 -5.72
Si -9.78 -4.73  2.48
Si -4.72  8.29  5.76
Si -7.54 -3.55  7.40
Si -4.47 -4.73 -9.06
Si  7.55  3.58 -7.40
Si  3.21 10.66 -0.83
Si  4.48  4.74  9.06
Si -10.63 -2.39 -2.47
Si 10.63  2.39  2.47
Si -4.29  9.46 -4.15
Si -1.21  8.32 -7.38
Si  1.22 -8.31  7.40
Si  4.30 -9.47  4.13
Si -3.22 -10.70  0.84
Si  4.50  9.47  4.10
Si  8.38  1.17  7.42
Si -8.41 -1.18 -7.39
Si -4.54 -9.47 -4.12
Si -7.60 -8.30 -0.81
Si  7.61  8.31  0.82
Si -2.32 -8.28  7.41
Si -3.85 10.66 -0.81
Si  3.84 -10.67  0.84
Si  2.33  8.33 -7.41
Si  9.60 -4.75  4.10
Si  6.06 -9.44  2.46
Si -3.49  2.36 -10.68
Si  0.11  7.10 -9.03
Si  8.71 -7.08 -2.46
Si  3.50 -2.34 10.70
Si -9.63  4.75 -4.12
Si -9.31 -3.56  5.74
Si  3.54  2.38 -10.69
Si -3.56 -2.34 10.69
Si  9.32  3.53 -5.77
Si -6.05  9.48 -2.46
Si -0.12 -7.10  9.06
Si -2.98  8.31  7.41
Si  2.98 -8.29 -7.43
Si -8.73  7.11  2.48
Si  4.44  0.01 10.69
Si -6.70 -5.89 -7.38
Si -10.55  2.35 -4.14
Si -4.42 -0.01 -10.71
Si  6.70  5.90  7.40
Si -10.58 -2.39  4.12
Si 10.58 -2.39  4.12
Si -1.68  7.09  9.04
Si  1.70 -7.09 -9.06
Si 10.61  2.35 -4.14
Si  9.79  4.74  4.13
Si -9.77 -4.75 -4.15
Si -5.83 -8.28 -5.72
Si 11.05  3.56 -0.83
Si  6.29  9.48  2.48
Si  1.84  7.11  9.05
Si -6.31 -9.49 -2.45
Si -11.06 -3.59  0.84
Si -8.91 -7.10 -2.47
Si -1.85 -7.14 -9.04
Si  5.86  8.29  5.76
Si  8.32 -3.55 -7.39
Si  8.92  7.13  2.47
Si  7.02 -2.34 -9.06
Si 11.45  0.03 -2.46
Si  0.80 -4.73 -10.69
Si  0.94  4.73 -10.68
Si -7.04  2.38  9.06
Si -8.35  3.58  7.42
Si -7.08 -2.34 -9.05
Si -8.27  8.28 -0.81
Si -0.82  4.76 10.69
Si 10.16  1.19  5.75
Si -11.47  0.01  2.48
