500
set: 869.00  0.00  0.00
Si  0.43 -1.19  0.85
Si -0.44  1.25 -0.83
Si -1.37 -1.20 -0.84
Si  1.38  1.22  0.83
Si  0.89 -0.00 -2.51
Si  2.22 -1.22 -0.84
Si -0.91 -0.00  2.51
Si -2.25  1.22  0.87
Si  0.04  2.41  2.49
Si  3.14  1.19 -0.84
Si -3.16 -1.22  0.83
Si -0.04 -2.43 -2.52
Si -2.68 -0.01 -2.51
Si  2.68  0.02  2.52
Si  0.52  3.63 -0.82
Si -0.49 -3.64  0.84
Si -1.74  2.44 -2.48
Si  1.76 -2.43  2.51
Si -1.27  3.62  0.85
Si  1.87  2.42 -2.50
Si -1.86 -2.42  2.52
Si  1.28 -3.66 -0.84
Si -0.88  0.01 -4.19
Si -4.02  1.20 -0.86
Si  0.91  0.00  4.20
Si  4.05 -1.24  0.82
Si -2.30 -3.65 -0.82
Si  2.33  3.64  0.84
Si  3.04 -3.67  0.81
Si  0.04  2.42 -4.21
Si -3.10  3.65 -0.84
Si -0.04 -2.45  4.21
Si  3.55 -2.38 -2.51
Si  2.68 -0.02 -4.18
Si -2.71  0.01  4.19
Si -3.56  2.47  2.52
Si  3.66  2.42  2.51
Si -3.65 -2.44 -2.53
Si  1.74 -2.42 -4.15
Si -4.50 -0.04  2.51
Si -1.75  2.45  4.19
Si  4.49 -0.00 -2.54
Si -4.95 -1.21 -0.88
Si -1.86 -2.41 -4.18
Si  1.85  2.42  4.18
Si  4.99  1.20  0.84
Si -0.83  4.83 -2.53
Si  0.83 -4.86  2.51
Si  4.11  3.62 -0.84
Si -0.96 -4.86 -2.50
Si -4.09 -3.66  0.85
Si  0.96  4.86  2.52
Si  3.55 -2.42  4.14
Si -5.80  1.20  0.84
Si -3.56  2.43 -4.17
Si  0.44 -1.22 -5.87
Si -0.45  1.23  5.88
Si  5.84 -1.21 -0.88
Si  2.60 -4.84 -2.50
Si -3.61 -2.42  4.20
Si  3.63  2.42 -4.19
Si -2.62  4.83  2.53
Si -4.47 -0.02 -4.17
Si  4.86 -3.63 -0.84
Si  1.37  1.19 -5.85
Si -0.34  6.06  0.83
Si -1.37 -1.22  5.85
Si  2.78  4.85 -2.52
Si -2.78 -4.87  2.49
Si  4.49 -0.01  4.19
Si  0.31 -6.09 -0.84
Si -4.92  3.61  0.81
Si -1.45 -6.06  0.83
Si  1.46  6.08 -0.84
Si -2.20  1.22 -5.86
Si  2.22 -1.22  5.87
Si  5.34 -2.45  2.53
Si -5.37  2.44 -2.50
Si  5.42  2.44 -2.50
Si  0.81 -4.86 -4.19
Si -0.79  4.86  4.20
Si -5.45 -2.45  2.53
Si  0.96  4.87 -4.18
Si -0.98 -4.86  4.18
Si -2.12  6.07 -0.88
Si  2.16 -6.08  0.84
Si -3.16 -1.19 -5.87
Si  6.29 -0.04  2.51
Si -6.29 -0.00 -2.54
Si  3.15  1.22  5.90
Si -6.73 -1.24  0.82
Si -3.27 -6.02 -0.83
Si  2.63 -4.84  4.17
Si -0.51 -3.64 -5.86
Si  6.77  1.20 -0.86
Si  0.53  3.65  5.87
Si  5.87  3.61  0.81
Si -2.62  4.87 -4.19
Si  3.26  6.09  0.85
Si  2.78  4.83  4.21
Si  4.41 -4.81  2.52
Si -5.93 -3.63 -0.84
Si -2.79 -4.86 -4.21
Si -1.30  3.65 -5.87
Si  1.26 -3.66  5.88
Si -4.41  4.90 -2.51
Si -4.56 -4.84 -2.48
Si  4.59  4.85  2.51
Si -5.33  2.44  4.17
Si  5.34 -2.41 -4.19
Si -4.03  1.23  5.86
Si  4.04 -1.20 -5.88
Si -3.91  6.04  0.82
Si -2.29 -3.63  5.87
Si  2.32  3.64 -5.86
Si -5.45 -2.41 -4.19
Si  5.46  2.44  4.17
Si  3.94 -6.08 -0.86
Si -3.06  3.62  5.88
Si -6.29 -0.01  4.19
Si  3.08 -3.65 -5.86
Si  6.32 -0.02 -4.17
Si -6.68  3.62 -0.84
Si -0.45  1.22 -7.54
Si  0.45 -1.22  7.55
Si  6.70 -3.66  0.85
Si -0.14 -7.26  2.52
Si  0.15  7.27 -2.51
Si -4.41  4.86  4.14
Si  1.37  1.21  7.54
Si  4.40 -4.85 -4.17
Si  7.62 -1.22  0.83
Si -7.65  1.19 -0.84
Si -1.37 -1.23 -7.57
Si -4.97 -1.21  5.89
Si  4.97  1.22 -5.91
Si -1.67  7.24  2.51
Si  4.57  4.86 -4.15
Si -4.58 -4.83  4.19
Si  1.67 -7.28 -2.54
Si  5.04  6.06 -0.84
Si  1.92  7.28  2.51
Si -7.13  2.42  2.51
Si -2.24  1.20  7.52
Si -1.94 -7.28 -2.51
Si -5.07 -6.06  0.87
Si  7.13 -2.44 -2.53
Si  2.24 -1.22 -7.55
Si  4.09  3.62  5.88
Si -7.24 -2.38 -2.51
Si -4.13 -3.63 -5.87
Si  7.23  2.47  2.52
Si -6.20  4.85  2.51
Si  6.22 -4.84 -2.48
Si  3.17  1.21 -7.54
Si -3.15 -1.20  7.57
Si  5.82 -1.21  5.89
Si  5.71 -6.06  0.87
Si -6.38 -4.81  2.52
Si -5.82  1.22 -5.91
Si -5.75  6.06 -0.84
Si  0.50  3.64 -7.55
Si -0.53 -3.64  7.55
Si -0.15 -7.30 -4.18
Si  0.11  7.29  4.19
Si  6.38  4.90 -2.51
Si -4.88  3.63 -5.86
Si -3.47  7.28 -2.54
Si  1.27 -3.62 -7.54
Si -0.34  6.09 -5.87
Si  0.33 -6.06  5.90
Si -1.27  3.63  7.55
Si  3.46 -7.32  2.51
Si  8.11 -0.01 -2.51
Si -8.11  0.02  2.52
Si  4.91 -3.66  5.88
Si -1.64  7.26 -4.17
Si  3.71  7.28 -2.51
Si  1.46  6.06  5.85
Si  7.68  3.65 -0.84
Si -3.73 -7.28  2.51
Si  0.58  8.50  0.87
Si -0.61 -8.50 -0.84
Si -1.46 -6.09 -5.85
Si  1.67 -7.29  4.19
Si -7.75 -3.67  0.81
Si -1.19  8.48 -0.86
Si -1.92 -7.28  4.20
Si -4.03  1.19 -7.53
Si  1.95  7.29 -4.19
Si -7.15  2.42 -4.19
Si  4.01 -1.20  7.55
Si  1.23 -8.52  0.82
Si  7.17 -2.42  4.20
Si  8.54  1.22  0.87
Si -7.23 -2.42  4.14
Si  2.30  3.64  7.55
Si  7.23  2.43 -4.17
Si -2.32 -3.64 -7.55
Si -8.57 -1.22 -0.84
Si -2.15  6.07  5.89
Si  2.14 -6.06 -5.91
Si -2.39 -8.46  0.85
Si  3.08 -3.64  7.51
Si  2.39  8.53 -0.83
Si -3.08  3.60 -7.54
Si  6.21 -4.83  4.19
Si -6.22  4.86 -4.15
Si -2.97  8.48  0.84
Si  6.38  4.86  4.14
Si  6.75  1.23  5.86
Si -6.74 -1.20 -5.88
Si -6.38 -4.85 -4.17
Si  3.26  6.06 -5.87
Si  3.02 -8.48 -0.88
Si -3.28 -6.05  5.88
Si -3.47  7.27  4.19
Si  5.91  3.63 -5.86
Si -5.88 -3.66  5.88
Si  8.07  0.01  4.19
Si  3.49 -7.30 -4.17
Si -4.97 -1.17 -7.54
Si  4.96  1.26  7.55
Si -8.11 -0.02 -4.18
Si -3.71 -7.26 -4.19
Si -6.84 -6.08 -0.86
Si  6.88  6.04  0.82
Si  3.73  7.28  4.20
Si -8.46  3.64  0.84
Si  0.92  0.00 -9.21
Si  8.48 -3.65 -0.82
Si -0.89 -0.01  9.24
Si  3.93 -6.05  5.86
Si  4.09  3.66 -7.54
Si -3.92  6.08 -5.88
Si -4.09 -3.65  7.55
Si  5.28 -7.29 -2.51
Si -5.28  7.30  2.52
Si -5.51 -7.29 -2.51
Si  5.51  7.30  2.52
Si -4.20 -8.48 -0.84
Si  4.20  8.50  0.83
Si -9.41  1.22  0.83
Si  0.04  2.44  9.21
Si  9.42 -1.20 -0.84
Si -0.04 -2.42 -9.22
Si -8.92  2.42 -2.50
Si  8.93 -2.42  2.52
Si  6.66 -3.63 -5.87
Si -2.68 -0.02 -9.21
Si  5.82 -1.17 -7.54
Si  2.69 -0.02  9.21
Si -5.83  1.26  7.55
Si -6.70  3.62  5.88
Si -4.88  3.64  7.51
Si  7.52 -6.02 -0.83
Si -9.03 -2.43  2.51
Si  1.73 -2.45  9.21
Si  0.35 -6.07 -7.54
Si  7.62 -1.19 -5.87
Si -8.01  4.85 -2.52
Si  8.00 -4.87  2.49
Si  9.05  2.44 -2.48
Si -1.75  2.42 -9.23
Si  1.85  2.45 -9.21
Si  4.88 -3.68 -7.54
Si -1.85 -2.38  9.23
Si -0.32  6.08  7.57
Si -7.53  6.09  0.85
Si -7.63  1.22  5.90
Si -4.82  8.47 -0.84
Si -1.46 -6.07  7.54
Si  4.80 -8.50  0.83
Si  1.46  6.05 -7.57
Si -5.03 -6.05 -5.86
Si  8.17  4.83  2.53
Si  5.05  6.05  5.87
Si -8.19 -4.84 -2.50
Si  2.14 -6.02  7.55
Si  5.25 -7.26  4.19
Si -5.29  7.26 -4.18
Si -2.14  6.11 -7.54
Si  0.72 -9.66 -2.51
Si  5.50  7.26 -4.18
Si -5.54 -7.26  4.19
Si  1.09  9.71 -2.48
Si -1.06 -9.71  2.51
Si -0.73  9.75  2.52
Si -3.53  2.43  9.18
Si  8.92 -2.41 -4.18
Si -8.94  2.42  4.18
Si  3.58 -2.44 -9.21
Si -3.66 -2.42 -9.19
Si  6.75  1.19 -7.53
Si  9.88 -0.00  2.51
Si  3.63  2.42  9.22
Si -5.74  6.05  5.87
Si  5.76 -6.05 -5.86
Si -3.27 -6.05 -7.54
Si -9.90 -0.00 -2.51
Si -6.78 -1.20  7.55
Si  9.52  3.62  0.85
Si -9.51 -3.66 -0.84
Si  3.28  6.06  7.55
Si  5.91  3.64  7.51
Si -9.05 -2.42 -4.15
Si -8.00  4.83  4.21
Si  9.04  2.45  4.19
Si  4.45 -0.03 -9.25
Si  8.00 -4.86 -4.21
Si -5.91 -3.68 -7.54
Si -4.51  0.01  9.22
Si  0.63  8.50 -5.86
Si -0.60 -8.50  5.87
Si -2.54  9.72 -2.50
Si -7.71 -3.65 -5.86
Si  2.51 -9.72  2.53
Si -8.16 -4.84  4.17
Si  7.73  3.62  5.88
Si  1.22 -8.47 -5.88
Si  8.17  4.87 -4.19
Si  5.97  8.47 -0.84
Si -1.21  8.51  5.86
Si  2.87  9.69  2.49
Si -0.83  4.86 -9.19
Si -5.99 -8.50  0.83
Si -2.87 -9.71 -2.52
Si -0.98 -4.83 -9.21
Si  7.05 -7.28  2.51
Si  3.93 -6.08 -7.53
Si  0.80 -4.86  9.22
Si -7.07  7.28 -2.51
Si -8.57 -1.22  5.87
Si -10.35 -1.19  0.85
Si 10.35  1.25 -0.83
Si  8.59  1.22 -5.86
Si -3.95  6.08  7.55
Si  0.97  4.89  9.23
Si  0.73 -9.70  4.14
Si -8.62 -6.08  0.84
Si -0.73  9.71 -4.17
Si -2.39 -8.50 -5.87
Si -1.09 -9.70 -4.15
Si  2.37  8.51  5.88
Si  8.67  6.07 -0.88
Si  7.32  7.28 -2.54
Si  1.07  9.73  4.19
Si -7.32 -7.32  2.51
Si -2.60  4.84  9.19
Si -6.69  3.66 -7.54
Si  6.69 -3.65  7.55
Si -9.88  0.00  4.20
Si  2.99 -8.49  5.89
Si  9.91  0.01 -4.19
Si -2.78 -4.84  9.21
Si -2.99  8.49 -5.91
Si  6.59 -8.48 -0.84
Si  2.64 -4.88 -9.24
Si -6.58  8.50  0.83
Si -7.61  1.21 -7.54
Si  2.79  4.86 -9.22
Si  7.64 -1.20  7.57
Si  2.52 -9.69 -4.19
Si -6.86 -6.05  5.86
Si -2.50  9.72  4.17
Si  6.87  6.08 -5.88
Si -4.30  9.70  2.51
Si -0.89 -0.01 -10.88
Si  5.36 -2.44  9.19
Si -10.27  3.63 -0.82
Si -8.47  3.64 -5.86
Si -5.07 -6.08  7.52
Si  5.07  6.06 -7.55
Si -5.32  2.40 -9.24
Si  4.31 -9.72 -2.53
Si  0.92  0.00 10.90
Si  8.49 -3.63  5.87
Si 10.29 -3.64  0.84
Si -5.43 -2.44  9.19
Si  2.87  9.70 -4.21
Si -0.28 10.93 -0.84
Si -7.05  7.28  4.20
Si  7.08 -7.26 -4.19
Si  0.21 -10.95  0.81
Si -2.87 -9.73  4.21
Si  5.47  2.40 -9.24
Si  1.56 10.90  0.85
Si -4.69 -9.70  2.52
Si  4.69  9.70 -2.50
Si -1.54 -10.94 -0.84
Si  4.20  8.47 -5.85
Si -2.10 10.89  0.81
Si  2.03 -10.90 -0.84
Si -7.29 -7.30 -4.17
Si  7.32  7.27  4.19
Si -4.20 -8.50  5.85
Si -9.42  1.19 -5.85
Si  9.42 -1.22  5.85
Si  6.27  0.01  9.22
Si -0.04 -2.42 10.89
Si  9.34 -6.06  0.83
Si -9.33  6.08 -0.84
Si  0.04  2.44 -10.90
Si -6.33 -0.03 -9.25
Si  2.69 -0.02 -10.90
Si -2.68 -0.02 10.90
Si  5.72 -6.08  7.52
Si -5.72  6.06 -7.55
Si -9.82  4.86  2.52
Si  9.83 -4.86 -2.50
Si  4.43 -4.84  9.18
Si -1.75  2.42 10.88
Si -10.74  2.41  2.49
Si -4.38  4.84 -9.21
Si  7.51 -6.05  5.88
Si -1.85 -2.38 -10.88
Si 10.74 -2.43 -2.52
Si -7.53  6.06 -5.87
Si  1.73 -2.45 -10.90
Si 11.22 -1.19  0.85
Si -11.23  1.25 -0.83
Si  1.85  2.45 10.90
Si  0.58  8.47  7.52
Si  4.55  4.83  9.21
Si  9.96  4.83 -2.53
Si -9.96 -4.86  2.51
Si -7.71 -3.64  7.51
Si  4.80 -8.47 -5.87
Si  7.70  3.60 -7.54
Si 10.83  2.41  2.49
Si -10.83 -2.43 -2.52
Si -0.58 -8.50 -7.55
Si -4.58 -4.86 -9.23
Si -1.21  8.47 -7.53
Si -4.81  8.50  5.90
Si -4.33  9.69 -4.19
Si  1.18 -8.48  7.55
Si  4.35 -9.70  4.20
Si  3.35 10.91 -0.82
Si -3.32 -10.91  0.84
Si  8.54  1.20  7.52
Si -8.54 -1.22 -7.55
Si -7.77 -8.48 -0.88
Si -4.69 -9.69 -4.18
Si  4.67  9.70  4.18
Si  7.82  8.48  0.84
Si -3.85 10.90 -0.84
Si  2.38  8.50 -7.54
Si -2.37 -8.50  7.55
Si  3.87 -10.94  0.85
Si  2.99 -8.45 -7.54
Si  9.81 -4.86  4.18
Si -6.09  9.70 -2.50
Si  0.15  7.26 -9.21
Si  3.58 -2.44 10.90
Si  6.10 -9.70  2.52
Si  8.85 -7.28 -2.51
Si -9.83  4.87 -4.18
Si  3.63  2.42 -10.89
Si  9.48  3.65 -5.87
Si  4.45 -0.03 10.87
Si -8.87  7.28  2.51
Si -3.53  2.43 -10.94
Si -0.13 -7.30  9.21
Si -3.66 -2.42 10.92
Si -9.52 -3.66  5.88
Si -3.00  8.54  7.55
Si -4.51  0.01 -10.89
Si -10.74  2.42 -4.21
Si 10.74 -2.45  4.21
Si  6.83  6.08  7.55
Si -6.86 -6.08 -7.53
Si -9.98 -4.86 -4.19
Si 10.83  2.42 -4.21
Si -10.83 -2.45  4.21
Si -1.69  7.29  9.22
Si  7.13 -2.42 -9.19
Si -11.28 -3.64  0.84
Si 10.00  4.86  4.20
Si -1.91 -7.28 -9.21
Si  1.63 -7.30 -9.25
Si 11.31  3.63 -0.82
Si  9.12  7.24  2.51
Si  1.94  7.27  9.24
Si  8.46 -3.64 -7.55
Si -5.99 -8.47 -5.87
Si -7.16  2.42  9.22
Si -8.49  3.64  7.55
Si  6.48  9.70  2.51
Si 11.68 -0.00 -2.51
Si -9.12 -7.28 -2.54
Si  7.25  2.43  9.18
Si -7.21 -2.44 -9.21
Si  8.39 -8.46  0.85
Si  5.98  8.50  5.90
Si 10.34  1.23  5.88
Si -6.48 -9.72 -2.53
Si  0.80 -4.86 -10.89
Si -11.70 -0.00  2.51
Si -10.35 -1.22 -5.87
