500
set: 1078.00  0.00  0.00
Si  0.45 -1.18  0.82
Si -0.41  1.21 -0.84
Si  1.35  1.13  0.80
Si -1.33 -1.16 -0.81
Si -2.15  1.09  0.80
Si  0.89  0.03 -2.41
Si  2.15 -1.15 -0.83
Si -0.89 -0.04  2.43
Si  3.00  1.14 -0.82
Si -0.02 -2.27 -2.44
Si  0.05  2.34  2.38
Si -3.07 -1.22  0.80
Si  2.57  0.04  2.44
Si -2.61  0.02 -2.40
Si  0.44  3.47 -0.81
Si -0.43 -3.49  0.80
Si -1.72 -2.28  2.38
Si -1.30  3.41  0.80
Si -1.73  2.32 -2.39
Si  1.22 -3.49 -0.82
Si  1.75  2.36 -2.44
Si  1.76 -2.32  2.47
Si  3.85 -1.22  0.80
Si  0.86  0.05  4.02
Si -2.18 -3.42 -0.84
Si -0.83  0.03 -4.08
Si -3.92  1.14 -0.82
Si  2.22  3.45  0.82
Si -0.01  2.27 -4.03
Si  0.00 -2.28  4.05
Si -2.99  3.48 -0.83
Si  3.00 -3.53  0.80
Si  3.42 -2.31 -2.39
Si -3.39  2.30  2.47
Si  2.64 -0.01 -3.99
Si -3.50 -2.31 -2.39
Si -2.61  0.01  4.07
Si  3.53  2.30  2.47
Si  1.69 -2.27 -4.02
Si  4.31  0.02 -2.40
Si  4.77  1.09  0.80
Si -4.76 -1.15 -0.83
Si -4.34  0.04  2.44
Si -1.72  2.33  4.06
Si -1.78 -2.35 -4.03
Si  1.77  2.35  4.05
Si  0.80 -4.58  2.44
Si -0.89 -4.59 -2.41
Si  0.88  4.59  2.43
Si -0.83  4.64 -2.40
Si  3.93  3.48 -0.83
Si -3.92 -3.53  0.80
Si -5.57  1.13  0.80
Si  5.58 -1.16 -0.81
Si  2.54 -4.61 -2.40
Si  3.42 -2.29  4.06
Si -0.38  5.72  0.80
Si -0.45  1.16  5.65
Si  0.46 -1.18 -5.66
Si  3.46  2.36 -4.02
Si -3.46  2.36 -4.02
Si -3.49 -2.29  4.06
Si  0.38 -5.77 -0.83
Si -4.27 -0.01 -3.99
Si -2.57  4.67  2.44
Si -1.29 -1.11  5.62
Si  2.66  4.66 -2.41
Si -4.70  3.45  0.82
Si -2.67 -4.66  2.43
Si  4.74 -3.42 -0.84
Si  1.33  1.14 -5.64
Si  4.30  0.01  4.07
Si -1.33 -5.80  0.82
Si  1.36  5.83 -0.84
Si  2.11 -1.18  5.64
Si  5.20 -2.28  2.38
Si -0.91 -4.58  4.02
Si  5.19  2.32 -2.39
Si -2.19  1.10 -5.66
Si -5.16 -2.32  2.47
Si  0.87 -4.63 -3.99
Si -5.17  2.36 -2.44
Si -2.15  5.76 -0.82
Si -0.84  4.63  4.07
Si  2.07 -5.84  0.80
Si  0.94  4.65 -4.08
Si -6.03  0.03 -2.41
Si  6.02 -0.04  2.43
Si  3.04  1.17  5.63
Si -3.04 -1.22 -5.66
Si -2.50  4.61 -3.99
Si  3.12  5.75  0.80
Si -3.11 -5.78 -0.81
Si  5.62  3.41  0.80
Si -6.47 -1.18  0.82
Si -0.44 -3.49 -5.64
Si  0.48  3.52  5.62
Si  2.53 -4.62  4.07
Si  6.51  1.21 -0.84
Si -2.60 -4.59 -4.08
Si  2.64  4.67  4.02
Si -1.26  3.40 -5.66
Si -5.70 -3.49 -0.82
Si  1.27 -3.46  5.63
Si -4.26  4.66 -2.41
Si  4.25 -4.66  2.43
Si -4.38 -4.61 -2.40
Si  4.34  4.67  2.44
Si -3.88  1.17  5.63
Si  5.14 -2.35 -4.03
Si -3.80  5.75  0.80
Si -5.14  2.35  4.05
Si  3.81 -5.78 -0.81
Si  3.88 -1.22 -5.66
Si -5.23 -2.27 -4.02
Si  2.23  3.44 -5.66
Si  5.20  2.33  4.06
Si -2.22 -3.47  5.65
Si -6.05  0.05  4.02
Si -3.04  3.45  5.64
Si  2.96 -3.53 -5.66
Si  6.08  0.03 -4.08
Si  0.05  6.94 -2.39
Si  0.46 -1.18  7.26
Si -0.45  1.16 -7.27
Si -0.01 -6.95  2.47
Si -6.48  3.47 -0.81
Si  6.49 -3.49  0.80
Si  4.73  1.10 -5.66
Si -7.33  1.21 -0.84
Si  1.33  1.14  7.28
Si -1.29 -1.11 -7.30
Si  7.36 -1.18  0.82
Si -4.81 -1.18  5.64
Si -4.28  4.67  4.02
Si  4.31 -4.59 -4.08
Si  1.65 -6.93 -2.39
Si  4.77  5.76 -0.82
Si -1.79 -6.89 -2.44
Si -1.61  6.92  2.47
Si  4.42  4.61 -3.99
Si -4.38 -4.62  4.07
Si  1.83  6.96  2.38
Si -4.84 -5.84  0.80
Si -6.86  2.34  2.38
Si  6.89 -2.27 -2.44
Si -2.19  1.10  7.25
Si  3.88  3.45  5.64
Si  2.11 -1.18 -7.28
Si -6.94 -2.27 -2.44
Si  6.97  2.34  2.38
Si -3.96 -3.53 -5.66
Si  6.03 -4.59 -2.41
Si -3.04 -1.22  7.25
Si -6.04  4.59  2.43
Si  3.04  1.17 -7.29
Si -0.09 -6.89 -4.02
Si -5.59  1.14 -5.64
Si  6.08  4.64 -2.40
Si -6.12 -4.58  2.44
Si  5.62 -1.11  5.62
Si  0.05  6.95  4.06
Si -0.41  5.72 -5.66
Si  3.43 -6.91  2.38
Si -0.44 -3.49  7.28
Si  0.47  8.03  0.80
Si -5.55  5.83 -0.84
Si  0.34 -5.80  5.64
Si  5.59 -5.80  0.82
Si -3.49 -6.91  2.38
Si -1.26  3.40  7.25
Si  0.48  3.52 -7.30
Si -4.68  3.44 -5.66
Si  4.70 -3.47  5.65
Si -3.40  6.98 -2.44
Si  1.27 -3.46 -7.29
Si  7.81  0.03 -2.41
Si -7.34 -3.49  0.80
Si -0.55 -8.11 -0.82
Si  7.36  3.47 -0.81
Si -7.81 -0.04  2.43
Si  1.76  6.90 -4.03
Si  1.65 -6.92  4.06
Si  3.52  6.98 -2.44
Si  1.32  5.78  5.65
Si -1.77 -6.90  4.05
Si -1.31 -5.80 -5.66
Si -1.69  6.98 -4.02
Si -1.22  8.10 -0.83
Si  1.22 -8.16  0.80
Si  6.91  2.27 -4.03
Si  3.88 -1.22  7.25
Si -6.92  2.27 -4.03
Si -6.92 -2.28  4.05
Si  6.92 -2.28  4.05
Si -3.88  1.17 -7.29
Si  2.23  3.44  7.26
Si -2.10  5.79  5.63
Si -2.22 -3.47 -7.27
Si -8.25 -1.16 -0.81
Si  8.27  1.13  0.80
Si  2.11 -5.84 -5.66
Si  2.21  8.09 -0.81
Si -2.20 -8.12  0.80
Si  6.01 -4.58  4.02
Si  2.96 -3.53  7.25
Si -3.07 -5.73  5.62
Si -6.05 -4.63 -3.99
Si -5.98  4.65 -4.08
Si -3.04  3.45 -7.28
Si  2.96 -8.04 -0.84
Si -2.93  8.07  0.82
Si  3.10  5.76 -5.64
Si  6.08  4.63  4.07
Si -6.46 -1.18 -5.66
Si  6.47  1.16  5.65
Si -5.65 -3.46  5.63
Si  5.66  3.40 -5.66
Si  6.54  5.72  0.80
Si  3.37 -6.97 -4.03
Si  4.73  1.10  7.25
Si -3.37  6.97  4.05
Si -6.54 -5.77 -0.83
Si -7.75  0.03 -4.08
Si  7.78  0.05  4.02
Si -3.55 -6.97 -4.03
Si -4.81 -1.18 -7.28
Si  3.55  6.97  4.05
Si -0.83  0.03  8.84
Si  8.14 -3.49 -0.82
Si  3.85 -5.73  5.62
Si -3.81  5.76 -5.64
Si  5.12 -6.89 -2.44
Si -8.22  3.41  0.80
Si  0.86  0.05 -8.89
Si  3.88  3.45 -7.28
Si -5.09  6.96  2.38
Si -3.96 -3.53  7.25
Si -3.95 -8.04 -0.84
Si -5.27 -6.93 -2.39
Si  3.99  8.07  0.82
Si  5.30  6.92  2.47
Si  0.00 -2.28 -8.87
Si -9.07  1.09  0.80
Si -0.01  2.27  8.89
Si  9.07 -1.15 -0.83
Si -2.61  0.01 -8.85
Si -6.44  3.52  5.62
Si -8.64 -2.28  2.38
Si -5.59  1.14  7.28
Si -0.41  5.72  7.25
Si -8.64  2.32 -2.39
Si  6.48 -3.49 -5.64
Si  5.62 -1.11 -7.30
Si -4.68  3.44  7.26
Si  7.72 -4.58  2.44
Si -7.29  5.72  0.80
Si  8.67  2.36 -2.44
Si  0.34 -5.80 -7.28
Si  2.64 -0.01  8.93
Si  8.68 -2.32  2.47
Si  4.70 -3.47 -7.27
Si -1.72  2.33 -8.86
Si  1.69 -2.27  8.90
Si  7.30 -5.77 -0.83
Si  1.77  2.35 -8.87
Si -7.75  4.64 -2.40
Si -7.37  1.16  5.65
Si -1.78 -2.35  8.89
Si  7.80  4.59  2.43
Si -7.80 -4.59 -2.41
Si  7.38 -1.18 -5.66
Si  1.32  5.78 -7.27
Si -1.31 -5.80  7.26
Si -4.71  8.09 -0.81
Si  4.81  5.79  5.63
Si  4.72 -8.12  0.80
Si -4.81 -5.84 -5.66
Si -5.15  6.90 -4.03
Si  5.15 -6.90  4.05
Si -2.10  5.79 -7.29
Si  2.11 -5.84  7.25
Si  0.77 -9.23 -2.40
Si -0.97 -9.20  2.44
Si -5.27 -6.92  4.06
Si  5.23  6.98 -4.02
Si  0.94  9.27 -2.40
Si -0.80  9.29  2.44
Si -9.10 -3.42 -0.84
Si  8.60 -2.27 -4.02
Si -3.07 -5.73 -7.30
Si  3.42 -2.29 -8.86
Si -6.46 -1.18  7.26
Si  3.10  5.76  7.28
Si  6.47  1.16 -7.27
Si -3.49 -2.29 -8.86
Si  9.49  0.04  2.44
Si  9.13  3.45  0.82
Si  5.66  3.40  7.25
Si -9.53  0.02 -2.40
Si -8.64  2.33  4.06
Si -5.59  5.78  5.65
Si  3.46  2.36  8.90
Si -3.46  2.36  8.90
Si  0.51  8.03 -5.66
Si  4.30  0.01 -8.85
Si -5.65 -3.46 -7.29
Si  5.61 -5.80 -5.66
Si -0.51 -8.08  5.63
Si -8.70 -2.35 -4.03
Si  8.69  2.35  4.05
Si -2.66 -9.21 -2.41
Si  2.65  9.21  2.43
Si -4.27 -0.01  8.93
Si  7.79 -4.63 -3.99
Si -2.48  9.28 -2.41
Si -7.36 -3.49 -5.64
Si -7.76  4.63  4.07
Si  2.48 -9.29  2.43
Si -7.83 -4.58  4.02
Si -1.26  8.07  5.64
Si  7.40  3.52  5.62
Si  5.70  8.10 -0.83
Si -5.69 -8.16  0.80
Si  1.19 -8.15 -5.66
Si  7.86  4.65 -4.08
Si  9.91  1.14 -0.82
Si -8.21 -1.11  5.62
Si -0.84  4.63 -8.85
Si  0.94  4.65  8.84
Si -3.81  5.76  7.28
Si  3.85 -5.73 -7.30
Si -0.91 -4.58 -8.89
Si -6.87  6.94 -2.39
Si  8.25  1.14 -5.64
Si -0.73  9.24 -3.99
Si -9.99 -1.22  0.80
Si  0.87 -4.63  8.93
Si  6.90 -6.95  2.47
Si -8.25 -5.80  0.82
Si  6.96  6.94 -2.39
Si -6.93 -6.95  2.47
Si -0.90 -9.26 -3.99
Si -2.21 -8.11 -5.64
Si  0.76 -9.24  4.07
Si  2.25  8.14  5.62
Si  0.93  9.25  4.07
Si  8.28  5.83 -0.84
Si -2.91  8.07 -5.66
Si  2.92 -8.09  5.65
Si -2.60 -4.59  8.84
Si  2.53 -4.62 -8.85
Si -6.44  8.03  0.80
Si  6.37 -8.11 -0.82
Si -6.44  3.52 -7.30
Si  6.48 -3.49  7.28
Si  6.50  5.72 -5.66
Si -2.50  4.61  8.93
Si  9.56 -0.01 -3.99
Si -9.53  0.01  4.07
Si  2.64  4.67 -8.89
Si -2.68 -9.20  4.02
Si  2.54 -9.22 -4.08
Si -7.37  1.16 -7.27
Si  7.38 -1.18  7.26
Si -0.38 10.38 -0.82
Si -6.58 -5.80  5.64
Si -2.51  9.29  4.02
Si  4.26 -9.21 -2.41
Si -4.27  9.21  2.43
Si  1.40 10.34  0.80
Si  4.81  5.79 -7.29
Si -4.81 -5.84  7.25
Si  2.71  9.28 -4.08
Si  0.30 -10.46  0.80
Si  6.83 -6.89 -4.02
Si -8.18  3.40 -5.66
Si -1.39 -10.39 -0.83
Si -5.14  2.35 -8.87
Si  8.19 -3.46  5.63
Si -0.89 -0.04 -10.49
Si  5.20  2.33 -8.86
Si  5.14 -2.35  8.89
Si -9.91  3.48 -0.83
Si  0.89  0.03 10.51
Si  9.91 -3.53  0.80
Si  4.43  9.28 -2.41
Si -5.23 -2.27  8.90
Si -4.44 -9.29  2.43
Si -6.87  6.95  4.06
Si -2.03 10.38  0.80
Si -7.00 -6.89 -4.02
Si  2.04 -10.40 -0.81
Si  4.01  8.07 -5.66
Si  6.97  6.95  4.06
Si -3.99 -8.09  5.65
Si  9.03 -1.18  5.64
Si -0.02 -2.27 10.48
Si  6.08  0.03  8.84
Si  8.99 -5.84  0.80
Si -6.05  0.05 -8.89
Si -9.07  5.76 -0.82
Si -9.10  1.10 -5.66
Si  9.46 -4.61 -2.40
Si  2.57  0.04 -10.48
Si  0.05  2.34 -10.54
Si  0.51  8.03  7.25
Si -2.61  0.02 10.52
Si -5.59  5.78 -7.27
Si -10.30  2.30  2.47
Si  1.76 -2.32 -10.45
Si -9.49  4.67  2.44
Si  5.61 -5.80  7.26
Si  4.31 -4.59  8.84
Si 10.34 -2.31 -2.39
Si 10.76 -1.22  0.80
Si  7.25 -5.80  5.64
Si  1.75  2.36 10.48
Si -7.33  5.72 -5.66
Si -0.51 -8.08 -7.29
Si  4.24 -9.20  4.02
Si -4.38 -4.62 -8.85
Si -3.10 -10.42  0.82
Si -1.73  2.32 10.53
Si -1.72 -2.28 -10.54
Si  9.58  4.66 -2.41
Si -4.28  4.67 -8.89
Si -7.36 -3.49  7.28
Si -9.58 -4.66  2.43
Si -10.84  1.14 -0.82
Si -10.42 -2.31 -2.39
Si -4.67  8.14  5.62
Si  4.70 -8.11 -5.64
Si  7.39  8.03  0.80
Si -1.26  8.07 -7.28
Si  3.14 10.45 -0.84
Si  7.40  3.52 -7.30
Si -4.21  9.28 -4.08
Si  1.19 -8.15  7.25
Si  4.42  4.61  8.93
Si 10.45  2.30  2.47
Si -4.38 -9.22 -4.08
Si -8.21 -1.11 -7.30
Si  4.41  9.29  4.02
Si -7.47 -8.11 -0.82
Si  8.25  1.14  7.28
Si -2.21 -8.11  7.28
Si  3.82 -10.42  0.82
Si -3.78 10.45 -0.84
Si  2.25  8.14 -7.30
Si -9.42  4.61 -3.99
Si -3.39  2.30 -10.45
Si  5.95 -9.20  2.44
Si -2.91  8.07  7.26
Si -0.09 -6.89  8.90
Si  2.92 -8.09 -7.27
Si -8.53  6.92  2.47
Si  0.05  6.95 -8.86
Si  3.53  2.30 -10.45
Si  8.56 -6.93 -2.39
Si  9.45 -4.62  4.07
Si -5.98  9.27 -2.40
Si -9.14 -3.47  5.65
Si  9.15  3.44 -5.66
Si  6.50  5.72  7.25
Si  3.42 -2.31 10.53
Si -3.50 -2.31 10.53
Si -9.52 -4.59 -4.08
Si 10.34 -2.29  4.06
Si -4.34  0.04 -10.48
Si -6.15 -9.23 -2.40
Si  5.65  8.07  5.64
Si  1.65 -6.92 -8.86
Si  4.31  0.02 10.52
Si  9.55  4.67  4.02
Si -8.71 -6.89 -2.44
Si 10.38  2.36 -4.02
Si -10.38  2.36 -4.02
Si -1.77 -6.90 -8.87
Si  6.12  9.29  2.44
Si  1.76  6.90  8.89
Si -6.58 -5.80 -7.28
Si -10.41 -2.29  4.06
Si 10.84  3.48 -0.83
Si -10.84 -3.53  0.80
Si  8.74  6.96  2.38
Si -1.69  6.98  8.90
Si -8.18  3.40  7.25
Si -5.73 -8.15 -5.66
Si  0.80 -4.58 -10.48
Si -6.92 -2.28 -8.87
Si  6.92 -2.28 -8.87
Si  0.88  4.59 -10.49
Si 11.23  0.02 -2.40
Si  6.91  2.27  8.89
Si  8.19 -3.46 -7.29
Si -6.92  2.27  8.89
Si  9.96  1.17  5.63
Si -0.89 -4.59 10.51
Si  4.89 10.38  0.80
