500
set: 648.00  0.00  0.00
Si  0.62 -1.15  0.77
Si -0.62  1.15 -0.77
Si -1.04 -1.00 -0.77
Si  1.04  1.00  0.77
Si  2.40 -1.00 -0.77
Si -2.40  1.00  0.77
Si  1.07  0.24 -2.49
Si -1.07 -0.24  2.49
Si -2.82 -1.15  0.77
Si  2.82  1.15 -0.77
Si -0.65  1.90  2.49
Si  0.65 -1.90 -2.49
Si  0.20 -3.29  0.77
Si -0.20  3.29 -0.77
Si -2.38  0.24 -2.49
Si  2.38 -0.24  2.49
Si  1.46  3.15  0.77
Si -1.46 -3.15 -0.77
Si  1.49  2.39 -2.49
Si -1.49 -2.39  2.49
Si -1.98  3.15  0.77
Si  1.98 -3.15 -0.77
Si -1.96  2.39 -2.49
Si  1.96 -2.39  2.49
Si  0.59 -0.39  4.02
Si -0.59  0.39 -4.02
Si -2.80 -1.90 -2.49
Si  2.80  1.90  2.49
Si -4.06  1.15 -0.77
Si  4.06 -1.15  0.77
Si -1.01 -1.76 -4.02
Si  1.01  1.76  4.02
Si  4.48  1.00  0.77
Si -4.48 -1.00 -0.77
Si -3.24 -3.29  0.77
Si  3.24  3.29 -0.77
Si -0.17  2.53 -4.02
Si  0.17 -2.53  4.02
Si  0.23 -4.05 -2.49
Si -0.23  4.05  2.49
Si  2.85  0.39 -4.02
Si -2.85 -0.39  4.02
Si -3.64  3.29 -0.77
Si  3.64 -3.29  0.77
Si -2.43  1.76  4.02
Si  2.43 -1.76 -4.02
Si -4.09  1.90  2.49
Si  4.09 -1.90 -2.49
Si  4.51  0.24 -2.49
Si -4.51 -0.24  2.49
Si  1.54 -4.54  2.49
Si -1.54  4.54 -2.49
Si  0.22  5.44 -0.77
Si -0.22 -5.44  0.77
Si  1.91  4.54 -2.49
Si -1.91 -4.54  2.49
Si  1.56 -5.29 -0.77
Si -1.56  5.29  0.77
Si -1.88 -5.29 -0.77
Si  1.88  5.29  0.77
Si  4.04 -0.39  4.02
Si -4.04  0.39 -4.02
Si  3.22  4.05  2.49
Si -3.22 -4.05 -2.49
Si -3.27 -2.53  4.02
Si  3.27  2.53 -4.02
Si  1.43  3.90  4.02
Si -1.43 -3.90 -4.02
Si -1.09  0.52  5.75
Si  1.09 -0.52 -5.75
Si -4.90 -3.15 -0.77
Si  4.90  3.15  0.77
Si -2.01  3.90  4.02
Si  2.01 -3.90 -4.02
Si  3.62 -2.53  4.02
Si -3.62  2.53 -4.02
Si -5.85  1.00  0.77
Si  5.85 -1.00 -0.77
Si -3.67  4.05  2.49
Si  3.67 -4.05 -2.49
Si  4.93  2.39 -2.49
Si -4.93 -2.39  2.49
Si  1.51  1.63 -5.75
Si -1.51 -1.63  5.75
Si  0.25  4.68 -4.02
Si -0.25 -4.68  4.02
Si  2.35  0.52  5.75
Si -2.35 -0.52 -5.75
Si  4.46  1.76  4.02
Si -4.46 -1.76 -4.02
Si -1.93  1.63 -5.75
Si  1.93 -1.63  5.75
Si  5.43 -3.15 -0.77
Si -5.43  3.15  0.77
Si -5.82  0.24 -2.49
Si  5.82 -0.24  2.49
Si -3.22  5.44 -0.77
Si  3.22 -5.44  0.77
Si -0.67  2.66  5.75
Si  0.67 -2.66 -5.75
Si -5.40  2.39 -2.49
Si  5.40 -2.39  2.49
Si -6.27 -1.15  0.77
Si  6.27  1.15 -0.77
Si -3.66 -5.44  0.77
Si  3.66  5.44 -0.77
Si  0.19  6.20  2.49
Si -0.19 -6.20 -2.49
Si -2.77 -2.66 -5.75
Si  2.77  2.66  5.75
Si -3.19  4.68 -4.02
Si  3.19 -4.68  4.02
Si  6.24  1.90  2.49
Si -6.24 -1.90 -2.49
Si -1.51  3.78 -5.75
Si  1.51 -3.78  5.75
Si -1.93 -3.78  5.75
Si  1.93  3.78 -5.75
Si  4.98 -4.54  2.49
Si -4.98  4.54 -2.49
Si -3.69 -4.68  4.02
Si  3.69  4.68 -4.02
Si  1.12 -6.68  2.49
Si -1.12  6.68 -2.49
Si  0.56  0.37  7.28
Si -0.56 -0.37 -7.28
Si -5.01  5.29  0.77
Si  5.01 -5.29 -0.77
Si -5.87  1.76  4.02
Si  5.87 -1.76 -4.02
Si  4.54 -0.52 -5.75
Si -4.54  0.52  5.75
Si -3.25  6.20  2.49
Si  3.25 -6.20 -2.49
Si -4.88 -3.90 -4.02
Si  4.88  3.90  4.02
Si  1.59 -6.05 -4.02
Si -1.59  6.05  4.02
Si  5.35  4.54 -2.49
Si -5.35 -4.54  2.49
Si  6.29  0.39 -4.02
Si -6.29 -0.39  4.02
Si  6.69  3.29 -0.77
Si -6.69 -3.29  0.77
Si -0.15  1.77 -7.28
Si  0.15 -1.77  7.28
Si -0.25  4.81  5.75
Si  0.25 -4.81 -5.75
Si -1.85 -6.05 -4.02
Si  1.85  6.05  4.02
Si  2.33  6.68 -2.49
Si -2.33 -6.68  2.49
Si  5.32  5.29  0.77
Si -5.32 -5.29 -0.77
Si -4.12  2.66  5.75
Si  4.12 -2.66 -5.75
Si -1.15  7.44  0.77
Si  1.15 -7.44 -0.77
Si -3.64 -6.20 -2.49
Si  3.64  6.20  2.49
Si  7.50 -1.15  0.77
Si -7.50  1.15 -0.77
Si  0.64  7.58 -0.77
Si -0.64 -7.58  0.77
Si  4.96  1.63 -5.75
Si -4.96 -1.63  5.75
Si -0.98 -2.52 -7.28
Si  0.98  2.52  7.28
Si -5.45  3.90  4.02
Si  5.45 -3.90 -4.02
Si  2.30  7.44  0.77
Si -2.30 -7.44 -0.77
Si -2.88  0.37  7.28
Si  2.88 -0.37 -7.28
Si -7.08  3.29 -0.77
Si  7.08 -3.29  0.77
Si  0.67  6.83 -4.02
Si -0.67 -6.83  4.02
Si -7.92 -1.00 -0.77
Si  7.92  1.00  0.77
Si  5.37 -1.63  5.75
Si -5.37  1.63 -5.75
Si  2.46 -2.52 -7.28
Si -2.46  2.52  7.28
Si  2.80 -7.58  0.77
Si -2.80  7.58 -0.77
Si -3.19 -4.81 -5.75
Si  3.19  4.81  5.75
Si -7.53  1.90  2.49
Si  7.53 -1.90 -2.49
Si -5.79 -0.52 -5.75
Si  5.79  0.52  5.75
Si  6.66  4.05  2.49
Si -6.66 -4.05 -2.49
Si  3.30  1.77 -7.28
Si -3.30 -1.77  7.28
Si  6.71  2.53 -4.02
Si -6.71 -2.53  4.02
Si  0.27  3.92 -7.28
Si -0.27 -3.92  7.28
Si  3.59 -1.77  7.28
Si -3.59  1.77 -7.28
Si -4.01 -0.37 -7.28
Si  4.01  0.37  7.28
Si -1.09  5.92 -5.75
Si  1.09 -5.92  5.75
Si  7.95  0.24 -2.49
Si -7.95 -0.24  2.49
Si -3.70  4.81  5.75
Si  3.70 -4.81 -5.75
Si -2.78  6.83 -4.02
Si  2.78 -6.83  4.02
Si  4.56 -6.68  2.49
Si -4.56  6.68 -2.49
Si  4.95 -3.78  5.75
Si -4.95  3.78 -5.75
Si  7.48 -0.39  4.02
Si -7.48  0.39 -4.02
Si -7.06  2.53 -4.02
Si  7.06 -2.53  4.02
Si  7.11 -4.05 -2.49
Si -7.11  4.05  2.49
Si -2.35 -5.92  5.75
Si  2.35  5.92 -5.75
Si  6.67 -5.44  0.77
Si -6.67  5.44 -0.77
Si  4.08  7.58 -0.77
Si -4.08 -7.58  0.77
Si -0.61 -8.34 -2.49
Si  0.61  8.34  2.49
Si -5.38 -3.78  5.75
Si  5.38  3.78 -5.75
Si -1.41 -4.66 -7.28
Si  1.41  4.66  7.28
Si -4.59  7.44  0.77
Si  4.59 -7.44 -0.77
Si -5.03  6.05  4.02
Si  5.03 -6.05 -4.02
Si  3.17 -3.92  7.28
Si -3.17  3.92 -7.28
Si  6.21  2.66  5.75
Si -6.21 -2.66 -5.75
Si  2.04 -4.66 -7.28
Si -2.04  4.66  7.28
Si  4.43  2.52  7.28
Si -4.43 -2.52 -7.28
Si  4.11  6.83 -4.02
Si -4.11 -6.83  4.02
Si  8.34  3.15  0.77
Si -8.34 -3.15 -0.77
Si -7.11 -5.44  0.77
Si  7.11  5.44 -0.77
Si -5.29 -6.05 -4.02
Si  5.29  6.05  4.02
Si -0.17 -6.95 -5.75
Si  0.17  6.95  5.75
Si  7.90  1.76  4.02
Si -7.90 -1.76 -4.02
Si  8.37  2.39 -2.49
Si -8.37 -2.39  2.49
Si  6.64 -4.68  4.02
Si -6.64  4.68 -4.02
Si -3.72 -3.92  7.28
Si  3.72  3.92 -7.28
Si -2.83  8.34  2.49
Si  2.83 -8.34 -2.49
Si  1.12 -1.27 -9.01
Si -1.12  1.27  9.01
Si -5.77 -6.68  2.49
Si  5.77  6.68 -2.49
Si  1.54  0.87 -9.01
Si -1.54 -0.87  9.01
Si -0.70  8.83 -2.49
Si  0.70 -8.83  2.49
Si -1.17  8.20  4.02
Si  1.17 -8.20 -4.02
Si -1.90  0.87 -9.01
Si  1.90 -0.87  9.01
Si -9.29  1.00  0.77
Si  9.29 -1.00 -0.77
Si -2.32 -1.27 -9.01
Si  2.32  1.27  9.01
Si -2.27 -8.20 -4.02
Si  2.27  8.20  4.02
Si  4.53 -5.92  5.75
Si -4.53  5.92 -5.75
Si -5.74 -7.44 -0.77
Si  5.74  7.44  0.77
Si -7.13 -4.68  4.02
Si  7.13  4.68 -4.02
Si -8.87  3.15  0.77
Si  8.87 -3.15 -0.77
Si  6.69 -6.20 -2.49
Si -6.69  6.20  2.49
Si  8.84 -2.39  2.49
Si -8.84  2.39 -2.49
Si  0.69  6.07 -7.28
Si -0.69 -6.07  7.28
Si  2.75  8.83 -2.49
Si -2.75 -8.83  2.49
Si -9.26  0.24 -2.49
Si  9.26 -0.24  2.49
Si  3.28 -6.95 -5.75
Si -3.28  6.95  5.75
Si  4.06  8.34  2.49
Si -4.06 -8.34 -2.49
Si  1.48 -3.02  9.01
Si -1.48  3.02 -9.01
Si  0.72 -9.59 -0.77
Si -0.72  9.59  0.77
Si -6.32  0.37  7.28
Si  6.32 -0.37 -7.28
Si  0.70 -3.42 -9.01
Si -0.70  3.42  9.01
Si  1.96  3.02 -9.01
Si -1.96 -3.02  9.01
Si -5.90  2.52  7.28
Si  5.90 -2.52 -7.28
Si  3.61  6.95  5.75
Si -3.61 -6.95 -5.75
Si -7.08 -6.20 -2.49
Si  7.08  6.20  2.49
Si -9.71 -1.15  0.77
Si  9.71  1.15 -0.77
Si  1.06  9.73 -0.77
Si -1.06 -9.73  0.77
Si -7.98  0.52  5.75
Si  7.98 -0.52 -5.75
Si -6.25  7.58 -0.77
Si  6.25 -7.58  0.77
Si -7.56  2.66  5.75
Si  7.56 -2.66 -5.75
Si -2.75  6.07 -7.28
Si  2.75 -6.07  7.28
Si -8.42  4.54 -2.49
Si  8.42 -4.54  2.49
Si  1.09  8.97 -4.02
Si -1.09 -8.97  4.02
Si  4.85  4.66  7.28
Si -4.85 -4.66 -7.28
Si -0.67  8.07 -5.75
Si  0.67 -8.07  5.75
Si  2.72  9.59  0.77
Si -2.72 -9.59 -0.77
Si -8.45  5.29  0.77
Si  8.45 -5.29 -0.77
Si -6.63 -4.81 -5.75
Si  6.63  4.81  5.75
Si  2.74  3.42  9.01
Si -2.74 -3.42 -9.01
Si  8.32  3.90  4.02
Si -8.32 -3.90 -4.02
Si  2.38 -9.73  0.77
Si -2.38  9.73 -0.77
Si  4.14 -8.83  2.49
Si -4.14  8.83 -2.49
Si  6.22 -6.83  4.02
Si -6.22  6.83 -4.02
Si -6.74 -1.77  7.28
Si  6.74  1.77 -7.28
Si -5.79 -5.92  5.75
Si  5.79  5.92 -5.75
Si -1.62  6.81  7.28
Si  1.62 -6.81 -7.28
Si -2.36  8.97 -4.02
Si  2.36 -8.97  4.02
Si -1.82 -6.81 -7.28
Si  1.82  6.81  7.28
Si  4.56 -1.27 -9.01
Si -4.56  1.27  9.01
Si  9.68  1.90  2.49
Si -9.68 -1.90 -2.49
Si  8.79  4.54 -2.49
Si -8.79 -4.54  2.49
Si  4.61 -8.20 -4.02
Si -4.61  8.20  4.02
Si -5.48  4.66  7.28
Si  5.48 -4.66 -7.28
Si  8.76  5.29  0.77
Si -8.76 -5.29 -0.77
Si  7.03 -1.77  7.28
Si -7.03  1.77 -7.28
Si  2.77  8.07 -5.75
Si -2.77 -8.07  5.75
Si -9.32  1.76  4.02
Si  9.32 -1.76 -4.02
Si  8.40  1.63 -5.75
Si -8.40 -1.63  5.75
Si -4.98 -0.87  9.01
Si  4.98  0.87 -9.01
Si -4.14 -6.07  7.28
Si  4.14  6.07 -7.28
Si -7.14  4.81  5.75
Si  7.14 -4.81 -5.75
Si  7.45  0.37  7.28
Si -7.45 -0.37 -7.28
Si -1.06  5.16 -9.01
Si  1.06 -5.16  9.01
Si -4.17  9.59  0.77
Si  4.17 -9.59 -0.77
Si  4.14 -3.42 -9.01
Si -4.14  3.42  9.01
Si -5.35  0.87 -9.01
Si  5.35 -0.87  9.01
Si -8.90  3.90  4.02
Si  8.90 -3.90 -4.02
Si -9.74 -0.39  4.02
Si  9.74  0.39 -4.02
Si -6.61  3.92 -7.28
Si  6.61 -3.92  7.28
Si  0.12 -1.02 10.54
Si -0.12  1.02 -10.54
Si -0.28  5.57  9.01
Si  0.28 -5.57 -9.01
Si -0.54 -1.13 -10.54
Si  0.54  1.13 10.54
Si  8.82 -1.63  5.75
Si -8.82  1.63 -5.75
Si -2.38 -5.16  9.01
Si  2.38  5.16 -9.01
Si 10.13  3.29 -0.77
Si -10.13 -3.29  0.77
Si  4.93 -3.02  9.01
Si -4.93  3.02 -9.01
Si  7.53  7.58 -0.77
Si -7.53 -7.58  0.77
Si  8.00 -6.68  2.49
Si -8.00  6.68 -2.49
Si -4.11  8.07 -5.75
Si  4.11 -8.07  5.75
Si  6.27 -8.34 -2.49
Si -6.27  8.34  2.49
Si  4.50  9.73 -0.77
Si -4.50 -9.73  0.77
Si -5.77 -1.27 -9.01
Si  5.77  1.27  9.01
Si  5.71  8.20  4.02
Si -5.71 -8.20 -4.02
Si  0.59  9.10  5.75
Si -0.59 -9.10 -5.75
Si -4.53 -8.97  4.02
Si  4.53  8.97 -4.02
Si -1.03 -10.49 -2.49
Si  1.03 10.49  2.49
Si -8.40  3.78 -5.75
Si  8.40 -3.78  5.75
Si  9.24  0.52  5.75
Si -9.24 -0.52 -5.75
Si  5.40  3.02 -9.01
Si -5.40 -3.02  9.01
Si  7.16  3.92 -7.28
Si -7.16 -3.92  7.28
Si -7.55 -6.83  4.02
Si  7.55  6.83 -4.02
Si  8.03 -7.44 -0.77
Si -8.03  7.44  0.77
Si  2.90 -1.13 -10.54
Si -2.90  1.13 10.54
Si -0.30 -3.16 10.54
Si  0.30  3.16 -10.54
Si -7.87 -2.52 -7.28
Si  7.87  2.52  7.28
Si  1.11  8.21 -7.28
Si -1.11 -8.21  7.28
Si -10.95  1.15 -0.77
Si 10.95 -1.15  0.77
Si -2.41 10.49  2.49
Si  2.41 -10.49 -2.49
Si  3.16  5.57  9.01
Si -3.16 -5.57 -9.01
Si -10.53  3.29 -0.77
Si 10.53 -3.29  0.77
Si  6.19  8.83 -2.49
Si -6.19 -8.83  2.49
Si -0.96 -3.28 -10.54
Si  0.96  3.28 10.54
Si  3.32  1.02 -10.54
Si -3.32 -1.02 10.54
Si -0.75 10.34  4.02
Si  0.75 -10.34 -4.02
Si -2.86  9.10  5.75
Si  2.86 -9.10 -5.75
Si 10.10  4.05  2.49
Si -10.10 -4.05 -2.49
Si -8.48  6.05  4.02
Si  8.48 -6.05 -4.02
Si -3.56  1.02 -10.54
Si  3.56 -1.02 10.54
Si  5.06 -6.81 -7.28
Si -5.06  6.81  7.28
Si -8.82 -3.78  5.75
Si  8.82  3.78 -5.75
Si 10.16  2.53 -4.02
Si -10.16 -2.53  4.02
Si  2.33 -8.21  7.28
Si -2.33  8.21 -7.28
Si -3.72  5.57  9.01
Si  3.72 -5.57 -9.01
Si  6.72 -6.95 -5.75
Si -6.72  6.95  5.75
