500
set: 1074.00  0.00  0.00
Si  0.42 -1.08  0.89
Si -0.41  1.24 -0.76
Si -1.23 -1.16 -0.84
Si  1.39  1.23  0.78
Si  2.08 -1.19 -0.81
Si -2.18  1.11  0.81
Si  0.82  0.04 -2.44
Si -0.89 -0.03  2.49
Si  0.00  2.29  2.38
Si -3.03 -1.12  0.81
Si -0.05 -2.31 -2.45
Si  3.10  1.12 -0.85
Si -0.40 -3.42  0.78
Si  2.58 -0.01  2.44
Si -2.54 -0.02 -2.50
Si  0.56  3.49 -0.84
Si -1.74  2.30 -2.41
Si -1.78 -2.36  2.38
Si  1.74  2.34 -2.45
Si  1.67 -2.41  2.46
Si -1.24  3.54  0.81
Si  1.31 -3.54 -0.85
Si -3.86  1.12 -0.85
Si -2.19 -3.42 -0.76
Si  0.85  0.01  4.05
Si  3.93 -1.12  0.81
Si -0.89 -0.04 -4.11
Si  2.20  3.58  0.89
Si -0.00  2.29 -4.00
Si -0.07 -2.29  4.05
Si  2.99 -3.54  0.81
Si -3.09  3.46 -0.81
Si  2.56 -0.08 -4.03
Si  3.46  2.25  2.46
Si  3.43 -2.35 -2.41
Si -3.50  2.25  2.46
Si -2.63 -0.03  4.09
Si -3.52 -2.35 -2.41
Si -1.64  2.31  4.00
Si  4.78  1.11  0.81
Si  1.68 -2.33 -4.05
Si -1.79 -2.36 -4.00
Si  1.72  2.36  4.05
Si -4.37 -0.01  2.44
Si  4.42 -0.02 -2.50
Si -4.88 -1.19 -0.81
Si  3.87  3.46 -0.81
Si -0.97 -4.62 -2.44
Si -0.75  4.63 -2.50
Si  0.79 -4.66  2.44
Si  0.90  4.62  2.49
Si -3.96 -3.54  0.81
Si -5.57  1.23  0.78
Si -3.43 -2.35  4.00
Si -0.33  1.16  5.65
Si  3.47  2.32 -4.05
Si  3.53 -2.35  4.00
Si -3.48  2.32 -4.05
Si -0.39  5.77  0.81
Si  0.49 -1.09 -5.72
Si -2.59  4.64  2.44
Si  1.31  1.25 -5.60
Si  2.61  4.69 -2.44
Si  5.72 -1.16 -0.84
Si  0.29 -5.84 -0.81
Si  4.76 -3.42 -0.76
Si  2.63 -4.67 -2.50
Si -2.68 -4.69  2.49
Si  4.33 -0.03  4.09
Si -1.37 -5.73  0.89
Si -4.39 -0.08 -4.03
Si -1.30 -1.09  5.73
Si -4.75  3.58  0.89
Si  1.38  5.89 -0.76
Si  5.17 -2.36  2.38
Si  2.21 -1.21  5.64
Si -2.14  1.21 -5.68
Si  5.22  2.30 -2.41
Si -2.07  5.77 -0.85
Si  2.14 -5.77  0.81
Si -5.21  2.34 -2.45
Si -0.94 -4.64  4.05
Si -0.84  4.63  4.09
Si  0.89  4.62 -4.11
Si  0.78 -4.73 -4.03
Si -5.28 -2.41  2.46
Si  2.97  1.14  5.68
Si  6.06 -0.03  2.49
Si -0.48 -3.40 -5.60
Si -3.07 -1.21 -5.68
Si -6.13  0.04 -2.44
Si -3.02 -5.82 -0.84
Si -2.60  4.58 -4.03
Si -6.54 -1.08  0.89
Si  6.55  1.24 -0.76
Si  2.54 -4.68  4.09
Si  2.63  4.67  4.05
Si -5.64 -3.54 -0.85
Si  3.17  5.89  0.78
Si  0.49  3.56  5.73
Si -1.28  3.44 -5.68
Si  5.71  3.54  0.81
Si  1.19 -3.52  5.68
Si -2.68 -4.69 -4.11
Si  4.28 -4.69  2.49
Si  4.37  4.64  2.44
Si -4.32 -4.67 -2.50
Si -4.35  4.69 -2.44
Si  5.17 -2.36 -4.00
Si -2.12 -3.49  5.65
Si  3.88 -1.21 -5.68
Si -3.98  1.14  5.68
Si -5.24  2.36  4.05
Si  5.31  2.31  4.00
Si -3.78  5.89  0.78
Si -5.27 -2.33 -4.05
Si  3.94 -5.82 -0.84
Si  2.28  3.56 -5.72
Si -2.96  3.44  5.64
Si  3.03 -3.44 -5.68
Si  6.06 -0.04 -4.11
Si -6.11  0.01  4.05
Si -6.40  3.49 -0.84
Si  0.05  6.95 -2.41
Si  0.49 -1.10  7.27
Si -0.34  1.17 -7.33
Si  6.55 -3.42  0.78
Si -1.30 -1.09 -7.25
Si -4.75 -1.21  5.64
Si -0.11 -7.06  2.46
Si  4.35  4.58 -4.03
Si -7.36  1.24 -0.76
Si  7.37 -1.08  0.89
Si -1.71  6.90  2.46
Si -4.32  4.67  4.05
Si  4.82  1.21 -5.68
Si  1.79  6.95  2.38
Si -4.81 -5.77  0.81
Si  4.27 -4.69 -4.11
Si  1.64 -7.01 -2.41
Si  1.31  1.25  7.38
Si  4.88  5.77 -0.85
Si -1.83 -6.97 -2.45
Si -4.42 -4.68  4.09
Si  6.91 -2.31 -2.45
Si -6.95  2.29  2.38
Si  6.96  2.29  2.38
Si -2.13  1.21  7.31
Si -3.92 -3.44 -5.68
Si  3.99  3.44  5.64
Si  2.20 -1.21 -7.34
Si -7.00 -2.31 -2.45
Si  5.99 -4.62 -2.44
Si  2.97  1.14 -7.30
Si -3.07 -1.21  7.30
Si -6.06  4.62  2.49
Si  0.15  6.96  4.00
Si  5.58 -5.73  0.89
Si -5.65  1.25 -5.60
Si -0.10 -6.99 -4.05
Si  0.49  3.57 -7.25
Si -6.16 -4.66  2.44
Si  5.66 -1.09  5.73
Si  6.20  4.63 -2.50
Si -0.47 -3.40  7.38
Si  3.38 -7.02  2.38
Si -5.57  5.89 -0.76
Si -7.36 -3.42  0.78
Si  7.78  0.04 -2.44
Si  0.42 -5.87  5.64
Si -3.43  6.99 -2.45
Si -1.28  3.44  7.30
Si -0.35  5.87 -5.68
Si  1.18 -3.52 -7.30
Si -4.68  3.56 -5.72
Si  3.53  6.99 -2.45
Si -1.30 -5.75 -5.72
Si  4.83 -3.49  5.65
Si  1.79  6.95 -4.00
Si -3.57 -7.02  2.38
Si -7.85 -0.03  2.49
Si  1.45  5.82  5.65
Si -1.70  6.97 -4.05
Si  1.74 -7.00  4.00
Si -0.48 -8.19 -0.85
Si  0.55  8.19  0.81
Si -1.86 -6.95  4.05
Si -1.30  8.12 -0.81
Si -8.18 -1.16 -0.84
Si  6.88 -2.29  4.05
Si  1.20 -8.19  0.81
Si  7.51  3.49 -0.84
Si  6.95  2.29 -4.00
Si -6.96  2.29 -4.00
Si  3.89 -1.21  7.30
Si -2.12 -3.49 -7.33
Si -3.98  1.14 -7.30
Si -2.19  5.79  5.68
Si -2.19 -8.08  0.78
Si  2.28  3.56  7.27
Si -7.02 -2.29  4.05
Si  2.10 -5.87 -5.68
Si  8.34  1.23  0.78
Si  2.34  8.14 -0.84
Si  6.01 -4.64  4.05
Si  3.04 -3.44  7.31
Si  2.98 -8.07 -0.76
Si -2.97  3.44 -7.34
Si -6.06  4.62 -4.11
Si -3.08 -5.74  5.73
Si  6.11  4.63  4.09
Si -6.46 -1.09 -5.72
Si  3.09  5.91 -5.60
Si  5.67  3.44 -5.68
Si  3.38 -7.01 -4.00
Si -6.18 -4.73 -4.03
Si  6.57  5.77  0.81
Si  6.62  1.16  5.65
Si  7.80  0.01  4.05
Si -2.96  8.23  0.89
Si -3.45  7.01  4.05
Si -5.77 -3.52  5.68
Si  3.50  7.01  4.05
Si -4.75 -1.21 -7.34
Si -3.58 -7.01 -4.00
Si  4.82  1.21  7.31
Si -7.85 -0.04 -4.11
Si -6.66 -5.84 -0.81
Si -0.89 -0.04  8.87
Si -8.20  3.54  0.81
Si -5.17  6.95  2.38
Si -3.92 -3.44  7.31
Si  0.84  0.01 -8.94
Si  5.12 -6.97 -2.45
Si  3.87 -5.74  5.73
Si -3.86  5.91 -5.60
Si  5.25  6.90  2.46
Si -3.98 -8.07 -0.76
Si  8.26 -3.54 -0.85
Si  3.99  3.44 -7.34
Si -5.31 -7.01 -2.41
Si  9.03 -1.19 -0.81
Si  3.99  8.23  0.89
Si  6.47 -3.40 -5.60
Si -0.07 -2.29 -8.93
Si -9.13  1.11  0.81
Si  5.65 -1.09 -7.25
Si  0.00  2.29  8.98
Si -2.63 -0.03 -8.90
Si  8.63 -2.41  2.46
Si -7.29  1.16  5.65
Si -8.69  2.30 -2.41
Si  2.57 -0.08  8.95
Si  8.69  2.34 -2.45
Si -7.70  4.63 -2.50
Si -4.67  3.56  7.27
Si  7.25 -5.84 -0.81
Si -6.46  3.56  5.73
Si -1.29 -5.75  7.27
Si -8.74 -2.36  2.38
Si  7.75 -4.66  2.44
Si -7.34  5.77  0.81
Si -0.34  5.86  7.31
Si -5.64  1.25  7.38
Si  1.69 -2.34  8.93
Si -4.61  8.14 -0.84
Si  1.71  2.36 -8.93
Si  4.76  5.79  5.68
Si  0.41 -5.86 -7.34
Si  4.77 -8.08  0.78
Si -1.65  2.31 -8.99
Si  7.85  4.62  2.49
Si  4.83 -3.49 -7.33
Si  7.45 -1.09 -5.72
Si -1.78 -2.36  8.98
Si  1.45  5.82 -7.33
Si -7.92 -4.62 -2.44
Si -4.86 -5.87 -5.68
Si  5.10 -6.95  4.05
Si -5.17  6.95 -4.00
Si -2.20  5.79 -7.30
Si  2.10 -5.87  7.30
Si -5.21 -7.00  4.00
Si  5.26  6.97 -4.05
Si -0.80  9.30  2.44
Si  1.04  9.29 -2.50
Si -0.99 -9.32  2.44
Si  0.84 -9.33 -2.50
Si -3.09 -5.74 -7.25
Si -8.60  2.31  4.00
Si -6.46 -1.10  7.27
Si -9.15 -3.42 -0.76
Si -5.50  5.82  5.65
Si -9.49 -0.02 -2.50
Si  8.64 -2.33 -4.05
Si  9.53 -0.01  2.44
Si  8.67  2.36  4.05
Si  3.48  2.32  8.93
Si -3.48  2.32  8.93
Si  5.67  3.44  7.30
Si  9.16  3.58  0.89
Si  5.66 -5.75 -5.72
Si  4.32 -0.03 -8.90
Si -8.74 -2.36 -4.00
Si -3.43 -2.35 -8.99
Si  0.50  8.10 -5.68
Si -7.43 -3.40 -5.60
Si  7.73 -4.73 -4.03
Si  5.65  8.12 -0.81
Si  3.52 -2.35 -8.99
Si -1.18  8.10  5.64
Si -7.80  4.63  4.09
Si  6.62  1.17 -7.33
Si  3.10  5.90  7.38
Si -5.77 -3.52 -7.30
Si  1.24 -8.10 -5.68
Si -4.38 -0.08  8.95
Si -0.60 -8.17  5.68
Si  2.68  9.28  2.49
Si -2.75 -9.27 -2.44
Si  2.49 -9.34  2.49
Si -2.56  9.34 -2.44
Si  7.85  4.62 -4.11
Si -7.89 -4.64  4.05
Si  3.87 -5.74 -7.25
Si -5.75 -8.19  0.81
Si  0.90  4.62  8.87
Si  7.45  3.56  5.73
Si  8.26  1.25 -5.60
Si -0.85  4.63 -8.90
Si -2.27 -8.06 -5.60
Si -9.98 -1.12  0.81
Si -6.91  6.95 -2.41
Si -8.25 -1.09  5.73
Si -0.82  9.23 -4.03
Si -0.94 -4.64 -8.94
Si  6.84 -7.06  2.46
Si -8.32 -5.73  0.89
Si 10.05  1.12 -0.85
Si  0.78 -4.74  8.95
Si  7.00  6.95 -2.41
Si  0.94  9.28  4.09
Si -3.85  5.90  7.38
Si  0.75 -9.34  4.09
Si  8.34  5.89 -0.76
Si -1.01 -9.39 -4.03
Si  2.28  8.22  5.73
Si -7.07 -7.06  2.46
Si  9.52 -0.08 -4.03
Si -6.47  3.57 -7.25
Si  2.53 -4.68 -8.90
Si  3.05 -8.14  5.65
Si -2.60  4.57  8.95
Si -2.68 -4.69  8.87
Si  6.48 -3.40  7.38
Si -7.29  1.17 -7.33
Si -2.89  8.21 -5.72
Si -9.58 -0.03  4.09
Si  2.63  4.67 -8.94
Si -6.41  8.19  0.81
Si -6.54 -5.87  5.64
Si  0.35 -10.42  0.81
Si -0.28 10.42 -0.85
Si  7.45 -1.10  7.27
Si  4.76  5.79 -7.30
Si  4.20 -9.27 -2.44
Si -2.53  9.32  4.05
Si  6.48 -8.19 -0.85
Si  2.68  9.27 -4.11
Si -2.73 -9.30  4.05
Si  6.60  5.87 -5.68
Si  2.49 -9.34 -4.11
Si -4.27  9.28  2.49
Si -6.81  6.96  4.00
Si  8.14 -3.52  5.68
Si -0.90 -0.03 -10.50
Si  1.40 10.42  0.81
Si -4.85 -5.87  7.30
Si  0.83  0.03 10.54
Si -8.24  3.44 -5.68
Si  9.95 -3.54  0.81
Si  6.85 -6.99 -4.05
Si  4.39  9.34 -2.44
Si -5.24  2.36 -8.93
Si -5.26 -2.34  8.93
Si  5.17 -2.36  8.98
Si -1.50 -10.50 -0.81
Si -4.47 -9.34  2.49
Si -10.04  3.46 -0.81
Si -3.91 -8.14  5.65
Si  5.31  2.31 -8.99
Si  7.10  6.96  4.00
Si  2.15 -10.47 -0.84
Si -7.06 -6.99 -4.05
Si -9.03  5.77 -0.85
Si  6.07 -0.04  8.87
Si -1.99 10.54  0.78
Si -9.09  1.21 -5.68
Si -0.04 -2.32 10.54
Si -2.53 -0.02 10.49
Si  9.09 -5.77  0.81
Si  4.06  8.21 -5.72
Si  9.16 -1.21  5.64
Si -6.11  0.01 -8.94
Si -0.00  2.29 -10.60
Si  2.58 -0.01 -10.55
Si -5.51  5.82 -7.33
Si  5.66 -5.75  7.27
Si  4.69 -8.06 -5.60
Si -9.54  4.64  2.44
Si -3.16 -10.38  0.89
Si -10.81  1.12 -0.85
Si  0.51  8.09  7.30
Si  4.28 -4.69  8.87
Si 10.38 -2.35 -2.41
Si  1.67 -2.40 -10.52
Si  9.56  4.69 -2.44
Si 10.41  2.25  2.46
Si  1.74  2.34 10.54
Si  9.59 -4.67 -2.50
Si -7.30  5.87 -5.68
Si  4.36  4.57  8.95
Si -1.73  2.30 10.58
Si -10.45  2.25  2.46
Si 10.88 -1.12  0.81
Si -4.32  4.67 -8.94
Si -0.60 -8.17 -7.30
Si  1.25 -8.10  7.31
Si  7.37 -5.87  5.64
Si -4.42 -4.68 -8.90
Si  4.23 -9.30  4.05
Si  7.44  3.57 -7.25
Si -1.18  8.10 -7.34
Si -9.63 -4.69  2.49
Si -10.48 -2.35 -2.41
Si -4.27  9.27 -4.11
Si -1.79 -2.36 -10.60
Si -7.43 -3.40  7.38
Si  3.17 10.55 -0.76
Si -8.26 -1.09 -7.25
Si -4.68  8.22  5.73
Si  4.42  9.32  4.05
Si  3.80 -10.38  0.89
Si -7.43 -8.19 -0.85
Si  7.50  8.19  0.81
Si -4.47 -9.34 -4.11
Si  8.27  1.25  7.38
Si -2.26 -8.06  7.38
Si  2.27  8.22 -7.25
Si -3.79 10.55 -0.76
Si -9.07 -3.49  5.65
Si -5.92  9.29 -2.50
Si  3.46  2.25 -10.52
Si -3.50  2.25 -10.52
Si  5.96 -9.32  2.44
Si -9.56  4.58 -4.03
Si -2.88  8.21  7.27
Si -0.10 -6.99  8.93
Si -8.66  6.90  2.46
Si  9.49 -4.68  4.09
Si  8.60 -7.01 -2.41
Si  3.43 -2.36 10.58
Si -10.38 -2.35  4.00
Si  0.14  6.96 -8.99
Si  3.04 -8.14 -7.33
Si  4.42 -0.02 10.49
Si 10.82  3.46 -0.81
Si -3.52 -2.36 10.58
Si  9.59  4.67  4.05
Si  6.15  9.30  2.44
Si  8.74  6.95  2.38
Si -5.71 -8.10 -5.68
Si -4.38 -0.01 -10.55
Si 10.43  2.32 -4.05
Si  9.23  3.56 -5.72
Si -6.11 -9.33 -2.50
Si -10.44  2.32 -4.05
Si  5.78  8.10  5.64
Si -6.54 -5.86 -7.34
Si -1.69  6.97  8.93
Si 10.48 -2.35  4.00
Si  6.61  5.86  7.31
Si -1.86 -6.95 -8.93
Si -9.63 -4.69 -4.11
Si -8.79 -6.97 -2.45
Si  8.14 -3.52 -7.30
Si -0.74  4.63 10.49
Si  1.79  6.95  8.98
Si  9.93  1.14  5.68
Si  0.89  4.62 -10.50
Si -10.92 -3.54  0.81
Si  6.88 -2.29 -8.93
Si  1.74 -7.00 -8.99
Si -8.23  3.44  7.30
Si -4.80 -10.47 -0.84
Si -0.96 -4.62 10.54
Si  0.79 -4.66 -10.55
Si -8.25 -5.75 -5.72
Si -9.97 -5.82 -0.84
Si -6.95  2.29  8.98
