500
set: 1007.00  0.00  0.00
Si -0.38  1.21 -0.89
Si  0.44 -1.21  0.94
Si -1.31 -1.15 -0.86
Si  1.38  1.29  0.81
Si  2.16 -1.17 -0.83
Si -2.16  1.25  0.83
Si  0.88  0.02 -2.51
Si -0.89 -0.01  2.53
Si -3.15 -1.18  0.78
Si -0.01  2.38  2.53
Si  3.19  1.23 -0.78
Si -0.07 -2.49 -2.49
Si  2.63 -0.02  2.48
Si -2.72 -0.00 -2.48
Si -0.50 -3.57  0.81
Si  0.58  3.71 -0.86
Si  1.82  2.36 -2.49
Si  1.31 -3.63 -0.78
Si -1.80  2.40 -2.56
Si -1.27  3.67  0.78
Si  1.81 -2.52  2.51
Si -1.89 -2.48  2.53
Si -4.00  1.23 -0.78
Si  4.04 -1.18  0.78
Si -0.95 -0.05 -4.18
Si  0.88 -0.07  4.22
Si -2.26 -3.65 -0.89
Si  2.32  3.64  0.94
Si  0.05  2.42 -4.18
Si -0.07 -2.41  4.19
Si  3.15 -3.60  0.83
Si -3.50  2.34  2.51
Si -3.15  3.69 -0.83
Si -2.74 -0.03  4.15
Si  3.51 -2.46 -2.56
Si  2.75 -0.09 -4.20
Si  3.69  2.34  2.51
Si  4.47 -0.00 -2.48
Si -3.69 -2.46 -2.56
Si  1.68 -2.45 -4.23
Si -1.84 -2.44 -4.18
Si  1.82  2.44  4.19
Si -1.78  2.42  4.23
Si -4.57 -0.02  2.48
Si -5.03 -1.17 -0.83
Si  5.04  1.25  0.83
Si -4.04 -3.60  0.83
Si -0.83  4.85 -2.48
Si  0.74 -4.88  2.48
Si  4.05  3.69 -0.83
Si -1.01 -4.84 -2.51
Si  0.99  4.84  2.53
Si -0.36  1.28  5.85
Si -5.81  1.29  0.81
Si  0.44 -1.14 -5.90
Si  3.53 -2.43  4.23
Si  3.57  2.40 -4.23
Si  2.59 -4.86 -2.48
Si  1.38  1.22 -5.77
Si -2.68  4.83  2.48
Si  5.89 -1.15 -0.86
Si -3.63  2.40 -4.23
Si  4.45 -0.03  4.15
Si -1.32 -1.22  5.81
Si  0.28 -6.03 -0.83
Si -3.66 -2.43  4.23
Si -4.44 -0.09 -4.20
Si  2.76  4.87 -2.51
Si -2.78 -4.87  2.53
Si -4.87  3.64  0.94
Si -0.27  6.11  0.83
Si  4.93 -3.65 -0.89
Si -1.45 -6.07  0.94
Si  1.51  6.06 -0.89
Si  5.30 -2.48  2.53
Si -5.38  2.36 -2.49
Si -0.86  4.82  4.15
Si  5.39  2.40 -2.56
Si  0.94  4.80 -4.18
Si -2.21  1.25 -5.93
Si -5.38 -2.52  2.51
Si  2.25 -1.20  5.93
Si  2.15 -6.04  0.78
Si -2.12  6.08 -0.78
Si  0.87 -4.94 -4.20
Si -1.01 -4.92  4.22
Si -3.10 -1.17 -5.87
Si  3.10  1.26  5.88
Si  6.30 -0.01  2.53
Si -6.32  0.02 -2.51
Si -0.51 -3.64 -5.77
Si -2.56  4.77 -4.20
Si -3.19 -6.00 -0.86
Si  0.57  3.63  5.81
Si  2.57 -4.89  4.15
Si -6.76 -1.21  0.94
Si  2.76  4.79  4.22
Si -5.89 -3.63 -0.78
Si  6.82  1.21 -0.89
Si  1.22 -3.60  5.88
Si  3.27  6.14  0.81
Si  5.92  3.67  0.78
Si -1.22  3.68 -5.87
Si -2.83 -4.91 -4.18
Si  4.41 -4.87  2.53
Si -4.43  4.87 -2.51
Si  4.51  4.83  2.48
Si -4.61 -4.86 -2.48
Si -2.25 -3.58  5.85
Si  5.36 -2.44 -4.18
Si -5.37  2.44  4.19
Si  4.09 -1.17 -5.87
Si  4.00 -6.00 -0.86
Si -4.09  1.26  5.88
Si  5.42  2.42  4.23
Si -3.93  6.14  0.81
Si  2.33  3.71 -5.90
Si -5.51 -2.45 -4.23
Si  6.25 -0.05 -4.18
Si -6.32 -0.07  4.22
Si  3.10 -3.61 -5.93
Si -3.06  3.65  5.93
Si  0.44 -1.14  7.52
Si  6.69 -3.57  0.81
Si -6.62  3.71 -0.86
Si -0.36  1.28 -7.57
Si  0.09  7.25 -2.56
Si -7.57  1.21 -0.89
Si -4.43  4.79  4.22
Si  4.36 -4.91 -4.18
Si  7.63 -1.21  0.94
Si -0.08 -7.37  2.51
Si -1.61  7.19  2.51
Si -1.32 -1.22 -7.60
Si -4.95 -1.20  5.93
Si  4.98  1.25 -5.93
Si  1.38  1.22  7.64
Si  4.64  4.77 -4.20
Si  1.88  7.23  2.53
Si -5.04 -6.04  0.78
Si -2.21  1.25  7.49
Si -4.63 -4.89  4.15
Si  2.25 -1.20 -7.49
Si  1.62 -7.32 -2.56
Si  7.13 -2.49 -2.49
Si  5.08  6.08 -0.78
Si  7.19  2.38  2.53
Si -7.20  2.38  2.53
Si -1.95 -7.35 -2.49
Si -4.10 -3.61 -5.93
Si -7.26 -2.49 -2.49
Si  4.13  3.65  5.93
Si -3.10 -1.17  7.54
Si  3.10  1.26 -7.53
Si  6.19 -4.84 -2.51
Si -6.20  4.84  2.53
Si -5.82  1.22 -5.77
Si  5.87 -1.22  5.81
Si -5.69  6.06 -0.89
Si  6.36  4.85 -2.48
Si -3.49  7.21 -2.49
Si  5.75 -6.07  0.94
Si  0.11  7.28  4.23
Si  1.22 -3.60 -7.53
Si -0.20 -7.30 -4.23
Si  0.56  3.63 -7.60
Si  4.94 -3.58  5.85
Si  8.07  0.02 -2.51
Si -6.45 -4.88  2.48
Si -8.09 -0.01  2.53
Si  3.42 -7.33  2.53
Si -1.22  3.68  7.54
Si -0.51 -3.64  7.64
Si  0.36 -6.06  5.93
Si  3.70  7.21 -2.49
Si -4.87  3.71 -5.90
Si -0.33  6.10 -5.93
Si -7.70 -3.57  0.81
Si -1.45 -6.00 -5.90
Si -0.58 -8.48 -0.78
Si -1.74  7.26 -4.23
Si  1.65 -7.29  4.23
Si  0.62  8.53  0.78
Si  1.27 -8.46  0.83
Si  1.93  7.27 -4.18
Si  1.52  6.13  5.85
Si -1.95 -7.27  4.19
Si  7.13 -2.41  4.19
Si -8.50 -1.15 -0.86
Si -7.15  2.42 -4.18
Si -3.77 -7.33  2.53
Si  7.77  3.71 -0.86
Si  4.09 -1.17  7.54
Si -4.09  1.26 -7.53
Si -2.25 -3.58 -7.57
Si -1.26  8.54 -0.83
Si  2.21 -6.03 -5.87
Si  2.33  3.71  7.52
Si  7.24  2.42 -4.18
Si  8.58  1.29  0.81
Si -7.26 -2.41  4.19
Si -2.21  6.11  5.88
Si -2.39 -8.42  0.81
Si  3.10 -3.61  7.49
Si -3.06  3.65 -7.49
Si -6.26  4.80 -4.18
Si  2.46  8.56 -0.86
Si  6.18 -4.92  4.22
Si  6.34  4.82  4.15
Si  3.26  6.07 -5.77
Si -3.21 -6.07  5.81
Si -6.75 -1.14 -5.90
Si -4.95 -1.20 -7.49
Si -2.99  8.50  0.94
Si -6.33 -4.94 -4.20
Si  3.05 -8.50 -0.89
Si  4.98  1.25  7.49
Si  6.83  1.28  5.85
Si  3.47 -7.29 -4.18
Si  8.07 -0.07  4.22
Si -3.49  7.30  4.19
Si -5.97 -3.60  5.88
Si -8.14 -0.05 -4.18
Si  5.98  3.68 -5.87
Si -3.72 -7.29 -4.18
Si  3.71  7.30  4.19
Si -6.92 -6.03 -0.83
Si  0.88 -0.07 -9.20
Si -3.93  6.07 -5.77
Si -8.46  3.67  0.78
Si -4.10 -3.61  7.49
Si  6.92  6.11  0.83
Si  8.50 -3.63 -0.78
Si -0.95 -0.05  9.23
Si  4.13  3.65 -7.49
Si  3.99 -6.07  5.81
Si -5.31  7.23  2.53
Si  5.24 -7.35 -2.49
Si  5.58  7.19  2.51
Si  9.36 -1.17 -0.83
Si -9.35  1.25  0.83
Si -4.15 -8.50 -0.89
Si  4.21  8.50  0.94
Si -0.07 -2.41 -9.22
Si -6.63  3.63  5.81
Si -5.57 -7.32 -2.56
Si  0.05  2.42  9.23
Si  6.69 -3.64 -5.77
Si  2.75 -0.09  9.21
Si  7.47 -6.03 -0.83
Si  0.36 -6.06 -7.49
Si  7.93 -4.88  2.48
Si -7.56  1.28  5.85
Si  9.01  2.36 -2.49
Si -8.99  2.40 -2.56
Si  1.68 -2.45  9.19
Si -0.33  6.10  7.49
Si -1.78  2.42 -9.18
Si -2.74 -0.03 -9.27
Si  9.00 -2.52  2.51
Si -5.82  1.22  7.64
Si  5.87 -1.22 -7.60
Si -7.47  6.11  0.83
Si -4.87  3.71  7.52
Si -8.03  4.85 -2.48
Si  1.82  2.44 -9.22
Si  7.63 -1.14 -5.90
Si  4.94 -3.58 -7.57
Si -1.45 -6.00  7.52
Si -1.84 -2.44  9.23
Si  4.81 -8.42  0.81
Si -9.08 -2.48  2.53
Si -4.99 -6.03 -5.87
Si -4.73  8.56 -0.86
Si  4.99  6.11  5.88
Si  8.19  4.84  2.53
Si -8.20 -4.84 -2.51
Si  1.52  6.13 -7.57
Si  5.24 -7.27  4.19
Si -5.26  7.27 -4.18
Si  2.21 -6.03  7.54
Si -2.21  6.11 -7.53
Si  5.45  7.26 -4.23
Si -0.80  9.69  2.48
Si  0.70 -9.71 -2.48
Si  1.05  9.71 -2.48
Si -5.55 -7.29  4.23
Si -1.15 -9.73  2.48
Si  9.82 -0.02  2.48
Si  8.88 -2.45 -4.23
Si  3.53 -2.43 -9.18
Si  3.57  2.40  9.19
Si -3.62  2.40  9.19
Si -6.75 -1.14  7.52
Si -9.46 -3.65 -0.89
Si -3.66 -2.43 -9.18
Si  5.75 -6.00 -5.90
Si -5.67  6.13  5.85
Si -8.97  2.42  4.23
Si -9.91 -0.00 -2.48
Si -4.44 -0.09  9.21
Si  9.52  3.64  0.94
Si  9.01  2.44  4.19
Si -3.21 -6.07 -7.60
Si -9.03 -2.44 -4.18
Si -8.05  4.82  4.15
Si -5.98 -3.60 -7.53
Si  6.83  1.28 -7.57
Si  4.45 -0.03 -9.27
Si -7.70 -3.64 -5.77
Si  3.26  6.07  7.64
Si  5.98  3.68  7.54
Si -0.67 -8.45  5.88
Si  8.13  4.80 -4.18
Si  8.06 -4.94 -4.20
Si  7.76  3.63  5.81
Si  2.53 -9.72  2.53
Si -5.93 -8.46  0.83
Si -2.55  9.72 -2.51
Si -8.51 -1.22  5.81
Si  0.67  8.54 -5.87
Si  8.57  1.22 -5.77
Si  1.21 -8.46 -5.93
Si -2.89 -9.69 -2.51
Si  2.88  9.70  2.53
Si  5.93  8.54 -0.83
Si -1.17  8.51  5.93
Si -10.35 -1.18  0.78
Si  0.94  4.80  9.23
Si -8.20 -4.92  4.22
Si -7.11  7.25 -2.56
Si -1.01 -4.92 -9.20
Si -0.86  4.82 -9.27
Si 10.39  1.23 -0.78
Si  0.87 -4.94  9.21
Si  3.99 -6.07 -7.60
Si -0.67  9.62 -4.20
Si -3.93  6.07  7.64
Si -2.39 -8.49 -5.77
Si  7.12 -7.37  2.51
Si  2.45  8.49  5.81
Si  1.03  9.68  4.15
Si  7.28  7.25 -2.56
Si -8.64 -6.07  0.94
Si  0.68 -9.74  4.15
Si  8.70  6.06 -0.89
Si -7.27 -7.37  2.51
Si -2.56  4.77  9.21
Si  3.06 -8.43  5.85
Si -1.02 -9.80 -4.20
Si -6.63  3.63 -7.60
Si  2.76  4.79 -9.20
Si -9.94 -0.03  4.15
Si -7.56  1.28 -7.57
Si  7.63 -1.14  7.52
Si  6.62 -8.48 -0.78
Si  2.57 -4.89 -9.27
Si  6.69 -3.64  7.64
Si  9.95 -0.09 -4.20
Si -6.58  8.53  0.78
Si -2.98  8.57 -5.90
Si -2.55  9.64  4.22
Si -2.83 -4.91  9.23
Si -4.99 -6.03  7.54
Si  8.41 -3.60  5.88
Si -6.83 -6.06  5.93
Si -8.41  3.68 -5.87
Si  2.82  9.66 -4.18
Si  4.30 -9.69 -2.51
Si  2.48 -9.76 -4.18
Si  4.99  6.11 -7.53
Si -4.32  9.70  2.53
Si -0.90 -0.01 -10.88
Si  0.27 -10.89  0.78
Si  6.87  6.10 -5.93
Si  5.42  2.42 -9.18
Si  0.88  0.02 10.90
Si -5.38  2.44 -9.22
Si  5.36 -2.44  9.23
Si  6.99 -7.30 -4.23
Si -0.23 10.94 -0.78
Si 10.35 -3.60  0.83
Si -5.51 -2.45  9.19
Si -7.09  7.28  4.23
Si -10.34  3.69 -0.83
Si -1.61 -10.88 -0.83
Si -2.89 -9.78  4.22
Si -4.13 -8.43  5.85
Si  4.65  9.72 -2.51
Si -4.67 -9.72  2.53
Si  2.12 -10.86 -0.86
Si  1.61 10.96  0.83
Si -0.01  2.38 -10.89
Si  7.30  7.28  4.23
Si  6.25 -0.05  9.23
Si -9.31  6.08 -0.78
Si  9.35 -6.04  0.78
Si -6.32 -0.07 -9.20
Si -9.41  1.25 -5.93
Si  9.78 -4.86 -2.48
Si  5.75 -6.00  7.52
Si -0.07 -2.49 10.92
Si -2.04 11.00  0.81
Si  9.44 -1.20  5.93
Si  4.21  8.57 -5.90
Si -7.40 -7.30 -4.23
Si -10.69  2.34  2.51
Si  2.62 -0.02 -10.94
Si -1.80  2.40 10.85
Si -2.72 -0.00 10.94
Si -5.67  6.13 -7.57
Si -9.88  4.83  2.48
Si -4.43  4.79 -9.20
Si 10.70 -2.46 -2.56
Si -11.20  1.23 -0.78
Si  1.82  2.36 10.92
Si 11.23 -1.18  0.78
Si -1.89 -2.48 -10.89
Si  4.36 -4.91  9.23
Si -4.74  8.49  5.81
Si  4.80 -8.49 -5.77
Si  1.81 -2.52 -10.91
Si -0.67 -8.45 -7.53
Si -7.52  6.10 -5.93
Si  7.56 -6.06  5.93
Si  4.64  4.77  9.21
Si  1.21 -8.46  7.49
Si  9.96  4.87 -2.51
Si -9.97 -4.87  2.53
Si -1.18  8.51 -7.49
Si -4.37  9.66 -4.18
Si  0.67  8.54  7.54
Si 10.89  2.34  2.51
Si -10.88 -2.46 -2.56
Si -7.70 -3.64  7.64
Si  7.76  3.63 -7.60
Si -4.63 -4.89 -9.27
Si -3.33 -10.92  0.94
Si  3.39 10.92 -0.89
Si -8.51 -1.22 -7.60
Si  4.30 -9.78  4.22
Si  4.65  9.64  4.22
Si -7.77 -8.48 -0.78
Si  8.57  1.22  7.64
Si  7.81  8.53  0.78
Si -3.80 10.92 -0.89
Si -4.72 -9.76 -4.18
Si  3.86 -10.92  0.94
Si -9.75  4.77 -4.20
Si -8.81  7.19  2.51
Si  2.45  8.49 -7.60
Si  3.51 -2.46 10.85
Si -9.44 -3.58  5.85
Si -2.39 -8.49  7.64
Si  9.76 -4.89  4.15
Si -3.50  2.34 -10.91
Si  0.11  7.28 -9.18
Si -3.68 -2.46 10.85
Si  6.05 -9.73  2.48
Si  3.06 -8.43 -7.57
Si -0.20 -7.30  9.19
Si  8.82 -7.32 -2.56
Si  3.69  2.34 -10.91
Si -6.14  9.71 -2.48
Si -2.98  8.57  7.52
Si 10.72 -2.43  4.23
Si  9.52  3.71 -5.90
Si -6.83 -6.06 -7.49
Si 10.76  2.40 -4.23
Si  4.47 -0.00 10.94
Si  9.96  4.79  4.22
Si -11.24 -3.60  0.83
Si -1.74  7.26  9.19
Si  1.65 -7.29 -9.18
Si  6.87  6.10  7.49
Si -4.57 -0.02 -10.94
Si  8.41 -3.60 -7.53
Si 11.24  3.69 -0.83
Si -10.82  2.40 -4.23
Si  6.40  9.69  2.48
Si  9.07  7.23  2.53
Si -8.41  3.68  7.54
Si -1.95 -7.27 -9.22
Si  7.13 -2.41 -9.22
Si -10.86 -2.43  4.23
Si -10.29 -1.17 -5.87
Si  1.93  7.27  9.23
Si -10.03 -4.91 -4.18
Si -7.15  2.42  9.23
Si 10.30  1.26  5.88
Si 11.67 -0.00 -2.48
Si -5.98 -8.46 -5.93
Si -6.49 -9.71 -2.48
Si  0.99  4.84 -10.88
Si -1.01 -4.84 10.90
Si -7.26 -2.41 -9.22
Si  7.24  2.42  9.23
Si  6.02  8.51  5.93
Si  8.46 -8.46  0.83
Si -9.15 -7.35 -2.49
