500
set: 19.00  0.00  0.00
Si  0.00  0.00  0.00
Si  0.74  2.29  0.00
Si -0.74 -2.29  0.00
Si -0.12 -0.44  2.47
Si  0.12  0.44 -2.47
Si  2.69  0.00  0.00
Si -2.69  0.00  0.00
Si -1.95  2.29  0.00
Si  1.95 -2.29  0.00
Si  0.61  1.85  2.47
Si -0.61 -1.85 -2.47
Si  2.56 -0.44  2.47
Si -2.56  0.44 -2.47
Si -2.07  1.85  2.47
Si  2.07 -1.85 -2.47
Si -2.81 -0.44  2.47
Si  2.81  0.44 -2.47
Si -0.87 -2.73  2.47
Si  0.87  2.73 -2.47
Si  1.82 -2.73  2.47
Si -1.82  2.73 -2.47
Si  3.43  2.29  0.00
Si -3.43 -2.29  0.00
Si -3.30 -1.85 -2.47
Si  3.30  1.85  2.47
Si -1.21  4.59  0.00
Si  1.21 -4.59  0.00
Si  1.48  4.59  0.00
Si -1.48 -4.59  0.00
Si -1.33  4.15  2.47
Si  1.33 -4.15 -2.47
Si  1.36  4.15  2.47
Si -1.36 -4.15 -2.47
Si  0.25  0.88 -4.94
Si -0.25 -0.88  4.94
Si -3.55 -2.73  2.47
Si  3.55  2.73 -2.47
Si  0.49  1.42  4.94
Si -0.49 -1.42 -4.94
Si -4.63  2.29  0.00
Si  4.63 -2.29  0.00
Si  5.37  0.00  0.00
Si -5.37  0.00  0.00
Si  2.44 -0.88  4.94
Si -2.44  0.88 -4.94
Si -2.20  1.42  4.94
Si  2.20 -1.42 -4.94
Si  4.76 -1.85 -2.47
Si -4.76  1.85  2.47
Si -1.08  5.03 -2.47
Si  1.08 -5.03  2.47
Si -2.94 -0.88  4.94
Si  2.94  0.88 -4.94
Si -5.25  0.44 -2.47
Si  5.25 -0.44  2.47
Si  4.51 -2.73  2.47
Si -4.51  2.73 -2.47
Si  1.61  5.03 -2.47
Si -1.61 -5.03  2.47
Si -0.99 -3.17  4.94
Si  0.99  3.17 -4.94
Si  3.89 -4.59  0.00
Si -3.89  4.59  0.00
Si  3.18  1.42  4.94
Si -3.18 -1.42 -4.94
Si -5.50 -0.44  2.47
Si  5.50  0.44 -2.47
Si  1.70 -3.17  4.94
Si -1.70  3.17 -4.94
Si  4.17  4.59  0.00
Si -4.17 -4.59  0.00
Si -4.02  4.15  2.47
Si  4.02 -4.15 -2.47
Si -4.04 -4.15 -2.47
Si  4.04  4.15  2.47
Si  1.23  3.71  4.94
Si -1.23 -3.71 -4.94
Si  1.46 -3.71 -4.94
Si -1.46  3.71  4.94
Si  6.12  2.29  0.00
Si -6.12 -2.29  0.00
Si  5.99  1.85  2.47
Si -5.99 -1.85 -2.47
Si -3.77  5.03 -2.47
Si  3.77 -5.03  2.47
Si  0.47 -6.88  0.00
Si -0.47  6.88  0.00
Si  0.59 -6.44 -2.47
Si -0.59  6.44  2.47
Si  3.68  3.17 -4.94
Si -3.68 -3.17  4.94
Si  4.29  5.03 -2.47
Si -4.29 -5.03  2.47
Si  4.88 -1.42 -4.94
Si -4.88  1.42  4.94
Si  5.12 -0.88  4.94
Si -5.12  0.88 -4.94
Si  2.10  6.44  2.47
Si -2.10 -6.44 -2.47
Si  2.22  6.88  0.00
Si -2.22 -6.88  0.00
Si  6.24  2.73 -2.47
Si -6.24 -2.73  2.47
Si  3.92  3.71  4.94
Si -3.92 -3.71 -4.94
Si  4.38 -3.17  4.94
Si -4.38  3.17 -4.94
Si -0.95  5.47 -4.94
Si  0.95 -5.47  4.94
Si  4.14 -3.71 -4.94
Si -4.14  3.71  4.94
Si  0.36  0.98  7.41
Si -0.36 -0.98 -7.41
Si  0.38  1.32 -7.41
Si -0.38 -1.32  7.41
Si  5.62  0.88 -4.94
Si -5.62 -0.88  4.94
Si  1.73  5.47 -4.94
Si -1.73 -5.47  4.94
Si -3.15  6.88  0.00
Si  3.15 -6.88  0.00
Si  3.28 -6.44 -2.47
Si -3.28  6.44  2.47
Si -7.32  2.29  0.00
Si  7.32 -2.29  0.00
Si -0.34  7.32 -2.47
Si  0.34 -7.32  2.47
Si  5.86  1.42  4.94
Si -5.86 -1.42 -4.94
Si  0.72 -6.00 -4.94
Si -0.72  6.00  4.94
Si -2.32  0.98  7.41
Si  2.32 -0.98 -7.41
Si -2.31  1.32 -7.41
Si  2.31 -1.32  7.41
Si -1.97 -6.00 -4.94
Si  1.97  6.00  4.94
Si -6.58  4.59  0.00
Si  6.58 -4.59  0.00
Si  7.45 -1.85 -2.47
Si -7.45  1.85  2.47
Si  8.06  0.00  0.00
Si -8.06  0.00  0.00
Si  3.05  0.98  7.41
Si -3.05 -0.98 -7.41
Si  2.35  7.32 -2.47
Si -2.35 -7.32  2.47
Si  7.20 -2.73  2.47
Si -7.20  2.73 -2.47
Si -3.06 -1.32  7.41
Si  3.06  1.32 -7.41
Si  1.10  3.27  7.41
Si -1.10 -3.27 -7.41
Si  3.64 -5.47  4.94
Si -3.64  5.47 -4.94
Si  6.86  4.59  0.00
Si -6.86 -4.59  0.00
Si  1.58 -3.27 -7.41
Si -1.58  3.27  7.41
Si -6.71  4.15  2.47
Si  6.71 -4.15 -2.47
Si -6.73 -4.15 -2.47
Si  6.73  4.15  2.47
Si -3.03  7.32 -2.47
Si  3.03 -7.32  2.47
Si -1.12 -3.61  7.41
Si  1.12  3.61 -7.41
Si -7.94  0.44 -2.47
Si  7.94 -0.44  2.47
Si  1.57 -3.61  7.41
Si -1.57  3.61 -7.41
Si -4.78 -6.44 -2.47
Si  4.78  6.44  2.47
Si  4.91  6.88  0.00
Si -4.91 -6.88  0.00
Si -3.40  6.00  4.94
Si  3.40 -6.00 -4.94
Si  6.45 -5.03  2.47
Si -6.45  5.03 -2.47
Si -8.19 -0.44  2.47
Si  8.19  0.44 -2.47
Si  4.42  5.47 -4.94
Si -4.42 -5.47  4.94
Si  6.37  3.17 -4.94
Si -6.37 -3.17  4.94
Si -3.79 -3.27 -7.41
Si  3.79  3.27  7.41
Si -6.98 -5.03  2.47
Si  6.98  5.03 -2.47
Si  5.01 -0.98 -7.41
Si -5.01  0.98  7.41
Si  5.84 -6.88  0.00
Si -5.84  6.88  0.00
Si -5.00  1.32 -7.41
Si  5.00 -1.32  7.41
Si  6.61  3.71  4.94
Si -6.61 -3.71 -4.94
Si -4.66 -6.00 -4.94
Si  4.66  6.00  4.94
Si  3.80  3.61 -7.41
Si -3.80 -3.61  7.41
Si  0.15  8.74  2.47
Si -0.15 -8.74 -2.47
Si -8.80 -2.29  0.00
Si  8.80  2.29  0.00
Si -5.96  6.44  2.47
Si  5.96 -6.44 -2.47
Si  7.57 -1.42 -4.94
Si -7.57  1.42  4.94
Si -4.27  3.27  7.41
Si  4.27 -3.27 -7.41
Si  0.28  9.18  0.00
Si -0.28 -9.18  0.00
Si  7.07 -3.17  4.94
Si -7.07  3.17 -4.94
Si  0.21 -7.76  4.94
Si -0.21  7.76 -4.94
Si  6.83 -3.71 -4.94
Si -6.83  3.71  4.94
Si -8.68 -1.85 -2.47
Si  8.68  1.85  2.47
Si -5.04 -7.32  2.47
Si  5.04  7.32 -2.47
Si  4.26 -3.61  7.41
Si -4.26  3.61 -7.41
Si -7.81  0.88 -4.94
Si  7.81 -0.88  4.94
Si -0.84  5.57  7.41
Si  0.84 -5.57 -7.41
Si -5.74 -0.98 -7.41
Si  5.74  0.98  7.41
Si -2.54  8.74  2.47
Si  2.54 -8.74 -2.47
Si -1.85 -5.57 -7.41
Si  1.85  5.57  7.41
Si -5.75 -1.32  7.41
Si  5.75  1.32 -7.41
Si  2.41 -9.18  0.00
Si -2.41  9.18  0.00
Si  0.83 -5.91  7.41
Si -0.83  5.91 -7.41
Si -2.84 -8.74 -2.47
Si  2.84  8.74  2.47
Si  2.47  7.76 -4.94
Si -2.47 -7.76  4.94
Si -5.71  7.32 -2.47
Si  5.71 -7.32  2.47
Si -2.96 -9.18  0.00
Si  2.96  9.18  0.00
Si -2.90  7.76 -4.94
Si  2.90 -7.76  4.94
Si -1.86 -5.91  7.41
Si  1.86  5.91 -7.41
Si -8.93 -2.73  2.47
Si  8.93  2.73 -2.47
Si -0.03 -8.30 -4.94
Si  0.03  8.30  4.94
Si  8.31  0.88 -4.94
Si -8.31 -0.88  4.94
Si  6.33 -5.47  4.94
Si -6.33  5.47 -4.94
Si -6.09  6.00  4.94
Si  6.09 -6.00 -4.94
Si -0.24 -0.54 -9.88
Si  0.24  0.54  9.88
Si -3.53  5.57  7.41
Si  3.53 -5.57 -7.41
Si -0.40 -9.62  2.47
Si  0.40  9.62 -2.47
Si -8.55 -1.42 -4.94
Si  8.55  1.42  4.94
Si -2.66  8.30  4.94
Si  2.66 -8.30 -4.94
Si -2.71 -8.30 -4.94
Si  2.71  8.30  4.94
Si -0.50 -1.75  9.88
Si  0.50  1.75 -9.88
Si -3.52  5.91 -7.41
Si  3.52 -5.91  7.41
Si  7.47  6.44  2.47
Si -7.47 -6.44 -2.47
Si -2.29  9.62 -2.47
Si  2.29 -9.62  2.47
Si -2.45  0.54  9.88
Si  2.45 -0.54 -9.88
Si -7.11 -5.47  4.94
Si  7.11  5.47 -4.94
Si -7.60 -6.88  0.00
Si  7.60  6.88  0.00
Si -2.19  1.75 -9.88
Si  2.19 -1.75  9.88
Si -10.01  2.29  0.00
Si 10.01 -2.29  0.00
Si -2.93 -0.54 -9.88
Si  2.93  0.54  9.88
Si -4.53 -5.57 -7.41
Si  4.53  5.57  7.41
Si -0.98 -2.83 -9.88
Si  0.98  2.83  9.88
Si -9.27  4.59  0.00
Si  9.27 -4.59  0.00
Si -6.48 -3.27 -7.41
Si  6.48  3.27  7.41
Si -3.09 -9.62  2.47
Si  3.09  9.62 -2.47
Si -1.71  2.83  9.88
Si  1.71 -2.83 -9.88
Si  5.22 -8.74 -2.47
Si -5.22  8.74  2.47
Si -6.49 -3.61  7.41
Si  6.49  3.61 -7.41
Si -5.10  9.18  0.00
Si  5.10 -9.18  0.00
Si -4.54 -5.91  7.41
Si  4.54  5.91 -7.41
Si -3.19 -1.75  9.88
Si  3.19  1.75 -9.88
Si  9.88 -2.73  2.47
Si -9.88  2.73 -2.47
Si  5.16  7.76 -4.94
Si -5.16 -7.76  4.94
Si -9.39  4.15  2.47
Si  9.39 -4.15 -2.47
Si -9.42 -4.15 -2.47
Si  9.42  4.15  2.47
Si  9.54  4.59  0.00
Si -9.54 -4.59  0.00
Si 10.13 -1.85 -2.47
Si -10.13  1.85  2.47
Si  5.53  8.74  2.47
Si -5.53 -8.74 -2.47
Si  6.96 -3.27 -7.41
Si -6.96  3.27  7.41
Si  7.34  6.00  4.94
Si -7.34 -6.00 -4.94
Si -9.14  5.03 -2.47
Si  9.14 -5.03  2.47
Si  7.70 -0.98 -7.41
Si -7.70  0.98  7.41
Si -1.24 -4.05  9.88
Si  1.24  4.05 -9.88
Si -10.75  0.00  0.00
Si 10.75  0.00  0.00
Si -7.68  1.32 -7.41
Si  7.68 -1.32  7.41
Si  5.59 -7.76  4.94
Si -5.59  7.76 -4.94
Si -1.45  4.05 -9.88
Si  1.45 -4.05  9.88
Si  6.94 -3.61  7.41
Si -6.94  3.61 -7.41
Si -5.65 -9.18  0.00
Si  5.65  9.18  0.00
Si -9.05 -3.17  4.94
Si  9.05  3.17 -4.94
Si -0.10  7.86  7.41
Si  0.10 -7.86 -7.41
Si -3.67 -2.83 -9.88
Si  3.67  2.83  9.88
Si -10.62  0.44 -2.47
Si 10.62 -0.44  2.47
Si -7.72 -7.32  2.47
Si  7.72  7.32 -2.47
Si -8.53  6.88  0.00
Si  8.53 -6.88  0.00
Si  5.35 -8.30 -4.94
Si -5.35  8.30  4.94
Si  0.09 -8.20  7.41
Si -0.09  8.20 -7.41
Si  5.40  8.30  4.94
Si -5.40 -8.30 -4.94
Si  8.65 -6.44 -2.47
Si -8.65  6.44  2.47
Si -4.97  9.62 -2.47
Si  4.97 -9.62  2.47
Si -2.59 -7.86 -7.41
Si  2.59  7.86  7.41
Si  5.13 -0.54 -9.88
Si -5.13  0.54  9.88
Si  4.87 -1.75  9.88
Si -4.87  1.75 -9.88
Si -2.79  7.86  7.41
Si  2.79 -7.86 -7.41
Si -6.21  5.57  7.41
Si  6.21 -5.57 -7.41
Si -9.29 -3.71 -4.94
Si  9.29  3.71  4.94
Si 10.87  0.44 -2.47
Si -10.87 -0.44  2.47
Si -0.97  5.13  9.88
Si  0.97 -5.13 -9.88
Si  9.67  5.03 -2.47
Si -9.67 -5.03  2.47
Si -4.39  2.83  9.88
Si  4.39 -2.83 -9.88
Si  0.53 10.05 -4.94
Si -0.53 -10.05  4.94
Si  1.72  5.13  9.88
Si -1.72 -5.13 -9.88
Si  8.43  0.98  7.41
Si -8.43 -0.98 -7.41
Si -8.44 -1.32  7.41
Si  8.44  1.32 -7.41
Si  6.20 -5.91  7.41
Si -6.20  5.91 -7.41
Si -0.89 -11.03 -2.47
Si  0.89 11.03  2.47
Si -9.52  3.71  4.94
Si  9.52 -3.71 -4.94
Si -2.60 -8.20  7.41
Si  2.60  8.20 -7.41
Si -5.61 -0.54 -9.88
Si  5.61  0.54  9.88
Si -3.93 -4.05  9.88
Si  3.93  4.05 -9.88
Si  9.76 -3.17  4.94
Si -9.76  3.17 -4.94
Si -2.78  8.20 -7.41
Si  2.78 -8.20  7.41
Si  2.16 -10.05  4.94
Si -2.16 10.05 -4.94
Si -8.40  7.32 -2.47
Si  8.40 -7.32  2.47
Si -4.13  4.05 -9.88
Si  4.13 -4.05  9.88
Si  1.80 -11.03 -2.47
Si -1.80 11.03  2.47
Si 10.26 -1.42 -4.94
Si -10.26  1.42  4.94
Si  5.78  9.62 -2.47
Si -5.78 -9.62  2.47
Si  1.02 11.47  0.00
Si -1.02 -11.47  0.00
Si  1.67 -11.47  0.00
Si -1.67 11.47  0.00
Si  5.88  1.75 -9.88
Si -5.88 -1.75  9.88
Si 10.50 -0.88  4.94
Si -10.50  0.88 -4.94
Si -9.02  5.47 -4.94
Si  9.02 -5.47  4.94
Si -3.21 -10.05  4.94
Si  3.21 10.05 -4.94
Si -3.65  5.13  9.88
Si  3.65 -5.13 -9.88
Si  0.77 10.59  4.94
Si -0.77 -10.59 -4.94
Si 11.49  2.29  0.00
Si -11.49 -2.29  0.00
Si -8.78  6.00  4.94
Si  8.78 -6.00 -4.94
Si -7.22 -5.57 -7.41
Si  7.22  5.57  7.41
Si -0.70  6.34 -9.88
Si  0.70 -6.34  9.88
Si 11.36  1.85  2.47
Si -11.36 -1.85 -2.47
Si  1.92 -10.59 -4.94
Si -1.92 10.59  4.94
Si -3.58 -11.03 -2.47
Si  3.58 11.03  2.47
Si  1.98  6.34 -9.88
Si -1.98 -6.34  9.88
Si  7.23  5.91 -7.41
Si -7.23 -5.91  7.41
Si  4.41  5.13  9.88
Si -4.41 -5.13 -9.88
Si  5.27  7.86  7.41
Si -5.27 -7.86 -7.41
Si  7.79 -9.18  0.00
Si -7.79  9.18  0.00
Si  7.91 -8.74 -2.47
Si -7.91  8.74  2.47
Si -3.70 -11.47  0.00
Si  3.70 11.47  0.00
Si  6.35  2.83  9.88
Si -6.35 -2.83 -9.88
Si -11.00 -0.88  4.94
Si 11.00  0.88 -4.94
Si  7.85  7.76 -4.94
Si -7.85 -7.76  4.94
Si -5.47  7.86  7.41
Si  5.47 -7.86 -7.41
Si  4.48 -11.03 -2.47
Si -4.48 11.03  2.47
Si -11.61 -2.73  2.47
Si 11.61  2.73 -2.47
Si -3.45 -10.59 -4.94
Si  3.45 10.59  4.94
Si -4.85 10.05 -4.94
Si  4.85 -10.05  4.94
Si -1.14 -11.91  2.47
Si  1.14 11.91 -2.47
Si -3.39  6.34 -9.88
Si  3.39 -6.34  9.88
Si -9.17 -3.27 -7.41
Si  9.17  3.27  7.41
Si -8.21 -8.74 -2.47
Si  8.21  8.74  2.47
Si -5.29 -8.20  7.41
