500
set: 778.00  0.00  0.00
Si -0.39  1.26 -0.84
Si  0.41 -1.24  0.90
Si  1.27  1.14  0.91
Si -1.36 -1.21 -0.85
Si -0.90  0.06  2.42
Si  2.16 -1.25 -0.77
Si  0.94 -0.04 -2.45
Si -2.21  1.24  0.76
Si  3.06  1.11 -0.83
Si -3.06 -1.21  0.79
Si -0.08 -2.38 -2.51
Si  0.03  2.43  2.49
Si -2.61  0.06 -2.48
Si  2.71 -0.02  2.46
Si  0.47  3.53 -0.85
Si -0.56 -3.60  0.91
Si -1.23  3.53  0.79
Si -1.80 -2.31  2.49
Si  1.76 -2.40  2.46
Si  1.75  2.37 -2.51
Si -1.74  2.47 -2.47
Si  1.23 -3.64 -0.83
Si  0.84 -0.01  4.08
Si -0.89  0.06 -4.10
Si -2.22 -3.49 -0.84
Si -4.00  1.11 -0.83
Si  2.24  3.50  0.90
Si  4.01 -1.21  0.79
Si  3.02 -3.50  0.76
Si -3.07  3.49 -0.77
Si  0.03 -2.41  4.14
Si  0.01  2.43 -4.17
Si  3.50 -2.27 -2.47
Si -3.47  2.34  2.46
Si -3.56 -2.27 -2.47
Si -2.65  0.10  4.12
Si  2.67 -0.03 -4.13
Si  3.59  2.34  2.46
Si -4.35 -0.02  2.46
Si  4.85  1.24  0.76
Si -1.69  2.43  4.11
Si  4.45  0.06 -2.48
Si  1.79 -2.39 -4.13
Si  1.86  2.33  4.14
Si -1.82 -2.31 -4.17
Si -4.90 -1.25 -0.77
Si  3.99  3.49 -0.77
Si -4.04 -3.50  0.76
Si  0.88 -4.77  2.46
Si -0.90 -4.78 -2.45
Si  0.93  4.80  2.42
Si -0.78  4.80 -2.48
Si  0.35 -1.23 -5.68
Si -3.44  2.35 -4.13
Si -0.44  1.16  5.74
Si -3.52 -2.31  4.11
Si -2.52  4.72  2.46
Si  5.70 -1.21 -0.85
Si  3.54 -2.31  4.11
Si  2.62 -4.68 -2.48
Si -2.73 -4.69  2.42
Si  1.32  1.14 -5.69
Si  3.62  2.35 -4.13
Si -5.79  1.14  0.91
Si  2.76  4.70 -2.45
Si -1.30 -1.12  5.75
Si -4.82  3.50  0.90
Si -4.39 -0.03 -4.13
Si  4.84 -3.49 -0.84
Si  4.42  0.10  4.12
Si -0.39  5.98  0.76
Si  0.33 -5.99 -0.77
Si -1.42 -5.98  0.90
Si  1.44  6.00 -0.84
Si  5.26 -2.31  2.49
Si  2.15 -1.27  5.76
Si -2.15  1.16 -5.80
Si -2.17  5.85 -0.83
Si -5.30 -2.40  2.46
Si -5.31  2.37 -2.51
Si -0.99 -4.75  4.08
Si  0.84 -4.77 -4.13
Si  5.33  2.47 -2.47
Si  0.94  4.80 -4.10
Si  2.18 -5.95  0.79
Si -0.81  4.84  4.12
Si -6.13 -0.04 -2.45
Si  6.16  0.06  2.42
Si  3.08  1.12  5.82
Si  3.10  5.88  0.91
Si -3.13 -1.13 -5.83
Si  2.59 -4.65  4.12
Si -0.51 -3.61 -5.69
Si -2.56  4.71 -4.13
Si -2.72 -4.68 -4.10
Si  2.67  4.74  4.08
Si -3.19 -5.96 -0.85
Si  0.53  3.62  5.75
Si -6.65 -1.24  0.90
Si -4.30  4.70 -2.45
Si  4.33 -4.69  2.42
Si  6.67  1.26 -0.84
Si  5.84  3.53  0.79
Si -4.44 -4.68 -2.48
Si -5.83 -3.64 -0.83
Si  1.25 -3.62  5.82
Si -1.31  3.61 -5.83
Si  4.54  4.72  2.46
Si  2.18  3.52 -5.68
Si -5.21  2.33  4.14
Si  5.24 -2.31 -4.17
Si -5.28 -2.39 -4.13
Si  3.92 -1.13 -5.83
Si -2.27 -3.59  5.74
Si -3.98  1.12  5.82
Si -3.96  5.88  0.91
Si  3.88 -5.96 -0.85
Si  5.37  2.43  4.11
Si -3.08  3.48  5.76
Si  6.17  0.06 -4.10
Si -6.22 -0.01  4.08
Si  3.08 -3.58 -5.80
Si  6.50 -3.60  0.91
Si -6.59  3.53 -0.85
Si -0.45  1.16 -7.44
Si -0.07 -7.14  2.46
Si  4.34 -4.68 -4.10
Si -7.45  1.26 -0.84
Si  0.36 -1.23  7.50
Si  0.09  7.21 -2.47
Si  1.67 -7.02 -2.47
Si -1.31 -1.11 -7.43
Si  7.47 -1.24  0.90
Si -4.39  4.74  4.08
Si -4.47 -4.65  4.12
Si  4.89  5.85 -0.83
Si -4.91 -1.27  5.76
Si -1.64  7.08  2.46
Si  4.92  1.16 -5.80
Si  1.33  1.13  7.49
Si  4.50  4.71 -4.13
Si -4.88 -5.95  0.79
Si -2.13  1.16  7.38
Si -1.91 -7.12 -2.51
Si  6.98 -2.38 -2.51
Si  3.98  3.48  5.76
Si  1.86  7.17  2.49
Si  2.14 -1.26 -7.42
Si -7.03  2.43  2.49
Si -3.98 -3.58 -5.80
Si  7.09  2.43  2.49
Si -7.14 -2.38 -2.51
Si  3.07  1.12 -7.35
Si -3.12 -1.13  7.35
Si -6.13  4.80  2.42
Si -5.74  1.14 -5.69
Si  6.17 -4.78 -2.45
Si -6.18 -4.77  2.46
Si  5.76 -1.12  5.75
Si  3.43 -7.06  2.49
Si -0.04 -7.14 -4.13
Si -5.62  6.00 -0.84
Si  0.14  7.17  4.11
Si -4.88  3.52 -5.68
Si  5.64 -5.98  0.90
Si -0.32  5.91 -5.80
Si  6.28  4.80 -2.48
Si  0.52  3.63 -7.43
Si -1.29  3.61  7.35
Si  1.24 -3.62 -7.35
Si  4.79 -3.59  5.74
Si -3.48  7.11 -2.51
Si -3.63 -7.06  2.49
Si -7.96  0.06  2.42
Si  0.32 -6.01  5.76
Si -0.49 -3.61  7.49
Si  0.60  8.27  0.79
Si  1.71 -7.06  4.11
Si  3.58  7.11 -2.51
Si  1.39  5.90  5.74
Si -1.24  8.23 -0.77
Si  8.00 -0.04 -2.45
Si  7.53  3.53 -0.85
Si  1.19 -8.24  0.76
Si -1.62  7.09 -4.13
Si -1.48 -5.97 -5.68
Si  3.94 -1.13  7.35
Si -3.99  1.12 -7.35
Si -0.60 -8.38 -0.83
Si  8.33  1.14  0.91
Si -1.80 -7.16  4.14
Si -7.62 -3.60  0.91
Si  1.84  7.17 -4.17
Si -7.04 -2.41  4.14
Si  2.10 -5.87 -5.83
Si -2.15  5.86  5.82
Si -7.05  2.43 -4.17
Si -8.42 -1.21 -0.85
Si  7.09 -2.41  4.14
Si  7.07  2.43 -4.17
Si -2.28 -3.58 -7.44
Si  2.19  3.51  7.50
Si  2.30  8.27 -0.85
Si  6.07 -4.75  4.08
Si -2.39 -8.34  0.91
Si -3.09  3.48 -7.42
Si  3.15  5.88 -5.69
Si  3.10 -3.58  7.38
Si -3.13 -5.86  5.75
Si -6.12  4.80 -4.10
Si  3.01 -8.23 -0.84
Si -2.99  8.25  0.90
Si  6.62  1.16  5.74
Si -6.22 -4.77 -4.13
Si -3.38  7.07  4.14
Si  3.41 -7.06 -4.17
Si -6.71 -1.23 -5.68
Si  7.90 -0.01  4.08
Si  6.25  4.84  4.12
Si -7.95  0.06 -4.10
Si  4.93  1.16  7.38
Si  5.75  3.61 -5.83
Si -3.65 -7.06 -4.17
Si  3.69  7.07  4.14
Si -5.81 -3.62  5.82
Si -4.92 -1.26 -7.42
Si  6.68  5.98  0.76
Si -8.29  3.53  0.79
Si -6.73 -5.99 -0.77
Si -3.91  5.88 -5.69
Si  8.29 -3.64 -0.83
Si  3.94 -5.86  5.75
Si  3.97  3.48 -7.42
Si -3.96 -3.58  7.38
Si -0.88  0.06  9.08
Si  0.83 -0.00 -9.10
Si  5.15 -7.12 -2.51
Si -5.39 -7.02 -2.47
Si -5.20  7.17  2.49
Si -4.05 -8.23 -0.84
Si  4.07  8.25  0.90
Si  5.42  7.08  2.46
Si  0.02  2.42  9.01
Si  9.22 -1.25 -0.77
Si  0.01 -2.41 -9.04
Si -9.28  1.24  0.76
Si  6.55 -3.61 -5.69
Si  7.41 -1.23 -5.68
Si -6.53  3.62  5.75
Si -2.66  0.10 -9.05
Si  2.68 -0.03  9.05
Si -0.30  5.90  7.38
Si  5.75 -1.11 -7.43
Si  8.81  2.37 -2.51
Si -8.80  2.47 -2.47
Si  8.82 -2.40  2.46
Si -1.81 -2.32  9.01
Si -8.86 -2.31  2.49
Si -5.73  1.13  7.49
Si -7.50  1.16  5.74
Si  1.84  2.33 -9.04
Si -7.84  4.80 -2.48
Si  1.80 -2.40  9.04
Si -1.70  2.43 -9.06
Si  4.78 -3.58 -7.44
Si  7.39 -5.99 -0.77
Si  0.31 -6.01 -7.42
Si  7.94 -4.77  2.46
Si -4.76  8.27 -0.85
Si -7.45  5.98  0.76
Si  1.38  5.90 -7.44
Si -7.96 -4.78 -2.45
Si  4.67 -8.34  0.91
Si -4.87  3.51  7.50
Si  4.91  5.86  5.82
Si  7.99  4.80  2.42
Si  2.11 -5.88  7.35
Si -4.96 -5.87 -5.83
Si -2.16  5.86 -7.35
Si -1.47 -5.97  7.50
Si -5.35 -7.06  4.11
Si  0.79 -9.43 -2.48
Si  5.26 -7.16  4.14
Si -0.69  9.46  2.46
Si -5.22  7.17 -4.17
Si  5.45  7.09 -4.13
Si -0.95 -9.51  2.46
Si  1.05  9.54 -2.48
Si -9.28 -3.49 -0.84
Si  5.58 -5.97 -5.68
Si -3.43  2.35  9.04
Si -3.14 -5.86 -7.43
Si -8.75  2.43  4.11
Si  9.30  3.50  0.90
Si -9.67  0.06 -2.48
Si -5.67  5.90  5.74
Si  3.53 -2.31 -9.06
Si -3.53 -2.31 -9.06
Si  5.77  3.61  7.35
Si  6.61  1.16 -7.44
Si  3.63  2.35  9.04
Si  3.16  5.87  7.49
Si  2.50 -9.43  2.42
Si -4.38 -0.03  9.05
Si -5.82 -3.62 -7.35
Si  8.85 -2.39 -4.13
Si -2.47  9.45 -2.45
Si  4.40  0.10 -9.05
Si  9.77 -0.02  2.46
Si -8.88 -2.31 -4.17
Si  8.92  2.33  4.14
Si -1.25  8.22  5.76
Si  7.90 -4.77 -4.13
Si  5.82  8.23 -0.77
Si -7.88  4.84  4.12
Si -7.57 -3.61 -5.69
Si -6.70 -1.23  7.50
Si -5.87 -8.24  0.76
Si  7.59  3.62  5.75
Si  8.00  4.80 -4.10
Si  8.38  1.14 -5.69
Si -8.05 -4.75  4.08
Si  0.52  8.36 -5.83
Si -8.36 -1.12  5.75
Si -2.72 -9.53 -2.45
Si -0.58 -8.37  5.82
Si 10.12  1.11 -0.83
Si -10.12 -1.21  0.79
Si  1.26 -8.32 -5.80
Si  2.76  9.54  2.42
Si  3.92 -5.86 -7.43
Si  0.85 -4.78  9.05
Si  0.76 -9.39  4.12
Si -3.90  5.87  7.49
Si  6.99 -7.14  2.46
Si -0.83  4.84 -9.05
Si -1.00 -4.75 -9.10
Si  0.95  4.80  9.08
Si -6.97  7.21 -2.47
Si -0.73  9.46 -4.13
Si -2.34 -8.35 -5.69
Si -7.13 -7.14  2.46
Si -8.48 -5.98  0.90
Si -0.99 -9.51 -4.13
Si  2.36  8.37  5.75
Si  8.50  6.00 -0.84
Si  7.15  7.21 -2.47
Si -3.05  8.26 -5.68
Si  1.01  9.58  4.12
Si  2.58 -4.64 -9.05
Si -2.55  4.71  9.05
Si -6.46  8.27  0.79
Si  2.97 -8.33  5.74
Si -6.54  3.63 -7.43
Si -9.71  0.10  4.12
Si -2.71 -4.69  9.08
Si  9.73 -0.03 -4.13
Si  2.51 -9.43 -4.10
Si  6.57 -3.61  7.49
Si  2.66  4.74 -9.10
Si  4.90  5.86 -7.35
Si  6.46 -8.38 -0.83
Si  7.42 -1.23  7.50
Si -0.34 10.59 -0.83
Si -2.56  9.48  4.08
Si -4.95 -5.88  7.35
Si -7.51  1.16 -7.44
Si  6.74  5.91 -5.80
Si  5.25 -2.32  9.01
Si -5.22  2.33 -9.04
Si 10.08 -3.50  0.76
Si -2.82 -9.49  4.08
Si -6.74 -6.01  5.76
Si  0.35 -10.70  0.79
Si -5.26 -2.40  9.04
Si -10.13  3.49 -0.77
Si -4.30  9.54  2.42
Si  4.34 -9.53 -2.45
Si  2.77  9.54 -4.10
Si -4.56 -9.43  2.42
Si  0.95 -0.04 10.73
Si  8.31 -3.62  5.82
Si -6.92  7.17  4.11
Si  4.59  9.45 -2.45
Si  4.01  8.26 -5.68
Si -0.91  0.06 -10.75
Si  5.36  2.43 -9.06
Si -8.37  3.61 -5.83
Si  7.02 -7.14 -4.13
Si  1.44 10.72  0.76
Si -1.50 -10.74 -0.77
Si -2.13 10.63  0.91
Si -7.10 -7.14 -4.13
Si -4.09 -8.33  5.74
Si  2.04 -10.70 -0.85
Si -0.07 -2.38 10.66
Si  9.21 -1.27  5.76
Si -9.21  1.16 -5.80
Si  0.02  2.43 -10.68
Si -9.23  5.85 -0.83
Si  7.20  7.17  4.11
Si -9.59  4.72  2.46
Si  6.18  0.06  9.08
Si -2.60  0.06 10.70
Si  9.24 -5.95  0.79
Si -6.23 -0.00 -9.10
Si  9.68 -4.68 -2.48
Si  2.69 -0.02 -10.72
Si  1.76  2.36 10.66
Si -10.53  2.34  2.46
Si -5.68  5.90 -7.44
Si 10.56 -2.27 -2.47
Si -1.81 -2.31 -10.68
Si -7.38  5.91 -5.80
Si  5.59 -5.97  7.50
Si  4.35 -4.69  9.08
Si  1.75 -2.40 -10.72
Si -4.49 -4.64 -9.05
Si -9.79 -4.69  2.42
Si -1.72  2.46 10.71
Si  7.38 -6.01  5.76
Si  0.54  8.35  7.35
Si -10.63 -2.27 -2.47
Si -1.26  8.22 -7.42
Si -11.06  1.11 -0.83
Si -0.59 -8.36 -7.35
Si  4.72 -8.35 -5.69
Si  4.51  4.71  9.05
Si 11.07 -1.21  0.79
Si  9.82  4.70 -2.45
Si -4.40  4.74 -9.10
Si  4.24 -9.49  4.08
Si 10.65  2.34  2.46
Si -4.70  8.37  5.75
Si  1.27 -8.33  7.38
Si  7.58  3.63 -7.43
Si -7.55 -3.61  7.49
Si -4.29  9.54 -4.10
Si -4.55 -9.43 -4.10
Si -3.25 -10.72  0.90
Si -8.37 -1.11 -7.43
Si  4.50  9.48  4.08
Si  3.27 10.74 -0.84
Si  7.67  8.27  0.79
Si  8.39  1.13  7.49
Si -7.66 -8.38 -0.83
Si  9.24  3.52 -5.68
Si  3.82 -10.72  0.90
Si -3.79 10.74 -0.84
Si  2.35  8.37 -7.43
Si -2.32 -8.35  7.49
Si  8.73 -7.02 -2.47
Si  9.65 -4.65  4.12
Si -9.62  4.71 -4.13
Si -8.70  7.08  2.46
Si  3.51 -2.28 10.71
Si -3.48  2.35 -10.72
Si -3.55 -2.28 10.71
Si -9.33 -3.59  5.74
Si -0.03 -7.14  9.04
Si -10.51  2.35 -4.13
Si  3.58  2.35 -10.72
Si  2.95 -8.32 -7.44
Si -6.01  9.54 -2.48
Si -3.04  8.25  7.50
Si  0.13  7.17 -9.06
Si  9.73  4.74  4.08
Si  6.11 -9.51  2.46
Si -4.37 -0.02 -10.72
Si -10.58 -2.31  4.11
Si -6.27 -9.43 -2.48
Si -9.78 -4.68 -4.10
Si  4.46  0.06 10.70
Si  5.81  8.22  5.76
Si -1.60  7.09  9.04
Si 10.60 -2.31  4.11
Si  1.70 -7.05 -9.06
Si  6.76  5.90  7.38
Si 11.05  3.49 -0.77
Si  1.85  7.17  9.01
Si  6.37  9.46  2.46
Si -1.81 -7.15 -9.04
Si  8.30 -3.62 -7.35
Si -11.11 -3.50  0.76
Si -11.41 -0.02  2.46
Si 10.68  2.35 -4.13
Si  8.25 -8.24  0.76
Si -5.80 -8.32 -5.80
Si -7.04  2.42  9.01
Si -6.75 -6.01 -7.42
Si -8.35  3.61  7.35
Si -7.05 -2.41 -9.04
Si  7.08  2.42  9.01
Si  8.92  7.17  2.49
Si -8.30  8.23 -0.77
Si -8.97 -7.12 -2.51
Si  7.08 -2.41 -9.04
Si  4.93 10.63  0.91
Si 10.14  1.12  5.82
Si -0.77  4.80 10.70
