500
set: 1253.00  0.00  0.00
Si  0.54 -0.63 -0.52
Si  0.13  0.88  1.65
Si -1.58 -1.70 -1.11
Si  1.41 -2.47  0.59
Si -2.87  0.30 -0.36
Si  2.00  0.64 -2.04
Si -2.08  1.38  1.73
Si  1.34  2.77  0.65
Si  0.93  2.86 -1.88
Si  1.65  0.04  3.48
Si  1.49 -2.14  2.98
Si -1.34  2.79 -2.56
Si -1.71 -1.49 -3.50
Si -3.13  2.54 -1.30
Si  4.15  1.06 -0.96
Si -2.29 -3.73 -0.24
Si  3.65  2.35  0.86
Si -1.40  0.90 -4.19
Si  0.22 -4.51  0.12
Si -3.18 -0.01  3.31
Si -2.14  3.68  1.84
Si  2.30 -0.36 -4.19
Si -0.13  4.65  1.50
Si  3.74 -3.11  0.51
Si  3.85  1.05  3.03
Si -3.58 -3.20  1.67
Si -0.47 -3.21  4.00
Si  2.06 -2.70 -4.04
Si -5.16 -0.34 -1.01
Si -2.84 -2.16  3.92
Si -0.12 -3.00 -4.45
Si  0.49  0.57 -5.51
Si -3.86  4.10  0.23
Si  0.49  0.57  5.60
Si  1.32  2.88 -4.81
Si -5.50 -1.80  0.97
Si -3.61 -2.82 -3.71
Si  0.70 -5.55 -1.95
Si  0.70  5.56 -1.95
Si -2.41  3.61  4.06
Si  5.60 -1.80  0.97
Si  4.53  3.46 -1.85
Si  5.94 -0.34 -1.01
Si -4.48  2.87 -3.17
Si  4.53 -3.86 -1.73
Si -3.07  1.32  5.26
Si  2.64 -4.77 -3.01
Si  5.49 -0.62  3.09
Si  2.63 -3.15  4.83
Si -3.00 -4.90 -2.78
Si  5.38 -1.95 -2.86
Si -5.61 -0.62  3.09
Si  0.30 -5.45  3.60
Si  4.61 -0.47 -4.64
Si  4.82  4.42  0.45
Si -0.79 -5.37 -3.76
Si  0.22  6.60  0.12
Si -0.13 -6.46  1.50
Si -5.73 -1.95 -2.86
Si  0.30  5.65  3.60
Si -3.07  1.32 -5.85
Si -0.58  4.40  5.29
Si -0.79  5.74 -3.76
Si  2.49 -5.34  3.69
Si  4.19 -5.12  2.40
Si  1.32  2.88  6.29
Si  4.81 -2.03  4.77
Si -6.96  1.06 -0.96
Si -1.40  0.90  6.91
Si -4.68 -5.26 -1.16
Si  4.86  2.80  4.57
Si  3.09  4.02  5.22
Si  2.49  5.77  3.69
Si  2.30 -0.36  6.92
Si -0.12 -3.00  6.65
Si -5.22  1.48 -4.91
Si -0.58  4.40 -5.82
Si -4.58 -4.88  2.98
Si -3.00  6.20 -2.78
Si  2.64  6.34 -3.01
Si  2.63 -3.15 -6.28
Si  4.06  4.94 -4.02
Si -4.68  5.85 -1.16
Si -6.58  3.46 -1.85
Si -4.60 -3.35  5.17
Si  4.19  5.99  2.40
Si -6.28  4.42  0.45
Si -2.29  7.37 -0.24
Si  3.09  4.02 -5.88
Si  1.65  0.04 -7.62
Si  5.89  1.48 -4.91
Si -4.48  4.47  4.58
Si -0.47 -3.21 -7.11
Si -6.58 -3.86 -1.73
Si -4.38  4.90 -4.26
Si  2.06 -2.70  7.07
Si -7.46  2.35  0.86
Si  6.62  2.87 -3.17
Si -7.25  1.05  3.03
Si -1.71 -1.49  7.60
Si -2.14 -7.43  1.84
Si  4.61 -0.47  6.47
Si -6.50 -0.47 -4.64
Si -3.86 -7.01  0.23
Si -7.37 -3.11  0.51
Si -2.84 -2.16 -7.19
Si -6.30 -2.03  4.77
Si  4.81 -2.03 -6.34
Si -4.60 -3.35 -5.94
Si -6.24  2.80  4.57
Si -5.22  1.48  6.20
Si  8.24  0.30 -0.36
Si  4.82 -6.68  0.45
Si -2.41  3.61 -7.04
Si -4.58  6.23  2.98
Si  7.25  4.10  0.23
Si  7.53 -3.20  1.67
Si  6.43 -5.26 -1.16
Si  4.06 -6.17 -4.02
Si -3.18 -0.01 -7.80
Si  1.34 -8.33  0.65
Si  7.97  2.54 -1.30
Si  0.93 -8.25 -1.88
Si  1.49 -2.14 -8.12
Si -0.58 -6.70  5.29
Si  7.93 -0.01  3.31
Si  4.86  2.80 -6.53
Si  5.89  1.48  6.20
Si  6.53 -4.88  2.98
Si -3.61 -2.82  7.39
Si -4.38 -6.21 -4.26
Si  4.53  7.25 -1.73
Si  6.43  5.85 -1.16
Si  1.41  8.64  0.59
Si -1.34 -8.32 -2.56
Si  7.50 -2.82 -3.71
Si -3.58  7.90  1.67
Si  3.74  8.00  0.51
Si -2.41 -7.50  4.06
Si -0.47  7.90  4.00
Si -0.58 -6.70 -5.82
Si -6.92 -5.12  2.40
Si  6.51 -3.35  5.17
Si  3.85  1.05 -8.07
Si  4.53 -7.64 -1.85
Si -4.48  4.47 -6.53
Si -1.34  2.79  8.55
Si -0.79 -5.37  7.35
Si -6.30 -2.03 -6.34
Si -6.50 -0.47  6.47
Si -6.28 -6.68  0.45
Si  6.62  4.47  4.58
Si -3.13 -8.56 -1.30
Si -4.48 -6.64  4.58
Si -0.12  8.11 -4.45
Si  0.30 -5.45 -7.50
Si  9.03  1.38  1.73
Si  2.00  0.64  9.06
Si  3.09 -7.08  5.22
Si  6.73  4.90 -4.26
Si -9.11  0.64 -2.04
Si -0.79  5.74  7.35
Si  8.27 -2.16  3.92
Si  0.30  5.65 -7.50
Si  6.51 -3.35 -5.94
Si -6.92  5.99  2.40
Si -6.24  2.80 -6.53
Si  2.49 -5.34 -7.41
Si -4.38  4.90  6.84
Si  0.13  0.88 -9.46
Si -7.05  4.94 -4.02
Si  6.53  6.23  2.98
Si  3.65 -8.76  0.86
Si  4.06  4.94  7.08
Si  2.06  8.41 -4.04
Si -4.48  2.87  7.94
Si  1.49  8.97  2.98
Si  8.81 -3.73 -0.24
Si -1.58  9.40 -1.11
Si  1.32 -8.23 -4.81
Si  2.63  7.96  4.83
Si  8.04  1.32  5.26
Si  0.93  2.86  9.22
Si -2.08  1.38 -9.38
Si  3.09 -7.08 -5.88
Si  2.49  5.77 -7.41
Si  5.49 -0.62 -8.01
Si  9.53 -1.70 -1.11
Si -8.80 -0.36 -4.19
Si  2.64 -4.77  8.10
Si -3.61  8.29 -3.71
Si -5.61 -0.62 -8.01
Si  8.97  3.68  1.84
Si  8.11 -4.90 -2.78
Si -4.48 -8.24 -3.17
Si -6.58  7.25 -1.73
Si -9.70 -2.47  0.59
Si  8.04  1.32 -5.85
Si  5.38 -1.95  8.24
Si -9.45  0.04  3.48
Si  7.25 -7.01  0.23
Si -2.08 -9.73  1.73
Si  6.73 -6.21 -4.26
Si -3.00 -4.90  8.33
Si  9.40 -1.49 -3.50
Si -9.76  2.77  0.65
Si -8.46 -4.77 -3.01
Si -2.84  8.95  3.92
Si -2.14  3.68 -9.26
Si -7.05 -6.17 -4.02
Si -4.38 -6.21  6.84
Si -5.73 -1.95  8.24
Si  4.06 -6.17  7.08
Si -6.58 -7.64 -1.85
Si -8.48 -3.15  4.83
Si  8.70  3.61  4.06
Si -1.58 -1.70 10.00
Si -9.05 -2.70 -4.04
Si -9.62 -2.14  2.98
Si  6.62  4.47 -6.53
Si -4.48 -6.64 -6.53
Si  0.13 -10.22  1.65
Si -8.02  4.02  5.22
Si -1.71  9.62 -3.50
Si -4.60  7.76  5.17
Si  6.62 -6.64  4.58
Si  1.32 -8.23  6.29
Si  2.63  7.96 -6.28
Si  9.77  2.79 -2.56
Si -0.12  8.11  6.65
Si  0.54 10.48 -0.52
Si -4.58 -4.88 -8.12
Si -2.41 -7.50 -7.04
Si  8.11  6.20 -2.78
Si -3.58 -3.20 -9.43
Si -3.13  2.54  9.80
Si -10.57 -0.63 -0.52
Si  9.71  0.90 -4.19
Si  2.64  6.34  8.10
Si  0.54 -0.63 10.59
Si -0.47  7.90 -7.11
Si  4.86 -8.30  4.57
Si -0.13  4.65 -9.61
Si -8.02  4.02 -5.88
Si  0.70 -5.55  9.16
Si  6.62  2.87  7.94
Si  0.70  5.56  9.16
Si -10.18  2.86 -1.88
Si  6.73  4.90  6.84
Si -8.61 -5.34  3.69
Si -4.60  7.76 -5.94
Si -3.00  6.20  8.33
Si  2.00 -10.47 -2.04
Si -5.50  9.31  0.97
Si  4.53  3.46  9.25
Si -7.37  8.00  0.51
Si  1.41 -2.47 -10.52
Si  7.50 -2.82  7.39
Si -7.25  1.05 -8.07
Si  1.34  2.77 -10.46
Si  4.15 -10.04 -0.96
Si  5.60  9.31  0.97
Si  4.19 -5.12 -8.71
Si -8.46  6.34 -3.01
Si  5.38  9.16 -2.86
Si -8.61  5.77  3.69
Si -8.48 -3.15 -6.28
Si  4.15  1.06 10.15
Si  6.62 -8.24 -3.17
Si  7.53  7.90  1.67
Si  4.53 -3.86  9.38
Si  7.93 -0.01 -7.80
Si -1.40 -10.20 -4.19
Si -2.87  0.30 10.74
Si  3.65  2.35 -10.25
Si -10.97  0.88  1.65
Si -7.05  4.94  7.08
Si  8.27 -2.16 -7.19
Si -5.73  9.16 -2.86
Si  2.06  8.41  7.07
Si -2.87 -10.80 -0.36
Si  3.85 -10.05  3.03
Si -8.80 -0.36  6.92
Si -4.58  6.23 -8.12
Si -9.78  2.88 -4.81
Si  4.81  9.07  4.77
Si -5.16 -0.34 10.10
Si -6.24 -8.30  4.57
Si  4.19  5.99 -8.71
Si  6.51  7.76  5.17
Si 11.24  0.88  1.65
Si  6.62 -6.64 -6.53
Si  6.73 -6.21  6.84
Si  8.81  7.37 -0.24
Si  6.53 -4.88 -8.12
Si -3.07 -9.79  5.26
Si -7.46 -8.76  0.86
Si -0.13 -6.46 -9.61
Si  4.86 -8.30 -6.53
Si  0.54 -0.63 -11.62
Si  3.74 -3.11 -10.60
Si 11.64 -0.63 -0.52
Si -5.50 -1.80 -10.14
Si -3.61  8.29  7.39
Si -2.29 -3.73 10.86
Si  1.65 -11.06  3.48
Si  5.94 -0.34 10.10
Si  5.60 -1.80 -10.14
Si  6.51  7.76 -5.94
Si -7.05 -6.17  7.08
Si  0.54 -11.74 -0.52
Si  2.30 10.74 -4.19
Si  8.70  3.61 -7.04
Si -2.87 11.41 -0.36
Si  7.97 -8.56 -1.30
Si  7.50  8.29 -3.71
Si -10.89 -4.51  0.12
Si  8.97 -7.43  1.84
Si -9.05 -2.70  7.07
Si  1.65 11.15  3.48
Si -3.07 -9.79 -5.85
Si 10.64 -3.21  4.00
Si -2.84  8.95 -7.19
Si -2.87  0.30 -11.47
Si -6.58  3.46  9.25
Si  0.22 -4.51 -10.98
Si  0.49 -10.54 -5.51
Si -8.02 -7.08  5.22
Si  0.49 -10.54  5.60
Si  9.71  0.90  6.91
Si -10.41 -5.55 -1.95
Si -10.41  5.56 -1.95
Si -10.62  0.57 -5.51
Si -5.16 10.76 -1.01
Si -9.78  2.88  6.29
Si -5.22 -9.63 -4.91
Si -1.34 -8.32  8.55
Si -3.18 11.10  3.31
Si 10.98  4.65  1.50
Si -10.62  0.57  5.60
Si -3.18 -11.12  3.31
Si -6.30  9.07  4.77
Si  1.41 -2.47 11.69
Si -2.14 -7.43 -9.26
Si  4.81  9.07 -6.34
Si  2.00 11.74 -2.04
Si -6.58 -3.86  9.38
Si  0.13 11.99  1.65
Si  0.22 -4.51 11.23
Si  6.53  6.23 -8.12
Si -9.45  0.04 -7.62
Si  1.34  2.77 11.75
Si -2.29 -3.73 -11.35
Si  9.40 -1.49  7.60
Si  8.70 -7.50  4.06
Si -4.68 -5.26  9.95
Si 11.32 -4.51  0.12
Si  1.49  8.97 -8.12
Si -8.02 -7.08 -5.88
Si 10.32 -5.37 -3.76
Si 10.99 -3.00 -4.45
Si  5.49 10.48  3.09
Si -6.92 -5.12 -8.71
Si -3.86  4.10 -10.87
Si -11.23  4.65  1.50
Si -6.96 -10.04 -0.96
Si -6.24 -8.30 -6.53
Si -5.61 10.48  3.09
Si -4.48 -8.24  7.94
Si  5.89 -9.63 -4.91
Si  5.94 10.76 -1.01
Si -6.96  1.06 10.15
Si -1.71  9.62  7.60
Si 10.32  5.74 -3.76
Si -1.40 -10.20  6.91
Si  0.93 -8.25  9.22
Si  2.30 -11.47 -4.19
Si -1.58 -1.70 -12.22
Si -11.22 -3.00 -4.45
Si -4.68  5.85  9.95
Si  4.61 10.64 -4.64
Si  7.53 -3.20 -9.43
Si  4.82  4.42 -10.66
Si 12.04  2.86 -1.88
Si -8.61 -5.34 -7.41
Si 10.53  4.40  5.29
Si -5.22 -9.63  6.20
Si  3.74 -3.11 11.61
Si -8.48  7.96  4.83
Si -5.16 -11.45 -1.01
Si  8.11 -4.90  8.33
Si -6.92  5.99 -8.71
Si -10.81 -5.45  3.60
Si -8.46 -4.77  8.10
Si -11.57 -3.21  4.00
Si -3.86  4.10 11.34
Si  4.53  7.25  9.38
Si -10.81  5.65  3.60
Si  3.65  2.35 11.96
Si -10.89  6.60  0.12
Si -6.30  9.07 -6.34
Si -8.61  5.77 -7.41
Si -7.25 -10.05  3.03
Si 12.51 -2.47  0.59
Si -9.62 -2.14 -8.12
Si 12.45  2.77  0.65
Si -2.08 12.49  1.73
Si  0.13  0.88 12.76
Si  8.27  8.95  3.92
Si -1.40 12.01 -4.19
Si  4.15  1.06 -12.06
Si 10.53  4.40 -5.82
Si  0.22  6.60 -10.98
Si -3.58  7.90 -9.43
Si 10.98 -6.46  1.50
Si  4.53 -7.64  9.25
Si 11.59  0.57 -5.51
Si -12.69 -1.70 -1.11
Si -9.76 -8.33  0.65
Si -9.11  0.64  9.06
Si  5.89 -9.63  6.20
Si 11.59  0.57  5.60
Si  7.97  2.54  9.80
Si -7.46  2.35 -10.25
Si  4.15 12.17 -0.96
Si  0.49 11.67 -5.51
Si  5.94 -11.45 -1.01
Si -1.58 -12.81 -1.11
Si  0.49 11.67  5.60
Si  6.43 -5.26  9.95
Si  2.30 10.74  6.92
Si -9.05  8.41 -4.04
Si -9.70  8.64  0.59
Si -12.45  2.79 -2.56
Si  0.22  6.60 11.23
Si -11.23 -6.46  1.50
Si -3.13  2.54 -12.41
Si -2.08  1.38 12.84
Si  9.77 -8.32 -2.56
Si  9.03  1.38 -9.38
Si 11.32  6.60  0.12
Si  3.85 12.16  3.03
Si 12.60 -2.14  2.98
Si -6.28  4.42 -10.66
Si 11.41 -5.45  3.60
Si  8.11  6.20  8.33
Si -5.16 -0.34 -12.12
Si -1.71 -12.59 -3.50
Si 11.81 -5.55 -1.95
Si 10.64 -3.21 -7.11
Si 10.99 -3.00  6.65
Si 11.81  5.56 -1.95
Si  6.43  5.85  9.95
Si -8.48  7.96 -6.28
Si  6.62 -8.24  7.94
Si -12.51  0.90 -4.19
Si 12.76  0.04  3.48
Si 11.41  5.65  3.60
Si -10.18 -8.25 -1.88
Si  4.61 10.64  6.47
Si  9.77  2.79  8.55
Si -7.37 -3.11 -10.60
Si  4.82  4.42 11.55
Si 13.11  0.64 -2.04
Si  4.61 -11.57 -4.64
Si -6.50 10.64 -4.64
Si  2.00  0.64 -13.15
Si -8.46  6.34  8.10
Si  5.49 -11.73  3.09
Si -2.29  7.37 10.86
Si  0.93  2.86 -12.99
Si -5.61 -11.73  3.09
Si -13.18  1.38  1.73
Si -12.82 -1.49 -3.50
Si  9.03 -9.73  1.73
Si -3.13 -8.56  9.80
Si -11.22 -3.00  6.65
Si -5.50 -1.80 12.08
Si  7.50  8.29  7.39
Si  8.97  3.68 -9.26
Si  9.53  9.40 -1.11
Si  5.60 -1.80 12.08
Si -0.13  4.65 12.61
Si  1.34 -8.33 -10.46
Si  5.38  9.16  8.24
Si  3.85 -10.05 -8.07
Si  8.70 -7.50 -7.04
Si  4.82 -6.68 -10.66
Si -9.62  8.97  2.98
Si -3.86 -7.01 -10.87
Si  5.94 -0.34 -12.12
Si  1.65 -11.06 -7.62
Si  8.24  0.30 10.74
Si 10.53 -6.70  5.29
Si -6.58  7.25  9.38
Si -11.68  4.40  5.29
Si -11.90 -5.37 -3.76
Si  2.30 -11.47  6.92
Si -5.73  9.16  8.24
Si  8.24 -10.80 -0.36
