500
set: 574.00  0.00  0.00
Si  0.00  0.00  0.00
Si -1.72  1.05  0.74
Si  0.00 -2.03  0.74
Si  1.82  1.05  0.74
Si  0.21  0.01 -2.24
Si -1.72  3.08  0.00
Si  1.72 -3.08  0.00
Si -3.53  0.00  0.00
Si  3.53  0.00  0.00
Si  1.60  1.04  2.98
Si -1.60 -1.04 -2.98
Si -1.81 -3.08  0.00
Si  1.81  3.08  0.00
Si  0.21  2.04 -2.98
Si -0.21 -2.04  2.98
Si  1.93 -1.04 -2.98
Si -1.93  1.04  2.98
Si -3.32  0.01 -2.24
Si -1.51  3.09 -2.24
Si -1.60 -3.07 -2.24
Si -3.53 -2.03  0.74
Si  3.54 -2.03  0.74
Si  1.60 -0.99  3.73
Si  0.10  4.13  0.74
Si  1.93 -3.07 -2.24
Si -0.11  2.09  3.73
Si -1.93 -0.99  3.73
Si  2.03  3.09 -2.24
Si  3.75  0.01 -2.24
Si  3.32 -2.04  2.98
Si -3.32  2.04 -2.98
Si  0.12 -4.12 -2.98
Si -0.12  4.12  2.98
Si -3.75 -2.04  2.98
Si  3.75  2.04 -2.98
Si -5.25  1.05  0.74
Si -3.44  4.13  0.74
Si  1.72 -5.11  0.74
Si -1.81 -5.11  0.74
Si  3.42  2.09  3.73
Si  5.35  1.05  0.74
Si -1.39 -1.03 -5.23
Si -0.21 -4.07  3.73
Si  3.63  4.13  0.74
Si -3.65  2.09  3.73
Si  0.42  2.05 -5.23
Si  2.14 -1.03 -5.23
Si -5.14 -1.04 -2.98
Si  5.14  1.04  2.98
Si  5.25 -3.08  0.00
Si -5.25  3.08  0.00
Si  1.51 -5.12  2.98
Si -1.51  5.12 -2.98
Si  3.42  4.12  2.98
Si -3.42 -4.12 -2.98
Si  0.10  6.16  0.00
Si -0.10 -6.16  0.00
Si -5.35 -3.08  0.00
Si  5.35  3.08  0.00
Si -1.39  1.00 -5.97
Si  1.39 -1.00  5.97
Si  3.65 -4.12 -2.98
Si -3.65  4.12  2.98
Si  2.03  5.12 -2.98
Si -2.03 -5.12  2.98
Si  5.46 -1.04 -2.98
Si -5.46  1.04  2.98
Si -5.04  3.09 -2.24
Si -0.33  2.08  5.97
Si  0.33 -2.08 -5.97
Si -5.14 -3.07 -2.24
Si -3.11  2.05 -5.23
Si -2.14 -1.00  5.97
Si  2.14  1.00 -5.97
Si  5.14 -0.99  3.73
Si  3.32 -4.07  3.73
Si  0.12 -6.15 -2.24
Si  0.31  6.16 -2.24
Si  1.70  5.17  3.73
Si -1.83  5.17  3.73
Si  5.46 -3.07 -2.24
Si  0.33 -4.11 -5.23
Si -3.74 -4.07  3.73
Si -5.46 -0.99  3.73
Si -0.33  0.05  6.71
Si  5.56  3.09 -2.24
Si  3.96  2.05 -5.23
Si -3.44  6.16  0.00
Si  3.44 -6.16  0.00
Si  7.07  0.00  0.00
Si -7.07  0.00  0.00
Si -3.21 -2.08 -5.97
Si  3.21  2.08  5.97
Si  3.63  6.16  0.00
Si -3.63 -6.16  0.00
Si -6.86  0.01 -2.24
Si  0.42  4.08 -5.97
Si -0.42 -4.08  5.97
Si -4.92 -1.03 -5.23
Si -3.23  6.16 -2.24
Si  5.25 -5.11  0.74
Si -3.21 -4.11 -5.23
Si -3.42 -6.15 -2.24
Si -7.07 -2.03  0.74
Si  7.07 -2.03  0.74
Si -3.86  2.08  5.97
Si  3.86 -2.08 -5.97
Si -1.62  7.21  0.74
Si -5.35 -5.11  0.74
Si -1.29  5.12 -5.23
Si  3.21  0.05  6.71
Si  1.91  7.21  0.74
Si  1.39 -3.03  6.71
Si  3.65 -6.15 -2.24
Si  1.49  3.13  6.71
Si  3.84  6.16 -2.24
Si  7.28  0.01 -2.24
Si  2.24  5.12 -5.23
Si -2.14 -3.03  6.71
Si -2.04  3.13  6.71
Si  3.86 -4.11 -5.23
Si -3.86  0.05  6.71
Si  6.86 -2.04  2.98
Si -6.86  2.04 -2.98
Si  5.04 -5.12  2.98
Si -5.04  5.12 -2.98
Si  5.68 -1.03 -5.23
Si -4.93  1.00 -5.97
Si  4.93 -1.00  5.97
Si  3.11 -4.08  5.97
Si -3.11  4.08 -5.97
Si -1.70 -7.20 -2.98
Si  1.70  7.20  2.98
Si  1.83 -7.20 -2.98
Si -1.83  7.20  2.98
Si  1.49  5.16  5.97
Si -1.49 -5.16 -5.97
Si -5.56 -5.12  2.98
Si  5.56  5.12 -2.98
Si -7.28 -2.04  2.98
Si  7.28  2.04 -2.98
Si -6.97  4.13  0.74
Si -2.04  5.16  5.97
Si  2.04 -5.16 -5.97
Si  6.95  2.09  3.73
Si  1.51 -7.14  3.73
Si -0.10 -8.19  0.74
Si -3.96 -4.08  5.97
Si  3.96  4.08 -5.97
Si  5.24  5.17  3.73
Si -5.67 -1.00  5.97
Si  5.67  1.00 -5.97
Si  7.17  4.13  0.74
Si -2.02 -7.14  3.73
Si -5.37  5.17  3.73
Si -7.18  2.09  3.73
Si -1.18  1.00 -8.21
Si  0.54 -2.07 -8.21
Si  2.35  1.00 -8.21
Si  6.95  4.12  2.98
Si -6.95 -4.12 -2.98
Si -6.64  2.05 -5.23
Si -0.31 -8.19  2.98
Si  0.31  8.19 -2.98
Si -4.83  5.12 -5.23
Si  6.86 -4.07  3.73
Si  7.18 -4.12 -2.98
Si -7.18  4.12  2.98
Si  4.93 -3.03  6.71
Si -8.78  1.05  0.74
Si -5.15  7.21  0.74
Si  3.44 -8.19  0.74
Si  5.02  3.13  6.71
Si  0.54 -0.04 -8.95
Si -0.54  0.04  8.95
Si  8.88  1.05  0.74
Si -3.00 -2.07 -8.21
Si -3.63 -8.19  0.74
Si -1.49 -7.19 -5.23
Si -0.02  8.24  3.73
Si  5.45  7.21  0.74
Si -0.42 -6.10  6.71
Si  2.05 -7.19 -5.23
Si -7.28 -4.07  3.73
Si -0.23  6.21  6.71
Si  0.64  4.08 -8.21
Si -8.67 -1.04 -2.98
Si  8.67  1.04  2.98
Si  6.74  2.08  5.97
Si -6.74 -2.08 -5.97
Si -5.58  3.13  6.71
Si -5.67 -3.03  6.71
Si  3.23 -8.19  2.98
Si -3.23  8.19 -2.98
Si -6.97  6.16  0.00
Si  6.97 -6.16  0.00
Si -8.79  3.08  0.00
Si  8.79 -3.08  0.00
Si  5.77  5.12 -5.23
Si -5.02 -5.16 -5.97
Si  5.02  5.16  5.97
Si  7.49  2.05 -5.23
Si -1.62  9.23  0.00
Si  1.62 -9.23  0.00
Si -8.57  3.09 -2.24
Si -5.23 -7.20 -2.98
Si  5.23  7.20  2.98
Si  4.07 -2.07 -8.21
Si  8.88  3.08  0.00
Si -8.88 -3.08  0.00
Si  1.30 -7.15  5.97
Si -1.30  7.15 -5.97
Si -6.76  6.16 -2.24
Si -1.91 -9.23  0.00
Si  1.91  9.23  0.00
Si -3.00 -0.04 -8.95
Si  3.00  0.04  8.95
Si  7.16  6.16  0.00
Si -7.16 -6.16  0.00
Si -5.37  7.20  2.98
Si  5.37 -7.20 -2.98
Si -8.67 -3.07 -2.24
Si -6.74 -4.11 -5.23
Si  8.67 -0.99  3.73
Si  5.04 -7.14  3.73
Si  6.74  0.05  6.71
Si -4.71  1.00 -8.21
Si  1.18 -3.03  8.95
Si -1.18  3.03 -8.95
Si -3.84 -8.19  2.98
Si  3.84  8.19 -2.98
Si -9.00  1.04  2.98
Si  9.00 -1.04 -2.98
Si -6.95 -6.15 -2.24
Si -1.28 -3.12 -8.95
Si  1.28  3.12  8.95
Si -2.24 -7.15  5.97
Si  2.24  7.15 -5.97
Si  3.11 -6.10  6.71
Si -1.41  9.24 -2.24
Si -2.90  4.08 -8.21
Si -1.70 -9.23 -2.24
Si -5.58  5.16  5.97
Si  5.58 -5.16 -5.97
Si  1.83 -9.23 -2.24
Si  3.52  8.24  3.73
Si  7.18 -6.15 -2.24
Si -3.55  8.24  3.73
Si  3.31  6.21  6.71
Si -7.39  2.08  5.97
Si  7.39 -2.08 -5.97
Si  0.52  8.20 -5.23
Si  2.35  3.03 -8.95
Si -2.35 -3.03  8.95
Si  2.12  9.24 -2.24
Si -2.26  3.12  8.95
Si  2.26 -3.12 -8.95
Si  9.00 -3.07 -2.24
Si -1.28 -5.15 -8.21
Si -9.00 -0.99  3.73
Si -5.56 -7.14  3.73
Si -6.64  4.08 -5.97
Si  6.64 -4.08  5.97
Si -4.07  0.04  8.95
Si  4.07 -0.04 -8.95
Si  1.28  1.09  9.69
Si  9.10  3.09 -2.24
Si  7.38  6.16 -2.24
Si -3.76  6.21  6.71
Si -3.96 -6.10  6.71
Si -0.54 -1.99  9.69
Si  7.39 -4.11 -5.23
Si  2.26 -5.15 -8.21
Si -7.39  0.05  6.71
Si -8.46 -1.03 -5.23
Si -2.25  1.09  9.69
Si  4.17  4.08 -8.21
Si  5.89  1.00 -8.21
Si -0.23  8.24  5.97
Si  0.23 -8.24 -5.97
Si -3.01  8.20 -5.23
Si  8.79 -5.11  0.74
Si -5.02 -7.19 -5.23
Si -8.88 -5.11  0.74
Si  0.19 10.28  0.74
Si  3.00 -1.99  9.69
Si -8.46  1.00 -5.97
Si  8.46 -1.00  5.97
Si -7.49 -4.08  5.97
Si  7.49  4.08 -5.97
Si  8.57 -5.12  2.98
Si -8.57  5.12 -2.98
Si -4.83  7.15 -5.97
Si  4.83 -7.15  5.97
Si  5.58 -7.19 -5.23
Si  4.05  8.20 -5.23
Si -0.44  4.17  9.69
Si  4.71 -3.03  8.95
Si -4.71  3.03 -8.95
Si  5.16 -9.23  0.00
Si -5.16  9.23  0.00
Si 10.60  0.00  0.00
Si -10.60  0.00  0.00
Si -10.39  0.01 -2.24
Si  4.81  3.12  8.95
Si -4.81 -3.12 -8.95
Si  9.21 -1.03 -5.23
Si -6.53 -2.07 -8.21
Si -3.30 -8.24 -5.97
Si  3.30  8.24  5.97
Si -4.07 -1.99  9.69
Si -0.02 10.27  2.98
Si  0.02 -10.27 -2.98
Si -4.94  9.24 -2.24
Si  5.45  9.23  0.00
Si -5.45 -9.23  0.00
Si  6.97 -8.19  0.74
Si -10.60 -2.03  0.74
Si 10.60 -2.03  0.74
Si -4.81 -5.15 -8.21
Si -3.34 10.28  0.74
Si  8.77  5.17  3.73
Si -5.23 -9.23 -2.24
Si  3.76 -8.24 -5.97
Si -3.76  8.24  5.97
Si -9.09 -5.12  2.98
Si  9.09  5.12 -2.98
Si  0.63  6.11 -8.95
Si -0.63 -6.11  8.95
Si  4.81  1.09  9.69
Si -0.31 -10.22  3.73
Si  0.44 -6.20 -8.95
Si -0.44  6.20  8.95
Si -7.16 -8.19  0.74
Si  5.37 -9.23 -2.24
Si -8.90  5.17  3.73
Si -1.08  7.16 -8.21
Si -5.77 -7.15  5.97
Si  5.77  7.15 -5.97
Si  3.73 10.28  0.74
Si  3.09  4.17  9.69
Si -10.39  2.04 -2.98
Si 10.39 -2.04  2.98
Si  1.18 -5.06  9.69
Si  9.21  1.00 -5.97
Si -9.21 -1.00  5.97
Si -6.76  8.19 -2.98
Si  6.76 -8.19  2.98
Si 10.81  0.01 -2.24
Si  5.66  9.24 -2.24
Si -6.53 -0.04 -8.95
Si  6.53  0.04  8.95
Si  5.79 -3.12 -8.95
Si -5.79  3.12  8.95
Si -8.36  5.12 -5.23
Si -5.89 -3.03  8.95
Si  5.89  3.03 -8.95
Si  2.45  7.16 -8.21
Si -2.35 -5.06  9.69
Si -6.43  4.08 -8.21
Si  8.46 -3.03  6.71
Si  0.75 -0.04 -11.19
Si  2.90 -6.11  8.95
Si -2.90  6.11 -8.95
Si  6.65 -6.10  6.71
Si  3.52 10.27  2.98
Si -3.52 -10.27 -2.98
Si  3.55 -10.27 -2.98
Si -3.55 10.27  2.98
Si -3.97  4.17  9.69
Si  5.79 -5.15 -8.21
Si -10.50  4.13  0.74
Si -8.69  7.21  0.74
Si  8.56  3.13  6.71
Si  3.09  6.20  8.95
Si -3.09 -6.20 -8.95
Si 10.49  2.09  3.73
Si -5.79  1.09  9.69
Si  3.23 -10.22  3.73
Si  7.61 -2.07 -8.21
Si 10.81  2.04 -2.98
Si -10.81 -2.04  2.98
Si  1.62 -11.26  0.74
Si  6.84  6.21  6.71
Si  7.38  8.19 -2.98
Si -7.38 -8.19  2.98
Si  1.30 -9.18  6.71
Si -1.91 -11.26  0.74
Si  7.05  8.24  3.73
Si 10.70  4.13  0.74
Si -7.08  8.24  3.73
Si  0.23 -10.27 -5.23
Si -10.71  2.09  3.73
Si -2.78 -0.04 -11.19
Si  8.98  7.21  0.74
Si -3.84 -10.22  3.73
Si  1.59  9.29  6.71
Si -2.24 -9.18  6.71
Si -3.97  6.20  8.95
Si  3.97 -6.20 -8.95
Si  4.17  6.11 -8.95
Si -4.17 -6.11  8.95
Si -1.95  9.29  6.71
Si -10.18  2.05 -5.23
Si  0.44 -8.23 -8.21
Si  8.56  5.16  5.97
Si -8.56 -5.16 -5.97
Si -0.97  3.04 -11.19
Si 10.49  4.12  2.98
Si -10.49 -4.12 -2.98
Si -1.07 -3.11 -11.19
Si -8.25  1.00 -8.21
Si -7.29  6.21  6.71
Si -6.55  8.20 -5.23
Si -8.77 -7.20 -2.98
Si  8.77  7.20  2.98
Si -9.11  3.13  6.71
Si -1.41 11.27 -2.98
Si  1.41 -11.27  2.98
Si  7.60 -0.04 -8.95
Si -7.60  0.04  8.95
Si -7.49 -6.10  6.71
Si 10.39 -4.07  3.73
Si  8.58 -7.14  3.73
Si -9.21 -3.03  6.71
Si  8.90 -7.20 -2.98
Si -8.90  7.20  2.98
Si -4.62  7.16 -8.21
Si  9.31  5.12 -5.23
Si  2.12 11.27 -2.98
Si -2.12 -11.27  2.98
Si -0.52 -10.23  5.97
Si  0.52 10.23 -5.97
Si  6.53 -1.99  9.69
Si -10.71  4.12  2.98
Si 10.71 -4.12 -2.98
Si  2.47 -3.11 -11.19
Si  2.56  3.04 -11.19
Si  4.72 -5.06  9.69
Si  7.70  4.08 -8.21
Si -3.30 -10.27 -5.23
Si  4.28 -0.04 -11.19
Si -3.09 -8.23 -8.21
Si  1.07  1.08 11.94
Si -1.07 -1.08 -11.94
Si -1.74 11.32  3.73
Si  9.11 -5.16 -5.97
Si -9.11  5.16  5.97
Si  1.80 11.32  3.73
Si 10.28  2.08  5.97
Si -10.28 -2.08 -5.97
Si  3.76 -10.27 -5.23
Si  0.75  1.99 -11.94
Si -0.75 -1.99 11.94
Si -10.81 -4.07  3.73
Si -9.09 -7.14  3.73
Si 10.50 -6.16  0.00
Si -10.50  6.16  0.00
Si  1.38  7.25  9.69
Si -10.29  6.16 -2.24
Si  3.02 -10.23  5.97
Si -3.02 10.23 -5.97
Si  2.47 -1.08 -11.94
Si -2.47  1.08 11.94
Si -10.27 -4.11 -5.23
Si  6.84  8.24  5.97
Si -6.84 -8.24 -5.97
Si 10.28  0.05  6.71
Si  3.98 -8.23 -8.21
Si -2.16  7.25  9.69
Si -0.19 -12.31  0.00
Si  0.19 12.31  0.00
Si  7.59  8.20 -5.23
Si -8.55 -7.19 -5.23
Si -10.70 -6.16  0.00
Si 10.70  6.16  0.00
Si  4.83 -9.18  6.71
Si -10.48 -6.15 -2.24
Si 11.02  2.05 -5.23
Si -12.32  1.05  0.74
Si -6.87 10.28  0.74
Si  5.16 -11.26  0.74
Si -2.79  1.99 -11.94
Si  2.79 -1.99 11.94
Si -5.88 -5.06  9.69
Si  5.98  7.16 -8.21
Si -4.50  3.04 -11.19
Si  6.63  4.17  9.69
Si -7.60 -1.99  9.69
Si -10.18  4.08 -5.97
Si 10.18 -4.08  5.97
Si 12.42  1.05  0.74
Si -1.20 11.28 -5.23
Si -4.60 -3.11 -11.19
Si  0.02 -12.30 -2.24
Si  7.30 -8.24 -5.97
Si -7.30  8.24  5.97
Si -4.05 -10.23  5.97
Si  4.05 10.23 -5.97
Si -8.36  7.15 -5.97
