500
set: 117.00  0.00  0.00
Si -0.06  0.01  0.03
Si  1.84  1.08  0.83
Si -0.06  0.06 -2.33
Si -0.04 -2.21  0.79
Si -1.93  1.11  0.89
Si  1.90 -1.09 -3.04
Si  1.92  3.25  0.01
Si -3.81  0.01  0.03
Si -1.87 -3.33 -0.02
Si  3.83  0.10 -0.00
Si  0.05  2.25 -3.10
Si  1.90 -3.34  0.03
Si  1.89  1.13  3.16
Si -1.90 -1.14 -3.18
Si -1.94  3.35  0.14
Si  0.00 -2.29  3.17
Si -1.91  1.06  3.26
Si -3.75  0.01 -2.32
Si -1.90  3.32 -2.21
Si -3.77 -2.21  0.75
Si  3.80 -2.20  0.73
Si  1.90 -1.12  3.91
Si  1.91 -3.34 -2.35
Si -1.87 -3.33 -2.40
Si  3.86  0.08 -2.38
Si  1.96  3.35 -2.37
Si -0.07  2.27  3.96
Si -1.93 -1.14  3.99
Si  0.07  4.51  0.78
Si -3.80  2.21 -3.08
Si  3.84 -2.15  3.07
Si -3.81 -2.25  3.12
Si  0.05  4.46  3.13
Si  0.00 -4.42 -3.19
Si  3.90  2.28 -3.22
Si  1.85 -1.13 -5.41
Si  3.84  4.35  0.78
Si -5.71  1.18  0.70
Si -0.01  2.22 -5.45
Si  3.79  2.23  3.94
Si  1.88 -5.55  0.85
Si  5.78  1.09  0.81
Si -3.87  2.21  3.93
Si -0.06 -4.51  3.90
Si -1.97 -1.12 -5.54
Si -1.98 -5.60  0.77
Si -3.81  4.54  0.89
Si -5.68 -3.31 -0.10
Si -5.68 -1.12 -3.13
Si  1.94  1.10 -6.20
Si -1.91  5.49 -3.12
Si  3.84  4.37  3.12
Si  0.01 -6.61 -0.03
Si -5.78  1.11  3.02
Si  1.83 -1.07  6.27
Si -3.76 -4.47 -3.13
Si  3.85 -4.40 -3.12
Si  1.93  5.52 -3.14
Si  5.78 -3.27  0.04
Si  5.75  1.08  3.17
Si  5.80 -1.02 -3.11
Si -0.02 -2.18 -6.29
Si -0.05  6.66 -0.06
Si -5.72  3.42 -0.00
Si -0.12  2.23  6.28
Si  1.94 -5.55  3.15
Si -1.95  1.11 -6.31
Si -3.80  4.45  3.25
Si -1.96 -1.19  6.30
Si  5.84  3.32  0.03
Si -1.93 -5.63  3.13
Si  3.88 -4.38  3.77
Si -5.74 -1.12  3.81
Si -3.82  2.19 -5.43
Si -0.10  0.00  7.02
Si  5.76 -3.30 -2.34
Si  0.02 -6.64 -2.37
Si  1.97  5.52  3.94
Si  5.76  3.35 -2.32
Si -0.00 -4.44 -5.50
Si -1.88  5.57  3.95
Si -5.77  3.35 -2.36
Si  0.01  6.65 -2.44
Si -5.75 -3.37 -2.45
Si -3.85 -4.50  3.94
Si  3.84  2.26 -5.56
Si  5.88 -1.12  3.87
Si  3.79  6.53 -0.02
Si  3.88 -6.57  0.05
Si  3.73  2.23  6.28
Si -7.66  0.05  0.03
Si  3.78 -2.26 -6.27
Si -0.04  4.41 -6.29
Si -0.04 -4.45  6.25
Si -3.91  2.18  6.27
Si  7.71  0.05  0.03
Si -3.94 -2.21 -6.26
Si -3.81  6.73  0.05
Si -3.89 -6.77 -0.02
Si  5.63 -1.09 -5.48
Si -1.95  5.46 -5.45
Si -7.63 -0.04 -2.30
Si  1.91 -3.30  7.01
Si -3.77  6.67 -2.30
Si -7.64 -2.24  0.70
Si  1.90  7.75  0.69
Si  3.86  6.60 -2.40
Si  3.77 -4.46 -5.48
Si  5.80 -5.47  0.79
Si  1.84  3.36  7.04
Si  3.81  0.01  7.06
Si  3.92 -6.63 -2.30
Si -3.87 -4.43 -5.48
Si -5.78 -5.55  0.69
Si  1.91  5.56 -5.53
Si  7.72 -2.24  0.70
Si -3.91 -0.03  7.06
Si  7.74 -0.04 -2.30
Si -3.82 -6.70 -2.40
Si -2.06  3.35  7.06
Si -1.89  7.83  0.79
Si -5.84 -1.08 -5.50
Si -1.95 -3.40  7.09
Si  3.83 -4.40  6.19
Si  1.98 -7.69 -3.11
Si  5.74 -1.09  6.23
Si -7.65  2.21 -3.12
Si  1.95  7.74  3.10
Si -5.73 -5.56  3.10
Si -1.85 -7.75 -3.15
Si -7.67 -2.31  3.04
Si -5.76  1.10 -6.25
Si -5.80 -1.18  6.20
Si -5.71  5.61 -3.11
Si  7.69 -2.31  3.04
Si -3.90  4.42 -6.25
Si -1.95  5.58  6.23
Si  1.91  5.54  6.29
Si  5.74  1.14 -6.31
Si  7.71  2.21 -3.12
Si -1.86  7.79  3.16
Si -1.94 -5.53 -6.31
Si  5.82 -5.51  3.16
Si -3.90 -4.44  6.29
Si  5.83  5.55 -3.15
Si  3.83  4.46 -6.35
Si  1.88 -5.62 -6.34
Si  1.95  1.06 -8.53
Si  5.72  5.49  3.87
Si  0.04 -8.83  0.77
Si  7.67  2.22  3.87
Si -7.65  4.46  0.77
Si -7.70  2.22  3.87
Si -5.73  5.50  4.01
Si -1.96 -7.81  3.87
Si  7.71  4.46  0.77
Si -0.01 -2.22 -8.67
Si -1.96  1.05 -8.67
Si  1.95 -7.79  4.01
Si -0.03  0.03  9.34
Si -7.64  4.44  3.14
Si  0.05 -8.86  3.14
Si  0.05  0.00 -9.40
Si  7.66 -4.41 -3.20
Si -7.71 -4.41 -3.20
Si -0.03  8.88 -3.20
Si  7.73  4.44  3.14
Si  5.70  7.70  0.77
Si  3.88 -8.76  0.89
Si  5.71  3.32  7.00
Si  7.68  2.18 -5.43
Si  0.04  8.80  3.97
Si -7.68  2.18 -5.43
Si -0.06  4.35 -8.63
Si  3.82 -2.23 -8.61
Si -9.59  1.09  0.81
Si  1.85 -7.76 -5.49
Si -1.90 -7.75 -5.50
Si -3.89 -2.21 -8.60
Si  5.78 -3.31  7.04
Si -7.63 -4.49  3.97
Si -0.01 -6.63  7.09
Si -0.01  6.62  7.11
Si  5.78  5.55 -5.50
Si -5.81  7.75  0.85
Si -5.84  5.53 -5.49
Si -5.84 -3.33  7.05
Si  9.66  1.18  0.70
Si -3.84 -8.95  0.78
Si  7.73 -4.49  3.97
Si -5.83  3.31  7.13
Si  7.57 -2.21 -6.26
Si  3.88  0.01 -9.29
Si  1.96 -9.88 -0.00
Si -1.96  7.67 -6.24
Si  5.75  7.67  3.13
Si -9.53  3.32  0.03
Si -9.56 -1.02 -3.11
Si  7.63 -6.63 -0.06
Si  9.59  1.11  3.02
Si  5.73  5.54  6.23
Si -9.58 -3.27  0.04
Si -1.93  3.23 -9.41
Si  7.66  2.26  6.25
Si -1.93 -3.36 -9.37
Si -1.95 -7.75  6.23
Si  1.94  3.31 -9.39
Si -1.84 -9.98  0.03
Si -5.75  7.75  3.15
Si  3.92  8.83 -3.13
Si  1.93 -3.34  9.40
Si  1.83  7.79 -6.27
Si -3.83  0.04  9.42
Si -5.75 -7.78 -3.14
Si  5.73 -5.63 -6.24
Si -3.84 -0.07 -9.42
Si -3.83  8.89 -3.12
Si  2.00  3.32  9.41
Si -7.71  2.26  6.25
Si -7.67  6.69 -0.03
Si -1.91 -3.37  9.42
Si  2.00  9.99 -0.10
Si -9.62  1.08  3.17
Si -5.84 -5.51 -6.27
Si -7.73 -6.63 -0.06
Si -5.75  5.54  6.34
Si  3.92 -0.03  9.41
Si  3.88 -8.85  3.25
Si  7.69  6.69 -0.03
Si  1.94 -7.75  6.34
Si  5.78 -7.81 -3.12
Si -3.84 -8.93  3.12
Si -1.89  3.41  9.43
Si -1.91 10.03  0.04
Si  9.64  3.42 -0.00
Si  9.69 -3.31 -0.10
Si  9.69 -1.12 -3.13
Si -7.80 -2.21 -6.26
Si  1.91 -3.33 -9.52
Si -9.49 -1.12  3.87
Si  1.93  1.06 10.09
Si  0.01 -2.21 10.10
Si  3.84 -6.60  6.98
Si  3.83  8.80  3.94
Si -3.85  4.36 -8.60
Si  7.59 -4.44 -5.52
Si -5.71  1.08 -8.61
Si -1.91 -9.94 -2.32
Si  1.92 -9.95 -2.36
Si  1.93  9.92 -2.45
Si -3.81  8.92  3.77
Si -3.85  6.70  6.98
Si  7.68  0.00  7.04
Si  9.63 -1.12  3.81
Si -9.61 -3.30 -2.34
Si -5.71 -7.78  3.94
Si -7.69  0.00  7.04
Si -7.67  6.66 -2.37
Si -9.60  3.35 -2.32
Si  5.81  1.13 -8.59
Si  9.60  3.35 -2.36
Si -0.10  8.86 -5.52
Si -7.67 -6.65 -2.44
Si -1.93  1.14 10.20
Si  5.81 -7.73  3.95
Si  7.70  6.66 -2.37
Si -1.93 10.00 -2.34
Si  3.86  6.62  7.11
Si -1.80 -5.56 -8.68
Si  7.70 -6.65 -2.44
Si -3.82 -6.67  7.11
Si  9.62 -3.37 -2.45
Si -7.78 -4.44 -5.52
Si  1.95 -5.56 -8.73
Si  3.88  4.48 -8.77
Si -7.68  4.42 -6.24
Si  7.68  4.42 -6.24
Si  0.01 -8.88 -6.24
Si -0.00  8.86  6.30
Si -7.68 -4.44  6.30
Si  7.68 -4.44  6.30
Si -9.56 -5.47  0.79
Si  9.53 -1.08 -5.50
Si  0.04 11.06  0.70
Si  3.86 -2.26 10.14
Si  9.58 -5.55  0.69
Si  3.81  8.87 -5.48
Si -3.91  8.83 -5.48
Si -5.77 -7.74 -5.53
Si -3.77 -2.19 10.24
Si  5.74 -7.84 -5.45
Si  0.05  4.40 10.24
Si -9.74 -1.09 -5.48
Si  0.01 10.99  3.04
Si  5.78 -3.38 -9.28
Si  0.00  6.57 -9.37
Si  9.56 -1.18  6.20
Si  5.74 -7.72  6.23
Si -9.54 -5.51  3.16
Si -9.54  5.55 -3.15
Si  5.78  3.30  9.36
Si  5.75 -9.95  0.14
Si -5.71 -3.25  9.43
Si  3.78  8.86  6.29
Si  3.79 -8.88 -6.25
Si -3.86  8.90  6.19
Si  9.60  1.10 -6.25
Si -5.79 -3.31 -9.38
Si -5.79  9.95  0.03
Si  0.03 -11.09 -3.12
Si -9.63 -1.09  6.23
Si  0.05 -6.61  9.44
Si -5.80  7.68 -6.34
Si -5.73  3.30 -9.45
Si  0.03  6.65  9.42
Si -5.76 -7.76  6.29
Si  5.74  7.76 -6.31
Si  5.83 -3.31  9.39
Si  5.82  3.35 -9.38
Si -11.54  0.10 -0.00
Si  5.81  9.97 -0.02
Si -3.85 -8.84 -6.35
Si  9.64 -5.56  3.10
Si 11.55  0.01  0.03
Si -9.63  1.14 -6.31
Si -5.75 -10.05  0.01
Si  9.65  5.61 -3.11
Si -5.79  3.35  9.51
Si -7.60 -8.78  0.78
Si  0.01 -6.75 -9.49
Si  7.62 -2.17 -8.58
Si -1.93  7.71 -8.55
Si -5.72 -9.94 -2.37
Si  5.76 -5.58 -8.55
Si  1.96 -5.50 10.17
Si -0.01 -11.08  3.87
Si  5.81  1.11 10.14
Si  5.79 -9.97 -2.21
Si  1.90  7.74 -8.63
Si  7.76 -8.78  0.78
Si -5.78  9.96 -2.35
Si -9.64  5.49  3.87
Si -11.51  0.08 -2.38
Si -3.83  4.52 10.16
Si -5.78  1.10 10.19
Si -7.75 -2.17 -8.58
Si  0.04  0.03 -11.77
Si  3.91 11.08  0.75
Si  5.81  9.96 -2.40
Si -5.78 -5.56 -8.63
Si -3.89 11.10  0.73
Si -11.57 -2.20  0.73
Si  9.63  5.50  4.01
Si  3.92  4.45 10.22
Si 11.59 -2.21  0.75
Si 11.61  0.01 -2.32
Si -1.90 -5.54 10.33
Si  3.90 -6.58  9.32
Si -3.78 -11.01 -3.22
Si -7.63 -8.84  3.13
Si  7.68  0.02  9.35
Si -7.69  0.02  9.35
Si -3.79  6.72  9.32
Si -7.63  0.02 -9.41
Si  3.87 11.05  3.12
Si -11.52 -2.15  3.07
Si -3.81  6.61 -9.42
Si -11.47  2.28 -3.22
Si  3.89 -11.09 -3.08
Si  7.73 -8.84  3.13
Si -3.83 -6.59 -9.47
Si  7.68  8.88 -3.19
Si 11.57  2.21 -3.08
Si -7.69  8.88 -3.19
Si -3.80 -6.65  9.46
Si  7.73  0.02 -9.41
Si 11.56 -2.25  3.12
Si -3.84 11.15  3.07
Si  3.88 -6.69 -9.42
Si  3.88  6.65  9.46
Si  3.85  6.71 -9.47
Si  7.62  8.79  3.90
Si -7.63  4.37 -8.57
Si  3.88  0.10 -11.65
Si  1.88  3.31 -11.69
Si  1.98 -12.12  0.70
Si  9.53  5.53 -5.49
Si  9.52 -3.33  7.05
Si  9.56  7.75  0.85
Si  7.73  4.37 -8.57
Si -11.53  4.35  0.78
Si -1.90 -3.35 -11.73
Si -1.97 -9.98  7.00
Si -9.58 -3.31  7.04
Si  1.84  9.97  7.05
Si 11.50  2.21  3.93
Si -7.75  8.79  3.90
Si  9.53  3.31  7.13
Si -9.58  5.55 -5.50
Si  3.82 -11.08  3.93
Si -1.91  9.98  7.04
Si -3.84 -0.09 -11.76
Si  0.00 -11.12 -5.43
Si -1.98  3.26 -11.77
Si -3.89 -11.07  3.94
Si  0.05 -8.93 -8.57
Si -9.66  3.32  7.00
Si -9.67  7.70  0.77
Si -1.90 -12.21  0.81
Si  7.67  6.66  7.09
Si -7.70  6.66  7.09
Si  1.85 -9.99  7.13
Si  7.68 -6.68  7.11
Si -7.68 -6.68  7.11
Si -11.57  2.23  3.94
Si  1.98 -3.26 -11.84
Si 11.56  4.54  0.89
Si  2.00  1.13 12.44
Si  9.52 -5.51 -6.27
Si -0.05 -2.20 12.48
Si -0.02 -11.04  6.25
Si -1.84 -1.12 -12.51
Si -9.62  7.67  3.13
Si  1.91 -12.19  3.02
Si -11.51 -4.40 -3.12
Si -11.53  4.37  3.12
Si  2.00 12.18 -3.13
Si -0.12 11.09 -6.26
Si  1.97 -1.02 -12.54
Si -9.63  5.54  6.23
Si  9.62  7.75  3.15
Si -9.59 -7.81 -3.12
Si  9.62 -7.78 -3.14
Si  0.01  2.25 -12.57
Si -1.93 -12.22  3.17
Si -1.91  1.17 12.57
Si  9.62  5.54  6.34
Si -9.64 -5.63 -6.24
Si -1.89 12.27 -3.11
Si 11.56  4.45  3.25
Si 11.61 -4.47 -3.13
Si -11.49 -4.38  3.77
Si -9.56  1.13 -8.59
Si -1.81 12.18  3.87
Si  1.94 12.18  3.81
Si -9.56 -7.73  3.95
Si -7.67 -2.20 10.17
Si -5.77 -5.51 10.18
Si  7.70 -2.20 10.17
Si -3.84 -11.04 -5.56
Si 11.55  2.19 -5.43
Si  7.68  8.86 -5.50
Si  1.91  7.79 10.18
Si -7.69  8.86 -5.50
Si  3.87 -11.11 -5.43
Si  5.76 -5.50 10.22
Si  9.65  1.08 -8.61
Si 11.52 -4.50  3.94
Si  3.84 -8.94 -8.60
Si -11.53  2.26 -5.56
Si -1.92  7.79 10.22
Si -5.74  7.74 -8.73
Si -3.80 -8.82 -8.77
Si  9.65 -7.78  3.94
Si  5.88  7.74 -8.68
Si 11.42 -2.21 -6.26
Si -11.49 -6.57  0.05
Si 11.46  2.18  6.27
Si  0.03 -13.24  0.03
Si  0.03 -4.39 -12.51
Si  7.64  8.85  6.25
Si  3.73 11.09 -6.26
Si -3.91 11.04 -6.27
Si  3.88  2.29 -12.49
Si  3.79 -2.33 12.52
Si -11.58  6.53 -0.02
Si -7.72  8.85  6.25
Si  7.65 -8.89 -6.29
Si  3.78 -11.12  6.27
Si -3.89  2.09 -12.56
Si -3.94 -11.07  6.28
Si 11.48 -6.77 -0.02
Si -3.81 -2.13 12.59
Si -7.72 -8.89 -6.29
Si  0.02  4.49 12.57
Si  0.02 13.35  0.03
Si -11.59 -2.26 -6.27
Si 11.55  6.73  0.05
Si -11.63  2.23  6.28
Si  5.76 -3.33 -11.65
Si  1.90 -1.11 13.23
Si  0.04  2.20 13.24
Si -11.45 -6.63 -2.30
Si  5.63 -9.95  7.06
Si 11.45 -0.03  7.06
Si  0.05 13.26 -2.30
Si  5.73  9.90  7.09
Si -11.51  6.60 -2.40
Si -0.06 -8.80 10.21
Si  7.63 11.08  0.79
