500
set: 361.00  0.00  0.00
Si -0.02  0.02 -0.04
Si -0.06 -2.11  0.79
Si  1.90  1.07  0.64
Si -1.82  1.12  0.80
Si -0.07  0.01 -2.34
Si  1.85  1.03  2.94
Si -3.63 -0.06  0.03
Si  1.82 -1.00 -3.02
Si  1.83 -3.19  0.03
Si -1.84 -3.23 -0.01
Si -0.07  2.13 -3.04
Si -0.07 -2.17  3.04
Si  1.89  3.23 -0.01
Si -1.90  3.26  0.03
Si -1.91  1.15  3.06
Si  3.82 -0.06  0.03
Si -1.88 -1.12 -3.14
Si  0.02  4.22  0.84
Si -3.67 -0.05 -2.25
Si  1.85 -3.17 -2.27
Si  1.84 -1.09  3.78
Si  1.84  3.21 -2.30
Si -1.87 -1.02  3.81
Si  0.06  2.10  3.83
Si -1.88 -3.24 -2.30
Si  3.79 -0.05 -2.25
Si -1.87  3.28 -2.27
Si -3.71 -2.24  0.84
Si  3.75 -2.24  0.84
Si -3.67  2.15 -2.96
Si  0.06 -4.30 -2.96
Si  3.78  2.15 -2.96
Si -3.67 -2.15  3.12
Si  0.06  4.30  3.12
Si  3.78 -2.15  3.12
Si  3.66  2.16  3.75
Si -5.55  1.07  0.64
Si -0.07 -4.29  3.75
Si  1.90 -5.33  0.80
Si  1.90 -1.03 -5.29
Si -1.82 -5.38  0.64
Si -0.06  2.19 -5.30
Si  3.67  4.34  0.79
Si -3.79  2.16  3.75
Si  5.63  1.12  0.80
Si -3.78  4.34  0.79
Si -1.82 -1.08 -5.45
Si  1.82 -5.31  3.06
Si  0.10  6.39  0.03
Si  3.66  4.28  3.04
Si -5.61  1.03  2.94
Si  1.83  1.11 -6.05
Si  3.66 -4.32 -3.04
Si -5.57  3.23 -0.01
Si  5.55  1.15  3.06
Si  5.55  3.26  0.03
Si  0.10 -2.21 -6.06
Si -1.88 -5.42  2.94
Si  1.89 -1.07  6.08
Si -1.84  1.08 -6.09
Si  1.85  5.33 -3.14
Si  0.10  2.09  6.11
Si -5.63 -3.19  0.03
Si -5.63 -1.00 -3.02
Si  5.61 -3.23 -0.01
Si -3.79  4.28  3.04
Si -1.90 -1.04  6.11
Si  5.57 -1.12 -3.14
Si -3.79 -4.32 -3.04
Si  0.10 -6.51  0.03
Si -1.91  5.45 -3.02
Si -3.71  2.07 -5.25
Si  3.75  2.07 -5.25
Si  0.06  6.40 -2.25
Si -5.60 -3.17 -2.27
Si -1.88  5.36  3.78
Si  5.58 -1.02  3.81
Si  0.02 -4.39 -5.25
Si  5.57 -3.24 -2.30
Si -5.61 -1.09  3.78
Si -5.61  3.21 -2.30
Si  5.58  3.28 -2.27
Si -3.67 -4.36  3.83
Si  0.06 -6.51 -2.25
Si  1.85  5.43  3.81
Si  0.02 -0.09  6.92
Si  3.79 -4.36  3.83
Si -0.02 -4.28  6.05
Si  3.71  2.17  6.05
Si  3.71 -6.43 -0.04
Si  7.43  0.02 -0.04
Si -3.75  2.17  6.05
Si -3.75 -6.43 -0.04
Si  3.71  6.47 -0.04
Si  3.71 -2.13 -6.12
Si -7.47  0.02 -0.04
Si -3.75  6.47 -0.04
Si -3.75 -2.13 -6.12
Si -0.02  4.32 -6.12
Si -1.82  3.22  6.72
Si  1.90 -3.23  6.72
Si  3.67 -4.26 -5.30
Si  7.40 -2.11  0.79
Si -5.55 -5.33  0.80
Si -5.55 -1.03 -5.29
Si  7.38  0.01 -2.34
Si -1.82  7.53  0.64
Si  3.66 -6.44 -2.34
Si -3.78 -4.26 -5.30
Si  3.66  6.46 -2.34
Si  3.67  0.04  6.87
Si -1.82 -3.18  6.88
Si -1.82  5.43 -5.29
Si  5.63 -5.38  0.64
Si -3.80 -6.44 -2.34
Si -7.51 -2.11  0.79
Si -3.78  0.04  6.87
Si -3.79  6.46 -2.34
Si  1.90  3.28  6.88
Si  1.90  7.58  0.80
Si -7.52  0.01 -2.34
Si  1.90  5.37 -5.45
Si  5.63 -1.08 -5.45
Si -3.63  4.24 -6.06
Si -1.88  7.48  2.94
Si  7.38  2.13 -3.04
Si -1.91 -7.46 -3.02
Si  7.38 -2.17  3.04
Si -1.90 -5.34 -6.05
Si -5.57 -1.07  6.08
Si  5.57 -5.42  2.94
Si -5.63 -5.31  3.06
Si -1.84  5.38  6.08
Si  5.55 -1.04  6.11
Si  3.82  4.24 -6.06
Si -5.63  1.11 -6.05
Si -3.63 -4.36  6.11
Si  1.89 -5.38 -6.09
Si  5.55  5.45 -3.02
Si -5.61  5.33 -3.14
Si  5.61  1.08 -6.09
Si  1.83  5.41  6.11
Si -7.52  2.13 -3.04
Si  1.82  7.60  3.06
Si -7.52 -2.17  3.04
Si  1.85 -7.58 -3.14
Si  3.82 -4.36  6.11
Si -7.43  4.22  0.84
Si -7.39  2.10  3.83
Si  1.85 -7.47  3.81
Si  5.57  5.36  3.78
Si  7.47  4.22  0.84
Si  0.06 -2.21 -8.33
Si  1.85  1.13 -8.36
Si -1.88 -7.54  3.78
Si -1.88  1.06 -8.38
Si -5.60  5.43  3.81
Si  7.51  2.10  3.83
Si  0.02 -8.69  0.84
Si  0.06  0.00 -9.05
Si -7.40 -4.30 -2.96
Si  0.06  8.61 -2.96
Si -7.40  4.30  3.12
Si  7.51 -4.30 -2.96
Si  0.06 -8.60  3.12
Si  7.51  4.30  3.12
Si  0.06  0.00  9.21
Si -5.55 -3.23  6.72
Si  7.38 -4.29  3.75
Si -1.82 -7.48 -5.29
Si  5.63  3.22  6.72
Si  3.67 -8.56  0.79
Si  7.40  2.19 -5.30
Si -9.27  1.12  0.80
Si -0.07  8.62  3.75
Si -3.78 -8.56  0.79
Si -0.06 -6.41  6.87
Si  5.63  7.53  0.64
Si -5.55  3.28  6.88
Si -5.55  7.58  0.80
Si  3.66 -2.14 -8.42
Si -7.52 -4.29  3.75
Si  9.36  1.07  0.64
Si  5.63 -3.18  6.88
Si  5.63  5.43 -5.29
Si -7.51  2.19 -5.30
Si -5.55  5.37 -5.45
Si -0.05  6.49  6.87
Si -0.07  4.31 -8.42
Si -3.80 -2.14 -8.42
Si  1.90 -7.53 -5.45
Si -7.35  6.39  0.03
Si -1.88  3.18  9.03
Si  5.55 -7.46 -3.02
Si  1.85 -3.27  9.03
Si -7.36 -2.21 -6.06
Si  5.57  7.48  2.94
Si -7.35  2.09  6.11
Si  5.55 -5.34 -6.05
Si  9.27 -1.00 -3.02
Si  9.30  1.03  2.94
Si  9.28 -3.19  0.03
Si  3.66  8.59 -3.04
Si -7.36 -6.51  0.03
Si -1.91 -3.15 -9.11
Si  3.66 -0.02 -9.12
Si -1.90 -9.65  0.03
Si -9.29 -3.23 -0.01
Si  3.66 -0.02  9.13
Si  1.83 -7.49  6.11
Si -1.84 -7.53  6.08
Si -5.57 -5.38 -6.09
Si  3.66 -8.62  3.04
Si -1.84  9.68 -0.01
Si  1.82  3.30 -9.11
Si -1.91 -3.15  9.15
Si  1.89 -9.68 -0.01
Si -3.79  8.59 -3.04
Si  5.61  5.38  6.08
Si  1.89  7.53 -6.09
Si -1.90  7.56 -6.05
Si -3.79 -0.02 -9.12
Si  9.34  3.23 -0.01
Si  1.83  9.71  0.03
Si -3.79 -0.02  9.13
Si  1.82  3.30  9.15
Si  7.55  6.39  0.03
Si -3.79 -8.62  3.04
Si -9.35  3.26  0.03
Si -9.33 -1.12 -3.14
Si -9.36  1.15  3.06
Si -5.63  5.41  6.11
Si  7.55 -2.21 -6.06
Si -5.61 -7.58 -3.14
Si  7.55  2.09  6.11
Si -1.88  3.18 -9.23
Si -5.63  7.60  3.06
Si  1.85 -3.27 -9.23
Si  7.55 -6.51  0.03
Si  0.02  8.52 -5.25
Si -7.39  6.40 -2.25
Si -3.67  4.25 -8.33
Si -3.67  8.55  3.83
Si -1.87 -9.62 -2.27
Si -1.87 -5.32 -8.36
Si -5.60 -7.47  3.81
Si  9.31 -3.17 -2.27
Si  3.79  4.25 -8.33
Si  9.29 -1.09  3.78
Si  9.29  3.21 -2.30
Si -7.43 -4.39 -5.25
Si -7.39 -6.51 -2.25
Si -1.88  1.06  9.87
Si  3.79  8.55  3.83
Si -3.71  6.37  6.92
Si  5.57 -7.54  3.78
Si -1.88  9.66 -2.30
Si  5.57  1.06 -8.38
Si -5.60  1.13 -8.36
Si  7.51  6.40 -2.25
Si  3.75  6.37  6.92
Si -9.32 -1.02  3.81
Si  7.47 -4.39 -5.25
Si  1.84 -9.70 -2.30
Si  1.85  1.13  9.90
Si  1.84 -5.39 -8.38
Si -9.32  3.28 -2.27
Si -9.34 -3.24 -2.30
Si -7.43 -0.09  6.92
Si  0.06 -2.21  9.92
Si  1.85  9.74 -2.27
Si  7.47 -0.09  6.92
Si  7.51 -6.51 -2.25
Si -3.71 -6.54  6.92
Si  3.75 -6.54  6.92
Si  7.43 -4.28  6.05
Si -7.47 -4.28  6.05
Si -0.02  8.62  6.05
Si -0.02 -8.59 -6.12
Si  7.43  4.32 -6.12
Si -7.47  4.32 -6.12
Si  3.66 -2.14  9.83
Si -0.07  4.31  9.83
Si -9.27 -5.38  0.64
Si -3.80 -2.14  9.83
Si  5.63 -7.48 -5.29
Si  3.67  8.64 -5.30
Si  9.36 -5.33  0.80
Si  9.36 -1.03 -5.29
Si -9.27 -1.08 -5.45
Si -3.78  8.64 -5.30
Si -0.05 10.80  0.79
Si -5.55 -7.53 -5.45
Si  5.57  3.18  9.03
Si -11.08 -0.06  0.03
Si  9.27 -5.31  3.06
Si -3.63  8.54  6.11
Si -5.61 -3.27  9.03
Si  5.55 -3.15 -9.11
Si  5.55 -9.65  0.03
Si  9.28  1.11 -6.05
Si  5.55 -3.15  9.15
Si -0.07 10.74  3.04
Si -9.29  1.08 -6.09
Si -5.57 -9.68 -0.01
Si -0.07  6.43 -9.12
Si  5.55  7.56 -6.05
Si -0.07  6.43  9.13
Si  9.30  5.33 -3.14
Si -5.57  7.53 -6.09
Si -3.63 -8.67 -6.06
Si  3.82  8.54  6.11
Si  5.61 -7.53  6.08
Si -0.07 -6.47 -9.12
Si -9.33 -5.42  2.94
Si -5.63 -7.49  6.11
Si -0.07 -6.47  9.13
Si  5.61  9.68 -0.01
Si  9.34 -1.07  6.08
Si -0.07 -10.78 -3.04
Si -5.63  3.30 -9.11
Si -9.35 -1.04  6.11
Si -5.63  9.71  0.03
Si -5.63  3.30  9.15
Si  5.57  3.18 -9.23
Si -9.36  5.45 -3.02
Si  3.82 -8.67 -6.06
Si 11.28 -0.06  0.03
Si -5.61 -3.27 -9.23
Si -3.71 10.67  0.84
Si  0.02 -0.09 -11.33
Si  3.75 10.67  0.84
Si -11.12 -0.05 -2.25
Si  5.58 -9.62 -2.27
Si -7.39 -2.21 -8.33
Si  5.58 -5.32 -8.36
Si  5.57  1.06  9.87
Si  5.57  9.66 -2.30
Si -1.87 -5.32  9.90
Si  1.84 -5.39  9.87
Si -3.67  4.25  9.92
Si  1.84  7.51 -8.38
Si -11.16 -2.24  0.84
Si -9.34  5.36  3.78
Si -5.60  1.13  9.90
Si  9.31  5.43  3.81
Si  7.51 -2.21 -8.33
Si -5.61 -9.70 -2.30
Si  3.79  4.25  9.92
Si -1.87  7.59 -8.36
Si -5.61 -5.39 -8.38
Si 11.20 -2.24  0.84
Si -5.60  9.74 -2.27
Si 11.24 -0.05 -2.25
Si -7.43 -8.69  0.84
Si  0.06 -10.81  3.83
Si  7.47 -8.69  0.84
Si -7.40  0.00 -9.05
Si -3.67 -6.45 -9.05
Si -3.67  6.46 -9.05
Si -11.12  2.15 -2.96
Si -7.40  8.61 -2.96
Si  3.78 -6.45 -9.05
Si  3.78  6.46 -9.05
Si -3.67 -10.75 -2.96
Si -11.12 -2.15  3.12
Si  7.51  0.00 -9.05
Si -7.40 -8.60  3.12
Si  3.78 -10.75 -2.96
Si -3.67 10.76  3.12
Si  7.51  8.61 -2.96
Si -7.40  0.00  9.21
Si 11.23  2.15 -2.96
Si  3.78 10.76  3.12
Si -3.67 -6.45  9.21
Si -3.67  6.46  9.21
Si  7.51 -8.60  3.12
Si 11.23 -2.15  3.12
Si  3.78 -6.45  9.21
Si  3.78  6.46  9.21
Si  7.51  0.00  9.21
Si -9.27  3.22  6.72
Si 11.11  2.16  3.75
Si -1.82 -9.69  6.72
Si  1.91  9.68  6.72
Si  7.38  8.62  3.75
Si -1.82 -11.78  0.80
Si -1.82 -3.18 -11.37
Si  3.66 -10.75  3.75
Si -0.06 -10.72 -5.30
Si  3.67  0.04 -11.38
Si -9.27  7.53  0.64
Si  7.40 -6.41  6.87
Si  9.36 -3.23  6.72
Si 11.12  4.34  0.79
Si -9.27 -3.18  6.88
Si -9.27  5.43 -5.29
Si  1.90 -9.63  6.88
Si  1.90  3.28 -11.37
Si -3.78  0.04 -11.38
Si -3.80 -10.75  3.75
Si  7.38  4.31 -8.42
Si  1.90 -11.84  0.64
Si  7.40  6.49  6.87
Si -7.51 -6.41  6.87
Si -7.52  8.62  3.75
Si -0.07 -8.60 -8.42
Si -11.25  2.16  3.75
Si -1.82  9.73  6.88
Si  9.36  3.28  6.88
Si  9.36  7.58  0.80
Si -11.23  4.34  0.79
Si -7.51  6.49  6.87
Si  9.36  5.37 -5.45
Si -7.52  4.31 -8.42
Si -1.82  3.22 -11.53
Si  1.90 -3.23 -11.53
Si 11.11  4.28  3.04
Si  0.10 10.70 -6.06
Si -1.91 -11.76  3.06
Si 11.11 -4.32 -3.04
Si -9.33  7.48  2.94
Si  0.10  2.09 -12.14
Si -1.90 -1.04 -12.14
Si -9.29  5.38  6.08
Si -1.88 11.79 -3.14
Si -9.36 -7.46 -3.02
Si -1.84  1.08 12.16
Si -9.35 -5.34 -6.05
Si  9.28  5.41  6.11
Si  1.89 -1.07 -12.18
Si  9.27  7.60  3.06
Si  1.85 -11.88  2.94
Si  9.34 -5.38 -6.09
Si  1.83  1.11 12.20
Si  0.10 -2.21 12.20
Si  9.30 -7.58 -3.14
Si -11.25  4.28  3.04
Si  1.82 11.90 -3.02
Si  0.10 -10.82  6.11
Si -11.25 -4.32 -3.04
Si -7.43  8.52 -5.25
Si  7.47  8.52 -5.25
Si -11.16  2.07 -5.25
Si  9.31 -7.47  3.81
Si 11.20  2.07 -5.25
Si  1.84  7.51  9.87
Si -11.12 -4.36  3.83
Si  1.84 11.82  3.78
Si  5.58 -5.32  9.90
Si  9.31  1.13 -8.36
Si -3.67 -8.66 -8.33
Si -7.39 -2.21  9.92
Si -5.61 -5.39  9.87
Si -5.61  7.51 -8.38
Si -9.34 -7.54  3.78
Si  5.58  7.59 -8.36
Si -9.34  1.06 -8.38
Si  3.79 -8.66 -8.33
Si -3.71 -10.84 -5.25
Si -1.87  7.59  9.90
Si  3.75 -10.84 -5.25
Si -1.87 11.89  3.81
Si  7.51 -2.21  9.92
Si 11.24 -4.36  3.83
Si  3.71 -2.13 12.13
Si  3.71 -10.74  6.05
Si -3.75 -2.13 12.13
Si 11.16  2.17  6.05
Si -0.02  4.32 12.13
Si -3.75 -10.74  6.05
Si 11.16 -6.43 -0.04
Si -0.02 -12.89 -0.04
Si  7.43  8.62  6.05
Si 11.16  6.47 -0.04
Si  7.43 -8.59 -6.12
Si 11.16 -2.13 -6.12
Si -11.20  2.17  6.05
Si -7.47  8.62  6.05
Si -11.20 -6.43 -0.04
Si -7.47 -8.59 -6.12
Si -0.02 12.93 -0.04
Si  3.71 10.78 -6.12
Si -11.20  6.47 -0.04
Si -0.02 -4.28 -12.21
Si  3.71  2.17 -12.21
Si -11.20 -2.13 -6.12
Si -3.75 10.78 -6.12
Si -3.75  2.17 -12.21
Si -1.82 -1.08 12.81
Si -5.55  9.68  6.72
Si  7.38  4.31  9.83
Si 11.12 -4.26 -5.30
Si -9.28 -7.48 -5.29
Si 11.11 -6.44 -2.34
Si -0.07 -8.59  9.83
Si -13.00  1.07  0.64
Si -0.06 -6.41 -11.38
Si 11.11  6.46 -2.34
Si  5.63 -9.69  6.72
