500
set: 1524.00  0.00  0.00
Si -0.53 -0.72 -0.50
Si  0.17 -0.64  1.41
Si  1.01  1.18 -0.75
Si  1.35  1.54  1.20
Si  0.59 -2.25 -1.52
Si -2.19  0.39  2.09
Si -3.00 -0.81  0.41
Si  1.10 -0.60 -2.94
Si  3.10 -0.81  0.41
Si -1.45  2.56 -1.52
Si -0.69  2.29  2.69
Si  2.60  1.31 -2.34
Si  1.35 -2.53  2.69
Si -1.46  0.56 -3.83
Si  1.06  4.01  0.41
Si -3.50  1.31 -2.34
Si -2.71 -3.27  1.20
Si  3.91  0.39  2.09
Si -1.46 -3.51 -2.34
Si -2.69 -1.27  3.51
Si -2.64 -1.62 -3.62
Si -1.87  4.18  1.41
Si -3.05 -3.63 -0.75
Si  3.05 -3.63 -0.75
Si -2.57  4.10 -0.50
Si  3.39 -3.27  1.20
Si -0.15 -4.43  2.09
Si  0.29 -1.79 -4.62
Si  1.42  3.20 -3.62
Si -0.24 -2.65  4.28
Si  3.40 -1.27  3.51
Si  2.28  0.27  4.53
Si -4.75  1.54  1.20
Si  1.36  3.54  3.51
Si -0.95  4.22 -2.94
Si  3.46 -1.62 -3.62
Si -5.09  1.18 -0.75
Si -2.28  2.16  4.28
Si  3.53  4.10 -0.50
Si -0.19  0.18  5.43
Si  4.65  2.56 -1.52
Si  5.57 -0.72 -0.50
Si -0.95 -5.62  0.41
Si  0.58 -4.26 -3.83
Si  1.52 -5.53 -0.50
Si -1.75  3.02 -4.62
Si -5.00 -0.60 -2.94
Si  1.86  5.20  2.09
Si -3.82  0.27  4.53
Si -4.75 -2.53  2.69
Si  4.64  0.56 -3.83
Si  2.21 -5.45  1.41
Si -1.80  0.20 -5.78
Si  4.23  4.18  1.41
Si  3.82  2.16  4.28
Si -5.93 -0.64  1.41
Si -1.03  6.00 -0.75
Si -5.51 -2.25 -1.52
Si  4.64 -3.51 -2.34
Si  0.72  3.11 -5.53
Si  2.76 -1.70 -5.53
Si -5.04  4.01  0.41
Si  5.41  2.29  2.69
Si  6.27 -0.64  1.41
Si -0.70  6.36  1.20
Si  0.55  6.12 -2.34
Si  0.10 -2.29  6.23
Si -1.77 -4.55  4.53
Si -3.34 -1.70 -5.53
Si -6.63 -0.72 -0.50
Si -4.68  3.20 -3.62
Si  0.24  5.08  4.53
Si -2.96 -5.41 -2.94
Si -3.89 -5.45  1.41
Si -4.74  3.54  3.51
Si  3.14 -5.41 -2.94
Si  1.84  1.58 -6.54
Si -1.94  2.52  6.23
Si -4.24  5.20  2.09
Si  4.35  3.02 -4.62
Si -0.65 -6.09  3.51
Si  2.59  5.37 -3.83
Si  2.98  0.35  6.44
Si -3.12  0.35  6.44
Si -4.58 -5.53 -0.50
Si  4.30  0.20 -5.78
Si  6.70 -2.25 -1.52
Si  7.11  1.18 -0.75
Si  0.62  1.37  7.12
Si  5.15  4.22 -2.94
Si -0.21  0.32 -7.37
Si  1.86 -4.64  5.43
Si  0.24 -4.62 -5.78
Si -0.60 -6.43 -3.62
Si -3.51  5.37 -3.83
Si -2.22 -3.24 -6.54
Si  5.15 -5.62  0.41
Si -5.81 -1.79 -4.62
Si -6.79  2.29  2.69
Si  2.64 -7.07 -1.52
Si  7.45  1.54  1.20
Si  5.95 -4.43  2.09
Si -2.23  4.99  5.43
Si  5.87 -2.65  4.28
Si  4.33 -4.55  4.53
Si  7.20 -0.60 -2.94
Si  5.07  6.00 -0.75
Si  4.16  2.52  6.23
Si -1.07 -4.47  6.44
Si -6.25 -4.43  2.09
Si -5.52 -4.26 -3.83
Si -4.26  1.58 -6.54
Si  2.61  7.38 -1.52
Si  2.25  5.01 -5.78
Si -3.46 -7.07 -1.52
Si  5.91  0.18  5.43
Si -2.74  7.11  2.69
Si  6.39 -1.79 -4.62
Si -6.34 -2.65  4.28
Si -1.94 -1.54  7.71
Si -7.55  2.56 -1.52
Si -0.67 -8.09  1.20
Si  7.16  4.01  0.41
Si  3.88 -3.24 -6.54
Si -2.71 -7.34  2.69
Si -1.72 -1.58 -7.97
Si -3.49  7.38 -1.52
Si  0.94  5.16  6.44
Si  3.37  7.11  2.69
Si -4.24 -4.64  5.43
Si -6.29  0.18  5.43
Si  7.45 -2.53  2.69
Si -5.38  3.11 -5.53
Si  3.87  4.99  5.43
Si  2.66 -3.45  7.12
Si  1.78  6.98  4.28
Si  2.33 -6.61 -4.62
Si  5.40  6.36  1.20
Si -7.57  0.56 -3.83
Si  3.40 -7.34  2.69
Si -1.00 -8.45 -0.75
Si  0.12 -0.29  8.54
Si -8.29  0.39  2.09
Si -3.85  5.01 -5.78
Si -5.55  6.12 -2.34
Si -3.44 -3.45  7.12
Si -1.29 -6.52 -5.53
Si  2.12  3.27  7.71
Si -7.56 -3.51 -2.34
Si  0.58 -8.32 -2.34
Si -7.05  4.22 -2.94
Si  1.81 -7.47  4.28
Si  6.68 -4.26 -3.83
Si -0.63  8.01 -3.62
Si  1.83 -4.49 -7.37
Si -0.99  8.82  0.41
Si  5.45 -6.09  3.51
Si -3.77 -6.61 -4.62
Si  4.16 -1.54  7.71
Si  2.34  3.23 -7.97
Si  7.52  3.20 -3.62
Si -6.00 -2.29  6.23
Si  7.46  3.54  3.51
Si -5.86  5.08  4.53
Si -7.05 -5.62  0.41
Si -1.40  2.21 -8.65
Si  1.49  8.91 -0.50
Si  1.83 -0.42 -8.86
Si  0.65 -2.60 -8.65
Si  6.20 -2.29  6.23
Si -5.48  1.37  7.12
Si -0.68  8.36  3.51
Si  8.70  1.31 -2.34
Si -7.97  4.18  1.41
Si -9.10 -0.81  0.41
Si -0.20  6.39 -6.54
Si  5.50 -6.43 -3.62
Si  4.39 -1.58 -7.97
Si  9.20 -0.81  0.41
Si -4.32  6.98  4.28
Si -2.26  5.14 -7.37
Si -3.98  3.27  7.71
Si  6.34  5.08  4.53
Si  5.03 -4.47  6.44
Si  6.82  3.11 -5.53
Si  6.66  6.12 -2.34
Si -7.13  6.00 -0.75
Si  2.18  8.99  1.41
Si -3.76  3.23 -7.97
Si -6.80  6.36  1.20
Si  2.30  7.84 -4.62
Si  7.62 -5.53 -0.50
Si -5.86 -4.62 -5.78
Si  5.89  0.32 -7.37
Si -8.81 -3.27  1.20
Si  8.38  0.27  4.53
Si -1.43  6.18  7.12
Si -8.80 -1.27  3.51
Si -8.74 -1.62 -3.62
Si -7.85  3.02 -4.62
Si -8.67  4.10 -0.50
Si -4.29 -7.47  4.28
Si -4.27 -4.49 -7.37
Si -8.38  2.16  4.28
Si  1.90 -9.24  2.09
Si  2.15 -7.11  6.23
Si -1.01  1.25  9.56
Si -6.31  0.32 -7.37
Si -5.16  5.16  6.44
Si  7.96  5.20  2.09
Si -6.75 -6.09  3.51
Si  6.34 -4.62 -5.78
Si -1.33  7.93 -5.53
Si  3.84  5.14 -7.37
Si -7.90  0.20 -5.78
Si  2.58 -1.67  9.30
Si  4.81 -6.52 -5.53
Si  5.43 -8.09  1.20
Si  0.53  3.15  9.30
Si -4.28 -0.42 -8.86
Si  2.12  7.34  6.23
Si -1.93  4.53  8.54
Si -3.80  7.84 -4.62
Si -9.15 -3.63 -0.75
Si  9.15 -3.63 -0.75
Si  6.72  1.37  7.12
Si -0.22  4.39 -8.86
Si  5.10 -8.45 -0.75
Si -3.92  8.99  1.41
Si -2.99  9.03 -2.94
Si -6.70 -6.43 -3.62
Si -9.60  1.31 -2.34
Si  1.54  2.04 -9.65
Si  3.11  9.03 -2.94
Si  0.11 -6.36  7.71
Si  8.31 -5.45  1.41
Si -4.62  8.91 -0.50
Si -3.53 -1.67  9.30
Si  4.71  2.21 -8.65
Si  9.49 -3.27  1.20
Si -7.87 -4.55  4.53
Si  2.16 -5.10  8.54
Si  2.62 -9.07 -3.83
Si  5.12  8.82  0.41
Si  9.51 -1.27  3.51
Si  0.33 -6.40 -7.97
Si 10.01  0.39  2.09
Si -0.18 10.02  2.09
Si -3.96 -7.11  6.23
Si -5.52 -8.32 -2.34
Si  1.04 -3.57  9.56
Si  9.56 -1.62 -3.62
Si -2.52 -2.77 -9.65
Si  5.47  8.01 -3.62
Si -4.21 -9.24  2.09
Si -0.17 -8.05 -6.54
Si  0.27 -9.37  4.53
Si  7.94  1.58 -6.54
Si -3.99  7.34  6.23
Si -5.99 -0.29  8.54
Si -3.48 -9.07 -3.83
Si  9.63  4.10 -0.50
Si -8.04  2.52  6.23
Si  1.09 -10.44  0.41
Si -1.84 -10.27  1.41
Si  4.67  6.18  7.12
Si  4.17  4.53  8.54
Si -2.23 -5.24 -8.86
Si -5.45 -2.60 -8.65
Si  5.42  8.36  3.51
Si  6.22 -0.29  8.54
Si  8.86 -1.70 -5.53
Si -6.77 -8.09  1.20
Si -7.18 -4.47  6.44
Si  3.58 -2.77 -9.65
Si -2.54 -10.35 -0.50
Si -0.92 -10.23 -2.94
Si  7.96 -4.64  5.43
Si -3.94 -5.10  8.54
Si  4.78  7.93 -5.53
Si  7.04  5.16  6.44
Si  2.62  1.16 10.46
Si -4.56  2.04 -9.65
Si  5.90  6.39 -6.54
Si -0.05 -2.69 -10.55
Si  0.55 10.19 -3.83
Si  5.09  1.25  9.56
Si -9.92  0.27  4.53
Si  8.69  5.37 -3.83
Si  6.69 -8.32 -2.34
Si  1.49 -0.79 -10.81
Si  3.56 -10.35 -0.50
Si -9.06 -5.41 -2.94
Si -2.09  2.13 -10.55
Si  3.87 -5.24 -8.86
Si -1.40 -8.26  7.12
Si  9.92  2.16  4.28
Si -10.85  1.54  1.20
Si -1.80  9.90  4.53
Si -7.10 -8.45 -0.75
Si -8.32 -3.24 -6.54
Si -9.44 -1.70 -5.53
Si -6.73  8.01 -3.62
Si -3.48  1.16 10.46
Si  9.24 -5.41 -2.94
Si -6.30  6.39 -6.54
Si -2.20 -9.45  5.43
Si -8.33  4.99  5.43
Si  9.08  0.35  6.44
Si 10.75  2.56 -1.52
Si -1.43 -3.65 10.46
Si  0.08  8.09  7.71
Si  4.26 -10.27  1.41
Si 10.33  4.18  1.41
Si -8.04 -1.54  7.71
Si  3.02 10.81 -0.75
Si -9.22  0.35  6.44
Si -3.08 10.81 -0.75
Si -7.82 -1.58 -7.97
Si  6.75 -2.60 -8.65
Si -11.19  1.18 -0.75
Si -1.49 10.94 -2.34
Si -5.57  3.15  9.30
Si  2.29 -9.43 -5.78
Si -7.40 -6.52 -5.53
Si -6.78  8.36  3.51
Si -7.09  8.82  0.41
Si  0.30  8.05 -7.97
Si  8.36  5.01 -5.78
Si  0.97 -9.28  6.44
Si  8.74 -7.07 -1.52
Si  7.88  6.98  4.28
Si  1.83  9.81  5.43
Si -5.06 -3.57  9.56
Si  0.21  9.83 -5.78
Si 10.74  0.56 -3.83
Si -1.48 -6.48  9.30
Si  2.66  7.03 -8.65
Si -10.85 -2.53  2.69
Si -9.99 -5.45  1.41
Si  4.01  2.13 -10.55
Si  5.88  4.39 -8.86
Si -11.11 -0.60 -2.94
Si  8.71  7.38 -1.52
Si  1.39 -10.90  3.51
Si 10.74 -3.51 -2.34
Si -0.31  1.33 11.47
Si -0.56  4.03 -10.81
Si -2.74 11.17  1.20
Si  3.90 -9.45  5.43
Si -5.01 -10.44  0.41
Si -0.97  0.59 -11.57
Si -8.84  7.11  2.69
Si -9.61  5.37 -3.83
Si -7.50  2.21 -8.65
Si -5.99 -6.36  7.71
Si -3.44  7.03 -8.65
Si  8.44 -6.61 -4.62
Si  7.91 -7.47  4.28
Si  4.30  9.90  4.53
Si  2.91 -1.31 11.26
Si -3.81 -9.43 -5.78
Si  2.69 -7.42 -8.65
Si 11.67 -0.72 -0.50
Si  7.59  8.91 -0.50
Si  7.93 -4.49 -7.37
Si -3.05  6.06  9.56
Si  3.05  6.06  9.56
Si  3.36 11.17  1.20
Si -6.32  4.39 -8.86
Si -5.77 -6.40 -7.97
Si  8.22  3.27  7.71
Si -10.34  5.20  2.09
Si  6.21 -6.36  7.71
Si -3.19 -1.31 11.26
Si -8.80 -7.34  2.69
Si -4.61 -0.79 -10.81
Si  8.76 -3.45  7.12
Si -10.79  3.20 -3.62
Si 10.45  3.02 -4.62
Si  5.92 10.02  2.09
Si  0.87  3.51 11.26
Si  5.18 -10.23 -2.94
Si -11.14  4.01  0.41
Si -0.51  6.86 -9.65
Si  6.63  3.15  9.30
Si  4.71 -8.26  7.12
Si -3.41 -7.42 -8.65
Si  7.93 -0.42 -8.86
Si 10.40  0.20 -5.78
Si  1.45 -11.25 -3.62
Si -11.61 -2.25 -1.52
Si -5.83 -9.37  4.53
Si -1.11  9.98  6.44
Si -10.84  3.54  3.51
Si  5.93 -8.05 -6.54
Si -7.11  1.25  9.56
Si -9.56 -7.07 -1.52
Si -4.28  9.81  5.43
Si -6.28 10.02  2.09
Si  4.67 -3.65 10.46
Si 11.51  2.29  2.69
Si -10.69 -5.53 -0.50
Si  8.44  3.23 -7.97
Si  0.58  5.97 10.46
Si -1.42 -11.88 -1.52
Si -7.53  6.18  7.12
Si  6.43 -6.40 -7.97
Si -2.23 -9.31 -7.37
Si  4.61 10.94 -2.34
Si  1.74 -3.48 11.47
Si -6.27 -8.05 -6.54
Si -12.03 -0.64  1.41
Si  9.47  7.11  2.69
Si -7.43  7.93 -5.53
Si -9.59  7.38 -1.52
Si  6.37 -9.37  4.53
Si -5.55 10.19 -3.83
Si  4.62 -6.48  9.30
Si 10.43 -4.55  4.53
Si 10.26  2.52  6.23
Si -8.36  5.14 -7.37
Si -0.48 -7.59 -9.65
Si  1.32 11.92  2.69
Si  0.56 12.19 -1.52
Si  9.50 -7.34  2.69
Si  8.28  8.99  1.41
Si -1.51  7.96  9.30
Si -10.36  1.58 -6.54
Si  1.07 -4.22 -11.57
Si  9.98 -3.24 -6.54
Si 11.25  4.22 -2.94
Si -4.71 -10.90  3.51
Si  8.40  7.84 -4.62
Si -9.54 -3.45  7.12
Si  8.00 -9.24  2.09
Si  9.97  4.99  5.43
Si -5.13 -9.28  6.44
Si -0.63 -2.46 12.15
Si -1.72 -11.42 -4.62
Si -2.57 -5.60 -10.81
Si  7.14 -3.57  9.56
Si  6.05 -2.69 -10.55
Si -0.66 -12.16  2.69
Si 12.37 -0.64  1.41
Si  7.64  2.04 -9.65
Si  3.87 -9.31 -7.37
Si -6.15 -2.69 -10.55
Si  1.80  9.95 -7.37
Si  8.25 -7.11  6.23
Si -0.27 11.79  4.28
Si -9.95  5.01 -5.78
Si -8.03  4.53  8.54
Si -10.35 -4.64  5.43
Si 11.25 -5.62  0.41
Si  0.75 -11.33 -5.53
Si  8.21  7.34  6.23
Si -2.67  2.35 12.15
Si  5.13  0.59 -11.57
Si  3.53 -5.60 -10.81
Si  7.19 -10.44  0.41
Si 11.17  6.00 -0.75
Si -6.03  8.09  7.71
Si -4.65 -11.25 -3.62
Si -5.80  8.05 -7.97
Si -9.87 -6.61 -4.62
Si -7.02 -10.23 -2.94
Si  6.65 10.19 -3.83
Si -4.37 -3.48 11.47
Si -12.73 -0.72 -0.50
Si  6.18  8.09  7.71
Si -3.02 -0.66 -12.40
Si  0.87 -0.56 12.74
Si  1.96  6.95 -10.55
Si  3.08 -0.66 -12.40
Si  5.54  4.03 -10.81
Si  8.68 -1.67  9.30
Si -5.89  9.83 -5.78
Si  2.13  9.34  8.54
Si  3.43  2.35 12.15
Si  4.68 -11.88 -1.52
Si -1.14 -6.12 11.26
Si  5.00  9.98  6.44
Si -5.23  3.51 11.26
Si -11.91 -1.79 -4.62
Si  5.79  1.33 11.47
Si  8.26 -5.10  8.54
Si 10.26 -1.54  7.71
Si -11.62 -4.26 -3.83
Si -2.26  9.21 -8.86
Si 11.96 -2.65  4.28
Si  6.40  8.05 -7.97
Si 12.05 -4.43  2.09
Si  6.31  9.83 -5.78
Si  1.38 -12.90  1.20
Si -7.94 -10.27  1.41
Si -3.02 -8.38  9.56
Si  4.38 -11.42 -4.62
Si  4.59  7.96  9.30
Si 12.80 -2.25 -1.52
