500
set: 121.00  0.00  0.00
Si -0.03 -0.04 -0.01
Si  1.87  1.04  0.69
Si -0.03 -2.22  0.74
Si -1.89  1.15  0.76
Si  0.03 -0.04 -2.35
Si  1.87  1.06  3.06
Si  1.90  3.25 -0.06
Si -1.80  3.31 -0.04
Si -0.02  2.14 -3.12
Si -0.07 -2.21  3.07
Si -1.90  1.11  3.08
Si -1.88 -1.11 -3.12
Si  1.93 -3.29  0.01
Si -1.93 -3.30 -0.03
Si -3.83  0.07  0.05
Si  3.83 -0.01 -0.03
Si  1.90 -1.09 -3.16
Si  1.79 -1.10  3.85
Si  1.89 -3.24 -2.29
Si  0.01  2.25  3.79
Si  0.10  4.38  0.75
Si  3.82 -2.15  0.81
Si -3.82 -2.17  0.79
Si -1.88  3.28 -2.37
Si -3.81 -0.04 -2.33
Si  3.79 -0.01 -2.38
Si -1.86 -1.06  3.93
Si  1.88  3.29 -2.39
Si -1.92 -3.32 -2.33
Si  3.72 -2.13  3.10
Si  3.77  2.19 -3.04
Si  0.05 -4.34 -3.08
Si -3.75 -2.15  3.12
Si -3.82  2.16 -3.10
Si  0.00  4.42  3.12
Si  3.74  2.15  3.87
Si -3.71  4.38  0.79
Si  3.74  4.39  0.81
Si -0.02  2.17 -5.40
Si -3.81  2.16  3.86
Si  0.01 -4.38  3.88
Si  1.90 -5.48  0.80
Si -1.94 -5.47  0.79
Si  1.87 -1.15 -5.44
Si -1.89 -1.07 -5.46
Si  5.73  1.12  0.76
Si -5.72  1.14  0.79
Si  3.76 -4.33 -3.07
Si  0.02  2.20  6.14
Si -0.02 -6.52  0.02
Si  1.93 -5.42  3.10
Si -5.65  3.31 -0.03
Si  1.85 -1.13  6.17
Si  0.00 -2.17 -6.18
Si  5.66 -3.30  0.00
Si  0.05  6.56 -0.02
Si -1.83 -5.49  3.11
Si  1.91  5.43 -3.17
Si  1.94  1.09 -6.19
Si  5.69  1.12  3.11
Si -1.90  1.13 -6.20
Si -1.96  5.46 -3.11
Si -5.72 -3.27  0.01
Si -3.82  4.36  3.12
Si -5.71 -1.14 -3.08
Si  5.72 -1.08 -3.09
Si -3.78 -4.40 -3.13
Si -5.71  1.04  3.13
Si -1.84 -1.08  6.25
Si  5.71  3.35  0.04
Si  3.86  4.38  3.13
Si -0.04  6.49 -2.33
Si  0.02 -6.51 -2.31
Si  3.79  2.19 -5.35
Si -3.74 -4.38  3.85
Si  3.81 -4.34  3.83
Si  5.66 -1.07  3.87
Si  5.67 -3.26 -2.32
Si  5.69  3.27 -2.29
Si -0.01 -4.39 -5.41
Si -5.67 -3.32 -2.32
Si -5.69  3.31 -2.36
Si -3.87  2.18 -5.41
Si -1.91  5.45  3.96
Si -5.71 -1.14  3.91
Si  1.90  5.51  3.90
Si  0.02  0.05  7.02
Si  3.73  6.55  0.01
Si -0.03  4.36 -6.16
Si -3.80 -2.16 -6.18
Si -7.57 -0.03 -0.00
Si -3.73  6.60 -0.01
Si -3.76  2.18  6.21
Si  3.86 -6.53 -0.01
Si  7.59 -0.03 -0.00
Si  3.83 -2.20 -6.17
Si  3.78  2.22  6.20
Si -3.85 -6.58  0.01
Si -0.03 -4.39  6.23
Si  3.76 -0.01  6.91
Si  1.91 -3.31  6.88
Si  3.79 -6.51 -2.31
Si  7.52 -2.24  0.81
Si -1.93 -3.31  6.91
Si -7.54 -0.01 -2.35
Si  3.76  6.54 -2.36
Si  5.68 -1.12 -5.38
Si -5.69 -5.43  0.80
Si -1.85  7.66  0.75
Si -3.74  0.04  6.98
Si  3.84 -4.34 -5.41
Si -5.71 -1.09 -5.40
Si  1.87  3.29  6.99
Si -1.90  3.26  7.00
Si -1.93  5.45 -5.48
Si  5.73 -5.47  0.75
Si  1.89  7.70  0.80
Si  1.91  5.44 -5.50
Si -3.79  6.62 -2.31
Si  7.62 -0.01 -2.35
Si -3.82 -6.59 -2.36
Si -3.82 -4.38 -5.48
Si -7.64 -2.24  0.81
Si  5.70  1.06 -6.09
Si  5.67 -1.06  6.15
Si  7.55  2.18 -3.07
Si  1.88 -7.65 -3.04
Si  1.91 -5.46 -6.16
Si -1.89  7.64  3.07
Si  1.88  5.45  6.19
Si -5.66 -5.46  3.12
Si  3.84 -4.39  6.12
Si  7.54 -2.24  3.13
Si -3.79 -4.41  6.16
Si -5.70  5.48 -3.04
Si  5.71  5.45 -3.09
Si  5.69 -5.49  3.07
Si -5.70  1.07 -6.19
Si -3.79  4.34 -6.23
Si -1.87 -7.68 -3.09
Si -1.91 -5.44 -6.23
Si -5.67 -1.08  6.23
Si -7.62  2.18 -3.07
Si  1.92  7.67  3.12
Si -1.89  5.44  6.29
Si  3.84  4.36 -6.26
Si -7.63 -2.24  3.13
Si -7.54  4.38  0.71
Si -1.83 -7.65  3.87
Si  0.04 -8.75  0.71
Si -1.83  1.10 -8.51
Si  1.91 -7.64  3.86
Si  0.00 -2.20 -8.51
Si -5.68  5.48  3.86
Si  7.58  2.18  3.88
Si -7.58  2.18  3.88
Si  1.91  1.10 -8.52
Si  7.62  4.38  0.71
Si  5.75  5.48  3.87
Si -7.54  4.36  3.06
Si  7.55 -4.39 -3.02
Si -0.03  8.74 -3.02
Si  0.05 -8.77  3.06
Si -7.61 -4.39 -3.02
Si  7.63  4.36  3.06
Si  0.05 -0.02 -9.33
Si -0.03 -0.01  9.37
Si -5.65  5.48 -5.38
Si -9.44  1.12  0.76
Si -1.90 -7.63 -5.40
Si  9.44  1.14  0.79
Si  5.64  7.66  0.79
Si  1.93 -7.65 -5.38
Si -5.71  3.23  6.94
Si  5.69  3.31  6.93
Si  0.01  8.72  3.91
Si  0.01  4.37 -8.51
Si -5.68  7.65  0.80
Si  5.69  5.50 -5.40
Si  0.02  6.59  6.94
Si -7.56  2.21 -5.44
Si -5.65 -3.27  7.01
Si  5.69 -3.25  6.99
Si  3.77 -2.21 -8.53
Si -3.84 -8.74  0.81
Si -7.57 -4.41  3.91
Si -0.02 -6.58  6.98
Si  3.87 -8.74  0.79
Si -3.84 -2.23 -8.51
Si  7.60  2.21 -5.44
Si  7.60 -4.41  3.91
Si -1.87 -9.78  0.04
Si -3.72  0.01 -9.25
Si  1.91 -3.32  9.22
Si -9.44 -1.08 -3.09
Si -7.53 -6.57 -0.02
Si -1.84  7.67 -6.14
Si -1.90 -7.62  6.19
Si  9.45 -3.27  0.01
Si  3.76 -0.02 -9.27
Si  3.80 -0.02  9.25
Si  1.85  7.62 -6.21
Si -1.83  3.26 -9.28
Si  9.45 -1.14 -3.08
Si  5.62 -7.67 -3.11
Si -3.72 -8.74  3.13
Si  1.94 -9.82 -0.03
Si -5.65  5.47  6.20
Si  9.45  1.04  3.13
Si  1.87 -3.34 -9.25
Si -1.89 -3.26 -9.28
Si -1.92  9.83  0.00
Si  5.74 -5.46 -6.14
Si  3.80  8.73 -3.13
Si -9.45  3.35  0.04
Si  1.87  3.23  9.31
Si -1.96 -3.29  9.27
Si -9.47  1.12  3.11
Si  1.86  9.86  0.01
Si -1.86  3.29  9.29
Si  3.76 -8.77  3.12
Si  1.94 -7.66  6.20
Si  7.56  6.61  0.02
Si -7.58  2.20  6.21
Si  5.68  5.51  6.19
Si -5.65  7.70  3.10
Si  7.58  2.20  6.21
Si -7.56 -2.18 -6.25
Si  1.93  3.33 -9.29
Si  5.75  7.64  3.11
Si -9.51 -3.30  0.00
Si  7.63 -6.57 -0.02
Si -3.82  0.05  9.32
Si -5.67 -7.70 -3.17
Si -7.61  6.61  0.02
Si -3.82  8.80 -3.07
Si  9.52  3.31 -0.03
Si  7.61 -2.18 -6.25
Si -5.73 -5.51 -6.21
Si  5.67  1.07 -8.43
Si -7.56 -4.33 -5.36
Si  7.60 -4.33 -5.36
Si  1.91  9.81 -2.32
Si -5.68 -7.62  3.90
Si -5.68  1.13 -8.48
Si  3.71  6.56  6.98
Si  1.89 -9.82 -2.36
Si -9.48  3.27 -2.29
Si -3.73  4.37 -8.53
Si  1.88 -5.52 -8.48
Si -1.92 -5.45 -8.52
Si  1.91  1.06 10.06
Si  7.57 -0.01  6.98
Si  9.46 -1.14  3.91
Si -9.49 -3.26 -2.32
Si -1.90 -9.86 -2.29
Si  0.02  8.80 -5.36
Si -3.77  8.79  3.83
Si  3.85  8.75  3.85
Si -1.91  1.12 10.07
Si  9.47  3.31 -2.36
Si -0.04 -2.26 10.06
Si -7.59 -0.01  6.98
Si  7.54 -6.64 -2.33
Si -7.57  6.61 -2.31
Si  9.49 -3.32 -2.32
Si -9.51 -1.07  3.87
Si -1.91  9.87 -2.32
Si -3.87 -6.57  6.98
Si  7.60  6.61 -2.31
Si  5.67 -7.68  3.96
Si -3.79  6.56  7.03
Si  3.79 -6.57  7.03
Si  3.81  4.41 -8.55
Si -7.62 -6.64 -2.33
Si -0.03 -8.73 -6.14
Si  7.55  4.40 -6.14
Si -7.61  4.40 -6.14
Si  7.55 -4.35  6.25
Si -7.61 -4.35  6.25
Si -0.03  8.78  6.25
Si -0.06 10.89  0.81
Si -9.43 -5.47  0.75
Si  3.76 -2.21 10.03
Si  9.45 -1.09 -5.40
Si  0.04  4.36 10.04
Si  9.47 -5.43  0.80
Si -9.48 -1.12 -5.38
Si -3.79 -2.13 10.07
Si -3.74  8.79 -5.41
Si  3.76  8.74 -5.48
Si  5.66 -7.68 -5.48
Si -5.67 -7.69 -5.50
Si -3.74  8.73  6.12
Si -9.47  1.06 -6.09
Si -5.69  3.29  9.23
Si -11.33 -0.01 -0.03
Si  3.79  8.72  6.16
Si -0.04 10.89  3.13
Si 11.33  0.07  0.05
Si -9.46  5.45 -3.09
Si -5.66  3.29 -9.26
Si  5.66  9.83 -0.03
Si -5.65  9.84  0.01
Si  9.47  5.48 -3.04
Si  5.70  3.27  9.26
Si -5.67  7.67 -6.16
Si  9.46  1.07 -6.19
Si -9.49 -1.06  6.15
Si -0.03 -10.95 -3.07
Si -9.47 -5.49  3.07
Si -0.04 -6.62 -9.25
Si -0.07  6.54 -9.32
Si  5.68 -3.27 -9.30
Si -0.02 -6.61  9.27
Si -0.03  6.56  9.31
Si  5.69  3.26 -9.31
Si  5.79 -9.81 -0.04
Si -5.70 -7.68  6.19
Si  9.51 -5.46  3.12
Si -5.68 -9.88 -0.06
Si  5.71 -3.30  9.30
Si  9.49 -1.08  6.23
Si -3.74 -8.77 -6.26
Si  5.67  7.69 -6.23
Si  3.80 -8.79 -6.23
Si -5.70 -3.27  9.34
Si -5.71 -3.32 -9.33
Si  5.70 -7.69  6.29
Si -7.49 -8.75  0.75
Si  1.88 -5.46 10.00
Si -3.79  4.37 10.01
Si -9.41  5.48  3.87
Si -1.88 -5.47 10.01
Si  5.72 -5.44 -8.45
Si  5.66  9.81 -2.33
Si 11.34 -2.17  0.79
Si -11.34 -2.15  0.81
Si -1.86  7.69 -8.45
Si  3.77  4.34 10.06
Si 11.35 -0.04 -2.33
Si  5.66  1.06 10.06
Si  1.79  7.65 -8.54
Si  0.00 -10.95  3.88
Si -5.70 -9.84 -2.39
Si -11.37 -0.01 -2.38
Si  3.76 10.96  0.79
Si  9.49  5.48  3.86
Si  5.70 -9.85 -2.37
Si -3.76 10.97  0.81
Si -5.70  9.89 -2.29
Si -5.70  1.14 10.09
Si -7.57 -2.13 -8.60
Si  7.68 -8.75  0.75
Si  7.59 -2.13 -8.60
Si  0.04  0.00 -11.68
Si -5.79 -5.48 -8.54
Si 11.35  2.16 -3.10
Si  3.83 -6.53 -9.27
Si  3.76  6.54  9.28
Si -7.58 -8.71  3.12
Si  7.58 -8.71  3.12
Si -7.58  0.04 -9.26
Si  7.58  0.04 -9.26
Si -3.81 -10.94 -3.04
Si -7.53  0.04  9.31
Si -3.86 -6.51 -9.28
Si -7.53  8.79 -3.08
Si -3.75  6.60 -9.27
Si  3.72  6.62 -9.28
Si -11.40  2.19 -3.04
Si  3.77 -10.97 -3.10
Si -3.82 -6.59  9.28
Si 11.41 -2.15  3.12
Si  3.77 -6.56  9.35
Si  7.63  0.04  9.31
Si  7.63  8.79 -3.08
Si  3.83 10.98  3.12
Si -3.81  6.57  9.35
Si -11.45 -2.13  3.10
Si -3.86 10.99  3.10
Si  1.86 -11.99  0.79
Si  9.45  3.23  6.94
Si -7.57  4.34 -8.47
Si -1.89 -9.82  6.93
Si -1.85 -12.01  0.76
Si -7.56 -6.54  6.94
Si  1.86 -3.24 -11.59
Si 11.35  2.16  3.86
Si  7.60  4.34 -8.47
Si  1.90  3.27 -11.59
Si -3.84  0.01 -11.57
Si  7.60 -6.54  6.94
Si  0.02 -10.91 -5.44
Si -9.47  3.31  6.93
Si  7.56  6.55  6.98
Si -1.94  3.28 -11.59
Si  0.01 -8.78 -8.47
Si -7.57  8.75  3.88
Si  9.48  7.65  0.80
Si -9.48  5.50 -5.40
Si -1.85 -3.25 -11.63
Si  7.59  8.75  3.88
Si -9.48 -3.25  6.99
Si  3.77 -10.96  3.86
Si  9.51  5.48 -5.38
Si  3.87  0.01 -11.60
Si -7.61  6.55  6.98
Si  1.87 -9.90  6.94
Si -9.52  7.66  0.79
Si -1.90  9.87  6.99
Si  1.93  9.86  7.01
Si -11.43  2.15  3.87
Si -3.84 -10.98  3.87
Si  9.51 -3.27  7.01
Si -11.43  4.39  0.81
Si 11.45  4.38  0.79
Si -9.43 -5.46 -6.14
Si -9.41  7.64  3.11
Si  1.87 11.98 -3.08
Si -11.31  4.38  3.13
Si -1.87 -1.03 -12.35
Si 11.34  4.36  3.12
Si -1.89 -12.01  3.11
Si  0.05 -2.19 12.37
Si -0.02  2.23 -12.36
Si  0.00 -10.93  6.21
Si  9.44 -5.51 -6.21
Si -1.86 12.04 -3.09
Si -11.40 -4.33 -3.07
Si -1.92  1.08 12.39
Si  1.86  1.11 12.40
Si -9.48  5.51  6.19
Si 11.38 -4.40 -3.13
Si  9.52  5.47  6.20
Si  0.02 10.95 -6.25
Si  1.94 -1.07 -12.42
Si  9.51  7.70  3.10
Si  9.49 -7.70 -3.17
Si  1.87 -12.09  3.13
Si -9.54 -7.67 -3.11
Si 11.30  2.18 -5.41
Si -9.49  1.07 -8.43
Si -5.71  7.61 -8.48
Si -11.35 -4.34  3.83
Si  1.88 11.99  3.91
Si -5.69 -5.44 10.03
Si -11.37  2.19 -5.35
Si -3.79 -10.94 -5.35
Si  3.72 -10.95 -5.41
Si  7.57  8.74 -5.41
Si  9.49 -7.62  3.90
Si -7.59  8.74 -5.41
Si  1.89  7.69 10.03
Si  9.49  1.13 -8.48
Si -7.57 -2.14 10.07
Si -3.77 -8.72 -8.55
Si  5.66  7.68 -8.52
Si  7.60 -2.14 10.07
Si -1.90  7.64 10.10
Si -1.92 12.06  3.87
Si  3.85 -8.76 -8.53
Si  5.69 -5.48 10.10
Si 11.43 -4.38  3.85
Si -9.49 -7.68  3.96
Si -11.31 -6.53 -0.01
Si 11.32 -6.58  0.01
Si -11.34 -2.20 -6.17
Si  0.01 13.10 -0.00
Si -3.76 10.93 -6.17
Si -3.73 -2.15 12.38
Si  7.56 -8.77 -6.16
Si -3.80 -10.91  6.20
Si 11.37 -2.16 -6.18
Si  0.01  4.35 12.38
Si  7.56  8.74  6.23
Si  3.73 -2.20 12.40
Si -7.61 -8.77 -6.16
Si -3.85  2.17 -12.37
Si  3.79 10.97 -6.18
Si -11.38  2.22  6.20
Si  0.01 -4.41 -12.39
Si -7.61  8.74  6.23
Si  3.83 -10.95  6.21
Si  0.01 -13.16 -0.00
Si  3.86  2.22 -12.39
Si 11.41  2.18  6.21
Si -11.43  6.55  0.01
Si 11.44  6.60 -0.01
Si -5.67  9.81  6.88
Si -11.32 -4.34 -5.41
Si  5.66  9.82  6.91
Si  5.69 -11.98  0.76
Si -7.55  4.33 10.03
Si  7.55 10.91  0.74
Si -1.90 12.01 -5.38
Si -11.37 -6.51 -2.31
Si -1.85 -1.09 13.13
Si  7.61  4.33 10.03
Si  0.04 13.11 -2.35
