500
set: 1501.00  0.00  0.00
Si -0.62  0.93  0.48
Si -1.35 -1.33 -0.85
Si  0.76 -0.22 -2.04
Si  1.27  1.92 -0.39
Si -0.88  0.13  2.31
Si  0.83 -2.69  0.37
Si  2.41 -1.33 -0.85
Si -2.50  1.92 -0.39
Si -0.95 -2.58  1.82
Si  3.15  0.93  0.48
Si -1.12  0.34 -3.37
Si -3.01 -0.22 -2.04
Si  2.89  0.13  2.31
Si  1.10  0.92  3.50
Si -0.32 -3.56 -1.69
Si -2.94 -2.69  0.37
Si  2.82 -2.58  1.82
Si  0.93  3.83 -1.69
Si  2.65  0.34 -3.37
Si -1.05  3.05 -2.88
Si -2.66  0.92  3.50
Si -4.38  0.93  0.48
Si  0.93 -3.13  3.15
Si  0.66  0.23 -4.82
Si  4.53 -0.22 -2.04
Si  2.72  3.05 -2.88
Si -1.69  4.70  0.37
Si -2.83  3.83 -1.69
Si  1.44 -0.99  4.80
Si  0.30  4.81  1.82
Si  2.08  4.70  0.37
Si -4.64  0.13  2.31
Si  3.45 -3.56 -1.69
Si -2.84 -3.13  3.15
Si  4.60 -2.69  0.37
Si  0.07  3.14  4.34
Si -5.12 -1.33 -0.85
Si  5.04  1.92 -0.39
Si  1.47 -4.34 -2.88
Si -2.33 -0.99  4.80
Si  0.02 -5.46 -0.39
Si -1.58  4.26  3.15
Si -4.08 -3.56 -1.69
Si -4.72 -2.58  1.82
Si -2.30 -4.34 -2.88
Si  2.18  4.26  3.15
Si -3.11  0.23 -4.82
Si -4.89  0.34 -3.37
Si -0.45 -1.99  5.67
Si -1.52  1.78  5.55
Si  4.87  0.92  3.50
Si -0.10  6.06 -0.85
Si -0.79  3.85 -4.71
Si -0.15 -2.55 -5.58
Si  1.73 -3.54 -4.71
Si -1.18 -4.25  4.34
Si -3.47  4.81  1.82
Si -2.04 -3.54 -4.71
Si  2.25  1.78  5.55
Si  4.70  3.83 -1.69
Si  6.18 -1.33 -0.85
Si -4.82  3.05 -2.88
Si -1.52  1.58 -6.04
Si  4.70 -3.13  3.15
Si -3.70  3.14  4.34
Si  4.43  0.23 -4.82
Si  4.07  4.81  1.82
Si -6.26  1.92 -0.39
Si  3.83  3.14  4.34
Si  2.58 -4.25  4.34
Si  2.24  1.58 -6.04
Si -3.75 -5.46 -0.39
Si  3.79 -5.46 -0.39
Si -1.87 -6.46  0.48
Si  1.90 -6.46  0.48
Si  2.98  3.85 -4.71
Si  3.32 -1.99  5.67
Si -0.49 -0.64 -6.88
Si  6.92  0.93  0.48
Si  6.66  0.13  2.31
Si -6.77 -0.22 -2.04
Si  3.62 -2.55 -5.58
Si  3.66  6.06 -0.85
Si  5.21 -0.99  4.80
Si -5.46  4.70  0.37
Si -6.71 -2.69  0.37
Si -3.87  6.06 -0.85
Si  6.42  0.34 -3.37
Si  0.47  1.89  7.01
Si -3.92 -2.55 -5.58
Si  6.59 -2.58  1.82
Si -4.21 -1.99  5.67
Si -0.15 -6.47  3.50
Si -6.43  0.92  3.50
Si  5.24 -4.34 -2.88
Si  1.10  4.84 -5.58
Si  5.85  4.70  0.37
Si -5.35  4.26  3.15
Si -4.55  3.85 -4.71
Si  3.28 -0.64 -6.88
Si -1.75  7.17 -2.04
Si  2.01  7.17 -2.04
Si  6.49  3.05 -2.88
Si  0.59  2.70 -7.23
Si  1.64 -7.26  2.31
Si -6.60  3.83 -1.69
Si -6.09 -0.99  4.80
Si -4.95 -4.25  4.34
Si -2.67  4.84 -5.58
Si -5.29  1.78  5.55
Si  0.80  5.40  5.67
Si  0.37  7.52  2.31
Si -0.49 -7.61 -2.04
Si -2.13 -7.26  2.31
Si  1.40 -7.05 -3.37
Si  1.00 -5.60  5.55
Si -6.60 -3.13  3.15
Si  5.95  4.26  3.15
Si -3.30  1.89  7.01
Si -6.07 -4.34 -2.88
Si -0.71 -2.79  7.50
Si  5.50 -3.54 -4.71
Si -1.08  6.40  4.80
Si -4.25 -0.64 -6.88
Si -2.37 -7.05 -3.37
Si -5.29  1.58 -6.04
Si  3.62 -6.47  3.50
Si -8.15  0.93  0.48
Si  7.22 -3.56 -1.69
Si -5.80 -3.54 -4.71
Si  1.30 -1.43 -8.07
Si -3.91 -6.47  3.50
Si -3.18  2.70 -7.23
Si  0.63  8.32  0.48
Si -2.77 -5.60  5.55
Si -2.96  5.40  5.67
Si  6.02  1.78  5.55
Si -6.88  0.23 -4.82
Si  4.24  1.89  7.01
Si  0.13  7.72 -3.37
Si  0.99 -5.80 -6.04
Si  2.69  6.40  4.80
Si  3.28 -7.61 -2.04
Si  8.30 -0.22 -2.04
Si -1.42  1.34  8.33
Si -2.47 -1.43 -8.07
Si  3.06 -2.79  7.50
Si -3.39  7.52  2.31
Si -5.63 -6.46  0.48
Si  5.67 -6.46  0.48
Si -0.66 -4.69 -7.23
Si -0.59 -7.16 -4.82
Si  6.01  1.58 -6.04
Si -8.41  0.13  2.31
Si  2.35  1.34  8.33
Si -7.85 -3.56 -1.69
Si  6.35 -4.25  4.34
Si  8.37 -2.69  0.37
Si  0.54  4.60  7.50
Si -2.77 -5.80 -6.04
Si  1.16 -8.72 -0.85
Si  4.87  4.84 -5.58
Si  4.36  2.70 -7.23
Si -7.23  4.81  1.82
Si  4.14  7.52  2.31
Si -3.13  8.32  0.48
Si -0.78 -5.50  7.01
Si -4.26 -7.61 -2.04
Si  1.27 -2.00  8.69
Si  8.81  1.92 -0.39
Si -8.89 -1.33 -0.85
Si -8.48 -2.58  1.82
Si  4.57  5.40  5.67
Si  6.75  3.85 -4.71
Si -1.41  8.30  3.50
Si -2.60 -8.72 -0.85
Si -4.47 -2.79  7.50
Si  3.11 -4.69 -7.23
Si -3.64  7.72 -3.37
Si -7.47  3.14  4.34
Si  3.18 -7.16 -4.82
Si -1.86  7.62 -4.82
Si  1.91  7.62 -4.82
Si  4.77 -5.60  5.55
Si -1.29  3.25 -8.56
Si -2.49 -2.00  8.69
Si -5.52  7.17 -2.04
Si  3.90  7.72 -3.37
Si  7.09 -1.99  5.67
Si -8.65  0.34 -3.37
Si  7.60  3.14  4.34
Si -7.51 -5.46 -0.39
Si  2.35  8.30  3.50
Si  7.56 -5.46 -0.39
Si  5.41 -7.26  2.31
Si -4.84  6.40  4.80
Si  8.64  0.92  3.50
Si -3.22  4.60  7.50
Si  5.17 -7.05 -3.37
Si  7.84  4.81  1.82
Si  2.99 -5.50  7.01
Si -1.25  9.31 -0.39
Si  4.40  8.32  0.48
Si  5.78  7.17 -2.04
Si  8.47  3.83 -1.69
Si  2.48  3.25 -8.56
Si  8.20  0.23 -4.82
Si  0.24  0.23  9.53
Si -8.58  3.05 -2.88
Si  8.47 -3.13  3.15
Si  1.23 -4.14 -8.56
Si  7.38 -2.55 -5.58
Si  7.43  6.06 -0.85
Si -5.89 -7.26  2.31
Si  4.76 -5.80 -6.04
Si  5.07 -1.43 -8.07
Si  2.52  9.31 -0.39
Si  0.19 -8.38  4.80
Si  0.76  6.75 -6.88
Si -4.36 -7.16 -4.82
Si -4.43 -4.69 -7.23
Si -7.64  6.06 -0.85
Si -6.43  4.84 -5.58
Si  4.31  4.60  7.50
Si -7.68 -2.55 -5.58
Si -2.54 -4.14 -8.56
Si  7.05 -0.64 -6.88
Si -5.18  1.34  8.33
Si -6.14 -7.05 -3.37
Si -7.98 -1.99  5.67
Si -4.55 -5.50  7.01
Si  1.56 -0.63 -9.90
Si  4.93 -8.72 -0.85
Si  9.95 -1.33 -0.85
Si -0.42 -10.07  0.37
Si -3.00  6.75 -6.88
Si -1.22  5.96 -8.07
Si -7.06  1.89  7.01
Si -2.21 -0.63 -9.90
Si -3.53  0.23  9.53
Si -10.03  1.92 -0.39
Si  8.98 -0.99  4.80
Si  5.04 -2.00  8.69
Si -6.54 -5.60  5.55
Si  1.57 -9.97  1.82
Si  6.46  6.40  4.80
Si -6.24 -1.43 -8.07
Si -3.58 -8.38  4.80
Si -1.24  5.39  8.69
Si -8.32  3.85 -4.71
Si -6.73  5.40  5.67
Si  4.00  0.23  9.53
Si  2.55  5.96 -8.07
Si  1.10 -6.05  8.33
Si -9.22  4.70  0.37
Si -2.20 -9.97  1.82
Si -6.94  2.70 -7.23
Si -5.18  8.30  3.50
Si  9.01 -4.34 -2.88
Si  6.12  1.34  8.33
Si  7.39 -6.47  3.50
Si  3.96 -8.38  4.80
Si -5.06  3.25 -8.56
Si  0.49  3.14 -10.01
Si  6.83 -2.79  7.50
Si  2.52  5.39  8.69
Si -9.12  4.26  3.15
Si  7.05 -7.61 -2.04
Si -5.01  9.31 -0.39
Si -8.02 -0.64 -6.88
Si -0.91  3.48  9.99
Si  3.35 -10.07  0.37
Si -8.72 -4.25  4.34
Si -5.62  7.62 -4.82
Si -6.54 -5.80 -6.04
Si -2.67 -6.05  8.33
Si -7.68 -6.47  3.50
Si -7.16  7.52  2.31
Si  4.53  6.75 -6.88
Si  5.68  7.62 -4.82
Si 10.43  0.13  2.31
Si  9.62  4.70  0.37
Si -1.74 -8.03 -6.88
Si -0.27  9.17  5.55
Si 10.19  0.34 -3.37
Si 10.69  0.93  0.48
Si -10.54 -0.22 -2.04
Si  5.00 -4.14 -8.56
Si  2.03 -8.03 -6.88
Si -9.05  1.78  5.55
Si -0.32  0.37 -10.77
Si  8.01  1.89  7.01
Si -0.27  8.97 -6.04
Si -10.47 -2.69  0.37
Si -6.90  8.32  0.48
Si -10.20  0.92  3.50
Si 10.36 -2.58  1.82
Si  0.20 10.43 -2.88
Si -6.37 -8.72 -0.85
Si  1.61 -3.91  9.99
Si -1.35 -1.13 10.74
Si  6.12  8.30  3.50
Si -6.26 -2.00  8.69
Si -0.76 -4.24 -10.01
Si -4.19 -10.07  0.37
Si -2.16 -3.91  9.99
Si  2.86  3.48  9.99
Si  9.27 -3.54 -4.71
Si -0.32 -10.52  3.15
Si -3.28  3.14 -10.01
Si -9.06  1.58 -6.04
Si -9.86 -0.99  4.80
Si  6.88 -4.69 -7.23
Si  9.72  4.26  3.15
Si  2.42 -1.13 10.74
Si  6.95 -7.16 -4.82
Si 10.26  3.05 -2.88
Si -1.70 -9.37  5.67
Si  6.25  3.25 -8.56
Si -9.83 -4.34 -2.88
Si  2.07 -9.37  5.67
Si  7.91  7.52  2.31
Si  6.76 -5.50  7.01
Si -10.37  3.83 -1.69
Si  0.97  2.49 10.86
Si -1.57 -10.94 -1.69
Si -4.99  5.96 -8.07
Si  8.13  2.70 -7.23
Si -7.40  7.72 -3.37
Si -6.99  4.60  7.50
Si -9.57 -3.54 -4.71
Si  6.29  9.31 -0.39
Si -8.02 -7.61 -2.04
Si  5.33 -0.63 -9.90
Si -10.37 -3.13  3.15
Si  3.50  9.17  5.55
Si  3.01 -4.24 -10.01
Si  2.20 -10.94 -1.69
Si  3.45  0.37 -10.77
Si  4.26  3.14 -10.01
Si  8.64  4.84 -5.58
Si  3.49  8.97 -6.04
Si -5.01  5.39  8.69
Si  4.87 -6.05  8.33
Si  9.79  1.78  5.55
Si  7.67  7.72 -3.37
Si -3.56 10.43 -2.88
Si -6.31 -4.14 -8.56
Si -9.40 -6.46  0.48
Si  8.34  5.40  5.67
Si  9.44 -6.46  0.48
Si  5.34 -9.97  1.82
Si -1.58 11.22 -1.69
Si -4.04  9.17  5.55
Si  1.32 10.53  4.34
Si -1.40 -9.94 -5.58
Si -8.24 -2.79  7.50
Si -2.79  2.49 10.86
Si  3.45 -10.52  3.15
Si -4.09  0.37 -10.77
Si  3.97 10.43 -2.88
Si -4.04  8.97 -6.04
Si  2.18 11.22 -1.69
Si -4.67  3.48  9.99
Si -5.97 -0.63 -9.90
Si  9.78  1.58 -6.04
Si  0.82 -2.89 -11.23
Si  8.54 -5.60  5.55
Si  2.37 -9.94 -5.58
Si -2.45 10.53  4.34
Si  8.17  8.32  0.48
Si 10.99 -3.56 -1.69
Si -10.64  0.23 -4.82
Si -4.09 -10.52  3.15
Si -8.61  6.40  4.80
Si  1.72  9.28  7.01
Si -5.97 -9.97  1.82
Si -6.77  6.75 -6.88
Si -4.53 -4.24 -10.01
Si 10.12 -4.25  4.34
Si -2.05  9.28  7.01
Si -8.13 -7.16 -4.82
Si  6.32  5.96 -8.07
Si  8.93 -7.05 -3.37
Si -8.19 -4.69 -7.23
Si  0.48 -10.93 -4.71
Si -9.29  7.17 -2.04
Si -0.28 -4.90 10.86
Si -5.50 -8.03 -6.88
Si  9.18 -7.26  2.31
Si  8.08  4.60  7.50
Si  0.05 -8.81 -8.07
Si -5.12 -1.13 10.74
Si  8.53 -5.80 -6.04
Si -2.94 -2.89 -11.23
Si -1.01 -7.16  9.53
Si -11.92  0.93  0.48
Si  5.38 -3.91  9.99
Si -7.30  0.23  9.53
Si  6.29  5.39  8.69
Si -0.96  6.76 -9.90
Si  8.84 -1.43 -8.07
Si  5.80 -8.03 -6.88
Si -0.34 11.64  3.15
Si -0.17  8.73  8.33
Si  0.22 -11.73 -2.88
Si -0.44 12.09  0.37
Si  4.74  2.49 10.86
Si  9.55  7.17 -2.04
Si -7.34 -8.38  4.80
Si -6.43 -6.05  8.33
Si -11.00  4.81  1.82
Si 10.52  3.85 -4.71
Si -8.31 -5.50  7.01
Si  0.46 11.23 -4.71
Si -1.69  4.50 -11.23
Si  2.75 -7.16  9.53
Si 12.06 -0.22 -2.04
Si -5.46 -9.37  5.67
Si  0.64 -1.02 12.20
Si -5.92 -3.91  9.99
Si -11.62 -3.56 -1.69
Si  2.07  4.50 -11.23
Si  1.49  7.61  9.53
Si -5.33 -10.94 -1.69
Si -0.66  2.27 -12.07
Si  7.77  0.23  9.53
Si -9.66 -7.26  2.31
Si -8.95  1.34  8.33
Si  2.81  6.76 -9.90
Si  7.12 -10.07  0.37
Si  8.70 -8.72 -0.85
Si -3.29 -10.93 -4.71
Si  7.73 -8.38  4.80
Si -12.18  0.13  2.31
Si 10.86 -1.99  5.67
Si -2.28  7.61  9.53
Si  5.84 -9.37  5.67
Si  3.49 -4.90 10.86
Si  1.55 12.20  1.82
Si 12.13 -2.69  0.37
Si -0.10  6.26 10.74
Si -11.24  3.14  4.34
Si  6.19 -1.13 10.74
Si  4.59 -2.89 -11.23
Si  5.08 10.53  4.34
Si  6.63  3.48  9.99
Si  1.33 -11.63  4.34
Si -5.17 -9.94 -5.58
Si -3.72 -8.81 -8.07
Si -2.22 12.20  1.82
Si  8.81 -2.00  8.69
Si  3.43 11.64  3.15
Si -11.28 -5.46 -0.39
Si  3.33 12.09  0.37
Si -5.35 11.22 -1.69
Si  3.82 -8.81 -8.07
Si  1.84 10.09 -7.23
Si -1.93 10.09 -7.23
Si 11.37  3.14  4.34
Si -0.83 -1.77 -12.42
Si 11.32 -5.46 -0.39
Si  5.97 -10.94 -1.69
Si -4.04 -4.90 10.86
Si -3.55 -11.73 -2.88
Si  3.60  8.73  8.33
Si -10.20  4.84 -5.58
Si -9.90 -7.05 -3.37
Si -3.31 11.23 -4.71
Si -3.13 -1.02 12.20
Si  4.25 -10.93 -4.71
Si -7.05  3.14 -10.01
Si -12.25 -2.58  1.82
Si -2.43 -11.63  4.34
Si  3.11  2.27 -12.07
Si 11.61  4.81  1.82
Si -3.93  8.73  8.33
Si -8.95  8.30  3.50
Si  8.30  6.75 -6.88
Si -8.82  3.25 -8.56
Si  3.99 -11.73 -2.88
Si 12.57  1.92 -0.39
Si 11.15 -2.55 -5.58
Si -4.10 11.64  3.15
Si  0.31 -8.02 -9.90
Si -12.66 -1.33 -0.85
Si 11.20  6.06 -0.85
Si  1.81 -10.17  7.50
Si -1.96 -10.17  7.50
Si  0.02 -9.39  8.69
Si -4.21 12.09  0.37
Si -8.78  9.31 -0.39
Si  5.95 11.22 -1.69
Si  6.78 -4.24 -10.01
Si  0.71  1.69 12.69
Si 10.82 -0.64 -6.88
Si -7.96 -10.07  0.37
Si -4.78 -7.16  9.53
Si  5.49  9.28  7.01
Si -12.42  0.34 -3.37
