500
set: 1475.00  0.00  0.00
Si -1.33 -0.45  0.48
Si  1.06 -1.06 -0.04
Si -1.96  1.15 -1.13
Si  2.42 -0.16  1.50
Si  2.16  0.02 -1.98
Si  2.56  1.49 -0.25
Si -1.70  0.97  2.35
Si -2.97 -1.29 -1.00
Si -1.59 -0.27 -3.01
Si  0.80 -0.89 -3.53
Si  1.85 -3.39 -0.25
Si  1.32 -1.24  3.44
Si -2.71 -1.46  2.49
Si -1.07 -0.62  3.96
Si  1.77  3.82 -0.04
Si -2.26  3.59 -1.00
Si  2.82  1.32  3.24
Si -0.62  4.43  0.48
Si -2.00  3.42  2.49
Si  2.30  1.67 -3.73
Si -2.67 -3.73 -1.13
Si -4.34  1.88 -0.65
Si  4.56 -1.56  1.09
Si -4.67 -1.56  1.09
Si  4.30 -1.39 -2.40
Si -2.41 -3.91  2.35
Si  1.59 -3.21 -3.73
Si  4.18 -3.00 -0.65
Si -4.08  1.71  2.84
Si  2.11 -3.56  3.24
Si  4.89  1.88 -0.65
Si -3.96  3.32  1.09
Si -2.22  1.32 -4.62
Si  2.03  3.64  3.44
Si  1.45 -4.86 -1.98
Si  1.71 -5.04  1.50
Si  1.51  3.99 -3.53
Si -0.88  4.61 -3.01
Si -3.23 -1.11 -4.49
Si -4.93 -1.39 -2.40
Si  2.68 -0.33  4.99
Si -2.04 -5.33  0.48
Si  1.90  0.19 -5.47
Si -0.36  4.26  3.96
Si  3.13  4.72  1.50
Si -5.05 -3.00 -0.65
Si  0.35 -5.94 -0.04
Si -4.22  3.50 -2.40
Si  2.87  4.90 -1.98
Si -1.44  0.80  5.84
Si  5.15  1.71  2.84
Si  4.44 -3.17  2.84
Si -1.25  6.03 -1.13
Si  5.27  3.32  1.09
Si  3.92 -2.83 -4.13
Si -2.52  3.77 -4.49
Si -0.99  5.85  2.35
Si -2.30 -5.15 -3.01
Si -4.79 -3.17  2.84
Si  6.26 -1.29 -1.00
Si -4.60  2.06 -4.13
Si -2.93 -3.56 -4.62
Si  4.62  2.06 -4.13
Si  5.01  3.50 -2.40
Si -4.41 -1.74  4.58
Si -2.44 -1.64  5.97
Si -3.70  3.15  4.58
Si -1.85 -0.10 -6.50
Si  0.09 -5.77 -3.53
Si -6.67  1.49 -0.25
Si  4.82 -1.74  4.58
Si -6.81 -0.16  1.50
Si -1.78 -5.50  3.96
Si -1.73  3.24  5.97
Si  0.61 -6.12  3.44
Si  0.54 -0.71 -7.01
Si  6.52 -1.46  2.49
Si  3.27  6.37 -0.25
Si  4.04 -1.21 -5.88
Si  1.58 -1.41  6.93
Si -3.68 -6.17 -1.00
Si -6.41  1.32  3.24
Si -5.31 -2.83 -4.13
Si  1.19 -4.69 -5.47
Si -7.07  0.02 -1.98
Si -2.15 -4.08  5.84
Si  7.27  1.15 -1.13
Si  1.97 -5.21  4.99
Si  3.08  1.14  6.72
Si -0.81 -0.80  7.45
Si -3.82  1.53  6.33
Si  3.39  4.55  4.99
Si  6.00 -1.11 -4.49
Si  3.85 -6.44  1.09
Si  3.59 -6.27 -2.40
Si -3.42 -6.34  2.49
Si  6.56 -3.73 -1.13
Si -3.63  6.76 -0.65
Si  2.04  1.84 -7.22
Si  3.53  6.20  3.24
Si  5.53  3.15  4.58
Si -6.10  4.72  1.50
Si -1.51  6.20 -4.62
Si  2.61  5.07 -5.47
Si  6.97  3.59 -1.00
Si -3.37  6.58  2.84
Si  7.90 -0.45  0.48
Si -5.19 -1.21 -5.88
Si  1.33 -3.04 -7.22
Si  7.53  0.97  2.35
Si -6.93  1.67 -3.73
Si  2.37 -3.74  6.72
Si  2.29  3.47  6.93
Si  3.01  6.55 -3.73
Si -7.38 -3.39 -0.25
Si -1.14  4.78 -6.50
Si -0.73  5.68  5.84
Si  6.82 -3.91  2.35
Si  7.64 -0.27 -3.01
Si -8.17 -1.06 -0.04
Si -6.55 -0.33  4.99
Si  1.25  4.17 -7.01
Si -4.48  3.67 -5.88
Si -6.36  4.90 -1.98
Si  1.14 -8.27 -0.25
Si  5.55 -6.17 -1.00
Si  7.23  3.42  2.49
Si -7.46  3.82 -0.04
Si  4.75  3.67 -5.88
Si -3.94 -5.99 -4.49
Si -5.38 -6.44  1.09
Si  5.41  1.53  6.33
Si -4.53 -3.35  6.33
Si -0.10  4.08  7.45
Si  7.01  1.32 -4.62
Si  4.70 -3.35  6.33
Si -2.56 -4.98 -6.50
Si  6.30 -3.56 -4.62
Si -7.12 -3.56  3.24
Si -2.48  1.50 -8.11
Si  3.47 -7.88 -0.65
Si -1.55  8.47 -1.00
Si -7.91 -1.24  3.44
Si -5.96  6.37 -0.25
Si -3.49 -0.94 -7.97
Si -1.28  8.30  2.49
Si -5.64 -6.27 -2.40
Si -7.20  3.64  3.44
Si  5.60  6.76 -0.65
Si  3.65 -2.65 -7.62
Si -3.25  8.20  1.09
Si  6.71  3.77 -4.49
Si -5.84  4.55  4.99
Si  5.81 -6.34  2.49
Si  0.88 -8.10 -3.73
Si  7.19 -5.33  0.48
Si -3.89  6.93 -4.13
Si -0.17 -5.59 -7.01
Si  2.94 -0.51  8.47
Si -5.70  6.20  3.24
Si  4.11 -6.62  4.58
Si  2.48  8.70 -0.04
Si  4.36  2.23 -7.62
Si  8.16 -0.62  3.96
Si -7.64 -3.21 -3.73
Si  3.33 -6.09 -5.88
Si  1.64  0.37 -8.96
Si  6.93 -5.15 -3.01
Si -7.33  0.19 -5.47
Si  1.40 -8.45  3.24
Si  5.29 -5.99 -4.49
Si -7.52 -5.04  1.50
Si -6.15  1.14  6.72
Si -8.43 -0.89 -3.53
Si  6.79 -1.64  5.97
Si -3.43  2.97  8.06
Si  5.86  6.58  2.84
Si -4.14 -1.91  8.06
Si -4.87  2.23 -7.62
Si  3.21 -7.71 -4.13
Si -2.78  3.94 -7.97
Si  3.73 -8.06  2.84
Si  0.09  9.31  0.48
Si -3.38 -8.62 -1.13
Si -3.19 -3.38 -8.11
Si -7.72  3.99 -3.53
Si -3.15 -6.52  5.97
Si -7.78 -4.86 -1.98
Si -3.51  8.38 -2.40
Si  0.87 -6.29  6.93
Si -1.18  0.62  9.32
Si -1.52 -5.68  7.45
Si -3.11  6.41  6.33
Si -5.12 -6.62  4.58
Si  2.74  8.52  3.44
Si -3.12 -8.79  2.35
Si  5.34  6.93 -4.13
Si  8.61  4.43  0.48
Si -2.98  8.03  4.58
Si  5.08 -1.91  8.06
Si  7.79  0.80  5.84
Si -6.22  6.55 -3.73
Si -5.76 -7.88 -0.65
Si  3.79  6.02  6.72
Si  2.22  8.87 -3.53
Si -5.58 -2.65 -7.62
Si  7.37 -0.10 -6.50
Si  5.74 -0.94 -7.97
Si -2.18 -1.81  9.46
Si -1.81  8.65 -4.49
Si -0.17  9.49 -3.01
Si  0.35  9.14  3.96
Si  0.74 -9.74 -1.98
Si -6.62  5.07 -5.47
Si  8.35  4.61 -3.01
Si  7.08 -4.08  5.84
Si -1.47  3.07  9.46
Si  7.98  6.03 -1.13
Si  0.93 -4.51 -8.96
Si  7.45 -5.50  3.96
Si  1.00 -9.92  1.50
Si  7.50  3.24  5.97
Si -1.02  8.12  5.97
Si  3.78 -1.04 -9.37
Si -5.50 -8.06  2.84
Si -2.12  0.08 -9.98
Si  5.98  8.20  1.09
Si  3.65  4.37  8.47
Si -7.26 -5.21  4.99
Si  2.75  6.72 -7.22
Si  2.23 -5.39  8.47
Si -3.64 -8.44 -4.62
Si -6.86 -3.74  6.72
Si -5.90 -6.09 -5.88
Si 10.29 -1.06 -0.04
Si -7.19  1.84 -7.22
Si  5.79  2.97  8.06
Si  8.24  5.85  2.35
Si -6.93  3.47  6.93
Si -7.65 -1.41  6.93
Si  5.72  8.38 -2.40
Si -1.89 -4.26  9.32
Si  3.84  9.60  1.50
Si -1.77  6.38 -8.11
Si  5.85 -8.62 -1.13
Si  0.28 -0.54 -10.50
Si -3.56  1.35  9.81
Si -5.44  6.02  6.72
Si  6.66 -4.98 -6.50
Si -6.29 -0.51  8.47
Si -10.56 -0.45  0.48
Si -2.75 -10.21  0.48
Si  3.58  9.78 -1.98
Si  8.87  4.26  3.96
Si -6.03 -7.71 -4.13
Si  2.35  5.25 -8.96
Si  6.75  1.50 -8.11
Si  6.04 -3.38 -8.11
Si 10.03 -0.89 -3.53
Si -8.88 -5.94 -0.04
Si  1.84 -1.59 10.42
Si  6.08 -6.52  5.97
Si -4.20 -5.82 -7.97
Si  0.61 -7.92 -7.22
Si  3.34  0.97 10.21
Si -8.04 -4.69 -5.47
Si -9.85  4.43  0.48
Si -0.36 -10.82 -0.04
Si -0.47  5.50  9.32
Si  6.12  6.41  6.33
Si -5.45 -1.04 -9.37
Si -3.01 -10.04 -3.01
Si  7.72  6.20 -4.62
Si  6.11 -8.79  2.35
Si -0.54 10.91 -1.13
Si  6.45  3.94 -7.97
Si -0.28 10.73  2.35
Si -0.55 -0.97 10.94
Si -6.75  8.70 -0.04
Si  0.48 -9.57 -5.47
Si  1.77  2.02 -10.71
Si -3.77  8.55 -5.88
Si -5.58  4.37  8.47
Si -10.30 -0.62  3.96
Si  1.66 -8.62  6.72
Si -2.86 -8.97  5.84
Si  5.03 -5.82 -7.97
Si  4.49  3.85 -9.37
Si  2.94 -7.53 -7.62
Si -5.39  9.60  1.50
Si -8.62 -6.12  3.44
Si  3.99 -8.23  6.33
Si  5.59 -8.44 -4.62
Si -7.90 -3.04 -7.22
Si  1.06 -2.87 -10.71
Si  6.24  8.03  4.58
Si 10.55 -1.24  3.44
Si -4.74  3.85 -9.37
Si -8.69 -0.71 -7.01
Si -9.59  4.26  3.96
Si -4.16  7.11 -7.62
Si -10.93  0.97  2.35
Si  2.56  3.29 10.42
Si -1.41  4.96 -9.98
Si -0.62 -10.65 -3.53
Si -10.82 -0.27 -3.01
Si  2.63 -3.91 10.21
Si -6.49  8.52  3.44
Si  3.00  8.35  6.93
Si -4.27 -3.52  9.81
Si  8.42 -0.80  7.45
Si  9.58 -5.94 -0.04
Si -11.19  1.15 -1.13
Si  1.26 -10.09  4.99
Si -9.14 -5.77 -3.53
Si -2.49 -10.38  3.96
Si  0.99  4.34 -10.50
Si  4.37 -6.79  8.06
Si -7.98  4.17 -7.01
Si  5.67  1.35  9.81
Si  8.09  4.78 -6.50
Si  4.10  9.43  4.99
Si -2.83 -4.80 -9.98
Si -5.65  9.78 -1.98
Si  7.68  8.47 -1.00
Si  3.07 -5.92 -9.37
Si -10.11  4.61 -3.01
Si  9.32 -5.77 -3.53
Si -0.10 -11.00  3.44
Si  4.96 -3.52  9.81
Si 11.39  0.02 -1.98
Si -8.09 -8.27 -0.25
Si -2.72  7.85  8.06
Si 11.08 -3.39 -0.25
Si  5.07  7.11 -7.62
Si -4.86 -6.79  8.06
Si  0.16  3.91 10.94
Si  1.96  9.05 -7.01
Si -5.24 -8.23  6.33
Si 11.00  3.82 -0.04
Si -0.43  9.66 -6.50
Si  0.61  8.96  7.45
Si  5.46  8.55 -5.88
Si 11.65 -0.16  1.50
Si -7.59  0.37 -8.96
Si  7.94  8.30  2.49
Si  2.88 -11.15 -2.40
Si  8.50  5.68  5.84
Si  3.14 -11.32  1.09
Si -6.48  6.72 -7.22
Si -0.43 -5.42 -10.50
Si -5.88  0.97 10.21
Si  3.32  9.95 -5.47
Si -5.13  9.43  4.99
Si -7.01  8.87 -3.53
Si  3.39 -2.48 -11.10
Si 11.79  1.49 -0.25
Si 10.82 -3.21 -3.73
Si 10.68 -4.86 -1.98
Si -4.39 -11.05 -1.00
Si  7.05 -1.81  9.46
Si  3.98 11.25 -0.25
Si -2.89 -6.69  9.46
Si -7.83 -8.45  3.24
Si -2.85  6.24  9.81
Si 10.74  3.99 -3.53
Si -11.22  3.42  2.49
Si -10.22  5.85  2.35
Si -2.92 11.64 -0.65
Si -2.75  1.67 -11.59
Si -0.80 11.08 -4.62
Si  9.77 -0.71 -7.01
Si -0.02 10.56  5.84
Si -2.07  8.82 -7.97
Si -11.49  3.59 -1.00
Si  4.10  2.40 -11.10
Si -3.75 -0.76 -11.46
Si  9.84 -6.12  3.44
Si  6.48 -10.21  0.48
Si  4.84 -11.05 -1.00
Si -2.66 11.47  2.84
Si  7.71 -5.68  7.45
Si 10.94 -5.04  1.50
Si -10.48  6.03 -1.13
Si  6.21 -10.04 -3.01
Si -10.67  0.80  5.84
Si -4.13 -11.22  2.49
Si -8.35 -8.10 -3.73
Si -3.90 -8.27 -8.11
Si 11.53  1.67 -3.73
Si -7.00 -5.39  8.47
Si  7.42  8.65 -4.49
Si -3.28 -9.86 -6.50
Si  7.11  0.08 -9.98
Si -11.94 -1.46  2.49
Si  4.24 11.08  3.24
Si -3.17  2.79 11.55
Si -12.20 -1.29 -1.00
Si  1.14 -6.47 10.42
Si 11.34 -3.56  3.24
Si 11.26  3.64  3.44
Si  8.05  0.62  9.32
Si -3.88 -2.08 11.55
Si -0.76  7.95  9.46
Si 11.13  0.19 -5.47
Si  3.21 -0.68 11.96
Si -11.45  1.32 -4.62
Si -5.25 11.25 -0.25
Si -6.29 -7.53 -7.62
Si  4.05  5.85 10.21
Si  6.37 -8.97  5.84
Si -6.88  5.25 -8.96
Si -5.13  2.40 -11.10
Si -1.26 -5.85 10.94
Si  9.13  4.08  7.45
Si -11.27 -5.33  0.48
Si -11.64 -3.91  2.35
Si -6.22  8.35  6.93
Si -3.46 -3.21 -11.59
Si -11.90 -3.73 -1.13
Si -10.04 -0.80  7.45
Si  1.37  0.54 -12.44
Si 12.05  1.32  3.24
Si -8.36 -6.29  6.93
Si -3.04  4.12 -11.46
Si -4.99 11.08  3.24
Si  5.10 -11.22  2.49
Si  3.72 11.43 -3.73
Si  7.34 -4.26  9.32
Si  7.76  3.07  9.46
Si -9.33  4.08  7.45
Si  4.58 -10.87 -4.49
Si -0.88 -10.47 -7.01
Si -4.65 -10.87 -4.49
Si 10.42 -4.69 -5.47
Si -6.16 -5.92 -9.37
Si  2.62 -10.97 -5.88
Si  5.48 -0.76 -11.46
Si  7.46  6.38 -8.11
Si  5.33 -8.27 -8.11
Si  9.06 -5.59 -7.01
Si -6.59 -3.91 10.21
Si -5.84 -2.48 -11.10
Si  6.40 -4.80 -9.98
Si -6.67  3.29 10.42
Si -5.91  9.95 -5.47
Si  3.40 -11.50  4.58
Si -11.08 -0.10 -6.50
Si -0.91  0.45 12.81
Si -5.17  5.85 10.21
Si -9.96  5.68  5.84
Si -7.38 -1.59 10.42
Si  5.35 -2.08 11.55
Si -10.96  3.24  5.97
Si -6.09 -11.32  1.09
Si -3.18 11.82 -4.13
Si 11.91 -0.33  4.99
Si 10.81 -1.41  6.93
Si -11.01 -5.50  3.96
Si -8.23 -9.92  1.50
Si  2.48  6.90 -10.71
Si  0.21 -9.39 -8.96
Si -11.53 -5.15 -3.01
Si -9.40 -5.59 -7.01
Si  6.50  7.85  8.06
Si  6.74 -10.38  3.96
Si  8.21  8.12  5.97
Si -8.30 -4.51 -8.96
Si -6.35 -11.15 -2.40
Si -9.14  9.31  0.48
Si  2.76 -12.76 -0.65
Si -8.49 -9.74 -1.98
Si -2.23 -10.56  7.45
Si -11.75  3.77 -4.49
Si -10.37  4.78 -6.50
Si 10.55 -3.04 -7.22
Si  0.16 -11.17  6.93
Si  0.43 -13.15 -0.25
Si -2.40 11.29  6.33
Si  9.32  9.31  0.48
Si  0.66 -4.34 -12.44
Si -7.46  2.02 -10.71
Si 12.10  4.90 -1.98
Si  6.34 -6.69  9.46
Si -11.67 -1.64  5.97
Si  0.35 -7.75 -10.71
Si  5.95 -9.86 -6.50
Si -5.51 11.43 -3.73
Si -10.74  6.20 -4.62
Si -1.92 -1.99 12.95
Si  6.31 11.64 -0.65
Si  6.38  6.24  9.81
Si 10.37 -8.27 -0.25
Si  3.92  4.20 11.96
Si 10.48  4.17 -7.01
Si  4.36  9.25  8.47
Si -12.46 -1.11 -4.49
Si -7.57 -8.62  6.72
Si -2.60 -9.14  9.32
Si 12.36  4.72  1.50
