500
set: 562.00  0.00  0.00
Si  0.00  0.00  0.00
Si -0.10 -2.10  0.75
Si  0.22 -0.14 -2.22
Si  1.83  1.05  0.75
Si -1.83  1.05  0.75
Si  0.32  1.96 -2.96
Si -0.32 -1.96  2.96
Si -1.61 -1.19 -2.96
Si  1.61  1.19  2.96
Si -1.73  3.15  0.00
Si  1.73 -3.15  0.00
Si  3.65  0.00  0.00
Si -3.65  0.00  0.00
Si -1.92 -3.15  0.00
Si  1.92  3.15  0.00
Si  2.05 -1.19 -2.96
Si -2.05  1.19  2.96
Si -1.51  3.01 -2.22
Si -3.43 -0.14 -2.22
Si  1.51 -0.90  3.71
Si  3.56 -2.10  0.75
Si  0.10  4.21  0.75
Si  2.14  3.01 -2.22
Si -1.70 -3.29 -2.22
Si -0.22  2.25  3.71
Si -3.75 -2.10  0.75
Si -2.14 -0.90  3.71
Si  1.95 -3.29 -2.22
Si  3.87 -0.14 -2.22
Si -3.34  1.96 -2.96
Si  3.34 -1.96  2.96
Si -0.12  4.35  2.96
Si  0.12 -4.35 -2.96
Si -3.97 -1.96  2.96
Si  3.97  1.96 -2.96
Si -0.41 -4.05  3.71
Si  0.54  1.82 -5.18
Si -1.39 -1.33 -5.18
Si  3.43  2.25  3.71
Si  1.63 -5.25  0.75
Si -3.56  4.21  0.75
Si  5.48  1.05  0.75
Si -5.48  1.05  0.75
Si -2.02 -5.25  0.75
Si  3.75  4.21  0.75
Si  2.27 -1.33 -5.18
Si -3.87  2.25  3.71
Si -1.41  5.11 -2.96
Si  1.41 -5.11  2.96
Si -1.29  0.76 -5.93
Si  1.29 -0.76  5.93
Si -5.26 -1.19 -2.96
Si  5.26  1.19  2.96
Si -5.38  3.15  0.00
Si  5.38 -3.15  0.00
Si  0.19  6.30  0.00
Si -0.19 -6.30  0.00
Si -3.12  1.82 -5.18
Si  2.24  5.11 -2.96
Si -2.24 -5.11  2.96
Si  3.53  4.35  2.96
Si -3.53 -4.35 -2.96
Si -5.16  3.01 -2.22
Si  3.24 -4.05  3.71
Si  0.44 -2.39 -5.93
Si -0.44  2.39  5.93
Si -5.58 -3.15  0.00
Si  5.58  3.15  0.00
Si  5.16 -0.90  3.71
Si  2.37  0.76 -5.93
Si -2.37 -0.76  5.93
Si -3.78  4.35  2.96
Si  3.78 -4.35 -2.96
Si -5.70  1.19  2.96
Si  5.70 -1.19 -2.96
Si  0.41  6.16 -2.22
Si -5.36 -3.29 -2.22
Si -0.54  0.29  6.67
Si  1.70  5.40  3.71
Si  0.03 -6.44 -2.22
Si -1.95  5.40  3.71
Si -4.07 -4.05  3.71
Si  0.34 -4.49 -5.18
Si  5.60 -3.29 -2.22
Si  5.80  3.01 -2.22
Si  4.19  1.82 -5.18
Si -5.80 -0.90  3.71
Si  0.63  3.92 -5.93
Si -0.63 -3.92  5.93
Si -3.21 -2.39 -5.93
Si  3.21  2.39  5.93
Si -3.46  6.30  0.00
Si  3.46 -6.30  0.00
Si -1.19  4.97 -5.18
Si  7.31  0.00  0.00
Si -7.31  0.00  0.00
Si -3.24  6.16 -2.22
Si -5.04 -1.33 -5.18
Si  1.19 -2.86  6.67
Si  3.12  0.29  6.67
Si -3.85 -6.30  0.00
Si  3.85  6.30  0.00
Si -7.09 -0.14 -2.22
Si  5.29 -5.25  0.75
Si  7.21 -2.10  0.75
Si -1.63  7.36  0.75
Si  2.46  4.97 -5.18
Si  4.09 -2.39 -5.93
Si -4.09  2.39  5.93
Si -3.31 -4.49 -5.18
Si  1.39  3.44  6.67
Si -2.46 -2.86  6.67
Si  2.02  7.36  0.75
Si  4.07  6.16 -2.22
Si -3.62 -6.44 -2.22
Si  3.02 -3.92  5.93
Si -3.02  3.92 -5.93
Si -7.40 -2.10  0.75
Si  3.68 -6.44 -2.22
Si -4.94  0.76 -5.93
Si  4.94 -0.76  5.93
Si -5.67 -5.25  0.75
Si  5.07 -5.11  2.96
Si -5.07  5.11 -2.96
Si  6.99 -1.96  2.96
Si -6.99  1.96 -2.96
Si -2.27  3.44  6.67
Si  7.53 -0.14 -2.22
Si -4.19  0.29  6.67
Si  4.00 -4.49 -5.18
Si  5.92 -1.33 -5.18
Si  1.32 -7.21  3.71
Si -1.07  0.62 -8.14
Si -1.48 -5.54 -5.93
Si  1.48  5.54  5.93
Si -1.80 -7.50 -2.96
Si  1.80  7.50  2.96
Si -1.85  7.50  2.96
Si  1.85 -7.50 -2.96
Si -4.29 -3.92  5.93
Si  4.29  3.92 -5.93
Si  7.09  2.25  3.71
Si  5.89  5.11 -2.96
Si -5.89 -5.11  2.96
Si -7.21  4.21  0.75
Si  2.17 -5.54 -5.93
Si -2.17  5.54  5.93
Si  7.62  1.96 -2.96
Si -7.62 -1.96  2.96
Si -2.34 -7.21  3.71
Si -0.29 -8.40  0.75
Si  5.36  5.40  3.71
Si -6.02 -0.76  5.93
Si  6.02  0.76 -5.93
Si  7.40  4.21  0.75
Si  0.66 -2.53 -8.14
Si  2.58  0.62 -8.14
Si -5.61  5.40  3.71
Si -4.85  4.97 -5.18
Si -7.53  2.25  3.71
Si -6.77  1.82 -5.18
Si  4.85 -2.86  6.67
Si  0.51  8.26 -2.96
Si -0.51 -8.26  2.96
Si  6.89 -4.05  3.71
Si -7.18 -4.35 -2.96
Si  7.18  4.35  2.96
Si -0.76  0.43  8.89
Si  0.76 -0.43 -8.89
Si -0.73 -6.01  6.67
Si  0.85  3.78 -8.14
Si -2.99 -2.53 -8.14
Si  5.04  3.44  6.67
Si  3.37 -8.40  0.75
Si -5.29  7.36  0.75
Si -7.43  4.35  2.96
Si  7.43 -4.35 -2.96
Si  9.13  1.05  0.75
Si -9.13  1.05  0.75
Si  1.10 -7.07  5.93
Si -1.10  7.07 -5.93
Si -3.94 -8.40  0.75
Si  5.67  7.36  0.75
Si -0.03  8.55  3.71
Si  3.14 -8.26  2.96
Si -3.14  8.26 -2.96
Si -0.97  2.72 -8.89
Si  0.97 -2.72  8.89
Si -2.90 -0.43 -8.89
Si  2.90  0.43  8.89
Si -1.58 -7.64 -5.18
Si -6.87 -2.39 -5.93
Si  6.87  2.39  5.93
Si -0.35  6.59  6.67
Si -2.80  3.78 -8.14
Si  6.11  4.97 -5.18
Si -4.72  0.62 -8.14
Si  2.92 -6.01  6.67
Si  2.08 -7.64 -5.18
Si -8.91 -1.19 -2.96
Si  8.91  1.19  2.96
Si -7.72 -4.05  3.71
Si -6.11 -2.86  6.67
Si  7.11 -6.30  0.00
Si -7.11  6.30  0.00
Si  4.97 -7.21  3.71
Si  6.77  0.29  6.67
Si -6.89  6.16 -2.22
Si  4.32 -2.53 -8.14
Si -5.92  3.44  6.67
Si -9.04  3.15  0.00
Si  9.04 -3.15  0.00
Si  2.56  7.07 -5.93
Si -2.56 -7.07  5.93
Si  7.84  1.82 -5.18
Si -8.82  3.01 -2.22
Si  1.54 -9.46  0.00
Si -1.54  9.46  0.00
Si -5.13 -5.54 -5.93
Si  5.13  5.54  5.93
Si  8.82 -0.90  3.71
Si -1.16 -3.58 -8.89
Si  1.16  3.58  8.89
Si  0.73  8.12 -5.18
Si -1.32  9.31 -2.22
Si -2.68 -2.72  8.89
Si  2.68  2.72 -8.89
Si  2.12  9.46  0.00
Si -2.12 -9.46  0.00
Si  4.16  8.26 -2.96
Si -4.16 -8.26  2.96
Si -5.45 -7.50 -2.96
Si  5.45  7.50  2.96
Si  6.67 -3.92  5.93
Si -6.67  3.92 -5.93
Si -9.23 -3.15  0.00
Si  9.23  3.15  0.00
Si -5.51  7.50  2.96
Si  5.51 -7.50 -2.96
Si -6.96 -4.49 -5.18
Si -7.50 -6.30  0.00
Si  7.50  6.30  0.00
Si  1.07  1.49  9.64
Si -0.85 -1.67  9.64
Si -9.01 -3.29 -2.22
Si  2.34  9.31 -2.22
Si -9.35  1.19  2.96
Si  9.35 -1.19 -2.96
Si -2.49  3.58  8.89
Si  2.49 -3.58 -8.89
Si  4.41 -0.43 -8.89
Si -4.41  0.43  8.89
Si  3.31  6.59  6.67
Si -7.28 -6.44 -2.22
Si  5.83 -5.54 -5.93
Si -5.83  5.54  5.93
Si -4.38 -6.01  6.67
Si  3.62  8.55  3.71
Si  1.76 -9.59 -2.22
Si -1.26 -5.68 -8.14
Si  7.33 -6.44 -2.22
Si -3.68  8.55  3.71
Si -1.90 -9.59 -2.22
Si  7.75 -2.39 -5.93
Si -7.75  2.39  5.93
Si  4.51  3.78 -8.14
Si -2.92  8.12 -5.18
Si  9.26 -3.29 -2.22
Si -5.99 -7.21  3.71
Si -2.58  1.49  9.64
Si  7.72  6.16 -2.22
Si  9.45  3.01 -2.22
Si  2.80 -1.67  9.64
Si -9.45 -0.90  3.71
Si -4.00  6.59  6.67
Si -8.69 -1.33 -5.18
Si  2.39 -5.68 -8.14
Si  7.65 -4.49 -5.18
Si  6.24  0.62 -8.14
Si -7.84  0.29  6.67
Si -4.75  7.07 -5.93
Si  4.75 -7.07  5.93
Si  4.62 -2.72  8.89
Si -4.62  2.72 -8.89
Si  8.94 -5.25  0.75
Si -8.60  0.76 -5.93
Si  8.60 -0.76  5.93
Si -0.25  8.69  5.93
Si  0.25 -8.69 -5.93
Si -8.72  5.11 -2.96
Si  8.72 -5.11  2.96
Si  0.29 10.51  0.75
Si  4.38  8.12 -5.18
Si -5.23 -7.64 -5.18
Si -7.94 -3.92  5.93
Si  7.94  3.92 -5.93
Si  0.95  5.87 -8.89
Si -0.95 -5.87  8.89
Si -0.66  4.64  9.64
Si  4.82  3.58  8.89
Si -4.82 -3.58 -8.89
Si -9.33 -5.25  0.75
Si -0.88  6.93 -8.14
Si -4.51 -1.67  9.64
Si -5.19  9.46  0.00
Si  5.19 -9.46  0.00
Si -4.97  9.31 -2.22
Si  0.88 -4.82  9.64
Si -6.64 -2.53 -8.14
Si  4.72  1.49  9.64
Si  5.73 -7.64 -5.18
Si 10.96  0.00  0.00
Si -10.96  0.00  0.00
Si -10.74 -0.14 -2.22
Si  9.57 -1.33 -5.18
Si  7.02 -8.40  0.75
Si  2.70 -5.87  8.89
Si -2.70  5.87 -8.89
Si -0.61 -10.36  3.71
Si  2.78  6.93 -8.14
Si -6.55 -0.43 -8.89
Si  6.55  0.43  8.89
Si -0.07 -10.65 -2.96
Si  0.07 10.65  2.96
Si -6.45  3.78 -8.14
Si  3.40  8.69  5.93
Si -3.40 -8.69 -5.93
Si -3.37 10.51  0.75
Si -5.77 -9.46  0.00
Si  5.77  9.46  0.00
Si -4.91 -5.68 -8.14
Si 10.86 -2.10  0.75
Si -6.80  8.26 -2.96
Si  6.80 -8.26  2.96
Si  2.99  4.64  9.64
Si -6.21 -7.07  5.93
Si  6.21  7.07 -5.93
Si -8.50  4.97 -5.18
Si -2.78 -4.82  9.64
Si  6.58 -6.01  6.67
Si  9.01  5.40  3.71
Si  0.98 -0.57 -11.11
Si  0.57 -6.73 -8.89
Si -0.57  6.73  8.89
Si  8.50 -2.86  6.67
Si 10.64 -1.96  2.96
Si -10.64  1.96 -2.96
Si  3.90 -8.69 -5.93
Si -3.90  8.69  5.93
Si -9.55 -5.11  2.96
Si  9.55  5.11 -2.96
Si  5.41 -9.59 -2.22
Si  3.94 10.51  0.75
Si -6.33 -2.72  8.89
Si  6.33  2.72 -8.89
Si -11.06 -2.10  0.75
Si  5.99  9.31 -2.22
Si -5.55 -9.59 -2.22
Si -9.26  5.40  3.71
Si -7.59 -8.40  0.75
Si  9.67  0.76 -5.93
Si -9.67 -0.76  5.93
Si  1.00 -9.16  6.67
Si  6.14 -3.58 -8.89
Si -6.14  3.58  8.89
Si 11.18 -0.14 -2.22
Si  3.05 -10.36  3.71
Si -0.75  2.58 -11.11
Si -2.67 -0.57 -11.11
Si  8.69  3.44  6.67
Si -4.32  4.64  9.64
Si -3.09 -6.73 -8.89
Si  3.09  6.73  8.89
Si -6.24  1.49  9.64
Si 10.74  2.25  3.71
Si -8.94  7.36  0.75
Si  4.60  5.87 -8.89
Si -4.60 -5.87  8.89
Si -4.53  6.93 -8.14
Si -3.58 10.65  2.96
Si  3.58 -10.65 -2.96
Si  6.05 -5.68 -8.14
Si -2.65 -9.16  6.67
Si  3.72 10.65  2.96
Si -3.72 -10.65 -2.96
Si -6.58  8.12 -5.18
Si  1.44 -11.55  0.75
Si  7.97 -2.53 -8.14
Si -10.86  4.21  0.75
Si  6.96  6.59  6.67
Si  4.53 -4.82  9.64
Si -8.38  0.62 -8.14
Si  6.45 -1.67  9.64
Si  7.82  8.26 -2.96
Si -7.82 -8.26  2.96
Si -0.94 -3.72 -11.11
Si  2.90  2.58 -11.11
Si -10.42  1.82 -5.18
Si -2.21 -11.55  0.75
Si -4.26 -10.36  3.71
Si 11.28  1.96 -2.96
Si -11.28 -1.96  2.96
Si  7.28  8.55  3.71
Si  8.62 -7.21  3.71
Si  0.83 10.22 -5.93
Si -0.83 -10.22  5.93
Si 11.06  4.21  0.75
Si -1.22 11.41 -2.96
Si  1.22 -11.41  2.96
Si -7.33  8.55  3.71
Si 10.55 -4.05  3.71
Si  9.33  7.36  0.75
Si  1.58  9.75  6.67
Si -4.22  6.73  8.89
Si  4.22 -6.73 -8.89
Si -8.79 -5.54 -5.93
Si  8.79  5.54  5.93
Si  0.15 -10.79 -5.18
Si -2.08  9.75  6.67
Si -11.18  2.25  3.71
Si  0.85  1.62 11.85
Si -0.85 -1.62 -11.85
Si  1.08  1.53 -11.85
Si -1.08 -1.53 11.85
Si -8.06  0.43  8.89
Si  8.06 -0.43 -8.89
Si  0.47 -8.83 -8.14
Si  2.71 -3.72 -11.11
Si -2.43 -11.41  2.96
Si  2.43 11.41 -2.96
Si 10.84  4.35  2.96
Si -10.84 -4.35 -2.96
Si  4.63 -0.57 -11.11
Si -8.04 -6.01  6.67
Si -7.65  6.59  6.67
Si  9.77  4.97 -5.18
Si  8.16  3.78 -8.14
Si  2.83 -10.22  5.93
Si -2.83 10.22 -5.93
Si -9.11 -7.50 -2.96
Si  9.11  7.50  2.96
Si -9.57  3.44  6.67
Si -9.77 -2.86  6.67
Si  9.16 -7.50 -2.96
Si -9.16  7.50  2.96
Si -4.40  2.58 -11.11
Si  2.58 -1.53 11.85
Si -2.58  1.53 -11.85
Si  4.65 -9.16  6.67
Si -11.08  4.35  2.96
Si 11.08 -4.35 -2.96
Si  2.81 -1.62 -11.85
Si -2.81  1.62 11.85
Si -10.52 -2.39 -5.93
Si 10.52  2.39  5.93
Si 10.42  0.29  6.67
Si -1.76 11.70  3.71
Si -6.36  5.87 -8.89
Si  6.36 -5.87  8.89
Si -10.55  6.16 -2.22
Si  1.89 11.70  3.71
Si -3.18 -8.83 -8.14
Si -1.00 11.27 -5.18
Si -8.28  2.72 -8.89
Si  8.28 -2.72  8.89
Si  1.26  7.79  9.64
Si -3.50 -10.79 -5.18
Si  9.48 -5.54 -5.93
Si -9.48  5.54  5.93
Si -10.77  6.30  0.00
Si 10.77 -6.30  0.00
Si  8.40 -7.07  5.93
Si -8.40  7.07 -5.93
Si  6.43  6.93 -8.14
Si -10.33  3.92 -5.93
Si 10.33 -3.92  5.93
Si  8.04  8.12 -5.18
Si -6.43 -4.82  9.64
Si -1.05 -7.97  9.64
Si  1.17  5.73 -11.11
Si  3.81 -10.79 -5.18
Si -4.60 -3.72 -11.11
Si  6.64  4.64  9.64
Si -9.64 -7.21  3.71
Si  0.39 12.61  0.00
Si -0.39 -12.61  0.00
Si -2.39  7.79  9.64
Si  0.75 -0.47 12.60
Si -11.37 -4.05  3.71
Si -4.48 -10.22  5.93
Si  4.48 10.22 -5.93
Si -10.61 -4.49 -5.18
Si  5.09 -11.55  0.75
Si -7.02 10.51  0.75
Si  7.06  8.69  5.93
Si -7.06 -8.69 -5.93
Si  0.61 12.47 -2.22
Si  2.65 11.27 -5.18
Si -0.78  9.02 -8.89
Si  0.78 -9.02  8.89
