500
set: 1393.00  0.00  0.00
Si  0.21 -1.25 -0.49
Si -1.14  0.66 -0.49
Si  0.08  1.18  1.47
Si  0.34 -1.88  1.47
Si  2.56  1.23 -0.49
Si  1.34  0.70 -2.45
Si -2.26 -1.30  1.47
Si -1.26  1.29 -2.45
Si  2.68  0.60  1.47
Si -1.00 -1.77 -2.45
Si  1.20  3.13 -0.49
Si  2.83 -1.83 -0.49
Si  0.20  0.55  3.43
Si -1.28  3.08  1.47
Si  2.70 -1.20 -2.45
Si -3.62  0.60  1.47
Si -3.48 -1.83 -0.49
Si -3.75  1.23 -0.49
Si -1.41  3.71 -0.49
Si  1.56 -1.36  3.43
Si -2.12 -3.73 -0.49
Si -2.41  1.13  3.43
Si  0.49 -4.30 -0.49
Si  1.70 -3.78  1.47
Si  0.36 -3.67 -2.45
Si -2.13 -1.92  3.43
Si  4.04 -1.30  1.47
Si -3.60 -1.20 -2.45
Si  1.08  3.76 -2.45
Si  2.42  3.66  1.47
Si -1.12 -1.15 -4.41
Si  1.21  1.34 -4.41
Si -2.62  3.19 -2.45
Si  1.49 -1.71 -4.41
Si -0.07  3.60  3.43
Si -2.00 -4.36  1.47
Si -2.48  0.76 -4.41
Si -0.78 -3.83  3.43
Si  5.17  0.66 -0.49
Si  2.54  3.04  3.43
Si  3.90  1.13  3.43
Si  3.68  3.19 -2.45
Si -0.14  3.25 -4.41
Si -3.88  3.66  1.47
Si -4.96  0.70 -2.45
Si  4.18 -3.73 -0.49
Si -0.92 -1.41  5.39
Si  1.42  1.07  5.39
Si  4.17 -1.92  3.43
Si  2.96 -4.26 -2.45
Si  5.04  1.29 -2.45
Si  1.06  5.56  1.47
Si -2.28  0.49  5.39
Si  1.83 -4.41  3.43
Si  3.82  0.76 -4.41
Si -3.76  3.04  3.43
Si -3.34 -4.26 -2.45
Si  1.69 -1.99  5.39
Si -5.10  3.13 -0.49
Si -4.74 -1.36  3.43
Si  5.02  3.08  1.47
Si  5.30 -1.77 -2.45
Si -4.60 -3.78  1.47
Si -0.85 -4.20 -4.41
Si  0.06  2.97  5.39
Si  4.89  3.71 -0.49
Si -0.28  5.66 -2.45
Si -6.09 -1.25 -0.49
Si  0.93  6.19 -0.49
Si -2.76  5.62 -0.49
Si  4.31 -4.36  1.47
Si  2.83 -3.62 -4.41
Si -5.96 -1.88  1.47
Si  0.00  0.81 -6.37
Si -2.75  3.81 -4.41
Si -0.64 -6.26  1.47
Si  1.84 -6.21 -0.49
Si -1.54  6.14  1.47
Si -6.22  1.18  1.47
Si  1.36 -1.09 -6.37
Si -1.42  5.51  3.43
Si  6.51 -1.25 -0.49
Si  6.38  1.18  1.47
Si  3.54  5.62 -0.49
Si -3.47 -3.62 -4.41
Si  4.02  0.49  5.39
Si -4.82 -1.71 -4.41
Si  3.55  3.81 -4.41
Si -5.09  1.34 -4.41
Si -5.22  3.76 -2.45
Si  5.18 -1.15 -4.41
Si -1.98 -6.16 -2.45
Si -2.54  3.55  5.39
Si -2.34 -1.67 -6.37
Si -6.10  0.55  3.43
Si -2.60  1.39 -6.37
Si -0.65 -4.47  5.39
Si -1.85 -6.79 -0.49
Si  6.64 -1.88  1.47
Si -4.47 -4.41  3.43
Si  0.63 -6.74 -2.45
Si -5.81 -4.30 -0.49
Si  1.97 -6.84  1.47
Si -2.89  6.25 -2.45
Si  3.04 -3.88  5.39
Si  2.27  6.09  3.43
Si -4.88  1.07  5.39
Si -0.98 -3.57 -6.37
Si -4.62 -1.99  5.39
Si  6.50  0.55  3.43
Si -3.26 -3.88  5.39
Si -5.94 -3.67 -2.45
Si -0.27  3.87 -6.37
Si  3.76  3.55  5.39
Si -7.44  0.66 -0.49
Si  3.70  1.39 -6.37
Si -1.06  1.02  7.35
Si  1.55  0.45  7.35
Si  3.41  6.25 -2.45
Si  2.34  3.29 -6.37
Si  5.52 -3.83  3.43
Si  0.50 -6.11 -4.41
Si  2.20  5.72 -4.41
Si -4.46 -6.21 -0.49
Si -0.79 -2.04  7.35
Si  3.96 -1.67 -6.37
Si -0.41  6.30 -4.41
Si -0.51 -6.88  3.43
Si  5.38 -1.41  5.39
Si  1.62 -4.15 -6.37
Si -5.24  5.56  1.47
Si -3.12 -6.32  3.43
Si  3.18 -6.32  3.43
Si -7.30 -1.77 -2.45
Si  4.76  6.14  1.47
Si  4.32 -6.16 -2.45
Si  6.24  3.60  3.43
Si  6.66 -3.67 -2.45
Si  2.90 -1.46  7.35
Si  2.40  5.45  5.39
Si  6.79 -4.30 -0.49
Si  7.64  0.70 -2.45
Si -7.57  1.29 -2.45
Si -4.03  6.09  3.43
Si -6.37  3.60  3.43
Si -0.20  6.04  5.39
Si -0.42  8.09 -0.49
Si  4.88  5.51  3.43
Si  4.45 -6.79 -0.49
Si -4.94 -1.09 -6.37
Si  7.50  3.13 -0.49
Si  5.45 -4.20 -4.41
Si -3.96  3.29 -6.37
Si -5.37  6.19 -0.49
Si -4.33 -6.84  1.47
Si -3.40 -1.46  7.35
Si  1.27  3.50  7.35
Si  6.16  3.25 -4.41
Si -2.42  2.92  7.35
Si -4.10  5.72 -4.41
Si -7.58  3.08  1.47
Si  0.56 -3.94  7.35
Si  0.70 -6.37  5.39
Si -6.44  3.25 -4.41
Si -0.13  1.44 -8.33
Si  0.14 -1.61 -8.33
Si  5.66 -6.26  1.47
Si -7.71  3.71 -0.49
Si  3.11 -6.67 -4.41
Si -3.90  5.45  5.39
Si -3.19 -6.67 -4.41
Si  6.02  5.66 -2.45
Si  7.38  3.76 -2.45
Si -2.90  8.04  1.47
Si  7.86 -1.36  3.43
Si -7.42 -1.15 -4.41
Si -0.50 -8.69 -0.49
Si  2.48  0.88 -8.33
Si -1.62  5.77 -6.37
Si  0.92  8.00  3.43
Si  2.06  8.14 -2.45
Si -2.47 -1.03 -8.33
Si -7.08 -3.83  3.43
Si -4.75  0.45  7.35
Si -6.24  2.97  5.39
Si  0.79  8.62  1.47
Si -8.56 -1.30  1.47
Si  3.88  2.92  7.35
Si  7.51  1.34 -4.41
Si  3.40  8.04  1.47
Si  6.36  2.97  5.39
Si -4.68 -4.15 -6.37
Si  8.86  1.23 -0.49
Si  8.00 -3.78  1.47
Si  5.65 -4.47  5.39
Si -6.30  0.81 -6.37
Si  6.30  0.81 -6.37
Si -6.58  5.66 -2.45
Si  5.32 -3.57 -6.37
Si -0.55  8.72 -2.45
Si  5.24  1.02  7.35
Si -1.48  3.35 -8.33
Si  7.79 -1.71 -4.41
Si -7.22 -1.41  5.39
Si  8.98  0.60  1.47
Si -0.08  5.41  7.35
Si -5.67 -6.74 -2.45
Si  1.50 -3.52 -8.33
Si -3.13 -4.51  7.35
Si  3.17 -4.51  7.35
Si  1.98 -8.63 -2.45
Si -3.03  8.67 -0.49
Si -3.82  0.88 -8.33
Si -0.72 -6.63 -6.37
Si -8.42 -3.73 -0.49
Si  3.83 -1.03 -8.33
Si  2.07  6.35 -6.37
Si  2.98 -6.05 -6.37
Si  3.27  8.67 -0.49
Si -2.99 -6.95  5.39
Si -8.43 -1.92  3.43
Si  9.12 -1.83 -0.49
Si  7.36  5.56  1.47
Si -2.98 -8.74  1.47
Si -0.94  0.39  9.31
Si -1.69  8.56  3.43
Si -3.32 -6.05 -6.37
Si  3.31 -6.95  5.39
Si -7.16 -4.20 -4.41
Si  9.00 -1.20 -2.45
Si  5.51 -2.04  7.35
Si -8.71  1.13  3.43
Si  0.42 -1.51  9.31
Si -0.37 -9.32  1.47
Si -6.94 -6.26  1.47
Si  3.33 -8.74  1.47
Si  2.21  3.92 -8.33
Si  7.72  1.07  5.39
Si  0.84 -8.79  3.43
Si -1.76  8.21 -4.41
Si -8.30 -4.36  1.47
Si -4.24  8.14 -2.45
Si -5.80 -6.11 -4.41
Si  2.11 -9.26 -0.49
Si  7.23  6.19 -0.49
Si -2.19 -4.08 -8.33
Si  8.72  3.66  1.47
Si -5.03  3.50  7.35
Si  6.03  3.87 -6.37
Si  5.79 -6.88  3.43
Si  5.89  6.30 -4.41
Si -1.71 -9.22 -2.45
Si -1.56  7.93  5.39
Si  2.76  0.96  9.31
Si -8.92  3.19 -2.45
Si  4.68  5.77 -6.37
Si -1.84 -8.58 -4.41
Si  7.99 -1.99  5.39
Si  1.40  2.87  9.31
Si -2.69  5.98  7.35
Si -8.78  0.76 -4.41
Si  8.13 -4.41  3.43
Si -6.96 -4.47  5.39
Si -1.78 -6.42  7.35
Si -6.57  3.87 -6.37
Si -4.23  6.35 -6.37
Si -9.78 -1.83 -0.49
Si -4.32 -8.63 -2.45
Si  8.85  3.04  3.43
Si  6.93 -6.74 -2.45
Si -1.20  3.45  9.31
Si  1.93  8.77 -4.41
Si -3.54  0.96  9.31
Si  3.03 -2.09  9.31
Si  5.88  8.09 -0.49
Si  7.66 -1.09 -6.37
Si -9.92  0.60  1.47
Si -5.60 -6.37  5.39
Si -7.84  6.14  1.47
Si -4.09  3.92 -8.33
Si -7.72  5.51  3.43
Si -3.27 -2.09  9.31
Si -5.74 -3.94  7.35
Si  6.10  6.04  5.39
Si -10.05  1.23 -0.49
Si  3.62  5.98  7.35
Si -8.58  0.49  5.39
Si  6.80 -6.11 -4.41
Si  4.11 -4.08 -8.33
Si -4.19 -9.26 -0.49
Si  0.83 -7.00  7.35
Si  4.82  3.35 -8.33
Si  0.77 -9.16 -4.41
Si -6.71  6.30 -4.41
Si  0.86  5.83 -8.33
Si -5.38  8.00  3.43
Si -4.80 -3.52 -8.33
Si  8.14 -6.21 -0.49
Si -9.90 -1.20 -2.45
Si -6.81 -6.88  3.43
Si  2.14  8.51  5.39
Si -0.84 -6.00 -8.33
Si -7.28 -3.57 -6.37
Si -1.92 -3.99  9.31
Si  4.61  8.56  3.43
Si -5.51  8.62  1.47
Si  0.02 -0.98 -10.29
Si  4.54  8.21 -4.41
Si -2.85 -9.37  3.43
Si -6.51  6.04  5.39
Si  0.69 -4.57  9.31
Si -7.09 -2.04  7.35
Si -1.34  0.92 -10.29
Si  0.72  8.25 -6.37
Si -7.36  1.02  7.35
Si  5.80 -8.69 -0.49
Si  6.17  1.44 -8.33
Si  9.27 -4.26 -2.45
Si -1.64 -8.85  5.39
Si -6.16 -1.61 -8.33
Si 10.34 -1.30  1.47
Si -6.72  8.09 -0.49
Si  3.45 -9.37  3.43
Si  4.59 -9.22 -2.45
Si -8.28 -6.16 -2.45
Si -8.15 -6.79 -0.49
Si -6.43  1.44 -8.33
Si  4.46 -8.58 -4.41
Si -0.56 10.52  1.47
Si -1.75  6.40 -8.33
Si  6.44 -1.61 -8.33
Si  2.35  1.50 -10.29
Si  0.64 -8.53 -6.37
Si -9.06  5.62 -0.49
Si  4.74  7.93  5.39
Si  5.75  8.72 -2.45
Si  2.62 -1.56 -10.29
Si -4.37  8.77 -4.41
Si  5.37  0.39  9.31
Si  4.52 -6.42  7.35
Si  5.58 -6.63 -6.37
Si  9.98  3.19 -2.45
Si  1.76 -6.57 -8.33
Si  7.85  0.45  7.35
Si -9.05  3.81 -4.41
Si  1.92 10.58 -0.49
Si  9.14 -3.62 -4.41
Si  6.86 -3.94  7.35
Si 10.20  1.13  3.43
Si -9.64 -4.26 -2.45
Si  8.27 -6.84  1.47
Si -8.64 -1.67 -6.37
Si  1.00  3.40 -10.29
Si  7.00 -6.37  5.39
Si -4.17  8.51  5.39
Si  0.97 -9.43  5.39
Si -5.46 -8.79  3.43
Si -4.90  2.87  9.31
Si -10.19  3.66  1.47
Si -8.84  3.55  5.39
Si  7.92 -4.15 -6.37
Si  2.26  7.88  7.35
Si -8.90  1.39 -6.37
Si -2.56  5.35  9.31
Si  4.38 -3.99  9.31
Si -3.68 -1.56 -10.29
Si -6.80 -8.69 -0.49
Si  6.22  5.41  7.35
Si -10.06  3.04  3.43
Si -1.89  8.83 -6.37
Si  8.57  6.09  3.43
Si  0.28 -4.04 -10.29
Si -1.91 10.62 -2.45
Si 10.12  0.76 -4.41
Si  1.14  5.92  9.31
Si -2.32 -3.46 -10.29
Si -5.88 -1.51  9.31
Si  7.58  3.50  7.35
Si -3.95  1.50 -10.29
Si -6.38  5.41  7.35
Si 10.48 -3.73 -0.49
Si  5.93 -9.32  1.47
Si -1.61  3.98 -10.29
Si  8.50  5.72 -4.41
Si  5.10  3.45  9.31
Si -0.69 11.15 -0.49
Si 10.47 -1.92  3.43
Si -0.35  8.46  7.35
Si  8.64  3.29 -6.37
Si  7.09  8.62  1.47
Si  7.22  8.00  3.43
Si -9.77 -3.62 -4.41
Si  0.28  0.92 11.27
Si  9.84  5.62 -0.49
Si -6.85  8.72 -2.45
Si  0.98 -11.22  1.47
Si  4.66 -8.85  5.39
Si  3.74  5.35  9.31
Si -9.19  6.25 -2.45
Si -0.35 -11.12 -2.45
Si -3.04 10.47  3.43
Si  4.55  6.40 -8.33
Si  9.86  3.81 -4.41
Si  4.96  0.92 -10.29
Si  9.34 -3.88  5.39
Si -4.38 10.58 -0.49
Si  0.55 -2.13 11.27
Si  3.26 10.47  3.43
Si 11.47  0.66 -0.49
Si -4.04  7.88  7.35
Si  2.04 -6.47  9.31
Si -3.05 -9.11 -6.37
Si -5.47 -7.00  7.35
Si -2.84 -11.17 -0.49
Si -5.44  5.83 -8.33
Si -4.54 -6.57 -8.33
Si -11.26  0.70 -2.45
Si -6.67 -9.32  1.47
Si 10.61 -4.36  1.47
Si -7.02 -6.63 -6.37
Si  3.98 -3.46 -10.29
Si -2.06 -1.57 11.28
Si  0.58 10.68 -4.41
Si -5.53 -9.16 -4.41
Si  3.25 -9.11 -6.37
Si  6.72 -1.51  9.31
Si  0.65 11.05  3.43
Si  8.70  5.45  5.39
Si  1.79 11.21 -2.45
Si  3.13 11.10  1.47
Si  5.46 -6.00 -8.33
Si -10.90 -3.78  1.47
Si -3.17 11.10  1.47
Si  2.89  0.34 11.27
Si -9.56 -3.88  5.39
Si -11.04 -1.36  3.43
Si 10.32  0.49  5.39
Si -1.07  2.83 11.27
Si 11.34  1.29 -2.45
Si -7.92  5.77 -6.37
Si  3.46 -11.17 -0.49
Si  4.41  8.83 -6.37
Si  0.78 10.41  5.39
Si  2.18 -8.90  7.35
Si  4.40 10.62 -2.45
Si -0.23 -11.75 -0.49
Si -8.72  2.92  7.35
Si -3.42  0.34 11.27
Si -5.61 -4.57  9.31
Si -1.65 -7.05  9.31
Si -7.24  0.39  9.31
Si 11.19  3.71 -0.49
Si  9.71  6.25 -2.45
Si 11.32  3.08  1.47
Si -5.58  8.25 -6.37
Si -11.40  3.13 -0.49
Si  7.14 -8.79  3.43
Si -9.42 -6.32  3.43
Si  9.20 -1.46  7.35
Si -7.78  3.35 -8.33
Si -1.50 -11.28  3.43
Si  9.48 -6.32  3.43
Si  8.36  8.14 -2.45
Si 10.00  1.39 -6.37
Si  7.80 -3.52 -8.33
Si 10.06  3.55  5.39
Si  4.70  3.98 -10.29
Si 11.60 -1.77 -2.45
Si  1.64 -5.95 -10.29
Si -5.66 -8.53 -6.37
Si  2.62  3.39 11.28
Si -5.30  3.40 -10.29
Si  5.74 10.52  1.47
Si -11.12 -1.71 -4.41
Si -1.51 -9.47  7.35
Si -5.33 -9.43  5.39
Si -6.28 -0.98 -10.29
Si  2.12 -11.07 -4.41
Si -4.26 -6.47  9.31
Si  6.32 -0.98 -10.29
Si  1.90 -4.04 11.27
Si -10.78 -4.41  3.43
Si  8.79  0.88 -8.33
Si -8.77 -1.03 -8.33
Si  4.24 -1.57 11.28
Si  2.25 -11.70 -2.45
Si -0.22  7.83  9.31
Si -3.10  8.31 -8.33
Si  0.73  6.46 -10.29
Si -5.16  5.92  9.31
Si  3.20  8.31 -8.33
Si 10.26 -1.67 -6.37
Si  0.59  8.88 -8.33
Si -2.71 -11.80  1.47
Si -7.99  8.56  3.43
Si  8.28 -8.63 -2.45
Si -2.96  5.88 -10.29
Si -4.12 -8.90  7.35
Si -2.03 11.26 -4.41
Si -9.71 -1.46  7.35
