500
set: 1324.00  0.00  0.00
Si -0.96 -1.24 -0.06
Si -0.96  0.71  1.36
Si  0.97 -1.88 -1.23
Si -0.97  2.67  0.12
Si  0.97  0.32  2.66
Si  2.90 -1.24 -0.06
Si  2.90  0.71  1.36
Si -0.97 -2.83  1.52
Si  0.96  3.05 -1.18
Si  0.95 -0.81 -3.20
Si  0.96 -2.20  2.70
Si -2.89 -1.88 -1.23
Si  0.96  1.72 -3.24
Si  2.89  2.67  0.12
Si -2.89  0.32  2.66
Si  2.89 -2.83  1.52
Si -2.90  3.05 -1.18
Si -2.90 -0.81 -3.20
Si -2.90 -2.20  2.70
Si  0.97 -4.41 -1.18
Si -2.90  1.72 -3.24
Si -0.97 -1.43 -4.38
Si -0.96 -4.79  0.12
Si -4.82 -1.24 -0.06
Si -0.97  4.64  1.52
Si -4.82  0.71  1.36
Si  0.97  1.66  4.72
Si -0.97  2.10 -4.54
Si  4.83 -1.88 -1.23
Si -2.89 -4.41 -1.18
Si  2.88 -1.43 -4.38
Si -4.83  2.67  0.12
Si  4.83  0.32  2.66
Si  2.90 -4.79  0.12
Si  2.88  4.64  1.52
Si -2.89  1.66  4.72
Si  2.89  2.10 -4.54
Si  0.98 -3.27  4.67
Si  0.97  5.58 -1.23
Si -4.83 -2.83  1.52
Si  4.82  3.05 -1.18
Si  4.81 -0.81 -3.20
Si  4.82 -2.20  2.70
Si  0.95  5.26  2.70
Si -0.96  0.15 -5.96
Si  4.82  1.72 -3.24
Si -0.96  1.28  6.03
Si -0.96  6.22 -0.06
Si  0.97  4.19  4.67
Si -2.88 -3.27  4.67
Si -2.89  5.58 -1.23
Si -0.95 -2.63  5.85
Si -2.90  5.26  2.70
Si  2.89  0.15 -5.96
Si  4.83 -4.41 -1.18
Si  0.97 -5.75 -3.24
Si -4.83 -1.43 -4.38
Si -0.97 -3.40 -5.78
Si -4.82 -4.79  0.12
Si  2.90  1.28  6.03
Si  2.89  6.22 -0.06
Si -4.83  4.64  1.52
Si  6.76 -1.24 -0.06
Si -2.89  4.19  4.67
Si  6.75  0.71  1.36
Si -0.96 -6.75  1.36
Si  4.83  1.66  4.72
Si -4.83  2.10 -4.54
Si  2.91 -2.63  5.85
Si -0.96 -5.36 -4.54
Si -6.75 -1.88 -1.23
Si -0.97  4.06 -5.78
Si -2.89 -5.75 -3.24
Si  0.97 -0.49 -7.13
Si  6.75  2.67  0.12
Si -6.75  0.32  2.66
Si  2.89 -3.40 -5.78
Si -0.96 -0.68  7.26
Si  0.95  6.65 -3.20
Si  2.90 -6.75  1.36
Si  6.75 -2.83  1.52
Si  4.82  5.58 -1.23
Si  4.84 -3.27  4.67
Si -6.75  3.05 -1.18
Si -0.98  6.03 -4.38
Si -6.76 -0.81 -3.20
Si  0.97 -5.80  4.72
Si  2.90 -5.36 -4.54
Si -6.76 -2.20  2.70
Si  4.81  5.26  2.70
Si  2.89  4.06 -5.78
Si -0.96  4.83  5.85
Si -4.82  0.15 -5.96
Si  0.97 -7.14  2.66
Si -6.75  1.72 -3.24
Si -2.89 -0.49 -7.13
Si  0.96 -3.02 -7.08
Si -4.82  1.28  6.03
Si  2.90 -0.68  7.26
Si -4.82  6.22 -0.06
Si  4.83  4.19  4.67
Si -2.91  6.65 -3.20
Si  2.88  6.03 -4.38
Si -2.88 -5.80  4.72
Si -4.81 -2.63  5.85
Si  2.90  4.83  5.85
Si -6.75 -4.41 -1.18
Si -2.88 -7.14  2.66
Si -0.97  3.24  7.42
Si  6.74 -1.43 -4.38
Si  4.83 -5.75 -3.24
Si -2.90 -3.02 -7.08
Si -4.83 -3.40 -5.78
Si  6.76 -4.79  0.12
Si  0.96  7.79  2.66
Si  6.74  4.64  1.52
Si -0.97  8.18  1.36
Si -6.75  1.66  4.72
Si -4.82 -6.75  1.36
Si  6.75  2.10 -4.54
Si  0.96  4.45 -7.08
Si -4.82 -5.36 -4.54
Si -4.83  4.06 -5.78
Si -0.96 -4.22  7.42
Si  2.89  3.24  7.42
Si  4.82 -0.49 -7.13
Si  0.97 -1.07  8.56
Si -0.95 -6.18  6.03
Si -2.90  7.79  2.66
Si -4.82 -0.68  7.26
Si -0.95 -8.70 -0.06
Si -8.68 -1.24 -0.06
Si  2.89  8.18  1.36
Si  4.81  6.65 -3.20
Si -8.68  0.71  1.36
Si -6.74 -3.27  4.67
Si -6.75  5.58 -1.23
Si -2.90  4.45 -7.08
Si -4.84  6.03 -4.38
Si  4.83 -5.80  4.72
Si  0.96 -8.27 -3.20
Si  8.69 -1.88 -1.23
Si -6.76  5.26  2.70
Si -4.82  4.83  5.85
Si  6.75  0.15 -5.96
Si  2.90 -4.22  7.42
Si  4.83 -7.14  2.66
Si  4.82 -3.02 -7.08
Si -8.68  2.67  0.12
Si  8.69  0.32  2.66
Si -2.88 -1.07  8.56
Si  2.90 -6.18  6.03
Si  6.76  1.28  6.03
Si  0.95  0.58 -9.10
Si  2.91 -8.70 -0.06
Si  6.75  6.22 -0.06
Si -6.75  4.19  4.67
Si -8.69 -2.83  1.52
Si  8.68  3.05 -1.18
Si  8.67 -0.81 -3.20
Si  6.76 -2.63  5.85
Si -2.90 -8.27 -3.20
Si  8.68 -2.20  2.70
Si  0.97 -3.59  8.60
Si  8.68  1.72 -3.24
Si -4.83  3.24  7.42
Si -6.75 -5.75 -3.24
Si  0.98 -9.35 -1.23
Si -0.96 -7.31 -5.96
Si  0.96  3.87  8.60
Si  6.75 -3.40 -5.78
Si  4.82  7.79  2.66
Si -2.91  0.58 -9.10
Si -4.83  8.18  1.36
Si  6.76 -6.75  1.36
Si  4.82  4.45 -7.08
Si  0.96  3.11 -9.14
Si -0.97  7.61 -5.96
Si  6.75 -5.36 -4.54
Si -2.89 -3.59  8.60
Si  6.74  4.06 -5.78
Si  0.96  9.18 -3.24
Si -4.82 -4.22  7.42
Si  8.69 -4.41 -1.18
Si -6.75 -0.49 -7.13
Si -8.69 -1.43 -4.38
Si -2.88 -9.35 -1.23
Si  2.90 -7.31 -5.96
Si -2.90  3.87  8.60
Si -4.81 -6.18  6.03
Si  4.83 -1.07  8.56
Si -8.68 -4.79  0.12
Si  6.76 -0.68  7.26
Si -4.81 -8.70 -0.06
Si -0.97 -8.90 -4.38
Si -8.69  4.64  1.52
Si -0.96  6.78  7.26
Si -6.77  6.65 -3.20
Si  0.96  6.97 -7.13
Si  8.69  1.66  4.72
Si -8.69  2.10 -4.54
Si  6.74  6.03 -4.38
Si -6.74 -5.80  4.72
Si  0.97 -9.66  2.70
Si -2.90  3.11 -9.14
Si  2.89  7.61 -5.96
Si  4.82 -8.27 -3.20
Si -2.90  9.18 -3.24
Si  6.76  4.83  5.85
Si  0.96 -4.36 -9.14
Si -6.74 -7.14  2.66
Si -0.97 10.13  0.12
Si -6.75 -3.02 -7.08
Si  4.81  0.58 -9.10
Si  0.96  9.12  4.72
Si -0.98 -0.04 -10.28
Si  2.89 -8.90 -4.38
Si  2.90  6.78  7.26
Si -2.90  6.97 -7.13
Si  8.68  5.58 -1.23
Si  8.70 -3.27  4.67
Si -2.89 -9.66  2.70
Si -0.96 -10.29  1.52
Si  8.67  5.26  2.70
Si  4.83 -3.59  8.60
Si -8.68  0.15 -5.96
Si -2.90 -4.36 -9.14
Si  2.88 10.13  0.12
Si  6.75  3.24  7.42
Si -4.82 -7.31 -5.96
Si  4.82  3.87  8.60
Si  4.84 -9.35 -1.23
Si  0.96 10.52 -1.18
Si -0.97  9.57 -4.54
Si -8.68  1.28  6.03
Si -6.75  7.79  2.66
Si -0.97  8.74  6.03
Si  0.97  0.27 10.62
Si -2.90  9.12  4.72
Si  2.88 -0.04 -10.28
Si -8.68  6.22 -0.06
Si  6.75  8.18  1.36
Si 10.62 -1.24 -0.06
Si  8.69  4.19  4.67
Si 10.61  0.71  1.36
Si  0.97 -7.95 -7.13
Si  0.97  6.39  8.56
Si -6.76  4.45 -7.08
Si -8.67 -2.63  5.85
Si  4.82  3.11 -9.14
Si  2.90 -10.29  1.52
Si -4.83  7.61 -5.96
Si -10.60 -1.88 -1.23
Si  4.82  9.18 -3.24
Si  6.75 -4.22  7.42
Si  8.69 -5.75 -3.24
Si 10.61  2.67  0.12
Si -10.61  0.32  2.66
Si -0.95 -8.14  7.26
Si -6.74 -1.07  8.56
Si  6.76 -6.18  6.03
Si -8.68 -3.40 -5.78
Si -2.90 10.52 -1.18
Si  2.88  9.57 -4.54
Si  0.98  2.79 10.58
Si  2.89  8.74  6.03
Si -2.88  0.27 10.62
Si  6.76 -8.70 -0.06
Si -4.83 -8.90 -4.38
Si -4.82  6.78  7.26
Si -0.97  3.50 -10.44
Si -2.89 -7.95 -7.13
Si -2.89  6.39  8.56
Si  4.82  6.97 -7.13
Si -8.67 -6.75  1.36
Si 10.61 -2.83  1.52
Si -10.61  3.05 -1.18
Si -10.62 -0.81 -3.20
Si  4.83 -9.66  2.70
Si -6.76 -8.27 -3.20
Si -8.68 -5.36 -4.54
Si -10.62 -2.20  2.70
Si -8.69  4.06 -5.78
Si -0.97 -3.96 -10.44
Si  4.82 -4.36 -9.14
Si -4.83 10.13  0.12
Si -10.61  1.72 -3.24
Si  8.68 -0.49 -7.13
Si  2.91 -8.14  7.26
Si -2.88  2.79 10.58
Si -8.68 -0.68  7.26
Si  4.82  9.12  4.72
Si -6.77  0.58 -9.10
Si -4.84 -0.04 -10.28
Si  8.67  6.65 -3.20
Si  2.88  3.50 -10.44
Si  0.95 -6.88 -9.10
Si -8.70  6.03 -4.38
Si -4.82 -10.29  1.52
Si  8.69 -5.80  4.72
Si -6.75 -3.59  8.60
Si -8.68  4.83  5.85
Si  2.89 -3.96 -10.44
Si -10.61 -4.41 -1.18
Si  8.69 -7.14  2.66
Si 10.60 -1.43 -4.38
Si -6.74 -9.35 -1.23
Si  0.98 -4.67 10.58
Si  6.76 -7.31 -5.96
Si -6.76  3.87  8.60
Si  8.68 -3.02 -7.08
Si  4.82 10.52 -1.18
Si -4.83  9.57 -4.54
Si 10.62 -4.79  0.12
Si -4.83  8.74  6.03
Si 10.60  4.64  1.52
Si  4.83  0.27 10.62
Si -0.95 -10.10  5.85
Si  4.83 -7.95 -7.13
Si  4.83  6.39  8.56
Si -10.61  1.66  4.72
Si 10.61  2.10 -4.54
Si  0.98 -10.74  4.67
Si -2.90 -6.88 -9.10
Si -6.76  3.11 -9.14
Si  6.75  7.61 -5.96
Si -6.76  9.18 -3.24
Si -8.69  3.24  7.42
Si -0.97 -2.01 -11.68
Si -2.88 -4.67 10.58
Si -4.81 -8.14  7.26
Si  8.68  7.79  2.66
Si  4.84  2.79 10.58
Si -0.95 -0.11 11.93
Si  0.98 -11.87 -1.18
Si  6.75 -8.90 -4.38
Si -0.97  1.54 -11.86
Si -8.69  8.18  1.36
Si  6.75  6.78  7.26
Si  2.91 -10.10  5.85
Si -4.83  3.50 -10.44
Si -10.60 -3.27  4.67
Si -6.76  6.97 -7.13
Si  8.68  4.45 -7.08
Si -10.61  5.58 -1.23
Si -2.88 -10.74  4.67
Si -6.75 -9.66  2.70
Si  0.98 -8.53  8.56
Si -10.62  5.26  2.70
Si 10.61  0.15 -5.96
Si -4.83 -3.96 -10.44
Si -6.75 -4.36 -9.14
Si  6.74 10.13  0.12
Si -8.68 -4.22  7.42
Si  0.94  8.04 -9.10
Si  2.89 -2.01 -11.68
Si -0.98 12.10  1.52
Si -8.67 -6.18  6.03
Si  8.69 -1.07  8.56
Si 10.62  1.28  6.03
Si -2.88 -11.87 -1.18
Si  2.90 -0.11 11.93
Si -0.95  3.44 11.75
Si -8.67 -8.70 -0.06
Si -0.95 -12.25  0.12
Si  6.74 -0.04 -10.28
Si -6.75  9.12  4.72
Si 10.61  6.22 -0.06
Si  2.89  1.54 -11.86
Si -10.61  4.19  4.67
Si -0.96 -10.86 -5.78
Si  4.81 -6.88 -9.10
Si  6.75 -10.29  1.52
Si 10.62 -2.63  5.85
Si  8.68 -8.27 -3.20
Si -2.88 -8.53  8.56
Si -0.95 -4.03 11.75
Si -10.61 -5.75 -3.24
Si -2.92  8.04 -9.10
Si  2.88 12.10  1.52
Si  4.84 -4.67 10.58
Si 10.61 -3.40 -5.78
Si  6.74  9.57 -4.54
Si -6.76 10.52 -1.18
Si  2.91  3.44 11.75
Si  8.67  0.58 -9.10
Si  6.75  8.74  6.03
Si -6.74  0.27 10.62
Si  0.96 11.65  4.67
Si  2.90 -12.25  0.12
Si -12.54 -1.24 -0.06
Si -4.80 -10.10  5.85
Si -6.75 -7.95 -7.13
Si -12.54  0.71  1.36
Si  2.90 -10.86 -5.78
Si -6.75  6.39  8.56
Si 10.62 -6.75  1.36
Si  4.84 -10.74  4.67
Si  0.97 -10.48 -7.08
Si -0.99  7.42 -10.28
Si 10.61 -5.36 -4.54
Si 10.60  4.06 -5.78
Si  8.68 -3.59  8.60
Si 12.55 -1.88 -1.23
Si  2.91 -4.03 11.75
Si -0.97 -7.50 -10.28
Si -10.61 -0.49 -7.13
Si -4.83 -2.01 -11.68
Si -8.68 -7.31 -5.96
Si  8.68  3.87  8.60
Si  8.70 -9.35 -1.23
Si -12.54  2.67  0.12
Si 12.54  0.32  2.66
Si  6.77 -8.14  7.26
Si -6.74  2.79 10.58
Si -4.81 -0.11 11.93
Si  0.98 -7.19 10.62
Si  4.83 -11.87 -1.18
Si -2.89 11.65  4.67
Si 10.62 -0.68  7.26
Si -4.83  1.54 -11.86
Si  6.74  3.50 -10.44
Si -0.98  5.46 -11.68
Si -0.98 11.53 -5.78
Si -10.63  6.65 -3.20
Si -12.54 -2.83  1.52
Si 10.60  6.03 -4.38
Si 12.53 -0.81 -3.20
Si 12.54  3.05 -1.18
Si -10.60 -5.80  4.72
Si -2.89 -10.48 -7.08
Si  8.67  3.11 -9.14
Si -8.69  7.61 -5.96
Si  2.87  7.42 -10.28
Si 12.54 -2.20  2.70
Si  4.84 -8.53  8.56
Si  8.67  9.18 -3.24
Si  0.95 12.72  2.70
Si 10.62  4.83  5.85
Si  6.75 -3.96 -10.44
Si  2.88 -7.50 -10.28
Si -10.60 -7.14  2.66
Si  4.80  8.04 -9.10
Si 12.54  1.72 -3.24
Si -0.97 10.71  7.42
Si  0.96  0.90 -13.03
Si -10.61 -3.02 -7.08
Si -4.84 12.10  1.52
Si  0.96 -1.62 -12.98
Si  0.96 13.04 -1.23
Si -2.88 -7.19 10.62
Si -4.81  3.44 11.75
Si -4.81 -12.25  0.12
Si  0.97  7.73 10.62
Si -8.69 -8.90 -4.38
Si -8.68  6.78  7.26
Si  2.88  5.46 -11.68
Si  2.88 11.53 -5.78
Si -4.82 -10.86 -5.78
Si  8.68  6.97 -7.13
Si -6.76 -6.88 -9.10
Si  8.69 -9.66  2.70
Si -0.96 -5.92 -11.86
Si -4.81 -4.03 11.75
Si -2.91 12.72  2.70
Si  8.68 -4.36 -9.14
Si  2.88 10.71  7.42
Si 10.61  3.24  7.42
Si 12.55 -4.41 -1.18
Si -8.69 10.13  0.12
Si -0.95 -2.07 13.16
Si -12.55 -1.43 -4.38
Si -6.73 -4.67 10.58
Si -2.90  0.90 -13.03
Si -2.90 -1.62 -12.98
Si -2.90 13.04 -1.23
Si -12.54 -4.79  0.12
Si -10.61  7.79  2.66
Si  4.82 11.65  4.67
Si  8.68  9.12  4.72
Si -2.89  7.73 10.62
Si 10.61  8.18  1.36
Si -12.55  4.64  1.52
Si -8.70 -0.04 -10.28
Si -0.96  1.85 13.32
Si  6.77 -10.10  5.85
Si 12.54  1.66  4.72
Si -12.54  2.10 -4.54
Si -6.73 -10.74  4.67
Si -10.62  4.45 -7.08
Si  4.83 -10.48 -7.08
Si -8.68 -10.29  1.52
Si  2.89 -5.92 -11.86
Si -4.85  7.42 -10.28
Si -4.83 -7.50 -10.28
Si 10.61 -4.22  7.42
Si  6.74 -2.01 -11.68
Si -0.96 -12.82 -4.54
Si  0.97 -13.21 -3.24
Si  2.91 -2.07 13.16
