500
set: 1009.00  0.00  0.00
Si -0.42  1.24 -0.84
Si  0.42 -1.25  0.95
Si -1.29 -1.20 -0.89
Si  1.39  1.28  0.81
Si -0.88  0.01  2.44
Si  2.15 -1.20 -0.84
Si -2.17  1.24  0.82
Si  0.86 -0.01 -2.51
Si -3.14 -1.19  0.77
Si -0.03  2.46  2.48
Si -0.04 -2.52 -2.48
Si  3.22  1.24 -0.80
Si  2.68 -0.03  2.51
Si -2.76 -0.01 -2.45
Si -0.50 -3.58  0.81
Si  0.60  3.66 -0.89
Si  1.84  2.33 -2.48
Si -1.79  2.45 -2.49
Si  1.33 -3.62 -0.80
Si -1.91 -2.40  2.48
Si -1.25  3.66  0.77
Si  1.80 -2.50  2.54
Si -3.98  1.24 -0.80
Si  4.05 -1.19  0.77
Si  0.90 -0.09  4.23
Si -0.97  0.03 -4.23
Si -2.30 -3.61 -0.84
Si  2.30  3.61  0.95
Si  3.13 -3.62  0.82
Si -0.08 -2.44  4.20
Si -3.15  3.66 -0.84
Si  0.06  2.44 -4.27
Si -3.51  2.35  2.54
Si  3.52 -2.41 -2.49
Si  2.74 -0.07 -4.17
Si -2.73  0.02  4.21
Si -3.68 -2.41 -2.49
Si  3.69  2.35  2.54
Si  4.43 -0.01 -2.45
Si  1.74 -2.45 -4.20
Si -4.51 -0.03  2.51
Si  1.81  2.41  4.20
Si -1.82  2.42  4.26
Si  5.02  1.24  0.82
Si -1.82 -2.42 -4.27
Si -5.04 -1.20 -0.84
Si -0.88  4.84 -2.45
Si -4.06 -3.62  0.82
Si  4.04  3.66 -0.84
Si  1.00  4.86  2.44
Si  0.80 -4.88  2.51
Si -1.02 -4.87 -2.51
Si -0.34  1.23  5.82
Si -5.81  1.28  0.81
Si -3.57  2.40 -4.20
Si  2.55 -4.87 -2.45
Si  3.49 -2.44  4.26
Si  0.44 -1.15 -5.90
Si  1.36  1.18 -5.76
Si  3.62  2.40 -4.20
Si -2.63  4.83  2.51
Si -2.77 -4.85  2.44
Si  5.91 -1.20 -0.89
Si -4.45 -0.07 -4.17
Si  2.75  4.84 -2.51
Si  0.27 -6.05 -0.84
Si -1.36 -1.18  5.86
Si  4.46  0.02  4.21
Si  4.89 -3.61 -0.84
Si -3.71 -2.44  4.26
Si -4.89  3.61  0.95
Si -0.29  6.09  0.82
Si  5.29 -2.40  2.48
Si  1.47  6.10 -0.84
Si -5.35  2.33 -2.48
Si -1.47 -6.10  0.95
Si  5.40  2.45 -2.49
Si  2.28 -1.19  5.91
Si -2.20  1.24 -5.94
Si -5.39 -2.50  2.54
Si  2.17 -6.05  0.77
Si -2.09  6.09 -0.80
Si -0.85  4.88  4.21
Si  0.86 -4.93 -4.17
Si  0.92  4.88 -4.23
Si -0.98 -4.95  4.23
Si  3.10  1.23  5.86
Si  6.31  0.01  2.44
Si -3.12 -1.19 -5.89
Si -6.33 -0.01 -2.51
Si -2.57  4.78 -4.17
Si -0.53 -3.67 -5.76
Si -3.17 -6.05 -0.89
Si  2.58 -4.83  4.21
Si -5.86 -3.62 -0.80
Si  0.52  3.67  5.86
Si  6.78  1.24 -0.84
Si  2.79  4.76  4.23
Si -6.78 -1.25  0.95
Si  1.21 -3.62  5.86
Si  3.27  6.13  0.81
Si  4.43 -4.85  2.44
Si  5.94  3.66  0.77
Si -2.85 -4.83 -4.23
Si -4.45  4.84 -2.51
Si -1.23  3.67 -5.89
Si  4.57  4.83  2.51
Si -4.65 -4.87 -2.45
Si -2.23 -3.63  5.82
Si -5.39  2.41  4.20
Si -4.10  1.23  5.86
Si  4.08 -1.19 -5.89
Si  5.37  2.42  4.26
Si  5.37 -2.42 -4.27
Si -5.46 -2.45 -4.20
Si  4.02 -6.05 -0.89
Si -3.92  6.13  0.81
Si  2.33  3.71 -5.90
Si  6.23  0.03 -4.23
Si -6.29 -0.09  4.23
Si -3.03  3.67  5.91
Si -6.60  3.66 -0.89
Si  0.44 -1.15  7.52
Si  3.11 -3.62 -5.94
Si  6.70 -3.58  0.81
Si -0.34  1.23 -7.59
Si  0.09  7.30 -2.49
Si -4.41  4.76  4.23
Si  4.34 -4.83 -4.23
Si -7.61  1.24 -0.84
Si -1.36 -1.18 -7.55
Si  7.61 -1.25  0.95
Si -4.92 -1.19  5.91
Si -0.09 -7.36  2.54
Si -1.62  7.21  2.54
Si  1.63 -7.26 -2.49
Si  4.63  4.78 -4.17
Si  5.00  1.24 -5.94
Si  1.36  1.18  7.66
Si -2.20  1.24  7.48
Si -5.03 -6.05  0.77
Si -4.62 -4.83  4.21
Si  2.28 -1.19 -7.51
Si  1.86  7.31  2.48
Si  7.17  2.46  2.48
Si  7.15 -2.52 -2.48
Si  5.10  6.09 -0.80
Si -7.22  2.46  2.48
Si -1.93 -7.38 -2.48
Si -7.24 -2.52 -2.48
Si -4.08 -3.62 -5.94
Si  4.16  3.67  5.91
Si -3.12 -1.19  7.53
Si -6.19  4.86  2.44
Si  6.17 -4.87 -2.51
Si  3.10  1.23 -7.55
Si -5.84  1.18 -5.76
Si  6.32  4.84 -2.45
Si  5.83 -1.18  5.86
Si -3.47  7.19 -2.48
Si  3.40 -7.26  2.48
Si -5.73  6.10 -0.84
Si  0.52  3.67 -7.55
Si  5.73 -6.10  0.95
Si  0.07  7.27  4.26
Si -0.15 -7.31 -4.20
Si -6.40 -4.88  2.51
Si -8.08  0.01  2.44
Si  8.06 -0.01 -2.51
Si  0.39 -6.04  5.91
Si -1.23  3.67  7.53
Si  1.21 -3.63 -7.55
Si  4.97 -3.63  5.82
Si  3.73  7.19 -2.48
Si -4.87  3.71 -5.90
Si -0.53 -3.67  7.66
Si -0.31  6.09 -5.94
Si -7.69 -3.58  0.81
Si -0.55 -8.47 -0.80
Si -1.44 -6.00 -5.90
Si -1.69  7.26 -4.20
Si -3.80 -7.26  2.48
Si  1.54  6.08  5.82
Si  0.63  8.52  0.77
Si  1.60 -7.30  4.26
Si  1.25 -8.47  0.82
Si -8.48 -1.20 -0.89
Si  7.12 -2.44  4.20
Si  4.08 -1.19  7.53
Si -1.96 -7.30  4.20
Si -1.27  8.51 -0.84
Si  7.79  3.66 -0.89
Si -7.13  2.44 -4.27
Si  1.95  7.29 -4.27
Si -4.10  1.23 -7.55
Si  2.33  3.71  7.52
Si -2.23 -3.63 -7.59
Si  8.58  1.28  0.81
Si  2.19 -6.04 -5.89
Si -2.21  6.09  5.86
Si -7.27 -2.44  4.20
Si  7.26  2.44 -4.27
Si -2.38 -8.43  0.81
Si  3.11 -3.62  7.48
Si -3.03  3.67 -7.51
Si  2.48  8.51 -0.89
Si  3.25  6.04 -5.76
Si  6.21 -4.95  4.23
Si -6.28  4.88 -4.23
Si -3.25 -6.04  5.86
Si  3.00 -8.47 -0.84
Si -3.01  8.46  0.95
Si -6.75 -1.15 -5.90
Si  6.35  4.88  4.21
Si -6.34 -4.93 -4.17
Si -4.92 -1.19 -7.51
Si  6.85  1.23  5.82
Si  5.00  1.24  7.48
Si -3.50  7.27  4.20
Si -5.98 -3.62  5.86
Si  3.49 -7.28 -4.27
Si  8.10 -0.09  4.23
Si  5.96  3.67 -5.89
Si  3.69  7.27  4.20
Si -8.16  0.03 -4.23
Si -3.71 -7.28 -4.27
Si -3.95  6.04 -5.76
Si  0.90 -0.09 -9.19
Si -0.97  0.03  9.18
Si -6.93 -6.05 -0.84
Si -8.45  3.66  0.77
Si  6.91  6.09  0.82
Si -4.08 -3.62  7.48
Si  3.95 -6.04  5.86
Si  8.53 -3.62 -0.80
Si  4.16  3.67 -7.51
Si -5.33  7.31  2.48
Si  5.27 -7.38 -2.48
Si  5.57  7.21  2.54
Si  0.06  2.44  9.14
Si  9.35 -1.20 -0.84
Si -5.56 -7.26 -2.49
Si -4.19 -8.47 -0.84
Si -9.37  1.24  0.82
Si  4.19  8.46  0.95
Si -0.08 -2.44 -9.22
Si  6.67 -3.67 -5.76
Si -2.73  0.02 -9.20
Si -7.54  1.23  5.82
Si -6.67  3.67  5.86
Si  5.83 -1.18 -7.55
Si -1.82 -2.42  9.14
Si -1.82  2.42 -9.15
Si -8.99  2.45 -2.49
Si  2.74 -0.07  9.25
Si  7.46 -6.05 -0.84
Si  0.39 -6.05 -7.51
Si -0.31  6.09  7.48
Si  9.04  2.33 -2.48
Si  9.00 -2.50  2.54
Si -7.48  6.09  0.82
Si -4.87  3.71  7.52
Si  7.99 -4.88  2.51
Si  1.74 -2.45  9.22
Si  1.81  2.41 -9.22
Si -5.83  1.18  7.66
Si  7.64 -1.15 -5.90
Si -8.07  4.84 -2.45
Si -1.44 -6.00  7.52
Si -9.11 -2.40  2.48
Si  4.81 -8.43  0.81
Si -4.71  8.51 -0.89
Si  4.97 -3.63 -7.59
Si -5.00 -6.04 -5.89
Si  4.98  6.09  5.86
Si  8.20  4.86  2.44
Si  1.54  6.08 -7.59
Si -8.22 -4.87 -2.51
Si  2.19 -6.04  7.53
Si  5.23 -7.30  4.20
Si -5.25  7.29 -4.27
Si -2.21  6.09 -7.55
Si  5.51  7.26 -4.20
Si -0.74  9.69  2.51
Si  0.66 -9.72 -2.45
Si  1.01  9.70 -2.45
Si  3.49 -2.44 -9.15
Si -1.09 -9.74  2.51
Si -5.59 -7.30  4.26
Si -5.65  6.08  5.82
Si -6.75 -1.15  7.52
Si  8.93 -2.45 -4.20
Si -3.57  2.40  9.22
Si -3.71 -2.44 -9.15
Si  9.88 -0.03  2.51
Si  3.62  2.40  9.22
Si  5.75 -6.00 -5.90
Si -9.50 -3.61 -0.84
Si -3.25 -6.04 -7.55
Si  9.50  3.61  0.95
Si  9.00  2.41  4.20
Si  4.46  0.02 -9.20
Si -9.96 -0.01 -2.45
Si -9.02  2.42  4.26
Si -4.45 -0.07  9.25
Si -9.02 -2.42 -4.27
Si  3.25  6.04  7.66
Si  5.96  3.67  7.53
Si -5.98 -3.63 -7.55
Si  6.85  1.23 -7.59
Si -8.04  4.88  4.21
Si -7.72 -3.67 -5.76
Si  8.05 -4.93 -4.17
Si  2.54 -9.70  2.44
Si -0.67 -8.48  5.86
Si -2.56  9.70 -2.51
Si  7.72  3.67  5.86
Si  8.11  4.88 -4.23
Si  0.65  8.52 -5.89
Si  8.55  1.18 -5.76
Si -5.95 -8.47  0.82
Si  5.93  8.51 -0.84
Si  1.23 -8.48 -5.94
Si  2.89  9.72  2.44
Si -1.15  8.52  5.91
Si -10.34 -1.19  0.77
Si -8.56 -1.18  5.86
Si  0.92  4.88  9.18
Si  3.95 -6.04 -7.55
Si -0.85  4.88 -9.20
Si -8.18 -4.95  4.23
Si -2.91 -9.73 -2.51
Si -0.98 -4.95 -9.19
Si -7.10  7.30 -2.49
Si  0.86 -4.93  9.25
Si 10.41  1.24 -0.80
Si -3.95  6.04  7.66
Si -0.68  9.64 -4.17
Si  7.11 -7.36  2.54
Si -2.41 -8.53 -5.76
Si  0.69 -9.69  4.21
Si  7.29  7.30 -2.49
Si  2.41  8.53  5.86
Si  8.66  6.10 -0.84
Si -8.66 -6.10  0.95
Si  1.04  9.73  4.21
Si -7.28 -7.36  2.54
Si -1.03 -9.79 -4.17
Si  2.58 -4.83 -9.20
Si  2.79  4.76 -9.19
Si -2.57  4.78  9.25
Si -6.67  3.67 -7.55
Si  3.08 -8.48  5.82
Si -2.85 -4.83  9.18
Si -7.54  1.23 -7.59
Si  7.64 -1.15  7.52
Si  9.94 -0.07 -4.17
Si -6.56  8.52  0.77
Si -9.93  0.02  4.21
Si  6.64 -8.47 -0.80
Si  6.67 -3.67  7.66
Si -2.52  9.62  4.23
Si -2.98  8.56 -5.90
Si  2.46 -9.68 -4.23
Si -6.80 -6.04  5.91
Si  8.41 -3.62  5.86
Si -5.00 -6.04  7.53
Si  5.37 -2.42  9.14
Si  5.37  2.42 -9.15
Si  4.98  6.09 -7.55
Si -4.30  9.72  2.44
Si -8.43  3.67 -5.89
Si  4.29 -9.73 -2.51
Si  0.28 -10.90  0.77
Si  0.86 -0.01 10.91
Si  6.88  6.09 -5.94
Si -5.39  2.41 -9.22
Si 10.33 -3.62  0.82
Si -0.20 10.95 -0.80
Si  2.80  9.74 -4.23
Si  7.05 -7.31 -4.20
Si -5.46 -2.45  9.22
Si -10.35  3.66 -0.84
Si -0.88  0.01 -10.98
Si -4.65 -9.70  2.44
Si  4.64  9.70 -2.51
Si -7.13  7.27  4.26
Si -2.87 -9.80  4.23
Si -1.62 -10.91 -0.84
Si -4.11 -8.48  5.82
Si  1.60 10.95  0.82
Si  6.23  0.03  9.18
Si  7.26  7.27  4.26
Si -9.29  6.09 -0.80
Si -6.29 -0.09 -9.19
Si  2.14 -10.91 -0.89
Si  9.74 -4.87 -2.45
Si  9.37 -6.05  0.77
Si -7.34 -7.31 -4.20
Si -9.39  1.24 -5.94
Si -2.04 10.99  0.81
Si  5.75 -6.00  7.52
Si -0.03  2.46 -10.94
Si  4.21  8.56 -5.90
Si -0.04 -2.52 10.94
Si  9.47 -1.19  5.91
Si -9.82  4.83  2.51
Si  2.68 -0.03 -10.91
Si  4.34 -4.83  9.18
Si -4.41  4.76 -9.19
Si -10.70  2.35  2.54
Si -5.65  6.08 -7.59
Si 10.71 -2.41 -2.49
Si -11.17  1.24 -0.80
Si  1.80 -2.50 -10.88
Si -2.76 -0.01 10.97
Si  1.84  2.33 10.94
Si -1.79  2.45 10.92
Si 11.25 -1.19  0.77
Si  9.95  4.84 -2.51
Si -9.96 -4.85  2.44
Si -7.51  6.09 -5.94
Si  4.78 -8.53 -5.76
Si  7.59 -6.04  5.91
Si -1.91 -2.40 -10.94
Si  1.23 -8.47  7.48
Si -4.62 -4.83 -9.20
Si -0.67 -8.48 -7.55
Si  0.65  8.52  7.53
Si  4.63  4.78  9.25
Si -4.79  8.53  5.86
Si  7.72  3.67 -7.55
Si -10.87 -2.41 -2.49
Si -1.15  8.52 -7.51
Si 10.88  2.35  2.54
Si -8.56 -1.18 -7.55
Si -7.72 -3.67  7.66
Si  3.35 10.96 -0.84
Si -4.39  9.74 -4.23
Si  4.67  9.62  4.23
Si -3.35 -10.96  0.95
Si -7.75 -8.47 -0.80
Si  4.32 -9.80  4.23
Si  8.55  1.18  7.66
Si -4.74 -9.68 -4.23
Si  7.83  8.52  0.77
Si -3.84 10.96 -0.84
Si -9.76  4.78 -4.17
Si  2.41  8.53 -7.55
Si  3.84 -10.96  0.95
Si -9.42 -3.63  5.82
Si -3.51  2.35 -10.88
Si -8.82  7.21  2.54
Si  9.77 -4.83  4.21
Si  0.07  7.27 -9.15
Si  8.83 -7.26 -2.49
Si -2.41 -8.53  7.66
Si  3.69  2.35 -10.88
Si  3.52 -2.41 10.92
Si 10.68 -2.44  4.26
Si -6.19  9.70 -2.45
Si  6.11 -9.74  2.51
Si -0.15 -7.31  9.22
Si -3.68 -2.41 10.92
Si -2.98  8.56  7.52
Si  3.08 -8.48 -7.59
Si -6.80 -6.05 -7.51
Si  9.52  3.71 -5.90
Si -10.77  2.40 -4.20
Si -4.51 -0.03 -10.91
Si  1.60 -7.30 -9.15
Si  4.43 -0.01 10.97
Si  9.98  4.76  4.23
Si 11.23  3.66 -0.84
Si -7.13  2.44  9.14
Si  6.88  6.09  7.48
Si -11.26 -3.62  0.82
Si 10.82  2.40 -4.20
Si -1.69  7.26  9.22
Si  1.95  7.29  9.14
Si  8.41 -3.63 -7.55
Si -8.43  3.67  7.53
Si 11.63 -0.01 -2.45
Si  7.12 -2.44 -9.22
Si  9.06  7.31  2.48
Si  6.45  9.69  2.51
Si 10.29  1.23  5.86
Si -1.96 -7.30 -9.22
Si -10.05 -4.83 -4.23
Si  7.26  2.44  9.14
Si -10.31 -1.19 -5.89
Si -5.97 -8.48 -5.94
Si -10.90 -2.44  4.26
Si -6.54 -9.72 -2.45
Si -11.71 -0.03  2.51
Si  0.80 -4.88 -10.91
Si -1.02 -4.87 10.91
Si  8.44 -8.47  0.82
Si -9.12 -7.38 -2.48
Si -7.27 -2.44 -9.22
