500
set: 342.00  0.00  0.00
Si -0.01 -0.01  0.06
Si  1.89  1.04  0.73
Si  0.02  0.06 -2.29
Si -1.90  1.08  0.71
Si  0.05 -2.19  0.81
Si -3.70 -0.08 -0.02
Si -1.77 -3.27  0.04
Si  1.88 -3.23 -0.07
Si  1.90  1.11  3.03
Si  1.85 -1.00 -3.10
Si -0.07  2.28 -2.99
Si -0.07 -2.06  3.14
Si -1.90  1.17  3.03
Si -1.85 -1.06 -3.10
Si -1.88  3.27 -0.07
Si  1.98  3.23  0.04
Si  3.81 -0.08 -0.02
Si  0.06  4.22  0.77
Si  1.74 -3.15 -2.39
Si -1.85 -3.22 -2.24
Si -2.02 -0.99  3.75
Si  3.73 -0.06 -2.28
Si -0.02  2.11  3.85
Si  1.90  3.28 -2.24
Si -3.78 -0.06 -2.28
Si -3.70 -2.29  0.77
Si  1.90 -1.05  3.90
Si  3.81 -2.29  0.77
Si -2.02  3.35 -2.39
Si  3.70  2.11 -3.05
Si -0.06  4.28  3.08
Si  3.70 -2.23  3.08
Si -3.81  2.11 -3.05
Si -0.06 -4.39 -3.05
Si -3.81 -2.23  3.08
Si  0.05  2.15 -5.32
Si -3.70  4.32  0.81
Si  0.02 -4.28  3.84
Si  5.61  1.08  0.71
Si -5.62  1.04  0.73
Si  1.86 -5.42  0.71
Si -3.74  2.23  3.84
Si  3.81  4.32  0.81
Si -1.87 -5.46  0.73
Si -1.87 -1.13 -5.40
Si  3.77  2.23  3.84
Si  1.86 -1.09 -5.42
Si  3.68 -4.23 -2.99
Si -5.53  3.23  0.04
Si  1.85 -5.34  3.03
Si  0.05  6.42 -0.02
Si -1.77  1.06 -6.09
Si -3.83 -4.23 -2.99
Si -1.88 -1.07  6.06
Si  0.05  2.09  6.11
Si -1.85 -5.40  3.03
Si -5.61  1.11  3.03
Si  5.61  1.17  3.03
Si -5.63 -3.23 -0.07
Si  5.63  3.27 -0.07
Si -5.66 -1.00 -3.10
Si  5.66 -1.06 -3.10
Si  1.90  5.44 -3.10
Si  0.05 -2.25 -6.15
Si  1.88  1.10 -6.20
Si  3.68  4.45  3.14
Si  1.98 -1.10  6.17
Si  0.05 -6.58 -0.02
Si -1.90  5.50 -3.10
Si  5.74 -3.27  0.04
Si -3.83  4.45  3.14
Si  5.49 -0.99  3.75
Si -3.70  2.05 -5.36
Si -0.02  6.44 -2.28
Si  5.49  3.35 -2.39
Si -5.61  3.28 -2.24
Si  5.66 -3.22 -2.24
Si  3.81  2.05 -5.36
Si  1.74  5.52  3.75
Si  0.06 -0.12  6.91
Si -5.61 -1.05  3.90
Si  3.73 -4.39  3.85
Si -0.02 -6.56 -2.28
Si -1.85  5.45  3.90
Si -3.78 -4.39  3.85
Si  0.06 -4.45 -5.36
Si -5.77 -3.15 -2.39
Si -0.01  4.33 -6.07
Si  3.75 -2.18 -6.07
Si -3.76 -2.18 -6.07
Si  3.75  6.49  0.06
Si  7.50 -0.01  0.06
Si -3.76  6.49  0.06
Si  3.75 -6.51  0.06
Si -7.52 -0.01  0.06
Si -3.76 -6.51  0.06
Si  3.75  2.16  6.19
Si -3.76  2.16  6.19
Si -0.01 -4.34  6.19
Si -3.74 -6.44 -2.29
Si  1.86  3.25  6.84
Si -1.87  3.21  6.87
Si -1.87  7.54  0.73
Si  3.77 -6.44 -2.29
Si -3.70 -4.36 -5.32
Si -1.90 -3.25  6.84
Si -7.46 -2.19  0.81
Si -7.49  0.06 -2.29
Si  1.86  7.58  0.71
Si  1.89 -3.30  6.87
Si  1.89  5.38 -5.40
Si  3.81 -4.36 -5.32
Si -3.70 -0.02  6.94
Si -5.65 -5.42  0.71
Si  7.53  0.06 -2.29
Si  5.64 -5.46  0.73
Si  5.64 -1.13 -5.40
Si -1.90  5.42 -5.42
Si -3.74  6.56 -2.29
Si -5.65 -1.09 -5.42
Si  3.77  6.56 -2.29
Si  7.56 -2.19  0.81
Si  3.81 -0.02  6.94
Si  7.44  2.28 -2.99
Si  7.44 -2.06  3.14
Si -1.90 -7.51 -3.10
Si  5.63 -1.07  6.06
Si -5.66 -5.34  3.03
Si -3.70  4.25 -6.15
Si  1.88  5.44  6.06
Si -5.53 -1.10  6.17
Si  5.66 -5.40  3.03
Si -1.77  5.40  6.17
Si  3.81  4.25 -6.15
Si  1.90 -7.57 -3.10
Si -1.85  7.61  3.03
Si -3.70 -4.42  6.11
Si  1.98 -5.44 -6.09
Si -5.61  5.44 -3.10
Si  5.74  1.06 -6.09
Si -1.88 -5.40 -6.20
Si  5.61  5.50 -3.10
Si  3.81 -4.42  6.11
Si -5.63  1.10 -6.20
Si  1.85  7.67  3.03
Si -7.58  2.28 -2.99
Si -7.58 -2.06  3.14
Si  1.74 -7.49  3.75
Si -7.45  4.22  0.77
Si -1.85  1.11 -8.37
Si  7.49  2.11  3.85
Si  7.57  4.22  0.77
Si -0.02 -2.23 -8.41
Si -1.85 -7.56  3.90
Si -7.53  2.11  3.85
Si  5.66  5.45  3.90
Si  1.74  1.18 -8.52
Si -5.78  5.52  3.75
Si  0.06 -8.79  0.77
Si  7.45  4.28  3.08
Si -0.06  8.61 -3.05
Si  7.45 -4.39 -3.05
Si -0.06 -0.06 -9.18
Si -0.06 -0.06  9.22
Si -7.57  4.28  3.08
Si -0.06 -8.73  3.08
Si -7.57 -4.39 -3.05
Si -7.46  2.15 -5.32
Si  5.61 -3.25  6.84
Si -7.49 -4.28  3.84
Si  5.64  3.21  6.87
Si  5.64  7.54  0.73
Si -5.65  3.25  6.84
Si -3.74 -2.11 -8.43
Si -5.62 -3.30  6.87
Si -5.62  5.38 -5.40
Si  3.77 -2.11 -8.43
Si  7.53 -4.28  3.84
Si -3.70 -8.69  0.81
Si  9.40  1.04  0.73
Si -5.65  7.58  0.71
Si  7.56  2.15 -5.32
Si -9.41  1.08  0.71
Si  5.61  5.42 -5.42
Si  0.05  6.48  6.94
Si  0.02  4.40 -8.43
Si -1.90 -7.59 -5.42
Si  3.81 -8.69  0.81
Si  0.05 -6.52  6.94
Si  1.89 -7.63 -5.40
Si  0.02  8.73  3.84
Si  3.68  0.11 -9.12
Si  3.68 -8.56  3.14
Si -7.46  6.42 -0.02
Si -9.29 -3.27  0.04
Si -5.53 -5.44 -6.09
Si -7.46  2.09  6.11
Si  5.61 -7.51 -3.10
Si -1.90 -3.17  9.16
Si  1.88 -7.57  6.06
Si -3.83  0.11 -9.12
Si -3.83 -8.56  3.14
Si -1.77  9.73  0.04
Si  1.90 -3.23  9.16
Si -1.85  3.27  9.16
Si -5.63  5.44  6.06
Si  1.98  7.57 -6.09
Si -5.61 -7.57 -3.10
Si  9.36 -1.00 -3.10
Si -1.88 -9.74 -0.07
Si -9.36 -1.06 -3.10
Si  7.56  6.42 -0.02
Si  1.85  3.33  9.16
Si -7.46 -2.25 -6.15
Si  9.39 -3.23 -0.07
Si -9.39  3.27 -0.07
Si  7.56  2.09  6.11
Si -7.46 -6.58 -0.02
Si -1.90 -3.17 -9.24
Si  9.41  1.11  3.03
Si  1.88  9.77 -0.07
Si -9.41  1.17  3.03
Si  5.66  7.61  3.03
Si -1.77 -7.61  6.17
Si  5.63 -5.40 -6.20
Si  1.90 -3.23 -9.24
Si -1.85  3.27 -9.24
Si  1.98 -9.78  0.04
Si  3.68  8.78 -2.99
Si  3.68  0.11  9.28
Si -1.88  7.61 -6.20
Si  1.85  3.33 -9.24
Si -5.66  7.67  3.03
Si  7.56 -2.25 -6.15
Si  5.74  5.40  6.17
Si  9.49  3.23  0.04
Si  7.56 -6.58 -0.02
Si -3.83  8.78 -2.99
Si -3.83  0.11  9.28
Si  9.24 -3.15 -2.39
Si  0.06  8.55 -5.36
Si  1.74  1.18  9.88
Si -3.70  6.38  6.91
Si  1.90 -5.39 -8.37
Si  7.49  6.44 -2.28
Si  3.73  8.61  3.85
Si  3.73  4.28 -8.41
Si  3.81  6.38  6.91
Si -9.36 -3.22 -2.24
Si -2.02 -9.66 -2.39
Si  1.90 -9.73 -2.24
Si -3.78  8.61  3.85
Si  5.66  1.11 -8.37
Si -7.45 -0.12  6.91
Si -3.78  4.28 -8.41
Si -7.53  6.44 -2.28
Si -5.77 -7.49  3.75
Si -7.45 -4.45 -5.36
Si -1.85  9.78 -2.24
Si  5.66 -7.56  3.90
Si  7.49 -6.56 -2.28
Si  9.41  3.28 -2.24
Si -0.02 -2.23  9.98
Si  9.41 -1.05  3.90
Si  7.57 -0.12  6.91
Si -2.02 -5.32 -8.52
Si -7.53 -6.56 -2.28
Si -1.85  1.11 10.03
Si -3.70 -6.62  6.91
Si  7.57 -4.45 -5.36
Si  1.74  9.85 -2.39
Si -9.53 -0.99  3.75
Si  3.81 -6.62  6.91
Si -5.77  1.18 -8.52
Si -9.53  3.35 -2.39
Si  7.50  4.33 -6.07
Si -7.52  4.33 -6.07
Si -0.01 -8.68 -6.07
Si -0.01  8.66  6.19
Si  7.50 -4.34  6.19
Si -7.52 -4.34  6.19
Si -3.70  8.65 -5.32
Si  9.37 -5.42  0.71
Si  3.81  8.65 -5.32
Si  0.05 10.82  0.81
Si -3.74 -2.11  9.97
Si  3.77 -2.11  9.97
Si  9.37 -1.09 -5.42
Si -9.38 -5.46  0.73
Si -9.38 -1.13 -5.40
Si  5.61 -7.59 -5.42
Si  0.02  4.40  9.97
Si -5.62 -7.63 -5.40
Si -0.07 -6.39 -9.12
Si -0.07 -10.73 -2.99
Si -9.29  1.06 -6.09
Si -3.70  8.59  6.11
Si -5.53  7.57 -6.09
Si  9.36 -5.34  3.03
Si  5.61 -3.17  9.16
Si  3.81  8.59  6.11
Si -11.21 -0.08 -0.02
Si -5.61 -3.23  9.16
Si -5.63 -7.57  6.06
Si -9.36 -5.40  3.03
Si -9.39 -1.07  6.06
Si -5.53 -9.78  0.04
Si  5.63 -9.74 -0.07
Si  5.66  3.27  9.16
Si  5.61 -3.17 -9.24
Si -0.07  6.61 -9.12
Si -0.07 -6.39  9.28
Si -5.66  3.33  9.16
Si -5.61 -3.23 -9.24
Si -5.63  9.77 -0.07
Si  5.74  9.73  0.04
Si  9.39  1.10 -6.20
Si  9.41  5.44 -3.10
Si  5.63  7.61 -6.20
Si  5.66  3.27 -9.24
Si 11.32 -0.08 -0.02
Si -3.70 -8.75 -6.15
Si -5.66  3.33 -9.24
Si -9.41  5.50 -3.10
Si  5.74 -7.61  6.17
Si  3.81 -8.75 -6.15
Si  5.49 -9.66 -2.39
Si -3.70 10.72  0.77
Si  9.49 -1.10  6.17
Si -0.07 10.95  3.14
Si -0.07  6.61  9.28
Si  9.24  5.52  3.75
Si -2.02 -5.32  9.88
Si  3.81 10.72  0.77
Si -5.61 -5.39 -8.37
Si  5.49 -5.32 -8.52
Si -5.61 -9.73 -2.24
Si -11.21 -2.29  0.77
Si 11.24 -0.06 -2.28
Si  1.90  7.62 -8.37
Si  7.49 -2.23 -8.41
Si  3.73  4.28  9.98
Si  0.06 -0.12 -11.49
Si -3.78  4.28  9.98
Si -5.78  1.18  9.88
Si -7.53 -2.23 -8.41
Si -9.36  5.45  3.90
Si -11.29 -0.06 -2.28
Si  5.66  9.78 -2.24
Si  1.90 -5.39 10.03
Si -7.45 -8.79  0.77
Si -0.02 -10.90  3.85
Si  5.66  1.11 10.03
Si 11.32 -2.29  0.77
Si  7.57 -8.79  0.77
Si -2.02  7.68 -8.52
Si -5.78  9.85 -2.39
Si  7.45  8.61 -3.05
Si 11.21  2.11 -3.05
Si  3.70 10.78  3.08
Si  3.70  6.45 -9.18
Si  7.45 -0.06 -9.18
Si 11.21 -2.23  3.08
Si  3.70  6.45  9.22
Si -3.81 10.78  3.08
Si -3.81  6.45 -9.18
Si  7.45 -0.06  9.22
Si -7.57  8.61 -3.05
Si -3.81  6.45  9.22
Si  3.70 -6.56 -9.18
Si  7.45 -8.73  3.08
Si -7.57 -0.06 -9.18
Si  3.70 -6.56  9.22
Si  3.70 -10.90 -3.05
Si -3.81 -6.56 -9.18
Si -11.32  2.11 -3.05
Si -7.57 -0.06  9.22
Si -3.81 -6.56  9.22
Si -3.81 -10.90 -3.05
Si -11.32 -2.23  3.08
Si -7.57 -8.73  3.08
Si -3.74 -10.78  3.84
Si -3.70 -0.02 -11.46
Si -11.21  4.32  0.81
Si  1.89  9.71  6.87
Si  9.37  3.25  6.84
Si  0.02 -8.61 -8.43
Si  3.77 -10.78  3.84
Si -9.38  3.21  6.87
Si -9.38  7.54  0.73
Si  1.86 -9.76  6.84
Si -1.90  9.75  6.84
Si  3.81 -0.02 -11.46
Si  9.37  7.58  0.71
Si -7.46  6.48  6.94
Si -9.41 -3.25  6.84
Si -11.25  2.23  3.84
Si  0.05 -10.86 -5.32
Si  9.40 -3.30  6.87
Si -7.46 -6.52  6.94
Si -1.90 -11.93  0.71
Si  9.40  5.38 -5.40
Si -7.49  4.40 -8.43
Si -1.87 -9.80  6.87
Si -1.87  3.21 -11.53
Si  7.53  4.40 -8.43
Si 11.28  2.23  3.84
Si -7.49  8.73  3.84
Si -9.41  5.42 -5.42
Si  1.89 -11.97  0.73
Si 11.32  4.32  0.81
Si  1.89 -3.30 -11.53
Si  7.56  6.48  6.94
Si  1.86  3.25 -11.55
Si -1.90 -3.26 -11.55
Si  7.53  8.73  3.84
Si  7.56 -6.52  6.94
Si 11.19 -4.23 -2.99
Si -1.90 -11.84  3.03
Si  1.88  1.10 12.20
Si -9.29  5.40  6.17
Si  0.05 10.76 -6.15
Si  1.90 -11.90  3.03
Si  9.39  5.44  6.06
Si  1.98 -1.11 -12.22
Si -9.41 -7.51 -3.10
Si -9.36  7.61  3.03
Si 11.19  4.45  3.14
Si  0.05 -2.25 12.24
Si  0.05  2.09 -12.28
Si -11.34 -4.23 -2.99
Si  9.41 -7.57 -3.10
Si  9.24 -7.49  3.75
Si  9.36  7.67  3.03
Si -1.77  1.06 12.31
Si -9.39 -5.40 -6.20
Si -1.85 11.95 -3.10
Si  5.49 -5.32  9.88
Si  0.05 -10.92  6.11
Si -1.88 -1.07 -12.33
Si  9.49 -5.44 -6.09
Si  1.85 12.01 -3.10
Si -7.45  8.55 -5.36
Si -11.34  4.45  3.14
Si -11.21  2.05 -5.36
Si -9.36  1.11 -8.37
Si  7.57  8.55 -5.36
Si  9.24  1.18 -8.52
Si -5.61  7.62 -8.37
Si -9.36 -7.56  3.90
Si 11.24 -4.39  3.85
Si -2.02  7.68  9.88
Si  7.49 -2.23  9.98
Si  3.73 -8.73 -8.41
Si 11.32  2.05 -5.36
Si -5.61 -5.39 10.03
Si -3.77 -8.73 -8.41
Si -7.53 -2.23  9.98
Si -11.29 -4.39  3.85
Si  1.90 11.95  3.90
Si  5.49  7.68 -8.52
Si  1.90  7.62 10.03
Si -3.70 -10.96 -5.36
Si -2.02 12.02  3.75
Si  3.81 -10.96 -5.36
Si  3.75  2.16 -12.20
Si -3.76  2.16 -12.20
Si -0.01 -4.34 -12.20
Si  3.75 10.83 -6.07
Si -3.76 10.83 -6.07
Si 11.26 -2.18 -6.07
Si  7.50 -8.68 -6.07
Si -11.27 -2.18 -6.07
Si -7.52 -8.68 -6.07
Si 11.26  6.49  0.06
Si -0.01 13.00  0.06
Si 11.26 -6.51  0.06
Si -11.27  6.49  0.06
Si -0.01 -13.02  0.06
Si -11.27 -6.51  0.06
Si  7.50  8.66  6.19
Si 11.26  2.16  6.19
Si -7.52  8.66  6.19
Si -11.27  2.16  6.19
Si  3.75 -10.85  6.19
Si -3.76 -10.85  6.19
Si -0.01  4.33 12.32
Si  3.75 -2.18 12.32
Si -3.76 -2.18 12.32
Si  0.02 -12.95 -2.29
Si  1.86 -1.09 12.98
Si -11.21 -4.36 -5.32
Si -5.62  9.71  6.87
Si -11.25 -6.44 -2.29
Si  0.05  6.48 -11.46
Si -7.46 10.82  0.81
Si  5.61  9.75  6.84
Si  0.02 -8.61  9.97
Si -1.87 -1.13 13.00
Si -1.87 11.88 -5.40
