500
set: 914.00  0.00  0.00
Si  0.44 -1.12  0.81
Si -0.41  1.19 -0.81
Si -1.35 -1.17 -0.81
Si  1.36  1.18  0.84
Si  0.87 -0.07 -2.46
Si -2.17  1.19  0.84
Si -0.87  0.01  2.50
Si  2.23 -1.20 -0.85
Si  3.05  1.12 -0.85
Si -0.00 -2.30 -2.46
Si  0.01  2.36  2.42
Si -3.16 -1.19  0.80
Si -2.61 -0.02 -2.47
Si  2.63  0.01  2.46
Si  0.47  3.51 -0.78
Si -0.52 -3.49  0.86
Si  1.22 -3.48 -0.81
Si -1.83 -2.29  2.43
Si -1.76  2.32 -2.50
Si -1.26  3.55  0.83
Si  1.75 -2.37  2.54
Si  1.79  2.40 -2.50
Si -3.88  1.21 -0.85
Si  0.85 -0.02  4.07
Si  3.94 -1.16  0.81
Si -0.88 -0.05 -4.11
Si -2.25 -3.55 -0.78
Si  2.20  3.57  0.86
Si  3.02 -3.52  0.80
Si  0.04  2.38 -4.07
Si -3.06  3.50 -0.85
Si -0.04 -2.39  4.07
Si  2.65  0.06 -4.04
Si -2.63  0.03  4.08
Si -3.47  2.36  2.45
Si  3.51  2.36  2.43
Si -3.50 -2.36 -2.47
Si  3.50 -2.35 -2.51
Si -4.37  0.00  2.41
Si -1.80 -2.33 -4.06
Si  1.80  2.32  4.08
Si -1.75  2.37  4.10
Si  1.74 -2.42 -4.09
Si  4.45 -0.00 -2.44
Si  4.88  1.18  0.82
Si -4.89 -1.26 -0.79
Si  0.79 -4.70  2.43
Si -0.78  4.70 -2.47
Si -3.98 -3.51  0.83
Si -0.93 -4.66 -2.50
Si  3.94  3.58 -0.81
Si  0.89  4.76  2.43
Si  5.63 -1.26 -0.79
Si -5.64  1.18  0.82
Si  2.52 -4.69 -2.41
Si -3.48  2.35 -4.11
Si  0.45 -1.21 -5.74
Si -2.54  4.69  2.49
Si -0.44  1.20  5.76
Si  3.50  2.35 -4.13
Si -3.50 -2.38  4.12
Si  3.51 -2.38  4.15
Si -0.44  5.87  0.80
Si -2.71 -4.70  2.42
Si -4.36 -0.06 -4.10
Si  4.39 -0.01  4.08
Si  4.75 -3.56 -0.85
Si  1.32  1.14 -5.75
Si -4.78  3.54  0.80
Si  2.72  4.76 -2.46
Si -1.32 -1.15  5.75
Si  0.33 -5.94 -0.85
Si -1.36 -5.88  0.84
Si  1.37  5.89 -0.81
Si  2.14 -1.18  5.69
Si -2.14  1.15 -5.70
Si  5.24  2.37 -2.41
Si -2.17  5.80 -0.79
Si -5.28  2.37 -2.41
Si -0.78  4.68  4.12
Si -5.26 -2.37  2.49
Si  5.26 -2.37  2.49
Si  0.92  4.73 -4.06
Si  0.78 -4.71 -4.13
Si  2.16 -5.88  0.82
Si -0.91 -4.74  4.08
Si -6.07 -0.00 -2.44
Si  6.15  0.00  2.41
Si  3.10  1.11  5.73
Si -3.11 -1.16 -5.72
Si  2.56 -4.63  4.11
Si  0.48  3.48  5.71
Si -3.13 -5.88 -0.81
Si -6.58 -1.16  0.81
Si -2.57  4.72 -4.07
Si  2.68  4.67  4.07
Si -2.68 -4.68 -4.07
Si -0.51 -3.55 -5.75
Si  3.16  5.94  0.81
Si  5.74  3.54  0.80
Si  6.64  1.21 -0.85
Si -5.78 -3.56 -0.85
Si  4.34 -4.70  2.45
Si -4.31  4.71 -2.51
Si  1.29 -3.47  5.78
Si -1.27  3.56 -5.74
Si  4.47  4.69  2.54
Si -4.48 -4.74 -2.50
Si  3.92 -1.10 -5.71
Si  5.24 -2.34 -4.07
Si -3.93  1.19  5.75
Si -5.29 -2.34 -4.07
Si  2.21  3.51 -5.75
Si -5.24  2.43  4.11
Si  3.92 -5.85 -0.85
Si -3.86  5.90  0.81
Si -2.24 -3.58  5.71
Si  5.28  2.43  4.11
Si -3.00  3.47  5.72
Si -6.13 -0.01  4.08
Si  3.03 -3.54 -5.74
Si  6.16 -0.06 -4.10
Si  0.43 -1.13  7.32
Si  0.11  7.04 -2.47
Si -0.09 -7.05  2.46
Si  6.54 -3.51  0.83
Si  7.36 -1.19  0.80
Si -0.47  1.24 -7.39
Si -6.58  3.58 -0.81
Si  4.87  1.15 -5.67
Si -4.84 -1.18  5.71
Si  1.36  1.23  7.36
Si -4.30  4.68  4.15
Si  4.33 -4.71 -4.11
Si -7.48  1.12 -0.85
Si -1.35 -1.17 -7.40
Si  4.46  4.64 -4.09
Si -1.65  7.06  2.41
Si -4.47 -4.69  4.10
Si  1.73 -7.06 -2.44
Si -4.89 -5.87  0.84
Si  4.95  5.86 -0.85
Si  1.85  7.07  2.50
Si -2.14  1.17  7.35
Si -1.85 -7.12 -2.46
Si  2.15 -1.17 -7.39
Si -7.02  2.36  2.43
Si  7.02 -2.36 -2.47
Si -3.99 -3.50 -5.74
Si -7.03 -2.35 -2.51
Si  7.06  2.36  2.45
Si  4.01  3.59  5.78
Si  3.11  1.16 -7.27
Si -3.12 -1.21  7.32
Si -6.06  4.69  2.54
Si  6.04 -4.74 -2.50
Si -0.07 -7.00 -4.04
Si -5.66  1.15 -5.67
Si -5.57  5.86 -0.85
Si  5.69 -1.18  5.71
Si  0.49  3.54 -7.32
Si -6.19 -4.70  2.45
Si  5.63 -5.87  0.84
Si  0.09  7.09  4.08
Si -3.35  7.06 -2.44
Si  6.22  4.71 -2.51
Si -0.49 -3.60  7.36
Si  3.43 -7.06  2.41
Si -0.39  5.90 -5.72
Si  3.59  7.00 -2.46
Si -1.25  3.51  7.35
Si -4.78  3.52 -5.74
Si  1.27 -3.52 -7.36
Si -7.89  0.01  2.46
Si  0.38 -5.95  5.73
Si -1.64  7.00 -4.10
Si  4.80 -3.59  5.72
Si  7.47  3.50 -0.85
Si  7.91 -0.02 -2.47
Si -3.58 -7.05  2.50
Si  0.55  8.25  0.84
Si -0.49 -8.26 -0.85
Si -7.50 -3.52  0.80
Si  1.83  7.01 -4.11
Si  1.67 -7.07  4.08
Si  1.22 -8.22  0.81
Si  1.40  5.91  5.75
Si -1.40 -5.92 -5.75
Si -1.87 -7.08  4.07
Si -3.90  1.16 -7.33
Si -1.16  8.27 -0.85
Si -2.23 -3.52 -7.32
Si -8.29 -1.20 -0.85
Si  2.23  3.46  7.36
Si  3.88 -1.16  7.41
Si -2.12  5.88  5.71
Si  2.15 -5.91 -5.67
Si  8.35  1.19  0.84
Si  7.02 -2.38  4.12
Si -7.02  2.35 -4.13
Si  7.05  2.35 -4.11
Si -7.02 -2.38  4.15
Si -2.28 -8.18  0.81
Si  2.31  8.24 -0.81
Si -6.06  4.64 -4.09
Si  6.06 -4.69  4.10
Si -3.01  3.53 -7.41
Si  3.09 -3.53  7.38
Si -2.92  8.24  0.82
Si  3.17  5.85 -5.74
Si -6.60 -1.10 -5.71
Si -6.20 -4.71 -4.11
Si -3.16 -5.86  5.76
Si  6.23  4.68  4.15
Si  6.60  1.19  5.75
Si -3.42  7.05  4.08
Si  2.91 -8.32 -0.79
Si  5.75  3.52 -5.74
Si -5.72 -3.59  5.72
Si  4.86  1.18  7.31
Si -7.87  0.06 -4.04
Si -6.60 -5.85 -0.85
Si  3.57  7.04  4.07
Si  7.90  0.03  4.08
Si -4.83 -1.17 -7.37
Si  3.44 -7.12 -4.10
Si  6.66  5.90  0.81
Si -3.60 -7.11 -4.11
Si  0.84  0.04 -8.96
Si  8.27 -3.55 -0.78
Si -3.97 -3.55  7.35
Si  3.88 -5.87  5.75
Si -0.89 -0.02  9.04
Si  3.99  3.54 -7.36
Si -5.18  7.07  2.46
Si -8.33  3.57  0.86
Si -3.88  5.96 -5.71
Si  5.19 -7.08 -2.47
Si  5.35  7.07  2.46
Si -5.33 -7.08 -2.47
Si -4.07 -8.23 -0.81
Si  4.08  8.24  0.84
Si -9.16  1.18  0.84
Si  0.00 -2.35 -8.98
Si  9.17 -1.17 -0.81
Si  8.69 -2.29  2.43
Si  0.01  2.36  9.01
Si -5.67  1.18  7.31
Si -2.62  0.02 -8.99
Si  0.39 -5.90 -7.27
Si  2.58  0.05  9.01
Si  6.54 -3.50 -5.74
Si -0.40  5.85  7.32
Si  5.70 -1.17 -7.37
Si -8.73  2.40 -2.50
Si  8.76  2.32 -2.50
Si -6.51  3.59  5.78
Si  7.82 -4.70  2.42
Si -4.71  3.53  7.38
Si  7.42 -1.16 -5.72
Si -8.78 -2.37  2.54
Si  1.69 -2.41  8.97
Si -7.42  1.11  5.73
Si -7.81  4.76 -2.46
Si -1.77 -2.35  9.01
Si  7.39 -5.88 -0.81
Si -1.36 -5.83  7.36
Si -1.80  2.34 -9.02
Si -7.36  5.94  0.81
Si -4.76  8.18 -0.85
Si  4.79 -3.53 -7.41
Si  1.80  2.41 -9.01
Si  4.64 -8.25  0.80
Si  4.86  5.88  5.69
Si -4.86 -5.91 -5.70
Si  1.37  5.89 -7.40
Si -8.00 -4.69 -2.41
Si  7.98  4.69  2.49
Si  2.14 -5.88  7.31
Si  5.18 -7.03  4.08
Si -2.11  5.89 -7.37
Si -5.16  7.12 -4.04
Si -5.35 -7.03  4.08
Si  0.96  9.38 -2.50
Si -0.75  9.42  2.45
Si  0.78 -9.41 -2.51
Si  5.37  7.12 -4.04
Si -0.97 -9.43  2.54
Si  8.72 -2.33 -4.06
Si -8.72  2.32  4.08
Si -3.53 -2.34 -8.98
Si  3.15  5.93  7.32
Si -3.19 -5.83 -7.39
Si  3.59  2.33  8.97
Si  3.52 -2.35 -9.00
Si  6.62  1.16 -7.33
Si -5.66  5.88  5.69
Si  9.26  3.55  0.83
Si -3.54  2.27  9.03
Si -9.65 -0.07 -2.46
Si -9.30 -3.48 -0.81
Si  8.78  2.37  4.10
Si  5.66 -5.91 -5.70
Si  9.66  0.01  2.50
Si -8.78 -2.42 -4.09
Si -4.42 -0.03  8.96
Si  7.84 -4.68 -4.07
Si -7.85  4.67  4.07
Si -5.73 -3.53 -7.41
Si  0.58  8.21 -5.70
Si -6.64 -1.16  7.41
Si  4.38  0.01 -9.02
Si -0.58 -8.24  5.69
Si  5.81  3.53  7.38
Si  1.20 -8.16 -5.71
Si  5.77  8.18 -0.85
Si -2.72 -9.36 -2.46
Si  7.52  3.47  5.72
Si -2.56  9.43 -2.41
Si  2.54 -9.43  2.49
Si -7.49 -3.54 -5.74
Si -7.96 -4.63  4.11
Si  2.73  9.42  2.42
Si  7.96  4.72 -4.07
Si -1.21  8.25  5.75
Si -6.94  7.00 -2.46
Si -5.88 -8.25  0.80
Si -10.08 -1.12  0.81
Si -0.81  4.72 -8.98
Si  0.87 -4.73  8.97
Si -0.92 -4.65 -9.01
Si  3.90 -5.90 -7.33
Si  8.35  5.80 -0.79
Si -8.38 -1.18  5.69
Si  6.94 -7.05  2.50
Si  8.38  1.15 -5.70
Si  0.95  4.71  9.01
Si 10.11  1.19 -0.81
Si -3.92  5.90  7.41
Si -8.36 -5.88  0.82
Si -7.09 -7.06  2.41
Si -0.76  9.41 -4.11
Si -2.27 -8.27 -5.74
Si  2.28  8.26  5.76
Si  0.97  9.43  4.10
Si  0.79 -9.44  4.15
Si  7.17  7.06 -2.44
Si -0.98 -9.48 -4.09
Si -2.94  8.21 -5.67
Si -7.42  1.16 -7.27
Si -2.52  4.74  8.97
Si  2.97 -8.24  5.71
Si -6.54  3.54 -7.36
Si  6.55 -3.55  7.35
Si  2.58 -4.69 -9.01
Si  9.64 -0.05 -4.11
Si  7.40 -1.21  7.32
Si -6.44  8.24  0.84
Si  6.45 -8.23 -0.81
Si -9.67 -0.02  4.07
Si  2.72  4.71 -8.98
Si -2.71 -4.70  9.01
Si  2.52 -9.40 -4.07
Si -6.65 -5.87  5.75
Si  6.64  5.96 -5.71
Si -0.34 10.56 -0.85
Si -4.86 -5.89  7.35
Si  0.30 -10.57  0.80
Si 10.00 -3.49  0.86
Si  4.87  5.89 -7.39
Si -0.89 -0.02 -10.60
Si -4.30  9.42  2.43
Si -2.52  9.49  4.11
Si -5.24 -2.32  8.97
Si  2.76  9.44 -4.07
Si  4.30 -9.42 -2.47
Si -2.76 -9.45  4.07
Si  5.28 -2.32  8.97
Si  8.28 -3.58  5.71
Si -5.22  2.37 -9.01
Si -10.06  3.51 -0.78
Si -1.50 -10.54 -0.81
Si -4.55 -9.36  2.43
Si -8.31  3.51 -5.75
Si -6.96  7.04  4.07
Si  0.84  0.04 10.68
Si  5.30  2.37 -9.01
Si  6.92 -7.11 -4.11
Si  1.46 10.61  0.83
Si  4.51  9.46 -2.50
Si  4.04  8.20 -5.75
Si -4.04 -8.21  5.75
Si  7.11  7.05  4.08
Si -2.06 10.61  0.80
Si -7.08 -7.12 -4.10
Si  6.11 -0.03  8.96
Si  2.03 -10.62 -0.85
Si  0.01  2.36 -10.63
Si  9.20 -1.15  5.75
Si -6.14  0.01 -9.02
Si -9.21  1.14 -5.75
Si -9.15  5.89 -0.81
Si  0.00 -2.35 10.66
Si  9.16 -5.88  0.84
Si  2.58  0.05 -10.63
Si  9.59 -4.66 -2.50
Si -2.62  0.02 10.64
Si  5.66 -5.89  7.35
Si -7.36  5.85 -5.74
Si -5.66  5.89 -7.39
Si -9.63  4.76  2.43
Si -1.80  2.34 10.62
Si  4.41  4.65  8.97
Si -4.28  4.71 -9.00
Si -10.94  1.19 -0.81
Si -4.70  8.17  5.73
Si -1.77 -2.35 -10.63
Si  7.36 -5.86  5.76
Si -10.51  2.36  2.42
Si  1.80  2.41 10.63
Si 10.52 -2.30 -2.46
Si  0.58  8.23  7.35
Si -7.43 -3.53  7.38
Si -10.53 -2.30 -2.46
Si 10.97 -1.12  0.81
Si  4.70 -8.22 -5.72
Si 10.54  2.36  2.42
Si  3.19 10.57 -0.78
Si  1.69 -2.41 -10.67
Si -3.24 -10.55  0.86
Si  4.27 -4.79  9.03
Si -0.57 -8.23 -7.39
Si -1.18  8.22 -7.33
Si -9.74 -4.70  2.43
Si  9.74  4.70 -2.47
Si  1.16 -8.22  7.41
Si  7.51  3.53 -7.41
Si -4.52 -4.72 -9.02
Si -4.30  9.41 -4.13
Si  4.30 -9.44  4.12
Si -4.52 -9.39 -4.06
Si  4.53  9.38  4.08
Si  8.38  1.17  7.35
Si -2.29 -8.19  7.32
Si -8.38 -1.17 -7.39
Si  7.60  8.24  0.82
Si  3.82 -10.57  0.83
Si -7.62 -8.32 -0.79
Si  2.25  8.29 -7.39
Si -3.86 10.64 -0.81
Si  5.97 -9.36  2.43
Si -2.95  8.24  7.31
Si -3.54  2.27 -10.61
Si -0.14 -7.01  9.01
Si -9.23 -3.47  5.78
Si  2.98 -8.23 -7.37
Si -9.60  4.73 -4.06
Si  0.10  7.08 -8.99
Si  3.52 -2.35 10.64
Si  9.26  3.56 -5.74
Si  9.61 -4.74  4.08
Si -8.67  7.07  2.50
Si -3.53 -2.34 10.66
Si -6.01  9.46 -2.50
Si  8.67 -7.12 -2.46
Si  4.38  0.01 10.62
Si  3.59  2.33 -10.67
Si 10.48 -2.39  4.07
Si -10.49  2.38 -4.07
Si -6.62 -5.90 -7.33
Si -1.70  7.03  8.96
Si -1.88 -7.02 -8.96
Si -8.79 -7.06 -2.44
Si  6.60  5.90  7.41
Si  5.82  8.17  5.73
Si  6.23  9.42  2.43
Si -4.42 -0.03 -10.68
Si -6.22 -9.42 -2.47
Si 10.99  3.51 -0.78
Si  9.74  4.68  4.12
Si  1.66 -7.04 -9.02
Si 10.56  2.38 -4.07
Si -10.57 -2.39  4.07
Si -6.93  2.33  8.97
Si -9.74 -4.71 -4.13
Si -5.83 -8.22 -5.72
Si  8.87  7.06  2.41
Si  1.83  7.04  9.04
Si  8.30 -3.52 -7.32
Si -11.05 -3.49  0.86
Si  6.99 -2.34 -8.98
Si -8.30  3.46  7.36
Si -0.92 -4.65 10.63
Si  6.99  2.27  9.03
Si -7.00 -2.35 -9.00
Si  8.25 -8.18  0.81
Si 11.39 -0.07 -2.46
Si -10.08 -1.21 -5.74
Si -11.39  0.01  2.50
Si -8.21  8.24 -0.81
