500
set: 1055.00  0.00  0.00
Si  0.47 -1.19  0.83
Si -0.42  1.29 -0.80
Si -1.29 -0.97 -0.79
Si  1.40  1.16  0.80
Si  0.78  0.08 -2.40
Si -2.17  1.08  0.86
Si -0.84 -0.04  2.46
Si  2.17 -1.16 -0.91
Si -0.07 -2.32 -2.37
Si  0.07  2.29  2.44
Si -3.07 -1.25  0.82
Si  3.12  1.17 -0.80
Si  2.54 -0.09  2.45
Si -0.40 -3.52  0.80
Si -2.63  0.03 -2.51
Si -1.27  3.43  0.82
Si  1.73  2.36 -2.37
Si  1.67 -2.42  2.42
Si -1.73 -2.39  2.44
Si  0.51  3.71 -0.79
Si  1.32 -3.51 -0.80
Si -1.73  2.34 -2.50
Si -3.87  1.17 -0.80
Si -2.22 -3.39 -0.80
Si -0.82 -0.05 -4.08
Si  3.92 -1.25  0.82
Si  0.82  0.02  4.15
Si  2.27  3.49  0.83
Si  0.07  2.30 -4.06
Si -0.12 -2.25  4.12
Si -3.02  3.52 -0.91
Si  3.02 -3.60  0.86
Si  3.47  2.27  2.42
Si -2.64 -0.00  4.02
Si  2.57 -0.08 -4.10
Si -3.52  2.27  2.42
Si  3.45 -2.35 -2.50
Si -3.53 -2.35 -2.50
Si -1.74  2.37  4.01
Si  4.82  1.08  0.86
Si -1.73 -2.38 -4.06
Si  4.36  0.03 -2.51
Si  1.65 -2.44 -4.08
Si -4.82 -1.16 -0.91
Si  1.68  2.43  4.12
Si -4.44 -0.09  2.45
Si -1.02 -4.60 -2.40
Si  0.96  4.64  2.46
Si  3.97  3.52 -0.91
Si -0.83  4.71 -2.51
Si  0.74 -4.78  2.45
Si -3.97 -3.60  0.86
Si -5.59  1.16  0.80
Si  3.45 -2.31  4.01
Si  3.45  2.24 -4.08
Si -3.54 -2.31  4.01
Si  5.69 -0.97 -0.79
Si -2.64  4.59  2.45
Si -0.37  5.77  0.86
Si -3.54  2.24 -4.08
Si  0.51 -1.19 -5.73
Si  2.56 -4.66 -2.51
Si  4.77 -3.39 -0.80
Si -0.40  1.38  5.73
Si  4.35 -0.00  4.02
Si -4.71  3.49  0.83
Si  0.37 -5.84 -0.91
Si  2.58  4.77 -2.40
Si -2.64 -4.72  2.46
Si -1.32 -1.04  5.72
Si  1.38  1.15 -5.69
Si -4.41 -0.08 -4.10
Si -1.33 -5.88  0.83
Si  1.38  5.98 -0.80
Si -2.16  1.08 -5.70
Si -0.84  4.68  4.02
Si -5.26  2.36 -2.37
Si  2.21 -1.17  5.72
Si  0.97  4.63 -4.08
Si -2.07  5.85 -0.80
Si  5.25 -2.39  2.44
Si  5.25  2.34 -2.50
Si -0.98 -4.66  4.15
Si  0.77 -4.76 -4.10
Si -5.32 -2.42  2.42
Si  2.12 -5.94  0.82
Si -3.10 -5.65 -0.79
Si  3.06  1.18  5.61
Si -3.06 -1.26 -5.66
Si  6.15 -0.04  2.46
Si -6.20  0.08 -2.40
Si -6.51 -1.19  0.83
Si  2.55 -4.68  4.02
Si -2.61  4.61 -4.10
Si  3.20  5.84  0.80
Si -5.67 -3.51 -0.80
Si -0.42 -3.54 -5.69
Si  5.72  3.43  0.82
Si  1.26 -3.50  5.61
Si -1.26  3.42 -5.66
Si  6.57  1.29 -0.80
Si  4.35  4.59  2.45
Si -2.63 -4.73 -4.08
Si  0.48  3.64  5.72
Si  2.62  4.70  4.15
Si  4.35 -4.72  2.46
Si -4.43 -4.66 -2.51
Si  3.89 -5.65 -0.79
Si -4.40  4.77 -2.40
Si -3.92  1.18  5.61
Si -2.20 -3.31  5.73
Si  3.92 -1.26 -5.66
Si -3.79  5.84  0.80
Si  5.25  2.37  4.01
Si  5.25 -2.38 -4.06
Si  2.31  3.50 -5.73
Si -5.34 -2.44 -4.08
Si -5.31  2.43  4.12
Si -2.97  3.51  5.72
Si  6.16 -0.05 -4.08
Si  3.02 -3.60 -5.70
Si  0.49 -1.18  7.32
Si -6.17  0.02  4.15
Si  0.07  7.02 -2.50
Si -0.39  1.37 -7.32
Si -0.14 -7.10  2.42
Si -1.31 -1.05 -7.32
Si  6.58 -3.52  0.80
Si -6.48  3.71 -0.79
Si -4.77 -1.17  5.72
Si  4.83  1.08 -5.70
Si  4.37  4.61 -4.10
Si -1.72  6.95  2.42
Si -7.41  1.29 -0.80
Si  1.37  1.15  7.35
Si  7.46 -1.19  0.83
Si -4.44 -4.68  4.02
Si  4.36 -4.73 -4.08
Si  1.87  6.98  2.44
Si -1.87 -7.01 -2.37
Si  1.65 -7.03 -2.50
Si -4.36  4.70  4.15
Si  6.92 -2.32 -2.37
Si -6.92  2.29  2.44
Si  4.92  5.85 -0.80
Si -4.87 -5.94  0.82
Si -2.18  1.09  7.34
Si  2.23 -1.17 -7.32
Si -7.06 -2.32 -2.37
Si  7.05  2.29  2.44
Si -3.96 -3.60 -5.70
Si  4.01  3.51  5.72
Si  5.97 -4.60 -2.40
Si -6.03  4.64  2.46
Si -5.61  1.15 -5.69
Si -3.08 -1.25  7.38
Si  0.06  7.05  4.01
Si  5.66 -1.04  5.72
Si -0.36  5.77 -5.70
Si  3.08  1.18 -7.43
Si  7.77  0.08 -2.40
Si  6.16  4.71 -2.51
Si  4.79 -3.31  5.73
Si -0.43 -3.53  7.35
Si  0.53  8.11  0.82
Si -4.68  3.50 -5.73
Si  0.49  3.63 -7.32
Si -3.46  7.04 -2.37
Si  0.41 -5.85  5.72
Si  5.66 -5.88  0.83
Si -7.83 -0.04  2.46
Si -0.15 -7.12 -4.08
Si -1.73  6.93 -4.08
Si  3.53  7.04 -2.37
Si -7.39 -3.52  0.80
Si  1.65 -7.00  4.01
Si -5.60  5.98 -0.80
Si -6.24 -4.78  2.45
Si  3.45 -7.07  2.44
Si -1.28  3.43  7.38
Si -0.48 -8.19 -0.80
Si -3.53 -7.07  2.44
Si  1.87  6.98 -4.06
Si -1.93 -6.94  4.12
Si -1.29 -5.87 -5.73
Si  1.28 -3.51 -7.43
Si  6.86 -2.25  4.12
Si -2.19 -3.31 -7.32
Si -1.22  8.20 -0.91
Si -6.92  2.30 -4.06
Si -8.28 -0.97 -0.79
Si -2.12  5.86  5.61
Si  7.49  3.71 -0.79
Si  1.22 -8.28  0.86
Si  2.29  3.50  7.32
Si  3.91 -1.25  7.38
Si  1.40  6.06  5.73
Si  7.05  2.30 -4.06
Si  2.12 -5.94 -5.66
Si -3.91  1.18 -7.43
Si  8.39  1.16  0.80
Si -7.11 -2.25  4.12
Si -2.20 -8.21  0.80
Si -6.01  4.63 -4.08
Si  2.97 -8.07 -0.80
Si -2.96  3.51 -7.32
Si  6.01 -4.66  4.15
Si -3.12 -5.73  5.72
Si  3.01 -3.59  7.34
Si  6.15  4.68  4.02
Si -2.91  8.17  0.83
Si -6.48 -1.19 -5.73
Si  2.31  8.40 -0.79
Si  5.72  3.42 -5.66
Si -5.72 -3.50  5.61
Si  3.18  5.83 -5.69
Si -4.76 -1.17 -7.32
Si -7.81 -0.05 -4.08
Si  6.62  5.77  0.86
Si -6.21 -4.76 -4.10
Si  6.59  1.38  5.73
Si  4.81  1.09  7.34
Si  7.81  0.02  4.15
Si  3.45 -7.06 -4.06
Si -6.62 -5.84 -0.91
Si -3.53 -7.06 -4.06
Si  3.48  7.11  4.12
Si  0.84  0.01 -8.89
Si -3.51  7.11  4.12
Si  3.86 -5.73  5.72
Si -8.26  3.43  0.82
Si -5.12  6.98  2.44
Si -3.81  5.83 -5.69
Si  5.12 -7.01 -2.37
Si -0.84 -0.04  8.96
Si  5.27  6.95  2.42
Si -4.02 -8.07 -0.80
Si  8.31 -3.51 -0.80
Si  4.03  3.51 -7.32
Si -3.98 -3.59  7.34
Si  4.08  8.17  0.83
Si -5.33 -7.03 -2.50
Si -0.11 -2.26 -8.92
Si -9.16  1.08  0.86
Si  0.05  2.31  8.98
Si  9.16 -1.16 -0.91
Si  8.65 -2.42  2.42
Si  2.56 -0.07  8.95
Si  5.68 -1.05 -7.32
Si -5.62  1.15  7.35
Si  8.72  2.36 -2.37
Si -0.38  5.77  7.34
Si  4.80 -3.31 -7.32
Si -8.72 -2.39  2.44
Si -8.72  2.34 -2.50
Si -4.70  3.50  7.32
Si  0.43 -5.86 -7.32
Si  6.57 -3.54 -5.69
Si -7.36  5.77  0.86
Si  1.69  2.42 -8.92
Si -2.63 -0.01 -9.02
Si -6.51  3.64  5.72
Si  7.73 -4.78  2.45
Si  1.64 -2.43  8.97
Si  7.36 -5.84 -0.91
Si -7.39  1.38  5.73
Si -1.75 -2.38  8.98
Si  4.86  5.86  5.61
Si -7.82  4.71 -2.51
Si -1.31 -5.86  7.32
Si -1.72  2.37 -9.03
Si  7.49 -1.19 -5.73
Si  5.06 -6.94  4.12
Si  7.95  4.64  2.46
Si  4.78 -8.21  0.80
Si -8.00 -4.60 -2.40
Si -4.87 -5.94 -5.66
Si -5.12  6.98 -4.06
Si  1.41  6.05 -7.32
Si  5.25  6.93 -4.08
Si -0.84  9.27  2.45
Si -4.68  8.40 -0.79
Si -5.34 -7.00  4.01
Si -2.11  5.86 -7.43
Si  0.76 -9.34 -2.51
Si  2.11 -5.94  7.38
Si  0.97  9.39 -2.51
Si -3.11 -5.73 -7.32
Si -1.06 -9.46  2.45
Si -9.21 -3.39 -0.80
Si  9.53 -0.09  2.45
Si -6.50 -1.18  7.32
Si  8.64 -2.44 -4.08
Si  3.44  2.25  8.97
Si -8.72  2.37  4.01
Si  8.66  2.43  4.12
Si  0.54  8.11 -5.66
Si -3.55  2.25  8.97
Si  3.17  5.83  7.35
Si -8.72 -2.38 -4.06
Si  9.26  3.49  0.83
Si -0.54 -8.18  5.61
Si -9.62  0.03 -2.51
Si  5.71  3.43  7.38
Si  3.46 -2.32 -9.03
Si  6.60  1.37 -7.32
Si -7.83  4.68  4.02
Si -3.52 -2.32 -9.03
Si  5.69 -5.87 -5.73
Si  7.76 -4.76 -4.10
Si -4.43 -0.07  8.95
Si -7.41 -3.54 -5.69
Si -2.82 -9.28 -2.40
Si -5.71 -3.51 -7.43
Si  4.36 -0.01 -9.02
Si  2.76  9.33  2.46
Si -5.59  6.06  5.73
Si  2.55 -9.40  2.46
Si -1.17  8.20  5.72
Si  5.77  8.20 -0.91
Si  3.88 -5.73 -7.32
Si  7.96  4.63 -4.08
Si  7.46  3.64  5.72
Si -0.96 -4.67 -8.89
Si -2.60  9.45 -2.40
Si -7.96 -4.66  4.15
Si  1.22 -8.28 -5.70
Si -5.77 -8.28  0.86
Si -3.82  5.83  7.35
Si  0.96  4.64  8.96
Si -8.31 -1.04  5.72
Si  6.85 -7.10  2.42
Si  0.76 -4.75  8.95
Si -10.06 -1.25  0.82
Si -6.92  7.02 -2.50
Si -0.81  9.29 -4.10
Si  8.37  1.15 -5.69
Si -0.82  4.68 -9.02
Si 10.11  1.17 -0.80
Si -8.31 -5.88  0.83
Si  0.74 -9.37  4.02
Si  0.96  9.36  4.02
Si -2.22 -8.22 -5.69
Si  7.05  7.02 -2.50
Si  2.98 -7.99  5.73
Si  8.37  5.98 -0.80
Si -7.12 -7.10  2.42
Si -1.03 -9.44 -4.10
Si  2.28  8.32  5.72
Si -2.88  8.18 -5.73
Si  2.64  4.70 -8.89
Si -6.46  8.11  0.82
Si  9.56 -0.08 -4.10
Si -2.63  4.61  8.95
Si -9.63 -0.00  4.02
Si -6.50  3.63 -7.32
Si  4.17 -9.28 -2.40
Si  6.55 -3.53  7.35
Si -2.64 -4.73  8.96
Si  6.63  5.77 -5.70
Si -7.37  1.37 -7.32
Si  2.56 -4.69 -9.02
Si  6.51 -8.19 -0.80
Si -6.58 -5.85  5.72
Si  7.48 -1.18  7.32
Si -4.23  9.33  2.46
Si  2.78  9.31 -4.08
Si -0.27 10.54 -0.80
Si  2.09 -10.33 -0.79
Si  8.25 -3.50  5.61
Si -8.25  3.42 -5.66
Si  2.56 -9.41 -4.08
Si -2.56  9.38  4.15
Si  1.43 10.45  0.86
Si -2.78 -9.35  4.15
Si -4.00 -7.99  5.73
Si -0.82 -0.04 -10.58
Si -10.00  3.52 -0.91
Si  4.88  5.86 -7.43
Si -5.30  2.42 -8.92
Si  0.32 -10.62  0.82
Si -4.88 -5.94  7.38
Si -1.43 -10.53 -0.91
Si 10.00 -3.60  0.86
Si -6.92  7.05  4.01
Si  5.24 -2.38  8.98
Si  0.77  0.09 10.64
Si  6.84 -7.12 -4.08
Si -4.44 -9.40  2.46
Si  4.38  9.45 -2.40
Si  5.26  2.37 -9.03
Si -5.35 -2.43  8.97
Si -1.99 10.52  0.80
Si  7.05  7.05  4.01
Si  4.11  8.18 -5.73
Si -9.05  5.85 -0.80
Si -6.15  0.01 -8.89
Si -9.15  1.08 -5.70
Si  0.08  2.29 -10.60
Si -2.65  0.03 10.53
Si  6.15 -0.04  8.96
Si -7.14 -7.12 -4.08
Si  9.10 -5.94  0.82
Si  9.20 -1.17  5.72
Si  2.56 -0.10 -10.60
Si  9.54 -4.66 -2.51
Si -0.09 -2.32 10.68
Si -1.75  2.34 10.54
Si -9.63  4.59  2.45
Si -7.35  5.77 -5.70
Si -10.85  1.17 -0.80
Si -4.35  4.70 -8.89
Si  9.57  4.77 -2.40
Si  5.68 -5.86  7.32
Si 10.45  2.27  2.42
Si  4.36  4.61  8.95
Si  0.52  8.11  7.38
Si 10.44 -2.35 -2.50
Si -9.63 -4.72  2.46
Si -1.72 -2.39 -10.60
Si -4.21  9.31 -4.08
Si 10.90 -1.25  0.82
Si -5.57  6.05 -7.32
Si -10.51  2.27  2.42
Si  1.68 -2.42 -10.62
Si -7.42 -3.53  7.35
Si  4.35 -4.73  8.96
Si  7.40 -5.85  5.72
Si -3.13 -10.56  0.83
Si -1.16  8.19 -7.32
Si  4.21 -9.35  4.15
Si -10.52 -2.35 -2.50
Si  1.72  2.36 10.68
Si -0.52 -8.19 -7.43
Si  4.77 -8.22 -5.69
Si  7.48  3.63 -7.32
Si  7.52  8.11  0.82
Si -4.43 -4.69 -9.02
Si -8.30 -1.05 -7.32
Si -7.47 -8.19 -0.80
Si  1.21 -8.28  7.34
Si -4.71  8.32  5.72
Si  3.18 10.66 -0.80
Si -4.43 -9.41 -4.08
Si  4.42  9.38  4.15
Si  8.35  1.15  7.35
Si  3.00 -7.99 -7.32
Si -2.23 -8.21  7.35
Si  3.86 -10.56  0.83
Si  2.29  8.32 -7.32
Si -9.19 -3.31  5.73
Si  3.44 -2.34 10.54
Si -3.80 10.66 -0.80
Si -2.90  8.18  7.32
Si  9.53 -4.68  4.02
Si -3.55 -2.34 10.54
Si  6.15  9.27  2.45
Si  4.34  0.03 10.53
Si -8.71  6.95  2.42
Si  3.48  2.26 -10.62
Si -9.60  4.61 -4.10
Si -3.51  2.26 -10.62
Si  8.64 -7.03 -2.50
Si 10.44 -2.31  4.01
Si  5.93 -9.46  2.45
Si 10.44  2.24 -4.08
Si -6.02  9.39 -2.51
Si -6.56 -5.86 -7.32
Si  6.61  5.77  7.34
Si -0.16 -7.12  8.97
Si  0.08  7.05 -9.03
Si -4.90 -10.33 -0.79
Si  9.29  3.50 -5.73
Si -1.91 -6.94 -8.92
Si -9.61 -4.73 -4.08
Si -1.75  6.93  8.97
Si  9.61  4.70  4.15
Si -4.43 -0.10 -10.60
Si  6.88 -2.26 -8.92
Si -10.53 -2.31  4.01
Si -6.23 -9.34 -2.51
Si -10.52  2.24 -4.08
Si  1.85  6.99  8.98
Si  8.86  6.98  2.44
Si -8.86 -7.01 -2.37
Si 10.96  3.52 -0.91
Si -3.99 -7.99 -7.32
Si  1.66 -7.00 -9.03
Si  5.82  8.20  5.72
Si -10.96 -3.60  0.86
Si -0.84  4.71 10.53
Si 10.05  1.18  5.61
Si -6.93  2.31  8.98
Si -10.08 -5.65 -0.79
Si -5.76 -8.28 -5.70
Si  0.98  4.64 -10.58
Si -8.27  3.43  7.38
Si -10.05 -1.26 -5.66
Si 11.35  0.03 -2.51
Si -7.10 -2.26 -8.92
