500
set: 346.00  0.00  0.00
Si -0.02 -0.05  0.07
Si  1.88  1.08  0.66
Si  0.05 -0.03 -2.27
Si -1.91  1.00  0.78
Si  0.05 -2.21  0.85
Si -1.80 -3.21 -0.01
Si -0.02  2.22 -2.96
Si  1.90  1.16  2.96
Si -3.73 -0.04 -0.05
Si -1.93  3.20 -0.02
Si -1.82  1.07  3.10
Si  1.93 -1.10 -3.04
Si  1.82 -3.30 -0.02
Si  3.78 -0.04 -0.05
Si -1.86 -1.01 -3.17
Si -0.02 -2.12  3.17
Si  1.96  3.29 -0.01
Si -1.89 -3.14 -2.26
Si  0.01  4.27  0.73
Si  1.76 -3.24 -2.30
Si -3.74  0.04 -2.32
Si  0.01  2.21  3.81
Si  1.87 -0.97  3.88
Si -3.75 -2.23  0.73
Si  3.77  0.04 -2.32
Si  3.77 -2.23  0.73
Si -1.99 -1.07  3.84
Si -1.99  3.26 -2.30
Si  1.87  3.37 -2.26
Si  3.70 -2.12  3.04
Si -0.05 -4.29 -3.10
Si  3.70  2.21 -3.10
Si -3.81 -2.12  3.04
Si -0.05  4.38  3.04
Si -3.81  2.21 -3.10
Si  0.05  2.13 -5.28
Si -3.71  4.30  0.85
Si  5.60  1.00  0.78
Si -3.71  2.14  3.86
Si -1.88 -5.42  0.66
Si -5.64  1.08  0.66
Si  1.85 -1.17 -5.35
Si  3.80  4.30  0.85
Si  3.80  2.14  3.86
Si  0.05 -4.37  3.86
Si  1.85 -5.51  0.78
Si -1.88 -1.08 -5.47
Si -1.86 -5.35  2.96
Si  3.74 -4.29 -2.96
Si  5.58  3.20 -0.02
Si -3.77 -4.29 -2.96
Si  0.03  2.13  6.08
Si -5.58 -1.10 -3.04
Si -5.61  1.16  2.96
Si -5.55  3.29 -0.01
Si  0.03  6.46 -0.05
Si -1.82  5.41 -3.04
Si -1.80  1.13 -6.14
Si  1.82  1.03 -6.16
Si -1.93 -1.14  6.11
Si  1.96 -1.04  6.13
Si  1.93 -5.43  3.10
Si  0.03 -6.55 -0.05
Si  5.71 -3.21 -0.01
Si  5.66 -1.01 -3.17
Si  5.69  1.07  3.10
Si  0.03 -2.21 -6.18
Si  3.74  4.39  3.17
Si -5.69 -3.30 -0.02
Si -3.77  4.39  3.17
Si  1.90  5.50 -3.17
Si  5.52 -1.07  3.84
Si  5.52  3.26 -2.30
Si  5.63 -3.14 -2.26
Si -3.74 -4.29  3.81
Si  0.01 -0.07  6.87
Si  0.01 -6.46 -2.32
Si  3.77 -4.29  3.81
Si  1.76  5.43  3.84
Si -3.75  2.10 -5.40
Si  3.77  2.10 -5.40
Si -5.64 -0.97  3.88
Si -5.64  3.37 -2.26
Si  0.01  6.55 -2.32
Si  0.01 -4.40 -5.40
Si -5.75 -3.24 -2.30
Si -1.89  5.53  3.88
Si -0.02  4.28 -6.07
Si  3.74  6.45  0.07
Si  3.74 -2.22 -6.07
Si -3.77  6.45  0.07
Si -3.77 -2.22 -6.07
Si  7.49 -0.05  0.07
Si -7.53 -0.05  0.07
Si  3.74  2.12  6.20
Si  3.74 -6.56  0.07
Si -3.77  2.12  6.20
Si -3.77 -6.56  0.07
Si -0.02 -4.39  6.20
Si  1.88 -3.25  6.80
Si  1.85  7.50  0.78
Si -1.88  3.25  6.80
Si -1.91  5.33 -5.35
Si -3.71 -4.38 -5.28
Si -3.71  6.47 -2.27
Si -7.46 -0.03 -2.27
Si  1.85  3.17  6.91
Si -7.46 -2.21  0.85
Si  5.63 -5.42  0.66
Si  3.80 -4.38 -5.28
Si  3.80  6.47 -2.27
Si -1.88  7.59  0.66
Si -3.71 -6.54 -2.27
Si -5.66 -1.17 -5.35
Si  7.56 -0.03 -2.27
Si  3.80 -6.54 -2.27
Si -3.71 -0.04  6.98
Si -1.91 -3.34  6.91
Si  7.56 -2.21  0.85
Si  5.63 -1.08 -5.47
Si  1.88  5.42 -5.47
Si -5.67 -5.51  0.78
Si  3.80 -0.04  6.98
Si  5.66 -5.35  2.96
Si -5.55 -1.04  6.13
Si  1.82  5.37  6.11
Si  5.58 -1.14  6.11
Si  7.49  2.22 -2.96
Si -3.73 -4.38  6.08
Si  1.90 -7.51 -3.17
Si -5.58 -5.43  3.10
Si -1.82 -7.60 -3.04
Si -7.53  2.22 -2.96
Si  1.96 -5.38 -6.14
Si  3.78 -4.38  6.08
Si -3.73  4.30 -6.18
Si -1.80  5.46  6.13
Si  7.49 -2.12  3.17
Si  1.93  7.58  3.10
Si  5.69  5.41 -3.04
Si -1.86  7.67  2.96
Si  3.78  4.30 -6.18
Si -7.53 -2.12  3.17
Si -5.69  1.03 -6.16
Si -1.93 -5.47 -6.16
Si  5.71  1.13 -6.14
Si -5.61  5.50 -3.17
Si -1.89 -7.48  3.88
Si -7.50  4.27  0.73
Si  1.76 -7.58  3.84
Si  7.52  4.27  0.73
Si -1.89  1.20 -8.39
Si  1.76  1.09 -8.43
Si -7.50  2.21  3.81
Si  0.01 -2.13 -8.45
Si  7.53  2.21  3.81
Si  0.01 -8.74  0.73
Si -5.75  5.43  3.84
Si  5.63  5.53  3.88
Si  7.46 -4.29 -3.10
Si -0.05 -8.63  3.04
Si  7.46  4.38  3.04
Si -0.05  0.04  9.17
Si -0.05  0.05 -9.23
Si -7.57 -4.29 -3.10
Si -0.05  8.72 -3.10
Si -7.57  4.38  3.04
Si -7.46  2.13 -5.28
Si  5.63  3.25  6.80
Si  5.60  5.33 -5.35
Si -5.64 -3.25  6.80
Si -5.66  7.50  0.78
Si  0.05  4.31 -8.41
Si -3.71 -2.20 -8.41
Si  0.05  8.64  3.86
Si  7.56  2.13 -5.28
Si -7.46 -4.37  3.86
Si  9.39  1.08  0.66
Si  5.63  7.59  0.66
Si -5.67  3.17  6.91
Si  3.80 -2.20 -8.41
Si  5.60 -3.34  6.91
Si -9.42  1.00  0.78
Si -3.71 -8.71  0.85
Si  0.05  6.47  6.98
Si  1.88 -7.59 -5.47
Si  3.80 -8.71  0.85
Si -5.64  5.42 -5.47
Si  7.56 -4.37  3.86
Si -1.91 -7.68 -5.35
Si  0.05 -6.54  6.98
Si  1.90 -3.18  9.10
Si  3.74  0.05 -9.09
Si -3.77  0.05 -9.09
Si -9.31 -3.21 -0.01
Si -1.86  3.33  9.10
Si -5.55 -5.38 -6.14
Si  1.82  9.71 -0.02
Si -7.49  2.13  6.08
Si -1.80 -7.55  6.13
Si -7.48  6.46 -0.05
Si -9.34  1.07  3.10
Si -5.61 -7.51 -3.17
Si  9.33 -3.30 -0.02
Si -1.82 -3.26 -9.17
Si -5.58  7.58  3.10
Si  1.96 -9.72 -0.01
Si  1.93  3.24 -9.17
Si  7.54  2.13  6.08
Si  3.74 -8.62  3.17
Si -1.93  7.54 -6.16
Si -5.69  5.37  6.11
Si  7.54  6.46 -0.05
Si -3.77 -8.62  3.17
Si  9.41  1.16  2.96
Si -9.37 -1.01 -3.17
Si  3.74  8.72 -2.96
Si -7.49 -6.55 -0.05
Si  5.58 -5.47 -6.16
Si  1.82 -7.64  6.11
Si -3.77  8.72 -2.96
Si -7.48 -2.21 -6.18
Si -1.82 -3.26  9.23
Si -1.80  9.80 -0.01
Si  5.69 -7.60 -3.04
Si  1.93  3.24  9.23
Si -9.45  3.20 -0.02
Si  5.66  7.67  2.96
Si  9.44 -1.10 -3.04
Si  7.54 -6.55 -0.05
Si  1.96  7.63 -6.14
Si  7.54 -2.21 -6.18
Si -1.93 -9.81 -0.02
Si  5.71  5.46  6.13
Si  1.90 -3.18 -9.30
Si  9.47  3.29 -0.01
Si  3.74  0.05  9.30
Si -3.77  0.05  9.30
Si -1.86  3.33 -9.30
Si  1.87 -9.64 -2.26
Si  9.28 -3.24 -2.30
Si  1.87 -5.31 -8.39
Si  5.63 -7.48  3.88
Si -3.75  6.44  6.87
Si  3.77  6.44  6.87
Si -9.40 -3.14 -2.26
Si  0.01  8.61 -5.40
Si -7.50 -6.46 -2.32
Si -7.50 -0.07  6.87
Si  0.01 -2.13  9.95
Si  5.63  1.20 -8.39
Si  7.52 -0.07  6.87
Si  1.76  1.09  9.97
Si  7.53 -6.46 -2.32
Si  1.76  9.77 -2.30
Si  9.38 -0.97  3.88
Si -1.99 -9.75 -2.30
Si -1.99 -5.41 -8.43
Si -3.75 -6.57  6.87
Si  9.38  3.37 -2.26
Si -7.50  6.55 -2.32
Si -3.74  8.71  3.81
Si  3.77 -6.57  6.87
Si -3.74  4.38 -8.45
Si  3.77  8.71  3.81
Si  3.77  4.38 -8.45
Si -7.50 -4.40 -5.40
Si  7.53  6.55 -2.32
Si  7.52 -4.40 -5.40
Si -5.75 -7.58  3.84
Si -1.89  1.20 10.01
Si -5.75  1.09 -8.43
Si -1.89  9.87 -2.26
Si -9.50 -1.07  3.84
Si -9.50  3.26 -2.30
Si  7.49  4.28 -6.07
Si -7.53  4.28 -6.07
Si -0.02  8.62  6.20
Si -0.02 -8.73 -6.07
Si  7.49 -4.39  6.20
Si -7.53 -4.39  6.20
Si -3.71  8.63 -5.28
Si  3.80  8.63 -5.28
Si  0.05 10.80  0.85
Si  9.36 -1.17 -5.35
Si -9.39 -5.42  0.66
Si  0.05  4.31  9.99
Si -3.71 -2.20  9.99
Si  9.36 -5.51  0.78
Si  5.60 -7.68 -5.35
Si  3.80 -2.20  9.99
Si -5.64 -7.59 -5.47
Si -9.39 -1.08 -5.47
Si -5.61 -3.18  9.10
Si -0.02 -6.46 -9.09
Si -9.37 -5.35  2.96
Si -0.02 -10.79 -2.96
Si -5.55 -9.72 -0.01
Si -3.73  8.63  6.08
Si -9.34  5.41 -3.04
Si -9.31  1.13 -6.14
Si -0.02  6.55 -9.09
Si -5.58  3.24 -9.17
Si  5.66  3.33  9.10
Si  5.58  7.54 -6.16
Si  3.78  8.63  6.08
Si  9.33  1.03 -6.16
Si -11.24 -0.04 -0.05
Si -5.69  9.71 -0.02
Si -5.55  7.63 -6.14
Si -5.58  3.24  9.23
Si  5.69 -3.26 -9.17
Si  5.71 -7.55  6.13
Si  5.58 -9.81 -0.02
Si 11.29 -0.04 -0.05
Si -9.45 -1.14  6.11
Si -3.73 -8.71 -6.18
Si -5.69 -7.64  6.11
Si -5.61 -3.18 -9.30
Si  5.69 -3.26  9.23
Si -0.02 -6.46  9.30
Si  9.47 -1.04  6.13
Si  9.44 -5.43  3.10
Si  3.78 -8.71 -6.18
Si  5.71  9.80 -0.01
Si -0.02 10.89  3.17
Si  9.41  5.50 -3.17
Si -0.02  6.55  9.30
Si  5.66  3.33 -9.30
Si -5.64 -9.64 -2.26
Si  9.28  5.43  3.84
Si -5.64 -5.31 -8.39
Si -3.75 10.78  0.73
Si  5.52 -9.75 -2.30
Si  5.52 -5.41 -8.43
Si  3.77 10.78  0.73
Si  0.01 -10.80  3.81
Si  1.87 -5.31 10.01
Si -11.25  0.04 -2.32
Si -3.74  4.38  9.95
Si -7.50 -2.13 -8.45
Si -11.26 -2.23  0.73
Si  3.77  4.38  9.95
Si  7.53 -2.13 -8.45
Si -1.99 -5.41  9.97
Si 11.28  0.04 -2.32
Si 11.28 -2.23  0.73
Si -1.99  7.60 -8.43
Si  0.01 -0.07 -11.53
Si  1.87  7.70 -8.39
Si -7.50 -8.74  0.73
Si  5.63  1.20 10.01
Si  7.52 -8.74  0.73
Si -5.75  1.09  9.97
Si -5.75  9.77 -2.30
Si -9.40  5.53  3.88
Si  5.63  9.87 -2.26
Si  7.46 -8.63  3.04
Si 11.21 -2.12  3.04
Si  3.70 -6.46  9.17
Si  7.46  0.04  9.17
Si  3.70 -10.80 -3.10
Si 11.21  2.21 -3.10
Si -3.81 -6.46  9.17
Si  3.70 -6.46 -9.23
Si -3.81 -10.80 -3.10
Si  3.70  6.55  9.17
Si  7.46  0.05 -9.23
Si -7.57 -8.63  3.04
Si  7.46  8.72 -3.10
Si -7.57  0.04  9.17
Si -3.81 -6.46 -9.23
Si  3.70 10.89  3.04
Si -3.81  6.55  9.17
Si  3.70  6.55 -9.23
Si -11.32 -2.12  3.04
Si -3.81 10.89  3.04
Si -7.57  0.05 -9.23
Si -3.81  6.55 -9.23
Si -11.32  2.21 -3.10
Si -7.57  8.72 -3.10
Si -3.71 -0.04 -11.42
Si  9.36  7.50  0.78
Si  3.80 -0.04 -11.42
Si  9.39 -3.25  6.80
Si -1.88 -9.76  6.80
Si -7.46  4.31 -8.41
Si  1.88  9.76  6.80
Si -1.91  9.67  6.91
Si -9.39  3.25  6.80
Si -11.22  4.30  0.85
Si -7.46  8.64  3.86
Si -11.22  2.14  3.86
Si  1.85  3.17 -11.49
Si  9.36  3.17  6.91
Si -9.42  5.33 -5.35
Si  1.88 -11.93  0.66
Si -9.39  7.59  0.66
Si -7.46  6.47  6.98
Si  0.05 -10.88 -5.28
Si  7.56  4.31 -8.41
Si  0.05 -8.70 -8.41
Si -1.91 -3.34 -11.49
Si  7.56  8.64  3.86
Si -3.71 -10.87  3.86
Si 11.31  4.30  0.85
Si -7.46 -6.54  6.98
Si  9.39  5.42 -5.47
Si 11.32  2.14  3.86
Si  3.80 -10.87  3.86
Si -9.42 -3.34  6.91
Si  7.56  6.47  6.98
Si  1.85 -9.84  6.91
Si -1.91 -12.01  0.78
Si  7.56 -6.54  6.98
Si  1.88 -3.25 -11.60
Si -1.88  3.25 -11.60
Si  1.90 -11.85  2.96
Si  9.33  5.37  6.11
Si 11.25 -4.29 -2.96
Si -9.31  5.46  6.13
Si -9.34 -7.60 -3.04
Si  0.03 -2.21 12.22
Si  1.82  1.03 12.24
Si -11.29 -4.29 -2.96
Si -1.80  1.13 12.26
Si  0.03 10.80 -6.18
Si  1.93 11.91 -3.04
Si  9.41 -7.51 -3.17
Si -9.37  7.67  2.96
Si -1.82 -11.94  3.10
Si  0.03 -10.88  6.08
Si  1.96 -1.04 -12.27
Si 11.25  4.39  3.17
Si -1.93 -1.14 -12.29
Si  0.03  2.13 -12.31
Si  9.44  7.58  3.10
Si  9.47 -5.38 -6.14
Si -11.29  4.39  3.17
Si -9.45 -5.47 -6.16
Si -1.86 12.00 -3.17
Si  9.28 -7.58  3.84
Si  9.28  1.09 -8.43
Si  5.52 -5.41  9.97
Si -9.40 -7.48  3.88
Si  5.52  7.60 -8.43
Si -7.50  8.61 -5.40
Si -11.25 -4.29  3.81
Si -7.50 -2.13  9.95
Si  7.52  8.61 -5.40
Si -3.74 -8.63 -8.45
Si  7.53 -2.13  9.95
Si -9.40  1.20 -8.39
Si  3.77 -8.63 -8.45
Si -5.64 -5.31 10.01
Si 11.28 -4.29  3.81
Si -11.26  2.10 -5.40
Si 11.28  2.10 -5.40
Si -1.99  7.60  9.97
Si -1.99 11.94  3.84
Si -5.64  7.70 -8.39
Si -3.75 -10.91 -5.40
Si  3.77 -10.91 -5.40
Si  1.87  7.70 10.01
Si  1.87 12.04  3.88
Si  3.74 10.79 -6.07
Si  3.74  2.12 -12.20
Si -3.77 10.79 -6.07
Si -3.77  2.12 -12.20
Si -0.02 12.96  0.07
Si -0.02 -4.39 -12.20
Si 11.25  6.45  0.07
Si 11.25 -2.22 -6.07
Si  7.49  8.62  6.20
Si -11.29  6.45  0.07
Si -11.29 -2.22 -6.07
Si  7.49 -8.73 -6.07
Si -7.53  8.62  6.20
Si 11.25  2.12  6.20
Si 11.25 -6.56  0.07
Si -7.53 -8.73 -6.07
Si -11.29  2.12  6.20
Si -11.29 -6.56  0.07
Si -0.02  4.28 12.33
Si -0.02 -13.06  0.07
Si  3.74 -2.22 12.33
Si  3.74 -10.89  6.20
Si -3.77 -2.22 12.33
Si -3.77 -10.89  6.20
Si -1.88 -1.08 12.93
Si  0.05  6.47 -11.42
Si  1.85 11.84 -5.35
Si  5.60  9.67  6.91
Si -11.22  6.47 -2.27
Si -11.22 -4.38 -5.28
Si  5.63 -9.76  6.80
Si -7.46 10.80  0.85
Si  0.05 -6.54 -11.42
Si -5.64  9.76  6.80
Si 13.11  1.00  0.78
