500
set: 780.00  0.00  0.00
Si -0.44  1.14 -0.80
Si  0.34 -1.24  0.82
Si  1.30  1.13  0.85
Si -1.29 -1.16 -0.87
Si  2.14 -1.23 -0.80
Si -2.19  1.18  0.80
Si  0.87  0.04 -2.48
Si -0.89  0.06  2.49
Si  3.08  1.14 -0.87
Si -3.12 -1.17  0.80
Si  0.05  2.39  2.48
Si -0.03 -2.40 -2.48
Si -2.62  0.08 -2.47
Si  2.73  0.00  2.47
Si  0.54  3.58 -0.87
Si -0.53 -3.61  0.85
Si -1.69  2.42 -2.41
Si -1.78 -2.35  2.48
Si  1.80  2.35 -2.48
Si  1.77 -2.39  2.48
Si -1.29  3.58  0.80
Si  1.25 -3.60 -0.87
Si  3.94 -1.17  0.80
Si -0.87  0.03 -4.11
Si  2.17  3.51  0.82
Si  0.90 -0.03  4.11
Si -3.98  1.14 -0.87
Si -2.27 -3.60 -0.80
Si -0.04 -2.34  4.11
Si -3.09  3.51 -0.80
Si  3.04 -3.56  0.80
Si  0.02  2.43 -4.10
Si -3.52 -2.32 -2.41
Si -3.46  2.35  2.48
Si  3.54 -2.32 -2.41
Si  2.68 -0.02 -4.11
Si -2.60  0.05  4.18
Si  3.60  2.35  2.48
Si -4.34  0.00  2.47
Si -1.81 -2.31 -4.10
Si  4.87  1.18  0.80
Si -1.70  2.45  4.12
Si  1.80 -2.37 -4.12
Si  1.79  2.40  4.11
Si  4.44  0.08 -2.47
Si -4.92 -1.23 -0.80
Si  3.97  3.51 -0.80
Si -0.96 -4.71 -2.48
Si  0.90 -4.74  2.47
Si -4.03 -3.56  0.80
Si -0.79  4.83 -2.47
Si  0.94  4.80  2.49
Si -0.37  1.21  5.72
Si -3.43  2.38 -4.12
Si  0.38 -1.24 -5.74
Si -3.53 -2.29  4.12
Si  2.61 -4.66 -2.47
Si  3.54 -2.29  4.12
Si -2.51  4.74  2.47
Si -5.76  1.13  0.85
Si  5.77 -1.16 -0.87
Si -2.72 -4.69  2.49
Si  3.63  2.38 -4.12
Si -0.36  5.93  0.80
Si -4.38 -0.02 -4.11
Si  1.25  1.14 -5.77
Si  2.70  4.78 -2.48
Si  0.31 -5.98 -0.80
Si  4.79 -3.60 -0.80
Si -1.35 -1.23  5.79
Si -4.89  3.51  0.82
Si  1.39  5.88 -0.80
Si  4.46  0.05  4.18
Si -1.49 -5.98  0.82
Si  2.17 -1.23  5.72
Si -5.26  2.35 -2.48
Si  5.28 -2.35  2.48
Si -5.29 -2.39  2.48
Si -2.22  1.21 -5.79
Si -2.15  5.88 -0.87
Si  2.11 -5.91  0.80
Si  0.85 -4.76 -4.11
Si  5.37  2.42 -2.41
Si  0.96  4.77 -4.11
Si -0.93 -4.77  4.11
Si -0.77  4.79  4.18
Si  3.06  1.14  5.79
Si  6.17  0.06  2.49
Si -6.19  0.04 -2.48
Si -3.12 -1.19 -5.79
Si  3.13  5.88  0.85
Si -3.12 -5.91 -0.87
Si -2.55  4.73 -4.11
Si  6.62  1.14 -0.80
Si  0.48  3.51  5.79
Si -2.70 -4.72 -4.11
Si  2.63 -4.70  4.18
Si  2.73  4.71  4.11
Si -0.58 -3.61 -5.77
Si  5.77  3.58  0.80
Si  4.34 -4.69  2.49
Si -6.72 -1.24  0.82
Si -5.81 -3.60 -0.87
Si -4.45 -4.66 -2.47
Si -1.29  3.56 -5.79
Si -4.36  4.78 -2.48
Si  1.23 -3.61  5.79
Si  4.55  4.74  2.47
Si  5.25 -2.31 -4.10
Si -2.20 -3.54  5.72
Si  2.21  3.51 -5.74
Si -5.26 -2.37 -4.12
Si -5.27  2.40  4.11
Si  3.94 -1.19 -5.79
Si -3.94  5.88  0.85
Si -4.00  1.14  5.79
Si  3.94 -5.91 -0.87
Si  5.37  2.45  4.12
Si -3.06  3.51  5.72
Si -6.17 -0.03  4.11
Si  3.02 -3.54 -5.79
Si  6.19  0.03 -4.11
Si -6.52  3.58 -0.87
Si  6.53 -3.61  0.85
Si  7.40 -1.24  0.82
Si  0.39 -1.24  7.44
Si -0.06 -7.13  2.48
Si  0.14  7.17 -2.41
Si -0.38  1.21 -7.46
Si  1.26  1.13  7.41
Si -4.34  4.71  4.11
Si -1.36 -1.23 -7.39
Si -4.89 -1.23  5.72
Si  4.36 -4.72 -4.11
Si -7.50  1.14 -0.80
Si  4.84  1.21 -5.79
Si  1.71 -7.07 -2.41
Si -4.43 -4.70  4.18
Si -1.63  7.10  2.48
Si  4.91  5.88 -0.87
Si  4.51  4.73 -4.11
Si -4.96 -5.91  0.80
Si -1.86 -7.14 -2.48
Si  1.88  7.14  2.48
Si -2.20  1.20  7.38
Si  4.00  3.51  5.72
Si -7.01  2.39  2.48
Si  7.04 -2.40 -2.48
Si  2.16 -1.23 -7.46
Si -7.09 -2.40 -2.48
Si -4.05 -3.54 -5.79
Si  7.11  2.39  2.48
Si  3.05  1.14 -7.38
Si  6.10 -4.71 -2.48
Si -3.10 -1.19  7.39
Si -6.17 -4.74  2.47
Si -6.12  4.80  2.49
Si  0.47  3.51 -7.39
Si -5.67  5.88 -0.80
Si  5.57 -5.98  0.82
Si -0.03 -7.11 -4.12
Si  5.71 -1.23  5.79
Si -3.43  7.09 -2.48
Si -0.57 -3.61  7.41
Si  3.45 -7.09  2.48
Si -5.82  1.14 -5.77
Si  0.34 -5.98  5.72
Si  0.13  7.20  4.12
Si  6.27  4.83 -2.47
Si -4.86  3.51 -5.74
Si  4.86 -3.54  5.72
Si -1.27  3.55  7.39
Si  1.22 -3.60 -7.38
Si  7.93  0.04 -2.48
Si -0.39  5.95 -5.79
Si  1.71 -7.03  4.12
Si -7.95  0.06  2.49
Si -3.61 -7.09  2.48
Si  3.63  7.09 -2.48
Si  0.54  8.32  0.80
Si -1.60  7.12 -4.12
Si  1.46  5.95  5.72
Si -1.26  8.25 -0.80
Si -1.87 -7.08  4.11
Si -0.58 -8.35 -0.87
Si -1.46 -5.98 -5.74
Si  1.21 -8.30  0.80
Si  7.60  3.58 -0.87
Si -7.59 -3.61  0.85
Si  7.03 -2.34  4.11
Si  1.85  7.17 -4.10
Si  3.96 -1.19  7.39
Si  8.36  1.13  0.85
Si -8.35 -1.16 -0.87
Si -4.01  1.14 -7.38
Si -7.04  2.43 -4.10
Si  2.22  3.50  7.44
Si -7.10 -2.34  4.11
Si -2.17  5.88  5.79
Si  7.08  2.43 -4.10
Si -2.21 -3.53 -7.46
Si  2.12 -5.93 -5.79
Si  2.37  8.32 -0.87
Si -2.36 -8.35  0.85
Si  3.03 -3.54  7.38
Si -6.10  4.77 -4.11
Si  6.13 -4.77  4.11
Si  3.08  5.88 -5.77
Si -3.07  3.52 -7.46
Si -6.21 -4.76 -4.11
Si -3.06  8.25  0.82
Si  3.42 -7.06 -4.10
Si  6.69  1.21  5.72
Si  2.96 -8.35 -0.80
Si -6.69 -1.24 -5.74
Si -3.18 -5.98  5.79
Si  5.78  3.56 -5.79
Si  4.86  1.20  7.38
Si -3.44  7.15  4.11
Si -7.93  0.03 -4.11
Si -3.64 -7.06 -4.10
Si  6.29  4.79  4.18
Si  7.96 -0.03  4.11
Si -5.83 -3.61  5.79
Si  6.70  5.93  0.80
Si  3.62  7.15  4.11
Si -4.90 -1.23 -7.46
Si -6.75 -5.98 -0.80
Si  8.31 -3.60 -0.87
Si -0.86  0.02  9.07
Si  0.88 -0.02 -9.07
Si -8.36  3.58  0.80
Si -4.03 -3.54  7.38
Si -3.99  5.88 -5.77
Si  3.99  3.52 -7.46
Si -5.18  7.14  2.48
Si  5.21 -7.14 -2.48
Si  3.88 -5.98  5.79
Si -5.35 -7.07 -2.41
Si  4.00  8.25  0.82
Si  5.43  7.10  2.48
Si  9.20 -1.23 -0.80
Si -4.10 -8.35 -0.80
Si -0.05 -2.33 -9.07
Si -9.26  1.18  0.80
Si -2.62  0.05 -9.00
Si  6.48 -3.61 -5.77
Si  0.03  2.43  9.08
Si -8.76  2.42 -2.41
Si  5.70 -1.23 -7.39
Si -6.58  3.51  5.79
Si -7.43  1.21  5.72
Si  2.69 -0.02  9.07
Si  7.44 -1.24 -5.74
Si -5.80  1.13  7.41
Si -8.84 -2.35  2.48
Si  8.84 -2.39  2.48
Si -0.37  5.95  7.38
Si  8.87  2.35 -2.48
Si  7.37 -5.98 -0.80
Si  1.82 -2.37  9.06
Si -7.43  5.93  0.80
Si -1.80 -2.32  9.08
Si -7.85  4.83 -2.47
Si -1.71  2.46 -9.06
Si -4.84  3.50  7.44
Si  1.78  2.41 -9.07
Si  0.33 -5.97 -7.46
Si  4.85 -3.53 -7.46
Si  7.96 -4.74  2.47
Si -4.69  8.32 -0.87
Si  4.89  5.88  5.79
Si  4.70 -8.35  0.85
Si -8.02 -4.71 -2.48
Si -4.95 -5.93 -5.79
Si  1.45  5.96 -7.46
Si -1.44 -5.99  7.44
Si  8.00  4.80  2.49
Si -2.18  5.88 -7.38
Si  5.20 -7.08  4.11
Si  2.13 -5.93  7.39
Si -5.36 -7.03  4.12
Si  0.78 -9.40 -2.47
Si -5.21  7.17 -4.10
Si -0.68  9.49  2.47
Si -0.94 -9.49  2.47
Si  5.46  7.12 -4.12
Si  9.23  3.51  0.82
Si  1.04  9.57 -2.47
Si  3.09  5.88  7.41
Si -3.42  2.37  9.06
Si -5.60  5.95  5.72
Si -8.76  2.45  4.12
Si  3.52 -2.29 -9.06
Si -9.68  0.08 -2.47
Si -3.54 -2.29 -9.06
Si  5.61 -5.98 -5.74
Si -3.19 -5.97 -7.39
Si -9.33 -3.60 -0.80
Si  5.79  3.55  7.39
Si  4.45  0.05 -9.00
Si -8.87 -2.31 -4.10
Si  3.65  2.37  9.06
Si  8.86  2.40  4.11
Si  8.87 -2.37 -4.12
Si -4.37 -0.02  9.07
Si -6.67 -1.24  7.44
Si  2.51 -9.43  2.49
Si -5.84 -3.60 -7.38
Si  6.68  1.21 -7.46
Si -7.83  4.79  4.18
Si  9.79  0.00  2.47
Si  7.91 -4.76 -4.11
Si -1.23  8.25  5.72
Si  5.80  8.25 -0.80
Si  0.54  8.30 -5.79
Si  7.54  3.51  5.79
Si -2.53  9.52 -2.48
Si -2.79 -9.45 -2.48
Si  1.19 -8.28 -5.79
Si -8.00 -4.77  4.11
Si  8.31  1.14 -5.77
Si -0.60 -8.35  5.79
Si -5.86 -8.30  0.80
Si  8.02  4.77 -4.11
Si -0.79  4.79 -9.00
Si -7.65 -3.61 -5.77
Si  2.77  9.54  2.49
Si 10.14  1.14 -0.87
Si -6.92  7.17 -2.41
Si -3.97  5.88  7.41
Si  3.87 -5.97 -7.39
Si -8.41 -1.23  5.79
Si -10.19 -1.17  0.80
Si  0.86 -4.77  9.07
Si -0.95 -4.77 -9.07
Si  0.97  4.76  9.07
Si  7.01 -7.13  2.48
Si  8.45  5.88 -0.80
Si  2.31  8.25  5.79
Si -0.72  9.47 -4.11
Si  0.80 -9.44  4.18
Si -7.12 -7.13  2.48
Si -0.98 -9.51 -4.11
Si -2.41 -8.35 -5.77
Si  7.20  7.17 -2.41
Si  1.06  9.54  4.18
Si -8.55 -5.98  0.82
Si  2.62 -4.69 -9.00
Si  6.49 -3.61  7.41
Si -3.03  8.25 -5.74
Si  3.03 -8.28  5.72
Si -6.59  3.51 -7.39
Si -9.66  0.05  4.18
Si -2.54  4.72  9.07
Si  9.74 -0.02 -4.11
Si -2.69 -4.72  9.07
Si  2.71  4.72 -9.07
Si  7.45 -1.24  7.44
Si -6.53  8.32  0.80
Si  6.49 -8.35 -0.87
Si -7.45  1.21 -7.46
Si -2.51  9.46  4.11
Si  2.53 -9.46 -4.11
Si  4.88  5.88 -7.38
Si  6.67  5.95 -5.79
Si -6.72 -5.98  5.72
Si  4.27 -9.45 -2.48
Si -0.32 10.63 -0.87
Si -4.93 -5.93  7.39
Si  0.28 -10.65  0.80
Si -2.76 -9.52  4.11
Si -0.90  0.06 -10.69
Si  2.79  9.51 -4.11
Si -5.25 -2.37  9.06
Si  0.88  0.03 10.70
Si 10.10 -3.56  0.80
Si  8.29 -3.61  5.79
Si  5.26 -2.32  9.08
Si -4.29  9.54  2.49
Si -4.55 -9.43  2.49
Si -8.35  3.56 -5.79
Si -5.28  2.41 -9.07
Si -10.15  3.51 -0.80
Si  1.47 10.67  0.80
Si -6.93  7.20  4.12
Si  5.35  2.46 -9.06
Si  7.04 -7.11 -4.12
Si  4.04  8.25 -5.74
Si  4.53  9.52 -2.48
Si -4.03 -8.28  5.72
Si -7.09 -7.11 -4.12
Si -1.52 -10.72 -0.80
Si -2.10 10.62  0.85
Si  2.11 -10.65 -0.87
Si  9.24 -1.23  5.72
Si  9.17 -5.91  0.80
Si  0.04  2.40 -10.70
Si -9.57  4.74  2.47
Si -0.01 -2.40 10.70
Si -9.21  5.88 -0.87
Si -6.18 -0.02 -9.07
Si  7.20  7.20  4.12
Si  6.20  0.02  9.07
Si -9.28  1.21 -5.79
Si -2.60  0.08 10.71
Si  9.68 -4.66 -2.47
Si  2.71  0.01 -10.71
Si -10.52  2.35  2.48
Si -5.62  5.96 -7.46
Si -4.45 -4.69 -9.00
Si  5.62 -5.99  7.44
Si 11.00 -1.17  0.80
Si -1.79 -2.35 -10.70
Si  1.76 -2.39 -10.70
Si  1.82  2.34 10.70
Si -10.59 -2.32 -2.41
Si  7.41 -5.98  5.72
Si -4.35  4.72 -9.07
Si 10.60 -2.32 -2.41
Si  7.53  3.51 -7.39
Si  4.37 -4.72  9.07
Si  0.56  8.30  7.39
Si -9.78 -4.69  2.49
Si  3.22 10.63 -0.80
Si -11.04  1.14 -0.87
Si -4.75  8.25  5.79
Si  9.76  4.78 -2.48
Si -7.45  5.95 -5.79
Si -0.61 -8.35 -7.38
Si -1.68  2.42 10.77
Si  1.20 -8.29  7.38
Si  4.65 -8.35 -5.77
Si  4.53  4.72  9.07
Si  8.32  1.13  7.41
Si -1.24  8.26 -7.46
Si 10.67  2.35  2.48
Si -4.27  9.51 -4.11
Si  4.30 -9.52  4.11
Si -7.63 -3.61  7.41
Si -3.32 -10.72  0.82
Si -4.53 -9.46 -4.11
Si  4.56  9.46  4.11
Si -8.42 -1.23 -7.39
Si  7.60  8.32  0.80
Si  2.30  8.26 -7.39
Si -3.84 10.63 -0.80
Si -7.64 -8.35 -0.87
Si  3.74 -10.72  0.82
Si -2.40 -8.35  7.41
Si -9.26 -3.54  5.72
Si  9.27  3.51 -5.74
Si -9.61  4.73 -4.11
Si -3.47  2.36 -10.70
Si -8.69  7.10  2.48
Si -3.01  8.25  7.44
Si -0.01 -7.12  9.06
Si  8.77 -7.07 -2.41
Si -10.49  2.38 -4.12
Si  3.59  2.36 -10.70
Si  3.02 -8.28 -7.46
Si  9.69 -4.70  4.18
Si  6.13 -9.49  2.47
Si -4.35  0.01 -10.71
Si -3.51 -2.33 10.77
Si -6.02  9.57 -2.47
Si -6.28 -9.40 -2.47
Si  3.55 -2.33 10.77
Si  0.12  7.20 -9.06
Si -10.59 -2.29  4.12
Si  1.69 -7.03 -9.06
Si -9.76 -4.72 -4.11
Si  4.46  0.08 10.71
Si 10.60 -2.29  4.12
Si  6.69  5.95  7.38
Si 11.03  3.51 -0.80
Si  5.83  8.25  5.72
Si  9.79  4.71  4.11
Si -1.59  7.11  9.06
Si -1.88 -7.08 -9.07
Si -11.40  0.00  2.47
Si  8.28 -3.60 -7.38
Si -11.09 -3.56  0.80
Si -6.73 -5.97 -7.46
Si -5.88 -8.28 -5.79
Si -8.92 -7.14 -2.48
Si -8.34  3.55  7.39
Si  6.38  9.49  2.47
Si  7.01 -2.33 -9.07
Si 10.70  2.38 -4.12
Si  8.94  7.14  2.48
Si  1.86  7.17  9.08
Si 10.13  1.14  5.79
Si -0.95 -4.71 10.70
Si -7.03  2.43  9.08
Si  8.27 -8.30  0.80
Si  0.88 -4.74 -10.71
Si -8.32  8.25 -0.80
Si  4.96 10.62  0.85
Si  0.93  4.80 -10.69
