500
set: 457.00  0.00  0.00
Si  0.01  0.03 -0.01
Si -0.03 -2.01  0.75
Si  0.04 -0.00 -2.22
Si -1.83  1.02  0.74
Si  1.80  1.12  0.77
Si  3.56  0.04 -0.00
Si -1.81 -3.08 -0.05
Si  1.76 -3.12  0.06
Si -1.74 -1.09 -2.94
Si -1.78  1.01  2.95
Si -0.01  2.10 -2.92
Si -0.01 -2.08  2.98
Si  1.83 -1.08 -2.95
Si  1.88  1.00  2.96
Si -1.85  3.14  0.06
Si  1.80  3.18 -0.05
Si -3.67  0.04 -0.00
Si -3.56 -0.05 -2.20
Si  3.61 -2.06  0.69
Si  1.81  3.07 -2.25
Si  1.78 -3.14 -2.17
Si -1.83  3.12 -2.17
Si  0.06  2.03  3.70
Si  1.81 -1.11  3.65
Si -3.62 -2.06  0.69
Si -0.01  4.20  0.69
Si  3.67 -0.05 -2.20
Si -1.83 -1.06  3.73
Si -1.80 -3.19 -2.25
Si  0.01  4.08  2.93
Si -3.61  1.99 -2.97
Si  3.62  1.99 -2.97
Si -3.61 -2.18  2.93
Si  3.62 -2.18  2.93
Si  0.01 -4.27 -2.97
Si -1.82 -5.13  0.77
Si -1.82 -0.96 -5.13
Si -3.58  2.08  3.68
Si  5.40  1.02  0.74
Si  0.04 -4.17  3.68
Si  1.78 -1.06 -5.16
Si  1.78 -5.24  0.74
Si -0.03  2.16 -5.15
Si  3.65  2.08  3.68
Si -5.43  1.12  0.77
Si  3.59  4.25  0.75
Si -3.64  4.25  0.75
Si -5.35  1.00  2.96
Si  1.76  1.06 -5.84
Si  1.80 -0.99  5.85
Si -0.05 -6.21 -0.00
Si -1.78  5.18 -2.95
Si  5.41 -3.08 -0.05
Si  5.38  3.14  0.06
Si  3.60 -4.16 -2.92
Si  1.88  5.17 -2.94
Si -5.40 -1.08 -2.95
Si -3.62 -4.16 -2.92
Si -0.05 -2.04 -5.90
Si -0.05  2.13  5.90
Si  3.60  4.18  2.98
Si  5.44  1.01  2.95
Si -1.74 -5.26  2.96
Si -3.62  4.18  2.98
Si -5.46 -3.12  0.06
Si -5.43  3.18 -0.05
Si  1.83 -5.25  2.95
Si -0.05  6.30 -0.00
Si -1.81  1.09 -5.95
Si -1.85 -1.03  5.96
Si  5.49 -1.09 -2.94
Si -1.80  5.15  3.65
Si  0.06  6.21 -2.20
Si -0.01  0.03  6.59
Si  5.39  3.12 -2.17
Si -5.41  3.07 -2.25
Si -5.41 -1.11  3.65
Si  5.39 -1.06  3.73
Si  1.78  5.20  3.73
Si -3.56 -4.23  3.70
Si -5.45 -3.14 -2.17
Si -0.01 -4.15 -5.21
Si  3.61  2.11 -5.21
Si  0.06 -6.31 -2.20
Si  5.43 -3.19 -2.25
Si -3.62  2.11 -5.21
Si  3.67 -4.23  3.70
Si -3.60 -6.23 -0.01
Si  0.01 -4.14  5.90
Si  3.62 -6.23 -0.01
Si -7.22  0.03 -0.01
Si -3.60 -2.06 -5.91
Si -3.60  2.11  5.90
Si  3.62 -2.06 -5.91
Si  3.62  2.11  5.90
Si  7.24  0.03 -0.01
Si -3.60  6.29 -0.01
Si  0.01  4.20 -5.91
Si  3.62  6.29 -0.01
Si  3.59 -4.10 -5.15
Si  5.41 -5.13  0.77
Si  7.20 -2.01  0.75
Si  5.41 -0.96 -5.13
Si -3.64 -4.10 -5.15
Si -7.19 -0.00 -2.22
Si  1.78  7.28  0.74
Si -3.58  6.26 -2.22
Si  1.78  3.11  6.64
Si -3.58 -6.26 -2.22
Si  1.80 -3.05  6.67
Si -1.83  5.20 -5.16
Si  3.59  0.07  6.65
Si -7.25 -2.01  0.75
Si -1.83 -3.15  6.64
Si  3.65  6.26 -2.22
Si -5.44 -1.06 -5.16
Si  3.65 -6.26 -2.22
Si -3.64  0.07  6.65
Si -5.44 -5.24  0.74
Si  1.80  5.30 -5.13
Si  7.26 -0.00 -2.22
Si -1.82  3.21  6.67
Si -1.82  7.38  0.77
Si -5.35  5.17 -2.94
Si -1.74  7.26  2.96
Si  3.56 -4.13  5.90
Si -1.85 -5.20 -5.84
Si -5.43 -0.99  5.85
Si  1.83  7.27  2.95
Si  7.22  2.10 -2.92
Si -5.46  1.06 -5.84
Si  5.44  5.18 -2.95
Si -1.81  5.27  5.85
Si  7.22 -2.08  2.98
Si -3.67 -4.13  5.90
Si  3.56  4.22 -5.90
Si -7.24  2.10 -2.92
Si  1.80 -5.17 -5.95
Si -5.40 -5.25  2.95
Si  5.38 -1.03  5.96
Si -7.24 -2.08  2.98
Si -1.78 -7.34 -2.95
Si  5.41  1.09 -5.95
Si  1.76  5.23  5.96
Si -3.67  4.22 -5.90
Si  1.88 -7.34 -2.94
Si  5.49 -5.26  2.96
Si -7.17  2.03  3.70
Si  5.43  5.15  3.65
Si  1.78  1.03 -8.07
Si -0.01 -8.32  0.69
Si  7.22  4.20  0.69
Si  0.06 -2.14 -8.10
Si -7.23  4.20  0.69
Si  1.78 -7.32  3.73
Si -5.45  5.20  3.73
Si -1.80  0.98 -8.15
Si -1.80 -7.37  3.65
Si  7.28  2.03  3.70
Si  0.01  8.25 -2.97
Si -7.22  4.08  2.93
Si  7.23  4.08  2.93
Si  0.01 -0.09  8.83
Si  0.01 -0.09 -8.87
Si -7.22 -4.27 -2.97
Si  7.23 -4.27 -2.97
Si  0.01 -8.44  2.93
Si  1.80 -7.22 -5.13
Si  3.59 -8.27  0.75
Si -3.64 -8.27  0.75
Si -0.03 -6.19  6.65
Si -7.19 -4.17  3.68
Si  5.40  5.20 -5.16
Si  7.20  2.16 -5.15
Si  5.40 -3.15  6.64
Si -3.58 -2.09 -8.12
Si  0.04  8.34  3.68
Si -5.44  7.28  0.74
Si -5.43 -3.05  6.67
Si  9.02  1.12  0.77
Si  0.04  4.17 -8.12
Si -5.44  3.11  6.64
Si -1.83 -7.32 -5.16
Si -9.06  1.02  0.74
Si  3.65 -2.09 -8.12
Si  7.26 -4.17  3.68
Si -7.25  2.16 -5.15
Si -5.43  5.30 -5.13
Si  5.41  3.21  6.67
Si -0.03  6.33  6.65
Si  5.41  7.38  0.77
Si -1.81 -7.25  5.85
Si  7.17 -6.21 -0.00
Si  5.38 -5.20 -5.84
Si -8.97 -1.09 -2.94
Si  1.80 -9.34 -0.05
Si  7.17 -2.04 -5.90
Si  8.99 -3.12  0.06
Si -5.40  7.27  2.95
Si -1.74  3.09 -8.84
Si  7.17  2.13  5.90
Si  3.60  0.01 -8.82
Si -9.01  1.01  2.95
Si -3.62  0.01 -8.82
Si -1.74  3.09  8.86
Si -1.85  7.31 -5.84
Si  7.17  6.30 -0.00
Si -9.04 -3.08 -0.05
Si  5.41  5.27  5.85
Si -5.35 -7.34 -2.94
Si  1.83  3.09  8.85
Si  1.83  3.09 -8.85
Si  3.60 -8.33  2.98
Si -1.85 -9.38  0.06
Si  3.60  8.36 -2.92
Si -3.62 -8.33  2.98
Si  1.76  9.40  0.06
Si -3.62  8.36 -2.92
Si -1.78 -3.17  8.85
Si -1.78 -3.17 -8.85
Si  5.49  7.26  2.96
Si -5.43 -5.17 -5.95
Si  9.03  3.18 -0.05
Si -7.28 -6.21 -0.00
Si  1.76 -7.29  5.96
Si  1.88 -3.17 -8.84
Si  3.60  0.01  8.88
Si  9.06 -1.08 -2.95
Si -3.62  0.01  8.88
Si -7.28 -2.04 -5.90
Si  1.88 -3.17  8.86
Si  5.44 -7.34 -2.95
Si -9.08  3.14  0.06
Si -7.28  2.13  5.90
Si -1.81  9.44 -0.05
Si  9.10  1.00  2.96
Si -5.46  5.23  5.96
Si -7.28  6.30 -0.00
Si  1.80  7.35 -5.95
Si -7.17  6.21 -2.20
Si -3.56  8.29  3.70
Si -1.80  9.32 -2.25
Si  3.61 -6.23  6.59
Si -3.56  4.12 -8.10
Si -1.80  0.98  9.55
Si -3.62 -6.23  6.59
Si  7.22  0.03  6.59
Si -7.23  0.03  6.59
Si  9.01 -3.14 -2.17
Si  1.78  9.37 -2.17
Si  3.67  8.29  3.70
Si  3.61  6.28  6.59
Si -1.83 -5.23 -8.07
Si -5.45  1.03 -8.07
Si -3.62  6.28  6.59
Si  3.67  4.12 -8.10
Si -7.17 -6.31 -2.20
Si  9.04  3.07 -2.25
Si  9.04 -1.11  3.65
Si  7.28  6.21 -2.20
Si -1.83 -9.40 -2.17
Si -9.06  3.12 -2.17
Si  7.22 -4.15 -5.21
Si -7.23 -4.15 -5.21
Si  0.06 -2.14  9.60
Si -9.03 -3.19 -2.25
Si  5.43  0.98 -8.15
Si  1.78  1.03  9.63
Si  5.43 -7.37  3.65
Si -5.45 -7.32  3.73
Si -9.06 -1.06  3.73
Si -0.01  8.37 -5.21
Si  1.81 -5.28 -8.15
Si  1.81 -9.45 -2.25
Si  7.28 -6.31 -2.20
Si -7.22 -4.14  5.90
Si  0.01 -8.32 -5.91
Si  7.24 -4.14  5.90
Si -7.22  4.20 -5.91
Si  0.01  8.37  5.90
Si  7.24  4.20 -5.91
Si -5.43 -7.22 -5.13
Si -9.04 -5.13  0.77
Si -3.58 -2.09  9.58
Si  9.01 -1.06 -5.16
Si -9.04 -0.96 -5.13
Si  9.01 -5.24  0.74
Si  0.04  4.17  9.58
Si  5.40 -7.32 -5.16
Si  3.65 -2.09  9.58
Si  3.59  8.42 -5.15
Si -3.64  8.42 -5.15
Si -0.03 10.50  0.75
Si  5.41 -7.25  5.85
Si  8.99  1.06 -5.84
Si 10.79  0.04 -0.00
Si  3.56 -8.30 -5.90
Si  5.38  7.31 -5.84
Si -5.43 -9.34 -0.05
Si  9.03 -0.99  5.85
Si -9.01  5.18 -2.95
Si -8.97 -5.26  2.96
Si  5.38 -9.38  0.06
Si -0.01 -6.25 -8.82
Si -5.35 -3.17 -8.84
Si -5.40  3.09  8.85
Si -5.40  3.09 -8.85
Si -0.01 -10.42 -2.92
Si -0.01  6.27 -8.82
Si -5.35 -3.17  8.86
Si -3.67 -8.30 -5.90
Si  3.56  8.39  5.90
Si -0.01 -6.25  8.88
Si  5.49  3.09 -8.84
Si -0.01 10.44  2.98
Si  5.44 -3.17  8.85
Si  5.44 -3.17 -8.85
Si  5.49  3.09  8.86
Si -0.01  6.27  8.88
Si -5.46  9.40  0.06
Si  9.10  5.17 -2.94
Si  9.06 -5.25  2.95
Si -9.04  1.09 -5.95
Si  5.41  9.44 -0.05
Si -5.46 -7.29  5.96
Si -3.67  8.39  5.90
Si -10.89  0.04 -0.00
Si -9.08 -1.03  5.96
Si -5.43  7.35 -5.95
Si -10.78 -0.05 -2.20
Si -9.03  5.15  3.65
Si  5.43  9.32 -2.25
Si  5.43  0.98  9.55
Si  5.39 -5.23 -8.07
Si -7.17 -2.14 -8.10
Si -1.83  7.29 -8.07
Si -3.56  4.12  9.60
Si  7.22 -8.32  0.69
Si -7.23 -8.32  0.69
Si  9.01  5.20  3.73
Si 10.83 -2.06  0.69
Si  1.81  7.24 -8.15
Si  5.39 -9.40 -2.17
Si -5.45  9.37 -2.17
Si  1.81 -5.28  9.55
Si -10.85 -2.06  0.69
Si  3.67  4.12  9.60
Si  3.61 10.46  0.69
Si -3.62 10.46  0.69
Si  7.28 -2.14 -8.10
Si -1.83 -5.23  9.63
Si -5.45  1.03  9.63
Si -0.01  0.03 -11.11
Si 10.90 -0.05 -2.20
Si  0.06 -10.48  3.70
Si -5.41 -5.28 -8.15
Si -5.41 -9.45 -2.25
Si -3.61 10.34  2.93
Si  3.62 10.34  2.93
Si -3.61  6.16  8.83
Si  3.62  6.16  8.83
Si -7.22  8.25 -2.97
Si  7.23  8.25 -2.97
Si -3.61  6.16 -8.87
Si  3.62  6.16 -8.87
Si -7.22 -0.09  8.83
Si -10.84  1.99 -2.97
Si  7.23 -0.09  8.83
Si 10.85  1.99 -2.97
Si -10.84 -2.18  2.93
Si -7.22 -0.09 -8.87
Si 10.85 -2.18  2.93
Si  7.23 -0.09 -8.87
Si -3.61 -6.35  8.83
Si  3.62 -6.35  8.83
Si -7.22 -8.44  2.93
Si  7.23 -8.44  2.93
Si -3.61 -6.35 -8.87
Si  3.62 -6.35 -8.87
Si -3.61 -10.53 -2.97
Si  3.62 -10.53 -2.97
Si  1.80 -11.39  0.77
Si -0.03 -10.36 -5.15
Si  1.80 -3.05 -11.03
Si  7.20 -6.19  6.65
Si -1.82 -9.31  6.67
Si -10.80  2.08  3.68
Si  9.01  7.28  0.74
Si -7.19  8.34  3.68
Si  9.01  3.11  6.64
Si  3.59  0.07 -11.05
Si -7.19  4.17 -8.12
Si -7.25 -6.19  6.65
Si  9.02 -3.05  6.67
Si -1.83  9.37  6.64
Si -3.58 -10.43  3.68
Si  1.78  3.11 -11.06
Si -1.82  3.21 -11.03
Si -3.64  0.07 -11.05
Si 10.81  4.25  0.75
Si  0.04 -8.35 -8.12
Si -1.83 -3.15 -11.06
Si -9.06  5.20 -5.16
Si  3.65 -10.43  3.68
Si  1.78 -9.41  6.64
Si  9.02  5.30 -5.13
Si  7.26  8.34  3.68
Si -1.83 -11.49  0.74
Si -9.06 -3.15  6.64
Si  7.26  4.17 -8.12
Si  7.20  6.33  6.65
Si 10.88  2.08  3.68
Si -9.04  3.21  6.67
Si -10.87  4.25  0.75
Si -9.04  7.38  0.77
Si -7.25  6.33  6.65
Si  1.80  9.47  6.67
Si -8.97  7.26  2.96
Si -1.74 11.43 -2.94
Si -1.85 -1.03 -11.75
Si -1.81  1.09 11.75
Si -0.05 -10.39  5.90
Si  1.83 11.44 -2.95
Si 10.83 -4.16 -2.92
Si -0.05 -2.04 11.80
Si  9.06  7.27  2.95
Si  9.03 -5.17 -5.95
Si -10.85 -4.16 -2.92
Si -9.08 -5.20 -5.84
Si 10.83  4.18  2.98
Si  8.99  5.23  5.96
Si -9.04  5.27  5.85
Si -9.01 -7.34 -2.95
Si -0.05  2.13 -11.80
Si -10.85  4.18  2.98
Si -1.78 -11.51  2.95
Si -0.05 10.47 -5.90
Si  1.80 -0.99 -11.85
Si  1.76  1.06 11.86
Si  1.88 -11.52  2.96
Si  9.10 -7.34 -2.94
Si  1.81 11.41  3.65
Si  1.81  7.24  9.55
Si  9.01  1.03 -8.07
Si  5.39  7.29 -8.07
Si -10.78 -4.23  3.70
Si -7.17 -2.14  9.60
Si -5.41  7.24 -8.15
Si -5.41 -5.28  9.55
Si  3.61 -10.40 -5.21
Si  9.01 -7.32  3.73
Si -3.62 -10.40 -5.21
Si -1.83 11.46  3.73
Si -3.56 -8.40 -8.10
Si -9.03  0.98 -8.15
Si 10.83  2.11 -5.21
Si -9.03 -7.37  3.65
Si  5.39 -5.23  9.63
Si -1.83  7.29  9.63
Si -10.85  2.11 -5.21
Si  7.22  8.37 -5.21
Si -7.23  8.37 -5.21
Si  3.67 -8.40 -8.10
Si  7.28 -2.14  9.60
Si 10.90 -4.23  3.70
Si -3.60 -10.40  5.90
Si  0.01 -12.49 -0.01
Si  3.62 -10.40  5.90
Si -10.83 -6.23 -0.01
Si -7.22 -8.32 -5.91
Si -3.60 -2.06 11.80
Si  7.24 -8.32 -5.91
Si -10.83 -2.06 -5.91
Si  3.62 -2.06 11.80
Si 10.85 -6.23 -0.01
Si -10.83  2.11  5.90
Si  0.01 -4.14 -11.81
Si  0.01  4.20 11.80
Si 10.85 -2.06 -5.91
Si -10.83  6.29 -0.01
Si -3.60  2.11 -11.81
Si 10.85  2.11  5.90
Si -7.22  8.37  5.90
Si  3.62  2.11 -11.81
Si  7.24  8.37  5.90
Si 10.85  6.29 -0.01
Si -3.60 10.46 -5.91
Si  0.01 12.54 -0.01
Si  3.62 10.46 -5.91
Si -5.43 -11.39  0.77
Si  9.02 -7.22 -5.13
Si 10.81 -4.10 -5.15
Si  5.41 -9.31  6.67
Si -0.03 -6.19 -11.05
Si -5.43 -3.05 -11.03
Si -10.80  6.26 -2.22
Si -10.80 -6.26 -2.22
Si -7.19  4.17  9.58
Si 12.62  1.02  0.74
Si  5.40  9.37  6.64
