500
set: 935.00  0.00  0.00
Si  0.37 -1.16  0.83
Si -0.43  1.17 -0.85
Si  1.33  1.18  0.76
Si -1.29 -1.21 -0.81
Si -2.10  1.13  0.89
Si  2.12 -1.18 -0.80
Si  0.85 -0.01 -2.44
Si -0.86 -0.11  2.47
Si -3.00 -1.14  0.84
Si -0.09 -2.28 -2.44
Si  0.02  2.30  2.46
Si  3.06  1.24 -0.84
Si -2.60  0.01 -2.39
Si  2.64 -0.05  2.35
Si  0.44  3.48 -0.86
Si -0.49 -3.49  0.79
Si  1.71 -2.29  2.37
Si -1.28  3.46  0.84
Si  1.27 -3.48 -0.81
Si -1.78 -2.36  2.43
Si  1.75  2.35 -2.49
Si -1.72  2.38 -2.49
Si  0.87  0.01  4.01
Si -3.87  1.19 -0.81
Si -0.93 -0.00 -4.08
Si  3.94 -1.17  0.78
Si  2.19  3.49  0.79
Si -2.24 -3.50 -0.86
Si -2.98  3.45 -0.77
Si  0.03 -2.37  4.02
Si  2.98 -3.52  0.84
Si  0.04  2.32 -4.08
Si -3.42  2.34  2.43
Si  3.47 -2.32 -2.40
Si  2.62 -0.09 -4.04
Si -2.60  0.02  4.06
Si -3.53 -2.29 -2.42
Si  3.50  2.33  2.48
Si -4.72 -1.14 -0.78
Si  1.72 -2.29 -4.05
Si  1.77  2.31  4.05
Si -1.73  2.34  4.06
Si -4.35  0.02  2.49
Si  4.41  0.04 -2.41
Si -1.81 -2.33 -4.07
Si  4.83  1.17  0.82
Si  0.90  4.62  2.43
Si  0.83 -4.64  2.48
Si  3.94  3.49 -0.81
Si -0.93 -4.63 -2.49
Si -0.85  4.68 -2.42
Si -3.96 -3.52  0.84
Si -5.59  1.17  0.82
Si  3.39 -2.34  4.07
Si -0.47  1.16  5.67
Si -3.44 -2.31  4.06
Si  0.38 -5.74 -0.84
Si  0.43 -1.18 -5.68
Si  2.55 -4.63 -2.43
Si  3.49  2.33 -4.03
Si -3.48  2.32 -4.06
Si  5.70 -1.14 -0.78
Si -2.64  4.63  2.50
Si  4.27 -0.00  4.05
Si  2.59  4.70 -2.44
Si -0.33  5.84  0.84
Si -1.30 -1.16  5.65
Si -2.66 -4.67  2.46
Si -4.76  3.46  0.84
Si -4.35  0.03 -4.06
Si  4.76 -3.52 -0.77
Si  1.37  1.12 -5.71
Si  1.39  5.76 -0.81
Si -1.34 -5.79  0.76
Si  5.11 -2.35  2.50
Si -2.11  1.17 -5.67
Si -5.19  2.35 -2.43
Si  0.81 -4.64 -4.03
Si  2.15 -1.15  5.71
Si  5.23  2.35 -2.43
Si -0.77  4.66  4.06
Si -2.04  5.83 -0.78
Si  0.87  4.64 -4.07
Si -0.91 -4.66  4.05
Si  2.15 -5.81  0.82
Si -5.31 -2.35  2.50
Si -6.02  0.04 -2.41
Si -3.07 -1.15 -5.67
Si  3.06  1.19  5.68
Si  6.08  0.02  2.49
Si  3.04  5.82  0.83
Si -6.48 -1.17  0.78
Si -3.10 -5.81 -0.85
Si  0.41  3.48  5.66
Si  2.71  4.61  4.02
Si  5.66  3.46  0.84
Si  2.62 -4.68  4.02
Si -2.53  4.69 -4.07
Si  6.55  1.19 -0.81
Si -5.66 -3.52 -0.77
Si -0.47 -3.48 -5.72
Si -2.64 -4.65 -4.08
Si -4.28  4.66 -2.40
Si -1.27  3.51 -5.67
Si  4.32 -4.63  2.43
Si -4.39 -4.59 -2.49
Si  4.38  4.69  2.37
Si  1.28 -3.58  5.69
Si -5.13  2.30  4.02
Si -3.87  1.20  5.66
Si -3.80  5.80  0.78
Si -5.21 -2.29 -4.07
Si  5.21 -2.29 -4.07
Si  3.87 -5.79 -0.81
Si -2.26 -3.49  5.66
Si  5.29  2.30  4.02
Si  3.96 -1.19 -5.71
Si  2.21  3.50 -5.72
Si  2.93 -3.49 -5.68
Si  6.07  0.03 -4.06
Si -3.01  3.52  5.67
Si  0.41 -1.14  7.25
Si -6.15 -0.00  4.05
Si  0.08  6.99 -2.39
Si -0.44  1.13 -7.30
Si -6.48  3.49 -0.81
Si  6.46 -3.52  0.84
Si -0.04 -7.02  2.35
Si  4.73  1.15 -5.66
Si -1.32 -1.18 -7.27
Si  1.25  1.21  7.29
Si  4.26 -4.66 -4.06
Si -7.37  1.24 -0.84
Si  1.82  6.87  2.47
Si -4.82 -1.17  5.67
Si  1.73 -6.94 -2.41
Si  7.42 -1.14  0.84
Si -4.36  4.63  4.07
Si  4.79  5.79 -0.80
Si -4.41 -4.63  4.06
Si  4.40  4.68 -4.05
Si -4.78 -5.84  0.89
Si -1.67  6.99  2.49
Si -1.83 -6.98 -2.44
Si  2.16 -1.15 -7.25
Si  6.89 -2.29 -2.42
Si -6.95 -2.32 -2.40
Si -6.92  2.33  2.48
Si  3.96  3.39  5.69
Si -2.19  1.19  7.31
Si -3.94 -3.47 -5.67
Si  7.00  2.34  2.43
Si -3.06 -1.11  7.24
Si  6.03 -4.59 -2.49
Si -6.04  4.69  2.37
Si  0.48  3.38 -7.26
Si -6.10 -4.63  2.43
Si  3.04  1.20 -7.36
Si  5.60 -1.17  5.67
Si  6.15  4.66 -2.40
Si  0.07  7.00  4.06
Si -0.49 -3.49  7.29
Si -5.70  1.15 -5.66
Si  0.38 -5.78  5.68
Si -5.63  5.79 -0.80
Si -3.34  7.01 -2.41
Si  3.40 -6.96  2.49
Si -7.79 -0.05  2.35
Si -0.39  5.83 -5.67
Si -0.05 -7.07 -4.04
Si  4.73 -3.45  5.67
Si  5.64 -5.84  0.89
Si  0.57  8.11  0.89
Si  7.83  0.01 -2.39
Si  3.52  6.97 -2.44
Si -0.56 -8.16 -0.80
Si -4.82  3.48 -5.68
Si  1.38  5.81  5.65
Si  1.59 -6.98  4.05
Si -1.26  3.50  7.34
Si  7.44  3.45 -0.77
Si -1.81 -6.97  4.01
Si  1.75  6.97 -4.08
Si -1.68  7.01 -4.06
Si -7.44 -3.52  0.84
Si  1.26 -8.15  0.78
Si  1.30 -3.53 -7.38
Si -1.31 -5.86 -5.71
Si -1.20  8.16 -0.81
Si -3.54 -7.08  2.47
Si -3.98  1.14 -7.23
Si -6.93  2.33 -4.03
Si  3.89 -1.14  7.30
Si  2.19  3.48  7.29
Si  6.94  2.32 -4.06
Si  2.05 -5.83 -5.66
Si -2.14  5.81  5.67
Si -2.20 -3.60 -7.26
Si  6.98 -2.31  4.06
Si -8.31 -1.18 -0.80
Si  8.32  1.13  0.89
Si -7.04 -2.34  4.07
Si  2.25  8.14 -0.85
Si -2.31 -8.13  0.83
Si -3.01  3.50 -7.24
Si  6.01 -4.63  4.06
Si -6.02  4.68 -4.05
Si  6.07  4.63  4.07
Si  3.07 -3.45  7.32
Si -2.92  8.14  0.82
Si  3.11  5.80 -5.68
Si  3.02 -8.12 -0.78
Si  5.61  3.48 -5.68
Si -3.15 -5.82  5.67
Si -6.47 -1.19 -5.71
Si -6.16 -4.66 -4.06
Si  3.39 -6.94 -4.06
Si  6.55  1.20  5.66
Si -5.69 -3.45  5.67
Si -6.55 -5.79 -0.81
Si -3.48  6.97  4.05
Si -7.80 -0.09 -4.04
Si -4.76 -1.15 -7.30
Si  3.55  6.98  4.01
Si  7.82  0.02  4.06
Si  6.62  5.80  0.78
Si -3.60 -6.98 -4.08
Si  4.81  1.17  7.33
Si -0.90 -0.01  8.87
Si -5.11  6.93  2.35
Si  8.19 -3.50 -0.86
Si  3.87 -5.77  5.66
Si -3.79  5.79 -5.71
Si -8.23  3.49  0.79
Si  5.15 -6.96 -2.39
Si  0.85 -0.00 -8.94
Si -3.94 -3.48  7.34
Si  5.31  6.93  2.35
Si -5.28 -6.96 -2.39
Si  3.97  3.44 -7.38
Si  4.01  8.16  0.76
Si -3.97 -8.19 -0.81
Si -9.09  1.18  0.76
Si  0.05  2.27  8.92
Si  9.13 -1.21 -0.81
Si -6.46  3.39  5.69
Si -0.01 -2.31 -8.97
Si -2.62 -0.03 -8.89
Si  6.48 -3.47 -5.67
Si  8.64 -2.36  2.43
Si  2.61  0.00  8.92
Si -5.62  1.17  7.33
Si  5.66 -1.15 -7.30
Si -8.72 -2.29  2.37
Si -8.67  2.35 -2.49
Si  4.74 -3.47 -7.24
Si -0.38  5.87  7.24
Si  1.72 -2.25  8.89
Si -1.77 -2.32  8.88
Si -1.67  2.35 -8.89
Si  7.35 -1.15 -5.67
Si  1.71  2.33 -8.90
Si  0.37 -5.77 -7.36
Si  8.71  2.38 -2.49
Si -7.36  1.19  5.68
Si -4.68  3.53  7.32
Si  7.32 -5.81 -0.85
Si  7.76 -4.67  2.46
Si  1.36  5.79 -7.27
Si  7.79  4.63  2.50
Si -1.42 -5.76  7.29
Si -4.78 -5.80 -5.67
Si -7.38  5.82  0.83
Si  4.74 -8.11  0.84
Si -7.87 -4.63 -2.43
Si -7.83  4.70 -2.44
Si  4.83  5.82  5.71
Si -5.12  6.88 -4.04
Si -4.69  8.21 -0.84
Si  5.14 -6.95  4.06
Si -2.08  5.83 -7.30
Si  5.30  6.88 -4.04
Si  2.13 -5.80  7.33
Si -0.97 -9.26  2.37
Si  0.79 -9.29 -2.40
Si -5.28 -6.95  4.06
Si -0.74  9.32  2.43
Si  0.96  9.36 -2.49
Si  6.45  1.14 -7.23
Si -3.44 -2.36 -8.84
Si  3.09  5.84  7.25
Si  8.61 -2.33 -4.07
Si  9.14  3.46  0.84
Si -9.16 -3.48 -0.81
Si -8.65  2.31  4.05
Si -5.69 -3.47 -7.24
Si -7.72  4.61  4.02
Si  3.49 -2.32 -8.91
Si  3.46  2.31  8.93
Si -3.38  2.35  8.95
Si -3.12 -5.84 -7.30
Si -6.53 -1.14  7.30
Si -8.70 -2.29 -4.05
Si  9.56 -0.11  2.47
Si  8.69  2.34  4.06
Si  5.64 -5.80 -5.67
Si -9.58 -0.01 -2.44
Si -5.59  5.82  5.71
Si  4.32 -0.03 -8.89
Si -5.68 -8.11  0.84
Si  0.57  8.15 -5.67
Si  7.78 -4.65 -4.08
Si -0.53 -8.13  5.71
Si -4.32 -0.04  8.96
Si -7.81 -4.68  4.02
Si  5.74  3.53  7.32
Si  2.43 -9.32  2.50
Si -2.52  9.32 -2.43
Si -2.76 -9.25 -2.44
Si  2.69  9.28  2.46
Si  7.41  3.52  5.67
Si -0.76  4.62 -8.84
Si -1.20  8.18  5.66
Si  3.77 -5.83 -7.23
Si -7.49 -3.49 -5.68
Si  7.89  4.69 -4.07
Si  1.28 -8.16 -5.71
Si  5.73  8.21 -0.84
Si  0.91  4.65  8.88
Si -0.97 -4.65 -8.90
Si 10.00  1.17 -0.85
Si -6.90  6.97 -2.44
Si  0.78 -4.67  8.93
Si -3.85  5.83  7.30
Si -8.27 -1.15  5.71
Si  8.32  1.17 -5.67
Si -8.27 -5.81  0.82
Si  2.21  8.13  5.67
Si -10.06 -1.16  0.83
Si -0.95 -9.27 -4.05
Si -0.80  9.29 -4.06
Si  6.88 -7.08  2.47
Si -2.25 -8.15 -5.68
Si  0.71 -9.31  4.07
Si -7.03 -6.96  2.49
Si  0.94  9.32  4.06
Si  8.38  5.83 -0.78
Si  7.08  7.01 -2.41
Si  9.50 -0.00 -4.08
Si  2.93 -8.14  5.67
Si -3.02  8.12 -5.66
Si -9.55  0.01  4.01
Si -6.45  3.44 -7.38
Si -2.53  4.68  8.93
Si  7.37 -1.11  7.24
Si  6.49 -3.48  7.34
Si -2.45  9.27  4.02
Si -6.41  8.16  0.76
Si -6.55 -5.77  5.66
Si -2.63 -4.70  8.92
Si  2.60 -4.66 -8.95
Si  2.54 -9.26 -4.07
Si -0.30 10.43 -0.77
Si  6.46 -8.19 -0.81
Si  2.67  4.67 -8.97
Si  4.22 -9.27 -2.42
Si  4.84  5.82 -7.25
Si -7.38  1.20 -7.36
Si  6.63  5.79 -5.71
Si -2.65 -9.34  4.02
Si  2.71  9.30 -4.08
Si -4.87 -5.78  7.31
Si  8.16 -3.49  5.66
Si -4.24  9.31  2.48
Si  0.30 -10.49  0.84
Si  0.85 -0.00 10.52
Si  1.39 10.43  0.84
Si  9.94 -3.49  0.79
Si  6.82 -6.98 -4.08
Si -5.14  2.31 -8.95
Si -1.41 -10.46 -0.81
Si -6.87  6.98  4.01
Si -5.21 -2.30  8.93
Si  5.21 -2.30  8.93
Si -8.21  3.50 -5.72
Si -9.98  3.48 -0.86
Si  4.43  9.32 -2.49
Si -4.46 -9.33  2.43
Si -0.90 -0.01 -10.59
Si  6.95  6.97  4.05
Si  5.28  2.31 -8.95
Si -2.09 10.44  0.84
Si -3.98 -8.14  5.65
Si -7.03 -6.94 -4.06
Si  4.04  8.09 -5.71
Si  2.09 -10.50 -0.77
Si -0.01 -2.31 10.49
Si -9.03  5.76 -0.81
Si -9.06  1.12 -5.71
Si  0.05  2.27 -10.54
Si -6.10 -0.03 -8.89
Si  9.12 -1.16  5.65
Si  9.08 -5.79  0.76
Si  6.10 -0.04  8.96
Si -5.58  5.82 -7.25
Si  5.55 -5.78  7.31
Si  9.49 -4.63 -2.49
Si  2.61  0.00 -10.54
Si -9.53  4.62  2.43
Si 10.34 -2.28 -2.44
Si 10.79 -1.16  0.83
Si -2.62 -0.03 10.57
Si -0.51 -8.13 -7.25
Si  7.27 -5.82  5.67
Si -4.25  4.65 -8.91
Si  9.57  4.68 -2.42
Si -4.34 -4.63 -8.89
Si -7.32  5.80 -5.68
Si -7.36 -3.45  7.32
Si -10.41  2.30  2.46
Si  3.12 10.45 -0.86
Si  7.41  3.50 -7.24
Si  1.72 -2.25 -10.57
Si  1.71  2.33 10.56
Si -1.30  8.12 -7.23
Si -9.60 -4.64  2.48
Si -10.85  1.17 -0.85
Si  4.67 -8.12 -5.67
Si -1.67  2.35 10.57
Si -3.16 -10.46  0.79
Si 10.44  2.30  2.46
Si  0.49  8.17  7.31
Si -1.77 -2.32 -10.58
Si  4.36 -4.63  8.95
Si  1.21 -8.12  7.30
Si  4.39  4.72  8.89
Si -4.68  8.17  5.68
Si -4.25  9.31 -4.03
Si -7.40 -8.12 -0.78
Si  4.30 -9.29  4.06
Si -10.51 -2.28 -2.44
Si -8.26 -1.15 -7.25
Si  4.45  9.29  4.05
Si  8.23  1.19  7.31
Si  7.51  8.14  0.82
Si -4.49 -9.31 -4.07
Si -2.27 -8.11  7.25
Si  2.23  8.10 -7.30
Si -3.80 10.46 -0.81
Si  3.78 -10.49  0.84
Si  0.05  6.94 -8.89
Si -8.61  6.87  2.47
Si -3.38  2.35 -10.51
Si  3.46  2.31 -10.53
Si -0.07 -6.97  8.92
Si  2.98 -8.12 -7.30
Si  9.16  3.51 -5.67
Si  8.59 -6.98 -2.44
Si  5.96 -9.33  2.43
Si  9.51 -4.66  4.05
Si -9.14 -3.58  5.69
Si -2.94  8.14  7.33
Si  3.49 -2.32 10.55
Si -4.32 -0.04 -10.50
Si -6.00  9.32 -2.49
Si -9.56  4.64 -4.07
Si -8.70 -6.94 -2.41
Si -10.39 -2.37  4.02
Si -10.39  2.32 -4.08
Si -9.61 -4.64 -4.03
Si -3.44 -2.36 10.62
Si  1.78  6.96  8.87
Si -6.21 -9.27 -2.42
Si  4.32 -0.03 10.57
Si  6.57  5.83  7.30
Si -6.65 -5.83 -7.23
Si  1.64 -7.00 -8.89
Si 10.86  3.48 -0.86
Si 10.45 -2.37  4.02
Si  6.18  9.31  2.48
Si -5.75 -8.12 -5.67
Si -1.64  6.94  8.96
Si  9.66  4.66  4.06
Si 10.46  2.32 -4.08
Si  8.75  6.99  2.49
Si -10.91 -3.49  0.79
Si  5.74  8.17  5.68
Si -1.82 -6.98 -8.94
Si  6.98 -2.36 -8.84
Si  9.95  1.16  5.67
Si  8.11 -8.13  0.83
Si -6.93 -2.32 -8.91
Si 11.27 -0.01 -2.44
Si -8.24  3.48  7.29
Si  0.78 -4.67 -10.53
Si  8.22 -3.60 -7.26
Si -11.29 -0.11  2.47
Si -9.99 -1.18 -5.68
Si -6.97  2.31  8.93
Si  4.87 10.46  0.79
