500
set: 1213.00  0.00  0.00
Si  0.72 -0.91  0.35
Si -0.36  1.27  0.65
Si -1.74 -0.86  0.46
Si -0.53  1.15 -1.69
Si  0.87 -0.97 -1.84
Si  2.14  1.31  0.63
Si -1.75 -0.92 -1.77
Si  1.91  1.10 -1.64
Si  0.92 -0.87  2.78
Si -0.31 -2.99  0.67
Si -0.30  1.15  2.92
Si -2.92  1.21  0.71
Si -1.54 -1.01  2.83
Si -0.45 -2.98 -1.58
Si  3.32 -0.92  0.64
Si  0.85  3.35  0.64
Si -2.94  1.42 -1.62
Si  2.13 -3.02  0.40
Si -1.59  3.39  0.40
Si  0.83  3.31 -1.60
Si  3.44 -0.93 -1.53
Si  2.25  1.23  2.91
Si -0.36  1.04 -3.98
Si -1.48  3.39 -1.84
Si  2.24 -3.02 -1.84
Si -2.71  1.33  2.98
Si -2.88 -3.06  0.64
Si -0.31 -3.11  2.91
Si -4.13 -0.92  0.64
Si  0.87 -0.98 -4.12
Si -4.02 -0.93 -1.53
Si  0.88  3.22  2.98
Si -1.60 -1.11 -4.07
Si -2.90 -3.10 -1.60
Si  2.19 -2.97  2.78
Si  3.38 -0.93  3.03
Si -1.53  3.45  2.78
Si  2.19  1.13 -3.99
Si  4.53  1.21  0.71
Si  3.43  3.43  0.67
Si -2.76  1.22 -3.91
Si  3.28  3.43 -1.58
Si  4.52  1.42 -1.62
Si  0.82  3.12 -3.92
Si -0.36 -3.21 -3.98
Si -4.08 -0.93  3.03
Si  3.32 -1.03 -3.86
Si  0.93 -0.86  5.06
Si -2.86 -3.19  2.98
Si  0.78 -4.99 -1.62
Si  0.80 -5.20  0.71
Si -4.03  3.43  0.67
Si -0.47  1.26  5.20
Si -1.59 -5.11  0.63
Si -1.70 -0.81  5.13
Si -5.31  1.31  0.63
Si  4.57 -3.06  0.64
Si -1.59  3.34 -4.12
Si -0.40  5.50  0.64
Si  2.13 -3.07 -4.12
Si  3.43  3.30  2.91
Si -4.17  3.43 -1.58
Si -0.28  5.49 -1.53
Si  4.55 -3.10 -1.60
Si  1.97  1.20  5.26
Si -4.13 -1.03 -3.86
Si  4.75  1.33  2.98
Si  5.71 -0.86  0.46
Si -1.82 -5.32 -1.64
Si -5.54  1.10 -1.64
Si -2.92 -3.30 -3.92
Si  2.00  5.55  0.46
Si -4.03  3.30  2.91
Si  1.01 -5.08  2.98
Si  5.70 -0.92 -1.77
Si -0.40 -2.88  5.32
Si -5.21  1.23  2.91
Si  1.98  5.50 -1.77
Si  3.37  3.20 -3.98
Si -1.49 -5.18  2.91
Si -5.33 -3.02  0.40
Si  3.35 -5.15  0.65
Si -2.88  1.52  5.28
Si  4.69  1.22 -3.91
Si  2.30 -2.92  5.06
Si -2.99  5.50  0.35
Si -0.34  5.48  3.03
Si -5.21 -3.02 -1.84
Si -1.42  3.50  5.06
Si  4.59 -3.19  2.98
Si  0.89  3.41  5.30
Si -0.42  1.16 -6.25
Si  3.19 -5.26 -1.69
Si -2.85  5.45 -1.84
Si  3.49 -0.82  5.37
Si  2.19  5.41  2.83
Si -4.08  3.20 -3.98
Si  0.96 -5.19 -3.91
Si -4.10 -5.15  0.65
Si  5.91 -1.01  2.83
Si -0.40  5.38 -3.86
Si -5.27 -2.97  2.78
Si  0.67 -1.01 -6.55
Si -5.26  1.13 -3.99
Si  2.09  1.20 -6.27
Si -3.96 -0.82  5.37
Si -2.85 -3.00  5.30
Si -1.80 -0.96 -6.44
Si  5.86  3.39  0.40
Si -1.54 -5.28 -3.99
Si -6.73 -0.91  0.35
Si -2.79  5.54  2.78
Si  4.54 -3.30 -3.92
Si -6.58 -0.97 -1.84
Si  3.42 -5.26  2.92
Si -2.98  1.11 -6.19
Si -0.36 -3.09 -6.23
Si -4.26 -5.26 -1.69
Si  2.13  5.30 -4.07
Si  4.46  5.50  0.35
Si  0.79  3.25 -6.26
Si  5.97  3.39 -1.84
Si  3.26 -1.02 -6.26
Si  4.58  1.52  5.28
Si -6.53 -0.87  2.78
Si  3.34  3.53  5.32
Si  5.85 -1.11 -4.07
Si  6.93  1.15 -1.69
Si  7.09  1.27  0.65
Si  0.84 -4.89  5.28
Si -4.04 -5.26  2.92
Si  0.78 -0.80  7.25
Si  4.61  5.45 -1.84
Si -0.41 -7.33  0.64
Si  5.92  3.45  2.78
Si -2.85  5.44 -4.12
Si -5.33 -3.07 -4.12
Si -6.60  3.35  0.64
Si -1.65  3.29 -6.50
Si  3.36 -5.37 -3.98
Si  2.07 -3.12 -6.50
Si -0.30 -7.34 -1.53
Si  1.98 -7.27  0.46
Si -6.62  3.31 -1.60
Si -1.68 -0.75  7.36
Si -4.12  3.53  5.32
Si -4.19 -1.02 -6.26
Si -2.94 -3.16 -6.26
Si -1.76 -5.21  5.26
Si  4.61 -3.00  5.30
Si -0.31  1.37  7.55
Si -5.48  1.20  5.26
Si  0.81  7.63  0.71
Si  4.48  1.11 -6.19
Si -0.23  5.59  5.37
Si  5.76 -0.81  5.13
Si  4.66  5.54  2.78
Si  7.00 -2.98 -1.58
Si  7.15 -2.99  0.67
Si -5.16 -2.92  5.06
Si  1.96 -7.33 -1.77
Si -5.46  5.55  0.46
Si  5.86 -5.11  0.63
Si  7.15  1.15  2.92
Si  3.37  3.32 -6.23
Si -6.59 -0.98 -4.12
Si -4.09 -5.37 -3.98
Si  2.04  5.60  5.13
Si -1.81  7.51 -1.64
Si -1.57  7.72  0.63
Si  5.86  3.34 -4.12
Si -6.58  3.22  2.98
Si  5.63 -5.32 -1.64
Si -3.01 -7.32  0.35
Si -7.82  1.27  0.65
Si -0.36 -7.34  3.03
Si -5.47  5.50 -1.77
Si  2.20  1.41  7.53
Si -2.79  5.55  5.06
Si  3.25 -5.16  5.20
Si  0.80  7.83 -1.62
Si -5.26  5.41  2.83
Si -0.25 -2.88  7.57
Si -2.86 -7.38 -1.84
Si -4.08  3.32 -6.23
Si  2.19 -2.92  7.30
Si  0.74 -5.30 -6.19
Si  7.09  1.04 -3.98
Si  4.60  5.44 -4.12
Si  2.17 -7.42  2.83
Si -1.53  3.50  7.30
Si  8.18 -0.91  0.35
Si -2.86  1.32  7.61
Si -7.98  1.15 -1.69
Si -0.46  5.39 -6.26
Si -2.81 -7.28  2.78
Si  3.38 -0.81  7.54
Si -6.53 -0.86  5.06
Si -6.63  3.12 -3.92
Si -1.47  7.65  2.91
Si -1.65 -5.21 -6.27
Si  7.15 -3.11  2.91
Si -5.37  1.20 -6.27
Si  4.51 -3.16 -6.26
Si -7.76 -2.99  0.67
Si  0.91  3.46  7.54
Si  1.03  7.74  2.98
Si -7.76  1.15  2.92
Si  3.21  7.56 -1.69
Si -0.41 -7.45 -3.86
Si  3.37  7.68  0.65
Si  5.97 -5.18  2.91
Si -4.20 -5.16  5.20
Si -6.66 -5.20  0.71
Si -6.67 -4.99 -1.62
Si -5.32  5.30 -4.07
Si  4.44 -7.32  0.35
Si -2.83 -2.95  7.54
Si  8.32 -0.97 -1.84
Si -7.91 -2.98 -1.58
Si -4.08 -0.81  7.54
Si  6.03  3.50  5.06
Si  5.66 -0.96 -6.44
Si  0.97  7.63 -3.91
Si  1.94  5.45 -6.44
Si -1.53  7.54 -3.99
Si -0.58  1.05 -8.59
Si -4.08  7.68  0.65
Si -6.44 -5.08  2.98
Si  7.09 -3.21 -3.98
Si  1.86  0.99 -8.54
Si  6.99  1.26  5.20
Si  3.43  7.56  2.92
Si  3.30 -5.25 -6.25
Si  2.12 -7.52 -4.07
Si -7.81  1.04 -3.98
Si -4.24  7.56 -1.69
Si  0.81 -1.07 -8.73
Si  4.66  5.55  5.06
Si -7.76 -3.11  2.91
Si  8.38 -0.87  2.78
Si  5.91 -5.28 -3.99
Si  4.59 -7.38 -1.84
Si -1.81 -1.02 -8.66
Si -2.87 -7.39 -4.12
Si  7.06  5.50  0.64
Si  8.30  3.35  0.64
Si  4.59  1.32  7.61
Si -5.38 -3.12 -6.50
Si -0.24 -7.23  5.37
Si -3.05  5.40 -6.55
Si -0.51 -3.09 -8.48
Si  3.49  3.53  7.57
Si -4.02  7.56  2.92
Si  8.29  3.31 -1.60
Si  4.64 -7.28  2.78
Si  2.02 -7.22  5.13
Si  3.38  7.46 -3.98
Si -6.56  3.41  5.30
Si -5.47 -7.27  0.46
Si  0.78  3.21 -8.50
Si -2.99  1.32 -8.52
Si  3.38 -1.03 -8.43
Si  7.17  5.49 -1.53
Si -4.16 -5.25 -6.25
Si -1.53 -5.00  7.53
Si -6.50 -5.19 -3.91
Si  0.85 -5.09  7.61
Si -3.97  3.53  7.57
Si -9.19 -0.86  0.46
Si -5.25  1.41  7.53
Si  7.06 -2.88  5.32
Si -2.81 -7.28  5.06
Si  5.81  3.29 -6.50
Si  4.62 -2.95  7.54
Si -5.49 -7.33 -1.77
Si -5.42  5.60  5.13
Si  5.69 -5.21  5.26
Si  8.32 -0.98 -4.12
Si -7.82 -3.21 -3.98
Si  5.77 -0.75  7.36
Si -4.08  7.46 -3.98
Si -0.34  5.60  7.54
Si -1.75  7.61  5.26
Si  8.33  3.22  2.98
Si -4.07 -1.03 -8.43
Si -9.21 -0.92 -1.77
Si -1.54  3.29 -8.74
Si -5.27 -2.92  7.30
Si  7.03  1.16 -6.25
Si  7.11  5.48  3.03
Si -6.79 -1.01 -6.55
Si -9.00 -1.01  2.83
Si  2.05  5.66  7.36
Si  0.83 -9.47  0.64
Si  2.18 -3.13 -8.74
Si -5.28 -7.42  2.83
Si  5.65  7.51 -1.64
Si -2.96 -3.21 -8.50
Si -7.92  1.26  5.20
Si  4.40  5.40 -6.55
Si  0.86  7.94  5.28
Si  9.37  1.10 -1.64
Si -1.61 -9.43  0.40
Si -7.85  5.50  0.64
Si -7.74  5.49 -1.53
Si -2.94  5.61  7.25
Si  4.59 -7.39 -4.12
Si  3.23  3.32 -8.48
Si -9.04  3.39  0.40
Si  8.27  3.12 -3.92
Si  7.06  5.38 -3.86
Si  0.82 -9.52 -1.60
Si  3.41 -5.04  7.55
Si -6.66  3.25 -6.26
Si  9.60  1.31  0.63
Si  4.46  1.32 -8.52
Si  5.88  7.72  0.63
Si -1.50 -9.43 -1.84
Si -0.47 -7.43 -6.26
Si -8.93  3.39 -1.84
Si  0.98 -0.77  9.68
Si  8.24 -4.99 -1.62
Si  0.76  7.52 -6.19
Si -6.61 -4.89  5.28
Si  8.25 -5.20  0.71
Si  3.27  7.67  5.20
Si  8.38 -0.86  5.06
Si -0.29  9.84  0.67
Si -1.49 -0.90  9.72
Si -6.67 -0.80  7.25
Si -0.25  1.25  9.82
Si -1.55 -9.38  2.78
Si -7.85 -2.88  5.32
Si  7.09 -3.09 -6.23
Si -4.04 -5.04  7.55
Si  0.73 -5.10 -8.52
Si -0.44  9.84 -1.58
Si  1.92 -7.38 -6.44
Si -9.06 -1.11 -4.07
Si -1.63  7.61 -6.27
Si -7.79  5.48  3.03
Si  4.65 -7.28  5.06
Si -0.34  5.38 -8.43
Si  5.81 -5.21 -6.27
Si -8.99  3.45  2.78
Si  3.41 -9.40  0.67
Si  5.92  3.50  7.30
Si -4.23  3.32 -8.48
Si  2.14  9.80  0.40
Si  9.58 -3.02  0.40
Si  3.27 -9.40 -1.58
Si -5.51  5.45 -6.44
Si -5.34 -7.52 -4.07
Si  0.86 -9.60  2.98
Si -7.88  1.16 -6.25
Si  4.50 -3.21 -8.50
Si  5.98  7.65  2.91
Si -6.64  7.63  0.71
Si -0.29  9.71  2.91
Si  2.31  1.34  9.81
Si -4.19  7.67  5.20
Si  7.04 -7.33  0.64
Si -2.87  9.77  0.64
Si  9.70  1.23  2.91
Si  4.52  5.61  7.25
Si  2.26  9.80 -1.84
Si -4.04 -9.40  0.67
Si -5.60  0.99 -8.54
Si -0.25 -3.01  9.81
Si -2.89  9.72 -1.60
Si -7.85  5.38 -3.86
Si -1.88 -5.42 -8.54
Si  8.47 -5.08  2.98
Si  9.69 -3.02 -1.84
Si -2.65  1.43  9.88
Si  2.24 -2.86  9.68
Si  7.16 -7.34 -1.53
Si  3.31  7.57 -6.25
Si -3.07 -7.42 -6.55
Si  1.92  5.39 -8.66
Si  5.93  7.54 -3.99
Si  5.64 -1.02 -8.66
Si -5.43 -7.22  5.13
Si -6.65  7.83 -1.62
Si -9.04 -5.11  0.63
Si -4.19 -9.40 -1.58
Si -0.35  9.61 -3.98
Si -1.48  3.55  9.68
Si -0.36 -7.22  7.54
Si  8.34  3.41  5.30
Si  9.64 -2.97  2.78
Si -1.61 -9.48 -4.12
Si -7.82 -3.09 -6.23
Si  0.93  3.33  9.88
Si -10.38  1.21  0.71
Si  2.04 -7.17  7.36
Si -2.84  9.63  2.98
Si  2.20  9.86  2.78
Si  7.14  1.37  7.55
Si -9.04  3.34 -4.12
Si  8.12 -1.01 -6.55
Si -6.42  7.74  2.98
Si  9.65  1.13 -3.99
Si  0.80 -9.71 -3.92
Si -9.15 -0.81  5.13
Si  3.41 -9.52  2.91
Si  3.44 -0.82  9.93
Si -6.71 -5.30 -6.19
Si -6.55  3.46  7.54
Si  7.23  5.59  5.37
Si  3.14 -5.37 -8.59
Si -10.39  1.42 -1.62
Si  8.41 -5.19 -3.91
Si -2.90  5.34 -8.73
Si -2.95 -7.22  7.25
Si  7.10 -7.34  3.03
Si -4.14  7.57 -6.25
Si -10.16  1.33  2.98
Si -5.27 -3.13 -8.74
Si -2.90  9.53 -3.92
Si -1.44 -9.33  5.06
Si -2.80 -3.09  9.88
Si -8.94 -5.18  2.91
Si -5.40  5.66  7.36
Si -4.02 -0.82  9.93
Si -4.04 -9.52  2.91
Si -6.48  7.63 -3.91
Si -7.87 -7.33  0.64
Si -7.75 -7.34 -1.53
Si -8.88  3.50  5.06
Si -10.34 -3.06  0.64
Si  2.15  9.75 -4.12
Si  5.92 -5.00  7.53
Si  4.58  9.77  0.64
Si -9.28 -5.32 -1.64
Si  7.00  5.39 -6.26
Si  4.39 -7.42 -6.55
Si 10.78 -0.92  0.64
Si  0.87 -9.41  5.30
Si  7.21 -2.88  7.57
Si  8.25  3.25 -6.26
Si  9.42  1.20  5.26
Si  4.57  9.72 -1.60
Si  5.71  7.61  5.26
Si  9.58 -3.07 -4.12
Si  0.87  7.73  7.61
Si -7.68  5.59  5.37
Si -7.76  1.37  7.55
Si -0.42  0.94 -10.88
Si -10.36 -3.10 -1.60
Si  3.35 -9.63 -3.98
Si  7.04 -7.45 -3.86
Si  3.48  3.41  9.81
Si -1.52  7.82  7.53
Si  9.45  5.55  0.46
Si  8.29 -4.89  5.28
Si  8.23 -0.80  7.25
Si -10.21  1.22 -3.91
Si -4.32 -5.37 -8.59
Si -6.64 -1.07 -8.73
Si 10.89 -0.93 -1.53
Si  6.87  1.05 -8.59
Si  5.92  3.29 -8.74
Si  9.43  5.50 -1.77
Si  4.81  1.43  9.88
Si  4.61  9.63  2.98
Si  0.81 -1.08 -11.02
Si  5.85 -9.43  0.40
Si  1.07 -4.98  9.88
Si -3.97  3.41  9.81
Si -1.43 -5.07  9.81
Si  2.13  1.02 -10.88
Si -7.81 -7.34  3.03
Si -5.31  9.80  0.40
Si -5.15  1.34  9.81
Si -1.66 -1.22 -10.97
Si -9.00 -5.28 -3.99
Si  4.50 -7.22  7.25
Si -7.70 -2.88  7.57
Si -4.10 -9.63 -3.98
Si -10.31 -3.19  2.98
Si  4.55  5.34 -8.73
Si  3.32 -9.29  5.32
Si -2.82  1.12 -10.81
Si -5.53 -7.38 -6.44
Si -5.20  9.80 -1.84
Si  0.76  3.01 -10.81
Si -0.35 -7.44 -8.43
Si  4.55  9.53 -3.92
Si  8.27  7.63  0.71
Si -6.68  3.21 -8.50
Si -0.38  9.95  5.32
Si -6.60 -5.09  7.61
Si 10.83 -0.93  3.03
Si  3.27 -1.14 -10.76
Si  5.96 -9.43 -1.84
Si -9.25 -0.96 -6.44
Si  4.65 -3.09  9.88
Si -5.21 -2.86  9.68
