500
set: 689.00  0.00  0.00
Si  0.86 -0.54 -0.37
Si  0.14  1.03  1.40
Si -1.12 -1.42 -1.36
Si -2.11  0.78  1.72
Si  2.04  0.78 -1.86
Si  1.15 -2.61  0.66
Si -2.95  0.13 -0.35
Si  1.03  2.95  0.65
Si  0.69  2.78 -1.73
Si  1.18 -1.90  2.85
Si  1.53  0.45  3.63
Si  3.30  2.29  1.06
Si -1.63 -1.32 -3.60
Si -3.29  2.36 -1.48
Si -1.47  2.95 -2.81
Si -2.24 -3.55 -1.06
Si -2.23  3.28  2.16
Si  4.26  1.17 -1.01
Si -0.09 -4.54  0.02
Si -1.21  0.89 -4.31
Si -3.19 -0.35  3.36
Si  2.42 -0.37 -3.95
Si  3.50 -3.23  0.81
Si -0.19  4.58  1.68
Si -0.47 -3.12  3.82
Si -2.67 -2.63  3.26
Si -5.12 -0.39 -0.67
Si  3.78  1.53  3.20
Si -3.87 -3.28  1.37
Si  0.92  0.90 -5.14
Si  1.47  3.11 -4.24
Si  1.89 -2.63 -4.41
Si -3.52 -2.67 -3.38
Si -3.85  4.01  0.43
Si -0.37 -2.84 -4.86
Si  5.34 -1.58  1.13
Si  0.88 -5.41 -1.97
Si  3.82  4.02 -1.82
Si  5.81 -0.39 -0.67
Si -5.58 -1.58  1.13
Si  0.92  0.90  5.79
Si  0.88  5.52 -1.97
Si -2.08  3.18  4.57
Si  2.62 -4.48 -2.89
Si  4.38 -3.79 -1.47
Si  2.90 -3.13  4.26
Si  5.43 -1.92 -2.36
Si -3.13  1.17  5.27
Si  5.46 -0.38  3.05
Si -5.46 -0.38  3.05
Si -5.50 -1.92 -2.36
Si -0.81 -4.89 -3.90
Si -0.09  6.39  0.02
Si  4.80  4.26  0.37
Si  5.45  2.45 -2.47
Si -5.48  2.45 -2.47
Si  0.49 -5.38  3.63
Si  4.81 -0.71 -4.37
Si -0.19 -6.35  1.68
Si -3.13  1.17 -5.66
Si  0.49  5.55  3.63
Si -4.28 -4.99 -1.06
Si -2.95  5.22 -2.92
Si -0.37 -2.84  6.07
Si  3.84 -5.21  1.79
Si -0.19  4.36 -5.14
Si -1.21  0.89  6.62
Si -6.67  1.17 -1.01
Si -5.13  1.30 -4.60
Si  2.85  5.35  3.60
Si -2.95 -5.71 -2.92
Si  4.96 -2.01  4.64
Si  3.84  5.72  1.79
Si -4.19  4.07  4.08
Si  2.85 -5.58  3.60
Si -0.81  6.04 -3.90
Si -0.19  4.36  5.79
Si  1.89 -2.63  6.52
Si  5.00  2.79  4.61
Si  3.16  3.97  5.33
Si -4.06 -3.31  5.19
Si  2.42 -0.37  6.98
Si -4.28  5.94 -1.06
Si -4.67 -5.27  2.28
Si -2.08  3.18 -6.36
Si  1.53  0.45 -7.30
Si -6.12  4.26  0.37
Si  5.80  1.30 -4.60
Si  1.47  3.11  6.70
Si  2.62  6.45 -2.89
Si -6.12 -0.71 -4.37
Si  3.16  3.97 -5.60
Si -1.63 -1.32  7.33
Si -4.67  5.66  2.28
Si  4.21  5.18 -3.83
Si -6.55 -3.79 -1.47
Si -4.06 -3.31 -5.74
Si -0.47 -3.12 -7.11
Si -2.24  7.38 -1.06
Si -5.97 -2.01  4.64
Si  7.06 -3.28  1.37
Si  2.90 -3.13 -6.67
Si -3.85 -6.92  0.43
Si -7.15  1.53  3.20
Si  7.98  0.13 -0.35
Si -5.93  2.79  4.61
Si -7.63  2.29  1.06
Si  1.03 -7.98  0.65
Si  4.21 -5.75 -3.83
Si  3.82 -6.91 -1.82
Si  7.64  2.36 -1.48
Si -7.43 -3.23  0.81
Si  7.08  4.01  0.43
Si  4.81 -0.71  6.56
Si -3.19 -0.35 -7.57
Si  4.80 -6.67  0.37
Si -5.13  1.30  6.33
Si -2.23 -7.65  2.16
Si  4.96 -2.01 -6.29
Si -0.19 -6.57 -5.14
Si  0.69 -8.15 -1.73
Si -7.11  4.02 -1.82
Si  1.18 -1.90 -8.08
Si  6.65 -4.99 -1.06
Si  1.15  8.32  0.66
Si  7.74 -0.35  3.36
Si  6.26 -5.27  2.28
Si  3.50  7.70  0.81
Si  4.38  7.14 -1.47
Si  5.00  2.79 -6.32
Si -2.67 -2.63 -7.67
Si  7.42 -2.67 -3.38
Si -1.47 -7.98 -2.81
Si -0.81 -4.89  7.03
Si -3.87  7.65  1.37
Si  5.80  1.30  6.33
Si -4.55 -5.43 -5.04
Si -0.47  7.81  3.82
Si -4.55  5.50 -5.04
Si  3.78  1.53 -7.73
Si -3.52 -2.67  7.55
Si  6.26  5.66  2.28
Si -0.19 -6.57  5.79
Si -1.47  2.95  8.12
Si  6.74  4.07  4.08
Si -5.97 -2.01 -6.29
Si  6.65  5.94 -1.06
Si -7.09 -5.21  1.79
Si -6.12 -0.71  6.56
Si -4.19  4.07 -6.85
Si -4.19 -6.86  4.08
Si  8.82  0.78  1.72
Si  1.47 -7.82 -4.24
Si -6.12 -6.67  0.37
Si  0.49 -5.38 -7.29
Si -5.93  2.79 -6.32
Si -8.89  0.78 -1.86
Si  0.49  5.55 -7.29
Si -4.55 -5.43  5.89
Si  6.87 -3.31  5.19
Si -2.08 -7.75  4.57
Si -4.55  5.50  5.89
Si  8.26 -2.63  3.26
Si -7.09  5.72  1.79
Si -3.29 -8.57 -1.48
Si -2.67  8.29  3.26
Si -0.81  6.04  7.03
Si  3.30 -8.64  1.06
Si -6.72  5.18 -3.83
Si  3.16 -6.96  5.33
Si  2.04  0.78  9.07
Si  2.90  7.80  4.26
Si -8.51 -0.37 -3.95
Si  8.69 -3.55 -1.06
Si -0.37  8.09 -4.86
Si  3.16 -6.96 -5.60
Si -2.11  0.78 -9.21
Si  7.80  1.17  5.27
Si  2.85  5.35 -7.33
Si  8.70  3.28  2.16
Si  6.87 -3.31 -5.74
Si  1.18  9.03  2.85
Si  2.62 -4.48  8.04
Si  0.14  1.03 -9.53
Si  1.89  8.30 -4.41
Si -3.52  8.26 -3.38
Si  5.46 -0.38 -7.88
Si -5.46 -0.38 -7.88
Si -8.03 -3.13  4.26
Si -2.23  3.28 -8.77
Si  0.69  2.78  9.21
Si -6.72 -5.75 -3.83
Si  2.85 -5.58 -7.33
Si -1.12  9.51 -1.36
Si  7.80  1.17 -5.66
Si  4.21  5.18  7.10
Si -1.12 -1.42  9.57
Si  6.38 -5.43 -5.04
Si -6.55  7.14 -1.47
Si  6.38  5.50 -5.04
Si -8.31 -4.48 -2.89
Si  7.08 -6.92  0.43
Si  7.98  5.22 -2.92
Si  0.14 -9.90  1.40
Si  9.81 -1.42 -1.36
Si -2.95  5.22  8.01
Si  4.21 -5.75  7.10
Si  9.30 -1.32 -3.60
Si -4.06  7.62  5.19
Si -7.11 -6.91 -1.82
Si -9.40  0.45  3.63
Si -10.07 -0.54 -0.37
Si -0.37  8.09  6.07
Si -9.78 -2.61  0.66
Si -7.77  3.97  5.33
Si  7.98 -5.71 -2.92
Si -2.08 -7.75 -6.36
Si  6.38 -5.43  5.89
Si -2.95 -5.71  8.01
Si  6.38  5.50  5.89
Si -3.29  2.36  9.46
Si  9.46  2.95 -2.81
Si -0.19  4.58 -9.25
Si  5.43 -1.92  8.57
Si -9.75 -1.90  2.85
Si -8.08  5.35  3.60
Si -9.90  2.95  0.65
Si  5.45  2.45  8.46
Si -7.77  3.97 -5.60
Si -5.50 -1.92  8.57
Si -4.06  7.62 -5.74
Si -5.48  2.45  8.46
Si  5.45 -8.48 -2.47
Si -1.63  9.61 -3.60
Si -5.48 -8.48 -2.47
Si -9.04 -2.63 -4.41
Si  1.47 -7.82  6.70
Si  0.86 10.39 -0.37
Si  6.74  4.07 -6.85
Si  6.74 -6.86  4.08
Si  8.85  3.18  4.57
Si -8.08 -5.58  3.60
Si  0.88 -5.41  8.96
Si  7.06  7.65  1.37
Si -2.11 -10.15  1.72
Si  2.04 -10.15 -1.86
Si -4.19 -6.86 -6.85
Si  0.88  5.52  8.96
Si -0.47  7.81 -7.11
Si  5.00 -8.14  4.61
Si  0.86 -0.54 10.56
Si  3.78 -9.40  3.20
Si  2.62  6.45  8.04
Si -7.15  1.53 -7.73
Si  3.30  2.29 -9.87
Si  1.15 -2.61 -10.27
Si  2.90  7.80 -6.67
Si  3.82  4.02  9.11
Si  9.72  0.89 -4.31
Si  4.26 -9.76 -1.01
Si  1.89  8.30  6.52
Si -2.24 -3.55  9.87
Si -7.43  7.70  0.81
Si -10.24  2.78 -1.73
Si  1.03  2.95 -10.29
Si  5.43  9.01 -2.36
Si -5.50  9.01 -2.36
Si -3.87 -3.28 -9.56
Si -9.46  3.11 -4.24
Si  5.34  9.35  1.13
Si  7.74 -0.35 -7.57
Si  4.26  1.17  9.91
Si -8.03 -3.13 -6.67
Si -8.31  6.45 -2.89
Si  7.42 -2.67  7.55
Si -10.79  1.03  1.40
Si -5.58  9.35  1.13
Si -2.95  0.13 10.58
Si -1.21 -10.04 -4.31
Si -8.51 -0.37  6.98
Si -6.72  5.18  7.10
Si -5.93 -8.14  4.61
Si  4.38 -3.79  9.46
Si -4.67 -5.27 -8.65
Si  3.50 -3.23 -10.12
Si  1.53 -10.48  3.63
Si -2.95 -10.80 -0.35
Si  3.84 -5.21 -9.14
Si  4.96  8.92  4.64
Si 11.07  1.03  1.40
Si -0.19 -6.35 -9.25
Si  5.34 -1.58 -9.80
Si -10.01  0.90 -5.14
Si  0.92 -10.04 -5.14
Si -6.72 -5.75  7.10
Si -4.67  5.66 -8.65
Si  0.86 -0.54 -11.30
Si  8.85  3.18 -6.36
Si -5.58 -1.58 -9.80
Si  3.84  5.72 -9.14
Si -9.04 -2.63  6.52
Si  8.69  7.38 -1.06
Si -2.95 11.06 -0.35
Si  5.00 -8.14 -6.32
Si -5.12 -0.39 10.27
Si -1.47 -7.98  8.12
Si  6.87  7.62  5.19
Si  0.86 -11.47 -0.37
Si -3.13 -9.76  5.27
Si  2.42 10.56 -3.95
Si -3.19 10.58  3.36
Si 10.46 -3.12  3.82
Si  7.64 -8.57 -1.48
Si -7.63 -8.64  1.06
Si  8.26 -2.63 -7.67
Si -10.05 -5.41 -1.97
Si -10.01  0.90  5.79
Si  7.42  8.26 -3.38
Si -2.67  8.29 -7.67
Si  0.92 -10.04  5.79
Si -10.05  5.52 -1.97
Si -2.95  0.13 -11.28
Si -5.97  8.92  4.64
Si -3.13 -9.76 -5.66
Si -7.77 -6.96  5.33
Si -3.52  8.26  7.55
Si -5.12 10.54 -0.67
Si 10.84 -4.54  0.02
Si  6.87  7.62 -5.74
Si  8.70 -7.65  2.16
Si  9.72  0.89  6.62
Si 10.74  4.58  1.68
Si  5.81 -0.39 10.27
Si  6.74 -6.86 -6.85
Si 11.79 -0.54 -0.37
Si -0.09 -4.54 -10.91
Si -7.77 -6.96 -5.60
Si -5.13 -9.63 -4.60
Si -0.09 -4.54 10.95
Si -2.23 -7.65 -8.77
Si -4.28 -4.99  9.87
Si -6.67 -9.76 -1.01
Si -3.85  4.01 -10.50
Si -5.93 -8.14 -6.32
Si 10.12 -4.89 -3.90
Si  6.26 -5.27 -8.65
Si -9.40  0.45 -7.30
Si  9.30 -1.32  7.33
Si -11.02 -4.54  0.02
Si  1.15 -2.61 11.59
Si 10.56 -2.84 -4.86
Si -8.03  7.80  4.26
Si  4.96  8.92 -6.29
Si  1.03  2.95 11.57
Si -9.46  3.11  6.70
Si -6.67  1.17  9.91
Si -2.11 11.71  1.72
Si  2.04 11.71 -1.86
Si  0.14 11.96  1.40
Si  1.53 11.38  3.63
Si  3.82 -6.91  9.11
Si  5.81 10.54 -0.67
Si 11.62  2.78 -1.73
Si  6.26  5.66 -8.65
Si -1.21 -10.04  6.62
Si  4.81 10.22 -4.37
Si -6.55 -3.79  9.46
Si -11.12  4.58  1.68
Si  5.80 -9.63 -4.60
Si -8.08  5.35 -7.33
Si  8.26  8.29  3.26
Si  1.18  9.03 -8.08
Si -1.63  9.61  7.33
Si -3.19 -11.28  3.36
Si -12.05 -1.42 -1.36
Si  2.42 -11.30 -3.95
Si -7.15 -9.40  3.20
Si -7.11  4.02  9.11
Si -8.08 -5.58 -7.33
Si  5.46 10.55  3.05
Si -5.46 10.55  3.05
Si -4.28  5.94  9.87
Si -10.44 -5.38  3.63
Si  0.69 -8.15  9.21
Si  7.06 -3.28 -9.56
Si 11.96  2.95  0.65
Si  4.80  4.26 -10.56
Si -10.44  5.55  3.63
Si  0.14  1.03 12.33
Si 12.08 -2.61  0.66
Si  7.64  2.36  9.46
Si -8.31 -4.48  8.04
Si 10.12  6.04 -3.90
Si -1.12 -1.42 -12.29
Si -11.40 -3.12  3.82
Si -5.12 -11.32 -0.67
Si -5.97  8.92 -6.29
Si  7.98  5.22  8.01
Si -1.12 -12.35 -1.36
Si 10.56 -2.84  6.07
Si -2.24  7.38  9.87
Si 10.84  6.39  0.02
Si 12.11 -1.90  2.85
Si 10.74 -6.35  1.68
Si -5.13 -9.63  6.33
Si  8.85 -7.75  4.57
Si -11.30 -2.84 -4.86
Si -1.21 11.82 -4.31
Si  4.38  7.14  9.46
Si -0.09  6.39 -10.91
Si -3.85  4.01 11.36
Si  3.30  2.29 11.99
Si  7.98 -5.71  8.01
Si  3.50 -3.23 11.74
Si 10.74  4.36 -5.14
Si -0.09  6.39 10.95
Si -5.12 -0.39 -11.60
Si -7.63  2.29 -9.87
Si -6.12 10.22 -4.37
Si -7.09 -5.21 -9.14
Si  9.46 -7.98 -2.81
Si -2.24 -3.55 -11.99
Si -8.89  0.78  9.07
Si -9.90 -7.98  0.65
Si  4.26  1.17 -11.95
Si -11.02  6.39  0.02
Si  5.81 -11.32 -0.67
Si  3.78 -9.40 -7.73
Si  8.82  0.78 -9.21
Si  8.70  3.28 -8.77
Si -9.75 -1.90 -8.08
Si  9.46  2.95  8.12
Si -3.87  7.65 -9.56
Si -2.11  0.78 12.65
Si -9.78  8.32  0.66
Si  1.53 -10.48 -7.30
Si  4.26 12.10 -1.01
Si -1.63 -12.25 -3.60
Si  2.42 10.56  6.98
Si  5.80 -9.63  6.33
Si -7.09  5.72 -9.14
Si  6.65 -4.99  9.87
Si -12.13  0.89 -4.31
Si -11.12 -6.35  1.68
Si  5.46 -11.31  3.05
Si -5.46 -11.31  3.05
Si -6.12  4.26 -10.56
Si  0.92 11.83 -5.14
Si 11.85  0.90 -5.14
Si 10.74  4.36  5.79
Si -7.43 -3.23 -10.12
Si  2.04  0.78 -12.79
Si  0.69  2.78 -12.65
Si  5.81 -0.39 -11.60
Si -9.46 -7.82 -4.24
Si 12.46  0.45  3.63
Si  4.80  4.26 11.30
Si -11.12  4.36 -5.14
Si 10.46 -3.12 -7.11
Si -8.03  7.80 -6.67
Si -9.04  8.30 -4.41
Si -12.40  2.95 -2.81
Si -3.29  2.36 -12.41
Si  4.81 10.22  6.56
Si  1.03 -7.98 -10.29
Si 12.97  0.78 -1.86
Si -12.56 -1.32 -3.60
Si 11.81 -5.41 -1.97
Si 11.42 -5.38  3.63
Si -11.30 -2.84  6.07
Si -3.85 -6.92 -10.50
Si  5.45 -8.48  8.46
Si -5.48 -8.48  8.46
Si -3.29 -8.57  9.46
Si -13.04  0.78  1.72
Si 11.81  5.52 -1.97
Si  3.50  7.70 -10.12
Si  1.18 -12.83  2.85
Si  0.92 11.83  5.79
Si -10.24 -8.15 -1.73
Si 11.42  5.55  3.63
Si 11.85  0.90  5.79
Si -8.31  6.45  8.04
Si  7.98  0.13 10.58
Si 10.12 -4.89  7.03
Si  1.15  8.32 -10.27
Si -11.12  4.36  5.79
Si  5.34 -1.58 12.06
Si  7.08  4.01 -10.50
Si -11.74 -4.89 -3.90
Si  6.65  5.94  9.87
Si -3.87 -3.28 12.30
Si  4.81 -11.64 -4.37
Si  8.85 -7.75 -6.36
Si  4.80 -6.67 -10.56
Si -5.58 -1.58 12.06
Si -3.19 10.58 -7.57
Si  3.78 12.46  3.20
Si -0.19  4.58 12.61
Si  7.42  8.26  7.55
