500
set: 1520.00  0.00  0.00
Si  0.91  0.30 -0.30
Si -1.26 -0.86  0.57
Si  0.70 -1.62 -1.73
Si  0.29  2.42 -0.96
Si -2.67  0.37 -0.97
Si  2.62 -0.14  1.45
Si -1.41 -2.73 -0.96
Si  2.22 -2.55 -0.04
Si -2.17  2.60 -0.04
Si  3.42  0.37 -0.97
Si -0.51 -2.13  2.90
Si -3.48 -0.14  1.45
Si -2.26  0.36 -3.18
Si  1.59 -3.08  1.98
Si -2.81  2.07  1.98
Si -1.59  2.57 -2.65
Si -0.04 -0.36 -4.06
Si -0.93  1.92  3.67
Si  2.21 -0.13  3.66
Si -0.31 -0.20  4.32
Si  0.44  4.30  0.57
Si  1.19  3.03  2.90
Si  3.29  2.07  1.98
Si  2.40  3.53 -1.73
Si -3.87 -2.55 -0.04
Si  2.81 -2.58 -2.65
Si  3.92  2.60 -0.04
Si -0.79 -4.85 -0.30
Si  4.84 -0.86  0.57
Si -3.29 -2.58 -2.65
Si  3.84  0.36 -3.18
Si  1.73 -4.78 -0.97
Si -5.19  0.30 -0.30
Si -3.89 -0.13  3.66
Si -3.69  3.53 -1.73
Si  2.13  0.81 -4.93
Si  4.68 -2.73 -0.96
Si -1.78  5.01  1.45
Si -2.63 -3.23  3.67
Si  0.92 -5.29  1.45
Si  1.00 -3.05  4.59
Si -0.96  3.10 -4.67
Si -0.97  5.52 -0.97
Si  2.70  2.10  4.59
Si -2.66 -2.05 -4.67
Si -4.51 -3.08  1.98
Si  4.50  2.57 -2.65
Si -1.45  0.87 -5.59
Si -5.39 -1.62 -1.73
Si -2.48 -1.36  5.19
Si  3.47 -3.23  3.67
Si -0.19 -2.23 -5.58
Si  2.61  5.46 -0.30
Si -3.39  2.10  4.59
Si  2.14 -4.79 -3.18
Si  3.44 -2.05 -4.67
Si  1.40 -0.64  6.07
Si -5.81  2.42 -0.96
Si -3.97  0.81 -4.93
Si -0.56  5.52 -3.18
Si  0.51 -5.28  3.66
Si -4.91  3.03  2.90
Si  3.62 -1.36  5.19
Si -0.78  3.79  5.19
Si  1.50  2.93 -5.58
Si -3.49  5.46 -0.30
Si  1.66  4.80 -4.06
Si -4.37 -4.78 -0.97
Si  0.43 -4.35 -4.93
Si -2.19  5.02  3.66
Si  5.17  1.92  3.67
Si  5.58 -2.13  2.90
Si  1.39  4.96  4.32
Si -2.96 -6.01  0.57
Si  1.92 -1.12 -6.35
Si  4.32  5.01  1.45
Si  3.14 -6.01  0.57
Si  6.38  2.42 -0.96
Si -3.96 -4.79 -3.18
Si  7.00  0.30 -0.30
Si -1.74 -5.51 -4.06
Si -0.99 -6.78 -1.73
Si  2.07  1.57  6.60
Si -5.66  4.30  0.57
Si -2.01 -5.35  4.32
Si  5.31 -4.85 -0.30
Si  6.80 -1.62 -1.73
Si  5.79 -0.20  4.32
Si  6.05 -0.36 -4.06
Si  4.64  0.87 -5.59
Si  3.91  5.02  3.66
Si -6.14 -0.36 -4.06
Si -7.36 -0.86  0.57
Si -5.09 -3.05  4.59
Si  0.37 -3.58  6.60
Si -6.61 -2.13  2.90
Si -5.17 -5.29  1.45
Si -1.11  7.22  1.98
Si  5.12  5.52 -0.97
Si  5.14  3.10 -4.67
Si  2.94 -4.28 -5.59
Si -4.17 -1.12 -6.35
Si -4.44  4.80 -4.06
Si -4.69 -0.64  6.07
Si -3.15 -4.28 -5.59
Si  0.53 -7.70 -0.04
Si -6.41 -0.20  4.32
Si -0.48  7.76 -0.04
Si -4.59  2.93 -5.58
Si  6.54  4.30  0.57
Si -2.07 -2.08 -7.28
Si  1.99  7.58 -0.96
Si -4.03  1.57  6.60
Si -0.38  3.07 -7.28
Si -2.48  4.03 -6.35
Si -1.04  0.86 -7.80
Si -0.03  2.53  7.53
Si  4.09 -5.35  4.32
Si  0.77  7.08  3.67
Si -7.51 -2.73 -0.96
Si -2.27  5.96 -4.93
Si -4.71  4.96  4.32
Si  4.36 -5.51 -4.06
Si -3.00  4.51  6.07
Si -2.21 -7.28  2.90
Si -1.73 -2.63  7.53
Si -7.03  1.92  3.67
Si  0.10  7.72 -2.65
Si  3.10  4.51  6.07
Si  0.24  6.03 -5.59
Si  1.11 -7.74 -2.65
Si  5.32  3.79  5.19
Si  3.62  4.03 -6.35
Si  0.99 -0.63  8.29
Si -0.29 -5.79  6.07
Si  7.28  3.03  2.90
Si  5.90 -2.23 -5.58
Si -6.89 -4.85 -0.30
Si  5.54  5.52 -3.18
Si -0.11 -8.24  1.98
Si  2.99 -7.88 -0.96
Si  7.68 -3.08  1.98
Si -5.59 -5.28  3.66
Si -3.11 -7.88 -0.96
Si -7.69  2.57 -2.65
Si  1.92 -6.51  5.19
Si  4.02 -2.08 -7.28
Si  3.83  5.96 -4.93
Si  5.10 -6.78 -1.73
Si -8.27  2.60 -0.04
Si -4.11  7.58 -0.96
Si -5.67 -4.35 -4.93
Si -2.15  1.42  8.30
Si -6.29 -2.23 -5.58
Si  8.32 -2.55 -0.04
Si  3.88 -7.28  2.90
Si -1.70  7.26  4.59
Si  1.74 -7.20 -4.67
Si  1.18  0.15 -8.69
Si -8.77  0.37 -0.97
Si  8.72 -0.14  1.45
Si  7.02 -5.29  1.45
Si  0.22 -6.28 -6.35
Si -8.36  0.36 -3.18
Si  7.10 -3.05  4.59
Si  4.98  7.22  1.98
Si -7.05  3.10 -4.67
Si -7.07  5.52 -0.97
Si -2.00  8.68 -1.73
Si  8.30 -0.13  3.66
Si  4.37 -2.63  7.53
Si -1.53 -0.70  8.95
Si  2.88  8.18  2.90
Si -6.66  5.52 -3.18
Si  6.61 -5.28  3.66
Si  7.82 -4.78 -0.97
Si -3.21  8.18  2.90
Si  6.53 -4.35 -4.93
Si  3.95  1.42  8.30
Si -2.74 -4.29 -7.80
Si -4.18 -6.51  5.19
Si  1.77 -8.38  3.67
Si  5.06  0.86 -7.80
Si -8.91  2.07  1.98
Si  8.50  3.53 -1.73
Si  2.25 -3.73  8.30
Si -6.88  3.79  5.19
Si -0.69 -8.21  4.59
Si -7.55  0.87 -5.59
Si -1.89 -7.38 -5.58
Si -7.88  5.01  1.45
Si -5.73 -3.58  6.60
Si  1.49  1.60  9.21
Si -5.57 -7.70 -0.04
Si  0.74  8.26 -4.67
Si  3.36 -4.29 -7.80
Si -1.44 -1.55 -9.29
Si  9.52  0.37 -0.97
Si -4.99 -7.74 -2.65
Si  5.62  7.76 -0.04
Si -5.33  7.08  3.67
Si  8.22  0.81 -4.93
Si -4.35 -7.20 -4.67
Si  8.90 -2.58 -2.65
Si  4.40  7.26  4.59
Si  7.50 -0.64  6.07
Si -9.57 -0.14  1.45
Si  2.14  9.45  0.57
Si -2.33  6.72  6.60
Si  5.72  3.07 -7.28
Si -5.11 -0.63  8.29
Si  4.10  8.68 -1.73
Si  9.38  2.07  1.98
Si  2.69  4.52  8.29
Si  7.60  2.93 -5.58
Si -0.21 -3.55  9.21
Si  0.66  6.02 -7.80
Si -3.85 -3.73  8.30
Si  6.47 -3.58  6.60
Si -7.09 -6.78 -1.73
Si  7.49  4.96  4.32
Si  0.26  3.61 -9.29
Si  7.75  4.80 -4.06
Si  0.03 -9.94 -0.97
Si -4.92  0.15 -8.69
Si  6.06  2.53  7.53
Si  0.17  4.46  8.95
Si -8.73 -3.23  3.67
Si -2.75  1.31 -9.56
Si -6.13  2.53  7.53
Si -3.41  4.52  8.29
Si -0.52 -5.01 -8.69
Si  8.24 -4.79 -3.18
Si  4.57 -0.70  8.95
Si -9.39 -2.58 -2.65
Si -5.85  6.03 -5.59
Si -8.58 -1.36  5.19
Si -4.33 -8.38  3.67
Si -8.75 -2.05 -4.67
Si -5.99  7.72 -2.65
Si -0.71 -5.79  8.29
Si  8.80  2.10  4.59
Si  3.77  6.72  6.60
Si  6.62 -7.70 -0.04
Si  4.21 -7.38 -5.58
Si -6.57  7.76 -0.04
Si  5.80 -5.79  6.07
Si  3.34  1.31 -9.56
Si -6.47  3.07 -7.28
Si -2.89  8.08 -5.58
Si  6.20  7.72 -2.65
Si -3.96  9.45  0.57
Si -0.08 10.17  1.45
Si  2.40 -1.86  9.82
Si  8.70  5.46 -0.30
Si  8.02 -1.12 -6.35
Si -9.97 -2.55 -0.04
Si -2.49 -10.00 -0.30
Si -0.24  1.37 -10.22
Si  3.20  8.08 -5.58
Si 10.02  2.60 -0.04
Si -8.29  5.02  3.66
Si  5.99 -8.24  1.98
Si  6.34  6.03 -5.59
Si  0.92  8.95  5.19
Si -7.21  7.22  1.98
Si  1.02 -1.73 -10.21
Si -7.84 -5.51 -4.06
Si -4.61  1.60  9.21
Si  1.65 -3.85 -9.56
Si  9.94  0.36 -3.18
Si  0.44 -9.95 -3.18
Si -6.21 -8.24  1.98
Si  4.66 -1.55 -9.29
Si  2.33 -7.23 -7.28
Si  6.86  7.08  3.67
Si -2.00  3.29  9.82
Si -9.79  3.53 -1.73
Si -6.39 -5.79  6.07
Si  2.87  5.30 -8.69
Si -0.78 -10.45  1.45
Si -0.45  6.58  8.30
Si -7.14  0.86 -7.80
Si  8.16  1.57  6.60
Si -8.11 -5.35  4.32
Si  3.61 -10.00 -0.30
Si -9.99 -0.13  3.66
Si -3.70 -1.86  9.82
Si -3.22  5.30 -8.69
Si -5.87 -6.28 -6.35
Si  9.56 -3.23  3.67
Si  0.72 10.68 -0.97
Si -9.49  2.10  4.59
Si  0.18 -1.14 10.70
Si -1.79 10.61 -0.30
Si -1.27 -9.50 -4.93
Si  9.54 -2.05 -4.67
Si -0.49 10.18  3.66
Si  5.40 -8.21  4.59
Si  1.67  7.68  7.53
Si -9.06 -6.01  0.57
Si -5.36  8.26 -4.67
Si  7.20 -7.74 -2.65
Si  7.09 -0.63  8.29
Si -3.77 -7.23 -7.28
Si  6.32 -6.28 -6.35
Si 10.93 -0.86  0.57
Si  9.24 -6.01  0.57
Si -1.33 -8.74  6.60
Si -9.59  5.46 -0.30
Si  1.25 -9.44 -5.59
Si  1.32  8.23 -7.28
Si -1.93 -3.78 -10.22
Si  2.87 -5.85  8.95
Si -2.74  9.95 -4.06
Si  9.72 -1.36  5.19
Si  2.72  3.43 -10.21
Si  8.08  7.58 -0.96
Si -1.19 -10.44  3.66
Si -8.17 -2.08 -7.28
Si  4.10  3.29  9.82
Si  2.67 -7.78  7.53
Si 10.78 -2.73 -0.96
Si -3.23 -5.85  8.95
Si -7.83 -2.63  7.53
Si  1.14 10.67 -3.18
Si -0.78  9.19 -6.35
Si -10.61 -3.08  1.98
Si -4.45 -3.85 -9.56
Si 10.60  2.57 -2.65
Si -10.07  0.81 -4.93
Si -5.44  6.02 -7.80
Si  3.35  9.95 -4.06
Si  1.44 -11.16  0.57
Si -3.37  3.43 -10.21
Si -11.29  0.30 -0.30
Si  0.85  1.07 11.23
Si  7.27  0.15 -8.69
Si -3.43 -7.78  7.53
Si -2.96 -0.62 -10.98
Si -8.37  5.96 -4.93
Si -3.01 10.11  4.32
Si -8.57  4.03 -6.35
Si  3.09 10.11  4.32
Si -8.31 -7.28  2.90
Si  3.14 -0.62 -10.98
Si  5.39 -5.79  8.29
Si  4.30 10.61 -0.30
Si  9.04 -4.28 -5.59
Si  5.58 -5.01 -8.69
Si -1.30  9.67  6.07
Si  5.88 -3.55  9.21
Si -5.07 -1.73 -10.21
Si -10.47 -4.78 -0.97
Si -5.84  3.61 -9.29
Si  8.02 -6.51  5.19
Si -5.18  8.95  5.19
Si -10.05 -4.79 -3.18
Si  1.88  4.01 10.70
Si -1.05  6.46 -9.56
Si -7.79  7.26  4.59
Si -6.79 -8.21  4.59
Si  2.39 -10.50  4.32
Si -5.93  4.46  8.95
Si  7.84 -7.20 -4.67
Si -9.25 -4.28 -5.59
Si -4.43  7.68  7.53
Si 10.42  5.01  1.45
Si  4.16 -3.78 -10.22
Si -6.07 -9.94 -0.97
Si  6.84  8.26 -4.67
Si  6.12 -9.94 -0.97
Si  2.66 -10.66 -4.06
Si -6.31 -3.55  9.21
Si -11.49 -1.62 -1.73
Si  4.83 -9.50 -4.93
Si 10.00  5.02  3.66
Si -7.63 -0.70  8.95
Si -11.01  3.03  2.90
Si -8.25  1.42  8.30
Si -2.91  6.75  9.21
Si  6.27  4.46  8.95
Si  5.32 -10.45  1.45
Si  6.36  3.61 -9.29
Si -9.09  4.51  6.07
Si  2.96 -6.70 -9.29
Si  3.18  6.75  9.21
Si  5.86  1.37 -10.22
Si -5.66 -9.95 -3.18
Si -3.14 -6.70 -9.29
Si  6.02 10.17  1.45
Si  9.20  4.51  6.07
Si -3.44 -10.66 -4.06
Si -1.26  4.53 -10.98
Si  4.77 -8.74  6.60
Si -3.71 -10.50  4.32
Si  6.76  6.02 -7.80
Si -4.77  8.23 -7.28
Si -0.85 -4.09 11.23
Si -6.18 10.17  1.45
Si -5.37 10.68 -0.97
Si -4.85 -9.44 -5.59
Si -8.09  8.68 -1.73
Si  5.65  6.58  8.30
Si 11.26  1.92  3.67
Si -6.62 -5.01 -8.69
Si -0.85 -1.58 -11.90
Si  7.58  1.60  9.21
Si -7.54 -1.55 -9.29
Si  9.08 -7.88 -0.96
Si  7.87 -8.38  3.67
Si  0.70 -7.01  9.82
Si  4.91 -10.44  3.66
Si -6.33  1.37 -10.22
Si -4.66 -11.16  0.57
Si -10.27 -1.12 -6.35
Si 10.74  0.87 -5.59
Si -9.21 -7.88 -0.96
Si  0.55 -8.89  8.30
Si -0.57 11.11 -4.93
Si  5.60 10.18  3.66
Si -4.21  4.01 10.70
Si -6.81 -5.79  8.29
Si -4.96 10.67 -3.18
Si -11.91  2.42 -0.96
Si -10.13  1.57  6.60
Si  1.46  6.53 -10.22
Si 11.68 -2.13  2.90
Si -7.99 -7.38 -5.58
Si -10.54  4.80 -4.06
Si -5.91 -1.14 10.70
Si  9.72  4.03 -6.35
Si 10.19 -5.35  4.32
Si  6.54 -9.95 -3.18
Si -0.67 -6.88 -10.21
Si  8.35 -3.73  8.30
Si -2.69 -11.93 -1.73
Si  1.66 -9.44 -7.80
Si  5.32  9.19 -6.35
Si  4.80  9.67  6.07
Si -1.25  2.02 12.15
Si 11.40 -4.85 -0.30
Si -10.79 -0.64  6.07
Si -10.69  2.93 -5.58
Si -5.25  1.07 11.23
Si -6.55  6.58  8.30
Si  0.84  3.57 -11.90
Si  6.28 -1.14 10.70
Si -11.19 -3.05  4.59
Si  1.44 -5.78 -10.98
Si  8.98  8.18  2.90
Si 10.45 -5.51 -4.06
Si  7.02  8.95  5.19
Si  0.18  1.36 -12.43
Si -1.51 -6.30 10.70
Si  3.40 -11.93 -1.73
Si -11.76  4.30  0.57
Si -11.27 -5.29  1.45
Si 11.22  5.52 -0.97
Si -8.84 -4.29 -7.80
Si  8.23  9.45  0.57
Si  0.59 12.38  1.98
Si 11.24  3.10 -4.67
Si  7.12 -1.73 -10.21
Si  9.92  5.96 -4.93
Si -6.87 -10.45  1.45
Si  5.04  6.46 -9.56
Si 10.12 -2.08 -7.28
Si -8.43  6.72  6.60
Si 11.88 -0.20  4.32
Si -10.81  4.96  4.32
Si  1.94 11.18 -5.59
Si -6.59 10.18  3.66
Si -1.99 -10.95  6.07
Si  9.98 -7.28  2.90
Si  6.82 10.68 -0.97
Si -9.31  8.18  2.90
Si -10.21  7.58 -0.96
Si 12.48  2.42 -0.96
Si  0.22 -11.67  5.19
Si 12.15 -0.36 -4.06
Si -1.91 -8.71  9.21
Si  4.84  4.53 -10.98
Si -1.71  9.68  8.29
Si  7.74 -3.85 -9.56
Si -2.95 -3.13 12.15
Si  8.79  4.52  8.29
Si -12.24 -0.36 -4.06
Si -1.17 -12.86 -0.04
Si  1.96  8.76 -9.29
Si  3.15 -3.13 12.15
Si  2.19 -12.43  2.90
Si -0.30  8.45  9.82
Si -0.23 -1.13 12.91
Si  1.22 12.91 -0.04
Si -4.63  6.53 -10.22
Si  9.46 -4.29 -7.80
Si -2.41 12.73 -0.96
Si -7.37 -9.50 -4.93
Si  2.47 12.23  3.67
