500
set: 670.00  0.00  0.00
Si -0.30 -0.42  0.42
Si  0.83  0.88  1.87
Si  0.79 -1.15 -1.77
Si -2.44  0.23 -0.14
Si -0.09  0.72 -2.86
Si  1.16  2.75 -0.14
Si -0.17  2.56 -1.81
Si -0.67 -2.81  1.39
Si  2.24 -0.89  2.53
Si -2.42  2.40 -0.99
Si -0.89 -2.46 -2.81
Si -1.75 -3.65 -0.68
Si  0.28  1.92  3.71
Si -1.66  3.50  1.73
Si -3.40 -0.67  2.52
Si -2.69  1.15 -3.15
Si  2.23  2.83  2.38
Si  4.24  1.03  0.24
Si -3.82 -2.39  0.27
Si  2.34  0.91 -3.77
Si  4.21 -1.79  0.10
Si  3.18 -2.05 -2.60
Si -4.43 -0.33 -1.17
Si  1.80 -1.38 -4.02
Si -3.29 -1.35 -2.99
Si -2.12 -2.65  3.35
Si  1.26 -4.15  2.10
Si  4.21  0.81 -2.22
Si  0.31  4.81  0.87
Si  0.58 -4.75 -1.26
Si  3.84  3.20 -0.03
Si  3.50 -3.57  1.63
Si  3.71 -3.77 -0.92
Si -4.94  1.77  1.32
Si -1.19  0.92 -5.25
Si -4.70  2.46 -1.33
Si  3.88  0.99  3.98
Si  2.83 -1.29  4.74
Si -0.82  4.87 -2.82
Si -2.81  4.75 -1.55
Si  2.91  4.82  1.58
Si -1.19  0.92  5.67
Si  1.32 -3.88  4.21
Si -2.00 -1.32  5.44
Si -2.00 -1.32 -5.47
Si -1.40  3.20  4.87
Si  3.77  3.41 -3.21
Si -0.15 -2.66 -5.42
Si  1.89  2.34  5.25
Si -4.62  1.07  3.85
Si -0.15 -2.66  5.49
Si  0.31 -6.10  0.87
Si  0.58  6.17 -1.26
Si -2.84  4.51  3.40
Si -3.62  0.35 -5.19
Si -4.91 -3.00 -2.72
Si  5.97  1.77  1.32
Si  1.89  2.34 -5.66
Si -5.03 -3.77  1.79
Si  4.46  3.32  3.47
Si  6.49 -0.33 -1.17
Si  4.74 -0.56 -4.56
Si -4.82 -4.55 -0.96
Si -0.82 -6.04 -2.82
Si -6.67  1.03  0.24
Si -3.62  0.35  5.73
Si  6.21  2.46 -1.33
Si  2.83 -1.29 -6.17
Si  2.91 -6.10  1.58
Si -6.71 -1.79  0.10
Si -2.81 -6.16 -1.55
Si -1.40  3.20 -6.04
Si -4.73  4.22 -2.95
Si -5.14  4.22  2.25
Si  4.46  5.11 -2.05
Si -6.70  0.81 -2.22
Si -0.15  4.94 -5.16
Si  1.26  6.76  2.10
Si  5.89 -3.77  1.79
Si -3.70 -4.44  4.33
Si  6.01 -3.00 -2.72
Si  1.80 -1.38  6.89
Si  1.92 -5.45 -4.66
Si  1.92  5.47 -4.66
Si  6.30  1.07  3.85
Si  0.28  1.92 -7.21
Si  7.09 -2.39  0.27
Si  5.78  4.22  2.25
Si -1.75  7.26 -0.68
Si  2.34  0.91  7.14
Si -0.15  4.94  5.75
Si  4.46 -5.80 -2.05
Si  3.68  3.96  5.37
Si  6.09 -4.55 -0.96
Si -6.17 -0.56 -4.56
Si -4.53 -4.80 -4.05
Si  3.68  3.96 -5.54
Si -7.08  3.20 -0.03
Si -2.84 -6.40  3.40
Si -1.66 -7.42  1.73
Si  1.32 -3.88 -6.70
Si -0.15 -5.97 -5.16
Si  4.74 -0.56  6.35
Si  7.52 -0.67  2.52
Si  3.88  0.99 -6.94
Si  5.06 -3.32  5.29
Si -4.82  6.37 -0.96
Si  6.18  4.22 -2.95
Si -6.46  3.32  3.47
Si -0.09  0.72  8.05
Si  3.71  7.14 -0.92
Si -7.03  0.99  3.98
Si -7.20 -3.77 -0.92
Si  1.16 -8.16 -0.14
Si -0.67  8.11  1.39
Si  5.06 -3.32 -5.62
Si -2.12 -2.65 -7.56
Si -2.69  1.15  7.76
Si -0.15 -5.97  5.75
Si  7.63 -1.35 -2.99
Si  3.50  7.35  1.63
Si  1.32  7.04  4.21
Si -7.41 -3.57  1.63
Si -7.74 -2.05 -2.60
Si  8.47  0.23 -0.14
Si -6.46  5.11 -2.05
Si -4.62  1.07 -7.07
Si  1.92 -5.45  6.26
Si -0.89 -2.46  8.11
Si  1.92  5.47  6.26
Si -7.14  3.41 -3.21
Si -0.17 -8.36 -1.81
Si -5.86 -3.32  5.29
Si  3.84 -7.72 -0.03
Si -4.53  6.12 -4.05
Si -3.70  6.48  4.33
Si -3.29 -1.35  7.93
Si -4.73 -6.70 -2.95
Si  2.23 -8.09  2.38
Si  2.24 -0.89 -8.38
Si -5.14 -6.70  2.25
Si -3.70 -4.44 -6.58
Si -5.86 -3.32 -5.62
Si  6.09  6.37 -0.96
Si -6.17 -0.56  6.35
Si  8.49  2.40 -0.99
Si  8.22  1.15 -3.15
Si -2.42 -8.52 -0.99
Si -6.46 -5.80 -2.05
Si -5.03  7.15  1.79
Si  6.39 -4.80 -4.05
Si -0.89  8.46 -2.81
Si  7.29  0.35 -5.19
Si  3.77 -7.51 -3.21
Si -3.40 -0.67 -8.39
Si -8.68 -0.89  2.53
Si  5.78 -6.70  2.25
Si  0.83  0.88 -9.05
Si  3.18 -2.05  8.31
Si -2.12  8.26  3.35
Si -2.84  4.51 -7.51
Si  3.77  3.41  7.70
Si -1.40 -7.71  4.87
Si  0.79 -1.15  9.15
Si  2.23  2.83 -8.54
Si  7.29  0.35  5.73
Si  4.46  3.32 -7.44
Si -3.82  8.52  0.27
Si -8.57  0.91 -3.77
Si  5.89  7.15  1.79
Si -8.68  2.83  2.38
Si -8.08 -1.29  4.74
Si -0.17  2.56  9.10
Si  4.46 -7.59  3.47
Si -8.00  4.82  1.58
Si -0.82  4.87  8.10
Si  7.21 -4.44  4.33
Si -4.53 -4.80  6.87
Si  8.10  4.75 -1.55
Si  6.30  1.07 -7.07
Si  3.68 -6.96  5.37
Si  6.18 -6.70 -2.95
Si  3.68 -6.96 -5.54
Si  4.21  0.81  8.69
Si -4.91  7.91 -2.72
Si  6.39  6.12 -4.05
Si  0.28 -9.00  3.71
Si -4.70 -8.46 -1.33
Si  3.18  8.87 -2.60
Si  8.80 -2.65  3.35
Si  1.32  7.04 -6.70
Si  1.26 -4.15 -8.81
Si -7.23  3.96  5.37
Si  8.07  4.51  3.40
Si -0.15  8.26 -5.42
Si  9.16 -3.65 -0.68
Si -1.40 -7.71 -6.04
Si -0.15  8.26  5.49
Si -7.03  0.99 -6.94
Si -7.23  3.96 -5.54
Si -3.70  6.48 -6.58
Si -0.67 -2.81 -9.53
Si  0.79  9.76 -1.77
Si -1.66  3.50 -9.18
Si -4.91 -3.00  8.19
Si  9.25  3.50  1.73
Si  4.21  9.12  0.10
Si -9.12 -1.38 -4.02
Si -0.82 -6.04  8.10
Si -9.76  2.75 -0.14
Si -4.73  4.22  7.96
Si -7.20  7.14 -0.92
Si -8.00 -6.10  1.58
Si  1.89 -8.57  5.25
Si  0.83 -10.03  1.87
Si -8.08 -1.29 -6.17
Si -4.53  6.12  6.87
Si -2.84 -6.40 -7.51
Si  8.10 -6.16 -1.55
Si -10.09  0.88  1.87
Si  6.01  7.91 -2.72
Si -10.12 -1.15 -1.77
Si -6.46  3.32 -7.44
Si  1.89 -8.57 -5.66
Si -7.08 -7.72 -0.03
Si -4.94 -9.14  1.32
Si -2.42  2.40  9.92
Si -0.30 -0.42 -10.49
Si  1.80  9.54 -4.02
Si -0.30 10.49  0.42
Si  8.91 -1.32  5.44
Si  6.39 -4.80  6.87
Si  8.91 -1.32 -5.47
Si  3.50 -3.57 -9.29
Si -3.29  9.57 -2.99
Si  5.06  7.60  5.29
Si -6.46 -7.59  3.47
Si -7.41  7.35  1.63
Si  6.21 -8.46 -1.33
Si  2.24 10.03  2.53
Si -0.09 -10.19 -2.86
Si  6.01 -3.00  8.19
Si -2.69 -9.76 -3.15
Si  7.21  6.48  4.33
Si 10.61 -0.42  0.42
Si 10.02 -2.46 -2.81
Si -9.03  2.34  5.25
Si -4.43 -0.33  9.75
Si 10.24 -2.81  1.39
Si -9.66 -4.15  2.10
Si  5.06  7.60 -5.62
Si  7.21 -4.44 -6.58
Si  4.24 -9.88  0.24
Si  0.58 -4.75  9.65
Si  8.07 -6.40  3.40
Si -7.14 -7.51 -3.21
Si -2.81  4.75  9.36
Si  2.91  4.82 -9.33
Si -9.03  2.34 -5.66
Si -5.14  4.22 -8.67
Si  6.18  4.22  7.96
Si -4.94  1.77 -9.59
Si  2.34 -10.00 -3.77
Si -4.70  2.46  9.58
Si -5.86  7.60  5.29
Si -2.44 -10.68 -0.14
Si  5.97 -9.14  1.32
Si -1.75 -3.65 10.23
Si -6.70  0.81  8.69
Si -7.14  3.41  7.70
Si -2.44  0.23 10.77
Si -5.03 -3.77 -9.12
Si -3.40 10.24  2.52
Si  7.63 -1.35  7.93
Si  9.72  0.92 -5.25
Si  7.09  8.52  0.27
Si  2.83  9.62  4.74
Si -5.86  7.60 -5.62
Si  0.31  4.81 -10.04
Si  9.51  3.20  4.87
Si  4.46  5.11  8.87
Si  4.21 -10.10 -2.22
Si -9.60 -3.88  4.21
Si  1.26  6.76 -8.81
Si  1.16  2.75 10.78
Si 10.74  2.56 -1.81
Si -8.57  0.91  7.14
Si  6.39  6.12  6.87
Si -2.00  9.59  5.44
Si 10.82  0.72 -2.86
Si -2.00  9.59 -5.47
Si -11.21 -0.42  0.42
Si  5.78  4.22 -8.67
Si  7.52 -0.67 -8.39
Si  9.72  0.92  5.67
Si  3.71 -3.77 10.00
Si -2.44  0.23 -11.06
Si -6.71  9.12  0.10
Si -1.19 -9.99 -5.25
Si -0.30 -11.34  0.42
Si -0.30 -0.42 11.34
Si  8.22  1.15  7.76
Si  3.88 -9.92  3.98
Si -7.23 -6.96  5.37
Si -11.01  0.72 -2.86
Si -2.12  8.26 -7.56
Si  3.77 -7.51  7.70
Si -2.44 11.15 -0.14
Si -10.63  1.92  3.71
Si -4.73 -6.70  7.96
Si  5.97  1.77 -9.59
Si -10.33 -4.75 -1.26
Si  1.16  2.75 -11.05
Si -7.23 -6.96 -5.54
Si  0.58  6.17  9.65
Si  5.89 -3.77 -9.12
Si  4.46 -5.80  8.87
Si -9.00 -5.45 -4.66
Si -9.00  5.47 -4.66
Si -9.12 -1.38  6.89
Si -11.08  2.56 -1.81
Si  2.91 -6.10 -9.33
Si  4.46 -7.59 -7.44
Si -4.62 -9.84  3.85
Si  0.28 -9.00 -7.21
Si  4.24  1.03 -10.67
Si -4.43 10.59 -1.17
Si -7.74 -2.05  8.31
Si -1.19 -9.99  5.67
Si 10.09  4.87 -2.82
Si -2.81 -6.16  9.36
Si -3.82 -2.39 -10.65
Si -10.60  4.81  0.87
Si  6.21  2.46  9.58
Si  9.16  7.26 -0.68
Si  6.49 -0.33  9.75
Si  9.51  3.20 -6.04
Si  7.21  6.48 -6.58
Si  4.21 -1.79 -10.81
Si -0.89  8.46  8.11
Si  0.31 -6.10 -10.04
Si  2.83  9.62 -6.17
Si 11.70 -1.15 -1.77
Si  1.80  9.54  6.89
Si  8.80 -2.65 -7.56
Si  8.07  4.51 -7.51
Si -1.66 -7.42 -9.18
Si 11.74  0.88  1.87
Si  4.21 -1.79 11.02
Si -6.67 -9.88  0.24
Si 11.20  1.92  3.71
Si -4.82 -4.55  9.95
Si  2.23 -8.09 -8.54
Si  0.83 11.79  1.87
Si -9.66  6.76  2.10
Si  3.84  3.20 10.89
Si  4.24  1.03 11.15
Si -0.09 11.64 -2.86
Si  9.25 -7.42  1.73
Si -11.58 -2.81  1.39
Si  3.84  3.20 -10.94
Si -7.74  8.87 -2.60
Si -3.82 -2.39 11.18
Si  8.49 -8.52 -0.99
Si 10.09 -6.04 -2.82
Si -8.68 -0.89 -8.38
Si -10.33  6.17 -1.26
Si -5.14 -6.70 -8.67
Si -8.68 -8.09  2.38
Si -6.46  5.11  8.87
Si  6.18 -6.70  7.96
Si -4.43 -11.24 -1.17
Si  0.79 -12.06 -1.77
Si -9.00 -5.45  6.26
Si 11.23  4.81  0.87
Si -9.00  5.47  6.26
Si -10.60 -6.10  0.87
Si  4.74 10.36 -4.56
Si  2.24 -11.80  2.53
Si -1.75 -3.65 -11.60
Si  6.30 -9.84  3.85
Si -3.62 -10.56 -5.19
Si -6.70 -10.10 -2.22
Si -9.60 -3.88 -6.70
Si -3.40 -11.59  2.52
Si 10.76 -2.66 -5.42
Si  3.50  7.35 -9.29
Si -0.17 -8.36  9.10
Si 10.76 -2.66  5.49
Si -11.80 -2.46 -2.81
Si 12.07  2.75 -0.14
Si  5.78 -6.70 -8.67
Si -2.42  2.40 -11.91
Si -4.91  7.91  8.19
Si -7.41 -3.57 -9.29
Si -6.46 -5.80  8.87
Si -6.46 -7.59 -7.44
Si  6.49 10.59 -1.17
Si -8.68  2.83 -8.54
Si 11.49 -4.75 -1.26
Si  2.34 -10.00  7.14
Si  6.09 -4.55  9.95
Si  8.80  8.26  3.35
Si -0.67  8.11 -9.53
Si -3.62 -10.56  5.73
Si  3.18  8.87  8.31
Si  7.63  9.57 -2.99
Si -11.07 -2.66 -5.42
Si -9.60  7.04  4.21
Si -6.67  1.03 -10.67
Si  2.34 11.82 -3.77
Si -5.03  7.15 -9.12
Si -0.67 -2.81 12.30
Si -11.07 -2.66  5.49
Si  4.21 11.73 -2.22
Si -1.75  7.26 10.23
Si  4.24 11.95  0.24
Si  3.88 -9.92 -6.94
Si -9.76 -8.16 -0.14
Si  0.31  4.81 11.79
Si  8.07 -6.40 -7.51
Si -2.69 -9.76  7.76
Si  0.79 -1.15 -12.68
Si -2.69 12.07 -3.15
Si -4.82  6.37  9.95
Si -7.03 -9.92  3.98
Si 11.23 -6.10  0.87
Si  3.71  7.14 10.00
Si  0.83  0.88 12.78
Si -6.71 -1.79 -10.81
Si -3.29  9.57  7.93
Si -4.43 -0.33 -12.08
Si  6.01  7.91  8.19
Si -7.20 -3.77 10.00
Si -6.17 10.36 -4.56
Si -7.14 -7.51  7.70
Si -3.62 11.26 -5.19
Si 10.76  4.94 -5.16
Si  7.52 10.24  2.52
Si  3.71 -3.77 -11.83
Si -4.62 -9.84 -7.07
Si -0.17  2.56 -12.72
Si -10.63  1.92 -7.21
Si -0.09 -10.19  8.05
Si  5.89  7.15 -9.12
Si -1.19 11.84 -5.25
Si  7.09 -2.39 -10.65
Si -11.74  4.87 -2.82
Si -6.71 -1.79 11.02
Si 12.17 -4.15  2.10
Si  6.49 -11.24 -1.17
Si -6.67  1.03 11.15
Si -3.29 -12.26 -2.99
Si  4.74 10.36  6.35
Si  1.80 -12.29 -4.02
Si  0.58 -4.75 -12.18
Si 11.49  6.17 -1.26
Si 10.02 -2.46  8.11
Si 10.24  8.11  1.39
Si  3.88 11.90  3.98
Si -3.62 11.26  5.73
Si  8.22 -9.76 -3.15
Si 10.76  4.94  5.75
Si -12.57  3.50  1.73
Si -11.06  4.94 -5.16
Si -1.19 11.84  5.67
Si  9.51 -7.71  4.87
Si -8.00  4.82 -9.33
Si -12.67 -3.65 -0.68
Si  4.74 -11.47 -4.56
Si -1.66  3.50 12.65
Si -12.11  0.92 -5.25
Si  2.24 10.03 -8.38
Si  8.10  4.75  9.36
Si  8.49  2.40  9.92
Si  0.31 -6.10 11.79
Si  6.09  6.37  9.95
Si -2.42 -8.52  9.92
Si -4.94  1.77 12.23
Si -4.70  2.46 -12.25
Si 10.76 -5.97 -5.16
Si  0.28 12.83  3.71
Si -13.36  0.23 -0.14
Si -7.08  3.20 10.89
Si  4.21 -12.70  0.10
Si -12.11  0.92  5.67
Si  2.83 -12.21  4.74
Si  0.79  9.76  9.15
Si 12.71 -1.38 -4.02
Si -4.62 11.99  3.85
Si 10.02  8.46 -2.81
Si -11.06  4.94  5.75
Si -7.08  3.20 -10.94
Si 13.15 -0.89  2.53
Si -8.08  9.62  4.74
Si 11.20  1.92 -7.21
Si  7.09 -2.39 11.18
Si -8.68 10.03  2.53
Si  9.25  3.50 -9.18
Si -11.74 -6.04 -2.82
