500
set: 192.00  0.00  0.00
Si -0.00  0.01 -0.02
Si -1.90  1.06  0.77
Si -0.04 -0.01 -2.33
Si -0.01 -2.20  0.79
Si  1.92  1.11  0.78
Si -3.75  0.02 -0.01
Si  1.83  1.08  3.10
Si -1.93  3.23  0.02
Si -1.85  1.07  3.10
Si -1.95 -3.22 -0.00
Si  1.88 -1.08 -3.08
Si -1.86 -1.12 -3.08
Si  1.88  3.27 -0.03
Si  0.01  2.18 -3.10
Si  1.89 -3.29  0.01
Si -0.03 -2.20  3.10
Si  3.81  0.01 -0.03
Si  3.73 -2.20  0.80
Si  0.05  4.34  0.78
Si  1.93 -1.09  3.82
Si  1.90 -3.27 -2.31
Si  1.90  3.25 -2.34
Si -1.88  3.29 -2.31
Si  0.02  2.18  3.87
Si  3.77  0.02 -2.36
Si -1.85 -1.08  3.90
Si -3.83 -2.15  0.80
Si -3.80 -0.01 -2.35
Si -1.92 -3.30 -2.33
Si -3.75 -2.19  3.08
Si  0.01  4.33  3.10
Si  3.78  2.19 -3.07
Si -3.77  2.21 -3.08
Si  3.82 -2.15  3.09
Si -0.04 -4.39 -3.09
Si -0.04  2.22 -5.34
Si -5.64  1.08  0.74
Si  1.86 -5.44  0.79
Si -3.75  2.19  3.86
Si -1.87 -5.44  0.77
Si  3.77  2.21  3.83
Si -0.04 -4.33  3.93
Si  1.93 -1.09 -5.42
Si -1.91 -1.07 -5.44
Si  5.71  1.08  0.74
Si  3.81  4.40  0.77
Si -3.81  4.40  0.79
Si -0.00  2.11  6.18
Si -5.67  1.10  3.06
Si  1.88  5.44 -3.10
Si -0.01 -6.54 -0.01
Si  1.87 -5.46  3.09
Si  1.88 -1.12  6.17
Si  5.68  1.10  3.06
Si -1.92  1.11 -6.16
Si -0.01  6.55  0.01
Si  3.79 -4.37 -3.09
Si  1.87  1.10 -6.19
Si  5.67 -3.29  0.01
Si -1.89 -1.09  6.18
Si -1.92 -5.45  3.11
Si -1.89  5.47 -3.09
Si  5.67  3.29 -0.01
Si -5.68 -3.29  0.01
Si  3.76  4.39  3.11
Si -5.68  3.29 -0.01
Si  5.68 -1.17 -3.10
Si -3.81  4.38  3.09
Si -5.68 -1.17 -3.10
Si -3.80 -4.40 -3.10
Si  0.00 -2.18 -6.22
Si  0.04  6.53 -2.29
Si -5.64 -3.30 -2.29
Si -5.63 -1.08  3.88
Si  3.80 -4.34  3.84
Si  0.04 -4.36 -5.40
Si  0.02 -6.54 -2.34
Si -5.66  3.29 -2.34
Si -3.83  2.20 -5.38
Si -1.88  5.50  3.84
Si  1.85  5.47  3.90
Si  0.04 -0.02  6.99
Si  5.70  3.29 -2.34
Si  5.72 -3.30 -2.29
Si -3.83 -4.36  3.90
Si  3.80  2.22 -5.44
Si  5.72 -1.08  3.88
Si -7.55  0.01 -0.03
Si -0.03  4.36 -6.17
Si -3.79  6.55  0.01
Si  0.01 -4.38  6.18
Si -3.80 -6.57 -0.03
Si  3.82  2.15  6.19
Si -3.80  2.20  6.19
Si  3.83 -2.21 -6.18
Si  3.73  6.62 -0.00
Si  3.75 -6.61  0.02
Si -3.84 -2.20 -6.18
Si  7.60  0.02 -0.01
Si  7.53 -2.15  0.80
Si  1.88  3.27  6.93
Si  3.76  6.53 -2.33
Si -1.85  5.48 -5.37
Si -1.91  3.30  6.91
Si -5.66 -1.10 -5.40
Si  3.76 -0.03  6.95
Si  3.83 -4.36 -5.37
Si -5.63 -5.50  0.78
Si  1.90 -3.30  6.94
Si  3.79 -6.55 -2.31
Si -1.95  7.63  0.80
Si  7.56 -0.01 -2.35
Si -1.88 -3.27  6.96
Si -3.78  0.01  6.96
Si -3.78  6.57 -2.31
Si -3.75 -4.37 -5.45
Si  5.70 -1.10 -5.40
Si -3.77 -6.58 -2.34
Si  1.85  7.69  0.80
Si -7.59  0.02 -2.36
Si  1.93  5.47 -5.45
Si  5.73 -5.50  0.78
Si -7.63 -2.20  0.80
Si -7.54 -2.15  3.09
Si  5.64  5.45 -3.09
Si -1.86 -5.43 -6.18
Si -5.67  1.06 -6.17
Si  5.64 -1.11  6.18
Si  1.91 -7.63 -3.08
Si -3.77 -4.35  6.19
Si -3.75  4.37 -6.19
Si -1.90 -7.65 -3.07
Si  5.69  1.06 -6.17
Si -7.58  2.19 -3.07
Si  1.93  7.65  3.08
Si  3.78 -4.37  6.21
Si  1.93 -5.47 -6.19
Si -5.72  5.45 -3.09
Si -1.90  5.46  6.21
Si -5.67 -5.50  3.10
Si  7.59  2.21 -3.08
Si -1.86  7.68  3.09
Si  1.91  5.49  6.19
Si -5.72 -1.11  6.18
Si  7.61 -2.19  3.08
Si  3.82  4.41 -6.18
Si  5.69 -5.50  3.10
Si -1.91 -7.62  3.83
Si  1.86  1.12 -8.48
Si  7.54  4.40  0.79
Si -7.55  4.40  0.77
Si -1.87  1.12 -8.50
Si  1.93 -7.65  3.86
Si  0.04 -8.75  0.74
Si -7.59  2.21  3.83
Si  5.64  5.50  3.93
Si  7.61  2.19  3.86
Si  0.04 -2.20 -8.53
Si -5.72  5.50  3.93
Si -0.00  8.67 -3.10
Si  0.00 -8.73  3.06
Si  7.55  4.38  3.09
Si -7.57 -4.37 -3.09
Si  7.56 -4.40 -3.10
Si -0.01 -0.01  9.29
Si -0.01  0.02 -9.29
Si -7.60  4.39  3.11
Si  7.53  2.20 -5.38
Si -7.56 -4.34  3.84
Si  5.63  3.27  6.95
Si  1.85 -7.64 -5.38
Si -5.66 -3.26  6.94
Si  7.53 -4.36  3.90
Si -9.43  1.11  0.78
Si -5.63  5.47 -5.40
Si -3.75 -8.73  0.78
Si -0.01  4.36 -8.48
Si -3.75 -2.17 -8.49
Si -1.88 -7.62 -5.44
Si  5.67  7.63  0.79
Si -5.68  7.63  0.79
Si  9.46  1.06  0.77
Si  5.70 -3.26  6.94
Si  0.02  6.57  6.94
Si -0.04 -6.57  6.95
Si  3.78 -2.22 -8.51
Si -7.56  2.22 -5.44
Si  0.04  8.75  3.88
Si -5.72  3.27  6.95
Si  5.72  5.47 -5.40
Si  3.78 -8.77  0.77
Si  9.41 -3.22 -0.00
Si  9.43  3.23  0.02
Si  7.51 -2.20 -6.18
Si -7.53 -2.21 -6.18
Si -7.54  2.15  6.19
Si  3.75 -0.05 -9.26
Si  1.88 -3.29  9.24
Si -1.85  7.63 -6.18
Si  1.83  7.63 -6.18
Si -1.87  3.29  9.25
Si  5.65  7.64  3.10
Si  3.73  0.06  9.27
Si  5.65 -5.47 -6.17
Si -1.87 -9.82 -0.03
Si  1.93 -9.81 -0.01
Si  3.82  8.71 -3.08
Si  7.57  6.55  0.01
Si -5.67  5.46  6.18
Si  1.89  3.27 -9.27
Si  7.56 -6.57 -0.03
Si  1.88 -7.64  6.19
Si  5.68  5.46  6.18
Si  7.56  2.20  6.19
Si -5.67 -7.66 -3.10
Si  1.93 -3.26 -9.28
Si -3.79 -0.01  9.28
Si -9.47 -3.29  0.01
Si  1.93  3.30  9.27
Si  5.68 -7.66 -3.10
Si -1.87  9.85 -0.03
Si -9.48 -1.08 -3.08
Si -9.48  3.27 -0.03
Si -3.80  8.75 -3.08
Si -5.71  7.64  3.10
Si -1.87 -3.27 -9.30
Si -5.71 -5.47 -6.17
Si -1.86 -7.68  6.19
Si  1.93  9.86 -0.01
Si -1.95  3.34 -9.27
Si -3.80 -0.01 -9.30
Si  9.50 -1.12 -3.08
Si  3.83 -8.76  3.10
Si -3.84 -8.76  3.10
Si -1.93 -3.33  9.29
Si  9.51  1.07  3.10
Si -9.52  1.08  3.10
Si -7.60 -6.61  0.02
Si -7.62  6.62 -0.00
Si -7.53 -4.36 -5.37
Si  1.85 -5.43 -8.47
Si -9.43 -1.09  3.82
Si  3.73  4.35 -8.47
Si  3.77 -6.54  6.91
Si -5.63  1.06 -8.50
Si -3.77  6.53  6.94
Si -3.75  8.75  3.82
Si -9.45  3.25 -2.34
Si -7.56 -6.55 -2.31
Si  9.44 -3.30 -2.33
Si  0.02  8.74 -5.40
Si -9.46 -3.27 -2.31
Si -3.80 -6.57  6.93
Si  1.88  9.82 -2.35
Si -1.91 -9.82 -2.36
Si -5.66 -7.66  3.87
Si -1.95 -5.48 -8.47
Si -7.59  6.53 -2.33
Si -3.83  4.41 -8.47
Si  7.58  0.01  6.96
Si  7.58  6.57 -2.31
Si  9.47  3.29 -2.31
Si  0.05 -2.22 10.05
Si  3.79  6.56  6.96
Si -7.59 -0.03  6.95
Si  1.88 -9.85 -2.35
Si  5.73  1.06 -8.50
Si  5.70 -7.66  3.87
Si  1.85  1.13 10.07
Si  7.58 -6.58 -2.34
Si -1.91  9.85 -2.36
Si -1.95  1.07 10.07
Si  3.83  8.76  3.90
Si  7.61 -4.37 -5.45
Si  9.51 -1.08  3.90
Si -0.04  8.73  6.18
Si -7.54  4.41 -6.18
Si  7.59 -4.35  6.19
Si -7.58 -4.37  6.21
Si  0.01 -8.78 -6.17
Si  7.61  4.37 -6.19
Si  5.64 -7.61 -5.34
Si -5.72 -7.61 -5.34
Si  0.04  4.36 10.01
Si -9.43 -1.09 -5.42
Si  0.04 10.92  0.74
Si -3.75  8.75 -5.42
Si  9.45 -1.07 -5.44
Si  3.81 -2.16 10.05
Si  9.48 -5.44  0.77
Si -9.49 -5.44  0.79
Si -3.81 -2.16 10.06
Si  3.77  8.77 -5.44
Si  3.76 -8.72 -6.16
Si  9.44  1.11 -6.16
Si  9.44 -5.45  3.11
Si -0.00 -6.55  9.25
Si -3.80  8.72  6.17
Si  5.68  3.28  9.25
Si  5.67 -3.26  9.26
Si -5.68  3.28  9.25
Si  5.67  3.27 -9.26
Si -5.68 -3.26  9.26
Si -5.68  3.27 -9.26
Si -0.01 -6.56 -9.26
Si  5.68 -9.83 -0.02
Si -0.01  6.57  9.26
Si -5.68 -9.83 -0.02
Si 11.36  0.01 -0.02
Si  9.46 -1.09  6.18
Si  0.00 10.94  3.06
Si  9.46  5.47 -3.09
Si -9.48  5.44 -3.10
Si  3.79  8.75  6.18
Si -11.36  0.01 -0.02
Si  5.68  9.84 -0.02
Si -9.48 -1.12  6.17
Si -5.68  9.84 -0.02
Si -3.81 -8.74 -6.19
Si -9.49 -5.46  3.09
Si  5.68 -3.27 -9.30
Si -5.68 -3.27 -9.30
Si -0.00  6.56 -9.30
Si -9.49  1.10 -6.19
Si -5.67  7.66 -6.22
Si  5.68  7.66 -6.22
Si  5.68 -7.72  6.18
Si -5.68 -7.72  6.18
Si -0.00 -11.00 -3.10
Si 11.31 -0.01 -2.33
Si  3.78 10.90  0.77
Si  5.63  9.83 -2.33
Si  3.78  4.34 10.04
Si -1.90  7.62 -8.51
Si  5.63 -9.85 -2.33
Si  5.67 -5.48 -8.48
Si  0.04 -10.92  3.88
Si -5.68 -5.48 -8.48
Si 11.35 -2.20  0.79
Si -3.75  4.39 10.05
Si  1.92 -5.45 10.05
Si -3.75 10.95  0.78
Si  7.60 -8.73  0.78
Si -11.36 -2.20  0.79
Si  1.92  7.67 -8.49
Si -1.90 -5.50 10.04
Si -7.58 -2.22 -8.51
Si  7.60 -2.17 -8.49
Si  5.67  1.08 10.07
Si -5.72  9.83 -2.33
Si  0.02  0.02 -11.61
Si -5.68  1.08 10.07
Si  9.48  5.50  3.84
Si -7.58 -8.77  0.77
Si -5.72 -9.85 -2.33
Si -11.40 -0.01 -2.33
Si -9.51  5.47  3.90
Si  3.73 -6.50 -9.27
Si -7.54  8.71 -3.08
Si 11.32 -2.20  3.10
Si -3.75 -6.54  9.27
Si  7.51 -8.76  3.10
Si  3.75  6.51  9.29
Si -3.80  6.55  9.24
Si  3.81 -6.54  9.25
Si -7.53 -8.76  3.10
Si -3.80 -10.92 -3.08
Si  7.56  8.75 -3.08
Si -11.35  2.18 -3.10
Si  3.83 10.91  3.10
Si  7.57 -0.01  9.28
Si -3.79 -6.57 -9.27
Si 11.36  2.18 -3.10
Si -3.84 10.91  3.10
Si -7.60 -0.05 -9.26
Si -3.75  6.58 -9.28
Si  7.56 -0.01 -9.30
Si -7.62  0.06  9.27
Si -11.39 -2.20  3.10
Si  3.81  6.57 -9.30
Si  3.82 -10.96 -3.08
Si -11.31  4.34  0.78
Si  9.41  7.63  0.80
Si  1.85 -11.98  0.80
Si  9.45  3.30  6.91
Si  7.53  4.41 -8.47
Si -3.75 -10.92  3.82
Si -7.59 -6.54  6.91
Si -1.92  9.81  6.95
Si  7.58  6.53  6.94
Si -11.34  2.18  3.87
Si  7.56 -6.57  6.93
Si -9.45 -3.30  6.94
Si -9.47  3.27  6.93
Si -7.53  8.76  3.90
Si -9.43  5.47 -5.45
Si  1.90 -9.83  6.96
Si  3.79  0.01 -11.59
Si  1.90  3.29 -11.59
Si -7.56  6.56  6.96
Si  0.02 -10.94 -5.40
Si -1.92  3.25 -11.60
Si  9.47 -3.27  6.96
Si  1.90  9.85  6.96
Si -7.63  4.35 -8.47
Si  7.61  8.75  3.82
Si -3.77 -0.03 -11.61
Si  3.83 -10.92  3.90
Si  0.05 -8.78 -8.50
Si -1.92 -9.86  6.95
Si 11.38  2.18  3.87
Si  9.51  5.48 -5.37
Si -1.95 -12.04  0.80
Si  1.88 -3.29 -11.62
Si 11.40  4.34  0.78
Si -1.91 -3.26 -11.63
Si -9.50  7.69  0.80
Si  0.01 10.89 -6.17
Si -1.86 -11.99  3.09
Si -9.45 -7.63 -3.08
Si 11.32 -4.39 -3.09
Si -9.43  7.65  3.08
Si -9.43 -5.47 -6.19
Si -11.34  4.33  3.10
Si -1.90 -1.09 -12.34
Si  9.46 -7.65 -3.07
Si  1.91 -1.07 -12.36
Si -1.90 12.02 -3.07
Si -0.04  2.17 -12.36
Si  1.93  1.09 12.36
Si -9.45  5.49  6.19
Si -1.86  1.13 12.37
Si 11.37  4.33  3.10
Si  9.46  5.46  6.21
Si  1.93 -12.02  3.08
Si  9.50 -5.43 -6.18
Si -0.04 -10.94  6.18
Si  0.01 -2.22 12.38
Si  1.91 12.05 -3.08
Si -11.39 -4.39 -3.09
Si  9.50  7.68  3.09
Si 11.32  2.22 -5.34
Si -5.64 -5.47 10.01
Si  9.45 -7.62  3.83
Si -9.43 -7.65  3.86
Si 11.32 -4.33  3.93
Si -3.81 -8.72 -8.48
Si -7.55 -2.16 10.05
Si  3.77 -10.90 -5.44
Si  3.81 -8.72 -8.50
Si -3.75 -10.93 -5.42
Si  7.54 -2.16 10.06
Si  5.71 -5.47 10.01
Si -5.64  7.64 -8.53
Si  1.93 12.02  3.86
Si -9.49  1.12 -8.48
Si -1.87  7.67 10.05
Si  9.48  1.12 -8.50
Si -11.40  2.22 -5.34
Si -1.91 12.05  3.83
Si  1.86  7.68 10.06
Si  7.61  8.75 -5.42
Si  5.71  7.64 -8.53
Si -7.59  8.77 -5.44
Si -11.40 -4.33  3.93
Si  0.00  4.38 12.33
Si  7.56  8.72  6.17
Si 11.36  2.11  6.18
Si  7.55 -8.74 -6.19
Si -11.36  2.11  6.18
Si 11.35 -6.54 -0.01
Si -7.60 -8.72 -6.16
Si 11.35  6.55  0.01
Si -11.36 -6.54 -0.01
Si  3.79 -10.93  6.18
Si  3.76 10.95 -6.16
Si  3.79  2.19 -12.37
Si -11.36  6.55  0.01
Si -3.81 -2.18 12.36
Si -7.57  8.75  6.18
Si -0.01 -13.12  0.01
Si  3.76 -2.17 12.39
Si -11.35 -2.18 -6.22
Si -3.80  2.16 -12.38
Si -3.81 10.93 -6.19
Si -0.01 13.13 -0.01
Si -3.80 -10.95  6.17
Si 11.36 -2.18 -6.22
Si -0.00 -4.44 -12.37
Si -11.32  6.53 -2.29
Si -5.64  3.25 -11.56
Si -11.31 -4.36 -5.40
Si -1.88 -1.06 13.11
Si -11.34 -6.54 -2.34
Si -7.58 10.90  0.77
Si -5.64  9.81  6.99
Si -11.32 -0.02  6.99
Si  5.72  3.25 -11.56
Si  0.04 -6.58 -11.56
Si -7.58  4.34 10.04
