500
set: 798.00  0.00  0.00
Si  0.44 -1.28  0.81
Si -0.46  1.32 -0.91
Si  1.30  1.11  0.87
Si -1.39 -1.21 -0.85
Si -2.28  1.18  0.83
Si -0.81 -0.00  2.60
Si  2.36 -1.17 -0.87
Si  0.91  0.02 -2.62
Si  0.03 -2.34 -2.59
Si -0.04  2.49  2.53
Si  3.21  1.26 -0.86
Si -3.22 -1.18  0.94
Si  2.77 -0.06  2.54
Si  0.44  3.63 -0.87
Si -2.77  0.00 -2.57
Si -0.47 -3.67  0.84
Si  1.40 -3.57 -0.84
Si  1.86  2.42 -2.57
Si -1.81 -2.46  2.58
Si -1.86  2.49 -2.54
Si  1.88 -2.46  2.60
Si -1.32  3.72  0.87
Si  2.27  3.62  0.85
Si  0.96  0.02  4.26
Si -4.17  1.22 -0.87
Si -0.96  0.04 -4.33
Si -2.35 -3.68 -0.86
Si  4.19 -1.28  0.88
Si -0.12  2.48 -4.22
Si  0.02 -2.48  4.26
Si -3.15  3.71 -0.83
Si  3.21 -3.67  0.90
Si -2.71 -0.01  4.25
Si -3.62  2.46  2.51
Si -3.59 -2.39 -2.63
Si  3.61  2.41  2.58
Si  3.63 -2.42 -2.57
Si  2.75  0.07 -4.25
Si -1.86  2.38  4.22
Si  4.99  1.17  0.86
Si  1.85  2.39  4.27
Si -5.05 -1.21 -0.85
Si -4.57  0.00  2.63
Si  4.60  0.00 -2.59
Si  1.89 -2.42 -4.31
Si -1.82 -2.38 -4.36
Si  0.95 -4.87  2.54
Si -0.93  4.87 -2.56
Si -0.94 -4.88 -2.55
Si  4.16  3.67 -0.82
Si  0.96  4.89  2.61
Si -4.17 -3.71  0.82
Si -0.40  1.18  5.95
Si -0.47  6.04  0.82
Si -5.97  1.16  0.87
Si -3.64 -2.45  4.30
Si  2.75  4.86 -2.55
Si  0.45 -1.26 -6.00
Si  0.46 -6.08 -0.82
Si -2.74 -4.85  2.61
Si  3.64 -2.47  4.30
Si  5.96 -1.30 -0.85
Si  3.71  2.48 -4.25
Si  2.70 -4.95 -2.51
Si -4.98  3.59  0.81
Si -3.73  2.46 -4.31
Si -1.33 -1.27  5.93
Si -2.72  4.96  2.60
Si  4.56 -0.10  4.26
Si  1.35  6.06 -0.86
Si -4.64  0.13 -4.23
Si  1.34  1.25 -6.03
Si  5.04 -3.69 -0.86
Si -1.43 -6.12  0.85
Si  5.43  2.35 -2.52
Si  0.85 -4.76 -4.27
Si -5.47  2.47 -2.55
Si -5.50 -2.47  2.58
Si -0.88  4.85  4.32
Si  2.31 -1.19  6.02
Si -2.25  1.25 -6.05
Si  5.47 -2.53  2.63
Si -2.26  6.12 -0.87
Si  0.88  4.88 -4.34
Si -0.89 -4.91  4.31
Si  2.22 -6.17  0.86
Si  6.34 -0.08  2.54
Si -3.25 -1.16 -5.96
Si -6.43 -0.01 -2.57
Si  3.22  6.07  0.84
Si  3.25  1.23  6.02
Si  5.92  3.58  0.86
Si  6.82  1.16 -0.88
Si -3.26 -6.12 -0.87
Si  2.64 -4.86  4.28
Si -6.85 -1.25  0.85
Si -5.96 -3.62 -0.87
Si  0.48  3.60  6.03
Si  2.81  4.83  4.31
Si -2.74  4.85 -4.34
Si -0.49 -3.70 -6.00
Si -2.82 -4.86 -4.34
Si -4.51  4.86 -2.60
Si  4.51 -4.94  2.62
Si -4.62 -4.87 -2.56
Si  4.65  4.88  2.54
Si -1.32  3.72 -6.06
Si  1.44 -3.60  6.13
Si -4.08  6.00  0.84
Si  5.48 -2.32 -4.29
Si  4.09 -1.18 -6.00
Si -4.08  1.23  6.00
Si -2.23 -3.71  5.96
Si -5.45  2.44  4.32
Si  2.29  3.65 -5.98
Si -5.45 -2.52 -4.29
Si  5.51  2.41  4.29
Si  4.09 -6.14 -0.81
Si -3.16  3.64  5.99
Si -6.43 -0.01  4.24
Si  3.21 -3.67 -5.99
Si  6.42  0.02 -4.34
Si -0.09 -7.33  2.58
Si -6.86  3.60 -0.81
Si  0.11  7.36 -2.63
Si  0.50 -1.24  7.72
Si -0.44  1.19 -7.74
Si  6.87 -3.75  0.84
Si -5.02 -6.02  0.87
Si -4.54  4.86  4.27
Si -1.43 -1.26 -7.67
Si -5.02 -1.15  6.00
Si  1.41  1.15  7.70
Si -1.79  7.28  2.58
Si  5.06  1.32 -5.97
Si  4.55 -4.92 -4.26
Si  7.80 -1.25  0.85
Si  1.89  7.28  2.58
Si -7.83  1.16 -0.88
Si -1.84 -7.32 -2.57
Si -4.58 -4.89  4.32
Si  4.55  4.98 -4.27
Si  1.74 -7.39 -2.52
Si -2.22  1.18  7.62
Si  2.29 -1.18 -7.62
Si  5.09  6.18 -0.84
Si  7.25  2.44  2.52
Si -7.31 -2.49 -2.56
Si  7.34 -2.49 -2.56
Si -7.40  2.44  2.52
Si -4.13 -3.67 -6.08
Si  4.19  3.68  6.08
Si -3.11 -1.17  7.64
Si  3.23  1.29 -7.57
Si  6.39  4.79 -2.51
Si -6.42 -4.78  2.60
Si  0.01 -7.26 -4.25
Si -6.44  4.80  2.62
Si  0.06  7.29  4.30
Si  6.45 -4.89 -2.60
Si -0.45 -3.64  7.67
Si -3.62  7.26 -2.56
Si -5.91  6.05 -0.86
Si  3.56 -7.30  2.52
Si -0.49 -8.48 -0.86
Si -3.74 -7.26  2.53
Si  6.00 -1.22  6.01
Si -1.75  7.22 -4.29
Si  0.46  3.62 -7.77
Si  1.34 -3.62 -7.67
Si -0.43  6.07 -6.08
Si  0.49 -6.07  6.08
Si  1.47  6.04  5.96
Si  5.97 -6.16  0.81
Si  8.22 -0.01 -2.57
Si -6.06  1.31 -5.99
Si  7.79  3.60 -0.81
Si  0.48  8.56  0.94
Si  5.05 -3.70  5.96
Si -1.41 -6.09 -5.98
Si -1.34  3.70  7.73
Si -7.78 -3.75  0.84
Si -1.35  8.54 -0.85
Si  3.73  7.41 -2.59
Si  1.81 -7.33  4.29
Si -8.31 -0.08  2.54
Si -1.85 -7.35  4.27
Si  1.29 -8.57  0.86
Si -5.06  3.77 -6.01
Si  2.18 -5.98 -6.00
Si  7.25  2.50 -4.20
Si  1.88  7.37 -4.36
Si  4.09 -1.12  7.70
Si -7.30 -2.44  4.26
Si  8.68  1.16  0.87
Si  2.35  3.60  7.70
Si -4.22  1.22 -7.66
Si -8.69 -1.30 -0.85
Si  7.35 -2.44  4.26
Si -7.40  2.50 -4.20
Si -2.31  6.08  6.04
Si  2.31  8.53 -0.85
Si -2.31 -3.67 -7.75
Si -2.40 -8.63  0.87
Si  6.34  4.88  4.28
Si -6.40  4.82 -4.26
Si  3.55 -7.24 -4.20
Si  3.21  6.04 -6.00
Si -3.15  8.49  0.85
Si  3.27 -3.57  7.73
Si  6.42 -4.89  4.27
Si -3.23  3.74 -7.69
Si -6.85 -6.04 -0.83
Si  3.12 -8.58 -0.88
Si -6.44 -4.89 -4.34
Si -3.60  7.31  4.26
Si -3.22 -6.15  6.03
Si -6.87 -1.29 -5.98
Si  5.88  3.77 -6.00
Si  3.72  7.26  4.26
Si -3.82 -7.26 -4.22
Si  6.92  1.23  6.01
Si  6.91  6.08  0.90
Si  8.22 -0.01  4.24
Si -6.01 -3.67  6.04
Si -5.07 -1.22 -7.71
Si -8.23  0.02 -4.34
Si  5.12  1.18  7.71
Si -4.04 -3.64  7.65
Si -0.92 -0.01  9.35
Si  0.90 -0.02 -9.38
Si -5.48  7.22  2.63
Si -4.16 -8.43 -0.91
Si  8.69 -3.62 -0.87
Si  4.14  8.46  0.81
Si  4.11  3.70 -7.67
Si  5.48 -7.27 -2.55
Si  4.09 -6.07  5.99
Si -8.73  3.58  0.86
Si -5.56 -7.26 -2.54
Si -4.16  6.16 -5.95
Si  5.58  7.29  2.60
Si  0.09  2.48  9.34
Si  6.79 -3.59 -5.95
Si  9.60 -1.21 -0.85
Si -0.06 -2.46 -9.43
Si  5.89 -1.18 -7.71
Si -9.66  1.17  0.86
Si -2.79 -0.00 -9.37
Si  0.41 -6.05 -7.67
Si -0.34  6.10  7.65
Si -6.86  3.67  5.99
Si  2.76  0.09  9.42
Si  9.16 -2.47  2.58
Si -9.22  2.35 -2.52
Si -4.96  3.56  7.72
Si -4.99  8.45 -0.85
Si  9.18  2.47 -2.55
Si -5.96  1.26  7.75
Si -7.73  1.23  6.01
Si  8.23 -4.78  2.60
Si  8.21  4.80  2.62
Si  5.02 -3.62 -7.69
Si -8.26  4.79 -2.51
Si -9.18 -2.53  2.63
Si -7.74  6.08  0.90
Si -1.84  2.44 -9.40
Si -8.21 -4.89 -2.60
Si  7.79 -1.29 -5.98
Si  7.80 -6.04 -0.83
Si -5.02 -6.02 -6.06
Si  1.81  2.41 -9.44
Si  1.92 -2.41  9.45
Si -1.35 -6.15  7.70
Si  1.39  6.08 -7.75
Si -1.92 -2.41  9.47
Si  4.98 -8.58  0.87
Si  2.29 -6.07  7.70
Si  5.14  6.14  6.13
Si -2.29  6.12 -7.70
Si  5.50 -7.30  4.32
Si  0.90 -9.74 -2.59
Si  0.93  9.75 -2.57
Si -0.87  9.75  2.63
Si -5.56 -7.36  4.22
Si -0.93 -9.80  2.54
Si  5.59  7.33 -4.31
Si -5.47  7.43 -4.29
Si  5.89 -5.97 -6.01
Si -3.55  2.33  9.41
Si  3.25  6.11  7.67
Si -9.61 -3.69 -0.86
Si -5.90  6.04  5.96
Si  9.67  3.59  0.81
Si -6.85 -1.12  7.69
Si  3.60 -2.44 -9.40
Si -10.05  0.00 -2.59
Si -9.14  2.41  4.29
Si -9.17 -2.32 -4.29
Si -4.53 -0.04  9.35
Si  6.84  1.19 -7.74
Si -3.24 -6.12 -7.77
Si -5.99 -3.63 -7.70
Si  1.36 -8.42 -5.97
Si  4.43  0.03 -9.42
Si  3.79  2.44  9.39
Si 10.08  0.00  2.63
Si  5.99  3.67  7.70
Si -2.73  9.73 -2.57
Si -0.45 -8.52  6.02
Si -2.79 -9.73 -2.62
Si  9.20  2.44  4.32
Si  9.20 -2.52 -4.29
Si  8.25  4.82 -4.26
Si  0.45  8.59 -5.96
Si -5.98 -8.56  0.83
Si  2.64 -9.82  2.54
Si -8.23 -4.89  4.27
Si  2.88  9.74  2.60
Si -3.77 -2.47 -9.47
Si -7.86 -3.59 -5.95
Si  7.79  3.67  5.99
Si  8.21 -4.89 -4.34
Si  6.06  8.58 -0.87
Si -8.31  4.88  4.28
Si  8.59  1.31 -5.99
Si -1.32  8.59  6.00
Si -10.46 -1.28  0.88
Si 10.48  1.22 -0.87
Si  0.95  4.89  9.36
Si -8.65 -1.22  6.01
Si  2.37  8.47  5.93
Si -0.95 -9.68 -4.25
Si  4.09 -6.08 -7.69
Si -7.31 -7.29  2.51
Si  7.34 -7.29  2.51
Si  0.96 -4.82  9.44
Si -0.94 -4.83 -9.44
Si  0.99  9.73  4.25
Si  8.74  6.05 -0.86
Si -7.32  7.33 -2.57
Si -8.68 -6.16  0.81
Si -0.91  4.88 -9.45
Si  7.33  7.33 -2.57
Si -2.36 -8.49 -6.03
Si -4.16  6.16  7.71
Si  0.86 -9.85  4.26
Si -0.94  9.87 -4.23
Si -3.17  8.45 -5.98
Si -6.76  8.46  0.88
Si 10.01  0.13 -4.23
Si  6.79 -3.58  7.71
Si -2.75 -4.85  9.36
Si  3.22 -8.51  6.01
Si  6.79 -8.52 -0.87
Si -6.86  3.67 -7.69
Si -10.09 -0.10  4.26
Si -2.73 -9.72  4.26
Si -2.73  9.73  4.24
Si -6.86 -6.11  5.99
Si  6.91  6.07 -5.99
Si  2.65 -4.96 -9.44
Si  2.72 -9.72 -4.34
Si  2.76  4.91 -9.44
Si  7.80 -1.12  7.69
Si -4.61  9.66  2.54
Si -0.47 10.96 -0.87
Si -1.34 -10.91 -0.87
Si -5.04 -6.04  7.73
Si  5.04  6.12 -7.67
Si -2.73  4.98  9.47
Si  2.74  9.78 -4.33
Si -4.51 -9.74  2.60
Si  1.42 10.93  0.83
Si -7.81  1.19 -7.74
Si  4.52 -9.75 -2.57
Si  0.49 -11.02  0.88
Si  4.61  9.76 -2.62
Si  5.43  2.42 -9.39
Si  7.22 -7.29 -4.31
Si -0.94  0.04 -11.09
Si -10.49  3.67 -0.82
Si 10.48 -3.71  0.82
Si  8.64 -3.67  6.04
Si -5.52 -2.43  9.39
Si -2.27 10.91  0.87
Si -7.31  7.27  4.30
Si  0.96 -0.03 11.15
Si  4.15  8.48 -6.00
Si  7.34  7.27  4.30
Si -4.10 -8.56  5.95
Si -5.51  2.45 -9.44
Si  5.46 -2.39  9.50
Si -7.43 -7.29 -4.31
Si -8.77  3.77 -6.00
Si  2.26 -11.04 -0.85
Si -0.47 -8.46 -7.57
Si -9.59  1.32 -5.97
Si -0.02  2.43 -11.12
Si  9.63 -6.02  0.87
Si  0.07 -2.47 11.13
Si  9.63 -1.15  6.00
Si -9.56  6.18 -0.84
Si -10.00  4.88  2.54
Si -6.44  0.00 -9.42
Si 10.03 -4.87 -2.56
Si  6.46 -0.07  9.44
Si  4.89 -8.43 -5.99
Si -2.72 -0.02 11.13
Si -1.69  2.47 11.06
Si -5.93  6.12 -7.69
Si  2.74  0.02 -11.16
Si  0.59  8.58  7.64
Si  1.71 -2.44 -11.11
Si -7.74  6.07 -5.99
Si  4.63 -4.87  9.36
Si -3.26 -11.03  0.81
Si 11.43 -1.18  0.94
Si  7.79  3.67 -7.69
Si 10.14  4.86 -2.60
Si -11.44  1.26 -0.86
Si -4.96  8.52  6.01
Si  1.93  2.52 11.11
Si  4.52 -9.75  4.24
Si  5.99 -6.18  7.72
Si  3.24 11.06 -0.91
Si  7.79 -6.11  5.99
Si -11.02 -2.42 -2.57
Si -1.37  8.53 -7.71
Si -10.14 -4.94  2.62
Si -7.86 -3.58  7.71
Si -1.95 -2.37 -11.16
Si 11.04  2.46  2.51
Si -4.61 -4.87 -9.45
Si -11.04  2.41  2.58
Si -4.66 -9.70 -4.33
Si  7.89  8.46  0.88
Si -4.64  4.88 -9.45
Si -4.53  9.77 -4.34
Si  1.42 -8.56  7.71
Si 11.06 -2.39 -2.63
Si  4.66  4.92  9.44
Si  4.67  9.76  4.26
Si -7.87 -8.52 -0.87
Si  2.27  8.49 -7.67
Si -4.13 10.90 -0.88
Si  8.69  1.26  7.75
Si -8.76 -1.18 -7.71
Si -2.29 -8.59  7.70
Si  4.11 -10.99  0.85
Si -9.60 -3.70  5.96
Si  0.09 -7.31  9.39
Si  9.09 -7.26 -2.54
Si -6.35  9.75 -2.59
Si  6.47  9.69  2.54
Si -9.08  7.29  2.60
Si  9.59  3.77 -6.01
Si  6.38 -9.74  2.63
Si  3.67  2.43 -11.10
Si -0.07  7.27 -9.47
Si  3.15 -8.56 -7.74
Si  9.17  7.22  2.63
Si -6.93 -6.01 -7.69
Si -3.70  2.42 -11.12
Si -6.47 -9.74 -2.57
Si -9.17 -7.27 -2.55
Si -3.15  8.63  7.69
Si  5.00 10.86  0.87
Si -3.66 -2.40 11.16
Si 10.92  2.46 -4.31
Si -10.94  2.48 -4.25
Si -5.95 -8.49 -6.05
Si 10.07 -4.89  4.32
Si 10.11  4.86  4.27
Si -10.10 -4.92 -4.26
Si  3.64 -2.54 11.17
Si -4.62  0.11 -11.10
Si  1.74 -7.32 -9.39
Si -1.82  7.31  9.39
Si -10.10  4.98 -4.27
Si -11.44 -3.67  0.90
Si  6.01  8.55  6.02
Si 11.01 -2.45  4.30
Si -11.01 -2.47  4.30
Si  4.60 -0.10 11.18
Si  6.96  6.18  7.73
Si -1.89 -7.33 -9.44
Si  1.78  7.33  9.47
Si -5.09 -10.96 -0.85
Si 11.50  3.71 -0.83
Si  7.30 -2.41 -9.38
Si -0.88 -4.87 11.07
Si  8.66 -3.63 -7.70
Si -11.88 -0.06  2.54
Si -8.66  3.67  7.70
Si 11.88  0.00 -2.57
Si -7.27  2.54  9.41
Si -7.35 -2.41 -9.38
Si  0.98  4.89 -11.10
Si -8.59  8.58 -0.87
