500
set: 434.00  0.00  0.00
Si  0.03 -0.15  0.04
Si -1.75  0.96  0.84
Si  1.81  1.05  0.66
Si  0.04  0.14 -2.22
Si -0.04 -2.30  0.65
Si  0.03 -2.02  2.88
Si -1.81  3.04 -0.08
Si  1.87 -0.97 -2.89
Si  1.63  3.21  0.06
Si -3.60  0.06 -0.04
Si -1.68 -1.07 -3.01
Si  1.97  1.04  2.96
Si  3.71  0.06 -0.04
Si -2.02 -3.12  0.06
Si -1.78  1.14  3.08
Si  1.84 -3.29 -0.08
Si  0.03  2.20 -3.09
Si  3.44 -2.01  0.82
Si -3.54 -0.01 -2.27
Si -1.84 -3.12 -2.16
Si -1.83 -1.05  3.68
Si  0.11  2.10  3.70
Si  1.81  3.21 -2.16
Si  1.82 -3.16 -2.29
Si -1.83  3.17 -2.29
Si  1.81 -1.01  3.81
Si  3.77 -0.01 -2.27
Si -0.22  4.32  0.82
Si -3.87 -2.01  0.82
Si  3.61  2.13 -2.94
Si -0.04 -4.20 -2.94
Si  3.61 -2.09  3.03
Si -3.70  2.13 -2.94
Si -0.04  4.24  3.03
Si -3.70 -2.09  3.03
Si  3.61  4.03  0.65
Si -3.70  4.03  0.65
Si  0.04 -4.08  3.75
Si  1.91 -1.15 -5.13
Si -1.85 -5.28  0.66
Si -5.50  1.05  0.66
Si -0.04  1.92 -5.32
Si -3.62  2.25  3.75
Si  5.56  0.96  0.84
Si -1.85 -1.06 -5.31
Si  3.69  2.25  3.75
Si  1.91 -5.37  0.84
Si  5.28 -3.12  0.06
Si -5.34  1.04  2.96
Si -5.44 -0.97 -2.89
Si -1.81 -1.18  5.89
Si  0.06 -6.27 -0.04
Si  5.50  3.04 -0.08
Si -1.68 -5.29  2.96
Si -3.63 -4.13 -3.09
Si  0.05  2.17  5.93
Si  1.87 -5.19  3.08
Si  1.63 -1.01  6.03
Si -3.63  4.31  2.88
Si  3.68 -4.13 -3.09
Si -2.02  1.10 -5.91
Si -1.78  5.36 -2.89
Si  0.06 -2.06 -6.00
Si  3.68  4.31  2.88
Si  1.97  5.26 -3.01
Si -5.47 -3.29 -0.08
Si  0.05  6.38 -0.04
Si  1.84  0.93 -6.05
Si  5.53  1.14  3.08
Si  5.63 -1.07 -3.01
Si -5.68  3.21  0.06
Si  3.44  2.21 -5.15
Si -0.21 -4.12 -5.15
Si -3.54 -4.23  3.70
Si  5.46 -3.12 -2.16
Si  5.48 -1.05  3.68
Si  1.82  5.28  3.68
Si  0.11  6.32 -2.27
Si -5.50  3.21 -2.16
Si  5.48  3.17 -2.29
Si -5.49 -3.16 -2.29
Si  0.12 -6.34 -2.27
Si  3.77 -4.23  3.70
Si -5.50 -1.01  3.81
Si -0.22  0.10  6.79
Si -1.85  5.32  3.81
Si -3.87  2.21 -5.15
Si -3.63  6.18  0.04
Si  0.03  4.07 -5.93
Si  3.68  6.18  0.04
Si -7.28 -0.15  0.04
Si -3.63  1.96  6.01
Si -3.63 -2.26 -5.93
Si  3.68  1.96  6.01
Si  3.68 -2.26 -5.93
Si  7.34 -0.15  0.04
Si -3.63 -6.48  0.04
Si  0.03 -4.37  6.01
Si  3.68 -6.48  0.04
Si -1.75  5.18 -5.13
Si -3.62 -6.19 -2.22
Si -5.40 -1.15 -5.13
Si  3.69 -6.19 -2.22
Si  3.61 -0.19  6.62
Si  1.81 -3.17  6.63
Si -1.85  3.16  6.63
Si  1.91  7.29  0.84
Si -3.70 -0.19  6.62
Si -7.27  0.14 -2.22
Si  5.46 -5.28  0.66
Si -1.85  7.38  0.66
Si  7.27 -2.30  0.65
Si -5.40 -5.37  0.84
Si  7.35  0.14 -2.22
Si  5.46 -1.06 -5.31
Si  1.81  5.27 -5.31
Si  1.91  3.07  6.81
Si -7.35 -2.30  0.65
Si -3.62  6.47 -2.22
Si -1.75 -3.25  6.81
Si  3.69  6.47 -2.22
Si  3.61 -4.41 -5.32
Si -3.70 -4.41 -5.32
Si  5.28  1.10 -5.91
Si  1.84  5.15  5.89
Si -1.78 -7.30 -2.89
Si  1.63 -5.23 -5.91
Si -5.34  5.26 -3.01
Si -7.28 -2.02  2.88
Si -3.60 -4.16  5.93
Si -1.68  7.37  2.96
Si -5.44 -5.19  3.08
Si  7.33 -2.02  2.88
Si  5.50 -1.18  5.89
Si  3.71 -4.16  5.93
Si -3.60  4.27 -6.00
Si -5.47  0.93 -6.05
Si -7.28  2.20 -3.09
Si  5.53  5.36 -2.89
Si  1.97 -7.40 -3.01
Si  3.71  4.27 -6.00
Si  7.33  2.20 -3.09
Si  5.63 -5.29  2.96
Si -2.03  5.32  6.03
Si  1.87  7.47  3.08
Si -1.81 -5.40 -6.05
Si -5.68 -1.01  6.03
Si  7.09  4.32  0.82
Si -7.20  2.10  3.70
Si -0.21 -8.34  0.82
Si -1.84  1.10 -8.13
Si  1.82 -7.38  3.68
Si -5.49  5.28  3.68
Si -1.84 -7.34  3.81
Si  0.12 -2.12 -8.24
Si  1.82  1.06 -8.25
Si  5.46  5.32  3.81
Si  7.42  2.10  3.70
Si -7.53  4.32  0.82
Si  7.26 -4.20 -2.94
Si -0.04  0.02 -8.91
Si  7.26  4.24  3.03
Si -0.04 -8.42  3.03
Si -0.04  8.46 -2.94
Si -7.35 -4.20 -2.94
Si -0.04  0.02  9.00
Si -7.35  4.24  3.03
Si -0.04  6.14  6.62
Si -5.40  7.29  0.84
Si -7.27 -4.08  3.75
Si -9.06  0.96  0.84
Si  5.46  3.16  6.63
Si -3.62 -1.97 -8.19
Si  5.56  5.18 -5.13
Si -5.50 -3.17  6.63
Si  3.69 -1.97 -8.19
Si  9.12  1.05  0.66
Si  5.46  7.38  0.66
Si  7.35 -4.08  3.75
Si  7.27  1.92 -5.32
Si -5.40  3.07  6.81
Si -1.75 -7.48 -5.13
Si -7.35  1.92 -5.32
Si  0.04  4.36 -8.19
Si  1.81 -7.39 -5.31
Si -5.50  5.27 -5.31
Si -0.04 -6.52  6.62
Si  0.04  8.58  3.75
Si  5.56 -3.25  6.81
Si  3.61 -8.63  0.65
Si -3.70 -8.63  0.65
Si  8.94  3.21  0.06
Si -5.47  5.15  5.89
Si -8.99 -1.07 -3.01
Si -1.78 -3.08 -8.86
Si -3.63 -8.35  2.88
Si  1.84  9.37 -0.08
Si -3.63  0.09  8.84
Si  3.68 -8.35  2.88
Si  3.68  0.09  8.84
Si  1.63 -9.45  0.06
Si -7.25 -6.27 -0.04
Si  5.53 -7.30 -2.89
Si -5.34 -7.40 -3.01
Si -9.12  3.04 -0.08
Si -1.68  3.15  8.93
Si  1.87  3.25 -8.86
Si  5.28  5.32  6.03
Si -7.25  2.17  5.93
Si -1.81  7.26 -6.05
Si  1.63  7.42 -5.91
Si -7.25 -2.06 -6.00
Si -1.68  3.15 -8.98
Si -7.25  6.38 -0.04
Si -9.09  1.14  3.08
Si  9.18 -0.97 -2.89
Si  7.36 -6.27 -0.04
Si  1.97 -3.18  8.93
Si  7.09 -4.12 -5.15
Si  7.36  2.17  5.93
Si -2.03 -7.34  6.03
Si  1.84 -7.51  5.89
Si  7.36 -2.06 -6.00
Si -1.78 -3.08  9.05
Si -5.68 -5.23 -5.91
Si  9.15 -3.29 -0.08
Si  1.97 -3.18 -8.98
Si  5.63  7.37  2.96
Si -5.44  7.47  3.08
Si  7.36  6.38 -0.04
Si -2.03  9.54  0.06
Si -3.63  0.09 -9.06
Si -3.63  8.53 -3.09
Si  3.68  0.09 -9.06
Si -1.81 -9.62 -0.08
Si  3.68  8.53 -3.09
Si  9.28  1.04  2.96
Si  1.87  3.25  9.05
Si  5.50 -5.40 -6.05
Si  7.09  0.10  6.79
Si  1.81 -5.23 -8.13
Si  3.44 -6.23  6.79
Si -7.20  6.32 -2.27
Si -9.33 -3.12  0.06
Si -7.19 -6.34 -2.27
Si  5.46  1.10 -8.13
Si  1.81 -9.45 -2.16
Si -3.54  8.43  3.70
Si  1.82  1.06  9.65
Si  0.11 -2.12  9.67
Si -5.49 -7.38  3.68
Si  9.12  3.21 -2.16
Si -3.54  4.21 -8.24
Si  5.46 -7.34  3.81
Si -9.15 -3.12 -2.16
Si -9.14 -1.05  3.68
Si -1.83 -9.49 -2.29
Si  9.13 -3.16 -2.29
Si  9.12 -1.01  3.81
Si  1.82  9.50 -2.29
Si -9.14  3.17 -2.29
Si  3.77  8.43  3.70
Si -1.85  9.54 -2.16
Si  3.44  6.43  6.79
Si -1.83 -5.27 -8.25
Si -5.49  1.06 -8.25
Si -0.22  8.54 -5.15
Si  3.77  4.21 -8.24
Si -3.87 -6.23  6.79
Si -7.52 -4.12 -5.15
Si  7.42  6.32 -2.27
Si -1.85  1.10  9.78
Si  7.42 -6.34 -2.27
Si -3.87  6.43  6.79
Si -7.53  0.10  6.79
Si -7.28  4.07 -5.93
Si  0.03  8.29  6.01
Si  7.34  4.07 -5.93
Si -0.04 10.36  0.65
Si -7.28 -4.37  6.01
Si  0.03 -8.59 -5.93
Si  7.33 -4.37  6.01
Si  3.61  8.25 -5.32
Si -3.70  8.25 -5.32
Si -3.62 -1.97  9.72
Si  3.69 -1.97  9.72
Si -9.16 -5.28  0.66
Si  9.21 -1.15 -5.13
Si -5.50 -7.39 -5.31
Si  5.56 -7.48 -5.13
Si -9.16 -1.06 -5.31
Si  0.04  4.36  9.72
Si  9.21 -5.37  0.84
Si  0.03 -6.24  8.84
Si  8.94 -1.01  6.03
Si -8.99 -5.29  2.96
Si -5.47  9.37 -0.08
Si  5.28 -7.34  6.03
Si -5.34 -3.18  8.93
Si  5.53 -3.08 -8.86
Si -5.44  3.25 -8.86
Si  5.28  9.54  0.06
Si  0.03 -10.46 -3.09
Si -10.91  0.06 -0.04
Si -5.34 -3.18 -8.98
Si -9.12 -1.18  5.89
Si -3.60 -8.38 -6.00
Si  0.03  6.42  8.84
Si  5.50  7.26 -6.05
Si -9.09  5.36 -2.89
Si  3.71 -8.38 -6.00
Si 10.75 -2.01  0.82
Si -3.60  8.49  5.93
Si  7.09 -8.34  0.82
Si  9.18 -5.19  3.08
Si -5.47 -7.51  5.89
Si  0.03 -6.24 -9.06
Si  3.71  8.49  5.93
Si  9.15  0.93 -6.05
Si  5.63  3.15  8.93
Si 11.02  0.06 -0.04
Si  0.03 10.64  2.88
Si -5.68 -9.45  0.06
Si  5.53 -3.08  9.05
Si -5.44  3.25  9.05
Si  5.63  3.15 -8.98
Si -5.68  7.42 -5.91
Si  5.50 -9.62 -0.08
Si  9.28  5.26 -3.01
Si -10.85 -0.01 -2.27
Si -9.33  1.10 -5.91
Si  0.03  6.42 -9.06
Si -5.50 -5.23 -8.13
Si -0.21  0.10 -11.12
Si -3.54  4.21  9.67
Si -7.19 -2.12 -8.24
Si -5.50 -9.45 -2.16
Si -1.83 -5.27  9.65
Si -5.49  1.06  9.65
Si  1.81  7.43 -8.13
Si  9.13  5.28  3.68
Si  0.12 -10.55  3.70
Si  5.48 -9.49 -2.29
Si  3.77  4.21  9.67
Si  5.46  9.54 -2.16
Si -5.49  9.50 -2.29
Si  3.44 10.65  0.82
Si  5.48 -5.27 -8.25
Si -1.83  7.39 -8.25
Si  1.81 -5.22  9.78
Si -9.15  5.32  3.81
Si  5.46  1.10  9.78
Si -7.52 -8.34  0.82
Si  7.42 -2.12 -8.24
Si 11.08 -0.01 -2.27
Si -3.87 10.65  0.82
Si -11.18 -2.01  0.82
Si  7.26  0.02 -8.91
Si  3.61 -6.31 -8.91
Si 10.92  2.13 -2.94
Si  3.61 -10.53 -2.94
Si  3.61  6.35 -8.91
Si 10.92 -2.09  3.03
Si -3.70 -6.31 -8.91
Si  7.26 -8.42  3.03
Si  7.26  8.46 -2.94
Si -3.70 -10.53 -2.94
Si -3.70  6.35 -8.91
Si -7.35  0.02 -8.91
Si  7.26  0.02  9.00
Si  3.61 -6.31  9.00
Si  3.61 10.57  3.03
Si -7.35 -8.42  3.03
Si -7.35  8.46 -2.94
Si  7.27  6.14  6.62
Si  3.61  6.35  9.00
Si -11.01  2.13 -2.94
Si -3.70 -6.31  9.00
Si -3.70 10.57  3.03
Si -11.01 -2.09  3.03
Si -3.70  6.35  9.00
Si -7.35  0.02  9.00
Si -9.06  5.18 -5.13
Si -3.62 -10.41  3.75
Si -7.35  6.14  6.62
Si  0.04 -8.30 -8.19
Si 10.92  4.03  0.65
Si  3.69 -10.41  3.75
Si  1.91  3.07 -11.10
Si -1.75 -3.26 -11.10
Si  9.12 -3.17  6.63
Si  1.81  9.49  6.63
Si -1.85 -9.50  6.63
Si -11.01  4.03  0.65
Si -9.16  3.16  6.63
Si -1.75  9.40  6.81
Si -10.92  2.25  3.75
Si  1.81 -11.61  0.66
Si -9.16  7.38  0.66
Si  9.21  7.29  0.84
Si -7.27  4.36 -8.19
Si -9.06 -3.25  6.81
Si  9.12  5.27 -5.31
Si  7.27 -6.52  6.62
Si  7.35  4.36 -8.19
Si 11.00  2.25  3.75
Si -7.35 -6.52  6.62
Si  3.61 -0.19 -11.29
Si  1.81 -3.17 -11.28
Si -1.85  3.16 -11.28
Si -1.75 -11.69  0.84
Si -7.27  8.58  3.75
Si  9.21  3.07  6.81
Si -3.70 -0.19 -11.29
Si  7.35  8.58  3.75
Si  1.91 -9.58  6.81
Si  8.94 -5.23 -5.91
Si -0.04 -10.74 -5.32
Si -8.99  7.37  2.96
Si -9.09 -7.30 -2.89
Si  1.63 -1.01 -11.88
Si  1.84  0.93 11.85
Si  9.15  5.15  5.89
Si  0.06 -10.49  5.93
Si -1.78 -11.52  3.08
Si  0.05 -2.05 11.90
Si -1.68 11.59 -3.01
Si -10.94 -4.13 -3.09
Si -10.94  4.31  2.88
Si 10.75  2.21 -5.15
Si 10.99 -4.13 -3.09
Si  3.44 -10.45 -5.15
Si  1.97 -11.62  2.96
Si 10.99  4.31  2.88
Si  0.06  2.16 -11.97
Si  1.87 11.69 -2.89
Si  0.05 10.60 -6.00
Si -9.12 -5.40 -6.05
Si -1.81 -1.18 -12.02
Si -2.03  1.10 12.00
Si -10.85 -4.23  3.70
Si  9.18  7.47  3.08
Si  7.09  8.54 -5.15
Si -7.20 -2.12  9.67
Si  9.28 -7.40 -3.01
Si -3.87 -10.45 -5.15
Si  5.48 -5.27  9.65
Si -9.15  1.10 -8.13
Si -1.83  7.39  9.65
Si  9.13 -7.38  3.68
Si -5.50  7.43 -8.13
Si -1.83 11.61  3.68
Si -3.54 -8.45 -8.24
Si -9.34  5.32  6.03
Si -9.15 -7.34  3.81
Si  9.13  1.06 -8.25
Si  5.48  7.39 -8.25
Si  7.42 -2.12  9.67
Si -5.50 -5.22  9.78
Si  3.77 -8.45 -8.24
Si  1.81 11.65  3.81
Si  1.81  7.43  9.78
Si 11.08 -4.23  3.70
Si -7.53  8.54 -5.15
Si -11.18  2.21 -5.15
Si -3.63 10.40 -5.93
Si  0.03 12.51  0.04
Si  3.68 10.40 -5.93
Si -10.94  6.18  0.04
Si -7.28  8.29  6.01
Si -3.63  1.96 -11.90
Si  7.33  8.29  6.01
Si  3.68  1.96 -11.90
Si 10.99  6.18  0.04
Si -10.94  1.96  6.01
Si -10.94 -2.26 -5.93
Si  0.03  4.07 11.98
Si  7.27 10.36  0.65
Si  0.03 -4.37 -11.90
Si 10.99  1.96  6.01
Si 10.99 -2.26 -5.93
Si -10.94 -6.48  0.04
Si  0.04 -12.52 -2.22
Si -3.63 -2.26 11.98
Si -7.35 10.36  0.65
Si -5.40  3.07 -11.10
Si -7.28 -8.59 -5.93
Si  3.68 -2.26 11.98
Si -0.04  1.92 12.59
Si  1.91 11.51 -5.13
Si -10.92 -6.19 -2.22
Si  7.34 -8.59 -5.93
Si 10.99 -6.48  0.04
Si 10.92 -0.19  6.62
Si -1.85 -1.06 12.60
Si  0.04 -8.30  9.72
Si -3.63 -10.70  6.01
Si  5.46 -9.50  6.63
Si  0.03 -12.81  0.04
Si  3.68 -10.70  6.01
