500
set: 1100.00  0.00  0.00
Si  0.42 -1.13  0.73
Si -0.36  1.16 -0.77
Si -1.32 -1.12 -0.83
Si  1.33  1.18  0.84
Si  0.81 -0.08 -2.36
Si -2.09  1.19  0.85
Si -0.90 -0.09  2.38
Si  2.24 -1.10 -0.88
Si -0.05  2.25  2.42
Si -3.02 -1.05  0.85
Si -0.06 -2.30 -2.40
Si  3.11  1.25 -0.85
Si  2.55  0.07  2.46
Si -0.43 -3.42  0.84
Si -2.66 -0.11 -2.42
Si  0.44  3.48 -0.83
Si -1.67  2.15 -2.41
Si  1.66 -2.25  2.36
Si  1.35 -3.35 -0.85
Si  1.71  2.30 -2.40
Si -1.82 -2.35  2.42
Si -1.26  3.55  0.85
Si -3.78  1.25 -0.85
Si  3.87 -1.05  0.85
Si -2.12 -3.44 -0.77
Si -0.94 -0.05 -4.01
Si  0.83  0.00  4.04
Si  2.18  3.47  0.73
Si -0.01  2.21 -4.05
Si -2.89  3.50 -0.88
Si  3.04 -3.42  0.85
Si -0.07 -2.38  4.07
Si -2.55 -0.15  4.02
Si  3.42  2.35  2.36
Si  2.54  0.06 -4.07
Si -3.47  2.35  2.36
Si  1.67 -2.23 -3.97
Si -3.43 -2.45 -2.41
Si -4.65 -1.10 -0.88
Si  3.46 -2.45 -2.41
Si  4.23 -0.11 -2.42
Si -1.78  2.19  4.01
Si  1.69  2.22  4.07
Si -4.34  0.07  2.46
Si  4.80  1.19  0.85
Si -1.78 -2.39 -4.05
Si  0.87  4.51  2.38
Si -0.90  4.49 -2.42
Si -3.85 -3.42  0.85
Si  0.79 -4.53  2.46
Si -0.95 -4.68 -2.36
Si  4.00  3.50 -0.88
Si  2.57  4.52 -2.36
Si  0.45 -1.12 -5.59
Si  5.57 -1.12 -0.83
Si -5.56  1.18  0.84
Si -0.44  1.18  5.61
Si  3.43  2.37 -3.97
Si  3.35 -2.41  4.01
Si -3.46  2.37 -3.97
Si  0.47 -5.71 -0.88
Si  2.47 -4.71 -2.42
Si -0.33  5.79  0.85
Si -3.54 -2.41  4.01
Si -2.58  4.67  2.46
Si -4.71  3.47  0.73
Si -2.66 -4.69  2.38
Si -1.24 -1.14  5.67
Si  4.34 -0.15  4.02
Si  4.77 -3.44 -0.77
Si -1.34 -5.73  0.73
Si -4.35  0.06 -4.07
Si  1.30  1.17 -5.70
Si  1.40  5.76 -0.77
Si -0.79  4.45  4.02
Si  2.11 -5.65  0.85
Si  5.07 -2.35  2.42
Si  2.23 -1.05  5.58
Si -2.14  1.25 -5.58
Si  0.83  4.55 -4.01
Si  5.22  2.15 -2.41
Si  0.78 -4.55 -4.07
Si -5.18  2.30 -2.40
Si -5.23 -2.25  2.36
Si -0.94 -4.60  4.04
Si -2.02  5.85 -0.85
Si -2.97 -1.11 -5.59
Si  5.99 -0.09  2.38
Si  3.12  1.20  5.56
Si -6.08 -0.08 -2.36
Si -5.54 -3.35 -0.85
Si -3.08 -5.72 -0.83
Si -6.47 -1.13  0.73
Si  3.09  5.78  0.84
Si  2.59  4.60  4.04
Si  1.35 -3.41  5.56
Si  0.52  3.46  5.67
Si -0.46 -3.43 -5.70
Si  6.53  1.16 -0.77
Si -4.32  4.52 -2.36
Si -1.21  3.48 -5.59
Si -2.59  4.66 -4.07
Si -2.70 -4.66 -4.01
Si  5.63  3.55  0.85
Si  2.58 -4.75  4.02
Si  4.23 -4.69  2.38
Si  4.31  4.67  2.46
Si -3.77  1.20  5.56
Si  5.11  2.19  4.01
Si -4.42 -4.71 -2.42
Si  3.92 -1.11 -5.59
Si  3.81 -5.72 -0.83
Si -2.20 -3.42  5.61
Si -5.22 -2.23 -3.97
Si  2.21  3.48 -5.59
Si  5.11 -2.39 -4.05
Si -3.80  5.78  0.84
Si -5.20  2.22  4.07
Si  2.99 -3.35 -5.58
Si  0.09  6.75 -2.41
Si  5.95 -0.05 -4.01
Si -2.90  3.55  5.58
Si -0.10 -6.85  2.36
Si -6.06  0.00  4.04
Si -4.66 -1.05  5.58
Si  6.46 -3.42  0.84
Si -0.44  1.18 -7.26
Si -6.45  3.48 -0.83
Si  1.30  1.17  7.17
Si  0.45 -1.12  7.28
Si -7.25  1.16 -0.77
Si -1.24 -1.14 -7.20
Si  7.31 -1.13  0.73
Si  4.75  1.25 -5.58
Si  4.19 -4.66 -4.01
Si -4.78 -5.65  0.85
Si  1.71  6.85  2.42
Si -4.30  4.60  4.04
Si -1.82 -6.90 -2.40
Si  4.30  4.66 -4.07
Si -1.71  6.96  2.36
Si -4.31 -4.75  4.02
Si -3.90 -3.35 -5.58
Si  6.83  2.25  2.42
Si  6.83 -2.30 -2.40
Si  1.69 -7.05 -2.41
Si  4.87  5.85 -0.85
Si  2.23 -1.05 -7.28
Si -6.94  2.25  2.42
Si -2.14  1.25  7.29
Si -6.94 -2.30 -2.40
Si  3.99  3.55  5.58
Si  5.99  4.49 -2.42
Si -0.01  6.79  4.01
Si -6.02  4.51  2.38
Si -0.09 -6.83 -3.97
Si  5.94 -4.68 -2.36
Si -2.97 -1.12  7.28
Si -0.46 -3.43  7.17
Si  0.47 -5.65  5.58
Si -6.10 -4.53  2.46
Si -5.49  5.76 -0.77
Si  0.52  3.46 -7.20
Si -0.41 -7.95 -0.85
Si  5.55 -5.73  0.73
Si  3.12  1.20 -7.31
Si  7.70 -0.08 -2.36
Si -5.59  1.17 -5.70
Si  4.69 -3.42  5.61
Si -3.42  6.90 -2.40
Si -4.68  3.48 -5.59
Si  3.31 -6.96  2.42
Si  5.65 -1.14  5.67
Si  3.47  6.90 -2.40
Si -0.38  5.85 -5.58
Si -1.31 -5.72 -5.59
Si  1.75  6.81 -4.05
Si -7.32 -3.42  0.84
Si -7.78 -0.09  2.38
Si  7.33  3.48 -0.83
Si -1.21  3.48  7.28
Si  1.32  5.78  5.61
Si  1.28 -8.02  0.85
Si  1.35 -3.40 -7.31
Si -3.58 -6.96  2.42
Si -1.70  6.97 -3.97
Si  0.51  8.15  0.85
Si -1.13  8.10 -0.88
Si  1.59 -7.01  4.01
Si  6.87  2.21 -4.05
Si -2.01  5.80  5.56
Si  2.16 -5.72 -5.59
Si -1.83 -6.98  4.07
Si  6.82 -2.38  4.07
Si -6.90  2.21 -4.05
Si -3.77  1.20 -7.31
Si -2.20 -3.42 -7.26
Si -8.21 -1.12 -0.83
Si  3.92 -1.12  7.28
Si  8.22  1.18  0.84
Si -2.19 -8.03  0.84
Si  2.21  3.48  7.28
Si -6.96 -2.38  4.07
Si  2.20  8.08 -0.83
Si  5.95 -4.60  4.04
Si -5.53 -3.41  5.56
Si  6.10  4.45  4.02
Si  2.99 -3.35  7.29
Si -6.06  4.55 -4.01
Si -6.44 -1.12 -5.59
Si -2.90  3.55 -7.28
Si -3.00 -5.74  5.67
Si -2.94  8.07  0.73
Si  3.01 -8.04 -0.77
Si  6.45  1.18  5.61
Si -6.42 -5.71 -0.88
Si -6.11 -4.55 -4.07
Si -3.43  6.82  4.07
Si  3.46  6.82  4.07
Si  3.06  5.77 -5.70
Si  5.68  3.48 -5.59
Si  7.71  0.00  4.04
Si -4.66 -1.05 -7.28
Si  3.35 -6.99 -4.05
Si  4.75  1.25  7.29
Si  6.56  5.79  0.85
Si -7.82 -0.05 -4.01
Si -3.54 -6.99 -4.05
Si  0.82  0.00 -8.83
Si  5.07 -6.90 -2.40
Si -0.93 -0.06  8.85
Si -3.90 -3.35  7.29
Si -5.18  6.85  2.42
Si -8.15  3.55  0.85
Si  8.24 -3.35 -0.85
Si  3.89 -5.74  5.67
Si -3.88 -8.04 -0.77
Si -3.83  5.77 -5.70
Si  5.18  6.96  2.36
Si  3.94  8.07  0.73
Si  3.99  3.55 -7.28
Si -5.20 -7.05 -2.41
Si -0.01  2.21  8.82
Si -8.98  1.19  0.85
Si -0.07 -2.38 -8.80
Si  8.55 -2.25  2.36
Si -8.56  2.15 -2.41
Si  2.54  0.05  8.79
Si -5.59  1.17  7.17
Si -6.37  3.46  5.67
Si -2.55 -0.15 -8.85
Si  8.60  2.30 -2.40
Si  5.65 -1.14 -7.20
Si  1.69  2.22 -8.80
Si  0.47 -5.65 -7.28
Si  9.12 -1.10 -0.88
Si  7.68 -4.53  2.46
Si  6.43 -3.43 -5.70
Si  7.75  4.51  2.38
Si -7.21  5.79  0.85
Si -4.73 -5.72 -5.59
Si -1.78  2.19 -8.85
Si  7.34 -1.12 -5.59
Si  4.69 -3.42 -7.26
Si -7.33  1.18  5.61
Si -7.79  4.49 -2.42
Si -1.78 -2.39  8.82
Si  1.67 -2.23  8.90
Si -4.68  3.48  7.28
Si -8.71 -2.35  2.42
Si  4.70 -8.03  0.84
Si -0.38  5.85  7.29
Si -1.31 -5.73  7.28
Si  7.36 -5.71 -0.88
Si  1.32  5.78 -7.26
Si -4.68  8.08 -0.83
Si  4.88  5.80  5.56
Si -7.84 -4.68 -2.36
Si -5.14  6.81 -4.05
Si  0.87  9.09 -2.42
Si  2.16 -5.72  7.28
Si -0.97 -9.13  2.46
Si  5.06 -6.98  4.07
Si -2.01  5.80 -7.31
Si  5.19  6.97 -3.97
Si -0.82  9.27  2.46
Si  0.71 -9.31 -2.42
Si -5.30 -7.01  4.01
Si -9.01 -3.44 -0.77
Si -3.00 -5.74 -7.20
Si  8.56 -2.23 -3.97
Si  3.06  5.77  7.17
Si  9.07  3.47  0.73
Si -7.68  4.45  4.02
Si  5.58 -5.72 -5.59
Si  9.44  0.07  2.46
Si  8.58  2.22  4.07
Si -0.41 -8.01  5.56
Si -2.55  9.12 -2.36
Si  3.35 -2.41 -8.85
Si  2.63  9.11  2.38
Si -5.54 -3.40 -7.31
Si -6.44 -1.12  7.28
Si  6.45  1.18 -7.26
Si -5.57  5.78  5.61
Si  1.23 -7.95 -5.58
Si -8.66  2.19  4.01
Si  7.67 -4.55 -4.07
Si -4.35  0.05  8.79
Si  7.72  4.55 -4.01
Si -5.61 -8.02  0.85
Si  3.43  2.37  8.90
Si -3.54 -2.41 -8.85
Si -3.46  2.37  8.90
Si  0.56  8.09 -5.59
Si -9.55 -0.11 -2.42
Si  4.34 -0.15 -8.85
Si -8.67 -2.39 -4.05
Si  5.68  3.48  7.28
Si -6.80  6.75 -2.41
Si  2.47 -9.29  2.38
Si -7.35 -3.43 -5.70
Si  6.79 -6.85  2.36
Si  0.78 -4.55  8.79
Si -7.83 -4.60  4.04
Si -0.79  4.45 -8.85
Si -1.14  8.15  5.58
Si  7.41  3.46  5.67
Si -2.71 -9.28 -2.36
Si  0.97  9.05  4.02
Si -3.82  5.77  7.17
Si  5.76  8.10 -0.88
Si -8.13 -1.14  5.67
Si  0.83  4.55  8.85
Si  3.89 -5.74 -7.20
Si -0.94 -4.60 -8.83
Si -9.91 -1.05  0.85
Si  6.98  6.75 -2.41
Si  8.19  1.17 -5.70
Si -8.23 -5.73  0.73
Si -0.98 -9.15 -4.07
Si -6.99 -6.85  2.36
Si -2.22 -8.03 -5.70
Si 10.00  1.25 -0.85
Si  2.28  8.06  5.67
Si  8.29  5.76 -0.77
Si -0.83  9.26 -4.07
Si  0.81 -9.35  4.02
Si  2.93 -8.02  5.61
Si -6.37  3.46 -7.20
Si -6.42 -5.65  5.58
Si  6.43 -3.43  7.17
Si -2.92  8.08 -5.59
Si -9.44 -0.15  4.02
Si  9.43  0.06 -4.07
Si -2.59  4.66  8.79
Si  2.59  4.60 -8.83
Si  6.47 -7.95 -0.85
Si  0.35 -10.25  0.85
Si  2.59  9.15 -4.01
Si -4.26  9.11  2.38
Si -2.70 -4.66  8.85
Si  2.58 -4.75 -8.85
Si -2.54  9.20  4.04
Si  4.34  9.12 -2.36
Si  2.43 -9.26 -4.01
Si  6.51  5.85 -5.58
Si -7.33  1.18 -7.26
Si -6.38  8.15  0.85
Si -4.73 -5.72  7.28
Si  7.34 -1.12  7.28
Si -2.70 -9.20  4.04
Si  6.79 -6.83 -3.97
Si -9.78  3.50 -0.88
Si -1.29 -10.31 -0.88
Si -8.10  3.48 -5.59
Si  4.18 -9.28 -2.36
Si  5.11  2.19 -8.85
Si -5.20  2.22 -8.80
Si  6.87  6.79  4.01
Si  5.11 -2.39  8.82
Si -6.90  6.79  4.01
Si -0.26 10.45 -0.85
Si  8.24 -3.41  5.56
Si  1.44 10.39  0.85
Si -0.90 -0.09 -10.48
Si  4.88  5.80 -7.31
Si  9.93 -3.42  0.85
Si  0.81 -0.08 10.50
Si -6.98 -6.83 -3.97
Si  2.05 -10.32 -0.83
Si -5.22 -2.23  8.90
Si -3.96 -8.02  5.61
Si -4.42 -9.29  2.38
Si  3.97  8.08 -5.59
Si -2.03 10.38  0.84
Si  9.00 -5.65  0.85
Si  5.96 -0.06  8.85
Si -0.06  2.25 -10.45
Si -9.03  1.25 -5.58
Si -8.91  5.85 -0.85
Si -6.06  0.00 -8.83
Si  2.55  0.07 -10.40
Si -0.05 -2.30 10.47
Si  9.12 -1.05  5.58
Si  9.46  4.52 -2.36
Si  9.36 -4.71 -2.42
Si -10.67  1.25 -0.85
Si -2.66 -0.11 10.45
Si -1.67  2.15 10.46
Si  5.58 -5.73  7.28
Si -3.10 -10.33  0.73
Si -7.35 -3.43  7.17
Si -5.57  5.78 -7.26
Si  7.36 -5.65  5.58
Si -7.30 -7.95 -0.85
Si 10.31  2.35  2.36
Si -9.47  4.67  2.46
Si  4.30  4.66  8.79
Si 10.76 -1.05  0.85
Si -4.30  4.60 -8.83
Si  4.19 -4.66  8.85
Si -0.41 -8.01 -7.31
Si  1.23 -7.95  7.29
Si  1.71  2.30 10.47
Si  3.17 10.36 -0.77
Si -1.82 -2.35 -10.45
Si  1.66 -2.25 -10.51
Si -7.26  5.85 -5.58
Si -4.61  8.06  5.67
Si -4.30  9.15 -4.01
Si -10.32 -2.45 -2.41
Si -10.36  2.35  2.36
Si  4.19 -9.20  4.04
Si  7.41  3.46 -7.20
Si  0.56  8.09  7.28
Si  4.67 -8.03 -5.70
Si 10.35 -2.45 -2.41
Si -9.55 -4.69  2.38
Si -8.13 -1.14 -7.20
Si -4.31 -4.75 -8.85
Si  8.19  1.17  7.17
Si  4.35  9.20  4.04
Si -1.14  8.15 -7.28
Si -2.22 -8.03  7.17
Si -4.46 -9.26 -4.01
Si  3.79 -10.33  0.73
Si -3.72 10.36 -0.77
Si  7.39  8.15  0.85
Si  2.28  8.06 -7.20
Si  5.91 -9.13  2.46
Si -0.02  6.79 -8.85
Si -6.02  9.09 -2.42
Si  2.93 -8.02 -7.26
Si -9.09 -3.42  5.61
Si -0.09 -6.83  8.90
Si  9.10  3.48 -5.59
Si -6.42 -5.65 -7.28
Si -5.66 -7.95 -5.58
Si  8.60  6.85  2.42
Si -2.91  8.08  7.28
Si 10.24 -2.41  4.01
Si -3.43 -2.45 10.46
Si  4.23 -0.11 10.45
Si -4.34  0.07 -10.40
Si  1.75  6.81  8.82
Si  3.46 -2.45 10.46
Si  9.48  4.60  4.04
Si  3.42  2.35 -10.51
Si -10.74 -3.42  0.85
Si 10.32  2.37 -3.97
Si -8.60  6.96  2.36
Si -3.47  2.35 -10.51
Si -9.48  4.66 -4.07
Si  9.46 -4.75  4.02
Si -10.35  2.37 -3.97
Si  6.07  9.27  2.46
Si -8.71 -6.90 -2.40
Si  8.58 -7.05 -2.41
Si  0.79 -4.53 -10.40
Si -1.83 -6.98 -8.80
Si 11.12 -0.11 -2.42
Si  6.82 -2.38 -8.80
Si -9.86 -1.11 -5.59
Si -9.59 -4.66 -4.01
Si  6.51  5.85  7.29
Si  6.88  2.21  8.82
Si  1.59 -7.01 -8.85
Si -0.90  4.49 10.45
Si -6.90  2.21  8.82
Si -1.70  6.97  8.90
Si -8.02  8.10 -0.88
Si -4.84 -10.32 -0.83
Si -10.43 -2.41  4.01
Si -8.09  3.48  7.28
Si  5.75  8.15  5.58
Si -6.18 -9.31 -2.42
Si  0.86  4.51 -10.48
Si -8.20 -5.72 -5.59
Si -6.96 -2.38 -8.80
