500
set: 1197.00  0.00  0.00
Si  0.01 -0.98 -0.49
Si -1.18  1.17 -0.61
Si  0.17 -0.95  1.91
Si  1.57  1.46 -0.49
Si  1.09  1.29  1.97
Si  2.56 -1.18 -0.40
Si -1.64  1.50  1.81
Si -2.83 -1.18 -0.40
Si  0.30 -1.04 -2.94
Si -2.35 -0.95  1.98
Si -0.96 -3.14 -0.49
Si  1.22  1.20 -2.88
Si -0.30  3.41 -0.40
Si -1.50  1.40 -3.05
Si  3.04 -0.95  1.98
Si -2.22 -1.05 -2.87
Si  1.22 -3.09  1.81
Si  1.68 -3.42 -0.61
Si -1.44 -3.30  1.97
Si -3.82  1.46 -0.49
Si  0.18  3.64  1.98
Si  3.17 -1.05 -2.87
Si  4.21  1.17 -0.61
Si  3.75  1.50  1.81
Si  2.55  3.61 -0.49
Si -0.12 -0.89  4.37
Si  0.32  3.54 -2.87
Si  1.35 -3.19 -3.05
Si -1.31  1.27  4.24
Si -2.84  3.61 -0.49
Si -1.31 -3.40 -2.88
Si  1.44  1.55  4.37
Si -4.30  1.29  1.97
Si -2.68  3.65  1.91
Si  2.71  3.65  1.91
Si -3.71 -3.42 -0.61
Si  3.88  1.40 -3.05
Si  2.43 -1.09  4.45
Si -4.17  1.20 -2.88
Si -2.55  3.55 -2.94
Si  2.84  3.55 -2.94
Si -1.09 -3.04  4.37
Si  4.43 -3.14 -0.49
Si  0.14 -1.08 -5.34
Si -2.96 -1.09  4.45
Si -5.38 -0.98 -0.49
Si -4.17 -3.09  1.81
Si  3.95 -3.30  1.97
Si  5.40 -0.98 -0.49
Si  1.55 -3.32  4.24
Si -5.22 -0.95  1.91
Si -1.04  1.07 -5.47
Si -0.43  3.50  4.45
Si  1.70  1.36 -5.34
Si  0.02 -5.78 -0.40
Si  0.50 -5.54  1.98
Si  1.36  5.76 -0.61
Si  5.56 -0.95  1.91
Si -5.09 -1.04 -2.94
Si -4.04 -3.19 -3.05
Si  4.08  1.27  4.24
Si  4.08 -3.40 -2.88
Si  2.69 -1.28 -5.26
Si -2.70 -1.28 -5.26
Si -3.95  1.55  4.37
Si -2.52 -5.57 -0.49
Si  5.09  3.41 -0.40
Si -1.28  6.05 -0.49
Si -0.17  3.31 -5.26
Si  2.42  3.71  4.37
Si  2.87 -5.57 -0.49
Si -0.83 -3.23 -5.34
Si -2.37 -5.54  1.91
Si  0.63 -5.64 -2.87
Si  0.90  6.09  1.81
Si -1.76  5.88  1.97
Si -2.97  3.71  4.37
Si  5.69 -1.04 -2.94
Si  3.02 -5.54  1.91
Si -3.84 -3.32  4.24
Si -3.69  1.36 -5.34
Si -5.69  3.41 -0.40
Si -5.21  3.64  1.98
Si -1.63  5.79 -2.88
Si -6.57  1.17 -0.61
Si -2.23 -5.63 -2.94
Si  1.81 -3.52 -5.47
Si  1.03  5.99 -3.05
Si  0.04 -0.85  6.76
Si -5.08  3.54 -2.87
Si  4.30 -3.04  4.37
Si  6.48  1.29  1.97
Si  5.27 -0.89  4.37
Si  2.68  3.51 -5.34
Si -2.71  3.51 -5.34
Si  5.57  3.64  1.98
Si  0.96  1.39  6.83
Si -4.03  5.76 -0.61
Si  4.34  1.07 -5.47
Si -1.76  1.60  6.66
Si -5.51 -0.89  4.37
Si  3.15 -5.63 -2.94
Si -6.35 -3.14 -0.49
Si  6.96  1.46 -0.49
Si  3.63  5.88  1.97
Si -0.11 -5.68  4.45
Si  5.71  3.54 -2.87
Si  6.61  1.20 -2.88
Si -2.48 -0.86  6.84
Si  4.11  6.05 -0.49
Si  1.23  5.86  4.24
Si  1.09 -3.00  6.66
Si -7.02  1.50  1.81
Si -3.58 -3.52 -5.47
Si  3.76  5.79 -2.88
Si  2.91 -0.86  6.84
Si -2.65 -5.47  4.37
Si  6.61 -3.09  1.81
Si  2.74 -5.47  4.37
Si  4.96  3.50  4.45
Si -5.25 -1.08 -5.34
Si -4.89 -5.54  1.98
Si -6.89  1.40 -3.05
Si -1.41  6.14  4.37
Si -1.57 -3.20  6.83
Si  4.56 -3.23 -5.34
Si  3.62  1.60  6.66
Si  5.53 -1.08 -5.34
Si -4.49  6.09  1.81
Si  0.05  3.73  6.84
Si -6.83 -3.30  1.97
Si  7.07 -3.42 -0.61
Si  0.15 -5.87 -5.26
Si  0.43 -1.14 -7.80
Si -5.37 -5.78 -0.40
Si -4.76 -5.64 -2.87
Si  5.41 -5.78 -0.40
Si  1.35  1.10 -7.73
Si  1.89 -7.73 -0.49
Si -1.32 -7.68  1.81
Si  1.49  5.66 -5.47
Si -4.36  5.99 -3.05
Si -6.70  1.27  4.24
Si  7.95 -1.18 -0.40
Si -7.74 -0.95  1.98
Si -6.70 -3.40 -2.88
Si  6.74 -3.19 -3.05
Si -1.15  5.95 -5.34
Si -0.86 -8.01 -0.61
Si -2.09 -1.15 -7.72
Si  5.22  3.31 -5.26
Si -5.82  3.50  4.45
Si -1.37  1.30 -7.90
Si  2.58  3.74  6.76
Si -2.39 -5.67 -5.34
Si -7.61 -1.05 -2.87
Si -0.31  8.20 -0.49
Si -2.81  3.74  6.76
Si  1.41 -7.89  1.97
Si -4.43  1.39  6.83
Si  6.83  1.55  4.37
Si  2.24  8.00 -0.40
Si -8.22 -1.18 -0.40
Si  5.89 -5.54  1.98
Si -5.56  3.31 -5.26
Si -4.16  5.86  4.24
Si  3.00 -5.67 -5.34
Si -6.48 -3.04  4.37
Si -1.19 -7.78 -3.05
Si  3.82 -3.20  6.83
Si -0.15  8.24  1.91
Si  0.45  3.44 -7.72
Si -4.30 -3.00  6.66
Si  3.30 -1.15 -7.72
Si -3.50 -7.73 -0.49
Si -6.43  1.07 -5.47
Si  3.98  6.14  4.37
Si -1.18 -3.49 -7.73
Si -3.15  8.00 -0.40
Si  1.54 -7.99 -2.88
Si -0.02  8.14 -2.94
Si -5.35 -0.85  6.76
Si  1.48 -3.29 -7.90
Si  8.43 -0.95  1.98
Si  5.43 -0.85  6.76
Si  7.94  3.61 -0.49
Si  6.02 -5.64 -2.87
Si  0.37 -5.45  6.84
Si -3.90  5.66 -5.47
Si  6.94 -3.32  4.24
Si -4.04  1.10 -7.73
Si -6.22 -3.23 -5.34
Si -2.42  3.45 -7.80
Si -2.67  8.23  1.98
Si  4.07 -7.68  1.81
Si  2.72  8.23  1.98
Si  6.75  5.76 -0.61
Si  6.29  6.09  1.81
Si  5.28 -5.68  4.45
Si  4.02  1.30 -7.90
Si  1.76 -7.63  4.37
Si  7.09  1.36 -5.34
Si -2.54  8.13 -2.87
Si -8.23  3.61 -0.49
Si -6.67  6.05 -0.49
Si  2.97  3.45 -7.80
Si -2.50 -5.44  6.76
Si -0.99 -7.92  4.24
Si  4.24  5.95 -5.34
Si -3.98 -7.89  1.97
Si  7.82 -1.09  4.45
Si -8.07  3.65  1.91
Si -5.50 -5.68  4.45
Si  8.10  3.65  1.91
Si  2.85  8.13 -2.87
Si  8.56 -1.05 -2.87
Si  0.77  6.19  6.66
Si  2.89 -5.44  6.76
Si -7.94  3.55 -2.94
Si  4.53 -8.01 -0.61
Si -0.25 -0.79  9.22
Si -1.89  5.98  6.83
Si  6.42  5.99 -3.05
Si -1.44  1.36  9.09
Si -4.96 -1.14 -7.80
Si -3.85 -7.99 -2.88
Si -9.21  1.46 -0.49
Si  4.20 -7.78 -3.05
Si -0.44  8.30  4.37
Si -3.91 -3.29 -7.90
Si  6.35  1.39  6.83
Si  8.22  3.55 -2.94
Si  9.14  1.50  1.81
Si -5.33  3.73  6.84
Si  1.31  1.65  9.22
Si -5.24 -5.87 -5.26
Si -7.15  5.88  1.97
Si  4.21 -3.49 -7.73
Si  2.11  8.10  4.45
Si  5.44  3.73  6.84
Si -3.63 -7.63  4.37
Si -8.35 -1.09  4.45
Si -7.02  5.79 -2.88
Si  2.30 -0.99  9.30
Si  5.54 -5.87 -5.26
Si  0.76 -5.74 -7.72
Si  5.08  8.20 -0.49
Si  7.81  3.71  4.37
Si  2.02 -7.82 -5.34
Si -7.91 -5.57 -0.49
Si  9.60  1.17 -0.61
Si  7.20 -3.52 -5.47
Si -0.17  8.10 -5.34
Si -7.75 -5.54  1.91
Si -1.50  5.69 -7.73
Si  8.08 -1.28 -5.26
Si  3.50  5.98  6.83
Si -8.09 -1.28 -5.26
Si -9.10 -3.42 -0.61
Si  1.42 -3.23  9.09
Si -1.22 -2.94  9.22
Si  6.48 -3.00  6.66
Si  2.37  7.90 -5.26
Si -4.95  3.44 -7.72
Si  5.82 -1.14 -7.80
Si  6.62  5.86  4.24
Si -3.28  8.10  4.45
Si -0.73 -8.11 -5.47
Si -3.09 -0.99  9.30
Si  9.28  1.40 -3.05
Si -7.16  1.60  6.66
Si -2.10 -5.73 -7.80
Si  1.16  5.89 -7.90
Si -7.62 -5.63 -2.94
Si  5.24  8.24  1.91
Si -3.02  7.90 -5.26
Si -9.69  1.29  1.97
Si  8.26 -5.57 -0.49
Si -0.56  3.60  9.30
Si -5.70  8.20 -0.49
Si  4.40 -7.92  4.24
Si  3.95  1.36  9.09
Si -9.56  1.20 -2.88
Si -3.37 -7.82 -5.34
Si -5.02 -5.45  6.84
Si  9.34 -3.30  1.97
Si -5.54  8.24  1.91
Si -8.36  3.71  4.37
Si -6.80  6.14  4.37
Si -6.25 -8.01 -0.61
Si  0.33 -10.16 -0.49
Si  5.37  8.14 -2.94
Si -4.62  6.19  6.66
Si -1.45 -7.59  6.66
Si -5.41  8.14 -2.94
Si -9.56 -3.09  1.81
Si -4.08  1.65  9.22
Si  3.29 -5.73 -7.80
Si  2.29  3.80  9.22
Si  8.41 -5.54  1.91
Si -6.96 -3.20  6.83
Si  0.27 -1.18 -10.19
Si  5.83  3.44 -7.72
Si  8.07  3.51 -5.34
Si  9.81 -3.14 -0.49
Si  0.49 -10.13  1.91
Si -8.10  3.51 -5.34
Si  6.74  1.10 -7.73
Si -6.54  5.95 -5.34
Si -6.71 -7.68  1.81
Si  3.89  5.69 -7.73
Si -0.92  0.97 -10.32
Si -9.43 -3.19 -3.05
Si -9.34  1.55  4.37
Si -3.97 -3.23  9.09
Si  1.83  1.26 -10.19
Si  1.28 -7.79  6.83
Si -3.10  3.80  9.22
Si  6.88  5.66 -5.47
Si  9.47  1.27  4.24
Si -7.87 -0.86  6.84
Si  9.47 -3.40 -2.88
Si  5.76 -5.45  6.84
Si -1.50 10.35 -0.61
Si -6.76  1.30 -7.90
Si -2.57 -1.38 -10.11
Si -2.03 -10.13  1.98
Si  4.17 -2.94  9.22
Si  2.82 -1.38 -10.11
Si  5.14 -0.79  9.22
Si  6.80 -7.89  1.97
Si  4.95  8.30  4.37
Si -0.04  3.21 -10.11
Si -9.08  1.36 -5.34
Si  7.28 -7.73 -0.49
Si -6.58 -7.78 -3.05
Si  8.54 -5.63 -2.94
Si  0.62 -10.22 -2.94
Si -8.04 -5.47  4.37
Si -2.51 -10.37 -0.40
Si -4.63 -5.74 -7.72
Si  0.77 10.47  1.97
Si -9.23 -3.32  4.24
Si  1.25 10.64 -0.49
Si -4.23  5.89 -7.90
Si  8.13 -5.47  4.37
Si -6.57 -3.49 -7.73
Si -0.28  8.33  6.76
Si -0.70 -3.33 -10.19
Si  2.88 -10.37 -0.40
Si  8.30 -0.86  6.84
Si -1.90 -10.23 -2.87
Si  0.90 10.38 -2.88
Si -7.48 -1.15 -7.72
Si -10.61 -0.95  1.91
Si -10.77 -0.98 -0.49
Si  4.66 -8.11 -5.47
Si -5.64 -0.79  9.22
Si  3.94 -7.59  6.66
Si 10.79 -0.98 -0.49
Si -0.24 -5.58  9.30
Si  3.36 -10.13  1.98
Si -3.56  1.26 -10.19
Si  1.10  5.96  9.09
Si -10.48 -1.04 -2.94
Si  9.02  5.88  1.97
Si  6.93 -7.99 -2.88
Si  6.87 -3.29 -7.90
Si  0.20 -10.07  4.37
Si  6.16  6.19  6.66
Si  2.61 -5.38  9.22
Si -1.95 10.68  1.81
Si -7.78 -5.67 -5.34
Si -6.38 -7.92  4.24
Si  5.21  8.10 -5.34
Si 10.48  3.41 -0.40
Si -2.78 -5.38  9.22
Si -5.83  8.30  4.37
Si  9.69 -3.04  4.37
Si -2.58  3.41 -10.19
Si -9.42  5.76 -0.61
Si  7.63  8.00 -0.40
Si  3.90 10.35 -0.61
Si -8.97 -3.52 -5.47
Si  2.59  8.33  6.84
Si  4.83  3.60  9.30
Si  7.96  3.74  6.76
Si  1.94 -3.62 -10.32
Si  2.81  3.41 -10.19
Si -2.80  8.33  6.84
Si -4.11 -7.79  6.83
Si 10.95 -0.95  1.91
Si -1.82 10.58 -3.05
Si  3.49 -10.23 -2.87
Si -5.57  8.10 -5.34
Si  9.15  5.79 -2.88
Si  0.11  8.04 -7.80
Si -1.05 -7.88 -7.90
Si  9.73  1.07 -5.47
Si -1.54  6.24  9.22
Si  9.50  6.05 -0.49
Si -8.20  3.74  6.76
Si  4.47  0.97 -10.32
Si  1.67 -8.08 -7.73
Si  9.02  1.60  6.66
Si  7.15 -7.63  4.37
Si -5.06 -10.16 -0.49
Si  3.44 10.68  1.81
Si -10.60  3.64  1.98
Si -1.62 10.45  4.24
Si -2.41  8.03 -7.72
Si -4.90 -10.13  1.91
Si -10.46  3.54 -2.87
Si  6.15 -5.74 -7.72
Si -4.14 10.64 -0.49
Si  8.39 -5.67 -5.34
Si -6.83  1.36  9.09
Si -5.12 -1.18 -10.19
Si -3.45 -3.62 -10.32
Si -2.65 -10.27  4.45
Si 11.08 -1.04 -2.94
Si  6.70  1.65  9.22
Si  2.75 -10.27  4.45
Si -6.12 -8.11 -5.47
Si  2.98  8.03 -7.72
Si 10.66 -0.89  4.37
Si -7.81  3.45 -7.80
Si  3.57 10.58 -3.05
Si  0.46 -10.26 -5.34
Si -11.08  3.41 -0.40
Si -5.95  3.60  9.30
Si -4.62 10.47  1.97
Si -7.28  5.98  6.83
Si -0.09 -0.75 11.62
Si  1.12 10.73  4.37
Si -4.77 -10.22 -2.94
Si -4.49 10.38 -2.88
Si  5.72 -10.16 -0.49
Si  8.69 -1.15 -7.72
Si -4.29  5.96  9.09
Si -8.06  8.23  1.98
Si -1.36 10.25 -5.47
Si  4.69 -3.33 -10.19
Si -8.54  8.00 -0.40
Si -7.93  8.13 -2.87
Si  5.66 -1.18 -10.19
Si -6.61 -2.94  9.22
Si 10.96  3.64  1.98
Si  8.11  8.23  1.98
Si -7.88 -5.44  6.76
Si  9.95 -3.23 -5.34
Si  0.28 -5.97 -10.11
Si -9.88  6.09  1.81
Si -10.90 -0.89  4.37
Si  3.85  6.24  9.22
Si -8.89 -7.73 -0.49
Si -3.72 -8.08 -7.73
Si -1.90  1.69 11.51
Si -1.02  5.85 -10.19
Si 10.35  3.50  4.45
Si  0.83  1.49 11.68
Si  6.81 -3.23  9.09
Si -6.89  5.69 -7.73
Si  6.55  5.89 -7.90
Si  1.62  5.57 -10.32
Si -9.75  5.99 -3.05
Si -10.28 -5.54  1.98
Si  5.88 -10.13  1.91
Si  5.35  3.21 -10.11
Si  5.11  8.33  6.76
Si  3.77 10.45  4.24
Si  1.38 10.54 -5.34
Si  7.50  8.10  4.45
Si  9.21 -3.20  6.83
Si  0.96 -2.90 11.51
Si -5.43  3.21 -10.11
Si  8.24  8.13 -2.87
Si -2.26 -5.77 -10.19
Si  8.36  3.45 -7.80
Si -2.38 -10.46 -5.26
Si -10.64 -1.08 -5.34
Si -10.15 -5.64 -2.87
Si  4.33 -7.88 -7.90
Si -9.55  5.86  4.24
Si 11.09  3.54 -2.87
Si  8.28 -5.44  6.76
Si -2.61 -0.76 11.69
Si  5.15 -5.58  9.30
Si  1.63 -7.53  9.22
Si  9.37  6.14  4.37
Si  7.41 -7.82 -5.34
Si -11.96  1.17 -0.61
Si -9.82  1.39  6.83
Si  2.78 -0.76 11.69
Si -1.12 -7.82  9.09
Si  3.01 -10.46 -5.26
Si  0.36 -10.03  6.76
Si 11.87  1.29  1.97
Si  7.69 -0.99  9.30
Si  3.13 -5.77 -10.19
