500
set: 1412.00  0.00  0.00
Si  0.90  0.25  0.40
Si -0.28 -0.77 -1.39
Si -0.75  0.07  1.87
Si -1.68 -2.13  0.58
Si  0.73 -2.70  0.38
Si  1.06  2.67  0.38
Si -2.69 -0.19 -1.19
Si  1.38 -0.59 -2.86
Si  1.90 -1.68  2.17
Si  3.31 -0.38  0.27
Si -1.35  3.24  0.58
Si -2.53  2.23 -1.22
Si  2.38 -2.52 -1.09
Si -0.88  2.41 -2.68
Si  1.53  1.84 -2.88
Si -3.16  0.64  2.07
Si  0.43  1.08  3.66
Si  2.71  2.86 -1.09
Si  0.25 -1.87  3.64
Si -1.21 -2.96 -2.68
Si -4.34 -0.38  0.27
Si -2.86 -3.14 -1.22
Si -3.33 -2.31  2.04
Si  2.84  0.45  3.53
Si -2.15 -1.30  3.83
Si  1.20 -3.54 -2.88
Si -3.00  3.06  2.04
Si  0.05  4.61 -1.39
Si  2.23  3.69  2.17
Si  0.20 -1.60 -4.65
Si  3.79 -1.21 -2.99
Si  4.49  0.64  2.07
Si -3.86 -1.21 -2.99
Si -2.21 -1.02 -4.45
Si  0.58  3.50  3.64
Si  4.96 -0.19 -1.19
Si -2.06  1.40 -4.47
Si  0.57 -5.12  0.40
Si  4.31 -2.31  2.04
Si -1.23  0.90  5.13
Si  0.10 -4.29  3.66
Si  1.43 -0.85  5.43
Si  5.12  2.23 -1.22
Si -1.08 -5.30  1.87
Si  3.18  2.02 -4.34
Si  1.23  5.62  0.40
Si -0.42  5.44  1.87
Si -4.94  2.86 -1.09
Si -2.36  5.18 -1.19
Si  1.71  4.79 -2.86
Si  4.79 -3.14 -1.22
Si -1.82  4.08  3.83
Si  4.64  3.06  2.04
Si -5.27 -2.52 -1.09
Si -4.81  0.45  3.53
Si  0.53  3.77 -4.65
Si -0.40  1.58 -5.94
Si  2.85 -3.35 -4.34
Si  3.64  4.99  0.27
Si -3.53  4.16 -2.99
Si -3.49 -4.73  2.07
Si -0.61 -6.14 -1.39
Si  5.97 -2.13  0.58
Si -5.75 -1.68  2.17
Si -4.01  4.99  0.27
Si -3.02 -5.56 -1.19
Si -2.39 -3.97 -4.47
Si  2.98 -5.75  0.27
Si -1.88  4.35 -4.45
Si  2.01  1.00 -6.14
Si  1.85 -1.42 -6.12
Si -4.47  2.02 -4.34
Si  2.51 -4.92  3.53
Si  4.12  4.16 -2.99
Si -3.63  1.47  5.33
Si  4.16 -4.73  2.07
Si  1.05 -5.96 -2.86
Si -3.81 -1.48  5.30
Si  3.84 -1.48  5.30
Si -6.75  0.25  0.40
Si  5.50 -1.30  3.83
Si  4.01  1.47  5.33
Si -5.42  3.69  2.17
Si -6.27 -0.59 -2.86
Si -2.83  6.01  2.07
Si -0.22 -1.04  6.90
Si -1.56 -4.47  5.13
Si -6.12  1.84 -2.88
Si -0.73 -3.79 -5.94
Si  5.44 -1.02 -4.45
Si  6.30  3.24  0.58
Si -6.59  2.67  0.38
Si  6.89  0.07  1.87
Si -0.05  1.91  6.92
Si  1.76  4.52  5.43
Si -4.80 -3.35 -4.34
Si  5.59  1.40 -4.47
Si  2.36  1.29  6.79
Si  4.63 -5.56 -1.19
Si -3.39 -2.04 -6.25
Si -4.67 -5.75  0.27
Si -6.92 -2.70  0.38
Si -3.48  3.90  5.30
Si  0.76  6.45  3.66
Si  5.29  5.18 -1.19
Si  3.17  5.83  3.53
Si  7.37 -0.77 -1.39
Si  1.57 -7.05  2.17
Si  3.68 -3.90  5.33
Si -2.63 -0.47  7.09
Si  6.44 -2.96 -2.68
Si  2.18  3.95 -6.12
Si  6.77  2.41 -2.68
Si -3.96 -3.90  5.33
Si -3.06  3.33 -6.25
Si  1.68 -4.37 -6.14
Si -0.38 -3.46  6.92
Si -2.01 -7.50  0.58
Si  4.17  3.90  5.30
Si  4.26 -2.04 -6.25
Si -6.45 -3.54 -2.88
Si -1.58  0.57 -7.73
Si -5.14 -4.92  3.53
Si  5.26 -3.97 -4.47
Si  4.82  6.01  2.07
Si  1.86  7.21 -2.88
Si -2.20  7.60 -1.22
Si  3.46 -6.58 -2.99
Si  5.83  4.08  3.83
Si -2.48 -6.67  3.83
Si -7.93 -0.77 -1.39
Si  0.40 -8.07  0.38
Si -0.08 -7.24  3.64
Si -1.74 -1.86 -7.71
Si  0.11  4.33  6.90
Si -5.94  4.79 -2.86
Si -0.90  6.27  5.13
Si -4.48  5.83  3.53
Si -7.22  1.08  3.66
Si  1.39  8.04  0.38
Si  2.03 -4.09  6.79
Si -2.54 -6.40 -4.45
Si  2.05 -7.89 -1.09
Si -0.55  7.78 -2.68
Si  6.42  0.90  5.13
Si -1.73  6.77 -4.47
Si  0.67 -2.43 -7.91
Si -6.22 -0.85  5.43
Si  1.10 -6.22  5.43
Si -4.19 -6.58 -2.99
Si -0.13 -6.97 -4.65
Si -5.64  1.00 -6.14
Si  4.59  3.33 -6.25
Si -7.39 -1.87  3.64
Si  5.77  4.35 -4.45
Si  1.00  2.94 -7.91
Si  3.66  1.19 -7.60
Si -6.42  5.62  0.40
Si -5.80 -1.42 -6.12
Si  8.55  0.25  0.40
Si -1.41  3.52 -7.71
Si -8.40  0.07  1.87
Si  6.57 -5.30  1.87
Si -3.99  1.19 -7.60
Si -7.07  3.50  3.64
Si -1.02  8.62  0.58
Si -5.29  1.29  6.79
Si  5.02 -0.47  7.09
Si -1.70  1.73  8.39
Si  0.95 -0.02  8.69
Si -7.08 -5.12  0.40
Si -3.67 -7.68  2.04
Si  8.38 -2.70  0.38
Si  3.04  8.23 -1.09
Si -1.53 -8.33 -2.68
Si  3.98 -7.68  2.04
Si  7.90 -1.87  3.64
Si -2.30  4.91  7.09
Si -7.45 -1.60 -4.65
Si  8.08  1.08  3.66
Si -7.60  4.61 -1.39
Si  7.70  4.61 -1.39
Si -2.67  8.44  2.04
Si -5.47  3.95 -6.12
Si  8.71  2.67  0.38
Si  6.09 -4.47  5.13
Si -0.07  6.95 -5.94
Si  2.34  6.38 -6.14
Si -3.19 -8.51 -1.22
Si -5.89  4.52  5.43
Si  3.37 -0.64  8.56
Si  0.07  0.75 -9.20
Si  7.22  5.44  1.87
Si -8.52  2.41 -2.68
Si  7.84 -1.60 -4.65
Si  1.52 -6.79 -6.12
Si  5.17 -6.67  3.83
Si  3.51  7.40 -4.34
Si -3.31  6.84  5.33
Si  3.33 -4.18 -7.60
Si -1.91 -4.80 -7.73
Si -7.12  3.77 -4.65
Si  5.11 -6.40 -4.45
Si -6.60 -5.96 -2.86
Si  3.51 -6.85  5.30
Si -2.03 -3.64  8.39
Si  0.87 -8.91 -2.88
Si  5.64 -7.50  0.58
Si -7.55 -4.29  3.66
Si -0.55 -6.41  6.90
Si  5.45  7.60 -1.22
Si  7.04 -6.14 -1.39
Si  9.03 -0.59 -2.86
Si -4.61  8.23 -1.09
Si  7.25  1.58 -5.94
Si -4.14  7.40 -4.34
Si -6.08 -7.05  2.17
Si  3.54  2.31  8.58
Si -9.00  3.24  0.58
Si  7.75 -4.29  3.66
Si -9.33 -2.13  0.58
Si -4.28 -0.64  8.56
Si -4.14 -6.85  5.30
Si -5.97 -4.37 -6.14
Si  0.91  8.87  3.64
Si -2.96 -5.84  7.09
Si  8.23  3.50  3.64
Si  3.21 -3.07  8.58
Si  2.56  9.06  2.17
Si -5.79  7.21 -2.88
Si  4.46 -8.51 -1.22
Si -4.32 -4.18 -7.60
Si  8.22 -5.12  0.40
Si  4.34  6.84  5.33
Si -5.61 -4.09  6.79
Si -8.85 -2.96 -2.68
Si  2.48  0.17 -9.40
Si -5.60 -7.89 -1.09
Si -4.11  2.31  8.58
Si  9.18  1.84 -2.88
Si -1.25  5.94 -7.73
Si  6.07  0.57 -7.73
Si  6.92 -3.79 -5.94
Si  2.69  6.66  6.79
Si  5.91 -1.86 -7.71
Si -8.07  5.44  1.87
Si  2.33 -2.25 -9.38
Si  9.55 -1.68  2.17
Si  8.85 -3.54 -2.88
Si  4.97  8.44  2.04
Si  5.92  6.77 -4.47
Si  0.28  7.28  6.92
Si  2.52 -8.72 -4.34
Si  0.38  9.98 -1.39
Si -6.89  6.45  3.66
Si -8.05  1.58 -5.94
Si  8.17  3.77 -4.65
Si -4.44 -3.07  8.58
Si  5.35  4.91  7.09
Si -2.58  2.50 -9.51
Si -0.70 -0.21 10.16
Si  7.43 -1.04  6.90
Si -6.26  8.04  0.38
Si  2.65  3.12 -9.38
Si  0.62 -5.39  8.69
Si  1.28  5.35  8.69
Si -8.88  0.90  5.13
Si  0.85  9.15 -4.65
Si -0.26 -4.63 -9.20
Si -1.49  9.45  3.83
Si  4.69 -5.84  7.09
Si -5.31  6.38 -6.14
Si -0.23 -9.66  3.66
Si -2.91 -2.88 -9.51
Si -8.26 -6.14 -1.39
Si -3.72 -7.42 -6.25
Si -8.73 -5.30  1.87
Si 10.03 -2.52 -1.09
Si -10.34 -0.19 -1.19
Si  5.95  1.73  8.39
Si  1.89  2.12 10.05
Si  7.60  1.91  6.92
Si  3.69  4.73  8.56
Si  3.93 -7.42 -6.25
Si -3.20  9.53 -2.99
Si -10.18  2.23 -1.22
Si  0.24 -10.50  0.40
Si -7.87 -1.04  6.90
Si  8.88  5.62  0.40
Si -7.70  1.91  6.92
Si  6.24  3.52 -7.71
Si -6.55 -6.22  5.43
Si  6.75  6.27  5.13
Si -0.85 -2.63 10.18
Si -3.95  4.73  8.56
Si -0.52  2.74 10.18
Si -9.80 -1.30  3.83
Si  9.08 -0.85  5.43
Si -5.09  9.06  2.17
Si  7.27 -3.46  6.92
Si  1.56 -3.25 10.05
Si  6.11 -8.33 -2.68
Si -3.66  6.56 -7.60
Si -2.72 -9.34 -4.47
Si -4.96  6.66  6.79
Si -5.17  0.17 -9.40
Si  5.62 -3.64  8.39
Si -6.65  2.94 -7.91
Si  2.04 10.16 -2.86
Si  5.74 -4.80 -7.73
Si  9.88  3.69  2.17
Si -2.07 -7.23 -7.71
Si -9.71  1.40 -4.47
Si 10.36  2.86 -1.09
Si -1.55  9.72 -4.45
Si  3.98  6.56 -7.60
Si -2.03 10.55 -1.19
Si -3.10  0.37 10.35
Si -6.98 -2.43 -7.91
Si -7.25 -8.07  0.38
Si -9.86 -1.02 -4.45
Si  7.10  7.78 -2.68
Si  6.63  8.62  0.58
Si  9.36  4.79 -2.86
Si  3.04 -6.01  8.56
Si  8.70 -5.96 -2.86
Si -1.41 -10.68  1.87
Si  4.45  9.53 -2.99
Si -8.38 -3.79 -5.94
Si  2.15 -5.20 -9.40
Si 10.96 -0.38  0.27
Si -6.70 -0.02  8.69
Si -0.09 10.81  1.87
Si -1.06 -9.17 -5.94
Si -3.82 -10.10  2.07
Si  3.83 -10.10  2.07
Si -3.68 10.37  0.27
Si -9.47  4.08  3.83
Si  4.74 -2.88 -9.51
Si -6.13 -6.79 -6.12
Si -5.13 -8.72 -4.34
Si -5.32 -2.25 -9.38
Si -10.81  0.64  2.07
Si -10.51 -3.14 -1.22
Si -1.11 -0.27 -10.99
Si -2.73  8.70 -6.25
Si  0.40  6.12 -9.20
Si  5.07  2.50 -9.51
Si -4.99  3.12 -9.38
Si 10.49  0.45  3.53
Si -1.37  7.10  8.39
Si  7.57 -7.24  3.64
Si  2.18 -10.29  3.53
Si -7.54  4.33  6.90
Si  3.97 10.37  0.27
Si  1.56 10.99  0.40
Si  0.34 -7.80 -7.91
Si -3.15  9.27  5.30
Si -8.03 -3.46  6.92
Si -7.72 -7.24  3.64
Si  3.35 -9.27  5.33
Si  8.41  6.45  3.66
Si -0.71 -8.83  6.92
Si  7.76  4.33  6.90
Si  7.51 -6.97 -4.65
Si -1.89 -9.85  5.13
Si  2.81  5.54 -9.40
Si -10.65  3.06  2.04
Si  4.55  0.37 10.35
Si -10.01  5.18 -1.19
Si -0.93  2.68 -10.97
Si -1.26 -2.69 -10.97
Si -9.53  4.35 -4.45
Si  9.50 -1.42 -6.12
Si -0.37  5.17 10.16
Si  8.05 -8.07  0.38
Si -10.98 -2.31  2.04
Si -3.52  0.36 -10.86
Si  2.51  9.33 -6.12
Si -7.78 -6.97 -4.65
Si -4.61 -6.01  8.56
Si  2.65 -11.12  0.27
Si -9.21 -4.47  5.13
Si  1.47  2.11 -11.17
Si  4.93 -9.34 -4.47
Si  2.09  9.89  5.43
Si  9.65  1.00 -6.14
Si -3.35 -10.94 -1.19
Si -4.29 -9.27  5.33
Si  1.33  8.31 -7.91
Si -6.78 -8.91 -2.88
Si  4.50  9.27  5.30
Si  1.35 -9.74 -6.14
Si -8.19  7.78 -2.68
Si  4.13  0.36 -10.86
Si -0.94 -11.51 -1.39
Si -1.02 -5.58 10.16
Si  6.40  5.94 -7.73
Si -10.04 -3.97 -4.47
Si  1.14 -3.26 -11.17
Si  0.72 -11.33 -2.86
Si -6.74  8.87  3.64
Si  8.32 -2.43 -7.91
Si  9.41  4.52  5.43
Si  1.70 -9.46  6.79
Si -5.76  2.12 10.05
Si -8.55  6.27  5.13
Si  4.92  8.70 -6.25
Si  7.10 -6.41  6.90
Si  9.22 -7.05  2.17
Si  4.30 -10.94 -1.19
Si -1.08  8.89 -7.71
Si 10.16 -4.92  3.53
Si -2.50 11.38  2.07
Si 10.83  2.02 -4.34
Si 10.50 -3.35 -4.34
Si  7.58  6.95 -5.94
Si 11.44 -1.21 -2.99
Si  6.16  9.45  3.83
Si  0.44  9.71  6.90
Si -4.84  5.54 -9.40
Si -7.58  0.75 -9.20
Si -5.61 10.16 -2.86
Si  5.58 -7.23 -7.71
Si -11.51 -1.21 -2.99
Si -7.72  6.95 -5.94
Si  0.48  0.81 11.95
Si  9.32 -4.37 -6.14
Si -11.98 -0.38  0.27
Si -3.43 -5.00 10.35
Si  5.62 10.55 -1.19
Si -6.37  5.35  8.69
Si  8.75 -6.22  5.43
Si  7.72  0.75 -9.20
Si -9.23  0.57 -7.73
Si -5.50 -5.20 -9.40
Si  8.65  2.94 -7.91
Si -10.66 -5.56 -1.19
Si 10.63 -5.75  0.27
Si  9.04  8.04  0.38
Si -3.78  7.68  8.58
Si -2.18  2.56 11.65
Si -0.78  5.11 -10.99
Si  3.87  7.68  8.58
Si -2.77  5.74 10.35
Si 10.01  1.29  6.79
Si  2.89  0.19 11.82
Si -5.47 -10.29  3.53
Si -6.09 -3.25 10.05
Si -5.00 -11.12  0.27
Si  8.60 -0.02  8.69
Si -8.67  8.62  0.58
Si  9.83  3.95 -6.12
Si -2.51 -2.81 11.65
Si -9.66 -7.50  0.58
Si  2.00 -7.62 -9.38
Si  4.22 -5.00 10.35
Si  3.50 11.20  3.53
Si -10.48  6.01  2.07
Si  9.51  7.21 -2.88
Si -11.14 -4.73  2.07
Si -5.14  9.33 -6.12
Si -9.39 -1.86 -7.71
Si -11.18  4.16 -2.99
Si -6.79  9.15 -4.65
Si  6.10  9.72 -4.45
Si  6.95 -0.21 10.16
Si 12.14  0.64  2.07
Si 11.29  4.99  0.27
Si 11.96 -2.31  2.04
Si  2.73 -2.23 11.84
Si  2.88 -8.44  8.58
Si -9.38  6.77 -4.47
Si -9.06  3.52 -7.71
Si -7.03 -5.39  8.69
Si -7.27  9.98 -1.39
Si  1.09 11.82  3.66
Si -1.44 -5.64 -10.99
Si -4.15 11.20  3.53
Si -7.37  7.28  6.92
Si  0.55 -0.09 -12.46
Si -8.20 -6.41  6.90
Si -10.28 -0.47  7.09
Si -9.85  7.60 -1.22
Si  6.24 -10.68  1.87
Si  5.76 -9.85  5.13
Si  9.68 -4.09  6.79
Si  6.80 -2.63 10.18
Si -2.36 -9.01  8.39
Si -2.25  7.87 -9.51
Si  9.70 -7.89 -1.09
Si  3.80 -5.01 -10.86
Si -11.28  1.47  5.33
Si -3.85 -5.01 -10.86
Si -6.09 10.99  0.40
Si  3.00 -9.55 -7.60
Si -5.56  9.89  5.43
Si  3.06  3.14 11.84
Si -1.97 10.28  7.09
Si  6.28  7.10  8.39
