500
set: 1340.00  0.00  0.00
Si -0.39 -0.41  0.59
Si -1.00 -0.83 -0.77
Si  0.54  0.68 -1.61
Si  1.12  1.50  0.59
Si  1.27  0.27 -2.97
Si  0.87  2.62  1.80
Si -0.15 -1.64 -2.96
Si  3.22 -0.83 -0.77
Si -3.10  1.50  0.59
Si -1.74  0.09  3.15
Si  3.83 -0.41  0.59
Si  0.73 -3.40  1.79
Si  2.49  0.09  3.15
Si  0.35  0.34  3.99
Si -0.67 -3.92 -0.77
Si -3.68  0.68 -1.61
Si  0.90  4.01 -0.77
Si -2.95  0.27 -2.97
Si -1.19  3.76 -1.61
Si -0.00 -2.99  3.15
Si -3.36  2.62  1.80
Si -4.62 -0.41  0.59
Si  1.47 -4.17 -1.61
Si  0.10 -2.76 -4.17
Si  4.77  0.68 -1.61
Si  3.03  3.76 -1.61
Si -3.49 -3.40  1.79
Si -1.93  4.53  1.79
Si -2.76 -4.17 -1.61
Si  0.02  3.43  3.99
Si -3.33  4.01 -0.77
Si  4.07 -1.64 -2.96
Si  0.15  3.27 -4.17
Si  3.56 -3.92 -0.77
Si -5.23 -0.83 -0.77
Si  2.30  4.53  1.79
Si -4.38 -1.64 -2.96
Si -0.12 -0.24 -5.53
Si -3.87  0.34  3.99
Si  5.34  1.50  0.59
Si -0.70 -5.31  1.80
Si  0.57 -2.18  5.35
Si  5.09  2.62  1.80
Si  4.22 -2.99  3.15
Si -4.23 -2.99  3.15
Si  1.56  4.94  3.15
Si  4.58  0.34  3.99
Si -1.55 -4.50  3.99
Si -0.46  2.85 -5.54
Si  5.50  0.27 -2.97
Si  4.95 -3.40  1.79
Si -4.89 -3.92 -0.77
Si -1.42 -4.67 -4.17
Si -2.66  4.94  3.15
Si -0.45 -6.43  0.59
Si -4.13 -2.76 -4.17
Si  5.12  4.01 -0.77
Si  2.68 -4.50  3.99
Si  4.32 -2.76 -4.17
Si  0.63  3.85  5.35
Si  3.53 -5.31  1.80
Si  0.32 -1.06  6.56
Si -4.07  3.27 -4.17
Si  2.01 -0.49 -6.37
Si -4.21  3.43  3.99
Si -5.96  0.09  3.15
Si  4.24  3.43  3.99
Si -2.21 -0.49 -6.37
Si -5.42  3.76 -1.61
Si -0.94 -4.08  5.35
Si -3.65 -2.18  5.35
Si  1.75  0.85  6.55
Si  1.66  5.17 -4.17
Si  2.81 -4.67 -4.17
Si  4.38  3.27 -4.17
Si  4.10 -0.24 -5.53
Si -4.35 -0.24 -5.53
Si -2.47  0.85  6.55
Si  1.41  6.29 -2.96
Si -2.56  5.17 -4.17
Si  0.56  7.10 -0.77
Si  5.69 -4.17 -1.61
Si  3.77  2.85 -5.54
Si -0.48 -3.57 -6.37
Si  6.71  0.09  3.15
Si -4.92 -5.31  1.80
Si  3.78 -6.43  0.59
Si  3.29 -4.08  5.35
Si -1.02 -7.25 -1.61
Si -2.81  6.29 -2.96
Si -7.33  1.50  0.59
Si -3.60  3.85  5.35
Si  4.80 -2.18  5.35
Si  7.45 -0.83 -0.77
Si  1.17  7.52  0.59
Si -3.90 -1.06  6.56
Si -7.17  0.27 -2.97
Si -2.02 -5.08 -5.54
Si -4.68  2.85 -5.54
Si  1.09  4.36 -6.37
Si  2.20 -5.08 -5.54
Si -6.15  4.53  1.79
Si -4.67 -6.43  0.59
Si  0.39  2.03 -7.73
Si -3.66  7.10 -0.77
Si  4.55 -1.06  6.56
Si  1.02  1.26  7.91
Si  3.20 -7.25 -1.61
Si  8.05 -0.41  0.59
Si -7.91  0.68 -1.61
Si -2.08  5.75  5.35
Si -3.05  7.52  0.59
Si  6.52  4.53  1.79
Si  2.14  5.75  5.35
Si  4.85  3.85  5.35
Si  3.75 -3.57 -6.37
Si -7.58  2.62  1.80
Si -0.29 -7.66 -2.97
Si  5.79  4.94  3.15
Si -6.98 -4.17 -1.61
Si  7.25  3.76 -1.61
Si -3.14  4.36 -6.37
Si -5.77 -4.50  3.99
Si -5.64 -4.67 -4.17
Si -5.16 -4.08  5.35
Si  0.92 -7.84  3.15
Si -7.55  4.01 -0.77
Si -1.96 -8.34  0.59
Si  4.79  7.10 -0.77
Si -0.17  8.02  3.15
Si -7.72 -3.40  1.79
Si -3.21  1.26  7.91
Si  2.26 -8.34  0.59
Si -1.21 -7.59  3.99
Si -4.70 -3.57 -6.37
Si  0.25 -3.98 -7.73
Si  7.78 -3.92 -0.77
Si -0.53 -0.25  8.75
Si -1.38  8.20 -2.97
Si -3.83  2.03 -7.73
Si  1.82  3.95 -7.73
Si -8.84 -0.41  0.59
Si  5.89  5.17 -4.17
Si  1.94 -3.59  7.92
Si  5.97  0.85  6.55
Si  6.23 -0.49 -6.37
Si  1.66 -8.76 -0.77
Si  5.64  6.29 -2.96
Si  8.30 -1.64 -2.96
Si -2.28 -3.59  7.92
Si  0.64  0.92 -8.94
Si -2.40  3.95 -7.73
Si  2.11  8.61 -1.61
Si -2.12  8.61 -1.61
Si -0.87 -0.99 -8.94
Si -8.10  0.34  3.99
Si -6.88  4.94  3.15
Si -0.72  4.34  7.92
Si -6.44 -0.49 -6.37
Si -3.31 -7.84  3.15
Si  3.01 -7.59  3.99
Si -5.25 -7.25 -1.61
Si  3.93 -7.66 -2.97
Si  6.90 -4.50  3.99
Si -2.57 -8.76 -0.77
Si  8.99  0.68 -1.61
Si  2.84  8.20 -2.97
Si  4.62  2.03 -7.73
Si -8.60 -1.64 -2.96
Si  5.40  7.52  0.59
Si -0.19 -3.34  8.75
Si  5.31  4.36 -6.37
Si -4.51 -7.66 -2.97
Si  1.92  8.27  3.99
Si -6.70  0.85  6.55
Si  7.03 -4.67 -4.17
Si -2.31  8.27  3.99
Si -6.79  5.17 -4.17
Si  8.45 -2.99  3.15
Si  3.70 -0.25  8.75
Si -8.45 -2.99  3.15
Si -9.45 -0.83 -0.77
Si  4.05  8.02  3.15
Si -3.97 -3.98 -7.73
Si  7.75 -5.31  1.80
Si -1.54  9.43  0.59
Si  5.24  1.26  7.91
Si  1.44  7.68 -5.53
Si  3.35 -0.99 -8.94
Si  0.18 -7.08  6.55
Si  8.80  0.34  3.99
Si -3.58  0.92 -8.94
Si -4.40  8.02  3.15
Si  1.89  6.87  6.56
Si  3.51  4.34  7.92
Si  9.57  1.50  0.59
Si -8.35 -2.76 -4.17
Si -7.88 -2.18  5.35
Si -6.25 -5.08 -5.54
Si -2.33  6.87  6.56
Si  4.48 -3.98 -7.73
Si -1.17 -5.89 -7.73
Si -0.65  7.43 -6.37
Si  2.69  9.43  0.59
Si  9.32  2.62  1.80
Si -8.30  3.27 -4.17
Si -2.78  7.68 -5.53
Si  6.42 -5.08 -5.54
Si -7.04  6.29 -2.96
Si  5.14 -7.84  3.15
Si  8.55 -2.76 -4.17
Si -8.43  3.43  3.99
Si  9.18 -3.40  1.79
Si -9.12 -3.92 -0.77
Si -4.75 -0.25  8.75
Si  8.47  3.43  3.99
Si  1.37  4.59  8.75
Si  8.32 -0.24 -5.53
Si -1.69 -8.17 -5.53
Si -6.31  5.75  5.35
Si  7.51 -4.08  5.35
Si  8.60  3.27 -4.17
Si  6.36  5.75  5.35
Si  0.08  0.17 10.11
Si  7.99  2.85 -5.54
Si -5.44 -7.59  3.99
Si -1.72 -9.57 -2.96
Si  9.72  0.27 -2.97
Si  3.05 -5.89 -7.73
Si  2.54 -8.17 -5.53
Si  4.03 -3.34  8.75
Si  9.35  4.01 -0.77
Si -8.57 -0.24 -5.53
Si  4.87  0.92 -8.94
Si -7.82  3.85  5.35
Si  8.00 -6.43  0.59
Si -2.85  4.59  8.75
Si -4.94  4.34  7.92
Si  2.51 -9.57 -2.96
Si -5.09 -0.99 -8.94
Si -4.42 -3.34  8.75
Si -0.55 -6.67  7.91
Si -5.61  8.20 -2.97
Si -6.18 -8.34  0.59
Si  3.58  7.43 -6.37
Si  1.59  2.08 10.11
Si -4.04 -7.08  6.55
Si -9.64  3.76 -1.61
Si -7.28  7.52  0.59
Si -8.13 -1.06  6.56
Si -1.48 -1.41 -10.30
Si  7.43 -7.25 -1.61
Si  0.44 -8.42 -6.37
Si  5.88 -8.76 -0.77
Si  6.04  3.95 -7.73
Si  6.49 -8.34  0.59
Si  4.41 -7.08  6.55
Si -7.89  7.10 -0.77
Si -2.63  2.08 10.11
Si  6.17 -3.59  7.92
Si -10.19  0.09  3.15
Si -7.36  4.36 -6.37
Si  9.02 -2.18  5.35
Si -9.15 -5.31  1.80
Si  2.75 -1.41 -10.30
Si  6.33  8.61 -1.61
Si  7.97 -3.57 -6.37
Si -6.34  8.61 -1.61
Si -1.79 10.54  1.80
Si  0.42  3.43 -10.29
Si -6.51 -3.59  7.92
Si -8.91  2.85 -5.54
Si  9.91 -4.17 -1.61
Si -6.63  3.95 -7.73
Si -7.43  1.26  7.91
Si -4.14  0.17 10.11
Si -4.87  7.43 -6.37
Si  2.43 10.54  1.80
Si  3.68 -6.67  7.91
Si  4.31  0.17 10.11
Si -8.90 -6.43  0.59
Si -0.91  8.78  6.55
Si  8.77 -1.06  6.56
Si  5.67  7.68 -5.53
Si  6.14  8.27  3.99
Si -5.76  9.43  0.59
Si -6.79 -8.76 -0.77
Si -5.40 -5.89 -7.73
Si  0.07  0.10 -11.13
Si -1.24 -8.99  6.56
Si  9.08  3.85  5.35
Si -3.78 -8.42 -6.37
Si  7.24 -7.59  3.99
Si  7.07  8.20 -2.97
Si -6.53  8.27  3.99
Si -1.15 -4.50 -10.29
Si  6.11  6.87  6.56
Si -7.53 -7.84  3.15
Si  0.70  6.94 -8.94
Si -8.06  2.03 -7.73
Si  5.60  4.59  8.75
Si 10.93  0.09  3.15
Si -4.77 -6.67  7.91
Si -0.92 -7.01 -8.94
Si  3.32  8.78  6.55
Si -10.38  4.53  1.79
Si -1.57 -10.92  3.15
Si -0.99 -10.11  5.35
Si -3.80  3.43 -10.29
Si  9.01  7.10 -0.77
Si -0.84 -11.33  1.79
Si -5.91 -8.17 -5.53
Si  2.98 -8.99  6.56
Si -8.93 -3.57 -6.37
Si -6.56  6.87  6.56
Si  4.67 -8.42 -6.37
Si -9.39 -4.08  5.35
Si -1.47 -10.69 -4.17
Si  8.16 -7.66 -2.97
Si 10.01  4.94  3.15
Si -5.94 -9.57 -2.96
Si  3.08 -4.50 -10.29
Si -11.55  1.50  0.59
Si -10.00 -4.50  3.99
Si  2.66 -10.92  3.15
Si  0.03 -5.85 10.11
Si -9.86 -4.67 -4.17
Si  1.04  7.68  8.75
Si -1.67  3.18 -11.13
Si  6.91  9.43  0.59
Si  1.21 -2.82 11.31
Si 11.67 -0.83 -0.77
Si  7.58 -0.99 -8.94
Si -7.01  7.68 -5.53
Si -11.40  0.27 -2.97
Si 10.74  4.53  1.79
Si  2.76 -10.69 -4.17
Si  4.65  3.43 -10.29
Si  7.92 -0.25  8.75
Si  0.37 11.69 -1.61
Si  3.30 -7.01 -8.94
Si  1.34  3.20 11.32
Si  5.82  2.08 10.11
Si -3.53  6.94 -8.94
Si  2.56  3.18 -11.13
Si -5.70 -1.41 -10.30
Si  3.23 -10.11  5.35
Si -4.16  0.10 -11.13
Si  7.73  4.34  7.92
Si -7.81  0.92 -8.94
Si  8.84  2.03 -7.73
Si  4.29  0.10 -11.13
Si  8.28  8.02  3.15
Si -8.20 -3.98 -7.73
Si  3.39 -11.33  1.79
Si  6.76 -8.17 -5.53
Si -8.74 -7.66 -2.97
Si -9.47 -7.25 -1.61
Si  1.99 -11.85 -0.77
Si -3.02 -2.82 11.31
Si -11.21 -4.17 -1.61
Si  9.86  6.29 -2.96
Si  6.73 -9.57 -2.96
Si  1.72 11.20 -4.17
Si -3.19  7.68  8.75
Si -2.23 -11.85 -0.77
Si -1.76 11.94 -0.77
Si -5.13  8.78  6.55
Si 10.11  5.17 -4.17
Si -2.88  3.20 11.32
Si  7.28 -5.89 -7.73
Si  1.58 11.36  3.99
Si  0.99 -4.75 -11.13
Si 10.20  0.85  6.55
Si -7.08  4.59  8.75
Si -2.09 -8.18  8.75
Si  2.13 -8.18  8.75
Si  1.11 10.78 -5.54
Si 11.48  3.76 -1.61
Si  0.09  6.52 -10.30
Si -8.62  8.02  3.15
Si -0.10 -12.10 -1.61
Si -2.51 11.20 -4.17
Si  2.46 11.94 -0.77
Si -11.80  2.62  1.80
Si  9.62  7.52  0.59
Si -1.64  9.19  7.91
Si 10.46 -0.49 -6.37
Si -12.13  0.68 -1.61
Si  9.54  4.36 -6.37
Si -0.22 -4.73 11.32
Si -6.01 10.54  1.80
Si 12.28 -0.41  0.59
Si  8.70 -3.98 -7.73
Si -2.64 11.36  3.99
Si  4.92  6.94 -8.94
Si -6.85  2.08 10.11
Si -5.47 -8.99  6.56
Si  2.58  9.19  7.91
Si  9.47  1.26  7.91
Si -4.20 -5.85 10.11
Si -3.85 11.69 -1.61
Si -10.66 -0.49 -6.37
Si  4.25 -5.85 10.11
Si -5.37 -4.50 -10.29
Si -11.78  4.01 -0.77
Si -5.15 -7.01 -8.94
Si  8.26 -3.34  8.75
Si -1.45  5.11 11.31
Si -3.12 10.78 -5.54
Si  6.97 -1.41 -10.30
Si  7.80  7.43 -6.37
Si  0.80 -0.31 -12.49
Si -3.24 -4.75 -11.13
Si -8.98 -0.25  8.75
Si -5.06 -11.33  1.79
Si -11.94 -3.40  1.79
Si -11.11  4.94  3.15
Si -5.22 -10.11  5.35
Si -0.36 12.46  1.79
Si  6.66 10.54  1.80
Si  9.37 -7.84  3.15
Si 11.12 -4.50  3.99
Si 12.00 -3.92 -0.77
Si  4.60 11.69 -1.61
Si -8.26 -7.08  6.55
Si -0.63 -2.22 -12.49
Si  2.77  5.11 11.31
Si -2.02  8.85 -8.94
Si -8.64 -3.34  8.75
Si  1.79 -8.92 -8.94
Si -5.79 -10.92  3.15
Si -1.26  0.67 12.68
Si  1.96  9.96 -7.73
Si -10.92  0.85  6.55
Si  2.21  8.85 -8.94
Si  5.26  7.68  8.75
Si  9.09  0.92 -8.94
Si -5.69 -10.69 -4.17
Si -2.27  9.96 -7.73
Si -1.48 -7.76 10.11
Si -2.44 -8.92 -8.94
Si -11.01  5.17 -4.17
Si  5.43 -2.82 11.31
Si -9.17  4.34  7.92
Si -4.14  6.52 -10.30
Si 11.26 -4.67 -4.17
Si  4.12 -12.10 -1.61
Si -10.47 -5.08 -5.54
Si  4.00 -4.73 11.32
Si  0.47 -2.41 12.67
Si -9.66 -7.59  3.99
Si  4.31  6.52 -10.30
Si  8.63 -7.08  6.55
Si -9.32 -0.99 -8.94
Si -4.33 -12.10 -1.61
Si -12.32  0.34  3.99
Si -3.42 -0.31 -12.49
Si 12.52 -1.64 -2.96
Si -5.89  3.18 -11.13
Si  5.57  3.20 11.32
Si  7.90 -6.67  7.91
Si 10.65 -5.08 -5.54
Si  2.74 -7.76 10.11
Si  2.96  0.67 12.68
Si -4.45 -4.73 11.32
Si  1.65  8.10 10.11
Si -13.07 -0.41  0.59
Si -2.03 11.78  5.35
Si  1.11 -12.43  3.99
Si  2.19 11.78  5.35
Si -8.37  0.17 10.11
Si -10.53  5.75  5.35
Si -9.83  8.20 -2.97
Si  3.86 12.46  1.79
Si  5.21 -4.75 -11.13
Si  3.60 -2.22 -12.49
Si 10.59  5.75  5.35
Si -2.58  8.10 10.11
Si 11.98 -5.31  1.80
Si  8.53  0.17 10.11
Si -11.26  6.29 -2.96
Si  5.33 10.78 -5.54
Si -8.01 -8.42 -6.37
Si  7.21 -8.99  6.56
Si  1.72 -12.01  5.35
Si -12.83 -1.64 -2.96
Si  6.88 -10.92  3.15
Si -1.09 12.87  3.15
Si  7.54  8.78  6.55
Si -2.04 -11.50 -6.37
Si  1.24 -12.59 -4.17
Si  2.18 -11.50 -6.37
Si 13.22  0.68 -1.61
Si  5.94 11.20 -4.17
Si -10.41 -8.34  0.59
Si -9.10  7.43 -6.37
Si  5.81 11.36  3.99
Si -5.99 11.94 -0.77
Si -2.50 -12.01  5.35
