500
set: 483.00  0.00  0.00
Si -0.11 -0.05 -0.09
Si  1.80  0.93  0.62
Si  0.12 -2.08  0.79
Si -1.68  1.09  0.97
Si -0.17 -0.20 -2.27
Si  1.42  1.17  2.78
Si -3.43  0.08  0.03
Si  1.81 -1.16 -2.67
Si  0.04  1.94 -2.87
Si -1.66  3.10  0.08
Si -1.58 -3.19 -0.11
Si  2.01  3.04 -0.11
Si  1.94 -3.13  0.08
Si  0.04 -2.21  3.00
Si  3.77  0.08  0.03
Si -1.78  0.91  3.20
Si -2.18 -0.90 -3.09
Si -3.37 -2.05  0.58
Si -1.80  2.92 -2.11
Si  3.43  0.25 -2.13
Si  1.69 -0.86  3.61
Si -1.90 -2.94 -2.26
Si  0.23  4.17  0.58
Si  1.80 -3.31 -2.11
Si -3.76  0.25 -2.13
Si  1.69  3.29 -2.26
Si -1.80 -1.23  3.76
Si  3.82 -2.05  0.58
Si -0.17  2.33  3.74
Si  3.50 -1.88  2.79
Si -3.69 -1.88  2.79
Si -0.10 -3.96 -3.09
Si -0.10  4.34  2.79
Si  3.50  2.27 -3.09
Si  3.42  1.88  3.60
Si -3.69  2.27 -3.09
Si  1.92 -0.99 -4.90
Si -3.48  4.15  0.79
Si  0.12  2.08 -5.09
Si -5.39  0.93  0.62
Si -3.77  1.88  3.60
Si  1.92 -5.14  0.97
Si  3.71  4.15  0.79
Si -1.80 -5.30  0.62
Si -0.17 -4.35  3.60
Si -1.80 -1.15 -5.25
Si  5.51  1.09  0.97
Si  5.01 -0.90 -3.09
Si -1.78  5.06 -2.67
Si -5.18  3.04 -0.11
Si -5.26 -3.13  0.08
Si -5.38 -1.16 -2.67
Si  0.17 -6.14  0.03
Si -3.56  4.02  3.00
Si -2.18 -5.05  2.78
Si  0.17 -1.99 -5.84
Si  1.94  1.03 -5.79
Si  3.63  4.02  3.00
Si  2.01 -1.12  5.76
Si -1.58  0.96 -5.98
Si -3.56 -4.28 -2.87
Si -1.66 -1.05  5.95
Si  0.17  2.16  5.91
Si  3.63 -4.28 -2.87
Si  0.17  6.31  0.03
Si  1.42  5.33 -3.09
Si  5.53  3.10  0.08
Si -0.17 -5.98 -2.13
Si  5.41  0.91  3.20
Si  3.43 -3.90  3.74
Si  5.61 -3.19 -0.11
Si  5.29 -2.94 -2.26
Si  0.23  0.02  6.46
Si  1.81 -5.32  3.20
Si  5.39  2.92 -2.11
Si  1.79  4.99  3.76
Si -5.77  1.17  2.78
Si -3.76 -3.90  3.74
Si -3.37  2.10 -5.29
Si -5.50 -0.86  3.61
Si -5.40 -3.31 -2.11
Si  5.39 -1.23  3.76
Si  0.23 -4.13 -5.29
Si -1.91  5.36  3.61
Si -5.50  3.29 -2.26
Si -0.17  6.48 -2.13
Si  3.82  2.10 -5.29
Si  3.48  2.02  5.78
Si  7.08 -0.05 -0.09
Si  3.48  6.18 -0.09
Si -0.11 -4.20  5.78
Si -3.71  2.02  5.78
Si  3.48 -6.28 -0.09
Si -3.71  6.18 -0.09
Si  3.48 -2.13 -5.96
Si -0.11  4.10 -5.96
Si -5.27 -0.99 -4.90
Si -3.71 -6.28 -0.09
Si  3.42  6.03 -2.27
Si -7.30 -0.05 -0.09
Si -3.71 -2.13 -5.96
Si -1.68  5.24 -4.90
Si -1.80  3.00  6.49
Si  7.02 -0.20 -2.27
Si -1.80  7.15  0.62
Si -7.07 -2.08  0.79
Si -5.27 -5.14  0.97
Si -3.48 -4.15 -5.09
Si -3.77  6.03 -2.27
Si  1.80 -3.23  6.49
Si -3.48 -0.00  6.66
Si  1.80  5.08 -5.25
Si  3.71 -4.15 -5.09
Si  5.39 -5.30  0.62
Si  5.39 -1.15 -5.25
Si  3.71 -0.00  6.66
Si  1.92  7.32  0.97
Si  3.42 -6.43 -2.27
Si  7.31 -2.08  0.79
Si  5.01 -5.05  2.78
Si -1.68 -3.06  6.84
Si -7.37 -0.20 -2.27
Si  1.92  3.17  6.84
Si -3.77 -6.43 -2.27
Si -5.18 -1.12  5.76
Si -1.58  5.11  5.76
Si  5.41  5.06 -2.67
Si -5.26  1.03 -5.79
Si  1.42 -7.13 -3.09
Si -3.43 -4.07  5.91
Si -7.15  1.94 -2.87
Si -1.66 -5.20 -5.79
Si -3.43  4.24 -5.84
Si  7.23  1.94 -2.87
Si  1.81  7.14  3.20
Si -1.78 -7.39 -2.67
Si -7.15 -2.21  3.00
Si  3.77 -4.07  5.91
Si  1.93  5.18  5.95
Si  7.23 -2.21  3.00
Si  3.77  4.24 -5.84
Si -6.96  4.17  0.58
Si -1.90 -7.09  3.61
Si  5.53 -1.05  5.95
Si -2.18  7.40  2.78
Si -0.17 -1.82 -8.00
Si -5.38 -5.32  3.20
Si  2.01 -5.27 -5.98
Si  1.79  0.84 -7.99
Si  5.61  0.96 -5.98
Si -5.40  4.99  3.76
Si  7.02  2.33  3.74
Si  0.23 -8.28  0.58
Si  5.29  5.36  3.61
Si -1.91  1.21 -8.13
Si -5.77  5.33 -3.09
Si  7.42  4.17  0.58
Si  1.80 -7.46  3.76
Si -7.36  2.33  3.74
Si -0.10 -8.11  2.79
Si -0.10  0.19  8.66
Si  7.09 -3.96 -3.09
Si  7.09  4.34  2.79
Si -7.29 -3.96 -3.09
Si -0.17  8.10  3.60
Si -1.68 -7.21 -4.90
Si -7.29  4.34  2.79
Si -7.07  2.08 -5.09
Si  5.39  3.00  6.49
Si -0.10  0.19 -8.96
Si  5.39  7.15  0.62
Si -8.87  1.09  0.97
Si  7.02 -4.35  3.60
Si -5.39 -3.23  6.49
Si -3.48 -8.30  0.79
Si -0.10  8.50 -3.09
Si  5.51  5.24 -4.90
Si -0.17  3.95 -8.14
Si  8.99  0.93  0.62
Si -5.27  7.32  0.97
Si -5.39  5.08 -5.25
Si  0.12  6.23  6.66
Si  0.12 -6.23  6.66
Si  3.42 -2.28 -8.14
Si  8.61  1.17  2.78
Si  3.71 -8.30  0.79
Si  7.31  2.08 -5.09
Si -5.27  3.17  6.84
Si  1.81  2.99 -8.54
Si  1.80 -7.38 -5.25
Si -3.77 -2.28 -8.14
Si  1.42 -2.98  8.65
Si -7.37 -4.35  3.60
Si -1.78 -3.24 -8.54
Si  5.51 -3.06  6.84
Si -7.02 -6.14  0.03
Si -8.77 -3.19 -0.11
Si -7.02 -1.99 -5.84
Si  5.01  7.40  2.78
Si -3.56  8.17 -2.87
Si -8.85  3.10  0.08
Si  3.63  8.17 -2.87
Si -1.58  9.26 -0.11
Si -7.02  2.16  5.91
Si -1.66  7.25 -5.79
Si -3.56 -0.13 -8.74
Si -7.02  6.31  0.03
Si  9.00 -1.16 -2.67
Si  7.03 -5.98 -2.13
Si -1.58 -7.34  5.76
Si  3.63 -0.13 -8.74
Si -5.26  5.18  5.95
Si -6.96  0.02  6.46
Si -5.38  7.14  3.20
Si -2.18  3.25  8.65
Si -1.66 -9.35  0.08
Si -5.18 -5.27 -5.98
Si  5.61  5.11  5.76
Si  1.93  9.33  0.08
Si  5.41 -7.39 -2.67
Si  1.42 -2.98 -8.96
Si  5.53 -5.20 -5.79
Si  5.29 -7.09  3.61
Si  1.79  9.15 -2.11
Si -3.56 -0.13  8.87
Si  2.01  7.19 -5.98
Si -3.37 -6.21  6.46
Si -8.97  0.91  3.20
Si  3.63 -0.13  8.87
Si  7.36 -6.14  0.03
Si  1.69 -9.17 -2.26
Si -3.37  6.25  6.46
Si  1.94 -7.28  5.95
Si  7.36 -1.99 -5.84
Si  8.88 -0.86  3.61
Si -3.56 -8.44  3.00
Si  2.01 -9.42 -0.11
Si  9.13 -3.13  0.08
Si  3.63 -8.44  3.00
Si -6.96 -4.13 -5.29
Si -5.40  0.84 -7.99
Si -5.77 -7.13 -3.09
Si  7.36  2.16  5.91
Si -8.99  2.92 -2.11
Si  9.20  3.04 -0.11
Si  7.36  6.31  0.03
Si  1.69 -5.02 -8.13
Si -7.36 -5.98 -2.13
Si  1.81  2.99  9.07
Si  3.82 -6.21  6.46
Si  8.88  3.29 -2.26
Si -1.91  1.21  9.48
Si  3.43  4.40 -8.00
Si  3.82  6.25  6.46
Si  5.29  1.21 -8.13
Si -2.18  3.25 -8.96
Si -0.17 -1.82  9.61
Si  7.02  6.48 -2.13
Si -1.80 -5.38 -7.99
Si -1.78 -3.24  9.07
Si  8.99 -3.31 -2.11
Si -9.10 -2.94 -2.26
Si -8.99 -1.23  3.76
Si  1.79  0.84  9.63
Si  7.42  0.02  6.46
Si  0.23  8.33 -5.29
Si -3.76  4.40 -8.00
Si -9.37 -0.90 -3.09
Si -1.80 -9.54 -2.11
Si -5.40 -7.46  3.76
Si  3.43  8.55  3.74
Si -1.91  9.52 -2.26
Si  7.42 -4.13 -5.29
Si -7.36  6.48 -2.13
Si  7.08 -4.20  5.78
Si -3.76  8.55  3.74
Si -0.11  8.25  5.78
Si  7.08  4.10 -5.96
Si -7.30 -4.20  5.78
Si -0.17  3.95  9.47
Si -0.11 -8.36 -5.96
Si -7.30  4.10 -5.96
Si  5.51 -7.21 -4.90
Si  3.42 -2.28  9.47
Si -3.48  8.30 -5.09
Si  9.11 -0.99 -4.90
Si  0.12 10.38  0.79
Si  3.71  8.30 -5.09
Si -3.77 -2.28  9.47
Si -8.99 -5.30  0.62
Si -8.99 -1.15 -5.25
Si  9.11 -5.14  0.97
Si  5.01  3.25  8.65
Si -5.38  2.99 -8.54
Si -5.39 -7.38 -5.25
Si  8.61  5.33 -3.09
Si  5.41 -3.24 -8.54
Si -10.62  0.08  0.03
Si -8.97  5.06 -2.67
Si -3.43 -8.22 -5.84
Si  0.04  6.10 -8.74
Si -8.77  0.96 -5.98
Si  0.04 10.25  3.00
Si -5.18  7.19 -5.98
Si -5.26  9.33  0.08
Si -8.85 -1.05  5.95
Si -5.18 -9.42 -0.11
Si  3.77 -8.22 -5.84
Si  0.04  6.10  8.87
Si  5.01  3.25 -8.96
Si -5.26 -7.28  5.95
Si -10.56 -2.05  0.58
Si -0.17 -10.13  3.74
Si  7.03 -1.82 -8.00
Si  5.53  7.25 -5.79
Si  0.04 -6.36 -8.74
Si -3.43  8.39  5.91
Si -1.80  7.07 -7.99
Si -5.77 -2.98  8.65
Si -5.40  9.15 -2.11
Si  5.61  9.26 -0.11
Si -6.96 -8.28  0.58
Si 10.62  0.25 -2.13
Si  9.13  1.03 -5.79
Si  1.69 -5.02  9.48
Si  5.53 -9.35  0.08
Si  5.61 -7.34  5.76
Si  0.04 -10.51 -2.87
Si  0.04 -6.36  8.87
Si  9.20 -1.12  5.76
Si  5.29  1.21  9.48
Si  3.76  8.39  5.91
Si -5.50 -9.17 -2.26
Si  9.00 -5.32  3.20
Si  8.99  4.99  3.76
Si -3.37 10.40  0.58
Si 10.96  0.08  0.03
Si -5.38  2.99  9.07
Si -9.37 -5.05  2.78
Si -5.50 -5.02 -8.13
Si -7.36 -1.82 -8.00
Si  5.39 -5.38 -7.99
Si  5.41 -3.24  9.07
Si -5.77 -2.98 -8.96
Si -5.40  0.84  9.63
Si  3.82 10.40  0.58
Si  3.43  4.40  9.61
Si  5.29  9.52 -2.26
Si  3.50 -6.04  8.66
Si  7.09 -8.11  2.79
Si  7.42 -8.28  0.58
Si  1.69  7.44 -8.13
Si  5.39 -9.54 -2.11
Si -9.10  5.36  3.61
Si  0.23  0.02 -11.16
Si -10.95  0.25 -2.13
Si -1.80 -5.38  9.63
Si -3.69 -6.04  8.66
Si  7.09  0.19  8.66
Si 10.69 -1.88  2.79
Si  3.50 -10.19 -3.09
Si 11.02 -2.05  0.58
Si -3.76  4.40  9.61
Si -7.29 -8.11  2.79
Si -3.69 -10.19 -3.09
Si  7.02  8.10  3.60
Si -7.29  0.19  8.66
Si -1.68 -3.06 -10.77
Si  3.50  6.42  8.66
Si 10.69  2.27 -3.09
Si  3.50 -6.04 -8.96
Si 10.61  1.88  3.60
Si  1.92  3.17 -10.77
Si -10.89 -1.88  2.79
Si -3.69  6.42  8.66
Si -8.87  5.24 -4.90
Si -3.69 -6.04 -8.96
Si  1.80  9.23  6.49
Si  7.09  0.19 -8.96
Si  7.02  3.95 -8.14
Si -10.67  4.15  0.79
Si  3.50 10.57  2.79
Si -8.99  3.00  6.49
Si  7.09  8.50 -3.09
Si -3.48 -0.00 -10.96
Si -8.99  7.15  0.62
Si -7.37  8.10  3.60
Si -1.68 -11.37  0.97
Si -7.07  6.23  6.66
Si -7.07 -6.23  6.66
Si -10.89  2.27 -3.09
Si -3.69 10.57  2.79
Si  8.99 -3.23  6.49
Si -7.29  0.19 -8.96
Si  0.12 -10.38 -5.09
Si  3.50  6.42 -8.96
Si  3.71 -0.00 -10.96
Si  8.99  5.08 -5.25
Si  8.61 -7.13 -3.09
Si -1.80 -9.45  6.49
Si -7.29  8.50 -3.09
Si -8.87 -3.06  6.84
Si -3.69  6.42 -8.96
Si -1.80  3.00 -11.12
Si -7.37  3.95 -8.14
Si -8.78  5.11  5.76
Si  7.31  6.23  6.66
Si  7.31 -6.23  6.66
Si  1.80 -11.53  0.62
Si  3.42 -10.58  3.60
Si -10.96  1.88  3.60
Si 10.90  4.15  0.79
Si  1.92 -9.29  6.84
Si  1.42 -11.28  2.78
Si  1.80 -3.23 -11.12
Si  9.11  7.32  0.97
Si -1.68  9.39  6.84
Si  1.81 11.29 -2.67
Si -0.17 -8.50 -8.14
Si -1.58  0.96 11.63
Si -8.85 -5.20 -5.79
Si -3.77 -10.58  3.60
Si  9.11  3.17  6.84
Si -1.66 -1.05 -11.66
Si  3.43 -8.05 -8.00
Si -10.75  4.02  3.00
Si  0.17 -10.30  5.91
Si  0.17  2.16 -11.71
Si 10.62 -3.90  3.74
Si -10.75 -4.28 -2.87
Si  9.00  7.14  3.20
Si -8.97 -7.39 -2.67
Si 10.83  4.02  3.00
Si  0.17 -1.99 11.78
Si  5.39  7.07 -7.99
Si -3.76 -8.05 -8.00
Si -1.80 11.22  3.76
Si  0.17 10.46 -5.84
Si 10.83 -4.28 -2.87
Si -10.56  2.10 -5.29
Si  1.93  1.03 11.82
Si  7.03 -1.82  9.61
Si  8.99  0.84 -7.99
Si -5.50 -5.02  9.48
Si  9.13  5.18  5.95
Si -6.96  8.33 -5.29
Si  2.01 -1.12 -11.85
Si -1.80  7.07  9.63
Si -9.10 -7.09  3.61
Si -3.37 -10.36 -5.29
Si -1.78 -11.54  3.20
Si -2.18 11.55 -3.09
Si  1.69  7.44  9.48
Si  9.20 -5.27 -5.98
Si -10.95 -3.90  3.74
Si -7.36 -1.82  9.61
Si  3.83 -10.36 -5.29
Si  1.69 11.59  3.61
Si -9.10  1.21 -8.13
Si -9.37  7.40  2.78
Si  8.99 -7.46  3.76
Si  5.39 -5.38  9.63
Si 10.67  2.02  5.78
Si  7.08  8.25  5.78
Si -5.50  7.44 -8.13
Si 10.67  6.18 -0.09
Si  7.42  8.33 -5.29
Si  3.48 -2.13 11.66
Si -0.11  4.10 11.66
Si 10.67 -6.28 -0.09
Si 11.02  2.10 -5.29
Si -5.27  3.17 -10.77
Si -0.11 12.40 -0.09
Si 10.67 -2.13 -5.96
Si 10.61  6.03 -2.27
Si -3.71 -2.13 11.66
Si  3.48 10.33 -5.96
Si  3.48 -10.43  5.78
Si  7.02  3.95  9.47
Si -8.87 -7.21 -4.90
Si -7.31  8.25  5.78
Si -0.17 12.26 -2.27
Si  7.08 -8.36 -5.96
Si  5.51 -3.06 -10.77
Si -3.71 10.33 -5.96
Si -3.71 -10.43  5.78
Si  3.48  2.02 -11.83
Si -10.90  2.02  5.78
Si -5.39  9.23  6.49
Si -0.11 -12.51 -0.09
Si -10.67 -4.15 -5.09
Si -10.90  6.18 -0.09
Si -1.80 -1.15 12.37
Si -0.11 -4.20 -11.83
Si -3.71  2.02 -11.83
Si  8.61 -2.98  8.65
Si -10.67 -0.00  6.66
Si -10.90 -6.28 -0.09
Si -7.07 10.38  0.79
Si -1.80 11.30 -5.25
