500
set: 1465.00  0.00  0.00
Si -0.79  0.60  1.67
Si  1.56  0.61  1.43
Si -0.65  2.14 -0.45
Si -0.15 -0.30 -2.34
Si -1.84 -1.12 -1.37
Si -2.58 -1.10  0.31
Si -0.56 -2.65  1.32
Si -1.05 -0.21  3.21
Si  3.21 -1.10  0.31
Si  1.85 -1.69 -2.45
Si -0.38  2.94 -1.99
Si  2.20  3.20  1.21
Si -2.18  1.25 -3.35
Si  1.96  2.96 -2.24
Si  2.59  0.85  3.20
Si -2.80  3.20 -0.46
Si  3.96 -1.12 -1.37
Si  3.00  3.20 -0.46
Si  1.45 -4.03  1.21
Si -4.24  0.61  1.43
Si -3.20  0.85  3.20
Si  2.25 -4.04 -0.46
Si -1.50  3.77  2.29
Si -2.24 -3.46  2.29
Si  0.19  4.59  1.32
Si -1.13 -4.29 -1.99
Si -3.94 -1.69 -2.45
Si -3.60  3.20  1.21
Si  1.22 -4.28 -2.24
Si -0.99 -2.75 -4.12
Si  3.62  1.25 -3.35
Si  2.65 -1.69 -4.12
Si  1.79  0.85  4.88
Si -1.39 -5.09 -0.45
Si  5.01  0.60  1.67
Si -3.84  2.96 -2.24
Si -1.44  1.23 -5.03
Si -3.54 -4.04 -0.46
Si -3.14 -1.69 -4.12
Si  3.56 -3.46  2.29
Si -0.21  2.24  4.98
Si  1.16 -1.74  5.09
Si  5.15  2.14 -0.45
Si  4.75 -0.21  3.21
Si -1.19 -1.75  5.34
Si -2.24  3.79  3.97
Si  2.81 -3.44  3.97
Si  5.24 -2.65  1.32
Si -0.73 -1.94 -5.65
Si -2.98 -3.44  3.97
Si -4.34 -4.03  1.21
Si -0.25  4.49 -4.12
Si  5.64 -0.30 -2.34
Si  4.30  3.77  2.29
Si  0.25  2.05 -6.00
Si -1.09  6.12 -1.37
Si -4.00  0.85  4.88
Si -5.95 -0.30 -2.34
Si -1.90  1.42  5.95
Si -1.84  6.14  0.31
Si  1.62 -1.93 -5.90
Si  5.41  2.94 -1.99
Si  3.56  3.79  3.97
Si  2.26  0.66 -6.11
Si  2.60  5.55 -2.45
Si  4.67 -4.29 -1.99
Si -4.58 -4.28 -2.24
Si  4.40 -5.09 -0.45
Si  4.36  1.23 -5.03
Si -6.45  2.14 -0.45
Si -6.58  0.60  1.67
Si  0.81 -6.62  1.43
Si -3.20  5.55 -2.45
Si  4.80 -2.75 -4.12
Si -6.35 -2.65  1.32
Si -1.53 -6.64  1.67
Si -3.54  0.66 -6.11
Si -4.64 -1.74  5.09
Si -0.96 -4.99  4.98
Si -6.18  2.94 -1.99
Si  3.90  1.42  5.95
Si  4.61 -1.75  5.34
Si  3.96  6.14  0.31
Si -2.40  5.54 -4.12
Si  0.59  6.93 -2.34
Si  2.19 -1.50  6.87
Si -5.61  4.59  1.32
Si  1.85 -6.38  3.20
Si  2.87 -5.99 -3.35
Si -2.92 -5.99 -3.35
Si -1.45 -2.55  6.87
Si -4.18 -1.93 -5.90
Si  7.36  0.61  1.43
Si -6.85 -0.21  3.21
Si  5.99  4.59  1.32
Si -0.44  5.49  5.34
Si  3.40  5.54 -4.12
Si  1.90  5.50  5.09
Si -0.31  7.03  3.21
Si  0.02  5.29 -5.65
Si -0.59 -0.40 -7.78
Si  5.58  2.24  4.98
Si  4.70  6.12 -1.37
Si -7.63 -1.12 -1.37
Si  5.07 -1.94 -5.65
Si -3.60 -1.50  6.87
Si -0.90 -7.53 -2.34
Si -0.50 -5.19 -6.00
Si -0.04  7.83  1.67
Si  4.27 -6.64  1.67
Si -1.78  3.60 -7.01
Si  1.05 -6.38  4.88
Si -6.01  2.24  4.98
Si -2.18 -6.00 -5.03
Si -3.95 -6.38  3.20
Si  7.65 -1.69 -2.45
Si -2.64  1.44  7.64
Si  5.55  4.49 -4.12
Si  2.36  5.30 -5.90
Si -2.74  0.66 -7.79
Si -2.52 -3.64 -7.01
Si  2.30  7.84  1.43
Si -1.80 -7.44  3.21
Si -0.71  4.68  6.87
Si  7.25 -4.03  1.21
Si -6.92 -4.29 -1.99
Si  3.16  1.44  7.64
Si  3.06  0.66 -7.79
Si -6.79 -2.75 -4.12
Si -4.98 -6.62  1.43
Si -5.55  2.05 -6.00
Si -3.90  5.50  5.09
Si -8.38 -1.10  0.31
Si  7.01 -4.28 -2.24
Si  4.34 -2.55  6.87
Si -7.29  3.77  2.29
Si  3.27 -3.64 -7.01
Si  4.84 -4.99  4.98
Si -6.04  4.49 -4.12
Si  7.76  2.96 -2.24
Si  3.62 -6.00 -5.03
Si -3.43  5.30 -5.90
Si -0.61 -0.10  8.65
Si  7.99  3.20  1.21
Si  2.47 -8.33  0.31
Si -3.49  7.84  1.43
Si -2.64 -5.81  5.95
Si -7.97  1.25 -3.35
Si  6.05  2.05 -6.00
Si  1.39 -1.49  8.54
Si  6.95 -1.74  5.09
Si -7.19 -5.09 -0.45
Si -6.52 -1.94 -5.65
Si  4.02  3.60 -7.01
Si -2.58 -8.35 -1.37
Si  3.15 -5.81  5.95
Si -7.23  1.23 -5.03
Si -6.98 -1.75  5.34
Si -3.33 -8.33  0.31
Si -5.20  6.93 -2.34
Si  8.05 -4.04 -0.46
Si  8.39  0.85  3.20
Si -2.46  8.09  3.20
Si  4.00 -7.44  3.21
Si -8.04 -3.46  2.29
Si  3.21 -8.35 -1.37
Si  7.59  0.85  4.88
Si  9.01 -1.10  0.31
Si  1.51 -6.57 -6.11
Si -8.60  3.20 -0.46
Si -1.43  8.48 -3.35
Si  4.90 -7.53 -2.34
Si -6.89  6.12 -1.37
Si  3.34  8.09  3.20
Si  1.11 -8.92 -2.45
Si -4.75 -6.38  4.88
Si -0.32  0.40 -9.31
Si  5.35  5.49  5.34
Si  8.79  3.20 -0.46
Si  5.21 -0.40 -7.78
Si  0.10  9.37 -0.45
Si -2.86  5.74  6.87
Si  2.94  5.74  6.87
Si  1.50  3.15  8.75
Si -1.03  3.58 -8.70
Si  6.61 -6.62  1.43
Si  5.49  7.03  3.21
Si  5.30 -5.19 -6.00
Si  8.45 -1.69 -4.12
Si -0.84  3.14  9.00
Si -9.00  0.85  3.20
Si -1.78 -3.66 -8.70
Si -5.78  5.29 -5.65
Si  7.41 -1.93 -5.90
Si  5.82  5.29 -5.65
Si  0.75 -4.08  8.75
Si  6.39  6.93 -2.34
Si -4.40 -1.49  8.54
Si -8.04  3.79  3.97
Si  5.09  4.68  6.87
Si -6.75 -4.99  4.98
Si  2.54  8.09  4.88
Si  2.02  0.42 -9.56
Si -7.63  6.14  0.31
Si -7.69  1.42  5.95
Si -6.10  7.03  3.21
Si  5.76  7.83  1.67
Si -0.69  8.46 -5.03
Si -6.24  5.49  5.34
Si  2.41 -5.79  7.64
Si -5.84  7.83  1.67
Si  9.75 -1.12 -1.37
Si -2.30 -0.92  9.62
Si -4.29 -6.57 -6.11
Si -8.94 -1.69 -4.12
Si -3.26  8.09  4.88
Si -9.40  3.20  1.21
Si  1.91 -8.92 -4.12
Si -1.59 -4.10  9.00
Si -7.33 -6.64  1.67
Si -1.30 -9.88  1.32
Si  9.41  1.25 -3.35
Si -6.39 -0.40 -7.78
Si -0.09 -2.84 -9.67
Si  5.18 -0.10  8.65
Si  8.61 -3.44  3.97
Si  4.36  8.48 -3.35
Si -6.29 -5.19 -6.00
Si  8.05  0.66 -6.11
Si -10.03  0.61  1.43
Si -3.39 -5.79  7.64
Si -9.74 -1.69 -2.45
Si -9.34 -4.04 -0.46
Si  9.35 -3.46  2.29
Si -8.78 -3.44  3.97
Si -4.30  3.15  8.75
Si  4.02 -3.66 -8.70
Si  3.50 -0.92  9.62
Si -3.78  0.42 -9.56
Si -7.25 -2.55  6.87
Si -9.63  2.96 -2.24
Si  0.41 -8.97  5.09
Si -6.69 -7.53 -2.34
Si  0.16  6.83 -7.78
Si  8.39  5.55 -2.45
Si -2.79  7.89 -6.11
Si -4.69 -8.92 -2.45
Si  0.36 10.18 -1.99
Si  3.00  7.89 -6.11
Si  2.31 -6.58 -7.79
Si  7.65 -6.38  3.20
Si  2.14  5.74  8.54
Si  4.76  3.58 -8.70
Si  6.84 -6.38  4.88
Si -6.50  4.68  6.87
Si  2.66  3.01 -9.78
Si -3.89 -8.92 -4.12
Si -1.15  8.66  5.95
Si -1.93 -8.98  5.34
Si  0.65  4.39 -9.67
Si  7.99 -1.50  6.87
Si -2.05 10.43 -0.46
Si -3.14  3.01 -9.78
Si -8.19  5.54 -4.12
Si  0.53  9.48  4.98
Si  4.95  3.14  9.00
Si  7.70  5.50  5.09
Si  4.21 -4.10  9.00
Si -6.41 -0.10  8.65
Si -3.48 -6.58 -7.79
Si  2.71 10.19 -2.24
Si  5.47  0.40 -9.31
Si  1.91 -4.23 -9.78
Si  9.36  3.79  3.97
Si -8.99  5.55 -2.45
Si -1.11  2.33 10.54
Si -1.47 -9.18 -5.65
Si -3.09 10.19 -2.24
Si -2.85 10.44  1.21
Si -5.04 -4.08  8.75
Si  2.94 10.44  1.21
Si -3.66  5.74  8.54
Si -7.57  3.60 -7.01
Si  0.87 -9.16 -5.90
Si  4.50 -9.88  1.32
Si -1.74 -9.98 -4.12
Si 10.81  0.60  1.67
Si -2.12 -1.29 -10.68
Si -9.80  0.85  4.88
Si -1.33 -7.63 -7.78
Si -5.70  9.37 -0.45
Si -10.14 -4.03  1.21
Si 10.10  3.77  2.29
Si 10.54 -0.21  3.21
Si  8.67 -5.99 -3.35
Si  5.89  9.37 -0.45
Si  3.74 10.43 -0.46
Si  5.11  8.46 -5.03
Si -8.72 -5.99 -3.35
Si  0.99  9.28 -6.00
Si -7.59 -7.44  3.21
Si  3.86 -8.98  5.34
Si -6.12  0.40 -9.31
Si 10.94  2.14 -0.45
Si -9.34  0.66 -6.11
Si -7.98 -6.00 -5.03
Si  1.45 -8.73  6.87
Si  0.13  7.13  8.65
Si  7.19 -1.49  8.54
Si -2.00  7.89 -7.79
Si -0.75 11.01  2.29
Si  2.81 -10.70  2.29
Si -3.88 -4.23 -9.78
Si -2.99 -10.70  2.29
Si  2.54  3.39 10.53
Si  1.79 -3.84 10.53
Si  0.71 -11.27  1.21
Si  8.10  7.84  1.43
Si  3.68 -1.29 -10.68
Si  8.16  5.30 -5.90
Si  1.51 -11.27 -0.46
Si 10.16  1.23 -5.03
Si 10.20 -5.09 -0.45
Si -1.36 -7.34  8.65
Si 11.04 -2.65  1.32
Si -10.38 -4.28 -2.24
Si  9.70  1.42  5.95
Si -8.44  1.44  7.64
Si -8.32 -3.64 -7.01
Si 10.46 -4.29 -1.99
Si  4.64  8.66  5.95
Si  9.20  5.54 -4.12
Si  9.76  6.14  0.31
Si -3.26  3.39 10.53
Si  4.06 -9.98 -4.12
Si  6.91 -8.92 -2.45
Si -8.54  0.66 -7.79
Si  7.31 -6.57 -6.11
Si  5.70 -2.84 -9.67
Si  2.07 -10.68  3.97
Si -1.07 -6.83 -9.31
Si -0.19  1.95 -11.44
Si -1.55  6.31  9.62
Si  4.33 -9.18 -5.65
Si -6.64  3.14  9.00
Si -6.83  3.58 -8.70
Si -5.39 -8.97  5.09
Si -7.23  8.48 -3.35
Si  2.75 -0.90 11.30
Si  6.55 -4.08  8.75
Si -5.89 -2.84 -9.67
Si 11.44 -0.30 -2.34
Si 10.60 -2.75 -4.12
Si -5.43 10.18 -1.99
Si -1.90  8.68  7.64
Si  3.80  7.89 -7.79
Si  0.47 -11.51 -2.24
Si -9.40 -1.50  6.87
Si -3.04 -0.90 11.30
Si -10.44 -1.74  5.09
Si  8.27 -8.33  0.31
Si -9.97 -1.93 -5.90
Si 11.21  2.94 -1.99
Si  4.69  2.33 10.54
Si -1.86 -4.90 10.54
Si  4.46 -7.63 -7.78
Si -5.64  6.83 -7.78
Si -6.49  8.46 -5.03
Si -5.14  4.39 -9.67
Si  8.85  0.66 -7.79
Si  1.27 -6.82 -9.56
Si -1.49 11.02  3.97
Si  7.29  3.15  8.75
Si 10.40 -1.75  5.34
Si -1.87 -11.52 -1.99
Si -8.44 -5.81  5.95
Si  8.95  1.44  7.64
Si -4.01 -3.84 10.53
Si -8.38 -8.35 -1.37
Si -4.35 -8.73  6.87
Si -5.26  9.48  4.98
Si  0.94 11.82  1.32
Si  5.95  6.83 -7.78
Si -4.92 -9.16 -5.90
Si -11.74 -0.30 -2.34
Si -3.73 -10.68  3.97
Si -8.25  8.09  3.20
Si  9.07 -3.64 -7.01
Si  6.21 -8.97  5.09
Si -4.80  9.28 -6.00
Si  0.42  7.64 -9.31
Si  6.16 10.18 -1.99
Si -2.34  3.00 -11.45
Si -4.29 -11.27 -0.46
Si -9.74 -6.38  3.20
Si -7.58 -3.66 -8.70
Si -2.20 -9.79  6.87
Si 10.06 -6.64  1.67
Si -9.23  5.30 -5.90
Si  4.44 -7.34  8.65
Si  3.90  8.68  7.64
Si  8.95 -5.81  5.95
Si  0.65 -8.72  8.54
Si 10.50  6.12 -1.37
Si -7.10 -9.88  1.32
Si -9.29  7.84  1.43
Si  9.41 -6.00 -5.03
Si -9.69  5.50  5.09
Si  4.24  6.31  9.62
Si  3.94 -4.90 10.54
Si -1.37  5.94 -10.68
Si  5.05 11.01  2.29
Si  3.46  3.00 -11.45
Si  3.92 -11.52 -1.99
Si -7.39 -4.10  9.00
Si  7.82  0.42 -9.56
Si -9.12 -8.33  0.31
Si  9.01 -8.35 -1.37
Si -11.40  4.59  1.32
Si 10.87 -1.94 -5.65
Si -5.09 -11.27  1.21
Si  6.45  4.39 -9.67
Si  0.50 11.72 -4.12
Si -12.24  2.14 -0.45
Si  6.33  9.48  4.98
Si -8.65  5.74  6.87
Si  4.73 -6.83 -9.31
Si  4.30 11.02  3.97
Si  3.60 -9.79  6.87
Si  7.71 -8.92 -4.12
Si  1.10  0.81 12.42
Si -11.98  2.94 -1.99
Si -12.15 -2.65  1.32
Si  2.71 -4.23 -11.45
Si  8.73  5.74  6.87
Si -12.38  0.60  1.67
Si -1.38 -1.31 -12.36
Si 10.14 -2.55  6.87
Si -2.14 -12.33 -0.45
Si  2.77  7.65 -9.56
Si -5.67  7.13  8.65
Si -4.52 -6.82 -9.56
Si -3.08 -4.23 -11.45
Si  9.82  3.60 -7.01
Si -1.02 -2.45 12.31
Si  8.34  8.09  4.88
Si -6.95  8.66  5.95
Si -8.10 -0.92  9.62
Si  9.14  8.09  3.20
Si -3.03  7.65 -9.56
Si  8.21 -5.79  7.64
Si 11.38  2.24  4.98
Si -0.93 -5.29 -11.44
Si  5.93  7.13  8.65
Si 11.78  4.59  1.32
Si  9.80 -7.44  3.21
Si -10.78 -6.62  1.43
Si -1.25  0.79 12.66
Si 10.64 -4.99  4.98
Si  6.67 -9.16 -5.90
Si  1.74  3.40 12.20
Si -6.91  2.33 10.54
Si  0.99 -3.84 12.20
Si -4.86 11.82  1.32
Si  3.66 -12.33 -0.45
Si 11.35  4.49 -4.12
Si -5.33 -11.51 -2.24
Si  5.61  1.95 -11.44
Si  2.75 -8.16  9.62
Si -1.03 10.83 -7.01
Si -3.05 -8.16  9.62
Si  6.79  9.28 -6.00
Si  7.93  5.74  8.54
Si  4.42  5.94 -10.68
Si -7.73 -8.98  5.34
Si -11.34  2.05 -6.00
Si -7.27 -9.18 -5.65
Si -6.55 11.01  2.29
Si -11.80  2.24  4.98
Si  8.11 -6.58 -7.79
Si -7.13 -7.63 -7.78
Si -12.64 -0.21  3.21
Si -5.98  1.95 -11.44
Si -7.85 10.43 -0.46
Si  6.50 -11.27  1.21
Si -9.05  8.09  4.88
Si  7.71 -4.23 -9.78
Si -2.30  6.33 11.30
Si -7.53 -9.98 -4.12
Si -8.59  7.89 -6.11
Si  2.53 -10.87 -7.01
Si -5.38  7.64 -9.31
Si  4.42 -1.31 -12.36
Si -0.27  4.78 12.31
Si -11.00  6.93 -2.34
Si 13.15  0.61  1.43
Si -2.45 12.78 -2.45
Si -5.15 -8.72  8.54
Si -10.54 -6.38  4.88
Si  7.24 -8.73  6.87
