500
set: 756.00  0.00  0.00
Si -0.38  1.19 -0.79
Si  0.46 -1.28  0.84
Si -1.30 -1.21 -0.77
Si  1.38  1.17  0.84
Si -0.91 -0.00  2.43
Si  2.18 -1.14 -0.86
Si  0.85 -0.01 -2.48
Si -2.24  1.25  0.84
Si  0.07  2.44  2.41
Si -0.12 -2.33 -2.54
Si -3.19 -1.19  0.74
Si  3.20  1.21 -0.92
Si -2.60 -0.04 -2.42
Si  2.63 -0.04  2.54
Si  0.54  3.56 -0.77
Si -0.47 -3.61  0.84
Si -1.78 -2.34  2.41
Si -1.78  2.35 -2.43
Si  1.77 -2.35  2.55
Si -1.35  3.58  0.74
Si  1.73  2.44 -2.54
Si  1.35 -3.57 -0.92
Si  3.91 -1.19  0.74
Si  0.81  0.06  4.09
Si -3.90  1.21 -0.92
Si  2.30  3.49  0.84
Si -2.23 -3.59 -0.79
Si -0.86  0.05 -4.21
Si  3.02 -3.52  0.84
Si -0.06 -2.39  4.15
Si  0.01  2.39 -4.19
Si -3.08  3.63 -0.86
Si  2.69  0.04 -4.07
Si  3.48 -2.42 -2.43
Si -3.49  2.42  2.55
Si -2.70 -0.03  4.19
Si -3.62 -2.42 -2.43
Si  3.61  2.42  2.55
Si  1.71 -2.43 -4.08
Si  4.86  1.25  0.84
Si -1.67  2.34  4.20
Si  1.78  2.38  4.15
Si  4.50 -0.04 -2.42
Si -4.92 -1.14 -0.86
Si -4.47 -0.04  2.54
Si -1.84 -2.39 -4.19
Si -0.76  4.73 -2.42
Si  0.93  4.77  2.43
Si -4.08 -3.52  0.84
Si -0.99 -4.78 -2.48
Si  4.02  3.63 -0.86
Si  0.79 -4.82  2.54
Si -3.55  2.35 -4.08
Si  3.55  2.35 -4.08
Si -5.72  1.17  0.84
Si  0.45 -1.22 -5.78
Si  5.80 -1.21 -0.77
Si -2.62  4.73  2.54
Si -0.38  1.18  5.85
Si  0.33 -5.91 -0.86
Si -4.80  3.49  0.84
Si -3.52 -2.43  4.20
Si -4.42  0.04 -4.07
Si  2.65 -4.82 -2.42
Si  2.70  4.77 -2.48
Si -2.76 -4.78  2.43
Si  3.58 -2.43  4.20
Si  1.38  1.10 -5.78
Si  4.40 -0.03  4.19
Si -0.39  6.02  0.84
Si -1.30 -1.20  5.83
Si  4.87 -3.59 -0.79
Si  1.46  5.96 -0.79
Si  2.28 -1.18  5.70
Si -1.39 -6.06  0.84
Si  5.32 -2.34  2.41
Si  0.84 -4.74 -4.07
Si  5.32  2.35 -2.43
Si -1.04 -4.72  4.09
Si  2.06 -5.96  0.74
Si -5.33 -2.35  2.55
Si -0.85  4.74  4.19
Si -2.06  5.98 -0.92
Si -2.27  1.20 -5.88
Si -5.38  2.44 -2.54
Si  0.98  4.83 -4.21
Si  6.19 -0.00  2.43
Si  3.10  1.25  5.77
Si -3.17 -1.14 -5.78
Si -6.25 -0.01 -2.48
Si -3.15 -5.98 -0.77
Si -2.57  4.81 -4.07
Si  3.22  5.94  0.84
Si  5.75  3.58  0.74
Si -6.64 -1.28  0.84
Si -5.75 -3.57 -0.92
Si  2.65  4.83  4.09
Si  0.54  3.57  5.83
Si -0.47 -3.67 -5.78
Si  6.72  1.19 -0.79
Si  2.56 -4.81  4.19
Si  1.26 -3.53  5.77
Si -2.71 -4.72 -4.21
Si  4.34 -4.78  2.43
Si -4.40  4.77 -2.48
Si -1.32  3.64 -5.78
Si -4.45 -4.82 -2.42
Si  4.48  4.73  2.54
Si  3.94 -1.14 -5.78
Si -4.00  1.25  5.77
Si  5.26 -2.39 -4.19
Si -3.88  5.94  0.84
Si -5.32  2.38  4.15
Si  2.29  3.56 -5.78
Si -5.39 -2.43 -4.08
Si  3.95 -5.98 -0.77
Si -2.22 -3.60  5.85
Si  5.43  2.34  4.20
Si -2.98  3.59  5.70
Si -0.38  1.18 -7.40
Si  2.98 -3.58 -5.88
Si -6.56  3.56 -0.77
Si -6.29  0.06  4.09
Si  6.24  0.05 -4.21
Si  0.07  7.13 -2.43
Si -4.82 -1.18  5.70
Si -0.08 -7.13  2.55
Si  0.46 -1.22  7.46
Si  6.63 -3.61  0.84
Si -7.48  1.19 -0.79
Si -1.31 -1.20 -7.41
Si  1.38  1.10  7.47
Si  4.83  1.20 -5.88
Si  4.39 -4.72 -4.21
Si  7.56 -1.28  0.84
Si -4.45  4.83  4.09
Si  4.53  4.81 -4.07
Si  1.63 -7.19 -2.43
Si  6.98 -2.33 -2.54
Si -1.97 -7.10 -2.54
Si -2.27  1.19  7.36
Si -1.64  7.20  2.55
Si -7.03  2.44  2.41
Si -4.54 -4.81  4.19
Si  1.91  7.21  2.41
Si -5.04 -5.96  0.74
Si  5.04  5.98 -0.92
Si  4.12  3.59  5.70
Si  7.17  2.44  2.41
Si  2.27 -1.18 -7.54
Si -7.22 -2.33 -2.54
Si -4.12 -3.58 -5.88
Si  6.11 -4.78 -2.48
Si -6.17  4.77  2.43
Si -3.16 -1.14  7.47
Si  3.10  1.25 -7.48
Si -5.72  1.10 -5.78
Si -5.64  5.96 -0.79
Si  0.54  3.58 -7.41
Si  0.43 -5.96  5.70
Si  0.17  7.11  4.20
Si  6.34  4.73 -2.42
Si  3.48 -7.11  2.41
Si -0.14 -7.20 -4.08
Si  5.80 -1.20  5.83
Si -4.81  3.56 -5.78
Si  7.96 -0.01 -2.48
Si -0.46 -3.67  7.47
Si -6.31 -4.82  2.54
Si -3.62 -7.11  2.41
Si  1.25 -3.52 -7.48
Si  5.71 -6.06  0.84
Si -8.01 -0.00  2.43
Si -1.70  7.12 -4.08
Si -0.43  5.97 -5.88
Si  0.50  8.36  0.74
Si -0.49 -8.34 -0.92
Si -1.31  3.63  7.47
Si  1.17 -8.30  0.84
Si  4.88 -3.60  5.85
Si -3.53  7.22 -2.54
Si -7.57 -3.61  0.84
Si  3.57  7.22 -2.54
Si -1.40 -5.99 -5.78
Si  7.64  3.56 -0.77
Si  1.47  5.95  5.85
Si -1.91 -7.17  4.15
Si  1.85  7.16 -4.19
Si  7.04 -2.39  4.15
Si -2.23 -3.60 -7.40
Si  3.94 -1.14  7.47
Si  1.74 -7.21  4.20
Si -8.40 -1.21 -0.77
Si  2.09 -5.91 -5.78
Si -1.23  8.41 -0.86
Si -4.00  1.25 -7.48
Si -7.09  2.39 -4.19
Si  2.30  3.55  7.46
Si  7.11  2.39 -4.19
Si  8.47  1.17  0.84
Si -2.15  6.02  5.77
Si -7.16 -2.39  4.15
Si  6.06 -4.72  4.09
Si  2.39  8.34 -0.77
Si  2.99 -3.58  7.36
Si -2.31 -8.38  0.84
Si -2.95  8.26  0.84
Si -6.26 -4.74 -4.07
Si  3.22  5.88 -5.78
Si -6.12  4.83 -4.21
Si -2.98  3.60 -7.54
Si  4.83  1.19  7.36
Si  6.25  4.74  4.19
Si -6.65 -1.22 -5.78
Si  7.91  0.06  4.09
Si -3.15 -5.98  5.83
Si  3.03 -8.36 -0.79
Si -5.84 -3.53  5.77
Si  5.78  3.64 -5.78
Si -3.47  7.15  4.15
Si  3.42 -7.16 -4.19
Si  6.72  1.18  5.85
Si -7.96  0.05 -4.21
Si -6.77 -5.91 -0.86
Si  3.63  7.15  4.15
Si -4.83 -1.18 -7.54
Si  6.71  6.02  0.84
Si -0.85  0.05  9.03
Si -3.69 -7.16 -4.19
Si -3.88  5.88 -5.78
Si  5.13 -7.10 -2.54
Si -4.11 -3.58  7.36
Si  0.80  0.06 -9.16
Si -5.19  7.21  2.41
Si -8.45  3.58  0.74
Si  8.45 -3.57 -0.92
Si  3.95 -5.98  5.83
Si  4.15  8.26  0.84
Si  4.12  3.60 -7.54
Si -4.07 -8.36 -0.79
Si -5.47 -7.19 -2.43
Si  0.01  2.38  9.06
Si  5.46  7.20  2.55
Si  9.28 -1.14 -0.86
Si -0.07 -2.39 -9.10
Si -2.70 -0.03 -9.05
Si -9.34  1.25  0.84
Si -5.72  1.10  7.47
Si -6.56  3.57  5.83
Si -7.86  4.73 -2.42
Si  5.79 -1.20 -7.41
Si -0.42  5.97  7.36
Si -1.68  2.34 -9.04
Si -8.88 -2.34  2.41
Si  8.82  2.44 -2.54
Si -8.88  2.35 -2.43
Si  8.87 -2.35  2.55
Si  6.63 -3.67 -5.78
Si  7.43 -5.91 -0.86
Si -1.83 -2.39  9.06
Si -4.80  3.55  7.46
Si  4.87 -3.60 -7.40
Si  2.69  0.03  9.18
Si -7.47  1.18  5.85
Si  1.77  2.38 -9.10
Si  7.89 -4.82  2.54
Si  7.55 -1.22 -5.78
Si  1.46  5.95 -7.40
Si -4.71  8.34 -0.77
Si  0.43 -5.95 -7.54
Si  1.71 -2.43  9.16
Si -7.49  6.02  0.84
Si  8.03  4.77  2.43
Si -5.01 -5.91 -5.78
Si -1.39 -6.00  7.46
Si  4.79 -8.38  0.84
Si  4.95  6.02  5.77
Si -8.09 -4.78 -2.48
Si  2.10 -5.91  7.47
Si  5.19 -7.17  4.15
Si -5.25  7.16 -4.19
Si  5.40  7.12 -4.08
Si -2.16  6.02 -7.48
Si  1.09  9.50 -2.42
Si -0.78  9.51  2.54
Si -5.36 -7.21  4.20
Si  0.81 -9.59 -2.42
Si -1.06 -9.59  2.54
Si -9.70 -0.04 -2.42
Si -3.53 -2.43 -9.04
Si  8.81 -2.43 -4.08
Si -8.77  2.34  4.20
Si  3.57 -2.43 -9.04
Si -9.33 -3.59 -0.79
Si -3.15 -5.97 -7.41
Si  3.23  5.87  7.47
Si  9.73 -0.04  2.54
Si  6.72  1.18 -7.40
Si  9.40  3.49  0.84
Si  4.39 -0.03 -9.05
Si -5.63  5.95  5.85
Si -6.64 -1.22  7.46
Si  8.88  2.38  4.15
Si  5.70 -5.99 -5.78
Si -3.54  2.34  9.16
Si  7.94 -4.74 -4.07
Si  3.56  2.34  9.16
Si  5.79  3.63  7.47
Si -0.59 -8.30  5.77
Si -5.85 -3.52 -7.48
Si -8.94 -2.39 -4.19
Si -7.95  4.74  4.19
Si  2.50 -9.55  2.43
Si -4.41  0.03  9.18
Si -2.56  9.54 -2.48
Si -1.13  8.37  5.70
Si -7.57 -3.67 -5.78
Si  0.52  8.41 -5.78
Si -5.93 -8.30  0.84
Si  2.78  9.54  2.43
Si  7.64  3.57  5.83
Si -8.14 -4.72  4.09
Si -0.86  4.74 -9.05
Si -3.87  5.87  7.47
Si -2.83 -9.55 -2.48
Si  1.14 -8.35 -5.88
Si  0.99  4.82  9.03
Si  5.87  8.41 -0.86
Si -8.40 -1.20  5.83
Si  3.94 -5.97 -7.41
Si -7.03  7.13 -2.43
Si  8.09  4.83 -4.21
Si  8.47  1.10 -5.78
Si  7.02 -7.13  2.55
Si -1.05 -4.71 -9.16
Si  0.85 -4.74  9.18
Si -10.29 -1.19  0.74
Si -1.00 -9.51 -4.07
Si  7.17  7.13 -2.43
Si 10.30  1.21 -0.92
Si -7.18 -7.13  2.55
Si -0.72  9.58 -4.07
Si  0.99  9.52  4.19
Si  2.39  8.35  5.83
Si  8.56  5.96 -0.79
Si -8.49 -6.06  0.84
Si  0.71 -9.58  4.19
Si -2.31 -8.44 -5.78
Si -6.57  3.58 -7.41
Si -2.70 -4.73  9.03
Si  2.55 -4.80 -9.05
Si -2.96  8.33 -5.78
Si -7.48  1.18 -7.40
Si  9.79  0.04 -4.07
Si -6.66 -5.96  5.70
Si  6.64 -3.67  7.47
Si  3.04 -8.37  5.85
Si -9.80 -0.03  4.19
Si -2.56  4.81  9.18
Si -6.60  8.36  0.74
Si  6.61 -8.34 -0.92
Si  2.64  4.83 -9.16
Si  7.56 -1.22  7.46
Si  2.55 -9.50 -4.21
Si  6.67  5.97 -5.88
Si -2.88 -9.49  4.09
Si 10.12 -3.52  0.84
Si  5.27 -2.39  9.06
Si  8.36 -3.53  5.77
Si  4.27 -9.55 -2.48
Si -4.32  9.54  2.43
Si -2.60  9.60  4.09
Si -5.00 -5.91  7.47
Si  0.22 -10.74  0.74
Si -6.93  7.11  4.20
Si -0.21 10.76 -0.92
Si  5.42  2.34 -9.04
Si  4.94  6.02 -7.48
Si  0.86 -0.01 10.77
Si -5.33  2.38 -9.10
Si  6.96 -7.20 -4.08
Si -1.51 -10.69 -0.86
Si -8.42  3.64 -5.78
Si -10.18  3.63 -0.86
Si -0.92  0.00 -10.81
Si  4.54  9.54 -2.48
Si  2.83  9.60 -4.21
Si -4.60 -9.55  2.43
Si -5.39 -2.43  9.16
Si  1.45 10.80  0.84
Si -2.04 10.71  0.84
Si  4.14  8.33 -5.78
Si  9.16 -5.96  0.74
Si -0.11 -2.33 10.71
Si -9.16  5.98 -0.92
Si  6.25  0.05  9.03
Si  2.11 -10.76 -0.77
Si -4.07 -8.37  5.85
Si -7.24 -7.20 -4.08
Si  7.27  7.11  4.20
Si  2.62 -0.04 -10.71
Si  9.38 -1.18  5.70
Si -5.64  5.95 -7.40
Si  1.76 -2.35 -10.69
Si 11.01 -1.19  0.74
Si  4.40 -4.73  9.03
Si -11.00  1.21 -0.92
Si -9.72  4.73  2.54
Si  0.06  2.44 -10.84
Si -6.30  0.06 -9.16
Si 10.58 -2.42 -2.43
Si  1.73  2.44 10.71
Si -9.37  1.20 -5.88
Si -2.59 -0.05 10.83
Si  9.76 -4.82 -2.42
Si  5.71 -6.00  7.46
Si -10.59  2.42  2.55
Si  4.22 -9.49  4.09
Si  7.54 -5.96  5.70
Si  9.80  4.77 -2.48
Si -0.59 -8.30 -7.48
Si  1.15 -8.35  7.36
Si -1.77  2.35 10.81
Si -4.55 -4.80 -9.05
Si -4.71  8.35  5.83
Si -9.86 -4.78  2.43
Si  7.63  3.58 -7.41
Si -1.79 -2.33 -10.84
Si -7.56 -3.67  7.47
Si -10.72 -2.42 -2.43
Si  0.53  8.41  7.47
Si  3.31 10.73 -0.79
Si -7.53  5.97 -5.88
Si -4.46  4.83 -9.16
Si 10.71  2.42  2.55
Si -8.41 -1.20 -7.41
Si  4.79 -8.44 -5.78
Si  4.54  4.81  9.18
Si -7.59 -8.34 -0.92
Si  7.60  8.36  0.74
Si -4.27  9.60 -4.21
Si -1.14  8.37 -7.54
Si -3.23 -10.83  0.84
Si -4.55 -9.50 -4.21
Si  8.48  1.10  7.47
Si  4.50  9.60  4.09
Si -3.79 10.73 -0.79
Si  2.38  8.35 -7.41
Si -6.01  9.50 -2.42
Si -2.31 -8.45  7.47
Si  0.16  7.12 -9.04
Si -3.50  2.42 -10.69
Si  3.87 -10.83  0.84
Si -9.67  4.81 -4.07
Si  3.60  2.42 -10.69
Si -2.95  8.33  7.46
Si  8.73 -7.19 -2.43
Si  3.03 -8.37 -7.40
Si  9.66 -4.81  4.19
Si -9.32 -3.60  5.85
Si  9.39  3.56 -5.78
Si  6.68  5.97  7.36
Si -4.47 -0.04 -10.71
Si -8.74  7.20  2.55
Si  6.04 -9.59  2.54
Si  3.48 -2.42 10.81
Si  9.75  4.83  4.09
Si -10.65  2.35 -4.08
Si 10.65  2.35 -4.08
Si -0.13 -7.21  9.16
Si -3.62 -2.42 10.81
Si -9.80 -4.72 -4.21
Si -10.62 -2.43  4.20
Si  1.73 -7.20 -9.04
Si  1.86  7.16  9.06
Si  6.32  9.51  2.54
Si -6.67 -5.95 -7.54
Si -6.29 -9.59 -2.42
Si -1.70  7.12  9.16
Si  4.51 -0.05 10.83
Si 11.12  3.63 -0.86
Si 10.68 -2.43  4.20
Si -1.92 -7.16 -9.10
Si  7.03 -2.39 -9.10
Si -7.09  2.38  9.06
Si  8.27 -8.30  0.84
Si  8.35 -3.52 -7.48
Si  5.97  8.37  5.70
Si -11.18 -3.52  0.84
Si  7.11  2.38  9.06
Si  0.78 -4.81 -10.71
Si 10.20  1.25  5.77
Si  9.01  7.21  2.41
Si -9.06 -7.10 -2.54
Si -8.41  3.63  7.47
Si -0.98 -4.78 10.77
Si -5.96 -8.35 -5.88
Si -7.17 -2.39 -9.10
Si -10.27 -1.14 -5.78
Si -0.75  4.72 10.83
