500
set: 317.00  0.00  0.00
Si  0.04 -0.01 -0.04
Si -1.87  1.09  0.74
Si  1.90  1.07  0.85
Si -0.01 -2.23  0.73
Si  0.01  0.03 -2.35
Si -1.85  1.08  3.06
Si -1.93 -1.07 -3.02
Si  1.86  3.28  0.01
Si  3.77  0.05  0.05
Si -0.04 -2.21  3.06
Si  1.88 -3.29 -0.02
Si -1.91  3.27 -0.02
Si -0.04  2.17 -3.12
Si -1.93 -3.28  0.01
Si -3.80  0.05  0.05
Si  1.86  1.12  3.16
Si  1.94 -1.11 -3.12
Si -3.75 -2.17  0.76
Si -1.87 -3.26 -2.33
Si  3.78  0.02 -2.29
Si -1.89  3.27 -2.32
Si -3.79  0.02 -2.29
Si  1.92 -1.07  3.85
Si -1.89 -1.10  3.86
Si  1.89 -3.29 -2.32
Si  0.04  4.38  0.76
Si  3.83 -2.17  0.76
Si -0.01  2.20  3.89
Si  1.92  3.30 -2.33
Si  3.75  2.16 -3.08
Si -0.03  4.35  3.10
Si  3.75 -2.21  3.10
Si -3.82  2.16 -3.08
Si -0.04 -4.39 -3.08
Si -3.82 -2.21  3.10
Si -1.89 -1.11 -5.33
Si  0.01 -4.34  3.83
Si  3.78  4.33  0.73
Si -3.79  4.33  0.73
Si -3.78  2.22  3.83
Si  3.79  2.22  3.83
Si -5.67  1.07  0.85
Si  1.92 -5.47  0.74
Si  5.70  1.09  0.74
Si -0.01  2.14 -5.45
Si -1.89 -5.48  0.85
Si  1.92 -1.10 -5.44
Si  5.65 -1.07 -3.02
Si -0.01 -2.14 -6.14
Si  3.75  4.35  3.06
Si -0.01 -6.51  0.05
Si  5.64 -3.28  0.01
Si  1.86  5.49 -3.02
Si  5.66  3.27 -0.02
Si -5.64 -1.11 -3.12
Si -1.91 -1.10  6.16
Si -1.85  5.45 -3.12
Si -3.83  4.35  3.06
Si -1.93  1.10 -6.17
Si  1.86 -1.09  6.19
Si  3.75 -4.39 -3.12
Si  1.94 -5.48  3.06
Si  1.88  1.09 -6.21
Si -5.70 -3.29 -0.02
Si  5.72  1.08  3.06
Si -1.93 -5.44  3.16
Si -5.71  3.28  0.01
Si -0.01  6.61  0.05
Si -3.83 -4.39 -3.12
Si -0.01  2.23  6.23
Si -5.71  1.12  3.16
Si -5.66 -1.07  3.85
Si -0.01 -6.54 -2.29
Si  0.04  0.01  6.94
Si -3.75  2.20 -5.42
Si  1.89  5.46  3.86
Si -5.66  3.30 -2.33
Si  5.68  3.27 -2.32
Si  3.78 -4.36  3.89
Si  0.04 -4.36 -5.42
Si  5.68 -1.10  3.86
Si -5.68 -3.29 -2.32
Si -1.87  5.49  3.85
Si -0.01  6.57 -2.29
Si -3.79 -4.36  3.89
Si  5.70 -3.26 -2.33
Si  3.83  2.20 -5.42
Si -3.74  2.17  6.14
Si -7.53 -0.01 -0.04
Si -3.74  6.54 -0.04
Si  0.04 -4.38  6.14
Si  3.83  2.17  6.14
Si -3.74 -6.57 -0.04
Si  3.83  6.54 -0.04
Si -3.74 -2.20 -6.22
Si  0.04  4.36 -6.22
Si  3.83 -6.57 -0.04
Si  7.62 -0.01 -0.04
Si  3.83 -2.20 -6.22
Si  1.90  5.45 -5.33
Si  5.68 -1.11 -5.33
Si  3.78 -0.04  6.92
Si -3.79 -0.04  6.92
Si -1.87 -3.28  6.92
Si  1.92  3.27  6.92
Si -3.78 -6.53 -2.35
Si -5.66 -5.47  0.74
Si  3.79 -6.53 -2.35
Si -1.89  7.63  0.85
Si  1.92  7.64  0.74
Si -7.57  0.03 -2.35
Si  7.57 -2.23  0.73
Si -5.66 -1.10 -5.44
Si -1.87  5.46 -5.44
Si -7.58 -2.23  0.73
Si  7.58  0.03 -2.35
Si  5.68 -5.48  0.85
Si -3.78  6.59 -2.35
Si  3.79  6.59 -2.35
Si  3.78 -4.42 -5.45
Si -3.79 -4.42 -5.45
Si -1.89  3.26  7.04
Si  1.90 -3.30  7.04
Si  1.86 -7.62 -3.02
Si  7.53 -2.21  3.06
Si  7.53  2.17 -3.12
Si  5.64  1.10 -6.17
Si -5.64 -5.48  3.06
Si  5.66 -1.10  6.16
Si  1.88  5.46  6.16
Si  1.86 -5.46 -6.17
Si  1.94  7.63  3.06
Si  3.77  4.42 -6.14
Si  5.65 -5.44  3.16
Si -3.80  4.42 -6.14
Si  3.77 -4.32  6.23
Si -5.71  5.49 -3.02
Si -3.80 -4.32  6.23
Si -1.93  5.47  6.19
Si -1.85 -7.67 -3.12
Si -1.91 -5.47 -6.21
Si -5.70  1.09 -6.21
Si -5.71 -1.09  6.19
Si  5.72  5.45 -3.12
Si -7.61 -2.21  3.06
Si -7.61  2.17 -3.12
Si -1.93  7.68  3.16
Si -7.53  4.38  0.76
Si -0.01 -2.17 -8.47
Si -1.87 -7.63  3.85
Si  0.04 -8.73  0.76
Si -5.68  5.46  3.86
Si  1.89  1.08 -8.50
Si  1.89 -7.66  3.86
Si -1.87  1.11 -8.51
Si  7.56  2.20  3.89
Si -7.58  2.20  3.89
Si  5.70  5.49  3.85
Si  7.61  4.38  0.76
Si  7.54  4.35  3.10
Si -0.03  8.72 -3.08
Si  7.54 -4.39 -3.08
Si -0.04 -0.02 -9.26
Si -0.03 -0.02  9.28
Si -7.61  4.35  3.10
Si -0.04 -8.77  3.10
Si -7.61 -4.39 -3.08
Si -5.67  5.45 -5.33
Si -0.01  6.51  6.92
Si -5.66  3.27  6.92
Si -7.57 -4.34  3.83
Si  1.90 -7.67 -5.33
Si -9.44  1.09  0.74
Si -5.66  7.64  0.74
Si  7.58 -4.34  3.83
Si  5.70 -3.28  6.92
Si  5.68  7.63  0.85
Si -0.01 -6.60  6.92
Si  7.57  2.14 -5.45
Si  9.47  1.07  0.85
Si  0.01  8.77  3.83
Si -3.78 -2.16 -8.53
Si -7.58  2.14 -5.45
Si -1.87 -7.66 -5.44
Si  3.79 -2.16 -8.53
Si  5.70  5.46 -5.44
Si  3.78 -8.79  0.73
Si -3.79 -8.79  0.73
Si  0.01  4.40 -8.53
Si  5.68  3.26  7.04
Si -5.67 -3.30  7.04
Si  1.86 -3.25 -9.20
Si -9.42  1.08  3.06
Si -1.93  3.31 -9.20
Si  7.56 -2.14 -6.14
Si -5.64  7.63  3.06
Si  7.56 -6.51  0.05
Si  3.75 -0.02  9.25
Si -1.85 -3.29  9.24
Si  9.43  3.28  0.01
Si  1.94  3.26  9.24
Si -7.59 -2.14 -6.14
Si  3.75  8.72 -3.12
Si -5.71 -7.62 -3.02
Si -7.59 -6.51  0.05
Si  9.45 -3.29 -0.02
Si  1.88 -7.66  6.16
Si  1.86  7.65 -6.17
Si -3.83 -0.02  9.25
Si  1.88  9.83 -0.02
Si  5.65  5.47  6.19
Si  1.86 -9.83  0.01
Si -5.70  5.46  6.16
Si  9.43  1.12  3.16
Si  3.75 -8.76  3.06
Si -3.83  8.72 -3.12
Si -9.50 -1.07 -3.02
Si  5.66 -5.47 -6.21
Si -1.93  9.84  0.01
Si -1.91 -9.84 -0.02
Si  3.75 -0.02 -9.30
Si -5.71 -5.46 -6.17
Si -1.93 -7.65  6.19
Si -1.91  7.64 -6.21
Si -9.48  3.27 -0.02
Si  7.56  6.61  0.05
Si  5.65  7.68  3.16
Si -3.83 -8.76  3.06
Si  7.56  2.23  6.23
Si -1.85 -3.29 -9.31
Si -9.50 -3.28  0.01
Si  1.94  3.26 -9.31
Si -3.83 -0.02 -9.30
Si -7.59  6.61  0.05
Si  5.72 -7.67 -3.12
Si -7.59  2.23  6.23
Si  1.86 -3.25  9.35
Si  9.51 -1.11 -3.12
Si -1.93  3.31  9.35
Si -7.53  0.01  6.94
Si -3.75 -6.55  6.94
Si -7.53 -4.36 -5.42
Si -9.44 -3.26 -2.33
Si  7.56 -6.54 -2.29
Si  3.78  4.39 -8.47
Si -3.75  6.57  6.94
Si  1.92 -9.81 -2.33
Si -1.87  1.11 10.04
Si -3.79  4.39 -8.47
Si -7.58 -6.54 -2.29
Si  1.89  9.83 -2.32
Si  5.70 -7.63  3.85
Si -9.46  3.27 -2.32
Si -5.68  1.08 -8.50
Si  7.56  6.57 -2.29
Si  1.89  1.08 10.05
Si  3.83 -6.55  6.94
Si -9.46 -1.10  3.86
Si  1.92 -5.44 -8.51
Si  9.46 -3.29 -2.32
Si -1.89 -5.47 -8.50
Si -5.68 -7.66  3.86
Si -1.89 -9.85 -2.32
Si -7.58  6.57 -2.29
Si  9.49 -1.07  3.85
Si  3.83  6.57  6.94
Si  0.04  8.75 -5.42
Si -1.87  9.86 -2.33
Si  3.78  8.76  3.89
Si -0.01 -2.17 10.07
Si  7.61  0.01  6.94
Si  5.70  1.11 -8.51
Si -3.79  8.76  3.89
Si  9.49  3.30 -2.33
Si  7.61 -4.36 -5.42
Si -7.53 -4.38  6.14
Si  0.04  8.73  6.14
Si -7.53  4.36 -6.22
Si  7.62 -4.38  6.14
Si  0.04 -8.76 -6.22
Si  7.62  4.36 -6.22
Si -0.01 10.89  0.73
Si -9.46 -1.11 -5.33
Si -3.78 -2.16 10.02
Si  3.79 -2.16 10.02
Si -5.67 -7.67 -5.33
Si  3.78  8.70 -5.45
Si  0.01  4.40 10.02
Si -3.79  8.70 -5.45
Si -9.46 -5.48  0.85
Si  9.49 -5.47  0.74
Si  5.70 -7.66 -5.44
Si  9.49 -1.10 -5.44
Si  5.65  3.31 -9.20
Si  3.77 -8.70 -6.14
Si -3.80 -8.70 -6.14
Si -5.64  3.26  9.24
Si -5.71 -3.25 -9.20
Si -0.04  6.54  9.25
Si -9.42  5.45 -3.12
Si  9.43  5.49 -3.02
Si -0.04 10.91  3.06
Si  9.43 -1.09  6.19
Si 11.34  0.05  0.05
Si  5.65  9.84  0.01
Si  5.64 -7.65  6.19
Si -0.04 -6.58  9.25
Si  9.45  1.09 -6.21
Si  5.66 -9.84 -0.02
Si  5.72 -3.29  9.24
Si  5.66  7.64 -6.21
Si -5.70 -7.66  6.16
Si -5.64  3.26 -9.31
Si -5.70  9.83 -0.02
Si -9.48 -1.10  6.16
Si -0.04  6.54 -9.30
Si -5.71  7.65 -6.17
Si -5.71 -9.83  0.01
Si -11.37  0.05  0.05
Si -9.50  1.10 -6.17
Si -0.04 -10.95 -3.12
Si  9.51 -5.48  3.06
Si -0.04 -6.58 -9.30
Si -9.50 -5.44  3.16
Si  5.65  3.31  9.35
Si  5.72 -3.29 -9.31
Si  3.77  8.79  6.23
Si -3.80  8.79  6.23
Si -5.71 -3.25  9.35
Si -11.32 -2.17  0.76
Si -7.53 -8.73  0.76
Si -5.66 -9.81 -2.33
Si  7.56 -2.17 -8.47
Si -7.58 -2.17 -8.47
Si  1.92 -5.44 10.04
Si -5.66 -5.44 -8.51
Si 11.35  0.02 -2.29
Si -9.44  5.49  3.85
Si -5.68  9.83 -2.32
Si -0.01 -10.91  3.89
Si -1.89  7.64 -8.50
Si -3.75 10.94  0.76
Si  9.47  5.46  3.86
Si -5.68  1.08 10.05
Si -11.37  0.02 -2.29
Si -1.89 -5.47 10.05
Si  5.70  1.11 10.04
Si  5.68 -5.47 -8.50
Si  5.68 -9.85 -2.32
Si  0.04  0.01 -11.60
Si  7.61 -8.73  0.76
Si  3.83 10.94  0.76
Si  1.92  7.67 -8.51
Si  3.78  4.39 10.07
Si -3.79  4.39 10.07
Si  5.70  9.86 -2.33
Si 11.40 -2.17  0.76
Si  7.54  8.72 -3.08
Si 11.32  2.16 -3.08
Si  3.75  6.54 -9.26
Si  7.54 -0.02 -9.26
Si  3.75 10.91  3.10
Si 11.32 -2.21  3.10
Si  3.75  6.54  9.28
Si  7.54 -0.02  9.28
Si -3.82  6.54 -9.26
Si  3.75 -6.58 -9.26
Si -3.82 10.91  3.10
Si  7.54 -8.77  3.10
Si -7.61  8.72 -3.08
Si  3.75 -10.95 -3.08
Si -3.82  6.54  9.28
Si  3.75 -6.58  9.28
Si -7.61 -0.02 -9.26
Si -3.82 -6.58 -9.26
Si -11.39  2.16 -3.08
Si -3.82 -10.95 -3.08
Si -7.61 -0.02  9.28
Si -3.82 -6.58  9.28
Si -11.39 -2.21  3.10
Si -7.61 -8.77  3.10
Si -1.89  3.26 -11.51
Si  1.90 -3.30 -11.51
Si  7.57  6.51  6.92
Si -7.58  6.51  6.92
Si  9.47  5.45 -5.33
Si -3.78 -10.90  3.83
Si -9.44 -3.28  6.92
Si  3.79 -10.90  3.83
Si -1.87  9.83  6.92
Si 11.35  4.33  0.73
Si -11.36  4.33  0.73
Si -11.35  2.22  3.83
Si  1.92 -9.84  6.92
Si -9.46  7.63  0.85
Si -9.44  5.46 -5.44
Si  7.57 -6.60  6.92
Si  9.49  3.27  6.92
Si  0.01 -8.71 -8.53
Si -1.87 -12.03  0.74
Si 11.37  2.22  3.83
Si -7.58 -6.60  6.92
Si -7.56  8.77  3.83
Si  9.49  7.64  0.74
Si  7.58  8.77  3.83
Si  1.90 -12.04  0.85
Si -7.57  4.40 -8.53
Si -1.87 -3.28 -11.62
Si  1.90  9.82  7.04
Si  1.92  3.27 -11.62
Si  7.58  4.40 -8.53
Si  3.78 -0.04 -11.63
Si -9.46  3.26  7.04
Si -3.79 -0.04 -11.63
Si  9.47 -3.30  7.04
Si -0.01 -10.97 -5.45
Si -1.89 -9.86  7.04
Si  9.43 -7.62 -3.02
Si 11.32  4.35  3.06
Si -0.01  2.23 -12.32
Si  9.43 -5.46 -6.17
Si  9.45  5.46  6.16
Si  1.88  1.09 12.34
Si 11.32 -4.39 -3.12
Si -0.01 -10.88  6.23
Si  1.86 -1.09 -12.35
Si -9.42 -7.67 -3.12
Si  1.86 -12.00  3.16
Si  1.94 12.01 -3.12
Si -1.85 -12.04  3.06
Si -1.93 12.05 -3.02
Si  9.51  7.63  3.06
Si -1.93  1.10 12.38
Si -0.01 10.98 -6.14
Si -11.40  4.35  3.06
Si -1.91 -1.10 -12.39
Si -9.48 -5.47 -6.21
Si -9.50  5.47  6.19
Si -0.01 -2.14 12.41
Si -11.40 -4.39 -3.12
Si -9.50  7.68  3.16
Si -9.44 -7.63  3.85
Si  3.78 -8.73 -8.47
Si -11.32  2.20 -5.42
Si -5.66 -5.44 10.04
Si -3.79 -8.73 -8.47
Si -3.75 -10.92 -5.42
Si -7.53  8.75 -5.42
Si -1.89 12.01  3.86
Si -9.44  1.11 -8.51
Si -1.89  7.64 10.05
Si  5.68  7.64 -8.50
Si 11.35 -4.36  3.89
Si  9.47  1.08 -8.50
Si  5.68 -5.47 10.05
Si  9.46 -7.66  3.86
Si  3.83 -10.92 -5.42
Si  1.92  7.67 10.04
Si -11.37 -4.36  3.89
Si -5.66  7.67 -8.51
Si  7.56 -2.17 10.07
Si  1.92 12.04  3.85
Si -7.58 -2.17 10.07
Si  7.61  8.75 -5.42
Si 11.40  2.20 -5.42
Si -11.31  2.17  6.14
Si -7.53  8.73  6.14
Si -3.74 -2.20 12.33
Si -11.31  6.54 -0.04
Si  0.04  4.36 12.33
Si -11.31 -6.57 -0.04
Si  3.83 -2.20 12.33
Si -3.74 -10.94  6.14
Si -11.31 -2.20 -6.22
Si  0.04 13.10 -0.04
Si -3.74 10.91 -6.22
Si  7.62  8.73  6.14
Si -7.53 -8.76 -6.22
Si  3.83 -10.94  6.14
Si  0.04 -13.13 -0.04
Si 11.40  2.17  6.14
Si  3.83 10.91 -6.22
Si -3.74  2.17 -12.40
Si 11.40  6.54 -0.04
Si  0.04 -4.39 -12.40
Si 11.40 -6.57 -0.04
Si  3.83  2.17 -12.40
Si  7.62 -8.76 -6.22
Si 11.40 -2.20 -6.22
Si  5.68  3.26 -11.51
Si -5.67 -3.30 -11.51
Si -1.89 12.00 -5.33
Si -0.01  2.14 13.10
Si  0.01 -8.71 10.02
Si  7.57 10.89  0.73
Si -7.58 10.89  0.73
Si  1.92 -1.10 13.11
Si 11.35 -0.04  6.92
Si  0.01 -13.09 -2.35
Si -5.66 -9.84  6.92
