500
set: 1131.00  0.00  0.00
Si -0.05  0.08 -0.00
Si  0.02 -0.14  2.42
Si -0.02  0.06 -2.42
Si  1.29 -2.23 -0.02
Si  1.33  2.20 -0.01
Si  2.60  0.01 -0.03
Si -2.61 -0.04  0.01
Si -1.28 -2.28 -0.01
Si -1.30  2.29 -0.02
Si  1.25  2.27  2.37
Si -1.26  2.22  2.43
Si -2.53  0.06  2.46
Si -2.58 -0.02 -2.42
Si  1.27 -2.27 -2.41
Si  1.23  2.19 -2.50
Si -1.28 -2.23 -2.45
Si  2.62  0.01  2.40
Si  1.36 -2.25  2.41
Si -1.42 -2.20  2.46
Si  2.62 -0.03 -2.46
Si -1.27  2.31 -2.45
Si -3.88  2.15  0.04
Si -3.88 -2.25  0.02
Si  0.05  4.49  0.03
Si  0.01 -4.50 -0.02
Si  3.91  2.29  0.03
Si  3.92 -2.29  0.00
Si -0.01 -0.03  4.85
Si -0.01 -0.03 -4.88
Si  3.76  2.24 -2.44
Si  3.75  2.27  2.47
Si  0.02 -4.42  2.39
Si -3.83 -2.19 -2.43
Si -3.84  2.24 -2.40
Si  3.87 -2.29  2.40
Si  0.01 -4.48 -2.47
Si -3.94 -2.18  2.43
Si  0.03  4.50  2.46
Si  0.00  4.53 -2.41
Si  3.89 -2.30 -2.44
Si -2.58 -4.46  0.07
Si  5.16 -0.00 -0.00
Si -3.94  2.28  2.44
Si -2.63  4.46 -0.03
Si  2.57 -4.51 -0.03
Si  2.59  4.51  0.07
Si -5.21 -0.00 -0.00
Si  2.55 -0.03  4.84
Si -1.31  2.23  4.82
Si -1.21 -2.23  4.85
Si  1.32  2.23  4.83
Si -1.21 -2.23 -4.88
Si  2.55 -0.03 -4.89
Si -2.64 -0.03 -4.84
Si  1.33 -2.29 -4.85
Si  1.32  2.23 -4.90
Si -1.31  2.23 -4.91
Si  1.33 -2.29  4.88
Si -2.64 -0.03  4.89
Si -2.51  4.42  2.41
Si -5.12 -0.02 -2.41
Si  2.58  4.46 -2.37
Si -5.14  0.08  2.45
Si -2.67  4.44 -2.42
Si -2.60 -4.52 -2.37
Si  2.53 -4.54 -2.42
Si  2.56  4.50  2.50
Si -2.61 -4.48  2.50
Si  5.25 -0.02 -2.41
Si  5.23  0.08  2.45
Si  2.69 -4.55  2.41
Si  3.88 -2.23  4.85
Si -0.04  4.48 -4.85
Si -3.88 -2.24  4.86
Si -3.87  2.27  4.86
Si -3.88 -2.24 -4.87
Si -3.87  2.27 -4.87
Si  3.88 -2.23 -4.88
Si -0.04  4.48  4.88
Si  0.01 -4.52  4.86
Si  0.01 -4.52 -4.87
Si  3.94  2.29 -4.86
Si  3.94  2.29  4.87
Si -1.27 -6.68  0.03
Si -1.28  6.69  0.00
Si -5.12 -4.48  0.03
Si  6.49  2.15  0.04
Si -6.45 -2.29  0.00
Si  1.29  6.72  0.02
Si  5.18  4.48 -0.02
Si -5.19  4.48 -0.02
Si -6.46  2.29  0.03
Si  6.49 -2.25  0.02
Si  5.25 -4.48  0.03
Si  1.31 -6.82  0.04
Si -2.61 -4.46 -4.81
Si  5.15  0.02 -4.85
Si  2.56  4.52 -4.81
Si  5.15  0.02  4.87
Si -2.55  4.51  4.85
Si  2.64 -4.46  4.85
Si -2.55  4.51 -4.88
Si  2.64 -4.46 -4.88
Si -5.22  0.02 -4.85
Si -2.61 -4.46  4.92
Si -5.22  0.02  4.87
Si  2.56  4.52  4.92
Si  6.43 -2.18  2.43
Si -1.30  6.67 -2.44
Si -5.17 -4.44 -2.41
Si -1.32  6.69  2.40
Si  1.26 -6.69  2.44
Si  6.43  2.28  2.44
Si -5.14 -4.48  2.46
Si  5.20 -4.44 -2.41
Si  1.36 -6.74 -2.40
Si -1.42 -6.71  2.47
Si  5.18  4.50 -2.47
Si -6.50 -2.29  2.40
Si -6.48 -2.30 -2.44
Si -5.18  4.55  2.39
Si -5.19  4.50 -2.47
Si -0.02  0.06  7.30
Si -1.41 -6.74 -2.44
Si  5.23 -4.48  2.46
Si  5.19  4.55  2.39
Si  0.02 -0.14 -7.31
Si  6.53  2.24 -2.40
Si  6.54 -2.19 -2.43
Si  1.23  6.79  2.43
Si  1.34  6.79 -2.43
Si -6.61  2.24 -2.44
Si -6.62  2.27  2.47
Si  1.23  2.19  7.23
Si -2.53  0.06 -7.27
Si -1.28 -2.23  7.28
Si  2.62 -0.03  7.27
Si -1.42 -2.20 -7.27
Si -1.26  2.22 -7.30
Si -1.27  2.31  7.28
Si  3.90  6.69 -0.01
Si  3.90 -6.69 -0.02
Si -2.58 -0.02  7.31
Si  7.76 -0.04  0.01
Si  1.27 -2.27  7.32
Si -7.77  0.01 -0.03
Si  1.36 -2.25 -7.32
Si  2.62  0.01 -7.33
Si -3.84 -6.77 -0.01
Si -3.91  6.75 -0.02
Si  1.25  2.27 -7.36
Si -3.83  6.72  2.41
Si  3.93 -6.66 -2.45
Si -7.75  0.01  2.40
Si -3.93 -6.71  2.37
Si  3.76  6.78  2.46
Si -7.75 -0.03 -2.46
Si -3.92  6.71 -2.41
Si  7.79 -0.02 -2.42
Si  3.90  6.74 -2.45
Si  3.94 -6.75  2.43
Si  7.84  0.06  2.46
Si -3.94 -6.78 -2.50
Si -1.24 -6.69 -4.86
Si -1.24 -6.69  4.87
Si -6.43  2.29 -4.86
Si  5.18  4.45  4.86
Si -6.43  2.29  4.87
Si  1.33 -6.71  4.86
Si  5.16 -4.49 -4.85
Si -5.19  4.45  4.86
Si  5.18  4.45 -4.87
Si  1.33 -6.71 -4.87
Si -5.19  4.45 -4.87
Si  1.30  6.73  4.86
Si  5.16 -4.49  4.88
Si -6.49 -2.23  4.85
Si -1.31  6.74  4.85
Si  1.30  6.73 -4.87
Si  6.50 -2.24  4.86
Si -5.21 -4.49 -4.85
Si -6.49 -2.23 -4.88
Si -1.31  6.74 -4.88
Si  6.50 -2.24 -4.87
Si  6.50  2.27  4.86
Si  6.50  2.27 -4.87
Si -5.21 -4.49  4.88
Si  3.75  2.27 -7.26
Si  3.76  2.24  7.29
Si  0.01 -4.48  7.25
Si -3.83 -2.19  7.30
Si  0.03  4.50 -7.27
Si  0.02 -4.42 -7.33
Si -3.84  2.24  7.33
Si -3.94 -2.18 -7.30
Si  3.89 -2.30  7.29
Si -3.94  2.28 -7.29
Si  3.87 -2.29 -7.33
Si  0.00  4.53  7.32
Si  2.56  4.50 -7.23
Si -2.61 -4.48 -7.23
Si -2.51  4.42 -7.31
Si -5.14  0.08 -7.28
Si -5.12 -0.02  7.32
Si  7.74  4.46 -0.03
Si -2.67  4.44  7.31
Si  5.23  0.08 -7.28
Si  2.53 -4.54  7.31
Si -0.04  8.97 -0.00
Si -0.02 -8.97 -0.00
Si  7.79 -4.46  0.07
Si  2.58  4.46  7.36
Si -7.78  4.51  0.07
Si  5.25 -0.02  7.32
Si -7.80 -4.51 -0.03
Si -2.60 -4.52  7.36
Si  2.69 -4.55 -7.31
Si -3.87  6.69 -4.85
Si  7.73 -0.03 -4.84
Si -3.87  6.69  4.88
Si  7.73 -0.03  4.89
Si -3.86 -6.75  4.83
Si  3.88 -6.75  4.82
Si -3.86 -6.75 -4.90
Si  3.88 -6.75 -4.91
Si -7.83 -0.03  4.84
Si  3.96  6.75  4.85
Si  7.70  4.44 -2.42
Si  3.96  6.75 -4.88
Si  0.06 -8.89  2.45
Si -7.83 -0.03 -4.89
Si -7.68 -4.55  2.41
Si  0.05  8.95 -2.41
Si -7.79  4.46 -2.37
Si  2.56  8.94  0.01
Si  7.78 -4.52 -2.37
Si -9.04  2.20 -0.01
Si  7.76 -4.48  2.50
Si -6.47 -6.69 -0.02
Si -6.48  6.69 -0.01
Si  0.07 -9.00 -2.41
Si -2.57 -8.97 -0.03
Si  7.86  4.42  2.41
Si  6.46  6.75 -0.02
Si -2.59  8.98 -0.03
Si -7.81  4.50  2.50
Si -9.08 -2.23 -0.02
Si  9.07  2.29 -0.02
Si  9.09 -2.28 -0.01
Si  2.59 -9.01  0.01
Si -7.84 -4.54 -2.42
Si  0.03  9.06  2.45
Si  6.53 -6.77 -0.01
Si  8.96 -2.20  2.46
Si -6.44 -6.66 -2.45
Si -9.01 -2.25  2.41
Si  6.45 -6.71  2.37
Si  6.45  6.71 -2.41
Si  2.67 -8.91  2.46
Si -2.55 -8.96  2.40
Si -2.58  8.95 -2.46
Si  2.59  8.96 -2.42
Si -6.43 -6.75  2.43
Si -2.58  8.98  2.40
Si -6.48  6.74 -2.45
Si  6.43 -6.78 -2.50
Si  2.62 -8.99 -2.42
Si -2.56 -9.00 -2.46
Si  9.09 -2.23 -2.45
Si  6.54  6.72  2.41
Si -9.10 -2.27 -2.41
Si  9.11  2.22  2.43
Si -9.12  2.27  2.37
Si  9.10  2.31 -2.45
Si -9.14  2.19 -2.50
Si -0.05  0.08  9.72
Si -0.05  0.08 -9.73
Si  2.65  9.04  2.46
Si -6.61  6.78  2.46
Si -1.30  6.67  7.29
Si  6.43 -2.18 -7.30
Si -5.14 -4.48 -7.27
Si  1.26 -6.69 -7.29
Si  5.18  4.50  7.25
Si  6.43  2.28 -7.29
Si -1.42 -6.71 -7.26
Si -5.19  4.50  7.25
Si -5.17 -4.44  7.32
Si -1.32  6.69 -7.33
Si  5.23 -4.48 -7.27
Si  5.20 -4.44  7.32
Si -6.48 -2.30  7.29
Si -1.41 -6.74  7.29
Si  6.54 -2.19  7.30
Si  1.29 -2.23  9.71
Si  1.23  6.79 -7.30
Si  1.36 -6.74  7.33
Si  2.60  0.01  9.70
Si  1.33  2.20  9.72
Si -1.30  2.29  9.71
Si  1.34  6.79  7.30
Si -6.50 -2.29 -7.33
Si -2.61 -0.04 -9.72
Si -5.18  4.55 -7.33
Si -1.28 -2.28  9.72
Si  6.53  2.24  7.33
Si  5.19  4.55 -7.33
Si  1.33  2.21 -9.74
Si  1.29 -2.23 -9.75
Si -1.28 -2.28 -9.74
Si -6.62  2.27 -7.26
Si -2.61 -0.04  9.74
Si -6.61  2.24  7.29
Si  2.60  0.01 -9.75
Si -1.30  2.29 -9.75
Si -7.73 -4.46  4.85
Si  7.76 -4.46 -4.81
Si -7.73 -4.46 -4.88
Si -0.03 -8.96 -4.85
Si -0.03 -8.96  4.87
Si  7.76 -4.46  4.92
Si -0.05  8.99 -4.85
Si -7.81  4.52 -4.81
Si -0.05  8.99  4.87
Si  7.82  4.51  4.85
Si  7.82  4.51 -4.88
Si  5.15 -8.89 -0.00
Si -7.81  4.52  4.92
Si -5.22 -8.89 -0.00
Si 10.32  0.08 -0.00
Si  5.12  9.06 -0.00
Si -10.42  0.08 -0.00
Si -5.25  9.06 -0.00
Si  2.54  8.94 -4.84
Si -6.41  6.75  4.85
Si  9.06  2.23  4.82
Si  2.54  8.94  4.89
Si -9.05  2.23  4.83
Si -6.41  6.75 -4.88
Si -9.04 -2.29 -4.85
Si -2.65  8.95  4.84
Si  6.51  6.69 -4.85
Si -9.04 -2.29  4.88
Si -5.17  8.84  2.42
Si -6.49 -6.75  4.82
Si  6.51  6.69  4.88
Si -9.05  2.23 -4.90
Si -2.65  8.95 -4.89
Si  5.20  8.84  2.42
Si  9.06  2.23 -4.91
Si  2.56 -9.01 -4.84
Si  6.51 -6.75  4.83
Si -2.63 -9.00  4.84
Si  2.56 -9.01  4.89
Si -6.49 -6.75 -4.91
Si -2.63 -9.00 -4.89
Si  6.51 -6.75 -4.90
Si  5.17 -8.92 -2.42
Si  9.16 -2.23  4.85
Si -5.20 -8.92 -2.42
Si  9.16 -2.23 -4.88
Si  3.93 -6.66  7.28
Si  3.76  6.78 -7.27
Si -10.35 -0.14  2.42
Si -7.75 -0.03  7.27
Si 10.35  0.06 -2.42
Si -3.83  6.72 -7.32
Si  3.90  6.74  7.28
Si -3.88  2.15 -9.69
Si -7.75  0.01 -7.33
Si -3.94 -6.78  7.23
Si -10.39  0.06 -2.42
Si -3.92  6.71  7.32
Si 10.39 -0.14  2.42
Si  5.15  9.03 -2.42
Si  7.79 -0.02  7.31
Si  0.05  4.49 -9.70
Si  7.84  0.06 -7.27
Si  3.94 -6.75 -7.30
Si -3.88 -2.25 -9.71
Si  0.01 -4.50  9.71
Si  3.91  2.29 -9.70
Si -3.93 -6.71 -7.36
Si -5.22  9.03 -2.42
Si -3.88  2.15  9.76
Si -3.88 -2.25  9.75
Si  0.01 -4.50 -9.74
Si  3.92 -2.29 -9.73
Si  3.92 -2.29  9.73
Si -5.15 -9.11  2.42
Si  0.05  4.49  9.76
Si  3.91  2.29  9.76
Si  5.22 -9.11  2.42
Si -2.58 -4.46 -9.66
Si  2.59  4.51 -9.66
Si -2.63  4.46  9.70
Si  2.57 -4.51  9.70
Si  5.16 -0.00  9.73
Si  5.16 -0.00 -9.73
Si -5.21 -0.00  9.73
Si -5.21 -0.00 -9.73
Si -2.63  4.46 -9.76
Si  2.57 -4.51 -9.76
Si -2.58 -4.46  9.80
Si  2.59  4.51  9.80
Si  1.29 11.13  0.04
Si -10.32  4.49  0.03
Si  9.10  6.69  0.00
Si  9.10 -6.68  0.03
Si -10.36 -4.50 -0.02
Si -9.08  6.72  0.02
Si  1.31 -11.23  0.02
Si 10.38 -4.50 -0.02
Si -1.25 -11.26  0.00
Si -9.06 -6.82  0.04
Si -1.29 11.27  0.03
Si 10.42  4.49  0.03
Si  5.16  8.94  4.85
Si  5.16  8.94 -4.88
Si -5.21  8.94  4.85
Si 10.36 -0.03  4.85
Si -5.21  8.94 -4.88
Si 10.36 -0.03 -4.88
Si  8.95 -6.71  2.47
Si -10.38 -0.03  4.85
Si  5.18 -9.01  4.85
Si -5.19 -9.01  4.85
Si -10.38 -0.03 -4.88
Si  8.96 -6.74 -2.44
Si  5.18 -9.01 -4.88
Si -5.19 -9.01 -4.88
Si  1.25 -11.16  2.43
Si  0.06 -8.89 -7.28
Si  1.36 -11.16 -2.43
Si  9.05  6.69  2.40
Si -9.02 -6.74 -2.40
Si  7.70  4.44  7.31
Si -10.35 -4.42  2.39
Si  7.76 -4.48 -7.23
Si  9.07  6.67 -2.44
Si -10.34  4.50  2.46
Si -7.68 -4.55 -7.31
Si  1.33 11.21 -2.40
Si 10.39 -4.42  2.39
Si -7.81  4.50 -7.23
Si -9.03  6.79 -2.43
Si -10.37 -4.48 -2.47
Si -1.43 11.21 -2.44
Si  0.05  8.95  7.32
Si -9.11 -6.69  2.44
Si -10.37  4.53 -2.41
Si 10.38 -4.48 -2.47
Si 10.38  4.53 -2.41
Si  1.24 11.26  2.44
Si -1.30 -11.26  2.40
Si 10.40  4.50  2.46
Si  0.07 -9.00  7.32
Si -1.44 11.24  2.47
Si -1.28 -11.28 -2.44
Si -7.79  4.46  7.36
Si  7.86  4.42 -7.31
Si  0.03  9.06 -7.28
Si  7.78 -4.52  7.36
Si -9.14  6.79  2.43
Si -7.84 -4.54  7.31
Si  8.96 -2.20 -7.27
Si -6.44 -6.66  7.28
Si  2.67 -8.91 -7.27
Si -2.58  8.95  7.27
Si  6.43 -6.78  7.23
Si -9.01 -2.25 -7.32
Si -3.86 11.18 -0.01
Si  6.45  6.71  7.32
Si -6.43 -6.75 -7.30
Si  2.59  8.96  7.31
Si -5.12 -4.48 -9.70
Si -1.27 -6.68 -9.70
Si -6.48  6.74  7.28
Si -2.56 -9.00  7.27
Si -3.89 -11.20 -0.02
Si -2.55 -8.96 -7.33
Si -9.14  2.19  7.23
Si  9.09 -2.23  7.28
Si  6.49  2.15 -9.69
Si  6.45 -6.71 -7.36
Si -7.81  8.94  0.01
Si 11.66 -2.23 -0.02
Si -1.28  6.69 -9.73
Si -11.65 -2.28 -0.01
Si -2.58  8.98 -7.33
Si -1.28  6.69  9.73
Si  2.62 -8.99  7.31
Si  9.10  2.31  7.28
Si  1.29  6.72 -9.71
Si -6.46  2.29 -9.70
Si  7.78  8.98 -0.03
Si  7.80 -8.97 -0.03
Si  5.18  4.48  9.71
Si  9.11  2.22 -7.30
Si -5.19  4.48  9.71
