500
set: 118.00  0.00  0.00
Si -0.03  0.00  0.04
Si -0.02 -2.20  0.73
Si -0.02 -0.02 -2.34
Si  1.91  1.10  0.80
Si -1.89  1.15  0.88
Si -3.74 -0.00 -0.00
Si  1.92 -1.10 -3.08
Si  3.81 -0.03 -0.01
Si -0.06 -2.25  3.07
Si  1.81  1.09  3.17
Si -0.03  2.26 -3.07
Si -1.93 -1.14 -3.11
Si  1.88 -3.34 -0.01
Si  1.92  3.32  0.02
Si -1.88  3.36  0.08
Si -1.92  1.05  3.21
Si -1.98 -3.38 -0.03
Si  3.82  0.06 -2.31
Si  3.82 -2.18  0.74
Si -1.94  3.32 -2.28
Si -3.80 -0.02 -2.36
Si  1.88 -1.15  3.90
Si -3.80 -2.25  0.76
Si -0.04  2.27  3.91
Si -1.93 -3.36 -2.33
Si  1.99  3.35 -2.31
Si  0.02  4.46  0.81
Si  1.98 -3.35 -2.35
Si -1.93 -1.20  3.96
Si  0.04 -4.38 -3.14
Si -3.80 -2.30  3.08
Si -3.82  2.24 -3.11
Si  3.89 -2.16  3.10
Si  3.84  2.27 -3.12
Si  0.02  4.51  3.16
Si  1.89 -1.07 -5.41
Si  3.79  2.10  3.89
Si -0.09  2.17 -5.43
Si -5.69  1.14  0.78
Si  3.86  4.35  0.80
Si -3.84  2.13  3.93
Si  1.88 -5.54  0.79
Si  5.74  1.09  0.83
Si -1.95 -1.15 -5.48
Si  0.00 -4.48  3.92
Si -1.94 -5.61  0.66
Si -3.86  4.49  0.91
Si  1.85  1.13 -6.22
Si -1.95  1.05 -6.21
Si  5.72 -1.03 -3.13
Si -5.69 -1.12 -3.15
Si -1.92  5.51 -3.10
Si  5.74 -3.26 -0.08
Si -0.00 -2.23 -6.23
Si -5.73  1.10  3.11
Si -5.70 -3.36 -0.07
Si  1.92 -1.05  6.25
Si  5.76  3.27  0.01
Si -0.13  2.25  6.24
Si -5.72  3.37  0.03
Si  3.88  4.38  3.14
Si  1.93  5.52 -3.18
Si  1.98 -5.52  3.16
Si -0.02 -6.67 -0.07
Si  0.01  6.67 -0.10
Si -3.79  4.43  3.26
Si -1.95 -5.63  3.03
Si  3.88 -4.46 -3.13
Si  5.78  1.12  3.17
Si -3.88 -4.46 -3.16
Si -2.01 -1.15  6.30
Si -5.72 -1.14  3.83
Si -0.05  0.03  6.99
Si  0.03 -6.58 -2.39
Si -3.86  2.17 -5.43
Si -5.71 -3.30 -2.37
Si -5.71  3.40 -2.27
Si  5.73 -3.25 -2.44
Si  3.82  2.25 -5.46
Si  3.88 -4.38  3.91
Si -3.79 -4.49  3.87
Si  5.78 -1.14  3.88
Si  1.98  5.54  3.91
Si -0.03 -4.44 -5.50
Si -1.89  5.58  3.94
Si  5.80  3.36 -2.33
Si  0.02  6.70 -2.43
Si  3.82 -6.56  0.06
Si  3.72 -2.25 -6.24
Si -7.60  0.01  0.04
Si  0.01  4.37 -6.22
Si  3.82  6.59 -0.03
Si  3.75  2.25  6.24
Si -3.92 -2.17 -6.28
Si -3.85 -6.69 -0.03
Si  0.01 -4.48  6.29
Si -3.94  2.18  6.28
Si  7.73  0.01  0.04
Si -3.84  6.71  0.06
Si -7.59  0.05 -2.35
Si -7.62 -2.19  0.74
Si  1.86 -3.26  7.03
Si  5.68 -1.12 -5.47
Si  3.82 -6.61 -2.30
Si -1.97  5.45 -5.48
Si -5.72 -5.54  0.72
Si  3.85  0.01  7.01
Si  1.82  3.30  7.05
Si -3.87 -0.04  7.00
Si  3.83  6.62 -2.36
Si  5.80 -5.47  0.77
Si  1.95  7.74  0.72
Si -3.83 -4.42 -5.50
Si -1.97  3.31  7.04
Si -3.84  6.66 -2.30
Si -3.84 -6.66 -2.36
Si  3.79 -4.47 -5.51
Si  1.86  5.59 -5.48
Si -1.96 -3.40  7.03
Si  7.71 -2.19  0.74
Si -1.86  7.81  0.77
Si -5.85 -1.12 -5.46
Si  7.74  0.05 -2.35
Si -7.58 -2.24  3.09
Si  3.80 -4.36  6.23
Si -7.60  2.24 -3.07
Si  5.70 -1.13  6.22
Si  1.94  7.71  3.06
Si -5.81 -1.07  6.15
Si  1.92 -7.71 -3.14
Si -3.87  4.33 -6.26
Si -1.94 -7.71 -3.13
Si  1.90  5.52  6.25
Si -1.87  7.76  3.08
Si -5.73 -5.57  3.06
Si  5.80  1.12 -6.20
Si  5.79 -5.52  3.08
Si  5.73  5.56 -3.13
Si -5.77  1.09 -6.27
Si -5.74  5.57 -3.14
Si  3.79  4.48 -6.29
Si  1.85 -5.50 -6.36
Si -1.86  5.55  6.31
Si  7.73  2.24 -3.07
Si -1.97 -5.55 -6.29
Si -3.87 -4.51  6.25
Si  7.75 -2.24  3.09
Si -1.91  1.04 -8.55
Si -7.59  2.27  3.93
Si  0.07 -2.16 -8.58
Si -0.04 -8.81  0.79
Si  1.91 -7.70  3.94
Si  1.91  1.15 -8.57
Si  7.63  4.46  0.79
Si  5.76  5.47  3.96
Si -5.75  5.57  3.94
Si -7.70  4.46  0.79
Si -1.91 -7.80  3.96
Si  7.74  2.27  3.93
Si -0.02  0.05  9.35
Si  7.64 -4.37 -3.17
Si  0.02 -8.83  3.12
Si -7.64  4.44  3.12
Si  0.02  0.01 -9.39
Si -7.69 -4.37 -3.17
Si  7.69  4.44  3.12
Si -0.02  8.90 -3.17
Si  5.73  7.67  0.66
Si  3.80 -8.79  0.91
Si -5.69 -3.28  7.02
Si -7.64  2.21 -5.43
Si  0.06  8.81  3.89
Si  5.70 -3.35  7.01
Si  5.72  3.28  7.03
Si -7.61 -4.46  3.89
Si  0.00  4.37 -8.60
Si  5.70  5.50 -5.50
Si  1.97 -7.70 -5.49
Si  3.82 -2.29 -8.58
Si -5.70  5.57 -5.49
Si  7.69  2.21 -5.43
Si -9.59  1.09  0.83
Si -5.78  7.74  0.79
Si  0.03  6.64  7.08
Si -1.97 -7.77 -5.50
Si  7.72 -4.46  3.89
Si -3.81 -8.92  0.80
Si -3.88 -2.32 -8.62
Si  9.64  1.14  0.78
Si -0.09 -6.68  7.09
Si -5.77  3.36  7.11
Si  5.72  7.64  3.03
Si  3.86 -0.00 -9.26
Si  7.53 -2.17 -6.27
Si  5.65 -5.58 -6.21
Si -1.89 -3.31 -9.34
Si -3.78  8.82 -3.13
Si  1.94 -9.90  0.03
Si  3.79 -0.03  9.36
Si  1.93 -3.33  9.33
Si -2.02  7.70 -6.21
Si  3.79  8.82 -3.16
Si -3.79 -0.05 -9.37
Si  1.97  9.91 -0.07
Si -7.66 -6.60 -0.10
Si  7.65  6.61 -0.07
Si -5.75 -5.48 -6.26
Si -9.57  3.27  0.01
Si -3.78 -0.03  9.38
Si -5.68  7.75  3.16
Si  1.98  3.32 -9.35
Si  5.72  5.48  6.30
Si  7.67 -6.60 -0.10
Si -9.55  1.12  3.17
Si -9.59 -3.26 -0.08
Si  1.85 -7.72  6.29
Si  1.98  3.31  9.36
Si -7.68  6.61 -0.07
Si  5.74 -7.77 -3.10
Si  9.60  1.10  3.11
Si -7.66  2.20  6.29
Si  1.93 -3.32 -9.40
Si  7.67  2.20  6.29
Si -5.74 -7.76 -3.18
Si -9.61 -1.03 -3.13
Si -1.94  3.40  9.38
Si -3.79 -8.90  3.14
Si -1.92 -3.34  9.42
Si -1.91 -10.00  0.01
Si  1.92  7.80 -6.26
Si  9.61  3.37  0.03
Si  3.87 -8.85  3.26
Si  9.63 -3.36 -0.07
Si -1.92 10.02 -0.08
Si -1.95  3.22 -9.48
Si  9.64 -1.12 -3.15
Si -5.81  5.55  6.29
Si -1.94 -7.80  6.30
Si -7.80 -2.17 -6.27
Si  0.03 -2.15 10.09
Si -1.93  1.18 10.07
Si  1.95 -9.87 -2.27
Si  3.88  8.78  3.87
Si -1.87 -9.91 -2.33
Si -5.69 -7.73  3.91
Si  7.64 -0.01  7.01
Si -9.53  3.36 -2.33
Si -9.55 -1.14  3.88
Si -7.64 -6.58 -2.43
Si -5.70  1.12 -8.60
Si  7.61 -4.39 -5.52
Si  3.82 -6.60  7.05
Si  5.77 -7.69  3.94
Si  1.96  1.12 10.14
Si  5.77  1.16 -8.57
Si -3.79  4.36 -8.64
Si  3.81  6.59  7.08
Si  7.68 -6.58 -2.43
Si  9.61 -1.14  3.83
Si -7.69 -0.01  7.01
Si -9.60 -3.25 -2.44
Si -7.63  6.69 -2.39
Si -3.78  8.90  3.91
Si  1.96  9.97 -2.37
Si -1.89 -5.57 -8.63
Si  9.62 -3.30 -2.37
Si -3.84  6.68  7.05
Si  3.88  4.47 -8.61
Si -0.05  8.88 -5.52
Si  9.62  3.40 -2.27
Si -7.72 -4.39 -5.52
Si -3.86 -6.68  7.08
Si  7.70  6.69 -2.39
Si  1.94 -5.57 -8.68
Si -1.93 10.03 -2.44
Si  0.02  8.80  6.26
Si -7.66  4.37 -6.25
Si  7.67  4.37 -6.25
Si -7.65 -4.47  6.26
Si  7.68 -4.47  6.26
Si  0.01 -8.90 -6.25
Si  9.48 -1.12 -5.46
Si -9.53 -5.47  0.77
Si  3.83 -2.23 10.15
Si -5.81 -7.68 -5.48
Si -3.87  8.81 -5.51
Si  0.08  4.48 10.16
Si  0.05 11.08  0.74
Si  3.84  8.86 -5.50
Si  9.61 -5.54  0.72
Si  5.70 -7.82 -5.48
Si -3.84 -2.19 10.21
Si -9.64 -1.12 -5.47
Si  9.52 -1.07  6.15
Si  3.80  8.76  6.25
Si  5.69  9.89 -0.03
Si -9.53  1.12 -6.20
Si -9.54 -5.52  3.08
Si  5.74 -3.38 -9.30
Si  0.06 -11.03 -3.07
Si  0.09 11.04  3.09
Si -5.74 -3.28  9.37
Si  5.73 -3.28  9.38
Si  5.70  7.72 -6.29
Si  5.78 -9.92  0.08
Si -3.88 -8.79 -6.29
Si  9.56  1.09 -6.27
Si -5.78  9.93 -0.01
Si -5.75 -9.95  0.02
Si  5.74  3.29  9.40
Si -5.77 -7.76  6.25
Si  9.60 -5.57  3.06
Si -0.03 -6.58  9.44
Si -0.06  6.60 -9.44
Si -9.63 -1.13  6.22
Si -11.52 -0.03 -0.01
Si -5.86 -3.34 -9.34
Si  9.59  5.57 -3.14
Si -5.73  3.28 -9.45
Si -9.60  5.56 -3.13
Si -3.87  8.91  6.23
Si -5.74  3.33  9.44
Si  5.80 -7.73  6.31
Si  0.08 -6.66 -9.43
Si  3.79 -8.94 -6.26
Si  0.07  6.67  9.44
Si  5.79  3.33 -9.44
Si 11.59 -0.00 -0.00
Si -5.81  7.78 -6.36
Si -1.93  7.65 -8.56
Si -5.68 -9.92 -2.31
Si -5.68  9.92 -2.35
Si -5.68  1.08 10.16
Si  0.07 -11.01  3.93
Si  5.74  9.92 -2.33
Si  7.62 -2.16 -8.60
Si -7.65 -8.81  0.81
Si  1.88  7.70 -8.61
Si  5.72 -9.96 -2.28
Si  3.87 11.03  0.76
Si -9.57  5.47  3.96
Si  7.68 -8.81  0.81
Si  3.87  4.41 10.15
Si -0.04  0.03 -11.73
Si  5.74  1.07 10.18
Si  5.73 -5.63 -8.56
Si -11.51 -2.18  0.74
Si -11.51  0.06 -2.31
Si -7.71 -2.16 -8.60
Si  1.99 -5.50 10.20
Si -3.84 11.09  0.74
Si 11.53 -0.02 -2.36
Si  9.58  5.57  3.94
Si 11.53 -2.25  0.76
Si -5.79 -5.57 -8.61
Si -3.84  4.48 10.21
Si -1.94 -5.53 10.24
Si  3.87 10.97  3.08
Si -11.44 -2.16  3.10
Si -7.65 -8.77  3.16
Si -3.83 -11.01 -3.12
Si -7.62  0.05  9.37
Si  7.68 -8.77  3.16
Si -7.65  0.08 -9.35
Si  3.84 -11.03 -3.11
Si -3.78 -6.59 -9.41
Si  3.84 -6.58  9.39
Si -3.80  6.55 -9.43
Si  7.68  0.08 -9.35
Si -3.82 -6.60  9.40
Si -11.49  2.27 -3.12
Si -7.62  8.90 -3.14
Si 11.51  2.24 -3.11
Si  7.71  0.05  9.37
Si -3.77 11.12  3.10
Si -3.82  6.69  9.39
Si 11.53 -2.30  3.08
Si  3.85  6.67  9.40
Si  3.89  6.69 -9.41
Si  7.71  8.90 -3.14
Si  3.80  0.06 -11.60
Si  3.86 -6.73 -9.43
Si -11.47  4.35  0.80
Si  7.58  6.59  7.09
Si -1.93 -3.33 -11.69
Si -7.66  8.80  3.92
Si -9.60  7.67  0.66
Si -7.61  4.39 -8.62
Si -1.96  9.93  7.01
Si  7.67  8.80  3.92
Si  9.55  7.74  0.79
Si -3.81 -0.07 -11.71
Si  1.97 -12.14  0.78
Si  0.02 -11.06 -5.43
Si 11.49  2.13  3.93
Si  1.88  3.31 -11.73
Si  1.97 -3.29 -11.73
Si  1.89 -9.92  7.11
Si -7.64 -6.63  7.08
Si 11.47  4.49  0.91
Si -9.61  3.28  7.03
Si -11.54  2.10  3.89
Si -1.93 -12.18  0.83
Si  9.64 -3.28  7.02
Si -9.63 -3.35  7.01
Si  7.72  4.39 -8.62
Si -1.95 -9.99  7.03
Si  1.98 10.00  7.02
Si  9.56  3.36  7.11
Si -9.63  5.50 -5.50
Si  0.05 -8.89 -8.62
Si  7.69 -6.63  7.08
Si -7.75  6.59  7.09
Si  9.63  5.57 -5.49
Si  3.82 -11.14  3.93
Si -1.94  3.24 -11.86
Si -3.88 -11.17  3.89
Si  0.01 -2.18 12.41
Si -1.92  1.17 12.43
Si  1.97  1.07 12.44
Si -9.61  7.64  3.03
Si -11.45  4.38  3.14
Si  1.94 -1.06 -12.49
Si -11.45 -4.46 -3.13
Si 11.45 -4.46 -3.16
Si  9.58 -5.48 -6.26
Si  9.52  5.55  6.29
Si -1.89 -12.15  3.17
Si -1.91 -1.15 -12.51
Si  1.93 -12.17  3.11
Si  1.98 12.16 -3.15
Si -9.59 -7.77 -3.10
Si -9.61  5.48  6.30
Si -0.00 -11.07  6.29
Si  9.59 -7.76 -3.18
Si -0.13 11.10 -6.27
Si  9.64  7.75  3.16
Si -0.02  2.18 -12.59
Si 11.54  4.43  3.26
Si -9.68 -5.58 -6.21
Si -1.94 12.25 -3.13
Si -7.62 -2.15 10.12
Si -11.45 -4.38  3.91
Si 11.47  2.17 -5.43
Si  1.95 12.14  3.83
Si -1.88 12.13  3.88
Si -3.79 -8.80 -8.61
Si -9.56 -7.69  3.94
Si -9.56  1.16 -8.57
Si -3.85 -11.03 -5.46
Si  7.70 -2.15 10.12
Si  7.64  8.83 -5.50
Si -5.71 -5.45 10.24
Si  3.80 -11.11 -5.43
Si  5.78  7.71 -8.63
Si -11.51  2.25 -5.46
Si -7.69  8.83 -5.50
Si  5.80 -5.49 10.18
Si -5.72  7.71 -8.68
Si -1.86  7.79 10.18
Si  9.64 -7.73  3.91
Si  9.63  1.12 -8.60
Si 11.54 -4.49  3.87
Si  3.87 -8.92 -8.64
Si  1.96  7.83 10.24
Si 11.39  2.18  6.28
Si 11.41 -2.17 -6.28
Si  3.82  2.29 -12.45
Si  0.06 -4.42 -12.47
Si -11.51 -6.56  0.06
Si -7.65  8.80  6.29
Si  3.82 -2.26 12.48
Si -3.92 -11.02  6.24
Si  7.68  8.80  6.29
Si -11.51  6.59 -0.03
Si  0.06 -13.26  0.04
Si -3.94 11.03 -6.24
Si  3.72 -11.09  6.28
Si  0.07 13.28  0.04
Si 11.48 -6.69 -0.03
Si  3.75 11.10 -6.28
Si -3.85  2.16 -12.54
Si -7.66 -8.90 -6.22
Si  7.67 -8.90 -6.22
Si 11.49  6.71  0.06
Si  0.07  4.44 12.56
Si -3.83 -2.13 12.58
Si -11.58  2.25  6.24
Si -11.61 -2.25 -6.24
Si  5.77 -3.27 -11.63
Si  5.71  9.88  7.03
Si  9.52 -7.68 -5.48
Si  1.95 -1.11 13.23
Si 11.46 -0.04  7.00
Si  0.07 -13.22 -2.35
Si  0.05  2.23 13.25
Si  1.82 12.15 -5.46
Si -1.86 -1.04 13.29
Si  5.77 -12.12  0.88
Si -11.48  0.01  7.01
