500
set: 190.00  0.00  0.00
Si  0.01  0.02 -0.01
Si -1.90  1.06  0.77
Si  1.91  1.07  0.75
Si -0.02  0.00 -2.33
Si -0.03 -2.20  0.78
Si  1.84  1.08  3.08
Si -3.75  0.01  0.00
Si -1.85  1.06  3.10
Si -1.86 -1.12 -3.07
Si  1.86 -1.09 -3.08
Si -1.92 -3.25  0.00
Si -1.93  3.25  0.01
Si  0.02  2.17 -3.10
Si  1.89  3.29  0.00
Si -0.05 -2.18  3.11
Si  3.81 -0.00 -0.02
Si  1.91 -3.31 -0.01
Si  3.76 -2.19  0.79
Si  0.04  4.36  0.76
Si  1.91 -1.08  3.84
Si  0.02  2.17  3.86
Si  1.91  3.26 -2.33
Si -1.91 -3.29 -2.30
Si  1.89 -3.28 -2.32
Si  3.77  0.00 -2.35
Si -1.90  3.29 -2.33
Si -1.85 -1.07  3.90
Si -3.80 -0.03 -2.35
Si -3.86 -2.17  0.80
Si -3.75 -2.16  3.06
Si  0.01  4.35  3.10
Si -3.77  2.21 -3.08
Si  3.79  2.20 -3.07
Si -0.02 -4.39 -3.08
Si  3.83 -2.15  3.10
Si  1.88 -5.43  0.80
Si -5.66  1.08  0.73
Si -0.06  2.21 -5.37
Si -3.76  2.19  3.86
Si -1.88 -5.46  0.78
Si  3.79  2.20  3.85
Si -0.06 -4.35  3.90
Si  3.80  4.37  0.78
Si -1.89 -1.07 -5.43
Si  1.92 -1.09 -5.42
Si  5.70  1.08  0.73
Si -3.80  4.40  0.80
Si  1.86 -1.11  6.16
Si -1.90 -5.43  3.09
Si  0.00  2.14  6.18
Si -0.00  6.54  0.03
Si  1.87 -5.46  3.08
Si  1.86  5.44 -3.12
Si  5.67  1.11  3.07
Si  5.66  3.29 -0.02
Si -0.02 -6.55 -0.02
Si -1.88  5.47 -3.08
Si -5.68  1.11  3.07
Si  3.80 -4.37 -3.08
Si  1.87  1.10 -6.19
Si -1.88 -1.09  6.19
Si  5.68 -3.30  0.03
Si -5.68 -1.14 -3.10
Si -1.90  1.12 -6.18
Si -5.68 -3.30  0.03
Si  5.68 -1.14 -3.10
Si  3.78  4.40  3.09
Si -0.01 -2.16 -6.21
Si -3.81  4.38  3.08
Si -5.70  3.29 -0.02
Si -3.82 -4.39 -3.12
Si -5.63 -1.08  3.88
Si  3.78 -4.34  3.85
Si  0.05 -4.36 -5.39
Si -5.64 -3.29 -2.31
Si  0.01 -6.54 -2.33
Si  0.03  6.54 -2.31
Si -3.83  2.18 -5.37
Si -5.66  3.30 -2.33
Si  1.84  5.46  3.90
Si  0.03 -0.01  6.96
Si  3.78  2.21 -5.42
Si -1.90  5.49  3.85
Si  5.69  3.30 -2.33
Si  5.71 -3.29 -2.31
Si  5.73 -1.08  3.88
Si -3.83 -4.38  3.90
Si -3.77  6.53 -0.01
Si -7.54 -0.00 -0.02
Si -0.05  4.37 -6.16
Si -3.79 -6.55  0.00
Si  0.02 -4.39  6.17
Si  3.75 -6.59  0.01
Si  3.76  6.59  0.00
Si -3.81  2.19  6.19
Si  3.82  2.16  6.20
Si  3.83 -2.21 -6.18
Si  7.60  0.01  0.00
Si -3.83 -2.20 -6.20
Si  7.50 -2.17  0.80
Si  1.88  3.25  6.92
Si -1.91  3.28  6.92
Si -1.85  5.49 -5.37
Si  3.83 -4.35 -5.37
Si  3.77  6.55 -2.30
Si -5.64 -5.48  0.76
Si -1.90 -3.27  6.94
Si -5.66 -1.11 -5.42
Si  7.56 -0.03 -2.35
Si -3.79 -0.00  6.95
Si  3.78 -6.55 -2.33
Si -3.79  6.55 -2.32
Si -3.77 -4.36 -5.43
Si -1.92  7.65  0.79
Si  1.91 -3.29  6.95
Si  1.82  7.67  0.80
Si -3.77 -6.57 -2.33
Si  3.77 -0.01  6.97
Si  5.70 -1.11 -5.42
Si -7.59  0.00 -2.35
Si  1.91  5.47 -5.43
Si -7.60 -2.19  0.79
Si  5.72 -5.48  0.76
Si -1.85 -5.42 -6.17
Si -7.53 -2.15  3.10
Si  5.66  5.45 -3.08
Si -1.89 -7.63 -3.07
Si  1.91 -7.62 -3.08
Si -3.77 -4.34  6.19
Si -5.66  1.08 -6.17
Si -7.56  2.20 -3.07
Si  5.66 -1.11  6.20
Si -5.70  5.45 -3.08
Si  5.69  1.08 -6.17
Si -5.66 -5.48  3.10
Si  1.93 -5.44 -6.21
Si  3.79 -4.36  6.21
Si  7.61 -2.16  3.06
Si -3.75  4.40 -6.21
Si  7.59  2.21 -3.08
Si  1.93  7.68  3.06
Si  5.69 -5.48  3.10
Si -5.70 -1.11  6.20
Si -1.89  5.48  6.21
Si  1.91  5.49  6.19
Si  3.83  4.41 -6.17
Si -1.85  7.69  3.10
Si -1.89 -7.63  3.85
Si  1.88  1.12 -8.48
Si -1.88  1.09 -8.49
Si  5.62  5.49  3.90
Si -7.56  4.37  0.78
Si -7.57  2.20  3.85
Si  1.92 -7.65  3.86
Si  7.56  4.40  0.80
Si  0.02 -8.75  0.73
Si  7.60  2.19  3.86
Si  0.02 -2.20 -8.54
Si -5.74  5.49  3.90
Si  0.00  8.70 -3.10
Si -0.01 -8.72  3.07
Si -7.56 -4.37 -3.08
Si  7.55  4.38  3.08
Si  7.54 -4.39 -3.12
Si -0.02  0.01 -9.29
Si -7.58  4.40  3.09
Si -0.00 -0.02  9.30
Si  7.52  2.18 -5.37
Si -5.63  5.48 -5.39
Si  5.65  7.63  0.78
Si  1.84 -7.66 -5.37
Si -5.66 -3.26  6.94
Si -9.45  1.07  0.75
Si  7.52 -4.38  3.90
Si  5.66  3.28  6.95
Si -0.03  4.36 -8.49
Si -1.90 -7.62 -5.42
Si -7.58 -4.34  3.85
Si  9.46  1.06  0.77
Si -0.02 -6.56  6.95
Si  5.69 -3.26  6.94
Si  0.01  6.58  6.94
Si -5.70  3.28  6.95
Si -5.71  7.63  0.78
Si  3.78 -2.22 -8.51
Si -3.77 -8.77  0.75
Si -7.58  2.21 -5.42
Si -3.77 -2.21 -8.52
Si  0.05  8.76  3.88
Si  5.73  5.48 -5.39
Si  3.78 -8.78  0.77
Si  9.43  3.25  0.01
Si  5.63 -5.46 -6.16
Si  9.44 -3.25  0.00
Si -1.85  7.62 -6.18
Si -7.53 -2.21 -6.18
Si -5.66  5.45  6.17
Si  7.52 -2.20 -6.20
Si -1.87  3.28  9.26
Si -7.54  2.16  6.20
Si  5.63  7.65  3.11
Si  3.75 -0.03 -9.27
Si  3.82  8.72 -3.07
Si -3.77 -0.03  9.27
Si  7.54  2.19  6.19
Si  1.84  7.64 -6.20
Si  3.76  0.03  9.28
Si  7.58  6.53 -0.01
Si -1.87  9.84 -0.02
Si  7.57 -6.55  0.00
Si -1.87 -9.84 -0.02
Si -9.45 -3.31 -0.01
Si  1.92 -9.83  0.00
Si  1.86 -7.64  6.19
Si  1.89 -3.27  9.27
Si  5.70  5.45  6.17
Si -3.79  0.01 -9.27
Si  1.92 -3.27 -9.27
Si  1.91  3.25 -9.28
Si -5.66 -7.67 -3.10
Si -9.46  3.29  0.00
Si -5.72 -5.46 -6.16
Si  1.92  3.29  9.28
Si -3.81  8.75 -3.08
Si -1.87 -3.28 -9.29
Si -1.92  3.31 -9.27
Si  1.92  9.85  0.00
Si -1.93 -3.31  9.28
Si -9.49 -1.09 -3.08
Si -1.86 -7.67  6.20
Si  5.70 -7.67 -3.10
Si -3.83 -8.76  3.08
Si  9.50 -1.12 -3.07
Si -5.72  7.65  3.11
Si  9.51  1.06  3.10
Si -9.51  1.08  3.08
Si -7.59  6.59  0.00
Si  3.83 -8.77  3.10
Si -7.61 -6.59  0.01
Si -7.53 -4.35 -5.37
Si  1.82 -5.45 -8.47
Si  3.77 -6.55  6.92
Si  3.76  4.37 -8.49
Si -9.45 -1.08  3.84
Si -3.77  6.54  6.95
Si  1.88  9.81 -2.35
Si -9.45  3.26 -2.33
Si -5.64  1.08 -8.51
Si  9.45 -3.29 -2.30
Si  0.02  8.73 -5.42
Si -3.77  8.75  3.84
Si  3.78  6.56  6.94
Si -5.66 -7.66  3.86
Si  0.04 -2.20 10.04
Si  7.57 -0.00  6.95
Si -1.92 -5.47 -8.49
Si  7.57  6.55 -2.32
Si -3.80 -6.58  6.92
Si -7.58 -6.55 -2.33
Si -7.58  6.55 -2.30
Si  9.46  3.29 -2.33
Si -9.47 -3.28 -2.32
Si -1.91 -9.83 -2.35
Si -3.86  4.39 -8.47
Si -1.91  9.84 -2.35
Si  7.59 -4.36 -5.43
Si -1.92  1.09 10.06
Si  5.70 -7.66  3.86
Si  1.82  1.11 10.08
Si -7.58 -0.01  6.97
Si  7.59 -6.57 -2.33
Si  5.72  1.08 -8.51
Si  1.88 -9.86 -2.35
Si  3.83  8.76  3.90
Si  9.51 -1.07  3.90
Si -7.53  4.41 -6.17
Si -0.02  8.73  6.20
Si -7.56 -4.36  6.21
Si  7.59 -4.34  6.19
Si  0.01 -8.76 -6.17
Si  7.61  4.40 -6.21
Si  5.62 -7.63 -5.37
Si  0.02  4.36 10.01
Si -9.44 -1.09 -5.42
Si  0.02 10.92  0.73
Si -3.76  8.74 -5.42
Si -9.48 -5.43  0.80
Si -5.74 -7.63 -5.37
Si  9.47 -1.07 -5.43
Si  9.48 -5.46  0.78
Si  3.80 -2.18 10.06
Si -3.80 -2.15 10.07
Si  3.79  8.76 -5.43
Si  5.66 -3.27  9.26
Si  5.68  3.26 -9.25
Si -5.68  3.26 -9.25
Si  3.78 -8.71 -6.18
Si  9.45 -5.43  3.09
Si -3.82  8.72  6.16
Si  0.01 -6.54  9.26
Si -5.67 -9.82 -0.01
Si -0.00 -6.58 -9.25
Si -5.67  3.29  9.26
Si  5.69 -9.82 -0.01
Si -11.35  0.02 -0.01
Si -0.02  6.57  9.26
Si -5.70 -3.27  9.26
Si  9.45  1.12 -6.18
Si  5.69  3.29  9.26
Si -5.67 -3.26 -9.29
Si -3.81 -8.73 -6.19
Si 11.37  0.02 -0.01
Si -5.67  9.85 -0.01
Si  5.69 -3.26 -9.29
Si  9.48  5.47 -3.08
Si -9.49 -5.46  3.08
Si  3.80  8.75  6.19
Si -9.50 -1.11  6.16
Si -0.01 10.95  3.07
Si  9.48 -1.09  6.19
Si  5.69  9.85 -0.01
Si  0.01  6.57 -9.29
Si -9.49  1.10 -6.19
Si  5.67  7.67 -6.21
Si -9.50  5.44 -3.12
Si -5.68 -7.70  6.18
Si  5.68 -7.70  6.18
Si -5.68  7.67 -6.21
Si  0.00 -10.98 -3.10
Si -3.77  4.35 10.03
Si -3.77 10.90  0.75
Si  3.78 10.90  0.77
Si 11.32 -2.20  0.78
Si 11.34  0.00 -2.33
Si  3.78  4.34 10.04
Si -1.90  7.62 -8.51
Si  5.65 -5.48 -8.49
Si  5.66 -9.84 -2.33
Si  5.65  1.08 10.06
Si  5.66  9.84 -2.33
Si  0.05 -10.92  3.88
Si  1.91 -5.49 10.03
Si  1.91  7.62 -8.52
Si  9.46  5.49  3.85
Si -1.90 -5.50 10.04
Si -5.70 -9.84 -2.33
Si  0.01  0.02 -11.60
Si -7.58 -2.22 -8.51
Si -5.70  9.84 -2.33
Si -5.71 -5.48 -8.49
Si -11.38  0.00 -2.33
Si -5.71  1.08 10.06
Si -7.58 -8.78  0.77
Si  7.59 -8.77  0.75
Si  7.59 -2.21 -8.52
Si -11.39 -2.20  0.78
Si -9.51  5.46  3.90
Si -7.54  8.72 -3.07
Si 11.31 -2.18  3.11
Si  3.76 -6.52 -9.27
Si  3.75  6.53  9.28
Si  7.52 -8.76  3.08
Si -11.34  2.17 -3.10
Si  7.54  8.75 -3.08
Si -3.75 -6.55  9.28
Si  3.83 10.90  3.10
Si -3.75  6.57 -9.27
Si  3.81 -6.56  9.26
Si -7.53 -8.77  3.10
Si -3.83 10.91  3.08
Si  7.57  0.01 -9.27
Si -3.81 -10.92 -3.08
Si  7.58 -0.03  9.27
Si -3.79  6.57  9.27
Si -7.59  0.03  9.28
Si -3.77 -6.58 -9.28
Si -7.61 -0.03 -9.27
Si 11.38  2.17 -3.10
Si  3.81  6.56 -9.29
Si  3.82 -10.95 -3.07
Si -11.40 -2.18  3.11
Si  7.50  4.39 -8.47
Si -11.32  4.36  0.76
Si  9.45  3.28  6.92
Si  1.82 -12.00  0.80
Si -11.33  2.17  3.86
Si  9.44  7.65  0.79
Si -3.77 -10.92  3.84
Si -1.91  3.27 -11.57
Si -9.48  3.25  6.92
Si  7.56 -6.58  6.92
Si -9.45 -3.29  6.95
Si -7.59 -6.55  6.92
Si  9.46 -3.27  6.94
Si  1.89  9.83  6.95
Si -7.58  6.56  6.94
Si  7.59  6.54  6.95
Si  1.89 -9.84  6.95
Si -3.77 -0.02 -11.60
Si -9.45  5.47 -5.43
Si -7.53  8.76  3.90
Si  1.89  3.27 -11.60
Si -1.91  9.83  6.97
Si -7.60  4.37 -8.49
Si  3.83 -10.91  3.90
Si  7.59  8.75  3.84
Si -1.92 -12.03  0.79
Si  3.78  0.01 -11.60
Si  0.02 -10.94 -5.42
Si -1.91 -9.84  6.97
Si 11.38  2.17  3.86
Si  0.04 -8.76 -8.51
Si  9.51  5.49 -5.37
Si 11.39  4.36  0.76
Si -1.91 -3.28 -11.62
Si  1.88 -3.31 -11.63
Si -9.54  7.67  0.80
Si -1.85 -11.98  3.10
Si -9.45 -7.62 -3.08
Si  1.93 -11.99  3.06
Si -1.89 -1.08 -12.34
Si -9.43 -5.44 -6.21
Si  1.93  1.12 12.34
Si  0.01 10.91 -6.17
Si -11.34  4.35  3.10
Si -9.43  7.68  3.06
Si 11.34 -4.39 -3.08
Si -0.02  2.17 -12.35
Si  9.47 -7.63 -3.07
Si  1.91 -1.06 -12.36
Si -9.45  5.49  6.19
Si  9.50 -5.42 -6.17
Si -1.89 12.04 -3.07
Si 11.37  4.35  3.10
Si -1.85  1.13 12.38
Si  0.01 -2.20 12.37
Si -0.02 -10.94  6.20
Si -11.38 -4.39 -3.08
Si  9.47  5.48  6.21
Si  1.91 12.05 -3.08
Si  9.50  7.69  3.10
Si 11.29  2.21 -5.37
Si 11.29 -4.35  3.90
Si -5.66 -5.47 10.01
Si -3.80 -8.71 -8.48
Si -9.44 -7.65  3.86
Si  9.47 -7.63  3.85
Si  5.70 -5.47 10.01
Si  3.79 -10.91 -5.43
Si -3.76 -10.93 -5.42
Si  3.80 -8.74 -8.49
Si -9.48  1.12 -8.48
Si -7.56 -2.18 10.06
Si  1.92 12.02  3.86
Si  9.48  1.09 -8.49
Si  7.56 -2.15 10.07
Si -1.88  7.65 10.06
Si -5.66  7.64 -8.54
Si -1.89 12.04  3.85
Si  7.60  8.74 -5.42
Si -7.57  8.76 -5.43
Si  5.70  7.64 -8.54
Si  1.88  7.68 10.07
Si -11.42  2.21 -5.37
Si -11.42 -4.35  3.90
Si  7.54  8.72  6.16
Si 11.34 -6.55 -0.02
Si  7.55 -8.73 -6.19
Si -0.01  4.39 12.34
Si -7.58 -8.71 -6.18
Si -11.36  2.14  6.18
Si 11.36  6.54  0.03
Si  3.78 -2.16 12.36
Si 11.36  2.14  6.18
Si -11.36  6.54  0.03
Si  3.80  2.19 -12.35
Si -3.81 -2.18 12.36
Si -7.56  8.75  6.19
Si 11.35 -2.16 -6.21
Si  3.80 -10.93  6.19
Si -0.02 13.13 -0.02
Si -11.38 -6.55 -0.02
Si -11.36 -2.16 -6.21
Si -3.82 -10.95  6.16
Si -3.81 10.94 -6.19
Si -0.00 -13.13  0.03
Si  0.00 -4.42 -12.37
Si  3.78 10.96 -6.18
Si -3.82  2.17 -12.39
Si -11.31 -4.36 -5.39
Si -11.32  6.54 -2.31
Si  1.84 12.02 -5.37
Si -11.32 -0.01  6.96
Si -7.58 10.90  0.77
Si -5.64  9.82  6.96
Si -5.64  3.26 -11.59
Si -11.34 -6.54 -2.33
Si  9.46 -7.62 -5.42
Si -7.58  4.34 10.04
Si  7.59  4.35 10.03
