500
set: 181.00  0.00  0.00
Si  0.04  0.03  0.05
Si  0.02  0.02 -2.31
Si -1.93  1.10  0.78
Si  1.96  1.07  0.79
Si  0.01 -2.23  0.80
Si -1.92  3.27  0.01
Si -1.88 -1.12 -3.10
Si -3.83  0.02 -0.02
Si -1.91  1.08  3.15
Si  1.90  3.33 -0.01
Si  0.04  2.22 -3.13
Si -1.92 -3.33 -0.02
Si  1.92 -1.10 -3.15
Si  1.89  1.10  3.17
Si  3.85  0.01 -0.00
Si  1.91 -3.36  0.01
Si -0.00 -2.21  3.18
Si  3.77 -2.19  0.79
Si -1.92 -1.11  3.87
Si -1.88 -3.31 -2.32
Si -1.90  3.30 -2.33
Si -0.00  2.23  3.88
Si -3.82 -2.19  0.79
Si  3.82  0.01 -2.35
Si  1.91 -3.29 -2.37
Si  1.94  3.31 -2.33
Si -0.02  4.42  0.79
Si -3.84 -0.06 -2.37
Si  1.92 -1.10  3.97
Si  3.80 -2.19  3.10
Si -3.81 -2.19  3.10
Si  0.01 -4.41 -3.11
Si -0.01  4.41  3.10
Si -3.84  2.20 -3.16
Si  3.84  2.19 -3.18
Si  3.78  4.40  0.81
Si  1.86 -1.13 -5.45
Si -3.83  4.38  0.77
Si -0.01 -4.41  3.88
Si -5.72  1.14  0.77
Si -1.89 -1.06 -5.48
Si  3.84  2.25  3.88
Si  5.74  1.14  0.77
Si -0.01  2.21 -5.48
Si  1.90 -5.54  0.77
Si -1.95 -5.53  0.81
Si -3.87  2.18  3.92
Si -3.80 -4.40 -3.08
Si -0.01  2.17  6.21
Si -1.89  1.13 -6.22
Si -1.93 -1.08  6.21
Si  5.70 -3.32  0.00
Si -5.71  1.14  3.10
Si  5.70  3.33 -0.01
Si -1.89 -5.49  3.15
Si -0.03 -6.60 -0.01
Si  3.80 -4.39 -3.15
Si -0.03  6.61  0.00
Si  1.94  5.53 -3.08
Si -3.84  4.40  3.11
Si  1.89  1.09 -6.25
Si  1.89 -5.53  3.11
Si  0.02 -2.17 -6.26
Si  5.72 -1.14 -3.15
Si  5.75  1.14  3.10
Si -5.74 -1.14 -3.15
Si -5.76 -3.32  0.00
Si -5.76  3.33 -0.01
Si -1.93  5.54 -3.15
Si  3.85  4.44  3.15
Si  1.94 -1.09  6.29
Si -1.93  5.50  3.86
Si  0.05  6.59 -2.36
Si  0.05 -0.03  7.00
Si  3.80 -4.43  3.86
Si -0.01 -4.39 -5.45
Si -5.68 -3.34 -2.36
Si  5.72  3.30 -2.34
Si  5.72 -1.08  3.91
Si -3.84 -4.37  3.92
Si -5.74  3.30 -2.34
Si -3.84  2.25 -5.44
Si -0.01 -6.63 -2.34
Si -5.75 -1.08  3.91
Si  3.80  2.19 -5.50
Si  1.89  5.56  3.92
Si  5.78 -3.34 -2.36
Si -0.00  4.41 -6.18
Si -3.83  6.57  0.01
Si -7.61  0.01 -0.00
Si -3.84 -2.21 -6.19
Si -3.81  2.21  6.21
Si  3.82  6.59 -0.02
Si  0.04 -4.40  6.23
Si -3.83 -6.59 -0.01
Si  3.82 -2.23 -6.22
Si  7.63  0.02 -0.02
Si  3.85  2.19  6.26
Si  3.82 -6.66  0.01
Si  1.90  3.25  6.99
Si -3.81 -4.41 -5.39
Si  1.92  5.52 -5.39
Si -3.83  0.02  7.00
Si -3.79 -6.62 -2.33
Si  5.72 -5.51  0.79
Si  7.64 -2.19  0.79
Si  7.63 -0.06 -2.37
Si -1.92  3.32  7.02
Si  3.85  6.61 -2.32
Si -7.65  0.01 -2.35
Si -5.75 -5.51  0.79
Si  3.83 -6.63 -2.33
Si  5.73 -1.08 -5.48
Si -1.90 -3.32  7.03
Si  1.94 -3.31  7.03
Si -5.74 -1.08 -5.48
Si  1.91  7.74  0.79
Si  3.82 -4.42 -5.49
Si -1.92  5.51 -5.49
Si -3.83  6.64 -2.37
Si  3.85 -0.01  7.04
Si -1.96  7.74  0.79
Si -7.69 -2.19  0.79
Si -1.90  5.50  6.18
Si  1.89  5.51  6.20
Si  3.84 -4.42  6.18
Si -3.84 -4.42  6.20
Si  5.73 -5.51  3.10
Si -5.74 -5.51  3.10
Si  7.63  2.20 -3.16
Si -5.73  5.52 -3.11
Si -5.73 -1.09  6.25
Si  7.66 -2.19  3.10
Si -1.94 -5.50 -6.25
Si -7.63  2.19 -3.18
Si  1.93 -5.50 -6.26
Si  5.74  5.52 -3.11
Si  5.74 -1.09  6.25
Si  1.93  7.74  3.10
Si  3.80  4.43 -6.25
Si  5.73  1.10 -6.26
Si -7.67 -2.19  3.10
Si -3.81  4.43 -6.26
Si  1.89 -7.73 -3.16
Si -5.74  1.10 -6.26
Si -1.94  7.74  3.10
Si -1.90 -7.73 -3.18
Si -1.89 -7.68  3.88
Si  7.59  2.18  3.92
Si  0.01 -8.79  0.77
Si  7.63  4.38  0.77
Si -1.95  1.09 -8.55
Si  5.72  5.51  3.88
Si -7.63  2.25  3.88
Si -5.74  5.51  3.88
Si  1.90  1.08 -8.59
Si  0.01 -2.17 -8.59
Si  1.86 -7.75  3.92
Si -7.68  4.40  0.81
Si  0.02 -8.78  3.10
Si  7.62  4.40  3.11
Si -0.01  8.79 -3.15
Si  7.67 -4.40 -3.08
Si -7.62  4.44  3.15
Si -0.03 -0.01  9.36
Si -0.03  0.02 -9.37
Si -7.67 -4.39 -3.15
Si  1.89 -7.68 -5.44
Si -9.51  1.07  0.79
Si  7.62 -4.37  3.92
Si  0.01  4.39 -8.56
Si -5.72  7.70  0.80
Si  9.53  1.10  0.78
Si -3.78 -2.24 -8.57
Si  7.62  2.25 -5.44
Si -0.01  6.61  7.02
Si  3.80 -2.21 -8.58
Si  3.80 -8.83  0.78
Si  5.75  7.70  0.80
Si  5.72  5.54 -5.45
Si  5.72 -3.32  7.02
Si  0.02 -6.60  7.05
Si -7.66 -4.43  3.86
Si -5.74 -3.32  7.02
Si -5.71  3.33  7.05
Si -3.78 -8.86  0.79
Si -5.75  5.54 -5.45
Si -0.01  8.84  3.91
Si -7.66  2.19 -5.50
Si  5.75  3.33  7.05
Si -1.93 -7.74 -5.50
Si  7.62 -2.21 -6.19
Si  5.73 -5.52 -6.18
Si  1.89  7.72 -6.19
Si  7.64  6.57  0.01
Si -5.74 -5.52 -6.18
Si -1.91  7.70 -6.22
Si -5.69 -7.71 -3.13
Si  1.91  3.26 -9.35
Si -5.69  5.53  6.23
Si  7.63 -6.59 -0.01
Si  3.82 -0.03  9.34
Si  1.92 -7.72  6.21
Si  1.90 -9.91 -0.02
Si  9.55  3.27  0.01
Si  7.65  2.21  6.21
Si  1.90  3.33  9.34
Si -1.88 -9.92 -0.00
Si  1.90 -3.29  9.36
Si -7.61  2.19  6.26
Si -7.65  6.59 -0.02
Si  3.82 -0.04 -9.35
Si  3.85  8.81 -3.10
Si -7.64 -2.23 -6.22
Si -1.88 -3.30 -9.36
Si -1.88  3.32  9.36
Si -1.88  9.94 -0.00
Si  9.55  1.08  3.15
Si -9.55 -1.10 -3.15
Si  9.55 -3.33 -0.02
Si -3.81  8.82 -3.15
Si -3.83  0.03 -9.37
Si -1.92  3.29 -9.38
Si  1.90 -3.29 -9.38
Si -3.83 -0.05  9.37
Si  1.90  9.95 -0.02
Si  5.73  7.72  3.18
Si -9.56  3.33 -0.01
Si  5.78 -7.71 -3.13
Si -5.74  7.72  3.18
Si -1.88 -7.74  6.26
Si -9.56 -3.36  0.01
Si  5.78  5.53  6.23
Si -1.92 -3.35  9.37
Si  9.59 -1.12 -3.10
Si -3.84 -8.83  3.17
Si  3.82 -8.85  3.15
Si -7.65 -6.66  0.01
Si -9.57  1.10  3.17
Si  1.90  9.87 -2.37
Si -9.52  3.31 -2.33
Si  7.66 -4.41 -5.39
Si -7.62  6.61 -2.32
Si  5.73 -7.70  3.88
Si -5.74 -7.70  3.88
Si  7.64  0.02  7.00
Si  5.72  1.11 -8.57
Si  9.55 -1.11  3.87
Si  3.82  8.82  3.87
Si  1.91 -5.50 -8.57
Si  3.77  4.43 -8.57
Si  3.82 -6.61  7.02
Si -7.62 -0.01  7.04
Si -1.96 -5.50 -8.57
Si -3.79  6.62  7.03
Si -1.92 -9.92 -2.35
Si -7.63 -6.63 -2.33
Si -5.75  1.11 -8.57
Si -3.82  4.43 -8.57
Si -9.56 -3.29 -2.37
Si  9.56  3.30 -2.33
Si  3.83  6.61  7.03
Si  1.91  1.12 10.15
Si -1.92  9.94 -2.35
Si -0.02 -2.20 10.15
Si -9.54 -1.10  3.97
Si  7.64  6.64 -2.37
Si -1.96  1.12 10.15
Si -7.65 -4.42 -5.49
Si  7.67 -6.62 -2.33
Si -3.84 -6.68  6.99
Si  9.58 -3.31 -2.32
Si -3.81  8.83  3.97
Si -0.00  8.85 -5.48
Si  1.90 -9.99 -2.37
Si -7.63 -4.42  6.18
Si  7.63 -4.42  6.20
Si -0.01 -8.82 -6.26
Si  0.01  8.83  6.25
Si  7.66  4.43 -6.26
Si -7.67  4.43 -6.25
Si  9.52 -5.53  0.81
Si -3.87  8.80 -5.45
Si  0.01  4.45 10.13
Si -3.83 -2.23 10.13
Si  5.72 -7.72 -5.48
Si  3.78 -2.22 10.17
Si -5.74 -7.72 -5.48
Si  9.57 -1.06 -5.48
Si -9.56 -5.54  0.77
Si  0.01 11.07  0.77
Si -9.60 -1.13 -5.45
Si  3.84  8.87 -5.48
Si -5.69 -3.28 -9.31
Si -5.69 -9.90  0.05
Si -11.42  0.03  0.05
Si  9.53 -1.08  6.21
Si  3.85 -8.80 -6.22
Si -9.53  5.53 -3.08
Si  5.70 -3.29  9.36
Si  5.78 -3.28 -9.31
Si  5.70  3.30 -9.36
Si  0.04  6.65 -9.31
Si  3.80  8.85  6.21
Si  5.78 -9.90  0.05
Si  9.53  5.54 -3.15
Si -9.53 -1.09  6.29
Si  5.72 -7.76  6.21
Si -5.69  9.96  0.05
Si -0.03 -6.63 -9.36
Si -0.03  6.64  9.36
Si -5.76 -3.29  9.36
Si  9.58  1.13 -6.22
Si -5.76  3.30 -9.36
Si  9.58 -5.49  3.15
Si -5.74 -7.76  6.21
Si -9.57  1.09 -6.25
Si  0.04 -6.59  9.41
Si -9.57 -5.53  3.11
Si -3.84 -8.84 -6.25
Si -5.69  3.34  9.41
Si -3.80  8.84  6.29
Si -5.71  7.76 -6.26
Si  0.02 11.07  3.10
Si -0.01 -11.07 -3.15
Si 11.51  0.03  0.05
Si  5.78  9.96  0.05
Si  5.75  7.76 -6.26
Si  5.78  3.34  9.41
Si -3.78 11.00  0.79
Si  9.54  5.50  3.86
Si -5.71 -9.91 -2.31
Si -11.44  0.02 -2.31
Si -3.78  4.38 10.15
Si  1.96  7.69 -8.57
Si -0.01 -11.01  3.91
Si -5.72 -5.54 -8.56
Si  5.75 -9.91 -2.31
Si -11.45 -2.23  0.80
Si  3.80 11.03  0.78
Si  3.80  4.41 10.14
Si -5.71  9.95 -2.31
Si -0.01 -0.01 -11.70
Si -1.93  7.72 -8.58
Si  5.75 -5.54 -8.56
Si -1.93 -5.52 10.14
Si -5.72  1.08 10.16
Si -7.66 -2.21 -8.58
Si -7.66 -8.83  0.78
Si 11.49  0.02 -2.31
Si 11.48 -2.23  0.80
Si  5.75  1.08 10.16
Si  5.75  9.95 -2.31
Si  1.96 -5.55 10.15
Si  7.69 -2.24 -8.57
Si -9.57  5.56  3.92
Si  7.69 -8.86  0.79
Si -7.61  8.81 -3.10
Si -11.42  2.22 -3.13
Si -3.83 -6.60  9.34
Si  3.82 11.01  3.15
Si  3.82  6.58  9.37
Si -7.65 -0.03  9.34
Si -7.65 -0.04 -9.35
Si  7.63  0.03 -9.37
Si  7.62 -8.83  3.17
Si  3.85 -6.61  9.36
Si  7.64 -0.05  9.37
Si -3.81 -11.03 -3.15
Si  7.65  8.82 -3.15
Si -3.83  6.64  9.36
Si 11.46 -2.21  3.18
Si  3.85  6.63 -9.36
Si -3.84 11.03  3.17
Si  3.85 -11.05 -3.10
Si -11.47 -2.21  3.18
Si -3.83 -6.67 -9.35
Si -7.64 -8.85  3.15
Si  3.82 -6.64 -9.38
Si -3.83  6.64 -9.38
Si 11.51  2.22 -3.13
Si -9.54  5.52 -5.39
Si  1.91 -9.91  7.00
Si -9.57  3.25  6.99
Si  9.51  7.74  0.79
Si -9.52 -3.31  7.03
Si -1.88  3.31 -11.69
Si -3.79 -0.00 -11.69
Si -0.02 -8.82 -8.57
Si  1.91 -12.12  0.79
Si -1.96 -12.11  0.79
Si 11.45  4.42  0.79
Si -0.00 -11.01 -5.48
Si -7.65  8.82  3.87
Si  3.82 -11.04  3.87
Si  3.83 -0.01 -11.69
Si 11.46  2.23  3.88
Si  9.55  3.32  7.02
Si -7.65 -6.61  7.02
Si -7.63  6.61  7.03
Si  7.64  4.43 -8.57
Si  1.91  9.95  7.00
Si -1.88  9.92  7.04
Si -11.47  2.23  3.88
Si -1.92 -3.30 -11.71
Si  7.63 -6.68  6.99
Si  9.55  5.51 -5.49
Si -1.88 -9.93  7.04
Si -9.55  7.74  0.79
Si -3.81 -11.03  3.97
Si  9.56 -3.32  7.03
Si -11.48  4.42  0.79
Si  7.67  6.62  7.03
Si  1.91  3.33 -11.73
Si -7.69  4.43 -8.57
Si  7.66  8.83  3.97
Si  1.90 -3.37 -11.73
Si  9.57  5.50  6.18
Si  9.53 -5.50 -6.25
Si -1.94 -12.12  3.10
Si -0.01 -2.21 12.46
Si  1.93 -12.12  3.10
Si  1.93  1.12 12.46
Si  9.53  7.74  3.10
Si -11.46 -4.41 -3.11
Si -1.94  1.12 12.47
Si -9.54 -5.50 -6.26
Si 11.46  4.41  3.10
Si -9.57  5.51  6.20
Si -9.54  7.74  3.10
Si  0.01  2.21 -12.47
Si  0.01 -11.02  6.25
Si -1.90 12.12 -3.18
Si -11.47  4.41  3.10
Si 11.47 -4.41 -3.11
Si  1.89 12.13 -3.16
Si -0.01 11.03 -6.26
Si -9.57 -7.73 -3.16
Si  9.57 -7.73 -3.18
Si  1.89 -1.11 -12.52
Si -1.90 -1.11 -12.54
Si  7.59  8.80 -5.45
Si  9.52  1.09 -8.55
Si -5.72 -5.48 10.13
Si  1.86 12.11  3.92
Si  1.90  7.70 10.13
Si  3.84 -10.99 -5.48
Si  5.74 -5.48 10.13
Si  3.78 -8.84 -8.55
Si  9.57 -7.68  3.88
Si 11.46 -4.41  3.88
Si  7.63 -2.23 10.13
Si -11.47 -4.41  3.88
Si 11.46  2.21 -5.48
Si -9.56  1.08 -8.59
Si -11.47  2.21 -5.48
Si -1.95  7.71 10.17
Si -5.72  7.76 -8.59
Si -3.83 -8.85 -8.59
Si -7.63  8.87 -5.48
Si -3.87 -11.05 -5.45
Si -1.89 12.18  3.88
Si  5.74  7.76 -8.59
Si -7.68 -2.22 10.17
Si -9.60 -7.75  3.92
Si -3.80  2.22 -12.44
Si -7.62 -8.80 -6.22
Si 11.43 -6.60 -0.01
Si  3.80 -11.01  6.21
Si 11.43  6.61  0.00
Si 11.45  2.17  6.21
Si -11.45 -2.17 -6.26
Si -11.48  2.17  6.21
Si  0.02  4.45 12.46
Si -3.84 11.02 -6.25
Si -3.84 -2.22 12.47
Si  7.62 -8.84 -6.25
Si -3.80 -11.02  6.29
Si -0.03 -13.25  0.00
Si -7.67  8.85  6.21
Si -0.03 13.26 -0.01
Si  3.85 11.06 -6.22
Si -11.50 -6.60 -0.01
Si 11.48 -2.17 -6.26
Si -11.50  6.61  0.00
Si  3.80  2.23 -12.51
Si  3.85 -2.18 12.51
Si -0.01 -4.45 -12.51
Si  7.67  8.84  6.29
Si -5.68  9.90  7.00
Si -11.42  6.59 -2.36
Si -11.42 -0.03  7.00
Si -5.71 -3.29 -11.67
Si -1.93 -1.12 13.22
Si 11.45 -4.39 -5.45
Si -9.57 -7.68 -5.44
Si  5.75 -3.29 -11.67
Si  5.78  9.90  7.00
Si  0.02  6.64 -11.67
Si -0.01 13.22 -2.34
