500
set: 1084.00  0.00  0.00
Si  0.39 -1.23  0.83
Si -0.42  1.25 -0.82
Si  1.32  1.02  0.80
Si -1.33 -1.10 -0.78
Si  2.09 -1.08 -0.80
Si -2.19  1.05  0.85
Si -0.84 -0.02  2.44
Si  0.91  0.00 -2.43
Si -0.02 -2.27 -2.38
Si  0.03  2.35  2.40
Si -3.07 -1.32  0.76
Si  3.10  1.20 -0.87
Si -2.58  0.03 -2.43
Si  2.62 -0.01  2.40
Si -1.29  3.30  0.76
Si  0.44  3.52 -0.78
Si -0.46 -3.60  0.80
Si -1.74 -2.27  2.40
Si  1.73 -2.28  2.43
Si  1.33 -3.42 -0.87
Si  1.76  2.35 -2.38
Si -1.74  2.40 -2.41
Si -3.82  1.20 -0.87
Si -2.20 -3.37 -0.82
Si  2.16  3.40  0.83
Si  3.85 -1.32  0.76
Si -0.85  0.04 -4.06
Si  0.87  0.04  4.08
Si  0.04  2.29 -4.02
Si  0.02 -2.31  4.03
Si  2.96 -3.58  0.85
Si  3.40 -2.23 -2.41
Si -3.06  3.54 -0.80
Si -3.41  2.35  2.43
Si  2.62  0.04 -4.03
Si -3.51 -2.23 -2.41
Si -2.63  0.08  4.05
Si  3.51  2.35  2.43
Si -4.29 -0.01  2.40
Si  4.73  1.05  0.85
Si -1.69  2.35  4.03
Si -1.73 -2.33 -4.02
Si  4.34  0.03 -2.43
Si  1.80  2.32  4.03
Si  1.74 -2.32 -4.06
Si -4.83 -1.08 -0.80
Si  0.85 -4.63  2.40
Si -0.86 -4.62 -2.43
Si  0.93  4.61  2.44
Si  3.86  3.54 -0.80
Si -0.81  4.66 -2.43
Si -3.96 -3.58  0.85
Si  5.58 -1.10 -0.78
Si -5.60  1.02  0.80
Si -0.41  5.67  0.85
Si  0.31 -5.71 -0.80
Si  3.45 -2.28  4.03
Si -3.41  2.30 -4.06
Si -2.52  4.61  2.40
Si -3.47 -2.28  4.03
Si  2.56 -4.59 -2.43
Si -0.45  1.21  5.68
Si  0.43 -1.29 -5.66
Si  3.51  2.30 -4.06
Si  4.72 -3.37 -0.82
Si -2.61 -4.64  2.44
Si  1.28  1.09 -5.62
Si  2.68  4.63 -2.43
Si -1.31 -1.06  5.64
Si -4.30  0.04 -4.03
Si  4.29  0.08  4.05
Si -4.76  3.40  0.83
Si -1.38 -5.85  0.83
Si  1.35  5.88 -0.82
Si  2.22 -1.11  5.59
Si  5.18 -2.27  2.40
Si -5.16  2.35 -2.38
Si -5.18 -2.28  2.43
Si  0.85 -4.59 -4.03
Si -2.18  0.99 -5.70
Si  5.18  2.40 -2.41
Si -0.90 -4.58  4.08
Si -2.04  5.83 -0.87
Si  0.92  4.66 -4.06
Si -0.85  4.71  4.05
Si  2.08 -5.95  0.76
Si -6.01  0.00 -2.43
Si  3.09  5.65  0.80
Si  2.97  1.23  5.66
Si -3.07 -1.26 -5.61
Si  6.08 -0.02  2.44
Si -3.11 -5.72 -0.78
Si  5.62  3.30  0.76
Si  2.52 -4.54  4.05
Si -5.59 -3.42 -0.87
Si -2.53  4.66 -4.03
Si -2.63 -4.58 -4.06
Si  6.49  1.25 -0.82
Si -0.50 -3.54 -5.62
Si -1.30  3.36 -5.61
Si  0.46  3.56  5.64
Si -6.53 -1.23  0.83
Si  1.20 -3.40  5.66
Si -4.24  4.63 -2.43
Si  2.64  4.67  4.08
Si -4.35 -4.59 -2.43
Si  4.30 -4.64  2.44
Si  4.40  4.61  2.40
Si -3.83  5.65  0.80
Si -5.12  2.32  4.03
Si  3.85 -1.26 -5.61
Si  3.81 -5.72 -0.78
Si  2.20  3.34 -5.66
Si  5.19 -2.33 -4.02
Si -5.18 -2.32 -4.06
Si -2.22 -3.41  5.68
Si  5.22  2.35  4.03
Si -3.95  1.23  5.66
Si -2.93  3.51  5.59
Si  6.06  0.04 -4.06
Si -6.05  0.04  4.08
Si -0.04 -6.90  2.43
Si -0.45  1.21 -7.24
Si  2.96 -3.64 -5.70
Si  0.43 -1.29  7.26
Si -4.70 -1.11  5.59
Si -6.48  3.52 -0.78
Si  0.03  7.02 -2.41
Si  6.46 -3.60  0.80
Si  1.63 -6.85 -2.41
Si  7.31 -1.23  0.83
Si -1.31 -1.06 -7.28
Si  4.29 -4.58 -4.06
Si  4.74  0.99 -5.70
Si  1.28  1.08  7.29
Si -7.34  1.25 -0.82
Si -1.79 -6.90 -2.38
Si -4.40 -4.54  4.05
Si -4.28  4.67  4.08
Si -1.64  6.97  2.43
Si  4.39  4.66 -4.03
Si  1.80  6.98  2.40
Si -2.18  0.99  7.22
Si  4.87  5.83 -0.87
Si  6.90 -2.27 -2.38
Si -6.89  2.35  2.40
Si -6.93 -2.27 -2.38
Si -4.84 -5.95  0.76
Si  3.99  3.51  5.59
Si  6.95  2.35  2.40
Si  2.21 -1.11 -7.33
Si -3.95 -3.64 -5.70
Si  2.97  1.23 -7.26
Si -5.99  4.61  2.44
Si  0.48  7.92  0.76
Si  6.05 -4.62 -2.43
Si -6.07 -4.63  2.40
Si -0.41  5.61 -5.70
Si  5.61 -1.06  5.64
Si  0.44 -5.74  5.59
Si -3.07 -1.26  7.31
Si -5.64  1.09 -5.62
Si -0.04 -6.95 -4.06
Si  0.08  6.97  4.03
Si  3.40 -6.90  2.40
Si  6.11  4.66 -2.43
Si -4.72  3.34 -5.66
Si  5.54 -5.85  0.83
Si  1.20 -3.40 -7.26
Si -3.51 -6.90  2.40
Si -0.44 -8.05 -0.87
Si -3.39  6.98 -2.38
Si  0.46  3.56 -7.28
Si  4.70 -3.41  5.68
Si -0.50 -3.54  7.29
Si -7.76 -0.02  2.44
Si -5.57  5.88 -0.82
Si -1.30  3.36  7.31
Si  1.68 -6.90  4.03
Si  3.53  6.98 -2.38
Si -1.64  6.93 -4.06
Si  7.36  3.52 -0.78
Si  7.83  0.00 -2.43
Si -1.75 -6.93  4.03
Si  1.82  6.92 -4.02
Si -7.37 -3.60  0.80
Si  1.33  5.84  5.68
Si  2.20  3.34  7.26
Si -6.87  2.29 -4.02
Si -1.34 -5.91 -5.66
Si -1.29  8.17 -0.80
Si -2.22 -3.41 -7.24
Si -6.89 -2.31  4.03
Si  1.19 -8.20  0.85
Si  8.23  1.02  0.80
Si  6.94 -2.31  4.03
Si -3.95  1.23 -7.26
Si  3.85 -1.26  7.31
Si -8.25 -1.10 -0.78
Si  6.96  2.29 -4.02
Si  2.07 -5.89 -5.61
Si -2.17  5.85  5.66
Si  2.21  8.15 -0.78
Si -2.23 -8.22  0.80
Si  2.95 -8.00 -0.82
Si  3.05  5.71 -5.62
Si -3.08 -5.68  5.64
Si  6.02 -4.58  4.08
Si -2.98  8.02  0.83
Si -6.07 -4.59 -4.03
Si  2.97 -3.64  7.22
Si -6.00  4.66 -4.06
Si  5.62  3.36 -5.61
Si -2.93  3.51 -7.33
Si  6.50  5.67  0.85
Si  6.06  4.71  4.05
Si  6.47  1.21  5.68
Si  4.74  0.99  7.22
Si -3.35  6.94  4.03
Si -6.49 -1.29 -5.66
Si  3.42 -6.95 -4.02
Si -5.72 -3.40  5.66
Si -3.50 -6.95 -4.02
Si -6.61 -5.71 -0.80
Si -7.77  0.04 -4.06
Si -4.70 -1.11 -7.33
Si  3.57  6.94  4.03
Si  7.79  0.04  4.08
Si  3.83 -5.68  5.64
Si  0.87  0.04 -8.84
Si -8.21  3.30  0.76
Si -3.87  5.71 -5.62
Si -0.85  0.04  8.86
Si  5.13 -6.90 -2.38
Si -3.97 -8.00 -0.82
Si  8.25 -3.42 -0.87
Si  3.94  8.02  0.83
Si -5.11  6.98  2.40
Si -5.29 -6.85 -2.41
Si -3.95 -3.64  7.22
Si  3.99  3.51 -7.33
Si  5.28  6.97  2.43
Si  9.00 -1.08 -0.80
Si -0.41  5.61  7.22
Si  0.02 -2.31 -8.89
Si  0.05  2.29  8.90
Si -9.10  1.05  0.85
Si  6.42 -3.54 -5.62
Si  7.23 -5.71 -0.80
Si -2.63  0.08 -8.87
Si  5.61 -1.06 -7.28
Si  2.62  0.04  8.89
Si -8.66 -2.27  2.40
Si  8.65 -2.28  2.43
Si -4.71  3.34  7.26
Si  4.70 -3.41 -7.24
Si -6.46  3.56  5.64
Si -5.64  1.08  7.29
Si  8.67  2.35 -2.38
Si -8.66  2.40 -2.41
Si -7.33  5.67  0.85
Si  0.44 -5.74 -7.33
Si  1.74 -2.32  8.86
Si -7.73  4.66 -2.43
Si -1.70  2.35 -8.89
Si -1.73 -2.33  8.90
Si  7.77 -4.63  2.40
Si  1.79  2.32 -8.89
Si  7.35 -1.29 -5.66
Si -7.78 -4.62 -2.43
Si -7.37  1.21  5.68
Si  1.32  5.84 -7.24
Si  7.85  4.61  2.44
Si  4.75  5.85  5.66
Si -4.71  8.15 -0.78
Si -1.34 -5.91  7.26
Si -4.85 -5.89 -5.61
Si -5.10  6.92 -4.02
Si  4.69 -8.22  0.80
Si  5.17 -6.93  4.03
Si -5.24 -6.90  4.03
Si  0.79 -9.22 -2.43
Si -2.17  5.85 -7.26
Si -0.75  9.24  2.40
Si -0.92 -9.26  2.40
Si  5.28  6.93 -4.06
Si  2.07 -5.89  7.31
Si  0.96  9.28 -2.43
Si  9.08  3.40  0.83
Si -3.08 -5.68 -7.28
Si  3.05  5.71  7.29
Si -9.12 -3.37 -0.82
Si -3.41  2.30  8.86
Si  0.47  7.99 -5.61
Si  6.47  1.21 -7.24
Si -8.61  2.35  4.03
Si  3.51  2.30  8.86
Si -9.50  0.03 -2.43
Si  3.45 -2.28 -8.89
Si -3.47 -2.28 -8.89
Si  5.62  3.36  7.31
Si -8.65 -2.33 -4.02
Si -6.49 -1.29  7.26
Si -0.57 -8.02  5.66
Si  8.65 -2.32 -4.06
Si  9.54 -0.01  2.40
Si -5.72 -3.40 -7.26
Si  4.29  0.08 -8.87
Si  8.71  2.32  4.03
Si -4.30  0.04  8.89
Si -5.59  5.84  5.68
Si  7.76 -4.59 -4.03
Si -2.46  9.25 -2.43
Si  5.58 -5.91 -5.66
Si  2.53 -9.27  2.44
Si -2.64 -9.24 -2.43
Si  2.70  9.23  2.44
Si -7.82 -4.58  4.08
Si -1.16  8.14  5.59
Si  7.38  3.56  5.64
Si -7.77  4.71  4.05
Si  5.63  8.17 -0.80
Si -7.42 -3.54 -5.62
Si  7.84  4.66 -4.06
Si -0.90 -4.58 -8.84
Si  8.19  1.09 -5.62
Si  3.83 -5.68 -7.28
Si -8.23 -1.06  5.64
Si -3.87  5.71  7.29
Si  0.85 -4.59  8.89
Si -5.73 -8.20  0.85
Si  6.88 -6.90  2.43
Si  0.75 -9.17  4.05
Si  0.92  4.66  8.86
Si -0.85  4.71 -8.87
Si -6.96 -6.90  2.43
Si -0.93 -9.21 -4.03
Si -9.98 -1.32  0.76
Si  1.19 -8.26 -5.70
Si -6.89  7.02 -2.41
Si 10.02  1.20 -0.87
Si -0.75  9.29 -4.03
Si  6.95  7.02 -2.41
Si -2.27 -8.16 -5.62
Si  8.27  5.88 -0.82
Si -8.30 -5.85  0.83
Si  2.23  8.19  5.64
Si -2.94  7.96 -5.66
Si  0.92  9.33  4.05
Si -6.44  7.92  0.76
Si  2.93 -8.04  5.68
Si  2.52 -4.54 -8.87
Si -6.47 -5.74  5.59
Si  6.51  5.61 -5.70
Si -2.63 -4.58  8.86
Si  2.64  4.67 -8.84
Si  6.42 -3.54  7.29
Si -2.52  4.66  8.89
Si  9.54  0.04 -4.03
Si -6.46  3.56 -7.28
Si  6.47 -8.05 -0.87
Si -9.54  0.08  4.05
Si  2.52 -9.21 -4.06
Si -7.37  1.21 -7.24
Si  7.35 -1.29  7.26
Si -2.67 -9.21  4.08
Si  1.36 10.30  0.85
Si -4.21  9.23  2.44
Si -2.50  9.29  4.08
Si  4.74  5.85 -7.26
Si  8.12 -3.40  5.66
Si -1.46 -10.33 -0.80
Si  4.28 -9.24 -2.43
Si  2.69  9.29 -4.06
Si -0.27 10.45 -0.87
Si -8.22  3.36 -5.61
Si -2.06 10.27  0.80
Si -0.84 -0.02 -10.48
Si -5.12  2.32 -8.89
Si -5.18 -2.32  8.86
Si  0.91  0.00 10.49
Si -4.39 -9.27  2.44
Si  9.88 -3.58  0.85
Si  3.98  7.96 -5.66
Si  4.45  9.25 -2.43
Si  5.19 -2.33  8.90
Si -6.84  6.97  4.03
Si -4.84 -5.89  7.31
Si  2.04 -10.35 -0.78
Si  5.22  2.35 -8.89
Si  6.88 -6.95 -4.06
Si  0.31 -10.57  0.76
Si -9.98  3.54 -0.80
Si -3.99 -8.04  5.68
Si -6.95 -6.95 -4.06
Si  7.00  6.97  4.03
Si -6.05  0.04 -8.84
Si -8.96  5.83 -0.87
Si  6.06  0.04  8.86
Si  9.13 -1.11  5.59
Si  0.03  2.35 -10.52
Si -9.44  4.61  2.40
Si -9.10  0.99 -5.70
Si -0.02 -2.27 10.54
Si -2.58  0.03 10.49
Si  9.00 -5.95  0.76
Si  9.48 -4.59 -2.43
Si -0.57 -8.02 -7.26
Si 10.32 -2.23 -2.41
Si -10.73  1.20 -0.87
Si  0.47  7.99  7.31
Si  2.62 -0.01 -10.52
Si -7.33  5.61 -5.70
Si -5.59  5.84 -7.24
Si  4.29 -4.58  8.86
Si  7.40  7.92  0.76
Si -10.33  2.35  2.43
Si -4.28  4.67 -8.84
Si  1.73 -2.28 -10.49
Si 10.77 -1.32  0.76
Si -9.53 -4.64  2.44
Si  7.36 -5.74  5.59
Si -4.40 -4.54 -8.87
Si  5.58 -5.91  7.26
Si -1.74 -2.27 -10.52
Si -1.74  2.39 10.51
Si  4.24 -9.21  4.08
Si  9.60  4.63 -2.43
Si -10.43 -2.23 -2.41
Si  1.76  2.35 10.54
Si -7.36 -8.05 -0.87
Si  4.65 -8.16 -5.62
Si  4.39  4.66  8.89
Si 10.42  2.35  2.43
Si  7.38  3.56 -7.28
Si -3.16 -10.48  0.83
Si -4.23  9.29 -4.06
Si -4.40 -9.21 -4.06
Si  3.12 10.50 -0.82
Si -7.41 -3.54  7.29
Si -4.68  8.19  5.64
Si -1.16  8.14 -7.33
Si  8.20  1.08  7.29
Si  1.19 -8.26  7.22
Si -8.23 -1.06 -7.28
Si  4.42  9.29  4.08
Si  3.76 -10.48  0.83
Si -2.94  7.96  7.26
Si -2.27 -8.16  7.29
Si  2.23  8.19 -7.28
Si -3.80 10.50 -0.82
Si  2.92 -8.04 -7.24
Si  8.55 -6.85 -2.41
Si  6.51  5.61  7.22
Si  9.44 -4.54  4.05
Si  9.12  3.34 -5.66
Si -0.03 -6.95  8.86
Si  3.40 -2.23 10.51
Si -9.45  4.66 -4.03
Si -3.41  2.35 -10.49
Si -9.14 -3.41  5.68
Si  6.00 -9.26  2.40
Si -5.95  9.28 -2.43
Si  0.08  6.97 -8.89
Si -8.56  6.97  2.43
Si  3.50  2.35 -10.49
Si -3.51 -2.23 10.51
Si -6.13 -9.22 -2.43
Si -10.33  2.30 -4.06
Si -6.48 -5.74 -7.33
Si -9.55 -4.58 -4.06
Si  4.34  0.03 10.49
Si 10.37 -2.28  4.03
Si -8.71 -6.90 -2.38
Si -4.29 -0.01 -10.52
Si -1.63  6.93  8.86
Si  6.17  9.24  2.40
Si -10.38 -2.28  4.03
Si 10.78  3.54 -0.80
Si  1.68 -6.90 -8.89
Si  4.86 10.27  0.80
Si  9.56  4.67  4.08
Si  8.12 -3.40 -7.26
Si -1.75 -6.93 -8.89
Si  1.82  6.92  8.90
Si 10.43  2.30 -4.06
Si  8.72  6.98  2.40
Si  5.76  8.14  5.59
Si  9.89  1.23  5.66
Si -11.21 -0.01  2.40
Si -4.88 -10.35 -0.78
Si -6.87  2.29  8.90
Si -10.88 -3.58  0.85
Si  3.98  7.96  7.26
Si  0.93  4.61 -10.48
Si -6.90 -2.31 -8.89
Si -0.86 -4.62 10.49
Si -0.81  4.66 10.49
Si -8.22  3.36  7.31
Si  6.94 -2.31 -8.89
