500
set: 1123.00  0.00  0.00
Si  0.01 -0.01 -0.01
Si -0.05  0.06 -2.46
Si -0.03 -0.01  2.51
Si  1.30  2.22 -0.01
Si -2.61  0.00 -0.08
Si -1.34 -2.29 -0.01
Si  1.42 -2.24 -0.01
Si -1.45  2.27 -0.00
Si  2.70 -0.03 -0.01
Si  1.33 -2.16 -2.43
Si  1.36  2.13  2.50
Si -2.60  0.09  2.43
Si  2.62 -0.02  2.47
Si -1.28 -2.27  2.48
Si  1.38 -2.22  2.49
Si -1.28 -2.28 -2.49
Si -1.31  2.34  2.45
Si  1.29  2.35 -2.47
Si  2.71  0.01 -2.44
Si -1.39  2.35 -2.47
Si -2.64  0.07 -2.59
Si -3.87 -2.33  0.01
Si  0.01  4.53  0.02
Si  0.06 -4.59  0.01
Si  4.01  2.29  0.04
Si -4.09  2.19 -0.01
Si  4.01 -2.46  0.01
Si -0.00 -0.07 -4.94
Si -0.00 -0.06  4.95
Si -3.85 -2.21  2.50
Si  0.01 -4.53  2.49
Si  0.14 -4.57 -2.41
Si -4.00  2.27  2.51
Si -4.05  2.19 -2.51
Si  4.00 -2.30 -2.50
Si -4.04 -2.23 -2.50
Si -0.05  4.63 -2.47
Si  4.01  2.39 -2.42
Si  2.63  4.56 -0.02
Si -0.06  4.64  2.51
Si -2.78  4.49 -0.03
Si -2.59 -4.60 -0.02
Si -5.29 -0.12  0.03
Si  4.04  2.31  2.53
Si  5.36 -0.12  0.03
Si  4.11 -2.42  2.48
Si  2.65 -4.67 -0.03
Si -1.41 -2.15 -4.91
Si  1.22  2.30 -4.94
Si  1.23  2.30  4.94
Si -1.41 -2.15  4.97
Si  2.74 -0.03 -4.89
Si -2.75 -0.01  4.89
Si -1.46  2.27  4.93
Si -1.46  2.27 -4.96
Si  1.38 -2.38  4.94
Si  1.38 -2.38 -4.95
Si  5.13  0.03  2.46
Si  2.74 -0.03  4.99
Si -2.75 -0.01 -4.99
Si  2.51  4.54  2.48
Si -2.56 -4.50 -2.54
Si -2.76  4.47  2.44
Si  5.26  0.04 -2.45
Si  2.78 -4.52 -2.50
Si -2.71 -4.62  2.48
Si -2.65  4.65 -2.50
Si -5.39  0.04 -2.45
Si  2.67 -4.69  2.44
Si  2.66  4.66 -2.54
Si -5.52  0.03  2.46
Si  3.87  2.22 -4.87
Si -0.10  4.47  4.93
Si -0.10  4.47 -4.96
Si  0.08 -4.50  4.94
Si  0.08 -4.50 -4.94
Si  3.87  2.22  5.01
Si  4.06 -2.24  4.91
Si  4.05 -2.24 -4.97
Si -4.01 -2.45  4.93
Si -4.01 -2.45 -4.96
Si -4.05  2.46  4.93
Si -1.42  6.70  0.01
Si -4.05  2.46 -4.95
Si  6.56  2.19 -0.01
Si  1.35  6.84  0.01
Si -5.21 -4.63  0.02
Si -1.21 -6.87  0.04
Si  5.28  4.58  0.01
Si -6.64  2.29  0.04
Si -5.37  4.58  0.01
Si -6.64 -2.46  0.01
Si  1.34 -6.97 -0.01
Si  5.44 -4.63  0.02
Si -2.55 -4.58  4.87
Si  6.78 -2.33  0.01
Si -5.24  0.01 -4.92
Si  2.67  4.58  4.87
Si -5.24  0.01  4.96
Si  2.79 -4.53 -4.94
Si -2.55 -4.58 -5.01
Si  2.79 -4.52  4.95
Si -2.64  4.64 -4.94
Si -2.64  4.64  4.95
Si -1.20 -6.77 -2.42
Si  2.67  4.58 -5.01
Si -1.32  6.75  2.48
Si  5.41  0.01 -4.92
Si  5.41  0.01  4.96
Si -0.03 -0.02 -7.37
Si -5.27 -4.53 -2.47
Si  6.59  2.19 -2.51
Si -5.28 -4.52  2.51
Si -6.54 -2.42  2.48
Si -1.17 -6.86  2.53
Si  6.61 -2.23 -2.50
Si -5.29  4.60 -2.41
Si  5.23  4.64  2.49
Si -0.05  0.06  7.42
Si -6.60  2.31  2.53
Si -1.43  6.87 -2.50
Si  5.38 -4.53 -2.47
Si -6.63  2.39 -2.42
Si  6.65  2.27  2.51
Si  5.36  4.60 -2.41
Si  5.37 -4.52  2.51
Si  1.18  6.93 -2.50
Si -6.65 -2.30 -2.50
Si  1.43 -6.89  2.51
Si  1.37  6.96  2.50
Si  1.38 -6.98 -2.51
Si -5.42  4.64  2.49
Si  6.80 -2.21  2.50
Si -2.64  0.07  7.30
Si  1.36  2.13 -7.39
Si  1.38 -2.22 -7.39
Si -1.28 -2.28  7.39
Si -1.28 -2.27 -7.40
Si  2.62 -0.02 -7.42
Si  1.34 -2.16  7.46
Si  1.29  2.35  7.42
Si -2.60  0.09 -7.45
Si  3.88  6.88 -0.01
Si -1.39  2.35  7.41
Si -1.31  2.34 -7.43
Si  2.71  0.01  7.45
Si -7.95 -0.03 -0.01
Si  3.98 -6.89 -0.00
Si -3.92 -6.94 -0.01
Si -4.01  6.92 -0.01
Si  8.04  0.00 -0.08
Si -3.93 -6.81 -2.47
Si  4.04 -6.82 -2.47
Si -7.94  0.01 -2.44
Si  3.94  6.89 -2.49
Si  3.94  6.89  2.48
Si  4.12 -6.82  2.45
Si -8.03 -0.02  2.47
Si -3.85 -7.03  2.50
Si  8.05  0.09  2.43
Si  8.01  0.07 -2.59
Si  1.21  6.72  4.93
Si -4.05  6.95  2.49
Si  1.21  6.71 -4.96
Si  1.38 -6.70  4.93
Si  1.38 -6.71 -4.95
Si -4.10  7.01 -2.43
Si -6.59 -2.24  4.91
Si -6.59 -2.24 -4.97
Si -1.35 -6.95 -4.87
Si  6.60  2.46  4.93
Si -1.38  6.92  4.91
Si  6.60  2.46 -4.95
Si  5.29  4.66 -4.94
Si  5.29  4.66  4.94
Si -3.85 -2.21 -7.39
Si  6.64 -2.45  4.93
Si -5.32 -4.69  4.93
Si -1.38  6.92 -4.97
Si -6.78  2.22 -4.87
Si  5.33 -4.69  4.93
Si  6.64 -2.45 -4.96
Si -5.36  4.66  4.94
Si -5.36  4.66 -4.94
Si -5.32 -4.69 -4.96
Si  5.33 -4.69 -4.96
Si  0.01 -4.53 -7.39
Si -1.35 -6.94  5.01
Si -4.00  2.27 -7.38
Si -4.05  2.19  7.38
Si  4.04  2.30 -7.35
Si -4.04 -2.23  7.38
Si -0.06  4.64 -7.37
Si  4.00 -2.30  7.39
Si -6.78  2.22  5.01
Si -0.05  4.64  7.42
Si  0.14 -4.57  7.47
Si  4.11 -2.42 -7.40
Si  4.01  2.40  7.46
Si -2.56 -4.50  7.35
Si  5.13  0.03 -7.43
Si  2.51  4.54 -7.41
Si -0.07  9.05  0.03
Si  7.87  4.49 -0.03
Si  2.78 -4.51  7.39
Si  2.66  4.66  7.35
Si  5.26  0.04  7.44
Si -2.76  4.47 -7.45
Si -2.65  4.65  7.39
Si -2.71 -4.62 -7.41
Si -5.39  0.04  7.44
Si  2.67 -4.69 -7.45
Si -8.02  4.56 -0.02
Si -5.52  0.03 -7.43
Si -8.00 -4.67 -0.03
Si  0.14 -9.28  0.03
Si  8.06 -4.60 -0.02
Si  7.90 -0.01  4.89
Si -7.91 -0.03 -4.89
Si -4.05  6.78  4.94
Si -4.05  6.78 -4.95
Si  7.90 -0.01 -4.99
Si -7.91 -0.03  4.99
Si -3.99 -6.86  4.94
Si -3.99 -6.86 -4.94
Si  3.97 -6.90  4.93
Si  3.81  7.02 -4.91
Si  3.97 -6.90 -4.96
Si  7.89  4.47  2.44
Si  3.81  7.02  4.97
Si -7.87 -4.52 -2.50
Si  0.04 -9.12 -2.45
Si -0.09 -9.13  2.46
Si  9.20  2.27 -0.00
Si -9.23 -2.24 -0.01
Si  7.94 -4.62  2.48
Si -0.30  9.19  2.46
Si -0.17  9.20 -2.45
Si  2.60  9.16 -0.08
Si -2.52 -9.19 -0.01
Si -2.73  9.13 -0.01
Si -7.98 -4.69  2.44
Si  8.00  4.65 -2.50
Si  2.82 -9.16 -0.08
Si  6.63  6.92 -0.01
Si  9.31 -2.29 -0.01
Si -6.67 -6.89 -0.00
Si -7.99  4.66 -2.54
Si  8.09 -4.50 -2.54
Si -9.35  2.22 -0.01
Si -8.14  4.54  2.48
Si -6.77  6.88 -0.01
Si  6.73 -6.94 -0.01
Si -6.53 -6.82  2.45
Si -2.51 -9.16 -2.44
Si -6.61 -6.82 -2.47
Si  2.83 -9.07  2.43
Si -9.29  2.13  2.50
Si -9.27 -2.22  2.49
Si -2.60 -9.18  2.47
Si  2.79 -9.10 -2.59
Si -9.31 -2.16 -2.43
Si  9.26  2.35 -2.47
Si -2.72  9.17 -2.44
Si  0.01 -0.01  9.88
Si -2.81  9.14  2.47
Si  6.72 -6.81 -2.47
Si  0.01 -0.01 -9.89
Si  6.55  7.01 -2.43
Si  6.59  6.95  2.49
Si  2.62  9.26  2.43
Si  2.58  9.23 -2.59
Si  9.34  2.34  2.45
Si -6.71  6.89 -2.49
Si -6.71  6.89  2.48
Si  9.37 -2.27  2.48
Si  9.37 -2.28 -2.49
Si -9.36  2.35 -2.47
Si  6.79 -7.03  2.50
Si -1.32  6.75 -7.40
Si -1.17 -6.86 -7.35
Si -5.28 -4.53 -7.37
Si  6.59  2.19  7.38
Si -2.61  0.00  9.80
Si -1.20 -6.77  7.46
Si -6.61  2.30 -7.35
Si  6.61 -2.23  7.38
Si -5.27 -4.53  7.42
Si -6.54 -2.42 -7.40
Si  5.22  4.64 -7.39
Si  5.37 -4.53 -7.37
Si  6.65  2.27 -7.38
Si -1.43  6.87  7.39
Si  1.18  6.93  7.38
Si  1.43 -6.90 -7.38
Si -6.65 -2.30  7.39
Si  1.30  2.23  9.87
Si  5.38 -4.53  7.42
Si -1.34 -2.29  9.87
Si  1.42 -2.24  9.88
Si  1.30  2.22 -9.90
Si  2.70 -0.03  9.88
Si  1.37  6.95 -7.39
Si  1.42 -2.24 -9.89
Si -1.45  2.27  9.88
Si -5.29  4.60  7.47
Si  1.38 -6.98  7.38
Si -1.34 -2.29 -9.90
Si -1.45  2.27 -9.89
Si  2.70 -0.03 -9.89
Si -6.63  2.40  7.46
Si -5.42  4.64 -7.39
Si  5.36  4.60  7.47
Si  6.80 -2.21 -7.39
Si -2.62 -0.00 -9.97
Si -7.86 -4.53 -4.94
Si -7.86 -4.52  4.95
Si  0.19 -9.15 -4.92
Si -0.03  9.17 -4.92
Si  0.19 -9.15  4.96
Si -7.98  4.58  4.87
Si -0.03  9.17  4.96
Si -7.99  4.58 -5.01
Si  8.01  4.64 -4.94
Si  8.01  4.64  4.95
Si  8.10 -4.58  4.87
Si  5.23  9.15 -0.01
Si -5.21 -9.18 -0.01
Si  8.10 -4.58 -5.01
Si -5.42  9.15 -0.01
Si -10.64 -0.01 -0.01
Si 10.66 -0.01 -0.01
Si  5.44 -9.18 -0.01
Si  2.47  9.15  4.89
Si  9.19  2.27  4.93
Si  6.60  6.78  4.94
Si  6.59  6.78 -4.95
Si  9.24 -2.15 -4.91
Si  9.19  2.27 -4.96
Si -2.69  9.13 -4.89
Si -2.48 -9.20 -4.89
Si  9.24 -2.15  4.97
Si  2.47  9.15 -4.99
Si  2.68 -9.17  4.89
Si -2.69  9.13  4.99
Si -2.48 -9.20  4.99
Si  6.66 -6.86  4.94
Si  6.66 -6.86 -4.94
Si -9.27 -2.38  4.94
Si -9.27 -2.38 -4.95
Si  2.68 -9.18 -4.99
Si -6.68 -6.90  4.93
Si -5.27 -9.10 -2.46
Si -6.68 -6.90 -4.96
Si -3.93 -6.81  7.42
Si  5.19  9.15  2.51
Si  8.01  0.07  7.30
Si  3.94  6.89  7.39
Si  4.04 -6.81  7.41
Si  3.93  6.89 -7.40
Si  0.00  4.53 -9.86
Si -3.87 -2.33 -9.87
Si  5.17  9.22 -2.46
Si  5.38 -9.10 -2.46
Si -5.24 -9.18  2.51
Si  4.01  2.29 -9.84
Si -3.87 -2.33  9.90
Si 10.60  0.06 -2.46
Si -7.94  0.01  7.45
Si -9.43  2.30 -4.94
Si -9.43  2.30  4.94
Si  0.06 -4.59 -9.88
Si  0.01  4.54  9.91
Si  4.12 -6.83 -7.43
Si  0.07 -4.58  9.89
Si -3.85 -7.03 -7.39
Si -4.09  2.19  9.87
Si 10.62 -0.01  2.51
Si -4.05  6.94 -7.39
Si -8.03 -0.02 -7.42
Si -4.09  2.19 -9.90
Si  4.01 -2.46 -9.88
Si  5.41 -9.18  2.51
Si -5.46  9.15  2.51
Si  4.01  2.29  9.93
Si  4.01 -2.46  9.89
Si -6.84  7.02 -4.91
Si -10.68 -0.01  2.51
Si  8.05  0.09 -7.45
Si -10.70  0.06 -2.46
Si -6.84  7.02  4.97
Si -5.48  9.22 -2.46
Si -4.09  7.01  7.46
Si  2.63  4.56  9.86
Si -5.29 -0.12 -9.85
Si -2.78  4.49  9.86
Si -2.59 -4.60  9.86
Si  5.36 -0.12 -9.85
Si  2.63  4.56 -9.91
Si  2.65 -4.67  9.86
Si -2.59 -4.60 -9.91
Si -2.78  4.49 -9.91
Si -5.29 -0.12  9.92
Si  5.36 -0.12  9.92
Si  2.65 -4.67 -9.91
Si  9.23  6.70  0.01
Si  1.13 11.36 -0.01
Si -10.59 -4.59  0.01
Si -1.42 11.46  0.04
Si -9.30  6.84  0.01
Si -10.64  4.53  0.02
Si 10.65  4.53  0.02
Si  5.21  9.10 -4.94
Si  1.56 -11.49  0.01
Si  5.22  9.10  4.95
Si -9.31 -6.97 -0.01
Si 10.71 -4.59  0.01
Si  9.44 -6.87  0.04
Si  1.16 11.35 -2.51
Si -1.21 -11.62  0.01
Si -5.43  9.10 -4.94
Si -5.22 -9.23 -4.94
Si -5.43  9.10  4.95
Si -7.87 -4.51  7.39
Si -5.22 -9.23  4.95
Si -10.51 -4.57 -2.41
Si 10.65 -0.07 -4.94
Si  7.89  4.47 -7.45
Si 10.65 -0.06  4.95
Si -10.65 -0.07 -4.94
Si -10.65 -0.06  4.95
Si  1.39 -11.39 -2.50
Si  1.58 -11.37  2.50
Si  9.22  6.87 -2.50
Si  1.22 11.43  2.51
Si  0.04 -9.12  7.44
Si  9.32  6.75  2.48
Si -0.09 -9.13 -7.43
Si -9.22 -6.89  2.51
Si  5.43 -9.23 -4.94
Si -1.22 -11.46 -2.50
Si  5.43 -9.23  4.95
Si  7.94 -4.62 -7.41
Si -7.99  4.66  7.35
Si  8.09 -4.50  7.35
Si -0.30  9.19 -7.43
Si 10.60  4.63 -2.47
Si -1.39 11.47  2.53
Si -10.64 -4.53  2.49
Si -0.17  9.20  7.44
Si 10.59  4.64  2.51
Si  8.00  4.65  7.39
Si 10.66 -4.53  2.49
Si -9.28  6.96  2.50
Si  9.45 -6.77 -2.42
Si -9.27 -6.98 -2.51
Si -7.98 -4.69 -7.45
Si -1.42 11.56 -2.42
Si -1.11 -11.58  2.48
Si -8.14  4.54 -7.41
Si -10.70  4.63 -2.47
Si -10.71  4.64  2.51
Si 10.79 -4.57 -2.41
Si  9.48 -6.86  2.53
Si  2.79 -9.09  7.30
Si -9.47  6.93 -2.50
Si -6.53 -6.83 -7.43
Si -1.42  6.70 -9.88
Si -3.80 -11.40 -0.01
Si -1.42  6.71  9.89
Si  3.77 11.43 -0.00
Si -6.61 -6.81  7.41
Si  2.58  9.23  7.30
Si  6.56  2.19  9.87
Si -7.83 -9.16 -0.08
Si -9.29  2.13 -7.39
Si -9.27 -2.22 -7.39
Si -1.21 -6.87 -9.84
Si -2.51 -9.15  7.45
Si  6.56  2.19 -9.90
Si -5.21 -4.63 -9.86
Si  2.83 -9.07 -7.45
Si  1.35  6.83 -9.87
Si -2.60 -9.18 -7.42
Si  7.92  9.13 -0.01
Si -6.64  2.29 -9.84
Si  9.26  2.35  7.41
Si  6.59  6.94 -7.39
Si  5.28  4.58 -9.88
Si -2.81  9.14 -7.42
Si  1.35  6.84  9.90
Si  6.72 -6.81  7.42
Si -4.13 11.39 -0.01
Si  5.28  4.58  9.89
Si -5.21 -4.63  9.91
Si -2.72  9.17  7.45
Si -9.31 -2.16  7.46
Si -6.71  6.89  7.39
Si -1.21 -6.87  9.93
Si -5.37  4.58 -9.88
