500
set: 285.00  0.00  0.00
Si -0.01  0.02  0.02
Si -1.90  1.13  0.76
Si  1.91  1.14  0.77
Si  0.01 -2.25  0.76
Si  0.02 -0.04 -2.38
Si -1.89  1.03  3.14
Si -1.96 -3.29 -0.01
Si  3.84  0.01  0.05
Si  1.91  1.17  3.13
Si  0.08 -2.25  3.15
Si -1.98  3.34 -0.01
Si  1.89 -3.40 -0.01
Si -1.95 -1.05 -3.20
Si -3.90  0.01  0.05
Si  0.08  2.27 -3.19
Si  1.90  3.44 -0.01
Si  1.99 -1.19 -3.19
Si -1.92 -3.31 -2.36
Si  3.82 -2.22  0.82
Si  3.85 -0.03 -2.33
Si -1.90  3.31 -2.41
Si -1.90 -1.20  3.92
Si -3.88 -0.03 -2.33
Si  1.94 -1.09  3.98
Si -0.03  2.19  4.00
Si -3.91 -2.22  0.82
Si  1.94  3.42 -2.36
Si -0.06  4.51  0.82
Si  1.98 -3.42 -2.41
Si -3.86  2.24 -3.10
Si  3.87  2.24 -3.10
Si  0.02 -4.50 -3.10
Si -0.01  4.46  3.23
Si -3.86 -2.28  3.23
Si  3.87 -2.28  3.23
Si -3.86  2.18  3.96
Si  3.87  2.18  3.96
Si -1.95 -5.59  0.77
Si  3.86  4.49  0.76
Si -3.87  4.49  0.76
Si -5.82  1.14  0.77
Si -1.95 -1.07 -5.56
Si  1.98 -5.60  0.76
Si  5.83  1.13  0.76
Si  1.98 -1.09 -5.58
Si  0.01  2.27 -5.57
Si  0.02 -4.56  3.96
Si  5.78 -3.29 -0.01
Si  5.75  3.34 -0.01
Si -3.78 -4.47 -3.19
Si -0.02 -2.21 -6.29
Si -3.80  4.49  3.15
Si -1.89  5.54 -3.19
Si -5.75 -1.19 -3.19
Si -1.95 -5.57  3.13
Si  1.90 -1.07  6.32
Si  5.78 -1.05 -3.20
Si  5.84  1.03  3.14
Si  1.90  1.12 -6.34
Si -5.83  1.17  3.13
Si -0.02 -6.73  0.05
Si -1.98 -1.18  6.32
Si -0.04  6.74  0.05
Si  3.93  4.49  3.15
Si -1.96  1.23 -6.34
Si -5.84 -3.40 -0.01
Si -0.04  2.23  6.38
Si  3.95 -4.47 -3.19
Si -5.83  3.44 -0.01
Si  1.91  5.68 -3.20
Si  1.99 -5.71  3.14
Si  1.96  5.53  3.92
Si -0.04 -4.44 -5.51
Si  3.82  2.29 -5.51
Si  5.81 -3.31 -2.36
Si -0.03  6.71 -2.33
Si -5.80 -1.09  3.98
Si -5.76 -3.42 -2.41
Si  5.83  3.31 -2.41
Si  5.83 -1.20  3.92
Si -5.80  3.42 -2.36
Si -3.91  2.29 -5.51
Si -0.01 -6.76 -2.33
Si -0.06 -0.00  7.15
Si -1.94  5.64  3.98
Si  3.85 -4.54  4.00
Si -3.88 -4.54  4.00
Si -3.86 -2.20 -6.32
Si  7.72  0.02  0.02
Si  3.87 -2.20 -6.32
Si -7.74  0.02  0.02
Si -3.87 -6.71  0.02
Si  3.87 -6.71  0.02
Si  3.85  2.24  6.35
Si -3.88  2.24  6.35
Si  3.85  6.76  0.02
Si -0.01  4.54 -6.32
Si -0.01 -4.49  6.35
Si -3.88  6.76  0.02
Si -5.75 -5.60  0.76
Si -7.71 -0.04 -2.38
Si  3.86 -0.03  7.09
Si -7.72 -2.25  0.76
Si -3.87 -0.03  7.09
Si -1.90 -3.38  7.09
Si  5.78 -5.59  0.77
Si -3.86  6.69 -2.38
Si  1.96  3.35  7.09
Si -5.75 -1.09 -5.58
Si  3.87  6.69 -2.38
Si  1.91 -3.37  7.11
Si  5.78 -1.07 -5.56
Si  7.74 -2.25  0.76
Si -1.97  3.36  7.11
Si  7.75 -0.04 -2.38
Si -3.85 -4.46 -5.57
Si  3.88 -4.46 -5.57
Si -3.84 -6.78 -2.38
Si  1.96  7.87  0.76
Si -1.97  7.88  0.77
Si  1.91  5.66 -5.56
Si -1.90  5.65 -5.58
Si  3.89 -6.78 -2.38
Si -7.66 -2.25  3.15
Si -7.66  2.27 -3.19
Si  1.97  7.76  3.14
Si  5.78 -5.57  3.13
Si  1.92 -5.51 -6.34
Si  1.87  5.56  6.32
Si  5.75 -1.18  6.32
Si  1.93 -7.79 -3.20
Si  3.84  4.52 -6.29
Si  5.84  5.54 -3.19
Si  5.78  1.23 -6.34
Si -3.90  4.52 -6.29
Si -5.83 -1.07  6.32
Si -5.75 -5.71  3.14
Si -5.84  1.12 -6.34
Si -1.96 -5.62 -6.34
Si  3.84 -4.51  6.38
Si  7.81 -2.25  3.15
Si -1.98  5.66  6.32
Si -1.97  7.90  3.13
Si -3.90 -4.51  6.38
Si  7.81  2.27 -3.19
Si -5.83  5.68 -3.20
Si -1.87 -7.92 -3.19
Si -5.78  5.53  3.92
Si  7.68  4.51  0.82
Si -0.01 -2.25 -8.66
Si  7.71  2.19  4.00
Si -1.92  1.21 -8.69
Si -1.92 -7.83  3.98
Si -0.04 -8.96  0.82
Si -7.76  2.19  4.00
Si  5.79  5.64  3.98
Si  1.98  1.09 -8.74
Si -7.79  4.51  0.82
Si  1.98 -7.94  3.92
Si  0.02  0.02 -9.44
Si -7.72 -4.50 -3.10
Si  7.75 -4.50 -3.10
Si  7.73  4.46  3.23
Si -0.01  8.97 -3.10
Si -7.74  4.46  3.23
Si -0.01 -0.06  9.56
Si  0.01 -9.01  3.23
Si -9.63  1.13  0.76
Si  9.64  1.14  0.77
Si -5.78  3.35  7.09
Si  5.76  3.36  7.11
Si -0.00  8.91  3.96
Si -0.01  6.71  7.09
Si  1.93 -7.81 -5.56
Si -3.84 -2.26 -8.71
Si  5.83 -3.38  7.09
Si -1.88 -7.82 -5.58
Si -5.82 -3.37  7.11
Si  0.02  4.47 -8.71
Si -7.72  2.27 -5.57
Si -5.78  7.87  0.76
Si  5.76  7.88  0.77
Si -7.71 -4.56  3.96
Si -3.85 -8.98  0.76
Si  0.01 -6.76  7.09
Si  7.74  2.27 -5.57
Si  3.89 -2.26 -8.71
Si  3.88 -8.98  0.76
Si  7.75 -4.56  3.96
Si -5.82  5.66 -5.56
Si  5.83  5.65 -5.58
Si -5.77  7.76  3.14
Si -9.62  1.03  3.14
Si  7.71 -2.21 -6.29
Si  9.64  1.17  3.13
Si  1.97  3.25  9.47
Si  9.63 -3.40 -0.01
Si  1.92 -10.03 -0.01
Si -3.80 -0.03  9.48
Si -5.81 -5.51 -6.34
Si  1.91 -3.35  9.46
Si -7.75 -2.21 -6.29
Si -5.80 -7.79 -3.20
Si  7.69  6.74  0.05
Si  9.63  3.44 -0.01
Si -9.69 -3.29 -0.01
Si -1.96 -7.81  6.32
Si  7.71 -6.73  0.05
Si  7.69  2.23  6.38
Si -3.78  0.05 -9.52
Si -3.78 -8.98  3.15
Si -1.97  3.38  9.46
Si  1.87 10.07 -0.01
Si  5.77 -5.62 -6.34
Si -9.68 -1.05 -3.20
Si -5.86  5.56  6.32
Si  5.76  5.66  6.32
Si  1.93 -3.27 -9.53
Si  3.93 -0.03  9.48
Si -7.75 -6.73  0.05
Si  5.76  7.90  3.13
Si -1.89 -3.49  9.47
Si -9.71  3.34 -0.01
Si -3.80  9.00 -3.19
Si  1.99  3.33 -9.52
Si -1.87 -3.41 -9.52
Si -7.77  6.74  0.05
Si -1.98  7.85 -6.34
Si  9.72 -1.19 -3.19
Si -7.77  2.23  6.38
Si  1.89 -7.91  6.32
Si  3.95  0.05 -9.52
Si  3.95 -8.98  3.15
Si -1.96 -10.13 -0.01
Si  3.93  9.00 -3.19
Si -1.95  3.46 -9.53
Si  1.90  7.96 -6.34
Si  5.86 -7.92 -3.19
Si -1.98 10.18 -0.01
Si  7.70 -4.44 -5.51
Si -9.63  3.31 -2.41
Si -9.63 -1.20  3.92
Si -9.65 -3.31 -2.36
Si  7.71  6.71 -2.33
Si  1.96 -5.53 -8.69
Si  3.85  4.49 -8.66
Si  1.96  1.02 10.26
Si  7.68 -0.00  7.15
Si -3.88  4.49 -8.66
Si  1.96 -10.04 -2.36
Si  3.83  8.93  4.00
Si -7.77 -4.44 -5.51
Si  9.67 -1.09  3.98
Si  1.96 10.05 -2.41
Si -7.76  6.71 -2.33
Si  5.81  1.21 -8.69
Si -5.75  1.09 -8.74
Si  9.67  3.42 -2.36
Si  5.81 -7.83  3.98
Si  7.73 -6.76 -2.33
Si  3.80  6.73  7.15
Si -3.90  8.93  4.00
Si -7.74 -6.76 -2.33
Si  3.82 -6.74  7.15
Si -1.94  1.13 10.31
Si -5.76 -7.94  3.92
Si  9.71 -3.42 -2.41
Si -1.88 -5.64 -8.74
Si -7.79 -0.00  7.15
Si -3.91 -6.74  7.15
Si -0.06  9.03 -5.51
Si -3.93  6.73  7.15
Si -0.03 -2.32 10.34
Si -1.88 -10.16 -2.41
Si -1.94 10.16 -2.36
Si  0.01 -8.93 -6.32
Si  7.72  4.54 -6.32
Si  7.72 -4.49  6.35
Si -7.74  4.54 -6.32
Si -7.74 -4.49  6.35
Si -0.03  8.98  6.35
Si -0.00  4.40 10.29
Si -9.68 -5.59  0.77
Si -5.80 -7.81 -5.56
Si -9.68 -1.07 -5.56
Si  9.71 -5.60  0.76
Si -3.86 -2.34 10.29
Si  3.87 -2.34 10.29
Si  5.85 -7.82 -5.58
Si  9.71 -1.09 -5.58
Si -0.01 11.22  0.76
Si  3.86  9.00 -5.57
Si -3.87  9.00 -5.57
Si -9.62  5.54 -3.19
Si -5.77  3.25  9.47
Si 11.57  0.01  0.05
Si  9.63 -1.07  6.32
Si  9.63  1.12 -6.34
Si  5.76  3.38  9.46
Si -5.81 -10.03 -0.01
Si  5.78 -7.81  6.32
Si  3.86 -8.95 -6.29
Si -9.68 -5.57  3.13
Si -3.87 -8.95 -6.29
Si -5.83 -3.35  9.46
Si -5.75  3.33 -9.52
Si  0.06  6.71  9.48
Si  5.75  7.85 -6.34
Si -11.63  0.01  0.05
Si -5.80 -3.27 -9.53
Si  0.10 -6.69 -9.52
Si  9.64  5.68 -3.20
Si -9.69  1.23 -6.34
Si  3.82  8.96  6.38
Si  0.08 -6.76  9.48
Si  0.10 -11.20 -3.19
Si -9.71 -1.18  6.32
Si -5.86 10.07 -0.01
Si  0.06 11.22  3.15
Si  5.77 -10.13 -0.01
Si  5.84 -3.49  9.47
Si  5.78  3.46 -9.53
Si -3.92  8.96  6.38
Si  0.08  6.78 -9.52
Si -5.84 -7.91  6.32
Si  5.86 -3.41 -9.52
Si  5.76 10.18 -0.01
Si  9.72 -5.71  3.14
Si -5.83  7.96 -6.34
Si 11.55 -2.22  0.82
Si -5.78 -5.53 -8.69
Si -5.78  1.02 10.26
Si 11.58 -0.03 -2.33
Si  7.73 -2.25 -8.66
Si -5.78 -10.04 -2.36
Si  9.69  5.53  3.92
Si -7.74 -2.25 -8.66
Si  7.70 -8.96  0.82
Si -5.78 10.05 -2.41
Si -11.61 -0.03 -2.33
Si -0.03  0.07 -11.84
Si  3.83  4.41 10.34
Si  5.79  1.13 10.31
Si -11.64 -2.22  0.82
Si -7.77 -8.96  0.82
Si -9.67  5.64  3.98
Si -1.90  7.83 -8.74
Si  1.94 -5.61 10.31
Si -1.90 -5.72 10.26
Si -3.90  4.41 10.34
Si  3.80 11.25  0.82
Si  1.94  7.94 -8.69
Si  5.79 10.16 -2.36
Si  5.85 -5.64 -8.74
Si -3.93 11.25  0.82
Si -0.01 -11.28  4.00
Si  5.85 -10.16 -2.41
Si -7.72  0.02 -9.44
Si -3.84 -6.72 -9.44
Si -11.59  2.24 -3.10
Si  7.75  0.02 -9.44
Si 11.60  2.24 -3.10
Si  3.89 -6.72 -9.44
Si -3.86  6.75 -9.44
Si  3.87  6.75 -9.44
Si  7.73  8.97 -3.10
Si -7.74  8.97 -3.10
Si -11.59 -2.28  3.23
Si 11.60 -2.28  3.23
Si  3.85 11.19  3.23
Si -3.84 -11.23 -3.10
Si -3.88 11.19  3.23
Si  3.85  6.67  9.56
Si  3.89 -11.23 -3.10
Si -3.88  6.67  9.56
Si  7.73 -0.06  9.56
Si -7.72 -9.01  3.23
Si -7.74 -0.06  9.56
Si  7.75 -9.01  3.23
Si -3.86 -6.79  9.56
Si  3.87 -6.79  9.56
Si -9.63 -3.38  7.09
Si -11.59  2.18  3.96
Si  9.64 -3.37  7.11
Si  7.73  8.91  3.96
Si -7.73  8.91  3.96
Si  7.72  6.71  7.09
Si 11.61  2.18  3.96
Si 11.60  4.49  0.76
Si -11.60  4.49  0.76
Si -7.74  6.71  7.09
Si -7.71  4.47 -8.71
Si  9.69  3.35  7.09
Si -7.72 -6.76  7.09
Si -1.92 10.09  7.09
Si -9.63  5.65 -5.58
Si  9.64  5.66 -5.56
Si  7.75  4.47 -8.71
Si -9.70  3.36  7.11
Si  7.74 -6.76  7.09
Si  1.93 -3.29 -11.89
Si  1.89 10.10  7.11
Si  1.93 -12.32  0.77
Si -1.88 -3.31 -11.91
Si -1.88 -12.34  0.76
Si  9.69  7.87  0.76
Si -1.95 -10.11  7.11
Si  0.03 -11.20 -5.57
Si -3.85  0.05 -11.90
Si  1.98 -10.12  7.09
Si  0.04 -9.00 -8.71
Si -9.70  7.88  0.77
Si  3.88  0.05 -11.90
Si -1.95  3.44 -11.89
Si  1.98  3.43 -11.91
Si -3.84 -11.29  3.96
Si  3.89 -11.29  3.96
Si -11.51 -4.47 -3.19
Si -11.53  4.49  3.15
Si  9.61  5.56  6.32
Si  9.65 -5.51 -6.34
Si  9.70  7.76  3.14
Si  9.66 -7.79 -3.20
Si -0.02  2.30 -12.62
Si  1.87  1.04 12.65
Si  1.97 12.28 -3.19
Si  1.93 -12.30  3.13
Si -9.60 -7.92 -3.19
Si  1.92 -0.99 -12.67
Si -1.98  1.15 12.66
Si -9.69 -5.62 -6.34
Si -1.96 -1.10 -12.68
Si 11.66  4.49  3.15
Si -0.04 11.26 -6.29
Si -9.71  5.66  6.32
Si -9.70  7.90  3.13
Si 11.68 -4.47 -3.19
Si -0.04 -2.29 12.71
Si -0.02 -11.24  6.38
Si -1.87 -12.44  3.14
Si -1.97 12.41 -3.20
Si -1.92  7.75 10.26
Si 11.55  2.29 -5.51
Si -1.92 12.27  3.92
Si  3.84 -11.18 -5.51
Si -9.65  1.21 -8.69
Si -9.65 -7.83  3.98
Si -3.89 -11.18 -5.51
Si -3.86 -8.98 -8.66
Si  3.87 -8.98 -8.66
Si 11.58 -4.54  4.00
Si  7.68  9.03 -5.51
Si -11.64  2.29 -5.51
Si -5.80 -5.61 10.31
Si -11.61 -4.54  4.00
Si  7.71 -2.32 10.34
Si  5.83  7.83 -8.74
Si  1.92  7.86 10.31
Si  9.71  1.09 -8.74
Si  5.83 -5.72 10.26
Si -5.79  7.94 -8.69
Si -7.76 -2.32 10.34
Si -7.79  9.03 -5.51
Si  9.71 -7.94  3.92
Si  1.92 12.38  3.98
Si -11.60 -2.20 -6.32
Si 11.60 -2.20 -6.32
Si -7.72 -8.93 -6.32
Si 11.58  2.24  6.35
Si  0.01 -4.42 -12.65
Si -11.60 -6.71  0.02
Si 11.60 -6.71  0.02
Si  7.74 -8.93 -6.32
Si 11.58  6.76  0.02
Si  7.70  8.98  6.35
Si -3.86  2.32 -12.65
Si  3.87  2.32 -12.65
Si -11.62  2.24  6.35
Si -11.62  6.76  0.02
Si -0.03  4.46 12.68
Si  0.01 -13.45  0.02
Si  3.85 -2.27 12.68
Si -3.89 -2.27 12.68
Si -7.76  8.98  6.35
Si -3.87 -11.23  6.35
Si  3.87 -11.23  6.35
Si  3.85 11.27 -6.32
Si -0.03 13.49  0.02
Si -3.88 11.27 -6.32
Si -9.61 -7.82 -5.58
Si -11.59  6.69 -2.38
Si 11.60 -0.03  7.09
Si -11.60 -0.03  7.09
Si  7.73  4.40 10.29
Si -7.74  4.40 10.29
Si -11.58 -4.46 -5.57
Si -0.01  2.19 13.43
Si 11.61  6.69 -2.38
Si  9.66 -7.81 -5.56
Si  1.96 -1.16 13.42
