500
set: 1183.00  0.00  0.00
Si -0.50  0.46 -0.56
Si -0.33  0.44  1.76
Si  0.61 -1.83 -0.68
Si  2.16  0.39 -0.72
Si  0.73 -1.73  1.67
Si -1.79 -1.89 -0.70
Si  2.12  0.59  1.58
Si  0.98  2.49 -0.70
Si -0.33  0.54 -2.91
Si -2.05 -1.57  1.55
Si -2.93  0.39 -0.72
Si -1.72  2.55 -0.68
Si  0.71  2.81  1.55
Si -2.96  0.59  1.58
Si  0.73 -1.63 -3.00
Si -1.59  2.65  1.67
Si  3.04 -1.57  1.55
Si  2.13  0.70 -3.08
Si  3.30 -1.89 -0.70
Si -2.05 -1.47 -3.12
Si -0.61 -3.99 -0.72
Si -0.64 -3.79  1.58
Si -0.51  0.36  4.11
Si  3.37  2.55 -0.68
Si  0.72  2.91 -3.12
Si -2.96  0.70 -3.08
Si  1.82 -3.92 -0.56
Si -1.59  2.75 -3.00
Si  0.60 -1.94  3.99
Si  2.15  0.29  3.95
Si  3.04 -1.47 -3.12
Si  4.58  0.46 -0.56
Si  3.50  2.65  1.67
Si  0.97  2.39  3.96
Si  1.99 -3.94  1.76
Si -1.79 -2.00  3.96
Si -0.17  4.77 -0.72
Si -0.64 -3.68 -3.08
Si -4.11  2.49 -0.70
Si -4.48 -1.83 -0.68
Si -2.93  0.29  3.95
Si -4.36 -1.73  1.67
Si -1.72  2.44  3.99
Si  4.76  0.44  1.76
Si -3.27 -3.92 -0.56
Si  2.00 -3.84 -2.91
Si -0.20  4.98  1.58
Si -0.50  0.57 -5.22
Si -3.10 -3.94  1.76
Si  3.50  2.75 -3.00
Si  2.26  4.84 -0.56
Si -4.37  2.81  1.55
Si  3.30 -2.00  3.96
Si -4.35 -1.63 -3.00
Si  4.76  0.54 -2.91
Si -2.83  4.84 -0.56
Si -5.59  0.46 -0.56
Si  0.61 -1.73 -5.35
Si  2.43  4.82  1.76
Si -5.42  0.44  1.76
Si -0.61 -4.09  3.95
Si -3.09 -3.84 -2.91
Si  3.37  2.44  3.99
Si -2.65  4.82  1.76
Si  2.16  0.49 -5.39
Si -1.78 -1.79 -5.37
Si -0.20  5.08 -3.08
Si  5.69 -1.83 -0.68
Si  1.81 -4.02  4.11
Si  4.48 -3.99 -0.72
Si  0.98  2.59 -5.37
Si  4.45 -3.79  1.58
Si -4.37  2.91 -3.12
Si -0.17  4.67  3.95
Si -2.93  0.49 -5.39
Si  0.27 -5.95  1.55
Si  4.58  0.36  4.11
Si -5.42  0.54 -2.91
Si -4.12  2.39  3.96
Si -1.71  2.65 -5.35
Si  2.44  4.92 -2.91
Si  5.82 -1.73  1.67
Si -2.65  4.92 -2.91
Si -4.49 -1.94  3.99
Si  0.53 -6.27 -0.70
Si -0.33  0.34  6.43
Si  4.45 -3.68 -3.08
Si  3.30 -1.79 -5.37
Si  6.07  2.49 -0.70
Si -2.16 -6.21 -0.68
Si -3.27 -4.02  4.11
Si  2.12  0.49  6.25
Si  5.80  2.81  1.55
Si  0.28 -5.85 -3.12
Si  0.73 -1.84  6.34
Si -2.03 -6.11  1.67
Si -0.60 -3.89 -5.39
Si  2.26  4.74  4.11
Si  1.82 -3.81 -5.22
Si  5.82 -1.63 -3.00
Si -2.05 -1.67  6.22
Si  0.71  2.71  6.22
Si  3.38  2.65 -5.35
Si -2.83  4.74  4.11
Si  4.92  4.77 -0.72
Si  2.93 -6.21 -0.68
Si -2.97  0.49  6.25
Si -5.60  0.36  4.11
Si  4.59  0.57 -5.22
Si -5.70 -3.99 -0.72
Si -1.60  2.54  6.34
Si -2.03 -6.01 -3.00
Si -1.35  6.87 -0.70
Si  3.05 -6.11  1.67
Si  1.05  6.93 -0.68
Si -5.73 -3.79  1.58
Si  3.03 -1.67  6.22
Si -5.25  4.77 -0.72
Si  4.89  4.98  1.58
Si -6.88 -1.89 -0.70
Si -4.48 -1.73 -5.35
Si  5.81  2.91 -3.12
Si  5.69 -1.94  3.99
Si  4.48 -4.09  3.95
Si -4.11  2.59 -5.37
Si -3.27 -3.81 -5.22
Si -0.16  4.88 -5.39
Si  7.25  0.39 -0.72
Si -6.80  2.55 -0.68
Si  1.17  7.03  1.67
Si -6.68  2.65  1.67
Si  3.06 -6.01 -3.00
Si -0.65 -3.89  6.25
Si  7.21  0.59  1.58
Si -5.29  4.98  1.58
Si -7.14 -1.57  1.55
Si -5.73 -3.68 -3.08
Si  0.53 -6.38  3.96
Si -1.61  7.19  1.55
Si  2.26  4.95 -5.22
Si -0.32  0.65 -7.57
Si  6.06  2.39  3.96
Si -5.59  0.57 -5.22
Si  3.49  2.54  6.34
Si  4.89  5.08 -3.08
Si -2.82  4.95 -5.22
Si -2.16 -6.32  3.99
Si -4.55 -6.27 -0.70
Si -4.82 -5.95  1.55
Si -6.68  2.75 -3.00
Si  1.18  7.13 -3.00
Si  4.92  4.67  3.95
Si  0.74 -1.53 -7.66
Si  1.99 -4.04  6.43
Si  3.74  6.87 -0.70
Si  7.21  0.70 -3.08
Si -4.36 -1.84  6.34
Si -7.13 -1.47 -3.12
Si -0.20  4.87  6.25
Si -5.28  5.08 -3.08
Si -1.35  6.77  3.96
Si  6.91 -3.92 -0.56
Si  1.04  6.82  3.99
Si  5.70 -1.73 -5.35
Si  4.75  0.34  6.43
Si  4.48 -3.89 -5.39
Si  2.92 -6.32  3.99
Si -4.04  6.93 -0.68
Si -5.70 -4.09  3.95
Si -8.02  0.39 -0.72
Si -5.26  4.67  3.95
Si -4.38  2.71  6.22
Si  2.13  0.80 -7.75
Si -1.60  7.29 -3.12
Si  3.48  7.19  1.55
Si  5.36 -5.95  1.55
Si -2.04 -1.36 -7.79
Si -6.88 -2.00  3.96
Si -4.81 -5.85 -3.12
Si  0.54 -6.17 -5.37
Si -3.10 -4.04  6.43
Si -3.92  7.03  1.67
Si -8.05  0.59  1.58
Si  7.24  0.29  3.95
Si -6.81  2.44  3.99
Si  7.08 -3.94  1.76
Si -1.58  2.85 -7.66
Si -2.96  0.80 -7.75
Si  2.43  4.72  6.43
Si -0.95 -8.30 -0.56
Si  0.72  3.02 -7.79
Si -2.15 -6.11 -5.35
Si -2.66  4.72  6.43
Si -5.42  0.34  6.43
Si  8.12 -1.57  1.55
Si  5.62 -6.27 -0.70
Si  3.04 -1.36 -7.79
Si  1.68 -8.17  1.58
Si  6.07  2.59 -5.37
Si  5.36 -5.85 -3.12
Si -0.77 -8.32  1.76
Si -0.63 -3.58 -7.75
Si  7.08 -3.84 -2.91
Si  1.72 -8.37 -0.72
Si  4.44 -3.89  6.25
Si  8.39 -1.89 -0.70
Si  2.93 -6.11 -5.35
Si -8.05  0.70 -3.08
Si  3.48  7.29 -3.12
Si -3.91  7.13 -3.00
Si  2.00 -3.73 -7.57
Si  0.27 -6.05  6.22
Si  3.74  6.77  3.96
Si -5.69 -3.89 -5.39
Si -0.77 -8.22 -2.91
Si  4.93  4.88 -5.39
Si -4.56 -6.38  3.96
Si  1.69 -8.06 -3.08
Si  5.82 -1.84  6.34
Si -0.51  0.26  8.78
Si  7.35  4.84 -0.56
Si  8.13 -1.47 -3.12
Si  8.46  2.55 -0.68
Si -4.04  6.82  3.99
Si  2.15  0.18  8.62
Si  1.05  7.03 -5.35
Si  3.50  2.85 -7.66
Si -1.34  6.97 -5.37
Si -6.87 -1.79 -5.37
Si  0.60 -2.04  8.66
Si  5.80  2.71  6.22
Si -4.35 -1.53 -7.66
Si -8.02  0.29  3.95
Si -5.25  4.88 -5.39
Si  4.76  0.65 -7.57
Si  0.97  2.28  8.63
Si  6.90 -4.02  4.11
Si -3.41 -8.17  1.58
Si -3.09 -3.73 -7.57
Si  7.25  0.49 -5.39
Si -6.80  2.65 -5.35
Si -3.37 -8.37 -0.72
Si -1.80 -2.10  8.63
Si -2.94  0.18  8.62
Si  7.52  4.82  1.76
Si -2.04 -6.22  6.34
Si -1.72  2.34  8.66
Si  8.58  2.65  1.67
Si -0.06  9.22 -0.56
Si -8.36 -3.92 -0.56
Si -8.18 -3.94  1.76
Si  6.14  6.93 -0.68
Si -3.40 -8.06 -3.08
Si -7.74  4.82  1.76
Si  4.14 -8.30 -0.56
Si -7.92  4.84 -0.56
Si  4.88  4.87  6.25
Si -0.19  5.18 -7.75
Si -5.73 -3.89  6.25
Si -5.41  0.65 -7.57
Si -4.55 -6.17 -5.37
Si  0.11  9.20  1.76
Si  5.62 -6.38  3.96
Si  3.05 -6.22  6.34
Si -0.95 -8.40  4.11
Si  2.44  5.03 -7.57
Si -4.37  3.02 -7.79
Si -6.43  6.87 -0.70
Si  7.53  4.92 -2.91
Si  1.17  6.92  6.34
Si  6.91 -3.81 -5.22
Si -2.65  5.03 -7.57
Si  3.29 -2.10  8.63
Si  8.38 -2.00  3.96
Si -8.18 -3.84 -2.91
Si  8.59  2.75 -3.00
Si  1.71 -8.47  3.95
Si -2.49  9.15 -0.72
Si -5.29  4.87  6.25
Si -7.12 -6.11  1.67
Si  4.32 -8.32  1.76
Si  2.60  9.15 -0.72
Si  7.21  0.49  6.25
Si -9.20  2.49 -0.70
Si -6.68  2.54  6.34
Si  6.26  7.03  1.67
Si  3.75  6.97 -5.37
Si -1.61  7.09  6.22
Si -7.25 -6.21 -0.68
Si  3.36  2.34  8.66
Si -0.61 -4.20  8.62
Si -7.14 -1.67  6.22
Si -7.74  4.92 -2.91
Si  4.45 -3.58 -7.75
Si  7.34  4.74  4.11
Si  8.46  2.44  3.99
Si -8.02  0.49 -5.39
Si  0.28 -5.75 -7.79
Si  9.67  0.46 -0.56
Si -4.04  7.03 -5.35
Si  4.32 -8.22 -2.91
Si -9.45 -1.73  1.67
Si  5.83 -1.53 -7.66
Si  0.12  9.30 -2.91
Si -0.17  4.57  8.62
Si -0.94 -8.19 -5.22
Si -9.57 -1.83 -0.68
Si -7.12 -6.01 -3.00
Si -2.52  9.36  1.58
Si  2.57  9.36  1.58
Si -4.12  2.28  8.63
Si  1.81 -4.12  8.78
Si -2.03 -5.91 -7.66
Si  4.58  0.26  8.78
Si -0.50  0.67 -9.89
Si -4.82 -6.05  6.22
Si  5.63 -6.17 -5.37
Si -3.38 -8.47  3.95
Si -6.70  7.19  1.55
Si  6.26  7.13 -3.00
Si -4.49 -2.04  8.66
Si -9.46  2.81  1.55
Si  6.13  6.82  3.99
Si -0.07  9.12  4.11
Si  9.85  0.44  1.76
Si  1.72 -8.27 -5.39
Si -9.44 -1.63 -3.00
Si  3.48  7.09  6.22
Si -7.92  4.74  4.11
Si  8.39 -1.79 -5.37
Si -6.44  6.77  3.96
Si -8.36 -4.02  4.11
Si  3.06 -5.91 -7.66
Si  0.61 -1.63 -10.01
Si  8.02 -6.21 -0.68
Si  5.81  3.02 -7.79
Si -3.92  6.92  6.34
Si -2.49  9.05  3.95
Si  2.25  4.64  8.78
Si  5.36 -6.05  6.22
Si -8.06  0.49  6.25
Si  2.60  9.05  3.95
Si  4.14 -8.40  4.11
Si -3.28 -4.12  8.78
Si -2.52  9.46 -3.08
Si -6.04 -8.30 -0.56
Si  2.57  9.46 -3.08
Si -5.72 -3.58 -7.75
Si  9.85  0.54 -2.91
Si  7.35  4.95 -5.22
Si -9.20  2.39  3.96
Si  2.16  0.60 -10.05
Si  8.14 -6.11  1.67
Si -2.83  4.64  8.78
Si -5.86 -8.32  1.76
Si -1.78 -1.69 -10.04
Si  8.46  2.65 -5.35
Si  8.12 -1.67  6.22
Si -9.46  2.91 -3.12
Si -6.69  7.29 -3.12
Si  9.54 -3.79  1.58
Si  7.08 -4.04  6.43
Si  9.57 -3.99 -0.72
Si -7.25 -6.32  3.99
Si -5.60  0.26  8.78
Si -3.37 -8.27 -5.39
Si  0.98  2.69 -10.04
Si -2.92  0.60 -10.05
Si  1.68 -8.27  6.25
Si -5.86 -8.22 -2.91
Si  9.67  0.36  4.11
Si  5.03  9.22 -0.56
Si -1.71  2.75 -10.01
Si  4.90  5.18 -7.75
Si -9.57 -1.94  3.99
Si -6.67  2.85 -7.66
Si  8.14 -6.01 -3.00
Si  5.69 -2.04  8.66
Si  4.14 -8.19 -5.22
Si -8.35 -3.81 -5.22
Si  4.47 -4.20  8.62
Si -5.15  9.22 -0.56
Si  1.18  7.23 -7.66
Si -4.98  9.20  1.76
Si  0.16 -10.60 -0.68
Si  7.22  0.80 -7.75
Si -0.78 -8.42  6.43
Si  0.29 -10.49  1.67
Si -7.13 -1.36 -7.79
Si -10.51  0.44  1.76
Si  9.54 -3.68 -3.08
Si -0.06  9.33 -5.22
Si -7.91  4.95 -5.22
Si  3.31 -1.69 -10.04
Si -10.68  0.46 -0.56
Si  5.20  9.20  1.76
Si -5.28  5.18 -7.75
Si  1.83 -3.71 -9.89
Si  6.77 -8.17  1.58
Si -2.49 -10.33  1.55
Si  6.14  7.03 -5.35
Si -0.60 -3.78 -10.05
Si  2.60 -10.33  1.55
Si  6.06  2.28  8.63
Si -4.81 -5.75 -7.79
Si  0.53 -6.48  8.63
Si  6.80 -8.37 -0.72
Si  0.29 -10.39 -3.00
Si -1.60  7.40 -7.79
Si -7.24 -6.11 -5.35
Si -6.43  6.97 -5.37
Si -2.23 -10.65 -0.70
Si -10.50  0.54 -2.91
Si -3.41 -8.27  6.25
Si  4.92  4.57  8.62
Si  3.38  2.75 -10.01
Si  4.59  0.67 -9.89
Si -4.97  9.30 -2.91
Si  8.01 -6.32  3.99
Si 10.78 -1.83 -0.68
Si  7.52  4.72  6.43
Si -9.20  2.59 -5.37
Si  8.58  2.54  6.34
Si  6.77 -8.06 -3.08
Si -2.49 -10.23 -3.12
Si -1.35  6.66  8.63
Si -2.48  9.26 -5.39
Si -2.17 -6.42  8.66
Si  2.60 -10.23 -3.12
Si  9.68  0.57 -5.22
Si  1.04  6.72  8.66
Si  2.60  9.26 -5.39
Si  7.09 -3.73 -7.57
Si  5.20  9.30 -2.91
Si  2.86 -10.65 -0.70
Si -3.26 -3.71 -9.89
Si  5.37 -5.75 -7.79
Si -5.26  4.57  8.62
Si -4.47 -1.63 -10.01
Si -9.57 -1.73 -5.35
Si -0.34  0.23 11.10
Si 10.01  4.77 -0.72
Si -7.75  4.72  6.43
Si -0.77 -8.12 -7.57
Si  9.56 -4.09  3.95
Si  2.12  0.39 10.92
Si -6.04 -8.40  4.11
Si  0.11  9.10  6.43
Si -5.70 -4.20  8.62
Si -8.19 -4.04  6.43
Si  2.92 -6.42  8.66
Si 10.91 -1.73  1.67
Si -4.10  2.69 -10.04
Si  5.02  9.12  4.11
Si  0.72 -1.94 11.01
Si -8.04  0.80 -7.75
Si  8.83  6.87 -0.70
Si  0.71  2.60 10.89
Si -0.16  4.98 -10.05
Si -2.06 -1.78 10.89
Si -6.88 -2.10  8.63
Si  1.69 -7.96 -7.75
Si -3.91  7.23 -7.66
Si  7.24  0.18  8.62
Si -5.15  9.12  4.11
Si  9.98  4.98  1.58
Si -6.81  2.34  8.66
Si  6.26  6.92  6.34
Si  3.49  7.40 -7.79
Si  8.57  7.19  1.55
Si -2.97  0.39 10.92
Si  2.27  5.05 -9.89
Si  8.13 -1.36 -7.79
Si 10.89  2.81  1.55
Si  1.42 11.25 -0.70
Si -5.58  0.67 -9.89
Si -7.13 -6.22  6.34
Si -1.60  2.44 11.01
Si -1.27 11.31 -0.68
Si -10.34  4.77 -0.72
Si  8.02 -6.11 -5.35
Si  0.16 -10.70  3.99
Si 10.91 -1.63 -3.00
Si -6.03 -8.19 -5.22
Si  3.03 -1.78 10.89
Si  4.31 -8.42  6.43
Si 11.15  2.49 -0.70
Si -2.53  9.25  6.25
Si -10.68  0.36  4.11
Si  2.56  9.25  6.25
Si -2.82  5.05 -9.89
Si -9.13  6.93 -0.68
Si -10.78 -3.99 -0.72
Si -9.64 -6.27 -0.70
Si -9.45 -1.84  6.34
Si  3.73  6.66  8.63
Si -9.00  7.03  1.67
Si  6.80 -8.47  3.95
Si -6.70  7.09  6.22
Si -10.82 -3.79  1.58
