500
set: 1372.00  0.00  0.00
Si  0.76  0.56  0.36
Si -0.74  0.80 -1.48
Si  0.95 -1.26  1.65
Si  2.37  0.84 -1.35
Si  0.23  2.44  1.65
Si  1.70 -1.32 -2.34
Si -0.01 -2.90 -1.48
Si  0.98  2.38 -2.34
Si  1.48 -3.14  0.36
Si -3.15  0.84 -1.35
Si -0.59 -0.17 -3.66
Si -0.66 -1.59  3.34
Si -2.43 -2.86 -1.35
Si -1.38  2.11  3.34
Si  0.03  4.26  0.36
Si -0.01  0.56  4.33
Si  1.72  2.13  3.47
Si  3.09 -2.86 -1.35
Si  2.45 -1.57  3.47
Si -3.81 -1.32 -2.34
Si -4.76  0.56  0.36
Si  1.14  1.40 -4.51
Si -3.07 -1.57  3.47
Si -1.46  4.50 -1.48
Si -4.56 -1.26  1.65
Si  1.64  4.54 -1.35
Si  4.78  0.80 -1.48
Si -4.04 -3.14  0.36
Si -1.97  1.37 -4.64
Si -1.31  3.53 -3.66
Si  0.14 -3.87 -3.66
Si -1.24 -2.33 -4.64
Si  0.72 -3.14  4.33
Si  1.86 -2.30 -4.51
Si  1.68 -4.96  1.65
Si -3.79  2.13  3.47
Si -4.54  2.38 -2.34
Si  4.13  2.11  3.34
Si  3.55  1.37 -4.64
Si  2.43 -5.02 -2.34
Si -5.29  2.44  1.65
Si  4.86 -1.59  3.34
Si  2.29 -0.59  5.64
Si -0.73  4.26  4.33
Si -3.88  4.54 -1.35
Si  4.93 -0.17 -3.66
Si  4.05  4.50 -1.48
Si -3.65 -2.30 -4.51
Si  0.07 -5.29  3.34
Si  6.27  0.56  0.36
Si -3.09 -5.02 -2.34
Si -0.49  6.14  1.65
Si  5.50 -2.90 -1.48
Si -5.53 -2.90 -1.48
Si -4.38  1.40 -4.51
Si  5.75  2.44  1.65
Si -6.26  0.80 -1.48
Si -3.84 -4.96  1.65
Si  0.25  6.08 -2.34
Si -3.23 -0.59  5.64
Si -0.35  1.71 -6.33
Si  4.20  3.53 -3.66
Si  1.56  3.12  5.64
Si  0.37 -1.99 -6.33
Si -0.16  1.54  6.50
Si  4.28 -2.33 -4.64
Si -2.34 -5.27  3.47
Si  0.71 -6.60 -1.48
Si  6.47 -1.26  1.65
Si  0.41  5.10 -4.51
Si  1.00  5.83  3.47
Si  0.57 -2.16  6.50
Si -1.70 -6.56 -1.35
Si -5.49  4.26  0.36
Si  5.55  4.26  0.36
Si -2.11  5.81  3.34
Si  5.51  0.56  4.33
Si -5.52  0.56  4.33
Si  3.17 -5.27  3.47
Si -6.11 -0.17 -3.66
Si -4.80 -3.14  4.33
Si  2.21 -6.84  0.36
Si -6.18 -1.59  3.34
Si -1.84 -2.12  6.63
Si -2.57  1.58  6.63
Si  6.49  2.38 -2.34
Si -2.69  5.07 -4.64
Si  2.95  1.58  6.63
Si  2.83  5.07 -4.64
Si -2.51 -4.29  5.64
Si  3.41  5.81  3.34
Si -3.96  3.12  5.64
Si -5.38 -3.87 -3.66
Si -3.31 -6.84  0.36
Si -0.52 -6.03 -4.64
Si  0.17 -0.17 -7.62
Si  7.00 -3.14  0.36
Si  3.01 -4.29  5.64
Si  7.22 -1.32 -2.34
Si  3.82 -6.56 -1.35
Si  4.79  4.26  4.33
Si  5.65 -3.87 -3.66
Si  3.67 -2.12  6.63
Si  2.59 -6.00 -4.51
Si -6.90  2.11  3.34
Si -0.69  7.96  0.36
Si  7.88  0.84 -1.35
Si -2.93 -6.00 -4.51
Si  5.02  6.14  1.65
Si -4.52  5.83  3.47
Si  6.66  1.40 -4.51
Si  6.24 -3.14  4.33
Si  1.45 -6.84  4.33
Si -4.81 -6.60 -1.48
Si -5.45 -5.29  3.34
Si  7.24  2.13  3.47
Si  5.16  1.71 -6.33
Si -2.04  7.23 -3.66
Si -5.26  6.08 -2.34
Si  5.58 -5.29  3.34
Si -1.08  5.41 -6.33
Si -5.14 -1.99 -6.33
Si -0.88  5.24  6.50
Si  0.92  8.24 -1.35
Si -0.55  3.53 -7.62
Si -6.98  4.50 -1.48
Si  0.86 -7.57 -3.66
Si -4.95 -2.16  6.50
Si -5.10  5.10 -4.51
Si -6.83  3.53 -3.66
Si -6.76 -2.33 -4.64
Si  1.34  1.30  8.34
Si -7.94 -2.86 -1.35
Si  5.36  1.54  6.50
Si  1.10 -5.69 -6.33
Si  7.16  4.54 -1.35
Si  0.90 -3.87 -7.62
Si -2.19  8.21 -1.48
Si  5.77  6.08 -2.34
Si -6.25  4.26  4.33
Si -6.01  6.14  1.65
Si  2.22  5.28  6.63
Si -5.67  1.54  6.50
Si -5.87  1.71 -6.33
Si -8.67  0.84 -1.35
Si  3.48  7.23 -3.66
Si  7.97 -1.57  3.47
Si  1.29 -5.86  6.50
Si  5.89 -1.99 -6.33
Si  0.84  6.82  5.64
Si  7.20 -4.96  1.65
Si -1.12 -5.83  6.63
Si -7.48  1.37 -4.64
Si  2.06 -2.40  8.34
Si  7.38 -2.30 -4.51
Si  3.33  8.21 -1.48
Si  5.93  5.10 -4.51
Si -4.07 -6.84  4.33
Si -3.29  5.28  6.63
Si  5.00 -6.03 -4.64
Si  2.40 -8.66  1.65
Si  6.09 -2.16  6.50
Si  8.61 -2.86 -1.35
Si -1.46  7.96  4.33
Si  6.23 -6.60 -1.48
Si -5.34 -0.17 -7.62
Si  4.82  7.96  0.36
Si -2.37 -8.72 -2.34
Si -3.45 -2.40  8.34
Si -3.11 -8.66  1.65
Si -8.59 -1.57  3.47
Si  6.52  5.83  3.47
Si -4.18  1.30  8.34
Si  4.44  5.41 -6.33
Si  1.78  0.11 -9.33
Si  5.69 -0.17 -7.62
Si -4.60  8.24 -1.35
Si -1.32  0.07 -9.46
Si  4.64  5.24  6.50
Si  3.15 -8.72 -2.34
Si  7.08  3.12  5.64
Si -4.42 -5.69 -6.33
Si -4.66 -7.57 -3.66
Si  0.79 -8.99  3.34
Si  7.80 -0.59  5.64
Si  7.94 -5.02 -2.34
Si -6.03 -6.03 -4.64
Si -9.33 -1.32 -2.34
Si -4.62 -3.87 -7.62
Si -4.22 -5.86  6.50
Si  0.61  5.00  8.34
Si -1.62 -8.97  3.47
Si  4.96  3.53 -7.62
Si  1.54 -0.53  9.63
Si -7.22 -6.56 -1.35
Si  4.40 -5.83  6.63
Si -0.31  8.80 -4.51
Si  4.06  7.96  4.33
Si -1.78 -7.99  5.64
Si -4.68  6.82  5.64
Si -3.73  0.11 -9.33
Si -1.22  9.84  1.65
Si -9.55 -3.14  0.36
Si -0.47  9.78 -2.34
Si -7.86 -5.27  3.47
Si -6.21  7.96  0.36
Si  1.06  3.81 -9.33
Si -7.36 -2.12  6.63
Si  2.10  8.78 -4.64
Si  0.27  9.53  3.47
Si -0.60 -3.63 -9.46
Si -7.63  5.81  3.34
Si -9.31  2.13  3.47
Si  0.81  3.18  9.63
Si -8.61 -5.02 -2.34
Si  9.07  1.37 -4.64
Si -10.08 -1.26  1.65
Si -10.28  0.56  0.36
Si  2.51 -3.59 -9.33
Si  7.72 -6.84  0.36
Si  4.19  0.07 -9.46
Si -6.07  3.53 -7.62
Si  3.90 -8.97  3.47
Si -2.05  3.77 -9.46
Si -0.98 -10.26 -1.35
Si -8.75 -0.59  5.64
Si  9.65  2.11  3.34
Si  2.68  9.51  3.34
Si 10.29  0.80 -1.48
Si -3.98 -0.53  9.63
Si -3.01 -3.59 -9.33
Si  0.39  1.65 -10.32
Si  3.74 -7.99  5.64
Si -2.83  9.51  3.34
Si -9.17 -2.30 -4.51
Si -3.42  8.78 -4.64
Si  1.44 -10.30 -1.48
Si -6.40  5.24  6.50
Si -9.39  4.54 -1.35
Si  6.43  8.24 -1.35
Si  6.38 -7.57 -3.66
Si -8.09  1.58  6.63
Si  1.12 -2.05 -10.32
Si -1.28  7.23 -7.62
Si -10.06  2.38 -2.34
Si -6.59  5.41 -6.33
Si  6.96 -6.84  4.33
Si  9.57  4.50 -1.48
Si -2.73 -6.10  8.34
Si  6.42 -3.87 -7.62
Si -4.73 -8.99  3.34
Si  2.79 -6.10  8.34
Si -8.02 -4.29  5.64
Si -8.21  5.07 -4.64
Si -9.35 -4.96  1.65
Si  8.69 -5.27  3.47
Si  3.47  3.77 -9.46
Si  2.26 -4.22  9.63
Si  6.61 -5.69 -6.33
Si  0.21 -9.73 -4.64
Si  8.34  5.07 -4.64
Si -2.59 -10.54  0.36
Si  1.62 -7.57 -7.62
Si  4.30  9.84  1.65
Si  8.47  1.58  6.63
Si  6.86  1.30  8.34
Si -4.90  5.00  8.34
Si  6.35  6.82  5.64
Si -2.20 -9.70 -4.51
Si  2.93 -10.54  0.36
Si -9.89  1.40 -4.51
Si  9.72  3.53 -3.66
Si -3.25 -4.22  9.63
Si 10.38 -1.59  3.34
Si -4.46  3.81 -9.33
Si -6.63 -5.83  6.63
Si  8.11 -6.00 -4.51
Si 10.45 -0.17 -3.66
Si -7.56  7.23 -3.66
Si  9.79 -2.33 -4.64
Si  8.53 -4.29  5.64
Si  6.81 -5.86  6.50
Si  8.93  5.81  3.34
Si -1.61  8.94  6.50
Si -8.83 -6.84  0.36
Si -4.08 -10.30 -1.48
Si  5.21  8.80 -4.51
Si -4.70  3.18  9.63
Si -10.80  2.44  1.65
Si  3.31 -9.70 -4.51
Si -1.80  9.11 -6.33
Si  5.04  9.78 -2.34
Si  4.92 -3.63 -9.46
Si  1.50  8.98  6.63
Si  4.54 -10.26 -1.35
Si -8.44 -6.00 -4.51
Si  4.24  7.23 -7.62
Si -7.71  8.21 -1.48
Si -0.07 -0.86 11.32
Si -4.40 -2.05 -10.32
Si -5.24  9.53  3.47
Si -3.90 -7.57 -7.62
Si -6.97  7.96  4.33
Si -9.47  3.12  5.64
Si  1.82 -9.39 -6.33
Si -5.83  8.80 -4.51
Si  7.74  5.28  6.63
Si  6.31 -8.99  3.34
Si  9.33 -6.56 -1.35
Si 11.02 -2.90 -1.48
Si  6.13  5.00  8.34
Si -11.05 -2.90 -1.48
Si  7.58 -2.40  8.34
Si  9.19 -2.12  6.63
Si  2.17 -10.54  4.33
Si -0.39 -9.53  6.63
Si -10.31 -3.14  4.33
Si -0.33  5.35 -10.32
Si -5.12  1.65 -10.32
Si 11.27  2.44  1.65
Si -6.84  0.07 -9.46
Si  5.79  9.53  3.47
Si  3.71  9.11 -6.33
Si -0.80  2.84 11.32
Si -5.99  9.78 -2.34
Si  3.91  8.94  6.50
Si -1.17 -0.90 -11.64
Si  2.02 -9.56  6.50
Si -2.48 -0.83 11.45
Si -1.42 11.67  0.36
Si -11.00  4.26  0.36
Si 11.79  0.56  0.36
Si -6.12 -3.63 -9.46
Si  0.09  6.88  9.63
Si  7.30  0.11 -9.33
Si  2.75 10.93 -3.66
Si -2.76 10.93 -3.66
Si  7.92 -8.66  1.65
Si 11.03  0.56  4.33
Si -4.02  8.98  6.63
Si 11.07  4.26  0.36
Si -11.04  0.56  4.33
Si  3.03 -0.83 11.45
Si -3.35 -10.54  4.33
Si -11.77  0.80 -1.48
Si -3.69 -9.39 -6.33
Si  0.11 10.52  5.64
Si  7.06 -0.53  9.63
Si  1.59 -11.27 -3.66
Si  1.84 -5.75 -10.32
Si  6.33  3.18  9.63
Si 10.30  4.26  4.33
Si  0.13 -7.33 -9.46
Si -7.13 -8.97  3.47
Si  0.33  7.51 -9.33
Si -7.88 -8.72 -2.34
Si  5.91  1.65 -10.32
Si -5.31 -9.73 -4.64
Si  0.19 11.94 -1.35
Si  2.31  2.87 11.45
Si  6.57  3.81 -9.33
Si -6.74  9.84  1.65
Si -0.11  8.70  8.34
Si -2.29 -7.29 -9.33
Si -3.50 -9.56  6.50
Si  9.00  7.23 -3.66
Si -10.04  5.83  3.47
Si -1.90  2.80 -11.64
Si -10.90 -3.87 -3.66
Si  8.85  8.21 -1.48
Si 11.99 -1.26  1.65
Si -11.62 -0.17 -3.66
Si -7.30 -7.99  5.64
Si  5.72 -9.73 -4.64
Si -6.49 -10.26 -1.35
Si  0.65 -4.56 11.32
Si -8.81  5.28  6.63
Si -3.21  2.87 11.45
Si -11.69 -1.59  3.34
Si  3.23 -7.29 -9.33
Si  2.60 11.90 -1.48
Si 10.54  6.14  1.65
Si -8.63 -8.66  1.65
Si -10.32 -6.60 -1.48
Si -2.91 11.90 -1.48
Si  2.74  7.47 -9.46
Si -2.77  7.47 -9.46
Si  4.10 11.67  0.36
Si -3.67 -5.75 -10.32
Si 11.17 -3.87 -3.66
Si  0.58  1.30 12.31
Si -1.76 -4.54 11.45
Si  6.64 -2.05 -10.32
Si  4.34 -0.90 -11.64
Si 12.01  2.38 -2.34
Si -8.97 -2.40  8.34
Si -3.93 -11.27 -3.66
Si  3.62  2.80 -11.64
Si -10.46 -2.16  6.50
Si  7.62  8.78 -4.64
Si  6.95 -10.30 -1.48
Si -6.79  7.23 -7.62
Si  8.67 -8.72 -2.34
Si -0.45 -4.61 -11.64
Si  0.56  0.66 -12.50
Si 10.68  1.71 -6.33
Si -9.59 -6.84  4.33
Si -10.66 -1.99 -6.33
Si  4.72  2.84 11.32
Si  5.44 -0.86 11.32
Si -10.78  6.08 -2.34
Si  1.30 -2.40 12.31
Si -10.62  5.10 -4.51
Si -10.97 -5.29  3.34
Si -2.18 11.66  4.33
Si -5.59 -0.86 11.32
Si -7.57  3.77 -9.46
Si  5.12 -9.53  6.63
Si -2.39 -12.36  1.65
Si  5.19  5.35 -10.32
Si -2.53 -7.92  9.63
Si 11.10 -5.29  3.34
Si -1.64 -12.42 -2.34
Si 10.88  1.54  6.50
Si  8.02 -3.59 -9.33
Si  2.99 -7.92  9.63
Si -9.69  1.30  8.34
Si  3.13 -12.36  1.65
Si  3.76 -4.54 11.45
Si  3.34 11.66  4.33
Si -2.55  0.64 -12.62
Si  7.14 -7.57 -7.62
Si 12.52 -3.14  0.36
Si 11.75 -3.14  4.33
Si  1.28 -3.04 -12.50
Si  9.96  5.41 -6.33
Si 10.52 -6.03 -4.64
Si  2.97  0.64 -12.62
Si  8.20  9.51  3.34
Si -5.85  5.35 -10.32
Si 12.74 -1.32 -2.34
Si -1.06 -11.69  5.64
Si -5.43  6.88  9.63
Si -2.00 -9.80  8.34
Si -5.91 -9.53  6.63
Si -12.42  2.11  3.34
Si 11.29  6.08 -2.34
Si -11.19  1.54  6.50
Si -5.18  7.51 -9.33
Si 10.34  7.96  0.36
Si 12.18  1.40 -4.51
Si -9.94 -5.69 -6.33
Si  7.78 -4.22  9.63
Si -8.35  9.51  3.34
Si  5.61  6.88  9.63
Si -9.74 -5.86  6.50
Si -5.41 10.52  5.64
Si -1.83 -3.06 -12.62
Si -10.12  8.24 -1.35
Si -5.39 -7.33 -9.46
Si -11.39  1.71 -6.33
Si -4.87 -4.56 11.32
Si -9.25  0.11 -9.33
Si -8.53 -3.59 -9.33
Si -5.33 11.94 -1.35
Si 10.15  5.24  6.50
Si -7.12  8.94  6.50
Si -1.52  6.54 11.32
Si -0.89 -12.67  3.47
Si -11.53  6.14  1.65
Si  7.02  8.98  6.63
Si  9.58  7.96  4.33
Si 11.41 -1.99 -6.33
Si  5.63 10.52  5.64
Si -7.72 -9.70 -4.51
Si -10.17 -7.57 -3.66
Si  5.41  8.70  8.34
Si  1.52 -12.69  3.34
Si -8.24 -6.10  8.34
Si  3.88 -12.42 -2.34
Si -4.21 -2.40 12.31
Si  5.64 -7.33 -9.46
Si -0.17  4.36 -12.50
Si -11.76  4.26  4.33
Si  8.31 -6.10  8.34
Si -10.14 -3.87 -7.62
Si -10.86 -0.17 -7.62
Si -6.32  2.84 11.32
Si  9.92 -5.83  6.63
Si -0.15  5.00 12.31
Si -7.32  9.11 -6.33
Si  1.58  6.57 11.45
Si -8.10 -10.54  0.36
Si -5.63  8.70  8.34
Si  5.71 11.94 -1.35
Si 11.45  5.10 -4.51
Si -4.94  1.30 12.31
Si  5.85  7.51 -9.33
Si -12.28 -2.33 -4.64
Si -1.03 12.50 -4.51
