500
set: 683.00  0.00  0.00
Si -0.90  0.51  0.91
Si -0.94 -1.11 -0.55
Si  1.31  0.41 -1.12
Si -1.94  1.24 -0.97
Si -1.12 -1.79  1.61
Si  0.87 -2.49 -0.66
Si  1.29  2.40 -0.08
Si -0.22  0.61 -2.84
Si -0.11 -1.46 -2.85
Si  0.24 -0.01  3.20
Si  2.83 -1.39  0.79
Si -2.13  2.00  1.70
Si  3.25  0.63  0.78
Si -3.23 -1.16 -0.06
Si -0.20  3.47  1.06
Si -1.47 -3.37 -0.42
Si  3.27 -1.15 -1.56
Si  3.29  1.30 -1.48
Si  2.35  0.37  3.06
Si  1.91  2.68  2.16
Si  1.12 -2.01  3.41
Si  1.82  2.05 -3.17
Si -1.59  3.88 -0.99
Si -3.82 -1.21 -1.97
Si -1.83 -3.20 -2.55
Si -2.21 -0.53 -3.96
Si -2.86 -2.40  2.69
Si -4.30  1.40 -1.29
Si -1.62  1.85  4.02
Si  1.39 -4.37  1.25
Si -1.39 -4.06  2.15
Si -0.68  3.26 -3.57
Si  1.87  0.38 -4.50
Si -4.50  1.87  1.07
Si  3.07 -3.30  2.43
Si  2.24 -1.92 -4.20
Si  0.70  2.71  4.32
Si -2.96  2.60 -3.35
Si -2.27  4.51  1.27
Si -3.15  0.00  4.16
Si  0.46 -3.62 -3.73
Si  4.37 -2.83 -0.48
Si -4.75 -1.63  1.83
Si  0.80 -5.03 -2.01
Si  1.54  4.93 -2.01
Si -1.24 -2.59  4.85
Si  5.16 -1.63  1.83
Si -1.34 -2.29 -5.08
Si  4.55  0.92  3.42
Si  1.97  0.08  5.43
Si  5.41  1.87  1.07
Si -3.32  3.22  3.63
Si  3.61  4.59 -0.77
Si  4.03 -1.63  4.01
Si  5.61  1.40 -1.29
Si -4.31  3.98 -1.11
Si -4.60  0.34 -3.92
Si  4.01  3.74 -2.61
Si  4.17  3.91  2.13
Si  1.32  4.90  3.39
Si  0.57 -5.06  3.39
Si  2.13  5.60  1.25
Si  2.86 -5.37 -0.77
Si -5.54 -2.83 -0.48
Si -4.20 -2.03 -4.16
Si -2.76  4.99 -2.64
Si  4.43 -3.55 -2.73
Si -0.64  5.91  2.15
Si -3.02 -5.45  1.27
Si -2.10 -0.83  5.97
Si  0.59  3.01 -5.61
Si -5.36  0.92  3.42
Si  2.26  4.08 -4.43
Si  6.09 -1.21 -1.97
Si -1.72  2.15 -5.91
Si  2.35 -2.22  5.73
Si -2.34 -6.09 -0.99
Si  5.31  0.34 -3.92
Si -3.50 -4.97 -2.64
Si -3.26  0.30 -5.77
Si -4.68 -4.23  2.08
Si  4.26  2.34 -4.53
Si -0.95 -6.50  1.06
Si -0.72  6.60 -0.42
Si  0.13  0.29 -6.73
Si -6.66  0.63  0.78
Si  6.68 -1.16 -0.06
Si  1.01 -1.71 -6.52
Si -3.34 -4.30  4.17
Si -6.62  1.30 -1.48
Si -6.64 -1.15 -1.56
Si -0.59  4.71  5.04
Si  2.60 -4.48  4.64
Si  5.60  3.98 -1.11
Si -0.70  5.01 -4.89
Si  5.23 -4.23  2.08
Si -0.57  2.96  6.36
Si  2.36  3.78  5.50
Si -5.48 -3.55 -2.73
Si -0.11  0.31  7.09
Si -1.44 -4.96 -4.89
Si  2.49 -4.18 -5.29
Si  3.92 -1.33 -5.92
Si  4.37  2.04  5.40
Si  1.92  1.75  6.76
Si -7.08 -1.39  0.79
Si  2.24  0.67 -6.87
Si -3.93  5.74  2.08
Si -5.74  3.91  2.13
Si  3.42 -6.06  2.13
Si  0.00 -1.76  7.08
Si -5.88 -1.63  4.01
Si -1.08  6.77 -2.55
Si  0.57 -3.92  6.20
Si  5.71 -2.03 -4.16
Si -1.34 -5.26  5.04
Si -4.09 -2.33  5.77
Si -5.90  3.74 -2.61
Si  1.21  6.35 -3.73
Si  3.26 -6.22 -2.61
Si -2.59  5.67  4.17
Si -4.49  0.04  6.01
Si -4.38  4.51 -4.10
Si  1.51 -5.88 -4.43
Si -2.85  2.30  6.58
Si  0.54 -7.56 -0.08
Si -5.64  2.34 -4.53
Si  1.62  7.47 -0.66
Si  1.16 -7.29  2.16
Si -1.43 -6.70 -3.57
Si  4.85 -5.98 -1.11
Si -3.44 -4.00 -5.76
Si -6.30  4.59 -0.77
Si -5.06 -5.98 -1.11
Si  7.05 -2.40  2.69
Si  3.35  5.49  4.64
Si  6.76  0.00  4.16
Si -6.84 -3.30  2.43
Si  4.44  1.22 -6.51
Si -3.42  3.52 -6.30
Si -5.54  2.04  5.40
Si  3.81  6.67  2.43
Si  5.42  0.04  6.01
Si -2.97 -2.10 -7.24
Si  0.47 -4.76 -6.54
Si  7.97  1.24 -0.97
Si  6.95  2.60 -3.35
Si -7.56  0.37  3.06
Si  6.59  3.22  3.63
Si  7.78  2.00  1.70
Si  5.53  4.51 -4.10
Si -2.11  7.57  2.69
Si  4.78 -5.45 -4.10
Si -0.37  8.18  1.61
Si -1.72 -3.50  7.38
Si -4.27  4.21  5.83
Si -4.73  6.41 -2.73
Si  1.61 -6.18  5.50
Si -0.05 -7.25  4.32
Si  1.21  5.20 -6.54
Si  3.24  5.79 -5.29
Si  1.80  2.98 -7.77
Si  5.82 -2.33  5.77
Si -5.99 -1.33 -5.92
Si  6.40 -4.97 -2.64
Si -5.13 -5.45 -4.10
Si  5.97  5.74  2.08
Si -1.23 -1.49 -8.32
Si  1.07 -7.91 -3.17
Si -5.47  1.22 -6.51
Si  2.96 -3.00 -7.50
Si -4.79  7.14 -0.48
Si -2.88 -7.96  1.70
Si -4.07 -6.74  3.63
Si  7.70 -0.53 -3.96
Si -8.60  0.41 -1.12
Si  5.18  6.41 -2.73
Si -8.00  2.68  2.16
Si -2.70  5.97 -5.76
Si  1.32  6.05  6.20
Si -1.49 -3.76 -7.78
Si  5.12  7.14 -0.48
Si  6.65  0.30 -5.77
Si -2.24  2.30 -8.23
Si -0.49  7.37  4.85
Si  1.87  7.96  3.41
Si  6.89 -5.45  1.27
Si -0.19  8.86 -0.55
Si  6.57 -4.30  4.17
Si -3.70 -7.36 -3.35
Si -7.05 -5.37 -0.77
Si -3.71 -1.51  7.96
Si  1.42  0.11  8.81
Si -8.09  2.05 -3.17
Si -0.16 -6.96 -5.61
Si -8.62  2.40 -0.08
Si -7.67 -1.92 -4.20
Si  7.63  4.51  1.27
Si  0.64  8.50 -2.85
Si  8.08 -3.20 -2.55
Si  8.97 -1.11 -0.55
Si  9.01  0.51  0.91
Si -2.65  4.69  7.29
Si  4.12  3.44  7.32
Si  8.44 -3.37 -0.42
Si  8.79 -1.79  1.61
Si  7.15  4.99 -2.64
Si -1.01  0.81 -9.02
Si -6.49 -6.06  2.13
Si  5.64  4.21  5.83
Si  3.38 -1.45  8.37
Si -2.48  8.80 -0.06
Si  2.54 -8.66 -1.48
Si  3.39  1.00  8.45
Si -2.68 -8.72 -0.97
Si -1.83  0.94  8.96
Si -0.60  7.67 -5.08
Si -8.04  0.38 -4.50
Si  8.31  3.88 -0.99
Si  1.65  4.63  7.92
Si  3.58  8.57  0.79
Si  4.54 -3.85  7.20
Si -6.09  6.67  2.43
Si -2.37 -8.11  4.02
Si -9.04 -2.49 -0.66
Si  8.29  1.85  4.02
Si  4.66 -8.10  1.07
Si -4.00  8.34  1.83
Si -6.65 -6.22 -2.61
Si -3.07  8.76 -1.97
Si -0.83 -1.41  9.38
Si  4.89 -5.75  5.83
Si  6.46 -4.00 -5.76
Si  3.52 -7.62 -4.53
Si -4.86 -1.33 -8.11
Si -1.32 -7.00  6.36
Si  2.99  8.04 -4.20
Si  0.90 -5.33  7.92
Si -3.45  7.93 -4.16
Si  2.72 -1.09 -9.14
Si -5.02 -5.75  5.83
Si -7.93  0.08  5.43
Si -3.40 -5.28  7.29
Si  5.84 -6.74  3.63
Si -8.79 -2.01  3.41
Si -1.65 -9.45  0.91
Si  0.56 -9.56 -1.12
Si -0.31  3.77 -8.87
Si  5.05 -1.33 -8.11
Si -8.52 -4.37  1.25
Si -7.78  5.60  1.25
Si -4.19  1.10  8.64
Si  1.28 -4.07 -8.68
Si  8.52 -4.06  2.15
Si  2.50 -9.33  0.78
Si  6.48  3.52 -6.30
Si -5.25 -8.10  1.07
Si  3.14  0.93 -9.15
Si -6.56  5.49  4.64
Si  0.98 -2.79  9.28
Si -7.56 -2.22  5.73
Si -7.65  4.08 -4.43
Si -1.49  3.58  8.94
Si  4.06  4.21 -7.80
Si -7.31 -4.48  4.64
Si  7.57 -6.09 -0.99
Si -5.37 -3.85  7.20
Si  4.02  8.82 -1.56
Si -0.96 -9.36 -2.84
Si -0.98  6.47  7.38
Si  7.81 -0.83  5.97
Si -8.36  4.93 -2.01
Si  7.06  2.30  6.58
Si  4.86 -8.56 -1.29
Si -4.17 -6.44 -6.30
Si -5.79  3.44  7.32
Si -0.74  6.21 -7.78
Si -4.79 -3.93 -7.86
Si -7.42 -4.18 -5.29
Si -5.05 -8.56 -1.29
Si -7.54  3.78  5.50
Si -2.47 -7.81 -5.91
Si  3.10  7.74  5.73
Si  9.69  0.61 -2.84
Si -3.34  7.63  5.77
Si  7.32  5.67  4.17
Si  5.12 -3.93 -7.86
Si  1.40  2.10  9.85
Si -9.67 -0.01  3.20
Si -2.38  4.82 -8.66
Si  6.21 -7.36 -3.35
Si  1.60 -9.59  3.06
Si  6.19 -1.51  7.96
Si -4.61  2.17 -8.86
Si  8.56 -2.29 -5.08
Si  3.31 -5.76 -7.80
Si  6.94 -2.10 -7.24
Si  3.62 -7.92  5.40
Si  8.67 -2.59  4.85
Si -1.36 -3.67  9.51
Si -6.67  5.79 -5.29
Si  9.80 -1.46 -2.85
Si -7.67  0.67 -6.87
Si  8.19  2.15 -5.91
Si -1.46  9.43 -3.96
Si  9.71  3.47  1.06
Si  3.37 -6.52  7.32
Si  5.91  8.34  1.83
Si  3.80 -9.05  3.42
Si  4.77  8.33  4.01
Si  5.71  1.10  8.64
Si  9.23  3.26 -3.57
Si  1.18  2.70 -10.01
Si -4.20  3.69  8.82
Si -3.12 -1.46  9.87
Si -8.59  4.90  3.39
Si -0.51 -9.97  3.20
Si  1.05 -6.99 -7.77
Si  0.99  9.96  3.20
Si -4.62  6.11  7.20
Si -10.02 -1.46 -2.85
Si -0.15 10.48  0.91
Si -9.21  2.71  4.32
Si -10.12  0.61 -2.84
Si  5.30  2.17 -8.86
Si -3.13 -5.15 -8.66
Si -1.05 -0.81 -10.48
Si -3.34 -0.86 -9.99
Si -5.13  8.33  4.01
Si -9.11 -5.03 -2.01
Si -7.99  1.75  6.76
Si -5.85  4.21 -7.80
Si  2.06 10.37 -1.12
Si 10.15 -0.01  3.20
Si  1.12 -9.58 -4.50
Si -6.95 -3.00 -7.50
Si  1.76  8.26 -6.52
Si  5.74 -6.44 -6.30
Si -6.33  8.57  0.79
Si  2.02  5.90 -8.68
Si -4.04  6.04 -7.86
Si  1.18 -8.21  6.76
Si -6.53 -1.45  8.37
Si -6.51  1.00  8.45
Si -5.89  8.82 -1.56
Si -3.60 -7.66  6.58
Si -10.11  3.47  1.06
Si  7.03 -7.96  1.70
Si  3.71  4.29  9.16
Si -9.45 -3.62 -3.73
Si  5.29  6.11  7.20
Si  0.77 -2.19 -10.59
Si  0.75  8.20  7.08
Si -10.81  0.51  0.91
Si -0.79  0.21 10.84
Si -1.06 -6.20 -8.87
Si  3.71  6.96 -7.50
Si -1.58 -3.07 -10.35
Si -10.85 -1.11 -0.55
Si  4.47 -3.13  9.45
Si -2.22  7.87 -7.24
Si -6.39 -7.62 -4.53
Si  0.53 10.57 -2.84
Si  8.46 -4.96 -4.89
Si  7.21  5.97 -5.76
Si -1.35  9.13  5.97
Si  6.46  7.93 -4.16
Si -2.40  9.97  4.16
Si 10.78 -2.49 -0.66
Si  6.51 -5.28  7.29
Si  8.96 -6.50  1.06
Si  5.71  3.69  8.82
Si  1.21  0.71 -11.05
Si -9.34 -5.06  3.39
Si -8.89 -1.71 -6.52
Si -8.40 -5.88 -4.43
Si -8.29  7.47 -0.66
Si  2.96 -5.67  9.16
Si  7.79  7.57  2.69
Si -2.04  1.54 -10.90
Si  9.27  5.91  2.15
Si -2.23 -6.39  8.94
Si -1.69 -11.07 -0.55
Si  3.10 10.34  3.06
Si  3.36  0.33 10.71
Si  2.94 -1.69 10.72
Si  8.57 -5.26  5.04
Si  6.83  8.76 -1.97
Si -9.32  3.01 -5.61
Si 11.22  0.41 -1.12
Si -11.03 -1.79  1.61
Si  7.26  4.69  7.29
Si -1.19 11.21 -0.97
Si  9.19  6.60 -0.42
Si -5.43 -3.13  9.45
Si  1.23 -9.88  5.43
Si  4.00 10.60  0.78
Si  4.56 -9.63 -3.92
Si  7.22 -8.72 -0.97
Si  8.48 -6.70 -3.57
Si -8.70  6.35 -3.73
Si  8.82  6.77 -2.55
Si -6.92  8.04 -4.20
Si -6.77  0.93 -9.15
Si -0.61  6.30  9.51
Si -6.11 -9.05  3.42
Si -0.09  3.17 10.99
Si 11.20  2.40 -0.08
Si  4.67  8.63 -5.92
Si -6.28 -7.92  5.40
Si -7.37 -8.66 -1.48
Si -3.90 -9.96  4.16
Si  7.67  2.30 -8.23
Si  2.52 -11.11 -1.56
Si  3.69 -8.75 -6.51
Si  5.87  6.04 -7.86
Si  7.43  8.80 -0.06
Si  4.26 -2.53 -10.41
Si  8.18 -3.50  7.38
Si  9.21  5.01 -4.89
Si  2.08 -11.36  0.79
Si  2.62 10.35 -4.50
Si -8.75 -7.29  2.16
Si  9.32  4.71  5.04
Si 10.37 -3.62 -3.73
Si -2.96 -10.50 -3.96
Si  6.57  7.63  5.77
Si -8.11  2.98 -7.77
Si -2.98 -7.66 -8.23
Si -10.59  3.26 -3.57
Si  1.50 -9.29 -6.87
Si -3.85 10.30 -3.92
Si  9.34  2.96  6.36
Si -7.19 -1.09 -9.14
Si -5.34 -9.63 -3.92
Si -5.24  8.63 -5.92
Si -8.29 -6.18  5.50
Si 11.03 -2.01  3.41
Si -6.59 -5.76 -7.80
Si  2.72 10.04  5.43
Si -1.01 -2.09 11.54
Si 10.61  2.71  4.32
Si  7.54 -8.11  4.02
Si -6.54 -6.52  7.32
Si -6.81  7.74  5.73
Si -0.61 -9.67 -6.73
Si -0.85 -11.43 -2.85
Si -8.04  7.96  3.41
Si -3.98 -11.12 -0.06
Si -1.70  4.18 -10.93
Si  1.73  7.17  9.28
Si -6.20  4.29  9.16
Si -9.78  0.29 -6.73
Si -9.34 -3.92  6.20
Si -11.38 -3.37 -0.42
Si -0.48  8.48 -8.32
Si -4.95 -6.28  8.82
Si  4.96 -6.28  8.82
Si  6.31 -7.66  6.58
Si -2.02  1.70 11.63
Si -7.41 -9.33  0.78
Si -11.84  1.24 -0.97
Si -4.01 -9.66 -5.77
Si  3.17 -0.84 -11.49
Si -4.39  1.57 11.01
Si  3.18  1.60 -11.41
Si -6.20  6.96 -7.50
Si -3.55 11.37 -1.29
Si -2.97  8.46  7.96
Si  6.57 -0.86 -9.99
Si 10.71 -5.03 -2.01
Si -1.87 -11.75  1.61
Si -0.86 -9.66  7.09
Si -9.37 -7.56 -0.08
Si -2.51 10.27 -5.77
Si  4.03 11.27 -1.48
Si  8.41 -3.76 -7.78
Si -8.70  5.20 -6.54
Si  6.79 -1.46  9.87
Si 10.04  0.29 -6.73
Si  9.80  0.31  7.09
Si  8.08  0.94  8.96
Si -5.65 -2.53 -10.41
Si  8.68 -1.49 -8.32
Si 10.48 -5.06  3.39
Si  6.78 -5.15 -8.66
Si  2.75 -5.07 -10.70
Si -5.91 10.60  0.78
Si -2.17  4.21 11.20
Si -1.38 11.97  1.70
Si 11.29 -4.37  1.25
Si -4.41  1.70 -11.22
Si -11.50  3.88 -0.99
Si -11.29 -4.06  2.15
Si -8.59  6.05  6.20
Si  1.49 -4.67 11.18
Si -4.57 -11.17 -1.97
Si -8.49  0.11  8.81
Si -3.74 10.00  6.01
Si  3.50  4.89 -10.70
