500
set: 758.00  0.00  0.00
Si -0.41  1.22 -0.76
Si  0.47 -1.25  0.84
Si -1.34 -1.18 -0.82
Si  1.34  1.14  0.87
Si  2.14 -1.19 -0.84
Si -0.94 -0.01  2.43
Si  0.88  0.03 -2.53
Si -2.27  1.20  0.86
Si  0.06  2.45  2.37
Si -0.07 -2.35 -2.49
Si -3.15 -1.17  0.77
Si  3.15  1.23 -0.84
Si -2.62 -0.02 -2.49
Si  2.66 -0.05  2.54
Si  0.51  3.60 -0.82
Si -1.78 -2.32  2.37
Si -0.50 -3.63  0.87
Si -1.67  2.34 -2.47
Si  1.31 -3.55 -0.84
Si  1.78  2.42 -2.49
Si -1.30  3.61  0.77
Si  1.76 -2.38  2.57
Si  3.96 -1.17  0.77
Si -3.94  1.23 -0.84
Si  0.86  0.03  4.14
Si -2.25 -3.56 -0.76
Si  2.31  3.52  0.84
Si -0.87  0.07 -4.26
Si -0.04 -2.36  4.09
Si  2.99 -3.58  0.86
Si -0.03  2.38 -4.20
Si -3.12  3.59 -0.84
Si  2.67  0.01 -4.06
Si -2.59 -0.05  4.15
Si -3.52 -2.43 -2.47
Si -3.50  2.39  2.57
Si  3.58 -2.43 -2.47
Si  3.60  2.39  2.57
Si  4.83  1.20  0.86
Si -1.69  2.36  4.14
Si  1.73 -2.44 -4.08
Si  1.80  2.42  4.09
Si -4.44 -0.05  2.54
Si  4.48 -0.02 -2.49
Si -4.96 -1.19 -0.84
Si -1.87 -2.40 -4.20
Si  0.90  4.76  2.43
Si -0.77  4.75 -2.49
Si  3.98  3.59 -0.84
Si -0.97 -4.74 -2.53
Si  0.82 -4.83  2.54
Si -4.12 -3.58  0.86
Si -3.52  2.34 -4.08
Si  0.41 -1.24 -5.75
Si  3.58  2.34 -4.08
Si -5.76  1.14  0.87
Si -0.41  1.21  5.80
Si  5.76 -1.18 -0.82
Si -3.54 -2.41  4.14
Si -2.59  4.72  2.54
Si  3.57 -2.41  4.14
Si -4.43  0.01 -4.06
Si -4.79  3.52  0.84
Si  2.64 -4.80 -2.49
Si  0.29 -5.96 -0.84
Si -0.42  5.97  0.86
Si -2.79 -4.79  2.43
Si  1.38  1.14 -5.78
Si  4.85 -3.56 -0.76
Si  2.72  4.80 -2.53
Si -1.33 -1.17  5.86
Si  4.51 -0.05  4.15
Si  1.44  5.99 -0.76
Si -1.38 -6.03  0.84
Si  5.32 -2.32  2.37
Si  2.24 -1.16  5.79
Si  0.83 -4.77 -4.06
Si -0.74  4.73  4.15
Si  2.11 -5.94  0.77
Si -5.32  2.42 -2.49
Si -0.98 -4.74  4.14
Si -2.23  1.22 -5.86
Si -5.34 -2.38  2.57
Si  5.43  2.34 -2.47
Si -2.10  6.00 -0.84
Si  0.98  4.84 -4.26
Si  6.16 -0.01  2.43
Si  3.07  1.20  5.78
Si -3.20 -1.19 -5.77
Si -6.22  0.03 -2.53
Si  3.19  5.92  0.87
Si -2.58  4.78 -4.06
Si -3.18 -5.95 -0.82
Si -6.64 -1.25  0.84
Si -5.79 -3.55 -0.84
Si  6.69  1.22 -0.76
Si -0.46 -3.64 -5.78
Si  5.80  3.61  0.77
Si  4.31 -4.79  2.43
Si  2.71  4.81  4.14
Si  0.52  3.60  5.86
Si  2.67 -4.82  4.15
Si -2.71 -4.71 -4.26
Si  1.22 -3.58  5.78
Si -1.35  3.59 -5.77
Si -4.38  4.80 -2.53
Si  4.51  4.72  2.54
Si -4.46 -4.80 -2.49
Si  3.90 -1.19 -5.77
Si -5.30  2.42  4.09
Si  2.26  3.53 -5.75
Si  5.23 -2.40 -4.20
Si -3.91  5.92  0.87
Si -4.03  1.20  5.78
Si -5.37 -2.44 -4.08
Si -2.25 -3.57  5.80
Si  3.92 -5.95 -0.82
Si  5.41  2.36  4.14
Si -3.02  3.61  5.79
Si -6.24  0.03  4.14
Si  3.03 -3.55 -5.86
Si  0.17  7.12 -2.47
Si  6.24  0.07 -4.26
Si -6.59  3.60 -0.82
Si -0.42  1.21 -7.45
Si  6.60 -3.63  0.87
Si -1.34 -1.17 -7.39
Si -0.09 -7.16  2.57
Si  0.43 -1.25  7.50
Si -4.86 -1.16  5.79
Si -7.51  1.22 -0.76
Si  1.39  1.13  7.47
Si  7.57 -1.25  0.84
Si  4.39 -4.71 -4.26
Si  4.87  1.22 -5.86
Si -4.39  4.81  4.14
Si  4.52  4.78 -4.06
Si -4.43 -4.82  4.15
Si -1.91 -7.13 -2.49
Si -1.66  7.17  2.57
Si -4.99 -5.94  0.77
Si  1.74 -7.21 -2.47
Si -2.22  1.22  7.39
Si -7.04  2.45  2.37
Si  7.03 -2.35 -2.49
Si  1.91  7.23  2.37
Si  5.00  6.00 -0.84
Si  2.23 -1.16 -7.46
Si  7.16  2.45  2.37
Si -7.17 -2.35 -2.49
Si  4.08  3.61  5.79
Si -4.07 -3.55 -5.86
Si  6.13 -4.74 -2.53
Si  3.06  1.20 -7.46
Si -6.20  4.76  2.43
Si -5.72  1.14 -5.78
Si -3.19 -1.19  7.48
Si  0.51  3.60 -7.39
Si  3.47 -7.09  2.37
Si  0.16  7.14  4.14
Si -5.67  5.99 -0.76
Si -0.11 -7.21 -4.08
Si  6.33  4.75 -2.49
Si  0.39 -5.94  5.79
Si -4.84  3.53 -5.75
Si  5.77 -1.17  5.86
Si -3.63 -7.09  2.37
Si -6.28 -4.83  2.54
Si -0.45 -3.64  7.47
Si  5.72 -6.03  0.84
Si  4.85 -3.57  5.80
Si  1.21 -3.57 -7.46
Si  7.98  0.03 -2.53
Si -1.68  7.11 -4.08
Si -3.48  7.20 -2.49
Si -0.54 -8.32 -0.84
Si -0.38  6.00 -5.86
Si -1.34  3.58  7.48
Si -8.04 -0.01  2.43
Si  3.62  7.20 -2.49
Si  0.55  8.38  0.77
Si -1.89 -7.13  4.09
Si -1.43 -6.01 -5.75
Si  1.44  5.98  5.80
Si  7.61  3.60 -0.82
Si  1.72 -7.19  4.14
Si -7.60 -3.63  0.87
Si  1.14 -8.35  0.86
Si  1.82  7.15 -4.20
Si  7.06 -2.36  4.09
Si -1.27  8.36 -0.84
Si  3.91 -1.19  7.48
Si  2.06 -5.96 -5.77
Si -8.44 -1.18 -0.82
Si -2.26 -3.56 -7.45
Si  7.08  2.38 -4.20
Si -7.14 -2.36  4.09
Si  8.44  1.14  0.87
Si -4.04  1.20 -7.46
Si  2.27  3.53  7.50
Si -2.19  5.97  5.78
Si -7.13  2.38 -4.20
Si  2.35  8.37 -0.82
Si  3.04 -3.56  7.39
Si -2.35 -8.40  0.87
Si  6.12 -4.74  4.14
Si -3.03  3.62 -7.46
Si -2.95  8.29  0.84
Si -6.27 -4.77 -4.06
Si  3.23  5.91 -5.78
Si  3.00 -8.33 -0.76
Si -6.12  4.84 -4.26
Si  5.75  3.59 -5.77
Si -6.69 -1.24 -5.75
Si -3.17 -5.95  5.86
Si  6.69  1.21  5.80
Si  4.88  1.22  7.39
Si  6.36  4.73  4.15
Si -3.45  7.19  4.09
Si  7.96  0.03  4.14
Si  3.39 -7.17 -4.20
Si -4.87 -1.16 -7.46
Si -5.88 -3.58  5.78
Si  6.68  5.97  0.86
Si -7.97  0.07 -4.26
Si -0.85  0.07  8.99
Si  3.65  7.19  4.09
Si -6.81 -5.96 -0.84
Si -3.71 -7.17 -4.20
Si -3.87  5.91 -5.78
Si  0.85  0.04 -9.11
Si -4.06 -3.56  7.39
Si  5.19 -7.13 -2.49
Si  8.41 -3.55 -0.84
Si -8.40  3.61  0.77
Si -5.19  7.23  2.37
Si  3.93 -5.95  5.86
Si  4.07  3.62 -7.46
Si -5.36 -7.21 -2.47
Si  4.16  8.29  0.84
Si -4.10 -8.33 -0.76
Si  9.24 -1.19 -0.84
Si -0.01  2.37  9.05
Si  5.45  7.17  2.57
Si -8.77  2.34 -2.47
Si  5.76 -1.17 -7.39
Si -0.05 -2.35 -9.15
Si -2.60 -0.04 -9.10
Si -5.71  1.13  7.47
Si -8.88 -2.32  2.37
Si -9.37  1.20  0.86
Si -6.58  3.60  5.86
Si  6.64 -3.64 -5.78
Si  8.86 -2.38  2.57
Si -0.37  5.99  7.39
Si -7.87  4.75 -2.49
Si  8.88  2.42 -2.49
Si  7.39 -5.96 -0.84
Si  0.38 -5.93 -7.46
Si  7.52 -1.24 -5.75
Si -1.86 -2.40  9.05
Si -7.51  1.21  5.80
Si -1.70  2.37 -9.11
Si  4.84 -3.56 -7.45
Si  2.68  0.00  9.19
Si -4.83  3.53  7.50
Si  7.92 -4.83  2.54
Si  8.00  4.76  2.43
Si  1.79  2.42 -9.15
Si  1.75 -2.44  9.16
Si -7.53  5.97  0.86
Si  4.91  5.97  5.78
Si -4.75  8.37 -0.82
Si  1.43  5.99 -7.45
Si  4.75 -8.40  0.87
Si -8.07 -4.74 -2.53
Si -5.04 -5.96 -5.77
Si -1.42 -6.02  7.50
Si  5.21 -7.13  4.09
Si  2.07 -5.97  7.48
Si -2.20  5.98 -7.46
Si -5.28  7.15 -4.20
Si  5.42  7.11 -4.08
Si -0.75  9.50  2.54
Si -5.38 -7.19  4.14
Si  1.07  9.53 -2.49
Si  0.79 -9.57 -2.49
Si -1.03 -9.60  2.54
Si -8.79  2.36  4.14
Si -3.18 -5.94 -7.39
Si -9.72 -0.02 -2.49
Si  8.84 -2.44 -4.08
Si -9.36 -3.56 -0.76
Si  3.24  5.91  7.47
Si -7.84  4.73  4.15
Si -3.55 -2.41 -9.11
Si  5.67 -6.01 -5.75
Si  3.56 -2.41 -9.11
Si -5.66  5.98  5.80
Si  6.68  1.21 -7.45
Si  9.41  3.52  0.84
Si -3.51  2.33  9.16
Si  9.76 -0.05  2.54
Si  8.90  2.42  4.09
Si  5.76  3.58  7.48
Si  7.93 -4.77 -4.06
Si -6.67 -1.25  7.50
Si  3.59  2.33  9.16
Si  4.50 -0.04 -9.10
Si -5.89 -3.57 -7.46
Si  0.49  8.36 -5.77
Si  2.47 -9.56  2.43
Si -0.62 -8.35  5.78
Si -8.97 -2.40 -4.20
Si -7.56 -3.64 -5.78
Si -4.42  0.00  9.19
Si  2.75  9.54  2.43
Si -2.54  9.58 -2.53
Si  5.83  8.36 -0.84
Si -6.93  7.12 -2.47
Si -2.81 -9.52 -2.53
Si -8.09 -4.74  4.14
Si  1.18 -8.32 -5.86
Si -1.17  8.38  5.79
Si  0.99  4.84  8.99
Si  3.92 -5.94 -7.39
Si  7.62  3.60  5.86
Si -3.86  5.91  7.47
Si -0.76  4.73 -9.10
Si -5.96 -8.35  0.86
Si -0.99 -4.74 -9.11
Si  8.48  1.14 -5.78
Si -8.43 -1.17  5.86
Si  8.08  4.84 -4.26
Si -10.25 -1.17  0.77
Si  7.01 -7.16  2.57
Si 10.26  1.23 -0.84
Si  0.84 -4.77  9.19
Si -0.74  9.56 -4.06
Si -1.02 -9.54 -4.06
Si  1.10  9.50  4.15
Si -8.48 -6.03  0.84
Si  8.54  5.99 -0.76
Si -2.31 -8.41 -5.78
Si -7.19 -7.16  2.57
Si  7.27  7.12 -2.47
Si  0.82 -9.60  4.15
Si  2.36  8.38  5.86
Si -2.70 -4.71  8.99
Si -6.59  3.60 -7.39
Si -3.00  8.31 -5.75
Si -9.69 -0.05  4.15
Si  9.77  0.01 -4.06
Si  3.00 -8.34  5.80
Si  2.66 -4.82 -9.10
Si  6.57 -8.32 -0.84
Si  6.65 -3.64  7.47
Si  2.69  4.81 -9.11
Si -7.52  1.21 -7.45
Si -6.71 -5.94  5.79
Si -6.55  8.38  0.77
Si -2.57  4.78  9.19
Si  7.53 -1.25  7.50
Si  2.54 -9.48 -4.26
Si  5.24 -2.40  9.05
Si 10.09 -3.58  0.86
Si  4.29 -9.52 -2.53
Si  6.72  6.00 -5.86
Si -2.55  9.58  4.14
Si  4.90  5.98 -7.46
Si  0.27 -10.71  0.77
Si  8.32 -3.58  5.78
Si  0.89  0.03 10.72
Si -2.83 -9.52  4.14
Si -4.35  9.54  2.43
Si -6.95  7.14  4.14
Si -0.26 10.78 -0.84
Si -5.03 -5.97  7.48
Si  6.99 -7.21 -4.08
Si -8.45  3.59 -5.77
Si  5.40  2.37 -9.11
Si -5.31  2.42 -9.15
Si -10.22  3.59 -0.84
Si -0.95 -0.01 -10.82
Si  1.42 10.75  0.86
Si -1.55 -10.74 -0.84
Si  2.83  9.62 -4.26
Si -5.36 -2.44  9.16
Si -4.63 -9.56  2.43
Si  4.11  8.31 -5.75
Si  4.57  9.58 -2.53
Si -2.07 10.69  0.87
Si  6.25  0.07  8.99
Si -4.10 -8.34  5.80
Si  2.08 -10.73 -0.82
Si -7.21 -7.21 -4.08
Si  7.26  7.14  4.14
Si  9.21 -5.94  0.77
Si -0.06 -2.36 10.76
Si -9.20  6.00 -0.84
Si  2.65 -0.05 -10.71
Si  9.34 -1.16  5.79
Si -6.25  0.04 -9.11
Si  4.40 -4.71  8.99
Si -2.61 -0.03 10.76
Si -9.69  4.72  2.54
Si  1.75 -2.38 -10.68
Si -9.33  1.22 -5.86
Si -5.67  5.99 -7.45
Si  9.74 -4.80 -2.49
Si 11.06 -1.17  0.77
Si -11.05  1.23 -0.84
Si -1.66  2.34 10.78
Si  0.05  2.46 -10.88
Si -10.60  2.39  2.57
Si  5.68 -6.02  7.50
Si -10.62 -2.43 -2.47
Si  1.79  2.42 10.76
Si  7.49 -5.94  5.79
Si  1.19 -8.33  7.39
Si  7.61  3.60 -7.39
Si -4.41  4.81 -9.11
Si -4.45 -4.82 -9.10
Si -0.63 -8.35 -7.46
Si  4.27 -9.52  4.14
Si  9.82  4.80 -2.53
Si  0.50  8.36  7.48
Si -7.55 -3.64  7.47
Si 10.69 -2.43 -2.47
Si -7.48  6.00 -5.86
Si -9.89 -4.79  2.43
Si 10.70  2.39  2.57
Si -4.74  8.38  5.86
Si -1.79 -2.32 -10.88
Si  4.79 -8.41 -5.78
Si -8.44 -1.17 -7.39
Si  3.28 10.77 -0.76
Si -1.18  8.39 -7.46
Si  4.53  4.78  9.19
Si -3.23 -10.80  0.84
Si -7.64 -8.32 -0.84
Si -4.56 -9.48 -4.26
Si -4.28  9.62 -4.26
Si  8.49  1.13  7.47
Si  7.65  8.38  0.77
Si  4.55  9.58  4.14
Si  2.35  8.38 -7.39
Si -3.82 10.77 -0.76
Si -2.30 -8.42  7.47
Si -3.51  2.40 -10.68
Si  3.88 -10.80  0.84
Si  3.59  2.40 -10.68
Si -9.68  4.78 -4.06
Si  9.36  3.53 -5.75
Si -6.03  9.53 -2.49
Si -9.35 -3.57  5.80
Si  2.99 -8.34 -7.45
Si  0.14  7.14 -9.11
Si -2.98  8.30  7.50
Si -3.51 -2.44 10.78
Si -4.45 -0.05 -10.71
Si -8.76  7.17  2.57
Si  3.60 -2.44 10.78
Si -10.62  2.34 -4.08
Si  6.07 -9.60  2.54
Si  6.73  5.99  7.39
Si  9.77 -4.82  4.15
Si  4.49 -0.03 10.76
Si -10.64 -2.41  4.14
Si -6.72 -5.93 -7.46
Si -0.10 -7.22  9.16
Si  8.84 -7.21 -2.47
Si 10.68  2.34 -4.08
Si  1.83  7.14  9.05
Si  9.81  4.81  4.14
Si 11.09  3.59 -0.84
Si -9.81 -4.71 -4.26
Si 10.67 -2.41  4.14
Si  6.35  9.50  2.54
Si -1.67  7.11  9.16
Si  1.71 -7.18 -9.11
Si -6.31 -9.57 -2.49
Si  8.31 -3.57 -7.46
Si  7.09  2.37  9.05
Si -7.12  2.37  9.05
Si -1.90 -7.13 -9.15
Si -9.01 -7.13 -2.49
Si 10.17  1.20  5.78
Si -0.96 -4.75 10.72
Si  8.24 -8.35  0.86
Si  0.81 -4.82 -10.71
Si -5.92 -8.32 -5.86
Si  5.93  8.38  5.79
Si -0.76  4.75 10.76
Si  9.01  7.23  2.37
Si  7.05 -2.35 -9.15
Si -11.22 -3.58  0.86
Si -11.54 -0.05  2.54
Si -8.44  3.58  7.48
Si 11.58 -0.02 -2.49
