500
set: 1382.00  0.00  0.00
Si -0.37 -0.17 -0.91
Si -0.05 -1.74  0.62
Si  1.41  0.18  1.51
Si  1.58 -0.22 -2.17
Si -1.22  2.45 -0.32
Si -1.68 -0.89  2.17
Si -0.23  1.06  3.04
Si -1.80 -2.10 -1.85
Si  2.13  2.48  0.96
Si -1.52 -3.66 -0.32
Si  0.55 -0.67 -3.93
Si -3.15  2.48  0.96
Si  2.33  2.07 -2.72
Si -3.87  0.18  1.51
Si  1.83 -3.62  0.96
Si -3.70 -0.22 -2.17
Si  3.60 -0.89  2.17
Si  0.25  4.37  0.62
Si  3.47 -2.10 -1.85
Si -0.16 -2.98 -3.38
Si -2.95  2.07 -2.72
Si -2.12  2.94  2.72
Si  0.06 -0.51  4.57
Si  0.13  3.13 -3.38
Si -1.32  1.22 -4.27
Si -1.51  4.01 -1.85
Si  4.06  2.45 -0.32
Si -2.42 -3.17  2.72
Si  4.91 -0.17 -0.91
Si  2.86 -3.17  2.72
Si -3.45 -3.62  0.96
Si  3.15  2.94  2.72
Si  1.21  2.98  3.98
Si  0.91 -3.13  3.98
Si  3.76 -3.66 -0.32
Si  2.03 -4.04 -2.72
Si  5.23 -1.74  0.62
Si -5.33 -1.74  0.62
Si -5.64 -0.17 -0.91
Si  3.77  4.01 -1.85
Si  2.48 -0.71 -5.21
Si -1.38  5.22  2.17
Si -3.25 -4.04 -2.72
Si  1.53  1.42  5.51
Si -0.53 -5.05  3.04
Si  3.96  1.22 -4.27
Si -2.79 -0.71 -5.21
Si  5.05  1.06  3.04
Si -0.07  5.93 -0.91
Si -1.88 -0.47  5.85
Si -4.72 -0.67 -3.93
Si  1.11 -5.93  1.51
Si -5.51  1.06  3.04
Si -0.66 -6.28 -0.91
Si -4.07  2.98  3.98
Si  1.88  5.89 -2.17
Si -1.64  2.78 -5.80
Si -4.37 -3.13  3.98
Si  1.70  6.29  1.51
Si -5.03  4.37  0.62
Si -1.62 -4.89 -4.27
Si  0.85  5.44 -3.93
Si  3.40 -0.47  5.85
Si  1.29 -6.33 -2.17
Si -3.75  1.42  5.51
Si  5.12 -2.98 -3.38
Si  6.69  0.18  1.51
Si  3.90  5.22  2.17
Si -5.15  3.13 -3.38
Si -6.50  2.45 -0.32
Si -5.22 -0.51  4.57
Si -1.94 -3.33 -5.80
Si  5.33 -0.51  4.57
Si -5.44 -2.98 -3.38
Si  5.83 -0.67 -3.93
Si  5.53  4.37  0.62
Si  5.41  3.13 -3.38
Si  2.20  0.86 -6.74
Si -3.40  5.89 -2.17
Si  6.86 -0.22 -2.17
Si  0.35  5.60  4.57
Si -6.96 -0.89  2.17
Si  1.23 -4.69  5.51
Si  3.63  2.78 -5.80
Si -3.58  6.29  1.51
Si -4.17 -5.93  1.51
Si -0.10  2.27  7.05
Si -2.59 -2.77  6.40
Si  3.66 -4.89 -4.27
Si -3.08  0.86 -6.74
Si  2.69 -2.77  6.40
Si  3.34 -3.33 -5.80
Si  4.75 -5.05  3.04
Si -2.30  3.33  6.40
Si  0.30  2.74 -7.06
Si -1.97 -6.99  2.17
Si -7.08 -2.10 -1.85
Si -0.85 -0.01  7.61
Si  0.75 -1.09 -7.61
Si -6.80 -3.66 -0.32
Si  0.06  7.17  3.04
Si -3.99 -6.33 -2.17
Si  2.98  3.33  6.40
Si  0.01 -3.37 -7.06
Si  0.26 -6.78 -3.93
Si  4.62 -6.28 -0.91
Si  7.41  2.48  0.96
Si -0.34 -7.85  0.62
Si -2.50  5.40 -5.21
Si  5.21  5.93 -0.91
Si -6.60  1.22 -4.27
Si  6.19 -3.13  3.98
Si  2.78  5.40 -5.21
Si  3.31 -6.99  2.17
Si  7.11 -3.62  0.96
Si -4.43  5.44 -3.93
Si -0.40 -3.84  7.05
Si -5.35  5.93 -0.91
Si -0.24 -6.61  4.57
Si -6.79  4.01 -1.85
Si  6.49  2.98  3.98
Si  1.04 -1.90  7.93
Si -5.81 -5.05  3.04
Si -1.58  5.64  5.85
Si -4.05 -4.69  5.51
Si  7.60  2.07 -2.72
Si -1.44 -0.02 -8.27
Si -7.40  2.94  2.72
Si -1.03  7.32 -4.27
Si -0.93  8.55 -0.32
Si -2.10 -8.21 -1.85
Si -5.94 -6.28 -0.91
Si -6.66  5.22  2.17
Si -4.93  5.60  4.57
Si  1.90 -5.25 -6.74
Si -7.70 -3.17  2.72
Si  7.31 -4.04 -2.72
Si  4.43 -0.01  7.61
Si -8.43  2.48  0.96
Si  6.39 -5.93  1.51
Si  2.19 -6.82 -5.21
Si  6.80  1.42  5.51
Si -8.23  2.07 -2.72
Si -4.53 -1.09 -7.61
Si  3.70  5.64  5.85
Si  2.42  8.59  0.96
Si  3.18 -8.21 -1.85
Si  2.62  8.18 -2.72
Si -2.66  8.18 -2.72
Si  5.17  2.27  7.05
Si -4.97  2.74 -7.06
Si -2.17 -6.58  5.85
Si  1.34  4.21  7.93
Si  6.13  5.44 -3.93
Si -2.86  8.59  0.96
Si -3.09 -6.82 -5.21
Si  3.84 -0.02 -8.27
Si -0.72  2.28 -8.82
Si  8.14 -3.17  2.72
Si -5.38  2.27  7.05
Si  5.63  5.60  4.57
Si  1.05  5.02 -7.61
Si -4.23 -1.90  7.93
Si  8.88 -0.89  2.17
Si -3.38 -5.25 -6.74
Si  8.75 -2.10 -1.85
Si  2.48  0.03  8.87
Si -8.98 -0.22 -2.17
Si -7.15 -0.47  5.85
Si -9.15  0.18  1.51
Si  4.94 -7.85  0.62
Si -2.79  0.03  8.87
Si -5.02 -6.78 -3.93
Si  3.11 -6.58  5.85
Si  8.43  2.94  2.72
Si -5.22  7.17  3.04
Si  6.57 -6.33 -2.17
Si  7.76 -0.71 -5.21
Si  4.88 -3.84  7.05
Si  5.58  2.74 -7.06
Si -5.27 -3.37 -7.06
Si  5.34  7.17  3.04
Si  5.29 -3.37 -7.06
Si -6.92  2.78 -5.80
Si -6.90 -4.89 -4.27
Si  4.25  7.32 -4.27
Si  5.04 -6.61  4.57
Si -8.73 -3.62  0.96
Si  1.82  7.53  5.51
Si  6.98  6.29  1.51
Si  7.16  5.89 -2.17
Si  5.54 -6.78 -3.93
Si  4.35  8.55 -0.32
Si -1.83  9.05  2.72
Si -8.07 -0.71 -5.21
Si  9.34  2.45 -0.32
Si  2.38 -1.94 -9.16
Si -1.02 -3.83 -8.82
Si -5.62 -7.85  0.62
Si -0.46 -9.08 -3.38
Si  6.51 -4.69  5.51
Si -5.52 -6.61  4.57
Si  9.04 -3.66 -0.32
Si -0.55  6.09  7.61
Si -6.13 -0.01  7.61
Si  6.03 -1.09 -7.61
Si -2.90 -1.94 -9.16
Si -3.94  4.21  7.93
Si -8.53 -4.04 -2.72
Si -1.14 -6.12  7.61
Si -5.68 -3.84  7.05
Si -7.22 -3.33 -5.80
Si  0.42  9.24 -3.38
Si  1.54 -9.73  0.96
Si -1.81 -9.77 -0.32
Si -3.46  7.53  5.51
Si  1.63  2.65  9.46
Si  2.56 -9.28  2.72
Si  2.49  6.96 -6.74
Si  1.50  9.09  3.98
Si -2.71 -9.28  2.72
Si -4.23  5.02 -7.61
Si  3.45  9.05  2.72
Si  9.05  4.01 -1.85
Si  0.62 -9.23  3.98
Si -2.79  6.96 -6.74
Si  7.47  0.86 -6.74
Si  1.33 -3.46  9.46
Si  4.55  2.28 -8.82
Si 10.19 -0.17 -0.91
Si  9.23  1.22 -4.27
Si -7.25 -6.99  2.17
Si  6.32 -1.90  7.93
Si -1.15  6.09 -8.27
Si -1.22 10.12 -1.85
Si  3.47 -9.77 -0.32
Si -2.60  4.17 -9.16
Si  1.21  2.25 -10.10
Si  2.68  4.17 -9.16
Si -1.74 -6.13 -8.27
Si -7.58  3.33  6.40
Si -3.74 -9.73  0.96
Si  8.68 -0.47  5.85
Si -3.65  2.65  9.46
Si  0.46 -7.20 -7.61
Si  0.54 10.48  0.62
Si -7.87 -2.77  6.40
Si  4.26 -3.83 -8.82
Si -6.31  7.32 -4.27
Si -6.21  8.55 -0.32
Si  7.96 -2.77  6.40
Si -9.35  2.98  3.98
Si  4.14 -6.12  7.61
Si -3.78  9.09  3.98
Si -6.86  5.64  5.85
Si  1.74 -10.15 -2.72
Si -6.72 -0.02 -8.27
Si 10.51 -1.74  0.62
Si -9.03  1.42  5.51
Si -1.35  8.89 -5.80
Si -8.68  5.89 -2.17
Si -10.60 -1.74  0.62
Si -10.00 -0.67 -3.93
Si -8.36  0.86 -6.74
Si  9.18  5.22  2.17
Si -2.48 -1.54 10.40
Si -7.78  5.40 -5.21
Si 10.32  1.06  3.04
Si -3.95 -3.46  9.46
Si  4.82 -9.08 -3.38
Si  4.73  6.09  7.61
Si  0.91 -3.86 -10.10
Si  2.80 -1.54 10.40
Si  3.54 -6.13 -8.27
Si  2.06 -0.38 -10.69
Si -9.65 -3.13  3.98
Si  8.62 -3.33 -5.80
Si -6.00  2.28 -8.82
Si  0.19  8.38  7.05
Si -10.92 -0.17 -0.91
Si -8.86  6.29  1.51
Si  8.26  3.33  6.40
Si -4.85  9.24 -3.38
Si  2.19 -6.08  8.87
Si  8.91  2.78 -5.80
Si  8.06  5.40 -5.21
Si  8.94 -4.89 -4.27
Si  4.06 10.12 -1.85
Si  4.13  6.09 -8.27
Si -2.50  6.14  8.87
Si -0.30  2.69 10.73
Si -4.66 -9.23  3.98
Si -3.54 -10.15 -2.72
Si  6.33  5.02 -7.61
Si -4.07  2.25 -10.10
Si  2.78  6.14  8.87
Si  6.62  4.21  7.93
Si  7.18 -5.25 -6.74
Si -3.22 -0.38 -10.69
Si -3.09 -6.08  8.87
Si -7.38 -8.21 -1.85
Si  2.39 -8.88  6.40
Si -10.31  4.37  0.62
Si -9.44 -5.93  1.51
Si -10.79  1.06  3.04
Si -5.74 -9.08 -3.38
Si -0.60 -3.42 10.73
Si  8.59 -6.99  2.17
Si  0.75 -8.00  7.93
Si -2.23 -9.44 -5.80
Si  3.93  8.89 -5.80
Si -2.89 -8.88  6.40
Si 10.39 -2.98 -3.38
Si  0.60  8.84 -7.06
Si -1.02  0.38 11.29
Si -5.83  6.09  7.61
Si  7.47 -6.82 -5.21
Si  5.70  9.24 -3.38
Si -10.43  3.13 -3.38
Si -9.27 -6.33 -2.17
Si -10.50 -0.51  4.57
Si  3.05 -9.44 -5.80
Si -6.30 -3.83 -8.82
Si -4.74 10.48  0.62
Si -7.45 -6.58  5.85
Si -4.82 -7.20 -7.61
Si -2.18  4.57 10.40
Si 10.61 -0.51  4.57
Si  7.70  8.59  0.96
Si -2.00  9.44  6.40
Si -1.09 11.33  2.17
Si -0.82 -11.16  3.04
Si -10.72 -2.98 -3.38
Si 10.03 -5.05  3.04
Si 10.69  3.13 -3.38
Si  5.90 -9.23  3.98
Si -4.37 -3.86 -10.10
Si 10.81  4.37  0.62
Si -6.42 -6.12  7.61
Si  7.90  8.18 -2.72
Si -7.94  8.18 -2.72
Si  7.10  7.53  5.51
Si  9.90 -6.28 -0.91
Si  3.10  4.57 10.40
Si  7.76  0.03  8.87
Si -9.71  5.44 -3.93
Si -9.33 -4.69  5.51
Si 11.11 -0.67 -3.93
Si -7.11  9.05  2.72
Si -0.28 -9.48 -7.06
Si  3.27  9.44  6.40
Si  0.62 -2.30 -11.63
Si -8.14  8.59  0.96
Si  6.82 -9.73  0.96
Si  8.46 -8.21 -1.85
Si  5.74 -7.20 -7.61
Si -1.91 -11.00 -4.27
Si -8.37 -6.82 -5.21
Si -8.07  0.03  8.87
Si  5.82 10.48  0.62
Si  6.91  2.65  9.46
Si  6.78  9.09  3.98
Si  1.17 -0.68 11.94
Si -1.27 -0.42 -11.95
Si -11.78  2.45 -0.32
Si  6.61 -3.46  9.46
Si 11.97  0.18  1.51
Si  4.26  0.38 11.29
Si -7.09 -9.77 -0.32
Si -5.09  8.38  7.05
Si  0.22 12.04 -0.91
Si 10.49  5.93 -0.91
Si  7.66 -1.94 -9.16
Si  8.98  5.64  5.85
Si -6.43  6.09 -8.27
Si  4.98  2.69 10.73
Si -4.53 -8.00  7.93
Si  0.82 -12.04  1.51
Si  8.39 -6.58  5.85
Si  0.94 -10.80  5.51
Si -8.66 -5.25 -6.74
Si -6.50 10.12 -1.85
Si -0.43  8.39 -8.82
Si  4.68 -3.42 10.73
Si  6.49  2.25 -10.10
Si -10.63  5.93 -0.91
Si -0.69 -9.95  7.05
Si  5.47  8.38  7.05
Si -4.68  8.84 -7.06
Si  1.14 11.54 -3.93
Si  3.37 -11.00 -4.27
Si  0.92  3.81 -11.63
Si  4.19 11.33  2.17
Si  9.12 -0.02 -8.27
Si  9.71 -0.01  7.61
Si 12.14 -0.22 -2.17
Si  2.36  5.73 -10.69
Si  2.09 -8.05 -9.16
Si  2.17 12.00 -2.17
Si  4.46 -11.16  3.04
Si -5.58  2.69 10.73
Si  7.77  6.96 -6.74
Si -8.18 -1.94 -9.16
Si  7.84 -9.28  2.72
Si -7.01 -6.13 -8.27
Si -12.23 -0.89  2.17
Si  6.19 -3.86 -10.10
Si -0.95 -12.39 -0.91
Si -9.80 -1.09 -7.61
Si -2.92  5.73 -10.69
Si -10.21  5.60  4.57
Si -6.63  8.89 -5.80
Si -9.51 -1.90  7.93
Si 11.47 -3.13  3.98
Si -7.99 -9.28  2.72
Si -11.09 -5.05  3.04
Si -3.11 12.00 -2.17
Si  0.64 11.71  4.57
Si -3.19 -8.05 -9.16
Si -8.07  6.96 -6.74
Si  4.01 -0.42 -11.95
Si -12.07 -3.66 -0.32
Si  1.77 -6.48 -10.69
Si  7.01 -10.15 -2.72
Si  2.00 12.40  1.51
Si -4.11 -0.68 11.94
Si -0.53  1.87 -12.50
Si  0.99 -12.43 -2.17
Si -12.36 -2.10 -1.85
Si -11.88  1.22 -4.27
Si -5.88 -3.42 10.73
Si -1.31 -5.73 11.29
Si -4.66 -2.30 -11.63
Si -10.25  2.74 -7.06
Si  5.88  8.84 -7.06
Si  9.53  7.32 -4.27
Si 11.76  2.98  3.98
Si  6.03 -8.00  7.93
Si -8.74  7.53  5.51
Si -7.88  4.17 -9.16
Si 10.45  2.27  7.05
Si -2.21 11.51 -5.21
Si  7.96  4.17 -9.16
Si  4.99 -9.48 -7.06
Si  0.43 -2.97 12.49
Si -12.07  4.01 -1.85
Si  8.73  9.05  2.72
Si -9.22  4.21  7.93
Si -4.34 -10.80  5.51
Si -4.14 11.54 -3.93
Si  9.63  8.55 -0.32
Si -11.22 -6.28 -0.91
Si 10.22 -7.85  0.62
Si  0.72  3.14 12.49
Si -3.28 12.40  1.51
Si -4.46 -12.04  1.51
Si -6.30  0.38 11.29
Si -10.30 -6.78 -3.93
Si 12.39 -3.62  0.96
Si 10.16 -3.84  7.05
Si 12.68  2.48  0.96
Si  7.34 -0.38 -10.69
Si -3.51 -6.48 -10.69
Si -10.66  2.27  7.05
Si -4.36  3.81 -11.63
Si  3.07 11.51 -5.21
Si  4.59 -9.95  7.05
Si  1.92  8.76  9.46
Si -0.73  6.49 11.29
Si -7.75 -1.54 10.40
Si -5.56 -9.48 -7.06
Si -10.50  7.17  3.04
Si -6.10 -11.16  3.04
Si 10.32 -6.61  4.57
Si 10.91  5.60  4.57
Si  7.47 -6.08  8.87
Si -5.06 12.04 -0.91
Si  4.85  8.39 -8.82
Si  1.63 10.32  7.93
Si  8.75 -9.77 -0.32
Si -10.55 -3.37 -7.06
Si  2.62  1.26 12.81
Si  2.51 -7.64 10.40
Si -2.66  1.26 12.81
Si 10.57 -3.37 -7.06
Si  4.32 -12.39 -0.91
Si 10.62  7.17  3.04
Si -9.51  5.02 -7.61
Si -6.37 11.33  2.17
Si 11.67 -5.93  1.51
Si -1.29 11.75  5.85
Si  1.50  8.35 -10.10
Si -2.77 -7.64 10.40
Si  1.47  5.42 11.94
Si -11.94  5.22  2.17
Si -0.82 -4.24 -12.50
Si 11.41  5.44 -3.93
Si 10.86  2.74 -7.06
Si  5.90 -2.30 -11.63
Si  8.08 -1.54 10.40
