500
set: 557.00  0.00  0.00
Si  0.00  0.00  0.00
Si  1.84  1.06  0.75
Si -1.87  1.06  0.75
Si  0.00 -0.10 -2.28
Si -0.32 -2.20  0.75
Si -1.55  3.26  0.00
Si  1.55 -3.26  0.00
Si -0.32 -2.10  3.03
Si  0.32  2.10 -3.03
Si -3.70  0.00  0.00
Si  3.70  0.00  0.00
Si -1.84 -1.16 -3.03
Si  1.84  1.16  3.03
Si -1.87  1.16  3.03
Si  1.87 -1.16 -3.03
Si  2.15  3.26  0.00
Si -2.15 -3.26  0.00
Si  3.39 -2.20  0.75
Si -1.55  3.16 -2.28
Si  1.52 -1.04  3.78
Si -3.70 -0.10 -2.28
Si  1.55 -3.37 -2.28
Si  3.71 -0.10 -2.28
Si -0.03  2.22  3.78
Si  0.29  4.33  0.75
Si  2.15  3.16 -2.28
Si -2.18 -1.04  3.78
Si -2.15 -3.37 -2.28
Si -4.02 -2.20  0.75
Si  3.39 -2.10  3.03
Si -3.39  2.10 -3.03
Si  0.28  4.43  3.03
Si -0.28 -4.43 -3.03
Si -4.02 -2.10  3.03
Si  4.02  2.10 -3.03
Si -3.42  4.33  0.75
Si  1.24 -5.47  0.75
Si  0.32  2.00 -5.30
Si  5.54  1.06  0.75
Si -5.57  1.06  0.75
Si  3.67  2.22  3.78
Si -1.83 -1.26 -5.30
Si -3.73  2.22  3.78
Si -0.63 -4.31  3.78
Si  1.87 -1.26 -5.30
Si  3.99  4.33  0.75
Si -2.47 -5.47  0.75
Si -5.25  3.26  0.00
Si  5.25 -3.26  0.00
Si  1.23 -5.37  3.03
Si -1.23  5.37 -3.03
Si  1.52 -0.94  6.05
Si -1.52  0.94 -6.05
Si -3.42  4.43  3.03
Si  3.42 -4.43 -3.03
Si -5.54 -1.16 -3.03
Si  5.54  1.16  3.03
Si  5.57 -1.16 -3.03
Si -5.57  1.16  3.03
Si -0.03  2.32  6.05
Si  0.03 -2.32 -6.05
Si  3.07 -4.31  3.78
Si  2.18  0.94 -6.05
Si -2.18 -0.94  6.05
Si  5.22 -1.04  3.78
Si -5.25  3.16 -2.28
Si -0.60 -6.53  0.00
Si  0.60  6.53  0.00
Si -3.38  2.00 -5.30
Si  2.47  5.37 -3.03
Si -2.47 -5.37  3.03
Si  5.26 -3.37 -2.28
Si  3.99  4.43  3.03
Si -3.99 -4.43 -3.03
Si -5.86 -3.26  0.00
Si  5.86  3.26  0.00
Si -0.35  0.12  6.80
Si  0.60  6.43 -2.28
Si -1.58  5.49  3.78
Si  4.02  2.00 -5.30
Si -0.28 -4.53 -5.30
Si  2.12  5.49  3.78
Si -0.60 -6.63 -2.28
Si  5.86  3.16 -2.28
Si -5.88 -1.04  3.78
Si -5.85 -3.37 -2.28
Si -4.33 -4.31  3.78
Si -3.10  6.53  0.00
Si  3.10 -6.53  0.00
Si  0.63  4.21 -6.05
Si -0.63 -4.21  6.05
Si -7.41  0.00  0.00
Si  7.41  0.00  0.00
Si  4.94 -5.47  0.75
Si  3.67  2.32  6.05
Si -3.67 -2.32 -6.05
Si  7.09 -2.20  0.75
Si  3.73 -2.32 -6.05
Si -3.73  2.32  6.05
Si -3.10  6.43 -2.28
Si -1.23  5.27 -5.30
Si  3.36  0.12  6.80
Si  1.21 -3.14  6.80
Si  3.10 -6.63 -2.28
Si -1.26  7.59  0.75
Si -7.41 -0.10 -2.28
Si  7.41 -0.10 -2.28
Si  3.42 -4.53 -5.30
Si -5.54 -1.26 -5.30
Si  5.57 -1.26 -5.30
Si  1.81  3.38  6.80
Si -4.30 -6.53  0.00
Si  4.30  6.53  0.00
Si -1.90  3.38  6.80
Si  2.47  5.27 -5.30
Si  4.94 -5.37  3.03
Si -4.94  5.37 -3.03
Si -2.50 -3.14  6.80
Si -4.05  0.12  6.80
Si  3.07 -4.21  6.05
Si -3.07  4.21 -6.05
Si  7.09 -2.10  3.03
Si -7.09  2.10 -3.03
Si  2.44  7.59  0.75
Si -3.99 -4.53 -5.30
Si -5.22  0.94 -6.05
Si  5.22 -0.94  6.05
Si -7.72 -2.20  0.75
Si  4.31  6.43 -2.28
Si -4.30 -6.63 -2.28
Si -6.17 -5.47  0.75
Si  1.27 -7.69 -3.03
Si -1.27  7.69  3.03
Si -7.12  4.33  0.75
Si -1.58  5.59  6.05
Si  1.58 -5.59 -6.05
Si  5.89  0.94 -6.05
Si -5.89 -0.94  6.05
Si -5.28  5.49  3.78
Si  2.12  5.59  6.05
Si -2.12 -5.59 -6.05
Si  0.92 -7.57  3.78
Si -1.52  0.84 -8.33
Si -4.34 -4.21  6.05
Si  4.34  4.21 -6.05
Si -7.72 -2.10  3.03
Si  7.72  2.10 -3.03
Si  7.38  2.22  3.78
Si -2.44 -7.69 -3.03
Si  2.44  7.69  3.03
Si -7.44  2.22  3.78
Si  2.19  0.84 -8.33
Si  0.03 -2.42 -8.33
Si -6.17 -5.37  3.03
Si  6.17  5.37 -3.03
Si -0.92 -8.73  0.75
Si  5.83  5.49  3.78
Si  7.69  4.33  0.75
Si  6.78 -4.31  3.78
Si -2.78 -7.57  3.78
Si  7.12 -4.43 -3.03
Si -7.12  4.43  3.03
Si -4.94  5.27 -5.30
Si  4.91 -3.14  6.80
Si -7.09  2.00 -5.30
Si  0.35 -0.22 -9.08
Si -0.35  0.22  9.08
Si -4.97  7.59  0.75
Si -0.92 -8.63  3.03
Si  0.92  8.63 -3.03
Si  2.79 -8.73  0.75
Si  0.64  4.11 -8.33
Si  9.24  1.06  0.75
Si -9.27  1.06  0.75
Si  7.69  4.43  3.03
Si -7.69 -4.43 -3.03
Si  5.51  3.38  6.80
Si -0.95 -6.41  6.80
Si -3.67 -2.42 -8.33
Si -6.80  6.53  0.00
Si  6.80 -6.53  0.00
Si -5.60  3.38  6.80
Si  3.74 -2.42 -8.33
Si  1.27 -7.79 -5.30
Si  0.26  6.65  6.80
Si  8.96 -3.26  0.00
Si -8.96  3.26  0.00
Si  0.57  8.75  3.78
Si -2.79  8.63 -3.03
Si  2.79 -8.63  3.03
Si  7.72  2.00 -5.30
Si -6.80  6.43 -2.28
Si  4.62 -7.57  3.78
Si  4.97 -7.69 -3.03
Si -4.97  7.69  3.03
Si  1.20 -3.04  9.08
Si -1.20  3.04 -9.08
Si  0.92 -7.47  6.05
Si -0.92  7.47 -6.05
Si  3.36  0.22  9.08
Si -3.36 -0.22 -9.08
Si  6.17  5.27 -5.30
Si -6.20 -3.14  6.80
Si -2.44 -7.79 -5.30
Si  2.76 -6.41  6.80
Si  8.93 -1.04  3.78
Si -8.96  3.16 -2.28
Si  6.81 -6.63 -2.28
Si -3.07  4.11 -8.33
Si  5.29 -5.59 -6.05
Si -5.29  5.59  6.05
Si  6.14  7.59  0.75
Si  9.24  1.16  3.03
Si -9.24 -1.16 -3.03
Si  7.06  0.12  6.80
Si  7.38  2.32  6.05
Si -7.38 -2.32 -6.05
Si  9.27 -1.16 -3.03
Si -9.27  1.16  3.03
Si  8.96 -3.37 -2.28
Si  0.95 -9.79  0.00
Si -0.95  9.79  0.00
Si -7.44  2.32  6.05
Si  7.44 -2.32 -6.05
Si -5.22  0.84 -8.33
Si -8.04 -4.31  3.78
Si  1.80  3.48  9.08
Si -1.80 -3.48 -9.08
Si -2.50 -3.04  9.08
Si  2.50  3.04 -9.08
Si -4.62 -8.73  0.75
Si -1.90  3.48  9.08
Si  1.90 -3.48 -9.08
Si  4.05 -0.22 -9.08
Si -4.05  0.22  9.08
Si  7.12 -4.53 -5.30
Si -0.95  9.69 -2.28
Si  2.79  7.47 -6.05
Si -2.79 -7.47  6.05
Si  6.77 -4.21  6.05
Si -6.77  4.21 -6.05
Si  1.49  1.28  9.83
Si -3.13  8.75  3.78
Si -0.66 -1.98  9.83
Si  0.92  8.53 -5.30
Si -5.82 -5.59 -6.05
Si  5.82  5.59  6.05
Si -9.56 -3.26  0.00
Si  9.56  3.26  0.00
Si -3.45  6.65  6.80
Si -2.21  1.28  9.83
Si -2.75 -9.79  0.00
Si  2.75  9.79  0.00
Si  0.95 -9.89 -2.28
Si  1.58 -5.69 -8.33
Si  5.89  0.84 -8.33
Si  4.62  8.63 -3.03
Si -4.62 -8.63  3.03
Si  4.34  4.11 -8.33
Si  8.64 -5.47  0.75
Si -6.14 -7.69 -3.03
Si  6.14  7.69  3.03
Si  3.96  6.65  6.80
Si -2.12 -5.69 -8.33
Si -7.75  0.12  6.80
Si  9.56  3.16 -2.28
Si  2.76  9.69 -2.28
Si -8.01 -6.53  0.00
Si  8.01  6.53  0.00
Si -9.59 -1.04  3.78
Si -7.69 -4.53 -5.30
Si -9.56 -3.37 -2.28
Si -2.78  8.53 -5.30
Si -4.65 -6.41  6.80
Si  4.28  8.75  3.78
Si  3.04 -1.98  9.83
Si -2.75 -9.89 -2.28
Si  8.01  6.43 -2.28
Si -8.64  5.37 -3.03
Si  8.64 -5.37  3.03
Si -8.01 -6.63 -2.28
Si  4.97 -7.79 -5.30
Si -6.49 -7.57  3.78
Si  4.62 -7.47  6.05
Si -4.62  7.47 -6.05
Si -9.24 -1.26 -5.30
Si  0.57  8.85  6.05
Si -0.57 -8.85 -6.05
Si  9.28 -1.26 -5.30
Si  4.91 -3.04  9.08
Si -4.91  3.04 -9.08
Si -8.93  0.94 -6.05
Si  8.93 -0.94  6.05
Si -0.06  4.55  9.83
Si  4.65 -9.79  0.00
Si -4.65  9.79  0.00
Si  6.49 -8.73  0.75
Si  8.04  4.21 -6.05
Si -8.04 -4.21  6.05
Si  0.89 10.85  0.75
Si -4.37 -1.98  9.83
Si -4.65  9.69 -2.28
Si 10.79 -2.20  0.75
Si  4.62  8.53 -5.30
Si  0.95  6.31 -9.08
Si -0.95 -6.31  9.08
Si -11.11  0.00  0.00
Si 11.11  0.00  0.00
Si -0.92  7.37 -8.33
Si  4.65 -9.89 -2.28
Si  3.13 -8.85 -6.05
Si -3.13  8.85  6.05
Si  5.51  3.48  9.08
Si -5.51 -3.48 -9.08
Si  0.89 -5.25  9.83
Si -8.99  5.49  3.78
Si  5.19  1.28  9.83
Si  6.49 -8.63  3.03
Si -6.49  8.63 -3.03
Si  5.60 -3.48 -9.08
Si -5.60  3.48  9.08
Si -2.81 10.85  0.75
Si -6.14 -7.79 -5.30
Si -9.87 -5.47  0.75
Si  0.25  6.75  9.08
Si -0.25 -6.75 -9.08
Si -11.11 -0.10 -2.28
Si 11.11 -0.10 -2.28
Si  6.46 -6.41  6.80
Si  0.35 -0.32 -11.36
Si  9.59  0.94 -6.05
Si -9.59 -0.94  6.05
Si -7.37 -2.42 -8.33
Si  5.29 -5.69 -8.33
Si -2.75  6.31 -9.08
Si  2.75 -6.31  9.08
Si  0.89 10.96  3.03
Si -0.89 -10.96 -3.03
Si -10.79  2.10 -3.03
Si 10.79 -2.10  3.03
Si  6.20  3.04 -9.08
Si -6.20 -3.04  9.08
Si  8.61 -3.14  6.80
Si -8.64  5.27 -5.30
Si  3.64  4.55  9.83
Si  7.44 -2.42 -8.33
Si  2.79  7.37 -8.33
Si -3.76  4.55  9.83
Si -6.77  4.11 -8.33
Si -2.81 -5.25  9.83
Si -7.06 -0.22 -9.08
Si  7.06  0.22  9.08
Si -1.23 -10.84  3.78
Si -4.27 -8.85 -6.05
Si  4.27  8.85  6.05
Si -5.92  1.28  9.83
Si -8.67  7.59  0.75
Si -6.49 -7.47  6.05
Si  6.49  7.47 -6.05
Si  9.53  5.49  3.78
Si -9.88 -5.37  3.03
Si  9.88  5.37 -3.03
Si -5.82 -5.69 -8.33
Si -11.43 -2.20  0.75
Si -10.82  4.33  0.75
Si -2.82 10.96  3.03
Si  2.82 -10.96 -3.03
Si -6.83  8.75  3.78
Si -6.46 -9.79  0.00
Si  6.46  9.79  0.00
Si  2.47 -10.84  3.78
Si -1.20  2.94 -11.36
Si  4.59 10.85  0.75
Si -3.45  6.75  9.08
Si  3.45 -6.75 -9.08
Si  0.60 -9.67  6.80
Si -3.35 -0.32 -11.36
Si  6.46  9.69 -2.28
Si  8.33 -7.57  3.78
Si -7.15  6.65  6.80
Si 11.08  2.22  3.78
Si 10.48 -4.31  3.78
Si  9.21  3.38  6.80
Si  7.75 -0.22 -9.08
Si -7.75  0.22  9.08
Si -6.49  8.53 -5.30
Si -11.14  2.22  3.78
Si -8.67  7.69  3.03
Si  8.67 -7.69 -3.03
Si  3.96  6.75  9.08
Si -3.96 -6.75 -9.08
Si  4.65  6.31 -9.08
Si -4.65 -6.31  9.08
Si  2.50  2.94 -11.36
Si 11.43  2.10 -3.03
Si -11.43 -2.10  3.03
Si -9.30  3.38  6.80
Si -6.46 -9.89 -2.28
Si  0.64 -12.00  0.75
Si -4.62  7.37 -8.33
Si -1.80 -3.59 -11.36
Si  4.59 -5.25  9.83
Si  1.90 -3.59 -11.36
Si  4.05 -0.32 -11.36
Si 10.82 -4.43 -3.03
Si -10.82  4.43  3.03
Si -8.32 -8.73  0.75
Si  6.74 -1.98  9.83
Si -1.30  9.91  6.80
Si -10.79  2.00 -5.30
Si  8.99 -5.59 -6.05
Si -8.99  5.59  6.05
Si 11.40  4.33  0.75
Si  7.66  6.65  6.80
Si -3.10 -9.67  6.80
Si -8.92  0.84 -8.33
Si -0.57 -8.95 -8.33
Si -4.59 -10.96 -3.03
Si  4.59 10.96  3.03
Si  2.41  9.91  6.80
Si  0.66  1.88 -12.11
Si -0.66 -1.88 12.11
Si  1.49  1.38 12.11
Si -1.49 -1.38 -12.11
Si  8.04  4.11 -8.33
Si -0.63 11.90 -3.03
Si  0.63 -11.90  3.03
Si -0.89 -11.06 -5.30
Si -8.32 -8.63  3.03
Si  8.32  8.63 -3.03
Si -10.51  6.53  0.00
Si 10.51 -6.53  0.00
Si -1.23 -10.73  6.05
Si  1.23 10.73 -6.05
Si  9.88  5.27 -5.30
Si  2.21 -1.38 -12.11
Si -2.21  1.38 12.11
Si -3.07 -12.00  0.75
Si -9.90 -3.14  6.80
Si  7.98  8.75  3.78
Si  9.85  7.59  0.75
Si -4.94 -10.84  3.78
Si -10.51  6.43 -2.28
Si -8.35 -6.41  6.80
Si  2.47 -10.73  6.05
Si -2.47 10.73 -6.05
Si  2.82 -11.06 -5.30
Si  4.31 -9.67  6.80
Si 11.39  4.43  3.03
Si -11.39 -4.43 -3.03
Si -9.53 -5.59 -6.05
Si  9.53  5.59  6.05
Si  3.13 -8.95 -8.33
Si -3.04  1.88 -12.11
Si  3.04 -1.88 12.11
Si 10.51 -6.63 -2.28
Si -0.98 12.02  3.78
Si -3.07 -11.90  3.03
Si  3.07 11.90 -3.03
Si -1.61  7.81  9.83
Si -6.52 10.85  0.75
Si -4.91  2.94 -11.36
Si -6.84  8.85  6.05
Si  6.84 -8.85 -6.05
Si -8.32  7.47 -6.05
Si  8.32 -7.47  6.05
Si  2.09  7.81  9.83
Si  9.59  0.84 -8.33
Si 10.76  0.12  6.80
Si 11.43  2.00 -5.30
Si  4.34 -12.00  0.75
Si -6.46  6.31 -9.08
Si  6.46 -6.31  9.08
Si  8.67 -7.79 -5.30
Si 10.48 -4.21  6.05
Si -10.48  4.21 -6.05
Si -11.08 -2.32 -6.05
Si 11.08  2.32  6.05
Si  9.84  7.69  3.03
Si -9.84 -7.69 -3.03
Si -8.07 -1.98  9.83
Si  8.36 -9.79  0.00
Si -8.36  9.79  0.00
Si 10.83 -4.53 -5.30
Si  6.49  7.37 -8.33
Si -8.61  3.04 -9.08
Si  8.61 -3.04  9.08
Si  2.72 12.02  3.78
Si -11.14  2.32  6.05
Si 11.14 -2.32 -6.05
Si -6.52 -5.25  9.83
Si  1.17 -0.82 12.86
Si -0.63 11.79 -5.30
Si -4.27 -8.95 -8.33
Si  0.06 -4.65 -12.11
Si -0.06  4.65 12.11
Si  0.95  6.21 -11.36
Si -8.35  9.69 -2.28
Si -4.37 -1.88 12.11
Si  4.37  1.88 -12.11
