500
set: 615.00  0.00  0.00
Si  0.25 -0.77  0.93
Si -0.25  0.77 -0.93
Si -1.44 -1.61 -0.93
Si  1.44  1.61  0.93
Si -1.71  1.61  0.93
Si  1.71 -1.61 -0.93
Si -1.24 -0.11  2.50
Si  1.24  0.11 -2.50
Si -2.89 -0.77  0.93
Si  2.89  0.77 -0.93
Si  1.90 -0.11  2.50
Si -1.90  0.11 -2.50
Si  0.05 -2.27 -2.50
Si -0.05  2.27  2.50
Si -0.94 -3.15  0.93
Si  0.94  3.15 -0.93
Si -3.39  0.77 -0.93
Si  3.39 -0.77  0.93
Si -0.72  2.50 -2.50
Si  0.72 -2.50  2.50
Si  2.20 -3.15  0.93
Si -2.20  3.15 -0.93
Si -0.52  4.00  0.93
Si  0.52 -4.00 -0.93
Si -2.42 -2.50  2.50
Si  2.42  2.50 -2.50
Si -0.45 -0.73 -4.37
Si  0.45  0.73  4.37
Si -3.09 -2.27 -2.50
Si  3.09  2.27  2.50
Si  3.19 -2.27 -2.50
Si -3.19  2.27  2.50
Si -0.74 -1.65  4.37
Si  0.74  1.65 -4.37
Si -2.62 -4.00 -0.93
Si  2.62  4.00  0.93
Si -4.57 -1.61 -0.93
Si  4.57  1.61  0.93
Si -4.38 -0.11  2.50
Si  4.38  0.11 -2.50
Si  2.69 -0.73 -4.37
Si -2.69  0.73  4.37
Si -4.84  1.61  0.93
Si  4.84 -1.61 -0.93
Si -3.85  2.50 -2.50
Si  3.85 -2.50  2.50
Si  4.08  3.15 -0.93
Si -4.08 -3.15  0.93
Si  2.40 -1.65  4.37
Si -2.40  1.65 -4.37
Si  1.14  4.66  2.50
Si -1.14 -4.66 -2.50
Si -3.66  4.00  0.93
Si  3.66 -4.00 -0.93
Si  0.47  4.88 -2.50
Si -0.47 -4.88  2.50
Si  1.51 -3.12 -4.37
Si -1.51  3.12  4.37
Si -1.63 -3.12 -4.37
Si  1.63  3.12  4.37
Si -5.04  0.11 -2.50
Si  5.04 -0.11  2.50
Si -2.00  4.66  2.50
Si  2.00 -4.66 -2.50
Si -3.58 -0.73 -4.37
Si  3.58  0.73  4.37
Si -1.01  5.54 -0.93
Si  1.01 -5.54  0.93
Si  2.13  5.54 -0.93
Si -2.13 -5.54  0.93
Si  1.21 -4.04  4.37
Si -1.21  4.04 -4.37
Si  3.88  1.65 -4.37
Si -3.88 -1.65  4.37
Si -0.91  1.00 -5.94
Si  0.91 -1.00  5.94
Si  2.67 -4.88  2.50
Si -2.67  4.88 -2.50
Si -6.03 -0.77  0.93
Si  6.03  0.77 -0.93
Si -1.04  1.39  5.94
Si  1.04 -1.39 -5.94
Si -1.93 -4.04  4.37
Si  1.93  4.04 -4.37
Si -5.34  3.15 -0.93
Si  5.34 -3.15  0.93
Si -2.23 -1.00  5.94
Si  2.23  1.00 -5.94
Si -2.10 -1.39 -5.94
Si  2.10  1.39  5.94
Si  0.67  6.38  0.93
Si -0.67 -6.38 -0.93
Si -3.61 -4.88  2.50
Si  3.61  4.88 -2.50
Si  5.56  2.50 -2.50
Si -5.56 -2.50  2.50
Si  6.53 -0.77  0.93
Si -6.53  0.77 -0.93
Si  4.28  4.66  2.50
Si -4.28 -4.66 -2.50
Si -0.27 -3.38  5.94
Si  0.27  3.38 -5.94
Si -2.47  6.38  0.93
Si  2.47 -6.38 -0.93
Si  4.15 -5.54  0.93
Si -4.15  5.54 -0.93
Si  0.32 -5.50 -4.37
Si -0.32  5.50  4.37
Si -0.15 -3.77 -5.94
Si  0.15  3.77  5.94
Si -5.76 -4.00 -0.93
Si  5.76  4.00  0.93
Si  6.23  2.27  2.50
Si -6.23 -2.27 -2.50
Si  4.65 -3.12 -4.37
Si -4.65  3.12  4.37
Si -6.33  2.27  2.50
Si  6.33 -2.27 -2.50
Si  4.77  3.12  4.37
Si -4.77 -3.12 -4.37
Si  5.54 -1.65  4.37
Si -5.54  1.65 -4.37
Si -4.05  1.00 -5.94
Si  4.05 -1.00  5.94
Si -5.83  0.73  4.37
Si  5.83 -0.73 -4.37
Si  4.35 -4.04  4.37
Si -4.35  4.04 -4.37
Si  5.14 -4.66 -2.50
Si -5.14  4.66  2.50
Si  4.18 -1.39 -5.94
Si -4.18  1.39  5.94
Si  2.87 -3.38  5.94
Si -2.87  3.38 -5.94
Si  3.81  6.38  0.93
Si -3.81 -6.38 -0.93
Si  0.81 -7.04 -2.50
Si -0.81  7.04  2.50
Si  2.82  5.50  4.37
Si -2.82 -5.50 -4.37
Si  3.41  3.38 -5.94
Si -3.41 -3.38  5.94
Si -2.99  3.77  5.94
Si  2.99 -3.77 -5.94
Si  5.27  5.54 -0.93
Si -5.27 -5.54  0.93
Si -3.29 -3.77 -5.94
Si  3.29  3.77  5.94
Si  0.02 -6.42  4.37
Si -0.02  6.42 -4.37
Si -5.07 -4.04  4.37
Si  5.07  4.04 -4.37
Si -0.54 -0.15  7.80
Si  0.54  0.15 -7.80
Si -2.33 -7.04 -2.50
Si  2.33  7.04  2.50
Si -1.48  7.27 -2.50
Si  1.48 -7.27  2.50
Si  3.46 -5.50 -4.37
Si -3.46  5.50  4.37
Si  7.00 -2.50  2.50
Si -7.00  2.50 -2.50
Si  1.66  7.27 -2.50
Si -1.66 -7.27  2.50
Si -7.51 -0.11  2.50
Si  7.51  0.11 -2.50
Si -7.22 -3.15  0.93
Si  7.22  3.15 -0.93
Si -7.71 -1.61 -0.93
Si  7.71  1.61  0.93
Si  6.80 -4.00 -0.93
Si -6.80  4.00  0.93
Si -0.18 -7.92  0.93
Si  0.18  7.92 -0.93
Si  5.81 -4.88  2.50
Si -5.81  4.88 -2.50
Si -5.24 -1.39 -5.94
Si  5.24  1.39  5.94
Si -6.72 -0.73 -4.37
Si  6.72  0.73  4.37
Si  5.37  1.00 -5.94
Si -5.37 -1.00  5.94
Si  0.64  2.23  7.80
Si -0.64 -2.23 -7.80
Si -7.98  1.61  0.93
Si  7.98 -1.61 -0.93
Si  2.60 -0.15  7.80
Si -2.60  0.15 -7.80
Si -1.41  2.54 -7.80
Si  1.41 -2.54  7.80
Si  3.12  6.42 -4.37
Si -3.12 -6.42  4.37
Si  1.73  2.54 -7.80
Si -1.73 -2.54  7.80
Si -3.16  6.42 -4.37
Si  3.16 -6.42  4.37
Si  1.46  5.77 -5.94
Si -1.46 -5.77  5.94
Si -7.02 -1.65  4.37
Si  7.02  1.65 -4.37
Si  1.68 -5.77  5.94
Si -1.68  5.77 -5.94
Si  3.95 -7.04 -2.50
Si -3.95  7.04  2.50
Si -2.50  2.23  7.80
Si  2.50 -2.23 -7.80
Si  2.96 -7.92  0.93
Si -2.96  7.92 -0.93
Si -5.61  6.38  0.93
Si  5.61 -6.38 -0.93
Si -8.18  0.11 -2.50
Si  8.18 -0.11  2.50
Si -3.68 -0.15  7.80
Si  3.68  0.15 -7.80
Si -3.32 -7.92  0.93
Si  3.32  7.92 -0.93
Si  1.34  6.16  5.94
Si -1.34 -6.16 -5.94
Si  6.75  4.88 -2.50
Si -6.75 -4.88  2.50
Si -1.80  6.16  5.94
Si  1.80 -6.16 -5.94
Si  1.28 -8.77 -0.93
Si -1.28  8.77  0.93
Si -3.78 -2.23 -7.80
Si  3.78  2.23  7.80
Si -4.62  7.27 -2.50
Si  4.62 -7.27  2.50
Si  1.86  8.77  0.93
Si -1.86 -8.77 -0.93
Si  0.87  7.89  4.37
Si -0.87 -7.89 -4.37
Si  4.80  7.27 -2.50
Si -4.80 -7.27  2.50
Si -8.48  3.15 -0.93
Si  8.48 -3.15  0.93
Si -6.01  3.38 -5.94
Si  6.01 -3.38  5.94
Si -7.42 -4.66 -2.50
Si  7.42  4.66  2.50
Si -1.31  4.62  7.80
Si  1.31 -4.62 -7.80
Si  7.29 -5.54  0.93
Si -7.29  5.54 -0.93
Si  5.96  5.50  4.37
Si -5.96 -5.50 -4.37
Si  0.22 -4.92  7.80
Si -0.22  4.92 -7.80
Si  1.83  4.62  7.80
Si -1.83 -4.62 -7.80
Si -9.17 -0.77  0.93
Si  9.17  0.77 -0.93
Si -5.47 -7.04 -2.50
Si  5.47  7.04  2.50
Si -2.27  7.89  4.37
Si  2.27 -7.89 -4.37
Si -6.13  3.77  5.94
Si  6.13 -3.77 -5.94
Si  7.19 -1.00  5.94
Si -7.19  1.00 -5.94
Si -4.55  2.54 -7.80
Si  4.55 -2.54  7.80
Si  8.70  2.50 -2.50
Si -8.70 -2.50  2.50
Si -1.11 -0.51 -9.37
Si  1.11  0.51  9.37
Si  7.79 -3.12 -4.37
Si -7.79  3.12  4.37
Si  6.55  3.38 -5.94
Si -6.55 -3.38  5.94
Si  4.60  5.77 -5.94
Si -4.60 -5.77  5.94
Si  6.95  6.38  0.93
Si -6.95 -6.38 -0.93
Si -7.32  1.39  5.94
Si  7.32 -1.39 -5.94
Si  6.43  3.77  5.94
Si -6.43 -3.77 -5.94
Si  4.87  2.54 -7.80
Si -4.87 -2.54  7.80
Si -0.07 -1.88  9.37
Si  0.07  1.88 -9.37
Si  7.91  3.12  4.37
Si -7.91 -3.12 -4.37
Si  7.49 -4.04  4.37
Si -7.49  4.04 -4.37
Si  4.82 -5.77  5.94
Si -4.82  5.77 -5.94
Si -2.03  0.51  9.37
Si  2.03 -0.51 -9.37
Si -6.60  5.50  4.37
Si  6.60 -5.50 -4.37
Si -4.48 -6.16 -5.94
Si  4.48  6.16  5.94
Si -2.92 -4.92  7.80
Si  2.92  4.92 -7.80
Si  5.74 -0.15  7.80
Si -5.74  0.15 -7.80
Si  9.67 -0.77  0.93
Si -9.67  0.77 -0.93
Si  0.38  9.43  2.50
Si -0.38 -9.43 -2.50
Si -8.90 -4.00 -0.93
Si  8.90  4.00  0.93
Si -3.36  4.92 -7.80
Si  3.36 -4.92  7.80
Si  8.28 -4.66 -2.50
Si -8.28  4.66  2.50
Si -0.84  2.89  9.37
Si  0.84 -2.89 -9.37
Si  8.68 -1.65  4.37
Si -8.68  1.65 -4.37
Si  4.42 -8.77 -0.93
Si -4.42  8.77  0.93
Si  4.01  7.89  4.37
Si -4.01 -7.89 -4.37
Si -4.94  6.16  5.94
Si  4.94 -6.16 -5.94
Si  5.63 -2.23 -7.80
Si -5.63  2.23  7.80
Si -1.17 -8.81  4.37
Si  1.17  8.81 -4.37
Si -9.37 -2.27 -2.50
Si  9.37  2.27  2.50
Si -6.26 -6.42  4.37
Si  6.26  6.42 -4.37
Si  0.29 -9.65  2.50
Si -0.29  9.65 -2.50
Si  6.30 -6.42  4.37
Si -6.30  6.42 -4.37
Si  8.97 -0.73 -4.37
Si -8.97  0.73  4.37
Si -1.97  8.81 -4.37
Si  1.97 -8.81  4.37
Si  3.06 -1.88  9.37
Si -3.06  1.88 -9.37
Si  6.10 -7.92  0.93
Si -6.10  7.92 -0.93
Si  9.47 -2.27 -2.50
Si -9.47  2.27  2.50
Si -2.30 -2.89 -9.37
Si  2.30  2.89  9.37
Si -3.21 -1.88  9.37
Si  3.21  1.88 -9.37
Si  0.49 -8.15  5.94
Si -0.49  8.15 -5.94
Si  4.45 -4.62 -7.80
Si -4.45  4.62  7.80
Si -8.41 -5.54  0.93
Si  8.41  5.54 -0.93
Si -5.00 -8.77 -0.93
Si  5.00  8.77  0.93
Si  2.76 -9.43 -2.50
Si -2.76  9.43  2.50
Si  8.21  4.04 -4.37
Si -8.21 -4.04  4.37
Si  6.46  7.92 -0.93
Si -6.46 -7.92  0.93
Si  7.09 -7.04 -2.50
Si -7.09  7.04  2.50
Si  4.25  0.51  9.37
Si -4.25 -0.51 -9.37
Si  4.97  4.62  7.80
Si -4.97 -4.62 -7.80
Si  8.38  1.39  5.94
Si -8.38 -1.39 -5.94
Si  6.82  0.15 -7.80
Si -6.82 -0.15  7.80
Si  3.52  9.43  2.50
Si -3.52 -9.43 -2.50
Si  2.85  9.65 -2.50
Si -2.85 -9.65  2.50
Si  1.26  4.27 -9.37
Si -1.26 -4.27  9.37
Si  8.50  1.00 -5.94
Si -8.50 -1.00  5.94
Si -0.61  8.54  5.94
Si  0.61 -8.54 -5.94
Si -2.65 -8.15  5.94
Si  2.65  8.15 -5.94
Si -1.36 -10.31  0.93
Si  1.36 10.31 -0.93
Si  1.88 -4.27  9.37
Si -1.88  4.27 -9.37
Si  0.12 -7.00 -7.80
Si -0.12  7.00  7.80
Si -8.95  4.88 -2.50
Si  8.95 -4.88  2.50
Si -1.77 10.31 -0.93
Si  1.77 -10.31  0.93
Si  5.41 -7.89 -4.37
Si -5.41  7.89  4.37
Si -3.43  9.65 -2.50
Si  3.43 -9.65  2.50
Si  3.98 -2.89 -9.37
Si -3.98  2.89  9.37
Si -6.92 -2.23 -7.80
Si  6.92  2.23  7.80
Si  2.53  8.54  5.94
Si -2.53 -8.54 -5.94
Si  5.17 -0.51 -9.37
Si -5.17  0.51  9.37
Si  3.63 -8.15  5.94
Si -3.63  8.15 -5.94
Si 10.13 -2.50  2.50
Si -10.13  2.50 -2.50
Si  4.30  8.81 -4.37
Si -4.30 -8.81  4.37
Si -0.97 -7.31  7.80
Si  0.97  7.31 -7.80
Si -9.94  4.00  0.93
Si  9.94 -4.00 -0.93
Si  0.35  5.28  9.37
Si -0.35 -5.28 -9.37
Si -9.86 -0.73 -4.37
Si  9.86  0.73  4.37
Si 10.36  3.15 -0.93
Si -10.36 -3.15  0.93
Si  8.75 -6.38 -0.93
Si -8.75  6.38  0.93
Si  2.17 -7.31  7.80
Si -2.17  7.31 -7.80
Si -3.02 -7.00 -7.80
Si  3.02  7.00  7.80
Si  7.76 -7.27  2.50
Si -7.76  7.27 -2.50
Si 10.65  0.11 -2.50
Si -10.65 -0.11  2.50
Si  3.26 -7.00 -7.80
Si -3.26  7.00  7.80
Si -10.85 -1.61 -0.93
Si 10.85  1.61  0.93
Si -6.06 -4.92  7.80
Si  6.06  4.92 -7.80
Si  7.94  7.27 -2.50
Si -7.94 -7.27  2.50
Si -3.75  8.54  5.94
Si  3.75 -8.54 -5.94
Si -5.11  8.81 -4.37
Si  5.11 -8.81  4.37
Si -2.79  5.28  9.37
Si  2.79 -5.28 -9.37
Si 10.16  1.65 -4.37
Si -10.16 -1.65  4.37
Si -0.09 11.15  0.93
Si  0.09 -11.15 -0.93
Si -4.40 -4.27  9.37
Si  4.40  4.27 -9.37
Si -1.08 10.27  4.37
Si  1.08 -10.27 -4.37
Si  5.44  2.89  9.37
Si -5.44 -2.89 -9.37
Si -7.69  2.54 -7.80
Si  7.69 -2.54  7.80
Si -11.12  1.61  0.93
Si 11.12 -1.61 -0.93
Si  6.50 -4.92  7.80
Si -6.50  4.92 -7.80
Si -4.50 -10.31  0.93
Si  4.50 10.31 -0.93
Si -3.49 -5.28 -9.37
Si  3.49  5.28  9.37
Si -9.89 -4.88  2.50
Si  9.89  4.88 -2.50
Si  0.34 -1.35 -11.24
Si -0.34  1.35 11.24
Si -7.74 -5.77  5.94
Si  7.74  5.77 -5.94
Si  2.06 10.27  4.37
Si -2.06 -10.27 -4.37
Si -1.53 -1.04 11.24
Si  1.53  1.04 -11.24
Si  6.20 -1.88  9.37
Si -6.20  1.88 -9.37
Si -8.61 -7.04 -2.50
Si  8.61  7.04  2.50
Si -1.61  1.04 -11.24
Si  1.61 -1.04 11.24
Si  5.90 -9.43 -2.50
Si -5.90  9.43  2.50
Si  9.14 -3.38  5.94
Si -9.14  3.38 -5.94
Si  4.11  7.31 -7.80
Si -4.11 -7.31  7.80
Si  7.62  6.16  5.94
Si -7.62 -6.16 -5.94
Si -5.02  4.27 -9.37
Si  5.02 -4.27  9.37
Si -4.92 10.31 -0.93
Si  4.92 -10.31  0.93
Si -8.01 -2.54  7.80
Si  8.01  2.54 -7.80
Si -6.35 -1.88  9.37
Si  6.35  1.88 -9.37
Si  7.96 -5.77  5.94
Si -7.96  5.77 -5.94
Si -9.10 -5.50 -4.37
Si  9.10  5.50  4.37
Si  7.15  7.89  4.37
Si -7.15 -7.89 -4.37
