500
set: 679.00  0.00  0.00
Si  0.91  0.49 -0.92
Si -0.71 -1.47 -0.71
Si -0.02  1.53  1.12
Si -1.41  0.78 -1.38
Si  2.34 -1.30 -0.26
Si -2.60  0.21  0.70
Si  2.02 -0.07  1.95
Si -0.91  2.89 -0.78
Si  1.83  2.73 -0.28
Si  1.02 -1.86 -2.59
Si -0.40  0.04  3.39
Si -2.32 -1.15 -2.70
Si  1.18  1.64 -3.15
Si -0.43 -3.22  2.15
Si  1.28 -3.60 -0.78
Si -2.80  1.93  1.99
Si -2.94 -1.95  1.89
Si -1.82 -3.58  0.34
Si  2.16 -3.15  1.41
Si  3.87  1.13  0.60
Si -3.54  1.91 -0.86
Si  3.41 -0.60 -2.25
Si -1.03  3.27  2.46
Si -0.29  3.17 -3.03
Si -0.85  0.14 -4.38
Si -1.68 -3.20 -2.73
Si  4.37 -1.23  0.45
Si -1.34 -2.07  3.95
Si  2.95  2.43  2.66
Si -4.28 -1.16 -1.45
Si  3.89  1.74 -2.00
Si  1.48  4.30  1.37
Si -2.69  2.49 -3.10
Si -3.54 -0.01  3.34
Si  2.07  0.65  4.39
Si -0.25 -2.62 -4.23
Si  1.74 -2.78  3.88
Si  3.90 -0.57  3.38
Si  1.05  2.88  4.26
Si  0.33  4.93 -1.87
Si  2.75 -1.19 -4.46
Si -0.42 -5.03 -1.87
Si -2.63  4.58  1.27
Si -1.97  2.63  4.36
Si -0.74 -0.16  5.55
Si -4.27  0.43 -3.70
Si -5.54 -1.23  0.45
Si  2.82 -5.03 -0.13
Si  4.50 -3.14  1.85
Si -3.01  4.77 -1.52
Si  2.72  3.30 -3.98
Si  0.73 -5.67  1.37
Si -4.88  3.21  0.82
Si  5.63 -1.16 -1.45
Si -0.19 -4.76  3.52
Si  1.96  0.95 -5.54
Si  5.03  3.21  0.82
Si  4.14  3.86 -2.15
Si -4.54 -1.67 -3.65
Si  1.31 -4.42 -3.98
Si  4.78 -3.75 -0.50
Si  3.57  4.93 -0.13
Si  3.71 -3.69 -3.24
Si -6.04  1.13  0.60
Si -4.29  3.01  3.31
Si  0.56  5.20  3.52
Si  2.84 -5.14  2.34
Si  2.86 -1.49  5.47
Si -5.13 -3.75 -0.50
Si -1.45 -1.77 -5.98
Si -0.14 -2.92  5.70
Si  3.59  4.83  2.34
Si -3.38 -5.38  1.27
Si -1.07  6.39  0.34
Si -5.41 -3.14  1.85
Si  0.94  3.18 -5.67
Si -0.50  0.34 -6.54
Si -6.02  1.74 -2.00
Si -3.98 -3.85 -3.56
Si -3.76 -5.20 -1.52
Si -2.07  2.93 -5.58
Si  4.37 -2.53  4.35
Si  6.36  1.91 -0.86
Si  5.37 -1.67 -3.65
Si  2.03  6.36 -0.78
Si  1.63 -2.48 -6.06
Si  5.64  0.43 -3.70
Si  4.43  1.69  4.88
Si -1.95 -4.80 -4.49
Si -6.50 -0.60 -2.25
Si -6.00 -0.57  3.38
Si  4.33  1.99 -5.05
Si -1.20  5.17 -4.49
Si -4.26  3.80 -4.08
Si  1.28  1.34  6.78
Si  0.32  6.75  2.15
Si -3.99 -4.47  3.79
Si  2.06  5.54 -3.98
Si  5.62  3.01  3.31
Si  6.37 -0.01  3.34
Si  2.82  3.00  5.95
Si -5.77  3.86 -2.15
Si  3.39 -6.10 -2.15
Si -1.66 -7.08 -0.78
Si  1.08 -7.24 -0.28
Si  7.31  0.21  0.70
Si -1.77 -6.69  2.46
Si -0.93  6.77 -2.73
Si  4.26 -2.23 -5.58
Si -1.09  4.87  5.44
Si -3.24  5.50  3.79
Si  3.25 -4.87  4.60
Si -0.18  2.87  6.90
Si  6.97 -1.95  1.89
Si -5.54 -2.53  4.35
Si -4.16  0.13  6.23
Si -1.03 -6.79 -3.03
Si -5.48  1.69  4.88
Si -3.64  0.29 -6.59
Si  2.91  6.82  1.41
Si  3.80 -0.27 -6.55
Si -2.58  2.19  6.83
Si -4.38  6.22 -0.50
Si  7.11  1.93  1.99
Si -1.84 -5.10  5.44
Si -7.56 -1.30 -0.26
Si  3.15 -4.57 -5.33
Si -2.21 -1.45  7.23
Si  1.42 -4.72  5.95
Si  1.13 -2.16  7.34
Si -3.24  6.12 -3.56
Si -5.58  1.99 -5.05
Si -0.30 -4.46 -6.41
Si -6.96  2.43  2.66
Si  5.92 -3.85 -3.56
Si -6.20 -3.69 -3.24
Si  5.65  3.80 -4.08
Si -4.43 -1.97  6.28
Si  4.00  5.10  4.60
Si -4.15  3.50  5.85
Si  1.97 -6.66 -3.98
Si -6.34  4.93 -0.13
Si  4.28 -6.75  0.82
Si -7.89 -0.07  1.95
Si  7.59 -1.15 -2.70
Si -1.57 -3.50  7.21
Si  6.15 -5.20 -1.52
Si  1.92  0.23 -7.99
Si  2.17  5.24  5.95
Si  7.22  2.49 -3.10
Si -5.64 -2.23 -5.58
Si  2.85  2.73 -7.27
Si  0.30 -7.08  4.26
Si  2.20 -7.54  2.66
Si -6.32  4.83  2.34
Si  5.92 -4.47  3.79
Si -0.54 -2.92 -7.79
Si  5.53  6.22 -0.50
Si  4.46  6.28 -3.24
Si -1.14  3.57 -7.47
Si  0.45  5.50 -6.41
Si -4.66  6.83  1.85
Si  5.75  0.13  6.23
Si -7.75 -3.15  1.41
Si -4.10 -4.17 -6.14
Si  0.50  7.34 -4.23
Si  3.51 -0.91  7.68
Si -7.16 -1.19 -4.46
Si  6.90  4.77 -1.52
Si -2.19  8.02  1.89
Si  3.90  5.40 -5.33
Si  0.04  8.50 -0.71
Si  2.49  7.18  3.88
Si -8.08  2.73 -0.28
Si -3.88 -4.14  6.38
Si -0.77 -8.43  1.12
Si  6.53 -5.38  1.27
Si  5.47 -1.97  6.28
Si -4.40  3.31 -6.62
Si  8.50  0.78 -1.38
Si -1.30  0.48  8.55
Si  3.82 -3.99  6.69
Si -7.08 -5.03 -0.13
Si  1.77  8.11 -2.59
Si  7.28  4.58  1.27
Si -2.91  2.23 -7.94
Si -3.04 -1.65 -8.04
Si -3.44 -7.47 -3.10
Si  5.25  6.83  1.85
Si -5.63 -6.75  0.82
Si  0.20 -6.78 -5.67
Si -0.59  7.90  3.95
Si  8.09 -3.58  0.34
Si -7.19  3.30 -3.98
Si  4.90 -6.17 -4.08
Si  0.43 -8.32 -3.15
Si -5.45  6.28 -3.24
Si  5.76  3.50  5.85
Si -5.01 -6.17 -4.08
Si -2.71 -7.33  4.36
Si -6.11 -0.27 -6.55
Si -0.12  1.83 -8.81
Si  4.00  1.44  7.94
Si -3.55 -8.04  1.99
Si -7.84  0.65  4.39
Si  3.14 -8.23 -2.00
Si -7.07 -5.14  2.34
Si -7.05 -1.49  5.47
Si -5.90  5.10  4.60
Si -9.00  0.49 -0.92
Si  1.02  0.19  9.01
Si -3.35  5.80 -6.14
Si  0.61  7.04  5.70
Si  6.27  0.29 -6.59
Si  4.87 -6.96  3.31
Si -4.29 -8.06 -0.86
Si -3.13  5.82  6.38
Si -6.52 -6.10 -2.15
Si  3.09  8.66 -0.26
Si -5.04 -6.96  3.31
Si  2.06 -2.85 -8.52
Si  5.51  3.31 -6.62
Si  8.23 -3.20 -2.73
Si  0.44  4.63  8.06
Si  9.20 -1.47 -0.71
Si -1.57  8.82 -2.70
Si -8.63 -3.60 -0.78
Si  2.08 -6.96  5.95
Si  3.12 -8.84  0.60
Si -2.82 -7.03 -5.58
Si  2.73 -4.84 -7.59
Si -0.60 -1.76  9.22
Si  5.81 -4.17 -6.14
Si -8.73  1.64 -3.15
Si  7.94  2.63  4.36
Si  6.67  5.50  3.79
Si -8.88 -1.86 -2.59
Si -6.65 -4.87  4.60
Si -8.17 -2.78  3.88
Si  9.00  2.89 -0.78
Si  0.16 -9.47 -0.92
Si -2.16 -9.18 -1.38
Si -0.80  2.59  9.16
Si  4.25  3.56  7.79
Si -8.43  4.30  1.37
Si -4.17 -1.46  8.49
Si -3.53  8.81 -1.45
Si  4.39 -2.84 -8.08
Si -2.71  0.51 -9.23
Si  8.57 -2.07  3.95
Si -0.31 -5.33  8.06
Si -6.01  5.40 -5.33
Si  6.03 -4.14  6.38
Si -0.82  6.47  7.21
Si -7.08  3.00  5.95
Si  6.67  6.12 -3.56
Si -7.95  0.95 -5.54
Si -6.76 -4.57 -5.33
Si  8.88  3.27  2.46
Si  3.48  5.13 -7.59
Si  1.37  4.60 -8.56
Si -3.79  8.29 -3.65
Si -3.44  1.60  9.07
Si -4.79  7.43  4.35
Si  5.62 -8.06 -0.86
Si -7.00  6.82  1.41
Si -6.09 -3.99  6.69
Si  2.38  7.48 -6.06
Si -0.93 -7.09  6.90
Si -2.90  4.47  8.41
Si -4.79  8.73  0.45
Si -5.91  1.44  7.94
Si -4.90 -6.47  5.85
Si -1.88 -6.39 -7.47
Si  5.12  7.43  4.35
Si -6.39 -0.91  7.68
Si  1.39 -3.90  9.15
Si  7.84  2.93 -5.58
Si  5.01 -6.47  5.85
Si  4.57  5.98  6.69
Si  9.06  0.14 -4.38
Si  9.89  1.53  1.12
Si  3.58 -7.98 -5.05
Si  9.51  0.04  3.39
Si  2.45 -1.60  9.67
Si -9.93  1.53  1.12
Si  0.62 -5.37 -8.56
Si  5.12  8.73  0.45
Si  1.94  2.43  9.65
Si -7.88  6.36 -0.78
Si  3.77  1.43 -9.33
Si -0.70  8.20 -5.98
Si -5.52 -2.84 -8.08
Si  9.47 -3.22  2.15
Si -8.86  2.88  4.26
Si  7.33  2.19  6.83
Si -5.66  3.56  7.79
Si  3.68 -8.28  4.88
Si  1.27 -10.03  1.95
Si -2.73  4.88 -8.66
Si -1.92 -3.28 -9.60
Si  7.96 -4.80 -4.49
Si -3.35 -9.75  0.70
Si  5.73 -1.46  8.49
Si  6.47 -7.47 -3.10
Si -1.85 10.18  0.70
Si  1.32 -9.32  4.39
Si -7.85  5.54 -3.98
Si  4.27 -0.93 -9.48
Si  6.36 -8.04  1.99
Si -5.34  5.98  6.69
Si  3.50  8.78 -4.46
Si -8.60 -4.42 -3.98
Si  2.77  9.90  1.95
Si  2.10 -7.24 -7.27
Si  2.24 -1.00 -10.19
Si  4.16  9.36 -2.25
Si -7.06  2.73 -7.27
Si  0.21  7.04 -7.79
Si  8.46 -1.77 -5.98
Si  4.76 -6.66 -6.62
Si -1.14 -9.92  3.39
Si -8.28 -2.48 -6.06
Si  0.35 10.01  3.39
Si  9.62  3.17 -3.03
Si  1.66 10.46 -0.92
Si -3.48 -5.08 -8.66
Si  1.21 -9.02 -5.54
Si  7.70 -1.45  7.23
Si  3.50 -6.40  7.79
Si -3.65 -5.50  8.41
Si  6.56  5.80 -6.14
Si  6.87 -1.65 -8.04
Si -5.14 -6.66 -6.62
Si  3.61  8.48  5.47
Si  9.17 -0.16  5.55
Si -4.90  7.73 -5.58
Si -0.81 -1.17 -10.64
Si -10.62 -1.47 -0.71
Si  5.01  7.73 -5.58
Si  1.72  3.03 -10.22
Si -3.69  7.99  6.28
Si  8.13 -6.69  2.46
Si  7.00  2.23 -7.94
Si -6.77 -8.23 -2.00
Si -10.30  0.04  3.39
Si -0.66 10.75 -1.38
Si -2.79  9.96  3.34
Si  9.66 -2.62 -4.23
Si 10.82  0.49 -0.92
Si -3.33 -7.77  6.83
Si -9.18 -5.67  1.37
Si  1.88  7.80  7.34
Si -1.59 -9.82 -4.38
Si  8.25 -7.08 -0.78
Si  9.49 -5.03 -1.87
Si  0.80  0.79 -10.85
Si  8.84  6.39  0.34
Si -2.49 -0.09 10.63
Si  6.12  8.29 -3.65
Si -9.58  4.93 -1.87
Si  4.92  3.51 -9.11
Si -4.99  3.51 -9.11
Si  6.38  8.81 -1.45
Si  6.78  5.82  6.38
Si  0.54 -8.62  6.78
Si  8.07 -5.10  5.44
Si -0.10 10.11 -4.38
Si  4.65  9.40  3.38
Si -6.82  8.66 -0.26
Si -7.42  7.18  3.88
Si -10.34 -3.22  2.15
Si -8.62  1.34  6.78
Si -8.96  3.18 -5.67
Si -5.64 -0.93 -9.48
Si  8.71  5.17 -4.49
Si -7.74  5.24  5.95
Si -10.19  3.17 -3.03
Si -7.70 -7.54  2.66
Si -7.94 -6.66 -3.98
Si -1.71 -3.88 10.27
Si  0.09  1.23 11.05
Si  2.66 -10.57 -2.25
Si  7.20 -7.33  4.36
Si -6.78 -8.84  0.60
Si  2.13  6.06  9.15
Si -6.43  5.13 -7.59
Si -5.75  9.36 -2.25
Si -1.01  3.19 -10.71
Si -10.82  2.89 -0.78
Si  6.47  1.60  9.07
Si -9.35  5.20  3.52
Si -6.14  1.43 -9.33
Si  0.01  9.80  5.55
Si -1.46  8.52  7.23
Si  1.17 -3.30 -10.71
Si -5.26  9.40  3.38
Si  3.98  0.83 10.53
Si  7.72  8.02  1.89
Si -7.99  0.23 -7.99
Si -10.15 -2.62 -4.23
Si  4.89 -9.54 -3.70
Si -4.28 -9.97  3.34
Si  4.88 -4.05  9.43
Si -6.33 -7.98 -5.05
Si  9.72 -4.76  3.52
Si  1.60 -11.27 -0.26
Si 10.93 -1.86 -2.59
Si -5.02 -9.54 -3.70
Si -8.49 -4.72  5.95
Si  4.48 -1.53 10.38
Si -8.83 -7.24 -0.28
Si -11.32  0.78 -1.38
Si -5.02 -4.05  9.43
Si  7.09 -7.03 -5.58
Si  8.81  4.87  5.44
Si  3.68  4.63  9.80
Si -6.22 -8.28  4.88
Si  2.72 -4.73 -10.06
Si  2.80  7.12 -8.52
Si  9.40  0.34 -6.54
Si -1.52  1.08 -11.31
Si  3.16 -10.53  3.38
Si -7.18 -4.84 -7.59
Si 10.24  4.93 -1.87
Si  2.93 -5.33  9.80
Si -1.46 -11.43 -0.71
Si  8.34 -3.50  7.21
Si  8.98  6.77 -2.73
Si  0.73 11.50  1.12
Si  8.87 -6.79 -3.03
Si -3.52 10.39 -3.70
Si -3.65  2.21 -10.79
Si -10.76  0.14 -4.38
Si -10.33 -5.03 -1.87
Si -1.49 -10.12  5.55
Si -8.78 -2.16  7.34
Si 11.09  1.64 -3.15
Si -3.66 -7.74 -7.94
Si -10.94  3.27  2.46
Si  9.77 -2.92  5.70
Si -1.25 -9.62 -6.54
Si -10.10 -4.76  3.52
Si  7.20  0.51 -9.23
Si -6.41  8.78 -4.46
Si -1.18  6.69 -9.60
Si -8.13  8.11 -2.59
Si  6.56 -9.75  0.70
Si 11.19 -3.60 -0.78
Si  3.62 -11.20  0.45
Si -4.77  7.13 -8.08
Si -2.29  8.32 -8.04
Si -5.43 -1.53 10.38
Si  7.01  4.47  8.41
Si  2.81 10.61  4.39
Si  6.26 -5.50  8.41
Si -3.06 -11.11 -2.70
Si -1.55 -7.38  9.16
Si  3.46  5.23 -10.06
Si -6.30  8.48  5.47
Si -10.05 -2.92  5.70
Si  6.22  7.99  6.28
Si  4.17 -6.45 -9.11
Si -9.59  6.75  2.15
Si  6.42 -5.08 -8.66
Si  5.62 -9.97  3.34
Si -4.28  5.92  9.43
Si -7.85 -2.85 -8.52
Si  4.67 -3.45 -10.43
Si  5.14  7.13 -8.08
Si -6.41 -6.40  7.79
Si -0.96  6.09 10.27
Si -10.65 -0.16  5.55
Si -0.87 -8.13 -8.81
Si  4.62 11.09  0.60
Si -7.83 -6.96  5.95
Si 11.74  2.73 -0.28
Si  8.77  3.57 -7.47
Si  2.27 -3.45 11.34
Si  2.13 -0.36 11.88
Si 11.93 -0.07  1.95
Si  1.59  4.00 11.30
Si  3.25 -8.53  7.94
Si  7.75 -9.18 -1.38
Si -11.25 -2.07  3.95
Si 10.96  2.88  4.26
Si  0.28 -11.82 -2.59
Si -5.93  0.83 10.53
Si -4.77  2.91 10.75
Si 10.64 -5.67  1.37
Si  8.61  0.48  8.55
Si -5.24 -3.45 -10.43
Si  2.00 -11.15 -4.46
Si  1.93 11.61 -3.15
Si 10.47  5.20  3.52
Si  0.24 10.31 -6.54
Si -7.53  7.48 -6.06
Si -4.39 -0.86 -11.38
Si -2.80 11.87 -0.86
Si -2.05 11.89  1.99
