500
set: 1255.00  0.00  0.00
Si  0.53 -0.62 -0.38
Si  0.04  0.66  1.60
Si -1.45 -1.30 -1.41
Si  2.15  0.42 -1.68
Si -2.14  1.26  1.49
Si  1.16  2.65  0.60
Si  1.26 -2.67  0.70
Si -2.99  0.51 -0.57
Si -1.92 -3.04  0.02
Si  1.09  2.96 -1.85
Si  1.74  0.31  3.33
Si  1.23 -2.06  3.01
Si -1.02  2.50 -3.08
Si -2.99  2.70 -1.56
Si  4.15  1.06 -0.85
Si -1.68 -1.61 -3.73
Si -3.15 -0.13  3.18
Si  3.81  2.36  1.10
Si -2.57  3.51  1.80
Si -0.20 -4.75  0.00
Si  2.77 -0.15 -3.89
Si -0.19  4.54  1.64
Si -1.02  0.54 -4.73
Si  3.71 -3.35  0.73
Si -2.91 -2.56  3.40
Si -0.62 -3.02  4.25
Si -3.84 -3.33  1.35
Si  1.91 -2.71 -4.10
Si  4.04  1.36  3.14
Si -5.28 -0.50 -0.62
Si  4.07  3.38 -1.71
Si -0.28 -3.24 -4.55
Si  1.36  0.89  5.46
Si  2.80 -4.28 -2.55
Si  0.93  3.13 -4.86
Si  1.36  0.89 -5.65
Si  5.83 -0.50 -0.62
Si -3.80 -4.41 -0.89
Si -2.82  1.11  5.08
Si  5.46 -1.97  1.12
Si  0.67  5.55 -2.12
Si  0.67 -5.56 -2.12
Si -2.71  3.30  4.23
Si -4.00  4.51 -0.16
Si -3.50 -2.91 -3.95
Si -5.64 -1.97  1.12
Si -5.45 -0.46  3.00
Si  2.82 -2.95  4.72
Si -5.29 -2.16 -2.56
Si -0.20  6.35  0.00
Si -4.77  2.90 -3.11
Si  0.18 -5.29  3.62
Si  4.85  4.18  0.29
Si  4.74 -4.09 -1.41
Si  5.65 -0.46  3.00
Si -1.02  0.54  6.37
Si -3.09 -4.89 -3.12
Si -1.06  5.54 -3.64
Si  5.82 -2.16 -2.56
Si -1.06 -5.57 -3.64
Si -2.82  1.11 -6.03
Si  5.10 -0.79 -4.37
Si -0.19 -6.56  1.64
Si -4.78  1.24 -4.68
Si  0.18  5.82  3.62
Si  3.90 -5.31  1.97
Si -0.60  4.36  5.38
Si  4.79 -1.81  4.76
Si  0.93  3.13  6.25
Si  2.67 -5.23  3.93
Si -6.96  1.06 -0.85
Si -0.60  4.36 -5.73
Si  3.90  5.79  1.97
Si -4.44 -3.19  4.86
Si  4.66  2.75  4.93
Si -0.28 -3.24  6.56
Si  3.88  5.03 -3.72
Si -6.01 -0.79 -4.37
Si  2.89  4.20  5.51
Si -0.62 -3.02 -6.85
Si -6.26  4.18  0.29
Si  2.67  5.88  3.93
Si  2.89  4.20 -5.60
Si  2.82 -2.95 -6.39
Si -3.09  6.21 -3.12
Si  6.33  2.90 -3.11
Si -6.37 -4.09 -1.41
Si -4.77  4.25  4.32
Si -4.00 -6.60 -0.16
Si  2.77 -0.15  7.21
Si -1.68 -1.61  7.38
Si  1.91 -2.71  7.00
Si -3.80  6.70 -0.89
Si -7.30  2.36  1.10
Si  2.80  6.83 -2.55
Si -7.06  1.36  3.14
Si -5.20 -4.97  3.20
Si  6.33  1.24 -4.68
Si  1.74  0.31 -7.78
Si -7.04  3.38 -1.71
Si -2.71  3.30 -6.88
Si -4.78  1.24  6.43
Si  7.26 -3.33  1.35
Si  3.88 -6.08 -3.72
Si -6.32 -1.81  4.76
Si -4.77  5.02 -4.24
Si  4.79 -1.81 -6.34
Si  8.12  0.51 -0.57
Si -7.40 -3.35  0.73
Si  4.66  2.75 -6.17
Si -2.57 -7.60  1.80
Si -1.92  8.07  0.02
Si -4.44 -3.19 -6.25
Si  5.91 -4.97  3.20
Si  1.09 -8.14 -1.85
Si  7.11  4.51 -0.16
Si  1.23 -2.06 -8.10
Si  4.85 -6.92  0.29
Si -1.02  2.50  8.03
Si -3.50 -2.91  7.15
Si  5.10 -0.79  6.74
Si -3.15 -0.13 -7.93
Si  1.26  8.43  0.70
Si  1.16 -8.46  0.60
Si  7.95 -0.13  3.18
Si -6.45  2.75  4.93
Si  4.74  7.01 -1.41
Si  7.31 -4.41 -0.89
Si  3.71  7.75  0.73
Si -2.91 -2.56 -7.71
Si -0.60 -6.75  5.38
Si -5.20  6.14  3.20
Si  8.12  2.70 -1.56
Si  6.34  4.25  4.32
Si -3.84  7.78  1.35
Si -4.77 -6.09 -4.24
Si  6.67 -3.19  4.86
Si -0.60 -6.75 -5.73
Si  4.07 -7.73 -1.71
Si  4.04  1.36 -7.97
Si  7.61 -2.91 -3.95
Si -2.99 -8.41 -1.56
Si -6.01 -0.79  6.74
Si -0.28  7.87 -4.55
Si  5.91  6.14  3.20
Si  6.33  1.24  6.43
Si -8.96  0.42 -1.68
Si  6.33  5.02 -4.24
Si -6.32 -1.81 -6.34
Si -0.62  8.09  4.25
Si -7.21 -5.31  1.97
Si  0.18 -5.29 -7.49
Si  8.97  1.26  1.49
Si -1.02 -8.60 -3.08
Si -8.34 -0.15 -3.89
Si  8.19 -2.56  3.40
Si  2.67 -5.23 -7.18
Si -2.71 -7.81  4.23
Si  2.89 -6.91  5.51
Si -4.77  4.25 -6.79
Si -6.26 -6.92  0.29
Si -6.45  2.75 -6.17
Si  2.89 -6.91 -5.60
Si -1.06  5.54  7.46
Si -1.06 -5.57  7.46
Si  0.93 -7.97 -4.86
Si -4.77 -6.85  4.32
Si  8.54  3.51  1.80
Si -7.21  5.79  1.97
Si  0.18  5.82 -7.49
Si  0.04  0.66 -9.50
Si  1.91  8.40 -4.10
Si -7.23  5.03 -3.72
Si -6.37  7.01 -1.41
Si  3.81 -8.75  1.10
Si  1.23  9.04  3.01
Si -2.91  8.54  3.40
Si  2.67  5.88 -7.18
Si  9.18 -3.04  0.02
Si  2.15  0.42  9.43
Si  6.67 -3.19 -6.25
Si -8.31 -4.28 -2.55
Si  7.11 -6.60 -0.16
Si  3.88  5.03  7.39
Si -3.50  8.20 -3.95
Si -4.77  5.02  6.87
Si  6.33 -6.09 -4.24
Si -4.77  2.90  8.00
Si -5.45 -0.46 -8.10
Si  1.09  2.96  9.26
Si  8.29  1.11  5.08
Si  2.82  8.15  4.72
Si  9.66 -1.30 -1.41
Si -3.09 -4.89  7.99
Si -1.45 -1.30  9.69
Si  5.65 -0.46 -8.10
Si  8.02 -4.89 -3.12
Si -2.14  1.26 -9.62
Si -9.36  0.31  3.33
Si  7.31  6.70 -0.89
Si  8.39  3.30  4.23
Si  2.80 -4.28  8.56
Si -8.28 -2.95  4.72
Si -4.77 -8.21 -3.11
Si -1.45  9.81 -1.41
Si -7.23 -6.08 -3.72
Si  0.93 -7.97  6.25
Si -2.14 -9.85  1.49
Si  6.34  4.25 -6.79
Si -9.85 -2.67  0.70
Si -0.28  7.87  6.56
Si  9.43 -1.61 -3.73
Si -2.57  3.51 -9.30
Si -5.29 -2.16  8.55
Si  6.34 -6.85  4.32
Si -4.44  7.91  4.86
Si  8.29  1.11 -6.03
Si -9.95  2.65  0.60
Si  3.88 -6.08  7.39
Si -1.68  9.50 -3.73
Si -4.77 -6.09  6.87
Si -2.99  2.70  9.54
Si -9.20 -2.71 -4.10
Si -0.19  4.54 -9.47
Si  0.53 10.48 -0.38
Si -9.87 -2.06  3.01
Si  5.82 -2.16  8.55
Si  0.04 -10.45  1.60
Si -3.09  6.21  7.99
Si  0.67  5.55  8.98
Si  0.67 -5.56  8.98
Si -7.04 -7.73 -1.71
Si -10.58 -0.62 -0.38
Si  6.33  5.02  6.87
Si  6.33  2.90  8.00
Si -10.02  2.96 -1.85
Si  8.02  6.21 -3.12
Si -0.62  8.09 -6.85
Si -8.44 -5.23  3.93
Si -5.20 -4.97 -7.91
Si -5.29  8.94 -2.56
Si  5.46  9.13  1.12
Si  7.26  7.78  1.35
Si -7.06  1.36 -7.97
Si  2.82  8.15 -6.39
Si -7.40  7.75  0.73
Si -8.22  4.20  5.51
Si -2.71 -7.81 -6.88
Si  0.53 -0.62 10.73
Si -4.77 -6.85 -6.79
Si  4.66 -8.36  4.93
Si  4.07  3.38  9.39
Si -5.64  9.13  1.12
Si -8.22  4.20 -5.60
Si  1.26 -2.67 -10.40
Si  6.33 -8.21 -3.11
Si  7.61 -2.91  7.15
Si 10.09  2.50 -3.08
Si -8.28 -2.95 -6.39
Si  1.16  2.65 -10.51
Si  4.15 -10.05 -0.85
Si -2.99  0.51 10.53
Si  3.81  2.36 -10.01
Si  5.82  8.94 -2.56
Si -3.84 -3.33 -9.75
Si  4.04 -9.74  3.14
Si -8.44  5.88  3.93
Si -4.44  7.91 -6.25
Si -8.34 -0.15  7.21
Si -2.99 -10.60 -0.57
Si  2.15 -10.69 -1.68
Si  5.91 -4.97 -7.91
Si -8.31  6.83 -2.55
Si  1.91  8.40  7.00
Si  4.15  1.06 10.25
Si  6.33 -6.09  6.87
Si 10.09  0.54 -4.73
Si -11.07  0.66  1.60
Si -9.75  0.89  5.46
Si  7.95 -0.13 -7.93
Si  3.90 -5.31 -9.14
Si 11.14  0.66  1.60
Si -5.20  6.14 -7.91
Si  2.80  6.83  8.56
Si -9.75  0.89 -5.65
Si  8.39  3.30 -6.88
Si  4.66 -8.36 -6.17
Si  1.74 -10.79  3.33
Si -3.50  8.20  7.15
Si  6.67  7.91  4.86
Si -7.30 -8.75  1.10
Si  4.79  9.30  4.76
Si -7.23  5.03  7.39
Si  3.90  5.79 -9.14
Si  0.53 -0.62 -11.49
Si  3.71 -3.35 -10.38
Si -0.19 -6.56 -9.47
Si  8.19 -2.56 -7.71
Si  4.74 -4.09  9.70
Si  6.34 -6.85 -6.79
Si  5.46 -1.97 -9.99
Si -2.82 -9.99  5.08
Si  8.54 -7.60  1.80
Si  5.91  6.14 -7.91
Si -1.02 -10.57 -4.73
Si -5.64 -1.97 -9.99
Si -6.45 -8.36  4.93
Si -1.92 -3.04 -11.09
Si  1.36 -10.21  5.46
Si 11.64 -0.62 -0.38
Si -1.92 -3.04 11.12
Si -10.18  3.13 -4.86
Si 10.49 -3.02  4.25
Si  0.53 -11.73 -0.38
Si  1.36 -10.21 -5.65
Si -5.28 -0.50 10.49
Si -3.80 -4.41 10.22
Si  8.12 -8.41 -1.56
Si -1.02 -8.60  8.03
Si  2.15 11.53 -1.68
Si -3.15 10.97  3.18
Si  7.61  8.20 -3.95
Si -5.28 10.61 -0.62
Si -2.91  8.54 -7.71
Si -9.20 -2.71  7.00
Si  0.04 11.77  1.60
Si 10.91 -4.75  0.00
Si -4.78 -9.87 -4.68
Si 10.91  4.54  1.64
Si 10.09  0.54  6.37
Si  2.77 10.96 -3.89
Si -7.23 -6.08  7.39
Si -2.82 -9.99 -6.03
Si -2.99 11.61 -0.57
Si -10.44  5.55 -2.12
Si  5.83 -0.50 10.49
Si -10.44 -5.56 -2.12
Si  1.74 11.42  3.33
Si 10.04  5.54 -3.64
Si 10.04 -5.57 -3.64
Si  1.16  2.65 11.70
Si -8.22 -6.91  5.51
Si -2.99  0.51 -11.68
Si -0.20 -4.75 -11.10
Si  9.43 -1.61  7.38
Si -0.20 -4.75 11.11
Si  6.67  7.91 -6.25
Si -3.15 -11.24  3.18
Si -8.22 -6.91 -5.60
Si  5.83 10.61 -0.62
Si -1.68  9.50  7.38
Si  1.26 -2.67 11.81
Si -9.36  0.31 -7.78
Si 10.83 -3.24 -4.55
Si  1.23  9.04 -8.10
Si -6.32  9.30  4.76
Si -7.04  3.38  9.39
Si  8.39 -7.81  4.23
Si  9.18  8.07  0.02
Si  2.77 -11.25 -3.89
Si -6.45 -8.36 -6.17
Si  4.79  9.30 -6.34
Si -8.44 -5.23 -7.18
Si -6.96 -10.05 -0.85
Si -11.30 -4.75  0.00
Si -2.57 -7.60 -9.30
Si -11.30  4.54  1.64
Si -6.37 -4.09  9.70
Si  5.10 10.32 -4.37
Si  8.19  8.54  3.40
Si  8.02 -4.89  7.99
Si -5.45 10.65  3.00
Si -10.18  3.13  6.25
Si  1.09 -8.14  9.26
Si -1.02 -10.57  6.37
Si -4.77 -8.21  8.00
Si  5.65 10.65  3.00
Si -6.96  1.06 10.25
Si -7.06 -9.74  3.14
Si -4.00  4.51 10.95
Si -8.44  5.88 -7.18
Si -8.28  8.15  4.72
Si 12.26  2.65  0.60
Si -1.45 -12.40 -1.41
Si  4.85  4.18 -10.82
Si 10.51  4.36  5.38
Si  7.26 -3.33 -9.75
Si -1.02 11.64 -4.73
Si -7.30  2.36 -10.01
Si  6.33 -9.87 -4.68
Si 10.91  6.35  0.00
Si -2.14 12.37  1.49
Si -10.92 -5.29  3.62
Si 12.36 -2.67  0.70
Si -1.45 -1.30 -12.52
Si -8.31 -4.28  8.56
Si -11.38 -3.24 -4.55
Si 12.20  2.96 -1.85
Si -12.55 -1.30 -1.41
Si  4.15  1.06 -11.96
Si -4.78 -9.87  6.43
Si -6.01 10.32 -4.37
Si  0.04  0.66 12.71
Si 10.51  4.36 -5.73
Si -12.12  2.50 -3.08
Si -5.28 -11.61 -0.62
Si -4.00  4.51 -11.27
Si -7.21 -5.31 -9.14
Si -3.80  6.70 10.22
Si -0.20  6.35 -11.10
Si -0.20  6.35 11.11
Si  8.12  2.70  9.54
Si  4.07 -7.73  9.39
Si -11.72 -3.02  4.25
Si -2.14  1.26 12.59
Si 10.91 -6.56  1.64
Si  3.71 -3.35 11.84
Si 12.34 -2.06  3.01
Si -5.28 -0.50 -11.72
Si  4.74  7.01  9.70
Si  4.15 12.16 -0.85
Si 10.49 -3.02 -6.85
Si -10.92  5.82  3.62
Si -6.32  9.30 -6.34
Si  8.02  6.21  7.99
Si -9.87 -2.06 -8.10
Si -11.30  6.35  0.00
Si  2.15  0.42 -12.79
Si 11.29 -5.29  3.62
Si -9.85  8.43  0.70
Si  3.81  2.36 12.20
Si -7.21  5.79 -9.14
Si  5.83 -11.61 -0.62
Si -8.96  0.42  9.43
Si -12.13  0.54 -4.73
Si -10.02 -8.14 -1.85
Si -3.84  7.78 -9.75
Si 10.83 -3.24  6.56
Si -2.99 -8.41  9.54
Si  4.85  4.18 11.39
Si -9.95 -8.46  0.60
Si  6.33 -8.21  8.00
Si  5.83 -0.50 -11.72
Si  8.54  3.51 -9.30
Si -9.20  8.40 -4.10
Si -5.45 -11.56  3.00
Si 10.09  2.50  8.03
Si -11.30 -6.56  1.64
Si -7.40 -3.35 -10.38
Si -6.26  4.18 -10.82
Si 11.77  5.55 -2.12
Si 11.77 -5.56 -2.12
Si 11.29  5.82  3.62
Si  8.97  1.26 -9.62
Si  5.65 -11.56  3.00
Si  4.04 -9.74 -7.97
Si  1.36 12.00  5.46
Si -8.28  8.15 -6.39
Si  7.61  8.20  7.15
Si 12.85  0.31  3.33
Si -2.99  2.70 -12.67
Si  8.12  0.51 10.53
Si -1.02 11.64  6.37
Si  7.31 -4.41 10.22
Si -3.80 -4.41 -11.99
Si  1.36 12.00 -5.65
Si  1.09  2.96 -12.95
Si  5.10 10.32  6.74
Si 12.03  3.13 -4.86
Si -1.68 -12.71 -3.73
Si  8.12 -10.60 -0.57
Si 13.26  0.42 -1.68
Si  6.33 -9.87  6.43
Si  8.39 -7.81 -6.88
Si -13.03 -3.04  0.02
Si -13.24  1.26  1.49
Si -4.00 -6.60 10.95
Si  8.97 -9.85  1.49
Si  2.77 10.96  7.21
Si -12.79 -1.61 -3.73
Si  1.74 -10.79 -7.78
Si  1.26  8.43 -10.40
Si -5.29  8.94  8.55
Si -3.84 -3.33 12.46
Si  3.71  7.75 -10.38
Si  4.04 12.47  3.14
Si -2.82 12.22  5.08
Si -11.38 -3.24  6.56
Si -0.19  4.54 12.74
Si  5.46 -1.97 12.22
Si  1.16 -8.46 -10.51
Si -6.37  7.01  9.70
Si  1.23 -13.17  3.01
Si 10.51 -6.75  5.38
Si -11.71  4.36  5.38
Si -5.64 -1.97 12.22
Si 10.09 -8.60 -3.08
Si -2.57  3.51 12.91
Si 12.46  0.89  5.46
Si  2.77 -11.25  7.21
