500
set: 463.00  0.00  0.00
Si  0.04  0.14 -0.01
Si -0.13 -1.95  0.74
Si -1.89  1.02  0.61
Si  0.13 -0.00 -2.23
Si  1.75  1.22  0.92
Si -1.64 -1.19 -2.76
Si  3.44  0.10 -0.05
Si  1.72 -3.04  0.29
Si -1.79  0.99  2.86
Si -0.21  2.09 -2.90
Si -1.81 -3.11 -0.21
Si  1.80  3.15 -0.21
Si -0.21 -2.08  3.00
Si  1.82 -1.10 -3.04
Si -1.89  3.22  0.29
Si -3.79  0.10 -0.05
Si  1.97  0.90  3.14
Si  1.75 -3.07 -1.96
Si -3.55 -2.03  0.64
Si  1.86 -1.35  3.45
Si  0.07  1.99  3.65
Si  1.86  2.83 -2.45
Si -1.87  3.19 -1.96
Si -3.55 -0.10 -2.25
Si  3.68 -2.03  0.64
Si  0.07  4.23  0.64
Si  3.68 -0.10 -2.25
Si -1.87 -0.98  3.94
Si -1.75 -3.43 -2.45
Si -3.35  1.93 -3.04
Si  0.26  4.02  2.86
Si -3.35 -2.24  2.86
Si  3.87  1.93 -3.04
Si  0.26 -4.33 -3.04
Si  3.87 -2.24  2.86
Si -1.86 -0.86 -4.98
Si -1.86 -5.04  0.92
Si -3.49  2.08  3.67
Si  5.34  1.02  0.61
Si  1.73 -5.24  0.61
Si  0.13 -4.18  3.67
Si  3.49  4.31  0.74
Si -0.13  2.23 -5.16
Si  3.74  2.08  3.67
Si  1.73 -1.06 -5.29
Si -5.47  1.22  0.92
Si -3.74  4.31  0.74
Si  1.72  1.13 -5.61
Si  1.80 -1.03  5.69
Si  1.97  5.07 -2.76
Si  3.40 -4.17 -2.90
Si -0.18 -6.16 -0.05
Si  3.40  4.18  3.00
Si -5.26  0.90  3.14
Si  5.44  0.99  2.86
Si  5.34  3.22  0.29
Si -1.79  5.16 -3.04
Si -0.18  2.19  5.85
Si  5.42 -3.11 -0.21
Si -1.75  4.91  3.45
Si  1.82 -5.27  2.86
Si -5.42  3.15 -0.21
Si -0.18 -1.99 -5.95
Si -5.50 -3.04  0.29
Si -5.40 -1.10 -3.04
Si  5.58 -1.19 -2.76
Si -3.83 -4.17 -2.90
Si -0.18  6.36 -0.05
Si -3.83  4.18  3.00
Si -1.64 -5.36  3.14
Si -1.81  1.06 -6.11
Si -5.37 -1.35  3.45
Si  0.07  0.06  6.54
Si  5.36  3.19 -1.96
Si -5.37  2.83 -2.45
Si -1.89 -0.96  6.19
Si  0.07  6.16 -2.25
Si -5.48 -3.07 -1.96
Si -3.55 -4.27  3.65
Si  0.07 -4.12 -5.26
Si -3.55  2.14 -5.26
Si  3.68 -4.27  3.65
Si  5.36 -0.98  3.94
Si  0.07 -6.36 -2.25
Si  3.68  2.14 -5.26
Si  1.75  5.28  3.94
Si  5.47 -3.43 -2.45
Si -3.57 -6.12 -0.01
Si  3.65 -6.12 -0.01
Si  0.04 -4.03  5.89
Si -3.57 -1.95 -5.91
Si -7.19  0.14 -0.01
Si  3.65 -1.95 -5.91
Si -3.57  2.23  5.89
Si  7.27  0.14 -0.01
Si  3.65  2.23  5.89
Si  0.04  4.31 -5.91
Si -3.57  6.40 -0.01
Si  3.65  6.40 -0.01
Si  5.37 -0.86 -4.98
Si  7.10 -1.95  0.74
Si  5.37 -5.04  0.92
Si  3.49 -4.03 -5.16
Si  1.73  3.11  6.51
Si -7.10 -0.00 -2.23
Si -1.89 -3.15  6.51
Si -3.49  6.25 -2.23
Si  3.49  0.14  6.64
Si -3.49 -6.26 -2.23
Si  1.73  7.28  0.61
Si -3.74 -4.03 -5.16
Si  1.75  5.39 -4.98
Si -5.50 -5.24  0.61
Si  3.74  6.25 -2.23
Si -3.74  0.14  6.64
Si  3.74 -6.26 -2.23
Si  1.75 -2.95  6.82
Si -7.35 -1.95  0.74
Si -1.89  5.20 -5.29
Si  7.36 -0.00 -2.23
Si -5.50 -1.06 -5.29
Si -1.86  7.48  0.92
Si -1.86  3.31  6.82
Si -5.26  5.07 -2.76
Si -1.89 -5.13 -5.61
Si  7.01  2.09 -2.90
Si  7.01 -2.08  3.00
Si  3.44 -4.07  5.85
Si -5.42 -1.03  5.69
Si -5.50  1.13 -5.61
Si -1.81  5.23  5.69
Si -1.64  7.16  3.14
Si  1.82  7.25  2.86
Si -3.79 -4.07  5.85
Si -5.40 -5.27  2.86
Si  5.44  5.16 -3.04
Si  3.44  4.27 -5.95
Si  5.47  4.91  3.45
Si  1.75  1.10 -7.86
Si -1.79 -7.36 -3.04
Si  1.97 -7.45 -2.76
Si  1.80 -5.20 -6.11
Si  5.34 -0.96  6.19
Si  5.42  1.06 -6.11
Si -3.79  4.27 -5.95
Si -7.44  2.09 -2.90
Si -7.16  1.99  3.65
Si -7.44 -2.08  3.00
Si  0.07 -8.29  0.64
Si  1.73  5.30  6.19
Si -7.16  4.23  0.64
Si  5.58 -5.36  3.14
Si  7.29  1.99  3.65
Si  1.75 -7.24  3.94
Si  0.07 -2.19 -8.15
Si  7.29  4.23  0.64
Si -1.75 -7.61  3.45
Si -6.97  4.02  2.86
Si -5.48  5.28  3.94
Si -1.75  0.74 -8.35
Si  0.26  8.19 -3.04
Si -6.97 -4.33 -3.04
Si  0.26 -0.16  8.76
Si  1.75 -7.12 -4.98
Si  3.49 -8.21  0.74
Si  0.26 -0.16 -8.95
Si  7.49  4.02  2.86
Si  0.26 -8.50  2.86
Si  5.34 -3.15  6.51
Si -7.10 -4.18  3.67
Si -0.13 -6.12  6.64
Si -3.74 -8.21  0.74
Si  7.10  2.23 -5.16
Si -5.50  3.11  6.51
Si -3.49 -2.09 -8.13
Si  8.98  1.22  0.92
Si  0.13  8.34  3.67
Si  5.34  5.20 -5.29
Si  0.13  4.17 -8.13
Si -5.50  7.28  0.61
Si -5.47  5.39 -4.98
Si  7.49 -4.33 -3.04
Si -9.11  1.02  0.61
Si  3.74 -2.09 -8.13
Si  7.36 -4.18  3.67
Si -0.13  6.40  6.64
Si -1.89 -7.32 -5.29
Si -5.47 -2.95  6.82
Si  5.37  7.48  0.92
Si -7.35  2.23 -5.16
Si  5.37  3.31  6.82
Si  5.34 -5.13 -5.61
Si -1.64  2.98 -8.66
Si  7.05 -6.16 -0.05
Si -8.87 -1.19 -2.76
Si  7.05  2.19  5.85
Si -1.81 -7.29  5.69
Si  3.40  0.01 -8.80
Si  7.05 -1.99 -5.95
Si  5.42  5.23  5.69
Si  8.95 -3.04  0.29
Si  1.82  3.07  8.76
Si  1.97 -3.27 -8.66
Si -1.89  7.39 -5.61
Si  3.40  8.35 -2.90
Si -5.40  7.25  2.86
Si  3.40 -8.34  3.00
Si -1.79 -3.19  8.76
Si -1.89 -9.30  0.29
Si  7.05  6.36 -0.05
Si -9.02  0.99  2.86
Si -5.26 -7.45 -2.76
Si  3.40  0.01  8.90
Si -1.75  0.74  9.35
Si  1.80 -9.37 -0.21
Si -9.04 -3.11 -0.21
Si  9.03  3.15 -0.21
Si -1.75  9.09 -2.45
Si -1.81  9.40 -0.21
Si -1.87 -5.16 -7.86
Si -3.83  0.01 -8.80
Si  5.58  7.16  3.14
Si  9.05 -1.10 -3.04
Si  1.82  3.07 -8.94
Si -7.41 -6.16 -0.05
Si -3.83  8.35 -2.90
Si  1.73  9.47  0.29
Si  5.44 -7.36 -3.04
Si -5.48  1.10 -7.86
Si -3.83 -8.34  3.00
Si -1.79 -3.19 -8.94
Si  1.72 -7.21  6.19
Si -1.64  2.98  9.04
Si -9.12  3.22  0.29
Si -5.42 -5.20 -6.11
Si  8.97 -3.07 -1.96
Si -3.55 -6.20  6.54
Si -7.40  2.19  5.85
Si -3.83  0.01  8.90
Si -3.55  8.25  3.65
Si -7.16  0.06  6.54
Si  1.80  7.32 -6.11
Si -7.41 -1.99 -5.95
Si -7.16  6.16 -2.25
Si -1.87 -9.33 -1.96
Si  3.68 -6.20  6.54
Si  3.68  8.25  3.65
Si -3.55  6.31  6.54
Si  9.20  0.90  3.14
Si -7.40  6.36 -0.05
Si -3.55  4.07 -8.15
Si -7.16 -4.12 -5.26
Si  0.07 -2.19  9.55
Si  7.29  0.06  6.54
Si  3.68  6.31  6.54
Si  1.75  9.45 -1.96
Si  7.29  6.16 -2.25
Si  9.09 -1.35  3.45
Si  1.97 -3.27  9.04
Si  9.09  2.83 -2.45
Si  3.68  4.07 -8.15
Si -9.09  3.19 -1.96
Si -5.50  5.30  6.19
Si -7.16 -6.36 -2.25
Si  7.29 -4.12 -5.26
Si -5.48 -7.24  3.94
Si  0.07  8.40 -5.26
Si -8.98 -3.43 -2.45
Si  7.29 -6.36 -2.25
Si -9.09 -0.98  3.94
Si  5.47 -7.61  3.45
Si  5.47  0.74 -8.35
Si  1.75  1.10  9.84
Si  0.04 -8.21 -5.91
Si -7.19 -4.03  5.89
Si  1.86 -9.69 -2.45
Si  1.86 -5.52 -8.35
Si  7.27 -4.03  5.89
Si -7.19  4.31 -5.91
Si -5.47 -7.12 -4.98
Si  7.27  4.31 -5.91
Si  0.04  8.48  5.89
Si  8.96 -5.24  0.61
Si -3.49 -2.09  9.57
Si -9.09 -0.86 -4.98
Si -9.09 -5.04  0.92
Si  0.13  4.17  9.57
Si  8.96 -1.06 -5.29
Si  3.74 -2.09  9.57
Si  5.34 -7.32 -5.29
Si  3.49  8.48 -5.16
Si -0.13 10.57  0.74
Si -3.74  8.48 -5.16
Si  8.95  1.13 -5.61
Si -5.26 -3.27 -8.66
Si 10.66  0.10 -0.05
Si  5.34  7.39 -5.61
Si  5.42 -7.29  5.69
Si  9.03 -1.03  5.69
Si  5.58  2.98 -8.66
Si  5.34 -9.30  0.29
Si  3.44 -8.24 -5.95
Si -5.40  3.07  8.76
Si  5.44 -3.19  8.76
Si -0.21 -6.25 -8.80
Si -8.98  4.91  3.45
Si -0.21  6.26 -8.80
Si  5.36 -5.16 -7.86
Si -9.02  5.16 -3.04
Si -0.21 -10.43 -2.90
Si -5.42 -9.37 -0.21
Si -8.87 -5.36  3.14
Si  3.44  8.45  5.85
Si -3.79 -8.24 -5.95
Si  5.42  9.40 -0.21
Si  5.47  0.74  9.35
Si  9.20  5.07 -2.76
Si  9.05 -5.27  2.86
Si -0.21 10.44  3.00
Si -0.21 -6.25  8.90
Si -0.21  6.26  8.90
Si  5.47  9.09 -2.45
Si -5.40  3.07 -8.94
Si -1.87  7.36 -7.86
Si  5.36 -9.33 -1.96
Si  5.44 -3.19 -8.94
Si -3.79  8.45  5.85
Si -9.04  1.06 -6.11
Si -5.26 -3.27  9.04
Si -5.50  9.47  0.29
Si -5.42  7.32 -6.11
Si -3.55  4.07  9.55
Si -7.16 -8.29  0.64
Si -10.77 -2.03  0.64
Si -5.50 -7.21  6.19
Si -10.78 -0.10 -2.25
Si  3.68  4.07  9.55
Si  1.86 -5.52  9.35
Si -11.02  0.10 -0.05
Si  5.58  2.98  9.04
Si  1.86  7.00 -8.35
Si  7.29 -8.29  0.64
Si -9.12 -0.96  6.19
Si -7.16 -2.19 -8.15
Si -3.55 10.49  0.64
Si -5.48  9.45 -1.96
Si 10.91 -2.03  0.64
Si  3.68 10.49  0.64
Si  8.98  5.28  3.94
Si 10.91 -0.10 -2.25
Si  0.07 -10.53  3.65
Si  7.29 -2.19 -8.15
Si  0.07  0.05 -11.16
Si -6.97  8.19 -3.04
Si -10.58  1.93 -3.04
Si -3.35 10.28  2.86
Si -10.58 -2.24  2.86
Si -3.35  6.10  8.76
Si -6.97 -0.16  8.76
Si -1.87 -5.15  9.84
Si -5.48  1.10  9.84
Si -3.35  6.10 -8.95
Si -6.97 -0.16 -8.95
Si  3.87 10.28  2.86
Si -5.37 -9.69 -2.45
Si  3.87  6.10  8.76
Si -6.97 -8.50  2.86
Si -5.37 -5.52 -8.35
Si -3.35 -6.42  8.76
Si  1.75 -2.95 -10.88
Si  1.75 -11.30  0.92
Si  7.10 -6.12  6.64
Si  3.87  6.10 -8.95
Si  8.96  3.11  6.51
Si  7.49  8.19 -3.04
Si -3.35 -6.42 -8.95
Si -0.13 -10.29 -5.16
Si -10.71  2.08  3.67
Si -3.35 -10.59 -3.04
Si  7.49 -0.16  8.76
Si -1.86  3.31 -10.88
Si  3.87 -6.42  8.76
Si -7.10  8.34  3.67
Si  8.96  7.28  0.61
Si -1.89  9.37  6.51
Si -7.10  4.17 -8.13
Si  1.73 -9.41  6.51
Si 10.71  4.31  0.74
Si  3.49  0.14 -11.06
Si -3.49 -10.44  3.67
Si  8.98  5.39 -4.98
Si -1.86 -9.21  6.82
Si -9.11 -3.15  6.51
Si  7.10  6.40  6.64
Si -7.35 -6.12  6.64
Si  0.13 -8.35 -8.13
Si  8.98 -2.95  6.82
Si -1.89 -11.49  0.61
Si  7.49 -0.16 -8.95
Si  3.87 -6.42 -8.95
Si 11.10  1.93 -3.04
Si -3.74  0.14 -11.06
Si  3.87 -10.59 -3.04
Si  3.74 -10.44  3.67
Si 11.10 -2.24  2.86
Si  7.49 -8.50  2.86
Si -1.89 -0.96 -11.51
Si  7.36  8.34  3.67
Si  7.36  4.17 -8.13
Si  1.73  3.11 -11.19
Si -9.11  5.20 -5.29
Si 10.97  2.08  3.67
Si -1.89 -3.15 -11.19
Si -1.64 11.33 -2.76
Si 10.63 -4.17 -2.90
Si -1.81  1.06 11.59
Si -7.35  6.40  6.64
Si -9.09  7.48  0.92
Si 10.63  4.18  3.00
Si -10.97  4.31  0.74
Si -8.87  7.16  3.14
Si  1.86  7.00  9.35
Si -9.09  3.31  6.82
Si  1.86 11.17  3.45
Si -9.12 -5.13 -5.61
Si -0.18 -10.33  5.85
Si  1.75  9.57  6.82
Si -9.04  5.23  5.69
Si -0.18 -1.98 11.75
Si  9.05  7.25  2.86
Si  1.82 11.42 -3.04
Si  8.97  1.10 -7.86
Si -1.79 -11.53  2.86
Si -9.02 -7.36 -3.04
Si  5.36  7.36 -7.86
Si -0.18  2.19 -11.85
Si  9.03 -5.20 -6.11
Si -0.18 10.53 -5.95
Si  8.95  5.30  6.19
Si -5.37 -5.52  9.35
Si -7.16 -2.19  9.55
Si -5.37  7.00 -8.35
Si  9.20 -7.45 -2.76
Si -10.78 -4.27  3.65
Si -3.55 -10.38 -5.26
Si -11.05 -4.17 -2.90
Si -10.77  2.14 -5.26
Si  8.97 -7.24  3.94
Si  1.80 -1.03 -12.01
Si -11.05  4.18  3.00
Si  1.97 -11.62  3.14
Si  3.68 -10.38 -5.26
Si  7.29 -2.19  9.55
Si -7.16  8.40 -5.26
Si -3.55 -8.44 -8.15
Si -8.98 -7.61  3.45
Si  1.73  1.13 12.09
Si 10.91 -4.27  3.65
Si -8.98  0.74 -8.35
Si 10.91  2.14 -5.26
Si  3.68 -8.44 -8.15
Si  7.29  8.40 -5.26
Si -1.86 11.54  3.94
Si  5.36 -5.15  9.84
Si  0.04 -12.38 -0.01
Si -3.57 -10.29  5.89
Si -7.19 -8.21 -5.91
Si  3.65 -10.29  5.89
Si -10.80 -6.12 -0.01
Si -1.86  7.36  9.84
Si  7.27 -8.21 -5.91
Si -10.80 -1.95 -5.91
Si -3.57 -1.95 11.79
Si  0.04 -4.03 -11.81
Si 10.88 -6.12 -0.01
Si  8.98 -7.12 -4.98
Si  3.65 -1.95 11.79
Si -10.80  2.23  5.89
Si 10.88 -1.95 -5.91
Si -5.47 -2.95 -10.88
Si -3.57  2.23 -11.81
Si -10.80  6.40 -0.01
Si 10.71 -4.03 -5.16
Si  0.04  4.31 11.79
Si  3.65  2.23 -11.81
Si 10.88  2.23  5.89
Si  5.37  3.31 -10.88
Si  1.73 -1.06 12.42
Si -7.19  8.48  5.89
Si -5.47 -11.30  0.92
Si  5.34  9.37  6.51
Si -10.71  6.25 -2.23
Si -10.71 -6.26 -2.23
Si 10.71  0.14  6.64
Si 10.88  6.40 -0.01
Si -7.10  4.17  9.57
Si 12.57  1.02  0.61
Si -3.57 10.57 -5.91
Si  7.27  8.48  5.89
Si -0.13 -6.12 -11.06
