500
set: 675.00  0.00  0.00
Si -0.44 -0.82  0.15
Si  1.66  0.32  0.06
Si -2.29  0.87  0.54
Si -0.04  0.29 -3.05
Si  1.44  2.74 -0.39
Si  0.08 -2.64 -2.07
Si -0.62 -3.22  1.17
Si -1.55  2.78  1.91
Si -2.77 -0.23  2.55
Si  0.23  2.61 -2.81
Si -1.28 -1.70 -3.28
Si -2.25  3.09 -1.03
Si  2.29  2.52  2.15
Si  2.20 -0.03 -3.64
Si  4.07  0.82  0.92
Si -2.37 -3.40 -1.22
Si  0.41  2.48  3.58
Si  3.32 -1.86 -2.23
Si -4.36 -0.67 -0.56
Si -3.58 -2.71  0.82
Si -0.20  4.65  0.55
Si  1.19 -2.02 -4.13
Si  4.29  0.17 -2.14
Si -1.80 -0.46  4.53
Si  0.87 -4.67 -1.25
Si -1.59 -3.24  3.52
Si -3.79  1.55 -3.14
Si -3.94 -1.46 -3.07
Si  4.09 -1.56  2.83
Si  3.66 -3.78  0.15
Si  4.97 -1.42  1.04
Si  0.86 -4.64  2.36
Si  2.16  4.52 -1.81
Si -3.58  1.28  3.85
Si  3.91  1.34  3.59
Si -0.51  1.45  5.37
Si  3.76  4.21  0.01
Si -4.69  2.82 -1.47
Si -0.51  1.45 -5.55
Si -1.90  3.38  4.35
Si  1.96  1.43  5.30
Si -4.30 -4.18 -0.62
Si  3.80 -3.77  2.89
Si  4.30  3.29 -2.83
Si  1.96  1.43 -5.62
Si -0.56 -3.03 -5.36
Si -5.94 -1.42  1.04
Si -2.94  4.66  2.92
Si -0.20 -6.26  0.55
Si -2.83  5.22 -2.12
Si -0.56 -3.03  5.55
Si -0.11  5.31 -3.63
Si  0.87  6.25 -1.25
Si  4.17  0.43 -4.93
Si  3.14  5.21  2.25
Si -4.86 -3.40  2.65
Si -5.46  3.00  2.13
Si  5.46  3.00  2.13
Si  6.56 -0.67 -0.56
Si  3.24 -1.92 -5.44
Si  3.24 -1.92  5.47
Si -1.80 -0.46 -6.38
Si  5.33 -3.25 -2.34
Si  1.45 -4.38  4.82
Si -0.11 -5.61 -3.63
Si -2.83 -5.69 -2.12
Si -0.14  4.63  4.86
Si  0.86  6.27  2.36
Si  3.08  3.31 -5.03
Si -5.58 -3.25 -2.34
Si  3.14 -5.70  2.25
Si -4.25  3.92 -3.75
Si  2.18 -5.39 -3.77
Si -6.84  0.82  0.92
Si -6.62  0.17 -2.14
Si  2.16 -6.39 -1.81
Si  6.22  2.82 -1.47
Si -4.53 -0.40 -5.34
Si  2.18  5.52 -3.77
Si -3.30 -4.30  4.57
Si  1.19 -2.02  6.79
Si -4.53 -0.40  5.58
Si  4.53  4.05  3.97
Si  4.17  0.43  5.98
Si  3.08  3.31  5.89
Si  6.05 -3.40  2.65
Si  5.34 -5.15  0.95
Si -2.94 -6.25  2.92
Si -6.82 -1.56  2.83
Si  2.20 -0.03  7.28
Si -0.14  4.63 -6.05
Si -1.90  3.38 -6.57
Si  1.45 -4.38 -6.09
Si -5.58 -5.15  0.95
Si  3.76 -6.71  0.01
Si  0.41  2.48 -7.34
Si  6.98 -1.46 -3.07
Si -4.87 -4.10 -4.52
Si -0.62  7.69  1.17
Si  4.93 -3.77  4.74
Si  6.62 -4.18 -0.62
Si  7.34 -2.71  0.82
Si -0.04  0.29  7.86
Si -6.62  3.29 -2.83
Si  5.34  5.77  0.95
Si -1.28 -1.70  7.63
Si  7.12  1.55 -3.14
Si -0.14 -6.28  4.86
Si -2.37  7.51 -1.22
Si -7.00  1.34  3.59
Si -4.30  6.73 -0.62
Si  3.66  7.13  0.15
Si -3.58  1.28 -7.06
Si -5.58  5.77  0.95
Si -7.59 -1.86 -2.23
Si -7.26 -3.78  0.15
Si -2.25 -7.82 -1.03
Si -1.59 -3.24 -7.39
Si  1.45  6.53  4.82
Si -7.15  4.21  0.01
Si  1.44 -8.17 -0.39
Si  6.38 -0.40 -5.34
Si -3.30 -4.30 -6.35
Si -6.75  0.43 -4.93
Si  7.33  1.28  3.85
Si  3.91  1.34 -7.32
Si  6.38 -0.40  5.58
Si -1.55 -8.13  1.91
Si -5.99 -3.77  4.74
Si  0.23  2.61  8.11
Si  0.08  8.28 -2.07
Si -6.38  4.05  3.97
Si  8.15 -0.23  2.55
Si -7.12 -3.77  2.89
Si  6.66  3.92 -3.75
Si  6.05 -4.10 -4.52
Si  3.80  7.15  2.89
Si -1.59  7.68  3.52
Si  8.62  0.87  0.54
Si -3.30  6.61  4.57
Si -0.14 -6.28 -6.05
Si  4.93 -3.77 -6.17
Si  0.23 -8.30 -2.81
Si -3.79  1.55  7.78
Si -2.77 -0.23 -8.36
Si -3.94 -1.46  7.84
Si -1.90 -7.54  4.35
Si  2.29 -8.39  2.15
Si -3.58  8.20  0.82
Si -4.25 -7.00 -3.75
Si -0.11  5.31  7.29
Si -4.87 -4.10  6.39
Si -6.75  0.43  5.98
Si  1.45  6.53 -6.09
Si  4.53 -6.87  3.97
Si  0.41 -8.44  3.58
Si  4.30 -7.62 -2.83
Si  4.09 -1.56 -8.08
Si -0.11 -5.61  7.29
Si -4.25  3.92  7.16
Si  2.18 -5.39  7.15
Si  0.08 -2.64  8.84
Si  4.53  4.05 -6.95
Si -8.63  2.52  2.15
Si  8.66  3.09 -1.03
Si -9.25  0.32  0.06
Si  8.54 -3.40 -1.22
Si  2.18  5.52  7.15
Si -4.86  7.51  2.65
Si -5.99 -3.77 -6.17
Si  2.29  2.52 -8.77
Si -8.71 -0.03 -3.64
Si  6.62  6.73 -0.62
Si -4.69 -8.09 -1.47
Si  3.32 -1.86  8.68
Si -4.87  6.82 -4.52
Si -0.56  7.88 -5.36
Si -1.55  2.78 -9.00
Si -7.68 -1.92 -5.44
Si -7.68 -1.92  5.47
Si  3.08 -7.61 -5.03
Si -7.78  5.21  2.25
Si  5.33  7.67 -2.34
Si  3.80 -3.77 -8.02
Si -0.56  7.88  5.55
Si  7.98  4.66  2.92
Si  6.05 -4.10  6.39
Si -2.94  4.66 -8.00
Si  4.30  3.29  8.08
Si -3.30  6.61 -6.35
Si  4.29  0.17  8.77
Si -5.58  7.67 -2.34
Si  0.86 -4.64 -8.55
Si -7.15 -6.71  0.01
Si -5.46 -7.91  2.13
Si  5.46 -7.91  2.13
Si  8.08  5.22 -2.12
Si  7.61 -4.30  4.57
Si -1.28  9.21 -3.28
Si -9.47  2.74 -0.39
Si  1.19  8.89 -4.13
Si -7.84  3.31 -5.03
Si  4.93  7.14  4.74
Si  3.32  9.05 -2.23
Si -7.78 -5.70  2.25
Si  9.36  2.78  1.91
Si  6.05  7.51  2.65
Si -8.75  4.52 -1.81
Si  3.08 -7.61  5.89
Si -0.44 10.09  0.15
Si  8.08 -5.69 -2.12
Si  6.05  6.82 -4.52
Si -1.90 -7.54 -6.57
Si -7.26  7.13  0.15
Si -4.86 -3.40 -8.27
Si -6.38 -6.87  3.97
Si  9.11 -0.46  4.53
Si -7.00  1.34 -7.32
Si  7.33  1.28 -7.06
Si -6.38  4.05 -6.95
Si -0.62 -3.22 -9.74
Si  6.22 -8.09 -1.47
Si  9.63 -1.70 -3.28
Si -2.29 -10.04  0.54
Si -7.84  3.31  5.89
Si  6.66 -7.00 -3.75
Si  2.16  4.52  9.11
Si -5.99  7.14  4.74
Si  9.32 -3.24  3.52
Si -6.62 -7.62 -2.83
Si -7.12  7.15  2.89
Si -8.95  1.43  5.30
Si 10.48 -0.82  0.15
Si -4.87  6.82  6.39
Si  6.66  3.92  7.16
Si  7.98 -6.25  2.92
Si -2.37 -3.40  9.70
Si  9.02  3.38  4.35
Si -2.94 -6.25 -8.00
Si -3.79 -9.36 -3.14
Si  3.14  5.21 -8.67
Si  4.09  9.35  2.83
Si -2.25  3.09  9.88
Si  6.98 -1.46  7.84
Si  5.33 -3.25  8.58
Si -2.83  5.22  8.79
Si  0.86  6.27 -8.55
Si  4.93  7.14 -6.17
Si  7.12  1.55  7.78
Si -2.29  0.87 -10.38
Si -8.95  1.43 -5.62
Si -6.82 -1.56 -8.08
Si -3.94  9.46 -3.07
Si  1.66 -10.59  0.06
Si -5.58 -3.25  8.58
Si -9.72 -2.02 -4.13
Si  0.87 -4.67  9.66
Si  4.53 -6.87 -6.95
Si -5.46  3.00 -8.78
Si  4.97  9.49  1.04
Si  5.46  3.00 -8.78
Si -1.59  7.68 -7.39
Si  6.05 -3.40 -8.27
Si -0.44 -0.82 -10.77
Si  7.61 -4.30 -6.35
Si  4.07  0.82 -9.99
Si  3.14 -5.70 -8.67
Si 10.29 -3.22  1.17
Si -2.83 -5.69  8.79
Si -4.25 -7.00  7.16
Si -0.51 -9.46  5.37
Si -4.69  2.82  9.45
Si  4.07 -10.09  0.92
Si -8.73 -5.39 -3.77
Si -6.62  3.29  8.08
Si  3.91 -9.58  3.59
Si  1.44  2.74 10.52
Si -0.51 -9.46 -5.55
Si -3.58 -9.64  3.85
Si -8.75 -6.39 -1.81
Si  1.66  0.32 -10.86
Si -6.62  0.17  8.77
Si -8.73  5.52 -3.77
Si  3.24  9.00 -5.44
Si  3.24  9.00  5.47
Si  7.34  8.20  0.82
Si  1.96 -9.49  5.30
Si -3.58 -2.71 -10.09
Si -0.04 -10.62 -3.05
Si  7.61  6.61  4.57
Si  1.66  0.32 10.97
Si -0.44 -0.82 11.06
Si  9.11 -0.46 -6.38
Si  6.05  6.82  6.39
Si -4.36 10.24 -0.56
Si  4.97 -1.42 -9.87
Si -10.05 -4.67 -1.25
Si -5.99  7.14 -6.17
Si  0.41 -8.44 -7.34
Si  1.96 -9.49 -5.62
Si  1.19  8.89  6.79
Si -5.94  9.49  1.04
Si -4.36 -0.67 10.36
Si 10.87  0.29 -3.05
Si -10.05 -4.64  2.36
Si -2.77 10.68  2.55
Si  2.16 -6.39  9.11
Si -10.83 -2.64 -2.07
Si -8.71 -0.03  7.28
Si -10.69  2.61 -2.81
Si  1.66 11.23  0.06
Si -0.20  4.65 -10.37
Si -7.12 -3.77 -8.02
Si -10.50  2.48  3.58
Si -10.95  0.29 -3.05
Si -11.35 -0.82  0.15
Si  3.80  7.15 -8.02
Si  8.54  7.51 -1.22
Si -9.46 -4.38  4.82
Si 11.00 -2.64 -2.07
Si -1.80 10.45  4.53
Si  0.87  6.25  9.66
Si  0.23 -8.30  8.11
Si -5.94 -1.42 -9.87
Si -0.04 11.20 -3.05
Si  9.02  3.38 -6.57
Si  6.22  2.82  9.45
Si -6.38 -6.87 -6.95
Si  8.15 -0.23 -8.36
Si -7.59 -1.86  8.68
Si 10.71  4.65  0.55
Si  2.20 10.89 -3.64
Si -2.29  0.87 11.45
Si  8.66 -7.82 -1.03
Si  1.44  2.74 -11.30
Si  2.20 -10.94 -3.64
Si -0.44 -11.74  0.15
Si -2.77 -11.15  2.55
Si  4.29 -10.75 -2.14
Si 11.14  2.61 -2.81
Si 10.40  1.45  5.37
Si 10.40  1.45 -5.55
Si -10.05  6.25 -1.25
Si  4.30 -7.62  8.08
Si -4.30 -4.18 10.29
Si  7.61  6.61 -6.35
Si -6.82  9.35  2.83
Si  3.66 -3.78 -10.76
Si -2.29 11.78  0.54
Si -7.59  9.05 -2.23
Si -7.84 -7.61 -5.03
Si -9.72 -2.02  6.79
Si  6.66 -7.00  7.16
Si -1.28  9.21  7.63
Si -11.54 -3.22  1.17
Si 10.35 -3.03 -5.36
Si -11.12  4.65  0.55
Si  4.29 11.08 -2.14
Si -9.46 -4.38 -6.09
Si -10.05  6.27  2.36
Si  0.08  8.28  8.84
Si -0.20 -6.26 -10.37
Si 11.32  2.48  3.58
Si 10.35 -3.03  5.55
Si -6.84  0.82 -9.99
Si  6.98  9.46 -3.07
Si  7.12 -9.36 -3.14
Si  6.56 10.24 -0.56
Si -4.86  7.51 -8.27
Si  7.98  4.66 -8.00
Si -6.84 -10.09  0.92
Si -8.63 -8.39  2.15
Si -1.55 -8.13 -9.00
Si  3.66 -3.78 11.07
Si  6.56 -0.67 10.36
Si  3.76  4.21 -10.90
Si -4.36 -0.67 -11.47
Si  3.76  4.21 10.92
Si  4.17 -10.48 -4.93
Si  9.32 -3.24 -7.39
Si  2.29 -8.39 -8.77
Si -0.20  4.65 11.46
Si -1.80 -11.37  4.53
Si -1.80 10.45 -6.38
Si -4.36 -11.59 -0.56
Si -7.00 -9.58  3.59
Si  9.63 -1.70  7.63
Si -7.84 -7.61  5.89
Si  5.34 -5.15 -9.96
Si 10.71 -6.26  0.55
Si -0.62  7.69 -9.74
Si  4.07 11.74  0.92
Si -9.46  6.53  4.82
Si -3.58 -9.64 -7.06
Si -2.37  7.51  9.70
Si -8.73 -5.39  7.15
Si -9.47 -8.17 -0.39
Si -0.62 -3.22 12.08
Si -5.58 -5.15 -9.96
Si  9.02 -7.54  4.35
Si  4.07  0.82 11.84
Si -2.25  3.09 -11.95
Si  9.36 -8.13  1.91
Si -8.63  2.52 -8.77
Si -8.73  5.52  7.15
Si -3.58 -2.71 11.74
Si 10.80  5.31 -3.63
Si 12.57  0.32  0.06
Si  9.32  7.68  3.52
Si -4.53 10.51 -5.34
Si 12.35  2.74 -0.39
Si  3.91 -9.58 -7.32
Si  5.33  7.67  8.58
Si  5.34  5.77 -9.96
Si 10.78  4.63  4.86
Si 10.80 -5.61 -3.63
Si  7.33 -9.64  3.85
Si -11.43  1.45  5.37
Si  6.05  7.51 -8.27
Si -4.53 10.51  5.58
Si 11.78 -4.67 -1.25
Si -12.20 -1.70 -3.28
Si -3.79 -9.36  7.78
Si -7.78  5.21 -8.67
Si -11.03  5.31 -3.63
Si  7.34 -2.71 -10.09
Si  4.17 -10.48  5.98
Si -11.12 -6.26  0.55
Si -11.43  1.45 -5.55
Si -5.58  7.67  8.58
Si -5.58  5.77 -9.96
Si -2.25 -7.82  9.88
Si -6.62 -10.75 -2.14
Si -2.37 -3.40 -12.13
Si 11.78 -4.64  2.36
Si -7.12  7.15 -8.02
Si -11.03 -5.61 -3.63
Si -3.94  9.46  7.84
Si 10.29  7.69  1.17
Si  7.98 -6.25 -8.00
Si -12.47  2.78  1.91
Si -6.62 -7.62  8.08
Si -11.05  4.63  4.86
Si  6.62 -4.18 10.29
Si 12.11 -2.02 -4.13
Si -7.78 -5.70 -8.67
Si  3.32  9.05  8.68
Si -4.30 -4.18 -11.54
Si -9.46  6.53 -6.09
Si -5.46 -7.91 -8.78
Si -7.68  9.00 -5.44
Si  5.46 -7.91 -8.78
Si  4.09  9.35 -8.08
Si -11.48 -3.03 -5.36
Si  4.97 -1.42 11.95
Si -4.30  6.73 10.29
Si -7.68  9.00  5.47
Si  8.08  5.22  8.79
Si -10.50  2.48 -7.34
Si  4.17 11.35 -4.93
Si  0.87 -4.67 -12.16
Si -0.20 -6.26 11.46
Si -6.62 11.08 -2.14
Si -1.28 -12.61 -3.28
Si -11.48 -3.03  5.55
Si -1.80 -11.37 -6.38
Si 10.78  4.63 -6.05
Si -1.55  2.78 12.83
Si -0.04 -10.62  7.86
Si  8.08 -5.69  8.79
Si  6.56 -0.67 -11.47
Si -13.21  0.87  0.54
Si  8.62 -10.04  0.54
Si  0.08 -2.64 -12.99
Si -3.58 12.19  3.85
Si  9.36  2.78 -9.00
Si  2.20 10.89  7.28
Si -4.69 -8.09  9.45
Si -4.53 -11.32 -5.34
Si  2.20 -10.94  7.28
Si  6.56 -11.59 -0.56
Si  4.97 -12.33  1.04
Si -3.94 -12.37 -3.07
Si  3.76 -6.71 -10.90
Si  3.91 12.25  3.59
Si  3.76 -6.71 10.92
Si  8.54 -3.40  9.70
Si  3.32 -12.78 -2.23
Si 10.78 -6.28  4.86
Si -12.51 -3.24  3.52
Si 11.78  6.25 -1.25
Si  1.44 -8.17 10.52
Si -3.79 12.47 -3.14
Si  6.38 10.51 -5.34
Si -6.75 -10.48 -4.93
Si -4.53 -11.32  5.58
Si -8.75  4.52  9.11
Si  3.66  7.13 -10.76
Si 10.87  0.29  7.86
Si -11.05  4.63 -6.05
