500
set: 106.00  0.00  0.00
Si  0.00  0.00  0.00
Si  1.07  2.08  0.00
Si -1.07 -2.08  0.00
Si -0.04  0.29  2.37
Si  0.04 -0.29 -2.37
Si  2.48  0.00  0.00
Si -2.48  0.00  0.00
Si -1.40  2.08  0.00
Si  1.40 -2.08  0.00
Si  1.12  1.78 -2.37
Si -1.12 -1.78  2.37
Si -1.36  1.78 -2.37
Si  1.36 -1.78  2.37
Si  2.43  0.29  2.37
Si -2.43 -0.29 -2.37
Si -2.52  0.29  2.37
Si  2.52 -0.29 -2.37
Si  1.03  2.38  2.37
Si -1.03 -2.38 -2.37
Si  1.45 -2.38 -2.37
Si -1.45  2.38  2.37
Si -3.55 -2.08  0.00
Si  3.55  2.08  0.00
Si  0.33 -4.16  0.00
Si -0.33  4.16  0.00
Si  3.88 -2.08  0.00
Si -3.88  2.08  0.00
Si  0.28 -3.86  2.37
Si -0.28  3.86 -2.37
Si -3.60 -1.78  2.37
Si  3.60  1.78 -2.37
Si -2.15 -4.16  0.00
Si  2.15  4.16  0.00
Si  0.09 -0.59 -4.73
Si -0.09  0.59  4.73
Si  3.83 -1.78  2.37
Si -3.83  1.78 -2.37
Si  3.51  2.38  2.37
Si -3.51 -2.38 -2.37
Si  4.95  0.00  0.00
Si -4.95  0.00  0.00
Si -2.80  4.16  0.00
Si  2.80 -4.16  0.00
Si  2.19  3.86 -2.37
Si -2.19 -3.86  2.37
Si  0.37 -4.46 -2.37
Si -0.37  4.46  2.37
Si  1.16  1.49 -4.73
Si -1.16 -1.49  4.73
Si -1.31  1.49 -4.73
Si  1.31 -1.49  4.73
Si  3.92 -2.38 -2.37
Si -3.92  2.38  2.37
Si  2.76 -3.86  2.37
Si -2.76  3.86 -2.37
Si  2.39  0.59  4.73
Si -2.39 -0.59 -4.73
Si  2.56 -0.59 -4.73
Si -2.56  0.59  4.73
Si -4.91 -0.29 -2.37
Si  4.91  0.29  2.37
Si  2.11  4.46  2.37
Si -2.11 -4.46 -2.37
Si -0.99 -2.67 -4.73
Si  0.99  2.67  4.73
Si -5.00  0.29  2.37
Si  5.00 -0.29 -2.37
Si -1.49  2.67  4.73
Si  1.49 -2.67 -4.73
Si  2.85 -4.46 -2.37
Si -2.85  4.46  2.37
Si  0.24 -3.57  4.73
Si -0.24  3.57 -4.73
Si  3.64  1.49 -4.73
Si -3.64 -1.49  4.73
Si -4.63 -4.16  0.00
Si  4.63  4.16  0.00
Si  3.79 -1.49  4.73
Si -3.79  1.49 -4.73
Si -0.75 -6.24  0.00
Si  0.75  6.24  0.00
Si  2.24  3.57 -4.73
Si -2.24 -3.57  4.73
Si  6.03  2.08  0.00
Si -6.03 -2.08  0.00
Si -3.46 -2.67 -4.73
Si  3.46  2.67  4.73
Si  0.79  5.94 -2.37
Si -0.79 -5.94  2.37
Si -1.73  6.24  0.00
Si  1.73 -6.24  0.00
Si  4.67  3.86 -2.37
Si -4.67 -3.86  2.37
Si  2.71 -3.57  4.73
Si -2.71  3.57 -4.73
Si -1.68  5.94 -2.37
Si  1.68 -5.94  2.37
Si -6.35  2.08  0.00
Si  6.35 -2.08  0.00
Si -5.28  4.16  0.00
Si  5.28 -4.16  0.00
Si -0.41  4.75  4.73
Si  0.41 -4.75 -4.73
Si  3.96 -2.67 -4.73
Si -3.96  2.67  4.73
Si -6.07 -1.78  2.37
Si  6.07  1.78 -2.37
Si -4.86 -0.59 -4.73
Si  4.86  0.59  4.73
Si -4.58 -4.46 -2.37
Si  4.58  4.46  2.37
Si -5.98 -2.38 -2.37
Si  5.98  2.38  2.37
Si -5.23  3.86 -2.37
Si  5.23 -3.86  2.37
Si  5.04 -0.59 -4.73
Si -5.04  0.59  4.73
Si  6.31 -1.78  2.37
Si -6.31  1.78 -2.37
Si -0.70 -6.54 -2.37
Si  0.70  6.54  2.37
Si -2.06 -4.75 -4.73
Si  2.06  4.75  4.73
Si  3.23  6.24  0.00
Si -3.23 -6.24  0.00
Si -0.13  0.89  7.10
Si  0.13 -0.89 -7.10
Si -1.77  6.54  2.37
Si  1.77 -6.54 -2.37
Si  3.27  5.94 -2.37
Si -3.27 -5.94  2.37
Si -6.40  2.38  2.37
Si  6.40 -2.38 -2.37
Si  1.21  1.19 -7.10
Si -1.21 -1.19  7.10
Si -2.89  4.75  4.73
Si  2.89 -4.75 -4.73
Si -1.27  1.19 -7.10
Si  1.27 -1.19  7.10
Si -5.32  4.46  2.37
Si  5.32 -4.46 -2.37
Si  0.84  5.65 -4.73
Si -0.84 -5.65  4.73
Si  7.43  0.00  0.00
Si -7.43  0.00  0.00
Si  4.20 -6.24  0.00
Si -4.20  6.24  0.00
Si  2.34  0.89  7.10
Si -2.34 -0.89 -7.10
Si  1.64 -5.65  4.73
Si -1.64  5.65 -4.73
Si -4.71 -3.57  4.73
Si  4.71  3.57 -4.73
Si  2.61 -0.89 -7.10
Si -2.61  0.89  7.10
Si  4.16 -5.94  2.37
Si -4.16  5.94 -2.37
Si -3.18 -6.54 -2.37
Si  3.18  6.54  2.37
Si -0.94 -2.97 -7.10
Si  0.94  2.97  7.10
Si  7.38  0.29  2.37
Si -7.38 -0.29 -2.37
Si  0.19 -3.27  7.10
Si -0.19  3.27 -7.10
Si  7.47 -0.29 -2.37
Si -7.47  0.29  2.37
Si -1.53  2.97  7.10
Si  1.53 -2.97 -7.10
Si  6.12  1.49 -4.73
Si -6.12 -1.49  4.73
Si -5.19  3.57 -4.73
Si  5.19 -3.57  4.73
Si  6.26 -1.49  4.73
Si -6.26  1.49 -4.73
Si -5.94 -2.67 -4.73
Si  5.94  2.67  4.73
Si -3.31 -5.65  4.73
Si  3.31  5.65 -4.73
Si  3.68  1.19 -7.10
Si -3.68 -1.19  7.10
Si -4.54 -4.75 -4.73
Si  4.54  4.75  4.73
Si  3.74 -1.19  7.10
Si -3.74  1.19 -7.10
Si  4.25 -6.54 -2.37
Si -4.25  6.54  2.37
Si -2.28 -3.27  7.10
Si  2.28  3.27 -7.10
Si  7.10  4.16  0.00
Si -7.10 -4.16  0.00
Si  2.67 -3.27  7.10
Si -2.67  3.27 -7.10
Si -0.66 -6.83 -4.73
Si  0.66  6.83  4.73
Si  0.65 -8.32  0.00
Si -0.65  8.32  0.00
Si  0.61 -8.02  2.37
Si -0.61  8.02 -2.37
Si  3.42  2.97  7.10
Si -3.42 -2.97 -7.10
Si -6.44  2.67  4.73
Si  6.44 -2.67 -4.73
Si  4.11 -5.65  4.73
Si -4.11  5.65 -4.73
Si  5.70  6.24  0.00
Si -5.70 -6.24  0.00
Si  7.15  3.86 -2.37
Si -7.15 -3.86  2.37
Si  1.81 -6.83 -4.73
Si -1.81  6.83  4.73
Si -1.82 -8.32  0.00
Si  1.82  8.32  0.00
Si  1.87  8.02 -2.37
Si -1.87 -8.02  2.37
Si  5.37 -4.75 -4.73
Si -5.37  4.75  4.73
Si  5.75  5.94 -2.37
Si -5.75 -5.94  2.37
Si -4.82 -0.89 -7.10
Si  4.82  0.89  7.10
Si  7.06  4.46  2.37
Si -7.06 -4.46 -2.37
Si -4.01  2.97  7.10
Si  4.01 -2.97 -7.10
Si  0.46 -5.05 -7.10
Si -0.46  5.05  7.10
Si -7.34 -0.59 -4.73
Si  7.34  0.59  4.73
Si  8.50  2.08  0.00
Si -8.50 -2.08  0.00
Si -5.08  0.89  7.10
Si  5.08 -0.89 -7.10
Si  7.75 -4.16  0.00
Si -7.75  4.16  0.00
Si -3.14 -6.83 -4.73
Si  3.14  6.83  4.73
Si  3.13 -8.32  0.00
Si -3.13  8.32  0.00
Si -7.51  0.59  4.73
Si  7.51 -0.59 -4.73
Si  3.08 -8.02  2.37
Si -3.08  8.02 -2.37
Si -0.88 -5.35  7.10
Si  0.88  5.35 -7.10
Si -7.71  3.86 -2.37
Si  7.71 -3.86  2.37
Si -2.02 -5.05 -7.10
Si  2.02  5.05  7.10
Si  5.66  6.54  2.37
Si -5.66 -6.54 -2.37
Si -0.69  8.62  2.37
Si  0.69 -8.62 -2.37
Si -1.59  5.35 -7.10
Si  1.59 -5.35  7.10
Si  8.55  1.78 -2.37
Si -8.55 -1.78  2.37
Si -8.83  2.08  0.00
Si  8.83 -2.08  0.00
Si  0.56 -7.73  4.73
Si -0.56  7.73 -4.73
Si -8.46 -2.38 -2.37
Si  8.46  2.38  2.37
Si  1.78  8.62  2.37
Si -1.78 -8.62 -2.37
Si  6.68 -6.24  0.00
Si -6.68  6.24  0.00
Si -4.76 -3.27  7.10
Si  4.76  3.27 -7.10
Si  2.93 -5.05 -7.10
Si -2.93  5.05  7.10
Si -6.63  5.94 -2.37
Si  6.63 -5.94  2.37
Si -1.91 -7.73  4.73
Si  1.91  7.73 -4.73
Si -8.78  1.78 -2.37
Si  8.78 -1.78  2.37
Si  7.80 -4.46 -2.37
Si -7.80  4.46  2.37
Si -7.19 -3.57  4.73
Si  7.19  3.57 -4.73
Si -4.29  6.83  4.73
Si  4.29 -6.83 -4.73
Si -5.14  3.27 -7.10
Si  5.14 -3.27  7.10
Si -4.30 -8.32  0.00
Si  4.30  8.32  0.00
Si -5.79 -5.65  4.73
Si  5.79  5.65 -4.73
Si -4.34 -8.02  2.37
Si  4.34  8.02 -2.37
Si -6.16 -1.19  7.10
Si  6.16  1.19 -7.10
Si  3.17 -8.62 -2.37
Si -3.17  8.62  2.37
Si -8.87  2.38  2.37
Si  8.87 -2.38 -2.37
Si -3.36 -5.35  7.10
Si  3.36  5.35 -7.10
Si -6.22  1.19 -7.10
Si  6.22 -1.19  7.10
Si -0.18  1.18  9.47
Si  0.18 -1.18 -9.47
Si -3.04  7.73 -4.73
Si  3.04 -7.73  4.73
Si  1.22 -0.90  9.47
Si -1.22  0.90 -9.47
Si -1.25 -0.90  9.47
Si  1.25  0.90 -9.47
Si -6.72  6.54  2.37
Si  6.72 -6.54 -2.37
Si -7.66  3.57 -4.73
Si  7.66 -3.57  4.73
Si -5.89 -2.97 -7.10
Si  5.89  2.97  7.10
Si -7.01 -4.75 -4.73
Si  7.01  4.75  4.73
Si  4.07 -5.35  7.10
Si -4.07  5.35 -7.10
Si -4.49 -5.05 -7.10
Si  4.49  5.05  7.10
Si  2.30  1.18  9.47
Si -2.30 -1.18 -9.47
Si  6.59 -5.65  4.73
Si -6.59  5.65 -4.73
Si  4.26  8.62  2.37
Si -4.26 -8.62 -2.37
Si  9.90  0.00  0.00
Si -9.90  0.00  0.00
Si  2.65 -1.18 -9.47
Si -2.65  1.18  9.47
Si -8.59 -1.49  4.73
Si  8.59  1.49 -4.73
Si  0.15 -2.98  9.47
Si -0.15  2.98 -9.47
Si  8.41  2.67  4.73
Si -8.41 -2.67 -4.73
Si  5.61  6.83  4.73
Si -5.61 -6.83 -4.73
Si  5.60 -8.32  0.00
Si -5.60  8.32  0.00
Si  5.56 -8.02  2.37
Si -5.56  8.02 -2.37
Si -8.74  1.49 -4.73
Si  8.74 -1.49  4.73
Si -0.90 -3.26 -9.47
Si  0.90  3.26  9.47
Si  6.49 -2.97 -7.10
Si -6.49  2.97  7.10
Si -4.39 -7.73  4.73
Si  4.39  7.73 -4.73
Si -0.62 -7.13 -7.10
Si  0.62  7.13  7.10
Si -0.74  8.91  4.73
Si  0.74 -8.91 -4.73
Si  1.58 -3.26 -9.47
Si -1.58  3.26  9.47
Si -9.86 -0.29 -2.37
Si  9.86  0.29  2.37
Si -2.33 -2.98  9.47
Si  2.33  2.98 -9.47
Si -3.70  0.90 -9.47
Si  3.70 -0.90  9.47
Si -3.73 -0.90  9.47
Si  3.73  0.90 -9.47
Si -7.29 -0.89 -7.10
Si  7.29  0.89  7.10
Si  9.95 -0.29 -2.37
Si -9.95  0.29  2.37
Si  1.86 -7.13 -7.10
Si -1.86  7.13  7.10
Si -1.74 -8.91 -4.73
Si  1.74  8.91  4.73
Si -5.41  5.05  7.10
Si  5.41 -5.05 -7.10
Si  2.62 -2.98  9.47
Si -2.62  2.98 -9.47
Si -8.18 -6.24  0.00
Si  8.18  6.24  0.00
Si  0.52 -7.43  7.10
Si -0.52  7.43 -7.10
Si -7.84  4.75  4.73
Si  7.84 -4.75 -4.73
Si -0.47 -10.10  2.37
Si  0.47 10.10 -2.37
Si -0.42 -10.40  0.00
Si  0.42 10.40  0.00
Si -7.56  0.89  7.10
Si  7.56 -0.89 -7.10
Si  8.22  5.94 -2.37
Si -8.22 -5.94  2.37
Si -9.58 -4.16  0.00
Si  9.58  4.16  0.00
Si -8.92  2.67  4.73
Si  8.92 -2.67 -4.73
Si  1.96  7.43 -7.10
Si -1.96 -7.43  7.10
Si -3.09 -7.13 -7.10
Si  3.09  7.13  7.10
Si -3.37 -3.26 -9.47
Si  3.37  3.26  9.47
Si  5.65 -8.62 -2.37
Si -5.65  8.62  2.37
Si  2.01 -10.10  2.37
Si -2.01 10.10 -2.37
Si -3.21  8.91  4.73
Si  3.21 -8.91 -4.73
Si -2.05 10.40  0.00
Si  2.05 -10.40  0.00
Si -5.51  7.73 -4.73
Si  5.51 -7.73  4.73
Si  9.62  3.86 -2.37
Si -9.62 -3.86  2.37
Si -5.83 -5.35  7.10
Si  5.83  5.35 -7.10
Si  7.24  3.27 -7.10
Si -7.24 -3.27  7.10
Si -4.77 -1.18 -9.47
Si  4.77  1.18  9.47
Si  8.13  6.54  2.37
Si -8.13 -6.54 -2.37
Si -2.99  7.43 -7.10
Si  2.99 -7.43  7.10
Si  6.77 -6.83 -4.73
Si -6.77  6.83  4.73
Si  6.78  8.32  0.00
Si -6.78 -8.32  0.00
Si  0.93  5.06 -9.47
Si -0.93 -5.06  9.47
Si -9.53 -4.46 -2.37
Si  9.53  4.46  2.37
Si -2.94 -10.10  2.37
Si  2.94 10.10 -2.37
Si  6.82  8.02 -2.37
Si -6.82 -8.02  2.37
Si -2.90 -10.40  0.00
Si  2.90 10.40  0.00
Si -4.05  3.26  9.47
Si  4.05 -3.26 -9.47
Si -5.13  1.18  9.47
Si  5.13 -1.18 -9.47
Si -1.55  5.06 -9.47
Si  1.55 -5.06  9.47
Si -0.50  5.34  9.47
Si  0.50 -5.34 -9.47
Si  0.51  9.81 -4.73
Si -0.51 -9.81  4.73
Si  9.81  0.59  4.73
Si -9.81 -0.59 -4.73
Si  7.62 -3.27  7.10
Si -7.62  3.27 -7.10
Si  4.21  8.91  4.73
Si -4.21 -8.91 -4.73
Si -4.33  7.13  7.10
Si  4.33 -7.13 -7.10
Si  0.38 10.70  2.37
Si -0.38 -10.70 -2.37
Si -4.80 -2.98  9.47
Si  4.80  2.98 -9.47
Si -6.54  5.35 -7.10
Si  6.54 -5.35  7.10
Si -10.23  4.16  0.00
Si 10.23 -4.16  0.00
Si  1.97  5.34  9.47
Si -1.97 -5.34 -9.47
Si  1.96 -9.81  4.73
Si -1.96  9.81 -4.73
Si  9.99 -0.59 -4.73
Si -9.99  0.59  4.73
Si -8.27 -5.65  4.73
Si  8.27  5.65 -4.73
Si -9.15  6.24  0.00
Si  9.15 -6.24  0.00
Si -9.11  5.94 -2.37
Si  9.11 -5.94  2.37
Si -10.18  3.86 -2.37
Si 10.18 -3.86  2.37
Si -2.10 10.70  2.37
Si  2.10 -10.70 -2.37
Si -6.97 -5.05 -7.10
Si  6.97  5.05  7.10
Si  5.10 -2.98  9.47
Si -5.10  2.98 -9.47
Si -10.98 -2.08  0.00
Si 10.98  2.08  0.00
Si -6.73 -8.62 -2.37
Si  6.73  8.62  2.37
Si -4.43 -7.43  7.10
Si  4.43  7.43 -7.10
Si  8.63  1.19 -7.10
Si -8.63 -1.19  7.10
Si  3.40  5.06 -9.47
Si -3.40 -5.06  9.47
Si -2.98  5.34  9.47
Si  2.98 -5.34 -9.47
Si -8.69  1.19 -7.10
Si  8.69 -1.19  7.10
Si  2.99  9.81 -4.73
Si -2.99 -9.81  4.73
Si -4.48 10.10 -2.37
