500
set: 708.00  0.00  0.00
Si  0.60 -0.79 -0.41
Si  0.41  1.05  1.24
Si -1.70 -1.35 -1.09
Si -1.99  0.81  1.64
Si  2.26  0.23 -1.97
Si -3.10  0.40 -0.57
Si  1.76 -2.74  0.76
Si  1.32  3.08  0.43
Si  1.50  0.20  3.47
Si  1.60 -2.16  2.97
Si  0.88  3.17 -2.39
Si -2.06 -3.54 -0.30
Si -3.02  2.68 -0.95
Si -1.73 -1.32 -3.56
Si -1.89  3.31  2.07
Si -1.72  2.88 -2.79
Si  3.47  2.54  0.99
Si  0.26 -4.65  0.13
Si  4.26  1.48 -1.32
Si -1.38  0.92 -4.47
Si  2.28 -0.54 -4.20
Si -3.61 -0.21  3.23
Si -0.14  4.68  1.57
Si  3.87  1.30  2.94
Si -0.58 -3.34  4.03
Si  3.83 -3.61  0.47
Si -2.93 -2.75  3.47
Si -4.03 -3.40  1.38
Si -5.45 -0.35 -0.74
Si  0.83  0.79 -5.43
Si  1.89 -2.82 -4.46
Si -3.77  4.14  0.61
Si -0.50 -3.14 -4.78
Si  1.31  3.18 -4.71
Si -3.73 -2.56 -3.72
Si  5.86 -0.35 -0.74
Si  0.81  5.49 -2.09
Si  5.55 -1.98  0.91
Si  2.65 -4.47 -2.95
Si  0.83  0.79  5.87
Si -2.40  3.18  4.49
Si -5.75 -1.98  0.91
Si  5.42 -0.70  2.85
Si  4.29  4.09 -1.83
Si  0.81 -5.81 -2.09
Si  2.87 -2.92  4.74
Si -3.23  1.08  5.30
Si -5.24  2.71 -2.40
Si -1.09 -5.26 -3.61
Si  4.72 -4.08 -1.75
Si  5.62 -1.86 -2.70
Si  4.60 -0.67 -4.60
Si -3.78 -5.26 -0.94
Si -5.68 -1.86 -2.70
Si -5.88 -0.70  2.85
Si  0.26  6.65  0.13
Si  5.23  4.13  0.55
Si  0.23 -5.61  3.69
Si  0.23  5.70  3.69
Si -0.14 -6.62  1.57
Si -3.23  1.08 -6.00
Si  4.15 -5.19  2.16
Si -1.38  0.92  6.83
Si  6.06  2.71 -2.40
Si  4.82 -2.04  4.77
Si -0.63  4.39 -5.52
Si -1.09  6.04 -3.61
Si -3.26  5.46 -3.31
Si -3.78  6.04 -0.94
Si -5.39  1.35 -4.67
Si -0.50 -3.14  6.53
Si -0.63  4.39  5.78
Si -7.04  1.48 -1.32
Si  2.58 -5.34  4.31
Si -6.07  4.13  0.55
Si  1.31  3.18  6.59
Si -3.26 -5.84 -3.31
Si  2.28 -0.54  7.10
Si  5.05  2.80  4.79
Si -4.73 -5.49  2.32
Si  1.89 -2.82  6.84
Si  5.91  1.35 -4.67
Si  3.38  4.25 -5.39
Si -4.56 -3.19  5.28
Si  4.15  6.11  2.16
Si  2.87 -2.92 -6.56
Si -4.34  4.63  4.50
Si  2.58  5.96  4.31
Si -4.73  5.81  2.32
Si -2.40  3.18 -6.81
Si  2.65  6.83 -2.95
Si -6.58 -4.08 -1.75
Si  1.50  0.20 -7.83
Si -0.58 -3.34 -7.27
Si  3.38  4.25  5.91
Si -2.06  7.76 -0.30
Si -1.73 -1.32  7.74
Si -7.43  1.30  2.94
Si -3.77 -7.16  0.61
Si  7.27 -3.40  1.38
Si -6.70 -0.67 -4.60
Si  4.69  5.65 -3.55
Si  4.60 -0.67  6.70
Si  4.69 -5.65 -3.55
Si -4.56 -3.19 -6.02
Si  8.20  0.40 -0.57
Si -7.83  2.54  0.99
Si -6.48 -2.04  4.77
Si -7.47 -3.61  0.47
Si -7.00  4.09 -1.83
Si  1.32 -8.22  0.43
Si  7.69 -0.21  3.23
Si -6.25  2.80  4.79
Si  4.82 -2.04 -6.53
Si -4.60 -5.15 -4.87
Si -1.89 -7.99  2.07
Si  0.88 -8.13 -2.39
Si  4.29 -7.21 -1.83
Si  3.83  7.69  0.47
Si  7.53  4.14  0.61
Si -5.39  1.35  6.63
Si  5.05  2.80 -6.51
Si  1.60 -2.16 -8.33
Si  8.28  2.68 -0.95
Si  1.76  8.56  0.76
Si  4.72  7.22 -1.75
Si -2.93 -2.75 -7.83
Si  7.57 -2.56 -3.72
Si -3.73 -2.56  7.58
Si -3.61 -0.21 -8.06
Si -0.63 -6.91 -5.52
Si  6.57 -5.49  2.32
Si  5.23 -7.17  0.55
Si -0.58  7.96  4.03
Si -4.03  7.90  1.38
Si  5.91  1.35  6.63
Si -0.63 -6.91  5.78
Si -1.72 -8.42 -2.79
Si  6.57  5.81  2.32
Si -4.60  6.15 -4.87
Si -7.15 -5.19  2.16
Si  6.74 -3.19  5.28
Si -4.34 -6.67  4.50
Si -1.72  2.88  8.51
Si  2.58 -5.34 -6.99
Si -3.02 -8.62 -0.95
Si  7.52 -5.26 -0.94
Si -9.04  0.23 -1.97
Si  3.87  1.30 -8.36
Si -4.34  4.63 -6.80
Si -1.09 -5.26  7.69
Si -6.61  5.65 -3.55
Si -6.61 -5.65 -3.55
Si -6.07 -7.17  0.55
Si -6.48 -2.04 -6.53
Si -4.60 -5.15  6.43
Si -6.25  2.80 -6.51
Si  0.23 -5.61 -7.61
Si -0.50  8.16 -4.78
Si  8.37 -2.75  3.47
Si  3.47 -8.76  0.99
Si  1.31 -8.12 -4.71
Si  6.96  4.63  4.50
Si  9.31  0.81  1.64
Si -6.70 -0.67  6.70
Si  0.88  3.17  8.91
Si  3.38 -7.05 -5.39
Si  0.23  5.70 -7.61
Si  2.58  5.96 -6.99
Si -2.40 -8.12  4.49
Si  6.74 -3.19 -6.02
Si  2.26  0.23  9.33
Si -7.15  6.11  2.16
Si -2.93  8.55  3.47
Si  7.52  6.04 -0.94
Si  8.07  1.08  5.30
Si  1.60  9.14  2.97
Si  6.70 -5.15 -4.87
Si  9.60 -1.35 -1.09
Si  1.89  8.48 -4.46
Si  3.38 -7.05  5.91
Si  2.65 -4.47  8.35
Si -1.09  6.04  7.69
Si -1.99  0.81 -9.66
Si  9.24 -3.54 -0.30
Si -6.58  7.22 -1.75
Si -9.54 -2.74  0.76
Si -9.02 -0.54 -4.20
Si -1.89  3.31 -9.23
Si -4.60  6.15  6.43
Si  2.87  8.38  4.74
Si  5.42 -0.70 -8.45
Si -8.44 -2.92  4.74
Si  8.07  1.08 -6.00
Si  0.41  1.05 -10.06
Si -1.70  9.95 -1.09
Si -8.65 -4.47 -2.95
Si  9.41  3.31  2.07
Si -3.73  8.74 -3.72
Si -3.26  5.46  7.99
Si -7.00 -7.21 -1.83
Si  8.04  5.46 -3.31
Si  9.57 -1.32 -3.56
Si  6.70  6.15 -4.87
Si -5.88 -0.70 -8.45
Si  0.41 -10.25  1.24
Si -5.24 -8.59 -2.40
Si -9.70 -2.16  2.97
Si  9.58  2.88 -2.79
Si -9.80  0.20  3.47
Si  7.53 -7.16  0.61
Si -3.26 -5.84  7.99
Si -1.70 -1.35 10.21
Si  5.62 -1.86  8.60
Si -9.98  3.08  0.43
Si -0.50  8.16  6.53
Si  8.90  3.18  4.49
Si -4.34 -6.67 -6.80
Si -5.68 -1.86  8.60
Si  8.04 -5.84 -3.31
Si -7.92  4.25 -5.39
Si  1.31 -8.12  6.59
Si  0.60 10.51 -0.41
Si  6.70 -5.15  6.43
Si  6.96 -6.67  4.50
Si  4.69  5.65  7.75
Si  4.69 -5.65  7.75
Si -5.24  2.71  8.90
Si -4.56  8.11  5.28
Si -7.47  7.69  0.47
Si -10.70 -0.79 -0.41
Si -1.73  9.98 -3.56
Si -7.92  4.25  5.91
Si  0.81  5.49  9.21
Si  6.96  4.63 -6.80
Si  6.06 -8.59 -2.40
Si -9.41 -2.82 -4.46
Si  4.26 -9.82 -1.32
Si -0.58  7.96 -7.27
Si -1.99 -10.49  1.64
Si -0.14  4.68 -9.73
Si  7.27  7.90  1.38
Si -2.40 -8.12 -6.81
Si  5.55  9.32  0.91
Si  0.81 -5.81  9.21
Si  9.92  0.92 -4.47
Si  0.60 -0.79 10.89
Si  4.26  1.48  9.98
Si  5.05 -8.50  4.79
Si -5.75  9.32  0.91
Si -10.89  1.05  1.24
Si  7.57 -2.56  7.58
Si  2.87  8.38 -6.56
Si  1.76 -2.74 -10.54
Si  1.89  8.48  6.84
Si -8.44 -2.92 -6.56
Si -4.56  8.11 -6.02
Si -8.72 -5.34  4.31
Si  6.06  2.71  8.90
Si  2.65  6.83  8.35
Si -3.02  2.68 10.35
Si  3.87 -10.00  2.94
Si  6.70  6.15  6.43
Si  7.69 -0.21 -8.06
Si -10.43  3.17 -2.39
Si  4.29  4.09  9.46
Si  3.47  2.54 -10.31
Si -3.10  0.40 10.73
Si -4.03 -3.40 -9.92
Si -7.43  1.30 -8.36
Si  4.15 -5.19 -9.14
Si  5.62  9.44 -2.70
Si -5.68  9.44 -2.70
Si -3.10 -10.90 -0.57
Si  1.32  3.08 -10.87
Si -1.38 -10.38 -4.47
Si -8.65  6.83 -2.95
Si -8.72  5.96  4.31
Si  4.72 -4.08  9.55
Si  2.26 -11.07 -1.97
Si  4.82  9.26  4.77
Si -9.02 -0.54  7.10
Si -9.99  3.18 -4.71
Si -4.73 -5.49 -8.98
Si -6.25 -8.50  4.79
Si -6.61  5.65  7.75
Si -6.61 -5.65  7.75
Si  8.90  3.18 -6.81
Si -4.73  5.81 -8.98
Si  1.50 -11.10  3.47
Si -2.06 -3.54 11.00
Si  4.15  6.11 -9.14
Si  0.60 -0.79 -11.71
Si -0.14 -6.62 -9.73
Si  2.28 10.76 -4.20
Si  8.37 -2.75 -7.83
Si  6.74  8.11  5.28
Si -7.83 -8.76  0.99
Si  6.96 -6.67 -6.80
Si -10.47  0.79 -5.43
Si 11.71  1.05  1.24
Si  5.05 -8.50 -6.51
Si  0.83 -10.51 -5.43
Si -5.45 -0.35 10.56
Si -7.92 -7.05 -5.39
Si  2.26 11.53 -1.97
Si 10.71 -3.34  4.03
Si 11.90 -0.79 -0.41
Si  5.55 -1.98 -10.39
Si -2.93  8.55 -7.83
Si -3.23 -10.22  5.30
Si -9.41 -2.82  6.84
Si -11.04 -4.65  0.13
Si  8.28 -8.62 -0.95
Si -10.49  5.49 -2.09
Si -10.47  0.79  5.87
Si -5.75 -1.98 -10.39
Si 10.21 -5.26 -3.61
Si  3.83 -3.61 -10.83
Si  0.83 -10.51  5.87
Si -3.77  4.14 -10.69
Si  9.24  7.76 -0.30
Si  9.92  0.92  6.83
Si  5.86 -0.35 10.56
Si -1.72 -8.42  8.51
Si  0.88 -8.13  8.91
Si -3.61 11.09  3.23
Si  0.26 -4.65 -11.17
Si  1.50 11.50  3.47
Si  0.60 -12.09 -0.41
Si -3.10 11.70 -0.57
Si -7.92 -7.05  5.91
Si  6.74  8.11 -6.02
Si  7.57  8.74 -3.72
Si -7.04 -9.82 -1.32
Si -3.73  8.74  7.58
Si -10.49 -5.81 -2.09
Si  1.32  3.08 11.73
Si 11.16  4.68  1.57
Si -3.78 -5.26 10.36
Si 10.80 -3.14 -4.78
Si  5.42 10.60  2.85
Si -5.39 -9.95 -4.67
Si -5.45 10.95 -0.74
Si -6.48  9.26  4.77
Si -3.10  0.40 -11.87
Si -3.23 -10.22 -6.00
Si -6.58 -4.08  9.55
Si -7.04  1.48  9.98
Si -2.06 -3.54 -11.60
Si  4.82  9.26 -6.53
Si  0.26 -4.65 11.43
Si -1.89 -7.99 -9.23
Si  9.57 -1.32  7.74
Si -9.99  3.18  6.59
Si -1.99 12.11  1.64
Si -8.72 -5.34 -6.99
Si -6.25 -8.50 -6.51
Si 10.21  6.04 -3.61
Si  6.57 -5.49 -8.98
Si  0.41 12.35  1.24
Si  5.86 10.95 -0.74
Si -5.88 10.60  2.85
Si  8.37  8.55  3.47
Si 11.56 -4.65  0.13
Si -11.44  4.68  1.57
Si -7.00  4.09  9.46
Si  4.60 10.63 -4.60
Si  1.60  9.14 -8.33
Si  5.91 -9.95 -4.67
Si  1.76 -2.74 12.06
Si -3.61 -11.51  3.23
Si -1.38 -10.38  6.83
Si  9.41 -7.99  2.07
Si -9.80  0.20 -7.83
Si  6.57  5.81 -8.98
Si -3.78  6.04 10.36
Si -1.70 -1.35 -12.39
Si  8.04  5.46  7.99
Si  0.41  1.05 12.54
Si  5.23  4.13 -10.75
Si  4.29 -7.21  9.46
Si -8.72  5.96 -6.99
Si -7.15 -5.19 -9.14
Si -1.73  9.98  7.74
Si  8.04 -5.84  7.99
Si  7.27 -3.40 -9.92
Si  2.28 -11.84 -4.20
Si 10.67  4.39 -5.52
Si -7.43 -10.00  2.94
Si -8.44  8.38  4.74
Si 12.18  3.17 -2.39
Si -1.70 -12.65 -1.09
Si -8.65 -4.47  8.35
Si -9.54  8.56  0.76
Si  8.90 -8.12  4.49
Si  4.72  7.22  9.55
Si -5.45 -11.65 -0.74
Si -11.04  6.65  0.13
Si  3.83 -3.61 11.77
Si -3.02  2.68 -12.25
Si 10.67  4.39  5.78
Si -9.98 -8.22  0.43
Si -11.07 -5.61  3.69
Si -9.70 -2.16 -8.33
Si -11.07  5.70  3.69
Si -11.88 -3.34  4.03
Si -9.04  0.23  9.33
Si 12.62  3.08  0.43
Si  0.26  6.65 -11.17
Si 10.80 -3.14  6.53
Si -6.07  4.13 -10.75
Si  3.47  2.54 12.29
Si -6.48  9.26 -6.53
Si  9.58 -8.42 -2.79
Si  5.86 -11.65 -0.74
Si 11.16 -6.62  1.57
Si -1.38 12.22 -4.47
Si  2.28 10.76  7.10
Si -11.80 -3.14 -4.78
Si -13.00 -1.35 -1.09
Si -7.15  6.11 -9.14
Si -1.99  0.81 12.94
Si -5.39 -9.95  6.63
Si  9.58  2.88  8.51
Si -3.77  4.14 11.91
Si -7.83  2.54 -10.31
Si -5.45 -0.35 -12.04
Si -1.73 -12.62 -3.56
Si  0.26  6.65 11.43
Si 12.80  0.20  3.47
Si  0.83 12.09 -5.43
Si -4.03  7.90 -9.92
Si -11.44 -6.62  1.57
Si 12.13  0.79 -5.43
Si 11.56  6.65  0.13
Si  5.91 -9.95  6.63
Si 11.53 -5.61  3.69
Si 13.06 -2.74  0.76
Si 10.71 -3.34 -7.27
Si 11.53  5.70  3.69
Si -6.70 10.63 -4.60
Si  4.60 10.63  6.70
Si  5.86 -0.35 -12.04
Si -3.77 -7.16 -10.69
Si  4.26  1.48 -12.62
Si 12.90 -2.16  2.97
Si -13.29  0.81  1.64
Si -9.41  8.48 -4.46
Si -5.24 -8.59  8.90
Si -10.43 -8.13 -2.39
Si  9.31  0.81 -9.66
Si 12.11  5.49 -2.09
Si  2.26  0.23 -13.27
Si  0.83 12.09  5.87
Si  5.42 -12.00  2.85
Si -12.68  0.92 -4.47
Si 12.13  0.79  5.87
Si  3.87 12.60  2.94
Si  8.20  0.40 10.73
Si  8.28  2.68 10.35
Si  4.26 12.78 -1.32
Si  5.55 -1.98 12.21
Si -13.03 -1.32 -3.56
Si -8.44  8.38 -6.56
Si  9.41  3.31 -9.23
Si 12.11 -5.81 -2.09
Si  3.87 -10.00 -8.36
Si  5.23  4.13 11.85
Si  4.60 -11.96 -4.60
Si -13.02  2.88 -2.79
Si -2.06  7.76 11.00
Si -7.47 -3.61 -10.83
Si -5.75 -1.98 12.21
Si  8.20 -10.90 -0.57
Si -6.58  7.22  9.55
Si -9.70  9.14  2.97
Si -5.88 -12.00  2.85
Si  1.50 -11.10 -7.83
Si  1.32 -8.22 -10.87
Si -0.14  4.68 12.87
Si  1.76  8.56 -10.54
Si -9.99 -8.12 -4.71
Si 13.56  0.23 -1.97
Si  7.53  4.14 -10.69
Si -4.03 -3.40 12.68
Si -13.19  3.31  2.07
Si  6.06 -8.59  8.90
Si -3.02 -8.62 10.35
Si -7.00 -7.21  9.46
Si 10.21 -5.26  7.69
Si -13.36 -3.54 -0.30
Si  3.83  7.69 -10.83
Si -8.65  6.83  8.35
Si  7.57  8.74  7.58
Si 12.61  3.18 -4.71
Si  7.52 -5.26 10.36
Si -11.80 -3.14  6.53
Si  8.90 -8.12 -6.81
Si -3.23 12.38  5.30
