500
set: 1116.00  0.00  0.00
Si -0.02 -0.06 -0.00
Si  0.03 -0.02 -2.48
Si  0.04  0.01  2.52
Si -2.62  0.10 -0.03
Si  2.67  0.03 -0.02
Si -1.25 -2.37  0.01
Si  1.38  2.30 -0.01
Si -1.31  2.34  0.00
Si  1.33 -2.35 -0.01
Si -1.23 -2.20  2.51
Si -1.32 -2.27 -2.50
Si  1.27  2.31  2.52
Si -1.38  2.27  2.51
Si -2.68  0.03  2.50
Si  2.66  0.01 -2.53
Si  2.65 -0.03  2.55
Si  1.34  2.35 -2.50
Si  1.32 -2.38 -2.50
Si -2.66 -0.02 -2.58
Si  1.34 -2.40  2.54
Si -1.41  2.39 -2.53
Si -3.98 -2.23  0.01
Si -4.00  2.28  0.04
Si  3.99 -2.35  0.06
Si -0.07  4.64 -0.01
Si -0.03 -4.66 -0.04
Si  4.04  2.36 -0.01
Si -0.07  0.15 -4.99
Si -0.06  0.15  5.13
Si  3.95  2.32  2.49
Si -3.98 -2.28 -2.51
Si  0.03 -4.58 -2.57
Si  4.04 -2.29 -2.46
Si -4.05  2.29 -2.51
Si  4.00 -2.31  2.57
Si -4.03 -2.36  2.51
Si  2.60  4.62 -0.02
Si  5.32 -0.05  0.06
Si  4.04  2.32 -2.58
Si -0.00  4.68  2.54
Si  0.06  4.70 -2.56
Si -4.07  2.42  2.58
Si  0.04 -4.81  2.45
Si -2.65  4.70 -0.03
Si  2.79 -4.63 -0.03
Si -2.69 -4.71 -0.02
Si -5.42 -0.05  0.06
Si -1.30 -2.25 -4.99
Si  2.61  0.00 -5.04
Si -2.74  0.00  4.97
Si  1.33  2.31 -5.05
Si  2.62  0.00  5.08
Si -1.33  2.36 -5.04
Si  1.33  2.31  5.07
Si -1.30 -2.25  5.13
Si -1.32  2.36  5.08
Si  1.36 -2.41 -5.06
Si  1.36 -2.41  5.06
Si -2.60 -4.56  2.53
Si -2.75  0.00 -5.15
Si -2.66  4.62  2.48
Si -2.70 -4.60 -2.52
Si  5.37 -0.03 -2.49
Si  2.62 -4.65 -2.56
Si -5.38 -0.03 -2.49
Si -5.36 -0.01  2.53
Si  5.38 -0.01  2.53
Si  2.60  4.73 -2.52
Si  2.79 -4.71  2.48
Si -2.82  4.68 -2.56
Si  2.70  4.77  2.53
Si  0.04 -4.60  4.99
Si -0.01  4.56 -5.04
Si -0.01  4.56  5.08
Si -3.96 -2.35  5.04
Si -3.96 -2.35 -5.08
Si -4.07  2.34 -5.00
Si  4.10  2.25  5.04
Si  0.03 -4.60 -5.13
Si  4.10  2.25 -5.08
Si -4.07  2.34  5.12
Si  4.15 -2.39 -5.03
Si  4.16 -2.39  5.08
Si  5.27  4.67 -0.04
Si -1.25 -6.97 -0.01
Si -6.70  2.36 -0.01
Si  6.74  2.28  0.04
Si  6.76 -2.23  0.01
Si -1.46  6.97  0.06
Si -5.37 -4.69 -0.01
Si  5.38 -4.69 -0.01
Si -6.75 -2.35  0.06
Si  1.45 -7.05  0.04
Si -5.48  4.67 -0.04
Si  1.31  7.10  0.01
Si -2.56 -4.59  5.05
Si -2.57 -4.59 -5.07
Si  5.30 -0.03 -5.04
Si  5.31 -0.03  5.08
Si -2.67  4.63  5.06
Si -2.67  4.63 -5.06
Si  5.34  4.52  2.45
Si -5.44 -0.03 -5.04
Si -5.23 -4.63 -2.56
Si -5.44 -0.03  5.08
Si  2.78 -4.70  5.06
Si  2.77 -4.70 -5.06
Si  2.73  4.74  5.05
Si  2.73  4.74 -5.07
Si -5.41  4.52  2.45
Si -5.30 -4.64  2.54
Si -6.70 -2.29 -2.46
Si  6.69  2.29 -2.51
Si  1.38 -6.91  2.58
Si  1.26  6.96  2.51
Si -6.70  2.32 -2.58
Si  6.71 -2.36  2.51
Si  6.67  2.42  2.58
Si -1.34 -7.01  2.49
Si  6.76 -2.28 -2.51
Si -1.25 -7.01 -2.58
Si -6.74 -2.31  2.57
Si  5.33  4.75 -2.57
Si -1.41  7.04 -2.46
Si -6.79  2.32  2.49
Si  5.45 -4.64  2.54
Si  0.04  0.01 -7.60
Si  1.31  7.05 -2.51
Si  1.40 -7.04 -2.51
Si -1.45  7.02  2.57
Si  5.51 -4.63 -2.56
Si  0.03 -0.02  7.64
Si -5.42  4.75 -2.57
Si -2.66 -0.02  7.54
Si -1.24 -2.20 -7.61
Si  2.64 -0.03 -7.57
Si  2.66  0.01  7.59
Si -3.92 -7.03 -0.01
Si  1.27  2.31 -7.60
Si  4.04  6.96  0.01
Si -1.32 -2.27  7.62
Si -1.38  2.27 -7.61
Si  1.34 -2.40 -7.58
Si -8.07  0.03 -0.02
Si -1.41  2.39  7.59
Si -2.69  0.03 -7.62
Si  1.34  2.35  7.62
Si  1.33 -2.38  7.62
Si -4.12  6.98 -0.01
Si  4.14 -6.99  0.00
Si  8.12  0.10 -0.03
Si -3.96 -6.97 -2.50
Si  4.04 -6.94 -2.53
Si  8.06  0.03  2.50
Si -4.11  6.93  2.54
Si -4.13  6.95 -2.50
Si -4.02 -7.01  2.52
Si -8.09  0.01 -2.53
Si  3.97  7.06 -2.50
Si  8.08 -0.02 -2.58
Si -8.10 -0.03  2.55
Si  4.07 -7.06  2.51
Si  4.06  7.13  2.51
Si -6.59 -2.39 -5.03
Si -6.64  2.25  5.04
Si -6.59 -2.39  5.08
Si -6.65  2.25 -5.08
Si  6.67  2.34 -5.00
Si -1.30  6.94 -5.03
Si  5.33  4.73  4.99
Si -1.29  6.94  5.08
Si  1.38 -6.99 -5.00
Si  1.34  6.97  5.04
Si  1.33  6.97 -5.08
Si  6.68  2.34  5.12
Si -5.30 -4.77 -5.04
Si -5.41  4.73  4.99
Si -5.30 -4.77  5.08
Si  1.38 -6.99  5.12
Si -1.19 -7.08  5.04
Si  6.79 -2.35  5.04
Si  5.33  4.73 -5.13
Si -1.20 -7.08 -5.08
Si  6.78 -2.35 -5.08
Si  5.44 -4.77 -5.04
Si  0.04 -4.58  7.55
Si -5.42  4.73 -5.13
Si  5.44 -4.77  5.08
Si  4.00 -2.31 -7.55
Si  4.05  2.32  7.54
Si -3.98 -2.28  7.61
Si  3.95  2.32 -7.63
Si  0.07  4.70  7.56
Si -4.08  2.42 -7.54
Si -0.01  4.68 -7.58
Si -4.05  2.29  7.61
Si -4.03 -2.36 -7.61
Si  4.05 -2.29  7.66
Si  0.04 -4.81 -7.67
Si -7.95 -4.63 -0.03
Si -2.60 -4.56 -7.59
Si  2.63 -4.65  7.56
Si -0.13  9.28  0.06
Si -2.69 -4.60  7.60
Si -5.36 -0.01 -7.59
Si  5.38 -0.01 -7.59
Si -2.67  4.62 -7.64
Si  2.60  4.73  7.60
Si  8.05 -4.71 -0.02
Si -2.82  4.68  7.56
Si  5.37 -0.03  7.63
Si -5.37 -0.03  7.63
Si  8.09  4.70 -0.03
Si  2.69  4.77 -7.59
Si -8.14  4.62 -0.02
Si  0.03 -9.38  0.06
Si  2.78 -4.71 -7.64
Si  8.00  0.00  4.97
Si -4.09  6.92  5.06
Si -4.09  6.92 -5.06
Si -3.96 -7.02 -5.05
Si  8.00  0.00 -5.15
Si -3.96 -7.02  5.07
Si  3.99  7.07 -4.99
Si  4.12 -6.97 -5.04
Si  7.92  4.68 -2.56
Si  4.12 -6.97  5.08
Si -8.13  0.00 -5.04
Si -7.96 -4.71  2.48
Si -8.13  0.00  5.08
Si  8.05 -4.60 -2.52
Si  4.00  7.07  5.13
Si -6.61 -6.99  0.00
Si  6.63  6.98 -0.01
Si -0.08  9.30 -2.49
Si  8.08  4.62  2.48
Si -9.37  2.30 -0.01
Si  2.83 -9.23 -0.03
Si -0.07  9.32  2.53
Si -2.62 -9.30 -0.02
Si -6.70  6.96  0.01
Si  8.15 -4.56  2.53
Si  0.09 -9.34  2.53
Si  0.07 -9.35 -2.49
Si -8.05  4.77  2.53
Si -9.41 -2.35 -0.01
Si -8.12 -4.65 -2.56
Si  9.43  2.34  0.00
Si -8.15  4.73 -2.52
Si -2.78  9.36 -0.02
Si  9.49 -2.37  0.01
Si  6.83 -7.03 -0.01
Si  2.67  9.43 -0.03
Si  6.62  6.95 -2.50
Si  6.64  6.93  2.54
Si  9.36  2.27  2.51
Si  9.33  2.39 -2.53
Si -6.71 -6.94 -2.53
Si  9.42 -2.27 -2.50
Si -2.64 -9.32 -2.53
Si  2.63  9.31 -2.58
Si -9.40  2.35 -2.50
Si  2.77 -9.30  2.50
Si -9.40 -2.40  2.54
Si  2.61  9.36  2.50
Si -9.42 -2.38 -2.50
Si -6.67 -7.06  2.51
Si  6.72 -7.01  2.52
Si -2.80  9.30  2.55
Si  6.79 -6.97 -2.50
Si -2.65 -9.36  2.55
Si -9.47  2.31  2.52
Si -2.79  9.34 -2.53
Si  9.51 -2.20  2.51
Si -6.68  7.13  2.51
Si  2.79 -9.35 -2.58
Si -6.77  7.06 -2.50
Si -0.02 -0.06 10.12
Si -0.03 -0.06 -10.12
Si -5.23 -4.62  7.56
Si  1.37 -6.91 -7.54
Si -6.70  2.32  7.54
Si  6.67  2.42 -7.54
Si -5.30 -4.64 -7.58
Si -1.25 -7.01  7.54
Si  5.33  4.52 -7.67
Si -6.75 -2.31 -7.55
Si  6.70  2.29  7.61
Si  1.26  6.96 -7.61
Si  5.33  4.75  7.55
Si -1.45  7.02 -7.55
Si -5.41  4.52 -7.67
Si  6.71 -2.36 -7.61
Si -2.62  0.10 10.09
Si -6.70 -2.29  7.66
Si  5.45 -4.64 -7.58
Si  6.77 -2.28  7.61
Si  5.51 -4.62  7.56
Si -5.42  4.75  7.55
Si  2.68  0.03 10.10
Si -1.34 -7.01 -7.63
Si -1.26 -2.37 -10.11
Si  1.32  7.05  7.61
Si  1.38  2.30 10.11
Si  1.40 -7.04  7.61
Si  1.34 -2.35 10.11
Si -1.32  2.34 -10.12
Si -1.31  2.34 10.12
Si  1.37  2.30 -10.13
Si -6.79  2.32 -7.63
Si  1.33 -2.35 -10.13
Si -1.25 -2.37 10.13
Si -2.63  0.10 -10.15
Si  2.67  0.03 -10.14
Si -1.40  7.04  7.66
Si -7.96 -4.70  5.06
Si -7.97 -4.70 -5.06
Si -0.14  9.30 -5.04
Si  8.07  4.63 -5.06
Si  8.07  4.63  5.06
Si -8.01  4.74  5.05
Si -0.14  9.30  5.08
Si -8.02  4.74 -5.07
Si  0.01 -9.35 -5.04
Si  0.01 -9.35  5.08
Si  8.18 -4.59  5.05
Si  8.18 -4.59 -5.07
Si  5.27  9.27 -0.00
Si 10.72 -0.06 -0.00
Si -5.47  9.27 -0.00
Si -10.77 -0.06 -0.00
Si -5.32 -9.39 -0.00
Si  5.43 -9.39 -0.00
Si  6.65  6.92 -5.06
Si  6.66  6.92  5.06
Si -6.62 -6.97 -5.04
Si -6.62 -6.97  5.08
Si  2.55  9.33  4.97
Si  2.71 -9.33  4.97
Si  9.44 -2.25 -4.99
Si -9.41  2.31 -5.05
Si -9.38 -2.41  5.06
Si -9.39 -2.41 -5.06
Si -2.68 -9.32 -5.04
Si  9.41  2.36 -5.04
Si -9.41  2.31  5.07
Si -2.68 -9.32  5.08
Si  2.55  9.33 -5.15
Si  9.42  2.36  5.08
Si -6.75  7.07 -4.99
Si -2.84  9.33 -5.04
Si  9.45 -2.25  5.13
Si  6.78 -7.02 -5.05
Si  2.71 -9.33 -5.15
Si -5.25 -9.32  2.52
Si -2.83  9.33  5.08
Si -10.71  0.01  2.52
Si -10.72 -0.02 -2.48
Si  6.79 -7.02  5.07
Si  5.32  9.31 -2.48
Si -5.27 -9.35 -2.48
Si -6.75  7.07  5.13
Si  5.33  9.34  2.52
Si  4.04 -6.94  7.59
Si 10.77 -0.02 -2.48
Si  8.09 -0.02  7.54
Si -5.42  9.31 -2.48
Si -3.95 -6.97  7.62
Si -4.11  6.93 -7.58
Si  3.99 -2.35 -10.06
Si 10.78  0.01  2.52
Si -5.41  9.34  2.52
Si -8.10 -0.03 -7.57
Si -8.09  0.01  7.59
Si -4.01  2.28 -10.08
Si -3.99 -2.23 -10.11
Si  8.06  0.03 -7.62
Si -4.02 -7.01 -7.60
Si -0.02 -4.66 10.08
Si -4.12  6.95  7.62
Si  5.49 -9.32  2.52
Si -3.98 -2.23 10.13
Si  5.48 -9.35 -2.48
Si -0.07  4.64 10.11
Si  3.97  7.06  7.62
Si  4.05  2.36 10.11
Si -0.08  4.64 -10.13
Si  4.07 -7.06 -7.61
Si -4.00  2.28 10.15
Si  4.04  2.36 -10.13
Si -0.03 -4.66 -10.16
Si  4.00 -2.35 10.18
Si  4.06  7.13 -7.61
Si  5.32 -0.05 -10.06
Si  2.60  4.62 10.10
Si -5.43 -0.05 -10.06
Si  2.60  4.62 -10.14
Si -2.65  4.70 10.09
Si  2.80 -4.63 10.09
Si -2.69 -4.71 10.10
Si  5.32 -0.05 10.17
Si -2.66  4.70 -10.14
Si  2.79 -4.63 -10.14
Si -2.70 -4.71 -10.14
Si -5.42 -0.05 10.17
Si  9.29  6.97  0.06
Si 10.67  4.64 -0.01
Si  1.47 -11.56  0.01
Si -9.30 -7.05  0.04
Si  1.29 11.61  0.04
Si 10.72 -4.66 -0.04
Si -10.77 -4.66 -0.04
Si -5.36 -9.18 -4.99
Si  5.38 -9.18 -4.99
Si -1.30 -11.68  0.06
Si -10.82  4.64 -0.01
Si -1.41 11.69 -0.01
Si  9.49 -6.97 -0.01
Si 10.68  0.15 -4.99
Si -5.36 -9.18  5.13
Si -9.44  7.10  0.01
Si  5.39 -9.18  5.13
Si 10.68  0.15  5.13
Si -10.81  0.15 -4.99
Si  7.92  4.68  7.56
Si  5.23  9.48 -4.99
Si -9.37 -6.91  2.58
Si -10.71 -4.58 -2.57
Si  9.30  7.02  2.57
Si -1.25 -11.62 -2.46
Si  1.24 11.61 -2.51
Si  9.34  7.04 -2.46
Si -10.68  4.70 -2.56
Si  1.47 -11.61 -2.51
Si -10.81  0.15  5.13
Si -9.35 -7.04 -2.51
Si  5.23  9.48  5.13
Si -10.70 -4.81  2.45
Si 10.78 -4.58 -2.57
Si  9.40 -7.01  2.49
Si -1.29 -11.64  2.57
Si 10.74  4.68  2.54
Si  8.05 -4.60  7.60
Si -10.75  4.68  2.54
Si -7.96 -4.71 -7.64
Si -1.50 11.65  2.49
Si -1.41 11.65 -2.58
Si -0.07  9.32 -7.59
Si -8.12 -4.65  7.56
Si  8.14 -4.56 -7.59
Si -9.48  6.96  2.51
Si -0.08  9.30  7.63
Si  0.09 -9.34 -7.59
Si -9.43  7.05 -2.51
Si  8.08  4.62 -7.64
Si  1.42 -11.69  2.51
Si -5.52  9.48 -4.99
Si -8.05  4.77 -7.59
Si 10.80  4.70 -2.56
Si 10.79 -4.81  2.45
Si  0.08 -9.35  7.63
Si  9.49 -7.01 -2.58
Si  1.22 11.74  2.58
Si -8.14  4.73  7.60
Si -5.51  9.48  5.13
Si -7.92 -9.23 -0.03
Si  6.63  6.93 -7.58
Si -12.00 -2.37  0.01
Si  6.62  6.95  7.62
Si  9.33  2.39  7.59
Si  2.64  9.31  7.54
Si -6.71 -6.94  7.59
Si  9.36  2.27 -7.61
Si -12.06  2.34  0.00
Si  7.97  9.36 -0.02
Si  5.27  4.67 10.08
Si -2.63 -9.32  7.59
Si 12.08 -2.35 -0.01
Si -2.81  9.30 -7.57
Si -9.40 -2.40 -7.58
Si -4.07 11.63 -0.01
Si -1.46  6.97 -10.06
Si -2.65 -9.36 -7.57
Si -9.40  2.35  7.62
Si  9.42 -2.27  7.62
Si -3.96 -11.68 -0.01
Si  2.79 -9.35  7.54
Si  3.98 11.67  0.00
Si  6.72 -7.01 -7.60
Si 12.12  2.30 -0.01
Si -1.25 -6.97 10.11
Si  6.74  2.28 -10.08
Si  2.76 -9.30 -7.62
Si -6.76 -2.35 -10.06
Si -6.68 -7.06 -7.61
Si  8.12 -9.30 -0.02
Si  2.61  9.36 -7.62
Si -9.42 -2.38  7.62
Si -2.79  9.34  7.59
Si -6.70  2.36 10.11
