500
set: 564.00  0.00  0.00
Si  0.00  0.00  0.00
Si -1.75  1.05  0.75
Si  1.83  1.05  0.75
Si -0.04 -0.38 -2.21
Si  0.30 -2.18  0.75
Si  0.34 -1.80  2.95
Si -0.34  1.80 -2.95
Si  3.57  0.00  0.00
Si -3.57  0.00  0.00
Si  1.53  3.24  0.00
Si -1.53 -3.24  0.00
Si  1.70 -1.44 -2.95
Si -1.70  1.44  2.95
Si  1.87  1.44  2.95
Si -1.87 -1.44 -2.95
Si -2.04  3.24  0.00
Si  2.04 -3.24  0.00
Si  1.48  2.85 -2.21
Si -3.27 -2.18  0.75
Si -1.40 -0.74  3.70
Si -2.09  2.85 -2.21
Si  3.53 -0.38 -2.21
Si -3.62 -0.38 -2.21
Si  2.17 -0.74  3.70
Si -0.22  4.29  0.75
Si  0.13  2.49  3.70
Si  3.87 -2.18  0.75
Si -1.57 -3.62 -2.21
Si  2.00 -3.62 -2.21
Si -3.23 -1.80  2.95
Si  3.23  1.80 -2.95
Si  3.92 -1.80  2.95
Si -3.92  1.80 -2.95
Si -0.39  1.42 -5.16
Si -5.32  1.05  0.75
Si  0.64 -3.98  3.70
Si  3.35  4.29  0.75
Si  0.17 -4.68 -2.95
Si -0.17  4.68  2.95
Si  5.40  1.05  0.75
Si -1.23 -5.42  0.75
Si -3.44  2.49  3.70
Si  1.66 -1.82 -5.16
Si -3.79  4.29  0.75
Si  3.70  2.49  3.70
Si -1.92 -1.82 -5.16
Si  2.34 -5.42  0.75
Si -1.18 -5.04  2.95
Si  1.18  5.04 -2.95
Si -5.10 -3.24  0.00
Si  5.10  3.24  0.00
Si  1.36  0.36 -5.91
Si -1.36 -0.36  5.91
Si -2.93 -3.98  3.70
Si  5.05  2.85 -2.21
Si  5.27 -1.44 -2.95
Si -5.27  1.44  2.95
Si  3.18  1.42 -5.16
Si -4.97 -0.74  3.70
Si  2.39 -5.04  2.95
Si -2.39  5.04 -2.95
Si -2.21  0.36 -5.91
Si  2.21 -0.36  5.91
Si  5.44  1.44  2.95
Si -5.44 -1.44 -2.95
Si -5.62  3.24  0.00
Si  5.62 -3.24  0.00
Si -3.40 -4.68 -2.95
Si  3.40  4.68  2.95
Si  0.52 -6.48  0.00
Si -0.52  6.48  0.00
Si -0.56  6.09 -2.21
Si -0.17 -2.88 -5.91
Si  0.17  2.88  5.91
Si -3.96  1.42 -5.16
Si -5.14 -3.62 -2.21
Si  3.75 -4.68 -2.95
Si -3.75  4.68  2.95
Si  0.47  0.69  6.65
Si -5.66  2.85 -2.21
Si  5.74 -0.74  3.70
Si  4.21 -3.98  3.70
Si  0.69 -3.60  5.91
Si -0.69  3.60 -5.91
Si  5.57 -3.62 -2.21
Si  1.65  5.73  3.70
Si  1.14  4.65 -5.16
Si -1.92  5.73  3.70
Si  7.14  0.00  0.00
Si -7.14  0.00  0.00
Si  3.01  6.09 -2.21
Si -3.05 -6.48  0.00
Si  3.05  6.48  0.00
Si -1.06 -2.54  6.65
Si -6.84 -2.18  0.75
Si  0.47 -6.86 -2.21
Si  0.13 -5.06 -5.16
Si -4.80 -5.42  0.75
Si -2.43  4.65 -5.16
Si -3.10  0.69  6.65
Si  3.40 -2.88 -5.91
Si -3.40  2.88  5.91
Si  7.10 -0.38 -2.21
Si  2.88  3.60 -5.91
Si -2.88 -3.60  5.91
Si -7.19 -0.38 -2.21
Si  4.75  5.04 -2.95
Si -4.75 -5.04  2.95
Si  2.51 -2.54  6.65
Si  3.74  2.88  5.91
Si -3.74 -2.88 -5.91
Si  5.23 -1.82 -5.16
Si -6.80 -1.80  2.95
Si  6.80  1.80 -2.95
Si  4.09 -6.48  0.00
Si -4.09  6.48  0.00
Si  1.31  7.53  0.75
Si -4.13  6.09 -2.21
Si  4.93  0.36 -5.91
Si -4.93 -0.36  5.91
Si -5.49 -1.82 -5.16
Si  7.44 -2.18  0.75
Si  4.04  0.69  6.65
Si -3.10 -6.86 -2.21
Si -1.57  3.93  6.65
Si -2.26  7.53  0.75
Si  2.00  3.93  6.65
Si -3.44 -5.06 -5.16
Si  5.92 -5.42  0.75
Si  3.70 -5.06 -5.16
Si  4.26 -3.60  5.91
Si -4.26  3.60 -5.91
Si -0.88 -7.22  3.70
Si  6.92  4.29  0.75
Si  1.31 -0.02 -8.11
Si  7.49 -1.80  2.95
Si -7.49  1.80 -2.95
Si  4.04 -6.86 -2.21
Si  5.79 -0.36  5.91
Si -5.79  0.36 -5.91
Si -7.02  2.49  3.70
Si -5.96  5.04 -2.95
Si  5.96 -5.04  2.95
Si  4.71  4.65 -5.16
Si -2.26 -0.02 -8.11
Si -6.50 -3.98  3.70
Si -4.63 -2.54  6.65
Si  7.27  2.49  3.70
Si  2.69 -7.22  3.70
Si -7.36  4.29  0.75
Si  1.35  7.92  2.95
Si -1.35 -7.92 -2.95
Si  5.22  5.73  3.70
Si  6.75  1.42 -5.16
Si -1.70 -6.12 -5.91
Si  1.70  6.12  5.91
Si  1.87 -6.12 -5.91
Si -1.87  6.12  5.91
Si  0.82 -8.66  0.75
Si  2.22 -7.92 -2.95
Si -2.22  7.92  2.95
Si -0.21 -3.26 -8.11
Si -5.49  5.73  3.70
Si -0.73  3.21 -8.11
Si -0.86  8.28 -2.95
Si  0.86 -8.28  2.95
Si  0.99 -5.78  6.65
Si  6.97  4.68  2.95
Si -6.97 -4.68 -2.95
Si  0.51  1.08  8.86
Si -0.51 -1.08 -8.86
Si -8.89  1.05  0.75
Si  4.88  7.53  0.75
Si  8.97  1.05  0.75
Si  0.84  6.84 -5.91
Si -0.84 -6.84  5.91
Si -2.75 -8.66  0.75
Si  7.32 -4.68 -2.95
Si -7.32  4.68  2.95
Si -1.01 -2.16  8.86
Si  1.01  2.16 -8.86
Si  2.84  3.21 -8.11
Si -6.00  4.65 -5.16
Si -2.58 -5.78  6.65
Si  2.71  8.28 -2.95
Si -2.71 -8.28  2.95
Si  6.58  6.09 -2.21
Si -7.53  1.42 -5.16
Si -8.67 -3.24  0.00
Si  8.67  3.24  0.00
Si -4.46 -7.22  3.70
Si  6.62  6.48  0.00
Si -6.62 -6.48  0.00
Si -5.14  3.93  6.65
Si -8.54 -0.74  3.70
Si  8.62  2.85 -2.21
Si  3.36 -3.26 -8.11
Si  6.08 -2.54  6.65
Si  8.84 -1.44 -2.95
Si -8.84  1.44  2.95
Si  3.06 -1.08 -8.86
Si -3.06  1.08  8.86
Si -2.73  6.84 -5.91
Si  2.73 -6.84  5.91
Si -6.67  0.69  6.65
Si  6.46  3.60 -5.91
Si -6.46 -3.60  5.91
Si  4.88 -0.02 -8.11
Si -2.56  2.16 -8.86
Si  2.56 -2.16  8.86
Si -0.91  7.89 -5.16
Si  7.79 -3.98  3.70
Si  5.57  3.93  6.65
Si -3.79 -3.26 -8.11
Si -5.83  7.53  0.75
Si  6.97 -2.88 -5.91
Si -6.97  2.88  5.91
Si  9.01  1.44  2.95
Si -9.01 -1.44 -2.95
Si  0.96  9.33 -2.21
Si -8.71 -3.62 -2.21
Si  0.81 -1.11  9.61
Si -0.39  8.97  3.70
Si -4.30  3.21 -8.11
Si  4.39 -8.66  0.75
Si  9.19 -3.24  0.00
Si -9.19  3.24  0.00
Si -1.01 -9.71  0.00
Si  1.01  9.71  0.00
Si -4.92 -7.92 -2.95
Si  4.92  7.92  2.95
Si -0.05  7.17  6.65
Si  2.67  7.89 -5.16
Si  4.08  1.08  8.86
Si -4.08 -1.08 -8.86
Si -6.67 -6.86 -2.21
Si  7.31  2.88  5.91
Si -7.31 -2.88 -5.91
Si  4.43 -8.28  2.95
Si -4.43  8.28 -2.95
Si -1.40 -8.30 -5.16
Si -9.23  2.85 -2.21
Si -1.23  2.13  9.61
Si  4.56 -5.78  6.65
Si -2.61  9.33 -2.21
Si  1.53 -4.32 -8.86
Si -1.53  4.32  8.86
Si -5.83 -0.02 -8.11
Si -8.37 -5.42  0.75
Si -5.27 -6.12 -5.91
Si  5.27  6.12  5.91
Si  2.17 -8.30 -5.16
Si  7.66 -6.48  0.00
Si -7.66  6.48  0.00
Si  2.56 -9.71  0.00
Si -2.56  9.71  0.00
Si  9.31 -0.74  3.70
Si  4.41  6.84 -5.91
Si -4.41 -6.84  5.91
Si -2.76 -1.11  9.61
Si  2.04  4.32  8.86
Si -2.04 -4.32 -8.86
Si -7.70  6.09 -2.21
Si -7.01 -5.06 -5.16
Si  9.14 -3.62 -2.21
Si  5.45 -6.12 -5.91
Si -5.45  6.12  5.91
Si  2.34  2.13  9.61
Si  7.61  0.69  6.65
Si  8.32  5.04 -2.95
Si -8.32 -5.04  2.95
Si  4.58  2.16 -8.86
Si -4.58 -2.16  8.86
Si  3.18  8.97  3.70
Si -5.79  7.92  2.95
Si  5.79 -7.92 -2.95
Si  6.26 -7.22  3.70
Si  7.27 -5.06 -5.16
Si  8.50  0.36 -5.91
Si -8.50 -0.36  5.91
Si  8.80 -1.82 -5.16
Si -1.05 -10.10 -2.21
Si  3.52  7.17  6.65
Si  0.80  6.45 -8.11
Si -1.03  5.40 -8.86
Si  1.03 -5.40  8.86
Si -3.62  7.17  6.65
Si -4.48  7.89 -5.16
Si  7.83 -3.60  5.91
Si -7.83  3.60 -5.91
Si -3.96  8.97  3.70
Si  7.62 -6.86 -2.21
Si -1.74 -6.50 -8.11
Si  1.83 -6.50 -8.11
Si -0.71 -4.34  9.61
Si -9.06 -1.82 -5.16
Si  4.54  9.33 -2.21
Si  4.38 -1.11  9.61
Si  2.52 -10.10 -2.21
Si -10.41 -2.18  0.75
Si  2.54  5.40 -8.86
Si -2.54 -5.40  8.86
Si -10.71  0.00  0.00
Si 10.71  0.00  0.00
Si -2.78  6.45 -8.11
Si -4.58 -9.71  0.00
Si  4.58  9.71  0.00
Si -6.33 -8.66  0.75
Si -6.16 -5.78  6.65
Si  6.28  8.28 -2.95
Si -6.28 -8.28  2.95
Si  8.28  4.65 -5.16
Si -0.73 10.77  0.75
Si  6.41  3.21 -8.11
Si -8.20 -2.54  6.65
Si 10.67 -0.38 -2.21
Si  2.86 -4.34  9.61
Si -10.37 -1.80  2.95
Si 10.37  1.80 -2.95
Si -4.80  2.13  9.61
Si  9.49 -5.42  0.75
Si -4.97 -8.30 -5.16
Si  6.13 -2.16  8.86
Si -6.13  2.16 -8.86
Si -10.76 -0.38 -2.21
Si  0.30  5.37  9.61
Si  6.30 -6.84  5.91
Si -6.30  6.84 -5.91
Si  0.35 -9.35 -5.91
Si -0.35  9.35  5.91
Si -9.36  0.36 -5.91
Si  9.36 -0.36  5.91
Si -5.10  4.32  8.86
Si  5.10 -4.32 -8.86
Si -6.63  1.08  8.86
Si  6.63 -1.08 -8.86
Si  8.79  5.73  3.70
Si  1.16 -10.46  3.70
Si  6.93 -3.26 -8.11
Si  2.84 10.77  0.75
Si -9.53  5.04 -2.95
Si  9.53 -5.04  2.95
Si -0.56 -1.46 -11.07
Si -0.54 -9.02  6.65
Si  4.37  6.45 -8.11
Si  0.97  1.78 -11.07
Si 11.01 -2.18  0.75
Si  6.24  7.89 -5.16
Si -4.62 -10.10 -2.21
Si  5.75 -8.30 -5.16
Si -5.61 -4.32 -8.86
Si  5.61  4.32  8.86
Si -9.06  5.73  3.70
Si  8.45  7.53  0.75
Si -4.60  5.40 -8.86
Si  4.60 -5.40  8.86
Si -2.41 -10.46  3.70
Si 10.50  4.29  0.75
Si -4.28 -4.34  9.61
Si -6.18  9.33 -2.21
Si -8.03 -7.22  3.70
Si -7.36 -3.26 -8.11
Si -10.07 -3.98  3.70
Si  5.91  2.13  9.61
Si -3.27  5.37  9.61
Si  6.13 -9.71  0.00
Si -6.13  9.71  0.00
Si -10.59  2.49  3.70
Si -2.60  1.78 -11.07
Si  3.22  9.35  5.91
Si -3.22 -9.35 -5.91
Si -6.33 -1.11  9.61
Si -0.69 11.15  2.95
Si  0.69 -11.15 -2.95
Si  3.01 -1.46 -11.07
Si 11.06 -1.80  2.95
Si -11.06  1.80 -2.95
Si  3.03 -9.02  6.65
Si -4.31 10.77  0.75
Si 10.33  1.42 -5.16
Si  0.00 -7.55 -8.86
Si -0.00  7.55  8.86
Si -8.72  3.93  6.65
Si  3.87  5.37  9.61
Si -5.31 -6.50 -8.11
Si  5.40 -6.50 -8.11
Si  8.46 -0.02 -8.11
Si 10.84  2.49  3.70
Si -3.92  9.35  5.91
Si  3.92 -9.35 -5.91
Si  1.21 -10.07  5.91
Si -1.21 10.07 -5.91
Si -7.87  3.21 -8.11
Si  7.66  1.08  8.86
Si -7.66 -1.08 -8.86
Si -10.93  4.29  0.75
Si  7.96 -8.66  0.75
Si  6.75  8.97  3.70
Si -9.57  4.65 -5.16
Si  0.86 -0.72 11.81
Si -0.86  0.72 -11.81
Si -8.00  8.28 -2.95
Si  8.00 -8.28  2.95
Si -2.88 -11.15 -2.95
Si  2.88 11.15  2.95
Si -4.13 -1.46 -11.07
Si 10.54  4.68  2.95
Si -10.54 -4.68 -2.95
Si -0.67 -11.51  2.95
Si  0.67 11.51 -2.95
Si  2.37 10.07 -5.91
Si -2.37 -10.07  5.91
Si -4.11 -9.02  6.65
Si -0.71 -11.90  0.75
Si  9.14  3.93  6.65
Si  8.50  7.92  2.95
Si -8.50 -7.92 -2.95
Si  8.13 -5.78  6.65
Si  6.09 -10.10 -2.21
Si  9.66 -2.54  6.65
Si  6.11  5.40 -8.86
Si -6.11 -5.40  8.86
Si 10.15  6.09 -2.21
Si -7.98 -6.84  5.91
Si  7.98  6.84 -5.91
Si  4.73 -10.46  3.70
Si -9.40  7.53  0.75
Si 10.20  6.48  0.00
Si -10.20 -6.48  0.00
Si  7.09  7.17  6.65
Si  4.54  1.78 -11.07
Si  1.49 -4.70 -11.07
Si  1.19 -2.52 -11.81
Si -1.19  2.52 11.81
Si -7.19  7.17  6.65
Si  2.71  0.72 -11.81
Si -2.71 -0.72 11.81
Si -6.35  6.45 -8.11
Si -3.57 -7.55 -8.86
Si  3.57  7.55  8.86
Si  3.57 -7.55 -8.86
Si -3.57  7.55  8.86
Si -10.03 -3.60  5.91
Si 10.03  3.60 -5.91
Si -1.07  5.01 -11.07
Si -2.08 -4.70 -11.07
Si 10.89 -4.68 -2.95
Si -10.89  4.68  2.95
Si -10.24  0.69  6.65
Si -8.15 -2.16  8.86
Si  8.15  2.16 -8.86
Si  2.90 -11.51  2.95
Si -2.90 11.51 -2.95
Si  2.86 -11.90  0.75
Si  8.84  6.12  5.91
Si -8.84 -6.12 -5.91
Si -7.53  8.97  3.70
Si  0.62 11.13 -5.16
Si -4.26 11.15  2.95
Si  4.26 -11.15 -2.95
Si  1.33 -7.58  9.61
Si  2.38  2.52 11.81
Si -2.38 -2.52 -11.81
Si -11.10  1.42 -5.16
Si  6.43 -4.34  9.61
Si -0.50 -8.64  8.86
Si  0.50  8.64 -8.86
Si -9.02  6.12  5.91
Si  9.02 -6.12 -5.91
Si -8.05  7.89 -5.16
Si  2.50  5.01 -11.07
Si -9.40 -0.02 -8.11
Si -10.54  2.88  5.91
Si 10.54 -2.88 -5.91
Si -2.24 -7.58  9.61
Si  1.48 10.41  6.65
Si  0.67  3.96 -11.81
Si -0.67 -3.96 11.81
Si  7.96 -1.11  9.61
Si -10.24 -6.86 -2.21
Si -12.46  1.05  0.75
Si -2.09 10.41  6.65
Si  6.41 10.77  0.75
Si  8.11  9.33 -2.21
Si 11.36 -3.98  3.70
Si -0.89  0.33 12.56
Si -5.98 -10.46  3.70
Si 12.54  1.05  0.75
Si  9.36 -7.92 -2.95
Si -9.36  7.92  2.95
Si -2.95 11.13 -5.16
Si  4.78 -10.07  5.91
Si -4.78 10.07 -5.91
Si -4.24 -11.51  2.95
Si  4.24 11.51 -2.95
Si  4.43 -0.72 11.81
Si -4.43  0.72 -11.81
Si  0.65 -11.54 -5.16
Si 12.24  3.24  0.00
Si -12.24 -3.24  0.00
