500
set: 166.00  0.00  0.00
Si -0.00 -0.00  0.00
Si  0.00  0.00 -2.35
Si -1.92  1.12  0.78
Si  1.93  1.09  0.81
Si -0.01 -2.23  0.78
Si -1.91 -3.33 -0.00
Si  1.94 -3.33 -0.00
Si  3.86 -0.01 -0.02
Si -1.93  3.34  0.01
Si -1.94  1.11  3.15
Si -3.87  0.01  0.00
Si -1.93 -1.13 -3.16
Si  0.00  2.23 -3.16
Si  0.02 -2.23  3.16
Si  1.94  3.36 -0.00
Si  1.94 -1.10 -3.18
Si  1.96  1.10  3.17
Si  3.85 -2.23  0.79
Si  1.92  3.35 -2.35
Si -3.86  0.01 -2.35
Si -1.91 -1.11  3.95
Si -1.95 -3.33 -2.35
Si  3.86 -0.00 -2.36
Si  1.95 -3.33 -2.36
Si -0.01  2.25  3.93
Si -3.86 -2.24  0.81
Si  0.02  4.47  0.79
Si  1.92 -1.10  3.96
Si -1.95  3.35 -2.38
Si  3.84  2.23 -3.15
Si  3.87 -2.21  3.16
Si  0.01  4.46  3.15
Si -3.86  2.23 -3.16
Si  0.01 -4.47 -3.16
Si -3.88 -2.26  3.15
Si  5.77  1.14  0.79
Si -1.91 -1.12 -5.50
Si -3.86  4.44  0.78
Si -3.86  2.22  3.92
Si -0.01  2.22 -5.51
Si  3.86  4.46  0.76
Si -1.94 -5.58  0.76
Si -0.01 -4.47  3.96
Si  3.88  2.22  3.96
Si  1.93 -5.60  0.78
Si  1.93 -1.12 -5.54
Si -5.82  1.14  0.79
Si -0.02 -2.22 -6.29
Si  3.87  4.43  3.13
Si -5.78 -1.11 -3.14
Si -3.86  4.44  3.14
Si -0.01  6.68  0.01
Si  5.78 -3.35  0.01
Si -0.00 -6.68 -0.02
Si  1.94  5.57 -3.15
Si  5.78  1.13  3.17
Si  3.87 -4.46 -3.15
Si -1.93 -1.11  6.31
Si -3.85 -4.47 -3.15
Si  5.79  3.35 -0.02
Si -1.93  5.58 -3.15
Si  1.94 -1.12  6.31
Si -5.79  3.35 -0.02
Si  5.81 -1.11 -3.14
Si  1.93  1.10 -6.32
Si  1.93 -5.59  3.14
Si -1.92 -5.60  3.13
Si  0.01  2.23  6.32
Si -1.92  1.09 -6.33
Si -5.81 -3.35  0.01
Si -5.81  1.13  3.17
Si -1.92  5.57  3.91
Si  5.77 -3.34 -2.36
Si  5.79  3.34 -2.35
Si -5.79 -1.11  3.93
Si  3.87 -4.47  3.91
Si -0.01 -6.69 -2.35
Si  5.80 -1.11  3.93
Si -5.80  3.34 -2.35
Si  1.91  5.58  3.94
Si -0.03  0.01  7.10
Si -0.03  6.70 -2.36
Si  0.01 -4.46 -5.53
Si -3.88 -4.45  3.94
Si -3.88  2.24 -5.52
Si -5.82 -3.34 -2.36
Si  3.87  2.22 -5.55
Si -3.83 -2.25 -6.29
Si -3.86  2.24  6.28
Si -3.85 -6.68 -0.00
Si  0.02  4.46 -6.30
Si  0.00 -4.46  6.30
Si  7.72  0.01  0.00
Si  3.87  2.22  6.30
Si  3.86 -2.24 -6.31
Si  3.86 -6.69  0.01
Si -7.73 -0.01 -0.02
Si -3.85  6.71 -0.00
Si  3.88  6.70 -0.00
Si -5.77 -5.56  0.79
Si -3.87 -4.44 -5.50
Si  7.72  0.01 -2.35
Si  1.94  7.79  0.81
Si  3.85 -6.69 -2.38
Si -1.95 -3.34  7.09
Si -3.84  0.01  7.10
Si  1.92  5.59 -5.50
Si -1.91  5.58 -5.51
Si  3.84  6.70 -2.35
Si -7.72 -0.00 -2.36
Si -3.84  6.70 -2.36
Si  5.79 -1.10 -5.53
Si -3.87 -6.69 -2.35
Si  3.84  0.01  7.11
Si  3.88 -4.45 -5.51
Si -1.95  7.80  0.79
Si -1.93  3.34  7.10
Si  5.81 -5.56  0.79
Si  1.92 -3.34  7.11
Si -5.80 -1.10 -5.53
Si  7.73 -2.24  0.81
Si -7.74 -2.23  0.79
Si  1.93  3.35  7.12
Si  1.91  7.78  3.15
Si -1.93 -5.55 -6.30
Si -5.78  5.56 -3.16
Si  7.70 -2.26  3.15
Si -5.78 -5.57  3.15
Si -3.86 -4.46  6.30
Si -5.78 -1.13  6.30
Si -5.78  1.12 -6.31
Si -7.72 -2.21  3.16
Si  3.84 -4.46  6.31
Si -3.88  4.43 -6.31
Si  1.93  5.58  6.30
Si  1.93 -7.80 -3.16
Si  5.81  5.56 -3.16
Si -1.95 -7.81 -3.15
Si  7.73  2.23 -3.16
Si -1.95  5.57  6.31
Si  3.87  4.48 -6.30
Si  5.81 -1.13  6.30
Si  5.81 -5.57  3.15
Si  5.81  1.12 -6.31
Si  1.91 -5.60 -6.31
Si -7.75  2.23 -3.15
Si -1.93  7.83  3.16
Si -0.03 -8.89  0.79
Si  7.72  2.22  3.92
Si -7.71  2.22  3.96
Si  7.73  4.44  0.78
Si -0.03 -2.20 -8.67
Si  1.93 -7.81  3.92
Si  5.79  5.57  3.96
Si -7.73  4.46  0.76
Si  1.93  1.09 -8.68
Si -5.80  5.57  3.96
Si -1.91 -7.82  3.96
Si -1.94  1.11 -8.70
Si -7.72  4.43  3.13
Si  7.72  4.44  3.14
Si -7.72 -4.46 -3.15
Si -0.02 -8.91  3.17
Si  0.01  8.93 -3.14
Si -0.01 -0.01  9.47
Si  7.74 -4.47 -3.15
Si -0.00  0.01 -9.48
Si -7.71 -4.47  3.91
Si  7.71 -4.45  3.94
Si  7.71  2.24 -5.52
Si  1.91 -7.80 -5.52
Si -3.87 -2.26 -8.66
Si  3.88 -8.91  0.78
Si  5.79  7.81  0.78
Si  0.01  8.92  3.93
Si -9.66  1.09  0.81
Si -5.79  5.58 -5.53
Si -5.80  7.81  0.78
Si -0.01  4.46 -8.68
Si  5.79 -3.35  7.11
Si -0.01  6.69  7.11
Si -7.71  2.22 -5.55
Si  5.80  5.58 -5.53
Si  3.88 -2.22 -8.68
Si -5.79  3.35  7.12
Si  0.00 -6.69  7.12
Si -5.80 -3.35  7.11
Si  9.67  1.12  0.78
Si  5.79  3.35  7.12
Si -1.92 -7.81 -5.55
Si -3.87 -8.95  0.81
Si -9.63  1.10  3.17
Si  1.94 -7.79  6.28
Si -1.94  3.34  9.44
Si -5.77 -5.57 -6.30
Si  1.96  7.79 -6.29
Si -9.65 -3.33 -0.00
Si  7.73  2.24  6.28
Si  1.93 -10.03  0.00
Si -9.64  3.36 -0.00
Si -7.72  2.22  6.30
Si -5.77  7.81  3.16
Si  3.86 -0.00 -9.45
Si -5.79  5.58  6.30
Si  3.87  8.91 -3.16
Si  1.93 -3.34 -9.46
Si -1.94 10.03 -0.02
Si -1.94  7.80 -6.31
Si  9.65  1.11  3.15
Si -7.71  6.70 -0.00
Si -3.85  0.01 -9.46
Si -3.85  0.02  9.46
Si  1.94 -3.33  9.46
Si  9.65  3.34  0.01
Si  5.80  5.58  6.30
Si -5.79 -7.80 -3.16
Si  7.74 -6.68 -0.00
Si -7.73 -6.69  0.01
Si  3.88  0.01  9.46
Si -9.65 -1.10 -3.18
Si -7.73 -2.24 -6.31
Si  3.86 -8.93  3.15
Si  1.93  3.35  9.46
Si  5.80 -7.80 -3.16
Si -1.91  3.36 -9.46
Si  5.81 -5.57 -6.30
Si -1.93 -7.82  6.30
Si  9.66 -1.13 -3.16
Si -1.94 -10.04 -0.02
Si  1.94  3.36 -9.46
Si -1.93 -3.35  9.47
Si  1.93 10.04  0.00
Si -3.83 -8.94  3.17
Si  9.67 -3.33 -0.00
Si -3.86  8.93 -3.18
Si  7.75 -2.25 -6.29
Si  5.82  7.81  3.16
Si  7.73  6.71 -0.00
Si -1.94 -3.35 -9.48
Si  9.63 -3.33 -2.35
Si  7.72 -4.44 -5.50
Si -9.63 -3.33 -2.36
Si -3.86  4.45 -8.65
Si -7.70 -4.45 -5.51
Si  5.79 -7.79  3.93
Si  1.93 -10.03 -2.35
Si -5.80 -7.79  3.93
Si  7.71 -6.69 -2.35
Si  9.64  3.35 -2.38
Si  3.85  6.69  7.09
Si  1.94 -5.59 -8.65
Si -5.77  1.13 -8.67
Si -1.93 10.03 -2.36
Si  0.02 -2.22 10.25
Si  3.85  4.46 -8.68
Si -1.95  1.11 10.25
Si -1.93 -10.04 -2.36
Si  1.93 10.04 -2.35
Si -1.95 -5.58 -8.68
Si -9.67  3.35 -2.35
Si  3.86 -6.69  7.10
Si -3.86 -6.68  7.12
Si -7.74 -6.69 -2.38
Si -3.87  6.69  7.11
Si  5.81  1.13 -8.67
Si -9.66 -1.10  3.96
Si  3.88  8.93  3.95
Si  1.94  1.10 10.27
Si -0.01  8.94 -5.53
Si  7.75  0.01  7.10
Si  9.68 -1.11  3.95
Si  7.75  6.70 -2.36
Si -7.75  6.70 -2.35
Si -7.75  0.01  7.11
Si -3.87  8.94  3.96
Si  7.70  4.43 -6.31
Si  0.01  8.90  6.30
Si  7.73 -4.46  6.30
Si  0.01 -8.92 -6.31
Si -7.72  4.48 -6.30
Si -7.75 -4.46  6.31
Si  3.86 -2.23 10.22
Si  3.88  8.91 -5.50
Si  9.65 -5.58  0.76
Si  5.79 -7.81 -5.51
Si -3.86 -2.25 10.24
Si -5.80 -7.81 -5.51
Si -3.86  8.91 -5.54
Si  9.67 -1.12 -5.50
Si -0.03  4.49 10.25
Si -9.65 -5.60  0.78
Si -9.66 -1.12 -5.54
Si -0.03 11.18  0.79
Si  5.79 -3.34  9.44
Si -5.79 -3.34  9.44
Si  5.78  3.34 -9.46
Si -0.00  6.70  9.44
Si -9.65  5.57 -3.15
Si  5.78  7.82 -6.29
Si -3.85  8.91  6.31
Si -9.65 -1.12  6.31
Si  0.01 -11.14 -3.14
Si -5.78 -7.80  6.32
Si -0.00  6.69 -9.46
Si  5.79 10.03  0.00
Si -5.79 10.03  0.00
Si  5.79 -3.35 -9.46
Si -5.79 -3.35 -9.46
Si 11.59 -0.00  0.00
Si -5.81  3.34 -9.46
Si -11.59 -0.00  0.00
Si -0.01 -6.70 -9.46
Si  5.79  3.34  9.46
Si -5.79  3.34  9.46
Si  5.79 -10.04  0.00
Si  9.66 -1.11  6.31
Si -5.79 -10.04  0.00
Si  9.66  5.58 -3.15
Si -0.00 -6.69  9.46
Si -5.81  7.82 -6.29
Si  3.87  8.92  6.31
Si -9.66  1.10 -6.32
Si -9.66 -5.59  3.14
Si  5.81 -7.80  6.32
Si  9.66 -5.60  3.13
Si  9.66  1.09 -6.33
Si -0.02 11.16  3.17
Si -3.86 -8.94 -6.32
Si  3.87 -8.95 -6.33
Si  1.93  7.78 -8.66
Si -3.87 11.12  0.81
Si -7.71 -8.91  0.78
Si -1.92 -5.57 10.24
Si -0.01 -0.00 -11.81
Si  7.72 -2.26 -8.66
Si 11.58 -2.23  0.78
Si  5.79  1.12 10.24
Si -11.59  0.00 -2.35
Si  9.67  5.57  3.91
Si -5.79 -10.04 -2.35
Si  0.01 -11.15  3.93
Si -5.79 10.04 -2.35
Si -7.71 -2.22 -8.68
Si  5.79 -10.04 -2.35
Si  5.79 10.04 -2.35
Si 11.59  0.00 -2.35
Si  5.79 -5.57 -8.68
Si -5.80  1.12 10.24
Si  3.88  4.47 10.24
Si -3.87  4.43 10.27
Si -11.60 -2.23  0.78
Si -5.80 -5.57 -8.68
Si -1.92  7.81 -8.68
Si  3.88 11.16  0.78
Si  7.72 -8.95  0.81
Si -9.67  5.58  3.94
Si  1.93 -5.60 10.27
Si -3.83 11.13  3.17
Si -11.57 -2.23  3.16
Si  3.86 -6.70  9.44
Si -7.71  0.01  9.46
Si -3.86 -6.67 -9.46
Si -7.72  8.91 -3.16
Si  3.86 11.14  3.15
Si -7.73 -0.00 -9.45
Si -3.86 -11.14 -3.18
Si -11.58  2.23 -3.16
Si -3.87 -6.68  9.46
Si  3.88 -6.68 -9.46
Si -3.85  6.70  9.46
Si  3.86  6.69  9.47
Si  7.73  0.02  9.46
Si -3.87  6.70 -9.46
Si 11.59  2.23 -3.16
Si -7.73 -8.93  3.15
Si  7.74  0.01 -9.46
Si  3.86  6.68 -9.48
Si  3.87 -11.16 -3.16
Si  7.73  8.93 -3.18
Si 11.61 -2.23  3.16
Si  7.75 -8.94  3.17
Si  1.93 -3.34 -11.81
Si  9.64 -3.34  7.09
Si -11.57  4.47  0.79
Si  7.73  4.45 -8.65
Si  9.64  7.80  0.79
Si -0.01 -11.13 -5.53
Si -9.65  7.79  0.81
Si -3.87  0.00 -11.81
Si  0.02 -8.91 -8.67
Si -7.70  8.93  3.95
Si 11.58  2.25  3.93
Si -3.87 -11.13  3.96
Si -1.93 -3.35 -11.82
Si -1.95  3.36 -11.81
Si  1.95 -10.02  7.10
Si -1.95 -10.02  7.11
Si  1.95  3.36 -11.82
Si  7.71  6.69  7.11
Si -1.95 -12.27  0.79
Si  3.88 -11.14  3.95
Si  9.66  3.34  7.10
Si -7.74  6.69  7.09
Si -9.66  5.59 -5.50
Si  3.85  0.00 -11.84
Si  7.72 -6.68  7.12
Si -11.59  2.25  3.93
Si -7.72 -6.69  7.10
Si -7.74  4.46 -8.68
Si  1.94 -12.28  0.81
Si  7.72  8.94  3.96
Si -9.67 -3.34  7.11
Si -9.66  3.35  7.12
Si  1.95 10.05  7.10
Si  9.68  5.58 -5.51
Si -1.95 10.05  7.11
Si 11.61  4.47  0.79
Si -1.93 -12.24  3.16
Si  9.63 -7.81 -3.15
Si  9.63  5.57  6.31
Si -11.57  4.46  3.15
Si  9.66 -5.55 -6.30
Si -11.57 -4.47 -3.16
Si -9.65  5.58  6.30
Si  1.91  1.09 12.62
Si -9.65 -7.80 -3.16
Si  0.01 -2.23 12.61
Si -1.95 -1.12 -12.61
Si -9.68  7.78  3.15
Si -1.95 12.26 -3.15
Si  0.01  2.21 -12.62
Si  0.01 11.15 -6.31
Si  1.93 12.27 -3.16
Si  1.93 -1.11 -12.62
Si -1.93  1.14 12.62
Si  0.01 -11.16  6.30
Si 11.60  4.46  3.15
Si 11.60 -4.47 -3.16
Si  9.66  7.83  3.16
Si  1.91 -12.29  3.15
Si -9.68 -5.60 -6.31
Si -7.71  8.91 -5.50
Si  5.77 -5.55 10.25
Si  1.93  7.78 10.24
Si -1.94  7.80 10.22
Si -7.73 -2.23 10.22
Si  1.93 12.26  3.92
Si 11.58  2.22 -5.51
Si -1.91 12.26  3.96
Si  7.73 -2.25 10.24
Si -9.66 -7.81  3.92
Si 11.58 -4.47  3.96
Si -11.59  2.22 -5.51
Si -5.82 -5.55 10.25
Si -9.65  1.09 -8.68
Si  7.72  8.91 -5.54
Si  5.77  7.83 -8.67
Si  3.88 -11.16 -5.50
Si  9.65  1.11 -8.70
Si -11.59 -4.47  3.96
Si  3.86 -8.92 -8.70
Si -3.87 -11.16 -5.54
Si -3.86 -8.94 -8.68
Si  9.67 -7.82  3.96
Si -5.82  7.83 -8.67
Si 11.57 -2.22 -6.29
Si 11.57  6.68  0.01
Si  3.87 -2.26 12.59
Si  0.01 -4.46 -12.60
Si -3.86 11.13 -6.32
Si  3.87 11.12 -6.33
Si -3.86 -2.25 12.60
Si -11.57  2.23  6.32
Si 11.59 -6.68 -0.02
Si -3.85  2.22 -12.62
Si  3.87 -11.15  6.31
Si -11.59 -6.68 -0.02
Si  3.87  2.23 -12.61
Si  7.74  8.91  6.31
Si -7.72  8.92  6.31
Si -11.60 -2.22 -6.29
Si -3.85 -11.16  6.31
Si -0.00 13.38 -0.02
Si -11.60  6.68  0.01
Si -0.01 -13.39  0.01
Si  7.72 -8.94 -6.32
Si 11.60  2.23  6.32
Si -7.72 -8.95 -6.33
Si -0.02  4.47 12.64
Si -1.92 -1.12 13.37
Si  7.72 11.12  0.81
Si 11.56  0.01  7.10
Si 11.56  6.70 -2.36
Si -5.79 -3.35 -11.81
Si  0.00  6.69 -11.81
Si  5.79 -3.35 -11.81
Si -13.50  1.12  0.78
Si -7.71  4.47 10.24
Si  5.77 -10.03  7.10
Si  5.77  3.35 -11.82
