500
set: 1297.00  0.00  0.00
Si  2.36  0.00  0.00
Si -1.18  2.04  0.00
Si  1.18  2.04  0.00
Si -2.36  0.00  0.00
Si  1.18 -2.04  0.00
Si -1.18 -2.04  0.00
Si -3.70  0.74  1.79
Si  2.49 -2.83 -1.79
Si  1.21 -3.57  1.79
Si -1.21 -3.57  1.79
Si -3.70 -0.74 -1.79
Si -2.49 -2.83 -1.79
Si  2.49  2.83  1.79
Si -2.49  2.83  1.79
Si  3.70  0.74  1.79
Si  3.70 -0.74 -1.79
Si  1.21  3.57 -1.79
Si -1.21  3.57 -1.79
Si  2.49 -2.83  3.65
Si -3.70 -0.74  3.65
Si -2.49 -2.83  3.65
Si -3.70  0.74 -3.65
Si  1.21 -3.57 -3.65
Si -1.21 -3.57 -3.65
Si  3.70 -0.74  3.65
Si  1.21  3.57  3.65
Si -1.21  3.57  3.65
Si  2.49  2.83 -3.65
Si -2.49  2.83 -3.65
Si  3.70  0.74 -3.65
Si  2.36 -0.00 -5.45
Si  2.36  0.00  5.45
Si -1.18  2.04 -5.45
Si  1.18  2.04 -5.45
Si -1.18  2.04  5.45
Si  1.18  2.04  5.45
Si -2.36  0.00  5.45
Si -2.36 -0.00 -5.45
Si  1.18 -2.04 -5.45
Si  1.18 -2.04  5.45
Si -1.18 -2.04  5.45
Si -1.18 -2.04 -5.45
Si  2.28 -5.50  0.91
Si -5.91 -0.78 -0.91
Si -2.28 -5.50  0.91
Si -3.62 -4.73 -0.91
Si -3.62  4.73  0.91
Si  3.62  4.73  0.91
Si  2.28  5.50 -0.91
Si  5.91 -0.78 -0.91
Si  5.91  0.78  0.91
Si -2.28  5.50 -0.91
Si -5.91  0.78  0.91
Si  3.62 -4.73 -0.91
Si -5.91 -0.78  4.54
Si  2.28 -5.50 -4.54
Si -3.62 -4.73  4.54
Si -2.28 -5.50 -4.54
Si  2.28  5.50  4.54
Si  5.91 -0.78  4.54
Si -3.62  4.73 -4.54
Si  3.62  4.73 -4.54
Si -2.28  5.50  4.54
Si  5.91  0.78 -4.54
Si  3.62 -4.73  4.54
Si -5.91  0.78 -4.54
Si  7.04  2.67  0.02
Si  1.21  7.43 -0.02
Si -1.21  7.43 -0.02
Si  5.83  4.76  0.02
Si -5.83  4.76  0.02
Si  7.04 -2.67 -0.02
Si  1.21 -7.43  0.02
Si -1.21 -7.43  0.02
Si  5.83 -4.76 -0.02
Si -7.04  2.67  0.02
Si -5.83 -4.76 -0.02
Si -7.04 -2.67 -0.02
Si -3.62  6.28 -2.72
Si  3.62  6.28 -2.72
Si  3.62 -6.28 -2.72
Si -3.62 -6.28 -2.72
Si -3.62  6.28  2.72
Si  3.62  6.28  2.72
Si  7.25 -0.00 -2.72
Si  3.62 -6.28  2.72
Si -3.62 -6.28  2.72
Si -7.25 -0.00 -2.72
Si  7.25  0.00  2.72
Si -7.25  0.00  2.72
Si -3.70  0.74  7.24
Si  1.21 -3.57  7.24
Si -1.21 -3.57  7.24
Si  2.49 -2.83 -7.24
Si  2.49  2.83  7.24
Si -2.49  2.83  7.24
Si -3.70 -0.74 -7.24
Si -2.49 -2.83 -7.24
Si  3.70  0.74  7.24
Si  3.70 -0.74 -7.24
Si  1.21  3.57 -7.24
Si -1.21  3.57 -7.24
Si  2.28 -5.50  6.35
Si -5.91 -0.78 -6.35
Si -2.28 -5.50  6.35
Si -3.62 -4.73 -6.35
Si -3.62  4.73  6.35
Si  3.62  4.73  6.35
Si  2.28  5.50 -6.35
Si  5.91 -0.78 -6.35
Si  5.91  0.78  6.35
Si -2.28  5.50 -6.35
Si -5.91  0.78  6.35
Si  3.62 -4.73 -6.35
Si -5.83 -6.25  1.84
Si -5.83  6.25 -1.84
Si  2.49 -8.17 -1.84
Si -2.49 -8.17 -1.84
Si  8.32 -1.93  1.84
Si -8.32 -1.93  1.84
Si  5.83 -6.25  1.84
Si -8.32  1.93 -1.84
Si  2.49  8.17  1.84
Si  5.83  6.25 -1.84
Si -2.49  8.17  1.84
Si  8.32  1.93 -1.84
Si  7.17 -5.50 -1.81
Si -8.35  3.46  1.81
Si -8.35 -3.46 -1.81
Si -7.17 -5.50 -1.81
Si  1.18 -8.96  1.81
Si -1.18 -8.96  1.81
Si -1.18  8.96 -1.81
Si  1.18  8.96 -1.81
Si  7.17  5.50  1.81
Si  8.35  3.46  1.81
Si  8.35 -3.46 -1.81
Si -7.17  5.50  1.81
Si -5.83 -6.25 -3.61
Si -5.83  6.25  3.61
Si  2.49 -8.17  3.61
Si -2.49 -8.17  3.61
Si  8.32 -1.93 -3.61
Si -8.32 -1.93 -3.61
Si  5.83 -6.25 -3.61
Si -8.32  1.93  3.61
Si  2.49  8.17 -3.61
Si  5.83  6.25  3.61
Si -2.49  8.17 -3.61
Si  8.32  1.93  3.61
Si -1.21  7.43  5.42
Si  1.21  7.43  5.42
Si  7.04 -2.67  5.42
Si  7.04  2.67 -5.42
Si  5.83  4.76 -5.42
Si -5.83  4.76 -5.42
Si  5.83 -4.76  5.42
Si -5.83 -4.76  5.42
Si -7.04 -2.67  5.42
Si  1.21 -7.43 -5.42
Si -1.21 -7.43 -5.42
Si -7.04  2.67 -5.42
Si  7.04  2.67  5.47
Si  5.83  4.76  5.47
Si -5.83  4.76  5.47
Si -1.21  7.43 -5.47
Si  1.21  7.43 -5.47
Si  7.04 -2.67 -5.47
Si  1.21 -7.43  5.47
Si -1.21 -7.43  5.47
Si -7.04  2.67  5.47
Si  5.83 -4.76 -5.47
Si -5.83 -4.76 -5.47
Si -7.04 -2.67 -5.47
Si -8.35  3.46 -3.63
Si  7.17 -5.50  3.63
Si  1.18 -8.96 -3.63
Si -1.18 -8.96 -3.63
Si -8.35 -3.46  3.63
Si -7.17 -5.50  3.63
Si  7.17  5.50 -3.63
Si  8.35  3.46 -3.63
Si  1.18  8.96  3.63
Si -1.18  8.96  3.63
Si -7.17  5.50 -3.63
Si  8.35 -3.46  3.63
Si  2.49 -2.83  9.10
Si -3.70 -0.74  9.10
Si -2.49 -2.83  9.10
Si -3.70  0.74 -9.10
Si  3.70 -0.74  9.10
Si  1.21  3.57  9.10
Si -1.21  3.57  9.10
Si  1.21 -3.57 -9.10
Si -1.21 -3.57 -9.10
Si  2.49  2.83 -9.10
Si -2.49  2.83 -9.10
Si  3.70  0.74 -9.10
Si -3.62  6.28 -8.17
Si  3.62  6.28 -8.17
Si  3.62 -6.28 -8.17
Si -3.62 -6.28 -8.17
Si  7.25 -0.00 -8.17
Si -7.25 -0.00 -8.17
Si -3.62  6.28  8.17
Si  3.62  6.28  8.17
Si  3.62 -6.28  8.17
Si -3.62 -6.28  8.17
Si  7.25  0.00  8.17
Si -7.25  0.00  8.17
Si -10.74  1.93 -1.84
Si  7.04 -8.33  1.84
Si -3.70 -10.26 -1.84
Si -7.04 -8.33  1.84
Si 10.74  1.93 -1.84
Si -3.70 10.26  1.84
Si 10.74 -1.93  1.84
Si  7.04  8.33 -1.84
Si -10.74 -1.93  1.84
Si -7.04  8.33 -1.84
Si  3.70 -10.26 -1.84
Si  3.70 10.26  1.84
Si  2.36 -0.00 -10.89
Si  2.36  0.00 10.89
Si  1.18  2.04 -10.89
Si -1.18  2.04 -10.89
Si -1.18  2.04 10.89
Si  1.18  2.04 10.89
Si -2.36 -0.00 -10.89
Si -2.36  0.00 10.89
Si  1.18 -2.04 -10.89
Si  1.18 -2.04 10.89
Si -1.18 -2.04 10.89
Si -1.18 -2.04 -10.89
Si -5.83 -6.25  7.28
Si -5.83  6.25 -7.28
Si  2.49 -8.17 -7.28
Si -2.49 -8.17 -7.28
Si  8.32 -1.93  7.28
Si -8.32 -1.93  7.28
Si  5.83 -6.25  7.28
Si -8.32  1.93 -7.28
Si  2.49  8.17  7.28
Si  5.83  6.25 -7.28
Si -2.49  8.17  7.28
Si  8.32  1.93 -7.28
Si -10.71 -3.46 -1.81
Si  2.36 -11.01  1.81
Si  8.35 -7.54 -1.81
Si -8.35 -7.54 -1.81
Si -10.71  3.46  1.81
Si -2.36 -11.01  1.81
Si  2.36 11.01 -1.81
Si 10.71 -3.46 -1.81
Si  8.35  7.54  1.81
Si -8.35  7.54  1.81
Si -2.36 11.01 -1.81
Si 10.71  3.46  1.81
Si -10.74  1.93  3.61
Si  7.04 -8.33 -3.61
Si -3.70 -10.26  3.61
Si -7.04 -8.33 -3.61
Si 10.74  1.93  3.61
Si -3.70 10.26 -3.61
Si 10.74 -1.93 -3.61
Si  7.04  8.33  3.61
Si -10.74 -1.93 -3.61
Si -7.04  8.33  3.61
Si  3.70 -10.26  3.61
Si  3.70 10.26 -3.61
Si  7.17 -5.50 -7.26
Si -8.35  3.46  7.26
Si -8.35 -3.46 -7.26
Si -7.17 -5.50 -7.26
Si -1.18  8.96 -7.26
Si  1.18  8.96 -7.26
Si  1.18 -8.96  7.26
Si -1.18 -8.96  7.26
Si  7.17  5.50  7.26
Si  8.35  3.46  7.26
Si  8.35 -3.46 -7.26
Si -7.17  5.50  7.26
Si -5.91 -0.78  9.98
Si  2.28 -5.50 -9.98
Si -3.62 -4.73  9.98
Si  2.28  5.50  9.98
Si  5.91 -0.78  9.98
Si -2.28 -5.50 -9.98
Si -3.62  4.73 -9.98
Si -2.28  5.50  9.98
Si  3.62  4.73 -9.98
Si  5.91  0.78 -9.98
Si  3.62 -4.73  9.98
Si -5.91  0.78 -9.98
Si  2.36 -11.01 -3.63
Si -10.71 -3.46  3.63
Si -10.71  3.46 -3.63
Si -2.36 -11.01 -3.63
Si  8.35 -7.54  3.63
Si -8.35 -7.54  3.63
Si  8.35  7.54 -3.63
Si -8.35  7.54 -3.63
Si  2.36 11.01  3.63
Si 10.71 -3.46  3.63
Si 10.71  3.46 -3.63
Si -2.36 11.01  3.63
Si 11.81 -0.00 -2.72
Si 11.81  0.00  2.72
Si -11.81 -0.00 -2.72
Si -11.81  0.00  2.72
Si -5.91 10.23 -2.72
Si  5.91 10.23 -2.72
Si  5.91 -10.23 -2.72
Si -5.91 -10.23 -2.72
Si -5.91 10.23  2.72
Si  5.91 10.23  2.72
Si  5.91 -10.23  2.72
Si -5.91 -10.23  2.72
Si 12.02 -2.67 -0.02
Si 12.02  2.67  0.02
Si  8.32  9.08  0.02
Si -3.70 11.75 -0.02
Si  3.70 11.75 -0.02
Si -8.32  9.08  0.02
Si  3.70 -11.75  0.02
Si -3.70 -11.75  0.02
Si -12.02 -2.67 -0.02
Si -12.02  2.67  0.02
Si  8.32 -9.08 -0.02
Si -8.32 -9.08 -0.02
Si -5.83 -6.25 -9.05
Si -5.83  6.25  9.05
Si  2.49 -8.17  9.05
Si -2.49 -8.17  9.05
Si  8.32 -1.93 -9.05
Si -8.32 -1.93 -9.05
Si  5.83 -6.25 -9.05
Si -8.32  1.93  9.05
Si  2.49  8.17 -9.05
Si  5.83  6.25  9.05
Si -2.49  8.17 -9.05
Si  8.32  1.93  9.05
Si -8.35  3.46 -9.07
Si  7.17 -5.50  9.07
Si  1.18 -8.96 -9.07
Si -1.18 -8.96 -9.07
Si  7.17  5.50 -9.07
Si  8.35  3.46 -9.07
Si -8.35 -3.46  9.07
Si -7.17 -5.50  9.07
Si  1.18  8.96  9.07
Si -1.18  8.96  9.07
Si -7.17  5.50 -9.07
Si  8.35 -3.46  9.07
Si -10.74  1.93 -7.28
Si  7.04 -8.33  7.28
Si -3.70 -10.26 -7.28
Si -7.04 -8.33  7.28
Si 10.74  1.93 -7.28
Si -3.70 10.26  7.28
Si 10.74 -1.93  7.28
Si  7.04  8.33 -7.28
Si -10.74 -1.93  7.28
Si -7.04  8.33 -7.28
Si  3.70 -10.26 -7.28
Si  3.70 10.26  7.28
Si 13.15  0.78  0.91
Si -5.91 11.78 -0.91
Si -13.15  0.78  0.91
Si  7.25 -11.01 -0.91
Si  7.25 11.01  0.91
Si  5.91 11.78 -0.91
Si -5.91 -11.78  0.91
Si  5.91 -11.78  0.91
Si -13.15 -0.78 -0.91
Si -7.25 -11.01 -0.91
Si -7.25 11.01  0.91
Si 13.15 -0.78 -0.91
Si  2.28 -5.50 11.80
Si -5.91 -0.78 -11.80
Si -2.28 -5.50 11.80
Si -3.62  4.73 11.80
Si  3.62  4.73 11.80
Si -3.62 -4.73 -11.80
Si  5.91  0.78 11.80
Si  2.28  5.50 -11.80
Si  5.91 -0.78 -11.80
Si -2.28  5.50 -11.80
Si -5.91  0.78 11.80
Si  3.62 -4.73 -11.80
Si  1.21  7.43 10.87
Si -1.21  7.43 10.87
Si  7.04 -2.67 10.87
Si  7.04  2.67 -10.87
Si  5.83  4.76 -10.87
Si -5.83  4.76 -10.87
Si  5.83 -4.76 10.87
Si -5.83 -4.76 10.87
Si -7.04 -2.67 10.87
Si  1.21 -7.43 -10.87
Si -1.21 -7.43 -10.87
Si -7.04  2.67 -10.87
Si -1.18 13.05 -1.81
Si 11.89  5.50  1.81
Si 11.89 -5.50 -1.81
Si  1.18 13.05 -1.81
Si 10.71  7.54  1.81
Si -10.71  7.54  1.81
Si 10.71 -7.54 -1.81
Si -10.71 -7.54 -1.81
Si -11.89  5.50  1.81
Si -1.18 -13.05  1.81
Si -11.89 -5.50 -1.81
Si  1.18 -13.05  1.81
Si -3.70  0.74 12.68
Si  1.21 -3.57 12.68
Si -1.21 -3.57 12.68
Si  2.49  2.83 12.68
Si -2.49  2.83 12.68
Si  3.70  0.74 12.68
Si  2.49 -2.83 -12.68
Si -3.70 -0.74 -12.68
Si -2.49 -2.83 -12.68
Si  3.70 -0.74 -12.68
Si  1.21  3.57 -12.68
Si -1.21  3.57 -12.68
Si  7.04  2.67 10.91
Si  5.83  4.76 10.91
Si -5.83  4.76 10.91
Si  1.21  7.43 -10.91
Si -1.21  7.43 -10.91
Si  7.04 -2.67 -10.91
Si  1.21 -7.43 10.91
Si -1.21 -7.43 10.91
Si -7.04  2.67 10.91
Si  5.83 -4.76 -10.91
Si -5.83 -4.76 -10.91
Si -7.04 -2.67 -10.91
Si -10.71 -3.46 -7.26
Si  2.36 -11.01  7.26
Si  8.35 -7.54 -7.26
Si -8.35 -7.54 -7.26
Si -10.71  3.46  7.26
Si -2.36 -11.01  7.26
Si  2.36 11.01 -7.26
Si 10.71 -3.46 -7.26
Si  8.35  7.54  7.26
Si -8.35  7.54  7.26
Si -2.36 11.01 -7.26
Si 10.71  3.46  7.26
Si 12.02 -2.67  5.42
Si -3.70 11.75  5.42
Si  3.70 11.75  5.42
Si 12.02  2.67 -5.42
Si  8.32  9.08 -5.42
Si -8.32  9.08 -5.42
Si -12.02 -2.67  5.42
Si  8.32 -9.08  5.42
Si -8.32 -9.08  5.42
Si  3.70 -11.75 -5.42
Si -3.70 -11.75 -5.42
Si -12.02  2.67 -5.42
Si 12.02  2.67  5.47
Si  8.32  9.08  5.47
Si -8.32  9.08  5.47
Si 12.02 -2.67 -5.47
Si  3.70 11.75 -5.47
Si -3.70 11.75 -5.47
Si  3.70 -11.75  5.47
Si -3.70 -11.75  5.47
Si -12.02  2.67  5.47
Si -12.02 -2.67 -5.47
Si  8.32 -9.08 -5.47
Si -8.32 -9.08 -5.47
Si 11.89  5.50 -3.63
Si -1.18 13.05  3.63
Si 10.71  7.54 -3.63
Si -10.71  7.54 -3.63
Si 11.89 -5.50  3.63
Si  1.18 13.05  3.63
Si -11.89  5.50 -3.63
Si -1.18 -13.05 -3.63
Si 10.71 -7.54  3.63
Si -10.71 -7.54  3.63
Si  1.18 -13.05 -3.63
Si -11.89 -5.50  3.63
Si -5.91 11.78  4.54
Si 13.15  0.78 -4.54
Si  7.25 -11.01  4.54
Si -13.15  0.78 -4.54
Si  5.91 11.78  4.54
Si  7.25 11.01 -4.54
Si -13.15 -0.78  4.54
Si -7.25 -11.01  4.54
Si -5.91 -11.78 -4.54
Si  5.91 -11.78 -4.54
Si 13.15 -0.78  4.54
Si -7.25 11.01 -4.54
Si  2.49 -13.84  0.02
Si  2.49 13.84 -0.02
