500
set: 1494.00  0.00  0.00
Si -1.08 -0.67  0.32
Si  1.01  0.85 -0.01
Si  0.53 -2.25  0.06
Si  2.53  0.44  1.57
Si  2.04  0.20 -2.20
Si -2.40 -1.74 -1.32
Si  2.24 -1.77  1.60
Si  1.75 -2.00 -2.17
Si -1.91 -1.50  2.45
Si  1.76  2.98  0.42
Si  0.52  0.62 -3.77
Si -1.56 -0.91 -3.44
Si -1.69 -3.37  1.12
Si -1.89  3.50  0.06
Si -0.59 -0.44  4.09
Si  1.50  1.08  3.76
Si -0.17  3.99  1.60
Si -0.66  3.75 -2.17
Si  1.01 -2.02  3.83
Si  0.04 -2.49 -3.71
Si  1.28  2.75 -3.35
Si  4.02  2.39  1.12
Si -3.95 -2.77  0.42
Si -4.10  2.39  1.12
Si  3.53  2.15 -2.65
Si -2.18 -3.60 -2.65
Si  4.17 -2.77  0.42
Si  3.32  4.02 -1.32
Si -2.37  3.27 -3.71
Si -1.40  3.74  3.83
Si -4.59  2.15 -2.65
Si  2.25  3.22  4.19
Si  3.69 -3.01 -3.35
Si -5.60  0.44  1.57
Si -1.21 -3.13  4.89
Si  3.42 -4.91 -0.01
Si -3.46 -2.54  4.19
Si  5.73 -1.74 -1.32
Si  3.01  0.67  5.34
Si  1.55 -0.03 -5.97
Si -2.88 -1.97 -5.09
Si -3.49  5.09  0.32
Si  3.81  4.26  2.45
Si  2.73 -1.53  5.37
Si -4.44 -3.01 -3.35
Si -5.89 -1.77  1.60
Si -0.37  5.96 -2.20
Si  0.12  6.20  1.57
Si -3.19 -5.32  1.57
Si -4.81  4.02 -1.32
Si  1.26 -2.24 -5.94
Si -6.09  0.20 -2.20
Si -1.42 -1.27  6.22
Si -4.32  4.26  2.45
Si  1.33 -6.43  0.32
Si -3.62  2.62  4.89
Si -1.40  6.61 -0.01
Si  4.66 -2.54  4.19
Si -4.70 -4.91 -0.01
Si  0.32  4.22  5.37
Si  6.22 -1.50  2.45
Si  4.64  5.09  0.32
Si  2.83  3.79 -5.09
Si -1.15  3.52 -5.94
Si -3.68 -5.55 -2.20
Si  2.93 -5.14 -3.77
Si -6.38 -2.00 -2.17
Si -6.36  2.98  0.42
Si  7.05 -0.67  0.32
Si  4.51  2.62  4.89
Si  6.24  3.50  0.06
Si -3.97  4.85 -3.44
Si  3.91 -4.67  3.76
Si -7.11  0.85 -0.01
Si  4.15  4.85 -3.44
Si -4.21 -4.67  3.76
Si  6.43 -3.37  1.12
Si -3.00  5.32  4.09
Si  3.04  1.92 -6.42
Si -5.11  0.67  5.34
Si  4.94 -5.32  1.57
Si  5.94 -3.60 -2.65
Si  4.45 -5.55 -2.20
Si  6.56 -0.91 -3.44
Si  0.85 -6.66 -3.44
Si  0.04  0.38 -7.54
Si  5.24 -1.97 -5.09
Si  5.75  3.27 -3.71
Si -2.05 -1.14 -7.21
Si  0.79  2.52 -7.12
Si  0.01 -7.49 -1.32
Si -1.89  6.38 -3.77
Si  1.82 -6.20  4.09
Si  0.50 -7.26  2.45
Si -6.62  1.08  3.76
Si -5.40 -1.53  5.37
Si -2.70 -5.08  5.34
Si -0.91  6.84  3.76
Si -0.10 -0.20  7.86
Si -5.87  3.22  4.19
Si  1.99  1.32  7.53
Si -7.60 -2.25  0.06
Si -2.67 -3.84 -6.42
Si  1.50 -1.79  7.59
Si -0.45 -2.72 -7.48
Si -6.85  2.75 -3.35
Si -5.19 -5.14 -3.77
Si -5.29  3.79 -5.09
Si -0.86  5.73 -5.97
Si -7.11 -2.02  3.83
Si  0.60  6.43  5.34
Si  1.61  8.15  1.12
Si -5.08  1.92 -6.42
Si  1.12  7.91 -2.65
Si -3.48 -7.53  1.60
Si  5.13  5.32  4.09
Si  3.20 -3.24 -7.12
Si -7.60  0.62 -3.77
Si  2.94 -8.01  0.06
Si -2.86  3.04 -7.48
Si -3.83  4.49  6.22
Si  7.54 -0.44  4.09
Si  6.73  3.74  3.83
Si -0.91  3.97  7.59
Si  7.46  3.75 -2.17
Si -1.54 -8.53  0.42
Si -0.65  8.74  0.42
Si  4.29  4.49  6.22
Si -2.97 -2.31  7.96
Si -6.57 -0.03 -5.97
Si  8.65 -2.25  0.06
Si -3.96 -7.76 -2.17
Si  4.65 -7.53  1.60
Si  6.92 -3.13  4.89
Si  7.95  3.99  1.60
Si  4.16 -7.76 -2.17
Si  2.74  3.45  7.96
Si  5.42 -5.08  5.34
Si -0.72 -2.90  8.66
Si  9.13  0.85 -0.01
Si  3.96 -5.79 -5.97
Si -1.13  8.51 -3.35
Si  0.72 -9.12  1.12
Si -9.20 -0.67  0.32
Si  6.71 -1.27  6.22
Si -8.09 -2.49 -3.71
Si -4.93 -3.24 -7.12
Si  5.46 -3.84 -6.42
Si -0.47 -7.72 -5.09
Si -4.16 -5.79 -5.97
Si  8.16 -2.49 -3.71
Si  3.66  4.62 -7.21
Si  3.42 -7.78  3.83
Si -8.30  3.99  1.60
Si -6.86 -2.24 -5.94
Si -1.05 -8.30  4.19
Si -6.79 -6.43  0.32
Si  2.45 -8.24 -3.71
Si  6.72  6.61 -0.01
Si  0.99 -7.02  6.22
Si  8.65  0.62 -3.77
Si  6.07 -1.14 -7.21
Si -3.73 -4.44  7.53
Si -2.99 -7.29  5.37
Si -5.19 -8.01  0.06
Si  2.44 -5.37 -7.54
Si -2.03 -8.76 -3.35
Si -8.71 -0.44  4.09
Si  5.26  3.04 -7.48
Si -3.13  2.86  8.66
Si -4.46  4.62 -7.21
Si  6.24  6.38 -3.77
Si -3.37 -2.20 -8.86
Si  0.23 -9.36 -2.65
Si -6.30 -6.20  4.09
Si  5.15 -2.31  7.96
Si  3.21 -1.30  9.14
Si  4.40 -4.44  7.53
Si -8.79  3.75 -2.17
Si  3.50  0.91  9.11
Si  1.06 -0.26 -9.74
Si -6.14  1.32  7.53
Si  6.97  3.52 -5.94
Si  2.34  3.56 -8.86
Si -4.70 -7.78  3.83
Si -0.16  8.97  4.19
Si  0.91  9.78 -1.32
Si  2.10  8.38  4.89
Si -2.51  5.55  7.86
Si  0.36 -6.90 -7.21
Si -2.38  6.14 -7.54
Si  3.83  9.26  0.06
Si  7.75  5.96 -2.20
Si  0.63  7.68 -6.42
Si  0.77 -2.47 -9.71
Si -0.93 -1.03  9.99
Si  9.14 -2.02  3.83
Si  2.31 -5.96  7.86
Si  0.80  4.46  9.14
Si -4.30  9.26  0.06
Si -2.58  9.75  1.60
Si -5.38  3.45  7.96
Si  1.21 -8.89  4.89
Si -3.07  9.51 -2.17
Si -6.62 -1.79  7.59
Si -8.01  6.20  1.57
Si -4.62  0.91  9.11
Si  4.75 -2.20 -8.86
Si  9.87 -2.00 -2.17
Si  3.34  9.03 -3.71
Si -9.69 -0.91 -3.44
Si  9.89  2.98  0.42
Si -0.42  7.08  7.53
Si  9.40  2.75 -3.35
Si -7.81  4.22  5.37
Si -1.64  3.29 -9.71
Si  9.62  1.08  3.76
Si  5.00  2.86  8.66
Si 10.16  0.20 -2.20
Si  1.40 10.01  2.45
Si  5.13 -7.29  5.37
Si  8.24  6.20  1.57
Si -10.03 -1.50  2.45
Si -9.82 -3.37  1.12
Si -7.28 -6.66 -3.44
Si -4.91 -1.30  9.14
Si -6.51  8.15  1.12
Si -7.34  2.52 -7.12
Si -2.21 -4.85  9.11
Si -10.01  3.50  0.06
Si -8.50  5.96 -2.20
Si  3.67 -7.99 -5.94
Si  7.21  6.84  3.76
Si 10.36 -1.77  1.60
Si  2.56  1.69 -10.19
Si -5.68 -8.24 -3.71
Si -10.52 -1.74 -1.32
Si 10.65  0.44  1.57
Si  6.58 -8.53  0.42
Si -7.62 -7.26  2.45
Si  0.42  9.55 -5.09
Si  8.44  4.22  5.37
Si -5.68 -5.37 -7.54
Si -4.78  9.03 -3.71
Si -7.00  7.91 -2.65
Si -2.29 -10.66 -0.01
Si -4.45 -7.99 -5.94
Si -9.52  3.74  3.83
Si -3.81  9.49  3.83
Si  5.05  9.51 -2.17
Si -9.33 -3.13  4.89
Si  7.26  5.73 -5.97
Si -1.62  8.27 -7.12
Si  7.67 -2.72 -7.48
Si -8.09  0.38 -7.54
Si  2.23 10.84  0.32
Si  4.32  9.49  3.83
Si -8.11 -7.49 -1.32
Si  8.16  0.38 -7.54
Si  0.30  2.28 -10.89
Si  8.14 -7.49 -1.32
Si  5.61  5.55  7.86
Si -5.78  3.56 -8.86
Si  6.10 -8.76 -3.35
Si  7.21  3.97  7.59
Si -0.78 -11.07  1.57
Si -1.80 -10.43  3.76
Si -10.31 -3.60 -2.65
Si  8.03 -0.20  7.86
Si -7.52  6.43  5.34
Si -1.35  5.49 -9.74
Si  1.74 10.61 -3.44
Si  5.75  6.14 -7.54
Si -0.45  0.15 -11.31
Si  5.54  9.75  1.60
Si  9.38 -2.24 -5.94
Si  1.09  6.66  9.11
Si -0.56 -8.06  7.96
Si -2.54 -1.37 -10.98
Si  9.67 -0.03 -5.97
Si -8.22 -0.20  7.86
Si  3.91 -7.54  7.59
Si -3.16 -4.07 -10.19
Si -6.03  8.38  4.89
Si  9.46 -6.43  0.32
Si -5.81 -5.96  7.86
Si -9.54 -1.27  6.22
Si  1.96 -8.48 -7.48
Si -4.21 -7.54  7.59
Si  6.99  8.51 -3.35
Si  7.48  8.74  0.42
Si -2.10  9.98  5.37
Si  8.63 -7.26  2.45
Si -0.26 -9.59 -6.42
Si -3.34  4.72  9.99
Si -9.27  3.52 -5.94
Si -3.56  9.28 -5.94
Si -1.27 -11.31 -2.20
Si -9.52  6.61 -0.01
Si -10.50  3.27 -3.71
Si  0.39  0.03 11.63
Si  1.99 -1.55 11.36
Si 10.38  3.22  4.19
Si -0.94 -2.96 -11.25
Si  2.48  1.55 11.30
Si  8.91  2.52 -7.12
Si  7.07 -8.30  4.19
Si  8.97 -6.66 -3.44
Si -8.57 -2.72 -7.48
Si -5.57  1.69 -10.19
Si  2.71 -3.48 -10.89
Si -2.52 -9.00 -7.12
Si  7.41 -2.90  8.66
Si -7.13 -7.02  6.22
Si -7.41 -9.12  1.12
Si -2.50 -7.06  9.14
Si -2.78 -10.90 -3.77
Si  5.91 -4.85  9.11
Si  2.85  8.79 -7.48
Si  4.56  9.28 -5.94
Si -9.04  6.84  3.76
Si -0.96 -7.96 -8.86
Si  3.47 -6.02 -9.74
Si  7.65 -7.72 -5.09
Si -7.06 -0.26 -9.74
Si  4.78  4.72  9.99
Si  4.97 -4.07 -10.19
Si -3.35  2.80 -11.25
Si  8.73  6.43  5.34
Si -0.29 -10.84  5.34
Si  2.72 11.08  4.09
Si -0.42  4.20 11.36
Si  6.49  3.29 -9.71
Si  1.88 10.25  6.22
Si 11.66  2.15 -2.65
Si  5.83 -10.66 -0.01
Si -2.49 -2.07 11.73
Si  1.48 -6.79  9.99
Si  0.33  9.21  7.96
Si 11.44  4.02 -1.32
Si 10.85 -1.53  5.37
Si -8.98  5.73 -5.97
Si -7.22  9.78 -1.32
Si  3.17  4.38 -10.98
Si -2.78 11.72 -2.20
Si -2.29 11.95  1.57
Si -6.92 -8.89  4.89
Si -11.01 -1.97 -5.09
Si -6.73 10.01  2.45
Si -5.90 10.84  0.32
Si  7.19 -1.03  9.99
Si -4.65 -6.02 -9.74
Si  1.69 -8.66  8.66
Si 11.14  0.67  5.34
Si -8.77  8.74  0.42
Si  9.62 -1.79  7.59
Si -12.07 -2.77  0.42
Si  5.58 -1.37 -10.98
Si  9.95 -6.20  4.09
Si -7.35 -2.47 -9.71
Si 12.14  2.39  1.12
Si -9.03  3.97  7.59
Si  9.25  7.91 -2.65
Si -10.01  6.38 -3.77
Si  2.59  8.61  8.66
Si -3.24 -4.20 11.30
Si -7.49  7.68 -6.42
Si -12.23  2.39  1.12
Si -10.18 -1.14 -7.21
Si -7.89 -9.36 -2.65
Si -7.32  4.46  9.14
Si  4.78  2.80 -11.25
Si 11.55 -4.91 -0.01
Si -11.59 -2.54  4.19
Si -11.31 -5.32  1.57
Si 12.30 -2.77  0.42
Si  0.15  7.44 -10.19
Si -8.60 -7.72 -5.09
Si 11.81 -3.01 -3.35
Si -5.41 -3.48 -10.89
Si -7.77 -6.90 -7.21
Si 10.95  3.79 -5.09
Si 10.11  1.32  7.53
Si -11.61  5.09  0.32
Si -5.27  8.79 -7.48
Si  1.25 10.38 -7.21
Si  6.50  8.27 -7.12
Si  5.34 -10.90 -3.77
Si  7.97  8.97  4.19
Si  3.23  3.69 11.73
Si -8.84 -2.90  8.66
Si -0.23 -2.67 12.43
Si -5.65  1.55 11.30
Si  9.73  8.15  1.12
Si -1.32 -10.20  7.53
Si  3.75 -12.19  0.32
Si  8.84 -9.12  1.12
Si  6.32 -10.43  3.76
Si 11.06 -5.14 -3.77
Si  5.61 -9.00 -7.12
Si  1.96 -5.61 -11.31
Si -3.32  9.73  7.59
Si -4.95  4.38 -10.98
Si  8.35 -9.36 -2.65
Si  6.03  9.98  5.37
Si  5.62 -7.06  9.14
Si -0.07  9.31 -8.86
Si -6.38 10.61 -3.44
Si -6.17 -8.48 -7.48
Si  7.70  7.08  7.53
Si -9.66 -8.53  0.42
Si 11.93  4.26  2.45
Si -8.28  8.97  4.19
Si -3.81 12.37 -0.01
Si -4.38 -12.19  0.32
Si -11.74  2.62  4.89
Si -5.41 11.08  4.09
Si -11.12  5.32  4.09
Si -6.13 -1.55 11.36
Si  4.89 -4.20 11.30
Si -9.26  8.51 -3.35
Si 11.17  1.92 -6.42
Si -9.18 -8.30  4.19
Si  5.34 11.72 -2.20
Si -2.64  3.09 12.43
Si  6.78  5.49 -9.74
Si -2.86  5.91 -11.31
Si  9.12 -7.02  6.22
Si -0.13 -7.13 -10.98
Si -10.82 -5.08  5.34
Si  4.32 12.37 -0.01
Si  8.48 -6.90 -7.21
Si -1.75 -11.54 -5.97
Si  3.18 -8.23 -9.71
Si -10.79 -3.84 -6.42
Si -2.02  5.79 11.63
Si -12.72  2.15 -2.65
Si  5.64 -2.07 11.73
Si  1.85  3.32 -12.62
Si -3.89 -11.95  4.09
Si -11.80 -5.55 -2.20
Si -4.90  3.69 11.73
Si  4.80  9.73  7.59
Si  2.80 -5.73 11.63
Si  3.83 12.13 -3.77
Si -7.70  9.55 -5.09
Si  3.26 -12.42 -3.44
Si -7.03  6.66  9.11
Si  8.76  7.68 -6.42
Si  4.23 -11.95  4.09
Si -12.56 -3.01 -3.35
Si -3.27 11.48 -5.97
Si -12.44  4.26  2.45
Si  9.03  9.78 -1.32
Si  7.35 -11.07  1.57
Si  5.83 11.95  1.57
Si  9.19 -0.26 -9.74
Si  8.90 -2.47 -9.71
Si  6.86 -11.31 -2.20
Si -5.54  8.61  8.66
Si -8.55  7.08  7.53
Si -4.30 12.13 -3.77
Si -1.07 -13.28  1.60
Si -3.86 -2.44 -12.62
Si -1.81 12.19  5.34
Si 12.03 -4.67  3.76
Si  0.07  7.31 11.30
Si  3.70 -1.07 12.91
Si -12.10  4.85 -3.44
Si -6.24 10.25  6.22
Si -9.06 -1.03  9.99
Si  3.99  1.14 12.87
Si  0.57 -0.50 -13.51
Si  8.93  4.46  9.14
Si  2.42 -13.25 -1.32
Si  4.26 -2.44 -12.62
Si  2.91 -13.02  2.45
Si -3.32 12.60  3.76
Si -4.13  1.14 12.87
Si -7.82  2.28 -10.89
Si -12.93  4.02 -1.32
Si  7.56 -8.06  7.96
Si -10.99  3.04 -7.48
Si 12.27  4.85 -3.44
Si -4.94 -8.23 -9.71
Si 11.06 -8.01  0.06
Si  7.67  0.15 -11.31
Si  7.18 -2.96 -11.25
Si -4.42 -1.07 12.91
Si 12.79 -2.54  4.19
Si -2.11  8.04 -10.89
Si -12.34 -4.67  3.76
Si -12.83 -4.91 -0.01
Si 12.76  5.09  0.32
Si  0.28 -2.70 -13.47
Si 11.32 -3.24 -7.12
Si -4.87 -12.42 -3.44
Si -1.55 -13.52 -2.17
Si  8.54  9.55 -5.09
Si  9.33 -8.89  4.89
