500
set: 29.00  0.00  0.00
Si  0.00  0.00  0.00
Si  0.05  0.14 -2.31
Si -0.05 -0.14  2.31
Si -1.27  2.27  0.00
Si  1.27 -2.27  0.00
Si  2.65  0.00  0.00
Si -2.65  0.00  0.00
Si -1.38 -2.27  0.00
Si  1.38  2.27  0.00
Si -1.32  2.13  2.31
Si  1.32 -2.13 -2.31
Si  1.33  2.13  2.31
Si -1.33 -2.13 -2.31
Si -2.60  0.14 -2.31
Si  2.60 -0.14  2.31
Si  2.70  0.14 -2.31
Si -2.70 -0.14  2.31
Si -1.22  2.42 -2.31
Si  1.22 -2.42  2.31
Si  1.43  2.42 -2.31
Si -1.43 -2.42  2.31
Si -3.93  2.27  0.00
Si  3.93 -2.27  0.00
Si -0.11 -4.55  0.00
Si  0.11  4.55  0.00
Si -4.04 -2.27  0.00
Si  4.04  2.27  0.00
Si  0.10  0.29 -4.63
Si -0.10 -0.29  4.63
Si -0.06 -4.41 -2.31
Si  0.06  4.41  2.31
Si  3.98 -2.13 -2.31
Si -3.98  2.13  2.31
Si  3.99  2.13  2.31
Si -3.99 -2.13 -2.31
Si  3.88 -2.42  2.31
Si -3.88  2.42 -2.31
Si  1.28  1.99  4.63
Si -1.28 -1.99 -4.63
Si -2.54  4.55  0.00
Si  2.54 -4.55  0.00
Si -1.37  1.99  4.63
Si  1.37 -1.99 -4.63
Si  0.16  4.69 -2.31
Si -0.16 -4.69  2.31
Si  4.09  2.42 -2.31
Si -4.09 -2.42  2.31
Si  2.55 -0.29  4.63
Si -2.55  0.29 -4.63
Si  5.31  0.00  0.00
Si -5.31  0.00  0.00
Si -2.76 -4.55  0.00
Si  2.76  4.55  0.00
Si  2.75  0.29 -4.63
Si -2.75 -0.29  4.63
Si -1.17  2.56 -4.63
Si  1.17 -2.56  4.63
Si  1.48  2.56 -4.63
Si -1.48 -2.56  4.63
Si  2.60 -4.41 -2.31
Si -2.60  4.41  2.31
Si  2.71  4.41  2.31
Si -2.71 -4.41 -2.31
Si -5.26  0.14 -2.31
Si  5.26 -0.14  2.31
Si  2.50 -4.69  2.31
Si -2.50  4.69 -2.31
Si  5.36  0.14 -2.31
Si -5.36 -0.14  2.31
Si  2.81  4.69 -2.31
Si -2.81 -4.69  2.31
Si -0.01 -4.26 -4.63
Si  0.01  4.26  4.63
Si  3.94  1.99  4.63
Si -3.94 -1.99 -4.63
Si  4.03 -1.99 -4.63
Si -4.03  1.99  4.63
Si -3.83  2.56 -4.63
Si  3.83 -2.56  4.63
Si  0.21  4.83 -4.63
Si -0.21 -4.83  4.63
Si  4.14  2.56 -4.63
Si -4.14 -2.56  4.63
Si  2.65 -4.26 -4.63
Si -2.65  4.26  4.63
Si  2.66  4.26  4.63
Si -2.66 -4.26 -4.63
Si  5.20 -4.55  0.00
Si -5.20  4.55  0.00
Si -1.16  6.82  0.00
Si  1.16 -6.82  0.00
Si -0.15 -0.43  6.95
Si  0.15  0.43 -6.95
Si -6.58  2.27  0.00
Si  6.58 -2.27  0.00
Si -5.21  0.29 -4.63
Si  5.21 -0.29  4.63
Si  1.49  6.82  0.00
Si -1.49 -6.82  0.00
Si  6.69  2.27  0.00
Si -6.69 -2.27  0.00
Si  5.42  4.55  0.00
Si -5.42 -4.55  0.00
Si  5.41  0.29 -4.63
Si -5.41 -0.29  4.63
Si -2.45  4.83 -4.63
Si  2.45 -4.83  4.63
Si -1.21  6.68  2.31
Si  1.21 -6.68 -2.31
Si -1.44 -6.68 -2.31
Si  1.44  6.68  2.31
Si  5.25 -4.41 -2.31
Si -5.25  4.41  2.31
Si -2.86 -4.83  4.63
Si  2.86  4.83 -4.63
Si -1.23 -1.84 -6.95
Si  1.23  1.84  6.95
Si -5.37 -4.41 -2.31
Si  5.37  4.41  2.31
Si -1.42  1.84  6.95
Si  1.42 -1.84 -6.95
Si -6.53  2.42 -2.31
Si  6.53 -2.42  2.31
Si -6.63  2.13  2.31
Si  6.63 -2.13 -2.31
Si  5.15 -4.69  2.31
Si -5.15  4.69 -2.31
Si  6.64  2.13  2.31
Si -6.64 -2.13 -2.31
Si  2.50 -0.43  6.95
Si -2.50  0.43 -6.95
Si -1.11  6.96 -2.31
Si  1.11 -6.96  2.31
Si  1.54  6.96 -2.31
Si -1.54 -6.96  2.31
Si -2.80 -0.43  6.95
Si  2.80  0.43 -6.95
Si  6.74  2.42 -2.31
Si -6.74 -2.42  2.31
Si -1.12  2.70 -6.95
Si  1.12 -2.70  6.95
Si  5.47  4.69 -2.31
Si -5.47 -4.69  2.31
Si -1.53 -2.70  6.95
Si  1.53  2.70 -6.95
Si -3.82  6.82  0.00
Si  3.82 -6.82  0.00
Si -7.96  0.00  0.00
Si  7.96  0.00  0.00
Si -4.14 -6.82  0.00
Si  4.14  6.82  0.00
Si  3.87 -6.68 -2.31
Si -3.87  6.68  2.31
Si  0.04 -4.12 -6.95
Si -0.04  4.12  6.95
Si -1.26  6.54  4.63
Si  1.26 -6.54 -4.63
Si  1.39  6.54  4.63
Si -1.39 -6.54 -4.63
Si  4.09  6.68  2.31
Si -4.09 -6.68 -2.31
Si  3.89  1.84  6.95
Si -3.89 -1.84 -6.95
Si  5.30 -4.26 -4.63
Si -5.30  4.26  4.63
Si  5.32  4.26  4.63
Si -5.32 -4.26 -4.63
Si -7.91  0.14 -2.31
Si  7.91 -0.14  2.31
Si  3.77 -6.96  2.31
Si -3.77  6.96 -2.31
Si -4.08  1.84  6.95
Si  4.08 -1.84 -6.95
Si -6.59 -1.99 -4.63
Si  6.59  1.99  4.63
Si  8.01  0.14 -2.31
Si -8.01 -0.14  2.31
Si -3.78  2.70 -6.95
Si  3.78 -2.70  6.95
Si -6.48  2.56 -4.63
Si  6.48 -2.56  4.63
Si  6.68 -1.99 -4.63
Si -6.68  1.99  4.63
Si  5.10 -4.83  4.63
Si -5.10  4.83 -4.63
Si  4.20  6.96 -2.31
Si -4.20 -6.96  2.31
Si -2.61 -4.12 -6.95
Si  2.61  4.12  6.95
Si -2.69  4.12  6.95
Si  2.69 -4.12 -6.95
Si -4.19 -2.70  6.95
Si  4.19  2.70 -6.95
Si  0.26  4.98 -6.95
Si -0.26 -4.98  6.95
Si  1.06 -7.11  4.63
Si -1.06  7.11 -4.63
Si -6.79 -2.56  4.63
Si  6.79  2.56 -4.63
Si  1.59  7.11 -4.63
Si -1.59 -7.11  4.63
Si -5.16  0.43 -6.95
Si  5.16 -0.43  6.95
Si  5.52  4.83 -4.63
Si -5.52 -4.83  4.63
Si -5.46 -0.43  6.95
Si  5.46  0.43 -6.95
Si -2.40  4.98 -6.95
Si  2.40 -4.98  6.95
Si  3.92 -6.54 -4.63
Si -3.92  6.54  4.63
Si -4.04 -6.54 -4.63
Si  4.04  6.54  4.63
Si  2.91  4.98 -6.95
Si -2.91 -4.98  6.95
Si  7.85 -4.55  0.00
Si -7.85  4.55  0.00
Si -0.22 -9.10  0.00
Si  0.22  9.10  0.00
Si -7.86  0.29 -4.63
Si  7.86 -0.29  4.63
Si -0.17 -8.95 -2.31
Si  0.17  8.95  2.31
Si  3.72 -7.11  4.63
Si -3.72  7.11 -4.63
Si -8.07 -4.55  0.00
Si  8.07  4.55  0.00
Si -0.20 -0.57  9.26
Si  0.20  0.57 -9.26
Si -8.06 -0.29  4.63
Si  8.06  0.29 -4.63
Si  7.90 -4.41 -2.31
Si -7.90  4.41  2.31
Si -7.80  4.69 -2.31
Si  7.80 -4.69  2.31
Si -6.47  6.82  0.00
Si  6.47 -6.82  0.00
Si  2.44 -9.10  0.00
Si -2.44  9.10  0.00
Si -8.02 -4.41 -2.31
Si  8.02  4.41  2.31
Si -4.25 -7.11  4.63
Si  4.25  7.11 -4.63
Si -1.18 -1.70 -9.26
Si  1.18  1.70  9.26
Si -9.24  2.27  0.00
Si  9.24 -2.27  0.00
Si -0.27 -9.24  2.31
Si  0.27  9.24 -2.31
Si -1.47  1.70  9.26
Si  1.47 -1.70 -9.26
Si  1.31 -6.39 -6.95
Si -1.31  6.39  6.95
Si  1.34  6.39  6.95
Si -1.34 -6.39 -6.95
Si -2.87 -9.10  0.00
Si  2.87  9.10  0.00
Si  2.49 -8.95 -2.31
Si -2.49  8.95  2.31
Si -2.46  0.57 -9.26
Si  2.46 -0.57  9.26
Si  9.35  2.27  0.00
Si -9.35 -2.27  0.00
Si  6.52 -6.68 -2.31
Si -6.52  6.68  2.31
Si -6.80 -6.82  0.00
Si  6.80  6.82  0.00
Si -5.27 -4.12 -6.95
Si  5.27  4.12  6.95
Si  8.12  4.69 -2.31
Si -8.12 -4.69  2.31
Si -2.82 -8.95 -2.31
Si  2.82  8.95  2.31
Si -5.35  4.12  6.95
Si  5.35 -4.12 -6.95
Si  2.85  0.57 -9.26
Si -2.85 -0.57  9.26
Si -6.54 -1.84 -6.95
Si  6.54  1.84  6.95
Si  1.07 -2.85  9.26
Si -1.07  2.85 -9.26
Si  6.42 -6.96  2.31
Si -6.42  6.96 -2.31
Si  6.75  6.68  2.31
Si -6.75 -6.68 -2.31
Si  9.19 -2.42  2.31
Si -9.19  2.42 -2.31
Si -9.29  2.13  2.31
Si  9.29 -2.13 -2.31
Si -9.29 -2.13 -2.31
Si  9.29  2.13  2.31
Si -1.58 -2.85  9.26
Si  1.58  2.85 -9.26
Si  2.39 -9.24  2.31
Si -2.39  9.24 -2.31
Si -6.43  2.70 -6.95
Si  6.43 -2.70  6.95
Si  6.73 -1.84 -6.95
Si -6.73  1.84  6.95
Si -5.05  4.98 -6.95
Si  5.05 -4.98  6.95
Si -0.12 -8.81 -4.63
Si  0.12  8.81  4.63
Si  2.92  9.24 -2.31
Si -2.92 -9.24  2.31
Si -9.39 -2.42  2.31
Si  9.39  2.42 -2.31
Si -6.85 -6.96  2.31
Si  6.85  6.96 -2.31
Si -0.09  3.98  9.26
Si  0.09 -3.98 -9.26
Si -1.01  7.25 -6.95
Si  1.01 -7.25  6.95
Si  6.84  2.70 -6.95
Si -6.84 -2.70  6.95
Si  7.95 -4.26 -4.63
Si -7.95  4.26  4.63
Si  7.97  4.26  4.63
Si -7.97 -4.26 -4.63
Si -3.84 -1.70 -9.26
Si  3.84  1.70  9.26
Si -1.64 -7.25  6.95
Si  1.64  7.25 -6.95
Si -5.57 -4.98  6.95
Si  5.57  4.98 -6.95
Si  3.97 -6.39 -6.95
Si -3.97  6.39  6.95
Si -7.75  4.83 -4.63
Si  7.75 -4.83  4.63
Si -4.00 -6.39 -6.95
Si  4.00  6.39  6.95
Si  2.54 -8.81 -4.63
Si -2.54  8.81  4.63
Si -4.13  1.70  9.26
Si  4.13 -1.70 -9.26
Si  2.77  8.81  4.63
Si -2.77 -8.81 -4.63
Si  6.57 -6.54 -4.63
Si -6.57  6.54  4.63
Si -3.73  2.85 -9.26
Si  3.73 -2.85  9.26
Si  2.56  3.98  9.26
Si -2.56 -3.98 -9.26
Si  5.09 -9.10  0.00
Si -5.09  9.10  0.00
Si  6.70  6.54  4.63
Si -6.70 -6.54 -4.63
Si -2.75  3.98  9.26
Si  2.75 -3.98 -9.26
Si  7.81 -0.43  6.95
Si -7.81  0.43 -6.95
Si -0.32 -9.38  4.63
Si  0.32  9.38 -4.63
Si  9.24  1.99  4.63
Si -9.24 -1.99 -4.63
Si -9.14  2.56 -4.63
Si  9.14 -2.56  4.63
Si -8.17 -4.83  4.63
Si  8.17  4.83 -4.63
Si -4.24 -2.85  9.26
Si  4.24  2.85 -9.26
Si -5.14  8.95  2.31
Si  5.14 -8.95 -2.31
Si -0.31 -5.12  9.26
Si  0.31  5.12 -9.26
Si  5.11 -0.57  9.26
Si -5.11  0.57 -9.26
Si  9.34 -1.99 -4.63
Si -9.34  1.99  4.63
Si  6.37 -7.11  4.63
Si -6.37  7.11 -4.63
Si -10.62  0.00  0.00
Si 10.62  0.00  0.00
Si -5.53 -9.10  0.00
Si  5.53  9.10  0.00
Si -8.11 -0.43  6.95
Si  8.11  0.43 -6.95
Si -3.67  7.25 -6.95
Si  3.67 -7.25  6.95
Si -2.34  9.38 -4.63
Si  2.34 -9.38  4.63
Si  5.48  8.95  2.31
Si -5.48 -8.95 -2.31
Si  5.04 -9.24  2.31
Si -5.04  9.24 -2.31
Si -5.51 -0.57  9.26
Si  5.51  0.57 -9.26
Si 10.57 -0.14  2.31
Si -10.57  0.14 -2.31
Si  9.45  2.56 -4.63
Si -9.45 -2.56  4.63
Si -2.35  5.12 -9.26
Si  2.35 -5.12  9.26
Si  2.97  9.38 -4.63
Si -2.97 -9.38  4.63
Si -10.67 -0.14  2.31
Si 10.67  0.14 -2.31
Si  4.29  7.25 -6.95
Si -4.29 -7.25  6.95
Si -6.90 -7.11  4.63
Si  6.90  7.11 -4.63
Si  2.96  5.12 -9.26
Si -2.96 -5.12  9.26
Si  5.58  9.24 -2.31
Si -5.58 -9.24  2.31
Si -0.07 -8.67 -6.95
Si  0.07  8.67  6.95
Si -5.19  8.81  4.63
Si  5.19 -8.81 -4.63
Si  1.29  6.25  9.26
Si -1.29 -6.25 -9.26
Si -1.36  6.25  9.26
Si  1.36 -6.25 -9.26
Si  7.92  4.12  6.95
Si -7.92 -4.12 -6.95
Si -5.43 -8.81 -4.63
Si  5.43  8.81  4.63
Si  5.22  3.98  9.26
Si -5.22 -3.98 -9.26
Si -8.00  4.12  6.95
Si  8.00 -4.12 -6.95
Si  9.13 -6.82  0.00
Si -9.13  6.82  0.00
Si -2.59  8.67  6.95
Si  2.59 -8.67 -6.95
Si -1.05 11.37  0.00
Si  1.05 -11.37  0.00
Si -5.40  3.98  9.26
Si  5.40 -3.98 -9.26
Si -2.72 -8.67 -6.95
Si  2.72  8.67  6.95
Si  6.49  1.70  9.26
Si -6.49 -1.70 -9.26
Si -10.51  4.55  0.00
Si 10.51 -4.55  0.00
Si  1.60 11.37  0.00
Si -1.60 -11.37  0.00
Si -10.52  0.29 -4.63
Si 10.52 -0.29  4.63
Si  7.70 -4.98  6.95
Si -7.70  4.98 -6.95
Si  1.10 -11.23 -2.31
Si -1.10 11.23  2.31
Si -6.62  6.39  6.95
Si  6.62 -6.39 -6.95
Si -6.65 -6.39 -6.95
Si  6.65  6.39  6.95
Si  1.55 11.23  2.31
Si -1.55 -11.23 -2.31
Si  9.18 -6.68 -2.31
Si -9.18  6.68  2.31
Si -4.99  9.38 -4.63
Si  4.99 -9.38  4.63
Si  0.25  0.71 -11.57
Si -0.25 -0.71 11.57
Si  6.38 -2.85  9.26
Si -6.38  2.85 -9.26
Si -6.78  1.70  9.26
Si  6.78 -1.70 -9.26
Si -10.73 -4.55  0.00
Si 10.73  4.55  0.00
Si  9.45  6.82  0.00
Si -9.45 -6.82  0.00
Si  9.20  1.84  6.95
Si -9.20 -1.84 -6.95
Si -10.56  4.41  2.31
Si 10.56 -4.41 -2.31
Si  9.08 -6.96  2.31
Si -9.08  6.96 -2.31
Si 10.72  0.29 -4.63
Si -10.72 -0.29  4.63
Si 10.46 -4.69  2.31
Si -10.46  4.69 -2.31
Si -5.00  5.12 -9.26
Si  5.00 -5.12  9.26
Si  1.13  1.56 11.57
Si -1.13 -1.56 -11.57
Si -9.09  2.70 -6.95
Si  9.09 -2.70  6.95
Si  9.40  6.68  2.31
Si -9.40 -6.68 -2.31
Si  1.52 -1.56 -11.57
Si -1.52  1.56 11.57
Si -10.68 -4.41 -2.31
Si 10.68  4.41  2.31
Si -1.00 11.51 -2.31
Si  1.00 -11.51  2.31
Si  0.37  9.52 -6.95
Si -0.37 -9.52  6.95
Si  9.39 -1.84 -6.95
Si -9.39  1.84  6.95
Si -2.40  0.71 -11.57
Si  2.40 -0.71 11.57
Si -3.94 -6.25 -9.26
Si  3.94  6.25  9.26
Si  1.65 11.51 -2.31
Si -1.65 -11.51  2.31
Si  8.22  4.98 -6.95
Si -8.22 -4.98  6.95
Si  6.32 -7.25  6.95
