500
set: 1259.00  0.00  0.00
Si -0.04 -0.96  0.29
Si -0.27  0.35 -1.65
Si  1.41  0.19  1.80
Si  1.21 -2.80 -0.53
Si -1.79  2.17 -1.31
Si -1.82 -2.11  1.44
Si  2.02  0.85 -2.28
Si  1.91  2.47  1.44
Si -1.00 -1.24 -3.24
Si -2.18  2.82  1.03
Si  0.35 -0.17  3.89
Si  2.79  2.63 -0.77
Si  3.49 -0.92  1.52
Si -0.07  3.73  1.65
Si  0.43 -3.09 -2.75
Si  3.50 -2.25 -0.48
Si -0.47 -2.37  3.46
Si -2.98  1.36  2.81
Si -3.68 -0.79  2.16
Si  3.38 -1.12 -2.52
Si -0.58  3.88 -2.62
Si -3.87  1.51 -2.27
Si -1.23  1.53  4.34
Si  1.30 -4.52  1.01
Si  1.40  4.57 -1.42
Si -2.57 -4.26  0.53
Si -3.26 -2.00 -3.23
Si  1.53 -3.71  3.14
Si  2.42  1.76 -4.45
Si -0.23  3.63  3.96
Si  2.46 -2.89 -3.87
Si  3.53 -2.41  3.35
Si  5.30  0.61  1.50
Si  5.17  2.05 -0.48
Si -5.54 -0.33  0.78
Si -1.15 -0.41 -5.53
Si  0.52  3.14 -4.71
Si -0.69 -5.65  0.62
Si  3.36  3.29  3.27
Si  0.47  5.69  0.47
Si -4.06  0.05 -4.10
Si -5.84  1.14 -1.04
Si  1.51 -0.19  5.92
Si -3.82  4.52  1.57
Si -5.12 -2.81 -1.92
Si -0.73 -4.85 -3.77
Si -3.89 -4.70 -1.41
Si -1.00  1.94 -5.96
Si  5.40 -0.36 -3.36
Si -1.79 -3.49  5.03
Si  4.72 -4.31 -0.38
Si -3.00 -4.44 -3.58
Si -4.33  3.37 -3.55
Si  1.82  3.68  5.08
Si  5.63  1.88 -2.83
Si -4.97 -1.45  4.09
Si  5.29  1.87  3.49
Si  3.54 -1.29  5.46
Si  4.42  4.91 -1.00
Si  3.26 -5.79  0.73
Si -4.73  2.21  4.23
Si -1.81  5.99 -2.55
Si -6.39 -2.33  0.01
Si -4.07 -5.03  2.23
Si -2.84  3.30 -5.37
Si  0.65 -1.03 -6.87
Si  1.59 -3.03 -6.10
Si  2.39  0.58 -6.57
Si -3.47 -2.07  5.78
Si -2.04  1.52  6.58
Si  4.41  3.11 -4.63
Si  2.40  6.06 -2.96
Si -1.15  7.07 -0.55
Si -5.15  5.00 -0.26
Si -4.13  5.42 -2.40
Si -2.54 -5.46  4.00
Si  5.64 -3.42  2.99
Si -1.43  5.59  4.38
Si  3.76 -4.90 -3.88
Si  1.57  2.10  6.83
Si -0.08 -7.26 -0.96
Si  1.67 -5.92  4.09
Si -3.92  1.26 -6.14
Si -6.67  3.21 -0.33
Si  5.21  0.34  5.32
Si -2.88  6.31  2.73
Si -5.59  3.95  2.98
Si  0.14 -1.51  7.33
Si -6.14 -3.92  1.73
Si -7.11  0.55  2.29
Si -1.39 -6.96  2.38
Si -2.10 -0.70  7.16
Si  4.50  5.32  2.81
Si  6.40  4.04 -0.19
Si  7.37 -0.56  1.67
Si  3.95  6.42  0.86
Si -3.04 -0.81 -6.91
Si  4.48  5.14 -3.45
Si  0.06 -6.93 -3.23
Si -0.05 -4.75 -5.99
Si -6.29 -0.52 -4.35
Si -6.24  0.46  4.50
Si  1.84  7.36  1.39
Si  6.62 -3.93  0.93
Si  7.31 -1.27 -2.28
Si  2.14 -7.54 -0.33
Si -0.52 -3.83  6.95
Si  7.69 -2.06 -0.09
Si -3.92  2.94  6.28
Si  1.22  4.82 -6.23
Si -6.34 -2.81 -3.95
Si -7.54  0.48 -2.64
Si  5.41 -5.46 -2.27
Si -7.30  2.80  1.93
Si  5.74 -0.83 -5.66
Si  2.42 -6.84 -3.66
Si  1.12  6.63 -4.81
Si -6.78 -3.04  3.78
Si -2.67  7.85  1.04
Si -0.51  2.55  8.02
Si -2.96  5.09  6.07
Si  0.77 -5.67  6.24
Si  6.66  4.84  1.99
Si -3.85 -3.06 -6.93
Si  7.49 -2.06  3.49
Si  0.69 -7.89  3.13
Si -5.43 -6.49 -1.26
Si -6.43  3.22 -4.64
Si  4.28 -0.54 -7.46
Si  1.77  5.81  6.17
Si -0.97  7.53 -4.21
Si  7.33  3.16  3.42
Si  3.47  4.29 -6.71
Si  4.93 -6.84  2.16
Si -0.87  2.50 -8.34
Si  0.22  7.17  5.01
Si -4.38 -5.87 -4.90
Si  5.73 -5.52  3.93
Si -1.99 -4.58 -7.36
Si  3.01  2.37 -8.04
Si  4.41 -2.35  7.42
Si  3.29  8.07 -2.11
Si  4.82 -4.64 -5.98
Si -8.75 -2.06 -0.09
Si -2.63 -8.56  1.04
Si  3.83 -6.86  4.43
Si -3.04  5.32 -6.62
Si -5.62 -4.10 -5.75
Si  7.07 -1.10  5.51
Si  7.95  2.58 -3.47
Si  6.62  2.87 -5.54
Si  0.65  8.53  3.13
Si  3.14 -4.02 -7.56
Si  2.10  8.87 -0.33
Si -5.10 -7.13  2.57
Si -0.21 -1.57 -9.03
Si  6.56 -3.00 -5.68
Si  7.84 -3.12 -3.65
Si -0.12  9.15 -0.96
Si -6.03  2.04 -6.66
Si  5.28  1.29  7.44
Si  3.33 -8.35 -2.11
Si -9.08 -0.56  1.67
Si  3.37  2.43  8.31
Si  8.90  0.48 -2.64
Si -1.44  4.77  7.87
Si  8.16  4.16 -1.73
Si -4.78 -2.97  7.46
Si  1.88 -9.05  1.39
Si -1.10 -9.35 -0.55
Si -8.28  4.16 -1.73
Si -4.93 -8.05  0.43
Si -9.14 -1.27 -2.28
Si -5.75  6.73 -3.50
Si -6.70  6.77  0.05
Si -8.49  2.58 -3.47
Si -2.83 -7.16  5.62
Si -2.46 -0.76 -9.19
Si  4.73  7.01  4.47
Si -7.03 -0.02 -6.48
Si  1.01 -0.97  9.49
Si  5.53 -7.72 -1.52
Si  7.70 -5.17 -2.58
Si  9.34  0.55  2.29
Si -6.57  5.62  4.33
Si -7.94 -5.40  1.33
Si  0.96 -6.81 -6.85
Si -4.04  7.83  4.13
Si -4.97  8.36  0.43
Si  7.25  0.77 -6.46
Si  9.14  2.80  1.93
Si  1.21  2.05 -9.52
Si -8.96 -2.06  3.49
Si -2.68 -0.76  9.44
Si -8.60 -3.12 -3.65
Si -1.43  9.45  2.38
Si  5.82  7.93  0.72
Si -1.79  4.71 -8.48
Si -0.93 -8.89 -4.21
Si -5.67 -7.31 -3.49
Si -7.54 -0.01  6.42
Si  6.58 -3.00  6.82
Si -0.63 -7.59  6.43
Si -4.96  6.46  5.80
Si  0.23  5.78 -8.17
Si  0.02  9.48 -3.23
Si -6.54  5.45 -5.29
Si  2.52 -5.85  7.76
Si  4.64 -0.49  8.89
Si  5.97  6.70 -4.52
Si -3.24 -6.65 -6.83
Si  0.59  5.84  8.18
Si -7.74 -6.40 -0.79
Si -2.23  7.63 -6.22
Si  4.05 -2.40 -8.93
Si -7.11 -5.05  5.13
Si  2.49 -8.06 -5.60
Si  8.50 -5.40  1.33
Si -7.62  6.41 -2.08
Si -2.40  1.47 -9.78
Si  2.75  0.64  9.78
Si -1.63 -4.53  8.99
Si  3.85  6.74  6.64
Si -0.88 -3.89 -9.40
Si -9.12  3.16  3.42
Si  4.92  1.23 -8.91
Si  3.50 -3.96  8.79
Si  9.77  3.21 -0.33
Si 10.05 -2.33  0.01
Si -5.62  3.58  7.88
Si  5.86 -8.48  0.72
Si -4.00 -8.59  4.13
Si  2.45  8.35 -5.60
Si -7.25 -6.61  3.31
Si  5.49  8.70 -1.52
Si -5.71 -5.13  7.11
Si -8.74 -5.17 -2.58
Si -3.48 -3.01  9.42
Si  7.06 -5.12  5.84
Si  1.16 -0.25 -10.44
Si  7.84  6.83  1.51
Si  0.26 -9.24  5.01
Si  2.38  9.57 -3.66
Si -5.28  5.49 -7.27
Si -6.62 -1.48  8.05
Si  7.94  4.57  5.20
Si -0.64  2.00 10.39
Si -9.82 -3.93  0.93
Si  2.16 -5.91 -8.60
Si 10.60  1.14 -1.04
Si -5.14 -3.03 -8.90
Si  4.01 -7.32  6.75
Si  0.52 -10.72  0.47
Si  3.99 -9.99  0.86
Si -0.73 10.77  0.62
Si  9.66 -3.04  3.78
Si -10.04  4.04 -0.19
Si  8.70 -6.40 -0.79
Si -2.83 -10.10  2.73
Si  1.95 -2.97 10.26
Si -0.79 -0.35 10.83
Si -1.77 -10.43 -2.55
Si -3.56  1.32 10.21
Si  7.62  1.54  7.65
Si -5.14  9.28  2.57
Si  6.77  4.49 -7.31
Si -9.37 -1.10  5.51
Si -0.67  8.82  6.43
Si 10.90 -0.33  0.78
Si -5.97  3.53 -8.47
Si -6.98 -1.54 -8.30
Si -8.50  4.57  5.20
Si  4.89  9.57  2.16
Si  1.16 -9.79 -4.81
Si  8.90 -0.01  6.42
Si  4.66  7.76 -6.21
Si -2.19 -8.78 -6.22
Si  6.99  6.78  5.09
Si  2.44 -10.35 -2.96
Si  7.18  7.87 -2.90
Si 10.16 -0.52 -4.35
Si -8.61  6.83  1.51
Si -4.21 -6.92  7.57
Si  4.93  6.04 -7.89
Si  5.82 -6.61 -6.74
Si -9.79  4.84  1.99
Si  8.83  6.41 -2.08
Si  3.22 10.62  0.73
Si -0.52  7.98 -7.77
Si 10.20  0.46  4.50
Si 10.31 -3.92  1.73
Si  3.79  9.56  4.43
Si 10.10 -2.81 -3.95
Si -2.87  9.26  5.62
Si  3.83  4.34  9.64
Si -7.95 -6.88 -4.00
Si -11.14  0.61  1.50
Si -9.20  0.77 -6.46
Si -5.71  9.10 -3.49
Si -4.28  2.89 -10.07
Si -10.81  1.88 -2.83
Si  1.58  4.88 10.12
Si  7.75 -3.07 -7.71
Si  0.31 -4.70 10.36
Si  1.63 10.50  4.09
Si -5.47  9.92 -1.26
Si -7.30 -4.89 -7.27
Si  9.41 -0.02 -6.48
Si -5.67  2.10  9.70
Si  3.18 -1.34 -10.90
Si  7.26  1.48 -8.70
Si -7.96  3.69  7.33
Si -2.68  5.38  9.73
Si -3.83 -2.13 -10.58
Si  4.77 -9.40  4.47
Si -7.85  7.54  3.60
Si -11.27  2.05 -0.48
Si -0.48 -8.44 -7.77
Si 10.01  3.22 -4.64
Si  7.78  6.08 -5.98
Si -11.04 -0.36 -3.36
Si  7.22 -8.54 -2.90
Si  0.41 -5.73 -10.12
Si  8.49 -6.88 -4.00
Si -9.82  2.87 -5.54
Si  4.70 -8.65 -6.21
Si  5.29  6.10  8.47
Si -10.80 -3.42  2.99
Si -6.66 -9.64  0.05
Si  6.21 -6.76  7.30
Si -4.92  5.55  9.09
Si  1.32 -6.75  9.51
Si -2.48  3.35 10.99
Si -0.16  8.03  8.59
Si -1.39 -10.83  4.38
Si -5.71 -9.68 -3.50
Si -8.82  1.54  7.65
Si  1.42  5.75 -10.19
Si -9.88 -3.00 -5.68
Si  9.33 -5.05  5.13
Si  6.22 -3.06 -9.53
Si  9.19 -6.61  3.31
Si  8.48  3.69  7.33
Si 11.32 -2.81 -1.92
Si -11.15  1.87  3.49
Si  0.92  9.61 -6.85
Si  9.75  6.77  0.05
Si -6.67  0.04  9.88
Si -3.32  5.03 -10.28
Si 10.85  3.95  2.98
Si  1.46  3.62 -11.27
Si -2.88 -6.59  9.52
Si -2.58 10.96  4.00
Si -4.09 -10.99 -2.40
Si  8.59  7.54  3.60
Si -0.12 -8.38  8.59
Si  3.97  9.09  6.75
Si  1.25 11.90  1.01
Si  1.44 -11.84 -1.42
Si -8.70 -3.07 -7.71
Si  4.85  0.28 -11.04
Si -2.15 -3.55 -11.33
Si  0.88  3.20 11.65
Si -4.57 -6.98 -8.79
Si -10.70 -0.83 -5.66
Si -5.50  7.47  7.84
Si -8.67  6.08 -5.98
Si  9.88  5.62  4.33
Si -9.38 -5.12  5.84
Si -0.78 11.57 -3.77
Si -1.59  1.47 -12.01
Si -6.07 -5.19 -9.24
Si  8.11 -3.02  8.65
Si 11.48 -1.45  4.09
Si  3.49  6.68 -9.71
Si  6.01 -9.72 -4.52
Si  8.11 -6.75 -6.32
Si -4.11 11.38  2.23
Si  4.54 -11.09  2.81
Si  6.10 -0.77 10.70
Si 11.29  5.00 -0.26
Si  2.78  1.82 11.90
Si -3.28  9.76 -6.83
Si -9.86 -3.00  6.82
Si -7.81 -8.88  3.60
Si  3.89 -9.68  6.64
Si  7.13  4.55  9.05
Si  4.46 -11.51 -1.00
Si -8.34 -3.02  8.65
Si  1.82 -10.61  6.17
Si  5.37 10.95 -2.27
Si -6.94 -4.83  9.08
Si -11.23  0.34  5.32
Si -4.42 10.54 -4.90
Si -3.93 11.72 -1.41
Si  0.73 10.74  6.24
Si -2.62 12.16  0.53
Si -8.34 -6.75 -6.32
Si -0.01 -0.23 -12.46
Si  5.18 -4.58 10.38
Si  9.90  5.45 -5.29
Si -9.26  7.87 -2.90
Si -11.72 -4.31 -0.38
Si  7.88 -9.59  1.51
Si -5.26 -4.04 10.60
Si  7.61  0.83  9.89
Si -5.11 -11.42 -0.26
Si -11.03 -5.46 -2.27
Si 10.41  2.04 -6.66
Si -4.92 -9.96  5.80
Si -0.99 -7.65 -9.93
Si -3.78 -11.89  1.57
Si  7.01  7.50  7.29
Si  4.52 -11.28 -3.45
Si 11.71  2.21  4.23
Si  3.65 -7.38 -9.61
Si -7.30  9.80  3.31
Si  9.14 -4.89 -7.27
Si  8.12  3.64 -9.02
Si -10.71 -5.52  3.93
Si  9.46 -1.54 -8.30
Si -7.90 -0.07 -9.94
Si -9.46  6.78  5.09
Si  3.71 11.51 -3.88
Si -7.78 10.01 -0.79
Si -7.58 -10.00 -2.08
Si -5.86  7.41 -8.51
Si -9.18  1.48 -8.70
Si  5.85 -6.82 -9.06
Si  9.82 -1.48  8.05
Si -0.03 -12.69  1.65
Si -3.70  0.11 12.25
Si -8.32  3.64 -9.02
Si  6.71 -1.15 -10.84
Si -0.54 -12.53 -2.62
Si 11.02 -6.49 -1.26
Si -1.87  7.69 10.13
Si -4.25  9.49  7.57
Si -3.04 11.98 -3.58
Si 12.58  1.51 -2.27
Si -9.22 -8.54 -2.90
Si  8.63 -8.88  3.60
Si  5.69 10.90  3.93
Si -0.59  3.58 -12.39
Si 10.83 -4.10 -5.75
Si -9.68  4.49 -7.31
Si -8.56 -9.59  1.51
Si 12.76 -0.79  2.16
Si  7.03 -9.64  5.09
Si  4.68 12.10 -0.38
Si -12.02  4.91 -1.00
Si  4.77  3.17 11.72
Si 12.39  0.05 -4.10
Si  6.92 -2.94 10.68
Si 12.11  3.37 -3.55
Si -7.99  9.53 -4.00
Si -12.96 -0.92  1.52
Si -5.46 -8.95  7.84
Si  8.54 -0.07 -9.94
Si  2.82 -2.83 12.48
Si 10.69  6.73 -3.50
Si -0.09 11.66 -5.99
Si -12.95 -2.25 -0.48
Si -0.83 -2.43 -12.90
Si  1.49 12.70  3.14
Si  6.18 -6.56  9.61
Si -2.92 -11.32  6.07
Si -0.64 -1.18 13.11
Si  6.98  2.92 10.81
Si  1.26 -11.60 -6.23
Si -10.47  6.70 -4.52
Si  5.78  9.80 -6.74
Si  8.66 10.01 -0.79
Si -3.00 -11.09 -6.62
Si -12.03  3.11 -4.63
Si -10.63  7.93  0.72
Si -1.03  8.76 -9.93
Si -8.84  0.83  9.89
Si -1.79  5.53 -11.97
Si -3.19 -7.21 -10.73
Si -5.09  2.15 -12.12
Si  2.48 10.56  7.76
Si -6.53 -10.79  4.33
Si  8.45  9.53 -4.00
Si -13.07 -1.12 -2.52
Si -11.94  5.32  2.81
Si -0.19 -12.78  3.96
Si  0.63 -10.57  8.18
Si -0.14  7.11 -11.35
Si -5.93 -0.47 12.01
Si  0.27 -10.63 -8.17
Si  1.48  6.68 11.54
Si -5.33  6.40 -10.56
Si -10.91 -7.72 -1.52
Si -5.33 -1.51 -12.26
Si -4.02 -5.81 11.45
Si -8.02  7.71 -7.59
Si -11.96  5.14 -3.45
Si -0.37 -4.79 12.59
Si 12.55 -4.70 -1.41
