500
set: 1299.00  0.00  0.00
Si  0.59 -0.33  0.95
Si -0.59  0.33 -0.95
Si  2.60 -1.29  0.12
Si -2.60  1.29 -0.12
Si  1.01  1.29 -2.42
Si -1.01 -1.29  2.42
Si -1.01 -1.29 -2.66
Si  1.01  1.29  2.66
Si  3.02  0.33 -1.59
Si -3.02 -0.33  1.59
Si -0.59  0.33  4.12
Si  0.59 -0.33 -4.12
Si  2.60 -3.65  0.12
Si -2.60  3.65 -0.12
Si  1.01  3.65 -2.42
Si -1.01 -3.65  2.42
Si -4.21  0.33 -1.59
Si  4.21 -0.33  1.59
Si -1.01 -3.65 -2.66
Si  1.01  3.65  2.66
Si -3.02 -0.33 -3.49
Si  3.02  0.33  3.49
Si  0.59 -4.61  0.95
Si -0.59  4.61 -0.95
Si -4.63 -1.29  0.12
Si  4.63  1.29 -0.12
Si  0.59  5.27  0.95
Si -0.59 -5.27 -0.95
Si  4.21 -0.33 -3.49
Si -4.21  0.33  3.49
Si  3.02  4.61 -1.59
Si -3.02 -4.61  1.59
Si -2.60  1.29  4.96
Si  2.60 -1.29 -4.96
Si -4.63 -3.65  0.12
Si  4.63  3.65 -0.12
Si  2.60 -1.29  5.20
Si -2.60  1.29 -5.20
Si  0.59 -0.33  6.03
Si -0.59  0.33 -6.03
Si -0.59  4.61  4.12
Si  0.59 -4.61 -4.12
Si  3.02 -5.27 -1.59
Si -3.02  5.27  1.59
Si -4.21  4.61 -1.59
Si  4.21 -4.61  1.59
Si -3.02 -4.61 -3.49
Si  3.02  4.61  3.49
Si -2.60  3.65  4.96
Si  2.60 -3.65 -4.96
Si -6.64 -0.33  0.95
Si  6.64  0.33 -0.95
Si -0.59 -5.27  4.12
Si  0.59  5.27 -4.12
Si  2.60  6.23  0.12
Si -2.60 -6.23 -0.12
Si  1.01 -6.23 -2.42
Si -1.01  6.23  2.42
Si  6.22 -1.29  2.42
Si -6.22  1.29 -2.42
Si -1.01  6.23 -2.66
Si  1.01 -6.23  2.66
Si  2.60 -3.65  5.20
Si -2.60  3.65 -5.20
Si  6.22 -1.29 -2.66
Si -6.22  1.29  2.66
Si  4.63  1.29  4.96
Si -4.63 -1.29 -4.96
Si -4.21 -5.27 -1.59
Si  4.21  5.27  1.59
Si -3.02  5.27 -3.49
Si  3.02 -5.27  3.49
Si -4.63 -1.29  5.20
Si  4.63  1.29 -5.20
Si  4.21 -4.61 -3.49
Si -4.21  4.61  3.49
Si  3.02  0.33 -6.66
Si -3.02 -0.33  6.66
Si  4.21  5.27 -3.49
Si -4.21 -5.27  3.49
Si  6.22 -3.65  2.42
Si -6.22  3.65 -2.42
Si  0.59 -4.61  6.03
Si -0.59  4.61 -6.03
Si  1.01  1.29 -7.50
Si -1.01 -1.29  7.50
Si  6.22 -3.65 -2.66
Si -6.22  3.65  2.66
Si  4.63  3.65  4.96
Si -4.63 -3.65 -4.96
Si -4.63  6.23  0.12
Si  4.63 -6.23 -0.12
Si  6.64  0.33  4.12
Si -6.64 -0.33 -4.12
Si -4.63 -3.65  5.20
Si  4.63  3.65 -5.20
Si -4.21  0.33 -6.66
Si  4.21 -0.33  6.66
Si  7.83 -0.33  0.95
Si -7.83  0.33 -0.95
Si -1.01 -1.29 -7.73
Si  1.01  1.29  7.73
Si  0.59  5.27  6.03
Si -0.59 -5.27 -6.03
Si -6.64 -4.61  0.95
Si  6.64  4.61 -0.95
Si -2.60 -6.23  4.96
Si  2.60  6.23 -4.96
Si  1.01  3.65 -7.50
Si -1.01 -3.65  7.50
Si  2.60  6.23  5.20
Si -2.60 -6.23 -5.20
Si -6.64  5.27  0.95
Si  6.64 -5.27 -0.95
Si -1.01 -3.65 -7.73
Si  1.01  3.65  7.73
Si  3.02  4.61 -6.66
Si -3.02 -4.61  6.66
Si  8.25  1.29 -2.42
Si -8.25 -1.29  2.42
Si  8.25  1.29  2.66
Si -8.25 -1.29 -2.66
Si -7.83  0.33  4.12
Si  7.83 -0.33 -4.12
Si -6.64 -0.33  6.03
Si  6.64  0.33 -6.03
Si  2.60  8.59  0.12
Si -2.60 -8.59 -0.12
Si  1.01 -8.59 -2.42
Si -1.01  8.59  2.42
Si  3.02 -5.27 -6.66
Si -3.02  5.27  6.66
Si -1.01  8.59 -2.66
Si  1.01 -8.59  2.66
Si  6.64  4.61  4.12
Si -6.64 -4.61 -4.12
Si -3.02 -0.33 -8.57
Si  3.02  0.33  8.57
Si  6.22  6.23  2.42
Si -6.22 -6.23 -2.42
Si -4.21  4.61 -6.66
Si  4.21 -4.61  6.66
Si  7.83 -4.61  0.95
Si -7.83  4.61 -0.95
Si  6.22  6.23 -2.66
Si -6.22 -6.23  2.66
Si  4.63 -6.23  4.96
Si -4.63  6.23 -4.96
Si -0.59  0.33  9.20
Si  0.59 -0.33 -9.20
Si  8.25  3.65 -2.42
Si -8.25 -3.65  2.42
Si -4.63  6.23  5.20
Si  4.63 -6.23 -5.20
Si  8.25  3.65  2.66
Si -8.25 -3.65 -2.66
Si  6.64 -5.27  4.12
Si -6.64  5.27 -4.12
Si -4.21 -5.27 -6.66
Si  4.21  5.27  6.66
Si  7.83  5.27  0.95
Si -7.83 -5.27 -0.95
Si  4.21 -0.33 -8.57
Si -4.21  0.33  8.57
Si -0.59 -9.55 -0.95
Si  0.59  9.55  0.95
Si -4.63  8.59  0.12
Si  4.63 -8.59 -0.12
Si  1.01 -6.23 -7.50
Si -1.01  6.23  7.50
Si -6.22  1.29 -7.50
Si  6.22 -1.29  7.50
Si  7.83 -0.33  6.03
Si -7.83  0.33 -6.03
Si  9.84 -1.29  0.12
Si -9.84  1.29 -0.12
Si -7.83  4.61  4.12
Si  7.83 -4.61 -4.12
Si -1.01  6.23 -7.73
Si  1.01 -6.23  7.73
Si  6.22 -1.29 -7.73
Si -6.22  1.29  7.73
Si -6.64 -4.61  6.03
Si  6.64  4.61 -6.03
Si  3.02 -9.55 -1.59
Si -3.02  9.55  1.59
Si -3.02 -4.61 -8.57
Si  3.02  4.61  8.57
Si -2.60 -8.59  4.96
Si  2.60  8.59 -4.96
Si  0.59 -10.21  0.95
Si -0.59 10.21 -0.95
Si -7.83 -5.27  4.12
Si  7.83  5.27 -4.12
Si -0.59  4.61  9.20
Si  0.59 -4.61 -9.20
Si  2.60  8.59  5.20
Si -2.60 -8.59 -5.20
Si 10.26  0.33 -1.59
Si -10.26 -0.33  1.59
Si -6.22  3.65 -7.50
Si  6.22 -3.65  7.50
Si -6.64  5.27  6.03
Si  6.64 -5.27 -6.03
Si -0.59 -9.55  4.12
Si  0.59  9.55 -4.12
Si -2.60  1.29 10.04
Si  2.60 -1.29 -10.04
Si  9.84 -3.65  0.12
Si -9.84  3.65 -0.12
Si -3.02  5.27 -8.57
Si  3.02 -5.27  8.57
Si -4.21 -9.55 -1.59
Si  4.21  9.55  1.59
Si  6.22 -3.65 -7.73
Si -6.22  3.65  7.73
Si  4.21 -4.61 -8.57
Si -4.21  4.61  8.57
Si  3.02 -9.55  3.49
Si -3.02  9.55 -3.49
Si  8.25 -6.23 -2.42
Si -8.25  6.23  2.42
Si -0.59 -5.27  9.20
Si  0.59  5.27 -9.20
Si  8.25 -6.23  2.66
Si -8.25  6.23 -2.66
Si  2.60 -1.29 10.27
Si -2.60  1.29 -10.27
Si -3.02 -10.21  1.59
Si  3.02 10.21 -1.59
Si -10.26 -0.33 -3.49
Si 10.26  0.33  3.49
Si  6.22  8.59  2.42
Si -6.22 -8.59 -2.42
Si  7.83 -4.61  6.03
Si -7.83  4.61 -6.03
Si  4.21  5.27 -8.57
Si -4.21 -5.27  8.57
Si  6.22  8.59 -2.66
Si -6.22 -8.59  2.66
Si  4.63 -8.59  4.96
Si -4.63  8.59 -4.96
Si -2.60  3.65 10.04
Si  2.60 -3.65 -10.04
Si -4.21 -9.55  3.49
Si  4.21  9.55 -3.49
Si  0.59 -10.21 -4.12
Si -0.59 10.21  4.12
Si -4.63  8.59  5.20
Si  4.63 -8.59 -5.20
Si -9.84  1.29  4.96
Si  9.84 -1.29 -4.96
Si  0.59 -0.33 11.11
Si -0.59  0.33 -11.11
Si  4.63  1.29 10.04
Si -4.63 -1.29 -10.04
Si  4.21 -10.21  1.59
Si -4.21 10.21 -1.59
Si  9.84 -1.29  5.20
Si -9.84  1.29 -5.20
Si  7.83  5.27  6.03
Si -7.83 -5.27 -6.03
Si  2.60 -3.65 10.27
Si -2.60  3.65 -10.27
Si -3.02 -10.21 -3.49
Si  3.02 10.21  3.49
Si  8.25  1.29 -7.50
Si -8.25 -1.29  7.50
Si -0.59 -9.55 -6.03
Si  0.59  9.55  6.03
Si -4.63 -1.29 10.27
Si  4.63  1.29 -10.27
Si  6.64  0.33  9.20
Si -6.64 -0.33 -9.20
Si 10.26  4.61 -1.59
Si -10.26 -4.61  1.59
Si -8.25 -1.29 -7.73
Si  8.25  1.29  7.73
Si  1.01 -8.59 -7.50
Si -1.01  8.59  7.50
Si  2.60 -11.17  0.12
Si -2.60 11.17 -0.12
Si  1.01 11.17 -2.42
Si -1.01 -11.17  2.42
Si -1.01 -11.17 -2.66
Si  1.01 11.17  2.66
Si -11.44  0.33 -1.59
Si 11.44 -0.33  1.59
Si -6.22 -6.23 -7.50
Si  6.22  6.23  7.50
Si  4.21 -10.21 -3.49
Si -4.21 10.21  3.49
Si -1.01  8.59 -7.73
Si  1.01 -8.59  7.73
Si -9.84  3.65  4.96
Si  9.84 -3.65 -4.96
Si  4.63  3.65 10.04
Si -4.63 -3.65 -10.04
Si 10.26 -5.27 -1.59
Si -10.26  5.27  1.59
Si  9.84  6.23  0.12
Si -9.84 -6.23 -0.12
Si  6.64 -9.55 -0.95
Si -6.64  9.55  0.95
Si  9.84 -3.65  5.20
Si -9.84  3.65 -5.20
Si  6.22  6.23 -7.73
Si -6.22 -6.23  7.73
Si  8.25  3.65 -7.50
Si -8.25 -3.65  7.50
Si -10.26 -4.61 -3.49
Si 10.26  4.61  3.49
Si -4.63 -3.65 10.27
Si  4.63  3.65 -10.27
Si  0.59 -10.21  6.03
Si -0.59 10.21 -6.03
Si -8.25 -3.65 -7.73
Si  8.25  3.65  7.73
Si -11.87 -1.29  0.12
Si 11.87  1.29 -0.12
Si 11.44 -0.33 -3.49
Si -11.44  0.33  3.49
Si  3.02 -9.55 -6.66
Si -3.02  9.55  6.66
Si  0.59 -4.61 11.11
Si -0.59  4.61 -11.11
Si -10.26  5.27 -3.49
Si 10.26 -5.27  3.49
Si -7.83  0.33  9.20
Si  7.83 -0.33 -9.20
Si -4.63 -11.17  0.12
Si  4.63 11.17 -0.12
Si -2.60 -6.23 10.04
Si  2.60  6.23 -10.04
Si  3.02  0.33 -11.74
Si -3.02 -0.33 11.74
Si  8.25 -8.59 -2.42
Si -8.25  8.59  2.42
Si  8.25 -8.59  2.66
Si -8.25  8.59 -2.66
Si -6.64 -10.21  0.95
Si  6.64 10.21 -0.95
Si 10.26  0.33 -6.66
Si -10.26 -0.33  6.66
Si  6.64  4.61  9.20
Si -6.64 -4.61 -9.20
Si  2.60  6.23 10.27
Si -2.60 -6.23 -10.27
Si  0.59  5.27 11.11
Si -0.59 -5.27 -11.11
Si  6.64 -9.55  4.12
Si -6.64  9.55 -4.12
Si -4.21 -9.55 -6.66
Si  4.21  9.55  6.66
Si -7.83 -9.55 -0.95
Si  7.83  9.55  0.95
Si -11.87 -3.65  0.12
Si 11.87  3.65 -0.12
Si -11.44  4.61 -1.59
Si 11.44 -4.61  1.59
Si -4.21  0.33 -11.74
Si  4.21 -0.33 11.74
Si -2.60 11.17  4.96
Si  2.60 -11.17 -4.96
Si  6.64 -5.27  9.20
Si -6.64  5.27 -9.20
Si -3.02 -10.21  6.66
Si  3.02 10.21 -6.66
Si  2.60 -11.17  5.20
Si -2.60 11.17 -5.20
Si -9.84 -6.23  4.96
Si  9.84  6.23 -4.96
Si  1.01  1.29 -12.57
Si -1.01 -1.29 12.57
Si  4.63 -6.23 10.04
Si -4.63  6.23 -10.04
Si -11.44 -5.27 -1.59
Si 11.44  5.27  1.59
Si  9.84  6.23  5.20
Si -9.84 -6.23 -5.20
Si  8.25 -6.23 -7.50
Si -8.25  6.23  7.50
Si 11.44 -4.61 -3.49
Si -11.44  4.61  3.49
Si -6.64 -10.21 -4.12
Si  6.64 10.21  4.12
Si -4.63  6.23 10.27
Si  4.63 -6.23 -10.27
Si  4.21 -10.21  6.66
Si -4.21 10.21 -6.66
Si  7.83 -10.21  0.95
Si -7.83 10.21 -0.95
Si -8.25  6.23 -7.73
Si  8.25 -6.23  7.73
Si -1.01 -1.29 -12.81
Si  1.01  1.29 12.81
Si 11.87  1.29  4.96
Si -11.87 -1.29 -4.96
Si -7.83  4.61  9.20
Si  7.83 -4.61 -9.20
Si -6.64 -0.33 11.11
Si  6.64  0.33 -11.11
Si  3.02  4.61 -11.74
Si -3.02 -4.61 11.74
Si -6.22 -8.59 -7.50
Si  6.22  8.59  7.50
Si  6.22 -11.17  2.42
Si -6.22 11.17 -2.42
Si -11.87 -1.29  5.20
Si 11.87  1.29 -5.20
Si -7.83 -9.55  4.12
Si  7.83  9.55 -4.12
Si  6.22 -11.17 -2.66
Si -6.22 11.17  2.66
Si  9.84  8.59  0.12
Si -9.84 -8.59 -0.12
Si  4.63 11.17  4.96
Si -4.63 -11.17 -4.96
Si 10.26  4.61 -6.66
Si -10.26 -4.61  6.66
Si 11.44  5.27 -3.49
Si -11.44 -5.27  3.49
Si  6.64 -9.55 -6.03
Si -6.64  9.55  6.03
Si  6.22  8.59 -7.73
Si -6.22 -8.59  7.73
Si  1.01  3.65 -12.57
Si -1.01 -3.65 12.57
Si -4.63 -11.17  5.20
Si  4.63 11.17 -5.20
Si  3.02 -9.55  8.57
Si -3.02  9.55 -8.57
Si -7.83 -5.27  9.20
Si  7.83  5.27 -9.20
Si  3.02 -5.27 -11.74
Si -3.02  5.27 11.74
Si -11.44  0.33 -6.66
Si 11.44 -0.33  6.66
Si -0.59 -9.55  9.20
Si  0.59  9.55 -9.20
Si -4.21  4.61 -11.74
Si  4.21 -4.61 11.74
Si 10.26 -5.27 -6.66
Si -10.26  5.27  6.66
Si -1.01 -3.65 -12.81
Si  1.01  3.65 12.81
Si 11.87  3.65  4.96
Si -11.87 -3.65 -4.96
Si -10.26 -0.33 -8.57
Si 10.26  0.33  8.57
Si -11.87  6.23  0.12
Si 11.87 -6.23 -0.12
Si -11.87 -3.65  5.20
Si 11.87  3.65 -5.20
Si -2.60 -8.59 10.04
Si  2.60  8.59 -10.04
Si  1.01 11.17 -7.50
Si -1.01 -11.17  7.50
Si -4.21 -9.55  8.57
Si  4.21  9.55 -8.57
Si  7.83 -10.21 -4.12
Si -7.83 10.21  4.12
Si -4.21 -5.27 -11.74
Si  4.21  5.27 11.74
Si  7.83 -0.33 11.11
Si -7.83  0.33 -11.11
Si -6.64 -10.21  6.03
Si  6.64 10.21 -6.03
Si -1.01 -11.17 -7.73
Si  1.01 11.17  7.73
Si  2.60  8.59 10.27
Si -2.60 -8.59 -10.27
Si -3.02 -10.21 -8.57
Si  3.02 10.21  8.57
Si 13.45 -1.29  2.42
Si -13.45  1.29 -2.42
Si -6.64 -4.61 11.11
Si  6.64  4.61 -11.11
Si -7.83 -9.55 -6.03
Si  7.83  9.55  6.03
Si  0.59 -10.21 -9.20
Si -0.59 10.21  9.20
Si 13.45 -1.29 -2.66
Si -13.45  1.29  2.66
Si  2.60 -13.53  0.12
Si -2.60 13.53 -0.12
Si  1.01 13.53 -2.42
Si -1.01 -13.53  2.42
Si -1.01 -13.53 -2.66
Si  1.01 13.53  2.66
Si -13.87 -0.33  0.95
Si 13.87  0.33 -0.95
Si -9.84 -8.59  4.96
Si  9.84  8.59 -4.96
Si -6.64  5.27 11.11
Si  6.64 -5.27 -11.11
Si -3.02 -0.33 -13.64
Si  3.02  0.33 13.64
Si  4.21 -10.21 -8.57
Si -4.21 10.21  8.57
