500
set: 839.00  0.00  0.00
Si -0.39  1.10 -0.74
Si  0.47 -1.21  0.80
Si -1.33 -1.18 -0.81
Si  1.36  1.17  0.80
Si -2.11  1.14  0.80
Si  2.20 -1.02 -0.82
Si -0.84 -0.09  2.45
Si  0.91  0.02 -2.48
Si -0.06 -2.29 -2.46
Si  0.05  2.28  2.47
Si -3.09 -1.19  0.84
Si  3.13  1.24 -0.86
Si  2.61 -0.10  2.39
Si -0.43 -3.44  0.78
Si  0.49  3.44 -0.84
Si -2.67 -0.08 -2.45
Si -1.73  2.18 -2.42
Si -1.21  3.45  0.85
Si  1.34 -3.39 -0.93
Si  1.76 -2.39  2.41
Si -1.78 -2.35  2.44
Si  1.78  2.32 -2.49
Si -3.87  1.15 -0.80
Si -0.90 -0.05 -4.04
Si  0.90  0.11  4.10
Si  2.20  3.48  0.87
Si -2.31 -3.45 -0.77
Si  3.96 -1.24  0.80
Si  0.01 -2.20  3.99
Si -2.98  3.45 -0.80
Si  0.02  2.27 -4.08
Si  3.04 -3.53  0.82
Si -3.40  2.31  2.37
Si  3.41 -2.32 -2.44
Si -2.59  0.02  4.08
Si  2.59 -0.06 -4.09
Si  3.52  2.30  2.41
Si -3.50 -2.44 -2.47
Si -4.29 -0.02  2.49
Si -4.72 -1.24 -0.86
Si  4.80  1.13  0.81
Si  1.63 -2.35 -4.12
Si  1.82  2.34  4.05
Si -1.78 -2.34 -4.07
Si -1.72  2.31  4.13
Si  4.37 -0.07 -2.52
Si -0.86  4.50 -2.41
Si -0.92 -4.56 -2.39
Si  0.88  4.59  2.49
Si  0.76 -4.66  2.46
Si -3.98 -3.49  0.88
Si  3.98  3.53 -0.78
Si -5.60  1.12  0.83
Si  0.41 -1.09 -5.66
Si -2.61  4.55  2.46
Si  0.45 -5.74 -0.78
Si -3.53  2.31 -4.00
Si  3.45 -2.30  4.08
Si  3.46  2.27 -4.11
Si -3.51 -2.29  4.08
Si -0.45  5.78  0.88
Si -0.48  1.11  5.74
Si  5.72 -1.04 -0.79
Si  2.61  4.71 -2.39
Si  4.32 -0.00  4.03
Si  2.55 -4.72 -2.50
Si -2.65 -4.68  2.49
Si  4.83 -3.37 -0.84
Si -4.82  3.43  0.81
Si -4.40  0.06 -4.08
Si  1.36  1.21 -5.72
Si  1.22  5.83 -0.77
Si -1.33 -5.79  0.87
Si -1.38 -1.19  5.74
Si  5.17  2.26 -2.38
Si -2.19  1.16 -5.63
Si  0.75 -4.62 -4.01
Si -0.90 -4.58  4.08
Si  5.26 -2.27  2.37
Si  2.15 -1.20  5.70
Si -5.26  2.26 -2.42
Si  0.85  4.65 -4.04
Si  2.20 -5.77  0.85
Si -2.09  5.81 -0.86
Si -0.86  4.65  4.09
Si -5.25 -2.38  2.51
Si -3.08 -1.23 -5.66
Si  3.06  1.15  5.69
Si -6.11 -0.07 -2.42
Si -6.44 -1.13  0.76
Si  6.14  0.02  2.42
Si -3.04 -5.83 -0.84
Si  2.60 -4.59  4.01
Si  3.10  5.83  0.78
Si -5.62 -3.46 -0.86
Si -2.68 -4.62 -4.04
Si  0.42  3.42  5.75
Si  1.21 -3.49  5.59
Si -0.45 -3.47 -5.72
Si -2.58  4.68 -4.10
Si  2.63  4.70  4.08
Si  4.40 -4.54  2.38
Si -1.32  3.50 -5.64
Si  4.29  4.62  2.46
Si  5.73  3.50  0.85
Si -4.36  4.62 -2.41
Si  6.63  1.30 -0.79
Si -5.17  2.33  3.97
Si  3.87 -5.67 -0.84
Si -4.39 -4.78 -2.41
Si  5.18 -2.27 -4.07
Si -3.81  5.79  0.78
Si -3.92  1.19  5.67
Si -5.28 -2.26 -4.03
Si  2.18  3.50 -5.71
Si  5.28  2.33  4.10
Si -2.28 -3.51  5.75
Si  3.97 -1.16 -5.83
Si  0.03  6.83 -2.47
Si -6.04  0.00  4.06
Si  3.01 -3.53 -5.69
Si -0.50  1.12 -7.28
Si -0.01 -6.97  2.41
Si  6.12  0.12 -4.13
Si -3.06  3.54  5.71
Si  0.40 -1.12  7.32
Si -7.31  1.30 -0.79
Si  4.28  4.65 -4.01
Si -1.33 -1.23 -7.28
Si  6.60 -3.48  0.78
Si -6.54  3.60 -0.84
Si  1.30  1.17  7.31
Si -1.72  6.89  2.51
Si  1.75  6.92  2.44
Si -4.74 -5.82  0.85
Si -4.39 -4.62  4.09
Si  4.41 -4.60 -4.11
Si  1.64 -7.01 -2.38
Si -1.75 -6.95 -2.49
Si -4.82 -1.11  5.76
Si -4.32  4.72  4.10
Si  4.77  1.20 -5.79
Si  7.50 -1.13  0.76
Si  6.88 -2.34 -2.42
Si  4.87  5.88 -0.93
Si  3.91  3.40  5.72
Si  2.16 -1.24 -7.31
Si -6.95  2.33  2.45
Si -2.23  1.14  7.35
Si  6.99  2.33  2.45
Si -3.98 -3.50 -5.68
Si -7.05 -2.34 -2.42
Si  6.08  4.55 -2.50
Si  6.05 -4.65 -2.41
Si -6.01  4.73  2.38
Si  5.58 -1.15  5.70
Si  0.40  3.44 -7.28
Si -0.41 -3.42  7.31
Si  0.02  6.98  4.08
Si -0.40 -8.03 -0.86
Si  2.99  1.13 -7.43
Si -5.66  1.20 -5.66
Si -3.10 -1.13  7.39
Si -0.45  5.77 -5.68
Si -0.07 -7.00 -4.11
Si  5.59 -5.84  0.81
Si -6.14 -4.72  2.46
Si  3.46 -6.94  2.45
Si  0.44  8.08  0.84
Si -3.52  6.93 -2.42
Si -7.79  0.02  2.42
Si -7.34 -3.48  0.78
Si -5.58  5.90 -0.84
Si -1.19  8.03 -0.86
Si  3.47  6.99 -2.46
Si -3.48 -6.99  2.47
Si  7.83 -0.07 -2.42
Si  0.38 -5.87  5.72
Si -1.71 -6.93  4.05
Si  4.77 -3.46  5.72
Si -1.35 -5.77 -5.71
Si  1.31 -3.49 -7.33
Si -1.33  3.42  7.36
Si  1.75  6.93 -4.07
Si -4.82  3.43 -5.72
Si  1.25  5.76  5.75
Si  1.75 -6.94  4.10
Si  7.40  3.60 -0.84
Si -1.75  7.01 -4.03
Si  1.27 -8.14  0.81
Si -8.22 -1.04 -0.79
Si  2.08 -5.80 -5.61
Si  6.93  2.40 -3.99
Si -3.91  1.21 -7.28
Si  6.92 -2.31  4.12
Si -2.23 -3.54 -7.29
Si -7.01  2.40 -3.99
Si  2.20  8.09 -0.81
Si -2.17 -8.10  0.80
Si  3.83 -1.16  7.42
Si  8.33  1.12  0.83
Si -7.01 -2.31  4.12
Si  2.16  3.56  7.37
Si -2.16  5.86  5.74
Si  2.99 -3.43  7.23
Si  3.10 -7.97 -0.79
Si -3.04  3.52 -7.27
Si  6.09 -4.55  4.10
Si  3.40 -6.87 -3.99
Si -6.00  4.67 -4.11
Si  5.61  3.47 -5.61
Si -6.11 -4.59 -4.10
Si -2.91  8.15  0.76
Si  6.14  4.68  4.01
Si  3.08  5.80 -5.72
Si -6.53 -1.19 -5.70
Si  6.57  5.75  0.82
Si  6.55  1.18  5.71
Si -6.51 -5.82 -0.80
Si -3.11 -5.85  5.75
Si -5.69 -3.42  5.74
Si -3.48  6.96  4.12
Si  4.76  1.11  7.34
Si -4.82 -1.11 -7.32
Si -3.51 -7.00 -4.08
Si -7.82  0.12 -4.13
Si  3.54  7.07  3.99
Si  7.90  0.00  4.06
Si -8.21  3.50  0.85
Si  3.99 -5.74  5.62
Si  0.88  0.05 -8.94
Si  3.92  3.43 -7.33
Si -5.15  7.00  2.37
Si  5.29  6.88  2.41
Si -3.91  5.78 -5.71
Si  5.15 -7.01 -2.42
Si  4.00  8.06  0.80
Si -0.93  0.02  8.99
Si  8.31 -3.46 -0.86
Si -3.96 -3.47  7.40
Si -3.92 -8.17 -0.74
Si -5.26 -7.09 -2.42
Si -6.41  3.54  5.62
Si -9.13  1.13  0.81
Si -0.03  2.31  8.96
Si  0.07 -2.31 -8.98
Si -8.68 -2.27  2.37
Si  8.68  2.26 -2.42
Si -2.61  0.01 -8.93
Si  6.50 -3.49 -5.71
Si  4.74  5.78  5.59
Si -5.68  1.16  7.32
Si  9.22 -1.24 -0.86
Si  2.50  0.02  9.01
Si  8.69 -2.38  2.51
Si -8.77  2.26 -2.38
Si  1.30  5.74 -7.29
Si  1.68 -2.35  8.92
Si  0.39 -5.84 -7.33
Si -7.37  5.75  0.82
Si -4.78  3.46  7.32
Si -1.73  2.33 -8.95
Si  4.79 -3.47 -7.32
Si -0.43  5.80  7.40
Si -7.39  1.18  5.71
Si -4.85 -5.78 -5.64
Si -7.86  4.55 -2.50
Si -1.76 -2.35  8.95
Si  7.40 -1.19 -5.70
Si -1.37 -5.71  7.37
Si  7.79 -4.72  2.46
Si  5.77 -1.11 -7.41
Si -7.89 -4.65 -2.41
Si  7.43 -5.82 -0.80
Si  2.19 -5.79  7.20
Si  4.80 -8.15  0.83
Si -4.69  8.23 -0.79
Si  1.79  2.42 -9.04
Si  7.93  4.73  2.38
Si  0.86  9.19 -2.45
Si  5.24 -6.95  3.97
Si  5.16  6.92 -4.12
Si -0.75  9.25  2.49
Si -2.14  5.82 -7.35
Si -5.23  7.00 -4.07
Si -5.25 -6.96  4.13
Si  0.84 -9.34 -2.52
Si -0.92 -9.37  2.39
Si -9.11 -3.37 -0.84
Si  9.12  3.43  0.81
Si  3.38  2.30  8.91
Si  8.66 -2.26 -4.03
Si -3.47 -2.33 -8.90
Si  5.72  3.48  7.20
Si -3.13 -5.84 -7.28
Si  0.45  8.05 -5.66
Si -2.58  9.20 -2.42
Si -8.66  2.33  4.10
Si  3.12  5.86  7.31
Si  3.53 -2.32 -8.93
Si  2.69  9.18  2.45
Si  6.55  1.17 -7.31
Si -9.56 -0.07 -2.52
Si  5.58 -5.84 -5.72
Si  8.77  2.33  3.97
Si -5.67 -3.45 -7.35
Si -5.64  5.82  5.72
Si  2.61 -9.25  2.42
Si -6.60 -1.20  7.30
Si -8.76 -2.27 -4.07
Si -0.47 -8.12  5.69
Si -4.36  0.05  8.92
Si -5.64 -8.13  0.80
Si -2.63 -9.25 -2.48
Si -7.80  4.68  4.01
Si -3.53  2.38  8.99
Si -7.85 -4.55  4.10
Si  7.83 -4.59 -4.10
Si  9.65 -0.02  2.49
Si -7.44 -3.49 -5.71
Si  1.24 -8.07 -5.79
Si  4.38  0.03 -9.01
Si  7.53  3.54  5.62
Si -0.86 -4.53 -8.93
Si -1.29  8.16  5.76
Si  5.73  8.25 -0.82
Si -9.98 -1.24  0.80
Si  7.94  4.67 -4.11
Si  3.83 -5.79 -7.33
Si -6.93 -6.96  2.37
Si  8.28  1.20 -5.66
Si -0.81  4.65 -8.94
Si -2.17 -8.06 -5.72
Si  6.94  6.95 -2.44
Si  0.81 -4.69  8.93
Si  0.85  4.60  8.99
Si  0.79 -9.27  4.03
Si  2.15  8.08  5.74
Si  7.01 -6.96  2.37
Si -7.00  6.95 -2.44
Si 10.07  1.15 -0.80
Si -8.36 -1.15  5.70
Si -3.91  5.84  7.37
Si  0.94  9.29  4.08
Si -0.87  9.33 -4.08
Si -8.35 -5.84  0.81
Si -0.94 -9.34 -4.09
Si  8.36  5.90 -0.84
Si -6.45  8.04  0.80
Si -3.00  8.08 -5.70
Si  3.02 -8.09  5.71
Si  2.59 -9.15 -4.13
Si -2.64 -9.16  4.10
Si  9.54  0.06 -4.08
Si  6.54  5.74 -5.69
Si  2.63  9.22 -4.04
Si -1.33 -10.29 -0.82
Si  6.50 -3.43  7.37
Si  7.33 -1.20  7.30
Si -9.62 -0.00  4.03
Si -2.50  9.27  4.06
Si -6.59 -5.73  5.71
Si  2.57 -4.64 -8.99
Si -2.65  4.70  8.95
Si -6.58  3.48 -7.33
Si  6.54 -8.12 -0.80
Si  2.67  4.74 -8.93
Si -7.39  1.17 -7.31
Si -0.34 10.42 -0.80
Si -2.68 -4.67  8.99
Si -4.26  9.29  2.42
Si  4.84  5.78 -7.33
Si  1.42 10.41  0.80
Si  0.43 -10.51  0.80
Si  4.30 -9.34 -2.42
Si -0.87 -0.06 -10.53
Si  6.88 -6.96 -4.00
Si  2.19 -10.31 -0.79
Si -5.23  2.32 -8.90
Si -4.86 -5.85  7.36
Si  4.44  9.29 -2.48
Si  9.96 -3.49  0.88
Si -9.96  3.53 -0.78
Si  8.25 -3.42  5.74
Si  5.23  2.33 -8.94
Si -8.33  3.47 -5.61
Si -4.38 -9.36  2.45
Si  5.15 -2.23  9.03
Si -2.07 10.39  0.83
Si -6.95  6.97  4.08
Si  0.83  0.08 10.64
Si  6.99  6.97  4.08
Si -7.06 -6.96 -4.00
Si  3.94  8.19 -5.66
Si -5.31 -2.31  9.02
Si -4.01 -8.16  5.74
Si -0.00 -2.30 10.53
Si -6.07  0.07 -8.93
Si -9.54 -4.54  2.38
Si -0.00  2.27 -10.59
Si  6.16  0.05  8.92
Si  9.12 -1.11  5.76
Si -9.07  5.88 -0.93
Si  3.14 10.37 -0.74
Si  2.54 -0.03 -10.57
Si  4.34 -4.51  8.89
Si -5.61  5.80 -7.32
Si  9.58  4.62 -2.41
Si  5.62 -5.81  7.32
Si -9.17  1.20 -5.79
Si -10.81  1.24 -0.86
Si  9.20 -5.82  0.85
Si -1.75  2.20 10.55
Si  7.34 -5.73  5.71
Si -10.41  2.30  2.41
Si  4.34  4.58  8.93
Si  9.54 -4.78 -2.41
Si  4.75 -8.07 -5.66
Si -2.64 -0.13 10.62
Si 10.85 -1.19  0.84
Si -4.25  4.63 -8.96
Si -1.70 -2.37 -10.55
Si  7.36  3.48 -7.33
Si -3.06 -10.48  0.80
Si -7.40  5.74 -5.69
Si  1.69  2.36 10.57
Si -4.34 -4.62 -8.94
Si -9.64  4.62  2.46
Si 10.44 -2.44 -2.47
Si  0.43  8.14  7.39
Si  1.77 -2.35 -10.61
Si  7.49  8.04  0.80
Si -7.40 -8.12 -0.80
Si -7.44 -3.43  7.37
Si  4.37 -9.27  4.06
Si -0.55 -8.14 -7.43
Si -4.83  8.13  5.70
Si -1.28  8.16 -7.32
Si  1.23 -8.16  7.34
Si 10.54  2.31  2.37
Si -10.53 -2.32 -2.44
Si  2.20  8.05 -7.28
Si -8.16 -1.11 -7.41
Si -4.43 -9.32 -4.04
Si  8.25  1.16  7.32
Si -4.29  9.39 -4.13
Si -2.23 -8.10  7.31
Si  4.43  9.38  4.10
Si  3.97 -10.40  0.76
Si -3.78 10.57 -0.79
Si  0.06  6.94 -8.90
Si -6.03  9.20 -2.52
Si  6.14  9.17  2.39
Si  9.11  3.43 -5.72
Si -3.47  2.24 -10.52
Si -8.64  6.88  2.41
Si -3.07  8.07  7.30
Si -0.15 -6.97  8.91
Si  3.02 -8.10 -7.31
Si -9.17 -3.46  5.72
Si -9.53 -4.60 -4.11
Si  6.52  5.84  7.23
Si -6.57 -5.75 -7.27
Si  4.30 -0.08 10.52
Si  9.55 -4.62  4.09
Si 10.41  2.31 -4.00
Si  5.68  8.08  5.70
Si  6.12 -9.29  2.49
Si -5.72 -8.12 -5.63
Si  3.54  2.24 -10.62
Si  3.39 -2.37 10.65
Si 10.43 -2.29  4.08
Si -4.37 -0.10 -10.57
Si -3.51 -2.44 10.61
Si  1.77  6.92  8.95
Si -9.66  4.65 -4.01
Si  1.70 -6.94 -8.94
Si  8.68 -7.09 -2.42
Si -8.22  3.48  7.20
Si  9.62  4.72  4.10
Si -1.74 -6.85 -9.04
Si -10.48  2.27 -4.11
Si -6.20 -9.35 -2.45
Si  8.79  7.00  2.37
Si -10.48 -2.30  4.08
Si -10.90 -3.53  0.82
Si -8.79 -7.01 -2.42
Si 10.96  3.45 -0.80
Si -1.78  6.96  9.02
Si 11.27 -0.08 -2.45
Si -0.87 -4.61 10.55
Si  0.94  4.53 -10.58
Si -0.91  4.57 10.58
Si  4.89 10.44  0.80
Si -4.87 -10.46 -0.81
Si 10.02  1.19  5.67
Si  6.93  2.38  8.96
Si -11.32 -0.10  2.39
Si -10.07 -5.67 -0.84
Si  8.26 -3.45 -7.35
