500
set: 907.00  0.00  0.00
Si  0.42 -1.17  0.83
Si -0.43  1.18 -0.81
Si -1.33 -1.17 -0.82
Si  1.34  1.18  0.82
Si -2.17  1.16  0.82
Si  0.87 -0.00 -2.45
Si  2.17 -1.19 -0.82
Si -0.89  0.00  2.46
Si  3.07  1.17 -0.82
Si -0.03 -2.35 -2.46
Si  0.03  2.35  2.45
Si -3.09 -1.18  0.82
Si -2.63  0.01 -2.45
Si  2.64 -0.01  2.46
Si -0.48 -3.52  0.82
Si  0.48  3.53 -0.83
Si  1.73 -2.36  2.46
Si -1.73  2.35 -2.46
Si  1.26 -3.53 -0.81
Si  1.78  2.36 -2.45
Si -1.27  3.53  0.82
Si -1.78 -2.35  2.46
Si  3.93 -1.17  0.81
Si -3.93  1.17 -0.82
Si -0.88 -0.01 -4.09
Si  0.86 -0.01  4.10
Si -2.24 -3.53 -0.83
Si  2.24  3.54  0.82
Si  3.02 -3.52  0.83
Si -0.03 -2.36  4.09
Si  0.02  2.35 -4.09
Si -3.03  3.54 -0.82
Si -2.63 -0.01  4.08
Si  3.48 -2.36 -2.44
Si -3.47  2.36  2.46
Si  2.63  0.02 -4.09
Si -3.53 -2.36 -2.45
Si  3.55  2.36  2.46
Si -1.72  2.35  4.08
Si -4.38  0.00  2.47
Si  4.38  0.00 -2.46
Si  1.72 -2.37 -4.09
Si -4.83 -1.18 -0.81
Si  1.78  2.34  4.09
Si -1.78 -2.35 -4.10
Si  4.84  1.18  0.81
Si -0.81  4.70 -2.45
Si  0.83 -4.70  2.46
Si -0.94 -4.70 -2.45
Si  3.98  3.53 -0.81
Si -3.99 -3.53  0.82
Si  0.94  4.71  2.46
Si -0.42  1.18  5.72
Si -5.68  1.18  0.81
Si -3.48  2.35 -4.09
Si  3.48 -2.36  4.09
Si  0.42 -1.19 -5.73
Si  5.70 -1.18 -0.81
Si  2.56 -4.70 -2.46
Si -2.57  4.71  2.44
Si -3.54 -2.34  4.10
Si  3.55  2.36 -4.09
Si -2.69 -4.71  2.45
Si -0.37  5.88  0.82
Si  0.35 -5.89 -0.82
Si  2.69  4.71 -2.46
Si  4.77 -3.52 -0.82
Si  4.38 -0.01  4.09
Si -4.39  0.00 -4.08
Si -1.34 -1.18  5.72
Si  1.33  1.17 -5.73
Si -4.79  3.54  0.83
Si -1.38 -5.88  0.82
Si  1.39  5.88 -0.82
Si  5.23 -2.35  2.44
Si -2.18  1.19 -5.72
Si  2.19 -1.17  5.72
Si -5.24  2.36 -2.46
Si -5.29 -2.35  2.44
Si  5.28  2.36 -2.46
Si  0.83 -4.70 -4.09
Si -2.10  5.88 -0.81
Si  2.12 -5.88  0.81
Si -0.82  4.72  4.10
Si -0.94 -4.72  4.09
Si  0.94  4.71 -4.10
Si  3.08  1.16  5.73
Si -6.14  0.00 -2.46
Si -3.08 -1.18 -5.74
Si  6.15  0.00  2.47
Si -3.15 -5.88 -0.81
Si  3.14  5.89  0.83
Si  0.48  3.52  5.73
Si -0.50 -3.54 -5.72
Si -6.60 -1.17  0.81
Si  6.60  1.17 -0.82
Si -2.58  4.70 -4.10
Si  2.58 -4.72  4.09
Si  2.69  4.70  4.09
Si  5.74  3.54  0.83
Si -5.75 -3.52 -0.82
Si -2.70 -4.71 -4.09
Si  1.27 -3.51  5.73
Si -4.32  4.70 -2.44
Si  4.33 -4.70  2.46
Si -1.27  3.52 -5.74
Si  4.45  4.70  2.46
Si -4.45 -4.71 -2.46
Si -5.23  2.34  4.09
Si -3.94  1.17  5.72
Si  5.23 -2.36 -4.10
Si  3.94 -1.19 -5.73
Si  2.22  3.52 -5.72
Si  5.29  2.34  4.09
Si -3.88  5.89  0.81
Si  3.88 -5.89 -0.82
Si -2.24 -3.54  5.73
Si -5.30 -2.36 -4.10
Si  6.14  0.00 -4.08
Si -6.14 -0.01  4.09
Si -3.03  3.53  5.74
Si  3.02 -3.54 -5.73
Si -0.42  1.18 -7.36
Si  6.53 -3.53  0.82
Si -6.54  3.53 -0.81
Si  0.42 -1.17  7.37
Si  0.09  7.07 -2.45
Si -0.08 -7.07  2.46
Si  7.43 -1.18  0.82
Si  1.33  1.18  7.36
Si -1.33 -1.18 -7.37
Si -4.84 -1.18  5.73
Si -4.32  4.70  4.09
Si  4.84  1.17 -5.73
Si -7.45  1.17 -0.82
Si  4.33 -4.71 -4.09
Si -4.44 -4.71  4.08
Si  4.44  4.69 -4.09
Si  1.67 -7.06 -2.46
Si -1.66  7.06  2.47
Si  4.89  5.88 -0.82
Si -1.85 -7.06 -2.45
Si  1.83  7.06  2.46
Si -4.89 -5.90  0.82
Si -6.97  2.36  2.46
Si -2.17  1.17  7.37
Si  2.19 -1.17 -7.36
Si  6.99 -2.36 -2.45
Si -7.04 -2.36 -2.44
Si  3.99  3.55  5.73
Si -3.99 -3.54 -5.74
Si  7.05  2.36  2.46
Si -6.08  4.70  2.46
Si -3.09 -1.18  7.36
Si  6.07 -4.71 -2.46
Si  3.09  1.17 -7.36
Si -0.09 -7.04 -4.09
Si -6.19 -4.70  2.46
Si  0.09  7.05  4.08
Si -5.68  1.17 -5.73
Si  5.69 -1.18  5.73
Si  6.20  4.70 -2.44
Si -5.63  5.88 -0.82
Si  0.47  3.53 -7.36
Si -0.49 -3.53  7.37
Si  5.63 -5.90  0.82
Si -3.42  7.06 -2.46
Si  3.43 -7.06  2.47
Si -0.36  5.88 -5.74
Si  0.36 -5.90  5.73
Si -4.78  3.51 -5.73
Si -7.88 -0.01  2.46
Si  4.78 -3.53  5.74
Si  7.89  0.01 -2.45
Si  1.28 -3.54 -7.36
Si -1.27  3.54  7.37
Si  0.55  8.22  0.82
Si  3.59  7.06 -2.45
Si -3.60 -7.06  2.46
Si -0.55 -8.24 -0.82
Si -1.67  7.06 -4.08
Si  1.38  5.88  5.72
Si  7.49  3.54 -0.82
Si -1.39 -5.89 -5.73
Si -7.51 -3.52  0.83
Si  1.66 -7.08  4.09
Si  1.84  7.05 -4.09
Si  1.21 -8.23  0.81
Si -1.21  8.23 -0.82
Si -1.86 -7.07  4.10
Si  3.92 -1.17  7.36
Si -6.97  2.36 -4.09
Si  6.99 -2.34  4.10
Si -3.93  1.18 -7.38
Si -2.25 -3.53 -7.36
Si  8.35  1.16  0.82
Si  2.23  3.53  7.37
Si -8.35 -1.19 -0.82
Si -2.12  5.88  5.73
Si -7.04 -2.36  4.09
Si  2.12 -5.89 -5.73
Si  7.05  2.35 -4.09
Si -2.29 -8.23  0.83
Si  2.29  8.24 -0.81
Si -3.02  3.53 -7.35
Si -6.08  4.69 -4.09
Si  3.02 -3.53  7.36
Si  6.09 -4.71  4.08
Si -3.14 -5.88  5.72
Si  3.14  5.87 -5.73
Si -6.20 -4.71 -4.09
Si  6.20  4.70  4.09
Si -2.96  8.24  0.81
Si  2.98 -8.24 -0.81
Si  6.59  1.17  5.72
Si -6.59 -1.19 -5.73
Si -3.42  7.04  4.09
Si  5.74  3.51 -5.73
Si  3.42 -7.06 -4.08
Si -5.75 -3.53  5.74
Si -4.83 -1.17 -7.36
Si  7.89 -0.01  4.08
Si -7.90  0.02 -4.09
Si  4.84  1.17  7.38
Si  3.58  7.05  4.10
Si  6.65  5.89  0.81
Si -6.65 -5.89 -0.82
Si -3.60 -7.07 -4.09
Si -0.88  0.00  8.98
Si  0.88  0.01 -9.00
Si -8.28  3.54  0.82
Si  8.29 -3.53 -0.83
Si -3.87  5.87 -5.73
Si  3.87 -5.89  5.72
Si -5.16  7.05  2.46
Si  5.17 -7.05 -2.45
Si -3.99 -3.52  7.37
Si  4.00  3.52 -7.36
Si -5.35 -7.05 -2.45
Si  5.36  7.05  2.46
Si -4.05 -8.23 -0.82
Si  4.06  8.24  0.82
Si -9.18  1.18  0.82
Si -0.02 -2.35 -9.00
Si  0.03  2.35  9.00
Si  9.20 -1.17 -0.82
Si -2.63 -0.00 -9.00
Si  5.69 -1.17 -7.36
Si  8.74 -2.35  2.46
Si -8.75  2.36 -2.45
Si  6.53 -3.54 -5.74
Si  2.62  0.00  9.01
Si -6.54  3.55  5.73
Si -5.68  1.17  7.38
Si -0.37  5.88  7.36
Si  8.79  2.35 -2.46
Si -8.79 -2.36  2.46
Si  0.37 -5.89 -7.36
Si  4.79 -3.53 -7.35
Si -4.78  3.53  7.36
Si  1.71 -2.36  9.00
Si -7.44  1.16  5.73
Si -1.73  2.35 -9.00
Si  7.84 -4.71  2.45
Si  7.37 -5.88 -0.81
Si  1.78  2.36 -8.99
Si -7.83  4.71 -2.46
Si -7.38  5.89  0.83
Si -1.79 -2.35  9.00
Si  7.45 -1.18 -5.74
Si -1.39 -5.88  7.36
Si  4.71 -8.24  0.82
Si  1.39  5.88 -7.37
Si -4.73  8.23 -0.82
Si -4.90 -5.87 -5.72
Si  7.95  4.71  2.44
Si  4.91  5.89  5.72
Si -7.96 -4.70 -2.46
Si  5.17 -7.07  4.08
Si -2.11  5.89 -7.36
Si  2.12 -5.89  7.38
Si -5.18  7.08 -4.09
Si  0.76 -9.42 -2.44
Si -5.35 -7.07  4.08
Si -0.75  9.42  2.46
Si  5.35  7.08 -4.09
Si  0.99  9.41 -2.46
Si -0.99 -9.42  2.46
Si -3.14 -5.88 -7.36
Si -3.46  2.35  9.00
Si -8.74  2.34  4.09
Si  9.25  3.53  0.82
Si  8.74 -2.35 -4.10
Si  3.48 -2.35 -9.01
Si -9.26 -3.53 -0.81
Si  5.62 -5.87 -5.72
Si  3.14  5.89  7.37
Si  3.53  2.35  9.00
Si  9.64  0.00  2.46
Si -5.61  5.89  5.72
Si -9.65 -0.00 -2.45
Si -6.60 -1.17  7.36
Si -3.53 -2.37 -9.00
Si  6.59  1.18 -7.38
Si -5.74 -3.53 -7.35
Si  5.74  3.53  7.36
Si  8.81  2.35  4.08
Si -8.80 -2.37 -4.09
Si  4.38  0.01 -8.99
Si  7.82 -4.71 -4.09
Si -7.83  4.70  4.09
Si -4.39  0.01  9.00
Si -0.53 -8.23  5.72
Si  2.51 -9.41  2.44
Si  0.54  8.25 -5.72
Si -2.52  9.42 -2.46
Si  7.50  3.53  5.74
Si -7.50 -3.54 -5.73
Si  5.79  8.23 -0.82
Si -1.22  8.23  5.72
Si  7.95  4.70 -4.10
Si -2.75 -9.41 -2.46
Si -7.95 -4.72  4.09
Si  2.75  9.41  2.45
Si -5.81 -8.24  0.82
Si  1.22 -8.25 -5.73
Si -8.33 -1.17  5.72
Si  6.92 -7.06  2.46
Si -0.81  4.69 -9.00
Si  8.35  1.19 -5.72
Si  0.81 -4.71  9.00
Si -6.93  7.06 -2.45
Si -0.94 -4.70 -8.99
Si -3.88  5.89  7.36
Si  3.87 -5.88 -7.38
Si 10.09  1.18 -0.81
Si -10.10 -1.17  0.83
Si  0.93  4.71  9.00
Si -8.40 -5.88  0.81
Si  2.30  8.24  5.72
Si -0.76  9.41 -4.09
Si  0.76 -9.42  4.09
Si  8.42  5.88 -0.81
Si -2.30 -8.25 -5.73
Si  1.00  9.41  4.08
Si -7.10 -7.06  2.47
Si  7.10  7.06 -2.46
Si -1.00 -9.43 -4.09
Si -6.52  3.52 -7.36
Si  6.53 -3.52  7.37
Si -2.96  8.23 -5.73
Si  2.97 -8.24  5.73
Si -2.57  4.70  9.00
Si  9.65 -0.01 -4.09
Si  2.57 -4.70 -9.01
Si -9.66 -0.01  4.10
Si -6.46  8.24  0.82
Si -2.69 -4.70  9.00
Si  6.48 -8.23 -0.82
Si  2.70  4.71 -9.00
Si  7.43 -1.18  7.36
Si -7.44  1.17 -7.36
Si -2.51  9.40  4.09
Si  6.66  5.87 -5.73
Si -6.66 -5.89  5.72
Si  2.51 -9.42 -4.10
Si  0.30 -10.58  0.83
Si -4.26  9.41  2.46
Si  2.74  9.41 -4.09
Si -2.75 -9.42  4.09
Si -4.89 -5.89  7.37
Si  4.91  5.88 -7.36
Si  4.27 -9.42 -2.45
Si -0.31 10.60 -0.82
Si  5.24 -2.36  9.00
Si 10.04 -3.52  0.82
Si -10.04  3.53 -0.83
Si  0.88  0.01 10.64
Si  8.29 -3.54  5.73
Si -8.30  3.52 -5.72
Si -5.24  2.36 -9.01
Si -0.88  0.00 -10.65
Si -5.29 -2.36  9.00
Si  6.93 -7.07 -4.09
Si -6.94  7.05  4.10
Si  5.29  2.36 -9.01
Si -1.46 -10.59 -0.81
Si  1.45 10.59  0.82
Si -4.50 -9.41  2.46
Si  4.50  9.42 -2.45
Si  7.10  7.04  4.09
Si  2.05 -10.58 -0.82
Si -7.11 -7.06 -4.08
Si  4.05  8.23 -5.73
Si -4.06 -8.23  5.72
Si -2.07 10.60  0.83
Si  9.18 -1.18  5.72
Si -6.15  0.01 -8.99
Si  6.13  0.01  9.00
Si -9.13  5.88 -0.82
Si -9.19  1.17 -5.73
Si  0.03  2.35 -10.64
Si -0.02 -2.35 10.64
Si  9.15 -5.88  0.82
Si  2.62  0.00 -10.63
Si  9.58 -4.70 -2.45
Si -2.63 -0.00 10.63
Si -9.58  4.71  2.46
Si -5.62  5.88 -7.36
Si  5.63 -5.89  7.37
Si -10.49  2.35  2.45
Si 10.49 -2.35 -2.46
Si  1.71 -2.36 -10.64
Si -1.73  2.35 10.64
Si  7.38 -5.88  5.72
Si -1.79 -2.35 -10.63
Si -7.38  5.87 -5.73
Si 10.95 -1.17  0.83
Si -10.95  1.18 -0.81
Si -4.32  4.71 -9.01
Si  1.78  2.36 10.65
Si  4.34 -4.71  9.00
Si -9.70 -4.70  2.46
Si -0.53 -8.23 -7.36
Si  0.55  8.23  7.37
Si  9.71  4.70 -2.45
Si -4.72  8.22  5.73
Si  4.43  4.70  9.00
Si  7.51  3.53 -7.35
Si -3.20 -10.58  0.82
Si -7.50 -3.53  7.36
Si -10.55 -2.35 -2.46
Si 10.56  2.35  2.45
Si -4.45 -4.71 -9.00
Si  3.20 10.59 -0.83
Si  4.73 -8.24 -5.74
Si  1.20 -8.23  7.36
Si  4.26 -9.40  4.10
Si -4.25  9.42 -4.09
Si -1.21  8.24 -7.38
Si -8.34 -1.17 -7.36
Si  4.50  9.40  4.09
Si  8.35  1.17  7.37
Si -7.54 -8.24 -0.81
Si -4.50 -9.41 -4.10
Si  7.56  8.24  0.81
Si  2.30  8.24 -7.36
Si  3.81 -10.59  0.82
Si -2.30 -8.23  7.37
Si -3.82 10.59 -0.81
Si -3.46  2.35 -10.63
Si  3.48 -2.35 10.63
Si  2.98 -8.23 -7.36
Si  9.58 -4.72  4.09
Si -9.26 -3.51  5.73
Si -9.58  4.71 -4.10
Si  0.09  7.06 -9.00
Si  9.25  3.52 -5.74
Si  6.02 -9.41  2.46
Si -0.10 -7.06  9.01
Si -6.03  9.42 -2.45
Si -2.96  8.23  7.38
Si  8.68 -7.06 -2.45
Si -3.53 -2.37 10.64
Si  3.53  2.35 -10.64
Si -8.69  7.06  2.46
Si -4.39  0.01 -10.64
Si 10.50 -2.36  4.09
Si  4.38  0.01 10.65
Si -10.50  2.35 -4.09
Si -9.69 -4.70 -4.09
Si  6.64  5.89  7.36
Si -6.65 -5.88 -7.38
Si  9.71  4.72  4.10
Si  1.66 -7.05 -8.99
Si 10.54  2.35 -4.09
Si -10.55 -2.36  4.09
Si -1.67  7.07  9.00
Si -6.25 -9.42 -2.45
Si  6.27  9.41  2.46
Si  1.84  7.06  8.98
Si -1.84 -7.05 -9.00
Si -11.00 -3.52  0.82
Si  5.80  8.22  5.73
Si 11.00  3.53 -0.83
Si -8.86 -7.06 -2.46
Si -5.79 -8.24 -5.74
Si  8.87  7.06  2.47
Si  8.28 -3.53 -7.36
Si -6.99  2.35  9.00
Si  6.99 -2.37 -9.00
Si -8.29  3.53  7.37
Si -0.81  4.69 10.64
Si 11.40 -0.00 -2.45
Si 10.10  1.18  5.72
Si  0.81 -4.71 -10.64
Si  8.23 -8.23  0.83
Si  0.93  4.71 -10.63
Si -11.41  0.00  2.46
Si -7.04 -2.35 -9.01
