500
set: 1017.00  0.00  0.00
Si -0.44  1.17 -0.84
Si  0.51 -1.22  0.79
Si -1.40 -1.11 -0.80
Si  1.38  1.21  0.81
Si  0.91 -0.06 -2.43
Si -0.96 -0.02  2.46
Si  2.29 -1.16 -0.83
Si -2.27  1.23  0.84
Si -3.05 -1.17  0.94
Si  0.06  2.36  2.48
Si -0.10 -2.35 -2.51
Si  3.11  1.22 -0.92
Si  2.67 -0.01  2.53
Si -2.69 -0.05 -2.55
Si -0.48 -3.60  0.81
Si  0.47  3.71 -0.80
Si -1.74  2.36 -2.47
Si  1.73 -2.41  2.52
Si  1.25 -3.59 -0.92
Si -1.81 -2.45  2.48
Si  1.76  2.46 -2.51
Si -1.18  3.65  0.94
Si  0.83  0.05  4.15
Si -0.88 -0.05 -4.19
Si -4.04  1.22 -0.92
Si  4.10 -1.17  0.94
Si  2.38  3.60  0.79
Si -2.31 -3.65 -0.84
Si  3.01 -3.58  0.84
Si -3.00  3.66 -0.83
Si -0.03  2.39 -4.21
Si -0.02 -2.46  4.23
Si  2.66  0.00 -4.14
Si  3.54 -2.46 -2.47
Si -2.67 -0.05  4.20
Si -3.56  2.41  2.52
Si  3.59  2.41  2.52
Si -3.60 -2.46 -2.47
Si -1.75  2.35  4.12
Si -4.86 -1.16 -0.83
Si  1.73 -2.42 -4.13
Si  4.87  1.23  0.84
Si  4.46 -0.05 -2.55
Si -4.48 -0.01  2.53
Si  1.84  2.35  4.23
Si -1.89 -2.43 -4.21
Si  0.91  4.79  2.46
Si -0.82  4.76 -2.55
Si  0.80 -4.83  2.53
Si -0.96 -4.87 -2.43
Si -4.14 -3.58  0.84
Si  4.15  3.66 -0.83
Si  5.75 -1.11 -0.80
Si -5.77  1.21  0.81
Si -3.55  2.40 -4.13
Si  3.53 -2.46  4.12
Si  3.60  2.40 -4.13
Si  0.45 -1.19 -5.86
Si -3.62 -2.46  4.12
Si  2.77  4.76 -2.43
Si -0.46  1.30  5.87
Si -2.62  4.80  2.53
Si -4.77  3.60  0.79
Si  0.42 -5.97 -0.83
Si  2.60 -4.87 -2.55
Si -4.49  0.00 -4.14
Si -1.37 -1.24  5.83
Si -2.82 -4.84  2.46
Si -0.41  6.05  0.84
Si  4.84 -3.65 -0.84
Si  4.48 -0.05  4.20
Si  1.44  1.19 -5.88
Si  1.43  5.98 -0.84
Si -1.36 -6.03  0.79
Si -2.12  1.24 -5.73
Si  2.18 -1.19  5.75
Si  5.34 -2.45  2.48
Si  5.41  2.36 -2.47
Si -0.81  4.76  4.20
Si  0.79 -4.81 -4.14
Si -1.03 -4.76  4.15
Si  0.99  4.77 -4.19
Si -5.39  2.46 -2.51
Si -5.42 -2.41  2.52
Si  2.24 -5.98  0.94
Si -2.17  6.04 -0.92
Si  6.19 -0.02  2.46
Si -6.24 -0.06 -2.43
Si -3.21 -1.17 -5.83
Si  3.22  1.25  5.83
Si -6.64 -1.22  0.79
Si -3.26 -5.92 -0.80
Si  0.49  3.57  5.83
Si  6.71  1.17 -0.84
Si -2.62  4.82 -4.14
Si  3.25  6.03  0.81
Si -4.38  4.76 -2.43
Si -0.42 -3.62 -5.88
Si  2.61 -4.87  4.20
Si  4.32 -4.84  2.46
Si  2.70  4.87  4.15
Si -5.90 -3.59 -0.92
Si  1.36 -3.57  5.83
Si -2.74 -4.86 -4.19
Si -1.34  3.64 -5.83
Si  5.97  3.65  0.94
Si  4.53  4.80  2.53
Si  3.88 -5.92 -0.80
Si  3.94 -1.17 -5.83
Si -4.55 -4.87 -2.55
Si -3.93  1.25  5.83
Si  5.26 -2.43 -4.21
Si -5.31  2.35  4.23
Si  5.39  2.35  4.12
Si -3.90  6.03  0.81
Si -2.33 -3.52  5.87
Si -5.42 -2.42 -4.13
Si  2.31  3.62 -5.86
Si  3.17 -3.57 -5.73
Si -3.10  3.63  5.75
Si  6.27 -0.05 -4.19
Si -6.32  0.05  4.15
Si  0.45 -1.20  7.47
Si  0.13  7.17 -2.47
Si -0.47  1.30 -7.47
Si  6.67 -3.60  0.81
Si -0.14 -7.22  2.52
Si -6.68  3.71 -0.80
Si  1.44  1.19  7.45
Si -4.97 -1.19  5.75
Si -7.59  1.17 -0.84
Si  5.03  1.24 -5.73
Si -1.37 -1.24 -7.51
Si  4.41 -4.86 -4.19
Si  7.66 -1.22  0.79
Si -4.45  4.87  4.15
Si -4.91 -5.98  0.94
Si  4.53  4.82 -4.14
Si  1.92  7.17  2.48
Si -1.69  7.22  2.52
Si -3.98 -3.57 -5.73
Si  7.04 -2.35 -2.51
Si -1.97 -7.17 -2.51
Si  1.68 -7.27 -2.47
Si -4.54 -4.87  4.20
Si -7.09  2.36  2.48
Si  4.98  6.04 -0.92
Si  4.04  3.63  5.75
Si  7.21  2.36  2.48
Si  2.18 -1.18 -7.58
Si -2.11  1.24  7.60
Si -7.25 -2.35 -2.51
Si -3.21 -1.18  7.50
Si -6.24  4.79  2.46
Si  6.19 -4.87 -2.43
Si  3.22  1.25 -7.50
Si  0.11  7.17  4.12
Si -5.71  1.19 -5.88
Si -0.42 -3.62  7.45
Si  5.78 -1.24  5.83
Si  0.31 -6.00  5.75
Si  6.33  4.76 -2.55
Si -5.72  5.98 -0.84
Si  0.49  3.58 -7.51
Si -0.13 -7.23 -4.13
Si -0.25  6.06 -5.73
Si -6.35 -4.83  2.53
Si  4.82 -3.52  5.87
Si  5.79 -6.03  0.79
Si  1.35 -3.56 -7.50
Si -4.83  3.62 -5.86
Si  8.06 -0.06 -2.43
Si  3.47 -7.27  2.48
Si -1.34  3.64  7.50
Si -3.52  7.28 -2.51
Si -8.11 -0.02  2.46
Si -7.63 -3.60  0.81
Si -0.62 -8.41 -0.92
Si -1.69  7.21 -4.13
Si  7.62  3.71 -0.80
Si  3.63  7.28 -2.51
Si -1.42 -6.01 -5.86
Si -3.67 -7.27  2.48
Si  1.14 -8.40  0.84
Si  1.66 -7.28  4.12
Si  0.68  8.46  0.94
Si  1.84  7.20 -4.21
Si  3.94 -1.18  7.50
Si -3.93  1.25 -7.50
Si -2.33 -3.52 -7.47
Si  1.40  6.11  5.87
Si -1.13  8.47 -0.83
Si  7.12  2.39 -4.21
Si  2.07 -5.99 -5.83
Si  2.32  3.62  7.47
Si -1.89 -7.28  4.23
Si  7.13 -2.46  4.23
Si  8.53  1.21  0.81
Si -8.55 -1.11 -0.80
Si -7.18  2.39 -4.21
Si -2.06  6.06  5.83
Si -7.17 -2.46  4.23
Si -2.35 -8.42  0.81
Si  6.11 -4.76  4.15
Si -6.16  4.77 -4.19
Si  2.33  8.52 -0.80
Si -2.91  8.41  0.79
Si -5.79 -3.57  5.83
Si -3.11  3.63 -7.58
Si  6.34  4.76  4.20
Si -6.70 -1.19 -5.86
Si  3.17 -3.57  7.60
Si -6.36 -4.81 -4.14
Si  6.68  1.30  5.87
Si  7.98  0.05  4.15
Si  5.80  3.64 -5.83
Si -3.24 -6.05  5.83
Si -3.44  7.17  4.23
Si  2.98 -8.46 -0.84
Si  3.31  6.01 -5.88
Si -6.73 -5.97 -0.83
Si  3.39 -7.24 -4.21
Si -8.03 -0.05 -4.19
Si  6.74  6.05  0.84
Si  3.71  7.17  4.23
Si -8.33  3.65  0.94
Si -4.97 -1.18 -7.58
Si  8.39 -3.59 -0.92
Si -3.76 -7.24 -4.21
Si -0.88 -0.05  9.15
Si  5.18 -7.17 -2.51
Si  5.04  1.24  7.60
Si -5.23  7.17  2.48
Si  0.83  0.05 -9.18
Si -3.84  6.01 -5.88
Si  3.91 -6.05  5.83
Si -3.98 -3.57  7.60
Si  4.04  3.63 -7.58
Si  5.46  7.22  2.52
Si -0.03 -2.46 -9.10
Si -0.02  2.38  9.12
Si -5.47 -7.27 -2.47
Si  4.24  8.41  0.79
Si -5.71  1.19  7.45
Si -4.17 -8.46 -0.84
Si -2.67 -0.05 -9.14
Si -8.89  2.36 -2.47
Si  8.88 -2.41  2.52
Si -6.65  3.57  5.83
Si -9.42  1.23  0.84
Si  9.44 -1.16 -0.83
Si  5.78 -1.24 -7.51
Si  4.82 -3.52 -7.47
Si  2.66  0.00  9.19
Si  1.84  2.35 -9.10
Si  8.91  2.46 -2.51
Si -4.83  3.62  7.47
Si -8.96 -2.45  2.48
Si -1.89 -2.43  9.12
Si -7.97  4.76 -2.55
Si  7.95 -4.83  2.53
Si  6.72 -3.62 -5.88
Si  7.60 -1.19 -5.86
Si  1.74 -2.42  9.20
Si -1.76  2.35 -9.21
Si  0.31 -6.00 -7.58
Si  7.57 -5.97 -0.83
Si  8.05  4.79  2.46
Si -1.41 -6.01  7.47
Si -7.61  1.30  5.87
Si -7.56  6.05  0.84
Si  4.80 -8.42  0.81
Si -0.25  6.06  7.60
Si  1.40  6.11 -7.47
Si -8.11 -4.87 -2.43
Si -5.08 -5.99 -5.83
Si -4.82  8.52 -0.80
Si  2.08 -5.99  7.50
Si  5.09  6.06  5.83
Si -2.06  6.07 -7.50
Si -5.31  7.20 -4.21
Si  5.26 -7.28  4.23
Si  5.46  7.21 -4.13
Si  1.04  9.58 -2.55
Si -0.75  9.62  2.53
Si -5.49 -7.28  4.12
Si -1.06 -9.64  2.53
Si  0.73 -9.68 -2.55
Si -8.90  2.35  4.12
Si  8.88 -2.42 -4.13
Si  6.68  1.30 -7.47
Si -6.70 -1.20  7.47
Si -5.79 -3.56 -7.50
Si  3.31  6.00  7.45
Si  9.81 -0.01  2.53
Si -3.55  2.39  9.20
Si  5.73 -6.01 -5.86
Si -9.84 -0.05 -2.55
Si  5.81  3.64  7.50
Si  3.60  2.39  9.20
Si -9.45 -3.65 -0.84
Si  3.53 -2.46 -9.21
Si  7.94 -4.81 -4.14
Si -3.24 -6.05 -7.51
Si  4.47 -0.05 -9.14
Si -7.95  4.76  4.20
Si -2.51  9.57 -2.43
Si -3.62 -2.46 -9.21
Si  9.52  3.60  0.79
Si  8.99  2.35  4.23
Si -4.49  0.00  9.19
Si -0.51 -8.38  5.83
Si -5.75  6.11  5.87
Si  1.30 -8.39 -5.73
Si -7.57 -3.62 -5.88
Si  7.64  3.57  5.83
Si  2.46 -9.65  2.46
Si -9.04 -2.43 -4.21
Si  0.52  8.46 -5.83
Si -1.24  8.44  5.75
Si  2.77  9.61  2.46
Si -10.20 -1.17  0.94
Si -3.84  6.00  7.45
Si  8.14  4.77 -4.19
Si -0.81  4.77 -9.14
Si -7.02  7.17 -2.47
Si -8.18 -4.76  4.15
Si -6.01 -8.40  0.84
Si  0.99  4.77  9.15
Si 10.26  1.22 -0.92
Si  7.01 -7.22  2.52
Si -2.82 -9.69 -2.43
Si -1.04 -4.76 -9.18
Si -8.52 -1.24  5.83
Si  0.80 -4.81  9.19
Si  3.91 -6.05 -7.51
Si  6.02  8.47 -0.83
Si -8.51 -6.03  0.79
Si  8.59  1.19 -5.88
Si  2.36  8.39  5.83
Si  8.57  5.98 -0.84
Si  7.28  7.17 -2.47
Si  1.06  9.58  4.20
Si -0.76  9.63 -4.14
Si -1.07 -9.63 -4.14
Si -2.29 -8.44 -5.88
Si -7.29 -7.22  2.52
Si  0.75 -9.68  4.20
Si  2.95 -8.33  5.87
Si  9.81  0.00 -4.14
Si -6.66  3.58 -7.51
Si  6.73 -3.62  7.45
Si  2.61 -4.86 -9.14
Si -9.82 -0.05  4.20
Si  6.53 -8.41 -0.92
Si -6.46  8.46  0.94
Si -2.97  8.44 -5.86
Si -2.62  4.82  9.19
Si -2.74 -4.86  9.15
Si  7.60 -1.20  7.47
Si  2.69  4.87 -9.18
Si -7.62  1.30 -7.47
Si -6.83 -6.00  5.75
Si -5.31  2.35 -9.10
Si 10.16 -3.58  0.84
Si  5.26 -2.43  9.12
Si -10.14  3.66 -0.83
Si  6.90  6.06 -5.73
Si -2.90 -9.58  4.15
Si -4.38  9.61  2.46
Si  2.85  9.58 -4.19
Si  0.37 -10.80  0.94
Si  2.54 -9.68 -4.19
Si -2.59  9.68  4.15
Si -7.04  7.17  4.12
Si -5.07 -5.99  7.50
Si  4.33 -9.69 -2.43
Si  7.01 -7.23 -4.13
Si -0.31 10.85 -0.92
Si  5.08  6.07 -7.50
Si  8.51 -3.57  5.83
Si  4.64  9.57 -2.43
Si -1.44 -10.79 -0.83
Si -0.96 -0.02 -10.88
Si -8.49  3.64 -5.83
Si  5.39  2.35 -9.21
Si  0.91 -0.06 10.90
Si -5.41 -2.42  9.20
Si  2.02 -10.74 -0.80
Si -9.27  1.24 -5.73
Si  1.46 10.86  0.84
Si  7.26  7.17  4.12
Si -4.69 -9.65  2.46
Si -4.20 -8.33  5.87
Si  9.33 -1.19  5.75
Si -2.04 10.84  0.81
Si -7.28 -7.23 -4.13
Si -0.10 -2.36 10.82
Si  4.18  8.44 -5.86
Si  6.27 -0.05  9.15
Si  0.05  2.36 -10.85
Si -2.69 -0.06 10.79
Si  2.66 -0.01 -10.80
Si -9.32  6.04 -0.92
Si -6.32  0.05 -9.18
Si -7.40  6.06 -5.73
Si  9.38 -5.98  0.94
Si  7.46 -6.00  5.75
Si -9.77  4.80  2.53
Si  5.74 -6.01  7.47
Si  9.74 -4.87 -2.55
Si  1.73 -2.40 -10.81
Si -7.57 -3.62  7.45
Si -5.75  6.11 -7.47
Si  1.76  2.46 10.82
Si 10.69 -2.46 -2.47
Si -1.74  2.36 10.86
Si -0.51 -8.38 -7.50
Si -10.70  2.41  2.52
Si  4.41 -4.86  9.15
Si  9.92  4.76 -2.43
Si  4.25 -9.58  4.15
Si -1.81 -2.45 -10.85
Si -4.79  8.39  5.83
Si -11.19  1.22 -0.92
Si  7.64  3.58 -7.51
Si 10.74  2.41  2.52
Si -4.54 -4.86 -9.14
Si -10.75 -2.46 -2.47
Si -4.30  9.58 -4.19
Si -4.46  4.87 -9.18
Si  0.53  8.45  7.50
Si  4.53  4.82  9.19
Si  3.29 10.80 -0.84
Si -3.22 -10.85  0.79
Si 11.25 -1.17  0.94
Si -9.97 -4.84  2.46
Si  4.86 -8.44 -5.88
Si  1.30 -8.39  7.60
Si -1.24  8.45 -7.58
Si -8.52 -1.24 -7.51
Si  8.59  1.19  7.45
Si  4.56  9.68  4.15
Si -7.77 -8.41 -0.92
Si -2.29 -8.44  7.45
Si -3.86 10.80 -0.84
Si  2.36  8.39 -7.51
Si -4.61 -9.68 -4.19
Si  3.93 -10.85  0.79
Si  7.83  8.46  0.94
Si  2.95 -8.33 -7.47
Si -3.56  2.41 -10.81
Si -6.11  9.58 -2.55
Si  3.59  2.41 -10.81
Si -2.97  8.44  7.47
Si -9.77  4.82 -4.14
Si  4.46 -0.06 10.79
Si  0.11  7.17 -9.21
Si  6.08 -9.64  2.53
Si  9.76 -4.87  4.20
Si  3.55 -2.46 10.86
Si -9.48 -3.52  5.87
Si -8.84  7.22  2.52
Si -4.49 -0.01 -10.80
Si  8.83 -7.27 -2.47
Si  9.46  3.62 -5.86
Si -0.13 -7.24  9.20
Si -3.60 -2.46 10.86
Si 10.68 -2.46  4.12
Si -10.70  2.40 -4.13
Si -5.85 -8.39 -5.73
Si  9.85  4.87  4.15
Si 10.75  2.40 -4.13
Si  1.84  7.20  9.12
Si -10.77 -2.46  4.12
Si -9.89 -4.86 -4.19
Si  5.91  8.44  5.75
Si -1.89 -7.28 -9.10
Si -1.68  7.21  9.20
Si  7.12 -2.46 -9.10
Si  7.12  2.38  9.12
Si -0.82  4.76 10.79
Si  6.40  9.62  2.53
Si  9.07  7.17  2.48
Si  8.29 -8.40  0.84
Si -6.84 -6.00 -7.58
Si -7.17  2.38  9.12
Si -7.17 -2.46 -9.10
Si  1.66 -7.28 -9.21
Si  0.80 -4.83 -10.80
Si -9.12 -7.17 -2.51
Si -11.29 -3.58  0.84
Si -8.28  8.47 -0.83
Si  8.50 -3.56 -7.50
Si 11.61 -0.05 -2.55
Si -6.42 -9.68 -2.55
Si -8.49  3.64  7.50
Si -11.63 -0.01  2.53
Si 11.30  3.66 -0.83
Si  6.90  6.06  7.60
