500
set: 1604.00  0.00  0.00
Si -0.93 -0.51 -0.72
Si  1.60 -0.48 -1.23
Si -1.52  1.37  0.76
Si  0.25 -2.36  0.25
Si -1.56 -0.54  2.24
Si  1.09 -1.40  2.19
Si  1.88  1.92 -1.17
Si  0.21  2.98  0.25
Si -0.81  2.00 -2.31
Si -0.72 -1.03 -3.04
Si -3.40 -0.48 -1.23
Si  3.48  1.37  0.76
Si -3.12  1.92 -1.17
Si  1.93 -3.42 -1.17
Si  1.93 -1.89 -3.09
Si  0.76  0.01  4.04
Si -0.77 -3.34 -2.31
Si  3.44 -0.54  2.24
Si  4.07 -0.51 -0.72
Si -1.65  2.49  2.96
Si -1.48 -3.96  0.76
Si -1.61 -2.85  2.96
Si  1.05  3.94  2.19
Si -0.69  0.89 -4.52
Si -3.91 -1.40  2.19
Si -3.08 -3.42 -1.17
Si -3.08 -1.89 -3.09
Si  1.05  2.40  4.11
Si -1.77 -0.02  4.56
Si -0.97  4.83 -0.72
Si  1.88  3.45 -3.09
Si  3.35  2.49  2.96
Si  1.09 -2.94  4.11
Si  4.19  2.00 -2.31
Si  1.56  4.86 -1.23
Si -4.75 -2.36  0.25
Si -0.77  4.31 -3.04
Si  3.40 -2.85  2.96
Si  4.28 -1.03 -3.04
Si  3.52 -3.96  0.76
Si -1.60  4.79  2.24
Si -3.12  3.45 -3.09
Si  3.24 -0.02  4.56
Si -4.80  2.98  0.25
Si  1.04  2.49 -5.03
Si  5.25 -2.36  0.25
Si -4.24  0.01  4.04
Si -0.59 -1.87  5.53
Si  4.23 -3.34 -2.31
Si  1.09 -2.85 -5.03
Si -0.89 -5.84 -0.72
Si -3.96  3.94  2.19
Si -5.93 -0.51 -0.72
Si  5.21  2.98  0.25
Si -0.09 -0.99 -6.00
Si -3.45  4.86 -1.23
Si  1.65 -5.81 -1.23
Si -3.96  2.40  4.11
Si  3.40  4.79  2.24
Si  4.32  0.89 -4.52
Si  4.03  4.83 -0.72
Si -0.64 -4.45 -4.52
Si -3.91 -2.94  4.11
Si -1.51 -5.88  2.24
Si -0.63  3.46  5.53
Si -5.72 -1.03 -3.04
Si -5.82  2.00 -2.31
Si  6.09 -1.40  2.19
Si -6.53  1.37  0.76
Si  6.60 -0.48 -1.23
Si  0.81 -5.33  4.04
Si -2.36  1.86  6.03
Si  0.72  5.35  4.04
Si  4.24  4.31 -3.04
Si -3.36 -5.81 -1.23
Si  2.64  1.86  6.03
Si -3.96  2.49 -5.03
Si -1.57  6.71  0.76
Si -6.56 -0.54  2.24
Si -3.92 -2.85 -5.03
Si -2.28  1.43 -6.45
Si  2.44 -0.96 -6.51
Si  5.77  0.01  4.04
Si -5.77 -3.34 -2.31
Si -2.56 -0.96 -6.51
Si -0.68 -6.37 -3.04
Si  2.72  1.43 -6.45
Si  1.14 -6.74  2.19
Si  4.12 -5.84 -0.72
Si  3.49 -5.88  2.24
Si -1.81  5.32  4.56
Si -1.72 -5.36  4.56
Si  6.89  1.92 -1.17
Si  4.42 -1.87  5.53
Si -5.69  0.89 -4.52
Si -2.32 -3.48  6.03
Si -0.14  4.34 -6.00
Si  2.69 -3.48  6.03
Si  0.25 -0.91  7.47
Si  6.05  3.94  2.19
Si  1.84  7.25 -1.17
Si  3.43  6.71  0.76
Si -6.48 -3.96  0.76
Si  3.19  5.32  4.56
Si  6.05  2.40  4.11
Si -6.65  2.49  2.96
Si  4.36 -4.45 -4.52
Si  0.29 -7.70  0.25
Si -5.98  4.83 -0.72
Si -0.73  6.22 -4.52
Si  0.02  1.51 -7.59
Si -0.86  7.34 -2.31
Si  3.28 -5.36  4.56
Si -6.61 -2.85  2.96
Si -5.77  4.31 -3.04
Si  4.91 -0.99 -6.00
Si  6.93 -3.42 -1.17
Si  6.93 -1.89 -3.09
Si  4.37  3.46  5.53
Si -2.24 -3.91 -6.45
Si -2.40 -0.06  7.52
Si -4.20 -5.33  4.04
Si  6.09 -2.94  4.11
Si -5.09 -0.99 -6.00
Si -4.29  5.35  4.04
Si  2.61 -0.06  7.52
Si -3.16  7.25 -1.17
Si  2.77 -3.91 -6.45
Si -3.87 -6.74  2.19
Si -5.59 -1.87  5.53
Si  1.97 -7.22 -3.09
Si -6.77 -0.02  4.56
Si  2.39  4.37 -6.51
Si  6.05  2.49 -5.03
Si  6.56  4.86 -1.23
Si -2.61  4.37 -6.51
Si  4.33 -6.37 -3.04
Si  6.89  3.45 -3.09
Si  0.16  8.31  0.25
Si -5.89 -5.84 -0.72
Si  6.09 -2.85 -5.03
Si -3.03 -7.22 -3.09
Si -8.12  1.92 -1.17
Si  0.12 -1.52 -8.31
Si -6.61  4.79  2.24
Si -5.64 -4.45 -4.52
Si  0.07 -3.82 -7.59
Si -8.41 -0.48 -1.23
Si -1.70  7.83  2.96
Si -5.63  3.46  5.53
Si  8.48  1.37  0.76
Si  0.21  4.42  7.47
Si -0.05 -6.33 -6.00
Si  4.14  7.34 -2.31
Si  8.45 -0.54  2.24
Si  4.27  6.22 -4.52
Si  5.72  5.35  4.04
Si  1.00  7.74  4.11
Si -1.56 -8.19  2.96
Si -8.08 -3.42 -1.17
Si -8.08 -1.89 -3.09
Si  5.81 -5.33  4.04
Si  4.87  4.34 -6.00
Si -4.75 -0.91  7.47
Si -2.44 -2.36  8.24
Si  6.65 -5.81 -1.23
Si  2.56 -2.36  8.24
Si -2.24 -2.37 -8.36
Si  3.31  7.83  2.96
Si -0.72 -8.67 -2.31
Si -5.14  4.34 -6.00
Si -4.71 -7.70  0.25
Si  1.97 -8.76 -1.17
Si -5.68 -6.37 -3.04
Si -6.52 -5.88  2.24
Si -0.54 -7.21  5.53
Si -2.49  2.98  8.24
Si  2.52  2.98  8.24
Si  9.08 -0.51 -0.72
Si  2.77 -2.37 -8.36
Si  0.07  3.82 -8.31
Si -2.28  2.96 -8.36
Si  5.26 -0.91  7.47
Si -4.98  1.51 -7.59
Si  8.36  2.49  2.96
Si  5.03  1.51 -7.59
Si  2.72  2.96 -8.36
Si -8.92 -1.40  2.19
Si  1.14 -8.27  4.11
Si -0.07  0.50  9.32
Si -3.03 -8.76 -1.17
Si  5.30 -7.70  0.25
Si -8.12  3.45 -3.09
Si  8.40 -2.85  2.96
Si  1.00  7.83 -5.03
Si  3.44 -8.19  2.96
Si  6.14 -6.74  2.19
Si  2.48 -6.30 -6.51
Si -2.52 -6.30 -6.51
Si  8.24 -0.02  4.56
Si -6.57  6.71  0.76
Si  8.53 -3.96  0.76
Si -1.44 -9.30  0.76
Si  1.84  8.79 -3.09
Si -2.44  5.28  7.52
Si  2.56  5.28  7.52
Si -2.35 -5.39  7.52
Si  1.00  9.28  2.19
Si -5.73  6.22 -4.52
Si -4.84  8.31  0.25
Si  2.65 -5.39  7.52
Si -2.33  6.76 -6.45
Si -4.00  7.74  4.11
Si -5.86  7.34 -2.31
Si  1.13 -8.19 -5.03
Si  9.19  2.00 -2.31
Si -2.41  7.20  6.03
Si -7.37  1.86  6.03
Si  0.25 -2.45  9.39
Si  2.68  6.76 -6.45
Si -6.72 -5.36  4.56
Si  0.30 -6.25  7.47
Si  2.60  7.20  6.03
Si -4.89 -1.52 -8.31
Si -6.81  5.32  4.56
Si  5.17  8.31  0.25
Si  0.15  0.40 -9.80
Si  0.21  2.89  9.39
Si  9.29 -1.03 -3.04
Si -8.45  4.86 -1.23
Si -4.93 -3.82 -7.59
Si -7.29  1.43 -6.45
Si -3.16  8.79 -3.09
Si  5.12 -1.52 -8.31
Si  5.07 -3.82 -7.59
Si  7.64  1.86  6.03
Si -4.79  4.42  7.47
Si  8.40  4.79  2.24
Si  7.44 -0.96 -6.51
Si  4.28 -8.67 -2.31
Si  3.57 -9.30  0.76
Si -3.87 -8.27  4.11
Si -8.96  3.94  2.19
Si -7.57 -0.96 -6.51
Si  4.96 -6.33 -6.00
Si  6.84  7.25 -1.17
Si -9.76 -2.36  0.25
Si -5.05 -6.33 -6.00
Si -9.24  0.01  4.04
Si  9.24 -3.34 -2.31
Si -7.32 -3.48  6.03
Si  4.46 -7.21  5.53
Si  5.21  4.42  7.47
Si -4.00  7.83 -5.03
Si  2.40  0.47  9.83
Si -0.81  9.64 -3.04
Si -8.96  2.40  4.11
Si  7.72  1.43 -6.45
Si -2.60  0.47  9.83
Si -0.02  6.85 -7.59
Si -1.02 10.16 -0.72
Si -9.80  2.98  0.25
Si -8.92 -2.94  4.11
Si -8.36 -5.81 -1.23
Si  9.03  4.83 -0.72
Si -4.00  9.28  2.19
Si -3.87 -8.19 -5.03
Si  7.69 -3.48  6.03
Si  1.51 10.20 -1.23
Si -4.93  3.82 -8.31
Si  9.32  0.89 -4.52
Si -0.68  8.80  5.53
Si -7.24 -3.91 -6.45
Si  5.08  3.82 -8.31
Si -0.03 -4.84  9.32
Si  6.98 -7.22 -3.09
Si -1.65 10.13  2.24
Si 10.26 -2.36  0.25
Si -7.40 -0.06  7.52
Si  4.93  0.50  9.32
Si  8.49 -5.88  2.24
Si -8.96  2.49 -5.03
Si  6.00  7.74  4.11
Si -5.08  0.50  9.32
Si -8.92 -2.85 -5.03
Si  9.24  4.31 -3.04
Si 10.21  2.98  0.25
Si -5.55 -7.21  5.53
Si -5.73 -8.67 -2.31
Si  1.88  2.00 -10.30
Si  7.61 -0.06  7.52
Si -6.70  7.83  2.96
Si  0.16 -6.85 -8.31
Si  8.20  5.32  4.56
Si  7.40  4.37 -6.51
Si -0.60 -9.79 -4.52
Si -4.75 -2.45  9.39
Si  8.44  6.71  0.76
Si -4.71 -6.25  7.47
Si  7.77 -3.91 -6.45
Si -3.49 10.20 -1.23
Si  9.12 -5.84 -0.72
Si  8.28 -5.36  4.56
Si -6.57 -8.19  2.96
Si  3.36 10.13  2.24
Si -2.27 -8.81  6.03
Si -4.79  2.89  9.39
Si -7.61  4.37 -6.51
Si -4.85  0.40 -9.80
Si  3.98 10.16 -0.72
Si  4.19  9.64 -3.04
Si -3.12  2.00 -10.30
Si -10.94 -0.51 -0.72
Si  0.20 -4.94 -9.80
Si -1.43 -1.39 10.80
Si -8.17  7.25 -1.17
Si -0.12  5.83  9.32
Si  1.93 -3.33 -10.30
Si  2.73 -8.81  6.03
Si  5.26 -2.45  9.39
Si  6.00  7.83 -5.03
Si  5.15  0.40 -9.80
Si  9.42 -1.87  5.53
Si  5.30 -6.25  7.47
Si  6.14 -8.27  4.11
Si  5.21  2.89  9.39
Si -10.73 -1.03 -3.04
Si -8.03 -7.22 -3.09
Si -0.84 -11.18 -0.72
Si  2.44 -4.87  9.83
Si -10.82  2.00 -2.31
Si  4.33  8.80  5.53
Si  6.98 -8.76 -1.17
Si -3.08 -3.33 -10.30
Si  6.00  9.28  2.19
Si -2.56 -4.87  9.83
Si  9.36 -4.45 -4.52
Si -7.24 -2.37 -8.36
Si -6.44 -9.30  0.76
Si  1.69 -11.15 -1.23
Si -8.87 -6.74  2.19
Si  0.11  5.74 -9.80
Si -7.45 -2.36  8.24
Si -9.20 -5.33  4.04
Si  4.98  6.85 -7.59
Si -0.18  9.68 -6.00
Si -5.02  6.85 -7.59
Si  0.75 -1.48 -11.27
Si 11.10 -1.40  2.19
Si  6.14 -8.19 -5.03
Si  9.38  3.46  5.53
Si  7.56 -2.36  8.24
Si  0.85 -10.66  4.04
Si  0.67 10.68  4.04
Si -9.29  5.35  4.04
Si  3.58 -1.39 10.80
Si -7.29  2.96 -8.36
Si -2.19 -9.24 -6.45
Si 10.77  0.01  4.04
Si -10.78 -3.34 -2.31
Si -7.49  2.98  8.24
Si -2.40 -7.70  8.24
Si -1.47 -11.22  2.24
Si  7.52  2.98  8.24
Si  6.84  8.79 -3.09
Si  2.60 -7.70  8.24
Si -2.19 -7.71 -8.36
Si -1.47  3.95 10.80
Si  2.81 -9.24 -6.45
Si  4.97 -4.84  9.32
Si  9.91 -0.99 -6.00
Si -11.53  1.37  0.76
Si -10.69  0.89 -4.52
Si -5.03 -4.84  9.32
Si  4.41 -9.79 -4.52
Si  2.35  5.80  9.83
Si  7.77 -2.37 -8.36
Si -5.81  9.64 -3.04
Si 11.61 -0.48 -1.23
Si  1.80  2.35 11.31
Si  9.33 -6.37 -3.04
Si -3.31 -11.15 -1.23
Si  2.81 -7.71 -8.36
Si -2.65  5.80  9.83
Si -1.86 10.65  4.56
Si -1.68 -10.70  4.56
Si  7.49 -6.30 -6.51
Si  7.72  2.96 -8.36
Si -7.52 -6.30 -6.51
Si -10.10 -0.99 -6.00
Si -11.56 -0.54  2.24
Si  8.31  7.83  2.96
Si -4.84 -6.85 -8.31
Si -7.36 -5.39  7.52
Si -7.44  5.28  7.52
Si -6.02 10.16 -0.72
Si -5.68  8.80  5.53
Si  1.85 -2.99 11.31
Si -1.44  0.94 -11.72
Si -7.33  6.76 -6.45
Si  0.11 -9.16 -7.59
Si  7.57  5.28  7.52
Si  2.35  9.71 -6.51
Si  0.70  3.85 -11.27
Si 11.05  3.94  2.19
Si -8.03 -8.76 -1.17
Si  5.16 -6.85 -8.31
Si  9.15  7.34 -2.31
Si  4.16 -11.18 -0.72
Si -7.41  7.20  6.03
Si  2.47  8.31  8.24
Si  3.53 -11.22  2.24
Si -2.53  8.31  8.24
Si -4.81 -4.94 -9.80
Si -3.20  2.35 11.31
Si -2.65  9.71 -6.51
Si -10.77  4.31 -3.04
Si -1.73 -1.45 -11.79
Si  3.15 10.65  4.56
Si  7.66 -5.39  7.52
Si -2.33  8.30 -8.36
Si -10.98  4.83 -0.72
Si  4.88  5.83  9.32
Si  3.53  3.95 10.80
Si 11.05  2.40  4.11
Si  9.28  6.22 -4.52
Si  7.60  7.20  6.03
Si  2.68  8.30 -8.36
Si  3.33 -10.70  4.56
Si -10.59 -1.87  5.53
Si  7.68  6.76 -6.45
Si 11.89  1.92 -1.17
Si -0.63 -11.70 -3.04
Si -3.15 -2.99 11.31
Si  8.44 -8.19  2.96
Si -5.12  5.83  9.32
Si -4.15 -10.66  4.04
Si  5.20 -4.94 -9.80
Si -4.26 -1.48 -11.27
Si -5.60 -9.79 -4.52
Si  6.51 10.20 -1.23
Si -11.49 -3.96  0.76
Si -1.61 12.05  0.76
Si 11.10 -2.94  4.11
Si  0.30 -7.79  9.39
Si -4.33 10.68  4.04
Si -11.66  2.49  2.96
Si  3.56  0.94 -11.72
Si  0.16  9.76  7.47
Si  7.40  0.47  9.83
Si -9.75 -0.91  7.47
Si -11.61 -2.85  2.96
Si  3.28 -1.45 -11.79
Si -6.65 10.13  2.24
Si  1.18 -12.07  2.19
Si  9.87  4.34 -6.00
Si -4.90  5.74 -9.80
Si  4.82  9.68 -6.00
Si  0.03  9.16 -8.31
Si -10.89 -5.84 -0.72
Si -8.17  8.79 -3.09
Si 11.05  2.49 -5.03
Si -9.71 -7.70  0.25
Si -10.65 -4.45 -4.52
Si -0.78 11.56 -4.52
Si -7.61  0.47  9.83
Si  5.11  5.74 -9.80
Si 11.93 -3.42 -1.17
Si 11.94 -1.89 -3.09
Si -10.64  3.46  5.53
Si  0.16  8.23  9.39
Si 11.10 -2.85 -5.03
Si -5.18  9.68 -6.00
Si  3.39 12.05  0.76
Si -1.77  3.89 -11.79
Si  6.88  2.00 -10.30
Si -10.14  4.34 -6.00
Si -9.01  7.74  4.11
Si -1.40 -4.39 -11.72
Si 11.56  4.86 -1.23
Si -11.77 -0.02  4.56
Si -9.98  1.51 -7.59
Si -5.84 -11.18 -0.72
Si -6.43 -1.39 10.80
Si 10.72  5.35  4.04
Si -4.30  3.85 -11.27
Si 10.03  1.51 -7.59
Si  8.57 -9.30  0.76
Si 10.81 -5.33  4.04
Si 10.26 -0.91  7.47
Si  5.75 -1.48 -11.27
Si  5.68 10.68  4.04
Si -11.61  4.79  2.24
Si 11.89  3.45 -3.09
Si -0.58 -0.42 12.74
Si  1.79 12.59 -1.17
Si  1.84  7.34 -10.30
Si -1.38 -6.72 10.80
Si -10.68 -6.37 -3.04
Si -8.87 -8.27  4.11
