500
set: 38.00  0.00  0.00
Si  0.00  0.00  0.00
Si  0.28 -0.06  2.52
Si -0.28  0.06 -2.52
Si -1.17  2.27  0.00
Si  1.17 -2.27  0.00
Si -2.63  0.00  0.00
Si  2.63  0.00  0.00
Si  1.46  2.27  0.00
Si -1.46 -2.27  0.00
Si  2.35  0.06 -2.52
Si -2.35 -0.06  2.52
Si  0.89 -2.22 -2.52
Si -0.89  2.22  2.52
Si -1.17 -2.33  2.52
Si  1.17  2.33 -2.52
Si  1.46 -2.33  2.52
Si -1.46  2.33 -2.52
Si -1.74 -2.22 -2.52
Si  1.74  2.22  2.52
Si  2.92 -0.06  2.52
Si -2.92  0.06 -2.52
Si -3.81  2.27  0.00
Si  3.81 -2.27  0.00
Si -0.28 -4.55  0.00
Si  0.28  4.55  0.00
Si  4.09  2.27  0.00
Si -4.09 -2.27  0.00
Si -3.52  2.22  2.52
Si  3.52 -2.22 -2.52
Si -0.57  0.11 -5.03
Si  0.57 -0.11  5.03
Si  2.35 -4.55  0.00
Si -2.35  4.55  0.00
Si -3.80 -2.33  2.52
Si  3.80  2.33 -2.52
Si  0.57  4.49  2.52
Si -0.57 -4.49 -2.52
Si -0.00  4.60 -2.52
Si  0.00 -4.60  2.52
Si -5.26  0.00  0.00
Si  5.26  0.00  0.00
Si -4.09  2.33 -2.52
Si  4.09 -2.33  2.52
Si -2.91 -4.55  0.00
Si  2.91  4.55  0.00
Si -2.06 -0.11  5.03
Si  2.06  0.11 -5.03
Si  4.37  2.22  2.52
Si -4.37 -2.22 -2.52
Si  0.60 -2.16 -5.03
Si -0.60  2.16  5.03
Si -2.06  4.49  2.52
Si  2.06 -4.49 -2.52
Si  4.98  0.06 -2.52
Si -4.98 -0.06  2.52
Si  0.89  2.39 -5.03
Si -0.89 -2.39  5.03
Si  1.74 -2.39  5.03
Si -1.74  2.39 -5.03
Si  2.03  2.16  5.03
Si -2.03 -2.16 -5.03
Si  2.63  4.60 -2.52
Si -2.63 -4.60  2.52
Si -2.63  4.60 -2.52
Si  2.63 -4.60  2.52
Si -3.20  0.11 -5.03
Si  3.20 -0.11  5.03
Si -3.20 -4.49 -2.52
Si  3.20  4.49  2.52
Si  5.55 -0.06  2.52
Si -5.55  0.06 -2.52
Si -3.23  2.16  5.03
Si  3.23 -2.16 -5.03
Si -3.52 -2.39  5.03
Si  3.52  2.39 -5.03
Si  4.98 -4.55  0.00
Si -4.98  4.55  0.00
Si -0.85 -4.43 -5.03
Si  0.85  4.43  5.03
Si -6.43  2.27  0.00
Si  6.43 -2.27  0.00
Si  0.29 -4.66  5.03
Si -0.29  4.66 -5.03
Si -0.89  6.82  0.00
Si  0.89 -6.82  0.00
Si  4.69  0.11 -5.03
Si -4.69 -0.11  5.03
Si -1.78  4.43  5.03
Si  1.78 -4.43 -5.03
Si -4.69  4.49  2.52
Si  4.69 -4.49 -2.52
Si -6.15  2.22  2.52
Si  6.15 -2.22 -2.52
Si -1.74 -6.82  0.00
Si  1.74  6.82  0.00
Si  4.37 -2.39  5.03
Si -4.37  2.39 -5.03
Si  6.72  2.27  0.00
Si -6.72 -2.27  0.00
Si -5.54 -4.55  0.00
Si  5.54  4.55  0.00
Si  4.66  2.16  5.03
Si -4.66 -2.16 -5.03
Si  0.61 -6.76 -2.52
Si -0.61  6.76  2.52
Si  2.34  4.66 -5.03
Si -2.34 -4.66  5.03
Si  6.43  2.33 -2.52
Si -6.43 -2.33  2.52
Si -1.18  6.88 -2.52
Si  1.18 -6.88  2.52
Si -5.26 -4.60  2.52
Si  5.26  4.60 -2.52
Si  5.26 -4.60  2.52
Si -5.26  4.60 -2.52
Si  2.92 -4.66  5.03
Si -2.92  4.66 -5.03
Si -1.45 -6.88  2.52
Si  1.45  6.88 -2.52
Si  2.02  6.76  2.52
Si -2.02 -6.76 -2.52
Si -6.72  2.33 -2.52
Si  6.72 -2.33  2.52
Si  3.48  4.43  5.03
Si -3.48 -4.43 -5.03
Si -0.85  0.17 -7.55
Si  0.85 -0.17  7.55
Si  3.52 -6.82  0.00
Si -3.52  6.82  0.00
Si  5.83 -0.11  5.03
Si -5.83  0.11 -5.03
Si  1.78  0.17 -7.55
Si -1.78 -0.17  7.55
Si -7.00 -2.22 -2.52
Si  7.00  2.22  2.52
Si -5.83 -4.49 -2.52
Si  5.83  4.49  2.52
Si  0.32 -2.10 -7.55
Si -0.32  2.10  7.55
Si -7.89  0.00  0.00
Si  7.89  0.00  0.00
Si  3.24 -6.76 -2.52
Si -3.24  6.76  2.52
Si -0.60 -2.44  7.55
Si  0.60  2.44 -7.55
Si  7.61  0.06 -2.52
Si -7.61 -0.06  2.52
Si -5.87  2.16  5.03
Si  5.87 -2.16 -5.03
Si -4.41  4.43  5.03
Si  4.41 -4.43 -5.03
Si  4.37  6.82  0.00
Si -4.37 -6.82  0.00
Si  2.31  2.10  7.55
Si -2.31 -2.10 -7.55
Si  2.03 -2.44  7.55
Si -2.03  2.44 -7.55
Si  3.81 -6.88  2.52
Si -3.81  6.88 -2.52
Si  6.15  2.39 -5.03
Si -6.15 -2.39  5.03
Si  3.48 -0.17  7.55
Si -3.48  0.17 -7.55
Si -2.95  2.10  7.55
Si  2.95 -2.10 -7.55
Si  4.08  6.88 -2.52
Si -4.08 -6.88  2.52
Si -0.32  6.71  5.03
Si  0.32 -6.71 -5.03
Si -4.97 -4.66  5.03
Si  4.97  4.66 -5.03
Si  8.18 -0.06  2.52
Si -8.18  0.06 -2.52
Si  3.23  2.44 -7.55
Si -3.23 -2.44  7.55
Si -4.65 -6.76 -2.52
Si  4.65  6.76  2.52
Si  1.17  6.93 -5.03
Si -1.17 -6.93  5.03
Si -1.46  6.93 -5.03
Si  1.46 -6.93  5.03
Si  2.31  6.71  5.03
Si -2.31 -6.71 -5.03
Si -4.41 -0.17  7.55
Si  4.41  0.17 -7.55
Si -1.14 -4.38 -7.55
Si  1.14  4.38  7.55
Si -5.55  4.66 -5.03
Si  5.55 -4.66  5.03
Si  1.49 -4.38 -7.55
Si -1.49  4.38  7.55
Si -7.61  4.55  0.00
Si  7.61 -4.55  0.00
Si  7.32  0.11 -5.03
Si -7.32 -0.11  5.03
Si -2.95  6.71  5.03
Si  2.95 -6.71 -5.03
Si  0.57 -4.72  7.55
Si -0.57  4.72 -7.55
Si  7.00 -2.39  5.03
Si -7.00  2.39 -5.03
Si -7.32  4.49  2.52
Si  7.32 -4.49 -2.52
Si  6.11  4.43  5.03
Si -6.11 -4.43 -5.03
Si  0.56  9.09  0.00
Si -0.56 -9.09  0.00
Si  7.29  2.16  5.03
Si -7.29 -2.16 -5.03
Si  2.06  4.72 -7.55
Si -2.06 -4.72  7.55
Si  6.15 -6.82  0.00
Si -6.15  6.82  0.00
Si  4.66 -2.44  7.55
Si -4.66  2.44 -7.55
Si  4.94  2.10  7.55
Si -4.94 -2.10 -7.55
Si  5.87 -6.76 -2.52
Si -5.87  6.76  2.52
Si -2.07  9.09  0.00
Si  2.07 -9.09  0.00
Si -9.06  2.27  0.00
Si  9.06 -2.27  0.00
Si -8.17 -4.55  0.00
Si  8.17  4.55  0.00
Si  3.80  6.93 -5.03
Si -3.80 -6.93  5.03
Si -8.78  2.22  2.52
Si  8.78 -2.22 -2.52
Si  0.85  9.04  2.52
Si -0.85 -9.04 -2.52
Si -3.20  4.72 -7.55
Si  3.20 -4.72  7.55
Si  7.89  4.60 -2.52
Si -7.89 -4.60  2.52
Si  7.89 -4.60  2.52
Si -7.89  4.60 -2.52
Si -0.28 -9.15  2.52
Si  0.28  9.15 -2.52
Si -4.09  6.93 -5.03
Si  4.09 -6.93  5.03
Si -3.77 -4.38 -7.55
Si  3.77  4.38  7.55
Si  1.78 -9.04 -2.52
Si -1.78  9.04  2.52
Si  9.35  2.27  0.00
Si -9.35 -2.27  0.00
Si  5.58 -2.10 -7.55
Si -5.58  2.10  7.55
Si -3.19 -9.09  0.00
Si  3.19  9.09  0.00
Si  4.12 -4.38 -7.55
Si -4.12  4.38  7.55
Si -9.06 -2.33  2.52
Si  9.06  2.33 -2.52
Si  6.12 -0.17  7.55
Si -6.12  0.17 -7.55
Si  7.04 -4.43 -5.03
Si -7.04  4.43  5.03
Si -4.94 -6.71 -5.03
Si  4.94  6.71  5.03
Si  6.44 -6.88  2.52
Si -6.44  6.88 -2.52
Si  7.00  6.82  0.00
Si -7.00 -6.82  0.00
Si  2.35 -9.15  2.52
Si -2.35  9.15 -2.52
Si  8.46 -0.11  5.03
Si -8.46  0.11 -5.03
Si -5.86 -2.44  7.55
Si  5.86  2.44 -7.55
Si -8.46 -4.49 -2.52
Si  8.46  4.49  2.52
Si  2.91  9.15 -2.52
Si -2.91 -9.15  2.52
Si  6.71  6.88 -2.52
Si -6.71 -6.88  2.52
Si  9.35 -2.33  2.52
Si -9.35  2.33 -2.52
Si -3.48 -9.04 -2.52
Si  3.48  9.04  2.52
Si -0.04  6.65  7.55
Si  0.04 -6.65 -7.55
Si  4.69  4.72 -7.55
Si -4.69 -4.72  7.55
Si  5.58 -6.71 -5.03
Si -5.58  6.71  5.03
Si  8.50 -2.16 -5.03
Si -8.50  2.16  5.03
Si  1.14 -0.23 10.07
Si -1.14  0.23 -10.07
Si  1.49  0.23 -10.07
Si -1.49 -0.23 10.07
Si  9.63  2.22  2.52
Si -9.63 -2.22 -2.52
Si -4.70  9.09  0.00
Si  4.70 -9.09  0.00
Si -7.60 -4.66  5.03
Si  7.60  4.66 -5.03
Si -7.28 -6.76 -2.52
Si  7.28  6.76  2.52
Si -0.04  2.05 10.07
Si  0.04 -2.05 -10.07
Si -7.04 -0.17  7.55
Si  7.04  0.17 -7.55
Si  0.88  6.99 -7.55
Si -0.88 -6.99  7.55
Si -1.13 -8.98 -5.03
Si  1.13  8.98  5.03
Si  4.41 -9.04 -2.52
Si -4.41  9.04  2.52
Si  0.32  2.50 -10.07
Si -0.32 -2.50 10.07
Si  2.59  6.65  7.55
Si -2.59 -6.65 -7.55
Si -8.78 -2.39  5.03
Si  8.78  2.39 -5.03
Si -1.50  8.98  5.03
Si  1.50 -8.98 -5.03
Si  2.67 -6.65 -7.55
Si -2.67  6.65  7.55
Si  1.75 -6.99  7.55
Si -1.75  6.99 -7.55
Si  0.01 -9.21  5.03
Si -0.01  9.21 -5.03
Si 10.52  0.00  0.00
Si -10.52  0.00  0.00
Si 10.24  0.06 -2.52
Si -10.24 -0.06  2.52
Si  2.60  2.05 10.07
Si -2.60 -2.05 -10.07
Si  2.67 -2.05 -10.07
Si -2.67  2.05 10.07
Si  2.31 -2.50 10.07
Si -2.31  2.50 -10.07
Si  5.83 -4.72  7.55
Si -5.83  4.72 -7.55
Si  8.18 -4.66  5.03
Si -8.18  4.66 -5.03
Si  6.43  6.93 -5.03
Si -6.43 -6.93  5.03
Si -4.98  9.15 -2.52
Si  4.98 -9.15  2.52
Si -3.77  0.23 -10.07
Si  3.77 -0.23 10.07
Si  7.29 -2.44  7.55
Si -7.29  2.44 -7.55
Si  2.95  2.50 -10.07
Si -2.95 -2.50 10.07
Si  5.83  9.09  0.00
Si -5.83 -9.09  0.00
Si  2.62  9.21 -5.03
Si -2.62 -9.21  5.03
Si -2.64  9.21 -5.03
Si  2.64 -9.21  5.03
Si -6.40 -4.38 -7.55
Si  6.40  4.38  7.55
Si  3.51  6.99 -7.55
Si -3.51 -6.99  7.55
Si -4.12 -0.23 10.07
Si  4.12  0.23 -10.07
Si  6.72 -6.93  5.03
Si -6.72  6.93 -5.03
Si  7.57  2.10  7.55
Si -7.57 -2.10 -7.55
Si  3.76  8.98  5.03
Si -3.76 -8.98 -5.03
Si -5.54 -9.15  2.52
Si  5.54  9.15 -2.52
Si  8.74  4.43  5.03
Si -8.74 -4.43 -5.03
Si -1.21  4.32 10.07
Si  1.21 -4.32 -10.07
Si -6.75  4.38  7.55
Si  6.75 -4.38 -7.55
Si -1.42 -4.32 -10.07
Si  1.42  4.32 10.07
Si -4.13  8.98  5.03
Si  4.13 -8.98 -5.03
Si 10.81 -0.06  2.52
Si -10.81  0.06 -2.52
Si  8.78 -6.82  0.00
Si -8.78  6.82  0.00
Si  9.63 -2.39  5.03
Si -9.63  2.39 -5.03
Si  8.50 -6.76 -2.52
Si -8.50  6.76  2.52
Si  9.95  0.11 -5.03
Si -9.95 -0.11  5.03
Si  0.86 -4.77 10.07
Si -0.86  4.77 -10.07
Si  4.38 -6.99  7.55
Si -4.38  6.99 -7.55
Si  6.11  9.04  2.52
Si -6.11 -9.04 -2.52
Si -10.24  4.55  0.00
Si 10.24 -4.55  0.00
Si -9.96  4.49  2.52
Si  9.96 -4.49 -2.52
Si  1.77  4.77 -10.07
Si -1.77 -4.77 10.07
Si  7.57  6.71  5.03
Si -7.57 -6.71 -5.03
Si  9.92  2.16  5.03
Si -9.92 -2.16 -5.03
Si  5.22  6.65  7.55
Si -5.22 -6.65 -7.55
Si -8.21  2.10  7.55
Si  8.21 -2.10 -7.55
Si  5.30 -6.65 -7.55
Si -5.30  6.65  7.55
Si -0.61 11.37  0.00
Si  0.61 -11.37  0.00
Si -4.94  2.50 -10.07
Si  4.94 -2.50 10.07
Si -7.32 -4.72  7.55
Si  7.32  4.72 -7.55
Si  5.23  2.05 10.07
Si -5.23 -2.05 -10.07
Si  2.02 11.37  0.00
Si -2.02 -11.37  0.00
Si  8.75 -0.17  7.55
Si -8.75  0.17 -7.55
Si -5.29  2.05 10.07
Si  5.29 -2.05 -10.07
Si -0.33 11.31  2.52
Si  0.33 -11.31 -2.52
Si  3.84 -4.32 -10.07
Si -3.84  4.32 10.07
Si -8.49 -2.44  7.55
Si  8.49  2.44 -7.55
Si  9.07 -6.88  2.52
Si -9.07  6.88 -2.52
Si -3.49  4.77 -10.07
Si  3.49 -4.77 10.07
Si -7.33  9.09  0.00
Si  7.33 -9.09  0.00
Si -4.05 -4.32 -10.07
Si  4.05  4.32 10.07
Si -10.80 -4.55  0.00
Si 10.80  4.55  0.00
Si -7.04  9.04  2.52
Si  7.04 -9.04 -2.52
Si -0.90 11.42 -2.52
Si  0.90 -11.42  2.52
Si  5.25  9.21 -5.03
Si -5.25 -9.21  5.03
Si  8.21 -6.71 -5.03
Si -8.21  6.71  5.03
Si -5.27  9.21 -5.03
Si  5.27 -9.21  5.03
Si -1.21  8.92  7.55
Si  1.21 -8.92 -7.55
Si -10.52 -4.60  2.52
Si 10.52  4.60 -2.52
Si -10.53  4.60 -2.52
Si 10.53 -4.60  2.52
Si  9.67 -4.43 -5.03
Si -9.67  4.43  5.03
Si  1.42  8.92  7.55
Si -1.42 -8.92 -7.55
Si -5.58 -2.50 10.07
Si  5.58  2.50 -10.07
Si -9.63 -6.82  0.00
Si  9.63  6.82  0.00
Si  2.31 11.31  2.52
Si -2.31 -11.31 -2.52
Si  3.24 -11.37  0.00
Si -3.24 11.37  0.00
Si  1.74 11.42 -2.52
Si -1.74 -11.42  2.52
Si -9.35 -6.88  2.52
Si  9.35  6.88 -2.52
Si -11.41  2.22  2.52
Si 11.41 -2.22 -2.52
Si -11.70  2.27  0.00
Si 11.70 -2.27  0.00
Si  6.40 -0.23 10.07
Si -6.40  0.23 -10.07
Si  0.29 -9.26  7.55
Si -0.29  9.26 -7.55
Si -2.96 11.31  2.52
Si  2.96 -11.31 -2.52
Si  4.40  4.77 -10.07
Si -4.40 -4.77 10.07
Si  6.14  6.99 -7.55
Si -6.14 -6.99  7.55
Si -0.25 -6.59 -10.07
Si  0.25  6.59 10.07
Si -6.39 -8.98 -5.03
Si  6.39  8.98  5.03
Si  6.75  0.23 -10.07
Si -6.75 -0.23 10.07
Si  7.61 -9.15  2.52
Si -7.61  9.15 -2.52
Si  2.34  9.26 -7.55
Si -2.34 -9.26  7.55
Si -11.09  0.11 -5.03
Si 11.09 -0.11  5.03
Si -11.69 -2.33  2.52
