500
set: 1137.00  0.00  0.00
Si -0.04  0.00 -0.03
Si  0.07  0.02  2.36
Si  0.02  0.02 -2.47
Si -2.52 -0.01  0.03
Si  1.29 -2.18  0.04
Si -1.29 -2.24  0.04
Si  1.30  2.24 -0.02
Si  2.64  0.00 -0.02
Si -1.33  2.30 -0.05
Si  1.20 -2.24 -2.39
Si -2.53 -0.03  2.44
Si  1.24  2.26 -2.40
Si -2.53 -0.04 -2.46
Si -1.21 -2.21  2.47
Si -1.30 -2.26 -2.38
Si  2.54 -0.01 -2.45
Si -1.35  2.19 -2.42
Si -1.35  2.23  2.38
Si  1.32  2.22  2.45
Si  2.63 -0.04  2.41
Si  1.31 -2.27  2.48
Si -3.86 -2.18  0.04
Si  0.03 -4.45  0.01
Si  3.84  2.28 -0.01
Si -0.05  4.49  0.00
Si  3.88 -2.27 -0.03
Si -3.88  2.27 -0.01
Si -0.03  0.02  4.79
Si -0.03  0.02 -4.90
Si  3.83  2.16 -2.41
Si -0.01  4.40  2.42
Si -3.85  2.19 -2.41
Si  3.82 -2.18 -2.47
Si -0.08  4.43 -2.42
Si  3.84  2.21  2.45
Si -3.84 -2.31 -2.39
Si -3.87 -2.25  2.44
Si -3.89  2.22  2.43
Si  2.53 -4.43  0.04
Si -0.04 -4.50 -2.41
Si  3.90 -2.28  2.40
Si  0.03 -4.49  2.48
Si -5.13 -0.05  0.01
Si -2.63 -4.42  0.03
Si  2.51  4.50  0.03
Si  5.18 -0.05  0.01
Si -2.65  4.50  0.04
Si  1.27 -2.13 -4.83
Si -1.26  2.25  4.80
Si  1.27 -2.13  4.86
Si  2.60  0.02  4.80
Si  1.34  2.16 -4.83
Si -1.35 -2.23 -4.82
Si  1.34  2.16  4.86
Si -2.64  0.03  4.84
Si -2.64  0.03 -4.85
Si -1.35 -2.23  4.87
Si -1.26  2.25 -4.89
Si  2.60  0.02 -4.89
Si -5.11 -0.04 -2.38
Si -5.10  0.02  2.41
Si -2.58 -4.42  2.44
Si -2.51 -4.47 -2.44
Si  2.60 -4.43  2.43
Si -2.62  4.44 -2.46
Si  2.56 -4.48 -2.46
Si  2.62  4.45 -2.44
Si -2.58  4.49  2.43
Si  2.56  4.50  2.44
Si  5.21 -0.04 -2.38
Si  5.21  0.02  2.41
Si  0.03 -4.38 -4.79
Si -0.06  4.39 -4.83
Si -0.06  4.39  4.86
Si  3.92 -2.18  4.79
Si  0.03 -4.38  4.90
Si -3.86 -2.29 -4.84
Si -3.85  2.31 -4.84
Si -3.85  2.31  4.85
Si -3.86 -2.29  4.85
Si  3.94  2.22  4.83
Si  3.94  2.22 -4.86
Si  3.92 -2.18 -4.90
Si -1.30 -6.64 -0.01
Si  1.30 -6.65 -0.01
Si -1.30  6.66 -0.03
Si  5.13 -4.44  0.00
Si  6.46 -2.18  0.04
Si -5.15  4.48  0.01
Si -5.18 -4.44  0.00
Si  6.44  2.27 -0.01
Si -6.44 -2.27 -0.03
Si  5.17  4.48  0.01
Si  1.28  6.74  0.04
Si -6.48  2.28 -0.01
Si  2.53 -4.35  4.79
Si -5.10  0.01  4.80
Si  2.53 -4.35 -4.90
Si  2.58  4.42  4.83
Si  2.58  4.42 -4.86
Si -5.10  0.02 -4.89
Si -2.56 -4.50  4.83
Si  5.22  0.01  4.80
Si -2.56 -4.50 -4.86
Si -2.65  4.58  4.79
Si  1.29  6.61 -2.39
Si  5.22  0.02 -4.89
Si  5.10  4.42 -2.41
Si -1.28  6.65  2.40
Si -2.65  4.58 -4.90
Si  5.11 -4.49 -2.42
Si  1.27  6.67  2.44
Si  0.02  0.02  7.22
Si -6.42 -2.28  2.40
Si  6.43  2.22  2.43
Si -5.15  4.43  2.48
Si  6.46  2.19 -2.41
Si  5.17  4.43  2.48
Si  1.29 -6.70  2.43
Si -6.49  2.16 -2.41
Si -5.22  4.42 -2.41
Si  6.45 -2.25  2.44
Si -1.29 -6.72  2.45
Si -6.48  2.21  2.45
Si -5.15 -4.52  2.42
Si  1.33 -6.73 -2.41
Si  6.47 -2.31 -2.39
Si  5.17 -4.52  2.42
Si -6.50 -2.18 -2.47
Si -5.21 -4.49 -2.42
Si -1.31 -6.76 -2.41
Si -1.36  6.74 -2.47
Si  0.07  0.03 -7.33
Si -1.21 -2.21 -7.22
Si  3.85 -6.62 -0.05
Si -2.53 -0.04  7.23
Si  1.31 -2.27 -7.21
Si  2.54 -0.01  7.24
Si -2.53 -0.03 -7.25
Si -7.68  0.00 -0.02
Si  1.32  2.22 -7.24
Si -3.83 -6.68 -0.02
Si  3.85  6.68  0.04
Si -1.35  2.19  7.27
Si  1.24  2.26  7.28
Si  1.20 -2.24  7.30
Si  2.63 -0.04 -7.28
Si -1.30 -2.26  7.30
Si -1.35  2.23 -7.31
Si -3.89  6.74  0.04
Si  7.80 -0.01  0.03
Si  3.84  6.67 -2.38
Si -7.69 -0.04  2.41
Si  3.83 -6.69  2.38
Si -3.87  6.66  2.48
Si -3.90 -6.67 -2.40
Si -3.82 -6.70  2.45
Si  3.83 -6.73 -2.42
Si -3.98  6.68 -2.39
Si -7.77 -0.01 -2.45
Si  7.79 -0.03  2.44
Si  3.93  6.71  2.47
Si  7.79 -0.04 -2.46
Si -6.40 -2.18  4.79
Si -6.38  2.22  4.83
Si  1.33 -6.62 -4.84
Si  1.28  6.63 -4.84
Si  1.33 -6.62  4.85
Si  1.28  6.63  4.85
Si -6.38  2.22 -4.86
Si -6.40 -2.18 -4.90
Si -1.20 -6.71  4.83
Si -1.26  6.74  4.79
Si -1.20 -6.71 -4.86
Si -5.15  4.55 -4.79
Si  5.12 -4.53 -4.83
Si  6.46 -2.29 -4.84
Si  5.12 -4.53  4.86
Si  5.17  4.55 -4.79
Si  6.46 -2.29  4.85
Si  6.47  2.31 -4.84
Si  6.47  2.31  4.85
Si -5.19 -4.53 -4.83
Si -5.19 -4.53  4.86
Si -1.26  6.74 -4.90
Si -5.15  4.55  4.90
Si  5.17  4.55  4.90
Si  3.82 -2.18  7.22
Si  3.84  2.21 -7.24
Si -0.01  4.40 -7.26
Si  0.03 -4.49 -7.21
Si  3.83  2.16  7.28
Si -3.87 -2.25 -7.25
Si -0.08  4.43  7.27
Si -3.85  2.19  7.28
Si -3.89  2.22 -7.26
Si -0.04 -4.50  7.28
Si -3.84 -2.31  7.30
Si  3.90 -2.27 -7.29
Si  0.00  8.87  0.01
Si  7.69 -4.42  0.03
Si -2.58 -4.42 -7.25
Si -2.51 -4.47  7.25
Si -2.62  4.44  7.23
Si  2.56 -4.48  7.23
Si  7.67  4.50  0.04
Si -5.10  0.02 -7.28
Si  2.60 -4.43 -7.26
Si  2.62  4.45  7.25
Si  2.56  4.50 -7.25
Si -2.58  4.49 -7.26
Si -5.11 -0.04  7.31
Si  5.21  0.02 -7.28
Si -7.79 -4.43  0.04
Si  5.21 -0.04  7.31
Si  0.05 -8.98  0.01
Si -7.81  4.50  0.03
Si  7.68  0.03  4.84
Si  7.68  0.03 -4.85
Si  3.79  6.70 -4.82
Si -7.72  0.02  4.80
Si  3.92 -6.67  4.80
Si  3.79  6.70  4.87
Si -7.72  0.02 -4.89
Si -3.80 -6.76 -4.83
Si -3.80 -6.76  4.86
Si  3.92 -6.67 -4.89
Si  0.03  8.88 -2.38
Si -3.91  6.79 -4.83
Si -7.70  4.45 -2.44
Si  7.70  4.44 -2.46
Si  0.08 -8.90  2.41
Si -7.71 -4.43  2.43
Si -3.91  6.79  4.86
Si  7.74 -4.42  2.44
Si -6.47 -6.62 -0.05
Si  0.03  8.94  2.41
Si -2.50 -8.92 -0.02
Si  7.74  4.49  2.43
Si  8.99  2.30 -0.05
Si  0.07 -8.97 -2.38
Si -2.54  8.92 -0.02
Si -9.01  2.24 -0.02
Si -9.03 -2.18  0.04
Si  2.62  8.91  0.03
Si -7.76 -4.48 -2.46
Si -7.76  4.50  2.44
Si -6.47  6.68  0.04
Si  9.03 -2.24  0.04
Si  6.49 -6.68 -0.02
Si  6.43  6.74  0.04
Si  7.80 -4.47 -2.44
Si  2.66 -8.93  0.03
Si  6.33  6.68 -2.39
Si  8.96  2.23  2.38
Si  8.97  2.19 -2.42
Si -2.55  8.89  2.41
Si  6.42 -6.67 -2.40
Si  2.61  8.88 -2.46
Si  2.61  8.89  2.44
Si -9.00  2.22  2.45
Si -6.39  6.71  2.47
Si  6.45  6.66  2.48
Si -6.48  6.67 -2.38
Si  9.02 -2.26 -2.38
Si -9.01 -2.27  2.48
Si -2.51 -8.96  2.41
Si -2.64  8.91 -2.45
Si -2.59 -8.93 -2.45
Si -6.49 -6.69  2.38
Si  6.50 -6.70  2.45
Si  2.65 -8.96  2.44
Si -6.49 -6.73 -2.42
Si -0.04  0.00  9.66
Si -9.08  2.26 -2.40
Si  2.65 -8.97 -2.46
Si -9.12 -2.24 -2.39
Si  9.11 -2.21  2.47
Si -0.04  0.00 -9.72
Si -5.15  4.43 -7.21
Si  5.17  4.43 -7.21
Si  5.10  4.42  7.28
Si  1.27  6.67 -7.25
Si  1.29  6.61  7.30
Si  6.43  2.22 -7.26
Si -1.28  6.65 -7.29
Si -6.50 -2.18  7.22
Si  5.11 -4.49  7.27
Si -1.30 -6.72 -7.24
Si -6.48  2.21 -7.24
Si  1.29 -6.70 -7.26
Si  6.45 -2.25 -7.25
Si -1.36  6.74  7.22
Si  1.29 -2.18 -9.64
Si -6.42 -2.27 -7.29
Si  6.46  2.19  7.28
Si -6.49  2.16  7.28
Si -2.52 -0.01 -9.66
Si -5.15 -4.52 -7.26
Si -5.22  4.42  7.28
Si -1.29 -2.24 -9.65
Si  5.17 -4.52 -7.26
Si -1.33  2.30  9.64
Si  1.33 -6.73  7.28
Si  1.30  2.24  9.66
Si -5.21 -4.49  7.27
Si -1.31 -6.76  7.28
Si  2.64  0.00  9.67
Si  6.47 -2.31  7.30
Si -2.52 -0.01  9.71
Si  1.30  2.24 -9.71
Si  2.64  0.00 -9.71
Si  1.29 -2.18  9.73
Si -1.29 -2.24  9.72
Si -1.33  2.30 -9.74
Si  0.08 -8.91  4.80
Si -7.79 -4.35  4.79
Si  7.67  4.58  4.79
Si -7.74  4.42  4.83
Si  0.04  8.94  4.80
Si -7.74  4.42 -4.86
Si  0.08 -8.91 -4.89
Si -7.79 -4.35 -4.90
Si  7.76 -4.50  4.83
Si  0.04  8.94 -4.89
Si  7.67  4.58 -4.90
Si  7.76 -4.50 -4.86
Si  5.10  8.93 -0.03
Si 10.28  0.00 -0.03
Si  5.14 -8.92 -0.03
Si -5.18 -8.92 -0.03
Si -5.22  8.93 -0.03
Si -10.36  0.00 -0.03
Si -6.40 -6.67  4.80
Si  8.97 -2.23 -4.82
Si -8.98  2.16 -4.83
Si -2.54 -8.91  4.80
Si -8.98  2.16  4.86
Si  2.54 -8.89  4.84
Si  2.54 -8.89 -4.85
Si  8.97 -2.23  4.87
Si -6.40 -6.67 -4.89
Si -2.54 -8.90 -4.89
Si -2.58  8.94  4.80
Si -9.05 -2.13 -4.83
Si  2.50  8.95  4.84
Si  2.50  8.95 -4.85
Si  9.05  2.25  4.80
Si -9.05 -2.13  4.86
Si -5.07 -8.90  2.36
Si  6.41  6.79 -4.83
Si -2.58  8.94 -4.89
Si -10.25  0.02  2.36
Si -6.53  6.70 -4.82
Si  6.41  6.79  4.86
Si  9.05  2.25 -4.89
Si -6.53  6.70  4.87
Si -3.87  6.66 -7.21
Si  6.52 -6.76 -4.83
Si -5.12 -8.91 -2.47
Si -5.11  8.95  2.36
Si  6.52 -6.76  4.86
Si -3.82 -6.70 -7.24
Si -7.69 -0.04 -7.28
Si -10.30  0.02 -2.47
Si  5.25 -8.90  2.36
Si  3.84  6.66  7.30
Si  5.20 -8.91 -2.47
Si  3.93  6.71 -7.22
Si -5.16  8.94 -2.47
Si  5.16  8.94 -2.47
Si -3.90 -6.67  7.28
Si  5.21  8.95  2.36
Si  3.83 -6.69 -7.31
Si -3.86 -2.18 -9.65
Si -7.77 -0.01  7.24
Si  3.83 -6.73  7.27
Si  7.79 -0.04  7.23
Si 10.34  0.02 -2.47
Si  7.79 -0.03 -7.25
Si  0.03 -4.45 -9.68
Si  3.88 -2.27  9.66
Si 10.39  0.02  2.36
Si  3.84  2.28  9.68
Si -3.98  6.68  7.30
Si  0.03 -4.45  9.70
Si -3.88  2.27  9.68
Si -0.05  4.49 -9.68
Si  3.84  2.28 -9.70
Si -0.05  4.49  9.69
Si -3.86 -2.18  9.72
Si -3.88  2.27 -9.70
Si  3.88 -2.27 -9.72
Si  2.53 -4.43 -9.65
Si -2.63 -4.42 -9.66
Si  2.51  4.50 -9.66
Si -5.13 -0.05 -9.67
Si -2.65  4.50 -9.65
Si  5.18 -0.05 -9.67
Si -5.13 -0.05  9.70
Si  2.53 -4.43  9.72
Si -2.63 -4.42  9.71
Si  2.51  4.50  9.71
Si  5.18 -0.05  9.70
Si -2.65  4.49  9.72
Si  1.32 -11.11  0.04
Si  9.02 -6.64 -0.01
Si  9.02  6.66 -0.03
Si -10.29 -4.45  0.01
Si -9.02 -6.65 -0.01
Si 10.27  4.49  0.00
Si -1.26 -11.19 -0.03
Si  1.26 11.19 -0.01
Si 10.35 -4.45  0.01
Si -9.04  6.74  0.04
Si -1.34 11.20 -0.01
Si -10.37  4.49  0.00
Si 10.29  0.02  4.79
Si  5.15 -8.91  4.79
Si  5.11  8.94  4.79
Si -5.17 -8.91  4.79
Si 10.29  0.02 -4.90
Si  5.15 -8.91 -4.90
Si -5.21  8.94  4.79
Si -10.35  0.02  4.79
Si  5.11  8.94 -4.90
Si -5.17 -8.91 -4.90
Si 10.24  4.43 -2.42
Si -1.35 11.08 -2.41
Si -9.03  6.61 -2.39
Si  1.28 11.11 -2.41
Si -5.21  8.94 -4.90
Si -10.35  0.02 -4.90
Si -1.32 -11.11 -2.47
Si  7.70  4.44  7.23
Si 10.31  4.40  2.42
Si -7.70  4.45  7.25
Si  9.04  6.65  2.40
Si  1.25 11.14  2.43
Si -1.34 11.13  2.45
Si 10.28 -4.50 -2.41
Si  8.96  6.74 -2.47
Si -7.71 -4.43 -7.26
Si  7.74 -4.42 -7.25
Si -10.33  4.40  2.42
Si -8.99 -6.73 -2.41
Si -10.29 -4.49  2.48
Si  0.08 -8.90 -7.28
Si -9.05  6.67  2.44
Si  0.03  8.88  7.31
Si -9.03 -6.70  2.43
Si  9.02 -6.72  2.45
Si -7.76 -4.48  7.23
Si  1.32 -11.18  2.44
Si -1.24 -11.20  2.40
Si  7.74  4.49 -7.26
Si  9.01 -6.76 -2.41
Si  0.03  8.94 -7.28
Si -7.76  4.50 -7.25
Si -10.36 -4.50 -2.41
Si 10.35 -4.49  2.48
Si  7.80 -4.47  7.25
Si -10.39  4.43 -2.42
Si  1.34 -11.24 -2.39
Si  0.07 -8.97  7.31
Si  6.45  6.66 -7.21
Si -6.39  6.71 -7.22
Si  2.61  8.88  7.23
Si  6.33  6.68  7.30
Si  8.97  2.19  7.27
Si -3.85 -11.11  0.04
Si -9.01 -2.27 -7.21
Si -9.00  2.22 -7.24
Si  2.61  8.89 -7.25
Si -7.66 -8.93  0.03
Si -2.55  8.89 -7.28
Si  6.42 -6.67  7.28
Si  8.96  2.23 -7.31
Si -7.70  8.91  0.03
Si -2.64  8.91  7.24
Si -2.59 -8.93  7.24
Si -1.30  6.65  9.66
Si  6.50 -6.70 -7.24
Si 11.61 -2.18  0.04
Si -1.30 -6.64  9.68
Si -2.51 -8.96 -7.28
Si  1.30 -6.66  9.68
Si  6.46 -2.18 -9.65
Si -3.88 11.16 -0.02
Si -11.61 -2.24  0.04
Si -6.48  6.66  7.30
Si  2.65 -8.97  7.23
Si  2.65 -8.96 -7.25
Si  3.89 -11.16  0.04
Si  9.02 -2.26  7.30
Si  5.13 -4.44 -9.68
Si -1.30 -6.64 -9.70
Si -6.44 -2.27  9.66
Si  9.11 -2.21 -7.22
Si  5.13 -4.44  9.69
