500
set: 1437.00  0.00  0.00
Si  0.39  0.16  1.17
Si  1.10  1.41 -0.19
Si  1.04  0.10 -2.22
Si -1.81 -0.82  1.97
Si  2.12 -0.82  1.97
Si -0.51  3.06  0.30
Si -2.83  1.41 -0.19
Si -1.25 -1.59 -2.63
Si -0.67  1.67 -2.97
Si -0.10 -2.39  2.72
Si -2.89  0.10 -2.22
Si  0.35  2.33  2.89
Si -3.54  0.16  1.17
Si  2.68 -1.59 -2.63
Si -0.60  3.97 -1.28
Si -1.74  1.48  3.65
Si -1.15 -3.79 -2.04
Si  4.32  0.16  1.17
Si  2.19  1.48  3.65
Si  3.42  3.06  0.30
Si  3.26  1.67 -2.97
Si  1.53  2.64 -3.77
Si -0.04 -1.07  4.74
Si  0.70 -4.64 -1.28
Si  1.54 -4.08  2.30
Si  0.24  4.53  2.30
Si  2.78 -3.79 -2.04
Si -3.58  2.33  2.89
Si -2.40  2.64 -3.77
Si  5.03  1.41 -0.19
Si -2.39 -4.08  2.30
Si  3.83 -2.39  2.72
Si  3.33  3.97 -1.28
Si -4.43  3.06  0.30
Si -4.03 -2.39  2.72
Si  1.49  4.82 -2.04
Si  4.97  0.10 -2.22
Si -1.64  0.58  5.23
Si  0.79 -5.55  0.30
Si  4.28  2.33  2.89
Si -4.60  1.67 -2.97
Si  2.29  0.58  5.23
Si -2.44  4.82 -2.04
Si -3.23 -4.64 -1.28
Si  1.93 -3.06 -4.63
Si -2.00 -3.06 -4.63
Si -5.18 -1.59 -2.63
Si -5.74 -0.82  1.97
Si -4.53  3.97 -1.28
Si  3.89 -1.07  4.74
Si -3.69  4.53  2.30
Si -3.97 -1.07  4.74
Si -3.14 -5.55  0.30
Si  6.05 -0.82  1.97
Si -0.75 -2.33  6.10
Si  4.17  4.53  2.30
Si -1.69  3.90 -5.12
Si -5.08 -3.79 -2.04
Si  4.63 -4.64 -1.28
Si  2.24  3.90 -5.12
Si  1.83 -2.15 -6.22
Si -5.67  1.48  3.65
Si -2.10 -2.15 -6.22
Si -6.76  1.41 -0.19
Si -1.40  6.22  2.72
Si -0.40 -4.71 -5.12
Si -0.01 -1.31 -6.97
Si  1.64 -6.28  2.89
Si  5.46  2.64 -3.77
Si -1.11 -5.97 -3.77
Si -6.82  0.10 -2.22
Si  5.47 -4.08  2.30
Si  2.54  6.22  2.72
Si  0.63  5.55 -4.63
Si  3.18 -2.33  6.10
Si  6.12  1.48  3.65
Si -2.29 -6.28  2.89
Si  4.72 -5.55  0.30
Si  6.61 -1.59 -2.63
Si -1.54 -7.20 -0.19
Si  5.42  4.82 -2.04
Si -7.47  0.16  1.17
Si -0.90  2.04  7.23
Si  0.62 -6.94 -2.97
Si  2.39 -7.20 -0.19
Si  2.82 -5.97 -3.77
Si  1.38  7.02 -2.63
Si -0.12  0.89 -7.57
Si -5.58  0.58  5.23
Si  0.98 -3.31  6.90
Si -1.75  2.58 -7.15
Si  3.53 -4.71 -5.12
Si -6.33  2.64 -3.77
Si -6.32 -4.08  2.30
Si -0.79 -0.16  7.83
Si  2.18  2.58 -7.15
Si -2.55  7.02 -2.63
Si -3.30  5.55 -4.63
Si  7.19  1.67 -2.97
Si  7.36  3.06  0.30
Si  6.71 -3.79 -2.04
Si -0.44 -7.13  3.65
Si -4.68 -2.33  6.10
Si  5.86 -3.06 -4.63
Si  0.82  7.79  1.97
Si  3.03  2.04  7.23
Si  3.92 -1.31 -6.97
Si -3.94 -1.31 -6.97
Si -5.93 -3.06 -4.63
Si  6.22  0.58  5.23
Si -4.33 -4.71 -5.12
Si -2.95 -3.31  6.90
Si -6.37  4.82 -2.04
Si -3.31 -6.94 -2.97
Si  8.25  0.16  1.17
Si  7.26  3.97 -1.28
Si -7.51  2.33  2.89
Si  3.14 -0.16  7.83
Si  3.82  0.89 -7.57
Si -5.62  3.90 -5.12
Si  4.56  5.55 -4.63
Si  7.76 -2.39  2.72
Si -3.10  7.79  1.97
Si -5.33  6.22  2.72
Si  1.40  3.73  7.65
Si -4.04  0.89 -7.57
Si -7.17 -4.64 -1.28
Si -5.04 -5.97 -3.77
Si  1.68 -8.45  1.17
Si -0.31  5.30  6.90
Si  1.05 -1.01  8.59
Si  3.49 -7.13  3.65
Si -7.96 -2.39  2.72
Si  5.76 -2.15 -6.22
Si  4.55 -6.94 -2.97
Si -2.25 -8.45  1.17
Si -2.53  3.73  7.65
Si  5.58 -6.28  2.89
Si -0.91  8.77  1.17
Si -8.37  3.06  0.30
Si  6.17  3.90 -5.12
Si -6.03 -2.15 -6.22
Si -4.83  2.04  7.23
Si  0.47  4.15 -7.90
Si -1.60 -8.52 -2.22
Si  1.88  6.28  6.10
Si  0.54  6.46 -6.22
Si -0.26  8.71 -2.22
Si -2.05  6.28  6.10
Si -7.07 -5.55  0.30
Si -1.34  7.54  4.74
Si  8.21  2.33  2.89
Si -5.47 -7.20 -0.19
Si  8.96  1.41 -0.19
Si  4.91 -3.31  6.90
Si  2.33 -8.52 -2.22
Si -2.88 -1.01  8.59
Si -4.37 -7.13  3.65
Si -4.72 -0.16  7.83
Si -7.62  4.53  2.30
Si -1.24 -4.88  7.65
Si  8.90  0.10 -2.22
Si -8.53  1.67 -2.97
Si  5.31  7.02 -2.63
Si  7.82 -1.07  4.74
Si  1.76 -4.46 -7.90
Si  2.59  7.54  4.74
Si -7.90 -1.07  4.74
Si -6.22 -6.28  2.89
Si -2.17 -4.46 -7.90
Si  4.75  7.79  1.97
Si  3.02  8.77  1.17
Si -0.46 -6.03 -7.15
Si  0.03 -3.48 -8.70
Si  6.47  6.22  2.72
Si  3.62  5.30  6.90
Si -8.46  3.97 -1.28
Si  2.69 -4.88  7.65
Si -5.68  2.58 -7.15
Si  8.10  4.53  2.30
Si -3.46  4.15 -7.90
Si -3.39  6.46 -6.22
Si  6.32 -7.20 -0.19
Si -0.35 -8.03  5.23
Si -9.11 -1.59 -2.63
Si -0.86 -0.57 -9.57
Si -0.52 -9.43  1.97
Si  7.11 -2.33  6.10
Si -4.24  5.30  6.90
Si  3.67  8.71 -2.22
Si  6.11  2.58 -7.15
Si  6.75 -5.97 -3.77
Si  0.40 -6.57  7.23
Si  8.56 -4.64 -1.28
Si -9.67 -0.82  1.97
Si -6.48  7.02 -2.63
Si -4.19  8.71 -2.22
Si  4.40  4.15 -7.90
Si  3.47 -6.03 -7.15
Si  4.98 -1.01  8.59
Si -9.01 -3.79 -2.04
Si  4.47  6.46 -6.22
Si -0.20 10.02 -0.19
Si  5.33  3.73  7.65
Si  3.07 -0.57 -9.57
Si -4.84  8.77  1.17
Si -3.90 -3.48 -8.70
Si  3.96 -3.48 -8.70
Si -1.26  5.13 -8.70
Si -1.30  7.30 -6.97
Si  7.46 -4.71 -5.12
Si  9.98 -0.82  1.97
Si  5.61 -8.45  1.17
Si  3.41 -9.43  1.97
Si -7.23  5.55 -4.63
Si  3.58 -8.03  5.23
Si  6.96  2.04  7.23
Si  8.65 -5.55  0.30
Si -6.88 -3.31  6.90
Si  0.74 -2.22 -10.06
Si -4.39 -6.03 -7.15
Si -5.27  7.54  4.74
Si -9.60  1.48  3.65
Si -1.18 -3.56  9.68
Si -3.53 -6.57  7.23
Si -5.53 -8.52 -2.22
Si  1.15 -1.91 10.17
Si  2.63  7.30 -6.97
Si -5.17 -4.88  7.65
Si  2.67  5.13 -8.70
Si  9.39  2.64 -3.77
Si -7.24 -6.94 -2.97
Si -4.28 -8.03  5.23
Si  9.40 -4.08  2.30
Si  5.81  6.28  6.10
Si -6.18 -8.45  1.17
Si  0.04 -10.20 -2.63
Si  7.07 -0.16  7.83
Si  7.85 -1.31 -6.97
Si -7.87 -1.31 -6.97
Si -5.98  6.28  6.10
Si -4.45 -9.43  1.97
Si  0.99  9.19  5.23
Si  2.75 -3.56  9.68
Si -7.04  7.79  1.97
Si  4.33 -6.57  7.23
Si -6.46  3.73  7.65
Si  3.73 10.02 -0.19
Si  5.69 -4.46 -7.90
Si  9.35  4.82 -2.04
Si -2.78 -1.91 10.17
Si -4.79 -0.57 -9.57
Si  0.90 10.09  3.65
Si -3.19 -2.22 -10.06
Si -10.69  1.41 -0.19
Si 10.05  1.48  3.65
Si  6.26 -8.52 -2.22
Si -8.26 -4.71 -5.12
Si -8.61 -2.33  6.10
Si -4.13 10.02 -0.19
Si  1.25 -9.69  4.74
Si -9.51  0.58  5.23
Si  7.75  0.89 -7.57
Si  1.18 -7.72 -7.57
Si  1.96 10.28 -2.97
Si -1.97 10.28 -2.97
Si  7.42 -7.13  3.65
Si -6.10 -4.46 -7.90
Si -2.94  9.19  5.23
Si 10.54 -1.59 -2.63
Si -10.75  0.10 -2.22
Si -6.81 -1.01  8.59
Si  1.46  5.05  9.68
Si -7.97  0.89 -7.57
Si  6.52  7.54  4.74
Si -2.68 -9.69  4.74
Si -3.03 10.09  3.65
Si -2.75 -7.72 -7.57
Si  8.49  5.55 -4.63
Si -2.48  5.05  9.68
Si -0.96  0.33 -11.15
Si -3.89 -10.20 -2.63
Si  6.62 -4.88  7.65
Si -10.26  2.64 -3.77
Si  6.95  8.77  1.17
Si  9.79 -3.06 -4.63
Si  3.97 -10.20 -2.63
Si -10.25 -4.08  2.30
Si  4.67 -2.22 -10.06
Si -9.86 -3.06 -4.63
Si -0.94 10.94  2.89
Si  8.48 -6.94 -2.97
Si -5.19  5.13 -8.70
Si -5.23  7.30 -6.97
Si  1.20 -11.00  2.72
Si -8.97 -5.97 -3.77
Si 10.15  0.58  5.23
Si -11.40  0.16  1.17
Si -0.24  7.60  8.59
Si -9.26  6.22  2.72
Si 10.64 -3.79 -2.04
Si -5.11 -3.56  9.68
Si  7.55  5.30  6.90
Si -9.55  3.90 -5.12
Si  5.08 -1.91 10.17
Si -8.30 -7.13  3.65
Si -8.76  2.04  7.23
Si  2.97  0.33 -11.15
Si -10.30  4.82 -2.04
Si -7.32  6.46 -6.22
Si -7.39  4.15 -7.90
Si 11.12  1.67 -2.97
Si -2.74 -11.00  2.72
Si  4.92  9.19  5.23
Si  1.85  8.45  7.83
Si -8.65 -0.16  7.83
Si  0.74  3.79 11.03
Si  8.84 -3.31  6.90
Si 11.29  3.06  0.30
Si  2.98 10.94  2.89
Si -2.08  8.45  7.83
Si  9.70 -2.15 -6.22
Si  9.51 -6.28  2.89
Si  0.51 -8.77  7.83
Si  4.83 10.09  3.65
Si  7.61  8.71 -2.22
Si -1.80 11.67  0.30
Si  8.69  7.79  1.97
Si -9.40 -7.20 -0.19
Si  7.00 -0.57 -9.57
Si  0.23 11.25 -3.77
Si  2.13 11.67  0.30
Si  9.24  7.02 -2.63
Si -0.56  6.39 -10.06
Si  7.40 -6.03 -7.15
Si -9.96 -2.15 -6.22
Si -8.18  5.30  6.90
Si 11.19  3.97 -1.28
Si  5.11 -7.72 -7.57
Si  5.18 -9.69  4.74
Si 10.10  3.90 -5.12
Si  1.13  1.18 -11.91
Si -11.44  2.33  2.89
Si  6.56  7.30 -6.97
Si  3.69  7.60  8.59
Si  6.60  5.13 -8.70
Si -3.19  3.79 11.03
Si -11.10 -4.64 -1.28
Si -8.12  8.71 -2.22
Si  7.34 -9.43  1.97
Si  5.38  5.05  9.68
Si -0.15  6.70 10.17
Si -4.89  0.33 -11.15
Si  7.51 -8.03  5.23
Si -1.89 -4.82 11.03
Si  1.29 -9.92 -6.97
Si -4.17  7.60  8.59
Si  8.33  4.15 -7.90
Si  2.04 -4.82 11.03
Si -7.83 -3.48 -8.70
Si  5.89 10.28 -2.97
Si -5.90 10.28 -2.97
Si -1.41  9.50 -7.57
Si 12.18  0.16  1.17
Si 11.69 -2.39  2.72
Si -3.42 -8.77  7.83
Si -1.45  2.82 11.83
Si  7.89 -3.48 -8.70
Si -9.61  2.58 -7.15
Si -10.15 -6.28  2.89
Si  8.40  6.46 -6.22
Si  6.68 -3.56  9.68
Si -2.80  1.18 -11.91
Si -7.46 -6.57  7.23
Si -4.88 10.94  2.89
Si  1.90 -0.44 12.17
Si -11.00 -5.55  0.30
Si -6.71 -1.91 10.17
Si -2.04 -0.44 12.17
Si  3.38  6.39 -10.06
Si  2.52  9.50 -7.57
Si -2.64 -9.92 -6.97
Si  2.48  2.82 11.83
Si 10.40  6.22  2.72
Si  8.91 -1.01  8.59
Si -11.89 -2.39  2.72
Si -3.70 11.25 -3.77
Si  5.12 -11.00  2.72
Si -8.77  8.77  1.17
Si -0.80 -10.77 -6.22
Si -8.32 -6.03 -7.15
Si -7.12 -2.22 -10.06
Si 10.25 -7.20 -0.19
Si  0.54 -10.94  6.10
Si  4.43 -8.77  7.83
Si  4.67  3.79 11.03
Si  0.15 -12.40 -2.04
Si -0.71 -11.67 -4.63
Si  4.16 11.25 -3.77
Si  9.26  3.73  7.65
Si 10.04  2.58 -7.15
Si -6.87  9.19  5.23
Si  0.68 -3.54 -12.09
Si -11.55  4.53  2.30
Si  7.66 10.02 -0.19
Si  1.77  8.04 -9.57
Si -8.21 -8.03  5.23
Si -6.61 -9.69  4.74
Si  0.26  1.25 12.59
Si -6.41  5.05  9.68
Si -12.30  3.06  0.30
Si -2.16  8.04 -9.57
Si 12.14  2.33  2.89
Si -6.68 -7.72 -7.57
Si 11.75 -1.07  4.74
Si -4.49  6.39 -10.06
Si  3.78  6.70 10.17
Si -8.38 -9.43  1.97
Si -1.89 12.58 -1.28
Si -6.96 10.09  3.65
Si  8.26 -6.57  7.23
Si -11.83 -1.07  4.74
Si -9.20  7.54  4.74
Si  9.54 -8.45  1.17
Si 10.68 -5.97 -3.77
Si  2.04 12.58 -1.28
Si  3.13 -10.77 -6.22
Si 11.04 -2.33  6.10
Si -10.41  7.02 -2.63
Si -4.08  6.70 10.17
Si -9.10 -4.88  7.65
Si -8.06 10.02 -0.19
Si  5.78  8.45  7.83
Si -9.46 -8.52 -2.22
Si -12.46  1.67 -2.97
Si -1.10 -12.69  2.30
Si -8.72 -0.57 -9.57
Si  3.22 -11.67 -4.63
Si 12.89  1.41 -0.19
Si -3.39 -10.94  6.10
Si -1.58 -9.62  8.59
Si  1.02  3.38 -12.50
Si  5.06  1.18 -11.91
Si  1.74 10.65  7.23
Si -6.01  8.45  7.83
Si -3.25 -3.54 -12.09
Si -5.73 11.67  0.30
Si 12.83  0.10 -2.22
Si -1.03 -1.97 -12.84
Si -2.19 10.65  7.23
Si 12.03  4.53  2.30
Si -12.39  3.97 -1.28
Si  9.74  6.28  6.10
Si  2.35 -9.62  8.59
Si  6.90  0.33 -11.15
Si -0.61  5.07 -12.09
Si -7.82 -10.20 -2.63
Si -3.78 -12.40 -2.04
Si -6.67 -11.00  2.72
Si  6.06 11.67  0.30
Si -3.67  1.25 12.59
Si  7.90 -10.20 -2.63
Si -1.93 -2.65 12.76
Si -0.16 -5.79 11.83
Si  2.00 -2.65 12.76
Si  5.22 -9.92 -6.97
Si  2.83 -12.69  2.30
Si  4.08 -12.40 -2.04
Si -9.91  6.28  6.10
Si  9.62 -4.46 -7.90
Si -10.11 -8.45  1.17
Si 10.89  2.04  7.23
Si -10.81 -3.31  6.90
Si  6.92 10.94  2.89
Si  0.43 -9.18 -9.57
Si -5.34  9.50 -7.57
Si -2.91  3.38 -12.50
Si -11.16  5.55 -4.63
Si -4.73 -10.77 -6.22
Si  4.47 -10.94  6.10
Si -5.38  2.82 11.83
Si  2.90 -1.97 -12.84
Si  0.88 11.19 -7.15
Si  4.19  1.25 12.59
Si 11.39 -4.71 -5.12
Si -5.82 -4.82 11.03
Si -1.05 13.14  2.30
Si 12.49 -4.64 -1.28
Si -4.64 -11.67 -4.63
Si -13.04 -1.59 -2.63
Si  4.61 -3.54 -12.09
Si  8.60 -2.22 -10.06
Si -10.39  3.73  7.65
Si  5.97 -4.82 11.03
Si -1.94 -13.25 -1.28
Si  1.99 -13.25 -1.28
Si 10.19 -8.52 -2.22
Si -11.17 -6.94 -2.97
Si  5.83 -0.44 12.17
Si 11.00 -0.16  7.83
