500
set: 210.00  0.00  0.00
Si  0.04  0.01 -0.02
Si  0.01 -2.12  0.78
Si  1.81  1.13  0.79
Si -1.87  1.08  0.73
Si  0.05 -0.01 -2.30
Si  3.67  0.01  0.05
Si  0.01  2.15 -3.01
Si  1.88 -3.19  0.04
Si -1.86 -1.08 -3.01
Si -1.87  1.08  3.01
Si  0.01 -2.14  3.04
Si -1.86  3.23 -0.02
Si -1.84 -3.24 -0.04
Si  1.88  1.08  3.04
Si -3.74 -0.02  0.07
Si  1.88  3.24 -0.02
Si  1.86 -1.11 -3.06
Si  1.83 -1.06  3.76
Si -3.70 -0.03 -2.23
Si -1.86 -1.05  3.76
Si  0.01  2.14  3.78
Si -1.86  3.23 -2.24
Si -0.01  4.29  0.72
Si  3.72 -0.03 -2.26
Si -3.73 -2.14  0.76
Si  1.87  3.24 -2.27
Si -1.90 -3.21 -2.33
Si  3.78 -2.15  0.75
Si  1.88 -3.27 -2.30
Si -3.72  2.12 -3.03
Si -0.02 -4.32 -3.01
Si  3.73 -2.16  3.03
Si  0.03  4.29  3.05
Si  3.73  2.15 -3.04
Si -3.73 -2.18  3.06
Si -3.69  2.14  3.77
Si -1.84 -5.34  0.72
Si  5.54  1.09  0.72
Si  0.01  2.14 -5.32
Si -1.90 -1.06 -5.30
Si  3.69  2.17  3.82
Si -3.76  4.28  0.78
Si  1.83 -5.40  0.78
Si  0.01 -4.32  3.81
Si  3.75  4.34  0.72
Si -5.64  1.09  0.72
Si  1.90 -1.09 -5.36
Si  5.55  1.09  3.03
Si -5.57 -1.06 -3.01
Si  1.82 -5.35  3.05
Si  0.01 -6.43 -0.03
Si  1.82  1.10 -6.08
Si  1.85  5.37 -3.04
Si -1.89  5.35 -3.06
Si  1.85 -1.08  6.08
Si -5.58 -3.23  0.01
Si  5.61 -1.06 -3.01
Si  0.01  6.45  0.01
Si  3.73  4.30  3.04
Si -1.89 -1.10  6.07
Si -1.86  1.07 -6.09
Si -1.86 -5.38  3.04
Si -5.58  3.25 -0.03
Si  5.59 -3.23  0.01
Si -0.04 -2.14 -6.10
Si  3.70 -4.33 -3.06
Si -3.74 -4.31 -3.04
Si  5.60  3.25 -0.03
Si -5.62  1.09  3.03
Si  0.02  2.17  6.12
Si -3.77  4.33  3.05
Si -3.69  2.11 -5.28
Si -5.58 -3.20 -2.26
Si  0.01 -4.26 -5.33
Si  5.58  3.19 -2.31
Si -5.58 -1.03  3.79
Si  5.60 -3.20 -2.26
Si  5.59 -1.03  3.79
Si  3.72 -4.29  3.81
Si  3.72  2.16 -5.32
Si -5.60  3.19 -2.31
Si  1.90  5.34  3.85
Si -1.87  5.39  3.81
Si  0.01  6.47 -2.26
Si  0.01  0.02  6.87
Si -3.69 -4.34  3.85
Si -0.01 -6.49 -2.31
Si -3.73  2.12  6.06
Si -3.71 -6.44 -0.02
Si  7.43 -0.02  0.07
Si -3.71 -2.15 -6.08
Si  3.75  6.44 -0.04
Si  3.73 -6.45 -0.02
Si  0.01  4.32 -6.09
Si  3.72 -2.15 -6.12
Si  3.73  2.15  6.12
Si  0.01 -4.30  6.12
Si -3.71  6.49  0.04
Si -7.50  0.01  0.05
Si  3.69  0.02  6.80
Si -7.40 -2.15  0.75
Si -3.71  6.40 -2.30
Si -3.71 -0.05  6.83
Si -1.81  7.53  0.75
Si -3.72 -6.44 -2.27
Si  3.73 -6.45 -2.24
Si -7.45 -0.03 -2.26
Si  7.45 -2.14  0.76
Si  5.58 -5.39  0.72
Si -1.86  3.20  6.86
Si  1.86  7.54  0.76
Si -5.58 -1.09 -5.34
Si -5.59 -5.39  0.72
Si  1.87 -3.22  6.86
Si  7.48 -0.03 -2.23
Si  3.69  6.47 -2.33
Si  3.73 -4.27 -5.37
Si  5.60 -1.09 -5.34
Si  1.83  5.39 -5.36
Si -1.86 -3.23  6.88
Si -3.76 -4.29 -5.36
Si  1.89  3.19  6.90
Si -1.86  5.41 -5.37
Si  5.56  5.36 -3.01
Si -5.56  1.07 -6.07
Si -3.73  4.27 -6.07
Si  1.86  7.50  3.06
Si -1.86  7.52  3.03
Si  1.86  5.34  6.09
Si  7.45  2.12 -3.03
Si -5.56 -5.39  3.05
Si -7.45 -2.16  3.03
Si -5.61  5.36 -3.01
Si -7.45  2.15 -3.04
Si -1.86 -7.53 -3.04
Si -1.86  5.38  6.08
Si  3.73 -4.30  6.08
Si  1.86 -5.41 -6.07
Si  3.73  4.29 -6.10
Si  5.56 -1.09  6.12
Si  5.62  1.07 -6.07
Si  7.45 -2.18  3.06
Si -1.86 -5.39 -6.10
Si -3.72 -4.33  6.09
Si  1.86 -7.56 -3.03
Si  5.62 -5.39  3.05
Si -5.61 -1.09  6.12
Si  7.42  4.28  0.78
Si  1.83  1.05 -8.35
Si -0.05 -8.59  0.72
Si -5.58  5.36  3.81
Si -7.43  4.34  0.72
Si  5.59  5.36  3.81
Si -1.90 -7.51  3.82
Si  1.90 -7.54  3.77
Si  7.49  2.14  3.77
Si -0.05 -2.14 -8.40
Si -1.84  1.11 -8.40
Si -7.48  2.17  3.82
Si  7.41  4.33  3.05
Si -0.04 -8.59  3.03
Si -7.45  4.30  3.04
Si  7.44 -4.31 -3.04
Si  0.02  8.62 -3.01
Si  0.01 -0.00  9.13
Si  0.01  0.02 -9.16
Si -7.47 -4.33 -3.06
Si -5.54  3.22  6.82
Si -0.01  6.42  6.82
Si -3.78 -8.55  0.79
Si -3.78 -2.09 -8.34
Si  5.58 -3.26  6.82
Si  0.05 -6.46  6.82
Si -1.87 -7.52 -5.32
Si  9.31  1.08  0.73
Si  7.49  2.11 -5.28
Si  0.01  4.33 -8.35
Si  3.72 -8.60  0.73
Si -7.46 -4.29  3.81
Si -5.60 -3.26  6.82
Si -7.46  2.16 -5.32
Si  1.90 -7.57 -5.28
Si  5.63  3.22  6.82
Si -5.58  7.55  0.78
Si  3.72 -2.15 -8.40
Si  5.60  7.55  0.78
Si -5.58  5.42 -5.33
Si  5.59  5.42 -5.33
Si  0.01  8.65  3.79
Si -9.37  1.13  0.79
Si  7.49 -4.34  3.85
Si  1.85 -3.25 -9.05
Si -1.91 -3.22 -9.08
Si  3.75 -0.01  9.08
Si  7.44  2.12  6.06
Si -7.43  6.44 -0.04
Si  1.88  3.26 -9.08
Si  1.85  9.66  0.07
Si  1.88 -3.21  9.10
Si -9.30 -3.19  0.04
Si -3.73  8.57 -3.06
Si -1.86 -3.23  9.10
Si -5.58 -7.52 -3.01
Si  9.31  1.08  3.01
Si -9.30  1.08  3.04
Si  3.73  8.60 -3.01
Si -9.29  3.24 -0.02
Si -5.58 -5.36 -6.09
Si  3.72 -8.60  3.01
Si  5.60 -7.52 -3.01
Si  9.32 -1.08 -3.01
Si -3.71 -8.60  3.04
Si  5.60 -5.36 -6.09
Si -7.45 -6.45 -0.02
Si -1.91 -9.67  0.05
Si  9.31  3.23 -0.02
Si  7.47 -6.44 -0.02
Si  1.88  7.53 -6.08
Si -5.58  7.54  3.04
Si  7.46 -2.15 -6.08
Si  1.86 -7.57  6.06
Si -3.71  0.02 -9.15
Si  5.60  7.54  3.04
Si -7.45  2.15  6.12
Si -9.32 -1.11 -3.06
Si -5.58  5.38  6.12
Si -1.91  9.69  0.05
Si  1.85 -9.70  0.07
Si -1.87  7.53 -6.12
Si  3.73  0.00 -9.15
Si -7.46 -2.15 -6.12
Si -1.86 -7.53  6.12
Si  9.34 -3.24 -0.04
Si  5.60  5.38  6.12
Si -1.84  3.21 -9.17
Si  7.46  6.49  0.04
Si -3.71  0.04  9.17
Si  1.85  3.20  9.20
Si -1.91  3.24  9.18
Si  1.89  9.65 -2.23
Si -0.01 -2.16  9.85
Si -1.86  9.65 -2.26
Si  9.28 -3.21 -2.33
Si  7.46  6.40 -2.30
Si -1.81  1.07  9.88
Si  9.32 -1.05  3.76
Si  7.41 -4.29 -5.36
Si -7.45 -6.45 -2.24
Si  9.31  3.23 -2.24
Si  7.45 -6.44 -2.27
Si -7.49  0.02  6.80
Si -5.58 -7.54  3.78
Si  1.86 -5.37 -8.36
Si -9.31  3.24 -2.27
Si -1.81 -5.38 -8.37
Si -3.73  4.31 -8.36
Si  7.46 -0.05  6.83
Si  0.01  8.59 -5.34
Si  1.86  1.08  9.89
Si -9.30 -3.27 -2.30
Si  5.60 -7.54  3.78
Si  3.73  8.63  3.76
Si -7.45 -4.27 -5.37
Si -3.76  8.62  3.76
Si -3.72  6.46  6.86
Si -9.35 -1.06  3.76
Si -1.86 -9.71 -2.26
Si  3.78  4.30 -8.37
Si  1.89 -9.71 -2.23
Si  5.58  1.06 -8.40
Si  3.73  6.45  6.88
Si  3.72 -6.48  6.86
Si -5.59  1.06 -8.40
Si -3.70 -6.49  6.90
Si -7.49  6.47 -2.33
Si  7.45  4.27 -6.07
Si -7.45 -4.30  6.08
Si  0.03 -8.61 -6.07
Si -7.45  4.29 -6.10
Si -0.02  8.59  6.12
Si  7.45 -4.33  6.09
Si  9.28 -1.06 -5.30
Si  3.75 -2.11  9.85
Si -0.05  4.31  9.85
Si -9.27 -1.09 -5.36
Si  3.69  8.62 -5.30
Si -3.69  8.59 -5.36
Si  9.34 -5.34  0.72
Si -5.58 -7.54 -5.32
Si  5.59 -7.54 -5.32
Si -0.05 10.77  0.72
Si -3.76 -2.17  9.90
Si -9.35 -5.40  0.78
Si -5.58 -3.20  9.09
Si -11.14  0.01 -0.02
Si  3.70  8.58  6.07
Si -5.55  3.23  9.11
Si  5.60 -3.20  9.09
Si  9.29  5.35 -3.06
Si  0.02 -10.74 -3.01
Si -5.55 -9.67 -0.02
Si  9.29 -1.10  6.07
Si  0.04 -6.45  9.11
Si  0.01  6.48  9.09
Si -5.55  9.69 -0.02
Si -5.58  3.22 -9.12
Si -3.77 -8.58 -6.08
Si -5.55 -3.22 -9.14
Si  0.01 -6.46 -9.12
Si -3.74  8.60  6.08
Si  5.59  3.22 -9.12
Si -5.57 -7.51  6.12
Si  5.55  7.54 -6.10
Si  9.32  1.07 -6.09
Si  9.32 -5.38  3.04
Si  5.62  3.23  9.11
Si  3.73 -8.61 -6.09
Si -9.33  5.37 -3.04
Si -0.04 10.77  3.03
Si -9.33 -1.08  6.08
Si  5.62 -9.67 -0.02
Si  5.61 -7.51  6.12
Si  0.04  6.46 -9.14
Si  5.62  9.69 -0.02
Si -9.36 -5.35  3.05
Si  5.62 -3.22 -9.14
Si -5.62  7.54 -6.10
Si -9.36  1.10 -6.08
Si 11.21  0.01 -0.02
Si  7.40 -8.55  0.79
Si  7.40 -2.09 -8.34
Si  0.01 -10.71  3.79
Si -11.13 -0.01 -2.30
Si -9.28  5.34  3.85
Si -5.58 -5.35 -8.35
Si  3.72  4.30  9.86
Si -1.87 -5.38  9.86
Si -5.54  9.67 -2.30
Si  5.60 -5.35 -8.35
Si  1.81 -5.32  9.91
Si -5.54 -9.69 -2.30
Si -11.17 -2.12  0.78
Si  3.72 10.76  0.73
Si -7.46 -8.60  0.73
Si  9.31  5.39  3.81
Si 11.19 -2.12  0.78
Si  1.81  7.59 -8.34
Si -5.58  1.10  9.91
Si  5.63  9.67 -2.30
Si -0.01 -0.04 -11.43
Si  5.60  1.10  9.91
Si -1.87  7.53 -8.40
Si -7.46 -2.15 -8.40
Si  5.63 -9.69 -2.30
Si 11.22 -0.01 -2.30
Si -3.78  4.36  9.91
Si -3.78 10.81  0.79
Si -3.74  6.43 -9.05
Si -3.71 -6.42 -9.08
Si  3.67  6.46 -9.08
Si -7.43 -0.01  9.08
Si  7.44  8.57 -3.06
Si  3.73  6.45  9.10
Si -11.17  2.15 -3.01
Si -3.71  6.47  9.10
Si -7.45  8.60 -3.01
Si -11.17 -2.14  3.04
Si  3.72 10.76  3.01
Si -7.46 -8.60  3.01
Si -3.71 10.76  3.04
Si  3.73 -10.76 -3.01
Si 11.19  2.15 -3.01
Si 11.18 -2.14  3.04
Si  7.46 -8.60  3.04
Si  3.67 -6.44  9.18
Si -7.45  0.00 -9.15
Si  7.47  0.02 -9.15
Si  7.46  0.04  9.17
Si -3.73 -10.79 -3.06
Si  3.75 -6.47 -9.17
Si -3.74 -6.48  9.20
Si  1.88  9.63  6.83
Si  3.73 -10.73  3.76
Si  1.89 -3.26 -11.35
Si  3.73  0.00 -11.37
Si -1.90 -9.66  6.80
Si -7.40  4.30 -8.37
Si  7.41  8.62  3.76
Si -11.16  2.14  3.78
Si -3.72  0.01 -11.39
Si -3.76 -10.74  3.76
Si 11.17  4.29  0.72
Si -1.86 -3.25 -11.39
Si -1.90  9.70  6.80
Si  1.86 -11.82  0.76
Si -1.81 -11.83  0.75
Si -9.29  3.19  6.90
Si -11.18  4.29  0.72
Si  7.45  4.31 -8.36
Si  9.31  3.20  6.86
Si 11.19  2.14  3.78
Si  1.88  3.18 -11.42
Si -9.31  7.54  0.76
Si -7.45  8.63  3.76
Si -9.31 -3.22  6.86
Si  7.45  6.46  6.86
Si  0.01 -10.77 -5.34
Si  9.31 -3.23  6.88
Si -7.45  6.45  6.88
Si -7.45 -6.48  6.86
Si  1.88 -9.73  6.83
Si -0.01 -8.62 -8.40
Si  9.32  5.41 -5.37
Si  9.37  7.53  0.75
Si -9.35  5.39 -5.36
Si -1.90  3.25 -11.46
Si  7.48 -6.49  6.90
Si  1.86 11.80 -3.03
Si -0.02  2.14 -12.14
Si -11.15  4.29  3.05
Si 11.15 -4.32 -3.01
Si -1.86  1.07 12.15
Si  0.03 10.75 -6.07
Si -9.32  7.50  3.06
Si -9.31  5.34  6.09
Si  9.32  7.52  3.03
Si  1.86 -1.11 -12.16
Si -1.86 -1.07 -12.17
Si -1.86 11.83 -3.04
Si  9.32 -7.53 -3.04
Si  9.32  5.38  6.08
Si -1.86 -11.84  3.03
Si -9.32 -5.41 -6.07
Si  0.03 -2.16 12.18
Si  9.32 -5.39 -6.10
Si  1.86  1.05 12.18
Si -9.31 -7.56 -3.03
Si -11.20 -4.32 -3.01
Si 11.21  4.29  3.05
Si -0.02 -10.77  6.12
Si  1.86 -11.86  3.06
Si  5.54 -5.37  9.85
Si -7.43 -2.11  9.85
Si -9.27 -7.54  3.77
Si  3.69 -10.74 -5.30
Si  9.28 -7.51  3.82
Si  1.90 11.82  3.77
Si -5.64 -5.37  9.85
Si -11.17  2.14 -5.32
Si -1.84  7.57  9.85
Si  1.83  7.50  9.90
Si 11.18  2.14 -5.32
Si  7.42 -2.17  9.90
Si -11.17 -4.32  3.81
Si  3.75 -8.56 -8.40
Si -9.35  1.05 -8.35
Si  5.54  7.54 -8.40
Si -3.69 -10.77 -5.36
Si 11.18 -4.32  3.81
Si -3.76 -8.63 -8.35
Si -7.48  8.62 -5.30
Si -1.90 11.85  3.82
Si  7.49  8.59 -5.36
Si  9.34  1.11 -8.40
Si -5.64  7.54 -8.40
Si  7.41 -8.58 -6.08
Si  0.02 -4.29 -12.14
Si 11.14 -2.14 -6.10
Si -11.17 -6.43 -0.03
Si  7.44  8.60  6.08
Si -7.47  8.58  6.07
Si -0.04  4.32 12.15
Si -11.17  6.45  0.01
Si 11.19 -6.43 -0.03
Si  3.73 10.75 -6.09
Si  3.73 -2.16 12.16
Si -7.45 -8.61 -6.09
Si  3.70  2.12 -12.18
Si  0.01 -12.91  0.01
Si -11.16  2.17  6.12
Si 11.18  6.45  0.01
Si -3.74  2.14 -12.17
Si  3.70 -10.78  6.07
Si -3.74 -10.76  6.08
Si -3.77 -2.13 12.18
Si  0.01 12.93 -0.03
Si -3.77 10.78 -6.08
Si 11.20  2.17  6.12
Si -11.21 -2.14 -6.10
Si 12.98  1.13  0.79
Si  1.90 11.79 -5.28
Si  0.01 -6.43 -11.38
Si -0.01 12.87 -2.31
Si  0.01 -12.88 -2.26
Si -5.58 -11.80  0.78
Si -9.28 -7.57 -5.28
Si -7.46  4.30  9.86
Si -5.58  3.25 -11.38
Si  5.60 -11.80  0.78
Si -11.17 -4.26 -5.33
