500
set: 157.00  0.00  0.00
Si -0.02  0.03  0.01
Si  0.02 -2.03  0.81
Si  0.06 -0.06 -2.21
Si  1.76  1.13  0.77
Si -1.82  1.08  0.76
Si  0.04  2.04 -2.84
Si  1.81 -3.05 -0.13
Si  3.56  0.06  0.01
Si -1.78 -3.08  0.04
Si -3.58 -0.05  0.01
Si  1.72  1.06  2.97
Si -1.76  3.19 -0.01
Si -1.84  1.09  2.95
Si -1.82 -1.04 -2.98
Si  1.81 -1.13 -3.03
Si  0.07 -2.11  3.04
Si  1.91  3.18  0.01
Si  3.56 -2.01  0.69
Si -1.76 -3.10 -2.19
Si -1.74 -1.02  3.67
Si -1.80  3.09 -2.20
Si  3.56 -0.03 -2.26
Si -3.61  0.02 -2.19
Si  1.89  3.07 -2.19
Si  0.04  4.20  0.73
Si -3.64 -2.13  0.76
Si -0.06  2.12  3.77
Si  1.86 -0.99  3.80
Si  1.90 -3.23 -2.36
Si -0.02  4.17  2.92
Si -0.02 -4.14 -2.96
Si -3.60 -2.05  2.96
Si  3.66 -2.04  2.90
Si -3.59  2.08 -3.02
Si  3.63  2.05 -3.04
Si  0.01  2.12 -5.06
Si  3.61  2.10  3.61
Si  1.78 -5.19  0.72
Si -1.75 -5.23  0.62
Si  5.41  1.03  0.74
Si -5.44  1.00  0.71
Si -3.61  4.20  0.77
Si -3.71  2.07  3.69
Si -1.76 -1.06 -5.24
Si -0.01 -4.21  3.76
Si  1.85 -0.97 -5.25
Si  3.68  4.25  0.81
Si -1.82 -5.18  2.88
Si  1.80  5.16 -2.93
Si  1.78 -5.18  2.92
Si -1.81  5.16 -2.95
Si  5.36 -1.11 -2.95
Si -1.82 -1.05  5.85
Si -1.78  1.04 -5.87
Si -5.38  3.14  0.02
Si  5.40 -3.11  0.05
Si  5.42  1.00  2.92
Si -3.55 -4.13 -3.02
Si  5.42  3.14 -0.03
Si -5.46 -1.06 -2.88
Si  0.07  6.28 -0.01
Si  0.03 -6.28 -0.00
Si  1.71  1.13 -5.95
Si -5.45 -3.16 -0.02
Si -3.67  4.16  3.01
Si  0.05 -2.11 -5.96
Si  1.74 -1.02  5.99
Si -5.52  1.05  2.92
Si  0.03  2.17  5.98
Si  3.68  4.26  2.98
Si  3.76 -4.22 -3.02
Si -0.01  6.20 -2.24
Si -1.82  5.12  3.74
Si  3.65 -4.15  3.62
Si -5.37  3.13 -2.24
Si -5.38 -1.01  3.70
Si -0.06  0.05  6.62
Si -3.62 -4.17  3.68
Si  0.01 -6.24 -2.23
Si  1.83  5.17  3.74
Si  5.40  3.17 -2.26
Si -5.42 -3.20 -2.24
Si  5.48 -1.10  3.68
Si -3.67  2.01 -5.21
Si -0.00 -4.23 -5.19
Si  3.57  2.10 -5.28
Si  5.50 -3.19 -2.14
Si -0.03  4.19 -5.84
Si  7.19 -0.07 -0.04
Si  3.67  2.11  5.83
Si  3.64 -6.22  0.09
Si -3.63  2.12  5.87
Si -3.62 -6.26  0.01
Si  3.62  6.27  0.01
Si  3.61 -2.06 -5.95
Si -3.60  6.31  0.09
Si -3.56 -2.06 -5.99
Si -7.29 -0.07 -0.04
Si -0.03 -4.17  5.98
Si -5.34 -1.03 -5.11
Si  7.16 -0.06 -2.25
Si  3.61  0.07  6.59
Si -5.37 -5.20  0.78
Si -3.62 -0.01  6.59
Si  5.40 -1.04 -5.15
Si -3.60  6.26 -2.16
Si -3.64 -6.23 -2.24
Si  1.78  5.22 -5.17
Si  1.78 -3.14  6.65
Si -1.88  5.21 -5.16
Si  3.64 -6.28 -2.16
Si -3.62 -4.11 -5.23
Si  7.23 -2.12  0.81
Si  5.47 -5.20  0.77
Si -1.76  7.34  0.77
Si -7.24 -2.12  0.81
Si  3.60  6.30 -2.24
Si -1.84  3.13  6.67
Si -1.88 -3.15  6.66
Si  3.62 -4.18 -5.22
Si  1.86  7.34  0.78
Si  1.89  3.15  6.71
Si -7.32 -0.06 -2.25
Si  3.59 -4.15  5.85
Si -1.84  7.22  2.98
Si -7.21  2.08 -2.86
Si -3.58  4.10 -5.91
Si -1.83 -7.26 -2.95
Si  5.38 -1.04  5.92
Si  1.78  7.27  3.00
Si  5.40  1.05 -5.90
Si  7.26  2.08 -2.86
Si  1.79 -7.29 -2.97
Si -7.15 -2.20  3.05
Si  1.72  5.21  5.93
Si -1.86 -5.22 -5.90
Si  5.40  5.27 -2.95
Si -5.43 -1.11  5.92
Si -3.58 -4.26  5.91
Si -1.83  5.23  5.92
Si -5.45  5.24 -2.97
Si  1.81 -5.29 -5.90
Si  3.59  4.20 -5.97
Si  5.39 -5.31  2.98
Si -5.52  1.03 -5.89
Si -5.46 -5.27  3.00
Si  7.33 -2.20  3.05
Si -1.76 -7.18  3.73
Si  7.19  2.12  3.64
Si -7.22  4.13  0.68
Si -1.76  1.18 -8.09
Si  1.78 -7.29  3.68
Si  7.26  4.13  0.68
Si  1.78  1.07 -8.14
Si -7.28  2.12  3.64
Si -5.46  5.25  3.68
Si  0.02 -8.40  0.68
Si -0.04 -2.06 -8.18
Si  5.47  5.36  3.73
Si  7.17  4.20  2.92
Si  0.02  8.30 -2.98
Si -0.07 -8.33  2.92
Si  0.02 -0.06  8.84
Si -7.21 -4.24 -2.98
Si -0.07  0.03 -8.90
Si -7.31  4.20  2.92
Si  7.26 -4.24 -2.98
Si  7.13  2.07 -5.07
Si -3.56 -8.28  0.81
Si -0.01  4.15 -8.06
Si -5.38  3.20  6.57
Si  5.37  5.24 -5.14
Si  3.53 -2.11 -8.12
Si  5.47  3.11  6.58
Si -0.03  8.30  3.77
Si -5.42  5.15 -5.21
Si  5.37 -3.12  6.68
Si  9.04  1.00  0.71
Si -1.87 -7.29 -5.14
Si  3.63 -8.34  0.77
Si -5.42 -3.21  6.61
Si -9.06  1.03  0.74
Si -7.34  2.07 -5.07
Si  5.49  7.31  0.62
Si  7.21 -4.24  3.77
Si -5.45  7.34  0.72
Si  0.01 -6.24  6.76
Si -0.10  6.25  6.75
Si -7.27 -4.24  3.77
Si -3.63 -2.08 -8.21
Si  1.81 -7.39 -5.21
Si -3.48 -0.04  8.80
Si  1.71 -7.22  5.87
Si  8.96  1.05  2.92
Si -7.21 -2.00 -5.84
Si -3.56 -8.28  2.98
Si -7.19  2.07  5.86
Si -3.48  8.32 -3.02
Si  3.57 -0.02 -8.81
Si -7.17 -6.25 -0.01
Si  9.01 -1.06 -2.88
Si  1.74  7.34 -5.83
Si -3.56  0.08 -8.84
Si  7.27 -2.00 -5.84
Si  3.68  0.04  8.80
Si -7.21  6.25 -0.00
Si  1.78  9.37 -0.02
Si -5.50 -5.20 -5.83
Si  9.02 -3.16 -0.02
Si -1.82 -9.39 -0.03
Si -9.06  1.00  2.92
Si -1.88  3.07  8.87
Si  7.28  2.07  5.86
Si  1.86 -9.40  0.02
Si  5.42  7.36  2.88
Si -9.05  3.14 -0.03
Si  1.72 -3.12 -8.90
Si  7.27  6.25 -0.00
Si  3.57 -8.38  3.01
Si -1.78 -7.32  5.95
Si -9.08 -3.11  0.05
Si -1.84  9.42  0.05
Si  5.41 -5.23 -5.96
Si -1.81 -3.20  8.87
Si  1.78  3.17 -8.89
Si -1.82  7.31 -5.96
Si  1.80 -3.19  8.88
Si  5.46  5.22  5.95
Si -5.46  7.35  2.92
Si -5.43 -7.37 -2.93
Si  5.42 -7.38 -2.95
Si  7.31 -6.25 -0.01
Si -1.82 -3.18 -8.90
Si  9.10  3.14  0.02
Si  1.77  3.11  8.94
Si -9.12 -1.11 -2.95
Si -5.53  5.31  5.87
Si -1.82  3.18 -8.94
Si  3.68  8.40 -3.02
Si  3.57  6.19  6.61
Si  3.57 -6.25  6.54
Si -1.73  9.34 -2.14
Si -8.97 -3.19 -2.14
Si  5.42  0.94 -8.08
Si  1.82  9.34 -2.24
Si -5.41  1.00 -8.08
Si  7.18 -4.13 -5.21
Si -9.00 -1.10  3.68
Si -3.67  6.28  6.54
Si  1.82  0.98  9.58
Si -1.83 -9.37 -2.26
Si  1.86 -5.18 -8.12
Si  7.24 -0.05  6.63
Si -3.59  8.39  3.62
Si -7.24 -0.05  6.63
Si -0.01 -2.15  9.58
Si  3.62  8.37  3.68
Si -7.23  6.29 -2.23
Si  1.87 -9.40 -2.24
Si -3.62  4.19 -8.14
Si  7.25  6.29 -2.23
Si -1.76 -5.28 -8.14
Si  9.06 -3.20 -2.24
Si -7.29 -4.13 -5.21
Si  7.23 -6.33 -2.24
Si  9.09 -1.01  3.70
Si -3.67 -6.35  6.61
Si -5.41 -7.36  3.74
Si -9.07  3.17 -2.26
Si -7.25 -6.33 -2.24
Si -1.73  0.99  9.68
Si  9.11  3.13 -2.24
Si -0.06  8.41 -5.21
Si  3.65  4.21 -8.20
Si  5.42 -7.42  3.74
Si  7.20  4.14 -5.81
Si -7.28  4.14 -5.81
Si -0.04 -8.40 -5.81
Si -0.04  8.31  6.01
Si  7.20 -4.22  6.01
Si -7.28 -4.22  6.01
Si -0.08  4.12  9.56
Si -9.00 -5.20  0.77
Si  3.60 -2.06  9.58
Si  5.36 -7.33 -5.16
Si -0.01 10.42  0.81
Si -9.08 -1.04 -5.15
Si -5.46 -7.32 -5.17
Si -3.62  8.35 -5.22
Si  9.10 -5.20  0.78
Si  9.13 -1.03 -5.11
Si -3.60 -2.10  9.66
Si  3.61  8.43 -5.23
Si  8.96  1.03 -5.89
Si -5.33 -9.36  0.01
Si  0.07  6.25 -8.77
Si -5.43  3.05  8.79
Si  0.09 10.34  3.05
Si  5.39  3.05 -8.84
Si -5.43  7.25 -5.90
Si  3.66  8.28  5.91
Si -5.46  3.09 -8.82
Si  5.41  3.14  8.84
Si  5.39 -3.09 -8.87
Si  5.38  7.32 -5.90
Si  5.40 -3.08  8.87
Si  5.48 -9.35 -0.01
Si  0.02 -10.46 -2.86
Si  0.09 -6.38 -8.77
Si  5.40 -7.30  5.92
Si -5.45 -3.12  8.85
Si -3.65  8.38  5.85
Si  9.03  5.24 -2.97
Si  9.02 -5.27  3.00
Si  9.05 -1.11  5.92
Si -9.07  1.05 -5.90
Si -3.65 -8.33 -5.97
Si -5.51 -3.12 -8.85
Si 10.89 -0.05  0.01
Si -9.10 -1.04  5.92
Si -9.07  5.27 -2.95
Si -5.34  0.94  9.46
Si  5.45  9.46  0.04
Si -10.92  0.06  0.01
Si -5.52 -7.32  5.93
Si -5.42  9.48 -0.13
Si  0.02  6.26  8.96
Si  3.66 -8.44 -5.91
Si -9.08 -5.31  2.98
Si -5.38 -5.17 -8.02
Si  7.18 -2.06 -8.05
Si -5.34  9.30 -2.36
Si  0.04 -6.32  8.98
Si -0.04 -10.41  3.64
Si -7.20 -8.34  0.73
Si  3.60 10.41  0.76
Si  1.86  7.37 -8.02
Si -3.68  4.15  9.56
Si -7.30 -2.06 -8.05
Si  9.02  5.25  3.68
Si 10.84 -2.13  0.76
Si 10.87  0.02 -2.19
Si -5.34 -9.46 -2.19
Si  7.28 -8.34  0.73
Si -1.74  7.33 -8.15
Si -1.80 -5.27  9.62
Si  3.63  4.20  9.63
Si -10.91 -2.01  0.69
Si  5.44 -9.45 -2.20
Si -9.00  5.36  3.73
Si  5.50 -5.20 -8.15
Si  5.48  1.08  9.62
Si  5.48  9.44 -2.19
Si  0.02 -0.05 -11.14
Si  1.89 -5.28  9.63
Si -10.91 -0.03 -2.26
Si -3.68 10.53  0.69
Si -3.61  6.23  8.78
Si -10.81 -2.04  2.90
Si -3.59 -6.27  8.80
Si  3.65  6.26  8.80
Si  3.63 -6.30  8.78
Si  3.64 -6.23 -8.86
Si  7.21  0.04  8.86
Si  7.22 -8.37  2.92
Si -3.58 -6.22 -8.91
Si -10.84  2.05 -3.04
Si -3.60  6.31 -8.86
Si -7.26 -8.37  2.92
Si -7.26  0.04  8.86
Si  7.21  8.40 -2.96
Si 10.88 -2.05  2.96
Si  7.22 -0.01 -8.90
Si -3.58 10.49  2.90
Si  3.65 -10.45 -3.02
Si -7.26 -0.01 -8.90
Si 10.89  2.08 -3.02
Si -7.26  8.40 -2.96
Si  3.64 10.49  2.96
Si -3.61 -10.48 -3.04
Si  3.66  6.32 -8.91
Si  1.85 -9.33  6.57
Si  7.21  4.12 -8.05
Si -3.56  0.07 -11.01
Si  1.81  9.32  6.61
Si 10.77  2.07  3.69
Si -9.00  3.11  6.58
Si -8.99  7.31  0.62
Si -7.27  4.12 -8.05
Si -3.63 -10.44  3.61
Si -1.76 -9.42  6.58
Si -0.10 -10.46 -5.07
Si  3.63  0.02 -11.05
Si -10.80  4.25  0.81
Si -10.87  2.10  3.61
Si  9.05  5.15 -5.21
Si  3.53 -10.46  3.69
Si -0.03 -8.42 -8.05
Si  7.23  8.33  3.76
Si  9.02  7.34  0.72
Si  9.05 -3.21  6.61
Si -7.24  8.33  3.76
Si -1.83 -3.15 -11.08
Si  7.13 -6.29  6.75
Si  9.09  3.20  6.57
Si  1.78  3.17 -11.10
Si -1.83 -11.51  0.74
Si 10.87  4.20  0.77
Si -1.87  9.42  6.68
Si  1.80 -3.18 -11.11
Si  1.80 -11.54  0.71
Si -9.11  5.24 -5.14
Si -9.11 -3.12  6.68
Si -7.23  6.30  6.76
Si  7.24  6.30  6.76
Si -1.75  3.13 -11.20
Si -7.34 -6.29  6.75
Si  8.98 -5.20 -5.83
Si -10.72 -4.22 -3.02
Si  8.95  5.31  5.87
Si -1.88 11.42 -2.95
Si  1.77 11.47 -2.88
Si 10.81  4.16  3.01
Si  1.72 -11.48  2.92
Si  1.79  1.01 11.79
Si -10.80  4.26  2.98
Si  1.86 -1.04 -11.80
Si  0.07 -2.08 11.81
Si  0.05 -10.46  5.86
Si  9.01  7.35  2.92
Si -9.02  5.22  5.95
Si  0.03  2.07 -11.82
Si -9.06  7.36  2.88
Si  9.04 -7.37 -2.93
Si -1.82 -1.03 -11.85
Si -1.82 -11.53  2.92
Si  0.03 10.53 -5.84
Si -9.06 -5.23 -5.96
Si -9.05 -7.38 -2.95
Si -1.84  1.07 11.87
Si 10.92 -4.13 -3.02
Si -1.76 11.44  3.68
Si -10.83 -4.15  3.62
Si  5.40 -5.19  9.56
Si -5.37 -5.22  9.58
Si 10.80  2.01 -5.21
Si -9.06  0.94 -8.08
Si  7.24  8.31 -5.19
Si -7.24  8.31 -5.19
Si -7.23 -2.06  9.59
Si  9.06  1.00 -8.08
Si  7.25 -2.06  9.59
Si -1.83  7.35  9.56
Si  1.87  7.31  9.58
Si 10.86 -4.17  3.68
Si -5.38  7.35 -8.12
Si  5.47  7.26 -8.14
Si  3.62 -8.35 -8.14
Si -3.59 -8.33 -8.20
Si  1.85 11.53  3.70
Si -3.67 -10.43 -5.28
Si  9.06 -7.36  3.74
Si  3.57 -10.53 -5.21
Si -9.06 -7.42  3.74
Si -10.90  2.10 -5.28
Si -10.80  2.11  5.83
Si -3.56 -10.42  5.83
Si  3.64  2.13 -11.73
Si -0.05 12.47 -0.04
Si  7.20 -8.34 -5.84
Si -0.05  4.11 11.78
Si  3.61 -10.42  5.87
Si -10.84 -6.22  0.09
Si 10.84  2.12  5.87
Si -7.27 -8.34 -5.84
Si -3.62  2.09 -11.81
Si 10.86 -6.26  0.01
Si -10.86  6.27  0.01
Si  3.62 -2.09 11.83
Si  7.20  8.37  5.98
Si -10.87 -2.06 -5.95
Si 10.88  6.31  0.09
Si -3.63 10.48 -5.95
Si -0.05 -4.24 -11.86
Si -7.27  8.37  5.98
Si -0.05 -12.60 -0.04
Si -3.60 -2.04 11.91
Si  3.67 10.47 -5.99
Si 10.91 -2.06 -5.99
Si -5.48 -11.40  0.77
Si -0.01 -6.29 -11.01
Si -5.37  3.16 -11.04
Si -0.08 12.48 -2.25
Si -7.18  4.12  9.61
Si  5.36  9.39  6.66
Si  5.42 -11.46  0.76
Si  5.42 -3.10 -11.06
Si 10.83 -6.23 -2.24
Si 10.85 -0.01  6.59
Si -5.48 -3.05 -11.05
