500
set: 1366.00  0.00  0.00
Si  1.65  0.80 -0.25
Si  0.30  1.59  1.40
Si  1.54 -0.81  1.45
Si -2.23 -0.25 -0.47
Si  1.06  1.50 -1.54
Si -0.51 -2.63 -1.01
Si -0.38 -1.02 -2.75
Si -2.08  1.47  1.98
Si  0.10 -3.34  0.24
Si  1.87 -2.50 -1.59
Si -2.78 -0.90 -2.14
Si -1.47  0.76  3.23
Si -1.96  3.08  0.24
Si -3.54 -0.88  0.79
Si  2.14 -1.52  2.74
Si -1.75 -2.57  2.52
Si -2.30 -3.22  0.85
Si -1.00 -0.31 -4.00
Si  3.98 -0.88  0.79
Si -0.18  3.91 -1.59
Si  3.50  1.44 -2.20
Si  0.79 -0.73  4.39
Si  3.16  3.19  0.85
Si  1.17  3.12 -3.24
Si -2.57  3.79 -1.01
Si  1.39 -0.19 -4.58
Si -4.02  1.44 -2.20
Si -2.71  2.07 -3.46
Si  4.74 -0.90 -2.14
Si -1.60 -0.85  4.96
Si  5.29 -0.25 -0.47
Si -0.03 -4.95  1.98
Si  3.65  0.88  3.84
Si -4.36  3.19  0.85
Si  2.41  3.22  3.77
Si -0.03  3.28  4.44
Si -3.87  0.88  3.84
Si  2.36 -4.82  1.40
Si -0.66 -4.34 -3.46
Si  0.08  4.90  2.74
Si  3.22 -3.29 -3.24
Si -1.97 -4.97 -2.20
Si  2.03 -3.13  4.44
Si -0.51  5.60  1.45
Si -3.05 -3.19  3.77
Si  2.63 -2.59 -4.53
Si  3.72  3.85  2.52
Si  1.93  5.54  0.79
Si -5.87  0.80 -0.25
Si -0.87  1.30 -5.74
Si  0.57  3.82 -4.53
Si  5.43  1.47  1.98
Si -3.80  3.85  2.52
Si  3.12 -4.91 -1.54
Si  5.22 -3.22  0.85
Si -5.97 -0.81  1.45
Si -5.38 -1.52  2.74
Si -3.27  1.42 -5.13
Si  4.80  2.07 -3.46
Si  0.56  2.58  5.73
Si -4.29 -3.29 -3.24
Si  4.95  3.79 -1.01
Si -2.45 -2.65 -5.19
Si  5.56  3.08  0.24
Si -5.64 -2.50 -1.59
Si -0.99 -1.56  6.22
Si  2.68  5.51 -2.14
Si -2.44  5.39 -2.75
Si  0.58 -5.66  3.23
Si -3.32  1.53  5.51
Si  4.47 -3.19  3.77
Si -0.17 -6.66 -0.47
Si  3.71 -5.61 -0.25
Si -4.40 -4.91 -1.54
Si -3.81 -5.61 -0.25
Si  5.77 -2.57  2.52
Si -6.46  1.50 -1.54
Si  4.25  1.42 -5.13
Si -1.14 -2.02 -6.45
Si  2.74 -0.98 -6.23
Si  6.05  0.76  3.23
Si  3.23  6.17 -0.47
Si -1.81 -5.54  3.84
Si  3.01  3.76 -5.19
Si  4.20  1.53  5.51
Si -5.11  3.22  3.77
Si -4.89 -2.59 -4.53
Si -5.16 -4.82  1.40
Si -0.40  7.21 -0.25
Si -1.21 -5.00 -5.13
Si -1.27  5.69  4.39
Si  2.62 -3.83  5.73
Si  2.89  0.90  6.76
Si -1.48  2.01 -6.99
Si -1.26 -4.88  5.51
Si -1.48 -7.29  0.79
Si  0.46  0.96  7.42
Si -7.22  1.59  1.40
Si -4.29  6.17 -0.47
Si  7.01 -2.63 -1.01
Si -4.84  5.51 -2.14
Si -6.13 -0.19 -4.58
Si -0.73 -7.31 -2.14
Si  6.52 -0.31 -4.00
Si  7.13 -1.02 -2.75
Si -5.49 -3.13  4.44
Si  5.07 -2.65 -5.19
Si -3.39 -1.44  6.83
Si -0.67  6.23 -4.58
Si  5.55 -4.97 -2.20
Si  5.92 -0.85  4.96
Si  1.19 -5.12 -5.74
Si -6.35  3.12 -3.24
Si  2.15 -0.27 -7.52
Si -4.51  3.76 -5.19
Si  1.06 -6.72 -4.00
Si  5.08  5.39 -2.75
Si -5.59  5.54  0.79
Si -4.78 -0.98 -6.23
Si -3.05  6.10 -4.00
Si  0.91  2.13 -7.57
Si -6.73 -0.73  4.39
Si  1.27 -3.05  7.38
Si  1.67 -7.43 -2.75
Si  7.82  1.59  1.40
Si  4.13 -1.44  6.83
Si -1.00  7.92 -1.54
Si -7.42 -3.34  0.24
Si -0.79  3.37  7.38
Si  3.60 -7.23  1.45
Si -4.62  0.90  6.76
Si  0.57 -4.41 -6.99
Si  1.44  7.86 -2.20
Si  0.68  5.44 -6.23
Si -3.65  5.56  4.96
Si -1.75  8.00  1.40
Si  7.62 -3.34  0.24
Si -3.92 -7.23  1.45
Si  1.59  7.29  3.84
Si  3.86  5.56  4.96
Si -7.90 -1.02 -2.75
Si -3.20  4.39 -6.45
Si -3.04  4.85  6.22
Si -4.90 -3.83  5.73
Si  7.34  3.91 -1.59
Si -8.03 -2.63 -1.01
Si  4.47  6.10 -4.00
Si -3.53  7.17  3.23
Si -1.11 -3.17  7.95
Si -2.93 -0.34 -8.18
Si  2.08  4.97  6.83
Si -1.70 -2.68 -8.12
Si  3.44 -6.60 -4.58
Si -7.70  3.91 -1.59
Si  1.05  0.26  8.72
Si  3.38  7.88  1.98
Si  0.46 -7.26  4.96
Si  3.99  7.17  3.23
Si  6.86 -4.34 -3.46
Si  5.70 -5.54  3.84
Si  8.58  1.50 -1.54
Si  2.84 -7.14  4.39
Si  6.65  1.30 -5.74
Si  4.32  4.39 -6.45
Si -2.83 -0.79  8.50
Si -4.07 -6.60 -4.58
Si -3.33 -7.93  2.74
Si  4.48  4.85  6.22
Si  7.01  5.60  1.45
Si -2.57 -5.51  6.76
Si -4.14  7.88  1.98
Si -6.94  3.82 -4.53
Si  6.53 -1.56  6.22
Si -3.17  3.25  7.95
Si  2.96 -4.28 -7.57
Si  0.70 -2.80 -8.73
Si  7.49 -4.95  1.98
Si  9.17  0.80 -0.25
Si  9.06 -0.81  1.45
Si  1.54 -9.04 -1.01
Si -7.55 -4.95  1.98
Si -5.37 -0.27 -7.52
Si  6.38 -2.02 -6.45
Si  7.49  3.28  4.44
Si -7.44  4.90  2.74
Si  0.31 -8.98  2.52
Si -7.54  3.28  4.44
Si -6.95  2.58  5.73
Si  4.19 -7.93  2.74
Si  4.58 -0.34 -8.18
Si -8.52 -0.31 -4.00
Si  8.30 -0.73  4.39
Si  7.60  4.90  2.74
Si  6.04  2.01 -6.99
Si  6.04 -7.29  0.79
Si -6.93 -5.66  3.23
Si  6.25  5.69  4.39
Si  6.31 -5.00 -5.13
Si -1.35  3.62 -8.73
Si  2.51 -5.45  7.42
Si  2.75  8.48 -3.46
Si -1.63  0.29 -9.44
Si -8.99  0.76  3.23
Si  2.25  1.34 -9.22
Si -4.68 -7.14  4.39
Si  2.19  7.83 -5.13
Si  4.35  3.25  7.95
Si  6.26 -4.88  5.51
Si -0.24 -9.63  0.85
Si -3.75  3.74 -8.12
Si  3.77  3.74 -8.12
Si  0.09  6.14 -7.52
Si  1.11  9.61  0.85
Si  4.69 -0.79  8.50
Si -3.59 -8.92 -1.59
Si -9.75 -0.25 -0.47
Si  8.69  3.12 -3.24
Si -4.56 -4.28 -7.57
Si -5.85 -7.43 -2.75
Si  9.39 -2.50 -1.59
Si  3.93 -8.92 -1.59
Si -8.18 -4.34 -3.46
Si -2.56  2.53  9.21
Si -8.03  5.60  1.45
Si  2.15  7.94  5.51
Si -9.60  1.47  1.98
Si  7.34 -6.66 -0.47
Si -9.26 -2.57  2.52
Si -6.33 -5.12 -5.74
Si  5.76  8.00  1.40
Si -9.47  3.08  0.24
Si  2.16 -9.75  0.24
Si  0.84  7.32  6.76
Si -0.50 -3.88  9.21
Si  8.91 -0.19 -4.58
Si  4.95 -5.51  6.76
Si  8.09  3.82 -4.53
Si -2.72 -7.39 -6.23
Si -2.92  7.71 -5.74
Si -5.44  4.97  6.83
Si -0.89  9.53 -3.24
Si  3.51  9.49  0.24
Si -6.25 -3.05  7.38
Si  7.11  7.21 -0.25
Si -6.46 -6.72 -4.00
Si -5.93  7.29  3.84
Si  9.65 -1.52  2.74
Si  1.07 -7.97  6.22
Si -6.08  7.86 -2.20
Si -7.69 -6.66 -0.47
Si  0.09 -2.09 -9.98
Si  6.79 -7.31 -2.14
Si  8.08  2.58  5.73
Si -8.39  1.30 -5.74
Si -6.61  2.13 -7.57
Si -7.06  0.96  7.42
Si -4.01  9.49  0.24
Si -4.77  8.48 -3.46
Si  6.85  6.23 -4.58
Si  5.82 -2.68 -8.12
Si  0.35  9.63  3.77
Si -9.82 -3.22  0.85
Si -1.00 -9.61  3.77
Si  6.52  7.92 -1.54
Si  8.10 -5.66  3.23
Si -9.12 -0.85  4.96
Si  3.38 -1.42  9.75
Si -0.30  1.05 10.36
Si -0.39 -9.07 -5.19
Si -2.83 -9.01 -4.53
Si -2.24 -9.71 -3.24
Si -5.00 -5.45  7.42
Si  2.56  2.65  9.82
Si -1.33 -7.86  6.83
Si  2.53  6.08 -8.18
Si  2.63  5.62  8.50
Si  6.73  3.37  7.38
Si  0.94 -1.36 10.41
Si -10.30 -0.90 -2.14
Si -1.60  7.38  7.42
Si -3.32 -6.69 -7.52
Si -0.88 -6.75 -8.18
Si  2.89 10.20 -1.01
Si -8.50 -1.56  6.22
Si  4.59  7.71 -5.74
Si  0.91 -8.44 -6.45
Si -2.24 10.32 -1.59
Si -4.14 -1.42  9.75
Si  6.40 -3.17  7.95
Si  1.66 10.26  2.52
Si -5.26  1.34 -9.22
Si -7.92  7.21 -0.25
Si -6.83  5.44 -6.23
Si  4.96  2.53  9.21
Si -1.49  8.99  5.73
Si -5.32  7.83 -5.13
Si  4.79 -7.39 -6.23
Si -6.94 -4.41 -6.99
Si -10.09  3.79 -1.01
Si  1.66  2.04 -10.51
Si -6.47  0.26  8.72
Si -2.08  9.69  4.44
Si -5.97 -9.04 -1.01
Si  4.20 -6.69 -7.52
Si -2.90 -3.76  9.82
Si -9.48 -4.97 -2.20
Si  7.97  0.96  7.42
Si  9.44  5.54  0.79
Si  9.55 -3.13  4.44
Si -8.66 -2.02 -6.45
Si -10.23  2.07 -3.46
Si -3.21 -5.07 -9.22
Si  2.48 -1.96 -10.56
Si -1.01  6.67  8.72
Si  1.32  5.00  9.75
Si -1.97  4.33 -9.98
Si -5.37  7.94  5.51
Si -3.43 -9.55  4.44
Si  9.88 -4.82  1.40
Si  9.93  3.22  3.77
Si  3.10 -6.15  8.72
Si  4.69 -9.01 -4.53
Si -11.05 -0.88  0.79
Si  5.89  0.29 -9.44
Si -5.36 -9.75  0.24
Si -0.78 -7.20  8.50
Si 10.68  3.19  0.85
Si -8.24 -7.31 -2.14
Si -4.62 10.20 -1.01
Si  0.43 -6.12 -9.44
Si -8.19  6.23 -4.58
Si  6.17  3.62 -8.73
Si -7.06 -7.26  4.96
Si -8.73 -5.00 -5.13
Si -1.48 10.23 -4.53
Si  4.08 -9.55  4.44
Si -4.89  5.62  8.50
Si -2.69  0.93 10.94
Si -4.96  2.65  9.82
Si -2.18 -0.36 -11.11
Si 11.02  1.44 -2.20
Si -8.79  5.69  4.39
Si -4.99  6.08 -8.18
Si  4.31 -5.07 -9.22
Si  1.40 -10.76 -3.46
Si 10.15 -2.59 -4.53
Si -6.82 -2.80 -8.73
Si -8.78 -4.88  5.51
Si  0.96 10.17 -5.19
Si  0.42  4.45 -10.56
Si -1.15  8.54 -7.57
Si  4.62 -3.76  9.82
Si -3.54  8.42 -6.99
Si -9.33 -5.54  3.84
Si  5.28 -9.71 -3.24
Si  8.42  2.13 -7.57
Si -4.41 -6.15  8.72
Si -9.97 -2.65 -5.19
Si 11.50 -0.88  0.79
Si  8.09 -4.41 -6.99
Si -9.00  2.01 -6.99
Si -6.41  9.61  0.85
Si  0.09 -11.38 -2.20
Si -8.30  3.37  7.38
Si -9.00 -7.29  0.79
Si  8.58 -6.72 -4.00
Si  8.71 -5.12 -5.74
Si -1.11  5.06 10.41
Si  8.20  5.44 -6.23
Si  3.98  8.42 -6.99
Si -9.96  5.39 -2.75
Si -2.35 -11.32 -1.54
Si -10.57 -3.19  3.77
Si 10.74 -3.29 -3.24
Si  5.28 10.32 -1.59
Si  2.03 -11.36  1.98
Si  0.22 -0.48 -11.71
Si -8.51  7.92 -1.54
Si -3.10 -11.24  1.40
Si -7.21 -8.98  2.52
Si 10.20  5.51 -2.14
Si  1.75 -5.36 10.36
Si -1.98 11.31  2.74
Si 10.63 -4.91 -1.54
Si -11.54  1.44 -2.20
Si 11.17  0.88  3.84
Si -3.42  1.98 -11.17
Si -5.04 -1.96 -10.56
Si  8.79 -3.05  7.38
Si  7.97 -7.26  4.96
Si  5.43  9.69  4.44
Si  3.72 -4.37 -10.51
Si -0.13 11.95  0.79
Si  1.53 -2.06 11.71
Si -6.45 -7.97  6.22
Si -6.68  7.32  6.76
Si  4.83  0.93 10.94
Si -3.80 -4.37 -10.51
Si  5.92  7.38  7.42
Si -10.79  1.42 -5.13
Si 10.26 -0.98 -6.23
Si  0.20  7.75 -9.22
Si -11.39  0.88  3.84
Si  6.63  9.53 -3.24
Si  4.10  1.98 -11.17
Si -2.84 -10.25  5.73
Si -5.86 10.26  2.52
Si -1.36 -4.43 -11.17
Si  7.28 -9.63  0.85
Si  6.19 -7.86  6.83
Si  8.96  7.86 -2.20
Si -2.35 -3.11 11.49
Si  0.62 11.93 -2.14
Si  9.19 -7.43 -2.75
Si 11.24  3.85  2.52
Si -3.68  6.71 -9.44
Si  4.41 -11.24  1.40
Si -1.75 -12.03 -0.25
Si -8.63 -3.17  7.95
Si  7.83 -8.98  2.52
Si  0.36 -9.09 -8.12
Si  3.84  6.71 -9.44
Si -5.86  2.04 -10.51
Si  6.52 -9.61  3.77
Si  7.02 -3.88  9.21
Si  5.55  4.33 -9.98
Si -11.32  3.85  2.52
Si -7.43  6.14 -7.52
Si  8.57  0.26  8.72
Si  6.03  8.99  5.73
Si  9.66 -0.27 -7.52
Si -10.83  1.53  5.51
Si -0.63 -5.49 10.94
Si 10.14 -3.83  5.73
Si  9.11  7.29  3.84
Si  8.22 -2.80 -8.73
Si -11.87  3.19  0.85
Si  5.34 -0.36 -11.11
Si -9.27  8.00  1.40
Si 10.53  3.76 -5.19
Si  7.61  6.14 -7.52
Si  3.12  3.31 11.49
Si -2.57 12.01  1.45
Si -2.07  0.22 12.20
Si -6.58 -1.36 10.41
Si -7.76 -9.63  0.85
Si 10.75  6.17 -0.47
Si  3.33 -9.46  7.38
Si 10.41  0.90  6.76
Si 12.25 -0.90 -2.14
Si  0.94 -9.58  7.95
Si  3.02 11.81 -2.75
Si -0.52  4.36 11.71
Si -6.61 -8.44 -6.45
Si  6.64 -6.75 -8.18
Si  0.84 -11.41 -5.13
Si  5.17 -11.32 -1.54
Si 11.23 -5.61 -0.25
Si  0.24 -11.95  3.84
Si -9.21 -2.68 -8.12
Si -2.84  9.78  7.38
Si -7.16  9.63  3.77
Si -6.20  5.00  9.75
Si  0.80 -11.30  5.51
Si -7.43 -2.09 -9.98
Si  4.68 -10.25  5.73
Si  1.18 12.58 -0.47
Si -11.33 -5.61 -0.25
Si  7.12 -9.07 -5.19
Si  7.22  1.05 10.36
Si -2.08 -7.83  9.75
Si -11.81 -3.29 -3.24
Si -4.19 -9.46  7.38
Si  6.04 10.23 -4.53
Si  2.29  9.66  7.95
Si  7.61 -2.09 -9.98
Si -4.40  3.31 11.49
Si  6.51  6.67  8.72
Si -5.49 -11.36  1.98
Si  2.64 -12.07  3.23
Si  2.26 10.80 -6.45
Si  9.60  4.97  6.83
Si -8.02 -3.88  9.21
Si 12.81 -0.25 -0.47
Si  9.06 -9.04 -1.01
Si -10.57  6.10 -4.00
Si -6.12 -10.76 -3.46
Si  1.77  3.66 -12.21
Si -2.11  2.61 -12.43
Si  5.54 11.31  2.74
Si 11.77  1.42 -5.13
Si -4.50 11.81 -2.75
Si  8.63  9.61  0.85
Si -10.90 -1.44  6.83
Si -8.87  3.62 -8.73
Si 11.98 -3.19  3.77
Si 12.32  2.07 -3.46
Si  5.17 -3.11 11.49
Si -0.39  0.23 -12.97
Si -11.92 -4.91 -1.54
