500
set: 1108.00  0.00  0.00
Si -0.42  1.17 -0.76
Si  0.38 -1.16  0.84
Si  1.31  1.14  0.85
Si -1.28 -1.19 -0.84
Si -0.83  0.03  2.40
Si  0.81 -0.00 -2.44
Si  2.11 -1.23 -0.86
Si -2.16  1.21  0.81
Si -3.00 -1.11  0.77
Si  3.01  1.14 -0.80
Si -0.01 -2.33 -2.43
Si -0.01  2.34  2.43
Si -2.59  0.00 -2.38
Si  0.48  3.41 -0.84
Si  2.63 -0.04  2.42
Si -0.46 -3.46  0.85
Si -1.64  2.29 -2.41
Si  1.70 -2.27  2.41
Si  1.75  2.27 -2.43
Si -1.77 -2.26  2.43
Si  1.25 -3.46 -0.80
Si -1.24  3.49  0.77
Si  0.87 -0.03  4.01
Si -0.90  0.04 -4.01
Si  3.89 -1.11  0.77
Si -3.88  1.14 -0.80
Si  2.14  3.44  0.84
Si -2.19 -3.44 -0.76
Si  2.97 -3.40  0.81
Si -3.02  3.38 -0.86
Si -0.07 -2.31  4.00
Si  0.05  2.34 -4.04
Si -2.52 -0.01  4.03
Si -3.40 -2.32 -2.41
Si  2.58  0.04 -4.03
Si -3.42  2.34  2.41
Si  3.47  2.34  2.41
Si  3.49 -2.32 -2.41
Si -4.27 -0.04  2.42
Si  1.69  2.30  4.00
Si  4.30  0.00 -2.38
Si -1.71 -2.27 -4.04
Si  4.73  1.21  0.81
Si  1.74 -2.34 -4.02
Si -1.71  2.31  4.06
Si -4.78 -1.23 -0.86
Si  3.88  3.38 -0.86
Si -0.83  4.61 -2.38
Si -3.93 -3.40  0.81
Si -0.95 -4.61 -2.44
Si  0.86 -4.64  2.42
Si  0.94  4.64  2.40
Si -0.40  1.11  5.59
Si -3.39  2.27 -4.02
Si  0.42 -1.16 -5.59
Si -2.50  4.57  2.42
Si -5.58  1.14  0.85
Si  2.54 -4.60 -2.38
Si -2.59 -4.57  2.40
Si  3.42 -2.30  4.06
Si  3.51  2.27 -4.02
Si  5.61 -1.19 -0.84
Si  2.57  4.60 -2.44
Si -3.47 -2.30  4.06
Si  1.26  1.14 -5.60
Si  4.71 -3.44 -0.76
Si -0.40  5.81  0.81
Si -4.31  0.04 -4.03
Si  0.35 -5.83 -0.86
Si -4.75  3.44  0.84
Si -1.30 -1.14  5.68
Si  4.38 -0.01  4.03
Si  1.34  5.77 -0.76
Si -1.39 -5.76  0.84
Si  5.12 -2.26  2.43
Si -5.14  2.27 -2.43
Si  2.13 -1.16  5.64
Si  0.82 -4.57 -4.03
Si  2.13 -5.72  0.77
Si -0.75  4.59  4.03
Si -5.19 -2.27  2.41
Si -2.12  1.19 -5.67
Si -2.12  5.75 -0.80
Si -0.89 -4.63  4.01
Si  0.87  4.65 -4.01
Si  5.26  2.29 -2.41
Si  3.00  1.07  5.58
Si -3.05 -1.09 -5.63
Si  6.07  0.03  2.40
Si -6.08 -0.00 -2.44
Si  3.07  5.74  0.85
Si -3.05 -5.79 -0.84
Si -0.51 -3.46 -5.60
Si  6.47  1.17 -0.76
Si  2.64  4.57  4.01
Si -2.66 -4.56 -4.01
Si -2.55  4.64 -4.03
Si  2.61 -4.62  4.03
Si  0.46  3.47  5.68
Si -5.65 -3.46 -0.80
Si -6.51 -1.16  0.84
Si  5.66  3.49  0.77
Si  1.23 -3.53  5.58
Si  4.30 -4.57  2.40
Si -1.28  3.51 -5.63
Si -4.35 -4.60 -2.38
Si -4.32  4.60 -2.44
Si  4.39  4.57  2.42
Si -3.90  1.07  5.58
Si  3.85 -1.09 -5.63
Si  2.19  3.44 -5.59
Si -5.15 -2.34 -4.02
Si -2.16 -3.49  5.59
Si -3.82  5.74  0.85
Si  5.18 -2.27 -4.04
Si -5.20  2.30  4.00
Si  5.19  2.31  4.06
Si  3.85 -5.79 -0.84
Si  6.00  0.04 -4.01
Si -6.02 -0.03  4.01
Si -3.00  3.44  5.64
Si  3.01 -3.41 -5.67
Si -0.06 -6.87  2.41
Si  0.13  6.89 -2.41
Si -6.41  3.41 -0.84
Si  6.44 -3.46  0.85
Si -0.40  1.11 -7.28
Si  0.43 -1.16  7.28
Si -1.31 -1.14 -7.20
Si  4.23 -4.56 -4.01
Si  7.27 -1.16  0.84
Si -4.26  4.57  4.01
Si -7.31  1.17 -0.76
Si  1.26  1.14  7.27
Si -4.76 -1.16  5.64
Si -4.28 -4.62  4.03
Si -4.76 -5.72  0.77
Si  4.77  1.19 -5.67
Si  4.77  5.75 -0.80
Si  4.35  4.64 -4.03
Si  1.73 -6.92 -2.41
Si -1.66  6.94  2.41
Si -1.77 -6.93 -2.43
Si  1.75  6.95  2.43
Si -2.12  1.19  7.21
Si  2.13 -1.16 -7.23
Si  6.88 -2.33 -2.43
Si  6.88  2.34  2.43
Si  3.89  3.44  5.64
Si -3.88 -3.41 -5.67
Si -6.90 -2.33 -2.43
Si -6.90  2.34  2.43
Si  5.94 -4.61 -2.44
Si -5.96  4.64  2.40
Si -3.04 -1.10  7.24
Si  2.99  1.08 -7.30
Si  6.07  4.61 -2.38
Si -6.03 -4.64  2.42
Si  0.46  3.47 -7.20
Si  0.06  6.91  4.06
Si  3.35 -6.86  2.43
Si  5.51 -5.76  0.84
Si -0.02 -6.94 -4.02
Si -5.64  1.14 -5.60
Si -3.38  6.88 -2.43
Si -5.55  5.77 -0.76
Si  5.59 -1.14  5.68
Si -0.50 -3.46  7.27
Si  0.37 -5.76  5.64
Si  7.70 -0.00 -2.44
Si -4.71  3.44 -5.59
Si -7.72  0.03  2.40
Si -3.54 -6.86  2.43
Si  3.52  6.88 -2.43
Si  1.36  5.71  5.59
Si -0.36  5.79 -5.67
Si  4.73 -3.49  5.59
Si -0.52 -8.06 -0.80
Si -1.62  6.87 -4.02
Si -1.25  7.98 -0.86
Si  1.20 -8.00  0.81
Si -1.34 -5.76 -5.59
Si  0.53  8.10  0.77
Si -1.28  3.51  7.24
Si -7.35 -3.46  0.85
Si  7.37  3.41 -0.84
Si  1.66 -6.90  4.06
Si -1.83 -6.91  4.00
Si  1.23 -3.53 -7.30
Si  1.82  6.94 -4.04
Si  6.82 -2.31  4.00
Si -2.13  5.68  5.58
Si  2.08 -5.70 -5.63
Si  3.85 -1.10  7.24
Si -6.84  2.34 -4.04
Si -8.18 -1.19 -0.84
Si  8.20  1.14  0.85
Si -3.90  1.08 -7.30
Si  2.19  3.44  7.28
Si -6.96 -2.31  4.00
Si -2.17 -3.49 -7.28
Si  6.95  2.34 -4.04
Si  2.24  8.02 -0.84
Si -2.22 -8.07  0.85
Si  3.01 -3.42  7.21
Si -3.00  3.45 -7.23
Si  3.02  5.75 -5.60
Si  6.00 -4.63  4.01
Si  2.94 -8.04 -0.76
Si -6.07 -4.57 -4.03
Si -6.02  4.65 -4.01
Si -2.99  8.05  0.84
Si -6.47 -1.16 -5.59
Si -3.06 -5.74  5.68
Si  6.49  1.11  5.59
Si  6.14  4.59  4.03
Si  3.42 -6.87 -4.04
Si -3.44  6.90  4.00
Si  5.61  3.51 -5.63
Si -5.66 -3.53  5.58
Si  3.46  6.90  4.00
Si -3.47 -6.87 -4.04
Si  4.78  1.19  7.21
Si -4.77 -1.16 -7.23
Si  7.77 -0.03  4.01
Si  6.49  5.81  0.81
Si -7.79  0.04 -4.01
Si -6.54 -5.83 -0.86
Si -3.88 -3.42  7.21
Si  8.14 -3.46 -0.80
Si -8.13  3.49  0.77
Si  3.89  3.45 -7.23
Si -3.87  5.75 -5.60
Si  0.87 -0.03 -8.87
Si -0.89  0.04  8.87
Si  3.83 -5.74  5.68
Si  5.12 -6.93 -2.43
Si -5.16 -6.92 -2.41
Si -5.14  6.95  2.43
Si  3.90  8.05  0.84
Si -3.95 -8.04 -0.76
Si  5.23  6.94  2.41
Si  9.01 -1.23 -0.86
Si  0.06  2.33  8.83
Si -8.53  2.29 -2.41
Si -0.08 -2.30 -8.87
Si -9.06  1.21  0.81
Si  6.39 -3.46 -5.60
Si  5.59 -1.14 -7.20
Si -2.52 -0.01 -8.85
Si  8.60 -2.27  2.41
Si  2.59  0.04  8.85
Si -0.35  5.79  7.21
Si -6.43  3.47  5.68
Si  0.36 -5.76 -7.23
Si -7.29  1.11  5.59
Si  8.64  2.27 -2.43
Si -5.63  1.14  7.27
Si -1.71  2.31 -8.81
Si  4.76  5.68  5.58
Si -1.71 -2.27  8.83
Si  7.32 -1.16 -5.59
Si -8.67 -2.26  2.43
Si -7.72  4.61 -2.38
Si -4.65  8.02 -0.84
Si  1.69  2.30 -8.87
Si  1.75 -2.34  8.86
Si -4.70  3.44  7.28
Si  7.24 -5.83 -0.86
Si -4.81 -5.70 -5.63
Si  7.75 -4.64  2.42
Si  4.72 -3.49 -7.28
Si  1.36  5.72 -7.28
Si -7.29  5.81  0.81
Si  4.67 -8.07  0.85
Si -1.33 -5.77  7.28
Si  7.83  4.64  2.40
Si -7.85 -4.61 -2.44
Si  5.06 -6.91  4.00
Si  2.09 -5.70  7.24
Si -2.14  5.68 -7.30
Si -5.08  6.94 -4.04
Si -0.74  9.17  2.42
Si  0.78 -9.20 -2.38
Si  5.27  6.87 -4.02
Si  0.94  9.21 -2.38
Si -5.23 -6.90  4.06
Si -0.90 -9.24  2.42
Si -3.07 -5.74 -7.20
Si  9.03  3.44  0.84
Si -5.53  5.71  5.59
Si  3.42 -2.30 -8.81
Si -9.08 -3.44 -0.76
Si -3.38  2.27  8.86
Si  8.59  2.30  4.00
Si -3.47 -2.30 -8.81
Si  3.02  5.74  7.27
Si  5.55 -5.76 -5.59
Si -8.60 -2.27 -4.04
Si -9.48  0.00 -2.38
Si -7.64  4.59  4.03
Si -8.60  2.31  4.06
Si  3.51  2.27  8.86
Si  8.63 -2.34 -4.02
Si -6.46 -1.16  7.28
Si  5.64  7.98 -0.86
Si  5.61  3.51  7.24
Si  2.54 -9.17  2.40
Si  6.49  1.11 -7.28
Si  9.52 -0.04  2.42
Si  7.71 -4.57 -4.03
Si -4.30  0.04  8.85
Si -5.69 -8.00  0.81
Si -2.56  9.21 -2.44
Si  4.37 -0.01 -8.85
Si -0.53 -8.13  5.58
Si  0.48  8.11 -5.63
Si -5.67 -3.53 -7.30
Si  7.76  4.65 -4.01
Si  1.24 -8.02 -5.67
Si -7.40 -3.46 -5.60
Si -7.78 -4.63  4.01
Si -1.24  8.05  5.64
Si -2.72 -9.21 -2.44
Si  7.36  3.47  5.68
Si  2.70  9.24  2.40
Si -6.76  6.89 -2.41
Si  8.15  1.14 -5.60
Si  3.82 -5.74 -7.20
Si  6.83 -6.87  2.41
Si -9.89 -1.11  0.77
Si  0.82 -4.57  8.85
Si -0.76  4.59 -8.85
Si  9.90  1.14 -0.80
Si -8.19 -1.14  5.68
Si -3.87  5.74  7.27
Si -0.90 -4.63 -8.87
Si  0.87  4.64  8.87
Si -0.94 -9.17 -4.03
Si -6.95 -6.87  2.41
Si -2.27 -8.07 -5.60
Si  8.23  5.77 -0.76
Si  1.01  9.19  4.03
Si  0.85 -9.22  4.03
Si  2.23  8.07  5.68
Si -0.78  9.24 -4.03
Si -8.28 -5.76  0.84
Si  7.02  6.89 -2.41
Si -2.94  8.05 -5.59
Si -9.41 -0.01  4.03
Si -6.43  3.47 -7.20
Si  2.97 -8.10  5.59
Si  6.39 -3.46  7.27
Si  9.48  0.04 -4.03
Si  2.47 -9.16 -4.01
Si -2.54  4.64  8.85
Si  6.38 -8.06 -0.80
Si  2.61 -4.62 -8.85
Si -2.65 -4.56  8.87
Si  2.63  4.58 -8.87
Si -2.49  9.18  4.01
Si -6.37  8.10  0.77
Si  0.36 -10.32  0.77
Si -7.30  1.11 -7.28
Si -6.53 -5.76  5.64
Si -0.36 10.35 -0.80
Si  7.32 -1.16  7.28
Si -4.81 -5.70  7.24
Si  4.75  5.68 -7.30
Si  4.17 -9.21 -2.44
Si  6.53  5.79 -5.67
Si -2.65 -9.24  4.01
Si  2.63  9.25 -4.01
Si -4.19  9.24  2.40
Si -4.35 -9.17  2.40
Si  9.86 -3.40  0.81
Si  4.33  9.21 -2.44
Si  8.12 -3.53  5.58
Si  0.81 -0.01 10.44
Si  5.18  2.31 -8.81
Si  5.19 -2.27  8.83
Si -5.15 -2.34  8.86
Si -9.91  3.38 -0.86
Si -0.83  0.04 -10.48
Si -8.18  3.51 -5.63
Si -6.83  6.91  4.06
Si  1.36 10.41  0.81
Si -5.21  2.30 -8.87
Si  6.87 -6.94 -4.02
Si  3.95  8.05 -5.59
Si -1.42 -10.43 -0.86
Si -2.06 10.35  0.85
Si -6.91 -6.94 -4.02
Si -3.93 -8.10  5.59
Si  6.95  6.91  4.06
Si  2.08 -10.40 -0.84
Si -0.01 -2.33 10.44
Si  9.02 -1.16  5.64
Si -0.02  2.35 -10.45
Si  6.00  0.04  8.87
Si  9.02 -5.72  0.77
Si -9.01  1.19 -5.67
Si -9.01  5.75 -0.80
Si -6.02 -0.03 -8.87
Si -9.40  4.57  2.42
Si  9.43 -4.60 -2.38
Si  2.62 -0.03 -10.46
Si -5.53  5.72 -7.28
Si -9.48 -4.57  2.40
Si  9.46  4.60 -2.44
Si -2.59  0.00 10.50
Si -10.29 -2.32 -2.41
Si  5.56 -5.77  7.28
Si  1.76  2.27 10.44
Si -1.78 -2.26 -10.45
Si  4.24 -4.56  8.87
Si -1.63  2.29 10.46
Si  1.70 -2.26 -10.46
Si -4.26  4.58 -8.87
Si -10.32  2.34  2.41
Si  7.26 -5.76  5.64
Si  1.25 -8.02  7.21
Si  4.62 -8.07 -5.60
Si  3.10 10.37 -0.76
Si  7.35  3.47 -7.20
Si -4.28 -4.62 -8.85
Si -10.78  1.14 -0.80
Si 10.78 -1.11  0.77
Si -3.15 -10.37  0.84
Si -7.25  5.79 -5.67
Si  0.48  8.11  7.24
Si 10.36  2.34  2.41
Si -1.24  8.05 -7.23
Si  4.35  4.64  8.85
Si 10.38 -2.32 -2.41
Si -4.67  8.07  5.68
Si  4.24 -9.24  4.01
Si -7.39 -3.46  7.27
Si -4.42 -9.16 -4.01
Si  4.40  9.18  4.01
Si -0.54 -8.13 -7.30
Si -4.26  9.25 -4.01
Si -8.20 -1.14 -7.20
Si -7.41 -8.06 -0.80
Si  8.15  1.14  7.27
Si  7.42  8.10  0.77
Si  2.22  8.07 -7.20
Si  3.74 -10.37  0.84
Si -3.79 10.37 -0.76
Si -2.27 -8.07  7.27
Si  0.05  6.91 -8.81
Si -9.05 -3.49  5.59
Si  9.08  3.44 -5.59
Si -5.96  9.21 -2.38
Si -2.94  8.04  7.28
Si -3.40 -2.32 10.46
Si -0.02 -6.94  8.86
Si -3.43  2.34 -10.46
Si -9.44  4.64 -4.03
Si -10.28  2.27 -4.02
Si  3.46  2.34 -10.46
Si  3.50 -2.32 10.46
Si  5.99 -9.24  2.42
Si -8.55  6.94  2.41
Si  2.96 -8.09 -7.28
Si -4.27 -0.03 -10.46
Si -6.12 -9.20 -2.38
Si  9.53  4.57  4.01
Si  6.15  9.17  2.42
Si  9.51 -4.62  4.03
Si  8.62 -6.92 -2.41
Si  1.66 -6.90 -8.81
Si -9.55 -4.56 -4.01
Si 10.77  3.38 -0.86
Si -6.53 -5.76 -7.23
Si 10.32 -2.30  4.06
Si -1.62  6.87  8.86
Si  6.54  5.79  7.21
Si -5.65 -8.02 -5.67
Si  5.66  8.05  5.64
Si  4.31  0.00 10.50
Si  8.64  6.95  2.43
Si -8.67 -6.93 -2.43
Si -10.36 -2.30  4.06
Si -10.82 -3.40  0.81
Si 10.40  2.27 -4.02
Si  1.82  6.94  8.83
Si -1.84 -6.91 -8.87
Si  9.89  1.07  5.58
Si -6.83  2.33  8.83
Si  8.10 -8.00  0.81
Si -11.16 -0.04  2.42
Si  6.82 -2.30 -8.87
Si -8.15  7.98 -0.86
Si 11.20  0.00 -2.38
Si -0.95 -4.61 10.44
Si  4.83 10.35  0.85
Si  0.86 -4.64 -10.46
Si -8.17  3.51  7.24
Si  8.12 -3.53 -7.30
