500
set: 830.00  0.00  0.00
Si -0.41  1.11 -0.76
Si  0.43 -1.07  0.82
Si -1.37 -1.16 -0.78
Si  1.34  1.30  0.92
Si -2.15  1.14  0.85
Si  2.12 -1.27 -0.84
Si  0.93  0.04 -2.46
Si -0.88 -0.04  2.53
Si  0.02 -2.29 -2.45
Si  3.09  1.09 -0.77
Si -3.12 -1.09  0.83
Si -0.05  2.35  2.50
Si -0.50 -3.38  0.70
Si  0.43  3.45 -0.75
Si -2.65  0.03 -2.42
Si  2.62 -0.06  2.48
Si -1.56  2.37 -2.44
Si  1.68 -2.41  2.39
Si -1.82 -2.35  2.46
Si  1.88  2.37 -2.43
Si  1.27 -3.60 -0.80
Si -1.34  3.57  0.87
Si -0.86 -0.02 -4.07
Si -3.92  1.19 -0.78
Si  3.99 -1.11  0.75
Si  0.88  0.11  4.14
Si  2.24  3.59  0.88
Si -2.29 -3.57 -0.89
Si -3.01  3.45 -0.86
Si  0.15  2.21 -4.12
Si -0.02 -2.23  4.12
Si  3.12 -3.44  0.83
Si  3.45  2.31  2.45
Si -3.51 -2.28 -2.46
Si -2.67  0.04  4.10
Si -3.53  2.31  2.52
Si  2.62 -0.16 -4.16
Si  3.54 -2.40 -2.50
Si -1.76 -2.37 -4.09
Si -4.42 -0.00  2.48
Si  1.74  2.44  4.09
Si -4.88 -1.13 -0.81
Si  4.42 -0.07 -2.50
Si  1.74 -2.44 -4.13
Si -1.79  2.42  4.16
Si  4.93  1.24  0.82
Si  3.90  3.40 -0.82
Si -0.83 -4.61 -2.49
Si  0.75 -4.74  2.39
Si  0.87  4.65  2.54
Si -0.80  4.72 -2.44
Si -4.03 -3.48  0.90
Si -3.37  2.42 -4.08
Si  3.49 -2.32  4.06
Si  3.46  2.16 -4.21
Si  0.53 -1.08 -5.77
Si -3.54 -2.33  4.12
Si -0.46  1.19  5.78
Si  2.63 -4.70 -2.49
Si  5.75 -1.21 -0.88
Si -5.80  1.06  0.84
Si -4.78  3.48  0.79
Si -0.47  5.88  0.90
Si -2.67  4.70  2.55
Si -1.32 -5.77  0.88
Si -4.36  0.02 -4.10
Si -2.69 -4.71  2.54
Si  1.27  5.79 -0.89
Si  2.73  4.75 -2.49
Si  0.34 -5.96 -0.82
Si  1.41  1.19 -5.76
Si  4.39  0.08  4.17
Si  4.82 -3.58 -0.81
Si -1.46 -1.15  5.77
Si  0.92  4.55 -4.04
Si -0.84 -4.54  4.11
Si -2.21  1.14 -5.67
Si -5.21  2.19 -2.54
Si  5.20 -2.37  2.40
Si  2.19 -5.76  0.76
Si  2.17 -1.17  5.71
Si  5.22  2.35 -2.54
Si -2.21  5.83 -0.78
Si -5.31 -2.31  2.54
Si -0.92  4.78  4.15
Si  0.82 -4.80 -4.19
Si  2.99  1.17  5.77
Si -3.10 -1.17 -5.73
Si  6.15 -0.01  2.50
Si  2.56 -4.62  4.07
Si -6.17 -0.10 -2.53
Si -0.40 -3.36 -5.75
Si -2.51  4.71 -4.10
Si -3.13 -5.91 -0.75
Si  3.06  5.98  0.70
Si  4.31  4.62  2.39
Si -6.62 -1.15  0.81
Si -4.32  4.56 -2.55
Si -1.22  3.46 -5.72
Si -5.77 -3.53 -0.78
Si  1.27 -3.45  5.73
Si  0.36  3.50  5.83
Si -2.65 -4.81 -4.04
Si -4.37 -4.64 -2.44
Si  6.66  1.20 -0.88
Si  5.75  3.60  0.76
Si  4.34 -4.71  2.41
Si  2.72  4.82  4.11
Si -5.24 -2.27 -4.08
Si -5.26  2.39  4.06
Si  5.26  2.40  4.07
Si -3.96  5.82  0.79
Si -3.97  1.20  5.78
Si  5.33 -2.38 -4.14
Si  4.01 -1.23 -5.81
Si -2.28 -3.49  5.83
Si  2.34  3.54 -5.79
Si  3.98 -5.92 -0.82
Si -0.41  1.15 -7.32
Si -6.53  3.44 -0.82
Si  3.09 -3.53 -5.79
Si  6.21 -0.00 -4.14
Si  0.48 -1.10  7.37
Si -0.11 -7.05  2.45
Si -3.11  3.59  5.77
Si  6.55 -3.54  0.79
Si  0.05  7.08 -2.46
Si -6.22  0.06  4.22
Si -1.34 -1.21 -7.33
Si -7.41  1.20 -0.88
Si  4.83  5.76 -0.80
Si  7.45 -1.15  0.81
Si  4.38  4.56 -4.19
Si -1.68 -6.99 -2.43
Si -4.48 -4.58  4.15
Si  1.74  7.02  2.46
Si  1.30  1.35  7.40
Si -4.91 -5.79  0.87
Si  1.66 -7.01 -2.54
Si -4.88 -1.17  5.77
Si -4.45  4.67  4.12
Si  4.36 -4.74 -4.16
Si -1.75  7.05  2.54
Si  4.93  1.11 -5.81
Si  3.94  3.49  5.68
Si -3.91 -3.56 -5.71
Si -7.02  2.36  2.49
Si  7.05  2.36  2.49
Si -7.03 -2.48 -2.45
Si -2.21  1.15  7.45
Si  7.04 -2.48 -2.45
Si  2.24 -1.22 -7.47
Si -3.47  6.88 -2.45
Si -6.18  4.66  2.41
Si -3.08 -1.18  7.43
Si -0.35  5.79 -5.71
Si  6.19  4.67 -2.49
Si  0.02  7.03  4.12
Si  3.14  1.19 -7.43
Si -5.69  5.78 -0.81
Si  5.71 -1.12  5.73
Si -5.69  1.16 -5.75
Si  0.38 -5.87  5.68
Si -0.46 -3.46  7.40
Si  0.41  3.49 -7.38
Si -6.23 -4.66  2.55
Si  4.78 -3.45  5.69
Si  3.50 -7.00  2.49
Si -4.75  3.42 -5.76
Si  6.19 -4.80 -2.55
Si  1.70 -6.96  4.07
Si -1.82 -6.92  4.09
Si  5.74 -5.88  0.79
Si -3.61 -7.02  2.50
Si  1.37 -8.12  0.82
Si  3.58  7.07 -2.45
Si  1.80  6.99 -4.09
Si  1.29 -3.55 -7.39
Si -1.22 -5.82 -5.79
Si  7.91 -0.10 -2.53
Si -7.93 -0.01  2.50
Si -0.47 -8.27 -0.77
Si  0.44  8.27  0.83
Si  7.55  3.44 -0.82
Si -0.11 -7.20 -4.21
Si -1.68  7.09 -4.08
Si -1.40  3.55  7.43
Si -7.53 -3.54  0.79
Si  3.90 -1.16  7.31
Si -1.32  8.23 -0.81
Si  1.28  5.87  5.83
Si  8.28  1.06  0.84
Si -3.92  1.20 -7.34
Si -2.22 -8.06  0.92
Si  6.99 -2.31  4.09
Si -2.16 -3.52 -7.38
Si -8.32 -1.21 -0.88
Si  7.02  2.40 -4.13
Si -7.09 -2.31  4.09
Si -7.05  2.40 -4.13
Si  2.19  8.20 -0.78
Si  2.23  3.63  7.38
Si  2.20 -5.87 -5.85
Si -2.22  5.92  5.82
Si -6.07 -4.65 -4.10
Si -3.02  3.47 -7.39
Si  6.07 -4.69  4.12
Si  3.07 -3.54  7.34
Si  6.12  4.74  4.07
Si -6.16  4.62 -4.16
Si  3.10 -8.17 -0.88
Si -3.06  8.21  0.81
Si  3.46 -6.96 -4.13
Si  6.55  1.27  5.81
Si -6.59 -1.23 -5.78
Si -3.20 -5.86  5.83
Si  4.79  1.18  7.37
Si -4.81 -1.12 -7.38
Si -6.57 -5.92 -0.86
Si -3.53  7.05  4.09
Si  3.16  6.00 -5.75
Si -5.78 -3.44  5.82
Si -7.87 -0.00 -4.14
Si  5.76  3.49 -5.85
Si  7.86  0.06  4.22
Si -3.41 -7.15 -4.12
Si  3.54  7.13  4.12
Si  6.67  5.93  0.83
Si -5.12 -6.99 -2.44
Si -3.88  5.81 -5.72
Si  5.24  6.95  2.39
Si  3.89 -5.82  5.73
Si  8.31 -3.53 -0.78
Si -8.32  3.60  0.76
Si  1.02  0.10 -9.04
Si -5.31  6.99  2.40
Si  4.03  3.47 -7.45
Si -0.95 -0.09  9.11
Si -3.97 -8.25 -0.76
Si -4.07 -3.51  7.48
Si  4.00  8.29  0.82
Si -9.15  1.24  0.82
Si  5.31 -7.17 -2.54
Si  9.19 -1.13 -0.81
Si  2.52 -0.09  8.97
Si  0.04 -2.28 -9.06
Si -0.06  2.35  9.07
Si -2.62  0.07 -9.01
Si  8.77 -2.31  2.54
Si  1.59 -2.48  8.95
Si -1.33 -5.73  7.38
Si -6.62  3.54  5.73
Si  6.64 -3.55 -5.72
Si  4.85 -3.44 -7.34
Si -5.74  1.16  7.44
Si  5.75 -1.17 -7.43
Si  7.85 -4.66  2.55
Si  7.90  4.66  2.41
Si -1.68  2.32 -9.04
Si -4.76  8.15 -0.88
Si  8.87  2.19 -2.54
Si -7.88  4.67 -2.49
Si -8.87 -2.37  2.40
Si -8.85  2.35 -2.54
Si -4.78 -5.90 -5.72
Si  0.47 -5.89 -7.45
Si  1.41  5.84 -7.38
Si -1.71 -2.43  9.04
Si -4.90  3.48  7.38
Si -0.51  5.85  7.48
Si -7.40  5.93  0.83
Si  1.84  2.41 -9.04
Si  7.48 -1.23 -5.78
Si  4.83  5.91  5.73
Si -7.88 -4.80 -2.55
Si  4.72 -8.30  0.84
Si -7.53  1.27  5.81
Si  7.50 -5.92 -0.86
Si  5.25 -6.97  4.06
Si -5.18  6.98 -4.14
Si  5.30  6.92 -4.13
Si -2.11  5.84 -7.38
Si  2.15 -5.87  7.35
Si -5.35 -6.94  4.16
Si -0.86  9.36  2.48
Si  0.91  9.39 -2.42
Si -0.94 -9.42  2.48
Si  0.86 -9.43 -2.50
Si -3.49 -2.29 -9.00
Si  3.43  2.28  9.02
Si  5.68  8.09 -0.84
Si  5.71  3.49  7.35
Si -3.16 -5.87 -7.38
Si -2.61  9.26 -2.53
Si -5.67 -3.52 -7.38
Si -9.25 -3.58 -0.81
Si  3.10  5.90  7.40
Si  9.30  3.48  0.79
Si -8.74 -2.38 -4.14
Si  9.65 -0.00  2.48
Si -9.65 -0.07 -2.50
Si -2.63 -9.32 -2.46
Si  8.83 -2.27 -4.08
Si  8.81  2.39  4.06
Si -6.61 -1.23  7.39
Si -8.81  2.40  4.07
Si -5.73  5.91  5.69
Si  0.46  8.20 -5.73
Si  2.68  9.32  2.53
Si  3.56 -2.32 -9.08
Si -7.44 -3.55 -5.72
Si -0.57 -8.20  5.77
Si  2.59 -9.37  2.50
Si -5.71 -8.22  0.85
Si  7.45  3.54  5.73
Si -3.54  2.44  9.08
Si -4.37  0.07  9.05
Si  6.64  1.20 -7.46
Si  7.92  4.62 -4.16
Si  5.77 -5.95 -5.76
Si -1.32  8.19  5.77
Si  4.42  0.02 -9.09
Si -7.95  4.74  4.07
Si  8.01 -4.65 -4.10
Si -8.01 -4.69  4.12
Si -0.82 -4.60 -9.01
Si -6.97  6.96 -2.50
Si -10.08 -1.11  0.75
Si  1.37 -8.25 -5.81
Si -8.37 -1.12  5.73
Si  0.83 -9.28  4.17
Si  8.38  5.78 -0.81
Si -0.81  4.68 -9.06
Si  0.76 -4.81  9.00
Si -2.15 -8.18 -5.76
Si -8.34 -5.88  0.79
Si  8.38  1.16 -5.75
Si  6.98 -7.06  2.52
Si  2.10  8.21  5.77
Si 10.15  1.19 -0.78
Si  7.11  6.96 -2.50
Si  0.84  4.70  9.08
Si  4.01 -5.83 -7.43
Si -3.99  5.88  7.40
Si -0.80  9.38 -4.10
Si  0.89  9.40  4.10
Si -7.09 -7.06  2.52
Si  2.99 -8.09  5.81
Si -3.03  8.13 -5.78
Si -0.94 -9.52 -4.16
Si  6.52 -3.48  7.40
Si  2.69 -4.64 -8.99
Si -2.68 -9.25  4.14
Si -6.51  3.53 -7.43
Si  0.43 -10.47  0.75
Si  6.59 -8.17 -0.78
Si -6.67 -5.77  5.77
Si -6.52  8.25  0.75
Si -9.68  0.08  4.17
Si  9.71  0.02 -4.10
Si  2.70  9.34 -4.07
Si  2.74  4.76 -9.01
Si -2.66  4.74  9.05
Si -2.72 -4.66  9.08
Si  6.65  5.83 -5.79
Si  2.65 -9.36 -4.14
Si  4.85  5.81 -7.39
Si  7.46 -1.23  7.39
Si -0.36 10.55 -0.78
Si -7.43  1.20 -7.46
Si -4.37  9.35  2.50
Si -6.93 -6.94 -4.08
Si  1.41 10.50  0.85
Si  5.16 -2.25  9.03
Si -0.83 -0.07 -10.62
Si -4.96 -5.81  7.43
Si -2.66  9.42  4.22
Si 10.05 -3.48  0.90
Si -2.24 10.43  0.84
Si  8.29 -3.44  5.82
Si  0.87  0.10 10.67
Si -4.44 -9.41  2.53
Si  4.49  9.41 -2.46
Si -5.24 -2.22  9.08
Si  4.34 -9.46 -2.53
Si -5.23  2.34 -9.06
Si -7.03  7.04  4.06
Si -8.31  3.49 -5.85
Si  7.05  7.04  4.06
Si  7.14 -6.94 -4.08
Si -10.18  3.40 -0.82
Si -1.44 -10.63 -0.84
Si -4.02 -8.17  5.78
Si  5.35  2.33 -9.10
Si  2.19 -10.57 -0.88
Si  6.06 -0.02  9.00
Si  9.17 -5.79  0.87
Si  4.09  8.28 -5.77
Si -9.14  1.11 -5.81
Si  9.20 -1.17  5.77
Si -9.24  5.76 -0.80
Si -3.12 -10.44  0.82
Si -6.14 -0.05 -9.04
Si  0.04  2.30 -10.70
Si  3.15 10.47 -0.76
Si  0.02 -2.27 10.72
Si  4.32  4.55  9.00
Si  5.62 -5.88  7.38
Si -4.36  4.71 -8.94
Si -5.66  5.92 -7.34
Si  7.41 -5.77  5.77
Si  4.34 -4.65  9.01
Si  9.71 -4.64 -2.44
Si 10.95 -1.09  0.83
Si -2.67  0.07 10.72
Si -0.42 -8.17 -7.43
Si -1.75 -2.37 -10.65
Si  9.75  4.56 -2.55
Si -9.76  4.62  2.39
Si  0.48  8.18  7.43
Si -10.98  1.09 -0.77
Si -7.42  5.83 -5.79
Si  1.23 -8.18  7.37
Si  2.61 -0.10 -10.76
Si  4.30 -9.30  4.22
Si 10.56 -2.28 -2.46
Si -9.74 -4.71  2.41
Si 10.54  2.31  2.52
Si -10.53 -2.40 -2.50
Si -4.37 -4.68 -9.06
Si -7.48 -8.17 -0.78
Si -4.31  9.36 -4.14
Si  1.75 -2.41 -10.70
Si  1.72  2.42 10.71
Si  4.82 -8.20 -5.75
Si -1.81  2.44 10.70
Si -4.81  8.24  5.73
Si -1.25  8.24 -7.38
Si -7.55 -3.48  7.40
Si -2.26 -8.01  7.40
Si -4.42 -9.38 -4.07
Si -10.62  2.31  2.45
Si  7.57  3.53 -7.43
Si  2.22  8.15 -7.33
Si  7.55  8.25  0.75
Si -8.32 -1.17 -7.43
Si  8.34  1.16  7.44
Si  3.89 -10.51  0.81
Si  4.44  9.47  4.14
Si -3.85 10.56 -0.88
Si  3.36 -2.30 10.61
Si -6.09  9.30 -2.50
Si -3.44  2.33 -10.61
Si -3.05  8.13  7.39
Si  9.59 -4.58  4.15
Si -9.29 -3.45  5.69
Si  0.07  7.07 -9.00
Si  6.09 -9.37  2.48
Si  6.18  9.31  2.48
Si -6.21 -9.33 -2.42
Si  8.76  6.99  2.40
Si  9.63  4.67  4.12
Si -0.13 -7.08  9.02
Si -4.37 -0.02 -10.61
Si -3.42 -2.28 10.72
Si  6.63  5.82  7.34
Si  9.33  3.42 -5.76
Si  3.08 -8.17 -7.46
Si -8.84  6.95  2.39
Si -9.69  4.56 -4.19
Si  5.73  8.19  5.71
Si -6.58 -5.89 -7.39
Si  4.33  0.02 10.67
Si -10.96 -3.44  0.83
Si -1.72 -6.95 -9.04
Si -5.77 -8.22 -5.67
Si  1.85  6.93  9.04
Si 10.53 -2.33  4.12
Si  3.54  2.24 -10.77
Si -10.59 -2.32  4.06
Si -9.72 -4.74 -4.16
Si -8.77 -7.17 -2.54
Si 11.06  3.45 -0.86
Si  0.98  4.60 -10.63
Si  8.96 -6.99 -2.44
Si -10.62  2.16 -4.21
Si  1.79 -7.03 -9.10
Si -4.93 -10.52 -0.78
Si -8.36  3.49  7.35
Si -1.68  7.14  9.08
Si  7.03  2.33  9.02
Si 11.43  0.03 -2.42
Si -7.05  2.33  9.02
Si -10.06 -1.23 -5.81
Si -0.93 -4.60 10.70
Si -8.39  8.09 -0.84
Si -6.96 -2.33 -9.10
Si 10.11  5.82  0.79
Si -3.98 -8.21 -7.32
Si 10.10  1.20  5.78
