500
set: 612.00  0.00  0.00
Si  0.66 -0.85  0.95
Si -0.66  0.85 -0.95
Si  1.35  1.36  0.95
Si -1.35 -1.36 -0.95
Si  2.43 -1.36 -0.95
Si -2.43  1.36  0.95
Si -1.14 -0.12  2.75
Si  1.14  0.12 -2.75
Si -0.03 -3.06  0.95
Si  0.03  3.06 -0.95
Si  3.12  0.85 -0.95
Si -3.12 -0.85  0.95
Si  0.45 -2.10 -2.75
Si -0.45  2.10  2.75
Si  2.63 -0.12  2.75
Si -2.63  0.12 -2.75
Si  1.83  2.33 -2.75
Si -1.83 -2.33  2.75
Si  1.74 -3.57 -0.95
Si -1.74  3.57  0.95
Si -1.95  2.33 -2.75
Si  1.95 -2.33  2.75
Si -2.04 -3.57 -0.95
Si  2.04  3.57  0.95
Si  4.44 -0.85  0.95
Si -4.44  0.85 -0.95
Si -0.87 -0.39 -4.66
Si  0.87  0.39  4.66
Si  3.32  2.10  2.75
Si -3.32 -2.10 -2.75
Si -3.75  3.06 -0.95
Si  3.75 -3.06  0.95
Si  3.80  3.06 -0.95
Si -3.80 -3.06  0.95
Si  0.18 -1.82  4.66
Si -0.18  1.82 -4.66
Si  0.23  4.30  2.75
Si -0.23 -4.30 -2.75
Si -5.12 -1.36 -0.95
Si  5.12  1.36  0.95
Si -0.72 -5.27  0.95
Si  0.72  5.27 -0.95
Si -1.26  4.54 -2.75
Si  1.26 -4.54  2.75
Si -4.23  2.10  2.75
Si  4.23 -2.10 -2.75
Si  2.91 -0.39 -4.66
Si -2.91  0.39  4.66
Si  1.56  2.60  4.66
Si -1.56 -2.60 -4.66
Si  4.92  0.12 -2.75
Si -4.92 -0.12  2.75
Si -2.22  2.60  4.66
Si  2.22 -2.60 -4.66
Si  2.52  4.54 -2.75
Si -2.52 -4.54  2.75
Si -1.05  5.78  0.95
Si  1.05 -5.78 -0.95
Si -3.60 -1.82  4.66
Si  3.60  1.82 -4.66
Si  3.06 -5.27  0.95
Si -3.06  5.27 -0.95
Si  0.51  4.03 -4.66
Si -0.51 -4.03  4.66
Si -3.54  4.30  2.75
Si  3.54 -4.30 -2.75
Si  3.96 -1.82  4.66
Si -3.96  1.82 -4.66
Si -6.20  1.36  0.95
Si  6.20 -1.36 -0.95
Si  2.73  5.78  0.95
Si -2.73 -5.78 -0.95
Si  4.01  4.30  2.75
Si -4.01 -4.30 -2.75
Si -4.64 -0.39 -4.66
Si  4.64  0.39  4.66
Si -0.94  1.13  6.46
Si  0.94 -1.13 -6.46
Si  5.51 -3.57 -0.95
Si -5.51  3.57  0.95
Si -5.61 -2.33  2.75
Si  5.61  2.33 -2.75
Si  1.62  1.08 -6.46
Si -1.62 -1.08  6.46
Si -5.72  2.33 -2.75
Si  5.72 -2.33  2.75
Si  1.53 -4.81 -4.66
Si -1.53  4.81  4.66
Si -5.81 -3.57 -0.95
Si  5.81  3.57  0.95
Si -2.15  1.08 -6.46
Si  2.15 -1.08  6.46
Si -3.27  4.03 -4.66
Si  3.27 -4.03  4.66
Si  6.41 -0.12  2.75
Si -6.41  0.12 -2.75
Si  4.49  5.27 -0.95
Si -4.49 -5.27  0.95
Si -6.89 -0.85  0.95
Si  6.89  0.85 -0.95
Si -2.24 -4.81 -4.66
Si  2.24  4.81  4.66
Si  0.92  6.52  2.75
Si -0.92 -6.52 -2.75
Si -2.84 -1.13 -6.46
Si  2.84  1.13  6.46
Si -0.25  3.34  6.46
Si  0.25 -3.34 -6.46
Si -0.57  6.75 -2.75
Si  0.57 -6.75  2.75
Si  5.03 -4.54  2.75
Si -5.03  4.54 -2.75
Si  1.46 -3.29  6.46
Si -1.46  3.29 -6.46
Si  4.29  4.03 -4.66
Si -4.29 -4.03  4.66
Si  5.33  2.60  4.66
Si -5.33 -2.60 -4.66
Si  4.83 -5.78 -0.95
Si -4.83  5.78  0.95
Si  2.31  3.29 -6.46
Si -2.31 -3.29  6.46
Si -2.85  6.52  2.75
Si  2.85 -6.52 -2.75
Si -1.40 -7.48  0.95
Si  1.40  7.48 -0.95
Si -1.20 -6.24  4.66
Si  1.20  6.24 -4.66
Si -7.10 -2.10 -2.75
Si  7.10  2.10  2.75
Si -2.37  7.48 -0.95
Si  2.37 -7.48  0.95
Si -3.21 -6.75  2.75
Si  3.21  6.75 -2.75
Si  6.00 -2.60 -4.66
Si -6.00  2.60  4.66
Si  0.36 -7.99 -0.95
Si -0.36  7.99  0.95
Si  4.71 -1.13 -6.46
Si -4.71  1.13  6.46
Si  3.53  3.34  6.46
Si -3.53 -3.34 -6.46
Si  6.68 -0.39 -4.66
Si -6.68  0.39  4.66
Si -7.52  3.06 -0.95
Si  7.52 -3.06  0.95
Si  2.58 -6.24  4.66
Si -2.58  6.24 -4.66
Si  7.58  3.06 -0.95
Si -7.58 -3.06  0.95
Si  6.29  4.54 -2.75
Si -6.29 -4.54  2.75
Si -4.02  3.34  6.46
Si  4.02 -3.34 -6.46
Si  8.21 -0.85  0.95
Si -8.21  0.85 -0.95
Si -0.39  0.57 -8.36
Si  0.39 -0.57  8.36
Si -0.84  7.02  4.66
Si  0.84 -7.02 -4.66
Si  4.34 -6.75  2.75
Si -4.34  6.75 -2.75
Si  5.40  1.08 -6.46
Si -5.40 -1.08  6.46
Si -4.70 -6.52 -2.75
Si  4.70  6.52  2.75
Si  0.78 -5.50  6.46
Si -0.78  5.50 -6.46
Si  0.44  5.55  6.46
Si -0.44 -5.55 -6.46
Si -5.31  4.81  4.66
Si  5.31 -4.81 -4.66
Si  1.07  1.64  8.36
Si -1.07 -1.64 -8.36
Si -6.84  5.27 -0.95
Si  6.84 -5.27  0.95
Si  8.01 -2.10 -2.75
Si -8.01  2.10  2.75
Si -3.41 -7.99 -0.95
Si  3.41  7.99  0.95
Si  6.50  5.78  0.95
Si -6.50 -5.78 -0.95
Si  0.30  2.78 -8.36
Si -0.30 -2.78  8.36
Si -5.93  1.08 -6.46
Si  5.93 -1.08  6.46
Si  7.37  1.82 -4.66
Si -7.37 -1.82  4.66
Si  2.93  7.02  4.66
Si -2.93 -7.02 -4.66
Si  7.32 -4.30 -2.75
Si -7.32  4.30  2.75
Si -2.70  1.64  8.36
Si  2.70 -1.64 -8.36
Si -5.24  3.29 -6.46
Si  5.24 -3.29  6.46
Si -3.00 -5.50  6.46
Si  3.00  5.50 -6.46
Si  6.02  4.81  4.66
Si -6.02 -4.81 -4.66
Si -3.39 -0.57  8.36
Si  3.39  0.57 -8.36
Si  4.14 -7.99 -0.95
Si -4.14  7.99  0.95
Si  8.90  1.36  0.95
Si -8.90 -1.36 -0.95
Si -8.69 -0.12  2.75
Si  8.69  0.12 -2.75
Si -3.33  5.55  6.46
Si  3.33 -5.55 -6.46
Si  5.18  7.48 -0.95
Si -5.18 -7.48  0.95
Si -7.73  1.82 -4.66
Si  7.73 -1.82  4.66
Si -4.97 -6.24  4.66
Si  4.97  6.24 -4.66
Si -1.61 -8.73 -2.75
Si  1.61  8.73  2.75
Si -7.79 -4.30 -2.75
Si  7.79  4.30  2.75
Si -6.62 -1.13 -6.46
Si  6.62  1.13  6.46
Si -7.04  4.03 -4.66
Si  7.04 -4.03  4.66
Si  4.16 -0.57  8.36
Si -4.16  0.57 -8.36
Si -0.12 -8.96  2.75
Si  0.12  8.96 -2.75
Si -1.76 -3.85 -8.36
Si  1.76  3.85  8.36
Si  2.17 -8.73 -2.75
Si -2.17  8.73  2.75
Si -2.01  3.85  8.36
Si  2.01 -3.85 -8.36
Si  6.09  3.29 -6.46
Si -6.09 -3.29  6.46
Si  3.47 -2.78  8.36
Si -3.47  2.78 -8.36
Si  4.22  5.55  6.46
Si -4.22 -5.55 -6.46
Si -4.62  7.02  4.66
Si  4.62 -7.02 -4.66
Si  4.55 -5.50  6.46
Si -4.55  5.50 -6.46
Si  8.42  0.39  4.66
Si -8.42 -0.39 -4.66
Si -6.63  6.52  2.75
Si  6.63 -6.52 -2.75
Si -4.08 -2.78  8.36
Si  4.08  2.78 -8.36
Si -6.15  7.48 -0.95
Si  6.15 -7.48  0.95
Si  0.99  4.99 -8.36
Si -0.99 -4.99  8.36
Si  4.85  1.64  8.36
Si -4.85 -1.64 -8.36
Si  1.89  8.45 -4.66
Si -1.89 -8.45  4.66
Si -1.89  8.45 -4.66
Si  1.89 -8.45  4.66
Si  8.27  5.27 -0.95
Si -8.27 -5.27  0.95
Si -1.68  9.69 -0.95
Si  1.68 -9.69  0.95
Si -2.09 -9.69  0.95
Si  2.09  9.69 -0.95
Si  9.29 -3.57 -0.95
Si -9.29  3.57  0.95
Si  6.35 -6.24  4.66
Si -6.35  6.24 -4.66
Si  9.38  2.33 -2.75
Si -9.38 -2.33  2.75
Si  3.66 -8.96  2.75
Si -3.66  8.96 -2.75
Si  0.09 -7.71  6.46
Si -0.09  7.71 -6.46
Si  6.98  6.75 -2.75
Si -6.98 -6.75  2.75
Si -9.98  1.36  0.95
Si  9.98 -1.36 -0.95
Si  2.78 -4.99  8.36
Si -2.78  4.99 -8.36
Si  8.06  4.03 -4.66
Si -8.06 -4.03  4.66
Si  3.90  8.96 -2.75
Si -3.90 -8.96  2.75
Si -9.50  2.33 -2.75
Si  9.50 -2.33  2.75
Si  1.13  7.76  6.46
Si -1.13 -7.76 -6.46
Si  0.33 10.20  0.95
Si -0.33 -10.20 -0.95
Si -1.42  0.16 10.16
Si  1.42 -0.16 -10.16
Si -9.59 -3.57 -0.95
Si  9.59  3.57  0.95
Si  8.81 -4.54  2.75
Si -8.81  4.54 -2.75
Si  7.30  3.34  6.46
Si -7.30 -3.34 -6.46
Si -0.15  9.23  4.66
Si  0.15 -9.23 -4.66
Si  8.60 -5.78 -0.95
Si -8.60  5.78  0.95
Si -1.32  6.06  8.36
Si  1.32 -6.06 -8.36
Si -2.36 -0.16 -10.16
Si  2.36  0.16 10.16
Si  2.65 -7.76 -6.46
Si -2.65  7.76  6.46
Si -0.73  2.37 10.16
Si  0.73 -2.37 -10.16
Si  1.67 -2.05 10.16
Si -1.67  2.05 -10.16
Si -10.19  0.12 -2.75
Si 10.19 -0.12  2.75
Si -9.11 -2.60 -4.66
Si  9.11  2.60  4.66
Si -2.11 -2.05 10.16
Si  2.11  2.05 -10.16
Si -2.45 -6.06 -8.36
Si  2.45  6.06  8.36
Si  5.39  8.73  2.75
Si -5.39 -8.73 -2.75
Si -7.80  3.34  6.46
Si  7.80 -3.34 -6.46
Si  6.48 -1.64 -8.36
Si -6.48  1.64  8.36
Si -3.69 -7.71  6.46
Si  3.69  7.71 -6.46
Si  8.49 -1.13 -6.46
Si -8.49  1.13  6.46
Si 10.67  0.85 -0.95
Si -10.67 -0.85  0.95
Si -5.54 -3.85 -8.36
Si  5.54  3.85  8.36
Si -6.71 -7.02 -4.66
Si  6.71  7.02  4.66
Si -3.86  7.71 -6.46
Si  3.86 -7.71  6.46
Si -7.19 -7.99 -0.95
Si  7.19  7.99  0.95
Si  3.45 -10.20 -0.95
Si -3.45 10.20  0.95
Si -4.77 -4.99  8.36
Si  4.77  4.99 -8.36
Si  6.78  5.50 -6.46
Si -6.78 -5.50  6.46
Si -3.05 -2.37 -10.16
Si  3.05  2.37 10.16
Si -5.79  3.85  8.36
Si  5.79 -3.85 -8.36
Si -8.12  6.75 -2.75
Si  8.12 -6.75  2.75
Si -5.94  8.73  2.75
Si  5.94 -8.73 -2.75
Si  3.62  9.23  4.66
Si -3.62 -9.23 -4.66
Si  7.17  0.57 -8.36
Si -7.17 -0.57  8.36
Si -4.10 -10.20 -0.95
Si  4.10 10.20  0.95
Si  8.47  6.52  2.75
Si -8.47 -6.52 -2.75
Si  0.98 -4.26 10.16
Si -0.98  4.26 -10.16
Si  3.93 -9.23 -4.66
Si -3.93  9.23  4.66
Si -7.11  5.55  6.46
Si  7.11 -5.55 -6.46
Si -9.77  2.60  4.66
Si  9.77 -2.60 -4.66
Si  0.04 -4.58 -10.16
Si -0.04  4.58 10.16
Si -5.46  9.69 -0.95
Si  5.46 -9.69  0.95
Si -1.68 -7.20  8.36
Si  1.68  7.20 -8.36
Si -5.66 -8.45  4.66
Si  5.66  8.45 -4.66
Si -5.67  8.45 -4.66
Si  5.67 -8.45  4.66
Si  4.91  7.76  6.46
Si -4.91 -7.76 -6.46
Si -2.10  7.20 -8.36
Si  2.10 -7.20  8.36
Si -9.18 -1.08  6.46
Si  9.18  1.08 -6.46
Si  7.91 -7.99 -0.95
Si -7.91  7.99  0.95
Si -9.08  4.81  4.66
Si  9.08 -4.81 -4.66
Si -2.79 -4.26 10.16
Si  2.79  4.26 -10.16
Si -4.50  2.37 10.16
Si  4.50 -2.37 -10.16
Si -5.87 -9.69  0.95
Si  5.87  9.69 -0.95
Si  1.48 -10.94 -2.75
Si -1.48 10.94  2.75
Si 10.07  4.54 -2.75
Si -10.07 -4.54  2.75
Si 10.87  2.10  2.75
Si -10.87 -2.10 -2.75
Si -7.25  2.78 -8.36
Si  7.25 -2.78  8.36
Si  5.19 -0.16 -10.16
Si -5.19  0.16 10.16
Si -10.46  0.39  4.66
Si 10.46 -0.39 -4.66
Si -2.30 -10.94 -2.75
Si  2.30 10.94  2.75
Si -5.10  6.06  8.36
Si  5.10 -6.06 -8.36
Si  0.81 11.16 -2.75
Si -0.81 -11.16  2.75
Si -7.94  0.57 -8.36
Si  7.94 -0.57  8.36
Si -9.02  3.29 -6.46
Si  9.02 -3.29  6.46
Si -7.99 -5.55 -6.46
Si  7.99  5.55  6.46
Si -1.20 10.66 -4.66
Si  1.20 -10.66  4.66
Si -9.70  1.08 -6.46
Si  9.70 -1.08  6.46
Si  8.96  7.48 -0.95
Si -8.96 -7.48  0.95
Si  8.75  6.24 -4.66
Si -8.75 -6.24  4.66
Si -5.45  2.05 -10.16
Si  5.45 -2.05 10.16
Si  6.56 -4.99  8.36
Si -6.56  4.99 -8.36
Si 11.30 -3.06  0.95
Si -11.30  3.06 -0.95
Si -3.73 -4.58 -10.16
Si  3.73  4.58 10.16
Si -0.64  8.27  8.36
Si  0.64 -8.27 -8.36
Si -3.82  4.58 10.16
Si  3.82 -4.58 -10.16
Si -11.36 -3.06  0.95
Si 11.36  3.06 -0.95
Si -7.86 -2.78  8.36
Si  7.86  2.78 -8.36
Si 10.28  5.78  0.95
Si -10.28 -5.78 -0.95
Si -0.60 -9.92  6.46
Si  0.60  9.92 -6.46
Si  9.80  4.81  4.66
Si -9.80 -4.81 -4.66
Si -6.13 -0.16 -10.16
Si  6.13  0.16 10.16
Si -2.97 11.16 -2.75
Si  2.97 -11.16  2.75
Si 10.61 -5.27  0.95
Si -10.61  5.27 -0.95
Si -8.33  5.50 -6.46
Si  8.33 -5.50  6.46
Si  8.39 -7.02 -4.66
Si -8.39  7.02  4.66
Si  2.58 10.66 -4.66
Si -2.58 -10.66  4.66
Si -5.88 -2.05 10.16
Si  5.88  2.05 -10.16
Si  7.43 -8.96  2.75
Si -7.43  8.96 -2.75
Si  6.42 -7.76 -6.46
Si -6.42  7.76  6.46
Si -0.99 11.90 -0.95
Si  0.99 -11.90  0.95
Si -4.76  4.26 -10.16
Si  4.76 -4.26 10.16
Si  1.82  9.97  6.46
Si -1.82 -9.97 -6.46
Si -1.96  9.97  6.46
Si  1.96 -9.97 -6.46
Si -0.29  6.47 -10.16
Si  0.29 -6.47 10.16
Si -11.99  0.85 -0.95
Si 11.99 -0.85  0.95
Si  6.23  6.06  8.36
Si -6.23 -6.06 -8.36
Si -0.59 -0.67 -12.07
Si  0.59  0.67 12.07
Si  7.67  8.96 -2.75
Si -7.67 -8.96  2.75
Si -8.62 -1.64 -8.36
Si  8.62  1.64  8.36
Si  0.10  1.54 -12.07
Si -0.10 -1.54 12.07
Si -3.14 -8.27 -8.36
Si  3.14  8.27  8.36
Si -11.09  4.30  2.75
Si 11.09 -4.30 -2.75
Si 11.15  1.82 -4.66
Si -11.15 -1.82  4.66
Si -9.86 -3.29  6.46
Si  9.86  3.29 -6.46
