500
set: 419.00  0.00  0.00
Si -0.01 -0.07 -0.02
Si -1.81  1.01  0.70
Si  1.73  1.11  0.77
Si -0.01 -2.13  0.74
Si  0.11  0.02 -2.28
Si -1.75 -1.03 -2.96
Si -1.78  1.02  2.95
Si  3.60  0.09  0.01
Si -1.86 -3.09 -0.07
Si -1.83  3.13  0.10
Si -0.04 -2.07  2.99
Si -0.04  2.15 -2.98
Si  1.82 -3.19  0.10
Si  1.79  3.24 -0.07
Si -3.71  0.09  0.01
Si  1.88 -1.09 -3.02
Si  1.91  1.08  3.01
Si -1.86  3.12 -2.16
Si -3.62 -0.04 -2.23
Si  1.81 -1.10  3.68
Si  3.65 -2.06  0.76
Si  1.79 -3.20 -2.16
Si -3.66 -2.06  0.76
Si  1.81  3.12 -2.28
Si  0.03  2.06  3.74
Si  3.69 -0.04 -2.23
Si -0.01  4.27  0.76
Si -1.84 -3.21 -2.28
Si -1.86 -1.09  3.80
Si  0.01  4.18  2.98
Si -3.64  2.07 -2.98
Si  3.67  2.07 -2.98
Si -3.64 -2.15  2.98
Si  3.67 -2.15  2.98
Si  0.01 -4.26 -2.98
Si -3.54  2.13  3.69
Si  0.11 -4.20  3.69
Si  3.64  4.20  0.74
Si -1.92 -5.22  0.77
Si -3.67  4.20  0.74
Si  5.49  1.01  0.70
Si -0.01  2.09 -5.23
Si -1.92 -1.00 -5.20
Si  1.84 -5.31  0.70
Si  1.84 -1.09 -5.26
Si  3.77  2.13  3.69
Si -5.57  1.11  0.77
Si  1.82  1.02 -5.86
Si  1.79 -0.98  5.89
Si -0.06 -6.24  0.01
Si  5.45 -3.09 -0.07
Si -5.40  1.08  3.01
Si  3.62 -4.18 -2.98
Si -0.06 -2.02 -5.96
Si -1.78  5.24 -3.02
Si -1.75 -5.25  3.01
Si -5.43 -1.09 -3.02
Si  5.48  3.13  0.10
Si -3.69 -4.18 -2.98
Si  3.62  4.26  2.99
Si -5.48 -3.19  0.10
Si  5.53  1.02  2.95
Si  1.91  5.30 -2.96
Si  1.88 -5.31  2.95
Si -0.06  2.20  5.97
Si -3.69  4.26  2.99
Si  5.56 -1.03 -2.96
Si -5.51  3.24 -0.07
Si -0.06  6.42  0.01
Si -1.86  1.13 -6.04
Si -1.83 -1.09  6.07
Si  5.45  3.12 -2.16
Si -1.84  5.22  3.68
Si  0.03  6.28 -2.23
Si -0.01 -4.17 -5.21
Si -5.49 -1.10  3.68
Si  1.79  5.24  3.80
Si -5.49  3.12 -2.28
Si  3.65  2.16 -5.21
Si -3.66  2.16 -5.21
Si -0.01  0.05  6.72
Si -3.62 -4.26  3.74
Si  5.45 -1.09  3.80
Si -5.51 -3.20 -2.16
Si  5.47 -3.21 -2.28
Si  0.03 -6.37 -2.23
Si  3.69 -4.26  3.74
Si  3.64  6.26 -0.02
Si -3.67  6.26 -0.02
Si  3.64  2.04  5.95
Si -3.67  2.04  5.95
Si -0.01  4.15 -5.98
Si  7.29 -0.07 -0.02
Si -7.32 -0.07 -0.02
Si -0.01 -4.28  5.95
Si  3.64 -2.17 -5.98
Si -3.67 -2.17 -5.98
Si  3.64 -6.39 -0.02
Si -3.67 -6.39 -0.02
Si  5.39 -5.22  0.77
Si -7.20  0.02 -2.28
Si  5.39 -1.00 -5.20
Si -3.54 -6.30 -2.28
Si  1.84  3.12  6.67
Si  1.84  7.34  0.70
Si  1.73 -3.11  6.73
Si -1.81 -3.20  6.67
Si -3.54  6.35 -2.28
Si  3.64 -0.02  6.70
Si  7.29 -2.13  0.74
Si -3.67 -0.02  6.70
Si -1.81  5.23 -5.26
Si  1.73  5.33 -5.20
Si  3.64 -4.24 -5.23
Si -5.47 -5.31  0.70
Si -7.32 -2.13  0.74
Si -3.67 -4.24 -5.23
Si -5.47 -1.09 -5.26
Si  3.77 -6.30 -2.28
Si -1.92  3.22  6.73
Si -1.92  7.43  0.77
Si  3.77  6.35 -2.28
Si  7.42  0.02 -2.28
Si -5.48  1.02 -5.86
Si  3.60 -4.13  5.97
Si -1.83 -5.30 -5.86
Si -5.40  5.30 -2.96
Si -5.51 -0.98  5.89
Si  7.27 -2.07  2.99
Si  1.88  7.34  2.95
Si  7.27  2.15 -2.98
Si -5.43 -5.31  2.95
Si -3.71 -4.13  5.97
Si  1.91 -7.36 -2.96
Si  1.79 -5.20 -6.04
Si -1.86  5.35  5.89
Si -1.75  7.41  3.01
Si  3.60  4.31 -5.96
Si  5.53  5.24 -3.02
Si -7.34 -2.07  2.99
Si -1.78 -7.42 -3.02
Si -7.34  2.15 -2.98
Si  5.45  1.13 -6.04
Si  5.56 -5.25  3.01
Si  1.82  5.24  6.07
Si -3.71  4.31 -5.96
Si  5.48 -1.09  6.07
Si  1.79  1.02 -8.13
Si  5.47  5.22  3.68
Si -0.01 -8.38  0.76
Si -7.27  2.06  3.74
Si  0.03 -2.15 -8.19
Si  7.34  2.06  3.74
Si  7.30  4.27  0.76
Si -1.84 -7.43  3.68
Si -7.31  4.27  0.76
Si -5.51  5.24  3.80
Si -1.84  1.01 -8.25
Si  1.79 -7.42  3.80
Si  0.01  8.40 -2.98
Si -7.29  4.18  2.98
Si  7.32  4.18  2.98
Si  0.01 -0.04 -8.95
Si  0.01 -0.04  8.95
Si -7.29 -4.26 -2.98
Si  7.32 -4.26 -2.98
Si  0.01 -8.48  2.98
Si -7.20 -4.20  3.69
Si  9.04  1.11  0.77
Si  1.73 -7.33 -5.20
Si -5.47  3.12  6.67
Si -5.47  7.34  0.70
Si  5.39  3.22  6.73
Si -9.12  1.01  0.70
Si -0.01  6.31  6.70
Si -3.54 -2.09 -8.24
Si  5.49 -3.20  6.67
Si  5.39  7.43  0.77
Si  7.29  2.09 -5.23
Si  0.11  8.46  3.69
Si -0.01 -6.35  6.70
Si  5.49  5.23 -5.26
Si -7.32  2.09 -5.23
Si  3.64 -8.46  0.74
Si -3.67 -8.46  0.74
Si  0.11  4.24 -8.24
Si -5.57 -3.11  6.73
Si -1.81 -7.42 -5.26
Si  7.42 -4.20  3.69
Si  3.77 -2.09 -8.24
Si -5.57  5.33 -5.20
Si  7.25 -6.24  0.01
Si -1.86 -7.30  5.89
Si -1.83  7.35 -5.86
Si -9.05 -1.03 -2.96
Si  1.79 -9.41 -0.07
Si -5.40 -7.36 -2.96
Si  7.25 -2.02 -5.96
Si -5.43  7.34  2.95
Si -9.08  1.02  2.95
Si  3.62 -8.39  2.99
Si  5.48 -5.30 -5.86
Si  1.88  3.13  8.92
Si -1.75  3.19 -8.92
Si  1.82  9.46  0.10
Si -1.78 -3.20  8.92
Si  5.45  5.35  5.89
Si -3.69 -8.39  2.99
Si  3.62  0.04 -8.94
Si  7.25  2.20  5.97
Si  1.91 -3.14 -8.92
Si -7.36 -6.24  0.01
Si  3.62  0.04  8.95
Si -9.13  3.13  0.10
Si  9.10  3.24 -0.07
Si -9.17 -3.09 -0.07
Si -3.69  0.04 -8.94
Si  9.13 -3.19  0.10
Si  7.25  6.42  0.01
Si -1.75  3.19  8.98
Si -3.69  0.04  8.95
Si -7.36 -2.02 -5.96
Si  3.62  8.48 -2.98
Si -5.51 -5.20 -6.04
Si  1.88  3.12 -8.98
Si -1.83 -9.52  0.10
Si  1.91 -3.14  8.98
Si -1.78 -3.20 -8.98
Si -3.69  8.48 -2.98
Si -5.48  5.24  6.07
Si  9.18 -1.09 -3.02
Si  5.53 -7.42 -3.02
Si -7.36  2.20  5.97
Si  5.56  7.41  3.01
Si -1.86  9.57 -0.07
Si  9.21  1.08  3.01
Si  1.82 -7.41  6.07
Si  1.79  7.46 -6.04
Si -7.36  6.42  0.01
Si  1.79  9.45 -2.16
Si -7.27  6.28 -2.23
Si -3.62  8.39  3.74
Si -1.84  1.01  9.65
Si -5.51  1.02 -8.13
Si -3.62  4.17 -8.19
Si  9.10 -3.20 -2.16
Si -1.86 -5.31 -8.13
Si -1.84  9.44 -2.28
Si  7.30 -4.17 -5.21
Si  3.65 -6.28  6.72
Si -7.31 -4.17 -5.21
Si -3.66 -6.28  6.72
Si  3.69  8.39  3.74
Si  9.12 -1.10  3.68
Si  9.12  3.12 -2.28
Si  3.69  4.17 -8.19
Si  7.34  6.28 -2.23
Si -7.27 -6.37 -2.23
Si -9.17  3.12 -2.16
Si  7.30  0.05  6.72
Si -7.31  0.05  6.72
Si  5.47 -7.43  3.68
Si  0.03 -2.15  9.70
Si  5.47  1.01 -8.25
Si -1.86 -9.53 -2.16
Si -9.15 -3.21 -2.28
Si -0.01  8.49 -5.21
Si  3.65  6.38  6.72
Si -3.66  6.38  6.72
Si  7.34 -6.37 -2.23
Si  1.81 -9.54 -2.28
Si  1.81 -5.32 -8.25
Si  1.79  1.02  9.77
Si -9.17 -1.09  3.80
Si -5.51 -7.42  3.80
Si -0.01  8.37  5.95
Si  7.29  4.15 -5.98
Si -7.32  4.15 -5.98
Si  7.29 -4.28  5.95
Si -7.32 -4.28  5.95
Si -0.01 -8.50 -5.98
Si -3.54 -2.09  9.65
Si  0.11  4.24  9.65
Si -0.01 10.53  0.74
Si  3.64  8.42 -5.23
Si -3.67  8.42 -5.23
Si  3.77 -2.09  9.65
Si -5.57 -7.33 -5.20
Si  9.14 -5.31  0.70
Si  9.14 -1.09 -5.26
Si  5.49 -7.42 -5.26
Si -9.23 -5.22  0.77
Si -9.23 -1.00 -5.20
Si  5.45 -7.30  5.89
Si  3.60 -8.34 -5.96
Si  5.48  7.35 -5.86
Si  9.10 -0.98  5.89
Si -9.05 -5.25  3.01
Si -5.40 -3.14 -8.92
Si -5.43  3.13  8.92
Si  9.13  1.02 -5.86
Si 10.90  0.09  0.01
Si -3.71 -8.34 -5.96
Si -5.51 -9.41 -0.07
Si -9.08  5.24 -3.02
Si -0.04 -10.50 -2.98
Si -0.04 -6.29 -8.94
Si -5.48  9.46  0.10
Si -5.40 -3.14  8.98
Si -0.04 -6.29  8.95
Si -5.43  3.12 -8.98
Si  5.53 -3.20  8.92
Si -0.04  6.37 -8.94
Si  5.56  3.19 -8.92
Si  5.48 -9.52  0.10
Si -0.04  6.37  8.95
Si -0.04 10.59  2.99
Si  9.18 -5.31  2.95
Si  5.45  9.57 -0.07
Si  3.60  8.53  5.97
Si -11.02  0.09  0.01
Si -9.13 -1.09  6.07
Si  5.53 -3.20 -8.98
Si  5.56  3.19  8.98
Si  9.21  5.30 -2.96
Si -9.17  1.13 -6.04
Si -5.48 -7.41  6.07
Si -3.71  8.53  5.97
Si -5.51  7.46 -6.04
Si -1.86  7.34 -8.13
Si  5.45 -5.31 -8.13
Si  5.47  1.01  9.65
Si  7.30 -8.38  0.76
Si  5.47  9.44 -2.28
Si -7.31 -8.38  0.76
Si -10.93 -0.04 -2.23
Si -5.51  9.45 -2.16
Si -9.15  5.22  3.68
Si  9.10  5.24  3.80
Si -3.62  4.17  9.70
Si -7.27 -2.15 -8.19
Si  1.81 -5.32  9.65
Si 10.95 -2.06  0.76
Si -0.01  0.05 -11.18
Si -10.96 -2.06  0.76
Si  1.81  7.33 -8.25
Si  5.45 -9.53 -2.16
Si  3.69  4.17  9.70
Si  7.34 -2.15 -8.19
Si 10.99 -0.04 -2.23
Si  0.03 -10.59  3.74
Si  3.65 10.60  0.76
Si -3.66 10.60  0.76
Si -5.49 -9.54 -2.28
Si -5.49 -5.32 -8.25
Si -5.51  1.02  9.77
Si -1.86 -5.31  9.77
Si -3.64 10.51  2.98
Si -7.29  8.40 -2.98
Si  3.67 10.51  2.98
Si -3.64  6.29 -8.95
Si -3.64  6.29  8.95
Si -10.95  2.07 -2.98
Si  7.32  8.40 -2.98
Si  3.67  6.29 -8.95
Si  3.67  6.29  8.95
Si -7.29 -0.04 -8.95
Si -7.29 -0.04  8.95
Si -10.95 -2.15  2.98
Si 10.97  2.07 -2.98
Si  7.32 -0.04 -8.95
Si  7.32 -0.04  8.95
Si -3.64 -6.37 -8.95
Si -3.64 -6.37  8.95
Si -7.29 -8.48  2.98
Si 10.97 -2.15  2.98
Si  3.67 -6.37 -8.95
Si  3.67 -6.37  8.95
Si -3.64 -10.59 -2.98
Si  7.32 -8.48  2.98
Si  3.67 -10.59 -2.98
Si -10.85  2.13  3.69
Si  9.04 -3.11  6.73
Si -3.54 -10.52  3.69
Si  1.73 -11.55  0.77
Si -7.20  8.46  3.69
Si -1.81  9.45  6.67
Si  9.04  5.33 -5.20
Si  1.73 -3.11 -11.16
Si -7.20  4.24 -8.24
Si  9.14  3.12  6.67
Si -9.12 -3.20  6.67
Si  7.29  6.31  6.70
Si 10.95  4.20  0.74
Si  9.14  7.34  0.70
Si -1.92 -9.44  6.73
Si -9.12  5.23 -5.26
Si -7.32  6.31  6.70
Si  7.29 -6.35  6.70
Si  3.77 -10.52  3.69
Si  3.64 -0.02 -11.19
Si -10.97  4.20  0.74
Si  1.84 -9.53  6.67
Si -1.92  3.22 -11.16
Si  0.11 -8.41 -8.24
Si -3.67 -0.02 -11.19
Si -7.32 -6.35  6.70
Si -0.01 -10.56 -5.23
Si  1.84  3.12 -11.23
Si -1.81 -11.64  0.70
Si  1.73  9.54  6.73
Si -1.81 -3.20 -11.23
Si  7.42  8.46  3.69
Si 11.07  2.13  3.69
Si -9.23  3.22  6.73
Si  7.42  4.24 -8.24
Si -9.23  7.43  0.77
Si -1.83 -1.09 -11.83
Si -0.06 -10.45  5.97
Si -1.86  1.13 11.86
Si 10.92 -4.18 -2.98
Si -9.05  7.41  3.01
Si -9.13 -5.30 -5.86
Si  9.10 -5.20 -6.04
Si  1.88 11.56 -3.02
Si 10.92  4.26  2.99
Si -0.06 -2.02 11.94
Si -9.08 -7.42 -3.02
Si  1.91 -11.58  3.01
Si -1.75 11.62 -2.96
Si  9.18  7.34  2.95
Si -0.06  2.20 -11.92
Si -11.00 -4.18 -2.98
Si -1.78 -11.64  2.95
Si -9.17  5.35  5.89
Si  9.13  5.24  6.07
Si  9.21 -7.36 -2.96
Si -11.00  4.26  2.99
Si  1.79 -0.98 -12.01
Si -0.06 10.64 -5.96
Si  1.82  1.02 12.04
Si  5.45  7.34 -8.13
Si  9.10  1.02 -8.13
Si  1.81  7.33  9.65
Si  1.81 11.55  3.68
Si  3.65 -10.49 -5.21
Si -3.66 -10.49 -5.21
Si -10.93 -4.26  3.74
Si -5.49 -5.32  9.65
Si -1.86 11.56  3.80
Si -7.27 -2.15  9.70
Si 10.95  2.16 -5.21
Si -5.49  7.33 -8.25
Si -10.96  2.16 -5.21
Si -3.62 -8.48 -8.19
Si  9.10 -7.42  3.80
Si -9.15 -7.43  3.68
Si  7.30  8.49 -5.21
Si -7.31  8.49 -5.21
Si  7.34 -2.15  9.70
Si  3.69 -8.48 -8.19
Si -9.15  1.01 -8.25
Si -1.86  7.34  9.77
Si 10.99 -4.26  3.74
Si  5.45 -5.31  9.77
Si -0.01 12.59 -0.02
Si  7.29  8.37  5.95
Si  3.64 10.48 -5.98
Si -7.32  8.37  5.95
Si 10.95  6.26 -0.02
Si -3.67 10.48 -5.98
Si -0.01  4.15 11.91
Si 10.95  2.04  5.95
Si -10.97  6.26 -0.02
Si  3.64 -2.17 11.91
Si -10.97  2.04  5.95
Si -3.67 -2.17 11.91
Si  3.64  2.04 -11.95
Si 10.95 -2.17 -5.98
Si -3.67  2.04 -11.95
Si 10.95 -6.39 -0.02
Si -10.97 -2.17 -5.98
Si -0.01 -4.28 -11.95
Si  3.64 -10.61  5.95
Si -10.97 -6.39 -0.02
Si  7.29 -8.50 -5.98
Si -3.67 -10.61  5.95
Si -7.32 -8.50 -5.98
Si -0.01 -12.72 -0.02
Si  9.04 -7.33 -5.20
Si -10.85 -6.30 -2.28
Si -7.20  4.24  9.65
Si -10.85  6.35 -2.28
Si  5.39 -9.44  6.73
Si  5.49  9.45  6.67
Si  0.11 -8.41  9.65
Si  5.39  3.22 -11.16
Si  1.84 -1.09 12.63
Si  7.29 10.53  0.74
Si  1.84 11.56 -5.26
