500
set: 1162.00  0.00  0.00
Si -0.05  0.01  0.03
Si  0.04 -0.01 -2.34
Si  0.07 -0.03  2.41
Si -1.27  2.13 -0.02
Si  2.50  0.02 -0.12
Si -1.22 -2.18 -0.00
Si -2.52  0.01 -0.05
Si  1.26 -2.21  0.02
Si  1.29  2.22 -0.01
Si  1.20  2.11 -2.36
Si -1.19  2.12  2.36
Si -1.26 -2.12  2.38
Si -2.52  0.02  2.34
Si -1.24 -2.15 -2.37
Si  2.53  0.06  2.35
Si  1.26  2.21  2.37
Si -1.31  2.18 -2.37
Si  1.33 -2.15  2.40
Si -2.54  0.01 -2.40
Si  1.29 -2.25 -2.37
Si  2.56 -0.09 -2.42
Si  3.77 -2.08  0.06
Si -3.75 -2.13 -0.02
Si -3.71  2.21  0.05
Si  3.72  2.20 -0.01
Si -0.03  4.36  0.01
Si  0.01 -4.39 -0.02
Si -0.03  0.01 -4.72
Si -0.03  0.01  4.76
Si  0.03 -4.29  2.35
Si  3.78  2.11 -2.34
Si -3.78 -2.13  2.32
Si -0.06  4.32  2.42
Si -3.81  2.12 -2.36
Si -3.79 -2.17 -2.35
Si  0.01  4.36 -2.38
Si  3.77 -2.13  2.44
Si  3.76  2.24  2.36
Si -2.49 -4.32 -0.02
Si -4.99  0.01  0.00
Si  3.80 -2.22 -2.37
Si  0.01 -4.39 -2.40
Si -2.51  4.34  0.05
Si -3.84  2.18  2.40
Si  2.51  4.38 -0.02
Si  2.56 -4.35  0.05
Si  5.08  0.01  0.00
Si -1.19 -2.21 -4.71
Si  2.50 -0.09 -4.73
Si -2.52  0.03  4.73
Si -1.32  2.14 -4.74
Si  2.49 -0.09  4.75
Si -1.32  2.14  4.75
Si  1.25 -2.19 -4.74
Si  1.25 -2.19  4.75
Si -2.52  0.03 -4.75
Si  1.29  2.20 -4.74
Si  1.29  2.20  4.74
Si -1.19 -2.21  4.78
Si -4.96 -0.01 -2.34
Si -2.56 -4.28  2.35
Si  5.00  0.05  2.34
Si -2.50  4.32 -2.36
Si  2.44  4.32 -2.44
Si  2.43  4.41  2.35
Si -5.07  0.05  2.34
Si -2.53  4.34  2.45
Si  2.58 -4.37 -2.36
Si  2.54 -4.35  2.45
Si  5.11 -0.01 -2.34
Si -2.55 -4.38 -2.44
Si -3.74 -2.14  4.68
Si  3.72  2.13  4.72
Si  0.00 -4.31 -4.72
Si  3.72  2.13 -4.76
Si -0.04  4.32 -4.74
Si -0.04  4.32  4.75
Si -0.00 -4.31  4.77
Si -3.73 -2.14 -4.80
Si  3.81 -2.17 -4.74
Si  3.81 -2.18  4.75
Si -3.84  2.20 -4.72
Si -3.84  2.20  4.77
Si  5.01  4.31 -0.02
Si -1.27 -6.50 -0.01
Si  1.37 -6.48  0.05
Si -6.30 -2.08  0.06
Si -5.03 -4.34  0.01
Si -5.06  4.31 -0.02
Si  5.04 -4.34  0.01
Si  6.31 -2.13 -0.02
Si  1.24  6.57 -0.02
Si -6.35  2.20 -0.01
Si  6.36  2.21  0.05
Si -1.30  6.62  0.06
Si  2.51  4.33  4.65
Si -2.48 -4.36  4.65
Si  2.52 -4.35 -4.70
Si -2.56  4.34 -4.70
Si -5.02 -0.06 -4.73
Si -5.03 -0.06  4.75
Si  5.04 -0.06 -4.73
Si  5.04 -0.06  4.75
Si  2.52 -4.35  4.78
Si -2.56  4.34  4.78
Si  2.52  4.33 -4.84
Si -2.48 -4.36 -4.84
Si -1.23 -6.45  2.36
Si -1.28  6.47 -2.37
Si  6.25  2.12 -2.36
Si  5.00  4.30 -2.40
Si -4.98 -4.34 -2.38
Si  6.23  2.18  2.40
Si  6.29 -2.13  2.32
Si -6.29  2.11 -2.34
Si  1.20  6.53 -2.35
Si  6.27 -2.17 -2.35
Si  1.24 -6.51  2.40
Si -6.27 -2.22 -2.37
Si -5.07  4.30 -2.40
Si  1.21  6.57  2.32
Si  0.07 -0.03 -7.08
Si -6.29 -2.13  2.44
Si  5.01 -4.37  2.42
Si  5.03  4.41  2.35
Si -1.21 -6.59 -2.34
Si -6.31  2.24  2.36
Si  1.26 -6.58 -2.36
Si  5.09 -4.34 -2.38
Si -5.04  4.41  2.35
Si -5.05 -4.37  2.42
Si -1.30  6.56  2.44
Si  0.04 -0.01  7.14
Si -3.71 -6.48 -0.01
Si  2.56 -0.09  7.07
Si  1.33 -2.15 -7.08
Si -1.26 -2.12 -7.10
Si  3.77  6.51 -0.00
Si -3.81  6.49  0.02
Si -2.54  0.01  7.08
Si  1.20  2.11  7.13
Si -1.19  2.13 -7.13
Si -1.24 -2.15  7.11
Si  7.55  0.01 -0.05
Si -1.31  2.18  7.12
Si  1.26  2.21 -7.12
Si -7.57  0.02 -0.12
Si  1.28 -2.25  7.12
Si  2.53  0.06 -7.14
Si -2.52  0.02 -7.15
Si  3.80 -6.57 -0.02
Si -3.79  6.45 -2.37
Si -3.73 -6.49  2.37
Si  3.76 -6.51 -2.37
Si -7.51 -0.09 -2.42
Si -7.54  0.06  2.35
Si  7.53  0.01 -2.40
Si  7.55  0.02  2.34
Si  3.75  6.54 -2.37
Si -3.75  6.55  2.40
Si  3.73  6.57  2.38
Si -3.79 -6.59 -2.36
Si  3.88 -6.57  2.36
Si  6.23  2.20 -4.72
Si  1.24 -6.50 -4.72
Si -6.26 -2.17 -4.74
Si  6.23  2.20  4.77
Si  4.99  4.38 -4.72
Si  1.26  6.55  4.68
Si -6.26 -2.18  4.75
Si  1.24 -6.50  4.77
Si -1.27  6.52 -4.74
Si  6.33 -2.14  4.68
Si -1.27  6.52  4.75
Si  4.99  4.38  4.77
Si  5.03 -4.37 -4.74
Si -5.04 -4.37 -4.74
Si  5.03 -4.37  4.75
Si -5.04 -4.37  4.75
Si -1.28 -6.57  4.72
Si -6.35  2.13  4.72
Si -5.08  4.38 -4.72
Si -1.28 -6.57 -4.76
Si -6.35  2.13 -4.76
Si  1.26  6.55 -4.80
Si -5.08  4.38  4.77
Si  6.33 -2.14 -4.80
Si  3.78 -2.13 -7.05
Si -0.06  4.33 -7.06
Si  0.03 -4.29 -7.13
Si  0.01  4.36  7.11
Si  0.00 -4.39  7.09
Si -3.84  2.18 -7.09
Si  3.78  2.11  7.14
Si -3.81  2.12  7.13
Si -3.79 -2.17  7.13
Si  3.80 -2.23  7.12
Si  3.76  2.25 -7.13
Si -3.78 -2.13 -7.16
Si  2.44  4.32  7.04
Si -2.53  4.34 -7.04
Si  2.54 -4.35 -7.04
Si -7.50 -4.35  0.05
Si -2.55 -4.38  7.04
Si  0.09 -8.68  0.00
Si -2.50  4.32  7.12
Si -4.96 -0.01  7.15
Si  0.00  8.71  0.00
Si -2.56 -4.28 -7.14
Si  7.56  4.34  0.05
Si  5.00  0.05 -7.14
Si  7.58 -4.32 -0.02
Si -7.56  4.38 -0.02
Si  2.43  4.41 -7.14
Si  2.58 -4.38  7.12
Si -5.07  0.05 -7.14
Si  5.11 -0.01  7.15
Si -3.71 -6.49 -4.74
Si -3.71 -6.49  4.74
Si  3.80  6.48 -4.71
Si  3.80  6.48  4.78
Si  7.55  0.03  4.73
Si -3.83  6.50 -4.74
Si -3.83  6.50  4.75
Si  3.75 -6.56 -4.74
Si  7.55  0.03 -4.75
Si  3.75 -6.56  4.75
Si -7.57 -0.09 -4.73
Si -7.57 -0.09  4.75
Si  0.01 -8.64  2.34
Si  7.51 -4.28  2.35
Si -7.49 -4.37 -2.36
Si  0.03  8.69 -2.34
Si  6.25  6.49  0.02
Si  0.11 -8.70 -2.34
Si -2.49 -8.67 -0.12
Si -7.53 -4.35  2.45
Si  7.57  4.32 -2.36
Si  7.52 -4.38 -2.44
Si  7.54  4.34  2.45
Si  8.79  2.13 -0.02
Si  2.47  8.71 -0.05
Si  2.55 -8.69 -0.05
Si -0.08  8.75  2.34
Si -8.78  2.22 -0.01
Si -6.30  6.51 -0.00
Si  6.36 -6.48 -0.01
Si -6.27 -6.57 -0.02
Si -8.81 -2.21  0.02
Si -2.58  8.72 -0.12
Si -7.63  4.32 -2.44
Si  8.84 -2.18 -0.00
Si -7.64  4.41  2.35
Si -2.46 -8.63  2.35
Si -2.52  8.61 -2.42
Si  6.28  6.45 -2.37
Si -8.74 -2.15  2.40
Si -6.18 -6.57  2.36
Si  8.75  2.18 -2.37
Si  2.56 -8.68  2.34
Si  2.45  8.70 -2.40
Si  2.48  8.72  2.34
Si  2.53 -8.69 -2.40
Si  8.81 -2.12  2.38
Si -8.78 -2.25 -2.37
Si  6.33 -6.49  2.37
Si -6.31 -6.51 -2.37
Si -8.81  2.21  2.37
Si  8.83 -2.15 -2.37
Si  6.27 -6.59 -2.36
Si -6.32  6.54 -2.37
Si  6.32  6.55  2.40
Si -2.54  8.76  2.35
Si -8.87  2.11 -2.36
Si  8.88  2.12  2.36
Si -2.44 -8.78 -2.42
Si -6.34  6.57  2.38
Si -0.05  0.01 -9.45
Si -0.05  0.01  9.52
Si  5.00  4.30  7.09
Si  6.23  2.18 -7.09
Si -6.29 -2.13 -7.05
Si  2.50  0.02  9.36
Si -1.23 -6.45 -7.13
Si -4.98 -4.34  7.11
Si  5.01 -4.37 -7.06
Si -1.28  6.47  7.12
Si  1.24 -6.51 -7.09
Si  6.25  2.12  7.13
Si -1.30  6.56 -7.05
Si -5.07  4.30  7.09
Si -5.05 -4.37 -7.06
Si  1.20  6.53  7.13
Si -6.27 -2.23  7.12
Si  6.27 -2.17  7.13
Si -6.29  2.11  7.14
Si  5.09 -4.34  7.11
Si  6.29 -2.13 -7.16
Si -2.52  0.01  9.44
Si  5.03  4.41 -7.13
Si -6.30  2.25 -7.13
Si  1.26 -6.58  7.13
Si -1.27  2.13  9.46
Si -5.04  4.41 -7.13
Si -1.21 -6.59  7.14
Si  1.21  6.57 -7.16
Si  1.26 -2.21 -9.47
Si -1.23 -2.18  9.48
Si -1.22 -2.18 -9.49
Si  1.28  2.22  9.47
Si -1.27  2.13 -9.51
Si  1.26 -2.21  9.50
Si  1.29  2.22 -9.50
Si -0.03  8.63 -4.73
Si -0.03  8.63  4.75
Si -2.52  0.01 -9.54
Si  7.51  4.34 -4.70
Si -7.55  4.33  4.65
Si -7.55 -4.35 -4.70
Si  7.51  4.34  4.78
Si  7.59 -4.36  4.65
Si  2.50  0.02 -9.61
Si -7.55 -4.35  4.78
Si  0.05 -8.76 -4.73
Si -7.55  4.33 -4.84
Si  0.05 -8.76  4.75
Si  7.59 -4.36 -4.84
Si  4.94  8.70  0.03
Si 10.02  0.01  0.03
Si  5.02 -8.69  0.03
Si -5.04 -8.69  0.03
Si -5.13  8.70  0.03
Si -10.12  0.01  0.03
Si -2.58  8.61 -4.73
Si -2.58  8.61  4.75
Si -6.26  6.48 -4.71
Si  8.75  2.14 -4.74
Si  8.75  2.14  4.75
Si  6.24  6.50 -4.74
Si  6.24  6.50  4.75
Si  2.56 -8.66  4.73
Si -6.26  6.48  4.78
Si  2.56 -8.66 -4.75
Si -8.78  2.20 -4.74
Si -8.78  2.20  4.74
Si  2.47  8.73  4.73
Si  2.47  8.73 -4.75
Si -8.82 -2.19 -4.74
Si -8.82 -2.19  4.75
Si  6.36 -6.49 -4.74
Si  6.36 -6.49  4.74
Si -6.31 -6.56 -4.74
Si -6.31 -6.56  4.75
Si -10.00 -0.03  2.41
Si -4.95 -8.71 -2.34
Si -2.50 -8.79 -4.73
Si  8.88 -2.21 -4.71
Si -5.00  8.67  2.41
Si -10.02 -0.01 -2.34
Si -2.50 -8.79  4.75
Si -4.92 -8.72  2.41
Si -5.03  8.69 -2.34
Si  5.04  8.69 -2.34
Si -7.51 -0.09  7.07
Si  5.06  8.67  2.41
Si  8.88 -2.21  4.78
Si -3.79  6.45  7.12
Si -3.73 -6.49 -7.12
Si  7.52  0.01  7.08
Si -3.74  6.55 -7.08
Si  3.76 -6.52  7.12
Si  3.77 -2.08 -9.43
Si  3.75  6.54  7.11
Si  5.12 -8.71 -2.34
Si  3.73  6.57 -7.10
Si -3.71  2.21 -9.44
Si 10.11 -0.01 -2.34
Si -7.54  0.06 -7.14
Si  7.55  0.02 -7.15
Si -3.75 -2.13  9.47
Si  5.15 -8.72  2.41
Si  3.72  2.20  9.48
Si -3.79 -6.59  7.13
Si 10.14 -0.03  2.41
Si -0.03  4.36 -9.47
Si  3.72  2.20 -9.49
Si -3.75 -2.12 -9.50
Si  0.01 -4.39  9.47
Si  3.89 -6.57 -7.13
Si -0.03  4.36  9.50
Si -3.71  2.21  9.54
Si  0.01 -4.39 -9.50
Si  3.77 -2.08  9.55
Si -2.51  4.35 -9.43
Si  2.56 -4.35 -9.43
Si -2.49 -4.32  9.47
Si -4.99  0.02 -9.48
Si -4.99  0.01  9.49
Si  2.51  4.38  9.47
Si -2.49 -4.32 -9.50
Si  2.51  4.38 -9.50
Si  5.08  0.02 -9.48
Si  5.08  0.01  9.49
Si -2.51  4.34  9.54
Si  2.56 -4.35  9.54
Si -1.22 -10.78  0.06
Si -8.70 -6.48  0.05
Si  1.32 -10.82 -0.02
Si  8.80 -6.50 -0.01
Si 10.04  4.36  0.01
Si -10.05 -4.39 -0.02
Si -1.35 10.89 -0.01
Si  8.76  6.62  0.06
Si  1.28 10.91  0.05
Si 10.08 -4.39 -0.02
Si -10.10  4.36  0.01
Si -8.83  6.57 -0.02
Si  4.96  8.71 -4.72
Si -5.02 -8.68 -4.72
Si 10.04  0.01 -4.72
Si  4.96  8.71  4.76
Si  5.05 -8.68 -4.72
Si -5.02 -8.68  4.76
Si 10.04  0.01  4.76
Si  5.05 -8.68  4.76
Si -1.30 10.80 -2.34
Si  1.18 10.82 -2.36
Si  1.29 -10.82  2.32
Si -5.10  8.71 -4.72
Si -10.10  0.01 -4.72
Si -5.10  8.71  4.76
Si -10.10  0.01  4.76
Si -10.04 -4.29  2.35
Si -1.22 -10.83  2.44
Si 10.01  4.32  2.42
Si  8.79  6.47 -2.37
Si -7.53 -4.35 -7.04
Si  1.28 -10.87 -2.35
Si  7.51 -4.38  7.04
Si  7.54  4.34 -7.04
Si  8.84 -6.45  2.36
Si  1.15 10.88  2.40
Si  7.51 -4.28 -7.14
Si  0.01 -8.64 -7.14
Si -10.05  4.36 -2.38
Si  8.77  6.56  2.44
Si 10.10 -4.29  2.35
Si -7.49 -4.38  7.12
Si -8.83 -6.51  2.40
Si -1.19 -10.92 -2.37
Si -10.06 -4.39 -2.40
Si 10.08  4.36 -2.38
Si -8.81 -6.58 -2.36
Si -7.63  4.32  7.04
Si 10.07 -4.39 -2.40
Si  0.03  8.69  7.15
Si  7.57  4.32  7.12
Si -8.87  6.53 -2.35
Si  0.11 -8.70  7.15
Si -1.31 10.94  2.36
Si -8.86  6.57  2.32
Si -10.13  4.32  2.42
Si  8.86 -6.59 -2.34
Si -0.08  8.75 -7.14
Si -7.64  4.41 -7.14
Si -2.52  8.61  7.07
Si  3.72 10.82 -0.02
Si -8.74 -2.15 -7.08
Si -2.46 -8.63 -7.14
Si  6.28  6.45  7.12
Si  2.45  8.70  7.08
Si -7.52 -8.69 -0.05
Si  8.75  2.18  7.12
Si  2.53 -8.69  7.08
Si  7.49  8.72 -0.12
Si -6.18 -6.57 -7.13
Si -11.29 -2.18 -0.00
Si  8.81 -2.12 -7.10
Si  7.58 -8.67 -0.12
Si -3.73 -10.90  0.02
Si -6.30 -2.08 -9.43
Si -8.78 -2.25  7.12
Si  2.56 -8.67 -7.15
Si  6.34 -6.49 -7.12
Si -6.31 -6.52  7.12
Si  1.37 -6.48 -9.44
Si -2.44 -8.78  7.07
Si  6.32  6.55 -7.08
Si  8.82 -2.15  7.11
Si -8.81  2.21 -7.12
Si  3.85 -10.88 -0.00
Si -11.34  2.13 -0.02
Si 11.33 -2.21  0.02
Si  2.48  8.72 -7.15
Si  5.00  4.31  9.47
Si -6.32  6.54  7.11
Si -3.79 10.91 -0.01
Si -7.60  8.71 -0.05
Si  6.27 -6.59  7.13
Si -1.27 -6.50  9.48
