500
set: 814.00  0.00  0.00
Si  0.35 -1.21  0.79
Si -0.46  1.21 -0.85
Si  1.34  1.12  0.87
Si -1.40 -1.27 -0.92
Si -0.90  0.09  2.48
Si  2.20 -1.23 -0.82
Si  0.92  0.01 -2.51
Si -2.33  1.09  0.81
Si  3.11  1.22 -0.76
Si -3.14 -1.25  0.74
Si  0.10  2.44  2.49
Si -0.03 -2.43 -2.56
Si  0.44  3.58 -0.84
Si  2.71 -0.06  2.52
Si -2.74  0.03 -2.55
Si -0.54 -3.66  0.90
Si -1.32  3.50  0.79
Si  1.77  2.35 -2.49
Si  1.78 -2.42  2.45
Si -1.76  2.43 -2.46
Si  1.27 -3.60 -0.81
Si -1.82 -2.37  2.53
Si  2.25  3.49  0.84
Si  0.92  0.07  4.17
Si  4.01 -1.25  0.85
Si -0.92  0.02 -4.19
Si -4.06  1.20 -0.91
Si -2.35 -3.65 -0.82
Si -0.01 -2.36  4.16
Si -3.13  3.60 -0.85
Si  0.01  2.40 -4.22
Si  3.17 -3.66  0.87
Si  3.56 -2.31 -2.50
Si -3.52  2.34  2.53
Si -3.61 -2.34 -2.50
Si  2.70 -0.03 -4.20
Si -2.69  0.02  4.21
Si  3.65  2.38  2.50
Si  4.43  0.11 -2.46
Si -1.84 -2.38 -4.12
Si -4.46 -0.06  2.48
Si  4.92  1.16  0.84
Si  1.75 -2.39 -4.18
Si -1.75  2.41  4.22
Si  1.83  2.39  4.21
Si -4.94 -1.26 -0.86
Si  0.96  4.75  2.50
Si  0.91 -4.77  2.49
Si  4.04  3.63 -0.81
Si -0.86  4.80 -2.54
Si -0.97 -4.80 -2.54
Si -4.12 -3.70  0.78
Si -2.59  4.68  2.49
Si -0.46  5.87  0.78
Si -5.77  1.20  0.78
Si  2.68 -4.72 -2.44
Si  0.48 -1.20 -5.82
Si  0.38 -5.93 -0.81
Si  3.52 -2.35  4.25
Si  3.54  2.37 -4.23
Si  5.80 -1.26 -0.93
Si -3.56  2.42 -4.20
Si -3.61 -2.39  4.18
Si -1.33 -1.14  5.76
Si  2.69  4.76 -2.54
Si -0.43  1.25  5.88
Si -2.70 -4.81  2.50
Si -4.88  3.54  0.90
Si  4.86 -3.60 -0.85
Si  1.31  5.92 -0.82
Si  1.38  1.25 -5.84
Si  4.51 -0.04  4.16
Si -4.51 -0.04 -4.19
Si -1.41 -6.07  0.84
Si  5.33  2.43 -2.45
Si -0.85 -4.72  4.18
Si  5.30 -2.40  2.62
Si  2.24 -1.17  5.89
Si -5.37  2.43 -2.53
Si -0.78  4.80  4.20
Si -2.25  5.96 -0.85
Si -2.21  1.27 -5.92
Si  0.94  4.82 -4.18
Si  0.90 -4.78 -4.25
Si -5.40 -2.53  2.50
Si  2.23 -6.10  0.83
Si  6.25 -0.03  2.48
Si  3.12  5.91  0.90
Si -6.26 -0.02 -2.51
Si  3.21  1.13  5.85
Si -3.08 -1.14 -5.93
Si -0.50 -3.53 -5.80
Si  6.69  1.12 -0.86
Si -3.22 -5.99 -0.84
Si  5.89  3.47  0.83
Si -2.72 -4.75 -4.18
Si  2.71 -4.76  4.18
Si -6.73 -1.29  0.86
Si -2.72  4.80 -4.17
Si  0.58  3.64  5.90
Si -5.92 -3.61 -0.85
Si  2.81  4.84  4.18
Si  4.46 -4.75  2.54
Si  1.27 -3.65  5.86
Si -1.30  3.67 -5.84
Si -4.50  4.77 -2.51
Si -4.52 -4.76 -2.54
Si  4.57  4.79  2.49
Si -2.19 -3.55  5.81
Si -3.98  1.27  5.84
Si  5.30 -2.42 -4.20
Si  4.00 -1.24 -5.86
Si -5.38  2.44  4.13
Si  5.41  2.33  4.20
Si -5.41 -2.39 -4.18
Si  3.98 -6.01 -0.78
Si  2.25  3.61 -5.88
Si -3.98  6.00  1.02
Si -6.23  0.04  4.13
Si  6.24  0.00 -4.12
Si  3.10 -3.49 -5.86
Si -3.12  3.60  5.86
Si -0.01 -7.18  2.50
Si  0.42 -1.18  7.51
Si -6.69  3.56 -0.78
Si  0.05  7.22 -2.50
Si  6.69 -3.56  1.02
Si -1.74  7.03  2.50
Si -1.25 -1.14 -7.49
Si -0.37  1.24 -7.57
Si -4.91 -1.18  5.83
Si  1.67 -7.14 -2.45
Si  4.95  1.24 -5.82
Si -4.44 -4.77  4.20
Si  7.60 -1.29  0.86
Si  4.46 -4.75 -4.22
Si -7.64  1.12 -0.86
Si  4.93  5.96 -0.81
Si -4.42  4.84  4.18
Si  1.33  1.25  7.58
Si  1.84  7.19  2.53
Si  4.56  4.79 -4.25
Si -1.90 -7.22 -2.49
Si -4.98 -6.06  0.79
Si -7.12  2.31  2.57
Si -4.02 -3.56 -5.82
Si  2.27 -1.23 -7.54
Si -2.19  1.22  7.57
Si  4.10  3.56  5.85
Si  7.14 -2.43 -2.59
Si  7.21  2.31  2.57
Si -7.19 -2.43 -2.59
Si  6.17 -4.79 -2.51
Si  3.10  1.14 -7.53
Si -3.13 -1.11  7.55
Si -6.21  4.81  2.54
Si  0.05  7.17  4.18
Si -6.25 -4.88  2.49
Si -5.81  1.29 -5.84
Si -3.56 -7.12  2.49
Si  6.34  4.84 -2.44
Si  5.80 -1.17  5.88
Si -0.12 -7.19 -4.23
Si -0.46 -3.54  7.55
Si  0.52  8.31  0.74
Si -3.53  7.13 -2.59
Si -0.36  6.00 -5.82
Si -5.81  5.97 -0.85
Si -1.25  3.64  7.46
Si -0.55 -8.34 -0.76
Si  5.79 -6.02  0.90
Si  0.44 -6.01  5.85
Si  3.63  7.13 -2.56
Si -1.28  8.30 -0.86
Si  4.89 -3.53  5.92
Si  8.07 -0.02 -2.51
Si -8.09 -0.03  2.48
Si  7.64  3.56 -0.78
Si  0.49  3.65 -7.62
Si -4.88  3.62 -5.90
Si  1.82  7.18 -4.12
Si  3.55 -7.25  2.57
Si -1.75  7.17 -4.18
Si  1.38 -3.65 -7.53
Si -1.41 -5.95 -5.88
Si  1.47  6.02  5.81
Si -7.64 -3.56  1.02
Si -1.83 -7.17  4.21
Si  1.25 -8.40  0.84
Si  1.75 -7.24  4.20
Si  7.14  2.36 -4.12
Si -7.13 -2.31  4.19
Si -2.26 -3.53 -7.50
Si  2.23 -5.94 -5.82
Si -7.19  2.36 -4.12
Si  7.20 -2.31  4.19
Si  2.26  8.29 -0.92
Si -4.04  1.22 -7.55
Si -2.21  6.00  5.84
Si  4.07 -1.16  7.57
Si  8.56  1.20  0.78
Si -8.54 -1.26 -0.93
Si  2.31  3.58  7.56
Si -2.32 -8.44  0.87
Si -3.07  8.27  0.86
Si  6.25 -4.72  4.18
Si -3.08 -5.93  5.90
Si -6.21  4.81 -4.22
Si -3.08  3.60 -7.55
Si  3.12 -3.55  7.57
Si  3.16  6.03 -5.80
Si -6.38 -4.76 -4.17
Si  3.48 -7.20 -4.12
Si -6.75 -1.08 -5.85
Si  3.03 -8.44 -0.86
Si  6.37  4.81  4.18
Si -5.87 -3.56  5.84
Si  5.90  3.62 -5.82
Si  6.83  5.90  0.87
Si -3.47  7.26  4.19
Si -6.79 -5.96 -0.85
Si -8.09  0.00 -4.12
Si -3.65 -7.17 -4.22
Si -4.95 -1.18 -7.53
Si  3.65  7.21  4.16
Si  4.93  1.29  7.53
Si  8.10  0.04  4.13
Si  6.85  1.19  5.88
Si -8.45  3.47  0.83
Si -4.04 -3.51  7.47
Si  8.42 -3.61 -0.85
Si  5.30 -7.13 -2.53
Si -0.89  0.03  9.21
Si  0.98  0.07 -9.20
Si -3.92  5.99 -5.87
Si  3.97 -5.94  5.88
Si  4.07  3.61 -7.50
Si -5.42 -7.13 -2.46
Si  4.01  8.35  0.79
Si  5.45  7.15  2.45
Si -5.37  7.16  2.62
Si -4.12 -8.35 -0.85
Si -0.00 -2.39 -9.18
Si  9.39 -1.26 -0.86
Si -9.42  1.16  0.84
Si  2.73  0.00  9.13
Si -5.75  1.21  7.52
Si -2.61  0.02 -9.19
Si  5.80 -1.16 -7.50
Si -0.01  2.40  9.27
Si  0.41 -5.95 -7.50
Si -7.50  5.90  0.87
Si -7.48  1.19  5.88
Si  8.93 -2.53  2.50
Si -6.70  3.62  5.88
Si  1.71 -2.41  9.15
Si -0.38  6.05  7.47
Si  8.96  2.43 -2.53
Si  6.75 -3.58 -5.87
Si  7.58 -1.08 -5.85
Si -9.00  2.43 -2.45
Si -1.82 -2.39  9.17
Si  7.54 -5.96 -0.85
Si -8.00  4.84 -2.44
Si -4.96 -5.89 -5.84
Si -4.87  8.30 -0.93
Si -1.78  2.39 -9.20
Si  4.93  5.92  5.86
Si -9.03 -2.40  2.62
Si  1.82  2.42 -9.22
Si  5.02 -3.59 -7.51
Si  4.90 -8.37  0.78
Si -4.92  3.70  7.53
Si  1.40  6.03 -7.50
Si -1.35 -5.98  7.56
Si  8.08 -4.88  2.49
Si  8.12  4.81  2.54
Si  5.29 -7.12  4.13
Si -8.16 -4.79 -2.51
Si  0.77 -9.45 -2.46
Si -0.80  9.50  2.48
Si -5.37  7.14 -4.20
Si  2.17 -6.02  7.52
Si -2.15  6.05 -7.54
Si  5.42  7.17 -4.18
Si -5.42 -7.15  4.22
Si  0.92  9.59 -2.55
Si -0.95 -9.62  2.52
Si -3.59 -2.37 -9.16
Si -6.71 -1.17  7.49
Si  6.72  1.25 -7.47
Si  9.45  3.54  0.90
Si -8.93  2.33  4.20
Si  8.93 -2.39 -4.18
Si -5.81 -3.51 -7.54
Si  8.95  2.44  4.13
Si -3.17 -5.91 -7.62
Si  5.83  3.54  7.52
Si  3.57 -2.45 -9.19
Si  3.59  2.39  9.20
Si -3.58  2.39  9.21
Si -9.47 -3.60 -0.85
Si  7.95 -4.76 -4.17
Si  3.21  6.03  7.55
Si  9.87 -0.06  2.48
Si  5.79 -5.95 -5.90
Si -7.96  4.81  4.18
Si -9.90  0.11 -2.46
Si -2.60  9.54 -2.51
Si  5.86  8.33 -0.82
Si -7.58 -3.58 -5.87
Si -5.78  6.03  5.92
Si  2.59 -9.59  2.48
Si  1.29 -8.33 -5.82
Si -9.03 -2.42 -4.20
Si -2.74 -9.55 -2.51
Si -8.08 -4.72  4.18
Si  4.54  0.03 -9.21
Si -4.55  0.02  9.21
Si -0.45 -8.43  5.85
Si -1.25  8.38  5.83
Si  7.63  3.62  5.88
Si  0.58  8.42 -5.93
Si  2.76  9.65  2.48
Si  8.13  4.81 -4.22
Si  3.97 -5.95 -7.51
Si 10.27  1.20 -0.91
Si -0.91 -4.71 -9.21
Si -0.86  4.80 -9.18
Si -5.99 -8.47  0.81
Si  0.91  4.80  9.19
Si  0.87 -4.82  9.19
Si  8.52  1.29 -5.84
Si -2.29 -8.31 -5.84
Si -8.53 -1.17  5.88
Si -10.32 -1.25  0.85
Si -0.85  9.52 -4.19
Si  8.52  5.97 -0.85
Si -7.12  7.25 -2.50
Si  2.33  8.43  5.76
Si -3.98  6.07  7.55
Si  7.15 -7.23  2.53
Si -8.54 -6.02  0.90
Si -7.18 -7.23  2.53
Si  0.85 -9.60  4.16
Si  0.97  9.58  4.21
Si -0.96 -9.59 -4.20
Si  7.22  7.25 -2.50
Si -9.82 -0.04  4.16
Si  6.69 -3.49  7.55
Si  9.82 -0.04 -4.19
Si -2.68  4.74  9.19
Si -6.66  8.31  0.85
Si -6.70  3.61 -7.51
Si  6.61 -8.36 -0.91
Si  3.19 -8.37  5.88
Si -2.75 -4.77  9.19
Si -4.91 -5.93  7.46
Si  2.58 -9.56 -4.12
Si -2.74 -9.50  4.17
Si -7.61  1.25 -7.47
Si  2.67 -4.82 -9.22
Si  7.62 -1.17  7.49
Si -3.09  8.48 -5.85
Si -6.78 -5.96  5.86
Si  2.75  4.85 -9.21
Si -2.57  9.61  4.13
Si  1.33 10.66  0.81
Si -4.42  9.54  2.48
Si -4.56 -9.48  2.48
Si  6.76  6.07 -5.86
Si  2.74  9.58 -4.19
Si -0.40 10.77 -0.91
Si  5.04  5.91 -7.53
Si  4.41 -9.58 -2.51
Si  0.35 -10.81  0.85
Si  5.35  2.43 -9.13
Si -8.44  3.62 -5.82
Si  8.46 -3.56  5.84
Si  0.86 -0.02 10.85
Si 10.22 -3.70  0.78
Si -5.30  2.48 -9.19
Si -5.38 -2.36  9.18
Si  4.58  9.57 -2.51
Si -1.46 -10.79 -0.82
Si -0.87 -0.02 -10.89
Si  7.12 -7.14 -4.20
Si -10.29  3.63 -0.81
Si  5.31 -2.42  9.26
Si -4.09 -8.31  5.88
Si -7.21 -7.14 -4.20
Si -2.11 10.76  0.78
Si  4.14  8.36 -5.82
Si -7.15  7.21  4.25
Si  7.18  7.21  4.25
Si  2.14 -10.83 -0.93
Si -9.38  1.24 -5.82
Si  0.01  2.41 -10.85
Si  6.30  0.03  9.16
Si -6.25  0.06 -9.20
Si -5.65  5.98 -7.51
Si  5.75 -5.87  7.53
Si  9.43 -1.18  5.83
Si -9.76  4.79  2.49
Si -9.40  5.96 -0.81
Si -0.06 -2.44 10.90
Si  9.35 -6.06  0.79
Si -2.69  0.02 10.84
Si  9.81 -4.76 -2.54
Si  9.83  4.77 -2.51
Si  1.80  2.35 10.82
Si -10.68  2.38  2.50
Si  4.86 -8.27 -5.84
Si  2.74  0.01 -10.90
Si -9.87 -4.75  2.54
Si 10.72 -2.34 -2.50
Si  1.27 -8.28  7.53
Si  7.55 -5.96  5.86
Si  3.20 10.77 -0.85
Si -1.73 -2.34 -10.90
Si -4.52 -4.76 -9.18
Si  4.44 -9.52  4.13
Si 11.19 -1.25  0.74
Si -7.64 -3.49  7.55
Si  4.53  4.75  9.19
Si  1.82 -2.40 -10.88
Si -3.31 -10.77  0.79
Si -1.78  2.44 10.89
Si -10.78 -2.31 -2.50
Si  7.63  3.61 -7.51
Si -11.22  1.22 -0.76
Si -0.56 -8.43 -7.53
Si  4.41 -4.78  9.26
Si -4.43  9.57 -4.12
Si -4.40  4.83 -9.26
Si -7.57  6.07 -5.86
Si -1.29  8.39 -7.53
Si -4.87  8.39  5.88
Si  7.67  8.31  0.85
Si  0.53  8.45  7.55
Si 10.81  2.34  2.53
Si -4.58 -9.55 -4.19
Si -7.72 -8.36 -0.91
Si -8.53 -1.16 -7.50
Si -3.98 10.69 -0.86
Si  4.58  9.63  4.17
Si  8.58  1.21  7.52
Si -2.33 -8.32  7.58
Si  2.42  8.42 -7.49
Si  3.94 -10.86  0.86
Si  3.06 -8.31 -7.47
Si  0.07  7.19 -9.16
Si -3.05  8.40  7.49
Si -8.89  7.15  2.45
Si -0.07 -7.18  9.20
Si  8.91 -7.13 -2.46
Si -3.57  2.25 -10.89
Si -9.44 -3.53  5.92
Si -9.78  4.79 -4.25
Si  9.45  3.62 -5.90
Si  1.69 -7.13 -9.13
Si  6.21 -9.62  2.48
Si  3.50 -2.36 10.94
Si  6.37  9.51  2.52
Si -9.87 -4.75 -4.22
Si -3.59 -2.35 10.92
Si -6.74 -5.96 -7.55
Si 10.72 -2.39  4.18
Si -5.87 -8.29 -5.92
Si -4.42 -0.10 -10.89
Si  9.89 -4.77  4.20
Si  3.61  2.37 -10.94
Si -6.40 -9.53 -2.55
Si -6.24  9.67 -2.46
Si  8.96  7.16  2.62
Si -11.16 -3.66  0.87
Si -9.03 -7.13 -2.53
Si  1.84  7.17  9.17
Si -1.72  7.20  9.18
Si  9.91  4.84  4.18
Si 11.20  3.60 -0.85
Si  6.78  6.01  7.57
Si -1.84 -7.14 -9.22
Si 10.78  2.42 -4.20
Si  5.00 10.69  0.87
Si  5.90  8.39  5.89
Si -10.79  2.37 -4.23
Si  4.51  0.06 10.94
Si -10.81 -2.35  4.25
Si  7.13  2.36  9.19
Si 11.59  0.03 -2.55
Si -0.91  4.81 10.83
Si -8.50  3.54  7.52
Si -11.62 -0.06  2.52
Si  7.12 -2.34 -9.25
Si -7.20  2.36  9.19
Si  8.52 -3.51 -7.54
Si -8.47  8.33 -0.82
Si -0.91 -4.77 10.88
Si  8.34 -8.47  0.81
