500
set: 1019.00  0.00  0.00
Si -0.40  1.27 -0.84
Si  0.46 -1.27  0.84
Si -1.37 -1.18 -0.78
Si  1.36  1.22  0.78
Si  0.82 -0.11 -2.46
Si -2.19  1.26  0.73
Si -0.93 -0.06  2.47
Si  2.25 -1.15 -0.79
Si  0.09  2.36  2.48
Si -0.08 -2.37 -2.52
Si -3.13 -1.17  0.92
Si  3.14  1.21 -0.89
Si -2.62 -0.01 -2.53
Si  2.67  0.00  2.48
Si -0.51 -3.60  0.78
Si  0.50  3.64 -0.78
Si -1.81  2.44 -2.45
Si -1.78 -2.46  2.48
Si  1.27 -3.61 -0.89
Si  1.78  2.44 -2.52
Si  1.75 -2.44  2.55
Si -1.27  3.65  0.92
Si  0.85  0.04  4.15
Si -0.84 -0.04 -4.19
Si  4.02 -1.17  0.92
Si -4.01  1.21 -0.89
Si -2.27 -3.55 -0.84
Si  2.32  3.54  0.84
Si  3.09 -3.55  0.73
Si  0.00  2.35 -4.20
Si -3.04  3.67 -0.79
Si  3.48 -2.38 -2.45
Si  2.68 -0.04 -4.11
Si -0.11 -2.52  4.21
Si -3.54  2.37  2.55
Si -3.67 -2.38 -2.45
Si  3.61  2.37  2.55
Si -2.74  0.03  4.22
Si -1.68  2.40  4.14
Si -4.90 -1.15 -0.79
Si  1.75  2.29  4.21
Si -4.48  0.00  2.48
Si  1.73 -2.40 -4.18
Si  4.96  1.26  0.73
Si  4.53 -0.01 -2.53
Si -1.86 -2.46 -4.20
Si -4.06 -3.55  0.73
Si  0.94  4.76  2.47
Si  0.80 -4.81  2.48
Si -0.75  4.81 -2.53
Si  4.11  3.67 -0.79
Si -1.05 -4.93 -2.46
Si  2.69  4.70 -2.46
Si  5.78 -1.18 -0.78
Si -3.55 -2.42  4.14
Si -5.79  1.22  0.78
Si -3.55  2.41 -4.18
Si  3.60 -2.42  4.14
Si -2.62  4.82  2.48
Si  0.42 -1.19 -5.89
Si  3.60  2.41 -4.18
Si -0.43  1.23  5.88
Si  0.38 -5.97 -0.79
Si -4.83  3.54  0.84
Si  2.67 -4.82 -2.53
Si -4.47 -0.04 -4.11
Si -1.33 -1.14  5.83
Si  4.88 -3.55 -0.84
Si  1.39  1.14 -5.83
Si  4.41  0.03  4.22
Si -0.32  6.08  0.73
Si -2.79 -4.87  2.47
Si -2.20  1.24 -5.75
Si  2.21 -1.20  5.77
Si -1.41 -6.09  0.84
Si  1.47  6.08 -0.84
Si  5.34  2.44 -2.45
Si  5.37 -2.46  2.48
Si -5.37  2.44 -2.52
Si  0.81 -4.85 -4.11
Si -1.01 -4.78  4.15
Si  2.15 -5.99  0.92
Si  1.02  4.77 -4.19
Si -5.40 -2.44  2.55
Si -2.15  6.02 -0.89
Si -0.87  4.85  4.22
Si  6.22 -0.06  2.47
Si -6.33 -0.11 -2.46
Si  3.18  1.26  5.88
Si -3.12 -1.15 -5.94
Si -2.60  4.78 -4.11
Si -3.23 -5.99 -0.78
Si -6.69 -1.27  0.84
Si  2.54 -4.78  4.22
Si  3.23  6.04  0.78
Si -0.48 -3.68 -5.83
Si  0.53  3.67  5.83
Si  6.75  1.27 -0.84
Si -4.46  4.70 -2.46
Si  2.72  4.85  4.15
Si -5.88 -3.61 -0.89
Si -2.71 -4.86 -4.19
Si  5.88  3.65  0.92
Si  4.36 -4.87  2.47
Si  1.32 -3.56  5.88
Si -4.48 -4.82 -2.53
Si  4.54  4.82  2.48
Si -1.26  3.67 -5.94
Si  5.29 -2.46 -4.20
Si  3.92 -5.99 -0.78
Si -3.97  1.26  5.88
Si -5.40  2.29  4.21
Si -3.93  6.04  0.78
Si -5.42 -2.40 -4.18
Si -2.30 -3.59  5.88
Si  5.47  2.40  4.14
Si  4.03 -1.15 -5.94
Si  2.29  3.63 -5.89
Si  3.08 -3.58 -5.75
Si -3.08  3.62  5.77
Si -6.30  0.04  4.15
Si  0.43 -1.19  7.45
Si -0.44  1.23 -7.45
Si  6.31 -0.04 -4.19
Si  6.64 -3.60  0.78
Si -6.65  3.64 -0.78
Si  0.06  7.26 -2.45
Si  4.95  1.24 -5.75
Si -4.95 -1.20  5.77
Si -0.12 -7.26  2.55
Si -7.55  1.27 -0.84
Si -1.34 -1.14 -7.50
Si  1.39  1.13  7.51
Si  7.61 -1.27  0.84
Si  1.61 -7.19 -2.45
Si -4.43  4.85  4.15
Si  4.55  4.78 -4.11
Si  4.44 -4.86 -4.19
Si -1.67  7.19  2.55
Si  1.96  7.18  2.48
Si -7.06  2.36  2.48
Si -5.00 -5.99  0.92
Si -1.95 -7.19 -2.52
Si -4.61 -4.78  4.22
Si  7.07 -2.37 -2.52
Si  5.00  6.02 -0.89
Si -4.07 -3.58 -5.75
Si  4.07  3.62  5.77
Si  2.20 -1.20 -7.56
Si -2.20  1.24  7.59
Si  7.24  2.36  2.48
Si -7.23 -2.37 -2.52
Si -3.12 -1.15  7.39
Si  3.18  1.26 -7.46
Si -6.21  4.76  2.47
Si  6.10 -4.93 -2.46
Si -5.76  1.14 -5.83
Si  5.82 -1.14  5.83
Si  0.18  7.22  4.14
Si  7.97 -0.11 -2.46
Si -6.35 -4.81  2.48
Si  0.34 -6.02  5.77
Si -0.13 -7.22 -4.18
Si -1.25  3.67  7.39
Si -0.33  6.06 -5.75
Si  1.31 -3.56 -7.46
Si -5.68  6.08 -0.84
Si -0.47 -3.68  7.51
Si  0.53  3.68 -7.50
Si  6.40  4.81 -2.53
Si  5.74 -6.09  0.84
Si  4.85 -3.59  5.88
Si -3.50  7.26 -2.52
Si  3.51 -7.27  2.48
Si -8.08 -0.06  2.47
Si -4.86  3.63 -5.89
Si  1.23 -8.37  0.73
Si -0.59 -8.43 -0.89
Si -7.66 -3.60  0.78
Si  4.03 -1.15  7.39
Si -3.64 -7.27  2.48
Si  7.65  3.64 -0.78
Si  3.65  7.26 -2.52
Si  1.73 -7.23  4.14
Si  1.87  7.17 -4.20
Si -1.68  7.23 -4.18
Si -1.44 -6.00 -5.89
Si  0.60  8.46  0.92
Si -3.97  1.26 -7.46
Si  1.43  6.05  5.88
Si  7.04 -2.52  4.21
Si -2.30 -3.58 -7.45
Si  2.29  3.63  7.45
Si -1.17  8.48 -0.79
Si -7.15  2.35 -4.20
Si  7.15  2.35 -4.20
Si  8.51  1.22  0.78
Si -8.52 -1.18 -0.78
Si  2.16 -5.96 -5.94
Si -1.98 -7.34  4.21
Si -2.10  6.07  5.88
Si -7.26 -2.52  4.21
Si -2.37 -8.41  0.78
Si  2.36  8.46 -0.78
Si  6.14 -4.78  4.15
Si -6.13  4.77 -4.19
Si -2.96  8.36  0.84
Si -3.20 -5.96  5.83
Si  3.02 -8.36 -0.84
Si -3.08  3.62 -7.56
Si  3.09 -3.58  7.59
Si  3.26  5.95 -5.83
Si -6.34 -4.85 -4.11
Si  6.28  4.85  4.22
Si -3.53  7.11  4.21
Si  6.72  1.23  5.88
Si  8.00  0.04  4.15
Si -5.83 -3.56  5.88
Si -6.73 -1.19 -5.89
Si  3.62  7.11  4.21
Si -8.00 -0.04 -4.19
Si -6.77 -5.97 -0.79
Si  3.42 -7.28 -4.20
Si -4.95 -1.20 -7.56
Si  5.89  3.67 -5.94
Si  4.95  1.24  7.59
Si  6.83  6.08  0.73
Si -0.84 -0.05  9.15
Si -3.73 -7.28 -4.20
Si -3.90  5.95 -5.83
Si -5.19  7.18  2.48
Si  8.42 -3.61 -0.89
Si -8.42  3.65  0.92
Si  5.20 -7.19 -2.52
Si  0.85  0.04 -9.19
Si  3.95 -5.96  5.83
Si  4.07  3.62 -7.56
Si -4.06 -3.58  7.59
Si -4.13 -8.36 -0.84
Si  4.19  8.36  0.84
Si  5.48  7.19  2.55
Si -5.54 -7.19 -2.45
Si  0.01  2.35  9.14
Si -9.34  1.26  0.73
Si -0.12 -2.52 -9.13
Si  9.40 -1.15 -0.79
Si -2.74  0.04 -9.12
Si -5.76  1.13  7.51
Si -6.62  3.67  5.83
Si  5.82 -1.14 -7.50
Si  1.75  2.29 -9.13
Si  8.90 -2.44  2.55
Si -8.93 -2.46  2.48
Si  4.85 -3.58 -7.45
Si -7.90  4.81 -2.53
Si  6.67 -3.68 -5.83
Si  8.94  2.44 -2.52
Si -8.96  2.44 -2.45
Si -4.86  3.63  7.45
Si  2.68 -0.04  9.22
Si  1.74 -2.41  9.15
Si  7.95 -4.81  2.48
Si  7.53 -5.97 -0.79
Si -1.86 -2.47  9.14
Si -1.69  2.40 -9.20
Si -7.47  6.08  0.73
Si  7.57 -1.19 -5.89
Si  0.34 -6.01 -7.56
Si -1.44 -6.01  7.45
Si -7.58  1.23  5.88
Si  1.43  6.05 -7.45
Si  8.09  4.76  2.47
Si  4.78 -8.41  0.78
Si -0.33  6.05  7.59
Si  2.16 -5.96  7.39
Si -4.79  8.46 -0.78
Si -4.99 -5.96 -5.94
Si -5.28  7.17 -4.20
Si -2.10  6.08 -7.46
Si  5.05  6.07  5.88
Si -8.20 -4.93 -2.46
Si  5.17 -7.34  4.21
Si -5.42 -7.23  4.14
Si -0.75  9.63  2.48
Si  5.47  7.23 -4.18
Si  0.80 -9.64 -2.53
Si -1.06 -9.63  2.48
Si  1.11  9.63 -2.53
Si -8.83  2.40  4.14
Si -9.77 -0.01 -2.53
Si -9.42 -3.55 -0.84
Si -3.20 -5.96 -7.50
Si -6.72 -1.19  7.45
Si  6.71  1.23 -7.45
Si -3.55  2.41  9.15
Si  8.88 -2.40 -4.18
Si  8.90  2.29  4.21
Si -5.84 -3.56 -7.46
Si  3.26  5.95  7.51
Si  3.60  2.41  9.15
Si  9.82  0.00  2.48
Si  4.41  0.04 -9.12
Si  5.89  3.67  7.39
Si -3.55 -2.41 -9.20
Si  9.47  3.54  0.84
Si  5.71 -6.00 -5.89
Si  3.60 -2.41 -9.20
Si -2.60  9.52 -2.46
Si -5.72  6.05  5.88
Si  7.96 -4.85 -4.11
Si -9.01 -2.46 -4.20
Si  1.22 -8.39 -5.75
Si -4.47 -0.04  9.22
Si -0.55 -8.38  5.88
Si  2.80  9.57  2.47
Si -5.92 -8.37  0.73
Si -8.02  4.85  4.22
Si -7.63 -3.68 -5.83
Si -1.21  8.43  5.77
Si  2.49 -9.69  2.47
Si  7.68  3.67  5.83
Si -8.16 -4.78  4.15
Si -3.89  5.95  7.51
Si  8.17  4.77 -4.19
Si -8.48 -1.14  5.83
Si  3.95 -5.96 -7.50
Si -0.88  4.85 -9.12
Si  1.02  4.77  9.15
Si  0.61  8.49 -5.94
Si -10.28 -1.17  0.92
Si 10.29  1.21 -0.89
Si  8.54  1.14 -5.83
Si -1.02 -4.78 -9.19
Si  5.98  8.48 -0.79
Si  7.03 -7.26  2.55
Si -7.09  7.26 -2.45
Si  0.82 -4.85  9.22
Si -2.91 -9.75 -2.46
Si -0.74  9.60 -4.11
Si  0.68 -9.60  4.22
Si  7.21  7.26 -2.45
Si -8.56 -6.09  0.84
Si -1.05 -9.67 -4.11
Si -2.34 -8.50 -5.83
Si  2.40  8.49  5.83
Si  8.62  6.08 -0.84
Si -7.27 -7.26  2.55
Si  0.99  9.66  4.22
Si  2.54 -4.78 -9.12
Si  9.83 -0.04 -4.11
Si -6.62  3.68 -7.50
Si  2.98 -8.40  5.88
Si  7.58 -1.19  7.45
Si  6.68 -3.68  7.51
Si -7.59  1.23 -7.45
Si -2.71 -4.86  9.15
Si -2.60  4.78  9.22
Si  6.55 -8.43 -0.89
Si -2.99  8.45 -5.89
Si -4.99 -5.96  7.39
Si  2.72  4.85 -9.19
Si -6.55  8.46  0.92
Si -9.89  0.03  4.22
Si -6.81 -6.02  5.77
Si  6.82  6.06 -5.75
Si -4.35  9.57  2.47
Si -2.56  9.67  4.15
Si  4.55  9.52 -2.46
Si  0.29 -10.80  0.92
Si -2.88 -9.60  4.15
Si  5.29 -2.47  9.14
Si -5.40  2.29 -9.13
Si -6.97  7.22  4.14
Si  2.89  9.59 -4.19
Si -10.19  3.67 -0.79
Si  2.57 -9.68 -4.19
Si  5.05  6.08 -7.46
Si 10.24 -3.55  0.73
Si -0.28 10.84 -0.89
Si -5.41 -2.41  9.15
Si -0.93 -0.06 -10.86
Si  7.02 -7.22 -4.18
Si  8.47 -3.56  5.88
Si  4.24 -9.75 -2.46
Si  0.82 -0.12 10.88
Si -1.49 -10.78 -0.79
Si -8.41  3.67 -5.94
Si  5.46  2.40 -9.20
Si  1.54 10.89  0.73
Si  2.05 -10.81 -0.78
Si -4.66 -9.69  2.47
Si -9.35  1.24 -5.75
Si  9.36 -1.20  5.77
Si -4.17 -8.40  5.88
Si -2.06 10.85  0.78
Si -7.28 -7.22 -4.18
Si -0.08 -2.37 10.82
Si  7.33  7.22  4.14
Si  9.30 -5.99  0.92
Si  4.16  8.45 -5.89
Si  6.31 -0.05  9.15
Si  0.09  2.36 -10.86
Si -9.30  6.02 -0.89
Si -2.62 -0.01 10.81
Si -6.30  0.04 -9.19
Si  5.71 -6.01  7.45
Si 10.63 -2.38 -2.45
Si -9.77  4.82  2.48
Si -5.72  6.05 -7.45
Si  2.67  0.01 -10.85
Si  9.84  4.70 -2.46
Si  1.75 -2.44 -10.78
Si  7.49 -6.02  5.77
Si -7.48  6.06 -5.75
Si  9.82 -4.82 -2.53
Si -0.55 -8.37 -7.46
Si  1.79  2.44 10.82
Si -10.69  2.37  2.55
Si -11.16  1.21 -0.89
Si 11.17 -1.17  0.92
Si  4.44 -4.86  9.15
Si  0.61  8.48  7.39
Si -1.78 -2.45 -10.86
Si -4.61 -4.78 -9.12
Si -4.43  4.85 -9.19
Si  4.27 -9.60  4.15
Si -4.26  9.59 -4.19
Si -1.80  2.44 10.89
Si -7.62 -3.68  7.51
Si 10.77  2.37  2.55
Si  4.55  4.78  9.22
Si -4.75  8.49  5.83
Si -9.95 -4.87  2.47
Si -10.82 -2.38 -2.45
Si  7.68  3.68 -7.50
Si  4.81 -8.50 -5.83
Si  1.22 -8.39  7.59
Si -8.49 -1.14 -7.50
Si -1.22  8.43 -7.56
Si -3.27 -10.91  0.84
Si  8.54  1.13  7.51
Si  3.33 10.90 -0.84
Si  4.59  9.67  4.15
Si -7.75 -8.43 -0.89
Si -4.58 -9.68 -4.19
Si  7.75  8.46  0.92
Si -2.34 -8.50  7.51
Si -3.82 10.90 -0.84
Si  2.40  8.49 -7.50
Si -3.54  2.38 -10.78
Si  8.76 -7.19 -2.45
Si  3.88 -10.91  0.84
Si  9.70 -4.78  4.22
Si -9.76  4.78 -4.11
Si  3.61  2.38 -10.78
Si  2.98 -8.40 -7.45
Si -6.04  9.63 -2.53
Si -2.99  8.44  7.45
Si -0.13 -7.22  9.15
Si  6.09 -9.63  2.48
Si -8.82  7.19  2.55
Si  3.48 -2.38 10.89
Si  0.18  7.22 -9.20
Si -9.45 -3.59  5.88
Si  9.44  3.63 -5.89
Si  4.54 -0.01 10.81
Si -10.70 -2.42  4.14
Si -3.67 -2.38 10.89
Si -10.70  2.41 -4.18
Si -4.49  0.01 -10.85
Si  9.87  4.85  4.15
Si  1.87  7.17  9.14
Si -9.86 -4.86 -4.19
Si 10.75 -2.42  4.14
Si -5.93 -8.39 -5.75
Si -11.21 -3.55  0.73
Si -1.68  7.22  9.15
Si -8.41  3.67  7.39
Si 10.75  2.41 -4.18
Si  7.04 -2.52 -9.13
Si -6.35 -9.64 -2.53
Si  5.94  8.43  5.77
Si  1.73 -7.23 -9.20
Si -6.81 -6.01 -7.56
Si  8.46 -3.56 -7.46
Si  6.40  9.63  2.48
Si -7.14  2.35  9.14
Si  7.16  2.35  9.14
Si -0.75  4.81 10.81
Si  9.11  7.18  2.48
Si  6.82  6.05  7.59
Si -9.10 -7.19 -2.52
Si  8.38 -8.37  0.73
Si 11.26  3.67 -0.79
Si -1.98 -7.34 -9.13
Si -11.63  0.00  2.48
Si  0.94  4.76 -10.86
Si  0.80 -4.81 -10.85
Si -8.32  8.48 -0.79
Si -10.28 -1.15 -5.94
