500
set: 713.00  0.00  0.00
Si  1.06  0.35  0.28
Si -1.36  0.83  0.83
Si -0.53 -1.16  1.43
Si -0.62  1.08 -1.67
Si -1.57 -1.10 -1.24
Si  1.52 -2.19  0.28
Si  1.63  1.68  2.12
Si -0.47 -3.25 -0.26
Si  0.41 -2.09 -2.52
Si  0.94  0.03 -3.17
Si  3.32  0.72 -0.17
Si  2.29  2.73  0.05
Si -3.56 -0.46  0.64
Si  1.66  2.01 -2.57
Si  2.46 -0.61  2.68
Si -0.66  2.55  2.63
Si -1.75  3.32  0.40
Si -2.45 -0.34  2.86
Si -0.04 -0.99  3.81
Si -3.16  0.92 -2.28
Si -1.07  3.50 -1.65
Si -3.62  1.80  0.04
Si  2.91 -1.12 -2.62
Si -1.93 -3.07  1.90
Si -1.91 -3.02 -2.20
Si  2.51 -2.82  2.11
Si  0.80  4.13  1.19
Si  0.32 -3.24  3.13
Si -3.72 -2.48 -0.65
Si -0.22  1.19  4.43
Si  3.43 -2.97 -0.97
Si -1.67 -1.08 -4.28
Si -3.33  1.87  3.20
Si  3.99  2.13 -2.48
Si -3.71  3.27 -1.57
Si  0.72  4.90 -1.54
Si  0.72 -4.90 -1.54
Si -1.53  2.85 -4.07
Si -4.90 -0.57 -1.87
Si  4.90 -0.57 -1.87
Si  2.47 -4.69  0.23
Si  2.95  3.58  2.68
Si  2.24 -1.47 -4.73
Si -0.22  1.19 -5.37
Si  4.74 -0.25  2.85
Si -3.04 -4.63  0.47
Si -4.77 -2.46  1.47
Si  2.62 -3.73 -3.19
Si  2.88  1.13 -4.63
Si  2.95  3.99 -2.61
Si  2.47  5.11  0.23
Si  2.24 -1.47  5.07
Si -3.51  0.11 -4.59
Si -3.63 -2.87  3.46
Si -4.87  2.56  1.76
Si -1.44 -4.66  3.10
Si  5.03 -2.46  1.47
Si -5.06 -0.25  2.85
Si  4.93  2.56  1.76
Si  1.11  3.39 -4.62
Si  0.80 -5.67  1.19
Si -1.67 -1.08  5.52
Si -3.81  2.50 -3.90
Si -3.04  5.17  0.47
Si  2.88  1.13  5.17
Si -4.04 -2.96 -3.35
Si -0.04 -0.99 -5.99
Si -2.12 -3.61 -4.46
Si -1.44  5.14  3.10
Si -0.34 -4.60 -4.11
Si -3.51  0.11  5.21
Si  1.11  3.39  5.18
Si  6.24 -0.46  0.64
Si  1.75 -4.17  4.38
Si  4.45  4.46 -0.95
Si -3.66  4.20  3.17
Si  6.18  1.80  0.04
Si -6.48  0.72 -0.17
Si -0.47  6.55 -0.26
Si -1.53  2.85  5.73
Si  4.65 -1.26 -4.49
Si -1.07 -6.30 -1.65
Si  6.08 -2.48 -0.65
Si -0.34  5.20 -4.11
Si -5.81  2.13 -2.48
Si  0.94  0.03  6.62
Si -1.75 -6.48  0.40
Si  4.03 -4.15  3.44
Si  4.66  4.72  1.36
Si -2.12 -3.61  5.34
Si -3.51  4.86 -3.32
Si -3.51 -4.94 -3.32
Si -5.15 -1.26 -4.49
Si  2.95 -5.81 -2.61
Si  4.45 -5.34 -0.95
Si -5.35  4.46 -0.95
Si  4.66 -5.08  1.36
Si  1.75 -4.17 -5.42
Si  6.64  0.92 -2.28
Si  6.09  3.27 -1.57
Si -6.37 -2.97 -0.97
Si -5.14  4.72  1.36
Si  3.98  3.46 -4.79
Si  4.65 -1.26  5.31
Si -1.93  6.73  1.90
Si  3.98  3.46  5.01
Si  0.32  6.56  3.13
Si  5.76 -2.96 -3.35
Si -0.34 -4.60  5.70
Si  2.62  6.07 -3.19
Si  1.75  5.63  4.38
Si -5.14 -5.08  1.36
Si -2.45 -0.34 -6.94
Si -1.91  6.78 -2.20
Si  2.95 -6.22  2.68
Si -3.66 -5.60  3.17
Si  0.32 -3.24 -6.67
Si  2.29 -7.07  0.05
Si -6.89 -1.12 -2.62
Si  6.47  1.87  3.20
Si -3.81  2.50  5.90
Si -5.15 -1.26  5.31
Si  2.46 -0.61 -7.12
Si  5.99  2.50 -3.90
Si  0.41 -2.09  7.28
Si -5.35 -5.34 -0.95
Si -3.33  1.87 -6.60
Si  6.17 -2.87  3.46
Si -0.66  2.55 -7.17
Si -3.71 -6.54 -1.57
Si  1.66  2.01  7.23
Si  3.43  6.83 -0.97
Si  2.51  6.98  2.11
Si -0.34  5.20  5.70
Si -0.66 -7.25  2.63
Si  4.03  5.65  3.44
Si  1.52  7.61  0.28
Si  6.29  0.11 -4.59
Si  2.91 -1.12  7.17
Si -7.34 -0.61  2.68
Si -3.63 -2.87 -6.34
Si  7.35 -0.34  2.86
Si -5.77 -4.15  3.44
Si -2.12  6.19 -4.46
Si  1.11 -6.41 -4.62
Si -7.51  2.73  0.05
Si  1.75  5.63 -5.42
Si  2.62 -3.73  6.61
Si  1.63  1.68 -7.68
Si  6.14  4.20  3.17
Si -7.29 -2.82  2.11
Si  0.41  7.71 -2.52
Si -4.04 -2.96  6.45
Si  6.29  0.11  5.21
Si -6.85  3.58  2.68
Si -1.53 -6.95 -4.07
Si  6.76 -4.63  0.47
Si -3.16  0.92  7.52
Si -0.62  1.08  8.13
Si -3.72  7.32 -0.65
Si -1.44 -4.66 -6.70
Si -5.82  3.46 -4.79
Si  1.11 -6.41  5.18
Si -6.85  3.99 -2.61
Si  1.66 -7.79 -2.57
Si  8.23 -1.10 -1.24
Si -1.91 -3.02  7.60
Si -6.92  1.13 -4.63
Si -5.82  3.46  5.01
Si  4.74 -0.25 -6.95
Si -2.12  6.19  5.34
Si -0.53 -1.16 -8.37
Si  2.95  3.58 -7.12
Si  8.44  0.83  0.83
Si  6.76  5.17  0.47
Si  1.63 -8.12  2.12
Si -3.63  6.93  3.46
Si -1.44  5.14 -6.70
Si  2.51 -2.82 -7.69
Si -8.28 -2.19  0.28
Si -5.06 -0.25 -6.95
Si  4.03 -4.15 -6.36
Si  3.99  2.13  7.32
Si -8.17  1.68  2.12
Si  6.29  4.86 -3.32
Si -4.04  6.84 -3.35
Si  6.29 -4.94 -3.32
Si -3.66  4.20 -6.62
Si  7.87 -3.07  1.90
Si -1.93 -3.07 -7.90
Si -7.18 -3.73 -3.19
Si -7.33 -4.69  0.23
Si -6.92  1.13  5.17
Si  8.05  3.32  0.40
Si  7.89 -3.02 -2.20
Si  2.95  3.99  7.19
Si -8.74  0.35  0.28
Si -8.14  2.01 -2.57
Si -0.53  8.64  1.43
Si -5.77  5.65  3.44
Si  5.99  2.50  5.90
Si -1.57 -1.10  8.56
Si -3.62 -8.00  0.04
Si -3.51  4.86  6.48
Si -3.51 -4.94  6.48
Si -4.77  7.34  1.47
Si  3.98 -6.34 -4.79
Si  6.14 -5.60  3.17
Si -4.87 -7.24  1.76
Si -0.62 -8.72 -1.67
Si -1.57  8.70 -1.24
Si -1.07  3.50  8.15
Si  4.93 -7.24  1.76
Si -7.33  5.11  0.23
Si  3.99 -7.67 -2.48
Si  3.98 -6.34  5.01
Si  5.03  7.34  1.47
Si -7.56 -1.47 -4.73
Si  6.09 -6.54 -1.57
Si -1.36 -8.97  0.83
Si -3.81 -7.30 -3.90
Si -1.36  0.83 -8.97
Si  5.76 -2.96  6.45
Si -1.53 -6.95  5.73
Si -3.33 -7.93  3.20
Si -7.56 -1.47  5.07
Si  8.13 -1.08 -4.28
Si  6.17 -2.87 -6.34
Si -4.90 -0.57  7.93
Si  4.90 -0.57  7.93
Si -6.85 -5.81 -2.61
Si  2.62  6.07  6.61
Si  0.32  6.56 -6.67
Si  9.18  1.08 -1.67
Si -6.37  6.83 -0.97
Si  4.03  5.65 -6.36
Si -3.66 -5.60 -6.62
Si -8.86  0.03 -3.17
Si  6.47  1.87 -6.60
Si  9.27 -1.16  1.43
Si  1.06 -9.45  0.28
Si  2.91  8.68 -2.62
Si  6.08  7.32 -0.65
Si -5.77 -4.15 -6.36
Si  5.76  6.84 -3.35
Si  8.73  3.50 -1.65
Si -5.81  2.13  7.32
Si  0.80  4.13 -8.61
Si  1.06  0.35 -9.52
Si  7.68 -3.61 -4.46
Si -3.71  3.27  8.23
Si -0.04  8.81  3.81
Si  0.72  4.90  8.26
Si  0.72 -4.90  8.26
Si -6.85 -6.22  2.68
Si  8.27  2.85 -4.07
Si  3.32 -9.08 -0.17
Si -0.22 -8.61  4.43
Si -3.16 -8.88 -2.28
Si  2.95 -5.81  7.19
Si -4.87  2.56 -8.04
Si  4.93  2.56 -8.04
Si -3.56 -0.46 -9.16
Si  2.24  8.33 -4.73
Si  9.14  2.55  2.63
Si -5.82 -6.34 -4.79
Si -1.67  8.72 -4.28
Si  9.33 -3.25 -0.26
Si  2.46  9.19  2.68
Si  8.13 -1.08  5.52
Si  1.52 -2.19 -9.52
Si  2.95 -6.22 -7.12
Si  6.17  6.93  3.46
Si -4.77 -2.46 -8.34
Si  3.43 -2.97  8.83
Si -7.18  6.07 -3.19
Si -5.81 -7.67 -2.48
Si -9.39 -2.09 -2.52
Si -5.82 -6.34  5.01
Si  6.14  4.20 -6.62
Si -9.00  4.13  1.19
Si  2.24  8.33  5.07
Si -6.89 -1.12  7.17
Si -3.56  9.34  0.64
Si  7.68 -3.61  5.34
Si  5.03 -2.46 -8.34
Si  8.36 -4.66  3.10
Si -3.63  6.93 -6.34
Si -8.05 -4.17  4.38
Si  6.64  0.92  7.52
Si -0.47 -3.25  9.54
Si  6.18 -8.00  0.04
Si  7.35 -0.34 -6.94
Si -1.75  3.32 -9.40
Si -3.81 -7.30  5.90
Si  1.06  0.35 10.08
Si -0.22 -8.61 -5.37
Si -2.45  9.46  2.86
Si -3.72 -2.48  9.15
Si  1.06 10.15  0.28
Si  3.32  0.72  9.63
Si  5.99 -7.30 -3.90
Si -0.66 -7.25 -7.17
Si -4.04  6.84  6.45
Si -7.34 -0.61 -7.12
Si  2.88 -8.67 -4.63
Si  6.29  4.86  6.48
Si -5.77  5.65 -6.36
Si  8.36  5.14  3.10
Si  6.29 -4.94  6.48
Si -7.29  6.98  2.11
Si  0.94 -9.77 -3.17
Si -7.51 -7.07  0.05
Si  0.80 -5.67 -8.61
Si  8.05 -6.48  0.40
Si -1.07 -6.30  8.15
Si -1.91  6.78  7.60
Si  0.94  9.83 -3.17
Si  2.29  2.73 -9.75
Si -8.69  3.39 -4.62
Si  1.52 -2.19 10.08
Si -9.08  4.90 -1.54
Si -9.08 -4.90 -1.54
Si -7.18 -3.73  6.61
Si -1.67  8.72  5.52
Si  8.27  2.85  5.73
Si  2.29  2.73  9.85
Si -10.33 -1.16  1.43
Si -9.48 -3.24  3.13
Si  2.88 -8.67  5.17
Si -6.85  3.58 -7.12
Si  9.76 -0.99  3.81
Si  7.87  6.73  1.90
Si  3.32  0.72 -9.97
Si -1.93  6.73 -7.90
Si -3.62  1.80 -9.76
Si -8.05 -4.17 -5.42
Si -0.47 -3.25 -10.06
Si -9.84 -0.99  3.81
Si -10.42  1.08 -1.67
Si  0.41  7.71  7.28
Si -4.90  9.23 -1.87
Si  4.90  9.23 -1.87
Si  6.14 -5.60 -6.62
Si  9.58  1.19  4.43
Si  7.89  6.78 -2.20
Si -3.62  1.80  9.84
Si -0.04  8.81 -5.99
Si -8.69  3.39  5.18
Si  2.51  6.98 -7.69
Si -9.00 -5.67  1.19
Si -6.85  3.99  7.19
Si  4.65  8.54 -4.49
Si 10.21 -2.09 -2.52
Si  6.47 -7.93  3.20
Si  4.66  4.72 -8.44
Si -1.36  0.83 10.63
Si  6.09  3.27  8.23
Si -1.36 10.63  0.83
Si  1.66 -7.79  7.23
Si -8.05  5.63  4.38
Si -10.27 -3.25 -0.26
Si -2.45 -10.14  2.86
Si  7.68  6.19 -4.46
Si -3.33 -7.93 -6.60
Si -3.04 -4.63 -9.34
Si  4.45  4.46  8.85
Si 10.86  0.35  0.28
Si -1.75  3.32 10.20
Si -3.56 -10.26  0.64
Si  8.73 -6.30 -1.65
Si  4.66 -5.08 -8.44
Si -5.15  8.54 -4.49
Si  2.47 -4.69 -9.57
Si -5.14  4.72 -8.44
Si -7.29 -2.82 -7.69
Si -10.02  1.19  4.43
Si -0.62 10.88 -1.67
Si  5.76  6.84  6.45
Si  3.32 10.52 -0.17
Si  2.46 -10.41  2.68
Si  4.74  9.55  2.85
Si -3.56 -0.46 10.44
Si  9.58  1.19 -5.37
Si -8.86  0.03  6.62
Si -0.53 -10.96  1.43
Si -8.14  2.01  7.23
Si  4.65  8.54  5.31
Si 10.12 -3.24  3.13
Si -1.57 -10.90 -1.24
Si -10.46  2.55  2.63
Si  6.24 -0.46 -9.16
Si -3.04  5.17 -9.34
Si -5.14 -5.08 -8.44
Si  2.47  5.11 -9.57
Si  5.99 -7.30  5.90
Si -3.71 -6.54  8.23
Si -6.48 -9.08 -0.17
Si -5.06  9.55  2.85
Si 10.74  0.03 -3.17
Si -1.57 -1.10 -11.04
Si -8.05  5.63 -5.42
Si  7.68  6.19  5.34
Si -11.16  0.83  0.83
Si  6.17  6.93 -6.34
Si -8.28  7.61  0.28
Si  6.24  9.34  0.64
Si  4.45 -5.34  8.85
Si -5.35  4.46  8.85
Si  6.08 -2.48  9.15
Si -3.51 -9.69 -4.59
Si  9.46 -4.60 -4.11
Si -6.37 -2.97  8.83
Si  1.63 -8.12 -7.68
Si -5.15  8.54  5.31
Si -0.53 -1.16 11.23
Si  6.64 -8.88 -2.28
Si  3.99 -7.67  7.32
Si -8.17  1.68 -7.68
Si  2.47 -4.69 10.03
Si  7.89 -3.02  7.60
Si -3.72 -2.48 -10.45
Si -6.89  8.68 -2.62
Si  9.33  6.55 -0.26
Si -3.16 10.72 -2.28
Si -10.02  1.19 -5.37
Si 10.60  4.13  1.19
Si -0.04 -10.79  3.81
Si -3.51  9.91 -4.59
Si  4.74 -10.05  2.85
Si -11.37 -1.10 -1.24
Si  9.76 -0.99 -5.99
Si -7.18  6.07  6.61
Si -6.85 -5.81  7.19
Si  2.47  5.11 10.03
Si -0.62  1.08 -11.47
Si 11.32 -2.19  0.28
Si -10.87  3.50 -1.65
Si  8.27 -6.95 -4.07
Si -1.75 -6.48 -9.40
Si  9.46  5.20 -4.11
Si -3.51 -9.69  5.21
Si -8.14 -7.79 -2.57
Si -9.84 -0.99 -5.99
Si  7.87 -3.07 -7.90
Si -0.47  6.55  9.54
Si  2.91 -10.92 -2.62
Si -5.06 -10.05  2.85
Si -4.90 -10.37 -1.87
Si  4.90 -10.37 -1.87
Si  2.91  8.68  7.17
Si -6.48  0.72  9.63
Si -5.35 -5.34  8.85
Si -3.04 -4.63 10.27
Si -6.85 -6.22 -7.12
Si  8.36 -4.66 -6.70
Si  3.43  6.83  8.83
Si  3.43 -2.97 -10.77
Si  6.18  1.80 -9.76
Si 10.52  4.90 -1.54
Si 10.52 -4.90 -1.54
Si -8.17 -8.12  2.12
Si -3.51  9.91  5.21
Si 11.43  1.68  2.12
Si -8.69 -6.41 -4.62
Si  6.18  1.80  9.84
Si  0.80  4.13 10.99
Si  1.63 11.48  2.12
Si -1.67 -10.88 -4.28
Si  0.94 -9.77  6.62
Si -0.22 10.99  4.43
Si -4.87 -7.24 -8.04
Si -10.14 -4.60 -4.11
Si  8.36  5.14 -6.70
Si  2.46  9.19 -7.12
Si  4.93 -7.24 -8.04
Si -3.04  5.17 10.27
Si  0.94  9.83  6.62
Si  9.14  2.55 -7.17
Si -6.48  0.72 -9.97
Si 11.46  2.01 -2.57
Si  8.23 -1.10  8.56
Si -0.62 -8.72  8.13
Si -9.48  6.56  3.13
Si  9.14 -7.25  2.63
Si  9.46 -4.60  5.70
Si -8.69 -6.41  5.18
Si -2.45  9.46 -6.94
Si -0.47  6.55 -10.06
Si -6.92 -8.67 -4.63
Si -11.54  3.32  0.40
Si -1.07  3.50 -11.45
Si  6.24 -10.26  0.64
Si -9.48 -3.24 -6.67
Si  8.23  8.70 -1.24
Si -0.53  8.64 -8.37
Si -7.34  9.19  2.68
Si -3.16 -8.88  7.52
Si -9.39 -2.09  7.28
Si 10.60 -5.67  1.19
