500
set: 127.00  0.00  0.00
Si -0.01  0.02  0.02
Si -0.01  0.03 -2.26
Si -1.88  1.04  0.76
Si -0.07 -2.19  0.68
Si  1.94  1.12  0.85
Si -0.02 -2.15  2.99
Si -1.84  3.23 -0.03
Si  0.05  2.18 -3.05
Si  3.76 -0.01  0.06
Si -3.77 -0.00 -0.05
Si -1.97  1.17  3.01
Si  1.87 -3.30 -0.03
Si  1.88 -1.04 -3.13
Si -1.90 -1.16 -3.09
Si  1.95  3.29  0.02
Si -1.96 -3.30 -0.00
Si  1.88  1.04  3.21
Si -0.05  2.11  3.84
Si -1.88 -1.04  3.83
Si  1.86 -3.21 -2.35
Si  0.02  4.33  0.78
Si  3.70 -2.23  0.81
Si -3.73  0.01 -2.37
Si  3.79 -0.04 -2.28
Si  1.91 -1.17  3.82
Si -3.80 -2.14  0.75
Si -1.90  3.27 -2.32
Si -1.86 -3.32 -2.31
Si  1.96  3.27 -2.29
Si  0.08  4.28  3.06
Si -3.69 -2.21  3.05
Si -3.75  2.16 -3.14
Si -0.01 -4.36 -3.09
Si  3.85  2.15 -3.08
Si  3.81 -2.24  3.12
Si  5.60  1.11  0.79
Si -0.07 -4.30  3.86
Si -3.72  4.38  0.73
Si  0.05  2.19 -5.37
Si -1.89 -1.06 -5.38
Si -5.65  1.15  0.70
Si -1.82 -5.46  0.83
Si -3.77  2.25  3.84
Si  1.91 -5.48  0.76
Si  3.70  2.21  3.96
Si  1.84 -1.07 -5.46
Si  3.88  4.34  0.83
Si -5.56  1.11  3.01
Si  1.82 -5.39  3.06
Si  5.58  1.15  3.08
Si  5.65 -3.18 -0.05
Si  3.70 -4.34 -3.10
Si -1.85 -1.09  6.12
Si  5.66 -1.06 -3.03
Si  1.91 -1.10  6.12
Si -5.61  3.30 -0.09
Si -1.84  1.12 -6.14
Si -3.69  4.44  3.02
Si -3.79 -4.35 -3.03
Si -0.05  2.17  6.15
Si -5.69 -1.08 -3.00
Si  1.86  5.42 -3.12
Si -0.02  6.54 -0.00
Si  0.03 -6.55 -0.03
Si -0.05 -2.15 -6.19
Si  1.89  1.08 -6.19
Si  3.80  4.34  3.15
Si -5.69 -3.32  0.05
Si -1.96  5.48 -3.11
Si -1.89 -5.52  3.13
Si  5.74  3.30 -0.02
Si -5.58 -1.07  3.81
Si -0.00  6.47 -2.30
Si -1.84  5.43  3.79
Si  3.81  2.11 -5.33
Si  5.64 -1.06  3.85
Si -3.81 -4.41  3.73
Si -5.62  3.26 -2.38
Si  0.02 -6.54 -2.27
Si  0.03 -4.33 -5.40
Si  5.61 -3.31 -2.36
Si  1.89  5.47  3.81
Si -5.69 -3.28 -2.30
Si  0.03 -0.02  6.96
Si -3.80  2.14 -5.44
Si  5.71  3.30 -2.32
Si  3.78 -4.42  3.91
Si -3.82 -2.13 -6.09
Si -3.69  6.54  0.02
Si -3.69 -6.54  0.03
Si  7.51 -0.01  0.09
Si  3.78 -2.11 -6.15
Si -0.05  4.36 -6.14
Si -0.05 -4.34  6.16
Si -3.75  2.24  6.15
Si -7.55 -0.01  0.09
Si  3.83  6.51  0.03
Si  3.85 -6.51  0.02
Si  3.71  2.22  6.21
Si  3.68  6.51 -2.28
Si  3.75 -6.47 -2.31
Si  1.91  7.56  0.78
Si -3.81 -4.29 -5.34
Si -7.53 -0.01 -2.21
Si  5.70 -5.34  0.76
Si  7.53 -0.01 -2.21
Si  3.78 -4.27 -5.40
Si  5.67 -1.02 -5.34
Si -3.75  0.07  6.91
Si  1.84 -3.25  6.92
Si  1.84  5.44 -5.38
Si -7.53 -2.18  0.81
Si  7.53 -2.18  0.81
Si -1.95 -3.28  6.91
Si  3.72  0.06  6.96
Si -5.62 -5.48  0.78
Si  1.80  3.22  6.98
Si -1.95  5.42 -5.40
Si -5.73 -1.13 -5.32
Si -3.85 -6.54 -2.28
Si -3.78  6.57 -2.31
Si -1.86  3.33  6.96
Si -1.83  7.70  0.76
Si  3.76  4.29 -6.06
Si  1.85  5.35  6.11
Si -1.92 -7.55 -3.02
Si -7.51  2.12 -3.06
Si  5.61 -1.02  6.15
Si -1.92 -5.36 -6.15
Si  5.63 -5.42  3.03
Si  1.80  7.60  3.07
Si -1.91  5.44  6.10
Si -3.83 -4.38  6.06
Si  1.87 -5.40 -6.16
Si  5.61  5.50 -3.02
Si -1.90  7.62  3.03
Si -5.66 -1.06  6.14
Si  7.55  2.12 -3.06
Si -7.52 -2.14  3.14
Si  1.88 -7.60 -3.12
Si  5.62  1.09 -6.20
Si  7.54 -2.14  3.14
Si -5.66  5.44 -3.12
Si -5.67  1.00 -6.20
Si -5.72 -5.45  3.07
Si -3.83  4.32 -6.25
Si  3.76 -4.41  6.25
Si -1.82  1.03 -8.39
Si -7.51  2.11  3.79
Si  1.95 -7.56  3.81
Si -7.50  4.34  0.78
Si -5.59  5.48  3.81
Si  7.55  2.11  3.79
Si  0.03 -8.71  0.78
Si  7.56  4.34  0.78
Si  5.71  5.38  3.91
Si  1.95  1.14 -8.50
Si -1.82 -7.67  3.91
Si  0.02 -2.23 -8.52
Si -7.44  4.30  3.10
Si -0.01  8.63 -3.07
Si  0.09 -0.04 -9.20
Si -0.01 -0.06  9.23
Si  7.52 -4.41 -3.07
Si -7.54 -4.41 -3.07
Si  0.09 -8.74  3.10
Si  7.62  4.30  3.10
Si -3.83 -2.13 -8.35
Si -1.91 -7.55 -5.33
Si -5.62  7.57  0.76
Si -5.64 -3.22  6.88
Si -3.65 -8.70  0.83
Si -5.69  3.28  6.84
Si  7.47 -4.33  3.91
Si -7.53  2.12 -5.36
Si  7.53  2.12 -5.36
Si -0.00  6.46  6.94
Si  3.81 -8.67  0.73
Si  1.90 -7.56 -5.42
Si  3.77 -2.09 -8.47
Si  5.62  5.50 -5.33
Si  0.05 -6.51  6.93
Si  5.62 -3.20  6.97
Si  9.41  1.15  0.70
Si  5.64  3.28  6.92
Si -0.07  4.39 -8.44
Si  5.70  7.59  0.83
Si -5.64  5.48 -5.42
Si -0.06  8.72  3.91
Si -9.46  1.11  0.79
Si -7.59 -4.33  3.91
Si -3.73 -0.01 -9.15
Si -9.32  3.30 -0.02
Si -1.89  3.18 -9.17
Si  3.84 -8.60  3.02
Si  1.84  9.72  0.05
Si  9.37 -1.08 -3.00
Si  5.57 -7.57 -3.11
Si  7.48  2.19  6.11
Si -1.79 -9.74 -0.02
Si  5.64  7.53  3.13
Si -7.50  6.49 -0.03
Si  7.48 -2.18 -6.15
Si  1.86 -3.28  9.19
Si -5.64  5.43  6.11
Si -1.96 -3.22  9.19
Si  3.74  8.69 -3.03
Si -1.84 -7.57  6.16
Si -9.41 -3.18 -0.05
Si  1.92 -9.75 -0.09
Si -9.40 -1.06 -3.03
Si  7.51 -6.51 -0.00
Si  9.38 -3.32  0.05
Si  1.89 -7.62  6.11
Si -1.95 -3.20 -9.22
Si  7.56  6.49 -0.03
Si -7.55 -6.51 -0.00
Si -1.85  7.60 -6.18
Si -3.83  0.01  9.21
Si -5.61 -5.45 -6.18
Si -7.58  2.19  6.11
Si  1.91  7.60 -6.18
Si -3.73 -8.71  3.15
Si  1.82  3.30 -9.25
Si  3.74 -0.01  9.27
Si -5.67 -7.62 -3.12
Si  5.68 -5.44 -6.18
Si -3.83  8.71 -3.10
Si -7.58 -2.18 -6.15
Si  9.45  3.30 -0.09
Si  5.68  5.47  6.16
Si -1.88  3.29  9.27
Si  9.50  1.11  3.01
Si -5.71  7.65  3.06
Si  1.84  3.27  9.30
Si -9.48  1.15  3.08
Si  1.97 -3.24 -9.30
Si -1.89  9.87 -0.05
Si  3.84  0.09 -9.28
Si  3.72  8.64  3.73
Si  3.78  4.28 -8.39
Si  3.73  6.49  6.86
Si -1.92  1.04  9.94
Si -9.35  3.30 -2.32
Si -1.82 -9.75 -2.32
Si -5.64 -7.57  3.81
Si -3.75  8.62  3.91
Si -7.50 -4.36 -5.35
Si  9.37 -3.28 -2.30
Si -7.51  6.50 -2.27
Si  0.03  8.68 -5.35
Si -7.51  0.01  6.90
Si -1.92  9.74 -2.36
Si -3.72  6.45  6.97
Si  1.84  9.77 -2.30
Si -1.89 -5.40 -8.45
Si  7.55  6.50 -2.27
Si -3.80 -6.55  6.86
Si  1.84  1.07 10.00
Si -9.42 -1.06  3.85
Si  7.55  0.01  6.90
Si  5.69 -7.62  3.79
Si  7.56 -4.36 -5.35
Si -0.00 -2.23 10.00
Si  1.91 -9.79 -2.38
Si -5.64  1.12 -8.49
Si  7.53 -6.57 -2.30
Si -7.53 -6.57 -2.30
Si  9.44  3.26 -2.38
Si  1.95 -5.42 -8.49
Si  9.48 -1.07  3.81
Si -9.45 -3.31 -2.36
Si  5.69  1.08 -8.51
Si -3.81  4.29 -8.57
Si  3.81 -6.59  6.97
Si  7.51  4.32 -6.05
Si -7.55  4.32 -6.05
Si -0.02 -8.73 -6.05
Si -0.03  8.66  6.26
Si  7.51 -4.38  6.26
Si -7.55 -4.38  6.26
Si  9.33 -1.13 -5.32
Si -9.36 -5.34  0.76
Si -9.39 -1.02 -5.34
Si  5.58 -7.62 -5.40
Si -3.78 -2.13  9.99
Si  0.00 10.86  0.81
Si  3.68 -2.19 10.03
Si -5.68 -7.60 -5.38
Si  3.72  8.76 -5.34
Si  9.44 -5.48  0.78
Si -3.75  8.77 -5.40
Si  0.00  4.34 10.09
Si  3.69  8.66  6.06
Si -5.65 -3.30 -9.10
Si  5.57  9.74 -0.00
Si  0.01 -6.49 -9.16
Si  9.34 -5.45  3.07
Si -5.58 -9.76  0.02
Si  5.62 -7.60  6.10
Si  5.63  3.19  9.21
Si -5.66 -3.25  9.18
Si -5.66  9.74 -0.03
Si -5.66  3.31  9.17
Si  9.40 -1.06  6.14
Si  0.02  6.47  9.24
Si  5.56 -3.18 -9.29
Si -9.43 -5.42  3.03
Si -3.77 -8.75 -6.06
Si  9.39  1.00 -6.20
Si 11.29 -0.00 -0.05
Si -11.30 -0.01  0.06
Si  9.40  5.44 -3.12
Si -3.77  8.64  6.25
Si  5.61 -3.20  9.29
Si  0.05 -6.51  9.25
Si -9.46 -1.02  6.15
Si  5.61  7.68 -6.15
Si -5.66  7.64 -6.16
Si  5.63  3.27 -9.27
Si -5.72  3.25 -9.23
Si -9.45  5.50 -3.02
Si  0.02 -10.92 -3.06
Si  0.01 10.90  3.14
Si -9.44  1.09 -6.20
Si -5.67 -7.70  6.11
Si  5.69 -9.82 -0.03
Si  3.70 -8.73 -6.25
Si -0.02  6.55 -9.31
Si -9.35  5.38  3.91
Si -5.57 -9.77 -2.29
Si 11.26 -2.14  0.75
Si  5.67  9.72 -2.31
Si  3.80  4.36  9.93
Si -3.83 10.82  0.81
Si -11.28 -0.04 -2.28
Si  1.91  7.53 -8.48
Si -5.67  1.14  9.96
Si  7.49 -2.24 -8.46
Si  5.63 -9.78 -2.32
Si  5.65 -5.39 -8.47
Si  0.03 -0.01 -11.52
Si -1.90 -5.43  9.99
Si -3.75  4.31 10.02
Si -7.51 -8.72  0.78
Si  5.67  1.03 10.00
Si  3.73 10.90  0.75
Si  1.96 -5.42 10.01
Si  7.55 -8.72  0.78
Si  0.02 -10.93  3.79
Si -5.62 -5.51 -8.48
Si 11.33  0.01 -2.37
Si -1.88  7.66 -8.47
Si -7.58 -2.24 -8.46
Si  9.47  5.48  3.81
Si -5.67  9.83 -2.35
Si -11.36 -2.23  0.81
Si -11.21  2.15 -3.08
Si -3.72 10.80  3.12
Si  3.81  6.45 -9.18
Si  3.78  6.51  9.16
Si -3.68  6.49  9.22
Si -3.75 -6.54  9.16
Si -7.45 -0.07 -9.24
Si -11.25 -2.24  3.12
Si  3.83 10.83  3.05
Si -3.69  6.49 -9.26
Si  7.52  8.68 -3.09
Si  7.52 -0.02  9.21
Si -3.72 -6.59 -9.18
Si -7.54 -0.02  9.21
Si -7.54  8.68 -3.09
Si -7.45 -8.77  3.06
Si -3.67 -10.90 -3.08
Si 11.31  2.16 -3.14
Si  3.78 -10.88 -3.14
Si  3.85 -6.55  9.22
Si  7.61 -0.07 -9.24
Si 11.37 -2.21  3.05
Si  3.84 -6.56 -9.26
Si  7.61 -8.77  3.06
Si -11.18  4.34  0.83
Si -3.65 -0.00 -11.47
Si  7.47  4.37 -8.39
Si  3.77 -10.79  3.84
Si  9.37  3.28  6.84
Si  1.84 -9.76  6.84
Si -1.82  3.24 -11.47
Si -0.05 -8.68 -8.39
Si  1.89 -11.90  0.70
Si -9.36  7.59  0.83
Si  9.42 -3.22  6.88
Si -1.89 -9.76  6.92
Si -7.48  6.54  6.93
Si -1.93 -11.94  0.79
Si -1.93 -3.24 -11.52
Si  9.44  7.57  0.76
Si  7.46  8.74  3.86
Si -7.59  4.37 -8.39
Si  1.91  3.22 -11.54
Si 11.29  2.25  3.84
Si -9.42  3.28  6.92
Si  1.89  9.83  6.88
Si -3.83 -10.83  3.96
Si -9.44  5.50 -5.33
Si -9.44 -3.20  6.97
Si  0.00 -10.93 -5.36
Si  9.42  5.48 -5.42
Si -7.53 -6.58  6.94
Si  7.58  6.54  6.93
Si  7.53 -6.58  6.94
Si 11.34  4.38  0.73
Si  1.89 -3.20 -11.60
Si  3.81  0.03 -11.58
Si -1.91  9.85  6.97
Si -7.61  8.74  3.86
Si -11.36  2.21  3.96
Si -1.95 -11.89  3.08
Si -0.05 -10.85  6.11
Si -1.89  1.17 12.26
Si  9.35  7.65  3.06
Si 11.27 -4.35 -3.03
Si -9.42  7.53  3.13
Si  1.97 -11.94  3.01
Si  9.42  5.43  6.11
Si -11.26  4.34  3.15
Si  1.84 11.97 -3.00
Si -9.38  5.47  6.16
Si -9.38 -5.44 -6.18
Si -0.05 10.86 -6.15
Si -0.02 -2.16 12.30
Si  9.40 -7.62 -3.12
Si -1.79 -1.05 -12.33
Si -1.88 11.99 -3.03
Si  0.03  2.14 -12.33
Si  1.84  1.03 12.35
Si -9.49 -7.57 -3.11
Si  9.45 -5.45 -6.18
Si -11.36 -4.34 -3.10
Si 11.37  4.44  3.02
Si  1.92 -1.05 -12.40
Si -11.25  2.11 -5.33
Si -5.62 -5.44  9.92
Si  1.91  7.60  9.92
Si 11.25 -4.41  3.73
Si -9.37 -7.62  3.79
Si  9.42 -7.57  3.81
Si 11.26  2.14 -5.44
Si -3.75 -8.77 -8.39
Si -7.51  8.71 -5.40
Si -9.37  1.08 -8.51
Si -5.58  7.62 -8.49
Si -1.82  7.64  9.98
Si  5.71 -5.40  9.98
Si  1.95 11.97  3.81
Si  5.64  7.64 -8.45
Si -3.72 -10.94 -5.33
Si -7.51 -2.19 10.03
Si  9.42  1.12 -8.49
Si  7.55  8.71 -5.40
Si -1.89 11.99  3.85
Si -11.28 -4.42  3.91
Si  3.73 -10.90 -5.44
Si  7.55 -2.19 10.03
Si  3.72 -8.75 -8.57
Si 11.24 -2.13 -6.09
Si -11.21 -6.51  0.02
Si -0.02 -4.36 -12.22
Si -11.23  6.51  0.03
Si  3.78 -10.80  6.15
Si -3.70  2.16 -12.28
Si  7.48 -8.68 -6.14
Si -11.28 -2.11 -6.15
Si  7.48  8.71  6.16
Si -0.02 13.04  0.09
Si  3.71 10.92 -6.09
Si -3.69 -2.16 12.32
Si -3.82 -10.82  6.21
Si -0.02 -13.05  0.09
Si  3.85  2.19 -12.29
Si -7.58 -8.68 -6.14
Si 11.31  2.24  6.15
Si -7.58  8.71  6.16
Si  3.83 -2.19 12.33
Si -3.75 10.94 -6.15
Si 11.37 -6.54  0.03
Si 11.38  6.54  0.02
Si -0.02  4.34 12.39
Si -11.36  2.22  6.21
Si -5.59 -3.23 -11.45
Si 11.25 -4.29 -5.34
Si  1.80 11.91 -5.32
Si 11.21 -6.54 -2.28
Si  7.45 10.86  0.68
Si -13.12  1.12  0.85
Si -5.59 -11.92  0.85
Si  5.58  9.77  6.91
Si  9.38 -7.60 -5.38
Si  0.01 -6.53 -11.49
Si -11.28 -4.27 -5.40
