500
set: 116.00  0.00  0.00
Si -0.09 -0.00  0.00
Si  1.87  1.00  0.79
Si  0.02  0.03 -2.33
Si  0.02 -2.18  0.84
Si -1.98  1.11  0.85
Si  1.90  3.24  0.02
Si  1.87 -3.29  0.00
Si  1.94 -1.10 -3.08
Si -1.87 -1.07 -3.16
Si  3.83  0.06 -0.04
Si -1.89 -3.33 -0.01
Si  1.90  1.10  3.15
Si -1.87  3.35  0.11
Si  0.03  2.25 -3.11
Si -3.84 -0.00 -0.00
Si  0.04 -2.25  3.15
Si -1.94  1.10  3.18
Si -1.88  3.28 -2.22
Si  3.82 -2.14  0.74
Si  1.88 -3.32 -2.29
Si -1.87 -3.29 -2.35
Si -3.78 -2.23  0.79
Si -3.80 -0.02 -2.35
Si  1.95  3.30 -2.33
Si  0.00  4.42  0.76
Si  1.92 -1.10  3.91
Si -1.89 -1.18  3.91
Si  0.04  2.22  3.92
Si  3.87  0.06 -2.34
Si -3.77  2.22 -3.09
Si  3.85 -2.14  3.08
Si  0.03  4.44  3.09
Si  0.00 -4.41 -3.19
Si -3.86 -2.25  3.12
Si  3.84  2.24 -3.20
Si  3.82  4.32  0.76
Si  1.84 -1.15 -5.43
Si  0.01  2.19 -5.46
Si  3.80  2.18  3.94
Si  1.94 -5.51  0.80
Si -5.74  1.16  0.75
Si -1.96 -5.51  0.84
Si -1.95 -1.05 -5.48
Si  5.74  1.11  0.85
Si -3.80  4.48  0.77
Si -3.88  2.19  3.91
Si -0.00 -4.47  3.91
Si -1.91  5.48 -3.07
Si  1.93  1.06 -6.19
Si  3.79  4.39  3.09
Si -5.68 -3.33 -0.06
Si  3.82 -4.38 -3.11
Si  1.85 -1.12  6.23
Si -0.02 -6.60  0.03
Si  5.73 -3.29  0.04
Si -5.74  1.13  3.07
Si -5.73 -1.09 -3.11
Si  5.76 -1.11 -3.08
Si -5.70  3.38 -0.02
Si  5.72  1.12  3.17
Si -3.79 -4.45 -3.14
Si  5.77  3.29  0.03
Si -1.89  1.12 -6.28
Si -3.83  4.43  3.15
Si  1.93  5.52 -3.19
Si -1.97 -5.54  3.16
Si -0.02  6.68 -0.04
Si -1.98 -1.16  6.28
Si  1.89 -5.58  3.18
Si -0.07 -2.21 -6.32
Si -0.06  2.29  6.30
Si  3.84 -4.38  3.85
Si -5.76 -1.10  3.82
Si  0.03 -6.60 -2.35
Si -5.70  3.31 -2.37
Si -0.06  0.02  7.01
Si -1.87  5.54  3.88
Si -3.82  2.22 -5.45
Si  5.76 -3.31 -2.28
Si  5.78  3.27 -2.33
Si -5.72 -3.34 -2.40
Si -3.87 -4.42  3.91
Si  5.77 -1.12  3.91
Si  1.94  5.54  3.92
Si  0.00  6.65 -2.38
Si  0.00 -4.41 -5.56
Si  3.84  2.28 -5.55
Si  3.76 -2.26 -6.22
Si -3.84 -2.20 -6.22
Si -0.00  4.39 -6.25
Si  3.86 -6.59 -0.00
Si  3.85  6.60  0.01
Si -7.65  0.00  0.02
Si  7.68  0.00  0.02
Si -0.00 -4.46  6.25
Si -3.80  6.67 -0.00
Si -3.81 -6.67  0.01
Si  3.83  2.22  6.29
Si -3.90  2.17  6.29
Si  5.67 -1.06 -5.43
Si -7.58 -2.22  0.74
Si -1.94  5.46 -5.44
Si -7.61 -0.00 -2.32
Si  3.77 -0.03  7.02
Si  1.89 -3.36  6.98
Si  5.74 -5.49  0.81
Si  3.75 -4.48 -5.46
Si  3.88  6.59 -2.37
Si  1.91  7.74  0.73
Si -3.79  6.66 -2.34
Si  1.89  5.48 -5.53
Si  3.87 -6.61 -2.34
Si -5.76 -5.53  0.73
Si -5.78 -1.09 -5.45
Si  1.89  3.34  7.05
Si -3.79 -6.68 -2.37
Si  7.71 -0.00 -2.32
Si -1.92  7.78  0.81
Si -3.91 -0.06  7.05
Si -1.94 -3.38  7.07
Si -3.90 -4.46 -5.49
Si -1.99  3.36  7.08
Si  7.75 -2.22  0.74
Si  3.84 -4.37  6.16
Si -7.61 -2.24  3.09
Si  1.90  7.72  3.06
Si  5.73 -1.05  6.24
Si  1.94 -7.71 -3.10
Si  7.65  2.17 -3.09
Si -1.89  5.54  6.22
Si -1.94 -5.47 -6.27
Si -5.80 -1.13  6.18
Si -7.67  2.17 -3.09
Si -3.83  4.40 -6.26
Si -5.72  5.55 -3.10
Si  5.78  5.48 -3.15
Si -1.90  7.74  3.14
Si -5.76  1.14 -6.24
Si -5.77 -5.54  3.06
Si -3.84 -4.44  6.25
Si  5.76 -5.53  3.14
Si  1.91  5.57  6.26
Si  5.76  1.11 -6.29
Si  7.71 -2.24  3.09
Si -1.89 -7.79 -3.15
Si  1.86 -5.55 -6.33
Si  3.84  4.47 -6.34
Si  1.94  1.12 -8.54
Si  5.75  5.48  3.88
Si  0.04 -8.81  0.80
Si -7.66  2.20  3.85
Si  7.67  2.20  3.85
Si -7.62  4.46  0.80
Si -1.91  1.05 -8.62
Si  1.94 -7.72  3.96
Si -5.72  5.54  3.96
Si -1.91 -7.79  3.88
Si  7.71  4.46  0.80
Si -0.00 -2.23 -8.66
Si -7.62  4.42  3.13
Si -0.03  0.01  9.36
Si  7.63 -4.42 -3.15
Si  0.04 -0.01 -9.37
Si  0.04 -8.85  3.13
Si -0.03  8.85 -3.15
Si -7.70 -4.42 -3.15
Si  7.71  4.42  3.13
Si  5.71 -3.26  6.99
Si -5.73  5.50 -5.44
Si  3.86 -8.78  0.77
Si -0.00  4.38 -8.60
Si -7.62 -4.42  3.93
Si  3.78 -2.23 -8.60
Si  7.65  2.21 -5.46
Si -1.95 -7.69 -5.52
Si  5.72  3.37  7.03
Si  5.70  7.76  0.84
Si -3.87 -2.25 -8.57
Si -5.72  7.76  0.80
Si -7.68  2.21 -5.46
Si  1.93 -7.77 -5.44
Si  0.05  8.84  3.93
Si -0.01  6.64  7.05
Si -9.58  1.11  0.85
Si  0.01 -6.65  7.05
Si  9.59  1.16  0.75
Si -5.73 -3.34  7.07
Si  5.71  5.58 -5.52
Si  7.71 -4.42  3.93
Si -5.82  3.28  7.08
Si -3.85 -8.94  0.76
Si  7.60 -2.13 -6.21
Si  7.60  2.21  6.19
Si  1.89  3.26 -9.33
Si  1.93 -3.32  9.31
Si  1.96 -9.88 -0.02
Si  7.64 -6.59 -0.04
Si -1.98  7.69 -6.23
Si -1.95 -3.31 -9.34
Si  5.70  7.72  3.16
Si -9.55  3.29  0.03
Si -1.89 -7.73  6.23
Si -1.97  3.30 -9.35
Si -9.56 -1.11 -3.08
Si  3.83  0.01 -9.36
Si  5.68 -5.58 -6.23
Si -5.76  7.69  3.18
Si  1.85  7.72 -6.28
Si -7.68 -6.59 -0.04
Si  9.58  1.13  3.07
Si  3.83 -8.83  3.15
Si  1.99  9.94 -0.06
Si  3.88  8.82 -3.14
Si  3.88 -0.02  9.36
Si -5.72  5.49  6.31
Si -7.72 -2.13 -6.21
Si  9.59 -1.09 -3.11
Si -9.60 -3.29  0.04
Si -7.73  2.21  6.19
Si  5.78  5.54  6.23
Si  7.65  6.67  0.03
Si -5.73 -7.74 -3.19
Si  5.75 -7.79 -3.07
Si -3.84  0.04  9.40
Si -1.90 -9.98  0.03
Si  1.93  3.34  9.39
Si -1.93  9.98  0.04
Si -7.67  6.67  0.03
Si -3.87 -8.88  3.09
Si -3.84  8.89 -3.11
Si -1.90  3.31  9.43
Si -9.61  1.12  3.17
Si  1.92 -3.29 -9.44
Si -3.87 -0.03 -9.41
Si -5.81 -5.55 -6.28
Si -1.91 -3.36  9.44
Si  1.93 -7.78  6.31
Si  9.63  3.38 -0.02
Si  9.65 -3.33 -0.06
Si  3.84 -6.56  6.96
Si -7.66  0.01  6.95
Si  7.67  0.01  6.95
Si  1.95  1.08 10.11
Si -9.55  3.27 -2.33
Si  9.56 -1.10  3.82
Si  7.60 -4.40 -5.49
Si -0.00 -2.20 10.12
Si -9.57 -3.31 -2.28
Si -9.55 -1.12  3.91
Si -5.73  1.12 -8.59
Si -5.73 -7.73  3.92
Si -1.90  9.95 -2.28
Si -3.82  6.71  6.96
Si  1.95  9.92 -2.40
Si  3.80  8.85  3.91
Si  7.66 -6.62 -2.38
Si -3.82 -6.62  7.06
Si -1.90 -5.54 -8.60
Si -7.63  6.67 -2.35
Si -7.67 -6.62 -2.38
Si  5.79 -7.73  3.88
Si -3.82  8.89  3.85
Si -3.87  4.42 -8.60
Si  1.96 -9.96 -2.37
Si  3.85  6.64  7.06
Si -0.06  8.86 -5.49
Si -1.89 -9.99 -2.33
Si  5.79  1.11 -8.63
Si  7.69  6.67 -2.35
Si  9.63  3.31 -2.37
Si -7.73 -4.40 -5.49
Si  9.61 -3.34 -2.40
Si -1.90  1.11 10.23
Si  1.90 -5.53 -8.69
Si  3.84  4.46 -8.66
Si  7.63  4.40 -6.22
Si -0.04 -8.86 -6.22
Si -7.70  4.40 -6.22
Si  7.63 -4.44  6.29
Si -0.03  8.83  6.29
Si -7.70 -4.44  6.29
Si  3.77  8.81 -5.49
Si  9.55 -1.09 -5.45
Si -3.90  8.79 -5.46
Si -3.79 -2.19 10.17
Si -9.58 -5.49  0.81
Si  0.09 11.05  0.74
Si  9.57 -5.53  0.73
Si  3.88 -2.26 10.14
Si  5.72 -7.81 -5.44
Si  0.06  4.42 10.19
Si -9.66 -1.06 -5.43
Si -5.78 -7.79 -5.53
Si  9.53 -1.13  6.18
Si  5.71 -3.33 -9.33
Si  0.06 11.02  3.09
Si  0.04  6.59 -9.36
Si -9.55  5.48 -3.15
Si  9.55 -5.54  3.06
Si  5.76 -7.73  6.22
Si  3.83  8.82  6.25
Si -5.76 -7.70  6.26
Si -3.82  8.90  6.16
Si  0.03 -6.59  9.40
Si  9.57  1.14 -6.24
Si -9.57 -5.53  3.14
Si  5.79 -9.92  0.11
Si  5.76  3.32 -9.37
Si 11.49 -0.00 -0.00
Si -5.77 -3.33 -9.36
Si  5.78  9.93 -0.01
Si -5.72 -3.29  9.41
Si -9.60 -1.05  6.24
Si -11.50  0.06 -0.04
Si -0.01  6.60  9.42
Si -3.83 -8.79 -6.34
Si -9.56  1.11 -6.29
Si  5.78 -3.36  9.36
Si  5.80  3.36  9.35
Si  3.82 -8.87 -6.26
Si -0.02 -11.10 -3.09
Si -5.72  3.32  9.43
Si  9.60  5.55 -3.10
Si  5.73  7.79 -6.27
Si -5.79  9.97  0.00
Si -5.80  7.71 -6.33
Si  0.05 -6.67 -9.42
Si -5.77  3.30 -9.44
Si -5.77 -10.03  0.02
Si -1.89  7.66 -8.60
Si -7.63 -2.21 -8.58
Si -11.45  0.06 -2.34
Si -9.57  5.48  3.88
Si  0.04  0.03 -11.71
Si -0.00 -11.07  3.85
Si -5.72 -9.96 -2.33
Si  3.87  4.41 10.15
Si -5.75 -5.53 -8.60
Si  7.66 -8.85  0.76
Si  3.88 11.04  0.79
Si  1.92  7.74 -8.60
Si -7.67 -8.85  0.76
Si -11.51 -2.14  0.74
Si -5.78  9.95 -2.29
Si -3.79  4.48 10.16
Si  7.70 -2.21 -8.58
Si  5.79  1.14 10.15
Si  5.78 -9.99 -2.22
Si  1.95 -5.54 10.18
Si 11.53 -0.02 -2.35
Si  5.77 -5.61 -8.60
Si  9.60  5.54  3.96
Si  5.79  9.98 -2.35
Si 11.54 -2.23  0.79
Si -5.78  1.11 10.21
Si -3.84 11.13  0.74
Si -1.88 -5.56 10.28
Si  3.84 -6.60  9.31
Si -7.66  0.01  9.32
Si  3.81 11.02  3.12
Si  7.67  0.01  9.32
Si -3.82  6.67  9.31
Si -11.47 -2.14  3.08
Si -7.64 -8.83  3.09
Si 11.47 -2.25  3.12
Si -3.86  6.59 -9.39
Si -3.83 -11.03 -3.20
Si -3.81 -6.57 -9.43
Si  3.88 -11.04 -3.09
Si  7.69 -8.83  3.09
Si -3.77 -6.62  9.42
Si -7.64  0.01 -9.41
Si  3.80 -6.68 -9.39
Si -11.48  2.24 -3.20
Si -7.66  8.85 -3.19
Si  7.67  8.85 -3.19
Si  7.69  0.01 -9.41
Si -3.80 11.12  3.08
Si 11.55  2.22 -3.09
Si  3.89  6.65  9.42
Si  3.85  6.70 -9.43
Si -1.93 -3.32 -11.65
Si  1.92 -12.11  0.75
Si -7.62  4.42 -8.57
Si -1.96  3.33 -11.67
Si -1.95 -9.90  7.03
Si 11.45  2.19  3.91
Si  9.51  3.28  7.08
Si -7.66  8.80  3.91
Si  7.67  8.80  3.91
Si -11.51  4.32  0.76
Si -9.61 -3.26  6.99
Si  0.04 -8.85 -8.57
Si  1.94  3.33 -11.70
Si -7.64  6.62  7.05
Si  9.60  5.50 -5.44
Si -0.02 -11.05 -5.46
Si  7.65 -6.63  7.05
Si  3.78 -11.07  3.91
Si  1.94  9.93  7.07
Si -1.93 -12.16  0.85
Si  7.71  4.42 -8.57
Si  7.68  6.62  7.05
Si -7.68 -6.63  7.05
Si  3.86  0.06 -11.73
Si -1.94 10.01  6.99
Si  1.92 -3.27 -11.76
Si -3.85 -0.10 -11.75
Si -11.53  2.18  3.94
Si -9.61  3.37  7.03
Si  9.61  7.76  0.80
Si  9.60 -3.34  7.07
Si  1.84 -9.99  7.08
Si -3.87 -11.09  3.94
Si -9.62  7.76  0.84
Si 11.53  4.48  0.77
Si -9.61  5.58 -5.52
Si -0.02 -2.16 12.46
Si  1.99  1.09 12.45
Si  1.92 -12.14  3.07
Si -0.07 -11.05  6.19
Si  9.56  7.69  3.18
Si -1.90 -1.14 -12.48
Si  9.51 -5.55 -6.28
Si -9.55  5.54  6.23
Si -0.02  2.24 -12.48
Si -1.90 12.16 -3.08
Si -11.51 -4.38 -3.11
Si -1.95 -12.15  3.17
Si 11.49  4.43  3.15
Si -9.58 -7.79 -3.07
Si  1.94 12.18 -3.11
Si -11.53  4.39  3.09
Si  1.96 -1.04 -12.53
Si  9.60  5.49  6.31
Si  9.59 -7.74 -3.19
Si -9.63  7.72  3.16
Si -1.93  1.14 12.54
Si -0.06 11.14 -6.21
Si 11.54 -4.45 -3.14
Si -9.65 -5.58 -6.23
Si -9.54 -7.73  3.88
Si -5.70 -5.53 10.14
Si -11.49 -4.38  3.85
Si -3.83 -10.98 -5.55
Si 11.46 -4.42  3.91
Si -7.63 -2.17 10.16
Si  1.91 12.17  3.82
Si -1.88  7.70 10.18
Si -1.89 12.15  3.91
Si  3.84 -11.05 -5.45
Si  1.97  7.74 10.14
Si  3.79 -8.84 -8.60
Si -9.54  1.11 -8.63
Si  5.77  7.72 -8.60
Si 11.51  2.22 -5.45
Si  7.69 -2.17 10.16
Si -3.83 -8.80 -8.66
Si  9.60 -7.73  3.92
Si  9.60  1.12 -8.59
Si -11.48  2.28 -5.55
Si -7.66  8.86 -5.56
Si  5.78 -5.57 10.18
Si  7.67  8.86 -5.56
Si -5.76  7.74 -8.69
Si 11.42  2.17  6.29
Si -11.47 -6.59 -0.00
Si -3.90 11.01 -6.22
Si -11.47  6.60  0.01
Si  0.01 -4.42 -12.49
Si -7.66  8.81  6.25
Si -3.80 -2.17 12.50
Si  7.66  8.81  6.25
Si 11.49 -2.20 -6.22
Si -3.81  2.17 -12.50
Si  3.83 11.06 -6.22
Si  0.01 -13.26  0.02
Si  0.02 13.27  0.02
Si -3.84 -11.04  6.29
Si  3.86  2.25 -12.51
Si  3.85 -2.24 12.51
Si  7.65 -8.88 -6.25
Si  0.02  4.43 12.53
Si -11.50  2.22  6.29
Si -7.67 -8.88 -6.25
Si  3.76 -11.10  6.29
Si 11.51 -6.67  0.01
Si 11.53  6.67 -0.00
Si -11.57 -2.26 -6.22
Si  5.68 -3.31 -11.66
Si  1.91 -1.10 13.23
Si -5.77  9.90  6.98
Si -11.45  6.59 -2.37
Si 11.42 -0.06  7.05
Si 13.35  1.11  0.85
Si  0.09  2.21 13.24
Si -11.45 -6.61 -2.34
Si  5.67 -9.91  7.08
Si  0.02  6.66 -11.66
Si  5.73  9.89  7.07
