500
set: 78.00  0.00  0.00
Si  0.00  0.00  0.00
Si -0.09 -0.09  2.38
Si  0.09  0.09 -2.38
Si  1.29  2.19  0.00
Si -1.29 -2.19  0.00
Si  1.44 -2.19  0.00
Si -1.44  2.19  0.00
Si -2.73  0.00  0.00
Si  2.73  0.00  0.00
Si  1.20  2.11  2.38
Si -1.20 -2.11 -2.38
Si -1.53  2.11  2.38
Si  1.53 -2.11 -2.38
Si -2.64  0.09 -2.38
Si  2.64 -0.09  2.38
Si -1.35  2.28 -2.38
Si  1.35 -2.28  2.38
Si -1.38 -2.28  2.38
Si  1.38  2.28 -2.38
Si  2.82  0.09 -2.38
Si -2.82 -0.09  2.38
Si  0.15 -4.39  0.00
Si -0.15  4.39  0.00
Si  4.02  2.19  0.00
Si -4.02 -2.19  0.00
Si  4.17 -2.19  0.00
Si -4.17  2.19  0.00
Si  0.17  0.17 -4.75
Si -0.17 -0.17  4.75
Si -0.24  4.30  2.38
Si  0.24 -4.30 -2.38
Si -3.93 -2.11 -2.38
Si  3.93  2.11  2.38
Si  0.06 -4.48  2.38
Si -0.06  4.48 -2.38
Si -2.58 -4.39  0.00
Si  2.58  4.39  0.00
Si -4.08  2.28 -2.38
Si  4.08 -2.28  2.38
Si  2.88 -4.39  0.00
Si -2.88  4.39  0.00
Si -4.11 -2.28  2.38
Si  4.11  2.28 -2.38
Si -1.11 -2.02 -4.75
Si  1.11  2.02  4.75
Si  4.26 -2.11 -2.38
Si -4.26  2.11  2.38
Si  2.56 -0.17  4.75
Si -2.56  0.17 -4.75
Si -1.62  2.02  4.75
Si  1.62 -2.02 -4.75
Si  1.27 -2.37  4.75
Si -1.27  2.37 -4.75
Si -5.46  0.00  0.00
Si  5.46  0.00  0.00
Si  1.46  2.37 -4.75
Si -1.46 -2.37  4.75
Si -2.49 -4.30 -2.38
Si  2.49  4.30  2.38
Si -2.91 -0.17  4.75
Si  2.91  0.17 -4.75
Si -2.67 -4.48  2.38
Si  2.67  4.48 -2.38
Si  2.97 -4.30 -2.38
Si -2.97  4.30  2.38
Si  2.79 -4.48  2.38
Si -2.79  4.48 -2.38
Si  5.37 -0.09  2.38
Si -5.37  0.09 -2.38
Si  5.55  0.09 -2.38
Si -5.55 -0.09  2.38
Si  0.33 -4.21 -4.75
Si -0.33  4.21  4.75
Si  3.85  2.02  4.75
Si -3.85 -2.02 -4.75
Si -0.02 -4.57  4.75
Si  0.02  4.57 -4.75
Si  4.00 -2.37  4.75
Si -4.00  2.37 -4.75
Si -1.14 -6.58  0.00
Si  1.14  6.58  0.00
Si  4.35 -2.02 -4.75
Si -4.35  2.02  4.75
Si  4.20  2.37 -4.75
Si -4.20 -2.37  4.75
Si -1.59  6.58  0.00
Si  1.59 -6.58  0.00
Si  2.40  4.21  4.75
Si -2.40 -4.21 -4.75
Si  5.31  4.39  0.00
Si -5.31 -4.39  0.00
Si -1.05 -6.50 -2.38
Si  1.05  6.50  2.38
Si -3.06  4.21  4.75
Si  3.06 -4.21 -4.75
Si -6.75 -2.19  0.00
Si  6.75  2.19  0.00
Si  5.29 -0.17  4.75
Si -5.29  0.17 -4.75
Si -1.68  6.50  2.38
Si  1.68 -6.50 -2.38
Si  2.71 -4.57  4.75
Si -2.71  4.57 -4.75
Si -5.61  4.39  0.00
Si  5.61 -4.39  0.00
Si  0.26  0.26 -7.13
Si -0.26 -0.26  7.13
Si  2.75  4.57 -4.75
Si -2.75 -4.57  4.75
Si  5.22  4.30  2.38
Si -5.22 -4.30 -2.38
Si  1.23  6.67 -2.38
Si -1.23 -6.67  2.38
Si -1.50  6.67 -2.38
Si  1.50 -6.67  2.38
Si -6.90  2.19  0.00
Si  6.90 -2.19  0.00
Si -5.64 -0.17  4.75
Si  5.64  0.17 -4.75
Si -6.66 -2.11 -2.38
Si  6.66  2.11  2.38
Si -5.40 -4.48  2.38
Si  5.40  4.48 -2.38
Si -1.03 -1.93 -7.13
Si  1.03  1.93  7.13
Si  5.53 -4.48  2.38
Si -5.53  4.48 -2.38
Si  5.70 -4.30 -2.38
Si -5.70  4.30  2.38
Si -2.47  0.26 -7.13
Si  2.47 -0.26  7.13
Si -6.82  2.28 -2.38
Si  6.82 -2.28  2.38
Si -1.70  1.93  7.13
Si  1.70 -1.93 -7.13
Si  6.84  2.28 -2.38
Si -6.84 -2.28  2.38
Si  1.18 -2.46  7.13
Si -1.18  2.46 -7.13
Si -3.87 -6.58  0.00
Si  3.87  6.58  0.00
Si -6.99  2.11  2.38
Si  6.99 -2.11 -2.38
Si -1.55 -2.46  7.13
Si  1.55  2.46 -7.13
Si -2.99 -0.26  7.13
Si  2.99  0.26 -7.13
Si -4.32  6.58  0.00
Si  4.32 -6.58  0.00
Si  3.78  6.50  2.38
Si -3.78 -6.50 -2.38
Si -0.96 -6.41 -4.75
Si  0.96  6.41  4.75
Si -3.96 -6.67  2.38
Si  3.96  6.67 -2.38
Si  5.13  4.21  4.75
Si -5.13 -4.21 -4.75
Si  1.77 -6.41 -4.75
Si -1.77  6.41  4.75
Si  8.19  0.00  0.00
Si -8.19  0.00  0.00
Si -4.41  6.50  2.38
Si  4.41 -6.50 -2.38
Si  0.41 -4.13 -7.13
Si -0.41  4.13  7.13
Si -4.24  6.67 -2.38
Si  4.24 -6.67  2.38
Si  3.76  1.93  7.13
Si -3.76 -1.93 -7.13
Si -6.58 -2.02 -4.75
Si  6.58  2.02  4.75
Si  1.31  6.76 -4.75
Si -1.31 -6.76  4.75
Si -1.42  6.76 -4.75
Si  1.42 -6.76  4.75
Si  8.11 -0.09  2.38
Si -8.11  0.09 -2.38
Si -3.91  2.46 -7.13
Si  3.91 -2.46  7.13
Si -0.11 -4.65  7.13
Si  0.11  4.65 -7.13
Si  5.44 -4.57  4.75
Si -5.44  4.57 -4.75
Si -2.32 -4.13 -7.13
Si  2.32  4.13  7.13
Si -6.73  2.37 -4.75
Si  6.73 -2.37  4.75
Si -5.49 -4.57  4.75
Si  5.49  4.57 -4.75
Si  5.79 -4.21 -4.75
Si -5.79  4.21  4.75
Si  8.28  0.09 -2.38
Si -8.28 -0.09  2.38
Si  4.43 -1.93 -7.13
Si -4.43  1.93  7.13
Si -4.28 -2.46  7.13
Si  4.28  2.46 -7.13
Si -6.93 -2.37  4.75
Si  6.93  2.37 -4.75
Si -7.08  2.02  4.75
Si  7.08 -2.02 -4.75
Si  0.30 -8.78  0.00
Si -0.30  8.78  0.00
Si -3.69 -6.41 -4.75
Si  3.69  6.41  4.75
Si -3.15  4.13  7.13
Si  3.15 -4.13 -7.13
Si -5.20  0.26 -7.13
Si  5.20 -0.26  7.13
Si  2.62 -4.65  7.13
Si -2.62  4.65 -7.13
Si -2.84 -4.65  7.13
Si  2.84  4.65 -7.13
Si -0.39  8.69  2.38
Si  0.39 -8.69 -2.38
Si  2.43  8.78  0.00
Si -2.43 -8.78  0.00
Si  5.72  0.26 -7.13
Si -5.72 -0.26  7.13
Si  4.50 -6.41 -4.75
Si -4.50  6.41  4.75
Si  8.04  4.39  0.00
Si -8.04 -4.39  0.00
Si  0.22 -8.87  2.38
Si -0.22  8.87 -2.38
Si  4.04  6.76 -4.75
Si -4.04 -6.76  4.75
Si -4.15  6.76 -4.75
Si  4.15 -6.76  4.75
Si -3.03  8.78  0.00
Si  3.03 -8.78  0.00
Si  2.34  8.69  2.38
Si -2.34 -8.69 -2.38
Si  8.02 -0.17  4.75
Si -8.02  0.17 -4.75
Si -6.60 -6.58  0.00
Si  6.60  6.58  0.00
Si -7.95 -4.30 -2.38
Si  7.95  4.30  2.38
Si -8.34  4.39  0.00
Si  8.34 -4.39  0.00
Si -6.51 -6.50 -2.38
Si  6.51  6.50  2.38
Si -0.35 -0.35  9.51
Si  0.35  0.35 -9.51
Si  2.52  8.87 -2.38
Si -2.52 -8.87  2.38
Si -3.12  8.69  2.38
Si  3.12 -8.69 -2.38
Si -0.88 -6.32 -7.13
Si  0.88  6.32  7.13
Si  8.13  4.48 -2.38
Si -8.13 -4.48  2.38
Si -8.37 -0.17  4.75
Si  8.37  0.17 -4.75
Si -2.95  8.87 -2.38
Si  2.95 -8.87  2.38
Si -7.05  6.58  0.00
Si  7.05 -6.58  0.00
Si -5.05 -4.13 -7.13
Si  5.05  4.13  7.13
Si  8.26 -4.48  2.38
Si -8.26  4.48 -2.38
Si  1.85 -6.32 -7.13
Si -1.85  6.32  7.13
Si  0.94  1.84  9.51
Si -0.94 -1.84 -9.51
Si -9.48 -2.19  0.00
Si  9.48  2.19  0.00
Si -6.69 -6.67  2.38
Si  6.69  6.67 -2.38
Si  8.43 -4.30 -2.38
Si -8.43  4.30  2.38
Si -2.38  0.35 -9.51
Si  2.38 -0.35  9.51
Si  6.49  1.93  7.13
Si -6.49 -1.93 -7.13
Si -0.48  8.61  4.75
Si  0.48 -8.61 -4.75
Si  1.79 -1.84 -9.51
Si -1.79  1.84  9.51
Si  9.63 -2.19  0.00
Si -9.63  2.19  0.00
Si  1.09 -2.54  9.51
Si -1.09  2.54 -9.51
Si  9.39  2.11  2.38
Si -9.39 -2.11 -2.38
Si  6.97 -6.67  2.38
Si -6.97  6.67 -2.38
Si -7.14  6.50  2.38
Si  7.14 -6.50 -2.38
Si  1.33 -6.85  7.13
Si -1.33  6.85 -7.13
Si -1.64 -2.54  9.51
Si  1.64  2.54 -9.51
Si -1.40 -6.85  7.13
Si  1.40  6.85 -7.13
Si  3.08  0.35 -9.51
Si -3.08 -0.35  9.51
Si  6.64 -2.46  7.13
Si -6.64  2.46 -7.13
Si  5.35 -4.65  7.13
Si -5.35  4.65 -7.13
Si  2.25  8.61  4.75
Si -2.25 -8.61 -4.75
Si -9.55  2.28 -2.38
Si  9.55 -2.28  2.38
Si -7.87 -4.21 -4.75
Si  7.87  4.21  4.75
Si  5.88 -4.13 -7.13
Si -5.88  4.13  7.13
Si  9.57  2.28 -2.38
Si -9.57 -2.28  2.38
Si -0.13  8.96 -4.75
Si  0.13 -8.96  4.75
Si -5.57 -4.65  7.13
Si  5.57  4.65 -7.13
Si  5.16  8.78  0.00
Si -5.16 -8.78  0.00
Si  3.61  6.32  7.13
Si -3.61 -6.32 -7.13
Si -9.72  2.11  2.38
Si  9.72 -2.11 -2.38
Si -6.42 -6.41 -4.75
Si  6.42  6.41  4.75
Si -7.17  1.93  7.13
Si  7.17 -1.93 -7.13
Si -7.01 -2.46  7.13
Si  7.01  2.46 -7.13
Si -0.50  4.04  9.51
Si  0.50 -4.04 -9.51
Si  5.07  8.69  2.38
Si -5.07 -8.69 -2.38
Si  3.21 -8.61 -4.75
Si -3.21  8.61  4.75
Si -3.67 -1.84 -9.51
Si  3.67  1.84  9.51
Si  2.60  8.96 -4.75
Si -2.60 -8.96  4.75
Si -8.17  4.57 -4.75
Si  8.17 -4.57  4.75
Si  5.76 -8.78  0.00
Si -5.76  8.78  0.00
Si -8.21 -4.57  4.75
Si  8.21  4.57 -4.75
Si  2.86 -8.96  4.75
Si -2.86  8.96 -4.75
Si  3.82 -2.54  9.51
Si -3.82  2.54 -9.51
Si -2.23 -4.04 -9.51
Si  2.23  4.04  9.51
Si  5.25  8.87 -2.38
Si -5.25 -8.87  2.38
Si  4.59 -6.32 -7.13
Si -4.59  6.32  7.13
Si -0.20 -4.74  9.51
Si  0.20  4.74 -9.51
Si  8.52 -4.21 -4.75
Si -8.52  4.21  4.75
Si -9.31 -2.02 -4.75
Si  9.31  2.02  4.75
Si  7.93 -0.26  7.13
Si -7.93  0.26 -7.13
Si  6.77  6.76 -4.75
Si -6.77 -6.76  4.75
Si -4.52  1.84  9.51
Si  4.52 -1.84 -9.51
Si  4.06 -6.85  7.13
Si -4.06  6.85 -7.13
Si -4.13 -6.85  7.13
Si  4.13  6.85 -7.13
Si -5.85  8.69  2.38
Si  5.85 -8.69 -2.38
Si  6.88 -6.76  4.75
Si -6.88  6.76 -4.75
Si  4.37  2.54 -9.51
Si -4.37 -2.54  9.51
Si  7.23 -6.41 -4.75
Si -7.23  6.41  4.75
Si  5.68 -8.87  2.38
Si -5.68  8.87 -2.38
Si  5.11 -0.35  9.51
Si -5.11  0.35 -9.51
Si -3.23  4.04  9.51
Si  3.23 -4.04 -9.51
Si  9.46 -2.37  4.75
Si -9.46  2.37 -4.75
Si -2.53  4.74 -9.51
Si  2.53 -4.74  9.51
Si -10.92  0.00  0.00
Si 10.92  0.00  0.00
Si  2.93  4.74 -9.51
Si -2.93 -4.74  9.51
Si -0.99 -10.97  0.00
Si  0.99 10.97  0.00
Si  9.66  2.37 -4.75
Si -9.66 -2.37  4.75
Si  4.98  8.61  4.75
Si -4.98 -8.61 -4.75
Si -8.46 -0.26  7.13
Si  8.46  0.26 -7.13
Si  9.81 -2.02 -4.75
Si -9.81  2.02  4.75
Si 10.84 -0.09  2.38
Si -10.84  0.09 -2.38
Si  1.75 -10.97  0.00
Si -1.75 10.97  0.00
Si  0.57 -8.52 -7.13
Si -0.57  8.52  7.13
Si  5.81  0.35 -9.51
Si -5.81 -0.35  9.51
Si -0.90 -10.89 -2.38
Si  0.90 10.89  2.38
Si 11.01  0.09 -2.38
Si -11.01 -0.09  2.38
Si -1.83 10.89  2.38
Si  1.83 -10.89 -2.38
Si -2.17 -8.52 -7.13
Si  2.17  8.52  7.13
Si  7.78  4.13  7.13
Si -7.78 -4.13 -7.13
Si  1.07 11.06 -2.38
Si -1.07 -11.06  2.38
Si  0.79  6.24  9.51
Si -0.79 -6.24 -9.51
Si  9.33  6.58  0.00
Si -9.33 -6.58  0.00
Si  1.66 -11.06  2.38
Si -1.66 11.06 -2.38
Si  6.34  6.32  7.13
Si -6.34 -6.32 -7.13
Si -5.33 -8.96  4.75
Si  5.33  8.96 -4.75
Si -4.96 -4.04 -9.51
Si  4.96  4.04  9.51
Si  5.94 -8.61 -4.75
Si -5.94  8.61  4.75
Si -0.04  9.04 -7.13
Si  0.04 -9.04  7.13
Si  1.94 -6.24 -9.51
Si -1.94  6.24  9.51
Si  9.24  6.50  2.38
Si -9.24 -6.50 -2.38
Si  5.59 -8.96  4.75
Si -5.59  8.96 -4.75
Si -3.30  8.52  7.13
Si  3.30 -8.52 -7.13
Si -3.72 -10.97  0.00
Si  3.72 10.97  0.00
Si  6.40  1.84  9.51
Si -6.40 -1.84 -9.51
Si -10.77 -4.39  0.00
Si 10.77  4.39  0.00
Si  3.63 10.89  2.38
Si -3.63 -10.89 -2.38
Si  8.08 -4.65  7.13
Si -8.08  4.65 -7.13
Si -10.75  0.17 -4.75
Si 10.75 -0.17  4.75
Si -10.68 -4.30 -2.38
Si 10.68  4.30  2.38
Si -9.42 -6.67  2.38
Si  9.42  6.67 -2.38
Si -9.79  6.58  0.00
Si  9.79 -6.58  0.00
Si  7.89  8.78  0.00
Si -7.89 -8.78  0.00
Si -9.22 -1.93 -7.13
Si  9.22  1.93  7.13
Si  6.55 -2.54  9.51
Si -6.55  2.54 -9.51
Si  2.69  9.04 -7.13
Si -2.69 -9.04  7.13
Si -0.81 -10.80 -4.75
Si  0.81 10.80  4.75
Si -1.24  6.93 -9.51
Si  1.24 -6.93  9.51
Si -2.77  9.04 -7.13
Si  2.77 -9.04  7.13
Si -4.47 10.97  0.00
Si  4.47 -10.97  0.00
Si  5.26 -4.74  9.51
Si -5.26  4.74 -9.51
Si -1.49 -6.93  9.51
Si  1.49  6.93 -9.51
Si -8.30 -4.65  7.13
Si  8.30  4.65 -7.13
Si -0.44 -0.44 11.88
Si  0.44  0.44 -11.88
Si  3.52  6.24  9.51
Si -3.52 -6.24 -9.51
Si 11.07 -4.39  0.00
Si -11.07  4.39  0.00
Si  8.61 -4.13 -7.13
Si -8.61  4.13  7.13
Si  7.80  8.69  2.38
Si -7.80 -8.69 -2.38
Si  5.96 -4.04 -9.51
Si -5.96  4.04  9.51
Si -3.80 -11.06  2.38
