500
set: 579.00  0.00  0.00
Si  0.00  0.00  0.00
Si -1.75  1.05  0.74
Si  1.82  1.05  0.74
Si -0.02 -2.13  0.74
Si  0.08  0.07 -2.26
Si -3.56  0.00  0.00
Si  3.56  0.00  0.00
Si -1.74 -0.98 -3.00
Si  1.74  0.98  3.00
Si  1.73 -3.18  0.00
Si -1.73  3.18  0.00
Si  1.82 -0.98 -3.00
Si -1.82  0.98  3.00
Si  1.83  3.18  0.00
Si -1.83 -3.18  0.00
Si  0.10  2.20 -3.00
Si -0.10 -2.20  3.00
Si -3.48  0.07 -2.26
Si  3.54 -2.13  0.74
Si -1.76 -3.12 -2.26
Si -3.58 -2.13  0.74
Si  1.80 -3.12 -2.26
Si -0.01  2.03  3.74
Si  1.72 -1.16  3.74
Si  3.64  0.07 -2.26
Si -1.65  3.25 -2.26
Si  0.09  4.23  0.74
Si -1.84 -1.16  3.74
Si  1.91  3.25 -2.26
Si -3.47  2.20 -3.00
Si  3.47 -2.20  3.00
Si  0.01  4.16  3.00
Si -0.01 -4.16 -3.00
Si -3.66 -2.20  3.00
Si  3.66  2.20 -3.00
Si -5.31  1.05  0.74
Si -3.47  4.23  0.74
Si  5.38  1.05  0.74
Si  3.56  2.03  3.74
Si -3.57  2.03  3.74
Si -1.66 -0.91 -5.26
Si  1.71 -5.32  0.74
Si  3.65  4.23  0.74
Si  1.90 -0.91 -5.26
Si -1.85 -5.32  0.74
Si -0.11 -4.34  3.74
Si  0.17  2.27 -5.26
Si  5.30  0.98  3.00
Si -5.30 -0.98 -3.00
Si  5.29 -3.18  0.00
Si -5.29  3.18  0.00
Si  3.55 -4.16 -3.00
Si -3.55  4.16  3.00
Si -5.38  0.98  3.00
Si  5.38 -0.98 -3.00
Si  3.57  4.16  3.00
Si -3.57 -4.16 -3.00
Si  5.40  3.18  0.00
Si -5.40 -3.18  0.00
Si -0.08  1.96  6.00
Si  0.08 -1.96 -6.00
Si  1.64 -1.22  6.00
Si -1.64  1.22 -6.00
Si -0.11 -6.37  0.00
Si  0.11  6.37  0.00
Si -1.63  5.39 -3.00
Si  1.63 -5.39  3.00
Si  1.92  1.22 -6.00
Si -1.92 -1.22  6.00
Si -1.93 -5.39  3.00
Si  1.93  5.39 -3.00
Si -5.21  3.25 -2.26
Si -5.32 -3.12 -2.26
Si  5.28 -1.16  3.74
Si  5.37 -3.12 -2.26
Si -1.73  5.21  3.74
Si -3.39  2.27 -5.26
Si  0.07 -4.10 -5.26
Si  1.83  5.21  3.74
Si -5.40 -1.16  3.74
Si  3.45 -4.34  3.74
Si -0.03 -6.30 -2.26
Si -0.10 -0.17  6.74
Si  5.47  3.25 -2.26
Si -3.68 -4.34  3.74
Si  0.18  6.44 -2.26
Si  3.73  2.27 -5.26
Si  7.12  0.00  0.00
Si -7.12  0.00  0.00
Si -3.48 -1.96 -6.00
Si  3.48  1.96  6.00
Si -3.46  6.37  0.00
Si  3.46 -6.37  0.00
Si  3.65 -1.96 -6.00
Si -3.65  1.96  6.00
Si  3.67  6.37  0.00
Si -3.67 -6.37  0.00
Si -7.05  0.07 -2.26
Si -0.19 -4.41  6.00
Si  0.19  4.41 -6.00
Si  7.11 -2.13  0.74
Si -5.22 -0.91 -5.26
Si -7.14 -2.13  0.74
Si  5.27 -5.32  0.74
Si -3.50 -4.10 -5.26
Si  7.20  0.07 -2.26
Si  3.53 -6.30 -2.26
Si  3.46 -0.17  6.74
Si  1.73  3.01  6.74
Si  3.63 -4.10 -5.26
Si -3.59 -6.30 -2.26
Si -1.83  3.01  6.74
Si -3.38  6.44 -2.26
Si -5.42 -5.32  0.74
Si -1.64  7.42  0.74
Si  5.46 -0.91 -5.26
Si -3.66 -0.17  6.74
Si  1.92  7.42  0.74
Si  1.62 -3.36  6.74
Si -1.55  5.46 -5.26
Si -1.94 -3.36  6.74
Si  3.75  6.44 -2.26
Si  2.01  5.46 -5.26
Si -7.03  2.20 -3.00
Si  7.03 -2.20  3.00
Si -5.21  1.22 -6.00
Si  5.21 -1.22  6.00
Si  5.19 -5.39  3.00
Si -5.19  5.39 -3.00
Si  1.75  5.14  6.00
Si -1.75 -5.14 -6.00
Si  1.81 -5.14 -6.00
Si -1.81  5.14  6.00
Si -1.72  7.35  3.00
Si  1.72 -7.35 -3.00
Si -7.22 -2.20  3.00
Si  7.22  2.20 -3.00
Si  1.85  7.35  3.00
Si -1.85 -7.35 -3.00
Si  3.37 -4.41  6.00
Si -3.37  4.41 -6.00
Si  5.48  1.22 -6.00
Si -5.48 -1.22  6.00
Si -7.04  4.23  0.74
Si  5.49  5.39 -3.00
Si -5.49 -5.39  3.00
Si  7.12  2.03  3.74
Si -7.13  2.03  3.74
Si -5.30  5.21  3.74
Si  3.75  4.41 -6.00
Si -3.75 -4.41  6.00
Si  5.39  5.21  3.74
Si  7.21  4.23  0.74
Si  0.16 -1.89 -8.26
Si -1.57  1.29 -8.26
Si -0.13 -8.50  0.74
Si  1.61 -7.52  3.74
Si  2.00  1.29 -8.26
Si -1.95 -7.52  3.74
Si -7.11  4.16  3.00
Si  7.11 -4.16 -3.00
Si  7.13  4.16  3.00
Si -7.13 -4.16 -3.00
Si -8.87  1.05  0.74
Si -0.18 -0.24  9.00
Si  0.18  0.24 -9.00
Si -6.95  2.27 -5.26
Si  8.94  1.05  0.74
Si  7.01 -4.34  3.74
Si  0.20  8.57 -3.00
Si -0.20 -8.57  3.00
Si  5.29  3.01  6.74
Si -5.20  7.42  0.74
Si -3.40 -1.89 -8.26
Si -5.39  3.01  6.74
Si -5.12  5.46 -5.26
Si  5.19 -3.36  6.74
Si -1.77 -7.28 -5.26
Si  0.01  6.19  6.74
Si  1.79 -7.28 -5.26
Si  0.10  8.40  3.74
Si  3.44 -8.50  0.74
Si -7.24 -4.34  3.74
Si  5.49  7.42  0.74
Si  3.72 -1.89 -8.26
Si  7.30  2.27 -5.26
Si -3.69 -8.50  0.74
Si -5.50 -3.36  6.74
Si -0.21 -6.54  6.74
Si  0.27  4.48 -8.26
Si  5.57  5.46 -5.26
Si  8.85 -3.18  0.00
Si -8.85  3.18  0.00
Si  8.86  0.98  3.00
Si -8.86 -0.98 -3.00
Si  7.04  1.96  6.00
Si -7.04 -1.96 -6.00
Si  7.02 -6.37  0.00
Si -7.02  6.37  0.00
Si -8.95  0.98  3.00
Si  8.95 -0.98 -3.00
Si -8.96 -3.18  0.00
Si  8.96  3.18  0.00
Si  5.31  5.14  6.00
Si -5.31 -5.14 -6.00
Si -5.28  7.35  3.00
Si  5.28 -7.35 -3.00
Si  5.37 -5.14 -6.00
Si -5.37  5.14  6.00
Si  7.21 -1.96 -6.00
Si -7.21  1.96  6.00
Si  5.41  7.35  3.00
Si -5.41 -7.35 -3.00
Si -1.66 -2.94 -9.00
Si  1.66  2.94  9.00
Si  3.38 -0.24  9.00
Si -3.38  0.24 -9.00
Si -8.77  3.25 -2.26
Si  7.23  6.37  0.00
Si -7.23 -6.37  0.00
Si -1.91  2.94  9.00
Si  1.91 -2.94 -9.00
Si  8.84 -1.16  3.74
Si -8.88 -3.12 -2.26
Si  3.36 -8.57  3.00
Si -3.36  8.57 -3.00
Si -1.62  9.55  0.00
Si  1.62 -9.55  0.00
Si -7.06 -4.10 -5.26
Si  8.93 -3.12 -2.26
Si -6.94  6.44 -2.26
Si  7.02 -0.17  6.74
Si -1.94 -9.55  0.00
Si  1.94  9.55  0.00
Si  7.09 -6.30 -2.26
Si -3.74 -0.24  9.00
Si  3.74  0.24 -9.00
Si -1.55  3.43 -9.00
Si  1.55 -3.43  9.00
Si -8.96 -1.16  3.74
Si -7.15 -6.30 -2.26
Si -1.54  7.59 -6.00
Si  1.54 -7.59  6.00
Si  7.19 -4.10 -5.26
Si -5.13  1.29 -8.26
Si -3.56  6.19  6.74
Si -3.46  8.40  3.74
Si  3.57  6.19  6.74
Si -3.77 -8.57  3.00
Si  3.77  8.57 -3.00
Si -1.67 -5.08 -8.26
Si -2.01 -3.43  9.00
Si  2.01  3.43 -9.00
Si  9.04  3.25 -2.26
Si  5.17 -7.52  3.74
Si  1.89 -5.08 -8.26
Si -7.23 -0.17  6.74
Si -2.03 -7.59  6.00
Si  2.03  7.59 -6.00
Si  1.70 -9.48 -2.26
Si  3.66  8.40  3.74
Si  1.64  0.81  9.74
Si -1.86 -9.48 -2.26
Si -3.29  4.48 -8.26
Si -1.93  0.81  9.74
Si  3.35 -6.54  6.74
Si  7.31  6.44 -2.26
Si -1.54  9.62 -2.26
Si -0.20 -2.38  9.74
Si  5.56  1.29 -8.26
Si -5.51 -7.52  3.74
Si  2.02  9.62 -2.26
Si  0.28  8.64 -5.26
Si -3.77 -6.54  6.74
Si  3.83  4.48 -8.26
Si -6.93  4.41 -6.00
Si  6.93 -4.41  6.00
Si  0.02  8.33  6.00
Si -0.02 -8.33 -6.00
Si -8.79 -0.91 -5.26
Si  8.83 -5.32  0.74
Si  7.32  4.41 -6.00
Si -7.32 -4.41  6.00
Si -5.33 -7.28 -5.26
Si  5.36 -7.28 -5.26
Si -8.98 -5.32  0.74
Si  9.02 -0.91 -5.26
Si -0.09  3.99  9.74
Si  3.36 -2.38  9.74
Si  0.20 10.60  0.74
Si -3.28  8.64 -5.26
Si -10.69  0.00  0.00
Si 10.69  0.00  0.00
Si -8.77  1.22 -6.00
Si  8.77 -1.22  6.00
Si -8.76  5.39 -3.00
Si  8.76 -5.39  3.00
Si -3.76 -2.38  9.74
Si -5.22 -2.94 -9.00
Si  5.22  2.94  9.00
Si  3.84  8.64 -5.26
Si -10.61  0.07 -2.26
Si  3.54 -8.33 -6.00
Si -3.54  8.33  6.00
Si  5.18 -9.55  0.00
Si -5.18  9.55  0.00
Si  3.58  8.33  6.00
Si -3.58 -8.33 -6.00
Si -0.07  6.12  9.00
Si  0.07 -6.12 -9.00
Si 10.67 -2.13  0.74
Si  5.11 -3.43  9.00
Si -5.11  3.43 -9.00
Si -9.04 -1.22  6.00
Si  9.04  1.22 -6.00
Si  5.47 -2.94 -9.00
Si -5.47  2.94  9.00
Si -8.86  5.21  3.74
Si  5.10 -7.59  6.00
Si -5.10  7.59 -6.00
Si -10.70 -2.13  0.74
Si  0.12 10.53  3.00
Si -0.12 -10.53 -3.00
Si  9.05  5.39 -3.00
Si -9.05 -5.39  3.00
Si -6.96 -1.89 -8.26
Si 10.76  0.07 -2.26
Si  8.95  5.21  3.74
Si -5.24 -5.08 -8.26
Si  5.50  9.55  0.00
Si -5.50 -9.55  0.00
Si  7.00 -8.50  0.74
Si  5.20  0.81  9.74
Si  5.26 -9.48 -2.26
Si  3.47  3.99  9.74
Si -5.10  9.62 -2.26
Si  5.45 -5.08 -8.26
Si -5.58 -3.43  9.00
Si  5.58  3.43 -9.00
Si -3.65  3.99  9.74
Si -3.37 10.60  0.74
Si -5.43 -9.48 -2.26
Si -0.29 -6.61  9.00
Si  0.29  6.61 -9.00
Si -5.59 -7.59  6.00
Si  5.59  7.59 -6.00
Si  7.29 -1.89 -8.26
Si -7.25 -8.50  0.74
Si -5.49  0.81  9.74
Si -10.59  2.20 -3.00
Si 10.59 -2.20  3.00
Si  0.26  0.31 -11.26
Si  3.76 10.60  0.74
Si  1.53 -5.56  9.74
Si -0.22 -10.71  3.74
Si  5.58  9.62 -2.26
Si -1.46  7.66 -8.26
Si -6.94  0.24 -9.00
Si  6.94 -0.24  9.00
Si -2.03 -5.56  9.74
Si -10.78 -2.20  3.00
Si 10.78  2.20 -3.00
Si -6.92  8.57 -3.00
Si  6.92 -8.57  3.00
Si -3.49 -6.12 -9.00
Si  3.49  6.12  9.00
Si -10.60  4.23  0.74
Si  2.10  7.66 -8.26
Si  3.63 -6.12 -9.00
Si -3.63  6.12  9.00
Si -3.44 10.53  3.00
Si  3.44 -10.53 -3.00
Si 10.68  2.03  3.74
Si -8.76  7.42  0.74
Si -10.69  2.03  3.74
Si -8.68  5.46 -5.26
Si  8.86  3.01  6.74
Si  8.75 -3.36  6.74
Si -3.68 -10.53 -3.00
Si  3.68 10.53  3.00
Si -7.02  8.40  3.74
Si -7.30 -0.24  9.00
Si  7.30  0.24 -9.00
Si -7.12  6.19  6.74
Si 10.78  4.23  0.74
Si  7.13  6.19  6.74
Si -8.95  3.01  6.74
Si -6.86  4.48 -8.26
Si -3.27  6.61 -9.00
Si  3.27 -6.61  9.00
Si  6.91 -6.54  6.74
Si  7.33  8.57 -3.00
Si -7.33 -8.57  3.00
Si -1.72  9.38  6.74
Si  0.05 -8.26 -8.26
Si  7.22  8.40  3.74
Si  1.84  9.38  6.74
Si -0.04 -10.46 -5.26
Si  9.05  7.42  0.74
Si -1.58 -2.87 -11.26
Si -3.31  0.31 -11.26
Si -9.06 -3.36  6.74
Si  1.98 -2.87 -11.26
Si -3.85 -6.61  9.00
Si  3.85  6.61 -9.00
Si  1.60 -11.69  0.74
Si  3.34 -10.71  3.74
Si -10.67  4.16  3.00
Si 10.67 -4.16 -3.00
Si -10.70 -4.16 -3.00
Si 10.70  4.16  3.00
Si  9.13  5.46 -5.26
Si -1.96 -11.69  0.74
Si  8.84 -7.35 -3.00
Si -8.84  7.35  3.00
Si -1.47  3.50 -11.26
Si -8.87 -5.14 -6.00
Si  8.87  5.14  6.00
Si  3.82  0.31 -11.26
Si -7.33 -6.54  6.74
Si -8.94  5.14  6.00
Si  8.94 -5.14 -6.00
Si  1.52 -9.73  6.74
Si  7.39  4.48 -8.26
Si -3.78 -10.71  3.74
Si -10.51  2.27 -5.26
Si  2.09  3.50 -11.26
Si  8.97  7.35  3.00
Si -8.97 -7.35 -3.00
Si -2.04 -9.73  6.74
Si 10.57 -4.34  3.74
Si -8.69  1.29 -8.26
Si  8.74 -7.52  3.74
Si -1.56 -0.74 -12.00
Si  1.56  0.74 12.00
Si  6.93 -2.38  9.74
Si -2.00  0.74 12.00
Si  2.00 -0.74 -12.00
Si -3.51 -8.26 -8.26
Si -6.84  8.64 -5.26
Si  1.74  7.17  9.74
Si -10.80 -4.34  3.74
Si  1.52 -11.76  3.00
Si -1.52 11.76 -3.00
Si  3.62 -8.26 -8.26
Si  3.52 -10.46 -5.26
Si -1.82  7.17  9.74
Si -3.60 -10.46 -5.26
Si  0.28  2.45 -12.00
Si -0.28 -2.45 12.00
Si 10.86  2.27 -5.26
Si -1.63 11.58  3.74
Si -2.04 -11.76  3.00
Si  2.04 11.76 -3.00
Si  5.09 -5.56  9.74
Si  1.94 11.58  3.74
Si -5.02  7.66 -8.26
Si  0.30 10.78 -6.00
Si -0.30 -10.78  6.00
Si -10.60 -1.96 -6.00
Si 10.60  1.96  6.00
Si 10.58 -6.37  0.00
Si -10.58  6.37  0.00
Si -9.07 -7.52  3.74
Si  9.12  1.29 -8.26
Si -7.32 -2.38  9.74
Si -7.10  8.33  6.00
Si  7.10 -8.33 -6.00
Si 10.77 -1.96 -6.00
Si -10.77  1.96  6.00
Si -12.43  1.05  0.74
Si  7.15  8.33  6.00
Si -7.15 -8.33 -6.00
Si -10.50  6.44 -2.26
Si -10.79 -6.37  0.00
Si 10.79  6.37  0.00
Si  7.40  8.64 -5.26
Si -5.59 -5.56  9.74
Si -10.62 -4.10 -5.26
Si 10.58 -0.17  6.74
Si 12.50  1.05  0.74
Si 10.66 -6.30 -2.26
Si  5.67  7.66 -8.26
Si -0.17  3.92 12.00
Si  0.17 -3.92 -12.00
Si -10.72 -6.30 -2.26
Si -8.89 -7.28 -5.26
Si 10.75 -4.10 -5.26
Si  8.92 -7.28 -5.26
Si  7.03  3.99  9.74
Si  3.29 -2.45 12.00
Si -3.29  2.45 -12.00
Si -6.93 10.60  0.74
Si -5.28  9.38  6.74
Si -5.14 -2.87 -11.26
Si -10.79 -0.17  6.74
Si -0.21 -12.74  0.00
Si  0.21 12.74  0.00
Si  5.40  9.38  6.74
Si -3.26 10.78 -6.00
