500
set: 1138.00  0.00  0.00
Si -0.07  0.05 -0.05
Si  0.09  0.04  2.40
Si -0.01  0.05 -2.47
Si -2.54 -0.05 -0.02
Si  1.31 -2.20  0.06
Si  2.58 -0.05  0.01
Si  1.35  2.23  0.01
Si -1.31 -2.28  0.03
Si -1.32  2.37 -0.02
Si -1.27 -2.19 -2.37
Si -1.34  2.19  2.36
Si -2.51 -0.02 -2.43
Si -1.22 -2.17  2.49
Si  2.54  0.04 -2.45
Si  1.24 -2.28 -2.41
Si  1.23  2.27 -2.43
Si  1.31  2.23  2.42
Si -2.56 -0.05  2.46
Si  1.29 -2.23  2.45
Si  2.63 -0.05  2.43
Si -1.35  2.23 -2.46
Si -3.83 -2.19  0.04
Si  0.09 -4.45  0.00
Si  3.89 -2.21 -0.03
Si -3.89  2.25  0.03
Si -0.07  4.51 -0.04
Si  3.94  2.23  0.01
Si -0.09 -0.01  4.79
Si -0.09 -0.01 -4.91
Si -3.82  2.19 -2.38
Si  3.85  2.22 -2.38
Si -0.04  4.42 -2.46
Si  3.85  2.20  2.43
Si -0.03  4.45  2.40
Si -3.81 -2.27  2.44
Si -3.83 -2.36 -2.38
Si -3.89  2.24  2.39
Si  3.88 -2.16 -2.49
Si  0.01 -4.48  2.43
Si  3.90 -2.29  2.39
Si -0.06 -4.54 -2.39
Si  2.55 -4.46 -0.02
Si -2.59 -4.44  0.05
Si -5.17 -0.01 -0.02
Si  2.54  4.50  0.05
Si  5.18 -0.01 -0.02
Si -2.66  4.48 -0.02
Si  1.27 -2.13 -4.80
Si -1.25  2.22  4.80
Si  1.33  2.20 -4.82
Si  2.60  0.05  4.83
Si -2.61  0.05  4.84
Si  1.27 -2.14  4.91
Si -1.41 -2.27 -4.82
Si -2.61  0.06 -4.86
Si  1.33  2.20  4.89
Si  2.60  0.05 -4.87
Si -1.25  2.22 -4.90
Si -1.41 -2.27  4.88
Si -5.08  0.01  2.38
Si -2.56  4.40  2.45
Si  2.57  4.47  2.41
Si -5.14 -0.04 -2.43
Si -2.57 -4.47  2.41
Si  2.53 -4.49 -2.42
Si -2.51 -4.50 -2.47
Si  2.63  4.44 -2.47
Si -2.69  4.45 -2.42
Si  5.20 -0.04 -2.43
Si  5.27  0.01  2.38
Si  2.65 -4.53  2.45
Si  0.00 -4.41 -4.78
Si  3.91  2.22 -4.82
Si -0.10  4.47 -4.84
Si  3.93 -2.22  4.81
Si -0.10  4.47  4.86
Si  0.00 -4.41  4.93
Si -3.89  2.28 -4.84
Si -3.88 -2.31 -4.84
Si -3.88  2.28  4.86
Si  3.91  2.22  4.88
Si -3.88 -2.31  4.87
Si  3.93 -2.22 -4.90
Si -6.41  2.23  0.01
Si  5.14 -4.43 -0.04
Si -5.12  4.49  0.00
Si  1.32 -6.69  0.03
Si -1.19 -6.71  0.01
Si -6.46 -2.21 -0.03
Si  6.46  2.25  0.03
Si -5.21 -4.43 -0.04
Si -1.32  6.73 -0.03
Si  1.30  6.75  0.04
Si  6.51 -2.19  0.04
Si  5.22  4.49  0.00
Si  2.54 -4.39 -4.82
Si  2.52  4.41  4.84
Si  2.52  4.41 -4.86
Si -5.14  0.06  4.80
Si  2.54 -4.39  4.88
Si  5.21  0.06  4.80
Si -5.14  0.06 -4.90
Si  1.31  6.58 -2.38
Si -2.61 -4.53  4.84
Si  5.08  4.40 -2.39
Si -2.67  4.54 -4.82
Si -2.61 -4.53 -4.86
Si  5.21  0.06 -4.90
Si -2.67  4.54  4.88
Si -1.31  6.65  2.39
Si  1.32  6.67  2.44
Si  1.32 -6.69  2.39
Si  5.15  4.46  2.43
Si -0.01  0.05  7.23
Si -6.44 -2.29  2.39
Si  6.46  2.24  2.39
Si -1.29 -6.72 -2.38
Si -5.16 -4.49  2.40
Si -6.46 -2.16 -2.49
Si  5.18 -4.49  2.40
Si -5.27  4.40 -2.39
Si -5.20  4.46  2.43
Si -6.50  2.22 -2.38
Si -1.28 -6.74  2.43
Si -6.50  2.20  2.43
Si  6.53  2.19 -2.38
Si  5.17 -4.52 -2.46
Si  1.39 -6.75 -2.38
Si -5.18 -4.52 -2.46
Si  0.09  0.04 -7.30
Si  6.52 -2.36 -2.38
Si  6.53 -2.27  2.44
Si -1.33  6.78 -2.49
Si -1.22 -2.17 -7.21
Si  3.89 -6.57 -0.02
Si  3.82  6.66  0.03
Si -2.56 -0.05 -7.24
Si  2.54  0.04  7.25
Si -2.51 -0.02  7.27
Si  1.29 -2.23 -7.25
Si -1.35  2.23  7.24
Si -3.79 -6.71  0.01
Si  1.23  2.27  7.28
Si  1.31  2.23 -7.28
Si  2.62 -0.05 -7.27
Si  1.24 -2.28  7.29
Si -1.27 -2.19  7.33
Si -7.77 -0.05  0.01
Si -1.34  2.19 -7.35
Si -3.90  6.74  0.06
Si  7.81 -0.05 -0.02
Si -7.72 -0.05  2.43
Si -3.82 -6.71  2.42
Si -3.91 -6.67 -2.43
Si  3.86 -6.71 -2.46
Si -3.97  6.66 -2.41
Si  3.86  6.74 -2.37
Si  3.87 -6.75  2.36
Si -3.92  6.70  2.45
Si  7.79 -0.05  2.46
Si -7.81  0.04 -2.45
Si  3.92  6.76  2.49
Si  7.84 -0.02 -2.43
Si  1.25  6.63 -4.84
Si  1.25  6.63  4.87
Si -6.41 -2.22  4.81
Si  5.11 -4.47 -4.84
Si  1.32 -6.66 -4.84
Si -6.44  2.22 -4.82
Si  1.32 -6.66  4.86
Si  5.14  4.53 -4.78
Si  5.11 -4.47  4.86
Si -1.23 -6.71 -4.82
Si -1.28  6.72  4.81
Si -6.41 -2.22 -4.90
Si -6.44  2.22  4.88
Si  6.46  2.28 -4.84
Si -5.21  4.53 -4.78
Si -1.23 -6.71  4.88
Si  6.46 -2.31 -4.84
Si  6.46  2.28  4.86
Si -1.28  6.72 -4.90
Si  6.46 -2.31  4.87
Si -5.24 -4.47 -4.84
Si -5.24 -4.47  4.86
Si  5.14  4.53  4.93
Si  3.88 -2.16  7.21
Si -5.21  4.53  4.93
Si -0.04  4.42  7.25
Si -3.81 -2.27 -7.26
Si  3.85  2.20 -7.28
Si  0.01 -4.48 -7.27
Si -3.82  2.19  7.32
Si -0.03  4.45 -7.30
Si  3.85  2.22  7.32
Si -3.89  2.24 -7.31
Si -3.83 -2.36  7.33
Si  3.90 -2.29 -7.31
Si -0.06 -4.54  7.31
Si -2.56  4.41 -7.25
Si -2.51 -4.50  7.23
Si  2.63  4.44  7.23
Si  7.69  4.48 -0.02
Si -5.14 -0.04  7.28
Si -5.08  0.01 -7.32
Si  2.53 -4.49  7.28
Si  2.57  4.47 -7.29
Si -2.57 -4.47 -7.29
Si -0.03  8.93 -0.02
Si  7.76 -4.44  0.05
Si -2.68  4.45  7.28
Si  0.04 -8.94 -0.02
Si  5.20 -0.04  7.28
Si  2.65 -4.53 -7.25
Si -7.79 -4.46 -0.02
Si -7.80  4.50  0.05
Si  5.27  0.01 -7.32
Si  3.73  6.67 -4.82
Si  3.73  6.67  4.88
Si -3.81 -6.74 -4.82
Si  7.74  0.05  4.84
Si -7.74  0.05  4.83
Si  7.74  0.06 -4.86
Si -7.74  0.05 -4.87
Si -3.81 -6.74  4.89
Si  3.96 -6.71  4.80
Si  7.66  4.45 -2.42
Si  3.96 -6.71 -4.90
Si -3.94  6.80 -4.80
Si -6.46 -6.57 -0.02
Si -0.01  8.90 -2.43
Si -7.72  4.44 -2.47
Si  0.13 -8.93  2.38
Si  0.06  8.94  2.38
Si  2.60  8.88 -0.02
Si -7.70 -4.53  2.45
Si -3.94  6.80  4.91
Si -2.64  8.89  0.01
Si -9.00  2.23  0.01
Si  7.78  4.40  2.45
Si -7.78  4.47  2.41
Si  7.78 -4.47  2.41
Si  0.07 -8.97 -2.43
Si -9.04 -2.20  0.06
Si  9.03 -2.28  0.03
Si -6.53  6.66  0.03
Si  6.45  6.74  0.06
Si  9.02  2.37 -0.02
Si -7.82 -4.49 -2.42
Si -2.56 -8.99  0.01
Si  7.84 -4.50 -2.47
Si  2.67 -8.99 -0.02
Si  6.56 -6.71  0.01
Si  6.37  6.66 -2.41
Si  9.01  2.19  2.36
Si -2.58  8.89  2.43
Si  2.58  8.89  2.46
Si  6.44 -6.67 -2.43
Si  8.99  2.23 -2.46
Si -2.60 -8.90 -2.45
Si  6.42  6.70  2.45
Si  2.63  8.92 -2.43
Si -9.03  2.23  2.42
Si  9.07 -2.19 -2.37
Si -2.51 -8.98  2.43
Si -6.48 -6.75  2.36
Si -9.06 -2.23  2.45
Si -0.07  0.05  9.65
Si -6.49  6.74 -2.37
Si -6.49 -6.71 -2.46
Si -6.43  6.76  2.49
Si  2.70 -8.95 -2.43
Si  6.52 -6.71  2.42
Si -2.67  8.98 -2.45
Si  2.65 -8.99  2.46
Si -9.11 -2.28 -2.41
Si -9.12  2.27 -2.43
Si  9.13 -2.17  2.49
Si -0.07  0.05 -9.75
Si -6.46 -2.16  7.21
Si  5.08  4.40  7.31
Si  1.31  6.58  7.33
Si  1.32  6.67 -7.26
Si  5.15  4.46 -7.27
Si -1.31  6.65 -7.31
Si  1.31 -2.20 -9.65
Si  5.17 -4.52  7.25
Si -5.20  4.46 -7.27
Si -1.33  6.78  7.21
Si -5.18 -4.52  7.25
Si -1.28 -6.74 -7.28
Si -6.50  2.20 -7.28
Si  1.32 -6.69 -7.31
Si -5.16 -4.49 -7.30
Si -6.44 -2.29 -7.31
Si  6.46  2.24 -7.31
Si -2.54 -0.05  9.68
Si  5.18 -4.49 -7.30
Si -1.31 -2.28 -9.67
Si -1.29 -6.72  7.32
Si  6.53 -2.27 -7.26
Si -5.27  4.40  7.31
Si  2.57 -0.05 -9.70
Si  1.35  2.23 -9.69
Si -6.50  2.22  7.32
Si  2.58 -0.05  9.71
Si -2.54 -0.05 -9.72
Si  6.53  2.19  7.32
Si -1.32  2.37  9.68
Si  1.39 -6.75  7.32
Si  1.35  2.23  9.71
Si -1.31 -2.28  9.73
Si  6.52 -2.36  7.33
Si  1.31 -2.20  9.76
Si  0.07 -8.88  4.80
Si -1.32  2.37 -9.72
Si  7.68  4.54 -4.82
Si  0.07 -8.88 -4.90
Si  7.68  4.54  4.88
Si -7.80 -4.39 -4.82
Si  7.73 -4.53  4.84
Si  7.73 -4.53 -4.86
Si -0.00  9.00  4.80
Si -7.82  4.41  4.84
Si -7.80 -4.39  4.88
Si -7.82  4.41 -4.86
Si -0.00  9.00 -4.90
Si  5.14 -8.89 -0.05
Si 10.28  0.05 -0.05
Si -5.21 -8.89 -0.05
Si  5.07  8.98 -0.05
Si  8.94 -2.27 -4.82
Si -10.42  0.05 -0.05
Si -5.28  8.98 -0.05
Si -2.53 -8.89  4.83
Si  8.94 -2.27  4.88
Si -6.38 -6.71  4.80
Si  2.60 -8.88  4.84
Si -2.53 -8.89 -4.87
Si  2.60 -8.88 -4.86
Si -9.02  2.20 -4.82
Si -6.38 -6.71 -4.90
Si -9.07 -2.13 -4.80
Si -9.02  2.20  4.89
Si -5.04 -8.89  2.40
Si  6.41  6.80 -4.80
Si  2.53  8.99  4.84
Si  9.10  2.22  4.80
Si -10.25  0.04  2.40
Si  2.53  8.99 -4.86
Si -2.61  8.99  4.83
Si -9.07 -2.14  4.91
Si -2.61  8.99 -4.87
Si  6.54 -6.74 -4.82
Si  6.41  6.80  4.91
Si -6.62  6.67 -4.82
Si -5.15 -8.88 -2.47
Si  9.10  2.22 -4.90
Si  6.54 -6.74  4.89
Si  5.20 -8.88 -2.47
Si -6.62  6.67  4.88
Si  3.86 -6.71  7.24
Si -7.72 -0.05 -7.27
Si -5.12  8.98  2.40
Si -3.82 -6.71 -7.28
Si -3.91 -6.67  7.28
Si 10.33  0.05 -2.47
Si -3.83 -2.19 -9.66
Si -3.92  6.70 -7.25
Si  5.30 -8.89  2.40
Si  3.92  6.77 -7.21
Si  7.79 -0.05 -7.24
Si  5.12  8.99 -2.47
Si -3.97  6.66  7.29
Si -10.36  0.05 -2.47
Si  3.89 -2.21  9.67
Si -7.81  0.04  7.25
Si -0.07  4.51  9.66
Si -3.89  2.25 -9.67
Si  5.23  8.98  2.40
Si  0.09 -4.45 -9.70
Si  0.09 -4.45  9.70
Si  3.86  6.74  7.33
Si -5.23  8.99 -2.47
Si  7.84 -0.02  7.27
Si -3.83 -2.19  9.74
Si  3.94  2.23 -9.69
Si  3.87 -6.75 -7.35
Si  3.89 -2.21 -9.73
Si 10.44  0.04  2.40
Si  3.94  2.23  9.71
Si -3.89  2.25  9.73
Si -0.07  4.51 -9.74
Si -2.59 -4.44 -9.65
Si  2.54  4.50 -9.65
Si  2.55 -4.46  9.68
Si -5.17 -0.01  9.68
Si  5.18 -0.01  9.68
Si -2.66  4.48  9.68
Si  2.55 -4.46 -9.73
Si -5.17 -0.01 -9.72
Si  5.18 -0.01 -9.72
Si -2.59 -4.44  9.76
Si -2.66  4.48 -9.73
Si  2.54  4.50  9.76
Si -10.26 -4.45  0.00
Si  1.38 -11.13  0.04
Si -1.25 -11.15 -0.03
Si 10.27  4.51 -0.04
Si -9.03 -6.69  0.03
Si -1.27 11.17  0.01
Si  9.02  6.73 -0.03
Si  1.25 11.19  0.03
Si -9.04  6.75  0.04
Si  5.05  8.93  4.79
Si 10.26 -0.01  4.79
Si 10.44 -4.45  0.00
Si  9.15 -6.71  0.01
Si -10.42  4.51 -0.04
Si  5.12 -8.95  4.79
Si  5.05  8.93 -4.91
Si 10.26 -0.01 -4.91
Si -5.22 -8.95  4.79
Si  5.12 -8.95 -4.91
Si -9.04  6.58 -2.38
Si -5.30  8.93  4.79
Si -1.25 -11.10 -2.49
Si  1.32 11.12 -2.38
Si -8.96 -6.75 -2.38
Si  7.66  4.45  7.28
Si -5.22 -8.95 -4.91
Si -7.72  4.44  7.23
Si  9.04  6.65  2.39
Si 10.30  4.42 -2.46
Si -1.36 11.14  2.43
Si -10.44 -0.01  4.79
Si -9.03  6.67  2.44
Si -5.30  8.93 -4.91
Si -1.37 11.15 -2.38
Si -9.02 -6.69  2.39
Si 10.32  4.45  2.40
Si -0.01  8.90  7.28
Si 10.29 -4.54 -2.39
Si  1.25 11.18  2.39
Si -7.70 -4.53 -7.25
Si  7.78  4.41 -7.25
Si -10.33 -4.48  2.43
Si  9.06 -6.72 -2.38
Si -10.44 -0.01 -4.91
Si -10.37  4.45  2.40
Si -1.23 -11.22  2.39
Si 10.36 -4.48  2.43
Si  9.06 -6.74  2.43
Si  9.02  6.78 -2.49
Si  0.13 -8.93 -7.32
Si  1.40 -11.21  2.44
Si  0.07 -8.97  7.28
Si -10.39  4.42 -2.46
Si -7.78  4.47 -7.29
Si  0.06  8.94 -7.32
Si  7.78 -4.47 -7.29
Si  7.84 -4.50  7.23
Si -7.82 -4.49  7.28
Si -10.40 -4.54 -2.39
Si  1.38 -11.29 -2.38
Si  2.58  8.89 -7.24
Si  6.37  6.66  7.29
Si  8.99  2.23  7.24
Si  7.71  8.89  0.01
Si -2.60 -8.90  7.25
Si -2.58  8.89 -7.27
Si -3.83 -11.14  0.06
Si  6.42  6.70 -7.25
Si  6.44 -6.67  7.28
Si -7.75  8.88 -0.02
Si -6.43  6.77 -7.21
Si  5.14 -4.43  9.66
Si  2.63  8.92  7.27
Si -9.03  2.23 -7.28
Si -3.87 11.17  0.01
Si -6.49 -6.71  7.24
Si -9.06 -2.23 -7.25
Si -7.67 -8.99 -0.02
Si  9.01  2.19 -7.35
Si -2.51 -8.98 -7.27
Si  1.32 -6.68 -9.67
Si -6.41  2.23 -9.69
Si  9.13 -2.17 -7.21
Si -5.21 -4.43  9.66
Si -6.46 -2.21  9.67
Si  6.46  2.25 -9.67
Si -6.40  2.23  9.71
Si  2.65 -8.99 -7.24
Si -2.67  8.97  7.25
Si  2.70 -8.95  7.27
Si -1.19 -6.71 -9.69
Si -5.12  4.49 -9.70
Si -1.32  6.73  9.67
Si -5.12  4.49  9.70
Si  6.52 -6.71 -7.28
