500
set: 1617.00  0.00  0.00
Si -0.85  0.20 -0.34
Si  1.50  1.05  0.27
Si  0.27  0.78 -2.40
Si -0.16  1.91  1.77
Si -2.04 -0.94 -1.82
Si -2.53  0.75  1.36
Si -0.33 -2.70 -1.65
Si  2.06  2.19 -1.65
Si -0.02  0.35  3.56
Si -2.12 -1.05  2.81
Si -0.89 -3.84  0.27
Si -1.75  2.55 -2.57
Si  3.74  0.75  1.36
Si  2.13 -2.34 -2.57
Si -0.11 -2.82  2.98
Si -2.18  0.62 -3.61
Si  2.29  2.07  2.98
Si -2.55 -2.98  1.77
Si  1.69 -1.42  3.73
Si  0.35  3.95 -1.82
Si  1.72 -0.54 -4.02
Si  1.35 -4.14  1.36
Si  4.23 -0.94 -1.82
Si  0.27  3.83  2.81
Si -4.77  1.05  0.27
Si -4.21  2.19 -1.65
Si  3.71 -2.98  1.77
Si  4.15 -1.05  2.81
Si -0.52 -0.23 -5.11
Si -2.12 -4.11 -2.40
Si  1.54  5.09 -0.34
Si  1.17  1.49  5.04
Si -3.98  2.07  2.98
Si -4.14 -2.34 -2.57
Si  5.42  0.20 -0.34
Si  4.08  0.62 -3.61
Si -2.19  3.47  3.73
Si  3.03 -4.69 -0.34
Si -3.24 -4.69 -0.34
Si  4.52  2.55 -2.57
Si -0.14  5.64  1.36
Si  1.70 -4.27 -3.61
Si -4.58 -1.42  3.73
Si -4.54 -0.54 -4.02
Si -1.22 -3.40  5.04
Si -2.41 -4.54  3.56
Si  1.13 -2.55  5.65
Si -2.15  4.35 -4.02
Si  4.14 -4.11 -2.40
Si  1.84 -5.83 -1.82
Si -2.38  5.94  0.27
Si -2.87 -1.08 -5.72
Si -6.00  0.78 -2.40
Si  4.08  3.47  3.73
Si -4.92 -4.14  1.36
Si  0.21  5.51 -3.61
Si  5.38 -3.84  0.27
Si  6.11  1.91  1.77
Si -2.75  2.33  5.65
Si  2.66  5.67 -2.40
Si  5.93 -2.70 -1.65
Si  3.40 -1.08 -5.72
Si  2.37  5.24  3.56
Si -0.67 -5.42 -4.02
Si  1.75 -5.94  2.81
Si -0.48  3.81 -5.72
Si -6.43  1.91  1.77
Si  3.86 -4.54  3.56
Si -4.73  5.09 -0.34
Si  6.53  0.78 -2.40
Si  3.52  2.33  5.65
Si -0.51  2.04  6.74
Si  0.04  0.90 -7.03
Si  3.89  5.94  0.27
Si -7.12  0.20 -0.34
Si -3.61  5.67 -2.40
Si  1.87  4.65 -5.11
Si  6.25  0.35  3.56
Si  4.11  4.35 -4.02
Si -4.57 -4.27 -3.61
Si -6.29  0.35  3.56
Si -6.60 -2.70 -1.65
Si -5.10  1.49  5.04
Si -5.92  3.95 -1.82
Si -0.70 -6.30  3.73
Si  2.23  6.80  1.77
Si -0.53 -1.70  7.16
Si  6.16 -2.82  2.98
Si -3.90  5.24  3.56
Si -1.82  7.08 -1.65
Si -4.43 -5.83 -1.82
Si -6.37 -2.82  2.98
Si -6.00  3.83  2.81
Si -0.26 -7.23 -2.57
Si  5.75 -0.23 -5.11
Si -1.59  6.96  2.98
Si -2.91 -5.12 -5.11
Si  7.77  1.05  0.27
Si  2.21 -2.22 -7.21
Si -1.67  2.67 -7.21
Si -2.90 -2.85  6.74
Si  0.64  7.44 -2.57
Si  5.05 -3.40  5.04
Si  6.62  3.95 -1.82
Si -4.51 -5.94  2.81
Si  3.36 -5.12 -5.11
Si -1.75 -0.50 -7.78
Si  1.86  3.19  7.16
Si -5.14 -2.55  5.65
Si  3.37 -2.85  6.74
Si  6.54  3.83  2.81
Si -4.04  6.80  1.77
Si -7.16 -3.84  0.27
Si  1.32 -7.87  1.77
Si -4.40  4.65 -5.11
Si -0.10  0.23  8.19
Si -2.72 -7.59 -1.65
Si  1.01 -5.97 -5.72
Si -2.35 -3.99 -7.03
Si  2.50  1.26 -7.96
Si  6.13  5.64  1.36
Si -6.79 -0.23 -5.11
Si  4.45  7.08 -1.65
Si  3.54 -7.59 -1.65
Si -8.31 -0.94 -1.82
Si -4.06 -2.22 -7.21
Si -2.71  6.38  5.04
Si -2.50 -7.71  2.98
Si -6.40  5.64  1.36
Si  1.91 -1.53  8.37
Si  0.11 -3.62 -7.96
Si  8.32  2.19 -1.65
Si  5.60 -5.42 -4.02
Si  7.62 -4.14  1.36
Si -8.02  2.55 -2.57
Si  3.56  6.38  5.04
Si -3.77  1.26 -7.96
Si  4.67  6.96  2.98
Si  7.95 -1.42  3.73
Si -8.39 -1.05  2.81
Si -8.79  0.75  1.36
Si -6.06  5.51 -3.61
Si  4.60  2.67 -7.21
Si  0.64  4.39 -7.78
Si  7.99 -0.54 -4.02
Si  3.92 -3.99 -7.03
Si  5.79  3.81 -5.72
Si -4.41  3.19  7.16
Si  4.51 -0.50 -7.78
Si  3.77 -7.71  2.98
Si  8.39 -2.34 -2.57
Si  5.76  2.04  6.74
Si  7.44  1.49  5.04
Si  0.20  8.36  3.73
Si -0.36  7.22  5.65
Si -1.04 -9.03  1.36
Si  5.56 -6.30  3.73
Si -8.45  0.62 -3.61
Si -1.96  3.35  8.37
Si  2.99 -8.73  0.27
Si  6.48  5.51 -3.61
Si  2.07 -0.66 -8.99
Si  8.55  2.07  2.98
Si  2.00  1.63  8.94
Si  5.73 -1.70  7.16
Si -3.28 -8.73  0.27
Si  7.81  5.09 -0.34
Si  2.43  5.79 -7.03
Si -1.26 -7.44  5.65
Si  2.74  8.84 -1.82
Si -6.23  0.90 -7.03
Si -4.94 -7.87  1.77
Si -2.56 -0.13  9.11
Si  1.75 -8.99 -2.40
Si -8.82 -2.98  1.77
Si  6.31  0.90 -7.03
Si -0.39 -3.26  8.94
Si  2.66  8.72  2.81
Si -4.35 -1.53  8.37
Si -0.30 -1.82 -9.40
Si  0.64 -9.57 -0.34
Si -6.75  3.81 -5.72
Si -8.39 -4.11 -2.40
Si -7.49 -3.40  5.04
Si  7.39 -2.55  5.65
Si -5.63  7.44 -2.57
Si -6.94 -5.42 -4.02
Si -3.52  8.84 -1.82
Si  2.12 -5.39 -7.78
Si  7.96 -4.27 -3.61
Si  6.00 -7.23 -2.57
Si -2.49 -4.66  8.19
Si -6.77  2.04  6.74
Si -5.26 -5.97 -5.72
Si  3.71 -0.13  9.11
Si  1.88  6.92  6.74
Si -3.61  8.72  2.81
Si -0.70 -9.15 -3.61
Si -8.46  3.47  3.73
Si -3.84  5.79 -7.03
Si  2.29  5.12  8.19
Si -4.20 -0.66 -8.99
Si  4.30  3.35  8.37
Si -6.80 -1.70  7.16
Si -4.27  1.63  8.94
Si  2.66 -8.29  5.04
Si -6.53 -7.23 -2.57
Si  0.24  9.24 -4.02
Si -1.81  4.23 -8.99
Si  2.09  3.07 -9.40
Si -6.97 -6.30  3.73
Si -0.18 -7.11 -7.21
Si 10.01  0.75  1.36
Si  8.11 -5.83 -1.82
Si  3.77 -4.66  8.19
Si -1.38  6.15 -7.96
Si -2.92 -6.58  7.16
Si  1.47 -9.43  3.56
Si  6.17  0.23  8.19
Si -2.34  9.98 -0.34
Si -0.17  4.76  9.11
Si  3.34 -6.58  7.16
Si -8.42  4.35 -4.02
Si  0.98 -7.74  6.74
Si -4.14 -5.39 -7.78
Si -4.52 -8.99 -2.40
Si -3.61 -8.29  5.04
Si  8.02 -5.94  2.81
Si -6.37  0.23  8.19
Si  9.29 -4.69 -0.34
Si -8.68 -4.54  3.56
Si -3.98  5.12  8.19
Si  0.72  7.55 -7.21
Si  6.91  7.44 -2.57
Si  1.31 -5.02  9.11
Si -8.65  5.94  0.27
Si  5.23 -9.03  1.36
Si -0.48 -6.42  8.37
Si -5.63  4.39 -7.78
Si  9.98 -2.98  1.77
Si -0.33 -5.55 -8.99
Si  1.91  8.69 -5.72
Si  5.00 -7.44  5.65
Si -9.51 -4.69 -0.34
Si -4.38  6.92  6.74
Si  0.80 -2.12 10.42
Si  8.14  4.65 -5.11
Si 10.50 -0.94 -1.82
Si -6.16 -3.62 -7.96
Si  8.64  5.24  3.56
Si  3.93  9.98 -0.34
Si -4.17  3.07 -9.40
Si  6.38 -3.62 -7.96
Si  0.01 10.83  0.27
Si -10.48  2.19 -1.65
Si -9.14 -1.08 -5.72
Si 10.41 -1.05  2.81
Si -1.51 10.12  3.56
Si  8.92  5.67 -2.40
Si  2.25 10.53  1.36
Si -8.09  7.08 -1.65
Si -10.25  2.07  2.98
Si -0.55 -10.71 -1.82
Si  4.46  4.23 -8.99
Si -9.02  2.33  5.65
Si -1.22 10.56 -2.40
Si -2.54 -1.52 -10.49
Si  5.91  7.22  5.65
Si -7.86  6.96  2.98
Si -10.41 -2.34 -2.57
Si 10.35  0.62 -3.61
Si -2.02  8.08  7.16
Si -6.07  8.36  3.73
Si -2.01  9.54 -5.11
Si  7.28 -5.97 -5.72
Si -0.15  3.37 -10.49
Si  8.49  6.80  1.77
Si -7.93  2.67 -7.21
Si  7.59 -7.87  1.77
Si -11.04  1.05  0.27
Si -5.63 -9.57 -0.34
Si -4.80 -9.43  3.56
Si  4.89  6.15 -7.96
Si  5.88 -3.26  8.94
Si -8.02 -0.50 -7.78
Si -0.64 -10.83  2.81
Si  6.47  8.36  3.73
Si -3.08  2.77 10.42
Si -1.88  6.52  8.94
Si  3.73 -1.52 -10.49
Si  3.19  2.77 10.42
Si -4.36  8.69 -5.72
Si  0.97 -10.01 -5.11
Si  9.67 -1.08 -5.72
Si  5.97 -1.82 -9.40
Si  8.12  3.19  7.16
Si  6.90  4.39 -7.78
Si  5.57 -9.15 -3.61
Si  2.60 10.40 -3.61
Si -6.63  7.22  5.65
Si  8.48 -2.22 -7.21
Si -4.01 10.53  1.36
Si 10.78  2.55 -2.57
Si  1.52 -8.88 -7.03
Si  1.38 -2.37 -11.10
Si 10.41 -4.11 -2.40
Si -3.06 -10.31 -4.02
Si -4.95 -5.02  9.11
Si  3.21 -10.31 -4.02
Si 10.34  3.47  3.73
Si -3.12 -1.27 11.04
Si  9.79  2.33  5.65
Si  3.15 -1.27 11.04
Si -5.29 -7.74  6.74
Si -10.81 -0.54 -4.02
Si -10.85 -1.42  3.73
Si  4.25  8.08  7.16
Si -3.67 10.40 -3.61
Si -6.57 -1.82 -9.40
Si -6.66 -3.26  8.94
Si  4.26  9.54 -5.11
Si -0.73  3.62 11.04
Si -9.88  5.67 -2.40
Si 10.12 -4.54  3.56
Si -2.50  2.52 -11.10
Si -9.18 -5.12 -5.11
Si 11.69  0.20 -0.34
Si -7.31 -9.03  1.36
Si -9.16 -2.85  6.74
Si  4.76 10.12  3.56
Si -6.03  9.24 -4.02
Si  0.43  8.24  8.37
Si 10.16  5.94  0.27
Si  8.18 -1.53  8.37
Si  6.91 -9.57 -0.34
Si  6.09 -7.11 -7.21
Si -8.62 -3.99 -7.03
Si -5.54  7.55 -7.21
Si -2.69 -6.71 -9.40
Si -2.28 -8.51 -7.96
Si -8.99 -7.59 -1.65
Si  8.77  1.26 -7.96
Si  4.39  6.52  8.94
Si -1.65 11.68  1.77
Si  5.05 10.56 -2.40
Si  6.10  4.76  9.11
Si 10.38  4.35 -4.02
Si -5.47 -2.12 10.42
Si -10.16  5.24  3.56
Si  6.50  9.24 -4.02
Si  3.77  2.52 -11.10
Si -7.53 -7.44  5.65
Si -6.45 -7.11 -7.21
Si -11.18 -4.14  1.36
Si  5.79 -6.42  8.37
Si  9.62 -5.12 -5.11
Si -8.76 -7.71  2.98
Si -6.96 -9.15 -3.61
Si  0.57 11.96 -1.65
Si  3.58 -6.71 -9.40
Si  9.64 -2.85  6.74
Si -8.97  6.38  5.04
Si -10.99  5.09 -0.34
Si  5.94 -5.55 -8.99
Si -6.44  4.76  9.11
Si -10.84 -4.27 -3.61
Si -3.10 -11.19  3.73
Si -8.23  3.35  8.37
Si  3.17 -11.19  3.73
Si  0.80 11.85  2.98
Si -0.88 -1.57 12.12
Si 11.64 -3.84  0.27
Si  8.33 -0.66 -8.99
Si -4.74 -8.88 -7.03
Si  5.72 -10.71 -1.82
Si  8.02 -8.99 -2.40
Si  8.27  1.63  8.94
Si  3.98 -8.51 -7.96
Si -10.70 -5.83 -1.82
Si -0.32 11.26  5.04
Si -1.38 -10.86 -5.72
Si -4.89 -2.37 -11.10
Si  1.34 -6.41 -10.49
Si -2.78 -8.14  8.94
Si -5.30 -10.01 -5.11
Si -1.78  7.96 -9.40
Si -6.59 -5.55 -8.99
Si -10.31  6.80  1.77
Si  3.03  9.28 -7.78
Si -6.25 10.83  0.27
Si  9.81 -7.59 -1.65
Si -6.74 -6.42  8.37
Si  6.28 10.83  0.27
Si -11.37  1.49  5.04
Si  5.63 -10.83  2.81
Si -12.27  0.78 -2.40
Si -3.24  9.28 -7.78
Si  6.99  7.55 -7.21
Si  7.25 -7.74  6.74
Si -1.98 -0.38 -12.42
Si  3.49 -8.14  8.94
Si  8.70  5.79 -7.03
Si  6.12  3.37 -10.49
Si 12.20 -2.70 -1.65
Si -10.78 -5.94  2.81
Si  1.49 -0.41 12.54
Si -7.65  6.15 -7.96
Si  1.15 -12.48 -1.65
Si  8.15  6.92  6.74
Si 12.37  1.91  1.77
Si  8.39 -5.39 -7.78
Si  1.38 -9.54  8.19
Si  0.76 -6.16 11.04
Si -1.59 -7.00 10.42
Si  1.51  3.32 12.12
Si -2.65 -12.12 -2.57
Si  4.62 11.68  1.77
Si -8.83 -0.13  9.11
Si  7.74 -9.43  3.56
Si -10.66  4.65 -5.11
Si  9.25 -8.73  0.27
Si -6.42  3.37 -10.49
Si  9.01  8.84 -1.82
Si  9.83  6.38  5.04
Si  7.07 -2.12 10.42
Si -10.33 -2.22 -7.21
Si  8.93  8.72  2.81
Si -8.08  4.23 -8.99
Si  0.58  9.11 -8.99
Si -6.82 -10.71 -1.82
Si 11.31 -3.40  5.04
Si -8.76 -4.66  8.19
Si  5.54  3.62 11.04
Si -1.45 10.68 -7.03
Si -10.04  1.26 -7.96
Si  7.58 -5.02  9.11
Si -0.27 -10.28 -7.78
Si  3.61 -12.12 -2.57
Si  8.56  5.12  8.19
Si  2.58  1.38 -12.59
Si -1.07 -12.76  1.77
Si -12.18  3.95 -1.82
Si -9.55 -8.73  0.27
Si 10.71  7.08 -1.65
Si  8.36  3.07 -9.40
Si  3.03 12.33 -2.57
Si -0.69  7.66 10.42
Si -12.70  1.91  1.77
Si -11.41 -2.55  5.65
Si -3.24 12.33 -2.57
Si 10.18 -3.99 -7.03
Si 10.04 -7.71  2.98
Si 12.52  0.35  3.56
Si  1.38 -12.60  2.98
Si -1.59 10.01  8.19
Si 12.80  0.78 -2.40
Si -12.55  0.35  3.56
Si 12.02 -0.23 -5.11
Si  0.19 -3.51 -12.59
Si 12.43 -2.82  2.98
Si  4.48  7.96 -9.40
Si -5.84  8.24  8.37
Si  4.29 -0.38 -12.42
Si -6.90 -10.83  2.81
Si -12.27  3.83  2.81
Si -7.49 10.56 -2.40
Si -8.60  9.98 -0.34
Si  8.92 -8.29  5.04
Si -3.69  1.38 -12.59
Si  4.88 -10.86 -5.72
Si  0.41  4.50 -12.42
Si  8.18  8.69 -5.72
Si -10.68  3.19  7.16
Si -4.93 -6.41 -10.49
Si -7.77 10.12  3.56
Si -12.87 -2.70 -1.65
Si -12.64 -2.82  2.98
Si -1.01 -7.26 -11.10
Si 10.78 -0.50 -7.78
Si 10.94  6.96  2.98
Si 10.87  2.67 -7.21
Si -9.79  8.84 -1.82
Si  0.48 -0.02 -13.34
Si -0.11  7.41 -11.10
Si -5.70 11.96 -1.65
Si  5.39 -1.57 12.12
Si  7.23 -10.01 -5.11
Si -9.19 -6.58  7.16
Si -5.47 11.85  2.98
Si -13.38  0.20 -0.34
Si  4.68 -7.00 10.42
Si -4.78 -0.41 12.54
Si -4.75  3.32 12.12
Si  2.22  9.65  9.11
Si -9.88  8.72  2.81
Si -4.88 -9.54  8.19
Si -1.07 -9.91  9.11
Si  9.97 -0.13  9.11
Si  2.49 -1.79 -13.16
Si  6.70  8.24  8.37
