500
set: 1468.00  0.00  0.00
Si -0.01 -0.24 -0.85
Si -0.01 -0.25  1.67
Si -1.24  1.72 -0.93
Si -1.24  1.72  1.59
Si  2.58 -0.45 -0.94
Si -0.13 -2.64 -0.91
Si -2.73 -0.63 -0.99
Si  2.57 -0.45  1.58
Si -0.13 -2.65  1.61
Si -2.73 -0.64  1.53
Si -0.01 -0.24 -3.37
Si  0.27  3.74 -0.94
Si  2.63 -2.80 -0.94
Si -1.24  1.73 -3.45
Si  0.27  3.74  1.57
Si  2.63 -2.80  1.57
Si -0.01 -0.26  4.18
Si -2.85 -3.03 -1.00
Si -0.13 -2.64 -3.43
Si  2.58 -0.44 -3.46
Si -3.95  1.55 -0.98
Si -2.85 -3.04  1.51
Si -2.73 -0.63 -3.51
Si  4.12  1.55 -0.98
Si -3.95  1.55  1.54
Si -1.24  1.71  4.10
Si  2.85  3.51 -1.00
Si  4.12  1.55  1.54
Si -2.50  3.90 -0.91
Si  2.85  3.50  1.51
Si  2.57 -0.46  4.10
Si -2.50  3.89  1.61
Si -0.13 -2.66  4.12
Si -2.73 -0.65  4.04
Si  1.13 -4.82 -0.93
Si  0.27  3.75 -3.46
Si  2.63 -2.79 -3.46
Si  1.13 -4.82  1.59
Si -1.58 -4.99 -0.98
Si -2.85 -3.03 -3.52
Si -1.58 -4.99  1.54
Si  5.33 -0.63 -0.99
Si -3.94  1.56 -3.50
Si  0.26  3.73  4.09
Si  5.33 -0.64  1.53
Si -5.49 -0.45 -0.94
Si  2.63 -2.81  4.09
Si  4.12  1.56 -3.50
Si -5.49 -0.45  1.58
Si  2.85  3.51 -3.52
Si -2.50  3.90 -3.43
Si -2.85 -3.04  4.03
Si -3.95  1.54  4.06
Si -0.00 -0.23 -5.89
Si  4.12  1.54  4.06
Si  1.13 -4.81 -3.45
Si  2.84  3.49  4.03
Si  5.21 -3.03 -1.00
Si  0.21  6.09 -0.94
Si -5.43 -2.80 -0.94
Si -2.50  3.88  4.12
Si  5.21 -3.04  1.51
Si -1.58 -4.98 -3.50
Si  0.21  6.08  1.58
Si -5.43 -2.80  1.57
Si -1.23  1.73 -5.97
Si -5.22  3.51 -1.00
Si  5.34 -0.63 -3.51
Si  1.13 -4.83  4.10
Si -5.22  3.50  1.51
Si -5.49 -0.44 -3.46
Si -0.13 -2.63 -5.95
Si  2.58 -0.43 -5.97
Si -1.58 -5.00  4.06
Si -2.73 -0.62 -6.03
Si  2.97  5.90 -0.99
Si -0.01 -0.26  6.70
Si  5.33 -0.65  4.04
Si  2.97  5.90  1.53
Si -2.37  6.30 -0.85
Si  5.57  3.90 -0.91
Si -5.49 -0.46  4.10
Si -2.38  6.29  1.67
Si -1.24  1.70  6.62
Si  5.57  3.89  1.61
Si  5.22 -3.03 -3.52
Si  0.21  6.10 -3.46
Si -5.43 -2.79 -3.46
Si  0.27  3.76 -5.98
Si  6.83  1.72 -0.93
Si  2.64 -2.78 -5.98
Si  2.57 -0.47  6.62
Si -2.74 -0.65  6.56
Si -0.14 -2.66  6.64
Si -5.22  3.51 -3.52
Si  6.83  1.72  1.59
Si  2.36 -6.78 -0.85
Si -0.36 -7.17 -0.99
Si  5.21 -3.04  4.03
Si -2.85 -3.02 -6.04
Si  0.21  6.08  4.10
Si -0.36 -7.18  1.53
Si -5.43 -2.81  4.09
Si -3.94  1.57 -6.02
Si  2.36 -6.79  1.67
Si  4.12  1.57 -6.02
Si -5.22  3.49  4.03
Si  2.97  5.91 -3.51
Si -2.37  6.30 -3.37
Si -2.49  3.91 -5.95
Si  2.85  3.52 -6.04
Si  0.26  3.72  6.61
Si  5.57  3.90 -3.43
Si  2.63 -2.81  6.61
Si -3.12 -6.99 -0.94
Si  2.96  5.89  4.04
Si  1.13 -4.80 -5.97
Si -2.86 -3.05  6.55
Si -3.12 -6.99  1.58
Si -3.95  1.53  6.57
Si  6.83  1.73 -3.45
Si -5.10  5.90 -0.99
Si  4.11  1.53  6.57
Si -2.38  6.28  4.18
Si  2.36 -6.78 -3.37
Si  5.57  3.88  4.12
Si -5.10  5.90  1.53
Si  2.84  3.49  6.55
Si -1.58 -4.97 -6.02
Si -0.36 -7.17 -3.51
Si  5.34 -0.62 -6.03
Si -2.50  3.88  6.64
Si  8.06 -0.24 -0.85
Si -8.07 -0.24 -0.85
Si -5.49 -0.43 -5.97
Si  6.83  1.71  4.10
Si  8.06 -0.25  1.67
Si  6.49 -4.99 -0.98
Si -8.07 -0.25  1.67
Si -0.37 -7.19  4.04
Si  1.12 -4.84  6.62
Si  2.36 -6.79  4.18
Si  6.48 -4.99  1.54
Si  1.75  8.09 -0.98
Si -3.12 -6.98 -3.46
Si -0.00 -0.22 -8.41
Si -1.58 -5.00  6.57
Si  7.93 -2.64 -0.91
Si  1.75  8.09  1.54
Si  5.33 -0.65  6.56
Si -6.93 -4.82 -0.93
Si  7.93 -2.65  1.61
Si  5.69  6.30 -0.85
Si  5.22 -3.02 -6.04
Si -5.43 -2.78 -5.98
Si  0.21  6.10 -5.97
Si -5.10  5.91 -3.51
Si -6.94 -4.82  1.59
Si  4.94 -6.99 -0.94
Si -5.49 -0.47  6.62
Si  5.69  6.29  1.67
Si -8.20 -2.64 -0.91
Si -3.13 -7.00  4.10
Si -7.80  3.74 -0.94
Si  4.94 -6.99  1.58
Si -5.21  3.52 -6.04
Si  8.06 -0.24 -3.37
Si -1.23  1.74 -8.49
Si -8.07 -0.24 -3.37
Si -8.20 -2.65  1.61
Si -5.10  5.89  4.04
Si -7.80  3.74  1.57
Si -0.12 -2.62 -8.46
Si  2.58 -0.43 -8.49
Si  6.49 -4.98 -3.50
Si -5.71 -6.78 -0.85
Si  5.21 -3.05  6.55
Si -2.37  6.31 -5.89
Si  2.97  5.92 -6.03
Si  0.20  6.07  6.62
Si -2.73 -0.62 -8.54
Si  1.75  8.10 -3.50
Si -5.44 -2.81  6.61
Si -5.71 -6.79  1.67
Si  5.57  3.91 -5.95
Si  7.94 -2.64 -3.43
Si -3.60  8.26 -0.93
Si -5.22  3.49  6.55
Si  8.05 -0.26  4.18
Si -8.08 -0.26  4.18
Si -6.93 -4.81 -3.45
Si  6.48 -5.00  4.06
Si  5.69  6.30 -3.37
Si -3.60  8.25  1.59
Si  8.33  3.74 -0.94
Si  1.75  8.08  4.06
Si -0.01 -0.27  9.22
Si  4.94 -6.98 -3.46
Si  6.83  1.73 -5.97
Si  8.33  3.74  1.57
Si -8.19 -2.64 -3.43
Si  2.36 -6.77 -5.89
Si  0.27  3.76 -8.50
Si  2.96  5.89  6.56
Si -7.80  3.75 -3.46
Si  2.64 -2.78 -8.50
Si  7.93 -2.66  4.12
Si -0.36 -7.16 -6.03
Si -1.24  1.70  9.14
Si -6.94 -4.83  4.10
Si  4.46  8.26 -0.93
Si  5.69  6.28  4.18
Si -5.70 -6.78 -3.37
Si -2.38  6.28  6.70
Si  5.56  3.88  6.64
Si  2.24 -9.18 -0.91
Si  4.94 -7.00  4.10
Si  2.57 -0.47  9.13
Si -9.30  1.72 -0.93
Si -2.74 -0.66  9.08
Si -2.85 -3.01 -8.56
Si  4.46  8.25  1.59
Si -3.94  1.57 -8.53
Si -0.14 -2.67  9.16
Si -8.20 -2.66  4.12
Si -7.80  3.73  4.09
Si  2.23 -9.19  1.61
Si -9.30  1.72  1.59
Si  4.12  1.57 -8.53
Si -0.48 -9.57 -1.00
Si -2.49  3.92 -8.46
Si -3.60  8.27 -3.45
Si  6.82  1.70  6.62
Si  2.85  3.52 -8.56
Si -3.12 -6.97 -5.97
Si -0.48 -9.58  1.51
Si -0.37 -7.19  6.56
Si  8.33  3.75 -3.46
Si -5.71 -6.79  4.18
Si  1.14 -4.80 -8.49
Si  2.35 -6.80  6.70
Si  0.26  3.72  9.13
Si -5.09  5.92 -6.03
Si -3.06 -9.34 -0.94
Si -3.61  8.25  4.10
Si  2.63 -2.82  9.13
Si -3.07 -9.34  1.57
Si -7.86  6.09 -0.94
Si  8.06 -0.23 -5.89
Si -2.86 -3.06  9.07
Si -8.07 -0.23 -5.89
Si -1.57 -4.97 -8.53
Si  8.33  3.73  4.09
Si  4.46  8.27 -3.45
Si -3.95  1.53  9.09
Si  2.24 -9.18 -3.43
Si -7.86  6.08  1.58
Si -9.30  1.73 -3.45
Si  4.11  1.53  9.09
Si  5.34 -0.62 -8.54
Si  0.48 10.04 -1.00
Si -5.48 -0.43 -8.49
Si  2.84  3.48  9.07
Si -3.13 -7.00  6.62
Si  6.49 -4.97 -6.02
Si  0.48 10.04  1.51
Si -5.10  5.89  6.56
Si -0.48 -9.56 -3.52
Si  4.46  8.25  4.10
Si  1.75  8.11 -6.02
Si -2.50  3.87  9.16
Si  7.94 -2.63 -5.95
Si -6.31  8.09 -0.98
Si -9.31  1.71  4.10
Si  8.27  6.09 -0.94
Si  2.23 -9.19  4.12
Si -6.93 -4.80 -5.97
Si  5.69  6.31 -5.89
Si -6.32  8.09  1.54
Si  8.27  6.08  1.58
Si  1.12 -4.84  9.14
Si -0.49 -9.58  4.03
Si -3.06 -9.33 -3.46
Si  9.20 -4.82 -0.93
Si  4.95 -6.97 -5.97
Si -5.43 -2.78 -8.50
Si -8.19 -2.63 -5.95
Si  0.21  6.11 -8.49
Si  5.22 -3.01 -8.56
Si  8.05 -0.26  6.70
Si -8.08 -0.26  6.70
Si  6.48 -5.00  6.57
Si -1.59 -5.01  9.09
Si  9.19 -4.82  1.59
Si -7.79  3.76 -5.98
Si -7.85  6.10 -3.46
Si -2.10 10.28 -0.94
Si  5.33 -0.66  9.08
Si  1.75  8.07  6.57
Si  7.70 -7.17 -0.99
Si -2.10 10.28  1.57
Si -5.21  3.52 -8.56
Si -5.70 -6.77 -5.89
Si  5.00 -9.34 -0.94
Si  7.70 -7.18  1.53
Si -3.07 -9.35  4.09
Si  0.48 10.05 -3.52
Si -5.50 -0.47  9.13
Si  7.93 -2.66  6.64
Si 10.64 -0.45 -0.94
Si  5.00 -9.34  1.57
Si -6.94 -4.84  6.62
Si -7.86  6.08  4.10
Si 10.64 -0.45  1.58
Si -2.37  6.32 -8.41
Si  5.69  6.28  6.70
Si  2.97  5.92 -8.54
Si -3.60  8.27 -5.97
Si  0.48 10.03  4.03
Si  4.94 -7.00  6.62
Si  8.28  6.10 -3.46
Si -6.31  8.10 -3.50
Si -10.80 -0.63 -0.99
Si  5.57  3.92 -8.46
Si -7.80  3.72  6.61
Si -8.20 -2.66  6.64
Si  5.21 -3.06  9.07
Si -9.64 -4.99 -0.98
Si -5.83 -9.18 -0.91
Si -10.80 -0.64  1.53
Si  8.34  3.76 -5.98
Si -0.00 -0.22 -10.92
Si  9.20 -4.81 -3.45
Si  3.20 10.44 -0.91
Si  0.20  6.07  9.13
Si -9.65 -4.99  1.54
Si -5.44 -2.82  9.13
Si -5.83 -9.19  1.61
Si  3.20 10.43  1.61
Si -5.22  3.48  9.07
Si -6.32  8.08  4.06
Si  6.83  1.74 -8.49
Si  2.36 -6.76 -8.41
Si  8.27  6.08  4.10
Si -2.10 10.29 -3.46
Si  7.70 -7.17 -3.51
Si 10.70 -2.80 -0.94
Si -8.43 -7.17 -0.99
Si -5.71 -6.80  6.70
Si  4.46  8.27 -5.97
Si  5.00 -9.33 -3.46
Si -0.36 -7.16 -8.54
Si  2.24 -9.17 -5.95
Si  9.19 -4.83  4.10
Si 10.70 -2.80  1.57
Si -3.61  8.24  6.62
Si -8.43 -7.18  1.53
Si -9.30  1.73 -5.97
Si 10.64 -0.44 -3.46
Si -1.23  1.75 -11.00
Si  2.96  5.88  9.08
Si -2.10 10.27  4.09
Si  8.33  3.72  6.61
Si  7.70 -7.19  4.04
Si -0.12 -2.62 -10.98
Si -10.56  3.90 -0.91
Si  2.58 -0.42 -11.01
Si -0.48 -9.56 -6.04
Si  5.00 -9.35  4.09
Si -10.79 -0.63 -3.51
Si -10.56  3.89  1.61
Si -10.92 -3.03 -1.00
Si  5.56  3.87  9.16
Si -5.83 -9.18 -3.43
Si -2.38  6.27  9.22
Si -9.64 -4.98 -3.50
Si 10.64 -0.46  4.10
Si -2.72 -0.61 -11.06
Si -3.12 -6.97 -8.49
Si -10.92 -3.04  1.51
Si  3.20 10.44 -3.43
Si  4.46  8.24  6.62
Si -3.06 -9.32 -5.98
Si 10.91  3.51 -1.00
Si  6.82  1.70  9.14
Si -4.86 10.44 -0.91
Si -9.31  1.70  6.62
Si -10.80 -0.65  4.04
Si 10.91  3.50  1.51
Si  2.23 -9.20  6.64
Si -5.09  5.92 -8.54
Si 10.70 -2.79 -3.46
Si  0.79 -11.52 -0.98
Si -0.37 -7.20  9.08
Si -9.65 -5.00  4.06
Si -7.85  6.10 -5.97
Si -8.43 -7.17 -3.51
Si -4.87 10.43  1.61
Si -0.49 -9.59  6.55
Si -5.83 -9.19  4.12
Si  0.27  3.77 -11.02
Si  8.06 -0.22 -8.41
Si -8.07 -0.22 -8.41
Si  3.20 10.42  4.12
Si  0.79 -11.53  1.54
Si  2.64 -2.77 -11.02
Si  2.35 -6.81  9.22
Si -0.02 -0.27 11.74
Si  0.48 10.06 -6.04
Si -10.56  3.90 -3.43
Si 10.70 -2.81  4.09
Si -8.43 -7.19  4.04
Si  6.49 -4.97 -8.53
Si -2.84 -3.01 -11.08
Si -3.94  1.58 -11.05
Si -1.25  1.69 11.66
Si -3.07 -9.35  6.61
Si -10.91 -3.03 -3.52
Si  8.28  6.10 -5.97
Si  7.94 -2.62 -8.46
Si  4.12  1.58 -11.05
Si -6.31  8.11 -6.02
Si  1.76  8.11 -8.53
Si  3.50 -11.36 -0.93
Si  5.96 10.28 -0.94
Si -2.49  3.92 -10.98
Si -3.13 -7.01  9.13
Si -7.86  6.07  6.62
Si -2.74 -0.67 11.60
Si  2.57 -0.48 11.65
Si  5.70  6.32 -8.41
Si -6.93 -4.80 -8.49
Si -5.10  5.88  9.08
Si  9.20 -4.80 -5.97
Si  2.85  3.53 -11.08
Si -0.14 -2.67 11.68
Si  5.96 10.28  1.57
Si  0.48 10.03  6.55
Si -10.57  3.88  4.12
Si  3.50 -11.36  1.59
Si 10.91  3.51 -3.52
Si -4.86 10.44 -3.43
Si -10.92 -3.04  4.03
Si  4.95 -6.97 -8.49
Si  1.14 -4.79 -11.00
Si  0.79 -11.52 -3.50
Si -8.19 -2.62 -8.46
Si -2.10 10.29 -5.98
Si  7.71 -7.16 -6.03
Si -7.79  3.76 -8.50
Si 10.91  3.49  4.03
Si -12.01  1.55 -0.98
Si  5.00 -9.32 -5.98
Si -6.32  8.07  6.57
Si -5.70 -6.76 -8.41
Si  8.27  6.07  6.62
Si -12.01  1.55  1.54
Si 10.64 -0.43 -5.97
Si -1.57 -4.96 -11.05
Si -4.87 10.42  4.12
Si -10.44  6.30 -0.85
Si  0.26  3.71 11.65
Si  6.48 -5.01  9.09
Si  8.05 -0.27  9.22
Si  7.58 -9.57 -1.00
Si  0.78 -11.54  4.06
Si -8.08 -0.27  9.22
Si  2.62 -2.83 11.65
Si -4.57 -11.36 -0.93
Si  1.74  8.07  9.09
Si  5.34 -0.61 -11.06
Si -10.44  6.29  1.67
Si -5.48 -0.42 -11.01
Si  7.58 -9.58  1.51
Si  9.19 -4.84  6.62
Si -2.86 -3.06 11.59
Si 12.18  1.55 -0.98
Si -4.57 -11.36  1.59
Si -3.96  1.52 11.61
Si  3.50 -11.35 -3.45
Si 12.18  1.55  1.54
Si -10.79 -0.62 -6.03
Si -5.83 -9.17 -5.95
Si  5.97 10.29 -3.46
Si -2.10 10.26  6.61
Si -3.60  8.28 -8.49
Si -9.64 -4.97 -6.02
Si  7.93 -2.67  9.16
Si  4.11  1.52 11.61
Si  7.70 -7.19  6.56
Si  2.84  3.48 11.59
Si  3.21 10.45 -5.95
Si -6.94 -4.84  9.14
Si 10.42 -6.78 -0.85
Si  8.34  3.76 -8.50
Si  5.00 -9.35  6.61
Si  0.60 12.44 -0.99
Si  5.68  6.27  9.22
Si  4.94 -7.01  9.13
Si 10.64 -0.47  6.62
