500
set: 717.00  0.00  0.00
Si  1.64 -0.47  0.56
Si -1.42 -0.16 -1.08
Si  0.20  0.96 -1.73
Si -1.40  0.69  1.40
Si  0.48 -0.22  2.68
Si -1.05 -2.48 -1.23
Si  0.36  2.31  2.06
Si -0.96  2.93 -0.75
Si -1.61 -2.23  1.65
Si  0.94 -2.82  1.41
Si  2.35  2.17 -1.00
Si  2.06 -0.77 -2.65
Si -0.69 -1.28 -3.22
Si -3.05  1.95 -1.08
Si  3.58 -1.23 -0.42
Si  1.35 -2.78 -2.23
Si  3.40  0.95  1.65
Si  2.24  3.02  1.25
Si -2.34  3.06  1.10
Si  3.59  0.55 -1.76
Si  3.19 -1.57  2.11
Si -2.08  0.35  3.64
Si -4.04 -0.48  1.24
Si -4.15 -0.25 -0.95
Si -3.30 -2.62 -0.77
Si  0.10  1.24 -4.14
Si -2.15  0.03 -3.89
Si  0.71  3.46 -2.76
Si -0.95 -1.92  4.09
Si -1.66  2.96  3.37
Si  2.34  2.00 -3.83
Si  0.18  4.79  1.25
Si -2.17 -4.48  0.26
Si  1.29  4.75 -0.84
Si  1.46 -2.99  3.77
Si  0.65  2.99  4.05
Si  3.17  1.05  3.87
Si  0.18 -5.00  1.25
Si -1.68 -3.41 -3.51
Si -4.59  2.25  0.82
Si  3.37 -3.89  0.80
Si -0.84  4.80 -1.88
Si  3.44 -3.71 -1.39
Si -4.00  1.39  3.12
Si  1.29 -5.05 -0.84
Si  2.27 -0.94  4.68
Si -4.07 -2.98  1.69
Si -0.71 -4.30  3.07
Si -3.54  2.15 -3.39
Si -0.84 -5.00 -1.88
Si -1.21  3.55 -3.97
Si  4.45  3.28 -1.19
Si  2.27 -0.94 -5.12
Si  5.65 -0.25 -0.95
Si  5.21  2.25  0.82
Si -2.17  5.32  0.26
Si  0.10  1.24  5.66
Si  3.41 -2.39 -4.07
Si -3.99 -2.70 -3.30
Si -3.27 -2.11  4.43
Si  5.76 -0.48  1.24
Si  2.34 -4.74  2.67
Si  4.68  0.13 -3.75
Si -0.95 -1.92 -5.71
Si  4.74 -0.80  3.83
Si  2.43 -4.32 -3.70
Si  2.34  5.07  2.67
Si -2.15  0.03  5.91
Si -0.71  5.50  3.07
Si -5.12  0.13 -3.75
Si -6.22 -1.23 -0.42
Si -3.52 -4.79 -2.28
Si -5.35  3.28 -1.19
Si -5.07 -0.80  3.83
Si  0.19 -4.45 -4.61
Si -6.21  0.55 -1.76
Si  0.65  2.99 -5.75
Si -2.08  0.35 -6.16
Si -3.52  5.01 -2.28
Si -4.59  4.40  1.62
Si -2.77 -4.43  4.06
Si -3.27 -2.11 -5.37
Si  5.73 -2.98  1.69
Si -6.39  0.95  1.65
Si  3.42  3.55  4.50
Si  2.34  2.00  5.97
Si  5.80  1.39  3.12
Si -0.69 -1.28  6.58
Si -4.14  3.50  4.09
Si  3.17  1.05 -5.93
Si  0.19 -4.45  5.19
Si  3.37  5.91  0.80
Si  1.46 -2.99 -6.03
Si -1.21  3.55  5.83
Si  0.71 -6.34 -2.76
Si -0.96 -6.87 -0.75
Si  4.12 -3.98  3.99
Si  5.21  4.40  1.62
Si  2.43  5.48 -3.70
Si  6.50 -2.62 -0.77
Si  0.19  5.35 -4.61
Si  3.41 -2.39  5.73
Si  6.75  1.95 -1.08
Si -6.61 -1.57  2.11
Si  3.44  6.09 -1.39
Si  0.48 -0.22 -7.12
Si  4.58  4.38 -3.33
Si  0.94  6.98  1.41
Si  5.81 -2.70 -3.30
Si -2.34 -6.74  1.10
Si  3.42  3.55 -5.30
Si  2.24 -6.78  1.25
Si -4.59 -5.40  1.62
Si -1.66  2.96 -6.43
Si -2.77  5.37  4.06
Si -1.68 -3.41  6.29
Si  6.26  2.15 -3.39
Si  0.19  5.35  5.19
Si  2.06 -0.77  7.15
Si -1.68  6.39 -3.51
Si  1.35  7.02 -2.23
Si -6.36 -3.71 -1.39
Si -1.05  7.32 -1.23
Si -1.21 -6.25 -3.97
Si -6.43 -3.89  0.80
Si -5.22  4.38 -3.33
Si -3.54  2.15  6.41
Si  4.68  0.13  6.05
Si  4.74 -0.80 -5.97
Si  5.21 -5.40  1.62
Si -6.63  1.05  3.87
Si -2.77 -4.43 -5.74
Si  0.36 -7.49  2.06
Si -1.66 -6.84  3.37
Si  5.66  3.50  4.09
Si -7.45  2.17 -1.00
Si  4.58 -5.42 -3.33
Si  2.43 -4.32  6.10
Si -5.07 -0.80 -5.97
Si -4.14  3.50 -5.71
Si  0.71  3.46  7.04
Si -4.00  1.39 -6.68
Si -1.61  7.57  1.65
Si  1.46  6.81  3.77
Si -5.12  0.13  6.05
Si -3.30  7.18 -0.77
Si -6.39 -2.39 -4.07
Si  0.65 -6.81  4.05
Si  4.45 -6.52 -1.19
Si -5.68 -3.98  3.99
Si -0.71 -4.30 -6.73
Si  2.35 -7.63 -1.00
Si  0.36  2.31 -7.74
Si -3.99 -2.70  6.50
Si -4.07  6.83  1.69
Si  0.20  0.96  8.07
Si  7.46  3.06  1.10
Si  4.12 -3.98 -5.81
Si  6.53 -2.11  4.43
Si  4.12  5.82  3.99
Si  1.35 -2.78  7.57
Si -8.16 -0.47  0.56
Si -7.74 -0.77 -2.65
Si  6.28 -4.79 -2.28
Si -5.22 -5.42 -3.33
Si -7.56  3.02  1.25
Si -2.77  5.37 -5.74
Si  6.28  5.01 -2.28
Si  3.42 -6.25  4.50
Si  8.38 -0.16 -1.08
Si  3.19 -1.57 -7.69
Si -3.05 -7.85 -1.08
Si -5.35 -6.52 -1.19
Si  8.40  0.69  1.40
Si  7.72  0.35  3.64
Si -1.40  0.69 -8.40
Si  2.43  5.48  6.10
Si -4.14 -6.30  4.09
Si -6.38  3.55  4.50
Si  7.65  0.03 -3.89
Si -1.61 -2.23 -8.15
Si -7.46  2.00 -3.83
Si -1.21 -6.25  5.83
Si  8.19 -2.23  1.65
Si  6.53 -2.11 -5.37
Si -0.71  5.50 -6.73
Si  5.66  3.50 -5.71
Si -6.43  5.91  0.80
Si -3.99  7.10 -3.30
Si  3.59  0.55  8.04
Si -1.42 -0.16  8.72
Si  7.63 -4.48  0.26
Si  2.34 -4.74 -7.13
Si -4.59 -7.55  0.82
Si  3.42 -6.25 -5.30
Si  3.40  0.95 -8.15
Si  0.94 -2.82 -8.39
Si -6.39 -2.39  5.73
Si -6.36  6.09 -1.39
Si -7.54 -0.94  4.68
Si -0.95  7.88  4.09
Si  0.65 -6.81 -5.75
Si  5.80  1.39 -6.68
Si -6.63  1.05 -5.93
Si -1.05 -2.48  8.57
Si  2.34 -7.80 -3.83
Si  0.20 -8.84 -1.73
Si -6.38  3.55 -5.30
Si -5.68 -3.98 -5.81
Si  2.34  5.07 -7.13
Si -5.68  5.82  3.99
Si  4.58  4.38  6.47
Si  5.73  6.83  1.69
Si  3.19  8.23  2.11
Si -3.54 -7.65 -3.39
Si  3.41  7.41 -4.07
Si -1.68  6.39  6.29
Si  5.81 -2.70  6.50
Si -0.69  8.52 -3.22
Si -7.54 -0.94 -5.12
Si -8.45 -2.78 -2.23
Si  8.75 -2.48 -1.23
Si  4.12  5.82 -5.81
Si  1.46  6.81 -6.03
Si  6.26  2.15  6.41
Si  5.21 -7.55  0.82
Si -7.46 -4.74  2.67
Si  7.03 -4.43  4.06
Si  8.14  2.96  3.37
Si  3.58  8.57 -0.42
Si -0.84  4.80  7.92
Si  7.63  5.32  0.26
Si -7.37 -4.32 -3.70
Si -1.40 -9.11  1.40
Si  2.24  3.02 -8.55
Si  8.84  2.93 -0.75
Si  2.35  2.17  8.80
Si -5.22  4.38  6.47
Si  1.64 -0.47 -9.24
Si -0.84 -5.00  7.92
Si -7.46  5.07  2.67
Si  5.66 -6.30  4.09
Si -8.87 -2.82  1.41
Si -3.05  1.95  8.72
Si -3.27  7.69  4.43
Si -4.14 -6.30 -5.71
Si -4.04 -0.48 -8.56
Si  8.12 -3.41 -3.51
Si  1.64  9.33  0.56
Si  0.71 -6.34  7.04
Si  0.10 -8.56 -4.14
Si -2.34  3.06 -8.70
Si -1.66 -6.84 -6.43
Si -4.07 -2.98 -8.11
Si -0.96  2.93  9.05
Si -3.52 -4.79  7.52
Si  4.58 -5.42  6.47
Si  3.40 -8.85  1.65
Si -8.34 -2.99  3.77
Si  2.06  9.03 -2.65
Si  7.65  0.03  5.91
Si -9.31 -0.22  2.68
Si -3.52  5.01  7.52
Si  6.50  7.18 -0.77
Si  7.03  5.37  4.06
Si  9.11 -1.28 -3.22
Si  5.81  7.10 -3.30
Si -7.46  2.00  5.97
Si -0.95  7.88 -5.71
Si -4.15 -0.25  8.85
Si -8.51  4.75 -0.84
Si -9.60  0.96 -1.73
Si -1.42  9.64 -1.08
Si  0.18  4.79 -8.55
Si  3.44 -3.71  8.41
Si -4.00 -8.41  3.12
Si  7.72  0.35 -6.16
Si -7.37  5.48 -3.70
Si  0.18 -5.00 -8.55
Si -5.22 -5.42  6.47
Si -8.51 -5.05 -0.84
Si  8.85 -1.92  4.09
Si -9.44  2.31  2.06
Si -3.27  7.69 -5.37
Si  0.48  9.58  2.68
Si -3.30 -2.62  9.03
Si  3.41  7.41  5.73
Si -5.68  5.82 -5.81
Si -6.38 -6.25  4.50
Si  3.17 -8.74  3.87
Si  3.59 -9.25 -1.76
Si  2.34 -7.80  5.97
Si  7.03 -4.43 -5.74
Si -9.09  3.46 -2.76
Si  8.59  3.55 -3.97
Si  7.46 -6.74  1.10
Si  3.58 -1.23  9.38
Si -1.42 -9.96 -1.08
Si -6.21  0.55  8.04
Si 10.00  0.96 -1.73
Si  5.66 -6.30 -5.71
Si  1.29  4.75  8.96
Si  4.45  3.28  8.61
Si -7.56 -6.78  1.25
Si -4.04  9.32  1.24
Si -6.61 -1.57 -7.69
Si  0.10 -8.56  5.66
Si  2.27  8.86  4.68
Si -4.59  2.25 -8.97
Si  5.76 -0.48 -8.56
Si -2.08 -9.45  3.64
Si  8.96  4.80 -1.88
Si  3.37 -3.89 -9.00
Si -4.59  4.40 -8.18
Si  1.29 -5.05  8.96
Si  5.73 -2.98 -8.11
Si -6.38 -6.25 -5.30
Si  0.48 -10.02  2.68
Si -6.39  0.95 -8.15
Si  6.75 -7.85 -1.08
Si  1.35  7.02  7.57
Si  1.64 -10.27  0.56
Si -3.99  7.10  6.50
Si  8.96 -5.00 -1.88
Si -9.15  2.99  4.05
Si -4.15  9.55 -0.95
Si  6.26 -7.65 -3.39
Si  2.27  8.86 -5.12
Si -7.37 -4.32  6.10
Si  1.64 -0.47 10.36
Si  5.65 -0.25  8.85
Si  9.09 -4.30  3.07
Si  7.03  5.37 -5.74
Si -7.74 -0.77  7.15
Si -3.54 -7.65  6.41
Si -6.22  8.57 -0.42
Si -6.39  7.41 -4.07
Si  5.21  2.25 -8.97
Si 10.16  2.31  2.06
Si -9.70  1.24 -4.14
Si 10.29 -0.22  2.68
Si  5.21  4.40 -8.18
Si -5.35  3.28  8.61
Si -1.40 10.49  1.40
Si  5.80 -8.41  3.12
Si  8.85 -1.92 -5.71
Si -7.45 -7.63 -1.00
Si -8.34 -2.99 -6.03
Si -2.15 -9.77 -3.89
Si -2.17 -4.48 -9.54
Si -6.61  8.23  2.11
Si  0.36 -7.49 -7.74
Si  8.14  2.96 -6.43
Si -0.69  8.52  6.58
Si -2.15  9.83 -3.89
Si  9.90  1.24 -4.14
Si  8.12 -3.41  6.29
Si -4.59 -5.40 -8.18
Si -9.62  4.79  1.25
Si  4.74  9.00  3.83
Si  3.58 -1.23 -10.22
Si  0.20 10.76 -1.73
Si  6.28 -4.79  7.52
Si  8.12  6.39 -3.51
Si -4.15 -10.05 -0.95
Si -9.62 -5.00  1.25
Si  3.44  6.09  8.41
Si  0.94  6.98 -8.39
Si -1.42 -0.16 -10.88
Si  8.59  3.55  5.83
Si -2.08 10.15  3.64
Si -0.96  2.93 -10.55
Si  6.28  5.01  7.52
Si -5.07  9.00  3.83
Si  6.53  7.69  4.43
Si -7.37  5.48  6.10
Si  5.76  9.32  1.24
Si  3.17 -8.74 -5.93
Si -6.39 -8.85  1.65
Si -10.49 -1.28 -3.22
Si  9.09  5.50  3.07
Si  3.59 10.35 -1.76
Si  2.06 -10.57 -2.65
Si  5.21 -5.40 -8.18
Si -4.04 -10.28  1.24
Si  5.65  9.55 -0.95
Si -2.17  5.32 -9.54
Si  2.24 -6.78 -8.55
Si  9.98  4.79  1.25
Si  8.14 -6.84  3.37
Si -10.76  2.93 -0.75
Si -6.36 -3.71  8.41
Si 10.73 -2.82  1.41
Si -10.85 -2.48 -1.23
Si  6.75  1.95  8.72
Si -8.45  7.02 -2.23
Si -9.15  2.99 -5.75
Si -2.17 -4.48 10.06
Si  8.84 -6.87 -0.75
Si  9.98 -5.00  1.25
Si -1.61  7.57 -8.15
Si  5.81  7.10  6.50
Si -2.34 -6.74 -8.70
Si  2.35  2.17 -10.80
Si  8.19  7.57  1.65
Si -11.22 -0.16 -1.08
Si  3.37  5.91 -9.00
Si -6.21 -9.25 -1.76
Si -9.70  1.24  5.66
Si -1.40  0.69 11.20
Si  9.11 -1.28  6.58
Si -11.20  0.69  1.40
Si -6.22 -1.23  9.38
Si -1.05  7.32  8.57
Si  8.59 -6.25 -3.97
Si -6.39  7.41  5.73
Si -1.05 -2.48 -11.03
Si -7.46 -4.74 -7.13
Si -4.07  6.83 -8.11
Si -8.87  6.98  1.41
Si  4.68 -9.67 -3.75
Si -3.30 -2.62 -10.57
Si  3.40 10.75  1.65
Si -0.96 -6.87  9.05
Si -8.34  6.81  3.77
Si 10.52  3.46 -2.76
Si -9.09 -6.34 -2.76
Si  6.50 -2.62  9.03
Si  6.53  7.69 -5.37
Si -7.46 -7.80 -3.83
Si 11.44 -0.47  0.56
Si -4.00 -8.41 -6.68
Si -3.05  1.95 -10.88
Si  9.90  1.24  5.66
Si -2.08 -9.45 -6.16
Si  8.75  7.32 -1.23
Si -7.46  5.07 -7.13
Si -4.15 -0.25 -10.75
Si -9.61 -4.45 -4.61
Si -0.69 -11.08 -3.22
Si -2.34  3.06 10.90
Si -5.12 -9.67 -3.75
Si  5.65 -10.05 -0.95
Si  0.20  0.96 -11.53
Si -2.17  5.32 10.06
Si 10.45  2.99  4.05
Si  0.94 -2.82 11.21
Si  3.58 -11.03 -0.42
Si  4.68  9.93 -3.75
Si -2.15 -9.77  5.91
Si -6.63 -8.74  3.87
Si -10.76 -1.92  4.09
Si -2.15  9.83  5.91
Si  2.24  3.02 11.05
Si  4.45 -6.52  8.61
Si -8.45 -2.78  7.57
Si  2.06  9.03  7.15
Si 11.15 -2.78 -2.23
Si  3.19  8.23 -7.69
Si -6.43 -3.89 -9.00
Si  1.29  4.75 -10.64
Si -9.31 -0.22 -7.12
Si -7.45  2.17  8.80
Si -11.41 -2.23  1.65
Si -4.04 -0.48 11.04
Si -10.51 -4.30  3.07
Si -1.61 -2.23 11.45
Si  8.19 -2.23 -8.15
Si  6.26 -7.65  6.41
Si  3.37 -3.89 10.60
Si -5.12  9.93 -3.75
Si -4.59  2.25 10.62
Si  0.10 11.04 -4.14
Si  4.74  9.00 -5.97
Si -9.61 -4.45  5.19
Si -7.56  3.02 -8.55
Si -10.64  4.80 -1.88
Si  5.76 -10.28  1.24
Si  1.29 -5.05 -10.64
Si  7.46  3.06 -8.70
Si  9.99 -4.45 -4.61
Si  2.35 -7.63  8.80
Si  8.40  0.69 -8.40
Si -10.64 -5.00 -1.88
Si -9.61  5.35 -4.61
Si -5.07  9.00 -5.97
Si  2.27 -10.74  4.68
Si  0.48  9.58 -7.12
Si  3.17 10.86  3.87
Si  0.20 -8.84  8.07
Si  3.40  0.95 11.45
Si -3.30  7.18  9.03
Si  3.19 -11.37  2.11
Si -9.09  3.46  7.04
Si -6.22 -1.23 -10.22
Si  5.21  2.25 10.62
Si  0.18  4.79 11.05
Si  5.73  6.83 -8.11
Si -5.35 -6.52  8.61
Si -2.08 10.15 -6.16
