500
set: 867.00  0.00  0.00
Si  0.43 -1.20  0.84
Si -0.44  1.23 -0.83
Si -1.37 -1.21 -0.84
Si  1.38  1.22  0.84
Si  0.89 -0.00 -2.51
Si  2.22 -1.21 -0.84
Si -0.91 -0.00  2.51
Si -2.24  1.22  0.85
Si  0.04  2.42  2.50
Si  3.15  1.21 -0.84
Si -3.17 -1.22  0.83
Si -0.04 -2.43 -2.52
Si -2.69 -0.00 -2.51
Si  2.69  0.01  2.52
Si  0.52  3.63 -0.83
Si -0.51 -3.64  0.84
Si -1.74  2.43 -2.50
Si  1.76 -2.43  2.51
Si -1.27  3.63  0.84
Si -1.85 -2.42  2.51
Si  1.85  2.42 -2.51
Si  1.28 -3.65 -0.84
Si -0.89  0.01 -4.19
Si -4.02  1.21 -0.85
Si  0.90  0.00  4.19
Si  4.04 -1.22  0.83
Si -2.31 -3.65 -0.83
Si  2.32  3.64  0.84
Si  3.06 -3.65  0.82
Si  0.04  2.42 -4.20
Si -3.09  3.65 -0.84
Si -0.04 -2.44  4.20
Si  3.55 -2.41 -2.51
Si  2.69 -0.01 -4.19
Si -2.71  0.01  4.19
Si -3.55  2.45  2.52
Si  3.65  2.42  2.51
Si -3.65 -2.43 -2.53
Si  1.75 -2.42 -4.17
Si -4.50 -0.02  2.51
Si  4.49  0.00 -2.53
Si -1.76  2.44  4.19
Si -4.95 -1.21 -0.86
Si -1.85 -2.42 -4.18
Si  1.85  2.42  4.19
Si  4.98  1.21  0.84
Si -0.82  4.85 -2.53
Si  0.82 -4.86  2.51
Si  4.11  3.63 -0.84
Si -0.97 -4.86 -2.51
Si -4.10 -3.65  0.84
Si  0.97  4.86  2.51
Si  3.55 -2.42  4.17
Si -5.81  1.21  0.84
Si -3.56  2.43 -4.18
Si  0.43 -1.22 -5.87
Si -0.44  1.22  5.87
Si  5.83 -1.21 -0.86
Si  2.60 -4.85 -2.51
Si -3.63 -2.42  4.19
Si  3.64  2.42 -4.19
Si -2.62  4.84  2.52
Si -4.48 -0.01 -4.18
Si -0.34  6.06  0.83
Si  4.87 -3.63 -0.84
Si  2.78  4.85 -2.52
Si -2.78 -4.86  2.50
Si  1.37  1.20 -5.86
Si -1.37 -1.22  5.86
Si  0.33 -6.07 -0.84
Si  4.49 -0.01  4.19
Si -4.90  3.63  0.82
Si -1.45 -6.06  0.84
Si  1.46  6.07 -0.84
Si -2.21  1.22 -5.86
Si  2.22 -1.22  5.87
Si  5.34 -2.43  2.52
Si -5.36  2.43 -2.51
Si  5.43  2.43 -2.51
Si -0.80  4.86  4.19
Si  0.81 -4.86 -4.19
Si -5.44 -2.43  2.52
Si -0.98 -4.85  4.19
Si  0.97  4.86 -4.18
Si -2.13  6.07 -0.86
Si  2.15 -6.07  0.84
Si -3.17 -1.20 -5.87
Si  6.29 -0.02  2.51
Si -6.30  0.00 -2.53
Si  3.16  1.22  5.88
Si -6.75 -1.22  0.83
Si  2.62 -4.84  4.18
Si -3.26 -6.04 -0.83
Si -0.51 -3.64 -5.86
Si  6.77  1.21 -0.85
Si  0.52  3.65  5.87
Si -2.61  4.86 -4.19
Si  3.26  6.08  0.84
Si  5.89  3.63  0.82
Si  2.79  4.84  4.20
Si -5.92 -3.63 -0.84
Si -2.78 -4.86 -4.20
Si  4.41 -4.83  2.52
Si -1.29  3.65 -5.86
Si  1.27 -3.65  5.87
Si -4.41  4.87 -2.51
Si -4.57 -4.85 -2.50
Si  4.58  4.85  2.51
Si -5.34  2.44  4.18
Si  5.35 -2.42 -4.19
Si -4.03  1.22  5.86
Si  4.03 -1.20 -5.87
Si -3.92  6.05  0.83
Si -2.30 -3.63  5.87
Si -5.44 -2.42 -4.19
Si  2.32  3.64 -5.86
Si  5.45  2.44  4.18
Si  3.94 -6.07 -0.85
Si -3.07  3.63  5.88
Si -6.30 -0.01  4.19
Si  3.08 -3.65 -5.87
Si  6.31 -0.01 -4.18
Si -6.68  3.63 -0.84
Si -0.44  1.22 -7.54
Si  0.44 -1.22  7.55
Si  6.69 -3.65  0.84
Si -0.14 -7.27  2.52
Si  0.14  7.28 -2.51
Si  1.37  1.21  7.54
Si  7.62 -1.22  0.83
Si -4.41  4.85  4.17
Si  4.40 -4.85 -4.18
Si -7.63  1.21 -0.84
Si -1.37 -1.22 -7.55
Si -4.97 -1.21  5.88
Si  4.97  1.22 -5.89
Si -1.67  7.26  2.51
Si  4.58  4.86 -4.17
Si -4.58 -4.84  4.19
Si  1.67 -7.28 -2.53
Si  1.92  7.28  2.51
Si  5.05  6.07 -0.84
Si -1.93 -7.28 -2.51
Si -5.06 -6.06  0.85
Si -2.24  1.21  7.53
Si -7.14  2.42  2.51
Si  7.14 -2.43 -2.53
Si  2.23 -1.22 -7.55
Si  4.10  3.63  5.87
Si -7.24 -2.41 -2.51
Si -4.12 -3.63 -5.86
Si  7.24  2.45  2.52
Si -6.20  4.85  2.51
Si  6.22 -4.85 -2.50
Si  3.17  1.21 -7.54
Si -3.16 -1.21  7.56
Si  5.82 -1.21  5.88
Si -5.82  1.22 -5.89
Si  5.72 -6.06  0.85
Si -6.38 -4.83  2.52
Si -5.74  6.07 -0.84
Si  0.51  3.64 -7.54
Si -0.52 -3.64  7.55
Si  0.12  7.29  4.19
Si -0.14 -7.29 -4.19
Si  6.38  4.87 -2.51
Si -3.47  7.28 -2.53
Si -0.34  6.08 -5.87
Si -4.88  3.63 -5.87
Si  0.34 -6.06  5.88
Si  3.46 -7.30  2.51
Si  1.28 -3.63 -7.54
Si -1.27  3.64  7.55
Si  4.89 -3.65  5.88
Si  8.10 -0.00 -2.51
Si -8.10  0.01  2.52
Si -1.66  7.27 -4.18
Si  3.72  7.28 -2.51
Si  1.46  6.06  5.86
Si -0.60 -8.49 -0.84
Si  7.70  3.65 -0.84
Si -3.73 -7.28  2.51
Si  0.59  8.50  0.85
Si -1.45 -6.08 -5.86
Si  1.67 -7.29  4.19
Si -7.73 -3.65  0.82
Si -1.19  8.49 -0.85
Si -1.92 -7.28  4.19
Si  1.94  7.29 -4.19
Si -4.03  1.21 -7.54
Si  1.21 -8.50  0.83
Si  4.02 -1.21  7.55
Si -7.15  2.42 -4.19
Si  7.16 -2.42  4.19
Si  8.55  1.22  0.85
Si  2.31  3.64  7.55
Si -8.56 -1.21 -0.84
Si -7.23 -2.42  4.17
Si -2.32 -3.64 -7.54
Si  7.23  2.43 -4.18
Si -2.14  6.07  5.88
Si  2.14 -6.06 -5.89
Si -2.40 -8.48  0.84
Si  2.39  8.51 -0.83
Si  3.08 -3.64  7.53
Si -3.08  3.62 -7.54
Si  6.21 -4.84  4.19
Si -6.21  4.86 -4.17
Si -6.75 -1.20 -5.87
Si  6.76  1.22  5.86
Si -2.98  8.48  0.84
Si  6.38  4.85  4.17
Si -6.38 -4.85 -4.18
Si -3.26 -6.06  5.87
Si  3.01 -8.49 -0.86
Si  3.26  6.06 -5.87
Si -3.47  7.27  4.19
Si  5.90  3.63 -5.87
Si -5.89 -3.65  5.88
Si  3.48 -7.29 -4.18
Si  8.08  0.01  4.19
Si -4.96 -1.19 -7.54
Si  4.96  1.23  7.54
Si -8.10 -0.01 -4.19
Si -3.72 -7.27 -4.19
Si -6.85 -6.07 -0.85
Si  6.86  6.05  0.83
Si  3.73  7.28  4.19
Si -8.47  3.64  0.84
Si  0.91  0.00 -9.21
Si  8.48 -3.65 -0.83
Si -0.90 -0.01  9.23
Si  3.93 -6.06  5.86
Si -3.93  6.08 -5.87
Si  4.10  3.65 -7.54
Si -4.10 -3.64  7.55
Si  5.27 -7.28 -2.51
Si -5.27  7.29  2.52
Si -5.51 -7.28 -2.51
Si  5.52  7.29  2.52
Si -4.20 -8.48 -0.84
Si  4.20  8.50  0.84
Si -9.41  1.22  0.84
Si  0.04  2.43  9.21
Si  9.42 -1.21 -0.84
Si -0.04 -2.42 -9.22
Si -8.93  2.42 -2.51
Si  8.94 -2.42  2.51
Si  6.67 -3.63 -5.86
Si -2.69 -0.01 -9.21
Si  5.82 -1.19 -7.54
Si  2.69 -0.01  9.22
Si -6.69  3.63  5.87
Si -5.82  1.23  7.54
Si -9.03 -2.43  2.51
Si -4.88  3.64  7.53
Si  0.35 -6.07 -7.54
Si  7.53 -6.04 -0.83
Si  1.74 -2.44  9.21
Si  7.62 -1.20 -5.87
Si  8.00 -4.86  2.50
Si  9.04  2.43 -2.50
Si -8.01  4.85 -2.52
Si -1.75  2.42 -9.22
Si  4.88 -3.66 -7.54
Si -0.33  6.07  7.56
Si -7.62  1.22  5.88
Si  1.84  2.44 -9.21
Si -1.85 -2.40  9.22
Si -7.53  6.08  0.84
Si -1.46 -6.07  7.54
Si -4.81  8.48 -0.84
Si  4.80 -8.49  0.83
Si  1.46  6.06 -7.55
Si -5.04 -6.06 -5.86
Si  8.17  4.84  2.52
Si  5.05  6.06  5.87
Si -8.18 -4.85 -2.51
Si  2.14 -6.05  7.54
Si  5.25 -7.27  4.19
Si -5.27  7.27 -4.19
Si -2.14  6.09 -7.54
Si  0.72 -9.69 -2.51
Si  5.51  7.27 -4.19
Si -5.53 -7.27  4.19
Si -0.73  9.73  2.52
Si -1.07 -9.71  2.51
Si  1.08  9.71 -2.50
Si -3.54  2.43  9.20
Si  8.94 -2.42 -4.18
Si -8.94  2.42  4.19
Si  3.57 -2.43 -9.21
Si  6.76  1.21 -7.54
Si -3.65 -2.42 -9.20
Si  9.88 -0.00  2.51
Si -5.74  6.06  5.87
Si  3.64  2.42  9.22
Si  5.75 -6.06 -5.86
Si -9.89 -0.00 -2.51
Si -6.77 -1.21  7.55
Si -3.26 -6.06 -7.54
Si  9.51  3.63  0.84
Si -9.51 -3.65 -0.84
Si  3.27  6.06  7.55
Si  5.90  3.64  7.53
Si -9.04 -2.42 -4.17
Si -8.00  4.84  4.20
Si  9.03  2.44  4.19
Si -5.91 -3.66 -7.54
Si  4.47 -0.01 -9.23
Si  8.01 -4.86 -4.20
Si -4.50  0.01  9.22
Si  0.61  8.49 -5.86
Si -2.53  9.71 -2.51
Si -0.60 -8.50  5.87
Si  2.52 -9.71  2.52
Si -7.71 -3.65 -5.87
Si  7.72  3.63  5.88
Si -8.17 -4.84  4.18
Si  1.21 -8.48 -5.87
Si  8.17  4.86 -4.19
Si -1.20  8.50  5.86
Si  5.98  8.48 -0.84
Si  2.87  9.70  2.50
Si -5.99 -8.49  0.83
Si -2.87 -9.71 -2.52
Si -0.82  4.86 -9.20
Si  7.05 -7.28  2.51
Si  3.93 -6.07 -7.54
Si -7.07  7.28 -2.51
Si  0.81 -4.85  9.22
Si -8.56 -1.22  5.87
Si -0.98 -4.84 -9.21
Si  8.57  1.22 -5.86
Si -3.94  6.07  7.55
Si 10.35  1.23 -0.83
Si -10.36 -1.20  0.84
Si  0.98  4.87  9.22
Si  0.73 -9.70  4.17
Si -8.63 -6.07  0.84
Si -0.73  9.71 -4.18
Si -2.39 -8.49 -5.87
Si  2.39  8.50  5.87
Si  8.66  6.07 -0.86
Si -1.08 -9.70 -4.17
Si  7.32  7.28 -2.53
Si  1.07  9.71  4.19
Si -7.32 -7.30  2.51
Si -6.68  3.65 -7.54
Si  6.69 -3.64  7.55
Si -2.61  4.85  9.21
Si -9.88  0.00  4.19
Si  9.90  0.01 -4.19
Si  2.99 -8.49  5.88
Si  2.62 -4.86 -9.22
Si -2.99  8.49 -5.89
Si -2.78 -4.84  9.21
Si  6.59 -8.48 -0.84
Si -6.58  8.50  0.84
Si -7.62  1.21 -7.54
Si  2.79  4.86 -9.22
Si  7.63 -1.21  7.56
Si  2.52 -9.70 -4.19
Si -6.85 -6.06  5.86
Si -2.52  9.72  4.18
Si  6.86  6.08 -5.87
Si -4.32  9.70  2.51
Si -5.06 -6.07  7.53
Si  5.06  6.06 -7.55
Si -0.90 -0.01 -10.88
Si  4.31 -9.71 -2.53
Si  5.35 -2.43  9.21
Si -10.27  3.63 -0.83
Si -8.47  3.64 -5.86
Si -5.34  2.42 -9.22
Si  0.91  0.00 10.90
Si  8.48 -3.63  5.87
Si 10.28 -3.64  0.84
Si  2.87  9.70 -4.20
Si -0.27 10.93 -0.84
Si -5.43 -2.43  9.21
Si  0.23 -10.93  0.82
Si -2.87 -9.72  4.20
Si -7.06  7.28  4.19
Si  7.07 -7.27 -4.19
Si  5.45  2.42 -9.22
Si  1.55 10.91  0.84
Si -4.68 -9.70  2.51
Si  4.68  9.70 -2.51
Si -1.54 -10.93 -0.84
Si  4.20  8.48 -5.86
Si -2.08 10.91  0.82
Si  2.04 -10.91 -0.84
Si  7.32  7.27  4.19
Si -7.31 -7.29 -4.18
Si -4.20 -8.49  5.86
Si -9.41  1.20 -5.86
Si  6.28  0.01  9.22
Si  9.42 -1.22  5.86
Si -0.04 -2.42 10.89
Si  9.34 -6.06  0.84
Si -9.33  6.07 -0.84
Si  0.04  2.43 -10.90
Si -6.31 -0.01 -9.23
Si  2.69 -0.01 -10.89
Si -2.69 -0.01 10.90
Si -9.81  4.86  2.51
Si  9.82 -4.86 -2.51
Si  5.72 -6.07  7.53
Si -5.73  6.06 -7.55
Si -1.75  2.42 10.89
Si -10.74  2.42  2.50
Si 10.74 -2.43 -2.52
Si  4.42 -4.85  9.20
Si  1.74 -2.44 -10.90
Si -4.39  4.84 -9.21
Si -1.85 -2.40 -10.89
Si  7.52 -6.06  5.87
Si -7.53  6.06 -5.87
Si 11.22 -1.20  0.84
Si  1.84  2.44 10.90
Si -11.22  1.23 -0.83
Si  0.59  8.48  7.53
Si  9.96  4.85 -2.53
Si  4.57  4.84  9.21
Si -9.97 -4.86  2.51
Si -7.71 -3.64  7.53
Si  4.79 -8.48 -5.87
Si 10.83  2.42  2.50
Si  7.71  3.62 -7.54
Si -0.59 -8.50 -7.55
Si -10.83 -2.43 -2.52
Si -4.58 -4.85 -9.22
Si -4.80  8.49  5.88
Si -1.20  8.48 -7.54
Si -4.33  9.70 -4.19
Si  1.19 -8.49  7.55
Si  4.33 -9.70  4.19
Si  3.34 10.91 -0.83
Si -3.33 -10.92  0.84
Si  8.55  1.21  7.53
Si -8.55 -1.22 -7.55
Si -7.78 -8.49 -0.86
Si -4.68 -9.70 -4.18
Si  4.67  9.70  4.19
Si  7.80  8.48  0.84
Si -3.85 10.91 -0.84
Si -2.38 -8.49  7.55
Si  2.39  8.50 -7.54
Si  3.86 -10.93  0.84
Si  9.81 -4.85  4.19
Si -9.81  4.86 -4.18
Si  3.57 -2.43 10.90
Si  3.00 -8.47 -7.54
Si -3.54  2.43 -10.91
Si  0.14  7.27 -9.21
Si -6.11  9.70 -2.51
Si  6.11 -9.70  2.51
Si  8.86 -7.28 -2.51
Si  3.64  2.42 -10.89
Si  9.49  3.65 -5.86
Si -8.87  7.28  2.51
Si -0.13 -7.29  9.22
Si -3.65 -2.42 10.91
Si -9.51 -3.65  5.87
Si -3.00  8.51  7.54
Si  4.47 -0.01 10.88
Si -4.50  0.01 -10.89
Si -10.74  2.42 -4.20
Si 10.75 -2.44  4.20
Si  6.84  6.07  7.55
Si -6.86 -6.07 -7.54
Si -9.98 -4.86 -4.19
Si 10.83  2.42 -4.20
Si -10.83 -2.44  4.20
Si  9.99  4.86  4.19
Si -1.68  7.29  9.22
Si  1.65 -7.29 -9.23
Si -11.29 -3.64  0.84
Si  7.14 -2.42 -9.20
Si -1.92 -7.28 -9.21
Si 11.30  3.63 -0.83
Si  1.93  7.27  9.23
Si  8.47 -3.64 -7.54
Si -7.15  2.42  9.22
Si -8.48  3.64  7.55
Si  9.12  7.26  2.51
Si  6.47  9.70  2.51
Si -6.00 -8.48 -5.87
Si -9.12 -7.28 -2.53
Si  5.99  8.49  5.88
Si -6.47 -9.71 -2.53
Si 11.68 -0.00 -2.51
Si  0.81 -4.85 -10.89
Si -7.22 -2.43 -9.21
Si  7.25  2.43  9.20
Si -11.69 -0.00  2.51
Si  8.39 -8.48  0.84
Si 10.35  1.22  5.87
Si -10.35 -1.22 -5.87
