500
set: 241.00  0.00  0.00
Si -0.02  0.02 -0.04
Si  1.83  1.05  0.72
Si  0.04 -2.10  0.74
Si -1.84  1.06  0.74
Si -0.01 -0.03 -2.30
Si  1.83 -3.12 -0.00
Si -1.80  1.07  2.96
Si  0.00 -2.09  2.96
Si  1.82  1.08  2.95
Si -1.82 -3.14 -0.01
Si  1.83 -1.01 -2.98
Si -0.03  2.10 -2.98
Si -3.64 -0.03 -0.01
Si -1.84 -1.08 -2.97
Si -1.80  3.18  0.03
Si  3.67 -0.01  0.03
Si  1.81  3.20  0.01
Si  1.81  3.13 -2.21
Si -1.84 -3.15 -2.21
Si  1.83 -1.04  3.73
Si  3.67  0.05 -2.20
Si  0.03  4.22  0.73
Si -3.65  0.01 -2.25
Si  1.83 -3.15 -2.26
Si -1.88  3.16 -2.21
Si  0.04  2.10  3.74
Si -3.67 -2.12  0.75
Si  3.68 -2.11  0.77
Si -1.84 -1.06  3.76
Si  3.63  2.09 -2.97
Si -0.03  4.22  2.94
Si -3.66 -2.14  2.99
Si -0.01 -4.24 -2.99
Si -3.70  2.12 -2.98
Si  3.70 -2.14  2.99
Si -5.44  1.06  0.76
Si -3.61  2.10  3.74
Si -1.82 -5.26  0.73
Si  0.00 -4.20  3.73
Si  1.83 -5.26  0.74
Si -1.83 -1.10 -5.20
Si  3.65  2.06  3.75
Si -3.65  4.23  0.74
Si  1.87 -1.07 -5.21
Si  0.00  2.12 -5.22
Si  3.66  4.23  0.73
Si  5.52  1.06  0.76
Si  1.81 -5.25  2.98
Si  3.68  4.19  2.95
Si  1.84  5.24 -2.98
Si  5.48 -1.07 -2.96
Si -0.01  6.32 -0.03
Si  5.48  3.16 -0.01
Si -5.47  1.07  2.98
Si -1.84 -1.06  5.96
Si -5.48 -1.07 -2.96
Si  1.81  1.08 -5.96
Si  0.01 -2.09 -5.97
Si  5.47 -3.17 -0.03
Si -5.48  3.16 -0.01
Si -1.84  5.26 -2.99
Si  3.64 -4.23 -2.99
Si -1.80 -5.30  2.95
Si -0.00 -6.33 -0.01
Si  1.84 -1.08  5.97
Si  5.49  1.07  2.98
Si -5.49 -3.17 -0.03
Si -3.64 -4.25 -2.98
Si -0.00  2.09  5.99
Si -1.80  1.02 -6.00
Si -3.67  4.24  2.98
Si  3.66  2.10 -5.17
Si  5.45  3.16 -2.21
Si  1.80  5.26  3.71
Si -0.01  0.01  6.69
Si  5.46 -3.15 -2.26
Si -0.03 -6.33 -2.21
Si  5.47 -1.08  3.74
Si -0.01 -4.24 -5.21
Si -3.68 -4.23  3.71
Si -5.49 -3.15 -2.26
Si -5.51  3.16 -2.21
Si -5.49 -1.08  3.74
Si -0.01  6.34 -2.26
Si -1.82  5.27  3.78
Si -3.68  2.10 -5.24
Si  3.66 -4.22  3.78
Si -3.67 -6.29  0.01
Si -7.29 -0.01  0.03
Si  3.67 -6.31  0.03
Si  3.64  2.08  5.98
Si  7.32 -0.03 -0.01
Si -0.03 -4.22  5.97
Si -3.65  2.16  5.97
Si  3.66  6.35 -0.01
Si -3.66 -2.09 -6.00
Si  0.00  4.23 -5.99
Si  3.68 -2.10 -5.99
Si -3.65  6.38 -0.00
Si -5.45 -1.06 -5.20
Si  3.60 -6.33 -2.21
Si -7.29  0.05 -2.20
Si -5.45 -5.27  0.73
Si  3.63 -4.22 -5.19
Si -7.28 -2.11  0.77
Si -3.65  0.01  6.69
Si -1.84  5.27 -5.19
Si  7.29 -2.12  0.75
Si  1.81  7.37  0.75
Si -1.80  7.38  0.77
Si -3.65 -4.21 -5.22
Si  1.83  3.17  6.70
Si  3.64  6.34 -2.21
Si  7.31  0.01 -2.25
Si  1.83  5.29 -5.22
Si -3.65  6.34 -2.26
Si  5.51 -1.06 -5.20
Si  3.64  0.01  6.74
Si  5.51 -5.27  0.73
Si -3.67 -6.36 -2.21
Si  1.81 -3.20  6.74
Si -1.88 -3.16  6.74
Si -1.81  3.21  6.75
Si  7.26  2.12 -2.98
Si  5.45 -5.27  2.94
Si -1.78  7.35  2.99
Si -7.26 -2.14  2.99
Si  1.82  7.35  2.99
Si -3.66  4.19 -5.96
Si  1.78 -7.38 -2.98
Si  5.47  5.25 -2.99
Si -5.49  5.25 -2.99
Si  5.47 -1.08  5.96
Si  3.70  4.18 -5.96
Si  1.78  5.28  5.97
Si -5.49 -1.08  5.96
Si -5.51 -5.27  2.94
Si -1.85  5.26  5.98
Si -1.78 -5.31 -5.96
Si  3.63 -4.23  5.98
Si  7.30 -2.14  2.99
Si -7.33  2.09 -2.97
Si  1.82 -5.30 -5.96
Si  5.45  1.06 -6.01
Si -1.85 -7.40 -2.97
Si -3.70 -4.21  5.97
Si -5.51  1.06 -6.01
Si  0.04 -2.10 -8.19
Si  0.04 -8.43  0.76
Si -7.31  2.06  3.75
Si -7.30  4.23  0.73
Si  1.83  1.07 -8.21
Si -5.48  5.29  3.73
Si  5.48  5.29  3.73
Si  7.31  4.23  0.74
Si -1.82  1.07 -8.21
Si  1.87 -7.39  3.74
Si  7.35  2.10  3.74
Si -1.83 -7.43  3.75
Si -7.28  4.19  2.95
Si -0.01 -0.01  8.92
Si -0.00  8.42 -2.96
Si  0.01 -8.42  2.98
Si  7.29  4.24  2.98
Si -0.00 -0.01 -8.96
Si -7.32 -4.23 -2.99
Si  7.32 -4.25 -2.98
Si  5.47  3.14  6.65
Si -5.49  3.14  6.65
Si -7.30  2.10 -5.17
Si -1.82 -7.39 -5.17
Si -0.01 -6.36  6.65
Si  5.47  5.25 -5.21
Si  7.28 -4.23  3.71
Si -5.45  7.39  0.74
Si -0.01  8.41  3.74
Si -5.49  5.25 -5.21
Si  9.12  1.06  0.74
Si  7.28  2.10 -5.24
Si  3.64 -8.44  0.74
Si -9.13  1.05  0.72
Si  3.64 -2.11 -8.20
Si -3.65 -8.44  0.72
Si  0.04  4.22 -8.20
Si  5.45 -3.17  6.74
Si  1.80 -7.39 -5.24
Si -7.30 -4.22  3.78
Si -0.03  6.32  6.74
Si -3.65 -2.11 -8.23
Si  5.51  7.39  0.74
Si -5.51 -3.17  6.74
Si  3.64  8.41 -2.97
Si  7.29 -6.29  0.01
Si -1.81 -3.17 -8.92
Si  1.83 -7.34  5.97
Si -7.28 -6.31  0.03
Si -3.66 -8.41  2.95
Si  1.84  9.46 -0.01
Si -9.13 -3.12 -0.00
Si  1.84  3.14  8.93
Si  3.67  0.02 -8.92
Si  9.12 -1.08 -2.97
Si  5.45  5.27  5.97
Si  5.45 -7.39 -2.98
Si -9.13 -1.01 -2.98
Si  1.81 -3.13  8.95
Si  3.68 -8.42  2.96
Si -7.28 -2.10 -5.99
Si -1.81  9.49  0.03
Si -3.65  0.05  8.95
Si  3.66  0.02  8.94
Si -9.14  1.08  2.95
Si -3.67  0.04 -8.94
Si -1.81 -9.50  0.03
Si -5.48  7.40  2.96
Si  9.14 -3.14 -0.01
Si  5.48  7.40  2.96
Si -7.30  6.35 -0.01
Si -5.48 -5.26 -5.99
Si  5.48 -5.26 -5.99
Si  7.30 -2.09 -6.00
Si -1.82  3.18 -8.95
Si -7.32  2.08  5.98
Si -5.51  5.27  5.97
Si  1.83  3.21 -8.95
Si  7.31  2.16  5.97
Si -1.80 -3.14  8.98
Si -5.51 -7.39 -2.98
Si  9.16  1.07  2.96
Si -1.80  7.40 -5.99
Si -1.81  3.16  8.98
Si -9.15  3.20  0.01
Si  1.84 -3.19 -8.96
Si  9.15  3.18  0.03
Si  1.84 -9.52 -0.01
Si -1.84 -7.41  5.98
Si -3.65  8.48 -2.98
Si  1.82  7.41 -6.00
Si  7.31  6.38 -0.00
Si -1.81 -9.44 -2.20
Si  9.08  3.16 -2.21
Si -1.80 -5.28 -8.18
Si  9.12 -3.15 -2.21
Si  0.03 -2.10  9.68
Si -3.65 -6.32  6.70
Si  0.04  8.43 -5.20
Si  3.68  4.22 -8.18
Si  7.31  0.01  6.69
Si -5.45 -7.39  3.74
Si  9.11 -1.06  3.76
Si  1.83 -9.48 -2.25
Si -9.13 -1.04  3.73
Si  1.81 -5.28 -8.20
Si -9.13 -3.15 -2.26
Si  3.67 -6.28  6.75
Si  3.60  6.33  6.74
Si  3.63  8.43  3.76
Si -3.67  4.21 -8.20
Si  7.31 -4.21 -5.22
Si -9.15  3.13 -2.21
Si -5.45  1.06 -8.22
Si  1.81  1.05  9.70
Si -7.33 -4.22 -5.19
Si  7.29 -6.36 -2.21
Si -3.67  6.29  6.74
Si -3.65  8.45  3.73
Si -7.32  6.34 -2.21
Si  1.83  9.50 -2.25
Si  7.31  6.34 -2.26
Si -1.80  1.05  9.72
Si -7.32  0.01  6.74
Si  5.51 -7.39  3.74
Si  5.51  1.06 -8.22
Si -7.36 -6.33 -2.21
Si -1.81  9.54 -2.20
Si -7.26  4.18 -5.96
Si  7.26 -4.21  5.97
Si -0.01  8.41  5.96
Si  7.30  4.19 -5.96
Si -0.03 -8.43 -6.01
Si -7.33 -4.23  5.98
Si  3.65  8.39 -5.20
Si -9.09 -1.07 -5.21
Si -3.61  8.42 -5.21
Si -9.13 -5.26  0.74
Si  3.66 -2.10  9.68
Si -5.48 -7.37 -5.22
Si  5.48 -7.37 -5.22
Si  9.13 -1.10 -5.20
Si -3.65 -2.10  9.69
Si  9.14 -5.26  0.73
Si  0.04 10.55  0.76
Si  0.04  4.22  9.71
Si -0.02 -6.31  8.90
Si  5.46  3.18  8.90
Si -3.64  8.41  5.97
Si  5.46 -9.47 -0.04
Si -9.12  5.24 -2.98
Si -5.50  3.18  8.90
Si 10.94  0.02 -0.04
Si  3.64  8.43  5.96
Si  9.12 -1.06  5.96
Si  9.12  5.26 -2.99
Si -3.67 -8.41 -5.96
Si -0.00  6.32  8.94
Si -9.12 -1.08  5.97
Si -5.50 -9.47 -0.04
Si  5.48 -3.17  8.94
Si -5.48 -3.17  8.94
Si -9.15 -5.25  2.98
Si  5.46  9.51 -0.04
Si -5.47  7.40 -5.97
Si -0.00 -10.56 -2.96
Si  5.47  3.15 -8.97
Si  0.01 10.56  2.98
Si -9.15  1.08 -5.96
Si  5.49  7.40 -5.97
Si -10.98  0.02 -0.04
Si  5.46 -3.15 -8.99
Si  5.48 -7.40  5.99
Si -5.49  3.15 -8.97
Si -5.48 -7.40  5.99
Si -0.01 -6.34 -8.97
Si -5.50  9.51 -0.04
Si  9.16 -5.30  2.95
Si  9.16  1.02 -6.00
Si -5.50 -3.15 -8.99
Si -0.02  6.35 -8.99
Si  3.68 -8.47 -6.00
Si -10.92 -2.10  0.74
Si -0.03 -0.00 -11.16
Si -3.65  4.22  9.67
Si  1.83 -5.27  9.67
Si -5.45 -5.27 -8.20
Si -5.45  1.06  9.69
Si  5.47  9.46 -2.30
Si -5.49  9.46 -2.30
Si  3.64  4.22  9.69
Si -3.65 10.54  0.72
Si  3.64 10.55  0.74
Si -1.84 -5.27  9.69
Si  7.31 -8.44  0.72
Si 10.95 -0.03 -2.30
Si -1.84  7.38 -8.20
Si -7.32 -8.44  0.74
Si -9.16  5.26  3.71
Si -7.32 -2.11 -8.20
Si  5.51 -5.27 -8.20
Si  5.51  1.06  9.69
Si  1.83  7.38 -8.23
Si  7.31 -2.11 -8.23
Si  9.14  5.27  3.78
Si -10.97 -0.03 -2.30
Si -0.01 -10.57  3.74
Si  5.47 -9.52 -2.30
Si 10.99 -2.10  0.74
Si -5.49 -9.52 -2.30
Si -3.65 -10.50 -2.98
Si -7.28  0.02 -8.92
Si -7.28 -8.42  2.96
Si 10.93  2.10 -2.98
Si  7.30 -8.41  2.95
Si -3.65 -6.28 -8.95
Si  3.67  6.32 -8.92
Si -7.32  8.41 -2.97
Si  7.29  0.04 -8.94
Si -10.96 -2.09  2.96
Si -7.30  0.02  8.94
Si 10.96 -2.09  2.96
Si -3.64  6.30 -8.96
Si  3.66 -6.31 -8.95
Si -3.64 -6.36  8.93
Si  7.31  0.05  8.95
Si -3.66 10.57  2.95
Si  3.68 10.56  2.96
Si  3.64 -10.57 -2.97
Si -10.99  2.10 -2.98
Si -3.67  6.37  8.95
Si  3.67 -6.33  8.98
Si  7.31  8.48 -2.98
Si  3.67  6.35  8.98
Si -1.81 -3.11 -11.15
Si  3.60 -0.00 -11.16
Si -7.28  4.22 -8.18
Si  9.11  5.27 -5.19
Si -10.92  2.10  3.74
Si -10.93  4.22  0.73
Si  9.08 -3.16  6.74
Si  1.83 -9.48  6.69
Si -3.67 -0.04 -11.16
Si  7.29  4.21 -8.20
Si -7.29 -6.28  6.75
Si -1.84  3.18 -11.16
Si  7.29  6.29  6.74
Si -3.65 -10.53  3.73
Si  7.31 -6.32  6.70
Si -9.13  3.17  6.70
Si  0.04 -10.55 -5.20
Si -1.80 -11.60  0.77
Si  1.83  9.51  6.69
Si -1.84 -9.48  6.74
Si -9.13  5.29 -5.22
Si  1.81 -11.61  0.75
Si  1.83 -3.15 -11.20
Si  3.63 -10.55  3.76
Si  7.31  8.45  3.73
Si -9.15  7.37  0.75
Si  0.03 -8.43 -8.22
Si -7.33  8.43  3.76
Si  9.16  7.38  0.77
Si  1.83  3.18 -11.21
Si -1.84  9.51  6.74
Si 10.99  4.22  0.73
Si 10.99  2.10  3.74
Si -9.15 -3.20  6.74
Si  9.15  3.21  6.75
Si -7.36  6.33  6.74
Si -0.03 -2.11 11.89
Si 10.93  4.22  2.94
Si  9.11  5.26  5.98
Si -1.85 11.58 -2.97
Si -9.14  7.35  2.99
Si  1.78 -1.05 -11.93
Si  9.11 -7.40 -2.97
Si -1.85 -1.07 -11.92
Si -1.78  1.02 11.94
Si  1.78 11.61 -2.98
Si -0.01  2.08 -11.94
Si 10.95 -4.24 -2.99
Si  1.82  1.02 11.94
Si -9.14 -5.30 -5.96
Si -10.96 -4.24 -2.99
Si -0.01 -10.57  5.96
Si -10.99  4.22  2.94
Si  9.18  7.35  2.99
Si -0.03 10.55 -6.01
Si -1.78 -11.63  2.99
Si -9.18 -7.38 -2.98
Si  1.82 -11.63  2.99
Si -9.18  5.28  5.97
Si  9.18 -5.31 -5.96
Si -7.31  8.39 -5.20
Si -1.83 11.55  3.75
Si -5.44  7.39 -8.19
Si -9.09 -7.39  3.74
Si -7.30 -2.10  9.68
Si -5.44 -5.27  9.71
Si -3.65 -8.42 -8.21
Si -3.61 -10.56 -5.21
Si -10.96 -4.20  3.73
Si 10.96 -4.20  3.73
Si -1.82  7.40  9.68
Si -9.13  1.07 -8.21
Si  1.87 11.59  3.74
Si  7.31 -2.10  9.69
Si  3.66 -8.42 -8.21
Si -10.96  2.12 -5.22
Si 10.96  2.12 -5.22
Si  1.83  7.39  9.69
Si  5.52  7.39 -8.19
Si  7.35  8.42 -5.21
Si  9.14  1.07 -8.21
Si  5.52 -5.27  9.71
Si  3.65 -10.59 -5.20
Si  9.13 -7.43  3.75
Si  7.29 -8.41 -5.96
Si  3.68 -2.14 11.90
Si -0.00 -4.24 -11.91
Si  7.32  8.41  5.97
Si 10.95  6.32 -0.03
Si -10.95 -2.09 -5.97
Si -3.64  2.08 -11.93
Si -0.00 12.65 -0.01
Si  3.68 10.51 -6.00
Si -7.32  8.43  5.96
Si  3.64 -10.56  5.96
Si 10.96 -6.33 -0.01
Si -10.97  6.32 -0.03
Si  0.01  4.24 11.93
Si -3.67 -2.09 11.93
Si 10.96  2.09  5.99
Si  3.64  2.10 -11.94
Si 10.97 -2.09 -5.97
Si -10.96 -6.33 -0.01
Si -0.01 -12.66 -0.03
Si -10.96  2.09  5.99
Si -3.64 -10.57  5.97
Si -7.28 -8.47 -6.00
Si -3.67 10.57 -5.96
Si 10.93 -6.33 -2.21
Si -1.82 11.60 -5.17
Si  5.46 -9.48  6.69
Si 10.95  0.01  6.69
Si  1.80 -1.07 12.66
Si -5.45 -11.60  0.74
Si  7.31  4.22  9.67
Si -5.49 -9.48  6.69
Si  9.14 -7.39 -5.17
Si -0.01 -12.64 -2.26
Si -0.03 12.65 -2.21
