500
set: 479.00  0.00  0.00
Si -0.09 -0.01 -0.03
Si  1.76  0.98  0.67
Si  0.07 -2.02  0.78
Si -0.10 -0.13 -2.28
Si -1.80  1.12  0.86
Si  1.60  1.11  2.86
Si  0.06  2.00 -2.88
Si -3.51  0.00  0.02
Si  1.80 -1.12 -2.82
Si -1.61 -3.17 -0.03
Si -1.72  3.14  0.01
Si  1.87 -3.09  0.01
Si  1.99  3.05 -0.03
Si -1.79  0.96  3.05
Si  3.68  0.00  0.02
Si  0.06 -2.16  2.99
Si -1.99 -0.97 -3.01
Si  3.48  0.16 -2.15
Si -3.45 -2.14  0.64
Si -1.81  3.01 -2.15
Si  0.14  4.09  0.64
Si  1.77 -0.93  3.64
Si -1.83 -3.00 -2.23
Si  1.79 -3.22 -2.15
Si -3.71  0.16 -2.15
Si -1.81 -1.14  3.72
Si  1.77  3.22 -2.23
Si -0.11  2.23  3.72
Si  3.74 -2.14  0.64
Si  3.56 -1.98  2.83
Si -3.63 -1.98  2.83
Si -0.04 -4.06 -3.04
Si -0.04  4.24  2.83
Si  3.56  2.17 -3.04
Si -3.63  2.17 -3.04
Si  3.50  1.95  3.59
Si  1.79 -0.96 -5.01
Si  1.79 -5.11  0.86
Si -3.69  1.95  3.59
Si  0.07  2.13 -5.09
Si -3.53  4.20  0.78
Si -5.43  0.98  0.67
Si  5.39  1.12  0.86
Si -0.10 -4.28  3.59
Si -1.83 -5.25  0.67
Si -1.83 -1.10 -5.20
Si  3.66  4.20  0.78
Si -5.21  3.05 -0.03
Si  5.20 -0.97 -3.01
Si -1.79  5.11 -2.82
Si -5.32 -3.09  0.01
Si -3.54  4.07  2.99
Si -5.39 -1.12 -2.82
Si -1.99 -5.12  2.86
Si -1.61  0.98 -5.90
Si  0.08 -2.07 -5.85
Si -1.72 -1.01  5.89
Si -3.54 -4.23 -2.88
Si  0.09 -6.22  0.02
Si  0.08  6.23  0.02
Si  3.65  4.07  2.99
Si  1.87  1.06 -5.86
Si  0.08  2.08  5.89
Si  1.99 -1.10  5.84
Si  1.60  5.26 -3.01
Si  5.40  0.96  3.05
Si  3.65 -4.23 -2.88
Si  5.47  3.14  0.01
Si  1.80 -5.27  3.05
Si -5.59  1.11  2.86
Si  5.58 -3.17 -0.03
Si -0.11 -6.07 -2.15
Si  3.48 -4.00  3.72
Si  0.14 -0.06  6.51
Si  5.38  3.01 -2.15
Si  5.37 -3.00 -2.23
Si  1.79  5.09  3.72
Si -3.45  2.02 -5.23
Si -5.42 -0.93  3.64
Si -3.71 -4.00  3.72
Si  5.38 -1.14  3.72
Si -5.40 -3.22 -2.15
Si -1.83  5.30  3.64
Si -5.42  3.22 -2.23
Si  0.14 -4.21 -5.23
Si -0.11  6.38 -2.15
Si  3.74  2.02 -5.23
Si  7.10 -0.01 -0.03
Si  3.50  2.06  5.84
Si  3.50  6.22 -0.03
Si  3.50 -6.24 -0.03
Si  3.50 -2.09 -5.90
Si -0.09 -4.16  5.84
Si -0.09  4.14 -5.90
Si -3.69  2.06  5.84
Si -3.69  6.22 -0.03
Si -3.69 -6.24 -0.03
Si -3.69 -2.09 -5.90
Si -7.29 -0.01 -0.03
Si  3.50  6.10 -2.28
Si -5.40 -0.96 -5.01
Si -3.53 -4.10 -5.09
Si -7.13 -2.02  0.78
Si -1.84  3.05  6.54
Si  7.09 -0.13 -2.28
Si -1.84  7.20  0.67
Si  1.76 -3.18  6.54
Si -5.40 -5.11  0.86
Si -3.69  6.10 -2.28
Si -1.81  5.27 -5.01
Si  3.66 -4.10 -5.09
Si  1.76  5.13 -5.20
Si  5.36 -5.25  0.67
Si -3.53  0.05  6.66
Si  5.36 -1.10 -5.20
Si  7.26 -2.02  0.78
Si  3.66  0.05  6.66
Si -1.80 -3.03  6.74
Si  3.50 -6.36 -2.28
Si  1.79  7.35  0.86
Si -7.29 -0.13 -2.28
Si  1.79  3.19  6.74
Si -3.69 -6.36 -2.28
Si  5.20 -5.12  2.86
Si -5.21 -1.10  5.84
Si -1.61  5.13  5.84
Si -7.13  2.00 -2.88
Si  5.40  5.11 -2.82
Si  1.60 -7.19 -3.01
Si -5.32  1.06 -5.86
Si -3.51  4.16 -5.85
Si -1.72 -5.16 -5.86
Si  1.80  7.18  3.05
Si -3.51 -4.15  5.89
Si -7.13 -2.16  2.99
Si  7.25  2.00 -2.88
Si  3.68  4.16 -5.85
Si -1.79 -7.35 -2.82
Si  1.87  5.22  5.89
Si  3.68 -4.15  5.89
Si  5.47 -1.01  5.89
Si -1.99  7.34  2.86
Si -5.39 -5.27  3.05
Si  7.25 -2.16  2.99
Si  1.99 -5.25 -5.90
Si -7.05  4.09  0.64
Si  5.58  0.98 -5.90
Si -1.83 -7.16  3.64
Si -5.59  5.26 -3.01
Si -0.11 -1.92 -8.02
Si  1.79  0.94 -8.03
Si -5.40  5.09  3.72
Si  7.08  2.23  3.72
Si  5.37  5.30  3.64
Si -1.83  1.15 -8.10
Si  0.14 -8.37  0.64
Si  7.33  4.09  0.64
Si  1.79 -7.37  3.72
Si -7.30  2.23  3.72
Si -0.04 -8.21  2.83
Si -0.04  0.09  8.71
Si  7.15 -4.06 -3.04
Si  7.15  4.24  2.83
Si -7.23 -4.06 -3.04
Si -7.23  4.24  2.83
Si -0.04  0.09 -8.91
Si -0.04  8.39 -3.04
Si -0.10  8.18  3.59
Si -1.80 -7.19 -5.01
Si  5.36  3.05  6.54
Si  5.36  7.20  0.67
Si -3.53 -8.25  0.78
Si -7.13  2.13 -5.09
Si  8.95  0.98  0.67
Si  7.09 -4.28  3.59
Si  5.39  5.27 -5.01
Si  3.66 -8.25  0.78
Si -5.43 -3.18  6.54
Si  0.07 -6.18  6.66
Si -0.10  4.02 -8.15
Si -5.43  5.13 -5.20
Si -9.00  1.12  0.86
Si  7.26  2.13 -5.09
Si  3.50 -2.21 -8.15
Si  5.39 -3.03  6.74
Si  0.07  6.28  6.66
Si  1.76 -7.33 -5.20
Si -5.40  7.35  0.86
Si -7.29 -4.28  3.59
Si -5.40  3.19  6.74
Si -3.69 -2.21 -8.15
Si  8.79  1.11  2.86
Si -8.80 -3.17 -0.03
Si  1.80  3.03 -8.69
Si  1.60 -3.04  8.73
Si -3.54  8.22 -2.88
Si -1.61  9.28 -0.03
Si -1.79 -3.20 -8.69
Si -7.11 -2.07 -5.85
Si  5.20  7.34  2.86
Si -3.54 -0.08 -8.75
Si -7.11 -6.22  0.02
Si  3.65  8.22 -2.88
Si -8.91  3.14  0.01
Si -7.11  6.23  0.02
Si -5.21 -5.25 -5.90
Si -7.11  2.08  5.89
Si -1.72 -9.32  0.01
Si  3.65 -0.08 -8.75
Si -5.39  7.18  3.05
Si  9.00 -1.12 -2.82
Si -5.32  5.22  5.89
Si -1.99  3.19  8.73
Si -1.61 -7.33  5.84
Si -1.72  7.29 -5.86
Si  1.87 -7.24  5.89
Si  1.99  7.20 -5.90
Si  1.60 -3.04 -8.88
Si  5.47 -5.16 -5.86
Si -8.98  0.96  3.05
Si  5.40 -7.35 -2.82
Si -3.54 -0.08  8.87
Si  1.87  9.37  0.01
Si  7.28 -2.07 -5.85
Si  5.58  5.13  5.84
Si  7.08 -6.07 -2.15
Si  7.28 -6.22  0.02
Si  9.06 -3.09  0.01
Si -3.54 -8.38  2.99
Si  7.28  6.23  0.02
Si  3.65 -0.08  8.87
Si  7.28  2.08  5.89
Si -5.59 -7.19 -3.01
Si -7.05 -0.06  6.51
Si  1.80  3.03  8.93
Si -3.46  6.17  6.51
Si  1.99 -9.40 -0.03
Si  3.65 -8.38  2.99
Si -1.99  3.19 -8.88
Si -1.79 -3.20  8.93
Si  1.79  9.24 -2.15
Si  5.37 -7.16  3.64
Si  1.77 -9.23 -2.23
Si  9.18  3.05 -0.03
Si -3.45 -6.29  6.51
Si -9.18 -0.97 -3.01
Si  3.74  6.17  6.51
Si  8.96 -0.93  3.64
Si -5.40  0.94 -8.03
Si  1.77 -5.08 -8.10
Si -9.00  3.01 -2.15
Si -7.30 -6.07 -2.15
Si -7.05 -4.21 -5.23
Si  3.48  4.31 -8.02
Si -1.83  1.15  9.51
Si -9.02 -3.00 -2.23
Si  0.14  8.24 -5.23
Si  7.08  6.38 -2.15
Si  8.96  3.22 -2.23
Si  8.98 -3.22 -2.15
Si -1.81 -5.29 -8.03
Si  5.37  1.15 -8.10
Si -0.11 -1.92  9.60
Si  3.74 -6.29  6.51
Si  1.79  0.94  9.59
Si -9.00 -1.14  3.72
Si  7.33 -0.06  6.51
Si -3.71  4.31 -8.02
Si -1.81 -9.45 -2.15
Si -5.40 -7.37  3.72
Si  3.48  8.46  3.72
Si -1.83  9.45 -2.23
Si -7.30  6.38 -2.15
Si  7.33 -4.21 -5.23
Si -3.71  8.46  3.72
Si  7.10 -4.16  5.84
Si  7.10  4.14 -5.90
Si -0.09  8.29  5.84
Si -0.09 -8.31 -5.90
Si -7.29 -4.16  5.84
Si -7.29  4.14 -5.90
Si  5.39 -7.19 -5.01
Si -0.10  4.02  9.46
Si  3.50 -2.21  9.46
Si  8.98 -0.96 -5.01
Si  8.98 -5.11  0.86
Si -3.69 -2.21  9.46
Si -3.53  8.36 -5.09
Si  3.66  8.36 -5.09
Si  0.07 10.43  0.78
Si -9.03 -5.25  0.67
Si -9.03 -1.10 -5.20
Si -5.43 -7.33 -5.20
Si -8.80  0.98 -5.90
Si  5.20  3.19  8.73
Si -5.39  3.03 -8.69
Si -5.21  7.20 -5.90
Si  8.79  5.26 -3.01
Si  0.06  6.15 -8.75
Si -10.70  0.00  0.02
Si -8.98  5.11 -2.82
Si  5.40 -3.20 -8.69
Si  0.06 10.30  2.99
Si -8.91 -1.01  5.89
Si -5.32 -7.24  5.89
Si -3.51 -8.30 -5.85
Si -5.21 -9.40 -0.03
Si -5.32  9.37  0.01
Si  5.20  3.19 -8.88
Si -3.51  8.31  5.89
Si  0.06 -6.31 -8.75
Si  0.06  6.15  8.87
Si  3.68 -8.30 -5.85
Si  5.47 -9.32  0.01
Si -5.59 -3.04  8.73
Si  5.58  9.28 -0.03
Si  3.68  8.31  5.89
Si  5.47  7.29 -5.86
Si  9.06  1.06 -5.86
Si  0.06 -10.46 -2.88
Si -5.39  3.03  8.93
Si  9.00 -5.27  3.05
Si  7.08 -1.92 -8.02
Si 10.87  0.00  0.02
Si -10.65 -2.14  0.64
Si  0.06 -6.31  8.87
Si -0.11 -10.22  3.72
Si 10.68  0.16 -2.15
Si -9.18 -5.12  2.86
Si -3.46 10.32  0.64
Si  5.58 -7.33  5.84
Si -1.81  7.16 -8.03
Si  5.40 -3.20  8.93
Si -5.40  9.24 -2.15
Si -5.59 -3.04 -8.88
Si  1.77 -5.08  9.51
Si  9.18 -1.10  5.84
Si -5.42 -9.23 -2.23
Si -7.05 -8.37  0.64
Si  8.98  5.09  3.72
Si  5.37  1.15  9.51
Si -5.42 -5.08 -8.10
Si  3.74 10.32  0.64
Si -7.30 -1.92 -8.02
Si  5.39 -5.29 -8.03
Si -5.40  0.94  9.59
Si -9.02  5.30  3.64
Si  3.48  4.31  9.60
Si  5.39 -9.45 -2.15
Si  5.37  9.45 -2.23
Si  1.77  7.38 -8.10
Si -1.81 -5.29  9.59
Si  0.14 -0.06 -11.10
Si -10.90  0.16 -2.15
Si  7.33 -8.37  0.64
Si -3.71  4.31  9.60
Si 10.93 -2.14  0.64
Si  3.56 -6.14  8.71
Si  7.15 -8.21  2.83
Si -3.63 -6.14  8.71
Si  7.15  0.09  8.71
Si 10.75 -1.98  2.83
Si  3.56 -10.29 -3.04
Si -7.23 -8.21  2.83
Si -7.23  0.09  8.71
Si -3.63 -10.29 -3.04
Si  3.56  6.32  8.71
Si -3.63  6.32  8.71
Si -10.82 -1.98  2.83
Si 10.75  2.17 -3.04
Si  3.56 -6.14 -8.91
Si  7.09  8.18  3.59
Si -3.63 -6.14 -8.91
Si  3.56 10.47  2.83
Si  7.15  0.09 -8.91
Si -1.80 -3.03 -10.88
Si  7.15  8.39 -3.04
Si -3.63 10.47  2.83
Si 10.69  1.95  3.59
Si -10.82  2.17 -3.04
Si -7.23  0.09 -8.91
Si  1.79  3.19 -10.88
Si  3.56  6.32 -8.91
Si -7.23  8.39 -3.04
Si  1.76  9.28  6.54
Si -3.63  6.32 -8.91
Si -1.80 -11.34  0.86
Si  0.07 -10.33 -5.09
Si -3.53  0.05 -10.96
Si -7.29  8.18  3.59
Si  7.09  4.02 -8.15
Si  8.95 -3.18  6.54
Si -7.13 -6.18  6.66
Si -10.72  4.20  0.78
Si  8.95  5.13 -5.20
Si  3.66  0.05 -10.96
Si -9.03  3.05  6.54
Si -9.00  5.27 -5.01
Si -9.03  7.20  0.67
Si  1.79 -9.26  6.74
Si -7.13  6.28  6.66
Si -1.83 -9.40  6.54
Si  7.26 -6.18  6.66
Si -10.88  1.95  3.59
Si -1.83  3.05 -11.07
Si  1.76 -11.48  0.67
Si  8.98  7.35  0.86
Si -9.00 -3.03  6.74
Si  3.50 -10.51  3.59
Si -7.29  4.02 -8.15
Si  1.76 -3.18 -11.07
Si 10.85  4.20  0.78
Si  8.98  3.19  6.74
Si  7.26  6.28  6.66
Si -3.69 -10.51  3.59
Si -1.81  9.42  6.74
Si -0.10 -8.43 -8.15
Si -8.80  5.13  5.84
Si  8.80 -7.19 -3.01
Si  1.60 -11.35  2.86
Si  1.80 11.34 -2.82
Si -8.91 -5.16 -5.86
Si -10.73  4.07  2.99
Si -1.61  0.98 11.71
Si -10.73 -4.23 -2.88
Si -1.72 -1.01 -11.73
Si  0.08  2.08 -11.72
Si  9.00  7.18  3.05
Si  0.08 10.38 -5.85
Si  0.09 -10.38  5.89
Si -8.98 -7.35 -2.82
Si  0.08 -2.07 11.77
Si  3.48 -8.15 -8.02
Si  1.87  1.06 11.76
Si 10.85  4.07  2.99
Si  1.99 -1.10 -11.77
Si 10.85 -4.23 -2.88
Si 10.68 -4.00  3.72
Si  9.06  5.22  5.89
Si -3.71 -8.15 -8.02
Si  5.38  7.16 -8.03
Si -10.65  2.02 -5.23
Si -1.79 -11.50  3.05
Si -7.05  8.24 -5.23
Si -1.99 11.49 -3.01
Si -1.81 11.31  3.72
Si -5.42 -5.08  9.51
Si -9.02 -7.16  3.64
Si  7.08 -1.92  9.60
Si  8.98  0.94 -8.03
Si -9.18  7.34  2.86
Si -1.81  7.16  9.59
Si  9.18 -5.25 -5.90
Si  1.77  7.38  9.51
Si -9.02  1.15 -8.10
Si -3.45 -10.44 -5.23
Si -10.90 -4.00  3.72
Si  8.98 -7.37  3.72
Si  5.38 -5.29  9.59
Si  7.33  8.24 -5.23
Si -7.30 -1.92  9.60
Si  1.77 11.53  3.64
Si -5.42  7.38 -8.10
Si  3.74 -10.44 -5.23
Si 10.93  2.02 -5.23
Si 10.69  2.06  5.84
Si 10.69  6.22 -0.03
Si 10.69 -6.24 -0.03
Si  7.10  8.29  5.84
Si 10.69 -2.09 -5.90
Si  3.50 -2.09 11.72
Si  7.10 -8.31 -5.90
Si  3.50 -10.39  5.84
Si -0.09  4.14 11.72
Si  3.50 10.37 -5.90
Si -0.09 12.45 -0.03
Si  3.50  2.06 -11.77
Si -3.69 -2.09 11.72
Si -0.09 -12.47 -0.03
Si -3.69 -10.39  5.84
Si -0.09 -4.16 -11.77
Si -3.69 10.37 -5.90
Si -7.29  8.29  5.84
Si  7.09  4.02  9.46
Si -3.69  2.06 -11.77
Si  5.39 -3.03 -10.88
Si 10.69  6.10 -2.28
Si -10.88  2.06  5.84
Si -7.29 -8.31 -5.90
Si -10.88  6.22 -0.03
Si -0.10 12.33 -2.28
Si -10.88 -6.24 -0.03
Si -10.88 -2.09 -5.90
Si -9.00 -7.19 -5.01
Si -10.72 -4.10 -5.09
Si -5.40  3.19 -10.88
Si  0.07 -6.18 -10.96
Si  5.39 -11.34  0.86
Si -5.43  9.28  6.54
Si -1.84 -1.10 12.41
