500
set: 1370.00  0.00  0.00
Si -0.41 -1.03 -1.34
Si  1.75 -0.71  0.42
Si -0.41 -0.63  2.23
Si -1.64  0.61 -1.75
Si -1.65  1.01  1.81
Si -2.16 -1.57  0.63
Si -0.30  2.63  1.36
Si -0.29  2.23 -2.21
Si  1.85  2.52 -0.45
Si  3.14  0.90 -0.00
Si -3.53  0.90 -0.00
Si  1.76 -1.10 -3.14
Si -2.15 -1.97 -2.93
Si -2.23 -3.35  1.14
Si  1.74 -0.31  3.98
Si  0.57 -4.18  1.36
Si  1.84  2.92  3.11
Si -3.09  3.46  1.14
Si  3.15  0.50 -3.57
Si  4.51 -1.57  0.63
Si -2.17 -1.18  4.20
Si  1.86  2.13 -4.02
Si  3.13  1.29  3.56
Si -3.08  3.06 -2.43
Si -2.21 -3.75 -2.43
Si -4.93 -0.71  0.42
Si -3.52  0.50 -3.57
Si  2.71 -4.29 -0.45
Si  3.58  3.46  1.14
Si  0.58 -4.58 -2.21
Si -0.40 -1.43 -4.90
Si -3.54  1.29  3.56
Si  3.59  3.06 -2.43
Si  5.03  0.61 -1.75
Si  5.02  1.01  1.81
Si -4.83  2.52 -0.45
Si -1.63  0.22 -5.32
Si  2.70 -3.89  3.11
Si  4.45 -3.35  1.14
Si  4.52 -1.97 -2.93
Si -0.31  3.02  4.92
Si -1.66  1.41  5.38
Si -0.42 -0.24  5.79
Si -3.96 -4.29 -0.45
Si -4.92 -1.10 -3.14
Si -2.23 -2.96  4.70
Si -0.28  1.84 -5.77
Si -1.27  5.78 -1.34
Si -3.03  5.24  0.63
Si -0.79 -5.80  1.81
Si  0.88  6.11  0.42
Si  0.56 -3.79  4.92
Si  4.50 -1.18  4.20
Si  4.46 -3.75 -2.43
Si -4.93 -0.31  3.98
Si -3.97 -3.89  3.11
Si  3.65  5.24  0.63
Si -3.02  4.84 -2.93
Si -4.84  2.92  3.11
Si -0.78 -6.20 -1.75
Si -2.67 -5.92 -0.00
Si  6.27 -1.03 -1.34
Si  0.89  5.71 -3.14
Si -4.82  2.13 -4.02
Si  6.26 -0.63  2.23
Si -1.28  6.18  2.23
Si  3.65  4.84 -2.93
Si  2.72 -4.69 -4.02
Si -3.10  3.86  4.70
Si  6.37  2.63  1.36
Si  3.57  3.86  4.70
Si -2.68 -5.52  3.56
Si  1.77 -1.50 -6.71
Si  4.44 -2.96  4.70
Si  6.38  2.23 -2.21
Si  4.01 -5.92 -0.00
Si -2.14 -2.37 -6.50
Si -3.07  2.67 -5.99
Si -7.08 -1.03 -1.34
Si -3.95 -4.69 -4.02
Si  5.04  0.22 -5.32
Si -1.26  5.39 -4.90
Si -7.09 -0.63  2.23
Si  3.60  2.67 -5.99
Si  5.01  1.41  5.38
Si -6.11 -4.18  1.36
Si -6.97  2.63  1.36
Si -2.21 -4.15 -5.99
Si -6.96  2.23 -2.21
Si  0.58 -4.98 -5.77
Si -3.04  5.64  4.20
Si -0.79 -5.41  5.38
Si  1.83  3.32  6.67
Si  0.87  6.50  3.98
Si  4.00 -5.52  3.56
Si -2.66 -6.31 -3.57
Si  1.73  0.09  7.55
Si  0.45 -7.45  2.23
Si  3.16  0.10 -7.13
Si  3.64  5.64  4.20
Si -6.10 -4.58 -2.21
Si -3.52  0.10 -7.13
Si  3.12  1.69  7.12
Si  0.46 -7.84 -1.34
Si  2.61 -7.52  0.42
Si  1.86  1.73 -7.58
Si  2.69 -3.50  6.67
Si  5.40  5.78 -1.34
Si -2.51  7.43 -1.75
Si  2.27  7.71 -0.00
Si  6.28 -1.43 -4.90
Si -2.18 -0.78  7.76
Si -3.55  1.69  7.12
Si  4.53 -2.37 -6.50
Si  4.01 -6.31 -3.57
Si -2.52  7.83  1.81
Si -3.01  4.45 -6.50
Si -5.79  6.11  0.42
Si -4.91 -1.50 -6.71
Si  2.28  7.32 -3.57
Si  8.42 -0.71  0.42
Si  5.89 -5.80  1.81
Si  7.24 -4.18  1.36
Si  5.39  6.18  2.23
Si -0.77 -6.59 -5.32
Si -1.29 -8.39  0.63
Si -8.31  0.61 -1.75
Si -3.98 -3.50  6.67
Si  6.25 -0.24  5.79
Si  4.47 -4.15 -5.99
Si -4.06 -7.52  0.42
Si  2.60 -7.12  3.98
Si -8.32  1.01  1.81
Si  6.36  3.02  4.92
Si  0.90  5.31 -6.71
Si -0.39 -1.82 -8.47
Si  3.66  4.45 -6.50
Si  4.17  7.43 -1.75
Si -5.78  5.71 -3.14
Si -6.12 -3.79  4.92
Si -7.07 -1.43 -4.90
Si  5.90 -6.20 -1.75
Si  6.39  1.84 -5.77
Si  7.25 -4.58 -2.21
Si -1.29  6.58  5.79
Si -4.40  7.71 -0.00
Si -4.84  3.32  6.67
Si  8.52  2.52 -0.45
Si  2.62 -7.92 -3.14
Si -2.24 -2.56  8.26
Si -8.83 -1.57  0.63
Si  4.49 -0.78  7.76
Si -4.95  0.09  7.55
Si -1.62 -0.18 -8.88
Si  4.16  7.83  1.81
Si -6.98  3.02  4.92
Si  8.43 -1.10 -3.14
Si  5.41  5.39 -4.90
Si -1.30 -7.99  4.20
Si -4.07 -7.12  3.98
Si  0.44 -7.05  5.79
Si  2.26  8.11  3.56
Si -4.81  1.73 -7.58
Si  0.55 -3.39  8.48
Si -0.32  3.42  8.48
Si -7.10 -0.24  5.79
Si -2.50  7.03 -5.32
Si -2.69 -5.12  7.12
Si -6.95  1.84 -5.77
Si -4.39  7.32 -3.57
Si -1.67  1.80  8.94
Si  8.41 -0.31  3.98
Si -1.28 -8.78 -2.93
Si -0.43  0.16  9.35
Si -1.16  9.04 -2.21
Si  0.98  9.34 -0.45
Si -4.05 -7.92 -3.14
Si -0.27  1.44 -9.33
Si -8.82 -1.97 -2.93
Si  8.51  2.92  3.11
Si  2.73 -5.08 -7.58
Si  7.23 -3.79  4.92
Si -8.90 -3.35  1.14
Si -5.80  6.50  3.98
Si  0.47 -8.24 -4.90
Si -1.17  9.44  1.36
Si -7.46 -5.80  1.81
Si  5.88 -5.41  5.38
Si  3.99 -5.12  7.12
Si  8.53  2.13 -4.02
Si  4.43 -2.56  8.26
Si  7.55  6.11  0.42
Si  4.17  7.03 -5.32
Si -6.09 -4.98 -5.77
Si -3.11  4.25  8.26
Si -7.45 -6.20 -1.75
Si  0.99  8.94 -4.02
Si  9.81  0.90 -0.00
Si -8.84 -1.18  4.20
Si -8.31  0.22 -5.32
Si -4.41  8.11  3.56
Si -1.25  4.99 -8.47
Si -7.95  5.78 -1.34
Si -3.94 -5.08 -7.58
Si -8.89 -3.75 -2.43
Si  3.56  4.25  8.26
Si -6.22 -7.45  2.23
Si  7.56  5.71 -3.14
Si  5.38 -8.39  0.63
Si -8.33  1.41  5.38
Si -6.21 -7.84 -1.34
Si -2.65 -6.71 -7.13
Si -2.53  8.22  5.38
Si  2.29  6.92 -7.13
Si  5.05 -0.18 -8.88
Si -10.21  0.90 -0.00
Si  0.86  6.90  7.55
Si  0.97  9.73  3.11
Si -0.80 -5.01  8.94
Si  5.38  6.58  5.79
Si -3.06  2.27 -9.55
Si -3.05  6.03  7.76
Si -7.96  6.18  2.23
Si -1.36 -10.17  1.14
Si -5.77  5.31 -6.71
Si  5.91 -6.59 -5.32
Si  9.39 -4.29 -0.45
Si  5.00  1.80  8.94
Si -9.76  3.46  1.14
Si  2.60 -6.73  7.55
Si -1.15  8.65 -5.77
Si  9.82  0.50 -3.57
Si  3.61  2.27 -9.55
Si  3.63  6.03  7.76
Si -8.91 -2.96  4.70
Si  5.37 -7.99  4.20
Si -9.76  3.06 -2.43
Si  9.80  1.29  3.56
Si  7.26 -4.98 -5.77
Si  2.73  9.88 -2.43
Si  7.12 -7.45  2.23
Si  4.02 -6.71 -7.13
Si  1.77 -1.90 -10.27
Si  9.38 -3.89  3.11
Si -2.13 -2.76 -10.06
Si  4.15  8.22  5.38
Si -7.47 -5.41  5.38
Si  7.13 -7.84 -1.34
Si  2.72 10.27  1.14
Si  6.29 -1.82 -8.47
Si  5.39 -8.78 -2.93
Si  7.54  6.50  3.98
Si -7.94  5.39 -4.90
Si  0.59 -5.37 -9.33
Si -2.20 -4.54 -9.55
Si -10.20  0.50 -3.57
Si  5.52  9.04 -2.21
Si -4.38  6.92 -7.13
Si 10.26  3.46  1.14
Si  8.44 -1.50 -6.71
Si -10.22  1.29  3.56
Si -4.08 -6.73  7.55
Si -3.95  9.88 -2.43
Si -1.35 -10.56 -2.43
Si -1.37 -9.77  4.70
Si -1.31 -7.59  7.76
Si -5.69  9.34 -0.45
Si 10.27  3.06 -2.43
Si -6.12 -3.39  8.48
Si  2.63 -8.31 -6.71
Si  5.51  9.44  1.36
Si  2.69 -3.10 10.24
Si  1.82  3.71 10.24
Si -9.70  5.24  0.63
Si -6.23 -7.05  5.79
Si -9.34 -5.92 -0.00
Si -1.18  9.84  4.92
Si -3.96 10.27  1.14
Si  6.36  3.42  8.48
Si  3.17 -0.29 -10.69
Si -7.06 -1.82 -8.47
Si  1.43 -11.00  1.36
Si -8.82 -2.37 -6.50
Si  5.42  4.99 -8.47
Si -9.69  4.84 -2.93
Si  9.40 -4.69 -4.02
Si  6.24  0.16  9.35
Si -3.00  4.05 -10.06
Si  1.72  0.48 11.11
Si -3.51 -0.29 -10.69
Si -7.44 -6.59 -5.32
Si  8.40  0.09  7.55
Si  8.50  3.32  6.67
Si 11.19 -1.57  0.63
Si -1.28 -9.18 -6.50
Si  2.25  8.50  7.12
Si  3.11  2.09 10.69
Si -0.76 -6.99 -8.88
Si -5.68  8.94 -4.02
Si -2.49  6.63 -8.88
Si  4.54 -2.76 -10.06
Si  1.88  1.33 -11.14
Si  6.40  1.44 -9.33
Si -3.99 -3.10 10.24
Si -6.20 -8.24 -4.90
Si -4.04 -8.31 -6.71
Si  0.91  4.92 -10.27
Si  7.57  5.31 -6.71
Si -9.35 -5.52  3.56
Si  3.67  4.05 -10.06
Si -3.56  2.09 10.69
Si  1.00  8.54 -7.58
Si -10.63 -4.29 -0.45
Si -8.88 -4.15 -5.99
Si  0.43 -6.65  9.35
Si  4.48 -4.54 -9.55
Si -9.77  3.86  4.70
Si -6.99  3.42  8.48
Si  5.32 -10.17  1.14
Si -3.09 -11.10 -0.45
Si -4.90 -1.90 -10.27
Si -2.19 -0.38 11.32
Si  2.73  9.48 -5.99
Si  8.54  1.73 -7.58
Si  7.12 -7.05  5.79
Si -3.10 -10.71  3.11
Si -7.97 -8.39  0.63
Si 10.32  5.24  0.63
Si -11.60 -0.71  0.42
Si  7.22 -3.39  8.48
Si 11.12 -3.35  1.14
Si  3.58 -11.10 -0.45
Si  1.44 -11.39 -2.21
Si -5.70  9.73  3.11
Si  3.57 -10.71  3.11
Si -6.95  1.44 -9.33
Si -1.30  6.97  9.35
Si 11.19 -1.97 -2.93
Si -9.75  2.67 -5.99
Si -7.11  0.16  9.35
Si -10.64 -3.89  3.11
Si -5.81  6.90  7.55
Si  1.42 -10.60  4.92
Si  5.53  8.65 -5.77
Si 10.33  4.84 -2.93
Si -11.50  2.52 -0.45
Si -8.85 -0.78  7.76
Si  5.87 -5.01  8.94
Si  8.95  7.71 -0.00
Si -9.33 -6.31 -3.57
Si -7.96  6.58  5.79
Si  4.18  6.63 -8.88
Si 11.71  0.61 -1.75
Si 11.70  1.01  1.81
Si -3.94  9.48 -5.99
Si 10.25  3.86  4.70
Si -4.85  3.71 10.24
Si -9.18  7.43 -1.75
Si -4.42  8.50  7.12
Si  7.14 -8.24 -4.90
Si  9.29 -7.52  0.42
Si  2.71 10.67  4.70
Si -9.71  5.64  4.20
Si -2.69 -4.73 10.69
Si 11.13 -3.75 -2.43
Si 11.18 -1.18  4.20
Si  9.37 -3.50  6.67
Si -7.98 -7.99  4.20
Si -11.59 -1.10 -3.14
Si  5.31 -9.77  4.70
Si  5.32 -10.56 -2.43
Si  7.65  9.34 -0.45
Si  8.96  7.32 -3.57
Si  0.48 -8.64 -8.47
Si  5.36 -7.59  7.76
Si  9.83  0.10 -7.13
Si -8.30 -0.18 -8.88
Si -7.83  9.04 -2.21
Si  0.96 10.13  6.67
Si -4.95  0.48 11.11
Si  4.48 -0.38 11.32
Si 10.27  2.67 -5.99
Si -4.80  1.33 -11.14
Si -9.19  7.83  1.81
Si 10.68 -5.92 -0.00
Si -7.96 -8.78 -2.93
Si  9.79  1.69  7.12
Si -2.25 -2.16 11.83
Si -0.38 -2.22 -12.03
Si -5.24 -11.00  1.36
Si -11.51  2.92  3.11
Si -11.61 -0.31  3.98
Si -10.62 -4.69 -4.02
Si  5.50  9.84  4.92
Si -3.97 10.67  4.70
Si  2.79 11.66 -2.93
Si  3.98 -4.73 10.69
Si -7.84  9.44  1.36
Si -11.49  2.13 -4.02
Si  9.28 -7.12  3.98
Si -8.34  1.80  8.94
Si -6.08 -5.37 -9.33
Si  2.78 12.05  0.63
Si 11.11 -2.96  4.70
Si -8.92 -2.56  8.26
Si  0.54 -3.00 12.05
Si -10.19  0.10 -7.13
Si  7.66  8.94 -4.02
Si  5.40 -9.18 -6.50
Si 10.31  5.64  4.20
Si -9.68  4.45 -6.50
Si -1.14  8.25 -9.33
Si 10.67 -5.52  3.56
Si -1.61 -0.57 -12.44
Si -1.34 -10.96 -5.99
Si -3.08 -11.50 -4.02
Si -1.38 -9.37  8.26
Si -10.23  1.69  7.12
Si  8.94  8.11  3.56
Si  9.30 -7.92 -3.14
Si -7.93  4.99 -8.47
Si -3.88 11.66 -2.93
Si -0.33  3.82 12.05
Si -3.11 -10.31  6.67
Si -2.54  8.62  8.94
Si -3.89 12.05  0.63
Si -7.48 -5.01  8.94
Si  3.59 -11.50 -4.02
Si  7.54  6.90  7.55
Si  2.74 -5.48 -11.14
Si -9.17  7.03 -5.32
Si -5.23 -11.39 -2.21
Si  2.30  6.52 -10.69
Si  0.08 -12.62  1.81
Si -5.67  8.54 -7.58
Si  5.92 -6.99 -8.88
Si  7.64  9.73  3.11
Si -5.76  4.92 -10.27
Si  3.56 -10.31  6.67
Si -1.68  2.20 12.50
Si  4.42 -2.16 11.83
Si -5.25 -10.60  4.92
Si -9.36 -5.12  7.12
Si  5.37  6.97  9.35
Si -2.14 12.60 -1.34
Si -1.80 -12.73 -0.00
Si 11.71  0.22 -5.32
Si  0.02 12.52 -3.14
Si 10.69 -6.31 -3.57
Si  0.01 12.92  0.42
Si -0.44  0.56 12.91
Si -1.24  4.59 -12.03
Si 11.69  1.41  5.38
Si -0.26  1.04 -12.90
Si -1.81 -12.33  3.56
Si 10.34  4.45 -6.50
Si  7.27 -5.37 -9.33
Si -8.03 -10.17  1.14
Si -7.82  8.65 -5.77
Si -3.93 -5.48 -11.14
Si  2.59 -6.33 11.11
Si -10.65 -3.50  6.67
Si 12.94 -1.03 -1.34
Si -6.24 -6.65  9.35
Si -3.12  4.65 11.83
Si  4.14  8.62  8.94
Si  9.40 -5.08 -7.58
Si -2.64 -7.11 -10.69
Si -10.73 -7.52  0.42
Si  0.09 -13.01 -1.75
Si 12.93 -0.63  2.23
Si 11.20 -2.37 -6.50
Si  3.55  4.65 11.83
Si  1.45 -11.79 -5.77
Si 10.84  7.43 -1.75
Si -4.37  6.52 -10.69
Si  2.80 11.26 -6.50
Si 11.14 -4.15 -5.99
Si  0.85  7.29 11.11
Si -2.13 12.20 -4.90
Si  1.41 -10.21  8.48
Si -1.19 10.23  8.48
Si  0.07 -12.22  5.38
Si -0.81 -4.61 12.50
Si -2.15 12.99  2.23
Si -3.06  6.43 11.32
Si 13.05  2.63  1.36
Si  8.96  6.92 -7.13
Si -5.71 10.13  6.67
Si -4.09 -6.33 11.11
Si  2.77 12.45  4.20
Si 13.06  2.23 -2.21
Si  8.45 -1.90 -10.27
Si  5.06 -0.57 -12.44
Si  4.54 12.60 -1.34
Si 12.07  5.78 -1.34
Si  4.03 -7.11 -10.69
Si -9.20  8.22  5.38
Si  2.74  9.08 -9.55
Si -11.58 -1.50 -6.71
