500
set: 252.00  0.00  0.00
Si -0.01 -0.03 -0.03
Si  1.81  1.03  0.78
Si -1.85  1.03  0.72
Si -0.03  0.04 -2.25
Si  0.04 -2.11  0.78
Si -1.85  1.04  2.93
Si -1.78  3.14  0.00
Si  3.62 -0.04 -0.01
Si -1.83 -1.06 -2.94
Si -0.02 -2.08  2.99
Si  1.88  3.12 -0.03
Si  1.81 -1.02 -2.99
Si  1.82 -3.18 -0.01
Si  1.85  1.06  2.97
Si -1.81 -3.20  0.02
Si -3.68  0.00  0.02
Si  0.01  2.14 -3.00
Si  0.00  2.02  3.70
Si  1.79 -3.12 -2.22
Si  0.03  4.16  0.74
Si  1.80 -1.05  3.72
Si -3.65  0.06 -2.20
Si  3.61  0.03 -2.27
Si  3.63 -2.12  0.78
Si -1.83  3.15 -2.24
Si -1.84 -3.15 -2.24
Si  1.85  3.15 -2.24
Si -3.67 -2.10  0.73
Si -1.82 -1.05  3.74
Si  0.03 -4.18 -2.96
Si -0.03  4.18  2.98
Si  3.62 -2.07  3.00
Si -3.65 -2.10  2.96
Si -3.64  2.15 -2.98
Si  3.67  2.10 -2.98
Si  5.40  1.06  0.72
Si -3.61  4.18  0.70
Si  0.01 -4.16  3.71
Si -3.64  2.11  3.68
Si -1.81 -5.24  0.79
Si  3.66  2.07  3.70
Si -1.79 -1.07 -5.20
Si  0.01  2.13 -5.19
Si  1.84 -5.26  0.70
Si  3.64  4.20  0.79
Si  1.81 -1.04 -5.21
Si -5.50  1.06  0.72
Si  1.78  1.05 -5.88
Si -1.75  1.04 -5.91
Si -5.43 -0.99 -2.98
Si -5.42  1.04  2.98
Si -1.79  5.25 -2.92
Si -0.01 -6.27 -0.00
Si -0.01  6.28  0.01
Si  0.03 -2.10 -5.92
Si  1.82 -1.06  5.92
Si  3.66 -4.19 -2.92
Si -1.75 -5.25  2.99
Si  5.44 -3.16  0.01
Si  5.44  3.17 -0.00
Si  1.82  5.24 -2.98
Si  0.02  2.15  5.92
Si -3.63 -4.20 -2.98
Si  1.78 -5.24  3.01
Si  5.47 -0.99 -2.98
Si -5.46 -3.16  0.01
Si -5.46  3.17 -0.00
Si -1.79 -1.04  5.97
Si  5.48  1.04  2.98
Si -3.67  4.19  3.01
Si  3.70  4.19  2.99
Si  1.84  5.19  3.69
Si  3.60 -4.20  3.66
Si  0.00 -6.26 -2.21
Si -5.45 -3.12 -2.20
Si -1.85  5.24  3.66
Si  5.45 -3.12 -2.20
Si -3.60  2.04 -5.21
Si -5.44 -1.07  3.70
Si  5.46 -1.07  3.70
Si -3.60 -4.25  3.69
Si -5.45  3.18 -2.21
Si  5.45  3.18 -2.21
Si  3.60  2.09 -5.24
Si  0.01 -4.22 -5.20
Si  0.00  6.32 -2.20
Si  0.00  0.03  6.70
Si  0.01 -4.15  5.89
Si  7.22  0.00  0.02
Si  3.63  6.24  0.02
Si -3.59 -2.08 -5.92
Si -3.63  6.26 -0.01
Si -3.63  2.12  5.91
Si -3.57 -6.32 -0.03
Si -0.02  4.21 -5.91
Si  3.62  2.09  5.96
Si -7.28 -0.04 -0.01
Si  3.67 -6.29  0.00
Si  3.60 -2.11 -5.97
Si  7.23 -2.10  0.73
Si  3.62 -4.19 -5.15
Si  3.60 -0.00  6.66
Si -1.84  3.17  6.63
Si -1.82  5.25 -5.15
Si  7.25  0.06 -2.20
Si -3.60 -6.29 -2.24
Si  1.78  7.33  0.73
Si -1.82  7.32  0.78
Si  3.60  6.29 -2.24
Si  1.80  5.24 -5.18
Si -1.83 -3.14  6.66
Si  3.62 -6.28 -2.24
Si  1.85 -3.14  6.66
Si -5.42 -5.27  0.74
Si -3.65 -4.20 -5.18
Si -7.26 -2.12  0.78
Si -5.45 -1.12 -5.19
Si  5.45 -1.12 -5.19
Si -3.66  0.02  6.68
Si -3.66  6.32 -2.22
Si -7.29  0.03 -2.27
Si  5.48 -5.27  0.74
Si  1.80  3.21  6.70
Si  1.81 -7.29 -2.98
Si -1.83 -5.21 -5.90
Si -3.64 -4.15  5.92
Si  5.42  1.03 -5.92
Si -7.22  2.10 -2.98
Si  7.24 -2.10  2.96
Si -5.42 -1.03  5.93
Si -1.78  5.25  5.92
Si  3.62  4.22 -5.90
Si  1.79  7.34  2.96
Si -1.78 -7.34 -2.98
Si -5.42  5.26 -2.96
Si  5.42 -5.26  2.98
Si  1.79 -5.25 -5.93
Si -5.47  1.03 -5.92
Si  3.67 -4.19  5.92
Si -3.65  4.19 -5.93
Si  7.26  2.15 -2.98
Si  5.47 -1.03  5.93
Si -7.28 -2.07  3.00
Si  1.81  5.29  5.92
Si  5.47  5.26 -2.96
Si -5.47 -5.26  2.98
Si -1.83  7.37  3.00
Si -1.81  1.05 -8.10
Si -7.24  2.07  3.70
Si  1.81 -7.33  3.68
Si -0.05 -8.38  0.72
Si  7.26  2.11  3.68
Si -7.26  4.20  0.79
Si  7.29  4.18  0.70
Si -5.44  5.27  3.71
Si -1.79 -7.37  3.70
Si -0.05 -2.08 -8.17
Si  5.46  5.27  3.71
Si  1.84  1.03 -8.20
Si -7.20  4.19  2.99
Si -7.24 -4.19 -2.92
Si  7.23  4.19  3.01
Si -0.01  0.02 -8.90
Si  0.03 -8.39  2.98
Si -0.01 -0.01  8.91
Si  7.27 -4.20 -2.98
Si  0.02  8.44 -2.98
Si -0.03 -6.25  6.65
Si  0.04  4.18 -8.12
Si  9.04  1.03  0.72
Si -5.41  7.32  0.78
Si -3.64 -2.12 -8.12
Si  0.01  8.37  3.70
Si  5.42  3.19  6.65
Si -5.44  5.22 -5.20
Si  5.46  5.22 -5.20
Si -5.45 -3.11  6.68
Si  3.59 -8.40  0.72
Si  5.45 -3.11  6.68
Si  3.59 -2.11 -8.17
Si -9.09  1.03  0.78
Si -7.30 -4.20  3.66
Si -5.48  3.19  6.65
Si  5.49  7.32  0.78
Si  7.29  2.04 -5.21
Si -3.64 -8.41  0.78
Si  0.00  6.33  6.68
Si -1.85 -7.35 -5.24
Si  7.29 -4.25  3.69
Si -7.30  2.09 -5.24
Si  1.84 -7.39 -5.21
Si -9.02  3.12 -0.03
Si  9.05  1.04  2.93
Si -1.83  9.39 -0.01
Si -1.81  3.09 -8.88
Si -7.26  6.24  0.02
Si  5.43 -5.22 -5.91
Si  1.81 -7.32  5.91
Si -9.04  1.06  2.97
Si -3.59 -8.37  2.97
Si -5.44 -7.30 -3.00
Si -1.83  3.10  8.88
Si  1.77 -3.14 -8.88
Si -7.23 -6.29  0.00
Si  3.62  8.38 -2.94
Si  9.06 -1.06 -2.94
Si  7.27  6.26 -0.01
Si -3.63 -0.03  8.88
Si  3.60 -8.40  2.93
Si -5.47 -5.22 -5.91
Si  7.26  2.12  5.91
Si  1.77 -9.44  0.02
Si  5.46 -7.30 -3.00
Si -5.44  5.28  5.89
Si  1.77  9.44  0.02
Si -1.78 -3.15  8.90
Si  1.88 -3.17  8.87
Si -3.57 -0.03 -8.92
Si  1.82  3.11 -8.91
Si  5.46  5.28  5.89
Si -9.08 -3.18 -0.01
Si  1.77  3.15  8.91
Si -9.08 -1.02 -2.99
Si  5.43  7.36  2.99
Si  3.67 -0.00 -8.90
Si  1.85  7.36 -5.92
Si  9.08 -3.20  0.02
Si -1.85  7.33 -5.97
Si  3.63 -0.05  8.92
Si  7.30 -2.08 -5.92
Si -7.28  2.09  5.96
Si -1.83 -7.35  5.96
Si  9.12  3.14  0.00
Si -3.63  8.41 -2.99
Si -1.83 -3.19 -8.91
Si -5.47  7.36  2.99
Si -1.83 -9.48 -0.01
Si -7.30 -2.11 -5.97
Si  7.33 -6.32 -0.03
Si  1.80 -9.38 -2.20
Si  0.00  8.31 -5.19
Si  3.61 -6.26  6.63
Si  3.63  4.18 -8.12
Si -9.05  3.15 -2.24
Si -1.82 -5.26 -8.12
Si  9.05 -3.15 -2.24
Si  1.78  1.04  9.63
Si -3.65 -6.23  6.70
Si  7.25 -4.20 -5.18
Si -5.42  1.02 -8.16
Si -3.60  6.30  6.66
Si  7.24  0.02  6.68
Si -7.27 -4.19 -5.15
Si -1.84 -9.41 -2.27
Si  7.24  6.32 -2.22
Si  3.62  6.30  6.66
Si  9.07  3.15 -2.24
Si  0.03 -2.13  9.64
Si -7.28 -6.28 -2.24
Si  9.07 -1.05  3.74
Si -3.65  8.39  3.72
Si  1.78 -5.25 -8.17
Si -7.29 -0.00  6.66
Si  3.62  8.39  3.74
Si  5.48  1.02 -8.16
Si -9.11 -3.12 -2.22
Si -9.10 -1.05  3.72
Si -3.67  4.19 -8.17
Si -7.29  6.29 -2.24
Si  7.30 -6.29 -2.24
Si -1.82  1.03  9.68
Si -1.84  9.47 -2.27
Si  1.80  9.50 -2.20
Si -5.45 -7.42  3.70
Si  5.45 -7.42  3.70
Si -7.22 -4.19  5.92
Si  7.26 -4.15  5.92
Si  7.24  4.19 -5.93
Si -7.28  4.22 -5.90
Si -0.03 -8.41 -5.92
Si  0.03  8.41  5.93
Si -3.61 -2.11  9.60
Si -5.44 -7.31 -5.19
Si  5.46 -7.31 -5.19
Si -9.06 -5.26  0.70
Si -0.05  4.21  9.62
Si  3.66  8.36 -5.20
Si  9.09 -5.24  0.79
Si -0.05 10.50  0.72
Si -9.09 -1.04 -5.21
Si -3.64  8.40 -5.21
Si  9.11 -1.07 -5.20
Si  3.64 -2.09  9.69
Si -5.43 -7.29  5.92
Si  0.02 -10.43 -2.98
Si  5.44  3.12  8.87
Si  5.47 -7.29  5.92
Si  5.44  9.41 -0.03
Si -5.42  7.34 -5.92
Si -5.46  3.12  8.87
Si -5.46  9.41 -0.03
Si  5.44  3.13 -8.89
Si -3.63  8.38  5.92
Si -3.67 -8.39 -5.88
Si  5.44 -3.13  8.90
Si -9.08 -1.06  5.92
Si 10.89 -0.03 -0.03
Si -0.01 -6.32  8.87
Si -5.46  3.13 -8.89
Si -9.08  5.24 -2.98
Si -0.01 -6.30 -8.89
Si -5.46 -3.13  8.90
Si  0.03 10.48  2.98
Si -9.12  1.05 -5.88
Si -0.01  6.26 -8.93
Si  5.48  7.34 -5.92
Si -10.91 -0.03 -0.03
Si -0.01  6.31  8.90
Si  9.11  5.25 -2.92
Si  3.70 -8.39 -5.91
Si  5.44 -9.47 -0.03
Si  5.44 -3.17 -8.93
Si -5.46 -9.47 -0.03
Si -5.46 -3.17 -8.93
Si  3.66  8.39  5.97
Si -9.12 -5.24  3.01
Si  9.11 -1.04  5.97
Si  9.15  1.04 -5.91
Si  9.15 -5.25  2.99
Si -9.05  5.19  3.69
Si  9.05  5.24  3.66
Si  1.81  7.32 -8.12
Si  5.42 -9.40 -2.25
Si -5.41 -5.26 -8.12
Si -10.85 -2.11  0.78
Si  3.59  4.18  9.62
Si  7.26 -2.12 -8.12
Si  3.59 10.47  0.72
Si 10.87  0.04 -2.25
Si -5.48 -9.40 -2.25
Si -3.64 10.46  0.78
Si  0.00  0.03 -11.11
Si -1.85 -5.26  9.62
Si  5.49 -5.26 -8.12
Si -1.85  7.33 -8.17
Si -5.41  1.03  9.68
Si  7.26 -8.41  0.78
Si  0.01 -10.51  3.70
Si  5.42  9.48 -2.25
Si -3.64  4.17  9.68
Si -10.93  0.04 -2.25
Si -7.30 -8.40  0.72
Si -7.30 -2.11 -8.17
Si  1.81 -5.26  9.68
Si 10.94 -2.11  0.78
Si -5.48  9.48 -2.25
Si  5.49  1.03  9.68
Si -3.57  6.26  8.87
Si  3.60 10.47  2.93
Si -7.23 -0.00 -8.90
Si 10.88 -2.08  2.99
Si  3.62  6.25 -8.91
Si -3.64 -10.46 -2.99
Si  7.27 -0.03  8.88
Si -7.28  8.38 -2.94
Si  3.62 -10.50 -2.94
Si -3.68  6.29 -8.88
Si -3.59 10.50  2.97
Si -10.88  2.14 -3.00
Si  3.62 -6.34  8.88
Si  3.67  6.29  8.90
Si  3.63 -6.35 -8.88
Si  7.30 -8.37  2.97
Si -7.26 -0.05  8.92
Si -7.30 -8.40  2.93
Si -10.92 -2.08  2.99
Si  7.26  8.41 -2.99
Si -3.68 -6.29  8.91
Si -3.63 -6.32 -8.91
Si 10.91  2.14 -3.00
Si  7.33 -0.03 -8.92
Si  1.80 -3.09 -11.10
Si  9.06  3.17  6.63
Si -10.87  4.16  0.74
Si -9.05 -3.14  6.66
Si -7.26  4.18 -8.12
Si  7.25 -6.23  6.70
Si -7.29 -6.26  6.63
Si  9.07  5.25 -5.15
Si  1.79 -9.41  6.68
Si -10.89  2.02  3.70
Si  9.07 -3.14  6.66
Si  7.23  4.19 -8.17
Si 10.90  2.02  3.70
Si  7.25  8.39  3.72
Si  9.08  7.32  0.78
Si -1.84  9.43  6.66
Si  1.79  3.17 -11.11
Si -1.84 -9.44  6.66
Si -3.60  0.01 -11.13
Si  1.78 -11.54  0.73
Si -7.28  6.30  6.66
Si  3.62 -10.48  3.74
Si  3.62  0.01 -11.13
Si -9.10  5.24 -5.18
Si -3.65 -10.49  3.72
Si 10.93  4.16  0.74
Si  7.30  6.30  6.66
Si -1.84  3.14 -11.14
Si -7.27  8.39  3.74
Si  1.79  9.46  6.68
Si -9.11  7.33  0.73
Si -1.82 -11.55  0.78
Si  0.03 -8.42 -8.16
Si -1.84 -3.12 -11.17
Si -9.10  3.21  6.70
Si  0.00 -10.56 -5.19
Si  9.06 -5.21 -5.90
Si -10.87 -4.18 -2.96
Si 10.87  4.18  2.98
Si -9.09 -7.29 -2.98
Si -0.03 10.47 -5.92
Si -1.83 -11.51  3.00
Si  0.03 -10.47  5.93
Si  1.79  1.05 11.86
Si  1.79 -11.54  2.96
Si -1.78 11.54 -2.98
Si  0.03  2.12 -11.86
Si -1.78 -1.05 -11.88
Si  1.81 -1.00 -11.88
Si  9.06  7.37  3.00
Si -9.10  7.34  2.96
Si 10.92 -4.18 -2.96
Si -9.09  5.29  5.92
Si -0.03 -2.11 11.88
Si -9.10 -5.25 -5.93
Si -10.92  4.18  2.98
Si  9.12  5.25  5.92
Si  9.12 -7.34 -2.98
Si -1.83  1.08 11.90
Si  1.81 11.58 -2.98
Si  5.40 -5.23  9.62
Si  1.84  7.33  9.60
Si  3.64 -8.38 -8.10
Si -1.79 11.51  3.70
Si -7.24  8.36 -5.20
Si  9.09  1.05 -8.10
Si -10.88 -4.16  3.71
Si  7.29 -2.11  9.60
Si -9.09 -7.33  3.68
Si -10.88  2.13 -5.19
Si  5.40  7.35 -8.17
Si 10.91 -4.16  3.71
Si -3.64 -10.47 -5.21
Si -5.50 -5.23  9.62
Si  1.81 11.55  3.68
Si -9.06  1.03 -8.20
Si  7.26  8.40 -5.21
Si 10.91  2.13 -5.19
Si -3.61 -8.40 -8.20
Si  9.11 -7.37  3.70
Si -7.26 -2.09  9.69
Si  3.66 -10.51 -5.20
Si -5.50  7.35 -8.17
Si -1.81  7.35  9.69
Si -7.20 -8.39 -5.91
Si  7.23 -8.39 -5.88
Si -10.86 -2.10 -5.92
Si  3.66  2.10 -11.82
Si 10.88 -6.27 -0.00
Si 10.89  6.28  0.01
Si -10.88  2.15  5.92
Si -3.67 10.48 -5.88
Si  7.27  8.38  5.92
Si  0.02 -4.14 -11.87
Si -3.63 -10.49  5.92
Si -10.91 -6.27 -0.00
Si -10.91  6.28  0.01
Si  3.70 10.48 -5.91
Si -7.24  8.39  5.97
Si -3.63  2.09 -11.88
Si  0.03  4.19 11.88
Si -0.01 -12.60  0.01
Si -0.01 12.60 -0.00
Si  3.66 -10.48  5.97
Si 10.93 -2.10 -5.92
Si 10.92  2.15  5.92
Si  3.70 -2.10 11.88
Si -3.67 -2.10 11.91
Si -1.85 -1.05 12.56
Si  1.84 11.48 -5.21
Si  0.00 -6.26 -11.10
Si  0.00 -12.55 -2.20
Si -10.90 -6.26 -2.21
Si  7.26 10.46  0.78
Si 10.90 -6.26 -2.21
Si -5.45  3.17 -11.10
Si  1.84 -1.10 12.59
Si -5.45 -9.41  6.70
Si  5.45  3.17 -11.10
