500
set: 1584.00  0.00  0.00
Si -1.27 -0.23  0.26
Si  0.56  1.61  0.25
Si  0.20 -1.29  1.44
Si  0.88  0.86  2.17
Si -1.85 -1.53 -1.46
Si -0.86  1.84 -2.53
Si  1.73 -2.88  0.25
Si  2.59  2.14 -1.33
Si -1.54 -0.30 -3.26
Si -0.98  3.20  1.44
Si  0.31 -2.64 -2.53
Si -3.67 -0.08  1.45
Si -1.29  1.97  3.24
Si  2.57 -1.47 -2.79
Si -0.12 -2.52  3.24
Si  3.13  2.03  1.91
Si  2.67  0.91 -3.25
Si  1.39  3.02 -2.79
Si -3.03  2.95 -1.46
Si  3.77 -2.35 -1.33
Si  4.41 -0.08  1.45
Si  2.05 -3.63  2.17
Si -0.09 -4.72  0.26
Si -0.01 -1.89 -4.45
Si -3.77 -2.46  1.91
Si -2.44  4.25  0.26
Si -4.31 -2.35 -1.33
Si  0.47 -1.22  4.96
Si -3.74  1.15  3.37
Si -1.18  2.60 -4.45
Si  4.31 -2.46  1.91
Si -2.57 -3.34  3.37
Si -2.49 -4.57  1.45
Si -3.00  0.76 -4.44
Si  2.30  0.62  4.95
Si  4.33  1.15  3.37
Si  3.23  4.41  1.45
Si -4.94  2.03  1.91
Si -0.30  5.34  2.17
Si -0.37 -4.79 -3.26
Si -2.72  4.19 -3.26
Si -0.70  3.27  4.96
Si  5.04  2.95 -1.46
Si -5.48  2.14 -1.33
Si -1.83 -3.73 -4.44
Si  1.37 -5.77  1.44
Si -0.62  6.09  0.25
Si  3.84 -3.58 -3.25
Si -0.68 -6.02 -1.46
Si -5.50 -1.47 -2.79
Si -5.41  0.91 -3.25
Si -4.23 -3.58 -3.25
Si  1.49  5.40 -3.25
Si  2.02 -1.36 -6.03
Si -1.93 -1.07  6.15
Si  0.76  2.21  6.13
Si  6.22 -1.53 -1.46
Si -4.84  4.41  1.45
Si  5.07  0.76 -4.44
Si  6.81 -0.23  0.26
Si  1.94 -2.27  6.13
Si  0.85  3.12 -6.03
Si  1.42  6.62 -1.33
Si -6.34 -2.88  0.25
Si  5.63  4.25  0.26
Si  1.96  6.51  1.91
Si -2.04  6.33 -2.53
Si -3.59 -0.55 -6.16
Si  3.47 -3.87  4.95
Si  1.12  5.11  4.95
Si  5.50 -3.34  3.37
Si  3.15  5.63  3.37
Si  6.53 -0.30 -3.26
Si  2.62 -0.13  6.87
Si  5.58 -4.57  1.45
Si -6.02 -3.63  2.17
Si -3.20  1.04  6.61
Si  5.35  4.19 -3.26
Si  0.83 -0.48 -7.48
Si -1.43 -1.66 -7.22
Si -7.20  0.86  2.17
Si  3.74 -5.96 -2.79
Si -2.46  6.45  3.24
Si -5.77  0.62  4.95
Si  4.48 -0.55 -6.16
Si -3.13 -6.84 -1.33
Si -2.59 -6.95  1.91
Si -7.51  1.61  0.25
Si -3.10  3.42  6.15
Si  1.49 -7.13 -2.53
Si -2.03 -3.45  6.61
Si  1.65 -5.71  4.96
Si  6.78  1.97  3.24
Si -4.60 -3.87  4.95
Si  1.06 -7.01  3.24
Si -6.68  3.02 -2.79
Si  7.21  1.84 -2.53
Si  1.17 -6.38 -4.45
Si -4.33 -5.96 -2.79
Si  3.89  5.24 -4.44
Si  7.09  3.20  1.44
Si  2.91 -7.37  0.25
Si  0.22  7.50 -2.79
Si  0.45  0.98  7.94
Si  3.30  3.94 -6.16
Si -4.18  5.24 -4.44
Si -7.88 -1.29  1.44
Si -2.15  7.69  1.44
Si -2.60  2.83 -7.22
Si -4.92  5.63  3.37
Si  0.93  1.90 -7.94
Si  1.44  4.36  6.87
Si  4.87  1.04  6.61
Si -2.00  0.16  8.06
Si -2.42 -5.03 -6.16
Si -0.75 -5.55  6.15
Si  8.27 -1.29  1.44
Si -0.35  4.00 -7.48
Si  3.87  7.44 -1.46
Si  6.24 -3.73 -4.44
Si  4.94 -6.84 -1.33
Si -7.76 -2.64 -2.53
Si  6.89  2.60 -4.45
Si  2.10 -2.59 -7.94
Si  4.97  3.42  6.15
Si -1.39 -7.83  3.37
Si -3.28  0.69 -7.96
Si -6.05 -1.36 -6.03
Si -4.20  7.44 -1.46
Si -2.36  7.08 -4.45
Si -4.77  3.94 -6.16
Si  6.14 -1.07  6.15
Si -5.46 -0.13  6.87
Si  8.63  1.61  0.25
Si  1.62 -3.51  7.94
Si  7.96 -2.52  3.24
Si -6.70 -5.77  1.44
Si -6.14 -2.27  6.13
Si  3.20 -5.85 -6.03
Si -5.16 -7.37  0.25
Si  3.23 -8.12  2.17
Si  5.48 -6.95  1.91
Si -2.11 -3.80 -7.96
Si -0.41  6.70  6.13
Si  6.03  6.33 -2.53
Si  3.79 -4.62  6.87
Si -6.58  5.40 -3.25
Si -6.12  6.51  1.91
Si  5.61  6.45  3.24
Si  8.38 -2.64 -2.53
Si -7.60 -1.22  4.96
Si -8.19 -2.52  3.24
Si -0.83 -4.33  8.06
Si  2.00 -4.97 -7.48
Si -3.06 -8.06 -3.25
Si  2.06  8.89  1.45
Si  8.95  0.86  2.17
Si -1.32 -9.05  1.45
Si  1.08 -9.21  0.26
Si  7.98 -4.72  0.26
Si  4.79  0.69 -7.96
Si -4.28 -4.62  6.87
Si -9.34 -0.23  0.26
Si -1.75 -0.90 -9.14
Si -0.66 -8.22 -4.44
Si  3.70  5.53  6.61
Si -1.88  7.75  4.96
Si  8.07 -1.89 -4.45
Si -8.08 -1.89 -4.45
Si -8.16 -4.72  0.26
Si -3.62  8.74  0.26
Si  7.37  3.27  4.96
Si -8.94  1.84 -2.53
Si -6.66  6.62 -1.33
Si -0.25 -6.14 -7.22
Si  5.47  2.83 -7.22
Si  6.05 -3.45  6.61
Si  7.46  6.09  0.25
Si  7.70 -4.79 -3.26
Si  3.11 -6.76  6.13
Si  7.39 -6.02 -1.46
Si -4.38  5.53  6.61
Si -0.73  5.46  7.94
Si  7.77  5.34  2.17
Si -4.85 -8.12  2.17
Si -9.05  3.20  1.44
Si -4.87 -5.85 -6.03
Si -0.33  7.61 -6.03
Si  5.65 -5.03 -6.16
Si -7.31  2.21  6.13
Si  5.92  7.69  1.44
Si  4.46  8.74  0.26
Si -3.18  4.65  8.06
Si  0.81 -9.27 -3.26
Si  3.33  1.74 -9.13
Si -7.22  3.12 -6.03
Si -6.42 -5.71  4.96
Si -6.95  5.11  4.95
Si  6.64 -1.66 -7.22
Si  8.55 -1.22  4.96
Si  1.04  2.28  9.66
Si -6.59 -7.13 -2.53
Si  5.02 -8.06 -3.25
Si -3.89  8.68 -3.26
Si  6.07  0.16  8.06
Si -9.36  1.97  3.24
Si  5.72  7.08 -4.45
Si -9.93 -1.53 -1.46
Si  2.21 -2.21  9.66
Si -9.62 -0.30 -3.26
Si  3.61  5.18 -7.96
Si -8.37  5.34  2.17
Si  4.18  8.68 -3.26
Si -1.48  9.83  2.17
Si -3.57 -2.74 -9.13
Si -0.25  6.38 -7.94
Si  9.81 -2.88  0.25
Si -8.44 -4.79 -3.26
Si -2.92  3.58 -9.14
Si -5.97 -2.59 -7.94
Si -3.42 -8.35  4.95
Si  9.46  3.02 -2.79
Si -0.85 -7.93  6.61
Si -4.96 -6.76  6.13
Si -6.90 -6.38 -4.45
Si  0.32  9.88 -3.25
Si -7.25 -0.48 -7.48
Si -7.01 -7.01  3.24
Si -4.75  1.74 -9.13
Si -4.04 -0.37  9.65
Si  4.04 -0.37  9.65
Si -4.46  5.18 -7.96
Si -6.63  4.36  6.87
Si  4.89  4.65  8.06
Si  4.50 -2.74 -9.13
Si -9.25  2.60 -4.45
Si -8.77  3.27  4.96
Si -8.69  6.09  0.25
Si  0.50 -10.51 -1.46
Si -0.57 -5.39 -9.14
Si  5.96 -3.80 -7.96
Si  2.13  8.43 -6.16
Si  2.55 -10.26  1.44
Si  3.79  7.91  6.15
Si -8.75 -6.02 -1.46
Si -1.79 10.58  0.25
Si  0.29 -0.38 -10.73
Si  4.65 -8.35  4.95
Si -0.05  9.59  4.95
Si -6.45 -3.51  7.94
Si  6.68 -7.83  3.37
Si -6.02  8.89  1.45
Si -6.07 -4.97 -7.48
Si  1.98 10.12  3.37
Si -7.15  1.90 -7.94
Si  2.86  4.12  9.65
Si -4.28  7.91  6.15
Si 10.66  2.14 -1.33
Si -3.78  7.32 -7.22
Si 10.12 -3.63  2.17
Si  8.83  2.21  6.13
Si  2.72  9.73 -4.44
Si -0.19 -2.05 10.85
Si -7.62  0.98  7.94
Si  7.32 -5.55  6.15
Si  5.15  3.58 -9.14
Si  6.20  7.75  4.96
Si 10.64 -1.47 -2.79
Si  3.28 -7.08 -7.94
Si  4.29  7.32 -7.22
Si  6.33 -0.90 -9.14
Si  9.44 -5.77  1.44
Si -2.86 -4.85  9.65
Si  2.50  1.23 10.83
Si  0.24 11.11 -1.33
Si  0.78 11.00  1.91
Si  0.27  8.84  6.87
Si -1.36  2.43 10.85
Si  2.74  0.44 -10.85
Si  8.92  3.12 -6.03
Si -7.86  7.50 -2.79
Si 10.74  0.91 -3.25
Si -3.15 -10.44 -2.79
Si  2.15  6.23 -9.13
Si -10.51  4.25  0.26
Si  6.76 -9.05  1.45
Si -1.46  0.05 11.31
Si -1.24 -9.52 -6.16
Si -1.52  8.49 -7.48
Si  9.56  5.40 -3.25
Si -9.90 -3.73 -4.44
Si  7.72  4.00 -7.48
Si 10.37  0.62  4.95
Si -5.86 -2.21  9.66
Si  8.29  7.50 -2.79
Si -0.89  4.11 -10.73
Si -0.93 -8.28 -7.96
Si 11.20  2.03  1.91
Si -6.99 -9.21  0.26
Si -3.21 10.82 -2.53
Si -1.96 -11.32 -1.33
Si -11.10  2.95 -1.46
Si -10.56 -4.57  1.45
Si  2.80 -8.00  7.94
Si  9.20  5.11  4.95
Si  8.90 -0.48 -7.48
Si  9.49  6.62 -1.33
Si -10.64 -3.34  3.37
Si -4.79 -7.08 -7.94
Si  7.24 -4.33  8.06
Si -1.42 -11.43  1.91
Si  2.82 -10.19  4.96
Si  8.52  0.98  7.94
Si -5.21  4.12  9.65
Si -5.53 -10.26  1.44
Si  0.42 -10.04  6.15
Si -10.00 -1.07  6.15
Si -0.14  6.77  9.66
Si -3.11 -9.11  6.87
Si -11.74 -0.08  1.45
Si 10.10 -1.36 -6.03
Si  1.46 -4.86 -10.73
Si  4.92 -10.44 -2.79
Si  7.66  6.70  6.13
Si  3.67 -3.26 10.83
Si -2.39 -7.23 -9.13
Si  7.42 -8.22 -4.44
Si  0.35 -8.81  8.06
Si -8.42  4.00 -7.48
Si 10.01 -2.27  6.13
Si -11.08  0.76 -4.44
Si  9.13 -7.01  3.24
Si -5.36  9.73 -4.44
Si  2.34 -10.86 -4.45
Si -3.64 10.94  3.24
Si  5.21 -4.85  9.65
Si -5.94  8.43 -6.16
Si  1.56  4.93 -10.85
Si -10.79  4.19 -3.26
Si  6.60  9.83  2.17
Si -9.50 -1.66 -7.22
Si  9.24 -6.38 -4.45
Si -5.33  0.44 -10.85
Si -8.82 -5.55  6.15
Si 10.03  6.51  1.91
Si  7.35  5.46  7.94
Si  4.86 10.82 -2.53
Si -4.40 -3.26 10.83
Si 11.84 -2.35 -1.33
Si  2.23 -11.49  3.24
Si -0.29 -4.43 11.31
Si  9.00  1.90 -7.94
Si -7.03  2.28  9.66
Si  2.66 -11.62 -2.53
Si  9.56 -7.13 -2.53
Si -10.11  6.33 -2.53
Si -3.72 -1.12 11.57
Si 11.30  4.41  1.45
Si -7.26 -9.27 -3.26
Si -0.91  0.50 -12.18
Si  3.91 -4.04 -10.85
Si  3.39 -6.69  9.66
Si  4.43 10.94  3.24
Si -11.84 -2.46  1.91
Si -5.57  1.23 10.83
Si  2.52 10.01  6.61
Si -6.09 10.12  3.37
Si  7.82 -6.14 -7.22
Si -4.16 -4.04 -10.85
Si  6.28 10.58  0.25
Si  2.69 11.93 -1.46
Si  9.72 -5.71  4.96
Si  1.32  5.71 10.83
Si -11.81  1.15  3.37
Si -0.96 11.99 -2.79
Si -3.17 -0.67 -11.92
Si  4.35 -1.12 11.57
Si  7.75  7.61 -6.03
Si -8.49  6.70  6.13
Si -5.27 -8.00  7.94
Si  4.96 -9.11  6.87
Si  3.18  3.37 11.57
Si -2.64  4.54 11.31
Si  3.18 -9.46 -7.48
Si -5.25 -10.19  4.96
Si -3.99 -11.85  0.25
Si  9.51  4.36  6.87
Si -3.70 -10.34 -6.03
Si  4.08 -11.85  0.25
Si -5.92  6.23 -9.13
Si -10.10 -3.45  6.61
Si 12.48 -0.08  1.45
Si  7.22 -7.93  6.61
Si -8.32 -6.14 -7.22
Si -4.68 -6.69  9.66
Si -12.38 -2.35 -1.33
Si -3.33 12.17  1.44
Si 10.69 -0.13  6.87
Si  0.99 -6.54 10.85
Si -9.46 -7.83  3.37
Si  3.72  9.13  8.06
Si  4.38 -10.34 -6.03
Si  0.36 -1.60 -12.64
Si  2.44  9.66 -7.96
Si 12.38 -2.46  1.91
Si -0.22 -12.31  3.37
Si -8.90 -4.33  8.06
Si -10.54  6.45  3.24
Si -8.73 -8.22 -4.44
Si -0.26 -0.83 12.76
Si  0.26 -3.98 -12.18
Si  2.19 -0.01 12.64
Si  3.98  8.07 -9.14
Si -8.40  7.61 -6.03
Si  7.82  6.38 -7.94
Si 11.91 -3.58 -3.25
Si -1.59 11.19  6.13
Si -4.09  8.07 -9.14
Si -10.66 -6.95  1.91
Si -1.90  9.95  7.94
Si -10.23  7.69  1.44
Si  0.92 -10.63 -7.22
Si -3.53 11.57 -4.45
Si 12.40  1.15  3.37
Si -10.08  0.16  8.06
Si  4.91 -0.67 -11.92
Si  6.12 -11.32 -1.33
Si -4.35  9.13  8.06
Si  5.68 -7.23 -9.13
Si -7.76  9.88 -3.25
Si  6.71  2.43 10.85
Si  9.16 -9.21  0.26
Si -0.81  2.88 -12.64
Si  7.50 -5.39 -9.14
Si 11.23  5.63  3.37
Si -4.89  3.37 11.57
Si  9.70 -3.51  7.94
Si -4.89 -9.46 -7.48
Si -7.58 -10.51 -1.46
Si  1.69  8.61  9.65
Si -8.80  5.46  7.94
Si -5.73 -10.86 -4.45
Si -5.41 -11.62 -2.53
Si  3.73  3.82 -11.92
Si  6.55  8.49 -7.48
Si -1.88 -12.55 -3.25
Si  6.61  0.05 11.31
Si -2.54 -5.61 11.57
Si -11.27  1.04  6.61
Si -2.54  6.92 10.85
Si -9.39 -9.05  1.45
Si  3.05  1.68 -12.66
Si -1.99 -5.16 -11.92
Si 11.54 -3.87  4.95
Si  4.74 12.17  1.44
Si -8.32  6.38 -7.94
Si -10.49 -5.03 -6.16
Si 10.17 -2.59 -7.94
Si -5.38 11.93 -1.46
Si -11.20 -6.84 -1.33
Si -10.68  2.83 -7.22
Si  4.54 11.57 -4.45
Si -11.67 -0.55 -6.16
Si -11.18  3.42  6.15
Si -12.30 -3.58 -3.25
Si -5.55 10.01  6.61
Si 10.98 -7.37  0.25
Si  6.83 -9.52 -6.16
Si  8.88 -9.27 -3.26
Si -4.34  3.82 -11.92
Si -7.79 -0.38 -10.73
Si -5.84 -11.49  3.24
Si -3.67 -12.60  2.17
Si -13.01  2.03  1.91
Si -2.09  4.99 -12.18
Si -7.29 11.00  1.91
Si  5.43  4.54 11.31
Si -1.44  3.66 12.76
Si -3.79 -11.25  6.13
Si  8.39  9.88 -3.25
Si  6.66 -11.43  1.91
Si -10.43  7.08 -4.45
Si  1.01  4.48 12.64
Si -9.82 -0.90 -9.14
Si  8.02  9.59  4.95
Si  0.52 -12.71 -4.44
Si -10.18 -3.80 -7.96
Si  9.11  2.28  9.66
Si  0.60 -9.88 -9.14
Si  0.88 13.38  1.45
Si 10.07 -4.97 -7.48
Si -6.61 -4.86 -10.73
Si  4.29 -11.25  6.13
Si -8.12  9.59  4.95
Si 11.81 -5.96 -2.79
Si 11.38  3.94 -6.16
Si 13.12  2.95 -1.46
Si  4.40 -12.60  2.17
Si -3.85 -2.81 -12.66
Si  7.14 -8.28 -7.96
