500
set: 133.00  0.00  0.00
Si -0.02  0.10  0.02
Si  0.02 -2.08  0.75
Si  0.12 -0.04 -2.27
Si  1.93  1.05  0.75
Si -1.89  1.14  0.86
Si  1.81 -3.19 -0.04
Si -1.81 -1.07 -3.03
Si  0.01  2.15 -3.00
Si -3.69 -0.01  0.00
Si -1.88 -3.20 -0.01
Si -1.83  3.24  0.01
Si  1.90  1.07  3.06
Si  0.03 -2.20  3.05
Si -1.81  0.98  3.15
Si  1.93  3.25  0.01
Si  3.78 -0.03 -0.11
Si  1.94 -1.18 -3.06
Si -3.70  0.04 -2.27
Si  1.93  3.18 -2.27
Si  0.06  2.19  3.78
Si -1.94 -3.20 -2.28
Si  1.87 -1.11  3.81
Si -1.88  3.23 -2.31
Si  3.76 -2.20  0.61
Si  0.07  4.35  0.70
Si -3.77 -2.16  0.74
Si -1.91 -1.15  3.81
Si  1.82 -3.34 -2.31
Si  3.83 -0.13 -2.40
Si  3.67 -2.21  2.93
Si  0.05  4.32  2.98
Si  3.81  2.09 -3.08
Si -0.10 -4.36 -3.06
Si -3.80 -2.20  3.02
Si -3.77  2.20 -3.08
Si  1.76 -5.35  0.74
Si -0.03  2.21 -5.27
Si  5.56  1.06  0.76
Si -3.68  2.13  3.84
Si  1.82 -1.03 -5.35
Si -1.81 -5.42  0.72
Si -1.90 -1.03 -5.34
Si -5.63  1.03  0.79
Si -3.73  4.35  0.80
Si  3.75  2.15  3.87
Si  0.06 -4.34  3.86
Si  3.76  4.37  0.80
Si  1.83 -1.05  6.05
Si  0.07  2.14  6.06
Si -1.83 -5.37  3.04
Si  5.59  3.20  0.09
Si -5.58  1.12  3.02
Si  3.77 -4.26 -3.04
Si -5.61  3.19 -0.00
Si -5.60 -1.04 -3.04
Si -1.92  1.15 -6.06
Si  1.94  5.37 -3.05
Si -3.77 -4.32 -3.00
Si  1.91  1.19 -6.07
Si  3.74  4.29  3.10
Si  5.61  1.00  3.10
Si -5.65 -3.20  0.03
Si -0.04 -2.11 -6.14
Si -1.93 -1.08  6.11
Si -1.85  5.41 -3.09
Si -0.06  6.50 -0.05
Si -3.76  4.30  3.11
Si  1.90 -5.43  3.07
Si -0.02 -6.52 -0.06
Si  5.68 -3.27  0.01
Si  5.68 -1.15 -3.13
Si -0.04  0.04  6.81
Si -1.84  5.38  3.77
Si  5.58  3.24 -2.22
Si  3.73 -4.31  3.78
Si -0.09 -4.28 -5.33
Si -3.71 -4.34  3.77
Si  5.57 -1.17  3.81
Si  0.00  6.45 -2.32
Si -5.62 -1.09  3.79
Si -5.61  3.29 -2.25
Si  1.89  5.38  3.86
Si -5.66 -3.24 -2.26
Si  0.02 -6.51 -2.33
Si -3.78  2.25 -5.35
Si  5.67 -3.31 -2.32
Si  3.84  2.23 -5.39
Si  3.68 -2.08 -6.08
Si -3.71 -2.19 -6.03
Si -3.77 -6.40  0.05
Si  7.43 -0.02  0.06
Si  3.65 -6.48  0.00
Si -0.00  4.34 -6.07
Si -0.00 -4.29  6.15
Si  3.71  6.56  0.05
Si -3.84  6.48  0.00
Si -7.53 -0.02  0.06
Si  3.76  2.13  6.19
Si -3.80  2.24  6.14
Si  3.69 -4.29 -5.33
Si  1.91 -3.21  6.82
Si -3.71 -6.47 -2.23
Si -1.82  3.26  6.83
Si  7.45  0.04 -2.27
Si -1.88 -3.19  6.85
Si -1.97  7.50  0.74
Si -5.61 -1.13 -5.29
Si  5.52 -5.46  0.74
Si -7.46 -2.16  0.82
Si -3.77 -4.37 -5.30
Si  3.77 -6.46 -2.32
Si  3.77  6.49 -2.23
Si -3.71  6.50 -2.32
Si  1.75  7.61  0.81
Si  1.86  3.19  6.93
Si -7.52  0.04 -2.27
Si  3.71 -0.05  6.92
Si  7.51 -2.16  0.82
Si -3.80  0.03  6.89
Si -1.88  5.45 -5.37
Si -5.73 -5.35  0.81
Si  5.66 -1.06 -5.39
Si  1.91  5.43 -5.40
Si -5.61  1.04 -6.03
Si -3.76 -4.24  6.07
Si  5.58  5.35 -3.04
Si  1.81 -5.29 -6.15
Si  5.55 -1.14  6.08
Si  7.46  2.18 -2.97
Si  5.54 -5.43  3.00
Si  3.72 -4.29  6.08
Si -1.94  7.53  3.00
Si -1.75  5.42  6.08
Si -5.58  5.38 -3.07
Si  1.85  7.53  3.06
Si  7.46 -2.22  3.06
Si -7.51  2.18 -2.97
Si -5.68 -0.97  6.07
Si  3.72  4.34 -6.13
Si  1.91 -7.57 -3.07
Si -5.62 -5.43  3.06
Si  1.87  5.36  6.19
Si -7.51 -2.22  3.06
Si -1.90 -7.61 -3.04
Si -1.93 -5.46 -6.13
Si -3.76  4.40 -6.15
Si  5.73  1.10 -6.13
Si -1.85 -7.50  3.84
Si  1.87  1.11 -8.36
Si -1.85  1.14 -8.37
Si  7.47  2.17  3.79
Si -7.47  4.32  0.78
Si  1.87 -7.53  3.86
Si -7.49  2.17  3.79
Si  0.02 -8.64  0.78
Si  7.50  4.32  0.78
Si -0.01 -2.15 -8.43
Si -5.62  5.43  3.86
Si  5.63  5.46  3.84
Si -0.01 -8.61  3.06
Si  0.03 -0.03  9.13
Si  0.03  8.60 -3.08
Si -0.01  0.03 -9.16
Si -7.45 -4.35 -3.08
Si  7.47  4.35  3.06
Si -7.49  4.35  3.06
Si  7.51 -4.35 -3.08
Si -7.44  2.20 -5.26
Si  1.85 -7.46 -5.38
Si -3.71 -8.59  0.80
Si -3.73 -2.17 -8.35
Si  0.06  4.29 -8.36
Si -5.64 -3.14  6.84
Si -0.03  8.60  3.82
Si  5.66  5.32 -5.34
Si  9.34  1.03  0.79
Si  3.75 -8.61  0.80
Si  7.45 -4.36  3.82
Si  7.52  2.20 -5.26
Si  5.58  3.29  6.88
Si  5.67  7.54  0.72
Si  3.81 -2.19 -8.38
Si -0.03 -6.43  6.95
Si -7.51 -4.36  3.82
Si -9.40  1.06  0.76
Si -5.66  3.29  6.87
Si -1.82 -7.64 -5.34
Si  5.66 -3.32  6.88
Si  0.04  6.52  6.95
Si -5.64  5.50 -5.38
Si -5.72  7.60  0.74
Si -1.81  3.17  9.09
Si  7.42 -6.45 -0.05
Si  1.91 -7.45  6.14
Si  3.73 -0.01 -9.11
Si -9.29 -3.27  0.01
Si -3.73 -0.03 -9.11
Si -1.81  9.68  0.01
Si  7.46  6.43 -0.06
Si  9.32 -3.20  0.03
Si  7.44  2.21  6.08
Si -1.85 -3.23  9.13
Si  3.70  8.63 -3.00
Si -9.29 -1.15 -3.13
Si -5.59  7.53  3.07
Si  5.56 -5.40 -6.11
Si -7.41 -2.18 -6.15
Si -5.54 -7.59 -3.05
Si  1.90  3.21 -9.15
Si -7.50  6.43 -0.06
Si  9.36  3.19 -0.00
Si -1.86 -3.31 -9.12
Si -1.92 -7.49  6.16
Si  9.36 -1.04 -3.04
Si -9.35  1.00  3.10
Si -1.93  7.56 -6.11
Si -3.72  0.05  9.18
Si -9.38  3.20  0.09
Si  5.64 -7.54 -3.09
Si -1.83  3.27 -9.18
Si -7.52  2.21  6.08
Si  3.73 -8.65  3.11
Si  9.38  1.12  3.02
Si  1.91 -3.20 -9.20
Si -7.54 -6.45 -0.05
Si  1.83  9.76  0.03
Si  1.94 -3.27  9.17
Si  1.88  3.28  9.18
Si -3.72  8.69 -3.04
Si  5.64  7.59  3.04
Si  5.55  5.47  6.16
Si -5.64 -5.37 -6.17
Si -3.73 -8.67  3.10
Si  3.71 -0.01  9.22
Si -1.89 -9.76  0.09
Si  1.88 -9.77 -0.00
Si  1.83  7.59 -6.17
Si -5.58  5.51  6.14
Si  7.55 -2.18 -6.15
Si -1.82  9.65 -2.32
Si  7.39  0.04  6.89
Si  9.30 -3.24 -2.26
Si  1.87 -9.67 -2.25
Si -3.78 -6.38  6.87
Si -5.59  1.06 -8.36
Si -1.81  1.01  9.90
Si  3.84 -6.41  6.83
Si  3.77  8.62  3.77
Si -9.29 -3.31 -2.32
Si -7.46  6.45 -2.33
Si  0.00 -2.19  9.90
Si -3.65  6.55  6.83
Si  1.81  9.72 -2.26
Si  9.35 -1.09  3.79
Si  7.45 -4.28 -5.41
Si -1.90 -9.72 -2.22
Si -3.76  8.65  3.78
Si  7.50  6.45 -2.33
Si  9.35  3.29 -2.25
Si -9.38  3.24 -2.22
Si  5.65 -7.58  3.77
Si -5.59 -7.58  3.86
Si -7.48 -6.50 -2.32
Si -3.71  4.30 -8.45
Si  1.81  1.08  9.96
Si  7.49 -6.50 -2.32
Si  1.87 -5.41 -8.43
Si  3.73  4.33 -8.44
Si  3.70  6.57  6.87
Si -7.52 -4.28 -5.41
Si -9.39 -1.17  3.81
Si -1.91 -5.49 -8.40
Si  5.65  1.06 -8.45
Si -0.04  8.68 -5.41
Si -7.58  0.04  6.89
Si -7.45 -4.34  6.10
Si -7.45  4.30 -6.12
Si  0.03  8.62  6.10
Si  0.04 -8.66 -6.12
Si  7.52 -4.34  6.10
Si  7.52  4.30 -6.12
Si  9.23 -5.35  0.81
Si  3.71  8.59 -5.30
Si -3.71 -2.14  9.90
Si  5.60 -7.50 -5.37
Si  9.35 -1.13 -5.29
Si -9.30 -1.06 -5.39
Si -5.57 -7.53 -5.40
Si  0.02 10.80  0.82
Si -3.80  8.67 -5.33
Si -0.04  4.36  9.95
Si  3.77 -2.15  9.99
Si -9.45 -5.46  0.74
Si  9.29 -0.97  6.07
Si -9.23  1.10 -6.13
Si -5.54  3.15  9.16
Si  5.55  7.50 -6.13
Si -0.03 10.74  3.06
Si  9.35  1.04 -6.03
Si  3.73 -8.56 -6.15
Si -11.18 -0.03 -0.11
Si -0.02 -10.78 -2.97
Si -5.55 -9.71  0.01
Si -5.58 -3.25  9.15
Si -5.58 -3.25 -9.15
Si  0.03  6.43 -9.17
Si  5.68 -3.33 -9.07
Si -5.62  3.21 -9.15
Si -3.76 -8.61 -6.13
Si  5.54  3.21 -9.22
Si -9.39  5.35 -3.04
Si  9.34 -5.43  3.06
Si  5.58 -3.29  9.18
Si -3.77  8.66  6.08
Si  5.66 -9.71  0.01
Si  9.38  5.38 -3.07
Si -0.02 -6.54 -9.15
Si  5.60  9.76 -0.01
Si  5.73 -7.54  6.08
Si  3.72  8.72  6.07
Si 11.27 -0.01  0.00
Si -9.42 -1.14  6.08
Si  5.67  3.25  9.19
Si  0.01 -6.49  9.22
Si -9.42 -5.43  3.00
Si -3.66  4.19  9.82
Si -5.61 -7.60  6.19
Si -5.67  9.77 -0.04
Si -0.03  6.50  9.24
Si -5.68  7.67 -6.15
Si -7.41 -8.61  0.70
Si -11.14 -0.13 -2.40
Si -3.73 10.76  0.61
Si -5.67  9.62 -2.31
Si -1.91  7.48 -8.41
Si 11.19 -2.16  0.74
Si  5.54  1.12  9.94
Si -0.01 -10.79  3.79
Si -7.42 -2.13 -8.44
Si  1.87  7.53 -8.40
Si -11.21 -2.20  0.61
Si  0.02  0.00 -11.44
Si  3.70 10.80  0.74
Si -1.88 -5.41  9.91
Si  5.54  9.76 -2.28
Si -5.67  0.98  9.91
Si  5.60 -9.73 -2.31
Si -5.61 -5.43 -8.40
Si  7.55 -8.61  0.70
Si -5.55 -9.78 -2.27
Si -9.34  5.46  3.84
Si  9.35  5.43  3.86
Si  5.58 -5.47 -8.41
Si 11.26  0.04 -2.27
Si  3.77  4.36  9.94
Si  1.93 -5.46  9.95
Si  7.55 -2.13 -8.44
Si  7.38  8.60 -3.06
Si -3.68  6.41  9.14
Si  3.68 10.75  3.02
Si -11.16  2.09 -3.08
Si  7.38 -0.04  9.16
Si 11.16 -2.20  3.02
Si -7.42 -8.64  2.98
Si -3.82 10.74  2.93
Si  3.71 -10.76 -3.08
Si -3.77 -6.44  9.13
Si 11.19  2.20 -3.08
Si  3.71  6.52  9.13
Si  7.54 -8.64  2.98
Si -7.42  0.00 -9.24
Si -3.80  6.43 -9.20
Si -7.58  8.60 -3.06
Si  3.69 -6.52 -9.20
Si  3.81 -6.55  9.14
Si  3.67  6.43 -9.29
Si -3.67 -10.87 -3.08
Si -11.30 -2.21  2.93
Si -7.58 -0.04  9.16
Si  7.54  0.00 -9.24
Si -3.81 -6.53 -9.29
Si -9.31  5.32 -5.34
Si -1.83  9.64  6.88
Si  0.05 -10.76 -5.26
Si  9.33 -3.14  6.84
Si  9.24  7.60  0.74
Si -9.30  7.54  0.72
Si  1.82 -9.67  6.87
Si -3.72  0.05 -11.41
Si -7.43  8.61  3.86
Si -1.90 -9.67  6.88
Si  7.45  4.28 -8.40
Si  3.75  0.03 -11.42
Si  9.30  3.29  6.87
Si  1.86 -3.29 -11.43
Si -9.31 -3.32  6.88
Si -7.44 -6.44  6.95
Si -11.20  4.37  0.80
Si -7.51  4.28 -8.40
Si -11.22  2.15  3.87
Si  1.76  3.28 -11.48
Si -3.73 -10.81  3.87
Si -1.92 -3.26 -11.46
Si 11.23  4.35  0.80
Si -1.81  3.22 -11.49
Si -1.92 -11.90  0.76
Si  7.53  8.61  3.86
Si -0.03 -8.68 -8.40
Si  9.33  5.50 -5.38
Si -9.39  3.29  6.88
Si  1.86 -11.93  0.79
Si  7.45  6.53  6.95
Si  3.81 -10.83  3.84
Si  7.52 -6.44  6.95
Si  1.84  9.82  6.84
Si 11.29  2.13  3.84
Si -7.52  6.53  6.95
Si -1.89 -1.12 -12.13
Si -0.04 -10.75  6.08
Si -0.06 -2.13 12.17
Si -1.81 11.81 -3.13
Si -11.20 -4.26 -3.04
Si 11.19 -4.32 -3.00
Si  1.91 -11.84  3.02
Si -9.33 -7.54 -3.09
Si -9.32  7.59  3.04
Si  9.32 -5.37 -6.17
Si 11.21  4.30  3.11
Si -1.81  1.04 12.23
Si -11.22  4.29  3.10
Si  0.07 10.78 -6.15
Si  9.38  7.53  3.07
Si  1.88 -1.13 -12.22
Si  1.83  1.12 12.25
Si  1.88 11.92 -3.04
Si -9.41 -5.40 -6.11
Si -0.02  2.12 -12.28
Si  9.43 -7.59 -3.05
Si -1.86 -11.95  3.10
Si  9.38  5.51  6.14
Si -9.41  5.47  6.16
Si  3.71 -10.71 -5.35
Si -1.91 11.79  3.81
Si -3.64 -10.73 -5.39
Si  5.57  7.47 -8.40
Si -11.13  2.23 -5.39
Si  7.39  8.68 -5.33
Si -7.46 -2.19  9.89
Si -9.32 -7.58  3.77
Si  1.86 11.87  3.79
Si  9.37  1.06 -8.36
Si  7.50 -2.19  9.89
Si 11.19  2.25 -5.35
Si -11.24 -4.31  3.78
Si -9.32  1.06 -8.45
Si -5.61 -5.35  9.96
Si -5.62  7.55 -8.43
Si 11.26 -4.34  3.77
Si -3.75 -8.63 -8.44
Si  9.37 -7.58  3.86
Si  5.58 -5.40 10.00
Si  1.86  7.61  9.96
Si -1.90  7.56 10.00
Si  3.78 -8.66 -8.45
Si -7.58  8.68 -5.33
Si 11.13  6.48  0.00
Si  3.68 -10.72  6.14
Si 11.19 -6.40  0.05
Si  3.76 10.77 -6.03
Si -0.05 -4.34 -12.16
Si -7.48 -8.61 -6.07
Si  7.48 -8.61 -6.07
Si  3.65  2.16 -12.21
Si -3.77  2.24 -12.17
Si 11.16  2.24  6.14
Si -0.06 12.94  0.06
Si 11.25 -2.19 -6.03
Si -11.20  2.13  6.19
Si -0.05 -12.97  0.06
Si -11.28 -2.08 -6.08
Si  3.71 -2.08 12.27
Si -3.84 -2.16 12.22
Si  7.48  8.66  6.15
Si -7.49  8.66  6.15
Si -0.05  4.30 12.27
Si -3.71 -10.83  6.19
Si -11.26  6.56  0.05
Si -3.80 10.88 -6.08
Si -11.31 -6.48  0.00
Si  5.59 -3.18 -11.36
Si  1.86 11.83 -5.29
Si -13.03  1.05  0.75
Si -7.37  4.28  9.95
Si  5.59 -11.81  0.86
Si  0.03 -6.48 -11.39
Si -0.03 -12.92 -2.27
Si 11.17  0.03  6.89
Si  5.52  3.18 -11.47
Si -11.19 -6.46 -2.32
Si -11.19  6.49 -2.23
