500
set: 93.00  0.00  0.00
Si  0.00  0.00  0.00
Si -0.14  0.09  2.32
Si  0.14 -0.09 -2.32
Si  1.20  2.04  0.00
Si -1.20 -2.04  0.00
Si -1.21  2.04  0.00
Si  1.21 -2.04  0.00
Si -2.41  0.00  0.00
Si  2.41  0.00  0.00
Si -1.08  1.96 -2.32
Si  1.08 -1.96  2.32
Si  2.27  0.09  2.32
Si -2.27 -0.09 -2.32
Si -1.33 -1.96  2.32
Si  1.33  1.96 -2.32
Si -1.06 -2.13 -2.32
Si  1.06  2.13  2.32
Si  1.35 -2.13 -2.32
Si -1.35  2.13  2.32
Si -2.55  0.09  2.32
Si  2.55 -0.09 -2.32
Si -0.02  4.09  0.00
Si  0.02 -4.09  0.00
Si  3.60  2.04  0.00
Si -3.60 -2.04  0.00
Si  3.62 -2.04  0.00
Si -3.62  2.04  0.00
Si -3.48  1.96 -2.32
Si  3.48 -1.96  2.32
Si -0.12 -4.00  2.32
Si  0.12  4.00 -2.32
Si  0.28 -0.17 -4.64
Si -0.28  0.17  4.64
Si -3.47 -2.13 -2.32
Si  3.47  2.13  2.32
Si -2.39 -4.09  0.00
Si  2.39  4.09  0.00
Si  2.43 -4.09  0.00
Si -2.43  4.09  0.00
Si  0.16 -4.17 -2.32
Si -0.16  4.17  2.32
Si  4.82  0.00  0.00
Si -4.82  0.00  0.00
Si -3.74 -1.96  2.32
Si  3.74  1.96 -2.32
Si  3.76 -2.13 -2.32
Si -3.76  2.13  2.32
Si -0.94  1.87 -4.64
Si  0.94 -1.87  4.64
Si  2.13  0.17  4.64
Si -2.13 -0.17 -4.64
Si -2.29  4.00 -2.32
Si  2.29 -4.00  2.32
Si  1.47  1.87 -4.64
Si -1.47 -1.87  4.64
Si  4.68  0.09  2.32
Si -4.68 -0.09 -2.32
Si  0.92  2.22  4.64
Si -0.92 -2.22 -4.64
Si  2.53  4.00 -2.32
Si -2.53 -4.00  2.32
Si  2.25  4.17  2.32
Si -2.25 -4.17 -2.32
Si -1.49  2.22  4.64
Si  1.49 -2.22 -4.64
Si  2.68 -0.17 -4.64
Si -2.68  0.17  4.64
Si  2.56 -4.17 -2.32
Si -2.56  4.17  2.32
Si  4.96 -0.09 -2.32
Si -4.96  0.09  2.32
Si  3.35 -1.87  4.64
Si -3.35  1.87 -4.64
Si -0.26 -3.92  4.64
Si  0.26  3.92 -4.64
Si  3.33  2.22  4.64
Si -3.33 -2.22 -4.64
Si  1.18  6.13  0.00
Si -1.18 -6.13  0.00
Si -1.23  6.13  0.00
Si  1.23 -6.13  0.00
Si  4.80  4.09  0.00
Si -4.80 -4.09  0.00
Si  0.29 -4.26 -4.64
Si -0.29  4.26  4.64
Si  3.88  1.87 -4.64
Si -3.88 -1.87  4.64
Si -4.84  4.09  0.00
Si  4.84 -4.09  0.00
Si -6.01 -2.04  0.00
Si  6.01  2.04  0.00
Si  6.03 -2.04  0.00
Si -6.03  2.04  0.00
Si -2.15  3.92 -4.64
Si  2.15 -3.92  4.64
Si  3.90 -2.22 -4.64
Si -3.90  2.22  4.64
Si -4.54 -0.17 -4.64
Si  4.54  0.17  4.64
Si -1.09  6.05 -2.32
Si  1.09 -6.05  2.32
Si -4.70  4.00 -2.32
Si  4.70 -4.00  2.32
Si  1.31  6.05 -2.32
Si -1.31 -6.05  2.32
Si  5.89 -1.96  2.32
Si -5.89  1.96 -2.32
Si -2.67 -3.92  4.64
Si  2.67  3.92 -4.64
Si -2.12 -4.26 -4.64
Si  2.12  4.26  4.64
Si  5.88  2.13  2.32
Si -5.88 -2.13 -2.32
Si  4.66  4.17  2.32
Si -4.66 -4.17 -2.32
Si -1.04 -6.22 -2.32
Si  1.04  6.22  2.32
Si -4.94 -4.00  2.32
Si  4.94  4.00 -2.32
Si -1.37  6.22  2.32
Si  1.37 -6.22 -2.32
Si -2.70  4.26  4.64
Si  2.70 -4.26 -4.64
Si  6.15  1.96 -2.32
Si -6.15 -1.96  2.32
Si -5.09  0.17  4.64
Si  5.09 -0.17 -4.64
Si -4.97  4.17  2.32
Si  4.97 -4.17 -2.32
Si  6.17 -2.13 -2.32
Si -6.17  2.13  2.32
Si  0.41 -0.26 -6.96
Si -0.41  0.26  6.96
Si  3.58  6.13  0.00
Si -3.58 -6.13  0.00
Si -3.64  6.13  0.00
Si  3.64 -6.13  0.00
Si  7.23  0.00  0.00
Si -7.23  0.00  0.00
Si  0.80 -1.79  6.96
Si -0.80  1.79 -6.96
Si  2.00  0.26  6.96
Si -2.00 -0.26 -6.96
Si -3.50  6.05 -2.32
Si  3.50 -6.05  2.32
Si  1.61  1.79 -6.96
Si -1.61 -1.79  6.96
Si -0.78 -2.30 -6.96
Si  0.78  2.30  6.96
Si  7.09  0.09  2.32
Si -7.09 -0.09 -2.32
Si -3.72 -6.05  2.32
Si  3.72  6.05 -2.32
Si  3.45  6.22  2.32
Si -3.45 -6.22 -2.32
Si -1.63  2.30  6.96
Si  1.63 -2.30 -6.96
Si -2.82  0.26  6.96
Si  2.82 -0.26 -6.96
Si  4.56 -3.92  4.64
Si -4.56  3.92 -4.64
Si  0.96 -5.96  4.64
Si -0.96  5.96 -4.64
Si  5.76 -1.87  4.64
Si -5.76  1.87 -4.64
Si -3.78  6.22  2.32
Si  3.78 -6.22 -2.32
Si  1.45  5.96 -4.64
Si -1.45 -5.96  4.64
Si -5.74 -2.22 -4.64
Si  5.74  2.22  4.64
Si -7.36  0.09  2.32
Si  7.36 -0.09 -2.32
Si -4.52 -4.26 -4.64
Si  4.52  4.26  4.64
Si  3.21 -1.79  6.96
Si -3.21  1.79 -6.96
Si -0.90 -6.30 -4.64
Si  0.90  6.30  4.64
Si  5.07  3.92 -4.64
Si -5.07 -3.92  4.64
Si -0.39 -3.83  6.96
Si  0.39  3.83 -6.96
Si  1.51 -6.30 -4.64
Si -1.51  6.30  4.64
Si -3.19 -2.30 -6.96
Si  3.19  2.30  6.96
Si  6.29  1.87 -4.64
Si -6.29 -1.87  4.64
Si -5.11  4.26  4.64
Si  5.11 -4.26 -4.64
Si  6.31 -2.22 -4.64
Si -6.31  2.22  4.64
Si  0.04 -8.18  0.00
Si -0.04  8.18  0.00
Si -2.02  3.83 -6.96
Si  2.02 -3.83  6.96
Si -0.43  4.35  6.96
Si  0.43 -4.35 -6.96
Si  4.02  1.79 -6.96
Si -4.02 -1.79  6.96
Si  4.41  0.26  6.96
Si -4.41 -0.26 -6.96
Si  3.37 -5.96  4.64
Si -3.37  5.96 -4.64
Si -7.21 -4.09  0.00
Si  7.21  4.09  0.00
Si  7.25 -4.09  0.00
Si -7.25  4.09  0.00
Si -6.95 -0.17 -4.64
Si  6.95  0.17  4.64
Si  4.04 -2.30 -6.96
Si -4.04  2.30  6.96
Si -0.10 -8.09  2.32
Si  0.10  8.09 -2.32
Si  2.80  3.83 -6.96
Si -2.80 -3.83  6.96
Si -1.98 -4.35 -6.96
Si  1.98  4.35  6.96
Si  7.11 -4.00  2.32
Si -7.11  4.00 -2.32
Si  3.86  5.96 -4.64
Si -3.86 -5.96  4.64
Si  3.31  6.30  4.64
Si -3.31 -6.30 -4.64
Si  2.37  8.18  0.00
Si -2.37 -8.18  0.00
Si -7.07 -4.17 -2.32
Si  7.07  4.17  2.32
Si  2.45 -8.18  0.00
Si -2.45  8.18  0.00
Si  5.99  6.13  0.00
Si -5.99 -6.13  0.00
Si -0.17  8.26  2.32
Si  0.17 -8.26 -2.32
Si -6.05  6.13  0.00
Si  6.05 -6.13  0.00
Si -8.42 -2.04  0.00
Si  8.42  2.04  0.00
Si -7.34 -4.00  2.32
Si  7.34  4.00 -2.32
Si  8.44 -2.04  0.00
Si -8.44  2.04  0.00
Si  2.84 -4.35 -6.96
Si -2.84  4.35  6.96
Si  5.23 -0.26 -6.96
Si -5.23  0.26  6.96
Si -2.31  8.09 -2.32
Si  2.31 -8.09  2.32
Si  3.92 -6.30 -4.64
Si -3.92  6.30  4.64
Si -5.91  6.05 -2.32
Si  5.91 -6.05  2.32
Si -2.51 -8.09  2.32
Si  2.51  8.09 -2.32
Si  7.38 -4.17 -2.32
Si -7.38  4.17  2.32
Si -7.50  0.17  4.64
Si  7.50 -0.17 -4.64
Si -8.30  1.96 -2.32
Si  8.30 -1.96  2.32
Si  5.86  6.22  2.32
Si -5.86 -6.22 -2.32
Si  8.28  2.13  2.32
Si -8.28 -2.13 -2.32
Si -2.23 -8.26 -2.32
Si  2.23  8.26  2.32
Si  6.13  6.05 -2.32
Si -6.13 -6.05  2.32
Si -2.58  8.26  2.32
Si  2.58 -8.26 -2.32
Si -6.19  6.22  2.32
Si  6.19 -6.22 -2.32
Si -8.56 -1.96  2.32
Si  8.56  1.96 -2.32
Si  4.42 -3.83  6.96
Si -4.42  3.83 -6.96
Si  5.62 -1.79  6.96
Si -5.62  1.79 -6.96
Si  8.58 -2.13 -2.32
Si -8.58  2.13  2.32
Si -0.82  5.88 -6.96
Si  0.82 -5.88  6.96
Si  5.60  2.30  6.96
Si -5.60 -2.30 -6.96
Si  6.97 -3.92  4.64
Si -6.97  3.92 -4.64
Si -1.59 -5.88  6.96
Si  1.59  5.88 -6.96
Si -0.24 -8.01  4.64
Si  0.24  8.01 -4.64
Si -4.39 -4.35 -6.96
Si  4.39  4.35  6.96
Si -0.55  0.34  9.29
Si  0.55 -0.34 -9.29
Si  6.93  4.26  4.64
Si -6.93 -4.26 -4.64
Si  0.67 -1.70  9.29
Si -0.67  1.70 -9.29
Si -4.78 -8.18  0.00
Si  4.78  8.18  0.00
Si  1.86  0.34  9.29
Si -1.86 -0.34 -9.29
Si -0.76 -6.39 -6.96
Si  0.76  6.39  6.96
Si -5.21 -3.83  6.96
Si  5.21  3.83 -6.96
Si -2.17  8.01 -4.64
Si  2.17 -8.01  4.64
Si  4.86 -8.18  0.00
Si -4.86  8.18  0.00
Si -5.78  5.96 -4.64
Si  5.78 -5.96  4.64
Si  0.31 -8.35 -4.64
Si -0.31  8.35  4.64
Si -8.17  1.87 -4.64
Si  8.17 -1.87  4.64
Si -1.64  6.39  6.96
Si  1.64 -6.39 -6.96
Si -1.74 -1.70  9.29
Si  1.74  1.70 -9.29
Si  0.65  2.39  9.29
Si -0.65 -2.39 -9.29
Si  2.65  8.01 -4.64
Si -2.65 -8.01  4.64
Si -8.15 -2.22 -4.64
Si  8.15  2.22  4.64
Si  9.64  0.00  0.00
Si -9.64  0.00  0.00
Si  7.48  3.92 -4.64
Si -7.48 -3.92  4.64
Si  6.42  1.79 -6.96
Si -6.42 -1.79  6.96
Si -4.72  8.09 -2.32
Si  4.72 -8.09  2.32
Si -3.23  5.88 -6.96
Si  3.23 -5.88  6.96
Si -5.72 -6.30 -4.64
Si  5.72  6.30  4.64
Si  5.25 -4.35 -6.96
Si -5.25  4.35  6.96
Si  6.82  0.26  6.96
Si -6.82 -0.26 -6.96
Si -1.76  2.39  9.29
Si  1.76 -2.39 -9.29
Si  4.92  8.09 -2.32
Si -4.92 -8.09  2.32
Si  2.96 -0.34 -9.29
Si -2.96  0.34  9.29
Si  4.64  8.26  2.32
Si -4.64 -8.26 -2.32
Si -6.44  2.30  6.96
Si  6.44 -2.30 -6.96
Si  9.50  0.09  2.32
Si -9.50 -0.09 -2.32
Si  2.10  8.35  4.64
Si -2.10 -8.35 -4.64
Si  7.52 -4.26 -4.64
Si -7.52  4.26  4.64
Si  6.27  5.96 -4.64
Si -6.27 -5.96  4.64
Si -3.07  1.70 -9.29
Si  3.07 -1.70  9.29
Si -4.99  8.26  2.32
Si  4.99 -8.26 -2.32
Si -2.72  8.35  4.64
Si  2.72 -8.35 -4.64
Si  4.00  5.88 -6.96
Si -4.00 -5.88  6.96
Si  3.17  6.39  6.96
Si -3.17 -6.39 -6.96
Si -0.53 -3.75  9.29
Si  0.53  3.75 -9.29
Si -8.70 -1.87  4.64
Si  8.70  1.87 -4.64
Si  9.77 -0.09 -2.32
Si -9.77  0.09  2.32
Si  3.06  2.39  9.29
Si -3.06 -2.39 -9.29
Si -6.33  6.30  4.64
Si  6.33 -6.30 -4.64
Si  8.71 -2.22 -4.64
Si -8.71  2.22  4.64
Si  1.88 -3.75  9.29
Si -1.88  3.75 -9.29
Si  4.27  0.34  9.29
Si -4.27 -0.34 -9.29
Si -4.05  6.39  6.96
Si  4.05 -6.39 -6.96
Si -1.16 -10.22  0.00
Si  1.16 10.22  0.00
Si -1.25 10.22  0.00
Si  1.25 -10.22  0.00
Si  0.57 -4.43 -9.29
Si -0.57  4.43  9.29
Si  4.15  1.70 -9.29
Si -4.15 -1.70  9.29
Si  4.58 -8.01  4.64
Si -4.58  8.01 -4.64
Si  7.64 -0.26 -6.96
Si -7.64  0.26  6.96
Si  8.40  6.13  0.00
Si -8.40 -6.13  0.00
Si -2.94 -3.75  9.29
Si  2.94  3.75 -9.29
Si -8.46  6.13  0.00
Si  8.46 -6.13  0.00
Si -9.62 -4.09  0.00
Si  9.62  4.09  0.00
Si  9.36  0.17  4.64
Si -9.36 -0.17 -4.64
Si  1.84  4.43  9.29
Si -1.84 -4.43 -9.29
Si -4.17  2.39  9.29
Si  4.17 -2.39 -9.29
Si  1.11 -10.13  2.32
Si -1.11 10.13 -2.32
Si -1.29 -10.13  2.32
Si  1.29 10.13 -2.32
Si  6.83 -3.83  6.96
Si -6.83  3.83 -6.96
Si -9.65  4.09  0.00
Si  9.65 -4.09  0.00
Si  5.05  8.01 -4.64
Si -5.05 -8.01  4.64
Si -8.32  6.05 -2.32
Si  8.32 -6.05  2.32
Si  0.38  7.92 -6.96
Si -0.38 -7.92  6.96
Si -4.51 -8.35 -4.64
Si  4.51  8.35  4.64
Si  9.52 -4.00  2.32
Si -9.52  4.00 -2.32
Si  8.27  6.22  2.32
Si -8.27 -6.22 -2.32
Si -1.02 -10.31 -2.32
Si  1.02 10.31  2.32
Si  9.48  4.17  2.32
Si -9.48 -4.17 -2.32
Si  1.39 -10.31 -2.32
Si -1.39 10.31  2.32
Si -6.80 -4.35 -6.96
Si  6.80  4.35  6.96
Si  2.98 -4.43 -9.29
Si -2.98  4.43  9.29
Si -5.64  5.88 -6.96
Si  5.64 -5.88  6.96
Si -8.54 -6.05  2.32
Si  8.54  6.05 -2.32
Si -5.37  0.34  9.29
Si  5.37 -0.34 -9.29
Si -2.03  7.92 -6.96
Si  2.03 -7.92  6.96
Si  8.03 -1.79  6.96
Si -8.03  1.79 -6.96
Si -9.75 -4.00  2.32
Si  9.75  4.00 -2.32
Si -3.57 -10.22  0.00
Si  3.57 10.22  0.00
Si  5.13 -8.35 -4.64
Si -5.13  8.35  4.64
Si -3.66 10.22  0.00
Si  3.66 -10.22  0.00
Si -8.01 -2.30 -6.96
Si  8.01  2.30  6.96
Si  8.60 -6.22 -2.32
Si -8.60  6.22  2.32
Si  7.19  8.18  0.00
Si -7.19 -8.18  0.00
Si -4.29  3.75 -9.29
Si  4.29 -3.75  9.29
Si -9.79  4.17  2.32
Si  9.79 -4.17 -2.32
Si  2.78  7.92 -6.96
Si -2.78 -7.92  6.96
Si -5.48  1.70 -9.29
Si  5.48 -1.70  9.29
Si  7.26 -8.18  0.00
Si -7.26  8.18  0.00
Si -9.91  0.17  4.64
Si  9.91 -0.17 -4.64
Si -0.45  8.43  6.96
Si  0.45 -8.43 -6.96
Si  0.68 -5.79  9.29
Si -0.68  5.79 -9.29
Si -5.58 -6.39 -6.96
Si  5.58  6.39  6.96
Si  3.52 -10.13  2.32
Si -3.52 10.13 -2.32
Si -7.62 -3.83  6.96
Si  7.62  3.83 -6.96
Si -10.83 -2.04  0.00
Si 10.83  2.04  0.00
Si  7.13 -8.09  2.32
Si -7.13  8.09 -2.32
Si -5.46 -2.39 -9.29
Si  5.46  2.39  9.29
Si  3.70 10.13 -2.32
Si -3.70 -10.13  2.32
Si 10.85 -2.04  0.00
