500
set: 1227.00  0.00  0.00
Si -1.38  0.00  1.08
Si  1.57  0.22  0.78
Si -1.34 -0.13 -1.51
Si  1.34 -0.17 -1.55
Si -0.03  2.05  0.88
Si  0.11 -2.10  1.00
Si  0.28  2.20 -1.56
Si  0.09 -2.37 -1.64
Si -2.48 -2.40  0.85
Si -2.62  2.38  0.86
Si  1.49 -0.17  3.33
Si -1.54 -0.09  3.35
Si  2.74 -2.32  0.90
Si  2.80  2.32  0.83
Si -2.62 -2.25 -1.57
Si -0.00  1.92  3.35
Si -2.63  2.34 -1.74
Si  2.69 -2.51 -1.50
Si -3.92 -0.01  0.90
Si -0.05 -2.18  3.43
Si  3.98 -0.01  0.90
Si  2.87  2.52 -1.64
Si  3.89  0.09 -1.60
Si -4.01  0.09 -1.60
Si  1.35 -0.06 -4.12
Si -1.68  0.02 -4.10
Si -0.19 -2.07 -4.02
Si -0.14  2.03 -4.10
Si  1.12 -4.53  0.86
Si -1.05  4.40 -1.50
Si -1.00  4.59  0.90
Si -1.29 -4.38 -1.64
Si -1.36 -4.59  0.83
Si -2.63  2.40  3.31
Si  2.70  2.15  3.43
Si  1.68  4.51  0.85
Si  1.11 -4.57 -1.74
Si  2.79 -2.57  3.30
Si -2.63 -2.71  3.45
Si  1.54  4.66 -1.57
Si -3.95 -0.17  3.40
Si  3.95 -0.17  3.40
Si  2.57  2.26 -4.02
Si  2.66 -2.46 -4.15
Si -2.77 -2.60 -4.00
Si -0.95  4.34  3.30
Si  3.82 -0.06 -4.05
Si -2.77  2.51 -4.15
Si  1.52  4.20  3.45
Si -5.10  2.32  0.83
Si  1.11 -4.51  3.31
Si -5.16 -2.32  0.90
Si -4.08 -0.06 -4.05
Si  5.28  2.38  0.86
Si -5.03  2.52 -1.64
Si  5.28 -2.25 -1.57
Si -5.21 -2.51 -1.50
Si  5.42 -2.40  0.85
Si  5.27  2.34 -1.74
Si -1.46 -4.75  3.43
Si  1.39  4.31 -4.00
Si -3.66  4.54 -1.64
Si -1.21 -0.24  5.95
Si  1.48 -0.28  5.90
Si -3.63  4.81  1.00
Si  0.97 -4.40 -4.15
Si  3.71 -4.86  0.88
Si -1.08  4.45 -4.15
Si  0.41  2.10  5.89
Si -3.88 -4.70 -1.56
Si  0.22 -2.48  5.82
Si -1.59 -4.64 -4.02
Si -6.33  0.22  0.78
Si  4.02 -4.70 -1.56
Si  4.25  4.54 -1.64
Si -4.19 -4.86  0.88
Si  4.27  4.81  1.00
Si -1.51  0.11 -6.37
Si -5.20  2.15  3.43
Si -5.11 -2.57  3.30
Si  6.52  0.00  1.08
Si -2.50  2.23  5.71
Si  5.27  2.40  3.31
Si  6.56 -0.13 -1.51
Si -6.56 -0.17 -1.55
Si -0.03 -1.99 -6.45
Si -2.49 -2.36  5.88
Si  1.44  0.33 -6.67
Si  5.27 -2.71  3.45
Si -0.17  2.16 -6.57
Si  0.23  6.90  0.90
Si -3.79  4.73  3.43
Si  3.00  2.42  5.81
Si -0.18 -6.91  0.90
Si  5.13 -2.60 -4.00
Si -0.27 -6.82 -1.60
Si -3.88 -0.02  5.85
Si -5.33  2.26 -4.02
Si  5.13  2.51 -4.15
Si  3.74 -4.99  3.35
Si  2.82 -2.62  5.95
Si  4.02 -0.02  5.85
Si -5.24 -2.46 -4.15
Si  4.11  4.73  3.43
Si  0.15  6.99 -1.60
Si  6.36 -0.09  3.35
Si -2.58 -6.69  0.78
Si -6.41 -0.17  3.33
Si -4.16 -4.99  3.35
Si -2.40  6.73 -1.55
Si  3.60 -4.88 -4.10
Si  2.36 -6.91  1.08
Si  2.61 -2.21 -6.55
Si -0.92  4.29  5.95
Si -3.93  4.84 -4.02
Si -1.16 -4.49  5.81
Si  3.97  4.84 -4.02
Si  6.22  0.02 -4.10
Si -2.61 -2.29 -6.60
Si  1.24 -4.68  5.71
Si -2.17  7.12  0.78
Si  2.82  6.78 -1.51
Si  2.78  6.91  1.08
Si  2.67  2.42 -6.62
Si  0.21  6.74  3.40
Si -2.76  2.48 -6.60
Si  2.40 -7.03 -1.51
Si  3.84  0.10 -6.55
Si  1.67  4.55  5.88
Si -4.30 -4.88 -4.10
Si -4.06  0.10 -6.55
Si -6.22  4.51  0.85
Si -6.55 -0.06 -4.12
Si -2.82 -7.08 -1.55
Si -2.25  6.74  3.33
Si -0.21 -7.08  3.40
Si  0.07  6.84 -4.05
Si -4.90  2.42  5.81
Si  0.98 -4.42 -6.60
Si  2.62  6.81  3.35
Si  6.54 -4.59  0.83
Si -6.36  4.66 -1.57
Si  2.20 -7.00  3.35
Si -0.34 -6.97 -4.05
Si -7.62  2.20 -1.56
Si  6.61 -4.38 -1.64
Si -3.52  4.43  5.82
Si -1.50 -4.48 -6.62
Si -7.79 -2.10  1.00
Si -1.13  4.70 -6.55
Si  5.40  2.23  5.71
Si  7.87  2.05  0.88
Si -6.78 -4.53  0.86
Si  1.55  4.62 -6.60
Si -7.93  2.05  0.88
Si -5.08 -2.62  5.95
Si -2.67 -7.07  3.33
Si  6.85  4.40 -1.50
Si  2.06 -6.89 -4.10
Si -7.82 -2.37 -1.64
Si  5.41 -2.36  5.88
Si  6.90  4.59  0.90
Si  8.01 -2.10  1.00
Si -2.39  6.85 -4.12
Si -6.79 -4.57 -1.74
Si -6.38  4.20  3.45
Si  1.71  0.11  8.23
Si  2.48  6.92 -4.10
Si -3.75 -4.81  5.89
Si  7.99 -2.37 -1.64
Si  4.38  4.43  5.82
Si  0.10  1.94  8.33
Si -2.81 -6.96 -4.12
Si  5.32 -6.69  0.78
Si -5.08  6.78 -1.51
Si  8.18  2.20 -1.56
Si -1.24 -0.11  8.54
Si  4.16 -4.81  5.89
Si -5.12  6.91  1.08
Si -5.29 -2.21 -6.55
Si  6.44 -4.75  3.43
Si  5.14  2.48 -6.60
Si -6.42 -0.28  5.90
Si  0.24 -2.21  8.46
Si  5.29 -2.29 -6.60
Si -6.51  4.31 -4.00
Si -5.24  2.42 -6.62
Si  7.90  1.92  3.35
Si -7.91  1.92  3.35
Si -6.79 -4.51  3.31
Si  6.31 -4.64 -4.02
Si  5.50  6.73 -1.55
Si  6.95  4.34  3.30
Si  7.85 -2.18  3.43
Si  5.08 -7.08 -1.55
Si  3.58 -4.75 -6.57
Si -5.54 -6.91  1.08
Si -7.96 -2.18  3.43
Si -3.77  4.92 -6.45
Si  7.71 -2.07 -4.02
Si  6.69 -0.24  5.95
Si -2.49  2.27  8.31
Si -2.34 -2.51  8.30
Si  7.76  2.03 -4.10
Si  6.39  0.11 -6.37
Si  0.28  6.88  5.85
Si -5.50 -7.03 -1.51
Si  2.94  2.21  8.29
Si -0.14 -6.93  5.85
Si -1.48 -0.02 -8.96
Si  1.21 -0.07 -9.01
Si  4.13  4.92 -6.45
Si  6.82  4.45 -4.15
Si -2.27  6.62  5.90
Si  2.88 -2.43  8.35
Si -3.79 -0.11  8.35
Si  5.74  7.12  0.78
Si -4.33 -4.75 -6.57
Si -6.93 -4.40 -4.15
Si -5.28  6.81  3.35
Si -8.04  2.03 -4.10
Si -8.09 -2.07 -4.02
Si -6.46  0.33 -6.67
Si  4.11 -0.11  8.35
Si -0.94  9.22  0.83
Si  0.15  2.31 -9.02
Si -9.28  0.00  1.08
Si  1.12 -9.15 -1.57
Si -0.05 -2.26 -9.09
Si -9.25 -0.13 -1.51
Si  9.24 -0.17 -1.55
Si -1.42 -9.23  0.90
Si  5.23 -7.07  3.33
Si  5.65  6.74  3.33
Si  2.95  6.67  5.95
Si  1.26 -9.31  0.85
Si  1.54  9.28  0.86
Si -0.32 -6.80 -6.55
Si  9.48  0.22  0.78
Si -0.86  4.48  8.35
Si  1.53  9.24 -1.74
Si  5.09 -6.96 -4.12
Si  1.82  4.40  8.30
Si  2.23 -6.80 -6.37
Si  0.10  7.01 -6.55
Si  1.25 -4.64  8.31
Si -1.23 -4.70  8.29
Si -0.87  9.43 -1.64
Si  2.55 -2.40 -8.95
Si -5.70 -7.00  3.35
Si  2.53 -7.14  5.95
Si -1.47 -9.41 -1.50
Si -2.76 -2.14 -9.02
Si -2.68 -7.19  5.90
Si -5.42  6.92 -4.10
Si -6.23  4.55  5.88
Si  5.51  6.85 -4.12
Si -1.04  9.06  3.43
Si -7.49  2.10  5.89
Si -3.77  8.96  0.88
Si -2.72 -6.58 -6.67
Si  3.75  0.19 -9.06
Si  2.65  7.02 -6.37
Si  3.85 -9.01  1.00
Si  2.73  2.63 -9.09
Si -3.46  9.11 -1.56
Si  4.13  8.96  0.88
Si -2.77  2.45 -9.19
Si -4.97  2.21  8.29
Si -5.84 -6.89 -4.10
Si -4.05 -9.01  1.00
Si -6.66 -4.68  5.71
Si -7.68 -2.48  5.82
Si  9.39 -0.17  3.33
Si -4.15  0.19 -9.06
Si  6.74 -4.49  5.81
Si  1.53  9.31  3.31
Si -9.44 -0.09  3.35
Si -5.02 -2.43  8.35
Si -8.90  4.59  0.90
Si -1.18  9.17 -4.02
Si -8.96  4.40 -1.50
Si -1.19  4.51 -8.95
Si -2.30  7.23 -6.67
Si  6.98  4.29  5.95
Si  9.02 -4.53  0.86
Si -1.37 -9.48  3.30
Si  9.25 -0.06 -4.12
Si -1.43 -4.27 -9.09
Si -3.74  8.83  3.35
Si  3.83 -9.27 -1.64
Si  5.41  2.27  8.31
Si -4.95  6.67  5.95
Si  6.41 -4.48 -6.62
Si  9.01 -4.57 -1.74
Si  4.44  9.11 -1.56
Si -6.35  4.62 -6.60
Si -4.08 -9.27 -1.64
Si  0.97 -4.46 -9.19
Si  1.11 -9.61  3.45
Si -3.50  4.70  8.46
Si  8.12 -2.48  5.82
Si  5.56 -2.51  8.30
Si -6.19  0.11  8.23
Si  1.40  4.77 -9.02
Si  4.16  8.83  3.35
Si -9.19 -4.38 -1.64
Si -7.67  6.90  0.90
Si -1.50 -9.37 -4.15
Si  7.63 -6.82 -1.60
Si  0.97 -9.51 -4.00
Si  7.87 -1.99 -6.45
Si -9.26 -4.59  0.83
Si  7.74  2.16 -6.57
Si  1.39  9.42 -4.15
Si  3.69 -9.09  3.43
Si -8.85  4.34  3.30
Si  7.72 -6.91  0.90
Si  8.32  2.10  5.89
Si -7.93 -1.99 -6.45
Si -9.58  0.02 -4.10
Si  3.84 -4.97  8.33
Si  3.55 -8.98 -4.02
Si  5.64  6.62  5.90
Si -4.06 -4.97  8.33
Si  6.77  4.70 -6.55
Si -6.92 -4.42 -6.60
Si -7.75  6.99 -1.60
Si -3.88  8.94 -4.10
Si -4.21 -9.09  3.43
Si  9.01 -4.51  3.31
Si  5.14 -2.14 -9.02
Si  4.02  8.94 -4.10
Si  9.58  4.51  0.85
Si -8.07  2.16 -6.57
Si  4.40  4.70  8.46
Si  9.44  4.66 -1.57
Si  5.22 -7.19  5.90
Si -8.09 -6.91  0.90
Si -10.38 -2.40  0.85
Si -5.35 -2.40 -8.95
Si  8.14  6.90  0.90
Si  5.18 -6.58 -6.67
Si -5.37 -7.14  5.95
Si  8.87 -4.40 -4.15
Si -4.35 -8.98 -4.02
Si -8.17 -6.82 -1.60
Si  0.37  6.79  8.35
Si -7.69  6.74  3.40
Si  8.05  6.99 -1.60
Si -5.17  2.63 -9.09
Si  5.13  2.45 -9.19
Si -10.53  2.38  0.86
Si  6.66 -0.11  8.54
Si -5.25  7.02 -6.37
Si  3.89 -4.59 -9.02
Si -8.98  4.45 -4.15
Si -10.52 -2.25 -1.57
Si  9.43  4.20  3.45
Si -9.11 -0.24  5.95
Si -4.01 -4.59 -9.02
Si -3.79  4.65 -9.09
Si -1.41 -0.20 10.80
Si  1.66  9.13  5.71
Si -5.67 -6.80 -6.37
Si  1.62 -0.27 10.78
Si -0.05 -7.02  8.35
Si -10.53  2.34 -1.74
Si 10.64 -2.32  0.90
Si  0.13  1.81 10.80
Si -2.45 -6.80  8.23
Si 10.70  2.32  0.83
Si 10.59 -2.51 -1.50
Si  7.69 -7.08  3.40
Si  9.29  4.31 -4.00
Si  4.11  4.65 -9.09
Si -2.03  7.02  8.23
Si -0.74  9.32  5.81
Si  6.42 -0.02 -8.96
Si  1.25 -9.26  5.88
Si -9.36 -4.75  3.43
Si  7.56 -6.97 -4.05
Si  8.11  6.74  3.40
Si  9.38 -0.28  5.90
Si  0.08 -2.29 10.88
Si -7.83  6.84 -4.05
Si 10.77  2.52 -1.64
Si -6.08  4.40  8.30
Si -6.69 -0.07 -9.01
Si -3.33  9.00  5.89
Si  7.98  6.84 -4.05
Si -2.50  2.29 10.76
Si -0.41 -6.71 -9.06
Si -6.37  9.28  0.86
Si -8.11 -7.08  3.40
Si  2.92  6.80  8.54
Si -10.54  2.40  3.31
Si -9.49 -4.64 -4.02
Si -1.34 -9.52  5.95
Si  6.48 -9.23  0.90
Si  5.60  7.23 -6.67
Si  2.50 -7.01  8.54
Si -1.55 -9.12 -6.55
Si 10.60  2.15  3.43
Si -6.37  9.24 -1.74
Si -9.41  0.11 -6.37
Si  1.13 -9.20 -6.60
Si -10.54 -2.71  3.45
Si  2.83  2.04 10.88
Si 10.47  2.26 -4.02
Si -6.64 -9.31  0.85
Si  2.93 -2.68 10.75
Si -8.82  4.29  5.95
Si 10.69 -2.57  3.30
Si  9.34  0.33 -6.67
Si -1.07  9.33 -6.62
Si  6.43 -9.41 -1.50
Si -6.78 -9.15 -1.57
Si -3.82 -0.28 10.85
Si  0.01  7.10 -9.06
Si -8.24 -6.97 -4.05
Si -2.50 -2.82 10.90
Si  2.26 -6.92 -8.96
Si  1.40  9.39 -6.60
Si  0.50 11.45 -1.64
Si -7.80  1.94  8.33
Si -0.81  4.23 10.75
Si  6.96  9.22  0.83
Si -2.53  6.84 -9.01
Si  4.08 -0.28 10.85
Si  3.71 -8.90 -6.45
Si -6.65 -4.64  8.31
Si 10.56 -2.46 -4.15
Si  2.68  6.89 -8.96
Si -7.66 -2.21  8.46
Si -2.06 11.41  0.85
Si  6.68 -4.70  8.29
Si  1.22  0.05 -11.57
Si -0.32 -1.96 -11.47
Si -9.06 -4.49  5.81
Si  2.45 -11.29 -1.64
Si -10.67 -2.60 -4.00
Si  4.58  9.00  5.89
Si -1.81  0.12 -11.55
Si -0.14 -11.61 -1.56
Si  8.01  1.94  8.33
Si -10.67  2.51 -4.15
Si -3.94 -9.38  5.82
Si  3.96 -9.38  5.82
Si  9.14 -4.68  5.71
Si -0.27  2.14 -11.56
Si -6.38  9.31  3.31
Si  1.66  4.09 10.90
Si -4.19 -8.90 -6.45
Si -2.95 -6.97 -9.01
Si  0.53 11.71  1.00
Si  1.24 -4.62 10.76
Si  2.38 -11.50  0.83
Si  7.04  4.48  8.35
Si -0.45 -11.77  0.88
Si -7.62  6.88  5.85
Si  3.11 11.31 -1.50
Si -2.22 11.11  3.45
Si -3.91  9.06 -6.57
Si -11.83 -0.01  0.90
Si -3.04 -11.44  0.86
Si  6.86  9.06  3.43
Si  7.03  9.43 -1.64
Si -2.20 11.57 -1.57
Si  4.00  9.06 -6.57
Si 11.79  0.09 -1.60
Si 11.88 -0.01  0.90
Si  8.88 -4.42 -6.60
Si  7.76 -6.93  5.85
Si  8.14 -2.21  8.46
Si  6.47 -4.27 -9.09
Si  3.16 11.49  0.90
Si  2.43  2.37 -11.47
Si  6.53 -9.48  3.30
Si  5.45 -6.80  8.23
Si -1.32 -4.86 10.88
Si -4.99  6.80  8.54
Si -3.05 -11.48 -1.74
Si -11.91  0.09 -1.60
Si  6.73  9.17 -4.02
Si  6.71  4.51 -8.95
Si -10.40  2.23  5.71
Si -2.90 -2.49 -11.46
Si  3.68  0.05 -11.50
Si  6.40 -9.37 -4.15
Si -6.50  4.77 -9.02
Si  2.52 -2.35 -11.60
Si -9.03  4.70 -6.55
Si  7.58 -6.80 -6.55
Si -7.75  2.31 -9.02
Si -8.04 -6.93  5.85
Si  9.57  4.55  5.88
Si  0.36 11.64  3.43
Si -2.35 11.21 -4.00
Si -4.97 -2.68 10.75
