500
set: 687.00  0.00  0.00
Si  0.39  0.07 -1.32
Si -1.41 -0.99  0.88
Si  0.88 -1.91 -0.39
Si  0.43  1.61  1.48
Si -1.24  2.00 -0.49
Si  1.62 -0.30  1.78
Si -1.96  0.05 -1.50
Si  2.66  1.47  0.28
Si -0.02 -0.55  3.07
Si -1.47 -2.55 -1.11
Si -1.80  1.22  2.55
Si -0.11 -1.29 -3.26
Si  3.28 -1.24 -0.24
Si -0.35 -3.42  1.05
Si  2.06  3.05 -0.83
Si -3.73  0.19  0.83
Si  0.28  1.66 -3.55
Si  2.20 -2.10 -2.53
Si  0.42  3.99  1.54
Si -3.27  2.61 -1.23
Si -4.10 -1.28 -0.97
Si  3.05  0.15 -3.27
Si -1.86 -2.08  3.50
Si -1.81 -0.36 -4.17
Si  2.94  2.37 -2.58
Si  2.50 -3.89  0.69
Si -2.11  4.01  1.20
Si  1.25  2.08  4.02
Si -2.34  2.98 -2.80
Si  4.27 -1.03  1.74
Si  4.55  0.95 -1.01
Si  1.39 -2.38  3.94
Si  3.07  0.54  3.68
Si -3.97  0.09 -2.84
Si -1.45 -3.47 -3.21
Si -1.01  1.84  4.47
Si  1.04 -0.14 -4.94
Si  0.58  4.96 -0.95
Si -0.17 -5.00 -0.95
Si  0.09  4.02 -3.20
Si  1.15 -0.44  4.99
Si  3.04  3.65  2.16
Si -1.72 -4.01  2.88
Si -4.38  1.00  2.92
Si  4.06 -3.09 -1.92
Si -4.05 -2.77  2.38
Si  0.47 -3.32 -4.33
Si  4.94  2.31  0.71
Si  1.14 -4.58  2.83
Si -4.97  2.31  0.71
Si -5.36  0.95 -1.01
Si  3.44 -3.15  3.06
Si -4.03 -1.93 -3.36
Si -2.28  3.71  3.53
Si -2.37  5.00 -1.42
Si  4.78 -3.32  0.29
Si -3.78 -0.72  4.43
Si  2.74 -3.91 -3.49
Si  4.26  4.08 -0.89
Si -1.12  2.14 -5.46
Si -5.64 -1.03  1.74
Si  5.81 -1.28 -0.97
Si -3.12 -4.96 -1.42
Si -1.70 -0.66  5.76
Si -5.13 -3.32  0.29
Si -0.32 -5.97  1.54
Si  6.18  0.19  0.83
Si  3.72 -1.66 -4.79
Si -3.46  2.51 -4.66
Si  5.53  1.00  2.92
Si  1.89  5.38  2.83
Si  1.28 -2.08 -5.99
Si  1.15  2.38 -5.92
Si  0.39  1.36  6.38
Si -0.30  4.71  4.53
Si  5.93  0.09 -2.84
Si  4.07  2.17 -4.71
Si -3.35  2.21  5.27
Si  0.40  6.55  1.05
Si -0.97  5.96  2.88
Si  0.58 -3.62  5.60
Si  3.83 -1.96  5.14
Si -2.85 -5.95  1.20
Si -4.57  4.70  1.55
Si -3.89 -0.42 -5.50
Si -6.63 -1.24 -0.24
Si -0.66 -5.94 -3.20
Si -4.84  3.45  3.37
Si  0.00 -1.59  6.67
Si -0.13 -0.25 -6.86
Si  1.98  4.46 -4.85
Si -5.85 -3.09 -1.92
Si  2.09  4.16  5.08
Si  5.86 -2.77  2.38
Si  3.51 -5.89 -0.89
Si  3.25  6.07  0.69
Si  4.18  1.87  5.22
Si -1.97 -1.78 -6.43
Si  2.96  0.84 -6.25
Si  5.07  3.45  3.37
Si -1.05 -5.26  4.53
Si -5.65  4.08 -0.89
Si  5.88 -1.93 -3.36
Si  2.29 -6.31  2.16
Si  1.31 -6.92 -0.83
Si -3.44 -3.66 -5.03
Si -3.33 -3.96  4.90
Si  4.59 -5.26  1.55
Si  6.64  2.61 -1.23
Si -4.62 -4.37 -3.49
Si -0.70  6.50 -3.21
Si  5.34  4.70  1.55
Si  3.16 -0.15  6.66
Si -0.41  5.01 -5.41
Si -7.25  1.47  0.28
Si -1.16 -4.96 -5.41
Si  1.24 -5.50 -4.85
Si -0.72  7.41 -1.11
Si -6.86  0.15 -3.27
Si  6.13 -0.72  4.43
Si -5.32 -5.26  1.55
Si -3.87  5.60 -3.49
Si  0.20  3.72  6.73
Si  5.29 -4.37 -3.49
Si -1.91  1.52 -7.38
Si -6.84  0.54  3.68
Si -3.03 -6.25  3.53
Si -6.96  2.37 -2.58
Si -5.84  2.17 -4.71
Si  3.49  6.05 -3.49
Si -6.46 -3.15  3.06
Si -1.34 -3.77  6.72
Si  1.34 -5.80  5.08
Si -2.39  4.01 -6.40
Si -2.23  2.68  7.13
Si -4.38  6.65  0.29
Si -3.92 -2.23  6.57
Si -5.73  1.87  5.22
Si -6.19 -1.66 -4.79
Si  1.22  6.64 -4.33
Si -6.87  3.65  2.16
Si -3.87 -0.21  7.10
Si  7.95  0.05 -1.50
Si  2.31 -2.40  7.40
Si -3.09 -6.98 -2.80
Si  3.33 -2.85 -6.87
Si  6.02 -0.42 -5.50
Si -2.58  6.00  4.90
Si -1.83 -3.71 -7.05
Si  2.85 -4.21  6.44
Si -6.08 -1.96  5.14
Si  3.05  2.07  7.35
Si -1.98 -7.97 -0.49
Si  1.63  8.06 -0.39
Si -3.30  7.20  2.38
Si  1.51 -0.00 -8.15
Si  2.19 -7.59 -2.58
Si  6.45  2.51 -4.66
Si  1.03 -4.28 -7.10
Si -7.71 -2.10 -2.53
Si -7.41 -3.89  0.69
Si -4.49  1.30 -7.01
Si -7.85  3.05 -0.83
Si -4.01 -7.35 -1.23
Si -8.29 -0.30  1.78
Si -0.32 -8.35  1.48
Si -2.69  6.30 -5.03
Si  4.32 -6.52  3.37
Si  6.79 -4.96 -1.42
Si  4.19  6.81  3.06
Si  1.33  6.34  5.60
Si  8.11  1.22  2.55
Si  7.57  2.98 -2.80
Si  4.81  6.87 -1.92
Si  8.50 -0.99  0.88
Si  0.50 -0.23  8.61
Si -1.85 -0.25  8.43
Si  5.53  6.65  0.29
Si  0.32  1.91 -8.46
Si  6.56  2.21  5.27
Si -1.11  7.88  3.50
Si  1.92 -8.50  0.28
Si -6.39 -5.89 -0.89
Si  4.19 -7.65  0.71
Si -5.10  6.87 -1.92
Si  2.95  7.87 -2.53
Si  2.14  7.59  3.94
Si  7.80  4.01  1.20
Si  0.50 -7.89  4.02
Si -7.17 -3.91 -3.49
Si  8.44 -2.55 -1.11
Si  8.67  2.00 -0.49
Si  6.04  5.60 -3.49
Si  5.42  1.30 -7.01
Si -4.16 -2.47 -7.55
Si  6.47 -3.66 -5.03
Si  8.04 -2.08  3.50
Si -4.95  3.75 -6.56
Si  4.96  3.75 -6.56
Si -6.66  6.07  0.69
Si -0.66  8.97  0.88
Si -0.46 -8.30 -3.55
Si  6.58 -3.96  4.90
Si  8.10 -0.36 -4.17
Si -4.51 -4.67  6.44
Si -3.76  5.30  6.44
Si  7.54  5.00 -1.42
Si -0.59  6.20  6.72
Si  5.99 -2.23  6.57
Si  7.62  3.71  3.53
Si -0.55 -6.24  6.73
Si  2.93  3.96 -7.77
Si -1.51 -0.69 -9.05
Si  4.16 -0.73 -8.19
Si -5.59 -6.52  3.37
Si -9.03 -1.91 -0.39
Si  1.78  5.68 -7.10
Si -3.14 -5.95 -6.40
Si  0.64  8.68 -3.26
Si -3.28  8.03 -3.36
Si  7.05 -5.95  1.20
Si  6.04 -0.21  7.10
Si  3.60  5.75  6.44
Si -3.35  8.68 -0.97
Si -1.36 -2.85  8.82
Si -6.95  0.84 -6.25
Si -5.72  6.81  3.06
Si -0.46 -3.12 -8.88
Si  0.32  4.29 -8.39
Si -1.76 -8.12  4.47
Si -2.55 -8.75  2.55
Si -6.75 -0.15  6.66
Si -1.08  6.26 -7.05
Si -6.42  6.05 -3.49
Si  5.89 -7.35 -1.23
Si -3.16  2.31  8.70
Si  8.19 -4.01  2.88
Si -5.72 -7.65  0.71
Si  5.40 -4.67  6.44
Si -9.52  0.07 -1.32
Si  4.03  8.73 -0.24
Si  0.40 -7.59 -5.92
Si  4.17 -3.39  8.02
Si -1.13  1.70  9.44
Si -8.52 -2.38  3.94
Si  8.46 -3.47 -3.21
Si  3.32 -7.80 -4.71
Si -1.87 -7.82 -5.46
Si -9.48  1.61  1.48
Si  2.17  2.75  9.10
Si -4.21 -7.46 -4.66
Si -8.66  2.08  4.02
Si  5.75 -2.47 -7.55
Si  3.80 -9.02 -1.01
Si  0.99 -2.21  9.54
Si -3.84  0.49 -9.10
Si -6.57 -2.85 -6.87
Si  0.73  9.42  3.07
Si -3.99 -1.58  8.96
Si  6.88 -6.25  3.53
Si  4.21 -6.22 -6.56
Si -2.26  4.70  8.51
Si -2.21  4.31 -8.73
Si -0.36 -9.89 -1.32
Si -5.75 -0.73 -8.19
Si  8.20 -0.66  5.76
Si  6.61  7.20  2.38
Si -8.02  5.38  2.83
Si  2.18 -6.01 -7.77
Si  4.66  0.65  8.92
Si -8.76 -0.44  4.99
Si  2.37  9.66  1.78
Si  2.03  7.89 -5.99
Si -7.62 -6.31  2.16
Si  8.90  1.84  4.47
Si  0.69  4.66  8.98
Si -0.43 -5.67 -8.39
Si  2.56  1.77 -9.65
Si -8.87 -0.14 -4.94
Si  6.82 -6.98 -2.80
Si  1.14 10.04 -1.32
Si -1.21 10.01 -1.50
Si  2.39 -3.59 -9.24
Si  9.56 -3.42  1.05
Si -7.82  4.16  5.08
Si  3.43 -8.10  5.22
Si -4.10 -7.75  5.27
Si -6.86  2.07  7.35
Si -8.77 -4.58  2.83
Si -7.92  4.46 -4.85
Si -4.89  8.93  1.74
Si  6.14  5.30  6.44
Si  9.89 -0.55  3.07
Si  7.94 -1.78 -6.43
Si -5.25  0.65  8.92
Si  3.38 -1.53  9.69
Si  2.32 -9.42  3.68
Si 10.30  0.07 -1.32
Si  5.02  8.93  1.74
Si -2.71 -9.92 -1.50
Si -9.62  1.66 -3.55
Si -9.48  3.99  1.54
Si -9.93 -0.55  3.07
Si  9.80 -1.29 -3.26
Si -5.74 -3.39  8.02
Si -0.06 -5.30  8.98
Si -7.06 -4.21  6.44
Si -3.01 -5.26  8.51
Si  0.87 -10.27  1.78
Si  0.78 -1.61 -10.32
Si -1.22  8.19 -6.43
Si  5.70 -7.46 -4.66
Si -1.06  9.60 -4.17
Si -5.88  8.73 -0.24
Si  4.57  8.00  5.14
Si  8.79  2.14 -5.46
Si 10.34  1.61  1.48
Si  4.47  8.30 -4.79
Si  4.78 -8.97  2.92
Si  2.30 -9.82 -3.27
Si -9.33  4.96 -0.95
Si -10.01 -1.29 -3.26
Si -2.98 10.15  0.83
Si -2.98 -7.28  7.13
Si -3.17  7.73  6.57
Si  2.77  1.17 10.21
Si  7.52  4.01 -6.40
Si  7.32  6.00  4.90
Si -5.70 -6.22 -6.56
Si -3.03  9.25  4.43
Si -6.31  5.75  6.44
Si  3.17 -0.94 -10.17
Si  4.08  7.11 -6.87
Si -8.62 -2.08 -5.99
Si -0.36 -8.60  6.38
Si  4.48 -4.96 -8.38
Si  4.37  3.78  9.04
Si  4.83  2.62 -9.22
Si  0.75  8.38  6.67
Si -5.13 -8.97  2.92
Si -1.34  2.29 -10.42
Si -4.48 -9.78  0.83
Si -6.96  7.87 -2.53
Si -2.96 -5.65 -8.73
Si  7.68  2.68  7.13
Si -4.68  5.00 -8.38
Si  7.22  6.30 -5.03
Si -8.76  2.38 -5.92
Si -5.08  2.62 -9.22
Si  5.92 -1.58  8.96
Si -10.26 -3.42  1.05
Si -7.60 -2.40  7.40
Si -9.44 -3.32 -4.33
Si -5.33  8.00  5.14
Si  1.90  9.53  4.99
Si  6.56  8.68 -0.97
Si 10.19  1.66 -3.55
Si -6.10 -9.02 -1.01
Si -3.23 10.06 -2.84
Si  6.63  8.03 -3.36
Si  6.07  0.49 -9.10
Si -1.30 -1.29 10.81
Si 10.79 -1.91 -0.39
Si -0.77 -10.51  3.07
Si -0.96  9.30  5.76
Si  8.00  1.52 -7.38
Si  9.74 -5.00 -0.95
Si  3.06  7.57  7.40
Si -5.44  8.30 -4.79
Si  2.30 -7.89  7.35
Si  5.81 -7.75  5.27
Si  6.77 -5.95 -6.40
Si -8.60 -6.92 -0.83
Si  5.23  5.00 -8.38
Si -9.82  4.02 -3.20
Si  8.94  5.96  2.88
Si -7.71 -7.59 -2.58
Si  4.67 -3.02 -9.64
Si  1.79  9.82 -4.94
Si -5.42 -4.96 -8.38
Si -6.98  3.96 -7.77
Si -3.41  7.49 -7.55
Si 10.33  3.99  1.54
Si -2.15 -10.96  0.88
Si  5.43 -9.78  0.83
Si  0.29  6.85 -8.88
Si -6.59 -7.80 -4.71
Si 10.00  4.02 -3.20
Si  7.92 -7.97 -0.49
Si  0.29 -10.11 -4.94
Si  8.86 -5.26  4.53
Si  6.75  2.31  8.70
Si -5.54  3.78  9.04
Si  0.28  0.37 -11.25
Si  2.21 -9.12 -6.25
Si  3.80 10.11 -3.27
Si -10.07 -5.00 -0.95
Si -4.72 -9.87 -2.84
Si -11.14  2.00 -0.49
Si -0.61  7.11  8.82
Si  8.08 -3.71 -7.05
Si -8.67 -5.50 -4.85
Si -3.62 -0.11 10.77
Si -1.57 -2.25 -11.04
Si -5.24 -3.02 -9.64
Si -11.31 -0.99  0.88
Si  9.58 -5.97  1.54
Si  8.75 -4.96 -5.41
Si -2.56 -10.33 -4.17
Si  1.95  3.35 -10.77
Si  9.25 -5.94 -3.20
Si -3.14  9.55 -5.50
Si -9.33 -3.62  5.60
Si  4.92  6.57  8.02
Si -5.83  7.11 -6.87
Si  2.53 -11.20 -0.24
Si  0.54  1.31 11.41
Si -4.99  6.57  8.02
Si  5.19 -9.87 -2.84
Si -1.05 11.18  2.55
Si  8.57 -3.77  6.72
Si -8.56 -5.80  5.08
Si -2.66 -8.45 -7.38
Si -9.52  1.36  6.38
Si  3.62 -6.19  9.04
Si  0.40 -10.40  4.99
Si -7.77  7.59  3.94
Si -8.28  8.06 -0.39
Si -9.51  6.55  1.05
Si -0.24 -3.72 10.98
Si -6.48 -8.10  5.22
Si  9.61  4.71  4.53
Si -2.07  0.35 -11.43
Si 10.49  4.96 -0.95
Si  3.14  6.37 -9.24
Si  8.05 -0.25  8.43
Si 11.53 -0.30  1.78
Si -7.99 -8.50  0.28
Si  3.52 -11.00  1.74
Si -0.43 -8.05 -8.46
Si  1.42 -7.22  9.10
Si -8.40 -0.00 -8.15
Si -11.37 -2.55 -1.11
Si  2.61 -4.19 10.62
Si  7.36 -8.75  2.55
Si  9.21  6.50 -3.21
Si 10.38 -3.32 -4.33
Si -4.21 -0.98 -10.90
Si  1.18 11.58  1.48
Si -0.85 -11.25 -3.26
Si -8.69  6.64 -4.33
Si  3.82 10.51  3.68
Si -6.52 -1.53  9.69
Si  1.73 -0.60 11.71
Si  9.19  7.41 -1.11
Si -0.28 -4.71 -10.89
Si -4.86  2.02 10.64
Si  4.45  1.25 -10.94
Si  0.14 -11.87 -0.39
Si -4.61 10.91 -1.01
Si  4.88 -3.62 10.22
Si -2.00  3.71 11.13
Si  0.62  9.72 -6.86
Si -3.63 10.96  2.92
Si  3.41 11.43  0.28
Si -10.92  1.84  4.47
Si  9.78 -0.25 -6.86
Si  5.05  2.02 10.64
Si -10.23 -5.97  1.54
Si -5.02 -3.62 10.22
Si -11.87  0.05 -1.50
Si -0.49 11.96 -0.49
Si 10.95 -0.14 -4.94
Si -3.37  2.91 -11.16
Si  9.50  5.01 -5.41
Si 11.16  2.08  4.02
Si -9.91 -1.59  6.67
Si -11.71  1.22  2.55
Si  9.91 -1.59  6.67
Si -8.58  6.34  5.60
Si  0.53  3.69 11.47
Si  4.67 -8.67 -7.01
Si  0.47  5.26 -10.89
Si -10.21  4.71  4.53
Si 11.06 -0.44  4.99
Si -8.87 -4.28 -7.10
Si  6.90 -5.26  8.51
Si -10.04 -0.25 -6.86
Si  5.30 10.91 -1.01
Si  6.74  7.73  6.57
Si 10.30  1.36  6.38
Si -8.12  5.68 -7.10
Si 11.30 -2.38  3.94
Si  1.03 11.63 -3.55
Si -3.90 -7.65  8.70
Si -6.74 -0.94 -10.17
Si 10.30  6.55  1.05
Si -7.74  2.75  9.10
Si -6.11 10.11 -3.27
Si -7.35  1.77 -9.65
