500
set: 577.00  0.00  0.00
Si  0.00  0.00  0.00
Si -1.74  1.05  0.74
Si -0.04 -2.04  0.74
Si  1.82  1.05  0.74
Si -0.14 -0.15 -2.28
Si  1.70 -3.09  0.00
Si -1.70  3.09  0.00
Si  3.56  0.00  0.00
Si -3.56  0.00  0.00
Si -0.10  1.89 -3.02
Si  0.10 -1.89  3.02
Si -1.86 -3.09  0.00
Si  1.86  3.09  0.00
Si -1.60  1.20  3.02
Si  1.60 -1.20 -3.02
Si -1.96 -1.20 -3.02
Si  1.96  1.20  3.02
Si  1.72  2.94 -2.28
Si  3.42 -0.15 -2.28
Si  3.52 -2.04  0.74
Si -1.84  2.94 -2.28
Si -1.64 -0.84  3.76
Si -3.60 -2.04  0.74
Si  0.12  4.14  0.74
Si  1.56 -3.24 -2.28
Si  1.92 -0.84  3.76
Si -3.70 -0.15 -2.28
Si  0.22  2.25  3.76
Si -2.00 -3.24 -2.28
Si  3.46  1.89 -3.02
Si -3.46 -1.89  3.02
Si -3.66  1.89 -3.02
Si  3.66 -1.89  3.02
Si -0.26 -4.29 -3.02
Si  0.26  4.29  3.02
Si -3.44  4.14  0.74
Si  0.06 -3.93  3.76
Si  1.66 -5.13  0.74
Si -5.30  1.05  0.74
Si -3.34  2.25  3.76
Si -1.90 -5.13  0.74
Si  5.37  1.05  0.74
Si  3.68  4.14  0.74
Si -0.24  1.74 -5.30
Si  1.46 -1.35 -5.30
Si  3.77  2.25  3.76
Si -2.10 -1.35 -5.30
Si  1.76  4.98 -3.02
Si -1.76 -4.98  3.02
Si -1.80  4.98 -3.02
Si  1.80 -4.98  3.02
Si -5.16  1.20  3.02
Si  5.16 -1.20 -3.02
Si -5.26  3.09  0.00
Si  5.26 -3.09  0.00
Si  0.16  6.18  0.00
Si -0.16 -6.18  0.00
Si -3.30  4.29  3.02
Si  3.30 -4.29 -3.02
Si  5.42  3.09  0.00
Si -5.42 -3.09  0.00
Si -1.50 -0.69  6.04
Si  1.50  0.69 -6.04
Si -5.52 -1.20 -3.02
Si  5.52  1.20  3.02
Si -2.06  0.69 -6.04
Si  2.06 -0.69  6.04
Si  0.02  6.03 -2.28
Si  5.28  2.94 -2.28
Si  5.12 -3.24 -2.28
Si -3.50 -3.93  3.76
Si -5.20 -0.84  3.76
Si  3.82  4.29  3.02
Si -3.82 -4.29 -3.02
Si  3.32  1.74 -5.30
Si -0.36 -2.40 -6.04
Si  0.36  2.40  6.04
Si  3.61 -3.93  3.76
Si -5.40  2.94 -2.28
Si  5.47 -0.84  3.76
Si -1.48  5.34  3.76
Si -0.30 -6.33 -2.28
Si -3.80  1.74 -5.30
Si  0.32  0.36  6.79
Si -5.56 -3.24 -2.28
Si  2.08  5.34  3.76
Si -0.40 -4.44 -5.30
Si  3.40 -6.18  0.00
Si -3.40  6.18  0.00
Si -7.12  0.00  0.00
Si  7.12  0.00  0.00
Si -0.20  3.78 -6.04
Si  0.20 -3.78  6.04
Si -3.72 -6.18  0.00
Si  3.72  6.18  0.00
Si -3.20  2.40  6.04
Si  3.20 -2.40 -6.04
Si  6.97 -0.15 -2.28
Si  1.62  4.83 -5.30
Si -3.54  6.03 -2.28
Si  5.21 -5.13  0.74
Si  3.58  6.03 -2.28
Si  7.07 -2.04  0.74
Si  5.02 -1.35 -5.30
Si -1.94  4.83 -5.30
Si -1.58  7.23  0.74
Si -1.54 -2.73  6.79
Si  3.25 -6.33 -2.28
Si -7.16 -2.04  0.74
Si -3.24  0.36  6.79
Si -5.46 -5.13  0.74
Si  1.98  7.23  0.74
Si  2.01 -2.73  6.79
Si  3.92  2.40  6.04
Si -3.92 -2.40 -6.04
Si  3.16 -4.44 -5.30
Si -7.26 -0.15 -2.28
Si -1.38  3.45  6.79
Si -3.86 -6.33 -2.28
Si  3.87  0.36  6.79
Si -7.02 -1.89  3.02
Si  7.02  1.89 -3.02
Si -5.66 -1.35 -5.30
Si -3.36 -3.78  6.04
Si  3.36  3.78 -6.04
Si  5.32  4.98 -3.02
Si -5.32 -4.98  3.02
Si -5.06 -0.69  6.04
Si  5.06  0.69 -6.04
Si  5.36 -4.98  3.02
Si -5.36  4.98 -3.02
Si  2.17  3.45  6.79
Si -3.96 -4.44 -5.30
Si -7.21  1.89 -3.02
Si  7.21 -1.89  3.02
Si  3.76 -3.78  6.04
Si -3.76  3.78 -6.04
Si -1.44  7.38  3.02
Si  1.44 -7.38 -3.02
Si  1.75 -7.02  3.76
Si -7.00  4.14  0.74
Si -1.80 -7.02  3.76
Si -6.90  2.25  3.76
Si -5.04  5.34  3.76
Si -2.12 -7.38 -3.02
Si  2.12  7.38  3.02
Si -0.20 -8.22  0.74
Si  1.34 -5.49 -6.04
Si -1.34  5.49  6.04
Si -5.62  0.69 -6.04
Si  5.62 -0.69  6.04
Si  7.23  4.14  0.74
Si  1.36  0.54 -8.32
Si  2.22  5.49  6.04
Si -2.22 -5.49 -6.04
Si  7.33  2.25  3.76
Si  0.06  8.07 -3.02
Si -0.06 -8.07  3.02
Si  5.63  5.34  3.76
Si -2.20  0.54 -8.32
Si -6.86  4.29  3.02
Si  6.86 -4.29 -3.02
Si -0.50 -2.56 -8.32
Si  5.18  4.83 -5.30
Si  6.88  1.74 -5.30
Si -5.14  7.23  0.74
Si  3.35 -8.22  0.74
Si -7.06 -3.93  3.76
Si -5.10 -2.73  6.79
Si  0.15 -5.82  6.79
Si -8.86  1.05  0.74
Si  7.17 -3.93  3.76
Si  8.93  1.05  0.74
Si -5.50  4.83 -5.30
Si -7.38 -4.29 -3.02
Si  7.38  4.29  3.02
Si -3.76 -8.22  0.74
Si -4.94  3.45  6.79
Si -0.34  3.63 -8.32
Si  0.46  0.51  9.07
Si -0.46 -0.51 -9.07
Si  5.54  7.23  0.74
Si  5.57 -2.73  6.79
Si  3.06 -2.56 -8.32
Si -7.36  1.74 -5.30
Si  0.38  8.43  3.76
Si  1.66  6.87 -6.04
Si -1.66 -6.87  6.04
Si -3.50  8.07 -3.02
Si  3.50 -8.07  3.02
Si  8.72 -1.20 -3.02
Si -8.72  1.20  3.02
Si  1.30 -7.53 -5.30
Si -6.96  6.18  0.00
Si  6.96 -6.18  0.00
Si  8.81 -3.09  0.00
Si -8.81  3.09  0.00
Si  1.90 -6.87  6.04
Si -1.90  6.87 -6.04
Si  3.62  8.07 -3.02
Si -3.62 -8.07  3.02
Si  6.76 -2.40 -6.04
Si -6.76  2.40  6.04
Si  1.54 -9.27  0.00
Si -1.54  9.27  0.00
Si -5.00  7.38  3.02
Si  5.00 -7.38 -3.02
Si  0.48  6.54  6.79
Si -2.26 -7.53 -5.30
Si  2.02  9.27  0.00
Si -2.02 -9.27  0.00
Si  8.98  3.09  0.00
Si -8.98 -3.09  0.00
Si -4.90  5.49  6.04
Si  4.90 -5.49 -6.04
Si -1.40 -2.58  9.07
Si  1.40  2.58 -9.07
Si -0.08  7.92 -5.30
Si  5.73  3.45  6.79
Si  8.67 -3.24 -2.28
Si  7.28  6.18  0.00
Si -7.28 -6.18  0.00
Si -1.68  9.12 -2.28
Si -3.40 -5.82  6.79
Si -8.76 -0.84  3.76
Si  5.31 -7.02  3.76
Si  6.81 -6.33 -2.28
Si  8.83  2.94 -2.28
Si  1.88  9.12 -2.28
Si -7.10  6.03 -2.28
Si  3.10 -0.51 -9.07
Si -3.10  0.51  9.07
Si -5.36 -7.02  3.76
Si -4.06 -2.56 -8.32
Si -6.80  0.36  6.79
Si  7.13  6.03 -2.28
Si  3.22  3.63 -8.32
Si -9.07 -1.20 -3.02
Si  9.07  1.20  3.02
Si  6.71 -4.44 -5.30
Si -2.16  2.58 -9.07
Si  2.16 -2.58  9.07
Si  3.71 -5.82  6.79
Si  4.92  0.54 -8.32
Si -8.96  2.94 -2.28
Si -3.18  8.43  3.76
Si  5.68  7.38  3.02
Si -5.68 -7.38 -3.02
Si  1.40 -9.42 -2.28
Si  9.03 -0.84  3.76
Si -1.24  3.60  9.07
Si  1.24 -3.60 -9.07
Si -3.90  3.63 -8.32
Si -7.47 -2.40 -6.04
Si  7.47  2.40  6.04
Si -3.08  6.54  6.79
Si -4.02 -0.51 -9.07
Si  4.02  0.51  9.07
Si  6.92  3.78 -6.04
Si -6.92 -3.78  6.04
Si -2.16 -9.42 -2.28
Si  0.41 -1.53  9.81
Si -9.12 -3.24 -2.28
Si  5.78  5.49  6.04
Si -5.78 -5.49 -6.04
Si -1.28  1.56  9.81
Si -7.42 -6.33 -2.28
Si  2.32  3.60  9.07
Si -2.32 -3.60 -9.07
Si  3.94  8.43  3.76
Si  7.43  0.36  6.79
Si  1.20 -5.64 -8.32
Si -5.76  0.54 -8.32
Si  3.48  7.92 -5.30
Si  8.57 -1.35 -5.30
Si  2.27  1.56  9.81
Si  8.77 -5.13  0.74
Si -3.64  7.92 -5.30
Si  7.31 -3.78  6.04
Si -7.31  3.78 -6.04
Si -7.52 -4.44 -5.30
Si  4.03  6.54  6.79
Si -2.36 -5.64 -8.32
Si  0.28 10.32  0.74
Si -9.02 -5.13  0.74
Si -3.14 -1.53  9.81
Si  4.86 -7.53 -5.30
Si -0.52 -8.58 -6.04
Si  0.52  8.58  6.04
Si -5.22 -6.87  6.04
Si  5.22  6.87 -6.04
Si -8.62 -0.69  6.04
Si  8.62  0.69 -6.04
Si  5.10 -9.27  0.00
Si -5.10  9.27  0.00
Si  8.88  4.98 -3.02
Si -8.88 -4.98  3.02
Si  8.91 -4.98  3.02
Si -8.91  4.98 -3.02
Si  4.96  2.58 -9.07
Si -4.96 -2.58  9.07
Si  5.45 -6.87  6.04
Si -5.45  6.87 -6.04
Si -10.67  0.00  0.00
Si 10.67  0.00  0.00
Si  3.97 -1.53  9.81
Si  0.30 -5.67  9.07
Si -0.30  5.67 -9.07
Si -9.22 -1.35 -5.30
Si -5.24  9.12 -2.28
Si  6.91 -8.22  0.74
Si 10.53 -0.15 -2.28
Si -0.10 -10.11  3.76
Si -8.60  5.34  3.76
Si  1.52  6.72 -8.32
Si  5.58  9.27  0.00
Si -5.58 -9.27  0.00
Si 10.63 -2.04  0.74
Si -3.28 10.32  0.74
Si  5.44  9.12 -2.28
Si  0.57  4.65  9.81
Si  4.80 -3.60 -9.07
Si -4.80  3.60  9.07
Si  4.95 -9.42 -2.28
Si -2.04  6.72 -8.32
Si -5.82 -7.53 -5.30
Si  0.42 10.47  3.02
Si -0.42 -10.47 -3.02
Si -3.04  8.58  6.04
Si  3.04 -8.58 -6.04
Si -10.72 -2.04  0.74
Si  6.62 -2.56 -8.32
Si -1.45 -4.62  9.81
Si  9.17 -0.69  6.04
Si -9.17  0.69 -6.04
Si -5.71  2.58 -9.07
Si  5.71 -2.58  9.07
Si -7.32 -8.22  0.74
Si  3.84 10.32  0.74
Si  2.11 -4.62  9.81
Si -4.84  1.56  9.81
Si -10.82 -0.15 -2.28
Si  4.76 -5.64 -8.32
Si  7.05 -8.07  3.02
Si -7.05  8.07 -3.02
Si -10.57 -1.89  3.02
Si 10.57  1.89 -3.02
Si  3.26  5.67 -9.07
Si -3.26 -5.67  9.07
Si  7.18  8.07 -3.02
Si -7.18 -8.07  3.02
Si -5.72 -9.42 -2.28
Si -2.98  4.65  9.81
Si -6.66  0.51  9.07
Si  6.66 -0.51 -9.07
Si -4.08 -8.58 -6.04
Si  4.08  8.58  6.04
Si  9.19  5.34  3.76
Si -0.62 -6.69 -9.07
Si  0.62  6.69  9.07
Si  8.73  4.83 -5.30
Si  3.45 -10.11  3.76
Si -1.71 -8.91  6.79
Si  6.78  3.63 -8.32
Si -6.96 -5.82  6.79
Si -8.70  7.23  0.74
Si -8.66 -2.73  6.79
Si -10.46  2.25  3.76
Si -3.14 10.47  3.02
Si  3.14 -10.47 -3.02
Si -10.77  1.89 -3.02
Si 10.77 -1.89  3.02
Si  1.85 -8.91  6.79
Si -10.56  4.14  0.74
Si  3.85 -5.67  9.07
Si -3.85  5.67 -9.07
Si -0.60 -0.67 -11.35
Si  5.88  3.60  9.07
Si -5.88 -3.60 -9.07
Si -3.66 -10.11  3.76
Si -8.50  3.45  6.79
Si -6.74  8.43  3.76
Si  1.50 -11.31  0.74
Si  5.83  1.56  9.81
Si -2.06 -11.31  0.74
Si  7.27 -5.82  6.79
Si -6.64  6.54  6.79
Si -9.06  4.83 -5.30
Si -7.62 -2.56 -8.32
Si 10.79  4.14  0.74
Si -3.98 -10.47 -3.02
Si  3.98 10.47  3.02
Si  4.13  4.65  9.81
Si  9.09  7.23  0.74
Si  2.94 -6.69 -9.07
Si -2.94  6.69  9.07
Si  0.04 -9.96  6.04
Si -0.04  9.96 -6.04
Si -10.41  4.29  3.02
Si 10.41 -4.29 -3.02
Si -5.92 -5.64 -8.32
Si  1.26  2.42 -11.35
Si  1.64 -11.16  3.02
Si -1.64 11.16 -3.02
Si  8.55 -7.38 -3.02
Si -8.55  7.38  3.02
Si  9.13 -2.73  6.79
Si -1.92 -11.16  3.02
Si  1.92 11.16 -3.02
Si 10.89  2.25  3.76
Si  2.96 -0.67 -11.35
Si -7.46  3.63 -8.32
Si  8.46 -5.49 -6.04
Si -8.46  5.49  6.04
Si  7.57  0.51  9.07
Si -7.57 -0.51 -9.07
Si -2.30  2.42 -11.35
Si 10.43  1.74 -5.30
Si  5.08  6.72 -8.32
Si -1.22  9.63  6.79
Si  7.04  7.92 -5.30
Si -0.56 -10.62 -5.30
Si  7.49  8.43  3.76
Si  8.47  0.54 -8.32
Si  8.87 -7.02  3.76
Si -10.62 -3.93  3.76
Si -5.00 -4.62  9.81
Si -7.20  7.92 -5.30
Si -8.92 -7.02  3.76
Si -6.70 -1.53  9.81
Si  1.10 -3.76 -11.35
Si  2.34  9.63  6.79
Si  9.29  3.45  6.79
Si -4.18 -6.69 -9.07
Si  4.18  6.69  9.07
Si 10.73 -3.93  3.76
Si -5.60  6.72 -8.32
Si -0.66 -8.73 -8.32
Si  7.59  6.54  6.79
Si -4.16 -0.67 -11.35
Si -10.93 -4.29 -3.02
Si 10.93  4.29  3.02
Si -3.52 -9.96  6.04
Si  3.52  9.96 -6.04
Si  0.56 -1.38 12.09
Si -0.56  1.38 -12.09
Si -1.32 11.52  3.76
Si  3.60 -9.96  6.04
Si -3.60  9.96 -6.04
Si 10.32 -2.40 -6.04
Si -10.32  2.40  6.04
Si -10.51  6.18  0.00
Si 10.51 -6.18  0.00
Si -2.46 -3.76 -11.35
Si -9.23 -7.38 -3.02
Si  9.23  7.38  3.02
Si  5.67 -4.62  9.81
Si  3.00 -10.62 -5.30
Si -10.91  1.74 -5.30
Si -1.14  1.71 12.09
Si  1.14 -1.71 -12.09
Si  2.24 11.52  3.76
Si -1.78 11.01 -5.30
Si  1.78 11.01 -5.30
Si 10.37 -6.33 -2.28
Si  0.32 12.36  0.00
Si -0.32 -12.36  0.00
Si -5.26 -8.91  6.79
Si 10.27 -4.44 -5.30
Si -10.36  0.36  6.79
Si -6.60  8.58  6.04
Si  6.60 -8.58 -6.04
Si -6.84 10.32  0.74
Si -9.33 -5.49 -6.04
Si  9.33  5.49  6.04
Si  2.90 -8.73 -8.32
Si  5.05 -11.31  0.74
Si  0.18 12.21 -2.28
Si  5.41 -8.91  6.79
Si -2.42 -1.71 -12.09
Si  2.42  1.71 12.09
Si -10.65  6.03 -2.28
Si  7.53 -1.53  9.81
Si 10.84  6.18  0.00
Si -10.84 -6.18  0.00
Si  8.41 -7.53 -5.30
Si  0.25 -7.71  9.81
Si -12.42  1.05  0.74
Si 10.69  6.03 -2.28
Si -9.31  0.54 -8.32
Si  3.00  1.38 -12.09
Si -3.00 -1.38 12.09
Si -1.12  7.74  9.81
Si 12.49  1.05  0.74
Si  4.82  2.42 -11.35
Si -4.12 -10.62 -5.30
Si -0.44  5.51 -11.35
Si -5.62 -11.31  0.74
Si -10.48 -3.78  6.04
Si 10.48  3.78 -6.04
