500
set: 1182.00  0.00  0.00
Si -0.58 -0.75 -0.30
Si  0.46  1.40 -0.50
Si  2.03 -0.96 -0.37
Si -0.93 -0.89  2.06
Si  0.77  1.30  1.92
Si -2.15  1.36 -0.36
Si  1.82 -0.87  1.98
Si -0.94 -0.88 -2.68
Si -1.72  1.43  2.02
Si  0.29 -3.13 -0.36
Si  0.76  1.31 -2.82
Si -3.12 -0.96 -0.37
Si  3.00  1.36 -0.36
Si  1.81 -0.87 -2.76
Si -1.73  1.44 -2.72
Si -0.41  3.53 -0.37
Si  0.72 -3.06  2.02
Si -2.25 -3.09 -0.50
Si -3.33 -0.87  1.98
Si  0.71 -3.05 -2.72
Si -0.62  3.62  1.98
Si -1.94 -3.19  1.92
Si  3.43  1.43  2.02
Si  2.90 -3.09 -0.50
Si  2.13  3.74 -0.30
Si -3.34 -0.87 -2.76
Si  0.47  1.40  4.24
Si  1.78  3.60  2.06
Si -0.57 -0.76  4.44
Si -0.63  3.62 -2.76
Si  3.42  1.44 -2.72
Si  4.57 -0.75 -0.30
Si -1.95 -3.18 -2.82
Si  4.22 -0.89  2.06
Si -3.02  3.74 -0.30
Si  1.77  3.61 -2.68
Si  3.21 -3.19  1.92
Si  2.04 -0.97  4.37
Si -4.69  1.40 -0.50
Si -4.38  1.30  1.92
Si -2.14  1.35  4.38
Si  4.21 -0.88 -2.68
Si -0.59 -0.75 -5.04
Si  3.20 -3.18 -2.82
Si -3.37  3.60  2.06
Si -4.39  1.31 -2.82
Si  0.30 -3.14  4.38
Si  0.45  1.41 -5.24
Si -3.11 -0.97  4.37
Si  3.01  1.35  4.38
Si -0.68 -5.45 -0.37
Si  1.86 -5.24 -0.30
Si  2.02 -0.96 -5.11
Si -3.38  3.61 -2.68
Si -0.40  3.52  4.37
Si -2.24 -3.09  4.24
Si -2.16  1.36 -5.10
Si -4.42 -3.06  2.02
Si -5.73 -0.75 -0.30
Si -0.89 -5.36  1.98
Si -4.86 -3.13 -0.36
Si  5.61  1.40 -0.50
Si  0.56  5.85 -0.36
Si  4.74  3.53 -0.37
Si  1.51 -5.38  2.06
Si  0.28 -3.13 -5.10
Si  2.91 -3.09  4.24
Si -4.43 -3.05 -2.72
Si -3.13 -0.96 -5.11
Si  2.99  1.36 -5.10
Si -0.90 -5.36 -2.76
Si  4.53  3.62  1.98
Si  2.14  3.73  4.44
Si  1.50 -5.37 -2.68
Si -3.29 -5.24 -0.30
Si -0.42  3.53 -5.11
Si -1.98  5.89 -0.50
Si  5.44 -3.13 -0.36
Si -1.67  5.79  1.92
Si  0.99  5.92  2.02
Si  5.92  1.30  1.92
Si  4.52  3.62 -2.76
Si  4.58 -0.76  4.44
Si -4.68  1.40  4.24
Si -6.08 -0.89  2.06
Si -2.26 -3.08 -5.24
Si -3.01  3.73  4.44
Si -5.56  3.53 -0.37
Si  0.98  5.93 -2.72
Si  2.12  3.74 -5.04
Si -1.68  5.80 -2.82
Si  5.91  1.31 -2.82
Si -6.08 -0.88 -2.68
Si  3.17  5.89 -0.50
Si  2.89 -3.08 -5.24
Si -3.63 -5.38  2.06
Si  0.78  1.30  6.66
Si  4.56 -0.75 -5.04
Si -0.92 -0.89  6.79
Si  5.87 -3.06  2.02
Si -3.03  3.74 -5.04
Si  1.83 -0.88  6.72
Si -0.67 -5.46  4.37
Si -3.64 -5.37 -2.68
Si  3.48  5.79  1.92
Si  4.47 -5.45 -0.37
Si -5.77  3.62  1.98
Si -1.71  1.43  6.76
Si  1.87 -5.25  4.44
Si  4.26 -5.36  1.98
Si  5.86 -3.05 -2.72
Si  5.62  1.40  4.24
Si -4.70  1.41 -5.24
Si -4.85 -3.14  4.38
Si  7.18 -0.96 -0.37
Si -5.72 -0.76  4.44
Si  6.97 -0.87  1.98
Si -6.87  1.43  2.02
Si  0.57  5.84  4.38
Si  3.47  5.80 -2.82
Si  4.75  3.52  4.37
Si -5.78  3.62 -2.76
Si  4.25 -5.36 -2.76
Si -7.30  1.36 -0.36
Si -4.59  5.85 -0.36
Si  0.73 -3.06  6.76
Si -0.69 -5.45 -5.11
Si  1.85 -5.24 -5.04
Si -4.16  5.92  2.02
Si -1.97  5.89  4.24
Si -0.95 -0.88 -7.42
Si -6.88  1.44 -2.72
Si  6.96 -0.87 -2.76
Si -3.32 -0.88  6.72
Si  0.19 -7.58 -0.50
Si -3.27 -5.25  4.44
Si -1.93 -3.19  6.66
Si -0.61  3.61  6.72
Si  5.45 -3.14  4.38
Si -5.74 -0.75 -5.04
Si  0.75  1.31 -7.56
Si -4.87 -3.13 -5.10
Si  3.44  1.43  6.76
Si -4.17  5.93 -2.72
Si  1.80 -0.86 -7.50
Si  0.55  5.85 -5.10
Si -1.74  1.44 -7.45
Si  5.60  1.41 -5.24
Si  4.73  3.53 -5.11
Si -5.55  3.52  4.37
Si  1.79  3.60  6.79
Si  3.18  5.89  4.24
Si  0.51 -7.68  1.92
Si -3.30 -5.24 -5.04
Si -5.83 -5.45 -0.37
Si -7.08 -3.19  1.92
Si -2.42 -7.62 -0.36
Si -7.40 -3.09 -0.50
Si  3.22 -3.19  6.66
Si  4.23 -0.89  6.79
Si -1.98 -7.55  2.02
Si -4.37  1.30  6.66
Si  6.93  3.60  2.06
Si  5.43 -3.13 -5.10
Si  0.70 -3.05 -7.45
Si  2.73 -7.62 -0.36
Si -1.99  5.90 -5.24
Si  5.71  5.85 -0.36
Si  7.28  3.74 -0.30
Si  0.49 -7.67 -2.82
Si -0.31  8.23 -0.30
Si  6.92  3.61 -2.68
Si -3.35 -0.86 -7.50
Si -1.99 -7.54 -2.72
Si  8.15  1.36 -0.36
Si -7.10 -3.18 -2.82
Si  4.48 -5.46  4.37
Si -6.04 -5.36  1.98
Si  3.41  1.44 -7.45
Si -8.27 -0.96 -0.37
Si -5.57  3.53 -5.11
Si  2.30  8.02 -0.37
Si -0.64  3.62 -7.50
Si -0.66  8.09  2.06
Si -3.36  3.60  6.79
Si -1.96 -3.18 -7.56
Si  3.17 -7.55  2.02
Si  1.76  3.61 -7.42
Si  7.19 -0.97  4.37
Si  3.16  5.90 -5.24
Si -2.85  8.02 -0.37
Si -6.05 -5.36 -2.76
Si -0.67  8.10 -2.68
Si  4.20 -0.88 -7.42
Si  2.09  8.11  1.98
Si -7.29  1.35  4.38
Si  3.15 -7.54 -2.72
Si -4.58  5.84  4.38
Si -4.41 -3.06  6.76
Si  8.05 -3.09 -0.50
Si -0.88 -5.37  6.72
Si  0.20 -7.58  4.24
Si  4.46 -5.45 -5.11
Si -8.48 -0.87  1.98
Si  7.01 -5.24 -0.30
Si  6.14  5.92  2.02
Si  3.19 -3.18 -7.56
Si  1.53 -5.38  6.79
Si  6.67 -5.38  2.06
Si  2.08  8.11 -2.76
Si -4.40  1.31 -7.56
Si  7.17 -0.96 -5.11
Si  4.54  3.61  6.72
Si -3.06  8.11  1.98
Si -3.39  3.61 -7.42
Si  8.58  1.43  2.02
Si  6.13  5.93 -2.72
Si  6.65 -5.37 -2.68
Si -8.49 -0.87 -2.76
Si -1.66  5.79  6.66
Si -8.17  3.74 -0.30
Si  5.93  1.30  6.66
Si -7.31  1.36 -5.10
Si -4.60  5.85 -5.10
Si  1.00  5.92  6.76
Si -7.39 -3.09  4.24
Si -4.96 -7.58 -0.50
Si -5.82 -5.46  4.37
Si  0.48  1.39  8.97
Si -3.07  8.11 -2.76
Si  8.57  1.44 -2.72
Si -2.41 -7.63  4.38
Si -6.82  5.79  1.92
Si -6.06 -0.89  6.79
Si  8.36 -3.19  1.92
Si -4.64 -7.68  1.92
Si -4.45 -3.05 -7.45
Si  0.18 -7.57 -5.24
Si  2.74 -7.63  4.38
Si -0.56 -0.76  9.18
Si -0.91 -5.36 -7.50
Si -7.13  5.89 -0.50
Si  5.72  5.84  4.38
Si  1.49 -5.37 -7.42
Si  5.34 -7.58 -0.50
Si  7.29  3.73  4.44
Si -0.30  8.22  4.44
Si  8.16  1.35  4.38
Si  8.35 -3.18 -2.82
Si  2.05 -0.97  9.11
Si -8.26 -0.97  4.37
Si -6.83  5.80 -2.82
Si -3.62 -5.38  6.79
Si -4.66 -7.67 -2.82
Si  2.31  8.01  4.37
Si -2.13  1.35  9.11
Si  4.51  3.62 -7.50
Si  5.88 -3.06  6.76
Si -8.52  3.60  2.06
Si -5.84 -5.45 -5.11
Si  4.49  8.09  2.06
Si -2.43 -7.62 -5.10
Si  3.49  5.79  6.66
Si  4.84  8.23 -0.30
Si -5.76  3.61  6.72
Si -2.84  8.01  4.37
Si  2.72 -7.62 -5.10
Si  0.97  5.93 -7.45
Si -7.41 -3.08 -5.24
Si  4.27 -5.37  6.72
Si  7.27  3.74 -5.04
Si  8.06 -3.09  4.24
Si  5.70  5.85 -5.10
Si  4.48  8.10 -2.68
Si  9.37 -0.89  2.06
Si -8.53  3.61 -2.68
Si -6.10 -0.88 -7.42
Si  0.31 -3.14  9.11
Si -0.32  8.23 -5.04
Si -3.10 -0.97  9.11
Si -1.69  5.80 -7.56
Si  5.90  1.31 -7.56
Si  3.02  1.35  9.11
Si  8.14  1.36 -5.10
Si  5.65 -7.68  1.92
Si  6.98 -0.88  6.72
Si -6.86  1.43  6.76
Si -2.23 -3.10  8.97
Si  9.72 -0.75 -0.30
Si -0.39  3.52  9.11
Si -8.28 -0.96 -5.11
Si -0.84 -9.73 -0.30
Si  9.36 -0.88 -2.68
Si  2.29  8.02 -5.11
Si -9.53  1.30  1.92
Si -0.60 -0.74 -9.77
Si  7.02 -5.25  4.44
Si -3.65 -5.37 -7.42
Si -5.46  8.23 -0.30
Si -4.15  5.92  6.76
Si -2.86  8.02 -5.11
Si  2.92 -3.10  8.97
Si  5.64 -7.67 -2.82
Si -8.44 -5.24 -0.30
Si -9.84  1.40 -0.50
Si  5.85 -3.05 -7.45
Si -4.95 -7.58  4.24
Si -8.16  3.73  4.44
Si -9.54  1.31 -2.82
Si  8.04 -3.08 -5.24
Si  0.44  1.41 -9.98
Si  7.00 -5.24 -5.04
Si  2.01 -0.95 -9.85
Si  1.76 -9.94 -0.37
Si  3.46  5.80 -7.56
Si  2.15  3.73  9.18
Si  4.24 -5.36 -7.50
Si -5.79  3.62 -7.50
Si -1.19 -9.87  2.06
Si -7.12  5.89  4.24
Si -2.17  1.36 -9.84
Si  1.55 -9.85  1.98
Si -5.81  8.09  2.06
Si  0.52 -7.68  6.66
Si  5.35 -7.58  4.24
Si  8.32  5.89 -0.50
Si -4.67  1.39  8.97
Si -7.08 -3.19  6.66
Si -6.89  1.44 -7.45
Si -9.57 -3.06  2.02
Si  6.95 -0.86 -7.50
Si  4.59 -0.76  9.18
Si -1.20 -9.86 -2.68
Si -8.18  3.74 -5.04
Si -5.82  8.10 -2.68
Si -1.97 -7.55  6.76
Si  0.27 -3.12 -9.84
Si  1.54 -9.85 -2.76
Si -3.00  3.73  9.18
Si  6.94  3.60  6.79
Si  2.98  1.36 -9.84
Si -3.14 -0.95 -9.85
Si -4.18  5.93 -7.45
Si -9.58 -3.05 -2.72
Si  0.73 10.38 -0.50
Si -4.97 -7.57 -5.24
Si -0.43  3.54 -9.85
Si -10.01 -3.13 -0.36
Si -6.03 -5.37  6.72
Si -8.78 -5.38  2.06
Si  9.89  3.53 -0.37
Si -3.38 -9.94 -0.37
Si -1.88 10.34 -0.36
Si  1.04 10.28  1.92
Si  9.68  3.62  1.98
Si  4.85  8.22  4.44
Si  8.63  5.79  1.92
Si -7.13 -7.55  2.02
Si -0.65  8.09  6.79
Si  3.18 -7.55  6.76
Si -0.66 -5.46  9.11
Si -7.14  5.90 -5.24
Si  5.33 -7.57 -5.24
Si  4.30 -9.73 -0.30
Si -8.79 -5.37 -2.68
Si -3.60 -9.85  1.98
Si  2.11  3.75 -9.77
Si  5.63  1.39  8.97
Si  9.67  3.62 -2.76
Si -2.27 -3.08 -9.98
Si -1.45 10.41  2.02
Si  1.03 10.29 -2.82
Si  9.73 -0.76  4.44
Si  2.10  8.10  6.72
Si -0.83 -9.74  4.44
Si -7.14 -7.54 -2.72
Si  1.89 -5.25  9.18
Si -7.57 -7.62 -0.36
Si  6.91  3.61 -7.42
Si  8.62  5.80 -2.82
Si  0.48 -7.67 -7.56
Si -4.84 -3.14  9.11
Si -2.00 -7.54 -7.45
Si  4.83  8.23 -5.04
Si -9.83  1.40  4.24
Si  4.55 -0.74 -9.77
Si -5.45  8.22  4.44
Si  3.96 -9.87  2.06
Si -5.71 -0.76  9.18
Si  2.88 -3.08 -9.98
Si  0.58  5.84  9.11
Si -8.47 -0.88  6.72
Si -3.61 -9.85 -2.76
Si  3.27 10.34 -0.36
Si -7.11 -3.18 -7.56
Si  4.76  3.52  9.11
Si 10.76  1.40 -0.50
Si -1.46 10.42 -2.72
Si -8.42 -5.25  4.44
Si  6.15  5.92  6.76
Si -3.04  3.75 -9.77
Si -10.88 -0.75 -0.30
Si -1.96  5.88  8.97
Si  6.67 -5.38  6.79
Si  7.45  8.02 -0.37
Si  3.95 -9.86 -2.68
Si -3.05  8.10  6.72
Si  9.71 -0.75 -5.04
Si  7.88 -7.62 -0.36
Si -0.85 -9.73 -5.04
Si -0.68  8.10 -7.42
Si  1.77 -9.95  4.37
Si  9.41 -5.36  1.98
Si -6.06 -5.36 -7.50
Si  8.59  1.43  6.76
Si  8.33  5.89  4.24
Si  7.24  8.11  1.98
Si 10.59 -3.13 -0.36
Si  3.15 -7.54 -7.45
Si -3.27 -5.25  9.18
Si  9.62 -5.45 -0.37
Si  5.46 -3.14  9.11
Si -5.47  8.23 -5.04
Si -4.71  1.41 -9.98
Si -8.45 -5.24 -5.04
Si -6.81  5.79  6.66
Si  8.37 -3.19  6.66
Si  9.40 -5.36 -2.76
Si -4.63 -7.68  6.66
Si  3.19  5.88  8.97
Si  7.23  8.11 -2.76
Si -9.31  5.92  2.02
Si -5.54  3.52  9.11
Si  0.74 10.38  4.24
Si  3.70 10.41  2.02
Si  2.07  8.12 -7.50
Si -4.11 10.28  1.92
Si  1.84 -5.24 -9.77
Si -9.85  1.41 -5.24
Si -0.70 -5.45 -9.85
Si -10.71  3.53 -0.37
Si -4.42 10.38 -0.50
Si 11.07  1.30  1.92
Si  1.75 -9.94 -5.11
Si  6.64 -5.37 -7.42
Si  6.12  5.93 -7.45
Si -8.00  8.02 -0.37
Si -10.00 -3.14  4.38
Si -5.75 -0.74 -9.77
Si -8.50 -0.86 -7.50
Si -9.74  5.85 -0.36
Si -9.32  5.93 -2.72
Si -1.87 10.33  4.38
Si -3.37 -9.95  4.37
Si  9.90  3.52  4.37
Si  3.69 10.42 -2.72
Si  8.31 -7.55  2.02
Si -4.88 -3.12 -9.84
Si -5.99 -9.73 -0.30
Si -4.12 10.29 -2.82
Si  8.56  1.44 -7.45
Si -11.22 -0.89  2.06
Si  8.31  5.90 -5.24
Si  0.54  5.86 -9.84
Si -8.51  3.60  6.79
Si -3.08  8.12 -7.50
Si  4.72  3.54 -9.85
Si  4.50  8.09  6.79
Si 11.06  1.31 -2.82
Si  0.79  1.29 11.39
Si  5.59  1.41 -9.98
Si  4.49 -5.46  9.11
Si  4.32 -9.74  4.44
Si  8.30 -7.54 -2.72
Si -3.31 -5.24 -9.77
Si -11.23 -0.88 -2.68
Si -7.56 -7.63  4.38
Si -0.91 -0.90 11.53
Si 11.02 -3.06  2.02
Si  9.38 -0.89  6.79
Si  1.84 -0.88 11.46
Si  5.67 -7.68  6.66
Si  7.20 -0.97  9.11
Si  0.72 10.39 -5.24
Si 10.77  1.40  4.24
Si  5.42 -3.12 -9.84
Si  9.88  3.53 -5.11
Si -10.02 -3.13 -5.10
Si -10.92  3.62  1.98
Si -3.40 -9.94 -5.11
Si -1.89 10.34 -5.10
Si -9.52  1.30  6.66
Si  3.28 10.33  4.38
Si  8.34 -3.18 -7.56
Si -8.21  8.11  1.98
Si -1.70  1.43 11.50
Si -6.84  5.80 -7.56
Si -4.67 -7.67 -7.56
Si -7.28  1.35  9.11
Si 11.01 -3.05 -2.72
