500
set: 395.00  0.00  0.00
Si  0.01 -0.01  0.02
Si  0.06 -0.07 -2.25
Si -1.90  1.01  0.70
Si -0.11 -2.15  0.86
Si  1.84  1.19  0.78
Si  0.01  2.09 -2.92
Si -1.86  0.99  2.93
Si  3.62  0.07 -0.08
Si -1.77 -1.11 -3.02
Si  1.78 -3.21  0.13
Si -1.91 -3.14 -0.08
Si  1.79  3.27 -0.08
Si -1.92  3.20  0.13
Si  1.93  1.03  3.03
Si -3.78  0.07 -0.08
Si  1.85 -1.14 -3.11
Si  0.01 -2.19  3.12
Si  3.64 -2.04  0.72
Si  0.04  2.12  3.68
Si  1.88 -3.18 -2.15
Si -1.83  3.24 -2.15
Si  1.95 -1.11  3.69
Si -3.77 -2.04  0.72
Si -3.67 -0.02 -2.37
Si -1.76 -3.25 -2.36
Si  1.95  3.16 -2.36
Si  3.74 -0.02 -2.37
Si -1.83 -1.04  3.90
Si -0.07  4.37  0.72
Si -3.57  2.14 -3.02
Si -3.57 -2.13  3.03
Si  0.14 -4.27 -3.02
Si  0.14  4.28  3.03
Si  3.84  2.14 -3.02
Si  3.84 -2.13  3.03
Si -1.86 -5.22  0.78
Si -0.11  2.13 -5.19
Si  3.59  4.26  0.86
Si  5.51  1.01  0.70
Si -3.65  2.06  3.80
Si -1.86 -0.94 -5.27
Si  3.76  2.06  3.80
Si  1.80 -5.41  0.70
Si -5.56  1.19  0.78
Si  1.80 -1.13 -5.34
Si  0.06 -4.35  3.80
Si -3.81  4.26  0.86
Si  1.78  1.06 -5.92
Si  1.79 -1.00  5.96
Si  5.50 -3.14 -0.08
Si -0.08 -6.34 -0.08
Si -5.48  1.03  3.03
Si  5.48  3.20  0.13
Si  5.55  0.99  2.93
Si -0.08  2.21  5.96
Si -3.69 -4.33 -2.92
Si  1.93  5.30 -3.02
Si -1.86  5.27 -3.11
Si  3.72 -4.33 -2.92
Si -3.69  4.22  3.12
Si  1.85 -5.42  2.93
Si -1.77 -5.39  3.03
Si  3.72  4.22  3.12
Si -0.08 -2.06 -6.13
Si -5.56 -1.14 -3.11
Si -5.62 -3.21  0.13
Si  5.63 -1.11 -3.02
Si -0.08  6.49 -0.08
Si -5.61  3.27 -0.08
Si -1.91  1.13 -6.12
Si -1.92 -1.07  6.17
Si -5.46 -1.11  3.69
Si -1.76  5.30  3.69
Si -5.53 -3.18 -2.15
Si -5.46  3.16 -2.36
Si -3.67 -4.29  3.68
Si -0.07 -4.18 -5.32
Si -0.07  0.10  6.77
Si  3.74 -4.29  3.68
Si  5.58  3.24 -2.15
Si  0.04  6.40 -2.37
Si  3.64  2.23 -5.32
Si  0.04 -6.43 -2.37
Si  5.58 -1.04  3.90
Si -3.77  2.23 -5.32
Si  1.88  5.38  3.90
Si  5.65 -3.25 -2.36
Si  0.01  4.27 -6.03
Si -3.69 -2.15 -6.03
Si -3.69  6.40  0.02
Si -7.40 -0.01  0.02
Si  3.71 -2.15 -6.03
Si  3.71  6.40  0.02
Si -3.69 -6.42  0.02
Si -3.69  2.13  6.06
Si  7.42 -0.01  0.02
Si  3.71 -6.42  0.02
Si  3.71  2.13  6.06
Si  0.01 -4.28  6.06
Si  3.59 -4.29 -5.19
Si -3.65  6.34 -2.25
Si  7.30 -2.15  0.86
Si  5.54 -5.22  0.78
Si  1.80  3.15  6.75
Si  1.80  7.42  0.70
Si -7.35 -0.07 -2.25
Si  3.76  6.34 -2.25
Si  5.54 -0.94 -5.27
Si  1.84 -3.08  6.83
Si -1.90 -3.27  6.75
Si -3.81 -4.29 -5.19
Si -1.90  5.28 -5.34
Si -3.65 -6.49 -2.25
Si  3.59 -0.01  6.90
Si  7.46 -0.07 -2.25
Si  1.84  5.47 -5.27
Si -5.60 -5.41  0.70
Si -1.86  3.33  6.83
Si -5.60 -1.13 -5.34
Si  3.76 -6.49 -2.25
Si -7.51 -2.15  0.86
Si -1.86  7.61  0.78
Si -3.81 -0.01  6.90
Si  3.62 -4.20  5.96
Si  1.85  7.41  2.93
Si -5.48  5.30 -3.02
Si -1.92 -5.35 -5.92
Si -7.39  2.09 -2.92
Si -3.78 -4.20  5.96
Si -1.78  7.44  3.03
Si -5.62  1.06 -5.92
Si  7.42  2.09 -2.92
Si -5.61 -1.00  5.96
Si  5.55  5.27 -3.11
Si -1.91  5.41  5.96
Si  1.79 -5.28 -6.12
Si -5.56 -5.42  2.93
Si  5.50  1.13 -6.12
Si -7.39 -2.19  3.12
Si  5.48 -1.07  6.17
Si  1.93 -7.53 -3.02
Si  3.62  4.35 -6.13
Si  7.42 -2.19  3.12
Si  1.78  5.34  6.17
Si  5.63 -5.39  3.03
Si -1.86 -7.56 -3.11
Si -3.78  4.35 -6.13
Si  1.88  1.10 -8.19
Si -0.07 -8.46  0.72
Si -7.37  2.12  3.68
Si -1.76 -7.53  3.69
Si  7.44  2.12  3.68
Si  7.34  4.37  0.72
Si  5.65  5.30  3.69
Si  1.88 -7.45  3.90
Si -5.53  5.38  3.90
Si -1.76  1.02 -8.40
Si  0.04 -2.15 -8.41
Si -7.47  4.37  0.72
Si -7.27 -4.27 -3.02
Si -7.27  4.28  3.03
Si  0.14  0.01 -9.06
Si  0.14 -8.54  3.03
Si  0.14  8.56 -3.02
Si  0.14  0.01  9.08
Si  7.54 -4.27 -3.02
Si  7.54  4.28  3.03
Si  7.30  2.13 -5.19
Si  1.84 -7.36 -5.27
Si  0.05  8.48  3.80
Si  0.06  4.20 -8.29
Si  5.51 -3.27  6.75
Si  5.51  5.28 -5.34
Si -5.60  3.15  6.75
Si  3.59 -8.56  0.86
Si -5.60  7.42  0.70
Si -3.65 -2.21 -8.29
Si -5.56 -3.08  6.83
Si -7.35 -4.35  3.80
Si  9.25  1.19  0.78
Si  3.76 -2.21 -8.29
Si -7.51  2.13 -5.19
Si -9.30  1.01  0.70
Si  5.54  3.33  6.83
Si -3.81 -8.56  0.86
Si -5.56  5.47 -5.27
Si -0.11  6.40  6.90
Si -0.11 -6.42  6.90
Si  7.46 -4.35  3.80
Si -1.90 -7.54 -5.34
Si  5.54  7.61  0.78
Si  5.48 -5.35 -5.92
Si  1.84  3.13  8.98
Si  7.33 -6.34 -0.08
Si -3.69 -0.05 -8.97
Si  7.33  2.21  5.96
Si  3.72 -0.05 -8.97
Si -1.91 -7.42  5.96
Si -3.69  8.50 -2.92
Si -5.56  7.41  2.93
Si  1.79 -9.55 -0.08
Si -1.92  7.47 -5.92
Si  3.72  8.50 -2.92
Si -9.18 -1.11 -3.02
Si  9.19 -3.21  0.13
Si -1.86 -3.28  8.98
Si  5.50  5.41  5.96
Si -1.77  3.16 -9.06
Si  9.20  3.27 -0.08
Si -9.26  0.99  2.93
Si  7.33 -2.06 -6.13
Si -1.78  3.16  9.08
Si  1.78  9.61  0.13
Si -5.48 -7.53 -3.02
Si  7.33  6.49 -0.08
Si -7.49 -6.34 -0.08
Si  5.63  7.44  3.03
Si -1.92 -9.63  0.13
Si  1.93 -3.25 -9.06
Si -7.49  2.21  5.96
Si  9.25 -1.14 -3.11
Si  1.93 -3.25  9.08
Si -9.31 -3.14 -0.08
Si -5.61 -5.28 -6.12
Si  1.85  3.13 -9.16
Si -9.33  3.20  0.13
Si -3.69 -8.60  3.12
Si  9.33  1.03  3.03
Si  1.78 -7.49  6.17
Si -1.91  9.68 -0.08
Si  3.72 -8.60  3.12
Si  5.55 -7.56 -3.11
Si  1.79  7.55 -6.12
Si -3.69 -0.05  9.17
Si -7.49 -2.06 -6.13
Si  3.72 -0.05  9.17
Si -1.86 -3.28 -9.16
Si -7.49  6.49 -0.08
Si -5.62  5.34  6.17
Si -1.83 -5.31 -8.19
Si -5.53  1.10 -8.19
Si -1.76  1.02  9.73
Si  3.64 -6.32  6.77
Si  0.04 -2.15  9.72
Si  7.34 -4.18 -5.32
Si  7.34  0.10  6.77
Si -3.67  8.53  3.68
Si -1.83 -9.59 -2.15
Si -3.77 -6.32  6.77
Si -9.16 -3.25 -2.36
Si -1.76  9.57 -2.36
Si  3.74  8.53  3.68
Si -9.23  3.24 -2.15
Si -7.37  6.40 -2.37
Si  9.28 -3.18 -2.15
Si  1.88  9.65 -2.15
Si -7.37 -6.43 -2.37
Si -5.53 -7.45  3.90
Si  3.64  6.51  6.77
Si -9.23 -1.04  3.90
Si -7.47 -4.18 -5.32
Si -7.47  0.10  6.77
Si  7.44  6.40 -2.37
Si  5.65 -7.53  3.69
Si  9.35 -1.11  3.69
Si  7.44 -6.43 -2.37
Si -3.67  4.26 -8.41
Si -3.77  6.51  6.77
Si  1.95 -9.67 -2.36
Si  3.74  4.26 -8.41
Si  9.35  3.16 -2.36
Si -0.07  8.64 -5.32
Si  1.95 -5.39 -8.40
Si  5.65  1.02 -8.40
Si  1.88  1.10  9.94
Si -7.40  4.27 -6.03
Si  7.42  4.27 -6.03
Si  0.01 -8.56 -6.03
Si  0.01  8.54  6.06
Si -7.40 -4.28  6.06
Si  7.42 -4.28  6.06
Si  3.59  8.54 -5.19
Si -5.56 -7.36 -5.27
Si -9.27 -5.22  0.78
Si -3.81  8.54 -5.19
Si -9.27 -0.94 -5.27
Si  0.05  4.20  9.84
Si  9.21 -5.41  0.70
Si  9.21 -1.13 -5.34
Si -0.11 10.68  0.86
Si -3.65 -2.21  9.84
Si  5.51 -7.54 -5.34
Si  3.76 -2.21  9.84
Si  9.19  1.06 -5.92
Si  5.50 -7.42  5.96
Si  0.01  6.36 -8.97
Si  5.48  7.47 -5.92
Si  9.20 -1.00  5.96
Si -5.56  3.13  8.98
Si 11.03  0.07 -0.08
Si  5.55 -3.28  8.98
Si  0.02 -6.46 -8.97
Si -9.18 -5.39  3.03
Si  3.62 -8.48 -6.13
Si -5.48 -3.25 -9.06
Si  5.48 -9.63  0.13
Si -5.61 -9.55 -0.08
Si  0.01 10.64  3.12
Si -5.48 -3.25  9.08
Si  3.62  8.62  5.96
Si -9.26  5.27 -3.11
Si  9.25 -5.42  2.93
Si -3.78 -8.48 -6.13
Si  5.63  3.16 -9.06
Si  0.02 -10.74 -2.92
Si  5.50  9.68 -0.08
Si -5.62  9.61  0.13
Si  5.63  3.16  9.08
Si -3.78  8.62  5.96
Si  9.33  5.30 -3.02
Si  0.01  6.36  9.17
Si -5.56  3.13 -9.16
Si -11.19  0.07 -0.08
Si  5.55 -3.28 -9.16
Si -9.31  1.13 -6.12
Si -9.16  5.30  3.69
Si -5.62 -7.49  6.17
Si  0.01 -6.46  9.17
Si  7.34 -8.46  0.72
Si -5.61  7.55 -6.12
Si -3.67  4.26  9.72
Si -9.33 -1.07  6.17
Si  5.58 -5.31 -8.19
Si 11.04 -2.04  0.72
Si  3.74  4.26  9.72
Si -1.83  7.51 -8.19
Si  1.95 -5.39  9.73
Si  5.58 -9.59 -2.15
Si  5.65  1.02  9.73
Si -7.47 -8.46  0.72
Si  0.04 -10.71  3.68
Si -11.07 -0.02 -2.37
Si -5.53  9.65 -2.15
Si -5.46 -9.67 -2.36
Si  5.65  9.57 -2.36
Si -0.06  0.09 -11.37
Si -5.46 -5.39 -8.40
Si -11.17 -2.04  0.72
Si  1.95  7.43 -8.40
Si -7.37 -2.15 -8.41
Si 11.14 -0.02 -2.37
Si  3.64 10.78  0.72
Si  9.28  5.38  3.90
Si -1.83 -5.31  9.94
Si -5.53  1.10  9.94
Si  7.44 -2.15 -8.41
Si -3.77 10.78  0.72
Si -10.97  2.14 -3.02
Si -10.97 -2.13  3.03
Si -7.27  0.01 -9.06
Si -7.27 -8.54  3.03
Si -7.27  8.56 -3.02
Si -7.27  0.01  9.08
Si -3.57 -6.41 -9.06
Si -3.57 -10.68 -3.02
Si -3.57  6.42 -9.06
Si -3.57 -6.41  9.08
Si -3.57 10.69  3.03
Si -3.57  6.42  9.08
Si  3.84 -6.41 -9.06
Si  3.84 -10.68 -3.02
Si  3.84  6.42 -9.06
Si  3.84 -6.41  9.08
Si  3.84 10.69  3.03
Si  3.84  6.42  9.08
Si  7.54  0.01 -9.06
Si  7.54 -8.54  3.03
Si  3.59 -0.01 -11.23
Si  7.54  8.56 -3.02
Si  7.54  0.01  9.08
Si  1.84 -11.63  0.78
Si 11.00  4.26  0.86
Si 11.24  2.14 -3.02
Si 11.24 -2.13  3.03
Si -1.86 -9.49  6.83
Si  9.21  3.15  6.75
Si -7.35  8.48  3.80
Si  9.21  7.42  0.70
Si -7.35  4.20 -8.29
Si -1.90  9.56  6.75
Si -3.81 -0.01 -11.23
Si  1.84 -3.08 -11.31
Si -11.05  2.06  3.80
Si -0.11 -10.70 -5.19
Si  9.25 -3.08  6.83
Si  7.30  6.40  6.90
Si  7.46  8.48  3.80
Si  7.46  4.20 -8.29
Si  7.30 -6.42  6.90
Si -1.86  3.33 -11.31
Si  1.80 -9.68  6.75
Si -9.30 -3.27  6.75
Si  1.80  3.15 -11.39
Si -9.30  5.28 -5.34
Si  9.25  5.47 -5.27
Si  0.06 -8.63 -8.29
Si 11.16  2.06  3.80
Si -9.27  3.33  6.83
Si -3.65 -10.76  3.80
Si -1.90 -11.82  0.70
Si -1.90 -3.27 -11.39
Si -9.27  7.61  0.78
Si  3.76 -10.76  3.80
Si -11.22  4.26  0.86
Si  1.84  9.74  6.83
Si -7.52  6.40  6.90
Si -7.51 -6.42  6.90
Si -1.92 -1.08 -11.96
Si -0.08 -10.61  5.96
Si -0.08 -2.06 12.01
Si -9.18  7.44  3.03
Si  9.25  7.41  2.93
Si -1.91  1.13 12.01
Si -1.78 11.71 -3.02
Si  1.85 11.68 -3.11
Si  9.20 -5.28 -6.12
Si -11.09 -4.33 -2.92
Si -9.33 -5.35 -5.92
Si -11.09  4.22  3.12
Si 11.12 -4.33 -2.92
Si  9.19  5.34  6.17
Si 11.12  4.22  3.12
Si -9.32  5.41  5.96
Si -1.86 -11.83  2.93
Si  1.93 -11.80  3.03
Si  1.79 -1.00 -12.17
Si -9.26 -7.56 -3.11
Si  9.33 -7.53 -3.02
Si -0.08  2.21 -12.17
Si -0.08 10.76 -6.13
Si -7.37 -2.15  9.72
Si  1.78  1.06 12.22
Si -5.46 -5.39  9.73
Si  3.64 -10.59 -5.32
Si  1.95  7.44  9.73
Si -9.16 -7.53  3.69
Si  9.28  1.10 -8.19
Si  1.95 11.71  3.69
Si  7.44 -2.15  9.72
Si -11.07 -4.29  3.68
Si  5.58  7.51 -8.19
Si -3.77 -10.59 -5.32
Si 11.04  2.23 -5.32
Si -9.16  1.02 -8.40
Si -5.46  7.43 -8.40
Si 11.14 -4.29  3.68
Si  9.28 -7.45  3.90
Si  7.34  8.64 -5.32
Si -1.83 11.79  3.90
Si -3.67 -8.57 -8.41
Si -11.17  2.23 -5.32
Si  3.74 -8.57 -8.41
Si  5.58 -5.31  9.94
Si -1.83  7.51  9.94
Si -7.47  8.64 -5.32
Si -3.69  2.13 -12.07
Si -3.69 10.68 -6.03
Si  3.71  2.13 -12.07
Si  0.01 -4.29 -12.07
Si -11.10 -2.15 -6.03
Si  3.71 10.68 -6.03
Si -11.10  6.40  0.02
Si  0.01 12.82  0.02
Si -7.40 -8.56 -6.03
Si -11.10 -6.42  0.02
Si -7.40  8.54  6.06
Si -11.10  2.13  6.06
Si 11.12 -2.15 -6.03
Si  7.42 -8.56 -6.03
Si 11.12  6.40  0.02
Si  7.41  8.54  6.06
Si  0.01 -12.84  0.02
Si -3.69 -10.70  6.06
Si  0.01  4.27 12.11
Si 11.12 -6.42  0.02
Si -3.69 -2.15 12.11
Si 11.12  2.13  6.06
Si  3.71 -10.70  6.06
Si  3.71 -2.15 12.11
Si 11.00 -4.29 -5.19
Si -5.56 -11.63  0.78
Si -0.11  6.40 -11.23
Si  5.51  9.56  6.75
Si  9.25 -7.36 -5.27
Si -11.05  6.34 -2.25
Si -0.11 -6.42 -11.23
Si  5.54 -9.49  6.83
Si  0.05 12.75 -2.25
Si  7.30 10.68  0.86
Si  1.80 -1.13 12.79
