500
set: 363.00  0.00  0.00
Si  0.01  0.05 -0.06
Si -0.02 -2.07  0.75
Si  1.91  1.03  0.70
Si -1.86  1.12  0.73
Si -0.06 -0.03 -2.32
Si  1.82  1.03  2.95
Si  1.84 -3.14  0.09
Si -3.67 -0.07  0.03
Si -1.83  1.10  3.04
Si -0.06 -2.12  3.05
Si -1.82 -3.25 -0.04
Si  1.91  3.20 -0.04
Si -0.06  2.18 -3.03
Si  1.89 -1.05 -3.05
Si  3.79 -0.07  0.03
Si -1.88  3.31  0.09
Si -1.91 -1.12 -3.14
Si  1.84 -3.18 -2.20
Si  0.07  4.25  0.83
Si  1.83 -1.11  3.77
Si  1.83  3.19 -2.31
Si -3.65 -2.20  0.83
Si -3.72 -0.01 -2.26
Si  3.73 -0.01 -2.26
Si -1.89  3.28 -2.20
Si  0.00  2.15  3.83
Si -1.90 -3.27 -2.31
Si -1.89 -1.02  3.89
Si  3.80 -2.20  0.83
Si  3.72  2.11 -2.97
Si -3.73  2.11 -2.97
Si -0.01 -4.35 -2.97
Si -0.01  4.26  3.11
Si  3.72 -2.20  3.11
Si -3.73 -2.20  3.11
Si  3.66  2.12  3.77
Si -5.54  1.03  0.70
Si  1.86 -5.34  0.73
Si -0.06 -4.33  3.77
Si  5.59  1.12  0.73
Si -3.79  2.12  3.77
Si  1.86 -1.03 -5.36
Si -1.82 -5.43  0.70
Si -0.02  2.24 -5.34
Si  3.71  4.39  0.75
Si -1.82 -1.12 -5.39
Si -3.75  4.39  0.75
Si  1.84  1.16 -6.00
Si  0.06  6.38  0.03
Si  3.67 -4.28 -3.03
Si -5.55  3.20 -0.04
Si  1.91 -1.10  6.04
Si -5.56 -1.05 -3.05
Si -5.61 -3.14  0.09
Si -5.63  1.03  2.95
Si  1.89 -5.36  3.04
Si  1.82  5.33 -3.14
Si  3.67  4.33  3.05
Si  0.06 -2.23 -6.06
Si  0.06  2.08  6.11
Si -3.78 -4.28 -3.03
Si -1.91 -5.43  2.95
Si -1.83  5.40 -3.05
Si  5.55 -1.12 -3.14
Si  5.62  1.10  3.04
Si -1.82  1.05 -6.13
Si  5.57  3.31  0.09
Si  5.63 -3.25 -0.04
Si -3.78  4.33  3.05
Si  0.06 -6.53  0.03
Si -1.88 -0.99  6.17
Si -3.65  2.10 -5.26
Si -1.90  5.34  3.77
Si -5.61 -3.18 -2.20
Si  3.80  2.10 -5.26
Si  5.57  3.28 -2.20
Si  0.07 -4.35 -5.26
Si  0.00  6.45 -2.26
Si  0.00 -6.46 -2.26
Si  5.55 -3.27 -2.31
Si -3.72 -4.31  3.83
Si  3.73 -4.31  3.83
Si -5.62 -1.11  3.77
Si  5.57 -1.02  3.89
Si -5.62  3.19 -2.31
Si  0.07 -0.05  6.91
Si  1.84  5.43  3.89
Si  0.01 -4.25  6.03
Si -3.71 -6.40 -0.06
Si  3.74 -6.40 -0.06
Si -3.71  2.21  6.03
Si  3.74  2.21  6.03
Si -7.44  0.05 -0.06
Si  7.47  0.05 -0.06
Si -3.71 -2.10 -6.14
Si  3.74 -2.10 -6.14
Si -3.71  6.51 -0.06
Si  3.74  6.51 -0.06
Si  0.01  4.36 -6.14
Si -1.81  3.18  6.78
Si -1.81  7.48  0.70
Si  7.39 -0.03 -2.32
Si  3.71 -4.22 -5.34
Si  7.43 -2.07  0.75
Si -1.86 -3.19  6.81
Si  3.66  6.42 -2.32
Si -5.59 -5.34  0.73
Si -3.75 -4.22 -5.34
Si  1.91 -3.28  6.78
Si  3.71  0.09  6.83
Si  1.86  3.27  6.81
Si -7.47 -2.07  0.75
Si -3.75  0.09  6.83
Si  3.66 -6.48 -2.32
Si -3.79  6.42 -2.32
Si -5.59 -1.03 -5.36
Si  1.91  5.33 -5.39
Si  1.86  7.57  0.73
Si -1.86  5.42 -5.36
Si  5.64 -5.43  0.70
Si -3.79 -6.48 -2.32
Si -7.52 -0.03 -2.32
Si  5.64 -1.12 -5.39
Si -1.88 -5.29 -6.00
Si -3.67  4.23 -6.06
Si -1.90  7.48  2.95
Si -5.55 -1.10  6.04
Si -1.82  5.36  6.04
Si  7.40 -2.12  3.05
Si  7.40  2.18 -3.03
Si -5.61  1.16 -6.00
Si -5.56 -5.36  3.04
Si  3.79  4.23 -6.06
Si  5.55 -5.43  2.95
Si -1.83 -7.51 -3.05
Si  1.89  7.55  3.04
Si -5.63  5.33 -3.14
Si -3.67 -4.38  6.11
Si  5.62  5.40 -3.05
Si  5.57 -0.99  6.17
Si -7.51 -2.12  3.05
Si -7.51  2.18 -3.03
Si  1.91 -5.40 -6.13
Si  5.63  1.05 -6.13
Si  1.82 -7.58 -3.14
Si  3.79 -4.38  6.11
Si  1.84  5.46  6.17
Si -7.38  4.25  0.83
Si  1.84  1.13 -8.28
Si  5.55  5.34  3.77
Si  0.00 -2.16 -8.35
Si  1.84 -7.48  3.89
Si -7.45  2.15  3.83
Si  7.46  2.15  3.83
Si -1.90 -7.57  3.77
Si -1.90  1.04 -8.40
Si  7.53  4.25  0.83
Si  0.07 -8.65  0.83
Si -5.61  5.43  3.89
Si -0.01 -0.04 -9.06
Si -0.01  8.56 -2.97
Si  7.45 -4.35 -2.97
Si  7.45  4.26  3.11
Si -7.46 -4.35 -2.97
Si -7.46  4.26  3.11
Si -0.01 -8.65  3.11
Si -0.01 -0.04  9.20
Si  3.71 -8.52  0.75
Si -3.75 -8.52  0.75
Si -0.02 -6.37  6.83
Si -5.54 -3.28  6.78
Si  7.39 -4.33  3.77
Si -0.06  8.58  3.77
Si  5.59 -3.19  6.81
Si  5.64  3.18  6.78
Si -5.54  5.33 -5.39
Si  5.64  7.48  0.70
Si -1.86 -7.49 -5.36
Si -5.59  3.27  6.81
Si -9.32  1.12  0.73
Si  7.43  2.24 -5.34
Si  3.66 -2.18 -8.40
Si -0.06  4.27 -8.40
Si -5.59  7.57  0.73
Si  9.36  1.03  0.70
Si  5.59  5.42 -5.36
Si -7.47  2.24 -5.34
Si -0.02  6.54  6.83
Si -7.52 -4.33  3.77
Si -3.79 -2.18 -8.40
Si  1.91 -7.58 -5.39
Si  5.57 -5.29 -6.00
Si -7.39  6.38  0.03
Si -1.90  3.18  9.03
Si  5.55  7.48  2.95
Si -1.88 -9.60  0.09
Si  1.82 -3.27  9.03
Si  9.28  1.03  2.95
Si -7.39 -2.23 -6.06
Si  9.30 -3.14  0.09
Si -7.39  2.08  6.11
Si  3.67 -8.58  3.05
Si -9.27 -3.25 -0.04
Si  3.67  0.03 -9.12
Si -1.82  9.66 -0.04
Si -9.29  1.10  3.04
Si -1.83 -3.21  9.12
Si -1.82 -7.55  6.04
Si  5.63  5.36  6.04
Si  1.84 -7.45  6.17
Si  3.67  0.03  9.14
Si -1.83 -3.21 -9.13
Si -5.56  7.55  3.04
Si  7.51  6.38  0.03
Si  3.67  8.63 -3.03
Si -3.78 -8.58  3.05
Si  5.62 -7.51 -3.05
Si -7.39 -6.53  0.03
Si  1.89  3.25  9.12
Si -3.78  0.03 -9.12
Si -1.88  7.61 -6.00
Si -5.55 -5.40 -6.13
Si  1.91  7.51 -6.13
Si  1.89  3.25 -9.13
Si  9.34 -1.05 -3.05
Si  1.91 -9.70 -0.04
Si -3.78  0.03  9.14
Si  9.36  3.20 -0.04
Si -3.78  8.63 -3.03
Si  7.51 -2.23 -6.06
Si -9.34  3.31  0.09
Si  7.51  2.08  6.11
Si -9.36 -1.12 -3.14
Si -1.91  3.18 -9.22
Si  1.84  9.77  0.09
Si -5.63 -7.58 -3.14
Si  1.82 -3.28 -9.22
Si  7.51 -6.53  0.03
Si -5.61  5.46  6.17
Si -1.89 -5.33 -8.28
Si  0.07  8.56 -5.26
Si -7.38 -4.35 -5.26
Si -1.89 -9.63 -2.20
Si  9.29 -3.18 -2.20
Si -5.61  1.13 -8.28
Si  9.28 -1.11  3.77
Si  9.28  3.19 -2.31
Si -1.90  1.04  9.86
Si -1.90  9.64 -2.31
Si -3.72  4.30 -8.35
Si  3.73  4.30 -8.35
Si -3.65  6.41  6.91
Si -7.45  6.45 -2.26
Si -7.38 -0.05  6.91
Si  7.46  6.45 -2.26
Si -7.45 -6.46 -2.26
Si  5.55 -7.57  3.77
Si -3.72  8.60  3.83
Si  7.46 -6.46 -2.26
Si  5.55  1.04 -8.40
Si  3.73  8.60  3.83
Si -5.61 -7.48  3.89
Si -9.34  3.28 -2.20
Si  0.00 -2.16  9.91
Si  1.84  9.73 -2.20
Si  1.83 -9.72 -2.31
Si  1.83 -5.42 -8.40
Si  7.53 -4.35 -5.26
Si  3.80  6.41  6.91
Si -9.34 -1.02  3.89
Si -3.65 -6.50  6.91
Si -9.35 -3.27 -2.31
Si  1.84  1.13  9.97
Si  7.53 -0.05  6.91
Si  3.80 -6.50  6.91
Si -7.44 -4.25  6.03
Si  7.47 -4.25  6.03
Si  0.01 -8.55 -6.14
Si  0.01  8.66  6.03
Si -7.44  4.36 -6.14
Si  7.47  4.36 -6.14
Si  3.66 -2.18  9.85
Si -0.06  4.27  9.85
Si  9.31 -5.34  0.73
Si -9.27 -5.43  0.70
Si  5.59 -7.49 -5.36
Si -3.79 -2.18  9.85
Si -9.27 -1.12 -5.39
Si  9.31 -1.03 -5.36
Si -5.54 -7.58 -5.39
Si  3.71  8.69 -5.34
Si -3.75  8.69 -5.34
Si -0.02 10.84  0.75
Si  5.55  3.18  9.03
Si  5.57 -9.60  0.09
Si -3.67  8.53  6.11
Si -11.12 -0.07  0.03
Si  9.30  1.16 -6.00
Si -5.63 -3.27  9.03
Si  9.28  5.33 -3.14
Si -0.06 -10.73 -3.03
Si -0.06 -6.43 -9.12
Si  3.79  8.53  6.11
Si -5.56  3.25  9.12
Si -9.27  1.05 -6.13
Si -5.55  7.51 -6.13
Si -9.29  5.40 -3.05
Si -0.06 -6.43  9.14
Si -5.56  3.25 -9.13
Si -5.55 -9.70 -0.04
Si  5.57  7.61 -6.00
Si  5.63  9.66 -0.04
Si  5.62 -3.21  9.12
Si -5.61 -7.45  6.17
Si -0.06  6.48 -9.12
Si  9.34 -5.36  3.04
Si  5.63 -7.55  6.04
Si  5.62 -3.21 -9.13
Si  9.36 -1.10  6.04
Si -3.67 -8.68 -6.06
Si -0.06  6.48  9.14
Si -0.06 10.79  3.05
Si -9.36 -5.43  2.95
Si  5.55  3.18 -9.22
Si -9.34 -0.99  6.17
Si 11.24 -0.07  0.03
Si  3.79 -8.68 -6.06
Si -5.61  9.77  0.09
Si -5.63 -3.28 -9.22
Si  5.57 -5.33 -8.28
Si  5.57 -9.63 -2.20
Si -3.65 10.71  0.83
Si  0.07 -0.05 -11.34
Si -11.11 -2.20  0.83
Si  5.55  1.04  9.86
Si  5.55  9.64 -2.31
Si -1.89  7.58 -8.28
Si  3.80 10.71  0.83
Si -7.45 -2.16 -8.35
Si  1.83 -5.42  9.86
Si  7.46 -2.16 -8.35
Si  1.83  7.49 -8.40
Si -11.18 -0.01 -2.26
Si -7.38 -8.65  0.83
Si 11.18 -0.01 -2.26
Si -9.35  5.34  3.77
Si  0.00 -10.76  3.83
Si -3.72  4.30  9.91
Si  3.73  4.30  9.91
Si  9.29  5.43  3.89
Si -5.61  9.73 -2.20
Si -1.89 -5.33  9.97
Si -5.62 -9.72 -2.31
Si -5.62 -5.42 -8.40
Si 11.25 -2.20  0.83
Si  7.53 -8.65  0.83
Si -5.61  1.13  9.97
Si  3.72  6.41 -9.06
Si -3.73  6.41 -9.06
Si  7.45 -0.04 -9.06
Si  7.45  8.56 -2.97
Si -7.46 -0.04 -9.06
Si -7.46  8.56 -2.97
Si  3.72 -6.50 -9.06
Si 11.17  2.11 -2.97
Si -3.73 -6.50 -9.06
Si  3.72 10.71  3.11
Si -3.73 10.71  3.11
Si -11.19  2.11 -2.97
Si  3.72 -10.80 -2.97
Si 11.17 -2.20  3.11
Si -3.73 -10.80 -2.97
Si  3.72  6.41  9.20
Si -3.73  6.41  9.20
Si -11.19 -2.20  3.11
Si  7.45 -8.65  3.11
Si  7.45 -0.04  9.20
Si -7.46 -8.65  3.11
Si -7.46 -0.04  9.20
Si  3.72 -6.50  9.20
Si -3.73 -6.50  9.20
Si -9.27  3.18  6.78
Si 11.12  2.12  3.77
Si -9.27  7.48  0.70
Si  7.39  8.58  3.77
Si -0.02 -10.67 -5.34
Si  1.91  9.63  6.78
Si  7.43 -6.37  6.83
Si  1.86 -9.64  6.81
Si -1.86 -11.79  0.73
Si -7.47 -6.37  6.83
Si -9.32 -3.19  6.81
Si  7.39  4.27 -8.40
Si  9.31  3.27  6.81
Si  3.66 -10.79  3.77
Si -1.82 -9.73  6.78
Si  3.71  0.08 -11.42
Si -7.51  8.58  3.77
Si 11.16  4.39  0.75
Si  9.36 -3.28  6.78
Si -1.86  9.72  6.81
Si -1.86 -3.19 -11.44
Si -3.75  0.08 -11.42
Si  9.31  7.57  0.73
Si  7.43  6.54  6.83
Si -9.32  5.42 -5.36
Si -3.79 -10.79  3.77
Si -1.82  3.18 -11.47
Si  1.86  3.27 -11.44
Si -11.24  2.12  3.77
Si  9.36  5.33 -5.39
Si -0.06 -8.63 -8.40
Si -11.20  4.39  0.75
Si -7.47  6.54  6.83
Si  1.91 -11.88  0.70
Si -7.52  4.27 -8.40
Si  1.91 -3.28 -11.47
Si -1.88 -0.99 -12.08
Si  0.06 10.68 -6.06
Si -9.34 -5.29 -6.00
Si -9.27  5.36  6.04
Si 11.12 -4.28 -3.03
Si -1.82  1.05 12.12
Si  0.06  2.08 -12.14
Si 11.12  4.33  3.05
Si -9.29 -7.51 -3.05
Si -1.83 -11.81  3.04
Si -9.36  7.48  2.95
Si -1.90 11.78 -3.14
Si  1.82 -11.88  2.95
Si  9.27 -7.58 -3.14
Si  1.89 11.85 -3.05
Si  9.35  7.55  3.04
Si -11.23 -4.28 -3.03
Si  0.06 -2.23 12.20
Si  1.91 -1.10 -12.21
Si -11.23  4.33  3.05
Si  9.36 -5.40 -6.13
Si  9.30  5.46  6.17
Si  0.06 -10.83  6.11
Si  1.84  1.16 12.26
Si -7.38  8.56 -5.26
Si -11.11  2.10 -5.26
Si  9.29  1.13 -8.28
Si  1.83  7.49  9.86
Si  1.83 11.79  3.77
Si  5.57  7.58 -8.28
Si  9.29 -7.48  3.89
Si  7.53  8.56 -5.26
Si -3.72 -8.61 -8.35
Si  3.73 -8.61 -8.35
Si -3.65 -10.81 -5.26
Si -11.18 -4.31  3.83
Si -5.62 -5.42  9.86
Si 11.18 -4.31  3.83
Si -5.62  7.49 -8.40
Si -7.45 -2.16  9.91
Si  7.46 -2.16  9.91
Si 11.25  2.10 -5.26
Si  5.57 -5.33  9.97
Si  3.80 -10.81 -5.26
Si -9.35 -7.57  3.77
Si -9.35  1.04 -8.40
Si -1.89 11.88  3.89
Si -1.89  7.58  9.97
Si -3.71 -10.70  6.03
Si  3.74 -10.70  6.03
Si -3.71 -2.10 12.12
Si  3.74 -2.10 12.12
Si  0.01 -12.85 -0.06
Si -11.17 -6.40 -0.06
Si  0.01  4.36 12.12
Si -11.17  2.21  6.03
Si -7.44 -8.55 -6.14
Si 11.19 -6.40 -0.06
Si 11.19  2.21  6.03
Si  7.47 -8.55 -6.14
Si -7.44  8.66  6.03
Si -11.17 -2.10 -6.14
Si -11.17  6.51 -0.06
Si  7.47  8.66  6.03
Si 11.19 -2.10 -6.14
Si  0.01 -4.25 -12.22
Si 11.19  6.51 -0.06
Si  0.01 12.96 -0.06
Si -3.71  2.21 -12.22
Si  3.74  2.21 -12.22
Si -3.71 10.81 -6.14
Si  3.74 10.81 -6.14
Si -5.54  9.63  6.78
Si  7.39  4.27  9.85
Si -1.82 -1.12 12.87
Si 11.12  6.42 -2.32
Si -12.99  1.03  0.70
Si -5.59 -9.64  6.81
Si  5.59 -11.79  0.73
Si 11.16 -4.22 -5.34
Si  1.86 -1.03 12.90
Si 11.12 -6.48 -2.32
Si -0.02 -6.37 -11.42
