500
set: 58.00  0.00  0.00
Si  0.00  0.00  0.00
Si  0.56 -0.24  2.33
Si -0.56  0.24 -2.33
Si -1.28 -2.27  0.00
Si  1.28  2.27  0.00
Si -1.49  2.27  0.00
Si  1.49 -2.27  0.00
Si -2.76  0.00  0.00
Si  2.76  0.00  0.00
Si -2.21 -0.24  2.33
Si  2.21  0.24 -2.33
Si -0.93  2.03  2.33
Si  0.93 -2.03 -2.33
Si  0.72  2.51 -2.33
Si -0.72 -2.51  2.33
Si -1.83 -2.03 -2.33
Si  1.83  2.03  2.33
Si -2.04  2.51 -2.33
Si  2.04 -2.51  2.33
Si  3.32 -0.24  2.33
Si -3.32  0.24 -2.33
Si  0.21 -4.54  0.00
Si -0.21  4.54  0.00
Si  4.04  2.27  0.00
Si -4.04 -2.27  0.00
Si -1.11  0.48 -4.66
Si  1.11 -0.48  4.66
Si  3.69 -2.03 -2.33
Si -3.69  2.03  2.33
Si -4.25  2.27  0.00
Si  4.25 -2.27  0.00
Si  3.49  2.51 -2.33
Si -3.49 -2.51  2.33
Si  0.35  4.30  2.33
Si -0.35 -4.30 -2.33
Si -1.65 -0.48  4.66
Si  1.65  0.48 -4.66
Si -0.38  1.79  4.66
Si  0.38 -1.79 -4.66
Si -2.56 -4.54  0.00
Si  2.56  4.54  0.00
Si  0.76 -4.79  2.33
Si -0.76  4.79 -2.33
Si  0.17  2.75 -4.66
Si -0.17 -2.75  4.66
Si -2.97  4.54  0.00
Si  2.97 -4.54  0.00
Si -2.42  4.30  2.33
Si  2.42 -4.30 -2.33
Si  4.97  0.24 -2.33
Si -4.97 -0.24  2.33
Si -5.53  0.00  0.00
Si  5.53  0.00  0.00
Si -2.39 -1.79 -4.66
Si  2.39  1.79  4.66
Si  4.60  2.03  2.33
Si -4.60 -2.03 -2.33
Si  2.00  4.79 -2.33
Si -2.00 -4.79  2.33
Si -3.11 -4.30 -2.33
Si  3.11  4.30  2.33
Si  3.14 -1.79 -4.66
Si -3.14  1.79  4.66
Si  4.80 -2.51  2.33
Si -4.80  2.51 -2.33
Si  2.60 -2.75  4.66
Si -2.60  2.75 -4.66
Si  3.87 -0.48  4.66
Si -3.87  0.48 -4.66
Si -2.93 -2.75  4.66
Si  2.93  2.75 -4.66
Si  0.90  4.06  4.66
Si -0.90 -4.06 -4.66
Si -3.53  4.79 -2.33
Si  3.53 -4.79  2.33
Si  4.42  0.48 -4.66
Si -4.42 -0.48  4.66
Si -1.86  4.06  4.66
Si  1.86 -4.06 -4.66
Si -6.08  0.24 -2.33
Si  6.08 -0.24  2.33
Si  1.07  6.82  0.00
Si -1.07 -6.82  0.00
Si -1.32  5.03 -4.66
Si  1.32 -5.03  4.66
Si -5.32 -4.54  0.00
Si  5.32  4.54  0.00
Si  1.45  5.03 -4.66
Si -1.45 -5.03  4.66
Si  1.69 -6.82  0.00
Si -1.69  6.82  0.00
Si -1.14  6.58  2.33
Si  1.14 -6.58 -2.33
Si -1.10 -0.72  6.99
Si  1.10  0.72 -6.99
Si  5.18 -4.30 -2.33
Si -5.18  4.30  2.33
Si -6.25 -2.51  2.33
Si  6.25  2.51 -2.33
Si -4.77 -4.79  2.33
Si  4.77  4.79 -2.33
Si -6.46  2.03  2.33
Si  6.46 -2.03 -2.33
Si  0.18  1.55  6.99
Si -0.18 -1.55 -6.99
Si -1.63 -6.58 -2.33
Si  1.63  6.58  2.33
Si  5.15  1.79  4.66
Si -5.15 -1.79 -4.66
Si -6.81 -2.27  0.00
Si  6.81  2.27  0.00
Si  3.67  4.06  4.66
Si -3.67 -4.06 -4.66
Si  1.67 -0.72  6.99
Si -1.67  0.72 -6.99
Si  5.74 -4.54  0.00
Si -5.74  4.54  0.00
Si -7.01  2.27  0.00
Si  7.01 -2.27  0.00
Si  0.52  7.06 -2.33
Si -0.52 -7.06  2.33
Si  2.58 -1.55 -6.99
Si -2.58  1.55  6.99
Si  0.39 -3.00  6.99
Si -0.39  3.00 -6.99
Si -5.36  2.75 -4.66
Si  5.36 -2.75  4.66
Si  5.88  4.30  2.33
Si -5.88 -4.30 -2.33
Si -4.62  4.06  4.66
Si  4.62 -4.06 -4.66
Si -5.90  1.79  4.66
Si  5.90 -1.79 -4.66
Si -2.94 -1.55 -6.99
Si  2.94  1.55  6.99
Si -2.25  7.06 -2.33
Si  2.25 -7.06  2.33
Si  3.84  6.82  0.00
Si -3.84 -6.82  0.00
Si -5.70 -2.75  4.66
Si  5.70  2.75 -4.66
Si  0.58 -6.34 -4.66
Si -0.58  6.34  4.66
Si  2.38  3.00 -6.99
Si -2.38 -3.00  6.99
Si  4.08 -5.03  4.66
Si -4.08  5.03 -4.66
Si  7.36  2.03  2.33
Si -7.36 -2.03 -2.33
Si -3.90  6.58  2.33
Si  3.90 -6.58 -2.33
Si -3.86 -0.72  6.99
Si  3.86  0.72 -6.99
Si  4.21  5.03 -4.66
Si -4.21 -5.03  4.66
Si -1.31  3.82  6.99
Si  1.31 -3.82 -6.99
Si -7.74 -0.24  2.33
Si  7.74  0.24 -2.33
Si -1.46 -3.82 -6.99
Si  1.46  3.82  6.99
Si -6.64  0.48 -4.66
Si  6.64 -0.48  4.66
Si  3.28  7.06 -2.33
Si -3.28 -7.06  2.33
Si -4.46  6.82  0.00
Si  4.46 -6.82  0.00
Si -2.18 -6.34 -4.66
Si  2.18  6.34  4.66
Si -3.15  3.00 -6.99
Si  3.15 -3.00  6.99
Si -6.29  4.79 -2.33
Si  6.29 -4.79  2.33
Si  4.39  6.58  2.33
Si -4.39 -6.58 -2.33
Si  8.29  0.00  0.00
Si -8.29  0.00  0.00
Si  4.43 -0.72  6.99
Si -4.43  0.72 -6.99
Si  7.57 -2.51  2.33
Si -7.57  2.51 -2.33
Si -3.35  6.34  4.66
Si  3.35 -6.34 -4.66
Si  7.18  0.48 -4.66
Si -7.18 -0.48  4.66
Si  0.04 -7.30  4.66
Si -0.04  7.30 -4.66
Si -0.89 -5.27  6.99
Si  0.89  5.27 -6.99
Si -6.43 -4.06 -4.66
Si  6.43  4.06  4.66
Si  5.35 -1.55 -6.99
Si -5.35  1.55  6.99
Si  4.07 -3.82 -6.99
Si -4.07  3.82  6.99
Si -1.87  5.27 -6.99
Si  1.87 -5.27  6.99
Si  5.01 -7.06  2.33
Si -5.01  7.06 -2.33
Si -4.22 -3.82 -6.99
Si  4.22  3.82  6.99
Si  2.73  7.30 -4.66
Si -2.73 -7.30  4.66
Si -0.41  9.09  0.00
Si  0.41 -9.09  0.00
Si -2.80  7.30 -4.66
Si  2.80 -7.30  4.66
Si -0.14 -8.85 -2.33
Si  0.14  8.85  2.33
Si  8.85 -0.24  2.33
Si -8.85  0.24 -2.33
Si -5.71 -1.55 -6.99
Si  5.71  1.55  6.99
Si  5.14  3.00 -6.99
Si -5.14 -3.00  6.99
Si  7.53  4.79 -2.33
Si -7.53 -4.79  2.33
Si  0.03 -6.09 -6.99
Si -0.03  6.09  6.99
Si  8.09  4.54  0.00
Si -8.09 -4.54  0.00
Si  4.95  6.34  4.66
Si -4.95 -6.34 -4.66
Si -7.95  4.30  2.33
Si  7.95 -4.30 -2.33
Si -7.92 -1.79 -4.66
Si  7.92  1.79  4.66
Si  0.54  0.96 -9.32
Si -0.54 -0.96  9.32
Si  2.35  9.09  0.00
Si -2.35 -9.09  0.00
Si  0.73  1.31  9.32
Si -0.73 -1.31 -9.32
Si -3.66 -5.27  6.99
Si  3.66  5.27 -6.99
Si  6.60  6.82  0.00
Si -6.60 -6.82  0.00
Si -2.62  8.85  2.33
Si  2.62 -8.85 -2.33
Si -6.04 -7.06  2.33
Si  6.04  7.06 -2.33
Si -2.91 -8.85 -2.33
Si  2.91  8.85  2.33
Si  2.03 -1.31 -9.32
Si -2.03  1.31  9.32
Si  3.18 -9.09  0.00
Si -3.18  9.09  0.00
Si -2.22  0.96 -9.32
Si  2.22 -0.96  9.32
Si  5.92 -3.00  6.99
Si -5.92  3.00 -6.99
Si  7.39 -4.06 -4.66
Si -7.39  4.06  4.66
Si -8.50  4.54  0.00
Si  8.50 -4.54  0.00
Si  9.02  2.51 -2.33
Si -9.02 -2.51  2.33
Si  6.67 -6.58 -2.33
Si -6.67  6.58  2.33
Si  6.63  0.72 -6.99
Si -6.63 -0.72  6.99
Si -0.97  9.33 -2.33
Si  0.97 -9.33  2.33
Si  2.74  6.09  6.99
Si -2.74 -6.09 -6.99
Si  2.79 -6.09 -6.99
Si -2.79  6.09  6.99
Si -6.84  5.03 -4.66
Si  6.84 -5.03  4.66
Si  9.22 -2.03 -2.33
Si -9.22  2.03  2.33
Si -8.12  2.75 -4.66
Si  8.12 -2.75  4.66
Si  6.98  5.03 -4.66
Si -6.98 -5.03  4.66
Si  1.80  9.33 -2.33
Si -1.80 -9.33  2.33
Si -0.70 -8.61 -4.66
Si  0.70  8.61  4.66
Si -9.57 -2.27  0.00
Si  9.57  2.27  0.00
Si  4.64 -5.27  6.99
Si -4.64  5.27 -6.99
Si  0.94 -3.24  9.32
Si -0.94  3.24 -9.32
Si -8.64 -4.30 -2.33
Si  8.64  4.30  2.33
Si -7.22  6.82  0.00
Si  7.22 -6.82  0.00
Si -3.31 -0.96  9.32
Si  3.31  0.96 -9.32
Si -6.11  6.34  4.66
Si  6.11 -6.34 -4.66
Si  7.16  6.58  2.33
Si -7.16 -6.58 -2.33
Si  8.67 -1.79 -4.66
Si -8.67  1.79  4.66
Si  2.07 -8.61 -4.66
Si -2.07  8.61  4.66
Si -0.75  3.58  9.32
Si  0.75 -3.58 -9.32
Si  1.82  3.24 -9.32
Si -1.82 -3.24  9.32
Si  9.78 -2.27  0.00
Si -9.78  2.27  0.00
Si -3.50 -1.31 -9.32
Si  3.50  1.31  9.32
Si -8.46 -2.75  4.66
Si  8.46  2.75 -4.66
Si -7.19  0.72 -6.99
Si  7.19 -0.72  6.99
Si  2.01  3.58  9.32
Si -2.01 -3.58 -9.32
Si -5.49 -7.30  4.66
Si  5.49  7.30 -4.66
Si -5.57  7.30 -4.66
Si  5.57 -7.30  4.66
Si  0.59 -7.54  6.99
Si -0.59  7.54 -6.99
Si  3.73 -9.33  2.33
Si -3.73  9.33 -2.33
Si  3.46  8.61  4.66
Si -3.46 -8.61 -4.66
Si -5.12 -9.09  0.00
Si  5.12  9.09  0.00
Si -6.83  3.82  6.99
Si  6.83 -3.82 -6.99
Si  9.05 -4.79  2.33
Si -9.05  4.79 -2.33
Si  9.40 -0.48  4.66
Si -9.40  0.48 -4.66
Si  2.17  7.54 -6.99
Si -2.17 -7.54  6.99
Si -3.71  3.24 -9.32
Si  3.71 -3.24  9.32
Si -4.79  1.31  9.32
Si  4.79 -1.31 -9.32
Si -3.52  3.58  9.32
Si  3.52 -3.58 -9.32
Si -10.13 -2.03 -2.33
Si 10.13  2.03  2.33
Si  6.99  3.82  6.99
Si -6.99 -3.82 -6.99
Si -4.98  0.96 -9.32
Si  4.98 -0.96  9.32
Si  5.39 -8.85 -2.33
Si -5.39  8.85  2.33
Si  4.56  9.33 -2.33
Si -4.56 -9.33  2.33
Si  1.24  9.57 -4.66
Si -1.24 -9.57  4.66
Si  1.52 -9.57  4.66
Si -1.52  9.57 -4.66
Si -7.78  7.06 -2.33
Si  7.78 -7.06  2.33
Si 10.50  0.24 -2.33
Si -10.50 -0.24  2.33
Si -5.67 -8.85 -2.33
Si  5.67  8.85  2.33
Si  5.50  6.09  6.99
Si -5.50 -6.09 -6.99
Si -5.56  6.09  6.99
Si  5.56 -6.09 -6.99
Si  3.36 -7.54  6.99
Si -3.36  7.54 -6.99
Si -8.11  1.55  6.99
Si  8.11 -1.55 -6.99
Si -0.34 -5.51  9.32
Si  0.34  5.51 -9.32
Si  6.42  5.27 -6.99
Si -6.42 -5.27  6.99
Si -5.94  9.09  0.00
Si  5.94 -9.09  0.00
Si  4.59  3.24 -9.32
Si -4.59 -3.24  9.32
Si 10.33 -2.51  2.33
Si -10.33  2.51 -2.33
Si -4.83  8.61  4.66
Si  4.83 -8.61 -4.66
Si -7.91 -3.00  6.99
Si  7.91  3.00 -6.99
Si  1.25  8.37  6.99
Si -1.25 -8.37 -6.99
Si -9.95 -0.48  4.66
Si  9.95  0.48 -4.66
Si -1.51  8.37  6.99
Si  1.51 -8.37 -6.99
Si  7.71  6.34  4.66
Si -7.71 -6.34 -4.66
Si -0.53 -5.86 -9.32
Si  0.53  5.86  9.32
Si 11.06  0.00  0.00
Si -11.06  0.00  0.00
Si  4.78  3.58  9.32
Si -4.78 -3.58 -9.32
Si -9.20 -4.06 -4.66
Si  9.20  4.06  4.66
Si -8.47 -1.55 -6.99
Si  8.47  1.55  6.99
Si  2.43 -5.51  9.32
Si -2.43  5.51 -9.32
Si  6.07  0.96 -9.32
Si -6.07 -0.96  9.32
Si  2.24 -5.86 -9.32
Si -2.24  5.86  9.32
Si  3.10  5.51 -9.32
Si -3.10 -5.51  9.32
Si  6.26  1.31  9.32
Si -6.26 -1.31 -9.32
Si -4.00 -9.57  4.66
Si  4.00  9.57 -4.66
Si -0.86 -11.36  0.00
Si  0.86 11.36  0.00
Si  4.93  7.54 -6.99
Si -4.93 -7.54  6.99
Si  1.34 -11.12 -2.33
Si -1.34 11.12  2.33
Si -1.42 -11.12 -2.33
Si  1.42 11.12  2.33
Si  7.40 -5.27  6.99
Si -7.40  5.27 -6.99
Si  4.29 -9.57  4.66
Si -4.29  9.57 -4.66
Si -3.29 -5.86 -9.32
Si  3.29  5.86  9.32
Si -1.90 11.36  0.00
Si  1.90 -11.36  0.00
Si -8.81 -7.06  2.33
Si  8.81  7.06 -2.33
Si -8.68  3.00 -6.99
Si  8.68 -3.00  6.99
Si  9.37  6.82  0.00
Si -9.37 -6.82  0.00
Si 10.29  4.79 -2.33
Si -10.29 -4.79  2.33
Si  6.22  8.61  4.66
Si -6.22 -8.61 -4.66
Si -6.50  9.33 -2.33
Si  6.50 -9.33  2.33
Si -4.02 -8.37 -6.99
Si  4.02  8.37  6.99
Si -4.28  8.37  6.99
Si  4.28 -8.37 -6.99
Si -0.01  1.20 -11.65
Si  0.01 -1.20 11.65
Si  9.39  0.72 -6.99
Si -9.39 -0.72  6.99
Si  9.43 -6.58 -2.33
Si -9.43  6.58  2.33
Si -10.85 -4.54  0.00
Si 10.85  4.54  0.00
Si -1.29 -1.07 -11.65
Si  1.29  1.07 11.65
Si -10.71  4.30  2.33
Si 10.71 -4.30 -2.33
Si 10.68  1.79  4.66
Si -10.68 -1.79 -4.66
Si  1.48 -1.07 -11.65
Si -1.48  1.07 11.65
Si -6.28  3.58  9.32
Si  6.28 -3.58 -9.32
Si  6.47 -3.24  9.32
Si -6.47  3.24 -9.32
Si  9.61 -5.03  4.66
Si -9.61  5.03 -4.66
Si -0.31 -11.60  2.33
Si  0.31 11.60 -2.33
Si 11.61 -0.24  2.33
Si -11.61  0.24 -2.33
Si  8.88 -6.34 -4.66
Si -8.88  6.34  4.66
Si -0.79 10.88  4.66
Si  0.79 -10.88 -4.66
Si 10.15 -4.06 -4.66
Si -10.15  4.06  4.66
Si  9.74  5.03 -4.66
Si -9.74 -5.03  4.66
Si -3.63 -11.36  0.00
Si  3.63 11.36  0.00
Si  8.26  7.30 -4.66
Si -8.26 -7.30  4.66
Si  6.12 -7.54  6.99
Si -6.12  7.54 -6.99
Si -1.98 -10.88 -4.66
Si  1.98 10.88  4.66
Si  5.19 -5.51  9.32
Si -5.19  5.51 -9.32
Si -8.33  7.30 -4.66
Si  8.33 -7.30  4.66
Si -7.88 -9.09  0.00
Si  7.88  9.09  0.00
Si  2.75  1.20 -11.65
Si -2.75 -1.20 11.65
Si -2.77  1.20 -11.65
Si  2.77 -1.20 11.65
Si -0.69 -9.81  6.99
Si  0.69  9.81 -6.99
Si  7.56 -1.31 -9.32
Si -7.56  1.31  9.32
Si  4.11 -11.12 -2.33
