500
set: 1537.00  0.00  0.00
Si -0.66 -0.95 -0.86
Si -1.10  0.56  1.01
Si  1.86 -0.47 -0.06
Si  1.19  1.60 -1.16
Si  0.60 -2.43  0.81
Si  0.87  1.14  2.42
Si -0.79  1.03 -2.57
Si -0.97 -1.41  2.72
Si -1.85  2.66  0.09
Si  0.86  3.05  0.81
Si  0.91 -1.96 -2.76
Si -2.12 -2.82  0.09
Si -3.00  0.99 -1.69
Si  3.20  0.53  1.89
Si -3.31  0.53  1.89
Si  1.54 -0.94  3.52
Si -3.22 -1.51 -1.72
Si  3.29 -1.51 -1.72
Si  3.51  0.99 -1.69
Si  2.97 -1.98  1.85
Si  0.92 -3.87 -1.16
Si  2.17 -0.01 -3.64
Si -3.54 -1.98  1.85
Si -0.35 -0.48 -4.43
Si -1.81 -2.35 -3.49
Si  1.18  3.51 -2.76
Si -0.40  4.53 -0.86
Si -4.65 -0.47 -0.06
Si -2.17  2.19  3.66
Si -1.42  0.10  4.59
Si -1.54  3.12 -3.49
Si -0.71  4.07  2.72
Si  0.61 -4.34  2.42
Si  3.24  3.50  1.85
Si  0.55  2.58  4.39
Si -3.27  3.50  1.85
Si -1.37 -4.91  1.01
Si  4.39 -2.82  0.09
Si -2.96  3.96 -1.72
Si -1.05 -4.45 -2.57
Si  0.29 -2.89  4.39
Si  4.65  2.66  0.09
Si  1.50  2.07 -4.74
Si  2.12  5.00 -0.06
Si -2.43 -3.28  3.66
Si  5.41  0.56  1.01
Si  3.55  3.96 -1.72
Si -4.34 -0.01 -3.64
Si -5.32  1.60 -1.16
Si  3.25 -4.48 -1.69
Si -3.26 -4.48 -1.69
Si  1.24 -3.41 -4.74
Si  5.85 -0.95 -0.86
Si  1.81  4.54  3.52
Si  2.94 -4.95  1.89
Si  0.56  0.67  6.00
Si -2.68  1.46 -5.26
Si  4.34  2.19  3.66
Si -2.91 -1.05 -5.30
Si -4.97 -0.94  3.52
Si  1.59 -5.95 -0.06
Si -0.84  6.04  1.01
Si  2.89  0.07  5.47
Si -5.63  1.14  2.42
Si  4.70 -2.35 -3.49
Si  5.53 -1.41  2.72
Si -0.48  1.49 -6.15
Si  5.72  1.03 -2.57
Si  4.08 -3.28  3.66
Si -3.57 -4.95  1.89
Si -5.91 -2.43  0.81
Si -5.64  3.05  0.81
Si  3.60 -1.05 -5.30
Si  2.66 -2.44  5.43
Si -5.60 -1.96 -2.76
Si -0.93 -6.42 -0.86
Si -3.62  0.07  5.47
Si  1.23 -1.50 -6.34
Si -4.39  5.00 -0.06
Si  3.83  1.46 -5.26
Si -0.08  4.99 -4.43
Si -1.29 -1.88  6.30
Si  4.97  3.12 -3.49
Si  1.91 -5.48 -3.64
Si  5.09  0.10  4.59
Si  2.93  3.03  5.43
Si -5.59 -3.87 -1.16
Si -5.33  3.51 -2.76
Si -3.04  6.01  1.89
Si  2.43  5.47 -3.64
Si -0.53  6.50 -2.57
Si -3.85 -2.44  5.43
Si  1.14  6.61  2.42
Si -3.58  3.03  5.43
Si  5.14 -4.91  1.01
Si  3.46  6.01  1.89
Si -5.01  2.07 -4.74
Si -2.73  6.47 -1.69
Si -2.95 -4.02 -5.26
Si -1.68 -5.38  4.59
Si -7.17 -0.95 -0.86
Si -1.15  5.57  4.59
Si  1.45  7.08 -1.16
Si -1.02  3.60  6.30
Si  1.23 -1.40  7.09
Si -0.74 -3.98 -6.15
Si -2.64  4.43 -5.30
Si -4.70  4.54  3.52
Si  1.28 -6.41  3.52
Si -0.61 -5.96 -4.43
Si -1.49 -1.89 -7.07
Si  5.45 -4.45 -2.57
Si -1.24 -6.89  2.72
Si  3.56 -4.02 -5.26
Si  7.11 -2.43  0.81
Si  5.80  4.07  2.72
Si  6.16 -0.48 -4.43
Si  1.49  3.98 -6.34
Si  2.48  0.46 -7.22
Si  6.11  4.53 -0.86
Si  3.78  6.47 -1.69
Si  0.30 -4.80  6.00
Si -7.61  0.56  1.01
Si -5.90 -4.34  2.42
Si -4.92 -5.95 -0.06
Si -4.08  5.47 -3.64
Si -7.30  1.03 -2.57
Si  3.02 -6.99 -1.72
Si -5.96  2.58  4.39
Si -2.48  1.73  7.24
Si  7.38  1.14  2.42
Si -5.27 -3.41 -4.74
Si  3.87  4.43 -5.30
Si  7.70  1.60 -1.16
Si  0.34 -7.90  0.81
Si  0.65 -7.44 -2.76
Si -3.49 -6.99 -1.72
Si -0.04 -0.02 -8.01
Si  7.37  3.05  0.81
Si -1.23  3.59 -7.07
Si -4.60 -5.48 -3.64
Si -7.48 -1.41  2.72
Si  2.62 -5.41  5.47
Si  2.71 -7.45  1.85
Si -6.22 -2.89  4.39
Si  7.42 -1.96 -2.76
Si -6.86 -0.48 -4.43
Si  0.24  2.12  7.97
Si -4.03  0.46 -7.22
Si -1.59  8.13  0.09
Si -6.91  4.53 -0.86
Si  1.50  4.08  7.09
Si  5.67  6.04  1.01
Si -1.73 -0.37  8.17
Si  8.37 -0.47 -0.06
Si -5.28 -1.50 -6.34
Si  5.22 -1.88  6.30
Si  3.15  5.54  5.47
Si  7.43 -3.87 -1.16
Si  4.03  1.73  7.24
Si -5.95  0.67  6.00
Si -3.36  5.54  5.47
Si  5.58 -6.42 -0.86
Si  4.83 -5.38  4.59
Si -3.80 -7.45  1.85
Si  6.80 -2.89  4.39
Si -2.75 -3.75  7.24
Si -3.89 -5.41  5.47
Si -2.38 -8.29  0.09
Si  0.82  6.15  6.00
Si  1.13  8.53  0.81
Si -0.03 -3.35  7.97
Si  7.12 -4.34  2.42
Si  7.06  2.58  4.39
Si -1.90  7.67  3.66
Si -7.22  4.07  2.72
Si  6.03  1.49 -6.15
Si -5.06  7.08 -1.16
Si -8.36  2.66  0.09
Si -2.07 -7.83 -3.49
Si  8.05 -0.94  3.52
Si -5.37  6.61  2.42
Si  5.01 -1.89 -7.07
Si  1.81  2.53 -8.32
Si  7.69  3.51 -2.76
Si -5.28 -1.40  7.09
Si  1.55 -2.94 -8.32
Si  3.76 -3.75  7.24
Si -3.17 -6.52 -5.30
Si  5.36  5.57  4.59
Si -5.23 -6.41  3.52
Si -5.02  3.98 -6.34
Si -2.42  6.93 -5.26
Si  3.33 -6.52 -5.30
Si  2.22 -5.02 -7.22
Si -8.63 -2.82  0.09
Si  1.76  7.54 -4.74
Si  5.27 -6.89  2.72
Si  5.49  3.60  6.30
Si -7.56 -4.45 -2.57
Si -7.93  0.10  4.59
Si  5.98  6.50 -2.57
Si  0.82  8.06  4.39
Si  4.12 -8.29  0.09
Si  6.42  4.99 -4.43
Si -2.60 -0.58 -8.88
Si -0.21  6.97 -6.15
Si  7.07  0.67  6.00
Si -8.05  3.12 -3.49
Si -8.32 -2.35 -3.49
Si  5.77 -3.98 -6.15
Si -7.88 -4.91  1.01
Si -2.37  1.92 -8.84
Si -1.28  8.60 -3.49
Si -6.59  4.99 -4.43
Si  8.68 -0.01 -3.64
Si  2.57 -0.40  9.05
Si -6.99  1.49 -6.15
Si  0.66 -9.35 -1.16
Si  0.02 -8.37  4.39
Si  4.78 -0.37  8.17
Si  0.96 -6.97 -6.34
Si  5.90 -5.96 -4.43
Si  4.92  8.13  0.09
Si  1.44  8.99 -2.76
Si  5.28  3.59 -7.07
Si  8.01  2.07 -4.74
Si -7.35  6.04  1.01
Si  0.25  0.21  9.57
Si -5.01  4.08  7.09
Si  4.09  6.93 -5.26
Si -3.00  8.97  1.85
Si  4.44 -7.83 -3.49
Si  4.61  7.67  3.66
Si -8.68  2.19  3.66
Si  7.74 -3.41 -4.74
Si  0.23  5.46 -8.01
Si -9.51  0.99 -1.69
Si -0.30 -5.49 -8.01
Si  3.91 -0.58 -8.88
Si  2.61  2.57  9.01
Si  2.75  5.93 -7.22
Si -1.47  5.11  8.17
Si  2.35 -2.91  9.01
Si -4.29 -5.02 -7.22
Si -1.55 -7.35  6.30
Si  3.50  8.97  1.85
Si -7.43 -6.42 -0.86
Si  9.48 -1.98  1.85
Si -5.86 -7.44 -2.76
Si -2.70 -8.76  3.66
Si -3.94 -0.40  9.05
Si -6.21 -4.80  6.00
Si -4.70  2.53 -8.32
Si -2.63 -3.55 -8.84
Si  2.40 -7.92  5.43
Si  9.71  0.53  1.89
Si -7.04  6.50 -2.57
Si -0.17  1.96 -9.72
Si  0.96 -6.88  7.09
Si -0.45  9.54  2.72
Si  4.14  1.92 -8.84
Si -2.69  9.44 -1.72
Si  8.63  5.00 -0.06
Si -9.73 -1.51 -1.72
Si -9.82  0.53  1.89
Si -0.13 10.00 -0.86
Si  8.10 -5.95 -0.06
Si -6.17 -7.90  0.81
Si  9.80 -1.51 -1.72
Si -3.76  5.93 -7.22
Si  1.54 -1.03 -9.92
Si -4.74  7.54 -4.74
Si  8.32  4.54  3.52
Si  0.34 -9.81  2.42
Si -5.38  8.53  0.81
Si  7.74 -1.50 -6.34
Si  0.97 -8.88 -4.74
Si -4.96 -2.94 -8.32
Si -3.90  2.57  9.01
Si -7.80 -1.88  6.30
Si -8.94 -3.28  3.66
Si 10.02  0.99 -1.69
Si  3.81 -8.76  3.66
Si -2.00 -5.84  8.17
Si  6.80 -4.80  6.00
Si -1.60 -2.34  9.88
Si  3.87 -3.55 -8.84
Si -7.12 -5.96 -4.43
Si -5.68  6.15  6.00
Si  6.47 -0.02 -8.01
Si -7.25 -3.98 -6.15
Si  3.82  9.44 -1.72
Si -1.32 -9.92 -2.57
Si -4.16 -2.91  9.01
Si -6.54 -0.02 -8.01
Si -0.43 -3.52 -9.72
Si -1.76 -7.36 -7.07
Si -6.27  2.12  7.97
Si  7.65  6.61  2.42
Si -2.33  4.89 -8.88
Si -10.04 -1.98  1.85
Si -9.47  3.96 -1.72
Si -4.11 -7.92  5.43
Si -1.34  3.14  9.88
Si -2.22  7.21  7.24
Si -7.53  3.60  6.30
Si  6.84 -7.90  0.81
Si  9.75  3.50  1.85
Si -7.66  5.57  4.59
Si  2.98 -9.96 -1.69
Si -9.78  3.50  1.85
Si -1.63 -10.39  1.01
Si  3.19  8.51  5.43
Si  7.74 -1.40  7.09
Si -3.32  8.51  5.43
Si  5.23  8.60 -3.49
Si  6.75  2.12  7.97
Si  8.41 -5.48 -3.64
Si  7.79 -6.41  3.52
Si -5.07  8.99 -2.76
Si  7.16 -7.44 -2.76
Si -9.19  1.46 -5.26
Si -3.52 -9.96 -1.69
Si  7.96  7.08 -1.16
Si -7.75 -6.89  2.72
Si  2.39 10.48 -0.06
Si  2.84  5.08  9.05
Si -5.69  8.06  4.39
Si  6.48 -3.35  7.97
Si -1.18 -1.42 -10.65
Si  2.07 10.02  3.52
Si -8.19 -5.38  4.59
Si  9.44 -4.95  1.89
Si -6.54 -3.35  7.97
Si -8.00 -1.89 -7.07
Si -9.42 -1.05 -5.30
Si  9.76 -4.48 -1.69
Si  9.39  0.07  5.47
Si  0.92 -1.86 10.67
Si  5.04  5.11  8.17
Si  4.96 -7.35  6.30
Si -9.77 -4.48 -1.69
Si  2.67 -10.42  1.89
Si -0.02 -5.26  9.57
Si  9.17 -2.44  5.43
Si -5.55 -6.97 -6.34
Si 10.06  3.96 -1.72
Si  8.00  3.98 -6.34
Si  4.18  4.89 -8.88
Si -3.67  5.08  9.05
Si  4.51 -5.84  8.17
Si  1.80  4.44 -9.92
Si  0.50  7.60  7.97
Si  2.31 -5.87  9.05
Si -0.76  9.07  6.30
Si -7.74  3.59 -7.07
Si  4.29  7.21  7.24
Si -5.85 -9.35 -1.16
Si  8.94  5.47 -3.64
Si -2.86 -6.06 -8.88
Si -4.97 -1.03 -9.92
Si  0.51  5.68  9.57
Si -11.16 -0.47 -0.06
Si  2.79  0.92 -10.80
Si  6.30  6.97 -6.15
Si -2.79  1.27 10.82
Si 10.90 -2.82  0.09
Si  4.75 -7.36 -7.07
Si -4.12 10.48 -0.06
Si -3.84 -10.42  1.89
Si  4.91 -2.34  9.88
Si  7.33  6.15  6.00
Si  9.43  3.03  5.43
Si -3.21 -9.49 -5.26
Si -1.01 -9.46 -6.15
Si -5.54 -6.88  7.09
Si  1.18  3.61 10.67
Si  3.30 -9.49 -5.26
Si  3.65 -6.06 -8.88
Si  0.18 10.47 -4.43
Si -10.08 -4.95  1.89
Si -9.24  6.47 -1.69
Si -0.92  4.05 -10.65
Si -9.55  6.01  1.89
Si -6.26  0.21  9.57
Si -10.85 -0.01 -3.64
Si  8.00  4.08  7.09
Si -3.71  0.92 -10.80
Si -6.49 -8.37  4.39
Si 10.11 -1.05 -5.30
Si -9.15  4.43 -5.30
Si -6.72  6.97 -6.15
Si  7.64  8.53  0.81
Si 11.16  2.66  0.09
Si -8.10  8.13  0.09
Si -2.38  9.90 -5.30
Si  6.53 -8.37  4.39
Si  5.19 -9.92 -2.57
Si -5.54 -8.88 -4.74
Si  1.33 -11.42 -0.06
Si -4.44 10.02  3.52
Si  3.71  1.27 10.82
Si -10.13  0.07  5.47
Si  1.75  9.45 -6.34
Si  4.88 -10.39  1.01
Si  6.21 -5.49 -8.01
Si -0.96  9.06 -7.07
Si  8.99  0.46 -7.22
Si -9.46 -4.02 -5.26
Si -6.28  5.46 -8.01
Si -0.57 11.51  1.01
Si -4.20 -5.87  9.05
Si  5.17  3.14  9.88
Si  0.28  0.45 -11.59
Si -8.24 -0.37  8.17
Si  6.06  9.54  2.72
Si 10.85  2.19  3.66
Si  1.64 -10.96 -3.64
Si -0.07  1.66 11.55
Si 10.58 -3.28  3.66
Si -8.99  1.73  7.24
Si 10.33  1.46 -5.26
Si  6.76  0.21  9.57
Si -2.10  7.40 -8.84
Si  2.08  8.01 -8.32
Si  7.33  8.06  4.39
Si  6.34  1.96 -9.72
Si  9.97  6.01  1.89
Si  6.74  5.46 -8.01
Si  7.17 -9.35 -1.16
Si -6.17 -9.81  2.42
Si -4.71  4.44 -9.92
Si  2.70 10.94 -3.64
Si -10.09  3.03  5.43
Si -6.81 -5.49 -8.01
Si  6.38 10.00 -0.86
Si  0.03 -10.28  6.00
Si -0.29 -8.83  7.97
Si  1.28 -8.42 -8.32
Si  1.27 -6.51 -9.92
Si  9.13 -5.41  5.47
Si -1.95 -10.85  4.59
Si  9.53 -6.99 -1.72
Si  8.06 -2.94 -8.32
Si -10.36 -2.44  5.43
Si -2.04 -0.83 11.74
Si -6.67  1.96 -9.72
Si -8.41  7.67  3.66
Si -2.78 11.48  1.89
Si  4.13  9.90 -5.30
Si 11.91  0.56  1.01
Si 11.21 -2.35 -3.49
Si -1.19 -11.90 -0.86
Si  2.53 -4.55 -10.80
Si -10.90  5.00 -0.06
Si  5.33 -1.42 -10.65
Si -11.83  1.60 -1.16
Si -0.89 11.05  4.59
Si  6.08 -3.52 -9.72
Si  9.22 -7.45  1.85
Si -3.06 -4.21 10.82
Si  7.47 -6.97 -6.34
Si  1.76  9.55  7.09
Si  8.32  2.53 -8.32
Si -11.47 -0.94  3.52
Si -6.64 10.00 -0.86
Si 10.07 -4.02 -5.26
Si -3.01 -9.22  7.24
Si  3.45 -4.21 10.82
Si -7.79  8.60 -3.49
Si -6.95  9.54  2.72
Si -8.58 -7.83 -3.49
Si -3.81 10.94 -3.64
Si  8.27  7.54 -4.74
Si -8.89 -8.29  0.09
Si -0.34 -3.82 11.55
Si -5.59 -1.86 10.67
Si  6.85 -9.81  2.42
Si  3.73 11.48  1.89
Si  3.50 -9.22  7.24
Si  0.10  7.43 -9.72
Si -0.26 11.98 -2.57
Si 10.29  6.47 -1.69
Si  1.86 -2.48 -11.89
Si -0.88 -11.43 -4.43
Si -2.47 11.95 -1.69
Si  7.95  8.99 -2.76
Si -9.99 -6.99 -1.72
Si -9.26 -3.75  7.24
Si -4.75  9.45 -6.34
Si  4.40  7.40 -8.84
Si -4.43  8.01 -8.32
Si -3.98 -4.55 -10.80
Si  8.73 -5.02 -7.22
Si  7.47 -6.88  7.09
Si 11.47  3.12 -3.49
Si  9.66  5.54  5.47
Si  2.36 -10.88  5.47
Si  1.40 12.09  2.42
