500
set: 461.00  0.00  0.00
Si  0.05  0.11  0.01
Si -0.15 -1.96  0.75
Si  0.12 -0.01 -2.22
Si -1.85  1.03  0.69
Si  1.76  1.21  0.88
Si  3.46  0.06  0.00
Si -1.68 -1.17 -2.84
Si  1.71 -3.06  0.18
Si -1.74  0.96  2.89
Si -1.78 -3.09 -0.18
Si -0.12 -2.04  2.95
Si -0.12  2.13 -2.95
Si  1.83  3.17 -0.18
Si  1.87 -1.12 -3.01
Si -1.91  3.20  0.18
Si  1.93  0.92  3.06
Si -3.76  0.06  0.00
Si  1.74 -3.12 -2.06
Si -3.52 -0.15 -2.22
Si  0.09  1.94  3.69
Si -3.59 -2.02  0.65
Si -1.87  3.14 -2.06
Si  1.87 -1.24  3.54
Si  1.87  2.93 -2.36
Si  3.64 -2.02  0.65
Si  0.03  4.24  0.65
Si  3.71 -0.15 -2.22
Si -1.87 -1.04  3.84
Si -1.75 -3.33 -2.36
Si  0.12  4.05  2.88
Si -3.50  1.96 -3.02
Si -3.50 -2.21  2.88
Si  3.73  1.96 -3.02
Si  3.73 -2.21  2.88
Si  0.12 -4.29 -3.02
Si -1.85 -0.88 -5.03
Si -1.85 -5.05  0.88
Si -3.49  2.08  3.68
Si  5.37  1.03  0.69
Si  1.76 -5.23  0.69
Si  0.12 -4.18  3.68
Si  3.46  4.30  0.75
Si  1.76 -1.06 -5.21
Si -0.15  2.21 -5.16
Si  3.73  2.08  3.68
Si -5.47  1.21  0.88
Si -3.76  4.30  0.75
Si  1.71  1.11 -5.72
Si  1.83 -1.00  5.72
Si  1.93  5.09 -2.84
Si  3.50 -4.12 -2.95
Si -5.29  0.92  3.06
Si -1.74  5.13 -3.01
Si -0.15 -6.20  0.00
Si  5.32  3.20  0.18
Si  3.50  4.22  2.95
Si -0.15 -2.03 -5.90
Si -5.36 -1.12 -3.01
Si  5.44 -3.09 -0.18
Si -5.40  3.17 -0.18
Si  5.48  0.96  2.89
Si -0.15  2.14  5.91
Si -3.73 -4.12 -2.95
Si -5.52 -3.06  0.18
Si -0.15  6.31  0.00
Si  1.87 -5.30  2.89
Si  5.55 -1.17 -2.84
Si -3.73  4.22  2.95
Si -1.68 -5.34  3.06
Si -1.75  5.02  3.54
Si -1.78  1.09 -6.08
Si -1.91 -0.97  6.08
Si  0.09  6.11 -2.22
Si  5.36  3.14 -2.06
Si -5.36 -1.24  3.54
Si -5.36  2.93 -2.36
Si  0.03  0.07  6.55
Si -5.48 -3.12 -2.06
Si  0.03 -4.11 -5.25
Si  5.36 -1.04  3.84
Si -3.52 -4.32  3.69
Si  1.74  5.22  3.84
Si -3.59  2.15 -5.25
Si  3.64  2.15 -5.25
Si  0.09 -6.41 -2.22
Si  3.71 -4.32  3.69
Si  5.48 -3.33 -2.36
Si -3.57 -6.14  0.01
Si  3.66 -6.14  0.01
Si -3.57 -1.97 -5.89
Si  0.05 -4.06  5.91
Si -7.18  0.11  0.01
Si  3.66 -1.97 -5.89
Si -3.57  2.20  5.91
Si  7.27  0.11  0.01
Si  0.05  4.29 -5.89
Si  3.66  2.20  5.91
Si -3.57  6.37  0.01
Si  3.66  6.37  0.01
Si  7.08 -1.96  0.75
Si  5.37 -0.88 -5.03
Si  3.46 -4.05 -5.16
Si  5.37 -5.05  0.88
Si -7.11 -0.01 -2.22
Si  3.46  0.13  6.65
Si -3.49  6.25 -2.22
Si  1.76  3.12  6.59
Si -3.50 -6.27 -2.22
Si  1.76  7.29  0.69
Si -1.85 -3.14  6.59
Si -3.76 -4.05 -5.16
Si  1.76  5.38 -5.03
Si -1.85  5.20 -5.21
Si -5.47 -5.23  0.69
Si  1.76 -2.96  6.78
Si  3.73  6.25 -2.22
Si -5.47 -1.06 -5.21
Si  3.73 -6.27 -2.22
Si -3.76  0.13  6.65
Si -7.38 -1.96  0.75
Si  7.35 -0.01 -2.22
Si -1.85  7.47  0.88
Si -1.85  3.30  6.78
Si -5.29  5.09 -2.84
Si -1.91 -5.15 -5.72
Si -5.40 -1.00  5.72
Si  7.11 -2.04  2.95
Si -1.78  5.26  5.72
Si -1.68  7.18  3.06
Si  7.11  2.13 -2.95
Si  3.46 -4.12  5.91
Si  1.87  7.22  2.89
Si -5.52  1.11 -5.72
Si  3.46  4.23 -5.90
Si -5.36 -5.30  2.89
Si  5.48  5.13 -3.01
Si -3.76 -4.12  5.91
Si  5.32 -0.97  6.08
Si -1.74 -7.38 -3.01
Si -3.76  4.23 -5.90
Si -7.34 -2.04  2.95
Si  1.93 -7.43 -2.84
Si  1.83 -5.17 -6.08
Si -7.34  2.13 -2.95
Si  1.74  1.05 -7.96
Si  5.44  1.09 -6.08
Si  5.48  5.02  3.54
Si  1.71  5.28  6.08
Si -7.13  1.94  3.69
Si  5.55 -5.34  3.06
Si  0.03 -8.28  0.65
Si -7.20  4.24  0.65
Si  0.09 -2.23 -8.12
Si  7.32  1.94  3.69
Si  7.25  4.24  0.65
Si  1.74 -7.29  3.84
Si -1.75 -7.50  3.54
Si -1.75  0.84 -8.26
Si -5.48  5.22  3.84
Si -7.11  4.05  2.88
Si  0.12  8.22 -3.02
Si  0.12 -0.12  8.78
Si -7.11 -4.29 -3.02
Si  7.35  4.05  2.88
Si  1.76 -7.14 -5.03
Si  0.12 -0.12 -8.92
Si  0.12 -8.47  2.88
Si  3.46 -8.22  0.75
Si -7.11 -4.18  3.68
Si  7.34 -4.29 -3.02
Si  7.08  2.21 -5.16
Si -0.15 -6.13  6.65
Si  5.37 -3.14  6.59
Si -3.76 -8.22  0.75
Si -3.50 -2.09 -8.12
Si  8.99  1.21  0.88
Si -5.47  3.12  6.59
Si  0.12  8.34  3.68
Si  5.37  5.20 -5.21
Si  0.12  4.17 -8.12
Si -5.47  7.29  0.69
Si -9.08  1.03  0.69
Si -1.85 -7.32 -5.21
Si -5.47  5.38 -5.03
Si  3.73 -2.09 -8.12
Si -5.47 -2.96  6.78
Si  7.35 -4.18  3.68
Si -0.15  6.39  6.65
Si  5.37  7.47  0.88
Si  5.37  3.30  6.78
Si -7.38  2.21 -5.16
Si  5.32 -5.15 -5.72
Si -1.68  3.00 -8.74
Si  7.08 -6.20  0.00
Si -1.78 -7.26  5.72
Si -8.91 -1.17 -2.84
Si  7.08 -2.03 -5.90
Si -5.36  7.22  2.89
Si  8.93 -3.06  0.18
Si  7.08  2.14  5.91
Si -8.97  0.96  2.89
Si  3.50 -8.30  2.95
Si  7.08  6.31  0.00
Si  5.44  5.26  5.72
Si  1.87  3.05  8.79
Si -1.91 -9.32  0.18
Si  3.50  0.05  8.85
Si  3.50  0.05 -8.85
Si -1.74 -3.21  8.79
Si  1.93 -3.25 -8.74
Si  1.83 -9.34 -0.18
Si -1.91  7.37 -5.72
Si -9.01 -3.09 -0.18
Si -5.29 -7.43 -2.84
Si  3.50  8.39 -2.95
Si -3.73 -8.30  2.95
Si  5.55  7.18  3.06
Si  9.06  3.17 -0.18
Si  1.87  3.05 -8.91
Si -1.78  9.43 -0.18
Si  1.71 -7.23  6.08
Si -1.68  3.00  8.96
Si -3.73  0.05  8.85
Si -3.73  0.05 -8.85
Si  1.71  9.46  0.18
Si -1.74 -3.21 -8.91
Si -5.40 -5.17 -6.08
Si -7.38 -6.20  0.00
Si -1.75  0.85  9.44
Si -1.75  9.19 -2.36
Si -3.73  8.39 -2.95
Si  9.10 -1.12 -3.01
Si -7.13  6.11 -2.22
Si -3.52  8.20  3.69
Si -7.38 -2.03 -5.90
Si  5.48 -7.38 -3.01
Si -9.13  3.20  0.18
Si -7.38  2.14  5.91
Si -1.87 -5.21 -7.96
Si -3.59 -6.19  6.55
Si  9.16  0.92  3.06
Si  1.83  7.35 -6.08
Si -7.38  6.31  0.00
Si  8.97 -3.12 -2.06
Si -3.52  4.02 -8.12
Si  3.64 -6.19  6.55
Si  3.71  8.20  3.69
Si -5.48  1.05 -7.96
Si  1.93 -3.25  8.96
Si -7.20  0.07  6.55
Si -5.52  5.28  6.08
Si  7.25  0.07  6.55
Si  1.74  9.39 -2.06
Si -1.87 -9.38 -2.06
Si -3.59  6.33  6.55
Si  3.71  4.02 -8.12
Si  7.32  6.11 -2.22
Si  3.64  6.33  6.55
Si -7.20 -4.11 -5.25
Si  9.09 -1.24  3.54
Si -9.10  3.14 -2.06
Si  9.09  2.93 -2.36
Si -7.13 -6.41 -2.22
Si  0.09 -2.23  9.59
Si  7.25 -4.11 -5.25
Si -8.97 -3.33 -2.36
Si -5.48 -7.29  3.84
Si  0.03  8.41 -5.25
Si -9.10 -1.04  3.84
Si  5.48 -7.50  3.54
Si  5.48  0.84 -8.26
Si  1.74  1.05  9.74
Si  7.32 -6.41 -2.22
Si  1.87 -9.59 -2.36
Si  1.87 -5.41 -8.26
Si  0.05 -8.23 -5.89
Si -7.18 -4.06  5.91
Si  7.27 -4.06  5.91
Si -7.18  4.29 -5.89
Si  7.27  4.29 -5.89
Si -5.47 -7.14 -5.03
Si  0.05  8.46  5.91
Si -3.49 -2.09  9.58
Si -9.08 -0.88 -5.03
Si  8.99 -5.23  0.69
Si -9.08 -5.05  0.88
Si  8.99 -1.06 -5.21
Si  0.12  4.17  9.58
Si  5.37 -7.32 -5.21
Si  3.73 -2.09  9.58
Si  3.46  8.47 -5.16
Si -0.15 10.56  0.75
Si -3.76  8.47 -5.16
Si  8.93  1.11 -5.72
Si 10.69  0.06  0.00
Si -5.29 -3.25 -8.74
Si  5.44 -7.26  5.72
Si  5.32 -9.32  0.18
Si -5.36  3.05  8.79
Si  5.32  7.37 -5.72
Si  3.46 -8.29 -5.90
Si  9.06 -1.00  5.72
Si -8.97  5.13 -3.01
Si  5.55  3.00 -8.74
Si -5.40 -9.34 -0.18
Si -0.12 -10.38 -2.95
Si -0.12 -6.21  8.85
Si -0.12 -6.21 -8.85
Si -8.91 -5.34  3.06
Si -5.36  3.05 -8.91
Si  3.47  8.40  5.91
Si -3.76 -8.29 -5.90
Si  5.48 -3.21  8.79
Si  9.16  5.09 -2.84
Si -0.12  6.31  8.85
Si -0.12  6.31 -8.85
Si -8.97  5.02  3.54
Si -0.12 10.48  2.95
Si  5.44  9.43 -0.18
Si -5.29 -3.25  8.96
Si  5.36 -5.21 -7.96
Si  9.10 -5.30  2.89
Si -9.01  1.09 -6.08
Si -3.76  8.40  5.91
Si  5.48 -3.21 -8.91
Si -5.52 -7.23  6.08
Si  5.48  0.85  9.44
Si -5.52  9.46  0.18
Si  5.48  9.19 -2.36
Si -5.40  7.35 -6.08
Si  5.55  3.00  8.96
Si -1.87  7.31 -7.96
Si -10.75 -0.15 -2.22
Si -3.52  4.02  9.59
Si -10.99  0.06  0.00
Si -7.20 -8.28  0.65
Si  5.36 -9.38 -2.06
Si -9.13 -0.97  6.08
Si -10.82 -2.02  0.65
Si  7.25 -8.28  0.65
Si -7.13 -2.23 -8.12
Si  3.71  4.02  9.59
Si  1.87 -5.41  9.44
Si  1.87  7.10 -8.26
Si  8.97  5.22  3.84
Si 10.87 -2.02  0.65
Si -5.48  9.39 -2.06
Si -3.59 10.50  0.65
Si  3.64 10.50  0.65
Si  0.03  0.07 -11.15
Si  7.32 -2.23 -8.12
Si 10.94 -0.15 -2.22
Si  0.09 -10.58  3.69
Si -1.87 -5.21  9.74
Si -5.48  1.05  9.74
Si -5.36 -9.59 -2.36
Si -5.36 -5.41 -8.26
Si -3.50 10.31  2.88
Si -3.50  6.14  8.78
Si -7.11  8.22 -3.02
Si -7.11 -0.12  8.78
Si -10.72  1.96 -3.02
Si -10.72 -2.21  2.88
Si  3.73 10.31  2.88
Si  3.73  6.14  8.78
Si -3.50  6.14 -8.92
Si -3.50 -6.38  8.78
Si -7.11 -0.12 -8.92
Si -7.11 -8.47  2.88
Si  7.35  8.22 -3.02
Si  7.35 -0.12  8.78
Si  3.73  6.14 -8.92
Si  1.76 -2.96 -10.93
Si  3.73 -6.38  8.78
Si  1.76 -11.31  0.88
Si  7.08 -6.13  6.65
Si -3.50 -6.38 -8.92
Si -3.50 -10.55 -3.02
Si -0.15 -10.30 -5.16
Si -10.72  2.08  3.68
Si 10.96  1.96 -3.02
Si 10.96 -2.21  2.88
Si 10.69  4.30  0.75
Si -7.11  8.34  3.68
Si  7.34 -0.12 -8.92
Si -1.85  3.29 -10.93
Si -7.11  4.17 -8.12
Si  7.34 -8.47  2.88
Si  8.99  3.12  6.59
Si  3.46  0.13 -11.05
Si  3.73 -6.38 -8.92
Si  8.99  7.29  0.69
Si -1.85 -9.22  6.78
Si  3.73 -10.55 -3.02
Si -3.50 -10.44  3.68
Si -1.85  9.37  6.59
Si  1.76 -9.40  6.59
Si  8.99  5.38 -5.03
Si  7.08  6.39  6.65
Si  8.99 -2.96  6.78
Si  0.12 -8.35 -8.12
Si -9.08 -3.14  6.59
Si -1.85 -11.49  0.69
Si -7.38 -6.13  6.65
Si  1.76  3.12 -11.11
Si -3.76  0.13 -11.05
Si  3.73 -10.44  3.68
Si -9.08  5.20 -5.21
Si -1.85 -3.14 -11.11
Si  7.35  8.34  3.68
Si  7.35  4.17 -8.12
Si 10.96  2.08  3.68
Si -9.08  7.47  0.88
Si -9.08  3.30  6.78
Si -7.38  6.39  6.65
Si -1.78  1.09 11.62
Si -1.91 -0.97 -11.62
Si -1.68 11.35 -2.84
Si -10.99  4.30  0.75
Si -8.91  7.18  3.06
Si  1.76  9.55  6.78
Si 10.72 -4.12 -2.95
Si 10.72  4.22  2.95
Si -9.01  5.26  5.72
Si  1.87 11.39 -3.01
Si -0.15 -10.38  5.91
Si -9.13 -5.15 -5.72
Si  1.87  7.10  9.44
Si  1.87 11.28  3.54
Si  9.10  7.22  2.89
Si -0.15 -2.03 11.81
Si -0.15  2.14 -11.80
Si -8.97 -7.38 -3.01
Si  8.93  5.28  6.08
Si -0.15 10.49 -5.90
Si  8.97  1.05 -7.96
Si -1.74 -11.56  2.89
Si  5.36  7.31 -7.96
Si  9.05 -5.17 -6.08
Si -10.96 -4.12 -2.95
Si -10.96  4.22  2.95
Si  9.16 -7.43 -2.84
Si -5.36 -5.41  9.44
Si -5.36  7.10 -8.26
Si  1.93 -11.60  3.06
Si  1.71  1.11 11.98
Si -10.75 -4.32  3.69
Si -7.13 -2.23  9.59
Si -3.59 -10.36 -5.25
Si  1.83 -1.00 -11.98
Si  3.64 -10.36 -5.25
Si  8.97 -7.29  3.84
Si -10.82  2.15 -5.25
Si -8.97 -7.50  3.54
Si -8.97  0.84 -8.26
Si -1.87 11.48  3.84
Si -7.20  8.41 -5.25
Si 10.87  2.15 -5.25
Si -3.52 -8.49 -8.12
Si  7.32 -2.23  9.59
Si  5.36 -5.21  9.74
Si  7.25  8.41 -5.25
Si  3.71 -8.49 -8.12
Si 10.94 -4.32  3.69
Si -1.87  7.31  9.74
Si  0.05 -12.40  0.01
Si -7.18 -8.23 -5.89
Si -3.57 -10.32  5.91
Si -10.79 -6.14  0.01
Si  3.66 -10.32  5.91
Si -10.79 -1.97 -5.89
Si  7.27 -8.23 -5.89
Si  0.05 -4.06 -11.79
Si -3.57 -1.97 11.81
Si -10.79  2.20  5.91
Si 10.89 -6.14  0.01
Si -3.57  2.20 -11.79
Si  3.66 -1.97 11.81
Si  8.99 -7.14 -5.03
Si -10.79  6.37  0.01
Si 10.89 -1.97 -5.89
Si 10.69 -4.05 -5.16
Si  3.66  2.20 -11.79
Si  0.05  4.29 11.81
Si -7.18  8.46  5.91
Si -5.47 -2.96 -10.93
Si 10.89  2.20  5.91
Si 10.69  0.13  6.65
Si -5.47 -11.31  0.88
Si -3.57 10.54 -5.89
Si -10.72  6.25 -2.22
Si  5.37  3.29 -10.93
Si 10.89  6.37  0.01
Si -10.72 -6.27 -2.22
Si  3.66 10.54 -5.89
Si  7.28  8.46  5.91
Si  0.05 12.63  0.01
Si -7.11  4.17  9.58
Si  5.37 -9.22  6.78
Si -0.15 -6.13 -11.05
