500
set: 1267.00  0.00  0.00
Si -0.12 -0.88  0.30
Si -0.35  0.44 -1.67
Si  1.42  0.09  1.84
Si  1.09 -2.75 -0.52
Si -1.84 -2.10  1.46
Si  1.93  0.88 -2.34
Si -1.85  2.28 -1.31
Si  1.91  2.36  1.41
Si -0.94 -1.20 -3.31
Si -2.23  2.79  1.09
Si  2.75  2.60 -0.83
Si  3.53 -0.94  1.48
Si  0.34 -0.22  3.94
Si -0.08  3.63  1.64
Si  3.37 -2.20 -0.51
Si  0.44 -3.08 -2.76
Si -0.53 -2.38  3.46
Si  3.30 -1.07 -2.57
Si -2.93  1.35  2.88
Si -3.67 -0.79  2.20
Si -0.60  3.97 -2.57
Si  1.34 -4.46  1.03
Si -3.90  1.58 -2.32
Si -1.17  1.51  4.41
Si -3.18 -2.00 -3.04
Si  1.40  4.54 -1.46
Si -2.61 -4.23  0.57
Si  1.52 -3.62  3.18
Si -0.25  3.66  3.95
Si  2.28  1.82 -4.54
Si  3.51 -2.35  3.37
Si  5.03  1.87 -0.63
Si  2.48 -2.88 -3.87
Si  5.32  0.58  1.40
Si -5.53 -0.34  0.82
Si  3.32  3.27  3.17
Si  0.52  5.60  0.47
Si -0.68 -5.58  0.68
Si -3.98 -0.02 -4.03
Si -1.02 -0.44 -5.58
Si  0.40  3.30 -4.69
Si -5.84  1.08 -1.07
Si -3.80  4.56  1.64
Si  1.48 -0.19  6.00
Si -0.68 -4.87 -3.75
Si  4.59 -4.23 -0.34
Si -3.74 -4.81 -1.41
Si -5.21 -3.04 -1.89
Si  5.37 -0.31 -3.38
Si -1.00  1.94 -5.98
Si -2.93 -4.40 -3.58
Si -1.84 -3.56  5.02
Si  1.84  3.71  5.01
Si  5.24  1.85  3.42
Si -4.91 -1.52  4.14
Si -4.31  3.45 -3.64
Si  3.48 -1.33  5.51
Si  5.64  1.95 -2.98
Si -4.70  2.21  4.30
Si  3.33 -5.82  0.91
Si -6.36 -2.39  0.06
Si -1.80  6.05 -2.54
Si  4.44  5.10 -0.99
Si -4.18 -5.03  2.22
Si  1.61 -3.08 -6.07
Si -2.95  3.20 -5.54
Si  2.31  0.64 -6.65
Si  0.73 -1.11 -6.95
Si -2.00  1.57  6.61
Si -5.08  4.94 -0.26
Si -3.43 -2.08  5.85
Si  4.30  3.23 -4.70
Si -1.13  7.04 -0.49
Si  2.41  6.08 -2.95
Si -4.08  5.41 -2.37
Si  1.61  2.11  6.74
Si  3.86 -4.84 -3.79
Si  5.57 -3.48  3.12
Si -1.41  5.67  4.37
Si -0.04 -7.26 -0.85
Si -2.60 -5.54  4.00
Si  6.22  3.85 -0.23
Si  5.12  0.32  5.25
Si  1.76 -5.83  4.10
Si -3.89  1.10 -6.14
Si -6.66  3.17 -0.31
Si -1.30 -6.90  2.48
Si  0.09 -1.60  7.31
Si  4.50  5.30  2.79
Si -7.11  0.52  2.35
Si -5.63  3.96  3.02
Si -2.96 -0.97 -6.85
Si  6.48 -3.74  0.93
Si -2.11 -0.67  7.22
Si  7.36 -0.57  1.72
Si -2.93  6.44  2.77
Si -6.22 -0.60 -4.35
Si  1.87  7.24  1.51
Si  0.09 -6.96 -3.17
Si -6.29 -3.96  1.82
Si -0.08 -4.76 -6.02
Si -6.18  0.39  4.55
Si  4.52  5.24 -3.44
Si  4.04  6.55  0.90
Si  7.32 -1.19 -2.32
Si  2.23 -7.61 -0.17
Si -7.49  0.49 -2.71
Si -0.61 -3.88  6.96
Si  5.46 -5.44 -2.13
Si  7.75 -1.98 -0.11
Si -3.89  2.99  6.35
Si  2.43 -6.75 -3.63
Si -6.40 -2.88 -3.95
Si  1.24  4.89 -6.32
Si  5.72 -0.80 -5.68
Si -7.37  2.80  1.95
Si  1.21  6.67 -4.83
Si  6.63  4.77  1.86
Si  0.80 -7.77  3.11
Si  0.75 -5.61  6.22
Si -6.82 -3.05  3.90
Si -0.38  2.54  8.03
Si -2.61  7.97  1.06
Si -2.91  5.12  6.09
Si -5.31 -6.52 -1.19
Si  7.46 -2.10  3.53
Si  4.24 -0.53 -7.46
Si  1.78  5.85  6.04
Si -6.42  3.30 -4.67
Si -3.87 -3.19 -7.01
Si  7.25  3.17  3.46
Si -0.92  7.53 -4.21
Si -0.74  2.48 -8.33
Si  3.45  4.23 -6.81
Si  0.24  7.27  4.92
Si -4.29 -5.96 -4.82
Si  5.86 -6.35  1.64
Si -2.57 -8.44  1.06
Si -8.69 -1.98 -0.11
Si  4.79 -4.63 -5.95
Si  5.68 -5.72  3.91
Si  3.24  8.11 -2.12
Si  4.42 -2.34  7.46
Si -2.05 -4.70 -7.38
Si  7.00 -1.12  5.55
Si  6.56  2.81 -5.50
Si -5.58 -4.21 -5.71
Si -2.96  5.26 -6.73
Si  3.10  2.31 -8.18
Si -7.30 -5.33 -0.81
Si  2.19  8.80 -0.17
Si  7.74 -3.04 -3.73
Si  8.01  2.60 -3.48
Si  3.14 -4.04 -7.56
Si -5.95  2.06 -6.66
Si  3.83 -7.09  4.38
Si  3.28 -8.31 -2.12
Si  5.33  1.21  7.38
Si  3.46  2.37  8.17
Si -1.31  4.70  7.79
Si  6.50 -2.98 -5.78
Si -5.19 -7.15  2.56
Si -0.08  9.16 -0.85
Si -0.28 -1.66 -9.04
Si  8.08  4.09 -1.65
Si  0.76  8.64  3.11
Si -9.08 -0.57  1.72
Si -4.86 -2.98  7.42
Si  8.96  0.49 -2.71
Si -6.66  6.65  0.05
Si -1.09 -9.37 -0.49
Si -8.36  4.09 -1.65
Si -5.74  6.70 -3.40
Si  4.66  6.93  4.48
Si -2.47 -0.73 -9.13
Si -8.43  2.60 -3.48
Si -9.13 -1.19 -2.32
Si  1.91 -9.17  1.51
Si -4.91 -8.15  0.44
Si  1.09 -1.05  9.40
Si -7.04  0.02 -6.44
Si -2.90 -7.18  5.67
Si  7.71 -5.12 -2.70
Si  9.34  0.52  2.35
Si -4.95  8.27  0.44
Si  5.51 -7.77 -1.58
Si  9.08  2.80  1.95
Si  0.90 -6.81 -6.85
Si -6.63  5.61  4.37
Si  7.22  0.81 -6.50
Si -4.15  7.87  4.16
Si -5.63 -7.34 -3.41
Si -0.88 -8.89 -4.21
Si -0.64 -7.53  6.37
Si -8.99 -2.10  3.53
Si -1.68  4.64 -8.57
Si -2.60 -0.92  9.50
Si -7.54 -0.07  6.42
Si  1.25  2.05 -9.61
Si -1.34  9.51  2.48
Si  8.18 -5.44  1.35
Si  5.92  7.96  0.64
Si -8.71 -3.04 -3.73
Si -4.96  6.42  5.80
Si  0.05  9.46 -3.17
Si -8.26 -5.44  1.35
Si  6.59 -3.04  6.87
Si  0.65  5.88  8.09
Si  4.60 -0.47  8.90
Si  2.47 -5.82  7.78
Si -2.19  7.55 -6.24
Si  2.51 -7.95 -5.60
Si -6.48  5.54 -5.29
Si  4.06 -2.40 -8.89
Si  2.67  0.69  9.70
Si  5.98  6.71 -4.60
Si -3.25 -6.75 -6.79
Si  0.29  5.82 -8.26
Si -2.35  1.51 -9.74
Si -7.65  6.32 -2.06
Si -7.18 -5.11  5.12
Si  3.83  6.73  6.67
Si -0.97 -3.94 -9.39
Si -1.69 -4.64  8.97
Si  3.50 -3.98  8.79
Si  9.79  3.17 -0.31
Si  4.97  1.15 -8.97
Si -9.20  3.17  3.46
Si  5.47  8.64 -1.58
Si -4.11 -8.55  4.16
Si 10.08 -2.39  0.06
Si  5.96 -8.46  0.64
Si -5.59  3.66  7.92
Si  0.28 -9.15  4.92
Si  1.12 -0.25 -10.35
Si  7.83  6.75  1.45
Si  6.99 -5.15  5.81
Si  2.47  8.47 -5.60
Si -3.51 -3.13  9.34
Si -7.36 -6.66  3.30
Si -8.73 -5.12 -2.70
Si -5.79 -5.15  7.08
Si -5.21  5.56 -7.26
Si  7.87  4.58  5.28
Si -6.61 -1.48  8.12
Si -0.64  1.99 10.38
Si  2.39  9.66 -3.63
Si  2.11 -5.88 -8.57
Si  9.15 -5.33 -0.81
Si -9.96 -3.74  0.93
Si  3.95 -7.30  6.73
Si 10.60  1.08 -1.07
Si  4.08 -9.86  0.90
Si -2.89 -9.98  2.77
Si -5.22 -3.04 -8.93
Si -0.66 -0.38 10.77
Si -1.76 -10.37 -2.54
Si  9.62 -3.05  3.90
Si  0.56 -10.81  0.47
Si -3.53  1.16 10.21
Si  6.74  4.44 -7.27
Si  7.62  1.52  7.60
Si -0.72 10.83  0.68
Si -6.97 -1.53 -8.23
Si  1.97 -3.02 10.28
Si -10.22  3.85 -0.23
Si -5.95  3.61 -8.43
Si -5.23  9.27  2.56
Si  1.25 -9.74 -4.83
Si 10.91 -0.34  0.82
Si  6.91  6.75  5.17
Si -0.68  8.89  6.37
Si  4.83  5.97 -7.82
Si  8.90 -0.07  6.42
Si  3.79  9.32  4.38
Si -9.44 -1.12  5.55
Si  4.65  7.81 -6.23
Si  7.19  7.81 -2.95
Si  8.79  6.32 -2.06
Si  2.45 -10.34 -2.95
Si -8.61  6.75  1.45
Si -2.15 -8.86 -6.24
Si 10.15 -3.96  1.82
Si  5.83 -6.59 -6.68
Si -8.58  4.58  5.28
Si -9.81  4.77  1.86
Si -4.24 -6.87  7.60
Si 10.22 -0.60 -4.35
Si  3.81  4.29  9.54
Si  3.29 10.59  0.91
Si 10.04 -2.88 -3.95
Si -0.54  7.99 -7.83
Si -7.89 -6.92 -3.97
Si -2.94  9.23  5.67
Si -5.67  9.07 -3.41
Si -11.13  0.58  1.40
Si 10.27  0.39  4.55
Si -4.25  2.94 -10.00
Si -2.60  5.32  9.63
Si  1.60  4.95 10.04
Si -5.35  9.89 -1.19
Si -9.23  0.81 -6.50
Si  0.28 -4.70 10.33
Si -3.79 -2.14 -10.50
Si  3.12 -1.39 -10.84
Si -10.81  1.95 -2.98
Si -7.27 -4.97 -7.21
Si -5.58  2.12  9.70
Si  9.40  0.02 -6.44
Si  7.79 -3.12 -7.71
Si -7.95  3.67  7.36
Si  7.26  1.46 -8.75
Si  1.72 10.58  4.10
Si -7.97  7.46  3.57
Si  4.70 -9.48  4.48
Si -0.49 -8.43 -7.83
Si 10.02  3.30 -4.67
Si -11.07 -0.31 -3.38
Si -11.41  1.87 -0.63
Si -2.59  3.25 10.81
Si  7.82  6.09 -6.04
Si  0.39 -5.67 -10.13
Si  4.69 -8.61 -6.23
Si  7.23 -8.60 -2.95
Si -9.89  2.81 -5.50
Si  5.19  6.03  8.53
Si -1.37 -10.75  4.37
Si  8.55 -6.92 -3.97
Si  6.14 -6.74  7.33
Si -0.17  8.04  8.52
Si  1.26 -6.75  9.50
Si  5.82 10.06  1.64
Si  9.09 -6.66  3.30
Si -4.84  5.62  9.10
Si -8.82  1.52  7.60
Si  9.27 -5.11  5.12
Si -5.70 -9.71 -3.40
Si  6.23 -3.10 -9.49
Si 11.23 -3.04 -1.89
Si -6.62 -9.76  0.05
Si  8.49  3.67  7.36
Si  0.86  9.60 -6.85
Si  9.79  6.65  0.05
Si -10.88 -3.48  3.12
Si  8.47  7.46  3.57
Si -11.21  1.85  3.42
Si -9.94 -2.98 -5.78
Si -2.64 10.87  4.00
Si -3.27  5.06 -10.26
Si 10.81  3.96  3.02
Si  1.42  5.79 -10.32
Si -0.13 -8.37  8.52
Si -4.04 -11.00 -2.37
Si -6.68  0.07  9.92
Si  3.91  9.11  6.73
Si -8.65 -3.12 -7.71
Si  1.48  3.65 -11.35
Si -2.89 -6.69  9.56
Si  1.44 -11.87 -1.46
Si  1.30 11.95  1.03
Si -4.60 -6.92 -8.75
Si  4.76  0.26 -11.11
Si -2.20 -3.62 -11.34
Si  9.81  5.61  4.37
Si -1.53  1.46 -11.95
Si  0.76  3.36 11.66
Si -0.72 11.55 -3.75
Si -5.47  7.51  7.84
Si -10.72 -0.80 -5.68
Si -8.63  6.09 -6.04
Si  4.48 -11.32 -0.99
Si -9.45 -5.15  5.81
Si  2.64  1.88 11.81
Si -3.29  9.66 -6.79
Si  3.47  6.67 -9.68
Si  8.15 -3.06  8.65
Si -6.15 -5.21 -9.27
Si -3.78 11.61 -1.41
Si -4.33 10.46 -4.82
Si  1.82 -10.56  6.04
Si  6.08 -0.74 10.67
Si  6.02 -9.71 -4.60
Si  8.11 -6.82 -6.28
Si  4.54 -11.12  2.79
Si 11.53 -1.52  4.14
Si -4.22 11.39  2.22
Si -8.29 -3.06  8.65
Si  7.10  4.50  9.08
Si  3.87 -9.68  6.67
Si -9.85 -3.04  6.87
Si 11.37  4.94 -0.26
Si -0.02 -0.28 -12.41
Si  5.42 10.97 -2.13
Si -10.98 -5.44 -2.13
Si -10.59 -6.35  1.64
Si  7.58  0.86  9.85
Si -9.25  7.81 -2.95
Si -8.33 -6.82 -6.28
Si -6.91 -4.92  9.14
Si  5.15 -4.58 10.40
Si -2.65 12.18  0.57
Si -7.93 -8.95  3.57
Si -11.32  0.32  5.25
Si  0.71 10.81  6.22
Si -5.04 -11.48 -0.26
Si -3.76 -11.85  1.64
Si  7.87 -9.67  1.45
Si  4.56 -11.18 -3.44
Si -5.22 -4.15 10.64
Si -4.92 -10.00  5.80
Si  9.96  5.54 -5.29
Si -1.00 -7.58 -9.98
Si  6.94  7.50  7.34
Si -11.86 -4.23 -0.34
Si 10.50  2.06 -6.66
Si  3.59 -7.36 -9.62
Si  9.47 -1.53 -8.23
Si  8.13  3.61 -8.99
Si -7.40  9.75  3.30
Si  5.78 -6.79 -9.02
Si  9.18 -4.97 -7.21
Si 11.74  2.21  4.30
Si -7.91 -0.13 -9.94
Si  5.64 10.69  3.91
Si -0.56 -12.45 -2.57
Si -5.83  7.46 -8.51
Si  6.64 -1.18 -10.80
Si  3.82 11.57 -3.79
Si -8.31  3.61 -8.99
Si -9.18  1.46 -8.75
Si -9.54  6.75  5.17
Si -1.83  7.61 10.12
Si -10.76 -5.72  3.91
Si -7.61 -10.09 -2.06
Si  9.84 -1.48  8.12
Si -3.62  0.03 12.32
Si 12.54  1.58 -2.32
Si  8.51 -8.95  3.57
Si -2.97 12.02 -3.58
Si -0.04 -12.78  1.64
Si -9.70  4.44 -7.27
Si -4.28  9.55  7.60
Si -0.61  3.60 -12.41
Si  6.86 -2.92 10.58
Si -9.21 -8.60 -2.95
Si 11.13 -6.52 -1.19
Si  4.66  3.28 11.65
Si  6.95 -9.66  5.17
Si 10.86 -4.21 -5.71
Si 12.78 -0.79  2.20
Si -7.93  9.49 -3.97
Si -8.57 -9.67  1.45
Si  4.55 12.19 -0.34
Si -12.91 -0.94  1.48
Si -5.43 -8.90  7.84
Si 10.70  6.70 -3.40
Si -12.00  5.10 -0.99
Si 12.46 -0.02 -4.03
Si  8.54 -0.13 -9.94
Si -0.57 -1.14 13.05
Si  2.84 -2.83 12.49
Si -0.12 11.66 -6.02
Si 12.14  3.45 -3.64
Si -0.89 -2.44 -12.89
Si -2.87 -11.29  6.09
Si  6.92  2.87 10.85
Si  1.28 -11.53 -6.32
Si -10.53  7.96  0.64
Si  6.19 -6.53  9.67
Si  5.79  9.82 -6.68
Si -5.06  2.15 -12.05
Si -10.46  6.71 -4.60
Si -13.07 -2.20 -0.51
Si  1.48 12.80  3.18
Si -8.87  0.86  9.85
Si  0.69 -10.54  8.09
Si -3.25 -7.24 -10.68
Si -7.34 11.09 -0.81
Si -1.77  5.61 -11.98
Si -2.91 -11.16 -6.73
Si  8.51  9.49 -3.97
Si -0.21 -12.76  3.95
Si -11.94  5.30  2.79
Si  2.43 10.59  7.78
Si -5.86 -0.54 12.00
Si -1.04  8.83 -9.98
Si -6.59 -10.81  4.37
Si -11.11  1.21  7.38
Si -5.27 -1.57 -12.21
Si  6.58  7.45 -9.01
Si -12.15  3.23 -4.70
Si -5.32  6.36 -10.55
Si -13.14 -1.07 -2.57
Si  1.57  6.73 11.52
Si 12.26 -5.03  2.22
Si  0.33 -10.59 -8.26
Si -11.92  5.24 -3.44
Si -8.01  7.70 -7.64
Si -10.49 -8.46  0.64
Si  6.98 -8.91  7.34
