500
set: 1615.00  0.00  0.00
Si  0.59  1.57 -0.48
Si -1.68 -0.72  0.95
Si -0.99 -0.22 -1.83
Si -0.10  1.07  2.29
Si  1.91  1.03  1.35
Si -0.26 -2.81  0.89
Si  0.43 -2.30 -1.89
Si  2.60  1.53 -1.42
Si -2.71  1.53 -1.42
Si  2.01 -2.77  0.01
Si -0.17  3.34  1.73
Si -3.40  1.03  1.35
Si  3.62 -0.72  0.95
Si  0.53  3.85 -1.04
Si  1.28  2.08 -3.25
Si -1.74  3.72 -0.19
Si -3.29 -2.77  0.01
Si  1.22  0.52  4.13
Si -1.35 -3.86 -1.48
Si -2.60 -2.26 -2.76
Si  2.70 -2.26 -2.76
Si  1.32 -3.27  2.78
Si -2.37 -1.23  3.72
Si -0.30  0.28 -4.60
Si  4.31 -0.22 -1.83
Si -2.43  3.21  2.58
Si  2.93 -1.23  3.72
Si -4.71  1.57 -0.48
Si -2.04 -4.37  1.29
Si  2.87  3.21  2.58
Si -0.95 -3.31  3.66
Si -2.02  2.04 -4.20
Si  1.12 -1.80 -4.66
Si  3.56  3.72 -0.19
Si -0.79  0.56  5.07
Si -1.05  4.22 -2.97
Si -0.86  2.83  4.50
Si  1.80  4.99  1.29
Si -0.66 -3.36 -4.25
Si -4.02  2.08 -3.25
Si  3.26 -4.37  1.29
Si -0.28 -5.64 -0.19
Si  3.29  2.04 -4.20
Si -4.87 -2.30 -1.89
Si  3.95 -3.86 -1.48
Si  5.20  1.07  2.29
Si -4.09  0.52  4.13
Si  5.04 -2.81  0.89
Si -3.98 -3.27  2.78
Si  1.22  4.35 -3.82
Si  0.41 -5.13 -2.97
Si  1.98 -5.51 -1.04
Si -5.40  1.07  2.29
Si -1.91 -1.76 -5.54
Si  5.89  1.57 -0.48
Si  1.11  4.48  4.07
Si  2.49  5.49 -1.48
Si -4.78  3.85 -1.04
Si -3.50  4.99  1.29
Si -5.56 -2.81  0.89
Si -2.81  5.49 -1.48
Si  5.14  3.34  1.73
Si  2.18  2.71  5.36
Si  1.29 -6.02  1.73
Si  5.73 -2.30 -1.89
Si -4.18 -1.80 -4.66
Si -3.32 -5.51 -1.04
Si -6.29 -0.22 -1.83
Si  4.35 -3.31  3.66
Si  0.55  6.59  0.01
Si -5.47  3.34  1.73
Si  4.25  4.22 -2.97
Si -0.14  6.08  2.78
Si  3.39 -1.76 -5.54
Si -0.97 -6.14  2.58
Si  0.63 -3.78  5.56
Si -3.12  2.71  5.36
Si  5.00  0.28 -4.60
Si  4.51  0.56  5.07
Si -2.63 -5.01 -3.82
Si -1.72  6.55  0.89
Si  2.67 -5.01 -3.82
Si  1.97  2.58 -6.03
Si  2.57 -4.88  4.07
Si -2.73 -4.88  4.07
Si  0.52  0.02  6.90
Si  4.45  2.83  4.50
Si  5.83  3.85 -1.04
Si -6.98 -0.72  0.95
Si -4.09  4.35 -3.82
Si  2.24 -1.74  6.50
Si  4.64 -3.36 -4.25
Si -5.60  0.28 -4.60
Si -3.33  2.58 -6.03
Si -4.19  4.48  4.07
Si -1.03  7.06 -1.89
Si -3.06 -1.74  6.50
Si  7.21  1.03  1.35
Si  0.39  0.79 -7.37
Si -4.01 -6.02  1.73
Si -0.36  4.73 -5.74
Si  1.10 -4.63 -5.74
Si -2.41  6.04  3.66
Si  3.58  6.55  0.89
Si -1.32  2.54 -6.97
Si  5.02 -5.64 -0.19
Si  0.03 -2.85 -7.03
Si  6.58  2.08 -3.25
Si  2.89  6.04  3.66
Si -2.12  6.00 -4.25
Si -1.64 -3.82  6.43
Si -4.89 -5.13 -2.97
Si  1.24  7.09 -2.76
Si  6.52  0.52  4.13
Si  1.81 -1.29 -7.43
Si -1.55  2.33  7.28
Si  7.31 -2.77  0.01
Si -6.65 -3.86 -1.48
Si  6.62 -3.27  2.78
Si -0.83  5.58  5.56
Si  0.42  3.98  6.84
Si -5.58 -5.64 -0.19
Si -6.09  0.56  5.07
Si  4.33 -6.14  2.58
Si  0.60 -6.52  4.50
Si -6.25 -3.31  3.66
Si -7.04  3.72 -0.19
Si -1.48  0.06  7.84
Si  3.18  6.00 -4.25
Si -1.25 -7.82 -1.42
Si -5.96 -3.36 -4.25
Si  2.05 -7.79 -0.48
Si -4.75  6.59  0.01
Si -6.16  2.83  4.50
Si  6.42 -1.80 -4.66
Si  7.90  1.53 -1.42
Si -4.67 -3.78  5.56
Si -6.35  4.22 -2.97
Si -1.94 -4.50 -6.59
Si  5.71 -5.13 -2.97
Si -8.01  1.53 -1.42
Si -3.49 -1.29 -7.43
Si  3.66 -3.82  6.43
Si -2.56 -7.28 -3.25
Si -4.78  0.02  6.90
Si  1.91  4.86 -6.59
Si  3.98  2.54 -6.97
Si  2.74 -7.28 -3.25
Si -3.25 -7.79 -0.48
Si  5.16  6.08  2.78
Si -0.56 -7.32 -4.20
Si  4.27  7.06 -1.89
Si -4.20 -4.63 -5.74
Si -1.22 -1.25 -8.31
Si  3.75  2.33  7.28
Si  1.49  2.20  8.13
Si -7.67 -1.23  3.72
Si -5.44  6.08  2.78
Si -4.06  7.09 -2.76
Si -7.34 -4.37  1.29
Si -1.94 -8.33  1.35
Si  3.37 -4.50 -6.59
Si -7.90 -2.26 -2.76
Si -7.32  2.04 -4.20
Si -1.66 -6.65  5.36
Si  1.36 -8.29  2.29
Si  6.52  4.35 -3.82
Si  3.82  0.06  7.84
Si  8.00 -2.26 -2.76
Si -7.73  3.21  2.58
Si  2.20  5.54  6.43
Si  7.10  4.99  1.29
Si  5.85  6.59  0.01
Si  6.41  4.48  4.07
Si -8.70  1.03  1.35
Si -3.40  4.86 -6.59
Si -0.34  7.56 -4.66
Si -4.91  0.79 -7.37
Si  1.88 -5.38  6.84
Si  4.05 -7.82 -1.42
Si  4.94  4.73 -5.74
Si  2.16  8.63  0.95
Si  5.93 -3.78  5.56
Si  8.92 -0.72  0.95
Si -8.59 -2.77  0.01
Si  5.83  0.02  6.90
Si -3.10  5.54  6.43
Si  4.47  5.58  5.56
Si  1.47  8.13  3.72
Si  3.37 -8.33  1.35
Si  6.60 -6.02  1.73
Si  8.23 -1.23  3.72
Si  8.17  3.21  2.58
Si -6.28 -6.14  2.58
Si  7.29 -5.51 -1.04
Si -4.70 -6.52  4.50
Si -3.14  8.63  0.95
Si -5.27 -2.85 -7.03
Si -3.81  2.20  8.13
Si -1.87 -6.78 -6.03
Si -7.21 -1.76 -5.54
Si  5.33 -2.85 -7.03
Si  3.64 -6.65  5.36
Si -4.88  3.98  6.84
Si  4.08 -1.25 -8.31
Si -5.66  4.73 -5.74
Si  5.69  0.79 -7.37
Si -3.42 -5.38  6.84
Si -0.06 -4.28  8.33
Si -3.94 -8.29  2.29
Si  7.48  2.71  5.36
Si  1.93  7.60 -5.54
Si  8.86  3.72 -0.19
Si  1.79 -4.12 -8.51
Si -2.45  9.14 -1.83
Si -7.02  6.55  0.89
Si  7.79  5.49 -1.48
Si  1.55 -2.24  9.27
Si -6.33  7.06 -1.89
Si  4.75 -7.32 -4.20
Si -1.43  6.50 -7.03
Si -0.17 -0.49  9.67
Si -2.64  3.09 -8.80
Si  3.43 -6.78 -6.03
Si  8.56 -4.37  1.29
Si  2.66  3.09 -8.80
Si -3.83  8.13  3.72
Si  2.85  9.14 -1.83
Si  0.14 -6.81 -6.97
Si  0.47 -9.58 -1.83
Si  6.40 -4.63 -5.74
Si  5.72  3.98  6.84
Si  8.59  2.04 -4.20
Si  9.61 -0.22 -1.83
Si  7.27  2.58 -6.03
Si -1.52  5.07  8.33
Si  5.91 -6.52  4.50
Si -8.11  5.49 -1.48
Si -6.63  2.54 -6.97
Si -6.13  5.58  5.56
Si -3.37  7.60 -5.54
Si  0.33  5.24 -8.51
Si  6.54  7.09 -2.76
Si  0.78  7.62  6.50
Si -9.32  2.08 -3.25
Si -3.51 -4.12 -8.51
Si -2.63 -8.84  4.13
Si  7.54 -1.74  6.50
Si  0.72 -2.35 -9.80
Si  2.67 -8.84  4.13
Si  7.87 -4.88  4.07
Si -0.09 -7.03  7.28
Si -7.93 -5.01 -3.82
Si -0.22 -10.08  0.95
Si  9.25 -3.86 -1.48
Si -10.01  1.57 -0.48
Si  7.98 -5.01 -3.82
Si  0.67 -8.80  5.07
Si  4.96  7.56 -4.66
Si -8.80  4.99  1.29
Si -6.94 -3.82  6.43
Si -0.27  3.47  9.61
Si -0.63  3.05 -9.74
Si -9.28 -3.27  2.78
Si  1.16 -9.07 -4.60
Si -8.03 -4.88  4.07
Si -3.75 -2.24  9.27
Si -1.25 -4.00 -9.37
Si -6.85  2.33  7.28
Si -9.39  0.52  4.13
Si -5.86 -7.32 -4.20
Si -8.62 -5.51 -1.04
Si  1.08  1.30 -10.15
Si -6.55 -7.82 -1.42
Si  3.87  6.50 -7.03
Si -8.43  2.71  5.36
Si -6.78  0.06  7.84
Si  7.12 -1.29 -7.43
Si -2.33 -4.32  9.21
Si -7.42  6.00 -4.25
Si  8.69 -1.76 -5.54
Si -2.24  1.82 10.05
Si -7.71  6.04  3.66
Si  3.78  5.07  8.33
Si  0.45 10.38  1.35
Si -5.64  7.56 -4.66
Si  2.50 -0.79 -10.21
Si  2.97 -4.32  9.21
Si -10.17 -2.30 -1.89
Si  1.51  5.04  9.21
Si -2.80 -0.79 -10.21
Si -6.52 -1.25 -8.31
Si  3.06  1.82 10.05
Si -0.24  9.88  4.13
Si -9.48 -1.80 -4.66
Si  7.35 -7.79 -0.48
Si -8.36 -1.74  6.50
Si  5.24 -4.28  8.33
Si 10.35 -2.81  0.89
Si -7.24 -4.50 -6.59
Si -1.56 10.42  2.29
Si -5.36 -4.28  8.33
Si 10.50  1.07  2.29
Si  6.79  2.20  8.13
Si  8.20  6.04  3.66
Si -1.76  9.64 -4.60
Si -10.08  3.85 -1.04
Si -8.63  2.58 -6.03
Si  9.65 -3.31  3.66
Si -2.17 -0.45 10.62
Si  9.55  4.22 -2.97
Si -1.18 -6.27 -8.80
Si  6.66 -8.29  2.29
Si -4.83 -9.58 -1.83
Si  7.21  4.86 -6.59
Si  4.06 -4.00 -9.37
Si  5.13 -0.49  9.67
Si -0.87 10.93 -0.48
Si  0.35  8.07 -7.43
Si -4.14 -9.07 -4.60
Si -4.52  7.62  6.50
Si -10.70  1.07  2.29
Si -6.96 -6.65  5.36
Si -9.39  4.35 -3.82
Si -5.17 -6.81 -6.97
Si  1.14 10.89 -1.42
Si  9.81  0.56  5.07
Si  0.80  1.70 10.90
Si -4.22  1.30 -10.15
Si -4.58 -2.35 -9.80
Si  8.89  6.55  0.89
Si  3.13 -0.45 10.62
Si -2.35 -7.15  8.13
Si 10.44  3.34  1.73
Si  2.60  5.36 -9.37
Si  9.75  2.83  4.50
Si -7.24 -8.33  1.35
Si -0.53 -0.75 -11.08
Si -5.47 -0.49  9.67
Si -2.71  5.36 -9.37
Si -3.79  5.04  9.21
Si -4.63 -8.80  5.07
Si  5.44 -6.81 -6.97
Si -4.97  5.24 -8.51
Si -7.86 -7.28 -3.25
Si  6.77  8.13  3.72
Si -9.31 -6.02  1.73
Si  2.95 -7.15  8.13
Si  4.67  3.05 -9.74
Si  8.48  6.00 -4.25
Si -10.86 -2.81  0.89
Si  3.54  9.64 -4.60
Si -9.49  4.48  4.07
Si -0.91 -10.59  3.72
Si  7.18 -5.38  6.84
Si 10.30  0.28 -4.60
Si  3.74 10.42  2.29
Si 11.19  1.57 -0.48
Si  9.94 -3.36 -4.25
Si  8.04 -7.28 -3.25
Si  5.77 -9.58 -1.83
Si  5.08 -10.08  0.95
Si  7.50  5.54  6.43
Si  1.19 -5.88  9.61
Si -2.25  9.92  5.07
Si  5.21 -7.03  7.28
Si  5.03  3.47  9.61
Si -10.77  3.34  1.73
Si 11.04 -2.30 -1.89
Si  7.46  8.63  0.95
Si  1.85 -8.57 -7.37
Si -5.39 -7.03  7.28
Si  5.63  5.24 -8.51
Si -5.52 -10.08  0.95
Si -4.86 10.38  1.35
Si  3.05  9.92  5.07
Si -7.17 -6.78 -6.03
Si  4.12 -6.27 -8.80
Si -8.55 -7.79 -0.48
Si -8.79 -1.29 -7.43
Si  0.82 -6.31 -9.74
Si -5.57  3.47  9.61
Si  8.96 -3.82  6.43
Si -0.94  9.37  6.90
Si  0.09  7.12  9.27
Si -6.73  6.50 -7.03
Si  9.63 -6.14  2.58
Si  6.08  7.62  6.50
Si -11.59 -0.22 -1.83
Si  6.02 -2.35 -9.80
Si  6.85 -2.24  9.27
Si -4.17 10.89 -1.42
Si 10.32 -5.64 -0.19
Si  5.97 -8.80  5.07
Si  1.98 -9.34  6.90
Si  8.67 -4.50 -6.59
Si -10.20 -5.13 -2.97
Si  4.43 10.93 -0.48
Si -5.94  3.05 -9.74
Si -3.45 -8.57 -7.37
Si 11.13  3.85 -1.04
Si  7.09 -4.12 -8.51
Si -10.90  0.28 -4.60
Si  5.06  9.88  4.13
Si  9.06  2.33  7.28
Si  7.23  7.60 -5.54
Si  9.28  2.54 -6.97
Si -0.18 11.43 -3.25
Si  2.62  8.11 -8.31
Si -6.82  5.07  8.33
Si -2.68  8.11 -8.31
Si -4.50  1.70 10.90
Si -8.40  5.54  6.43
Si -8.70  4.86 -6.59
Si  5.75 10.38  1.35
Si  1.89 -11.66 -1.89
Si -1.14 -11.62 -2.76
Si -4.11 -5.88  9.61
Si -10.05  6.59  0.01
Si -9.97 -3.78  5.56
Si -9.51 -4.63 -5.74
Si  9.12  0.06  7.84
Si -4.95  8.07 -7.43
Si  9.58  7.06 -1.89
Si  6.46 -9.07 -4.60
Si  4.39 -10.59  3.72
Si  6.38  1.30 -10.15
Si -5.55  9.88  4.13
Si -9.36  7.09 -2.76
Si -0.74  7.01 -9.80
Si -3.32 -9.34  6.90
Si  4.77 -0.75 -11.08
Si  8.67 -8.33  1.35
Si -6.55 -4.00 -9.37
Si  2.48 -3.62 -11.29
Si -8.44  8.63  0.95
Si -0.75 -4.79 11.11
Si -7.75  9.14 -1.83
Si -0.02 -9.30  7.84
Si -2.82 -3.62 -11.29
Si -2.21  4.57 11.11
Si -10.08  0.02  6.90
Si -7.94  3.09 -8.80
Si  1.20 -12.16  0.89
Si -10.89 -5.64 -0.19
Si -1.83 -12.12  0.01
Si  7.96  3.09 -8.80
Si -1.95  3.59 -11.57
Si  9.36 -7.82 -1.42
Si  1.83 11.40 -4.20
Si -3.41 -11.66 -1.89
Si -8.72 -5.38  6.84
Si -12.28 -0.72  0.95
Si  5.66  8.07 -7.43
Si  2.58 -11.15 -4.66
Si  8.94 -6.65  5.36
Si  0.86 -2.75 12.04
Si  8.15  9.14 -1.83
Si -2.72 -11.15 -4.66
Si  3.09  4.57 11.11
Si -9.12  2.20  8.13
Si 10.46  6.08  2.78
Si -0.45 -11.11 -5.54
Si  4.37  9.37  6.90
Si -4.48 -6.31 -9.74
Si  2.36  9.41  7.84
Si -11.39  0.56  5.07
Si 11.88  2.08 -3.25
Si -11.26 -3.36 -4.25
Si 11.01 -5.13 -2.97
Si  6.81  5.04  9.21
Si -0.86 -0.99 12.45
Si 11.82  0.52  4.13
Si -5.83 -0.75 -11.08
Si  9.77  5.58  5.56
Si -6.17 10.93 -0.48
Si -11.55 -3.31  3.66
Si -7.93 -8.84  4.13
Si  3.35  3.59 -11.57
Si -0.78 -7.54 10.05
Si  8.73 -6.78 -6.03
Si -1.07 10.15 -7.37
Si  9.38 -1.25 -8.31
Si  7.98 -8.84  4.13
Si -2.94  9.41  7.84
Si -6.48 -6.27 -8.80
Si  6.10  1.70 10.90
Si  3.47 -12.12  0.01
Si -10.21  0.79 -7.37
Si 12.51  1.03  1.35
Si -9.24 -8.29  2.29
Si -3.48 11.40 -4.20
Si -11.46  2.83  4.50
Si -0.56 -3.49 -12.14
Si  4.16 -11.62 -2.76
Si -11.96 -3.86 -1.48
Si -10.74  6.08  2.78
Si 10.24  4.73 -5.74
Si 11.92 -3.27  2.78
Si -6.86 10.42  2.29
