500
set: 1439.00  0.00  0.00
Si -0.13 -1.77  0.36
Si -2.06 -0.28  0.58
Si -0.67  0.14 -2.11
Si  0.20  1.79  1.55
Si  2.32 -0.28  0.58
Si -1.90  1.99  0.14
Si  2.08 -1.91 -0.96
Si  1.74  0.07  2.43
Si -2.30 -1.91 -0.96
Si  2.48  1.99  0.14
Si -2.64  0.07  2.43
Si -0.09 -0.22 -3.95
Si -0.26 -3.28  2.28
Si  0.11 -1.98  3.58
Si  2.17  1.85 -2.98
Si -2.21  1.85 -2.98
Si -1.64  3.33 -1.86
Si  3.71  0.14 -2.11
Si  1.71 -3.21 -2.25
Si  0.76  3.26  2.68
Si  4.25 -1.77  0.36
Si  2.73  3.33 -1.86
Si -2.67 -3.21 -2.25
Si -4.18  1.79  1.55
Si -4.50 -1.77  0.36
Si  0.07  2.06 -4.40
Si  1.84 -1.70 -4.17
Si -0.81 -4.63 -1.86
Si  0.51  1.93  4.67
Si  0.35 -0.35  5.12
Si  4.58  1.79  1.55
Si -2.53 -1.70 -4.17
Si -1.10  4.67  2.28
Si  0.88  4.74 -2.25
Si -5.05  0.14 -2.11
Si -3.61  3.26  2.68
Si  1.60 -4.69  2.68
Si -2.10 -1.83  4.90
Si  2.28 -1.83  4.90
Si  4.12 -3.28  2.28
Si -0.33 -1.85 -5.49
Si  4.29 -0.22 -3.95
Si -4.27 -1.98  3.58
Si -4.46 -0.22 -3.95
Si -1.07 -5.96  0.14
Si  4.49 -1.98  3.58
Si -2.78 -4.69  2.68
Si -4.64 -3.28  2.28
Si  3.57 -4.63 -1.86
Si  3.28  4.67  2.28
Si  1.25  6.04 -0.96
Si -0.96  6.19  0.36
Si -3.50  4.74 -2.25
Si -3.87  1.93  4.67
Si  1.03 -6.17  1.55
Si -6.43 -0.28  0.58
Si -4.31  2.06 -4.40
Si -4.03 -0.35  5.12
Si -1.77  1.72  6.09
Si  6.11  0.07  2.43
Si  4.45  2.06 -4.40
Si -6.28  1.99  0.14
Si  5.14  3.26  2.68
Si  6.70 -0.28  0.58
Si  1.30  0.21 -6.64
Si  6.46 -1.91 -0.96
Si  3.31 -5.96  0.14
Si  2.61  1.72  6.09
Si -3.13  6.04 -0.96
Si -1.37 -6.10 -2.98
Si -0.24  0.01  6.96
Si  4.73 -0.35  5.12
Si -0.72  5.98  3.58
Si -6.67 -1.91 -0.96
Si  4.88  1.93  4.67
Si  4.05 -1.85 -5.49
Si  3.42  6.19  0.36
Si -6.02  3.33 -1.86
Si  6.86  1.99  0.14
Si -3.34 -6.17  1.55
Si -5.19 -4.63 -1.86
Si  0.33  3.39 -6.39
Si  6.09 -3.21 -2.25
Si -3.08  0.21 -6.64
Si  0.91 -5.90 -4.40
Si  5.25  4.74 -2.25
Si  3.01 -6.10 -2.98
Si -7.02  0.07  2.43
Si  6.55  1.85 -2.98
Si -6.58  1.85 -2.98
Si -4.70 -1.85 -5.49
Si -0.70 -3.15 -6.79
Si -5.47  4.67  2.28
Si  1.01  6.25 -4.17
Si  6.22 -1.70 -4.17
Si  1.34 -6.03  4.67
Si -0.23  1.92 -7.52
Si  1.49  7.67  0.58
Si  3.65  5.98  3.58
Si  2.14 -3.35  6.82
Si -2.23 -3.35  6.82
Si  1.16 -4.56 -6.39
Si  1.45  6.12  4.90
Si -1.21  3.19  7.22
Si  5.97 -4.69  2.68
Si -7.05 -3.21 -2.25
Si  7.11  3.33 -1.86
Si -5.44 -5.96  0.14
Si  0.16 -7.81 -2.11
Si  4.14  0.01  6.96
Si -3.47 -5.90 -4.40
Si -5.34  6.19  0.36
Si -3.04 -6.03  4.67
Si -2.89  7.67  0.58
Si -3.37  6.25 -4.17
Si -6.91 -1.70 -4.17
Si -4.05  3.39 -6.39
Si -1.16  6.11 -5.49
Si  5.62  6.04 -0.96
Si -6.48 -1.83  4.90
Si  1.31  4.61  6.82
Si  3.68 -3.15 -6.79
Si -1.22 -8.24  0.58
Si  5.41 -6.17  1.55
Si -4.61  0.01  6.96
Si  8.08  0.14 -2.11
Si -2.93  6.12  4.90
Si  0.90  8.03  2.43
Si -1.81 -7.88  2.43
Si -1.53  4.80 -6.79
Si  6.66 -1.83  4.90
Si -3.22 -4.56 -6.39
Si -1.51  8.10 -2.11
Si  3.17  3.19  7.22
Si -1.86 -2.04  8.12
Si  4.71  3.39 -6.39
Si  2.57 -7.88  2.43
Si -5.10  5.98  3.58
Si -0.37 -4.76  7.22
Si  1.89 -0.15 -8.49
Si -0.92  7.74 -3.95
Si  2.52 -2.04  8.12
Si  5.68  0.21 -6.64
Si -0.94 -6.23  6.09
Si -3.07  4.61  6.82
Si  2.85  4.80 -6.79
Si  4.14  1.92 -7.52
Si  8.63 -1.77  0.36
Si  3.22  6.11 -5.49
Si -6.15  1.72  6.09
Si  3.15 -8.24  0.58
Si  2.87  8.10 -2.11
Si -2.49 -0.15 -8.49
Si -8.55  1.79  1.55
Si -0.56 -1.64 -8.71
Si -5.75 -6.10 -2.98
Si -7.16 -4.69  2.68
Si -4.61  1.92 -7.52
Si -7.99  3.26  2.68
Si -5.08 -3.15 -6.79
Si  5.28 -5.90 -4.40
Si -8.88 -1.77  0.36
Si -3.48  8.03  2.43
Si  0.75 -8.17 -3.95
Si -4.22 -7.81 -2.11
Si -0.48  7.61  5.12
Si  5.39  6.25 -4.17
Si  7.66  4.67  2.28
Si  8.96  1.79  1.55
Si  4.54 -7.81 -2.11
Si  3.46  7.74 -3.95
Si  3.44 -6.23  6.09
Si  7.95 -4.63 -1.86
Si  8.49 -3.28  2.28
Si  2.04  2.12 -8.94
Si  6.99  1.72  6.09
Si -7.88  4.74 -2.25
Si -2.33  2.12 -8.94
Si -1.46  1.86  9.21
Si  4.00 -4.76  7.22
Si  8.67 -0.22 -3.95
Si  5.72 -6.03  4.67
Si -8.65 -1.98  3.58
Si  5.54 -4.56 -6.39
Si  0.31 -1.90  9.44
Si  3.82 -1.64 -8.71
Si  0.60 -6.04 -7.52
Si -9.43  0.14 -2.11
Si -5.59  3.19  7.22
Si -8.25  1.93  4.67
Si  5.87  7.67  0.58
Si -7.51  6.04 -0.96
Si -8.84 -0.22 -3.95
Si  7.69 -5.96  0.14
Si  0.71 -9.72  0.36
Si  8.87 -1.98  3.58
Si  5.82  6.12  4.90
Si -3.63 -8.17 -3.95
Si -1.62 -0.41  9.66
Si  1.18 -8.30  5.12
Si  2.91  1.86  9.21
Si -8.40 -0.35  5.12
Si -9.02 -3.28  2.28
Si -4.75 -4.76  7.22
Si -0.63  9.74  1.55
Si -5.54  6.11 -5.49
Si  5.28  8.03  2.43
Si -8.68  2.06 -4.40
Si  7.79  6.19  0.36
Si  3.89  7.61  5.12
Si -5.60 -8.24  0.58
Si -7.46  0.21 -6.64
Si -7.72 -6.17  1.55
Si  5.69  4.61  6.82
Si  6.52 -3.35  6.82
Si -1.46 -9.87 -0.96
Si  7.38 -6.10 -2.98
Si  2.76 -0.41  9.66
Si -6.61 -3.35  6.82
Si  8.83  2.06 -4.40
Si  1.64  9.95  0.14
Si -4.94 -1.64 -8.71
Si -5.30  7.74 -3.95
Si  1.68  5.91  8.12
Si -5.91  4.80 -6.79
Si -5.31 -6.23  6.09
Si -5.88  8.10 -2.11
Si  8.43 -1.85 -5.49
Si -3.19 -8.30  5.12
Si -6.19 -7.88  2.43
Si -2.73  9.95  0.14
Si  1.65 -1.78 -10.03
Si  2.92 -9.87 -0.96
Si  1.34  9.81 -2.98
Si -3.78 -6.04 -7.52
Si -4.86  7.61  5.12
Si -2.69  5.91  8.12
Si -3.67 -9.72  0.36
Si  9.52  3.26  2.68
Si  5.13 -8.17 -3.95
Si  2.13 -7.75 -6.64
Si -6.24 -2.04  8.12
Si -4.07 -1.90  9.44
Si -2.25 -7.75 -6.64
Si  9.11 -0.35  5.12
Si  0.47  8.16 -6.64
Si -2.73 -1.78 -10.03
Si  6.26 -0.15 -8.49
Si  3.75  9.74  1.55
Si  9.26  1.93  4.67
Si  0.60 -7.94  6.96
Si -7.27  7.67  0.58
Si  0.94 -9.93  3.58
Si  8.03  5.98  3.58
Si -1.07  7.96  6.96
Si -7.42 -6.03  4.67
Si -1.70 -9.66 -4.17
Si -3.04  9.81 -2.98
Si  4.69 -1.90  9.44
Si -7.31  6.12  4.90
Si -7.85 -5.90 -4.40
Si 10.49  0.07  2.43
Si -9.08 -1.85 -5.49
Si  0.64  1.66 10.63
Si -1.50 -5.83 -8.94
Si  6.95 -7.88  2.43
Si -9.56 -4.63 -1.86
Si -7.75  6.25 -4.17
Si -10.81 -0.28  0.58
Si -10.65  1.99  0.14
Si  6.89 -2.04  8.12
Si -1.40  6.32 -8.71
Si  4.98 -6.04 -7.52
Si  2.68 -9.66 -4.17
Si  7.55  3.19  7.22
Si -6.87 -0.15 -8.49
Si -7.59 -4.56 -6.39
Si -0.33  9.88  4.67
Si -0.76 10.01 -4.40
Si  9.63  4.74 -2.25
Si  5.08 -9.72  0.36
Si  8.06 -3.15 -6.79
Si  8.52  0.01  6.96
Si  7.22  4.80 -6.79
Si -1.26 -9.79  4.90
Si 10.84 -1.91 -0.96
Si  2.88 -5.83 -8.94
Si -0.63 -6.09  9.21
Si -5.84  1.86  9.21
Si -5.01  9.74  1.55
Si  7.25  8.10 -2.11
Si -10.40  3.33 -1.86
Si  3.31  7.96  6.96
Si 11.08 -0.28  0.58
Si -7.45  4.61  6.82
Si -3.43 -9.93  3.58
Si -8.43  3.39 -6.39
Si -9.85  4.67  2.28
Si  2.98  6.32 -8.71
Si 10.46 -3.21 -2.25
Si  7.53 -8.24  0.58
Si  7.60  6.11 -5.49
Si  6.42  2.12 -8.94
Si -3.78 -7.94  6.96
Si -0.53  6.06  9.44
Si -3.91  8.16 -6.64
Si  5.56 -8.30  5.12
Si -1.11  0.27 -11.18
Si  0.51 -9.80 -5.49
Si -11.05 -1.91 -0.96
Si -8.99  0.01  6.96
Si -6.00 -0.41  9.66
Si -6.71  2.12 -8.94
Si  3.11 -9.79  4.90
Si -3.74  1.66 10.63
Si 11.23  1.99  0.14
Si 10.93  1.85 -2.98
Si  0.57 -11.23  2.28
Si -9.82 -5.96  0.14
Si -7.86  8.03  2.43
Si -5.84 -9.87 -0.96
Si -10.96  1.85 -2.98
Si  3.62 10.01 -4.40
Si 10.60 -1.70 -4.17
Si -9.72  6.19  0.36
Si  8.52  1.92 -7.52
Si -0.07 11.21  2.68
Si -1.83 -11.17 -2.25
Si  1.77  9.68  6.09
Si  1.05  7.80 -8.49
Si  4.84  8.16 -6.64
Si  1.90 11.28 -1.86
Si  9.08  3.39 -6.39
Si  6.02  9.95  0.14
Si -2.08  3.46 -10.93
Si  3.27  0.27 -11.18
Si -11.40  0.07  2.43
Si  4.05  9.88  4.67
Si  3.75 -6.09  9.21
Si  2.54 -11.17 -2.25
Si  9.79 -6.17  1.55
Si  4.97 -7.94  6.96
Si 10.35 -4.69  2.68
Si  2.30  3.46 -10.93
Si -2.48 11.28 -1.86
Si  7.84  7.74 -3.95
Si  2.17 -0.06 11.50
Si  7.82 -6.23  6.09
Si -2.21 -0.06 11.50
Si -2.60  9.68  6.09
Si 10.00  6.04 -0.96
Si  6.06  5.91  8.12
Si  5.72  9.81 -2.98
Si -9.48  5.98  3.58
Si -8.59 -7.81 -2.11
Si  0.81  6.17 -10.03
Si  1.27 -3.08 -11.33
Si  5.32 -9.93  3.58
Si  6.02 -1.78 -10.03
Si -1.66 -8.11 -8.49
Si  3.85  6.06  9.44
Si  0.17 -3.41 11.35
Si  5.01  1.66 10.63
Si -8.99  1.92 -7.52
Si -3.87 -9.80 -5.49
Si -1.25 -4.50 -10.93
Si  7.29  1.86  9.21
Si -4.71  9.88  4.67
Si -5.45  7.96  6.96
Si -3.33  7.80 -8.49
Si  7.13 -0.41  9.66
Si  8.38 -4.76  7.22
Si  8.92 -7.81 -2.11
Si  2.72 -8.11 -8.49
Si -10.85 -1.83  4.90
Si 10.05  0.21 -6.64
Si -9.45 -3.15 -6.79
Si  8.19 -1.64 -8.71
Si -3.81 -11.23  2.28
Si -11.43 -3.21 -2.25
Si -5.14 10.01 -4.40
Si -8.01 -8.17 -3.95
Si 11.49  3.33 -1.86
Si  6.51 -7.75 -6.64
Si -5.01 -6.09  9.21
Si -3.10 -3.08 -11.33
Si  9.66 -5.90 -4.40
Si -6.08 -9.66 -4.17
Si -11.29 -1.70 -4.17
Si -6.62 -7.75 -6.64
Si -5.88 -5.83 -8.94
Si -10.13 -6.10 -2.98
Si -5.77  6.32 -8.71
Si 11.04 -1.83  4.90
Si  1.20  3.13 11.75
Si  3.13 -4.50 -10.93
Si -7.11  9.95  0.14
Si -4.90  6.06  9.44
Si -0.66  4.54 11.35
Si  4.89 -9.80 -5.49
Si -7.07  5.91  8.12
Si -10.53  1.72  6.09
Si -3.57  6.17 -10.03
Si  7.29 -9.87 -0.96
Si  4.31 11.21  2.68
Si -5.64 -9.79  4.90
Si  9.77  6.25 -4.17
Si  0.44  4.87 -11.33
Si  1.74  1.98 -12.05
Si -7.57 -8.30  5.12
Si  8.27  7.61  5.12
Si -4.45 11.21  2.68
Si  1.92  7.54  9.66
Si -7.11 -1.78 -10.03
Si  1.47 -6.30 10.63
Si -1.07  9.87 -7.52
Si -5.49  0.27 -11.18
Si  4.95 -11.23  2.28
Si -2.46  7.54  9.66
Si -2.64  1.98 -12.05
Si -3.18  3.13 11.75
Si -9.13 -4.76  7.22
Si -4.21 -3.41 11.35
Si -8.05 -9.72  0.36
Si -8.16 -6.04 -7.52
Si 12.46  0.14 -2.11
Si  9.92 -4.56 -6.39
Si -7.42  9.81 -2.98
Si 10.10 -6.03  4.67
Si  7.06 -9.66 -4.17
Si -2.91 -6.30 10.63
Si  4.55 -3.41 11.35
Si -9.96  3.19  7.22
Si  0.02 -12.58 -1.86
Si -11.54 -4.69  2.68
Si  5.43  7.80 -8.49
Si  8.12  9.74  1.55
Si  3.72  4.54 11.35
Si  9.66  8.03  2.43
Si -0.79 -8.37  9.66
Si -8.45 -1.90  9.44
Si 10.24  7.67  0.58
Si  0.55 -2.11 12.65
Si  3.31  9.87 -7.52
Si -9.32 -1.64 -8.71
Si  2.03 -4.82 11.75
Si 10.20  6.12  4.90
Si  5.19  6.17 -10.03
Si -9.91  6.11 -5.49
Si  0.04 12.69 -2.25
Si  7.25 -5.83 -8.94
Si -1.03 -9.99  8.12
Si -2.35 -4.82 11.75
Si -3.94  4.87 -11.33
Si -9.98 -8.24  0.58
Si  0.27 -9.59 -8.71
Si -1.93 12.63  2.28
Si -6.21 -11.17 -2.25
Si  6.15  9.68  6.09
Si -9.68  7.74 -3.95
Si 10.07  4.61  6.82
Si 11.36  1.72  6.09
Si -9.24  7.61  5.12
Si  0.14 -11.10 -6.79
Si  5.65 -3.08 -11.33
Si -0.51 11.35 -6.39
Si -9.69 -6.23  6.09
Si  7.36  6.32 -8.71
Si -0.52 -0.09 -13.02
Si  6.28 11.28 -1.86
Si  2.45 12.63  2.28
Si -12.37  3.26  2.68
Si -1.95 -12.65  2.68
Si  7.68  7.96  6.96
Si -5.62 -4.50 -10.93
Si 12.04  4.67  2.28
Si 13.01 -1.77  0.36
Si -7.81 -9.93  3.58
Si  9.51 -8.17 -3.95
Si -12.93  1.79  1.55
Si -6.46  3.46 -10.93
Si  2.43 -12.65  2.68
Si -6.04 -8.11 -8.49
Si  9.06 -1.90  9.44
Si -5.04  4.54 11.35
Si -10.29  4.80 -6.79
Si  6.55 -0.06 11.50
Si  4.82  4.87 -11.33
Si -10.26  8.10 -2.11
Si -6.59 -0.06 11.50
Si  7.49 -9.79  4.90
Si  6.68  3.46 -10.93
Si -1.40 -11.30  6.82
Si  3.59 -8.37  9.66
Si 10.90 -3.35  6.82
Si 12.32 -4.63 -1.86
Si  3.35 -9.99  8.12
Si -6.86 11.28 -1.86
Si  6.92 -11.17 -2.25
Si -12.26  4.74 -2.25
