500
set: 765.00  0.00  0.00
Si -0.39  1.16 -0.78
Si  0.45 -1.19  0.80
Si -1.34 -1.20 -0.84
Si  1.38  1.22  0.82
Si  0.81 -0.05 -2.44
Si -0.89  0.04  2.42
Si  2.19 -1.18 -0.83
Si -2.20  1.23  0.86
Si  0.07  2.44  2.46
Si -3.15 -1.21  0.80
Si  3.17  1.16 -0.84
Si -0.07 -2.46 -2.47
Si -0.45 -3.52  0.82
Si  2.68  0.07  2.49
Si -2.65 -0.07 -2.52
Si  0.48  3.54 -0.84
Si -1.72  2.35 -2.43
Si  1.76  2.28 -2.47
Si  1.68 -2.31  2.51
Si -1.76 -2.30  2.46
Si -1.32  3.52  0.80
Si  1.34 -3.58 -0.84
Si -3.88  1.16 -0.84
Si  3.90 -1.21  0.80
Si  0.85 -0.09  4.11
Si -0.84  0.07 -4.12
Si -2.22 -3.58 -0.78
Si  2.28  3.55  0.80
Si  3.02 -3.51  0.86
Si -3.03  3.56 -0.83
Si -0.10 -2.42  4.14
Si  0.02  2.41 -4.17
Si  2.59  0.06 -4.07
Si  3.51 -2.39 -2.43
Si -2.63 -0.02  4.15
Si -3.54 -2.39 -2.43
Si  3.50  2.43  2.51
Si -1.74  2.30  4.06
Si -3.55  2.43  2.51
Si  1.76 -2.29 -4.09
Si -4.38  0.07  2.49
Si  1.72  2.32  4.14
Si -4.86 -1.18 -0.83
Si  4.40 -0.07 -2.52
Si  4.85  1.23  0.86
Si -1.81 -2.33 -4.17
Si  0.85 -4.66  2.49
Si -0.82  4.67 -2.52
Si -4.03 -3.51  0.86
Si  4.02  3.56 -0.83
Si  0.93  4.78  2.42
Si -1.02 -4.79 -2.44
Si -5.68  1.22  0.82
Si -0.43  1.17  5.74
Si  3.49 -2.44  4.06
Si  0.46 -1.15 -5.76
Si -3.47  2.44 -4.09
Si  5.71 -1.20 -0.84
Si  2.64  4.69 -2.44
Si -3.56 -2.44  4.06
Si -2.72 -4.70  2.42
Si  3.59  2.44 -4.09
Si  0.36 -5.91 -0.83
Si -2.55  4.81  2.49
Si -4.78  3.55  0.80
Si  2.58 -4.80 -2.52
Si -0.38  5.96  0.86
Si -4.46  0.06 -4.07
Si  1.36  1.18 -5.79
Si  4.83 -3.58 -0.78
Si  4.42 -0.02  4.15
Si -1.31 -1.21  5.80
Si  1.43  5.89 -0.78
Si -1.38 -5.93  0.80
Si  0.76 -4.68 -4.07
Si -5.29  2.28 -2.47
Si  5.30 -2.30  2.46
Si  2.26 -1.21  5.74
Si -2.06  5.90 -0.84
Si -2.24  1.16 -5.79
Si  5.34  2.35 -2.43
Si -0.80  4.72  4.15
Si  2.08 -5.95  0.80
Si -5.38 -2.31  2.51
Si  0.99  4.80 -4.12
Si -0.98 -4.83  4.11
Si  6.16  0.04  2.42
Si -3.12 -1.14 -5.73
Si  3.11  1.19  5.76
Si -6.25 -0.05 -2.44
Si  2.67  4.65  4.11
Si -6.61 -1.19  0.80
Si  5.73  3.52  0.80
Si -2.67 -4.67 -4.12
Si -3.17 -5.94 -0.84
Si -5.71 -3.58 -0.84
Si  6.66  1.16 -0.78
Si -0.47 -3.56 -5.79
Si  0.52  3.52  5.80
Si  3.20  5.95  0.82
Si -2.64  4.80 -4.07
Si  2.60 -4.76  4.15
Si  4.33 -4.70  2.42
Si  1.28 -3.54  5.76
Si -1.29  3.59 -5.73
Si -4.42  4.69 -2.44
Si -4.48 -4.80 -2.52
Si  3.94 -1.14 -5.73
Si  4.50  4.81  2.49
Si -5.29 -2.29 -4.09
Si  5.32  2.30  4.06
Si -3.95  1.19  5.76
Si  5.25 -2.33 -4.17
Si -2.26 -3.57  5.74
Si -3.85  5.95  0.82
Si -5.33  2.32  4.14
Si  3.88 -5.94 -0.84
Si  2.29  3.58 -5.76
Si -2.97  3.53  5.74
Si  2.99 -3.58 -5.79
Si -6.21 -0.09  4.11
Si  6.21  0.07 -4.12
Si -0.15 -7.05  2.51
Si  0.11  7.09 -2.43
Si  0.46 -1.15  7.41
Si -6.57  3.54 -0.84
Si -0.43  1.17 -7.42
Si  6.60 -3.52  0.82
Si -1.31 -1.21 -7.36
Si -7.45  1.16 -0.78
Si -4.80 -1.21  5.74
Si  1.36  1.18  7.38
Si -4.38  4.65  4.11
Si  4.38 -4.67 -4.12
Si  4.82  1.16 -5.79
Si  7.50 -1.19  0.80
Si  4.42  4.80 -4.07
Si  1.68 -7.13 -2.43
Si -4.46 -4.76  4.15
Si  5.00  5.90 -0.84
Si -1.72  7.17  2.51
Si -6.98  2.44  2.46
Si -2.24  1.16  7.38
Si -4.98 -5.95  0.80
Si  6.99 -2.46 -2.47
Si  1.90  7.17  2.46
Si -1.90 -7.19 -2.47
Si  2.26 -1.21 -7.42
Si  4.09  3.53  5.74
Si  7.13  2.44  2.46
Si -4.07 -3.58 -5.79
Si -7.12 -2.46 -2.47
Si  6.04 -4.79 -2.44
Si  3.11  1.19 -7.41
Si  0.09  7.04  4.06
Si -6.12  4.78  2.42
Si -0.07 -7.03 -4.09
Si -3.12 -1.14  7.44
Si -6.21 -4.66  2.49
Si  0.52  3.52 -7.36
Si -5.62  5.89 -0.78
Si  6.23  4.67 -2.52
Si -5.69  1.18 -5.79
Si -0.47 -3.56  7.38
Si -3.47  7.02 -2.47
Si  3.47 -7.04  2.46
Si  7.86 -0.05 -2.44
Si  5.68 -5.93  0.80
Si  5.75 -1.21  5.80
Si  3.59  7.02 -2.47
Si -0.41  5.89 -5.79
Si -3.58 -7.04  2.46
Si  0.43 -5.95  5.74
Si  4.80 -3.57  5.74
Si -4.76  3.58 -5.76
Si -7.95  0.04  2.42
Si  1.28 -3.54 -7.41
Si  0.50  8.26  0.80
Si -7.51 -3.52  0.82
Si -1.36 -5.89 -5.76
Si  1.40  5.90  5.74
Si -1.29  3.59  7.44
Si  7.54  3.54 -0.84
Si -0.48 -8.32 -0.84
Si  1.20 -8.25  0.86
Si  1.66 -7.17  4.06
Si -1.64  7.18 -4.09
Si -1.21  8.30 -0.83
Si  6.95 -2.42  4.14
Si  2.11 -5.88 -5.73
Si  1.85  7.15 -4.17
Si -3.95  1.19 -7.41
Si -1.93 -7.15  4.14
Si  3.94 -1.14  7.44
Si -7.03  2.41 -4.17
Si -8.40 -1.20 -0.84
Si -2.12  5.93  5.76
Si  2.29  3.58  7.41
Si -2.26 -3.57 -7.42
Si  7.08  2.41 -4.17
Si  8.43  1.22  0.82
Si -2.28 -8.26  0.82
Si -7.16 -2.42  4.14
Si  2.31  8.27 -0.84
Si  2.99 -3.58  7.38
Si -2.97  3.53 -7.42
Si -6.07  4.80 -4.12
Si  6.07 -4.83  4.11
Si -6.59 -1.15 -5.76
Si -2.95  8.29  0.80
Si -6.29 -4.68 -4.07
Si  6.62  1.17  5.74
Si  6.25  4.72  4.15
Si  3.19  5.92 -5.79
Si  3.01 -8.32 -0.78
Si -3.13 -5.95  5.80
Si  5.77  3.59 -5.73
Si  3.42 -7.06 -4.17
Si  4.82  1.16  7.38
Si -5.78 -3.54  5.76
Si -3.50  7.06  4.14
Si -7.90  0.07 -4.12
Si  7.90 -0.09  4.11
Si -4.80 -1.21 -7.42
Si  3.55  7.06  4.14
Si -6.69 -5.91 -0.83
Si -3.63 -7.06 -4.17
Si  6.68  5.96  0.86
Si -0.84  0.07  9.05
Si  0.85 -0.09 -9.05
Si -8.38  3.52  0.80
Si -3.87  5.92 -5.79
Si -4.07 -3.58  7.38
Si  8.40 -3.58 -0.84
Si -5.16  7.17  2.46
Si  4.08  3.53 -7.42
Si  3.92 -5.95  5.80
Si  5.16 -7.19 -2.47
Si -5.37 -7.13 -2.43
Si  5.33  7.17  2.51
Si  4.10  8.29  0.80
Si -4.05 -8.32 -0.78
Si  0.02  2.41  9.00
Si -0.11 -2.42 -9.02
Si  9.25 -1.18 -0.83
Si  8.73 -2.31  2.51
Si -9.26  1.23  0.86
Si -2.63 -0.02 -9.01
Si -5.69  1.18  7.38
Si -8.77  2.35 -2.43
Si  5.75 -1.21 -7.36
Si -6.54  3.52  5.80
Si -8.81 -2.30  2.46
Si  8.81  2.28 -2.47
Si -0.41  5.89  7.38
Si  2.59  0.06  9.09
Si  6.59 -3.56 -5.79
Si -1.81 -2.33  9.00
Si  1.72  2.32 -9.02
Si -7.88  4.67 -2.52
Si -7.49  1.17  5.74
Si  7.90 -4.66  2.49
Si -4.76  3.58  7.41
Si  0.43 -5.95 -7.42
Si  1.76 -2.29  9.07
Si  7.42 -5.91 -0.83
Si  4.80 -3.57 -7.42
Si  7.52 -1.15 -5.76
Si -1.74  2.30 -9.11
Si -1.36 -5.89  7.41
Si -7.43  5.96  0.86
Si -4.75  8.27 -0.84
Si  4.78 -8.26  0.82
Si -4.94 -5.88 -5.73
Si  1.40  5.91 -7.42
Si  7.99  4.78  2.42
Si  4.93  5.93  5.76
Si -8.07 -4.79 -2.44
Si  2.11 -5.88  7.44
Si -2.12  5.93 -7.41
Si  5.12 -7.15  4.14
Si -0.98 -9.40  2.49
Si -5.21  7.15 -4.17
Si  1.00  9.41 -2.52
Si -5.39 -7.17  4.06
Si  5.42  7.18 -4.09
Si -0.72  9.55  2.49
Si  0.75 -9.54 -2.52
Si -8.79  2.30  4.06
Si -3.13 -5.95 -7.36
Si -9.28 -3.58 -0.78
Si  7.82 -4.68 -4.07
Si  8.78  2.32  4.14
Si -6.59 -1.15  7.41
Si  3.19  5.92  7.38
Si  8.82 -2.29 -4.09
Si -5.66  5.90  5.74
Si  5.69 -5.89 -5.76
Si -3.46  2.44  9.07
Si  9.33  3.55  0.80
Si  6.62  1.17 -7.42
Si -9.71 -0.07 -2.52
Si  4.42 -0.02 -9.01
Si -5.78 -3.54 -7.41
Si  9.73  0.07  2.49
Si  3.49 -2.44 -9.11
Si  2.51 -9.43  2.42
Si  3.59  2.44  9.07
Si -7.86  4.72  4.15
Si -8.86 -2.33 -4.17
Si  5.77  3.59  7.44
Si -3.56 -2.44 -9.11
Si -2.59  9.43 -2.44
Si -0.55 -8.28  5.76
Si  0.54  8.33 -5.73
Si -1.14  8.27  5.74
Si -4.46  0.06  9.09
Si -7.52 -3.56 -5.79
Si -5.86 -8.25  0.86
Si  7.58  3.52  5.80
Si  6.90 -7.05  2.51
Si  5.85  8.30 -0.83
Si  1.16 -8.32 -5.79
Si  2.76  9.52  2.42
Si -0.80  4.72 -9.01
Si -6.95  7.09 -2.43
Si -3.86  5.92  7.38
Si  8.04  4.80 -4.12
Si -2.85 -9.52 -2.44
Si -8.04 -4.83  4.11
Si  3.92 -5.95 -7.36
Si -8.36 -1.21  5.80
Si  0.76 -4.68  9.09
Si  8.42  1.18 -5.79
Si  0.99  4.80  9.05
Si -0.98 -4.83 -9.05
Si -10.21 -1.21  0.80
Si -1.07 -9.42 -4.07
Si 10.23  1.16 -0.84
Si -8.43 -5.93  0.80
Si  8.49  5.89 -0.78
Si  2.35  8.26  5.80
Si  7.17  7.09 -2.43
Si -2.29 -8.30 -5.79
Si  1.02  9.46  4.15
Si -7.21 -7.05  2.51
Si  0.77 -9.49  4.15
Si -0.81  9.54 -4.07
Si -6.54  3.52 -7.36
Si  9.64  0.06 -4.07
Si  6.59 -3.56  7.38
Si  2.60 -4.76 -9.01
Si  2.67  4.65 -9.05
Si  2.97 -8.31  5.74
Si -2.67 -4.67  9.05
Si -9.69 -0.02  4.15
Si -2.94  8.32 -5.76
Si -2.55  9.39  4.11
Si -6.55  8.26  0.80
Si  2.56 -9.41 -4.12
Si -6.62 -5.95  5.74
Si  6.64  5.89 -5.79
Si -7.49  1.17 -7.42
Si -2.64  4.80  9.09
Si  7.52 -1.15  7.41
Si  6.57 -8.32 -0.84
Si -0.23 10.63 -0.84
Si  5.25 -2.33  9.00
Si  4.21 -9.52 -2.44
Si -4.94 -5.88  7.44
Si  4.93  5.93 -7.41
Si -6.96  7.04  4.06
Si 10.08 -3.51  0.86
Si  4.46  9.43 -2.44
Si -4.29  9.52  2.42
Si  0.25 -10.69  0.80
Si  6.99 -7.03 -4.09
Si  8.33 -3.54  5.76
Si -10.09  3.56 -0.83
Si -5.33  2.32 -9.02
Si -8.34  3.59 -5.73
Si -4.55 -9.43  2.42
Si -5.29 -2.29  9.07
Si  0.81 -0.05 10.72
Si  2.81  9.54 -4.12
Si -2.81 -9.56  4.11
Si -1.46 -10.65 -0.83
Si -0.89  0.04 -10.75
Si  5.32  2.30 -9.11
Si -7.12 -7.03 -4.09
Si  7.15  7.04  4.06
Si  1.45 10.70  0.86
Si -9.11  5.90 -0.84
Si -4.09 -8.31  5.74
Si  2.06 -10.68 -0.84
Si -2.02 10.69  0.82
Si  4.12  8.32 -5.76
Si  9.13 -5.95  0.80
Si -2.65 -0.07 10.64
Si -0.07 -2.46 10.69
Si  0.07  2.44 -10.70
Si  6.21  0.07  9.05
Si -6.21 -0.09 -9.05
Si  2.67  0.07 -10.68
Si -9.29  1.16 -5.79
Si  9.31 -1.21  5.74
Si  1.68 -2.31 -10.65
Si -9.61  4.81  2.49
Si -10.94  1.16 -0.84
Si  9.69  4.69 -2.44
Si  5.69 -5.89  7.41
Si -5.66  5.91 -7.42
Si 10.96 -1.21  0.80
Si  9.63 -4.80 -2.52
Si  1.76  2.28 10.69
Si -4.38  4.65 -9.05
Si -1.76 -2.30 -10.70
Si  4.38 -4.67  9.05
Si 10.56 -2.39 -2.43
Si -9.78 -4.70  2.42
Si -7.52 -3.56  7.38
Si -1.72  2.35 10.73
Si 10.56  2.43  2.51
Si -4.46 -4.76 -9.01
Si -0.55 -8.28 -7.41
Si -7.46  5.89 -5.79
Si -10.60 -2.39 -2.43
Si  7.57  3.52 -7.36
Si -4.71  8.26  5.80
Si  3.26 10.63 -0.78
Si  7.49 -5.95  5.74
Si -3.21 -10.66  0.80
Si -1.14  8.27 -7.42
Si -10.61  2.43  2.51
Si  4.76 -8.30 -5.79
Si  1.16 -8.32  7.38
Si  0.54  8.33  7.44
Si  4.42  4.80  9.09
Si  4.50  9.39  4.11
Si -8.36 -1.21 -7.36
Si -4.50 -9.41 -4.12
Si -4.24  9.54 -4.12
Si  7.56  8.26  0.80
Si  4.25 -9.56  4.11
Si -7.54 -8.32 -0.84
Si  8.42  1.18  7.38
Si  2.35  8.26 -7.36
Si -3.79 10.63 -0.78
Si -2.29 -8.30  7.38
Si  3.85 -10.66  0.80
Si  6.08 -9.40  2.49
Si -6.05  9.41 -2.52
Si  3.50  2.43 -10.65
Si -0.07 -7.03  9.07
Si -3.55  2.43 -10.65
Si -9.31 -3.57  5.74
Si  0.09  7.04 -9.11
Si  4.41 -0.07 10.64
Si -2.94  8.32  7.41
Si  2.97 -8.31 -7.42
Si  9.65 -4.76  4.15
Si  8.74 -7.13 -2.43
Si  9.73  4.65  4.11
Si -4.38  0.07 -10.68
Si  3.51 -2.39 10.73
Si  6.64  5.89  7.38
Si -9.72 -4.67 -4.12
Si  9.35  3.58 -5.76
Si -10.52  2.44 -4.09
Si -3.54 -2.39 10.73
Si -9.69  4.80 -4.07
Si 10.55 -2.44  4.06
Si -6.62 -5.95 -7.42
Si -8.78  7.17  2.51
Si -10.62 -2.44  4.06
Si  1.85  7.15  9.00
Si  6.95 -2.42 -9.02
Si -0.82  4.67 10.64
Si -11.09 -3.51  0.86
Si 11.07  3.56 -0.83
Si 10.64  2.44 -4.09
Si -7.03  2.41  9.00
Si  5.91  8.27  5.74
Si -1.93 -7.15 -9.02
Si  0.85 -4.66 -10.68
Si -1.64  7.18  9.07
Si  7.08  2.41  9.00
Si  8.25 -8.25  0.86
Si  8.33 -3.54 -7.41
Si -11.43  0.07  2.49
Si  1.66 -7.17 -9.11
Si -6.30 -9.54 -2.52
Si -5.89 -8.32 -5.79
Si  6.33  9.55  2.49
Si -10.17 -1.14 -5.73
Si 11.46 -0.07 -2.52
Si  8.95  7.17  2.46
Si 10.16  1.19  5.76
Si -8.26  8.30 -0.83
Si -8.34  3.59  7.44
