500
set: 450.00  0.00  0.00
Si -0.17  0.15  0.02
Si  0.09 -1.92  0.80
Si  1.77  1.06  0.61
Si  0.04 -0.05 -2.22
Si -2.00  1.17  0.74
Si -1.65 -3.05 -0.01
Si  1.81 -3.06 -0.12
Si  1.88  1.08  2.84
Si  0.00  2.12 -2.89
Si -1.82  1.02  2.94
Si  3.61 -0.17  0.08
Si  1.81 -1.07 -3.00
Si -3.66 -0.17  0.08
Si  0.00 -2.08  3.05
Si -1.76 -1.02 -3.09
Si -1.83  3.23 -0.12
Si  1.98  3.24 -0.01
Si  0.07  4.05  0.85
Si -1.86 -1.08  3.60
Si -3.62 -0.18 -2.13
Si -1.75 -3.11 -2.25
Si  3.64 -0.18 -2.13
Si  1.88 -1.01  3.68
Si  0.01  1.92  3.80
Si -3.57 -2.25  0.85
Si -1.86  3.12 -2.33
Si  1.77 -3.17 -2.33
Si  1.88  3.19 -2.25
Si  3.70 -2.25  0.85
Si  3.61  1.97 -2.89
Si -3.66  1.97 -2.89
Si -0.02  4.07  3.05
Si -0.02 -4.33 -2.89
Si  3.61 -2.23  3.05
Si -3.66 -2.23  3.05
Si  1.64 -5.12  0.74
Si  5.27  1.17  0.74
Si  1.64 -0.93 -5.19
Si -3.59  2.05  3.72
Si -1.86 -5.24  0.61
Si  0.09  2.28 -5.13
Si  3.68  2.05  3.72
Si -5.49  1.06  0.61
Si  0.04 -4.25  3.72
Si -3.55  4.37  0.80
Si -1.86 -1.04 -5.32
Si  3.72  4.37  0.80
Si -0.03  6.13  0.08
Si -1.83 -0.96  5.81
Si -5.39  1.08  2.84
Si -1.76 -5.21  2.84
Si -5.28  3.24 -0.01
Si -3.63 -4.17 -2.89
Si  3.63 -4.17 -2.89
Si -5.46 -3.06 -0.12
Si  5.44  1.02  2.94
Si -1.65  1.14 -5.94
Si -0.03 -2.26 -5.85
Si -1.82  5.22 -3.00
Si  1.81 -5.27  2.94
Si -5.46 -1.07 -3.00
Si -0.03  1.93  6.02
Si  1.98 -0.95  5.92
Si  5.44  3.23 -0.12
Si -3.63  4.22  3.05
Si  3.63  4.22  3.05
Si  5.62 -3.05 -0.01
Si  1.88  5.28 -3.09
Si  5.51 -1.02 -3.09
Si  1.81  1.13 -6.05
Si -0.03 -6.46  0.08
Si  0.01  6.12 -2.13
Si -3.57  1.95 -5.08
Si  1.77  5.22  3.60
Si  3.70  1.95 -5.08
Si  5.41 -1.08  3.60
Si -5.39 -1.01  3.68
Si -5.39  3.19 -2.25
Si  5.41  3.12 -2.33
Si -1.75  5.29  3.68
Si  0.07 -4.34 -5.08
Si  5.51 -3.11 -2.25
Si -5.50 -3.17 -2.33
Si  0.07 -0.15  6.78
Si  0.01 -6.47 -2.13
Si -3.62 -4.37  3.80
Si  3.64 -4.37  3.80
Si  3.47 -6.14  0.02
Si  7.10  0.15  0.02
Si  3.47 -1.95 -5.92
Si -0.17 -4.05  5.95
Si -3.80 -6.14  0.02
Si  3.47  2.25  5.95
Si -3.80 -1.95 -5.92
Si  3.47  6.44  0.02
Si -0.17  4.34 -5.92
Si -3.80  2.25  5.95
Si -3.55 -4.02 -5.13
Si -7.43  0.15  0.02
Si -7.18 -1.92  0.80
Si  1.77 -3.14  6.55
Si -3.80  6.44  0.02
Si -1.86  3.15  6.55
Si  3.72 -4.02 -5.13
Si -3.59  6.24 -2.22
Si  5.41 -5.24  0.61
Si -7.22 -0.05 -2.22
Si  3.68  6.24 -2.22
Si -2.00 -3.02  6.68
Si -1.86  7.35  0.61
Si  1.63  3.27  6.68
Si -3.55  0.18  6.74
Si -3.59 -6.34 -2.22
Si  7.31 -0.05 -2.22
Si  7.35 -1.92  0.80
Si -5.63 -5.12  0.74
Si  5.41 -1.04 -5.32
Si  3.68 -6.34 -2.22
Si  1.63  7.46  0.74
Si  1.77  5.25 -5.32
Si  3.72  0.18  6.74
Si -5.63 -0.93 -5.19
Si -2.00  5.37 -5.19
Si  3.61  4.03 -5.85
Si -3.66  4.03 -5.85
Si -5.28 -0.95  5.92
Si  5.44 -0.96  5.81
Si  1.81  7.32  2.94
Si  1.81  5.33  5.81
Si -1.76  7.37  2.84
Si  5.51 -5.21  2.84
Si -7.27  2.12 -2.89
Si  7.27  2.12 -2.89
Si  1.99 -5.15 -5.94
Si  5.44  5.22 -3.00
Si -5.46 -5.27  2.94
Si -1.65  5.34  5.92
Si -7.27 -2.08  3.05
Si  7.27 -2.08  3.05
Si -5.39  5.28 -3.09
Si  1.88 -7.31 -3.09
Si -1.82 -7.37 -3.00
Si -1.83 -5.16 -6.05
Si -5.46  1.13 -6.05
Si  5.62  1.14 -5.94
Si  3.61 -4.36  6.02
Si -3.66 -4.36  6.02
Si -7.20  4.05  0.85
Si -1.75 -7.30  3.68
Si  0.01 -2.27 -8.07
Si -5.50  5.22  3.60
Si  1.77 -7.37  3.60
Si -7.26  1.92  3.80
Si  7.33  4.05  0.85
Si  7.28  1.92  3.80
Si -1.75  1.09 -8.18
Si  5.51  5.29  3.68
Si  1.77  1.02 -8.26
Si  0.07 -8.54  0.85
Si -0.02  8.26 -2.89
Si -0.02 -0.13 -8.82
Si  7.25  4.07  3.05
Si -7.29  4.07  3.05
Si  7.25 -4.33 -2.89
Si -7.29 -4.33 -2.89
Si -0.02 -0.13  8.98
Si -3.55 -8.21  0.80
Si  5.27 -3.02  6.68
Si -0.02 -8.52  3.05
Si  3.72 -8.21  0.80
Si  5.41  3.15  6.55
Si  0.09 -6.12  6.74
Si -5.49 -3.14  6.55
Si -7.18  2.28 -5.13
Si -2.00 -7.22 -5.19
Si  9.04  1.06  0.61
Si  0.04  8.34  3.72
Si  5.27  5.37 -5.19
Si  0.04  4.14 -8.15
Si  5.41  7.35  0.61
Si -3.59 -2.15 -8.15
Si -7.22 -4.25  3.72
Si  3.68 -2.15 -8.15
Si  1.78 -7.33 -5.32
Si  7.31 -4.25  3.72
Si  7.35  2.28 -5.13
Si -5.49  5.25 -5.32
Si -5.63  3.27  6.68
Si  0.09  6.47  6.74
Si -9.27  1.17  0.74
Si -5.63  7.46  0.74
Si -8.92 -3.05 -0.01
Si -5.28 -5.15 -5.94
Si  1.81 -7.26  5.81
Si  7.24  6.13  0.08
Si -1.76  3.18  8.78
Si  1.88 -3.11  8.78
Si -1.65 -7.25  5.92
Si -7.29  6.13  0.08
Si -1.83 -9.36 -0.12
Si -3.63  0.02 -8.82
Si  3.63  0.02 -8.82
Si  1.99 -9.35 -0.01
Si  1.81  3.12  8.87
Si  9.07 -3.06 -0.12
Si  7.24 -2.26 -5.85
Si -5.46  7.32  2.94
Si -5.46  5.33  5.81
Si -9.03 -1.02 -3.09
Si -5.39 -7.31 -3.09
Si -1.82 -3.17  8.87
Si -3.63  8.41 -2.89
Si  3.63  8.41 -2.89
Si -9.09  1.02  2.94
Si  7.24  1.93  6.02
Si -7.29 -2.26 -5.85
Si  9.08 -1.07 -3.00
Si -3.63 -8.37  3.05
Si  3.63 -8.37  3.05
Si  1.81  3.12 -8.93
Si  5.51  7.37  2.84
Si  9.14  1.08  2.84
Si  5.44 -5.16 -6.05
Si  5.44 -7.37 -3.00
Si -1.82 -3.17 -8.93
Si -7.29  1.93  6.02
Si -9.09  3.23 -0.12
Si -1.65  9.53 -0.01
Si  0.07  8.24 -5.08
Si -3.63  0.02  8.98
Si  3.63  0.02  8.98
Si  1.81  9.52 -0.12
Si  7.24 -6.46  0.08
Si -3.62  4.02 -8.07
Si  3.64  4.02 -8.07
Si  1.98  7.44 -5.94
Si -7.26  6.12 -2.13
Si -1.76  3.18 -9.02
Si  1.88 -3.11 -9.02
Si -7.29 -6.46  0.08
Si  7.28  6.12 -2.13
Si -3.62  8.21  3.80
Si -1.83  7.43 -6.05
Si  1.77  1.02  9.54
Si  5.62  5.34  5.92
Si  3.64  8.21  3.80
Si -9.02 -3.11 -2.25
Si  9.25  3.24 -0.01
Si -3.57  6.14  6.78
Si -7.20 -4.34 -5.08
Si -1.75  1.09  9.62
Si  1.88 -9.40 -2.25
Si  1.77  9.41 -2.33
Si  9.04 -3.17 -2.33
Si  5.51 -7.30  3.68
Si  3.70  6.14  6.78
Si -9.13 -1.08  3.60
Si -5.50 -7.37  3.60
Si  1.88 -5.20 -8.18
Si -7.20 -0.15  6.78
Si -1.75  9.48 -2.25
Si  9.15 -1.01  3.68
Si -9.13  3.12 -2.33
Si  7.33 -4.34 -5.08
Si  5.51  1.09 -8.18
Si -1.86 -9.47 -2.33
Si  9.15  3.19 -2.25
Si -7.26 -6.47 -2.13
Si  7.28 -6.47 -2.13
Si -5.50  1.02 -8.26
Si -1.86 -5.27 -8.26
Si  7.33 -0.15  6.78
Si  0.01 -2.27  9.73
Si -3.57 -6.44  6.78
Si  3.70 -6.44  6.78
Si  7.10 -4.05  5.95
Si -0.17 -8.24 -5.92
Si  7.10  4.34 -5.92
Si  8.90 -5.12  0.74
Si  5.27 -7.22 -5.19
Si  8.90 -0.93 -5.19
Si -7.43 -4.05  5.95
Si -0.17  8.54  5.95
Si -7.43  4.34 -5.92
Si  0.04  4.14  9.65
Si -3.59 -2.15  9.65
Si -9.12 -5.24  0.61
Si  3.68 -2.15  9.65
Si -5.49 -7.33 -5.32
Si -3.55  8.57 -5.13
Si -9.12 -1.04 -5.32
Si  3.72  8.57 -5.13
Si  0.09 10.67  0.80
Si -5.28 -9.35 -0.01
Si -5.39 -3.11  8.78
Si -8.92  1.14 -5.94
Si -5.46 -7.26  5.81
Si -9.03 -5.21  2.84
Si  3.61  8.22  6.02
Si  0.00 -6.27 -8.82
Si  5.44 -9.36 -0.12
Si -3.66  8.22  6.02
Si -9.09 -0.96  5.81
Si  5.51  3.18  8.78
Si  0.00  6.31 -8.82
Si  0.00 -10.47 -2.89
Si -5.46  3.12  8.87
Si 10.88 -0.17  0.08
Si  5.44 -3.17  8.87
Si -5.28  7.44 -5.94
Si  9.08 -5.27  2.94
Si -9.09  5.22 -3.00
Si  5.62 -7.25  5.92
Si -5.46  3.12 -8.93
Si -10.93 -0.17  0.08
Si  5.44 -3.17 -8.93
Si  0.00 10.51  3.05
Si  0.00 -6.27  8.98
Si -5.39 -3.11 -9.02
Si  9.07  1.13 -6.05
Si -3.57 10.34  0.85
Si  3.61 -8.56 -5.85
Si  0.00  6.31  8.98
Si -5.46  9.52 -0.12
Si -3.66 -8.56 -5.85
Si  9.14  5.28 -3.09
Si  3.70 10.34  0.85
Si  5.44  7.43 -6.05
Si  0.07 -0.15 -11.02
Si  9.25 -0.95  5.92
Si  5.51  3.18 -9.02
Si  9.04  5.22  3.60
Si -5.50  1.02  9.54
Si -1.86 -5.27  9.54
Si -5.39 -9.40 -2.25
Si  5.62  9.53 -0.01
Si -9.02  5.29  3.68
Si -7.26 -2.27 -8.07
Si -5.39 -5.20 -8.18
Si  1.88 -5.20  9.62
Si -10.83 -2.25  0.85
Si -10.89 -0.18 -2.13
Si  7.28 -2.27 -8.07
Si 10.91 -0.18 -2.13
Si -3.62  4.02  9.73
Si  5.51  1.09  9.62
Si  3.64  4.02  9.73
Si -5.50  9.41 -2.33
Si  5.41 -9.47 -2.33
Si  1.88  7.38 -8.18
Si -1.86  7.31 -8.26
Si  5.41 -5.27 -8.26
Si  5.51  9.48 -2.25
Si -7.20 -8.54  0.85
Si 10.97 -2.25  0.85
Si  7.33 -8.54  0.85
Si  0.01 -10.67  3.80
Si  3.61  6.16 -8.82
Si  7.25  8.26 -2.89
Si -3.66  6.16 -8.82
Si  3.61 10.36  3.05
Si -7.29  8.26 -2.89
Si -3.66 10.36  3.05
Si  7.25 -0.13 -8.82
Si 10.88  1.97 -2.89
Si -7.29 -0.13 -8.82
Si -10.92  1.97 -2.89
Si  3.61  6.16  8.98
Si -3.66  6.16  8.98
Si  3.61 -6.42 -8.82
Si -3.65 -6.42 -8.82
Si 10.88 -2.23  3.05
Si  0.09 -10.31 -5.13
Si  7.25 -0.13  8.98
Si -10.92 -2.23  3.05
Si -7.29 -0.13  8.98
Si  1.64 -9.32  6.68
Si  3.61 -10.62 -2.89
Si -7.18 -6.12  6.74
Si  7.25 -8.52  3.05
Si -3.65 -10.62 -2.89
Si  9.04 -3.14  6.55
Si  8.90  3.27  6.68
Si -2.00 -11.42  0.74
Si  3.61 -6.42  8.98
Si -3.55  0.18 -11.06
Si -7.29 -8.52  3.05
Si -3.66 -6.42  8.98
Si  1.77  9.45  6.55
Si -1.86 -9.43  6.55
Si  8.90  7.46  0.74
Si -7.22  8.34  3.72
Si -7.22  4.14 -8.15
Si -10.86  2.05  3.72
Si -9.13  3.15  6.55
Si  3.72  0.18 -11.06
Si  1.78 -11.53  0.61
Si -10.81  4.37  0.80
Si  7.31  8.34  3.72
Si -2.00 -3.02 -11.12
Si  7.35 -6.12  6.74
Si  7.31  4.14 -8.15
Si  1.64  3.27 -11.12
Si  9.04  5.25 -5.32
Si -9.13  7.35  0.61
Si  0.04 -8.44 -8.15
Si 10.94  2.05  3.72
Si -3.59 -10.54  3.72
Si  3.68 -10.54  3.72
Si -7.18  6.47  6.74
Si -9.27 -3.02  6.68
Si  1.78 -3.14 -11.25
Si -2.00  9.56  6.68
Si -1.86  3.15 -11.25
Si 10.99  4.37  0.80
Si -0.03 10.32 -5.85
Si  7.35  6.47  6.74
Si -9.27  5.37 -5.19
Si  1.81  1.13 11.75
Si -0.03  1.93 -11.78
Si -8.92  5.34  5.92
Si -9.03  7.37  2.84
Si  1.88 -11.51  2.84
Si  9.07  5.33  5.81
Si -10.90 -4.17 -2.89
Si  9.08  7.32  2.94
Si 10.90 -4.17 -2.89
Si -1.65  1.14 11.86
Si  1.81 11.51 -3.00
Si -7.20  8.24 -5.08
Si -1.82 -11.56  2.94
Si -9.09 -7.37 -3.00
Si -10.90  4.22  3.05
Si  1.99 -0.95 -11.88
Si 10.90  4.22  3.05
Si -9.09 -5.16 -6.05
Si -1.76 11.57 -3.09
Si  9.14 -7.31 -3.09
Si -10.83  1.95 -5.08
Si  9.25 -5.15 -5.94
Si  7.33  8.24 -5.08
Si -1.86  7.31  9.54
Si -1.83 -0.96 -11.99
Si -0.03 -2.26 11.95
Si  5.41 -5.27  9.54
Si -9.02 -7.30  3.68
Si -5.39 -5.20  9.62
Si -1.86 11.51  3.60
Si  9.04 -7.37  3.60
Si -9.02  1.09 -8.18
Si -0.03 -10.65  6.02
Si 10.97  1.95 -5.08
Si -5.39  7.38 -8.18
Si  1.88  7.38  9.62
Si  5.41  7.31 -8.26
Si  9.04  1.02 -8.26
Si  1.88 11.58  3.68
Si -3.62 -8.57 -8.07
Si -3.57 -10.64 -5.08
Si  3.65 -8.57 -8.07
Si -10.89 -4.37  3.80
Si -7.26 -2.27  9.73
Si 10.91 -4.37  3.80
Si  3.70 -10.64 -5.08
Si  7.28 -2.27  9.73
Si 10.73 -6.14  0.02
Si  7.10 -8.24 -5.92
Si 10.73 -1.95 -5.92
Si  3.47 -10.34  5.95
Si -0.17 -12.44  0.02
Si 10.73  2.25  5.95
Si 10.73  6.44  0.02
Si -3.80 -10.34  5.95
Si -0.17 -4.05 -11.85
Si  3.47 -1.95 11.88
Si  3.47  2.25 -11.85
Si -7.43 -8.24 -5.92
Si  5.27 -11.42  0.74
Si  7.10  8.54  5.95
Si 12.54  1.17  0.74
Si -10.81 -4.02 -5.13
Si -3.80 -1.95 11.88
Si  0.09 -6.12 -11.06
Si -3.80  2.25 -11.85
Si -0.17  4.34 11.88
Si  3.47 10.64 -5.92
Si -11.07 -6.14  0.02
Si -1.86 -1.04 12.48
Si  5.27 -3.02 -11.12
Si  5.41 -9.43  6.55
Si -11.07 -1.95 -5.92
Si -10.86  6.24 -2.22
Si  0.04 12.54 -2.22
Si -0.17 12.74  0.02
Si -5.49  9.45  6.55
Si -10.81  0.18  6.74
Si -7.22  4.14  9.65
Si  1.64 -0.93 12.61
Si -3.80 10.64 -5.92
Si -11.07  2.25  5.95
