500
set: 1530.00  0.00  0.00
Si  0.96 -1.15 -0.43
Si  1.33  1.35 -0.13
Si  1.07  0.36  1.91
Si -1.26 -1.94  0.09
Si -1.29 -1.07  1.99
Si -2.05  1.36 -1.64
Si  0.17  2.15 -2.15
Si -2.41 -1.13 -1.94
Si  1.47 -2.00 -2.23
Si -2.54  2.22  0.15
Si -0.20  3.64  0.09
Si -2.81  1.23  2.19
Si  0.56  1.21  3.71
Si  2.69 -1.86  2.50
Si -0.89 -3.43 -2.15
Si  3.39  1.23  2.19
Si  0.27 -4.22 -0.13
Si  2.59 -3.35  0.15
Si  0.20  1.28 -4.04
Si  3.65  2.22  0.15
Si  3.79 -1.13 -1.94
Si -0.13 -1.87  4.00
Si -2.15 -0.14 -3.98
Si -1.66  0.42  4.23
Si  4.15  1.36 -1.64
Si -3.50 -1.86  2.50
Si  1.72 -1.01 -4.27
Si  2.02  4.42 -0.43
Si  2.52  3.57 -2.23
Si  2.20 -0.99  4.29
Si -3.60 -3.35  0.15
Si -0.23  4.51  1.99
Si -1.35  4.44 -1.94
Si -4.87  1.35 -0.13
Si -2.44  3.72  2.50
Si  4.94 -1.94  0.09
Si -5.24 -1.15 -0.43
Si  2.33 -4.35  2.19
Si  4.91 -1.07  1.99
Si  3.09 -4.22 -1.64
Si -5.13  0.36  1.91
Si -3.11 -4.22 -1.64
Si  0.93  3.71  4.00
Si  0.01 -5.22  1.91
Si  2.41  2.06 -4.56
Si -3.67  3.57 -2.23
Si -4.73 -2.00 -2.23
Si  4.05 -0.14 -3.98
Si -0.50 -4.37  3.71
Si  3.75  3.72  2.50
Si  1.35 -3.51 -4.56
Si -4.00 -0.99  4.29
Si -0.86 -4.30 -4.04
Si -1.65 -1.00 -5.78
Si -4.18  4.42 -0.43
Si -3.86 -4.35  2.19
Si  4.54  0.42  4.23
Si -4.47 -1.01 -4.27
Si -3.78  2.06 -4.56
Si  0.56 -0.21 -6.28
Si -1.69  1.29  6.12
Si -0.95  2.08 -6.08
Si  2.13  5.93  1.91
Si  0.67  2.72  6.04
Si  5.30 -3.43 -2.15
Si -0.39 -2.86  6.04
Si -0.10 -6.73 -0.43
Si -6.03  2.15 -2.15
Si -1.09  5.44 -3.98
Si  2.78  4.57 -4.27
Si -5.63  1.21  3.71
Si  4.84  4.44 -1.94
Si  1.94 -1.99  6.33
Si -2.94  4.58  4.29
Si  5.99  3.64  0.09
Si  2.30  0.50  6.63
Si  6.36  2.15 -2.15
Si  3.25  4.58  4.29
Si  2.92  1.21 -6.36
Si -3.41  4.57 -4.27
Si -0.99  6.93 -1.64
Si -2.71 -5.15  4.23
Si -3.28  1.21 -6.36
Si  7.15 -1.15 -0.43
Si -5.93 -4.22 -0.13
Si -2.01 -3.49 -6.08
Si -2.35 -6.64  1.99
Si  2.38  6.92 -0.13
Si -6.00  1.28 -4.04
Si -1.75  6.80  2.19
Si -6.40  3.64  0.09
Si -0.60  6.00  4.23
Si -0.59  4.57 -5.78
Si  4.54 -1.00 -5.78
Si -4.07  5.93  1.91
Si  2.73 -6.71 -1.94
Si  6.07 -1.87  4.00
Si  7.26  0.36  1.91
Si  3.48 -5.15  4.23
Si -4.84 -3.51 -4.56
Si  2.99 -5.71 -3.98
Si -5.27  3.71  4.00
Si  7.52  1.35 -0.13
Si -3.21 -5.71 -3.98
Si  6.39  1.28 -4.04
Si -7.45 -1.94  0.09
Si -3.90  0.50  6.63
Si  4.51  1.29  6.12
Si -6.32 -1.87  4.00
Si  6.46 -4.22 -0.13
Si  5.96  4.51  1.99
Si -3.47 -6.71 -1.94
Si  6.76  1.21  3.71
Si -7.48 -1.07  1.99
Si -2.32 -7.51  0.09
Si  2.99  3.59  6.33
Si  0.67 -6.58 -4.27
Si -4.26 -1.99  6.33
Si  1.62  6.78  3.71
Si -3.81  6.92 -0.13
Si  0.41 -7.58 -2.23
Si  1.14 -6.57  4.29
Si  3.85 -6.64  1.99
Si  1.86 -4.36 -6.36
Si -1.49  7.80  0.15
Si -3.20  3.59  6.33
Si  5.33 -4.30 -4.04
Si -2.74 -4.28  6.12
Si  1.64 -7.43  2.50
Si  1.25  6.85 -4.04
Si  5.70 -4.37  3.71
Si -6.43  4.51  1.99
Si  1.22  7.72 -2.15
Si -0.89 -2.01  7.84
Si -7.09 -3.43 -2.15
Si  4.18 -3.49 -6.08
Si -0.53  0.49  8.14
Si  7.66 -2.00 -2.23
Si  3.45 -4.28  6.12
Si  0.59 -1.08 -8.18
Si  5.24  2.08 -6.08
Si -6.18 -5.22  1.91
Si  6.21 -5.22  1.91
Si  1.62  5.36 -6.28
Si  4.45  6.80  2.19
Si  1.24 -5.07  6.63
Si -5.63 -0.21 -6.28
Si  3.88 -7.51  0.09
Si  5.11  5.44 -3.98
Si -8.24  1.36 -1.64
Si -1.19 -7.44  4.00
Si -0.49 -5.79 -6.28
Si  0.16  3.57  7.84
Si -5.52  2.72  6.04
Si -1.75 -2.50 -8.12
Si -0.69  3.08 -8.12
Si  1.80  1.37  8.42
Si -6.69 -4.37  3.71
Si  5.20  6.93 -1.64
Si -4.33 -4.36 -6.36
Si  5.81 -2.86  6.04
Si -8.60 -1.13 -1.94
Si -7.85  0.42  4.23
Si -7.55  4.44 -1.94
Si  7.12  3.71  4.00
Si -4.58  6.78  3.71
Si -8.74  2.22  0.15
Si -2.05  2.78  8.36
Si  7.92 -1.01 -4.27
Si  1.54 -8.93  0.15
Si -4.56 -7.43  2.50
Si  6.10 -6.73 -0.43
Si  4.71  7.80  0.15
Si  2.81 -0.30 -8.70
Si -2.71 -6.58 -5.78
Si -3.02  2.21 -8.40
Si -7.06 -4.30 -4.04
Si -0.63  6.87  6.12
Si -6.29 -6.73 -0.43
Si  5.60  6.00  4.23
Si  6.76 -0.21 -6.28
Si -8.34 -0.14 -3.98
Si  3.18  2.21 -8.40
Si  0.86  9.21  0.09
Si  5.60  4.57 -5.78
Si  2.12 -3.37 -8.40
Si -2.73  7.64 -4.56
Si -5.06 -6.57  4.29
Si  8.21  4.42 -0.43
Si -3.39 -0.30 -8.70
Si  3.09 -2.79  8.36
Si -9.00  1.23  2.19
Si -3.11 -2.79  8.36
Si -4.94  6.85 -4.04
Si -6.58 -2.86  6.04
Si  8.79 -3.35  0.15
Si  8.89 -1.86  2.50
Si  3.49 -6.58 -5.78
Si -2.84  6.08  6.63
Si -4.97  7.72 -2.15
Si -4.58  5.36 -6.28
Si  0.74 -4.21  8.42
Si -1.95 -9.00 -2.15
Si  8.39 -0.99  4.29
Si  1.65  4.49 -8.18
Si  7.55 -3.51 -4.56
Si  6.87  2.72  6.04
Si  3.47  7.64 -4.56
Si -2.22  6.79 -6.36
Si  4.45 -2.50 -8.12
Si  3.35  6.08  6.63
Si -4.40  1.37  8.42
Si -5.53 -6.58 -4.27
Si -7.15  2.08 -6.08
Si  5.30 -2.01  7.84
Si  8.72  3.57 -2.23
Si -4.96 -5.07  6.63
Si -1.39  9.29  2.50
Si -1.58 -5.08  8.14
Si -8.64  3.72  2.50
Si  4.14  2.78  8.36
Si -2.62  9.15 -2.23
Si  0.10  7.66 -6.08
Si -5.79 -7.58 -2.23
Si -7.85 -1.00 -5.78
Si  8.53 -4.35  2.19
Si  5.01 -7.44  4.00
Si -0.79 -9.80 -0.13
Si  0.88 -7.56  6.33
Si  9.59  1.23  2.19
Si -7.29  5.44 -3.98
Si -4.08 -3.37 -8.40
Si  5.67  0.49  8.14
Si  8.61  2.06 -4.56
Si -5.60 -1.08 -8.18
Si -6.79  6.00  4.23
Si -6.79  4.57 -5.78
Si -7.88  1.29  6.12
Si -4.66 -8.93  0.15
Si  3.58  9.15 -2.23
Si  9.85  2.22  0.15
Si  3.98  6.79 -6.36
Si -7.19  6.93 -1.64
Si  2.03 -9.79 -1.64
Si -0.20  2.21 -9.91
Si  0.53  6.07  8.14
Si  0.30 -9.09 -4.56
Si  4.25 -9.00 -2.15
Si -9.70 -1.86  2.50
Si -0.29 10.02 -1.94
Si -0.78 -0.50 10.18
Si -0.56 -0.28 -10.21
Si  9.98 -1.13 -1.94
Si  1.27 -9.92  2.19
Si  5.70 -5.79 -6.28
Si  5.50  3.08 -8.12
Si  6.60 -7.58 -2.23
Si  1.99  9.28  4.00
Si  0.83 10.08  1.99
Si  9.29 -4.22 -1.64
Si -9.30 -4.22 -1.64
Si -9.80 -3.35  0.15
Si -4.54  4.49 -8.18
Si  8.32  5.93  1.91
Si  1.73  8.29  6.04
Si  6.86 -6.58 -4.27
Si -2.33  5.28 -8.70
Si  3.07 10.00 -0.43
Si -1.44 -8.43  6.04
Si -3.12 10.00 -0.43
Si  8.13 -1.99  6.33
Si -6.03  3.57  7.84
Si -1.25 -3.36 -9.91
Si -0.46 -6.66 -8.18
Si 10.34  1.36 -1.64
Si -6.72  0.49  8.14
Si  1.54  0.37 10.46
Si  1.75 -5.87 -8.70
Si  4.61 -5.08  8.14
Si -5.34  9.21  0.09
Si  6.79 -1.08 -8.18
Si -7.94  6.80  2.19
Si  6.36  3.57  7.84
Si -1.55 -9.94  3.71
Si -9.87  3.57 -2.23
Si  7.33 -6.57  4.29
Si  5.57  6.87  6.12
Si  4.81  9.29  2.50
Si -7.09 -2.01  7.84
Si -4.16 -9.79 -1.64
Si  0.96 -2.57 -10.42
Si  8.49  0.50  6.63
Si -8.21 -3.49 -6.08
Si -1.92 -9.87 -4.04
Si -6.69 -5.79 -6.28
Si  3.06 -1.92 10.26
Si -5.45 -4.21  8.42
Si  3.87  5.28 -8.70
Si -3.14 -1.92 10.26
Si  7.45  6.85 -4.04
Si  9.95  3.72  2.50
Si  7.42  7.72 -2.15
Si  8.98  4.57 -4.27
Si -2.88 -1.15 -10.50
Si -7.68  7.80  0.15
Si -4.21  9.28  4.00
Si 10.24 -0.14 -3.98
Si  7.81  6.78  3.71
Si -8.54 -6.64  1.99
Si -1.05 -10.79  1.91
Si  8.58  6.92 -0.13
Si  2.02  3.00 -10.42
Si  3.32 -1.15 -10.50
Si  7.83 -7.43  2.50
Si -1.95 -7.58  7.84
Si -6.89  3.08 -8.12
Si -9.14  4.58  4.29
Si -2.08  3.65 10.26
Si -10.19 -0.99  4.29
Si -8.91 -5.15  4.23
Si  0.84 -2.71 10.77
Si -11.06  1.35 -0.13
Si  8.06 -4.36 -6.36
Si -9.98  2.06 -4.56
Si -10.06 -4.35  2.19
Si  7.43 -5.07  6.63
Si  9.12  1.21 -6.36
Si -1.88 10.16  4.29
Si -4.47  8.29  6.04
Si  5.41 -9.80 -0.13
Si -5.32 -7.56  6.33
Si -7.38 -7.44  4.00
Si -2.36 10.14 -4.27
Si  2.86  6.94  8.42
Si -10.38  4.42 -0.43
Si -4.92 -9.92  2.19
Si  1.90  2.86 10.77
Si 11.13 -1.94  0.09
Si -10.93 -2.00 -2.23
Si 11.10 -1.07  1.99
Si  8.93 -6.71 -1.94
Si -3.07 -9.07 -6.08
Si -2.15  9.16  6.33
Si  9.45  4.58  4.29
Si -8.51 -7.51  0.09
Si  3.13 -9.07 -6.08
Si  7.82  5.36 -6.28
Si  0.27  5.08 10.18
Si -4.44 -5.87 -8.70
Si  4.75 -8.43  6.04
Si -3.34  6.94  8.42
Si -6.82  6.87  6.12
Si -4.66  0.37 10.46
Si -9.61  4.57 -4.27
Si -9.47  1.21 -6.36
Si -11.32  0.36  1.91
Si  4.28 -9.87 -4.04
Si -11.43 -1.15 -0.43
Si  0.50  5.30 -10.21
Si -6.09  7.66 -6.08
Si  9.19 -5.71 -3.98
Si -10.67 -1.01 -4.27
Si -1.82  4.43 -10.50
Si  5.41 -0.50 10.18
Si 10.73  0.42  4.23
Si  4.94 -3.36 -9.91
Si  4.64 -9.94  3.71
Si -5.37 10.08  1.99
Si  7.05  9.21  0.09
Si -1.96  7.78 -8.40
Si -4.18  3.00 -10.42
Si -5.66  6.07  8.14
Si  6.30  7.66 -6.08
Si -7.95 -2.50 -8.12
Si  4.11  3.65 10.26
Si -8.94 -4.28  6.12
Si  3.84 10.14 -4.27
Si  5.64 -0.28 -10.21
Si  0.46 10.15 -5.78
Si  8.00  1.37  8.42
Si  6.94 -4.21  8.42
Si  0.48 -5.20 10.46
Si -9.40 -5.71 -3.98
Si  4.25 -7.58  7.84
Si -0.03 11.01 -3.98
Si  9.19  3.59  6.33
Si  9.68 -5.15  4.23
Si -5.90 -9.09 -4.56
Si  2.42 -10.73  4.23
Si -2.81 -8.07 -8.12
Si  5.90 10.02 -1.94
Si  6.00  2.21 -9.91
Si  7.73 -8.93  0.15
Si  0.81 -9.94 -6.36
Si  4.31 10.16  4.29
Si  2.40 -9.86  6.12
Si  4.05  9.16  6.33
Si -0.99  8.36  8.36
Si  0.36  8.65 -8.12
Si -1.61 -5.85 -10.21
Si -9.40  3.59  6.33
Si -9.66 -6.71 -1.94
Si  3.39 -8.07 -8.12
Si -4.30  2.86 10.77
Si -5.24 -2.57 -10.42
Si -1.84 -6.08 10.18
Si -6.39  2.21 -9.91
Si  5.73 -6.66 -8.18
Si  2.03 -8.37  8.36
Si -10.27  5.93  1.91
Si -6.98 -9.80 -0.13
Si -3.01 11.51  1.91
Si -1.29  0.35 11.98
Si 11.04  4.44 -1.94
Si  6.49 -9.09 -4.56
Si -8.25  2.78  8.36
Si -10.10  0.50  6.63
Si  3.18 11.51  1.91
Si -6.49 10.02 -1.94
Si  1.22  9.14  7.84
Si  5.15 -10.79  1.91
Si  1.93 -11.29 -3.98
Si -3.77 -10.73  4.23
Si  7.07 -7.56  6.33
Si -10.01  6.92 -0.13
Si  6.73  6.07  8.14
Si 11.50 -3.43 -2.15
Si  7.85  4.49 -8.18
Si  9.65 -4.28  6.12
Si  4.37  4.43 -10.50
Si 10.04 -6.64  1.99
Si  4.24  7.78 -8.40
Si -3.80 -9.86  6.12
Si 10.74 -1.00 -5.78
Si -6.75 -0.28 -10.21
Si -7.58  9.29  2.50
Si -0.30  0.72 -12.25
Si  8.32 -3.37 -8.40
Si  2.60  5.95 10.46
Si  1.06 -8.94 -8.40
Si -5.35 -2.71 10.77
Si -8.14 -9.00 -2.15
Si  0.46 11.57  4.23
Si -7.78 -5.08  8.14
Si -6.98 -0.50 10.18
Si -1.16 -12.30 -0.43
Si -10.46 -1.99  6.33
Si 10.71  1.29  6.12
Si  7.02 10.08  1.99
Si -11.04 -3.51 -4.56
Si -11.83  1.21  3.71
Si -6.66 -6.66 -8.18
Si -8.90 -6.58 -5.78
Si  9.01 -0.30 -8.70
Si 10.38 -3.49 -6.08
Si -4.17 -8.37  8.36
Si -8.41  6.79 -6.36
Si  0.18 -10.65  6.63
Si  1.67 -12.28 -1.94
Si -3.60  5.95 10.46
Si 10.07 -7.51  0.09
Si -0.69 12.38  2.19
Si -12.22  2.15 -2.15
Si -8.92  7.64 -4.56
Si  7.47 -9.92  2.19
Si  0.07 12.51 -1.64
Si  4.58 -5.85 -10.21
Si  4.36 -6.08 10.18
Si  0.86  7.79 -9.91
Si -0.92  2.85 12.27
Si -9.21  2.21 -8.40
Si  2.05  2.13 -12.31
Si  2.26 -6.72 -10.50
Si  2.79 -12.22  1.99
Si -11.46  3.71  4.00
Si  0.34 -1.85 12.56
Si -4.26 -11.29 -3.98
Si 12.19  3.64  0.09
Si -1.98 -2.72 12.27
Si -9.04  6.08  6.63
Si  9.37  2.21 -8.40
Si  2.69 -0.43 12.50
Si -2.75 12.50 -0.13
Si  9.28 -2.79  8.36
Si -2.62 -0.15 -12.54
Si -9.30 -2.79  8.36
Si 10.64  6.80  2.19
Si -5.92  5.08 10.18
Si  0.99 -3.44 -12.31
Si -5.70  5.30 -10.21
Si -3.40 -12.22  1.99
Si -12.12 -4.22 -0.13
Si -7.45 -3.36 -9.91
Si  2.00 -7.50 10.26
Si  0.08 -12.14  4.29
Si -7.64 -8.43  6.04
Si -0.39 -12.16 -4.27
Si -8.81  9.15 -2.23
Si  8.23 -9.79 -1.64
Si  2.68 10.94 -6.28
