500
set: 693.00  0.00  0.00
Si  0.41 -0.85 -0.31
Si  0.53  1.10  1.31
Si -1.63 -1.40 -1.15
Si  1.84  0.45 -1.95
Si -2.00  1.30  1.54
Si -2.81  0.48 -0.80
Si  1.65 -2.67  0.56
Si  1.40  2.95  0.39
Si  1.40  0.39  3.29
Si  1.05 -1.96  3.24
Si  3.51  1.93  0.80
Si  1.36  3.07 -2.41
Si -1.72 -1.61 -3.48
Si -1.01  2.66 -3.12
Si  4.18  0.65 -0.99
Si -2.23 -3.74 -0.15
Si -3.10  2.84 -1.59
Si  0.23 -4.66  0.02
Si -1.19  0.51 -4.50
Si -2.35  3.60  1.89
Si -3.50  0.03  3.21
Si  2.60 -0.42 -3.99
Si -0.03  4.56  1.56
Si -4.92 -0.82 -0.53
Si -3.42 -3.20  1.89
Si  3.83  1.21  3.23
Si  4.01 -3.26  0.79
Si  1.91 -2.68 -4.22
Si -0.19 -3.33 -4.24
Si -2.94 -2.40  3.88
Si -0.49 -3.34  4.41
Si  0.88  0.64 -5.53
Si  1.15  2.88 -4.76
Si  0.88  0.64  5.66
Si -4.30  4.00  0.14
Si  0.98  5.51 -1.89
Si  2.64 -4.50 -2.79
Si -3.72 -2.67 -3.85
Si  5.31 -0.38  2.85
Si  0.98 -5.68 -1.89
Si -3.04  1.27  5.15
Si -5.57 -2.13  1.39
Si  5.62 -2.13  1.39
Si  4.65  4.06  0.20
Si  6.26 -0.82 -0.53
Si -5.34  2.30 -2.55
Si  5.57 -2.02 -2.44
Si  2.96 -2.99  4.88
Si -3.78 -5.11 -1.06
Si -5.62 -2.02 -2.44
Si -2.54  3.68  4.66
Si  4.80 -0.70 -4.36
Si  0.23  6.53  0.02
Si -5.88 -0.38  2.85
Si -0.76 -5.45 -3.54
Si -3.13 -4.83 -3.16
Si  4.49  4.29 -2.26
Si  0.25 -5.51  3.78
Si  5.84  2.30 -2.55
Si -0.76  5.74 -3.54
Si -0.03 -6.62  1.56
Si -1.19  0.51  6.68
Si  0.25  5.67  3.78
Si  5.07 -4.32 -1.57
Si -3.04  1.27 -6.04
Si  2.71 -5.09  3.78
Si  4.85 -1.63  4.69
Si  4.17 -5.38  1.81
Si -7.01  0.65 -0.99
Si  1.15  2.88  6.43
Si -0.69  4.51 -5.54
Si -3.78  6.07 -1.06
Si -5.31  1.32 -4.75
Si  4.77  2.78  4.71
Si -0.69  4.51  5.65
Si  2.84  4.11  5.41
Si  4.17  5.80  1.81
Si -0.49 -3.34 -6.78
Si  2.96 -2.99 -6.31
Si -4.55 -3.10  5.22
Si  2.84  4.11 -5.78
Si -6.12 -4.32 -1.57
Si  2.60 -0.42  7.20
Si  2.71  6.09  3.78
Si  5.88  1.32 -4.75
Si -6.54  4.06  0.20
Si  1.91 -2.68  6.96
Si -0.19 -3.33  6.95
Si  2.64  6.69 -2.79
Si -4.83 -5.43  2.63
Si -3.13  6.36 -3.16
Si -6.39 -0.70 -4.36
Si -2.23  7.45 -0.15
Si -2.54  3.68 -6.53
Si -7.18 -3.26  0.79
Si -7.67  1.93  0.80
Si -4.83  5.76  2.63
Si  6.89  4.00  0.14
Si  4.04  5.54 -4.13
Si -4.75  4.58  4.55
Si  1.40  0.39 -7.90
Si -6.34 -1.63  4.69
Si -1.72 -1.61  7.71
Si  4.04 -5.65 -4.13
Si -4.55 -3.10 -5.97
Si -7.35  1.21  3.23
Si -2.35 -7.59  1.89
Si -2.94 -2.40 -7.31
Si  1.05 -1.96 -7.95
Si  4.85 -1.63 -6.50
Si -6.70  4.29 -2.26
Si  7.69  0.03  3.21
Si  1.40 -8.23  0.39
Si  4.80 -0.70  6.83
Si -4.30 -7.19  0.14
Si  8.38  0.48 -0.80
Si -6.42  2.78  4.71
Si -5.31  1.32  6.44
Si  4.77  2.78 -6.47
Si  4.65 -7.13  0.20
Si  4.49 -6.90 -2.26
Si -1.01  2.66  8.07
Si  1.36 -8.12 -2.41
Si  7.77 -3.20  1.89
Si -3.72 -2.67  7.33
Si -5.02 -5.09 -4.87
Si  5.07  6.87 -1.57
Si  1.65  8.52  0.56
Si -0.69 -6.68 -5.54
Si  8.09  2.84 -1.59
Si -3.50  0.03 -7.98
Si  6.36 -5.43  2.63
Si -0.69 -6.68  5.65
Si  7.46 -2.67 -3.85
Si  5.88  1.32  6.44
Si -3.42  7.99  1.89
Si  3.83  1.21 -7.96
Si  4.01  7.93  0.79
Si -0.19  7.86 -4.24
Si  6.36  5.76  2.63
Si  6.64 -3.10  5.22
Si -0.49  7.85  4.41
Si -7.02 -5.38  1.81
Si -3.10 -8.35 -1.59
Si  7.41 -5.11 -1.06
Si  6.43  4.58  4.55
Si -1.01 -8.53 -3.12
Si -2.54 -7.51  4.66
Si -6.34 -1.63 -6.50
Si  0.25 -5.51 -7.41
Si -5.02  6.10 -4.87
Si -7.02  5.80  1.81
Si -4.75 -6.61  4.55
Si  0.25  5.67 -7.41
Si -6.12  6.87 -1.57
Si  2.84 -7.08  5.41
Si -4.75  4.58 -6.64
Si  6.17 -5.09 -4.87
Si -6.39 -0.70  6.83
Si  2.71 -5.09 -7.41
Si  1.36  3.07  8.77
Si  9.19  1.30  1.54
Si -0.76 -5.45  7.65
Si  8.25 -2.40  3.88
Si  1.84  0.45  9.24
Si  6.64 -3.10 -5.97
Si -8.59 -0.42 -3.99
Si -6.42  2.78 -6.47
Si -5.02 -5.09  6.32
Si -9.35  0.45 -1.95
Si  2.84 -7.08 -5.78
Si -0.76  5.74  7.65
Si  7.41  6.07 -1.06
Si  1.15 -8.31 -4.76
Si -6.54 -7.13  0.20
Si  1.91  8.51 -4.22
Si  8.95 -3.74 -0.15
Si  8.15  1.27  5.15
Si  9.56 -1.40 -1.15
Si  8.84  3.60  1.89
Si  4.04  5.54  7.05
Si  1.05  9.23  3.24
Si -3.13 -4.83  8.03
Si -6.70 -6.90 -2.26
Si  2.64 -4.50  8.40
Si  5.31 -0.38 -8.34
Si  4.04 -5.65  7.05
Si  8.06 -4.83 -3.16
Si -9.54 -2.67  0.56
Si  3.51 -9.26  0.80
Si -2.00  1.30 -9.65
Si  6.17  6.10 -4.87
Si -7.15  5.54 -4.13
Si  0.53  1.10 -9.88
Si  6.89 -7.19  0.14
Si  2.71  6.09 -7.41
Si  2.96  8.20  4.88
Si -1.63  9.79 -1.15
Si -7.15 -5.65 -4.13
Si -8.23 -2.99  4.88
Si -2.94  8.79  3.88
Si -8.54 -4.50 -2.79
Si -3.72  8.52 -3.85
Si -5.02  6.10  6.32
Si  0.53 -10.09  1.31
Si  6.17 -5.09  6.32
Si -2.00 -9.88  1.54
Si -5.88 -0.38 -8.34
Si  9.47 -1.61 -3.48
Si  8.15  1.27 -6.04
Si -9.79  2.95  0.39
Si -2.35  3.60 -9.29
Si -1.63 -1.40 10.04
Si -2.54 -7.51 -6.53
Si  6.43 -6.61  4.55
Si  6.43  4.58 -6.64
Si -1.72  9.58 -3.48
Si -9.79  0.39  3.29
Si  0.41 10.34 -0.31
Si -0.49  7.85 -6.78
Si -3.42 -3.20 -9.30
Si -5.34  2.30  8.63
Si -3.10  2.84  9.60
Si  8.65  3.68  4.66
Si -0.19  7.86  6.95
Si -4.75 -6.61 -6.64
Si -9.28 -2.68 -4.22
Si  1.15 -8.31  6.43
Si  5.57 -2.02  8.75
Si -9.83  3.07 -2.41
Si -8.47 -5.09  3.78
Si -5.62 -2.02  8.75
Si -4.55  8.09  5.22
Si -0.03  4.56 -9.63
Si  5.84  2.30  8.63
Si -5.34 -8.89 -2.55
Si -3.13  6.36  8.03
Si -7.18  7.93  0.79
Si -5.57  9.06  1.39
Si  6.17  6.10  6.32
Si  8.06  6.36 -3.16
Si  5.62  9.06  1.39
Si  4.77 -8.40  4.71
Si  2.96  8.20 -6.31
Si -8.35  4.11  5.41
Si -2.81  0.48 10.39
Si -8.23 -2.99 -6.31
Si -10.66  1.10  1.31
Si  7.46 -2.67  7.33
Si -10.13 -1.96  3.24
Si -10.78 -0.85 -0.31
Si  0.98  5.51  9.30
Si  4.49  4.29  8.93
Si -7.35  1.21 -7.96
Si  0.41 -0.85 10.88
Si  5.84 -8.89 -2.55
Si  0.98 -5.68  9.30
Si -8.35  4.11 -5.78
Si 10.18  2.66 -3.12
Si 10.00  0.51 -4.50
Si  5.57  9.16 -2.44
Si -5.62  9.16 -2.44
Si -4.55  8.09 -5.97
Si  4.18  0.65 10.20
Si  2.64  6.69  8.40
Si  1.84 -10.73 -1.95
Si  7.69  0.03 -7.98
Si  1.65 -2.67 -10.63
Si -2.81 -10.71 -0.80
Si -8.47  6.09  3.78
Si  3.51  1.93 -10.38
Si  1.91  8.51  6.96
Si  3.83 -9.98  3.23
Si -8.54  6.69 -2.79
Si -8.59 -0.42  7.20
Si -4.83 -5.43 -8.55
Si  8.25 -2.40 -7.31
Si  1.40  2.95 -10.80
Si  7.77  7.99  1.89
Si  6.43 -6.61 -6.64
Si  1.40 -10.80  3.29
Si  4.18 -10.54 -0.99
Si -4.83  5.76 -8.55
Si  8.65  3.68 -6.53
Si -5.57 -2.13 -9.80
Si -7.15  5.54  7.05
Si -10.04  2.88 -4.76
Si -4.92 10.37 -0.53
Si  5.62 -2.13 -9.80
Si -7.15 -5.65  7.05
Si  0.41 -0.85 -11.50
Si -3.04 -9.91  5.15
Si -6.42 -8.40  4.71
Si  4.17 -5.38 -9.38
Si  4.01 -3.26 -10.40
Si 11.59 -0.85 -0.31
Si  4.77 -8.40 -6.47
Si -1.19 -10.68 -4.50
Si  8.95  7.45 -0.15
Si -0.03 -6.62 -9.63
Si  6.64  8.09  5.22
Si  4.85  9.55  4.69
Si  5.07 -4.32  9.62
Si -10.31  0.64 -5.53
Si  8.09 -8.35 -1.59
Si -10.20  5.51 -1.89
Si -4.92 -0.82 10.66
Si  2.60 10.77 -3.99
Si -10.31  0.64  5.66
Si -1.01 -8.53  8.07
Si  4.17  5.80 -9.38
Si -2.94  8.79 -7.31
Si  8.84 -7.59  1.89
Si -10.20 -5.68 -1.89
Si 11.71  1.10  1.31
Si -3.72  8.52  7.33
Si -2.23 -3.74 11.03
Si -9.28 -2.68  6.96
Si -10.96 -4.66  0.02
Si  0.88 -10.54 -5.53
Si  1.84 11.64 -1.95
Si -6.70  4.29  8.93
Si -3.78 -5.11 10.13
Si  6.36 -5.43 -8.55
Si  7.46  8.52 -3.85
Si -3.04 -9.91 -6.04
Si  0.88 -10.54  5.66
Si  1.40  2.95 11.57
Si -2.81 11.67 -0.80
Si  1.36 -8.12  8.77
Si 10.00  0.51  6.68
Si 10.70 -3.34  4.41
Si  0.41 -12.03 -0.31
Si  6.64  8.09 -5.97
Si -7.67 -9.26  0.80
Si  0.23 -4.66 -11.17
Si  6.36  5.76 -8.55
Si  1.40 11.58  3.29
Si  6.26 10.37 -0.53
Si -3.50 -11.16  3.21
Si  0.23 -4.66 11.21
Si  4.49 -6.90  8.93
Si -2.23 -3.74 -11.34
Si 11.15  4.56  1.56
Si  1.65 -2.67 11.74
Si -5.31 -9.86 -4.75
Si -3.50 11.21  3.21
Si -6.12 -4.32  9.62
Si -8.35 -7.08  5.41
Si -11.22  4.56  1.56
Si -2.35 -7.59 -9.29
Si  1.05  9.23 -7.95
Si 10.99 -3.33 -4.24
Si -10.04  2.88  6.43
Si 10.42 -5.45 -3.54
Si  9.47 -1.61  7.71
Si -2.81  0.48 -11.99
Si 11.41 -4.66  0.02
Si  4.80 10.49 -4.36
Si -8.47 -5.09 -7.41
Si  8.06 -4.83  8.03
Si  8.65 -7.51  4.66
Si  0.53 12.29  1.31
Si  5.31 10.81  2.85
Si -8.35 -7.08 -5.78
Si -6.34  9.55  4.69
Si  6.26 -0.82 10.66
Si -7.01  0.65 10.20
Si -3.78  6.07 10.13
Si -6.42 -8.40 -6.47
Si 10.42  5.74 -3.54
Si -1.72  9.58  7.71
Si  5.88 -9.86 -4.75
Si -4.30  4.00 -11.04
Si -1.63 -1.40 -12.34
Si  4.85  9.55 -6.50
Si  7.77 -3.20 -9.30
Si  2.60 -11.61 -3.99
Si  0.53  1.10 12.50
Si -9.79  0.39 -7.90
Si  4.18 11.84 -0.99
Si -11.38 -3.33 -4.24
Si -1.19 11.70 -4.50
Si  4.65  4.06 -10.98
Si -8.23  8.20  4.88
Si -5.88 10.81  2.85
Si  3.51  1.93 11.99
Si -1.19 -10.68  6.68
Si  8.25  8.79  3.88
Si -7.01 -10.54 -0.99
Si 10.50  4.51 -5.54
Si -3.42  7.99 -9.30
Si -4.92 -0.82 -11.72
Si -1.63 -12.58 -1.15
Si -2.00 12.49  1.54
Si 10.50  4.51  5.65
Si -10.96  6.53  0.02
Si -4.30  4.00 11.33
Si -8.54 -4.50  8.40
Si -9.54  8.52  0.56
Si -8.47  6.09 -7.41
Si -9.79 -8.23  0.39
Si -7.35 -9.98  3.23
Si 12.24 -1.96  3.24
Si -10.94 -5.51  3.78
Si  5.07  6.87  9.62
Si -12.20  2.66 -3.12
Si  8.09  2.84  9.60
Si  4.18  0.65 -12.17
Si -10.94  5.67  3.78
Si -7.02 -5.38 -9.38
Si -11.68 -3.34  4.41
Si -5.31 -9.86  6.44
Si 12.58  2.95  0.39
Si  0.23  6.53 -11.17
Si -12.82 -1.40 -1.15
Si -2.00  1.30 12.72
Si  4.65  4.06 11.39
Si  0.23  6.53 11.21
Si -9.83 -8.12 -2.41
Si -4.92 -12.01 -0.53
Si 12.58  0.39  3.29
Si -10.13 -1.96 -7.95
Si  8.06  6.36  8.03
Si -6.39 10.49 -4.36
Si  4.01 -3.26 11.97
Si  5.31 -11.57  2.85
Si -7.18 -3.26 -10.40
Si -7.67  1.93 -10.38
Si 11.15 -6.62  1.56
Si -7.02  5.80 -9.38
Si  0.88 11.83 -5.53
Si 10.70 -3.34 -6.78
Si -3.10 -8.35  9.60
Si -6.70 -6.90  8.93
Si -11.22 -6.62  1.56
Si 12.84 -2.67  0.56
Si 12.55  3.07 -2.41
Si  0.88 11.83  5.66
Si 11.41  6.53  0.02
Si -9.35  0.45  9.24
Si  5.88 -9.86  6.44
Si -6.34  9.55 -6.50
Si  8.65 -7.51 -6.53
Si -12.38  0.51 -4.50
Si 13.03  0.45 -1.95
Si  2.60 10.77  7.20
Si -8.23  8.20 -6.31
Si 11.44 -5.51  3.78
Si 10.18  2.66  8.07
Si  1.84  0.45 -13.13
Si -9.28  8.51 -4.22
Si -5.88 -11.57  2.85
Si 12.06  0.64 -5.53
Si -6.12  6.87  9.62
Si  6.26 -0.82 -11.72
Si 11.44  5.67  3.78
Si  8.84  3.60 -9.29
Si  3.83 -9.98 -7.96
Si 12.06  0.64  5.66
Si -13.19  1.30  1.54
Si  8.38  0.48 10.39
Si  3.83 12.39  3.23
Si -1.72 -12.80 -3.48
Si  9.19  1.30 -9.65
Si  4.80 10.49  6.83
Si -6.54  4.06 -10.98
Si 10.99 -3.33  6.95
Si -3.10  2.84 -12.77
Si  1.40 -10.80 -7.90
Si -12.91 -1.61 -3.48
Si  7.46  8.52  7.33
Si 12.17  5.51 -1.89
Si -5.34 -8.89  8.63
Si -2.23  7.45 11.03
Si -9.83  3.07  8.77
Si -1.19 11.70  6.68
Si 12.34  2.88 -4.76
Si  4.80 -11.88 -4.36
Si -0.03  4.56 12.75
Si  7.41 -5.11 10.13
Si  6.26 -12.01 -0.53
Si 12.17 -5.68 -1.89
Si  1.05 -13.14  3.24
Si  9.19 -9.88  1.54
Si  3.51 13.12  0.80
Si -11.95 -5.45 -3.54
Si  6.89  4.00 -11.04
Si  8.38 -10.71 -0.80
Si 10.50 -6.68 -5.54
Si 10.18 -8.53 -3.12
Si  1.40 -8.23 -10.80
Si 10.50 -6.68  5.65
Si  4.01  7.93 -10.40
Si  5.84 -8.89  8.63
Si -11.95  5.74 -3.54
Si -8.54  6.69  8.40
Si  1.65  8.52 -10.63
Si  9.56  9.79 -1.15
Si -11.38 -3.33  6.95
