500
set: 88.00  0.00  0.00
Si  0.00  0.00  0.00
Si -2.47  0.00  0.00
Si  2.47  0.00  0.00
Si  0.04 -0.24 -2.50
Si -0.04  0.24  2.50
Si  1.18 -2.27  0.00
Si -1.18  2.27  0.00
Si -1.30 -2.27  0.00
Si  1.30  2.27  0.00
Si -1.14  2.02 -2.50
Si  1.14 -2.02  2.50
Si -1.34 -2.02  2.50
Si  1.34  2.02 -2.50
Si  2.44  0.24  2.50
Si -2.44 -0.24 -2.50
Si  2.51 -0.24 -2.50
Si -2.51  0.24  2.50
Si -1.21  2.51  2.50
Si  1.21 -2.51 -2.50
Si  1.26  2.51  2.50
Si -1.26 -2.51 -2.50
Si -3.65  2.27  0.00
Si  3.65 -2.27  0.00
Si  3.77  2.27  0.00
Si -3.77 -2.27  0.00
Si  0.12  4.53  0.00
Si -0.12 -4.53  0.00
Si  3.61 -2.02  2.50
Si -3.61  2.02 -2.50
Si -4.95  0.00  0.00
Si  4.95  0.00  0.00
Si  0.16  4.29 -2.50
Si -0.16 -4.29  2.50
Si -3.81 -2.02  2.50
Si  3.81  2.02 -2.50
Si  0.08 -0.48 -5.00
Si -0.08  0.48  5.00
Si -2.35  4.53  0.00
Si  2.35 -4.53  0.00
Si  3.69 -2.51 -2.50
Si -3.69  2.51  2.50
Si -3.73 -2.51 -2.50
Si  3.73  2.51  2.50
Si -2.60 -4.53  0.00
Si  2.60  4.53  0.00
Si  0.09  4.78  2.50
Si -0.09 -4.78 -2.50
Si  1.10 -1.78  5.00
Si -1.10  1.78 -5.00
Si -2.31  4.29 -2.50
Si  2.31 -4.29  2.50
Si -1.38 -1.78  5.00
Si  1.38  1.78 -5.00
Si  4.91  0.24  2.50
Si -4.91 -0.24 -2.50
Si -2.40 -0.48 -5.00
Si  2.40  0.48  5.00
Si  4.98 -0.24 -2.50
Si -4.98  0.24  2.50
Si -2.63 -4.29  2.50
Si  2.63  4.29 -2.50
Si  2.55 -0.48 -5.00
Si -2.55  0.48  5.00
Si -1.22 -2.75 -5.00
Si  1.22  2.75  5.00
Si -1.25  2.75  5.00
Si  1.25 -2.75 -5.00
Si -2.39  4.78  2.50
Si  2.39 -4.78 -2.50
Si -2.56 -4.78 -2.50
Si  2.56  4.78  2.50
Si  3.57 -1.78  5.00
Si -3.57  1.78 -5.00
Si -0.20 -4.05  5.00
Si  0.20  4.05 -5.00
Si  6.12 -2.27  0.00
Si -6.12  2.27  0.00
Si  3.85  1.78 -5.00
Si -3.85 -1.78  5.00
Si -4.82  4.53  0.00
Si  4.82 -4.53  0.00
Si  6.24  2.27  0.00
Si -6.24 -2.27  0.00
Si -5.07 -4.53  0.00
Si  5.07  4.53  0.00
Si  3.69  2.75  5.00
Si -3.69 -2.75 -5.00
Si -3.72  2.75  5.00
Si  3.72 -2.75 -5.00
Si  2.27 -4.05  5.00
Si -2.27  4.05 -5.00
Si -1.05  6.80  0.00
Si  1.05 -6.80  0.00
Si  6.08 -2.02  2.50
Si -6.08  2.02 -2.50
Si -4.78  4.29 -2.50
Si  4.78 -4.29  2.50
Si -1.42 -6.80  0.00
Si  1.42  6.80  0.00
Si  2.67  4.05 -5.00
Si -2.67 -4.05  5.00
Si  4.87  0.48  5.00
Si -4.87 -0.48 -5.00
Si -6.28 -2.02  2.50
Si  6.28  2.02 -2.50
Si  0.05  5.02  5.00
Si -0.05 -5.02 -5.00
Si -1.01  6.56 -2.50
Si  1.01 -6.56  2.50
Si -6.16  2.51  2.50
Si  6.16 -2.51 -2.50
Si  5.02 -0.48 -5.00
Si -5.02  0.48  5.00
Si -5.11 -4.29  2.50
Si  5.11  4.29 -2.50
Si  6.21  2.51  2.50
Si -6.21 -2.51 -2.50
Si  1.46  6.56 -2.50
Si -1.46 -6.56  2.50
Si  4.86 -4.78 -2.50
Si -4.86  4.78  2.50
Si  5.03  4.78  2.50
Si -5.03 -4.78 -2.50
Si -7.42  0.00  0.00
Si  7.42  0.00  0.00
Si -2.43  5.02  5.00
Si  2.43 -5.02 -5.00
Si -2.52 -5.02 -5.00
Si  2.52  5.02  5.00
Si -0.11  0.72  7.51
Si  0.11 -0.72 -7.51
Si  1.09 -7.04 -2.50
Si -1.09  7.04  2.50
Si  1.38  7.04  2.50
Si -1.38 -7.04 -2.50
Si -3.52  6.80  0.00
Si  3.52 -6.80  0.00
Si  1.06 -1.54  7.51
Si -1.06  1.54 -7.51
Si -1.41 -1.54  7.51
Si  1.41  1.54 -7.51
Si -7.38 -0.24 -2.50
Si  7.38  0.24  2.50
Si -3.90 -6.80  0.00
Si  3.90  6.80  0.00
Si -3.49  6.56 -2.50
Si  3.49 -6.56  2.50
Si  7.46 -0.24 -2.50
Si -7.46  0.24  2.50
Si  2.36  0.72  7.51
Si -2.36 -0.72 -7.51
Si  2.59 -0.72 -7.51
Si -2.59  0.72  7.51
Si  4.75 -4.05  5.00
Si -4.75  4.05 -5.00
Si  3.93  6.56 -2.50
Si -3.93 -6.56  2.50
Si -6.04  1.78 -5.00
Si  6.04 -1.78  5.00
Si -0.97  6.32 -5.00
Si  0.97 -6.32  5.00
Si  1.18  2.99  7.51
Si -1.18 -2.99 -7.51
Si  1.29 -2.99 -7.51
Si -1.29  2.99  7.51
Si -1.50 -6.32  5.00
Si  1.50  6.32 -5.00
Si -5.15 -4.05  5.00
Si  5.15  4.05 -5.00
Si -6.32 -1.78  5.00
Si  6.32  1.78 -5.00
Si  3.56 -7.04 -2.50
Si -3.56  7.04  2.50
Si  6.17  2.75  5.00
Si -6.17 -2.75 -5.00
Si -3.86 -7.04 -2.50
Si  3.86  7.04  2.50
Si -0.24 -3.81  7.51
Si  0.24  3.81 -7.51
Si -6.20  2.75  5.00
Si  6.20 -2.75 -5.00
Si -3.53  1.54 -7.51
Si  3.53 -1.54  7.51
Si -7.30  4.53  0.00
Si  7.30 -4.53  0.00
Si  3.89  1.54 -7.51
Si -3.89 -1.54  7.51
Si  4.90 -5.02 -5.00
Si -4.90  5.02  5.00
Si  4.99  5.02  5.00
Si -4.99 -5.02 -5.00
Si -2.23  3.81 -7.51
Si  2.23 -3.81  7.51
Si -3.45  6.32 -5.00
Si  3.45 -6.32  5.00
Si  7.26 -4.29  2.50
Si -7.26  4.29 -2.50
Si  7.54  4.53  0.00
Si -7.54 -4.53  0.00
Si -2.71 -3.81  7.51
Si  2.71  3.81 -7.51
Si  3.66  2.99  7.51
Si -3.66 -2.99 -7.51
Si  8.59 -2.27  0.00
Si -8.59  2.27  0.00
Si  7.34  0.48  5.00
Si -7.34 -0.48 -5.00
Si  1.13 -7.28 -5.00
Si -1.13  7.28  5.00
Si -3.76  2.99  7.51
Si  3.76 -2.99 -7.51
Si -1.34 -7.28 -5.00
Si  1.34  7.28  5.00
Si  4.83  0.72  7.51
Si -4.83 -0.72 -7.51
Si  3.97  6.32 -5.00
Si -3.97 -6.32  5.00
Si -8.72 -2.27  0.00
Si  8.72  2.27  0.00
Si -7.50  0.48  5.00
Si  7.50 -0.48 -5.00
Si -7.58 -4.29  2.50
Si  7.58  4.29 -2.50
Si  6.00 -6.80  0.00
Si -6.00  6.80  0.00
Si  0.25  9.07  0.00
Si -0.25 -9.07  0.00
Si  5.06 -0.72 -7.51
Si -5.06  0.72  7.51
Si  7.33 -4.78 -2.50
Si -7.33  4.78  2.50
Si  8.56 -2.02  2.50
Si -8.56  2.02 -2.50
Si  0.01  5.26  7.51
Si -0.01 -5.26 -7.51
Si  0.28  8.82 -2.50
Si -0.28 -8.82  2.50
Si -5.96  6.56 -2.50
Si  5.96 -6.56  2.50
Si  7.50  4.78  2.50
Si -7.50 -4.78 -2.50
Si  6.37  6.80  0.00
Si -6.37 -6.80  0.00
Si  8.76  2.02 -2.50
Si -8.76 -2.02  2.50
Si  8.63 -2.51 -2.50
Si -8.63  2.51  2.50
Si -2.23  9.07  0.00
Si  2.23 -9.07  0.00
Si  8.68  2.51  2.50
Si -8.68 -2.51 -2.50
Si -2.19  8.82 -2.50
Si  2.19 -8.82  2.50
Si  2.72  9.07  0.00
Si -2.72 -9.07  0.00
Si  2.46 -5.26 -7.51
Si -2.46  5.26  7.51
Si  2.48  5.26  7.51
Si -2.48 -5.26 -7.51
Si  6.41  6.56 -2.50
Si -6.41 -6.56  2.50
Si -3.60  7.28  5.00
Si  3.60 -7.28 -5.00
Si  2.76  8.82 -2.50
Si -2.76 -8.82  2.50
Si  6.04 -7.04 -2.50
Si -6.04  7.04  2.50
Si -3.82 -7.28 -5.00
Si  3.82  7.28  5.00
Si  0.21  9.31  2.50
Si -0.21 -9.31 -2.50
Si  4.71 -3.81  7.51
Si -4.71  3.81 -7.51
Si -7.22  4.05 -5.00
Si  7.22 -4.05  5.00
Si  0.94 -6.08  7.51
Si -0.94  6.08 -7.51
Si -6.01  1.54 -7.51
Si  6.01 -1.54  7.51
Si  1.54  6.08 -7.51
Si -1.54 -6.08  7.51
Si -6.33 -7.04 -2.50
Si  6.33  7.04  2.50
Si -5.18 -3.81  7.51
Si  5.18  3.81 -7.51
Si -9.89  0.00  0.00
Si  9.89  0.00  0.00
Si  2.26 -9.31 -2.50
Si -2.26  9.31  2.50
Si -0.32 -8.58  5.00
Si  0.32  8.58 -5.00
Si  6.36  1.54 -7.51
Si -6.36 -1.54  7.51
Si  7.62  4.05 -5.00
Si -7.62 -4.05  5.00
Si  5.92 -6.32  5.00
Si -5.92  6.32 -5.00
Si  2.68  9.31  2.50
Si -2.68 -9.31 -2.50
Si  8.52 -1.78  5.00
Si -8.52  1.78 -5.00
Si -0.15  0.97 10.01
Si  0.15 -0.97 -10.01
Si -6.13 -2.99 -7.51
Si  6.13  2.99  7.51
Si  1.02 -1.30 10.01
Si -1.02  1.30 -10.01
Si  2.15 -8.58  5.00
Si -2.15  8.58 -5.00
Si  9.85  0.24  2.50
Si -9.85 -0.24 -2.50
Si -1.45 -1.30 10.01
Si  1.45  1.30 -10.01
Si -6.24  2.99  7.51
Si  6.24 -2.99 -7.51
Si -4.70  9.07  0.00
Si  4.70 -9.07  0.00
Si  7.37 -5.02 -5.00
Si -7.37  5.02  5.00
Si  3.41 -6.08  7.51
Si -3.41  6.08 -7.51
Si -9.93  0.24  2.50
Si  9.93 -0.24 -2.50
Si  8.79  1.78 -5.00
Si -8.79 -1.78  5.00
Si -4.66  8.82 -2.50
Si  4.66 -8.82  2.50
Si  7.47  5.02  5.00
Si -7.47 -5.02 -5.00
Si -6.44 -6.32  5.00
Si  6.44  6.32 -5.00
Si -2.32 -0.97 -10.01
Si  2.32  0.97 10.01
Si -2.80 -8.58  5.00
Si  2.80  8.58 -5.00
Si  8.64  2.75  5.00
Si -8.64 -2.75 -5.00
Si  8.67 -2.75 -5.00
Si -8.67  2.75  5.00
Si  2.63 -0.97 -10.01
Si -2.63  0.97 10.01
Si  4.94 -5.26 -7.51
Si -4.94  5.26  7.51
Si  4.96  5.26  7.51
Si -4.96 -5.26 -7.51
Si -5.19 -9.07  0.00
Si  5.19  9.07  0.00
Si  4.01  6.08 -7.51
Si -4.01 -6.08  7.51
Si -7.30 -0.72 -7.51
Si  7.30  0.72  7.51
Si  5.23  8.82 -2.50
Si -5.23 -8.82  2.50
Si  1.15  3.23 10.01
Si -1.15 -3.23 -10.01
Si -1.33  3.23 10.01
Si  1.33 -3.23 -10.01
Si -0.28 -3.57 10.01
Si  0.28  3.57 -10.01
Si  7.53 -0.72 -7.51
Si -7.53  0.72  7.51
Si  3.50 -1.30 10.01
Si -3.50  1.30 -10.01
Si  1.17 -7.52 -7.51
Si -1.17  7.52  7.51
Si -1.31 -7.52 -7.51
Si  1.31  7.52  7.51
Si  6.07 -7.28 -5.00
Si -6.07  7.28  5.00
Si  4.74 -9.31 -2.50
Si -4.74  9.31  2.50
Si  9.77 -4.53  0.00
Si -9.77  4.53  0.00
Si  0.17  9.55  5.00
Si -0.17 -9.55 -5.00
Si -3.92 -1.30 10.01
Si  3.92  1.30 -10.01
Si  6.29  7.28  5.00
Si -6.29 -7.28 -5.00
Si -2.20  3.57 -10.01
Si  2.20 -3.57 10.01
Si  8.47 -6.80  0.00
Si -8.47  6.80  0.00
Si  9.73 -4.29  2.50
Si -9.73  4.29 -2.50
Si -5.16 -9.31 -2.50
Si  5.16  9.31  2.50
Si  4.62 -8.58  5.00
Si -4.62  8.58 -5.00
Si -8.43  6.56 -2.50
Si  8.43 -6.56  2.50
Si  2.75  3.57 -10.01
Si -2.75 -3.57 10.01
Si -10.02 -4.53  0.00
Si 10.02  4.53  0.00
Si -2.30  9.55  5.00
Si  2.30 -9.55 -5.00
Si -9.82 -0.48 -5.00
Si  9.82  0.48  5.00
Si -7.18  3.81 -7.51
Si  7.18 -3.81  7.51
Si -2.64 -9.55 -5.00
Si  2.64  9.55  5.00
Si -3.62 -3.23 -10.01
Si  3.62  3.23 10.01
Si -4.79 -0.97 -10.01
Si  4.79  0.97 10.01
Si  8.84  6.80  0.00
Si -8.84 -6.80  0.00
Si  9.97 -0.48 -5.00
Si -9.97  0.48  5.00
Si -3.80  3.23 10.01
Si  3.80 -3.23 -10.01
Si -9.81  4.78  2.50
Si  9.81 -4.78 -2.50
Si -10.05 -4.29  2.50
Si 10.05  4.29 -2.50
Si  0.36  8.34 -7.51
Si -0.36 -8.34  7.51
Si  3.64 -7.52 -7.51
Si -3.64  7.52  7.51
Si -5.27 -8.58  5.00
Si  5.27  8.58 -5.00
Si -5.10  0.97 10.01
Si  5.10 -0.97 -10.01
Si -3.78 -7.52 -7.51
Si  3.78  7.52  7.51
Si 11.07 -2.27  0.00
Si -11.07  2.27  0.00
Si -5.88  6.08 -7.51
Si  5.88 -6.08  7.51
Si -8.88 -6.56  2.50
Si  8.88  6.56 -2.50
Si  8.51 -7.04 -2.50
Si -8.51  7.04  2.50
Si  9.98  4.78  2.50
Si -9.98 -4.78 -2.50
Si  0.93 -11.33  0.00
Si -0.93 11.33  0.00
Si  7.66  3.81 -7.51
Si -7.66 -3.81  7.51
Si -0.89 11.09 -2.50
Si  0.89 -11.09  2.50
Si 11.19  2.27  0.00
Si -11.19 -2.27  0.00
Si -2.11  8.34 -7.51
Si  2.11 -8.34  7.51
Si  0.03 -5.50 -10.01
Si -0.03  5.50 10.01
Si  8.48 -1.54  7.51
Si -8.48  1.54 -7.51
Si  1.54 11.33  0.00
Si -1.54 -11.33  0.00
Si -1.58 -11.09  2.50
Si  1.58 11.09 -2.50
Si -11.03  2.02 -2.50
Si 11.03 -2.02  2.50
Si  8.80  7.04  2.50
Si -8.80 -7.04 -2.50
Si -7.17  9.07  0.00
Si  7.17 -9.07  0.00
Si -2.83 -8.34  7.51
Si  2.83  8.34 -7.51
Si -4.67  3.57 -10.01
Si  4.67 -3.57 10.01
Si -0.90  5.83 -10.01
Si  0.90 -5.83 10.01
Si -7.13  8.82 -2.50
Si  7.13 -8.82  2.50
Si -6.48 -6.08  7.51
Si  6.48  6.08 -7.51
Si -9.69  4.05 -5.00
Si  9.69 -4.05  5.00
Si -8.39  6.32 -5.00
Si  8.39 -6.32  5.00
Si 11.11 -2.51 -2.50
Si -11.11  2.51  2.50
Si -2.44 -5.50 -10.01
Si  2.44  5.50 10.01
Si 11.23  2.02 -2.50
Si -11.23 -2.02  2.50
Si  2.50 -5.50 -10.01
Si -2.50  5.50 10.01
Si  1.57  5.83 -10.01
Si -1.57 -5.83 10.01
Si  8.83  1.54 -7.51
Si -8.83 -1.54  7.51
Si -11.15 -2.51 -2.50
Si 11.15  2.51  2.50
Si  5.97 -1.30 10.01
Si -5.97  1.30 -10.01
Si  7.41 -5.26 -7.51
Si -7.41  5.26  7.51
Si  4.78 -9.55 -5.00
Si -4.78  9.55  5.00
Si  7.43  5.26  7.51
Si -7.43 -5.26 -7.51
Si  8.60  2.99  7.51
Si -8.60 -2.99 -7.51
Si  3.40 -11.33  0.00
