500
set: 1462.00  0.00  0.00
Si -0.80  0.61  0.04
Si  0.67  0.28  1.91
Si  1.41  1.35 -1.03
Si -1.23 -1.80  0.61
Si -1.54 -0.25 -1.78
Si  0.85 -2.11 -1.59
Si  1.93 -1.68  1.13
Si  2.77 -0.99 -0.72
Si -1.73  2.14  1.72
Si -1.14  2.16 -2.37
Si -0.13 -1.36  3.34
Si  0.05 -3.75 -0.16
Si -0.61 -1.78 -3.47
Si -3.75 -0.99 -0.72
Si -3.20  2.47 -0.16
Si  2.58  1.40  2.78
Si -2.05 -2.48  2.47
Si  3.33  2.47 -0.16
Si  2.23  2.03 -2.89
Si -1.41  0.59  4.12
Si  1.22  3.73  2.47
Si  1.52 -4.08  1.72
Si -0.98  3.00  3.54
Si -3.01  0.09 -3.66
Si -1.32  4.54  1.13
Si  2.04  4.42  0.61
Si  1.59 -1.04 -4.54
Si  1.74  0.71  4.64
Si -2.40  4.11 -1.59
Si -4.59 -1.68  1.13
Si -3.94  1.40  2.78
Si  3.51  0.09 -3.66
Si -0.29  2.85 -4.22
Si  2.11 -4.06 -2.37
Si -1.04 -4.18 -2.89
Si  4.97 -0.25 -1.78
Si  2.27 -3.23  3.54
Si -0.48  5.23 -0.72
Si -1.86 -4.87 -1.03
Si -5.12  1.35 -1.03
Si  4.79  2.14  1.72
Si -4.29  2.03 -2.89
Si -0.69 -4.82  2.78
Si  5.29 -1.80  0.61
Si  1.33 -1.70  5.22
Si  4.47 -2.48  2.47
Si  5.72  0.61  0.04
Si -2.21  1.73 -5.09
Si -0.95 -0.23 -5.87
Si  4.12  4.11 -1.59
Si  0.48  2.66  5.42
Si -1.36 -2.63 -5.29
Si  2.45 -5.61  0.04
Si  2.96 -3.37 -4.22
Si -5.86  0.28  1.91
Si  2.66  4.44 -3.47
Si -5.67 -2.11 -1.59
Si  5.38  2.16 -2.37
Si -4.48  4.42  0.61
Si -2.24 -0.10  5.97
Si -4.25 -3.23  3.54
Si -4.41 -4.06 -2.37
Si  1.73  5.97 -1.78
Si -3.56 -3.37 -4.22
Si  5.11  0.59  4.12
Si  1.91  3.58 -5.29
Si  3.14  4.86  3.34
Si -5.00 -4.08  1.72
Si -4.78  0.71  4.64
Si -2.61 -5.94  1.91
Si -4.93 -1.04 -4.54
Si -0.88 -2.43  6.29
Si -3.38  4.86  3.34
Si  4.66 -4.87 -1.03
Si -3.86  4.44 -3.47
Si  2.42 -0.35 -6.39
Si  1.04 -4.50 -5.09
Si  4.31  1.73 -5.09
Si  1.70 -6.47 -1.78
Si -4.07 -5.61  0.04
Si -0.32  1.03  6.85
Si -5.30  3.73  2.47
Si  5.20  4.54  1.13
Si -2.79 -3.56  5.42
Si  5.91 -1.78 -3.47
Si -1.66  5.18 -4.54
Si  0.24 -6.13 -3.66
Si -1.92  4.52  5.22
Si  1.84 -5.63  4.12
Si  5.54  3.00  3.54
Si -2.58  6.50  1.91
Si -0.50 -7.21 -0.72
Si  2.47  6.83  0.04
Si  0.26  6.31 -3.66
Si  6.39 -1.36  3.34
Si -7.32  0.61  0.04
Si  4.28 -0.10  5.97
Si -1.53 -5.51  4.64
Si  3.91 -5.94  1.91
Si  2.08 -0.84  7.04
Si  7.18  0.28  1.91
Si  3.73 -3.56  5.42
Si -6.47 -3.75 -0.16
Si  5.48 -4.18 -2.89
Si -5.19 -1.70  5.22
Si  6.57 -3.75 -0.16
Si -6.66 -1.36  3.34
Si -4.10 -0.35 -6.39
Si  2.39  3.79  6.29
Si -0.11  0.46 -7.73
Si  2.85  2.06 -6.97
Si  7.37 -2.11 -1.59
Si  3.94  6.50  1.91
Si  5.16 -2.63 -5.29
Si -1.84  7.57 -1.03
Si -4.79  5.97 -1.78
Si -4.61  3.58 -5.29
Si -4.05  6.83  0.04
Si -7.75 -1.80  0.61
Si  6.04  5.23 -0.72
Si -2.82 -2.30 -7.17
Si  6.23  2.85 -4.22
Si  5.83 -4.82  2.78
Si -1.35 -7.89  1.13
Si  5.57 -0.23 -5.87
Si  7.93  1.35 -1.03
Si -7.13 -1.78 -3.47
Si -0.42 -4.16 -6.97
Si -0.67  7.62  2.78
Si -3.67  2.06 -6.97
Si  1.86  6.81  4.12
Si  0.45  3.92 -7.17
Si -4.82 -6.47 -1.78
Si -8.07 -0.25 -1.78
Si  2.02 -8.02  0.61
Si  4.60  4.52  5.22
Si -7.66  2.16 -2.37
Si -1.60  2.97  7.62
Si -4.44 -0.84  7.04
Si  3.70 -2.30 -7.17
Si -4.68 -5.63  4.12
Si -4.13  3.79  6.29
Si  4.86  5.18 -4.54
Si  1.65 -3.25  7.62
Si -1.51  6.93  4.64
Si -6.81  2.85 -4.22
Si -6.04  2.66  5.42
Si  1.03  6.12  5.97
Si -1.47  2.80 -8.04
Si  1.54  8.36  1.72
Si  8.45 -1.68  1.13
Si  0.07  8.69 -0.16
Si -8.25  2.14  1.72
Si  2.32  5.99 -5.87
Si -0.83  5.87 -6.39
Si -1.68 -7.26 -4.54
Si -5.48 -4.50 -5.09
Si  1.01 -6.32  5.97
Si  4.99 -5.51  4.64
Si -7.00  5.23 -0.72
Si  5.64 -2.43  6.29
Si -1.02  8.25 -2.89
Si -2.42 -8.33 -1.59
Si -7.50  3.00  3.54
Si  1.14  0.69  8.73
Si  1.55  3.10  8.14
Si  3.12 -7.58  3.34
Si -2.02 -0.66 -8.60
Si -1.72 -3.12  8.14
Si  1.78 -3.42 -8.04
Si  7.74  3.73  2.47
Si -1.17  5.38  7.04
Si -3.40 -7.58  3.34
Si  4.68  7.57 -1.03
Si -7.93  0.59  4.12
Si  2.13  8.38 -2.37
Si  2.30 -6.45 -5.87
Si  2.93 -5.19  6.85
Si  2.64 -8.00 -3.47
Si -7.21 -4.82  2.78
Si -7.56 -4.18 -2.89
Si  2.10  1.20 -8.79
Si  1.20 -8.70  2.47
Si -7.84  4.54  1.13
Si  8.04 -4.08  1.72
Si -0.85 -6.57 -6.39
Si -4.50 -8.02  0.61
Si -4.66  6.81  4.12
Si  7.00  2.66  5.42
Si -8.57 -2.48  2.47
Si  6.20  1.03  6.85
Si -3.59 -5.19  6.85
Si  8.11 -1.04 -4.54
Si  9.29 -0.99 -0.72
Si -4.20  5.99 -5.87
Si  6.02 -7.21 -0.72
Si  4.10 -8.33 -1.59
Si  8.75  2.03 -2.89
Si -2.98 -1.17  8.92
Si  1.06  7.94 -5.09
Si  8.26  0.71  4.64
Si -7.47 -0.23 -5.87
Si  5.17 -7.89  1.13
Si -6.28 -6.13 -3.66
Si -3.88 -8.00 -3.47
Si  4.92  2.97  7.62
Si  7.85 -1.70  5.22
Si -6.26  6.31 -3.66
Si -4.87 -3.25  7.62
Si  9.10  1.40  2.78
Si  8.56  4.42  0.61
Si  3.54 -1.17  8.92
Si -1.94 -7.92  5.22
Si -4.22 -6.45 -5.87
Si  4.50 -0.66 -8.60
Si  5.01  6.93  4.64
Si -6.84  1.03  6.85
Si -4.39  8.38 -2.37
Si -8.39 -4.87 -1.03
Si -0.76 -2.61 -9.38
Si  8.63 -4.06 -2.37
Si  4.84 -7.26 -4.54
Si  6.76 -6.13 -3.66
Si -7.88 -2.63 -5.29
Si -1.07 -0.05  9.79
Si -4.98  8.36  1.72
Si  5.05  2.80 -8.04
Si -4.42  1.20 -8.79
Si -4.74 -3.42 -8.04
Si -8.92  4.11 -1.59
Si  4.80 -3.12  8.14
Si  6.78  6.31 -3.66
Si  5.85  7.62  2.78
Si  8.79 -3.23  3.54
Si -7.40 -2.43  6.29
Si -4.97  3.10  8.14
Si -9.72  2.47 -0.16
Si -1.19 -7.06  7.04
Si -2.43  2.29  9.48
Si  6.42  0.46 -7.73
Si -7.02 -7.21 -0.72
Si  2.29  9.21  3.54
Si  3.14 -5.76 -7.73
Si -1.01 -9.44  3.54
Si  9.85  2.47 -0.16
Si  6.10 -4.16 -6.97
Si -5.49  6.12  5.97
Si  7.56 -4.50 -5.09
Si -6.07  3.92 -7.17
Si -6.63  0.46 -7.73
Si -1.17 -5.02 -8.79
Si -9.53  0.09 -3.66
Si -3.38 -5.76 -7.73
Si  0.29  5.05  8.92
Si -8.73  1.73 -5.09
Si -5.38  0.69  8.73
Si  0.82 -3.93  9.48
Si -5.51 -6.32  5.97
Si  1.25  5.56 -8.60
Si  5.50  8.25 -2.89
Si  8.25  5.97 -1.78
Si -10.27 -0.99 -0.72
Si  5.35  5.38  7.04
Si  2.51  3.61 -9.38
Si  5.69  5.87 -6.39
Si  2.95  7.25  6.85
Si  2.98  9.07 -4.22
Si -2.03  9.95  2.47
Si -3.22 -9.96 -0.16
Si -0.32 -9.59 -4.22
Si  1.89 -8.85 -5.29
Si  0.87 10.33 -1.59
Si -5.32 -8.70  2.47
Si  3.30 -9.96 -0.16
Si -0.64  3.48 -9.90
Si  4.58 -7.92  5.22
Si -2.13 -5.53  8.73
Si  4.09  2.29  9.48
Si  8.43  3.58 -5.29
Si  8.97 -5.61  0.04
Si -3.57  7.25  6.85
Si -1.75 -10.30  1.72
Si  2.61 -2.74 -9.90
Si -8.76 -0.10  5.97
Si -3.54  9.07 -4.22
Si -1.16 -10.28 -2.37
Si  8.22 -6.47 -1.78
Si -6.94 -4.16 -6.97
Si 10.03  0.09 -3.66
Si -8.18  5.18 -4.54
Si  3.17  6.68 -7.73
Si -1.21 10.64  0.61
Si  6.97  3.92 -7.17
Si -4.23  9.21  3.54
Si -3.35  6.68 -7.73
Si -2.77  8.88  5.42
Si  9.18  4.44 -3.47
Si  5.67 -6.57 -6.39
Si  0.64  1.54 -10.67
Si -8.05 -5.51  4.64
Si -4.01  3.61 -9.38
Si -6.45  8.69 -0.16
Si -0.40  8.28 -6.97
Si  1.89  1.55 10.55
Si -7.19  7.62  2.78
Si  8.36 -5.63  4.12
Si -5.46  7.94 -5.09
Si -8.44  4.52  5.22
Si  3.04 -0.33 -10.47
Si  9.48 -3.37 -4.22
Si -0.51  3.41 10.35
Si  6.60  8.69 -0.16
Si -10.46  1.40  2.78
Si  2.37 -8.65  6.29
Si -3.91 -2.74 -9.90
Si  8.94 -0.35 -6.39
Si  1.95 10.76  1.13
Si  2.21 -10.40 -2.89
Si -3.48 -0.33 -10.47
Si -9.13 -5.94  1.91
Si  3.75  8.88  5.42
Si  2.74 -2.81 10.35
Si  1.23 -6.88 -8.60
Si  0.43 -8.52 -7.17
Si  8.60 -0.84  7.04
Si  0.46 -9.78  5.42
Si  4.49  9.95  2.47
Si -7.87 -7.89  1.13
Si  5.46 -0.05  9.79
Si -1.34  9.80 -5.29
Si  1.38 -11.09 -1.03
Si  4.39 -5.53  8.73
Si -0.59 10.66 -3.47
Si  1.46 -0.86 11.12
Si  8.99  6.83  0.04
Si -11.12 -1.68  1.13
Si -4.63 -8.85 -5.29
Si  5.33 -7.06  7.04
Si  5.76 -2.61 -9.38
Si  9.66  4.86  3.34
Si -2.11  6.91  8.73
Si -8.37  7.57 -1.03
Si -9.31 -3.56  5.42
Si -9.11  6.50  1.91
Si -3.78 -2.81 10.35
Si -10.81  2.03 -2.89
Si -7.35  5.87 -6.39
Si  0.08 -1.92 -11.23
Si  7.55  6.12  5.97
Si -10.09 -3.37 -4.22
Si  5.35 -5.02 -8.79
Si -4.15 -8.65  6.29
Si  4.77 -10.30  1.72
Si  5.51 -9.44  3.54
Si  7.53 -6.32  5.97
Si -5.27  5.56 -8.60
Si 10.64  4.11 -1.59
Si -9.90  4.86  3.34
Si -8.12  2.97  7.62
Si 10.99 -2.48  2.47
Si -7.54  8.25 -2.89
Si  8.91  3.79  6.29
Si  8.38  6.81  4.12
Si -1.15  7.42 -8.79
Si -0.11 11.08  3.34
Si -8.03  6.93  4.64
Si  0.27 -7.39  8.92
Si -1.38 -4.67 10.55
Si -1.28  0.41 -11.54
Si -4.63  1.55 10.55
Si -4.31 -10.40 -2.89
Si  7.66  0.69  8.73
Si  8.17 -3.25  7.62
Si 11.31  2.14  1.72
Si 11.50 -0.25 -1.78
Si  2.56 -11.04  2.78
Si -7.99  2.80 -8.04
Si  8.54 -8.02  0.61
Si  8.06  8.36  1.72
Si -7.69  5.38  7.04
Si -5.70 -3.93  9.48
Si -4.57 10.76  1.13
Si -11.63  1.35 -1.03
Si -7.37 -6.57 -6.39
Si  2.21  6.17  9.79
Si -10.78 -3.23  3.54
Si -10.38  4.44 -3.47
Si  2.79 11.45 -0.72
Si -1.91 -0.74 11.64
Si  2.18 -6.27  9.79
Si  5.36 -10.28 -2.37
Si -0.86 10.01  6.29
Si -8.20 -7.26 -4.54
Si  9.37  2.06 -6.97
Si -0.82 -11.83  0.04
Si -11.00  4.42  0.61
Si  8.07  3.10  8.14
Si -5.65 10.33 -1.59
Si  7.72 -8.70  2.47
Si -10.93 -4.06 -2.37
Si  5.32 10.64  0.61
Si -2.63 -4.68 -10.67
Si 11.81 -1.80  0.61
Si  4.41  6.91  8.73
Si -10.59 -5.61  0.04
Si -6.23  5.05  8.92
Si -9.34 -2.30 -7.17
Si -8.24 -3.12  8.14
Si -0.21  5.89 -10.47
Si  1.35 10.74  5.22
Si  5.88  3.48 -9.90
Si  8.30 -3.42 -8.04
Si -3.96 -11.04  2.78
Si  1.67  9.19  7.62
Si -3.73 11.45 -0.72
Si -2.23 -10.71 -5.09
Si 10.83  1.73 -5.09
Si  7.58  7.94 -5.09
Si 10.25 -3.56  5.42
Si -8.54 -0.66 -8.60
Si -7.28 -2.61 -9.38
Si 10.44 -5.94  1.91
Si  6.21 -9.59 -4.22
Si  8.84  5.99 -5.87
Si  1.80  9.02 -8.04
Si -5.29 -6.88 -8.60
Si 11.18 -4.87 -1.03
Si -11.30  0.71  4.64
Si -5.06 -0.86 11.12
Si 12.24  0.61  0.04
Si -1.62 -9.47  7.62
Si -5.14 -11.09 -1.03
Si  8.65  8.38 -2.37
Si -5.88  1.54 -10.67
Si  3.89 -4.68 -10.67
Si  5.18  9.80 -5.29
Si  6.81  5.05  8.92
Si -8.94 -8.33 -1.59
Si  0.64 -12.16  1.91
Si 11.90  2.16 -2.37
Si 10.80 -0.10  5.97
Si -11.52 -4.08  1.72
Si 11.63  0.59  4.12
Si -4.32  6.17  9.79
Si -0.23 -6.55 -10.47
Si -11.45 -1.04 -4.54
Si  8.62  1.20 -8.79
Si  1.61 11.40 -4.54
Si -7.59 -0.05  9.79
Si -10.62 -0.35 -6.39
Si  8.82 -6.45 -5.87
Si -4.34 -6.27  9.79
Si -1.52 12.19 -1.78
Si  6.12  8.28 -6.97
Si -3.17  4.30 -11.23
Si  6.01  3.41 10.35
Si 10.46  6.50  1.91
Si -12.19 -2.11 -1.59
Si -1.79  5.36 11.12
Si  3.35  4.30 -11.23
Si  1.53 -9.34  8.14
Si -1.70  9.32  8.14
Si -6.83 -9.59 -4.22
Si -10.19  2.06 -6.97
Si -12.38  0.28  1.91
Si  4.61 -0.74 11.64
Si  2.29 -1.19 -12.30
Si -10.57  6.83  0.04
Si -7.53 -9.44  3.54
Si  1.44  3.17 -12.10
Si -7.71 -7.06  7.04
Si -1.83 -3.05 -12.10
Si  4.29 -10.71 -5.09
Si  7.34 -3.93  9.48
Si 11.72  4.54  1.13
Si -1.44 -11.85  4.12
Si  5.14 -4.67 10.55
Si -1.49 -9.64 -8.04
Si -11.82  3.73  2.47
Si  9.16 -8.00 -3.47
Si  0.95  3.08 12.23
Si  5.24  0.41 -11.54
Si  5.93 10.66 -3.47
Si -6.09 -8.52 -7.17
Si 10.22 -2.30 -7.17
Si  5.37  7.42 -8.79
Si -7.16  3.48 -9.90
Si  9.64 -7.58  3.34
Si -8.46 -7.92  5.22
Si -7.69 -5.02 -8.79
Si -6.07 -9.78  5.42
Si  1.72 -11.73  4.64
Si -2.80 10.14 -7.17
Si  0.84  8.51  9.48
Si  9.45 -5.19  6.85
Si  7.39 10.33 -1.59
Si  2.83 -10.38 -6.97
Si -11.13  3.58 -5.29
Si -2.32 -3.14 12.23
Si -6.92  8.28 -6.97
