500
set: 1293.00  0.00  0.00
Si  3.04  1.18  0.00
Si  3.04 -1.18  0.00
Si -3.04  1.18  0.00
Si -3.04 -1.18  0.00
Si  2.22 -2.29  1.94
Si  2.22  2.29  1.94
Si  2.22 -2.29 -1.94
Si  2.22  2.29 -1.94
Si -2.22 -2.29  1.94
Si -2.22  2.29  1.94
Si -2.22 -2.29 -1.94
Si -2.22  2.29 -1.94
Si -1.21 -1.21  3.84
Si  1.21 -1.21  3.84
Si -1.21 -1.21 -3.84
Si  1.21 -1.21 -3.84
Si -1.21  1.21  3.84
Si  1.21  1.21  3.84
Si -1.21  1.21 -3.84
Si  1.21  1.21 -3.84
Si -1.18 -4.30  1.19
Si -1.18  4.30  1.19
Si -1.18 -4.30 -1.19
Si -1.18  4.30 -1.19
Si  1.18 -4.30  1.19
Si  1.18  4.30  1.19
Si  1.18 -4.30 -1.19
Si  1.18  4.30 -1.19
Si  5.49  1.18  0.00
Si  5.49 -1.18  0.00
Si -5.49  1.18  0.00
Si -5.49 -1.18  0.00
Si  4.27  3.12  2.68
Si  4.27  3.12 -2.68
Si -4.27  3.12 -2.68
Si -4.27  3.12  2.68
Si  4.27 -3.12 -2.68
Si  4.27 -3.12  2.68
Si -4.27 -3.12 -2.68
Si -4.27 -3.12  2.68
Si  2.22 -2.29  5.74
Si  2.22  2.29  5.74
Si -2.22 -2.29  5.74
Si -2.22  2.29  5.74
Si  2.22 -2.29 -5.74
Si  2.22  2.29 -5.74
Si -2.22 -2.29 -5.74
Si -2.22  2.29 -5.74
Si  2.22 -6.30  1.94
Si  2.22  6.30  1.94
Si  2.22 -6.30 -1.94
Si  2.22  6.30 -1.94
Si -2.22 -6.30  1.94
Si -2.22  6.30  1.94
Si -2.22 -6.30 -1.94
Si -2.22  6.30 -1.94
Si  6.31 -2.29  1.94
Si  6.31  2.29  1.94
Si  6.31 -2.29 -1.94
Si  6.31  2.29 -1.94
Si -6.31 -2.29  1.94
Si -6.31  2.29  1.94
Si -6.31 -2.29 -1.94
Si -6.31  2.29 -1.94
Si  4.27  3.12 -5.00
Si  4.27  3.12  5.00
Si -4.27  3.12 -5.00
Si -4.27  3.12  5.00
Si  4.27 -3.12  5.00
Si  4.27 -3.12 -5.00
Si -4.27 -3.12 -5.00
Si -4.27 -3.12  5.00
Si  4.27  5.47  2.68
Si  4.27  5.47 -2.68
Si -4.27  5.47  2.68
Si -4.27  5.47 -2.68
Si  4.27 -5.47 -2.68
Si  4.27 -5.47  2.68
Si -4.27 -5.47 -2.68
Si -4.27 -5.47  2.68
Si -1.18 -4.30  6.49
Si -1.18  4.30  6.49
Si  1.18 -4.30  6.49
Si  1.18  4.30  6.49
Si -1.18 -4.30 -6.49
Si -1.18  4.30 -6.49
Si  1.18 -4.30 -6.49
Si  1.18  4.30 -6.49
Si  3.04  7.41  0.00
Si -3.04  7.41  0.00
Si  3.04 -7.41  0.00
Si -3.04 -7.41  0.00
Si  3.04  1.18  7.69
Si  3.04  1.18 -7.69
Si  3.04 -1.18 -7.69
Si  3.04 -1.18  7.69
Si -3.04  1.18 -7.69
Si -3.04  1.18  7.69
Si -3.04 -1.18  7.69
Si -3.04 -1.18 -7.69
Si -7.33 -1.21  3.84
Si -7.33 -1.21 -3.84
Si  7.33 -1.21  3.84
Si  7.33 -1.21 -3.84
Si -7.33  1.21  3.84
Si -7.33  1.21 -3.84
Si  7.33  1.21  3.84
Si  7.33  1.21 -3.84
Si -1.21 -7.39  3.84
Si  1.21 -7.39  3.84
Si -1.21 -7.39 -3.84
Si  1.21 -7.39 -3.84
Si -1.21  7.39  3.84
Si  1.21  7.39  3.84
Si -1.21  7.39 -3.84
Si  1.21  7.39 -3.84
Si  4.27  5.47 -5.00
Si  4.27  5.47  5.00
Si -4.27  5.47 -5.00
Si -4.27  5.47  5.00
Si  4.27 -5.47 -5.00
Si  4.27 -5.47  5.00
Si -4.27 -5.47 -5.00
Si -4.27 -5.47  5.00
Si -7.35 -4.30  1.19
Si -7.35  4.30  1.19
Si -7.35 -4.30 -1.19
Si -7.35  4.30 -1.19
Si  7.35 -4.30  1.19
Si  7.35  4.30  1.19
Si  7.35 -4.30 -1.19
Si  7.35  4.30 -1.19
Si  2.22 -6.30  5.74
Si  2.22  6.30  5.74
Si -2.22 -6.30  5.74
Si -2.22  6.30  5.74
Si  2.22 -6.30 -5.74
Si  2.22  6.30 -5.74
Si -2.22 -6.30 -5.74
Si -2.22  6.30 -5.74
Si  6.31 -2.29  5.74
Si  6.31  2.29  5.74
Si  6.31 -2.29 -5.74
Si  6.31  2.29 -5.74
Si -6.31 -2.29  5.74
Si -6.31  2.29  5.74
Si -6.31 -2.29 -5.74
Si -6.31  2.29 -5.74
Si  6.31 -6.30  1.94
Si  6.31  6.30  1.94
Si  6.31 -6.30 -1.94
Si  6.31  6.30 -1.94
Si -6.31 -6.30  1.94
Si -6.31  6.30  1.94
Si -6.31 -6.30 -1.94
Si -6.31  6.30 -1.94
Si  5.49  7.41  0.00
Si -5.49  7.41  0.00
Si  5.49 -7.41  0.00
Si -5.49 -7.41  0.00
Si  5.49  1.18 -7.69
Si  5.49  1.18  7.69
Si  5.49 -1.18 -7.69
Si  5.49 -1.18  7.69
Si -5.49  1.18 -7.69
Si -5.49  1.18  7.69
Si -5.49 -1.18  7.69
Si -5.49 -1.18 -7.69
Si -1.18 -4.30  8.88
Si -1.18  4.30  8.88
Si  1.18 -4.30  8.88
Si  1.18  4.30  8.88
Si -1.18 -4.30 -8.88
Si -1.18  4.30 -8.88
Si  1.18 -4.30 -8.88
Si  1.18  4.30 -8.88
Si  2.22 -2.29  9.63
Si  2.22  2.29  9.63
Si -2.22 -2.29  9.63
Si -2.22  2.29  9.63
Si  2.22 -2.29 -9.63
Si  2.22  2.29 -9.63
Si -2.22 -2.29 -9.63
Si -2.22  2.29 -9.63
Si  3.04  9.78  0.00
Si -3.04  9.78  0.00
Si  3.04 -9.78  0.00
Si -3.04 -9.78  0.00
Si -9.74 -1.21  3.84
Si -9.74 -1.21 -3.84
Si  9.74 -1.21  3.84
Si  9.74 -1.21 -3.84
Si -9.74  1.21  3.84
Si -9.74  1.21 -3.84
Si  9.74  1.21  3.84
Si  9.74  1.21 -3.84
Si -1.21 -9.80  3.84
Si  1.21 -9.80  3.84
Si -1.21 -9.80 -3.84
Si  1.21 -9.80 -3.84
Si -1.21  9.80  3.84
Si  1.21  9.80  3.84
Si -1.21  9.80 -3.84
Si  1.21  9.80 -3.84
Si  6.31 -6.30  5.74
Si  6.31  6.30  5.74
Si  6.31 -6.30 -5.74
Si  6.31  6.30 -5.74
Si -6.31 -6.30  5.74
Si -6.31  6.30  5.74
Si -6.31 -6.30 -5.74
Si -6.31  6.30 -5.74
Si -9.72 -4.30  1.19
Si -9.72  4.30  1.19
Si -9.72 -4.30 -1.19
Si -9.72  4.30 -1.19
Si  9.72 -4.30  1.19
Si  9.72  4.30  1.19
Si  9.72 -4.30 -1.19
Si  9.72  4.30 -1.19
Si -7.35 -4.30  6.49
Si -7.35  4.30  6.49
Si -7.35 -4.30 -6.49
Si -7.35  4.30 -6.49
Si  7.35 -4.30  6.49
Si  7.35  4.30  6.49
Si  7.35 -4.30 -6.49
Si  7.35  4.30 -6.49
Si -7.33 -7.39  3.84
Si -7.33 -7.39 -3.84
Si  7.33 -7.39  3.84
Si  7.33 -7.39 -3.84
Si -7.33  7.39  3.84
Si -7.33  7.39 -3.84
Si  7.33  7.39  3.84
Si  7.33  7.39 -3.84
Si  3.04  7.41 -7.69
Si  3.04  7.41  7.69
Si -3.04  7.41 -7.69
Si -3.04  7.41  7.69
Si  3.04 -7.41  7.69
Si  3.04 -7.41 -7.69
Si -3.04 -7.41  7.69
Si -3.04 -7.41 -7.69
Si 10.76 -2.29  1.94
Si 10.76  2.29  1.94
Si 10.76 -2.29 -1.94
Si 10.76  2.29 -1.94
Si -10.76 -2.29  1.94
Si -10.76  2.29  1.94
Si -10.76 -2.29 -1.94
Si -10.76  2.29 -1.94
Si  5.49  9.78  0.00
Si -5.49  9.78  0.00
Si  5.49 -9.78  0.00
Si -5.49 -9.78  0.00
Si  2.22 -10.88  1.94
Si  2.22 10.88  1.94
Si  2.22 -10.88 -1.94
Si  2.22 10.88 -1.94
Si -2.22 -10.88  1.94
Si -2.22 10.88  1.94
Si -2.22 -10.88 -1.94
Si -2.22 10.88 -1.94
Si  4.27  3.12 -10.37
Si  4.27  3.12 10.37
Si -4.27  3.12 -10.37
Si -4.27  3.12 10.37
Si  4.27 -3.12 -10.37
Si  4.27 -3.12 10.37
Si -4.27 -3.12 10.37
Si -4.27 -3.12 -10.37
Si 11.58  1.18  0.00
Si 11.58 -1.18  0.00
Si -11.58  1.18  0.00
Si -11.58 -1.18  0.00
Si -1.21 -1.21 11.53
Si  1.21 -1.21 11.53
Si -1.21 -1.21 -11.53
Si  1.21 -1.21 -11.53
Si -1.21  1.21 11.53
Si  1.21  1.21 11.53
Si -1.21  1.21 -11.53
Si  1.21  1.21 -11.53
Si  2.22 -6.30  9.63
Si  2.22  6.30  9.63
Si -2.22 -6.30  9.63
Si -2.22  6.30  9.63
Si  2.22 -6.30 -9.63
Si  2.22  6.30 -9.63
Si -2.22 -6.30 -9.63
Si -2.22  6.30 -9.63
Si  6.31 -2.29  9.63
Si  6.31  2.29  9.63
Si -6.31 -2.29  9.63
Si -6.31  2.29  9.63
Si  6.31 -2.29 -9.63
Si  6.31  2.29 -9.63
Si -6.31 -2.29 -9.63
Si -6.31  2.29 -9.63
Si  5.49  7.41 -7.69
Si  5.49  7.41  7.69
Si -5.49  7.41 -7.69
Si -5.49  7.41  7.69
Si  5.49 -7.41 -7.69
Si  5.49 -7.41  7.69
Si -5.49 -7.41  7.69
Si -5.49 -7.41 -7.69
Si -7.35 -4.30  8.88
Si -7.35  4.30  8.88
Si  7.35 -4.30  8.88
Si  7.35  4.30  8.88
Si -7.35 -4.30 -8.88
Si -7.35  4.30 -8.88
Si  7.35 -4.30 -8.88
Si  7.35  4.30 -8.88
Si 10.76 -2.29  5.74
Si 10.76  2.29  5.74
Si 10.76 -2.29 -5.74
Si 10.76  2.29 -5.74
Si -10.76 -2.29  5.74
Si -10.76  2.29  5.74
Si -10.76 -2.29 -5.74
Si -10.76  2.29 -5.74
Si -9.72 -4.30  6.49
Si -9.72  4.30  6.49
Si -9.72 -4.30 -6.49
Si -9.72  4.30 -6.49
Si  9.72 -4.30  6.49
Si  9.72  4.30  6.49
Si  9.72 -4.30 -6.49
Si  9.72  4.30 -6.49
Si  4.27  5.47 -10.37
Si  4.27  5.47 10.37
Si -4.27  5.47 -10.37
Si -4.27  5.47 10.37
Si  4.27 -5.47 -10.37
Si  4.27 -5.47 10.37
Si -4.27 -5.47 -10.37
Si -4.27 -5.47 10.37
Si  2.22 -10.88  5.74
Si  2.22 10.88  5.74
Si -2.22 -10.88  5.74
Si -2.22 10.88  5.74
Si  2.22 -10.88 -5.74
Si  2.22 10.88 -5.74
Si -2.22 -10.88 -5.74
Si -2.22 10.88 -5.74
Si 10.76 -6.30  1.94
Si 10.76  6.30  1.94
Si 10.76 -6.30 -1.94
Si 10.76  6.30 -1.94
Si -10.76 -6.30  1.94
Si -10.76  6.30  1.94
Si -10.76 -6.30 -1.94
Si -10.76  6.30 -1.94
Si  6.31 -10.88  1.94
Si  6.31 10.88  1.94
Si  6.31 -10.88 -1.94
Si  6.31 10.88 -1.94
Si -6.31 -10.88  1.94
Si -6.31 10.88  1.94
Si -6.31 -10.88 -1.94
Si -6.31 10.88 -1.94
Si  4.27 11.72 -2.68
Si  4.27 11.72  2.68
Si -4.27 11.72 -2.68
Si -4.27 11.72  2.68
Si  4.27 -11.72  2.68
Si  4.27 -11.72 -2.68
Si -4.27 -11.72  2.68
Si -4.27 -11.72 -2.68
Si  3.04  9.78 -7.69
Si  3.04  9.78  7.69
Si -3.04  9.78  7.69
Si -3.04  9.78 -7.69
Si  3.04 -9.78  7.69
Si  3.04 -9.78 -7.69
Si -3.04 -9.78 -7.69
Si -3.04 -9.78  7.69
Si -9.74 -7.39  3.84
Si -9.74 -7.39 -3.84
Si  9.74 -7.39  3.84
Si  9.74 -7.39 -3.84
Si -9.74  7.39  3.84
Si -9.74  7.39 -3.84
Si  9.74  7.39  3.84
Si  9.74  7.39 -3.84
Si -7.33 -9.80  3.84
Si -7.33 -9.80 -3.84
Si  7.33 -9.80  3.84
Si  7.33 -9.80 -3.84
Si -7.33  9.80  3.84
Si -7.33  9.80 -3.84
Si  7.33  9.80  3.84
Si  7.33  9.80 -3.84
Si -1.18 -12.89  1.19
Si -1.18 12.89  1.19
Si -1.18 -12.89 -1.19
Si -1.18 12.89 -1.19
Si  1.18 -12.89  1.19
Si  1.18 12.89  1.19
Si  1.18 -12.89 -1.19
Si  1.18 12.89 -1.19
Si  6.31 -6.30  9.63
Si  6.31  6.30  9.63
Si -6.31 -6.30  9.63
Si -6.31  6.30  9.63
Si  6.31 -6.30 -9.63
Si  6.31  6.30 -9.63
Si -6.31 -6.30 -9.63
Si -6.31  6.30 -9.63
Si  4.27 11.72 -5.00
Si  4.27 11.72  5.00
Si -4.27 11.72 -5.00
Si -4.27 11.72  5.00
Si  4.27 -11.72  5.00
Si  4.27 -11.72 -5.00
Si -4.27 -11.72 -5.00
Si -4.27 -11.72  5.00
Si 12.80  3.12  2.68
Si 12.80  3.12 -2.68
Si -12.80  3.12 -2.68
Si -12.80  3.12  2.68
Si 12.80 -3.12  2.68
Si 12.80 -3.12 -2.68
Si -12.80 -3.12 -2.68
Si -12.80 -3.12  2.68
Si  5.49  9.78 -7.69
Si  5.49  9.78  7.69
Si -5.49  9.78  7.69
Si -5.49  9.78 -7.69
Si  5.49 -9.78 -7.69
Si  5.49 -9.78  7.69
Si -5.49 -9.78  7.69
Si -5.49 -9.78 -7.69
Si -7.33 -1.21 11.53
Si  7.33 -1.21 11.53
Si -7.33 -1.21 -11.53
Si  7.33 -1.21 -11.53
Si -7.33  1.21 11.53
Si  7.33  1.21 11.53
Si -7.33  1.21 -11.53
Si  7.33  1.21 -11.53
Si 10.76 -6.30  5.74
Si 10.76  6.30  5.74
Si 10.76 -6.30 -5.74
Si 10.76  6.30 -5.74
Si -10.76 -6.30  5.74
Si -10.76  6.30  5.74
Si -10.76 -6.30 -5.74
Si -10.76  6.30 -5.74
Si -1.21 -7.39 11.53
Si  1.21 -7.39 11.53
Si -1.21 -7.39 -11.53
Si  1.21 -7.39 -11.53
Si -1.21  7.39 11.53
Si  1.21  7.39 11.53
Si -1.21  7.39 -11.53
Si  1.21  7.39 -11.53
Si 11.58  7.41  0.00
Si 11.58 -7.41  0.00
Si -11.58  7.41  0.00
Si -11.58 -7.41  0.00
Si  4.27  3.12 -12.69
Si  4.27  3.12 12.69
Si -4.27  3.12 -12.69
Si -4.27  3.12 12.69
Si  4.27 -3.12 -12.69
Si  4.27 -3.12 12.69
Si -4.27 -3.12 -12.69
Si -4.27 -3.12 12.69
Si  2.22 -2.29 13.43
Si  2.22  2.29 13.43
Si -2.22 -2.29 13.43
Si -2.22  2.29 13.43
Si  2.22 -2.29 -13.43
Si  2.22  2.29 -13.43
Si -2.22 -2.29 -13.43
Si -2.22  2.29 -13.43
Si  6.31 -10.88  5.74
Si  6.31 10.88  5.74
Si  6.31 -10.88 -5.74
Si  6.31 10.88 -5.74
Si -6.31 -10.88  5.74
Si -6.31 10.88  5.74
Si -6.31 -10.88 -5.74
Si -6.31 10.88 -5.74
Si -9.72 -4.30  8.88
Si -9.72  4.30  8.88
Si -9.72 -4.30 -8.88
Si -9.72  4.30 -8.88
Si  9.72 -4.30  8.88
Si  9.72  4.30  8.88
Si  9.72 -4.30 -8.88
Si  9.72  4.30 -8.88
Si 11.58  1.18  7.69
Si 11.58  1.18 -7.69
Si 11.58 -1.18 -7.69
Si 11.58 -1.18  7.69
