500
set: 129.00  0.00  0.00
Si  0.01  0.00 -0.01
Si  1.92  0.99  0.75
Si  0.02 -2.16  0.80
Si -0.04  0.17 -2.31
Si -1.87  1.12  0.79
Si -1.88 -0.99 -3.00
Si -1.77  3.26 -0.05
Si  1.82 -0.99 -3.08
Si  0.01 -2.10  3.08
Si  1.82 -3.26 -0.07
Si  1.95  3.21  0.03
Si -3.76 -0.00  0.01
Si -1.88  1.12  3.06
Si -1.83 -3.31  0.02
Si  1.96  1.04  3.07
Si  3.83 -0.03 -0.04
Si  0.06  2.33 -3.20
Si -3.70 -2.18  0.73
Si -1.85 -3.20 -2.32
Si  3.72 -0.00 -2.29
Si  0.09  4.32  0.78
Si  0.07  2.12  3.84
Si -1.90 -1.09  3.82
Si  3.78 -2.18  0.71
Si -3.79  0.06 -2.29
Si  1.88 -3.25 -2.37
Si -1.86  3.26 -2.38
Si  1.92 -1.14  3.87
Si  2.02  3.29 -2.33
Si -3.71  2.13 -3.10
Si  3.78 -2.19  3.00
Si -0.02  4.34  3.10
Si -3.84 -2.17  3.02
Si -0.00 -4.39 -3.12
Si  3.83  2.15 -3.15
Si -3.69  4.32  0.76
Si -1.92 -1.15 -5.28
Si -0.04 -4.33  3.78
Si  3.79  4.28  0.77
Si -1.81 -5.46  0.76
Si  5.63  1.07  0.86
Si  1.84 -1.04 -5.40
Si  1.93 -5.42  0.74
Si -5.68  1.07  0.80
Si -3.76  2.26  3.88
Si  3.73  2.21  3.94
Si -0.00  2.18 -5.49
Si -5.57  3.22 -0.06
Si  0.01 -2.20 -6.08
Si  0.01  2.04  6.15
Si -3.75 -4.33 -3.05
Si -5.64 -1.09 -3.02
Si  5.57  1.09  3.16
Si  1.86  5.41 -3.08
Si -1.91  1.03 -6.14
Si  3.75  4.33  3.11
Si -5.68 -3.20  0.09
Si  0.07  6.52  0.01
Si -1.98  5.41 -3.08
Si  5.70  3.19  0.02
Si -1.95 -5.43  3.07
Si  1.90 -5.44  3.08
Si  3.83 -4.31 -3.09
Si -1.91 -1.11  6.16
Si  5.69 -1.11 -3.05
Si  0.09 -6.56  0.00
Si  1.94  1.11 -6.18
Si -3.81  4.39  3.08
Si  1.89 -1.21  6.18
Si -5.67  1.20  3.10
Si  5.70 -3.29  0.09
Si -5.55  3.26 -2.37
Si -0.05  6.48 -2.34
Si  5.59 -1.06  3.88
Si  3.80 -4.34  3.79
Si -0.07 -6.54 -2.28
Si -0.02 -0.11  6.92
Si -5.67 -1.01  3.84
Si -3.81 -4.33  3.83
Si -5.67 -3.26 -2.28
Si  5.70 -3.25 -2.25
Si -1.89  5.46  3.85
Si  5.68  3.23 -2.34
Si  1.88  5.41  3.94
Si -3.76  2.18 -5.42
Si -0.03 -4.38 -5.40
Si  3.79  2.13 -5.45
Si -0.06 -4.32  6.10
Si -3.80 -2.19 -6.06
Si  3.73 -2.14 -6.13
Si -3.75  6.50 -0.04
Si  7.51  0.05 -0.04
Si  3.80  6.49  0.03
Si -3.73 -6.56  0.03
Si -7.55  0.05 -0.04
Si  3.78 -6.54 -0.04
Si -3.80  2.21  6.18
Si  3.74  2.15  6.25
Si -0.06  4.38 -6.21
Si  1.84  5.31 -5.38
Si -1.87  7.53  0.77
Si  3.73 -6.47 -2.33
Si  3.71 -4.34 -5.37
Si -5.61 -5.42  0.82
Si  7.52 -2.10  0.82
Si -1.87  3.18  6.93
Si -7.51  0.07 -2.34
Si  3.70  6.55 -2.30
Si -7.54 -2.10  0.82
Si -5.71 -1.15 -5.30
Si -1.93  5.42 -5.38
Si -3.83 -6.49 -2.30
Si  5.65 -1.17 -5.38
Si -3.82 -4.40 -5.33
Si  7.55  0.07 -2.34
Si -1.93 -3.27  6.93
Si  1.92  7.62  0.82
Si  3.71 -0.05  6.98
Si  1.82  3.20  7.01
Si -3.82  0.01  6.94
Si  1.85 -3.38  6.93
Si  5.66 -5.51  0.77
Si -3.80  6.57 -2.33
Si  7.48 -2.02  3.06
Si -1.90  5.37  6.15
Si -1.93 -5.38 -6.12
Si  1.86  7.56  3.11
Si  3.73 -4.40  6.08
Si -5.66 -1.09  6.10
Si  5.63  5.42 -3.06
Si  1.85 -7.59 -3.09
Si -7.45  2.27 -3.15
Si -5.70  1.03 -6.09
Si  5.63  1.02 -6.16
Si  5.60 -1.04  6.19
Si -1.81  7.62  3.09
Si -7.58 -2.02  3.06
Si  1.83  5.38  6.22
Si -1.90 -7.62 -3.06
Si  3.73  4.29 -6.23
Si -5.68  5.45 -3.09
Si  5.72 -5.42  3.09
Si -3.86 -4.31  6.18
Si  1.87 -5.44 -6.21
Si -3.86  4.39 -6.13
Si -5.67 -5.49  3.11
Si  7.61  2.27 -3.15
Si -7.46  4.32  0.75
Si -0.04 -2.17 -8.40
Si  5.60  5.46  3.86
Si -1.93 -7.58  3.86
Si -5.69  5.41  3.81
Si  1.84 -7.63  3.81
Si  7.50  2.18  3.91
Si -1.93  1.11 -8.46
Si  0.07 -8.73  0.75
Si  1.84  1.06 -8.50
Si  7.60  4.32  0.75
Si -7.56  2.18  3.91
Si  7.45  4.35  3.08
Si  0.03  8.65 -3.07
Si -7.50 -4.39 -3.07
Si -0.09 -8.70  3.08
Si -0.09 -0.00 -9.24
Si  0.03 -0.04  9.24
Si  7.56 -4.39 -3.07
Si -7.61  4.35  3.08
Si -7.47 -4.26  3.80
Si  0.00 -6.51  6.82
Si  1.82 -7.54 -5.35
Si -3.81 -2.13 -8.37
Si  5.58 -3.24  6.90
Si  3.77 -2.08 -8.43
Si  9.38  1.07  0.80
Si -5.60  7.62  0.74
Si  5.58  5.46 -5.41
Si  7.44  2.24 -5.46
Si  7.59 -4.26  3.80
Si -0.08  6.59  6.85
Si -1.95 -7.59 -5.41
Si -9.43  1.07  0.86
Si  5.72  7.59  0.76
Si -5.68  3.31  6.91
Si -5.71 -3.19  6.96
Si  5.62  3.20  7.03
Si -3.74 -8.76  0.77
Si  3.84 -8.72  0.76
Si  0.07  8.78  3.80
Si -5.71  5.50 -5.35
Si -0.04  4.37 -8.53
Si -7.62  2.24 -5.46
Si  1.89  7.48 -6.13
Si -7.44  6.49  0.00
Si -9.36  3.19  0.02
Si  1.85 -3.15 -9.21
Si -1.97 -3.26 -9.15
Si  3.72 -8.66  3.08
Si -7.46 -6.52  0.01
Si -9.37 -1.11 -3.05
Si  9.38 -3.20  0.09
Si -1.83  9.75  0.09
Si -9.36 -3.29  0.09
Si  5.55 -7.63 -3.08
Si  5.59  7.61  3.07
Si -3.69  0.04  9.22
Si -5.59  5.46  6.13
Si  5.63  5.38  6.17
Si -1.91  7.58 -6.15
Si  1.94 -7.59  6.13
Si -5.63  7.60  3.08
Si -3.78 -0.02 -9.20
Si  9.42 -1.09 -3.02
Si  3.71  0.04 -9.24
Si  9.38  1.20  3.10
Si  5.62 -5.46 -6.15
Si  1.86 -3.28  9.23
Si  1.90  3.25 -9.23
Si -3.69  8.73 -3.09
Si  3.78  8.72 -3.05
Si -1.83  3.24  9.26
Si -1.95  3.26 -9.24
Si -1.98 -3.28  9.23
Si -3.78 -8.72  3.11
Si -7.53 -2.31 -6.16
Si -7.51  2.15  6.24
Si -5.68 -7.63 -3.08
Si  3.78  0.02  9.26
Si  7.53 -2.31 -6.16
Si  7.62  6.49  0.00
Si  1.96 -9.82 -0.06
Si  1.86  9.84  0.09
Si  7.60 -6.52  0.01
Si -5.64 -5.56 -6.13
Si  9.49  3.22 -0.06
Si  7.55  2.15  6.24
Si -1.83 -9.86  0.02
Si -1.91 -7.67  6.17
Si  1.89  3.25  9.29
Si -9.49  1.09  3.16
Si -0.02  8.58 -5.39
Si -3.74  6.48  6.87
Si  7.46  6.50 -2.28
Si -5.66  1.06 -8.37
Si -9.36 -3.25 -2.25
Si -9.38  3.23 -2.34
Si  1.85 -5.36 -8.47
Si  9.39 -1.01  3.84
Si  9.39 -3.26 -2.28
Si -3.72  8.70  3.79
Si -3.76 -6.52  6.89
Si  5.64 -7.58  3.85
Si  7.51 -0.03  6.91
Si -1.94 -5.41 -8.44
Si -1.82  9.79 -2.25
Si  3.77  6.53  6.89
Si -0.05 -2.22  9.97
Si  3.72  8.71  3.83
Si  1.86  9.78 -2.28
Si  7.47 -6.57 -2.34
Si  3.79 -6.56  6.87
Si  5.63  1.11 -8.46
Si -7.55 -0.03  6.91
Si -1.85 -9.81 -2.34
Si  1.86  1.09 10.03
Si -7.60  6.50 -2.28
Si  1.98 -9.79 -2.37
Si  7.51 -4.46 -5.39
Si -3.81  4.36 -8.48
Si -1.82  1.10 10.06
Si -9.47 -1.06  3.88
Si -5.66 -7.63  3.94
Si -7.55 -4.46 -5.39
Si  3.80  4.35 -8.53
Si -7.58 -6.57 -2.34
Si  9.51  3.26 -2.37
Si -0.03 -8.59 -6.13
Si  7.50 -4.24  6.18
Si -7.56 -4.24  6.18
Si  7.50  4.45 -6.13
Si -7.56  4.45 -6.13
Si -0.03  8.80  6.18
Si  9.35 -1.15 -5.30
Si  3.71  8.64 -5.33
Si  5.60 -7.62 -5.38
Si  3.70 -2.14 10.01
Si -3.80 -2.12  9.98
Si -9.41 -1.17 -5.38
Si  0.02  4.42  9.97
Si -3.82  8.71 -5.37
Si -9.40 -5.51  0.77
Si  9.45 -5.42  0.82
Si -0.01 10.94  0.82
Si -5.69 -7.73 -5.38
Si  0.06 -6.37  9.11
Si  9.36  1.03 -6.09
Si  3.67 -8.66 -6.13
Si  0.08 -10.77 -3.15
Si -3.80  8.64  6.08
Si -0.06 -6.37 -9.25
Si -11.23 -0.03 -0.04
Si -9.34 -5.42  3.09
Si  9.40 -1.09  6.10
Si -5.67  3.21 -9.20
Si  5.70  9.73  0.02
Si -5.57 -3.31 -9.24
Si  9.38  5.45 -3.09
Si  5.60  7.66 -6.12
Si  0.09  6.62  9.16
Si -9.43  5.42 -3.06
Si -5.68 -3.24  9.22
Si 11.30 -0.00  0.01
Si  5.65 -3.23 -9.25
Si -5.59 -9.83  0.03
Si -9.43  1.02 -6.16
Si  9.39 -5.49  3.11
Si  3.67  8.73  6.18
Si  5.63 -3.27  9.25
Si -5.71  9.78 -0.07
Si -5.66  7.60 -6.21
Si  5.71  3.27 -9.22
Si  5.63 -7.68  6.15
Si  0.01  6.59 -9.23
Si  5.75 -9.78 -0.05
Si -9.46 -1.04  6.19
Si -5.71  3.35  9.23
Si -3.81 -8.75 -6.23
Si -5.70 -7.67  6.22
Si  5.66  3.36  9.31
Si -0.05 11.02  3.06
Si -5.51 -9.75 -2.33
Si -1.86 -5.43  9.93
Si  9.37  5.41  3.81
Si -5.64  1.09  9.94
Si  1.91  7.55 -8.45
Si -7.44 -8.72  0.78
Si 11.27  0.06 -2.29
Si -7.47 -2.23 -8.47
Si -3.75 10.86  0.71
Si -11.28 -2.18  0.71
Si  2.02 -5.40  9.98
Si -5.62 -5.49 -8.45
Si -5.64  9.79 -2.37
Si  3.83 10.86  0.73
Si -0.04 -10.87  3.91
Si  5.63 -5.44 -8.49
Si -1.90  7.60 -8.49
Si  5.68  1.14  9.99
Si  5.67 -9.78 -2.38
Si -3.80  4.35 10.02
Si  0.07 -0.03 -11.56
Si -11.34 -0.00 -2.29
Si  3.74  4.41 10.02
Si -9.46  5.46  3.86
Si  7.59 -2.23 -8.47
Si 11.36 -2.18  0.73
Si  5.68  9.84 -2.32
Si  7.62 -8.72  0.78
Si 11.22 -2.17  3.02
Si -3.69  6.50  9.16
Si -11.23  2.15 -3.15
Si -3.74 10.86  3.00
Si  3.69 10.87  3.02
Si -11.28 -2.19  3.00
Si  7.51 -0.01 -9.21
Si  7.53 -0.04  9.19
Si -7.53 -0.04  9.19
Si  7.53  8.66 -3.12
Si -7.53  8.66 -3.12
Si  3.82  6.48  9.21
Si  3.83 -6.55  9.16
Si -3.71 -6.56  9.21
Si  7.51 -8.70  3.10
Si -7.55 -0.01 -9.21
Si -3.70 -10.90 -3.15
Si -7.55 -8.70  3.10
Si  3.69 -6.52 -9.29
Si 11.35  2.13 -3.10
Si  3.81 -10.91 -3.10
Si  3.78  6.51 -9.31
Si -3.75 -6.53 -9.31
Si -3.84  6.52 -9.29
Si  7.44 -6.45  6.85
Si -9.34  7.59  0.76
Si  3.77 -10.78  3.88
Si -1.90 -3.28 -11.45
Si -7.53  6.53  6.82
Si  1.85 -9.73  6.91
Si  7.53  6.53  6.82
Si -11.27  4.28  0.77
Si  9.36 -3.19  6.96
Si  7.49  8.71  3.78
Si  9.35  5.50 -5.35
Si -0.09 -10.80 -5.46
Si -7.62 -6.45  6.85
Si  9.38  3.31  6.91
Si  1.85 -3.28 -11.51
Si  0.06 -8.61 -8.51
Si -3.74 -0.07 -11.54
Si -1.81  3.24 -11.55
Si -3.81 -10.83  3.94
Si  1.85 -11.97  0.80
Si -1.94  9.80  6.90
Si -7.57  8.71  3.78
Si -1.90 -11.97  0.86
Si -7.47  4.43 -8.51
Si 11.30  2.26  3.88
Si -9.48 -3.24  6.90
Si  9.46  7.62  0.74
Si  3.84 -0.03 -11.55
Si  1.93  3.27 -11.57
Si 11.38  4.32  0.76
Si  1.83  9.85  6.96
Si -9.48  5.46 -5.41
Si -9.44  3.20  7.03
Si -11.33  2.21  3.94
Si  7.59  4.43 -8.51
Si -1.92 -9.84  7.03
Si  0.01 10.73 -6.16
Si  1.85 -11.85  3.10
Si -11.23 -4.31 -3.09
Si -1.84 11.93 -3.05
Si 11.25  4.39  3.08
Si  1.89 11.95 -3.02
Si  9.38 -7.63 -3.08
Si -1.83 -1.16 -12.29
Si 11.31 -4.33 -3.05
Si -9.43  5.38  6.17
Si  0.09  2.14 -12.31
Si  9.43  7.60  3.08
Si -11.30  4.33  3.11
Si  0.07 -2.17 12.32
Si -1.96 -11.95  3.16
Si -9.44 -5.46 -6.15
Si  9.47  5.46  6.13
Si -9.47  7.61  3.07
Si  9.42 -5.56 -6.13
Si  0.02 -10.89  6.24
Si -1.83  1.05 12.40
Si  1.96 -1.12 -12.37
Si -9.51 -7.63 -3.08
Si  1.86  1.15 12.40
Si -5.54 -5.44  9.94
Si  9.40  1.06 -8.37
Si -11.26 -4.34  3.79
Si 11.25 -4.33  3.83
Si -1.84  7.58  9.97
Si  7.51  8.66 -5.40
Si  1.99  7.61  9.94
Si  5.59  7.63 -8.44
Si  7.46 -2.19 10.03
Si  3.72 -8.68 -8.48
Si -9.42 -7.58  3.85
Si -11.27  2.13 -5.45
Si -7.55  8.66 -5.40
Si  5.68 -5.46  9.97
Si  3.77 -10.87 -5.42
Si -9.43  1.11 -8.46
Si 11.30  2.18 -5.42
Si -3.73 -8.69 -8.53
Si  9.40 -7.63  3.94
Si -1.93 11.98  3.88
Si -3.74 -10.91 -5.45
Si -5.67  7.68 -8.47
Si  1.86 12.03  3.84
Si -7.60 -2.19 10.03
Si  3.74 10.85 -6.06
Si 11.26 -2.19 -6.06
Si -11.26  6.49  0.03
Si -0.03 -13.00 -0.04
Si  7.47  8.72  6.10
Si -3.73  2.14 -12.28
Si  3.73 -10.83  6.18
Si  7.46 -8.67 -6.21
Si -3.74 -2.19 12.27
Si 11.26  2.21  6.18
Si -0.02  4.39 12.27
Si -11.28 -6.54 -0.04
Si 11.31  6.50 -0.04
Si -11.33 -2.14 -6.13
Si -7.59  8.72  6.10
Si -3.80 10.90 -6.13
Si -0.03 -4.30 -12.35
Si -0.02 13.09 -0.04
Si 11.33 -6.56  0.03
Si -7.60 -8.67 -6.21
Si  3.78  2.15 -12.35
Si  3.80 -2.21 12.34
Si -11.32  2.15  6.25
Si -3.79 -10.89  6.25
Si  1.82 11.89 -5.30
Si -0.04 -8.53 10.00
Si -1.87 11.87 -5.38
Si 11.23 -6.49 -2.30
Si -0.01 -6.45 -11.49
Si  0.02 -12.97 -2.34
Si -5.68  9.66  6.93
Si 11.24 -4.40 -5.33
Si -13.14  0.99  0.75
Si -5.61  3.27 -11.49
Si 11.24  0.01  6.94
