500
set: 1582.00  0.00  0.00
Si  0.23  0.98  1.10
Si -1.52 -1.36 -0.45
Si -1.72  1.10 -0.58
Si  1.93  1.10 -0.58
Si -1.58 -0.62  1.73
Si  2.12 -1.36 -0.45
Si  2.07 -0.62  1.73
Si  0.27 -2.49 -1.50
Si  0.56  3.24  1.68
Si -3.42  0.98  1.10
Si  0.97 -1.32 -3.46
Si  1.43  3.02 -2.04
Si -1.40  3.82  0.07
Si -1.31 -3.87  0.07
Si  3.87  0.98  1.10
Si -0.87  0.27 -4.09
Si -2.22  3.02 -2.04
Si  1.37 -1.79  3.69
Si -0.54  2.53 -3.52
Si  2.25  3.82  0.07
Si -3.38 -2.49 -1.50
Si  2.33 -3.87  0.07
Si -2.68 -1.32 -3.46
Si -2.28 -1.79  3.69
Si -3.08  3.24  1.68
Si  0.65 -4.45  1.68
Si -0.42 -0.66  4.75
Si  3.91 -2.49 -1.50
Si  2.77  0.27 -4.09
Si -0.61  1.81  4.61
Si -1.12  3.73  3.15
Si -1.03 -3.96  3.15
Si  1.51 -4.66 -2.04
Si  3.11  2.53 -3.52
Si -5.17 -1.36 -0.45
Si  0.18  5.19 -1.50
Si  2.53  3.73  3.15
Si -5.36  1.10 -0.58
Si -2.13 -4.66 -2.04
Si -5.22 -0.62  1.73
Si  4.21  3.24  1.68
Si -3.00 -4.45  1.68
Si  2.61 -3.96  3.15
Si  5.57  1.10 -0.58
Si  3.23 -0.66  4.75
Si  3.03  1.81  4.61
Si  0.83  0.40 -5.78
Si  4.61 -1.32 -3.46
Si  5.77 -1.36 -0.45
Si  5.71 -0.62  1.73
Si -4.18  2.53 -3.52
Si  1.02 -2.07 -5.64
Si  1.15  3.11 -5.12
Si -4.52  0.27 -4.09
Si -0.21 -3.16  5.26
Si  5.07  3.02 -2.04
Si -0.45 -5.16 -3.52
Si -4.07 -0.66  4.75
Si -4.96 -3.87  0.07
Si -5.04  3.82  0.07
Si  4.29 -4.45  1.68
Si -3.46  5.19 -1.50
Si -2.82  0.40 -5.78
Si  5.01 -1.79  3.69
Si -2.50  3.11 -5.12
Si -4.26  1.81  4.61
Si -1.61  6.32 -0.45
Si -2.62 -2.07 -5.64
Si  3.83  5.19 -1.50
Si  1.33  1.68  6.29
Si  2.04  6.32 -0.45
Si  0.31 -6.71  1.10
Si -1.63 -6.58 -0.58
Si -4.76  3.73  3.15
Si -4.68 -3.96  3.15
Si -5.86  3.02 -2.04
Si  2.02 -6.58 -0.58
Si -2.32  1.68  6.29
Si -0.48  0.09  6.92
Si -0.30  4.52  5.26
Si  1.23 -4.57 -5.12
Si  3.19 -5.16 -3.52
Si  5.89  3.82  0.07
Si  3.43 -3.16  5.26
Si  1.28  5.90  3.69
Si  5.98 -3.87  0.07
Si -5.92 -1.79  3.69
Si -7.06  0.98  1.10
Si  5.16 -4.66 -2.04
Si -3.86 -3.16  5.26
Si -2.41 -4.57 -5.12
Si  0.88  6.37 -3.46
Si  4.47  0.40 -5.78
Si -6.32 -1.32 -3.46
Si -2.36  5.90  3.69
Si -4.10 -5.16 -3.52
Si -1.66  7.07  1.73
Si -0.83 -3.20 -6.70
Si -0.53 -5.88  4.61
Si  1.98  7.07  1.73
Si -3.33 -6.71  1.10
Si -7.03 -2.49 -1.50
Si  0.33  2.32 -7.24
Si  4.67 -2.07 -5.64
Si  3.17  0.09  6.92
Si  6.42  0.27 -4.09
Si -6.73  3.24  1.68
Si  7.52  0.98  1.10
Si  4.79  3.11 -5.12
Si -5.78 -4.66 -2.04
Si  3.35  4.52  5.26
Si -2.76  6.37 -3.46
Si  3.96 -6.71  1.10
Si  6.17  3.73  3.15
Si  2.81 -3.20 -6.70
Si -3.94  4.52  5.26
Si  0.94  5.62 -5.64
Si  1.75 -3.74  6.87
Si  6.75  2.53 -3.52
Si  6.26 -3.96  3.15
Si -1.90 -3.74  6.87
Si -4.12  0.09  6.92
Si  3.12 -5.88  4.61
Si  1.66  3.94  6.87
Si  7.56 -2.49 -1.50
Si -0.92  4.49 -6.70
Si -1.98  3.94  6.87
Si -6.64 -4.45  1.68
Si  4.97  1.68  6.29
Si -5.25  6.32 -0.45
Si -3.32  2.32 -7.24
Si  6.67  1.81  4.61
Si  6.87 -0.66  4.75
Si -2.71  5.62 -5.64
Si  4.88 -4.57 -5.12
Si -5.28 -6.58 -0.58
Si -0.51  7.03  4.75
Si -0.79 -7.42 -4.09
Si  2.73  4.49 -6.70
Si  5.68  6.32 -0.45
Si  4.93  5.90  3.69
Si  4.53  6.37 -3.46
Si -4.17 -5.88  4.61
Si  3.97  2.32 -7.24
Si -6.14  3.11 -5.12
Si -1.49 -8.30  1.73
Si  7.85  3.24  1.68
Si -4.48 -3.20 -6.70
Si -6.46  0.40 -5.78
Si -6.27 -2.07 -5.64
Si  5.66 -6.58 -0.58
Si  0.14  8.66  1.10
Si  2.15 -8.30  1.73
Si  1.41 -6.00  6.29
Si -5.96  1.68  6.29
Si -0.13 -2.03 -8.66
Si -8.81 -1.36 -0.45
Si -7.11  5.19 -1.50
Si  2.86 -7.42 -4.09
Si -7.83  2.53 -3.52
Si  0.07 -3.25  8.34
Si -2.23 -6.00  6.29
Si -1.80  8.79 -0.58
Si  1.84  8.79 -0.58
Si -0.96  7.96 -4.09
Si -5.31  7.07  1.73
Si  0.41 -5.37 -7.24
Si -1.18 -1.08  8.88
Si  3.14  7.03  4.75
Si -1.64  1.83 -8.71
Si  8.26 -1.32 -3.46
Si -8.87 -0.62  1.73
Si -7.71 -0.66  4.75
Si -9.01  1.10 -0.58
Si  2.00  1.83 -8.71
Si -8.16  0.27 -4.09
Si -6.06 -4.57 -5.12
Si -1.44 -9.05 -0.45
Si  4.58  5.62 -5.64
Si -6.01  5.90  3.69
Si  5.63  7.07  1.73
Si  7.47  5.19 -1.50
Si  7.94 -4.45  1.68
Si  6.84 -5.16 -3.52
Si -4.57  4.49 -6.70
Si  2.47 -1.08  8.88
Si  9.22  1.10 -0.58
Si  2.21 -9.05 -0.45
Si -7.91  1.81  4.61
Si  2.69  7.96 -4.09
Si  0.91 -7.29 -5.78
Si  7.08 -3.16  5.26
Si -3.50  8.66  1.10
Si -8.60 -3.87  0.07
Si -4.15  7.03  4.75
Si  1.67 -0.43 -9.29
Si -0.02  4.43  8.34
Si  8.72  3.02 -2.04
Si -8.69  3.82  0.07
Si  5.39 -3.74  6.87
Si -1.97 -0.43 -9.29
Si  3.79  8.66  1.10
Si  9.41 -1.36 -0.45
Si  5.31  3.94  6.87
Si  9.36 -0.62  1.73
Si -4.43 -7.42 -4.09
Si  3.51 -2.03 -8.66
Si -3.23 -5.37 -7.24
Si  8.66 -1.79  3.69
Si -5.54 -3.74  6.87
Si -0.34 -8.34  4.75
Si -3.58 -3.25  8.34
Si -3.78 -2.03 -8.66
Si -6.41  6.37 -3.46
Si  3.71 -3.25  8.34
Si -2.73 -7.29 -5.78
Si -7.50 -3.16  5.26
Si  1.05 -9.01 -3.46
Si  6.81  0.09  6.92
Si -5.63  3.94  6.87
Si -8.41  3.73  3.15
Si -8.32 -3.96  3.15
Si -6.98 -6.71  1.10
Si  6.46 -3.20 -6.70
Si  6.99  4.52  5.26
Si  4.06 -5.37 -7.24
Si -5.14 -8.30  1.73
Si -7.74 -5.16 -3.52
Si  0.68  0.05  9.94
Si  0.74  8.08 -5.78
Si  8.12  0.40 -5.78
Si -2.59 -9.01 -3.46
Si  5.06 -6.00  6.29
Si -4.60  7.96 -4.09
Si  6.76 -5.88  4.61
Si  3.63  4.43  8.34
Si  0.48  2.51  9.80
Si -3.66  4.43  8.34
Si  3.31 -8.34  4.75
Si -4.82 -1.08  8.88
Si  8.80 -4.66 -2.04
Si -6.35  5.62 -5.64
Si -9.51  3.02 -2.04
Si  7.60 -6.71  1.10
Si  8.31 -2.07 -5.64
Si  1.45 -9.47  3.69
Si  9.54  3.82  0.07
Si  5.80 -8.30  1.73
Si  6.37  4.49 -6.70
Si -7.59  4.52  5.26
Si -0.39 -7.60  6.92
Si  0.35 -10.18 -1.50
Si -6.96  2.32 -7.24
Si -0.22  5.66 -8.66
Si -5.29  1.83 -8.71
Si  8.44  3.11 -5.12
Si -2.90  8.08 -5.78
Si -5.45  8.79 -0.58
Si  4.56 -7.29 -5.78
Si  9.62 -3.87  0.07
Si -2.96  0.05  9.94
Si  5.49  8.79 -0.58
Si -5.08 -9.05 -0.45
Si -3.98 -8.34  4.75
Si -2.19 -9.47  3.69
Si -7.77  0.09  6.92
Si -9.57 -1.79  3.69
Si -0.56  7.78  6.92
Si -5.88 -6.00  6.29
Si  5.65  1.83 -8.71
Si -0.70  9.49  4.61
Si  0.05  2.41 -10.32
Si -3.16  2.51  9.80
Si -1.55 -5.86 -8.71
Si -9.97 -1.32 -3.46
Si  6.50 -7.42 -4.09
Si  2.09 -5.86 -8.71
Si -9.42 -4.66 -2.04
Si  5.32 -0.43 -9.29
Si  4.70 -9.01 -3.46
Si  7.62  2.32 -7.24
Si  0.89 -2.46 10.46
Si  3.25 -7.60  6.92
Si  5.86 -9.05 -0.45
Si -3.29 -10.18 -1.50
Si  8.62  1.68  6.29
Si -10.71  0.98  1.10
Si -7.82 -5.88  4.61
Si -0.62 10.22 -3.52
Si  6.11 -1.08  8.88
Si  4.33  0.05  9.94
Si  3.08  7.78  6.92
Si  6.78  7.03  4.75
Si  4.39  8.08 -5.78
Si -5.62 -0.43 -9.29
Si 10.06  0.27 -4.09
Si  3.43  5.66 -8.66
Si  8.17  6.37 -3.46
Si -8.90  6.32 -0.45
Si  4.13  2.51  9.80
Si  8.52 -4.57 -5.12
Si  2.94  9.49  4.61
Si  9.82  3.73  3.15
Si  6.33  7.96 -4.09
Si -0.27 -0.31 -10.97
Si  1.34 10.71 -2.04
Si -10.37  3.24  1.68
Si -8.12 -3.20 -6.70
Si  4.00 -10.18 -1.50
Si  8.57  5.90  3.69
Si -3.86  5.66 -8.66
Si -4.04 -7.60  6.92
Si -10.67 -2.49 -1.50
Si  0.48 10.92  1.68
Si -2.76 -2.46 10.46
Si  0.57 -5.17  9.80
Si -8.92 -6.58 -0.58
Si  9.90 -3.96  3.15
Si -1.26  6.61  8.88
Si -2.31 10.71 -2.04
Si -0.08 -2.77 -10.84
Si -3.60  2.41 -10.32
Si  3.69  2.41 -10.32
Si  3.02 10.22 -3.52
Si -4.21  7.78  6.92
Si 11.16  0.98  1.10
Si 10.40  2.53 -3.52
Si -6.38 -7.29 -5.78
Si  9.33  6.32 -0.45
Si -7.15  8.66  1.10
Si  1.11 -9.76 -5.64
Si  2.38  6.61  8.88
Si -10.29 -4.45  1.68
Si -6.88 -5.37 -7.24
Si  1.24  9.37  6.29
Si  5.10 -9.47  3.69
Si  9.30 -6.58 -0.58
Si -4.35  9.49  4.61
Si  7.16 -2.03 -8.66
Si 10.32  1.81  4.61
Si  8.23  5.62 -5.64
Si  7.43  8.66  1.10
Si -9.79  3.11 -5.12
Si  3.37 -0.31 -10.97
Si -6.24 -9.01 -3.46
Si -3.17 10.92  1.68
Si -3.08 -5.17  9.80
Si -7.22 -3.25  8.34
Si -8.21  4.49 -6.70
Si -7.80  7.03  4.75
Si -2.40  9.37  6.29
Si -8.95  7.07  1.73
Si -2.54 -9.76 -5.64
Si 10.52 -0.66  4.75
Si 11.20 -2.49 -1.50
Si -7.42 -2.03 -8.66
Si  0.13 -5.28 -10.32
Si  7.36 -3.25  8.34
Si -9.91 -2.07 -5.64
Si -1.48 11.50  0.07
Si -9.61  1.68  6.29
Si -4.27 10.22 -3.52
Si -1.23 -11.55  0.07
Si -10.11  0.40 -5.78
Si -3.92 -0.31 -10.97
Si  4.53 -2.46 10.46
Si -8.08 -7.42 -4.09
Si  2.16 11.50  0.07
Si -5.20 -5.86 -8.71
Si  0.80  5.23 10.46
Si -5.84 -9.47  3.69
Si  3.57 -2.77 -10.84
Si -3.72 -2.77 -10.84
Si  9.27  7.07  1.73
Si -1.22  2.39 11.49
Si  4.12 10.92  1.68
Si  2.42 -11.55  0.07
Si  7.70 -5.37 -7.24
Si  6.96 -8.34  4.75
Si  4.22 -5.17  9.80
Si -9.70 -4.57 -5.12
Si  1.59  7.25 -9.29
Si -0.16  4.91 -10.84
Si -6.55  8.08 -5.78
Si -9.65  5.90  3.69
Si -1.20 11.41  3.15
Si  7.27  4.43  8.34
Si -6.61  0.05  9.94
Si -7.31  4.43  8.34
Si  8.95  3.94  6.87
Si  9.04 -3.74  6.87
Si  5.74 -5.86 -8.71
Si -2.06  7.25 -9.29
Si  2.43  2.39 11.49
Si  4.99 10.71 -2.04
Si  1.06 10.80 -5.12
Si -2.84  5.23 10.46
Si -10.76  5.19 -1.50
Si -0.13 -10.85  5.26
Si 11.50  3.24  1.68
Si -9.19 -3.74  6.87
Si  2.44 11.41  3.15
Si -0.95 -11.64  3.15
Si -3.51 -5.28 -10.32
Si -4.91  6.61  8.88
Si  0.62  0.80 12.12
Si -8.25  7.96 -4.09
Si  3.78 -5.28 -10.32
Si -6.80  2.51  9.80
Si -9.27  3.94  6.87
Si 10.48 -5.16 -3.52
Si -8.78 -8.30  1.73
Si -2.58 10.80 -5.12
Si  4.75 -9.76 -5.64
Si -7.63 -8.34  4.75
Si -11.47  2.53 -3.52
Si  0.73 -12.13  1.68
Si  4.89  9.37  6.29
Si  8.71 -6.00  6.29
Si -8.47 -1.08  8.88
Si -11.36 -0.66  4.75
Si  0.24 10.00 -7.24
Si 10.72 -3.16  5.26
Si  2.70 -11.64  3.15
Si 11.12  5.19 -1.50
Si  6.90 -7.60  6.92
Si -10.05  6.37 -3.46
Si  3.48  4.91 -10.84
Si  6.73  7.78  6.92
Si  8.21 -7.29 -5.78
Si -6.94 -10.18 -1.50
Si -5.95 10.71 -2.04
Si  6.59  9.49  4.61
Si  1.76 -8.12 -9.29
Si 11.90 -1.32 -3.46
Si -0.80 -3.04 12.07
Si -1.89 -8.12 -9.29
Si -3.81  4.91 -10.84
Si -11.81  0.27 -4.09
Si -6.40 -2.46 10.46
Si  4.45  5.23 10.46
Si -3.02  0.80 12.12
Si 11.58 -4.45  1.68
Si -1.09 -8.77  8.88
Si  7.07  5.66 -8.66
Si 10.10 -3.20 -6.70
Si -12.46 -1.36 -0.45
Si -4.87 -11.55  0.07
Si 10.46  0.09  6.92
Si -0.78  1.61 -12.43
Si  0.77 -7.64  9.94
Si  3.52 -10.85  5.26
Si -11.55  1.81  4.61
Si -8.73 -9.05 -0.45
Si  1.62  3.78 -11.89
Si -2.91 -12.13  1.68
Si -5.13 11.50  0.07
Si  6.03  6.61  8.88
Si -8.93  1.83 -8.71
Si  0.59  7.73  9.94
Si -10.62 -6.71  1.10
Si  1.60 -12.35 -2.04
Si  1.71 -3.90 -11.89
Si -3.77 -10.85  5.26
Si -2.02  3.78 -11.89
Si -12.51 -0.62  1.73
Si -9.09  8.79 -0.58
Si -1.94 -3.90 -11.89
Si -2.05 -12.35 -2.04
Si  9.13  8.79 -0.58
Si  9.44 -8.30  1.73
Si  6.67 10.22 -3.52
Si -4.86  2.39 11.49
Si -1.13 -5.30 11.49
Si 10.64  4.52  5.26
Si -12.65  1.10 -0.58
Si -11.15 -3.16  5.26
Si  2.55 -8.77  8.88
Si  7.97  0.05  9.94
Si  8.34 -9.01 -3.46
Si  7.78  2.51  9.80
Si  2.85 -3.04 12.07
Si  8.03  8.08 -5.78
Si -10.00  5.62 -5.64
Si -7.51  5.66 -8.66
Si -4.85 11.41  3.15
Si -0.75 -10.88 -6.70
Si -6.05  9.37  6.29
Si -3.40 10.00 -7.24
Si 10.40 -5.88  4.61
Si  7.64 -10.18 -1.50
Si -7.68 -7.60  6.92
Si -7.24  2.41 -10.32
Si -12.25 -3.87  0.07
Si  4.71 10.80 -5.12
Si -6.18 -9.76 -5.64
Si 10.02  4.49 -6.70
Si  2.87  1.61 -12.43
Si -2.88 -7.64  9.94
Si  9.30  1.83 -8.71
