500
set: 1160.00  0.00  0.00
Si -0.01  0.05 -0.03
Si  0.07  0.01  2.32
Si  0.01 -0.01 -2.36
Si -2.47  0.02  0.01
Si  1.23 -2.17 -0.05
Si  1.25  2.16 -0.00
Si -1.24 -2.17  0.04
Si  2.54 -0.03 -0.06
Si -1.30  2.19 -0.01
Si  2.47  0.01  2.29
Si -1.18 -2.15  2.37
Si -1.22 -2.17 -2.35
Si -2.50 -0.02 -2.33
Si -1.25  2.15 -2.36
Si -2.45  0.03  2.40
Si  1.26 -2.14 -2.37
Si  1.26 -2.19  2.34
Si  1.27  2.17  2.36
Si -1.27  2.19  2.35
Si  1.28  2.20 -2.34
Si  2.54  0.02 -2.40
Si  0.01  4.26  0.02
Si  3.71 -2.16 -0.02
Si  0.02 -4.30  0.02
Si -3.73 -2.16  0.01
Si  3.71  2.23  0.00
Si -3.81  2.15 -0.02
Si -0.07  0.04 -4.71
Si -0.07  0.04  4.72
Si  3.71  2.06  2.37
Si  3.72 -2.16  2.32
Si -3.72  2.12 -2.38
Si -0.04  4.32 -2.34
Si -3.75 -2.16 -2.33
Si  0.01 -4.36 -2.32
Si -2.47 -4.27  0.04
Si  0.04 -4.35  2.35
Si -3.71 -2.21  2.41
Si -3.83  2.15  2.29
Si  3.77 -2.17 -2.39
Si  2.50 -4.30 -0.04
Si  0.01  4.39  2.35
Si -4.99  0.03  0.03
Si  4.99  0.03  0.03
Si  3.82  2.19 -2.37
Si -2.50  4.34 -0.04
Si  2.51  4.37  0.04
Si  2.41 -0.02  4.64
Si -2.49 -0.02 -4.67
Si  1.22 -2.10 -4.71
Si  1.22 -2.10  4.72
Si  1.29  2.17 -4.68
Si -1.24  2.14  4.71
Si -1.24  2.14 -4.72
Si -1.21 -2.21 -4.69
Si  2.41 -0.02 -4.79
Si -2.49 -0.02  4.76
Si -1.21 -2.21  4.74
Si  1.29  2.17  4.75
Si  4.93  0.01 -2.36
Si  2.49  4.32 -2.30
Si -2.50 -4.32 -2.30
Si -2.48  4.30 -2.38
Si -2.49  4.31  2.34
Si -4.97 -0.09  2.40
Si  2.50 -4.33  2.34
Si  2.52  4.28  2.42
Si  2.51 -4.34 -2.38
Si  5.01 -0.09  2.40
Si -2.47 -4.36  2.42
Si -5.05  0.01 -2.36
Si -0.10  4.28  4.68
Si  0.02 -4.32 -4.67
Si  3.73 -2.14  4.69
Si -3.74 -2.13 -4.69
Si -3.77  2.19  4.66
Si  3.77  2.09 -4.71
Si  3.77  2.09  4.72
Si -0.10  4.28 -4.75
Si  3.73 -2.14 -4.75
Si -3.74 -2.13  4.74
Si  0.02 -4.32  4.77
Si -3.77  2.19 -4.78
Si  6.17  2.15 -0.02
Si -1.27 -6.42  0.00
Si  1.18 -6.49 -0.02
Si -4.97  4.34  0.02
Si  1.26  6.48  0.01
Si -1.28  6.48 -0.02
Si  6.25 -2.16  0.01
Si  5.01  4.34  0.02
Si -6.27 -2.16 -0.02
Si -4.98 -4.38  0.02
Si  5.00 -4.38  0.02
Si -6.27  2.23  0.00
Si -2.52 -4.27 -4.66
Si  2.47  4.37 -4.66
Si  4.98  0.03 -4.70
Si -2.51  4.32  4.71
Si  2.48 -4.33  4.71
Si  4.98  0.03  4.73
Si -5.00  0.03 -4.70
Si -2.51  4.32 -4.72
Si  2.48 -4.33 -4.72
Si -2.52 -4.27  4.78
Si -5.00  0.03  4.73
Si  6.15  2.15  2.29
Si  2.47  4.37  4.78
Si -4.97 -4.25  2.35
Si -6.17  2.19 -2.37
Si -4.95  4.29  2.35
Si -4.99  4.29 -2.32
Si -1.17 -6.45 -2.37
Si  4.95 -4.32 -2.34
Si  5.00 -4.25  2.35
Si  5.00  4.29 -2.32
Si  1.16 -6.50  2.29
Si  1.27  6.44  2.41
Si  6.22 -2.16 -2.33
Si  1.23  6.48 -2.33
Si -6.21 -2.17 -2.39
Si -1.27  6.49  2.32
Si -1.22  6.47 -2.39
Si -6.27  2.06  2.37
Si -6.26 -2.16  2.32
Si  5.03  4.29  2.35
Si  6.26  2.12 -2.38
Si -5.03 -4.32 -2.34
Si  1.27 -6.53 -2.38
Si  6.27 -2.21  2.41
Si  0.01 -0.01  7.08
Si -1.27 -6.58  2.37
Si  0.07  0.01 -7.11
Si  3.69 -6.45 -0.01
Si -7.44 -0.03 -0.06
Si -2.45  0.03 -7.03
Si -1.18 -2.15 -7.06
Si  3.75  6.47  0.04
Si  2.54  0.02  7.04
Si  1.26 -2.14  7.06
Si -3.74 -6.49 -0.00
Si -3.77  6.48 -0.05
Si -1.25  2.15  7.07
Si  7.51  0.02  0.01
Si -1.22 -2.17  7.08
Si  1.27  2.17 -7.08
Si  1.26 -2.19 -7.09
Si -2.50 -0.02  7.10
Si -1.27  2.19 -7.09
Si  1.28  2.20  7.09
Si  2.47  0.01 -7.14
Si -3.71 -6.44 -2.34
Si  3.72 -6.45  2.35
Si -7.44  0.02 -2.40
Si -3.73  6.46  2.34
Si -3.72 -6.47  2.36
Si  7.48 -0.02 -2.33
Si -7.51  0.01  2.29
Si  3.77  6.48 -2.35
Si  3.74 -6.49 -2.36
Si -3.73  6.50 -2.37
Si  3.81  6.50  2.37
Si  7.53  0.03  2.40
Si  1.22 -6.45  4.66
Si  4.90 -4.36  4.68
Si  6.21  2.19  4.66
Si -6.21  2.09 -4.71
Si -6.21  2.09  4.72
Si -4.98  4.33 -4.67
Si  6.24 -2.13 -4.69
Si  5.00  4.33 -4.67
Si  4.90 -4.36 -4.75
Si -6.25 -2.14  4.69
Si -1.26  6.50  4.69
Si  1.22 -6.45 -4.78
Si  6.24 -2.13  4.74
Si  1.25  6.51 -4.69
Si -6.25 -2.14 -4.75
Si -4.98  4.33  4.77
Si  6.21  2.19 -4.78
Si -1.26  6.50 -4.75
Si  1.25  6.51  4.74
Si  5.00  4.33  4.77
Si -1.22 -6.55 -4.71
Si -1.22 -6.55  4.72
Si -5.08 -4.36  4.68
Si -5.08 -4.36 -4.75
Si  3.71  2.06 -7.06
Si -3.71 -2.21 -7.03
Si -3.72  2.12  7.06
Si  3.77 -2.17  7.04
Si -0.04  4.32  7.09
Si  0.04 -4.35 -7.08
Si  3.72 -2.16 -7.12
Si -3.75 -2.16  7.10
Si  3.82  2.19  7.06
Si  0.01  4.39 -7.08
Si  0.01 -4.36  7.11
Si -3.83  2.15 -7.14
Si  2.52  4.28 -7.01
Si -4.97 -0.09 -7.03
Si  0.01 -8.62  0.03
Si -2.47 -4.36 -7.01
Si -2.48  4.30  7.05
Si  4.93  0.01  7.07
Si -7.49 -4.30 -0.04
Si  5.01 -0.09 -7.03
Si  7.51 -4.27  0.04
Si -7.47  4.37  0.04
Si  7.48  4.34 -0.04
Si  2.51 -4.34  7.05
Si -2.49  4.31 -7.09
Si  0.00  8.67  0.03
Si  2.50 -4.33 -7.09
Si -5.05  0.01  7.07
Si  2.49  4.32  7.13
Si -2.50 -4.32  7.13
Si -3.70 -6.47 -4.68
Si  3.78  6.43 -4.69
Si  7.49 -0.02 -4.67
Si  3.78  6.43  4.74
Si -3.70 -6.47  4.75
Si  3.75 -6.50  4.71
Si  3.75 -6.50 -4.72
Si  7.49 -0.02  4.76
Si -7.57 -0.02  4.64
Si  0.02  8.56  2.40
Si -3.77  6.54 -4.71
Si -3.77  6.54  4.72
Si -7.46  4.28  2.42
Si  7.48 -4.32 -2.30
Si  8.68  2.19 -0.01
Si  7.49  4.31  2.34
Si -0.05 -8.64 -2.36
Si -7.49  4.32 -2.30
Si -2.46  8.61 -0.06
Si -7.57 -0.02 -4.79
Si -7.48 -4.33  2.34
Si -7.47 -4.34 -2.38
Si -0.06  8.65 -2.36
Si  7.50  4.30 -2.38
Si  6.21  6.48 -0.05
Si  2.52 -8.62  0.01
Si -6.24  6.47  0.04
Si -8.73  2.16 -0.00
Si  6.24 -6.49 -0.00
Si  8.74 -2.17  0.04
Si -6.29 -6.45 -0.01
Si -2.45 -8.68 -0.06
Si  7.51 -4.36  2.42
Si -8.76 -2.17 -0.05
Si  2.52  8.66  0.01
Si  0.03 -8.73  2.40
Si -6.17  6.50  2.37
Si  2.49  8.62 -2.33
Si -8.70  2.20 -2.34
Si -6.21  6.48 -2.35
Si -8.71  2.17  2.36
Si -2.45 -8.63 -2.40
Si -2.51 -8.64  2.29
Si  8.71  2.19  2.35
Si  6.25  6.46  2.34
Si  6.27 -6.44 -2.34
Si -8.72 -2.14 -2.37
Si -6.26 -6.45  2.35
Si -2.52  8.65  2.29
Si -8.72 -2.19  2.34
Si  2.54 -8.61  2.40
Si  8.73  2.15 -2.36
Si -6.24 -6.49 -2.36
Si  6.26 -6.47  2.36
Si  2.49 -8.66 -2.33
Si -2.45  8.66 -2.40
Si  6.25  6.50 -2.37
Si  8.76 -2.17 -2.35
Si  2.54  8.67  2.40
Si  8.80 -2.15  2.37
Si -0.01  0.05  9.40
Si -0.01  0.05 -9.47
Si  1.27  6.44 -7.03
Si -6.17  2.19  7.06
Si -1.17 -6.45  7.06
Si -6.21 -2.17  7.04
Si -4.97 -4.25 -7.08
Si -1.22  6.47  7.04
Si -4.95  4.29 -7.08
Si  5.00 -4.25 -7.08
Si  6.15  2.15 -7.14
Si -6.27  2.06 -7.06
Si  6.26  2.12  7.06
Si  6.27 -2.21 -7.03
Si  4.95 -4.32  7.09
Si -4.99  4.29  7.11
Si  6.22 -2.16  7.10
Si  5.03  4.29 -7.08
Si  5.00  4.29  7.11
Si  1.23  6.48  7.10
Si  1.27 -6.53  7.06
Si  1.23 -2.17  9.38
Si  2.54 -0.03  9.37
Si -1.27  6.49 -7.12
Si -5.03 -4.32  7.09
Si -6.26 -2.16 -7.12
Si  1.16 -6.50 -7.14
Si -1.24 -2.17 -9.40
Si -1.27 -6.58 -7.06
Si -2.47  0.02 -9.43
Si  1.25  2.16  9.43
Si -2.47  0.02  9.44
Si  1.25  2.16 -9.43
Si -1.30  2.19  9.42
Si  7.46 -4.27 -4.66
Si -1.30  2.19 -9.44
Si -1.24 -2.17  9.47
Si  1.23 -2.17 -9.49
Si -0.01 -8.61 -4.70
Si -0.01 -8.61  4.73
Si  2.54 -0.03 -9.49
Si  7.47  4.32  4.71
Si  7.47  4.32 -4.72
Si  7.46 -4.27  4.78
Si -7.50 -4.33  4.71
Si -7.50 -4.33 -4.72
Si -7.51  4.37 -4.66
Si -0.01  8.67 -4.70
Si -0.01  8.67  4.73
Si -7.51  4.37  4.78
Si  4.98 -8.59 -0.03
Si -5.00 -8.59 -0.03
Si  9.97  0.05 -0.03
Si -9.99  0.05 -0.03
Si  4.98  8.69 -0.03
Si -5.00  8.69 -0.03
Si -6.20  6.43 -4.69
Si -8.69  2.17 -4.68
Si -6.20  6.43  4.74
Si  2.50  8.62 -4.67
Si -2.58  8.62  4.64
Si -8.69  2.17  4.75
Si  2.50 -8.66 -4.67
Si  8.74  2.14  4.71
Si -2.57 -8.66  4.64
Si  2.50  8.62  4.76
Si  8.74  2.14 -4.72
Si  6.28 -6.47 -4.68
Si -6.23 -6.50  4.71
Si -8.76 -2.10 -4.71
Si -6.23 -6.50 -4.72
Si -8.76 -2.10  4.72
Si  6.21  6.54 -4.71
Si  6.21  6.54  4.72
Si -9.91  0.01  2.32
Si  8.77 -2.21 -4.69
Si -2.58  8.62 -4.79
Si  2.50 -8.66  4.76
Si  6.28 -6.47  4.75
Si -4.92 -8.63  2.32
Si  8.77 -2.21  4.74
Si -4.93  8.65  2.32
Si -2.57 -8.66 -4.79
Si -7.44  0.02  7.04
Si -4.98  8.64 -2.36
Si -9.97 -0.01 -2.36
Si  5.00  8.64 -2.36
Si -4.98 -8.65 -2.36
Si  9.99 -0.01 -2.36
Si  5.00 -8.65 -2.36
Si  5.06 -8.63  2.32
Si -3.71 -6.44  7.09
Si  3.72 -6.45 -7.09
Si -3.72 -6.47 -7.08
Si  5.05  8.65  2.32
Si -3.73  6.46 -7.09
Si -3.73  6.50  7.06
Si  7.53  0.03 -7.03
Si  3.74 -6.49  7.07
Si  7.48 -0.02  7.10
Si 10.05  0.01  2.32
Si  3.77  6.48  7.08
Si  3.81  6.50 -7.06
Si  0.01  4.26 -9.41
Si  3.71 -2.16  9.42
Si  0.02 -4.30 -9.42
Si -3.73 -2.16 -9.42
Si -7.51  0.01 -7.14
Si  0.01  4.26  9.45
Si  3.71  2.23 -9.43
Si  3.71 -2.16 -9.45
Si  0.02 -4.30  9.45
Si -3.73 -2.16  9.44
Si -3.81  2.15  9.41
Si  3.71  2.23  9.44
Si -3.81  2.15 -9.45
Si -2.47 -4.27 -9.39
Si  2.50 -4.30  9.39
Si -2.50  4.34  9.39
Si -4.99  0.03 -9.40
Si  4.99  0.03 -9.40
Si  2.51  4.37 -9.39
Si -2.47 -4.27  9.47
Si -4.99  0.03  9.46
Si  4.99  0.03  9.46
Si  2.50 -4.30 -9.48
Si -2.50  4.34 -9.48
Si  2.51  4.37  9.47
Si  8.71 -6.42  0.00
Si -9.97  4.26  0.02
Si -9.96 -4.30  0.02
Si  8.70  6.48 -0.02
Si  1.18 10.79 -0.02
Si  9.99  4.26  0.02
Si -8.72  6.48  0.01
Si  1.26 -10.80  0.01
Si -1.28 -10.80 -0.02
Si 10.00 -4.30  0.02
Si -8.80 -6.49 -0.02
Si -1.28 10.87  0.00
Si  9.91  0.04 -4.71
Si  4.92 -8.61 -4.71
Si  9.91  0.04  4.72
Si  4.92 -8.61  4.72
Si  4.92  8.68 -4.71
Si -1.28 10.70  2.37
Si  4.92  8.68  4.72
Si -5.06 -8.61 -4.71
Si -5.06 -8.61  4.72
Si  0.02  8.56 -7.03
Si  9.94  4.32 -2.34
Si  1.16 10.79  2.29
Si  1.27 10.76 -2.38
Si -8.71  6.44  2.41
Si -5.06  8.68 -4.71
Si -7.46  4.28 -7.01
Si -10.05  0.04 -4.71
Si -5.06  8.68  4.72
Si -9.94 -4.35  2.35
Si  8.71  6.49  2.32
Si -10.05  0.04  4.72
Si -1.27 -10.80  2.32
Si  1.24 -10.80 -2.33
Si -9.97 -4.36 -2.32
Si -8.75  6.48 -2.33
Si -8.71 -6.53 -2.38
Si  9.99 -4.36 -2.32
Si -1.22 -10.81 -2.39
Si -9.97  4.39  2.35
Si  8.76  6.47 -2.39
Si -1.18 10.83 -2.37
Si -7.47 -4.34  7.05
Si  7.50  4.30  7.05
Si -10.02  4.32 -2.34
Si  7.51 -4.36 -7.01
Si -0.05 -8.64  7.07
Si  9.99  4.39  2.35
Si  8.71 -6.58  2.37
Si 10.02 -4.35  2.35
Si  8.81 -6.45 -2.37
Si -0.06  8.65  7.07
Si  7.49  4.31 -7.09
Si -7.48 -4.33 -7.09
Si  1.28 -10.85  2.41
Si -8.82 -6.50  2.29
Si  7.48 -4.32  7.13
Si  0.03 -8.73 -7.03
Si -7.49  4.32  7.13
Si -2.45 -8.63  7.04
Si -7.46 -8.62  0.01
Si  2.54 -8.61 -7.03
Si -6.17  6.50 -7.06
Si 11.21 -2.17 -0.05
Si -2.45  8.66  7.04
Si -8.72 -2.14  7.06
Si -8.71  2.17 -7.08
Si -3.74 10.80 -0.00
Si -11.22 -2.17  0.04
Si -6.21  6.48  7.08
Si 11.23  2.16 -0.00
Si  7.53  8.61 -0.06
Si -7.47  8.66  0.01
Si  2.49  8.62  7.10
Si  8.73  2.15  7.07
Si  8.71  2.19 -7.09
Si -8.70  2.20  7.09
Si  6.25  6.46 -7.09
Si -3.76 -10.81 -0.05
Si  3.69 10.84 -0.01
Si -6.26 -6.45 -7.09
Si  3.75 -10.81  0.04
Si -6.24 -6.49  7.07
Si  2.54  8.67 -7.03
Si -8.72 -2.19 -7.09
Si  6.27 -6.44  7.09
Si  6.26 -6.47 -7.08
Si  6.25  6.50  7.06
Si  6.17  2.15  9.41
Si  8.76 -2.17  7.08
Si  2.49 -8.66  7.10
Si -1.27 -6.42 -9.43
Si -1.27 -6.42  9.44
Si  8.80 -2.15 -7.06
