500
set: 1169.00  0.00  0.00
Si  0.01  0.35 -1.12
Si -0.11 -0.06  1.48
Si  2.21  0.29  1.34
Si  1.10 -2.08 -1.20
Si -1.56 -2.06 -1.03
Si -2.63  0.22 -1.00
Si  2.72  0.22 -1.00
Si  1.10 -2.40  1.28
Si -1.66 -1.91  1.53
Si -1.52  2.25  1.28
Si  1.18  2.59 -1.03
Si -1.52  2.58 -1.20
Si  1.07  2.74  1.53
Si -0.18 -0.15 -3.42
Si -3.15  0.29  1.34
Si  0.08  0.44  3.77
Si  2.14  0.20 -3.55
Si -1.73 -2.00 -3.36
Si  1.17 -1.99  3.69
Si  1.00  2.65 -3.36
Si  3.70 -1.91  1.53
Si  3.80 -2.06 -1.03
Si -1.59  2.16 -3.61
Si  1.03 -2.50 -3.61
Si -0.01 -4.43 -1.00
Si -1.49 -1.97  3.86
Si -0.52 -4.36  1.34
Si  3.84  2.25  1.28
Si -2.56  0.31  3.89
Si  3.83  2.58 -1.20
Si -1.45  2.67  3.69
Si -3.22  0.20 -3.55
Si  2.79  0.31  3.89
Si  1.25  2.69  3.86
Si -4.26 -2.08 -1.20
Si  0.10  4.87 -1.00
Si -4.18  2.59 -1.03
Si -4.25 -2.40  1.28
Si -0.41  4.94  1.34
Si  2.63 -4.30 -1.12
Si -2.72 -4.30 -1.12
Si -4.28  2.74  1.53
Si  3.62 -2.00 -3.36
Si  5.25 -0.06  1.48
Si -5.34  0.35 -1.12
Si  2.62  4.59  1.48
Si  5.37  0.35 -1.12
Si  2.51 -4.71  1.48
Si -2.73  4.59  1.48
Si  3.77  2.16 -3.61
Si -5.47 -0.06  1.48
Si -2.85 -4.71  1.48
Si -0.59 -4.45 -3.55
Si -2.61  5.00 -1.12
Si  3.87 -1.97  3.86
Si  2.75  5.00 -1.12
Si  0.06 -4.34  3.89
Si -4.18 -1.99  3.69
Si  3.90  2.67  3.69
Si -0.06  0.26 -6.01
Si -0.48  4.85 -3.55
Si -4.35  2.65 -3.36
Si -4.32 -2.50 -3.61
Si  2.55  4.50 -3.42
Si  5.17 -0.15 -3.42
Si -2.65 -4.21  3.77
Si -4.11  2.69  3.86
Si  2.71 -4.21  3.77
Si  0.17  4.96  3.89
Si -2.80  4.50 -3.42
Si -0.04  0.03  6.37
Si  2.44 -4.80 -3.42
Si  2.65  0.13 -5.89
Si -2.71  0.13 -5.89
Si -5.27  0.44  3.77
Si -1.63 -2.15 -5.92
Si -5.54 -0.15 -3.42
Si  1.10  2.50 -5.92
Si  1.03 -2.17 -6.09
Si -2.92 -4.80 -3.42
Si  5.44  0.44  3.77
Si  4.83 -4.36  1.34
Si  2.28  0.38  6.24
Si  1.18 -2.31  6.17
Si -1.45  2.34  6.17
Si -1.59  2.48 -6.09
Si  0.96 -6.57  1.53
Si -2.54  5.10  3.77
Si -1.59 -1.82  6.42
Si  1.06 -6.71 -1.03
Si  6.46 -2.08 -1.20
Si  2.82  5.10  3.77
Si -3.08  0.38  6.24
Si  6.46 -2.40  1.28
Si  5.34 -4.43 -1.00
Si -1.63 -6.73 -1.20
Si -5.37 -4.43 -1.00
Si  6.53  2.59 -1.03
Si  1.15  2.83  6.42
Si  4.94  4.94  1.34
Si  1.22  6.90  1.28
Si  6.43  2.74  1.53
Si -5.26  4.87 -1.00
Si -6.92 -2.06 -1.03
Si  3.73 -2.15 -5.92
Si -6.87  2.25  1.28
Si -1.63 -7.06  1.28
Si  5.46  4.87 -1.00
Si  4.76 -4.45 -3.55
Si  1.21  7.23 -1.20
Si -0.08 -4.52 -5.89
Si -7.02 -1.91  1.53
Si -6.88  2.58 -1.20
Si -5.88 -4.36  1.34
Si -1.45  7.25 -1.03
Si  0.89 -6.66 -3.36
Si -0.45 -4.27  6.24
Si  3.76  2.48 -6.09
Si  0.03  4.78 -5.89
Si  6.36  2.65 -3.36
Si  3.77 -1.82  6.42
Si  3.91  2.34  6.17
Si  7.57  0.29  1.34
Si -1.55  7.39  1.53
Si -4.25  2.50 -5.92
Si -5.77  4.94  1.34
Si  4.87  4.85 -3.55
Si  1.13 -6.62  3.86
Si  6.39 -2.50 -3.61
Si -1.56 -6.64  3.69
Si  6.53 -1.99  3.69
Si -4.33 -2.17 -6.09
Si  3.72 -6.73 -1.20
Si  1.15  6.81 -3.61
Si -4.18 -2.31  6.17
Si  2.56 -4.39 -6.01
Si -5.30 -4.34  3.89
Si -2.79 -4.39 -6.01
Si  5.41 -4.34  3.89
Si  5.30  0.26 -6.01
Si -0.34  5.03  6.24
Si -4.29 -6.71 -1.03
Si -4.39 -6.57  1.53
Si -7.99  0.22 -1.00
Si  3.73 -7.06  1.28
Si -5.41  0.26 -6.01
Si -7.09 -2.00 -3.36
Si -6.84 -1.97  3.86
Si  6.60  2.69  3.86
Si -6.95  2.16 -3.61
Si  8.08  0.22 -1.00
Si -4.14  6.90  1.28
Si -5.19  4.96  3.89
Si -4.21  2.83  6.42
Si -1.70 -7.15 -3.61
Si -6.81  2.67  3.69
Si -1.62  7.30 -3.36
Si  2.68  4.91 -6.01
Si -2.68  4.91 -6.01
Si -5.95 -4.45 -3.55
Si  2.58 -4.62  6.37
Si  7.50  0.20 -3.55
Si  5.32  0.03  6.37
Si  1.28  7.32  3.69
Si  3.91  7.25 -1.03
Si -0.25 -0.24 -8.31
Si -2.77 -4.62  6.37
Si -2.66  4.69  6.37
Si -5.40  0.03  6.37
Si  2.69  4.69  6.37
Si -5.84  4.85 -3.55
Si  5.53  4.96  3.89
Si -1.38  7.34  3.86
Si -4.14  7.23 -1.20
Si  3.81  7.39  1.53
Si  3.79 -6.64  3.69
Si -8.50  0.29  1.34
Si  0.15  0.54  8.67
Si  2.07  0.11 -8.44
Si  0.93  2.56 -8.25
Si -4.46 -6.66 -3.36
Si -1.80 -2.10 -8.25
Si -4.22 -6.62  3.86
Si -4.21  6.81 -3.61
Si  3.66 -7.15 -3.61
Si -7.92  0.31  3.89
Si  3.74  7.30 -3.36
Si  1.24 -1.89  8.58
Si -1.66  2.06 -8.50
Si  0.96 -2.59 -8.50
Si  4.90 -4.27  6.24
Si -0.10 -8.95 -1.12
Si  8.15  0.31  3.89
Si -3.29  0.11 -8.44
Si -1.42 -1.88  8.75
Si  0.99 -6.80 -5.92
Si  6.38 -2.17 -6.09
Si  5.27 -4.52 -5.89
Si  6.46  2.50 -5.92
Si -1.38  2.76  8.58
Si -2.49  0.40  8.78
Si  7.99 -4.30 -1.12
Si -4.07  7.32  3.69
Si  1.03 -6.47  6.42
Si  3.98  7.34  3.86
Si -5.44 -4.52 -5.89
Si -8.08 -4.30 -1.12
Si  3.55 -2.10 -8.25
Si  6.32 -6.57  1.53
Si  2.86  0.40  8.78
Si -5.33  4.78 -5.89
Si  1.32  2.78  8.75
Si -8.57  0.20 -3.55
Si  6.53 -2.31  6.17
Si  7.87 -4.71  1.48
Si -1.71 -6.82 -6.09
Si  5.38  4.78 -5.89
Si  7.98  4.59  1.48
Si  6.42 -6.71 -1.03
Si  2.10 -9.02  1.34
Si  0.00  9.25  1.48
Si  9.05 -1.91  1.53
Si -6.99 -2.15 -5.92
Si -1.52  7.16 -5.92
Si  1.29  6.99  6.17
Si -8.09  4.59  1.48
Si  9.15 -2.06 -1.03
Si -1.56 -6.97  6.17
Si  5.01  5.03  6.24
Si  1.14  7.14 -6.09
Si -7.96  5.00 -1.12
Si -6.80  2.34  6.17
Si -0.22 -9.36  1.48
Si  3.70  2.06 -8.50
Si  2.61 -9.09 -1.00
Si -5.81 -4.27  6.24
Si -2.75 -9.09 -1.00
Si  9.20  2.25  1.28
Si  6.50  2.83  6.42
Si -6.95  2.48 -6.09
Si -8.20 -4.71  1.48
Si  8.10  5.00 -1.12
Si -0.67 -4.55 -8.44
Si  6.57  6.90  1.28
Si  9.19  2.58 -1.20
Si -0.03 -8.86  3.77
Si -6.95 -1.82  6.42
Si -3.26 -9.02  1.34
Si -4.11 -1.89  8.58
Si -0.55  4.76 -8.44
Si -4.42  2.56 -8.25
Si  7.91  4.50 -3.42
Si  0.12  9.66 -1.12
Si  2.48  4.41 -8.31
Si  6.25 -6.66 -3.36
Si  5.10 -0.24 -8.31
Si  0.13 -4.25  8.78
Si -0.07  9.16 -3.42
Si  7.80 -4.80 -3.42
Si -6.99 -6.73 -1.20
Si  3.94 -1.88  8.75
Si  8.98 -2.00 -3.36
Si -8.01 -4.21  3.77
Si -5.70  5.03  6.24
Si -2.88  4.41 -8.31
Si  6.57  7.23 -1.20
Si  8.06 -4.21  3.77
Si  3.65 -6.82 -6.09
Si  3.98  2.76  8.58
Si  7.64  0.38  6.24
Si -2.52  9.53 -1.00
Si -9.61 -2.08 -1.20
Si -4.39 -2.59 -8.50
Si -8.16  4.50 -3.42
Si  2.37 -4.89 -8.31
Si -2.58 -4.12  8.67
Si -9.54  2.59 -1.03
Si  8.01  0.13 -5.89
Si  2.32  9.60  1.34
Si -1.48  7.48  6.42
Si  2.03 -9.11 -3.55
Si -9.61 -2.40  1.28
Si -8.06  0.13 -5.89
Si  2.78 -4.12  8.67
Si  2.83  9.53 -1.00
Si -6.80  7.25 -1.03
Si -6.99 -7.06  1.28
Si -4.36 -6.80 -5.92
Si -5.61 -0.24 -8.31
Si -4.04  2.78  8.75
Si  6.49 -6.62  3.86
Si  9.12  2.16 -3.61
Si  3.84  7.16 -5.92
Si  3.80 -6.97  6.17
Si -0.29 -9.46 -3.42
Si  6.50  6.81 -3.61
Si -2.99 -4.89 -8.31
Si -4.32 -6.47  6.42
Si -5.20  0.54  8.67
Si -7.89  5.10  3.77
Si  0.24  5.06  8.78
Si -9.64  2.74  1.53
Si -3.04  9.60  1.34
Si -8.27 -4.80 -3.42
Si -2.68 -8.99  3.89
Si  2.68 -8.99  3.89
Si -4.07  6.99  6.17
Si  9.22 -1.97  3.86
Si -6.90  7.39  1.53
Si -6.92 -6.64  3.69
Si  5.51  0.54  8.67
Si -4.21  7.14 -6.09
Si  9.26  2.67  3.69
Si -3.33 -9.11 -3.55
Si  8.17  5.10  3.77
Si  2.25  9.51 -3.55
Si -2.47  5.19  8.67
Si -9.54 -1.99  3.69
Si  5.26 -8.95 -1.12
Si  0.20  9.75  3.77
Si -8.43  0.38  6.24
Si  2.89  5.19  8.67
Si -5.46 -8.95 -1.12
Si  6.64  7.32  3.69
Si -9.47  2.69  3.86
Si  3.88  7.48  6.42
Si -3.11  9.51 -3.55
Si -9.71  2.65 -3.36
Si -9.68 -2.50 -3.61
Si -6.97  7.30 -3.36
Si -2.45  9.62  3.89
Si  4.69 -4.55 -8.44
Si -7.06 -7.15 -3.61
Si -6.73  7.34  3.86
Si  6.29  2.56 -8.25
Si  0.82 -6.75 -8.25
Si 10.60 -0.06  1.48
Si -10.70  0.35 -1.12
Si  2.90  9.62  3.89
Si  5.13 -9.36  1.48
Si -5.36  9.25  1.48
Si  5.36  9.25  1.48
Si 10.72  0.35 -1.12
Si  4.80  4.76 -8.44
Si -0.17 -9.04 -6.01
Si  7.92 -4.39 -6.01
Si  1.07  6.72 -8.50
Si -1.49 -6.55  8.58
Si -0.13  0.17 -10.90
Si  6.32 -2.59 -8.50
Si -10.82 -0.06  1.48
Si  1.21 -6.53  8.75
Si  6.60 -1.89  8.58
Si -5.58 -9.36  1.48
Si  5.33 -8.86  3.77
Si  6.35 -6.80 -5.92
Si -8.15 -4.39 -6.01
Si -5.38 -8.86  3.77
Si -5.23  9.66 -1.12
Si  9.08 -2.15 -5.92
Si -5.23 -4.25  8.78
Si 10.53 -0.15 -3.42
Si -1.69  7.21 -8.25
Si  2.58  0.04 -10.79
Si  2.17 -8.92  6.24
Si  5.29  9.16 -3.42
Si -7.16 -2.10 -8.25
Si  1.03  2.41 -10.81
Si  6.39 -6.47  6.42
Si -2.78  0.04 -10.79
Si  5.48  9.66 -1.12
Si 10.19 -4.36  1.34
Si  8.03  4.91 -6.01
Si -1.70 -2.24 -10.81
Si -8.04  4.91 -6.01
Si  7.94 -4.62  6.37
Si -5.43  9.16 -3.42
Si  5.49 -4.25  8.78
Si  2.54 -9.18 -5.89
Si -7.02  2.06 -8.50
Si -6.77 -1.88  8.75
Si  7.42  0.11 -8.44
Si  9.12  2.48 -6.09
Si -0.15 -9.27  6.37
Si -6.74  2.76  8.58
Si  0.96 -2.26 -10.98
Si  5.06 -9.46 -3.42
Si  0.03  0.12 11.26
Si -8.02  4.69  6.37
Si -2.82 -9.18 -5.89
Si  8.05  4.69  6.37
Si -10.63  0.44  3.77
Si  0.05  9.57 -6.01
Si  0.07  9.34  6.37
Si -1.77 -7.24 -8.50
Si  9.12 -1.82  6.42
Si -8.13 -4.62  6.37
Si -6.02 -4.55 -8.44
Si -3.19 -8.92  6.24
Si -5.91  4.76 -8.44
Si -5.12  5.06  8.78
Si  6.67  2.78  8.75
Si  1.25 -2.22 11.07
Si  9.08 -6.73 -1.20
Si -1.66  2.39 -10.98
Si  9.27  2.34  6.17
Si  2.35  0.47 11.13
Si -1.38  2.43 11.07
Si  6.50  7.14 -6.09
Si -10.89 -0.15 -3.42
Si  1.35  7.41  8.58
Si -2.59  9.44 -5.89
Si 10.80  0.44  3.77
Si  6.64  6.99  6.17
Si -1.77 -11.22  1.53
Si  2.76  9.44 -5.89
Si  3.86 -6.55  8.58
Si  0.99 -11.38 -1.20
Si 10.30  4.94  1.34
Si -5.65 -9.46 -3.42
Si -1.67 -11.36 -1.03
Si -3.00  0.47 11.13
Si -1.52 -1.73 11.31
Si  3.67  7.21 -8.25
Si -7.06 -6.82 -6.09
Si -6.88  7.16 -5.92
Si -1.31  7.43  8.75
Si -9.61  2.50 -5.92
Si  5.60  5.06  8.78
Si  9.08 -7.06  1.28
Si -4.54 -6.75 -8.25
Si -9.54 -2.31  6.17
Si -6.92 -6.97  6.17
Si 10.12 -4.45 -3.55
Si 10.70 -4.43 -1.00
Si  3.65 -2.24 -10.81
Si -9.68 -2.17 -6.09
Si -4.28  6.72 -8.50
Si -10.72 -4.43 -1.00
Si -5.16  9.75  3.77
Si -4.15 -6.53  8.75
Si -1.41 11.55  1.28
Si -10.61  4.87 -1.00
Si  3.58 -7.24 -8.50
Si -0.15 -4.62 -10.79
Si  1.22  2.92 11.31
Si -0.04  4.69 -10.79
Si  2.39  9.69  6.24
Si  7.45 -9.02  1.34
Si -7.85  0.40  8.78
Si -9.65 -6.71 -1.03
Si  9.27  7.25 -1.03
Si -9.50  6.90  1.28
Si  0.99 -11.71  1.28
Si  3.69  2.39 -10.98
Si  5.55  9.75  3.77
Si -9.75 -6.57  1.53
Si 10.23  4.85 -3.55
Si -9.57  2.83  6.42
Si  9.16  7.39  1.53
Si  3.58 -11.22  1.53
Si  9.15 -6.64  3.69
Si -4.32  2.41 -10.81
Si -0.38 -4.18 11.13
Si -2.96  9.69  6.24
Si 10.81  4.87 -1.00
Si  1.06 -11.29  3.69
Si -1.84 -11.31 -3.36
Si  3.69 -11.36 -1.03
Si -6.83  7.48  6.42
Si -9.50  7.23 -1.20
Si  3.98  2.43 11.07
Si -4.11 -2.22 11.07
Si  1.29 11.90 -1.03
Si -1.60 -11.27  3.86
Si -4.00  7.41  8.58
Si -1.41 11.88 -1.20
Si  8.22  0.40  8.78
Si  5.19 -9.04 -6.01
Si  2.49 -4.48 -10.90
Si -4.40 -2.26 -10.98
Si 11.81 -2.08 -1.20
Si  9.01 -7.15 -3.61
Si  3.84 -1.73 11.31
Si -8.64  0.11 -8.44
Si  5.23  0.17 -10.90
Si -1.48 11.46 -3.61
Si  7.96 -9.09 -1.00
Si -2.86 -4.48 -10.90
Si 11.82 -2.40  1.28
Si -11.24 -4.36  1.34
Si  9.09  7.30 -3.36
Si -10.65 -4.34  3.89
Si  4.05  7.43  8.75
Si -5.53 -9.04 -6.01
Si 11.79  2.74  1.53
Si  2.60  4.82 -10.90
Si  1.19 12.04  1.53
Si -5.49  0.17 -10.90
Si 11.89  2.59 -1.03
