500
set: 1459.00  0.00  0.00
Si -0.69  1.63  1.20
Si -0.40  2.12 -0.56
Si -1.65  0.04 -1.66
Si  1.23  0.51  2.10
Si  0.91 -2.31 -0.60
Si  0.36 -1.46 -2.22
Si  2.70 -0.33 -0.04
Si -2.45 -0.22  1.77
Si -1.59 -2.58 -0.56
Si  2.10  2.40 -0.60
Si -3.31 -0.33 -0.04
Si  1.24  0.73 -3.22
Si  0.35 -1.68  3.10
Si -1.88 -3.07  1.20
Si  3.56 -0.22  1.77
Si -1.66 -0.18  3.66
Si  1.55  3.25 -2.22
Si -2.44  0.00 -3.55
Si -0.68  1.86 -4.12
Si  1.55  3.03  3.10
Si -3.91  2.40 -0.60
Si  4.35  0.04 -1.66
Si  0.04 -4.19  2.10
Si -2.12  4.38 -0.04
Si -1.26  4.49  1.77
Si  3.56  0.00 -3.55
Si -0.46  4.75 -1.66
Si  0.04 -3.97 -3.22
Si  4.41 -2.58 -0.56
Si -0.41  1.90  4.77
Si -4.78  0.51  2.10
Si  1.50 -5.04 -0.04
Si  4.12 -3.07  1.20
Si -1.87 -2.85 -4.12
Si  0.90 -2.53  4.73
Si  2.09  2.18  4.73
Si -5.10 -2.31 -0.60
Si  4.34 -0.18  3.66
Si  5.32  1.63  1.20
Si -2.84 -4.66 -1.66
Si  2.37 -4.92  1.77
Si -1.60 -2.81  4.77
Si -4.77  0.73 -3.22
Si -0.47  4.53  3.66
Si  3.89  4.38 -0.04
Si  3.16 -4.66 -1.66
Si -4.45  3.25 -2.22
Si  2.69 -0.56  5.29
Si  2.70 -0.11 -5.36
Si  5.60  2.12 -0.56
Si -1.25  4.71 -3.55
Si  2.42  5.22  2.10
Si -4.46  3.03  3.10
Si -5.64 -1.46 -2.22
Si -3.32 -0.56  5.29
Si -3.30 -0.11 -5.36
Si  0.91 -2.08 -5.92
Si -0.40  2.35 -5.88
Si  2.37 -4.70 -3.55
Si -3.64 -4.92  1.77
Si  0.50  6.34  1.20
Si  4.13 -2.85 -4.12
Si -3.91  2.18  4.73
Si -1.59 -2.36 -5.88
Si -0.83 -6.16 -2.22
Si -5.65 -1.68  3.10
Si -3.59  5.22  2.10
Si -0.70  1.41  6.53
Si -2.85 -4.89  3.66
Si -4.50 -5.04 -0.04
Si  4.75  4.49  1.77
Si -6.41  2.12 -0.56
Si  2.43  5.44 -3.22
Si  2.10  2.62 -5.92
Si  3.15 -4.89  3.66
Si  0.79  6.83 -0.56
Si  6.37 -1.46 -2.22
Si -3.63 -4.70 -3.55
Si  5.32  1.86 -4.12
Si -6.69  1.63  1.20
Si -0.28 -7.01 -0.60
Si -2.12  4.15  5.29
Si  4.41 -2.81  4.77
Si -0.84 -6.38  3.10
Si -1.65  0.27 -6.99
Si -3.58  5.44 -3.22
Si  6.36 -1.68  3.10
Si  6.91 -2.31 -0.60
Si  1.51 -4.81 -5.36
Si -2.11  4.60 -5.36
Si -5.11 -2.53  4.73
Si  5.54  4.75 -1.66
Si -2.46 -0.44  7.09
Si  1.22  0.29  7.42
Si  7.23  0.51  2.10
Si -1.89 -3.30  6.53
Si -3.90  2.62 -5.92
Si  4.75  4.71 -3.55
Si -5.97 -4.19  2.10
Si  5.60  1.90  4.77
Si  1.50 -5.26  5.29
Si -2.72  7.11 -0.60
Si  6.04 -4.19  2.10
Si  0.37 -1.23 -7.55
Si  4.42 -2.36 -5.88
Si  3.88  4.15  5.29
Si  0.51  6.56 -4.12
Si -2.78 -7.29 -0.56
Si -7.66  0.04 -1.66
Si  3.29  7.11 -0.60
Si -5.96 -3.97 -3.22
Si  6.05 -3.97 -3.22
Si  3.55 -0.44  7.09
Si  7.24  0.73 -3.22
Si  3.22 -7.29 -0.56
Si  5.54  4.53  3.66
Si -7.60 -2.58 -0.56
Si  3.89  4.60 -5.36
Si -6.69  1.86 -4.12
Si -5.09 -2.08 -5.92
Si  0.78  6.61  4.77
Si -6.47  4.75 -1.66
Si -6.41  1.90  4.77
Si  4.36  0.27 -6.99
Si  5.18 -6.16 -2.22
Si -1.26  4.26  7.09
Si  4.12 -3.30  6.53
Si  2.93 -7.78  1.20
Si -3.07 -7.78  1.20
Si  1.56  3.47 -7.55
Si  5.61  2.35 -5.88
Si  8.10  2.40 -0.60
Si -5.50  6.34  1.20
Si -4.49 -4.81 -5.36
Si -7.67 -0.18  3.66
Si  7.56  3.25 -2.22
Si  5.31  1.41  6.53
Si -7.88 -3.07  1.20
Si -0.46  4.97 -6.99
Si -5.22  6.83 -0.56
Si  0.03 -4.42  7.42
Si -8.45 -0.22  1.77
Si  0.35 -1.90  8.42
Si -0.29 -7.24  4.73
Si  1.24  0.96 -8.54
Si  2.74  7.96 -2.22
Si  7.55  3.03  3.10
Si -6.47  4.53  3.66
Si  8.70 -0.33 -0.04
Si -4.51 -5.26  5.29
Si -7.26  4.49  1.77
Si  6.91 -2.53  4.73
Si -2.84 -4.44 -6.99
Si  2.74  7.73  3.10
Si  5.17 -6.38  3.10
Si -2.72  6.88  4.73
Si -4.78  0.29  7.42
Si  3.17 -4.44 -6.99
Si -3.26  7.96 -2.22
Si -3.27  7.73  3.10
Si  0.49  6.12  6.53
Si  3.28  6.88  4.73
Si -6.40  2.35 -5.88
Si  1.54  2.81  8.42
Si -0.28 -6.79 -5.92
Si  7.51 -5.04 -0.04
Si  5.72 -7.01 -0.60
Si  2.36 -5.15  7.09
Si  2.94 -7.56 -4.12
Si -0.93  9.08 -0.04
Si -3.06 -7.56 -4.12
Si -1.67 -0.40  8.98
Si -8.45  0.00 -3.55
Si  6.51  6.34  1.20
Si -2.43  0.23 -8.88
Si -1.15 -8.90  2.10
Si  0.80  7.05 -5.88
Si -8.12  4.38 -0.04
Si  2.41  5.00  7.42
Si -9.31 -0.33 -0.04
Si -2.79 -7.51  4.77
Si -1.15 -8.68 -3.22
Si  0.05 -3.75 -8.54
Si -7.88 -2.85 -4.12
Si  6.92 -2.08 -5.92
Si -7.25  4.71 -3.55
Si -0.07  9.19  1.77
Si -7.61 -2.81  4.77
Si -4.45  3.47 -7.55
Si -6.29 -7.01 -0.60
Si -6.70  1.41  6.53
Si  3.21 -7.51  4.77
Si -6.83 -6.16 -2.22
Si -3.65 -5.15  7.09
Si -5.64 -1.23 -7.55
Si -5.50  6.56 -4.12
Si  4.74  4.26  7.09
Si  3.57  0.23 -8.88
Si -2.78 -7.07 -5.88
Si  8.10  2.18  4.73
Si  0.73  9.46 -1.66
Si -0.82 -5.94 -7.55
Si -3.59  5.00  7.42
Si  6.79  6.83 -0.56
Si -5.22  6.61  4.77
Si -0.68  2.08 -9.44
Si  1.97 -9.37 -1.66
Si  9.56 -0.22  1.77
Si  3.23 -7.07 -5.88
Si  0.31 -9.74 -0.04
Si -2.71  7.33 -5.92
Si -4.76  0.96 -8.54
Si -6.84 -6.38  3.10
Si  1.18 -9.63  1.77
Si  8.37 -4.92  1.77
Si -7.59 -2.36 -5.88
Si -4.47  2.81  8.42
Si  6.37 -1.23 -7.55
Si  0.72  9.23  3.66
Si -0.47  4.30  8.98
Si -1.87 -2.63 -9.44
Si  3.29  7.33 -5.92
Si  4.34 -0.40  8.98
Si -0.06  9.42 -3.55
Si  6.51  6.56 -4.12
Si  1.18 -9.41 -3.55
Si  8.42  5.22  2.10
Si -8.85 -4.66 -1.66
Si  8.69 -0.56  5.29
Si  9.57  0.00 -3.55
Si  5.55  4.97 -6.99
Si -9.91  2.40 -0.60
Si  2.38 -4.48 -8.88
Si  8.71 -0.11 -5.36
Si -1.24  4.93 -8.88
Si -0.41  1.68 10.09
Si  8.38 -4.70 -3.55
Si -5.66 -1.90  8.42
Si -4.04 -9.37 -1.66
Si  4.85 -8.90  2.10
Si -0.93  8.86  5.29
Si  5.71 -7.24  4.73
Si -7.65  0.27 -6.99
Si  7.23  0.29  7.42
Si  8.11  2.62 -5.92
Si  5.08  9.08 -0.04
Si  7.52 -4.81 -5.36
Si  9.17 -4.66 -1.66
Si -2.40  9.92  2.10
Si  2.08  1.95 10.05
Si  4.86 -8.68 -3.22
Si  1.96 -9.59  3.66
Si  0.89 -2.75 10.05
Si 10.36  0.04 -1.66
Si -5.97 -4.42  7.42
Si -5.51  6.12  6.53
Si  2.43  5.67 -8.54
Si  6.04 -4.42  7.42
Si  8.43  5.44 -3.22
Si -8.13  4.15  5.29
Si -5.21  7.05 -5.88
Si  7.50 -5.26  5.29
Si -3.62 -4.48 -8.88
Si  6.79  6.61  4.77
Si  4.14 -2.63 -9.44
Si 10.13 -3.07  1.20
Si -1.61 -3.03 10.09
Si  5.73 -6.79 -5.92
Si -6.30 -7.24  4.73
Si  6.35 -1.90  8.42
Si -2.86 -5.11  8.98
Si -9.32 -0.56  5.29
Si  2.93 -8.00  6.53
Si -6.46  4.97 -6.99
Si -0.84 -6.61  8.42
Si -9.31 -0.11 -5.36
Si 10.42 -2.58 -0.56
Si -8.86 -4.89  3.66
Si -7.89 -3.30  6.53
Si -8.12  4.60 -5.36
Si  3.61  9.92  2.10
Si -3.08 -8.00  6.53
Si -0.92  9.30 -5.36
Si  3.15 -5.11  8.98
Si  9.89  4.38 -0.04
Si -3.57  5.67 -8.54
Si  5.18 -5.94 -7.55
Si -2.39 10.15 -3.22
Si -4.83 -9.63  1.77
Si  0.32 -9.52 -5.36
Si -5.28  9.46 -1.66
Si -3.92  1.95 10.05
Si  2.68 -0.78 10.61
Si -9.64 -4.92  1.77
Si 10.35 -0.18  3.66
Si -6.28 -6.79 -5.92
Si -10.78  0.51  2.10
Si  9.16 -4.89  3.66
Si -7.27  4.26  7.09
Si  2.71  0.12 -10.68
Si -4.04 -9.59  3.66
Si  5.33  2.08 -9.44
Si -8.46 -0.44  7.09
Si  6.50  6.12  6.53
Si -5.96 -3.75 -8.54
Si  5.94  9.19  1.77
Si -9.59  5.22  2.10
Si  6.05 -3.75 -8.54
Si -3.32 -0.78 10.61
Si -4.82 -9.41 -3.55
Si -6.07  9.19  1.77
Si -10.46  3.25 -2.22
Si -3.30  0.12 -10.68
Si -9.92  2.18  4.73
Si  4.76  4.93 -8.88
Si  7.56  3.47 -7.55
Si  1.69 11.04  1.20
Si  3.62 10.15 -3.22
Si  7.25  0.96 -8.54
Si -5.28  9.23  3.66
Si -8.72  7.11 -0.60
Si -10.78  0.73 -3.22
Si -2.02 -10.87 -2.22
Si -5.69 -9.74 -0.04
Si  0.31 -9.97  5.29
Si -9.64 -4.70 -3.55
Si 10.14 -2.85 -4.12
Si -10.46  3.03  3.10
Si -11.10 -2.31 -0.60
Si  5.53  4.30  8.98
Si  4.40 -3.03 10.09
Si -6.93  9.08 -0.04
Si  6.80  7.05 -5.88
Si -8.79 -7.29 -0.56
Si  0.92 -1.86 -11.24
Si -0.07  8.97  7.09
Si  2.75  8.18 -7.55
Si -9.59  5.44 -3.22
Si  5.07  8.86  5.29
Si 11.32  1.63  1.20
Si -0.39  2.57 -11.20
Si -2.13  3.93 10.61
Si -1.58 -2.14 -11.20
Si -3.25  8.18 -7.55
Si -5.11 -2.75 10.05
Si  2.73  7.51  8.42
Si  6.32 -9.74 -0.04
Si -7.16 -8.90  2.10
Si  0.52  6.79 -9.44
Si  7.54  2.81  8.42
Si -10.51 -5.04 -0.04
Si  5.59  1.68 10.09
Si  1.98 -9.15 -6.99
Si  5.95  9.42 -3.55
Si -2.03 -11.09  3.10
Si -7.15 -8.68 -3.22
Si  9.29  7.11 -0.60
Si  1.98 11.54 -0.56
Si  6.73  9.46 -1.66
Si  1.52 -4.59 -10.68
Si -6.06  9.42 -3.55
Si -3.27  7.51  8.42
Si -6.68  2.08 -9.44
Si  9.23 -7.29 -0.56
Si -6.83 -5.94 -7.55
Si 10.75  4.49  1.77
Si  3.98 -10.87 -2.22
Si  2.11  2.85 -11.24
Si 10.41 -2.81  4.77
Si 11.61  2.12 -0.56
Si -1.16 -9.12  7.42
Si -7.67 -0.40  8.98
Si -1.48 -11.72 -0.60
Si -9.91  2.62 -5.92
Si  5.08  9.30 -5.36
Si -6.48  4.30  8.98
Si  5.16 -6.61  8.42
Si -2.10  4.82 -10.68
Si  9.56 -0.44  7.09
Si  8.94 -7.78  1.20
Si -4.31 11.04  1.20
Si -1.53 11.81 -0.60
Si -0.70  1.19 11.85
Si -11.65 -1.46 -2.22
Si  9.88  4.15  5.29
Si  3.87  3.93 10.61
Si  0.74  9.68 -6.99
Si  0.78  6.38 10.09
Si  6.73  9.23  3.66
Si -9.08 -7.78  1.20
Si  8.75  7.96 -2.22
Si  1.49 -5.48 10.61
Si -1.14 -8.45 -8.54
Si -6.42  1.68 10.09
Si  8.74  7.73  3.10
Si -8.73  6.88  4.73
Si -8.84 -4.44 -6.99
Si  8.37 -5.15  7.09
Si  1.70 11.27 -4.12
Si  7.18 -9.63  1.77
Si  9.90  4.60 -5.36
Si -11.66 -1.68  3.10
Si  2.03 -11.99 -0.56
Si  3.98 -11.09  3.10
Si -4.03 -9.15 -6.99
Si 11.33  1.86 -4.12
Si 10.42 -2.36 -5.88
Si  1.17 -9.86  7.09
Si -4.03 11.54 -0.56
Si -3.89  2.85 -11.24
Si  4.43 -2.14 -11.20
Si -8.44  0.23 -8.88
Si 10.76  4.71 -3.55
Si  8.42  5.00  7.42
Si  2.95 -7.33 -9.44
Si -5.68 -9.52 -5.36
Si -11.11 -2.53  4.73
Si -3.06 -7.33 -9.44
Si  3.90  4.82 -10.68
Si  9.17 -4.44 -6.99
Si  7.19 -9.41 -3.55
Si -2.73  6.66 10.05
Si  8.95 -7.56 -4.12
Si -9.27  7.96 -2.22
Si  7.97 -9.37 -1.66
Si -1.64  0.49 -12.31
Si -6.94  8.86  5.29
Si  1.97 11.31  4.77
Si -2.40  9.70  7.42
Si -4.49 -4.59 -10.68
Si -9.27  7.73  3.10
Si -7.25  4.93 -8.88
Si -5.08 -1.86 -11.24
Si 10.12 -3.30  6.53
Si  9.29  6.88  4.73
Si  3.27  6.66 10.05
Si  6.90 -2.75 10.05
Si 10.36  0.27 -6.99
Si -9.07 -7.56 -4.12
Si -1.89 -3.52 11.85
Si -8.79 -7.51  4.77
Si -0.30 -7.46 10.05
Si -7.87 -2.63 -9.44
Si  4.53 -11.72 -0.60
Si 11.55  4.75 -1.66
Si -12.41  2.12 -0.56
Si -1.53 11.59  4.73
Si  6.33 -9.52 -5.36
Si -5.70 -9.97  5.29
Si  4.48 11.81 -0.60
Si -3.98 -11.99 -0.56
Si 12.37 -1.46 -2.22
Si  1.74 -12.49  1.20
Si -2.46 -0.67 12.42
Si 11.60  1.90  4.77
Si -6.85 -6.61  8.42
Si -8.78 -7.07 -5.88
Si  4.84 -9.12  7.42
Si -10.50 -4.81 -5.36
Si  3.60  9.70  7.42
Si  0.72  9.01  8.98
Si -4.31 11.27 -4.12
Si -11.10 -2.08 -5.92
Si  1.69 10.82  6.53
Si -4.51 -5.48 10.61
Si -6.93  9.30 -5.36
Si  5.62  2.57 -11.20
Si  1.22  0.07 12.75
Si  9.22 -7.51  4.77
Si  1.19 -9.19 -8.88
Si -8.71  7.33 -5.92
Si 12.37 -1.68  3.10
Si -11.97 -4.19  2.10
Si -5.49  6.79 -9.44
Si -12.70  1.63  1.20
Si  5.93  8.97  7.09
Si -10.51 -5.26  5.29
Si  0.38 -1.01 -12.87
Si -4.03 11.31  4.77
Si 11.54  4.53  3.66
Si  6.31 -9.97  5.29
Si -1.48 -11.94  4.73
Si 12.05 -4.19  2.10
Si  3.54 -0.67 12.42
Si -6.08  8.97  7.09
Si 11.18 -6.16 -2.22
Si  4.86 -8.45 -8.54
Si -2.08 12.44  3.10
Si -7.61 -3.03 10.09
Si  7.97 -9.59  3.66
Si  8.38 -4.48 -8.88
Si -1.47 -11.49 -5.92
Si -11.97 -3.97 -3.22
Si -2.80 -7.74 10.09
Si -0.27 -6.57 -11.24
Si -2.07 12.66 -2.22
Si  4.11 -3.52 11.85
Si  9.23 -7.07 -5.88
Si -5.23  6.38 10.09
Si  5.30  1.19 11.85
