500
set: 831.00  0.00  0.00
Si -0.36  1.00 -0.82
Si  0.47 -1.05  0.84
Si -1.27 -1.31 -0.76
Si  1.44  1.24  0.81
Si -2.16  1.25  0.79
Si  0.95  0.01 -2.48
Si  2.19 -1.28 -0.81
Si -0.99 -0.00  2.51
Si -3.07 -1.11  0.78
Si -0.04  2.28  2.46
Si  3.10  1.04 -0.86
Si  0.01 -2.33 -2.49
Si  0.44  3.38 -0.78
Si -0.46 -3.37  0.83
Si -2.56  0.05 -2.45
Si  2.67 -0.06  2.45
Si -1.66  2.31 -2.41
Si  1.69 -2.37  2.40
Si  1.83  2.37 -2.38
Si -1.26  3.54  0.90
Si -1.85 -2.35  2.48
Si  1.32 -3.56 -0.90
Si  0.86  0.18  4.05
Si -3.90  1.15 -0.81
Si -0.83 -0.15 -4.08
Si  3.94 -1.10  0.78
Si  2.15  3.65  0.85
Si -2.26 -3.60 -0.83
Si -0.07 -2.17  4.07
Si  0.05  2.34 -4.01
Si -2.99  3.45 -0.86
Si  3.12 -3.44  0.69
Si -3.49 -2.25 -2.41
Si  3.50  2.32  2.43
Si -3.52  2.27  2.50
Si  3.53 -2.36 -2.45
Si  2.66 -0.17 -4.15
Si -2.70  0.14  4.18
Si -4.40 -0.09  2.49
Si -1.83 -2.40 -4.05
Si  4.39 -0.07 -2.53
Si  1.72 -2.48 -4.08
Si -4.89 -1.20 -0.74
Si  4.88  1.25  0.78
Si -1.78  2.40  4.15
Si  1.75  2.52  4.11
Si  0.84 -4.61  2.39
Si  3.96  3.40 -0.80
Si -3.98 -3.41  0.84
Si -0.82 -4.67 -2.40
Si -0.74  4.71 -2.38
Si  0.82  4.72  2.48
Si -3.41  2.33 -4.00
Si  3.41 -2.28  4.04
Si  3.54  2.13 -4.14
Si -5.67  1.16  0.86
Si  0.52 -1.16 -5.75
Si -0.53  1.14  5.76
Si  5.70 -1.25 -0.86
Si -2.73 -4.61  2.48
Si  2.72  4.65 -2.40
Si -1.39 -5.68  0.85
Si -2.64  4.67  2.51
Si -3.59 -2.18  4.18
Si  1.28  5.73 -0.83
Si -4.37  0.07 -4.03
Si  2.63 -4.71 -2.54
Si  4.37  0.11  4.07
Si -4.82  3.48  0.79
Si -0.44  5.92  0.84
Si  1.35  1.20 -5.72
Si  0.41 -5.93 -0.80
Si -1.33 -1.13  5.76
Si  4.89 -3.58 -0.93
Si  5.14 -2.30  2.45
Si  2.08 -1.18  5.66
Si -2.08  1.14 -5.71
Si -0.95 -4.54  4.09
Si  2.23 -5.72  0.74
Si  5.23  2.25 -2.52
Si -2.20  5.79 -0.79
Si -5.29  2.21 -2.49
Si  0.99  4.66 -4.11
Si -0.91  4.75  4.14
Si -5.38 -2.31  2.51
Si  0.87 -4.82 -4.14
Si -3.00 -1.12 -5.69
Si  6.10 -0.03  2.44
Si  2.99  1.19  5.74
Si  2.50 -4.56  4.08
Si -6.17 -0.09 -2.46
Si -2.48  4.66 -4.06
Si -0.37 -3.43 -5.70
Si -4.24  4.57 -2.49
Si -2.56 -4.66 -4.11
Si -4.29 -4.62 -2.38
Si  0.36  3.56  5.72
Si -3.11 -5.95 -0.78
Si  3.08  5.96  0.83
Si  6.62  1.11 -0.88
Si -5.75 -3.53 -0.79
Si -1.19  3.46 -5.73
Si -6.64 -1.25  0.83
Si  2.59  4.79  4.09
Si  4.30 -4.70  2.46
Si  5.78  3.60  0.74
Si  4.38  4.71  2.39
Si  1.14 -3.50  5.80
Si -5.16 -2.31 -4.10
Si -3.99  5.78  0.89
Si  5.26  2.43  4.07
Si  5.25 -2.40 -4.14
Si -2.32 -3.49  5.76
Si -5.31  2.31  4.18
Si  2.39  3.60 -5.70
Si  3.96 -5.88 -0.95
Si  4.07 -1.16 -5.78
Si -4.03  1.23  5.82
Si  3.14 -3.50 -5.72
Si -0.05 -7.01  2.43
Si  6.17 -0.11 -4.11
Si -3.16  3.52  5.72
Si -6.52  3.45 -0.95
Si -0.37  1.10 -7.36
Si -6.23  0.01  4.09
Si  6.49 -3.55  0.89
Si  0.05  7.08 -2.41
Si  0.44 -0.99  7.42
Si  7.38 -1.25  0.83
Si -7.40  1.11 -0.88
Si -1.71 -6.96 -2.38
Si  4.41  4.51 -4.14
Si -4.40  4.62  4.06
Si -4.81 -5.78  0.90
Si -1.24 -1.17 -7.39
Si  1.70  6.98  2.48
Si  4.87  5.77 -0.90
Si -4.45 -4.58  4.14
Si  1.23  1.30  7.42
Si  4.44 -4.70 -4.11
Si -1.84  7.01  2.51
Si  1.68 -7.08 -2.52
Si -3.89 -3.44 -5.68
Si -4.95 -1.09  5.83
Si  4.95  1.14 -5.84
Si  3.86  3.53  5.72
Si -7.00  2.34  2.41
Si  7.03  2.34  2.41
Si -6.98 -2.42 -2.53
Si  2.26 -1.20 -7.39
Si  7.05 -2.42 -2.53
Si -2.30  1.29  7.43
Si  3.09  1.09 -7.31
Si -5.59  5.75 -0.93
Si -3.14 -1.13  7.38
Si -6.18  4.62  2.46
Si  6.17  4.62 -2.54
Si -3.43  6.91 -2.53
Si -6.18 -4.66  2.51
Si  5.63 -1.07  5.78
Si  0.62  3.46 -7.35
Si  0.31 -5.80  5.72
Si  4.76 -3.44  5.66
Si -1.79 -6.81  4.11
Si -0.60 -3.39  7.39
Si -5.68  1.16 -5.75
Si -1.16 -5.73 -5.70
Si  3.48 -6.98  2.41
Si  5.67 -5.85  0.79
Si  1.71 -6.90  4.07
Si -0.34  5.88 -5.68
Si -4.76  3.45 -5.71
Si  1.72  6.92 -4.05
Si  1.34 -8.08  0.78
Si  3.56  7.00 -2.49
Si  6.25 -4.76 -2.49
Si  7.86 -0.09 -2.46
Si -1.34  8.13 -0.74
Si  0.48  8.22  0.78
Si -3.58 -7.04  2.46
Si -0.04  7.14  4.18
Si  1.23  5.83  5.76
Si -1.61  7.02 -4.10
Si -7.92 -0.03  2.44
Si  6.82 -2.29  4.13
Si  1.40 -3.54 -7.38
Si -0.01 -7.20 -4.14
Si  7.51  3.45 -0.95
Si -0.45 -8.29 -0.86
Si  3.84 -1.17  7.33
Si  2.28  8.02 -0.76
Si -1.40  3.61  7.43
Si -7.54 -3.55  0.89
Si -2.11 -8.09  0.81
Si -6.99  2.26 -4.10
Si  7.04  2.26 -4.10
Si  2.11  3.57  7.36
Si -3.89  1.20 -7.41
Si -2.13 -3.60 -7.35
Si -8.33 -1.25 -0.86
Si  8.36  1.16  0.86
Si -2.29  5.93  5.71
Si  2.24 -5.90 -5.78
Si  3.00 -3.45  7.28
Si -7.21 -2.29  4.13
Si -3.00  3.51 -7.28
Si -6.02 -4.67 -4.06
Si -6.04  4.63 -4.11
Si -3.10  8.08  0.83
Si  6.08 -4.71  4.06
Si  6.05  4.76  4.08
Si -3.19 -5.77  5.72
Si -6.48 -1.20 -5.76
Si  6.51  1.23  5.74
Si -3.49 -6.98 -4.01
Si  3.17  5.90 -5.70
Si  7.80  0.01  4.09
Si  3.08 -8.21 -0.88
Si -6.54 -5.88 -0.86
Si -5.84 -3.40  5.71
Si  4.73  1.24  7.39
Si -7.85 -0.11 -4.11
Si -4.75 -1.22 -7.39
Si  5.79  3.43 -5.78
Si  3.49 -7.07 -4.10
Si  6.66  5.89  0.69
Si  3.83 -5.71  5.70
Si  3.48  7.16  4.07
Si -3.66  7.04  4.13
Si -3.85  5.76 -5.72
Si -8.25  3.60  0.74
Si  5.23  6.96  2.40
Si  8.28 -3.53 -0.79
Si -0.96  0.07  9.01
Si -5.20 -7.01 -2.41
Si  1.00  0.06 -9.02
Si -4.03 -3.45  7.40
Si  4.04  3.41 -7.45
Si  5.19 -7.11 -2.49
Si -5.34  7.02  2.45
Si -3.91 -8.32 -0.82
Si  4.02  8.28  0.84
Si  9.14 -1.20 -0.74
Si -9.14  1.25  0.78
Si  0.16 -2.22 -9.00
Si  8.64 -2.31  2.51
Si  2.46 -0.08  8.97
Si -2.50  0.01 -8.97
Si  8.74  2.21 -2.49
Si -0.23  2.33  9.06
Si -1.64  2.41 -8.93
Si -4.78  8.07 -0.86
Si -8.80  2.25 -2.52
Si  1.42  5.73 -7.35
Si  7.85  4.62  2.46
Si  1.58 -2.46  8.97
Si -7.36  5.89  0.69
Si -7.78 -4.76 -2.49
Si -1.44 -5.76  7.36
Si -7.85  4.62 -2.54
Si  6.63 -3.57 -5.72
Si  7.84 -4.66  2.51
Si -0.48  5.88  7.40
Si -5.80  1.16  7.39
Si  4.69  5.82  5.80
Si  5.78 -1.12 -7.42
Si -4.74 -5.87 -5.73
Si -6.65  3.62  5.70
Si -8.89 -2.30  2.45
Si -4.89  3.54  7.35
Si  4.81 -8.17  0.86
Si  0.49 -5.92 -7.45
Si  4.92 -3.50 -7.37
Si -7.52  1.23  5.74
Si  1.89  2.43 -9.05
Si  2.12 -5.75  7.33
Si  5.27  6.84 -4.08
Si -2.08  5.82 -7.29
Si  7.49 -5.88 -0.86
Si -1.90 -2.25  9.10
Si  7.54 -1.20 -5.76
Si -0.85  9.24  2.49
Si -5.24  6.93 -4.14
Si  5.17 -7.01  4.18
Si -5.33 -6.93  4.15
Si -0.88 -9.38  2.45
Si  0.99  9.37 -2.45
Si  0.85 -9.40 -2.53
Si -2.92 -5.86 -7.35
Si -5.62 -3.50 -7.29
Si -9.14 -3.58 -0.93
Si -3.38 -2.33 -8.97
Si  9.21  3.48  0.79
Si  3.32  2.25  9.03
Si -2.62  9.23 -2.46
Si  5.74  8.05 -0.81
Si -5.71 -8.07  0.79
Si  2.94  5.94  7.39
Si  5.66  3.58  7.33
Si  8.72  2.31  4.18
Si  9.63 -0.09  2.49
Si -9.63 -0.07 -2.53
Si -8.77  2.43  4.07
Si -0.56 -8.13  5.74
Si -5.72  5.89  5.66
Si  2.56  9.32  2.51
Si -2.60 -9.32 -2.48
Si -3.56  2.42  9.01
Si  5.72 -5.88 -5.71
Si  7.38  3.62  5.70
Si  0.55  8.21 -5.69
Si -8.78 -2.40 -4.14
Si  2.56 -9.36  2.44
Si -7.39 -3.57 -5.72
Si  3.66 -2.30 -9.05
Si  8.87 -2.31 -4.10
Si -6.71 -1.15  7.41
Si  4.45  0.03 -9.03
Si -4.42  0.07  9.05
Si -7.95 -4.71  4.06
Si  6.71  1.16 -7.45
Si  7.99  4.63 -4.11
Si  0.83 -9.22  4.07
Si  8.01 -4.67 -4.06
Si -0.75  4.74 -8.93
Si -6.96  6.97 -2.45
Si  1.41 -8.18 -5.84
Si -7.98  4.76  4.08
Si  0.76  4.59  9.04
Si -0.74 -4.55 -9.07
Si -10.09 -1.10  0.78
Si -2.20 -8.12 -5.72
Si  0.71 -4.77  8.96
Si  4.04 -5.80 -7.33
Si -1.40  8.24  5.83
Si  8.35  1.16 -5.75
Si  6.96 -7.05  2.50
Si 10.13  1.15 -0.81
Si  7.07  6.97 -2.45
Si -8.36 -5.85  0.79
Si  8.44  5.75 -0.93
Si -8.40 -1.07  5.78
Si -0.83  9.40 -4.03
Si  2.22  8.20  5.76
Si -4.08  5.89  7.37
Si -7.07 -7.05  2.50
Si  6.40 -3.43  7.37
Si -2.69 -9.15  4.05
Si  2.97 -8.10  5.74
Si -6.45  3.52 -7.33
Si  0.85  9.47  4.18
Si -2.94  8.13 -5.76
Si  2.71  9.18 -4.08
Si -0.89 -9.50 -4.15
Si  9.65  0.07 -4.03
Si  0.40 -10.43  0.78
Si  7.32 -1.15  7.41
Si -9.65  0.11  4.07
Si -7.32  1.16 -7.45
Si -0.35 10.48 -0.81
Si  6.58 -8.17 -0.81
Si  2.78 -4.62 -9.05
Si -6.54  8.23  0.78
Si -2.68  9.34  4.09
Si  8.19 -3.40  5.71
Si  6.68  5.83 -5.72
Si -4.38  9.29  2.44
Si -6.71 -5.81  5.72
Si -2.78 -4.74  9.04
Si -4.95 -5.71  7.43
Si  4.94  5.79 -7.38
Si  5.08 -2.33  9.01
Si  2.63 -9.43 -4.11
Si  2.81  4.77 -9.07
Si -8.24  3.43 -5.78
Si 10.04 -3.41  0.84
Si -2.78  4.80  9.09
Si  4.32 -9.42 -2.46
Si -6.96 -7.00 -4.00
Si  4.49  9.33 -2.48
Si -10.07  3.40 -0.80
Si -5.26  2.31 -8.99
Si -0.78 -0.02 -10.63
Si -4.54 -9.33  2.51
Si  6.95  7.04  4.04
Si  1.39 10.58  0.79
Si -1.36 -10.61 -0.81
Si  7.07 -7.00 -4.00
Si -2.12 10.49  0.86
Si  0.77  0.06 10.71
Si -7.07  7.04  4.04
Si  4.06  8.16 -5.75
Si  5.36  2.31 -9.07
Si -5.36 -2.26  9.11
Si -4.08 -8.19  5.76
Si  2.15 -10.58 -0.86
Si  6.04  0.03  9.00
Si  3.18 10.33 -0.82
Si  9.08 -1.09  5.83
Si -9.08  1.14 -5.84
Si -3.08 -10.37  0.84
Si -6.00 -0.11 -9.05
Si -9.16  5.77 -0.90
Si  0.10  2.25 -10.64
Si  5.59 -5.79  7.35
Si  9.22 -5.78  0.90
Si  4.26  4.56  8.96
Si -4.29 -4.59 -8.93
Si -5.57  5.82 -7.37
Si -0.12 -2.22 10.73
Si  7.32 -5.81  5.72
Si -4.31  9.22 -4.11
Si -7.34  5.83 -5.72
Si -4.28  4.60 -9.02
Si -9.64  4.71  2.39
Si  4.22 -4.70  9.01
Si  1.60  2.40 10.62
Si -10.93  1.04 -0.86
Si  1.19 -8.09  7.39
Si -0.45 -8.24 -7.31
Si  4.25 -9.32  4.09
Si 10.50  2.27  2.50
Si  0.41  8.19  7.38
Si -1.21  8.11 -7.39
Si  9.74 -4.62 -2.38
Si 10.54 -2.25 -2.41
Si -10.50 -2.36 -2.45
Si 10.96 -1.11  0.78
Si -10.53  2.32  2.43
Si -1.63 -2.45 -10.65
Si -2.69  0.11 10.74
Si  2.79 -0.02 -10.72
Si -9.73 -4.70  2.46
Si  4.80 -8.17 -5.75
Si -7.45 -8.17 -0.81
Si  9.79  4.57 -2.49
Si  7.58  3.52 -7.33
Si  1.91 -2.41 -10.69
Si  8.23  1.16  7.39
Si -7.63 -3.43  7.37
Si -8.25 -1.12 -7.42
Si  7.49  8.23  0.78
Si -1.90  2.48 10.71
Si -3.86 10.44 -0.88
Si -2.32 -8.03  7.42
Si -4.85  8.26  5.78
Si -4.38 -9.47 -4.08
Si  4.41  9.51  4.05
Si  2.31  8.15 -7.39
Si  3.84 -10.57  0.83
Si  3.28 -2.35 10.60
Si -6.09  9.25 -2.53
Si  0.17  6.99 -8.97
Si -6.10 -9.28 -2.45
Si -3.43  2.28 -10.61
Si  4.22  0.03 10.57
Si -6.54 -5.82 -7.28
Si -9.27 -3.44  5.66
Si  9.58 -4.58  4.14
Si -9.61  4.51 -4.14
Si  5.63  8.14  5.66
Si -4.23 -0.07 -10.60
Si  6.55  5.88  7.28
Si  9.27  3.45 -5.71
Si  6.21  9.27  2.45
Si  9.63  4.62  4.06
Si  8.69  7.02  2.45
Si -9.59 -4.70 -4.11
Si -5.62 -8.19 -5.71
Si 10.44 -2.18  4.18
Si -10.91 -3.44  0.69
Si -8.80  6.96  2.40
Si -0.23 -7.08  9.03
Si -3.16  8.18  7.41
Si  6.08 -9.41  2.49
Si -10.49  2.13 -4.14
Si  3.16 -8.17 -7.45
Si -1.66 -6.90 -9.05
Si -3.61 -2.28 10.71
Si  6.84  2.33  8.97
Si  8.83 -7.01 -2.41
Si  3.63  2.23 -10.71
Si -6.90 -2.42 -8.93
Si -9.96 -1.16 -5.78
Si -8.29  8.05 -0.81
Si 10.62  2.33 -4.00
Si -10.62 -2.28  4.04
Si 11.03  3.45 -0.86
Si  0.96  4.59 -10.61
Si  1.81 -7.02 -9.07
Si 10.04  5.78  0.89
Si -8.84 -7.11 -2.49
Si -1.00 -4.59 10.63
Si  8.32 -8.07  0.79
Si -11.36 -0.06  2.45
Si 10.00  1.23  5.82
Si  1.65  7.08  9.10
Si  8.30  5.89  5.66
Si -8.30 -5.88 -5.71
Si  8.41 -3.50 -7.29
