500
set: 436.00  0.00  0.00
Si  0.01  0.05 -0.00
Si  0.01 -0.01 -2.20
Si  1.79  1.05  0.76
Si -0.02 -2.08  0.74
Si -1.79  1.08  0.74
Si -1.78  1.03  2.96
Si  1.79  3.13  0.00
Si  3.61  0.01  0.02
Si -1.83 -1.04 -2.95
Si  0.01 -2.12  2.94
Si  1.83 -3.14 -0.02
Si -1.81  3.16 -0.02
Si  0.01  2.08 -2.99
Si  1.81  1.06  2.98
Si -3.66  0.01  0.02
Si -1.84 -3.16  0.00
Si  1.86 -1.07 -2.97
Si -3.61 -0.03 -2.19
Si -1.82 -1.07  3.67
Si  3.62 -2.07  0.74
Si  1.82 -1.05  3.69
Si -3.64 -2.07  0.74
Si  3.65 -0.03 -2.19
Si -1.82  3.12 -2.26
Si  1.82  3.14 -2.24
Si -1.81 -3.15 -2.24
Si  0.02  2.07  3.75
Si -0.01  4.22  0.74
Si  1.82 -3.17 -2.26
Si -0.01  4.17  2.95
Si  3.62  2.07 -2.98
Si  3.62 -2.13  2.95
Si -3.64  2.07 -2.98
Si -3.64 -2.13  2.95
Si -0.01 -4.22 -2.98
Si  1.84 -5.21  0.74
Si -1.84 -1.05 -5.17
Si  3.61  4.21  0.74
Si  1.84 -1.01 -5.19
Si -0.02  2.11 -5.19
Si -3.62  2.08  3.73
Si -1.84 -5.24  0.76
Si  3.65  2.08  3.73
Si -3.66  4.21  0.74
Si  0.01 -4.21  3.73
Si -5.48  1.05  0.76
Si  5.47  1.08  0.74
Si -3.62  4.17  2.94
Si -5.41 -1.07 -2.97
Si -1.81 -1.04  5.91
Si -1.78  5.22 -2.97
Si -0.02 -2.08 -5.91
Si  3.64  4.17  2.94
Si  5.44 -1.04 -2.95
Si -0.02 -6.28  0.02
Si -5.44 -3.14 -0.02
Si  5.43 -3.16  0.00
Si  1.79 -1.06  5.93
Si  1.81  5.25 -2.95
Si -1.83 -5.23  2.98
Si -1.84  1.03 -5.93
Si -5.47  3.13  0.00
Si  5.46  3.16 -0.02
Si -0.02  6.31  0.02
Si -5.46  1.06  2.98
Si -3.62 -4.22 -2.99
Si -0.02  2.11  5.95
Si  1.86 -5.26  2.96
Si  1.83  1.06 -5.95
Si  5.49  1.03  2.96
Si  3.64 -4.22 -2.99
Si  0.02  6.26 -2.19
Si  1.82  5.22  3.67
Si  5.45 -1.07  3.67
Si -1.81  5.24  3.69
Si -0.01 -4.17 -5.19
Si -5.45 -1.05  3.69
Si -0.01  0.03  6.67
Si  5.45  3.12 -2.26
Si -5.45  3.14 -2.24
Si  3.62  2.12 -5.19
Si  5.45 -3.15 -2.24
Si -3.64  2.12 -5.19
Si  0.02 -6.32 -2.19
Si -5.45 -3.17 -2.26
Si -3.61 -4.22  3.75
Si  3.65 -4.22  3.75
Si -3.63 -6.25 -0.00
Si  3.64 -6.25 -0.00
Si  0.01 -4.15  5.93
Si -3.63 -2.05 -5.94
Si -7.26  0.05 -0.00
Si  3.64 -2.05 -5.94
Si -3.63  2.14  5.93
Si  7.27  0.05 -0.00
Si  3.64  2.14  5.93
Si  0.01  4.24 -5.94
Si -3.63  6.34 -0.00
Si  3.64  6.34 -0.00
Si -5.42 -5.21  0.74
Si  5.42 -1.05 -5.17
Si  7.24 -2.08  0.74
Si -3.62  6.28 -2.20
Si -5.42 -1.01 -5.19
Si  1.79  5.25 -5.17
Si  5.42 -5.24  0.76
Si -7.25 -0.01 -2.20
Si  3.61 -4.18 -5.19
Si -1.79 -3.11  6.67
Si  3.65  6.28 -2.20
Si  3.61  0.01  6.68
Si -3.62 -6.30 -2.20
Si -3.66 -4.18 -5.19
Si  7.28 -0.01 -2.20
Si  3.65 -6.30 -2.20
Si -1.84  7.34  0.76
Si  1.79 -3.14  6.69
Si -3.66  0.01  6.68
Si -1.79  5.28 -5.19
Si -7.29 -2.08  0.74
Si  1.84  3.18  6.67
Si -1.84  3.15  6.69
Si  1.84  7.37  0.74
Si  1.81 -7.33 -2.95
Si  5.43  1.03 -5.93
Si -5.41 -5.26  2.96
Si  3.61  4.21 -5.91
Si -7.25 -2.12  2.94
Si  5.46 -1.04  5.91
Si  1.86  7.32  2.96
Si  5.44 -5.23  2.98
Si  1.83  5.25  5.91
Si -7.25  2.08 -2.99
Si  3.61 -4.18  5.95
Si -1.84  5.23  5.93
Si  1.79 -5.26 -5.93
Si -3.66  4.21 -5.91
Si  7.28 -2.12  2.94
Si -1.81 -5.23 -5.95
Si -5.46  5.25 -2.95
Si -1.78 -7.36 -2.97
Si -5.44  1.06 -5.95
Si  7.28  2.08 -2.99
Si -3.66 -4.18  5.95
Si  5.49  5.22 -2.97
Si -5.47 -1.06  5.93
Si -1.83  7.35  2.98
Si -5.45  5.22  3.67
Si  0.02 -2.13 -8.12
Si -0.01 -8.36  0.74
Si  5.45  5.24  3.69
Si -7.25  2.07  3.75
Si -1.81 -7.34  3.69
Si  1.82 -7.36  3.67
Si  7.26  4.22  0.74
Si -1.81  1.04 -8.18
Si -7.27  4.22  0.74
Si  7.28  2.07  3.75
Si  1.82  1.03 -8.19
Si  7.25  4.17  2.95
Si -0.01  8.36 -2.98
Si -0.01 -0.03  8.88
Si -7.28  4.17  2.95
Si  7.25 -4.22 -2.98
Si -0.01 -0.03 -8.91
Si -0.01 -8.42  2.95
Si -7.28 -4.22 -2.98
Si -1.79 -7.31 -5.19
Si  0.01  4.18 -8.13
Si  9.05  1.05  0.76
Si -3.62 -2.11 -8.13
Si -9.05  1.08  0.74
Si  3.61 -8.38  0.74
Si  1.79 -7.34 -5.17
Si  7.24  2.11 -5.19
Si  3.65 -2.11 -8.13
Si  5.42  7.34  0.76
Si -0.02 -6.28  6.68
Si -5.42  3.18  6.67
Si  0.01  8.38  3.73
Si -3.66 -8.38  0.74
Si  5.42  3.15  6.69
Si  5.47 -3.11  6.67
Si -5.48  5.25 -5.17
Si -7.25 -4.21  3.73
Si -0.02  6.30  6.68
Si -5.42  7.37  0.74
Si -7.29  2.11 -5.19
Si  7.28 -4.21  3.73
Si -5.48 -3.14  6.69
Si  5.47  5.28 -5.19
Si -9.04  1.03  2.96
Si -5.41  7.32  2.96
Si  7.24 -2.08 -5.91
Si  7.24 -6.28  0.02
Si  9.06  3.13  0.00
Si -3.62 -0.02  8.88
Si  1.81 -3.13 -8.88
Si  5.43  5.23  5.93
Si  1.83 -7.33  5.91
Si -3.62  8.37 -2.99
Si  3.64 -0.02  8.88
Si  1.79  7.33 -5.93
Si -5.44  5.25  5.91
Si -1.81 -9.43 -0.02
Si -1.84  9.42  0.00
Si -1.83  3.16 -8.88
Si  3.64  8.37 -2.99
Si  7.24  6.31  0.02
Si -5.46 -7.33 -2.95
Si -9.07  3.16 -0.02
Si -1.78 -3.16  8.89
Si  7.24  2.11  5.95
Si  9.07  1.06  2.98
Si  1.86  3.13  8.89
Si -1.78 -3.16 -8.90
Si -9.09 -1.04 -2.95
Si -7.29 -2.08 -5.91
Si  9.09 -3.14 -0.02
Si  1.86  3.13 -8.90
Si  5.44  7.35  2.98
Si -7.29 -6.28  0.02
Si -3.62 -8.41  2.94
Si  1.81 -3.13  8.91
Si  1.79 -9.45  0.00
Si  1.83  9.45 -0.02
Si  5.46 -5.23 -5.95
Si -1.84 -7.36  5.93
Si -3.62 -0.02 -8.92
Si  3.64 -8.41  2.94
Si -1.81  7.35 -5.95
Si -5.47 -5.26 -5.93
Si -1.83  3.16  8.91
Si  3.64 -0.02 -8.92
Si -9.10 -3.16  0.00
Si -7.29  6.31  0.02
Si -7.29  2.11  5.95
Si  5.49 -7.36 -2.97
Si  9.12 -1.07 -2.97
Si -3.61  4.16 -8.12
Si -7.25  6.26 -2.19
Si  1.82  1.03  9.60
Si  3.65  4.16 -8.12
Si  3.62 -6.27  6.67
Si -1.81  1.04  9.62
Si -3.61  8.36  3.75
Si  7.26 -4.17 -5.19
Si -3.64 -6.27  6.67
Si  7.28  6.26 -2.19
Si  1.82  9.41 -2.26
Si -9.08 -1.07  3.67
Si  7.26  0.03  6.67
Si  9.08 -1.05  3.69
Si -7.25 -6.32 -2.19
Si  3.65  8.36  3.75
Si  5.45 -7.34  3.69
Si -7.27 -4.17 -5.19
Si -1.81  9.43 -2.24
Si -9.08  3.12 -2.26
Si -9.08 -3.15 -2.24
Si -5.45 -7.36  3.67
Si -7.27  0.03  6.67
Si  9.08  3.14 -2.24
Si  1.82 -9.44 -2.24
Si  3.62  6.32  6.67
Si  9.08 -3.17 -2.26
Si  5.45  1.04 -8.18
Si -3.64  6.32  6.67
Si  1.82 -5.25 -8.18
Si -0.01  8.41 -5.19
Si  7.28 -6.32 -2.19
Si -5.45  1.03 -8.19
Si -1.82 -9.46 -2.26
Si -1.82 -5.27 -8.19
Si  0.02 -2.13  9.68
Si  0.01 -8.34 -5.94
Si -7.26 -4.15  5.93
Si  7.27 -4.15  5.93
Si -7.26  4.24 -5.94
Si  7.27  4.24 -5.94
Si  0.01  8.44  5.93
Si  5.47 -7.31 -5.19
Si  3.61  8.40 -5.19
Si -5.48 -7.34 -5.17
Si  9.11 -5.21  0.74
Si -0.02 10.50  0.74
Si -9.11 -1.05 -5.17
Si -3.66  8.40 -5.19
Si  9.11 -1.01 -5.19
Si  0.01  4.18  9.67
Si -3.62 -2.11  9.67
Si -9.11 -5.24  0.76
Si  3.65 -2.11  9.67
Si -9.04  5.22 -2.97
Si  0.01  6.27  8.88
Si -5.41  3.13  8.89
Si  3.61 -8.38 -5.91
Si  0.01 10.46  2.94
Si -5.44 -7.33  5.91
Si  5.43  9.42  0.00
Si 10.87  0.01  0.02
Si -9.07 -1.04  5.91
Si -5.41  3.13 -8.90
Si  9.06 -1.06  5.93
Si  5.44  3.16 -8.88
Si -3.66 -8.38 -5.91
Si -5.46 -3.13 -8.88
Si  9.07  5.25 -2.95
Si  0.01 -6.31  8.88
Si  5.46 -9.43 -0.02
Si  5.43 -7.36  5.93
Si -5.47  7.33 -5.93
Si -5.44  9.45 -0.02
Si  0.01  6.27 -8.92
Si -9.09 -5.23  2.98
Si  5.44  3.16  8.91
Si  3.61  8.40  5.95
Si -5.46 -3.13  8.91
Si -9.10  1.03 -5.93
Si  9.09  1.06 -5.95
Si  5.49 -3.16  8.89
Si -10.92  0.01  0.02
Si -5.47 -9.45  0.00
Si  5.46  7.35 -5.95
Si  0.01 -10.51 -2.99
Si -3.66  8.40  5.95
Si  5.49 -3.16 -8.90
Si  0.01 -6.31 -8.92
Si  9.12 -5.26  2.96
Si -7.25 -2.13 -8.12
Si -5.45  1.03  9.60
Si -10.88 -0.03 -2.19
Si  7.26 -8.36  0.74
Si  9.08  5.22  3.67
Si -1.82 -5.27  9.60
Si  5.45  1.04  9.62
Si  1.82 -5.25  9.62
Si 10.89 -2.07  0.74
Si -7.27 -8.36  0.74
Si -5.45  9.41 -2.26
Si  7.28 -2.13 -8.12
Si -9.08  5.24  3.69
Si  5.45  9.43 -2.24
Si -0.01  0.03 -11.12
Si -10.91 -2.07  0.74
Si -5.45 -9.44 -2.24
Si 10.92 -0.03 -2.19
Si  1.82  7.34 -8.18
Si -1.82  7.32 -8.19
Si -5.45 -5.25 -8.18
Si -3.61  4.16  9.68
Si  3.62 10.51  0.74
Si -3.64 10.51  0.74
Si  5.45 -9.46 -2.26
Si  3.65  4.16  9.68
Si  5.45 -5.27 -8.19
Si  0.02 -10.52  3.75
Si  3.62 10.46  2.95
Si  3.62  6.26  8.88
Si -3.64 10.46  2.95
Si  7.25  8.36 -2.98
Si -3.64  6.26  8.88
Si  7.25 -0.03  8.88
Si 10.89  2.07 -2.98
Si -7.28  8.36 -2.98
Si 10.89 -2.13  2.95
Si  3.62  6.26 -8.91
Si -7.28 -0.03  8.88
Si -3.64  6.26 -8.91
Si  3.62 -6.32  8.88
Si  7.25 -0.03 -8.91
Si -3.64 -6.32  8.88
Si -10.91  2.07 -2.98
Si  7.25 -8.42  2.95
Si -10.91 -2.13  2.95
Si -7.28 -0.03 -8.91
Si  3.62 -6.32 -8.91
Si -7.28 -8.42  2.95
Si  3.62 -10.52 -2.98
Si -3.64 -6.32 -8.91
Si -3.64 -10.52 -2.98
Si -1.79 -11.50  0.74
Si  9.05  5.25 -5.17
Si -7.25  4.18 -8.13
Si -9.05 -3.11  6.67
Si  1.79 -3.14 -11.10
Si  1.84 -9.40  6.67
Si  7.24 -6.28  6.68
Si 10.87  4.21  0.74
Si  7.28  4.18 -8.13
Si -1.84  3.15 -11.10
Si -1.79 -3.11 -11.12
Si -0.02 -10.47 -5.19
Si  9.05 -3.14  6.69
Si  3.61  0.01 -11.12
Si -7.25  8.38  3.73
Si  0.01 -8.40 -8.13
Si  7.24  6.30  6.68
Si -9.05  5.28 -5.19
Si -10.88  2.08  3.73
Si  1.79 -11.53  0.76
Si -3.66  0.01 -11.12
Si  7.28  8.38  3.73
Si  1.79  9.44  6.69
Si -7.29 -6.28  6.68
Si  1.84  3.18 -11.12
Si -1.84 -9.44  6.69
Si -3.62 -10.50  3.73
Si 10.91  2.08  3.73
Si -7.29  6.30  6.68
Si -1.79  9.47  6.67
Si  3.65 -10.50  3.73
Si -9.11  7.34  0.76
Si -10.92  4.21  0.74
Si  9.11  3.18  6.67
Si -9.11  3.15  6.69
Si  9.11  7.37  0.74
Si -10.89  4.17  2.94
Si  1.83  1.06 11.84
Si  9.07 -7.33 -2.95
Si -9.04 -7.36 -2.97
Si -0.02  2.11 -11.85
Si  9.06 -5.26 -5.93
Si  1.86 11.52 -2.97
Si  1.81 -11.52  2.98
Si 10.91  4.17  2.94
Si -0.02 -10.47  5.95
Si  1.79 -1.06 -11.86
Si -9.07 -5.23 -5.95
Si  9.09  5.25  5.91
Si -1.84  1.03 11.87
Si -0.02 10.50 -5.91
Si -10.89 -4.22 -2.99
Si -1.83 11.55 -2.95
Si -1.78 -11.55  2.96
Si -9.10  5.23  5.93
Si -0.02 -2.08 11.88
Si -9.09  7.35  2.98
Si  9.12  7.32  2.96
Si -1.81 -1.04 -11.89
Si 10.91 -4.22 -2.99
Si -1.82  7.32  9.60
Si -1.82 11.51  3.67
Si  3.62 -10.46 -5.19
Si  5.45 -5.27  9.60
Si -3.64 -10.46 -5.19
Si  1.82  7.34  9.62
Si -5.45 -5.25  9.62
Si -3.61 -8.42 -8.12
Si  1.82 11.53  3.69
Si -9.08 -7.34  3.69
Si 10.89  2.12 -5.19
Si  3.65 -8.42 -8.12
Si  9.08 -7.36  3.67
Si -10.88 -4.22  3.75
Si -5.45  7.34 -8.18
Si -9.08  1.04 -8.18
Si  5.45  7.32 -8.19
Si  7.26  8.41 -5.19
Si -10.91  2.12 -5.19
Si  9.08  1.03 -8.19
Si -7.27  8.41 -5.19
Si -7.25 -2.13  9.68
Si 10.92 -4.22  3.75
Si  7.28 -2.13  9.68
Si  0.01 -12.54 -0.00
Si -3.63 -10.44  5.93
Si  3.64 -10.44  5.93
Si -7.26 -8.34 -5.94
Si -10.89 -6.25 -0.00
Si  7.27 -8.34 -5.94
Si 10.90 -6.25 -0.00
Si -3.63 -2.05 11.86
Si -10.89 -2.05 -5.94
Si  0.01 -4.15 -11.87
Si  3.64 -2.05 11.86
Si -10.89  2.14  5.93
Si 10.90 -2.05 -5.94
Si -3.63  2.14 -11.87
Si  0.01  4.24 11.86
Si 10.90  2.14  5.93
Si  3.64  2.14 -11.87
Si -10.89  6.34 -0.00
Si -7.26  8.44  5.93
Si 10.90  6.34 -0.00
Si  7.27  8.44  5.93
Si -3.63 10.53 -5.94
Si  3.64 10.53 -5.94
Si  0.01 12.63 -0.00
Si -9.05 -7.31 -5.19
Si -5.42 -9.40  6.67
Si  5.42  3.15 -11.10
Si  9.05 -7.34 -5.17
Si 10.87 -4.18 -5.19
Si -10.88  6.28 -2.20
Si  5.47 -11.50  0.74
Si 10.87  0.01  6.68
Si  0.01 12.57 -2.20
Si -10.88 -6.30 -2.20
Si -0.02 -6.28 -11.12
