500
set: 1441.00  0.00  0.00
Si -0.32  0.20 -1.08
Si  0.61 -1.35  1.63
Si -0.23  1.46  1.73
Si  1.24  1.85 -0.95
Si -2.83  0.29  0.33
Si  1.52  2.51  0.41
Si -2.17  0.88 -1.91
Si -2.08 -2.49 -0.29
Si -0.23 -1.56 -3.13
Si -0.33  1.58  3.25
Si  2.10 -2.47 -1.76
Si -1.98 -2.61 -1.82
Si -3.21  1.60  1.78
Si -3.04 -0.38  2.59
Si  2.45 -2.03  2.46
Si  4.22  0.29  0.33
Si  1.45  2.52 -3.21
Si -0.06 -1.94  3.87
Si  1.07  3.83 -1.76
Si  2.21 -0.26 -3.83
Si  3.85  1.60  1.78
Si  2.54 -3.79  0.41
Si  4.02 -0.38  2.59
Si -2.77  0.28  3.95
Si -3.10  3.81 -0.29
Si -0.51 -2.22 -4.50
Si  2.27 -4.45 -0.95
Si -3.01  3.69 -1.82
Si  1.42  4.26  2.46
Si  0.79 -4.84  1.73
Si -0.42  4.95  1.63
Si  4.89  0.88 -1.91
Si -0.67 -0.24 -5.31
Si -0.43 -0.63  5.32
Si -2.18 -4.69  1.78
Si  3.95  3.81 -0.29
Si  2.48 -3.78 -3.21
Si  4.98 -2.49 -0.29
Si -4.61 -2.03  2.46
Si  4.05  3.69 -1.82
Si  0.70 -4.72  3.25
Si -4.95 -2.47 -1.76
Si -1.26  4.74 -3.13
Si  4.29  0.28  3.95
Si  2.30 -0.38 -5.36
Si -1.14 -5.42 -1.91
Si  2.54 -0.77  5.27
Si -4.51 -3.79  0.41
Si -1.09  4.36  3.87
Si  5.08 -2.61 -1.82
Si -3.10  2.42 -4.63
Si -5.54  2.51  0.41
Si -5.82  1.85 -0.95
Si -4.85 -0.26 -3.83
Si  0.70 -6.10 -1.08
Si -1.53  4.08 -4.50
Si -1.81 -6.01  0.33
Si  2.35  2.72  5.17
Si -2.07 -3.87 -4.63
Si  3.96  2.42 -4.63
Si -4.79 -4.45 -0.95
Si  2.12  3.11 -5.45
Si -0.27 -2.60  6.13
Si -1.35  6.49 -1.08
Si -4.58 -3.78 -3.21
Si -6.45 -1.35  1.63
Si  6.73  0.20 -1.08
Si -0.30 -1.55 -6.75
Si -5.61  2.52 -3.21
Si -2.86  2.04  6.00
Si -4.52 -0.77  5.27
Si  4.88 -4.69  1.78
Si  3.14 -3.19 -5.45
Si  2.99  5.92  2.59
Si  3.38 -3.57  5.17
Si -4.76 -0.38 -5.36
Si  6.82  1.46  1.73
Si  1.18  6.03 -3.83
Si  2.45 -0.65  6.79
Si -1.29  3.69  6.13
Si -3.67 -3.57  5.17
Si -5.98  3.83 -1.76
Si  3.19  6.58  0.33
Si -3.00  0.67 -6.68
Si -1.74 -6.01  3.95
Si -3.91 -3.19 -5.45
Si -2.01 -6.67  2.59
Si -7.38  0.20 -1.08
Si -5.63  4.26  2.46
Si -4.70  2.72  5.17
Si -1.83 -4.26  6.00
Si  4.20  2.04  6.00
Si -7.29  1.46  1.73
Si -4.07  5.92  2.59
Si  6.73  1.58  3.25
Si -3.86  6.58  0.33
Si -0.57  1.96 -7.37
Si  6.83 -1.56 -3.13
Si  0.01 -1.95  7.49
Si  1.51  5.53  5.27
Si  4.99 -3.87 -4.63
Si  4.05  0.67 -6.68
Si  1.69  2.13  7.41
Si -1.46  5.67  5.32
Si  7.67 -1.35  1.63
Si  1.64 -7.64  1.63
Si  5.25 -6.01  0.33
Si -4.94  3.11 -5.45
Si -1.26  7.75  1.73
Si  1.27  5.91 -5.36
Si -3.19  7.17 -1.91
Si -7.29 -1.56 -3.13
Si -6.26 -4.84  1.73
Si  5.80  4.74 -3.13
Si  0.21  8.15 -0.95
Si  5.52  4.08 -4.50
Si -7.39  1.58  3.25
Si -1.70  6.05 -5.31
Si  7.00 -1.94  3.87
Si -4.61 -0.65  6.79
Si  5.92 -5.42 -1.91
Si  6.55 -2.22 -4.50
Si  3.23 -6.56 -3.83
Si  6.38 -0.24 -5.31
Si -7.12 -1.94  3.87
Si  3.26  6.58  3.95
Si  5.97  4.36  3.87
Si -1.33  4.74 -6.75
Si  3.86  7.17 -1.91
Si  0.36 -6.54 -5.31
Si  6.64  4.95  1.63
Si  0.80 -7.86 -3.13
Si -3.82 -6.56 -3.83
Si  6.62 -0.63  5.32
Si  8.30  1.85 -0.95
Si -3.79  6.58  3.95
Si -6.36 -4.72  3.25
Si  0.46 -4.33 -7.37
Si  2.82  7.90  1.78
Si  2.21 -1.65 -8.17
Si -1.36  7.87  3.25
Si -3.28  0.01 -8.04
Si  5.71  6.49 -1.08
Si -1.02  4.35  7.49
Si  0.59 -6.92  5.32
Si  5.04 -6.67  2.59
Si  0.49  8.80  0.41
Si -1.05 -8.79 -0.29
Si -6.35 -6.10 -1.08
Si  3.78  0.01 -8.04
Si  2.71 -4.16  7.41
Si -1.93  0.49  8.71
Si  8.57  2.51  0.41
Si  5.32 -6.01  3.95
Si  1.42  5.65  6.79
Si -1.98 -5.63 -6.68
Si  5.23 -4.26  6.00
Si  0.37 -0.96 -8.99
Si -7.56 -2.22 -4.50
Si -0.47  1.84 -8.90
Si -7.48  4.95  1.63
Si -4.24  7.90  1.78
Si -0.95 -8.90 -1.82
Si  0.97 -8.23  3.87
Si  8.13  3.83 -1.76
Si  3.33 -6.68 -5.36
Si  5.76  3.69  6.13
Si -7.49 -0.63  5.32
Si -5.88  6.03 -3.83
Si -3.73 -6.68 -5.36
Si  3.48 -8.33  2.46
Si -7.73 -0.24 -5.31
Si  7.85 -4.84  1.73
Si  0.42  8.81 -3.21
Si -3.58 -8.33  2.46
Si -5.37  2.13  7.41
Si  8.51  2.52 -3.21
Si -5.55  5.53  5.27
Si -9.22  0.88 -1.91
Si -1.74 -2.99  8.81
Si -9.13 -2.49 -0.29
Si  3.13 -8.76 -1.76
Si  1.19  4.65 -8.17
Si -3.49 -7.06  5.27
Si  3.57 -7.06  5.27
Si  6.79 -2.60  6.13
Si -5.42 -7.64  1.63
Si -0.09 -0.19  9.54
Si -4.34 -4.16  7.41
Si  5.60  5.67  5.32
Si -9.04 -2.61 -1.82
Si  1.31  3.44  8.86
Si  2.34 -2.85  8.86
Si -4.84 -1.65 -8.17
Si  0.52 -8.51 -4.50
Si  7.76 -4.72  3.25
Si  9.16 -2.47 -1.76
Si  5.36  6.05 -5.31
Si  6.76 -1.55 -6.75
Si -3.45  1.99 -8.85
Si  3.61  1.99 -8.85
Si -3.93 -8.76 -1.76
Si  8.48  4.26  2.46
Si -2.77  3.30  8.81
Si  5.79  7.75  1.73
Si -5.78  5.91 -5.36
Si  1.48  1.47  9.67
Si -7.32 -2.60  6.13
Si -9.89  0.29  0.33
Si  7.76 -6.10 -1.08
Si  0.55 -4.45 -8.90
Si -8.20 -5.42 -1.91
Si -8.14  4.36  3.87
Si  6.49  1.96 -7.37
Si  9.26 -0.26 -3.83
Si  9.51 -2.03  2.46
Si  5.73  4.74 -6.75
Si -8.32  4.74 -3.13
Si  5.08 -5.63 -6.68
Si -7.36 -1.55 -6.75
Si  3.02  6.96 -6.68
Si  5.13  0.49  8.71
Si -2.42 -4.31 -8.85
Si  5.70  7.87  3.25
Si  0.05 10.12 -1.76
Si  2.93  8.72 -4.63
Si  3.47 -6.94  6.79
Si  9.60 -3.79  0.41
Si  4.29  3.30  8.81
Si -3.58 -6.94  6.79
Si  9.33 -4.45 -0.95
Si  0.73 -7.85 -6.75
Si -10.10 -0.38  2.59
Si -4.72 -2.85  8.86
Si -2.25 -6.29 -8.04
Si -4.03  6.96 -6.68
Si -7.05 -1.95  7.49
Si -0.66  5.33 -8.99
Si  7.07 -1.95  7.49
Si  1.33  9.02  5.17
Si -5.64  5.65  6.79
Si -0.90 -5.80  8.71
Si -9.24 -4.69  1.78
Si -8.59  4.08 -4.50
Si  2.92 10.10 -0.29
Si -6.26 -7.86 -3.13
Si -10.27  1.60  1.78
Si  6.04  4.35  7.49
Si  2.75  6.30 -8.04
Si  3.02  9.98 -1.82
Si -9.82  0.28  3.95
Si  6.01 -8.79 -0.29
Si -3.48 -10.08  0.41
Si -8.41  6.49 -1.08
Si -6.84  8.15 -0.95
Si  1.28  2.89 -10.22
Si -4.13  8.72 -4.63
Si  3.57 -10.08  0.41
Si -8.86 -6.01  0.33
Si  5.31 -2.99  8.81
Si  3.17  8.33  6.00
Si  9.53 -3.78 -3.21
Si -6.70 -6.54 -5.31
Si -3.07  0.68 -10.29
Si -7.62  1.96 -7.37
Si  9.36 -0.38 -5.36
Si -6.60 -4.33 -7.37
Si  0.76 -8.90  6.13
Si  0.40 10.56  2.46
Si -10.16  3.81 -0.29
Si -6.46 -6.92  5.32
Si -10.07  3.69 -1.82
Si  4.64 -4.31 -8.85
Si -1.84 -2.88 10.34
Si  8.24  6.03 -3.83
Si -4.13 10.10 -0.29
Si -4.04  9.98 -1.82
Si  1.09  9.40 -5.45
Si -9.13 -3.87 -4.63
Si -6.09 -8.23  3.87
Si  6.10 -8.90 -1.82
Si  7.27  8.15 -0.95
Si  9.60 -0.77  5.27
Si -3.89  8.33  6.00
Si -6.57  8.80  0.41
Si -8.35  3.69  6.13
Si  2.31 -3.40 -10.22
Si  3.98  0.68 -10.29
Si  9.41  2.72  5.17
Si -5.87  4.65 -8.17
Si -4.31  6.30 -8.04
Si  2.51 -4.83  9.67
Si -5.74  3.44  8.86
Si  9.17  3.11 -5.45
Si  3.50 -10.07 -3.21
Si -3.55 -10.07 -3.21
Si 10.91  1.60  1.78
Si  1.04 -8.24  7.49
Si -1.60  8.26 -7.37
Si -1.15 -10.99  1.78
Si  7.41 -6.54 -5.31
Si -1.04 -10.17 -4.63
Si  6.58  1.84 -8.90
Si  0.66  8.43  7.41
Si -6.69 -0.96 -8.99
Si -2.87  3.42 10.34
Si -5.58  1.47  9.67
Si -2.60 -0.10 10.96
Si  3.30 -10.74 -0.95
Si  4.80 -6.29 -8.04
Si 11.28  0.29  0.33
Si -2.88 -9.48 -5.45
Si -2.31 -2.10 -10.91
Si -8.80 -6.01  3.95
Si  1.75  2.12 11.03
Si 11.07 -0.38  2.59
Si -1.11  6.11  9.54
Si  7.52 -4.33 -7.37
Si  1.82 -11.13  1.73
Si -10.15  2.42 -4.63
Si -3.76 -10.74 -0.95
Si -2.96  6.79  8.71
Si -2.65 -9.87  5.17
Si -1.45 11.24  1.63
Si  8.57  5.53  5.27
Si -6.64  8.81 -3.21
Si -8.32  7.75  1.73
Si -2.12 10.65  3.87
Si -8.52  5.67  5.32
Si  8.33  5.91 -5.36
Si -8.89 -4.26  6.00
Si  7.86 -7.86 -3.13
Si -9.07 -6.67  2.59
Si  0.94 -6.48  9.54
Si -2.56 10.37 -4.50
Si  7.54  8.80  0.41
Si  7.65 -6.92  5.32
Si  1.73 -11.01  3.25
Si -6.54 -8.51 -4.50
Si  1.40 -7.26 -8.99
Si 11.01  3.81 -0.29
Si  8.74  2.13  7.41
Si  4.19  3.42 10.34
Si  8.69 -7.64  1.63
Si -2.29 11.03 -3.13
Si  9.50 -0.65  6.79
Si  7.43 -0.96 -8.99
Si  4.17 -9.48 -5.45
Si -4.55 -4.83  9.67
Si -0.56  0.58 -11.71
Si -8.38  4.74 -6.75
Si -9.92  2.04  6.00
Si -4.75 -3.40 -10.22
Si  4.10  6.79  8.71
Si -7.53  1.84 -8.90
Si  6.97 -0.19  9.54
Si  4.46 -0.10 10.96
Si  1.00  2.24 -11.58
Si 11.11  3.69 -1.82
Si  3.24 -7.94 -8.17
Si -8.08  4.35  7.49
Si -0.11 -11.71 -1.91
Si -5.73  9.02  5.17
Si -6.50 -4.45 -8.90
Si -8.76  6.05 -5.31
Si -2.04 -5.62 -10.29
Si -7.14 -0.19  9.54
Si  5.22 -2.88 10.34
Si 10.04  5.92  2.59
Si -2.32  9.99  6.13
Si -8.11 -8.79 -0.29
Si -8.41  7.87  3.25
Si  4.41 -9.87  5.17
Si  7.48  8.81 -3.21
Si 10.20 -3.19 -5.45
Si -3.82 -7.94 -8.17
Si 11.35  0.28  3.95
Si  4.74 -2.10 -10.91
Si -11.66 -2.03  2.46
Si -5.78  2.89 -10.22
Si -10.06  0.67 -6.68
Si -8.01 -8.90 -1.82
Si  2.78 -4.17 11.03
Si  8.03 -8.23  3.87
Si 11.95  0.88 -1.91
Si -6.33 -7.85 -6.75
Si  6.16 -5.80  8.71
Si -1.50  8.14 -8.90
Si -3.34  4.19 -10.91
Si -0.80 -10.55  6.00
Si  4.50 10.37 -4.50
Si -11.57 -3.79  0.41
Si 10.44 -3.57  5.17
Si 10.25  6.58  0.33
Si 11.02  2.42 -4.63
Si  8.47  5.65  6.79
Si  7.58 -8.51 -4.50
Si  6.40  5.33 -8.99
Si  3.71  4.19 -10.91
Si 12.04 -2.49 -0.29
Si -0.78 -12.30  0.33
Si  5.46  8.26 -7.37
Si  4.94 10.65  3.87
Si -12.01 -2.47 -1.76
Si  2.58  8.28 -8.85
Si  0.00  1.07 12.35
Si -5.97  9.40 -5.45
Si  0.85 -1.73 12.26
Si  0.45  7.76  9.67
Si  4.77 11.03 -3.13
Si -5.24 -11.13  1.73
Si -5.30  2.12 11.03
Si -10.73 -3.57  5.17
Si  2.03 -4.06 -11.58
Si -7.01 10.12 -1.76
Si  9.27 -1.65 -8.17
Si  7.10 10.12 -1.76
Si  8.24  4.65 -8.17
Si -6.30 -8.90  6.13
Si -11.91 -0.26 -3.83
Si -8.98  0.49  8.71
Si  7.61 -4.45 -8.90
Si 12.13 -2.61 -1.82
Si -4.27 -4.17 11.03
Si  1.73 -12.39 -1.08
Si -9.03 -5.63 -6.68
Si  5.91 -10.99  1.78
Si  1.96 12.21  2.59
Si  4.73  9.99  6.13
Si -11.64 -3.78 -3.21
Si -10.25  7.17 -1.91
Si -10.97 -3.19 -5.45
Si -6.02 -8.24  7.49
Si -5.33 -11.01  3.25
Si  8.37  3.44  8.86
Si  5.61 11.24  1.63
Si  6.01 -10.17 -4.63
Si -11.85 -4.45 -0.95
Si  1.86 -2.08 -12.39
Si -6.66 10.56  2.46
Si -11.57 -0.77  5.27
Si  5.01 -5.62 -10.29
Si -10.92  6.58  0.33
Si  9.88  7.90  1.78
Si  2.96  6.97 -10.29
Si -1.57 -6.39 10.96
Si 10.29 -6.56 -3.83
Si  5.95  6.11  9.54
Si -8.80 -2.99  8.81
Si -2.97  1.22 12.40
Si -0.71 -9.29  8.81
Si -2.40  1.26 -12.54
Si -2.22 -2.22 -12.44
Si -12.60  2.51  0.41
Si 10.32  6.58  3.95
Si -11.13  5.92  2.59
Si -5.66 -7.26 -8.99
Si  0.15 12.33 -3.83
Si 11.26  2.04  6.00
Si -4.47  8.28 -8.85
Si -6.40  8.43  7.41
Si -0.71 -12.31  3.95
Si 11.94 -4.69  1.78
Si  0.48 11.82  5.27
Si  9.77 -4.16  7.41
Si  7.79 -7.85 -6.75
Si -11.81 -0.38 -5.36
Si 11.11  0.67 -6.68
Si  8.54  1.47  9.67
Si -7.72  5.33 -8.99
Si  1.49 -10.63 -7.37
Si  0.47 -5.71 -11.71
Si -12.87  1.85 -0.95
Si  3.43  6.20 10.96
Si -2.38 12.79 -1.08
Si -6.11 -6.48  9.54
Si  2.17 12.88  0.33
Si -0.18  4.56 12.26
Si -4.10  6.97 -10.29
Si -10.34  0.01 -8.04
Si -3.62  6.20 10.96
Si  0.84  4.21 -12.39
Si  4.09  1.22 12.40
Si -11.76  2.72  5.17
Si -7.96 -5.80  8.71
Si -2.35 11.04 -6.75
Si  7.45 10.56  2.46
Si  0.28  9.74  8.86
Si  3.37 -9.15  8.86
Si -2.05 10.64  7.49
Si 10.92  7.17 -1.91
Si  9.40 -2.85  8.86
Si -3.31 -10.46  7.41
Si -6.05  2.24 -11.58
Si -3.69 -9.15  8.86
Si -0.99 -12.97  2.59
Si -5.03 -4.06 -11.58
Si -10.88 -6.56 -3.83
Si  5.55  8.14 -8.90
Si -10.85  6.58  3.95
