500
set: 861.00  0.00  0.00
Si  0.40 -1.19  0.83
Si -0.43  1.27 -0.83
Si  1.42  1.22  0.84
Si -1.44 -1.24 -0.86
Si -0.87 -0.01  2.51
Si  2.25 -1.25 -0.84
Si -2.26  1.22  0.85
Si  0.88  0.03 -2.59
Si -0.04 -2.42 -2.56
Si  3.20  1.24 -0.84
Si  0.04  2.46  2.56
Si -3.21 -1.26  0.82
Si  2.70  0.02  2.53
Si -2.73 -0.00 -2.55
Si -0.53 -3.64  0.83
Si  0.55  3.65 -0.84
Si  1.73 -2.47  2.48
Si -1.76  2.40 -2.55
Si  1.88  2.45 -2.52
Si -1.83 -2.47  2.55
Si -1.25  3.70  0.89
Si  1.28 -3.71 -0.85
Si -0.89 -0.01 -4.20
Si  4.02 -1.23  0.87
Si -4.04  1.25 -0.80
Si  0.88  0.01  4.22
Si -2.31 -3.70 -0.84
Si  2.34  3.71  0.83
Si -3.04  3.67 -0.85
Si  3.10 -3.67  0.85
Si  0.05  2.48 -4.21
Si -0.09 -2.48  4.24
Si  2.73 -0.04 -4.19
Si -2.75  0.02  4.19
Si -3.59  2.44  2.52
Si  3.63 -2.48 -2.54
Si -3.66 -2.44 -2.55
Si  3.69  2.49  2.51
Si  1.73 -2.45 -4.20
Si -4.51  0.04  2.50
Si -1.84 -2.43 -4.20
Si -4.98 -1.24 -0.83
Si  4.99  1.23  0.81
Si  4.55 -0.06 -2.54
Si  1.90  2.45  4.21
Si -1.80  2.43  4.28
Si  0.83 -4.86  2.51
Si -4.12 -3.66  0.89
Si -0.80  4.91 -2.55
Si  4.15  3.65 -0.85
Si -0.98 -4.90 -2.52
Si  1.03  4.88  2.55
Si  3.57 -2.43  4.23
Si -3.61  2.45 -4.21
Si -5.88  1.23  0.81
Si  0.46 -1.22 -5.92
Si  5.88 -1.24 -0.83
Si -0.40  1.25  5.93
Si  2.64 -4.89 -2.50
Si  3.63  2.46 -4.24
Si -2.60  4.94  2.54
Si -3.70 -2.47  4.22
Si -0.35  6.09  0.82
Si  1.34  1.20 -5.88
Si  0.34 -6.11 -0.84
Si -1.38 -1.20  5.92
Si -4.90  3.69  0.85
Si -4.53 -0.01 -4.22
Si -2.82 -4.89  2.56
Si  4.52 -0.03  4.24
Si  2.83  4.93 -2.56
Si  4.97 -3.68 -0.85
Si  1.43  6.11 -0.86
Si -1.44 -6.13  0.84
Si  2.20 -1.21  5.89
Si -5.36  2.46 -2.50
Si  5.40 -2.41  2.54
Si -2.27  1.20 -5.90
Si -5.46 -2.41  2.54
Si -0.84  4.88  4.22
Si  0.77 -4.89 -4.24
Si -2.12  6.11 -0.83
Si -0.97 -4.90  4.21
Si  2.13 -6.12  0.81
Si  5.51  2.46 -2.50
Si  1.03  4.92 -4.20
Si -3.23 -1.25 -5.85
Si -6.32 -0.06 -2.54
Si  6.36  0.04  2.50
Si  3.16  1.23  5.93
Si -3.29 -6.08 -0.83
Si -0.55 -3.67 -5.90
Si  2.65 -4.91  4.21
Si  6.83  1.25 -0.80
Si  0.55  3.67  5.93
Si -2.66  4.90 -4.23
Si -5.90 -3.68 -0.85
Si -6.84 -1.23  0.87
Si  3.26  6.16  0.83
Si -4.37  4.88 -2.54
Si -2.81 -4.87 -4.21
Si  2.77  4.88  4.24
Si  5.96  3.69  0.85
Si  4.42 -4.91  2.52
Si -1.32  3.69 -5.93
Si  1.30 -3.72  5.93
Si  4.59  4.88  2.48
Si -5.35  2.45  4.21
Si -4.62 -4.95 -2.55
Si  5.35 -2.46 -4.23
Si -4.09  1.22  5.90
Si  4.08 -1.23 -5.92
Si  3.96 -6.10 -0.80
Si  2.31  3.68 -5.90
Si -2.32 -3.69  5.93
Si -3.98  6.12  0.87
Si  5.52  2.45  4.21
Si -5.52 -2.46 -4.23
Si -3.10  3.67  5.90
Si  3.09 -3.70 -5.89
Si  6.34 -0.01 -4.22
Si -6.34 -0.03  4.24
Si -0.40  1.21 -7.58
Si -6.72  3.65 -0.85
Si  0.45 -1.23  7.60
Si  6.75 -3.66  0.89
Si -0.17 -7.33  2.53
Si  0.14  7.35 -2.55
Si -1.39 -1.22 -7.57
Si  1.39  1.25  7.57
Si  7.66 -1.26  0.82
Si -7.67  1.24 -0.84
Si  4.40 -4.90 -4.21
Si  5.00  1.24 -5.90
Si -4.44  4.92  4.23
Si -5.04 -1.23  5.92
Si  4.59  4.90 -4.20
Si -1.65  7.39  2.50
Si -2.23  1.23  7.58
Si -7.17  2.49  2.51
Si  5.11  6.10 -0.84
Si  1.99  7.34  2.51
Si -1.98 -7.32 -2.59
Si  1.68 -7.42 -2.54
Si -4.67 -4.92  4.28
Si  7.21 -2.44 -2.55
Si  2.26 -1.19 -7.62
Si -5.12 -6.13  0.85
Si -7.24 -2.48 -2.54
Si  7.28  2.44  2.52
Si  4.16  3.63  5.93
Si -4.18 -3.66 -5.93
Si -3.19 -1.28  7.58
Si -6.28  4.88  2.48
Si  3.16  1.21 -7.65
Si  6.24 -4.95 -2.55
Si -0.55 -3.64  7.53
Si  5.83 -1.23  5.92
Si -5.87  1.24 -5.90
Si -5.76  6.10 -0.84
Si  5.75 -6.13  0.85
Si -3.46  7.29 -2.54
Si -0.37  6.11 -5.85
Si  0.56  3.66 -7.62
Si  0.11  7.37  4.19
Si  3.49 -7.32  2.50
Si -6.45 -4.91  2.52
Si -4.91  3.65 -5.89
Si -0.13 -7.40 -4.19
Si  6.50  4.88 -2.54
Si  4.91 -3.68  5.90
Si -1.29  3.67  7.58
Si  1.27 -3.65 -7.60
Si  0.30 -6.12  5.93
Si  8.14 -0.00 -2.55
Si -8.17  0.02  2.53
Si -7.77 -3.67  0.85
Si -3.74 -7.37  2.51
Si -1.67  7.34 -4.22
Si  0.60  8.57  0.85
Si -1.52 -6.15 -5.88
Si  1.48  6.16  5.92
Si -0.62 -8.60 -0.84
Si  1.66 -7.38  4.24
Si  7.16 -2.47  4.22
Si  3.75  7.38 -2.59
Si -4.03  1.27 -7.59
Si  1.98  7.34 -4.20
Si  7.83  3.67 -0.85
Si  1.16 -8.58  0.87
Si -1.99 -7.35  4.22
Si  2.31  3.71  7.53
Si -1.18  8.60 -0.80
Si  4.07 -1.21  7.62
Si  8.61  1.22  0.85
Si  7.26  2.45 -4.21
Si -7.24  2.46 -4.24
Si -8.62 -1.25 -0.84
Si  2.13 -6.11 -5.90
Si -2.30 -3.69 -7.62
Si -7.30 -2.43  4.23
Si -2.17  6.13  5.92
Si -2.47 -8.54  0.83
Si  2.43  8.62 -0.83
Si  6.20 -4.92  4.28
Si -6.28  4.90 -4.20
Si  3.12 -3.74  7.58
Si -3.08  3.71 -7.63
Si  6.78  1.22  5.90
Si -6.78 -1.23 -5.92
Si -3.27 -6.10  5.93
Si -3.01  8.58  0.81
Si  5.95  3.65 -5.89
Si  6.43  4.92  4.23
Si  8.12  0.02  4.19
Si -6.47 -4.90 -4.21
Si  3.02 -8.59 -0.83
Si  3.33  6.13 -5.92
Si -3.48  7.32  4.24
Si -8.14 -0.04 -4.19
Si -5.96 -3.68  5.90
Si  3.48 -7.36 -4.22
Si -5.02 -1.23 -7.61
Si  5.06  1.20  7.59
Si -6.90 -6.10 -0.80
Si  6.89  6.12  0.87
Si -3.75 -7.36 -4.20
Si  3.74  7.36  4.22
Si -0.88 -0.02  9.29
Si -8.53  3.71  0.83
Si  0.91  0.04 -9.30
Si  8.55 -3.70 -0.84
Si  3.92 -6.13  5.90
Si -3.92  6.12 -5.92
Si -4.16 -3.68  7.58
Si  4.13  3.70 -7.60
Si  5.28 -7.36 -2.55
Si -5.30  7.37  2.53
Si  9.43 -1.24 -0.86
Si -9.45  1.22  0.84
Si  5.56  7.37  2.53
Si -5.59 -7.36 -2.55
Si -0.01  2.43  9.27
Si -0.01 -2.45 -9.29
Si -2.69  0.02 -9.24
Si  4.29  8.57  0.84
Si -5.80  1.20  7.59
Si -8.98  2.45 -2.52
Si -4.30 -8.60 -0.86
Si  6.68 -3.66 -5.93
Si -6.70  3.63  5.93
Si  2.71 -0.03  9.28
Si  5.85 -1.23 -7.61
Si  7.63 -1.25 -5.85
Si  9.03 -2.47  2.55
Si -0.33  6.07  7.58
Si -4.89  3.61  7.58
Si  7.57 -6.08 -0.83
Si  9.11  2.40 -2.55
Si  8.05 -4.89  2.56
Si  1.77 -2.44  9.29
Si -8.04  4.93 -2.56
Si -1.78  2.41 -9.30
Si  4.92 -3.64 -7.63
Si -1.86 -2.40  9.30
Si -9.14 -2.47  2.48
Si  1.83  2.48 -9.29
Si -7.71  1.23  5.93
Si  0.29 -6.14 -7.65
Si -7.61  6.16  0.83
Si -1.47 -6.10  7.57
Si  1.48  6.13 -7.57
Si -4.80  8.59 -0.84
Si -8.22 -4.89 -2.50
Si  4.79 -8.62  0.82
Si  5.06  6.14  5.89
Si -5.27  7.31 -4.19
Si  5.25 -7.33  4.19
Si -5.14 -6.15 -5.90
Si  8.27  4.94  2.54
Si -2.16  6.12 -7.61
Si  2.20 -6.15  7.59
Si  5.60  7.31 -4.19
Si  1.10  9.75 -2.55
Si -0.72  9.80  2.52
Si -5.62 -7.33  4.19
Si  0.77 -9.83 -2.54
Si -1.14 -9.82  2.48
Si -8.97  2.45  4.21
Si -3.55  2.44  9.30
Si  9.03 -2.43 -4.20
Si  3.56 -2.45 -9.32
Si  5.73 -6.15 -5.90
Si  3.68  2.42  9.28
Si -3.69 -2.46 -9.27
Si -6.79 -1.21  7.62
Si -3.27 -6.14 -7.58
Si  6.84  1.27 -7.59
Si -4.47 -0.00  9.28
Si -5.81  6.14  5.89
Si  9.99 -0.01  2.51
Si  3.32  6.13  7.60
Si -9.58 -3.71 -0.85
Si  8.05 -4.87 -4.21
Si  5.98  3.61  7.58
Si  9.06  2.43  4.28
Si -9.98  0.03 -2.59
Si  4.53  0.01 -9.28
Si -5.94 -3.64 -7.63
Si  9.61  3.70  0.89
Si -9.14 -2.45 -4.20
Si -8.10  4.88  4.24
Si  2.54 -9.76  2.54
Si  0.59  8.55 -5.90
Si -0.67 -8.56  5.89
Si  7.77  3.67  5.90
Si -7.78 -3.70 -5.89
Si -2.50  9.82 -2.50
Si -8.21 -4.91  4.21
Si  8.21  4.90 -4.23
Si -1.22  8.57  5.90
Si  1.22 -8.58 -5.92
Si  8.60  1.20 -5.90
Si  3.97 -6.08 -7.59
Si -2.90 -9.78 -2.56
Si -0.83  4.89 -9.27
Si  0.81 -4.93  9.28
Si -1.04 -4.87 -9.29
Si  2.91  9.81  2.56
Si -3.93  6.14  7.62
Si 10.44  1.27 -0.83
Si -8.67 -1.21  5.89
Si  6.07  8.59 -0.84
Si  7.13 -7.37  2.51
Si -10.47 -1.19  0.83
Si -6.07 -8.62  0.82
Si -7.12  7.38 -2.59
Si  1.00  4.95  9.30
Si  0.70 -9.78  4.23
Si -7.37 -7.32  2.50
Si -2.40 -8.57 -5.92
Si -0.74  9.80 -4.21
Si  7.41  7.29 -2.54
Si -8.74 -6.12  0.81
Si  8.75  6.11 -0.83
Si -1.14 -9.80 -4.20
Si  1.06  9.78  4.28
Si  2.46  8.60  5.93
Si  6.71 -3.68  7.58
Si  2.59 -4.90 -9.25
Si -6.74  3.70 -7.60
Si  9.98 -0.01 -4.20
Si  2.96 -8.58  5.92
Si -6.58  8.57  0.84
Si -9.99  0.01  4.22
Si -3.00  8.60 -5.90
Si  6.57 -8.60 -0.86
Si  7.67 -1.28  7.58
Si -2.61  4.93  9.33
Si -2.87 -4.92  9.27
Si  2.85  4.90 -9.29
Si -7.71  1.21 -7.65
Si -2.49  9.80  4.21
Si  2.48 -9.81 -4.23
Si -10.32  3.65 -0.84
Si -6.95 -6.13  5.90
Si  0.91  0.04 10.95
Si -5.09 -6.12  7.58
Si  6.95  6.12 -5.92
Si 10.34 -3.64  0.83
Si -5.41  2.45 -9.25
Si -0.88 -0.02 -10.96
Si  4.34 -9.79 -2.55
Si  5.46  2.45 -9.25
Si -8.56  3.68 -5.90
Si -4.31  9.84  2.51
Si  8.55 -3.69  5.93
Si  5.39 -2.43  9.33
Si  0.24 -11.02  0.85
Si -0.17 11.02 -0.85
Si  5.13  6.16 -7.62
Si  7.12 -7.36 -4.20
Si -7.12  7.36  4.22
Si -5.47 -2.43  9.33
Si  2.91  9.83 -4.21
Si -2.96 -9.83  4.24
Si -4.70 -9.82  2.55
Si  4.75  9.80 -2.52
Si  1.61 11.05  0.89
Si  4.21  8.55 -5.88
Si -1.58 -11.06 -0.85
Si -4.25 -8.55  5.92
Si  7.39  7.32  4.24
Si -0.01 -2.45 10.96
Si -6.33  0.01 -9.28
Si  9.49 -1.20  5.92
Si -0.01  2.43 -10.98
Si -7.39 -7.36 -4.22
Si -2.04 11.04  0.85
Si  2.10 -11.03 -0.85
Si -9.53  1.20 -5.88
Si  6.40 -0.00  9.28
Si -9.84  4.88  2.55
Si  9.43 -6.13  0.84
Si -9.44  6.11 -0.86
Si  2.71 -0.03 -10.98
Si  9.89 -4.90 -2.52
Si  5.78 -6.12  7.58
Si -2.69  0.02 11.02
Si -1.78  2.41 10.95
Si -5.74  6.16 -7.62
Si 11.26 -1.19  0.83
Si -1.86 -2.40 -10.95
Si  1.77 -2.44 -10.97
Si -7.54  6.13 -5.92
Si  1.83  2.48 10.96
Si 10.83 -2.42 -2.56
Si -10.82  2.46  2.56
Si -11.30  1.27 -0.83
Si  7.60 -6.10  5.93
Si  4.45 -4.91  9.30
Si -4.45  4.91 -9.32
Si -10.04 -4.86  2.51
Si  4.77 -8.60 -5.85
Si -0.60 -8.54 -7.62
Si -10.90 -2.42 -2.56
Si  0.64  8.58  7.58
Si -7.75 -3.74  7.58
Si 10.91  2.46  2.56
Si  4.63  4.92  9.29
Si 10.07  4.91 -2.55
Si -4.84  8.58  5.93
Si -4.64 -4.94 -9.30
Si  7.79  3.71 -7.63
Si  4.30 -9.82  4.22
Si  1.21 -8.56  7.62
Si -3.39 -10.99  0.83
Si -1.17  8.62 -7.59
Si -4.37  9.81 -4.24
Si  3.42 11.00 -0.84
Si -8.60 -1.19 -7.62
Si  8.64  1.23  7.58
Si -4.70 -9.78 -4.20
Si  7.86  8.58  0.81
Si -7.85 -8.59 -0.83
Si  4.76  9.81  4.21
Si -3.86 11.00 -0.85
Si  2.46  8.56 -7.58
Si  3.88 -11.01  0.89
Si -2.41 -8.58  7.60
Si  3.56 -2.45 10.94
Si -3.55  2.44 -10.96
Si -9.84  4.92 -4.20
Si -8.88  7.34  2.51
Si  8.89 -7.32 -2.59
Si -2.94  8.55  7.59
Si  0.18  7.37 -9.24
Si  9.90 -4.90  4.21
Si  3.68  2.42 -10.97
Si -6.12  9.80 -2.52
Si  9.55  3.69 -5.93
Si -3.69 -2.46 10.98
Si 10.78 -2.48  4.24
Si  2.98 -8.58 -7.61
Si -4.47 -0.00 -10.98
Si -0.15 -7.38  9.28
Si -9.57 -3.72  5.93
Si -10.82  2.48 -4.21
Si  4.53  0.01 10.97
Si  6.17 -9.82  2.55
Si -6.90 -6.08 -7.59
Si 10.03  4.88  4.22
Si -1.61  7.35  9.28
Si  1.67 -7.34 -9.28
Si 10.92  2.48 -4.21
Si  7.18 -2.46 -9.27
Si -8.55  3.71  7.53
Si -11.39 -3.64  0.83
Si -7.19  2.42  9.28
Si -1.96 -7.32 -9.30
Si  1.98  7.33  9.29
Si -10.10 -4.89 -4.24
Si  6.94  6.14  7.62
Si -11.74 -0.01  2.51
Si -10.96 -2.48  4.24
Si  8.40 -8.54  0.83
Si 11.42  3.65 -0.84
Si -10.40 -1.22 -5.92
Si 11.75  0.03 -2.59
Si -1.04 -4.87 10.96
Si  8.56 -3.69 -7.62
Si -6.52 -9.79 -2.55
Si  6.02  8.58  5.93
Si -0.83  4.90 10.98
Si  0.81 -4.93 -10.97
Si -6.10 -8.60 -5.85
Si  1.00  4.95 -10.95
Si -9.18 -7.42 -2.54
Si  9.22  7.39  2.50
Si  7.32  2.44  9.30
