500
set: 350.00  0.00  0.00
Si  0.04 -0.04  0.06
Si  0.02  0.04 -2.27
Si -1.88  0.99  0.79
Si  1.91  1.10  0.76
Si -0.02 -2.22  0.75
Si -0.01 -2.12  3.04
Si -1.90  3.21  0.04
Si  1.86  3.23 -0.10
Si  1.88 -1.13 -3.03
Si  3.75 -0.02 -0.01
Si -1.88 -1.00 -3.09
Si  1.88  1.17  3.04
Si -3.77 -0.02 -0.01
Si -1.88  1.04  3.11
Si -1.89 -3.28 -0.10
Si  1.86 -3.30  0.04
Si -0.01  2.21 -3.09
Si  1.83 -1.00  3.78
Si -1.86  3.22 -2.23
Si  3.71  0.03 -2.32
Si  0.01  4.32  0.77
Si -1.93 -3.17 -2.36
Si  1.90 -3.29 -2.23
Si -0.05  2.20  3.81
Si -3.75 -2.19  0.77
Si  3.77 -2.19  0.77
Si -3.80  0.03 -2.32
Si -1.86 -1.12  3.91
Si  1.83  3.34 -2.36
Si -3.70 -2.11  3.06
Si  0.05 -4.28 -3.08
Si -3.70  2.23 -3.08
Si  3.81 -2.11  3.06
Si  0.05  4.40  3.06
Si  3.81  2.23 -3.08
Si  3.74  4.29  0.75
Si -3.77  4.29  0.75
Si -1.85 -5.40  0.76
Si -5.61  1.10  0.76
Si  5.63  0.99  0.79
Si -0.02  2.12 -5.38
Si  0.02 -4.30  3.87
Si -1.85 -1.07 -5.38
Si  1.87 -1.18 -5.35
Si -3.74  2.20  3.87
Si  3.77  2.20  3.87
Si  1.87 -5.52  0.79
Si  1.86 -1.11  6.04
Si -1.88 -5.33  3.04
Si -1.88  5.38 -3.03
Si  1.86  1.04 -6.09
Si  5.62  3.21  0.04
Si -0.01  6.49 -0.01
Si  3.75 -4.29 -3.09
Si -0.01  2.15  6.12
Si -3.76 -4.29 -3.09
Si -5.64 -1.13 -3.03
Si  5.64 -1.00 -3.09
Si  5.62 -3.28 -0.10
Si -5.65  3.23 -0.10
Si -5.63  1.17  3.04
Si  5.63  1.04  3.11
Si  3.75  4.38  3.04
Si -0.01 -2.19 -6.15
Si -3.76  4.38  3.04
Si -0.01 -6.53 -0.01
Si -5.65 -3.30  0.04
Si -1.90 -1.13  6.18
Si  1.88 -5.47  3.11
Si  1.88  5.51 -3.09
Si -1.89  1.06 -6.23
Si  5.59 -3.17 -2.36
Si  3.71 -4.31  3.81
Si -5.61 -3.29 -2.23
Si -0.05 -6.47 -2.32
Si  5.66  3.22 -2.23
Si -3.75  2.15 -5.37
Si -3.80 -4.31  3.81
Si -5.68 -1.00  3.78
Si  3.77  2.15 -5.37
Si  0.01 -0.02  6.90
Si  0.01 -4.36 -5.37
Si  1.90  5.39  3.91
Si -0.05  6.54 -2.32
Si -1.93  5.51  3.78
Si  5.66 -1.12  3.91
Si -5.68  3.34 -2.36
Si  0.04  4.30 -6.07
Si -3.72 -2.21 -6.07
Si -3.72  6.47  0.06
Si -7.48 -0.04  0.06
Si  3.79 -2.21 -6.07
Si  3.79  6.47  0.06
Si -3.72 -6.54  0.06
Si -3.72  2.13  6.20
Si  7.55 -0.04  0.06
Si  3.79 -6.54  0.06
Si  3.79  2.13  6.20
Si  0.04 -4.38  6.20
Si  1.87  7.50  0.79
Si -1.88  5.33 -5.35
Si -3.74 -6.47 -2.27
Si  3.77 -6.47 -2.27
Si -7.50  0.04 -2.27
Si  1.87  3.16  6.92
Si  3.74 -0.05  6.89
Si  1.91 -3.23  6.89
Si -1.85  3.27  6.89
Si -3.77 -0.05  6.89
Si  7.50 -2.22  0.75
Si -5.64 -1.18 -5.35
Si  7.53  0.04 -2.27
Si  5.67 -5.40  0.76
Si -1.85  7.61  0.76
Si -3.74  6.54 -2.27
Si  3.77  6.54 -2.27
Si  5.67 -1.07 -5.38
Si  1.91  5.44 -5.38
Si -7.53 -2.22  0.75
Si  3.74 -4.39 -5.38
Si -3.77 -4.39 -5.38
Si -1.88 -3.35  6.92
Si -5.64 -5.52  0.79
Si -1.89  5.40  6.04
Si  1.88 -7.50 -3.09
Si  5.64 -5.33  3.04
Si -5.65 -1.11  6.04
Si  5.63  5.38 -3.03
Si -5.65  1.04 -6.09
Si  1.88  7.55  3.11
Si  7.51 -2.12  3.04
Si -7.52 -2.12  3.04
Si  3.75  4.32 -6.15
Si  3.75 -4.36  6.12
Si -1.90 -5.47 -6.09
Si  1.86  5.38  6.18
Si -3.77  4.32 -6.15
Si -3.77 -4.36  6.12
Si  7.51  2.21 -3.09
Si -7.52  2.21 -3.09
Si -1.88 -7.64 -3.03
Si  5.62 -1.13  6.18
Si -5.64 -5.47  3.11
Si  5.62  1.06 -6.23
Si -5.63  5.51 -3.09
Si -1.88  7.68  3.04
Si  1.86 -5.44 -6.23
Si -1.93 -7.51  3.78
Si  1.90  1.05 -8.36
Si  7.47  2.20  3.81
Si -7.50  4.32  0.77
Si  5.59  5.51  3.78
Si -5.61  5.39  3.91
Si  7.52  4.32  0.77
Si -0.05 -2.14 -8.46
Si  0.01 -8.69  0.77
Si -7.56  2.20  3.81
Si  1.90 -7.62  3.91
Si -1.93  1.17 -8.49
Si -7.46 -4.28 -3.08
Si  0.05 -8.61  3.06
Si -7.46  4.40  3.06
Si  0.05  0.06  9.19
Si  0.05  0.06 -9.21
Si  7.57 -4.28 -3.08
Si  0.05  8.74 -3.08
Si  7.57  4.40  3.06
Si -5.64  7.50  0.79
Si  5.63  5.33 -5.35
Si -0.02  6.45  6.89
Si -3.74 -2.13 -8.40
Si  3.77 -2.13 -8.40
Si -5.61 -3.23  6.89
Si  7.50  2.12 -5.38
Si -5.64  3.16  6.92
Si  0.02  4.37 -8.40
Si -7.50 -4.30  3.87
Si -9.40  0.99  0.79
Si  1.91 -7.57 -5.38
Si -5.61  5.44 -5.38
Si -7.53  2.12 -5.38
Si  7.53 -4.30  3.87
Si  5.67  3.27  6.89
Si -0.02 -6.56  6.89
Si  9.42  1.10  0.76
Si  5.67  7.61  0.76
Si  3.74 -8.73  0.75
Si  5.63 -3.35  6.92
Si  0.02  8.71  3.87
Si -3.77 -8.73  0.75
Si -1.88 -7.69 -5.35
Si  5.62  5.40  6.04
Si -5.63 -7.50 -3.09
Si -1.90  7.55 -6.09
Si  1.88  3.21 -9.16
Si  1.88 -3.17  9.18
Si  3.75 -8.63  3.04
Si  1.86  9.72  0.04
Si -3.76 -8.63  3.04
Si -1.89 -7.61  6.04
Si  3.75  0.04  9.18
Si -1.88 -3.30 -9.16
Si  7.50  6.49 -0.01
Si -5.63  7.55  3.11
Si  7.50  2.15  6.12
Si -3.76  0.04  9.18
Si  9.38  3.23 -0.10
Si -1.89  9.74 -0.10
Si  5.62 -5.47 -6.09
Si  9.39 -1.13 -3.03
Si -7.52  6.49 -0.01
Si -7.52  2.15  6.12
Si  1.88 -3.17 -9.23
Si -9.39 -1.00 -3.09
Si  9.38 -3.30  0.04
Si -9.41  3.21  0.04
Si  9.39  1.17  3.04
Si -1.88  3.34  9.18
Si  7.50 -2.19 -6.15
Si  7.50 -6.53 -0.01
Si -9.39  1.04  3.11
Si -5.65  5.38  6.18
Si  1.86 -9.78 -0.10
Si  3.75  0.04 -9.23
Si -9.41 -3.28 -0.10
Si -7.52 -2.19 -6.15
Si  5.63 -7.64 -3.03
Si -7.52 -6.53 -0.01
Si  1.88  3.21  9.24
Si -3.76  0.04 -9.23
Si  1.86  7.57 -6.23
Si  3.75  8.72 -3.09
Si -1.90 -9.80  0.04
Si -3.76  8.72 -3.09
Si -1.88 -3.30  9.24
Si -1.88  3.34 -9.23
Si  1.86 -7.63  6.18
Si  5.64  7.68  3.04
Si -5.65 -5.44 -6.23
Si  5.59 -7.51  3.78
Si -5.61  1.05 -8.36
Si  1.83 -9.68 -2.36
Si  9.34 -1.00  3.78
Si  7.47 -6.47 -2.32
Si -1.86 -5.45 -8.36
Si -9.37  3.22 -2.23
Si  1.90  9.73 -2.23
Si -1.93  1.17  9.91
Si -0.05 -2.14  9.95
Si  0.01  8.66 -5.37
Si -3.75  6.49  6.90
Si  7.47  6.54 -2.32
Si  3.77  6.49  6.90
Si  1.83 -5.34 -8.49
Si -7.51 -0.02  6.90
Si  9.34  3.34 -2.36
Si -7.51 -4.36 -5.37
Si  3.71  8.71  3.81
Si  7.52 -0.02  6.90
Si -3.75 -6.52  6.90
Si -1.86 -9.79 -2.23
Si -9.37 -1.12  3.91
Si  7.52 -4.36 -5.37
Si  3.71  4.37 -8.46
Si  9.41 -3.29 -2.23
Si  3.77 -6.52  6.90
Si -7.56 -6.47 -2.32
Si  5.59  1.17 -8.49
Si -9.44 -3.17 -2.36
Si -3.80  8.71  3.81
Si -5.61 -7.62  3.91
Si -3.80  4.37 -8.46
Si -7.56  6.54 -2.32
Si  1.90  1.05 10.04
Si -1.93  9.84 -2.36
Si -7.48  4.30 -6.07
Si  7.55  4.30 -6.07
Si  0.04 -8.71 -6.07
Si  0.04  8.64  6.20
Si -7.48 -4.38  6.20
Si  7.55 -4.38  6.20
Si -0.02 10.79  0.75
Si  3.74  8.62 -5.38
Si -9.36 -5.40  0.76
Si -3.77  8.62 -5.38
Si -5.61 -7.57 -5.38
Si -9.36 -1.07 -5.38
Si  9.39 -1.18 -5.35
Si -3.74 -2.13 10.00
Si  3.77 -2.13 10.00
Si  9.39 -5.52  0.79
Si  0.02  4.37 10.00
Si  5.63 -7.69 -5.35
Si  9.38 -1.11  6.04
Si  5.62  7.55 -6.09
Si -9.39 -5.33  3.04
Si -5.63 -3.17  9.18
Si -5.63  3.21 -9.16
Si -0.01 -6.46  9.18
Si  5.62 -7.61  6.04
Si  9.38  1.04 -6.09
Si -0.01 -10.80 -3.09
Si -9.39  5.38 -3.03
Si -5.65  9.72  0.04
Si  3.75  8.65  6.12
Si  5.62  9.74 -0.10
Si -3.77  8.65  6.12
Si  5.63 -3.30 -9.16
Si 11.26 -0.02 -0.01
Si -0.01 -6.46 -9.23
Si -5.63 -3.17 -9.23
Si  5.64  3.34  9.18
Si -0.00  6.55  9.18
Si -11.28 -0.02 -0.01
Si -5.64  3.21  9.24
Si  3.75 -8.70 -6.15
Si -5.65 -9.78 -0.10
Si -3.77 -8.70 -6.15
Si  5.62 -9.80  0.04
Si  9.39 -5.47  3.11
Si -0.00 10.89  3.04
Si -9.41 -1.13  6.18
Si -5.65  7.57 -6.23
Si -0.00  6.55 -9.23
Si  5.63 -3.30  9.24
Si  5.64  3.34 -9.23
Si  9.39  5.51 -3.09
Si -9.41  1.06 -6.23
Si -5.65 -7.63  6.18
Si  1.83 -5.34  9.91
Si -1.86  7.56 -8.36
Si  5.59  1.17  9.91
Si -5.61  9.73 -2.23
Si 11.22  0.03 -2.32
Si -0.05 -10.81  3.81
Si -5.68 -9.68 -2.36
Si  5.66 -5.45 -8.36
Si  7.47 -2.14 -8.46
Si  3.71  4.37  9.95
Si -3.75 10.83  0.77
Si  3.77 10.83  0.77
Si -11.26 -2.19  0.77
Si  0.01 -0.02 -11.50
Si -7.51 -8.69  0.77
Si -3.80  4.37  9.95
Si 11.28 -2.19  0.77
Si  7.52 -8.69  0.77
Si  5.66 -9.79 -2.23
Si -5.68 -5.34 -8.49
Si  9.41  5.39  3.91
Si -7.56 -2.14 -8.46
Si -5.61  1.05 10.04
Si -11.32  0.03 -2.32
Si  5.59  9.84 -2.36
Si -9.44  5.51  3.78
Si -1.86 -5.46 10.04
Si  1.83  7.67 -8.49
Si -7.46 -8.61  3.06
Si -3.71 -10.78 -3.08
Si -11.22 -2.11  3.06
Si -3.70 -6.45  9.19
Si -3.70 -6.44 -9.21
Si -7.46  0.06  9.19
Si  3.81 -10.78 -3.08
Si -11.22  2.23 -3.08
Si -7.46  0.06 -9.21
Si  3.81 -6.45  9.19
Si  7.57 -8.61  3.06
Si  3.81 -6.44 -9.21
Si -3.70  6.57  9.19
Si -7.46  8.74 -3.08
Si -3.70  6.57 -9.21
Si  7.57  0.06  9.19
Si 11.32 -2.11  3.06
Si -3.70 10.91  3.06
Si  7.57  0.06 -9.21
Si  3.81  6.57  9.19
Si  3.81  6.57 -9.21
Si 11.32  2.23 -3.08
Si  3.81 10.91  3.06
Si  7.57  8.74 -3.08
Si -1.88  9.67  6.92
Si  9.39  7.50  0.79
Si  0.02 -8.64 -8.40
Si  7.50  6.45  6.89
Si -9.40  5.33 -5.35
Si  1.87  3.16 -11.48
Si 11.25  4.29  0.75
Si -7.53  6.45  6.89
Si -1.85 -9.74  6.89
Si -9.36  3.27  6.89
Si -3.74 -10.81  3.87
Si -7.50  4.37 -8.40
Si  9.39  3.16  6.92
Si  3.77 -10.81  3.87
Si  1.91 -11.91  0.76
Si -9.36  7.61  0.76
Si -11.29  4.29  0.75
Si  7.53  4.37 -8.40
Si -11.25  2.20  3.87
Si  7.50 -6.56  6.89
Si -1.88 -3.35 -11.48
Si  3.74 -0.05 -11.52
Si  1.91 -3.23 -11.52
Si  9.42 -3.23  6.89
Si -1.85  3.27 -11.52
Si  1.91  9.78  6.89
Si -3.77 -0.05 -11.52
Si -7.50  8.71  3.87
Si -7.53 -6.56  6.89
Si 11.29  2.20  3.87
Si  9.42  5.44 -5.38
Si -9.40 -3.35  6.92
Si  7.53  8.71  3.87
Si -0.02 -10.90 -5.38
Si  1.87 -9.86  6.92
Si -1.88 -12.02  0.79
Si -1.89  1.06 12.17
Si  1.88 -11.84  3.04
Si  1.88 11.88 -3.03
Si  9.39 -7.50 -3.09
Si -9.41  5.40  6.04
Si -1.90 -1.13 -12.22
Si  9.39  7.55  3.11
Si 11.27 -4.29 -3.09
Si -0.01 10.82 -6.15
Si -0.01 -2.19 12.26
Si  9.38  5.38  6.18
Si -11.28 -4.29 -3.09
Si 11.27  4.38  3.04
Si -9.41 -5.47 -6.09
Si -0.01  2.15 -12.28
Si -0.01 -10.87  6.12
Si -11.28  4.38  3.04
Si -9.39 -7.64 -3.03
Si  1.86  1.04 12.31
Si  9.38 -5.44 -6.23
Si -9.39  7.68  3.04
Si -1.88 -11.97  3.11
Si -1.88 12.02 -3.09
Si  1.86 -1.11 -12.37
Si 11.22 -4.31  3.81
Si -5.68 -5.34  9.91
Si  5.66  7.56 -8.36
Si  7.47 -2.14  9.95
Si  9.41  1.05 -8.36
Si -9.44 -7.51  3.78
Si  3.71 -8.64 -8.46
Si -7.50  8.66 -5.37
Si -1.86 11.90  3.91
Si -11.26  2.15 -5.37
Si  7.52  8.66 -5.37
Si  1.83  7.67  9.91
Si 11.28  2.15 -5.37
Si -3.80 -8.64 -8.46
Si -7.56 -2.14  9.95
Si -3.75 -10.86 -5.37
Si  3.77 -10.86 -5.37
Si -11.32 -4.31  3.81
Si -1.86  7.56 10.04
Si  1.83 12.01  3.78
Si  9.41 -7.62  3.91
Si  5.66 -5.46 10.04
Si -9.44  1.17 -8.49
Si -5.68  7.67 -8.49
Si -3.72  2.13 -12.21
Si -3.72 10.81 -6.07
Si  3.79  2.13 -12.21
Si -11.24 -2.21 -6.07
Si  3.79 10.81 -6.07
Si -11.24  6.47  0.06
Si  0.04 -4.37 -12.21
Si  0.04 12.98  0.06
Si -7.48 -8.71 -6.07
Si -7.48  8.64  6.20
Si -11.24 -6.54  0.06
Si -11.24  2.13  6.20
Si 11.30 -2.21 -6.07
Si 11.30  6.47  0.06
Si  7.55 -8.71 -6.07
Si  7.55  8.64  6.20
Si  0.04 -13.05  0.06
Si  0.04  4.30 12.33
Si 11.30 -6.54  0.06
Si -3.72 -10.88  6.20
Si 11.30  2.13  6.20
Si -3.72 -2.21 12.33
Si  3.79 -10.88  6.20
Si  3.79 -2.21 12.33
Si  1.87 11.84 -5.35
Si  5.63  9.67  6.92
Si  7.50 10.79  0.75
Si  0.02 -12.98 -2.27
Si -5.64  3.16 -11.48
Si -11.25 -6.47 -2.27
Si -7.53 10.79  0.75
Si -5.61 -11.91  0.76
Si -13.12  1.10  0.76
Si -0.02  2.12 13.02
Si 11.25 -0.05  6.89
