500
set: 581.00  0.00  0.00
Si  0.00  0.00  0.00
Si -0.01  0.09 -2.15
Si -1.76  1.04  0.74
Si  1.81  1.04  0.74
Si -0.14 -2.17  0.74
Si  1.75 -0.95 -2.89
Si -1.75  0.95  2.89
Si -1.82 -0.95 -2.89
Si  1.82  0.95  2.89
Si  3.56  0.00  0.00
Si -3.56  0.00  0.00
Si  1.62 -3.21  0.00
Si -1.62  3.21  0.00
Si  0.12  2.26 -2.89
Si -0.12 -2.26  2.89
Si  1.94  3.21  0.00
Si -1.94 -3.21  0.00
Si  1.61 -3.12 -2.15
Si  3.43 -2.17  0.74
Si  0.06  1.99  3.63
Si  3.55  0.09 -2.15
Si -3.58  0.09 -2.15
Si  1.68 -1.22  3.63
Si -1.95 -3.12 -2.15
Si -1.88 -1.22  3.63
Si -1.63  3.30 -2.15
Si  0.18  4.25  0.74
Si -3.70 -2.17  0.74
Si  1.93  3.30 -2.15
Si  3.44 -2.26  2.89
Si -3.44  2.26 -2.89
Si  0.20  4.16  2.89
Si -0.20 -4.16 -2.89
Si -3.69 -2.26  2.89
Si  3.69  2.26 -2.89
Si  1.73 -0.85 -5.04
Si -3.50  1.99  3.63
Si -1.83 -0.85 -5.04
Si -5.32  1.04  0.74
Si -3.38  4.25  0.74
Si  3.62  1.99  3.63
Si  5.37  1.04  0.74
Si  0.11  2.35 -5.04
Si  1.49 -5.38  0.74
Si  3.75  4.25  0.74
Si -0.26 -4.43  3.63
Si -2.08 -5.38  0.74
Si  3.37 -4.16 -2.89
Si -3.37  4.16  2.89
Si  0.07  1.90  5.78
Si -0.07 -1.90 -5.78
Si -5.19  3.21  0.00
Si  5.19 -3.21  0.00
Si -5.31  0.95  2.89
Si  5.31 -0.95 -2.89
Si -1.70  1.31 -5.78
Si  1.70 -1.31  5.78
Si -5.38 -0.95 -2.89
Si  5.38  0.95  2.89
Si  1.87  1.31 -5.78
Si -1.87 -1.31  5.78
Si -3.76 -4.16 -2.89
Si  3.76  4.16  2.89
Si -1.50  5.47 -2.89
Si  1.50 -5.47  2.89
Si  5.51  3.21  0.00
Si -5.51 -3.21  0.00
Si  5.17 -3.12 -2.15
Si  0.32  6.42  0.00
Si -0.32 -6.42  0.00
Si -0.21 -4.07 -5.04
Si  5.25 -1.22  3.63
Si -0.06 -0.27  6.52
Si -2.07 -5.47  2.89
Si  2.07  5.47 -2.89
Si -5.20  3.30 -2.15
Si -1.56  5.20  3.63
Si -3.45  2.35 -5.04
Si  3.31 -4.43  3.63
Si  2.00  5.20  3.63
Si -5.45 -1.22  3.63
Si  3.68  2.35 -5.04
Si -0.33 -6.33 -2.15
Si -5.52 -3.12 -2.15
Si  5.50  3.30 -2.15
Si  0.31  6.51 -2.15
Si -3.82 -4.43  3.63
Si  3.49 -1.90 -5.78
Si -3.49  1.90  5.78
Si -3.64 -1.90 -5.78
Si  3.64  1.90  5.78
Si -7.13  0.00  0.00
Si  7.13  0.00  0.00
Si  3.25 -6.42  0.00
Si -3.25  6.42  0.00
Si  3.36 -4.07 -5.04
Si -0.25 -4.52  5.78
Si  0.25  4.52 -5.78
Si -1.69  2.94  6.52
Si  6.99 -2.17  0.74
Si  5.30 -0.85 -5.04
Si  1.88  2.94  6.52
Si  3.50 -0.27  6.52
Si  5.05 -5.38  0.74
Si  3.23 -6.33 -2.15
Si -5.39 -0.85 -5.04
Si  7.12  0.09 -2.15
Si -7.14  0.09 -2.15
Si -3.63 -0.27  6.52
Si -3.77 -4.07 -5.04
Si  3.88  6.42  0.00
Si -3.88 -6.42  0.00
Si  1.56 -3.48  6.52
Si -3.26  6.51 -2.15
Si -7.26 -2.17  0.74
Si -1.44  7.46  0.74
Si -2.01 -3.48  6.52
Si -1.51  5.57 -5.04
Si -3.90 -6.33 -2.15
Si  2.05  5.57 -5.04
Si  2.13  7.46  0.74
Si -5.64 -5.38  0.74
Si -1.55  5.11  5.78
Si  1.55 -5.11 -5.78
Si  3.87  6.51 -2.15
Si -7.01  2.26 -2.89
Si  7.01 -2.26  2.89
Si -5.26  1.31 -5.78
Si  5.26 -1.31  5.78
Si  2.02  5.11  5.78
Si -2.02 -5.11 -5.78
Si -5.06  5.47 -2.89
Si  5.06 -5.47  2.89
Si  5.43  1.31 -5.78
Si -5.43 -1.31  5.78
Si -1.43  7.37  2.89
Si  1.43 -7.37 -2.89
Si  3.32 -4.52  5.78
Si -3.32  4.52 -5.78
Si  7.25  2.26 -2.89
Si -7.25 -2.26  2.89
Si -0.08 -1.80 -7.93
Si -5.13  5.20  3.63
Si -6.95  4.25  0.74
Si -7.07  1.99  3.63
Si  2.14  7.37  2.89
Si -2.14 -7.37 -2.89
Si -1.71  1.41 -7.93
Si  1.86  1.41 -7.93
Si -3.81 -4.52  5.78
Si  3.81  4.52 -5.78
Si  7.19  1.99  3.63
Si -5.63 -5.47  2.89
Si  5.63  5.47 -2.89
Si  5.57  5.20  3.63
Si  7.31  4.25  0.74
Si  1.36 -7.64  3.63
Si -6.93  4.16  2.89
Si  6.93 -4.16 -2.89
Si -0.46 -8.59  0.74
Si -0.05 -0.36  8.67
Si  0.05  0.36 -8.67
Si -2.20 -7.64  3.63
Si  3.48 -1.80 -7.93
Si -5.25  2.94  6.52
Si  7.33  4.16  2.89
Si -7.33 -4.16 -2.89
Si -3.65 -1.80 -7.93
Si  6.87 -4.43  3.63
Si -7.02  2.35 -5.04
Si  1.41 -7.27 -5.04
Si  0.26  6.15  6.52
Si -8.89  1.04  0.74
Si  5.44  2.94  6.52
Si  5.12 -3.48  6.52
Si -5.00  7.46  0.74
Si  8.94  1.04  0.74
Si -5.08  5.57 -5.04
Si -2.15 -7.27 -5.04
Si  7.24  2.35 -5.04
Si -0.44 -8.68  2.89
Si  0.44  8.68 -2.89
Si  3.11 -8.59  0.74
Si  0.38  8.41  3.63
Si  0.24  4.62 -7.93
Si -5.57 -3.48  6.52
Si -5.12  5.11  5.78
Si  5.12 -5.11 -5.78
Si -1.67  2.85  8.67
Si  1.67 -2.85 -8.67
Si  7.06 -1.90 -5.78
Si -7.06  1.90  5.78
Si -1.89 -2.85 -8.67
Si  1.89  2.85  8.67
Si  8.75 -3.21  0.00
Si -8.75  3.21  0.00
Si -0.38 -6.69  6.52
Si -7.39 -4.43  3.63
Si -4.99  7.37  2.89
Si  4.99 -7.37 -2.89
Si -6.81  6.42  0.00
Si  6.81 -6.42  0.00
Si -3.51  0.36 -8.67
Si  3.51 -0.36  8.67
Si  5.62  5.57 -5.04
Si  8.88 -0.95 -2.89
Si -8.88  0.95  2.89
Si -3.62 -0.36  8.67
Si  3.62  0.36 -8.67
Si  5.69  7.46  0.74
Si -7.20 -1.90 -5.78
Si  7.20  1.90  5.78
Si  8.95  0.95  2.89
Si -8.95 -0.95 -2.89
Si  6.92 -4.07 -5.04
Si  1.57 -3.57  8.67
Si -1.57  3.57 -8.67
Si  1.54 -5.01 -7.93
Si -4.02 -8.59  0.74
Si -5.58 -5.11 -5.78
Si  5.58  5.11  5.78
Si  8.74 -3.12 -2.15
Si  6.80 -6.33 -2.15
Si -3.31  6.15  6.52
Si  1.99  3.57 -8.67
Si -1.99 -3.57  8.67
Si  1.75  0.68  9.41
Si -2.03 -5.01 -7.93
Si -1.81  0.68  9.41
Si  8.81 -1.22  3.63
Si -8.76  3.30 -2.15
Si  7.07 -0.27  6.52
Si -9.07 -3.21  0.00
Si  9.07  3.21  0.00
Si -5.27  1.41 -7.93
Si  3.12 -8.68  2.89
Si -3.12  8.68 -2.89
Si -6.82  6.51 -2.15
Si -3.19  8.41  3.63
Si -7.19 -0.27  6.52
Si  5.42  1.41 -7.93
Si  1.30 -9.63  0.00
Si -1.30  9.63  0.00
Si  3.82  6.15  6.52
Si -0.19 -2.53  9.41
Si  1.38 -7.73  5.78
Si -1.38  7.73 -5.78
Si -5.70 -7.37 -2.89
Si  5.70  7.37  2.89
Si -3.33  4.62 -7.93
Si  4.93 -7.64  3.63
Si -7.34 -4.07 -5.04
Si -9.01 -1.22  3.63
Si -7.45 -6.42  0.00
Si  7.45  6.42  0.00
Si -9.08 -3.12 -2.15
Si  1.29 -9.54 -2.15
Si  3.18 -6.69  6.52
Si  9.06  3.30 -2.15
Si -2.26 -9.63  0.00
Si  2.26  9.63  0.00
Si  2.19  7.73 -5.78
Si -2.19 -7.73  5.78
Si  3.80  4.62 -7.93
Si  3.94  8.41  3.63
Si -4.01 -8.68  2.89
Si  4.01  8.68 -2.89
Si -7.46 -6.33 -2.15
Si -2.27 -9.54 -2.15
Si -1.31  9.72 -2.15
Si -6.88  4.52 -5.78
Si  6.88 -4.52  5.78
Si  7.44  6.51 -2.15
Si  0.43  8.78 -5.04
Si  0.39  8.32  5.78
Si -0.39 -8.32 -5.78
Si -3.95 -6.69  6.52
Si  4.98 -7.27 -5.04
Si  0.13  3.89  9.41
Si  8.62 -5.38  0.74
Si  2.25  9.72 -2.15
Si  8.86 -0.85 -5.04
Si -5.77 -7.64  3.63
Si  3.38 -2.53  9.41
Si -8.96 -0.85 -5.04
Si -7.38 -4.52  5.78
Si  7.38  4.52 -5.78
Si -3.75 -2.53  9.41
Si -5.24  2.85  8.67
Si  5.24 -2.85 -8.67
Si -5.71 -7.27 -5.04
Si -0.27 -6.06 -8.67
Si  0.27  6.06  8.67
Si -3.13  8.78 -5.04
Si -3.17  8.32  5.78
Si  3.17 -8.32 -5.78
Si  8.63 -5.47  2.89
Si -8.63  5.47 -2.89
Si  8.82 -1.31  5.78
Si -8.82  1.31 -5.78
Si -5.46 -2.85 -8.67
Si  5.46  2.85  8.67
Si  5.10 -5.01 -7.93
Si -9.21 -5.38  0.74
Si -5.14  3.57 -8.67
Si  5.14 -3.57  8.67
Si -10.70  0.00  0.00
Si 10.70  0.00  0.00
Si  0.50 10.67  0.74
Si -3.43  3.89  9.41
Si -8.69  5.20  3.63
Si  7.05 -1.80 -7.93
Si -9.00 -1.31  5.78
Si  9.00  1.31 -5.78
Si -4.87  9.63  0.00
Si  4.87 -9.63  0.00
Si 10.56 -2.17  0.74
Si  5.32  0.68  9.41
Si  3.70  3.89  9.41
Si  0.04  0.46 -10.82
Si -4.94  7.73 -5.78
Si  4.94 -7.73  5.78
Si -5.38  0.68  9.41
Si -7.21 -1.80 -7.93
Si -3.96 -8.32 -5.78
Si  3.96  8.32  5.78
Si  4.00  8.78 -5.04
Si 10.68  0.09 -2.15
Si  5.56  3.57 -8.67
Si -5.56 -3.57  8.67
Si  6.67 -8.59  0.74
Si  4.86 -9.54 -2.15
Si -10.71  0.09 -2.15
Si -5.59 -5.01 -7.93
Si -0.52 -10.58 -2.89
Si  0.52 10.58  2.89
Si  0.37  6.78 -8.67
Si -0.37 -6.78  8.67
Si -10.83 -2.17  0.74
Si -3.30  6.06  8.67
Si  3.30 -6.06 -8.67
Si  9.20  5.47 -2.89
Si -9.20 -5.47  2.89
Si -4.88  9.72 -2.15
Si  1.44 -5.74  9.41
Si  9.13  5.20  3.63
Si -3.06 10.67  0.74
Si -10.57  2.26 -2.89
Si 10.57 -2.26  2.89
Si -7.08  0.36 -8.67
Si  7.08 -0.36  8.67
Si -2.13 -5.74  9.41
Si -1.39  7.83 -7.93
Si -5.75 -7.73  5.78
Si  5.75  7.73 -5.78
Si -3.83 -6.06 -8.67
Si  3.83  6.06  8.67
Si -5.83 -9.63  0.00
Si  5.83  9.63  0.00
Si -7.18 -0.36  8.67
Si  7.18  0.36 -8.67
Si  1.66 -2.75 -10.82
Si -6.87  6.15  6.52
Si -1.90 -2.75 -10.82
Si -6.69  8.68 -2.89
Si  6.69 -8.68  2.89
Si -8.82  2.94  6.52
Si  2.18  7.83 -7.93
Si -10.51  4.25  0.74
Si -6.75  8.41  3.63
Si -3.05 10.58  2.89
Si  3.05 -10.58 -2.89
Si -8.57  7.46  0.74
Si -5.84 -9.54 -2.15
Si -3.52  0.46 -10.82
Si  8.69 -3.48  6.52
Si -10.63  1.99  3.63
Si  3.60  0.46 -10.82
Si -10.82 -2.26  2.89
Si 10.82  2.26 -2.89
Si -0.40 -8.22 -7.93
Si  4.07 10.67  0.74
Si -8.64  5.57 -5.04
Si -0.58 -10.85  3.63
Si  3.19 -6.78  8.67
Si -3.19  6.78 -8.67
Si -6.89  4.62 -7.93
Si -7.58 -8.59  0.74
Si -1.37  9.36  6.52
Si  9.01  2.94  6.52
Si  6.75 -6.69  6.52
Si 10.76  1.99  3.63
Si  5.82  9.72 -2.15
Si -1.58  3.67 -10.82
Si  1.98  3.67 -10.82
Si  8.68 -5.11 -5.78
Si -8.68  5.11  5.78
Si  7.39  6.15  6.52
Si  2.20  9.36  6.52
Si -0.53 -10.48 -5.04
Si -8.56  7.37  2.89
Si  8.56 -7.37 -2.89
Si -10.50  4.16  2.89
Si 10.50 -4.16 -2.89
Si -3.94 -6.78  8.67
Si  3.94  6.78 -8.67
Si  4.08 10.58  2.89
Si -4.08 -10.58 -2.89
Si 10.88  4.25  0.74
Si -1.77 -0.59 -11.56
Si  1.77  0.59 11.56
Si -1.80  0.59 11.56
Si  1.80 -0.59 -11.56
Si -9.13 -3.48  6.52
Si  7.37  4.62 -7.93
Si  2.98 -10.85  3.63
Si  7.51  8.41  3.63
Si -0.17 -2.62 11.56
Si  0.17  2.62 -11.56
Si  3.16 -8.22 -7.93
Si  9.18  5.57 -5.04
Si -7.57 -8.68  2.89
Si  7.57  8.68 -2.89
Si  1.17 -11.80  0.74
Si -1.49  7.10  9.41
Si 10.44 -4.43  3.63
Si  9.26  7.46  0.74
Si  1.24 -9.90  6.52
Si -8.84  1.41 -7.93
Si -10.58  2.35 -5.04
Si  6.94 -2.53  9.41
Si -9.14 -5.11 -5.78
Si  9.14  5.11  5.78
Si  2.08  7.10  9.41
Si  8.49 -7.64  3.63
Si -7.51 -6.69  6.52
Si 10.89  4.16  2.89
Si -10.89 -4.16 -2.89
Si  3.04 -10.48 -5.04
Si -2.40 -11.80  0.74
Si  8.99  1.41 -7.93
Si -2.33 -9.90  6.52
Si -3.97 -8.22 -7.93
Si  5.00 -5.74  9.41
Si -6.70  8.78 -5.04
Si 10.81  2.35 -5.04
Si -6.74  8.32  5.78
Si  6.74 -8.32 -5.78
Si -4.14 -10.85  3.63
Si -0.14 -3.80 -11.56
Si  0.14  3.80 11.56
Si -7.32 -2.53  9.41
Si -9.27 -7.37 -2.89
Si  9.27  7.37  2.89
Si -4.95  7.83 -7.93
Si 10.38 -6.42  0.00
Si -10.38  6.42  0.00
Si -1.24 11.62  3.63
Si -10.62  1.90  5.78
Si 10.62 -1.90 -5.78
Si  1.18 -11.89  2.89
Si -1.18 11.89 -2.89
Si  8.54 -7.27 -5.04
Si 10.49 -4.07 -5.04
Si -3.39  2.62 -11.56
Si  3.39 -2.62 11.56
Si  5.23 -2.75 -10.82
Si 10.36 -6.33 -2.15
Si -4.09 -10.48 -5.04
Si -7.00  3.89  9.41
Si -0.28 -5.96 -10.82
Si -10.95 -4.43  3.63
Si -10.77 -1.90 -5.78
Si 10.77  1.90  5.78
Si  0.57 10.94 -5.78
Si -0.57 -10.94  5.78
Si  2.32 11.62  3.63
Si  0.01  1.63 12.29
Si -5.69 -5.74  9.41
Si -4.93  9.36  6.52
Si  3.74  2.62 -11.56
Si -3.74 -2.62 11.56
Si -5.47 -2.75 -10.82
Si -10.39  6.51 -2.15
Si -2.39 -11.89  2.89
Si  2.39 11.89 -2.89
Si 10.63 -0.27  6.52
Si  1.63 -1.58 12.29
Si  7.26  3.89  9.41
Si -12.45  1.04  0.74
Si -5.15  3.67 -10.82
Si  5.74  7.83 -7.93
Si -1.93 -1.58 12.29
Si 12.50  1.04  0.74
Si -10.76 -0.27  6.52
Si -6.63 10.67  0.74
Si -9.33 -7.64  3.63
Si -6.86  6.06  8.67
Si  6.86 -6.06 -8.67
Si  7.52  8.32  5.78
