500
set: 993.00  0.00  0.00
Si  0.46 -1.15  0.86
Si -0.48  1.16 -0.89
Si  1.43  1.26  0.86
Si -1.43 -1.29 -0.88
Si  0.91 -0.03 -2.52
Si -2.21  1.26  0.88
Si -0.93  0.00  2.55
Si  2.26 -1.22 -0.91
Si -0.04 -2.45 -2.47
Si  0.07  2.44  2.53
Si -3.22 -1.18  0.83
Si  3.24  1.26 -0.81
Si  2.69 -0.02  2.54
Si -2.80 -0.01 -2.50
Si  0.48  3.62 -0.88
Si -0.49 -3.65  0.86
Si -1.73  2.42 -2.55
Si  1.79 -2.44  2.49
Si  1.87  2.46 -2.47
Si  1.32 -3.65 -0.81
Si -1.85 -2.48  2.53
Si -1.30  3.73  0.83
Si  4.04 -1.18  0.83
Si -4.02  1.26 -0.81
Si -0.88 -0.02 -4.24
Si  0.91  0.01  4.30
Si  2.37  3.76  0.86
Si -2.40 -3.75 -0.89
Si  0.03  2.45 -4.21
Si -3.08  3.69 -0.91
Si  3.13 -3.66  0.88
Si -0.06 -2.48  4.24
Si -3.55  2.47  2.49
Si -2.69 -0.04  4.22
Si  3.62 -2.50 -2.55
Si  2.76  0.01 -4.28
Si -3.64 -2.50 -2.55
Si  3.71  2.47  2.49
Si  4.46 -0.01 -2.50
Si  1.75 -2.48 -4.23
Si -4.57 -0.02  2.54
Si -5.00 -1.22 -0.91
Si -1.88 -2.46 -4.21
Si  1.86  2.43  4.24
Si -1.85  2.45  4.26
Si  5.05  1.26  0.88
Si -0.88  4.91 -2.50
Si -4.13 -3.66  0.88
Si  0.78 -4.93  2.54
Si  0.98  4.91  2.55
Si -1.01 -4.94 -2.52
Si  4.18  3.69 -0.91
Si -0.48  1.17  5.89
Si -5.83  1.26  0.86
Si  5.83 -1.29 -0.88
Si  3.50 -2.46  4.26
Si  0.48 -1.20 -5.91
Si -3.60  2.44 -4.23
Si  2.55 -4.92 -2.50
Si  3.66  2.44 -4.23
Si -2.65  4.89  2.54
Si  2.82  4.88 -2.52
Si -1.45 -1.29  5.87
Si -3.76 -2.46  4.26
Si  4.86 -3.75 -0.89
Si  1.42  1.30 -5.91
Si -4.50  0.01 -4.28
Si  0.35 -6.14 -0.91
Si  4.57 -0.04  4.22
Si -2.85 -4.91  2.55
Si -4.89  3.76  0.86
Si -0.30  6.17  0.88
Si -1.46 -6.07  0.86
Si  1.43  6.08 -0.89
Si -5.39  2.46 -2.47
Si  5.41 -2.48  2.53
Si -2.25  1.27 -5.94
Si  2.27 -1.19  5.95
Si -5.47 -2.44  2.49
Si -0.78  4.88  4.22
Si  2.13 -6.09  0.83
Si  1.03  4.89 -4.24
Si  5.54  2.42 -2.55
Si  0.84 -4.90 -4.28
Si -2.11  6.17 -0.81
Si -1.01 -4.90  4.30
Si  3.21  1.24  5.85
Si -3.16 -1.20 -5.89
Si  6.33  0.00  2.55
Si -6.35 -0.03 -2.52
Si  0.46  3.62  5.87
Si  6.78  1.16 -0.89
Si -0.49 -3.61 -5.91
Si -6.80 -1.15  0.86
Si -2.59  4.92 -4.28
Si -5.94 -3.65 -0.81
Si  2.66 -4.95  4.22
Si  1.30 -3.68  5.85
Si -4.44  4.88 -2.52
Si -1.25  3.71 -5.89
Si  3.34  6.17  0.86
Si  5.96  3.73  0.83
Si  4.41 -4.91  2.55
Si -2.80 -4.94 -4.24
Si -3.35 -6.21 -0.88
Si  2.82  4.92  4.30
Si  4.61  4.89  2.54
Si -4.05  1.24  5.85
Si -4.71 -4.92 -2.50
Si  5.38 -2.46 -4.21
Si  4.10 -1.20 -5.89
Si -5.40  2.43  4.24
Si  5.41  2.45  4.26
Si -3.92  6.17  0.86
Si -5.51 -2.48 -4.23
Si  2.39  3.71 -5.91
Si -2.40 -3.75  5.89
Si  3.92 -6.21 -0.88
Si  3.09 -3.64 -5.94
Si  6.38 -0.02 -4.24
Si -3.07  3.72  5.95
Si -6.35  0.01  4.30
Si  0.46 -1.19  7.63
Si -6.78  3.62 -0.88
Si  6.77 -3.65  0.86
Si -0.47  1.16 -7.64
Si  0.19  7.33 -2.55
Si -0.12 -7.36  2.49
Si  7.72 -1.15  0.86
Si -4.99 -1.19  5.95
Si  1.41  1.31  7.63
Si  5.01  1.27 -5.94
Si -7.75  1.16 -0.89
Si  4.46 -4.94 -4.24
Si -1.43 -1.30 -7.66
Si -4.44  4.92  4.30
Si -1.64  7.38  2.49
Si -4.61 -4.95  4.22
Si -1.96 -7.36 -2.47
Si -7.20  2.44  2.53
Si  2.29 -1.20 -7.58
Si -5.13 -6.09  0.83
Si  7.22 -2.45 -2.47
Si  1.71 -7.41 -2.55
Si  1.98  7.35  2.53
Si  4.67  4.92 -4.28
Si -2.27  1.28  7.59
Si  5.15  6.17 -0.81
Si -7.30 -2.45 -2.47
Si -4.17 -3.64 -5.94
Si  7.33  2.44  2.53
Si  4.19  3.72  5.95
Si  5.81 -1.29  5.87
Si  6.25 -4.94 -2.52
Si -3.18 -1.20  7.64
Si -6.28  4.91  2.55
Si -5.84  1.30 -5.91
Si  3.23  1.23 -7.68
Si  6.38  4.91 -2.50
Si  5.80 -6.07  0.86
Si -0.51 -3.60  7.63
Si -5.83  6.08 -0.89
Si  0.48  3.62 -7.66
Si -4.87  3.71 -5.91
Si  4.87 -3.75  5.89
Si  0.07  7.37  4.26
Si -0.17 -7.39 -4.23
Si -3.47  7.38 -2.47
Si -6.48 -4.93  2.54
Si  0.36 -6.11  5.95
Si  8.17 -0.03 -2.52
Si  3.50 -7.39  2.53
Si -8.19  0.00  2.55
Si -0.34  6.19 -5.94
Si  1.43  6.08  5.89
Si -1.26  3.72  7.64
Si  7.75  3.62 -0.88
Si -7.75 -3.65  0.86
Si  1.31 -3.68 -7.68
Si -1.44 -6.11 -5.91
Si -0.59 -8.57 -0.81
Si -1.69  7.35 -4.23
Si  3.79  7.38 -2.47
Si  1.58 -7.37  4.26
Si -3.76 -7.39  2.53
Si  1.22 -8.57  0.88
Si  1.95  7.37 -4.21
Si  0.61  8.65  0.83
Si -7.23  2.45 -4.21
Si  7.20 -2.48  4.24
Si -1.17  8.60 -0.91
Si  4.08 -1.20  7.64
Si -1.97 -7.40  4.24
Si -2.13  6.15  5.85
Si -4.03  1.23 -7.68
Si  2.19 -6.12 -5.89
Si  7.29  2.45 -4.21
Si  2.38  3.72  7.63
Si -7.32 -2.48  4.24
Si  8.69  1.26  0.86
Si -8.69 -1.29 -0.88
Si -2.38 -3.75 -7.64
Si  2.40  8.53 -0.88
Si -2.40 -8.56  0.86
Si  3.08 -3.63  7.59
Si -3.06  3.71 -7.58
Si -6.23  4.89 -4.24
Si  6.25 -4.90  4.30
Si  6.78  1.17  5.89
Si -6.78 -1.20 -5.91
Si -5.96 -3.68  5.85
Si -6.42 -4.90 -4.28
Si -4.97 -1.20 -7.58
Si  6.49  4.88  4.22
Si -3.49  7.34  4.24
Si  3.46 -7.37 -4.21
Si  4.99  1.28  7.59
Si -3.37 -6.20  5.87
Si -8.14 -0.02 -4.24
Si  2.95 -8.66 -0.89
Si  3.33  6.21 -5.91
Si  6.01  3.71 -5.89
Si -2.98  8.67  0.86
Si  8.17  0.01  4.30
Si  0.92  0.00 -9.23
Si  3.77  7.34  4.24
Si -6.91 -6.14 -0.91
Si -3.80 -7.37 -4.21
Si -0.90 -0.02  9.30
Si  6.96  6.17  0.88
Si  8.59 -3.65 -0.81
Si -8.57  3.73  0.83
Si  3.90 -6.20  5.87
Si -5.28  7.35  2.53
Si -4.18 -3.63  7.59
Si  5.30 -7.36 -2.47
Si -3.93  6.21 -5.91
Si  4.20  3.71 -7.58
Si -9.47  1.26  0.88
Si -5.55 -7.41 -2.55
Si  5.62  7.38  2.49
Si -0.04 -2.49 -9.29
Si  0.02  2.46  9.32
Si  9.52 -1.22 -0.91
Si -8.99  2.42 -2.55
Si  2.74  0.02  9.26
Si  6.77 -3.61 -5.91
Si -6.80  3.62  5.87
Si -2.67 -0.04 -9.31
Si  9.05 -2.44  2.49
Si -5.86  1.31  7.63
Si  5.83 -1.30 -7.66
Si  4.29  8.67  0.86
Si -4.31 -8.66 -0.89
Si  0.38 -6.11 -7.58
Si -1.83  2.45 -9.27
Si  8.04 -4.93  2.54
Si -9.11 -2.48  2.53
Si  9.13  2.46 -2.47
Si  1.87  2.42 -9.29
Si  1.73 -2.47  9.31
Si -4.88  3.72  7.63
Si -7.56  6.17  0.88
Si -7.74  1.17  5.89
Si -0.36  6.19  7.59
Si  7.74 -1.20 -5.91
Si  4.88 -3.75 -7.64
Si  7.61 -6.14 -0.91
Si -1.90 -2.45  9.32
Si -8.14  4.91 -2.50
Si -4.86  8.53 -0.88
Si  1.45  6.07 -7.64
Si -1.45 -6.10  7.63
Si  4.86 -8.56  0.86
Si -5.08 -6.12 -5.89
Si  5.13  6.15  5.85
Si  8.24  4.91  2.55
Si -8.27 -4.94 -2.52
Si -5.32  7.37 -4.21
Si  2.17 -6.11  7.64
Si  5.29 -7.40  4.24
Si -2.12  6.14 -7.68
Si  5.58  7.35 -4.23
Si -0.74  9.81  2.54
Si  0.64 -9.83 -2.50
Si  1.03  9.82 -2.50
Si  3.52 -2.47 -9.27
Si -1.13 -9.84  2.54
Si -5.68 -7.37  4.26
Si  9.01 -2.48 -4.23
Si  9.96 -0.02  2.54
Si -5.83  6.08  5.89
Si -3.62  2.44  9.31
Si -6.80 -1.19  7.63
Si  3.65  2.44  9.31
Si  6.80  1.16 -7.64
Si -3.75 -2.47 -9.27
Si -4.52  0.02  9.26
Si  5.82 -6.11 -5.91
Si -8.04  4.88  4.22
Si  9.12  2.43  4.24
Si -9.11  2.45  4.26
Si  7.72  3.62  5.87
Si -9.14 -2.46 -4.21
Si -10.06 -0.01 -2.50
Si  9.63  3.76  0.86
Si  4.59 -0.04 -9.31
Si  3.32  6.22  7.63
Si -5.95 -3.68 -7.68
Si  8.10 -4.90 -4.28
Si -7.75 -3.61 -5.91
Si -9.66 -3.75 -0.89
Si  6.00  3.72  7.64
Si -0.62 -8.59  5.85
Si -3.35 -6.21 -7.66
Si -2.52  9.80 -2.52
Si  2.50 -9.83  2.55
Si  0.67  8.62 -5.89
Si  1.18 -8.55 -5.94
Si -7.07  7.33 -2.55
Si -0.99 -4.91 -9.23
Si  0.83 -4.90  9.26
Si  8.29  4.89 -4.24
Si -6.04 -8.57  0.88
Si -8.27 -4.90  4.30
Si -0.76  4.87 -9.31
Si  7.14 -7.36  2.49
Si -1.16  8.63  5.95
Si  1.01  4.90  9.30
Si  2.90  9.83  2.55
Si -10.48 -1.18  0.83
Si  8.68  1.30 -5.91
Si  6.09  8.60 -0.91
Si -8.71 -1.29  5.87
Si -2.92 -9.86 -2.52
Si -3.94  6.22  7.63
Si 10.50  1.26 -0.81
Si  3.91 -6.21 -7.66
Si  2.38  8.54  5.87
Si  8.69  6.08 -0.89
Si -2.41 -8.53 -5.91
Si -8.72 -6.07  0.86
Si -7.38 -7.36  2.49
Si  1.14  9.79  4.22
Si -0.68  9.84 -4.28
Si  0.74 -9.86  4.22
Si  7.45  7.33 -2.55
Si -1.07 -9.82 -4.28
Si -2.60  4.93  9.26
Si  6.75 -3.60  7.63
Si -9.95 -0.04  4.22
Si  2.84  4.92 -9.23
Si -6.78  3.62 -7.66
Si -2.96  8.63 -5.91
Si  2.95 -8.66  5.89
Si  2.67 -4.96 -9.31
Si  6.67 -8.57 -0.81
Si 10.02  0.01 -4.28
Si -2.81 -4.93  9.30
Si  7.72 -1.19  7.63
Si -7.73  1.16 -7.64
Si -6.65  8.65  0.83
Si -6.90 -6.11  5.95
Si -8.51  3.71 -5.89
Si  8.56 -3.68  5.85
Si -5.39  2.42 -9.29
Si -0.92 -0.01 -10.98
Si  5.43  2.45 -9.27
Si  6.92  6.19 -5.94
Si -10.35  3.69 -0.91
Si  2.55 -9.85 -4.24
Si  5.36 -2.45  9.32
Si -2.52  9.84  4.30
Si -5.09 -6.11  7.64
Si  0.21 -11.01  0.83
Si  0.89 -0.02 11.01
Si -4.37  9.83  2.55
Si 10.40 -3.66  0.88
Si  4.34 -9.86 -2.52
Si  2.94  9.80 -4.24
Si  7.09 -7.39 -4.23
Si  5.14  6.14 -7.68
Si -5.53 -2.47  9.31
Si -2.92 -9.81  4.30
Si -0.19 11.09 -0.81
Si -7.19  7.37  4.26
Si  4.74  9.80 -2.52
Si -1.57 -11.05 -0.91
Si -6.34  0.00 -9.23
Si -4.76 -9.83  2.55
Si  9.39 -6.09  0.83
Si  7.33  7.37  4.26
Si  1.62 11.08  0.88
Si -9.37  6.17 -0.81
Si  9.81 -4.92 -2.50
Si  6.36 -0.02  9.30
Si  0.08  2.43 -11.00
Si -9.52  1.27 -5.94
Si -7.43 -7.39 -4.23
Si -2.01 11.09  0.86
Si  9.53 -1.19  5.95
Si  4.31  8.63 -5.91
Si  2.71 -0.03 -10.99
Si -4.31 -8.66  5.89
Si  2.00 -11.12 -0.88
Si -0.06 -2.44 11.07
Si -9.91  4.89  2.54
Si -4.42  4.92 -9.23
Si -5.81  6.07 -7.64
Si  5.81 -6.10  7.63
Si -10.81  2.47  2.49
Si -11.28  1.26 -0.81
Si -2.81  0.00 11.03
Si -1.74  2.42 10.99
Si 11.30 -1.18  0.83
Si  4.45 -4.93  9.30
Si -1.83 -2.48 -11.00
Si  7.62 -6.11  5.95
Si  4.85 -8.53 -5.91
Si 10.88 -2.50 -2.55
Si -4.88  8.54  5.87
Si  1.81 -2.45 -11.04
Si -7.60  6.19 -5.94
Si -10.90 -2.50 -2.55
Si -7.77 -3.60  7.63
Si  4.66  4.93  9.26
Si  7.74  3.62 -7.66
Si 10.08  4.88 -2.52
Si  1.16 -8.55  7.59
Si  1.86  2.47 11.07
Si -4.59 -4.96 -9.31
Si 10.97  2.47  2.49
Si -3.37 -10.98  0.86
Si -4.32  9.80 -4.24
Si  3.34 10.99 -0.89
Si -10.11 -4.91  2.55
Si -1.14  8.63 -7.58
Si -0.60 -8.60 -7.68
Si  0.65  8.63  7.64
Si  4.34 -9.81  4.30
Si  8.67  1.31  7.63
Si -7.85 -8.57 -0.81
Si -8.70 -1.30 -7.66
Si  3.89 -10.98  0.86
Si -2.42 -8.52  7.63
Si -3.92 10.99 -0.89
Si -4.71 -9.85 -4.24
Si  2.39  8.53 -7.66
Si  7.87  8.65  0.83
Si  4.74  9.84  4.30
Si -9.85  4.92 -4.28
Si  3.60 -2.49 10.99
Si -8.90  7.38  2.49
Si 10.76 -2.46  4.26
Si  0.08  7.36 -9.27
Si -3.66 -2.49 10.99
Si -3.54  2.46 -11.04
Si  9.92 -4.95  4.22
Si  6.13 -9.84  2.54
Si -0.18 -7.38  9.31
Si  4.45  0.00 11.03
Si -6.23  9.82 -2.50
Si -4.55 -0.03 -10.99
Si -2.97  8.63  7.63
Si -10.86  2.44 -4.23
Si  8.97 -7.41 -2.55
Si  9.65  3.71 -5.91
Si  3.72  2.46 -11.04
Si -9.66 -3.75  5.89
Si -6.89 -6.11 -7.58
Si  2.97 -8.67 -7.64
Si  1.60 -7.38 -9.27
Si 10.92  2.44 -4.23
Si -10.06 -4.94 -4.24
Si -1.70  7.36  9.31
Si  6.91  6.19  7.59
Si 11.72 -0.01 -2.50
Si -11.39 -3.66  0.88
Si 10.08  4.92  4.30
Si  7.22 -2.49 -9.29
Si -10.42 -1.20 -5.89
Si -8.52  3.72  7.64
Si -1.96 -7.40 -9.29
Si  1.93  7.37  9.32
Si -9.22 -7.36 -2.47
Si  6.52  9.81  2.54
Si 11.44  3.69 -0.91
Si -7.25  2.46  9.32
Si -6.08 -8.55 -5.94
Si 10.47  1.24  5.85
Si  1.00  4.91 -10.98
Si -11.02 -2.46  4.26
Si  9.24  7.35  2.53
Si -7.30 -2.49 -9.29
Si  0.80 -4.94 -10.99
Si  7.28  2.46  9.32
Si -8.43  8.60 -0.91
Si  8.57 -3.68 -7.68
Si  8.48 -8.57  0.88
Si -11.83 -0.02  2.54
