500
set: 920.00  0.00  0.00
Si -0.41  1.16 -0.81
Si  0.42 -1.19  0.82
Si  1.31  1.18  0.83
Si -1.32 -1.19 -0.82
Si -2.15  1.15  0.81
Si  0.87 -0.03 -2.45
Si -0.87 -0.01  2.46
Si  2.19 -1.18 -0.82
Si  3.06  1.18 -0.79
Si -3.07 -1.16  0.82
Si -0.01 -2.35 -2.44
Si  0.03  2.34  2.45
Si  2.62 -0.01  2.40
Si -2.59  0.03 -2.44
Si -0.48 -3.49  0.83
Si  0.49  3.50 -0.80
Si  1.73 -2.32  2.46
Si -1.25  3.50  0.81
Si -1.75 -2.35  2.43
Si  1.28 -3.49 -0.81
Si  1.78  2.35 -2.42
Si -1.74  2.36 -2.46
Si  3.91 -1.15  0.84
Si -0.88 -0.04 -4.07
Si -3.93  1.16 -0.82
Si  0.84 -0.01  4.09
Si -2.21 -3.52 -0.80
Si  2.21  3.53  0.83
Si -2.99  3.49 -0.83
Si  2.98 -3.53  0.80
Si -0.05 -2.33  4.07
Si  0.04  2.34 -4.11
Si  2.61  0.02 -4.06
Si -2.60  0.00  4.08
Si  3.46 -2.33 -2.45
Si -3.46  2.36  2.46
Si -3.52 -2.31 -2.45
Si  3.52  2.35  2.42
Si  1.72 -2.34 -4.05
Si -1.71  2.35  4.06
Si  4.36  0.01 -2.46
Si -4.80 -1.16 -0.82
Si -4.35 -0.01  2.47
Si  1.76  2.34  4.07
Si -1.79 -2.34 -4.07
Si  4.82  1.15  0.84
Si  0.82 -4.67  2.42
Si -0.91 -4.67 -2.42
Si  0.94  4.67  2.43
Si -3.95 -3.52  0.81
Si  3.97  3.52 -0.81
Si -0.82  4.71 -2.45
Si  3.45 -2.33  4.06
Si -3.48  2.32 -4.04
Si -5.65  1.15  0.84
Si  0.41 -1.17 -5.71
Si -0.44  1.17  5.71
Si  5.67 -1.16 -0.82
Si -2.55  4.67  2.44
Si -3.54 -2.34  4.04
Si  2.56 -4.68 -2.47
Si  3.52  2.37 -4.08
Si  0.36 -5.84 -0.79
Si  2.69  4.67 -2.44
Si -2.67 -4.68  2.45
Si -1.31 -1.17  5.66
Si -0.37  5.86  0.82
Si -4.36  0.00 -4.05
Si  1.30  1.18 -5.70
Si -4.79  3.49  0.80
Si  4.37  0.02  4.11
Si  4.78 -3.53 -0.83
Si  1.37  5.83 -0.82
Si -1.39 -5.84  0.83
Si  2.18 -1.14  5.70
Si  5.22 -2.35  2.44
Si -5.22  2.33 -2.47
Si -0.84  4.67  4.04
Si  0.83 -4.64 -4.08
Si -5.25 -2.35  2.44
Si -2.19  1.16 -5.73
Si  5.25  2.33 -2.47
Si  0.91  4.68 -4.07
Si -0.94 -4.68  4.07
Si -2.10  5.86 -0.82
Si  2.13 -5.86  0.84
Si -3.05 -1.16 -5.71
Si -6.12  0.01 -2.46
Si  6.12 -0.01  2.47
Si  3.07  1.17  5.72
Si  3.12  5.83  0.82
Si -3.11 -5.85 -0.81
Si  0.47  3.46  5.70
Si  6.54  1.16 -0.82
Si -0.51 -3.51 -5.68
Si  2.54 -4.69  4.07
Si  5.68  3.49  0.80
Si -6.56 -1.15  0.84
Si -2.58  4.65 -4.12
Si -5.69 -3.53 -0.83
Si  2.65  4.69  4.07
Si -2.66 -4.68 -4.11
Si -1.25  3.51 -5.69
Si  4.31 -4.66  2.46
Si  1.26 -3.49  5.72
Si -4.31  4.68 -2.45
Si -4.43 -4.66 -2.46
Si  4.42  4.69  2.46
Si -3.93  1.14  5.65
Si  3.88 -1.18 -5.71
Si  2.19  3.50 -5.68
Si  5.23  2.33  4.07
Si -5.24  2.33  4.07
Si  5.19 -2.36 -4.12
Si  3.85 -5.85 -0.82
Si -3.86  5.86  0.84
Si -2.23 -3.55  5.70
Si -5.28 -2.36 -4.12
Si  3.02 -3.49 -5.66
Si  6.11  0.00 -4.05
Si -3.01  3.51  5.72
Si -6.10  0.02  4.11
Si -0.07 -7.03  2.40
Si -6.50  3.52 -0.81
Si -0.41  1.16 -7.35
Si  6.52 -3.52  0.81
Si  0.11  7.04 -2.44
Si  0.44 -1.16  7.36
Si -1.32 -1.17 -7.32
Si  4.29 -4.69 -4.04
Si  7.40 -1.16  0.82
Si  1.34  1.16  7.33
Si -7.41  1.18 -0.79
Si  4.80  1.17 -5.71
Si -4.32  4.68  4.06
Si -4.83 -1.18  5.73
Si -4.40 -4.67  4.06
Si  4.42  4.67 -4.05
Si  1.66 -7.00 -2.46
Si -1.66  7.01  2.47
Si  1.82  7.00  2.46
Si -4.85 -5.86  0.81
Si  4.88  5.84 -0.82
Si -1.83 -7.04 -2.45
Si  6.95 -2.31 -2.45
Si -6.95  2.35  2.42
Si -2.17  1.20  7.32
Si  2.17 -1.16 -7.35
Si -3.94 -3.51 -5.69
Si -7.01 -2.33 -2.45
Si  7.01  2.36  2.46
Si  3.96  3.53  5.72
Si  6.04 -4.66 -2.46
Si -3.09 -1.15  7.31
Si  3.08  1.18 -7.32
Si -6.05  4.69  2.46
Si -0.09 -7.00 -4.06
Si -6.16 -4.66  2.46
Si  6.16  4.68 -2.45
Si  0.10  7.02  4.08
Si  0.47  3.50 -7.32
Si -5.59  5.84 -0.82
Si  5.64 -1.18  5.73
Si -5.67  1.17 -5.71
Si -0.48 -3.53  7.32
Si  5.62 -5.86  0.81
Si -0.36  5.86 -5.71
Si  0.38 -5.85  5.72
Si -4.75  3.52 -5.66
Si  3.42 -7.03  2.47
Si -3.42  7.03 -2.46
Si -7.85 -0.01  2.40
Si  3.57  6.99 -2.45
Si  0.55  8.17  0.81
Si  4.76 -3.50  5.72
Si -1.24  3.54  7.33
Si -0.51 -8.19 -0.82
Si  7.88  0.03 -2.44
Si  1.39  5.84  5.66
Si -3.57 -7.03  2.46
Si  1.27 -3.52 -7.37
Si -1.66  7.02 -4.05
Si  1.82  6.97 -4.07
Si -1.40 -5.84 -5.70
Si  1.67 -7.00  4.11
Si  7.48  3.49 -0.83
Si  1.21 -8.17  0.84
Si -1.23  8.18 -0.82
Si -7.49 -3.53  0.80
Si -1.86 -7.02  4.09
Si  6.94 -2.34  4.04
Si  3.90 -1.18  7.30
Si -3.90  1.16 -7.34
Si -6.95  2.37 -4.08
Si  6.99  2.32 -4.04
Si  2.22  3.48  7.32
Si -8.29 -1.18 -0.82
Si -2.22 -3.52 -7.32
Si  2.10 -5.84 -5.71
Si  8.32  1.15  0.81
Si -7.02 -2.33  4.06
Si -2.14  5.83  5.73
Si  2.28  8.18 -0.81
Si -2.28 -8.21  0.82
Si -3.00  3.50 -7.30
Si  3.01 -3.49  7.32
Si -6.05  4.67 -4.05
Si  6.07 -4.67  4.06
Si  6.54  1.14  5.65
Si -2.95  8.17  0.84
Si  6.15  4.68  4.06
Si  2.98 -8.17 -0.82
Si  3.11  5.85 -5.71
Si -6.18 -4.69 -4.04
Si -3.14 -5.84  5.71
Si  5.72  3.52 -5.66
Si  3.42 -7.01 -4.05
Si -6.59 -1.18 -5.71
Si -5.71 -3.50  5.72
Si -3.41  7.03  4.11
Si -4.81 -1.15 -7.32
Si  4.81  1.17  7.32
Si -7.86  0.02 -4.06
Si  3.54  7.01  4.09
Si  7.88  0.00  4.08
Si  6.61  5.86  0.84
Si -6.62 -5.85 -0.82
Si -3.58 -7.06 -4.07
Si  0.87  0.02 -8.95
Si  3.84 -5.87  5.65
Si -0.86 -0.01  8.97
Si -8.26  3.53  0.83
Si -3.94 -3.48  7.33
Si  8.27 -3.52 -0.80
Si -5.15  7.01  2.40
Si  5.19 -6.99 -2.44
Si -3.89  5.83 -5.71
Si  3.97  3.50 -7.37
Si -5.29 -6.99 -2.44
Si  5.32  7.01  2.40
Si  4.01  8.20  0.83
Si -4.02 -8.21 -0.82
Si -0.04 -2.33 -8.94
Si  0.02  2.32  8.96
Si  9.15 -1.19 -0.82
Si -9.16  1.18  0.83
Si -8.69  2.35 -2.42
Si  5.66 -1.15 -7.32
Si -5.66  1.17  7.32
Si -2.60 -0.01 -8.97
Si  2.62  0.01  8.96
Si  6.53 -3.51 -5.69
Si  8.72 -2.35  2.43
Si -6.51  3.53  5.72
Si  0.38 -5.83 -7.32
Si  8.73  2.36 -2.46
Si -8.74 -2.32  2.46
Si -0.39  5.87  7.31
Si -7.78  4.67 -2.44
Si  4.77 -3.52 -7.30
Si -4.77  3.52  7.32
Si  1.77  2.32 -8.95
Si -7.35  5.83  0.82
Si -1.72  2.35 -8.96
Si  7.80 -4.68  2.45
Si -7.40  1.17  5.72
Si -1.76 -2.35  8.96
Si  1.71 -2.33  8.98
Si  7.42 -1.16 -5.71
Si  7.36 -5.85 -0.81
Si  4.71 -8.17  0.82
Si  1.38  5.85 -7.32
Si -1.35 -5.85  7.33
Si -4.71  8.20 -0.79
Si  7.92  4.67  2.44
Si -7.92 -4.68 -2.47
Si  4.87  5.88  5.70
Si -4.88 -5.85 -5.73
Si  2.11 -5.84  7.32
Si -2.11  5.87 -7.32
Si -5.16  7.04 -4.06
Si  5.18 -7.01  4.08
Si -5.29 -7.01  4.08
Si  0.76 -9.35 -2.45
Si  5.31  7.04 -4.06
Si -0.97 -9.34  2.46
Si -0.76  9.38  2.46
Si  0.96  9.37 -2.46
Si  8.68 -2.34 -4.07
Si -9.20 -3.49 -0.81
Si  3.48 -2.35 -8.94
Si -3.45  2.35  8.96
Si -8.71  2.34  4.07
Si -6.57 -1.18  7.30
Si -3.10 -5.86 -7.35
Si  9.22  3.50  0.81
Si  3.53  2.33  8.96
Si  9.60 -0.01  2.46
Si -3.50 -2.35 -8.96
Si -9.60 -0.03 -2.45
Si -5.70 -3.52 -7.30
Si  3.13  5.86  7.36
Si  5.59 -5.85 -5.73
Si -5.60  5.88  5.70
Si  6.57  1.16 -7.34
Si -8.75 -2.34 -4.05
Si  5.70  3.52  7.32
Si  8.77  2.35  4.06
Si -4.34 -0.02  8.95
Si -0.52 -8.15  5.70
Si  4.33 -0.02 -8.98
Si -7.83  4.69  4.07
Si -7.45 -3.49 -5.66
Si  7.81 -4.68 -4.11
Si -2.52  9.35 -2.47
Si  2.52 -9.36  2.44
Si -1.23  8.16  5.65
Si  0.51  8.18 -5.73
Si -5.77 -8.17  0.82
Si  7.46  3.51  5.72
Si  7.89  4.65 -4.12
Si -2.70 -9.36 -2.44
Si  5.76  8.20 -0.79
Si  2.73  9.35  2.45
Si  1.19 -8.20 -5.71
Si -7.94 -4.69  4.07
Si -3.87  5.84  7.30
Si -6.90  6.99 -2.45
Si -8.30 -1.14  5.70
Si -0.80  4.66 -8.96
Si  0.84 -4.68  8.96
Si  8.29  1.16 -5.73
Si  0.93  4.67  8.96
Si  6.90 -7.03  2.46
Si  3.87 -5.85 -7.34
Si -0.93 -4.70 -8.95
Si -10.05 -1.19  0.82
Si 10.06  1.16 -0.81
Si -0.79  9.34 -4.04
Si  0.76 -9.35  4.06
Si  2.25  8.19  5.71
Si -8.35 -5.86  0.84
Si -2.28 -8.19 -5.71
Si -0.97 -9.36 -4.05
Si  8.37  5.86 -0.82
Si  0.99  9.37  4.06
Si -7.05 -7.03  2.47
Si  7.05  7.03 -2.46
Si  2.56 -4.66 -8.93
Si -2.97  8.19 -5.71
Si -2.58  4.67  8.95
Si  6.54 -3.48  7.33
Si  9.59 -0.04 -4.07
Si  2.94 -8.20  5.73
Si -6.50  3.50 -7.37
Si  2.66  4.69 -8.94
Si  7.39 -1.15  7.31
Si -2.67 -4.70  8.96
Si -9.63 -0.01  4.09
Si  6.45 -8.21 -0.82
Si -7.40  1.18 -7.32
Si -6.46  8.20  0.83
Si  6.58  5.83 -5.71
Si -2.54  9.34  4.07
Si -6.63 -5.87  5.65
Si  4.25 -9.32 -2.45
Si -0.29 10.51 -0.83
Si -4.87 -5.81  7.32
Si  2.49 -9.38 -4.12
Si -2.75 -9.34  4.07
Si -4.25  9.36  2.42
Si  2.74  9.35 -4.11
Si  0.28 -10.54  0.80
Si  4.87  5.85 -7.35
Si -5.21  2.35 -8.93
Si -9.98  3.50 -0.80
Si -0.86 -0.01 -10.57
Si  5.20 -2.35  8.95
Si  9.99 -3.49  0.83
Si  5.26  2.35 -8.93
Si  0.87  0.02 10.60
Si  8.24 -3.55  5.70
Si -1.42 -10.51 -0.81
Si -8.29  3.50 -5.68
Si  1.45 10.52  0.81
Si -4.45 -9.37  2.43
Si -5.28 -2.35  8.95
Si  4.48  9.37 -2.42
Si  6.90 -7.06 -4.07
Si -6.94  7.01  4.09
Si -4.01 -8.19  5.66
Si -2.10 10.50  0.80
Si -7.05 -7.01 -4.05
Si  4.00  8.20 -5.70
Si  2.08 -10.54 -0.83
Si  7.07  7.03  4.11
Si  9.09 -5.84  0.83
Si  9.16 -1.17  5.66
Si -9.10  5.83 -0.82
Si  0.02  2.32 -10.59
Si  6.13 -0.02  8.95
Si -0.04 -2.33 10.60
Si -9.18  1.18 -5.70
Si -6.14 -0.02 -8.98
Si -9.53  4.67  2.43
Si -2.60 -0.01 10.58
Si  5.60 -5.81  7.32
Si  9.56 -4.67 -2.42
Si  2.62  0.01 -10.59
Si -5.60  5.85 -7.35
Si  1.71 -2.33 -10.57
Si -4.30  4.66 -8.94
Si  7.33 -5.84  5.71
Si -10.89  1.16 -0.81
Si -10.45  2.34  2.45
Si -1.76 -2.35 -10.59
Si -1.72  2.35 10.59
Si 10.89 -1.19  0.82
Si  4.32 -4.67  8.96
Si  1.77  2.32 10.59
Si -9.65 -4.67  2.42
Si -7.36  5.85 -5.71
Si 10.46 -2.35 -2.44
Si -3.18 -10.50  0.83
Si -0.53 -8.18 -7.35
Si -10.48 -2.35 -2.44
Si  9.65  4.71 -2.45
Si  3.19 10.51 -0.80
Si  7.47  3.50 -7.30
Si -7.46 -3.49  7.32
Si -4.42 -4.66 -8.96
Si  0.53  8.22  7.32
Si 10.50  2.34  2.45
Si  4.72 -8.18 -5.71
Si -4.70  8.18  5.72
Si  4.24 -9.36  4.04
Si  1.21 -8.19  7.30
Si  4.41  4.69  8.98
Si -1.20  8.18 -7.34
Si -4.25  9.39 -4.08
Si -7.50 -8.17 -0.82
Si  4.46  9.36  4.07
Si  8.30  1.20  7.32
Si  7.52  8.17  0.84
Si -4.49 -9.35 -4.07
Si -8.30 -1.16 -7.35
Si -2.26 -8.17  7.36
Si  2.29  8.18 -7.35
Si -3.80 10.54 -0.81
Si  3.83 -10.53  0.81
Si  2.96 -8.16 -7.32
Si -0.07 -7.00  8.96
Si  9.54 -4.68  4.07
Si -5.99  9.37 -2.42
Si -2.96  8.19  7.32
Si  0.10  7.01 -8.97
Si -3.45  2.35 -10.59
Si -9.21 -3.49  5.72
Si  6.02 -9.37  2.43
Si  9.22  3.51 -5.69
Si -3.50 -2.35 10.58
Si -8.65  7.00  2.46
Si -9.56  4.68 -4.07
Si  3.53  2.33 -10.59
Si  3.48 -2.35 10.61
Si  8.64 -7.04 -2.45
Si  4.33 -0.02 10.57
Si 10.42 -2.33  4.07
Si  9.63  4.67  4.04
Si  6.60  5.84  7.30
Si -10.43  2.34 -4.11
Si -9.64 -4.64 -4.08
Si -4.34 -0.02 -10.60
Si -6.22 -9.32 -2.45
Si -6.60 -5.85 -7.34
Si -1.64  7.00  8.95
Si  6.22  9.36  2.42
Si -1.83 -6.99 -8.95
Si -5.75 -8.18 -5.71
Si  1.63 -7.04 -8.98
Si -8.81 -7.00 -2.46
Si -10.52 -2.33  4.07
Si -10.95 -3.49  0.83
Si 10.51  2.34 -4.11
Si  8.82  7.01  2.47
Si  1.84  7.00  8.97
Si  5.77  8.18  5.72
Si 10.96  3.50 -0.80
Si -6.94  2.33  8.96
Si -8.25  3.48  7.32
Si  8.25 -3.52 -7.32
Si -7.00 -2.35 -8.94
Si -0.80  4.66 10.58
Si  6.97 -2.35 -8.96
Si 10.03  1.17  5.71
Si -8.19  8.18 -0.81
Si 11.34 -0.03 -2.45
Si  0.93  4.67 -10.59
Si -11.35 -0.01  2.46
Si  0.84 -4.68 -10.59
