500
set: 1473.00  0.00  0.00
Si  0.49  0.29  0.47
Si -1.22 -0.06 -1.58
Si  0.07 -0.33  2.10
Si  0.74 -1.33 -2.27
Si -1.01  1.96  2.16
Si  2.83 -1.22  0.46
Si -2.73  1.84  0.16
Si -1.89 -1.81  2.16
Si -0.40 -3.48  0.47
Si  2.70  0.15 -2.34
Si -3.45 -0.26 -0.94
Si  1.62  2.44 -2.27
Si  3.27  1.07  1.60
Si  2.39 -2.71  1.60
Si -0.34  3.72 -1.58
Si -3.61 -1.94  0.16
Si  0.95  3.45  2.10
Si  1.37  4.07  0.47
Si -3.04  1.55 -2.83
Si -2.56  3.52 -0.94
Si  3.71  2.56  0.46
Si  2.87 -0.74  3.49
Si -0.98 -1.46 -4.28
Si -2.11 -3.84 -1.58
Si  1.81 -3.62 -2.34
Si -0.82 -4.10  2.10
Si -3.85 -0.54  2.85
Si -0.10  2.32 -4.28
Si  3.12  0.77 -3.96
Si  0.20 -1.70  4.90
Si -2.97  3.24  2.85
Si -3.92 -2.23 -2.83
Si -3.48 -0.74 -3.97
Si -2.15 -0.18  4.91
Si  1.95 -5.00  0.46
Si  1.08  2.08  4.90
Si -0.81  0.22 -5.38
Si  2.23 -3.00 -3.96
Si  5.50 -0.26 -0.94
Si -0.14 -5.11 -2.27
Si -2.60  3.04 -3.97
Si  5.33 -1.94  0.16
Si  3.58  3.93 -2.34
Si -5.23  2.56  0.46
Si  2.70 -2.42  4.60
Si  5.09 -0.54  2.85
Si -1.84  5.62  0.16
Si  3.75  3.04  3.49
Si  3.59  1.36  4.60
Si -5.67  1.07  1.60
Si -4.33 -4.04 -0.94
Si  1.98 -4.52  3.49
Si  0.64  0.59  6.04
Si -0.12  5.74  2.16
Si  5.02 -2.23 -2.83
Si  1.41  0.42 -6.02
Si  4.62 -4.04 -0.94
Si -1.26  3.59  4.91
Si -6.12 -1.22  0.46
Si -2.15  5.33 -2.83
Si  6.22  1.84  0.16
Si  4.16  4.85  1.60
Si -2.78 -5.59  2.16
Si  4.21 -4.32  2.85
Si -1.70 -3.56 -5.38
Si -6.25  0.15 -2.34
Si  0.07  4.00 -5.38
Si  5.91  1.55 -2.83
Si  5.46 -0.74 -3.97
Si -0.24 -3.19  6.04
Si  1.51 -6.49  1.60
Si  0.53 -3.36 -6.02
Si -5.20  3.04  3.49
Si -4.79  4.85  1.60
Si -3.03 -3.96  4.91
Si -1.86 -5.24 -4.28
Si -4.74 -4.32  2.85
Si -5.36  3.93 -2.34
Si -6.08 -0.74  3.49
Si -2.57 -0.81  6.54
Si  2.51  6.22 -2.27
Si -5.83  0.77 -3.96
Si -5.36  1.36  4.60
Si  4.00  4.55 -3.96
Si  4.45 -5.72  0.16
Si -6.56 -2.71  1.60
Si -4.50 -5.72  0.16
Si  6.39  3.52 -0.94
Si  5.98  3.24  2.85
Si -1.68  2.97  6.54
Si -0.69 -5.48  4.90
Si -1.28 -7.26  0.47
Si -4.37 -4.52 -3.97
Si  0.79  6.10 -4.28
Si -1.68  7.29 -0.94
Si  3.37 -0.85 -6.71
Si -0.41  2.03 -7.27
Si  4.58 -4.52 -3.97
Si -1.29 -1.75 -7.27
Si  7.05 -1.81  2.16
Si  1.53  4.37  6.04
Si  0.55  7.50 -1.58
Si -3.64  1.49  6.60
Si  2.30  4.20 -6.02
Si -4.35  6.33  0.46
Si -3.62  0.63 -6.77
Si  1.84  7.23  2.10
Si  2.46 -1.02  7.29
Si -4.94  4.55 -3.96
Si  0.93 -7.40 -2.34
Si  4.14 -6.01 -2.83
Si  4.60  6.33  0.46
Si -2.09  7.02  2.85
Si  1.97  5.86  4.90
Si  7.73 -0.06 -1.58
Si  1.82 -6.20  4.60
Si  1.35 -6.78 -3.96
Si  6.84 -3.84 -1.58
Si  0.23 -1.22  7.93
Si -7.32  2.44 -2.27
Si -1.72  6.81 -3.97
Si  6.35  3.04 -3.97
Si -6.25 -2.42  4.60
Si  2.26  7.85  0.47
Si -4.81 -6.01 -2.83
Si  4.47  5.14  4.60
Si -4.48  5.14  4.60
Si  4.42 -2.29  6.60
Si -4.53 -2.29  6.60
Si -1.70 -7.88  2.10
Si -7.13 -3.62 -2.34
Si -2.99 -7.62 -1.58
Si -6.71 -3.00 -3.96
Si  6.80 -0.18  4.91
Si  1.12  2.56  7.93
Si -0.85 -0.26 -8.41
Si  7.94  1.96  2.16
Si  4.26  2.92 -6.71
Si  3.34  2.76  7.29
Si -8.46  0.29  0.47
Si  2.49 -4.63 -6.71
Si -2.73  4.41 -6.77
Si  5.31  1.49  6.60
Si  6.17 -5.59  2.16
Si -7.58  4.07  0.47
Si -7.00 -5.00  0.46
Si -8.21 -1.33 -2.27
Si  5.33  0.63 -6.77
Si  5.92 -3.96  4.91
Si -4.69  2.92 -6.71
Si  4.45 -3.15 -6.77
Si -3.45 -4.58  6.54
Si  3.73 -7.82 -0.94
Si -4.50 -3.15 -6.77
Si -5.58 -0.85 -6.71
Si -4.31  6.81  3.49
Si  1.06 -8.78  0.46
Si -0.38  7.37  4.91
Si  1.57 -4.80  7.29
Si -2.76  5.26  6.60
Si  1.65 -0.98 -8.71
Si  4.64  6.81  3.49
Si -8.00  3.45  2.10
Si -6.96 -4.52  3.49
Si  7.10  5.62  0.16
Si  1.10 -8.30  3.49
Si -3.19  1.25 -8.40
Si  6.79  5.33 -2.83
Si  0.03  3.52 -8.41
Si  0.95  0.88  9.03
Si -8.88 -0.33  2.10
Si  7.97 -1.46 -4.28
Si  6.38 -0.81  6.54
Si  3.32 -8.10  2.85
Si  4.47  7.71 -2.34
Si -4.48  7.71 -2.34
Si -1.03 -8.89 -2.27
Si -6.44  6.22 -2.27
Si  8.55 -3.48  0.47
Si  9.02 -0.33  2.10
Si -1.13 -6.96  6.04
Si  0.48  5.81 -7.27
Si -0.36 -7.14 -6.02
Si  8.13 -4.10  2.10
Si -2.18 -5.53 -7.27
Si -0.65 -5.00  7.93
Si -0.80  6.75  6.54
Si -0.96  9.40  0.16
Si -5.22 -7.82 -0.94
Si  9.43  0.29  0.47
Si -2.58 -7.34 -5.38
Si  0.07 -2.90  9.03
Si -1.74 -4.04 -8.41
Si  2.54  2.80 -8.71
Si -7.87  2.08  4.90
Si  0.96  7.77 -5.38
Si  8.61  3.72 -1.58
Si -5.60  2.76  7.29
Si -1.55  1.60  9.34
Si -3.90  8.63  1.60
Si -1.27  9.11 -2.83
Si  3.54 -6.07  6.60
Si -7.54  0.42 -6.02
Si -4.08 -2.52 -8.40
Si  5.50 -4.58  6.54
Si  7.25 -3.56 -5.38
Si  8.13  0.22 -5.38
Si  0.76  9.52  2.16
Si  7.08 -5.24 -4.28
Si  5.96 -7.62 -1.58
Si  7.69  3.59  4.91
Si -6.49 -1.02  7.29
Si -2.44 -2.18  9.34
Si -6.65  4.20 -6.02
Si  3.69 -8.30 -3.97
Si  0.77 -4.76 -8.71
Si -3.92 -7.74  4.91
Si -9.35 -3.48  0.47
Si -7.44 -6.49  1.60
Si  1.82  0.70 -9.82
Si  4.87 -2.52 -8.40
Si  9.69 -1.33 -2.27
Si -2.31  5.03 -8.40
Si -4.06  8.33 -3.96
Si  8.85  2.32 -4.28
Si  5.04  8.63  1.60
Si -9.29  3.72 -1.58
Si  3.56 -9.49  0.16
Si -8.75 -1.70  4.90
Si  6.22  4.41 -6.77
Si  7.27  2.97  6.54
Si -3.81  6.70 -6.71
Si  6.86  7.02  2.85
Si  4.17 -0.67  9.35
Si  5.75  1.25 -8.40
Si -5.62 -8.10  2.85
Si -9.04  2.32 -4.28
Si -8.31  0.59  6.04
Si -3.66 -9.37  2.16
Si -10.17 -0.06 -1.58
Si  3.56 -6.92 -6.77
Si -6.69  7.85  0.47
Si  1.84  4.66  9.03
Si  0.94 -3.08 -9.82
Si  7.27  7.29 -0.94
Si  2.00  6.33  7.93
Si -6.98  5.86  4.90
Si -2.75 -9.02 -4.28
Si -7.11  7.23  2.10
Si -9.96  1.96  2.16
Si -6.46 -4.63 -6.71
Si  0.62 -10.26  1.60
Si  2.41  8.15  6.04
Si  8.80 -5.11 -2.27
Si  4.89  8.33 -3.96
Si  5.03 -7.74  4.91
Si  6.19  5.26  6.60
Si -5.41 -6.07  6.60
Si  3.18  7.97 -6.02
Si -7.13 -6.20  4.60
Si  9.14 -1.70  4.90
Si -7.42  4.37  6.04
Si -4.78 -0.67  9.35
Si  7.67 -7.26  0.47
Si -1.57 -9.26  4.90
Si -5.25 -8.30 -3.97
Si -3.90  3.11  9.35
Si -3.59  8.92  4.60
Si  4.23  6.54  7.29
Si -1.99  0.11 10.48
Si -9.09 -5.11 -2.27
Si  9.90  3.45  2.10
Si  3.25 -9.78 -2.83
Si -3.46 10.11  0.46
Si  7.23  6.81 -3.97
Si  7.66 -1.75 -7.27
Si  8.82  5.74  2.16
Si -1.84  8.19 -6.77
Si  5.14  6.70 -6.71
Si -0.67  5.38  9.34
Si -9.77 -4.10  2.10
Si  3.39 10.00 -2.27
Si  3.28 -4.44  9.35
Si -4.72  6.54  7.29
Si  1.60 -8.41 -6.71
Si -8.42 -3.36 -6.02
Si  1.67  9.88 -4.28
Si -9.93 -1.46 -4.28
Si  7.25 -7.88  2.10
Si -5.38 -9.49  0.16
Si -7.60 -6.78 -3.96
Si -9.07  5.74  2.16
Si  5.29 -9.37  2.16
Si  0.93 -9.97  4.60
Si -8.16  6.10 -4.28
Si  8.26 -5.48  4.90
Si  8.71 -3.19  6.04
Si  5.05  3.11  9.35
Si -5.38 -6.92 -6.77
Si 10.57  2.44 -2.27
Si 10.32  4.07  0.47
Si  6.37 -7.34 -5.38
Si  2.71  4.47 -9.82
Si -8.88  4.00 -5.38
Si -0.79 11.07 -0.94
Si -9.76  0.22 -5.38
Si -8.02 -7.40 -2.34
Si  0.92  7.29 -8.41
Si -6.41  2.80 -8.71
Si  2.85  9.63  4.90
Si -10.84 -1.81  2.16
Si -1.20 10.79  2.85
Si -1.11  3.89 10.48
Si  3.98 -6.30 -8.40
Si  9.02  4.00 -5.38
Si  4.04  0.90 -10.46
Si -0.82 -6.67  9.03
Si -2.17 -11.04  0.47
Si  0.69 -8.57  7.29
Si  0.47 -10.56 -3.96
Si  3.16 -2.88 -10.46
Si -0.98  1.11 -11.21
Si -0.83 10.59 -3.97
Si  9.59  0.59  6.04
Si -1.87  9.04  6.60
Si 10.03  2.08  4.90
Si -8.40  7.50 -1.58
Si  6.77 -5.53 -7.27
Si  5.36  8.92  4.60
Si  8.54  2.03 -7.27
Si  2.67  1.00 11.04
Si -7.29 -0.98 -8.71
Si  0.05 -11.18 -2.34
Si -7.37 -4.80  7.29
Si -7.83  2.56  7.93
Si  3.42  6.58 -8.71
Si -9.19 -3.19  6.04
Si -4.34 -8.36  6.54
Si -2.88 -3.67 10.48
Si  1.43 11.27 -1.58
Si  5.49 10.11  0.46
Si  1.79 -2.77 11.04
Si  2.72 11.01  2.10
Si -2.94 -0.38 -11.15
Si -5.77  7.97 -6.02
Si -3.32 -5.96  9.34
Si  4.61 -8.36  6.54
Si -4.90  0.90 -10.46
Si  6.51 -2.18  9.34
Si 10.76 -3.62 -2.34
Si -4.96 -6.30 -8.40
Si -5.55 10.00 -2.27
Si  3.75 -1.28 10.97
Si -3.43 10.59  3.49
Si -5.69 -9.78 -2.83
Si -1.87 -2.67 -11.21
Si  8.10 -0.26 -8.41
Si  9.47 -3.36 -6.02
Si  6.20 -9.02 -4.28
Si 11.34 -2.71  1.60
Si -2.62 -7.82 -8.41
Si  7.21 -4.04 -8.41
Si -5.67 -4.44  9.35
Si -11.05 -3.84 -1.58
Si -7.89 -8.78  0.46
Si -0.17 -1.50 11.72
Si -11.68  1.84  0.16
Si  6.64  5.03 -8.40
Si -2.06  3.40 -11.15
Si -8.71 -1.22  7.93
Si 11.78 -1.22  0.46
Si  1.34 -1.27 -11.71
Si 11.65  0.15 -2.34
Si -10.21  3.59  4.91
Si -1.53 -8.78  7.93
Si -7.85 -8.30  3.49
Si  0.71  2.28 11.72
Si  0.05 -6.86 -9.82
Si  2.85 -11.60 -0.94
Si 10.36  0.42 -6.02
Si 10.89 -5.00  0.46
Si -3.01  6.89  9.35
Si  7.40  1.60  9.34
Si -9.35  2.03 -7.27
Si -4.32  2.49 10.97
Si  3.14 11.63  0.47
Si -6.54  8.15  6.04
Si -11.51  3.52 -0.94
Si  7.82 -6.96  6.04
Si -8.00  0.88  9.03
Si  1.36  9.59 -7.27
Si -9.64 -5.48  4.90
Si  7.92 -8.89 -2.27
Si -2.59 -11.66  2.10
Si -11.10 -0.18  4.91
Si -3.88 -11.39 -1.58
Si -4.02  4.68 -10.46
Si  2.65 -9.85  6.60
Si -7.13  0.70 -9.82
Si -10.79  5.62  0.16
Si  4.63  2.49 10.97
Si  2.23  2.51 -11.71
Si  0.51 11.15  4.91
Si  9.18 -1.22  7.93
Si -3.06 -9.30 -7.27
Si -0.12 -8.54 -8.71
Si  9.50  7.50 -1.58
Si -5.20 -1.28 10.97
Si -0.10  4.89 -11.21
Si -5.53  6.58 -8.71
Si 11.18 -3.00 -3.96
Si  7.68  9.11 -2.83
Si -1.43  8.81 -8.40
Si  9.74  6.10 -4.28
Si -3.59 11.49 -2.34
Si -5.79 -2.88 -10.46
Si -6.95  6.33  7.93
Si  8.57  7.37  4.91
Si 10.93 -4.52  3.49
Si  7.99  9.40  0.16
Si 11.82 -0.74  3.49
Si 12.22  1.07  1.60
Si -7.99  7.77 -5.38
Si  0.09 10.53  6.54
Si -7.11  4.66  9.03
Si 10.45 -6.49  1.60
Si -6.10  9.63  4.90
Si -11.99  1.55 -2.83
Si  2.86 -5.06 10.97
Si  5.63 -5.96  9.34
Si -12.39 -0.26 -0.94
Si  8.15  6.75  6.54
Si  5.52 10.59  3.49
Si -10.65 -3.56 -5.38
Si  2.44 -11.87  2.85
Si -6.24  4.47 -9.82
Si  4.93  4.68 -10.46
Si -2.01 -10.74  6.04
Si -3.83 -4.15 -11.15
Si  8.30 -5.00  7.93
Si -1.24 -10.91 -6.02
Si  3.56  4.78 11.04
Si -10.23 -7.26  0.47
Si  9.88 -7.40 -2.34
Si  0.18 -12.55  0.46
Si  0.21 -12.08  3.49
Si  5.07 -11.39 -1.58
Si  6.96  0.11 10.48
Si -8.47  5.81 -7.27
Si -11.55  3.04 -3.97
Si  2.28 -6.66 -10.46
Si -1.51  2.08 12.37
Si -11.10  5.33 -2.83
Si  6.07 -3.67 10.48
Si  2.72  8.44  9.03
Si  6.01 -0.38 -11.15
Si -11.92  3.24  2.85
Si  2.40 -8.22  9.35
Si -10.24 -1.75 -7.27
Si  8.59 -7.14 -6.02
Si -2.40 -1.70 12.37
Si -12.56 -1.94  0.16
Si 12.07  0.77 -3.96
Si -6.28  1.00 11.04
Si -8.19  9.52  2.16
Si -8.91  3.52 -8.41
Si -10.81 -5.24 -4.28
Si 11.65 -2.42  4.60
Si  0.46 -5.05 -11.71
Si -2.92 10.48 -6.71
Si  7.10  8.19 -6.77
Si  8.98  3.52 -8.41
Si  7.38 -9.26  4.90
Si -6.23 11.01  2.10
Si -3.47 -11.12 -5.38
Si -10.63  2.97  6.54
Si 10.47  4.37  6.04
Si -9.33  7.37  4.91
Si -8.18 -4.76 -8.71
Si  0.90 -6.55 11.04
Si -3.02 12.40  1.60
Si  1.84 11.55 -5.38
Si  5.35 11.49 -2.34
Si -1.06 -5.28 11.72
Si -9.80 -0.26 -8.41
Si -10.63  7.29 -0.94
Si 12.66  2.56  0.46
Si  2.68 -10.70 -6.77
Si  5.12 -4.15 -11.15
Si 10.30 -6.78 -3.96
Si -0.56  1.73 -12.84
Si  6.78 -11.04  0.47
Si  1.78  0.22 -12.85
Si -0.22  7.67 10.48
Si -7.27  9.88 -4.28
Si -8.88 -2.90  9.03
Si -5.81 11.63  0.47
Si -1.92 -12.67 -2.27
Si  2.81 -12.08 -3.97
Si -7.34 -8.41 -6.71
