500
set: 51.00  0.00  0.00
Si  0.00  0.00  0.00
Si -0.01  0.04 -2.40
Si  0.01 -0.04  2.40
Si  1.24  2.12  0.00
Si -1.24 -2.12  0.00
Si  1.37 -2.12  0.00
Si -1.37  2.12  0.00
Si  2.61  0.00  0.00
Si -2.61  0.00  0.00
Si -1.25 -2.07 -2.40
Si  1.25  2.07  2.40
Si  1.23  2.16 -2.40
Si -1.23 -2.16  2.40
Si  1.36 -2.07 -2.40
Si -1.36  2.07  2.40
Si  1.39 -2.16  2.40
Si -1.39  2.16 -2.40
Si  2.60  0.04 -2.40
Si -2.60 -0.04  2.40
Si  2.62 -0.04  2.40
Si -2.62  0.04 -2.40
Si -0.14  4.23  0.00
Si  0.14 -4.23  0.00
Si  3.85  2.12  0.00
Si -3.85 -2.12  0.00
Si -3.98  2.12  0.00
Si  3.98 -2.12  0.00
Si  0.02 -0.08  4.79
Si -0.02  0.08 -4.79
Si -0.13  4.19  2.40
Si  0.13 -4.19 -2.40
Si -0.15  4.27 -2.40
Si  0.15 -4.27  2.40
Si  2.47  4.23  0.00
Si -2.47 -4.23  0.00
Si -3.86 -2.07 -2.40
Si  3.86  2.07  2.40
Si  3.83  2.16 -2.40
Si -3.83 -2.16  2.40
Si  2.75 -4.23  0.00
Si -2.75  4.23  0.00
Si  3.97 -2.07 -2.40
Si -3.97  2.07  2.40
Si  4.00 -2.16  2.40
Si -4.00  2.16 -2.40
Si -5.22  0.00  0.00
Si  5.22  0.00  0.00
Si -1.26 -2.03 -4.79
Si  1.26  2.03  4.79
Si  1.35 -2.03 -4.79
Si -1.35  2.03  4.79
Si  1.21  2.20 -4.79
Si -1.21 -2.20  4.79
Si  2.48  4.19  2.40
Si -2.48 -4.19 -2.40
Si -2.59 -0.08  4.79
Si  2.59  0.08 -4.79
Si -1.40  2.20 -4.79
Si  1.40 -2.20  4.79
Si  2.63 -0.08  4.79
Si -2.63  0.08 -4.79
Si  2.46  4.27 -2.40
Si -2.46 -4.27  2.40
Si  2.74 -4.19 -2.40
Si -2.74  4.19  2.40
Si -2.76  4.27 -2.40
Si  2.76 -4.27  2.40
Si  5.21  0.04 -2.40
Si -5.21 -0.04  2.40
Si -5.23  0.04 -2.40
Si  5.23 -0.04  2.40
Si -0.12  4.15  4.79
Si  0.12 -4.15 -4.79
Si -1.10 -6.35  0.00
Si  1.10  6.35  0.00
Si  0.16 -4.31  4.79
Si -0.16  4.31 -4.79
Si  3.87  2.03  4.79
Si -3.87 -2.03 -4.79
Si  3.82  2.20 -4.79
Si -3.82 -2.20  4.79
Si  1.51 -6.35  0.00
Si -1.51  6.35  0.00
Si -3.96  2.03  4.79
Si  3.96 -2.03 -4.79
Si -5.08 -4.23  0.00
Si  5.08  4.23  0.00
Si  4.01 -2.20  4.79
Si -4.01  2.20 -4.79
Si  6.46  2.12  0.00
Si -6.46 -2.12  0.00
Si  2.50  4.15  4.79
Si -2.50 -4.15 -4.79
Si  5.36 -4.23  0.00
Si -5.36  4.23  0.00
Si  1.11  6.30  2.40
Si -1.11 -6.30 -2.40
Si -2.45 -4.31  4.79
Si  2.45  4.31 -4.79
Si  2.73 -4.15 -4.79
Si -2.73  4.15  4.79
Si -1.09 -6.39  2.40
Si  1.09  6.39 -2.40
Si  1.50 -6.30 -2.40
Si -1.50  6.30  2.40
Si -6.59  2.12  0.00
Si  6.59 -2.12  0.00
Si  1.52 -6.39  2.40
Si -1.52  6.39 -2.40
Si  2.77 -4.31  4.79
Si -2.77  4.31 -4.79
Si -5.09 -4.19 -2.40
Si  5.09  4.19  2.40
Si -5.07 -4.27  2.40
Si  5.07  4.27 -2.40
Si  5.20  0.08 -4.79
Si -5.20 -0.08  4.79
Si  5.24 -0.08  4.79
Si -5.24  0.08 -4.79
Si  0.03 -0.12  7.19
Si -0.03  0.12 -7.19
Si  5.35 -4.19 -2.40
Si -5.35  4.19  2.40
Si -6.47 -2.07 -2.40
Si  6.47  2.07  2.40
Si -6.45 -2.16  2.40
Si  6.45  2.16 -2.40
Si  5.37 -4.27  2.40
Si -5.37  4.27 -2.40
Si  6.58 -2.07 -2.40
Si -6.58  2.07  2.40
Si -3.71 -6.35  0.00
Si  3.71  6.35  0.00
Si -6.61  2.16 -2.40
Si  6.61 -2.16  2.40
Si  1.27  1.99  7.19
Si -1.27 -1.99 -7.19
Si -4.12  6.35  0.00
Si  4.12 -6.35  0.00
Si -1.34  1.99  7.19
Si  1.34 -1.99 -7.19
Si  1.20  2.24 -7.19
Si -1.20 -2.24  7.19
Si -2.58 -0.12  7.19
Si  2.58  0.12 -7.19
Si  1.41 -2.24  7.19
Si -1.41  2.24 -7.19
Si -2.65  0.12 -7.19
Si  2.65 -0.12  7.19
Si -3.72 -6.30 -2.40
Si  3.72  6.30  2.40
Si -3.70 -6.39  2.40
Si  3.70  6.39 -2.40
Si -7.83  0.00  0.00
Si  7.83  0.00  0.00
Si  4.11 -6.30 -2.40
Si -4.11  6.30  2.40
Si  1.12  6.26  4.79
Si -1.12 -6.26 -4.79
Si  4.13 -6.39  2.40
Si -4.13  6.39 -2.40
Si -1.49  6.26  4.79
Si  1.49 -6.26 -4.79
Si -1.08 -6.43  4.79
Si  1.08  6.43 -4.79
Si  5.11  4.15  4.79
Si -5.11 -4.15 -4.79
Si -1.53  6.43 -4.79
Si  1.53 -6.43  4.79
Si -7.82 -0.04  2.40
Si  7.82  0.04 -2.40
Si  5.06  4.31 -4.79
Si -5.06 -4.31  4.79
Si -7.84  0.04 -2.40
Si  7.84 -0.04  2.40
Si  0.10 -4.11 -7.19
Si -0.10  4.11  7.19
Si  5.33 -4.15 -4.79
Si -5.33  4.15  4.79
Si -6.48 -2.03 -4.79
Si  6.48  2.03  4.79
Si  6.43  2.20 -4.79
Si -6.43 -2.20  4.79
Si  6.57 -2.03 -4.79
Si -6.57  2.03  4.79
Si -5.38  4.31 -4.79
Si  5.38 -4.31  4.79
Si  0.17 -4.36  7.19
Si -0.17  4.36 -7.19
Si  3.88  1.99  7.19
Si -3.88 -1.99 -7.19
Si  3.81  2.24 -7.19
Si -3.81 -2.24  7.19
Si -3.95  1.99  7.19
Si  3.95 -1.99 -7.19
Si -6.62  2.20 -4.79
Si  6.62 -2.20  4.79
Si  0.28 -8.46  0.00
Si -0.28  8.46  0.00
Si -4.02  2.24 -7.19
Si  4.02 -2.24  7.19
Si  2.51  4.11  7.19
Si -2.51 -4.11 -7.19
Si  2.71 -4.11 -7.19
Si -2.71  4.11  7.19
Si  3.73  6.26  4.79
Si -3.73 -6.26 -4.79
Si  2.44  4.36 -7.19
Si -2.44 -4.36  7.19
Si -0.26  8.42  2.40
Si  0.26 -8.42 -2.40
Si -2.33 -8.46  0.00
Si  2.33  8.46  0.00
Si  7.69  4.23  0.00
Si -7.69 -4.23  0.00
Si -3.69 -6.43  4.79
Si  3.69  6.43 -4.79
Si  0.29 -8.50  2.40
Si -0.29  8.50 -2.40
Si -2.78  4.36 -7.19
Si  2.78 -4.36  7.19
Si  5.19  0.12 -7.19
Si -5.19 -0.12  7.19
Si  4.10 -6.26 -4.79
Si -4.10  6.26  4.79
Si  5.25 -0.12  7.19
Si -5.25  0.12 -7.19
Si  2.89 -8.46  0.00
Si -2.89  8.46  0.00
Si  6.32  6.35  0.00
Si -6.32 -6.35  0.00
Si  7.97 -4.23  0.00
Si -7.97  4.23  0.00
Si -4.14  6.43 -4.79
Si  4.14 -6.43  4.79
Si -2.35 -8.42 -2.40
Si  2.35  8.42  2.40
Si -7.71 -4.19 -2.40
Si  7.71  4.19  2.40
Si  7.68  4.27 -2.40
Si -7.68 -4.27  2.40
Si  2.32  8.50 -2.40
Si -2.32 -8.50  2.40
Si -7.81 -0.08  4.79
Si  7.81  0.08 -4.79
Si  7.85 -0.08  4.79
Si -7.85  0.08 -4.79
Si -2.87  8.42  2.40
Si  2.87 -8.42 -2.40
Si -6.33 -6.30 -2.40
Si  6.33  6.30  2.40
Si -6.73  6.35  0.00
Si  6.73 -6.35  0.00
Si  6.31  6.39 -2.40
Si -6.31 -6.39  2.40
Si  2.90 -8.50  2.40
Si -2.90  8.50 -2.40
Si  7.96 -4.19 -2.40
Si -7.96  4.19  2.40
Si  9.07  2.12  0.00
Si -9.07 -2.12  0.00
Si -7.98  4.27 -2.40
Si  7.98 -4.27  2.40
Si  9.21 -2.12  0.00
Si -9.21  2.12  0.00
Si -6.72  6.30  2.40
Si  6.72 -6.30 -2.40
Si -1.13 -6.22 -7.19
Si  1.13  6.22  7.19
Si  0.05 -0.17  9.58
Si -0.05  0.17 -9.58
Si -6.74  6.39 -2.40
Si  6.74 -6.39  2.40
Si -9.06 -2.16  2.40
Si  9.06  2.16 -2.40
Si  9.08  2.07  2.40
Si -9.08 -2.07 -2.40
Si -1.48  6.22  7.19
Si  1.48 -6.22 -7.19
Si -0.25  8.38  4.79
Si  0.25 -8.38 -4.79
Si  9.19 -2.07 -2.40
Si -9.19  2.07  2.40
Si  1.06  6.47 -7.19
Si -1.06 -6.47  7.19
Si  5.12  4.11  7.19
Si -5.12 -4.11 -7.19
Si -9.22  2.16 -2.40
Si  9.22 -2.16  2.40
Si -1.55  6.47 -7.19
Si  1.55 -6.47  7.19
Si  0.30 -8.54  4.79
Si -0.30  8.54 -4.79
Si -4.95 -8.46  0.00
Si  4.95  8.46  0.00
Si -5.05 -4.36  7.19
Si  5.05  4.36 -7.19
Si  5.32 -4.11 -7.19
Si -5.32  4.11  7.19
Si  1.28  1.95  9.58
Si -1.28 -1.95 -9.58
Si -1.33  1.95  9.58
Si  1.33 -1.95 -9.58
Si  6.49  1.99  7.19
Si -6.49 -1.99 -7.19
Si -6.42 -2.24  7.19
Si  6.42  2.24 -7.19
Si -2.56 -0.17  9.58
Si  2.56  0.17 -9.58
Si  1.19  2.28 -9.58
Si -1.19 -2.28  9.58
Si  6.56 -1.99 -7.19
Si -6.56  1.99  7.19
Si -2.36 -8.38 -4.79
Si  2.36  8.38  4.79
Si -2.66  0.17 -9.58
Si  2.66 -0.17  9.58
Si -1.42  2.28 -9.58
Si  1.42 -2.28  9.58
Si  5.39 -4.36  7.19
Si -5.39  4.36 -7.19
Si -7.72 -4.15 -4.79
Si  7.72  4.15  4.79
Si -7.67 -4.31  4.79
Si  7.67  4.31 -4.79
Si -6.63  2.24 -7.19
Si  6.63 -2.24  7.19
Si  4.96  8.42  2.40
Si -4.96 -8.42 -2.40
Si  2.31  8.54 -4.79
Si -2.31 -8.54  4.79
Si  2.86 -8.38 -4.79
Si -2.86  8.38  4.79
Si  5.50 -8.46  0.00
Si -5.50  8.46  0.00
Si -4.93 -8.50  2.40
Si  4.93  8.50 -2.40
Si  6.34  6.26  4.79
Si -6.34 -6.26 -4.79
Si -7.95  4.15  4.79
Si  7.95 -4.15 -4.79
Si -6.30 -6.43  4.79
Si  6.30  6.43 -4.79
Si  3.74  6.22  7.19
Si -3.74 -6.22 -7.19
Si  2.91 -8.54  4.79
Si -2.91  8.54 -4.79
Si  7.99 -4.31  4.79
Si -7.99  4.31 -4.79
Si -5.48  8.42  2.40
Si  5.48 -8.42 -2.40
Si -3.67 -6.47  7.19
Si  3.67  6.47 -7.19
Si -4.09  6.22  7.19
Si  4.09 -6.22 -7.19
Si -6.71  6.26  4.79
Si  6.71 -6.26 -4.79
Si  5.51 -8.50  2.40
Si -5.51  8.50 -2.40
Si  0.09 -4.07 -9.58
Si -0.09  4.07  9.58
Si -10.44  0.00  0.00
Si 10.44  0.00  0.00
Si -9.04 -2.20  4.79
Si  9.04  2.20 -4.79
Si -9.09 -2.03 -4.79
Si  9.09  2.03  4.79
Si  6.75 -6.43  4.79
Si -6.75  6.43 -4.79
Si -3.89 -1.95 -9.58
Si  3.89  1.95  9.58
Si -4.16  6.47 -7.19
Si  4.16 -6.47  7.19
Si  3.94 -1.95 -9.58
Si -3.94  1.95  9.58
Si  0.18 -4.40  9.58
Si -0.18  4.40 -9.58
Si -9.18  2.03  4.79
Si  9.18 -2.03 -4.79
Si -3.80 -2.28  9.58
Si  3.80  2.28 -9.58
Si -7.80 -0.12  7.19
Si  7.80  0.12 -7.19
Si  0.96 10.58  0.00
Si -0.96 -10.58  0.00
Si -9.23  2.20 -4.79
Si  9.23 -2.20  4.79
Si  4.03 -2.28  9.58
Si -4.03  2.28 -9.58
Si  7.87 -0.12  7.19
Si -7.87  0.12 -7.19
Si -10.43 -0.04  2.40
Si 10.43  0.04 -2.40
Si  1.65 -10.58  0.00
Si -1.65 10.58  0.00
Si  2.52  4.07  9.58
Si -2.52 -4.07 -9.58
Si -10.45  0.04 -2.40
Si 10.45 -0.04  2.40
Si -2.70  4.07  9.58
Si  2.70 -4.07 -9.58
Si -2.43 -4.40  9.58
Si  2.43  4.40 -9.58
Si -0.97 -10.54 -2.40
Si  0.97 10.54  2.40
Si  4.97  8.38  4.79
Si -4.97 -8.38 -4.79
Si  5.17  0.17 -9.58
Si -5.17 -0.17  9.58
Si  2.79 -4.40  9.58
Si -2.79  4.40 -9.58
Si  0.95 10.62 -2.40
Si -0.95 -10.62  2.40
Si  1.64 -10.54 -2.40
Si -1.64 10.54  2.40
Si -5.27  0.17 -9.58
Si  5.27 -0.17  9.58
Si  8.93  6.35  0.00
Si -8.93 -6.35  0.00
Si  4.92  8.54 -4.79
Si -4.92 -8.54  4.79
Si  0.24 -8.34 -7.19
Si -0.24  8.34  7.19
Si -1.66 10.62 -2.40
Si  1.66 -10.62  2.40
Si -5.47  8.38  4.79
Si  5.47 -8.38 -4.79
Si -10.30 -4.23  0.00
Si 10.30  4.23  0.00
Si -3.57 -10.58  0.00
Si  3.57 10.58  0.00
Si -8.94 -6.30 -2.40
Si  8.94  6.30  2.40
Si  0.31 -8.59  7.19
Si -0.31  8.59 -7.19
Si  8.92  6.39 -2.40
Si -8.92 -6.39  2.40
Si  5.52 -8.54  4.79
Si -5.52  8.54 -4.79
Si  2.37  8.34  7.19
Si -2.37 -8.34 -7.19
Si  9.34 -6.35  0.00
Si -9.34  6.35  0.00
Si -7.73 -4.11 -7.19
Si  7.73  4.11  7.19
Si  7.56  8.46  0.00
Si -7.56 -8.46  0.00
Si -7.66 -4.36  7.19
Si  7.66  4.36 -7.19
Si -2.85  8.34  7.19
Si  2.85 -8.34 -7.19
Si  3.58 10.54  2.40
Si -3.58 -10.54 -2.40
Si -10.31 -4.19 -2.40
Si 10.31  4.19  2.40
Si -10.58  4.23  0.00
Si 10.58 -4.23  0.00
Si 10.29  4.27 -2.40
Si -10.29 -4.27  2.40
Si  4.26 -10.58  0.00
Si -4.26 10.58  0.00
Si  2.30  8.59 -7.19
Si -2.30 -8.59  7.19
Si  6.35  6.22  7.19
Si -6.35 -6.22 -7.19
Si -3.56 -10.62  2.40
Si  3.56 10.62 -2.40
Si  1.15  6.18  9.58
Si -1.15 -6.18 -9.58
Si -7.93  4.11  7.19
Si  7.93 -4.11 -7.19
Si 10.42  0.08 -4.79
Si -10.42 -0.08  4.79
Si -1.47  6.18  9.58
Si  1.47 -6.18 -9.58
Si 10.46 -0.08  4.79
Si -10.46  0.08 -4.79
Si  9.33 -6.30 -2.40
Si -9.33  6.30  2.40
Si -6.29 -6.47  7.19
Si  6.29  6.47 -7.19
Si  2.92 -8.59  7.19
Si -2.92  8.59 -7.19
Si  7.57  8.42  2.40
Si -7.57 -8.42 -2.40
Si -9.35  6.39 -2.40
Si  9.35 -6.39  2.40
Si -0.98 -10.49 -4.79
Si  0.98 10.49  4.79
Si  8.00 -4.36  7.19
Si -8.00  4.36 -7.19
Si  5.13  4.07  9.58
Si -5.13 -4.07 -9.58
Si  4.25 -10.54 -2.40
Si -4.25 10.54  2.40
Si  7.54  8.50 -2.40
Si -7.54 -8.50  2.40
Si 10.57 -4.19 -2.40
Si -10.57  4.19  2.40
Si  6.70 -6.22 -7.19
