500
set: 952.00  0.00  0.00
Si  0.46 -1.18  0.76
Si -0.44  1.19 -0.83
Si  1.31  1.16  0.80
Si -1.33 -1.15 -0.84
Si  0.84  0.05 -2.37
Si -2.14  1.12  0.79
Si  2.16 -1.12 -0.82
Si -0.88 -0.04  2.43
Si  0.03 -2.24 -2.38
Si -0.02  2.26  2.43
Si -3.01 -1.18  0.82
Si  3.04  1.15 -0.81
Si -2.55  0.04 -2.41
Si  0.43  3.40 -0.77
Si  2.62  0.03  2.41
Si -0.45 -3.47  0.82
Si  1.26 -3.45 -0.79
Si  1.72 -2.27  2.47
Si -1.29  3.45  0.81
Si -1.71  2.36 -2.42
Si  1.77  2.31 -2.43
Si -1.78 -2.33  2.41
Si -0.85  0.06 -3.99
Si  3.84 -1.17  0.77
Si -3.89  1.13 -0.82
Si  0.93  0.02  4.03
Si  2.20  3.43  0.82
Si -2.21 -3.50 -0.77
Si  2.99 -3.43  0.85
Si -3.00  3.44 -0.80
Si  0.08  2.37 -4.00
Si -0.05 -2.29  4.05
Si -3.39  2.28  2.36
Si  3.41  2.25  2.38
Si -2.57 -0.00  4.01
Si  2.59 -0.01 -4.02
Si -3.46 -2.29 -2.45
Si  3.44 -2.34 -2.42
Si -1.70 -2.28 -3.99
Si  4.30 -0.01 -2.37
Si -4.72 -1.16 -0.79
Si -4.32 -0.03  2.38
Si  1.70 -2.31 -4.02
Si -1.72  2.27  4.04
Si  1.72  2.34  4.03
Si  4.78  1.15  0.80
Si  0.86  4.57  2.41
Si  3.90  3.45 -0.79
Si -0.87 -4.59 -2.43
Si -0.81  4.61 -2.45
Si  0.77 -4.65  2.38
Si -3.93 -3.45  0.81
Si -5.55  1.15  0.80
Si  3.38 -2.34  4.00
Si  0.40 -1.11 -5.62
Si  3.43  2.27 -4.03
Si -3.48 -2.29  4.01
Si -3.45  2.26 -4.05
Si  2.51 -4.60 -2.44
Si -2.49  4.63  2.41
Si  5.61 -1.16 -0.79
Si -0.38  1.17  5.66
Si -0.36  5.72  0.82
Si  0.40 -5.75 -0.81
Si  4.31  0.01  3.96
Si  1.27  1.16 -5.60
Si  2.67  4.66 -2.38
Si -2.67 -4.64  2.43
Si -1.24 -1.08  5.64
Si -4.32  0.04 -3.99
Si  4.70 -3.46 -0.80
Si -4.70  3.47  0.85
Si -1.33 -5.74  0.80
Si  1.31  5.75 -0.84
Si -5.13 -2.27  2.41
Si  2.11 -1.18  5.62
Si  5.15  2.30 -2.44
Si -2.15  1.16 -5.64
Si -2.08  5.74 -0.79
Si -0.92 -4.56  4.03
Si  5.20 -2.27  2.41
Si -0.83  4.61  4.01
Si -5.18  2.30 -2.44
Si  0.94  4.62 -3.99
Si  0.79 -4.62 -4.03
Si  2.14 -5.75  0.80
Si  6.01 -0.03  2.38
Si -6.03 -0.01 -2.37
Si -3.04 -1.18 -5.61
Si  3.02  1.14  5.63
Si -3.08 -5.71 -0.83
Si  3.10  5.72  0.76
Si -2.56 -4.53 -4.00
Si -0.40 -3.43 -5.62
Si  6.45  1.13 -0.82
Si  2.55 -4.63  4.00
Si -6.49 -1.17  0.77
Si -2.62  4.62 -3.99
Si  2.59  4.61  4.05
Si -5.64 -3.46 -0.80
Si  5.63  3.47  0.85
Si  0.47  3.51  5.66
Si -4.25  4.56 -2.42
Si -1.25  3.45 -5.64
Si  1.27 -3.46  5.63
Si  4.30 -4.62  2.36
Si -4.35 -4.54 -2.42
Si  4.36  4.63  2.47
Si  5.07 -2.28 -3.99
Si -5.14  2.27  4.00
Si  5.20  2.27  4.00
Si -2.17 -3.39  5.66
Si -3.85  5.73  0.77
Si  3.88 -1.19 -5.65
Si  3.80 -5.77 -0.82
Si  2.25  3.47 -5.62
Si -5.26 -2.28 -3.99
Si -3.94  1.17  5.66
Si -6.02  0.01  3.96
Si  6.01  0.04 -3.99
Si -0.02 -6.87  2.41
Si  2.99 -3.44 -5.68
Si -3.00  3.49  5.66
Si  6.40 -3.45  0.81
Si  0.45 -1.14  7.22
Si -0.46  1.12 -7.24
Si  0.09  6.94 -2.41
Si -6.43  3.45 -0.79
Si -7.29  1.15 -0.81
Si  4.70  1.11 -5.64
Si -4.31  4.56  4.00
Si -1.34 -1.19 -7.22
Si -4.77 -1.19  5.60
Si  7.33 -1.18  0.82
Si -1.68  6.88  2.38
Si -1.80 -6.85 -2.37
Si  4.24 -4.64 -4.05
Si  4.34  4.59 -4.02
Si  1.76  6.86  2.43
Si  1.35  1.21  7.27
Si  1.66 -6.91 -2.37
Si -4.36 -4.63  4.04
Si -4.78 -5.78  0.79
Si  4.80  5.78 -0.82
Si -2.13  1.16  7.20
Si  6.88 -2.29 -2.45
Si -6.93  2.25  2.38
Si  2.09 -1.20 -7.27
Si  3.91  3.44  5.63
Si -6.89 -2.34 -2.42
Si -3.89 -3.45 -5.64
Si  6.95  2.28  2.36
Si  3.04  1.18 -7.18
Si  5.98 -4.54 -2.42
Si -3.03 -1.09  7.22
Si -5.97  4.63  2.47
Si -6.03 -4.62  2.36
Si  0.07  6.90  4.01
Si  6.08  4.56 -2.42
Si  5.56 -1.19  5.60
Si -0.05 -6.92 -4.02
Si  0.44  3.41 -7.22
Si -0.40  5.72 -5.61
Si -3.39  6.89 -2.37
Si -5.53  5.78 -0.82
Si -0.48 -3.40  7.28
Si -5.63  1.11 -5.64
Si  5.55 -5.78  0.79
Si  0.38 -5.76  5.63
Si  3.37 -6.93  2.38
Si  0.50  8.02  0.79
Si -0.48 -8.02 -0.82
Si -7.71  0.03  2.41
Si  4.69 -3.41  5.66
Si  1.30 -3.42 -7.24
Si  3.48  6.95 -2.37
Si  1.67 -6.89  3.96
Si -1.23  3.49  7.24
Si -1.37 -5.74 -5.60
Si  7.78  0.04 -2.41
Si -4.70  3.46 -5.68
Si  7.34  3.44 -0.80
Si -3.52 -6.94  2.43
Si -7.35 -3.43  0.85
Si -1.72 -6.88  4.03
Si -1.25  8.03 -0.82
Si -1.68  6.94 -3.99
Si  1.20 -8.07  0.77
Si  1.79  6.96 -3.99
Si  1.40  5.82  5.64
Si  3.83 -1.15  7.21
Si -3.81  1.18 -7.24
Si  6.86 -2.29  4.01
Si -2.13  5.71  5.60
Si -8.17 -1.12 -0.82
Si  6.88  2.26 -4.05
Si  8.19  1.12  0.79
Si -6.91  2.27 -4.03
Si -2.20 -3.49 -7.22
Si  2.06 -5.79 -5.64
Si  2.16  3.50  7.28
Si -6.95 -2.34  4.00
Si -2.18 -8.08  0.76
Si  2.21  8.09 -0.83
Si  6.02  4.56  4.00
Si -5.99  4.59 -4.02
Si  5.97 -4.63  4.04
Si -3.00  3.42 -7.27
Si  2.98 -3.46  7.28
Si -2.91  8.04  0.80
Si -3.02 -5.73  5.66
Si  6.39  1.17  5.66
Si  3.37 -6.86 -3.99
Si  3.04  5.79 -5.62
Si  2.97 -8.06 -0.79
Si -3.38  6.91  3.96
Si -3.50 -6.84 -3.99
Si -6.46 -1.19 -5.65
Si -6.09 -4.64 -4.05
Si -5.64 -3.41  5.66
Si  6.49  5.73  0.77
Si  5.63  3.46 -5.68
Si -7.74 -0.01 -4.02
Si  4.76  1.11  7.22
Si  7.76 -0.00  4.01
Si -6.53 -5.77 -0.82
Si -4.71 -1.17 -7.29
Si  3.57  6.92  4.03
Si -8.14  3.43  0.82
Si  0.88 -0.02 -8.83
Si  8.12 -3.50 -0.77
Si  3.75 -5.73  5.66
Si -3.81  5.72 -5.65
Si -3.87 -3.42  7.24
Si  5.14 -6.87 -2.41
Si -5.07  6.93  2.41
Si -0.89 -0.05  8.88
Si -5.19 -6.87 -2.41
Si  3.94  3.48 -7.24
Si  3.95  8.06  0.80
Si -3.98 -8.05 -0.84
Si  5.27  6.93  2.41
Si -0.01  2.30  8.81
Si  9.00 -1.15 -0.84
Si -9.02  1.16  0.80
Si -0.01 -2.29 -8.85
Si  8.55 -2.33  2.41
Si  0.40 -5.72 -7.18
Si -5.57  1.11  7.22
Si -8.56  2.31 -2.43
Si -6.42  3.44  5.63
Si -2.61  0.00 -8.84
Si  2.58  0.00  8.86
Si  6.44 -3.45 -5.64
Si -8.61 -2.27  2.47
Si -7.23  5.72  0.76
Si  8.62  2.36 -2.42
Si -1.69  2.27 -8.82
Si  7.25 -5.71 -0.83
Si -7.66  4.66 -2.38
Si -1.76 -2.26  8.82
Si  7.29 -1.18 -5.61
Si -0.39  5.81  7.22
Si  5.62 -1.17 -7.29
Si  7.67 -4.64  2.43
Si  1.72 -2.30  8.84
Si  1.30  5.71 -7.22
Si -7.31  1.14  5.63
Si  4.75  5.72  5.62
Si -1.29 -5.70  7.27
Si  4.69 -3.48 -7.27
Si -4.71  3.44  7.28
Si -4.64  8.05 -0.81
Si  1.78  2.27 -8.89
Si -4.80 -5.74 -5.64
Si  4.68 -8.08  0.82
Si -7.83 -4.60 -2.44
Si  7.84  4.63  2.41
Si -5.10  6.89 -4.02
Si  5.12 -6.90  4.01
Si  2.12 -5.79  7.22
Si -2.07  5.73 -7.29
Si -0.74  9.18  2.36
Si -5.21 -6.90  4.01
Si  5.23  6.89 -4.02
Si -0.92 -9.17  2.47
Si  0.80 -9.24 -2.42
Si  0.93  9.26 -2.42
Si  9.04  3.45  0.81
Si  3.09  5.76  7.22
Si -9.08 -3.45 -0.79
Si  9.45 -0.04  2.43
Si -3.40  2.29  8.86
Si  5.54 -5.74 -5.64
Si -3.10 -5.78 -7.24
Si  3.48  2.33  8.83
Si -5.58  5.72  5.62
Si  3.46 -2.31 -8.85
Si -6.50 -1.15  7.21
Si  8.63 -2.28 -3.99
Si -9.49  0.05 -2.37
Si  8.62  2.27  4.04
Si -8.61  2.34  4.03
Si -3.46 -2.33 -8.86
Si  4.31  0.02 -8.80
Si -8.63 -2.31 -4.02
Si -2.61 -9.14 -2.38
Si  6.52  1.18 -7.24
Si  5.62  3.44  7.28
Si  2.56 -9.17  2.41
Si  2.62  9.16  2.43
Si -5.64 -3.48 -7.27
Si  7.71  4.62 -3.99
Si  7.77 -4.53 -4.00
Si  0.49  8.06 -5.64
Si -4.32 -0.01  8.85
Si -2.54  9.20 -2.44
Si -0.54 -8.07  5.62
Si -7.74  4.61  4.05
Si  5.69  8.05 -0.81
Si -5.65 -8.08  0.82
Si  7.33  3.49  5.66
Si -7.78 -4.63  4.00
Si -7.34 -3.44 -5.68
Si  1.23 -8.09 -5.65
Si -1.30  8.07  5.66
Si -9.87 -1.18  0.76
Si  0.84 -4.57  8.83
Si -3.86  5.75  7.21
Si -0.82  4.57 -8.86
Si  8.18  1.16 -5.64
Si  9.90  1.19 -0.83
Si  0.89  4.64  8.82
Si  3.88 -5.72 -7.24
Si  6.81 -6.94  2.43
Si -8.23 -1.18  5.62
Si -2.24 -8.01 -5.62
Si -6.85  6.95 -2.37
Si -8.19 -5.75  0.80
Si -0.81  9.16 -4.05
Si -0.86 -4.63 -8.89
Si  6.94  6.89 -2.37
Si  0.93  9.17  4.04
Si  8.25  5.74 -0.79
Si -0.94 -9.21 -4.02
Si  0.74 -9.24  4.00
Si -6.96 -6.93  2.38
Si  2.26  8.07  5.66
Si -9.41  0.02  4.03
Si -2.99  8.01 -5.64
Si  2.92 -8.09  5.60
Si -6.39  3.48 -7.24
Si -2.57  4.58  8.83
Si  9.48  0.06 -3.99
Si  6.46 -3.42  7.24
Si -2.65 -4.60  8.81
Si  6.36 -8.05 -0.84
Si -7.29  1.18 -7.18
Si  2.43 -9.18 -3.99
Si -2.49  9.17  4.00
Si -6.38  8.06  0.80
Si  2.63  4.61 -8.85
Si  2.52 -4.62 -8.88
Si  7.30 -1.09  7.22
Si  6.52  5.72 -5.65
Si  0.34 -10.33  0.85
Si -4.78 -5.75  7.20
Si -4.28  9.15  2.38
Si  4.73  5.70 -7.27
Si -0.35 10.35 -0.80
Si -2.69 -9.19  4.05
Si -6.58 -5.73  5.66
Si  4.24 -9.20 -2.45
Si -8.09  3.47 -5.62
Si -0.89 -0.05 -10.41
Si  2.72  9.27 -4.00
Si  6.84 -6.84 -3.99
Si  5.12 -2.32  8.83
Si  1.35 10.35  0.81
Si -1.39 -10.35 -0.79
Si -6.76  6.92  4.03
Si  8.16 -3.39  5.66
Si -9.90  3.40 -0.77
Si  4.41  9.21 -2.43
Si  0.88 -0.02 10.47
Si  9.89 -3.47  0.82
Si -5.21 -2.32  8.83
Si -4.42 -9.23  2.41
Si -3.88 -7.98  5.64
Si  5.16  2.28 -8.88
Si -5.17  2.28 -8.88
Si -6.96 -6.86 -3.99
Si  3.92  8.06 -5.60
Si  6.96  6.91  3.96
Si  2.05 -10.36 -0.80
Si -2.06 10.37  0.85
Si -6.03  0.02 -8.80
Si -0.01 -2.29 10.45
Si  6.02 -0.01  8.85
Si  9.00 -5.74  0.80
Si -9.06  1.16 -5.60
Si -9.02  5.75 -0.84
Si -0.01  2.30 -10.48
Si  2.58  0.00 -10.43
Si  9.09 -1.08  5.64
Si  5.56 -5.75  7.20
Si  3.08 10.30 -0.77
Si -2.61  0.00 10.46
Si -9.47  4.57  2.41
Si  9.46 -4.59 -2.43
Si  1.78  2.27 10.41
Si -5.61  5.70 -7.27
Si -10.30 -2.24 -2.38
Si  0.51  8.06  7.20
Si 10.31  2.26  2.43
Si -4.23  4.59 -8.85
Si  1.72 -2.30 -10.46
Si -1.69  2.27 10.47
Si -3.09 -10.37  0.82
Si  9.52  4.61 -2.45
Si -1.76 -2.26 -10.48
Si -4.33 -4.63 -8.82
Si -10.77  1.19 -0.83
Si 10.36 -2.24 -2.38
Si -7.29  5.79 -5.62
Si  1.19 -8.05  7.21
Si -4.67  8.04  5.63
Si  4.29 -4.61  8.86
Si -10.36  2.26  2.43
Si  7.31 -5.73  5.66
Si  4.37  4.60  8.84
Si  4.65 -8.08 -5.61
Si  7.34  3.42 -7.27
Si  4.21 -9.19  4.01
Si 10.79 -1.18  0.76
Si -4.26  9.18 -4.03
Si -9.57 -4.65  2.38
Si -0.56 -8.10 -7.27
Si -7.35 -3.46  7.28
Si -4.34 -9.18 -3.99
Si -1.17  8.08 -7.24
Si -7.36 -8.06 -0.79
Si  8.20  1.16  7.20
Si  7.42  8.04  0.80
Si  4.37  9.24  4.03
Si  2.18  8.02 -7.24
Si -2.19 -8.04  7.22
Si  3.76 -10.35  0.81
Si -3.79 10.35 -0.79
Si -8.25 -1.20 -7.27
Si -2.93  8.01  7.22
Si  8.53 -6.85 -2.37
Si -9.39  4.62 -3.99
Si  9.41 -4.56  4.03
Si  0.03  6.90 -8.84
Si -5.92  9.21 -2.43
Si -3.40  2.29 -10.44
Si -9.06 -3.46  5.63
Si  6.05  9.15  2.38
Si  5.91 -9.23  2.41
Si -0.06 -6.90  8.86
Si  9.08  3.45 -5.64
Si -8.57  6.86  2.43
Si -3.46 -2.33 10.44
Si  3.46 -2.31 10.45
Si -10.25  2.37 -4.00
Si -6.45 -5.72 -7.24
Si  6.47  5.75  7.21
Si  3.48  2.33 -10.47
Si  2.98 -8.07 -7.29
Si 10.29 -2.29  4.05
Si  1.67 -6.88 -8.80
Si  9.50  4.61  4.01
Si -6.10 -9.20 -2.45
Si -4.32 -0.01 -10.45
Si  8.66  6.88  2.38
Si 10.77  3.40 -0.77
Si  5.66  8.04  5.63
Si -8.67 -6.91 -2.37
Si -1.68  6.89  8.85
Si -9.55 -4.62 -4.03
Si  4.31  0.02 10.50
Si -10.78 -3.47  0.82
Si -5.68 -8.08 -5.61
Si  1.75  6.86  8.88
Si -1.77 -6.92 -8.83
Si -10.38 -2.29  4.05
Si 10.41  2.37 -4.00
Si -6.85  2.33  8.83
Si 11.17  0.05 -2.37
Si  8.13 -3.49 -7.22
Si -0.82  4.57 10.44
Si -0.86 -4.63 10.41
Si  4.84 10.33  0.82
Si -6.87 -2.31 -8.85
Si  6.87 -2.33 -8.86
Si  0.84 -4.57 -10.47
Si  8.21  5.71  5.60
Si -9.93 -1.11 -5.62
Si -11.21 -0.04  2.43
