500
set: 1342.00  0.00  0.00
Si -0.35 -1.25 -0.48
Si  0.32  1.24  1.40
Si -2.35  1.15  0.43
Si -2.39 -1.16  0.49
Si  2.41 -1.16  0.49
Si  2.44  1.15  0.43
Si -1.97  0.93 -2.12
Si  0.16  0.83 -3.09
Si  0.12 -1.48 -3.02
Si -0.41 -3.56 -0.43
Si  2.83  0.93 -2.12
Si -0.45  3.00  2.05
Si  2.06  2.68 -1.47
Si  1.93 -0.93  3.03
Si -0.80 -3.34  2.12
Si -0.11 -0.84  4.01
Si -2.74  2.68 -1.47
Si -0.07  1.47  3.95
Si  1.72 -3.65 -1.39
Si -2.86 -0.93  3.03
Si  4.45 -1.25 -0.48
Si -0.87  4.22 -2.06
Si  2.17 -1.56 -4.00
Si  1.87 -3.24  3.08
Si -4.48  1.24  1.40
Si  1.41  4.54  1.46
Si -3.08 -3.65 -1.39
Si -2.63 -1.56 -4.00
Si -0.08 -5.07  1.46
Si -5.14 -1.25 -0.48
Si -2.93 -3.24  3.08
Si  5.11  1.24  1.40
Si -0.22  2.36 -4.98
Si -2.20  1.56  4.91
Si  4.00 -3.34  2.12
Si -4.64  0.83 -3.09
Si  4.38 -3.56 -0.43
Si  4.34  3.00  2.05
Si  0.55  0.61 -5.64
Si -4.67 -1.48 -3.02
Si  2.60  1.56  4.91
Si -3.38  4.54  1.46
Si  4.96  0.83 -3.09
Si  2.10 -3.87 -3.95
Si  4.92 -1.48 -3.02
Si  3.93  4.22 -2.06
Si -2.69 -3.87 -3.95
Si  1.08  6.05 -0.43
Si  4.69 -0.84  4.01
Si -2.37 -5.39 -2.06
Si  2.43 -5.39 -2.06
Si -1.59  5.95 -1.39
Si -5.21 -3.56 -0.43
Si  4.72  1.47  3.95
Si -0.57 -3.97 -4.91
Si -5.25  3.00  2.05
Si -4.90 -0.84  4.01
Si -4.87  1.47  3.95
Si  1.48 -3.02  5.64
Si -0.58 -0.61  6.55
Si  0.70  6.27  2.12
Si  1.83  3.32  5.57
Si -5.60 -3.34  2.12
Si  3.21  5.95 -1.39
Si -2.12  0.52 -6.60
Si  1.65  3.90 -5.57
Si -1.10  4.85  4.98
Si -1.20  5.73 -3.95
Si  4.71 -5.07  1.46
Si -4.25  0.61 -5.64
Si  0.57 -6.92 -1.47
Si -3.71  6.05 -0.43
Si -2.16 -1.80 -6.54
Si -2.97  3.32  5.57
Si  2.67  0.52 -6.60
Si -6.76  0.93 -2.12
Si  4.58  2.36 -4.98
Si -4.88 -5.07  1.46
Si -1.95 -6.61  2.05
Si -3.31 -3.02  5.64
Si -1.43  6.37  3.08
Si  2.20 -4.75  4.98
Si -0.65 -2.92  6.60
Si -7.15  1.15  0.43
Si  2.64 -1.80 -6.54
Si -7.18 -1.16  0.49
Si  7.20 -1.16  0.49
Si  7.24  1.15  0.43
Si -2.60 -4.75  4.98
Si -5.67  4.22 -2.06
Si  6.73 -0.93  3.03
Si -5.02  2.36 -4.98
Si  2.85 -6.61  2.05
Si -3.15  3.90 -5.57
Si  6.86  2.68 -1.47
Si  0.93  5.63 -4.91
Si  6.51 -3.65 -1.39
Si  4.23 -3.97 -4.91
Si -0.12 -1.88 -7.52
Si -4.10  6.27  2.12
Si  5.34  0.61 -5.64
Si  4.22 -0.61  6.55
Si  6.21  4.54  1.46
Si  3.36  6.37  3.08
Si  3.60  5.73 -3.95
Si  2.18 -0.52  7.53
Si  3.69  4.85  4.98
Si  7.63  0.93 -2.12
Si  0.15 -5.71 -5.57
Si -2.62 -0.52  7.53
Si  2.21  1.79  7.46
Si  6.67 -3.24  3.08
Si -2.58  1.79  7.46
Si -7.53  2.68 -1.47
Si  6.96 -1.56 -4.00
Si -4.23 -6.92 -1.47
Si -5.36 -3.97 -4.91
Si -7.66 -0.93  3.03
Si  4.15 -2.92  6.60
Si  0.33 -6.29  5.57
Si -3.87  5.63 -4.91
Si  5.88  6.05 -0.43
Si  1.15  8.36 -0.48
Si -5.38 -0.61  6.55
Si -0.89  8.45  0.49
Si  0.95 -8.45  0.43
Si -1.18 -8.36  1.40
Si -0.18 -4.19 -7.47
Si -7.43 -1.56 -4.00
Si  5.49  6.27  2.12
Si  0.08  1.88  8.43
Si -6.99  1.56  4.91
Si -7.88 -3.65 -1.39
Si  1.62  8.13 -3.02
Si -6.38  5.95 -1.39
Si  6.90 -3.87 -3.95
Si -1.82  6.59  5.64
Si  5.36 -6.92 -1.47
Si -7.72 -3.24  3.08
Si -1.72 -7.24 -4.98
Si  6.28 -3.02  5.64
Si  7.39  1.56  4.91
Si  1.33 -8.68 -2.12
Si  2.29  2.05 -8.50
Si -5.44 -2.92  6.60
Si  4.68 -1.88 -7.52
Si -1.14  8.04 -4.00
Si -2.50  2.05 -8.50
Si -5.90  4.85  4.98
Si -3.65  8.36 -0.48
Si  2.98  6.59  5.64
Si -4.91 -1.88 -7.52
Si -1.57 -8.14  3.95
Si -6.00  5.73 -3.95
Si -7.16 -5.39 -2.06
Si  3.62 -8.36  1.40
Si -4.65 -5.71 -5.57
Si -3.18  8.13 -3.02
Si  7.23 -5.39 -2.06
Si  6.62  3.32  5.57
Si -1.37  8.68  3.03
Si -3.85 -8.45  0.43
Si -7.49 -3.87 -3.95
Si  3.08 -7.24 -4.98
Si  1.31  5.42 -7.47
Si  3.90  8.45  0.49
Si -1.74  0.29 -9.15
Si  9.24 -1.25 -0.48
Si  6.44  3.90 -5.57
Si  4.95 -5.71 -5.57
Si -1.33 -8.77 -3.09
Si  5.72  5.63 -4.91
Si -6.23  6.37  3.08
Si  0.85  6.69  6.60
Si -9.28  1.24  1.40
Si -8.18  4.54  1.46
Si  1.10 -8.04  4.91
Si -4.46 -6.29  5.57
Si -6.92  0.52 -6.60
Si -3.46 -8.68 -2.12
Si -0.31 -4.44  8.49
Si -1.03 -2.70  9.16
Si  3.23 -8.14  3.95
Si  8.79 -3.34  2.12
Si  1.95 -4.29 -8.43
Si  3.06  0.29 -9.15
Si -6.75 -6.61  2.05
Si  3.66  8.04 -4.00
Si -6.95 -1.80 -6.54
Si  4.62 -4.19 -7.47
Si  1.39  8.77  4.01
Si -0.64  3.58 -9.09
Si -0.69  3.64  9.08
Si  3.43  8.68  3.03
Si  7.00 -4.75  4.98
Si  9.14  3.00  2.05
Si -4.71  1.88  8.43
Si  5.13 -6.29  5.57
Si  9.18 -3.56 -0.43
Si -3.48  5.42 -7.47
Si -2.85 -4.29 -8.43
Si -4.98 -4.19 -7.47
Si  8.72  4.22 -2.06
Si  4.88  1.88  8.43
Si  3.46 -8.77 -3.09
Si -9.43  0.83 -3.09
Si  7.47  0.52 -6.60
Si  1.18  5.17  8.49
Si -9.94 -1.25 -0.48
Si -9.47 -1.48 -3.02
Si -1.35  5.32 -8.43
Si  7.43 -1.80 -6.54
Si  8.01  5.95 -1.39
Si  9.91  1.24  1.40
Si -7.39 -4.75  4.98
Si -7.76  3.32  5.57
Si -3.69 -8.04  4.91
Si  0.39  0.20 -10.12
Si -3.95  6.69  6.60
Si -5.69  8.45  0.49
Si -0.66  7.81 -6.54
Si  1.70 -0.29 10.06
Si -3.41  8.77  4.01
Si  5.74 -8.45  0.43
Si  3.77 -2.70  9.16
Si  9.75  0.83 -3.09
Si  5.94  8.36 -0.48
Si  6.97 -0.52  7.53
Si  0.36 -2.11 -10.06
Si  9.72 -1.48 -3.02
Si  7.64 -6.61  2.05
Si -8.11 -3.02  5.64
Si  9.49 -0.84  4.01
Si -5.98 -8.36  1.40
Si  7.01  1.79  7.46
Si  9.52  1.47  3.95
Si -8.51  6.05 -0.43
Si -7.95  3.90 -5.57
Si -9.70 -0.84  4.01
Si -3.09 -0.29 10.06
Si  3.44  5.32 -8.43
Si -9.66  1.47  3.95
Si  1.64 -2.60 10.12
Si  4.48 -4.44  8.49
Si -7.42 -0.52  7.53
Si -3.62  5.17  8.49
Si  4.11  3.64  9.08
Si  4.16  3.58 -9.09
Si -10.01 -3.56 -0.43
Si -7.38  1.79  7.46
Si -0.95 -9.00 -5.64
Si -9.04  0.61 -5.64
Si -10.05  3.00  2.05
Si -0.47 10.53 -2.12
Si -5.93  8.04 -4.00
Si  6.42  8.13 -3.02
Si  8.16  6.37  3.08
Si -0.86 10.76  0.43
Si  0.91 -10.77  0.49
Si  0.72 -7.82  7.46
Si  6.13 -8.68 -2.12
Si -5.11 -4.44  8.49
Si  1.38  7.73 -7.52
Si  9.37  2.36 -4.98
Si  9.51 -5.07  1.46
Si  8.39  5.73 -3.95
Si -6.61  6.59  5.64
Si -3.16 -2.60 10.12
Si -6.51 -7.24 -4.98
Si  5.65  6.69  6.60
Si  0.44 -10.54  3.03
Si  8.49  4.85  4.98
Si  4.13  7.81 -6.54
Si  1.66 10.44 -3.09
Si  9.03 -3.97 -4.91
Si -1.84 -10.85 -0.48
Si -9.68 -5.07  1.46
Si -4.40  0.20 -10.12
Si -0.34 -0.21 11.04
Si -6.36 -8.14  3.95
Si  6.11  5.42 -7.47
Si -6.16  8.68  3.03
Si -2.18 -5.97  9.08
Si -8.90  6.27  2.12
Si  1.81 10.85  1.40
Si -2.13 -6.03 -9.09
Si -10.39 -3.34  2.12
Si  5.90 -8.04  4.91
Si -6.13 -8.77 -3.09
Si  9.01 -0.61  6.55
Si  0.92  9.00  6.55
Si -5.43  3.58 -9.09
Si  2.62 -5.97  9.08
Si -5.83 -2.70  9.16
Si -0.30  2.11 10.98
Si -4.44 -2.11 -10.06
Si -5.48  3.64  9.08
Si  2.66 -6.03 -9.09
Si -6.53  0.29 -9.15
Si  7.09  2.05 -8.50
Si  2.95 -10.85 -0.48
Si -9.81  2.36 -4.98
Si  3.85 -9.00 -5.64
Si  1.18 -9.09 -6.60
Si -1.60 -10.45  4.01
Si -3.42  7.73 -7.52
Si -3.14 10.44 -3.09
Si -2.98 10.85  1.40
Si  5.19  0.20 -10.12
Si -7.30  2.05 -8.50
Si  0.80 -7.56 -8.50
Si -8.66  5.63 -4.91
Si  6.18  8.77  4.01
Si -3.88 -10.77  0.49
Si -10.46  4.22 -2.06
Si  3.94 10.76  0.43
Si -9.03 -6.92 -1.47
Si  0.46  6.91  9.16
Si  8.95 -2.92  6.60
Si  5.15 -2.11 -10.06
Si  2.40 -2.20 -11.04
Si -2.40 -2.20 -11.04
Si -1.41 -7.73  8.43
Si -4.08 -7.82  7.46
Si -5.46  7.81 -6.54
Si -1.37 -11.09 -3.02
Si  4.33 10.53 -2.12
Si  5.98  5.17  8.49
Si  6.74 -4.29 -8.43
Si 10.14  0.61 -5.64
Si  3.19 -10.45  4.01
Si  7.77  6.59  5.64
Si -6.15  5.32 -8.43
Si -7.97  8.13 -3.02
Si -3.88  9.00  6.55
Si -11.56  0.93 -2.12
Si -4.36 -10.54  3.03
Si -3.62 -9.09 -6.60
Si  7.88 -7.24 -4.98
Si  2.04 10.22 -5.64
Si  1.42 11.08  3.95
Si -1.12  9.08  7.53
Si  0.67 -11.17 -4.00
Si -8.45  8.36 -0.48
Si  4.46 -0.21 11.04
Si  3.38 -7.73  8.43
Si  8.41 -8.36  1.40
Si 11.53 -0.93  3.03
Si -10.16 -3.97 -4.91
Si 11.31 -3.65 -1.39
Si -5.27 10.53 -2.12
Si  6.50 -0.29 10.06
Si -2.75 10.22 -5.64
Si  3.43 -11.09 -3.02
Si 11.01  4.54  1.46
Si -11.95  1.15  0.43
Si -11.98 -1.16  0.49
Si 11.65  2.68 -1.47
Si  4.49  2.11 10.98
Si -4.00 -7.56 -8.50
Si 12.00 -1.16  0.49
Si  7.86  0.29 -9.15
Si -5.74 -9.00 -5.64
Si  8.03 -8.14  3.95
Si 12.04  1.15  0.43
Si -8.64 -8.45  0.43
Si  2.33 -4.51 -10.98
Si -0.63 10.12 -6.60
Si -10.17 -0.61  6.55
Si -2.46 -4.51 -10.98
Si  5.51 -7.82  7.46
Si  8.70  8.45  0.49
Si  0.01  1.73 -12.02
Si -0.97  5.10 -10.98
Si  5.24 -10.54  3.03
Si -7.65 -4.29 -8.43
Si -5.66 10.76  0.43
Si -8.26 -8.68 -2.12
Si -5.13 -0.21 11.04
Si  5.71 -10.77  0.49
Si -0.70 11.17  4.91
Si 10.29  6.27  2.12
Si -3.37 11.08  3.95
Si  9.48 -1.88 -7.52
Si -4.33  6.91  9.16
Si  6.43 -2.60 10.12
Si 10.68  6.05 -0.43
Si -5.10  2.11 10.98
Si 11.46 -3.24  3.08
Si -2.08 -10.22  6.55
Si  8.22  8.68  3.03
Si  8.46  8.04 -4.00
Si  3.67  9.08  7.53
Si -9.44 -5.71 -5.57
Si  2.37  2.20 11.95
Si 10.16 -6.92 -1.47
Si -2.43  2.20 11.95
Si -8.28  5.42 -7.47
Si -1.66  7.00 10.12
Si  6.17  7.73 -7.52
Si -9.71 -1.88 -7.52
Si  8.26 -8.77 -3.09
Si  2.72 -10.22  6.55
Si -1.24 12.29 -1.47
Si -9.26 -6.29  5.57
Si  5.71  9.00  6.55
Si 11.76 -1.56 -4.00
Si -10.24 -2.92  6.60
Si -4.13 -11.17 -4.00
Si  9.74 -5.71 -5.57
Si  5.26  6.91  9.16
Si 12.42  0.93 -2.12
Si  0.68 -10.13  7.53
Si  6.45 10.44 -3.09
Si -8.20  8.77  4.01
Si  5.59 -7.56 -8.50
Si  1.85  7.49 -10.06
Si -8.49 -8.04  4.91
Si  0.78 -0.03 -12.67
Si  3.13  7.00 10.12
Si  3.83  5.10 -10.98
Si -12.33  2.68 -1.47
Si  9.41 -4.19 -7.47
Si  5.98 -9.09 -6.60
Si -6.64 -10.85 -0.48
Si -11.18  5.95 -1.39
Si -10.69  4.85  4.98
Si  6.61 10.85  1.40
Si  4.17 10.12 -6.60
Si 11.07 -3.02  5.64
Si -7.89 -0.29 10.06
Si -0.34 -4.61 -11.94
Si  1.04 12.61  2.05
Si  8.56 -2.70  9.16
Si -8.74  6.69  6.60
Si -10.79  5.73 -3.95
Si -9.51  1.88  8.43
Si  1.97 -4.12 12.01
Si -12.46 -0.93  3.03
Si -11.79  1.56  4.91
Si  4.09 11.17  4.91
Si  3.56 12.29 -1.47
Si -2.94  7.49 -10.06
Si -6.40 -10.45  4.01
Si 10.52  5.63 -4.91
Si -6.98 -5.97  9.08
Si -6.93 -6.03 -9.09
Si  8.24  5.32 -8.43
Si 11.69 -3.87 -3.95
Si  1.25 -2.38 12.67
Si -12.22 -1.56 -4.00
Si  9.68  1.88  8.43
Si -9.77 -4.19 -7.47
Si  1.16  5.00 -11.94
Si  9.93 -6.29  5.57
Si -2.83 -4.12 12.01
Si -6.21 -7.73  8.43
Si -8.41  5.17  8.49
Si  1.27 11.97 -4.98
Si -6.17 -11.09 -3.02
Si -4.79  1.73 -12.02
Si  4.81  1.73 -12.02
Si  5.47 -11.17 -4.00
Si -11.02  6.37  3.08
Si -7.96 -2.60 10.12
Si 11.42  3.32  5.57
Si 11.24  3.90 -5.57
Si  1.57 -9.32 -9.15
Si  1.88  3.26 -12.61
Si  7.41 -5.97  9.08
Si  1.14 -11.40 -6.54
Si -5.92  9.08  7.53
Si  7.46 -6.03 -9.09
Si  0.37 -12.85  3.08
Si  8.91  3.64  9.08
Si 12.19  1.56  4.91
Si -5.42 10.12 -6.60
Si  8.96  3.58 -9.09
Si -12.67 -3.65 -1.39
Si -1.33  5.49 12.01
Si -4.12 -10.13  7.53
Si -11.96 -5.39 -2.06
Si -4.02 -0.03 -12.67
Si -12.52 -3.24  3.08
Si  1.60  3.95 12.60
Si  6.22 11.08  3.95
Si -1.91 -13.16 -0.43
Si -3.75 12.61  2.05
Si -2.29 -12.94  2.12
Si -0.90  7.41 -11.04
Si 12.02 -5.39 -2.06
Si  0.22 -13.26 -1.39
Si  9.28 -4.44  8.49
Si  7.75 -10.85 -0.48
Si -2.92  3.26 -12.61
Si  2.50 -12.94  2.12
Si  7.19 -2.20 -11.04
Si -7.20 -2.20 -11.04
Si -3.54 -2.38 12.67
Si -5.50 11.17  4.91
