500
set: 527.00  0.00  0.00
Si  0.00  0.00  0.00
Si  0.30 -2.11  0.77
Si  1.88  1.08  0.77
Si -0.09  0.08 -2.32
Si -1.92  1.08  0.77
Si -1.57 -3.19  0.00
Si  1.57  3.19  0.00
Si  1.83 -1.00 -3.09
Si -1.83  1.00  3.09
Si  3.79  0.00  0.00
Si -3.79  0.00  0.00
Si -1.97 -1.00 -3.09
Si  1.97  1.00  3.09
Si  0.39 -2.19  3.09
Si -0.39  2.19 -3.09
Si -2.22  3.19  0.00
Si  2.22 -3.19  0.00
Si -3.49 -2.11  0.77
Si -1.66 -3.11 -2.32
Si  1.48  3.28 -2.32
Si -1.52 -1.11  3.85
Si -0.34  4.28  0.77
Si  3.71  0.08 -2.32
Si  0.05  2.09  3.85
Si  2.13 -3.11 -2.32
Si -3.88  0.08 -2.32
Si  2.27 -1.11  3.85
Si -2.31  3.28 -2.32
Si  4.10 -2.11  0.77
Si -3.40 -2.19  3.09
Si  3.40  2.19 -3.09
Si  0.26 -4.20 -3.09
Si -0.26  4.20  3.09
Si -1.27 -5.30  0.77
Si  3.45  4.28  0.77
Si -4.19  2.19 -3.09
Si  4.19 -2.19  3.09
Si  1.74 -0.92 -5.41
Si -3.74  2.09  3.85
Si  0.70 -4.30  3.85
Si  5.67  1.08  0.77
Si  3.84  2.09  3.85
Si -2.06 -0.92 -5.41
Si -5.71  1.08  0.77
Si -0.48  2.27 -5.41
Si  2.53 -5.30  0.77
Si -4.14  4.28  0.77
Si  5.37  3.19  0.00
Si -5.37 -3.19  0.00
Si  3.54  4.20  3.09
Si -3.54 -4.20 -3.09
Si -1.18 -5.39  3.09
Si  1.18  5.39 -3.09
Si -0.65  6.39  0.00
Si  0.65 -6.39  0.00
Si -1.43 -1.19  6.18
Si  1.43  1.19 -6.18
Si -5.62  1.00  3.09
Si  5.62 -1.00 -3.09
Si -0.14 -2.00 -6.18
Si  0.14  2.00  6.18
Si -3.09 -4.30  3.85
Si  4.05 -4.20 -3.09
Si -4.05  4.20  3.09
Si -5.76 -1.00 -3.09
Si  5.76  1.00  3.09
Si  5.28  3.28 -2.32
Si -5.32 -1.11  3.85
Si -5.45 -3.11 -2.32
Si  2.36 -1.19  6.18
Si -2.36  1.19 -6.18
Si  1.62  5.28  3.85
Si  2.62 -5.39  3.09
Si -2.62  5.39 -3.09
Si  3.31  2.27 -5.41
Si  0.56 -6.31 -2.32
Si  0.17 -4.12 -5.41
Si -6.02  3.19  0.00
Si  6.02 -3.19  0.00
Si -2.17  5.28  3.85
Si -0.74  6.47 -2.32
Si  0.44 -0.10  6.94
Si  5.93 -3.11 -2.32
Si -3.14 -6.39  0.00
Si  3.14  6.39  0.00
Si -4.28  2.27 -5.41
Si  6.07 -1.11  3.85
Si -6.10  3.28 -2.32
Si  4.49 -4.30  3.85
Si -5.06 -5.30  0.77
Si -3.66  2.00  6.18
Si  3.66 -2.00 -6.18
Si -3.23 -6.31 -2.32
Si  3.06  6.47 -2.32
Si  7.59  0.00  0.00
Si -7.59  0.00  0.00
Si  3.93  2.00  6.18
Si -3.93 -2.00 -6.18
Si  1.23  7.47  0.77
Si -0.79  4.38 -6.18
Si  0.79 -4.38  6.18
Si -7.28 -2.11  0.77
Si -3.63 -4.12 -5.41
Si -3.35 -0.10  6.94
Si  1.09  5.47 -5.41
Si -1.13 -3.30  6.94
Si  4.44 -6.39  0.00
Si -4.44  6.39  0.00
Si  5.53 -0.92 -5.41
Si -1.78  3.09  6.94
Si  7.50  0.08 -2.32
Si  2.02  3.09  6.94
Si  3.96 -4.12 -5.41
Si -2.57  7.47  0.77
Si  4.97  5.39 -3.09
Si -4.97 -5.39  3.09
Si  4.36 -6.31 -2.32
Si -7.68  0.08 -2.32
Si -5.85 -0.92 -5.41
Si  1.32  7.39  3.09
Si -1.32 -7.39 -3.09
Si  7.19  2.19 -3.09
Si -7.19 -2.19  3.09
Si  4.24 -0.10  6.94
Si  2.67 -3.30  6.94
Si -3.00 -4.38  6.18
Si  3.00  4.38 -6.18
Si -2.71  5.47 -5.41
Si -5.23 -1.19  6.18
Si  5.23  1.19 -6.18
Si  7.89 -2.11  0.77
Si -4.53  6.47 -2.32
Si  1.71  5.20  6.18
Si -1.71 -5.20 -6.18
Si  6.32 -5.30  0.77
Si  2.08 -5.20 -6.18
Si -2.08  5.20  6.18
Si -2.48  7.39  3.09
Si  2.48 -7.39 -3.09
Si  7.24  4.28  0.77
Si -0.87 -7.50  3.85
Si  5.42  5.28  3.85
Si  0.96 -8.50  0.77
Si  1.34  1.27 -8.50
Si -0.23 -1.92 -8.50
Si -7.54  2.09  3.85
Si  6.15 -1.19  6.18
Si -6.15  1.19 -6.18
Si  7.64  2.09  3.85
Si  7.98 -2.19  3.09
Si -7.98  2.19 -3.09
Si -5.97  5.28  3.85
Si  4.58 -4.38  6.18
Si -4.58  4.38 -6.18
Si  2.92 -7.50  3.85
Si  6.41 -5.39  3.09
Si -6.41  5.39 -3.09
Si -2.45  1.27 -8.50
Si -6.89 -4.30  3.85
Si -2.84 -8.50  0.77
Si -7.33 -4.20 -3.09
Si  7.33  4.20  3.09
Si  5.02  7.47  0.77
Si -7.93  4.28  0.77
Si  4.88  5.47 -5.41
Si -4.92 -3.30  6.94
Si -1.04  8.58 -3.09
Si  1.04 -8.58  3.09
Si -1.40 -7.31 -5.41
Si  7.11  2.27 -5.41
Si -0.53  0.19 -9.27
Si  0.53 -0.19  9.27
Si -0.60  8.47  3.85
Si -0.21  6.28  6.94
Si  2.39 -7.31 -5.41
Si  3.57 -1.92 -8.50
Si  7.84 -4.20 -3.09
Si -7.84  4.20  3.09
Si -5.57  3.09  6.94
Si -6.94 -6.39  0.00
Si  6.94  6.39  0.00
Si  5.11  7.39  3.09
Si -5.11 -7.39 -3.09
Si -2.75 -8.58  3.09
Si  2.75  8.58 -3.09
Si  9.46  1.08  0.77
Si  5.81  3.09  6.94
Si  1.09 -6.49  6.94
Si -9.50  1.08  0.77
Si -4.02 -1.92 -8.50
Si  0.92  9.58  0.00
Si -0.92 -9.58  0.00
Si -4.67 -7.50  3.85
Si -0.88  4.46 -8.50
Si -9.16 -3.19  0.00
Si  9.16  3.19  0.00
Si  6.85  6.47 -2.32
Si -7.03 -6.31 -2.32
Si  4.75 -8.50  0.77
Si  5.50  5.20  6.18
Si -5.50 -5.20 -6.18
Si  0.78  7.58 -6.18
Si -0.78 -7.58  6.18
Si -3.26 -0.19  9.27
Si  3.26  0.19 -9.27
Si -1.01 -9.50 -2.32
Si  3.19  8.47  3.85
Si -6.36  7.47  0.77
Si  7.45 -2.00 -6.18
Si -7.45  2.00  6.18
Si -2.70 -6.49  6.94
Si  1.69 -3.01 -9.27
Si -1.69  3.01  9.27
Si  1.04  3.38 -9.27
Si -1.04 -3.38  9.27
Si  9.07  3.28 -2.32
Si -9.11 -1.11  3.85
Si  9.41 -1.00 -3.09
Si -9.41  1.00  3.09
Si -7.14 -0.10  6.94
Si  2.10  3.01  9.27
Si -2.10 -3.01 -9.27
Si  0.83  9.66 -2.32
Si -8.07  2.27 -5.41
Si -5.88  5.20  6.18
Si  5.88 -5.20 -6.18
Si -2.87  9.58  0.00
Si  2.87 -9.58  0.00
Si  5.14  1.27 -8.50
Si  3.59  6.28  6.94
Si -9.25 -3.11 -2.32
Si  2.92  4.46 -8.50
Si  6.46 -3.30  6.94
Si -7.42 -4.12 -5.41
Si -6.50  5.47 -5.41
Si -1.80 -5.12 -8.50
Si  9.55  1.00  3.09
Si -9.55 -1.00 -3.09
Si -7.73 -2.00 -6.18
Si  7.73  2.00  6.18
Si  8.29 -4.30  3.85
Si  2.00 -5.12 -8.50
Si -1.38  0.90 10.03
Si  2.78 -9.50 -2.32
Si  6.27 -7.39 -3.09
Si -6.27  7.39  3.09
Si  6.80  4.38 -6.18
Si -6.80 -4.38  6.18
Si -4.00  6.28  6.94
Si -4.33  0.19 -9.27
Si  4.33 -0.19  9.27
Si -3.01  7.58 -6.18
Si  3.01 -7.58  6.18
Si -2.75  3.38 -9.27
Si  2.75 -3.38  9.27
Si -1.13  8.66 -5.41
Si -4.39  8.47  3.85
Si  7.75 -4.12 -5.41
Si -9.81  3.19  0.00
Si  9.81 -3.19  0.00
Si -4.84  8.58 -3.09
Si  4.84 -8.58  3.09
Si  0.84 -2.30 10.03
Si -8.85 -5.30  0.77
Si  2.41  0.90 10.03
Si -2.96  9.66 -2.32
Si  8.24 -6.39  0.00
Si -8.24  6.39  0.00
Si  0.51 -8.39 -6.18
Si -0.51  8.39  6.18
Si  9.72 -3.11 -2.32
Si -5.20 -7.31 -5.41
Si  2.66  8.66 -5.41
Si  8.15 -6.31 -2.32
Si  8.03 -0.10  6.94
Si -6.24  1.27 -8.50
Si  9.86 -1.11  3.85
Si -4.67  4.46 -8.50
Si -4.71 -9.58  0.00
Si  4.71  9.58  0.00
Si -9.90  3.28 -2.32
Si  4.89 -6.49  6.94
Si -2.96 -2.30 10.03
Si -0.99 10.67  0.77
Si -8.77 -5.39  3.09
Si  8.77  5.39 -3.09
Si  6.71 -7.50  3.85
Si -4.58 -7.58  6.18
Si  4.58  7.58 -6.18
Si -8.33  6.47 -2.32
Si -6.63 -8.50  0.77
Si  9.33 -0.92 -5.41
Si  0.19  4.09 10.03
Si -4.80 -9.50 -2.32
Si  3.28  8.39  6.18
Si -3.28 -8.39 -6.18
Si  4.63  9.66 -2.32
Si -4.83 -3.38  9.27
Si  4.83  3.38 -9.27
Si -9.02 -1.19  6.18
Si  9.02  1.19 -6.18
Si  6.18 -7.31 -5.41
Si  2.80 10.67  0.77
Si  0.91 -10.59 -3.09
Si -0.91 10.59  3.09
Si -9.64 -0.92 -5.41
Si -0.12  6.20  9.27
Si  0.12 -6.20 -9.27
Si  5.48 -3.01 -9.27
Si -5.48  3.01  9.27
Si -6.54 -8.58  3.09
Si  6.54  8.58 -3.09
Si -4.31  8.39  6.18
Si  4.31 -8.39 -6.18
Si  4.63 -2.30 10.03
Si  8.38 -4.38  6.18
Si -8.38  4.38 -6.18
Si  9.21  5.28  3.85
Si -11.08 -2.11  0.77
Si -5.18  0.90 10.03
Si -4.93  8.66 -5.41
Si 11.38  0.00  0.00
Si -11.38  0.00  0.00
Si  5.90  3.01  9.27
Si -5.90 -3.01 -9.27
Si -5.59 -5.12 -8.50
Si -2.89 -10.59 -3.09
Si  2.89 10.59  3.09
Si  7.36 -1.92 -8.50
Si -3.61  4.09 10.03
Si -1.18  6.58 -9.27
Si  1.18 -6.58  9.27
Si  1.35 -10.69  3.85
Si 10.12 -5.30  0.77
Si -0.73 -5.49 10.03
Si  0.69  7.66 -8.50
Si  5.79 -5.12 -8.50
Si -6.49 -6.49  6.94
Si 11.29  0.08 -2.32
Si  3.98  4.09 10.03
Si  8.81  7.47  0.77
Si  8.68  5.47 -5.41
Si -0.62  0.27 -11.59
Si 10.99  2.19 -3.09
Si -10.99 -2.19  3.09
Si -8.72 -3.30  6.94
Si -2.44 -10.69  3.85
Si  6.99  8.47  3.85
Si -7.05 -0.19  9.27
Si  7.05  0.19 -9.27
Si -2.61 -6.58  9.27
Si  2.61  6.58 -9.27
Si -6.67  9.58  0.00
Si  6.67 -9.58  0.00
Si -11.47  0.08 -2.32
Si -7.81 -1.92 -8.50
Si  6.71  4.46 -8.50
Si -4.79 10.67  0.77
Si -0.62 -11.69  0.77
Si -3.68 -6.20 -9.27
Si  3.68  6.20  9.27
Si -9.76  5.28  3.85
Si -9.95  1.19 -6.18
Si  9.95 -1.19  6.18
Si  6.58 -9.50 -2.32
Si -3.91  6.20  9.27
Si  3.91 -6.20 -9.27
Si  1.36  9.48  6.94
Si  6.20  0.90 10.03
Si  6.55 -3.38  9.27
Si -6.55  3.38 -9.27
Si  3.06 -5.49 10.03
Si  0.82 -10.51 -5.41
Si -3.10  7.66 -8.50
Si 11.04  4.28  0.77
Si  0.42 -8.31 -8.50
Si 11.69 -2.11  0.77
Si -6.80  7.58 -6.18
Si  6.80 -7.58  6.18
Si  7.38  6.28  6.94
Si -0.48 -9.69  6.94
Si -8.46 -7.50  3.85
Si -10.20  5.39 -3.09
Si 10.20 -5.39  3.09
Si -8.90 -7.39 -3.09
Si  8.90  7.39  3.09
Si  4.70 -10.59 -3.09
Si -4.70 10.59  3.09
Si -2.43  9.48  6.94
Si  3.17  0.27 -11.59
Si -6.75  9.66 -2.32
Si  1.60 -2.93 -11.59
Si -9.37  3.09  6.94
Si  8.54 -8.50  0.77
Si  6.45  8.66 -5.41
Si  0.95  3.46 -11.59
Si  3.18 -11.69  0.77
Si -10.68 -4.30  3.85
Si -11.33  2.09  3.85
Si -2.19 -2.93 -11.59
Si -7.79  6.28  6.94
Si  0.53 11.78 -3.09
Si -0.53 -11.78  3.09
Si -2.98 -10.51 -5.41
Si 11.43  2.09  3.85
Si  9.60  3.09  6.94
Si -11.12 -4.20 -3.09
Si 11.12  4.20  3.09
Si  4.49  7.66 -8.50
Si -4.53 -5.49 10.03
Si -6.75 -2.30 10.03
Si -9.30 -5.20 -6.18
Si  9.30  5.20  6.18
Si  8.12 -0.19  9.27
Si -8.12  0.19 -9.27
Si  0.97 11.67  3.85
Si -3.37 -8.31 -8.50
Si 11.78 -2.19  3.09
Si -11.78  2.19 -3.09
Si  3.32 -9.69  6.94
Si 10.90  2.27 -5.41
Si  8.93  1.27 -8.50
Si -8.19  8.47  3.85
Si -4.42  0.27 -11.59
Si -4.98  6.58 -9.27
Si  4.98 -6.58  9.27
Si -2.84  3.46 -11.59
Si -1.30  0.82 12.35
Si  1.30 -0.82 -12.35
Si  5.14 -10.69  3.85
Si 10.73  6.39  0.00
Si -10.73 -6.39  0.00
Si -1.44 10.77 -6.18
Si  1.44 -10.77  6.18
Si -11.73  4.28  0.77
Si -4.41 -11.69  0.77
Si  1.76  7.29 10.03
Si -8.63  8.58 -3.09
Si  8.63 -8.58  3.09
Si  6.59 10.67  0.77
Si -2.04  7.29 10.03
Si  7.08  8.39  6.18
Si -7.08 -8.39 -6.18
Si  9.67 -5.20 -6.18
Si -9.67  5.20  6.18
Si  3.27 -11.78  3.09
Si -3.27 11.78 -3.09
Si -2.82 11.67  3.85
Si  0.93 -2.38 12.35
Si -0.93  2.38 -12.35
Si  4.22 -8.31 -8.50
Si  2.50  0.82 12.35
Si -2.50 -0.82 -12.35
Si -10.15  7.47  0.77
Si -2.35 -10.77  6.18
Si  2.35 10.77 -6.18
Si -4.27 -9.69  6.94
Si 10.64  6.47 -2.32
Si  4.61 -10.51 -5.41
Si -10.82 -6.31 -2.32
Si 11.64 -4.20 -3.09
Si -11.64  4.20  3.09
Si -8.99 -7.31 -5.41
Si -8.46  4.46 -8.50
Si 10.25 -3.30  6.94
Si  8.51  9.58  0.00
Si -8.51 -9.58  0.00
Si  5.16  9.48  6.94
Si  1.30 -12.78  0.00
Si -1.30 12.78  0.00
Si -10.29  5.47 -5.41
Si -10.07  7.39  3.09
Si 10.07 -7.39 -3.09
Si  8.37  7.58 -6.18
Si -8.37 -7.58  6.18
Si  8.68 -6.49  6.94
Si  6.68 10.59  3.09
Si -6.68 -10.59 -3.09
Si -2.87 -2.38 12.35
Si  2.87  2.38 -12.35
Si -4.32 -11.78  3.09
Si  4.32 11.78 -3.09
Si -10.94 -0.10  6.94
Si  1.21 -12.70 -2.32
Si -6.24 -10.69  3.85
Si -11.24  2.00  6.18
Si 11.24 -2.00 -6.18
Si  4.74  3.46 -11.59
Si  0.28  4.01 12.35
Si -0.28 -4.01 -12.35
Si  2.49 12.78  0.00
Si -2.49 -12.78  0.00
Si -10.59 -4.38  6.18
Si 10.59  4.38 -6.18
Si -8.60 -9.50 -2.32
Si  8.42  9.66 -2.32
Si  0.44 11.86 -5.41
Si -6.41 -6.58  9.27
Si  6.41  6.58 -9.27
Si  8.63  3.38 -9.27
