500
set: 1056.00  0.00  0.00
Si  0.48 -1.18  0.83
Si -0.45  1.32 -0.79
Si -1.27 -0.98 -0.80
Si  1.37  1.20  0.81
Si  0.80  0.02 -2.45
Si -0.81 -0.03  2.45
Si -2.16  1.13  0.88
Si  2.17 -1.16 -0.90
Si  0.03  2.27  2.43
Si -0.04 -2.36 -2.37
Si  3.11  1.19 -0.80
Si -3.10 -1.27  0.80
Si  2.58 -0.09  2.45
Si -0.43 -3.49  0.81
Si -2.65  0.02 -2.48
Si -1.30  3.41  0.80
Si  1.76  2.33 -2.37
Si  1.65 -2.44  2.41
Si  1.31 -3.49 -0.80
Si  0.53  3.70 -0.80
Si -1.70  2.37 -2.48
Si -1.77 -2.42  2.43
Si -2.25 -3.37 -0.79
Si -3.88  1.19 -0.80
Si  3.89 -1.27  0.80
Si -0.86 -0.08 -4.10
Si  0.85 -0.01  4.15
Si  2.28  3.50  0.83
Si  0.09  2.31 -4.07
Si -0.11 -2.32  4.07
Si -3.02  3.53 -0.90
Si  3.02 -3.55  0.88
Si  3.46  2.24  2.41
Si -2.60  0.03  4.04
Si -3.53  2.24  2.41
Si  2.56 -0.10 -4.11
Si  3.49 -2.31 -2.48
Si -3.50 -2.31 -2.48
Si  4.33  0.02 -2.48
Si  1.69  2.36  4.07
Si -1.76  2.36  4.05
Si -1.71 -2.37 -4.07
Si  4.83  1.13  0.88
Si  1.69 -2.44 -4.07
Si -4.82 -1.16 -0.90
Si -4.41 -0.09  2.45
Si  0.99  4.65  2.45
Si -1.00 -4.67 -2.45
Si  3.97  3.53 -0.90
Si -0.85  4.70 -2.48
Si -3.96 -3.55  0.88
Si  0.78 -4.78  2.45
Si  3.42 -2.32  4.05
Si -5.62  1.20  0.81
Si  3.49  2.25 -4.07
Si -3.50  2.25 -4.07
Si -2.60  4.59  2.45
Si  0.48 -1.15 -5.71
Si  2.53 -4.66 -2.48
Si  5.72 -0.98 -0.80
Si  4.74 -3.37 -0.79
Si -3.56 -2.32  4.05
Si -0.36  5.81  0.88
Si -0.38  1.36  5.73
Si  2.60  4.70 -2.45
Si  0.36 -5.84 -0.90
Si -2.62 -4.71  2.45
Si -4.71  3.50  0.83
Si  4.38  0.03  4.04
Si  1.39  1.16 -5.70
Si -1.35 -1.02  5.74
Si -4.42 -0.10 -4.11
Si -1.32 -5.86  0.83
Si -5.23  2.33 -2.37
Si  1.35  6.00 -0.79
Si -2.19  1.07 -5.73
Si  0.94  4.61 -4.10
Si  2.20 -1.15  5.72
Si  5.22 -2.42  2.43
Si -0.80  4.71  4.04
Si -2.08  5.87 -0.80
Si  5.29  2.37 -2.48
Si -0.95 -4.70  4.15
Si -5.33 -2.44  2.41
Si  0.76 -4.79 -4.11
Si  2.08 -5.95  0.80
Si -3.07 -5.66 -0.80
Si  3.06  1.19  5.63
Si -3.06 -1.22 -5.64
Si  6.17 -0.03  2.45
Si -6.19  0.02 -2.45
Si -6.51 -1.18  0.83
Si  2.58 -4.65  4.04
Si  5.69  3.41  0.80
Si -2.62  4.58 -4.11
Si -0.41 -3.52 -5.70
Si -5.68 -3.49 -0.80
Si  6.54  1.32 -0.79
Si  3.17  5.88  0.81
Si -1.25  3.47 -5.64
Si  1.26 -3.50  5.63
Si  2.65  4.67  4.15
Si  4.38  4.59  2.45
Si  0.45  3.66  5.74
Si -2.66 -4.76 -4.10
Si  4.37 -4.71  2.45
Si -4.39  4.70 -2.45
Si -4.46 -4.66 -2.48
Si  3.92 -5.66 -0.80
Si -3.93  1.19  5.63
Si -2.18 -3.32  5.73
Si  3.93 -1.22 -5.64
Si  5.23  2.36  4.05
Si -3.82  5.88  0.81
Si  5.28 -2.37 -4.07
Si -5.30  2.36  4.07
Si  2.28  3.54 -5.71
Si -5.30 -2.44 -4.07
Si -2.99  3.54  5.72
Si  6.13 -0.08 -4.10
Si  2.99 -3.61 -5.73
Si -6.14 -0.01  4.15
Si  0.46 -1.14  7.34
Si -0.36  1.36 -7.32
Si  6.56 -3.49  0.81
Si  0.10  7.05 -2.48
Si -6.46  3.70 -0.80
Si -1.34 -1.03 -7.31
Si -0.15 -7.12  2.41
Si -1.73  6.92  2.41
Si  4.36  4.58 -4.11
Si  4.79  1.07 -5.73
Si -4.79 -1.15  5.72
Si  1.37  1.16  7.35
Si -4.41 -4.65  4.04
Si  1.83  6.95  2.43
Si -7.43  1.32 -0.79
Si  7.47 -1.18  0.83
Si -4.34  4.67  4.15
Si  1.69 -7.00 -2.48
Si  4.33 -4.76 -4.10
Si -1.85 -7.04 -2.37
Si  4.91  5.87 -0.80
Si  6.94 -2.36 -2.37
Si -6.96  2.27  2.43
Si -2.21  1.08  7.32
Si  2.21 -1.15 -7.33
Si -4.90 -5.95  0.80
Si  7.02  2.27  2.43
Si -7.03 -2.36 -2.37
Si  4.00  3.54  5.72
Si -4.00 -3.61 -5.73
Si  5.99 -4.67 -2.45
Si -6.00  4.65  2.45
Si -5.60  1.16 -5.70
Si  5.63 -1.02  5.74
Si -3.07 -1.21  7.40
Si  6.13  4.70 -2.48
Si  3.07  1.18 -7.42
Si -0.39  5.75 -5.73
Si  0.04  7.05  4.05
Si  0.50  8.10  0.80
Si -3.43  7.01 -2.37
Si -0.43 -3.52  7.35
Si  7.79  0.02 -2.45
Si  0.40 -5.83  5.72
Si -7.80 -0.03  2.45
Si  4.81 -3.32  5.73
Si  0.46  3.65 -7.31
Si  5.67 -5.86  0.83
Si -4.71  3.54 -5.71
Si -0.11 -7.12 -4.07
Si -6.21 -4.78  2.45
Si  3.56  7.01 -2.37
Si -1.70  6.93 -4.07
Si -0.49 -8.18 -0.80
Si -7.42 -3.49  0.81
Si  3.42 -7.10  2.43
Si  1.62 -7.00  4.05
Si -1.32 -5.83 -5.71
Si -5.63  6.00 -0.79
Si -1.27  3.47  7.40
Si  1.27 -3.50 -7.42
Si -3.57 -7.10  2.43
Si  1.90  6.99 -4.07
Si -2.16 -3.32 -7.32
Si -1.91 -7.00  4.07
Si  6.88 -2.32  4.07
Si -6.89  2.31 -4.07
Si -1.22  8.21 -0.90
Si -8.26 -0.98 -0.80
Si  1.22 -8.24  0.88
Si -2.13  5.87  5.63
Si  7.52  3.70 -0.80
Si  2.13 -5.90 -5.64
Si  1.42  6.05  5.73
Si  2.26  3.54  7.34
Si  3.92 -1.21  7.40
Si -3.91  1.18 -7.42
Si  8.36  1.20  0.81
Si  7.08  2.31 -4.07
Si -7.10 -2.32  4.07
Si -2.23 -8.17  0.81
Si  2.94 -8.05 -0.79
Si -6.05  4.61 -4.10
Si -2.97  3.53 -7.33
Si -3.16 -5.71  5.74
Si  2.98 -3.61  7.32
Si  6.04 -4.70  4.15
Si -2.91  8.19  0.83
Si -6.51 -1.15 -5.71
Si  2.33  8.39 -0.80
Si  3.19  5.84 -5.70
Si  5.73  3.47 -5.64
Si -5.73 -3.50  5.63
Si  6.18  4.71  4.04
Si  4.78  1.08  7.32
Si -4.77 -1.15 -7.33
Si  6.61  1.36  5.73
Si  3.49  7.04  4.07
Si -3.50  7.04  4.07
Si -7.85 -0.08 -4.10
Si  6.63  5.81  0.88
Si  3.48 -7.06 -4.07
Si -6.23 -4.79 -4.11
Si  7.84 -0.01  4.15
Si -3.51 -7.06 -4.07
Si -6.62 -5.84 -0.90
Si  0.86 -0.02 -8.90
Si  3.83 -5.71  5.74
Si -5.16  6.95  2.43
Si -0.88 -0.07  8.95
Si -3.80  5.84 -5.70
Si -8.29  3.41  0.80
Si  5.26  6.92  2.41
Si  5.14 -7.04 -2.37
Si  8.29 -3.49 -0.80
Si -4.05 -8.05 -0.79
Si  4.02  3.53 -7.33
Si -4.01 -3.61  7.32
Si -5.30 -7.00 -2.48
Si  4.08  8.19  0.83
Si -9.15  1.13  0.88
Si  0.08  2.31  8.97
Si  9.15 -1.16 -0.90
Si -0.09 -2.33 -8.98
Si  2.55 -0.10  8.94
Si  5.65 -1.03 -7.31
Si  8.64 -2.44  2.41
Si -0.41  5.76  7.32
Si -5.62  1.16  7.35
Si -8.69  2.37 -2.48
Si  8.74  2.33 -2.37
Si -2.59  0.03 -9.01
Si  4.83 -3.32 -7.32
Si  0.41 -5.84 -7.33
Si  6.58 -3.52 -5.70
Si -8.76 -2.42  2.43
Si -7.35  5.81  0.88
Si -4.72  3.54  7.34
Si -7.37  1.36  5.73
Si  7.35 -5.84 -0.90
Si  1.71  2.36 -8.98
Si -1.72 -2.37  8.97
Si -6.54  3.66  5.74
Si  7.77 -4.78  2.45
Si  1.67 -2.43  8.97
Si -1.34 -5.83  7.34
Si -1.75  2.36 -9.00
Si  7.47 -1.15 -5.71
Si  4.86  5.87  5.63
Si -7.84  4.70 -2.48
Si  4.76 -8.17  0.81
Si -4.86 -5.90 -5.64
Si  7.97  4.65  2.45
Si  5.08 -7.00  4.07
Si -5.09  6.99 -4.07
Si -7.99 -4.67 -2.45
Si  1.44  6.04 -7.32
Si  5.29  6.93 -4.07
Si -4.66  8.39 -0.80
Si -0.80  9.27  2.45
Si -2.11  5.87 -7.42
Si  0.73 -9.35 -2.48
Si  2.12 -5.89  7.40
Si -5.36 -7.00  4.05
Si  0.95  9.39 -2.48
Si -3.14 -5.71 -7.31
Si -1.02 -9.46  2.45
Si -9.24 -3.37 -0.79
Si  8.68  2.36  4.07
Si  9.57 -0.09  2.45
Si  3.48  2.25  8.97
Si -6.53 -1.14  7.34
Si  8.68 -2.44 -4.07
Si -8.70 -2.37 -4.07
Si -3.51  2.25  8.97
Si  3.44 -2.32 -9.00
Si  3.17  5.85  7.35
Si -8.75  2.36  4.05
Si  0.55  8.15 -5.64
Si  5.67 -5.83 -5.71
Si -0.54 -8.18  5.63
Si  9.27  3.50  0.83
Si -3.55 -2.32 -9.00
Si -9.64  0.02 -2.48
Si -7.79  4.71  4.04
Si  6.63  1.36 -7.32
Si  5.72  3.47  7.40
Si -4.44 -0.10  8.94
Si -7.40 -3.52 -5.70
Si  7.75 -4.79 -4.11
Si -5.71 -3.50 -7.42
Si -5.56  6.05  5.73
Si  4.40  0.03 -9.01
Si -2.59  9.38 -2.45
Si  3.85 -5.71 -7.31
Si  7.93  4.61 -4.10
Si  2.57 -9.40  2.45
Si  2.79  9.34  2.45
Si -2.80 -9.35 -2.45
Si  5.77  8.21 -0.90
Si  7.43  3.66  5.74
Si -1.19  8.22  5.72
Si -5.76 -8.24  0.88
Si -0.94 -4.70 -8.90
Si  0.92  4.61  8.95
Si -7.94 -4.70  4.15
Si -3.81  5.85  7.35
Si  1.19 -8.30 -5.73
Si  0.75 -4.78  8.94
Si -6.88  7.05 -2.48
Si -0.82  9.26 -4.11
Si  6.84 -7.12  2.41
Si -8.34 -1.02  5.74
Si -0.79  4.71 -9.01
Si  8.38  1.16 -5.70
Si 10.10  1.19 -0.80
Si  0.78 -9.33  4.04
Si -10.09 -1.27  0.80
Si -8.31 -5.86  0.83
Si -2.21 -8.21 -5.70
Si  1.00  9.40  4.04
Si  3.01 -8.00  5.73
Si  8.34  6.00 -0.79
Si  7.09  7.05 -2.48
Si -7.13 -7.12  2.41
Si  2.25  8.34  5.74
Si -1.04 -9.47 -4.11
Si -2.64  4.59  8.94
Si  2.67  4.67 -8.90
Si  9.55 -0.10 -4.11
Si -6.49  8.10  0.80
Si -9.59  0.03  4.04
Si -2.91  8.22 -5.71
Si -6.53  3.65 -7.31
Si  6.59  5.75 -5.73
Si -7.35  1.36 -7.32
Si  6.56 -3.52  7.35
Si  2.60 -4.66 -9.01
Si  6.49 -8.18 -0.80
Si -2.68 -4.75  8.95
Si -6.59 -5.83  5.72
Si  2.74  9.29 -4.10
Si  7.45 -1.14  7.34
Si -4.20  9.34  2.45
Si  4.19 -9.35 -2.45
Si -2.54  9.35  4.15
Si -8.24  3.47 -5.64
Si  8.24 -3.50  5.63
Si  2.12 -10.35 -0.80
Si -0.28 10.56 -0.80
Si  2.52 -9.44 -4.10
Si -3.98 -8.00  5.73
Si -2.75 -9.38  4.15
Si  0.78  0.02 10.59
Si -0.80 -0.04 -10.60
Si  1.44 10.49  0.88
Si  4.88  5.87 -7.42
Si -4.87 -5.89  7.40
Si -10.01  3.53 -0.90
Si  4.40  9.38 -2.45
Si -1.44 -10.52 -0.90
Si 10.01 -3.55  0.88
Si -4.42 -9.40  2.45
Si  0.28 -10.63  0.80
Si  5.26 -2.37  8.97
Si -5.28  2.36 -8.98
Si  5.24  2.36 -9.00
Si -6.95  7.05  4.05
Si  6.88 -7.12 -4.07
Si -5.31 -2.43  8.97
Si  7.03  7.05  4.05
Si -2.02 10.56  0.81
Si -6.12 -0.02 -8.90
Si  4.08  8.22 -5.71
Si -9.07  5.87 -0.80
Si  6.11 -0.07  8.95
Si -7.10 -7.12 -4.07
Si  0.05  2.26 -10.62
Si -9.18  1.07 -5.73
Si  9.07 -5.95  0.80
Si  9.19 -1.15  5.72
Si  9.52 -4.66 -2.48
Si -2.67  0.03 10.57
Si  2.60 -0.10 -10.59
Si -9.59  4.59  2.45
Si -0.06 -2.35 10.67
Si -4.32  4.67 -8.90
Si  5.65 -5.83  7.34
Si  4.35  4.59  8.94
Si 10.44  2.24  2.41
Si  9.59  4.70 -2.45
Si -1.71  2.38 10.56
Si -10.87  1.19 -0.80
Si -7.38  5.75 -5.73
Si -9.60 -4.71  2.45
Si 10.87 -1.27  0.80
Si -5.55  6.04 -7.32
Si -4.25  9.29 -4.10
Si  4.31 -4.75  8.95
Si  7.39 -5.83  5.72
Si 10.48 -2.31 -2.48
Si -7.42 -3.52  7.35
Si -10.49 -2.31 -2.48
Si -10.52  2.24  2.41
Si  0.53  8.16  7.40
Si -3.12 -10.55  0.83
Si -1.75 -2.42 -10.62
Si  1.67 -2.45 -10.63
Si -4.39 -4.66 -9.01
Si  7.45  3.65 -7.31
Si  7.49  8.10  0.80
Si -0.53 -8.18 -7.42
Si  1.74  2.33 10.67
Si -1.17  8.21 -7.33
Si  4.78 -8.21 -5.70
Si  4.23 -9.38  4.15
Si -7.48 -8.18 -0.80
Si  1.18 -8.29  7.32
Si -8.33 -1.03 -7.31
Si  4.45  9.35  4.15
Si  3.15 10.68 -0.79
Si -4.74  8.34  5.74
Si  8.36  1.16  7.35
Si -4.46 -9.44 -4.10
Si -2.23 -8.20  7.35
Si  3.02 -8.01 -7.32
Si  3.87 -10.55  0.83
Si -9.17 -3.32  5.73
Si  2.26  8.34 -7.31
Si  3.47 -2.31 10.56
Si -3.51 -2.31 10.56
Si -3.83 10.68 -0.79
Si  9.57 -4.65  4.04
Si -8.72  6.92  2.41
Si -2.92  8.22  7.34
Si  6.58  5.76  7.32
Si  3.47  2.24 -10.63
Si 10.41 -2.32  4.05
Si  6.18  9.27  2.45
Si -9.61  4.58 -4.11
Si  4.32  0.03 10.57
Si  8.68 -7.00 -2.48
Si -3.52  2.24 -10.63
Si  0.05  7.04 -9.00
Si -6.04  9.39 -2.48
Si -6.57 -5.84 -7.33
Si  9.27  3.54 -5.71
Si  5.97 -9.46  2.45
Si -0.13 -7.12  8.97
Si -4.87 -10.35 -0.80
Si 10.48  2.25 -4.07
Si -4.39 -0.10 -10.59
Si -1.71  6.93  8.97
Si -10.49  2.25 -4.07
Si  9.64  4.67  4.15
Si  8.82  6.95  2.43
Si -9.65 -4.76 -4.10
Si -6.26 -9.35 -2.48
Si  1.64 -7.01 -9.00
Si  1.88  7.00  8.97
Si -10.55 -2.32  4.05
Si -8.83 -7.04 -2.37
Si 10.96  3.53 -0.90
Si -1.89 -7.01 -8.98
Si -10.95 -3.55  0.88
Si -3.96 -8.01 -7.32
Si  6.89 -2.33 -8.98
Si -6.91  2.31  8.97
Si -10.06 -5.66 -0.80
Si  5.80  8.22  5.72
Si 10.05  1.19  5.63
Si -10.04 -1.22 -5.64
Si 11.32  0.02 -2.48
Si -0.87  4.71 10.57
Si  1.00  4.65 -10.60
Si -1.02 -4.66 10.59
Si -8.26  3.47  7.40
Si -5.80 -8.30 -5.73
