500
set: 218.00  0.00  0.00
Si  0.01  0.01  0.01
Si  1.83  1.04  0.77
Si  0.02 -2.10  0.78
Si -1.86  1.07  0.75
Si  0.03 -0.00 -2.28
Si -3.68 -0.02 -0.02
Si  1.87  3.18 -0.01
Si -1.84 -3.20 -0.01
Si -0.01 -2.16  3.00
Si  1.83 -1.09 -3.03
Si  3.71  0.04 -0.03
Si -0.01  2.13 -3.05
Si -1.88  1.08  3.02
Si  1.85 -3.23 -0.03
Si  1.89  1.07  3.03
Si -1.89 -1.05 -3.04
Si -1.89  3.23 -0.01
Si -3.66 -2.11  0.76
Si -3.66  0.02 -2.27
Si -0.01  4.25  0.75
Si  1.82  3.20 -2.27
Si  1.83 -1.08  3.77
Si -1.87  3.19 -2.27
Si -1.84 -3.22 -2.25
Si -0.01  2.12  3.79
Si -1.85 -1.04  3.79
Si  1.86 -3.23 -2.27
Si  3.73  0.01 -2.28
Si  3.75 -2.15  0.74
Si -3.68 -2.11  3.04
Si  3.67 -2.16  3.03
Si  3.70  2.13 -3.03
Si -3.73  2.14 -2.99
Si  0.03 -4.28 -3.04
Si -0.01  4.30  3.02
Si  1.85 -1.09 -5.24
Si -1.86 -5.31  0.74
Si -0.02  2.13 -5.27
Si -3.70  4.26  0.74
Si  3.70  2.15  3.77
Si -5.55  1.05  0.80
Si  5.55  1.05  0.80
Si -1.85 -1.05 -5.30
Si  1.85 -5.35  0.74
Si  3.68  4.30  0.74
Si -0.02 -4.28  3.79
Si -3.70  2.12  3.83
Si  0.03  6.38  0.01
Si  5.53  3.18 -0.01
Si -1.86 -5.30  3.04
Si  1.86  5.33 -2.99
Si  3.68 -4.25 -3.03
Si  0.01 -2.14 -6.02
Si  0.01  2.12  6.03
Si -3.69 -4.28 -2.99
Si  1.82 -5.34  3.01
Si -5.52 -3.24  0.01
Si -1.86 -1.05  6.03
Si -1.86  1.10 -6.03
Si -5.54  1.06  3.04
Si  1.82  1.06 -6.05
Si -5.57  3.18 -0.01
Si -5.54 -1.08 -3.03
Si -3.73  4.27  3.01
Si  5.55 -1.08 -3.03
Si  5.56  1.06  3.04
Si -1.86  5.36 -3.03
Si  3.69  4.31  3.04
Si -0.02 -6.43 -0.01
Si  1.86 -1.08  6.07
Si  5.58 -3.24  0.01
Si -5.53 -3.17 -2.25
Si  0.03 -6.38 -2.23
Si -3.69 -4.25  3.76
Si -5.52  3.23 -2.23
Si  3.67  2.13 -5.29
Si  3.67 -4.28  3.77
Si  5.54 -1.07  3.78
Si -0.01 -4.28 -5.28
Si  5.57 -3.17 -2.25
Si -1.88  5.33  3.77
Si  1.86  5.36  3.76
Si -5.56 -1.07  3.78
Si -3.69  2.15 -5.30
Si  0.02  0.03  6.82
Si  0.02  6.44 -2.25
Si  5.58  3.23 -2.23
Si  3.66 -6.38 -0.01
Si  3.66  2.15  6.02
Si -3.66 -2.13 -6.03
Si -3.70  6.38 -0.03
Si  3.67 -2.13 -6.04
Si -0.01 -4.28  6.02
Si -7.39  0.04 -0.03
Si -3.72  2.12  6.03
Si -0.01  4.25 -6.06
Si  3.71  6.41 -0.01
Si -3.68 -6.43 -0.01
Si  7.42 -0.02 -0.02
Si -7.35 -2.15  0.74
Si  3.69 -4.25 -5.27
Si -7.37  0.01 -2.28
Si -3.69  6.38 -2.27
Si -1.80  7.47  0.74
Si -1.82  3.22  6.78
Si  1.82 -3.21  6.79
Si  5.54 -1.08 -5.27
Si  1.83  5.33 -5.29
Si  3.71  6.39 -2.25
Si -3.69 -0.02  6.79
Si -5.55 -1.08 -5.27
Si  5.54 -5.36  0.75
Si  3.68 -6.42 -2.27
Si -1.85  5.36 -5.27
Si  1.89  3.22  6.79
Si -1.87 -3.22  6.80
Si  3.71 -0.01  6.81
Si -3.71 -4.28 -5.29
Si -3.73 -6.41 -2.27
Si -5.56 -5.36  0.75
Si  1.89  7.50  0.76
Si  7.44 -2.11  0.76
Si  7.44  0.02 -2.27
Si -5.52 -1.07  6.02
Si  7.37  2.14 -2.99
Si  1.87 -5.31 -6.02
Si  3.67  4.25 -6.04
Si  5.54 -5.31  3.02
Si  1.82 -7.47 -2.99
Si -1.85  5.33  6.03
Si -5.52  5.34 -3.04
Si -3.68  4.30 -6.02
Si -1.88  7.46  3.03
Si -5.56 -5.31  3.02
Si  5.54  1.09 -6.04
Si  3.70 -4.28  6.03
Si -7.40  2.13 -3.03
Si  5.58 -1.07  6.02
Si -5.56  1.09 -6.04
Si -1.85 -7.48 -3.03
Si -1.88 -5.36 -6.04
Si  1.82  5.35  6.07
Si  7.42 -2.11  3.04
Si  5.58  5.34 -3.04
Si -3.73 -4.26  6.07
Si -7.43 -2.16  3.03
Si  1.87  7.51  3.04
Si  0.00 -2.15 -8.26
Si -1.85 -7.46  3.77
Si  7.39  4.26  0.74
Si  5.53  5.33  3.79
Si -7.40  2.15  3.77
Si  1.85  1.06 -8.32
Si -5.57  5.33  3.79
Si  7.40  2.12  3.83
Si  0.00 -8.56  0.80
Si -1.86  1.10 -8.33
Si -7.42  4.30  0.74
Si  1.85 -7.49  3.83
Si  7.37  4.27  3.01
Si  0.01  8.53 -3.03
Si  7.41 -4.28 -2.99
Si  0.03 -0.03  9.07
Si -7.42 -4.25 -3.03
Si -0.02 -0.03 -9.07
Si  0.01 -8.55  3.04
Si -7.41  4.31  3.04
Si -5.52  3.20  6.78
Si  9.24  1.07  0.75
Si  0.02  4.30 -8.28
Si  5.54  5.33 -5.28
Si  7.41 -4.25  3.76
Si  0.03 -6.41  6.78
Si  3.69 -8.54  0.75
Si  3.69 -2.14 -8.31
Si  1.86 -7.46 -5.30
Si -0.01  8.54  3.78
Si -5.56  5.33 -5.28
Si -3.72 -2.16 -8.29
Si -5.52 -3.18  6.83
Si  5.58  3.20  6.78
Si -1.88 -7.48 -5.29
Si -5.53  7.51  0.78
Si  7.41  2.15 -5.30
Si -9.27  1.04  0.77
Si -7.43  2.13 -5.29
Si -7.43 -4.28  3.77
Si  5.58 -3.18  6.83
Si -3.72 -8.57  0.77
Si  5.57  7.51  0.78
Si  0.03  6.43  6.83
Si -1.84 -9.57 -0.03
Si -9.21  1.07  3.03
Si  9.21 -1.05 -3.04
Si -3.70 -0.03  9.03
Si  9.21  1.08  3.02
Si  5.54  7.45  3.00
Si  9.21  3.23 -0.01
Si  5.54  5.33  6.02
Si -1.89 -7.46  6.02
Si -9.23  3.18 -0.01
Si  7.38  2.12  6.03
Si  3.67 -8.53  3.02
Si -1.84  3.24  9.03
Si  1.87  3.18  9.04
Si  1.87  9.59 -0.02
Si -5.56  7.45  3.00
Si -3.66 -8.54  3.03
Si  7.40  6.38 -0.03
Si -5.56  5.33  6.02
Si -1.89 -3.18  9.05
Si  3.71  0.00  9.05
Si -3.72  8.53 -3.03
Si  1.87 -3.22  9.05
Si -7.39  6.41 -0.01
Si  3.66  0.02 -9.07
Si  9.26 -3.20 -0.01
Si  1.89  7.48 -6.03
Si  1.83 -7.49  6.03
Si -9.25 -3.23 -0.03
Si  5.54 -7.49 -3.05
Si -3.68 -0.02 -9.08
Si  3.66  8.56 -3.04
Si -1.84  3.21 -9.08
Si -1.88  7.49 -6.04
Si -7.44 -6.38 -0.01
Si -1.84 -3.17 -9.09
Si  5.54 -5.36 -6.06
Si -7.44  2.15  6.02
Si -9.27 -1.09 -3.03
Si  1.85  3.18 -9.09
Si -5.56 -7.49 -3.05
Si -7.43 -2.13 -6.04
Si  7.44 -2.13 -6.03
Si  7.42 -6.43 -0.01
Si  1.87 -9.63 -0.02
Si  1.87 -3.23 -9.08
Si -5.56 -5.36 -6.06
Si -1.84  9.65 -0.03
Si -3.66 -6.39  6.79
Si -1.80  1.06  9.80
Si  9.23  3.19 -2.27
Si -7.39  6.39 -2.25
Si  3.68  6.39  6.80
Si -0.01  8.53 -5.27
Si -1.82 -9.60 -2.28
Si -7.40 -4.25 -5.27
Si  7.37 -6.41 -2.27
Si -3.66  4.29 -8.30
Si  1.89 -9.60 -2.27
Si  1.89 -5.32 -8.30
Si  3.73 -6.39  6.78
Si  7.38 -4.28 -5.29
Si  7.41  6.38 -2.27
Si -3.71  8.53  3.77
Si  5.54  1.05 -8.31
Si -0.01 -2.16  9.81
Si -9.24 -3.23 -2.27
Si -7.39 -0.01  6.81
Si  9.24 -1.04  3.79
Si -3.73  6.40  6.79
Si  7.41 -0.02  6.79
Si -1.80 -5.35 -8.32
Si -5.56  1.05 -8.31
Si -1.82  9.63 -2.28
Si  5.54 -7.49  3.79
Si  9.26 -3.22 -2.25
Si  1.89  1.09  9.82
Si -9.27 -1.08  3.77
Si -5.55 -7.49  3.79
Si  1.89  9.63 -2.27
Si  3.69  8.57  3.79
Si -9.28  3.20 -2.27
Si -7.42 -6.42 -2.27
Si  3.75  4.26 -8.32
Si -0.01 -8.52 -6.04
Si  0.03  8.54  6.02
Si  7.37 -4.26  6.07
Si -7.40 -4.28  6.03
Si -7.43  4.25 -6.04
Si  7.42  4.30 -6.02
Si -3.70  8.53 -5.24
Si  9.23 -5.31  0.74
Si  3.68 -2.11  9.80
Si -9.25 -1.09 -5.24
Si  5.53 -7.48 -5.27
Si  0.00 10.66  0.80
Si -3.70 -2.15  9.80
Si  9.25 -1.05 -5.30
Si -5.57 -7.48 -5.27
Si -9.25 -5.35  0.74
Si  3.70  8.56 -5.30
Si  0.00  4.26  9.86
Si  3.69 -8.51 -6.03
Si -5.52  3.17 -9.05
Si  9.24 -5.30  3.04
Si -0.02  6.38  9.05
Si -5.54  7.47 -6.02
Si  9.23 -1.05  6.03
Si -9.24  5.33 -2.99
Si -5.54 -3.19 -9.05
Si  9.24  1.10 -6.03
Si -5.54 -9.60  0.01
Si  5.55 -3.19 -9.05
Si  5.56  7.47 -6.02
Si  5.53 -3.23  9.05
Si  5.55 -9.60  0.01
Si -11.09  0.01  0.01
Si  0.01  6.42 -9.05
Si  9.23  5.36 -3.03
Si  0.01 10.67  3.04
Si  5.58  3.17 -9.05
Si -5.54 -7.49  6.03
Si  3.68  8.56  6.03
Si  0.01 -6.39  9.08
Si -3.69  8.54  6.07
Si 11.11  0.01  0.01
Si  5.55 -7.49  6.03
Si -9.24 -1.08  6.07
Si -5.54  9.62  0.01
Si -5.57 -3.23  9.05
Si -5.54  3.22  9.08
Si  0.03 -6.44 -9.05
Si  5.55  9.62  0.01
Si  0.01 -10.69 -3.03
Si  5.55  3.22  9.08
Si -3.73 -8.55 -6.05
Si -9.28 -5.34  3.01
Si -9.28  1.06 -6.05
Si -5.53 -5.31 -8.28
Si  0.03  0.03 -11.29
Si  1.83  7.45 -8.29
Si  5.57 -5.31 -8.28
Si  9.22  5.33  3.77
Si -11.07 -0.00 -2.28
Si  7.38 -2.16 -8.29
Si -11.08 -2.10  0.78
Si -3.72 10.65  0.77
Si -5.52  9.61 -2.28
Si -5.52 -9.61 -2.28
Si  3.69  4.27  9.82
Si  3.69 10.68  0.75
Si -9.24  5.36  3.76
Si -1.86 -5.34  9.82
Si -1.86  7.47 -8.31
Si -0.01 -10.68  3.78
Si  7.38 -8.57  0.77
Si -7.41 -8.54  0.75
Si -7.41 -2.14 -8.31
Si -3.72  4.25  9.83
Si 11.12 -2.10  0.78
Si  5.58  9.61 -2.28
Si -5.53  1.10  9.85
Si  5.58 -9.61 -2.28
Si  1.83 -5.37  9.83
Si 11.13 -0.00 -2.28
Si  5.57  1.10  9.85
Si  3.71 -6.37  9.03
Si -3.68  6.39  9.05
Si  3.66 -10.66 -3.04
Si  7.40 -0.03  9.03
Si  7.38  8.53 -3.03
Si -7.39  0.00  9.05
Si 11.09 -2.16  3.00
Si  3.66  6.43  9.05
Si -3.68 -6.43  9.04
Si 11.09  2.13 -3.05
Si -3.66 10.68  3.03
Si -3.68  6.39 -9.08
Si  3.67 10.69  3.02
Si -11.11 -2.16  3.00
Si  3.71 -6.41 -9.08
Si -7.43 -8.53  3.02
Si -11.11  2.13 -3.05
Si  7.42 -0.02 -9.08
Si  7.44 -8.54  3.03
Si -3.72 -10.70 -3.03
Si -7.44  0.02 -9.07
Si -3.70 -6.43 -9.09
Si -7.44  8.56 -3.04
Si  3.71  6.45 -9.09
Si -7.37 -6.39  6.78
Si -9.21  3.22  6.79
Si  7.37  6.40  6.79
Si -7.35  4.26 -8.32
Si 11.09  4.25  0.75
Si  1.86  9.59  6.79
Si  3.69 -10.65  3.79
Si  7.38  8.53  3.77
Si -9.21  7.50  0.76
Si -1.84  3.19 -11.32
Si  1.89 -11.73  0.76
Si  9.23 -3.22  6.80
Si -1.84  9.60  6.81
Si  3.68 -0.02 -11.33
Si  1.86  3.18 -11.33
Si 11.09  2.12  3.79
Si  9.24  5.36 -5.27
Si -1.80 -11.76  0.74
Si -0.01 -10.69 -5.27
Si -7.42  6.39  6.80
Si -1.82 -3.19 -11.34
Si -11.11  4.25  0.75
Si -11.10  2.12  3.79
Si -9.27  5.33 -5.29
Si  7.44 -6.39  6.79
Si  1.89 -3.19 -11.34
Si -3.71 -10.69  3.77
Si -1.84 -9.63  6.81
Si -9.28 -3.21  6.79
Si -3.73 -0.01 -11.34
Si  1.86 -9.63  6.79
Si -0.01 -8.56 -8.31
Si  9.28  3.22  6.78
Si -7.40  8.57  3.79
Si  7.44  4.29 -8.30
Si  9.30  7.47  0.74
Si -9.23 -5.31 -6.02
Si  9.22  7.46  3.03
Si  1.82 -1.06 -12.06
Si -11.07 -4.28 -3.04
Si  1.87 -11.72  3.04
Si  9.22 -5.36 -6.04
Si  9.25  5.33  6.03
Si  0.03 -10.68  6.02
Si -1.85 11.74 -3.03
Si  1.82 11.76 -2.99
Si -0.01 -2.11 12.09
Si 11.09  4.30  3.02
Si -9.23  7.51  3.04
Si -1.88  1.05 12.09
Si  9.25 -7.48 -3.03
Si -9.28 -7.47 -2.99
Si -1.85 -1.07 -12.10
Si  0.03  2.13 -12.10
Si -11.11  4.30  3.02
Si -0.01 10.71 -6.04
Si -1.88 -11.77  3.03
Si  1.87  1.10 12.11
Si 11.13 -4.28 -3.04
Si -9.28  5.35  6.07
Si -5.55  7.46 -8.26
Si  5.55  7.46 -8.26
Si  7.40  8.53 -5.24
Si 11.08  2.13 -5.27
Si  1.85  7.46  9.80
Si  9.25 -7.46  3.77
Si  3.68 -8.52 -8.33
Si  7.39 -2.15  9.80
Si -7.42 -2.11  9.80
Si 11.08 -4.28  3.79
Si  3.70 -10.66 -5.30
Si -3.70 -10.70 -5.24
Si  1.85 11.73  3.83
Si  9.23  1.10 -8.33
Si -1.86  7.50  9.80
Si -11.12  2.13 -5.27
Si -1.85 11.76  3.77
Si -9.25  1.06 -8.32
Si -7.40  8.56 -5.30
Si -3.70 -8.55 -8.32
Si -11.12 -4.28  3.79
Si -9.25 -7.49  3.83
Si -5.55 -5.35  9.86
Si  5.55 -5.35  9.86
Si -11.07  6.38  0.01
Si -3.69  2.13 -12.06
Si -0.02 12.79 -0.01
Si -7.41 -8.51 -6.03
Si  3.68 -10.66  6.03
Si -11.09 -2.14 -6.02
Si -11.09  2.12  6.03
Si  7.37 -8.55 -6.05
Si 11.10  2.12  6.03
Si 11.08 -6.43 -0.01
Si -3.73 -2.14 12.07
Si 11.11 -2.14 -6.02
Si  3.69 -2.10 12.10
Si  3.68  2.15 -12.09
Si 11.13  6.38  0.01
Si -3.73 10.67 -6.05
Si  7.41  8.54  6.07
Si  0.01 -4.28 -12.09
Si  0.01  4.26 12.10
Si -7.42  8.56  6.03
Si -3.69 -10.69  6.07
Si  3.69 10.71 -6.03
Si -11.12 -6.43 -0.01
Si  0.03 -12.85  0.01
Si -11.07 -6.38 -2.23
Si  7.38 10.65  0.77
Si -5.53 -11.72  0.78
Si  0.02 -12.79 -2.25
Si  0.02 -6.38 -11.31
Si 12.93  1.04  0.77
Si -5.53 -9.58  6.82
Si -5.53  3.23 -11.31
Si  5.57 -11.72  0.78
Si  1.86 -1.05 12.82
Si  9.22 -7.48 -5.29
