500
set: 1449.00  0.00  0.00
Si  0.24 -1.13 -0.85
Si  0.22  1.30 -0.96
Si -1.21  0.02  1.85
Si  0.60  2.02  1.24
Si  2.32 -1.62  0.02
Si  2.64  0.43  0.97
Si -1.04  0.85 -2.72
Si  1.00 -0.75 -2.98
Si -1.99  2.56 -0.23
Si -1.18 -2.41  1.92
Si -3.31  0.43  0.97
Si -1.56 -3.20 -0.23
Si  1.88  0.04  3.11
Si -2.85 -1.16 -2.11
Si  3.10 -1.16 -2.11
Si -3.63 -1.62  0.02
Si  2.70  2.17 -2.04
Si  1.03 -3.73  1.24
Si -1.60  3.35  1.92
Si  0.08 -2.02  3.72
Si  1.86  2.48  2.99
Si -3.25  2.17 -2.04
Si -1.99 -0.44  3.97
Si  1.89  4.14  0.02
Si  0.65 -4.45 -0.96
Si -0.19  4.63 -0.85
Si  3.96  2.56 -0.23
Si  0.67 -2.80 -3.94
Si  0.24  2.96 -3.94
Si  2.32  1.38 -4.19
Si -2.82 -3.58 -2.04
Si  2.30 -3.28  2.99
Si  4.74  0.02  1.85
Si -4.07  0.04  3.11
Si -1.42  0.13 -4.92
Si  3.13 -3.58 -2.04
Si -0.35  3.74  3.72
Si  4.39 -3.20 -0.23
Si -1.67  1.61  4.93
Si -1.40 -2.31 -4.80
Si  3.96 -0.44  3.97
Si -4.08  2.48  2.99
Si -0.61 -4.91 -2.72
Si  4.91  0.85 -2.72
Si  4.78 -2.41  1.92
Si -3.63  1.38 -4.19
Si  2.67  4.60 -2.11
Si -3.65 -3.28  2.99
Si -4.06  4.14  0.02
Si  4.34  3.35  1.92
Si -4.95 -0.75 -2.98
Si -5.35  2.02  1.24
Si  0.57  5.01 -2.98
Si -5.71 -1.13 -0.85
Si  0.43  1.19  5.80
Si -5.73  1.30 -0.96
Si  0.47 -1.23  5.87
Si -3.29  4.60 -2.11
Si -0.78 -5.74  1.85
Si -2.88 -5.33  0.97
Si  1.06  1.00 -5.99
Si -1.83  3.45 -4.80
Si  3.07 -5.33  0.97
Si -1.64  5.77  1.85
Si -4.92 -3.73  1.24
Si  6.19 -1.13 -0.85
Si  2.67 -2.56  5.19
Si  6.17  1.30 -0.96
Si  2.24  3.20  5.19
Si -1.24 -4.15  4.93
Si  2.21  6.19  0.97
Si  2.75 -4.37 -4.19
Si -3.28 -2.56  5.19
Si  1.45 -2.34 -6.06
Si  4.53  0.13 -4.92
Si  4.28  1.61  4.93
Si  1.45  5.80  3.11
Si -3.20 -4.37 -4.19
Si  2.31 -5.71  3.11
Si  6.55  2.02  1.24
Si  0.67 -6.89 -0.85
Si -5.30 -4.45 -0.96
Si  4.55 -2.31 -4.80
Si  1.02  3.42 -6.06
Si -2.42  5.31  3.97
Si -0.21  7.06 -0.96
Si -3.71  3.20  5.19
Si -5.28 -2.80 -3.94
Si -2.69 -0.33 -6.67
Si  4.12  3.45 -4.80
Si -0.64 -1.92 -6.93
Si -5.87 -2.02  3.72
Si -1.48  6.61 -2.72
Si -3.74  6.19  0.97
Si  1.43 -6.50 -2.98
Si  6.03 -2.02  3.72
Si -7.16  0.02  1.85
Si  0.04  4.53  5.87
Si  0.86 -4.56  5.80
Si  3.26 -0.33 -6.67
Si  4.31  5.77  1.85
Si  5.76  4.63 -0.85
Si -3.63 -5.71  3.11
Si  3.53  5.31  3.97
Si -1.56 -6.20  3.97
Si -2.01 -2.10  6.95
Si -5.71  2.96 -3.94
Si -0.99 -5.63 -4.92
Si -6.99  0.85 -2.72
Si -2.42  1.22  7.06
Si  6.95 -0.75 -2.98
Si -2.42 -6.92 -2.11
Si  5.60  3.74  3.72
Si -6.14  4.63 -0.85
Si  5.34 -4.91 -2.72
Si -7.12 -2.41  1.92
Si -4.89  1.00 -5.99
Si  1.49 -4.76 -5.99
Si  2.75 -7.38  0.02
Si  0.17  7.78  1.24
Si -1.85  5.88 -4.92
Si -4.50 -2.34 -6.06
Si  6.19  2.96 -3.94
Si  1.72 -0.84  7.68
Si -5.38  5.01 -2.98
Si  5.17 -5.74  1.85
Si -0.35  0.73  7.93
Si -4.50  5.80  3.11
Si  4.71 -4.15  4.93
Si  3.53  1.22  7.06
Si -1.07  3.83 -6.93
Si  6.98 -3.73  1.24
Si  6.60 -4.45 -0.96
Si -3.20 -7.38  0.02
Si  3.53 -6.92 -2.11
Si -5.52  1.19  5.80
Si -5.48 -1.23  5.87
Si -7.51 -3.20 -0.23
Si  0.68  0.21 -8.14
Si  6.62 -2.80 -3.94
Si -1.40  1.78 -7.89
Si -6.30  3.74  3.72
Si -2.44  3.66  6.95
Si  3.94 -2.10  6.95
Si -7.94  2.56 -0.23
Si -0.74 -8.16  1.92
Si  8.27 -1.62  0.02
Si  4.47  6.61 -2.72
Si  7.83  0.04  3.11
Si -4.52 -6.50 -2.98
Si -7.55  3.35  1.92
Si  1.89  7.14 -4.19
Si  2.27  7.93 -2.04
Si -4.93  3.42 -6.06
Si  4.39 -6.20  3.97
Si  3.51  3.66  6.95
Si -1.99 -4.54  7.06
Si -6.56 -4.91 -2.72
Si  0.51 -7.78  3.72
Si  8.59  0.43  0.97
Si -2.42  8.32 -0.23
Si  4.10  5.88 -4.92
Si  6.38  1.19  5.80
Si -5.28 -6.89 -0.85
Si  7.81  2.48  2.99
Si  6.52  5.01 -2.98
Si  6.42 -1.23  5.87
Si -4.23 -0.84  7.68
Si -4.46 -4.76 -5.99
Si -7.37  0.13 -4.92
Si  7.83  4.14  0.02
Si  1.43  8.24  2.99
Si -0.97 -3.97 -7.89
Si -7.94 -0.44  3.97
Si  5.31 -1.92 -6.93
Si -5.09 -4.56  5.80
Si  4.96 -5.63 -4.92
Si -3.68  7.93 -2.04
Si -1.13 -8.95 -0.23
Si -6.73 -5.74  1.85
Si  3.53  8.32 -0.23
Si  0.63  6.75 -5.99
Si -0.00  6.95  5.80
Si  2.83  5.43 -6.67
Si -7.35 -2.31 -4.80
Si -2.10  7.36  4.93
Si -8.80 -1.16 -2.11
Si -3.12  5.43 -6.67
Si  8.65  2.17 -2.04
Si  5.74  7.06 -0.96
Si  0.90 -6.99  5.87
Si  1.29  4.91  7.68
Si -7.62  1.61  4.93
Si -4.06  7.14 -4.19
Si  7.01  1.00 -5.99
Si  3.96 -4.54  7.06
Si  4.55  1.78 -7.89
Si  4.88  3.83 -6.93
Si -2.26 -6.08 -6.67
Si -0.03  2.78  8.88
Si -9.26  0.43  0.97
Si  9.04 -1.16 -2.11
Si  8.24 -3.28  2.99
Si  8.27  1.38 -4.19
Si  0.41 -2.98  8.88
Si  2.48  2.27 -8.76
Si  0.08 -5.03  7.93
Si  2.89 -1.05 -8.87
Si -1.64 -1.38  9.15
Si -6.16  7.06 -0.96
Si -0.97 -8.06 -4.80
Si -3.06 -1.05 -8.87
Si  1.10 -8.55 -3.94
Si -5.91  4.53  5.87
Si -2.04  9.11  1.92
Si  5.99  4.53  5.87
Si -0.19  8.72 -3.94
Si  6.62 -6.89 -0.85
Si -7.19 -4.15  4.93
Si  3.85  7.36  4.93
Si -9.20  2.17 -2.04
Si  1.46 -9.49  1.24
Si -8.77 -3.58 -2.04
Si -3.47  2.27 -8.76
Si -5.27  0.21 -8.14
Si -7.59  5.77  1.85
Si -9.58 -1.62  0.02
Si  5.60  0.73  7.93
Si  3.69 -6.08 -6.67
Si -6.59 -1.92 -6.93
Si -7.78  3.45 -4.80
Si -5.78  7.78  1.24
Si  7.40 -2.34 -6.06
Si  6.97  3.42 -6.06
Si -2.39 -9.34 -2.04
Si -4.51  8.24  2.99
Si  2.91 -3.48 -8.76
Si  5.21 -8.16  1.92
Si  2.73 -9.03  2.99
Si -3.04 -3.48 -8.76
Si  7.40  5.80  3.11
Si  1.11 -5.55 -8.14
Si -0.58 -0.18 -9.95
Si  6.12  7.78  1.24
Si  9.08 -3.58 -2.04
Si  8.61  4.60 -2.11
Si  1.46  9.89  0.02
Si  6.81 -4.56  5.80
Si -3.22 -9.03  2.99
Si  2.11 -0.06  9.82
Si  3.91  9.11  1.92
Si  0.24  5.96 -8.14
Si  4.98 -3.97 -7.89
Si -6.30  0.73  7.93
Si  4.82 -8.95 -0.23
Si -5.44 -7.78  3.72
Si -6.94 -5.63 -4.92
Si  3.56 -9.34 -2.04
Si  4.31 -1.38  9.15
Si -2.85 -8.31  5.19
Si  8.19  3.20  5.19
Si -0.78  9.49  3.72
Si  9.91  2.56 -0.23
Si -4.66  4.91  7.68
Si  2.07  2.37  9.76
Si -0.78  6.49  7.93
Si  7.38 -6.50 -2.98
Si  3.10 -8.31  5.19
Si -0.62  2.25 -10.02
Si  8.16  6.19  0.97
Si  1.88 -8.09 -6.06
Si -7.42  6.61 -2.72
Si  1.08 -10.21 -0.96
Si -2.85  6.98  7.06
Si  2.46  4.71 -8.87
Si -2.07  4.38  9.15
Si -0.21 -7.68 -6.93
Si  2.15 -6.60  7.68
Si -8.83 -5.33  0.97
Si  8.62 -2.56  5.19
Si  3.10  6.98  7.06
Si -5.05 -6.99  5.87
Si -0.62 10.38 -0.85
Si -5.32  6.75 -5.99
Si -10.02  0.04  3.11
Si  6.62  0.21 -8.14
Si  1.81  8.96  5.19
Si  8.26 -5.71  3.11
Si -7.51 -6.20  3.97
Si  9.02 -5.33  0.97
Si -9.23  4.60 -2.11
Si -9.58  1.38 -4.19
Si -3.84 -0.06  9.82
Si -4.49 -9.49  1.24
Si -9.60 -3.28  2.99
Si -7.02  3.83 -6.93
Si -4.84 -8.55 -3.94
Si  8.70 -4.37 -4.19
Si -1.58 -7.86  6.95
Si -0.19 -3.51 -10.02
Si  4.98 -8.06 -4.80
Si  2.50 -3.39  9.76
Si -2.26  9.21 -4.80
Si -3.49  4.71 -8.87
Si  7.44 -4.76 -5.99
Si -8.37  5.31  3.97
Si  9.91 -0.44  3.97
Si -6.69 -8.16  1.92
Si -10.03  2.48  2.99
Si -3.88  2.37  9.76
Si -7.96 -2.10  6.95
Si  6.46 -7.78  3.72
Si  2.23 10.36 -2.11
Si -3.80 -6.60  7.68
Si 10.34 -3.20 -0.23
Si  5.95  6.95  5.80
Si -5.95  6.95  5.80
Si -10.01  4.14  0.02
Si 10.69  0.02  1.85
Si  1.62 -1.50 -10.63
Si  3.88  4.38  9.15
Si -4.50  9.89  0.02
Si -5.54 -2.98  8.88
Si -3.45 -3.39  9.76
Si  7.67 -0.84  7.68
Si -9.23 -2.56  5.19
Si -4.07 -8.09 -6.06
Si -8.64 -0.33 -6.67
Si -7.35  1.78 -7.89
Si -7.80  5.88 -4.92
Si -0.37 -0.92 10.90
Si -9.15 -4.37 -4.19
Si -4.84 -5.55 -8.14
Si 10.29  3.35  1.92
Si -0.18 -10.67 -2.72
Si  0.59  9.18 -6.06
Si  3.69  9.21 -4.80
Si -8.37  1.22  7.06
Si  5.92  2.78  8.88
Si -5.97  2.78  8.88
Si -8.37 -6.92 -2.11
Si -1.83  7.54 -7.89
Si -5.87 -5.03  7.93
Si -0.81 -9.91  4.93
Si -4.14  8.96  5.19
Si  6.03 -5.03  7.93
Si 10.72 -2.41  1.92
Si  5.76  8.72 -3.94
Si  6.58  6.75 -5.99
Si  0.14 10.77 -2.98
Si -3.72 10.36 -2.11
Si -6.92 -3.97 -7.89
Si 10.86  0.85 -2.72
Si -0.78  2.40 11.02
Si -2.77 -10.13 -4.19
Si  5.37 -0.18 -9.95
Si  6.36 -2.98  8.88
Si -10.90 -0.75 -2.98
Si -4.87 -10.21 -0.96
Si  4.37 -7.86  6.95
Si -6.14  8.72 -3.94
Si  9.21 -0.33 -6.67
Si -2.45 -11.09  0.97
Si  7.84  7.14 -4.19
Si  8.70 -7.38  0.02
Si  6.85 -6.99  5.87
Si  3.18 -10.13 -4.19
Si -7.08 -8.95 -0.23
Si -9.66  3.20  5.19
Si  5.17  9.49  3.72
Si -1.01  5.58 -9.95
Si  7.38  8.24  2.99
Si 10.23  1.61  4.93
Si  5.17  6.49  7.93
Si  1.68  5.70  9.82
Si -2.63 -6.80 -8.87
Si -8.39  3.66  6.95
Si  1.19  4.25 -10.63
Si -0.35 -3.36 11.02
Si -2.71  2.66 -10.89
Si -9.69  6.19  0.97
Si -11.30  2.02  1.24
Si -2.28 -3.10 -10.89
Si -7.94 -4.54  7.06
Si -10.87 -3.73  1.24
Si  9.48  5.31  3.97
Si  5.33  2.25 -10.02
Si -4.33 -1.50 -10.63
Si 10.48  0.13 -4.92
Si -9.58 -5.71  3.11
Si -0.15 -5.94 -9.95
Si -5.71  5.96 -8.14
Si  8.22  7.93 -2.04
Si  7.24  4.91  7.68
Si -0.35 -11.50  1.85
Si -6.92 -8.06 -4.80
Si  3.32 -6.80 -8.87
Si -1.21 -7.14  9.15
Si  3.50 -11.09  0.97
Si  4.12  7.54 -7.89
Si  3.23  2.66 -10.89
Si 10.07  3.45 -4.80
Si  2.54 -5.81  9.82
Si  5.33 10.38 -0.85
Si -11.66 -1.13 -0.85
Si -9.15 -7.38  0.02
Si  7.05 -8.55 -3.94
Si 10.50 -2.31 -4.80
Si -11.68  1.30 -0.96
Si -8.37  8.32 -0.23
Si  5.74 -7.68 -6.93
Si  6.20  5.96 -8.14
Si -0.39 10.28  5.87
Si -2.07 11.53  1.85
Si  9.47  1.22  7.06
Si  3.67 -3.10 -10.89
Si -6.53 -0.18 -9.95
Si  1.29 -10.32  5.80
Si 10.26  5.77  1.85
Si -3.41 -5.81  9.82
Si  9.47 -6.92 -2.11
Si -2.58  0.33 11.63
Si -1.50  9.59 -6.93
Si -0.80  4.83 10.90
Si -7.59 -1.38  9.15
Si -8.05  7.36  4.93
Si  1.02 11.56  3.11
Si -6.16 -7.68 -6.93
Si -2.87  9.41  6.95
Si  2.05  8.03 -8.76
Si  5.76 -3.51 -10.02
Si  3.08  9.41  6.95
Si  7.41 -9.49  1.24
Si -2.85 11.07  3.97
Si  1.29  1.91 11.88
Si  1.78 11.94  0.97
Si  3.37  0.33 11.63
Si  7.06 -5.55 -8.14
Si -11.24 -4.45 -0.96
Si -4.27  5.70  9.82
Si  3.10 11.07  3.97
Si -0.97 -0.97 -12.10
Si -6.57  2.25 -10.02
Si  2.75 -11.47  3.11
Si -8.21 -6.08 -6.67
Si  5.14 -9.91  4.93
Si  2.91  0.61 -11.85
Si -6.73  9.49  3.72
Si -11.22 -2.80 -3.94
Si 12.14 -1.13 -0.85
Si 12.12  1.30 -0.96
Si -5.36  9.18 -6.06
Si -3.04  0.61 -11.85
Si  1.92 -10.52 -5.99
Si -6.73  6.49  7.93
Si -7.99  9.11  1.92
Si -6.14 -3.51 -10.02
Si  9.89 -2.10  6.95
Si  5.58 -0.92 10.90
Si  9.46  3.66  6.95
Si  8.78  5.43 -6.67
Si -10.45 -2.34 -6.06
Si  3.88 11.53  1.85
Si -3.20 -11.47  3.11
Si -6.57 10.38 -0.85
Si -0.46  8.54  8.88
Si -10.45  5.80  3.11
Si  7.40  9.89  0.02
Si  8.43  2.27 -8.76
Si -4.76  4.25 -10.63
Si  5.17  2.40 11.02
Si -0.56 -11.39 -4.92
Si -10.84  1.00 -5.99
Si  5.77 -10.67 -2.72
Si  4.94  5.58 -9.95
Si  7.03 -10.21 -0.96
Si 10.66 -4.15  4.93
Si  0.84 -8.73  8.88
Si -9.07  5.43 -6.67
Si -3.90  8.03 -8.76
Si  4.74 -7.14  9.15
Si -0.54 -9.73 -7.89
Si -11.82 -2.02  3.72
Si  8.84 -1.05 -8.87
Si -1.56 -10.29  7.06
Si -5.81 10.77 -2.98
Si -6.13 -10.67 -2.72
Si 11.29 -4.91 -2.72
Si  1.72 -3.85 11.88
Si  9.48  8.32 -0.23
Si 11.71  4.63 -0.85
Si -6.32 -0.92 10.90
Si 10.42  6.61 -2.72
Si -9.63  7.93 -2.04
Si 10.05  5.88 -4.92
Si  4.45  9.59 -6.93
Si 11.12 -5.74  1.85
Si -1.13 -11.96  3.97
Si -11.65  2.96 -3.94
Si -10.47 -6.50 -2.98
