500
set: 1619.00  0.00  0.00
Si -1.06 -1.42  0.72
Si -1.72  0.66 -0.54
Si  0.40 -0.16 -2.01
Si  0.52  2.18 -1.06
Si -0.50  0.05  2.46
Si  1.90  0.92  1.81
Si  1.76 -1.96 -1.06
Si  2.70 -1.06  0.86
Si -2.24 -1.17 -2.25
Si  1.46  3.08  0.86
Si -0.48 -3.48 -0.54
Si -1.88  1.31 -2.80
Si -2.30  2.72  0.72
Si -3.56 -1.06  0.86
Si -0.86 -2.43  3.01
Si  1.78 -1.42  3.26
Si -0.64 -2.83 -2.80
Si -2.10  1.71  3.01
Si  0.52  2.18 -3.45
Si  0.54  2.72  3.26
Si  1.75 -1.96 -3.45
Si -0.84  3.98 -2.01
Si  1.32  0.20 -4.40
Si  4.55  0.66 -0.54
Si  2.78  2.96 -2.25
Si  1.90  0.92  4.21
Si  4.02 -1.17 -2.25
Si -0.34 -0.60  4.72
Si -4.37  0.92  1.81
Si  0.74 -4.08  2.46
Si -3.13 -3.22  1.81
Si  3.13 -3.22  1.81
Si  3.97  2.72  0.72
Si  1.64 -4.30 -2.01
Si -4.50 -1.96 -1.06
Si -3.48  2.96 -2.25
Si -2.44 -0.16 -4.54
Si -1.74  4.19  2.46
Si  4.38  1.31 -2.80
Si  4.16  1.71  3.01
Si  0.66  5.06  1.81
Si  5.20 -1.42  0.72
Si  0.18 -5.56  0.72
Si -2.95  4.80 -0.54
Si -4.49 -1.42  3.26
Si -2.33 -5.20  0.86
Si -4.80  3.08  0.86
Si  3.31  4.80 -0.54
Si -1.01 -5.31 -2.25
Si  3.82 -0.16 -4.54
Si -4.51 -1.96 -3.45
Si -1.57  3.54  4.72
Si -4.36  0.92  4.21
Si -3.12 -3.22  4.21
Si  3.14 -3.22  4.21
Si  0.08  4.34 -4.40
Si -5.87 -0.16 -2.01
Si -0.92  1.47  5.98
Si -5.74  2.18 -1.06
Si  5.76  0.05  2.46
Si -1.20 -4.30 -4.54
Si  0.38 -0.70 -6.32
Si  2.56 -3.94 -4.40
Si -0.71  6.32 -1.06
Si -1.86 -2.22 -5.81
Si  0.32 -2.67  5.98
Si  2.59  3.98 -4.54
Si  3.93 -5.20  0.86
Si  0.67  5.06  4.21
Si -4.95  0.20 -4.40
Si -4.63 -4.30 -2.01
Si  5.40 -2.43  3.01
Si  4.53  4.19  2.46
Si  0.90 -4.74  4.72
Si  5.79 -3.48 -0.54
Si -3.09  1.92 -5.81
Si -3.12  5.45 -2.80
Si  3.00 -6.10 -1.06
Si  3.17  1.92 -5.81
Si  5.62 -2.83 -2.80
Si  3.15  5.45 -2.80
Si -2.19 -2.32  6.12
Si  6.66 -0.16 -2.01
Si -3.71 -3.94 -4.40
Si  2.84  1.82  6.12
Si -3.27 -6.10 -1.06
Si  5.42  3.98 -2.01
Si -5.75  2.18 -3.45
Si -3.67  3.98 -4.54
Si  3.01 -5.56  3.26
Si -5.72  2.72  3.26
Si -6.76  0.05  2.46
Si  2.93  5.85  3.01
Si  6.79  2.18 -1.06
Si -3.25 -5.56  3.26
Si -0.72  6.32 -3.45
Si  0.37 -6.57  3.01
Si -0.85  3.44 -6.32
Si -3.42  1.82  6.12
Si  0.23  7.22  0.86
Si -5.53 -4.08  2.46
Si -3.34  5.85  3.01
Si -0.98  1.09 -7.27
Si  2.73  6.86  0.72
Si -7.32 -1.42  0.72
Si  0.59 -6.97 -2.80
Si  4.69  3.54  4.72
Si  5.93 -0.60  4.72
Si -6.74 -3.48 -0.54
Si  1.55  7.10 -2.25
Si  2.99 -6.10 -3.45
Si  4.41 -2.22 -5.81
Si -0.69  6.86  3.26
Si  0.76 -7.62 -0.54
Si -2.99 -0.34  7.08
Si  4.08 -2.32  6.12
Si -3.27 -6.10 -3.45
Si -3.53  6.86  0.72
Si -5.60  5.06  1.81
Si  3.28 -0.34  7.08
Si  5.26 -5.31 -2.25
Si -1.89 -7.36  1.81
Si  0.88 -1.20  7.72
Si  0.26 -3.05 -7.27
Si  6.78  2.18 -3.45
Si  2.64  0.08 -7.51
Si -6.91 -2.83 -2.80
Si  6.80  2.72  3.26
Si -7.98  0.66 -0.54
Si  5.06 -4.30 -4.54
Si -7.13 -2.43  3.01
Si  1.62 -4.84 -6.32
Si -6.60 -0.60  4.72
Si  5.35  1.47  5.98
Si -0.36  2.94  7.72
Si -6.09 -5.56  0.72
Si  2.04  3.80  7.08
Si -0.72  0.45  8.27
Si  8.02 -1.96 -1.06
Si -3.62  0.08 -7.51
Si  7.72  3.08  0.86
Si -7.10  3.98 -2.01
Si  8.16  0.92  1.81
Si -2.02 -1.57 -8.06
Si  7.00 -4.08  2.46
Si -2.15  5.60  5.98
Si  5.55  6.32 -1.06
Si  6.44 -5.56  0.72
Si -1.75 -4.47  7.08
Si -5.36 -4.74  4.72
Si  1.93  6.06 -5.81
Si -2.08  8.11 -2.01
Si -0.62 -6.36 -5.81
Si -5.60  5.06  4.21
Si -5.88 -0.70 -6.32
Si -1.89 -7.36  4.21
Si  1.60  5.96  6.12
Si -8.14  1.31 -2.80
Si  1.40  4.22 -7.51
Si -6.18  4.34 -4.40
Si  0.38 -0.70 -8.71
Si  4.37 -7.36  1.81
Si  6.92  5.06  1.81
Si  7.58  0.20 -4.40
Si  8.04 -1.42  3.26
Si  1.97 -8.22  2.46
Si -4.72  7.10 -2.25
Si -5.94 -2.67  5.98
Si  1.92  1.46  8.52
Si  6.34  4.34 -4.40
Si -2.39 -4.05 -7.51
Si -8.51 -1.17 -2.25
Si  8.02 -1.96 -3.45
Si -0.95 -6.46  6.12
Si  3.00  2.57 -8.06
Si  5.41  3.44 -6.32
Si -8.56  2.72  0.72
Si  5.28  1.09 -7.27
Si -8.36  1.71  3.01
Si  8.96 -1.06  0.86
Si -3.26  2.57 -8.06
Si  0.52 -3.69  8.27
Si -4.22  3.80  7.08
Si  5.54  6.32 -3.45
Si  2.87 -8.44 -2.01
Si  4.11  5.60  5.98
Si -2.97  8.33  2.46
Si  2.08  8.94 -0.54
Si  6.64 -0.70 -6.32
Si  1.56 -6.81  5.98
Si  7.90 -4.30 -2.01
Si -4.64 -4.84 -6.32
Si -2.22  5.23 -7.27
Si  8.17  0.92  4.21
Si  4.24 -1.57 -8.06
Si -7.27 -5.31 -2.25
Si  6.58 -2.67  5.98
Si  3.29  8.33  2.46
Si -3.39 -8.44 -2.01
Si -5.89 -6.57  3.01
Si  4.19  8.11 -2.01
Si -8.00  4.19  2.46
Si  3.88 -4.05 -7.51
Si -0.58  9.20  1.81
Si  1.35  8.12 -4.54
Si -0.86  3.44 -8.71
Si -5.67 -6.97 -2.80
Si  5.57  6.86  3.26
Si -5.50 -7.62 -0.54
Si -2.81  7.68  4.72
Si -4.33  6.06 -5.81
Si -1.09 -9.34  0.86
Si -6.04  7.22  0.86
Si -3.11 -2.68  8.52
Si -7.18  1.47  5.98
Si -6.97  6.32 -1.06
Si  3.16 -2.68  8.52
Si -5.38 -1.20  7.72
Si  4.51 -4.47  7.08
Si -2.47 -8.08 -4.40
Si  4.38 -7.36  4.21
Si  6.93  5.06  4.21
Si  0.03 -8.44 -4.54
Si -4.29 -8.22  2.46
Si -1.16  8.47 -4.40
Si  2.12 -5.34  7.72
Si  3.46  7.68  4.72
Si -1.96  4.59  8.27
Si -4.34  1.46  8.52
Si  0.23 -9.45 -2.25
Si -4.66  5.96  6.12
Si -7.46 -4.30 -4.54
Si  6.49  7.22  0.86
Si -0.06  1.45 -9.66
Si  9.05  2.96 -2.25
Si  7.16 -4.74  4.72
Si -7.83  3.54  4.72
Si  6.64 -6.57  3.01
Si -8.70 -0.16 -4.54
Si  1.41 -9.70  0.72
Si  4.05  5.23 -7.27
Si -4.19  8.94 -0.54
Si -4.86  4.22 -7.51
Si -6.01 -3.05 -7.27
Si -0.79 -5.71 -8.06
Si -9.83 -1.06  0.86
Si -2.98 -0.34  9.47
Si  3.79 -8.08 -4.40
Si  5.54  0.45  8.27
Si  3.28 -0.34  9.47
Si -6.98  6.32 -3.45
Si -8.59 -5.20  0.86
Si -2.09  7.58 -6.32
Si -9.39 -3.22  1.81
Si  1.61 -4.84 -8.71
Si  1.18 -2.69 -9.66
Si  9.40 -3.22  1.81
Si -7.12  3.44 -6.32
Si -0.57  9.20  4.21
Si  5.91  2.94  7.72
Si  2.44  1.10 -9.80
Si  6.86 -6.97 -2.80
Si  1.91  9.59 -2.80
Si  1.04 -1.85  9.98
Si -4.71 -6.81  5.98
Si  0.68  5.60  8.52
Si  6.52 -3.05 -7.27
Si -8.12 -2.22 -5.81
Si -0.19  2.28  9.98
Si -4.15 -5.34  7.72
Si  2.14 -8.88  4.72
Si  5.64 -6.36 -5.81
Si -6.96  6.86  3.26
Si -7.24  1.09 -7.27
Si  1.49 -7.18 -7.27
Si  5.31 -6.46  6.12
Si  7.02 -7.62 -0.54
Si  4.30  4.59  8.27
Si -9.21  4.80 -0.54
Si  2.05  3.80  9.47
Si -2.01 -9.70  3.26
Si -9.74  2.96 -2.25
Si -2.03 -10.24 -1.06
Si -4.91  8.12 -4.54
Si -5.89 -0.70 -8.71
Si  1.69  9.99  3.01
Si -3.82  1.10 -9.80
Si -2.58 -3.04 -9.80
Si -6.62  2.94  7.72
Si  7.14 -1.20  7.72
Si 10.28 -1.17 -2.25
Si -1.59  7.07  7.72
Si 10.23  2.72  0.72
Si  8.82 -3.94 -4.40
Si -1.74 -4.47  9.47
Si  1.77  6.71 -8.06
Si  0.80  7.94  7.08
Si -8.45 -2.32  6.12
Si -1.95 10.46 -1.06
Si  5.17 -9.34  0.86
Si  4.17  7.58 -6.32
Si  8.85  3.98 -4.54
Si  9.57  4.80 -0.54
Si -5.75 -3.69  8.27
Si -9.39 -3.22  4.21
Si  9.40 -3.22  4.21
Si  7.81  7.10 -2.25
Si  5.40  3.44 -8.71
Si -10.63  0.92  1.81
Si  5.11  8.47 -4.40
Si -6.98  0.45  8.27
Si 10.81  0.66 -0.54
Si -4.85 -9.70  0.72
Si -4.13 -8.88  4.72
Si -4.35  9.59 -2.80
Si  3.68 -3.04 -9.80
Si  5.69  9.20  1.81
Si  6.64 -0.70 -8.71
Si 10.43  1.71  3.01
Si -2.04 -10.24 -3.45
Si -10.77 -1.96 -1.06
Si -4.65 -4.84 -8.71
Si -6.88 -6.36 -5.81
Si -4.22  3.80  9.47
Si 10.09 -0.16 -4.54
Si -1.87 -6.82  8.52
Si  4.25 -9.70  3.26
Si 10.65  1.31 -2.80
Si  9.10  1.82  6.12
Si  1.49 11.00  0.72
Si  4.23 -10.24 -1.06
Si -8.16 -7.36  1.81
Si  9.26 -6.10 -1.06
Si -0.51 -8.61  7.08
Si -1.15 -8.19 -7.51
Si -9.36  1.92 -5.81
Si  1.21  5.24 -9.80
Si -1.96 10.46 -3.45
Si  7.88 -4.84 -6.32
Si -9.38  5.45 -2.80
Si  9.41  5.45 -2.80
Si -1.30  5.59 -9.66
Si  1.61 -10.71  3.01
Si  9.43  1.92 -5.81
Si  0.17  8.36 -7.51
Si -5.09 -2.69 -9.66
Si  0.46  0.21 11.25
Si -4.77 -7.18 -7.27
Si  9.28 -5.56  3.26
Si  5.48 -5.71 -8.06
Si  9.19  5.85  3.01
Si  6.78 -3.69  8.27
Si -10.75 -1.42  3.26
Si  8.99  6.86  0.72
Si  2.85 -8.98 -6.32
Si  4.31 10.46 -1.06
Si -9.53 -6.10 -1.06
Si -4.57  9.99  3.01
Si  4.52 -4.47  9.47
Si -4.50  6.71 -8.06
Si -5.22 -1.85  9.98
Si -6.23 -8.44 -4.54
Si -1.01 11.36  0.86
Si -6.03 -9.45 -2.25
Si -7.21 -6.46  6.12
Si -10.62  0.92  4.21
Si  6.30 -8.44 -4.54
Si  4.67  7.07  7.72
Si  0.31 11.24 -2.25
Si 10.20 -5.20  0.86
Si -10.77 -1.96 -3.45
Si -9.51 -5.56  3.26
Si -3.41 -8.98 -6.32
Si  3.03 -0.96 -11.07
Si -11.06  3.08  0.86
Si  1.75 -7.83  8.27
Si  7.67  4.22 -7.51
Si  8.30  3.80  7.08
Si -3.24 -0.96 -11.07
Si  6.20  1.45 -9.66
Si 11.47 -1.42  0.72
Si -2.04  0.56 11.39
Si -8.01 -4.47  7.08
Si -9.97 -3.94 -4.40
Si  1.83 -11.11 -2.80
Si  4.23 -10.24 -3.45
Si -9.69  1.82  6.12
Si -6.84  9.20  1.81
Si  9.25 -6.10 -3.45
Si  5.69  9.20  4.21
Si  7.87  5.96  6.12
Si -5.58  5.60  8.52
Si -9.94  3.98 -4.54
Si -1.93 11.00  3.26
Si -1.00  0.56 -11.58
Si -9.60  5.85  3.01
Si -6.32  1.45 -9.66
Si  8.90  0.08 -7.51
Si -9.25 -0.34  7.08
Si  1.79  3.17 -11.07
Si -0.66 -11.49  1.81
Si -8.29 -1.57 -8.06
Si  6.49 -9.45 -2.25
Si  8.20  6.06 -5.81
Si -2.10  7.58 -8.71
Si -8.42  5.60  5.98
Si  0.70 10.20 -5.81
Si -8.15 -7.36  4.21
Si  4.39 -6.82  8.52
Si -7.12  3.44 -8.71
Si  2.87  9.74  5.98
Si -8.34  8.11 -2.01
Si  0.37 10.10  6.12
Si  4.31 10.46 -3.45
Si -9.54 -6.10 -3.45
Si 10.79  4.19  2.46
Si  2.28 -5.99  9.98
Si -10.89 -4.30 -2.01
Si  9.54 -0.34  7.08
Si  8.24 -8.22  2.46
Si  6.07  2.28  9.98
Si  8.18  1.46  8.52
Si -7.36 -9.34  0.86
Si -3.39  9.74  5.98
Si  2.00 -11.76 -0.54
Si -1.43  6.42  9.98
Si -5.46  7.94  7.08
Si -0.81 -3.58 11.39
Si  7.82 -6.81  5.98
Si -9.80  6.86  0.72
Si -4.77 11.00  0.72
Si  0.61 -10.50 -5.81
Si  7.61  8.12 -4.54
Si  1.70 -3.93 11.25
Si -11.21  0.20 -4.40
Si -4.65 -10.71  3.01
Si  2.41 -6.82 -9.66
Si -0.77  4.35 11.25
Si -7.42  8.47 -4.40
Si -6.46  2.28  9.98
Si  0.24 -3.58 -11.58
Si -7.05 -5.71 -8.06
Si -8.65 -4.05 -7.51
Si  4.22  0.56 11.39
Si  2.81  9.37 -7.27
Si -6.83  9.20  4.21
Si -5.05  5.24 -9.80
Si  4.96  5.59 -9.66
Si -1.34 -7.18 -9.80
Si  8.34  8.94 -0.54
Si  5.11 -8.19 -7.51
Si 10.34 -2.32  6.12
Si  0.29 -10.60  6.12
Si -12.00  2.18 -1.06
Si -4.51 -7.83  8.27
Si -0.65 -11.49  4.21
Si  4.33 11.00  3.26
Si  4.17  7.58 -8.71
Si 12.03  0.05  2.46
Si -4.43 -11.11 -2.80
Si 11.66 -2.43  3.01
Si -12.13 -0.16 -2.01
Si -3.98 -5.99  9.98
Si -8.48  5.23 -7.27
Si  6.95  5.60  8.52
Si 10.67 -2.22 -5.81
Si -2.00 -5.10 -11.07
Si -3.45  9.37 -7.27
Si -4.47  3.17 -11.07
Si  0.81  7.94  9.47
Si  7.68 -9.70  0.72
Si  3.07  8.73  8.27
Si -9.89  0.08 -7.51
Si -3.85 -6.82 -9.66
Si 10.95  3.54  4.72
Si -3.19  8.73  8.27
Si  7.44 -2.69 -9.66
Si  7.31 -1.85  9.98
Si 11.69  3.98 -2.01
Si -4.27 -11.76 -0.54
Si -8.22  4.59  8.27
Si 11.88 -2.83 -2.80
Si  5.25 11.36  0.86
Si  5.75 -8.61  7.08
Si -1.61 -1.59 12.34
Si  9.27  2.57 -8.06
Si 12.05 -3.48 -0.54
Si -2.91 -9.48  7.72
Si  8.38 -5.34  7.72
Si  9.13 -8.44 -2.01
Si -5.80  0.21 11.25
Si  2.98  4.70 11.39
Si  3.35 -9.48  7.72
Si -9.24  8.33  2.46
Si -12.01  2.18 -3.45
Si -8.73 -8.08 -4.40
Si -2.23  4.69 -11.58
Si  7.87 -4.84 -8.71
Si -1.12 -1.79 -12.53
Si -11.98  2.72  3.26
