500
set: 1592.00  0.00  0.00
Si -0.70 -1.02  1.32
Si  1.59 -0.90  0.21
Si -0.63  1.58  1.31
Si  1.66  1.54  0.20
Si  1.01 -0.98 -2.15
Si  0.95  1.52 -2.15
Si -1.24 -2.19 -1.50
Si -2.85 -0.90  0.21
Si -2.78  1.54  0.20
Si -1.22  0.44 -3.06
Si  1.80  0.45  2.77
Si -1.35  2.89 -1.50
Si -0.52 -3.49  1.31
Si -0.41 -0.96  3.68
Si -2.64  0.45  2.77
Si  1.77 -3.54  0.20
Si -0.47  1.54  3.68
Si  3.74 -1.02  1.32
Si  3.20 -2.19 -1.50
Si -3.43 -0.98 -2.15
Si  1.06 -3.55 -2.15
Si  3.81  1.58  1.31
Si -0.81  4.05  1.32
Si -3.49  1.52 -2.15
Si  1.48  4.17  0.21
Si -2.67 -3.54  0.20
Si  3.22  0.44 -3.06
Si  3.09  2.89 -1.50
Si  0.72 -1.03 -4.51
Si  0.90  4.10 -2.15
Si  0.80  1.57 -4.52
Si -0.36 -3.54  3.68
Si -2.96  4.17  0.21
Si  1.78 -2.17  4.33
Si -3.37 -3.55 -2.15
Si -5.14 -1.02  1.32
Si  3.92 -3.49  1.31
Si -5.07  1.58  1.31
Si  1.67  2.90  4.33
Si -2.66 -2.17  4.33
Si  4.03 -0.96  3.68
Si -0.52  4.11  3.68
Si  3.62  4.05  1.32
Si  3.97  1.54  3.68
Si -1.10 -4.64 -3.06
Si  1.91 -4.63  2.77
Si  0.91 -3.51 -4.52
Si -3.54  4.10 -2.15
Si -1.43 -0.92 -5.62
Si -2.77  2.90  4.33
Si -3.72 -1.03 -4.51
Si  5.45 -0.98 -2.15
Si -2.53 -4.63  2.77
Si -1.36  1.52 -5.63
Si  5.39  1.52 -2.15
Si -3.64  1.57 -4.52
Si  0.61  4.04 -4.51
Si  6.03 -0.90  0.21
Si  0.16 -0.89  6.04
Si -4.85 -0.96  3.68
Si -4.96 -3.49  1.31
Si  1.70 -5.98  0.21
Si  0.23  1.55  6.03
Si -0.59 -6.10  1.32
Si -5.68 -2.19 -1.50
Si  6.09  1.54  0.20
Si -4.91  1.54  3.68
Si  1.69  5.53  2.77
Si  3.01 -0.92 -5.62
Si -1.33  5.51 -3.06
Si -5.66  0.44 -3.06
Si  3.33 -4.64 -3.06
Si  1.12 -6.05 -2.15
Si  4.08 -3.54  3.68
Si -2.74 -5.98  0.21
Si  3.08  1.52 -5.63
Si -5.79  2.89 -1.50
Si -3.53 -3.51 -4.52
Si -2.75  5.53  2.77
Si  3.92  4.11  3.68
Si -5.25  4.05  1.32
Si -1.25 -3.55 -5.63
Si  1.54  6.61  0.20
Si -0.74  6.66  1.31
Si  6.24  0.45  2.77
Si  5.50 -3.55 -2.15
Si  5.16 -1.03 -4.51
Si  0.84  6.60 -2.15
Si  0.34 -3.53  6.03
Si -4.80 -3.54  3.68
Si  3.11  5.51 -3.06
Si  5.34  4.10 -2.15
Si -0.30 -6.04  3.68
Si  5.24  1.57 -4.52
Si  6.21 -3.54  0.20
Si -1.54  4.16 -5.62
Si -3.83  4.04 -4.51
Si -2.90  6.61  0.20
Si -3.32 -6.05 -2.15
Si  5.92  4.17  0.21
Si  3.85 -6.10  1.32
Si  0.05  4.19  6.04
Si -7.29 -0.90  0.21
Si  3.19 -3.55 -5.63
Si -7.22  1.54  0.20
Si -4.96  4.11  3.68
Si -4.28 -0.89  6.04
Si -1.13 -7.26 -1.50
Si -4.21  1.55  6.03
Si -2.12 -1.01  7.15
Si  2.90  4.16 -5.62
Si  2.31 -1.01  7.15
Si -0.58  6.61  3.68
Si -2.05  1.59  7.14
Si -7.08  0.45  2.77
Si  0.83 -6.11 -4.51
Si  4.60 -0.89  6.04
Si  0.18 -2.20 -7.33
Si  2.39  1.59  7.14
Si  3.70  6.66  1.31
Si  4.67  1.55  6.03
Si -3.60  6.60 -2.15
Si  5.35 -3.51 -4.52
Si -5.54 -4.64 -3.06
Si  0.07  2.88 -7.33
Si  6.22 -2.17  4.33
Si  5.05  4.04 -4.51
Si -7.11 -3.54  0.20
Si -5.03 -6.10  1.32
Si  6.10  2.90  4.33
Si  0.68  6.64 -4.52
Si  7.64 -2.19 -1.50
Si -4.09 -3.53  6.03
Si  3.31 -7.26 -1.50
Si -1.94 -3.48  7.14
Si -5.87 -0.92 -5.62
Si  4.14 -6.04  3.68
Si  7.53  2.89 -1.50
Si -7.87 -0.98 -2.15
Si -5.80  1.52 -5.63
Si -1.46  7.96 -1.50
Si  7.66  0.44 -3.06
Si -2.00 -0.99 -7.98
Si -1.32 -5.99 -5.62
Si  2.50 -3.48  7.14
Si  6.35 -4.63  2.77
Si  8.18 -1.02  1.32
Si -7.93  1.52 -2.15
Si -2.06  1.51 -7.98
Si  2.44 -0.99 -7.98
Si -3.61 -6.11 -4.51
Si  2.38  1.51 -7.98
Si  4.78 -3.53  6.03
Si  0.28 -5.96  6.04
Si  3.86  6.61  3.68
Si  5.56 -6.05 -2.15
Si -7.40  4.17  0.21
Si  8.25  1.58  1.31
Si -4.74 -6.04  3.68
Si  2.20  4.07  7.15
Si -2.24  4.07  7.15
Si -5.18  6.66  1.31
Si -5.77  5.51 -3.06
Si -4.39  4.19  6.04
Si  6.14 -5.98  0.21
Si -7.10 -2.17  4.33
Si  4.49  4.19  6.04
Si  0.38  0.46  8.60
Si  2.98  7.96 -1.50
Si  1.89 -7.25  4.33
Si -0.40 -8.57  1.31
Si  6.13  5.53  2.77
Si  5.28  6.60 -2.15
Si -4.26 -2.20 -7.33
Si -5.69 -3.55 -5.63
Si  3.12 -5.99 -5.62
Si -1.47  6.60 -5.63
Si -6.97 -4.63  2.77
Si  1.88 -8.62  0.20
Si -2.55 -7.25  4.33
Si -7.81 -3.55 -2.15
Si -3.76  6.64 -4.52
Si -7.21  2.90  4.33
Si  0.21  0.42 -8.89
Si  5.98  6.61  0.20
Si  4.62 -2.20 -7.33
Si -1.95 -3.56 -7.98
Si  0.12  6.62  6.03
Si  1.18 -8.63 -2.15
Si -2.56 -8.62  0.20
Si -4.37  2.88 -7.33
Si  4.51  2.88 -7.33
Si -5.02  6.61  3.68
Si  2.49 -3.56 -7.98
Si  8.06  4.05  1.32
Si  8.36 -3.49  1.31
Si  2.97  6.60 -5.63
Si -5.98  4.16 -5.62
Si  1.55  7.97  4.33
Si -2.12  4.08 -7.98
Si -7.98  4.10 -2.15
Si  5.27 -6.11 -4.51
Si  2.32  4.08 -7.98
Si -0.93  9.13  1.32
Si -5.57 -7.26 -1.50
Si  8.47 -0.96  3.68
Si  8.41  1.54  3.68
Si -7.18 -5.98  0.21
Si  1.36  9.25  0.21
Si -0.25 -8.61  3.68
Si  7.45 -0.92 -5.62
Si -8.16 -1.03 -4.51
Si -8.08  1.57 -4.52
Si -4.16 -5.96  6.04
Si  0.79  9.17 -2.15
Si -3.26 -8.63 -2.15
Si -7.19  5.53  2.77
Si  7.52  1.52 -5.63
Si -4.06  0.46  8.60
Si -2.89  7.97  4.33
Si  5.12  6.64 -4.52
Si  7.77 -4.64 -3.06
Si  4.04 -8.57  1.31
Si -2.01 -6.08  7.15
Si  2.43 -6.08  7.15
Si  4.72 -5.96  6.04
Si -9.51  1.58  1.31
Si -9.58 -1.02  1.32
Si -1.83 -0.95  9.51
Si -3.08  9.25  0.21
Si  1.02 -8.58 -4.52
Si -6.57 -1.01  7.15
Si  0.49 -4.61  8.60
Si -6.49  1.59  7.14
Si -7.97 -3.51 -4.52
Si -1.89  1.55  9.51
Si  7.55  5.51 -3.06
Si -4.23  0.42 -8.89
Si  4.82  0.46  8.60
Si  3.51  9.13  1.32
Si -7.33  6.61  0.20
Si  6.75 -1.01  7.15
Si  2.60 -0.95  9.51
Si -0.64  9.19  3.68
Si -4.84 -8.57  1.31
Si  8.52 -3.54  3.68
Si -4.32  6.62  6.03
Si  2.55  1.55  9.51
Si -2.16  6.67  7.14
Si  6.83  1.59  7.14
Si  8.36  4.11  3.68
Si -5.90  7.96 -1.50
Si  2.28  6.67  7.14
Si -5.76 -5.99 -5.62
Si -9.29 -0.96  3.68
Si  0.32 -4.65 -8.89
Si  4.65  0.42 -8.89
Si  4.56  6.62  6.03
Si -7.75 -6.05 -2.15
Si -3.65  9.17 -2.15
Si -9.39 -3.49  1.31
Si  7.63 -3.55 -5.63
Si  7.34  4.16 -5.62
Si -9.35  1.54  3.68
Si  9.89 -0.98 -2.15
Si  9.83  1.52 -2.15
Si  0.50  9.12 -4.51
Si -6.38 -3.48  7.14
Si -1.89 -6.07 -7.98
Si  0.26  5.54  8.60
Si -0.99 -9.71 -3.06
Si -8.27  4.04 -4.51
Si  4.19 -8.61  3.68
Si -3.42 -8.58 -4.52
Si  2.02 -9.70  2.77
Si -1.78 -3.53  9.51
Si -6.44 -0.99 -7.98
Si  0.30 -7.28 -7.33
Si  2.55 -6.07 -7.98
Si -1.14 -8.63 -5.63
Si -2.42 -9.70  2.77
Si  8.29 -6.10  1.32
Si  0.35 -2.16 10.16
Si -6.50  1.51 -7.98
Si  0.09  5.50 -8.89
Si -10.12 -2.19 -1.50
Si -4.68 -8.61  3.68
Si  2.66 -3.53  9.51
Si -5.91  6.60 -5.63
Si 10.47 -0.90  0.21
Si  0.46 -8.60  6.03
Si  5.62 -8.63 -2.15
Si -3.95 -4.61  8.60
Si -1.95  4.12  9.51
Si  6.94 -3.48  7.14
Si  6.33 -7.25  4.33
Si -9.24 -3.54  3.68
Si -10.10  0.44 -3.06
Si -2.17  6.59 -7.98
Si  0.24  2.91 10.16
Si  6.64  4.07  7.15
Si  6.87 -0.99 -7.98
Si  2.26  6.59 -7.98
Si -9.69  4.05  1.32
Si -6.68  4.07  7.15
Si  8.14  6.66  1.31
Si  6.82  1.51 -7.98
Si  3.80  9.19  3.68
Si  2.14 -1.05 -10.34
Si -8.04  6.60 -2.15
Si -8.71 -0.89  6.04
Si -2.29 -1.05 -10.34
Si 10.54  1.54  0.20
Si -8.65  1.55  6.03
Si  9.60 -1.03 -4.51
Si  2.49  4.12  9.51
Si -5.37  9.13  1.32
Si  6.32 -8.62  0.20
Si  2.22  1.56 -10.35
Si -2.22  1.56 -10.35
Si  7.75 -7.26 -1.50
Si -10.23  2.89 -1.50
Si  3.45 -9.71 -3.06
Si  5.23  9.17 -2.15
Si  9.94 -3.55 -2.15
Si  9.68  1.57 -4.52
Si -0.04  7.95 -7.33
Si  9.78  4.10 -2.15
Si  3.30 -8.63 -5.63
Si -6.39 -3.56 -7.98
Si -4.12 -4.65 -8.89
Si  5.99  7.97  4.33
Si -9.40  4.11  3.68
Si -3.94  9.12 -4.51
Si  9.04 -0.89  6.04
Si  5.80  9.25  0.21
Si  4.93 -4.61  8.60
Si -1.65  9.23 -5.62
Si -6.99 -7.25  4.33
Si  7.42  7.96 -1.50
Si -8.53 -3.53  6.03
Si  9.11  1.55  6.03
Si 10.68  0.45  2.77
Si -4.17  5.54  8.60
Si -0.06  9.26  6.04
Si -8.05 -6.11 -4.51
Si  1.57 10.60  2.77
Si -7.00 -8.62  0.20
Si -6.56  4.08 -7.98
Si  4.76 -4.65 -8.89
Si -1.44 10.59 -3.06
Si  8.58 -6.04  3.68
Si -5.08  9.19  3.68
Si -4.14 -7.28 -7.33
Si  5.46 -8.58 -4.52
Si -2.11 -3.52 -10.35
Si  6.93 -3.56 -7.98
Si -4.09 -2.16 10.16
Si 10.35  4.17  0.21
Si  2.79  9.23 -5.62
Si  7.56 -5.99 -5.62
Si  2.33 -3.52 -10.35
Si  1.81 -11.05  0.21
Si 10.65 -3.54  0.20
Si  6.76  4.08 -7.98
Si  8.30  6.61  3.68
Si -3.98 -8.60  6.03
Si  9.49  4.04 -4.51
Si  4.70  5.54  8.60
Si -0.48 -11.17  1.32
Si  2.03  4.03 -10.34
Si -1.83 -8.56  7.14
Si  4.94  9.12 -4.51
Si -2.86 10.60  2.77
Si -4.34  5.50 -8.89
Si  9.79 -3.51 -4.52
Si -9.47 -6.10  1.32
Si -2.41  4.03 -10.34
Si  4.74 -7.28 -7.33
Si -2.63 -11.05  0.21
Si -4.20  2.91 10.16
Si -1.72 -6.03  9.51
Si -6.45 -6.08  7.15
Si  4.53  5.50 -8.89
Si  1.24 -11.13 -2.15
Si  7.41  6.60 -5.63
Si  3.00 10.59 -3.06
Si -9.98 -4.64 -3.06
Si -6.27 -0.95  9.51
Si  4.79 -2.16 10.16
Si  2.61 -8.56  7.14
Si -8.20  6.64 -4.52
Si -8.83  4.19  6.04
Si -0.01 -0.93 -11.45
Si -6.33  1.55  9.51
Si -5.43 -9.71 -3.06
Si  4.68  2.91 10.16
Si  0.06  1.51 -11.46
Si  8.93  4.19  6.04
Si  9.22 -3.53  6.03
Si  2.72 -6.03  9.51
Si -8.70 -2.20 -7.33
Si -9.18 -6.04  3.68
Si  4.90 -8.60  6.03
Si  6.87 -6.08  7.15
Si -7.33  7.97  4.33
Si  4.40  7.95 -7.33
Si -4.48  7.95 -7.33
Si 10.66 -2.17  4.33
Si -0.19 -11.12  3.68
Si -5.58 -8.63 -5.63
Si 10.54  2.90  4.33
Si -7.70 -8.63 -2.15
Si -11.66  1.54  0.20
Si -2.00  6.62  9.51
Si -11.73 -0.90  0.21
Si -9.62  6.66  1.31
Si  1.43 11.69  0.20
Si -10.31 -0.92 -5.62
Si -3.20 -11.13 -2.15
Si -10.24  1.52 -5.63
Si -6.60  6.67  7.14
Si  2.09  9.14  7.15
Si -8.81  2.88 -7.33
Si -0.85 11.73  1.31
Si -2.35  9.14  7.15
Si  2.44  6.62  9.51
Si  6.72  6.67  7.14
Si -11.52  0.45  2.77
Si -6.33 -6.07 -7.98
Si  9.06 -2.20 -7.33
Si  7.04 -0.95  9.51
Si 10.00 -6.05 -2.15
Si  4.38  9.26  6.04
Si  0.73 11.67 -2.15
Si -1.84 -8.64 -7.98
Si -6.22 -3.53  9.51
Si  6.99  1.55  9.51
Si -7.52  9.25  0.21
Si  8.95  2.88 -7.33
Si  3.96 -11.17  1.32
Si -4.50  9.26  6.04
Si  9.72  6.60 -2.15
Si -1.26 -0.88 11.87
Si  6.46 -9.70  2.77
Si -10.21  5.51 -3.06
Si  0.17 -3.56 -11.46
Si -1.19  1.56 11.86
Si  2.60 -8.64 -7.98
Si 10.79 -4.63  2.77
Si -3.01 11.69  0.20
Si -11.55 -3.54  0.20
Si -8.60 -5.96  6.04
Si  0.94 -11.19 -4.51
Si -8.50  0.46  8.60
Si -9.46  6.61  3.68
Si -10.13 -3.55 -5.63
Si  8.48 -8.57  1.31
Si 10.58 -5.98  0.21
Si -6.39  4.12  9.51
Si  7.95  9.13  1.32
Si -0.12  4.15 -11.45
Si -6.86 -9.70  2.77
Si -2.18 -6.12 -10.34
Si  6.99 -6.07 -7.98
Si  2.26 -6.12 -10.34
Si 10.57  5.53  2.77
Si -0.69 11.69  3.68
Si -6.61  6.59 -7.98
Si -4.92 -11.17  1.32
Si  6.58 -1.05 -10.34
Si  4.43 -0.93 -11.45
Si  3.18 -0.88 11.87
Si -4.45 -0.93 -11.45
Si  6.70  6.59 -7.98
Si  9.71 -6.11 -4.51
Si  3.59 11.73  1.31
Si 10.42  6.61  0.20
Si  2.21  9.16 -7.98
Si -2.23  9.16 -7.98
Si -4.38  1.51 -11.46
Si 12.08 -2.19 -1.50
Si  7.10 -3.53  9.51
Si -6.74 -1.05 -10.34
Si  3.25  1.56 11.86
Si 11.97  2.89 -1.50
Si  6.66  1.56 -10.35
Si -6.66  1.56 -10.35
Si  4.50  1.51 -11.46
Si -6.09  9.23 -5.62
Si -1.08 -3.51 11.86
Si -8.09  9.17 -2.15
Si -8.67  0.42 -8.89
Si -3.71 11.67 -2.15
Si -10.01 -7.26 -1.50
Si  4.25 -11.12  3.68
Si  6.93  4.12  9.51
Si -1.21 -11.06 -5.62
Si -1.01 -12.34 -1.50
Si  2.11  6.63 -10.35
