500
set: 880.00  0.00  0.00
Si -0.41  1.21 -0.80
Si  0.43 -1.19  0.84
Si -1.38 -1.18 -0.82
Si  1.38  1.19  0.80
Si  0.86  0.01 -2.48
Si -0.94 -0.02  2.49
Si -2.21  1.24  0.82
Si  2.25 -1.20 -0.82
Si -3.12 -1.19  0.85
Si  0.00  2.44  2.45
Si  3.13  1.20 -0.86
Si -0.01 -2.38 -2.52
Si -2.69  0.01 -2.48
Si  2.71 -0.00  2.50
Si -0.51 -3.58  0.86
Si  0.51  3.64 -0.84
Si  1.72 -2.39  2.47
Si -1.79  2.38 -2.47
Si  1.26 -3.59 -0.80
Si -1.29  3.60  0.78
Si -1.85 -2.44  2.50
Si  1.83  2.44 -2.54
Si -0.85  0.00 -4.14
Si  0.91  0.01  4.16
Si -4.02  1.22 -0.87
Si  4.04 -1.17  0.86
Si -2.29 -3.58 -0.84
Si  2.29  3.63  0.86
Si  0.03  2.34 -4.16
Si -0.03 -2.41  4.14
Si  3.07 -3.58  0.87
Si -3.10  3.60 -0.82
Si  2.66  0.01 -4.15
Si  3.53 -2.41 -2.50
Si  3.58  2.40  2.44
Si -2.71  0.03  4.16
Si -3.56  2.39  2.52
Si -3.60 -2.47 -2.53
Si -1.74  2.38  4.16
Si -4.91 -1.20 -0.82
Si  4.93  1.12  0.80
Si -4.48  0.02  2.50
Si  1.76 -2.41 -4.17
Si  4.48  0.02 -2.50
Si -1.82 -2.41 -4.16
Si  1.82  2.37  4.19
Si -0.81  4.75 -2.53
Si  0.79 -4.81  2.44
Si  0.94  4.78  2.50
Si -0.96 -4.78 -2.54
Si  4.06  3.63 -0.80
Si -4.08 -3.62  0.78
Si -3.51  2.42 -4.10
Si -5.78  1.12  0.80
Si  0.42 -1.23 -5.80
Si  3.54 -2.40  4.15
Si -0.42  1.19  5.83
Si -3.57 -2.37  4.16
Si  5.80 -1.20 -0.82
Si -2.58  4.78  2.52
Si  2.54 -4.82 -2.51
Si  3.64  2.38 -4.14
Si -2.79 -4.78  2.45
Si  4.82 -3.62 -0.82
Si  0.34 -6.02 -0.86
Si -0.33  6.03  0.85
Si  2.78  4.83 -2.52
Si -4.85  3.63  0.87
Si -1.36 -1.26  5.83
Si -4.46 -0.03 -4.20
Si  1.37  1.20 -5.85
Si  4.51 -0.01  4.16
Si -1.41 -6.02  0.80
Si  1.42  6.04 -0.82
Si -2.17  1.23 -5.83
Si  5.34  2.40 -2.51
Si  2.24 -1.22  5.84
Si  5.34 -2.43  2.52
Si -5.38  2.40 -2.51
Si -5.37 -2.43  2.52
Si  0.84 -4.83 -4.14
Si  0.98  4.80 -4.16
Si -0.78  4.84  4.16
Si -2.12  6.01 -0.82
Si -0.97 -4.84  4.19
Si  2.14 -6.09  0.80
Si -6.23  0.02 -2.50
Si  6.23  0.02  2.50
Si  3.16  1.20  5.82
Si -3.14 -1.23 -5.83
Si -6.68 -1.17  0.86
Si -3.21 -6.00 -0.80
Si  6.70  1.22 -0.87
Si -0.48 -3.59 -5.83
Si  2.55 -4.79  4.20
Si -2.59  4.80 -4.17
Si  3.22  6.02  0.84
Si  0.54  3.61  5.85
Si  2.77  4.80  4.14
Si  5.86  3.63  0.87
Si -5.89 -3.62 -0.82
Si -4.39  4.81 -2.50
Si -2.76 -4.87 -4.16
Si  4.36 -4.83  2.52
Si  1.26 -3.60  5.84
Si -1.31  3.64 -5.83
Si  4.51  4.83  2.47
Si -4.58 -4.83 -2.47
Si  3.94 -1.19 -5.79
Si -3.99  1.19  5.82
Si  5.33 -2.42 -4.17
Si  3.90 -6.00 -0.87
Si  5.34  2.42  4.20
Si -5.38 -2.42 -4.17
Si -2.25 -3.60  5.85
Si -3.88  6.04  0.86
Si -5.37  2.42  4.20
Si  2.31  3.62 -5.83
Si -3.06  3.58  5.79
Si -6.21 -0.01  4.16
Si  3.11 -3.62 -5.83
Si  6.25 -0.03 -4.20
Si  0.44 -1.17  7.45
Si -0.45  1.17 -7.49
Si  6.63 -3.62  0.78
Si -6.66  3.63 -0.80
Si  0.11  7.22 -2.48
Si -0.08 -7.22  2.50
Si  1.39  1.22  7.47
Si  4.41 -4.80 -4.10
Si -4.38  4.81  4.15
Si -7.58  1.20 -0.86
Si  7.59 -1.19  0.85
Si  4.94  1.21 -5.84
Si -1.40 -1.17 -7.54
Si -4.91 -1.19  5.89
Si  1.69 -7.19 -2.50
Si -4.53 -4.84  4.16
Si  4.56  4.81 -4.17
Si  1.86  7.19  2.49
Si -5.01 -5.97  0.82
Si -1.69  7.24  2.50
Si -1.94 -7.20 -2.48
Si -2.20  1.14  7.46
Si  5.04  6.02 -0.82
Si -7.13  2.40  2.44
Si  7.11 -2.47 -2.53
Si  2.19 -1.21 -7.55
Si  7.15  2.39  2.52
Si -7.18 -2.41 -2.50
Si -4.10 -3.58 -5.83
Si  4.06  3.62  5.84
Si  6.13 -4.83 -2.47
Si  3.12  1.22 -7.52
Si -6.20  4.83  2.47
Si -3.18 -1.22  7.52
Si -5.77  1.21 -5.84
Si  5.71 -5.97  0.82
Si -5.67  6.02 -0.82
Si -0.13 -7.21 -4.15
Si  0.46  3.58 -7.50
Si  6.33  4.81 -2.50
Si -0.54 -3.59  7.51
Si  5.80 -1.19  5.89
Si  0.09  7.24  4.16
Si  3.44 -7.19  2.50
Si -0.34  5.99 -5.83
Si -4.81  3.59 -5.83
Si -6.35 -4.83  2.52
Si  0.37 -6.01  5.82
Si -8.00 -0.00  2.50
Si  4.86 -3.64  5.79
Si -3.44  7.24 -2.50
Si  8.03  0.01 -2.48
Si  1.31 -3.61 -7.49
Si -1.29  3.61  7.51
Si  1.43  5.95  5.83
Si  7.61  3.60 -0.82
Si  3.65  7.23 -2.48
Si -0.55 -8.41 -0.82
Si -1.66  7.18 -4.20
Si -7.64 -3.58  0.87
Si -3.73 -7.24  2.49
Si -1.42 -6.02 -5.85
Si  0.58  8.46  0.82
Si  1.72 -7.23  4.16
Si  1.24 -8.38  0.86
Si -1.88 -7.20  4.16
Si  3.94 -1.21  7.48
Si -7.08  2.38 -4.14
Si  1.94  7.22 -4.14
Si -3.97  1.18 -7.47
Si -1.22  8.43 -0.87
Si -8.47 -1.20 -0.82
Si  7.14 -2.37  4.16
Si -7.17 -2.40  4.15
Si  8.50  1.24  0.82
Si  7.20  2.42 -4.10
Si  2.25  3.62  7.51
Si  2.15 -6.01 -5.84
Si -2.33 -3.63 -7.50
Si -2.12  6.03  5.89
Si -2.37 -8.40  0.84
Si  2.38  8.43 -0.80
Si -6.16  4.81 -4.17
Si  3.09 -3.58  7.49
Si -3.08  3.63 -7.49
Si  6.18 -4.84  4.16
Si -2.98  8.34  0.80
Si -6.31 -4.80 -4.10
Si  3.22  5.98 -5.80
Si  6.73  1.19  5.82
Si  3.01 -8.41 -0.82
Si  6.34  4.81  4.15
Si -3.21 -6.02  5.83
Si -6.77 -1.19 -5.79
Si -3.41  7.20  4.16
Si -5.85 -3.64  5.79
Si  8.01  0.03  4.16
Si  5.91  3.59 -5.83
Si -4.96 -1.22 -7.47
Si  4.93  1.20  7.49
Si -8.05  0.01 -4.15
Si  3.46 -7.25 -4.20
Si -3.65 -7.21 -4.14
Si -6.81 -6.00 -0.87
Si  3.71  7.23  4.16
Si  6.83  6.04  0.86
Si  0.89  0.02 -9.13
Si  8.43 -3.58 -0.84
Si -0.89  0.03  9.15
Si -8.43  3.63  0.86
Si -5.21  7.21  2.50
Si  5.23 -7.21 -2.48
Si  3.93 -6.02  5.82
Si -3.98  6.03 -5.79
Si  4.11  3.60 -7.49
Si -4.08 -3.60  7.51
Si -5.48 -7.21 -2.48
Si -4.17 -8.39 -0.82
Si  5.50  7.21  2.50
Si  4.18  8.41  0.80
Si -9.33  1.19  0.80
Si  9.34 -1.18 -0.82
Si  0.02  2.43  9.17
Si -0.01 -2.42 -9.19
Si  5.76 -1.22 -7.47
Si  6.61 -3.58 -5.83
Si  8.87 -2.44  2.50
Si -5.78  1.20  7.49
Si -8.88  2.44 -2.54
Si  2.66  0.02  9.19
Si  8.93  2.38 -2.47
Si -6.66  3.62  5.84
Si  7.92 -4.78  2.45
Si -2.69 -0.01 -9.21
Si  1.73 -2.41  9.13
Si -7.55  1.20  5.82
Si  4.84 -3.58 -7.49
Si -1.72  2.42 -9.14
Si -0.39  5.99  7.52
Si -7.93  4.83 -2.52
Si  0.32 -6.00 -7.52
Si -4.83  3.63  7.49
Si -8.99 -2.39  2.47
Si  1.82  2.42 -9.15
Si  7.58 -1.23 -5.83
Si  7.51 -6.00 -0.80
Si -7.49  6.02  0.84
Si -1.81 -2.39  9.19
Si -1.41 -5.99  7.47
Si  4.80 -8.40  0.85
Si -4.79  8.41 -0.86
Si -4.97 -5.98 -5.83
Si  1.40  6.04 -7.54
Si  8.14  4.78  2.52
Si  5.03  5.99  5.84
Si  5.21 -7.19  4.16
Si -8.17 -4.82 -2.51
Si -2.16  6.00 -7.47
Si  2.13 -6.01  7.49
Si -5.26  7.22 -4.15
Si  5.45  7.22 -4.15
Si -5.50 -7.19  4.16
Si -0.77  9.60  2.52
Si  1.01  9.60 -2.47
Si  0.74 -9.62 -2.50
Si -1.07 -9.60  2.47
Si  9.78 -0.02  2.49
Si -3.51  2.41  9.17
Si  8.90 -2.41 -4.16
Si -8.89  2.37  4.19
Si -5.68  5.99  5.84
Si  9.42  3.60  0.78
Si  3.23  6.05  7.45
Si  6.74  1.18 -7.47
Si -3.61 -2.37 -9.17
Si -9.45 -3.59 -0.80
Si  5.75 -5.98 -5.83
Si  4.47  0.02 -9.12
Si -3.25 -6.05 -7.49
Si  3.64  2.41  9.17
Si  3.54 -2.48 -9.19
Si -6.77 -1.21  7.48
Si -9.86  0.01 -2.48
Si -7.95  4.80  4.14
Si -8.95 -2.41 -4.17
Si -5.88 -3.58 -7.49
Si  8.97  2.38  4.16
Si  5.88  3.63  7.49
Si  7.95 -4.87 -4.16
Si -4.50 -0.01  9.17
Si -7.60 -3.62 -5.83
Si  7.65  3.58  5.79
Si -2.58  9.61 -2.51
Si  1.15 -8.40 -5.79
Si -0.55 -8.44  5.84
Si  0.62  8.45 -5.83
Si  2.55 -9.64  2.52
Si -1.19  8.41  5.82
Si -5.91 -8.40  0.85
Si -2.80 -9.60 -2.52
Si  8.12  4.80 -4.17
Si  5.92  8.41 -0.86
Si  2.79  9.65  2.45
Si -8.16 -4.79  4.20
Si  6.99 -7.24  2.49
Si -8.47 -1.22  5.84
Si -0.97 -4.80 -9.15
Si -3.98  6.00  7.48
Si  3.94 -6.04 -7.47
Si -10.28 -1.19  0.84
Si  0.85 -4.81  9.17
Si 10.30  1.21 -0.80
Si -0.82  4.85 -9.17
Si -7.06  7.23 -2.48
Si  8.54  1.23 -5.83
Si  0.98  4.82  9.19
Si -0.72  9.63 -4.10
Si  0.75 -9.62  4.15
Si  2.37  8.41  5.83
Si  1.05  9.59  4.16
Si -2.37 -8.45 -5.80
Si  8.60  6.01 -0.82
Si -7.27 -7.19  2.50
Si -1.03 -9.62 -4.17
Si -8.57 -6.09  0.80
Si  7.28  7.24 -2.50
Si -6.60  3.60 -7.49
Si  2.64 -4.78 -9.13
Si  6.63 -3.60  7.51
Si -2.62  4.82  9.12
Si -9.80  0.01  4.16
Si -2.98  8.42 -5.84
Si  6.54 -8.39 -0.82
Si -6.54  8.41  0.80
Si  9.86  0.00 -4.14
Si  3.01 -8.40  5.89
Si -2.77 -4.79  9.17
Si  7.53 -1.22  7.52
Si  2.78  4.80 -9.19
Si  6.74  6.03 -5.79
Si -7.60  1.22 -7.52
Si -6.78 -6.02  5.82
Si  2.54 -9.63 -4.17
Si  2.83  9.56 -4.16
Si  5.30 -2.39  9.12
Si -2.58  9.63  4.20
Si -5.28  2.44 -9.13
Si -4.33  9.62  2.44
Si  0.28 -10.80  0.87
Si -5.00 -6.07  7.46
Si -0.31 10.81 -0.82
Si -8.40  3.62 -5.83
Si -2.82 -9.63  4.14
Si 10.21 -3.58  0.86
Si  4.98  6.01 -7.55
Si -0.89  0.03 -10.83
Si -10.21  3.64 -0.84
Si -5.41 -2.39  9.12
Si  0.89  0.02 10.85
Si -7.00  7.23  4.16
Si  5.43  2.44 -9.13
Si  4.32 -9.68 -2.53
Si  8.46 -3.60  5.85
Si  7.07 -7.21 -4.14
Si -1.53 -10.80 -0.80
Si  1.50 10.81  0.78
Si -4.64 -9.65  2.50
Si  4.63  9.65 -2.54
Si -6.25  0.02 -9.12
Si  2.02 -10.83 -0.82
Si  4.17  8.41 -5.85
Si -0.01 -2.42 10.79
Si  7.30  7.20  4.16
Si -2.06 10.85  0.87
Si -7.25 -7.25 -4.20
Si  0.02  2.43 -10.81
Si  6.21 -0.01  9.17
Si -9.34  1.20 -5.85
Si  9.35 -1.26  5.83
Si -4.16 -8.48  5.83
Si -2.69 -0.01 10.77
Si  9.30 -6.02  0.80
Si -9.29  6.04 -0.82
Si  2.66  0.02 -10.79
Si  9.75 -4.78 -2.54
Si -9.77  4.78  2.50
Si  5.72 -6.07  7.46
Si -1.81 -2.39 -10.79
Si -7.50  5.98 -5.80
Si  0.59  8.36  7.46
Si -11.13  1.21 -0.80
Si -5.73  6.01 -7.55
Si -4.38  4.73 -9.19
Si -1.72  2.42 10.84
Si 11.14 -1.19  0.84
Si  1.82  2.42 10.83
Si  7.50 -6.02  5.83
Si 10.70 -2.38 -2.52
Si  4.41 -4.81  9.17
Si  1.73 -2.41 -10.85
Si -10.71  2.44  2.45
Si 10.71  2.44  2.45
Si  4.53  4.80  9.13
Si -10.72 -2.38 -2.52
Si -4.52 -4.80 -9.14
Si  9.91  4.75 -2.53
Si -7.62 -3.58  7.49
Si -4.76  8.42  5.82
Si  7.63  3.63 -7.49
Si -9.92 -4.81  2.44
Si -1.18  8.39 -7.47
Si -4.28  9.60 -4.14
Si  4.35 -9.59  4.16
Si  4.78 -8.44 -5.83
Si  1.15 -8.42  7.48
Si -3.30 -10.80  0.86
Si -0.60 -8.42 -7.55
Si  3.30 10.85 -0.84
Si  8.51  1.14  7.46
Si  7.73  8.34  0.80
Si  4.61  9.59  4.19
Si -7.70 -8.41 -0.82
Si -8.52 -1.21 -7.55
Si -4.61 -9.63 -4.16
Si -2.36 -8.38  7.45
Si  2.34  8.38 -7.49
Si  3.84 -10.83  0.78
Si -3.86 10.84 -0.80
Si -3.51  2.41 -10.81
Si  8.78 -7.20 -2.48
Si  3.54 -2.48 10.79
Si -9.74  4.80 -4.16
Si -3.61 -2.37 10.81
Si  2.96 -8.43 -7.47
Si  9.40  3.64 -5.83
Si  9.74 -4.84  4.19
Si -2.99  8.41  7.49
Si  3.64  2.41 -10.81
Si -0.13 -7.19  9.19
Si  6.07 -9.65  2.50
Si -8.85  7.19  2.49
Si -9.45 -3.60  5.84
Si -6.08  9.65 -2.54
Si  0.11  7.21 -9.21
Si -10.68  2.34 -4.16
Si -4.50 -0.01 -10.81
Si 10.69 -2.41  4.14
Si  6.74  6.00  7.48
Si  1.67 -7.19 -9.12
Si -9.87 -4.83 -4.14
Si  4.47  0.02 10.87
Si -6.77 -6.04 -7.47
Si -10.74 -2.41  4.14
Si 10.75  2.34 -4.16
Si -1.90 -7.19 -9.13
Si -1.71  7.20  9.17
Si  6.38  9.62  2.44
Si -9.02 -7.19 -2.50
Si  9.94  4.84  4.16
Si -11.22 -3.58  0.86
Si  8.38 -3.63 -7.50
Si 11.22  3.64 -0.84
Si  1.90  7.24  9.15
Si -7.07  2.41  9.17
Si 11.57  0.01 -2.48
Si  5.95  8.42  5.82
Si  9.03  7.24  2.50
Si  7.10 -2.37 -9.17
Si -5.93 -8.44 -5.83
Si  0.98  4.82 -10.79
Si  0.85 -4.81 -10.81
Si -6.39 -9.68 -2.53
Si -10.29 -1.23 -5.80
Si  8.35 -8.40  0.84
Si -0.82  4.85 10.81
Si -8.46  3.62  7.51
Si -8.33  8.43 -0.80
Si -0.97 -4.80 10.83
