500
set: 242.00  0.00  0.00
Si -0.02  0.02 -0.06
Si  0.04 -2.10  0.75
Si  1.82  1.05  0.72
Si -1.83  1.05  0.73
Si -0.01 -0.03 -2.31
Si -0.00 -2.08  2.96
Si  1.82  1.07  2.94
Si  1.84 -3.12 -0.01
Si -1.82 -3.14 -0.01
Si  1.82 -1.01 -2.97
Si -1.80  1.08  2.97
Si -3.64 -0.03 -0.02
Si -0.04  2.11 -2.98
Si -1.80  3.19  0.04
Si -1.84 -1.08 -2.97
Si  3.67 -0.01  0.03
Si  1.82  3.21 -0.00
Si  1.80  3.12 -2.21
Si -1.83 -3.16 -2.21
Si  1.83 -3.14 -2.26
Si  3.68  0.06 -2.19
Si  1.83 -1.04  3.72
Si  0.03  4.22  0.73
Si -3.65  0.01 -2.25
Si  0.04  2.10  3.75
Si -3.66 -2.12  0.76
Si -1.89  3.17 -2.21
Si  3.69 -2.11  0.78
Si -1.84 -1.07  3.76
Si  3.63  2.10 -2.96
Si -0.03  4.22  2.94
Si -0.00 -4.24 -2.98
Si -3.65 -2.15  2.99
Si -3.69  2.12 -2.98
Si  3.69 -2.15  3.00
Si -5.43  1.07  0.76
Si -3.61  2.10  3.74
Si  1.82 -5.25  0.73
Si  3.64  2.06  3.74
Si -0.00 -4.20  3.73
Si -1.82 -5.27  0.72
Si  3.65  4.23  0.72
Si  1.87 -1.07 -5.21
Si -1.84 -1.11 -5.21
Si -0.00  2.13 -5.22
Si -3.65  4.24  0.73
Si  5.53  1.07  0.76
Si  1.80 -5.24  2.98
Si  3.67  4.18  2.95
Si  1.84  5.24 -2.99
Si -5.46  1.07  2.99
Si  0.02 -2.09 -5.96
Si  5.47  3.16 -0.00
Si  5.47 -1.06 -2.97
Si -0.01  6.32 -0.03
Si  5.46 -3.17 -0.03
Si -1.84  5.26 -2.99
Si -1.84 -1.07  5.96
Si  1.80  1.09 -5.97
Si  1.84 -1.09  5.96
Si -5.49 -1.06 -2.97
Si -5.49  3.16 -0.00
Si -0.01  2.10  5.98
Si -0.01 -6.34 -0.00
Si  3.64 -4.23 -2.99
Si -1.81 -5.31  2.95
Si -1.81  1.02 -5.99
Si -3.64 -4.25 -2.99
Si -5.49 -3.17 -0.03
Si  5.50  1.07  2.99
Si -3.68  4.25  2.98
Si  5.45  3.15 -2.21
Si  3.67  2.10 -5.17
Si  1.80  5.26  3.71
Si -0.02  0.01  6.68
Si  5.46 -3.16 -2.27
Si -0.01 -4.24 -5.20
Si -0.04 -6.35 -2.21
Si  5.47 -1.08  3.75
Si -5.51  3.15 -2.21
Si -0.02  6.33 -2.27
Si -3.68 -4.24  3.71
Si -5.49 -1.08  3.75
Si -1.81  5.26  3.78
Si -3.68  2.09 -5.24
Si -5.50 -3.16 -2.27
Si  3.67 -4.23  3.78
Si -3.66 -6.28 -0.00
Si -7.29 -0.01  0.03
Si  3.63  2.08  5.98
Si  3.68 -6.30  0.04
Si -0.04 -4.22  5.97
Si  7.32 -0.03 -0.02
Si  3.68 -2.08 -5.98
Si -3.65  2.15  5.98
Si  3.66  6.35 -0.01
Si -3.64  6.37 -0.01
Si -3.66 -2.09 -6.01
Si -0.00  4.25 -5.99
Si  3.59 -6.32 -2.21
Si -5.44 -1.06 -5.20
Si -7.28  0.06 -2.19
Si -1.84  5.26 -5.19
Si -7.27 -2.11  0.78
Si -5.45 -5.27  0.73
Si  3.64 -4.23 -5.19
Si -3.65  0.02  6.69
Si  1.82  7.37  0.76
Si  3.65  6.33 -2.21
Si -1.79  7.38  0.78
Si  7.30 -2.12  0.76
Si -3.65 -4.21 -5.22
Si  1.83  3.18  6.70
Si  7.31  0.01 -2.25
Si  1.83  5.28 -5.22
Si  5.52 -1.06 -5.20
Si  5.51 -5.27  0.73
Si  3.65  0.00  6.74
Si -3.65  6.35 -2.26
Si -1.89 -3.16  6.74
Si -3.68 -6.37 -2.21
Si  1.80 -3.21  6.74
Si -1.80  3.22  6.76
Si -1.78  7.34  3.00
Si  1.83  7.34  2.99
Si  7.26  2.12 -2.98
Si  5.46 -5.27  2.94
Si -3.65  4.18 -5.96
Si -7.26 -2.15  3.00
Si  1.78 -7.37 -2.98
Si  5.48  5.25 -2.98
Si -5.48  5.25 -2.98
Si  3.69  4.18 -5.95
Si  1.78  5.28  5.97
Si -5.50 -5.27  2.94
Si -1.84 -7.39 -2.96
Si -1.78 -5.31 -5.95
Si  5.48 -1.08  5.97
Si -5.48 -1.08  5.97
Si -7.33  2.10 -2.96
Si  3.63 -4.22  5.99
Si -3.69 -4.21  5.97
Si  7.31 -2.15  2.99
Si -1.84  5.27  5.99
Si  5.46  1.06 -6.01
Si  1.83 -5.32 -5.96
Si -5.50  1.06 -6.01
Si  0.05 -2.09 -8.19
Si  0.05 -8.42  0.76
Si -7.30  4.23  0.72
Si -7.32  2.06  3.74
Si  7.30  4.24  0.73
Si  1.82  1.07 -8.21
Si  5.48  5.29  3.73
Si -5.48  5.29  3.73
Si -1.82  1.06 -8.23
Si  1.87 -7.40  3.74
Si  7.35  2.10  3.74
Si -1.84 -7.43  3.74
Si -7.29  4.18  2.95
Si -0.01 -0.01  8.92
Si  0.02 -8.42  2.99
Si -0.01  8.43 -2.97
Si  7.28  4.25  2.98
Si -0.01 -0.01 -8.95
Si -7.32 -4.23 -2.99
Si  7.32 -4.25 -2.99
Si  5.47  3.14  6.64
Si -5.49  3.14  6.64
Si -7.29  2.10 -5.17
Si -0.01 -6.35  6.64
Si  5.47  5.25 -5.20
Si -1.81 -7.39 -5.17
Si  7.28 -4.24  3.71
Si -5.49  5.25 -5.20
Si  7.28  2.09 -5.24
Si -0.01  8.41  3.75
Si -5.44  7.39  0.75
Si  9.12  1.05  0.73
Si  3.65 -8.44  0.73
Si -3.65 -8.44  0.72
Si -9.13  1.05  0.72
Si  0.04  4.23 -8.20
Si  5.45 -3.18  6.74
Si  3.65 -2.11 -8.21
Si -0.04  6.31  6.74
Si -7.29 -4.23  3.78
Si  1.80 -7.40 -5.24
Si -3.65 -2.11 -8.23
Si  5.52  7.39  0.75
Si -5.51 -3.18  6.74
Si  3.63  8.41 -2.97
Si -7.28 -6.30  0.04
Si  7.30 -6.28 -0.00
Si -1.81 -3.17 -8.92
Si -9.12 -3.12 -0.01
Si  3.68  0.02 -8.91
Si -3.66 -8.42  2.94
Si  5.44  5.27  5.97
Si  1.84  3.14  8.93
Si  1.84  9.46 -0.02
Si  5.44 -7.38 -2.98
Si  1.82 -7.34  5.98
Si  9.11 -1.08 -2.97
Si -3.64  0.04  8.93
Si -7.28 -2.08 -5.98
Si  3.68 -8.41  2.97
Si  1.82 -3.12  8.95
Si -1.81  9.48  0.03
Si -9.13 -1.01 -2.97
Si  3.66  0.03  8.94
Si  5.48 -5.24 -5.99
Si -5.48 -5.24 -5.99
Si -9.14  1.07  2.94
Si -3.66  0.04 -8.95
Si  9.14 -3.14 -0.01
Si -1.81 -9.50  0.03
Si -7.30  6.35 -0.01
Si -1.82  3.19 -8.96
Si  7.30 -2.09 -6.01
Si  5.48  7.41  2.96
Si -7.33  2.08  5.98
Si -5.48  7.41  2.96
Si  7.30  2.15  5.98
Si -9.14  3.21 -0.00
Si -1.81  3.15  8.98
Si -1.80 -3.14  8.99
Si -5.52  5.27  5.97
Si -1.80  7.41 -5.98
Si  9.16  1.08  2.97
Si -5.52 -7.38 -2.98
Si  1.84 -9.52 -0.02
Si  1.84 -3.19 -8.97
Si  1.84  3.21 -8.96
Si -3.65  8.48 -2.97
Si  9.16  3.19  0.04
Si -1.84 -7.41  5.98
Si  1.82  7.40 -6.01
Si  7.32  6.37 -0.01
Si -1.80 -9.44 -2.19
Si  9.07  3.17 -2.21
Si -1.79 -5.28 -8.17
Si  0.03 -2.11  9.68
Si -3.65 -6.32  6.70
Si  3.69  4.22 -8.17
Si  0.04  8.43 -5.20
Si -3.66  4.21 -8.19
Si  7.31  0.02  6.69
Si -5.44 -7.39  3.75
Si  1.83 -9.48 -2.25
Si -9.13 -1.04  3.72
Si  1.82 -5.28 -8.19
Si  9.13 -3.16 -2.21
Si  3.64  8.42  3.76
Si -9.13 -3.14 -2.26
Si -7.31  6.33 -2.21
Si -5.45  1.06 -8.22
Si  3.59  6.33  6.74
Si  9.12 -1.07  3.76
Si -7.32 -4.23 -5.19
Si -9.16  3.12 -2.21
Si  7.28 -6.37 -2.21
Si  7.31 -4.21 -5.22
Si -3.65  8.45  3.72
Si -3.68  6.29  6.74
Si  3.68 -6.27  6.76
Si  1.82  1.05  9.71
Si  1.83  9.50 -2.25
Si -7.31  0.00  6.74
Si  7.31  6.35 -2.26
Si -1.79  1.05  9.72
Si  5.52 -7.39  3.75
Si  5.51  1.06 -8.22
Si -7.37 -6.32 -2.21
Si -1.80  9.55 -2.19
Si -7.26  4.18 -5.95
Si  7.26 -4.21  5.97
Si  7.31  4.18 -5.96
Si -0.00  8.41  5.97
Si -0.03 -8.44 -6.01
Si -7.33 -4.22  5.99
Si  3.64  8.38 -5.21
Si -9.09 -1.07 -5.21
Si -3.61  8.42 -5.21
Si  3.65 -2.10  9.67
Si  5.48 -7.36 -5.22
Si -5.48 -7.36 -5.22
Si -3.65 -2.09  9.68
Si  9.12 -1.11 -5.21
Si -9.13 -5.25  0.73
Si  9.13 -5.27  0.72
Si  0.05 10.56  0.76
Si  0.05  4.23  9.71
Si -0.02 -6.31  8.89
Si  5.46  3.18  8.89
Si -3.64  8.41  5.96
Si -5.50  3.18  8.89
Si  5.46 -9.47 -0.06
Si -9.12  5.24 -2.99
Si 10.94  0.02 -0.06
Si  3.64  8.42  5.96
Si -3.68 -8.40 -5.97
Si -9.12 -1.09  5.96
Si  9.12  5.26 -2.99
Si  9.12 -1.07  5.96
Si -0.01  6.32  8.94
Si  5.47 -3.17  8.94
Si -5.50 -9.47 -0.06
Si -5.46  7.40 -5.96
Si -0.01 -10.55 -2.97
Si -5.49 -3.17  8.94
Si -9.16 -5.24  2.98
Si  5.46  9.51 -0.06
Si  5.47 -7.39  5.98
Si -5.49 -7.39  5.98
Si  5.46  3.15 -8.98
Si  0.02 10.57  2.99
Si  5.50  7.40 -5.96
Si -10.98  0.02 -0.06
Si -9.16  1.09 -5.97
Si  9.15 -5.31  2.95
Si -5.50  9.51 -0.06
Si -5.49  3.15 -8.98
Si  9.15  1.02 -5.99
Si -0.01 -6.34 -8.98
Si  5.46 -3.15 -9.01
Si  3.67 -8.47 -5.99
Si -5.50 -3.15 -9.01
Si -0.02  6.34 -9.01
Si -10.92 -2.10  0.75
Si -0.04 -0.02 -11.16
Si -5.44 -5.26 -8.20
Si  1.82 -5.27  9.67
Si -3.65  4.22  9.67
Si -5.44  1.07  9.70
Si  5.47  9.46 -2.31
Si  3.65  4.22  9.68
Si -1.83 -5.27  9.68
Si  3.65 10.54  0.73
Si  7.30 -8.44  0.72
Si -5.49  9.46 -2.31
Si -3.65 10.54  0.72
Si 10.95 -0.03 -2.31
Si -7.31 -8.44  0.73
Si -1.83  7.38 -8.21
Si -9.16  5.26  3.71
Si  5.52 -5.26 -8.20
Si -7.31 -2.11 -8.21
Si  7.30 -2.11 -8.23
Si  1.82  7.38 -8.23
Si  5.52  1.07  9.70
Si  9.14  5.26  3.78
Si -10.97 -0.03 -2.31
Si  5.47 -9.52 -2.31
Si -0.01 -10.57  3.75
Si 11.00 -2.10  0.75
Si -5.49 -9.52 -2.31
Si -7.28  0.02 -8.91
Si 10.92  2.11 -2.98
Si -7.28 -8.41  2.97
Si -3.65 -10.51 -2.97
Si  7.30 -8.42  2.94
Si  3.67  6.32 -8.92
Si -3.64 -6.28 -8.96
Si -7.30  0.03  8.94
Si -7.33  8.41 -2.97
Si 10.96 -2.08  2.96
Si -10.96 -2.08  2.96
Si -3.64 -6.35  8.93
Si  3.66 -6.30 -8.96
Si -3.64  6.30 -8.97
Si  7.32  0.04  8.93
Si  7.30  0.04 -8.95
Si -3.66 10.56  2.94
Si  3.63 -10.57 -2.97
Si  7.30  8.48 -2.97
Si -3.66  6.37  8.95
Si  3.68 10.57  2.97
Si  3.67 -6.34  8.98
Si -11.00  2.11 -2.98
Si  3.68  6.35  8.99
Si -1.80 -3.11 -11.14
Si  3.59  0.01 -11.16
Si -7.27  4.22 -8.17
Si  9.07 -3.16  6.74
Si  9.12  5.26 -5.19
Si -10.92  2.10  3.75
Si -10.93  4.22  0.73
Si  1.83 -9.47  6.69
Si -1.83  3.16 -11.16
Si -3.68 -0.04 -11.15
Si  7.30  4.21 -8.19
Si  7.28  6.29  6.74
Si -7.28 -6.27  6.76
Si -3.65 -10.54  3.72
Si  7.31 -6.32  6.70
Si  0.04 -10.55 -5.20
Si -9.13  3.18  6.70
Si -1.79 -11.60  0.78
Si -9.13  5.28 -5.22
Si -9.14  7.37  0.76
Si  1.83 -3.15 -11.20
Si  1.83  9.51  6.69
Si  1.82 -11.61  0.76
Si  7.31  8.45  3.72
Si -7.32  8.42  3.76
Si  0.03 -8.44 -8.22
Si -1.83 -9.49  6.74
Si -1.83  9.49  6.74
Si  3.64 -10.56  3.76
Si  1.83  3.19 -11.21
Si  9.17  7.38  0.78
Si 10.99  4.22  0.73
Si 11.00  2.10  3.75
Si -9.16 -3.21  6.74
Si -7.37  6.33  6.74
Si  9.16  3.22  6.76
Si -0.03 -2.11 11.89
Si 10.94  4.22  2.94
Si -9.13  7.34  2.99
Si -1.84 -1.06 -11.91
Si  9.11 -7.39 -2.96
Si  1.78 -1.04 -11.93
Si -1.84 11.60 -2.96
Si -0.00  2.08 -11.93
Si  9.11  5.27  5.99
Si  1.78 11.61 -2.98
Si  1.83  1.01 11.94
Si 10.96 -4.24 -2.98
Si -10.96 -4.24 -2.98
Si -1.78  1.02 11.95
Si -10.98  4.22  2.94
Si -9.13 -5.32 -5.96
Si  9.18  7.34  3.00
Si -0.00 -10.57  5.97
Si -0.03 10.55 -6.01
Si -9.17 -7.37 -2.98
Si -1.78 -11.64  3.00
Si -9.17  5.28  5.97
Si  9.18 -5.31 -5.95
Si  1.83 -11.64  2.99
Si -1.84 11.55  3.74
Si -7.32  8.38 -5.21
Si -7.30 -2.10  9.67
Si -5.43  7.40 -8.19
Si -9.09 -7.40  3.74
Si -1.82  7.39  9.67
Si -5.43 -5.26  9.71
Si  7.30 -2.09  9.68
Si -3.61 -10.56 -5.21
Si 10.96 -4.20  3.73
Si -10.96 -4.20  3.73
Si -3.65 -8.42 -8.21
Si  1.87 11.59  3.74
Si  1.82  7.40  9.68
Si 10.96  2.13 -5.22
Si -10.96  2.13 -5.22
Si  7.35  8.42 -5.21
Si -9.13  1.07 -8.21
Si  3.65 -8.43 -8.23
Si  5.53  7.40 -8.19
Si  9.13  1.06 -8.23
Si  9.12 -7.43  3.74
Si  5.53 -5.26  9.71
Si  3.64 -10.60 -5.21
Si  7.28 -8.40 -5.97
Si -10.94 -2.09 -5.96
Si 10.95  6.32 -0.03
Si  7.32  8.41  5.96
Si  3.67 -2.14 11.90
Si  3.67 10.51 -5.99
Si -7.32  8.42  5.96
Si -0.01 12.65 -0.00
Si -0.01 -4.22 -11.92
Si 10.95 -6.34 -0.00
Si 10.95  2.10  5.98
Si -3.64  2.08 -11.94
Si -3.68 -2.08 11.93
Si  3.64  2.09 -11.94
Si  3.64 -10.56  5.96
Si -10.97  6.32 -0.03
Si -0.01 -12.66 -0.03
Si -10.97  2.10  5.98
Si -10.97 -6.34 -0.00
Si  0.02  4.24 11.94
Si 10.98 -2.09 -5.96
Si -3.64 -10.58  5.96
Si -7.29 -8.47 -5.99
Si -3.68 10.58 -5.97
Si 10.94  0.01  6.68
Si -1.81 11.59 -5.17
Si  5.46 -9.49  6.68
Si -5.44 -11.59  0.75
Si 10.92 -6.35 -2.21
Si -0.04 12.64 -2.21
Si  5.46  9.50  6.68
Si  1.80 -1.07 12.66
Si  7.30  4.22  9.67
Si  1.80 11.58 -5.24
Si -5.50 -9.49  6.68
