500
set: 739.00  0.00  0.00
Si  0.49 -1.02  0.75
Si -0.46  1.14 -0.74
Si -1.33 -1.23 -0.87
Si  1.44  1.33  0.85
Si  0.97  0.07 -2.41
Si -0.93 -0.01  2.47
Si  2.28 -1.20 -0.89
Si -2.28  1.24  0.86
Si -3.07 -1.25  0.85
Si -0.09 -2.39 -2.53
Si  0.05  2.33  2.58
Si  3.15  1.28 -0.84
Si -0.43 -3.48  0.85
Si  2.66 -0.09  2.51
Si  0.54  3.58 -0.87
Si -2.76 -0.10 -2.53
Si  1.65 -2.40  2.44
Si -1.75  2.31 -2.52
Si  1.28 -3.53 -0.84
Si -1.21  3.56  0.85
Si  1.77  2.42 -2.53
Si -1.81 -2.48  2.58
Si -0.88 -0.07 -4.08
Si  0.84  0.02  4.14
Si -4.00  1.28 -0.84
Si  4.07 -1.25  0.85
Si -2.33 -3.67 -0.74
Si  2.35  3.79  0.75
Si  3.00 -3.57  0.86
Si -3.00  3.61 -0.89
Si -0.00  2.39 -4.19
Si  0.04 -2.34  4.25
Si  3.52  2.41  2.44
Si -2.68 -0.10  4.15
Si  2.58  0.01 -4.22
Si -3.63  2.41  2.44
Si  3.53 -2.50 -2.52
Si  4.39 -0.10 -2.53
Si -3.62 -2.50 -2.52
Si -1.82  2.31  4.14
Si -4.87 -1.20 -0.89
Si  4.87  1.24  0.86
Si -4.49 -0.09  2.51
Si  1.73 -2.50 -4.16
Si -1.86 -2.42 -4.19
Si  1.90  2.47  4.25
Si -0.89 -4.74 -2.41
Si -0.90  4.71 -2.53
Si  0.93  4.80  2.47
Si -4.14 -3.57  0.86
Si  0.80 -4.90  2.51
Si  4.14  3.61 -0.89
Si -5.71  1.33  0.85
Si -0.40  1.17  5.80
Si  0.51 -1.07 -5.81
Si -3.56  2.32 -4.16
Si  3.46 -2.51  4.14
Si -2.62  4.72  2.51
Si  3.59  2.32 -4.16
Si  5.82 -1.23 -0.87
Si -1.38 -5.83  0.75
Si  2.52 -4.91 -2.53
Si -3.69 -2.51  4.14
Si  4.46 -0.10  4.15
Si  0.41 -6.01 -0.89
Si -2.79 -4.83  2.47
Si  4.82 -3.67 -0.74
Si -0.42  6.05  0.86
Si  2.83  4.88 -2.41
Si  1.40  5.95 -0.74
Si -4.79  3.79  0.75
Si -4.56  0.01 -4.22
Si -1.39 -1.27  5.92
Si  1.42  1.39 -5.91
Si -2.14  1.15 -5.82
Si  0.98  4.74 -4.08
Si  2.22 -1.12  5.82
Si -0.82  4.71  4.15
Si  5.39  2.31 -2.52
Si -1.02 -4.79  4.14
Si -5.38  2.42 -2.53
Si  5.33 -2.48  2.58
Si  0.72 -4.80 -4.22
Si -5.49 -2.40  2.44
Si  2.21 -6.07  0.85
Si -2.13  6.09 -0.84
Si -6.18  0.07 -2.41
Si  6.21 -0.01  2.47
Si  3.21  1.20  5.77
Si -3.21 -1.17 -5.80
Si -6.66 -1.02  0.75
Si  6.68  1.14 -0.74
Si -0.45 -3.43 -5.91
Si -3.19 -6.04 -0.87
Si -5.86 -3.53 -0.84
Si  2.70  4.83  4.14
Si  0.47  3.54  5.92
Si  2.60 -4.91  4.15
Si -2.75 -4.88 -4.08
Si  1.35 -3.61  5.77
Si -4.31  4.88 -2.41
Si  4.35 -4.83  2.47
Si -2.70  4.82 -4.22
Si  5.94  3.56  0.85
Si -1.35  3.65 -5.80
Si  4.52  4.72  2.51
Si  3.30  6.14  0.85
Si -3.94  1.20  5.77
Si  3.93 -1.17 -5.80
Si  5.32  2.31  4.14
Si  5.28 -2.42 -4.19
Si -5.24  2.47  4.25
Si -4.62 -4.91 -2.53
Si -2.26 -3.64  5.80
Si -5.42 -2.50 -4.16
Si  3.95 -6.04 -0.87
Si -3.84  6.14  0.85
Si  2.37  3.74 -5.81
Si  6.26 -0.07 -4.08
Si -6.30  0.02  4.14
Si -3.06  3.69  5.82
Si  0.11  7.12 -2.52
Si  3.14 -3.66 -5.82
Si -6.61  3.58 -0.87
Si  0.51 -1.08  7.51
Si  6.72 -3.48  0.85
Si -0.21 -7.21  2.44
Si -0.40  1.18 -7.53
Si -1.40 -1.27 -7.40
Si  1.42  1.38  7.41
Si -4.93 -1.12  5.82
Si -7.61  1.14 -0.74
Si  4.40 -4.88 -4.08
Si  7.63 -1.02  0.75
Si -4.44  4.83  4.14
Si  5.00  1.15 -5.82
Si  4.45  4.82 -4.22
Si -1.76  7.23  2.44
Si  1.91  7.14  2.58
Si  7.05 -2.39 -2.53
Si -4.94 -6.07  0.85
Si -4.55 -4.91  4.15
Si -1.96 -7.20 -2.53
Si -2.14  1.15  7.51
Si  2.21 -1.12 -7.50
Si -7.10  2.33  2.58
Si  1.67 -7.31 -2.52
Si  5.01  6.09 -0.84
Si -4.01 -3.66 -5.82
Si  7.19  2.33  2.58
Si  4.08  3.69  5.82
Si -7.24 -2.39 -2.53
Si -0.44 -3.43  7.41
Si  6.25 -4.74 -2.41
Si  0.47  3.54 -7.40
Si  6.25  4.71 -2.53
Si -6.21  4.80  2.47
Si  0.04  7.12  4.14
Si  5.77 -5.83  0.75
Si -3.21 -1.17  7.53
Si  3.21  1.20 -7.55
Si -5.75  5.95 -0.74
Si  0.35 -5.94  5.82
Si -0.28  5.96 -5.82
Si -5.73  1.39 -5.91
Si  5.75 -1.27  5.92
Si -7.57 -3.48  0.85
Si -1.36 -5.89 -5.81
Si -4.78  3.74 -5.81
Si -0.58 -8.34 -0.84
Si -6.35 -4.90  2.51
Si -0.14 -7.31 -4.16
Si  4.89 -3.64  5.80
Si -1.69  7.13 -4.16
Si -3.51  7.24 -2.53
Si  0.66  8.37  0.85
Si -8.08 -0.01  2.47
Si  1.47  5.99  5.80
Si  8.12  0.07 -2.41
Si -1.35  3.64  7.53
Si  3.47 -7.29  2.58
Si  1.34 -3.61 -7.55
Si  3.63  7.24 -2.53
Si  1.14 -8.39  0.86
Si  7.68  3.58 -0.87
Si -1.82 -7.15  4.25
Si  1.86  7.21 -4.19
Si -1.14  8.42 -0.89
Si  1.59 -7.32  4.14
Si -3.68 -7.29  2.58
Si  3.94 -1.17  7.53
Si  2.07 -5.98 -5.80
Si -2.07  6.01  5.77
Si -3.94  1.20 -7.55
Si -8.47 -1.23 -0.87
Si -7.11 -2.34  4.25
Si  7.14  2.39 -4.19
Si -7.15  2.39 -4.19
Si -2.29 -8.29  0.85
Si -2.26 -3.64 -7.53
Si  7.18 -2.34  4.25
Si  2.37  3.74  7.51
Si  8.58  1.33  0.85
Si  2.40  8.39 -0.87
Si -6.17  4.74 -4.08
Si  6.12 -4.79  4.14
Si -6.64 -1.07 -5.81
Si -3.07  3.69 -7.50
Si  6.33  4.71  4.15
Si  3.14 -3.66  7.51
Si -5.80 -3.61  5.77
Si  5.79  3.65 -5.80
Si  6.75  1.17  5.80
Si  7.99  0.02  4.14
Si -8.03 -0.07 -4.08
Si  2.95 -8.49 -0.74
Si  3.42 -7.23 -4.19
Si -4.93 -1.12 -7.50
Si -6.42 -4.80 -4.22
Si -6.73 -6.01 -0.89
Si -3.38  7.29  4.25
Si  6.73  6.05  0.86
Si -3.26 -6.08  5.92
Si  5.01  1.15  7.51
Si -8.35  3.56  0.85
Si -2.93  8.60  0.75
Si -3.73 -7.23 -4.19
Si  3.28  6.20 -5.91
Si  8.43 -3.53 -0.84
Si -5.23  7.14  2.58
Si  5.19 -7.20 -2.53
Si  0.84  0.02 -9.19
Si  3.77  7.29  4.25
Si -4.00 -3.66  7.51
Si -0.88 -0.07  9.25
Si  4.08  3.69 -7.50
Si  5.38  7.23  2.44
Si  3.89 -6.08  5.92
Si  0.04 -2.34 -9.07
Si -3.86  6.20 -5.91
Si  8.80 -2.40  2.44
Si  0.00  2.39  9.13
Si  5.75 -1.27 -7.40
Si -5.72  1.38  7.41
Si  2.59  0.01  9.11
Si -5.48 -7.31 -2.52
Si -4.19 -8.49 -0.74
Si -8.90  2.31 -2.52
Si  9.42 -1.20 -0.89
Si -9.43  1.24  0.86
Si -2.69 -0.10 -9.18
Si  6.70 -3.43 -5.91
Si  0.35 -5.93 -7.50
Si  8.91  2.42 -2.53
Si -7.54  1.17  5.80
Si  1.90  2.48 -9.07
Si -0.28  5.96  7.51
Si -6.67  3.54  5.92
Si  4.22  8.60  0.75
Si -1.86 -2.42  9.13
Si -8.04 -4.74 -2.41
Si -1.36 -5.89  7.51
Si  4.86 -8.29  0.85
Si -8.96 -2.48  2.58
Si -1.83  2.31 -9.19
Si -4.77  3.74  7.51
Si -8.04  4.71 -2.53
Si  1.73 -2.50  9.17
Si  7.94 -4.90  2.51
Si  7.65 -1.07 -5.81
Si -4.75  8.39 -0.87
Si  4.88 -3.64 -7.53
Si  7.56 -6.01 -0.89
Si  8.08  4.80  2.47
Si -7.56  6.05  0.86
Si  1.47  5.99 -7.53
Si -5.08 -5.98 -5.80
Si  5.07  6.01  5.77
Si  2.07 -5.98  7.53
Si -5.28  7.21 -4.19
Si  5.32 -7.15  4.25
Si -2.08  6.02 -7.55
Si -0.76  9.53  2.51
Si  5.45  7.13 -4.16
Si  0.97  9.52 -2.53
Si  0.66 -9.72 -2.53
Si -5.55 -7.32  4.14
Si -5.68  5.99  5.80
Si -6.64 -1.08  7.51
Si -1.07 -9.71  2.51
Si  5.79 -5.89 -5.81
Si -3.55  2.31  9.17
Si  8.87 -2.50 -4.16
Si  3.59  2.31  9.17
Si -3.26 -6.08 -7.40
Si  9.80 -0.09  2.51
Si  3.45 -2.50 -9.19
Si  7.87 -4.80 -4.22
Si -7.96  4.71  4.15
Si -8.97  2.31  4.14
Si  5.80  3.64  7.53
Si  6.75  1.18 -7.53
Si -4.56  0.01  9.11
Si -5.80 -3.61 -7.55
Si -9.47 -3.67 -0.74
Si  3.29  6.20  7.41
Si  4.46 -0.10 -9.18
Si -7.59 -3.43 -5.91
Si -3.69 -2.50 -9.19
Si -9.90 -0.10 -2.53
Si -0.52 -8.42  5.77
Si -9.01 -2.42 -4.19
Si -2.76 -9.56 -2.41
Si  8.12  4.74 -4.08
Si  9.50  3.79  0.75
Si  2.49 -9.64  2.47
Si  0.51  8.46 -5.80
Si  7.62  3.54  5.92
Si -2.45  9.69 -2.41
Si  6.93 -7.21  2.44
Si  9.05  2.47  4.25
Si  2.80  9.61  2.47
Si -7.03  7.12 -2.52
Si  0.72 -4.80  9.11
Si -10.22 -1.25  0.85
Si -8.17 -4.79  4.14
Si  3.88 -6.08 -7.40
Si -6.01 -8.39  0.86
Si -8.52 -5.83  0.75
Si -0.82  4.72 -9.18
Si  1.28 -8.47 -5.82
Si -1.20  8.50  5.82
Si  6.00  8.42 -0.89
Si -2.31 -8.24 -5.91
Si -3.86  6.20  7.41
Si 10.29  1.28 -0.84
Si -1.03 -4.79 -9.19
Si  0.98  4.74  9.25
Si  8.54  5.95 -0.74
Si  1.04  9.53  4.15
Si -8.54 -1.27  5.92
Si  7.26  7.12 -2.52
Si  8.56  1.39 -5.91
Si  2.33  8.35  5.92
Si -0.83  9.63 -4.22
Si -1.14 -9.62 -4.22
Si  6.70 -3.43  7.41
Si -6.68  3.54 -7.40
Si -7.36 -7.21  2.44
Si  0.73 -9.72  4.15
Si  9.73  0.01 -4.22
Si -6.49  8.37  0.85
Si  6.56 -8.34 -0.84
Si -2.69  4.82  9.11
Si -9.83 -0.10  4.15
Si  3.02 -8.45  5.80
Si -7.54  1.18 -7.53
Si  2.70  4.83 -9.19
Si  2.60 -4.91 -9.18
Si -6.79 -5.94  5.82
Si -2.91  8.55 -5.81
Si -5.25  2.48 -9.07
Si  2.84  9.55 -4.08
Si  7.65 -1.08  7.51
Si  4.39 -9.56 -2.41
Si 10.15 -3.57  0.86
Si  6.87  5.96 -5.82
Si -2.58  9.64  4.14
Si -10.15  3.61 -0.89
Si -2.75 -4.89  9.25
Si  2.53 -9.70 -4.08
Si  5.28 -2.42  9.13
Si -4.35  9.61  2.47
Si -2.89 -9.61  4.14
Si  5.32  2.31 -9.19
Si -5.07 -5.98  7.53
Si -7.11  7.12  4.14
Si  8.49 -3.61  5.77
Si -0.94 -0.01 -10.85
Si  5.07  6.02 -7.55
Si -8.49  3.65 -5.80
Si  0.34 -10.88  0.85
Si  7.18  7.12  4.14
Si -5.42 -2.50  9.17
Si -0.27 10.91 -0.84
Si  7.01 -7.31 -4.16
Si -1.45 -10.83 -0.89
Si  0.97  0.07 10.92
Si -4.66 -9.64  2.47
Si  1.45 10.86  0.86
Si  0.05  2.33 -10.74
Si -9.29  1.15 -5.82
Si  4.70  9.69 -2.41
Si -4.12 -8.45  5.80
Si -0.09 -2.39 10.80
Si  9.36 -1.12  5.82
Si  2.09 -10.86 -0.87
Si -7.28 -7.31 -4.16
Si -9.28  6.09 -0.84
Si -9.77  4.72  2.51
Si  9.67 -4.91 -2.53
Si  2.66 -0.09 -10.82
Si -2.76 -0.10 10.80
Si -6.31  0.02 -9.19
Si -7.59 -3.43  7.41
Si -3.24 -10.65  0.75
Si -7.42  5.96 -5.82
Si  5.79 -5.89  7.51
Si -1.98 10.96  0.85
Si  6.26 -0.07  9.25
Si  4.23  8.55 -5.81
Si -5.68  5.99 -7.53
Si -1.82 -2.48 -10.74
Si  9.35 -6.07  0.85
Si -1.75  2.31 10.81
Si  7.61  3.54 -7.40
Si  7.50 -5.94  5.82
Si 10.66  2.41  2.44
Si  1.77  2.42 10.80
Si  4.45  4.82  9.11
Si  4.84 -8.24 -5.91
Si -4.30  9.55 -4.08
Si 10.67 -2.50 -2.52
Si -11.14  1.28 -0.84
Si  1.65 -2.40 -10.88
Si  3.26 10.76 -0.74
Si  4.26 -9.61  4.14
Si -4.45  4.83 -9.19
Si -10.77  2.41  2.44
Si -4.81  8.35  5.92
Si 11.22 -1.25  0.85
Si -2.31 -8.24  7.41
Si -9.94 -4.83  2.47
Si -0.52 -8.42 -7.55
Si  0.52  8.46  7.53
Si -10.76 -2.50 -2.52
Si  4.40 -4.89  9.25
Si -4.55 -4.91 -9.18
Si  3.91 -10.65  0.75
Si  9.98  4.88 -2.41
Si -8.54 -1.27 -7.40
Si  1.28 -8.47  7.51
Si -7.73 -8.34 -0.84
Si -1.21  8.50 -7.50
Si  2.33  8.36 -7.40
Si  8.57  1.38  7.41
Si  4.57  9.64  4.14
Si -3.88 10.76 -0.74
Si  7.80  8.37  0.85
Si -4.61 -9.70 -4.08
Si  0.04  7.12 -9.19
Si -6.18  9.52 -2.53
Si -9.40 -3.64  5.80
Si  3.53 -2.50 10.81
Si 10.60 -2.51  4.14
Si  4.39 -0.10 10.80
Si -3.61 -2.50 10.81
Si  9.74 -4.91  4.15
Si  3.51  2.42 -10.88
Si -1.83 -7.15 -9.07
Si -10.70  2.32 -4.16
Si  3.02 -8.45 -7.53
Si -4.49 -0.09 -10.82
Si  9.85  4.83  4.14
Si -3.63  2.42 -10.88
Si  8.81 -7.31 -2.52
Si -0.14 -7.31  9.17
Si -8.91  7.23  2.44
Si  6.08 -9.71  2.51
Si -6.80 -5.93 -7.50
Si -1.69  7.13  9.17
Si 10.73  2.32 -4.16
Si -9.84  4.82 -4.22
Si  6.39  9.53  2.51
Si -2.91  8.55  7.51
Si  9.51  3.74 -5.81
Si -7.11 -2.34 -9.07
Si -9.89 -4.88 -4.08
Si  1.87  7.21  9.13
Si  6.87  5.96  7.51
Si  7.18 -2.34 -9.07
Si 11.53 -0.10 -2.53
Si -0.89  4.71 10.80
Si  8.28 -8.39  0.86
Si  9.06  7.14  2.58
Si -5.87 -8.47 -5.82
Si -7.14  2.39  9.13
Si  7.15  2.39  9.13
Si -8.29  8.42 -0.89
Si  1.59 -7.32 -9.19
Si -8.50 -5.89 -5.81
Si -10.83 -2.51  4.14
Si -11.29 -3.57  0.86
Si -9.10 -7.20 -2.53
Si 11.29  3.61 -0.89
Si  5.94  8.50  5.82
Si -11.63 -0.09  2.51
Si  0.79 -4.90 -10.82
Si  0.93  4.80 -10.85
Si 10.36  1.20  5.77
