500
set: 600.00  0.00  0.00
Si  0.40 -1.35  0.65
Si -0.40  1.35 -0.65
Si -1.33 -1.38 -0.65
Si  1.33  1.38  0.65
Si  1.88 -1.38 -0.65
Si -1.88  1.38  0.65
Si -1.03 -0.17  2.34
Si  1.03  0.17 -2.34
Si -2.81 -1.35  0.65
Si  2.81  1.35 -0.65
Si  2.18 -0.17  2.34
Si -2.18  0.17 -2.34
Si  0.10 -2.56 -2.34
Si -0.10  2.56  2.34
Si -0.71  0.14 -3.64
Si  0.71 -0.14  3.64
Si -3.61  1.35 -0.65
Si  3.61 -1.35  0.65
Si -1.25  2.91 -2.34
Si  1.25 -2.91  2.34
Si  0.53  4.09 -0.65
Si -0.53 -4.09  0.65
Si -1.96 -2.91  2.34
Si  1.96  2.91 -2.34
Si  0.94 -4.12 -0.65
Si -0.94  4.12  0.65
Si  2.50  0.14 -3.64
Si -2.50 -0.14  3.64
Si  0.22  2.88 -3.64
Si -0.22 -2.88  3.64
Si  3.11  2.56  2.34
Si -3.11 -2.56 -2.34
Si -1.57  2.59  3.64
Si  1.57 -2.59 -3.64
Si -2.26 -4.12 -0.65
Si  2.26  4.12  0.65
Si -1.64 -2.59 -3.64
Si  1.64  2.59  3.64
Si -4.54 -1.38 -0.65
Si  4.54  1.38  0.65
Si -3.31  2.56  2.34
Si  3.31 -2.56 -2.34
Si  4.24  0.17 -2.34
Si -4.24 -0.17  2.34
Si  2.68 -4.09  0.65
Si -2.68  4.09 -0.65
Si  5.08 -1.38 -0.65
Si -5.08  1.38  0.65
Si -3.92  0.14 -3.64
Si  3.92 -0.14  3.64
Si  0.72 -1.04 -5.33
Si -0.72  1.04  5.33
Si  2.98 -2.88  3.64
Si -2.98  2.88 -3.64
Si -3.74 -4.09  0.65
Si  3.74  4.09 -0.65
Si  3.43  2.88 -3.64
Si -3.43 -2.88  3.64
Si  1.55 -1.70  5.33
Si -1.55  1.70 -5.33
Si -4.46  2.91 -2.34
Si  4.46 -2.91  2.34
Si  1.66  1.70 -5.33
Si -1.66 -1.70  5.33
Si -0.83 -5.30 -2.34
Si  0.83  5.30  2.34
Si -5.39  0.17 -2.34
Si  5.39 -0.17  2.34
Si  4.15 -4.12 -0.65
Si -4.15  4.12  0.65
Si  2.48  1.04  5.33
Si -2.48 -1.04 -5.33
Si  0.32 -5.64  2.34
Si -0.32  5.64 -2.34
Si -6.01 -1.35  0.65
Si  6.01  1.35 -0.65
Si -2.37  5.30  2.34
Si  2.37 -5.30 -2.34
Si -5.17 -2.91  2.34
Si  5.17  2.91 -2.34
Si -0.64  5.33  3.64
Si  0.64 -5.33 -3.64
Si  0.21  3.77  5.33
Si -0.21 -3.77 -5.33
Si -4.78  2.59  3.64
Si  4.78 -2.59 -3.64
Si -4.85 -2.59 -3.64
Si  4.85  2.59  3.64
Si  3.93 -1.04 -5.33
Si -3.93  1.04  5.33
Si -2.89 -5.64  2.34
Si  2.89  5.64 -2.34
Si -5.71 -0.14  3.64
Si  5.71  0.14 -3.64
Si  1.01  1.07  6.62
Si -1.01 -1.07 -6.62
Si  1.16  5.62 -3.64
Si -1.16 -5.62  3.64
Si -0.08  1.67 -6.62
Si  0.08 -1.67  6.62
Si  5.47  4.12  0.65
Si -5.47 -4.12 -0.65
Si  0.01 -6.85 -0.65
Si -0.01  6.85  0.65
Si  2.57  5.33  3.64
Si -2.57 -5.33 -3.64
Si  0.62 -4.43  5.33
Si -0.62  4.43 -5.33
Si -6.82  1.35 -0.65
Si  6.82 -1.35  0.65
Si  2.05 -5.62  3.64
Si -2.05  5.62 -3.64
Si  1.46  6.83 -0.65
Si -1.46 -6.83  0.65
Si  3.52 -5.64  2.34
Si -3.52  5.64 -2.34
Si  2.20 -1.07 -6.62
Si -2.20  1.07  6.62
Si -4.04 -5.30 -2.34
Si  4.04  5.30  2.34
Si -1.75  6.83 -0.65
Si  1.75 -6.83  0.65
Si -3.00  3.77  5.33
Si  3.00 -3.77 -5.33
Si -5.89  4.09 -0.65
Si  5.89 -4.09  0.65
Si  6.32  2.56  2.34
Si -6.32 -2.56 -2.34
Si  4.76 -1.70  5.33
Si -4.76  1.70 -5.33
Si  3.42  3.77  5.33
Si -3.42 -3.77 -5.33
Si  6.51 -2.56 -2.34
Si -6.51  2.56  2.34
Si -2.59 -4.43  5.33
Si  2.59  4.43 -5.33
Si -4.86 -1.70  5.33
Si  4.86  1.70 -5.33
Si -3.85  5.33  3.64
Si  3.85 -5.33 -3.64
Si  3.13  1.67 -6.62
Si -3.13 -1.67  6.62
Si -3.29  1.67 -6.62
Si  3.29 -1.67  6.62
Si -3.19 -6.85 -0.65
Si  3.19  6.85  0.65
Si  3.22 -6.85 -0.65
Si -3.22  6.85  0.65
Si -6.19  2.88 -3.64
Si  6.19 -2.88  3.64
Si -1.26  3.80  6.62
Si  1.26 -3.80 -6.62
Si -7.44 -0.17  2.34
Si  7.44  0.17 -2.34
Si  5.69  1.04  5.33
Si -5.69 -1.04 -5.33
Si  1.94  3.80  6.62
Si -1.94 -3.80 -6.62
Si  7.75  1.38  0.65
Si -7.75 -1.38 -0.65
Si -3.83  4.43 -5.33
Si  3.83 -4.43  5.33
Si  4.22  1.07  6.62
Si -4.22 -1.07 -6.62
Si -4.36 -5.62  3.64
Si  4.36  5.62 -3.64
Si -7.12  0.14 -3.64
Si  7.12 -0.14  3.64
Si -0.85 -4.40  6.62
Si  0.85  4.40 -6.62
Si -5.58  5.30  2.34
Si  5.58 -5.30 -2.34
Si -6.95 -4.09  0.65
Si  6.95  4.09 -0.65
Si -6.64 -2.88  3.64
Si  6.64  2.88 -3.64
Si -4.67 -6.83  0.65
Si  4.67  6.83 -0.65
Si  2.36 -4.40  6.62
Si -2.36  4.40 -6.62
Si -8.29  1.38  0.65
Si  8.29 -1.38 -0.65
Si -1.35 -0.48  8.31
Si  1.35  0.48 -8.31
Si  7.36 -4.12 -0.65
Si -7.36  4.12  0.65
Si  4.96 -6.83  0.65
Si -4.96  6.83 -0.65
Si -1.14 -6.51 -5.33
Si  1.14  6.51  5.33
Si  1.44 -8.04 -2.34
Si -1.44  8.04  2.34
Si -5.26  5.62 -3.64
Si  5.26 -5.62  3.64
Si -7.66  2.91 -2.34
Si  7.66 -2.91  2.34
Si -1.86  0.48 -8.31
Si  1.86 -0.48  8.31
Si  1.76  8.04  2.34
Si -1.76 -8.04 -2.34
Si -5.40  1.07  6.62
Si  5.40 -1.07 -6.62
Si -0.42  2.25  8.31
Si  0.42 -2.25 -8.31
Si  6.10  5.64 -2.34
Si -6.10 -5.64  2.34
Si  5.78  5.33  3.64
Si -5.78 -5.33 -3.64
Si -2.07  6.51  5.33
Si  2.07 -6.51 -5.33
Si  0.61  8.38 -2.34
Si -0.61 -8.38  2.34
Si -0.29 -8.06 -3.64
Si  0.29  8.06  3.64
Si -4.47  3.80  6.62
Si  4.47 -3.80 -6.62
Si  8.60 -0.17  2.34
Si -8.60  0.17 -2.34
Si -4.06 -4.40  6.62
Si  4.06  4.40 -6.62
Si -0.31 -7.17  5.33
Si  0.31  7.17 -5.33
Si  0.93 -3.22  8.31
Si -0.93  3.22 -8.31
Si -7.14  1.04  5.33
Si  7.14 -1.04 -5.33
Si  6.21 -3.77 -5.33
Si -6.21  3.77  5.33
Si -5.79 -4.43  5.33
Si  5.79  4.43 -5.33
Si -2.79 -2.25 -8.31
Si  2.79  2.25  8.31
Si -2.59  8.38 -2.34
Si  2.59 -8.38  2.34
Si -6.73  5.64 -2.34
Si  6.73 -5.64  2.34
Si -7.99  2.59  3.64
Si  7.99 -2.59 -3.64
Si  8.38  2.91 -2.34
Si -8.38 -2.91  2.34
Si  1.12 -8.35  3.64
Si -1.12  8.35 -3.64
Si  2.28  3.22 -8.31
Si -2.28 -3.22  8.31
Si -8.05 -2.59 -3.64
Si  8.05  2.59  3.64
Si  5.15  3.80  6.62
Si -5.15 -3.80 -6.62
Si -7.25 -5.30 -2.34
Si  7.25  5.30  2.34
Si -6.62 -3.77 -5.33
Si  6.62  3.77  5.33
Si  0.33 -6.54 -6.62
Si -0.33  6.54  6.62
Si  2.92 -8.06 -3.64
Si -2.92  8.06  3.64
Si -6.33 -1.67  6.62
Si  6.33  1.67 -6.62
Si -9.22 -1.35  0.65
Si  9.22  1.35 -0.65
Si  2.09  8.35 -3.64
Si -2.09 -8.35  3.64
Si  3.63 -2.25 -8.31
Si -3.63  2.25  8.31
Si  2.90 -7.17  5.33
Si -2.90  7.17 -5.33
Si  6.40  6.85  0.65
Si -6.40 -6.85 -0.65
Si -6.43  6.85  0.65
Si  6.43 -6.85 -0.65
Si -6.50  1.67 -6.62
Si  6.50 -1.67  6.62
Si  4.35  6.51  5.33
Si -4.35 -6.51 -5.33
Si  4.56  0.48 -8.31
Si -4.56 -0.48  8.31
Si  3.82  8.38 -2.34
Si -3.82 -8.38  2.34
Si  3.50  8.06  3.64
Si -3.50 -8.06 -3.64
Si -7.05  5.33  3.64
Si  7.05 -5.33 -3.64
Si -4.65  8.04  2.34
Si  4.65 -8.04 -2.34
Si  3.52  7.17 -5.33
Si -3.52 -7.17  5.33
Si -0.82  9.56 -0.65
Si  0.82 -9.56  0.65
Si -8.68 -4.12 -0.65
Si  8.68  4.12  0.65
Si -0.39  0.46 -9.61
Si  0.39 -0.46  9.61
Si -8.92 -0.14  3.64
Si  8.92  0.14 -3.64
Si  0.92  9.59  0.65
Si -0.92 -9.59 -0.65
Si  5.57 -4.40  6.62
Si -5.57  4.40 -6.62
Si -0.51 -4.99 -8.31
Si  0.51  4.99  8.31
Si  7.97 -1.70  5.33
Si -7.97  1.70 -5.33
Si -4.97 -8.04 -2.34
Si  4.97  8.04  2.34
Si -2.87 -6.54 -6.62
Si  2.87  6.54  6.62
Si -5.07  0.48 -8.31
Si  5.07 -0.48  8.31
Si -8.07 -1.70  5.33
Si  8.07  1.70 -5.33
Si  4.13 -3.22  8.31
Si -4.13  3.22 -8.31
Si -1.43  7.14 -6.62
Si  1.43 -7.14  6.62
Si -2.39 -9.56  0.65
Si  2.39  9.56 -0.65
Si  7.04 -4.43  5.33
Si -7.04  4.43 -5.33
Si -2.29  9.59  0.65
Si  2.29 -9.59 -0.65
Si  1.78  7.14 -6.62
Si -1.78 -7.14  6.62
Si  5.28 -6.51 -5.33
Si -5.28  6.51  5.33
Si -3.54  6.54  6.62
Si  3.54 -6.54 -6.62
Si  1.32  2.28  9.61
Si -1.32 -2.28 -9.61
Si -9.10  4.09 -0.65
Si  9.10 -4.09  0.65
Si  7.43  1.07  6.62
Si -7.43 -1.07 -6.62
Si  2.82  0.46 -9.61
Si -2.82 -0.46  9.61
Si -1.89  2.28  9.61
Si  1.89 -2.28 -9.61
Si  2.70 -4.99 -8.31
Si -2.70  4.99  8.31
Si  4.33 -8.35  3.64
Si -4.33  8.35 -3.64
Si  7.57  5.62 -3.64
Si -7.57 -5.62  3.64
Si -10.03  1.35 -0.65
Si 10.03 -1.35  0.65
Si -9.53 -2.56 -2.34
Si  9.53  2.56  2.34
Si -0.55 -3.19  9.61
Si  0.55  3.19 -9.61
Si -0.00 -5.96  8.31
Si  0.00  5.96 -8.31
Si -3.59  0.46 -9.61
Si  3.59 -0.46  9.61
Si -9.72  2.56  2.34
Si  9.72 -2.56 -2.34
Si -3.72 -4.99 -8.31
Si  3.72  4.99  8.31
Si -4.03  9.56 -0.65
Si  4.03 -9.56  0.65
Si -8.90 -1.04 -5.33
Si  8.90  1.04  5.33
Si -7.88 -6.83  0.65
Si  7.88  6.83 -0.65
Si  5.80 -8.38  2.34
Si -5.80  8.38 -2.34
Si -4.13 -9.59 -0.65
Si  4.13  9.59  0.65
Si -5.49 -3.22  8.31
Si  5.49  3.22 -8.31
Si  2.66 -3.19  9.61
Si -2.66  3.19 -9.61
Si -9.40  2.88 -3.64
Si  9.40 -2.88  3.64
Si  6.00  2.25  8.31
Si -6.00 -2.25 -8.31
Si  8.79 -5.30 -2.34
Si -8.79  5.30  2.34
Si  5.29  8.35 -3.64
Si -5.29 -8.35  3.64
Si  8.16 -6.83  0.65
Si -8.16  6.83 -0.65
Si -3.20  5.96 -8.31
Si  3.20 -5.96  8.31
Si -3.21 -5.96  8.31
Si  3.21  5.96 -8.31
Si -1.14  9.25  5.33
Si  1.14 -9.25 -5.33
Si  6.12 -8.06 -3.64
Si -6.12  8.06  3.64
Si -7.27 -4.40  6.62
Si  7.27  4.40 -6.62
Si -4.63  7.14 -6.62
Si  4.63 -7.14  6.62
Si -8.47  5.62 -3.64
Si  8.47 -5.62  3.64
Si -3.75 -3.19  9.61
Si  3.75  3.19 -9.61
Si -6.11  7.17 -5.33
Si  6.11 -7.17  5.33
Si  7.68 -3.80 -6.62
Si -7.68  3.80  6.62
Si  4.53  2.28  9.61
Si -4.53 -2.28 -9.61
Si -2.07 -9.25 -5.33
Si  2.07  9.25  5.33
Si  0.96 -5.01 -9.61
Si -0.96  5.01  9.61
Si -9.85 -2.88  3.64
Si  9.85  2.88 -3.64
Si -10.65 -0.17  2.34
Si 10.65  0.17 -2.34
Si -8.61  1.07  6.62
Si  8.61 -1.07 -6.62
Si -4.99 -7.14  6.62
Si  4.99  7.14 -6.62
Si -10.33  0.14 -3.64
Si 10.33 -0.14  3.64
Si 10.15  4.09 -0.65
Si -10.15 -4.09  0.65
Si  6.83 -2.25 -8.31
Si -6.83  2.25  8.31
Si -0.51 10.77  2.34
Si  0.51 -10.77 -2.34
Si -8.98 -5.33 -3.64
Si  8.98  5.33  3.64
Si 10.96  1.38  0.65
Si -10.96 -1.38 -0.65
Si -2.25 -5.01 -9.61
Si  2.25  5.01  9.61
Si  5.50 -9.59 -0.65
Si -5.50  9.59  0.65
Si  5.60  9.56 -0.65
Si -5.60 -9.56  0.65
Si -6.71 -8.06 -3.64
Si  6.71  8.06  3.64
Si  5.10 -2.28 -9.61
Si -5.10  2.28  9.61
Si -6.08 -6.54 -6.62
Si  6.08  6.54  6.62
Si  9.31  5.64 -2.34
Si -9.31 -5.64  2.34
Si -6.72 -7.17  5.33
Si  6.72  7.17 -5.33
Si -7.03 -8.38  2.34
Si  7.03  8.38 -2.34
Si  7.55  6.51  5.33
Si -7.55 -6.51 -5.33
Si -1.24 -9.90  5.33
Si  1.24  9.90 -5.33
Si -8.36 -3.80 -6.62
Si  8.36  3.80  6.62
Si  2.69 10.77  2.34
Si -2.69 -10.77 -2.34
Si  5.90 -4.99 -8.31
Si -5.90  4.99  8.31
Si -6.03 -0.46  9.61
Si  6.03  0.46 -9.61
Si 10.57 -4.12 -0.65
Si -10.57  4.12  0.65
Si  9.00  4.43 -5.33
Si -9.00 -4.43  5.33
Si  1.04 -0.73 -11.30
Si -1.04  0.73 11.30
Si -7.77 -0.48  8.31
Si  7.77  0.48 -8.31
Si -1.48 -5.93  9.61
Si  1.48  5.93 -9.61
Si  0.60  9.27  6.62
Si -0.60 -9.27 -6.62
Si  1.97 -9.90  5.33
Si -1.97  9.90 -5.33
Si -1.73  5.93 -9.61
Si  1.73 -5.93  9.61
Si  1.44  7.72  8.31
Si -1.44 -7.72 -8.31
Si  9.42 -3.77 -5.33
Si -9.42  3.77  5.33
Si -1.22 -10.80 -3.64
Si  1.22 10.80  3.64
Si -1.54 -11.11  2.34
Si  1.54 11.11 -2.34
Si -1.66 11.11 -2.34
Si  1.66 -11.11  2.34
Si  7.86 -8.04 -2.34
Si -7.86  8.04  2.34
Si  1.76 -7.72 -8.31
Si -1.76  7.72  8.31
Si -10.87  2.91 -2.34
Si 10.87 -2.91  2.34
Si -6.75  6.54  6.62
Si  6.75 -6.54 -6.62
Si  4.35 -9.25 -5.33
Si -4.35  9.25  5.33
Si  2.16  0.73 11.30
Si -2.16 -0.73 -11.30
Si -1.23  2.01 -11.30
Si  1.23 -2.01 11.30
Si -7.34  3.22 -8.31
Si  7.34 -3.22  8.31
Si  1.99 -10.80 -3.64
Si -1.99 10.80  3.64
