500
set: 884.00  0.00  0.00
Si  0.40 -1.15  0.83
Si -0.41  1.25 -0.79
Si -1.39 -1.18 -0.81
Si  1.40  1.22  0.82
Si  0.86  0.04 -2.44
Si -2.21  1.28  0.81
Si -0.95 -0.04  2.52
Si  2.28 -1.20 -0.82
Si -3.11 -1.17  0.84
Si -0.01  2.42  2.43
Si -0.01 -2.38 -2.50
Si  3.14  1.17 -0.91
Si -2.69  0.03 -2.48
Si  2.74  0.00  2.52
Si -0.53 -3.59  0.84
Si  0.52  3.66 -0.85
Si  1.72 -2.35  2.46
Si -1.78  2.35 -2.46
Si  1.27 -3.56 -0.77
Si -1.27  3.62  0.74
Si -1.85 -2.48  2.51
Si  1.83  2.48 -2.57
Si -0.85 -0.04 -4.12
Si  0.93 -0.02  4.17
Si -4.00  1.24 -0.90
Si -2.28 -3.56 -0.85
Si  4.07 -1.18  0.89
Si  2.26  3.63  0.84
Si  0.02  2.31 -4.18
Si -0.03 -2.41  4.14
Si  3.06 -3.59  0.87
Si -3.11  3.63 -0.80
Si  2.66  0.01 -4.12
Si  3.55 -2.40 -2.46
Si  3.58  2.38  2.43
Si -3.57  2.36  2.51
Si -2.71  0.03  4.17
Si -3.62 -2.48 -2.54
Si -1.73  2.37  4.16
Si -4.89 -1.19 -0.82
Si  4.91  1.11  0.79
Si -4.47  0.01  2.48
Si  1.84  2.37  4.17
Si  4.49  0.05 -2.50
Si -1.82 -2.41 -4.18
Si  1.79 -2.44 -4.20
Si -0.83  4.73 -2.54
Si  0.94  4.73  2.51
Si  0.79 -4.83  2.43
Si -0.96 -4.73 -2.57
Si -4.07 -3.60  0.74
Si  4.07  3.66 -0.77
Si -3.54  2.40 -4.06
Si -0.42  1.19  5.81
Si -5.80  1.11  0.79
Si  3.55 -2.40  4.16
Si  0.44 -1.24 -5.82
Si  2.53 -4.80 -2.50
Si  5.83 -1.19 -0.82
Si -2.60  4.78  2.56
Si  3.64  2.37 -4.17
Si -3.60 -2.37  4.21
Si  4.81 -3.59 -0.80
Si -2.80 -4.80  2.43
Si -0.31  6.04  0.84
Si -1.37 -1.29  5.81
Si  2.79  4.84 -2.50
Si  0.35 -6.04 -0.91
Si  1.37  1.19 -5.85
Si -4.86  3.63  0.87
Si  4.54  0.01  4.15
Si -4.45 -0.07 -4.24
Si -1.40 -6.00  0.82
Si  1.40  6.03 -0.81
Si -2.21  1.24 -5.78
Si  5.33  2.41 -2.50
Si  2.24 -1.24  5.82
Si  5.32 -2.44  2.56
Si -5.38  2.41 -2.50
Si -2.09  6.03 -0.82
Si  0.97  4.80 -4.18
Si -5.39 -2.44  2.56
Si  0.85 -4.85 -4.17
Si -0.95 -4.85  4.17
Si -0.81  4.84  4.21
Si  2.12 -6.10  0.79
Si -6.22  0.05 -2.50
Si  6.24  0.01  2.48
Si  3.19  1.17  5.79
Si -3.13 -1.24 -5.83
Si -6.64 -1.18  0.89
Si -3.20 -5.96 -0.79
Si  2.51 -4.81  4.20
Si -0.47 -3.63 -5.82
Si  6.72  1.24 -0.90
Si  0.54  3.57  5.87
Si -2.62  4.80 -4.20
Si  3.19  6.06  0.83
Si  2.77  4.80  4.14
Si  5.85  3.63  0.87
Si -4.37  4.81 -2.46
Si -5.91 -3.59 -0.80
Si  4.35 -4.85  2.51
Si -1.31  3.64 -5.82
Si  1.26 -3.60  5.87
Si -2.77 -4.90 -4.18
Si  4.51  4.86  2.46
Si  3.90 -1.21 -5.79
Si -4.57 -4.87 -2.46
Si -4.01  1.20  5.79
Si  5.30  2.40  4.20
Si  5.30 -2.41 -4.20
Si  3.92 -5.97 -0.90
Si -3.85  6.03  0.89
Si  2.33  3.59 -5.82
Si -5.41  2.40  4.20
Si -5.41 -2.41 -4.20
Si -2.25 -3.65  5.87
Si -3.06  3.53  5.75
Si -6.18  0.01  4.15
Si  0.43 -1.12  7.42
Si  3.14 -3.60 -5.84
Si  6.26 -0.07 -4.24
Si -0.45  1.12 -7.48
Si  6.65 -3.60  0.74
Si -6.64  3.66 -0.77
Si -0.05 -7.21  2.52
Si  0.10  7.24 -2.48
Si  4.38 -4.82 -4.06
Si  1.39  1.23  7.49
Si -7.57  1.17 -0.91
Si -4.37  4.82  4.16
Si  4.94  1.21 -5.83
Si  7.61 -1.17  0.84
Si  1.70 -7.17 -2.50
Si -1.40 -1.19 -7.56
Si -5.01 -5.94  0.81
Si -4.94 -1.21  5.93
Si -1.68  7.22  2.48
Si -1.94 -7.17 -2.44
Si -4.53 -4.84  4.16
Si  1.85  7.18  2.52
Si  4.58  4.78 -4.20
Si -2.23  1.12  7.45
Si -7.13  2.38  2.43
Si  5.08  6.01 -0.82
Si  7.14  2.36  2.51
Si  7.09 -2.48 -2.54
Si -7.17 -2.40 -2.46
Si  2.19 -1.22 -7.56
Si -4.11 -3.58 -5.82
Si  4.05  3.61  5.87
Si  6.14 -4.87 -2.46
Si  3.12  1.26 -7.53
Si -6.20  4.86  2.46
Si -3.17 -1.26  7.53
Si  5.71 -5.94  0.81
Si -5.64  6.01 -0.82
Si  0.45  3.57 -7.47
Si -5.77  1.21 -5.83
Si -0.14 -7.21 -4.12
Si  6.34  4.81 -2.46
Si  0.08  7.24  4.17
Si -7.97  0.00  2.52
Si -0.34  5.98 -5.83
Si  3.45 -7.21  2.48
Si -0.54 -3.57  7.55
Si -4.78  3.61 -5.84
Si  5.78 -1.21  5.93
Si  4.86 -3.68  5.75
Si  0.40 -6.05  5.79
Si -6.37 -4.85  2.51
Si  8.02  0.03 -2.48
Si  1.35 -3.60 -7.47
Si -3.43  7.26 -2.50
Si  1.42  5.92  5.81
Si -1.29  3.63  7.51
Si  7.60  3.63 -0.80
Si -1.66  7.14 -4.24
Si -0.51 -8.42 -0.82
Si  3.65  7.25 -2.44
Si -7.66 -3.59  0.87
Si  1.74 -7.21  4.15
Si  1.94  7.18 -4.12
Si -1.42 -6.02 -5.85
Si -4.00  1.17 -7.43
Si -3.74 -7.25  2.52
Si  1.27 -8.40  0.89
Si  3.93 -1.20  7.49
Si -7.07  2.37 -4.17
Si  0.58  8.49  0.81
Si -8.43 -1.20 -0.82
Si -1.86 -7.24  4.17
Si  7.17  2.40 -4.06
Si -1.20  8.46 -0.90
Si  7.11 -2.37  4.21
Si -7.17 -2.40  4.16
Si  8.50  1.28  0.81
Si -2.34 -3.65 -7.47
Si  2.15 -6.00 -5.83
Si  2.25  3.65  7.55
Si -2.14  6.01  5.93
Si -2.40 -8.37  0.83
Si  2.39  8.46 -0.79
Si -6.13  4.78 -4.20
Si  3.10 -3.56  7.49
Si -3.01  8.32  0.79
Si -3.08  3.62 -7.51
Si  6.19 -4.84  4.16
Si -6.33 -4.82 -4.06
Si  6.70  1.20  5.79
Si  3.24  5.97 -5.82
Si -3.22 -6.02  5.81
Si  3.03 -8.40 -0.82
Si  6.34  4.82  4.16
Si -3.38  7.22  4.15
Si -5.85 -3.68  5.75
Si -6.81 -1.21 -5.79
Si  8.00  0.03  4.17
Si -8.06  0.01 -4.12
Si -4.97 -1.25 -7.48
Si  5.93  3.61 -5.84
Si -6.79 -5.97 -0.90
Si  4.94  1.21  7.53
Si -3.65 -7.25 -4.12
Si  3.72  7.19  4.17
Si  3.47 -7.29 -4.24
Si  6.86  6.03  0.89
Si -0.88  0.05  9.14
Si  0.86  0.02 -9.15
Si  8.44 -3.56 -0.85
Si  3.90 -6.02  5.79
Si  5.23 -7.19 -2.48
Si -5.18  7.22  2.52
Si -8.45  3.63  0.84
Si -4.02  6.01 -5.79
Si -4.08 -3.58  7.51
Si  4.14  3.61 -7.47
Si -5.48 -7.19 -2.48
Si -4.19 -8.40 -0.81
Si  9.32 -1.18 -0.81
Si -9.32  1.22  0.82
Si  5.54  7.22  2.52
Si  4.19  8.43  0.82
Si -0.00 -2.39 -9.17
Si  0.00  2.42  9.18
Si  6.60 -3.58 -5.82
Si  5.74 -1.25 -7.48
Si  8.86 -2.48  2.51
Si  1.74 -2.44  9.08
Si  8.94  2.35 -2.46
Si -5.77  1.21  7.53
Si -7.53  1.17  5.79
Si  7.91 -4.80  2.43
Si -8.88  2.48 -2.57
Si -6.66  3.61  5.87
Si -0.38  5.95  7.53
Si  2.67  0.05  9.22
Si  0.32 -5.96 -7.53
Si -8.99 -2.35  2.46
Si -7.92  4.84 -2.50
Si -1.71  2.43 -9.15
Si  7.51 -5.96 -0.79
Si -2.67  0.01 -9.25
Si -4.82  3.66  7.49
Si  4.84 -3.60 -7.51
Si  7.58 -1.24 -5.83
Si  1.79  2.45 -9.16
Si -1.80 -2.36  9.20
Si -1.40 -5.98  7.49
Si -4.78  8.38 -0.91
Si -7.52  6.06  0.83
Si -5.00 -5.98 -5.78
Si  4.81 -8.39  0.84
Si  5.04  5.97  5.82
Si  8.11  4.78  2.56
Si  1.39  6.03 -7.56
Si  5.21 -7.19  4.17
Si -8.18 -4.80 -2.50
Si -2.18  5.97 -7.48
Si -5.26  7.22 -4.12
Si  2.15 -6.01  7.53
Si  1.02  9.56 -2.46
Si -0.78  9.58  2.51
Si -1.07 -9.56  2.46
Si  5.45  7.22 -4.12
Si  0.75 -9.62 -2.46
Si -5.50 -7.19  4.17
Si -8.87  2.37  4.17
Si  9.77 -0.04  2.52
Si  6.71  1.17 -7.43
Si  5.71 -5.98 -5.78
Si -5.68  5.97  5.82
Si -3.49  2.42  9.17
Si -9.44 -3.56 -0.77
Si  8.89 -2.41 -4.18
Si  3.23  6.09  7.42
Si -3.61 -2.33 -9.18
Si  9.44  3.62  0.74
Si  4.46  0.02 -9.12
Si -9.86  0.04 -2.44
Si -8.92 -2.44 -4.20
Si  3.52 -2.50 -9.20
Si -7.95  4.80  4.14
Si  3.68  2.41  9.17
Si  8.98  2.37  4.16
Si -3.25 -6.09 -7.48
Si -6.78 -1.20  7.49
Si -5.87 -3.60 -7.51
Si  7.66  3.53  5.75
Si  5.89  3.66  7.49
Si -7.57 -3.60 -5.84
Si  7.94 -4.90 -4.18
Si -4.51  0.02  9.19
Si  0.59  8.45 -5.78
Si -2.59  9.62 -2.50
Si  1.11 -8.42 -5.79
Si -0.55 -8.46  5.82
Si -1.22  8.41  5.79
Si -5.90 -8.39  0.84
Si  2.52 -9.65  2.56
Si -2.80 -9.59 -2.50
Si  8.09  4.80 -4.20
Si  5.93  8.38 -0.91
Si  2.79  9.63  2.43
Si  3.92 -6.04 -7.43
Si -8.47 -1.24  5.82
Si  8.51  1.24 -5.78
Si -1.00 -4.76 -9.16
Si  6.97 -7.25  2.52
Si  0.89 -4.81  9.17
Si -8.21 -4.81  4.20
Si -3.99  6.02  7.49
Si 10.30  1.25 -0.79
Si -10.31 -1.15  0.83
Si -7.06  7.25 -2.44
Si -0.82  4.88 -9.18
Si  0.99  4.86  9.20
Si -0.75  9.61 -4.06
Si  2.37  8.41  5.81
Si  0.75 -9.61  4.16
Si  1.06  9.59  4.16
Si -7.27 -7.21  2.48
Si -2.35 -8.46 -5.82
Si  8.62  6.03 -0.82
Si -8.59 -6.10  0.79
Si -1.00 -9.65 -4.20
Si  7.29  7.26 -2.50
Si -6.57  3.61 -7.47
Si  2.67 -4.79 -9.10
Si -2.60  4.85  9.09
Si -9.78 -0.02  4.17
Si  6.63 -3.58  7.51
Si  6.53 -8.40 -0.81
Si -2.98  8.43 -5.83
Si  9.86 -0.04 -4.12
Si -6.52  8.43  0.82
Si  6.70  6.01 -5.79
Si -2.79 -4.79  9.18
Si  2.98 -8.42  5.93
Si  7.54 -1.26  7.53
Si  2.79  4.83 -9.17
Si -7.60  1.26 -7.53
Si  2.82  9.53 -4.18
Si -5.25  2.42 -9.10
Si -6.81 -6.02  5.79
Si  5.32 -2.37  9.09
Si  2.51 -9.63 -4.20
Si -4.33  9.60  2.43
Si -2.62  9.62  4.20
Si -8.39  3.59 -5.82
Si 10.18 -3.59  0.84
Si -5.39 -2.37  9.09
Si  0.26 -10.80  0.87
Si -2.82 -9.63  4.14
Si -5.02 -6.09  7.45
Si  4.98  5.99 -7.56
Si -6.99  7.19  4.17
Si -10.20  3.66 -0.85
Si  0.86  0.02 10.84
Si -0.32 10.84 -0.80
Si -0.88  0.05 -10.84
Si  5.46  2.42 -9.10
Si -1.52 -10.77 -0.77
Si  4.29 -9.70 -2.54
Si  8.46 -3.65  5.87
Si  7.07 -7.25 -4.12
Si  1.52 10.83  0.74
Si  2.01 -10.80 -0.80
Si -4.64 -9.70  2.51
Si  4.62  9.70 -2.57
Si -6.26  0.02 -9.12
Si  4.16  8.41 -5.85
Si -2.67  0.01 10.73
Si -0.00 -2.39 10.81
Si -2.07 10.84  0.87
Si  0.00  2.42 -10.80
Si  9.34 -1.29  5.81
Si  2.67  0.05 -10.76
Si  6.20  0.02  9.19
Si -9.34  1.19 -5.85
Si  7.33  7.22  4.15
Si  9.32 -6.00  0.82
Si -4.17 -8.51  5.81
Si -7.25 -7.29 -4.24
Si -9.31  6.03 -0.81
Si  9.75 -4.73 -2.57
Si -9.77  4.73  2.51
Si  5.69 -6.09  7.45
Si -1.80 -2.36 -10.78
Si  0.56  8.34  7.45
Si -7.47  5.97 -5.82
Si 11.11 -1.15  0.83
Si  4.54  4.78  9.08
Si -5.73  5.99 -7.56
Si -11.12  1.25 -0.79
Si -1.71  2.43 10.83
Si -4.73  8.38  5.79
Si  7.50 -6.02  5.81
Si -4.40  4.72 -9.20
Si  1.79  2.45 10.82
Si 10.71  2.42  2.43
Si  9.88  4.73 -2.54
Si 10.71 -2.38 -2.50
Si -10.72  2.42  2.43
Si -10.72 -2.38 -2.50
Si  4.43 -4.80  9.17
Si -4.50 -4.78 -9.15
Si -7.62 -3.56  7.49
Si -1.21  8.39 -7.43
Si -4.28  9.58 -4.17
Si -9.92 -4.83  2.43
Si  1.74 -2.44 -10.90
Si  7.64  3.62 -7.51
Si  1.14 -8.41  7.49
Si  4.32 -9.58  4.21
Si  4.79 -8.45 -5.83
Si -3.33 -10.80  0.84
Si -0.61 -8.44 -7.56
Si  8.48  1.12  7.45
Si  7.71  8.32  0.79
Si  3.31 10.87 -0.85
Si -2.36 -8.34  7.42
Si -7.68 -8.40 -0.82
Si  4.63  9.58  4.17
Si  2.34  8.34 -7.48
Si -8.53 -1.22 -7.56
Si -4.61 -9.63 -4.18
Si  3.85 -10.81  0.74
Si -3.85 10.87 -0.77
Si  8.78 -7.17 -2.44
Si  3.52 -2.50 10.78
Si -3.49  2.42 -10.81
Si -3.61 -2.33 10.80
Si -9.74  4.80 -4.18
Si  9.40  3.64 -5.82
Si  3.68  2.41 -10.81
Si  9.76 -4.85  4.17
Si  2.95 -8.46 -7.48
Si -0.12 -7.17  9.22
Si -8.87  7.18  2.52
Si -2.98  8.42  7.53
Si -9.45 -3.60  5.87
Si -4.51  0.02 -10.79
Si -10.69  2.31 -4.18
Si 10.69 -2.41  4.14
Si  6.07 -9.70  2.51
Si  6.72  6.02  7.49
Si  1.66 -7.19 -9.12
Si -6.09  9.70 -2.57
Si  0.12  7.23 -9.25
Si  4.46  0.02 10.86
Si -6.79 -6.04 -7.43
Si 10.74  2.31 -4.18
Si -9.87 -4.85 -4.17
Si -10.74 -2.41  4.14
Si  6.38  9.60  2.43
Si -9.02 -7.17 -2.50
Si -1.93 -7.20 -9.15
Si  8.37 -3.65 -7.47
Si  9.90  4.84  4.21
Si -7.03  2.41  9.17
Si  5.98  8.38  5.79
Si -1.72  7.23  9.19
Si 11.57  0.04 -2.44
Si  8.32 -8.37  0.83
Si  9.03  7.22  2.48
Si  1.91  7.27  9.14
Si -11.25 -3.59  0.84
Si  7.10 -2.33 -9.18
Si 11.23  3.66 -0.85
Si -5.92 -8.45 -5.83
Si  0.89 -4.81 -10.81
Si -1.00 -4.76 10.82
Si  0.99  4.86 -10.78
Si -10.27 -1.24 -5.82
Si 10.29  1.19  5.81
Si -0.82  4.88 10.80
Si -8.33  8.46 -0.79
Si -6.42 -9.70 -2.54
