500
set: 1484.00  0.00  0.00
Si  0.48  0.51 -1.03
Si -0.29 -0.80  1.41
Si -1.98  0.14 -0.04
Si  2.06 -0.34  0.58
Si -0.19 -1.60 -2.15
Si -1.23 -2.58  0.04
Si  0.38  1.31  2.53
Si  1.16  2.77 -0.59
Si  2.56 -2.10 -0.59
Si -2.63  2.29  0.04
Si  2.75  1.93  1.02
Si -2.94 -1.64 -1.40
Si -3.04 -0.83  2.15
Si  2.15 -1.14 -2.97
Si  2.85  1.12 -2.53
Si  2.47 -1.30  2.97
Si -1.88 -0.66 -3.59
Si -2.08  0.95  3.52
Si -1.33 -1.78  3.60
Si -1.59  3.27 -2.15
Si -2.54  1.49 -3.52
Si  1.96  0.47  4.14
Si  0.65  4.54  0.58
Si  0.57 -0.30 -4.58
Si -1.69  4.08  1.41
Si  1.78 -3.56  2.53
Si  1.25  1.97 -4.14
Si  1.06  3.58  2.97
Si -0.58 -4.74 -0.04
Si  0.75  3.73 -2.97
Si -3.70 -2.95  1.02
Si  1.88 -4.37 -1.03
Si  3.51  3.24 -1.40
Si -0.38  0.01  4.96
Si -1.13 -3.39 -3.52
Si  4.15 -2.95  1.02
Si -0.67 -3.93  3.52
Si  4.82 -0.83  2.15
Si  4.91 -1.64 -1.40
Si -2.73  3.10  3.60
Si -5.11  1.93  1.02
Si -0.93  5.39 -1.03
Si -4.35  3.24 -1.40
Si  5.22  2.29  0.04
Si  3.41  4.04  2.15
Si  2.66 -2.91 -4.14
Si -5.01  1.12 -2.53
Si -5.29 -2.10 -0.59
Si -3.60 -3.75 -2.53
Si -5.80 -0.34  0.58
Si  5.88  0.14 -0.04
Si  1.12 -5.68  1.41
Si  2.65  2.74  4.58
Si -3.38  5.02 -0.04
Si -0.09 -2.41 -5.70
Si  4.25 -3.75 -2.53
Si -2.85 -2.45 -4.96
Si  3.46 -5.21  0.58
Si -5.39 -1.30  2.97
Si -1.64 -5.71  2.15
Si -3.80 -2.14  4.58
Si -4.45  4.04  2.15
Si -1.50  2.47 -5.70
Si -3.29  4.21 -3.59
Si  0.28  2.12  6.08
Si  4.06 -2.14  4.58
Si -3.14 -0.03  5.71
Si -5.70 -1.14 -2.97
Si -0.83  4.58 -4.58
Si  5.32  1.49 -3.52
Si  3.60  2.43 -4.96
Si -0.48 -5.54 -3.59
Si  1.44  6.00 -2.53
Si  4.47  5.02 -0.04
Si -1.02  6.19  2.53
Si  2.94  0.32 -6.09
Si  0.56  5.35  4.14
Si  5.78  0.95  3.52
Si -1.54 -6.52 -1.40
Si -4.40 -5.21  0.58
Si  1.69 -2.76  6.08
Si  3.36 -4.41  4.14
Si  1.21 -6.48 -2.15
Si  2.37 -0.49  6.52
Si -4.25  2.43 -4.96
Si  5.12  3.10  3.60
Si  5.97 -0.66 -3.59
Si  1.35  6.81  1.02
Si  1.02 -4.87  4.96
Si  6.63 -2.58  0.04
Si  2.25 -1.95 -6.53
Si  4.57  4.21 -3.59
Si  1.98 -5.17 -4.58
Si -1.79  4.88  4.96
Si  0.84  2.93 -6.53
Si -5.90  0.47  4.14
Si -5.20 -2.91 -4.14
Si -6.70  2.77 -0.59
Si -1.42 -0.97  7.15
Si  6.26  3.27 -2.15
Si  4.72 -0.03  5.71
Si -5.20  2.74  4.58
Si  5.01 -2.45 -4.96
Si  0.17 -7.46  0.04
Si -7.38  0.51 -1.03
Si -5.97 -4.37 -1.03
Si -6.07 -3.56  2.53
Si -2.44  0.68 -7.07
Si -1.79 -1.47 -7.15
Si  6.17  4.08  1.41
Si -4.49 -4.41  4.14
Si  0.08 -6.65  3.60
Si  3.56 -6.02 -2.97
Si -2.17  1.75  7.07
Si -3.48  5.83  3.52
Si  6.53 -1.78  3.60
Si -0.24  7.65 -0.59
Si -1.73 -4.91  5.71
Si  7.57 -0.80  1.41
Si -0.77 -3.12  7.07
Si -4.91  0.32 -6.09
Si  3.87 -6.17  2.97
Si  1.35  1.16 -7.70
Si  0.96  4.39  6.52
Si -3.99 -6.17  2.97
Si -4.30 -6.02 -2.97
Si -7.48  1.31  2.53
Si -0.15  6.85 -4.14
Si -3.89 -6.98 -0.59
Si  1.86  1.28  7.70
Si -6.60  1.97 -4.14
Si  3.97 -6.98 -0.59
Si  4.38  5.83  3.52
Si  7.67 -1.60 -2.15
Si  3.82  7.17  0.04
Si  1.54  5.20 -6.09
Si  3.31  4.85  5.71
Si -2.30 -7.82  1.02
Si -4.04  7.17  0.04
Si -6.79  3.58  2.97
Si  0.67 -1.10 -8.14
Si  3.91  6.37 -3.52
Si -3.94  6.37 -3.52
Si -1.04 -4.19 -7.07
Si -8.14 -0.80  1.41
Si  6.72 -3.39 -3.52
Si -3.51 -4.56 -6.09
Si  8.33  0.51 -1.03
Si -8.05 -1.60 -2.15
Si  2.10  8.11 -1.40
Si -7.20  4.54  0.58
Si -5.49 -0.49  6.52
Si -3.19  3.41 -7.15
Si -7.11  3.73 -2.97
Si -0.48  0.81  8.52
Si -7.28 -0.30 -4.58
Si -2.83  3.91  7.15
Si  7.28 -4.74 -0.04
Si -2.39 -7.02  4.58
Si  6.22 -5.71  2.15
Si  8.24  1.31  2.53
Si -4.54  4.85  5.71
Si  4.35 -4.56 -6.09
Si -5.61 -1.95 -6.53
Si  6.93  5.39 -1.03
Si  6.36  2.47 -5.70
Si  7.18 -3.93  3.52
Si -6.74 -5.68  1.41
Si  5.42  0.68 -7.07
Si -3.00  8.15 -2.15
Si -1.44 -7.32 -4.96
Si -0.34  8.46  2.97
Si  7.47  0.01  4.96
Si  1.25  7.62  4.58
Si  2.76 -3.71 -7.70
Si  0.27 -8.27 -3.52
Si -0.73  3.77 -8.14
Si -5.88 -5.17 -4.58
Si -6.17 -2.76  6.08
Si  2.20  7.31 -4.96
Si  3.27 -3.60  7.70
Si -3.90 -1.33  8.13
Si -0.66  8.61 -2.97
Si -6.41  6.00 -2.53
Si  3.96 -1.33  8.13
Si  6.32 -6.52 -1.40
Si  4.67  3.41 -7.15
Si  2.56  3.54  8.13
Si -0.02 -5.85  7.15
Si  6.07  4.88  4.96
Si  5.68  1.75  7.07
Si  3.77 -5.37  6.52
Si -2.20 -8.63 -2.53
Si -1.12  7.00  6.08
Si  1.31 -7.29 -5.70
Si  3.19 -8.44  2.53
Si -4.08 -5.37  6.52
Si  2.01  8.92  2.15
Si  3.70  1.62 -8.51
Si -9.09 -2.58  0.04
Si  9.01  2.77 -0.59
Si -0.75  9.42  0.58
Si -6.51  6.81  1.02
Si  0.92 -4.06  8.52
Si  6.07 -1.47 -7.15
Si  3.72  7.98  3.60
Si -1.40  1.66 -9.26
Si  0.73 -8.81  3.52
Si -2.75 -3.25 -8.51
Si -6.64 -6.48 -2.15
Si  7.03  4.58 -4.58
Si  6.83  6.19  2.53
Si -0.38 -6.35 -7.15
Si  5.03  3.91  7.15
Si -3.09  8.96  1.41
Si  8.43 -0.30 -4.58
Si -3.79 -7.79 -4.14
Si -4.16  1.62 -8.51
Si -8.24  0.01  4.96
Si  0.83 -9.61 -0.04
Si  5.56 -7.82  1.02
Si -4.59 -3.60  7.70
Si  8.51  4.54  0.58
Si  6.43 -0.97  7.15
Si -8.43 -4.74 -0.04
Si -4.13  7.98  3.60
Si  6.12 -4.91  5.71
Si  4.06 -7.79 -4.14
Si  4.86  8.15 -2.15
Si -2.90  7.34 -5.70
Si -6.83 -4.87  4.96
Si -3.85  5.56 -7.07
Si -0.05  6.04 -7.70
Si  0.00 -3.22 -9.26
Si -9.84  0.14 -0.04
Si -5.99  1.28  7.70
Si  8.60  3.73 -2.97
Si -3.23  0.78  9.27
Si  4.01  5.56 -7.07
Si  0.46  6.15  7.70
Si  3.29 -9.25 -1.03
Si  7.38 -5.54 -3.59
Si  7.76 -2.41 -5.70
Si  9.91 -0.34  0.58
Si -7.57  2.12  6.08
Si -7.30  5.35  4.14
Si -5.10 -3.71 -7.70
Si  1.59 -1.95  9.64
Si -4.67 -8.44  2.53
Si  5.46 -7.02  4.58
Si -7.01  2.93 -6.53
Si -9.18 -1.78  3.60
Si -8.53 -3.93  3.52
Si -5.75  8.11 -1.40
Si  8.92  3.58  2.97
Si  0.19  2.93  9.64
Si -7.95 -2.41 -5.70
Si  3.04 -0.49 -9.64
Si  3.65 -6.83 -6.53
Si -6.50  1.16 -7.70
Si -0.56  7.81 -6.53
Si -6.32  5.20 -6.09
Si  9.11  1.97 -4.14
Si -9.45  3.27 -2.15
Si -8.99 -3.39 -3.52
Si  3.09 -7.63  6.08
Si  4.76  8.96  1.41
Si  3.16  9.09 -3.59
Si -1.83 -4.10  9.27
Si  2.07 -5.98 -8.14
Si -5.30  3.54  8.13
Si -3.58  6.63  7.07
Si  2.27  0.32 10.08
Si -4.20 -6.83 -6.53
Si  0.94  2.12 -10.08
Si -8.78  5.39 -1.03
Si  3.07  9.90 -0.04
Si -4.57 -9.25 -1.03
Si  8.14  2.12  6.08
Si  4.62  0.78  9.27
Si -9.74 -0.66 -3.59
Si -1.88  5.69  8.52
Si  5.10 -3.25 -8.51
Si -6.89  4.39  6.52
Si -9.55  4.08  1.41
Si -5.66  7.31 -4.96
Si  7.09 -3.12  7.07
Si 10.01 -1.14 -2.97
Si -2.49 -6.21  8.13
Si  4.95  7.34 -5.70
Si -2.99 -10.09  0.58
Si -2.33 10.26 -1.03
Si -9.93  0.95  3.52
Si  9.64 -3.56  2.53
Si  4.28  6.63  7.07
Si  5.66 -8.63 -2.53
Si -3.09 -9.28  4.14
Si -8.34 -5.54 -3.59
Si 10.42 -2.10 -0.59
Si  9.81  0.47  4.14
Si  6.82 -4.19 -7.07
Si  0.64 -8.00  7.07
Si -7.68 -7.46  0.04
Si  8.97 -5.68  1.41
Si  2.35 -2.75 -10.08
Si  9.74 -4.37 -1.03
Si  1.64  4.39 -9.64
Si -10.49  2.29  0.04
Si -2.23  9.46 -4.58
Si -4.82 -0.49 -9.64
Si  8.41  5.35  4.14
Si  7.61  7.65 -0.59
Si -0.23 -10.59  2.15
Si -1.52 -0.16 10.71
Si 10.32 -1.30  2.97
Si 10.61  1.93  1.02
Si -8.69  4.58 -4.58
Si -4.69  9.09 -3.59
Si -7.78 -6.65  3.60
Si -4.76 -7.63  6.08
Si -5.85  8.92  2.15
Si -2.34 -0.12 -10.63
Si -7.19 -1.10 -8.14
Si -0.87 -2.32 10.63
Si  6.41 -7.32 -4.96
Si  2.52 -10.55  1.41
Si  2.30  6.50 -8.51
Si  8.03 -7.46  0.04
Si  7.93 -6.65  3.60
Si -4.79  9.90 -0.04
Si -10.80 -1.64 -1.40
Si 10.70  1.12 -2.53
Si  0.92 -10.42 -3.59
Si -0.85 10.22  4.14
Si -6.61  7.62  4.58
Si -10.39  1.49 -3.52
Si -1.69 -2.28 -10.71
Si  7.71  6.85 -4.14
Si -8.88  6.19  2.53
Si -10.90 -0.83  2.15
Si -8.10  7.65 -0.59
Si -2.27  2.56 10.63
Si  0.04 10.88 -2.53
Si  2.42 -9.75  4.96
Si  4.86 -10.09  0.58
Si  4.77 -9.28  4.14
Si -9.35  2.47 -5.70
Si  8.70  2.93 -6.53
Si  8.88 -4.87  4.96
Si -9.49 -5.71  2.15
Si  7.38  0.81  8.52
Si -8.01  6.85 -4.14
Si  3.22  5.65  9.27
Si -0.33 -9.78  5.71
Si -6.54 -7.29 -5.70
Si -0.44  9.26  6.52
Si  9.07 -6.48 -2.15
Si  9.30  6.00 -2.53
Si  1.45  0.36 -11.26
Si  0.87  5.19 10.08
Si -3.19  9.76  4.96
Si  6.46  1.66 -9.26
Si  3.26  8.29 -7.15
Si -2.10 -9.44 -6.09
Si  1.91  9.72  5.71
Si -3.09  2.60 -10.71
Si  7.12  3.77 -8.14
Si  6.74  7.00  6.08
Si -0.14 -11.40 -1.40
Si  9.20  6.81  1.02
Si  0.37 -9.07 -7.07
Si -9.40 -6.52 -1.40
Si -5.58  0.32 10.08
Si -3.41 -5.36 -9.64
Si  3.38 -10.05 -4.58
Si  5.37 -6.21  8.13
Si  1.77  2.08 11.25
Si -8.62 -3.12  7.07
Si -10.59  3.10  3.60
Si -2.43 11.07  2.53
Si  7.20  8.61 -2.97
Si -5.78 -5.98 -8.14
Si  9.54 -2.76  6.08
Si  2.97 10.70  3.52
Si  3.68 -4.56 10.08
Si -2.90 -10.90 -2.97
Si -6.26 -1.95  9.64
Si 10.52 -2.91 -4.14
Si -2.81  6.54 -9.26
Si  7.51  8.46  2.97
Si  5.53 10.26 -1.03
Si -6.93 -4.06  8.52
Si -2.58 -11.05  2.97
Si -0.06 11.69  1.02
Si -9.28 -0.97  7.15
Si -7.59 -8.27 -3.52
Si  1.15  8.42  8.13
Si  0.14 10.07 -6.09
Si -0.94 -5.00 -10.63
Si 10.51  2.74  4.58
Si  6.03 -4.10  9.27
Si -4.64  5.65  9.27
Si  7.10  9.42  0.58
Si  8.82  4.39  6.52
Si -5.51 -2.75 -10.08
Si -4.18 -4.56 10.08
Si -0.12 -5.04 10.71
Si  8.53 -1.10 -8.14
Si -1.35 -8.13 -8.51
Si  2.62 -11.36 -2.15
Si  5.97  5.69  8.52
Si -7.12 -8.81  3.52
Si -4.59  8.29 -7.15
Si  0.77 -1.91 -11.70
Si -3.19 -8.48  7.70
Si  3.62  8.79  7.15
Si -9.64  4.88  4.96
Si  4.44 -5.36 -9.64
Si 11.36  3.24 -1.40
Si  4.67  9.76  4.96
Si -7.03 -9.61 -0.04
Si -5.33 -10.55  1.41
Si  5.62  9.46 -4.58
Si -4.47 -10.05 -4.58
Si -8.34  0.81  8.52
Si -11.56 -2.95  1.02
Si  5.51 -0.12 -10.63
Si  4.76  2.60 -10.71
Si  9.83 -5.17 -4.58
Si  3.17 -2.79 11.25
Si  2.51 11.24 -3.52
Si -10.70 -2.45 -4.96
Si -2.92  4.71 10.71
Si  9.21  1.16 -7.70
Si -5.56  6.50 -8.51
Si -2.14  8.65 -8.14
Si -0.64  2.97 -11.70
Si -4.23  8.79  7.15
Si -9.64 -1.47 -7.15
Si -8.89 -4.19 -7.07
Si  8.13 -8.27 -3.52
Si  7.84 -5.85  7.15
Si -3.70 -8.59 -7.70
Si -2.48 -11.86 -0.59
Si  7.47 -6.35 -7.15
Si -7.88 -5.85  7.15
Si 10.22 -0.49  6.52
Si -8.20  8.46  2.97
Si 11.27  4.04  2.15
Si  1.48 -11.53  3.60
Si 10.11 -1.95 -6.53
Si  3.00 -6.83  9.64
Si -9.59 -4.91  5.71
Si -0.58  1.62 12.08
Si -5.43 -9.75  4.96
Si -3.75  4.75 -10.63
Si  4.16 -8.59 -7.70
Si  5.59  2.56 10.63
Si -4.88 10.70  3.52
Si -0.46  7.00 -10.08
Si -6.22  4.39 -9.64
Si  2.41 12.05  0.04
Si -11.24  5.02 -0.04
Si -7.40  6.15  7.70
Si -11.46 -3.75 -2.53
Si  3.87 -0.53 11.69
Si  4.96 -10.90 -2.97
Si  9.40  5.20 -6.09
Si  4.11  4.75 -10.63
Si -3.99 -0.53 11.69
Si  4.67 -8.48  7.70
Si  1.41 -8.09 -9.26
Si -10.99 -0.03  5.71
Si -10.03  1.75  7.07
Si 10.80  0.32 -6.09
Si -6.91  2.12 -10.08
Si 12.01 -2.95  1.02
Si  5.05  6.54 -9.26
Si  0.04  5.23 -11.26
Si -8.59  3.77 -8.14
Si  1.58 -12.34  0.04
Si -2.68 -10.24  6.52
Si  6.34 -0.16 10.71
Si -11.14  4.21 -3.59
Si  2.85 -4.52 -11.26
Si -1.22  7.80  9.64
Si  9.72  1.28  7.70
Si -8.51  8.61 -2.97
Si 11.32 -5.21  0.58
Si -4.69 -2.79 11.25
Si -10.30  0.68 -7.07
Si  7.80  6.04 -7.70
Si  7.30  7.81 -6.53
Si -1.55 11.72 -4.14
Si  0.83 -3.26 12.08
Si -7.85 -3.22 -9.26
Si  6.17 -2.28 -10.71
Si  7.86 -3.22 -9.26
Si  2.33 -8.94  8.52
Si -7.91  6.04 -7.70
