500
set: 568.00  0.00  0.00
Si  0.00  0.00  0.00
Si -0.22  0.11 -2.19
Si -1.79  1.05  0.75
Si  1.83  1.05  0.75
Si  0.04 -2.18  0.75
Si  1.57 -0.94 -2.94
Si -1.57  0.94  2.94
Si  3.62  0.00  0.00
Si -3.62  0.00  0.00
Si -1.78 -3.23  0.00
Si  1.78  3.23  0.00
Si -2.05 -0.94 -2.94
Si  2.05  0.94  2.94
Si -1.84  3.23  0.00
Si  1.84 -3.23  0.00
Si -0.27  2.29 -2.94
Si  0.27 -2.29  2.94
Si  3.40  0.11 -2.19
Si  1.62 -3.12 -2.19
Si -1.53 -1.24  3.68
Si  0.25  2.00  3.68
Si -3.57 -2.18  0.75
Si  1.56  3.35 -2.19
Si -2.00 -3.12 -2.19
Si  3.67 -2.18  0.75
Si -0.01  4.29  0.75
Si  2.09 -1.24  3.68
Si -3.84  0.11 -2.19
Si -2.06  3.35 -2.19
Si  3.35  2.29 -2.94
Si -3.35 -2.29  2.94
Si -0.21 -4.18 -2.94
Si  0.21  4.18  2.94
Si  1.35 -0.83 -5.13
Si -3.37  2.00  3.68
Si  3.88 -2.29  2.94
Si -3.88  2.29 -2.94
Si -5.41  1.05  0.75
Si  5.45  1.05  0.75
Si  3.61  4.29  0.75
Si -3.63  4.29  0.75
Si -2.27 -0.83 -5.13
Si -0.49  2.40 -5.13
Si  3.87  2.00  3.68
Si -1.74 -5.42  0.75
Si  1.88 -5.42  0.75
Si  0.31 -4.47  3.68
Si  5.19 -0.94 -2.94
Si -5.19  0.94  2.94
Si  3.41 -4.18 -2.94
Si -3.41  4.18  2.94
Si  1.31  1.35 -5.88
Si -1.31 -1.35  5.88
Si  0.47  1.88  5.88
Si -0.47 -1.88 -5.88
Si -5.40 -3.23  0.00
Si  5.40  3.23  0.00
Si -5.46  3.23  0.00
Si  5.46 -3.23  0.00
Si  3.83  4.18  2.94
Si -3.83 -4.18 -2.94
Si -1.52 -5.53  2.94
Si  1.52  5.53 -2.94
Si -5.15 -1.24  3.68
Si -5.67 -0.94 -2.94
Si  5.67  0.94  2.94
Si  2.31 -1.35  5.88
Si -2.31  1.35 -5.88
Si  0.06 -6.47  0.00
Si -0.06  6.47  0.00
Si  3.13  2.40 -5.13
Si  5.24 -3.12 -2.19
Si  5.18  3.35 -2.19
Si -0.43 -4.06 -5.13
Si -1.58  5.23  3.68
Si  2.10 -5.53  2.94
Si -2.10  5.53 -2.94
Si  0.52 -0.30  6.62
Si -3.31 -4.47  3.68
Si  2.04  5.23  3.68
Si -0.16 -6.36 -2.19
Si -5.62 -3.12 -2.19
Si  5.71 -1.24  3.68
Si -3.15  1.88  5.88
Si  3.15 -1.88 -5.88
Si -0.28  6.58 -2.19
Si -5.68  3.35 -2.19
Si -4.11  2.40 -5.13
Si  3.93 -4.47  3.68
Si  4.97 -0.83 -5.13
Si  7.24  0.00  0.00
Si -7.24  0.00  0.00
Si  3.19 -4.06 -5.13
Si -3.10 -0.30  6.62
Si  7.02  0.11 -2.19
Si -1.32  2.94  6.62
Si  3.56  6.47  0.00
Si -3.56 -6.47  0.00
Si -4.09 -1.88 -5.88
Si  4.09  1.88  5.88
Si  3.68 -6.47  0.00
Si -3.68  6.47  0.00
Si -0.53  4.59 -5.88
Si  0.53 -4.59  5.88
Si -7.19 -2.18  0.75
Si  3.46 -6.36 -2.19
Si  2.30  2.94  6.62
Si -1.26 -3.53  6.62
Si  7.28 -2.18  0.75
Si -5.36 -5.42  0.75
Si -4.05 -4.06 -5.13
Si  3.34  6.58 -2.19
Si -3.78 -6.36 -2.19
Si  1.29  5.64 -5.13
Si  5.50 -5.42  0.75
Si  1.77  7.52  0.75
Si -7.46  0.11 -2.19
Si -1.85  7.52  0.75
Si  4.93  1.35 -5.88
Si -4.93 -1.35  5.88
Si  4.14 -0.30  6.62
Si -5.89 -0.83 -5.13
Si  2.36 -3.53  6.62
Si  6.97  2.29 -2.94
Si -6.97 -2.29  2.94
Si  1.36 -5.12 -5.88
Si -1.36  5.12  5.88
Si -3.90  6.58 -2.19
Si -2.32  5.64 -5.13
Si -3.09 -4.59  5.88
Si  3.09  4.59 -5.88
Si -5.13 -5.53  2.94
Si  5.13  5.53 -2.94
Si  2.26  5.12  5.88
Si -2.26 -5.12 -5.88
Si -1.63  7.41  2.94
Si  1.63 -7.41 -2.94
Si -6.99  2.00  3.68
Si -1.99 -7.41 -2.94
Si  1.99  7.41  2.94
Si -5.20  5.23  3.68
Si  1.09  1.46 -8.07
Si -0.69 -1.77 -8.07
Si -7.50  2.29 -2.94
Si  7.50 -2.29  2.94
Si  7.23  4.29  0.75
Si -7.25  4.29  0.75
Si  5.93 -1.35  5.88
Si -5.93  1.35 -5.88
Si -5.72  5.53 -2.94
Si  5.72 -5.53  2.94
Si -4.15  4.59 -5.88
Si  4.15 -4.59  5.88
Si  5.66  5.23  3.68
Si -2.53  1.46 -8.07
Si  7.49  2.00  3.68
Si -1.47 -7.71  3.68
Si  0.10 -8.65  0.75
Si  7.03 -4.18 -2.94
Si -7.03  4.18  2.94
Si  2.92 -1.77 -8.07
Si -4.94  2.94  6.62
Si  2.15 -7.71  3.68
Si  6.75  2.40 -5.13
Si -0.74  0.41 -8.81
Si  0.74 -0.41  8.81
Si -4.88 -3.53  6.62
Si -7.45 -4.18 -2.94
Si  7.45  4.18  2.94
Si  1.41 -7.30 -5.13
Si -6.93 -4.47  3.68
Si  0.46  6.17  6.62
Si  4.92  5.64 -5.13
Si -9.03  1.05  0.75
Si -6.76  1.88  5.88
Si  6.76 -1.88 -5.88
Si  9.06  1.05  0.75
Si -2.21 -7.30 -5.13
Si  0.20  8.47  3.68
Si  0.32 -8.76  2.94
Si -0.32  8.76 -2.94
Si  4.98 -5.12 -5.88
Si -4.98  5.12  5.88
Si -2.88 -0.41  8.81
Si  2.88  0.41 -8.81
Si  5.39  7.52  0.75
Si -4.31 -1.77 -8.07
Si  1.10 -2.83 -8.81
Si -1.10  2.83  8.81
Si -5.47  7.52  0.75
Si  8.81 -0.94 -2.94
Si -8.81  0.94  2.94
Si  5.92  2.94  6.62
Si -0.75  4.70 -8.07
Si -3.52 -8.65  0.75
Si -6.72 -0.30  6.62
Si  6.81 -4.06 -5.13
Si  3.72 -8.65  0.75
Si  4.71  1.46 -8.07
Si  0.58 -6.77  6.62
Si  7.55 -4.47  3.68
Si  5.25 -7.41 -2.94
Si -5.25  7.41  2.94
Si  1.14 -5.01 -8.07
Si -7.72  2.40 -5.13
Si  9.02  3.23  0.00
Si -9.02 -3.23  0.00
Si -3.16  6.17  6.62
Si -8.77 -1.24  3.68
Si  2.52  2.83  8.81
Si -2.52 -2.83 -8.81
Si -1.04 -3.64  8.81
Si  1.04  3.64 -8.81
Si  5.98 -3.53  6.62
Si -9.08  3.23  0.00
Si  9.08 -3.23  0.00
Si -1.05  0.65  9.56
Si  8.86 -3.12 -2.19
Si -7.18 -6.47  0.00
Si  7.18  6.47  0.00
Si  8.80  3.35 -2.19
Si -5.94  5.64 -5.13
Si -5.61 -7.41 -2.94
Si  5.61  7.41  2.94
Si -7.30  6.47  0.00
Si  7.30 -6.47  0.00
Si -5.88 -5.12 -5.88
Si  5.88  5.12  5.88
Si  7.08 -6.36 -2.19
Si  2.87  4.70 -8.07
Si  9.29  0.94  2.94
Si -9.29 -0.94 -2.94
Si -2.48 -5.01 -8.07
Si -3.30 -8.76  2.94
Si  3.30  8.76 -2.94
Si  6.96  6.58 -2.19
Si -4.36  0.41 -8.81
Si  4.36 -0.41  8.81
Si -3.42  8.47  3.68
Si  1.73  9.70  0.00
Si -1.73 -9.70  0.00
Si  1.25  7.82 -5.88
Si -1.25 -7.82  5.88
Si -7.71 -1.88 -5.88
Si  7.71  1.88  5.88
Si -2.58  3.64 -8.81
Si  2.58 -3.64  8.81
Si -1.90  9.70  0.00
Si  1.90 -9.70  0.00
Si  2.57  0.65  9.56
Si  4.08  6.17  6.62
Si  0.79 -2.59  9.56
Si -3.04 -6.77  6.62
Si -5.09 -7.71  3.68
Si  1.68 -9.59 -2.19
Si  3.82  8.47  3.68
Si -9.24 -3.12 -2.19
Si -7.40 -6.36 -2.19
Si  6.71  4.59 -5.88
Si -6.71 -4.59  5.88
Si -1.95 -9.59 -2.19
Si  8.59 -0.83 -5.13
Si  3.94 -8.76  2.94
Si -3.94  8.76 -2.94
Si -2.37  7.82 -5.88
Si  2.37 -7.82  5.88
Si -7.67 -4.06 -5.13
Si  9.33 -1.24  3.68
Si -9.30  3.35 -2.19
Si  1.50  9.82 -2.19
Si  7.76 -0.30  6.62
Si  0.42  8.35  5.88
Si -0.42 -8.35 -5.88
Si -7.52  6.58 -2.19
Si  5.03 -7.30 -5.13
Si -6.15  1.46 -8.07
Si -0.54  8.88 -5.13
Si -2.12  9.82 -2.19
Si -2.83 -2.59  9.56
Si  5.77 -7.71  3.68
Si -4.37  4.70 -8.07
Si  0.73  3.88  9.56
Si  4.20 -6.77  6.62
Si -4.72  2.83  8.81
Si  4.72 -2.83 -8.81
Si  8.55  1.35 -5.88
Si -8.55 -1.35  5.88
Si -8.97 -5.42  0.75
Si  6.54 -1.77 -8.07
Si -4.66 -3.64  8.81
Si  4.66  3.64 -8.81
Si  4.76 -5.01 -8.07
Si  9.12 -5.42  0.75
Si -5.83 -7.30 -5.13
Si -4.67  0.65  9.56
Si  3.08  8.88 -5.13
Si  3.20 -8.35 -5.88
Si -3.20  8.35  5.88
Si -2.89  3.88  9.56
Si  0.68  6.06  8.81
Si -0.68 -6.06 -8.81
Si  8.76  5.53 -2.94
Si -8.76 -5.53  2.94
Si -7.77  4.59 -5.88
Si  7.77 -4.59  5.88
Si -0.07 10.76  0.75
Si -9.51 -0.83 -5.13
Si  4.41 -2.59  9.56
Si 10.86  0.00  0.00
Si -10.86  0.00  0.00
Si 10.64  0.11 -2.19
Si -8.82  5.23  3.68
Si -4.87 -7.82  5.88
Si  4.87  7.82 -5.88
Si -6.50 -0.41  8.81
Si  6.50  0.41 -8.81
Si  4.04  8.35  5.88
Si -4.04 -8.35 -5.88
Si -0.15 -10.65 -2.94
Si  0.15 10.65  2.94
Si -10.81 -2.18  0.75
Si -0.96  0.52 -11.01
Si -4.16  8.88 -5.13
Si  5.34  9.70  0.00
Si -5.34 -9.70  0.00
Si  2.94 -6.06 -8.81
Si -2.94  6.06  8.81
Si -6.14 -2.83 -8.81
Si  6.14  2.83  8.81
Si 10.90 -2.18  0.75
Si -5.51  9.70  0.00
Si  5.51 -9.70  0.00
Si  5.29 -9.59 -2.19
Si  4.35  3.88  9.56
Si -0.80  6.88 -8.81
Si  0.80 -6.88  8.81
Si -8.56  2.94  6.62
Si 10.59  2.29 -2.94
Si -10.59 -2.29  2.94
Si -1.00 -5.82  9.56
Si -7.14 -8.65  0.75
Si -9.34  5.53 -2.94
Si  9.34 -5.53  2.94
Si  9.27  5.23  3.68
Si -6.10 -5.01 -8.07
Si  5.12  9.82 -2.19
Si -11.08  0.11 -2.19
Si  9.55 -1.35  5.88
Si -9.55  1.35 -5.88
Si -5.56 -9.59 -2.19
Si -6.78  6.17  6.62
Si  2.66  0.52 -11.01
Si -8.50 -3.53  6.62
Si  3.55 10.76  0.75
Si  1.03  7.93 -8.07
Si  6.49  4.70 -8.07
Si  0.88 -2.71 -11.01
Si  7.34 -8.65  0.75
Si  6.20 -3.64  8.81
Si -6.20  3.64 -8.81
Si -3.69 10.76  0.75
Si -10.60  2.00  3.68
Si  6.19  0.65  9.56
Si  8.53  5.64 -5.13
Si -7.93 -1.77 -8.07
Si -5.99  7.82 -5.88
Si  5.99 -7.82  5.88
Si  2.62 -5.82  9.56
Si -4.30 -6.06 -8.81
Si  4.30  6.06  8.81
Si -2.82 -6.88  8.81
Si  2.82  6.88 -8.81
Si -6.92 -8.76  2.94
Si  6.92  8.76 -2.94
Si -0.64 -8.24 -8.07
Si  0.37 -10.94  3.68
Si  3.47 -10.65 -2.94
Si -3.47 10.65  2.94
Si -6.66 -6.77  6.62
Si -5.74  9.82 -2.19
Si -1.38  9.41  6.62
Si -2.59  7.93 -8.07
Si  8.60 -5.12 -5.88
Si -8.60  5.12  5.88
Si -7.04  8.47  3.68
Si  0.82  3.76 -11.01
Si -2.74 -2.71 -11.01
Si  3.77 10.65  2.94
Si -3.77 -10.65 -2.94
Si  8.32  1.46 -8.07
Si 10.85  4.29  0.75
Si -10.87  4.29  0.75
Si  2.24  9.41  6.62
Si -0.37 -10.53 -5.13
Si -11.12  2.29 -2.94
Si 11.12 -2.29  2.94
Si  9.01  7.52  0.75
Si  0.83 -0.53 -11.75
Si -0.83  0.53 11.75
Si 10.65 -4.18 -2.94
Si -10.65  4.18  2.94
Si 10.37  2.40 -5.13
Si -6.45 -2.59  9.56
Si -9.09  7.52  0.75
Si  7.44  8.47  3.68
Si 11.11  2.00  3.68
Si  7.70  6.17  6.62
Si  7.98 -0.41  8.81
Si -7.98  0.41 -8.81
Si  2.98 -8.24 -8.07
Si -8.87  7.41  2.94
Si  8.87 -7.41 -2.94
Si -4.58  0.52 -11.01
Si -7.56  8.76 -2.94
Si  7.56 -8.76  2.94
Si -2.80  3.76 -11.01
Si -1.11  7.12  9.56
Si  9.54  2.94  6.62
Si -3.25 -10.94  3.68
Si  4.42 -6.88  8.81
Si -4.42  6.88 -8.81
Si -1.68 -11.88  0.75
Si -10.55 -4.47  3.68
Si -1.21 -10.00  6.62
Si  1.94 -11.88  0.75
Si 10.38 -1.88 -5.88
Si -10.38  1.88  5.88
Si -2.79 -0.53 -11.75
Si  2.79  0.53 11.75
Si  1.01 -2.70 11.75
Si -1.01  2.70 -11.75
Si -4.62 -5.82  9.56
Si  3.25 -10.53 -5.13
Si  2.51  7.12  9.56
Si  9.60 -3.53  6.62
Si -11.07 -4.18 -2.94
Si 11.07  4.18  2.94
Si  4.50 -2.71 -11.01
Si  9.23  7.41  2.94
Si -9.23 -7.41 -2.94
Si -6.51  3.88  9.56
Si -8.71 -7.71  3.68
Si  3.99 -10.94  3.68
Si -9.56  5.64 -5.13
Si  4.65  7.93 -8.07
Si  2.42 -10.00  6.62
Si  6.70  8.88 -5.13
Si  7.82 -6.77  6.62
Si -10.34 -0.30  6.62
Si -6.82  8.35  5.88
Si  6.82 -8.35 -5.88
Si -9.49 -5.12 -5.88
Si  9.49  5.12  5.88
Si -7.99  4.70 -8.07
Si -4.26 -8.24 -8.07
Si 10.43 -4.06 -5.13
Si -2.61 -2.70 11.75
Si  2.61  2.70 -11.75
Si -1.64 11.70  3.68
Si  0.95  3.77 11.75
Si -0.95 -3.77 -11.75
Si -3.99 -10.53 -5.13
Si  8.65 -7.30 -5.13
Si  1.98 11.70  3.68
Si  1.46 12.00 -2.94
Si -1.46 -12.00  2.94
Si  4.44  3.76 -11.01
Si -8.34  2.83  8.81
Si  8.34 -2.83 -8.81
Si  0.59 -11.05  5.88
Si -0.59 11.05 -5.88
Si -2.16 12.00 -2.94
Si  2.16 -12.00  2.94
Si -5.00  9.41  6.62
Si -0.90 -5.95 -11.01
Si -6.56  6.06  8.81
Si  6.56 -6.06 -8.81
Si  4.45 -0.53 -11.75
Si -4.45  0.53 11.75
Si 11.17 -4.47  3.68
Si -10.80 -6.47  0.00
Si 10.80  6.47  0.00
Si  2.67 -3.77 -11.75
Si -2.67  3.77 11.75
Si -0.79 -1.65 12.50
Si -8.28 -3.64  8.81
Si  8.28  3.64 -8.81
Si 10.70 -6.36 -2.19
Si  0.99  1.59 12.50
Si 10.58  6.58 -2.19
Si  8.38 -5.01 -8.07
Si -8.29  0.65  9.56
Si -11.34  2.40 -5.13
Si  6.28  0.52 -11.01
Si 10.91 -6.47  0.00
Si -10.91  6.47  0.00
Si  9.39 -7.71  3.68
Si -12.65  1.05  0.75
Si -10.33 -4.59  5.88
Si 10.33  4.59 -5.88
