500
set: 1245.00  0.00  0.00
Si  0.62 -1.02 -0.33
Si -0.02  0.79  1.49
Si -1.48 -1.37 -1.34
Si  2.08  0.65 -1.52
Si  1.04  2.52  0.33
Si -2.74  0.32 -0.54
Si -2.25  1.04  1.69
Si  1.34 -2.86  0.78
Si  1.46  0.38  3.48
Si  1.35 -2.00  2.94
Si  1.11  2.92 -2.21
Si -2.81  2.61 -1.49
Si -1.91 -3.69 -0.18
Si -1.90 -1.43 -3.45
Si  3.34  2.56  1.15
Si -1.19  2.67 -3.27
Si  2.27 -0.21 -3.81
Si -2.34  3.27  1.99
Si  4.28  1.41 -0.66
Si -3.33 -0.25  3.23
Si -0.20  4.42  1.57
Si -1.29  0.79 -4.49
Si  3.69 -3.07  0.51
Si  0.12 -5.01  0.06
Si -2.75 -2.34  3.56
Si -0.58 -3.14  4.07
Si -5.12 -0.45 -0.70
Si  4.10  1.33  2.90
Si -3.61 -3.54  1.28
Si -0.14 -2.66 -4.74
Si  2.01 -2.51 -4.52
Si -3.89  4.01  0.28
Si  0.92  1.04 -5.48
Si  0.92  1.04  5.63
Si  0.65  5.34 -2.19
Si  4.47 -0.44 -3.79
Si -3.73 -2.94 -3.48
Si -5.48 -1.95  1.08
Si  2.58 -4.40 -3.13
Si  2.76 -2.97  4.43
Si  5.98 -0.45 -0.70
Si  0.18 -5.07  3.29
Si  4.61  3.46 -1.82
Si  5.63 -1.95  1.08
Si -2.25  3.23  4.61
Si  4.40 -3.93 -1.38
Si  0.12  6.09  0.06
Si -3.17  1.28  5.11
Si  0.65 -5.77 -2.19
Si  1.01  3.43 -5.08
Si  5.45 -0.49  3.06
Si -4.78  2.77 -3.13
Si -0.86 -4.91 -4.00
Si  5.43 -2.16 -2.66
Si -5.65 -0.49  3.06
Si -3.80 -5.14 -0.89
Si -3.05 -5.02 -3.00
Si -5.67 -2.16 -2.66
Si  4.00 -4.86  2.11
Si  4.93  4.51  0.45
Si -1.29  0.79  6.62
Si -0.20 -6.68  1.57
Si  0.18  6.03  3.29
Si -0.14 -2.66  6.37
Si -3.17  1.28 -6.00
Si -5.15  1.11 -4.51
Si -0.60  4.74  5.10
Si -6.82  1.41 -0.66
Si  1.01  3.43  6.02
Si -3.80  5.97 -0.89
Si  2.55 -5.49  3.81
Si  4.87 -1.97  4.98
Si  2.55  5.62  3.81
Si  2.01 -2.51  6.59
Si  5.01  2.55  4.74
Si  4.12  4.94 -3.71
Si -0.86  6.20 -4.00
Si -3.05  6.08 -3.00
Si  3.35  4.07  5.29
Si -4.88 -4.80  2.99
Si  5.95  1.11 -4.51
Si -6.49  3.46 -1.82
Si  6.33  2.77 -3.13
Si -2.25  3.23 -6.50
Si  2.27 -0.21  7.30
Si -6.63 -0.44 -3.79
Si -1.91  7.41 -0.18
Si -6.18  4.51  0.45
Si -0.60  4.74 -6.01
Si -7.01  1.33  2.90
Si  4.00  6.25  2.11
Si -0.58 -3.14 -7.03
Si  1.46  0.38 -7.62
Si -4.64 -3.56  5.16
Si  2.76 -2.97 -6.67
Si -4.56  4.76 -4.23
Si  2.58  6.71 -3.13
Si  3.35  4.07 -5.81
Si -4.45  4.50  4.69
Si -6.70 -3.93 -1.38
Si -1.90 -1.43  7.65
Si -7.41 -3.07  0.51
Si  4.87 -1.97 -6.13
Si -3.89 -7.09  0.28
Si -6.10  2.55  4.74
Si -0.60 -6.36  5.10
Si -6.23 -1.97  4.98
Si  4.93 -6.59  0.45
Si -7.77  2.56  1.15
Si  7.22  4.01  0.28
Si  4.12 -6.17 -3.71
Si -4.64 -3.56 -5.94
Si -1.19  2.67  7.84
Si -2.75 -2.34 -7.55
Si  8.37  0.32 -0.54
Si  7.50 -3.54  1.28
Si  1.34  8.25  0.78
Si  6.22 -4.80  2.99
Si -2.34 -7.84  1.99
Si  7.78 -0.25  3.23
Si -5.15  1.11  6.60
Si -3.61  7.57  1.28
Si  5.01  2.55 -6.37
Si  1.35 -2.00 -8.17
Si -4.88  6.31  2.99
Si  4.40  7.17 -1.38
Si  1.11 -8.18 -2.21
Si -3.33 -0.25 -7.88
Si  4.47 -0.44  7.32
Si  1.04 -8.59  0.33
Si  7.38 -2.94 -3.48
Si -0.86 -4.91  7.11
Si -0.60 -6.36 -6.01
Si  8.29  2.61 -1.49
Si  3.69  8.04  0.51
Si -7.11 -4.86  2.11
Si -4.56 -6.35 -4.23
Si  5.95  1.11  6.60
Si -6.23 -1.97 -6.13
Si -0.58  7.97  4.07
Si  7.31 -5.14 -0.89
Si -3.73 -2.94  7.63
Si  6.47 -3.56  5.16
Si -4.45  4.50 -6.42
Si -6.18 -6.59  0.45
Si -2.81 -8.49 -1.49
Si  8.86  1.04  1.69
Si  4.61 -7.64 -1.82
Si -1.19 -8.43 -3.27
Si  6.55  4.76 -4.23
Si -6.10  2.55 -6.37
Si -9.03  0.65 -1.52
Si -4.45 -6.60  4.69
Si  3.34 -8.54  1.15
Si  1.01 -7.67 -5.08
Si  4.10  1.33 -8.21
Si  6.66  4.50  4.69
Si  0.18 -5.07 -7.81
Si -6.99  4.94 -3.71
Si  6.22  6.31  2.99
Si  8.35 -2.34  3.56
Si -2.25 -7.88  4.61
Si  3.35 -7.04  5.29
Si  1.11  2.92  8.90
Si  2.58 -4.40  7.98
Si -0.86  6.20  7.11
Si  7.31  5.97 -0.89
Si  2.55 -5.49 -7.29
Si  6.47 -3.56 -5.94
Si  7.93  1.28  5.11
Si -4.56  4.76  6.88
Si  2.55  5.62 -7.29
Si  8.77  3.27  1.99
Si -8.84 -0.21 -3.81
Si -3.73  8.17 -3.48
Si -0.02  0.79 -9.62
Si  1.35  9.11  2.94
Si  2.76  8.14  4.43
Si -0.14  8.45 -4.74
Si -7.11  6.25  2.11
Si -4.78  2.77  7.98
Si  3.35 -7.04 -5.81
Si  5.45 -0.49 -8.04
Si -2.25  1.04 -9.42
Si  4.12  4.94  7.40
Si  1.01 -7.67  6.02
Si  9.62 -1.37 -1.34
Si  2.08  0.65  9.59
Si -5.65 -0.49 -8.04
Si -2.75  8.76  3.56
Si  0.18  6.03 -7.81
Si -6.63 -0.44  7.32
Si -8.35 -2.97  4.43
Si -6.70  7.17 -1.38
Si  9.20 -3.69 -0.18
Si  2.01  8.60 -4.52
Si  9.20 -1.43 -3.45
Si -1.48  9.73 -1.34
Si  8.05 -5.02 -3.00
Si -2.34  3.27 -9.12
Si -1.48 -1.37  9.76
Si -3.05 -5.02  8.10
Si  7.93  1.28 -6.00
Si -6.99 -6.17 -3.71
Si  6.55 -6.35 -4.23
Si -8.53 -4.40 -3.13
Si -4.78 -8.33 -3.13
Si  0.62 10.09 -0.33
Si  7.22 -7.09  0.28
Si -6.49 -7.64 -1.82
Si -9.76 -2.86  0.78
Si -4.45 -6.60 -6.42
Si -7.75  4.07  5.29
Si -4.64  7.55  5.16
Si -9.65  0.38  3.48
Si  5.43 -2.16  8.44
Si  6.66  4.50 -6.42
Si -2.81  2.61  9.62
Si -10.06  2.52  0.33
Si -9.76 -2.00  2.94
Si -5.67 -2.16  8.44
Si -4.56 -6.35  6.88
Si  0.65  5.34  8.92
Si -0.02 -10.31  1.49
Si -1.90  9.68 -3.45
Si -2.25 -10.07  1.69
Si -2.25 -7.88 -6.50
Si -9.10 -2.51 -4.52
Si  4.12 -6.17  7.40
Si  6.66 -6.60  4.69
Si  8.85  3.23  4.61
Si -7.75  4.07 -5.81
Si -0.20  4.42 -9.53
Si  8.05  6.08 -3.00
Si -10.49 -1.02 -0.33
Si  6.33  2.77  7.98
Si -3.05  6.08  8.10
Si -0.14  8.45  6.37
Si  4.28 -9.69 -0.66
Si -4.88 -4.80 -8.11
Si  6.55  4.76  6.88
Si  0.65 -5.77  8.92
Si -0.58  7.97 -7.03
Si -10.00  2.92 -2.21
Si -4.64  7.55 -5.94
Si -5.48  9.16  1.08
Si  7.50  7.57  1.28
Si  2.58  6.71  7.98
Si  2.08 -10.46 -1.52
Si  9.92  2.67 -3.27
Si  5.43  8.95 -2.66
Si  1.34 -2.86 -10.33
Si  5.63  9.16  1.08
Si  3.34  2.56 -9.96
Si  9.81  0.79 -4.49
Si  0.62 -1.02 10.77
Si -8.56 -5.49  3.81
Si -7.01  1.33 -8.21
Si  2.76  8.14 -6.67
Si  6.33 -8.33 -3.13
Si -5.67  8.95 -2.66
Si -8.56  5.62  3.81
Si -2.74  0.32 10.57
Si  4.61  3.46  9.28
Si -7.41  8.04  0.51
Si  4.00 -4.86 -8.99
Si  4.10 -9.77  2.90
Si  5.01 -8.55  4.74
Si  7.38 -2.94  7.63
Si  2.01  8.60  6.59
Si -3.61 -3.54 -9.83
Si  7.78 -0.25 -7.88
Si -8.35 -2.97 -6.67
Si  1.04  2.52 -10.77
Si -2.74 -10.79 -0.54
Si  6.47  7.55  5.16
Si 11.09  0.79  1.49
Si -11.13  0.79  1.49
Si -8.53  6.71 -3.13
Si  6.22 -4.80 -8.11
Si -6.99  4.94  7.40
Si -1.29 -10.31 -4.49
Si  6.66 -6.60 -6.42
Si  1.46 -10.72  3.48
Si -4.88  6.31 -8.11
Si  4.40 -3.93  9.73
Si  4.28  1.41 10.45
Si  6.55 -6.35  6.88
Si  8.85  3.23 -6.50
Si -8.84 -0.21  7.30
Si  4.87  9.14  4.98
Si  0.92 -10.07 -5.48
Si  8.35 -2.34 -7.55
Si  0.62 -1.02 -11.44
Si -9.10 -2.51  6.59
Si -3.17 -9.83  5.11
Si -6.10 -8.55  4.74
Si  7.38  8.17 -3.48
Si  0.92 -10.07  5.63
Si -1.19 -8.43  7.84
Si  6.47  7.55 -5.94
Si -5.48 -1.95 -10.03
Si -7.77 -8.54  1.15
Si -5.12 -0.45 10.41
Si -10.19  1.04 -5.48
Si  3.69 -3.07 -10.59
Si -0.20 -6.68 -9.53
Si  4.00  6.25 -8.99
Si  5.63 -1.95 -10.03
Si -10.19  1.04  5.63
Si -1.91 -3.69 10.92
Si 10.53 -3.14  4.07
Si -7.75 -7.04  5.29
Si  1.04  2.52 11.44
Si -2.74 11.43 -0.54
Si  2.27 10.90 -3.81
Si 11.72 -1.02 -0.33
Si  5.01 -8.55 -6.37
Si -3.73  8.17  7.63
Si -3.33 10.86  3.23
Si -10.10  3.43 -5.08
Si  9.20  7.41 -0.18
Si -6.49  3.46  9.28
Si -5.12 10.66 -0.70
Si  9.81  0.79  6.62
Si -6.82 -9.69 -0.66
Si 10.90  4.42  1.57
Si -2.75  8.76 -7.55
Si -6.99 -6.17  7.40
Si  8.77 -7.84  1.99
Si -10.46  5.34 -2.19
Si -3.17 -9.83 -6.00
Si  8.29 -8.49 -1.49
Si -2.74  0.32 -11.64
Si -7.75 -7.04 -5.81
Si -0.02 11.90  1.49
Si  6.22  6.31 -8.11
Si  5.98 -0.45 10.41
Si -1.91 -3.69 -11.29
Si  2.08 11.76 -1.52
Si  4.87  9.14 -6.13
Si 10.24 -4.91 -4.00
Si -3.80 -5.14 10.22
Si  9.20 -1.43  7.65
Si -10.99 -5.01  0.06
Si  1.46 11.49  3.48
Si -5.15 -10.00 -4.51
Si -6.23  9.14  4.98
Si  0.12 -5.01 -11.05
Si  1.11 -8.18  8.90
Si -10.46 -5.77 -2.19
Si  0.62 -12.12 -0.33
Si  2.27 -11.31 -3.81
Si  4.47 10.66 -3.79
Si -3.89  4.01 -10.83
Si  0.12 -5.01 11.16
Si 10.97 -2.66 -4.74
Si  5.98 10.66 -0.70
Si -11.31  4.42  1.57
Si -10.10  3.43  6.02
Si -2.34 -7.84 -9.12
Si -3.33 -11.35  3.23
Si -6.10 -8.55 -6.37
Si 11.23 -5.01  0.06
Si  1.34 -2.86 11.88
Si -9.65  0.38 -7.62
Si  1.35  9.11 -8.17
Si  5.45 10.62  3.06
Si -1.29 -10.31  6.62
Si -7.01 -9.77  2.90
Si -5.65 10.62  3.06
Si 12.15  2.52  0.33
Si -3.80  5.97 10.22
Si -7.11 -4.86 -8.99
Si -6.70 -3.93  9.73
Si -2.25 12.14  1.69
Si -8.35  8.14  4.43
Si  5.95 -10.00 -4.51
Si -8.53 -4.40  7.98
Si  8.05 -5.02  8.10
Si -1.90  9.68  7.65
Si -11.24 -2.66 -4.74
Si -4.78 -8.33  7.98
Si -10.93 -5.07  3.29
Si -8.56 -5.49 -7.29
Si -6.82  1.41 10.45
Si -10.99  6.09  0.06
Si -8.56  5.62 -7.29
Si  3.69 -3.07 11.62
Si  4.93  4.51 -10.65
Si  4.28  1.41 -11.76
Si 10.51  4.74  5.10
Si -1.48 -1.37 -12.45
Si -0.02  0.79 12.59
Si  8.35  8.76  3.56
Si  0.12  6.09 -11.05
Si 10.24  6.20 -4.00
Si -1.48 -12.48 -1.34
Si -6.23  9.14 -6.13
Si -5.12 -11.55 -0.70
Si -3.89  4.01 11.38
Si  8.85 -7.88  4.61
Si  0.12  6.09 11.16
Si -12.59 -1.37 -1.34
Si 12.22  2.92 -2.21
Si -11.68 -3.14  4.07
Si 11.23  6.09  0.06
Si -1.29 11.90 -4.49
Si 12.45 -2.86  0.78
Si 11.29 -5.07  3.29
Si -9.76  8.25  0.78
Si  2.08  0.65 -12.62
Si  7.50 -3.54 -9.83
Si  4.40  7.17  9.73
Si -5.12 -0.45 -11.80
Si  4.61 -7.64  9.28
Si -9.76 -2.00 -8.17
Si 10.90 -6.68  1.57
Si -7.77  2.56 -9.96
Si -10.93  6.03  3.29
Si -3.61  7.57 -9.83
Si  9.92  2.67  7.84
Si  8.05  6.08  8.10
Si 12.45 -2.00  2.94
Si  4.47 -11.55 -3.79
Si  3.34  2.56 12.25
Si 10.97 -2.66  6.37
Si  8.29  2.61  9.62
Si  8.86  1.04 -9.42
Si 10.51  4.74 -6.01
Si -12.30  2.67 -3.27
Si  5.98 -11.55 -0.70
Si -2.25  1.04 12.79
Si -5.15 -10.00  6.60
Si 12.56  0.38  3.48
Si 10.53 -3.14 -7.03
Si -7.11  6.25 -8.99
Si  8.77  3.27 -9.12
Si 11.76  5.34 -2.19
Si -10.00 -8.18 -2.21
Si -6.18  4.51 -10.65
Si -6.63 10.66 -3.79
Si -2.81 -8.49  9.62
Si -1.90 -12.53 -3.45
Si  6.33 -8.33  7.98
Si -2.81  2.61 -12.60
Si  5.45 -11.60  3.06
Si -9.03  0.65  9.59
Si -11.24 -2.66  6.37
Si -12.40  0.79 -4.49
Si 11.29  6.03  3.29
Si -11.31 -6.68  1.57
Si -10.06 -8.59  0.33
Si  1.46 -10.72 -7.62
Si  5.98 -0.45 -11.80
Si  4.28 12.52 -0.66
Si 12.02  1.04 -5.48
Si -5.65 -11.60  3.06
Si 11.76 -5.77 -2.19
Si 13.18  0.65 -1.52
Si  1.34  8.25 -10.33
Si -7.41 -3.07 -10.59
Si 10.51 -6.36  5.10
Si -9.10  8.60 -4.52
Si  2.27 10.90  7.30
Si 12.02  1.04  5.63
Si -1.91  7.41 10.92
Si  4.93  4.51 11.56
Si  0.92 12.15 -5.48
Si -3.61 -3.54 12.38
Si  5.95 -10.00  6.60
Si  7.38  8.17  7.63
Si 10.24 -4.91  7.11
Si  4.10 -9.77 -8.21
Si  4.10 12.44  2.90
Si  0.92 12.15  5.63
Si  9.92 -8.43 -3.27
Si -0.20  4.42 12.68
Si -8.35  8.14 -6.67
Si  5.43  8.95  8.44
Si  4.93 -6.59 -10.65
Si -8.53  6.71  7.98
Si  8.37  0.32 10.57
Si  1.35 -13.10  2.94
Si -5.48 -1.95 12.19
Si -13.36  1.04  1.69
Si  8.86 -10.07  1.69
Si  8.85 -7.88 -6.50
Si -3.89 -7.09 -10.83
Si -13.01 -3.69 -0.18
Si -13.01 -1.43 -3.45
Si  3.34 -8.54 -9.96
Si -11.97 -4.91 -4.00
Si -5.67  8.95  8.44
Si  5.63 -1.95 12.19
Si  7.31 -5.14 10.22
Si 12.11  3.43 -5.08
Si -3.80 -5.14 -11.99
Si  7.22  4.01 -10.83
Si -11.70  4.74  5.10
