500
set: 1513.00  0.00  0.00
Si -0.49 -0.47  0.96
Si -0.33  0.40 -1.29
Si  0.24  1.90  0.60
Si -0.32 -1.92 -1.57
Si  1.13 -1.27  2.21
Si  1.12  1.05  2.48
Si -1.41 -2.52  0.60
Si  1.32  2.50 -1.57
Si  2.56  0.17 -2.21
Si -3.10  1.41 -0.60
Si -1.94 -1.11 -2.81
Si -1.21  1.25 -3.18
Si -2.57  0.01  2.82
Si -2.53  2.90  1.28
Si -1.65  2.05  3.18
Si  2.57 -2.15 -2.49
Si -4.02 -0.64 -0.96
Si -0.53 -3.36  2.48
Si  1.16  3.95  0.96
Si  4.17 -0.64 -0.96
Si -0.29  3.30 -2.81
Si  4.01  0.82  1.57
Si  4.02 -1.51  1.28
Si -4.19  0.82  1.57
Si -2.38  3.77 -0.96
Si  2.36 -3.59  1.57
Si  3.45 -3.00 -0.60
Si -4.18 -1.51  1.28
Si -1.98 -4.01 -1.29
Si  2.78  3.14  2.21
Si  0.04 -1.87  4.38
Si  0.96  0.18  4.74
Si  0.91 -4.24 -2.21
Si -3.29 -2.36  3.18
Si  1.32  4.82 -1.29
Si -3.98  2.26 -2.49
Si -2.86 -3.16 -3.18
Si -0.92  4.42  2.82
Si  5.10  1.41 -0.60
Si  1.69  2.54  4.38
Si -1.78 -0.24 -5.07
Si  4.22  2.26 -2.49
Si -2.14 -4.88  0.96
Si  2.72 -1.28 -4.74
Si -4.75 -3.00 -0.60
Si -0.13  1.85 -5.35
Si  2.52 -5.05 -0.96
Si  3.65  0.76 -4.37
Si -2.73 -0.86  5.06
Si -2.54  5.23  1.57
Si -1.45  5.82 -0.60
Si  2.00 -3.65 -4.37
Si -5.64  0.17 -2.21
Si  1.11 -0.47 -5.98
Si -0.52 -5.68  2.21
Si -2.73  1.47  5.35
Si -1.77 -2.56 -5.35
Si -1.08  3.55  5.06
Si  5.62  0.01  2.82
Si  4.90 -2.36  3.18
Si -4.55  0.76 -4.37
Si -0.69 -4.23  4.74
Si -3.99  4.58 -2.21
Si  5.67  2.90  1.28
Si  2.37 -5.92  1.28
Si  0.43  5.66 -3.18
Si -5.63 -2.15 -2.49
Si  2.58 -0.62  5.98
Si -0.14  4.17 -5.07
Si  3.98 -4.40  2.82
Si  4.21  4.58 -2.21
Si  2.77  5.46  2.48
Si  1.89  6.31  0.60
Si -5.42  3.14  2.21
Si -4.22 -4.40  2.82
Si -1.12  0.65  6.59
Si -1.97 -6.33 -1.57
Si -3.83  3.13 -4.74
Si  0.92 -2.72  6.26
Si  6.25 -1.11 -2.81
Si  1.12 -2.80 -6.27
Si  5.33 -3.16 -3.18
Si  2.57  1.70  6.26
Si  5.82  3.77 -0.96
Si -5.83 -3.59  1.57
Si  2.77  1.61 -6.27
Si  0.92 -6.56 -2.49
Si  2.61  4.59  4.74
Si -3.59 -5.52 -2.81
Si  4.37  3.13 -4.74
Si  3.81 -2.95  5.35
Si  0.00  6.46  3.18
Si  6.79 -2.52  0.60
Si -1.74  2.65 -6.59
Si -5.47 -1.28 -4.74
Si -2.90  5.17 -4.37
Si -1.84 -1.71  6.96
Si -0.20  2.70  6.96
Si -2.67  0.60 -6.96
Si -6.87  2.50 -1.57
Si -0.88  7.32  1.28
Si  1.07 -5.70 -4.74
Si -2.33  6.67 -2.49
Si  5.47 -0.86  5.06
Si  6.22 -4.01 -1.29
Si -7.07 -1.27  2.21
Si -4.38 -2.95  5.35
Si  6.55  2.05  3.18
Si -7.08  1.05  2.48
Si -3.06 -6.93  0.60
Si -3.39 -1.76 -6.59
Si -5.67 -5.05 -0.96
Si  1.80 -7.42 -0.60
Si  2.76  3.94 -5.98
Si  2.97  6.91 -1.57
Si -3.43 -4.65 -5.07
Si  4.61 -5.52 -2.81
Si -0.54 -4.88 -5.98
Si  6.98  1.25 -3.18
Si  7.71 -0.47  0.96
Si  5.46  1.47  5.35
Si -1.61 -6.28  4.38
Si  6.06 -4.88  0.96
Si  5.66  5.23  1.57
Si  0.93 -5.04  5.98
Si  7.87  0.40 -1.29
Si -1.09  5.88  5.35
Si -2.77 -3.76  6.59
Si -5.43  5.46  2.48
Si -3.97  3.79  5.98
Si -7.04  3.95  0.96
Si  3.25 -6.77  3.18
Si  6.41 -0.24 -5.07
Si  0.71 -8.00  1.57
Si -7.96  1.90  0.60
Si -5.62 -0.62  5.98
Si -6.51  2.54  4.38
Si  4.23  3.79  5.98
Si  3.82 -5.27  5.06
Si  7.87 -1.92 -1.57
Si -0.73  8.18 -0.96
Si  1.36  7.71 -2.81
Si  0.53  5.07  6.59
Si  4.80 -1.76 -6.59
Si  4.76 -4.65 -5.07
Si  1.52  6.26 -5.35
Si  1.49 -1.22  8.15
Si -5.83 -5.92  1.28
Si -6.20 -3.65 -4.37
Si  2.20  0.12 -8.15
Si -2.18 -7.77  2.48
Si -5.43  1.61 -6.27
Si -6.88  4.82 -1.29
Si -4.37 -5.27  5.06
Si -5.63  1.70  6.26
Si  5.30  5.17 -4.37
Si -1.02  5.02 -6.96
Si -8.53  0.40 -1.29
Si  5.14 -6.93  0.60
Si -5.59  4.59  4.74
Si -7.24  0.18  4.74
Si  8.43  1.90  0.60
Si -7.29 -4.24 -2.21
Si -3.77  7.55  2.21
Si  7.67 -3.36  2.48
Si  6.42 -2.56 -5.35
Si -8.69 -0.47  0.96
Si -5.22  6.91 -1.57
Si  1.27 -1.93 -8.51
Si  3.88 -3.81 -6.96
Si  3.34  6.95  4.38
Si  2.81  8.36  0.96
Si -8.52 -1.92 -1.57
Si  2.41  0.83  8.52
Si  5.53  0.60 -6.96
Si  6.75  5.82 -0.60
Si -1.27 -0.22  8.84
Si -6.31  6.31  0.60
Si -0.74 -8.65 -2.21
Si  7.27  4.42  2.82
Si -4.94 -6.77  3.18
Si -5.44  3.94 -5.98
Si  3.69 -7.57 -3.18
Si  6.22 -6.33 -1.57
Si  7.90  3.30 -2.81
Si -4.31 -3.81 -6.96
Si  4.42  7.55  2.21
Si -2.18  7.54 -4.74
Si  0.35 -8.06 -4.37
Si  5.87  6.67 -2.49
Si  0.55 -4.30 -8.15
Si -3.63 -8.42 -1.29
Si  0.76 -3.58  8.52
Si -7.09 -0.47 -5.98
Si  0.72  8.83  2.82
Si  3.14  3.19  8.15
Si  5.43 -3.76  6.59
Si -1.58  1.20 -9.12
Si  2.92  2.48 -8.51
Si  2.17 -7.36  5.35
Si -4.51 -7.57 -3.18
Si  7.12  3.55  5.06
Si -3.42 -6.97 -5.35
Si -8.16 -1.87  4.38
Si  0.57  7.96  5.06
Si -1.28  2.11  9.12
Si -3.23 -0.89 -8.85
Si -3.78  6.02 -6.27
Si  8.24 -1.87  4.38
Si -0.73 -7.13  6.26
Si -8.49  3.30 -2.81
Si  2.33 -8.81  2.82
Si -4.86  6.95  4.38
Si  0.88 -9.46 -0.96
Si -2.34  9.00 -2.21
Si  3.16 -6.17 -6.59
Si -0.53 -7.21 -6.27
Si  6.35 -1.71  6.96
Si  6.45  2.65 -6.59
Si -3.98  6.11  6.26
Si -1.59  3.52 -8.85
Si -0.10  7.07 -6.59
Si  4.57 -8.42 -1.29
Si  9.32 -1.27  2.21
Si -8.73 -3.36  2.48
Si  7.08  0.65  6.59
Si  9.32  1.05  2.48
Si  4.22  6.11  6.26
Si  4.42  6.02 -6.27
Si  2.96  9.23 -1.29
Si  0.37  4.20  8.84
Si  7.67 -5.68  2.21
Si -0.89  9.64  1.57
Si -6.39 -7.42 -0.60
Si -0.34 -1.12 -9.76
Si  7.51 -4.23  4.74
Si  8.07  1.85 -5.35
Si -2.93 -2.30  9.12
Si -7.08 -2.80 -6.27
Si -3.49 -6.12  6.96
Si -0.16 -5.63  8.15
Si -9.61 -2.52  0.60
Si  9.52  2.50 -1.57
Si -7.28 -2.72  6.26
Si -5.39  8.36  0.96
Si  4.77 -6.97 -5.35
Si -9.41  1.25 -3.18
Si  1.45  7.11  6.96
Si -8.32  1.85 -5.35
Si -3.79 -9.29  0.96
Si  1.51  8.58 -5.07
Si  3.85  4.53 -8.15
Si  6.59 -6.28  4.38
Si -5.06  3.19  8.15
Si -7.28 -6.56 -2.49
Si -7.76  5.66 -3.18
Si -6.00  0.12 -8.15
Si -2.34 -8.64  4.74
Si  6.02 -7.77  2.48
Si  1.32  0.97 -10.05
Si  4.96 -0.89 -8.85
Si -3.23 -3.21 -9.12
Si  9.36  3.95  0.96
Si  0.20 10.23 -0.60
Si -7.12 -5.70 -4.74
Si  9.11 -4.24 -2.21
Si -4.35  4.53 -8.15
Si  9.16  0.18  4.74
Si -5.28  2.48 -8.51
Si  4.41 -9.29  0.96
Si -5.79  0.83  8.52
Si -5.04 -6.17 -6.59
Si  1.31  3.29 -9.76
Si  4.71 -6.12  6.96
Si -2.92 -4.63  8.84
Si  8.06  4.17 -5.07
Si -2.32  8.20  5.98
Si  7.32  7.32  1.28
Si  0.72 -10.33  1.28
Si  0.33  1.30 10.37
Si -9.12  4.42  2.82
Si  2.37 -2.07 10.04
Si -9.84  2.05  3.18
Si -2.17 -10.09  2.21
Si  4.03  0.02  9.76
Si -10.14 -1.11 -2.81
Si -6.67  6.26 -5.35
Si -8.33  4.17 -5.07
Si -1.25  9.58 -4.37
Si -4.17  0.02  9.76
Si -0.38 -6.34 -8.51
Si -0.33 -3.44 -10.05
Si -6.71 -1.22  8.15
Si -8.72 -5.68  2.21
Si  7.11  5.88  5.35
Si -7.27 -5.04  5.98
Si -5.23  9.23 -1.29
Si -6.84  7.71 -2.81
Si  0.07  5.62 -9.12
Si  2.96 -9.93 -2.81
Si  9.51  4.82 -1.29
Si  6.02  7.54 -4.74
Si  2.08 10.07 -3.18
Si  5.26 -2.30  9.12
Si  4.06  5.24  8.52
Si -0.39 -1.07 10.73
Si  8.63  5.66 -3.18
Si -4.14  5.24  8.52
Si  3.31 -5.30 -8.85
Si  3.12 -9.06 -5.07
Si -3.78  9.87  2.48
Si  4.97 -3.21 -9.12
Si  7.66 -4.88 -5.98
Si -1.32 -3.11 10.37
Si -8.19  6.46  3.18
Si -3.94  9.00  4.74
Si -6.03 -7.36  5.35
Si  8.20  6.46  3.18
Si -8.88 -4.23  4.74
Si  8.00  2.70  6.96
Si -3.79  8.35 -5.98
Si -5.87 -8.81  2.82
Si  5.86  9.00 -2.21
Si  2.38 -4.39  9.76
Si 10.76  0.17 -2.21
Si  2.23 -8.22 -6.96
Si -2.52  4.43  9.76
Si -10.18 -4.01 -1.29
Si  4.26  9.00  4.74
Si -3.19  2.01 -10.37
Si  4.02  2.34 10.04
Si -7.48 -8.00  1.57
Si  9.31 -0.47 -5.98
Si  4.42  9.87  2.48
Si  9.88  2.54  4.38
Si -4.18  2.34 10.04
Si  7.47  8.18 -0.96
Si -10.77  0.01  2.82
Si  2.17 -9.68  5.06
Si -6.93 -1.93 -8.51
Si -9.27  3.55  5.06
Si  3.35 -2.40 -10.37
Si  3.78 -8.17  6.59
Si -0.57 -10.11 -4.74
Si  4.41  8.35 -5.98
Si  7.18  5.02 -6.96
Si -10.72  2.90  1.28
Si -9.98 -0.24 -5.07
Si -0.72 -9.45  5.98
Si  0.36  6.52  9.12
Si  6.92 -0.22  8.84
Si -8.39  2.70  6.96
Si 10.77 -2.15 -2.49
Si 10.56 -3.59  1.57
Si -10.57  3.77 -0.96
Si -2.19 -9.29 -5.98
Si -0.73 -10.97 -2.49
Si -9.64  5.82 -0.60
Si  5.27 -4.63  8.84
Si  3.53 10.72  0.60
Si -7.67  5.07  6.59
Si  1.26  3.34 10.73
Si  6.62  1.20 -9.12
Si -0.68 11.08 -2.49
Si  9.12 -2.72  6.26
Si -4.42 -8.17  6.59
Si -1.99 -5.53 -9.76
Si -11.29  1.41 -0.60
Si -4.88 -5.30 -8.85
Si -9.32  0.65  6.59
Si -3.62 -10.74 -1.57
Si  1.65 10.88  3.18
Si  5.86 -8.64  4.74
Si -10.34 -4.88  0.96
Si  4.08 -0.04 -10.73
Si -4.12 -0.04 -10.73
Si  9.12 -6.56 -2.49
Si -3.63  6.89 -8.51
Si -5.08 -9.06 -5.07
Si  9.31 -2.80 -6.27
Si -5.24 -9.93 -2.81
Si  6.61  3.52 -8.85
Si -9.97 -2.56 -5.35
Si  0.56 10.29  5.35
Si 10.97  3.14  2.21
Si  7.46 -8.65 -2.21
Si  6.91  2.11  9.12
Si -3.41  7.60  8.15
Si -8.74 -4.88 -5.98
Si 10.20 -3.65 -4.37
Si  5.00  2.01 -10.37
Si -4.84 -2.40 -10.37
Si -4.66 10.72  0.60
Si -0.89 -8.00  8.52
Si  5.88  8.20  5.98
Si -9.08  7.32  1.28
Si  0.63  9.43 -6.96
Si  1.60 -11.18  3.18
Si  2.18  9.48  6.59
Si  2.96  5.38 -10.05
Si  4.58 -10.74 -1.57
Si -5.83 -2.07 10.04
Si  0.77 11.73  1.28
Si  0.15 -11.83 -0.60
Si -2.47  4.37 -10.73
Si -7.43 -3.58  8.52
Si  9.27 -5.70 -4.74
Si  4.57  6.89 -8.51
Si  2.43 -4.45 -10.73
Si  3.49 -11.34  0.60
Si  0.06  7.93 -8.85
Si 10.72 -5.05 -0.96
Si  3.62 -6.71  9.12
Si -7.47  8.83  2.82
Si 10.08  6.31  0.60
Si -11.06 -3.16 -3.18
Si  6.03 -10.09  2.21
Si  0.75 -0.53 -11.93
Si  0.72 -6.48 10.04
Si 10.92 -1.28 -4.74
Si -3.58 11.32 -1.57
Si -7.65 -4.30 -8.15
Si -1.10 -8.71 -8.15
Si -6.68  8.58 -5.07
Si -7.32 -9.46 -0.96
Si  1.98  5.71 10.37
Si -3.26 -10.69  4.38
Si -6.74  7.11  6.96
Si  9.13 -5.04  5.98
Si -10.73  5.23  1.57
Si 11.65 -3.00 -0.60
Si  8.72  5.07  6.59
Si -10.92 -0.86  5.06
Si -7.84 -8.06 -4.37
Si  7.47 -7.13  6.26
Si  8.91 -8.00  1.57
Si -10.17 -6.33 -1.57
Si  4.79  7.60  8.15
Si -7.63  7.96  5.06
Si  5.68  4.43  9.76
Si -8.92  8.18 -0.96
Si -11.49 -2.36  3.18
Si 10.57 -5.92  1.28
Si -5.82 -4.39  9.76
Si  7.31  9.64  1.57
Si -6.11 10.07 -3.18
Si -6.88  0.97 -10.05
Si -9.94  2.65 -6.59
Si -4.58 -6.71  9.12
Si -9.28  5.88  5.35
Si -2.04 -5.48 10.73
Si  7.67 -7.21 -6.27
Si -10.93  1.47  5.35
Si -12.22 -0.64 -0.96
Si -1.55  6.42 -10.37
Si -4.71 -11.34  0.60
Si  2.94 -0.58 11.93
Si -5.96 -8.22 -6.96
Si  4.62 11.32 -1.57
Si -10.04 -1.71  6.96
Si 12.21  0.82  1.57
Si 10.78 -0.62  5.98
Si  3.32 -7.62 -9.12
Si -2.12 11.96  2.21
Si  3.17 10.67 -5.35
Si -2.53  6.75 10.04
Si -2.13 10.44 -6.27
Si 12.22 -1.51  1.28
Si -6.89  3.29 -9.76
Si -2.70  8.94 -8.15
Si 12.37 -0.64 -0.96
Si -9.81 -6.28  4.38
Si -2.33 10.52  6.26
Si 10.00 -7.42 -0.60
Si -6.02 -9.68  5.06
Si 10.96  5.46  2.48
Si  2.02  8.61  8.84
Si -12.38  0.82  1.57
Si  1.47  1.84 -12.29
Si  1.71 -6.81 -10.37
Si -7.82  4.20  8.84
Si -12.37 -1.51  1.28
Si  8.55 -8.06 -4.37
Si -5.23  5.38 -10.05
Si -0.94 -12.41  1.57
Si  1.51 -10.58 -6.59
Si -0.18 -2.58 -12.29
Si  4.94 -10.69  4.38
Si  2.04 -11.98 -3.18
Si 10.77  1.70  6.26
Si  7.86 -1.12 -9.76
Si  6.01 -9.29 -5.98
Si -9.21  5.02 -6.96
Si -3.21 11.36  4.38
Si  9.55  7.71 -2.81
Si  8.10  7.07 -6.59
Si  6.95  9.58 -4.37
Si  0.18  0.43 12.61
Si -8.93 -8.65 -2.21
Si -12.18  2.26 -2.49
