500
set: 588.00  0.00  0.00
Si  0.00  0.00  0.00
Si -0.24  0.13 -2.17
Si -1.78  1.04  0.74
Si  0.03 -2.08  0.74
Si  1.81  1.04  0.74
Si  1.53 -0.91 -2.91
Si -1.53  0.91  2.91
Si  3.58  0.00  0.00
Si -3.58  0.00  0.00
Si -1.78 -3.12  0.00
Si  1.78  3.12  0.00
Si -1.80  3.12  0.00
Si  1.80 -3.12  0.00
Si -0.27  2.21 -2.91
Si  0.27 -2.21  2.91
Si -2.05 -0.91 -2.91
Si  2.05  0.91  2.91
Si  3.34  0.13 -2.17
Si  1.56 -2.99 -2.17
Si -1.51 -1.17  3.65
Si  0.28  1.95  3.65
Si -3.56 -2.08  0.74
Si  1.54  3.25 -2.17
Si -2.02 -2.99 -2.17
Si  0.00  4.16  0.74
Si  3.61 -2.08  0.74
Si  2.08 -1.17  3.65
Si -3.83  0.13 -2.17
Si -2.05  3.25 -2.17
Si  3.31  2.21 -2.91
Si -3.31 -2.21  2.91
Si  0.25  4.03  2.91
Si -0.25 -4.03 -2.91
Si  1.29 -0.78 -5.08
Si -3.31  1.95  3.65
Si -3.85  2.21 -2.91
Si  3.85 -2.21  2.91
Si -5.36  1.04  0.74
Si -1.75 -5.20  0.74
Si  5.39  1.04  0.74
Si -3.58  4.16  0.74
Si  3.59  4.16  0.74
Si  1.83 -5.20  0.74
Si -0.52  2.34 -5.08
Si -2.30 -0.78 -5.08
Si  0.30 -4.29  3.65
Si  3.86  1.95  3.65
Si -5.12  0.91  2.91
Si  5.12 -0.91 -2.91
Si -3.33  4.03  2.91
Si  3.33 -4.03 -2.91
Si -1.26 -1.30  5.81
Si  1.26  1.30 -5.81
Si -0.52 -1.82 -5.81
Si  0.52  1.82  5.81
Si  5.36  3.12  0.00
Si -5.36 -3.12  0.00
Si -5.38  3.12  0.00
Si  5.38 -3.12  0.00
Si -0.02  6.24  0.00
Si  0.02 -6.24  0.00
Si  1.51  5.33 -2.91
Si -1.51 -5.33  2.91
Si  3.83  4.03  2.91
Si -3.83 -4.03 -2.91
Si  5.14 -2.99 -2.17
Si -5.09 -1.17  3.65
Si  3.07  2.34 -5.08
Si -2.32  1.30 -5.81
Si  2.32 -1.30  5.81
Si -5.63 -0.91 -2.91
Si  5.63  0.91  2.91
Si  2.07 -5.33  2.91
Si -2.07  5.33 -2.91
Si -0.49 -3.90 -5.08
Si -1.53  5.07  3.65
Si  5.12  3.25 -2.17
Si -0.22 -6.11 -2.17
Si -3.29 -4.29  3.65
Si  2.06  5.07  3.65
Si  0.55 -0.26  6.55
Si -5.61 -2.99 -2.17
Si -0.27  6.37 -2.17
Si  3.06 -1.82 -5.81
Si -3.06  1.82  5.81
Si  5.66 -1.17  3.65
Si  3.88 -4.29  3.65
Si -5.63  3.25 -2.17
Si -4.10  2.34 -5.08
Si  4.87 -0.78 -5.08
Si  3.09 -3.90 -5.08
Si  7.17  0.00  0.00
Si -7.17  0.00  0.00
Si  3.56  6.24  0.00
Si -3.56 -6.24  0.00
Si -3.60  6.24  0.00
Si  3.60 -6.24  0.00
Si -3.04 -0.26  6.55
Si  6.92  0.13 -2.17
Si -1.26  2.86  6.55
Si  3.36 -6.11 -2.17
Si -0.54  4.42 -5.81
Si  0.54 -4.42  5.81
Si  4.10  1.82  5.81
Si -4.10 -1.82 -5.81
Si -7.14 -2.08  0.74
Si -1.24 -3.38  6.55
Si -5.34 -5.20  0.74
Si  3.32  6.37 -2.17
Si -3.81 -6.11 -2.17
Si  2.33  2.86  6.55
Si  7.19 -2.08  0.74
Si  1.78  7.28  0.74
Si -1.80  7.28  0.74
Si  5.41 -5.20  0.74
Si  1.26  5.46 -5.08
Si -4.08 -3.90 -5.08
Si -4.84 -1.30  5.81
Si  4.84  1.30 -5.81
Si -7.41  0.13 -2.17
Si  2.35 -3.38  6.55
Si  1.28 -4.94 -5.81
Si -1.28  4.94  5.81
Si  4.13 -0.26  6.55
Si -3.85  6.37 -2.17
Si  6.89  2.21 -2.91
Si -6.89 -2.21  2.91
Si -5.88 -0.78 -5.08
Si -2.32  5.46 -5.08
Si -1.55  7.15  2.91
Si  1.55 -7.15 -2.91
Si -3.04 -4.42  5.81
Si  3.04  4.42 -5.81
Si  5.09  5.33 -2.91
Si -5.09 -5.33  2.91
Si -2.30 -4.94 -5.81
Si  2.30  4.94  5.81
Si -2.03 -7.15 -2.91
Si  2.03  7.15  2.91
Si -6.89  1.95  3.65
Si -5.11  5.07  3.65
Si  1.02  1.43 -7.98
Si -0.76 -1.69 -7.98
Si -7.44  2.21 -2.91
Si  7.44 -2.21  2.91
Si  5.66 -5.33  2.91
Si -5.66  5.33 -2.91
Si -7.16  4.16  0.74
Si  7.17  4.16  0.74
Si  0.05 -8.32  0.74
Si -1.48 -7.41  3.65
Si -4.12  4.42 -5.81
Si  4.12 -4.42  5.81
Si  5.91 -1.30  5.81
Si -5.91  1.30 -5.81
Si  5.64  5.07  3.65
Si -2.57  1.43 -7.98
Si  7.44  1.95  3.65
Si -6.92  4.03  2.91
Si  6.92 -4.03 -2.91
Si  2.10 -7.41  3.65
Si  2.82 -1.69 -7.98
Si -4.84  2.86  6.55
Si  6.65  2.34 -5.08
Si  1.31 -7.02 -5.08
Si -0.79  0.39 -8.72
Si  0.79 -0.39  8.72
Si -4.82 -3.38  6.55
Si -6.87 -4.29  3.65
Si  0.52  5.98  6.55
Si  4.85  5.46 -5.08
Si  7.42  4.03  2.91
Si -7.42 -4.03 -2.91
Si  0.29 -8.45  2.91
Si -0.29  8.45 -2.91
Si -2.27 -7.02 -5.08
Si  0.25  8.19  3.65
Si  6.65 -1.82 -5.81
Si -6.65  1.82  5.81
Si -8.94  1.04  0.74
Si  4.87 -4.94 -5.81
Si -4.87  4.94  5.81
Si  8.97  1.04  0.74
Si -3.54 -8.32  0.74
Si  5.37  7.28  0.74
Si -5.38  7.28  0.74
Si  3.63 -8.32  0.74
Si -2.79 -0.39  8.72
Si  2.79  0.39 -8.72
Si -1.01  2.73  8.72
Si  1.01 -2.73 -8.72
Si  8.70 -0.91 -2.91
Si -8.70  0.91  2.91
Si -0.79  4.55 -7.98
Si  0.57 -6.50  6.55
Si  6.67 -3.90 -5.08
Si -4.35 -1.69 -7.98
Si -5.14  7.15  2.91
Si  5.14 -7.15 -2.91
Si  5.91  2.86  6.55
Si -6.62 -0.26  6.55
Si  4.60  1.43 -7.98
Si  7.46 -4.29  3.65
Si  1.04 -4.81 -7.98
Si -3.06  5.98  6.55
Si -0.99 -3.51  8.72
Si  0.99  3.51 -8.72
Si  5.93 -3.38  6.55
Si  8.72 -2.99 -2.17
Si -8.95 -3.12  0.00
Si  8.95  3.12  0.00
Si -8.67 -1.17  3.65
Si  7.14  6.24  0.00
Si -7.14 -6.24  0.00
Si -2.57 -2.73 -8.72
Si  2.57  2.73  8.72
Si  8.97 -3.12  0.00
Si -8.97  3.12  0.00
Si  6.94 -6.11 -2.17
Si -7.68  2.34 -5.08
Si -5.90  5.46 -5.08
Si  7.19 -6.24  0.00
Si -7.19  6.24  0.00
Si  3.29  8.45 -2.91
Si -3.29 -8.45  2.91
Si -1.76 -9.36  0.00
Si  1.76  9.36  0.00
Si -0.99  0.65  9.46
Si  1.82 -9.36  0.00
Si -1.82  9.36  0.00
Si  8.70  3.25 -2.17
Si -5.61 -7.15 -2.91
Si  5.61  7.15  2.91
Si -3.33  8.19  3.65
Si -1.24 -7.54  5.81
Si  1.24  7.54 -5.81
Si  2.80  4.55 -7.98
Si  1.58 -9.23 -2.17
Si -5.88 -4.94 -5.81
Si  5.88  4.94  5.81
Si  6.90  6.37 -2.17
Si -2.54 -4.81 -7.98
Si -5.07 -7.41  3.65
Si -2.00 -9.23 -2.17
Si -3.02 -6.50  6.55
Si -9.22 -0.91 -2.91
Si  9.22  0.91  2.91
Si  3.88 -8.45  2.91
Si -3.88  8.45 -2.91
Si  2.59 -3.51  8.72
Si -2.59  3.51 -8.72
Si  3.84  8.19  3.65
Si  4.37 -0.39  8.72
Si -4.37  0.39 -8.72
Si  4.11  5.98  6.55
Si -2.34  7.54 -5.81
Si  2.34 -7.54  5.81
Si  7.69  1.82  5.81
Si -7.69 -1.82 -5.81
Si  0.82 -2.47  9.46
Si -7.39 -6.11 -2.17
Si  2.60  0.65  9.46
Si  1.51  9.49 -2.17
Si  6.62  4.42 -5.81
Si -6.62 -4.42  5.81
Si  8.45 -0.78 -5.08
Si -9.19 -2.99 -2.17
Si  4.89 -7.02 -5.08
Si  0.50  8.06  5.81
Si -0.50 -8.06 -5.81
Si -2.07  9.49 -2.17
Si -7.66 -3.90 -5.08
Si -0.54  8.58 -5.08
Si  9.24 -1.17  3.65
Si -9.21  3.25 -2.17
Si  5.68 -7.41  3.65
Si -7.43  6.37 -2.17
Si  4.15 -6.50  6.55
Si  7.71 -0.26  6.55
Si -2.77 -2.47  9.46
Si -4.37  4.55 -7.98
Si -6.15  1.43 -7.98
Si  0.79  3.77  9.46
Si  4.59 -2.73 -8.72
Si -4.59  2.73  8.72
Si  8.43  1.30 -5.81
Si -8.43 -1.30  5.81
Si -8.92 -5.20  0.74
Si  6.40 -1.69 -7.98
Si  4.62 -4.81 -7.98
Si  3.08 -8.06 -5.81
Si -3.08  8.06  5.81
Si  8.99 -5.20  0.74
Si  3.05  8.58 -5.08
Si -0.02 10.40  0.74
Si -4.57 -3.51  8.72
Si  4.57  3.51 -8.72
Si -5.86 -7.02 -5.08
Si -4.57  0.65  9.46
Si -0.77 -5.85 -8.72
Si  0.77  5.85  8.72
Si -2.79  3.77  9.46
Si  8.68  5.33 -2.91
Si -8.68 -5.33  2.91
Si -7.71  4.42 -5.81
Si  7.71 -4.42  5.81
Si -4.82 -7.54  5.81
Si  4.82  7.54 -5.81
Si -0.23 -10.27 -2.91
Si  0.23 10.27  2.91
Si -8.69  5.07  3.65
Si  4.40 -2.47  9.46
Si 10.50  0.13 -2.17
Si  4.08  8.06  5.81
Si -4.08 -8.06 -5.81
Si -10.75  0.00  0.00
Si 10.75  0.00  0.00
Si -9.46 -0.78 -5.08
Si  5.34  9.36  0.00
Si -5.34 -9.36  0.00
Si -4.12  8.58 -5.08
Si  5.16 -9.23 -2.17
Si -5.41  9.36  0.00
Si  5.41 -9.36  0.00
Si -6.38 -0.39  8.72
Si  6.38  0.39 -8.72
Si -2.81  5.85  8.72
Si  2.81 -5.85 -8.72
Si -10.72 -2.08  0.74
Si -1.03  0.52 -10.89
Si -7.12 -8.32  0.74
Si  0.81 -6.63  8.72
Si -0.81  6.63 -8.72
Si  5.10  9.49 -2.17
Si 10.78 -2.08  0.74
Si -5.59 -9.23 -2.17
Si  6.15  2.73  8.72
Si -6.15 -2.73 -8.72
Si  3.56 10.40  0.74
Si -0.96 -5.59  9.46
Si -3.60 10.40  0.74
Si  7.21 -8.32  0.74
Si -8.42  2.86  6.55
Si  9.24 -5.33  2.91
Si -9.24  5.33 -2.91
Si -6.64  5.98  6.55
Si  4.38  3.77  9.46
Si -10.48 -2.21  2.91
Si 10.48  2.21 -2.91
Si  0.99  7.67 -7.98
Si  9.22  5.07  3.65
Si  0.32 -10.53  3.65
Si -6.13 -4.81 -7.98
Si -8.40 -3.38  6.55
Si  6.38  4.55 -7.98
Si  3.36 -10.27 -2.91
Si -3.36 10.27  2.91
Si  2.55  0.52 -10.89
Si  9.49 -1.30  5.81
Si -9.49  1.30 -5.81
Si -10.99  0.13 -2.17
Si -5.93  7.54 -5.81
Si  5.93 -7.54  5.81
Si  0.77 -2.60 -10.89
Si -6.18  3.51 -8.72
Si  6.18 -3.51  8.72
Si  8.43  5.46 -5.08
Si -5.65  9.49 -2.17
Si -10.47  1.95  3.65
Si -6.87 -8.45  2.91
Si  6.87  8.45 -2.91
Si -0.74 -7.93 -7.98
Si -1.28  9.10  6.55
Si  2.62 -5.59  9.46
Si -2.77 -6.63  8.72
Si  2.77  6.63 -8.72
Si  6.18  0.65  9.46
Si -6.91  8.19  3.65
Si -3.81 -10.27 -2.91
Si  3.81 10.27  2.91
Si -6.60 -6.50  6.55
Si -0.47 -10.14 -5.08
Si  4.35  5.85  8.72
Si -4.35 -5.85 -8.72
Si -2.59  7.67 -7.98
Si -7.93 -1.69 -7.98
Si  8.45 -4.94 -5.81
Si -8.45  4.94  5.81
Si  2.30  9.10  6.55
Si  0.75  3.64 -10.89
Si  8.18  1.43 -7.98
Si -2.81 -2.60 -10.89
Si -10.74  4.16  0.74
Si 10.75  4.16  0.74
Si  8.95  7.28  0.74
Si -8.96  7.28  0.74
Si -1.73 -11.44  0.74
Si  2.84 -7.93 -7.98
Si -3.26 -10.53  3.65
Si -11.02  2.21 -2.91
Si 11.02 -2.21  2.91
Si  1.85 -11.44  0.74
Si 10.50 -4.03 -2.91
Si -10.50  4.03  2.91
Si  7.42  8.19  3.65
Si -7.46  8.45 -2.91
Si  7.46 -8.45  2.91
Si -8.72  7.15  2.91
Si  8.72 -7.15 -2.91
Si -6.35 -2.47  9.46
Si 10.23  2.34 -5.08
Si -0.74  0.52 11.63
Si  0.74 -0.52 -11.63
Si -1.21 -9.62  6.55
Si  7.69  5.98  6.55
Si -1.01  6.89  9.46
Si  3.11 -10.14 -5.08
Si 11.02  1.95  3.65
Si  3.90 -10.53  3.65
Si -4.39  6.63 -8.72
Si  4.39 -6.63  8.72
Si  7.96 -0.39  8.72
Si -7.96  0.39 -8.72
Si -2.84  3.64 -10.89
Si -4.62  0.52 -10.89
Si -10.45 -4.29  3.65
Si  2.37 -9.62  6.55
Si  9.49  2.86  6.55
Si -4.55 -5.59  9.46
Si -10.23  1.82  5.81
Si 10.23 -1.82 -5.81
Si -8.65 -7.41  3.65
Si  1.06 -2.60 11.63
Si -1.06  2.60 -11.63
Si -6.67  8.06  5.81
Si  6.67 -8.06 -5.81
Si  6.63  8.58 -5.08
Si  4.58  7.67 -7.98
Si -2.84 -0.52 -11.63
Si  2.84  0.52 11.63
Si  2.58  6.89  9.46
Si -1.55 11.31  3.65
Si -9.20 -7.15 -2.91
Si  9.20  7.15  2.91
Si  4.35 -2.60 -10.89
Si -6.37  3.77  9.46
Si -1.49 -11.57  2.91
Si  1.49 11.57 -2.91
Si  9.51 -3.38  6.55
Si  7.73 -6.50  6.55
Si -4.05 -10.14 -5.08
Si -4.33 -7.93 -7.98
Si  2.03 11.31  3.65
Si -9.48  5.46 -5.08
Si 11.00  4.03  2.91
Si -11.00 -4.03 -2.91
Si 10.26 -3.90 -5.08
Si  2.10 -11.57  2.91
Si -2.10 11.57 -2.91
Si  8.47 -7.02 -5.08
Si -10.20 -0.26  6.55
Si -7.95  4.55 -7.98
Si  0.56 -10.66  5.81
Si -0.56 10.66 -5.81
Si -9.47 -4.94 -5.81
Si  9.47  4.94  5.81
Si  2.52  2.60 -11.63
Si -2.52 -2.60 11.63
Si -4.86  9.10  6.55
Si  1.04  3.64 11.63
Si -1.04 -3.64 -11.63
Si  8.18 -2.73 -8.72
Si -8.18  2.73  8.72
Si  4.33  3.64 -10.89
Si -6.40  5.85  8.72
Si  6.40 -5.85 -8.72
Si -1.01 -5.72 -10.89
Si 10.53 -6.11 -2.17
Si 11.05 -4.29  3.65
Si  9.27 -7.41  3.65
Si 10.73  6.24  0.00
Si -10.73 -6.24  0.00
Si  8.20 -4.81 -7.98
Si -4.33  0.52 11.63
Si  4.33 -0.52 -11.63
Si  8.16  3.51 -8.72
Si -8.16 -3.51  8.72
Si 10.77 -6.24  0.00
Si -10.77  6.24  0.00
Si  2.54 -3.64 -11.63
Si -2.54  3.64 11.63
Si 10.48  6.37 -2.17
Si  0.04 -12.48  0.00
Si -0.04 12.48  0.00
Si -0.71 -1.56 12.37
Si -8.15  0.65  9.46
Si  6.13  0.52 -10.89
Si  1.06  1.56 12.37
Si  3.02 10.66 -5.81
Si -3.02 -10.66  5.81
