500
set: 21.00  0.00  0.00
Si  0.00  0.00  0.00
Si -1.26 -2.07  0.00
Si  1.26  2.07  0.00
Si  0.05  0.16  2.44
Si -0.05 -0.16 -2.44
Si -1.46  2.07  0.00
Si  1.46 -2.07  0.00
Si -2.72  0.00  0.00
Si  2.72  0.00  0.00
Si -1.21 -1.91  2.44
Si  1.21  1.91 -2.44
Si -1.51  1.91 -2.44
Si  1.51 -1.91  2.44
Si  1.30  2.23  2.44
Si -1.30 -2.23 -2.44
Si -1.41  2.23  2.44
Si  1.41 -2.23 -2.44
Si -2.67  0.16  2.44
Si  2.67 -0.16 -2.44
Si  2.77  0.16  2.44
Si -2.77 -0.16 -2.44
Si -0.21  4.14  0.00
Si  0.21 -4.14  0.00
Si  3.97  2.07  0.00
Si -3.97 -2.07  0.00
Si -4.18  2.07  0.00
Si  4.18 -2.07  0.00
Si -0.25  3.98 -2.44
Si  0.25 -3.98  2.44
Si  2.51  4.14  0.00
Si -2.51 -4.14  0.00
Si -0.10 -0.32 -4.89
Si  0.10  0.32  4.89
Si  0.16 -4.30 -2.44
Si -0.16  4.30  2.44
Si  3.93  1.91 -2.44
Si -3.93 -1.91  2.44
Si -2.92  4.14  0.00
Si  2.92 -4.14  0.00
Si  4.02  2.23  2.44
Si -4.02 -2.23 -2.44
Si -4.23  1.91 -2.44
Si  4.23 -1.91  2.44
Si  2.46  3.98 -2.44
Si -2.46 -3.98  2.44
Si -4.13  2.23  2.44
Si  4.13 -2.23 -2.44
Si -1.16 -1.75  4.89
Si  1.16  1.75 -4.89
Si -1.56  1.75 -4.89
Si  1.56 -1.75  4.89
Si  5.44  0.00  0.00
Si -5.44  0.00  0.00
Si -2.97  3.98 -2.44
Si  2.97 -3.98  2.44
Si -2.62  0.32  4.89
Si  2.62 -0.32 -4.89
Si -2.56 -4.30 -2.44
Si  2.56  4.30  2.44
Si  1.35  2.39  4.89
Si -1.35 -2.39 -4.89
Si  1.37 -2.39 -4.89
Si -1.37  2.39  4.89
Si -2.81 -0.32 -4.89
Si  2.81  0.32  4.89
Si -2.88  4.30  2.44
Si  2.88 -4.30 -2.44
Si  5.39 -0.16 -2.44
Si -5.39  0.16  2.44
Si  5.48  0.16  2.44
Si -5.48 -0.16 -2.44
Si  0.30 -3.82  4.89
Si -0.30  3.82 -4.89
Si  1.05  6.21  0.00
Si -1.05 -6.21  0.00
Si  1.67 -6.21  0.00
Si -1.67  6.21  0.00
Si  3.88  1.75 -4.89
Si -3.88 -1.75  4.89
Si  1.00  6.05 -2.44
Si -1.00 -6.05  2.44
Si -0.11  4.46  4.89
Si  0.11 -4.46 -4.89
Si -2.42 -3.82  4.89
Si  2.42  3.82 -4.89
Si  5.23  4.14  0.00
Si -5.23 -4.14  0.00
Si  4.28 -1.75  4.89
Si -4.28  1.75 -4.89
Si -1.72  6.05 -2.44
Si  1.72 -6.05  2.44
Si  4.07  2.39  4.89
Si -4.07 -2.39 -4.89
Si -4.08  2.39  4.89
Si  4.08 -2.39 -4.89
Si -3.02  3.82 -4.89
Si  3.02 -3.82  4.89
Si -1.10 -6.37 -2.44
Si  1.10  6.37  2.44
Si  5.18  3.98 -2.44
Si -5.18 -3.98  2.44
Si  5.64 -4.14  0.00
Si -5.64  4.14  0.00
Si  6.69  2.07  0.00
Si -6.69 -2.07  0.00
Si  1.62 -6.37 -2.44
Si -1.62  6.37  2.44
Si -2.61 -4.46 -4.89
Si  2.61  4.46  4.89
Si  2.83 -4.46 -4.89
Si -2.83  4.46  4.89
Si  6.90 -2.07  0.00
Si -6.90  2.07  0.00
Si  5.28  4.30  2.44
Si -5.28 -4.30 -2.44
Si -5.34  0.32  4.89
Si  5.34 -0.32 -4.89
Si -3.77 -6.21  0.00
Si  3.77  6.21  0.00
Si -6.64 -1.91  2.44
Si  6.64  1.91 -2.44
Si -0.14 -0.47 -7.33
Si  0.14  0.47  7.33
Si -5.69  3.98 -2.44
Si  5.69 -3.98  2.44
Si  5.53  0.32  4.89
Si -5.53 -0.32 -4.89
Si -5.59  4.30  2.44
Si  5.59 -4.30 -2.44
Si -6.74 -2.23 -2.44
Si  6.74  2.23  2.44
Si -3.72 -6.05  2.44
Si  3.72  6.05 -2.44
Si -1.11 -1.59  7.33
Si  1.11  1.59 -7.33
Si  4.39 -6.21  0.00
Si -4.39  6.21  0.00
Si  6.85 -2.23 -2.44
Si -6.85  2.23  2.44
Si -6.95  1.91 -2.44
Si  6.95 -1.91  2.44
Si  1.61 -1.59  7.33
Si -1.61  1.59 -7.33
Si  0.95  5.89 -4.89
Si -0.95 -5.89  4.89
Si  2.57 -0.47 -7.33
Si -2.57  0.47  7.33
Si  3.82  6.37  2.44
Si -3.82 -6.37 -2.44
Si  1.76 -5.89  4.89
Si -1.76  5.89 -4.89
Si  1.32 -2.54 -7.33
Si -1.32  2.54  7.33
Si  2.86  0.47  7.33
Si -2.86 -0.47 -7.33
Si -1.40 -2.54 -7.33
Si  1.40  2.54  7.33
Si -4.43  6.05 -2.44
Si  4.43 -6.05  2.44
Si  5.13  3.82 -4.89
Si -5.13 -3.82  4.89
Si -4.34  6.37  2.44
Si  4.34 -6.37 -2.44
Si -8.15  0.00  0.00
Si  8.15  0.00  0.00
Si -0.35  3.67 -7.33
Si  0.35 -3.67  7.33
Si  1.15  6.53  4.89
Si -1.15 -6.53 -4.89
Si  0.41 -8.28  0.00
Si -0.41  8.28  0.00
Si -1.57  6.53  4.89
Si  1.57 -6.53 -4.89
Si  6.59  1.75 -4.89
Si -6.59 -1.75  4.89
Si  3.83  1.59 -7.33
Si -3.83 -1.59  7.33
Si  5.74 -3.82  4.89
Si -5.74  3.82 -4.89
Si  8.11 -0.16 -2.44
Si -8.11  0.16  2.44
Si -3.67 -5.89  4.89
Si  3.67  5.89 -4.89
Si  5.33  4.46  4.89
Si -5.33 -4.46 -4.89
Si  0.46 -8.12  2.44
Si -0.46  8.12 -2.44
Si -2.37 -3.67  7.33
Si  2.37  3.67 -7.33
Si  8.20  0.16  2.44
Si -8.20 -0.16 -2.44
Si  2.31  8.28  0.00
Si -2.31 -8.28  0.00
Si -5.55  4.46  4.89
Si  5.55 -4.46 -4.89
Si -4.33  1.59 -7.33
Si  4.33 -1.59  7.33
Si  0.06 -4.62 -7.33
Si -0.06  4.62  7.33
Si  6.79  2.39  4.89
Si -6.79 -2.39 -4.89
Si  6.80 -2.39 -4.89
Si -6.80  2.39  4.89
Si -6.99  1.75 -4.89
Si  6.99 -1.75  4.89
Si  4.04 -2.54 -7.33
Si -4.04  2.54  7.33
Si -3.07  3.67 -7.33
Si  3.07 -3.67  7.33
Si  2.26  8.12 -2.44
Si -2.26 -8.12  2.44
Si  4.12  2.54  7.33
Si -4.12 -2.54 -7.33
Si -0.36  8.44  2.44
Si  0.36 -8.44 -2.44
Si -3.13  8.28  0.00
Si  3.13 -8.28  0.00
Si -4.48  5.89 -4.89
Si  4.48 -5.89  4.89
Si  7.95  4.14  0.00
Si -7.95 -4.14  0.00
Si  6.49  6.21  0.00
Si -6.49 -6.21  0.00
Si  3.86  6.53  4.89
Si -3.86 -6.53 -4.89
Si -5.29  0.47  7.33
Si  5.29 -0.47 -7.33
Si -3.18  8.12 -2.44
Si  3.18 -8.12  2.44
Si  2.66  4.62  7.33
Si -2.66 -4.62 -7.33
Si -2.35 -8.44 -2.44
Si  2.35  8.44  2.44
Si  2.78 -4.62 -7.33
Si -2.78  4.62  7.33
Si  6.44  6.05 -2.44
Si -6.44 -6.05  2.44
Si  7.90  3.98 -2.44
Si -7.90 -3.98  2.44
Si -4.29  6.53  4.89
Si  4.29 -6.53 -4.89
Si  5.58  0.47  7.33
Si -5.58 -0.47 -7.33
Si  3.08 -8.44 -2.44
Si -3.08  8.44  2.44
Si -8.36  4.14  0.00
Si  8.36 -4.14  0.00
Si -0.91 -5.74  7.33
Si  0.91  5.74 -7.33
Si -0.51  7.96 -4.89
Si  0.51 -7.96  4.89
Si  8.00  4.30  2.44
Si -8.00 -4.30 -2.44
Si -8.06  0.32  4.89
Si  8.06 -0.32 -4.89
Si -7.10  6.21  0.00
Si  7.10 -6.21  0.00
Si  6.53  6.37  2.44
Si -6.53 -6.37 -2.44
Si  1.81 -5.74  7.33
Si -1.81  5.74 -7.33
Si -8.25 -0.32 -4.89
Si  8.25  0.32  4.89
Si  2.21  7.96 -4.89
Si -2.21 -7.96  4.89
Si -8.41  3.98 -2.44
Si  8.41 -3.98  2.44
Si -9.41 -2.07  0.00
Si  9.41  2.07  0.00
Si -5.08 -3.67  7.33
Si  5.08  3.67 -7.33
Si -8.31  4.30  2.44
Si  8.31 -4.30 -2.44
Si -7.15  6.05 -2.44
Si  7.15 -6.05  2.44
Si -5.02 -8.28  0.00
Si  5.02  8.28  0.00
Si  0.19  0.63  9.78
Si -0.19 -0.63 -9.78
Si -7.06  6.37  2.44
Si  7.06 -6.37 -2.44
Si  4.97  8.12 -2.44
Si -4.97 -8.12  2.44
Si -9.62  2.07  0.00
Si  9.62 -2.07  0.00
Si  9.36  1.91 -2.44
Si -9.36 -1.91  2.44
Si -3.23  7.96 -4.89
Si  3.23 -7.96  4.89
Si -0.32  8.60  4.89
Si  0.32 -8.60 -4.89
Si  1.06  1.44 -9.78
Si -1.06 -1.44  9.78
Si -6.55 -1.59  7.33
Si  6.55  1.59 -7.33
Si -6.39 -5.89  4.89
Si  6.39  5.89 -4.89
Si  3.62  5.74 -7.33
Si -3.62 -5.74  7.33
Si  1.19  6.69  7.33
Si -1.19 -6.69 -7.33
Si -7.85 -3.82  4.89
Si  7.85  3.82 -4.89
Si  1.66 -1.44  9.78
Si -1.66  1.44 -9.78
Si  9.46  2.23  2.44
Si -9.46 -2.23 -2.44
Si  5.79 -3.67  7.33
Si -5.79  3.67 -7.33
Si  1.52 -6.69 -7.33
Si -1.52  6.69  7.33
Si  2.52 -0.63 -9.78
Si -2.52  0.63  9.78
Si  9.57 -2.23 -2.44
Si -9.57  2.23  2.44
Si  5.85 -8.28  0.00
Si -5.85  8.28  0.00
Si  5.07  8.44  2.44
Si -5.07 -8.44 -2.44
Si  9.66 -1.91  2.44
Si -9.66  1.91 -2.44
Si  2.40  8.60  4.89
Si -2.40 -8.60 -4.89
Si  5.37  4.62  7.33
Si -5.37 -4.62 -7.33
Si -2.91 -0.63 -9.78
Si  2.91  0.63  9.78
Si -1.27  2.70  9.78
Si  1.27 -2.70 -9.78
Si -1.45 -2.70 -9.78
Si  1.45  2.70  9.78
Si -5.50  4.62  7.33
Si  5.50 -4.62 -7.33
Si  6.75 -2.54 -7.33
Si -6.75  2.54  7.33
Si -7.04  1.59 -7.33
Si  7.04 -1.59  7.33
Si -5.90  8.12 -2.44
Si  5.90 -8.12  2.44
Si  6.84  2.54  7.33
Si -6.84 -2.54 -7.33
Si -3.03  8.60  4.89
Si  3.03 -8.60 -4.89
Si -4.53  5.74 -7.33
Si  4.53 -5.74  7.33
Si -0.84 -10.35  0.00
Si  0.84 10.35  0.00
Si -0.40  3.51 -9.78
Si  0.40 -3.51  9.78
Si -8.04 -4.46 -4.89
Si  8.04  4.46  4.89
Si -6.58 -6.53 -4.89
Si  6.58  6.53  4.89
Si  8.46 -3.82  4.89
Si -8.46  3.82 -4.89
Si -7.20  5.89 -4.89
Si  7.20 -5.89  4.89
Si  0.80 10.19 -2.44
Si -0.80 -10.19  2.44
Si  1.87 -10.35  0.00
Si -1.87 10.35  0.00
Si -5.80  8.44  2.44
Si  5.80 -8.44 -2.44
Si -4.93 -7.96  4.89
Si  4.93  7.96 -4.89
Si -3.78 -1.44  9.78
Si  3.78  1.44 -9.78
Si  8.26 -4.46 -4.89
Si -8.26  4.46  4.89
Si  2.32  3.51 -9.78
Si -2.32 -3.51  9.78
Si  1.92 -10.19  2.44
Si -1.92 10.19 -2.44
Si -9.31 -1.75  4.89
Si  9.31  1.75 -4.89
Si -3.91 -6.69 -7.33
Si  3.91  6.69  7.33
Si -0.56  7.81 -7.33
Si  0.56 -7.81  7.33
Si -7.01  6.53  4.89
Si  7.01 -6.53 -4.89
Si -4.24  6.69  7.33
Si  4.24 -6.69 -7.33
Si  4.37 -1.44  9.78
Si -4.37  1.44 -9.78
Si -0.89 -10.51 -2.44
Si  0.89 10.51  2.44
Si  3.12 -3.51  9.78
Si -3.12  3.51 -9.78
Si  8.01 -0.47 -7.33
Si -8.01  0.47  7.33
Si -10.87  0.00  0.00
Si 10.87  0.00  0.00
Si  0.01 -4.77 -9.78
Si -0.01  4.77  9.78
Si -3.99  2.70  9.78
Si  3.99 -2.70 -9.78
Si  2.16  7.81 -7.33
Si -2.16 -7.81  7.33
Si -1.83 10.51  2.44
Si  1.83 -10.51 -2.44
Si  3.56 10.35  0.00
Si -3.56 -10.35  0.00
Si -9.51 -2.39 -4.89
Si  9.51  2.39  4.89
Si -9.52  2.39  4.89
Si  9.52 -2.39 -4.89
Si  4.17  2.70  9.78
Si -4.17 -2.70 -9.78
Si  9.71 -1.75  4.89
Si -9.71  1.75 -4.89
Si  3.51 10.19 -2.44
Si -3.51 -10.19  2.44
Si -5.95  7.96 -4.89
Si  5.95 -7.96  4.89
Si -8.30 -0.47 -7.33
Si  8.30  0.47  7.33
Si -10.82  0.16  2.44
Si 10.82 -0.16 -2.44
Si  9.20  6.21  0.00
Si -9.20 -6.21  0.00
Si -5.24  0.63  9.78
Si  5.24 -0.63 -9.78
Si -5.12 -8.60 -4.89
Si  5.12  8.60  4.89
Si -0.75 -10.04  4.89
Si  0.75 10.04 -4.89
Si 10.92  0.16  2.44
Si -10.92 -0.16 -2.44
Si -3.27  7.81 -7.33
Si  3.27 -7.81  7.33
Si -2.71 -4.77 -9.78
Si  2.71  4.77  9.78
Si  2.73 -4.77 -9.78
Si -2.73  4.77  9.78
Si -9.15 -6.05  2.44
Si  9.15  6.05 -2.44
Si  6.34  5.74 -7.33
Si -6.34 -5.74  7.33
Si -0.86 -5.58  9.78
Si  0.86  5.58 -9.78
Si -5.63 -0.63 -9.78
Si  5.63  0.63  9.78
Si -7.80 -3.67  7.33
Si  7.80  3.67 -7.33
Si -4.59 10.35  0.00
Si  4.59 -10.35  0.00
Si  1.97 -10.04  4.89
Si -1.97 10.04 -4.89
Si -7.74 -8.28  0.00
Si  7.74  8.28  0.00
Si -3.61 -10.51 -2.44
Si  3.61 10.51  2.44
Si -1.86  5.58 -9.78
Si  1.86 -5.58  9.78
Si  0.27 -8.76 -7.33
Si -0.27  8.76  7.33
Si  5.75 -8.60 -4.89
Si -5.75  8.60  4.89
Si 10.67  4.14  0.00
Si -10.67 -4.14  0.00
Si  7.69  8.12 -2.44
Si -7.69 -8.12  2.44
Si -4.64 10.19 -2.44
Si  4.64 -10.19  2.44
Si  9.25  6.37  2.44
Si -9.25 -6.37 -2.44
Si -5.04 -3.51  9.78
Si  5.04  3.51 -9.78
Si 10.62  3.98 -2.44
Si -10.62 -3.98  2.44
Si -9.82  6.21  0.00
Si  9.82 -6.21  0.00
Si -2.45 -8.76 -7.33
Si  2.45  8.76  7.33
Si -3.46 -10.04  4.89
Si  3.46 10.04 -4.89
Si -4.54 10.51  2.44
Si  4.54 -10.51 -2.44
Si -7.79 -8.44 -2.44
Si  7.79  8.44  2.44
Si -4.88 -7.81  7.33
Si  4.88  7.81 -7.33
Si -0.94 -10.67 -4.89
Si  0.94 10.67  4.89
Si -7.25  5.74 -7.33
Si  7.25 -5.74  7.33
Si -10.71 -4.30 -2.44
Si 10.71  4.30  2.44
Si -2.99  8.76  7.33
Si  2.99 -8.76 -7.33
Si  3.58  5.58 -9.78
Si -3.58 -5.58  9.78
Si  8.51 -3.67  7.33
Si -8.51  3.67 -7.33
Si -6.50 -1.44  9.78
Si  6.50  1.44 -9.78
Si 11.08 -4.14  0.00
Si -11.08  4.14  0.00
Si -9.87  6.05 -2.44
