500
set: 523.00  0.00  0.00
Si  0.00  0.00  0.00
Si  1.88  1.08  0.77
Si -0.07  0.04 -2.31
Si -1.97  1.08  0.77
Si -0.03 -2.27  0.77
Si -1.90  1.04  3.08
Si  1.90 -1.04 -3.08
Si  1.95  1.04  3.08
Si -1.95 -1.04 -3.08
Si  3.85  0.00  0.00
Si -3.85  0.00  0.00
Si -0.05  2.31 -3.08
Si  0.05 -2.31  3.08
Si  1.91  3.36  0.00
Si -1.91 -3.36  0.00
Si -1.94  3.36  0.00
Si  1.94 -3.36  0.00
Si -0.02  2.13  3.84
Si  3.77  0.04 -2.31
Si  1.87 -3.32 -2.31
Si  1.92 -1.23  3.84
Si -1.93 -1.23  3.84
Si  1.83  3.40 -2.31
Si -1.98 -3.32 -2.31
Si -0.07  4.44  0.77
Si  3.82 -2.27  0.77
Si -3.92  0.04 -2.31
Si -3.88 -2.27  0.77
Si -2.02  3.40 -2.31
Si -0.01 -4.40 -3.08
Si  0.01  4.40  3.08
Si  3.80  2.31 -3.08
Si -3.80 -2.31  3.08
Si -3.90  2.31 -3.08
Si  3.90 -2.31  3.08
Si  1.82 -1.01 -5.39
Si  3.83  2.13  3.84
Si -2.02 -1.01 -5.39
Si -3.87  2.13  3.84
Si  5.73  1.08  0.77
Si -0.12  2.35 -5.39
Si  3.78  4.44  0.77
Si -5.82  1.08  0.77
Si -3.92  4.44  0.77
Si  0.02 -4.59  3.84
Si  1.92 -5.63  0.77
Si -1.93 -5.63  0.77
Si -0.05 -2.09 -6.15
Si  0.05  2.09  6.15
Si -1.85 -1.27  6.15
Si  1.85  1.27 -6.15
Si  2.00 -1.27  6.15
Si -2.00  1.27 -6.15
Si  5.75 -1.04 -3.08
Si -5.75  1.04  3.08
Si -3.84  4.40  3.08
Si  3.84 -4.40 -3.08
Si -3.86 -4.40 -3.08
Si  3.86  4.40  3.08
Si -5.80 -1.04 -3.08
Si  5.80  1.04  3.08
Si -5.75 -3.36  0.00
Si  5.75  3.36  0.00
Si  5.79 -3.36  0.00
Si -5.79  3.36  0.00
Si -1.86 -5.67  3.08
Si  1.86  5.67 -3.08
Si  0.04 -6.72  0.00
Si -0.04  6.72  0.00
Si  1.99 -5.67  3.08
Si -1.99  5.67 -3.08
Si  0.03 -0.18  6.92
Si -0.08 -4.37 -5.39
Si  1.88  5.49  3.84
Si  3.73  2.35 -5.39
Si -1.97  5.49  3.84
Si  5.72 -3.32 -2.31
Si  5.68  3.40 -2.31
Si  5.77 -1.23  3.84
Si -5.77 -1.23  3.84
Si -0.04 -6.68 -2.31
Si -3.97  2.35 -5.39
Si -5.83 -3.32 -2.31
Si -3.83 -4.59  3.84
Si  3.87 -4.59  3.84
Si -0.11  6.76 -2.31
Si -5.87  3.40 -2.31
Si -3.79  2.09  6.15
Si  3.79 -2.09 -6.15
Si  3.90  2.09  6.15
Si -3.90 -2.09 -6.15
Si -7.70  0.00  0.00
Si  7.70  0.00  0.00
Si  0.09 -4.63  6.15
Si -0.09  4.63 -6.15
Si  3.81  6.72  0.00
Si -3.81 -6.72  0.00
Si -3.89  6.72  0.00
Si  3.89 -6.72  0.00
Si -1.92  3.17  6.92
Si  1.93  3.17  6.92
Si  5.67 -1.01 -5.39
Si  3.77 -4.37 -5.39
Si -3.82 -0.18  6.92
Si  3.88 -0.18  6.92
Si  7.62  0.04 -2.31
Si -3.93 -4.37 -5.39
Si -1.88 -3.54  6.92
Si  1.97 -3.54  6.92
Si  3.81 -6.68 -2.31
Si -5.87 -1.01 -5.39
Si  7.67 -2.27  0.77
Si  1.84  7.80  0.77
Si  1.78  5.71 -5.39
Si  3.74  6.76 -2.31
Si -3.88 -6.68 -2.31
Si -7.73 -2.27  0.77
Si -2.01  7.80  0.77
Si  5.76 -5.63  0.77
Si -7.77  0.04 -2.31
Si -5.78 -5.63  0.77
Si -2.06  5.71 -5.39
Si -3.96  6.76 -2.31
Si -1.89  5.45  6.15
Si  1.89 -5.45 -6.15
Si -1.96 -5.45 -6.15
Si  1.96  5.45  6.15
Si  5.70  1.27 -6.15
Si -5.70 -1.27  6.15
Si  7.65  2.31 -3.08
Si -7.65 -2.31  3.08
Si  1.91  7.76  3.08
Si -1.91 -7.76 -3.08
Si -3.76 -4.63  6.15
Si  3.76  4.63 -6.15
Si -1.94  7.76  3.08
Si  1.94 -7.76 -3.08
Si  5.85 -1.27  6.15
Si -5.85  1.27 -6.15
Si -5.71 -5.67  3.08
Si  5.71  5.67 -3.08
Si -7.74  2.31 -3.08
Si  7.74 -2.31  3.08
Si -3.94  4.63 -6.15
Si  3.94 -4.63  6.15
Si -5.84  5.67 -3.08
Si  5.84 -5.67  3.08
Si -0.13 -2.05 -8.46
Si  1.78  1.31 -8.46
Si -2.07  1.31 -8.46
Si  5.73  5.49  3.84
Si  7.68  2.13  3.84
Si  7.63  4.44  0.77
Si -5.81  5.49  3.84
Si -7.72  2.13  3.84
Si -7.76  4.44  0.77
Si  0.01 -8.99  0.77
Si -1.89 -7.95  3.84
Si  1.96 -7.95  3.84
Si -0.10  0.22 -9.23
Si  0.10 -0.22  9.23
Si  7.69 -4.40 -3.08
Si -7.69  4.40  3.08
Si  7.71  4.40  3.08
Si -7.71 -4.40 -3.08
Si  3.72 -2.05 -8.46
Si -0.01  6.53  6.92
Si  0.09 -9.03  3.08
Si -0.09  9.03 -3.08
Si -5.77  3.17  6.92
Si  5.78  3.17  6.92
Si -3.98 -2.05 -8.46
Si  7.58  2.35 -5.39
Si  1.86 -7.72 -5.39
Si -1.99 -7.72 -5.39
Si -0.06  8.85  3.84
Si -5.73 -3.54  6.92
Si  5.63  5.71 -5.39
Si  9.57  1.08  0.77
Si -0.17  4.67 -8.46
Si  5.69  7.80  0.77
Si  5.82 -3.54  6.92
Si -7.68 -4.59  3.84
Si -9.67  1.08  0.77
Si  7.72 -4.59  3.84
Si  0.07 -6.90  6.92
Si -7.82  2.35 -5.39
Si -5.86  7.80  0.77
Si -3.84 -8.99  0.77
Si  3.86 -8.99  0.77
Si -5.91  5.71 -5.39
Si -1.84  3.13  9.23
Si  1.84 -3.13 -9.23
Si -2.00 -3.13 -9.23
Si  2.00  3.13  9.23
Si  3.75  0.22 -9.23
Si -3.75 -0.22  9.23
Si -5.74  5.45  6.15
Si  5.74 -5.45 -6.15
Si -7.64  2.09  6.15
Si  7.64 -2.09 -6.15
Si  3.95 -0.22  9.23
Si -3.95  0.22 -9.23
Si -5.81 -5.45 -6.15
Si  5.81  5.45  6.15
Si -1.80 -3.58  9.23
Si  1.80  3.58 -9.23
Si  2.04 -3.58  9.23
Si -2.04  3.58 -9.23
Si -7.75 -2.09 -6.15
Si  7.75  2.09  6.15
Si -9.60  1.04  3.08
Si  9.60 -1.04 -3.08
Si  5.76  7.76  3.08
Si -5.76 -7.76 -3.08
Si -5.79  7.76  3.08
Si  5.79 -7.76 -3.08
Si -9.60 -3.36  0.00
Si  9.60  3.36  0.00
Si -9.65 -1.04 -3.08
Si  9.65  1.04  3.08
Si  7.66  6.72  0.00
Si -7.66 -6.72  0.00
Si -1.87  0.86 10.00
Si  1.82 -5.41 -8.46
Si -9.64  3.36  0.00
Si  9.64 -3.36  0.00
Si  1.98  0.86 10.00
Si  1.81  7.99 -6.15
Si -1.81 -7.99  6.15
Si -7.74  6.72  0.00
Si  7.74 -6.72  0.00
Si  5.63  1.31 -8.46
Si  1.87 10.08  0.00
Si -1.87 -10.08  0.00
Si -2.03 -5.41 -8.46
Si  3.76  9.03 -3.08
Si -3.76 -9.03  3.08
Si  3.83  6.53  6.92
Si -1.98 10.08  0.00
Si  1.98 -10.08  0.00
Si -3.86  6.53  6.92
Si -2.04  7.99 -6.15
Si  2.04 -7.99  6.15
Si  7.62 -4.37 -5.39
Si  0.07 -2.50 10.00
Si  3.93 -9.03  3.08
Si -3.93  9.03 -3.08
Si -7.67 -0.18  6.92
Si  3.68  4.67 -8.46
Si  3.79  8.85  3.84
Si  7.72 -0.18  6.92
Si  9.53  3.40 -2.31
Si  9.57 -3.32 -2.31
Si -3.91  8.85  3.84
Si -5.92  1.31 -8.46
Si  7.58  6.76 -2.31
Si -7.78 -4.37 -5.39
Si  7.66 -6.68 -2.31
Si  9.62 -1.23  3.84
Si -9.62 -1.23  3.84
Si -4.02  4.67 -8.46
Si  1.91 -10.04 -2.31
Si -7.73 -6.68 -2.31
Si -3.78 -6.90  6.92
Si -1.94 -10.04 -2.31
Si -9.68 -3.32 -2.31
Si -5.74 -7.95  3.84
Si  3.91 -6.90  6.92
Si  1.79 10.12 -2.31
Si -9.72  3.40 -2.31
Si -0.16  9.07 -5.39
Si  5.81 -7.95  3.84
Si -2.06 10.12 -2.31
Si -7.81  6.76 -2.31
Si  0.01  8.81  6.15
Si -0.01 -8.81 -6.15
Si -7.61 -4.63  6.15
Si  7.61  4.63 -6.15
Si  0.03  4.22 10.00
Si  7.79 -4.63  6.15
Si -7.79  4.63 -6.15
Si -3.78 -2.50 10.00
Si  9.52 -1.01 -5.39
Si  5.71 -7.72 -5.39
Si  3.92 -2.50 10.00
Si -5.83 -7.72 -5.39
Si -9.72 -1.01 -5.39
Si  9.61 -5.63  0.77
Si  3.69  9.07 -5.39
Si -9.63 -5.63  0.77
Si -0.11 11.16  0.77
Si -4.01  9.07 -5.39
Si  0.06  6.49  9.23
Si -0.06 -6.49 -9.23
Si -5.69  3.13  9.23
Si  5.69 -3.13 -9.23
Si  5.85  3.13  9.23
Si -5.85 -3.13 -9.23
Si  5.65  3.58 -9.23
Si -5.65 -3.58  9.23
Si -3.83  8.81  6.15
Si  3.83 -8.81 -6.15
Si -3.86 -8.81 -6.15
Si  3.86  8.81  6.15
Si  9.55  1.27 -6.15
Si -9.55 -1.27  6.15
Si -3.82  4.22 10.00
Si -5.89  3.58 -9.23
Si  5.89 -3.58  9.23
Si  3.88  4.22 10.00
Si  9.56  5.67 -3.08
Si -9.56 -5.67  3.08
Si  5.67 -5.41 -8.46
Si  0.03 -11.12 -3.08
Si -0.03 11.12  3.08
Si  7.57 -2.05 -8.46
Si -0.17  0.26 -11.54
Si -11.55  0.00  0.00
Si 11.55  0.00  0.00
Si  0.14 -6.94  9.23
Si -0.14  6.94 -9.23
Si -5.72  0.86 10.00
Si -9.70  1.27 -6.15
Si  9.70 -1.27  6.15
Si  5.66  7.99 -6.15
Si -5.66 -7.99  6.15
Si -5.71 -10.08  0.00
Si  5.71 10.08  0.00
Si  5.83  0.86 10.00
Si -9.69  5.67 -3.08
Si  9.69 -5.67  3.08
Si -5.88 -5.41 -8.46
Si  5.83 -10.08  0.00
Si -5.83 10.08  0.00
Si -5.89  7.99 -6.15
Si  5.89 -7.99  6.15
Si  9.58  5.49  3.84
Si 11.47  0.04 -2.31
Si -7.83 -2.05 -8.46
Si -1.83 -5.86 10.00
Si -9.66  5.49  3.84
Si  2.02 -5.86 10.00
Si 11.52 -2.27  0.77
Si  1.74  8.03 -8.46
Si  3.74 11.16  0.77
Si  5.76 -10.04 -2.31
Si  5.64 10.12 -2.31
Si -5.79 -10.04 -2.31
Si -11.57 -2.27  0.77
Si -11.62  0.04 -2.31
Si -2.11  8.03 -8.46
Si -7.69 -8.99  0.77
Si -3.96 11.16  0.77
Si  7.71 -8.99  0.77
Si -3.79  6.49  9.23
Si  3.79 -6.49 -9.23
Si -5.91 10.12 -2.31
Si  0.06 -11.31  3.84
Si -3.91 -6.49 -9.23
Si  3.91  6.49  9.23
Si  7.60  0.22 -9.23
Si -7.60 -0.22  9.23
Si  1.77 -3.10 -11.54
Si -7.80  0.22 -9.23
Si  7.80 -0.22  9.23
Si  3.67  0.26 -11.54
Si 11.50  2.31 -3.08
Si -11.50 -2.31  3.08
Si -2.08 -3.10 -11.54
Si  3.71  6.94 -9.23
Si -3.71 -6.94  9.23
Si -3.82 -11.12 -3.08
Si  3.82 11.12  3.08
Si -3.88 11.12  3.08
Si  3.88 -11.12 -3.08
Si -0.09 -8.77 -8.46
Si  7.61  9.03 -3.08
Si -7.61 -9.03  3.08
Si 11.59 -2.31  3.08
Si -11.59  2.31 -3.08
Si -3.99  6.94 -9.23
Si  3.99 -6.94  9.23
Si  1.89  9.89  6.92
Si  1.73  3.62 -11.54
Si -4.02  0.26 -11.54
Si -1.96  9.89  6.92
Si  7.68  6.53  6.92
Si -7.71  6.53  6.92
Si  7.53  4.67 -8.46
Si -9.62  3.17  6.92
Si  9.63  3.17  6.92
Si -2.12  3.62 -11.54
Si  7.64  8.85  3.84
Si  9.48  5.71 -5.39
Si  7.78 -9.03  3.08
Si -7.78  9.03 -3.08
Si -0.04 -11.08 -5.39
Si 11.48  4.44  0.77
Si 11.53  2.13  3.84
Si -9.58 -3.54  6.92
Si  9.54  7.80  0.77
Si -11.57  2.13  3.84
Si -7.76  8.85  3.84
Si -7.63 -6.90  6.92
Si  9.67 -3.54  6.92
Si -11.61  4.44  0.77
Si -7.86  4.67 -8.46
Si -1.80  0.82 12.31
Si  1.80 -0.82 -12.31
Si -9.71  7.80  0.77
Si  7.76 -6.90  6.92
Si -2.05 -0.82 -12.31
Si  2.05  0.82 12.31
Si -1.84 -10.26  6.92
Si -1.89 -12.35  0.77
Si -9.76  5.71 -5.39
Si  1.96 -12.35  0.77
Si -3.79 -11.31  3.84
Si  2.01 -10.26  6.92
Si  3.91 -11.31  3.84
Si  0.15 -2.54 12.31
Si -0.15  2.54 -12.31
Si  9.59 -5.45 -6.15
Si -9.59  5.45  6.15
Si -9.66 -5.45 -6.15
Si  9.66  5.45  6.15
Si -1.91  7.58 10.00
Si  1.94  7.58 10.00
Si 11.54 -4.40 -3.08
Si -11.54  4.40  3.08
Si  9.61  7.76  3.08
Si -9.61 -7.76 -3.08
Si 11.55  4.40  3.08
Si -11.55 -4.40 -3.08
Si  9.63 -7.76 -3.08
Si -9.63  7.76  3.08
Si  3.76 -8.77 -8.46
Si  9.47  1.31 -8.46
Si -3.94 -8.77 -8.46
Si -7.63 -2.50 10.00
Si 11.43  2.35 -5.39
Si -1.82 -12.39  3.08
Si  1.82 12.39 -3.08
Si  3.81 -11.08 -5.39
Si -5.68 -5.86 10.00
Si  7.77 -2.50 10.00
Si  0.13 -11.35  6.15
Si -0.13 11.35 -6.15
Si -3.89 -11.08 -5.39
Si  2.03 -12.39  3.08
Si -2.03 12.39 -3.08
Si  1.84 12.21  3.84
Si  5.59  8.03 -8.46
Si -2.00 12.21  3.84
Si  7.54  9.07 -5.39
Si  5.87 -5.86 10.00
Si -11.53 -4.59  3.84
Si -9.77  1.31 -8.46
Si  0.11  4.18 12.31
Si -0.11 -4.18 -12.31
Si 11.56 -4.59  3.84
Si -9.58 -7.95  3.84
Si -11.67  2.35 -5.39
Si  9.66 -7.95  3.84
Si -5.96  8.03 -8.46
Si -3.70 -2.54 12.31
Si  3.70  2.54 -12.31
Si -7.86  9.07 -5.39
Si  4.00 -2.54 12.31
Si -4.00  2.54 -12.31
Si -11.49  2.09  6.15
Si 11.49 -2.09 -6.15
Si  5.62 -3.10 -11.54
Si -7.68  8.81  6.15
Si  7.68 -8.81 -6.15
Si  0.08  1.91 13.07
Si -0.14 -6.46 -11.54
Si  7.71  8.81  6.15
Si -7.71 -8.81 -6.15
Si -1.83 -1.45 13.07
Si -7.67  4.22 10.00
Si 11.60  2.09  6.15
Si -11.60 -2.09 -6.15
Si  2.02 -1.45 13.07
Si  5.58  3.62 -11.54
Si  7.73  4.22 10.00
Si 11.51  6.72  0.00
Si -11.51 -6.72  0.00
Si -5.93 -3.10 -11.54
Si  5.74  9.89  6.92
Si -11.59  6.72  0.00
Si 11.59 -6.72  0.00
Si -5.81  9.89  6.92
Si 11.47 -4.37 -5.39
Si  9.56 -7.72 -5.39
Si -3.72 -11.35  6.15
Si  3.72 11.35 -6.15
Si  0.08 -13.44  0.00
Si -0.08 13.44  0.00
