500
set: 379.00  0.00  0.00
Si -0.00  0.04  0.02
Si -0.03  0.04 -2.24
Si  0.02 -2.17  0.68
Si  1.87  1.01  0.78
Si -1.89  1.05  0.80
Si -0.02 -2.11  2.96
Si -1.86  3.13 -0.08
Si -1.82 -1.10 -2.96
Si  1.84  3.15  0.07
Si -3.67 -0.03  0.03
Si  1.89 -0.95 -3.00
Si -1.81  1.19  3.04
Si  3.73 -0.03  0.03
Si -1.86 -3.26  0.07
Si  1.88  1.03  3.08
Si  1.84 -3.28 -0.08
Si -0.02  2.16 -3.08
Si -1.86 -1.01  3.68
Si -3.64  0.04 -2.25
Si  1.82  3.16 -2.25
Si  3.65 -2.15  0.73
Si -0.05  4.26  0.73
Si  1.84 -3.15 -2.36
Si  1.82 -1.11  3.79
Si  0.06  2.17  3.79
Si -1.88 -3.25 -2.25
Si -3.75 -2.15  0.73
Si  3.76  0.04 -2.25
Si -1.86  3.26 -2.36
Si -0.01 -4.25 -3.02
Si  3.69 -2.12  3.02
Si -3.71 -2.12  3.02
Si  3.69  2.16 -3.02
Si -3.71  2.16 -3.02
Si -0.01  4.29  3.02
Si  1.81 -1.09 -5.24
Si -3.68  4.24  0.68
Si  5.51  1.05  0.80
Si -5.53  1.01  0.78
Si -1.83 -1.12 -5.26
Si  3.72  4.24  0.68
Si -0.03 -4.23  3.80
Si  3.67  2.18  3.80
Si  1.81 -5.36  0.80
Si -1.83 -5.39  0.78
Si -3.73  2.18  3.80
Si  0.02  2.11 -5.37
Si  1.89 -5.22  3.04
Si -1.86  1.01 -5.97
Si -5.51 -0.95 -3.00
Si -1.86 -1.14  5.97
Si  5.54  3.13 -0.08
Si  1.88  5.31 -2.96
Si  3.68  4.29  2.96
Si  0.03  6.38  0.03
Si  0.03 -2.16 -6.01
Si -5.56  3.15  0.07
Si -5.52  1.03  3.08
Si -3.72  4.29  2.96
Si  3.68 -4.25 -3.08
Si  5.58 -1.10 -2.96
Si  5.54 -3.26  0.07
Si  0.03  2.11  6.07
Si  0.03 -6.43  0.03
Si -3.72 -4.25 -3.08
Si -1.82 -5.37  3.08
Si -5.56 -3.28 -0.08
Si  1.84  0.99 -6.12
Si  5.59  1.19  3.04
Si  1.84 -1.12  6.11
Si -1.81  5.46 -3.00
Si  5.54 -1.01  3.68
Si -3.64 -4.24  3.79
Si  0.06 -6.37 -2.25
Si -0.05 -0.01  6.78
Si -1.88  5.30  3.79
Si  3.65  2.13 -5.31
Si  5.52 -3.25 -2.25
Si  1.84  5.40  3.68
Si -5.58  3.16 -2.25
Si -5.56 -3.15 -2.36
Si  3.76 -4.24  3.79
Si -0.05 -4.28 -5.31
Si  0.06  6.44 -2.25
Si -5.58 -1.11  3.79
Si -3.75  2.13 -5.31
Si  5.54  3.26 -2.36
Si  3.70 -6.37  0.02
Si -3.70 -6.37  0.02
Si  3.70 -2.09 -6.02
Si -3.70 -2.09 -6.02
Si -0.00 -4.23  6.06
Si  7.40  0.04  0.02
Si -7.40  0.04  0.02
Si -0.00  4.32 -6.02
Si  3.70  2.18  6.06
Si -3.70  2.18  6.06
Si  3.70  6.45  0.02
Si -3.70  6.45  0.02
Si -3.68 -0.03  6.72
Si  3.72 -0.03  6.72
Si -1.83  7.42  0.78
Si  3.67 -6.37 -2.24
Si  1.87  5.29 -5.26
Si -1.89  5.32 -5.24
Si  7.37  0.04 -2.24
Si -3.73 -6.37 -2.24
Si  1.81  7.46  0.80
Si -7.38 -2.17  0.68
Si -1.83  3.15  6.82
Si -5.58 -1.09 -5.24
Si  5.57 -1.12 -5.26
Si  3.67  6.45 -2.24
Si  7.42 -2.17  0.68
Si -7.43  0.04 -2.24
Si  1.81  3.19  6.84
Si -3.73  6.45 -2.24
Si -5.58 -5.36  0.80
Si  1.87 -3.26  6.82
Si  5.57 -5.39  0.78
Si -1.89 -3.22  6.84
Si -3.68 -4.30 -5.37
Si  3.72 -4.30 -5.37
Si -1.81 -7.36 -3.00
Si  1.83  5.26  5.97
Si -5.51 -5.22  3.04
Si  5.54  1.01 -5.97
Si -5.52  5.31 -2.96
Si  5.54 -1.14  5.97
Si -3.67  4.25 -6.01
Si  7.38 -2.11  2.96
Si  3.73  4.25 -6.01
Si  1.84 -5.39 -5.97
Si -1.82  7.44  3.08
Si -7.42 -2.11  2.96
Si  7.38  2.16 -3.08
Si  1.88 -7.51 -2.96
Si -1.86  5.29  6.11
Si -3.67 -4.30  6.07
Si -7.42  2.16 -3.08
Si  3.73 -4.30  6.07
Si -5.56  0.99 -6.12
Si  5.58 -5.37  3.08
Si -5.56 -1.12  6.11
Si  5.59  5.46 -3.00
Si -1.86 -5.42 -6.12
Si  1.89  7.59  3.04
Si  1.84 -7.42  3.68
Si  7.35  4.26  0.73
Si -7.34  2.17  3.79
Si  5.52  5.30  3.79
Si  0.06 -2.10 -8.29
Si -1.88  1.03 -8.29
Si -5.56  5.40  3.68
Si -0.05 -8.55  0.73
Si -7.45  4.26  0.73
Si -1.88 -7.52  3.79
Si  7.46  2.17  3.79
Si  1.84  1.13 -8.40
Si -0.01 -8.52  3.02
Si  7.39 -4.25 -3.02
Si -7.41 -4.25 -3.02
Si -0.01  0.02 -9.06
Si -0.01  0.02  9.06
Si  7.39  4.29  3.02
Si -7.41  4.29  3.02
Si -0.01  8.56 -3.02
Si  0.02  6.38  6.72
Si  5.51  5.32 -5.24
Si -5.53  5.29 -5.26
Si  3.67 -2.10 -8.28
Si  0.02 -6.44  6.72
Si  7.37 -4.23  3.80
Si  5.57  7.42  0.78
Si -3.73 -2.10 -8.28
Si -1.89 -7.50 -5.24
Si -0.03  4.31 -8.28
Si -5.58  7.46  0.80
Si -3.68 -8.57  0.68
Si  5.57  3.15  6.82
Si -7.43 -4.23  3.80
Si  9.27  1.01  0.78
Si  5.51 -3.22  6.84
Si -5.53 -3.26  6.82
Si -7.38  2.11 -5.37
Si  3.72 -8.57  0.68
Si  1.87 -7.53 -5.26
Si -9.28  1.05  0.80
Si -0.03  8.58  3.80
Si -5.58  3.19  6.84
Si  7.42  2.11 -5.37
Si  1.84  7.42 -5.97
Si -5.56  5.26  5.97
Si  1.83  9.54 -0.08
Si -1.82  3.17 -9.00
Si  5.59 -7.36 -3.00
Si  3.68  0.02  9.00
Si -1.81 -3.08 -9.04
Si -1.86  9.56  0.07
Si -3.72  0.02  9.00
Si  3.68 -8.52  2.96
Si -9.22 -1.10 -2.96
Si -7.37  6.38  0.03
Si  1.88 -3.24 -9.00
Si -7.37 -2.16 -6.01
Si -1.81 -3.08  9.08
Si -3.72 -8.52  2.96
Si  9.24  3.15  0.07
Si -9.21  1.19  3.04
Si -5.52 -7.51 -2.96
Si -9.26  3.13 -0.08
Si -7.37  2.11  6.07
Si -5.56 -5.39 -5.97
Si -1.86  7.40 -6.12
Si -7.37 -6.43  0.03
Si  7.43  6.38  0.03
Si  1.84 -7.55  5.97
Si  5.54  5.29  6.11
Si  7.43 -2.16 -6.01
Si  5.58  7.44  3.08
Si  9.23 -3.28 -0.08
Si  9.29 -0.95 -3.00
Si -9.26 -3.26  0.07
Si  3.68  8.56 -3.08
Si  1.89  3.32 -9.04
Si  7.43  2.11  6.07
Si -1.82  3.17  9.12
Si  7.43 -6.43  0.03
Si  9.28  1.03  3.08
Si -3.72  8.56 -3.08
Si  3.68  0.02 -9.12
Si  1.84 -9.67  0.07
Si  1.89  3.32  9.08
Si -3.72  0.02 -9.12
Si -5.51  7.59  3.04
Si  1.88 -3.24  9.12
Si -1.86 -9.69 -0.08
Si  5.54 -5.42 -6.12
Si -1.86 -7.53  6.11
Si  1.84  1.13  9.72
Si -7.34 -6.37 -2.25
Si -5.56 -7.42  3.68
Si  7.35 -0.01  6.78
Si  9.22  3.16 -2.25
Si  3.65  6.40  6.78
Si -1.88  9.57 -2.25
Si  5.52  1.03 -8.29
Si -1.86 -9.55 -2.36
Si -9.26 -1.01  3.68
Si -7.34  6.44 -2.25
Si  3.65 -6.42  6.78
Si  7.35 -4.28 -5.31
Si -3.64  4.31 -8.29
Si  9.22 -1.11  3.79
Si  9.24 -3.15 -2.36
Si -3.75  6.40  6.78
Si -0.05  8.53 -5.31
Si  1.82 -5.38 -8.29
Si  0.06 -2.10  9.83
Si -3.75 -6.42  6.78
Si -3.64  8.58  3.79
Si -1.88  1.03  9.83
Si  5.52 -7.52  3.79
Si  7.46 -6.37 -2.25
Si -7.45 -0.01  6.78
Si  3.76  4.31 -8.29
Si  1.82 -9.65 -2.25
Si -9.28 -3.25 -2.25
Si -1.86 -5.28 -8.40
Si -7.45 -4.28 -5.31
Si -9.26  3.26 -2.36
Si  3.76  8.58  3.79
Si  7.46  6.44 -2.25
Si  1.84  9.67 -2.36
Si -5.56  1.13 -8.40
Si -0.00 -8.50 -6.02
Si  7.40 -4.23  6.06
Si -7.40 -4.23  6.06
Si  7.40  4.32 -6.02
Si -7.40  4.32 -6.02
Si -0.00  8.59  6.06
Si  9.21 -1.09 -5.24
Si  0.02 10.65  0.68
Si  5.51 -7.50 -5.24
Si -9.23 -1.12 -5.26
Si  9.21 -5.36  0.80
Si  3.67 -2.10  9.84
Si -9.23 -5.39  0.78
Si -3.68  8.52 -5.37
Si -5.53 -7.53 -5.26
Si  3.72  8.52 -5.37
Si -3.73 -2.10  9.84
Si -0.03  4.31  9.84
Si -5.56  7.42 -5.97
Si -0.02 -6.39  9.00
Si -5.56  9.54 -0.08
Si -5.52 -3.24 -9.00
Si  5.54  9.56  0.07
Si  5.58  3.17 -9.00
Si -0.02  6.43  9.00
Si -9.26  1.01 -5.97
Si -11.07 -0.03  0.03
Si  5.59 -3.08 -9.04
Si -9.26 -1.14  5.97
Si  5.54  7.40 -6.12
Si  9.29 -5.22  3.04
Si -3.67  8.52  6.07
Si -3.67 -8.57 -6.01
Si  9.28  5.31 -2.96
Si -0.02 -10.66 -3.08
Si -5.51  3.32 -9.04
Si  5.59 -3.08  9.08
Si -0.02 10.70  2.96
Si -9.22 -5.37  3.08
Si  3.73  8.52  6.07
Si  3.73 -8.57 -6.01
Si -5.56 -7.55  5.97
Si -9.21  5.46 -3.00
Si  9.23  0.99 -6.12
Si -5.51  3.32  9.08
Si 11.13 -0.03  0.03
Si  9.24 -1.12  6.11
Si -0.02 -6.39 -9.12
Si -5.52 -3.24  9.12
Si -5.56 -9.67  0.07
Si  5.58  3.17  9.12
Si  5.54 -9.69 -0.08
Si -0.02  6.43 -9.12
Si  5.54 -7.53  6.11
Si -1.86 -5.28  9.72
Si -5.56  1.13  9.72
Si -11.04  0.04 -2.25
Si -7.34 -2.10 -8.29
Si  5.52  9.57 -2.25
Si 11.05 -2.15  0.73
Si  1.82  7.43 -8.29
Si  5.54 -9.55 -2.36
Si  0.06 -10.64  3.79
Si  3.65 10.67  0.73
Si  7.35 -8.55  0.73
Si  9.24  5.40  3.68
Si  5.52  1.03  9.83
Si -3.75 10.67  0.73
Si -3.64  4.31  9.83
Si -9.28  5.30  3.79
Si -0.05 -0.01 -11.35
Si -5.58 -5.38 -8.29
Si  7.46 -2.10 -8.29
Si  1.82 -5.38  9.83
Si  5.54 -5.28 -8.40
Si -7.45 -8.55  0.73
Si -5.58 -9.65 -2.25
Si  3.76  4.31  9.83
Si -11.15 -2.15  0.73
Si 11.16  0.04 -2.25
Si -5.56  9.67 -2.36
Si -1.86  7.53 -8.40
Si  3.69 -10.66 -3.02
Si  7.39 -8.52  3.02
Si -3.71 -10.66 -3.02
Si  3.69 -6.39 -9.06
Si  3.69 -6.39  9.06
Si -3.71 -6.39 -9.06
Si 11.09 -2.12  3.02
Si -7.41 -8.52  3.02
Si  7.39  0.02 -9.06
Si -3.71 -6.39  9.06
Si 11.09  2.16 -3.02
Si  7.39  0.02  9.06
Si -7.41  0.02 -9.06
Si -11.11 -2.12  3.02
Si  3.69  6.43 -9.06
Si -7.41  0.02  9.06
Si  7.39  8.56 -3.02
Si  3.69  6.43  9.06
Si -11.11  2.16 -3.02
Si -3.71  6.43 -9.06
Si -3.71  6.43  9.06
Si  3.69 10.70  3.02
Si -7.41  8.56 -3.02
Si -3.71 10.70  3.02
Si -7.38  6.38  6.72
Si  1.81  3.18 -11.28
Si -9.23  7.42  0.78
Si  7.42  6.38  6.72
Si -0.03 -8.50 -8.28
Si -7.38 -6.44  6.72
Si -1.83  3.15 -11.30
Si  3.67 -10.64  3.80
Si  9.21  7.46  0.80
Si -1.89 -3.22 -11.28
Si -11.08  4.24  0.68
Si  1.87  9.56  6.82
Si  7.37  4.31 -8.28
Si -3.73 -10.64  3.80
Si -9.23  3.15  6.82
Si  7.42 -6.44  6.72
Si  9.27  5.29 -5.26
Si 11.07  2.18  3.80
Si  1.87 -3.26 -11.30
Si  9.21  3.19  6.84
Si -9.28  5.32 -5.24
Si 11.12  4.24  0.68
Si -7.43  4.31 -8.28
Si -1.89  9.59  6.84
Si  7.37  8.58  3.80
Si -1.89 -11.77  0.80
Si  1.81 -9.63  6.84
Si -11.13  2.18  3.80
Si  9.27 -3.26  6.82
Si -1.83 -9.66  6.82
Si -7.43  8.58  3.80
Si  1.87 -11.80  0.78
Si -9.28 -3.22  6.84
Si  0.02 -10.71 -5.37
Si -3.68 -0.03 -11.41
Si  3.72 -0.03 -11.41
Si -1.81 -11.63  3.04
Si -9.21 -7.36 -3.00
Si  1.83  0.99 12.01
Si  9.23  5.26  5.97
Si  1.84 -1.12 -12.01
Si -1.82 11.71 -2.96
Si  0.03 10.65 -6.01
Si  0.03  2.11 -12.05
Si -9.22  7.44  3.08
Si 11.08  4.29  2.96
Si  9.24 -5.39 -5.97
Si 11.08 -4.25 -3.08
Si -11.12  4.29  2.96
Si -9.26  5.29  6.11
Si -11.12 -4.25 -3.08
Si  9.28 -7.51 -2.96
Si  0.03 -2.16 12.12
Si  0.03 -10.71  6.07
Si  1.88 -11.78  3.08
Si -1.86  1.01 12.15
Si -9.26 -5.42 -6.12
Si -1.86 -1.14 -12.16
Si  5.54 -5.28  9.72
Si  9.29  7.59  3.04
Si  1.89 11.87 -3.00
Si  9.24 -7.42  3.68
Si -11.04 -4.24  3.79
Si -3.64 -8.51 -8.29
Si  1.82 11.71  3.79
Si 11.05  2.13 -5.31
Si -1.86  7.53  9.72
Si -7.34 -2.10  9.83
Si  7.35  8.53 -5.31
Si -5.58  7.43 -8.29
Si  1.82  7.43  9.83
Si  3.76 -8.51 -8.29
Si  3.65 -10.69 -5.31
Si -9.28  1.03 -8.29
Si -1.86 11.81  3.68
Si -7.45  8.53 -5.31
Si -3.75 -10.69 -5.31
Si -5.58 -5.38  9.83
Si  7.46 -2.10  9.83
Si 11.16 -4.24  3.79
Si -9.28 -7.52  3.79
Si -11.15  2.13 -5.31
Si  9.24  1.13 -8.40
Si  5.54  7.53 -8.40
Si -0.00 -12.77  0.02
Si  7.40 -8.50 -6.02
Si -7.40 -8.50 -6.02
Si -0.00 -4.23 -12.06
Si  3.70 -10.64  6.06
Si -3.70 -10.64  6.06
Si 11.10 -6.37  0.02
Si -11.10 -6.37  0.02
Si 11.10 -2.09 -6.02
Si -11.10 -2.09 -6.02
Si  3.70  2.18 -12.06
Si -3.70  2.18 -12.06
Si  3.70 -2.09 12.10
Si -3.70 -2.09 12.10
Si 11.10  2.18  6.06
Si -11.10  2.18  6.06
Si 11.10  6.45  0.02
Si -11.10  6.45  0.02
Si  3.70 10.72 -6.02
Si -3.70 10.72 -6.02
Si -0.00  4.32 12.10
Si  7.40  8.59  6.06
Si -7.40  8.59  6.06
Si -0.00 12.86  0.02
Si  0.02  2.11 12.76
Si -1.83 11.69 -5.26
Si -11.08 -0.03  6.72
Si  5.51 -3.22 -11.28
Si 11.07 -6.37 -2.24
Si -0.03 -12.78 -2.24
Si  1.81 11.73 -5.24
Si -7.38 10.65  0.68
Si -5.53  9.56  6.82
Si 12.91  1.05  0.80
Si -5.58  3.18 -11.28
