500
set: 1316.00  0.00  0.00
Si  0.24  0.70  1.35
Si -0.24 -0.70 -1.35
Si -1.26 -1.04  0.79
Si  1.26  1.04 -0.79
Si -1.26  2.44  1.91
Si  1.26 -2.44 -1.91
Si  3.50  0.36 -0.79
Si -3.50 -0.36  0.79
Si  1.26  0.36  3.49
Si -1.26 -0.36 -3.49
Si  1.26  3.16 -1.91
Si -1.26 -3.16  1.91
Si  3.50 -1.76 -1.91
Si -3.50  1.76  1.91
Si  0.24 -2.10 -4.05
Si -0.24  2.10  4.05
Si  4.51  0.70  1.35
Si -4.51 -0.70 -1.35
Si -1.26  4.56  0.79
Si  1.26 -4.56 -0.79
Si  3.50  1.04  3.49
Si -3.50 -1.04 -3.49
Si -1.26  1.76 -4.61
Si  1.26 -1.76  4.61
Si  0.24 -4.90  1.35
Si -0.24  4.90 -1.35
Si  0.24  3.50 -4.05
Si -0.24 -3.50  4.05
Si  3.50  3.85 -1.91
Si -3.50 -3.85  1.91
Si -5.00 -2.10  1.35
Si  5.00  2.10 -1.35
Si -1.26 -3.85 -4.61
Si  1.26  3.85  4.61
Si  5.00 -3.50 -1.35
Si -5.00  3.50  1.35
Si  3.50 -2.44  4.61
Si -3.50  2.44 -4.61
Si  3.50 -5.25 -0.79
Si -3.50  5.25  0.79
Si -6.01  1.04 -1.91
Si  6.01 -1.04  1.91
Si  4.51 -2.10 -4.05
Si -4.51  2.10  4.05
Si  1.26 -5.25  3.49
Si -1.26  5.25 -3.49
Si  0.24  6.30  1.35
Si -0.24 -6.30 -1.35
Si  5.00 -0.70  4.05
Si -5.00  0.70 -4.05
Si -6.01 -2.44 -0.79
Si  6.01  2.44  0.79
Si  1.26 -1.76 -6.19
Si -1.26  1.76  6.19
Si  3.50  3.16  4.61
Si -3.50 -3.16 -4.61
Si  3.50 -4.56  3.49
Si -3.50  4.56 -3.49
Si  4.51 -4.90  1.35
Si -4.51  4.90 -1.35
Si  1.26  6.65 -0.79
Si -1.26 -6.65  0.79
Si -6.01  3.16 -0.79
Si  6.01 -3.16  0.79
Si  3.50  5.96 -0.79
Si -3.50 -5.96  0.79
Si -4.51 -3.50  4.05
Si  4.51  3.50 -4.05
Si -1.26 -5.96 -3.49
Si  1.26  5.96  3.49
Si  0.24 -2.10  6.75
Si -0.24  2.10 -6.75
Si -6.01 -1.76  3.49
Si  6.01  1.76 -3.49
Si  1.26  3.85 -6.19
Si -1.26 -3.85  6.19
Si -1.26 -0.36  7.31
Si  1.26  0.36 -7.31
Si  3.50 -2.44 -6.19
Si -3.50  2.44  6.19
Si -6.01  0.36  4.61
Si  6.01 -0.36 -4.61
Si  0.24  3.50  6.75
Si -0.24 -3.50 -6.75
Si  3.50  3.16 -6.19
Si -3.50 -3.16  6.19
Si -6.01 -4.56 -1.91
Si  6.01  4.56  1.91
Si -4.51 -6.30 -1.35
Si  4.51  6.30  1.35
Si -6.01  3.85  3.49
Si  6.01 -3.85 -3.49
Si -5.00 -4.90 -4.05
Si  5.00  4.90  4.05
Si -3.50 -1.04  7.31
Si  3.50  1.04 -7.31
Si  3.50  6.65  3.49
Si -3.50 -6.65 -3.49
Si -1.26  8.05  1.91
Si  1.26 -8.05 -1.91
Si  3.50 -7.36 -1.91
Si -3.50  7.36  1.91
Si  4.51 -2.10  6.75
Si -4.51  2.10 -6.75
Si  5.00 -0.70 -6.75
Si -5.00  0.70  6.75
Si  8.26  1.76  0.79
Si -8.26 -1.76 -0.79
Si  8.26 -0.36  1.91
Si -8.26  0.36 -1.91
Si -6.01  0.36 -6.19
Si  6.01 -0.36  6.19
Si  0.24 -7.70 -4.05
Si -0.24  7.70  4.05
Si -1.26  7.36 -4.61
Si  1.26 -7.36  4.61
Si  4.51  3.50  6.75
Si -4.51 -3.50 -6.75
Si  5.00 -6.30  4.05
Si -5.00  6.30 -4.05
Si  1.26  8.76 -1.91
Si -1.26 -8.76  1.91
Si -1.26  5.25  7.31
Si  1.26 -5.25 -7.31
Si  8.26 -3.85  0.79
Si -8.26  3.85 -0.79
Si -6.01  6.65 -1.91
Si  6.01 -6.65  1.91
Si -6.01 -5.25  4.61
Si  6.01  5.25 -4.61
Si -5.00 -7.70  1.35
Si  5.00  7.70 -1.35
Si  8.26  2.44 -3.49
Si -8.26 -2.44  3.49
Si -3.50  4.56  7.31
Si  3.50 -4.56 -7.31
Si -1.26  2.44 -8.89
Si  1.26 -2.44  8.89
Si  0.24  0.70 -9.45
Si -0.24 -0.70  9.45
Si  8.26 -3.16 -3.49
Si -8.26  3.16  3.49
Si -1.26 -5.96  7.31
Si  1.26  5.96 -7.31
Si  8.26 -1.04 -4.61
Si -8.26  1.04  4.61
Si -1.26 -3.16 -8.89
Si  1.26  3.16  8.89
Si  9.27  2.10 -1.35
Si -9.27 -2.10  1.35
Si -6.01 -1.76 -7.31
Si  6.01  1.76  7.31
Si -6.01  5.96  4.61
Si  6.01 -5.96 -4.61
Si  1.26 -7.36 -6.19
Si -1.26  7.36  6.19
Si -3.50  1.76 -8.89
Si  3.50 -1.76  8.89
Si -5.00 -4.90  6.75
Si  5.00  4.90 -6.75
Si  4.51 -7.70 -4.05
Si -4.51  7.70  4.05
Si -3.50  8.05 -4.61
Si  3.50 -8.05  4.61
Si  0.24  9.10 -4.05
Si -0.24 -9.10  4.05
Si  8.26  5.25  1.91
Si -8.26 -5.25 -1.91
Si  9.27 -3.50 -1.35
Si -9.27  3.50  1.35
Si  9.76 -2.10  1.35
Si -9.76  2.10 -1.35
Si -6.01 -8.05 -0.79
Si  6.01  8.05  0.79
Si -6.01 -5.25 -6.19
Si  6.01  5.25  6.19
Si -6.01 -7.36  3.49
Si  6.01  7.36 -3.49
Si  1.26  1.04 10.01
Si -1.26 -1.04 -10.01
Si  9.27 -0.70  4.05
Si -9.27  0.70 -4.05
Si -6.01  3.85 -7.31
Si  6.01 -3.85  7.31
Si  0.24 -7.70  6.75
Si -0.24  7.70 -6.75
Si  3.50  9.45 -1.91
Si -3.50 -9.45  1.91
Si -1.26 10.16  0.79
Si  1.26 -10.16 -0.79
Si -3.50 -3.85 -8.89
Si  3.50  3.85  8.89
Si  8.26 -5.96  1.91
Si -8.26  5.96 -1.91
Si  8.26 -1.04  6.19
Si -8.26  1.04 -6.19
Si  9.76  3.50  1.35
Si -9.76 -3.50 -1.35
Si  5.00 -9.10 -1.35
Si -5.00  9.10  1.35
Si  3.50  6.65 -7.31
Si -3.50 -6.65  7.31
Si -6.01  5.96 -6.19
Si  6.01 -5.96  6.19
Si -4.51 -0.70  9.45
Si  4.51  0.70 -9.45
Si  3.50  8.76  4.61
Si -3.50 -8.76 -4.61
Si  8.26  4.56 -4.61
Si -8.26 -4.56  4.61
Si  5.00 -6.30 -6.75
Si -5.00  6.30  6.75
Si -1.26 -9.45 -4.61
Si  1.26  9.45  4.61
Si  9.76  0.70 -4.05
Si -9.76 -0.70  4.05
Si  0.24 -10.50  1.35
Si -0.24 10.50 -1.35
Si  3.50  0.36 10.01
Si -3.50 -0.36 -10.01
Si  0.24 -4.90 -9.45
Si -0.24  4.90  9.45
Si -6.01  8.76 -0.79
Si  6.01 -8.76  0.79
Si  3.50 -8.05 -6.19
Si -3.50  8.05  6.19
Si -6.01  1.04  8.89
Si  6.01 -1.04 -8.89
Si  5.00  2.10  9.45
Si -5.00 -2.10 -9.45
Si -4.51 -9.10  4.05
Si  4.51  9.10 -4.05
Si 10.77 -1.76 -0.79
Si -10.77  1.76  0.79
Si 10.77  0.36 -1.91
Si -10.77 -0.36  1.91
Si  1.26 -4.56 10.01
Si -1.26  4.56 -10.01
Si  8.26  7.36  0.79
Si -8.26 -7.36 -0.79
Si  4.51 -7.70  6.75
Si -4.51  7.70 -6.75
Si -9.27 -4.90 -4.05
Si  9.27  4.90  4.05
Si  5.00 -3.50  9.45
Si -5.00  3.50 -9.45
Si  3.50  8.76 -6.19
Si -3.50 -8.76  6.19
Si  8.26  4.56  6.19
Si -8.26 -4.56 -6.19
Si  8.26  2.44  7.31
Si -8.26 -2.44 -7.31
Si  3.50 -10.16  3.49
Si -3.50 10.16 -3.49
Si  0.24  9.10  6.75
Si -0.24 -9.10 -6.75
Si  0.24  6.30 -9.45
Si -0.24 -6.30  9.45
Si -1.26 -9.45  6.19
Si  1.26  9.45 -6.19
Si  3.50 -10.85 -0.79
Si -3.50 10.85  0.79
Si  1.26 -10.85  3.49
Si -1.26 10.85 -3.49
Si 10.77  3.85 -0.79
Si -10.77 -3.85  0.79
Si  8.26 -3.16  7.31
Si -8.26  3.16 -7.31
Si  9.27 -0.70 -6.75
Si -9.27  0.70  6.75
Si  4.51 -10.50  1.35
Si -4.51 10.50 -1.35
Si  8.26 -6.65 -4.61
Si -8.26  6.65  4.61
Si  4.51 -4.90 -9.45
Si -4.51  4.90  9.45
Si 10.77 -2.44  3.49
Si -10.77  2.44 -3.49
Si  9.76 -4.90 -4.05
Si -9.76  4.90  4.05
Si  6.01  4.56 -8.89
Si -6.01 -4.56  8.89
Si -1.26 -1.04 11.59
Si  1.26  1.04 -11.59
Si -6.01  9.45  3.49
Si  6.01 -9.45 -3.49
Si 10.77  3.16  3.49
Si -10.77 -3.16 -3.49
Si 10.77  1.04  4.61
Si -10.77 -1.04 -4.61
Si  3.50 -5.25 10.01
Si -3.50  5.25 -10.01
Si  9.76  0.70  6.75
Si -9.76 -0.70 -6.75
Si  9.27 -6.30  4.05
Si -9.27  6.30 -4.05
Si -6.01 -2.44 10.01
Si  6.01  2.44 -10.01
Si -6.01 -10.16 -1.91
Si  6.01 10.16  1.91
Si  0.24 11.90  1.35
Si -0.24 -11.90 -1.35
Si -6.01 -7.36 -7.31
Si  6.01  7.36  7.31
Si  8.26  8.05 -3.49
Si -8.26 -8.05  3.49
Si -1.26  8.05 -8.89
Si  1.26 -8.05  8.89
Si  3.50 -7.36  8.89
Si -3.50  7.36 -8.89
Si  1.26  6.65 10.01
Si -1.26 -6.65 -10.01
Si -6.01  3.16 10.01
Si  6.01 -3.16 -10.01
Si -3.50 -11.56  0.79
Si  3.50 11.56 -0.79
Si -3.50 -0.36 11.59
Si  3.50  0.36 -11.59
Si -9.27 -7.70  1.35
Si  9.27  7.70 -1.35
Si 10.77 -5.25 -1.91
Si -10.77  5.25  1.91
Si -1.26 -11.56 -3.49
Si  1.26 11.56  3.49
Si  8.26 -0.36 -8.89
Si -8.26  0.36  8.89
Si  3.50  5.96 10.01
Si -3.50 -5.96 -10.01
Si  0.24  0.70 12.15
Si -0.24 -0.70 -12.15
Si -4.51 -9.10 -6.75
Si  4.51  9.10  6.75
Si -4.51 -6.30  9.45
Si  4.51  6.30 -9.45
Si  8.26 -6.65  6.19
Si -8.26  6.65 -6.19
Si -9.76 -6.30  4.05
Si  9.76  6.30 -4.05
Si -5.00 -10.50 -4.05
Si  5.00 10.50  4.05
Si  1.26 12.25 -0.79
Si -1.26 -12.25  0.79
Si 10.77  5.96 -1.91
Si -10.77 -5.96  1.91
Si 10.77  1.04 -6.19
Si -10.77 -1.04  6.19
Si -9.27 -4.90  6.75
Si  9.27  4.90 -6.75
Si  9.76 -7.70  1.35
Si -9.76  7.70 -1.35
Si -1.26  4.56 11.59
Si  1.26 -4.56 -11.59
Si  8.26 -8.76 -3.49
Si -8.26  8.76  3.49
Si -1.26 -8.76 -8.89
Si  1.26  8.76  8.89
Si 10.77 -4.56  4.61
Si -10.77  4.56 -4.61
Si  8.26 -9.45  0.79
Si -8.26  9.45 -0.79
Si -6.01  6.65  8.89
Si  6.01 -6.65 -8.89
Si -4.51 -11.90 -1.35
Si  4.51 11.90  1.35
Si  9.76 -4.90  6.75
Si -9.76  4.90 -6.75
Si  4.51  0.70 12.15
Si -4.51 -0.70 -12.15
Si -3.50 10.16  7.31
Si  3.50 -10.16 -7.31
Si  1.26 -2.44 -12.71
Si -1.26  2.44 12.71
Si  9.27 -9.10 -1.35
Si -9.27  9.10  1.35
Si 10.77 -7.36 -0.79
Si -10.77  7.36  0.79
Si  9.27 -6.30 -6.75
Si -9.27  6.30  6.75
Si  8.26  1.76 -10.01
Si -8.26 -1.76 10.01
Si  0.24 -4.90 12.15
Si -0.24  4.90 -12.15
Si -1.26 10.85  7.31
Si  1.26 -10.85 -7.31
Si  1.26  3.16 -12.71
Si -1.26 -3.16 12.71
Si -5.00 -7.70 -9.45
Si  5.00  7.70  9.45
Si -3.50  5.25 11.59
Si  3.50 -5.25 -11.59
Si -13.02 -1.04  1.91
Si 13.02  1.04 -1.91
Si  3.50 12.25  3.49
Si -3.50 -12.25 -3.49
Si  8.26  5.25 -8.89
Si -8.26 -5.25  8.89
Si -6.01 -10.85  4.61
Si  6.01 10.85 -4.61
Si 10.77 -4.56 -6.19
Si -10.77  4.56  6.19
Si 10.77 -2.44 -7.31
Si -10.77  2.44  7.31
Si -13.02  2.44  0.79
Si 13.02 -2.44 -0.79
Si  6.01  2.44 11.59
Si -6.01 -2.44 -11.59
Si  3.50 -1.76 -12.71
Si -3.50  1.76 12.71
Si -5.00 -2.10 12.15
Si  5.00  2.10 -12.15
Si  6.01 -9.45  7.31
Si -6.01  9.45 -7.31
Si 10.77  3.16 -7.31
Si -10.77 -3.16  7.31
Si  9.27  2.10  9.45
Si -9.27 -2.10 -9.45
Si -9.76 -9.10 -1.35
Si  9.76  9.10  1.35
Si -1.26 -6.65 11.59
Si  1.26  6.65 -11.59
Si -13.02 -3.16  0.79
Si 13.02  3.16 -0.79
Si -6.01  3.16 -11.59
Si  6.01 -3.16 11.59
Si -3.50 -9.45 -8.89
Si  3.50  9.45  8.89
Si -9.76 -6.30 -6.75
Si  9.76  6.30  6.75
Si -5.00 -10.50  6.75
Si  5.00 10.50 -6.75
Si 10.77  6.65  4.61
Si -10.77 -6.65 -4.61
Si -3.50 -5.96 11.59
Si  3.50  5.96 -11.59
Si  8.26 -5.96 -8.89
Si -8.26  5.96  8.89
Si  5.00 -11.90  4.05
Si -5.00 11.90 -4.05
Si  8.26 -3.85 -10.01
Si -8.26  3.85 10.01
Si  3.50 -12.96 -1.91
Si -3.50 12.96  1.91
Si -13.02  1.76 -3.49
Si 13.02 -1.76  3.49
Si  5.00 -3.50 -12.15
Si -5.00  3.50 12.15
Si  8.26  8.05  7.31
Si -8.26 -8.05 -7.31
Si  0.24  6.30 12.15
Si -0.24 -6.30 -12.15
Si  9.27 -3.50  9.45
Si -9.27  3.50 -9.45
Si  3.50  3.85 -12.71
Si -3.50 -3.85 12.71
Si -1.26 -11.56  7.31
Si  1.26 11.56 -7.31
Si  9.76 -2.10 -9.45
Si -9.76  2.10  9.45
Si  8.26 10.85  1.91
Si -8.26 -10.85 -1.91
Si -6.01 12.25 -1.91
Si  6.01 -12.25  1.91
Si -1.26 12.96 -4.61
Si  1.26 -12.96  4.61
Si -13.02 -0.36 -4.61
Si 13.02  0.36  4.61
Si -6.01 11.56  4.61
Si  6.01 -11.56 -4.61
Si -1.26 13.65  1.91
Si  1.26 -13.65 -1.91
Si  4.51 -4.90 12.15
Si -4.51  4.90 -12.15
Si -6.01 -10.85 -6.19
Si  6.01 10.85  6.19
Si  8.26 10.16 -4.61
Si -8.26 -10.16  4.61
Si 10.77 -8.05  3.49
Si -10.77  8.05 -3.49
Si  0.24 -13.30 -4.05
Si -0.24 13.30  4.05
Si -13.02  4.56  1.91
Si 13.02 -4.56 -1.91
Si 10.77  0.36  8.89
Si -10.77 -0.36 -8.89
Si -13.02 -3.85 -3.49
Si 13.02  3.85  3.49
Si -9.76 -3.50  9.45
Si  9.76  3.50 -9.45
Si  5.00 -9.10  9.45
Si -5.00  9.10 -9.45
Si  8.26 -8.76  7.31
Si -8.26  8.76 -7.31
Si 10.77  6.65 -6.19
Si -10.77 -6.65  6.19
Si -6.01  1.04 -12.71
Si  6.01 -1.04 12.71
Si  0.24 -10.50 -9.45
Si -0.24 10.50  9.45
Si -6.01 -8.05 10.01
Si  6.01  8.05 -10.01
