500
set: 636.00  0.00  0.00
Si  0.43 -1.11  0.83
Si -0.43  1.11 -0.83
Si  1.45  1.16  0.83
Si -1.45 -1.16 -0.83
Si  2.08 -1.16 -0.83
Si -2.08  1.16  0.83
Si  1.18  0.34 -2.58
Si -1.18 -0.34  2.58
Si -0.15  1.94  2.58
Si  0.15 -1.94 -2.58
Si -3.10 -1.11  0.83
Si  3.10  1.11 -0.83
Si -2.36  0.34 -2.58
Si  2.36 -0.34  2.58
Si  0.59  3.39 -0.83
Si -0.59 -3.39  0.83
Si  1.06 -3.44 -0.83
Si -1.06  3.44  0.83
Si -1.34  2.61 -2.58
Si  1.34 -2.61  2.58
Si  3.96 -1.11  0.83
Si -3.96  1.11 -0.83
Si  2.20  2.61 -2.58
Si -2.20 -2.61  2.58
Si -0.70  0.29 -4.25
Si  0.70 -0.29  4.25
Si -2.47 -3.44 -0.83
Si  2.47  3.44  0.83
Si  2.94 -3.39  0.83
Si -2.94  3.39 -0.83
Si  3.38  1.94  2.58
Si -3.38 -1.94 -2.58
Si  3.69 -1.94 -2.58
Si -3.69  1.94  2.58
Si -0.32 -2.57  4.25
Si  0.32  2.57 -4.25
Si -1.73 -1.99 -4.25
Si  1.73  1.99  4.25
Si -0.87 -4.22 -2.58
Si  0.87  4.22  2.58
Si  1.81 -1.99 -4.25
Si -1.81  1.99  4.25
Si  2.83  0.29 -4.25
Si -2.83 -0.29  4.25
Si -4.99 -1.16 -0.83
Si  4.99  1.16  0.83
Si  4.71  0.34 -2.58
Si -4.71 -0.34  2.58
Si  4.13  3.39 -0.83
Si -4.13 -3.39  0.83
Si -0.32  4.89 -2.58
Si  0.32 -4.89  2.58
Si -2.67  4.22  2.58
Si  2.67 -4.22 -2.58
Si -0.04  5.72  0.83
Si  0.04 -5.72 -0.83
Si -5.62  1.16  0.83
Si  5.62 -1.16 -0.83
Si -4.60  3.44  0.83
Si  4.60 -3.44 -0.83
Si -3.22  2.57 -4.25
Si  3.22 -2.57  4.25
Si  1.61  5.67 -0.83
Si -1.61 -5.67  0.83
Si -4.24  0.29 -4.25
Si  4.24 -0.29  4.25
Si -1.92  5.67 -0.83
Si  1.92 -5.67  0.83
Si  0.79 -4.27 -4.25
Si -0.79  4.27  4.25
Si -0.90  0.49  5.99
Si  0.90 -0.49 -5.99
Si -4.87  2.61 -2.58
Si  4.87 -2.61  2.58
Si -3.85 -2.57  4.25
Si  3.85  2.57 -4.25
Si  3.22  4.89 -2.58
Si -3.22 -4.89  2.58
Si  5.89 -0.34  2.58
Si -5.89  0.34 -2.58
Si -1.61  1.79 -5.99
Si  1.61 -1.79  5.99
Si -1.92 -1.79  5.99
Si  1.92  1.79 -5.99
Si -2.63 -0.49 -5.99
Si  2.63  0.49  5.99
Si -1.34 -4.84  4.25
Si  1.34  4.84 -4.25
Si -0.12 -2.77 -5.99
Si  0.12  2.77  5.99
Si -2.75 -4.27 -4.25
Si  2.75  4.27  4.25
Si -4.40 -4.22 -2.58
Si  4.40  4.22  2.58
Si -3.85  4.89 -2.58
Si  3.85 -4.89  2.58
Si  3.49  5.72  0.83
Si -3.49 -5.72 -0.83
Si -6.64 -1.11  0.83
Si  6.64  1.11 -0.83
Si  3.58 -5.72 -0.83
Si -3.58  5.72  0.83
Si -2.20  4.84 -4.25
Si  2.20 -4.84  4.25
Si -5.73 -2.61  2.58
Si  5.73  2.61 -2.58
Si  6.01  3.44  0.83
Si -6.01 -3.44 -0.83
Si  5.26  1.99  4.25
Si -5.26 -1.99 -4.25
Si -5.34  1.99  4.25
Si  5.34 -1.99 -4.25
Si  1.65 -6.50 -2.58
Si -1.65  6.50  2.58
Si -1.89 -6.50 -2.58
Si  1.89  6.50  2.58
Si  0.59 -4.07  5.99
Si -0.59  4.07 -5.99
Si -6.48  3.39 -0.83
Si  6.48 -3.39  0.83
Si -4.32  4.27  4.25
Si  4.32 -4.27 -4.25
Si  3.42 -2.77 -5.99
Si -3.42  2.77  5.99
Si  4.44 -0.49 -5.99
Si -4.44  0.49  5.99
Si  3.65  2.77  5.99
Si -3.65 -2.77 -5.99
Si  7.50 -1.11  0.83
Si -7.50  1.11 -0.83
Si  6.92  1.94  2.58
Si -6.92 -1.94 -2.58
Si  0.71  7.17 -2.58
Si -0.71 -7.17  2.58
Si  6.37  0.29 -4.25
Si -6.37 -0.29  4.25
Si  5.15  5.67 -0.83
Si -5.15 -5.67  0.83
Si  0.98  0.54  7.66
Si -0.98 -0.54 -7.66
Si -0.23 -6.55 -4.25
Si  0.23  6.55  4.25
Si -2.94 -4.07  5.99
Si  2.94  4.07 -5.99
Si -0.04 -1.74  7.66
Si  0.04  1.74 -7.66
Si  7.23 -1.94 -2.58
Si -7.23  1.94  2.58
Si  5.46 -5.67  0.83
Si -5.46  5.67 -0.83
Si  1.14  5.05  5.99
Si -1.14 -5.05 -5.99
Si  6.20 -4.22 -2.58
Si -6.20  4.22  2.58
Si  0.90 -7.95  0.83
Si -0.90  7.95 -0.83
Si  4.87  4.84 -4.25
Si -4.87 -4.84  4.25
Si  2.56 -0.54 -7.66
Si -2.56  0.54  7.66
Si -5.15  1.79 -5.99
Si  5.15 -1.79  5.99
Si  0.98  8.00  0.83
Si -0.98 -8.00 -0.83
Si -2.83  7.17 -2.58
Si  2.83 -7.17  2.58
Si  2.40 -5.05 -5.99
Si -2.40  5.05  5.99
Si -5.46 -1.79  5.99
Si  5.46  1.79 -5.99
Si  1.53 -2.82 -7.66
Si -1.53  2.82  7.66
Si -4.12  4.07 -5.99
Si  4.12 -4.07  5.99
Si  1.18 -7.12  4.25
Si -1.18  7.12 -4.25
Si  6.75 -2.57  4.25
Si -6.75  2.57 -4.25
Si -2.00 -2.82 -7.66
Si  2.00  2.82  7.66
Si -2.63 -7.95  0.83
Si  2.63  7.95 -0.83
Si  7.66  3.39 -0.83
Si -7.66 -3.39  0.83
Si -2.56  8.00  0.83
Si  2.56 -8.00 -0.83
Si -3.30  6.55  4.25
Si  3.30 -6.55 -4.25
Si -3.49  1.74 -7.66
Si  3.49 -1.74  7.66
Si -6.17 -0.49 -5.99
Si  6.17  0.49  5.99
Si  2.36  7.12 -4.25
Si -2.36 -7.12  4.25
Si  5.73 -4.84  4.25
Si -5.73  4.84 -4.25
Si  3.58  1.74 -7.66
Si -3.58 -1.74  7.66
Si -8.52 -1.16 -0.83
Si  8.52  1.16  0.83
Si -8.25 -0.34  2.58
Si  8.25  0.34 -2.58
Si -3.77 -6.55 -4.25
Si  3.77  6.55  4.25
Si -6.28 -4.27 -4.25
Si  6.28  4.27  4.25
Si -5.18  6.50  2.58
Si  5.18 -6.50 -2.58
Si -1.06 -4.02  7.66
Si  1.06  4.02 -7.66
Si -4.24 -7.17  2.58
Si  4.24  7.17 -2.58
Si -6.75 -4.89  2.58
Si  6.75  4.89 -2.58
Si -0.43 -6.34  5.99
Si  0.43  6.34 -5.99
Si -5.42 -6.50 -2.58
Si  5.42  6.50  2.58
Si -7.78  0.29 -4.25
Si  7.78 -0.29  4.25
Si -8.13  3.44  0.83
Si  8.13 -3.44 -0.83
Si  7.39  2.57 -4.25
Si -7.39 -2.57  4.25
Si -4.51 -0.54 -7.66
Si  4.51  0.54  7.66
Si -2.47  4.02 -7.66
Si  2.47 -4.02  7.66
Si  7.03  5.72  0.83
Si -7.03 -5.72 -0.83
Si -4.68 -5.05 -5.99
Si  4.68  5.05  5.99
Si  4.44 -7.95  0.83
Si -4.44  7.95 -0.83
Si  7.11 -5.72 -0.83
Si -7.11  5.72  0.83
Si  0.63 -8.78 -2.58
Si -0.63  8.78  2.58
Si -8.41  2.61 -2.58
Si  8.41 -2.61  2.58
Si  0.51 -5.10 -7.66
Si -0.51  5.10  7.66
Si  4.51  8.00  0.83
Si -4.51 -8.00 -0.83
Si -7.39  4.89 -2.58
Si  7.39 -4.89  2.58
Si  3.10 -6.34  5.99
Si -3.10  6.34 -5.99
Si  9.15 -1.16 -0.83
Si -9.15  1.16  0.83
Si  7.94  4.22  2.58
Si -7.94 -4.22 -2.58
Si  0.63 -1.32 -9.41
Si -0.63  1.32  9.41
Si -4.71  7.12 -4.25
Si  4.71 -7.12  4.25
Si -1.37  7.33  5.99
Si  1.37 -7.33 -5.99
Si  3.97  6.34 -5.99
Si -3.97 -6.34  5.99
Si -6.95  2.77  5.99
Si  6.95 -2.77 -5.99
Si  1.65  0.96 -9.41
Si -1.65 -0.96  9.41
Si -2.91 -8.78 -2.58
Si  2.91  8.78  2.58
Si -5.07  2.82  7.66
Si  5.07 -2.82 -7.66
Si  1.89 -0.96  9.41
Si -1.89  0.96 -9.41
Si -3.02 -5.10 -7.66
Si  3.02  5.10  7.66
Si  2.16  7.33  5.99
Si -2.16 -7.33 -5.99
Si -6.48 -4.07  5.99
Si  6.48  4.07 -5.99
Si  7.19  2.77  5.99
Si -7.19 -2.77 -5.99
Si -9.43  0.34 -2.58
Si  9.43 -0.34  2.58
Si  4.60  4.02 -7.66
Si -4.60 -4.02  7.66
Si  6.09 -0.54 -7.66
Si -6.09  0.54  7.66
Si  5.93 -5.05 -5.99
Si -5.93  5.05  5.99
Si -5.54 -2.82 -7.66
Si  5.54  2.82  7.66
Si -1.25 -8.83 -4.25
Si  1.25  8.83  4.25
Si  7.86 -4.27 -4.25
Si -7.86  4.27  4.25
Si  6.36 -7.17  2.58
Si -6.36  7.17 -2.58
Si  2.91  1.32  9.41
Si -2.91 -1.32 -9.41
Si  1.73  9.45 -2.58
Si -1.73 -9.45  2.58
Si  1.81 -9.45  2.58
Si -1.81  9.45 -2.58
Si  8.80  1.99  4.25
Si -8.80 -1.99 -4.25
Si  9.27  2.61 -2.58
Si -9.27 -2.61  2.58
Si  0.86 -3.24  9.41
Si -0.86  3.24 -9.41
Si -7.97  0.49  5.99
Si  7.97 -0.49 -5.99
Si -1.45  6.30 -7.66
Si  1.45 -6.30  7.66
Si  8.88 -1.99 -4.25
Si -8.88  1.99  4.25
Si -4.05  5.10  7.66
Si  4.05 -5.10 -7.66
Si -4.16  8.78  2.58
Si  4.16 -8.78 -2.58
Si  2.28 -8.83 -4.25
Si -2.28  8.83  4.25
Si -0.39 -3.60 -9.41
Si  0.39  3.60  9.41
Si  6.09 -8.00 -0.83
Si -6.09  8.00  0.83
Si  6.17  7.95 -0.83
Si -6.17 -7.95  0.83
Si  2.08  6.30 -7.66
Si -2.08 -6.30  7.66
Si  5.89  7.12 -4.25
Si -5.89 -7.12  4.25
Si -9.54 -3.44 -0.83
Si  9.54  3.44  0.83
Si  0.12 10.23 -0.83
Si -0.12 -10.23  0.83
Si 10.18  1.11 -0.83
Si -10.18 -1.11  0.83
Si -2.67 -3.24  9.41
Si  2.67  3.24 -9.41
Si  0.15 -9.40  4.25
Si -0.15  9.40 -4.25
Si  4.16 -1.32 -9.41
Si -4.16  1.32  9.41
Si -6.84  6.55  4.25
Si  6.84 -6.55 -4.25
Si -8.68 -5.67  0.83
Si  8.68  5.67 -0.83
Si -1.53 10.28  0.83
Si  1.53 -10.28 -0.83
Si  2.00 10.28  0.83
Si -2.00 -10.28 -0.83
Si  6.01 -4.02  7.66
Si -6.01  4.02 -7.66
Si -7.03  1.74 -7.66
Si  7.03 -1.74  7.66
Si  7.66 -4.07  5.99
Si -7.66  4.07 -5.99
Si  3.14 -3.60 -9.41
Si -3.14  3.60  9.41
Si -8.41 -4.84  4.25
Si  8.41  4.84 -4.25
Si -7.11 -1.74  7.66
Si  7.11  1.74 -7.66
Si -1.45 -8.62  5.99
Si  1.45  8.62 -5.99
Si -10.01  3.39 -0.83
Si 10.01 -3.39  0.83
Si  0.51  7.37  7.66
Si -0.51 -7.37 -7.66
Si  4.91 -7.33 -5.99
Si -4.91  7.33  5.99
Si  8.99 -5.67  0.83
Si -8.99  5.67 -0.83
Si  7.30  6.55  4.25
Si -7.30 -6.55 -4.25
Si  8.68 -1.79  5.99
Si -8.68  1.79 -5.99
Si  2.08 -8.62  5.99
Si -2.08  8.62 -5.99
Si  9.90  0.29 -4.25
Si -9.90 -0.29  4.25
Si -5.18 -0.96  9.41
Si  5.18  0.96 -9.41
Si  3.93  3.60  9.41
Si -3.93 -3.60 -9.41
Si -3.42 10.23 -0.83
Si  3.42 -10.23  0.83
Si -3.38 -9.40  4.25
Si  3.38  9.40 -4.25
Si  4.40 -3.24  9.41
Si -4.40  3.24 -9.41
Si  7.78  7.17 -2.58
Si -7.78 -7.17  2.58
Si  3.66 10.23 -0.83
Si -3.66 -10.23  0.83
Si -5.42  0.96 -9.41
Si  5.42 -0.96  9.41
Si -4.79 -8.83 -4.25
Si  4.79  8.83  4.25
Si -0.16 -5.52  9.41
Si  0.16  5.52 -9.41
Si -9.74  4.22  2.58
Si  9.74 -4.22 -2.58
Si 10.45  1.94  2.58
Si -10.45 -1.94 -2.58
Si  8.99  1.79 -5.99
Si -8.99 -1.79  5.99
Si  3.69 -9.40  4.25
Si -3.69  9.40 -4.25
Si  6.64 -6.34  5.99
Si -6.64  6.34 -5.99
Si -5.70 -7.33 -5.99
Si  5.70  7.33  5.99
Si  3.03 -7.37 -7.66
Si -3.03  7.37  7.66
Si -4.99  6.30 -7.66
Si  4.99 -6.30  7.66
Si  0.23 -0.91 11.07
Si -0.23  0.91 -11.07
Si -5.26 -9.45  2.58
Si  5.26  9.45 -2.58
Si -11.04  1.11 -0.83
Si 11.04 -1.11  0.83
Si  8.05  0.54  7.66
Si -8.05 -0.54 -7.66
Si -5.34  9.45 -2.58
Si  5.34 -9.45  2.58
Si  8.72 -6.50 -2.58
Si -8.72  6.50  2.58
Si  1.42  5.88  9.41
Si -1.42 -5.88 -9.41
Si  6.44  8.78  2.58
Si -6.44 -8.78 -2.58
Si  1.25  1.37 11.07
Si -1.25 -1.37 -11.07
Si -10.76  1.94  2.58
Si 10.76 -1.94 -2.58
Si  9.27 -4.84  4.25
Si -9.27  4.84 -4.25
Si  7.97 -7.95  0.83
Si -7.97  7.95 -0.83
Si  2.12 -5.88 -9.41
Si -2.12  5.88  9.41
Si  6.56  5.10  7.66
Si -6.56 -5.10 -7.66
Si -0.35  9.61  5.99
Si  0.35 -9.61 -5.99
Si  8.21  5.05  5.99
Si -8.21 -5.05 -5.99
Si -0.40 -11.06 -2.58
Si  0.40 11.06  2.58
Si  8.96  6.50  2.58
Si -8.96 -6.50 -2.58
Si  4.04  7.37  7.66
Si -4.04 -7.37 -7.66
Si  8.05  8.00  0.83
Si -8.05 -8.00 -0.83
Si  2.28 -1.37 -11.07
Si -2.28  1.37 11.07
Si  5.82 -8.83 -4.25
Si -5.82  8.83  4.25
Si  5.62  6.30 -7.66
Si -5.62 -6.30  7.66
Si  9.70  0.49  5.99
Si -9.70 -0.49 -5.99
Si  3.38 -5.52  9.41
Si -3.38  5.52 -9.41
Si 10.29 -2.57  4.25
Si -10.29  2.57 -4.25
Si -6.44 -1.32 -9.41
Si  6.44  1.32  9.41
Si -5.07 10.28  0.83
Si  5.07 -10.28 -0.83
Si -0.43  8.57 -7.66
Si  0.43 -8.57  7.66
Si  7.50  6.34 -5.99
Si -7.50 -6.34  5.99
Si -3.69 -5.52  9.41
Si  3.69  5.52 -9.41
Si -9.82 -4.27 -4.25
Si  9.82  4.27  4.25
Si  0.79  3.19 -11.07
Si -0.79 -3.19 11.07
Si -3.30 -0.91 11.07
Si  3.30  0.91 -11.07
Si  4.99  8.62 -5.99
Si -4.99 -8.62  5.99
Si -10.29 -4.89  2.58
Si 10.29  4.89 -2.58
Si -8.25  7.12 -4.25
Si  8.25 -7.12  4.25
Si  5.54 10.28  0.83
Si -5.54 -10.28 -0.83
Si -1.26  3.65 11.07
Si  1.26 -3.65 -11.07
Si -6.21 -3.24  9.41
Si  6.21  3.24 -9.41
Si 11.20  3.39 -0.83
Si -11.20 -3.39  0.83
Si -3.77  0.91 -11.07
Si  3.77 -0.91 11.07
Si  3.18  9.61  5.99
Si -3.18 -9.61 -5.99
