500
set: 31.00  0.00  0.00
Si  0.00  0.00  0.00
Si  0.44 -0.19  2.45
Si -0.44  0.19 -2.45
Si  1.26  2.17  0.00
Si -1.26 -2.17  0.00
Si -1.29  2.17  0.00
Si  1.29 -2.17  0.00
Si  2.56  0.00  0.00
Si -2.56  0.00  0.00
Si -2.11 -0.19  2.45
Si  2.11  0.19 -2.45
Si -0.85  1.98  2.45
Si  0.85 -1.98 -2.45
Si -0.82 -2.36  2.45
Si  0.82  2.36 -2.45
Si -1.71 -1.98 -2.45
Si  1.71  1.98  2.45
Si  1.74 -2.36  2.45
Si -1.74  2.36 -2.45
Si  3.00 -0.19  2.45
Si -3.00  0.19 -2.45
Si  0.03 -4.34  0.00
Si -0.03  4.34  0.00
Si  3.82  2.17  0.00
Si -3.82 -2.17  0.00
Si -3.85  2.17  0.00
Si  3.85 -2.17  0.00
Si  3.41 -1.98 -2.45
Si -3.41  1.98  2.45
Si  3.37  2.36 -2.45
Si -3.37 -2.36  2.45
Si -0.41 -4.15 -2.45
Si  0.41  4.15  2.45
Si -0.89  0.38 -4.91
Si  0.89 -0.38  4.91
Si  2.52  4.34  0.00
Si -2.52 -4.34  0.00
Si -2.59  4.34  0.00
Si  2.59 -4.34  0.00
Si -5.11  0.00  0.00
Si  5.11  0.00  0.00
Si  0.48 -4.53  2.45
Si -0.48  4.53 -2.45
Si  1.67  0.38 -4.91
Si -1.67 -0.38  4.91
Si -0.41  1.79  4.91
Si  0.41 -1.79 -4.91
Si -2.15  4.15  2.45
Si  2.15 -4.15 -2.45
Si -4.67 -0.19  2.45
Si  4.67  0.19 -2.45
Si  4.26  1.98  2.45
Si -4.26 -1.98 -2.45
Si  4.29 -2.36  2.45
Si -4.29  2.36 -2.45
Si  0.37  2.55 -4.91
Si -0.37 -2.55  4.91
Si  2.08  4.53 -2.45
Si -2.08 -4.53  2.45
Si -2.15 -1.79 -4.91
Si  2.15  1.79  4.91
Si  2.97  4.15  2.45
Si -2.97 -4.15 -2.45
Si -2.18  2.55 -4.91
Si  2.18 -2.55  4.91
Si -3.03  4.53 -2.45
Si  3.03 -4.53  2.45
Si -2.96  1.79  4.91
Si  2.96 -1.79 -4.91
Si -3.44  0.38 -4.91
Si  3.44 -0.38  4.91
Si  5.56 -0.19  2.45
Si -5.56  0.19 -2.45
Si  2.93  2.55 -4.91
Si -2.93 -2.55  4.91
Si -0.85 -3.96 -4.91
Si  0.85  3.96  4.91
Si -4.22 -0.38  4.91
Si  4.22  0.38 -4.91
Si  1.70 -3.96 -4.91
Si -1.70  3.96  4.91
Si -1.23 -6.51  0.00
Si  1.23  6.51  0.00
Si -1.33  6.51  0.00
Si  1.33 -6.51  0.00
Si  5.08  4.34  0.00
Si -5.08 -4.34  0.00
Si  5.15 -4.34  0.00
Si -5.15  4.34  0.00
Si -4.70  4.15  2.45
Si  4.70 -4.15 -2.45
Si -6.37 -2.17  0.00
Si  6.37  2.17  0.00
Si  5.96 -1.98 -2.45
Si -5.96  1.98  2.45
Si -6.41  2.17  0.00
Si  6.41 -2.17  0.00
Si  0.88 -6.32 -2.45
Si -0.88  6.32  2.45
Si -5.93 -2.36  2.45
Si  5.93  2.36 -2.45
Si -0.92  4.72 -4.91
Si  0.92 -4.72  4.91
Si -4.63 -4.53  2.45
Si  4.63  4.53 -2.45
Si  1.67  6.32  2.45
Si -1.67 -6.32 -2.45
Si  1.64  4.72 -4.91
Si -1.64 -4.72  4.91
Si -4.71 -1.79 -4.91
Si  4.71  1.79  4.91
Si  3.41  3.96  4.91
Si -3.41 -3.96 -4.91
Si -0.78 -6.70  2.45
Si  0.78  6.70 -2.45
Si  4.74 -2.55  4.91
Si -4.74  2.55 -4.91
Si -5.52 -4.15 -2.45
Si  5.52  4.15  2.45
Si  1.77 -6.70  2.45
Si -1.77  6.70 -2.45
Si -1.22 -0.57  7.36
Si  1.22  0.57 -7.36
Si  1.33 -0.57  7.36
Si -1.33  0.57 -7.36
Si -6.82 -1.98 -2.45
Si  6.82  1.98  2.45
Si  3.79  6.51  0.00
Si -3.79 -6.51  0.00
Si  0.04  1.60  7.36
Si -0.04 -1.60 -7.36
Si  3.88 -6.51  0.00
Si -3.88  6.51  0.00
Si  5.52 -1.79 -4.91
Si -5.52  1.79  4.91
Si  3.44 -6.32 -2.45
Si -3.44  6.32  2.45
Si  5.59 -4.53  2.45
Si -5.59  4.53 -2.45
Si -4.26  3.96  4.91
Si  4.26 -3.96 -4.91
Si -7.22 -0.19  2.45
Si  7.22  0.19 -2.45
Si  3.48 -4.72  4.91
Si -3.48  4.72 -4.91
Si -6.85  2.36 -2.45
Si  6.85 -2.36  2.45
Si -7.67  0.00  0.00
Si  7.67  0.00  0.00
Si -6.00  0.38 -4.91
Si  6.00 -0.38  4.91
Si -5.49 -2.55  4.91
Si  5.49  2.55 -4.91
Si  0.07 -2.74  7.36
Si -0.07  2.74 -7.36
Si -0.44  6.13  4.91
Si  0.44 -6.13 -4.91
Si  3.34  6.70 -2.45
Si -3.34 -6.70  2.45
Si  2.52 -1.60 -7.36
Si -2.52  1.60  7.36
Si -2.59 -1.60 -7.36
Si  2.59  1.60  7.36
Si  4.23  6.32  2.45
Si -4.23 -6.32 -2.45
Si -4.19 -4.72  4.91
Si  4.19  4.72 -4.91
Si  2.12  6.13  4.91
Si -2.12 -6.13 -4.91
Si  2.49  2.74 -7.36
Si -2.49 -2.74  7.36
Si  2.63 -2.74  7.36
Si -2.63  2.74 -7.36
Si -3.78 -0.57  7.36
Si  3.78  0.57 -7.36
Si  4.33 -6.70  2.45
Si -4.33  6.70 -2.45
Si  3.89 -0.57  7.36
Si -3.89  0.57 -7.36
Si  1.26 -3.77 -7.36
Si -1.26  3.77  7.36
Si -1.30 -3.77 -7.36
Si  1.30  3.77  7.36
Si  6.78  0.38 -4.91
Si -6.78 -0.38  4.91
Si  3.00 -6.13 -4.91
Si -3.00  6.13  4.91
Si -0.34 -6.89  4.91
Si  0.34  6.89 -4.91
Si  8.11 -0.19  2.45
Si -8.11  0.19 -2.45
Si  0.07 -8.68  0.00
Si -0.07  8.68  0.00
Si -5.97 -3.96 -4.91
Si  5.97  3.96  4.91
Si -7.26  4.15  2.45
Si  7.26 -4.15 -2.45
Si  2.22 -6.89  4.91
Si -2.22  6.89 -4.91
Si  7.64  4.34  0.00
Si -7.64 -4.34  0.00
Si  7.70 -4.34  0.00
Si -7.70  4.34  0.00
Si  0.38  8.48  2.45
Si -0.38 -8.48 -2.45
Si -7.19 -4.53  2.45
Si  7.19  4.53 -2.45
Si  1.19  4.91 -7.36
Si -1.19 -4.91  7.36
Si -2.90 -6.89  4.91
Si  2.90  6.89 -4.91
Si -7.26 -1.79 -4.91
Si  7.26  1.79  4.91
Si -1.36  4.91 -7.36
Si  1.36 -4.91  7.36
Si  2.49  8.68  0.00
Si -2.49 -8.68  0.00
Si -6.00  6.32  2.45
Si  6.00 -6.32 -2.45
Si -2.62  8.68  0.00
Si  2.62 -8.68  0.00
Si -5.08  1.60  7.36
Si  5.08 -1.60 -7.36
Si -8.52  1.98  2.45
Si  8.52 -1.98 -2.45
Si  6.34  6.51  0.00
Si -6.34 -6.51  0.00
Si  6.03 -4.72  4.91
Si -6.03  4.72 -4.91
Si  2.18 -8.48 -2.45
Si -2.18  8.48  2.45
Si -3.81  3.77  7.36
Si  3.81 -3.77 -7.36
Si  3.86  3.77  7.36
Si -3.86 -3.77 -7.36
Si  5.15  1.60  7.36
Si -5.15 -1.60 -7.36
Si -4.67 -6.13 -4.91
Si  4.67  6.13  4.91
Si -8.49 -2.36  2.45
Si  8.49  2.36 -2.45
Si  7.30 -2.55  4.91
Si -7.30  2.55 -4.91
Si -6.44  6.51  0.00
Si  6.44 -6.51  0.00
Si -8.93 -2.17  0.00
Si  8.93  2.17  0.00
Si  0.51 -8.87  2.45
Si -0.51  8.87 -2.45
Si -8.96  2.17  0.00
Si  8.96 -2.17  0.00
Si -5.90 -6.70  2.45
Si  5.90  6.70 -2.45
Si -6.81  3.96  4.91
Si  6.81 -3.96 -4.91
Si  2.93  8.48  2.45
Si -2.93 -8.48 -2.45
Si  5.04  2.74 -7.36
Si -5.04 -2.74  7.36
Si -8.08 -4.15 -2.45
Si  8.08  4.15  2.45
Si  5.18 -2.74  7.36
Si -5.18  2.74 -7.36
Si  2.05  8.87 -2.45
Si -2.05 -8.87  2.45
Si  0.00  5.94  7.36
Si -0.00 -5.94 -7.36
Si  6.75  4.72 -4.91
Si -6.75 -4.72  4.91
Si  6.79  6.32  2.45
Si -6.79 -6.32 -2.45
Si -3.75 -4.91  7.36
Si  3.75  4.91 -7.36
Si -5.55  6.13  4.91
Si  5.55 -6.13 -4.91
Si  8.08 -1.79 -4.91
Si -8.08  1.79  4.91
Si  8.15 -4.53  2.45
Si -8.15  4.53 -2.45
Si  0.82  8.29  4.91
Si -0.82 -8.29 -4.91
Si -3.92  4.91 -7.36
Si  3.92 -4.91  7.36
Si  3.07 -8.87  2.45
Si -3.07  8.87 -2.45
Si  4.77 -6.89  4.91
Si -4.77  6.89 -4.91
Si -6.34 -0.57  7.36
Si  6.34  0.57 -7.36
Si  8.04  2.55 -4.91
Si -8.04 -2.55  4.91
Si  1.73 -8.29 -4.91
Si -1.73  8.29  4.91
Si  2.55 -5.94 -7.36
Si -2.55  5.94  7.36
Si  2.56  5.94  7.36
Si -2.56 -5.94 -7.36
Si -6.45  0.57 -7.36
Si  6.45 -0.57  7.36
Si -8.56  0.38 -4.91
Si  8.56 -0.38  4.91
Si -0.78 -0.76  9.81
Si  0.78  0.76 -9.81
Si -9.38 -1.98 -2.45
Si  9.38  1.98  2.45
Si -6.88  6.70 -2.45
Si  6.88 -6.70  2.45
Si  0.48  1.41  9.81
Si -0.48 -1.41 -9.81
Si  1.78 -0.76  9.81
Si -1.78  0.76 -9.81
Si  9.41 -2.36  2.45
Si -9.41  2.36 -2.45
Si -4.74  8.48  2.45
Si  4.74 -8.48 -2.45
Si  5.05  8.68  0.00
Si -5.05 -8.68  0.00
Si -5.45 -6.89  4.91
Si  5.45  6.89 -4.91
Si  9.78  0.19 -2.45
Si -9.78 -0.19  2.45
Si  5.18 -8.68  0.00
Si -5.18  8.68  0.00
Si -2.08  1.41  9.81
Si  2.08 -1.41 -9.81
Si  0.10 -7.08  7.36
Si -0.10  7.08 -7.36
Si -3.38 -8.29 -4.91
Si  3.38  8.29  4.91
Si 10.22  0.00  0.00
Si -10.22  0.00  0.00
Si  0.52 -2.93  9.81
Si -0.52  2.93 -9.81
Si  4.60  8.87 -2.45
Si -4.60 -8.87  2.45
Si  0.95 -9.05  4.91
Si -0.95  9.05 -4.91
Si -3.04 -1.41 -9.81
Si  3.04  1.41  9.81
Si -3.34 -0.76  9.81
Si  3.34  0.76 -9.81
Si  5.49  8.48  2.45
Si -5.49 -8.48 -2.45
Si  1.60  9.05 -4.91
Si -1.60 -9.05  4.91
Si  6.37 -3.77 -7.36
Si -6.37  3.77  7.36
Si  2.04  2.93 -9.81
Si -2.04 -2.93  9.81
Si  6.41  3.77  7.36
Si -6.41 -3.77 -7.36
Si -0.81  3.58  9.81
Si  0.81 -3.58 -9.81
Si -2.45 -7.08  7.36
Si  2.45  7.08 -7.36
Si -4.29  8.29  4.91
Si  4.29 -8.29 -4.91
Si  2.66 -7.08  7.36
Si -2.66  7.08 -7.36
Si -9.34 -0.38  4.91
Si  9.34  0.38 -4.91
Si  1.74  3.58  9.81
Si -1.74 -3.58 -9.81
Si -8.52 -3.96 -4.91
Si  8.52  3.96  4.91
Si -7.23 -6.13 -4.91
Si  7.23  6.13  4.91
Si  3.07 -2.93  9.81
Si -3.07  2.93 -9.81
Si -7.63  1.60  7.36
Si  7.63 -1.60 -7.36
Si  5.11 -5.94 -7.36
Si -5.11  5.94  7.36
Si -5.12 -5.94 -7.36
Si  5.12  5.94  7.36
Si -4.33  0.76 -9.81
Si  4.33 -0.76  9.81
Si -7.71 -1.60 -7.36
Si  7.71  1.60  7.36
Si  5.62 -8.87  2.45
Si -5.62  8.87 -2.45
Si -6.30 -4.91  7.36
Si  6.30  4.91 -7.36
Si  3.51 -9.05  4.91
Si -3.51  9.05 -4.91
Si  1.20 10.84  0.00
Si -1.20 -10.84  0.00
Si  8.55 -6.32 -2.45
Si -8.55  6.32  2.45
Si  7.60  2.74 -7.36
Si -7.60 -2.74  7.36
Si  1.36 -10.84  0.00
Si -1.36 10.84  0.00
Si  9.81 -4.15 -2.45
Si -9.81  4.15  2.45
Si -4.63  1.41  9.81
Si  4.63 -1.41 -9.81
Si 10.67 -0.19  2.45
Si -10.67  0.19 -2.45
Si  8.59 -4.72  4.91
Si -8.59  4.72 -4.91
Si  6.48 -4.91  7.36
Si -6.48  4.91 -7.36
Si -0.92 10.65  2.45
Si  0.92 -10.65 -2.45
Si -3.37  3.58  9.81
Si  3.37 -3.58 -9.81
Si  1.27  8.11  7.36
Si -1.27 -8.11 -7.36
Si -8.90 -6.51  0.00
Si  8.90  6.51  0.00
Si  1.29 -8.11 -7.36
Si -1.29  8.11  7.36
Si -9.75 -4.53  2.45
Si  9.75  4.53 -2.45
Si  7.74 -2.74  7.36
Si -7.74  2.74 -7.36
Si  1.64 10.65  2.45
Si -1.64 -10.65 -2.45
Si -8.45 -6.70  2.45
Si  8.45  6.70 -2.45
Si 10.19  4.34  0.00
Si -10.19 -4.34  0.00
Si  0.75  5.10 -9.81
Si -0.75 -5.10  9.81
Si  9.00 -6.51  0.00
Si -9.00  6.51  0.00
Si -4.16 -9.05  4.91
Si  4.16  9.05 -4.91
Si  9.82  1.79  4.91
Si -9.82 -1.79 -4.91
Si 10.26 -4.34  0.00
Si -10.26  4.34  0.00
Si  7.33 -6.89  4.91
Si -7.33  6.89 -4.91
Si -1.81  5.10 -9.81
Si  1.81 -5.10  9.81
Si  4.60  2.93 -9.81
Si -4.60 -2.93  9.81
Si  8.11 -6.13 -4.91
Si -8.11  6.13  4.91
Si  9.37 -3.96 -4.91
Si -9.37  3.96  4.91
Si -4.30 -3.58 -9.81
Si  4.30  3.58  9.81
Si  9.85 -2.55  4.91
Si -9.85  2.55 -4.91
Si -5.93 -8.29 -4.91
Si  5.93  8.29  4.91
Si -0.75 -11.03  2.45
Si  0.75 11.03 -2.45
Si  5.01  7.08 -7.36
Si -5.01 -7.08  7.36
Si -0.45 -5.75 -9.81
Si  0.45  5.75  9.81
Si -5.59 -1.41 -9.81
Si  5.59  1.41  9.81
Si  1.80 -11.03  2.45
Si -1.80 11.03 -2.45
Si -7.29  8.48  2.45
Si  7.29 -8.48 -2.45
Si  5.22 -7.08  7.36
Si -5.22  7.08 -7.36
Si  3.47 -10.65 -2.45
Si -3.47 10.65  2.45
Si  5.89  0.76 -9.81
Si -5.89 -0.76  9.81
Si -3.75 -10.84  0.00
Si  3.75 10.84  0.00
Si -11.08  1.98  2.45
Si 11.08 -1.98 -2.45
Si -9.30 -4.72  4.91
Si  9.30  4.72 -4.91
Si -3.92 10.84  0.00
Si  3.92 -10.84  0.00
Si  7.60  8.68  0.00
Si -7.60 -8.68  0.00
Si  9.34  6.32  2.45
Si -9.34 -6.32 -2.45
Si -3.30 -5.10  9.81
Si  3.30  5.10 -9.81
Si 11.04  2.36 -2.45
Si -11.04 -2.36  2.45
Si  8.89  0.57 -7.36
Si -8.89 -0.57  7.36
Si  2.11 -5.75 -9.81
Si -2.11  5.75  9.81
Si -0.47 10.46  4.91
Si  0.47 -10.46 -4.91
Si  3.82  8.11  7.36
Si -3.82 -8.11 -7.36
Si -3.85  8.11  7.36
Si  3.85 -8.11 -7.36
Si -7.74  8.68  0.00
Si  7.74 -8.68  0.00
Si -9.00  0.57 -7.36
Si  9.00 -0.57  7.36
Si -8.01 -6.89  4.91
Si  8.01  6.89 -4.91
Si  7.16  8.87 -2.45
