500
set: 1260.00  0.00  0.00
Si -0.16 -1.41  0.49
Si -0.39 -0.12 -1.47
Si  1.28 -0.28  2.04
Si -1.90  1.70 -1.10
Si  1.90  0.35 -2.10
Si  1.77  1.97  1.68
Si  2.61  2.02 -0.53
Si  1.07 -3.25 -0.29
Si -2.26  2.42  1.22
Si -1.95 -2.50  1.63
Si -1.10 -1.70 -3.07
Si -0.16  3.28  1.88
Si  3.40 -1.30  1.68
Si  0.19 -0.69  4.09
Si -0.61  3.39 -2.34
Si  3.32 -2.63 -0.32
Si  0.36 -3.52 -2.52
Si  3.30 -1.54 -2.38
Si  1.39  3.97 -1.14
Si -3.08  0.98  2.96
Si -3.79 -1.09  2.19
Si -4.01  1.06 -2.04
Si -0.66 -2.86  3.65
Si -1.36  1.04  4.53
Si  2.38  1.27 -4.26
Si -3.35 -2.41 -3.00
Si  0.46  2.63 -4.47
Si -0.35  3.15  4.18
Si  0.51  5.20  0.72
Si  1.18 -5.01  1.23
Si  4.96  1.97 -0.28
Si -2.73 -4.64  0.83
Si  5.23  0.28  1.60
Si  2.40 -3.38 -3.64
Si  1.34 -4.18  3.36
Si -1.25 -0.88 -5.34
Si  3.29  2.90  3.42
Si  3.30 -2.84  3.49
Si -4.18 -0.37 -3.90
Si -5.79 -0.81  0.88
Si -3.97  4.05  1.78
Si -1.04  1.46 -5.76
Si -0.86 -6.06  0.90
Si -6.08  0.74 -0.90
Si -1.81  5.48 -2.26
Si  5.31 -0.61 -3.15
Si -4.39  2.91 -3.36
Si  1.37 -0.74  6.09
Si -5.22 -3.17 -1.64
Si  1.74  3.17  5.24
Si -0.80 -5.29 -3.49
Si  5.63  1.68 -2.52
Si  2.58  5.19 -2.73
Si  4.42 -4.71 -0.31
Si -3.92 -5.04 -1.16
Si  5.24  1.48  3.62
Si -2.89  2.79 -5.16
Si -3.07 -4.83 -3.32
Si -1.17  6.57 -0.25
Si -5.00 -1.98  4.00
Si -4.90  1.65  4.39
Si  2.33  0.09 -6.39
Si  3.43 -1.77  5.61
Si -4.15  4.94 -2.20
Si  0.58 -1.48 -6.65
Si -1.93 -4.00  5.25
Si -5.26  4.50 -0.09
Si  4.31  2.64 -4.76
Si  1.52 -3.49 -5.86
Si -1.54  5.10  4.61
Si  3.15 -6.29  0.85
Si  4.79  4.24 -3.11
Si -2.23  1.00  6.75
Si -3.02  5.85  2.96
Si  1.41  1.55  6.93
Si -4.03  0.81 -5.96
Si  5.94  4.18 -0.34
Si -4.20 -5.35  2.60
Si -6.66 -3.03  0.34
Si  5.24 -4.04  3.16
Si  1.72  6.91  1.78
Si -5.76  3.43  3.17
Si -3.71 -2.64  5.87
Si  4.55  4.97  3.15
Si  5.17 -0.19  5.38
Si -5.91 -3.73  2.65
Si -6.93  2.81 -0.15
Si  1.12  4.29 -6.04
Si  3.72 -5.41 -3.62
Si  7.21 -1.06  1.93
Si -3.15 -1.26 -6.74
Si  1.29  5.98 -4.51
Si  6.22 -4.28  1.00
Si -6.42 -0.91 -4.14
Si  7.24 -1.60 -2.08
Si -0.17 -5.16 -5.72
Si -0.34 -7.67 -0.70
Si -2.32 -1.25  7.28
Si -7.36  0.04  2.43
Si -0.05 -2.03  7.50
Si -2.69 -5.96  4.29
Si -6.40 -0.17  4.57
Si  1.53 -6.38  4.38
Si  7.54 -2.47  0.13
Si  0.01 -7.39 -2.96
Si  5.70 -1.20 -5.44
Si -2.74  7.39  1.31
Si -1.61 -7.38  2.65
Si -4.09  2.42  6.44
Si -0.81  6.95 -3.90
Si  3.12  7.21 -1.73
Si  4.86  6.42 -0.37
Si  4.01  6.76  1.83
Si -6.50 -3.17 -3.65
Si -7.50  2.32  2.10
Si -7.75  0.13 -2.53
Si  3.29  3.67 -6.60
Si  6.54  4.62  1.94
Si  1.84 -8.04 -0.05
Si  5.38 -5.92 -2.01
Si -6.52  2.80 -4.40
Si -3.11  4.58  6.27
Si -0.92  2.04 -8.13
Si -0.70 -4.34  7.20
Si -0.65  2.00  8.17
Si  2.42 -7.39 -3.30
Si  1.75  5.25  6.39
Si  4.25 -0.99 -7.27
Si  7.15 -2.81  3.60
Si  0.16  6.64  5.27
Si  7.21  2.91  3.41
Si  1.99  8.29 -0.05
Si -3.04  4.83 -6.36
Si -4.03 -3.49 -6.76
Si  2.96  1.80 -7.95
Si -0.19  8.66 -0.70
Si -5.49 -6.77 -0.97
Si  0.56  8.06  3.45
Si  6.60  2.33 -5.39
Si  7.91  2.25 -3.30
Si -2.12 -5.00 -7.08
Si -4.51 -6.24 -4.59
Si  0.41 -8.27  3.45
Si  0.59 -6.17  6.52
Si  4.77 -5.10 -5.72
Si -0.32 -1.98 -8.80
Si  8.03  3.85 -1.52
Si -6.14  1.62 -6.43
Si -5.74 -4.45 -5.43
Si -7.34 -5.34 -0.51
Si  3.09 -4.45 -7.31
Si  3.23  1.76  8.35
Si -5.73  6.30 -3.29
Si  6.49 -3.39 -5.47
Si  7.01 -1.71  5.61
Si  4.84 -7.44  2.23
Si  5.36 -6.13  4.19
Si  4.29 -2.90  7.57
Si  5.21  0.69  7.54
Si  7.79 -3.43 -3.48
Si  8.84  0.13 -2.53
Si -6.68  6.32  0.28
Si -1.56  4.21  8.04
Si -9.05 -2.47  0.13
Si  0.16  8.94 -2.96
Si -1.46  8.95  2.65
Si  4.75  6.55  4.89
Si -2.59 -1.21 -9.03
Si -2.16  7.11 -5.87
Si -5.05  7.97  0.75
Si -1.83  4.26 -8.26
Si -2.88 -8.94  1.31
Si -8.56  3.85 -1.52
Si -7.12 -0.47 -6.30
Si -4.16  7.37  4.40
Si  9.23  0.04  2.43
Si -8.68  2.25 -3.30
Si -5.35 -7.39  2.88
Si  0.20  5.31 -7.96
Si  1.14  1.59 -9.37
Si  6.10  6.08 -4.18
Si -6.68  5.13  4.54
Si  9.09  2.32  2.10
Si -9.38 -1.06  1.93
Si  7.29  0.28 -6.31
Si  3.61 -7.47  4.93
Si  7.68 -5.43 -2.33
Si -6.57  5.02 -5.07
Si  1.57 -9.42  1.78
Si -9.35 -1.60 -2.08
Si  2.54  7.78 -5.28
Si  2.97 -9.12 -1.73
Si  0.81 -7.25 -6.46
Si -5.07 -3.54  7.55
Si -7.90 -4.70  3.34
Si  0.85 -1.53  9.65
Si -7.58  5.98 -1.86
Si -1.32 -9.76 -0.25
Si -5.20 -8.36  0.75
Si  2.57  8.94 -3.30
Si  0.47  5.27  8.34
Si -5.10  5.98  6.02
Si -2.49  1.04 -9.55
Si  7.97 -5.76  1.37
Si  4.02 -2.86 -8.73
Si  5.95 -8.02 -1.03
Si  3.86  6.10  7.00
Si  9.65  2.81 -0.15
Si -8.80 -3.43 -3.48
Si -2.88 -1.31  9.56
Si  4.94  0.74 -8.76
Si -5.27  5.00 -7.01
Si -7.74 -0.60  6.48
Si -0.97 -4.30 -9.11
Si -5.81 -7.65 -3.17
Si -3.06 -7.62  5.93
Si -3.33 -7.08 -6.47
Si  4.52 -1.03  9.03
Si  6.48 -3.52  7.00
Si -0.95 -9.38 -3.90
Si  2.59  0.05  9.91
Si  4.76  5.31 -7.40
Si  1.10 -0.69 -10.21
Si  2.40 -8.55 -5.28
Si -0.71 10.27  0.90
Si  6.09  8.31 -1.03
Si -5.80  3.05  8.04
Si  9.93 -3.03  0.34
Si -9.38  2.91  3.41
Si  7.92  4.13  5.34
Si  4.78  7.17 -5.84
Si  6.87 -7.76  1.07
Si  8.69 -4.70  3.34
Si  4.98  8.89  2.23
Si  8.00  6.48  1.68
Si -8.62 -5.76  1.37
Si  3.87 -9.57  1.83
Si -9.44 -2.81  3.60
Si -0.86 -8.06  6.71
Si  2.00 -6.34 -8.18
Si -0.48  7.49 -7.45
Si  2.27 -6.38  8.12
Si 10.51  0.74 -0.90
Si  3.29 10.04  0.85
Si  3.36 -4.50  8.99
Si  6.84  4.05 -7.09
Si -0.78  1.42 10.54
Si -1.85 -5.04  9.23
Si -0.71  8.27  6.71
Si -8.91 -5.43 -2.33
Si  9.25 -5.34 -0.51
Si -6.07  3.09 -8.26
Si -5.20  8.94  2.88
Si  6.78 -5.68  6.09
Si  7.38  7.39 -2.71
Si  3.76  8.86  4.93
Si -5.34 -3.49 -8.75
Si -5.67  8.68 -3.17
Si -3.76 -3.53  9.54
Si -6.86 -2.02  8.17
Si  7.57  0.97  7.74
Si 10.80 -0.81  0.88
Si -4.30 -8.96  4.40
Si  7.06  6.35  5.32
Si -7.33 -6.99  4.01
Si -8.59  6.48  1.68
Si -2.91  8.71  5.93
Si  3.56  3.62  9.70
Si  9.01  5.98 -1.86
Si  8.85 -0.60  6.48
Si -8.67  4.13  5.34
Si  4.72 -9.91 -0.37
Si -7.13 -1.98 -8.13
Si -5.34  9.56 -0.97
Si  1.68  9.95  4.38
Si 10.17 -0.91 -4.14
Si -3.76  0.77 10.34
Si  0.01 -9.69  5.27
Si -0.98 -0.92 10.96
Si -4.36  2.46 -9.86
Si  7.01  8.57  1.07
Si  0.37 -11.13  0.72
Si  1.79 -3.53 10.44
Si  5.79 -7.10 -6.39
Si 10.19 -0.17  4.57
Si -2.30 -9.22 -5.87
Si  0.95  9.08 -6.46
Si 10.09 -3.17 -3.65
Si  1.39  4.24 10.27
Si -5.99 -5.75  7.53
Si -9.58 -1.71  5.61
Si -10.05  4.62  1.94
Si -9.30  0.28 -6.31
Si  7.87  5.62 -5.74
Si -1.95 -10.85 -2.26
Si -10.37 -4.28  1.00
Si -7.93  7.07  3.78
Si  3.17 -1.73 -10.69
Si  7.73 -3.48 -7.46
Si  7.30  1.01 -8.56
Si  1.48  5.29 -9.91
Si  3.71 -7.92  7.21
Si 10.07  2.80 -4.40
Si -3.17 -10.48  2.96
Si  1.14 -10.35 -4.51
Si -10.96  1.68 -2.52
Si -2.77  4.79  9.94
Si  9.47 -0.47 -6.30
Si -7.46 -5.24 -6.85
Si -8.09 -7.21 -3.66
Si -10.65  4.18 -0.34
Si -3.97 -2.60 -10.43
Si  1.33 11.32  1.23
Si -11.36  0.28  1.60
Si -8.16  3.15  7.45
Si  5.03  5.27  8.90
Si -2.54 10.37  4.29
Si  0.32 -6.13 -9.78
Si -3.38  4.62 -10.04
Si -0.22  7.45  8.85
Si -0.63 -8.84 -7.45
Si -5.87  1.58  9.87
Si -9.99  2.33 -5.39
Si -0.66 11.04 -3.49
Si  1.47  3.22 -11.06
Si 10.68 -3.73  2.65
Si -5.00  4.96  9.29
Si  8.43  3.15  7.45
Si  6.21 -3.47 -9.30
Si  3.59  6.14 -9.30
Si -4.41 -7.45  7.91
Si  2.44 -11.14 -2.73
Si -11.28 -0.61 -3.15
Si -3.18  9.25 -6.47
Si  3.86  8.41  7.21
Si  8.50 -7.21 -3.66
Si  9.91  6.32  0.28
Si -2.62  2.74 11.14
Si  0.10 -5.20 10.58
Si 10.83  3.43  3.17
Si -11.63  1.97 -0.28
Si  8.66  7.07  3.78
Si  4.64 -9.16 -5.84
Si  7.24 -8.94 -2.71
Si  4.60 -9.78  4.89
Si -8.72  5.62 -5.74
Si 11.37 -3.17 -1.64
Si -4.36 10.09 -4.59
Si -9.02  0.97  7.74
Si -1.63  1.08 -11.77
Si -2.19 -3.96 -11.05
Si -3.78 11.29 -1.16
Si  5.53 10.41 -2.01
Si  4.90 -0.15 -10.92
Si -10.10 -3.39 -5.47
Si -4.05 10.98  2.60
Si -2.58 11.69  0.83
Si -11.35  1.48  3.62
Si -7.70 -6.76  6.27
Si  5.87 -7.21  7.61
Si -5.56  6.91  8.13
Si  9.90  5.13  4.54
Si -5.88 -10.03 -3.29
Si  0.73 10.16  6.52
Si -8.86 -3.48 -7.46
Si -9.21  7.39 -2.71
Si -6.83 -10.01  0.28
Si -4.67 -7.40 -8.39
Si -6.85 -0.51 10.00
Si  0.73  2.59 11.83
Si  3.87 10.93 -3.62
Si -6.26 -5.70 -8.77
Si 11.33  4.50 -0.09
Si -5.83  6.95 -8.17
Si -0.08 -0.65 -12.21
Si -10.89 -1.20 -5.44
Si -1.68 -11.23  4.61
Si  9.26 -6.99  4.01
Si  8.08 -7.10 -5.95
Si  1.08 -7.29  9.84
Si 10.02  5.02 -5.07
Si  7.11  4.01  9.21
Si -2.92 11.50 -3.32
Si  5.51 10.20  4.19
Si -4.29 -11.39 -2.20
Si 10.45  1.62 -6.43
Si  2.65  1.23 12.04
Si 11.59 -1.98  4.00
Si  7.99 -3.52  8.84
Si  8.16  3.19 -8.85
Si -11.35 -4.04  3.16
Si -7.19  9.34  4.01
Si  5.97 -1.24 10.86
Si  1.25 -12.36 -1.14
Si -9.72 -7.76  1.07
Si  4.56 11.62 -0.31
Si  3.44 -7.88 -9.09
Si -3.06 -7.12  9.83
Si  7.56  0.24  9.99
Si -1.13 -8.02 -9.59
Si -0.36 -8.88  8.85
Si -0.03 11.17 -5.72
Si -0.61  3.19 -12.12
Si  9.13 -5.24 -6.85
Si  5.96 -10.25 -4.18
Si -8.51 -7.10 -5.95
Si  5.60 -7.17 -8.69
Si  4.41 -11.36  3.15
Si 11.69  1.65  4.39
Si -9.53  6.35  5.32
Si -11.42 -0.19  5.38
Si  9.46 -1.98 -8.13
Si -8.43  3.19 -8.85
Si -7.94  9.12 -3.66
Si -4.26  8.88  7.91
Si -9.29  1.01 -8.56
Si  4.58  2.59 11.54
Si -8.01 -0.56 -9.82
Si  1.49 12.15  3.36
Si  5.93  9.23 -6.39
Si  7.85 -9.85  1.68
Si -9.75  4.05 -7.09
Si -0.98  8.31 -9.59
Si -1.89  7.06 10.43
Si  6.75 -1.67 -10.70
Si 12.58  1.06 -2.04
Si -10.11 -3.52  7.00
Si  5.04 -5.14 10.59
Si  8.89 -6.76  6.27
Si -8.60 -3.52  8.84
Si -10.49  6.08 -4.18
Si -11.21 -5.92 -2.01
Si -8.08 -9.26  3.78
Si  9.73 -2.02  8.17
Si -9.81 -5.68  6.09
Si  1.61 -11.08  6.39
Si -9.57  8.57  1.07
Si -1.81  5.14 -11.69
Si -0.11  6.68 -11.03
Si 10.85 -4.45 -5.43
Si -11.80  4.24 -3.11
Si  3.59  8.46 -9.09
Si  3.71 -10.23  7.00
Si -5.47 -4.49 10.87
Si 10.86  6.30 -3.29
Si 12.20  2.91 -3.36
Si -7.97  7.29 -7.22
Si -0.93 -2.82 -12.65
Si -7.19 -5.28  9.45
Si -5.40 -11.83 -0.09
Si -3.91 -0.41 12.40
Si 12.41 -0.37 -3.90
Si 12.80 -1.09  2.19
Si 11.10 -6.77 -0.97
Si  7.78  7.69  7.11
Si -7.72 -10.35 -1.86
Si  8.58 -0.56 -9.82
Si -12.17 -4.71 -0.31
Si  0.50 12.80 -2.52
Si -4.53  8.93 -8.39
Si -5.37  6.02 -10.28
Si  2.42  9.95  8.12
Si -4.11 -12.28  1.78
Si -5.25 -10.35  6.02
Si  8.65  9.12 -3.66
Si -5.17  1.70 -11.91
Si  6.87  2.29 10.91
Si  2.15  9.99 -8.18
Si  8.51 -9.26  3.78
Si  1.21 13.08 -0.29
Si -7.19 10.99 -0.51
Si -0.76 -12.94 -2.34
Si -0.30 -13.05  1.88
Si -9.35 -8.94 -2.71
Si  6.76 -3.43 10.83
Si  6.91 -9.98  5.32
Si -3.33 -7.58 -10.37
Si -8.74 -9.85  1.68
Si  1.55  5.94 11.79
Si  6.02  9.12  7.61
Si  4.64 -12.09 -3.11
Si -13.19 -1.30  1.68
Si  6.51 -5.64 -10.21
Si -10.64 -8.02 -1.03
Si -0.83 -1.74 13.23
Si -11.73  6.42 -0.37
Si 12.62  4.05  1.78
Si  2.67 -3.42 12.66
Si  8.12 10.57  1.37
Si -12.04  4.97  3.15
Si  8.62  7.29 -7.22
Si  1.22  9.04  9.84
Si -10.49  8.31 -1.03
Si -12.28  2.64 -4.76
Si  3.03 -2.80 -12.81
Si -11.23 -6.13  4.19
Si  5.80 -12.15 -0.34
Si -9.03  0.24  9.99
Si  6.39 -11.71  1.94
Si -6.67 -0.13 -11.73
