500
set: 1560.00  0.00  0.00
Si -0.47 -0.76 -0.23
Si  0.47  0.36  1.29
Si  1.20  0.26 -1.85
Si -1.61  1.97 -0.19
Si -0.39 -2.98  0.15
Si  2.96 -0.76  0.30
Si -2.32  0.94 -1.89
Si -1.20 -0.66  2.91
Si -3.11 -0.76  0.30
Si  3.02  1.04  1.26
Si -3.05  1.04  1.26
Si  0.26 -0.86 -3.38
Si -2.38 -0.86 -2.85
Si -0.88  1.87 -3.33
Si  1.87 -3.63 -0.69
Si  2.23 -0.66  3.44
Si -2.19 -3.08 -1.89
Si  3.74  0.94 -1.89
Si -2.34  2.07  2.96
Si  0.34 -3.08 -3.00
Si -2.92 -2.98  1.26
Si  1.14 -3.53  2.45
Si -0.26  0.46  4.44
Si  3.15 -2.98  1.26
Si -1.12 -2.88  3.29
Si -1.78  4.19 -0.69
Si  3.69 -0.86 -2.85
Si  4.46  1.97 -0.19
Si -0.51  4.85  1.26
Si  2.29  1.14  4.41
Si  0.22  4.75 -1.89
Si  3.73  2.07  2.96
Si -3.84 -0.66  3.44
Si -4.87  0.26 -1.85
Si  2.02  4.84  0.15
Si  3.88 -3.08 -1.89
Si -1.59  0.84 -5.03
Si  1.93  0.16 -5.00
Si -2.51  4.29  2.45
Si -4.19 -3.63 -0.69
Si  5.60 -0.76 -0.23
Si -1.05  4.09 -3.84
Si  4.87 -0.66  2.91
Si -5.60  0.36  1.29
Si  2.42 -2.88  4.41
Si -3.78  1.14  4.41
Si  2.60 -3.73 -3.84
Si  4.28  4.19 -0.69
Si  1.29  4.95  3.29
Si  3.55  4.29  2.45
Si -1.46 -3.18 -5.03
Si  2.04 -5.85 -0.19
Si  2.75  4.75 -3.00
Si -1.65 -0.96 -5.99
Si -4.04  4.84  0.15
Si -3.47 -3.73 -3.84
Si -1.93 -0.56  6.06
Si -3.65 -2.88  4.41
Si  5.68 -2.98  0.15
Si  5.18  1.87 -3.33
Si -4.14  0.16 -5.00
Si -3.31  4.75 -3.00
Si -4.92 -3.53  2.45
Si  0.41 -3.43  5.60
Si -6.53 -0.76 -0.23
Si  1.32 -5.75  2.96
Si  4.95 -2.88  3.29
Si  0.99 -0.96 -6.52
Si  6.54  0.36  1.29
Si -0.15  1.77 -6.48
Si -1.24  4.95  4.41
Si -5.81 -0.86 -3.38
Si  1.50 -0.56  6.59
Si  4.47  0.84 -5.03
Si  0.95  4.65 -5.03
Si  0.60 -6.78  1.26
Si  1.07 -3.18 -6.14
Si -4.02 -5.85 -0.19
Si -0.70  7.07  0.30
Si -6.45 -2.98  0.15
Si  3.00  2.17  6.10
Si -5.72 -3.08 -3.00
Si -3.07  2.17  6.10
Si  6.33 -0.86 -3.38
Si -1.84 -2.78  6.44
Si  1.33 -6.88 -1.89
Si  5.81  0.46  4.44
Si  1.94  7.07 -0.23
Si  4.14 -0.56  6.06
Si  2.77 -5.96 -3.33
Si  5.56  4.85  1.26
Si  4.41 -0.96 -5.99
Si  7.27  0.26 -1.85
Si  4.60 -3.18 -5.03
Si  5.01  4.09 -3.84
Si  0.03  6.97 -2.85
Si -3.29 -5.96 -3.33
Si -4.77  4.95  3.29
Si  2.83  4.39  5.60
Si -0.99  0.56  7.58
Si  6.41 -3.08 -3.00
Si -6.33  0.46  4.44
Si -5.85  4.75 -1.89
Si  1.56  1.24  7.55
Si -3.24  4.39  5.60
Si -1.94 -7.46  1.29
Si  1.21  7.17  2.91
Si -7.26 -0.66  2.91
Si -1.21 -7.57 -1.85
Si -7.68  1.97 -0.19
Si -6.95  1.87 -3.33
Si -0.12 -6.68  4.41
Si -4.75 -5.75  2.96
Si -4.57 -0.56  6.59
Si -0.33  3.99 -6.98
Si -1.43  7.17  3.44
Si  6.29  4.75 -1.89
Si -2.59  4.64 -6.14
Si  4.22 -2.78  6.44
Si -4.12  7.07 -0.23
Si  2.67  6.97 -3.38
Si  0.56  5.05  6.44
Si  4.83  4.95  4.41
Si  1.69 -2.77  7.55
Si -0.86  0.74 -8.18
Si -6.58  4.85  1.26
Si -5.08 -0.96 -6.52
Si  0.59 -5.65  6.10
Si  7.21 -3.53  2.45
Si -7.18 -2.88  3.29
Si -2.74 -3.83 -6.98
Si  3.48  4.64 -6.14
Si -3.40  6.97 -3.38
Si -5.00 -3.18 -6.14
Si -5.12  4.65 -5.03
Si -4.73 -6.88 -1.89
Si  2.66  0.06 -8.14
Si  0.55 -8.59  0.30
Si  4.13 -7.46  1.29
Si  3.33 -3.83 -6.98
Si -8.39  0.94 -1.89
Si -2.46  8.09 -1.85
Si -5.65 -3.43  5.60
Si  7.94 -3.63 -0.69
Si  2.88  8.19  1.29
Si -5.46 -6.78  1.26
Si -3.41  0.06 -8.14
Si -0.73 -3.28 -8.17
Si  2.06 -6.99 -5.03
Si  5.37  7.07  0.30
Si -4.51  1.24  7.55
Si -3.19  8.19  1.29
Si -7.85  4.19 -0.69
Si  5.91  1.77 -6.48
Si -8.45 -0.86 -2.85
Si  0.09  8.77 -1.89
Si -0.64  8.87  1.26
Si -2.67 -7.36  4.44
Si  8.29 -0.66  3.44
Si -8.26 -3.08 -1.89
Si  3.61  8.09 -1.85
Si -2.88 -8.58 -0.23
Si  9.02 -0.76  0.30
Si -7.12  4.09 -3.84
Si -4.85  7.17  2.91
Si  5.08  0.56  7.58
Si  0.76  6.87 -5.99
Si -8.41  2.07  2.96
Si -6.22  1.77 -6.48
Si -4.38 -2.77  7.55
Si  3.19 -8.58 -0.23
Si -0.18 -8.49  3.44
Si -0.48 -7.67 -5.00
Si  4.86 -7.57 -1.85
Si -7.66  0.84 -5.03
Si  4.64  7.17  3.44
Si -9.18 -0.76  0.30
Si  6.48 -3.43  5.60
Si  9.08  1.04  1.26
Si  1.27 -8.69 -2.85
Si -2.56 -6.05 -6.48
Si -0.92 -1.06 -9.13
Si  3.40 -7.36  4.44
Si -9.12  1.04  1.26
Si -1.97  5.05  7.55
Si  2.46 -8.48  2.91
Si -0.31 -3.33  8.74
Si  7.99  0.16 -5.00
Si  8.09  4.84  0.15
Si  7.36  4.95  3.29
Si  0.48  7.27  6.06
Si -4.00 -6.99 -5.03
Si  1.68  4.55 -8.17
Si  8.35  1.14  4.41
Si  3.50 -6.05 -6.48
Si -8.99 -2.98  1.26
Si -2.15 -8.68 -3.38
Si -1.73  7.99 -5.00
Si -2.65 -0.45  9.20
Si -7.53 -3.18 -5.03
Si  6.67 -6.78  1.26
Si  2.15  8.29  4.44
Si -6.04  6.97 -2.85
Si  7.06 -0.96 -6.52
Si -3.61 -8.48  2.91
Si  6.09  6.97 -2.85
Si  5.20  0.74 -8.18
Si  9.21 -2.98  1.26
Si  0.77 -0.46  9.73
Si  0.57  1.67 -9.62
Si -6.77  7.07  0.30
Si  2.27  2.27  9.25
Si  7.01  4.65 -5.03
Si  7.38 -5.75  2.96
Si -7.72 -0.96 -5.99
Si  3.41 -0.45  9.20
Si  0.80  9.80 -0.19
Si -2.67  6.87 -6.52
Si -5.50  5.05  6.44
Si -7.30  4.95  4.41
Si  1.72 -1.06 -9.67
Si  5.74  3.99 -6.98
Si -8.58  4.29  2.45
Si  7.14 -3.18 -6.14
Si -5.48 -5.65  6.10
Si  4.10  5.05  7.55
Si  5.94 -6.68  4.41
Si  8.48 -2.88  4.41
Si  8.11 -5.85 -0.19
Si  1.80 -3.28 -9.29
Si  9.81  0.94 -1.89
Si -7.99 -0.56  6.06
Si -2.16  7.27  6.59
Si  7.57 -0.56  6.59
Si  2.10  4.50  8.74
Si -0.85 -6.58  7.55
Si  0.82  8.67 -5.03
Si  3.40  6.87 -6.52
Si -1.37  8.97  4.41
Si  3.92 -8.68 -3.38
Si -6.19 -6.68  4.41
Si -3.91  8.29  4.44
Si  8.67 -3.73 -3.84
Si  9.75 -0.86 -2.85
Si -5.52 -8.59  0.30
Si -3.80  2.27  9.25
Si -6.39  3.99 -6.98
Si -2.57 -2.68  9.58
Si  7.40 -6.88 -1.89
Si  5.33 -3.28 -8.17
Si -4.79 -8.69 -2.85
Si  0.07  9.90  2.96
Si -4.39  4.55 -8.17
Si  1.53  9.70 -3.33
Si -7.05  0.56  7.58
Si  4.34  7.99 -5.00
Si  9.79  2.07  2.96
Si  8.82  4.75 -3.00
Si  5.43  8.87  1.26
Si  1.73 -8.38  6.06
Si -1.86  4.54 -9.29
Si -9.91 -0.66  3.44
Si  6.63  5.05  6.44
Si  5.14 -1.06 -9.13
Si  3.49 -2.68  9.58
Si -5.31  6.87 -5.99
Si  3.91  7.27  6.59
Si -7.91 -2.78  6.44
Si  9.94 -3.08 -1.89
Si -3.97  4.50  8.74
Si  7.28  7.17  2.91
Si  6.65 -5.65  6.10
Si -4.35 -1.06 -9.67
Si -7.28 -7.57 -1.85
Si  8.01  7.07 -0.23
Si -0.91 -8.39  6.59
Si 10.52  1.97 -0.19
Si  5.58 -7.67 -5.00
Si -4.27 -3.28 -9.29
Si -6.93  0.74 -8.18
Si -5.98  8.77 -1.89
Si -0.14 -5.55  9.25
Si  7.62  1.24  7.55
Si  0.83  1.34 10.69
Si  9.62  4.29  2.45
Si  2.00 -8.79 -5.99
Si  2.67 -7.26  7.58
Si  6.61 -8.59  0.30
Si -9.85  1.14  4.41
Si  0.40  3.89 -10.13
Si -0.16  5.15  9.58
Si  6.15  8.77 -1.89
Si -1.72  0.66 10.73
Si  5.88 -8.49  3.44
Si  0.74 -10.80  1.26
Si -10.26 -3.63 -0.69
Si -7.50  7.17  3.44
Si -9.38  4.75 -3.00
Si -9.53 -3.73 -3.84
Si  5.75 -3.33  8.74
Si -5.58  7.27  6.06
Si -8.01 -7.46  1.29
Si -1.42 -8.78 -6.52
Si -3.40 -7.26  7.58
Si  4.70  8.97  4.41
Si -9.71 -2.88  4.41
Si -2.01 -3.94 -10.13
Si  0.96 -2.67 10.70
Si -6.25 -8.49  3.44
Si -5.30 -0.46  9.73
Si -10.93  0.26 -1.85
Si -6.80 -3.28 -8.17
Si -5.27  9.80 -0.19
Si  9.06  2.17  6.10
Si  1.47 -10.90 -1.89
Si  4.21  4.54 -9.29
Si -2.80 -10.81  0.15
Si  8.84 -5.96 -3.33
Si  2.79 -7.08 -8.18
Si  7.76 -2.77  7.55
Si 10.35  4.19 -0.69
Si -6.71  8.87  1.26
Si -9.13  2.17  6.10
Si -5.49  1.67 -9.62
Si -10.11  4.84  0.15
Si -4.34 -8.38  6.06
Si -4.54  9.70 -3.33
Si -6.55 -7.67 -5.00
Si  0.25 -7.77 -8.14
Si  5.21 -6.58  7.55
Si  3.27 -10.81  0.15
Si -3.27 -7.08 -8.18
Si -5.25  8.67 -5.03
Si -6.38 -3.33  8.74
Si 10.94 -0.66  2.91
Si -0.14  0.64 -11.32
Si -10.21  0.16 -5.00
Si -1.00  7.89 -8.14
Si  6.82  6.87 -5.99
Si -4.06 -8.79 -5.99
Si  8.89  4.39  5.60
Si  1.42  8.39  7.58
Si  1.49  6.77 -9.13
Si  2.54 -10.71  3.29
Si -0.54 -11.46 -0.69
Si -2.07 -10.91 -3.00
Si  6.55  7.27  6.06
Si -6.99 -1.06 -9.13
Si -1.83 -6.16 -9.62
Si  0.01 -10.70  4.41
Si -9.36 -5.96 -3.33
Si -8.65  4.64 -6.14
Si  4.35  0.66 10.73
Si  4.06 -3.94 -10.13
Si -2.68 -0.04 -11.29
Si -10.09 -5.85 -0.19
Si  8.74  6.97 -3.38
Si -1.27 -11.36  2.45
Si 11.66 -0.76 -0.23
Si 10.54  0.84 -5.03
Si -9.31  4.39  5.60
Si  7.34 -8.69 -2.85
Si -0.66 10.00  6.10
Si -11.66  0.36  1.29
Si -3.53 -10.71  3.29
Si  3.38 -0.04 -11.29
Si -0.24  7.37  9.20
Si  2.26  9.60 -6.48
Si -10.99 -3.53  2.45
Si  6.64  1.67 -9.62
Si -0.01 -3.38 -11.32
Si  8.13 -6.99 -5.03
Si  5.16 -8.39  6.59
Si 11.02 -2.88  3.29
Si -8.80 -3.83 -6.98
Si 10.21 -0.56  6.06
Si 11.25  1.87 -3.33
Si  4.65 -8.78 -6.52
Si -8.52  8.09 -1.85
Si  6.84 -0.46  9.73
Si  8.72  0.06 -8.14
Si  1.54  8.57 -8.18
Si -6.00  9.90  2.96
Si -1.94  6.77 -9.67
Si  6.87  9.80 -0.19
Si -5.24  1.34 10.69
Si -4.60 -10.90 -1.89
Si -2.10  9.07  7.55
Si  4.00 -10.91 -3.00
Si  6.14  9.90  2.96
Si  0.63 12.02 -0.69
Si 10.48 -0.96 -5.99
Si -5.33 -10.80  1.26
Si 11.74 -2.98  0.15
Si -8.03  5.05  7.55
Si  7.74  4.55 -8.17
Si -5.11 -2.67 10.70
Si  6.88  8.67 -5.03
Si -6.92 -6.58  7.55
Si -2.70  5.15 10.70
Si  4.23 -6.16 -9.62
Si  0.19 -11.56 -3.84
Si -3.81  9.60 -6.48
Si  8.95  8.19  1.29
Si 10.67 -3.18 -5.03
Si -4.64  8.39  7.58
Si -9.46  6.97 -3.38
Si -7.79  7.99 -5.00
Si -5.66  3.89 -10.13
Si -4.58  6.77 -9.13
Si -8.73 -7.36  4.44
Si  9.55  4.64 -6.14
Si  2.19 -11.00 -5.03
Si  5.92 -5.55  9.25
Si  9.40 -3.83 -6.98
Si -0.20 -1.16 -12.28
Si  3.37  5.15 10.70
Si -10.84  4.95  3.29
Si -1.04 -3.23 11.89
Si -0.10 12.12  2.45
Si -11.87 -0.86 -3.38
Si -8.63 -6.05 -6.48
Si  8.53 -8.48  2.91
Si  5.90  5.15  9.58
Si  2.40  4.45 -11.32
Si -8.95 -8.58 -0.23
Si -10.19  7.07 -0.23
Si 11.08  4.09 -3.84
Si  5.07  7.89 -8.14
Si  1.00 -8.28  9.20
Si -8.22 -8.68 -3.38
Si -9.25  8.19  1.29
Si -6.21 -5.55  9.25
Si 10.29 -2.78  6.44
Si  3.97  9.07  7.55
Si -7.44  8.97  4.41
Si  7.79 -1.06 -9.67
Si  8.22  8.29  4.44
Si -9.48  0.06 -8.14
Si  4.13  6.77 -9.67
Si -10.63 -0.56  6.59
Si -6.23  5.15  9.58
Si  1.81 -10.61  6.44
Si -2.89  7.37  9.73
Si -11.79 -3.08 -3.00
Si  4.80 -11.36  2.45
Si  1.35 11.92 -3.84
Si -10.82 -5.75  2.96
Si  7.87 -3.28 -9.29
Si -1.58 -6.48 10.69
Si  3.18  7.37  9.73
Si  9.26 -8.58 -0.23
Si -12.60 -0.76 -0.23
Si  6.47  3.89 -10.13
Si  2.68 -0.35 12.35
Si  8.34  2.27  9.25
Si 11.62  4.85  1.26
Si -5.82 -7.77 -8.14
Si 12.60  0.36  1.29
Si -4.52  8.57 -8.18
Si -1.34 -11.01 -6.14
Si 11.88  0.46  4.44
Si -8.72 -0.45  9.20
Si 10.19 -7.46  1.29
Si -3.66  4.45 -11.32
Si -3.87 -11.00 -5.03
Si  1.54  2.38 12.39
Si -2.00 -11.26  5.60
Si  5.53 -11.46 -0.69
Si -6.98 -8.39  6.59
Si  9.68  8.09 -1.85
Si 10.89  4.95  4.41
Si  7.59  9.70 -3.33
Si  8.16  4.50  8.74
Si -1.63 12.67  0.15
Si  9.46 -7.36  4.44
Si  5.93  0.64 -11.32
Si  6.90  1.34 10.69
Si -8.22  7.27  6.59
Si -3.38 -0.35 12.35
Si  1.37  4.59 11.89
Si  6.80 -10.80  1.26
Si -12.52 -2.98  0.15
Si 12.39 -0.86 -3.38
Si  1.90 12.68  1.26
Si  0.04 -0.36 12.88
Si -8.73  6.87 -6.52
Si -1.64 -8.29  9.73
Si  6.31 -7.77 -8.14
Si  5.41 10.00  6.10
Si -6.20  0.64 -11.32
Si  1.30  1.57 -12.77
Si -10.80 -6.88 -1.89
Si -11.14 -0.96 -6.52
Si  7.80 -8.38  6.06
Si -0.91 12.57 -3.00
Si -11.91  4.75 -1.89
Si  2.63 12.58 -1.89
Si -7.92  4.54 -9.29
Si  2.73 -8.89 -9.13
