500
set: 399.00  0.00  0.00
Si  0.01 -0.02  0.02
Si -1.76  1.07  0.70
Si -0.03 -0.03 -2.22
Si -0.04 -2.14  0.69
Si  1.88  1.06  0.82
Si -3.63  0.03 -0.01
Si  0.10 -2.16  2.92
Si -1.92  0.95  2.94
Si  1.85 -3.15  0.05
Si -1.96 -0.99 -2.93
Si  1.81  3.19 -0.03
Si -1.87 -3.18 -0.03
Si  1.72  1.13  3.07
Si -1.82  3.22  0.05
Si  1.75 -1.17 -3.06
Si  3.72  0.03 -0.01
Si  0.10  2.08 -3.08
Si  3.48  0.03 -2.25
Si -1.74  3.12 -2.23
Si -3.64 -2.04  0.80
Si  1.88 -1.01  3.70
Si -1.80 -3.14 -2.30
Si -1.74 -1.13  3.77
Si  3.71 -2.04  0.80
Si -0.19  2.15  3.76
Si  1.88  3.23 -2.30
Si  1.93 -3.25 -2.23
Si  0.03  4.32  0.80
Si -3.87  0.03 -2.25
Si -3.64  2.10 -2.97
Si  3.71  2.10 -2.97
Si  0.03  4.22  3.03
Si  0.03 -4.27 -2.97
Si -3.64 -2.15  3.03
Si  3.71 -2.15  3.03
Si -1.80 -1.06 -5.18
Si  3.64  4.22  0.69
Si -5.48  1.06  0.82
Si  3.64  2.09  3.78
Si -1.80 -5.30  0.82
Si -3.71  4.22  0.69
Si  1.91 -5.29  0.70
Si -3.71  2.09  3.78
Si -0.03 -4.27  3.78
Si -0.04  2.10 -5.31
Si  1.91 -1.05 -5.30
Si  5.59  1.07  0.70
Si  5.40 -0.99 -2.93
Si -3.57  4.21  2.92
Si  5.43  0.95  2.94
Si  1.81 -1.05  5.97
Si -1.92  5.20 -3.06
Si  1.85  1.10 -5.96
Si  0.04 -6.33 -0.01
Si -5.50 -3.15  0.05
Si  5.48 -3.18 -0.03
Si  1.72  5.38 -2.93
Si  3.78  4.21  2.92
Si  0.04  2.15  5.99
Si  0.04 -2.09 -6.01
Si -3.57 -4.28 -3.08
Si -1.96 -5.23  3.07
Si -5.54  3.19 -0.03
Si  5.53  3.22  0.05
Si  0.04  6.40 -0.01
Si -1.82 -1.03  6.05
Si  1.75 -5.41  2.94
Si -1.87  1.07 -6.03
Si -5.60 -1.17 -3.06
Si  3.78 -4.28 -3.08
Si -5.63  1.13  3.07
Si  3.48 -4.22  3.76
Si  0.03 -4.17 -5.20
Si -5.47 -1.01  3.70
Si -5.42 -3.25 -2.23
Si -3.64  2.20 -5.20
Si -0.19 -6.34 -2.25
Si  1.93  5.24  3.77
Si -1.80  5.35  3.70
Si  3.71  2.20 -5.20
Si -5.47  3.23 -2.30
Si -0.19  6.39 -2.25
Si  5.55 -3.14 -2.30
Si  5.61  3.12 -2.23
Si  0.03  0.08  6.80
Si -3.87 -4.22  3.76
Si  5.61 -1.13  3.77
Si  0.01  4.22 -5.98
Si -3.66  6.34  0.02
Si -3.66 -2.15 -5.98
Si -7.34 -0.02  0.02
Si  3.69  6.34  0.02
Si  3.69 -2.15 -5.98
Si -3.66  2.10  6.02
Si -3.66 -6.39  0.02
Si  7.37 -0.02  0.02
Si  3.69  2.10  6.02
Si  3.69 -6.39  0.02
Si  0.01 -4.27  6.02
Si  3.64 -0.02  6.69
Si -5.44 -5.29  0.70
Si -1.76 -3.17  6.70
Si  3.64  6.34 -2.22
Si  7.32 -0.03 -2.22
Si -3.71 -0.02  6.69
Si  1.88  5.31 -5.18
Si  7.32 -2.14  0.69
Si -5.44 -1.05 -5.30
Si  5.55 -1.06 -5.18
Si  1.91  3.19  6.70
Si -3.71  6.34 -2.22
Si  3.64 -6.40 -2.22
Si -1.80  7.43  0.82
Si -1.76  5.32 -5.30
Si  1.91  7.44  0.70
Si -7.39 -0.03 -2.22
Si  5.55 -5.30  0.82
Si -3.71 -6.40 -2.22
Si -7.39 -2.14  0.69
Si  3.64 -4.27 -5.31
Si -1.80  3.19  6.82
Si  1.88 -3.18  6.82
Si -3.71 -4.27 -5.31
Si  1.75  7.32  2.94
Si  1.72 -7.36 -2.93
Si -7.25 -2.16  2.92
Si  5.43  5.20 -3.06
Si  5.40 -5.23  3.07
Si -7.25  2.08 -3.08
Si -1.82 -5.27 -5.96
Si -3.63 -4.21  5.99
Si -5.50  1.10 -5.96
Si -1.87  5.31  5.97
Si  3.72 -4.21  5.99
Si -5.54 -1.05  5.97
Si  5.48  1.07 -6.03
Si -3.63  4.28 -6.01
Si  1.81 -5.30 -6.03
Si  5.53 -1.03  6.05
Si  3.72  4.28 -6.01
Si  1.85  5.34  6.05
Si  7.46 -2.16  2.92
Si -5.63  5.38 -2.93
Si -5.60 -5.41  2.94
Si  7.46  2.08 -3.08
Si -1.96  7.50  3.07
Si -1.92 -7.54 -3.06
Si  7.16  2.15  3.76
Si -5.42  5.24  3.77
Si  0.03 -8.41  0.80
Si -1.80 -7.38  3.70
Si -0.19 -2.10 -8.25
Si  1.93  0.99 -8.23
Si -7.32  4.32  0.80
Si  5.55  5.35  3.70
Si -1.80  1.11 -8.30
Si  7.38  4.32  0.80
Si  1.93 -7.49  3.77
Si -7.54  2.15  3.76
Si  0.03  8.47 -2.97
Si  0.03 -0.02 -8.97
Si -7.32  4.22  3.03
Si -7.32 -4.27 -2.97
Si  7.38  4.22  3.03
Si  7.38 -4.27 -2.97
Si  0.03 -0.02  9.03
Si  0.03 -8.51  3.03
Si -9.11  1.07  0.70
Si -5.44  3.19  6.70
Si -0.04  6.34  6.69
Si -5.48  5.31 -5.18
Si -5.44  7.44  0.70
Si -0.03  4.21 -8.22
Si  1.88 -7.42 -5.18
Si  3.64 -2.15 -8.22
Si -0.04 -6.39  6.69
Si -0.03  8.46  3.78
Si -3.71 -2.15 -8.22
Si  7.32 -4.27  3.78
Si  3.64 -8.51  0.69
Si  7.32  2.10 -5.31
Si -1.76 -7.42 -5.30
Si  5.59 -3.17  6.70
Si -5.48 -3.18  6.82
Si -3.71 -8.51  0.69
Si  5.55  7.43  0.82
Si  9.23  1.06  0.82
Si -7.38 -4.27  3.78
Si -7.39  2.10 -5.31
Si  5.55  3.19  6.82
Si  5.59  5.32 -5.30
Si -3.57 -0.04  8.92
Si  1.72 -3.11 -8.93
Si  1.75  3.08  8.95
Si  9.07  1.13  3.07
Si -7.31 -6.33 -0.01
Si  9.10 -1.17 -3.06
Si -5.60  7.32  2.94
Si -3.57  8.45 -3.08
Si  5.53 -5.27 -5.96
Si -1.82 -9.51  0.05
Si  3.78 -0.04  8.92
Si -7.31  2.15  5.99
Si -7.31 -2.09 -6.01
Si  5.48  5.31  5.97
Si -3.57 -8.53  2.92
Si  9.16  3.19 -0.03
Si -1.87 -7.42  5.97
Si -1.96  3.25 -8.93
Si  1.81 -9.54 -0.03
Si -7.31  6.40 -0.01
Si -5.63 -7.36 -2.93
Si -1.82  7.46 -5.96
Si -9.18  3.22  0.05
Si -1.92 -3.29  8.95
Si  9.20 -3.15  0.05
Si  1.75  3.08 -9.06
Si  1.85 -7.39  6.05
Si  5.40  7.50  3.07
Si  7.40 -6.33 -0.01
Si -1.87  9.56 -0.03
Si  1.81  7.43 -6.03
Si  1.72 -3.11  9.07
Si -9.22 -3.18 -0.03
Si  3.78  8.45 -3.08
Si -5.54 -5.30 -6.03
Si  7.40  2.15  5.99
Si  7.40 -2.09 -6.01
Si -3.57 -0.04 -9.09
Si  1.85  9.59  0.05
Si -5.50  5.34  6.05
Si  3.78 -8.53  2.92
Si  5.43 -7.54 -3.06
Si -9.28  0.95  2.94
Si  7.40  6.40 -0.01
Si -9.31 -0.99 -2.93
Si  7.16 -6.34 -2.25
Si -1.92 -3.29 -9.06
Si -1.96  3.25  9.07
Si  3.78 -0.04 -9.09
Si  7.16  6.39 -2.25
Si -9.10  3.12 -2.23
Si -7.32 -4.17 -5.20
Si -5.42  0.99 -8.23
Si -9.09 -1.13  3.77
Si  3.48  4.27 -8.25
Si  1.93  9.48 -2.23
Si -1.80  1.11  9.71
Si  3.48  8.52  3.76
Si -9.15 -3.14 -2.30
Si  7.38 -4.17 -5.20
Si  5.55 -7.38  3.70
Si -3.64 -6.29  6.80
Si  1.88 -9.50 -2.30
Si  3.71 -6.29  6.80
Si -1.74 -5.37 -8.23
Si -0.19 -2.10  9.76
Si -5.42 -7.49  3.77
Si -7.32  0.08  6.80
Si  9.23 -1.01  3.70
Si  1.88 -5.26 -8.30
Si  1.93  0.99  9.78
Si  0.03  8.57 -5.20
Si -1.74 -9.62 -2.23
Si -1.80  9.60 -2.30
Si  7.38  0.08  6.80
Si  9.23  3.23 -2.30
Si  5.55  1.11 -8.30
Si -3.64  6.44  6.80
Si -3.87  4.27 -8.25
Si  3.71  6.44  6.80
Si -3.87  8.52  3.76
Si  9.28 -3.25 -2.23
Si -7.54 -6.34 -2.25
Si -7.54  6.39 -2.25
Si -7.34  4.22 -5.98
Si  7.37  4.22 -5.98
Si  0.01  8.46  6.02
Si  0.01 -8.51 -5.98
Si -7.34 -4.27  6.02
Si  7.37 -4.27  6.02
Si -9.15 -1.06 -5.18
Si -5.48 -7.42 -5.18
Si -9.15 -5.30  0.82
Si -0.04 10.59  0.69
Si  3.64  8.47 -5.31
Si -0.03  4.21  9.78
Si  3.64 -2.15  9.78
Si -3.71  8.47 -5.31
Si -3.71 -2.15  9.78
Si  5.59 -7.42 -5.30
Si  9.27 -5.29  0.70
Si  9.27 -1.05 -5.30
Si  5.40  3.25 -8.93
Si  0.10  6.33  8.92
Si  9.07  5.38 -2.93
Si  5.43 -3.29  8.95
Si  0.10 10.57  2.92
Si -10.98  0.03 -0.01
Si  0.10 -6.41  8.92
Si  9.16 -1.05  5.97
Si  5.48 -7.42  5.97
Si  9.10 -5.41  2.94
Si -5.60  3.08  8.95
Si -3.63 -8.46 -6.01
Si  5.53 -9.51  0.05
Si -5.63 -3.11 -8.93
Si  9.20  1.10 -5.96
Si  5.48  9.56 -0.03
Si -5.50 -7.39  6.05
Si  3.72 -8.46 -6.01
Si -3.63  8.52  5.99
Si  5.53  7.46 -5.96
Si -5.54 -9.54 -0.03
Si -9.18 -1.03  6.05
Si  5.40  3.25  9.07
Si -5.50  9.59  0.05
Si  3.72  8.52  5.99
Si  5.43 -3.29 -9.06
Si -5.54  7.43 -6.03
Si -9.28  5.20 -3.06
Si 10.83  0.03 -2.25
Si -9.22  1.07 -6.03
Si  0.10  6.33 -9.09
Si 11.07  0.03 -0.01
Si  0.10 -10.65 -3.08
Si -5.60  3.08 -9.06
Si -9.31 -5.23  3.07
Si  0.10 -6.41 -9.09
Si  7.16 -2.10 -8.25
Si -5.63 -3.11  9.07
Si -5.42  9.48 -2.23
Si -7.32 -8.41  0.80
Si -1.74  7.36 -8.23
Si  1.88 -5.26  9.71
Si  0.03  0.08 -11.20
Si -5.47 -9.50 -2.30
Si  3.48  4.27  9.76
Si -10.99 -2.04  0.80
Si  7.38 -8.41  0.80
Si -5.42  0.99  9.78
Si -9.15  5.35  3.70
Si -0.19 -10.58  3.76
Si  5.55  1.11  9.71
Si -5.47 -5.26 -8.30
Si 11.06 -2.04  0.80
Si -1.74 -5.37  9.78
Si  9.28  5.24  3.77
Si  5.61 -5.37 -8.23
Si -3.64 10.69  0.80
Si  5.55  9.60 -2.30
Si  1.88  7.47 -8.30
Si -3.87  4.27  9.76
Si  3.71 10.69  0.80
Si  5.61 -9.62 -2.23
Si -7.54 -2.10 -8.25
Si -11.22  0.03 -2.25
Si -3.64  6.34 -8.97
Si -7.32  8.47 -2.97
Si -7.32 -0.02 -8.97
Si -10.99  2.10 -2.97
Si  3.71  6.34 -8.97
Si -3.64 10.59  3.03
Si -3.64 -6.39 -8.97
Si -10.99 -2.15  3.03
Si  7.38  8.47 -2.97
Si  3.71 10.59  3.03
Si  7.38 -0.02 -8.97
Si  3.71 -6.39 -8.97
Si -3.64  6.34  9.03
Si -7.32 -0.02  9.03
Si -3.64 -10.63 -2.97
Si -7.32 -8.51  3.03
Si 11.06  2.10 -2.97
Si  3.71  6.34  9.03
Si  3.71 -10.63 -2.97
Si -3.64 -6.39  9.03
Si 11.06 -2.15  3.03
Si  7.38 -0.02  9.03
Si  7.38 -8.51  3.03
Si  3.71 -6.39  9.03
Si -9.11 -3.17  6.70
Si -1.80  3.19 -11.19
Si  7.32  6.34  6.69
Si  1.88 -3.18 -11.19
Si  7.32  4.21 -8.22
Si  7.32 -6.39  6.69
Si 10.99  4.22  0.69
Si  7.32  8.46  3.78
Si -9.11  5.32 -5.30
Si -1.76  9.56  6.70
Si 10.99  2.09  3.78
Si -1.76 -11.66  0.70
Si -7.39  6.34  6.69
Si  1.91 -9.54  6.70
Si -9.15  7.43  0.82
Si -7.39  4.21 -8.22
Si -7.39 -6.39  6.69
Si  9.23  5.31 -5.18
Si -0.03 -8.52 -8.22
Si  1.88 -11.67  0.82
Si -7.39  8.46  3.78
Si -9.15  3.19  6.82
Si -11.06  4.22  0.69
Si  3.64 -10.64  3.78
Si -1.80 -9.54  6.82
Si -1.76 -3.17 -11.30
Si  9.27  3.19  6.70
Si -11.06  2.09  3.78
Si -0.04 -10.63 -5.31
Si -3.71 -10.64  3.78
Si  3.64 -0.02 -11.32
Si  1.88  9.55  6.82
Si  1.91  3.19 -11.30
Si  9.27  7.44  0.70
Si  9.23 -3.18  6.82
Si -3.71 -0.02 -11.32
Si  9.07 -7.36 -2.93
Si  9.10  7.32  2.94
Si -10.92  4.21  2.92
Si  1.75 11.56 -3.06
Si  1.72 -11.60  3.07
Si -10.92 -4.28 -3.08
Si -1.82 -1.03 -11.96
Si -9.18 -5.27 -5.96
Si  0.04 -10.58  5.99
Si -1.87  1.07 11.97
Si  0.04 -2.09 11.99
Si  9.16 -5.30 -6.03
Si -9.22  5.31  5.97
Si  0.04  2.15 -12.02
Si  1.81 -1.05 -12.04
Si 10.83 -4.22  3.76
Si  0.04 10.64 -6.01
Si  9.20  5.34  6.05
Si  1.85  1.10 12.05
Si 11.13  4.21  2.92
Si -1.96 11.74 -2.93
Si  7.16 -2.10  9.76
Si -1.92 -11.78  2.94
Si -3.64 -10.53 -5.20
Si  3.71 -10.53 -5.20
Si  3.48 -8.46 -8.25
Si 11.13 -4.28 -3.08
Si -5.47 -5.26  9.71
Si -9.15 -7.38  3.70
Si -1.74 11.61  3.77
Si -9.28 -7.54 -3.06
Si -9.31  7.50  3.07
Si -10.99  2.20 -5.20
Si -1.74  7.36  9.78
Si  5.61  7.36 -8.23
Si  1.88  7.47  9.71
Si -9.15  1.11 -8.30
Si -7.32  8.57 -5.20
Si 11.06  2.20 -5.20
Si  1.88 11.72  3.70
Si -3.87 -8.46 -8.25
Si -5.47  7.47 -8.30
Si  9.28  0.99 -8.23
Si  7.38  8.57 -5.20
Si  5.61 -5.37  9.78
Si -7.54 -2.10  9.76
Si  9.28 -7.49  3.77
Si -11.22 -4.22  3.76
Si -3.66 10.59 -5.98
Si -3.66  2.10 -11.99
Si -11.01  6.34  0.02
Si  3.69 10.59 -5.98
Si  0.01 12.71  0.02
Si -11.01 -2.15 -5.98
Si  3.69  2.10 -11.99
Si -7.34  8.46  6.02
Si  0.01 -4.27 -11.99
Si -11.01  2.10  6.02
Si -7.34 -8.51 -5.98
Si -11.01 -6.39  0.02
Si 11.04  6.34  0.02
Si  7.37  8.46  6.02
Si 11.04 -2.15 -5.98
Si  0.01  4.22 12.02
Si  7.37 -8.51 -5.98
Si -3.66 -2.15 12.02
Si 11.04  2.10  6.02
Si  0.01 -12.76  0.02
Si -3.66 -10.63  6.02
Si 11.04 -6.39  0.02
Si  3.69 -2.15 12.02
Si  3.69 -10.63  6.02
Si -5.48 -3.18 -11.19
Si -5.44 -9.54  6.70
Si -0.04  2.10 12.69
Si 10.99 -0.02  6.69
Si 10.99  6.34 -2.22
Si  5.55  3.19 -11.19
Si  7.32 10.59  0.69
Si -9.11 -7.42 -5.30
Si  1.91 -1.05 12.71
Si -0.03 12.70 -2.22
Si -12.83  1.06  0.82
