500
set: 892.00  0.00  0.00
Si  0.45 -1.17  0.84
Si -0.45  1.21 -0.80
Si -1.33 -1.20 -0.86
Si  1.34  1.21  0.82
Si  2.17 -1.18 -0.81
Si -0.86 -0.03  2.48
Si  0.88  0.03 -2.50
Si -2.23  1.19  0.81
Si  0.02  2.38  2.46
Si  3.11  1.15 -0.86
Si -0.05 -2.35 -2.51
Si -3.12 -1.19  0.83
Si  2.63 -0.01  2.46
Si -2.65  0.02 -2.48
Si -0.47 -3.54  0.86
Si  0.52  3.60 -0.82
Si -1.74  2.33 -2.49
Si  1.75 -2.38  2.50
Si -1.30  3.56  0.82
Si  1.83  2.37 -2.47
Si -1.82 -2.38  2.50
Si  1.31 -3.59 -0.80
Si -0.88  0.07 -4.12
Si  0.92 -0.00  4.12
Si  3.98 -1.21  0.81
Si -3.99  1.18 -0.83
Si -2.25 -3.56 -0.82
Si  2.30  3.62  0.86
Si -3.04  3.56 -0.84
Si  3.03 -3.60  0.86
Si  0.02  2.41 -4.14
Si -0.02 -2.38  4.17
Si -2.64  0.02  4.12
Si -3.50  2.37  2.49
Si  3.48 -2.41 -2.51
Si  2.68 -0.01 -4.15
Si  3.58  2.40  2.49
Si -3.60 -2.41 -2.45
Si -4.38  0.02  2.51
Si  1.70 -2.38 -4.14
Si  4.46  0.02 -2.47
Si -1.77  2.39  4.14
Si  1.82  2.42  4.12
Si -4.90 -1.20 -0.85
Si  4.91  1.20  0.83
Si -1.77 -2.41 -4.18
Si -0.84  4.75 -2.45
Si  0.82 -4.76  2.49
Si -0.94 -4.78 -2.47
Si  0.94  4.78  2.50
Si  4.07  3.57 -0.80
Si -4.07 -3.60  0.82
Si -0.39  1.17  5.75
Si -3.50  2.36 -4.13
Si -5.74  1.20  0.83
Si  5.75 -1.20 -0.85
Si  0.44 -1.16 -5.81
Si  3.58  2.37 -4.11
Si  3.52 -2.43  4.13
Si -3.58 -2.35  4.13
Si  2.60 -4.78 -2.47
Si -2.63  4.76  2.51
Si -0.36  5.97  0.83
Si -2.75 -4.78  2.46
Si  1.37  1.20 -5.76
Si -1.36 -1.17  5.79
Si  2.72  4.80 -2.51
Si  4.44 -0.01  4.15
Si -4.85  3.56  0.86
Si  0.34 -6.01 -0.86
Si  4.84 -3.60 -0.84
Si -4.44  0.01 -4.17
Si -1.42 -5.95  0.82
Si  1.44  5.96 -0.86
Si  5.25 -2.40  2.51
Si -5.28  2.37 -2.47
Si -2.20  1.23 -5.80
Si  2.20 -1.21  5.82
Si -0.95 -4.74  4.12
Si  0.82 -4.79 -4.11
Si  5.37  2.37 -2.47
Si  2.14 -5.95  0.83
Si -2.13  5.96 -0.85
Si -0.82  4.80  4.13
Si  0.99  4.75 -4.18
Si -5.39 -2.40  2.51
Si -6.18  0.02 -2.47
Si  3.08  1.20  5.79
Si -3.16 -1.19 -5.79
Si  6.26  0.02  2.51
Si  6.65  1.18 -0.83
Si -3.22 -5.95 -0.80
Si -6.67 -1.21  0.81
Si  2.58 -4.79  4.13
Si -0.46 -3.58 -5.81
Si -2.63  4.78 -4.14
Si  3.22  5.99  0.84
Si  5.79  3.56  0.86
Si -2.74 -4.75 -4.14
Si -5.80 -3.60 -0.84
Si  0.50  3.65  5.81
Si  2.75  4.78  4.17
Si  1.30 -3.58  5.78
Si -1.25  3.60 -5.81
Si -4.41  4.75 -2.51
Si  4.38 -4.79  2.49
Si  4.51  4.78  2.50
Si -4.51 -4.83 -2.49
Si  5.25 -2.38 -4.14
Si -5.30  2.36  4.13
Si  3.96 -1.21 -5.80
Si -4.01  1.20  5.79
Si  5.35  2.36  4.13
Si -2.27 -3.51  5.81
Si -3.90  5.95  0.81
Si  3.89 -5.97 -0.83
Si  2.30  3.58 -5.81
Si -5.39 -2.38 -4.14
Si -3.06  3.58  5.76
Si  3.05 -3.59 -5.78
Si -6.21 -0.01  4.15
Si  6.20  0.01 -4.17
Si -6.57  3.57 -0.80
Si -0.44  1.20 -7.43
Si  6.58 -3.60  0.82
Si  0.45 -1.20  7.46
Si -0.14 -7.17  2.46
Si  0.12  7.17 -2.48
Si  1.33  1.23  7.42
Si -4.36  4.73  4.13
Si  7.52 -1.19  0.83
Si -7.54  1.15 -0.86
Si -4.88 -1.22  5.80
Si  4.91  1.15 -5.80
Si -1.36 -1.20 -7.47
Si  4.38 -4.80 -4.13
Si  1.70 -7.13 -2.47
Si  4.47  4.78 -4.14
Si -1.62  7.18  2.51
Si -4.54 -4.77  4.14
Si  1.91  7.12  2.48
Si -1.88 -7.13 -2.50
Si  4.93  5.98 -0.81
Si -5.00 -5.97  0.81
Si  7.04 -2.41 -2.45
Si  2.20 -1.18 -7.44
Si -7.06  2.40  2.49
Si -2.22  1.17  7.48
Si -4.02 -3.56 -5.81
Si  4.06  3.57  5.78
Si  7.15  2.37  2.49
Si -7.17 -2.41 -2.51
Si  3.13  1.20 -7.43
Si -3.12 -1.25  7.43
Si -6.13  4.78  2.50
Si  6.14 -4.83 -2.49
Si  6.24  4.75 -2.51
Si -5.74  1.15 -5.80
Si -0.50 -3.55  7.43
Si  5.65 -5.97  0.81
Si  5.76 -1.22  5.80
Si  0.53  3.55 -7.45
Si -6.26 -4.79  2.49
Si  0.13  7.18  4.12
Si -0.09 -7.16 -4.15
Si -5.71  5.98 -0.81
Si  0.32 -5.95  5.79
Si  4.82 -3.57  5.76
Si -0.39  5.97 -5.79
Si -3.42  7.18 -2.47
Si  3.50 -7.14  2.51
Si -4.83  3.57 -5.78
Si -1.26  3.60  7.45
Si  8.00  0.02 -2.48
Si  1.25 -3.59 -7.46
Si -8.02 -0.01  2.46
Si -0.60 -8.34 -0.81
Si  0.54  8.35  0.81
Si -1.40 -5.96 -5.76
Si -3.62 -7.19  2.48
Si  3.65  7.19 -2.50
Si  7.61  3.56 -0.84
Si  1.40  5.99  5.79
Si  1.67 -7.16  4.15
Si -1.68  7.16 -4.17
Si -1.84 -7.16  4.12
Si -7.62 -3.60  0.86
Si -1.23  8.34 -0.83
Si  1.21 -8.37  0.81
Si -7.06  2.37 -4.11
Si  7.06 -2.35  4.13
Si -4.01  1.18 -7.42
Si  1.88  7.23 -4.12
Si  8.41  1.19  0.81
Si  3.98 -1.21  7.46
Si  2.27  3.61  7.43
Si -2.12  5.94  5.80
Si -2.24 -3.61 -7.45
Si  7.14  2.36 -4.13
Si -7.12 -2.43  4.13
Si -8.48 -1.18 -0.81
Si  2.14 -6.01 -5.80
Si -2.31 -8.33  0.84
Si  2.31  8.37 -0.80
Si -3.00  3.60 -7.42
Si  6.11 -4.77  4.14
Si  3.08 -3.56  7.46
Si -6.18  4.78 -4.14
Si -3.15 -5.99  5.75
Si  6.29  4.73  4.13
Si  6.64  1.20  5.79
Si -6.27 -4.80 -4.13
Si  2.98 -8.36 -0.85
Si -2.97  8.36  0.83
Si -6.68 -1.21 -5.80
Si -5.83 -3.57  5.76
Si  3.20  6.00 -5.81
Si  4.86  1.17  7.42
Si  5.82  3.57 -5.78
Si -3.44  7.15  4.15
Si  3.44 -7.15 -4.17
Si -3.65 -7.09 -4.12
Si -4.88 -1.21 -7.44
Si -7.97 -0.01 -4.15
Si  8.01  0.02  4.12
Si  6.74  5.95  0.81
Si  3.69  7.16  4.12
Si -6.76 -5.97 -0.83
Si  0.92  0.04 -9.06
Si -8.35  3.62  0.86
Si -0.87  0.02  9.11
Si  8.39 -3.56 -0.82
Si  3.87 -5.96  5.79
Si -3.92  5.94 -5.80
Si -4.03 -3.56  7.45
Si  5.23 -7.14 -2.48
Si  4.01  3.57 -7.46
Si -5.25  7.15  2.46
Si  5.39  7.15  2.46
Si -5.41 -7.14 -2.48
Si -4.09 -8.36 -0.86
Si  4.11  8.37  0.82
Si  0.06  2.38  9.07
Si -0.04 -2.37 -9.11
Si -9.30  1.21  0.82
Si  9.32 -1.20 -0.86
Si -8.82  2.37 -2.47
Si -6.58  3.57  5.78
Si  8.82 -2.38  2.50
Si -5.79  1.17  7.42
Si  5.76 -1.21 -7.44
Si -2.68 -0.02 -9.11
Si  6.62 -3.56 -5.81
Si -0.36  5.91  7.43
Si  2.69 -0.01  9.13
Si  0.36 -5.96 -7.43
Si  8.90  2.33 -2.49
Si  7.49 -1.19 -5.79
Si -8.90 -2.38  2.50
Si  1.73 -2.43  9.07
Si  7.42 -5.95 -0.80
Si  7.90 -4.78  2.46
Si  4.88 -3.56 -7.42
Si -1.74  2.39 -9.10
Si -7.43  5.99  0.84
Si -4.80  3.60  7.46
Si  1.84  2.41 -9.09
Si -7.56  1.20  5.79
Si -7.93  4.80 -2.51
Si -1.43 -5.93  7.42
Si -1.84 -2.37  9.13
Si -4.77  8.31 -0.86
Si  4.76 -8.35  0.83
Si  8.02  4.76  2.51
Si  1.40  5.96 -7.47
Si -4.97 -5.93 -5.80
Si -8.05 -4.78 -2.47
Si  4.97  5.95  5.82
Si -2.12  5.94 -7.44
Si  2.09 -5.99  7.42
Si -5.20  7.15 -4.15
Si  5.24 -7.14  4.12
Si -5.40 -7.14  4.12
Si  1.02  9.49 -2.49
Si -0.73  9.52  2.49
Si  5.44  7.15 -4.15
Si -1.02 -9.54  2.50
Si  0.71 -9.57 -2.51
Si  6.63  1.18 -7.42
Si -3.52  2.38  9.08
Si  9.35  3.56  0.82
Si -8.82  2.42  4.12
Si -9.34 -3.59 -0.80
Si  3.53 -2.38 -9.10
Si -5.77 -3.56 -7.42
Si -3.21 -5.96 -7.43
Si  5.68 -5.93 -5.80
Si  3.21  5.95  7.46
Si -6.66 -1.21  7.46
Si  3.55  2.40  9.12
Si -9.76  0.03 -2.50
Si -5.68  5.95  5.82
Si  8.87  2.39  4.14
Si  4.41 -0.02 -9.07
Si -3.61 -2.39 -9.12
Si  9.79 -0.03  2.48
Si  8.87 -2.41 -4.18
Si -4.42 -0.02  9.09
Si  7.90 -4.75 -4.14
Si -7.89  4.78  4.17
Si -8.94 -2.38 -4.14
Si  5.85  3.60  7.46
Si -2.52  9.53 -2.47
Si  7.58  3.58  5.76
Si  2.48 -9.55  2.51
Si -7.59 -3.59 -5.78
Si  8.02  4.78 -4.14
Si -0.56 -8.37  5.82
Si  0.56  8.38 -5.80
Si  5.87  8.31 -0.86
Si -2.81 -9.51 -2.51
Si  2.79  9.54  2.46
Si -1.24  8.36  5.79
Si -8.06 -4.79  4.13
Si -5.89 -8.35  0.83
Si  1.20 -8.37 -5.80
Si  3.87 -5.97 -7.42
Si -10.19 -1.17  0.84
Si 10.19  1.21 -0.80
Si -0.93 -4.75 -9.09
Si -3.90  5.95  7.46
Si  0.78 -4.76  9.12
Si  8.44  1.23 -5.80
Si -0.85  4.77 -9.12
Si -8.45 -1.21  5.82
Si -7.00  7.19 -2.50
Si  7.02 -7.19  2.48
Si  0.93  4.79  9.13
Si  2.38  8.33  5.75
Si -0.74  9.52 -4.13
Si -7.15 -7.14  2.51
Si -2.33 -8.32 -5.81
Si -8.50 -5.95  0.83
Si  8.51  5.96 -0.85
Si -1.06 -9.53 -4.14
Si  0.99  9.55  4.14
Si  0.76 -9.59  4.13
Si  7.23  7.18 -2.47
Si -2.97  8.31 -5.80
Si -9.72 -0.00  4.12
Si  6.62 -3.56  7.45
Si  9.76  0.07 -4.12
Si -2.61  4.76  9.10
Si -6.63  3.57 -7.46
Si -2.71 -4.78  9.07
Si  2.59 -4.79 -9.11
Si  3.00 -8.38  5.80
Si -7.51  1.20 -7.43
Si  2.73  4.79 -9.11
Si  7.52 -1.25  7.43
Si -6.54  8.37  0.82
Si  6.55 -8.36 -0.86
Si -2.53  9.52  4.13
Si  2.49 -9.54 -4.14
Si  6.73  5.94 -5.80
Si -6.78 -5.96  5.79
Si -0.27 10.72 -0.84
Si  4.27 -9.57 -2.45
Si  4.96  5.98 -7.44
Si -4.30  9.56  2.49
Si -2.78 -9.54  4.17
Si  7.00 -7.09 -4.12
Si -8.34  3.58 -5.81
Si -10.13  3.60 -0.82
Si  8.38 -3.51  5.81
Si  5.27 -2.40  9.10
Si -0.87  0.02 -10.75
Si  2.79  9.57 -4.14
Si  0.26 -10.76  0.86
Si -6.96  7.16  4.12
Si -5.29  2.37 -9.11
Si -4.99 -5.99  7.48
Si 10.18 -3.54  0.86
Si  0.92  0.04 10.79
Si -5.37 -2.40  9.10
Si  5.36  2.37 -9.11
Si  1.47 10.71  0.82
Si  4.59  9.53 -2.47
Si -4.59 -9.54  2.50
Si -1.46 -10.75 -0.80
Si -4.13 -8.33  5.79
Si -2.08 10.72  0.86
Si  4.13  8.36 -5.76
Si  7.20  7.15  4.15
Si -7.21 -7.15 -4.17
Si  2.08 -10.75 -0.84
Si -9.28  1.20 -5.76
Si -9.21  5.96 -0.86
Si  9.28 -1.17  5.79
Si  9.22 -5.95  0.82
Si -0.04 -2.37 10.75
Si -6.23 -0.02 -9.07
Si  6.22 -0.02  9.09
Si  0.06  2.38 -10.79
Si  2.69 -0.01 -10.73
Si -2.68 -0.02 10.75
Si -9.70  4.78  2.50
Si  9.71 -4.78 -2.47
Si -5.68  5.98 -7.44
Si  5.66 -5.99  7.48
Si -1.84 -2.37 -10.73
Si 10.60 -2.35 -2.51
Si  4.36 -4.78  9.08
Si -1.74  2.39 10.76
Si -10.62  2.38  2.46
Si -4.35  4.78 -9.10
Si  9.80  4.75 -2.45
Si  4.49  4.73  9.07
Si  7.49 -5.99  5.75
Si -7.44  6.00 -5.81
Si  1.84  2.41 10.77
Si -0.57 -8.34 -7.44
Si  1.73 -2.43 -10.79
Si 11.10 -1.17  0.84
Si -11.10  1.21 -0.80
Si -9.83 -4.76  2.49
Si  4.72 -8.35 -5.79
Si 10.67  2.38  2.46
Si -7.56 -3.56  7.46
Si  0.54  8.33  7.48
Si -3.23 -10.70  0.86
Si -4.51 -4.77 -9.10
Si  4.29 -9.51  4.13
Si -4.30  9.53 -4.11
Si -1.25  8.34 -7.42
Si -10.69 -2.35 -2.51
Si -4.79  8.36  5.79
Si  7.64  3.60 -7.42
Si  1.22 -8.36  7.46
Si  3.28 10.76 -0.82
Si -8.45 -1.18 -7.44
Si  8.42  1.17  7.48
Si -7.66 -8.36 -0.85
Si  7.67  8.36  0.83
Si -4.54 -9.56 -4.18
Si  4.59  9.57  4.12
Si -3.81 10.72 -0.80
Si  2.32  8.36 -7.43
Si -2.32 -8.36  7.46
Si  3.81 -10.76  0.82
Si -9.65  4.75 -4.18
Si -8.74  7.12  2.48
Si  9.70 -4.74  4.12
Si -3.02  8.33  7.42
Si -6.05  9.53 -2.47
Si -9.35 -3.58  5.78
Si  3.55  2.40 -10.74
Si  3.53 -2.38 10.76
Si  8.76 -7.13 -2.50
Si  6.05 -9.54  2.50
Si  0.08  7.13 -9.11
Si -3.61 -2.39 10.74
Si -3.52  2.38 -10.78
Si  3.00 -8.37 -7.44
Si -0.07 -7.17  9.13
Si  9.39  3.60 -5.81
Si -4.42 -0.02 -10.77
Si  4.41 -0.02 10.79
Si -10.62  2.41 -4.14
Si 10.63 -2.38  4.17
Si -1.66  7.14  9.09
Si -1.85 -7.12 -9.06
Si -9.83 -4.79 -4.11
Si  1.65 -7.18 -9.07
Si  6.75  5.95  7.46
Si -6.78 -5.97 -7.42
Si -10.66 -2.38  4.17
Si  9.83  4.80  4.13
Si 10.67  2.41 -4.14
Si -11.11 -3.54  0.86
Si -8.95 -7.13 -2.47
Si  5.85  8.36  5.79
Si  6.35  9.56  2.49
Si -6.37 -9.57 -2.45
Si  1.90  7.18  9.11
Si -5.92 -8.35 -5.79
Si 11.16  3.60 -0.82
Si  7.03 -2.39 -9.12
Si -8.38  3.61  7.43
Si -11.50 -0.03  2.48
Si  0.78 -4.76 -10.74
Si  0.93  4.79 -10.73
Si -0.85  4.77 10.74
Si  7.13  2.38  9.08
Si -7.12 -2.38 -9.10
Si 11.53  0.03 -2.50
Si  8.40 -3.61 -7.45
Si -7.10  2.40  9.12
Si  9.03  7.18  2.51
Si -10.21 -1.16 -5.81
