500
set: 531.00  0.00  0.00
Si  0.00  0.00  0.00
Si  0.03 -0.16 -2.25
Si  1.88  1.08  0.77
Si -0.33 -2.21  0.77
Si -1.96  1.08  0.77
Si  0.35  2.04 -3.02
Si -0.35 -2.04  3.02
Si -1.63  3.29  0.00
Si  1.63 -3.29  0.00
Si  1.85  1.25  3.02
Si -1.85 -1.25 -3.02
Si -1.99  1.25  3.02
Si  1.99 -1.25 -3.02
Si -3.83  0.00  0.00
Si  3.83  0.00  0.00
Si  2.20  3.29  0.00
Si -2.20 -3.29  0.00
Si -1.60  3.13 -2.25
Si  1.52 -0.96  3.78
Si  3.51 -2.21  0.77
Si -3.81 -0.16 -2.25
Si  1.66 -3.45 -2.25
Si -0.11  2.33  3.78
Si  0.24  4.37  0.77
Si  2.23  3.13 -2.25
Si  3.86 -0.16 -2.25
Si -2.31 -0.96  3.78
Si -2.17 -3.45 -2.25
Si -4.16 -2.21  0.77
Si -3.48  2.04 -3.02
Si  3.48 -2.04  3.02
Si -0.21 -4.54 -3.02
Si  0.21  4.54  3.02
Si  4.19  2.04 -3.02
Si -4.19 -2.04  3.02
Si  0.38  1.88 -5.27
Si  1.31 -5.50  0.77
Si -3.59  4.37  0.77
Si -0.68 -4.25  3.78
Si -1.82 -1.41 -5.27
Si  3.72  2.33  3.78
Si  2.02 -1.41 -5.27
Si  5.71  1.08  0.77
Si -3.94  2.33  3.78
Si -5.79  1.08  0.77
Si  4.08  4.37  0.77
Si -2.53 -5.50  0.77
Si  1.28 -5.33  3.02
Si -1.28  5.33 -3.02
Si -1.49  0.80 -6.04
Si  1.49 -0.80  6.04
Si  5.47 -3.29  0.00
Si -5.47  3.29  0.00
Si  3.15 -4.25  3.78
Si  2.34  0.80 -6.04
Si -2.34 -0.80  6.04
Si -0.14  2.49  6.04
Si  0.14 -2.49 -6.04
Si  3.62 -4.54 -3.02
Si -3.62  4.54  3.02
Si -5.68 -1.25 -3.02
Si  5.68  1.25  3.02
Si -3.45  1.88 -5.27
Si -0.57 -6.58  0.00
Si  0.57  6.58  0.00
Si  5.36 -0.96  3.78
Si -2.56 -5.33  3.02
Si  2.56  5.33 -3.02
Si -5.44  3.13 -2.25
Si  5.82 -1.25 -3.02
Si -5.82  1.25  3.02
Si  4.05  4.54  3.02
Si -4.05 -4.54 -3.02
Si -0.46  0.28  6.80
Si  0.60  6.42 -2.25
Si  5.50 -3.45 -2.25
Si  6.04  3.29  0.00
Si -6.04 -3.29  0.00
Si -1.74  5.62  3.78
Si  4.22  1.88 -5.27
Si -0.18 -4.70 -5.27
Si  2.09  5.62  3.78
Si -0.54 -6.74 -2.25
Si  6.07  3.13 -2.25
Si -4.51 -4.25  3.78
Si -6.15 -0.96  3.78
Si -6.01 -3.45 -2.25
Si -0.71 -4.09  6.04
Si  0.71  4.09 -6.04
Si -3.27  6.58  0.00
Si  3.27 -6.58  0.00
Si -1.25  5.17 -5.27
Si -3.69 -2.49 -6.04
Si  3.69  2.49  6.04
Si  1.17 -3.01  6.80
Si -3.23  6.42 -2.25
Si  5.14 -5.50  0.77
Si  3.37  0.28  6.80
Si  3.97 -2.49 -6.04
Si -3.97  2.49  6.04
Si -7.67  0.00  0.00
Si  7.67  0.00  0.00
Si  7.34 -2.21  0.77
Si  2.59  5.17 -5.27
Si -1.39  7.66  0.77
Si  3.29 -6.74 -2.25
Si -5.65 -1.41 -5.27
Si  1.74  3.57  6.80
Si -2.67 -3.01  6.80
Si  4.40  6.58  0.00
Si -4.40 -6.58  0.00
Si  3.12 -4.09  6.04
Si -3.12  4.09 -6.04
Si  3.65 -4.70 -5.27
Si -2.10  3.57  6.80
Si -7.64 -0.16 -2.25
Si -5.11  5.33 -3.02
Si  5.11 -5.33  3.02
Si  5.85 -1.41 -5.27
Si  7.70 -0.16 -2.25
Si -4.30  0.28  6.80
Si  2.45  7.66  0.77
Si -5.33  0.80 -6.04
Si  5.33 -0.80  6.04
Si  4.43  6.42 -2.25
Si -4.02 -4.70 -5.27
Si -7.31  2.04 -3.02
Si  7.31 -2.04  3.02
Si -7.99 -2.21  0.77
Si -4.37 -6.74 -2.25
Si -1.46  0.64 -8.29
Si -6.36 -5.50  0.77
Si  0.95 -7.54  3.78
Si  1.42 -7.82 -3.02
Si -1.42  7.82  3.02
Si  1.77 -5.78 -6.04
Si -1.77  5.78  6.04
Si -4.54 -4.09  6.04
Si  4.54  4.09 -6.04
Si  2.06  5.78  6.04
Si -2.06 -5.78 -6.04
Si  2.37  0.64 -8.29
Si -7.42  4.37  0.77
Si  6.18  0.80 -6.04
Si -6.18 -0.80  6.04
Si  0.17 -2.65 -8.29
Si  2.42  7.82  3.02
Si -2.42 -7.82 -3.02
Si  7.56  2.33  3.78
Si -5.58  5.62  3.78
Si  8.02  2.04 -3.02
Si -8.02 -2.04  3.02
Si -6.39 -5.33  3.02
Si  6.39  5.33 -3.02
Si -0.89 -8.79  0.77
Si -2.88 -7.54  3.78
Si -7.78  2.33  3.78
Si  5.00 -3.01  6.80
Si -5.08  5.17 -5.27
Si  5.93  5.62  3.78
Si  6.99 -4.25  3.78
Si  7.91  4.37  0.77
Si -0.49  0.45  9.05
Si  0.49 -0.45 -9.05
Si  0.92  8.62 -3.02
Si -0.92 -8.62  3.02
Si -7.29  1.88 -5.27
Si  0.74  3.93 -8.29
Si  7.45 -4.54 -3.02
Si -7.45  4.54  3.02
Si  2.94 -8.79  0.77
Si -5.22  7.66  0.77
Si -1.03 -6.30  6.80
Si -3.67 -2.65 -8.29
Si  5.57  3.57  6.80
Si -1.14  2.85 -9.05
Si  1.14 -2.85  9.05
Si  4.00 -2.65 -8.29
Si -0.92  7.38 -6.04
Si  0.92 -7.38  6.04
Si -7.88 -4.54 -3.02
Si  7.88  4.54  3.02
Si -2.91  8.62 -3.02
Si  2.91 -8.62  3.02
Si  9.55  1.08  0.77
Si  3.34  0.45  9.05
Si -3.34 -0.45 -9.05
Si  0.10  6.86  6.80
Si  1.45 -7.99 -5.27
Si -3.10  3.93 -8.29
Si  7.10 -6.58  0.00
Si -7.10  6.58  0.00
Si  2.80 -6.30  6.80
Si  0.46  8.91  3.78
Si  4.79 -7.54  3.78
Si -5.93  3.57  6.80
Si -9.63  1.08  0.77
Si  6.42  5.17 -5.27
Si  8.05  1.88 -5.27
Si -7.07  6.42 -2.25
Si -5.30  0.64 -8.29
Si -2.39 -7.99 -5.27
Si -2.70 -2.85  9.05
Si  2.70  2.85 -9.05
Si  9.30 -3.29  0.00
Si -9.30  3.29  0.00
Si -6.50 -3.01  6.80
Si -5.25  7.82  3.02
Si  5.25 -7.82 -3.02
Si  7.20  0.28  6.80
Si  1.06 -9.87  0.00
Si -1.06  9.87  0.00
Si  6.28  7.66  0.77
Si  1.71  3.73  9.05
Si -1.71 -3.73 -9.05
Si -7.53 -2.49 -6.04
Si  7.53  2.49  6.04
Si  2.91  7.38 -6.04
Si -2.91 -7.38  6.04
Si  9.19 -0.96  3.78
Si -4.73 -8.79  0.77
Si -0.82 -1.76  9.82
Si  0.95  8.46 -5.27
Si -1.03  9.71 -2.25
Si  2.13 -3.73 -9.05
Si -2.13  3.73  9.05
Si  1.38  1.53  9.82
Si -9.27  3.13 -2.25
Si  4.33 -0.45 -9.05
Si -4.33  0.45  9.05
Si  9.52  1.25  3.02
Si -9.52 -1.25 -3.02
Si -5.61  5.78  6.04
Si  5.61 -5.78 -6.04
Si  7.13 -6.74 -2.25
Si -6.96  4.09 -6.04
Si  6.96 -4.09  6.04
Si -8.35 -4.25  3.78
Si -7.81  2.49  6.04
Si  7.81 -2.49 -6.04
Si -9.66  1.25  3.02
Si  9.66 -1.25 -3.02
Si  9.33 -3.45 -2.25
Si  5.90  5.78  6.04
Si -5.90 -5.78 -6.04
Si -2.45  1.53  9.82
Si  4.57  3.93 -8.29
Si -3.38  8.91  3.78
Si -2.77 -9.87  0.00
Si  2.77  9.87  0.00
Si  7.48 -4.70 -5.27
Si  4.76  8.62 -3.02
Si -4.76 -8.62  3.02
Si  1.09 -10.03 -2.25
Si  2.80  9.71 -2.25
Si  1.80 -5.94 -8.29
Si -3.73  6.86  6.80
Si  6.21  0.64 -8.29
Si -2.88  8.46 -5.27
Si -2.03 -5.94 -8.29
Si -9.87 -3.29  0.00
Si  9.87  3.29  0.00
Si  3.02 -1.76  9.82
Si  3.94  6.86  6.80
Si  6.25  7.82  3.02
Si -6.25 -7.82 -3.02
Si -4.87 -6.30  6.80
Si  8.24  6.58  0.00
Si -8.24 -6.58  0.00
Si  8.98 -5.50  0.77
Si -7.85 -4.70 -5.27
Si  4.29  8.91  3.78
Si -8.13  0.28  6.80
Si  9.90  3.13 -2.25
Si -2.74 -10.03 -2.25
Si -4.76  7.38 -6.04
Si  4.76 -7.38  6.04
Si -9.84 -3.45 -2.25
Si  8.27  6.42 -2.25
Si  4.97 -2.85  9.05
Si -4.97  2.85 -9.05
Si -9.98 -0.96  3.78
Si -6.72 -7.54  3.78
Si  8.95 -5.33  3.02
Si -8.95  5.33 -3.02
Si -8.21 -6.74 -2.25
Si -0.43 -9.07 -6.04
Si  0.43  9.07  6.04
Si  5.28 -7.99 -5.27
Si -0.25  4.82  9.82
Si -9.49 -1.41 -5.27
Si  1.06  6.13 -9.05
Si -1.06 -6.13  9.05
Si -9.16  0.80 -6.04
Si  9.16 -0.80  6.04
Si -4.65 -1.76  9.82
Si  0.81 10.95  0.77
Si  4.90 -9.87  0.00
Si -4.90  9.87  0.00
Si -0.89  7.22 -8.29
Si  4.79  8.46 -5.27
Si  0.81 -5.05  9.82
Si -4.87  9.71 -2.25
Si  8.38  4.09 -6.04
Si -8.38 -4.09  6.04
Si  9.69 -1.41 -5.27
Si  6.78 -8.79  0.77
Si  5.22  1.53  9.82
Si -5.54 -3.73 -9.05
Si  5.54  3.73  9.05
Si  2.77 -6.13  9.05
Si -2.77  6.13 -9.05
Si  0.52 -0.61 -11.30
Si  6.75 -8.62  3.02
Si -6.75  8.62 -3.02
Si  2.94  7.22 -8.29
Si -3.02 10.95  0.77
Si  6.63 -6.30  6.80
Si  4.93 -10.03 -2.25
Si -6.22 -7.99 -5.27
Si -3.40  9.07  6.04
Si  3.40 -9.07 -6.04
Si 11.18 -2.21  0.77
Si -3.02 -5.05  9.82
Si -0.07 -7.02 -9.05
Si  0.07  7.02  9.05
Si  5.96 -3.73 -9.05
Si -5.96  3.73  9.05
Si -7.50 -2.65 -8.29
Si -6.93  3.93 -8.29
Si -11.50  0.00  0.00
Si 11.50  0.00  0.00
Si  3.58  4.82  9.82
Si -6.53 -2.85  9.05
Si  6.53  2.85 -9.05
Si -1.25 -10.83  3.78
Si  0.78 11.11  3.02
Si -0.78 -11.11 -3.02
Si  8.84 -3.01  6.80
Si -7.17 -0.45 -9.05
Si  7.17  0.45  9.05
Si -8.92  5.17 -5.27
Si -9.41  5.62  3.78
Si -10.20 -5.50  0.77
Si  5.64 -5.94 -8.29
Si -1.11  2.68 -11.30
Si -4.08  4.82  9.82
Si  6.75  7.38 -6.04
Si -6.75 -7.38  6.04
Si -11.47 -0.16 -2.25
Si  4.26  9.07  6.04
Si -4.26 -9.07 -6.04
Si  7.84 -2.65 -8.29
Si 10.01  0.80 -6.04
Si -10.01 -0.80  6.04
Si 11.15 -2.04  3.02
Si -11.15  2.04 -3.02
Si 11.53 -0.16 -2.25
Si -6.29  1.53  9.82
Si  2.59 -10.83  3.78
Si -5.87 -5.94 -8.29
Si  0.60 -9.59  6.80
Si -3.31 -0.61 -11.30
Si  6.61  9.87  0.00
Si -6.61 -9.87  0.00
Si  9.76  5.62  3.78
Si -9.06  7.66  0.77
Si -3.05 11.11  3.02
Si  3.05 -11.11 -3.02
Si -10.22 -5.33  3.02
Si 10.22  5.33 -3.02
Si  4.65 10.95  0.77
Si  2.73  2.68 -11.30
Si -4.73  7.22 -8.29
Si  6.63  9.71 -2.25
Si  4.65 -5.05  9.82
Si -4.90 -6.13  9.05
Si  4.90  6.13 -9.05
Si -6.71  8.46 -5.27
Si -11.83 -2.21  0.77
Si -3.76  7.02  9.05
Si  3.76 -7.02 -9.05
Si  8.62 -7.54  3.78
Si -7.21  8.91  3.78
Si -1.68 -3.90 -11.30
Si  6.85 -1.76  9.82
Si -11.26  4.37  0.77
Si -3.91 -7.02 -9.05
Si  3.91  7.02  9.05
Si  0.74 -12.08  0.77
Si  4.36 -0.61 -11.30
Si  9.41  3.57  6.80
Si  2.16 -3.90 -11.30
Si -3.24 -9.59  6.80
Si -8.16  0.45  9.05
Si  8.16 -0.45 -9.05
Si -6.58 -10.03 -2.25
Si  0.85  1.60 -12.07
Si -0.85 -1.60 12.07
Si 10.82 -4.25  3.78
Si 11.39  2.33  3.78
Si -1.35 -1.69 -12.07
Si  1.35  1.69 12.07
Si -7.56  6.86  6.80
Si -8.56 -8.79  0.77
Si -0.71 11.91 -3.02
Si  0.71 -11.91  3.02
Si -1.53 10.15  6.80
Si -1.28 -10.67  6.04
Si  1.28 10.67 -6.04
Si -9.13  0.64 -8.29
Si -9.09  7.82  3.02
Si  9.09 -7.82 -3.02
Si  7.77  6.86  6.80
Si 11.86  2.04 -3.02
Si -11.86 -2.04  3.02
Si -4.62 -11.11 -3.02
Si  4.62 11.11  3.02
Si -0.40 -9.23 -8.29
Si -9.77  3.57  6.80
Si -11.61  2.33  3.78
Si  2.31 10.15  6.80
Si  2.48 -1.69 -12.07
Si -2.48  1.69 12.07
Si  8.41  3.93 -8.29
Si -11.12  1.88 -5.27
Si -0.76 -11.28 -5.27
Si -3.10 -12.08  0.77
Si -2.56 10.67 -6.04
Si  2.56 -10.67  6.04
Si 11.29 -4.54 -3.02
Si -11.29  4.54  3.02
Si -2.99  1.60 -12.07
Si  2.99 -1.60 12.07
Si  8.59  8.62 -3.02
Si -8.59 -8.62  3.02
Si -5.08 -10.83  3.78
Si 11.75  4.37  0.77
Si  4.43 -9.59  6.80
Si -9.44  5.78  6.04
Si  9.44 -5.78 -6.04
Si -4.94  2.68 -11.30
Si 10.26  5.17 -5.27
Si  8.13  8.91  3.78
Si -3.13 -11.91  3.02
Si  3.13 11.91 -3.02
Si -8.70 -6.30  6.80
Si 10.12  7.66  0.77
Si -10.34 -3.01  6.80
Si -10.93  6.58  0.00
Si 10.93 -6.58  0.00
Si -6.61  6.13 -9.05
Si  6.61 -6.13  9.05
Si  3.08 -11.28 -5.27
Si -1.17 12.20  3.78
Si -9.73 -5.78 -6.04
Si  9.73  5.78  6.04
Si  1.09  5.97 -11.30
Si  8.59 -7.38  6.04
Si -8.59  7.38 -6.04
Si -10.90  6.42 -2.25
Si  3.43 -9.23 -8.29
Si -1.88  8.11  9.82
Si  1.95  8.11  9.82
Si  1.03 -0.52 12.84
Si -0.68 11.75 -5.27
Si  6.78  7.22 -8.29
Si 11.72  4.54  3.02
Si -11.72 -4.54 -3.02
Si  4.57 -12.08  0.77
Si -6.86 10.95  0.77
Si  8.81 -2.85  9.05
Si -8.81  2.85 -9.05
Si -1.39 -8.34  9.82
Si 11.04  0.28  6.80
Si -6.86 -5.05  9.82
Si -10.79  4.09 -6.04
Si 10.79 -4.09  6.04
Si 10.04  0.64 -8.29
Si  4.68  1.60 -12.07
Si -4.68 -1.60 12.07
Si  2.66 12.20  3.78
Si  0.78 -4.89 12.07
Si -0.78  4.89 -12.07
Si  0.28 -4.98 -12.07
Si -0.28  4.98 12.07
Si 10.96 -6.74 -2.25
Si -2.74  5.97 -11.30
Si -7.24  9.07  6.04
Si  7.24 -9.07 -6.04
Si -0.57  9.43 -9.05
Si  0.57 -9.43  9.05
Si -8.49 -1.76  9.82
Si -4.54 11.91 -3.02
Si  4.54 -11.91  3.02
Si 11.36  2.49  6.04
Si -11.36 -2.49 -6.04
Si -4.23 -9.23 -8.29
Si  2.45 -8.34  9.82
Si 10.09  7.82  3.02
