500
set: 1239.00  0.00  0.00
Si  0.91 -1.01 -0.44
Si  0.26  0.71  1.40
Si -1.28 -1.44 -0.87
Si  2.00  0.49 -1.84
Si -2.17  1.02  1.43
Si  0.98  2.65  0.52
Si -2.85  0.85 -0.86
Si  1.65 -3.03  0.78
Si  0.73  2.89 -1.94
Si -1.38  2.41 -2.56
Si  1.70  0.28  3.46
Si -1.48 -1.46 -3.41
Si  1.37 -2.12  3.17
Si -2.01 -3.53 -0.52
Si  3.35  2.27  1.23
Si  4.00  1.36 -0.78
Si -3.23 -0.14  3.19
Si  2.49 -0.43 -3.78
Si -1.23  0.72 -4.34
Si  0.00 -4.69 -0.29
Si -2.54  3.46  1.99
Si -3.35  3.10 -1.31
Si -0.37  4.60  1.53
Si -0.43 -3.11  3.87
Si -3.44 -3.42  1.22
Si -2.75 -2.54  3.37
Si  3.99  1.18  3.20
Si  4.20 -3.21  0.61
Si -5.24 -0.23 -1.00
Si  0.97  0.59 -5.32
Si -5.19 -1.64  0.76
Si  2.12 -2.92 -4.21
Si -0.28 -2.99 -4.79
Si -3.45 -2.57 -3.80
Si  2.79 -4.43 -2.56
Si  4.34  3.61 -1.59
Si -2.82  1.06  5.05
Si  0.97  0.59  5.78
Si  0.64  5.30 -2.50
Si  0.88  3.05 -5.00
Si  5.86 -0.23 -1.00
Si -2.66  3.18  4.29
Si -4.17  4.32  0.61
Si  4.75 -3.52 -1.43
Si -5.41 -0.58  2.81
Si  4.74  3.84  0.68
Si -4.06 -4.54 -0.78
Si  5.91 -1.64  0.76
Si -5.40 -1.57 -2.80
Si  0.64 -5.80 -2.50
Si  5.70 -0.58  2.81
Si  0.00  6.42 -0.29
Si  4.67 -0.41 -4.39
Si  0.31 -5.43  3.53
Si  2.95 -3.40  4.71
Si  5.71 -1.57 -2.80
Si -4.97  3.09 -3.00
Si -3.17 -4.95 -3.10
Si  0.31  5.68  3.53
Si -0.37 -6.50  1.53
Si -0.97 -5.26 -4.11
Si -2.82  1.06 -6.05
Si -0.85  4.38  5.20
Si  0.88  3.05  6.11
Si -1.23  0.72  6.77
Si -0.28 -2.99  6.31
Si  4.87 -1.77  4.72
Si  4.34 -5.26  2.05
Si -5.15  1.44 -4.77
Si  2.87  3.87 -5.34
Si -0.97  5.84 -4.11
Si  4.60  2.60  4.94
Si  2.80  5.51  3.76
Si -7.10  1.36 -0.78
Si  2.80 -5.59  3.76
Si -4.37 -3.13  5.09
Si -6.36 -3.52 -1.43
Si -0.85  4.38 -5.91
Si -6.37  3.84  0.68
Si  6.13  3.09 -3.00
Si  2.87  3.87  5.76
Si  3.91  5.15 -3.84
Si -4.86 -4.77  3.25
Si  4.34  5.85  2.05
Si -3.17  6.16 -3.10
Si -6.91 -3.21  0.61
Si  2.79  6.67 -2.56
Si  2.49 -0.43  7.33
Si -4.06  6.56 -0.78
Si  5.95  1.44 -4.77
Si  2.12 -2.92  6.90
Si -6.43 -0.41 -4.39
Si -6.76  3.61 -1.59
Si  2.95 -3.40 -6.40
Si  1.70  0.28 -7.65
Si -4.74  4.24  4.59
Si -2.01  7.58 -0.52
Si -0.43 -3.11 -7.24
Si -7.11  1.18  3.20
Si -2.66  3.18 -6.81
Si -1.48 -1.46  7.70
Si -4.17 -6.79  0.61
Si -6.23 -1.77  4.72
Si -4.37 -3.13 -6.02
Si  3.91 -5.96 -3.84
Si  4.60  2.60 -6.16
Si -7.76  2.27  1.23
Si  4.67 -0.41  6.71
Si  6.93  4.32  0.61
Si  4.87 -1.77 -6.38
Si  1.65  8.07  0.78
Si -5.15  1.44  6.34
Si -2.54 -7.65  1.99
Si  1.37 -2.12 -7.94
Si  8.26  0.85 -0.86
Si  7.04 -4.54 -0.78
Si -5.00  5.26 -4.33
Si  7.76  3.10 -1.31
Si  0.73 -8.21 -1.94
Si -3.45 -2.57  7.31
Si  7.67 -3.42  1.22
Si  7.88 -0.14  3.19
Si -3.44  7.68  1.22
Si  6.25 -4.77  3.25
Si  0.98 -8.46  0.52
Si -0.85 -6.72  5.20
Si -3.23 -0.14 -7.91
Si -6.50  2.60  4.94
Si -2.75 -2.54 -7.73
Si -4.86  6.33  3.25
Si  4.74 -7.27  0.68
Si -3.35 -8.01 -1.31
Si -0.97 -5.26  6.99
Si -6.76 -5.26  2.05
Si  4.34 -7.50 -1.59
Si  5.95  1.44  6.34
Si -5.00 -5.85 -4.33
Si -0.43  8.00  3.87
Si  6.36  4.24  4.59
Si  7.65 -2.57 -3.80
Si  3.99  1.18 -7.91
Si  4.20  7.89  0.61
Si -1.38  2.41  8.54
Si -0.85 -6.72 -5.91
Si  6.74 -3.13  5.09
Si  4.75  7.58 -1.43
Si -6.23 -1.77 -6.38
Si -4.74  4.24 -6.51
Si  8.94  1.02  1.43
Si  6.11  5.26 -4.33
Si -0.97  5.84  6.99
Si -6.76  5.85  2.05
Si -1.38 -8.70 -2.56
Si -9.10  0.49 -1.84
Si -6.43 -0.41  6.71
Si  0.31 -5.43 -7.58
Si -6.50  2.60 -6.16
Si  8.36 -2.54  3.37
Si -2.66 -7.93  4.29
Si -8.62 -0.43 -3.78
Si -0.28  8.12 -4.79
Si  2.12  8.18 -4.21
Si  8.56  3.46  1.99
Si  2.87 -7.24 -5.34
Si  6.25  6.33  3.25
Si  0.31  5.68 -7.58
Si  2.00  0.49  9.27
Si  2.95  7.70  4.71
Si  6.11 -5.85 -4.33
Si  0.88 -8.06 -5.00
Si -4.74 -6.86  4.59
Si  3.35 -8.84  1.23
Si  6.74 -3.13 -6.02
Si  2.80  5.51 -7.34
Si -2.75  8.56  3.37
Si  1.37  8.99  3.17
Si  0.73  2.89  9.16
Si  2.80 -5.59 -7.34
Si -7.20  5.15 -3.84
Si  7.04  6.56 -0.78
Si -6.37 -7.27  0.68
Si  2.87 -7.24  5.76
Si  6.93 -6.79  0.61
Si  3.91  5.15  7.27
Si  0.26  0.71 -9.70
Si  8.28  1.06  5.05
Si -8.31 -4.43 -2.56
Si  9.09 -3.53 -0.52
Si -1.28  9.66 -0.87
Si  7.94 -4.95 -3.10
Si -4.97 -8.02 -3.00
Si -5.41 -0.58 -8.30
Si -5.00  5.26  6.78
Si -3.17 -4.95  8.01
Si -3.45  8.53 -3.80
Si -9.46 -3.03  0.78
Si -2.17  1.02 -9.68
Si  9.83 -1.44 -0.87
Si  8.45  3.18  4.29
Si -6.36  7.58 -1.43
Si -4.97  3.09  8.11
Si -8.15 -3.40  4.71
Si -9.40  0.28  3.46
Si  2.79 -4.43  8.55
Si -5.40 -1.57  8.31
Si  6.36  4.24 -6.51
Si -2.54  3.46 -9.12
Si  5.70 -0.58 -8.30
Si -7.20 -5.96 -3.84
Si  0.64  5.30  8.60
Si  0.91 10.10 -0.44
Si  0.88 -8.06  6.11
Si  3.91 -5.96  7.27
Si  5.71 -1.57  8.31
Si -6.76 -7.50 -1.59
Si -10.19 -1.01 -0.44
Si -5.00 -5.85  6.78
Si -0.28  8.12  6.31
Si  9.62 -1.46 -3.41
Si  8.28  1.06 -6.05
Si -1.48  9.65 -3.41
Si  9.72  2.41 -2.56
Si -8.98 -2.92 -4.21
Si  0.64 -5.80  8.60
Si -4.86 -4.77 -7.86
Si -1.28 -1.44 10.23
Si -4.37  7.97  5.09
Si -2.17 -10.09  1.43
Si  6.36 -6.86  4.59
Si  2.95  7.70 -6.40
Si -9.74 -2.12  3.17
Si -10.12  2.65  0.52
Si  0.26 -10.39  1.40
Si -6.91  7.89  0.61
Si  7.94  6.16 -3.10
Si  6.11  5.26  6.78
Si  6.13 -8.02 -3.00
Si -8.24  3.87 -5.34
Si  4.00 -9.75 -0.78
Si -4.74 -6.86 -6.51
Si -3.17  6.16  8.01
Si  6.13  3.09  8.11
Si -0.37  4.60 -9.57
Si -8.31  5.51  3.76
Si -2.85  0.85 10.25
Si  3.35  2.27 -9.87
Si -2.85 -10.26 -0.86
Si -8.31 -5.59  3.76
Si -7.11  1.18 -7.91
Si  0.91 -1.01 10.66
Si -8.24  3.87  5.76
Si -2.66 -7.93 -6.81
Si -0.43  8.00 -7.24
Si -3.35  3.10  9.79
Si  9.88  0.72 -4.34
Si -5.19  9.46  0.76
Si  6.11 -5.85  6.78
Si  4.60 -8.51  4.94
Si  1.65 -3.03 -10.32
Si  7.65 -2.57  7.31
Si -4.37  7.97 -6.02
Si -8.15 -3.40 -6.40
Si  2.12  8.18  6.90
Si  7.67  7.68  1.22
Si -10.37  2.89 -1.94
Si  2.00 -10.61 -1.84
Si -10.84  0.71  1.40
Si  0.98  2.65 -10.59
Si -8.31  6.67 -2.56
Si -3.44 -3.42 -9.89
Si  4.34  3.61  9.51
Si  6.25 -4.77 -7.86
Si  4.00  1.36 10.32
Si  3.99 -9.92  3.20
Si  7.88 -0.14 -7.91
Si  5.91  9.46  0.76
Si -4.86  6.33 -7.86
Si  2.79  6.67  8.55
Si  7.76 -8.01 -1.31
Si  8.45  3.18 -6.81
Si -5.40  9.54 -2.80
Si -1.23 -10.38 -4.34
Si -8.62 -0.43  7.33
Si -2.01 -3.53 10.58
Si  4.34 -5.26 -9.05
Si  4.75 -3.52  9.68
Si -5.24 -0.23 10.10
Si  6.36 -6.86 -6.51
Si -7.20  5.15  7.27
Si  5.71  9.54 -2.80
Si -10.13  0.59 -5.32
Si  4.60 -8.51 -6.16
Si 11.37  0.71  1.40
Si  1.70 -10.83  3.46
Si  4.87  9.33  4.72
Si -0.37 -6.50 -9.57
Si  2.49 10.67 -3.78
Si -2.82 -10.04  5.05
Si  6.74  7.97  5.09
Si  4.34  5.85 -9.05
Si  0.91 -1.01 -11.55
Si  8.56 -7.65  1.99
Si  8.36 -2.54 -7.73
Si -10.13  0.59  5.78
Si  5.86 -0.23 10.10
Si -5.19 -1.64 -10.35
Si -8.98 -2.92  6.90
Si  4.20 -3.21 -10.49
Si -3.45  8.53  7.31
Si 10.68 -3.11  3.87
Si 10.74  4.60  1.53
Si  0.00 -4.69 10.81
Si -10.23  3.05 -5.00
Si -6.50 -8.51  4.94
Si -7.76 -8.84  1.23
Si  0.97 -10.52 -5.32
Si -7.20 -5.96  7.27
Si  9.09  7.58 -0.52
Si -2.75  8.56 -7.73
Si -3.23 10.97  3.19
Si  6.25  6.33 -7.86
Si  0.26 11.82  1.40
Si  2.00 11.60 -1.84
Si -5.15 -9.67 -4.77
Si  0.98  2.65 11.62
Si -4.06 -4.54 10.33
Si  9.88  0.72  6.77
Si -10.46  5.30 -2.50
Si  1.70 11.38  3.46
Si  5.91 -1.64 -10.35
Si  0.97 -10.52  5.78
Si  6.74  7.97 -6.02
Si -11.10 -4.69 -0.29
Si 11.11 -4.69 -0.29
Si -2.82 -10.04 -6.05
Si  1.37  8.99 -7.94
Si 12.02 -1.01 -0.44
Si  7.65  8.53 -3.80
Si  4.74  3.84 -10.43
Si -7.10 -9.75 -0.78
Si -4.17  4.32 -10.49
Si -6.36 -3.52  9.68
Si -5.24 10.88 -1.00
Si -9.40  0.28 -7.65
Si -3.23 -11.25  3.19
Si -1.28 -1.44 -11.98
Si 10.13 -5.26 -4.11
Si  0.91 -12.11 -0.44
Si -5.41 10.52  2.81
Si -8.15  7.70  4.71
Si -2.54 -7.65 -9.12
Si -6.23  9.33  4.72
Si -8.24 -7.24 -5.34
Si 10.82 -2.99 -4.79
Si -6.76  3.61  9.51
Si -10.46 -5.80 -2.50
Si -1.38 -8.70  8.54
Si  5.70 10.52  2.81
Si -10.23  3.05  6.11
Si 10.25  4.38  5.20
Si  4.87  9.33 -6.38
Si  5.95 -9.67 -4.77
Si  7.94 -4.95  8.01
Si -2.85 11.95 -0.86
Si -2.01 -3.53 -11.63
Si  0.00 -4.69 -11.40
Si  0.73 -8.21  9.16
Si -2.85  0.85 -11.97
Si 11.84  2.89 -1.94
Si  8.45 -7.93  4.29
Si -6.50 -8.51 -6.16
Si  1.65 -3.03 11.89
Si -8.31  5.51 -7.34
Si 12.09  2.65  0.52
Si -8.24 -7.24  5.76
Si  2.49 -11.54 -3.78
Si -2.17 12.12  1.43
Si  5.86 10.88 -1.00
Si 10.13  5.84 -4.11
Si  9.62 -1.46  7.70
Si -8.31 -5.59 -7.34
Si -1.48  9.65  7.70
Si  8.36  8.56  3.37
Si -4.97 -8.02  8.11
Si -1.23 -10.38  6.77
Si -9.46  8.07  0.78
Si -11.48  4.60  1.53
Si -6.76 -5.26 -9.05
Si  4.67 10.69 -4.39
Si -12.38 -1.44 -0.87
Si -5.24 -11.34 -1.00
Si  0.26  0.71 12.51
Si -11.54 -3.11  3.87
Si  0.00  6.42 10.81
Si -10.80 -5.43  3.53
Si -7.10  1.36 10.32
Si  4.00  1.36 -11.89
Si 10.25  4.38 -5.91
Si -7.11 -9.92  3.20
Si -1.28 -12.55 -0.87
Si 10.74 -6.50  1.53
Si -5.15 -9.67  6.34
Si -1.23 11.83 -4.34
Si -10.80  5.68  3.53
Si -11.39 -2.99 -4.79
Si -8.31 -4.43  8.55
Si -6.76  5.85 -9.05
Si -9.74 -2.12 -7.94
Si -2.17  1.02 12.53
Si -7.76  2.27 -9.87
Si  5.86 -11.34 -1.00
Si -6.37  3.84 -10.43
Si -11.10  6.42 -0.29
Si 11.11  6.42 -0.29
Si  7.94  6.16  8.01
Si  4.20 -3.21 11.72
Si -8.98  8.18 -4.21
Si  4.34 -7.50  9.51
Si  7.76  3.10  9.79
Si 10.82 -2.99  6.31
Si  0.97 11.69 -5.32
Si -4.06  6.56 10.33
Si -6.23  9.33 -6.38
Si -8.15  7.70 -6.40
Si  6.13 -8.02  8.11
Si -6.91 -3.21 -10.49
Si  7.67 -3.42 -9.89
Si -12.49  2.41 -2.56
Si  8.56  3.46 -9.12
Si  3.35  2.27 12.34
Si -3.44  7.68 -9.89
Si -9.10  0.49  9.27
Si  5.95 -9.67  6.34
Si 12.47 -2.12  3.17
Si -5.19 -1.64 11.87
Si  0.00  6.42 -11.40
Si  0.97 11.69  5.78
Si -3.35 -8.01  9.79
Si -12.34  0.72 -4.34
Si -1.48 -12.57 -3.41
Si  2.00  0.49 -12.95
Si  4.00 12.47 -0.78
Si 11.41 -5.43  3.53
Si -12.59 -1.46 -3.41
Si 11.75  5.30 -2.50
Si 12.76 -3.03  0.78
Si  9.72  2.41  8.54
Si -4.17  4.32 11.72
Si -2.01  7.58 10.58
Si -4.17 -6.79 -10.49
Si  2.49 10.67  7.33
Si -5.41 -11.69  2.81
Si  4.75  7.58  9.68
Si  4.67 -11.52 -4.39
Si  8.26  0.85 10.25
Si -5.24 -0.23 -12.11
Si  8.26 -10.26 -0.86
Si -10.12 -8.46  0.52
Si  1.65  8.07 -10.32
Si 12.08  0.59 -5.32
Si  8.94  1.02 -9.68
Si 11.41  5.68  3.53
Si -3.35  3.10 -12.42
Si -6.43 10.69 -4.39
Si -3.44 -3.42 12.33
Si 13.11  0.49 -1.84
Si 10.68 -3.11 -7.24
Si 12.81  0.28  3.46
Si  4.74  3.84 11.79
Si -11.48 -6.50  1.53
Si  9.72 -8.70 -2.56
Si  6.93  4.32 -10.49
Si  3.99 -9.92 -7.91
Si  7.04 -4.54 10.33
Si  5.70 -11.69  2.81
Si  3.99 12.29  3.20
Si 10.25 -6.72  5.20
Si 11.98  3.05 -5.00
Si 11.75 -5.80 -2.50
Si -4.06 -4.54 -11.88
Si  5.91 -1.64 11.87
Si -11.39 -2.99  6.31
Si  1.70 -10.83 -7.65
Si -10.37 -8.21 -1.94
Si  0.73  2.89 -13.05
Si -13.27  1.02  1.43
Si 10.13 -5.26  6.99
Si 12.08  0.59  5.78
Si  8.45 -7.93 -6.81
Si  5.86 -0.23 -12.11
Si -0.37  4.60 12.64
Si  4.67 10.69  6.71
Si -2.82 12.17  5.05
Si  8.94 -10.09  1.43
Si  4.74 -7.27 -10.43
Si  0.98 -8.46 -10.59
Si  7.65  8.53  7.31
Si -13.12 -3.53 -0.52
Si 10.25 -6.72 -5.91
Si -9.74  8.99  3.17
