500
set: 1258.00  0.00  0.00
Si  0.65 -0.85 -0.42
Si  0.37  0.82  1.67
Si -1.50 -1.29 -1.43
Si  1.96  0.48 -1.77
Si -1.85  1.17  1.56
Si -2.96  0.45 -0.74
Si  1.14  2.77  0.84
Si -1.41  1.81 -2.26
Si  1.48 -2.83  0.97
Si  1.02  3.02 -1.98
Si  1.67  0.16  3.52
Si -2.19 -3.37 -0.21
Si  3.40  2.38  1.05
Si  4.07  1.19 -0.86
Si  1.53 -2.32  3.42
Si  2.33 -0.63 -3.77
Si -1.00  0.61 -4.37
Si -3.43  0.26  3.01
Si -1.84 -1.63 -3.92
Si -2.36  3.44  2.14
Si -3.07  3.23 -1.75
Si -3.32 -3.04  1.75
Si -0.23 -4.90  0.06
Si -0.39  4.66  1.66
Si -0.57 -3.01  3.92
Si -2.62 -1.97  3.77
Si  3.74  1.34  3.06
Si  3.73 -3.38  0.38
Si -5.25 -0.37 -0.65
Si  1.73 -2.78 -4.29
Si  1.18  0.67 -5.31
Si  2.60 -4.27 -2.69
Si -0.44 -3.17 -4.79
Si  1.00  2.96 -4.85
Si -3.68  4.48  0.23
Si  4.37  3.40 -1.87
Si  5.85 -0.37 -0.65
Si  5.48 -1.93  1.18
Si  0.66  5.53 -2.06
Si  1.18  0.67  5.80
Si  0.66 -5.58 -2.06
Si  5.30 -0.28  2.86
Si -5.27 -1.79 -2.39
Si -5.63 -1.93  1.18
Si -3.84 -4.60 -0.99
Si -3.03  1.21  5.26
Si -0.23  6.20  0.06
Si -3.84 -2.99 -3.86
Si  4.84 -0.59 -4.06
Si  4.71 -3.89 -1.74
Si  0.65 -5.33  3.50
Si -2.81  3.45  4.64
Si -0.98 -5.08 -3.84
Si -5.80 -0.28  2.86
Si  5.07  4.08  0.38
Si  5.83 -1.79 -2.39
Si -4.82  3.20 -3.14
Si  2.98 -3.38  4.83
Si -0.39 -6.44  1.66
Si -3.03  1.21 -5.85
Si  0.65  5.78  3.50
Si -1.00  0.61  6.74
Si -3.32 -5.14 -3.15
Si  1.00  2.96  6.26
Si  4.82 -1.92  4.80
Si -4.28 -5.15  2.27
Si  2.91  3.73  5.27
Si -0.72  4.45  5.45
Si -0.44 -3.17  6.32
Si -4.17 -3.06  4.84
Si  3.62  4.74 -3.87
Si  4.48 -5.30  1.81
Si -7.04  1.19 -0.86
Si -0.98  6.02 -3.84
Si -5.21  1.38 -4.80
Si -0.72  4.45 -5.65
Si  4.93  2.80  4.50
Si -6.03  4.08  0.38
Si  2.95 -5.53  3.79
Si  2.95  5.58  3.79
Si -6.26 -0.59 -4.06
Si  2.91  3.73 -5.84
Si -3.32  5.96 -3.15
Si  4.48  5.80  1.81
Si  1.73 -2.78  6.82
Si -3.68 -6.62  0.23
Si -1.84 -1.63  7.19
Si -3.84  6.50 -0.99
Si -4.28  5.95  2.27
Si -6.40 -3.89 -1.74
Si  2.98 -3.38 -6.27
Si  6.29  3.20 -3.14
Si  2.33 -0.63  7.34
Si  5.90  1.38 -4.80
Si  1.67  0.16 -7.59
Si -6.74  3.40 -1.87
Si  2.60  6.84 -2.69
Si -0.57 -3.01 -7.18
Si -2.81  3.45 -6.46
Si -2.62 -1.97 -7.33
Si -4.75  4.77  4.39
Si -2.19  7.74 -0.21
Si -7.36  1.34  3.06
Si -4.17 -3.06 -6.26
Si -7.37 -3.38  0.38
Si -7.70  2.38  1.05
Si -6.18  2.80  4.50
Si -6.29 -1.92  4.80
Si  4.82 -1.92 -6.30
Si  1.53 -2.32 -7.68
Si  8.14  0.45 -0.74
Si  7.67  0.26  3.01
Si  3.62 -6.37 -3.87
Si -5.21  1.38  6.30
Si -2.36 -7.67  2.14
Si  1.02 -8.08 -1.98
Si -5.08  4.97 -4.45
Si  1.14 -8.34  0.84
Si  1.48  8.28  0.97
Si  7.79 -3.04  1.75
Si  4.84 -0.59  7.04
Si  3.73  7.72  0.38
Si -3.07 -7.87 -1.75
Si -0.72 -6.65  5.45
Si  7.26 -4.60 -0.99
Si  5.07 -7.02  0.38
Si  7.42  4.48  0.23
Si -6.62 -5.30  1.81
Si  4.93  2.80 -6.61
Si -3.84 -2.99  7.25
Si  5.90  1.38  6.30
Si  7.27 -2.99 -3.86
Si -0.72 -6.65 -5.65
Si  4.71  7.22 -1.74
Si -3.43  0.26 -8.10
Si  8.04  3.23 -1.75
Si  6.83 -5.15  2.27
Si -3.32  8.06  1.75
Si -0.98 -5.08  7.26
Si  3.74  1.34 -8.04
Si  6.02  4.97 -4.45
Si -6.62  5.80  1.81
Si  6.94 -3.06  4.84
Si -0.57  8.10  3.92
Si -4.75 -6.34  4.39
Si  4.37 -7.71 -1.87
Si  6.36  4.77  4.39
Si -6.29 -1.92 -6.30
Si -5.08 -6.13 -4.45
Si -1.41  1.81  8.85
Si -6.03 -7.02  0.38
Si -0.44  7.93 -4.79
Si  0.65 -5.33 -7.61
Si -9.15  0.48 -1.77
Si  6.83  5.95  2.27
Si  3.62  4.74  7.23
Si -2.81 -7.66  4.64
Si  3.40 -8.73  1.05
Si -6.26 -0.59  7.04
Si  9.26  1.17  1.56
Si -6.18  2.80 -6.61
Si  0.37  0.82 -9.44
Si -0.98  6.02  7.26
Si  8.48 -1.97  3.77
Si -4.75  4.77 -6.72
Si  1.73  8.32 -4.29
Si  2.91 -7.38  5.27
Si  1.00 -8.14 -4.85
Si  8.92 -3.37 -0.21
Si  1.96  0.48  9.33
Si  1.53  8.79  3.42
Si -8.78 -0.63 -3.77
Si  0.65  5.78 -7.61
Si  2.98  7.72  4.83
Si  2.95 -5.53 -7.32
Si  8.75  3.44  2.14
Si  2.95  5.58 -7.32
Si -1.41 -9.30 -2.26
Si  1.02  3.02  9.13
Si -7.49  4.74 -3.87
Si  6.02 -6.13 -4.45
Si  8.07  1.21  5.26
Si -5.08  4.97  6.66
Si -3.84  8.11 -3.86
Si -4.82 -7.90 -3.14
Si -1.85  1.17 -9.54
Si  2.60 -4.27  8.42
Si  9.60 -1.29 -1.43
Si -6.40  7.22 -1.74
Si  7.26  6.50 -0.99
Si  5.30 -0.28 -8.25
Si  6.94 -3.06 -6.26
Si -4.82  3.20  7.97
Si  7.78 -5.14 -3.15
Si  2.91 -7.38 -5.84
Si -1.50 -1.29  9.67
Si -8.50 -4.27 -2.69
Si -2.36  3.44 -8.97
Si  7.42 -6.62  0.23
Si  6.36 -6.34  4.39
Si -1.50  9.82 -1.43
Si -3.32 -5.14  7.95
Si  8.07  1.21 -5.85
Si -8.13 -3.38  4.83
Si -9.44  0.16  3.52
Si -9.63 -2.83  0.97
Si -5.80 -0.28 -8.25
Si  9.69  1.81 -2.26
Si  8.30  3.45  4.64
Si -0.44  7.93  6.32
Si  9.27 -1.63 -3.92
Si -2.62  9.14  3.77
Si -1.85 -9.94  1.56
Si  6.02  4.97  6.66
Si -4.17  8.05  4.84
Si  0.65 10.25 -0.42
Si  3.62 -6.37  7.23
Si  7.78  5.96 -3.15
Si  1.00 -8.14  6.26
Si -5.27 -1.79  8.71
Si -3.07  3.23  9.35
Si -9.97  2.77  0.84
Si -3.32 -3.04 -9.35
Si -5.08 -6.13  6.66
Si -4.75 -6.34 -6.72
Si  2.98  7.72 -6.27
Si -2.81 -7.66 -6.46
Si  6.36  4.77 -6.72
Si -6.74 -7.71 -1.87
Si -1.84  9.47 -3.92
Si  0.37 -10.29  1.67
Si -8.20  3.73  5.27
Si -9.58 -2.32  3.42
Si -3.32  5.96  7.95
Si -10.46 -0.85 -0.42
Si -0.39  4.66 -9.45
Si -8.15 -5.53  3.79
Si -7.49 -6.37 -3.87
Si  6.29 -7.90 -3.14
Si -8.15  5.58  3.79
Si  0.66  5.53  9.05
Si  1.48 -2.83 -10.14
Si  5.83 -1.79  8.71
Si  6.29  3.20  7.97
Si  0.66 -5.58  9.05
Si  4.93 -8.30  4.50
Si -7.37  7.72  0.38
Si -9.38 -2.78 -4.29
Si  7.27 -2.99  7.25
Si  1.14  2.77 -10.26
Si -10.08  3.02 -1.98
Si -8.20  3.73 -5.84
Si  0.65 -0.85 10.68
Si  5.48  9.18  1.18
Si  4.07 -9.92 -0.86
Si  4.37  3.40  9.23
Si -2.96  0.45 10.36
Si -8.13 -3.38 -6.27
Si -5.63  9.18  1.18
Si -0.57  8.10 -7.18
Si  6.02 -6.13  6.66
Si  3.40  2.38 -10.06
Si -10.73  0.82  1.67
Si  1.73  8.32  6.82
Si  3.74 -9.76  3.06
Si  1.96 -10.62 -1.77
Si -5.27  9.31 -2.39
Si -7.36  1.34 -8.04
Si -4.17  8.05 -6.26
Si 10.11  0.61 -4.37
Si  8.30  3.45 -6.46
Si -4.28 -5.15 -8.83
Si -2.96 -10.66 -0.74
Si  4.07  1.19 10.25
Si  2.60  6.84  8.42
Si  7.67  0.26 -8.10
Si  4.71 -3.89  9.37
Si  6.36 -6.34 -6.72
Si -8.50  6.84 -2.69
Si  5.83  9.31 -2.39
Si -9.93  0.67 -5.31
Si -6.18 -8.30  4.50
Si  7.79  8.06  1.75
Si  2.33 10.48 -3.77
Si  8.48 -1.97 -7.33
Si  8.04 -7.87 -1.75
Si -1.00 -10.50 -4.37
Si  4.82  9.18  4.80
Si -7.49  4.74  7.23
Si -0.39 -6.44 -9.45
Si -8.78 -0.63  7.34
Si -4.28  5.95 -8.83
Si  5.48 -1.93 -9.93
Si -9.93  0.67  5.80
Si -3.84  8.11  7.25
Si  7.27  8.11 -3.86
Si -5.63 -1.93 -9.93
Si  0.65 -0.85 -11.53
Si -10.10  2.96 -4.85
Si  4.48 -5.30 -9.29
Si -2.19 -3.37 10.89
Si -3.03 -9.90  5.26
Si  1.67 -10.95  3.52
Si 11.48  0.82  1.67
Si 10.54 -3.01  3.92
Si  6.94  8.05  4.84
Si -7.70 -8.73  1.05
Si  4.93 -8.30 -6.61
Si -5.25 -0.37 10.46
Si -3.84 -4.60 10.12
Si  1.18 -10.44 -5.31
Si -3.43 -10.85  3.01
Si  1.53  8.79 -7.68
Si 11.76 -0.85 -0.42
Si 10.72  4.66  1.66
Si  8.92  7.74 -0.21
Si  8.75 -7.67  2.14
Si  4.48  5.80 -9.29
Si  9.27 -1.63  7.19
Si  3.73 -3.38 -10.73
Si  1.96 11.59 -1.77
Si -3.03 -9.90 -5.85
Si  1.67 11.27  3.52
Si -9.38 -2.78  6.82
Si -6.74  3.40  9.23
Si 10.88 -4.90  0.06
Si -2.96 11.55 -0.74
Si 10.12 -5.08 -3.84
Si -5.25 10.73 -0.65
Si  0.65 -11.96 -0.42
Si  5.85 -0.37 10.46
Si -6.40 -3.89  9.37
Si  1.18 -10.44  5.80
Si -10.45  5.53 -2.06
Si -2.62  9.14 -7.33
Si -2.19 -3.37 -11.32
Si -10.45 -5.58 -2.06
Si -1.84  9.47  7.19
Si -2.36 -7.67 -8.97
Si -5.21 -9.73 -4.80
Si  0.37 11.92  1.67
Si -0.23 -4.90 -11.05
Si -9.44  0.16 -7.59
Si 10.67 -3.17 -4.79
Si -6.29  9.18  4.80
Si  4.82  9.18 -6.30
Si 10.11  0.61  6.74
Si -7.04 -9.92 -0.86
Si -0.23 -4.90 11.16
Si -7.49 -6.37  7.23
Si -8.13  7.72  4.83
Si -4.82 -7.90  7.97
Si  8.30 -7.66  4.64
Si -2.96  0.45 -11.85
Si -8.20 -7.38  5.27
Si  1.02 -8.08  9.13
Si  5.85 10.73 -0.65
Si -3.43 11.36  3.01
Si -10.10  2.96  6.26
Si -10.46 -5.33  3.50
Si  7.78 -5.14  7.95
Si  4.84 10.52 -4.06
Si -8.15 -5.53 -7.32
Si -6.18 -8.30 -6.61
Si  6.83 -5.15 -8.83
Si -8.15  5.58 -7.32
Si  1.14  2.77 11.95
Si -3.68  4.48 -10.88
Si  6.94  8.05 -6.26
Si -11.34 -4.90  0.06
Si  5.90 -9.73 -4.80
Si  5.30 10.82  2.86
Si 10.12  6.02 -3.84
Si -10.46  5.78  3.50
Si -8.20 -7.38 -5.84
Si  1.48 -2.83 12.07
Si -7.04  1.19 10.25
Si -9.58 -2.32 -7.68
Si -1.85 12.27  1.56
Si -1.00 -10.50  6.74
Si -11.49  4.66  1.66
Si 10.88  6.20  0.06
Si  3.73 -3.38 11.48
Si  2.33 -11.73 -3.77
Si -1.00 11.72 -4.37
Si  7.79 -3.04 -9.35
Si  5.07  4.08 -10.72
Si 10.39  4.45  5.45
Si -1.50 -12.39 -1.43
Si 12.25  2.77  0.84
Si -6.62 -5.30 -9.29
Si -7.36 -9.76  3.06
Si -3.07 -7.87  9.35
Si -5.80 10.82  2.86
Si 10.72 -6.44  1.66
Si  7.78  5.96  7.95
Si -3.84  6.50 10.12
Si 10.39  4.45 -5.65
Si -5.25 -11.48 -0.65
Si  6.83  5.95 -8.83
Si 12.13  3.02 -1.98
Si -0.23  6.20 -11.05
Si -11.67 -3.01  3.92
Si -1.50 -1.29 -12.54
Si  4.07  1.19 -11.96
Si -8.50 -4.27  8.42
Si -5.21 -9.73  6.30
Si  4.71  7.22  9.37
Si -3.68  4.48 11.33
Si -9.63  8.28  0.97
Si  8.04  3.23  9.35
Si -12.61 -1.29 -1.43
Si -0.23  6.20 11.16
Si -3.32  8.06 -9.35
Si -6.29  9.18 -6.30
Si  4.37 -7.71  9.23
Si 10.67 -3.17  6.32
Si -6.62  5.80 -9.29
Si  0.37  0.82 12.78
Si  3.40  2.38 12.15
Si -8.13  7.72 -6.27
Si -12.52  1.81 -2.26
Si -1.85  1.17 12.67
Si  6.29 -7.90  7.97
Si -12.10  0.61 -4.37
Si -5.25 -0.37 -11.76
Si  5.30 -11.39  2.86
Si -7.70  2.38 -10.06
Si -11.54 -3.17 -4.79
Si -6.26 10.52 -4.06
Si  5.85 -11.48 -0.65
Si -1.41 -9.30  8.85
Si -11.34  6.20  0.06
Si 12.58 -2.83  0.97
Si -6.03  4.08 -10.72
Si  1.18 11.78 -5.31
Si  4.07 12.29 -0.86
Si  8.75  3.44 -8.97
Si  2.33 10.48  7.34
Si  5.90 -9.73  6.30
Si  8.30 -7.66 -6.46
Si -9.97 -8.34  0.84
Si  8.48  9.14  3.77
Si  1.96  0.48 -12.88
Si -10.08 -8.08 -1.98
Si -9.15  0.48  9.33
Si  7.27  8.11  7.25
Si -12.95  1.17  1.56
Si -5.80 -11.39  2.86
Si 10.54 -3.01 -7.18
Si  5.85 -0.37 -11.76
Si 11.76  5.53 -2.06
Si  1.48  8.28 -10.14
Si  1.18 11.78  5.80
Si 11.76 -5.58 -2.06
Si  8.14  0.45 10.36
Si -1.41 12.92 -2.26
Si  3.74 -9.76 -8.04
Si 13.06  0.48 -1.77
Si  5.07  4.08 11.49
Si  9.69  1.81  8.85
Si 12.78  0.16  3.52
Si -9.38  8.32 -4.29
Si -3.68 -6.62 -10.88
Si  1.14 -8.34 -10.26
Si  7.26 -4.60 10.12
Si -11.49 -6.44  1.66
Si 12.63 -2.32  3.42
Si  4.84 -11.70 -4.06
Si  9.26  1.17 -9.54
Si  3.74 12.45  3.06
Si 11.75 -5.33  3.50
Si 12.11  2.96 -4.85
Si 12.28  0.67 -5.31
Si  1.67 -10.95 -7.59
Si  8.14 -10.66 -0.74
Si -9.58  8.79  3.42
Si -6.40  7.22  9.37
Si -7.37 -3.38 -10.73
Si -1.84 -12.74 -3.92
Si 10.12 -5.08  7.26
Si  1.02  3.02 -13.08
Si 10.39 -6.65  5.45
Si -3.84 -4.60 -12.09
Si -11.54 -3.17  6.32
Si -2.19  7.74 10.89
Si  4.84 10.52  7.04
Si -1.00 11.72  6.74
Si 11.75  5.78  3.50
Si -1.41  1.81 -13.36
Si 10.39 -6.65 -5.65
Si  5.48 -1.93 12.28
Si -0.39  4.66 12.77
Si 12.28  0.67  5.80
Si -6.03  4.08 11.49
Si -3.07  3.23 -12.86
Si  9.69 -9.30 -2.26
Si -12.94 -1.63 -3.92
Si  7.67 -10.85  3.01
Si -3.32 -3.04 12.86
