500
set: 650.00  0.00  0.00
Si -1.16 -0.81 -0.82
Si  1.16  0.81  0.82
Si  0.65 -1.44  0.82
Si -0.65  1.44 -0.82
Si  0.70  0.09 -2.62
Si -0.70 -0.09  2.62
Si  2.73 -0.81 -0.82
Si -2.73  0.81  0.82
Si -0.19  2.16  2.62
Si  0.19 -2.16 -2.62
Si  1.67  3.06  0.82
Si -1.67 -3.06 -0.82
Si  3.24  1.44 -0.82
Si -3.24 -1.44  0.82
Si  1.21  2.34 -2.62
Si -1.21 -2.34  2.62
Si -0.13  3.69 -0.82
Si  0.13 -3.69  0.82
Si -2.22  3.06  0.82
Si  2.22 -3.06 -0.82
Si -3.19  0.09 -2.62
Si  3.19 -0.09  2.62
Si  2.68 -2.34  2.62
Si -2.68  2.34 -2.62
Si -1.10  0.72 -4.27
Si  1.10 -0.72  4.27
Si  1.61  1.53  4.27
Si -1.61 -1.53 -4.27
Si -4.53  1.44 -0.82
Si  4.53 -1.44  0.82
Si -3.70 -2.16 -2.62
Si  3.70  2.16  2.62
Si -2.27  1.53  4.27
Si  2.27 -1.53 -4.27
Si -0.33 -4.41 -2.62
Si  0.33  4.41  2.62
Si  2.78  0.72 -4.27
Si -2.78 -0.72  4.27
Si -5.04 -0.81 -0.82
Si  5.04  0.81  0.82
Si -0.59  2.97 -4.27
Si  0.59 -2.97  4.27
Si  4.58  0.09 -2.62
Si -4.58 -0.09  2.62
Si -4.07  2.16  2.62
Si  4.07 -2.16 -2.62
Si -3.75 -3.69  0.82
Si  3.75  3.69 -0.82
Si -4.02  3.69 -0.82
Si  4.02 -3.69  0.82
Si  1.72  4.59 -2.62
Si -1.72 -4.59  2.62
Si -1.71  5.31  0.82
Si  1.71 -5.31 -0.82
Si -2.17  4.59 -2.62
Si  2.17 -4.59  2.62
Si -2.18 -5.31 -0.82
Si  2.18  5.31  0.82
Si -1.76  3.78  4.27
Si  1.76 -3.78 -4.27
Si  0.38  5.94 -0.82
Si -0.38 -5.94  0.82
Si -2.12 -3.78 -4.27
Si  2.12  3.78  4.27
Si -0.24  0.63  6.07
Si  0.24 -0.63 -6.07
Si  3.29  2.97 -4.27
Si -3.29 -2.97  4.27
Si  5.09  2.34 -2.62
Si -5.09 -2.34  2.62
Si  3.56 -4.41 -2.62
Si -3.56  4.41  2.62
Si -0.75 -1.62  6.07
Si  0.75  1.62 -6.07
Si  5.55  3.06  0.82
Si -5.55 -3.06 -0.82
Si -4.99  0.72 -4.27
Si  4.99 -0.72  4.27
Si  4.21  4.41  2.62
Si -4.21 -4.41 -2.62
Si -6.61  0.81  0.82
Si  6.61 -0.81 -0.82
Si -0.27 -2.88 -6.07
Si  0.27  2.88  6.07
Si -0.08  5.22 -4.27
Si  0.08 -5.22  4.27
Si -4.48  2.97 -4.27
Si  4.48 -2.97  4.27
Si  6.10 -3.06 -0.82
Si -6.10  3.06  0.82
Si -3.51  5.94 -0.82
Si  3.51 -5.94  0.82
Si  3.13 -1.62  6.07
Si -3.13  1.62 -6.07
Si -3.65 -0.63 -6.07
Si  3.65  0.63  6.07
Si  5.50  1.53  4.27
Si -5.50 -1.53 -4.27
Si -0.83 -6.66 -2.62
Si  0.83  6.66  2.62
Si -1.26 -3.87  6.07
Si  1.26  3.87 -6.07
Si  7.12  1.44 -0.82
Si -7.12 -1.44  0.82
Si -4.26 -5.94  0.82
Si  4.26  5.94 -0.82
Si  4.12 -0.63 -6.07
Si -4.12  0.63  6.07
Si  6.56 -2.34  2.62
Si -6.56  2.34 -2.62
Si -1.25  6.03  4.27
Si  1.25 -6.03 -4.27
Si  1.66 -6.84  2.62
Si -1.66  6.84 -2.62
Si -7.07  0.09 -2.62
Si  7.07 -0.09  2.62
Si  3.61 -2.88 -6.07
Si -3.61  2.88  6.07
Si  6.16 -1.53 -4.27
Si -6.16  1.53  4.27
Si  2.23  6.84 -2.62
Si -2.23 -6.84  2.62
Si  2.62 -3.87  6.07
Si -2.62  3.87 -6.07
Si -1.20  7.56  0.82
Si  1.20 -7.56 -0.82
Si  5.60  4.59 -2.62
Si -5.60 -4.59  2.62
Si -3.80 -5.22  4.27
Si  3.80  5.22 -4.27
Si  5.59 -5.31 -0.82
Si -5.59  5.31  0.82
Si  3.05 -6.66 -2.62
Si -3.05  6.66  2.62
Si -4.63 -1.62  6.07
Si  4.63  1.62 -6.07
Si  3.97 -5.22  4.27
Si -3.97  5.22 -4.27
Si  2.64  6.03  4.27
Si -2.64 -6.03 -4.27
Si -1.56 -0.00 -7.72
Si  1.56  0.00  7.72
Si  4.16  2.88  6.07
Si -4.16 -2.88 -6.07
Si  6.67  0.72 -4.27
Si -6.67 -0.72  4.27
Si  0.78  5.13  6.07
Si -0.78 -5.13 -6.07
Si  5.64 -3.78 -4.27
Si -5.64  3.78  4.27
Si  6.05 -4.59  2.62
Si -6.05  4.59 -2.62
Si  2.32 -0.00 -7.72
Si -2.32  0.00  7.72
Si  2.69  7.56  0.82
Si -2.69 -7.56 -0.82
Si  6.06  5.31  0.82
Si -6.06 -5.31 -0.82
Si  1.05 -2.25  7.72
Si -1.05  2.25 -7.72
Si  1.81 -2.25 -7.72
Si -1.81  2.25  7.72
Si  0.89  8.19 -0.82
Si -0.89 -8.19  0.82
Si -6.01 -3.78 -4.27
Si  6.01  3.78  4.27
Si  2.07  2.25  7.72
Si -2.07 -2.25 -7.72
Si  7.58  2.16  2.62
Si -7.58 -2.16 -2.62
Si  7.63  3.69 -0.82
Si -7.63 -3.69  0.82
Si  2.83  2.25 -7.72
Si -2.83 -2.25  7.72
Si -3.10  5.13  6.07
Si  3.10 -5.13 -6.07
Si  4.72  6.66  2.62
Si -4.72 -6.66 -2.62
Si  8.41 -1.44  0.82
Si -8.41  1.44 -0.82
Si  0.43  7.47 -4.27
Si -0.43 -7.47  4.27
Si -7.96  2.16  2.62
Si  7.96 -2.16 -2.62
Si  3.00 -8.19  0.82
Si -3.00  8.19 -0.82
Si  7.90 -3.69  0.82
Si -7.90  3.69 -0.82
Si -1.77 -6.12  6.07
Si  1.77  6.12 -6.07
Si -5.14 -3.87  6.07
Si  5.14  3.87 -6.07
Si -7.18 -2.97  4.27
Si  7.18  2.97 -4.27
Si -8.47 -0.09  2.62
Si  8.47  0.09 -2.62
Si  2.11 -6.12  6.07
Si -2.11  6.12 -6.07
Si  0.54 -4.50  7.72
Si -0.54  4.50 -7.72
Si  5.13 -6.03 -4.27
Si -5.13  6.03  4.27
Si -8.92 -0.81 -0.82
Si  8.92  0.81  0.82
Si  1.30 -4.50 -7.72
Si -1.30  4.50  7.72
Si  7.44 -4.41 -2.62
Si -7.44  4.41  2.62
Si  5.08 -7.56 -0.82
Si -5.08  7.56  0.82
Si -5.54  6.84 -2.62
Si  5.54 -6.84  2.62
Si -4.67 -5.13 -6.07
Si  4.67  5.13  6.07
Si -3.46  7.47 -4.27
Si  3.46 -7.47  4.27
Si -2.58 -4.50 -7.72
Si  2.58  4.50  7.72
Si -0.74  8.28  4.27
Si  0.74 -8.28 -4.27
Si -1.35 -8.91 -2.62
Si  1.35  8.91  2.62
Si -7.02  1.62 -6.07
Si  7.02 -1.62  6.07
Si  4.93 -2.25  7.72
Si -4.93  2.25 -7.72
Si -5.45 -0.00 -7.72
Si  5.45  0.00  7.72
Si  4.77  8.19 -0.82
Si -4.77 -8.19  0.82
Si -7.39  5.94 -0.82
Si  7.39 -5.94  0.82
Si -1.14  9.09 -2.62
Si  1.14 -9.09  2.62
Si  3.34  4.50 -7.72
Si -3.34 -4.50  7.72
Si  6.11  6.84 -2.62
Si -6.11 -6.84  2.62
Si -0.29 -0.90  9.52
Si  0.29  0.90 -9.52
Si  8.09  4.41  2.62
Si -8.09 -4.41 -2.62
Si -0.22 -1.35 -9.52
Si  0.22  1.35  9.52
Si -4.31 -7.47  4.27
Si  4.31  7.47 -4.27
Si -2.54  8.91  2.62
Si  2.54 -8.91 -2.62
Si  8.98  2.34 -2.62
Si -8.98 -2.34  2.62
Si  1.29  7.38  6.07
Si -1.29 -7.38 -6.07
Si  7.53  0.63  6.07
Si -7.53 -0.63 -6.07
Si  6.51 -3.87  6.07
Si -6.51  3.87 -6.07
Si  3.15  8.28  4.27
Si -3.15 -8.28 -4.27
Si -8.36  2.97 -4.27
Si  8.36 -2.97  4.27
Si  2.74  9.09 -2.62
Si -2.74 -9.09  2.62
Si -5.70  2.25  7.72
Si  5.70 -2.25 -7.72
Si -6.52 -6.03 -4.27
Si  6.52  6.03  4.27
Si  0.69 -9.81 -0.82
Si -0.69  9.81  0.82
Si -8.87  0.72 -4.27
Si  8.87 -0.72  4.27
Si  2.59 -7.38 -6.07
Si -2.59  7.38  6.07
Si -6.21  0.00  7.72
Si  6.21 -0.00 -7.72
Si -9.44 -3.06 -0.82
Si  9.44  3.06  0.82
Si  6.93 -6.66 -2.62
Si -6.93  6.66  2.62
Si -4.42  4.50 -7.72
Si  4.42 -4.50  7.72
Si -5.96 -2.25 -7.72
Si  5.96  2.25  7.72
Si  6.57  7.56  0.82
Si -6.57 -7.56 -0.82
Si  0.80  3.15 -9.52
Si -0.80 -3.15  9.52
Si  7.50 -2.88 -6.07
Si -7.50  2.88  6.07
Si -8.01  0.63  6.07
Si  8.01 -0.63 -6.07
Si -8.15 -5.94  0.82
Si  8.15  5.94 -0.82
Si  0.73  3.60  9.52
Si -0.73 -3.60 -9.52
Si  3.59 -0.90  9.52
Si -3.59  0.90 -9.52
Si  7.69  5.22 -4.27
Si -7.69 -5.22  4.27
Si  0.03 -6.75  7.72
Si -0.03  6.75 -7.72
Si  0.79 -6.75 -7.72
Si -0.79  6.75  7.72
Si -3.67  1.35  9.52
Si  3.67 -1.35 -9.52
Si -5.66 -6.12  6.07
Si  5.66  6.12 -6.07
Si -5.18  4.50  7.72
Si  5.18 -4.50 -7.72
Si  7.85 -5.22  4.27
Si -7.85  5.22 -4.27
Si -3.20 -9.81 -0.82
Si  3.20  9.81  0.82
Si -4.62  8.28  4.27
Si  4.62 -8.28 -4.27
Si  9.38  1.53  4.27
Si -9.38 -1.53 -4.27
Si -4.17 -0.90  9.52
Si  4.17  0.90 -9.52
Si  4.10  1.35  9.52
Si -4.10 -1.35 -9.52
Si -1.60  8.37 -6.07
Si  1.60 -8.37  6.07
Si -6.72 -2.25  7.72
Si  6.72  2.25 -7.72
Si -9.99  3.06  0.82
Si  9.99 -3.06 -0.82
Si -8.04 -2.88 -6.07
Si  8.04  2.88  6.07
Si -3.08  3.15 -9.52
Si  3.08 -3.15  9.52
Si -6.00  6.12 -6.07
Si  6.00 -6.12  6.07
Si -10.50  0.81  0.82
Si 10.50 -0.81 -0.82
Si -1.40 -10.44  0.82
Si  1.40 10.44 -0.82
Si  6.99 -5.13 -6.07
Si -6.99  5.13  6.07
Si  8.52  1.62 -6.07
Si -8.52 -1.62  6.07
Si  2.28  8.37 -6.07
Si -2.28 -8.37  6.07
Si  3.15 -3.60 -9.52
Si -3.15  3.60  9.52
Si  0.94  9.72 -4.27
Si -0.94 -9.72  4.27
Si  5.23  8.91  2.62
Si -5.23 -8.91 -2.62
Si  3.09  6.75  7.72
Si -3.09 -6.75 -7.72
Si -5.03  9.09 -2.62
Si  5.03 -9.09  2.62
Si  6.88 -8.19  0.82
Si -6.88  8.19 -0.82
Si  2.49 -10.44  0.82
Si -2.49 10.44 -0.82
Si -4.57  9.81  0.82
Si  4.57 -9.81 -0.82
Si  9.49  4.59 -2.62
Si -9.49 -4.59  2.62
Si -5.18 -7.38 -6.07
Si  5.18  7.38  6.07
Si -9.48  5.31  0.82
Si  9.48 -5.31 -0.82
Si  3.85  6.75 -7.72
Si -3.85 -6.75  7.72
Si  3.91 -6.75  7.72
Si -3.91  6.75 -7.72
Si -2.94  9.72 -4.27
Si  2.94 -9.72  4.27
Si 10.04 -1.53 -4.27
Si -10.04  1.53  4.27
Si -1.31 -5.40  9.52
Si  1.31  5.40 -9.52
Si -10.45  2.34 -2.62
Si 10.45 -2.34  2.62
Si -6.47 -4.50 -7.72
Si  6.47  4.50  7.72
Si  4.69  3.15 -9.52
Si -4.69 -3.15  9.52
Si -9.53  3.78  4.27
Si  9.53 -3.78 -4.27
Si 11.01  1.44 -0.82
Si -11.01 -1.44  0.82
Si  4.62  3.60  9.52
Si -4.62 -3.60 -9.52
Si  8.60  6.66  2.62
Si -8.60 -6.66 -2.62
Si  2.57 -5.40  9.52
Si -2.57  5.40 -9.52
Si  1.24  5.85  9.52
Si -1.24 -5.85 -9.52
Si  9.93 -4.59  2.62
Si -9.93  4.59 -2.62
Si 10.96 -0.09  2.62
Si -10.96  0.09 -2.62
Si -4.67  6.75  7.72
Si  4.67 -6.75 -7.72
Si -6.42  8.91  2.62
Si  6.42 -8.91 -2.62
Si  9.95  5.31  0.82
Si -9.95 -5.31 -0.82
Si -7.34  7.47 -4.27
Si  7.34 -7.47  4.27
Si  1.86 -0.72 -11.16
Si -1.86  0.72 11.16
Si  0.23 -10.53 -4.27
Si -0.23 10.53  4.27
Si -1.51  1.52 -11.16
Si  1.51 -1.52 11.16
Si  2.02  0.72 11.16
Si -2.02 -0.72 -11.16
Si 10.55  0.72 -4.27
Si -10.55 -0.72  4.27
Si  9.89  3.78  4.27
Si -9.89 -3.78 -4.27
Si -2.64  5.85  9.52
Si  2.64 -5.85 -9.52
Si -7.23 -4.50  7.72
Si  7.23  4.50 -7.72
Si -2.38 -1.52 11.16
Si  2.38  1.52 -11.16
Si  1.80  9.63  6.07
Si -1.80 -9.63 -6.07
Si  6.47 -7.38 -6.07
Si -6.47  7.38  6.07
Si -9.03 -3.87  6.07
Si  9.03  3.87 -6.07
Si -6.62 -9.09  2.62
Si  6.62  9.09 -2.62
Si  2.08 -9.63 -6.07
Si -2.08  9.63  6.07
Si  1.86 11.16  2.62
Si -1.86 -11.16 -2.62
Si  1.35 -2.97 -11.16
Si -1.35  2.97 11.16
Si -2.03 11.16  2.62
Si  2.03 -11.16 -2.62
Si -0.63 11.34 -2.62
Si  0.63 -11.34  2.62
Si -4.83 -9.72  4.27
Si  4.83  9.72 -4.27
Si  9.02 -6.03 -4.27
Si -9.02  6.03  4.27
Si  7.03  8.28  4.27
Si -7.03 -8.28 -4.27
Si  8.55  5.13  6.07
Si -8.55 -5.13 -6.07
Si -5.49  8.37 -6.07
Si  5.49 -8.37  6.07
Si  5.28 10.44 -0.82
Si -5.28 -10.44  0.82
Si  8.96 -7.56 -0.82
Si -8.96  7.56  0.82
Si -1.00  3.77 -11.16
Si  1.00 -3.77 11.16
Si  2.53  2.97 11.16
Si -2.53 -2.97 -11.16
Si -0.28  9.00  7.72
Si  0.28 -9.00 -7.72
Si  0.48  9.00 -7.72
Si -0.48 -9.00  7.72
Si  8.20  7.47 -4.27
Si -8.20 -7.47  4.27
Si  8.82 -2.25  7.72
Si -8.82  2.25 -7.72
Si  9.42 -6.84  2.62
Si -9.42  6.84 -2.62
Si  3.66 10.53  4.27
Si -3.66 -10.53 -4.27
Si  8.66  8.19 -0.82
Si -8.66 -8.19  0.82
Si -11.47 -2.16 -2.62
Si 11.47  2.16  2.62
Si  6.17  8.37 -6.07
Si -6.17 -8.37  6.07
Si -3.25 -11.34  2.62
Si  3.25 11.34 -2.62
Si  4.11 -10.53 -4.27
Si -4.11 10.53  4.27
Si -0.17 12.06  0.82
Si  0.17 -12.06 -0.82
Si  9.33  0.00  7.72
Si -9.33 -0.00 -7.72
Si  5.20  5.40 -9.52
Si -5.20 -5.40  9.52
Si -11.52 -3.69  0.82
Si 11.52  3.69 -0.82
Si  7.08  9.81  0.82
Si -7.08 -9.81 -0.82
Si -2.89 -3.77 11.16
Si  2.89  3.77 -11.16
Si -7.48  0.90 -9.52
Si  7.48 -0.90  9.52
Si  8.31 -4.50  7.72
Si -8.31  4.50 -7.72
Si  6.97 -3.15  9.52
Si -6.97  3.15 -9.52
Si -11.06 -2.97  4.27
Si 11.06  2.97 -4.27
