500
set: 1040.00  0.00  0.00
Si  0.42 -1.15  0.78
Si -0.44  1.16 -0.81
Si  1.33  1.18  0.75
Si -1.32 -1.24 -0.78
Si -0.87  0.00  2.44
Si  0.87 -0.01 -2.44
Si -2.18  1.16  0.85
Si  2.17 -1.18 -0.84
Si -3.05 -1.14  0.84
Si  0.04  2.33  2.43
Si -0.05 -2.35 -2.43
Si  3.06  1.19 -0.84
Si -2.61 -0.00 -2.41
Si  0.48  3.44 -0.78
Si  2.60 -0.01  2.45
Si -0.47 -3.50  0.75
Si  1.70 -2.31  2.44
Si  1.75  2.33 -2.43
Si -1.68  2.37 -2.44
Si  1.26 -3.49 -0.84
Si -1.76 -2.34  2.43
Si -1.25  3.53  0.84
Si -0.86 -0.00 -4.09
Si  0.85 -0.01  4.09
Si  3.93 -1.14  0.84
Si -3.92  1.19 -0.84
Si  2.21  3.53  0.78
Si -2.24 -3.52 -0.81
Si -3.01  3.49 -0.84
Si  0.03  2.34 -4.07
Si -0.03 -2.35  4.07
Si  3.00 -3.52  0.85
Si -2.58  0.03  4.08
Si  2.60  0.03 -4.08
Si -3.48 -2.31 -2.44
Si  3.50 -2.31 -2.44
Si -3.48  2.37  2.44
Si  3.50  2.37  2.44
Si  1.70 -2.35 -4.07
Si  4.38 -0.00 -2.41
Si  4.80  1.16  0.85
Si  1.77  2.33  4.07
Si -1.77 -2.34 -4.07
Si -4.38 -0.01  2.45
Si -4.81 -1.18 -0.84
Si -1.71  2.34  4.11
Si -0.81  4.67 -2.41
Si  0.80 -4.69  2.45
Si  3.97  3.49 -0.84
Si  0.93  4.68  2.44
Si -0.93 -4.68 -2.44
Si -3.98 -3.52  0.85
Si -5.65  1.18  0.75
Si -3.48  2.33 -4.07
Si  3.50  2.33 -4.07
Si  5.66 -1.24 -0.78
Si -0.42  1.10  5.74
Si  2.58 -4.68 -2.41
Si  3.48 -2.34  4.11
Si -2.58  4.67  2.45
Si -3.50 -2.34  4.11
Si  0.43 -1.16 -5.77
Si -0.38  5.83  0.85
Si  2.67  4.67 -2.44
Si -2.67 -4.67  2.44
Si  0.38 -5.86 -0.84
Si  4.75 -3.52 -0.81
Si -4.38  0.03 -4.08
Si -1.34 -1.18  5.71
Si -4.77  3.53  0.78
Si  4.40  0.03  4.08
Si  1.32  1.19 -5.74
Si -1.38 -5.82  0.78
Si  1.36  5.83 -0.81
Si -2.15  1.20 -5.67
Si  2.16 -1.15  5.68
Si  5.22 -2.34  2.43
Si -5.23  2.33 -2.43
Si  0.81 -4.65 -4.08
Si -5.28 -2.31  2.44
Si  2.13 -5.82  0.84
Si -0.79  4.71  4.08
Si  0.94  4.67 -4.09
Si -2.12  5.87 -0.84
Si -0.95 -4.69  4.09
Si  5.30  2.37 -2.44
Si -3.08 -1.18 -5.67
Si  3.07  1.15  5.68
Si  6.11  0.00  2.44
Si -6.11 -0.01 -2.44
Si  3.13  5.86  0.75
Si  6.54  1.16 -0.81
Si  2.60 -4.64  4.08
Si -6.57 -1.15  0.78
Si  0.46  3.49  5.71
Si -3.12 -5.92 -0.78
Si -0.48 -3.48 -5.74
Si -2.58  4.71 -4.08
Si  2.65  4.66  4.09
Si -5.72 -3.49 -0.84
Si -2.66 -4.68 -4.09
Si -1.28  3.50 -5.67
Si  5.73  3.53  0.84
Si  1.27 -3.52  5.68
Si -4.31  4.67 -2.44
Si  4.31 -4.67  2.44
Si -4.40 -4.68 -2.41
Si  4.40  4.67  2.45
Si  3.90 -1.18 -5.67
Si -3.91  1.15  5.68
Si -5.21  2.33  4.07
Si  5.21 -2.34 -4.07
Si -3.85  5.86  0.75
Si -5.28 -2.35 -4.07
Si  5.28  2.34  4.11
Si  3.87 -5.92 -0.78
Si  2.23  3.52 -5.77
Si -2.22 -3.58  5.74
Si  3.03 -3.48 -5.67
Si -3.02  3.53  5.68
Si  6.12 -0.00 -4.09
Si  0.43 -1.16  7.27
Si -6.13 -0.01  4.09
Si -0.42  1.10 -7.29
Si -6.50  3.44 -0.78
Si -0.10 -6.99  2.44
Si  6.52 -3.50  0.75
Si  0.12  7.05 -2.44
Si  1.32  1.19  7.29
Si  7.40 -1.15  0.78
Si -1.34 -1.18 -7.32
Si -4.82 -1.15  5.68
Si  4.83  1.20 -5.67
Si -7.42  1.16 -0.81
Si -4.33  4.66  4.09
Si  4.32 -4.68 -4.09
Si -4.38 -4.64  4.08
Si  1.70 -6.98 -2.44
Si -4.85 -5.82  0.84
Si  4.40  4.71 -4.08
Si -1.68  7.04  2.44
Si  1.84  7.01  2.43
Si  4.86  5.87 -0.84
Si -1.85 -7.03 -2.43
Si  6.93 -2.35 -2.43
Si -6.94  2.33  2.43
Si -3.95 -3.48 -5.67
Si  2.16 -1.15 -7.35
Si -2.15  1.20  7.36
Si  3.96  3.53  5.68
Si  7.02  2.33  2.43
Si -7.03 -2.35 -2.43
Si -6.05  4.68  2.44
Si  6.05 -4.68 -2.44
Si  3.07  1.15 -7.35
Si -3.08 -1.18  7.36
Si -0.48 -3.48  7.29
Si  6.17  4.67 -2.41
Si  5.60 -5.82  0.78
Si  5.64 -1.18  5.71
Si -0.10 -7.02 -4.07
Si  0.46  3.49 -7.32
Si  0.09  7.01  4.11
Si -6.18 -4.69  2.45
Si -5.62  5.83 -0.81
Si  0.36 -5.83  5.68
Si -5.67  1.19 -5.74
Si -3.44  7.00 -2.43
Si -0.35  5.87 -5.67
Si  3.42 -7.02  2.43
Si  3.55  7.00 -2.43
Si -7.85  0.00  2.44
Si  7.85 -0.01 -2.44
Si -0.54 -8.17 -0.84
Si -3.56 -7.02  2.43
Si -1.28  3.50  7.36
Si  1.27 -3.52 -7.35
Si  7.46  3.44 -0.78
Si -4.75  3.52 -5.77
Si -7.45 -3.50  0.75
Si  1.38  5.78  5.74
Si  0.55  8.21  0.84
Si  4.76 -3.58  5.74
Si -1.69  7.01 -4.07
Si -1.21  8.17 -0.84
Si  1.68 -7.02  4.11
Si -1.36 -5.83 -5.77
Si  1.83  7.02 -4.07
Si -1.83 -7.02  4.07
Si  1.20 -8.20  0.85
Si  2.23  3.52  7.27
Si -6.95  2.34 -4.07
Si  6.95 -2.35  4.07
Si -3.91  1.15 -7.35
Si -2.11  5.83  5.68
Si  3.90 -1.18  7.36
Si -2.22 -3.58 -7.29
Si  2.10 -5.86 -5.67
Si -8.30 -1.24 -0.78
Si  8.31  1.18  0.75
Si -7.01 -2.35  4.07
Si  7.01  2.34 -4.07
Si  2.28  8.12 -0.78
Si -2.26 -8.17  0.75
Si -6.04  4.67 -4.09
Si  6.03 -4.69  4.09
Si  3.03 -3.48  7.36
Si -3.02  3.53 -7.35
Si -6.18 -4.65 -4.08
Si  2.95 -8.20 -0.81
Si -3.13 -5.86  5.71
Si -2.97  8.21  0.78
Si  5.70  3.50 -5.67
Si  3.11  5.87 -5.74
Si  6.20  4.71  4.08
Si -5.71 -3.52  5.68
Si  6.56  1.10  5.74
Si -3.42  7.01  4.07
Si  3.42 -7.01 -4.07
Si -6.55 -1.16 -5.77
Si  7.83 -0.01  4.09
Si -7.84 -0.00 -4.09
Si  6.60  5.83  0.85
Si  3.57  7.01  4.07
Si -3.57 -7.01 -4.07
Si -4.82 -1.15 -7.35
Si -6.61 -5.86 -0.84
Si  4.83  1.20  7.36
Si  0.85 -0.01 -8.94
Si -0.86 -0.00  8.95
Si  8.24 -3.49 -0.84
Si -8.23  3.53  0.84
Si -5.14  7.01  2.43
Si  5.13 -7.03 -2.43
Si  3.85 -5.86  5.71
Si -3.95 -3.48  7.36
Si  3.96  3.53 -7.35
Si -3.87  5.87 -5.74
Si -5.28 -6.98 -2.44
Si  5.30  7.04  2.44
Si  4.01  8.21  0.78
Si -4.04 -8.20 -0.81
Si  0.03  2.34  8.96
Si -0.03 -2.35 -8.96
Si  9.15 -1.18 -0.84
Si -9.16  1.16  0.85
Si -8.66  2.37 -2.44
Si -5.67  1.19  7.29
Si  8.69 -2.31  2.44
Si  5.64 -1.18 -7.32
Si -2.58  0.03 -8.96
Si  2.60  0.03  8.96
Si -6.52  3.49  5.71
Si  6.50 -3.48 -5.74
Si  8.73  2.33 -2.43
Si -4.75  3.52  7.27
Si -8.74 -2.34  2.43
Si -1.71  2.34 -8.93
Si  0.36 -5.83 -7.35
Si -7.79  4.67 -2.41
Si  1.38  5.78 -7.29
Si  7.78 -4.69  2.45
Si -4.70  8.12 -0.78
Si  4.76 -3.58 -7.29
Si -1.36 -5.83  7.27
Si  1.70 -2.35  8.96
Si -0.35  5.87  7.36
Si -1.77 -2.34  8.96
Si  1.77  2.33 -8.96
Si -7.40  1.10  5.74
Si -7.36  5.83  0.85
Si  7.36 -5.86 -0.84
Si  7.42 -1.16 -5.77
Si  4.72 -8.17  0.75
Si  4.87  5.83  5.68
Si -4.88 -5.86 -5.67
Si  7.91  4.68  2.44
Si -7.91 -4.68 -2.44
Si -5.15  7.02 -4.07
Si  5.15 -7.02  4.07
Si -2.11  5.83 -7.35
Si  2.10 -5.86  7.36
Si  5.29  7.01 -4.07
Si  0.78 -9.36 -2.41
Si -0.79  9.35  2.45
Si -5.30 -7.02  4.11
Si  0.99  9.35 -2.41
Si -1.00 -9.36  2.45
Si -6.55 -1.16  7.27
Si  3.48 -2.34 -8.93
Si  3.11  5.87  7.29
Si  8.68 -2.35 -4.07
Si -3.50 -2.34 -8.93
Si  6.56  1.10 -7.29
Si  9.20  3.53  0.78
Si -5.60  5.78  5.74
Si -9.59 -0.00 -2.41
Si  9.58 -0.01  2.45
Si -8.69  2.34  4.11
Si -3.13 -5.86 -7.32
Si -3.48  2.33  8.96
Si -9.22 -3.52 -0.81
Si  3.50  2.33  8.96
Si  8.75  2.33  4.07
Si -8.75 -2.34 -4.07
Si  7.79 -4.65 -4.08
Si  5.62 -5.83 -5.77
Si  5.70  3.50  7.36
Si -5.71 -3.52 -7.35
Si -7.77  4.71  4.08
Si  0.52  8.17 -5.67
Si -4.38  0.03  8.96
Si  4.40  0.03 -8.96
Si -2.52  9.35 -2.44
Si  2.52 -9.35  2.44
Si -0.53 -8.20  5.68
Si  7.44  3.49  5.71
Si  1.24 -8.16 -5.67
Si  5.77  8.17 -0.84
Si -7.46 -3.48 -5.74
Si  2.73  9.36  2.44
Si -2.73 -9.36 -2.44
Si -1.22  8.20  5.68
Si  7.92  4.67 -4.09
Si -5.78 -8.20  0.85
Si -7.93 -4.69  4.09
Si  6.89 -6.99  2.44
Si  0.81 -4.65  8.96
Si -3.87  5.87  7.29
Si -10.03 -1.14  0.84
Si  0.94  4.67  8.95
Si  3.85 -5.86 -7.32
Si -6.87  7.05 -2.44
Si -0.95 -4.69 -8.94
Si 10.04  1.19 -0.84
Si -0.79  4.71 -8.96
Si -8.32 -1.18  5.71
Si  8.30  1.19 -5.74
Si  0.80 -9.32  4.08
Si  8.34  5.83 -0.81
Si -8.36 -5.82  0.78
Si  2.26  8.17  5.71
Si -0.99 -9.33 -4.08
Si -2.28 -8.16 -5.74
Si -7.08 -6.99  2.44
Si -0.78  9.38 -4.08
Si  1.01  9.39  4.08
Si  7.10  7.05 -2.44
Si  6.50 -3.48  7.29
Si -9.56  0.03  4.08
Si -6.52  3.49 -7.32
Si  9.58  0.03 -4.08
Si  2.60 -4.64 -8.96
Si  2.65  4.66 -8.94
Si  6.44 -8.17 -0.84
Si -2.66 -4.68  8.95
Si -2.58  4.71  8.96
Si -7.40  1.10 -7.29
Si  7.42 -1.16  7.27
Si -2.95  8.20 -5.77
Si -6.43  8.21  0.84
Si  2.97 -8.26  5.74
Si -6.62 -5.83  5.68
Si -2.54  9.34  4.09
Si  6.63  5.87 -5.67
Si  2.52 -9.36 -4.09
Si  0.34 -10.50  0.84
Si -4.25  9.36  2.44
Si  2.74  9.35 -4.09
Si  4.25 -9.36 -2.44
Si  4.87  5.83 -7.35
Si -0.33 10.54 -0.84
Si -2.75 -9.37  4.09
Si -4.88 -5.86  7.36
Si -8.26  3.50 -5.67
Si -9.99  3.49 -0.84
Si  9.98 -3.52  0.85
Si  8.26 -3.52  5.68
Si  0.87 -0.01 10.59
Si -0.87  0.00 -10.59
Si  5.21 -2.34  8.96
Si -5.21  2.33 -8.96
Si  5.28  2.34 -8.93
Si  6.88 -7.02 -4.07
Si  1.42 10.51  0.85
Si  4.47  9.35 -2.44
Si -4.46 -9.35  2.44
Si -6.89  7.01  4.11
Si -5.28 -2.35  8.96
Si -1.42 -10.54 -0.84
Si -2.05 10.54  0.75
Si -7.08 -7.02 -4.07
Si  7.07  7.01  4.11
Si  4.03  8.20 -5.77
Si -9.13  1.20 -5.67
Si  2.07 -10.59 -0.78
Si  9.14 -1.15  5.68
Si -4.01 -8.26  5.74
Si  6.12 -0.00  8.95
Si -6.13 -0.01 -8.94
Si  9.12 -5.82  0.84
Si  0.04  2.33 -10.60
Si -5.60  5.78 -7.29
Si -0.05 -2.35 10.61
Si -9.11  5.87 -0.84
Si  5.62 -5.83  7.27
Si  2.60 -0.01 -10.58
Si  9.56 -4.68 -2.41
Si -9.57  4.67  2.45
Si -2.61 -0.00 10.62
Si  7.34 -5.83  5.68
Si  1.70 -2.31 -10.59
Si -7.33  5.87 -5.67
Si -4.33  4.66 -8.94
Si  4.32 -4.68  8.95
Si -1.68  2.37 10.59
Si -10.46 -2.31 -2.44
Si  9.65  4.67 -2.44
Si -9.65 -4.67  2.44
Si  1.75  2.33 10.61
Si -10.46  2.37  2.44
Si -3.18 -10.50  0.78
Si -4.38 -4.64 -8.96
Si -1.76 -2.34 -10.60
Si -10.90  1.19 -0.84
Si -7.46 -3.48  7.29
Si 10.48 -2.31 -2.44
Si  3.16 10.51 -0.81
Si 10.91 -1.14  0.84
Si  7.44  3.49 -7.32
Si  0.52  8.17  7.36
Si 10.48  2.37  2.44
Si -0.53 -8.20 -7.35
Si  4.70 -8.16 -5.74
Si -4.72  8.17  5.71
Si  4.40  4.71  8.96
Si -4.24  9.35 -4.09
Si  1.24 -8.16  7.36
Si  4.23 -9.37  4.09
Si -1.22  8.20 -7.35
Si  8.30  1.19  7.29
Si  4.45  9.34  4.09
Si -7.52 -8.17 -0.84
Si -4.46 -9.36 -4.09
Si -8.32 -1.18 -7.32
Si  7.53  8.21  0.84
Si -2.28 -8.16  7.29
Si  3.80 -10.50  0.78
Si  2.26  8.17 -7.32
Si -3.82 10.51 -0.81
Si -2.95  8.20  7.27
Si  0.09  7.01 -8.93
Si -5.99  9.35 -2.41
Si  5.98 -9.36  2.45
Si -3.48 -2.31 10.59
Si -0.10 -7.02  8.96
Si  3.50 -2.31 10.59
Si -3.48  2.37 -10.59
Si  9.58 -4.64  4.08
Si  3.50  2.37 -10.59
Si  8.68 -6.98 -2.44
Si  2.97 -8.26 -7.29
Si -9.56  4.71 -4.08
Si -9.20 -3.58  5.74
Si  9.21  3.52 -5.77
Si -8.66  7.04  2.44
Si  9.63  4.66  4.09
Si -4.38 -0.01 -10.58
Si -10.47  2.33 -4.07
Si -9.64 -4.68 -4.09
Si 10.46 -2.34  4.11
Si  6.19  9.35  2.45
Si 10.48  2.33 -4.07
Si  1.68 -7.02 -8.93
Si -5.75 -8.16 -5.67
Si -6.20 -9.36 -2.41
Si -6.62 -5.83 -7.35
Si  4.38 -0.00 10.62
Si -10.49 -2.34  4.11
Si -1.69  7.01  8.96
Si  6.63  5.87  7.36
Si  5.76  8.20  5.68
Si 10.95  3.49 -0.84
Si  1.83  7.02  8.96
Si  8.82  7.01  2.43
Si -1.83 -7.02 -8.96
Si -10.96 -3.52  0.85
Si -8.83 -7.03 -2.43
Si -6.95  2.34  8.96
Si  6.95 -2.35 -8.96
Si -8.19  8.17 -0.84
Si  0.80 -4.69 -10.58
Si  8.26 -3.52 -7.35
Si 10.05  1.15  5.68
Si -8.26  3.50  7.36
Si -10.06 -1.18 -5.67
Si 11.36 -0.00 -2.41
Si  0.93  4.68 -10.59
Si -0.93 -4.68 10.59
Si  8.18 -8.20  0.85
