500
set: 618.00  0.00  0.00
Si -1.36 -0.58 -0.87
Si  1.36  0.58  0.87
Si  0.72 -1.62  0.87
Si -0.72  1.62 -0.87
Si  0.48  0.04 -2.57
Si -0.48 -0.04  2.57
Si -2.50  0.58  0.87
Si  2.50 -0.58 -0.87
Si  0.16  2.16  2.57
Si -0.16 -2.16 -2.57
Si -1.86  2.78  0.87
Si  1.86 -2.78 -0.87
Si -1.99 -2.78 -0.87
Si  1.99  2.78  0.87
Si -1.11 -2.24  2.57
Si  1.11  2.24 -2.57
Si  3.13  1.62 -0.87
Si -3.13 -1.62  0.87
Si  0.09 -3.82  0.87
Si -0.09  3.82 -0.87
Si  3.37 -0.04  2.57
Si -3.37  0.04 -2.57
Si  2.74 -2.24  2.57
Si -2.74  2.24 -2.57
Si -1.60  1.08 -4.30
Si  1.60 -1.08  4.30
Si -1.62  1.12  4.30
Si  1.62 -1.12 -4.30
Si  4.57 -1.62  0.87
Si -4.57  1.62 -0.87
Si  2.23  1.12  4.30
Si -2.23 -1.12 -4.30
Si -2.25 -1.08  4.30
Si  2.25  1.08 -4.30
Si  3.70 -2.16 -2.57
Si -3.70  2.16  2.57
Si  4.33  0.04 -2.57
Si -4.33 -0.04  2.57
Si  0.79  4.36  2.57
Si -0.79 -4.36 -2.57
Si -1.23  4.98  0.87
Si  1.23 -4.98 -0.87
Si -4.01 -2.16 -2.57
Si  4.01  2.16  2.57
Si -5.21 -0.58 -0.87
Si  5.21  0.58  0.87
Si -1.75 -4.44  2.57
Si  1.75  4.44 -2.57
Si  3.77  3.82 -0.87
Si -3.77 -3.82  0.87
Si -0.96  3.28 -4.30
Si  0.96 -3.28  4.30
Si -0.98  3.32  4.30
Si  0.98 -3.32 -4.30
Si -2.10  4.44 -2.57
Si  2.10 -4.44  2.57
Si -3.94  3.82 -0.87
Si  3.94 -3.82  0.87
Si -2.63 -4.98 -0.87
Si  2.63  4.98  0.87
Si  3.06 -4.36 -2.57
Si -3.06  4.36  2.57
Si -4.97 -2.24  2.57
Si  4.97  2.24 -2.57
Si -0.40 -0.50 -6.00
Si  0.40  0.50  6.00
Si -0.55 -6.02  0.87
Si  0.55  6.02 -0.87
Si -2.89 -3.28  4.30
Si  2.89  3.28 -4.30
Si  2.87  3.32  4.30
Si -2.87 -3.32 -4.30
Si -0.24 -1.70  6.00
Si  0.24  1.70 -6.00
Si -5.71  2.78  0.87
Si  5.71 -2.78 -0.87
Si -6.35  0.58  0.87
Si  6.35 -0.58 -0.87
Si -5.84 -2.78 -0.87
Si  5.84  2.78  0.87
Si  1.03  2.70  6.00
Si -1.03 -2.70 -6.00
Si  4.64  4.36  2.57
Si -4.64 -4.36 -2.57
Si  3.30 -6.02  0.87
Si -3.30  6.02 -0.87
Si -3.46  0.50  6.00
Si  3.46 -0.50 -6.00
Si  0.33 -5.48  4.30
Si -0.33  5.48 -4.30
Si  0.35 -5.52 -4.30
Si -0.35  5.52  4.30
Si  5.45 -1.08  4.30
Si -5.45  1.08 -4.30
Si  5.47 -1.12 -4.30
Si -5.47  1.12  4.30
Si  2.82 -2.70 -6.00
Si -2.82  2.70  6.00
Si  5.08 -4.98 -0.87
Si -5.08  4.98  0.87
Si -1.43 -6.56 -2.57
Si  1.43  6.56  2.57
Si -0.87 -3.90  6.00
Si  0.87  3.90 -6.00
Si  3.62 -1.70  6.00
Si -3.62  1.70 -6.00
Si  6.99  1.62 -0.87
Si -6.99 -1.62  0.87
Si -4.82  3.28 -4.30
Si  4.82 -3.28  4.30
Si -0.59  7.17  0.87
Si  0.59 -7.17 -0.87
Si  1.47 -6.64  2.57
Si -1.47  6.64 -2.57
Si -4.84  3.32  4.30
Si  4.84 -3.32 -4.30
Si  4.25  0.50  6.00
Si -4.25 -0.50 -6.00
Si  6.59 -2.24  2.57
Si -6.59  2.24 -2.57
Si  2.43 -6.56 -2.57
Si -2.43  6.56  2.57
Si -4.09 -1.70  6.00
Si  4.09  1.70 -6.00
Si  2.39  6.64 -2.57
Si -2.39 -6.64  2.57
Si -4.40 -6.02  0.87
Si  4.40  6.02 -0.87
Si -6.09 -1.12 -4.30
Si  6.09  1.12  4.30
Si -6.11 -1.08  4.30
Si  6.11  1.08 -4.30
Si -5.60 -4.44  2.57
Si  5.60  4.44 -2.57
Si  7.23 -0.04  2.57
Si -7.23  0.04 -2.57
Si -2.98  3.90 -6.00
Si  2.98 -3.90  6.00
Si -3.53 -5.48  4.30
Si  3.53  5.48 -4.30
Si -3.50 -5.52 -4.30
Si  3.50  5.52  4.30
Si -5.96  4.44 -2.57
Si  5.96 -4.44  2.57
Si -1.38 -0.54  7.74
Si  1.38  0.54 -7.74
Si  1.67  4.90  6.00
Si -1.67 -4.90 -6.00
Si -3.26 -7.17 -0.87
Si  3.26  7.17  0.87
Si  0.74 -1.66 -7.74
Si -0.74  1.66  7.74
Si  2.18 -4.90 -6.00
Si -2.18  4.90  6.00
Si  4.18 -5.48  4.30
Si -4.18  5.48 -4.30
Si -2.48  0.54 -7.74
Si  2.48 -0.54  7.74
Si  4.20 -5.52 -4.30
Si -4.20  5.52  4.30
Si  4.89  2.70  6.00
Si -4.89 -2.70 -6.00
Si  6.48  4.98  0.87
Si -6.48 -4.98 -0.87
Si -7.55  2.16  2.57
Si  7.55 -2.16 -2.57
Si  1.19  8.22 -0.87
Si -1.19 -8.22  0.87
Si -1.84  2.74 -7.74
Si  1.84 -2.74  7.74
Si  2.01  2.74 -7.74
Si -2.01 -2.74  7.74
Si  4.44 -7.17 -0.87
Si -4.44  7.17  0.87
Si  3.11  1.66  7.74
Si -3.11 -1.66 -7.74
Si  7.86  2.16  2.57
Si -7.86 -2.16 -2.57
Si -6.92  4.36  2.57
Si  6.92 -4.36 -2.57
Si -7.62 -3.82  0.87
Si  7.62  3.82 -0.87
Si -4.73 -3.90  6.00
Si  4.73  3.90 -6.00
Si  8.19  0.04 -2.57
Si -8.19 -0.04  2.57
Si  8.43 -1.62  0.87
Si -8.43  1.62 -0.87
Si  6.72  3.32  4.30
Si -6.72 -3.32 -4.30
Si  6.74  3.28 -4.30
Si -6.74 -3.28  4.30
Si  0.11 -3.86 -7.74
Si -0.11  3.86  7.74
Si  2.67 -8.22  0.87
Si -2.67  8.22 -0.87
Si -1.51 -6.10  6.00
Si  1.51  6.10 -6.00
Si  7.79 -3.82  0.87
Si -7.79  3.82 -0.87
Si  5.28  6.56  2.57
Si -5.28 -6.56 -2.57
Si -0.31 -7.68  4.30
Si  0.31  7.68 -4.30
Si  0.29  7.71  4.30
Si -0.29 -7.71 -4.30
Si  2.34 -6.10  6.00
Si -2.34  6.10 -6.00
Si  5.32 -6.64  2.57
Si -5.32  6.64 -2.57
Si  9.06  0.58  0.87
Si -9.06 -0.58 -0.87
Si -4.59  1.66  7.74
Si  4.59 -1.66 -7.74
Si  0.83 -8.84  2.57
Si -0.83  8.84 -2.57
Si -1.20  4.94 -7.74
Si  1.20 -4.94  7.74
Si -1.79  8.76  2.57
Si  1.79 -8.76 -2.57
Si -5.23 -0.54  7.74
Si  5.23  0.54 -7.74
Si -2.06 -8.76 -2.57
Si  2.06  8.76  2.57
Si  6.67 -2.70 -6.00
Si -6.67  2.70  6.00
Si -7.16  6.02 -0.87
Si  7.16 -6.02  0.87
Si -0.05 -9.38 -0.87
Si  0.05  9.38  0.87
Si  3.75  3.86  7.74
Si -3.75 -3.86 -7.74
Si -1.55  7.10  6.00
Si  1.55 -7.10 -6.00
Si -6.28  6.56  2.57
Si  6.28 -6.56 -2.57
Si -8.82 -2.24  2.57
Si  8.82  2.24 -2.57
Si -6.24 -6.64  2.57
Si  6.24  6.64 -2.57
Si  7.31 -0.50 -6.00
Si -7.31  0.50  6.00
Si -3.54  7.68 -4.30
Si  3.54 -7.68  4.30
Si  3.96 -3.86 -7.74
Si -3.96  3.86  7.74
Si  5.52  4.90  6.00
Si -5.52 -4.90 -6.00
Si -3.56  7.71  4.30
Si  3.56 -7.71 -4.30
Si  0.64 -1.16  9.44
Si -0.64  1.16 -9.44
Si  2.65  4.94 -7.74
Si -2.65 -4.94  7.74
Si  2.30  7.10  6.00
Si -2.30 -7.10 -6.00
Si  1.27  1.04  9.44
Si -1.27 -1.04 -9.44
Si -5.04 -8.22  0.87
Si  5.04  8.22 -0.87
Si  3.02  8.84 -2.57
Si -3.02 -8.84  2.57
Si -7.47  1.70 -6.00
Si  7.47 -1.70  6.00
Si  4.16  7.68 -4.30
Si -4.16 -7.68  4.30
Si  4.14  7.71  4.30
Si -4.14 -7.71 -4.30
Si -6.04  4.90  6.00
Si  6.04 -4.90 -6.00
Si -2.58  1.04  9.44
Si  2.58 -1.04 -9.44
Si  0.53  6.05  7.74
Si -0.53 -6.05 -7.74
Si  8.50  4.36  2.57
Si -8.50 -4.36 -2.57
Si -6.83  3.90 -6.00
Si  6.83 -3.90  6.00
Si  5.69 -2.74  7.74
Si -5.69  2.74 -7.74
Si  9.57 -2.78 -0.87
Si -9.57  2.78  0.87
Si  6.33 -0.54  7.74
Si -6.33  0.54 -7.74
Si -0.00  3.36 -9.44
Si  0.00 -3.36  9.44
Si -3.21 -1.16  9.44
Si  3.21  1.16 -9.44
Si -5.87 -2.74  7.74
Si  5.87  2.74 -7.74
Si -5.36 -6.10  6.00
Si  5.36  6.10 -6.00
Si -8.10 -0.50 -6.00
Si  8.10  0.50  6.00
Si  7.94  1.70 -6.00
Si -7.94 -1.70  6.00
Si -9.70 -2.78 -0.87
Si  9.70  2.78  0.87
Si -7.12 -7.17 -0.87
Si  7.12  7.17  0.87
Si -7.38 -5.48  4.30
Si  7.38  5.48 -4.30
Si -7.36 -5.52 -4.30
Si  7.36  5.52  4.30
Si  3.81 -9.38 -0.87
Si -3.81  9.38  0.87
Si -1.91 -3.24 -9.44
Si  1.91  3.24  9.44
Si  1.94 -3.24 -9.44
Si -1.94  3.24  9.44
Si -3.90 -9.38 -0.87
Si  3.90  9.38  0.87
Si -8.67  3.28 -4.30
Si  8.67 -3.28  4.30
Si  8.69 -3.32 -4.30
Si -8.69  3.32  4.30
Si  8.26  6.02 -0.87
Si -8.26 -6.02  0.87
Si -10.20  0.58  0.87
Si 10.20 -0.58 -0.87
Si -8.93  4.98  0.87
Si  8.93 -4.98 -0.87
Si  9.30 -1.08  4.30
Si -9.30  1.08 -4.30
Si -4.68  8.84 -2.57
Si  4.68 -8.84  2.57
Si  9.32 -1.12 -4.30
Si -9.32  1.12  4.30
Si -3.32  6.05  7.74
Si  3.32 -6.05 -7.74
Si -1.71  8.29 -6.00
Si  1.71 -8.29  6.00
Si -2.15 -8.29  6.00
Si  2.15  8.29 -6.00
Si  5.06 -4.94  7.74
Si -5.06  4.94 -7.74
Si -4.49  1.16 -9.44
Si  4.49 -1.16  9.44
Si  6.52 -8.22  0.87
Si -6.52  8.22 -0.87
Si  6.96  1.66  7.74
Si -6.96 -1.66 -7.74
Si  0.57 -7.14  7.74
Si -0.57  7.14 -7.74
Si -6.20  6.10 -6.00
Si  6.20 -6.10  6.00
Si  1.82 10.42 -0.87
Si -1.82 -10.42  0.87
Si  8.03 -5.48  4.30
Si -8.03  5.48 -4.30
Si  2.03 -10.42  0.87
Si -2.03 10.42 -0.87
Si -8.05  5.52  4.30
Si  8.05 -5.52 -4.30
Si -3.85 -3.36  9.44
Si  3.85  3.36 -9.44
Si  5.64 -8.76 -2.57
Si -5.64  8.76  2.57
Si  3.86 -3.36  9.44
Si -3.86  3.36 -9.44
Si  5.40 -7.10 -6.00
Si -5.40  7.10  6.00
Si -9.46 -4.44  2.57
Si  9.46  4.44 -2.57
Si -4.38 -6.05 -7.74
Si  4.38  6.05  7.74
Si  5.13  1.04  9.44
Si -5.13 -1.04 -9.44
Si -0.94 -9.88  4.30
Si  0.94  9.88 -4.30
Si  0.92  9.91  4.30
Si -0.92 -9.91 -4.30
Si -5.92 -8.76 -2.57
Si  5.92  8.76  2.57
Si -9.94 -1.12 -4.30
Si  9.94  1.12  4.30
Si  9.96  1.08 -4.30
Si -9.96 -1.08  4.30
Si -8.74 -2.70 -6.00
Si  8.74  2.70  6.00
Si  0.63  5.56 -9.44
Si -0.63 -5.56  9.44
Si  1.31 -5.44 -9.44
Si -1.31  5.44  9.44
Si -10.44  2.24 -2.57
Si 10.44 -2.24  2.57
Si -10.84 -1.62  0.87
Si 10.84  1.62 -0.87
Si  8.30 -7.17 -0.87
Si -8.30  7.17  0.87
Si -3.28 -7.14  7.74
Si  3.28  7.14 -7.74
Si -9.81  4.44 -2.57
Si  9.81 -4.44  2.57
Si  0.91 -9.30 -6.00
Si -0.91  9.30  6.00
Si -6.16 -7.10 -6.00
Si  6.16  7.10  6.00
Si  2.91 -9.88  4.30
Si -2.91  9.88 -4.30
Si -8.58 -3.90  6.00
Si  8.58  3.90 -6.00
Si -0.50 -0.00 11.17
Si  0.50  0.00 -11.17
Si  2.55  5.44  9.44
Si -2.55 -5.44 -9.44
Si  2.93 -9.91 -4.30
Si -2.93  9.91  4.30
Si -6.50 -4.94  7.74
Si  6.50  4.94 -7.74
Si -1.16 10.96  2.57
Si  1.16 -10.96 -2.57
Si  0.20 -11.04  2.57
Si -0.20 11.04 -2.57
Si 11.08 -0.04  2.57
Si -11.08  0.04 -2.57
Si  1.17  8.26  7.74
Si -1.17 -8.26 -7.74
Si -0.14 -2.20 -11.17
Si  0.14  2.20 11.17
Si -3.22  5.56 -9.44
Si  3.22 -5.56  9.44
Si -4.42  7.14 -7.74
Si  4.42 -7.14  7.74
Si -1.14 -2.20 11.17
Si  1.14  2.20 -11.17
Si  2.94  9.30  6.00
Si -2.94 -9.30 -6.00
Si  6.43 -1.04 -9.44
Si -6.43  1.04  9.44
Si  6.88  8.84 -2.57
Si -6.88 -8.84  2.57
Si  7.40 -7.68  4.30
Si -7.40  7.68 -4.30
Si 10.33  4.98  0.87
Si -10.33 -4.98 -0.87
Si -7.60 -3.86 -7.74
Si  7.60  3.86  7.74
Si -5.76 -3.24 -9.44
Si  5.76  3.24  9.44
Si -9.13 -6.56 -2.57
Si  9.13  6.56  2.57
Si  7.42 -7.71 -4.30
Si -7.42  7.71  4.30
Si  5.80 -3.24 -9.44
Si -5.80  3.24  9.44
Si  2.70 10.96  2.57
Si -2.70 -10.96 -2.57
Si -8.45  1.66  7.74
Si  8.45 -1.66 -7.74
Si -9.17  6.64 -2.57
Si  9.17 -6.64  2.57
Si -0.68 -11.57 -0.87
Si  0.68 11.57  0.87
Si  2.69 -8.26 -7.74
Si -2.69  8.26  7.74
Si  5.56 -8.29  6.00
Si -5.56  8.29 -6.00
Si  7.81 -3.86 -7.74
Si -7.81  3.86  7.74
Si  3.35 -0.00 11.17
Si -3.35  0.00 -11.17
Si  2.72 -2.20 11.17
Si -2.72  2.20 -11.17
Si -4.80 -9.88  4.30
Si  4.80  9.88 -4.30
Si -4.78 -9.91 -4.30
Si  4.78  9.91  4.30
Si  4.49  5.56 -9.44
Si -4.49 -5.56  9.44
Si -7.07 -1.16  9.44
Si  7.07  1.16 -9.44
Si -6.00 -8.29  6.00
Si  6.00  8.29 -6.00
Si -11.40  2.16  2.57
Si 11.40 -2.16 -2.57
Si -10.58 -3.32 -4.30
Si 10.58  3.32  4.30
Si -5.67 -10.42  0.87
Si  5.67 10.42 -0.87
Si 10.77 -4.36 -2.57
Si -10.77  4.36  2.57
Si 10.60  3.28 -4.30
Si -10.60 -3.28  4.30
Si  3.66 11.04 -2.57
Si -3.66 -11.04  2.57
Si  8.02  7.68 -4.30
Si -8.02 -7.68  4.30
Si -7.99 -7.71 -4.30
Si  7.99  7.71  4.30
Si -9.08 -0.54  7.74
Si  9.08  0.54 -7.74
Si  3.72 -2.20 -11.17
Si -3.72  2.20 11.17
Si  4.35  0.00 -11.17
Si -4.35 -0.00 11.17
Si  5.88 -10.42  0.87
Si -5.88 10.42 -0.87
Si -4.05 11.04 -2.57
Si  4.05 -11.04  2.57
