500
set: 1629.00  0.00  0.00
Si  0.45 -0.45 -1.00
Si -0.45  0.45  1.00
Si -1.30 -1.30 -2.32
Si  1.30  1.30  2.32
Si  1.30  1.30 -2.32
Si -1.30 -1.30  2.32
Si  2.16 -2.16 -1.00
Si -2.16  2.16  1.00
Si -3.06 -2.16 -1.00
Si  3.06  2.16  1.00
Si  2.16  3.06 -1.00
Si -2.16 -3.06  1.00
Si -0.45  2.16 -3.64
Si  0.45 -2.16  3.64
Si -2.16  0.45 -3.64
Si  2.16 -0.45  3.64
Si -3.06  3.06 -1.00
Si  3.06 -3.06  1.00
Si  1.30 -3.91 -2.32
Si -1.30  3.91  2.32
Si -3.91  1.30 -2.32
Si  3.91 -1.30  2.32
Si -1.30  3.91 -2.32
Si  1.30 -3.91  2.32
Si  3.91 -1.30 -2.32
Si -3.91  1.30  2.32
Si  3.06  0.45 -3.64
Si -3.06 -0.45  3.64
Si -0.45 -3.06 -3.64
Si  0.45  3.06  3.64
Si -4.77 -0.45 -1.00
Si  4.77  0.45  1.00
Si  0.45  4.77 -1.00
Si -0.45 -4.77  1.00
Si  0.45 -5.67 -1.00
Si -0.45  5.67  1.00
Si  5.67 -0.45 -1.00
Si -5.67  0.45  1.00
Si -3.91 -3.91 -2.32
Si  3.91  3.91  2.32
Si  3.91  3.91 -2.32
Si -3.91 -3.91  2.32
Si  0.45 -2.16 -5.64
Si -0.45  2.16  5.64
Si  2.16 -0.45 -5.64
Si -2.16  0.45  5.64
Si -2.16 -4.77 -3.64
Si  2.16  4.77  3.64
Si  4.77  2.16 -3.64
Si -4.77 -2.16  3.64
Si -3.06 -0.45 -5.64
Si  3.06  0.45  5.64
Si  0.45  3.06 -5.64
Si -0.45 -3.06  5.64
Si  3.06 -4.77 -3.64
Si -3.06  4.77  3.64
Si  4.77 -3.06 -3.64
Si -4.77  3.06  3.64
Si -4.77  4.77 -1.00
Si  4.77 -4.77  1.00
Si -1.30 -6.52 -2.32
Si  1.30  6.52  2.32
Si -6.52 -1.30 -2.32
Si  6.52  1.30  2.32
Si  6.52  1.30 -2.32
Si -6.52 -1.30  2.32
Si  1.30  6.52 -2.32
Si -1.30 -6.52  2.32
Si -5.67  2.16 -3.64
Si  5.67 -2.16  3.64
Si -2.16  5.67 -3.64
Si  2.16 -5.67  3.64
Si  1.30  1.30 -6.96
Si -1.30 -1.30  6.96
Si -1.30 -1.30 -6.96
Si  1.30  1.30  6.96
Si  3.06  5.67 -3.64
Si -3.06 -5.67  3.64
Si -5.67 -3.06 -3.64
Si  5.67  3.06  3.64
Si -4.77 -5.67 -1.00
Si  4.77  5.67  1.00
Si  5.67  4.77 -1.00
Si -5.67 -4.77  1.00
Si -4.77 -2.16 -5.64
Si  4.77  2.16  5.64
Si  2.16  4.77 -5.64
Si -2.16 -4.77  5.64
Si  2.16 -7.37 -1.00
Si -2.16  7.37  1.00
Si  7.38 -2.16 -1.00
Si -7.38  2.16  1.00
Si  6.52 -3.91 -2.32
Si -6.52  3.91  2.32
Si  3.91 -6.52 -2.32
Si -3.91  6.52  2.32
Si -6.52  3.91 -2.32
Si  6.52 -3.91  2.32
Si -3.91  6.52 -2.32
Si  3.91 -6.52  2.32
Si -3.06  4.77 -5.64
Si  3.06 -4.77  5.64
Si -4.77  3.06 -5.64
Si  4.77 -3.06  5.64
Si -3.06 -7.37 -1.00
Si  3.06  7.37  1.00
Si  7.38  3.06 -1.00
Si -7.38 -3.06  1.00
Si  5.67 -5.67 -1.00
Si -5.67  5.67  1.00
Si -3.91  1.30 -6.96
Si  3.91 -1.30  6.96
Si -1.30  3.91 -6.96
Si  1.30 -3.91  6.96
Si  1.30 -3.91 -6.96
Si -1.30  3.91  6.96
Si  3.91 -1.30 -6.96
Si -3.91  1.30  6.96
Si -0.45  7.37 -3.64
Si  0.45 -7.37  3.64
Si -7.38  0.45 -3.64
Si  7.38 -0.45  3.64
Si  5.67 -2.16 -5.64
Si -5.67  2.16  5.64
Si  2.16 -5.67 -5.64
Si -2.16  5.67  5.64
Si -0.45  0.45 -8.28
Si  0.45 -0.45  8.28
Si -3.06 -5.67 -5.64
Si  3.06  5.67  5.64
Si  5.67  3.06 -5.64
Si -5.67 -3.06  5.64
Si -8.27 -2.16 -1.00
Si  8.27  2.16  1.00
Si  2.16  8.27 -1.00
Si -2.16 -8.27  1.00
Si -2.16  2.16 -8.28
Si  2.16 -2.16  8.28
Si -8.27  3.06 -1.00
Si  8.27 -3.06  1.00
Si -3.06  8.27 -1.00
Si  3.06 -8.27  1.00
Si -3.91 -3.91 -6.96
Si  3.91  3.91  6.96
Si  3.91  3.91 -6.96
Si -3.91 -3.91  6.96
Si  8.27  0.45 -3.64
Si -8.27 -0.45  3.64
Si -0.45 -8.27 -3.64
Si  0.45  8.27  3.64
Si  3.06  2.16 -8.28
Si -3.06 -2.16  8.28
Si -2.16 -3.06 -8.28
Si  2.16  3.06  8.28
Si  0.45 -7.37 -5.64
Si -0.45  7.37  5.64
Si  7.38 -0.45 -5.64
Si -7.38  0.45  5.64
Si  3.06 -3.06 -8.28
Si -3.06  3.06  8.28
Si  4.77  7.37 -3.64
Si -4.77 -7.37  3.64
Si -7.38 -4.77 -3.64
Si  7.38  4.77  3.64
Si  1.30 -9.13 -2.32
Si -1.30  9.13  2.32
Si -6.52 -6.52 -2.32
Si  6.52  6.52  2.32
Si  6.52  6.52 -2.32
Si -6.52 -6.52  2.32
Si -1.30  9.13 -2.32
Si  1.30 -9.13  2.32
Si -9.13  1.30 -2.32
Si  9.13 -1.30  2.32
Si  9.13 -1.30 -2.32
Si -9.13  1.30  2.32
Si -0.45 -4.77 -8.28
Si  0.45  4.77  8.28
Si  4.77  0.45 -8.28
Si -4.77 -0.45  8.28
Si  1.30  6.52 -6.96
Si -1.30 -6.52  6.96
Si  6.52  1.30 -6.96
Si -6.52 -1.30  6.96
Si -6.52 -1.30 -6.96
Si  6.52  1.30  6.96
Si -1.30 -6.52 -6.96
Si  1.30  6.52  6.96
Si -5.67  7.37 -3.64
Si  5.67 -7.37  3.64
Si -7.38  5.67 -3.64
Si  7.38 -5.67  3.64
Si -8.27 -0.45 -5.64
Si  8.27  0.45  5.64
Si  0.45  8.27 -5.64
Si -0.45 -8.27  5.64
Si -0.45  5.67 -8.28
Si  0.45 -5.67  8.28
Si -5.67  0.45 -8.28
Si  5.67 -0.45  8.28
Si -9.98 -0.45 -1.00
Si  9.98  0.45  1.00
Si  0.45  9.98 -1.00
Si -0.45 -9.98  1.00
Si -3.91 -9.13 -2.32
Si  3.91  9.13  2.32
Si -9.13 -3.91 -2.32
Si  9.13  3.91  2.32
Si  3.91  9.13 -2.32
Si -3.91 -9.13  2.32
Si  9.13  3.91 -2.32
Si -9.13 -3.91  2.32
Si  8.27 -4.77 -3.64
Si -8.27  4.77  3.64
Si  4.77 -8.27 -3.64
Si -4.77  8.27  3.64
Si  0.45 -0.45 -10.28
Si -0.45  0.45 10.28
Si -3.91  6.52 -6.96
Si  3.91 -6.52  6.96
Si -6.52  3.91 -6.96
Si  6.52 -3.91  6.96
Si  6.52 -3.91 -6.96
Si -6.52  3.91  6.96
Si  3.91 -6.52 -6.96
Si -3.91  6.52  6.96
Si -4.77 -7.37 -5.64
Si  4.77  7.37  5.64
Si  7.38  4.77 -5.64
Si -7.38 -4.77  5.64
Si  7.38 -7.37 -1.00
Si -7.38  7.37  1.00
Si -5.67 -8.27 -3.64
Si  5.67  8.27  3.64
Si  8.27  5.67 -3.64
Si -8.27 -5.67  3.64
Si  4.77 -4.77 -8.28
Si -4.77  4.77  8.28
Si  2.16 -2.16 -10.28
Si -2.16  2.16 10.28
Si -2.16 -9.98 -3.64
Si  2.16  9.98  3.64
Si  9.98  2.16 -3.64
Si -9.98 -2.16  3.64
Si  5.67 -7.37 -5.64
Si -5.67  7.37  5.64
Si  7.38 -5.67 -5.64
Si -7.38  5.67  5.64
Si  0.45 -10.88 -1.00
Si -0.45 10.88  1.00
Si 10.88 -0.45 -1.00
Si -10.88  0.45  1.00
Si -3.06 -2.16 -10.28
Si  3.06  2.16 10.28
Si  2.16  3.06 -10.28
Si -2.16 -3.06 10.28
Si  3.06 -9.98 -3.64
Si -3.06  9.98  3.64
Si  9.98 -3.06 -3.64
Si -9.98  3.06  3.64
Si -8.27  4.77 -5.64
Si  8.27 -4.77  5.64
Si -4.77  8.27 -5.64
Si  4.77 -8.27  5.64
Si -5.67 -4.77 -8.28
Si  5.67  4.77  8.28
Si  4.77  5.67 -8.28
Si -4.77 -5.67  8.28
Si -4.77  9.98 -1.00
Si  4.77 -9.98  1.00
Si -9.98  4.77 -1.00
Si  9.98 -4.77  1.00
Si -8.27 -7.37 -1.00
Si  8.27  7.37  1.00
Si  7.38  8.27 -1.00
Si -7.38 -8.27  1.00
Si -3.06  3.06 -10.28
Si  3.06 -3.06 10.28
Si -2.16  7.37 -8.28
Si  2.16 -7.37  8.28
Si -7.38  2.16 -8.28
Si  7.38 -2.16  8.28
Si -4.77 -0.45 -10.28
Si  4.77  0.45 10.28
Si  0.45  4.77 -10.28
Si -0.45 -4.77 10.28
Si  6.52 -9.13 -2.32
Si -6.52  9.13  2.32
Si -6.52  9.13 -2.32
Si  6.52 -9.13  2.32
Si  9.13 -6.52 -2.32
Si -9.13  6.52  2.32
Si -9.13  6.52 -2.32
Si  9.13 -6.52  2.32
Si  3.06  7.37 -8.28
Si -3.06 -7.37  8.28
Si -7.38 -3.06 -8.28
Si  7.38  3.06  8.28
Si -8.27 -5.67 -5.64
Si  8.27  5.67  5.64
Si  5.67  8.27 -5.64
Si -5.67 -8.27  5.64
Si -5.67  5.67 -8.28
Si  5.67 -5.67  8.28
Si -9.98 -5.67 -1.00
Si  9.98  5.67  1.00
Si  5.67  9.98 -1.00
Si -5.67 -9.98  1.00
Si  6.52  6.52 -6.96
Si -6.52 -6.52  6.96
Si -1.30  9.13 -6.96
Si  1.30 -9.13  6.96
Si -9.13  1.30 -6.96
Si  9.13 -1.30  6.96
Si -6.52 -6.52 -6.96
Si  6.52  6.52  6.96
Si  1.30 -9.13 -6.96
Si -1.30  9.13  6.96
Si  9.13 -1.30 -6.96
Si -9.13  1.30  6.96
Si -9.98 -2.16 -5.64
Si  9.98  2.16  5.64
Si  2.16  9.98 -5.64
Si -2.16 -9.98  5.64
Si -10.88  2.16 -3.64
Si 10.88 -2.16  3.64
Si -2.16 10.88 -3.64
Si  2.16 -10.88  3.64
Si -8.27  8.27 -1.00
Si  8.27 -8.27  1.00
Si  1.30  1.30 -11.60
Si -1.30 -1.30 11.60
Si -1.30 -1.30 -11.60
Si  1.30  1.30 11.60
Si  0.45 -5.67 -10.28
Si -0.45  5.67 10.28
Si  5.67 -0.45 -10.28
Si -5.67  0.45 10.28
Si -3.06  9.98 -5.64
Si  3.06 -9.98  5.64
Si -9.98  3.06 -5.64
Si  9.98 -3.06  5.64
Si  3.06 10.88 -3.64
Si -3.06 -10.88  3.64
Si -10.88 -3.06 -3.64
Si 10.88  3.06  3.64
Si  8.27  2.16 -8.28
Si -8.27 -2.16  8.28
Si -2.16 -8.27 -8.28
Si  2.16  8.27  8.28
Si -4.77 -10.88 -1.00
Si  4.77 10.88  1.00
Si 10.88  4.77 -1.00
Si -10.88 -4.77  1.00
Si -1.30 -11.74 -2.32
Si  1.30 11.74  2.32
Si -11.74 -1.30 -2.32
Si 11.74  1.30  2.32
Si 11.74  1.30 -2.32
Si -11.74 -1.30  2.32
Si  1.30 11.74 -2.32
Si -1.30 -11.74  2.32
Si  8.27 -3.06 -8.28
Si -8.27  3.06  8.28
Si  3.06 -8.27 -8.28
Si -3.06  8.27  8.28
Si  3.91  9.13 -6.96
Si -3.91 -9.13  6.96
Si -9.13 -3.91 -6.96
Si  9.13  3.91  6.96
Si -3.91 -9.13 -6.96
Si  3.91  9.13  6.96
Si  9.13  3.91 -6.96
Si -9.13 -3.91  6.96
Si -4.77  4.77 -10.28
Si  4.77 -4.77 10.28
Si  5.67 -10.88 -1.00
Si -5.67 10.88  1.00
Si 10.88 -5.67 -1.00
Si -10.88  5.67  1.00
Si  1.30 -3.91 -11.60
Si -1.30  3.91 11.60
Si -3.91  1.30 -11.60
Si  3.91 -1.30 11.60
Si -1.30  3.91 -11.60
Si  1.30 -3.91 11.60
Si  3.91 -1.30 -11.60
Si -3.91  1.30 11.60
Si  2.16 -10.88 -5.64
Si -2.16 10.88  5.64
Si 10.88 -2.16 -5.64
Si -10.88  2.16  5.64
Si  3.91 -11.74 -2.32
Si -3.91 11.74  2.32
Si 11.74 -3.91 -2.32
Si -11.74  3.91  2.32
Si -11.74  3.91 -2.32
Si 11.74 -3.91  2.32
Si -3.91 11.74 -2.32
Si  3.91 -11.74  2.32
Si -3.06 -10.88 -5.64
Si  3.06 10.88  5.64
Si 10.88  3.06 -5.64
Si -10.88 -3.06  5.64
Si -4.77 -5.67 -10.28
Si  4.77  5.67 10.28
Si  5.67  4.77 -10.28
Si -5.67 -4.77 10.28
Si  2.16 -12.59 -1.00
Si -2.16 12.59  1.00
Si 12.59 -2.16 -1.00
Si -12.59  2.16  1.00
Si  2.16 -7.37 -10.28
Si -2.16  7.37 10.28
Si  7.38 -2.16 -10.28
Si -7.38  2.16 10.28
Si -3.91 -3.91 -11.60
Si  3.91  3.91 11.60
Si  3.91  3.91 -11.60
Si -3.91 -3.91 11.60
Si -7.38 -9.98 -3.64
Si  7.38  9.98  3.64
Si  9.98  7.37 -3.64
Si -9.98 -7.37  3.64
Si -0.45 -9.98 -8.28
Si  0.45  9.98  8.28
Si  9.98  0.45 -8.28
Si -9.98 -0.45  8.28
Si -3.06 -12.59 -1.00
Si  3.06 12.59  1.00
Si 12.59  3.06 -1.00
Si -12.59 -3.06  1.00
Si -3.06 -7.37 -10.28
Si  3.06  7.37 10.28
Si  7.38  3.06 -10.28
Si -7.38 -3.06 10.28
Si  5.67 -5.67 -10.28
Si -5.67  5.67 10.28
Si -2.16  0.45 -12.92
Si  2.16 -0.45 12.92
Si -0.45  2.16 -12.92
Si  0.45 -2.16 12.92
Si -0.45 12.59 -3.64
Si  0.45 -12.59  3.64
Si -12.59  0.45 -3.64
Si 12.59 -0.45  3.64
Si -9.13 -9.13 -2.32
Si  9.13  9.13  2.32
Si  9.13  9.13 -2.32
Si -9.13 -9.13  2.32
Si -6.52  9.13 -6.96
Si  6.52 -9.13  6.96
Si -9.13  6.52 -6.96
Si  9.13 -6.52  6.96
Si  6.52 -9.13 -6.96
Si -6.52  9.13  6.96
Si  9.13 -6.52 -6.96
Si -9.13  6.52  6.96
Si  3.06  0.45 -12.92
Si -3.06 -0.45 12.92
Si -0.45 -3.06 -12.92
Si  0.45  3.06 12.92
Si -7.38  7.37 -8.28
Si  7.38 -7.37  8.28
Si -6.52 -1.30 -11.60
Si  6.52  1.30 11.60
Si -1.30 -6.52 -11.60
Si  1.30  6.52 11.60
Si  1.30  6.52 -11.60
Si  6.52  1.30 -11.60
Si -1.30 -6.52 11.60
Si -6.52 -1.30 11.60
Si -8.27 -2.16 -10.28
Si  8.27  2.16 10.28
Si  2.16  8.27 -10.28
Si -2.16 -8.27 10.28
Si  8.27 -9.98 -3.64
Si -8.27  9.98  3.64
Si  9.98 -8.27 -3.64
Si -9.98  8.27  3.64
Si -8.27  3.06 -10.28
Si  8.27 -3.06 10.28
Si -3.06  8.27 -10.28
Si  3.06 -8.27 10.28
Si -6.52 -11.74 -2.32
Si  6.52 11.74  2.32
Si -11.74 -6.52 -2.32
Si 11.74  6.52  2.32
Si 11.74  6.52 -2.32
Si -11.74 -6.52  2.32
Si  6.52 11.74 -2.32
Si -6.52 -11.74  2.32
Si -9.98 -7.37 -5.64
Si  9.98  7.37  5.64
Si  7.38  9.98 -5.64
Si -7.38 -9.98  5.64
Si -10.88  7.37 -3.64
Si 10.88 -7.37  3.64
Si -7.38 10.88 -3.64
Si  7.38 -10.88  3.64
