500
set: 638.00  0.00  0.00
Si  0.39 -0.90  0.80
Si -0.39  0.90 -0.80
Si  1.68  1.19  0.80
Si -1.68 -1.19 -0.80
Si  2.08 -1.19 -0.80
Si -2.08  1.19  0.80
Si  1.26  0.02 -2.69
Si -1.26 -0.02  2.69
Si -0.89 -2.98  0.80
Si  0.89  2.98 -0.80
Si  0.03  2.06  2.69
Si -0.03 -2.06 -2.69
Si  0.79 -3.27 -0.80
Si -0.79  3.27  0.80
Si  3.37  0.90 -0.80
Si -3.37 -0.90  0.80
Si  1.21 -2.11  2.69
Si -1.21  2.11 -2.69
Si -2.50  0.02 -2.69
Si  2.50 -0.02  2.69
Si -2.86  2.98 -0.80
Si  2.86 -2.98  0.80
Si  2.54  2.11 -2.69
Si -2.54 -2.11  2.69
Si -4.15  0.90 -0.80
Si  4.15 -0.90  0.80
Si -0.81 -0.26 -4.29
Si  0.81  0.26  4.29
Si  2.96  3.27  0.80
Si -2.96 -3.27 -0.80
Si -0.47 -1.82  4.29
Si  0.47  1.82 -4.29
Si  0.07  4.19 -2.69
Si -0.07 -4.19  2.69
Si -3.73  2.06  2.69
Si  3.73 -2.06 -2.69
Si -3.79 -2.06 -2.69
Si  3.79  2.06  2.69
Si  1.31  4.15  2.69
Si -1.31 -4.15 -2.69
Si -1.66  2.35  4.29
Si  1.66 -2.35 -4.29
Si -2.95  0.26  4.29
Si  2.95 -0.26 -4.29
Si -2.10 -2.35 -4.29
Si  2.10  2.35  4.29
Si  1.58 -5.07  0.80
Si -1.58  5.07 -0.80
Si -0.49 -5.36 -0.80
Si  0.49  5.36  0.80
Si  2.44 -4.15 -2.69
Si -2.44  4.15  2.69
Si -2.18 -5.07  0.80
Si  2.18  5.07 -0.80
Si  4.65  2.98 -0.80
Si -4.65 -2.98  0.80
Si  5.44  1.19  0.80
Si -5.44 -1.19 -0.80
Si  4.55 -3.27 -0.80
Si -4.55  3.27  0.80
Si  5.02  0.02 -2.69
Si -5.02 -0.02  2.69
Si -3.28  1.82 -4.29
Si  3.28 -1.82  4.29
Si  5.84 -1.19 -0.80
Si -5.84  1.19  0.80
Si -4.97  2.11 -2.69
Si  4.97 -2.11  2.69
Si -1.76 -3.91  4.29
Si  1.76  3.91 -4.29
Si  2.00 -3.91  4.29
Si -2.00  3.91 -4.29
Si -0.37  4.43  4.29
Si  0.37 -4.43 -4.29
Si -3.69  4.19 -2.69
Si  3.69 -4.19  2.69
Si  4.57  0.26  4.29
Si -4.57 -0.26 -4.29
Si -3.83 -4.19  2.69
Si  3.83  4.19 -2.69
Si  4.23  1.82 -4.29
Si -4.23 -1.82  4.29
Si  3.27 -5.36 -0.80
Si -3.27  5.36  0.80
Si  0.84 -1.14 -6.17
Si -0.84  1.14  6.17
Si  1.63 -0.95  6.17
Si -1.63  0.95 -6.17
Si -2.12 -0.95  6.17
Si  2.12  0.95 -6.17
Si -6.26  0.02 -2.69
Si  6.26 -0.02  2.69
Si -4.25 -5.36 -0.80
Si  4.25  5.36  0.80
Si -0.35  3.03 -6.17
Si  0.35 -3.03  6.17
Si  1.16 -6.23 -2.69
Si -1.16  6.23  2.69
Si  2.92  1.14  6.17
Si -2.92 -1.14 -6.17
Si -1.36 -6.28  2.69
Si  1.36  6.28 -2.69
Si  0.45  3.23  6.17
Si -0.45 -3.23 -6.17
Si -3.38 -4.43 -4.29
Si  3.38  4.43  4.29
Si -5.07 -4.15 -2.69
Si  5.07  4.15  2.69
Si  6.30  2.11 -2.69
Si -6.30 -2.11  2.69
Si -0.29  7.16 -0.80
Si  0.29 -7.16  0.80
Si  7.12  0.90 -0.80
Si -7.12 -0.90  0.80
Si -2.40  6.28 -2.69
Si  2.40 -6.28  2.69
Si  2.60  6.23  2.69
Si -2.60 -6.23 -2.69
Si  5.42 -2.35 -4.29
Si -5.42  2.35  4.29
Si  6.62 -2.98  0.80
Si -6.62  2.98 -0.80
Si  0.71 -5.99  4.29
Si -0.71  5.99 -4.29
Si  5.33 -5.07  0.80
Si -5.33  5.07 -0.80
Si -4.13  4.43  4.29
Si  4.13 -4.43 -4.29
Si  6.72  3.27  0.80
Si -6.72 -3.27 -0.80
Si  5.86  2.35  4.29
Si -5.86 -2.35 -4.29
Si -3.41 -3.03  6.17
Si  3.41  3.03 -6.17
Si -1.78 -7.44 -0.80
Si  1.78  7.44  0.80
Si  3.31 -3.23 -6.17
Si -3.31  3.23  6.17
Si  1.98 -7.44 -0.80
Si -1.98  7.44  0.80
Si -4.60  1.14  6.17
Si  4.60 -1.14 -6.17
Si -0.06 -0.66  7.77
Si  0.06  0.66 -7.77
Si  5.94  5.07 -0.80
Si -5.94 -5.07  0.80
Si  0.91  6.52  4.29
Si -0.91 -6.52 -4.29
Si  6.20 -4.15 -2.69
Si -6.20  4.15  2.69
Si -6.70  0.26  4.29
Si  6.70 -0.26 -4.29
Si -3.05 -5.99  4.29
Si  3.05  5.99 -4.29
Si -3.47 -7.16  0.80
Si  3.47  7.16 -0.80
Si  7.91 -0.90  0.80
Si -7.91  0.90 -0.80
Si  1.23  1.43  7.77
Si -1.23 -1.43 -7.77
Si  5.52  3.91 -4.29
Si -5.52 -3.91  4.29
Si  4.10 -3.03  6.17
Si -4.10  3.03 -6.17
Si  0.94  5.12 -6.17
Si -0.94 -5.12  6.17
Si  4.21  3.23  6.17
Si -4.21 -3.23 -6.17
Si -5.75  3.91 -4.29
Si  5.75 -3.91  4.29
Si -7.49  2.06  2.69
Si  7.49 -2.06 -2.69
Si -5.39  0.95 -6.17
Si  5.39 -0.95  6.17
Si -4.05  7.16 -0.80
Si  4.05 -7.16  0.80
Si  7.54  2.06  2.69
Si -7.54 -2.06 -2.69
Si  2.53 -1.43 -7.77
Si -2.53  1.43  7.77
Si -2.85  6.52  4.29
Si  2.85 -6.52 -4.29
Si -1.73 -5.31 -6.17
Si  1.73  5.31  6.17
Si  1.34  2.75 -7.77
Si -1.34 -2.75  7.77
Si  4.92 -6.23 -2.69
Si -4.92  6.23  2.69
Si  2.02 -5.31 -6.17
Si -2.02  5.31  6.17
Si  7.04 -1.82  4.29
Si -7.04  1.82 -4.29
Si  2.82 -5.12  6.17
Si -2.82  5.12 -6.17
Si  5.12  6.28 -2.69
Si -5.12 -6.28  2.69
Si -5.88 -0.95  6.17
Si  5.88  0.95 -6.17
Si -2.42  2.75 -7.77
Si  2.42 -2.75  7.77
Si  4.47 -5.99  4.29
Si -4.47  5.99 -4.29
Si  1.24 -3.51 -7.77
Si -1.24  3.51  7.77
Si  3.70 -0.66  7.77
Si -3.70  0.66 -7.77
Si -3.81 -0.66  7.77
Si  3.81  0.66 -7.77
Si -0.13 -8.32 -2.69
Si  0.13  8.32  2.69
Si -1.11  8.36 -2.69
Si  1.11 -8.36  2.69
Si -7.02  5.36  0.80
Si  7.02 -5.36 -0.80
Si  2.52  3.51  7.77
Si -2.52 -3.51 -7.77
Si -7.44  4.19 -2.69
Si  7.44 -4.19  2.69
Si  8.41  2.98 -0.80
Si -8.41 -2.98  0.80
Si -8.31  3.27  0.80
Si  8.31 -3.27 -0.80
Si -7.59 -4.19  2.69
Si  7.59  4.19 -2.69
Si -4.67 -6.52 -4.29
Si  4.67  6.52  4.29
Si -6.68 -1.14 -6.17
Si  6.68  1.14  6.17
Si  0.57  8.08 -4.29
Si -0.57 -8.08  4.29
Si  2.65  8.36 -2.69
Si -2.65 -8.36  2.69
Si -8.77 -0.02  2.69
Si  8.77  0.02 -2.69
Si -6.16  6.28 -2.69
Si  6.16 -6.28  2.69
Si  1.13 -4.83  7.77
Si -1.13  4.83 -7.77
Si -7.99 -1.82  4.29
Si  7.99  1.82 -4.29
Si -4.70 -5.12  6.17
Si  4.70  5.12 -6.17
Si -6.36 -6.23 -2.69
Si  6.36  6.23  2.69
Si  9.19  1.19  0.80
Si -9.19 -1.19 -0.80
Si -5.54 -7.44 -0.80
Si  5.54  7.44  0.80
Si  0.99  9.24 -0.80
Si -0.99 -9.24  0.80
Si  4.99  1.43  7.77
Si -4.99 -1.43 -7.77
Si -8.33 -0.26 -4.29
Si  8.33  0.26  4.29
Si -8.73  2.11 -2.69
Si  8.73 -2.11  2.69
Si  5.74 -7.44 -0.80
Si -5.74  7.44  0.80
Si -7.14 -4.43 -4.29
Si  7.14  4.43  4.29
Si  3.63 -8.32 -2.69
Si -3.63  8.32  2.69
Si -2.63 -4.83  7.77
Si  2.63  4.83 -7.77
Si  3.89  8.32  2.69
Si -3.89 -8.32 -2.69
Si -0.05 -5.59 -7.77
Si  0.05  5.59  7.77
Si -0.69  9.53  0.80
Si  0.69 -9.53 -0.80
Si -1.53  7.20 -6.17
Si  1.53 -7.20  6.17
Si -0.74  7.39  6.17
Si  0.74 -7.39 -6.17
Si  8.01  5.36  0.80
Si -8.01 -5.36 -0.80
Si  2.76 -9.24  0.80
Si -2.76  9.24 -0.80
Si  3.18 -8.08  4.29
Si -3.18  8.08 -4.29
Si -5.10 -2.75  7.77
Si  5.10  2.75 -7.77
Si -9.60  1.19  0.80
Si  9.60 -1.19 -0.80
Si -1.56  8.60  4.29
Si  1.56 -8.60 -4.29
Si -2.23 -7.20  6.17
Si  2.23  7.20 -6.17
Si  1.71 -0.22 -9.66
Si -1.71  0.22  9.66
Si -5.49 -5.31 -6.17
Si  5.49  5.31  6.17
Si  2.20  8.60  4.29
Si -2.20 -8.60 -4.29
Si -0.77  1.87 -9.66
Si  0.77 -1.87  9.66
Si -2.05 -0.22 -9.66
Si  2.05  0.22  9.66
Si -5.00  3.51  7.77
Si  5.00 -3.51 -7.77
Si  7.07 -3.23 -6.17
Si -7.07  3.23  6.17
Si -7.17 -3.03  6.17
Si  7.17  3.03 -6.17
Si  0.42 -2.30 -9.66
Si -0.42  2.30  9.66
Si  5.78 -5.31 -6.17
Si -5.78  5.31  6.17
Si -7.89  4.43  4.29
Si  7.89 -4.43 -4.29
Si -6.80 -5.99  4.29
Si  6.80  5.99 -4.29
Si -3.06 -9.53 -0.80
Si  3.06  9.53  0.80
Si -4.87  8.36 -2.69
Si  4.87 -8.36  2.69
Si -3.02 -7.39 -6.17
Si  3.02  7.39  6.17
Si -6.28  1.43  7.77
Si  6.28 -1.43 -7.77
Si  8.83  4.15  2.69
Si -8.83 -4.15 -2.69
Si -4.33 -8.08  4.29
Si  4.33  8.08 -4.29
Si  7.22  7.16 -0.80
Si -7.22 -7.16  0.80
Si -6.60  6.52  4.29
Si  6.60 -6.52 -4.29
Si -3.71  5.59  7.77
Si  3.71 -5.59 -7.77
Si -2.99 -1.87  9.66
Si  2.99  1.87 -9.66
Si -6.17  2.75 -7.77
Si  6.17 -2.75  7.77
Si  3.80  5.59  7.77
Si -3.80 -5.59 -7.77
Si  6.58 -5.12  6.17
Si -6.58  5.12 -6.17
Si 10.02 -0.02  2.69
Si -10.02  0.02 -2.69
Si  4.89 -4.83  7.77
Si -4.89  4.83 -7.77
Si -9.18  2.35  4.29
Si  9.18 -2.35 -4.29
Si  0.16  6.92 -7.77
Si -0.16 -6.92  7.77
Si -4.75 -9.24  0.80
Si  4.75  9.24 -0.80
Si  9.09 -5.07  0.80
Si -9.09  5.07 -0.80
Si -7.86  3.03 -6.17
Si  7.86 -3.03  6.17
Si  0.52  3.95 -9.66
Si -0.52 -3.95  9.66
Si  8.35 -1.14 -6.17
Si -8.35  1.14  6.17
Si -3.34 -2.30 -9.66
Si  3.34  2.30  9.66
Si  4.45 -9.53 -0.80
Si -4.45  9.53  0.80
Si  7.96  3.23  6.17
Si -7.96 -3.23 -6.17
Si  6.28  3.51  7.77
Si -6.28 -3.51 -7.77
Si -7.81  7.16 -0.80
Si  7.81 -7.16  0.80
Si -10.06 -2.11  2.69
Si 10.06  2.11 -2.69
Si  4.50 -7.39 -6.17
Si -4.50  7.39  6.17
Si -0.87 -4.39 -9.66
Si  0.87  4.39  9.66
Si -4.18  2.30  9.66
Si  4.18 -2.30 -9.66
Si  9.61  2.35  4.29
Si -9.61 -2.35 -4.29
Si  0.17 10.45 -2.69
Si -0.17 -10.45  2.69
Si -7.46  0.66 -7.77
Si  7.46 -0.66  7.77
Si  4.52 -1.87  9.66
Si -4.52  1.87 -9.66
Si -10.38  2.98 -0.80
Si 10.38 -2.98  0.80
Si  1.41 10.40  2.69
Si -1.41 -10.40 -2.69
Si -5.29  7.20 -6.17
Si  5.29 -7.20  6.17
Si -6.40 -8.36  2.69
Si  6.40  8.36 -2.69
Si -7.57 -0.66  7.77
Si  7.57  0.66 -7.77
Si  3.24 -3.95  9.66
Si -3.24  3.95 -9.66
Si -9.28 -3.91  4.29
Si  9.28  3.91 -4.29
Si 10.88  0.90 -0.80
Si -10.88 -0.90  0.80
Si  9.70  5.07 -0.80
Si -9.70 -5.07  0.80
Si  5.32 -8.60 -4.29
Si -5.32  8.60  4.29
Si -2.89  4.39  9.66
Si  2.89 -4.39 -9.66
Si -2.34 10.40  2.69
Si  2.34 -10.40 -2.69
Si 10.48  3.27  0.80
Si -10.48 -3.27 -0.80
Si  1.33  7.68  7.77
Si -1.33 -7.68 -7.77
Si -3.60  6.92 -7.77
Si  3.60 -6.92  7.77
Si -8.67  6.23  2.69
Si  8.67 -6.23 -2.69
Si  8.23 -5.99  4.29
Si -8.23  5.99 -4.29
Si  9.15 -0.95  6.17
Si -9.15  0.95 -6.17
Si  5.46 -0.22 -9.66
Si -5.46  0.22  9.66
Si  3.91  6.92 -7.77
Si -3.91 -6.92  7.77
Si -9.96  4.15  2.69
Si  9.96 -4.15 -2.69
Si -9.51  3.91 -4.29
Si  9.51 -3.91  4.29
Si -0.25  9.29 -6.17
Si  0.25 -9.29  6.17
Si  6.38  4.83 -7.77
Si -6.38 -4.83  7.77
Si  1.86 10.16 -4.29
Si -1.86 -10.16  4.29
Si  1.90 -10.16  4.29
Si -1.90 10.16 -4.29
Si -2.43  7.68  7.77
Si  2.43 -7.68 -7.77
Si -8.88 -6.28  2.69
Si  8.88  6.28 -2.69
Si -5.98 -7.20  6.17
Si  5.98  7.20 -6.17
Si  5.81  0.22  9.66
Si -5.81 -0.22 -9.66
Si  0.36  0.50 11.26
Si -0.36 -0.50 -11.26
Si  4.28  3.95 -9.66
Si -4.28 -3.95  9.66
Si -5.96 -8.60 -4.29
Si  5.96  8.60  4.29
Si -10.46  0.26  4.29
Si 10.46 -0.26 -4.29
Si  0.55  9.48  6.17
Si -0.55 -9.48 -6.17
Si  6.52 -9.24  0.80
Si -6.52  9.24 -0.80
Si -3.58 10.45 -2.69
Si  3.58 -10.45  2.69
Si -0.92 -1.58 11.26
Si  0.92  1.58 -11.26
Si -7.39  8.32  2.69
Si  7.39 -8.32 -2.69
Si -1.48 11.33 -0.80
Si  1.48 -11.33  0.80
Si -6.94  8.08 -4.29
Si  6.94 -8.08  4.29
Si -3.93 -10.45  2.69
Si  3.93 10.45 -2.69
Si -8.43 -6.52 -4.29
Si  8.43  6.52  4.29
Si -9.64 -0.95  6.17
Si  9.64  0.95 -6.17
Si -0.27 10.69  4.29
Si  0.27 -10.69 -4.29
Si -1.81 -6.04  9.66
Si  1.81  6.04 -9.66
Si -1.95  6.04 -9.66
Si  1.95 -6.04  9.66
Si  4.62  4.39  9.66
Si -4.62 -4.39 -9.66
Si  2.28 11.33 -0.80
Si -2.28 -11.33  0.80
Si  7.64  8.32  2.69
Si -7.64 -8.32 -2.69
Si  8.46  5.12 -6.17
Si -8.46 -5.12  6.17
Si -0.59 -11.61 -0.80
Si  0.59 11.61  0.80
Si  1.65  2.59 11.26
Si -1.65 -2.59 -11.26
Si -3.51 -9.29  6.17
Si  3.51  9.29 -6.17
Si  2.84 -1.58 11.26
Si -2.84  1.58 -11.26
Si 11.66 -0.90  0.80
Si -11.66  0.90 -0.80
Si -1.60  6.47  9.66
Si  1.60 -6.47 -9.66
Si -6.82 -9.53 -0.80
Si  6.82  9.53  0.80
Si 11.25 -2.06 -2.69
Si -11.25  2.06  2.69
