500
set: 949.00  0.00  0.00
Si  0.43 -1.14  0.81
Si -0.43  1.19 -0.80
Si  1.28  1.14  0.79
Si -1.34 -1.12 -0.81
Si  0.84  0.02 -2.38
Si -2.14  1.10  0.81
Si -0.86 -0.03  2.43
Si  2.17 -1.11 -0.86
Si  0.01 -2.29 -2.38
Si -0.04  2.29  2.42
Si -3.03 -1.16  0.81
Si  3.04  1.15 -0.82
Si  0.47  3.40 -0.80
Si -2.58  0.03 -2.42
Si -0.45 -3.46  0.82
Si  2.61  0.00  2.46
Si -1.75 -2.29  2.40
Si  1.71 -2.28  2.44
Si -1.26  3.44  0.85
Si  1.24 -3.45 -0.81
Si  1.77  2.31 -2.39
Si -1.68  2.33 -2.44
Si  3.84 -1.14  0.79
Si -0.83  0.06 -4.03
Si  0.90 -0.01  4.02
Si -3.88  1.14 -0.80
Si  2.19  3.44  0.82
Si -2.17 -3.50 -0.80
Si  2.98 -3.44  0.80
Si -0.03 -2.28  4.03
Si  0.04  2.36 -4.01
Si -3.02  3.44 -0.82
Si -3.34  2.32  2.40
Si  3.40 -2.32 -2.38
Si  2.57 -0.00 -4.01
Si -2.57 -0.01  4.02
Si  3.44  2.29  2.42
Si -3.44 -2.30 -2.43
Si -4.70 -1.19 -0.80
Si -1.74 -2.29 -4.00
Si -1.73  2.29  4.01
Si  1.72 -2.30 -4.01
Si -4.32 -0.00  2.38
Si  4.31 -0.03 -2.41
Si  4.75  1.11  0.79
Si  1.72  2.33  4.01
Si  3.88  3.45 -0.81
Si -0.87 -4.59 -2.39
Si  0.79 -4.61  2.42
Si -0.79  4.60 -2.43
Si  0.89  4.61  2.40
Si -3.90 -3.46  0.85
Si -5.58  1.11  0.79
Si  3.42 -2.32  4.01
Si  0.40 -1.12 -5.64
Si  2.55 -4.58 -2.42
Si -3.46  2.28 -4.03
Si -2.53  4.61  2.41
Si -0.42  1.16  5.65
Si  3.47  2.27 -4.05
Si -3.52 -2.29  4.01
Si -0.39  5.74  0.81
Si  5.64 -1.19 -0.80
Si  0.40 -5.75 -0.82
Si  2.65  4.62 -2.38
Si -2.68 -4.61  2.42
Si  4.67 -3.46 -0.82
Si  4.33  0.01  3.98
Si  1.29  1.17 -5.62
Si -1.28 -1.09  5.64
Si -4.71  3.46  0.80
Si -4.34  0.02 -4.02
Si -1.36 -5.76  0.79
Si  1.30  5.78 -0.81
Si  2.15 -1.18  5.60
Si -2.05  5.71 -0.80
Si -5.14  2.32 -2.42
Si  5.16 -2.29  2.41
Si -5.17 -2.29  2.41
Si -0.92 -4.58  4.01
Si -2.20  1.16 -5.63
Si  0.90  4.61 -4.00
Si  5.19  2.32 -2.42
Si -0.88  4.62  4.01
Si  0.83 -4.63 -4.05
Si  2.11 -5.79  0.79
Si  6.01 -0.00  2.38
Si -6.02 -0.03 -2.41
Si  3.04  1.15  5.64
Si -3.05 -1.16 -5.64
Si -3.07 -5.71 -0.80
Si  3.07  5.76  0.81
Si -2.56  4.59 -3.98
Si -2.60 -4.54 -4.01
Si  6.46  1.14 -0.80
Si -0.42 -3.46 -5.63
Si  2.54 -4.64  4.01
Si -6.49 -1.14  0.79
Si  0.49  3.51  5.62
Si  5.62  3.46  0.80
Si  2.62  4.62  4.03
Si -5.66 -3.46 -0.82
Si -4.29  4.58 -2.38
Si -1.25  3.44 -5.63
Si  1.25 -3.45  5.64
Si -4.32 -4.57 -2.44
Si  4.35 -4.58  2.40
Si  4.35  4.62  2.44
Si  5.13 -2.31 -3.98
Si -2.15 -3.39  5.62
Si -5.15  2.26  4.01
Si  5.18  2.26  4.01
Si  3.86 -1.19 -5.64
Si -5.20 -2.31 -3.98
Si  3.81 -5.76 -0.80
Si  2.22  3.44 -5.63
Si -3.88  1.14  5.67
Si -3.85  5.76  0.79
Si -6.01  0.01  3.98
Si  5.99  0.02 -4.02
Si -3.02  3.47  5.63
Si  3.00 -3.44 -5.67
Si -0.03 -6.90  2.46
Si  0.06  6.93 -2.42
Si -0.43  1.16 -7.25
Si  6.43 -3.46  0.85
Si  0.45 -1.15  7.26
Si -6.46  3.45 -0.81
Si -7.29  1.15 -0.82
Si -4.27  4.58  4.01
Si  7.30 -1.16  0.81
Si -1.36 -1.16 -7.23
Si  4.23 -4.62 -4.03
Si  4.75  1.13 -5.64
Si -4.78 -1.17  5.62
Si  1.33  1.17  7.26
Si -1.68  6.90  2.38
Si -1.80 -6.88 -2.38
Si  1.78  6.87  2.43
Si  4.37  4.60 -4.01
Si -4.37 -4.61  4.01
Si  1.67 -6.93 -2.41
Si -4.79 -5.80  0.81
Si  4.81  5.79 -0.86
Si -2.12  1.15  7.22
Si  2.11 -1.16 -7.23
Si -6.90  2.29  2.42
Si  6.90 -2.30 -2.43
Si -3.89 -3.46 -5.63
Si  3.89  3.45  5.64
Si -6.93 -2.32 -2.38
Si  6.99  2.32  2.40
Si -3.00 -1.12  7.21
Si  3.03  1.17 -7.21
Si -5.99 -4.58  2.40
Si  6.01 -4.57 -2.44
Si -5.98  4.62  2.44
Si  6.04  4.58 -2.38
Si  0.07  6.89  4.02
Si -0.07 -6.90 -4.01
Si  5.55 -1.17  5.62
Si  0.46  3.42 -7.22
Si -5.59  1.13 -5.64
Si -3.38  6.87 -2.41
Si -5.52  5.79 -0.86
Si  3.37 -6.90  2.38
Si -0.48 -3.43  7.26
Si  0.50  8.00  0.81
Si -0.41  5.74 -5.64
Si  0.40 -5.75  5.64
Si  5.55 -5.80  0.81
Si -0.47 -8.02 -0.86
Si  1.29 -3.45 -7.19
Si  4.67 -3.43  5.63
Si -7.72  0.00  2.46
Si  3.48  6.92 -2.38
Si  7.75  0.03 -2.42
Si -1.26  3.48  7.23
Si  7.31  3.44 -0.82
Si  1.69 -6.89  3.98
Si -4.68  3.46 -5.67
Si -3.50 -6.93  2.43
Si -1.35 -5.73 -5.62
Si -7.36 -3.44  0.80
Si  1.20 -8.04  0.79
Si -1.24  8.04 -0.80
Si -1.70  6.92 -4.02
Si -1.74 -6.92  4.02
Si  1.36  5.81  5.64
Si  6.81 -2.29  4.01
Si  1.81  6.96 -4.03
Si  3.87 -1.13  7.23
Si -3.85  1.16 -7.24
Si -8.16 -1.11 -0.86
Si -6.86  2.27 -4.05
Si  6.88  2.28 -4.03
Si  8.19  1.10  0.81
Si -2.14  5.73  5.62
Si -2.18 -3.48 -7.22
Si -6.91 -2.32  4.01
Si  2.16  3.47  7.26
Si  2.10 -5.77 -5.64
Si -2.22 -8.04  0.81
Si  2.21  8.09 -0.80
Si -5.97  4.60 -4.01
Si  5.96 -4.61  4.01
Si -2.94  8.01  0.79
Si  2.99 -3.48  7.24
Si -3.00  3.45 -7.27
Si  6.07  4.58  4.01
Si -3.06 -5.75  5.65
Si  3.04  5.78 -5.64
Si  3.35 -6.88 -4.02
Si -6.10 -4.62 -4.03
Si -3.36  6.91  3.98
Si  6.45  1.14  5.67
Si  3.00 -8.09 -0.80
Si -3.47 -6.84 -4.03
Si -6.47 -1.19 -5.64
Si -4.67 -1.13 -7.25
Si -5.66 -3.43  5.63
Si  6.48  5.76  0.79
Si  5.65  3.46 -5.67
Si  3.54  6.88  4.02
Si -6.52 -5.76 -0.80
Si -7.76 -0.00 -4.01
Si  4.72  1.13  7.27
Si  7.76 -0.01  4.02
Si  0.87 -0.01 -8.83
Si -8.14  3.44  0.82
Si -0.85 -0.05  8.85
Si  3.94  3.45 -7.19
Si -3.83  5.71 -5.64
Si  5.11 -6.87 -2.42
Si -3.90 -3.42  7.23
Si -5.08  6.90  2.46
Si  8.16 -3.50 -0.80
Si  3.81 -5.76  5.67
Si -5.22 -6.87 -2.42
Si  3.92  8.04  0.79
Si -3.98 -8.03 -0.81
Si  5.26  6.90  2.46
Si  8.99 -1.12 -0.81
Si -0.02  2.33  8.84
Si -0.04 -2.31 -8.86
Si -9.05  1.14  0.79
Si -2.58 -0.01 -8.80
Si -8.56  2.31 -2.39
Si  2.56 -0.00  8.83
Si  8.58 -2.29  2.40
Si  0.39 -5.73 -7.21
Si  6.44 -3.46 -5.63
Si -6.44  3.45  5.64
Si -8.62 -2.28  2.44
Si -0.36  5.78  7.21
Si -5.61  1.13  7.27
Si  7.66 -4.61  2.42
Si  5.67 -1.13 -7.25
Si  7.26 -5.71 -0.80
Si -7.68  4.62 -2.38
Si  7.28 -1.16 -5.64
Si -1.71  2.29 -8.84
Si -4.70  3.42  7.24
Si  8.65  2.33 -2.44
Si -7.29  1.15  5.64
Si  1.72 -2.30  8.83
Si -1.75 -2.26  8.85
Si -7.26  5.76  0.81
Si  1.75  2.31 -8.84
Si  4.69 -3.45 -7.27
Si  1.29  5.75 -7.23
Si -4.65  8.05 -0.82
Si  4.79  5.72  5.60
Si  4.66 -8.06  0.81
Si -1.31 -5.74  7.26
Si -7.79 -4.58 -2.42
Si  7.80  4.61  2.41
Si -4.85 -5.74 -5.63
Si -5.12  6.90 -4.01
Si -2.02  5.77 -7.25
Si  5.12 -6.91  4.02
Si  2.08 -5.77  7.27
Si  5.21  6.90 -4.01
Si -5.21 -6.91  4.02
Si -0.93 -9.18  2.44
Si -0.70  9.22  2.40
Si  0.76 -9.22 -2.38
Si  0.96  9.23 -2.44
Si  5.49 -5.74 -5.63
Si -5.54  5.72  5.60
Si -3.37  2.26  8.85
Si  9.07  3.44  0.85
Si  3.49  2.33  8.79
Si -3.07 -5.74 -7.25
Si  8.59 -2.29 -4.00
Si  8.60  2.29  4.01
Si -6.46 -1.13  7.23
Si -9.10 -3.45 -0.81
Si  3.09  5.75  7.26
Si -8.61 -2.30 -4.01
Si  9.47 -0.03  2.43
Si -8.61  2.33  4.01
Si -9.49  0.02 -2.38
Si  3.43 -2.34 -8.86
Si -3.46 -2.35 -8.84
Si  6.48  1.16 -7.24
Si  5.63  3.42  7.24
Si  7.73 -4.54 -4.01
Si -5.64 -3.45 -7.27
Si  2.52 -9.19  2.41
Si  4.30  0.01 -8.85
Si -4.34 -0.01  8.83
Si -0.49 -8.08  5.60
Si  0.44  8.06 -5.63
Si -2.64 -9.19 -2.38
Si -7.72  4.62  4.03
Si -2.50  9.22 -2.42
Si  2.61  9.20  2.42
Si  7.31  3.47  5.63
Si  7.77  4.59 -3.98
Si -7.33 -3.44 -5.67
Si  5.68  8.05 -0.82
Si -5.67 -8.06  0.81
Si -7.79 -4.64  4.01
Si -1.24  8.04  5.67
Si  1.22 -8.09 -5.64
Si  0.85 -4.57  8.79
Si  8.13  1.16 -5.63
Si -0.82  4.55 -8.84
Si -8.18 -1.18  5.60
Si -9.91 -1.14  0.81
Si  9.90  1.19 -0.80
Si -0.90 -4.59 -8.84
Si  3.84 -5.74 -7.24
Si -3.82  5.77  7.23
Si -6.85  6.92 -2.38
Si  6.83 -6.93  2.43
Si  0.89  4.64  8.85
Si -0.82  9.18 -4.03
Si -2.24 -8.03 -5.64
Si  6.95  6.87 -2.41
Si  0.91  9.19  4.01
Si -0.92 -9.20 -4.01
Si  0.78 -9.22  4.01
Si  2.23  8.06  5.65
Si -8.22 -5.79  0.79
Si -6.96 -6.90  2.38
Si  8.28  5.71 -0.80
Si -6.40  3.45 -7.19
Si -2.94  8.03 -5.64
Si -9.43 -0.01  4.02
Si  2.91 -8.07  5.62
Si  6.43 -3.42  7.23
Si  6.35 -8.03 -0.81
Si -2.56  4.59  8.85
Si  2.52 -4.59 -8.86
Si -2.66 -4.58  8.84
Si -2.51  9.16  4.01
Si  2.60  4.59 -8.86
Si -6.41  8.04  0.79
Si  9.50  0.06 -4.03
Si -7.30  1.17 -7.21
Si  6.50  5.71 -5.64
Si  2.49 -9.21 -3.98
Si  7.33 -1.12  7.21
Si -2.67 -9.18  4.03
Si  0.33 -10.34  0.80
Si -4.76 -5.75  7.22
Si -0.38 10.35 -0.82
Si -6.53 -5.76  5.67
Si  4.76  5.74 -7.23
Si -4.26  9.19  2.42
Si  4.25 -9.20 -2.43
Si  2.68  9.26 -4.01
Si -8.11  3.44 -5.63
Si -9.86  3.40 -0.80
Si  1.38 10.34  0.85
Si -4.39 -9.19  2.40
Si -6.79  6.88  4.02
Si -1.41 -10.35 -0.81
Si  4.42  9.21 -2.39
Si -0.85 -0.05 -10.45
Si  5.13 -2.31  8.85
Si  8.18 -3.39  5.62
Si  6.86 -6.84 -4.03
Si  9.88 -3.46  0.82
Si  0.87 -0.01 10.47
Si  5.16  2.31 -8.86
Si -5.17  2.31 -8.86
Si -5.20 -2.31  8.85
Si -3.92 -8.00  5.64
Si  2.03 -10.36 -0.82
Si  3.94  8.07 -5.62
Si  6.97  6.91  3.98
Si -2.07 10.36  0.80
Si -6.98 -6.88 -4.02
Si  5.99 -0.01  8.83
Si  8.97 -5.76  0.79
Si -0.04 -2.31 10.44
Si -9.04  1.17 -5.62
Si -6.04  0.01 -8.85
Si -0.02  2.33 -10.46
Si  9.05 -1.09  5.64
Si -9.03  5.78 -0.81
Si  2.56 -0.00 -10.46
Si -9.44  4.61  2.40
Si  5.58 -5.75  7.22
Si  9.46 -4.59 -2.39
Si -5.58  5.74 -7.23
Si  3.11 10.30 -0.80
Si -2.58 -0.01 10.50
Si 10.30  2.29  2.42
Si  0.53  8.05  7.22
Si -1.75 -2.26 -10.45
Si -4.26  4.56 -8.86
Si -10.33 -2.29 -2.38
Si -0.53 -8.06 -7.23
Si -1.71  2.29 10.46
Si -3.09 -10.37  0.82
Si  1.75  2.31 10.46
Si 10.76 -1.14  0.81
Si 10.34 -2.29 -2.38
Si  1.72 -2.30 -10.47
Si  7.27 -5.75  5.65
Si  4.17 -9.19  4.01
Si -10.76  1.19 -0.80
Si  9.54  4.60 -2.43
Si -9.54 -4.61  2.42
Si  4.36  4.60  8.83
Si -4.65  8.05  5.64
Si -4.35 -4.61 -8.84
Si -7.29  5.78 -5.64
Si  1.23 -8.03  7.23
Si  4.64 -8.06 -5.64
Si -4.22  9.17 -4.05
Si  4.32 -4.64  8.85
Si  7.33  3.45 -7.27
Si -7.34 -3.48  7.24
Si -10.37  2.29  2.42
Si -1.21  8.06 -7.24
Si  7.39  8.01  0.79
Si -4.38 -9.20 -4.00
Si -7.34 -8.09 -0.80
Si  4.37  9.22  4.01
Si  8.22  1.15  7.22
Si -8.22 -1.16 -7.23
Si -2.19 -8.05  7.26
Si -3.81 10.35 -0.81
Si  2.21  8.06 -7.25
Si  3.79 -10.36  0.85
Si  0.06  6.89 -8.80
Si -5.92  9.21 -2.39
Si  5.94 -9.19  2.40
Si  9.41 -4.58  4.01
Si -3.37  2.26 -10.45
Si -0.09 -6.90  8.83
Si  8.53 -6.88 -2.38
Si  9.08  3.44 -5.63
Si -2.97  8.03  7.27
Si -9.43  4.61 -4.00
Si  3.02 -8.03 -7.25
Si  3.43 -2.34 10.44
Si -8.55  6.87  2.43
Si -9.09 -3.45  5.64
Si  9.45  4.62  4.01
Si -3.46 -2.35 10.45
Si  6.08  9.19  2.42
Si -6.08 -9.20 -2.43
Si -6.49 -5.74 -7.24
Si -10.29  2.36 -4.01
Si  4.30  0.01 10.45
Si 10.31 -2.28  4.03
Si  6.51  5.77  7.23
Si  3.49  2.33 -10.51
Si -9.50 -4.63 -4.05
Si  8.66  6.90  2.38
Si -1.70  6.89  8.83
Si  1.79  6.85  8.85
Si -4.34 -0.01 -10.47
Si  1.66 -6.89 -8.85
Si -10.36 -2.28  4.03
Si -1.77 -6.92 -8.83
Si -10.78 -3.46  0.82
Si -8.66 -6.93 -2.41
Si 10.80  3.40 -0.80
Si  5.69  8.05  5.64
Si 10.37  2.36 -4.01
Si -5.69 -8.06 -5.64
Si -6.84  2.33  8.79
Si 11.18  0.02 -2.38
Si  8.15 -3.48 -7.22
Si -0.82  4.55 10.45
Si  4.84 10.34  0.82
Si  6.87 -2.35 -8.84
Si -0.90 -4.59 10.46
Si -11.20 -0.03  2.43
Si  8.12 -8.04  0.81
Si -8.17  3.47  7.26
Si  8.20  5.73  5.62
Si  9.91  1.16  5.65
