500
set: 990.00  0.00  0.00
Si  0.45 -1.14  0.84
Si -0.41  1.22 -0.79
Si -1.39 -1.25 -0.81
Si  1.40  1.29  0.89
Si -2.23  1.30  0.89
Si -0.94  0.01  2.57
Si  2.31 -1.23 -0.86
Si  0.91  0.04 -2.63
Si -0.08  2.39  2.51
Si  3.18  1.22 -0.83
Si -3.19 -1.22  0.82
Si -0.06 -2.52 -2.56
Si -2.69  0.01 -2.54
Si  2.74 -0.05  2.51
Si -0.51 -3.62  0.89
Si  0.52  3.65 -0.81
Si -1.76  2.39 -2.56
Si  1.76 -2.44  2.55
Si  1.85  2.39 -2.56
Si -1.27  3.69  0.82
Si  1.27 -3.69 -0.83
Si -1.99 -2.52  2.51
Si  0.89 -0.06  4.20
Si  4.07 -1.22  0.82
Si -4.07  1.22 -0.83
Si -1.03 -0.07 -4.25
Si -2.32 -3.69 -0.79
Si  2.36  3.77  0.84
Si -0.06 -2.41  4.13
Si -3.04  3.68 -0.86
Si  3.11 -3.61  0.89
Si  0.02  2.47 -4.20
Si -2.73 -0.07  4.21
Si  2.72  0.01 -4.22
Si -3.58  2.47  2.55
Si  3.58 -2.52 -2.56
Si  3.67  2.47  2.55
Si -3.68 -2.52 -2.56
Si -4.51 -0.05  2.51
Si -4.95 -1.23 -0.86
Si  1.86  2.50  4.13
Si -1.74  2.47  4.23
Si -1.89 -2.44 -4.20
Si  4.56  0.01 -2.54
Si  1.79 -2.51 -4.25
Si  5.03  1.30  0.89
Si -4.14 -3.61  0.89
Si -0.78  4.92 -2.54
Si  0.83 -4.96  2.51
Si -1.01 -4.87 -2.63
Si  0.97  4.92  2.57
Si  4.22  3.68 -0.86
Si  0.45 -1.17 -5.87
Si -3.55  2.40 -4.25
Si  5.86 -1.25 -0.81
Si -2.60  4.86  2.51
Si -5.85  1.29  0.89
Si  3.60 -2.44  4.23
Si -0.44  1.20  5.95
Si -3.66 -2.44  4.23
Si  2.65 -4.90 -2.54
Si  3.70  2.40 -4.25
Si  4.53 -0.07  4.21
Si -4.53  0.01 -4.22
Si  4.93 -3.69 -0.79
Si  0.40 -6.14 -0.86
Si -2.85 -4.90  2.57
Si  1.41  1.32 -5.92
Si -4.89  3.77  0.84
Si -1.37 -1.23  5.98
Si  2.82  4.95 -2.63
Si -1.46 -6.05  0.84
Si -0.32  6.21  0.89
Si  5.27 -2.52  2.51
Si  1.50  6.13 -0.79
Si -5.40  2.39 -2.56
Si  2.22 -1.24  5.93
Si -2.23  1.23 -5.94
Si -0.81  4.84  4.21
Si  0.89  4.84 -4.25
Si  5.49  2.39 -2.56
Si  0.81 -4.90 -4.22
Si -5.50 -2.44  2.55
Si -2.16  6.12 -0.83
Si  2.16 -6.13  0.82
Si -1.02 -4.97  4.20
Si -3.18 -1.16 -5.88
Si  6.32  0.01  2.57
Si  3.26  1.22  5.90
Si -6.35  0.04 -2.63
Si -0.50 -3.59 -5.92
Si -6.81 -1.14  0.84
Si -2.62  4.92 -4.22
Si  2.81  4.85  4.20
Si  6.85  1.22 -0.79
Si  2.62 -4.97  4.21
Si  0.54  3.68  5.98
Si -3.31 -6.16 -0.81
Si  4.40 -4.90  2.57
Si  5.98  3.69  0.82
Si -5.99 -3.69 -0.83
Si  1.35 -3.69  5.90
Si -1.27  3.75 -5.88
Si  3.31  6.20  0.89
Si -4.44  4.95 -2.63
Si -2.94 -4.98 -4.25
Si  4.66  4.86  2.51
Si -4.61 -4.90 -2.54
Si -4.00  1.22  5.90
Si  5.37 -2.44 -4.20
Si  4.07 -1.16 -5.88
Si -5.40  2.50  4.13
Si  2.36  3.74 -5.87
Si -5.46 -2.51 -4.25
Si  3.95 -6.16 -0.81
Si  5.51  2.47  4.23
Si -2.35 -3.71  5.95
Si -3.94  6.20  0.89
Si  6.23 -0.07 -4.25
Si -6.36 -0.06  4.20
Si -3.12  3.67  5.93
Si  3.12 -3.68 -5.94
Si -0.43  1.20 -7.58
Si -6.74  3.65 -0.81
Si  6.75 -3.62  0.89
Si  0.15  7.30 -2.56
Si  0.44 -1.16  7.66
Si -1.36 -1.24 -7.55
Si -0.15 -7.35  2.55
Si -7.66  1.22 -0.79
Si -4.45  4.85  4.20
Si  7.71 -1.14  0.84
Si  4.32 -4.98 -4.25
Si  1.40  1.32  7.61
Si -5.03 -1.24  5.93
Si  5.03  1.23 -5.94
Si  1.84  7.30  2.51
Si  4.63  4.92 -4.22
Si  7.18  2.39  2.51
Si -1.67  7.38  2.55
Si -4.64 -4.97  4.21
Si -2.23  1.24  7.59
Si  5.10  6.12 -0.83
Si  2.23 -1.24 -7.60
Si -5.10 -6.13  0.82
Si  1.67 -7.43 -2.56
Si  7.20 -2.52 -2.56
Si -1.97 -7.43 -2.56
Si  4.13  3.67  5.93
Si -7.33  2.39  2.51
Si -4.14 -3.68 -5.94
Si -7.31 -2.52 -2.56
Si  6.25 -4.87 -2.63
Si -3.19 -1.16  7.65
Si -6.28  4.92  2.57
Si  3.27  1.22 -7.63
Si  0.55  3.67 -7.55
Si  5.79 -6.05  0.84
Si -5.85  1.32 -5.92
Si -0.51 -3.59  7.61
Si -5.75  6.13 -0.79
Si  5.89 -1.23  5.98
Si -3.49  7.30 -2.56
Si -6.42 -4.96  2.51
Si  0.17  7.38  4.23
Si -4.89  3.74 -5.87
Si  6.47  4.92 -2.54
Si  3.35 -7.43  2.51
Si  0.31 -6.15  5.93
Si -0.31  6.14 -5.94
Si -0.12 -7.42 -4.25
Si  4.90 -3.71  5.95
Si  8.16  0.04 -2.63
Si -1.46 -6.08 -5.87
Si  1.36 -3.69 -7.63
Si -8.20  0.01  2.57
Si  3.77  7.30 -2.56
Si -1.64  7.31 -4.25
Si -7.77 -3.62  0.89
Si -1.28  3.75  7.65
Si  7.78  3.65 -0.81
Si -1.97 -7.32  4.13
Si  1.69 -7.35  4.23
Si  7.20 -2.41  4.13
Si  1.20 -8.52  0.89
Si  1.47  6.11  5.95
Si  0.64  8.60  0.82
Si -0.64 -8.60 -0.83
Si -3.99  1.22 -7.63
Si -1.12  8.59 -0.86
Si  1.93  7.38 -4.20
Si -7.23  2.47 -4.20
Si  2.16 -6.07 -5.88
Si -7.31 -2.41  4.13
Si  4.06 -1.16  7.65
Si  7.28  2.47 -4.20
Si -2.35 -3.71 -7.58
Si -2.08  6.13  5.90
Si -3.90 -7.43  2.51
Si -8.65 -1.25 -0.81
Si  8.66  1.29  0.89
Si  2.35  3.75  7.66
Si -2.42 -8.53  0.89
Si  2.43  8.56 -0.81
Si  3.11 -3.67  7.59
Si -3.11  3.67 -7.60
Si  6.24 -4.97  4.20
Si -6.37  4.84 -4.25
Si -6.80 -1.17 -5.87
Si  6.44  4.84  4.21
Si  6.81  1.20  5.95
Si -5.91 -3.69  5.90
Si -6.45 -4.90 -4.22
Si  3.45 -7.35 -4.20
Si  3.02 -8.60 -0.79
Si  8.15 -0.06  4.20
Si -3.48  7.41  4.13
Si -3.28 -6.14  5.98
Si  5.02  1.24  7.59
Si  5.99  3.75 -5.88
Si -5.02 -1.24 -7.60
Si  3.32  6.22 -5.92
Si -2.98  8.68  0.84
Si -6.86 -6.14 -0.86
Si -3.80 -7.35 -4.20
Si  3.77  7.41  4.13
Si -8.28 -0.07 -4.25
Si -8.53  3.69  0.82
Si  8.53 -3.69 -0.83
Si -1.04 -0.06  9.27
Si  6.94  6.21  0.89
Si  0.90 -0.07 -9.32
Si -4.15 -3.67  7.59
Si  4.14  3.67 -7.60
Si -5.42  7.30  2.51
Si  3.97 -6.14  5.98
Si -3.93  6.22 -5.92
Si  5.29 -7.43 -2.56
Si  5.59  7.38  2.55
Si -9.49  1.30  0.89
Si -4.23 -8.60 -0.79
Si -5.59 -7.43 -2.56
Si  0.01  2.47  9.33
Si  5.90 -1.24 -7.55
Si  6.75 -3.59 -5.92
Si -9.02  2.39 -2.56
Si  9.56 -1.23 -0.86
Si  9.02 -2.44  2.55
Si -5.86  1.32  7.61
Si  2.71  0.01  9.31
Si -0.05 -2.42 -9.39
Si -2.72 -0.07 -9.32
Si -6.71  3.68  5.98
Si  4.27  8.68  0.84
Si  7.71 -1.17 -5.87
Si -8.04  4.92 -2.54
Si  9.11  2.39 -2.56
Si  4.91 -3.71 -7.58
Si -0.32  6.14  7.59
Si  1.78 -2.50  9.27
Si -1.74  2.46 -9.30
Si  0.32 -6.15 -7.60
Si -7.70  1.20  5.95
Si  8.09 -4.96  2.51
Si -1.90 -2.44  9.33
Si -4.90  3.75  7.66
Si -7.57  6.21  0.89
Si  1.48  6.11 -7.58
Si  4.83 -8.53  0.89
Si  7.65 -6.14 -0.86
Si -4.82  8.56 -0.81
Si -5.09 -6.07 -5.88
Si -1.47 -6.07  7.66
Si  1.87  2.49 -9.39
Si -9.24 -2.52  2.51
Si  8.23  4.92  2.57
Si  5.29 -7.32  4.13
Si -8.26 -4.87 -2.63
Si  5.17  6.13  5.90
Si  2.15 -6.07  7.65
Si -2.07  6.13 -7.63
Si -5.32  7.38 -4.20
Si -0.69  9.77  2.51
Si -5.57 -7.35  4.23
Si  5.62  7.31 -4.25
Si  0.73 -9.81 -2.54
Si  1.13  9.83 -2.54
Si -3.56  2.40  9.27
Si -1.08 -9.87  2.51
Si -9.00  2.47  4.23
Si  5.79 -6.08 -5.87
Si  6.82  1.20 -7.58
Si  3.69  2.40  9.27
Si  3.61 -2.45 -9.30
Si -3.27 -6.15 -7.55
Si -9.95  0.01 -2.54
Si -3.65 -2.45 -9.30
Si -9.58 -3.69 -0.79
Si -5.79  6.11  5.95
Si  9.05 -2.51 -4.25
Si -8.07  4.84  4.21
Si 10.00 -0.05  2.51
Si  9.11  2.50  4.13
Si -6.81 -1.16  7.66
Si -5.90 -3.69 -7.63
Si  8.06 -4.90 -4.22
Si -9.15 -2.44 -4.20
Si -4.54  0.01  9.31
Si  9.62  3.77  0.84
Si  4.54 -0.07 -9.32
Si  3.31  6.23  7.61
Si  8.14  4.84 -4.25
Si -7.76 -3.59 -5.92
Si  5.98  3.75  7.65
Si  2.49 -9.80  2.57
Si -0.56 -8.60  5.90
Si  0.64  8.66 -5.88
Si  7.80  3.68  5.98
Si -6.06 -8.52  0.89
Si  0.88  4.84  9.27
Si -1.21  8.58  5.93
Si -7.11  7.30 -2.56
Si  1.21 -8.59 -5.94
Si -2.52  9.86 -2.63
Si  3.98 -6.15 -7.55
Si -8.28 -4.97  4.20
Si -0.80  4.84 -9.32
Si  7.10 -7.35  2.55
Si -2.92 -9.78 -2.63
Si 10.44  1.22 -0.83
Si -10.44 -1.22  0.82
Si  0.80 -4.89  9.31
Si  2.89  9.83  2.57
Si -8.62 -1.23  5.98
Si  8.67  1.32 -5.92
Si  6.13  8.59 -0.86
Si -3.94  6.23  7.61
Si -1.01 -4.98 -9.32
Si -2.42 -8.50 -5.92
Si -8.72 -6.05  0.84
Si  1.10  9.75  4.21
Si  7.41  7.30 -2.56
Si -0.71  9.83 -4.22
Si  8.76  6.13 -0.79
Si -1.10 -9.81 -4.22
Si -6.70  3.67 -7.55
Si -7.41 -7.35  2.55
Si  2.46  8.59  5.98
Si  0.71 -9.88  4.21
Si  6.74 -3.59  7.61
Si -9.98 -0.07  4.21
Si  9.98  0.01 -4.22
Si -2.63  4.92  9.31
Si -7.69  1.20 -7.58
Si -2.98  8.65 -5.87
Si  2.81  4.84 -9.32
Si -6.62  8.60  0.82
Si  6.61 -8.60 -0.83
Si  2.63 -4.98 -9.32
Si  2.99 -8.62  5.95
Si  7.70 -1.16  7.66
Si -2.54  9.76  4.20
Si -2.95 -4.97  9.27
Si  0.90  0.05 10.89
Si -10.29  3.68 -0.86
Si -0.93  0.01 -10.96
Si  2.80  9.75 -4.25
Si  6.94  6.14 -5.94
Si -6.95 -6.15  5.93
Si -8.53  3.75 -5.88
Si  4.34 -9.78 -2.63
Si 10.37 -3.61  0.89
Si -5.11 -6.07  7.65
Si  2.40 -9.89 -4.25
Si  5.36 -2.44  9.33
Si -5.47 -2.50  9.27
Si -4.37  9.83  2.57
Si  8.60 -3.69  5.90
Si -0.25 11.04 -0.83
Si -7.09  7.38  4.23
Si  5.18  6.13 -7.63
Si  0.24 -11.04  0.82
Si  5.52  2.46 -9.30
Si -5.39  2.49 -9.39
Si -2.93 -9.88  4.20
Si  7.13 -7.42 -4.25
Si  6.22 -0.06  9.27
Si -1.52 -11.05 -0.86
Si -4.76 -9.80  2.57
Si -0.07 -2.52 10.96
Si  9.48 -1.24  5.93
Si  4.73  9.86 -2.63
Si -9.48  1.23 -5.94
Si -9.42  6.12 -0.83
Si  9.41 -6.13  0.82
Si  1.59 11.12  0.89
Si -0.07  2.38 -11.01
Si -9.86  4.86  2.51
Si -6.35 -0.07 -9.32
Si  2.04 -11.07 -0.81
Si  7.42  7.38  4.23
Si -7.38 -7.42 -4.25
Si  4.28  8.65 -5.87
Si -4.27 -8.62  5.95
Si -5.78  6.11 -7.58
Si -2.71  0.02 10.99
Si -2.03 11.11  0.89
Si  9.90 -4.90 -2.54
Si  2.75 -0.06 -11.01
Si  5.79 -6.07  7.66
Si -1.77  2.39 10.97
Si  4.31 -4.97  9.27
Si  1.84  2.39 10.96
Si  1.77 -2.45 -10.98
Si -10.84  2.47  2.55
Si -4.44  4.84 -9.32
Si  7.57 -6.15  5.93
Si -7.57  6.14 -5.94
Si 10.84 -2.52 -2.56
Si 11.33 -1.22  0.82
Si -11.33  1.22 -0.83
Si  4.84 -8.50 -5.92
Si -7.77 -3.59  7.61
Si  7.81  3.67 -7.55
Si -1.98 -2.53 -11.01
Si 10.93  2.47  2.55
Si -3.38 -10.96  0.84
Si  4.62  4.92  9.31
Si -10.93 -2.52 -2.56
Si -0.56 -8.60 -7.63
Si -4.80  8.59  5.98
Si  1.20 -8.58  7.59
Si -1.20  8.58 -7.60
Si -8.62 -1.24 -7.55
Si -10.11 -4.90  2.57
Si 10.07  4.95 -2.63
Si -4.46  9.75 -4.25
Si -4.63 -4.98 -9.32
Si  0.63  8.66  7.65
Si  4.32 -9.88  4.20
Si  3.42 11.04 -0.79
Si  8.66  1.32  7.61
Si  4.72  9.76  4.20
Si  3.88 -10.96  0.84
Si -2.42 -8.50  7.61
Si  2.46  8.58 -7.55
Si  7.89  8.60  0.82
Si -7.90 -8.60 -0.83
Si -3.84 11.04 -0.79
Si -3.57  2.46 -10.98
Si  3.57 -2.52 10.97
Si -4.85 -9.89 -4.25
Si -9.88  4.92 -4.22
Si  9.87 -4.97  4.21
Si  3.68  2.46 -10.98
Si -3.69 -2.52 10.97
Si -8.93  7.38  2.55
Si -6.13  9.83 -2.54
Si -10.81  2.40 -4.25
Si  3.00 -8.62 -7.58
Si  0.18  7.37 -9.30
Si  9.62  3.74 -5.87
Si -0.13 -7.41  9.27
Si  8.92 -7.43 -2.56
Si  4.55  0.02 10.99
Si -9.61 -3.71  5.95
Si -4.50 -0.06 -11.01
Si 10.86 -2.44  4.23
Si  6.17 -9.87  2.51
Si -1.65  7.31  9.27
Si  9.09  7.30  2.51
Si 10.06  4.85  4.20
Si -2.99  8.65  7.66
Si -10.91 -2.44  4.23
Si  6.93  6.14  7.59
Si -1.02 -4.86 10.89
Si  1.70 -7.36 -9.30
Si -6.94 -6.15 -7.60
Si -11.40 -3.61  0.89
Si 10.96  2.40 -4.25
Si -8.38  8.59 -0.86
Si -11.77 -0.05  2.51
Si  6.57  9.77  2.51
Si -10.44 -1.16 -5.88
Si  8.46 -8.52  0.89
Si -6.52 -9.81 -2.54
Si  0.98  4.92 -10.96
Si  1.93  7.38  9.33
Si  6.05  8.58  5.93
Si -8.54  3.75  7.65
Si -7.24  2.47  9.33
Si -0.79  4.93 10.99
Si -6.05 -8.59 -5.94
Si -1.96 -7.33 -9.39
Si  8.61 -3.69 -7.63
Si 11.48  3.68 -0.86
Si  7.27  2.47  9.33
Si  7.21 -2.42 -9.39
Si 11.82  0.01 -2.54
Si  0.84 -4.97 -11.01
