500
set: 32.00  0.00  0.00
Si  0.00  0.00  0.00
Si  0.53  0.03  2.38
Si -0.53 -0.03 -2.38
Si -1.15  2.22  0.00
Si  1.15 -2.22  0.00
Si  2.62  0.00  0.00
Si -2.62  0.00  0.00
Si  1.47  2.22  0.00
Si -1.47 -2.22  0.00
Si  2.10 -0.03 -2.38
Si -2.10  0.03  2.38
Si -0.63  2.25  2.38
Si  0.63 -2.25 -2.38
Si  0.94  2.19 -2.38
Si -0.94 -2.19  2.38
Si  1.68 -2.19  2.38
Si -1.68  2.19 -2.38
Si  2.00  2.25  2.38
Si -2.00 -2.25 -2.38
Si  3.15  0.03  2.38
Si -3.15 -0.03 -2.38
Si  3.78 -2.22  0.00
Si -3.78  2.22  0.00
Si  0.32  4.44  0.00
Si -0.32 -4.44  0.00
Si  3.25 -2.25 -2.38
Si -3.25  2.25  2.38
Si -4.09 -2.22  0.00
Si  4.09  2.22  0.00
Si  3.57  2.19 -2.38
Si -3.57 -2.19  2.38
Si  1.05  0.05  4.77
Si -1.05 -0.05 -4.77
Si -2.31  4.44  0.00
Si  2.31 -4.44  0.00
Si  1.57 -0.05 -4.77
Si -1.57  0.05  4.77
Si  0.21 -4.41  2.38
Si -0.21  4.41 -2.38
Si  0.84  4.47  2.38
Si -0.84 -4.47 -2.38
Si -5.25  0.00  0.00
Si  5.25  0.00  0.00
Si -0.42 -2.17  4.77
Si  0.42  2.17 -4.77
Si  0.10 -2.27 -4.77
Si -0.10  2.27  4.77
Si  4.72 -0.03 -2.38
Si -4.72  0.03  2.38
Si -2.94 -4.44  0.00
Si  2.94  4.44  0.00
Si  1.78 -4.47 -2.38
Si -1.78  4.47  2.38
Si  4.30 -2.19  2.38
Si -4.30  2.19 -2.38
Si -2.42 -4.41  2.38
Si  2.42  4.41 -2.38
Si  4.62  2.25  2.38
Si -4.62 -2.25 -2.38
Si -2.21  2.17 -4.77
Si  2.21 -2.17  4.77
Si  2.83 -4.41  2.38
Si -2.83  4.41 -2.38
Si -2.52 -2.27 -4.77
Si  2.52  2.27  4.77
Si -2.72  2.27  4.77
Si  2.72 -2.27 -4.77
Si -3.67 -0.05 -4.77
Si  3.67  0.05  4.77
Si -3.04 -2.17  4.77
Si  3.04  2.17 -4.77
Si  3.47  4.47  2.38
Si -3.47 -4.47 -2.38
Si -5.77 -0.03 -2.38
Si  5.77  0.03  2.38
Si -4.19  0.05  4.77
Si  4.19 -0.05 -4.77
Si  0.73 -4.39  4.77
Si -0.73  4.39 -4.77
Si -4.93  4.44  0.00
Si  4.93 -4.44  0.00
Si  1.25 -4.49 -4.77
Si -1.25  4.49  4.77
Si -1.37 -4.49 -4.77
Si  1.37  4.49  4.77
Si -4.40  4.47  2.38
Si  4.40 -4.47 -2.38
Si -0.83  6.66  0.00
Si  0.83 -6.66  0.00
Si  5.87 -2.25 -2.38
Si -5.87  2.25  2.38
Si -1.89 -4.39  4.77
Si  1.89  4.39 -4.77
Si  6.40 -2.22  0.00
Si -6.40  2.22  0.00
Si -1.79 -6.66  0.00
Si  1.79  6.66  0.00
Si -6.19 -2.19  2.38
Si  6.19  2.19 -2.38
Si -6.72 -2.22  0.00
Si  6.72  2.22  0.00
Si -0.31  6.69  2.38
Si  0.31 -6.69 -2.38
Si  5.04  4.41 -2.38
Si -5.04 -4.41  2.38
Si  5.56  4.44  0.00
Si -5.56 -4.44  0.00
Si -4.83  2.17 -4.77
Si  4.83 -2.17  4.77
Si  1.26  6.63 -2.38
Si -1.26 -6.63  2.38
Si -1.36  6.63 -2.38
Si  1.36 -6.63  2.38
Si -1.04  0.08  7.15
Si  1.04 -0.08 -7.15
Si  3.36 -4.39  4.77
Si -3.36  4.39 -4.77
Si -1.58 -0.08 -7.15
Si  1.58  0.08  7.15
Si  5.15  2.27  4.77
Si -5.15 -2.27 -4.77
Si  5.45 -4.41  2.38
Si -5.45  4.41 -2.38
Si  2.31  6.69  2.38
Si -2.31 -6.69 -2.38
Si -0.11  2.14 -7.15
Si  0.11 -2.14  7.15
Si -3.46  6.66  0.00
Si  3.46 -6.66  0.00
Si  5.35 -2.27 -4.77
Si -5.35  2.27  4.77
Si -0.43 -2.30 -7.15
Si  0.43  2.30  7.15
Si -3.88  4.49  4.77
Si  3.88 -4.49 -4.77
Si  6.92 -2.19  2.38
Si -6.92  2.19 -2.38
Si -3.99 -4.49 -4.77
Si  3.99  4.49  4.77
Si -2.93  6.69  2.38
Si  2.93 -6.69 -2.38
Si  5.67  2.17 -4.77
Si -5.67 -2.17  4.77
Si  7.34 -0.03 -2.38
Si -7.34  0.03  2.38
Si -2.20  2.30  7.15
Si  2.20 -2.30 -7.15
Si  7.87  0.00  0.00
Si -7.87  0.00  0.00
Si  2.52  2.14 -7.15
Si -2.52 -2.14  7.15
Si  4.51  4.39 -4.77
Si -4.51 -4.39  4.77
Si -6.30 -0.05 -4.77
Si  6.30  0.05  4.77
Si -6.09 -4.47 -2.38
Si  6.09  4.47  2.38
Si -7.24 -2.25 -2.38
Si  7.24  2.25  2.38
Si  2.73 -2.14  7.15
Si -2.73  2.14 -7.15
Si  4.41  6.66  0.00
Si -4.41 -6.66  0.00
Si -3.67  0.08  7.15
Si  3.67 -0.08 -7.15
Si -3.89 -6.63  2.38
Si  3.89  6.63 -2.38
Si -3.98  6.63 -2.38
Si  3.98 -6.63  2.38
Si -3.05 -2.30 -7.15
Si  3.05  2.30  7.15
Si  0.74  6.61 -4.77
Si -0.74 -6.61  4.77
Si  0.22  6.71  4.77
Si -0.22 -6.71 -4.77
Si  4.20  0.08  7.15
Si -4.20 -0.08 -7.15
Si -6.82  0.05  4.77
Si  6.82 -0.05 -4.77
Si -1.89  6.61 -4.77
Si  1.89 -6.61  4.77
Si -1.26  4.36 -7.15
Si  1.26 -4.36  7.15
Si -1.36 -4.36  7.15
Si  1.36  4.36 -7.15
Si -0.73  4.52  7.15
Si  0.73 -4.52 -7.15
Si -2.40  6.71  4.77
Si  2.40 -6.71 -4.77
Si  4.94  6.69  2.38
Si -4.94 -6.69 -2.38
Si -7.03  4.47  2.38
Si  7.03 -4.47 -2.38
Si  1.90  4.52  7.15
Si -1.90 -4.52 -7.15
Si -2.84 -6.71 -4.77
Si  2.84  6.71  4.77
Si -8.39 -0.03 -2.38
Si  8.39  0.03  2.38
Si  7.55 -4.44  0.00
Si -7.55  4.44  0.00
Si  3.36  6.61 -4.77
Si -3.36 -6.61  4.77
Si -5.98  4.39 -4.77
Si  5.98 -4.39  4.77
Si  0.64  8.88  0.00
Si -0.64 -8.88  0.00
Si -4.82  2.30  7.15
Si  4.82 -2.30 -7.15
Si -5.55  6.69  2.38
Si  5.55 -6.69 -2.38
Si  6.08 -6.66  0.00
Si -6.08  6.66  0.00
Si  5.14  2.14 -7.15
Si -5.14 -2.14  7.15
Si  3.35 -4.52 -7.15
Si -3.35  4.52  7.15
Si  1.99 -8.88  0.00
Si -1.99  8.88  0.00
Si -8.50  2.25  2.38
Si  8.50 -2.25 -2.38
Si  7.45 -2.17  4.77
Si -7.45  2.17 -4.77
Si  7.66  4.41 -2.38
Si -7.66 -4.41  2.38
Si  0.11  8.86 -2.38
Si -0.11 -8.86  2.38
Si -5.35  2.14 -7.15
Si  5.35 -2.14  7.15
Si -6.50  4.49  4.77
Si  6.50 -4.49 -4.77
Si  3.88 -4.36  7.15
Si -3.88  4.36 -7.15
Si -3.99 -4.36  7.15
Si  3.99  4.36 -7.15
Si -9.02  2.22  0.00
Si  9.02 -2.22  0.00
Si -1.16 -8.91 -2.38
Si  1.16  8.91  2.38
Si -6.62 -4.49 -4.77
Si  6.62  4.49  4.77
Si -4.51  6.61 -4.77
Si  4.51 -6.61  4.77
Si -8.19 -4.44  0.00
Si  8.19  4.44  0.00
Si  1.46 -8.91 -2.38
Si -1.46  8.91  2.38
Si  8.81  2.19 -2.38
Si -8.81 -2.19  2.38
Si  7.77  2.27  4.77
Si -7.77 -2.27 -4.77
Si -5.67 -2.30 -7.15
Si  5.67  2.30  7.15
Si -3.26 -8.88  0.00
Si  3.26  8.88  0.00
Si -2.51  8.86 -2.38
Si  2.51 -8.86  2.38
Si  8.08 -4.41  2.38
Si -8.08  4.41 -2.38
Si  6.29 -0.08 -7.15
Si -6.29  0.08  7.15
Si  0.52 -0.10 -9.54
Si -0.52  0.10  9.54
Si -7.97  2.27  4.77
Si  7.97 -2.27 -4.77
Si  2.73  8.86 -2.38
Si -2.73 -8.86  2.38
Si  4.52  4.52  7.15
Si -4.52 -4.52 -7.15
Si -6.51 -6.63  2.38
Si  6.51  6.63 -2.38
Si -9.34 -2.22  0.00
Si  9.34  2.22  0.00
Si  7.13  4.39 -4.77
Si -7.13 -4.39  4.77
Si  5.03 -6.71 -4.77
Si -5.03  6.71  4.77
Si -6.61  6.63 -2.38
Si  6.61 -6.63  2.38
Si -7.04 -6.66  0.00
Si  7.04  6.66  0.00
Si -0.21 -6.58  7.15
Si  0.21  6.58 -7.15
Si  2.10  0.10  9.54
Si -2.10 -0.10 -9.54
Si -0.63  2.12 -9.54
Si  0.63 -2.12  9.54
Si -8.29 -2.17  4.77
Si  8.29  2.17 -4.77
Si  0.74  6.74  7.15
Si -0.74 -6.74 -7.15
Si  0.95  2.33  9.54
Si -0.95 -2.33 -9.54
Si  5.46  6.71  4.77
Si -5.46 -6.71 -4.77
Si -6.82 -0.08 -7.15
Si  6.82  0.08  7.15
Si -1.67  2.33  9.54
Si  1.67 -2.33 -9.54
Si -3.79 -8.91 -2.38
Si  3.79  8.91  2.38
Si -1.99 -2.12  9.54
Si  1.99  2.12 -9.54
Si -1.88  6.74  7.15
Si  1.88 -6.74 -7.15
Si -4.61  8.88  0.00
Si  4.61 -8.88  0.00
Si  2.41 -6.58  7.15
Si -2.41  6.58 -7.15
Si  3.14 -0.10 -9.54
Si -3.14  0.10  9.54
Si  0.42 -8.83  4.77
Si -0.42  8.83 -4.77
Si -8.71 -4.47 -2.38
Si  8.71  4.47  2.38
Si  9.55 -2.19  2.38
Si -9.55  2.19 -2.38
Si  4.08 -8.91 -2.38
Si -4.08  8.91  2.38
Si -5.98 -6.61  4.77
Si  5.98  6.61 -4.77
Si -8.92 -0.05 -4.77
Si  8.92  0.05  4.77
Si -2.83 -6.58  7.15
Si  2.83  6.58 -7.15
Si  0.94 -8.93 -4.77
Si -0.94  8.93  4.77
Si -9.97  0.03  2.38
Si  9.97 -0.03 -2.38
Si  1.69  8.93  4.77
Si -1.69 -8.93 -4.77
Si -2.21 -8.83  4.77
Si  2.21  8.83 -4.77
Si -3.26  2.12 -9.54
Si  3.26 -2.12  9.54
Si  5.97 -4.52 -7.15
Si -5.97  4.52  7.15
Si -7.56 -6.69 -2.38
Si  7.56  6.69  2.38
Si  3.37  6.74  7.15
Si -3.37 -6.74 -7.15
Si -9.87 -2.25 -2.38
Si  9.87  2.25  2.38
Si -3.58 -2.33 -9.54
Si  3.58  2.33  9.54
Si -3.04  8.83 -4.77
Si  3.04 -8.83  4.77
Si 10.49  0.00  0.00
Si -10.49  0.00  0.00
Si  0.84  4.34 -9.54
Si -0.84 -4.34  9.54
Si  5.14 -8.86  2.38
Si -5.14  8.86 -2.38
Si -0.20  4.54  9.54
Si  0.20 -4.54 -9.54
Si  7.44 -2.30 -7.15
Si -7.44  2.30  7.15
Si  9.44 -0.05 -4.77
Si -9.44  0.05  4.77
Si  6.51 -4.36  7.15
Si -6.51  4.36 -7.15
Si -5.36 -8.86  2.38
Si  5.36  8.86 -2.38
Si  1.79 -4.34  9.54
Si -1.79  4.34 -9.54
Si -4.73 -0.10 -9.54
Si  4.73  0.10  9.54
Si -5.88 -8.88  0.00
Si  5.88  8.88  0.00
Si  6.61  4.36 -7.15
Si -6.61 -4.36  7.15
Si  4.29 -2.33 -9.54
Si -4.29  2.33  9.54
Si -3.56  8.93  4.77
Si  3.56 -8.93 -4.77
Si -7.76 -2.14  7.15
Si  7.76  2.14 -7.15
Si  8.60 -4.39  4.77
Si -8.60  4.39 -4.77
Si  4.61  2.12 -9.54
Si -4.61 -2.12  9.54
Si  4.50 -6.74 -7.15
Si -4.50  6.74  7.15
Si -8.18  6.69  2.38
Si  8.18 -6.69 -2.38
Si  7.13 -6.61  4.77
Si -7.13  6.61 -4.77
Si -2.42 -4.54 -9.54
Si  2.42  4.54  9.54
Si  9.65 -4.47 -2.38
Si -9.65  4.47  2.38
Si -7.98  2.14 -7.15
Si  7.98 -2.14  7.15
Si -2.82  4.54  9.54
Si  2.82 -4.54 -9.54
Si -5.04  6.58 -7.15
Si  5.04 -6.58  7.15
Si  8.70 -6.66  0.00
Si -8.70  6.66  0.00
Si -4.31 -8.93 -4.77
Si  4.31  8.93  4.77
Si -3.46 -4.34  9.54
Si  3.46  4.34 -9.54
Si -7.14 -4.52 -7.15
Si  7.14  4.52  7.15
Si 10.17 -4.44  0.00
Si -10.17  4.44  0.00
Si  0.52 -11.10  0.00
Si -0.52 11.10  0.00
Si  4.83  8.83 -4.77
Si -4.83 -8.83  4.77
Si -5.76  0.10  9.54
Si  5.76 -0.10 -9.54
Si  5.46  6.58 -7.15
Si -5.46 -6.58  7.15
Si -8.29 -2.30 -7.15
Si  8.29  2.30  7.15
Si -6.41 -8.91 -2.38
Si  6.41  8.91  2.38
Si  9.12 -4.49 -4.77
Si -9.12  4.49  4.77
Si -7.65  6.71  4.77
Si  7.65 -6.71 -4.77
Si -11.02 -0.03 -2.38
Si 11.02  0.03  2.38
Si -2.11 -11.10  0.00
Si  2.11 11.10  0.00
Si  9.24  4.49  4.77
Si -9.24 -4.49 -4.77
Si -10.07  2.17 -4.77
Si 10.07 -2.17  4.77
Si -4.41  4.34 -9.54
Si  4.41 -4.34  9.54
Si -1.04 11.07 -2.38
Si  1.04 -11.07  2.38
Si -0.01 -11.13 -2.38
Si  0.01 11.13  2.38
Si  0.94 -8.80  7.15
Si -0.94  8.80 -7.15
Si -5.88  2.12 -9.54
Si  5.88 -2.12  9.54
Si -6.71  8.91  2.38
Si  6.71 -8.91 -2.38
Si  8.91 -0.08 -7.15
Si -8.91  0.08  7.15
Si -1.58 -11.07  2.38
Si  1.58 11.07 -2.38
Si 10.28  4.41 -2.38
Si -10.28 -4.41  2.38
Si -7.23  8.88  0.00
Si  7.23 -8.88  0.00
Si -1.68 -8.80  7.15
Si  1.68  8.80 -7.15
Si -0.41  8.96  7.15
Si  0.41 -8.96 -7.15
Si -5.99 -6.74 -7.15
Si  5.99  6.74  7.15
Si  5.66 -8.83  4.77
Si -5.66  8.83 -4.77
Si  3.14 -11.10  0.00
Si -3.14 11.10  0.00
Si  9.13  6.63 -2.38
Si -9.13 -6.63  2.38
Si -8.09 -6.71 -4.77
Si  8.09  6.71  4.77
Si  0.32 -6.56  9.54
Si -0.32  6.56 -9.54
Si 11.12 -2.25 -2.38
Si -11.12  2.25  2.38
Si  6.20  2.33  9.54
Si -6.20 -2.33 -9.54
Si  9.23 -6.63  2.38
Si -9.23  6.63 -2.38
Si -10.39 -2.27 -4.77
Si 10.39  2.27  4.77
Si  2.21  8.96  7.15
Si -2.21 -8.96 -7.15
Si  2.61 -11.13 -2.38
Si -2.61 11.13  2.38
Si  2.63 11.13  2.38
Si -2.63 -11.13 -2.38
Si 10.81  4.44  0.00
Si -10.81 -4.44  0.00
Si -5.04 -4.54 -9.54
Si  5.04  4.54  9.54
Si  9.76  4.39 -4.77
Si -9.76 -4.39  4.77
Si -9.66 -6.66  0.00
Si  9.66  6.66  0.00
Si -1.27 -6.76 -9.54
Si  1.27  6.76  9.54
Si  1.35 -6.76 -9.54
Si -1.35  6.76  9.54
Si  2.31  6.56 -9.54
Si -2.31 -6.56  9.54
Si -10.70  4.41 -2.38
Si 10.70 -4.41  2.38
Si -10.59  2.27  4.77
Si 10.59 -2.27 -4.77
Si  9.45  0.08  7.15
