500
set: 197.00  0.00  0.00
Si  0.03 -0.03 -0.02
Si  1.88  1.05  0.76
Si -0.02 -0.00 -2.29
Si -1.88  1.08  0.78
Si  0.01 -2.18  0.79
Si  1.86 -1.07 -3.03
Si  0.00 -2.17  3.04
Si  1.86  3.24  0.02
Si  3.75  0.02  0.01
Si -0.01  2.17 -3.06
Si  1.88  1.09  3.06
Si -1.89 -3.25 -0.01
Si -1.88  3.25  0.03
Si -3.77 -0.01 -0.04
Si  1.90 -3.25 -0.01
Si -1.88  1.09  3.08
Si -1.88 -1.11 -3.09
Si -3.73 -0.02 -2.29
Si  1.86 -1.08  3.81
Si  1.84  3.25 -2.31
Si -3.74 -2.17  0.77
Si -1.87  3.26 -2.27
Si  3.76  0.00 -2.29
Si  3.76 -2.16  0.76
Si -1.87 -3.25 -2.30
Si -1.88 -1.06  3.84
Si  1.86 -3.25 -2.32
Si -0.01  2.19  3.83
Si  0.01  4.35  0.74
Si -3.73  2.18 -3.07
Si -3.77 -2.15  3.05
Si  0.00  4.32  3.09
Si -0.01 -4.34 -3.07
Si  3.76  2.18 -3.10
Si  3.78 -2.17  3.09
Si -1.84 -5.40  0.74
Si  1.86 -5.40  0.76
Si -5.62  1.06  0.77
Si -0.01 -4.34  3.81
Si  3.77  2.17  3.81
Si  1.88 -1.09 -5.36
Si -3.76  2.16  3.84
Si  5.64  1.06  0.77
Si -1.86 -1.08 -5.39
Si -0.01  2.16 -5.38
Si -3.77  4.35  0.76
Si  3.79  4.35  0.74
Si -1.86  1.10 -6.12
Si  1.89 -1.09  6.11
Si -5.63  3.23  0.03
Si -3.75  4.32  3.06
Si -5.62 -3.26  0.00
Si  5.63  3.23  0.03
Si -1.90  5.41 -3.06
Si -1.86 -5.41  3.08
Si -5.62  1.09  3.07
Si  0.01 -2.16 -6.13
Si  5.63 -1.06 -3.06
Si  3.74 -4.35 -3.06
Si  0.01  6.50  0.00
Si -5.63 -1.06 -3.06
Si  1.88  1.07 -6.13
Si  1.89  5.41 -3.09
Si -3.74 -4.34 -3.09
Si -0.00  2.19  6.13
Si  1.88 -5.43  3.06
Si  5.64  1.09  3.07
Si -1.90 -1.10  6.14
Si  5.64 -3.26  0.00
Si  0.00 -6.52  0.03
Si  3.77  4.35  3.08
Si -0.01 -6.48 -2.26
Si -0.00 -0.01  6.87
Si -0.04 -4.31 -5.35
Si  5.60 -1.06  3.85
Si -3.76  2.17 -5.34
Si -1.90  5.41  3.83
Si  3.73  2.15 -5.37
Si  5.62  3.28 -2.26
Si  3.73 -4.35  3.83
Si -0.00  6.49 -2.33
Si -5.64  3.28 -2.26
Si  5.63 -3.26 -2.33
Si -3.76 -4.33  3.86
Si  1.87  5.42  3.86
Si -5.63 -3.26 -2.33
Si -5.67 -1.06  3.85
Si  3.75  2.14  6.11
Si  3.75 -2.16 -6.12
Si -3.73  6.50 -0.01
Si  7.50 -0.01 -0.04
Si  3.75 -6.50  0.03
Si  3.74  6.51 -0.01
Si -3.75 -2.16 -6.14
Si -0.01 -4.33  6.13
Si -7.51  0.02  0.01
Si -3.77 -6.51  0.02
Si  0.00  4.33 -6.16
Si -3.77  2.18  6.17
Si  3.75 -4.31 -5.36
Si -5.62 -5.40  0.74
Si  1.84 -3.25  6.89
Si  3.76 -6.49 -2.27
Si -3.77 -0.00  6.88
Si  5.64 -5.40  0.74
Si -7.50  0.00 -2.29
Si  5.62 -1.06 -5.37
Si  1.89  7.58  0.77
Si -7.51 -2.16  0.76
Si  3.76 -0.00  6.89
Si  3.76  6.50 -2.30
Si  1.90  3.23  6.90
Si -5.64 -1.06 -5.37
Si -1.88  7.59  0.76
Si -3.77  6.50 -2.32
Si  1.86  5.42 -5.38
Si -1.87  3.25  6.91
Si -1.88  5.45 -5.36
Si  7.52 -2.17  0.77
Si -1.87 -3.24  6.92
Si -3.77 -4.33 -5.38
Si -3.79 -6.50 -2.31
Si  7.54 -0.02 -2.29
Si  3.76 -4.33  6.10
Si  7.49 -2.15  3.05
Si -3.73 -4.32  6.12
Si -1.87  5.43  6.10
Si -5.63  1.07 -6.11
Si -1.85 -5.42 -6.11
Si  5.63  1.07 -6.11
Si  3.78  4.33 -6.11
Si  5.62  5.41 -3.07
Si  5.62 -1.09  6.12
Si -7.49 -2.17  3.09
Si  1.90 -7.57 -3.07
Si  1.86 -5.41 -6.14
Si -1.85  7.58  3.09
Si -5.64  5.41 -3.07
Si -5.64 -1.09  6.12
Si  1.86  7.60  3.05
Si -1.87 -7.58 -3.10
Si  1.90  5.43  6.12
Si -7.50  2.18 -3.10
Si -5.63 -5.43  3.09
Si  5.63 -5.43  3.09
Si -3.77  4.35 -6.14
Si  7.54  2.18 -3.07
Si -7.48  4.35  0.74
Si  5.62  5.41  3.81
Si -7.50  2.17  3.81
Si -1.86 -7.58  3.81
Si  7.50  4.35  0.76
Si -5.65  5.41  3.81
Si  0.01 -2.19 -8.42
Si  7.51  2.16  3.84
Si  1.86  1.10 -8.44
Si  1.88 -7.59  3.84
Si -1.84  1.10 -8.45
Si  0.01 -8.69  0.77
Si  0.00 -0.02 -9.17
Si  0.01 -8.66  3.07
Si  7.51  4.32  3.06
Si -7.49  4.35  3.08
Si  0.01 -0.00  9.20
Si -0.00  8.69 -3.06
Si -7.53 -4.35 -3.06
Si  7.52 -4.34 -3.09
Si  0.01  4.32 -8.41
Si  1.87 -7.58 -5.34
Si  7.50  2.17 -5.34
Si  5.60  5.44 -5.35
Si -5.62  7.58  0.79
Si  3.76 -2.17 -8.41
Si -9.38  1.05  0.76
Si  5.61  3.25  6.91
Si  5.65  7.58  0.79
Si  9.39  1.08  0.78
Si  3.76 -8.67  0.78
Si -0.02 -6.50  6.91
Si  7.50 -4.33  3.86
Si -3.75 -2.20 -8.43
Si -7.53  2.15 -5.37
Si  5.62 -3.23  6.94
Si -5.65  3.25  6.91
Si -7.53 -4.35  3.83
Si -1.90 -7.60 -5.37
Si -5.67  5.44 -5.35
Si -5.64 -3.23  6.94
Si -0.04  8.69  3.85
Si -3.75 -8.70  0.76
Si -0.01  6.53  6.94
Si  1.87  3.24  9.16
Si  3.75  0.00 -9.17
Si -9.36 -3.25 -0.01
Si -7.51  2.14  6.11
Si -3.73 -0.00  9.19
Si -1.88 -9.73  0.01
Si  3.75  8.64 -3.09
Si  9.37 -3.25 -0.01
Si -1.88 -3.23 -9.18
Si -3.75 -8.66  3.06
Si -5.63  7.58  3.04
Si  3.74  0.01  9.19
Si -3.77 -0.01 -9.18
Si  1.87  9.74 -0.04
Si  5.63  7.58  3.04
Si -7.51 -2.16 -6.12
Si -9.38  1.09  3.06
Si  3.75 -8.66  3.08
Si  5.62 -7.59 -3.06
Si  9.38  3.25  0.03
Si  7.49 -6.51  0.02
Si  5.62  5.42  6.13
Si -9.40 -1.07 -3.03
Si -1.88  7.60 -6.12
Si  9.38  1.09  3.08
Si -7.51 -6.50  0.03
Si -3.77  8.68 -3.03
Si -5.64 -7.59 -3.06
Si -1.88 -7.62  6.11
Si -5.64  5.42  6.13
Si  1.87 -9.76 -0.04
Si  7.51 -2.16 -6.14
Si  9.38 -1.11 -3.09
Si -9.40  3.24  0.02
Si  1.86 -7.58  6.17
Si -1.89  3.26 -9.20
Si  1.90  3.25 -9.21
Si  1.88  7.60 -6.14
Si  7.50  2.18  6.17
Si -7.53  6.51 -0.01
Si -5.63 -5.42 -6.16
Si  7.53  6.50 -0.01
Si  1.86 -3.26  9.21
Si -1.88  3.27  9.21
Si -1.88  9.77  0.01
Si  5.63 -5.42 -6.16
Si -1.88 -3.25  9.23
Si  1.87 -3.26 -9.23
Si  0.01 -2.15  9.94
Si  7.47 -6.50 -2.31
Si  7.50 -0.00  6.88
Si  5.62 -7.57  3.83
Si -7.50 -6.49 -2.27
Si  1.90  9.73 -2.29
Si -5.64 -7.57  3.83
Si -7.51 -4.31 -5.36
Si -3.74  4.33 -8.43
Si  7.50  6.50 -2.32
Si -7.50 -0.00  6.89
Si -7.50  6.50 -2.30
Si -1.88  1.09  9.96
Si -1.87 -9.75 -2.29
Si -1.87  9.75 -2.29
Si  9.38 -1.06  3.84
Si  7.50 -4.33 -5.38
Si -1.88 -5.41 -8.43
Si  1.89  1.08  9.96
Si -3.77  8.67  3.81
Si  9.39  3.26 -2.27
Si -3.79  6.50  6.89
Si -9.40 -1.08  3.81
Si -3.73 -6.52  6.90
Si  9.39 -3.25 -2.30
Si  1.89 -5.43 -8.43
Si  3.76  4.34 -8.43
Si  3.76 -6.50  6.91
Si -9.40 -3.25 -2.32
Si -5.62  1.10 -8.46
Si -0.01  8.69 -5.37
Si  1.90 -9.77 -2.29
Si  3.75  8.70  3.84
Si  3.76  6.51  6.92
Si  5.64  1.10 -8.46
Si -9.42  3.25 -2.31
Si -7.49  4.33 -6.11
Si -7.50 -4.33  6.10
Si -0.01  8.66  6.12
Si  0.00 -8.68 -6.11
Si  7.49  4.35 -6.14
Si  7.54 -4.32  6.12
Si  0.01 10.82  0.77
Si  3.79 -2.15  9.94
Si -3.76  8.66 -5.36
Si -3.77 -2.15  9.96
Si  0.01  4.32  9.97
Si -9.39 -1.09 -5.36
Si -9.40 -5.40  0.76
Si  5.62 -7.59 -5.38
Si  3.77  8.67 -5.39
Si  9.42 -5.40  0.74
Si  9.40 -1.08 -5.39
Si -5.65 -7.59 -5.38
Si -5.60  9.73 -0.02
Si -5.60  3.23  9.18
Si -11.24 -0.03 -0.02
Si -3.74  8.66  6.11
Si -9.37 -1.09  6.11
Si  9.37  5.41 -3.06
Si -0.00 -10.82 -3.06
Si  3.74  8.66  6.14
Si  3.77 -8.66 -6.12
Si -5.62  3.25 -9.19
Si  5.63 -7.57  6.13
Si -9.37  5.41 -3.09
Si -5.63 -7.57  6.13
Si  9.37 -1.10  6.14
Si  5.66  9.73 -0.02
Si  5.66  3.23  9.18
Si -9.38  1.07 -6.13
Si  0.03  6.48 -9.21
Si  0.01 -6.51 -9.19
Si -5.62  7.60 -6.13
Si  0.03 -6.53  9.18
Si  5.64  3.25 -9.19
Si -9.38 -5.43  3.06
Si -5.60 -3.28 -9.21
Si  9.40  1.10 -6.12
Si -5.60 -9.78 -0.02
Si -3.75 -8.68 -6.13
Si  0.00  6.48  9.22
Si  0.01 10.85  3.07
Si  5.64  7.60 -6.13
Si  9.40 -5.41  3.08
Si 11.29 -0.03 -0.02
Si -5.63 -3.27  9.22
Si  5.63 -3.27  9.22
Si  5.66 -3.28 -9.21
Si  5.66 -9.78 -0.02
Si -0.01  0.03 -11.45
Si -3.75 10.80  0.76
Si  9.37  5.41  3.83
Si 11.24 -0.00 -2.29
Si  1.88  7.55 -8.43
Si -3.75  4.30  9.96
Si -5.62 -5.43 -8.41
Si -1.88  7.58 -8.41
Si -0.04 -10.81  3.85
Si -7.51 -2.17 -8.41
Si  5.61  9.75 -2.29
Si -11.25 -2.18  0.79
Si  5.61 -9.75 -2.29
Si  5.65 -5.43 -8.41
Si  3.76 10.83  0.78
Si -7.51 -8.67  0.78
Si -5.65  9.75 -2.29
Si -5.65 -9.75 -2.29
Si -5.62  1.07  9.98
Si  7.51 -2.20 -8.43
Si  1.88 -5.45  9.96
Si -9.39  5.42  3.86
Si  3.76  4.33  9.98
Si -11.28 -0.00 -2.29
Si -1.88 -5.42  9.98
Si 11.28 -2.18  0.79
Si  5.65  1.07  9.98
Si  7.51 -8.70  0.76
Si  7.49 -0.01 -9.18
Si -7.51  0.00 -9.17
Si -3.77 -6.51  9.16
Si -3.77 -10.83 -3.03
Si -7.51  8.64 -3.09
Si -11.26 -2.17  3.04
Si 11.25  2.17 -3.06
Si  7.50  8.68 -3.03
Si  7.51 -8.66  3.06
Si  3.74 -6.50 -9.20
Si 11.27 -2.17  3.04
Si  3.75 -6.48  9.21
Si -7.51 -8.66  3.08
Si  3.75  6.52 -9.18
Si -3.73 -6.51 -9.21
Si -3.75 10.85  3.06
Si -7.53  0.01  9.19
Si -11.27  2.17 -3.06
Si  7.53 -0.00  9.19
Si  3.75 10.85  3.08
Si -3.77  6.49  9.21
Si  3.75  6.50  9.23
Si -3.77  6.49 -9.23
Si  3.75 -10.87 -3.09
Si  7.47  6.50  6.89
Si  3.76  0.01 -11.47
Si -9.36  3.23  6.90
Si  3.75 -10.81  3.84
Si -0.01 -10.82 -5.37
Si  1.86  9.75  6.88
Si -1.87 -3.25 -11.48
Si -9.37  7.58  0.77
Si  7.50  8.67  3.81
Si  1.86 -9.76  6.88
Si -1.88 -11.91  0.76
Si -1.87  9.75  6.89
Si -3.77 -10.84  3.81
Si 11.26  2.19  3.83
Si -11.26  4.35  0.74
Si -1.87 -9.76  6.89
Si -1.87  3.25 -11.50
Si  9.38  5.45 -5.36
Si  1.90 -3.27 -11.49
Si -7.51  4.34 -8.43
Si  7.52  4.33 -8.43
Si  0.01 -8.65 -8.46
Si  9.39  7.59  0.76
Si -7.50 -6.50  6.91
Si -11.27  2.19  3.83
Si  1.89 -11.93  0.77
Si  9.39  3.25  6.91
Si 11.27  4.35  0.74
Si  9.39 -3.24  6.92
Si  1.86  3.25 -11.52
Si -7.50  6.51  6.92
Si -9.40  5.42 -5.38
Si -9.42 -3.25  6.89
Si -3.79 -0.00 -11.51
Si -7.51  8.70  3.84
Si  7.54 -6.52  6.90
Si -9.36 -7.57 -3.07
Si  0.00 10.83 -6.11
Si -9.36  5.43  6.12
Si  1.86 -11.91  3.05
Si  1.86  1.10 12.25
Si  9.39  5.43  6.10
Si 11.25 -4.34 -3.07
Si -11.26  4.32  3.09
Si 11.27  4.32  3.09
Si -0.01  2.16 -12.27
Si  9.39 -7.58 -3.10
Si -0.01 -10.85  6.12
Si  9.41 -5.42 -6.11
Si -1.85 -11.93  3.09
Si  1.90 -1.07 -12.27
Si -11.27 -4.34 -3.07
Si -9.40 -5.41 -6.14
Si -1.87 11.93 -3.10
Si -9.40  7.60  3.05
Si  1.90 11.93 -3.07
Si  9.41  7.58  3.09
Si -1.85  1.08 12.29
Si  0.00 -2.18 12.28
Si -1.87 -1.08 -12.29
Si -7.48 -2.15  9.94
Si -5.62  7.57 -8.42
Si  7.50 -2.15  9.96
Si 11.25 -4.34  3.81
Si -1.84  7.60  9.94
Si  5.64  7.57 -8.42
Si  7.51  8.66 -5.36
Si -1.86 11.92  3.81
Si 11.25  2.16 -5.38
Si  1.88 11.91  3.84
Si -3.77 -8.65 -8.44
Si  9.40 -7.58  3.81
Si  1.86  7.61  9.96
Si -3.76 -10.84 -5.36
Si -7.50  8.67 -5.39
Si -9.39 -7.59  3.84
Si -11.28 -4.34  3.81
Si -5.62 -5.44  9.97
Si  3.77 -10.84 -5.39
Si  3.79 -8.65 -8.45
Si -9.40  1.10 -8.44
Si  5.64 -5.44  9.97
Si -11.28  2.16 -5.38
Si  9.42  1.10 -8.45
Si -7.49 -8.66 -6.12
Si  0.00 12.98  0.03
Si -11.25  6.50  0.00
Si  3.74  2.15 -12.25
Si -11.25 -2.16 -6.13
Si -3.75 10.82 -6.13
Si -0.00 -4.32 -12.26
Si  7.52  8.66  6.11
Si -3.74 -10.85  6.11
Si -3.75 -2.18 12.26
Si  0.01 -13.01  0.00
Si 11.26  2.19  6.13
Si -7.53  8.66  6.14
Si -11.26  2.19  6.13
Si  0.01  4.35 12.26
Si 11.28 -2.16 -6.13
Si  3.77 10.85 -6.12
Si  3.74 -10.85  6.14
Si -11.26 -6.52  0.03
Si 11.28  6.50  0.00
Si  7.51 -8.68 -6.13
Si 11.26 -6.52  0.03
Si -3.74  2.16 -12.29
Si  3.77 -2.16 12.28
Si 11.23 -4.31 -5.35
Si  7.51 10.80  0.76
Si 11.25 -6.48 -2.26
Si  5.63  9.74  6.87
Si -5.63  9.74  6.87
Si 11.26 -0.01  6.87
Si  5.61 -3.25 -11.49
Si -11.27 -0.01  6.87
Si  7.51  4.30  9.96
Si -11.27 -6.48 -2.26
Si -9.39 -7.58 -5.34
