500
set: 389.00  0.00  0.00
Si -0.03 -0.06  0.01
Si  1.75  1.01  0.77
Si -0.04  0.00 -2.23
Si -0.04 -2.16  0.76
Si -1.90  1.05  0.80
Si  1.80  3.17 -0.00
Si -1.86 -1.04 -2.96
Si  3.65  0.07 -0.07
Si -1.82  3.20  0.04
Si  1.85 -1.10 -2.99
Si  0.09  2.17 -3.00
Si  0.09 -2.10  3.05
Si -1.85  1.04  3.06
Si  1.88 -3.21  0.04
Si  1.84  1.10  3.09
Si -3.75  0.07 -0.07
Si -1.90 -3.24 -0.00
Si -3.68 -2.07  0.68
Si -0.04  2.14  3.72
Si -1.77  3.20 -2.24
Si  3.72 -2.07  0.68
Si -1.75 -3.21 -2.30
Si -1.77 -1.07  3.80
Si  3.67  0.00 -2.33
Si  1.95 -1.07  3.75
Si  1.93 -3.21 -2.24
Si  1.95  3.20 -2.30
Si  0.02  4.34  0.68
Si -3.74  0.00 -2.33
Si -3.61 -2.10  2.96
Si -3.61  2.17 -3.08
Si  0.09  4.31  2.96
Si  0.09 -4.24 -3.08
Si  3.79 -2.10  2.96
Si  3.79  2.17 -3.08
Si  1.80 -1.08 -5.25
Si  5.50  1.05  0.80
Si  3.67  4.25  0.76
Si -0.04  2.11 -5.28
Si  3.67  2.14  3.82
Si -3.74  4.25  0.76
Si  1.80 -5.36  0.80
Si -0.04 -4.27  3.82
Si -1.95 -1.12 -5.28
Si -3.74  2.14  3.82
Si -1.95 -5.40  0.77
Si -5.65  1.01  0.77
Si -3.62 -4.24 -3.00
Si -0.05 -6.34 -0.07
Si -0.05  2.21  5.97
Si  5.54 -1.04 -2.96
Si -1.85  5.32 -2.99
Si  1.88  1.06 -6.00
Si  5.50 -3.24 -0.00
Si -5.52 -3.21  0.04
Si -3.62  4.31  3.05
Si -5.55 -1.10 -2.99
Si  1.80 -1.11  6.04
Si  1.84  5.37 -2.96
Si -1.86 -5.31  3.09
Si -1.90  1.03 -6.05
Si  5.55  1.04  3.06
Si  3.79 -4.24 -3.00
Si  5.58  3.20  0.04
Si -5.60  3.17 -0.00
Si -1.82 -1.08  6.08
Si  1.85 -5.37  3.06
Si -5.56  1.10  3.09
Si -0.05 -2.07 -6.12
Si -0.05  6.48 -0.07
Si  3.79  4.31  3.05
Si -5.46 -1.07  3.75
Si  0.02  0.07  6.72
Si -5.47 -3.21 -2.24
Si -5.46  3.20 -2.30
Si  3.67 -4.27  3.72
Si -1.75  5.34  3.75
Si -3.74 -4.27  3.72
Si -0.04 -6.41 -2.33
Si  0.02 -4.21 -5.37
Si -0.04  6.41 -2.33
Si  1.93  5.34  3.80
Si  5.63  3.20 -2.24
Si -3.68  2.21 -5.37
Si  5.63 -1.07  3.80
Si  5.65 -3.21 -2.30
Si  3.72  2.21 -5.37
Si  3.67  6.36  0.01
Si -0.03  4.22 -6.03
Si -3.73  6.36  0.01
Si  7.38 -0.06  0.01
Si  3.67  2.08  6.06
Si  3.67 -2.19 -6.03
Si -3.73  2.08  6.06
Si -3.73 -2.19 -6.03
Si -7.43 -0.06  0.01
Si  3.67 -6.47  0.01
Si -0.03 -4.33  6.06
Si -3.73 -6.47  0.01
Si  5.45 -1.12 -5.28
Si  1.75  5.29 -5.28
Si  7.37  0.00 -2.23
Si  5.45 -5.40  0.77
Si  3.67 -6.41 -2.23
Si -1.90  5.33 -5.25
Si -1.95  7.42  0.77
Si  3.67  6.41 -2.23
Si  7.37 -2.16  0.76
Si  1.80  7.46  0.80
Si  3.67 -0.03  6.81
Si  3.67 -4.30 -5.28
Si -3.74 -6.41 -2.23
Si -3.74  6.41 -2.23
Si -5.60 -1.08 -5.25
Si  1.75 -3.26  6.81
Si -1.95  3.15  6.81
Si  1.80  3.19  6.84
Si -3.74 -0.03  6.81
Si -7.44  0.00 -2.23
Si -3.74 -4.30 -5.28
Si -7.44 -2.16  0.76
Si -5.60 -5.36  0.80
Si -1.90 -3.22  6.84
Si  3.65 -4.20  5.97
Si -7.32  2.17 -3.00
Si -7.32 -2.10  3.05
Si -3.75 -4.20  5.97
Si  1.84 -7.45 -2.96
Si -5.52  1.06 -6.00
Si  5.50  1.03 -6.05
Si  5.55  5.32 -2.99
Si -1.82 -5.35 -6.00
Si -1.90  5.30  6.04
Si  1.85  7.45  3.06
Si  5.54 -5.31  3.09
Si -5.56  5.37 -2.96
Si -1.85 -7.51 -2.99
Si  1.80 -5.38 -6.05
Si  1.88  5.33  6.08
Si -5.55 -5.37  3.06
Si -5.60 -1.11  6.04
Si  5.58 -1.08  6.08
Si -1.86  7.51  3.09
Si  3.65  4.34 -6.12
Si  7.49  2.17 -3.00
Si  7.49 -2.10  3.05
Si -3.75  4.34 -6.12
Si  0.02 -8.48  0.68
Si  7.37  2.14  3.72
Si -5.47  5.34  3.80
Si -1.75 -7.48  3.75
Si  1.93  1.06 -8.29
Si -7.44  2.14  3.72
Si -1.75  1.06 -8.34
Si -7.38  4.34  0.68
Si  1.93 -7.48  3.80
Si  7.42  4.34  0.68
Si  5.65  5.34  3.75
Si -0.04 -2.13 -8.37
Si -7.32  4.31  2.96
Si -7.32 -4.24 -3.08
Si  0.09  0.03  9.01
Si  0.09 -8.52  2.96
Si  0.09  8.58 -3.08
Si  0.09  0.03 -9.12
Si  7.49  4.31  2.96
Si  7.49 -4.24 -3.08
Si  9.15  1.01  0.77
Si  5.45  7.42  0.77
Si  5.45  3.15  6.81
Si  5.50  5.33 -5.25
Si  3.67 -2.14 -8.27
Si  7.37  2.11 -5.28
Si -0.04  4.28 -8.27
Si -3.74 -2.14 -8.27
Si  7.37 -4.27  3.82
Si -0.04  6.38  6.81
Si -1.90 -7.50 -5.25
Si  5.50 -3.22  6.84
Si  3.67 -8.57  0.76
Si -0.04  8.55  3.82
Si -7.44  2.11 -5.28
Si  1.75 -7.54 -5.28
Si -5.65  5.29 -5.28
Si -5.60  7.46  0.80
Si -0.04 -6.44  6.81
Si -3.74 -8.57  0.76
Si -7.44 -4.27  3.82
Si -9.30  1.05  0.80
Si -5.60  3.19  6.84
Si -5.65 -3.26  6.81
Si  7.35 -6.34 -0.07
Si  1.84 -3.18 -9.00
Si  7.35  2.21  5.97
Si  9.20  3.17 -0.00
Si -3.62  0.03 -9.04
Si -3.62 -8.51  3.05
Si  5.50  5.30  6.04
Si -1.86  3.23 -9.00
Si  1.85  3.18 -9.03
Si -1.82  7.47 -6.00
Si  1.80  7.44 -6.05
Si -5.56 -7.45 -2.96
Si -9.22  3.20  0.04
Si -1.90  9.58 -0.00
Si -1.85 -3.23 -9.03
Si -9.27 -1.04 -2.96
Si -3.62  8.58 -3.00
Si -3.62  0.03  9.09
Si  7.35 -2.07 -6.12
Si  9.25 -1.10 -2.99
Si -5.55  7.45  3.06
Si -7.46 -6.34 -0.07
Si  1.88  9.61  0.04
Si  5.58 -5.35 -6.00
Si -5.52  5.33  6.08
Si -1.82 -9.62  0.04
Si  7.35  6.48 -0.07
Si  5.55 -7.51 -2.99
Si  3.79  0.03 -9.04
Si -9.26  1.04  3.06
Si -7.46  2.21  5.97
Si  3.79 -8.51  3.05
Si  9.24  1.10  3.09
Si  1.85  3.18  9.10
Si  1.80 -9.65 -0.00
Si  9.28 -3.21  0.04
Si  5.54  7.51  3.09
Si  1.88 -7.49  6.08
Si -1.90 -7.52  6.04
Si -1.85 -3.23  9.10
Si  1.84 -3.18  9.13
Si -5.60 -5.38 -6.05
Si  3.79  8.58 -3.00
Si  3.79  0.03  9.09
Si -9.30 -3.24 -0.00
Si -7.46 -2.07 -6.12
Si -1.86  3.23  9.13
Si -7.46  6.48 -0.07
Si -3.68 -6.34  6.72
Si  3.72 -6.34  6.72
Si -9.17  3.20 -2.24
Si -9.16 -3.21 -2.30
Si -7.38  0.07  6.72
Si -5.47  1.06 -8.29
Si -9.17 -1.07  3.80
Si -0.04 -2.13  9.76
Si -1.75  1.06  9.79
Si  7.42  0.07  6.72
Si -1.77 -5.35 -8.29
Si -5.47 -7.48  3.80
Si  3.67  8.55  3.72
Si -1.77 -9.62 -2.24
Si -3.68  6.48  6.72
Si -1.75  9.61 -2.30
Si  7.37 -6.41 -2.33
Si  7.37  6.41 -2.33
Si -3.74  8.55  3.72
Si  3.72  6.48  6.72
Si -7.38 -4.21 -5.37
Si  1.93  9.61 -2.24
Si  7.42 -4.21 -5.37
Si  1.95 -9.62 -2.30
Si  3.67  4.28 -8.37
Si  1.93  1.07  9.85
Si -7.44 -6.41 -2.33
Si -7.44  6.41 -2.33
Si  5.65 -7.48  3.75
Si  1.95 -5.35 -8.34
Si -3.74  4.28 -8.37
Si  9.34 -3.21 -2.24
Si  9.35 -1.07  3.75
Si  5.65  1.06 -8.34
Si  9.35  3.20 -2.30
Si  0.02  8.62 -5.37
Si  7.38  4.22 -6.03
Si -0.03  8.49  6.06
Si -7.43  4.22 -6.03
Si  7.38 -4.33  6.06
Si -0.03 -8.60 -6.03
Si -7.43 -4.33  6.06
Si  9.20 -1.08 -5.25
Si  3.67  8.52 -5.28
Si  5.50 -7.50 -5.25
Si  9.20 -5.36  0.80
Si -0.04 10.66  0.76
Si -3.74  8.52 -5.28
Si  3.66 -2.13  9.86
Si -0.04  4.28  9.86
Si -3.74 -2.13  9.86
Si -5.65 -7.54 -5.28
Si -9.35 -1.12 -5.28
Si -9.35 -5.40  0.77
Si  5.50  9.58 -0.00
Si -5.56 -3.18 -9.00
Si 11.05  0.07 -0.07
Si  5.54  3.23 -9.00
Si  9.20 -1.11  6.04
Si  0.09 -6.38 -9.04
Si  0.09 -10.65 -3.00
Si -5.55  3.18 -9.03
Si  3.65 -8.48 -6.12
Si -5.52  9.61  0.04
Si  5.55 -3.23 -9.03
Si -9.26  5.32 -2.99
Si  9.24  5.37 -2.96
Si  5.58  7.47 -6.00
Si -9.22 -1.08  6.08
Si  3.65  8.62  5.97
Si  0.09  6.44 -9.04
Si  5.50 -7.52  6.04
Si  0.09 -6.38  9.09
Si -5.60  7.44 -6.05
Si -3.75 -8.48 -6.12
Si  9.28  1.06 -6.00
Si -5.52 -7.49  6.08
Si -9.27 -5.31  3.09
Si -5.55  3.18  9.10
Si  9.25 -5.37  3.06
Si  5.58 -9.62  0.04
Si -3.76  8.62  5.97
Si  5.55 -3.23  9.10
Si  0.09 10.72  3.05
Si  0.09  6.44  9.09
Si -9.30  1.03 -6.05
Si -5.56 -3.18  9.13
Si  5.54  3.23  9.13
Si -11.16  0.07 -0.07
Si -5.60 -9.65 -0.00
Si -9.16  5.34  3.75
Si -7.38 -8.48  0.68
Si  3.67  4.28  9.76
Si -5.47  9.61 -2.24
Si  7.42 -8.48  0.68
Si -3.74  4.28  9.76
Si -11.08 -2.07  0.68
Si -5.46 -9.62 -2.30
Si -1.77  7.47 -8.29
Si -0.04 -10.68  3.72
Si 11.07  0.00 -2.33
Si -5.46 -5.35 -8.34
Si -5.47  1.07  9.85
Si  1.95 -5.35  9.79
Si 11.12 -2.07  0.68
Si -1.77 -5.34  9.85
Si  5.65  1.06  9.79
Si  7.37 -2.13 -8.37
Si  5.63 -5.35 -8.29
Si  1.95  7.47 -8.34
Si  5.63 -9.62 -2.24
Si -11.14  0.00 -2.33
Si  5.65  9.61 -2.30
Si -3.68 10.75  0.68
Si  3.72 10.75  0.68
Si -7.44 -2.13 -8.37
Si  9.34  5.34  3.80
Si  0.02  0.07 -11.41
Si -11.02 -2.10  2.96
Si -7.32  0.03  9.01
Si -7.32 -8.52  2.96
Si -3.61 -6.38  9.01
Si -11.02  2.17 -3.08
Si -3.61  6.44  9.01
Si -3.61 -10.65 -3.08
Si  3.79 -6.38  9.01
Si -7.32  8.58 -3.08
Si -3.61 10.72  2.96
Si -7.32  0.03 -9.12
Si  3.79  6.44  9.01
Si -3.61 -6.38 -9.12
Si  7.49  0.03  9.01
Si  3.79 -10.65 -3.08
Si  7.49 -8.52  2.96
Si -3.61  6.44 -9.12
Si  3.79 10.72  2.96
Si  3.79 -6.38 -9.12
Si 11.19 -2.10  2.96
Si  3.79  6.44 -9.12
Si  7.49  8.58 -3.08
Si  7.49  0.03 -9.12
Si 11.19  2.17 -3.08
Si  9.15  5.29 -5.28
Si  1.80  3.19 -11.29
Si  9.15 -3.26  6.81
Si  1.75  9.56  6.81
Si  7.37  4.28 -8.27
Si  9.20  7.46  0.80
Si 11.07  4.25  0.76
Si  7.37  6.38  6.81
Si -1.90 -3.22 -11.29
Si -0.04 -8.55 -8.27
Si 11.07  2.14  3.82
Si  9.20  3.19  6.84
Si  3.67 -0.03 -11.32
Si  1.75 -3.26 -11.32
Si -1.95  3.15 -11.32
Si  7.37  8.55  3.82
Si -7.44  4.28 -8.27
Si  7.37 -6.44  6.81
Si  3.67 -10.68  3.82
Si -3.74 -0.03 -11.32
Si -7.44  6.38  6.81
Si -9.30  5.33 -5.25
Si -1.90  9.60  6.84
Si -0.04 -10.71 -5.28
Si -3.74 -10.68  3.82
Si -11.14  4.25  0.76
Si -1.90 -11.77  0.80
Si  1.80 -9.63  6.84
Si -7.44  8.55  3.82
Si -7.44 -6.44  6.81
Si  1.75 -11.81  0.77
Si -9.35  7.42  0.77
Si -11.14  2.14  3.82
Si -1.95 -9.67  6.81
Si -9.35  3.15  6.81
Si -9.30 -3.22  6.84
Si -0.05 -10.61  5.97
Si -11.02 -4.24 -3.00
Si -0.05 -2.06 12.01
Si -11.02  4.31  3.05
Si -1.82 -1.08 -12.05
Si  9.24 -7.45 -2.96
Si -9.22 -5.35 -6.00
Si  1.85 11.72 -2.99
Si  9.20 -5.38 -6.05
Si  1.84 -11.72  3.09
Si  9.25  7.45  3.06
Si  1.80 -1.11 -12.09
Si -1.90  1.03 12.08
Si -9.25 -7.51 -2.99
Si -1.86 11.78 -2.96
Si -9.30  5.30  6.04
Si -1.85 -11.78  3.06
Si  9.28  5.33  6.08
Si  1.88  1.06 12.12
Si -9.27  7.51  3.09
Si 11.19 -4.24 -3.00
Si -0.05  2.21 -12.16
Si 11.19  4.31  3.05
Si -0.05 10.76 -6.12
Si -9.16 -7.48  3.75
Si  7.37 -2.13  9.76
Si -5.46 -5.35  9.79
Si -9.16  1.06 -8.34
Si 11.07 -4.27  3.72
Si -3.68 -10.62 -5.37
Si -7.44 -2.13  9.76
Si -5.46  7.47 -8.34
Si  3.72 -10.62 -5.37
Si  1.95  7.47  9.79
Si -1.77 11.75  3.80
Si  1.95 11.75  3.75
Si -1.77  7.48  9.85
Si -11.14 -4.27  3.72
Si  5.63  7.47 -8.29
Si  3.67 -8.54 -8.37
Si -11.08  2.21 -5.37
Si  9.34  1.06 -8.29
Si -3.74 -8.54 -8.37
Si  5.63 -5.34  9.85
Si 11.12  2.21 -5.37
Si -7.38  8.62 -5.37
Si  9.34 -7.48  3.80
Si  7.42  8.62 -5.37
Si  3.67 10.63 -6.03
Si -0.03 12.77  0.01
Si 11.08  6.36  0.01
Si  7.38  8.49  6.06
Si -3.73 10.63 -6.03
Si  3.67  2.08 -12.07
Si 11.08  2.08  6.06
Si 11.08 -2.19 -6.03
Si -3.73  2.08 -12.07
Si -7.43  8.49  6.06
Si -0.03  4.22 12.10
Si -11.13  6.36  0.01
Si 11.08 -6.47  0.01
Si -0.03 -4.33 -12.07
Si  3.67 -2.19 12.10
Si  7.38 -8.60 -6.03
Si -11.13  2.08  6.06
Si -11.13 -2.19 -6.03
Si -3.73 -2.19 12.10
Si  3.67 -10.74  6.06
Si -7.43 -8.60 -6.03
Si -11.13 -6.47  0.01
Si -0.03 -12.88  0.01
Si -3.73 -10.74  6.06
Si  5.45  3.15 -11.32
Si  5.50 -3.22 -11.29
Si 12.90  1.05  0.80
Si  9.16 -7.54 -5.28
Si -1.95 11.70 -5.28
Si  7.37 10.66  0.76
Si  1.80 11.73 -5.25
Si 11.07 -6.41 -2.23
Si 11.07  6.41 -2.23
Si 11.07 -0.03  6.81
Si 11.07 -4.30 -5.28
