500
set: 27.00  0.00  0.00
Si  0.00  0.00  0.00
Si -0.42 -0.14  2.41
Si  0.42  0.14 -2.41
Si -1.06  2.21  0.00
Si  1.06 -2.21  0.00
Si  2.82  0.00  0.00
Si -2.82  0.00  0.00
Si -1.76 -2.21  0.00
Si  1.76  2.21  0.00
Si -2.40  0.14 -2.41
Si  2.40 -0.14  2.41
Si -0.65  2.34 -2.41
Si  0.65 -2.34  2.41
Si  1.34  2.07  2.41
Si -1.34 -2.07 -2.41
Si  1.48 -2.07 -2.41
Si -1.48  2.07  2.41
Si  2.18  2.34 -2.41
Si -2.18 -2.34  2.41
Si  3.24  0.14 -2.41
Si -3.24 -0.14  2.41
Si -3.88  2.21  0.00
Si  3.88 -2.21  0.00
Si -0.69 -4.42  0.00
Si  0.69  4.42  0.00
Si -3.46  2.34 -2.41
Si  3.46 -2.34  2.41
Si -0.84 -0.27  4.82
Si  0.84  0.27 -4.82
Si -2.13  4.42  0.00
Si  2.13 -4.42  0.00
Si  0.27  4.28  2.41
Si -0.27 -4.28 -2.41
Si -4.58 -2.21  0.00
Si  4.58  2.21  0.00
Si -1.98  0.27 -4.82
Si  1.98 -0.27  4.82
Si -4.16 -2.07 -2.41
Si  4.16  2.07  2.41
Si -1.11 -4.55  2.41
Si  1.11  4.55 -2.41
Si -0.92 -1.94 -4.82
Si  0.92  1.94  4.82
Si -4.30  2.07  2.41
Si  4.30 -2.07 -2.41
Si  0.23 -2.48  4.82
Si -0.23  2.48 -4.82
Si  1.71 -4.55  2.41
Si -1.71  4.55 -2.41
Si -1.90  1.94  4.82
Si  1.90 -1.94 -4.82
Si  2.55 -4.28 -2.41
Si -2.55  4.28  2.41
Si -5.64  0.00  0.00
Si  5.64  0.00  0.00
Si -3.51 -4.42  0.00
Si  3.51  4.42  0.00
Si -5.22  0.14 -2.41
Si  5.22 -0.14  2.41
Si  3.09  4.28  2.41
Si -3.09 -4.28 -2.41
Si -2.60 -2.48  4.82
Si  2.60  2.48 -4.82
Si -5.00 -2.34  2.41
Si  5.00  2.34 -2.41
Si  3.66  0.27 -4.82
Si -3.66 -0.27  4.82
Si -3.04  2.48 -4.82
Si  3.04 -2.48  4.82
Si -0.15  4.15  4.82
Si  0.15 -4.15 -4.82
Si -3.74 -1.94 -4.82
Si  3.74  1.94  4.82
Si  3.93  4.55 -2.41
Si -3.93 -4.55  2.41
Si  6.06  0.14 -2.41
Si -6.06 -0.14  2.41
Si  4.95 -4.42  0.00
Si -4.95  4.42  0.00
Si -0.37  6.62  0.00
Si  0.37 -6.62  0.00
Si  4.80 -0.27  4.82
Si -4.80  0.27 -4.82
Si -1.29  4.69 -4.82
Si  1.29 -4.69  4.82
Si  4.53 -4.55  2.41
Si -4.53  4.55 -2.41
Si  1.53  4.69 -4.82
Si -1.53 -4.69  4.82
Si  2.67  4.15  4.82
Si -2.67 -4.15 -4.82
Si  0.79 -6.49 -2.41
Si -0.79  6.49  2.41
Si  2.97 -4.15 -4.82
Si -2.97  4.15  4.82
Si  4.72 -1.94 -4.82
Si -4.72  1.94  4.82
Si  6.71 -2.21  0.00
Si -6.71  2.21  0.00
Si -2.45 -6.62  0.00
Si  2.45  6.62  0.00
Si  6.29 -2.34  2.41
Si -6.29  2.34 -2.41
Si  0.05  6.76 -2.41
Si -0.05 -6.76  2.41
Si -2.03 -6.49 -2.41
Si  2.03  6.49  2.41
Si -5.37  4.28  2.41
Si  5.37 -4.28 -2.41
Si -1.26 -0.41  7.23
Si  1.26  0.41 -7.23
Si  3.19 -6.62  0.00
Si -3.19  6.62  0.00
Si -1.56  0.41 -7.23
Si  1.56 -0.41  7.23
Si  0.50  1.80  7.23
Si -0.50 -1.80 -7.23
Si -5.42 -2.48  4.82
Si  5.42  2.48 -4.82
Si  6.98  2.07  2.41
Si -6.98 -2.07 -2.41
Si -5.91 -4.28 -2.41
Si  5.91  4.28  2.41
Si -0.20 -2.61  7.23
Si  0.20  2.61 -7.23
Si -2.77  6.76 -2.41
Si  2.77 -6.76  2.41
Si -7.40 -2.21  0.00
Si  7.40  2.21  0.00
Si  6.33  4.42  0.00
Si -6.33 -4.42  0.00
Si  2.87  6.76 -2.41
Si -2.87 -6.76  2.41
Si  7.12 -2.07 -2.41
Si -7.12  2.07  2.41
Si -2.32  1.80  7.23
Si  2.32 -1.80 -7.23
Si  3.61 -6.49 -2.41
Si -3.61  6.49  2.41
Si -4.11  4.69 -4.82
Si  4.11 -4.69  4.82
Si -5.87  2.48 -4.82
Si  5.87 -2.48  4.82
Si -4.35 -4.69  4.82
Si  4.35  4.69 -4.82
Si -1.21  6.35  4.82
Si  1.21 -6.35 -4.82
Si  6.48  0.27 -4.82
Si -6.48 -0.27  4.82
Si  2.62 -2.61  7.23
Si -2.62  2.61 -7.23
Si -1.61 -6.35 -4.82
Si  1.61  6.35  4.82
Si -3.32 -1.80 -7.23
Si  3.32  1.80  7.23
Si -3.02 -2.61  7.23
Si  3.02  2.61 -7.23
Si -0.57  4.01  7.23
Si  0.57 -4.01 -7.23
Si  4.08  0.41 -7.23
Si -4.08 -0.41  7.23
Si -6.56 -1.94 -4.82
Si  6.56  1.94  4.82
Si -8.04  0.14 -2.41
Si  8.04 -0.14  2.41
Si -5.49 -4.15 -4.82
Si  5.49  4.15  4.82
Si  0.47  6.89 -4.82
Si -0.47 -6.89  4.82
Si  4.85  6.49  2.41
Si -4.85 -6.49 -2.41
Si  8.46  0.00  0.00
Si -8.46  0.00  0.00
Si  5.27  6.62  0.00
Si -5.27 -6.62  0.00
Si -4.38  0.41 -7.23
Si  4.38 -0.41  7.23
Si  6.75  4.55 -2.41
Si -6.75 -4.55  2.41
Si  7.82  2.34 -2.41
Si -7.82 -2.34  2.41
Si -2.25 -4.01 -7.23
Si  2.25  4.01  7.23
Si -5.79  4.15  4.82
Si  5.79 -4.15 -4.82
Si  0.87 -4.82  7.23
Si -0.87  4.82 -7.23
Si -2.35  6.89 -4.82
Si  2.35 -6.89  4.82
Si -1.95 -4.82  7.23
Si  1.95  4.82 -7.23
Si -7.77  4.42  0.00
Si  7.77 -4.42  0.00
Si -3.39  4.01  7.23
Si  3.39 -4.01 -7.23
Si  4.03 -6.35 -4.82
Si -4.03  6.35  4.82
Si  1.38  8.83  0.00
Si -1.38 -8.83  0.00
Si  6.01 -6.62  0.00
Si -6.01  6.62  0.00
Si -1.44  8.83  0.00
Si  1.44 -8.83  0.00
Si  7.35 -4.55  2.41
Si -7.35  4.55 -2.41
Si  7.62 -0.27  4.82
Si -7.62  0.27 -4.82
Si -3.29 -6.89  4.82
Si  3.29  6.89 -4.82
Si -5.14  1.80  7.23
Si  5.14 -1.80 -7.23
Si  0.96  8.70  2.41
Si -0.96 -8.70 -2.41
Si -5.59  6.76 -2.41
Si  5.59 -6.76  2.41
Si -4.43 -6.35 -4.82
Si  4.43  6.35  4.82
Si  5.69  6.76 -2.41
Si -5.69 -6.76  2.41
Si -7.54  1.94  4.82
Si  7.54 -1.94 -4.82
Si  8.88  0.14 -2.41
Si -8.88 -0.14  2.41
Si  1.86 -8.70 -2.41
Si -1.86  8.70  2.41
Si  1.02 -8.97  2.41
Si -1.02  8.97 -2.41
Si -5.45  2.61 -7.23
Si  5.45 -2.61  7.23
Si -3.69  4.82 -7.23
Si  3.69 -4.82  7.23
Si -6.43  6.49  2.41
Si  6.43 -6.49 -2.41
Si  1.80  8.97 -2.41
Si -1.80 -8.97  2.41
Si  8.19 -4.28 -2.41
Si -8.19  4.28  2.41
Si  1.19  6.22  7.23
Si -1.19 -6.22 -7.23
Si -5.83 -2.61  7.23
Si  5.83  2.61 -7.23
Si -6.14 -1.80 -7.23
Si  6.14  1.80  7.23
Si -6.93  4.69 -4.82
Si  6.93 -4.69  4.82
Si  1.63 -6.22 -7.23
Si -1.63  6.22  7.23
Si -5.07 -4.01 -7.23
Si  5.07  4.01  7.23
Si -9.11  2.34 -2.41
Si  9.11 -2.34  2.41
Si -1.14  0.54 -9.64
Si  1.14 -0.54  9.64
Si -9.53  2.21  0.00
Si  9.53 -2.21  0.00
Si -4.20 -8.83  0.00
Si  4.20  8.83  0.00
Si -3.78 -8.70 -2.41
Si  3.78  8.70  2.41
Si -0.08 -1.67 -9.64
Si  0.08  1.67  9.64
Si  1.68  0.54 -9.64
Si -1.68 -0.54  9.64
Si -4.26  8.83  0.00
Si  4.26 -8.83  0.00
Si -7.17 -4.69  4.82
Si  7.17  4.69 -4.82
Si  0.54  8.56  4.82
Si -0.54 -8.56 -4.82
Si -8.24 -2.48  4.82
Si  8.24  2.48 -4.82
Si  5.17 -6.89  4.82
Si -5.17  6.89 -4.82
Si -4.77 -4.82  7.23
Si  4.77  4.82 -7.23
Si -6.90 -0.41  7.23
Si  6.90  0.41 -7.23
Si  8.73  4.28  2.41
Si -8.73 -4.28 -2.41
Si -0.61 -2.75  9.64
Si  0.61  2.75 -9.64
Si -3.84  8.97 -2.41
Si  3.84 -8.97  2.41
Si -2.28  8.56  4.82
Si  2.28 -8.56 -4.82
Si -0.89 -7.03  7.23
Si  0.89  7.03 -7.23
Si  9.15  4.42  0.00
Si -9.15 -4.42  0.00
Si  2.74 -1.67 -9.64
Si -2.74  1.67  9.64
Si -4.68  8.70  2.41
Si  4.68 -8.70 -2.41
Si  2.90  1.67  9.64
Si -2.90 -1.67 -9.64
Si  7.20 -0.41  7.23
Si -7.20  0.41 -7.23
Si -8.69  2.48 -4.82
Si  8.69 -2.48  4.82
Si  2.21 -2.75  9.64
Si -2.21  2.75 -9.64
Si -1.93  7.03 -7.23
Si  1.93 -7.03  7.23
Si -9.80 -2.07 -2.41
Si  9.80  2.07  2.41
Si  0.60 -9.10  4.82
Si -0.60  9.10 -4.82
Si -7.67 -6.49 -2.41
Si  7.67  6.49  2.41
Si  6.21 -4.01 -7.23
Si -6.21  4.01  7.23
Si  4.01  6.22  7.23
Si -4.01 -6.22 -7.23
Si  4.62  8.97 -2.41
Si -4.62 -8.97  2.41
Si -3.36 -8.56 -4.82
Si  3.36  8.56  4.82
Si  6.11  6.89 -4.82
Si -6.11 -6.89  4.82
Si -3.96  0.54 -9.64
Si  3.96 -0.54  9.64
Si -0.99  3.88  9.64
Si  0.99 -3.88 -9.64
Si  9.95 -2.07 -2.41
Si -9.95  2.07  2.41
Si -10.22 -2.21  0.00
Si 10.22  2.21  0.00
Si -8.09 -6.62  0.00
Si  8.09  6.62  0.00
Si  8.31  4.15  4.82
Si -8.31 -4.15 -4.82
Si -9.30 -0.27  4.82
Si  9.30  0.27 -4.82
Si  6.85 -6.35 -4.82
Si -6.85  6.35  4.82
Si  4.45 -6.22 -7.23
Si -4.45  6.22  7.23
Si  2.22  9.10 -4.82
Si -2.22 -9.10  4.82
Si -1.83 -3.88 -9.64
Si  1.83  3.88  9.64
Si -3.44 -2.75  9.64
Si  3.44  2.75 -9.64
Si  4.50  0.54 -9.64
Si -4.50 -0.54  9.64
Si  8.61 -4.15 -4.82
Si -8.61  4.15  4.82
Si -9.38 -1.94 -4.82
Si  9.38  1.94  4.82
Si  3.71  7.03 -7.23
Si -3.71 -7.03  7.23
Si  7.25  6.35  4.82
Si -7.25 -6.35 -4.82
Si  0.45 -4.96  9.64
Si -0.45  4.96 -9.64
Si  3.42 -9.10  4.82
Si -3.42  9.10 -4.82
Si -6.51  4.82 -7.23
Si  6.51 -4.82  7.23
Si -9.57 -4.55  2.41
Si  9.57  4.55 -2.41
Si  7.96 -1.80 -7.23
Si -7.96  1.80  7.23
Si  8.83 -6.62  0.00
Si -8.83  6.62  0.00
Si -0.32 -11.04  0.00
Si  0.32 11.04  0.00
Si -8.41  6.76 -2.41
Si  8.41 -6.76  2.41
Si  3.81 -3.88 -9.64
Si -3.81  3.88  9.64
Si -5.10  8.56  4.82
Si  5.10 -8.56 -4.82
Si -2.37 -4.96  9.64
Si  2.37  4.96 -9.64
Si  0.12  8.43  7.23
Si -0.12 -8.43 -7.23
Si 10.86 -0.14  2.41
Si -10.86  0.14 -2.41
Si -8.51 -6.76  2.41
Si  8.51  6.76 -2.41
Si  4.75 -7.03  7.23
Si -4.75  7.03 -7.23
Si -10.64 -2.34  2.41
Si 10.64  2.34 -2.41
Si -0.10 10.90  2.41
Si  0.10 -10.90 -2.41
Si  6.60  8.70  2.41
Si -6.60 -8.70 -2.41
Si -5.03  2.75 -9.64
Si  5.03 -2.75  9.64
Si -5.56  1.67  9.64
Si  5.56 -1.67 -9.64
Si 11.28  0.00  0.00
Si -11.28  0.00  0.00
Si  7.02  8.83  0.00
Si -7.02 -8.83  0.00
Si -8.27  2.61 -7.23
Si  8.27 -2.61  7.23
Si  7.08 -8.83  0.00
Si -7.08  8.83  0.00
Si  2.50 -11.04  0.00
Si -2.50 11.04  0.00
Si  3.27 -4.96  9.64
Si -3.27  4.96 -9.64
Si -5.72 -1.67 -9.64
Si  5.72  1.67  9.64
Si  4.65  3.88  9.64
Si -4.65 -3.88 -9.64
Si 10.17 -4.55  2.41
Si -10.17  4.55 -2.41
Si -6.66  8.97 -2.41
Si  6.66 -8.97  2.41
Si  2.70 -8.43 -7.23
Si -2.70  8.43  7.23
Si -0.77 -6.08 -9.64
Si  0.77  6.08  9.64
Si  7.89  4.01  7.23
Si -7.89 -4.01 -7.23
Si  0.74 11.18 -2.41
Si -0.74 -11.18  2.41
Si  5.04  9.10 -4.82
Si -5.04 -9.10  4.82
Si 10.59 -4.42  0.00
Si -10.59  4.42  0.00
Si  3.14 11.04  0.00
Si -3.14 -11.04  0.00
Si -2.94 -8.43 -7.23
Si  2.94  8.43  7.23
Si -2.72 -10.90 -2.41
Si  2.72 10.90  2.41
Si -10.44  0.27 -4.82
Si 10.44 -0.27  4.82
Si  7.59  4.82 -7.23
Si -7.59 -4.82  7.23
Si -2.92 10.90  2.41
Si  2.92 -10.90 -2.41
Si  9.25 -6.49 -2.41
Si -9.25  6.49  2.41
Si -8.66 -2.61  7.23
Si  8.66  2.61 -7.23
Si  2.05 -6.08 -9.64
Si -2.05  6.08  9.64
Si -10.37  1.94  4.82
Si 10.37 -1.94 -4.82
Si  7.99 -6.89  4.82
Si -7.99  6.89 -4.82
Si  6.18  8.56  4.82
Si -6.18 -8.56 -4.82
Si -2.08 11.18 -2.41
Si  2.08 -11.18  2.41
Si  8.96  1.80  7.23
Si -8.96 -1.80 -7.23
Si -6.83 -6.22 -7.23
Si  6.83  6.22  7.23
Si -0.18  9.24 -7.23
Si  0.18 -9.24  7.23
Si  7.50 -8.70 -2.41
Si -7.50  8.70  2.41
Si  6.78 -0.54  9.64
Si -6.78  0.54 -9.64
Si  0.52 -10.77 -4.82
Si -0.52 10.77  4.82
Si  6.25  2.75 -9.64
Si -6.25 -2.75  9.64
Si  9.75 -4.69  4.82
Si -9.75  4.69 -4.82
Si  7.44  8.97 -2.41
Si -7.44 -8.97  2.41
Si 11.70  0.14 -2.41
Si -11.70 -0.14  2.41
Si -3.59 -6.08 -9.64
Si  3.59  6.08  9.64
Si  3.56 11.18 -2.41
Si -3.56 -11.18  2.41
Si  7.27 -6.22 -7.23
Si -7.27  6.22  7.23
Si -6.53 -7.03  7.23
Si  6.53  7.03 -7.23
Si -5.19 -4.96  9.64
Si  5.19  4.96 -9.64
Si  2.30 10.77  4.82
Si -2.30 -10.77 -4.82
Si -2.64 -9.24  7.23
Si  2.64  9.24 -7.23
Si  6.24 -9.10  4.82
Si -6.24  9.10 -4.82
Si  9.99  4.69 -4.82
Si -9.99 -4.69  4.82
Si 11.01 -4.28 -2.41
Si -11.01  4.28  2.41
Si -1.31 -7.16  9.64
Si  1.31  7.16 -9.64
Si -0.72  0.68 -12.05
Si  0.72 -0.68 12.05
Si  1.51 -7.16  9.64
Si -1.51  7.16 -9.64
Si -3.00  9.24 -7.23
Si  3.00 -9.24  7.23
Si  7.32  0.54 -9.64
