500
set: 1451.00  0.00  0.00
Si  0.85 -0.18  0.79
Si -0.31 -0.91 -1.04
Si -1.56  0.43  1.02
Si  0.68  2.30 -0.30
Si  0.39 -0.03 -2.69
Si  1.68  1.88 -1.67
Si -0.27  2.33  2.05
Si  2.35 -2.38 -0.30
Si  1.40 -2.35  2.05
Si -2.99 -1.69  0.30
Si -1.79 -2.92 -0.77
Si -2.26 -0.46  2.67
Si -2.86  0.64 -2.04
Si  0.40 -1.93  3.41
Si -3.46  1.76 -0.77
Si  3.44  1.09  1.67
Si  2.80 -0.63 -2.92
Si -1.04 -2.14 -3.41
Si  0.11 -4.26  1.02
Si -1.98  3.77 -1.04
Si -1.27  2.75  3.41
Si -1.10  0.27  4.50
Si -0.82  4.50  0.79
Si  2.84  2.21  2.94
Si  3.35 -2.81 -1.67
Si -1.19 -4.04 -2.04
Si  3.60  3.00  0.30
Si -1.51  1.31 -4.48
Si -2.71  2.55 -3.41
Si -3.14 -3.59  1.67
Si  1.13  4.05 -2.92
Si  2.63  1.85 -4.01
Si  4.79  1.76 -0.77
Si  1.64 -1.36 -4.75
Si -4.81  1.09  1.67
Si  3.31 -1.23  4.01
Si -3.74 -2.47  2.94
Si -1.28  4.66 -2.69
Si  5.26 -1.69  0.30
Si  2.52 -4.86  0.79
Si  1.65  3.45  4.01
Si -4.66  3.00  0.30
Si  0.16 -3.37 -4.48
Si  1.49  1.54  5.38
Si  5.39  0.64 -2.04
Si  2.06 -4.71 -2.69
Si -0.03  3.32 -4.75
Si -0.91  0.19 -5.75
Si -0.59 -5.15  2.67
Si  1.35 -5.60 -1.04
Si -4.90 -2.81 -1.67
Si  4.51 -2.47  2.94
Si -3.51  0.88  4.74
Si -0.55 -1.90  5.76
Si -3.23  5.11  1.02
Si -5.45 -0.63 -2.92
Si  1.77  5.78  1.67
Si -3.95 -2.83 -4.01
Si  0.57 -4.41  4.50
Si -1.84 -3.81  4.74
Si -3.93  4.22  2.67
Si -5.90 -2.38 -0.30
Si  5.11 -3.59  1.67
Si -4.94 -1.23  4.01
Si -1.32 -6.37  0.30
Si  4.30 -2.83 -4.01
Si -5.41  2.21  2.94
Si  5.99 -0.46  2.67
Si  4.32  4.22  2.67
Si  3.63  1.43 -5.38
Si  4.74  0.88  4.74
Si -2.22  2.78  5.76
Si  0.01  6.57 -1.67
Si  6.69  0.43  1.02
Si  3.72  5.32 -2.04
Si  2.34 -0.48 -6.40
Si -2.95 -3.26 -5.38
Si  3.16 -3.14  5.38
Si  5.54  2.55 -3.41
Si -6.57  1.88 -1.67
Si -0.99  6.99 -0.30
Si  6.46 -2.92 -0.77
Si -3.78 -5.32 -2.92
Si -5.62  1.85 -4.01
Si  3.12  6.45 -0.77
Si  0.89  2.67  6.65
Si -4.62  1.43 -5.38
Si  5.02  5.11  1.02
Si -2.77  4.96  4.50
Si -4.53  5.32 -2.04
Si  0.76 -4.50 -5.75
Si  6.27  3.77 -1.04
Si  2.56 -2.02  6.65
Si -1.55 -1.48  7.12
Si -7.40 -0.18  0.79
Si -0.76  2.10 -7.12
Si -6.85 -2.35  2.05
Si  4.47 -5.32 -2.92
Si  4.04 -0.01  6.38
Si -5.73 -4.86  0.79
Si -1.94  7.02  2.05
Si -3.50 -1.08 -6.63
Si  1.17  6.90  2.94
Si  0.91 -2.59 -7.12
Si -4.21 -0.01  6.38
Si -0.12 -7.61 -0.77
Si  0.63 -6.82 -3.41
Si  0.67  4.21 -6.40
Si  2.07 -6.62  3.41
Si  0.96  6.54 -4.01
Si -3.27 -5.92  4.01
Si  1.37 -0.78  7.72
Si -7.57  2.30 -0.30
Si  3.07  5.56  4.74
Si  1.93  7.68  0.30
Si  3.07 -7.04  2.05
Si -2.58  4.87 -5.75
Si -2.07 -7.16  2.94
Si -5.09 -3.14  5.38
Si  7.94 -0.91 -1.04
Si -3.18  6.00 -4.48
Si  4.02 -7.07 -0.30
Si  3.08  3.60 -6.63
Si  6.74  1.31 -4.48
Si  5.30 -3.26 -5.38
Si  4.75 -1.08 -6.63
Si -6.19 -4.71 -2.69
Si -0.18  6.23  5.38
Si  6.98  2.75  3.41
Si -4.23 -7.07 -0.30
Si  0.44  0.86 -8.19
Si  2.37  4.67  6.38
Si -6.62 -1.36 -4.75
Si  7.21 -2.14 -3.41
Si -5.13  6.45 -0.77
Si -7.86 -0.03 -2.69
Si -2.54 -4.70  6.38
Si -3.23 -7.49 -1.67
Si  3.31 -6.05 -4.75
Si  1.96  6.11 -5.38
Si  7.06 -4.04 -2.04
Si -3.22  3.21  7.12
Si  7.16  0.27  4.50
Si -6.61  3.45  4.01
Si  7.98  2.33  2.05
Si -1.47 -8.28  1.67
Si -2.00 -3.29 -7.72
Si -0.30  3.90  7.72
Si  5.49  4.96  4.50
Si -3.67  1.40 -7.72
Si -8.56 -0.91 -1.04
Si -2.94  7.44  3.41
Si -7.12  4.05 -2.92
Si  4.99 -5.92  4.01
Si -5.91 -0.48 -6.40
Si  7.43  4.50  0.79
Si -7.85 -1.93  3.41
Si -6.76  1.54  5.38
Si -3.04  0.72  8.21
Si  6.03  2.78  5.76
Si  6.97  4.66 -2.69
Si  1.12 -6.59  5.76
Si -2.28 -7.52 -4.01
Si  6.41 -3.81  4.74
Si -6.48  5.78  1.67
Si  3.88  7.23 -3.41
Si -6.89 -5.60 -1.04
Si -5.18  5.56  4.74
Si -5.18 -7.04  2.05
Si -1.83 -5.77 -6.63
Si  0.48 -8.73 -2.04
Si -5.69 -2.02  6.65
Si  2.79  1.33  8.45
Si  5.07  6.00 -4.48
Si  8.64 -0.03 -2.69
Si -8.52  2.33  2.05
Si -0.02  8.13  4.01
Si  4.58  1.40 -7.72
Si -4.38  7.23 -3.41
Si  1.92  2.87 -8.46
Si  9.10 -0.18  0.79
Si  4.01 -5.16 -6.40
Si -4.95 -6.05 -4.75
Si -5.17  3.60 -6.63
Si  5.02 -7.49 -1.67
Si  1.78 -8.94  1.02
Si -1.38 -3.96  8.21
Si  8.93  2.30 -0.30
Si -0.54  8.74 -2.92
Si -8.14 -4.26  1.02
Si -4.25 -5.16 -6.40
Si -3.65  8.46 -1.04
Si  2.11 -3.83 -8.19
Si  5.03  3.21  7.12
Si -0.46  1.99  9.09
Si  7.34  0.19 -5.75
Si  3.58 -1.81 -8.46
Si  1.83 -8.06 -4.48
Si  0.12 -6.16  7.12
Si  6.93 -6.37  0.30
Si  5.67  4.87 -5.75
Si  8.36 -4.26  1.02
Si -1.70  8.01 -4.75
Si  8.65 -1.93  3.41
Si  1.04 -0.26 -9.46
Si -2.67  0.98 -9.09
Si -2.49  9.19  0.79
Si  1.21 -2.69  9.09
Si  7.66 -5.15  2.67
Si  6.31  7.02  2.05
Si  2.65  8.91  2.67
Si -6.18 -6.62  3.41
Si -1.28 -7.94 -5.38
Si  4.60  8.46 -1.04
Si -0.17 -8.49  4.74
Si  5.21  0.72  8.21
Si  5.31  7.44  3.41
Si  5.71 -4.70  6.38
Si  7.70 -1.90  5.76
Si -4.67 -1.81 -8.46
Si -3.79 -3.35  8.45
Si -8.09 -3.37 -4.48
Si -5.88  4.67  6.38
Si -1.00 -3.71 -9.09
Si -9.81  0.43  1.02
Si  6.70 -1.48  7.12
Si -2.50 -1.45  9.47
Si  6.18 -7.16  2.94
Si -7.68 -4.41  4.50
Si  3.04 -5.47  7.72
Si -0.78  7.35  6.65
Si -6.33  7.68  0.30
Si -1.23  5.54 -8.19
Si  8.22  3.32 -4.75
Si  7.26  6.99 -0.30
Si -3.42 -7.83  5.38
Si  8.41 -3.37 -4.48
Si -8.29  3.32 -4.75
Si -9.29 -2.14 -3.41
Si  4.46 -3.35  8.45
Si -2.43  6.78 -7.12
Si  9.65 -2.35  2.05
Si -5.46  1.33  8.45
Si -9.07  4.50  0.79
Si -2.95  9.34 -2.69
Si -3.89  7.47  5.76
Si  1.08 -9.83  2.67
Si  9.93  1.88 -1.67
Si  2.91  6.08 -7.72
Si -4.02 -6.70  6.65
Si -7.36  2.67  6.65
Si -6.29  6.11 -5.38
Si  2.09  0.44 10.09
Si -7.08  6.90  2.94
Si  4.23 -6.70  6.65
Si -6.88 -0.78  7.72
Si -9.35  0.27  4.50
Si  4.36  7.47  5.76
Si  2.24 -9.10  4.50
Si  3.35  9.80  1.02
Si  5.97 -7.52 -4.01
Si -4.06 -9.55  0.79
Si  2.05 10.01 -2.04
Si  1.12  6.01  8.45
Si  3.54  5.41  8.21
Si  3.73 -9.39 -2.69
Si  4.19 -9.55  0.79
Si -7.49 -4.50 -5.75
Si -0.63  4.42 -9.46
Si  6.25 -3.29 -7.72
Si -9.44 -4.04 -2.04
Si -9.52  2.75  3.41
Si -10.04 -2.92 -0.77
Si  0.61 -1.57 10.36
Si  2.58 -7.27 -7.12
Si -7.34 -2.59 -7.12
Si  7.49  2.10 -7.12
Si -1.55 -1.53 -10.34
Si -8.85 -5.15  2.67
Si -7.29  6.54 -4.01
Si  0.10 10.46  1.67
Si -2.11 -10.00 -2.92
Si  9.38  4.05 -2.92
Si  4.83 -7.83  5.38
Si -8.24  6.57 -1.67
Si  8.26  6.57 -1.67
Si -8.80 -1.90  5.76
Si  1.41  8.29 -6.63
Si  5.58  0.98 -9.09
Si -4.52 -9.39 -2.69
Si  3.02 -10.28 -1.04
Si -7.58  4.21 -6.40
Si -7.62 -6.82 -3.41
Si -5.22 -5.47  7.72
Si  4.08  3.23  9.47
Si -9.16  0.19 -5.75
Si -9.76  1.31 -4.48
Si  6.78 -8.28  1.67
Si -4.17  3.23  9.47
Si  8.82 -4.41  4.50
Si -5.60  8.91  2.67
Si -10.51 -0.46  2.67
Si 10.60 -2.38 -0.30
Si -1.06  3.12 10.36
Si  5.76  9.19  0.79
Si  6.42 -5.77 -6.63
Si -3.96 -0.93 -10.11
Si -4.71  5.41  8.21
Si -6.14 -3.83 -8.19
Si -9.53  4.66 -2.69
Si -6.34  2.87 -8.46
Si -10.23  3.77 -1.04
Si -1.00  8.89 -6.40
Si -4.90  9.80  1.02
Si  2.71 -4.95 -9.46
Si  4.29 -0.93 -10.11
Si  1.19  1.65 -10.83
Si  9.89 -1.36 -4.75
Si  0.35 -11.05  0.30
Si  5.30  9.34 -2.69
Si -3.00 -6.50 -8.46
Si -6.47 -8.94  1.02
Si  2.62  3.76 -10.11
Si  2.43 -9.18 -5.75
Si -0.33 -7.97 -7.72
Si  3.36  7.89  7.12
Si  8.13 -7.61 -0.77
Si  9.61 -5.60 -1.04
Si  5.75 -1.45  9.47
Si -5.34  6.08 -7.72
Si  9.90  3.45  4.01
Si  9.74  1.54  5.38
Si -6.42 -8.06 -4.48
Si  1.45 11.13 -0.77
Si -3.22  3.15 -10.34
Si -7.13 -6.59  5.76
Si  3.81  9.64  4.50
Si -0.83 -6.13  9.47
Si -11.11  0.64 -2.04
Si  0.42  5.13 10.09
Si -8.37 -7.61 -0.77
Si  0.70  9.36  6.38
Si  0.25  7.55 -8.46
Si -7.81  0.86 -8.19
Si -11.24 -1.69  0.30
Si  1.40 10.25  4.74
Si -0.87 -9.38  6.38
Si  6.55  8.01 -4.75
Si  3.91  5.66 -9.09
Si  6.88 -3.96  8.21
Si -3.50 -1.03 10.83
Si  5.82  6.78 -7.12
Si -1.60 -10.60  4.01
Si -0.58 -0.33 11.43
Si 11.05 -0.63 -2.92
Si -2.13  6.68  9.09
Si -1.66 11.25 -1.67
Si -9.57 -6.37  0.30
Si -4.43  9.64  4.50
Si  8.07  6.23  5.38
Si -4.34  5.66 -9.09
Si  3.76 -4.24 10.09
Si -5.23 -10.28 -1.04
Si -9.24  6.99 -0.30
Si  9.01 -4.50 -5.75
Si -1.72  0.95 -11.44
Si  2.86 -3.04 -10.83
Si  9.14  2.67  6.65
Si 10.31 -4.71 -2.69
Si -5.67 -7.27 -7.12
Si -9.01  2.10 -7.12
Si 11.09  2.21  2.94
Si 10.02  5.78  1.67
Si -4.89  7.89  7.12
Si  8.88 -6.82 -3.41
Si -1.97  8.59  7.72
Si 10.88  1.85 -4.01
Si  7.95  3.90  7.72
Si  8.92  4.21 -6.40
Si -10.96  2.55 -3.41
Si -10.09 -3.81  4.74
Si -8.43  6.23  5.38
Si -2.29 -5.61 -10.11
Si -6.01 -9.10  4.50
Si -7.04 -2.69  9.09
Si -6.16  0.44 10.09
Si -4.49 -4.24 10.09
Si  3.08  3.66 10.83
Si 10.77 -4.86  0.79
Si  4.00  9.56 -5.75
Si -2.12 -8.04  8.45
Si  6.97 -7.94 -5.38
Si 11.69  1.09  1.67
Si -7.77 -8.73 -2.04
Si  4.75 -1.03 10.83
Si -11.71  1.76 -0.77
Si  9.16 -2.59 -7.12
Si  5.25 -6.50 -8.46
Si -7.21 -0.26 -9.46
Si  5.03  3.15 -10.34
Si  0.29 -8.65  8.21
Si -4.25  9.56 -5.75
Si -0.71 11.22 -4.01
Si -6.20 10.01 -2.04
Si -0.50 11.58  2.94
Si  8.69  0.86 -8.19
Si -2.66 11.67 -0.30
Si  9.21  6.54 -4.01
Si  7.71  8.74 -2.92
Si -2.58 -9.85 -6.40
Si -5.54 -4.95 -9.46
Si -0.05 -3.74 -11.44
Si -2.56 -11.75 -0.30
Si  9.42  6.90  2.94
Si 11.60 -2.81 -1.67
Si  2.88 -7.38  9.09
Si -11.39 -3.59  1.67
Si  0.29 10.80 -5.38
Si  0.12 -6.22 -10.34
Si  3.40 10.68 -4.48
Si  6.14 -10.00 -2.92
Si  7.02  5.54 -8.19
Si  7.79  1.99  9.09
Si  2.39  0.41 -11.90
Si -8.55  3.90  7.72
Si -5.63  3.76 -10.11
Si -3.28 -10.73 -4.75
Si  7.25 -3.71 -9.09
Si -9.80 -1.48  7.12
Si -0.40 -11.84  2.94
Si  2.30 -11.51 -3.41
Si 11.85  3.00  0.30
Si  8.23  8.13  4.01
Si -10.47  2.78  5.76
Si -8.28  8.13  4.01
Si -5.82 -9.18 -5.75
Si 11.57 -1.23  4.01
Si -1.85 10.91  5.38
Si  2.28 -6.25 10.36
Si  0.84  1.78 12.16
Si  9.62 -0.78  7.72
Si  0.26 12.37  0.30
Si -1.83 -5.71 10.83
Si -0.16 -10.45 -6.63
Si 10.59 -0.48 -6.40
Si  3.74 -11.30  3.41
Si -1.56 -12.17 -1.67
Si  0.67 -8.39 -9.09
Si  3.78 -8.51 -8.19
Si -3.51 -11.72  2.05
Si  7.47  7.35  6.65
Si  1.55 -12.29 -0.77
Si  3.26  1.18 11.92
Si -3.61 11.70  2.05
Si  6.70 -1.53 -10.34
Si -2.25  4.35 11.43
Si -8.13 -6.16  7.12
Si -7.17 -9.83  2.67
Si -5.39 -3.04 -10.83
Si  8.73 -8.73 -2.04
Si  1.09 -5.02 11.43
Si -10.19  7.02  2.05
Si -5.17  3.66 10.83
Si -0.48  6.33 -10.83
Si -4.85 10.68 -4.48
Si  2.42  7.92  9.47
Si -7.13  6.01  8.45
Si  2.21 11.92 -3.41
Si -11.99 -2.47  2.94
Si  8.37 -6.16  7.12
Si -11.48  5.11  1.02
Si -6.84  8.29 -6.63
Si -4.47 -8.51 -8.19
Si -4.51 -11.30  3.41
Si  8.08 -8.49  4.74
Si -2.72 -2.27 -12.17
Si -11.76  0.88  4.74
Si 10.32 -6.62  3.41
Si -8.79  8.74 -2.92
Si  2.51 -2.90 12.16
Si -8.71  1.99  9.09
Si  4.97 -10.73 -4.75
Si  4.64 11.70  2.05
Si 10.18  7.68  0.30
Si  4.74 -11.72  2.05
Si  9.37 -6.59  5.76
Si -0.72  0.53 -12.80
Si  6.12  6.68  9.09
Si -11.20 -3.26 -5.38
Si 10.81 -2.02  6.65
Si -0.61 -12.20 -4.01
Si -8.42 -8.49  4.74
Si -3.33 -3.51 11.92
Si -9.72 -8.28  1.67
Si -5.37 -7.38  9.09
Si -11.02  4.96  4.50
Si -10.32 -7.16  2.94
Si  7.62  4.42 -9.46
Si  5.59 11.67 -0.30
Si  2.79 -11.27  5.76
