500
set: 460.00  0.00  0.00
Si  0.05  0.11  0.00
Si -0.08 -1.96  0.75
Si -1.84  1.05  0.69
Si  0.10  0.01 -2.25
Si  1.76  1.18  0.84
Si  3.50  0.06  0.02
Si -1.66 -1.12 -2.87
Si  1.73 -3.07  0.12
Si -1.76  0.97  2.92
Si -0.09  2.11 -2.92
Si -1.85 -3.09 -0.14
Si -0.09 -2.07  2.98
Si  1.76  3.17 -0.14
Si  1.85 -1.11 -2.98
Si -1.89  3.19  0.12
Si -3.73  0.06  0.02
Si  1.95  0.97  3.03
Si -3.53 -0.11 -2.18
Si  1.74 -3.15 -2.09
Si -1.87  3.11 -2.09
Si  1.85 -1.22  3.55
Si  1.85  2.95 -2.35
Si -3.60 -2.06  0.68
Si  0.08  1.98  3.72
Si  3.62 -2.06  0.68
Si  0.01  4.20  0.68
Si  3.69 -0.11 -2.18
Si -1.87 -1.06  3.81
Si -1.77 -3.31 -2.35
Si  0.09  4.01  2.89
Si -3.53  1.92 -3.01
Si -3.53 -2.25  2.89
Si  3.70  1.92 -3.01
Si  3.70 -2.25  2.89
Si  0.09 -4.33 -3.01
Si -1.85 -0.91 -5.06
Si -1.85 -5.08  0.84
Si -3.51  2.10  3.65
Si  5.39  1.05  0.69
Si  0.10 -4.16  3.65
Si  1.77 -5.21  0.69
Si  1.77 -1.04 -5.21
Si -0.08  2.21 -5.16
Si  3.53  4.30  0.75
Si  3.72  2.10  3.65
Si -5.46  1.18  0.84
Si -3.70  4.30  0.75
Si  1.76 -1.00  5.76
Si  1.73  1.11 -5.79
Si -5.28  0.97  3.03
Si  3.52 -4.15 -2.92
Si -0.12 -6.19  0.02
Si -1.76  5.14 -2.98
Si  5.38 -3.09 -0.14
Si  1.95  5.14 -2.87
Si  5.34  3.19  0.12
Si -0.12 -2.02 -5.88
Si  3.52  4.19  2.98
Si -5.38 -1.11 -2.98
Si  5.46  0.97  2.92
Si -3.70 -4.15 -2.92
Si -0.12  2.15  5.92
Si -5.50 -3.07  0.12
Si  1.85 -5.29  2.92
Si -1.66 -5.29  3.03
Si -5.46  3.17 -0.14
Si -0.12  6.32  0.02
Si -3.70  4.19  2.98
Si  5.56 -1.12 -2.87
Si -1.89 -0.98  6.02
Si -1.85  1.08 -6.04
Si -1.76  5.04  3.55
Si  0.08  6.15 -2.18
Si  5.36  3.11 -2.09
Si -5.38 -1.22  3.55
Si -5.38  2.95 -2.35
Si  0.01  0.03  6.58
Si -5.49 -3.15 -2.09
Si  5.36 -1.06  3.81
Si  0.01 -4.14 -5.22
Si  1.74  5.19  3.81
Si -3.53 -4.28  3.72
Si -3.60  2.12 -5.22
Si  3.62  2.12 -5.22
Si  0.08 -6.37 -2.18
Si  3.69 -4.28  3.72
Si  5.46 -3.31 -2.35
Si -3.57 -6.15  0.00
Si  3.66 -6.15  0.00
Si  0.05 -4.06  5.90
Si -3.57 -1.98 -5.90
Si -7.18  0.11  0.00
Si  3.66 -1.98 -5.90
Si -3.57  2.20  5.90
Si  7.27  0.11  0.00
Si  3.66  2.20  5.90
Si  0.05  4.28 -5.90
Si -3.57  6.37  0.00
Si  3.66  6.37  0.00
Si  5.38 -0.91 -5.06
Si  5.38 -5.08  0.84
Si  3.53 -4.05 -5.16
Si  7.14 -1.96  0.75
Si -7.12  0.01 -2.25
Si -3.51 -6.24 -2.25
Si  1.77  3.14  6.59
Si -1.84 -3.12  6.59
Si -3.70 -4.05 -5.16
Si  3.53  0.13  6.65
Si -3.51  6.27 -2.25
Si  1.77  7.31  0.69
Si -5.45 -5.21  0.69
Si  1.76  5.35 -5.06
Si  1.76 -2.99  6.74
Si -1.84  5.22 -5.21
Si  3.72 -6.24 -2.25
Si -7.31 -1.96  0.75
Si -3.70  0.13  6.65
Si -5.45 -1.04 -5.21
Si  3.72  6.27 -2.25
Si  7.33  0.01 -2.25
Si -1.85  7.44  0.84
Si -1.85  3.27  6.74
Si -5.28  5.14 -2.87
Si -1.89 -5.15 -5.79
Si  7.14  2.11 -2.92
Si -5.46 -1.00  5.76
Si  7.14 -2.07  2.98
Si  3.50 -4.11  5.92
Si  1.85  7.23  2.92
Si -1.66  7.23  3.03
Si -1.85  5.26  5.76
Si  3.50  4.24 -5.88
Si -5.50  1.11 -5.79
Si  5.46  5.14 -2.98
Si -5.38 -5.29  2.92
Si  5.34 -0.98  6.02
Si -3.73 -4.11  5.92
Si  1.76 -5.17 -6.04
Si -1.76 -7.37 -2.98
Si  1.95 -7.37 -2.87
Si -3.73  4.24 -5.88
Si -7.32  2.11 -2.92
Si  5.38  1.08 -6.04
Si -7.32 -2.07  2.98
Si  1.73  5.28  6.02
Si  5.46  5.04  3.55
Si  1.74  1.02 -7.99
Si  5.56 -5.29  3.03
Si -7.15  1.98  3.72
Si  0.01 -8.31  0.68
Si  0.08 -2.19 -8.08
Si -7.22  4.20  0.68
Si  7.24  4.20  0.68
Si  7.31  1.98  3.72
Si  1.74 -7.32  3.81
Si -5.48  5.19  3.81
Si -1.77 -7.48  3.55
Si -1.77  0.86 -8.25
Si -7.14  4.01  2.89
Si  0.09  8.18 -3.01
Si  0.09 -0.16  8.79
Si  7.32  4.01  2.89
Si -7.14 -4.33 -3.01
Si  0.09 -0.16 -8.91
Si  1.76 -7.16 -5.06
Si  3.53 -8.22  0.75
Si  0.09 -8.51  2.89
Si  7.32 -4.33 -3.01
Si -7.12 -4.16  3.65
Si -3.70 -8.22  0.75
Si -0.08 -6.13  6.65
Si  5.39 -3.12  6.59
Si  7.14  2.21 -5.16
Si  8.99  1.18  0.84
Si -3.51 -2.07 -8.15
Si -5.45  3.14  6.59
Si  0.10  8.36  3.65
Si  5.39  5.22 -5.21
Si -5.45  7.31  0.69
Si -1.84 -7.29 -5.21
Si -9.07  1.05  0.69
Si  0.10  4.19 -8.15
Si -5.46  5.35 -5.06
Si -5.46 -2.99  6.74
Si  7.33 -4.16  3.65
Si  3.72 -2.07 -8.15
Si -7.31  2.21 -5.16
Si -0.08  6.38  6.65
Si  5.38  7.44  0.84
Si  5.38  3.27  6.74
Si -8.89 -1.12 -2.87
Si  5.34 -5.15 -5.79
Si  7.11 -6.19  0.02
Si -1.66  3.06 -8.77
Si  7.11 -2.02 -5.88
Si -1.85 -7.26  5.76
Si  8.95 -3.07  0.12
Si -5.38  7.23  2.92
Si  5.38  5.26  5.76
Si  3.52  0.02 -8.82
Si  7.11  2.15  5.92
Si -8.99  0.97  2.92
Si -5.28 -7.37 -2.87
Si  1.76 -9.35 -0.14
Si  1.85  3.06  8.82
Si -1.89 -9.32  0.12
Si  7.11  6.32  0.02
Si  3.52 -8.32  2.98
Si  3.52  8.37 -2.92
Si  8.99  3.17 -0.14
Si  1.95 -3.20 -8.77
Si -1.76 -3.20  8.82
Si -1.89  7.36 -5.79
Si  3.52  0.02  8.88
Si -3.70  0.02 -8.82
Si  1.73 -7.24  6.02
Si  1.85  3.06 -8.88
Si -1.66  3.06  8.93
Si -3.70 -8.32  2.98
Si -9.08 -3.09 -0.14
Si -3.70  8.37 -2.92
Si -7.34 -6.19  0.02
Si -1.76 -3.20 -8.88
Si  1.73  9.45  0.12
Si -1.85  9.43 -0.14
Si  5.57  7.23  3.03
Si  9.08 -1.11 -2.98
Si -7.34 -2.02 -5.88
Si -3.70  0.02  8.88
Si -5.46 -5.17 -6.04
Si  5.46 -7.37 -2.98
Si -1.76  0.86  9.45
Si -9.12  3.19  0.12
Si  1.76  7.34 -6.04
Si -1.76  9.21 -2.35
Si -7.34  2.15  5.92
Si -7.15  6.15 -2.18
Si  1.95 -3.20  8.93
Si -7.34  6.32  0.02
Si -3.53  8.24  3.72
Si -5.50  5.28  6.02
Si  9.18  0.97  3.03
Si -3.53  4.07 -8.08
Si -1.87 -5.24 -7.99
Si  8.97 -3.15 -2.09
Si -5.49  1.02 -7.99
Si -3.60 -6.23  6.58
Si  1.74  9.37 -2.09
Si  3.62 -6.23  6.58
Si  3.69  8.24  3.72
Si -7.22  0.03  6.58
Si  3.69  4.07 -8.08
Si  7.24  0.03  6.58
Si -3.60  6.29  6.58
Si  3.62  6.29  6.58
Si  7.31  6.15 -2.18
Si -7.15 -6.37 -2.18
Si -1.87 -9.41 -2.09
Si  9.07 -1.22  3.55
Si -7.22 -4.14 -5.22
Si  9.07  2.95 -2.35
Si  7.24 -4.14 -5.22
Si -9.10  3.11 -2.09
Si  0.08 -2.19  9.62
Si -8.99 -3.31 -2.35
Si  0.01  8.38 -5.22
Si -5.49 -7.32  3.81
Si  5.46 -7.48  3.55
Si -9.10 -1.06  3.81
Si  1.74  1.02  9.71
Si  5.46  0.86 -8.25
Si  7.31 -6.37 -2.18
Si  1.85 -9.57 -2.35
Si  1.85 -5.39 -8.25
Si  0.05 -8.23 -5.90
Si -7.18 -4.06  5.90
Si  7.27 -4.06  5.90
Si -7.18  4.28 -5.90
Si  7.27  4.28 -5.90
Si  0.05  8.46  5.90
Si -5.47 -7.16 -5.06
Si -3.51 -2.07  9.56
Si  9.00 -5.21  0.69
Si  0.10  4.19  9.56
Si -9.08 -0.91 -5.06
Si -9.08 -5.08  0.84
Si  9.00 -1.04 -5.21
Si  5.39 -7.29 -5.21
Si  3.72 -2.07  9.56
Si  3.53  8.47 -5.16
Si -3.70  8.47 -5.16
Si -0.08 10.56  0.75
Si  8.95  1.11 -5.79
Si  5.38 -7.26  5.76
Si -5.28 -3.20 -8.77
Si 10.73  0.06  0.02
Si  8.99 -1.00  5.76
Si  3.50 -8.28 -5.88
Si  5.34 -9.32  0.12
Si -5.38  3.06  8.82
Si -8.89 -5.29  3.03
Si -8.99  5.14 -2.98
Si  5.34  7.36 -5.79
Si -0.09 -6.24 -8.82
Si -0.09 -10.41 -2.92
Si -3.73 -8.28 -5.88
Si -5.38  3.06 -8.88
Si -0.09  6.28 -8.82
Si -5.46 -9.35 -0.14
Si  5.56  3.06 -8.77
Si  5.38  9.43 -0.14
Si -5.28 -3.20  8.93
Si -0.09 -6.24  8.88
Si  5.46 -3.20  8.82
Si  3.50  8.41  5.92
Si -0.09 10.45  2.98
Si -0.09  6.28  8.88
Si -8.99  5.04  3.55
Si  9.08 -5.29  2.92
Si -5.50 -7.24  6.02
Si  9.18  5.14 -2.87
Si  5.46 -3.20 -8.88
Si -5.50  9.45  0.12
Si -3.73  8.41  5.92
Si  5.46  0.86  9.45
Si  5.36 -5.24 -7.99
Si -9.08  1.08 -6.04
Si -10.96  0.06  0.02
Si  5.57  3.06  8.93
Si  5.46  9.21 -2.35
Si -5.46  7.34 -6.04
Si -9.12 -0.98  6.02
Si -1.87  7.28 -7.99
Si -10.76 -0.11 -2.18
Si -7.15 -2.19 -8.08
Si -3.53  4.07  9.62
Si  5.36 -9.41 -2.09
Si -7.22 -8.31  0.68
Si  1.85 -5.39  9.45
Si  7.24 -8.31  0.68
Si  8.97  5.19  3.81
Si -10.83 -2.06  0.68
Si -5.48  9.37 -2.09
Si  1.85  7.12 -8.25
Si 10.85 -2.06  0.68
Si  3.69  4.07  9.62
Si -3.60 10.46  0.68
Si  3.62 10.46  0.68
Si  7.31 -2.19 -8.08
Si  0.01  0.03 -11.12
Si 10.92 -0.11 -2.18
Si  0.08 -10.54  3.72
Si -1.87 -5.24  9.71
Si -5.48  1.02  9.71
Si -5.38 -9.57 -2.35
Si -5.38 -5.39 -8.25
Si -3.52 10.27  2.89
Si -3.52  6.10  8.79
Si -7.14  8.18 -3.01
Si  3.70 10.27  2.89
Si  3.70  6.10  8.79
Si -7.14 -0.16  8.79
Si -10.75  1.92 -3.01
Si -10.75 -2.25  2.89
Si -3.53  6.10 -8.91
Si  7.32  8.18 -3.01
Si  3.70  6.10 -8.91
Si -7.14 -0.16 -8.91
Si  7.32 -0.16  8.79
Si -3.53 -6.42  8.79
Si -7.14 -8.51  2.89
Si  3.70 -6.42  8.79
Si 10.93  1.92 -3.01
Si  1.76 -2.99 -10.96
Si  1.76 -11.34  0.84
Si -0.08 -10.31 -5.16
Si  7.14 -6.13  6.65
Si 10.93 -2.25  2.89
Si  7.32 -0.16 -8.91
Si -10.74  2.10  3.65
Si -3.53 -6.42 -8.91
Si -3.53 -10.59 -3.01
Si -7.12  8.36  3.65
Si -3.51 -10.42  3.65
Si  7.32 -8.51  2.89
Si  9.00  3.14  6.59
Si -1.85  3.27 -10.96
Si -1.85 -9.25  6.74
Si  3.70 -6.42 -8.91
Si  1.77 -9.38  6.59
Si -7.12  4.19 -8.15
Si  3.53  0.13 -11.06
Si 10.76  4.30  0.75
Si  9.00  7.31  0.69
Si  3.70 -10.59 -3.01
Si -1.84  9.39  6.59
Si  8.99  5.35 -5.06
Si  8.99 -2.99  6.74
Si -7.31 -6.13  6.65
Si -1.84 -11.47  0.69
Si -9.07 -3.12  6.59
Si  3.72 -10.42  3.65
Si  0.10 -8.33 -8.15
Si -3.70  0.13 -11.06
Si  7.14  6.38  6.65
Si  1.77  3.14 -11.11
Si -1.84 -3.12 -11.11
Si -9.07  5.22 -5.21
Si  7.33  8.36  3.65
Si 10.94  2.10  3.65
Si  7.33  4.19 -8.15
Si -10.93  4.30  0.75
Si -7.31  6.38  6.65
Si -9.08  7.44  0.84
Si -9.08  3.27  6.74
Si  1.76  9.53  6.74
Si -8.89  7.23  3.03
Si -1.85  1.08 11.67
Si -1.66 11.40 -2.87
Si -1.89 -0.98 -11.69
Si 10.75 -4.15 -2.92
Si 10.75  4.19  2.98
Si  1.85 11.40 -2.98
Si -0.12 -10.37  5.92
Si -9.12 -5.15 -5.79
Si  9.08  7.23  2.92
Si -9.08  5.26  5.76
Si  1.85  7.12  9.45
Si -0.12  2.15 -11.79
Si  1.85 11.30  3.55
Si -0.12 -2.02 11.82
Si  8.99 -5.17 -6.04
Si -8.99 -7.37 -2.98
Si  8.95  5.28  6.02
Si -0.12 10.49 -5.88
Si -1.76 -11.55  2.92
Si -10.93 -4.15 -2.92
Si  8.97  1.02 -7.99
Si  5.36  7.28 -7.99
Si -10.93  4.19  2.98
Si  1.73  1.11 11.92
Si  1.95 -11.55  3.03
Si  1.76 -1.00 -11.94
Si  9.18 -7.37 -2.87
Si -5.38 -5.39  9.45
Si -5.38  7.12 -8.25
Si -10.76 -4.28  3.72
Si -7.15 -2.19  9.62
Si -3.60 -10.40 -5.22
Si  3.62 -10.40 -5.22
Si  8.97 -7.32  3.81
Si -10.83  2.12 -5.22
Si -1.87 11.45  3.81
Si -3.53 -8.45 -8.08
Si -8.99 -7.48  3.55
Si 10.85  2.12 -5.22
Si -7.22  8.38 -5.22
Si -8.99  0.86 -8.25
Si  7.24  8.38 -5.22
Si  3.69 -8.45 -8.08
Si  5.36 -5.24  9.71
Si  7.31 -2.19  9.62
Si -1.87  7.28  9.71
Si 10.92 -4.28  3.72
Si  0.05 -12.41  0.00
Si -3.57 -10.32  5.90
Si -7.18 -8.23 -5.90
Si -10.79 -6.15  0.00
Si  3.66 -10.32  5.90
Si -10.79 -1.98 -5.90
Si  7.27 -8.23 -5.90
Si  0.05 -4.06 -11.80
Si -3.57 -1.98 11.80
Si -10.79  2.20  5.90
Si 10.89 -6.15  0.00
Si  3.66 -1.98 11.80
Si -3.57  2.20 -11.80
Si -10.79  6.37  0.00
Si 10.89 -1.98 -5.90
Si  3.66  2.20 -11.80
Si  0.05  4.28 11.80
Si  8.99 -7.16 -5.06
Si -7.18  8.46  5.90
Si 10.89  2.20  5.90
Si -3.57 10.54 -5.90
Si 10.76 -4.05 -5.16
Si -5.47 -2.99 -10.96
Si -5.47 -11.34  0.84
Si 10.89  6.37  0.00
Si  7.27  8.46  5.90
Si  3.66 10.54 -5.90
Si -10.74 -6.24 -2.25
Si  0.05 12.63  0.00
Si -7.12  4.19  9.56
Si -10.74  6.27 -2.25
Si  5.38  3.27 -10.96
Si  5.38 -9.25  6.74
Si -0.08 -6.13 -11.06
Si 10.76  0.13  6.65
