500
set: 478.00  0.00  0.00
Si -0.06  0.03 -0.04
Si  1.80  0.98  0.68
Si  0.09 -2.08  0.79
Si -0.07 -0.13 -2.25
Si -1.82  1.09  0.81
Si  1.63  1.11  2.89
Si  0.04  2.03 -2.87
Si  1.81 -1.07 -2.84
Si -3.57 -0.00  0.02
Si  1.83 -3.08  0.03
Si -1.66 -3.18 -0.02
Si -1.76  3.15  0.03
Si  1.93  3.05 -0.02
Si  3.62 -0.00  0.02
Si -1.78  1.00  3.03
Si  0.04 -2.12  3.00
Si -1.97 -0.97 -2.98
Si -3.48 -2.12  0.66
Si -1.79  3.02 -2.19
Si -1.80 -3.00 -2.22
Si  3.53  0.12 -2.18
Si  0.11  4.11  0.66
Si  1.79 -0.93  3.65
Si -1.79 -1.13  3.68
Si -3.67  0.12 -2.18
Si  1.80 -3.21 -2.19
Si -0.07  2.20  3.69
Si  1.79  3.22 -2.22
Si  3.71 -2.12  0.66
Si  3.54 -2.02  2.87
Si -3.65 -2.02  2.87
Si -0.06 -4.10 -3.00
Si -0.06  4.21  2.87
Si  3.54  2.13 -3.00
Si -3.65  2.13 -3.00
Si  3.52  1.95  3.62
Si  1.77 -0.99 -5.06
Si  0.09  2.07 -5.08
Si -3.51  4.15  0.79
Si  1.77 -5.14  0.81
Si -3.67  1.95  3.62
Si -5.39  0.98  0.68
Si  5.37  1.09  0.81
Si -1.80 -5.25  0.68
Si  3.68  4.15  0.79
Si -1.80 -1.10 -5.19
Si -0.07 -4.28  3.62
Si -5.26  3.05 -0.02
Si  5.22 -0.97 -2.98
Si -1.78  5.16 -2.84
Si -5.38 -1.07 -2.84
Si -5.36 -3.08  0.03
Si -1.97 -5.12  2.89
Si -1.66  0.97 -5.89
Si -3.56  4.10  3.00
Si -3.56 -4.20 -2.87
Si  0.03 -2.08 -5.85
Si  1.83  1.07 -5.84
Si  0.03  6.23  0.02
Si  0.03 -6.23  0.02
Si -1.76 -1.00  5.90
Si  0.03  2.08  5.89
Si  3.63  4.10  3.00
Si  3.63 -4.20 -2.87
Si  1.93 -1.10  5.85
Si  1.63  5.26 -2.98
Si  5.43  3.15  0.03
Si  5.41  1.00  3.03
Si  1.81 -5.22  3.03
Si -5.56  1.11  2.89
Si  5.53 -3.18 -0.02
Si -0.07 -6.10 -2.18
Si  3.53 -4.03  3.69
Si  0.11 -0.04  6.53
Si  1.80  5.10  3.68
Si  5.39 -3.00 -2.22
Si  5.40  3.02 -2.19
Si -3.67 -4.03  3.69
Si -5.40 -0.93  3.65
Si -3.48  2.03 -5.21
Si  5.40 -1.13  3.68
Si -5.39 -3.21 -2.19
Si -5.40  3.22 -2.22
Si -1.80  5.30  3.65
Si  0.11 -4.20 -5.21
Si  3.71  2.03 -5.21
Si -0.07  6.35 -2.18
Si  7.13  0.03 -0.04
Si  3.54 -6.20 -0.04
Si  3.54  2.11  5.83
Si -0.06 -4.12  5.83
Si  3.54 -2.05 -5.91
Si  3.54  6.26 -0.04
Si -3.66 -6.20 -0.04
Si -3.66  2.11  5.83
Si -0.06  4.18 -5.91
Si -3.66 -2.05 -5.91
Si -3.66  6.26 -0.04
Si -7.25  0.03 -0.04
Si  3.52  6.10 -2.25
Si -3.51 -4.15 -5.08
Si -7.11 -2.08  0.79
Si -1.80  3.05  6.55
Si -1.80  7.20  0.68
Si  7.12 -0.13 -2.25
Si -3.67  6.10 -2.25
Si -5.42 -0.99 -5.06
Si  1.80 -3.18  6.55
Si -1.82  5.24 -5.06
Si -5.42 -5.14  0.81
Si  1.80  5.13 -5.19
Si  3.68 -4.15 -5.08
Si -3.51 -0.00  6.66
Si  5.39 -5.25  0.68
Si  5.39 -1.10 -5.19
Si  1.77  7.32  0.81
Si -1.82 -3.06  6.69
Si  3.52 -6.36 -2.25
Si  1.77  3.16  6.69
Si -7.27 -0.13 -2.25
Si  7.28 -2.08  0.79
Si  3.68 -0.00  6.66
Si -3.67 -6.36 -2.25
Si  5.22 -5.12  2.89
Si -5.26 -1.10  5.85
Si -1.66  5.12  5.85
Si  1.63 -7.19 -2.98
Si -7.15  2.03 -2.87
Si -1.76 -5.16 -5.84
Si  5.41  5.16 -2.84
Si -5.36  1.07 -5.84
Si -3.57  4.15 -5.85
Si -1.78 -7.30 -2.84
Si  3.62  4.15 -5.85
Si  7.23  2.03 -2.87
Si -3.57 -4.15  5.89
Si -7.15 -2.12  3.00
Si  1.81  7.23  3.03
Si  3.62 -4.15  5.89
Si  5.43 -1.00  5.90
Si -5.38 -5.22  3.03
Si  1.83  5.22  5.90
Si  7.23 -2.12  3.00
Si -1.97  7.34  2.89
Si  1.93 -5.26 -5.89
Si  5.53  0.97 -5.89
Si -7.08  4.11  0.66
Si -5.56  5.26 -2.98
Si -1.80 -7.16  3.65
Si -5.39  5.10  3.68
Si -0.07 -1.95 -8.05
Si  1.80  0.95 -8.06
Si  7.12  2.20  3.69
Si -1.80  1.15 -8.09
Si  0.11 -8.35  0.66
Si  5.39  5.30  3.65
Si  7.30  4.11  0.66
Si  1.80 -7.36  3.68
Si -7.26  2.20  3.69
Si -0.06 -8.25  2.87
Si -0.06  0.06  8.74
Si  7.13 -4.10 -3.00
Si  7.13  4.21  2.87
Si -7.25 -4.10 -3.00
Si -7.25  4.21  2.87
Si -0.06  0.06 -8.87
Si -0.06  8.36 -3.00
Si -0.07  8.18  3.62
Si -7.11  2.07 -5.08
Si -1.82 -7.21 -5.06
Si  5.39  3.05  6.55
Si  5.39  7.20  0.68
Si  5.37  5.24 -5.06
Si -3.51 -8.30  0.79
Si  7.12 -4.28  3.62
Si -5.39 -3.18  6.55
Si  8.99  0.98  0.68
Si -0.07  4.02 -8.12
Si -5.39  5.13 -5.19
Si  5.37 -3.06  6.69
Si  7.28  2.07 -5.08
Si -9.02  1.09  0.81
Si  0.09  6.23  6.66
Si  3.68 -8.30  0.79
Si  0.09 -6.23  6.66
Si  3.52 -2.20 -8.12
Si -5.42  7.32  0.81
Si  1.80 -7.33 -5.19
Si -5.42  3.16  6.69
Si -7.27 -4.28  3.62
Si -3.67 -2.20 -8.12
Si  8.82  1.11  2.89
Si -8.85 -3.18 -0.02
Si  1.63 -3.04  8.76
Si  1.81  3.08 -8.71
Si -1.66  9.28 -0.02
Si -1.78 -3.15 -8.71
Si -3.56  8.26 -2.87
Si -3.56 -0.05 -8.74
Si  5.22  7.34  2.89
Si  3.63  8.26 -2.87
Si  3.63 -0.05 -8.74
Si -1.76 -9.31  0.03
Si -7.16 -2.08 -5.85
Si -5.26 -5.26 -5.89
Si -8.95  3.15  0.03
Si -7.16 -6.23  0.02
Si -7.17  6.23  0.02
Si  5.43 -5.16 -5.84
Si  1.63 -3.04 -8.86
Si  1.93  7.20 -5.89
Si -7.17  2.08  5.89
Si  9.01 -1.07 -2.84
Si -5.38  7.23  3.03
Si -1.76  7.30 -5.84
Si  1.83 -7.23  5.90
Si  5.41 -7.30 -2.84
Si  7.22 -2.08 -5.85
Si -8.97  1.00  3.03
Si -1.66 -7.33  5.85
Si -1.97  3.19  8.76
Si -5.36  5.22  5.90
Si  7.22  6.23  0.02
Si  7.22 -6.23  0.02
Si  9.02 -3.08  0.03
Si  5.53  5.12  5.85
Si  7.22  2.08  5.89
Si  1.83  9.38  0.03
Si -3.56 -0.05  8.87
Si -3.56 -8.35  3.00
Si -5.56 -7.19 -2.98
Si  3.63 -0.05  8.87
Si  3.63 -8.35  3.00
Si  1.81  3.08  8.90
Si  1.93 -9.41 -0.02
Si -1.78 -3.15  8.90
Si -1.97  3.19 -8.86
Si  9.13  3.05 -0.02
Si -7.08 -0.04  6.53
Si  7.12 -6.10 -2.18
Si -3.48  6.18  6.53
Si  1.79 -9.23 -2.22
Si  5.39 -7.16  3.65
Si  1.80  9.25 -2.19
Si -9.16 -0.97 -2.98
Si -3.48 -6.27  6.53
Si  1.79 -5.08 -8.09
Si  3.71  6.18  6.53
Si -8.98  3.02 -2.19
Si -7.26 -6.10 -2.18
Si -8.99 -3.00 -2.22
Si -7.08 -4.20 -5.21
Si -5.39  0.95 -8.06
Si  8.99 -0.93  3.65
Si -0.07 -1.95  9.56
Si -1.80  1.15  9.52
Si  1.80  0.95  9.55
Si  0.11  8.26 -5.21
Si -8.98 -1.13  3.68
Si  3.53  4.28 -8.05
Si  3.71 -6.27  6.53
Si  7.12  6.35 -2.18
Si  5.39  1.15 -8.09
Si  8.99 -3.21 -2.19
Si  7.30 -0.04  6.53
Si  8.99  3.22 -2.22
Si -1.79 -5.28 -8.06
Si -3.67  4.28 -8.05
Si -5.39 -7.36  3.68
Si -1.79 -9.43 -2.19
Si  3.53  8.43  3.69
Si -1.80  9.45 -2.22
Si -7.26  6.35 -2.18
Si -3.67  8.43  3.69
Si  7.30 -4.20 -5.21
Si  7.13 -4.12  5.83
Si  7.13  4.18 -5.91
Si -0.06 -8.27 -5.91
Si -0.06  8.33  5.83
Si -7.25 -4.12  5.83
Si -7.25  4.18 -5.91
Si -0.07  4.02  9.49
Si  5.37 -7.21 -5.06
Si  8.96 -0.99 -5.06
Si -3.51  8.30 -5.08
Si  3.52 -2.20  9.49
Si  8.96 -5.14  0.81
Si  3.68  8.30 -5.08
Si  0.09 10.38  0.79
Si -3.67 -2.20  9.49
Si -8.99 -5.25  0.68
Si -8.99 -1.10 -5.19
Si -5.39 -7.33 -5.19
Si -8.85  0.97 -5.89
Si  5.22  3.19  8.76
Si -5.26  7.20 -5.89
Si -5.38  3.08 -8.71
Si  8.82  5.26 -2.98
Si  0.04  6.18 -8.74
Si  5.41 -3.15 -8.71
Si -8.97  5.16 -2.84
Si  0.04 10.33  3.00
Si -10.76 -0.00  0.02
Si  0.04 -6.28 -8.74
Si  5.22  3.19 -8.86
Si -5.36 -7.23  5.90
Si -3.57 -8.30 -5.85
Si -8.95 -1.00  5.90
Si  5.43 -9.31  0.03
Si -5.26 -9.41 -0.02
Si  3.62 -8.30 -5.85
Si -3.57  8.30  5.89
Si -5.36  9.38  0.03
Si  5.53  9.28 -0.02
Si  9.02  1.07 -5.84
Si  3.62  8.30  5.89
Si  5.43  7.30 -5.84
Si  0.04  6.18  8.87
Si -5.56 -3.04  8.76
Si 10.81 -0.00  0.02
Si  0.04 -10.43 -2.87
Si  9.01 -5.22  3.03
Si -5.38  3.08  8.90
Si  0.04 -6.28  8.87
Si -9.16 -5.12  2.89
Si  5.41 -3.15  8.90
Si  5.53 -7.33  5.85
Si -5.56 -3.04 -8.86
Si  9.13 -1.10  5.85
Si -0.07 -10.26  3.69
Si -10.67 -2.12  0.66
Si -5.40 -9.23 -2.22
Si -3.48 10.34  0.66
Si  7.12 -1.95 -8.05
Si -5.39  9.25 -2.19
Si 10.72  0.12 -2.18
Si -1.79  7.17 -8.06
Si  1.79 -5.08  9.52
Si -7.08 -8.35  0.66
Si -5.40 -5.08 -8.09
Si  8.99  5.10  3.68
Si  3.71 10.34  0.66
Si  5.39  1.15  9.52
Si -5.39  0.95  9.55
Si -7.26 -1.95 -8.05
Si  5.40 -5.28 -8.06
Si  3.53  4.28  9.56
Si -8.99  5.30  3.65
Si -1.79 -5.28  9.55
Si -10.86  0.12 -2.18
Si  0.11 -0.04 -11.09
Si  5.40 -9.43 -2.19
Si  1.79  7.38 -8.09
Si -3.67  4.28  9.56
Si  5.39  9.45 -2.22
Si  7.30 -8.35  0.66
Si 10.90 -2.12  0.66
Si  3.54 -6.17  8.74
Si  7.13 -8.25  2.87
Si  7.13  0.06  8.74
Si 10.73 -2.02  2.87
Si -3.65 -6.17  8.74
Si  3.54 -10.32 -3.00
Si  3.54  6.28  8.74
Si 10.73  2.13 -3.00
Si -7.25 -8.25  2.87
Si -3.65 -10.32 -3.00
Si -7.25  0.06  8.74
Si  3.54 -6.17 -8.87
Si -3.65  6.28  8.74
Si  7.13  0.06 -8.87
Si  3.54 10.44  2.87
Si  7.13  8.36 -3.00
Si -10.84 -2.02  2.87
Si -3.65 -6.17 -8.87
Si -3.65 10.44  2.87
Si  7.12  8.18  3.62
Si  3.54  6.28 -8.87
Si -10.84  2.13 -3.00
Si -7.25  0.06 -8.87
Si -7.25  8.36 -3.00
Si -3.65  6.28 -8.87
Si 10.71  1.95  3.62
Si -1.82 -3.06 -10.93
Si  1.80  9.28  6.55
Si -3.51 -0.00 -10.96
Si -10.70  4.15  0.79
Si  1.77  3.16 -10.93
Si -7.27  8.18  3.62
Si  7.12  4.02 -8.12
Si -8.99  3.05  6.55
Si -8.99  7.20  0.68
Si -1.82 -11.37  0.81
Si  3.68 -0.00 -10.96
Si -7.11  6.23  6.66
Si  0.09 -10.38 -5.08
Si -7.11 -6.23  6.66
Si  8.99 -3.18  6.55
Si  8.99  5.13 -5.19
Si  1.77 -9.29  6.69
Si -9.02  5.24 -5.06
Si  8.96  7.32  0.81
Si -1.80 -9.40  6.55
Si -10.86  1.95  3.62
Si -1.80  3.05 -11.06
Si -7.27  4.02 -8.12
Si  8.96  3.16  6.69
Si -9.02 -3.06  6.69
Si  1.80 -11.48  0.68
Si  1.80 -3.18 -11.06
Si  3.52 -10.51  3.62
Si 10.87  4.15  0.79
Si  7.28  6.23  6.66
Si  7.28 -6.23  6.66
Si -1.82  9.39  6.69
Si -3.67 -10.51  3.62
Si -0.07 -8.43 -8.12
Si  8.82 -7.19 -2.98
Si -8.85  5.12  5.85
Si  1.63 -11.35  2.89
Si -8.95 -5.16 -5.84
Si  1.81 11.38 -2.84
Si -1.66  0.97 11.72
Si -1.76 -1.00 -11.71
Si -10.75  4.10  3.00
Si -10.75 -4.20 -2.87
Si  0.03  2.08 -11.72
Si -8.97 -7.30 -2.84
Si  0.03 10.38 -5.85
Si  0.03 -10.38  5.89
Si  9.01  7.23  3.03
Si  0.03 -2.08 11.76
Si 10.83  4.10  3.00
Si 10.83 -4.20 -2.87
Si  1.83  1.07 11.77
Si  1.93 -1.10 -11.77
Si -1.78 -11.45  3.03
Si  9.02  5.22  5.90
Si  3.53 -8.18 -8.05
Si 10.72 -4.03  3.69
Si -1.97 11.49 -2.98
Si -1.79 11.33  3.68
Si -3.66 -8.18 -8.05
Si -10.67  2.03 -5.21
Si -8.99 -7.16  3.65
Si -7.08  8.26 -5.21
Si -5.40 -5.08  9.52
Si  5.40  7.17 -8.06
Si  9.13 -5.26 -5.89
Si  7.12 -1.95  9.56
Si -1.79  7.17  9.55
Si -9.16  7.34  2.89
Si  8.99  0.95 -8.06
Si -8.99  1.15 -8.09
Si -10.86 -4.03  3.69
Si -7.26 -1.95  9.56
Si -3.48 -10.42 -5.21
Si  5.40 -5.28  9.55
Si  1.79  7.38  9.52
Si  8.99 -7.36  3.68
Si  7.30  8.26 -5.21
Si -5.40  7.38 -8.09
Si  1.79 11.53  3.65
Si  3.71 -10.42 -5.21
Si 10.90  2.03 -5.21
Si 10.73  2.11  5.83
Si 10.73 -6.20 -0.04
Si  3.54 -10.35  5.83
Si  3.54 -2.05 11.70
Si 10.73  6.26 -0.04
Si 10.73 -2.05 -5.91
Si  7.13  8.33  5.83
Si  7.13 -8.27 -5.91
Si -0.06 -12.43 -0.04
Si -0.06  4.18 11.70
Si -3.66 -10.35  5.83
Si -3.66 -2.05 11.70
Si  3.54  2.11 -11.79
Si  3.54 10.41 -5.91
Si -0.06 -4.12 -11.79
Si -0.06 12.48 -0.04
Si -7.25 -8.27 -5.91
Si -7.25  8.33  5.83
Si -10.85 -6.20 -0.04
Si -10.85  2.11  5.83
Si -3.66  2.11 -11.79
Si -3.66 10.41 -5.91
Si -10.85 -2.05 -5.91
Si -10.85  6.26 -0.04
Si  7.12  4.02  9.49
Si 10.71  6.10 -2.25
Si -0.07 12.33 -2.25
Si -10.70 -4.15 -5.08
Si  5.37 -3.06 -10.93
Si -5.39  9.28  6.55
Si  5.37 -11.37  0.81
Si -1.80 -1.10 12.42
Si -5.42  3.16 -10.93
Si  0.09  6.23 -10.96
Si -7.11 10.38  0.79
