500
set: 934.00  0.00  0.00
Si  0.36 -1.16  0.84
Si -0.42  1.16 -0.85
Si -1.28 -1.22 -0.81
Si  1.33  1.19  0.77
Si -2.11  1.14  0.89
Si  2.12 -1.18 -0.81
Si  0.85 -0.01 -2.44
Si -0.86 -0.10  2.46
Si -3.01 -1.14  0.83
Si -0.07 -2.27 -2.44
Si  0.03  2.31  2.46
Si  3.06  1.23 -0.84
Si -2.59  0.01 -2.39
Si  2.64 -0.04  2.37
Si -0.49 -3.48  0.80
Si  0.44  3.47 -0.86
Si  1.70 -2.29  2.39
Si -1.30  3.45  0.83
Si  1.27 -3.49 -0.81
Si -1.77 -2.35  2.43
Si  1.76  2.35 -2.49
Si -1.73  2.38 -2.48
Si  0.87  0.00  4.01
Si -3.88  1.18 -0.80
Si -0.92  0.00 -4.07
Si  3.94 -1.18  0.77
Si  2.19  3.49  0.80
Si -2.23 -3.50 -0.86
Si -2.98  3.45 -0.77
Si  0.02 -2.37  4.00
Si  2.98 -3.52  0.84
Si  0.03  2.33 -4.07
Si  3.46 -2.32 -2.40
Si -3.42  2.35  2.44
Si -2.60  0.01  4.05
Si  2.62 -0.10 -4.05
Si -3.54 -2.30 -2.41
Si  3.50  2.33  2.49
Si -4.72 -1.15 -0.77
Si  1.72 -2.29 -4.05
Si  1.77  2.33  4.05
Si -1.74  2.34  4.06
Si -4.34  0.03  2.49
Si  4.40  0.03 -2.42
Si -1.81 -2.33 -4.07
Si  4.84  1.18  0.82
Si  0.90  4.62  2.43
Si  3.95  3.48 -0.81
Si  0.82 -4.64  2.49
Si -0.86  4.68 -2.41
Si -0.92 -4.63 -2.49
Si -3.98 -3.52  0.83
Si -5.58  1.18  0.82
Si  3.38 -2.33  4.08
Si -0.47  1.16  5.67
Si -3.46 -2.31  4.06
Si  3.48  2.33 -4.03
Si  0.38 -5.74 -0.84
Si  0.44 -1.16 -5.68
Si  2.56 -4.63 -2.43
Si -3.47  2.32 -4.06
Si -2.62  4.62  2.50
Si  5.71 -1.15 -0.77
Si  4.27 -0.01  4.05
Si  2.61  4.70 -2.44
Si -0.33  5.84  0.83
Si -2.65 -4.67  2.46
Si -1.31 -1.16  5.66
Si -4.76  3.45  0.84
Si -4.35  0.03 -4.07
Si  4.77 -3.52 -0.77
Si  1.39  5.76 -0.81
Si -1.34 -5.79  0.77
Si  1.36  1.12 -5.73
Si -2.12  1.18 -5.67
Si  5.12 -2.36  2.50
Si -5.19  2.35 -2.43
Si  0.81 -4.64 -4.03
Si  2.15 -1.15  5.70
Si -2.04  5.82 -0.77
Si -0.90 -4.65  4.05
Si  5.24  2.35 -2.43
Si -0.78  4.67  4.06
Si  0.87  4.65 -4.07
Si  2.16 -5.79  0.82
Si -5.30 -2.36  2.50
Si -6.03  0.03 -2.42
Si -3.08 -1.15 -5.67
Si  3.05  1.20  5.68
Si  6.08  0.03  2.49
Si  3.04  5.82  0.84
Si -6.48 -1.18  0.77
Si -3.10 -5.82 -0.85
Si  0.42  3.49  5.66
Si  2.70  4.61  4.00
Si  5.66  3.45  0.84
Si  2.61 -4.67  4.02
Si  6.55  1.18 -0.80
Si -5.65 -3.52 -0.77
Si -2.54  4.69 -4.08
Si -0.47 -3.48 -5.72
Si -2.65 -4.64 -4.07
Si -4.29  4.65 -2.40
Si -1.26  3.50 -5.68
Si  4.32 -4.63  2.44
Si -4.40 -4.59 -2.48
Si  4.37  4.69  2.39
Si  1.28 -3.59  5.68
Si -5.13  2.31  4.02
Si -3.88  1.20  5.66
Si -3.81  5.79  0.77
Si  5.21 -2.29 -4.08
Si -5.21 -2.29 -4.08
Si  3.87 -5.79 -0.80
Si -2.25 -3.48  5.66
Si  5.29  2.31  4.02
Si  3.95 -1.18 -5.71
Si  2.21  3.49 -5.72
Si  2.93 -3.49 -5.68
Si  6.08  0.03 -4.07
Si -3.01  3.51  5.67
Si  0.42 -1.14  7.24
Si -6.16 -0.01  4.05
Si  0.09  6.98 -2.39
Si  6.45 -3.52  0.83
Si -6.48  3.48 -0.81
Si -0.04 -7.01  2.37
Si -0.44  1.14 -7.30
Si  4.72  1.16 -5.65
Si -1.31 -1.18 -7.27
Si  1.27  1.21  7.29
Si  4.27 -4.66 -4.06
Si -7.37  1.23 -0.84
Si  1.81  6.87  2.46
Si -4.81 -1.17  5.67
Si  7.42 -1.14  0.83
Si  1.72 -6.95 -2.42
Si -4.36  4.65  4.08
Si  4.80  5.80 -0.81
Si -4.42 -4.63  4.06
Si  4.39  4.68 -4.05
Si -4.78 -5.84  0.89
Si -1.66  7.00  2.49
Si -1.83 -6.99 -2.44
Si  2.16 -1.15 -7.24
Si  6.88 -2.30 -2.41
Si  3.96  3.38  5.68
Si -6.92  2.33  2.49
Si -6.97 -2.32 -2.40
Si -2.20  1.19  7.32
Si -3.94 -3.48 -5.68
Si  7.00  2.35  2.44
Si -3.07 -1.11  7.25
Si  6.02 -4.59 -2.48
Si -6.05  4.69  2.39
Si  3.03  1.20 -7.34
Si  0.47  3.39 -7.27
Si -6.10 -4.63  2.44
Si  6.13  4.65 -2.40
Si  5.61 -1.17  5.67
Si  0.08  6.98  4.05
Si -0.49 -3.50  7.29
Si  0.38 -5.78  5.68
Si -5.70  1.16 -5.65
Si -5.62  5.80 -0.81
Si  3.41 -6.95  2.49
Si -3.35  7.00 -2.42
Si -7.78 -0.04  2.37
Si -0.40  5.83 -5.67
Si -0.06 -7.08 -4.05
Si  4.74 -3.46  5.67
Si  5.64 -5.84  0.89
Si  3.53  6.96 -2.44
Si  0.57  8.11  0.89
Si  7.84  0.01 -2.39
Si -0.56 -8.15 -0.81
Si -4.82  3.48 -5.68
Si -1.25  3.49  7.34
Si  1.59 -6.98  4.05
Si  1.37  5.82  5.66
Si  7.45  3.45 -0.77
Si -1.81 -6.97  4.01
Si -1.67  7.00 -4.07
Si  1.30 -3.53 -7.36
Si  1.76  6.98 -4.07
Si -7.44 -3.52  0.84
Si -1.20  8.16 -0.80
Si -3.54 -7.08  2.46
Si  1.26 -8.16  0.77
Si -1.32 -5.86 -5.73
Si -3.96  1.13 -7.23
Si  3.90 -1.14  7.30
Si -6.94  2.33 -4.03
Si  2.05 -5.81 -5.65
Si  2.19  3.48  7.29
Si  6.95  2.32 -4.06
Si  6.97 -2.31  4.06
Si -2.13  5.80  5.67
Si -2.20 -3.59 -7.27
Si -8.30 -1.18 -0.81
Si  8.32  1.14  0.89
Si -7.04 -2.33  4.08
Si  2.26  8.13 -0.85
Si -2.32 -8.13  0.84
Si -3.00  3.52 -7.24
Si  6.01 -4.63  4.06
Si -6.03  4.68 -4.05
Si  3.06 -3.46  7.31
Si  6.06  4.65  4.08
Si -2.91  8.15  0.82
Si  5.61  3.48 -5.68
Si -3.14 -5.81  5.67
Si  3.11  5.81 -5.68
Si  3.03 -8.13 -0.77
Si -6.47 -1.18 -5.71
Si -6.15 -4.66 -4.06
Si  6.55  1.20  5.66
Si  3.40 -6.95 -4.07
Si -5.69 -3.46  5.67
Si -3.48  6.97  4.05
Si -6.55 -5.79 -0.80
Si -4.76 -1.14 -7.29
Si -7.80 -0.10 -4.05
Si  3.55  6.98  4.01
Si  7.83  0.01  4.05
Si  6.62  5.79  0.77
Si -3.59 -6.97 -4.07
Si  4.79  1.16  7.33
Si -0.90 -0.01  8.87
Si -5.11  6.93  2.37
Si  8.19 -3.50 -0.86
Si  3.87 -5.77  5.66
Si  0.85  0.01 -8.93
Si -3.80  5.79 -5.71
Si -8.23  3.49  0.80
Si  5.16 -6.97 -2.39
Si -3.93 -3.48  7.34
Si  3.98  3.45 -7.36
Si  5.32  6.93  2.37
Si -5.26 -6.97 -2.39
Si  4.01  8.16  0.77
Si -3.96 -8.19 -0.81
Si -9.09  1.19  0.77
Si  0.05  2.27  8.93
Si -6.47  3.38  5.68
Si  9.14 -1.22 -0.81
Si -0.00 -2.30 -8.97
Si -2.64 -0.03 -8.90
Si  8.65 -2.35  2.43
Si  2.61 -0.00  8.92
Si  6.49 -3.48 -5.68
Si  5.66 -1.14 -7.29
Si -8.66  2.35 -2.49
Si -5.63  1.16  7.33
Si  4.75 -3.46 -7.24
Si -0.39  5.87  7.25
Si  1.72 -2.25  8.89
Si -8.73 -2.29  2.39
Si -1.76 -2.33  8.88
Si  7.34 -1.15 -5.67
Si  0.36 -5.78 -7.34
Si  1.70  2.33 -8.89
Si  8.70  2.38 -2.48
Si -1.67  2.35 -8.90
Si -4.69  3.51  7.31
Si -7.37  1.20  5.68
Si  7.33 -5.82 -0.85
Si  7.77 -4.67  2.46
Si  1.36  5.79 -7.27
Si -1.41 -5.76  7.29
Si  7.80  4.62  2.50
Si -4.79 -5.80 -5.67
Si  4.74 -8.11  0.83
Si -7.82  4.70 -2.44
Si -7.39  5.82  0.84
Si -7.87 -4.63 -2.43
Si  4.82  5.82  5.70
Si -5.13  6.87 -4.05
Si -4.69  8.21 -0.84
Si  5.15 -6.97  4.05
Si -2.09  5.83 -7.29
Si  5.30  6.87 -4.05
Si  2.12 -5.81  7.33
Si -0.98 -9.26  2.39
Si  0.78 -9.30 -2.40
Si -5.28 -6.97  4.05
Si -0.75  9.32  2.44
Si  0.95  9.36 -2.48
Si  6.46  1.13 -7.23
Si -3.44 -2.35 -8.84
Si  9.12  3.45  0.83
Si  3.10  5.83  7.24
Si  8.62 -2.33 -4.07
Si -8.65  2.33  4.05
Si -9.15 -3.49 -0.81
Si -5.68 -3.46 -7.24
Si  3.46  2.31  8.92
Si -7.72  4.61  4.00
Si  3.50 -2.31 -8.91
Si -3.38  2.33  8.96
Si -3.11 -5.84 -7.30
Si -6.53 -1.14  7.30
Si  8.68  2.34  4.06
Si  9.56 -0.10  2.46
Si  5.63 -5.80 -5.67
Si -8.71 -2.29 -4.05
Si -9.57 -0.01 -2.44
Si  4.32 -0.03 -8.89
Si -5.60  5.82  5.70
Si  7.78 -4.64 -4.07
Si  5.73  3.51  7.31
Si -5.69 -8.11  0.83
Si -0.53 -8.13  5.70
Si -4.31 -0.04  8.96
Si  0.56  8.15 -5.67
Si -7.81 -4.67  4.02
Si -2.75 -9.25 -2.44
Si -2.51  9.32 -2.43
Si  2.45 -9.33  2.50
Si  7.42  3.51  5.67
Si  2.70  9.28  2.46
Si -0.77  4.62 -8.84
Si -1.20  8.18  5.66
Si -7.50 -3.49 -5.68
Si  1.27 -8.16 -5.71
Si  3.79 -5.84 -7.23
Si  7.89  4.69 -4.08
Si  5.73  8.21 -0.84
Si  0.92  4.65  8.88
Si -0.98 -4.64 -8.89
Si  0.78 -4.67  8.92
Si -6.90  6.96 -2.44
Si -3.85  5.83  7.30
Si 10.00  1.16 -0.85
Si -8.28 -1.15  5.70
Si -8.26 -5.79  0.82
Si  8.31  1.18 -5.67
Si  2.21  8.13  5.67
Si -0.96 -9.27 -4.05
Si -10.07 -1.16  0.84
Si -0.80  9.29 -4.06
Si  6.88 -7.08  2.46
Si -2.24 -8.13 -5.68
Si  0.71 -9.30  4.08
Si -7.02 -6.95  2.49
Si  0.94  9.32  4.06
Si  8.38  5.82 -0.77
Si  7.07  7.00 -2.42
Si  9.51  0.00 -4.07
Si  2.93 -8.14  5.67
Si -3.02  8.14 -5.65
Si -9.55  0.00  4.01
Si -6.45  3.45 -7.36
Si  7.36 -1.11  7.25
Si -2.54  4.67  8.93
Si  6.50 -3.48  7.34
Si -6.55 -5.77  5.66
Si -6.41  8.16  0.77
Si -2.46  9.28  4.02
Si -2.62 -4.70  8.93
Si  2.53 -9.26 -4.08
Si  2.60 -4.67 -8.96
Si -0.30 10.43 -0.77
Si  2.67  4.67 -8.97
Si  6.46 -8.19 -0.81
Si  4.21 -9.27 -2.41
Si  4.84  5.82 -7.24
Si -7.39  1.20 -7.34
Si  6.63  5.79 -5.71
Si -2.66 -9.34  4.00
Si  2.71  9.31 -4.07
Si -4.88 -5.78  7.32
Si -4.25  9.31  2.49
Si  8.17 -3.48  5.66
Si  0.30 -10.49  0.84
Si  1.38 10.43  0.83
Si  9.94 -3.48  0.80
Si  0.85  0.01 10.53
Si  6.83 -6.97 -4.07
Si -5.14  2.31 -8.96
Si -6.88  6.98  4.01
Si -1.41 -10.46 -0.81
Si  5.21 -2.31  8.93
Si -5.22 -2.31  8.93
Si -8.21  3.49 -5.72
Si -9.98  3.47 -0.86
Si -4.45 -9.32  2.43
Si  4.44  9.32 -2.49
Si -0.90 -0.01 -10.59
Si  6.94  6.97  4.05
Si  5.28  2.31 -8.96
Si -2.09 10.43  0.84
Si -3.98 -8.13  5.66
Si -7.02 -6.95 -4.07
Si  4.04  8.09 -5.73
Si  2.09 -10.50 -0.77
Si -9.03  5.76 -0.81
Si -0.00 -2.30 10.50
Si  0.05  2.27 -10.54
Si -9.06  1.12 -5.73
Si -6.10 -0.03 -8.89
Si  9.12 -1.16  5.66
Si  9.08 -5.79  0.77
Si -5.59  5.82 -7.24
Si  6.11 -0.04  8.96
Si  5.54 -5.78  7.32
Si -9.52  4.62  2.43
Si  2.61 -0.00 -10.54
Si  9.51 -4.63 -2.49
Si 10.78 -1.16  0.84
Si 10.35 -2.27 -2.44
Si -2.64 -0.03 10.57
Si -0.52 -8.13 -7.24
Si  7.28 -5.81  5.67
Si  9.56  4.68 -2.41
Si -4.25  4.67 -8.91
Si -10.40  2.31  2.46
Si -7.31  5.81 -5.68
Si -4.35 -4.63 -8.90
Si -10.84  1.16 -0.85
Si -7.37 -3.46  7.31
Si  3.12 10.45 -0.86
Si -1.28  8.11 -7.23
Si  1.72 -2.25 -10.57
Si -1.67  2.35 10.56
Si  4.67 -8.12 -5.67
Si  7.42  3.52 -7.24
Si -9.60 -4.64  2.49
Si  1.70  2.33 10.57
Si -3.17 -10.46  0.80
Si  0.48  8.16  7.32
Si -1.76 -2.33 -10.58
Si 10.45  2.31  2.46
Si  1.22 -8.12  7.30
Si  4.39  4.72  8.89
Si  4.37 -4.64  8.96
Si -4.69  8.17  5.68
Si -4.26  9.31 -4.03
Si  4.29 -9.28  4.06
Si -10.49 -2.27 -2.44
Si -7.39 -8.13 -0.77
Si -8.26 -1.15 -7.24
Si  8.22  1.19  7.32
Si  4.45  9.30  4.05
Si -4.48 -9.30 -4.07
Si -2.25 -8.12  7.24
Si  7.51  8.15  0.82
Si  2.24  8.11 -7.30
Si -3.80 10.46 -0.81
Si  3.77 -10.49  0.83
Si -3.38  2.33 -10.51
Si  0.04  6.94 -8.90
Si -8.61  6.87  2.46
Si  2.98 -8.12 -7.29
Si -0.07 -6.98  8.92
Si  9.16  3.50 -5.68
Si  3.46  2.31 -10.54
Si  5.97 -9.32  2.43
Si  9.52 -4.65  4.05
Si  8.59 -6.99 -2.44
Si -2.95  8.14  7.33
Si -9.14 -3.59  5.68
Si  3.50 -2.31 10.55
Si -4.31 -0.04 -10.50
Si -5.98  9.32 -2.49
Si -9.55  4.65 -4.07
Si -10.40 -2.37  4.00
Si -8.71 -6.95 -2.42
Si -10.39  2.33 -4.07
Si -3.44 -2.35 10.62
Si -9.62 -4.64 -4.03
Si  4.32 -0.03 10.57
Si  1.78  6.96  8.87
Si -6.22 -9.27 -2.41
Si -6.64 -5.84 -7.23
Si  6.57  5.83  7.30
Si 10.44 -2.37  4.00
Si 10.87  3.47 -0.86
Si  1.64 -7.01 -8.89
Si  6.18  9.31  2.49
Si -1.64  6.94  8.96
Si -5.76 -8.12 -5.67
Si  9.64  4.67  4.06
Si 10.45  2.33 -4.07
Si -1.83 -6.97 -8.93
Si -10.91 -3.48  0.80
Si  5.73  8.17  5.68
Si  8.76  7.00  2.49
Si  6.98 -2.35 -8.84
Si  8.10 -8.13  0.84
Si  9.96  1.16  5.67
Si -6.92 -2.31 -8.91
Si 11.27 -0.01 -2.44
Si -8.24  3.48  7.29
Si  8.22 -3.59 -7.27
Si -6.96  2.31  8.92
Si -9.99 -1.16 -5.68
Si -11.29 -0.10  2.46
Si  0.78 -4.67 -10.54
Si -8.17  8.13 -0.85
