500
set: 409.00  0.00  0.00
Si  0.02  0.19  0.02
Si  0.05 -2.02  0.68
Si  0.08 -0.14 -2.20
Si -1.83  1.14  0.74
Si  1.90  1.12  0.85
Si -1.78  0.96  2.98
Si  0.05  1.98 -3.03
Si  1.81 -3.13 -0.18
Si -1.81 -3.14  0.11
Si -1.86 -1.04 -2.95
Si  3.65  0.01  0.08
Si -3.71  0.01  0.08
Si  1.82  1.08  3.05
Si  1.87  3.22  0.11
Si  0.05 -2.27  2.98
Si -1.87  3.24 -0.18
Si  1.90 -1.17 -3.03
Si -1.85 -1.20  3.57
Si  3.61  0.01 -2.17
Si  1.79  3.19 -2.18
Si -0.05  4.21  0.73
Si  3.62 -2.16  0.73
Si -1.89 -3.18 -2.18
Si -1.85  3.04 -2.43
Si -3.74  0.01 -2.17
Si  1.79 -1.06  3.83
Si -3.73 -2.16  0.73
Si -0.06  2.13  3.83
Si  1.83 -3.32 -2.43
Si  3.58 -2.12  2.96
Si  3.58  2.13 -3.05
Si -0.10  4.25  2.96
Si -0.10 -4.24 -3.05
Si -3.78 -2.12  2.96
Si -3.78  2.13 -3.05
Si -1.77 -1.00 -5.15
Si  1.84 -5.22  0.74
Si -3.60  1.98  3.80
Si -1.77 -5.25  0.85
Si -5.45  1.12  0.85
Si  1.84 -0.98 -5.26
Si  5.52  1.14  0.74
Si  3.75  1.98  3.80
Si -3.63  4.34  0.68
Si  3.72  4.34  0.68
Si  0.05  2.22 -5.32
Si  0.08 -4.38  3.80
Si -1.87 -1.01  5.82
Si -3.63  4.10  2.98
Si -1.81  1.10 -5.89
Si -1.78  5.20 -3.03
Si  3.72  4.10  2.98
Si -0.03 -2.12 -5.93
Si  5.50 -1.04 -2.95
Si -5.45 -1.17 -3.03
Si  1.82  5.33 -2.95
Si -0.03 -6.36  0.08
Si -5.49  3.22  0.11
Si -5.54 -3.13 -0.18
Si  5.49  3.24 -0.18
Si -0.03  6.37  0.08
Si  5.54 -3.14  0.11
Si -1.86 -5.29  3.05
Si  5.58  0.96  2.98
Si -5.54  1.08  3.05
Si -0.03  2.13  6.08
Si -3.63 -4.39 -3.03
Si  1.90 -5.41  2.98
Si  1.87 -1.02  6.12
Si  3.73 -4.39 -3.03
Si  1.81  1.12 -6.18
Si  1.83  5.17  3.57
Si  5.50 -1.20  3.57
Si  5.47 -3.18 -2.18
Si -0.06 -6.36 -2.17
Si -0.05 -0.03  6.73
Si  3.62  2.09 -5.28
Si -0.06  6.37 -2.17
Si  5.50  3.04 -2.43
Si  3.61 -4.24  3.83
Si -5.56  3.19 -2.18
Si -3.73  2.09 -5.28
Si -0.05 -4.28 -5.28
Si -1.89  5.31  3.83
Si -3.74 -4.24  3.83
Si -5.56 -1.06  3.83
Si -5.53 -3.32 -2.43
Si -3.65 -6.18  0.02
Si  3.70 -6.18  0.02
Si  0.02 -4.06  6.02
Si -3.65 -1.93 -5.98
Si  3.70 -1.93 -5.98
Si -7.33  0.19  0.02
Si  7.37  0.19  0.02
Si -3.66  2.31  6.02
Si  3.70  2.31  6.02
Si  0.02  4.43 -5.98
Si -3.66  6.56  0.02
Si -3.60  6.23 -2.20
Si  3.70  6.56  0.02
Si  3.75  6.23 -2.20
Si -7.28 -0.14 -2.20
Si -3.63  0.10  6.69
Si -7.31 -2.02  0.68
Si -5.51 -5.22  0.74
Si -1.83 -3.10  6.75
Si  3.72  0.10  6.69
Si -3.63 -4.15 -5.32
Si  5.58 -1.00 -5.15
Si  1.90  5.36 -5.15
Si -5.51 -0.98 -5.26
Si  7.40 -2.02  0.68
Si  3.72 -4.15 -5.32
Si  5.58 -5.25  0.85
Si  1.84  3.27  6.75
Si -1.77  7.49  0.85
Si  7.43 -0.14 -2.20
Si -1.84  5.39 -5.26
Si -3.60 -6.51 -2.20
Si  1.84  7.51  0.74
Si  1.90 -3.13  6.86
Si -1.77  3.24  6.86
Si  3.75 -6.51 -2.20
Si  5.49 -1.01  5.82
Si  1.81  5.36  5.82
Si  1.87 -5.27 -5.89
Si  1.90  7.32  2.98
Si -7.30  1.98 -3.03
Si  3.65  4.25 -5.93
Si  5.54  1.10 -5.89
Si  1.82 -7.41 -2.95
Si -3.71  4.25 -5.93
Si  5.58  5.20 -3.03
Si -7.30 -2.27  2.98
Si  5.50 -5.29  3.05
Si -5.54  5.33 -2.95
Si  7.40  1.98 -3.03
Si -5.45 -5.41  2.98
Si  3.65 -4.24  6.08
Si -1.86  7.45  3.05
Si -5.49 -1.02  6.12
Si -3.71 -4.24  6.08
Si  7.40 -2.27  2.98
Si -1.77 -7.53 -3.03
Si -1.81  5.35  6.12
Si -1.87 -5.25 -6.18
Si -5.53  5.17  3.57
Si -5.54  1.12 -6.18
Si -0.06 -2.12 -8.18
Si  7.30  4.21  0.73
Si -1.89  1.06 -8.18
Si  7.29  2.13  3.83
Si  5.47  5.31  3.83
Si -7.41  4.21  0.73
Si -0.05 -8.52  0.73
Si -1.89 -7.42  3.83
Si  1.83 -7.57  3.57
Si -7.42  2.13  3.83
Si  1.83  0.92 -8.44
Si  7.25  4.25  2.96
Si  7.25 -4.24 -3.05
Si -0.10  0.01  8.96
Si -0.10 -8.48  2.96
Si -0.10  8.50 -3.05
Si -0.10  0.01 -9.05
Si -7.45  4.25  2.96
Si -7.45 -4.24 -3.05
Si  0.05 -6.27  6.69
Si -3.63 -8.39  0.68
Si  0.08  4.11 -8.21
Si  0.08  8.35  3.80
Si  1.90 -7.37 -5.15
Si  3.72 -8.39  0.68
Si -1.83 -7.35 -5.26
Si -5.45  5.36 -5.15
Si -3.60 -2.26 -8.21
Si  5.52 -3.10  6.75
Si -9.19  1.14  0.74
Si -5.45 -3.13  6.86
Si  0.05  6.47  6.69
Si  3.75 -2.26 -8.21
Si -5.51  3.27  6.75
Si -7.28 -4.38  3.80
Si -7.31  2.22 -5.32
Si  5.52  5.39 -5.26
Si -5.51  7.51  0.74
Si  9.26  1.12  0.85
Si  5.58  7.49  0.85
Si  7.40  2.22 -5.32
Si  5.58  3.24  6.86
Si  7.43 -4.38  3.80
Si  1.81 -7.37  5.82
Si -3.63  8.34 -3.03
Si -5.45  7.32  2.98
Si -5.49 -5.27 -5.89
Si  3.72  8.34 -3.03
Si -9.13  0.96  2.98
Si  7.32 -2.12 -5.93
Si -5.54  5.36  5.82
Si  1.82 -3.17 -8.96
Si -1.87 -9.50 -0.18
Si  1.90  3.08  8.98
Si  9.16 -3.13 -0.18
Si -9.16 -3.14  0.11
Si -3.63 -0.15  8.98
Si -1.86  3.20 -8.96
Si  1.87 -9.51  0.11
Si  1.87  7.47 -5.89
Si  7.32 -6.36  0.08
Si -7.38 -2.12 -5.93
Si  7.32  6.37  0.08
Si -5.54 -7.41 -2.95
Si  3.72 -0.15  8.98
Si  9.17  1.08  3.05
Si  1.90  3.08 -9.03
Si -1.78 -3.29  8.98
Si -9.21 -1.04 -2.95
Si -3.63 -0.15 -9.03
Si  5.49  7.45  3.05
Si -7.38 -6.36  0.08
Si  7.32  2.13  6.08
Si -7.38  6.37  0.08
Si -1.81 -7.39  6.12
Si  1.82 -3.17  9.05
Si -1.81  9.59  0.11
Si  9.22  3.22  0.11
Si  3.73 -0.15 -9.03
Si -1.77 -3.29 -9.03
Si -9.22  3.24 -0.18
Si  1.81  9.61 -0.18
Si -1.86  3.20  9.05
Si  1.83  0.92  9.57
Si  5.49 -5.25 -6.18
Si -7.38  2.13  6.08
Si  9.25 -1.17 -3.03
Si -3.63 -8.64  2.98
Si  5.54  5.35  6.12
Si  5.58 -7.53 -3.03
Si  3.73 -8.64  2.98
Si -1.87  7.49 -6.18
Si  1.83  9.41 -2.43
Si  5.47  1.06 -8.18
Si  3.61  4.25 -8.18
Si  1.79 -5.30 -8.18
Si  7.29 -6.36 -2.17
Si  7.29  6.37 -2.17
Si  9.14  3.19 -2.18
Si  3.62  6.33  6.73
Si  7.30 -0.03  6.73
Si -9.20 -1.20  3.57
Si -3.74  4.25 -8.18
Si  1.79 -9.55 -2.18
Si -3.73  6.33  6.73
Si  9.14 -1.06  3.83
Si -0.05  8.46 -5.28
Si  3.62 -6.40  6.73
Si  7.30 -4.28 -5.28
Si -1.89  9.56 -2.18
Si  5.47 -7.42  3.83
Si -9.20  3.04 -2.43
Si  3.61  8.50  3.83
Si -7.41 -0.03  6.73
Si -3.73 -6.40  6.73
Si -7.42 -6.36 -2.17
Si -9.24 -3.18 -2.18
Si -7.42  6.37 -2.17
Si -5.53 -7.57  3.57
Si -3.74  8.50  3.83
Si -7.41 -4.28 -5.28
Si -0.06 -2.12  9.83
Si  9.18 -3.32 -2.43
Si -1.89  1.06  9.83
Si -5.53  0.92 -8.44
Si -1.85 -9.69 -2.43
Si -1.85 -5.45 -8.44
Si  0.02 -8.30 -5.98
Si -7.33 -4.06  6.02
Si  7.38 -4.06  6.02
Si -7.33  4.43 -5.98
Si  7.37  4.43 -5.98
Si -5.45 -7.37 -5.15
Si -9.13 -1.00 -5.15
Si -9.13 -5.25  0.85
Si  0.02  8.68  6.02
Si  5.52 -7.35 -5.26
Si  9.20 -5.22  0.74
Si  0.08  4.11  9.81
Si  9.20 -0.98 -5.26
Si -3.60 -2.26  9.81
Si  0.05 10.71  0.68
Si -3.63  8.59 -5.32
Si  3.75 -2.26  9.81
Si  3.72  8.59 -5.32
Si  0.05 10.47  2.98
Si -5.54 -7.37  5.82
Si  0.05  6.22  8.98
Si -9.13  5.20 -3.03
Si -9.16  1.10 -5.89
Si -5.45  3.08  8.98
Si -9.22 -1.01  5.82
Si  0.05  6.22 -9.03
Si  5.49 -9.50 -0.18
Si  3.65 -8.48 -5.93
Si -5.49 -9.51  0.11
Si -5.49  7.47 -5.89
Si  5.49  3.20 -8.96
Si -5.45  3.08 -9.03
Si -3.71 -8.48 -5.93
Si -5.54 -3.17 -8.96
Si 11.00  0.01  0.08
Si  9.17  5.33 -2.95
Si -9.21 -5.29  3.05
Si -11.06  0.01  0.08
Si  5.49  3.20  9.05
Si  3.64  8.50  6.08
Si  5.58 -3.29  8.98
Si -5.54 -3.17  9.05
Si  5.54  9.59  0.11
Si  5.54 -7.39  6.12
Si -3.71  8.50  6.08
Si -5.53  0.92  9.57
Si -5.54  9.61 -0.18
Si  0.05 -6.51  8.98
Si  9.16  1.12 -6.18
Si  9.22 -1.02  6.12
Si  5.58 -3.29 -9.03
Si  9.18  5.17  3.57
Si  9.25 -5.41  2.98
Si  0.05 -6.51 -9.03
Si  5.49  7.49 -6.18
Si  7.29 -2.12 -8.18
Si -1.85 -5.45  9.57
Si  0.05 -10.76 -3.03
Si 10.97  0.01 -2.17
Si -5.53  9.41 -2.43
Si  1.79  7.43 -8.18
Si  3.62 10.58  0.73
Si 10.98 -2.16  0.73
Si  5.47  9.56 -2.18
Si -5.56 -5.30 -8.18
Si -7.42 -2.12 -8.18
Si -3.73 10.58  0.73
Si  7.30 -8.52  0.73
Si -5.56 -9.55 -2.18
Si -0.06 -10.61  3.83
Si -0.05 -0.03 -11.28
Si  5.47  1.06  9.83
Si -1.85  7.29 -8.44
Si -11.09  0.01 -2.17
Si  3.61  4.25  9.83
Si  1.79 -5.30  9.83
Si -11.08 -2.16  0.73
Si -7.41 -8.52  0.73
Si -9.24  5.31  3.83
Si -3.74  4.25  9.83
Si  5.50 -9.69 -2.43
Si  5.50 -5.45 -8.44
Si 10.93 -2.12  2.96
Si  7.25  0.01  8.96
Si 10.93  2.13 -3.05
Si  7.25 -8.48  2.96
Si  3.58 -6.36  8.96
Si  3.58  6.37  8.96
Si  7.25  8.50 -3.05
Si  3.58 10.62  2.96
Si  7.25  0.01 -9.05
Si  3.58 -10.61 -3.05
Si -3.78 -6.36  8.96
Si -3.78  6.37  8.96
Si  3.58 -6.36 -9.05
Si  3.58  6.37 -9.05
Si -3.78 10.62  2.96
Si -7.45  0.01  8.96
Si -3.77 -10.61 -3.05
Si -7.45 -8.48  2.96
Si -3.77 -6.36 -9.05
Si -3.78  6.37 -9.05
Si -7.45  8.50 -3.05
Si -11.13 -2.12  2.96
Si -7.28  4.11 -8.21
Si -7.28  8.35  3.80
Si -7.31 -6.27  6.69
Si -7.45  0.01 -9.05
Si -11.13  2.13 -3.05
Si  1.90 -3.13 -11.16
Si -1.77  3.24 -11.16
Si -1.83 -11.59  0.74
Si -10.95  1.98  3.80
Si  1.84 -9.47  6.75
Si  7.40 -6.27  6.69
Si  0.05 -10.52 -5.32
Si  1.90 -11.62  0.85
Si  7.43  4.11 -8.21
Si  7.43  8.35  3.80
Si -9.19 -3.10  6.75
Si -1.83 -3.10 -11.26
Si -7.31  6.47  6.69
Si -10.98  4.34  0.68
Si -9.13  7.49  0.85
Si -1.77 -9.49  6.86
Si  9.19  3.27  6.75
Si -9.13  3.24  6.86
Si  1.84  3.27 -11.26
Si  9.26  5.36 -5.15
Si -9.19  5.39 -5.26
Si  7.40  6.47  6.69
Si -3.63  0.10 -11.32
Si  9.19  7.51  0.74
Si -1.84  9.63  6.75
Si 11.11  1.98  3.80
Si  0.08 -8.63 -8.21
Si 11.08  4.34  0.68
Si  3.72  0.10 -11.32
Si  9.26 -3.13  6.86
Si  1.90  9.61  6.86
Si -3.60 -10.75  3.80
Si  3.75 -10.75  3.80
Si  1.81  1.12 11.83
Si  1.87 -1.02 -11.90
Si -10.98  4.10  2.98
Si  9.16  5.36  5.82
Si  1.90 11.57 -3.03
Si -0.03  2.13 -11.93
Si  9.22 -5.27 -5.89
Si  9.17 -7.41 -2.95
Si -0.03 10.62 -5.93
Si  9.25  7.32  2.98
Si -1.85  7.29  9.57
Si 11.08  4.10  2.98
Si  1.82 -11.65  3.05
Si -1.86 11.69 -2.95
Si -10.98 -4.39 -3.03
Si -1.85 11.54  3.57
Si -9.13 -7.53 -3.03
Si -0.03 -10.61  6.08
Si -9.21  7.45  3.05
Si -9.16  5.35  6.12
Si -0.03 -2.12 12.08
Si -1.77 -11.78  2.98
Si -9.22 -5.25 -6.18
Si 11.08 -4.39 -3.03
Si -1.81  1.10 12.12
Si  5.50 -5.45  9.57
Si  3.62 -8.48 -8.18
Si  7.30  8.46 -5.28
Si 10.98  2.09 -5.28
Si -3.74 -8.48 -8.18
Si 10.97 -4.24  3.83
Si -1.87 -1.01 -12.19
Si -5.56  7.43 -8.18
Si -9.24  1.06 -8.18
Si -7.41  8.46 -5.28
Si  1.79 11.68  3.83
Si  7.29 -2.12  9.83
Si  9.18 -7.57  3.57
Si  3.62 -10.65 -5.28
Si  5.50  7.29 -8.44
Si -11.08  2.09 -5.28
Si  1.79  7.43  9.83
Si -3.73 -10.65 -5.28
Si -9.24 -7.42  3.83
Si -5.56 -5.30  9.83
Si -11.09 -4.24  3.83
Si -7.42 -2.12  9.83
Si  9.18  0.92 -8.44
Si  0.02 -12.55  0.02
Si -3.65 -10.43  6.02
Si -7.33 -8.30 -5.98
Si  3.70 -10.43  6.02
Si  7.38 -8.30 -5.98
Si -11.01 -6.18  0.02
Si  0.02 -4.06 -11.99
Si 11.05 -6.18  0.02
Si -11.01 -1.93 -5.98
Si 11.05 -1.93 -5.98
Si -3.65 -1.93 12.03
Si  3.70 -1.93 12.03
Si -3.65  2.31 -11.99
Si  3.70  2.31 -11.99
Si -11.01  2.31  6.02
Si  0.08 12.60 -2.20
Si -10.95  6.23 -2.20
Si 11.05  2.31  6.02
Si -5.45 -3.13 -11.16
Si -11.01  6.56  0.02
Si  0.02  4.43 12.03
Si 11.05  6.56  0.02
Si -10.98  0.10  6.69
Si  5.52 -11.59  0.74
Si -5.45 -11.62  0.85
Si -7.33  8.68  6.02
Si -5.51 -9.47  6.75
Si -3.66 10.80 -5.98
Si -12.80  1.12  0.85
Si  0.05  2.22 12.69
Si -7.28  4.11  9.81
Si  7.37  8.68  6.02
Si -9.19 -7.35 -5.26
Si  5.58  3.24 -11.16
Si -10.98 -4.15 -5.32
