500
set: 212.00  0.00  0.00
Si  0.03  0.03 -0.04
Si -1.86  1.08  0.74
Si  0.04 -2.13  0.79
Si  1.82  1.13  0.80
Si  0.02 -0.00 -2.30
Si  3.68  0.03  0.03
Si -1.86  1.09  2.98
Si  0.01  2.14 -3.02
Si -0.01 -2.14  3.03
Si -1.87 -1.09 -3.02
Si  1.89 -3.20  0.04
Si -1.85 -3.23 -0.05
Si  1.86  1.08  3.05
Si -1.88  3.23  0.00
Si -3.74 -0.00  0.04
Si  1.88 -1.11 -3.05
Si  1.90  3.26 -0.01
Si -3.70 -0.04 -2.18
Si  1.84 -1.09  3.75
Si -1.88  3.21 -2.25
Si -1.88 -1.03  3.79
Si -0.01  4.29  0.73
Si  3.72  0.00 -2.27
Si  0.02  2.16  3.79
Si  3.76 -2.12  0.74
Si -3.73 -2.17  0.80
Si  1.86  3.27 -2.27
Si  1.83 -3.29 -2.28
Si -1.90 -3.23 -2.36
Si -3.70  2.09 -3.02
Si  3.73  2.13 -3.04
Si  3.75 -2.14  3.02
Si  0.04  4.33  3.04
Si -0.01 -4.36 -3.02
Si -3.74 -2.17  3.08
Si -1.83 -5.34  0.74
Si -3.70  2.12  3.78
Si  5.55  1.11  0.74
Si -1.87 -1.04 -5.29
Si  1.84 -5.37  0.77
Si -0.03  2.15 -5.33
Si -0.03 -4.30  3.80
Si -3.75  4.31  0.77
Si  3.72  2.19  3.83
Si  1.89 -1.10 -5.34
Si -5.63  1.11  0.74
Si  3.76  4.34  0.74
Si  0.02  6.41  0.01
Si  5.59 -1.06 -2.98
Si -5.59 -1.06 -2.98
Si  1.85 -1.06  6.06
Si -5.56  3.22 -0.04
Si  5.56  1.10  3.04
Si -1.89  5.32 -3.08
Si  1.88 -5.36  3.03
Si -1.87 -5.36  3.02
Si -1.89 -1.13  6.05
Si  3.72  4.32  3.02
Si -0.03 -2.13 -6.09
Si -3.71  4.32  3.03
Si -3.73 -4.29 -3.06
Si  0.03 -6.46 -0.04
Si -5.57 -3.27  0.01
Si  5.61  3.22 -0.04
Si  1.88  1.10 -6.10
Si  1.85  5.39 -3.06
Si -1.87  1.09 -6.11
Si -5.62  1.10  3.04
Si  5.60 -3.27  0.01
Si  3.70 -4.36 -3.08
Si -0.00  2.17  6.14
Si -3.68  2.10 -5.28
Si -0.03 -4.26 -5.32
Si  5.58  3.17 -2.30
Si -1.84  5.36  3.79
Si  5.55 -3.23 -2.27
Si  5.56 -1.03  3.81
Si -5.60  3.17 -2.30
Si -0.04  6.45 -2.27
Si  1.91  5.33  3.84
Si -0.04 -0.00  6.85
Si  3.75  2.13 -5.34
Si  3.75 -4.32  3.79
Si -5.62 -1.03  3.81
Si -5.62 -3.23 -2.27
Si -3.68 -4.35  3.84
Si -0.01 -6.51 -2.30
Si -3.69 -6.42 -0.01
Si -3.71  2.12  6.07
Si  7.44 -0.00  0.04
Si  3.71 -6.45  0.00
Si -3.72 -2.15 -6.08
Si  3.74  6.45 -0.05
Si -3.70  6.48  0.04
Si  3.72  2.13  6.11
Si -0.01  4.32 -6.10
Si  0.01 -4.32  6.10
Si  3.72 -2.14 -6.15
Si -7.50  0.03  0.03
Si  3.69 -0.00  6.77
Si -3.75  6.38 -2.28
Si -7.42 -2.12  0.74
Si -3.73 -6.41 -2.27
Si  3.71 -4.26 -5.34
Si  1.85  7.51  0.80
Si -5.57 -1.07 -5.33
Si  1.86 -3.19  6.86
Si  7.48 -0.04 -2.18
Si  5.58 -5.39  0.73
Si  7.44 -2.17  0.80
Si  3.71 -6.47 -2.25
Si -7.46  0.00 -2.27
Si  3.69  6.45 -2.36
Si -5.59 -5.39  0.73
Si -1.87  3.23  6.85
Si -3.75 -0.07  6.84
Si  5.61 -1.07 -5.33
Si -1.83  7.56  0.74
Si  1.84  5.37 -5.37
Si -1.88 -3.24  6.87
Si -1.88  5.42 -5.34
Si -3.75 -4.31 -5.37
Si  1.89  3.19  6.95
Si  5.58  5.32 -3.02
Si -5.55 -5.35  3.04
Si -5.60  5.32 -3.02
Si -3.74  4.28 -6.04
Si -7.43 -2.14  3.02
Si -5.55  1.10 -6.09
Si  1.85 -5.40 -6.04
Si  1.89  5.32  6.11
Si -1.86  5.36  6.09
Si -7.45  2.13 -3.04
Si  1.85  7.51  3.08
Si -1.84  7.54  3.02
Si  7.48  2.09 -3.02
Si -1.84 -5.37 -6.10
Si  7.44 -2.17  3.08
Si  5.62 -5.35  3.04
Si  3.73 -4.32  6.09
Si  5.58 -1.13  6.10
Si -1.86 -7.55 -3.04
Si -5.60 -1.13  6.10
Si  5.62  1.10 -6.09
Si  3.75  4.31 -6.10
Si -3.70 -4.36  6.11
Si  1.89 -7.59 -3.02
Si -0.04 -8.57  0.74
Si  5.56  5.38  3.80
Si  7.42  4.31  0.77
Si  1.84  1.08 -8.35
Si -1.87 -7.49  3.83
Si -7.42  4.34  0.74
Si  7.48  2.12  3.78
Si -0.04 -2.12 -8.39
Si -1.83  1.12 -8.38
Si -5.62  5.38  3.80
Si  1.89 -7.55  3.78
Si -7.46  2.19  3.83
Si -0.03 -8.58  3.04
Si  7.44 -4.29 -3.06
Si -0.00  8.62 -2.98
Si -7.46  4.32  3.02
Si  0.02 -0.04  9.14
Si  7.47  4.32  3.03
Si  0.03 -0.00 -9.16
Si -7.47 -4.36 -3.08
Si -0.01  6.40  6.82
Si -3.77 -8.55  0.80
Si -3.77 -2.09 -8.33
Si -5.57  3.23  6.82
Si  0.04  4.32 -8.33
Si  0.02 -6.46  6.82
Si -7.43  2.13 -5.34
Si -7.43 -4.32  3.79
Si  5.58 -3.28  6.82
Si -5.55  7.55  0.79
Si  5.61  3.23  6.82
Si  3.73 -8.60  0.74
Si  5.56  5.42 -5.32
Si  7.50  2.10 -5.28
Si  9.32  1.08  0.74
Si -5.60 -3.28  6.82
Si  3.73 -2.15 -8.39
Si -1.84 -7.55 -5.34
Si  1.91 -7.58 -5.28
Si -5.62  5.42 -5.32
Si  5.62  7.55  0.79
Si -0.03  8.64  3.81
Si -9.35  1.13  0.80
Si  7.50 -4.35  3.84
Si  1.85 -3.23 -9.08
Si  3.74 -0.00  9.08
Si -9.29 -3.20  0.04
Si  3.72 -8.59  2.98
Si -3.71  8.57 -3.05
Si  3.72  8.59 -3.02
Si -1.91 -3.20 -9.10
Si  1.89  3.25 -9.09
Si -9.28  3.26 -0.01
Si  9.31  1.09  2.98
Si -1.91 -9.65  0.03
Si  9.30  3.23  0.00
Si -7.44  6.45 -0.05
Si  9.31 -1.09 -3.02
Si  1.90 -3.19  9.12
Si -9.30 -1.11 -3.05
Si  3.71  0.00 -9.12
Si  5.58 -5.36 -6.10
Si -3.69  0.03 -9.13
Si  7.45 -2.15 -6.08
Si  1.85  9.68  0.04
Si -5.58  5.36  6.10
Si -3.72 -8.60  3.05
Si  5.58  7.54  3.03
Si  1.86  7.53 -6.08
Si  1.85 -9.68  0.04
Si -5.58 -7.54 -3.02
Si  7.47  2.12  6.07
Si -9.31  1.08  3.05
Si -1.88 -3.22  9.13
Si  7.49 -6.42 -0.01
Si -7.47 -6.45  0.00
Si  5.60  5.36  6.10
Si -5.60 -5.36 -6.10
Si  5.60 -7.54 -3.02
Si -5.60  7.54  3.03
Si  9.33 -3.23 -0.05
Si -7.46  2.13  6.11
Si  1.88 -7.56  6.07
Si -3.70  0.02  9.17
Si -1.87 -7.55  6.11
Si  7.48  6.48  0.04
Si -1.91  9.71  0.03
Si -7.45 -2.14 -6.15
Si  1.85  3.23  9.17
Si -1.85  3.22 -9.18
Si -1.91  3.25  9.15
Si -1.86  7.54 -6.15
Si  7.42  6.38 -2.28
Si  1.89  9.64 -2.18
Si -3.73  4.29 -8.33
Si  7.45 -6.41 -2.27
Si -7.48 -0.00  6.77
Si -0.01 -2.16  9.86
Si  1.85 -5.39 -8.33
Si  9.30  3.21 -2.25
Si  9.30 -1.03  3.79
Si  7.42 -0.07  6.84
Si -3.75  8.59  3.75
Si -1.83  1.10  9.87
Si -5.57 -7.52  3.79
Si  9.28 -3.23 -2.36
Si -1.83 -5.35 -8.38
Si -1.87 -9.68 -2.27
Si -7.46 -4.26 -5.34
Si  3.72 -6.45  6.85
Si  5.61 -7.52  3.79
Si -9.34 -1.09  3.75
Si  3.71  6.44  6.87
Si -1.87  9.68 -2.27
Si  0.02  8.61 -5.33
Si -9.32  3.27 -2.27
Si -7.46 -6.47 -2.25
Si  7.43 -4.31 -5.37
Si  1.89 -9.71 -2.18
Si  5.58  1.07 -8.39
Si  3.71  8.64  3.79
Si -5.59  1.07 -8.39
Si  1.85  1.06  9.92
Si -3.73  6.49  6.86
Si  3.76  4.33 -8.38
Si -7.48  6.45 -2.36
Si -9.34 -3.29 -2.28
Si -3.70 -6.49  6.95
Si  7.44  4.28 -6.04
Si -0.01  8.55  6.10
Si  0.04 -8.58 -6.09
Si -7.43  4.31 -6.10
Si -7.45 -4.32  6.09
Si  7.48 -4.36  6.11
Si  9.30 -1.04 -5.29
Si -3.70  8.58 -5.34
Si  5.56 -7.53 -5.33
Si  3.76 -2.11  9.87
Si -9.29 -1.10 -5.34
Si -0.04  4.34  9.87
Si  9.35 -5.34  0.74
Si  3.72  8.64 -5.29
Si -5.62 -7.53 -5.33
Si -3.75 -2.14  9.90
Si -9.34 -5.37  0.77
Si -0.04 10.79  0.74
Si  3.70  8.55  6.05
Si  0.03 -6.42  9.09
Si -5.56 -3.23  9.09
Si -5.56 -9.65 -0.04
Si -5.56  3.26  9.09
Si  9.29  5.32 -3.08
Si  9.29 -1.13  6.05
Si  0.03  6.45  9.09
Si -5.57  3.18 -9.11
Si -0.00 -10.74 -2.98
Si -11.15  0.03 -0.04
Si -9.30 -5.36  3.03
Si  9.31 -5.36  3.02
Si  5.60  3.18 -9.11
Si  5.61 -3.23  9.09
Si -3.71 -8.58 -6.10
Si  5.62 -9.65 -0.04
Si  5.62  3.26  9.09
Si -9.32 -1.06  6.06
Si -9.30  1.10 -6.10
Si  3.72 -8.59 -6.11
Si  5.56  7.55 -6.09
Si -3.73  8.62  6.06
Si  9.31  1.09 -6.11
Si -5.56 -3.20 -9.16
Si -5.56  9.71 -0.04
Si  0.02 -6.50 -9.11
Si -0.03 10.78  3.04
Si  5.59 -7.51  6.14
Si -9.32  5.39 -3.06
Si -5.59 -7.51  6.14
Si 11.20  0.03 -0.04
Si -5.62  7.55 -6.09
Si  5.62 -3.20 -9.16
Si  5.62  9.71 -0.04
Si  0.03  6.48 -9.16
Si  7.41 -8.55  0.80
Si  7.41 -2.09 -8.33
Si -5.55 -5.36 -8.33
Si -9.27  5.33  3.84
Si -11.14 -2.13  0.79
Si -0.03 -10.71  3.81
Si -1.86 -5.37  9.87
Si -11.16 -0.00 -2.30
Si  3.73  4.31  9.87
Si  5.62 -5.36 -8.33
Si -7.44 -8.60  0.74
Si -5.57  9.68 -2.30
Si -5.57 -9.68 -2.30
Si  1.82 -5.32  9.93
Si  9.33  5.36  3.79
Si  1.82  7.59 -8.33
Si  3.73 10.76  0.74
Si -7.44 -2.15 -8.39
Si -5.55  1.09  9.92
Si  5.61  9.68 -2.30
Si  5.61 -9.68 -2.30
Si -1.86  7.53 -8.39
Si -0.01 -0.06 -11.43
Si 11.20 -0.00 -2.30
Si 11.21 -2.13  0.79
Si  5.62  1.09  9.92
Si -3.77  4.36  9.93
Si -3.77 10.81  0.80
Si -3.70 -6.43 -9.09
Si -7.44 -0.00  9.08
Si -3.74  6.45 -9.08
Si -7.45 -8.59  2.98
Si  3.68  6.48 -9.10
Si 11.16 -2.14  3.03
Si -11.17  2.14 -3.02
Si -7.46  8.59 -3.02
Si  7.47  8.57 -3.05
Si  3.68 -6.43  9.15
Si  3.72 10.77  2.98
Si  3.71  6.46  9.13
Si -3.69  6.49  9.12
Si  7.45 -8.60  3.05
Si 11.19  2.14 -3.02
Si -3.72 10.76  3.05
Si -11.19 -2.14  3.03
Si  3.72 -10.77 -3.02
Si -7.47  0.00 -9.12
Si -3.71 -10.79 -3.05
Si  7.49  0.03 -9.13
Si -3.74 -6.45  9.17
Si  3.74 -6.46 -9.18
Si  7.48  0.02  9.17
Si  1.89 -3.26 -11.31
Si  1.83  9.61  6.84
Si  3.71 -10.71  3.79
Si -1.90  9.68  6.77
Si  7.43  8.59  3.75
Si  7.44  4.29 -8.33
Si -1.83 -11.80  0.74
Si -1.90 -9.68  6.77
Si  3.71 -0.02 -11.38
Si  1.83  3.16 -11.41
Si -11.16  2.16  3.79
Si -3.73  0.04 -11.39
Si 11.17  4.29  0.73
Si -1.87 -3.22 -11.40
Si  0.02 -10.75 -5.33
Si -9.32 -3.19  6.86
Si -9.32  7.51  0.80
Si -7.42  4.33 -8.38
Si -3.75 -10.77  3.75
Si -11.18  4.29  0.73
Si  9.31  3.23  6.85
Si -7.46 -6.45  6.85
Si  9.30 -3.24  6.87
Si -7.46  6.44  6.87
Si 11.19  2.16  3.79
Si  1.85 -11.85  0.80
Si  9.30  5.42 -5.34
Si -0.01 -8.61 -8.39
Si  7.45  6.49  6.86
Si -9.29  3.19  6.95
Si -7.46  8.64  3.79
Si -9.34  5.37 -5.37
Si  9.35  7.56  0.74
Si  1.83 -9.75  6.84
Si -1.90  3.22 -11.48
Si  7.48 -6.49  6.95
Si  1.89 11.77 -3.02
Si -9.29  5.32  6.11
Si -0.01  2.10 -12.15
Si -11.14  4.33  3.04
Si -1.84  1.08 12.15
Si -1.86 11.81 -3.04
Si -1.84 -11.82  3.02
Si  1.89 -1.13 -12.14
Si  9.31  5.36  6.09
Si  0.04 -2.12 12.17
Si -1.86 -1.10 -12.17
Si -9.33 -5.40 -6.04
Si 11.17 -4.36 -3.02
Si -9.33  7.51  3.08
Si -9.29 -7.59 -3.02
Si  9.31 -7.55 -3.04
Si  9.34  7.54  3.02
Si -11.19 -4.36 -3.02
Si  0.04 10.78 -6.09
Si  9.34 -5.37 -6.10
Si  1.85 -11.85  3.08
Si  1.85  1.05 12.21
Si 11.21  4.33  3.04
Si -0.01 -10.81  6.10
Si  5.55 -5.34  9.87
Si  3.72 -10.72 -5.29
Si -7.42 -2.11  9.87
Si  1.89 11.80  3.78
Si 11.15  2.15 -5.33
Si 11.15 -4.30  3.80
Si  9.30 -7.49  3.83
Si -5.63 -5.34  9.87
Si -9.29 -7.55  3.78
Si  7.42 -2.14  9.90
Si  3.76 -8.56 -8.38
Si -3.75 -8.60 -8.35
Si  7.48  8.58 -5.34
Si -1.83  7.57  9.87
Si  1.84  7.54  9.90
Si -9.34  1.08 -8.35
Si -7.46  8.64 -5.29
Si  5.55  7.56 -8.39
Si -11.20  2.15 -5.33
Si -11.20 -4.30  3.80
Si -3.70 -10.78 -5.34
Si  9.35  1.12 -8.38
Si -1.87 11.87  3.83
Si -5.63  7.56 -8.39
Si -0.00 -4.29 -12.11
Si -7.47  8.55  6.05
Si -11.16  6.41  0.01
Si 11.15 -2.13 -6.09
Si  3.72 -2.14 12.15
Si -3.73 -10.74  6.06
Si -3.71 -2.13 12.15
Si -11.15 -6.46 -0.04
Si 11.19  6.41  0.01
Si  0.03 12.90 -0.04
Si  7.44  8.62  6.06
Si  7.47 -8.58 -6.10
Si -0.03  4.32 12.16
Si -7.46 -8.59 -6.11
Si  3.72 10.77 -6.11
Si -3.71 10.78 -6.10
Si  3.70  2.10 -12.21
Si  3.70 -10.81  6.05
Si -11.21 -2.13 -6.09
Si 11.20 -6.46 -0.04
Si -3.73  2.17 -12.19
Si 11.18  2.17  6.14
Si -11.18  2.17  6.14
Si  0.02 -12.95  0.01
Si  1.91 11.78 -5.28
Si -0.01 12.85 -2.30
Si 11.15 -4.26 -5.32
Si 13.00  1.13  0.80
Si 11.14  6.45 -2.27
Si -5.55 -11.81  0.79
Si 11.14 -0.00  6.85
Si -9.27 -7.58 -5.28
Si  5.55  3.23 -11.40
Si -7.44  4.31  9.87
Si -1.84 11.81 -5.34
