500
set: 495.00  0.00  0.00
Si -0.27 -0.17 -0.09
Si  1.58  0.80  0.73
Si -0.13 -0.17 -2.28
Si -1.73  1.25  0.87
Si  0.20 -2.16  0.82
Si  0.11  1.97 -2.81
Si  1.44  1.16  2.95
Si  2.04  2.85  0.03
Si  1.75 -1.23 -2.78
Si -3.54  0.31  0.08
Si  2.05 -2.96 -0.03
Si -1.54  3.26 -0.03
Si  3.65  0.31  0.08
Si -1.84  0.84  3.09
Si -1.55 -3.37  0.03
Si -2.16 -0.91 -2.92
Si -3.19 -1.91  0.46
Si  0.11 -2.18  3.05
Si  3.32  0.26 -2.16
Si -1.82  2.83 -2.21
Si -1.74 -2.98 -2.14
Si  1.85 -0.91  3.72
Si -1.82 -1.31  3.65
Si  1.85  3.24 -2.14
Si  0.40  4.31  0.46
Si -0.27  2.33  3.71
Si  1.77 -3.39 -2.21
Si -3.86  0.26 -2.16
Si  4.00 -1.91  0.46
Si  3.52 -1.93  2.68
Si -3.67 -1.93  2.68
Si -0.08  4.29  2.68
Si -0.08 -4.01 -3.19
Si  3.51  2.21 -3.19
Si  3.46  1.91  3.58
Si -3.67  2.21 -3.19
Si -3.39  4.06  0.82
Si  1.86 -4.97  0.87
Si  1.86 -0.82 -4.99
Si  0.20  1.99 -5.04
Si -3.72  1.91  3.58
Si -0.12 -4.31  3.58
Si  3.79  4.06  0.82
Si -2.01 -1.27 -5.13
Si  5.45  1.25  0.87
Si -5.60  0.80  0.73
Si -2.01 -5.42  0.73
Si  5.03 -0.91 -2.92
Si -5.15  2.85  0.03
Si  0.06 -5.91  0.08
Si -5.13 -2.96 -0.03
Si -1.84  4.99 -2.78
Si  0.06 -1.76 -5.78
Si -1.55  0.78 -5.83
Si -1.54 -0.89  5.84
Si -3.48  4.04  3.05
Si -3.48 -4.25 -2.81
Si -5.43 -1.23 -2.78
Si  1.43  5.31 -2.92
Si  5.34  0.84  3.09
Si -2.15 -5.06  2.95
Si  3.70  4.04  3.05
Si  3.70 -4.25 -2.81
Si  3.32 -3.89  3.71
Si  0.41  0.17  6.33
Si -0.27 -5.96 -2.16
Si  2.05  1.18 -5.89
Si  1.77  4.91  3.65
Si  2.04 -1.30  5.90
Si  0.05  2.38  5.95
Si  1.75 -5.38  3.09
Si  5.36  2.83 -2.21
Si  5.64  3.26 -0.03
Si  0.05  6.53  0.08
Si  5.63 -3.37  0.03
Si -5.33 -0.91  3.72
Si -5.75  1.16  2.95
Si  5.45 -2.98 -2.14
Si -5.33  3.24 -2.14
Si -3.86 -3.89  3.71
Si  5.36 -1.31  3.65
Si -3.19  2.24 -5.40
Si -1.74  5.32  3.72
Si  0.41 -3.98 -5.40
Si -5.41 -3.39 -2.21
Si -0.27  6.48 -2.16
Si  3.32  6.05 -0.09
Si  6.91 -0.17 -0.09
Si  3.32  1.90  5.78
Si  4.00  2.24 -5.40
Si -0.27  3.97 -5.95
Si -3.86  6.05 -0.09
Si  3.32 -2.25 -5.95
Si -3.86  1.90  5.78
Si  3.32 -6.40 -0.09
Si -0.27 -4.32  5.78
Si  1.58  4.95 -5.13
Si -5.32 -4.97  0.87
Si  3.46  6.05 -2.28
Si -2.01  7.02  0.73
Si -5.32 -0.82 -4.99
Si -6.98 -2.16  0.82
Si  5.17 -1.27 -5.13
Si -3.39 -4.23 -5.04
Si  7.06 -0.17 -2.28
Si -3.86 -2.25 -5.95
Si -7.45 -0.17 -0.09
Si -3.72  6.05 -2.28
Si -3.86 -6.40 -0.09
Si -2.01  2.88  6.60
Si -3.39 -0.08  6.69
Si  5.17 -5.42  0.73
Si -1.73 -2.89  6.74
Si -1.73  5.40 -4.99
Si  1.58 -3.35  6.60
Si  3.79 -4.23 -5.04
Si  3.47 -6.39 -2.28
Si -7.31 -0.17 -2.28
Si  3.79 -0.08  6.69
Si  5.03 -5.06  2.95
Si -3.71 -6.39 -2.28
Si  7.38 -2.16  0.82
Si  1.86  3.33  6.74
Si  1.86  7.47  0.87
Si  5.34  4.99 -2.78
Si  1.44 -7.13 -2.92
Si -1.56  4.92  5.90
Si -7.07  1.97 -2.81
Si -1.54 -5.04 -5.89
Si -5.13  1.18 -5.89
Si  1.75  7.07  3.09
Si -3.54 -3.84  5.95
Si -5.15 -1.30  5.90
Si  3.65 -3.84  5.95
Si -7.07 -2.18  3.05
Si -6.78  4.31  0.46
Si  7.29  1.97 -2.81
Si -3.54  4.46 -5.78
Si  5.63  0.78 -5.83
Si  0.41 -8.13  0.46
Si  3.65  4.46 -5.78
Si -1.84 -7.45 -2.78
Si  5.64 -0.89  5.84
Si  2.05  5.33  5.84
Si -5.41  4.91  3.65
Si  6.91  2.33  3.71
Si  7.29 -2.18  3.05
Si -1.74 -7.13  3.72
Si -0.27 -1.81 -8.03
Si  2.04 -5.45 -5.83
Si -2.16  7.38  2.95
Si -5.43 -5.38  3.09
Si -1.74  1.17 -8.01
Si  1.77  0.76 -8.07
Si -5.75  5.31 -2.92
Si  5.45  5.32  3.72
Si -0.08  0.14  8.54
Si  1.77 -7.54  3.65
Si -0.07 -8.15  2.68
Si -7.45  2.33  3.71
Si  7.11  4.29  2.68
Si  7.59  4.31  0.46
Si  5.17  7.02  0.73
Si  7.11 -4.01 -3.19
Si -1.73 -7.04 -4.99
Si  8.76  0.80  0.73
Si -6.98  1.99 -5.04
Si -7.26  4.29  2.68
Si  5.17  2.88  6.60
Si -7.26 -4.01 -3.19
Si -0.13  8.13  3.58
Si  7.06 -4.31  3.58
Si -0.08  8.44 -3.19
Si -8.91  1.25  0.87
Si -0.08  0.14 -9.05
Si -0.13  3.98 -8.14
Si -5.60  4.95 -5.13
Si -3.39 -8.38  0.82
Si  0.20  6.14  6.69
Si  3.47 -2.24 -8.14
Si  5.45 -2.89  6.74
Si  5.45  5.40 -4.99
Si  7.38  1.99 -5.04
Si  8.62  1.16  2.95
Si  0.20 -6.30  6.69
Si -1.56  9.07  0.03
Si -5.32  3.33  6.74
Si -7.31 -4.31  3.58
Si -5.33  7.47  0.87
Si  1.58 -7.49 -5.13
Si -3.72 -2.24 -8.14
Si  3.79 -8.38  0.82
Si -7.13 -5.91  0.08
Si -6.78  0.17  6.33
Si -5.60 -3.35  6.60
Si  1.75  2.92 -8.64
Si -1.54 -9.19 -0.03
Si -8.73  3.26 -0.03
Si -3.19 -6.06  6.33
Si  2.04  7.00 -5.83
Si -3.48  8.19 -2.81
Si -7.13 -1.76 -5.78
Si  7.24 -5.91  0.08
Si -3.48 -0.10 -8.68
Si -8.74 -3.37  0.03
Si  6.91 -5.96 -2.16
Si  1.44 -2.99 -8.78
Si  5.02  7.38  2.95
Si  1.44 -2.98  8.81
Si  3.70  8.19 -2.81
Si  2.05 -7.11  5.84
Si -5.13  5.33  5.84
Si  7.24 -1.76 -5.78
Si -1.84 -3.30 -8.64
Si  8.93 -1.23 -2.78
Si -5.43  7.07  3.09
Si  3.70 -0.10 -8.68
Si  1.77  9.05 -2.21
Si -5.14 -5.45 -5.83
Si  5.63  4.92  5.90
Si -3.19  6.39  6.33
Si -6.78 -3.98 -5.40
Si -3.48 -0.10  8.92
Si -9.02  0.84  3.09
Si  1.75  2.92  8.95
Si  5.34 -7.45 -2.78
Si -7.13  2.38  5.95
Si  5.64 -5.04 -5.89
Si -1.54  7.40 -5.89
Si -3.48 -8.40  3.05
Si -2.16  3.23 -8.78
Si -5.75 -7.13 -2.92
Si  4.00 -6.06  6.33
Si  1.86 -9.20 -2.14
Si -2.16  3.24  8.81
Si -8.92 -2.98 -2.14
Si  9.22  2.85  0.03
Si  1.86 -5.05 -8.01
Si  3.70 -0.10  8.92
Si  7.24  2.38  5.95
Si -7.13  6.53  0.08
Si  3.71 -8.40  3.05
Si -1.55 -7.52  5.90
Si -9.00  2.83 -2.21
Si  9.23 -2.96 -0.03
Si  2.05  9.48 -0.03
Si  5.45 -7.13  3.72
Si  1.77  0.76  9.52
Si  6.91  6.48 -2.16
Si -1.84 -3.30  8.95
Si  3.32  4.41 -8.03
Si -0.27 -1.81  9.57
Si  7.24  6.53  0.08
Si -5.41  0.76 -8.07
Si  5.45  1.17 -8.01
Si -7.45 -5.96 -2.16
Si -9.00 -1.31  3.65
Si  2.04 -9.59  0.03
Si -1.74  1.17  9.59
Si  9.04 -0.91  3.72
Si  8.95 -3.39 -2.21
Si -9.34 -0.91 -2.92
Si  9.04  3.24 -2.14
Si  4.00  6.39  6.33
Si -1.74  9.46 -2.14
Si  7.59  0.17  6.33
Si  3.32  8.56  3.71
Si -1.82 -5.46 -8.07
Si -3.86  4.41 -8.03
Si  6.91  3.97 -5.95
Si -5.41 -7.54  3.65
Si -0.27  8.12  5.78
Si  6.92 -4.32  5.78
Si -1.82 -9.61 -2.21
Si  0.40  8.46 -5.40
Si -3.86  8.56  3.71
Si -7.45  6.48 -2.16
Si  7.59 -3.98 -5.40
Si  5.45 -7.04 -4.99
Si -3.39  8.21 -5.04
Si -0.13  3.98  9.45
Si  3.47 -2.24  9.45
Si  0.20 10.29  0.82
Si -7.45  3.97 -5.95
Si  3.79  8.21 -5.04
Si  9.04 -4.97  0.87
Si -0.27 -8.47 -5.95
Si  9.04 -0.82 -4.99
Si -7.45 -4.32  5.78
Si -3.72 -2.24  9.45
Si -5.15  7.00 -5.83
Si -3.54 -7.98 -5.78
Si  3.65 -7.98 -5.78
Si  8.62  5.31 -2.92
Si -8.74  0.78 -5.83
Si -5.13 -7.11  5.84
Si -8.72 -0.89  5.84
Si -10.37 -1.91  0.46
Si -6.78 -8.13  0.46
Si -9.19 -1.27 -5.13
Si -5.43  2.92 -8.64
Si  0.11  6.12 -8.68
Si  5.03  3.23 -8.78
Si  5.03  3.24  8.81
Si -5.60 -7.49 -5.13
Si  5.62  9.07  0.03
Si -9.03  4.99 -2.78
Si  5.34 -3.30 -8.64
Si -9.19 -5.42  0.73
Si  0.11 10.27  3.05
Si -10.72  0.31  0.08
Si 10.50  0.26 -2.16
Si  0.11 -6.33 -8.68
Si  6.91 -1.81 -8.03
Si -0.27 -10.11  3.71
Si -5.41  9.05 -2.21
Si  5.64 -9.19 -0.03
Si -5.14  9.48 -0.03
Si  0.11  6.12  8.92
Si -1.82  6.98 -8.07
Si 10.83  0.31  0.08
Si  8.95  4.91  3.65
Si  0.11 -10.47 -2.81
Si -5.33 -9.20 -2.14
Si -5.33 -5.05 -8.01
Si -5.43  2.92  8.95
Si  8.93 -5.38  3.09
Si -5.14 -9.59  0.03
Si -5.75 -2.99 -8.78
Si  0.11 -6.32  8.92
Si -5.75 -2.98  8.81
Si  5.34 -3.30  8.95
Si -5.41  0.76  9.52
Si  1.86 -5.05  9.59
Si  9.23  1.18 -5.89
Si -3.19 10.53  0.46
Si  5.64  7.40 -5.89
Si  9.22 -1.30  5.90
Si -9.34 -5.06  2.95
Si -8.92  5.32  3.72
Si -3.54  8.61  5.95
Si  3.32  4.41  9.57
Si  1.85  7.39 -8.01
Si  3.52 -6.08  8.54
Si  3.64  8.61  5.95
Si  5.45  1.17  9.59
Si  5.63 -7.52  5.90
Si -7.45 -1.81 -8.03
Si -3.67 -6.08  8.54
Si  7.11  0.14  8.54
Si -1.82 -5.46  9.52
Si  5.44  9.46 -2.14
Si  5.36 -5.46 -8.07
Si  7.59 -8.13  0.46
Si  7.11 -8.15  2.68
Si 10.70 -1.93  2.68
Si -7.26  0.14  8.54
Si  3.51  6.36  8.54
Si -3.86  4.41  9.57
Si  5.36 -9.61 -2.21
Si -7.26 -8.15  2.68
Si -11.04  0.26 -2.16
Si -3.67  6.36  8.54
Si  3.99 10.53  0.46
Si  3.52 -10.23 -3.19
Si  0.41  0.16 -11.27
Si  8.76  4.95 -5.13
Si -3.67 -10.23 -3.19
Si -10.85 -1.93  2.68
Si  7.05  8.13  3.58
Si  1.58  9.10  6.60
Si 11.18 -1.91  0.46
Si -1.73 -11.19  0.87
Si -10.57  4.06  0.82
Si -1.73 -2.90 -10.86
Si 10.70  2.21 -3.19
Si 10.65  1.91  3.58
Si  3.51 10.51  2.68
Si -3.39 -0.09 -10.91
Si -3.67 10.51  2.68
Si -6.99  6.14  6.69
Si  3.52 -6.08 -9.05
Si  8.76 -3.35  6.60
Si  7.10  8.44 -3.19
Si  1.86 -9.12  6.74
Si  7.06  3.98 -8.14
Si -3.67 -6.08 -9.05
Si -7.31  8.13  3.58
Si  1.86  3.33 -10.86
Si  7.11  0.14 -9.05
Si -10.85  2.21 -3.19
Si -6.98 -6.30  6.69
Si -8.91 -2.89  6.74
Si -2.01  2.87 -11.00
Si  3.79 -0.09 -10.91
Si -8.92  5.40 -4.99
Si  8.62 -7.13 -2.92
Si -7.26  8.44 -3.19
Si -9.19  7.02  0.73
Si -7.26  0.14 -9.05
Si  1.58 -3.35 -11.00
Si  3.51  6.36 -9.05
Si  0.20 -10.45 -5.04
Si -10.90  1.91  3.58
Si -8.74  4.92  5.90
Si -7.31  3.98 -8.14
Si -3.67  6.36 -9.05
Si  3.47 -10.53  3.58
Si -8.72 -5.04 -5.89
Si -9.19  2.88  6.60
Si  1.75 11.21 -2.78
Si  0.06 -10.06  5.95
Si  7.38  6.14  6.69
Si 10.97  4.06  0.82
Si -3.71 -10.53  3.58
Si -0.12 -8.46 -8.14
Si  1.44 -11.28  2.95
Si  9.04  3.33  6.74
Si  9.04  7.47  0.87
Si  1.58 -11.64  0.73
Si  7.38 -6.30  6.69
Si -2.01 -9.57  6.60
Si 10.50 -3.89  3.71
Si  8.93  7.07  3.09
Si -10.66  4.04  3.05
Si -1.73  9.55  6.74
Si -10.66 -4.25 -2.81
Si  3.32 -8.04 -8.03
Si -1.82 11.13  3.65
Si  0.05  2.38 -11.65
Si -1.54 -0.89 -11.76
Si -1.55  0.78 11.76
Si -10.37  2.24 -5.40
Si  2.05  1.19 11.70
Si  2.04 -1.30 -11.70
Si  6.91 -1.81  9.57
Si  0.06 -1.76 11.81
Si -1.82  6.98  9.52
Si  5.36  6.98 -8.07
Si -3.18 -10.21 -5.40
Si -3.86 -8.04 -8.03
Si 10.88  4.04  3.05
Si -8.92 -7.13  3.72
Si 10.89 -4.25 -2.81
Si -9.02 -7.45 -2.78
Si -8.92  1.17 -8.01
Si -5.33 -5.05  9.59
Si  8.95  0.76 -8.07
Si -2.16 11.53 -2.92
Si -6.78  8.46 -5.40
Si 10.50  6.05 -0.09
Si  6.91  8.12  5.78
Si -5.33  7.39 -8.01
Si 10.50  1.90  5.78
Si -1.84 -11.60  3.09
Si  0.05 10.68 -5.78
Si  9.23  5.33  5.84
Si  9.22 -5.45 -5.83
Si  5.36 -5.46  9.52
Si  4.00 -10.21 -5.40
Si  1.85  7.39  9.59
Si  8.96 -7.54  3.65
Si  3.32 10.19 -5.95
Si  1.85 11.54  3.72
Si -7.45 -1.81  9.57
Si -9.34  7.38  2.95
Si -0.27 12.27 -0.09
Si -11.04 -3.89  3.71
Si 10.51 -2.25 -5.95
Si 10.51 -6.40 -0.09
Si -0.27  3.97 11.64
Si  3.32 -2.25 11.64
Si -8.91 -7.04 -4.99
Si -3.86 10.19 -5.95
Si  3.32  1.90 -11.82
Si -7.45  8.12  5.78
Si  7.06  3.98  9.45
Si  6.92 -8.47 -5.95
Si -10.57 -4.23 -5.04
Si -2.01 11.17 -5.13
Si 10.65  6.05 -2.28
Si -6.99 10.29  0.82
Si -3.86 -2.25 11.64
Si  3.33 -10.54  5.78
Si  5.45 -11.19  0.87
Si -0.13 12.28 -2.28
Si  5.45 -2.90 -10.86
Si  5.17  2.87 -11.00
Si -10.57 -0.08  6.69
Si  0.20  6.14 -10.91
Si -5.32 -9.12  6.74
Si -5.32  3.33 -10.86
Si -5.60  9.10  6.60
Si -3.86  1.90 -11.82
Si  7.58  8.46 -5.40
Si -0.27 -4.32 -11.82
Si 12.21 -0.91 -2.92
Si -11.04  6.05 -0.09
Si -7.31  3.98  9.45
Si -8.74  9.07  0.03
