500
set: 879.00  0.00  0.00
Si -0.41  1.21 -0.80
Si  0.43 -1.20  0.84
Si -1.37 -1.18 -0.82
Si  1.38  1.19  0.81
Si  0.86  0.01 -2.49
Si -0.93 -0.01  2.49
Si -2.21  1.23  0.83
Si  2.23 -1.20 -0.82
Si -3.12 -1.20  0.85
Si  3.13  1.20 -0.85
Si  0.01  2.44  2.46
Si -0.01 -2.39 -2.52
Si -2.69  0.00 -2.49
Si  2.70 -0.00  2.50
Si -0.51 -3.58  0.86
Si  0.51  3.63 -0.83
Si  1.72 -2.40  2.48
Si -1.78  2.40 -2.48
Si  1.26 -3.60 -0.82
Si -1.29  3.60  0.80
Si -1.85 -2.43  2.50
Si  1.83  2.43 -2.53
Si -0.86  0.01 -4.14
Si  0.91  0.01  4.16
Si  4.02 -1.18  0.85
Si -4.02  1.21 -0.86
Si -2.29 -3.59 -0.83
Si  2.29  3.63  0.86
Si  0.04  2.35 -4.15
Si -0.03 -2.42  4.14
Si  3.08 -3.59  0.87
Si -3.10  3.59 -0.82
Si  2.66  0.01 -4.15
Si  3.53 -2.41 -2.51
Si -2.70  0.03  4.16
Si  3.59  2.40  2.45
Si -3.56  2.40  2.53
Si -3.60 -2.46 -2.52
Si -1.74  2.38  4.16
Si  1.76 -2.39 -4.17
Si -4.91 -1.21 -0.83
Si  4.94  1.13  0.80
Si -4.48  0.02  2.51
Si  4.49  0.01 -2.50
Si -1.81 -2.42 -4.15
Si  1.81  2.38  4.19
Si -0.80  4.76 -2.52
Si  0.79 -4.81  2.45
Si  0.94  4.79  2.50
Si  4.05  3.62 -0.82
Si -0.96 -4.79 -2.53
Si -4.09 -3.61  0.80
Si -3.51  2.42 -4.12
Si -5.78  1.13  0.80
Si  0.42 -1.23 -5.80
Si  3.54 -2.40  4.15
Si -3.57 -2.38  4.14
Si -0.42  1.19  5.84
Si -2.57  4.78  2.51
Si  5.80 -1.21 -0.83
Si  2.56 -4.82 -2.51
Si  3.63  2.39 -4.15
Si -2.79 -4.78  2.46
Si  0.33 -6.01 -0.85
Si -0.33  6.02  0.85
Si  4.82 -3.62 -0.82
Si -4.84  3.63  0.87
Si  2.78  4.83 -2.52
Si -4.46 -0.02 -4.19
Si -1.36 -1.25  5.84
Si  1.37  1.19 -5.85
Si  4.50 -0.02  4.17
Si -1.41 -6.03  0.81
Si  1.43  6.04 -0.82
Si -2.18  1.23 -5.85
Si  2.23 -1.22  5.84
Si  5.35  2.40 -2.51
Si  5.35 -2.43  2.51
Si -5.36  2.40 -2.51
Si -5.37 -2.43  2.51
Si -0.78  4.84  4.14
Si  0.84 -4.82 -4.15
Si  0.98  4.80 -4.15
Si -2.12  6.01 -0.83
Si -0.98 -4.83  4.19
Si  2.14 -6.08  0.80
Si -6.23  0.01 -2.50
Si  6.24  0.02  2.51
Si -3.14 -1.23 -5.83
Si  3.15  1.21  5.82
Si -6.69 -1.18  0.85
Si -3.20 -6.00 -0.80
Si  6.69  1.21 -0.86
Si  2.56 -4.79  4.20
Si -2.58  4.80 -4.17
Si -0.48 -3.59 -5.83
Si  3.23  6.02  0.84
Si  0.54  3.62  5.85
Si  2.77  4.80  4.14
Si  5.87  3.63  0.87
Si -2.76 -4.86 -4.15
Si -5.89 -3.62 -0.82
Si  1.26 -3.60  5.84
Si  4.36 -4.82  2.53
Si -4.39  4.81 -2.51
Si -1.30  3.63 -5.83
Si  4.52  4.82  2.48
Si -4.58 -4.82 -2.48
Si  3.96 -1.18 -5.79
Si -3.98  1.20  5.82
Si  5.34 -2.41 -4.17
Si  3.90 -6.01 -0.86
Si -5.38 -2.41 -4.17
Si  5.35  2.42  4.20
Si -2.26 -3.60  5.85
Si -5.36  2.42  4.20
Si -3.90  6.04  0.85
Si  2.31  3.62 -5.83
Si -3.06  3.59  5.80
Si -6.22 -0.02  4.17
Si  6.25 -0.02 -4.19
Si  3.10 -3.63 -5.82
Si  0.44 -1.18  7.46
Si  6.62 -3.61  0.80
Si -0.45  1.18 -7.49
Si -6.66  3.62 -0.82
Si  0.11  7.22 -2.49
Si -0.09 -7.22  2.50
Si  1.39  1.22  7.47
Si  4.41 -4.80 -4.12
Si -4.38  4.81  4.15
Si -7.59  1.20 -0.85
Si  7.59 -1.20  0.85
Si -4.91 -1.19  5.87
Si  4.94  1.20 -5.84
Si -1.39 -1.17 -7.53
Si  1.69 -7.21 -2.50
Si -4.53 -4.83  4.16
Si  4.55  4.82 -4.17
Si  1.86  7.20  2.49
Si -1.69  7.24  2.51
Si -5.01 -5.98  0.83
Si -1.93 -7.21 -2.49
Si -2.20  1.15  7.47
Si  5.03  6.02 -0.82
Si -7.12  2.40  2.45
Si  7.12 -2.46 -2.52
Si  2.19 -1.21 -7.54
Si  7.16  2.40  2.53
Si -4.10 -3.58 -5.83
Si  4.05  3.62  5.84
Si -7.18 -2.41 -2.51
Si  6.14 -4.82 -2.48
Si  3.12  1.21 -7.51
Si -6.20  4.82  2.48
Si -3.18 -1.21  7.51
Si -5.77  1.20 -5.84
Si  5.71 -5.98  0.83
Si -0.14 -7.20 -4.15
Si -5.68  6.02 -0.82
Si  6.33  4.81 -2.51
Si  0.46  3.59 -7.50
Si -0.53 -3.60  7.50
Si  5.81 -1.19  5.87
Si  0.09  7.24  4.16
Si  3.44 -7.19  2.51
Si -6.35 -4.82  2.53
Si -0.34  5.99 -5.83
Si -4.82  3.58 -5.82
Si  0.36 -6.00  5.82
Si -3.43  7.22 -2.50
Si  4.86 -3.62  5.80
Si -8.01 -0.00  2.50
Si  8.03  0.00 -2.49
Si  1.30 -3.61 -7.49
Si -1.29  3.61  7.50
Si  7.62  3.59 -0.82
Si  1.43  5.96  5.84
Si  3.66  7.22 -2.49
Si -0.56 -8.41 -0.82
Si -7.64 -3.59  0.87
Si -1.67  7.20 -4.19
Si -3.73 -7.23  2.49
Si  0.58  8.45  0.83
Si -1.42 -6.02 -5.85
Si  1.23 -8.39  0.85
Si  1.70 -7.24  4.17
Si -1.88 -7.20  4.16
Si -7.08  2.39 -4.15
Si  3.95 -1.21  7.48
Si -3.97  1.18 -7.48
Si  1.93  7.22 -4.14
Si -1.23  8.42 -0.86
Si  7.14 -2.38  4.14
Si -8.48 -1.20 -0.82
Si -7.17 -2.40  4.15
Si  2.26  3.61  7.50
Si  8.50  1.23  0.83
Si  7.20  2.42 -4.12
Si  2.15 -6.01 -5.84
Si -2.33 -3.62 -7.50
Si -2.11  6.03  5.87
Si -2.36 -8.41  0.84
Si  2.38  8.42 -0.80
Si -6.16  4.82 -4.17
Si  3.09 -3.60  7.49
Si -3.08  3.63 -7.48
Si  6.18 -4.83  4.16
Si -2.98  8.35  0.80
Si -6.30 -4.80 -4.12
Si  3.21  5.99 -5.80
Si  6.34  4.81  4.15
Si -6.76 -1.18 -5.79
Si  6.73  1.20  5.82
Si -3.21 -6.02  5.84
Si  3.01 -8.42 -0.83
Si -3.42  7.19  4.17
Si -5.86 -3.62  5.80
Si  5.89  3.58 -5.82
Si  8.01  0.03  4.16
Si -4.95 -1.21 -7.46
Si  4.93  1.20  7.48
Si  3.46 -7.23 -4.19
Si -8.06  0.01 -4.15
Si -3.65 -7.20 -4.14
Si -6.81 -6.01 -0.86
Si  3.71  7.23  4.16
Si  6.82  6.04  0.85
Si  0.89  0.02 -9.13
Si  8.43 -3.59 -0.83
Si -0.89  0.02  9.16
Si -8.43  3.63  0.86
Si -5.22  7.21  2.50
Si  3.94 -6.02  5.82
Si  5.23 -7.21 -2.49
Si -3.96  6.03 -5.79
Si -4.08 -3.60  7.50
Si  4.10  3.60 -7.49
Si -5.48 -7.21 -2.49
Si -4.16 -8.39 -0.82
Si  5.50  7.21  2.50
Si  4.17  8.40  0.81
Si -9.33  1.19  0.81
Si  9.35 -1.18 -0.82
Si  0.03  2.43  9.17
Si -0.02 -2.42 -9.18
Si  5.76 -1.21 -7.46
Si  6.62 -3.58 -5.83
Si  8.87 -2.43  2.50
Si -5.78  1.20  7.48
Si -8.88  2.43 -2.53
Si  2.66  0.01  9.17
Si -6.66  3.62  5.84
Si  8.93  2.40 -2.48
Si -2.69 -0.01 -9.19
Si  7.93 -4.78  2.46
Si  4.84 -3.58 -7.48
Si  1.73 -2.40  9.14
Si -1.72  2.41 -9.14
Si -7.93  4.83 -2.52
Si -7.56  1.21  5.82
Si  0.33 -6.00 -7.51
Si -4.83  3.62  7.49
Si -0.39  6.00  7.51
Si -8.99 -2.40  2.48
Si  1.83  2.41 -9.15
Si  7.58 -1.23 -5.83
Si -7.49  6.02  0.84
Si  7.51 -6.00 -0.80
Si -1.81 -2.40  9.19
Si -1.41 -6.00  7.47
Si  4.80 -8.41  0.85
Si -4.79  8.42 -0.85
Si -4.97 -5.98 -5.85
Si  1.41  6.04 -7.53
Si  5.03  6.00  5.84
Si  8.14  4.78  2.51
Si -8.16 -4.82 -2.51
Si  5.22 -7.19  4.16
Si -2.16  6.00 -7.46
Si  2.13 -6.01  7.48
Si -5.26  7.23 -4.15
Si -5.49 -7.19  4.16
Si  5.45  7.23 -4.15
Si -0.76  9.61  2.53
Si  0.74 -9.62 -2.51
Si  1.01  9.61 -2.48
Si -1.07 -9.61  2.48
Si  9.78 -0.01  2.49
Si -3.51  2.40  9.16
Si  8.90 -2.42 -4.15
Si  9.42  3.60  0.80
Si -8.90  2.38  4.19
Si -5.68  6.00  5.84
Si  3.23  6.03  7.46
Si -3.61 -2.38 -9.16
Si  6.74  1.18 -7.48
Si -9.45 -3.60 -0.82
Si  5.74 -5.98 -5.85
Si -3.25 -6.04 -7.49
Si  3.63  2.41  9.17
Si  3.54 -2.47 -9.19
Si -6.76 -1.21  7.48
Si  4.47  0.02 -9.12
Si -9.85  0.01 -2.49
Si -7.95  4.80  4.14
Si -8.96 -2.39 -4.17
Si -5.88 -3.58 -7.48
Si  8.97  2.38  4.16
Si  5.88  3.62  7.49
Si  7.96 -4.86 -4.15
Si -4.50 -0.02  9.17
Si  7.65  3.59  5.80
Si -7.61 -3.63 -5.82
Si -2.57  9.61 -2.51
Si  1.16 -8.40 -5.79
Si -0.56 -8.43  5.84
Si  2.55 -9.65  2.51
Si  0.62  8.44 -5.85
Si -1.19  8.41  5.82
Si -2.80 -9.60 -2.52
Si -5.91 -8.41  0.85
Si  8.13  4.80 -4.17
Si  5.92  8.42 -0.85
Si -8.15 -4.79  4.20
Si  2.80  9.65  2.46
Si  6.99 -7.23  2.49
Si -8.48 -1.22  5.84
Si -0.96 -4.80 -9.15
Si -3.97  6.01  7.48
Si -10.28 -1.20  0.84
Si  0.84 -4.80  9.17
Si  3.95 -6.04 -7.48
Si -0.82  4.84 -9.16
Si -7.06  7.22 -2.49
Si 10.30  1.21 -0.80
Si  8.54  1.23 -5.85
Si  0.99  4.82  9.19
Si  0.75 -9.62  4.15
Si -0.71  9.63 -4.12
Si  2.38  8.41  5.84
Si  1.05  9.60  4.16
Si -2.38 -8.44 -5.80
Si  8.60  6.01 -0.83
Si -1.04 -9.61 -4.17
Si -7.27 -7.19  2.51
Si -8.57 -6.08  0.80
Si  7.28  7.22 -2.50
Si -6.62  3.60 -7.49
Si  6.63 -3.60  7.50
Si  2.62 -4.78 -9.14
Si -9.80  0.01  4.16
Si -2.62  4.82  9.13
Si -2.98  8.42 -5.84
Si -6.54  8.40  0.81
Si  6.55 -8.39 -0.82
Si  3.01 -8.40  5.87
Si  9.85  0.01 -4.14
Si  7.53 -1.21  7.51
Si -2.76 -4.79  9.17
Si  2.78  4.79 -9.18
Si  6.75  6.03 -5.79
Si -7.59  1.21 -7.51
Si -6.77 -6.02  5.82
Si  2.54 -9.62 -4.17
Si  2.83  9.57 -4.15
Si -2.57  9.64  4.20
Si  5.30 -2.40  9.13
Si -4.33  9.62  2.45
Si -4.99 -6.06  7.47
Si -5.29  2.43 -9.14
Si -0.30 10.80 -0.82
Si  0.28 -10.80  0.87
Si 10.21 -3.58  0.86
Si -8.40  3.62 -5.83
Si  4.98  6.01 -7.54
Si -2.82 -9.63  4.14
Si -0.89  0.02 -10.82
Si -10.21  3.63 -0.83
Si  0.89  0.02 10.85
Si -5.42 -2.40  9.13
Si  4.32 -9.67 -2.52
Si  8.46 -3.60  5.85
Si -7.01  7.23  4.16
Si  5.42  2.43 -9.14
Si  7.06 -7.20 -4.14
Si  1.50 10.81  0.80
Si -1.53 -10.81 -0.82
Si  4.63  9.64 -2.53
Si -4.64 -9.64  2.50
Si -6.24  0.02 -9.12
Si  4.16  8.40 -5.85
Si  2.03 -10.84 -0.82
Si  7.29  7.19  4.17
Si -0.02 -2.42 10.80
Si -2.05 10.84  0.87
Si -7.25 -7.23 -4.19
Si  6.22 -0.02  9.17
Si  0.03  2.43 -10.81
Si -9.34  1.19 -5.85
Si -4.15 -8.47  5.84
Si  9.35 -1.25  5.84
Si -9.29  6.04 -0.82
Si  9.30 -6.03  0.81
Si -2.69 -0.01 10.79
Si  2.66  0.01 -10.81
Si  9.75 -4.79 -2.53
Si -9.77  4.79  2.50
Si  5.72 -6.06  7.47
Si -1.81 -2.40 -10.79
Si -7.50  5.99 -5.80
Si -5.73  6.01 -7.54
Si -11.12  1.21 -0.80
Si -4.38  4.74 -9.19
Si  0.59  8.37  7.47
Si -1.72  2.41 10.84
Si  1.73 -2.40 -10.84
Si 11.15 -1.20  0.84
Si  4.41 -4.82  9.16
Si  1.83  2.41 10.83
Si -10.71  2.44  2.46
Si  7.50 -6.02  5.84
Si 10.70 -2.39 -2.52
Si 10.72  2.44  2.46
Si -10.72 -2.39 -2.52
Si  4.52  4.81  9.14
Si -4.52 -4.80 -9.14
Si -7.62 -3.60  7.49
Si  9.91  4.76 -2.52
Si  7.63  3.63 -7.48
Si -9.92 -4.81  2.45
Si -4.77  8.43  5.82
Si -1.18  8.39 -7.48
Si -4.29  9.60 -4.15
Si  4.34 -9.59  4.14
Si  4.78 -8.44 -5.83
Si -0.60 -8.42 -7.54
Si -3.30 -10.80  0.86
Si  1.16 -8.42  7.48
Si  3.30 10.84 -0.83
Si  8.51  1.15  7.47
Si  7.73  8.35  0.80
Si  4.61  9.59  4.19
Si -8.52 -1.21 -7.54
Si -7.70 -8.42 -0.83
Si -4.61 -9.63 -4.15
Si -2.36 -8.39  7.46
Si  2.34  8.39 -7.49
Si  3.83 -10.83  0.80
Si -3.86 10.83 -0.82
Si -9.73  4.80 -4.15
Si  3.54 -2.47 10.79
Si -3.51  2.40 -10.82
Si  8.78 -7.21 -2.49
Si  2.97 -8.43 -7.46
Si -3.61 -2.38 10.82
Si  9.73 -4.83  4.19
Si -2.99  8.41  7.48
Si  9.41  3.63 -5.83
Si  3.63  2.41 -10.81
Si -0.14 -7.20  9.17
Si  6.07 -9.64  2.50
Si -9.45 -3.60  5.84
Si -8.85  7.20  2.49
Si -6.09  9.64 -2.53
Si  0.10  7.21 -9.19
Si -10.68  2.35 -4.15
Si -4.50 -0.02 -10.81
Si 10.69 -2.42  4.14
Si  6.75  6.01  7.48
Si  1.68 -7.20 -9.12
Si  4.47  0.02 10.86
Si -9.87 -4.82 -4.15
Si -6.76 -6.04 -7.48
Si 10.75  2.35 -4.15
Si -10.74 -2.42  4.14
Si -1.90 -7.19 -9.13
Si -1.70  7.20  9.17
Si  6.38  9.62  2.45
Si  9.93  4.84  4.14
Si -11.22 -3.58  0.86
Si -9.02 -7.21 -2.50
Si  8.38 -3.62 -7.50
Si 11.22  3.63 -0.83
Si  1.90  7.24  9.16
Si -7.08  2.41  9.17
Si  7.10 -2.38 -9.16
Si  9.03  7.24  2.51
Si 11.58  0.01 -2.49
Si  5.95  8.43  5.82
Si -5.93 -8.44 -5.83
Si  0.99  4.82 -10.79
Si  0.84 -4.80 -10.81
Si -6.39 -9.67 -2.52
Si -8.45  3.61  7.50
Si -8.33  8.42 -0.80
Si -0.82  4.84 10.82
Si -10.29 -1.23 -5.80
Si  8.35 -8.41  0.84
Si -0.96 -4.80 10.83
