500
set: 182.00  0.00  0.00
Si  0.04  0.04  0.07
Si  0.03  0.02 -2.30
Si -1.94  1.09  0.78
Si  1.98  1.07  0.78
Si -0.01 -2.23  0.81
Si -1.87 -1.11 -3.09
Si -1.93  3.27  0.02
Si -3.83  0.02 -0.03
Si  1.90  3.34 -0.00
Si  1.90 -1.10 -3.15
Si  0.05  2.21 -3.14
Si -1.90 -3.34 -0.02
Si -1.91  1.09  3.15
Si  1.89  1.09  3.17
Si  3.85  0.01 -0.00
Si  1.90 -3.37  0.03
Si -0.00 -2.22  3.18
Si  3.76 -2.19  0.78
Si -1.92 -1.10  3.86
Si -1.90  3.30 -2.33
Si -1.89 -3.32 -2.32
Si -0.02  2.23  3.88
Si -3.82 -2.21  0.77
Si  1.97  3.30 -2.31
Si  3.83  0.00 -2.35
Si  1.91 -3.30 -2.37
Si -0.02  4.42  0.79
Si -3.84 -0.07 -2.38
Si  1.93 -1.10  3.98
Si  3.79 -2.18  3.10
Si -3.82 -2.18  3.10
Si -0.01  4.42  3.08
Si -0.00 -4.41 -3.11
Si -3.84  2.20 -3.16
Si  3.85  2.19 -3.18
Si  3.78  4.41  0.81
Si  1.87 -1.13 -5.45
Si -5.72  1.14  0.75
Si -3.85  4.38  0.78
Si -0.01 -4.42  3.88
Si -1.90 -1.05 -5.47
Si -0.01  2.20 -5.48
Si -1.95 -5.52  0.81
Si  3.83  2.26  3.89
Si  5.75  1.14  0.75
Si -3.86  2.18  3.92
Si  1.89 -5.55  0.78
Si -3.79 -4.39 -3.06
Si -1.88 -5.47  3.13
Si  5.69 -3.31 -0.00
Si -0.00  2.17  6.22
Si -5.70  1.15  3.10
Si -0.04 -6.60 -0.01
Si  5.70  3.33 -0.01
Si -1.93 -1.10  6.21
Si -1.88  1.14 -6.23
Si  3.80 -4.41 -3.15
Si -0.04  6.61 -0.00
Si  1.89 -5.53  3.11
Si  1.89  1.09 -6.25
Si  0.03 -2.16 -6.26
Si  1.95  5.54 -3.06
Si -3.85  4.40  3.11
Si  5.73 -1.14 -3.14
Si -5.74 -1.14 -3.14
Si  5.76  1.15  3.10
Si -1.93  5.52 -3.15
Si -5.77 -3.31 -0.00
Si -5.77  3.33 -0.01
Si  3.86  4.45  3.13
Si  1.95 -1.08  6.30
Si  3.79 -4.42  3.85
Si  0.05  6.58 -2.36
Si -1.94  5.50  3.85
Si  0.05 -0.04  7.00
Si -0.01 -4.39 -5.45
Si -3.84 -4.36  3.92
Si -5.68 -3.35 -2.36
Si  5.72  3.30 -2.35
Si  5.72 -1.08  3.91
Si -5.75  3.30 -2.35
Si -0.01 -6.63 -2.35
Si -5.75 -1.08  3.91
Si -3.84  2.26 -5.44
Si  3.79  2.19 -5.51
Si  1.89  5.57  3.92
Si  5.78 -3.35 -2.36
Si -0.00  4.40 -6.18
Si -3.83  6.56  0.03
Si -7.61  0.01 -0.00
Si -3.84 -2.21 -6.19
Si  3.82 -2.22 -6.21
Si  3.83  6.58 -0.02
Si  0.05 -4.41  6.22
Si -3.83  2.21  6.21
Si -3.84 -6.59 -0.00
Si  7.64  0.02 -0.03
Si  3.81 -6.66  0.02
Si  3.87  2.19  6.27
Si  1.89  3.24  6.98
Si -3.81 -4.41 -5.38
Si  1.93  5.52 -5.38
Si -3.76 -6.63 -2.31
Si -3.82  0.01  6.99
Si  5.71 -5.51  0.79
Si -1.91  3.31  7.01
Si  3.85  6.61 -2.32
Si  5.71 -1.08 -5.48
Si -7.64  0.00 -2.35
Si  7.63 -0.07 -2.38
Si  1.91  7.72  0.77
Si  7.65 -2.21  0.77
Si -1.90 -3.32  7.03
Si -5.75 -5.51  0.79
Si -3.82  6.63 -2.37
Si  3.84 -6.63 -2.33
Si  3.82 -4.41 -5.50
Si -5.75 -1.08 -5.48
Si -1.92  5.52 -5.50
Si  3.85 -0.01  7.04
Si -1.97  7.74  0.78
Si  1.97 -3.32  7.05
Si -7.70 -2.19  0.78
Si -1.89  5.50  6.18
Si  1.89  5.51  6.20
Si  3.85 -4.43  6.18
Si  5.72 -5.51  3.08
Si -3.84 -4.42  6.20
Si  7.65 -2.18  3.10
Si -5.74 -5.51  3.08
Si  7.62  2.20 -3.16
Si -7.62  2.19 -3.18
Si  5.73  5.52 -3.11
Si -5.73  5.52 -3.11
Si  5.73 -1.10  6.25
Si -1.94 -5.49 -6.26
Si  1.92 -5.49 -6.26
Si -5.73 -1.10  6.25
Si -7.67 -2.18  3.10
Si  1.92  7.74  3.10
Si  1.89 -7.73 -3.16
Si  3.79  4.44 -6.26
Si  5.72  1.11 -6.28
Si -1.94  7.75  3.10
Si -3.82  4.43 -6.26
Si -1.89 -7.74 -3.18
Si -5.74  1.11 -6.28
Si -1.90 -7.67  3.89
Si  0.02 -8.79  0.75
Si  7.62  4.38  0.78
Si  7.61  2.18  3.92
Si -1.95  1.10 -8.55
Si  5.72  5.51  3.88
Si -5.74  5.51  3.88
Si  1.89  1.07 -8.58
Si -7.63  2.26  3.89
Si  0.02 -2.17 -8.61
Si  1.87 -7.75  3.92
Si -7.68  4.41  0.81
Si  0.03 -8.78  3.10
Si  7.62  4.40  3.11
Si -0.00  8.79 -3.14
Si -7.61  4.45  3.13
Si  7.68 -4.39 -3.06
Si -0.04 -0.01  9.36
Si -0.04  0.02 -9.37
Si -7.67 -4.41 -3.15
Si -9.49  1.07  0.78
Si  1.89 -7.67 -5.44
Si -0.01  4.38 -8.55
Si  7.62 -4.36  3.92
Si  9.52  1.09  0.78
Si  5.73  7.69  0.81
Si -3.76 -2.24 -8.58
Si -5.74  7.69  0.81
Si -0.01  6.61  7.01
Si  5.72 -3.32  7.01
Si  7.62  2.26 -5.44
Si  3.79 -2.22 -8.58
Si  3.79 -8.84  0.78
Si  5.72  5.54 -5.45
Si -5.75 -3.32  7.01
Si -3.76 -8.86  0.78
Si -7.67 -4.42  3.85
Si  0.03 -6.60  7.06
Si -5.75  5.54 -5.45
Si -5.70  3.33  7.06
Si -0.01  8.85  3.91
Si -1.94 -7.73 -5.51
Si -7.67  2.19 -5.51
Si  5.76  3.33  7.06
Si  7.63  6.56  0.03
Si  1.90  3.25 -9.34
Si  7.63 -2.21 -6.19
Si  1.89  7.71 -6.19
Si -5.68  5.52  6.22
Si -1.91  7.71 -6.21
Si  7.63 -6.59 -0.00
Si -7.63  6.58 -0.02
Si  7.63  2.21  6.21
Si  9.54  3.27  0.02
Si -5.68 -7.71 -3.14
Si  5.73 -5.53 -6.18
Si -5.73 -5.53 -6.18
Si  1.90 -7.72  6.21
Si  3.81 -0.04 -9.34
Si  1.90  3.33  9.34
Si -7.64 -2.22 -6.21
Si  1.90 -9.91 -0.03
Si -7.60  2.19  6.27
Si -1.88 -9.92 -0.00
Si  1.90 -3.28  9.36
Si  3.83 -0.03  9.34
Si -1.88 -3.30 -9.36
Si -1.88  3.32  9.36
Si  3.87  8.81 -3.09
Si -1.90  3.27 -9.38
Si -1.88  9.94 -0.00
Si  5.73  7.71  3.18
Si -5.73  7.71  3.18
Si -3.84  0.03 -9.36
Si  9.55  1.09  3.15
Si -3.83  8.82 -3.15
Si  1.90  9.95 -0.03
Si  1.90 -3.29 -9.39
Si  5.78  5.52  6.22
Si -1.87 -7.73  6.27
Si -9.56 -1.10 -3.15
Si  9.56 -3.34 -0.02
Si  3.82 -8.84  3.15
Si -9.57  3.34 -0.00
Si  5.78 -7.71 -3.14
Si -3.83 -0.06  9.39
Si -3.84 -8.83  3.17
Si -9.56 -3.37  0.03
Si -9.57  1.09  3.17
Si -1.93 -3.35  9.38
Si  9.60 -1.11 -3.09
Si -7.66 -6.66  0.02
Si -9.49  3.30 -2.31
Si  1.89  9.86 -2.38
Si  7.66 -4.41 -5.38
Si -7.62  6.61 -2.32
Si  5.71 -7.70  3.88
Si  5.71  1.11 -8.57
Si  7.64  0.01  6.99
Si  9.55 -1.10  3.86
Si  3.76  4.43 -8.58
Si -5.75 -7.70  3.88
Si  3.82  8.83  3.86
Si -3.76  6.61  7.05
Si  1.91  1.10 10.13
Si  3.83 -6.62  7.01
Si -7.63 -6.63 -2.33
Si -7.62 -0.01  7.04
Si -1.91 -9.93 -2.35
Si -1.97 -5.50 -8.58
Si -5.75  1.11 -8.57
Si -9.55 -3.30 -2.37
Si  3.84  6.61  7.03
Si -1.91  9.93 -2.35
Si -3.82  4.41 -8.59
Si  1.91 -5.52 -8.59
Si  9.57  3.30 -2.33
Si -0.02 -2.20 10.15
Si  7.64  6.63 -2.37
Si -1.97  1.12 10.14
Si -9.54 -1.10  3.98
Si -3.84 -6.69  6.98
Si -7.65 -4.41 -5.50
Si  9.58 -3.32 -2.32
Si -0.02  8.85 -5.48
Si -3.81  8.83  3.98
Si  7.71 -6.63 -2.31
Si  1.89 -10.00 -2.38
Si -7.62 -4.43  6.18
Si  7.62 -4.42  6.20
Si -0.00  8.83  6.25
Si -0.01 -8.82 -6.28
Si  7.65  4.43 -6.26
Si -7.67  4.44 -6.26
Si  9.51 -5.52  0.81
Si -3.86  8.80 -5.45
Si  0.02  4.45 10.11
Si  9.56 -1.05 -5.47
Si  5.72 -7.73 -5.48
Si  3.78 -2.21 10.17
Si -3.85 -2.24 10.14
Si -5.74 -7.73 -5.48
Si -9.59 -1.13 -5.45
Si  0.02 11.07  0.75
Si -9.58 -5.55  0.78
Si  3.83  8.87 -5.47
Si -5.69 -3.27 -9.30
Si -5.69 -9.89  0.07
Si  5.77 -3.27 -9.30
Si -11.43  0.04  0.07
Si -9.52  5.54 -3.06
Si  9.53 -1.10  6.21
Si  5.70 -3.29  9.35
Si  0.04  6.66 -9.30
Si  3.86 -8.79 -6.23
Si  5.69  3.30 -9.36
Si  5.77 -9.89  0.07
Si  3.80  8.83  6.21
Si  9.53  5.52 -3.15
Si -9.52 -1.08  6.30
Si -5.77 -3.29  9.35
Si -0.04 -6.62 -9.36
Si -0.04  6.64  9.35
Si  5.73 -7.75  6.22
Si -5.74 -7.75  6.22
Si  9.59 -5.47  3.13
Si -5.69  9.97  0.07
Si -3.85 -8.83 -6.25
Si -5.77  3.30 -9.36
Si -9.58 -5.53  3.11
Si -9.58  1.09 -6.25
Si -5.70  7.77 -6.26
Si  0.04 -6.58  9.43
Si  9.59  1.14 -6.23
Si -0.00 -11.06 -3.14
Si 11.50  0.04  0.07
Si -3.79  8.85  6.30
Si  0.03 11.08  3.10
Si -5.69  3.35  9.43
Si  5.76  7.77 -6.26
Si  5.77  9.97  0.07
Si  5.77  3.35  9.43
Si -3.76 11.00  0.78
Si  9.52  5.50  3.85
Si -5.70 -9.91 -2.30
Si -11.43  0.02 -2.30
Si -3.76  4.38 10.14
Si  3.79 11.02  0.78
Si -0.01 -11.01  3.91
Si  1.98  7.69 -8.58
Si  5.73 -5.54 -8.55
Si  3.79  4.40 10.14
Si  5.76 -9.91 -2.30
Si -5.74 -5.54 -8.55
Si -5.70  9.95 -2.30
Si -1.94  7.71 -8.58
Si 11.46 -2.23  0.81
Si -1.94 -5.53 10.14
Si -0.01 -0.01 -11.71
Si -11.47 -2.23  0.81
Si -7.67 -2.22 -8.58
Si  5.73  1.07 10.17
Si 11.50  0.02 -2.30
Si -7.67 -8.84  0.78
Si  5.76  9.95 -2.30
Si  1.98 -5.55 10.14
Si -5.74  1.07 10.17
Si -9.57  5.57  3.92
Si  7.71 -2.24 -8.58
Si  7.71 -8.86  0.78
Si -7.60  8.81 -3.09
Si -11.42  2.21 -3.14
Si -3.83 -6.60  9.34
Si -7.63 -0.03  9.34
Si  3.81  6.58  9.38
Si  7.63  0.03 -9.36
Si  3.82 11.02  3.15
Si -7.66 -0.04 -9.34
Si  7.63  8.82 -3.15
Si  3.85 -6.61  9.36
Si  7.63 -8.83  3.17
Si -3.84 11.02  3.17
Si -3.83 -11.03 -3.15
Si  7.63 -0.06  9.39
Si -3.83 -6.67 -9.34
Si 11.46 -2.22  3.18
Si  3.85  6.63 -9.36
Si  3.87 -11.04 -3.09
Si -11.46 -2.22  3.18
Si -3.84  6.65  9.36
Si -7.64 -8.84  3.15
Si -3.83  6.64 -9.39
Si  3.83 -6.65 -9.38
Si 11.51  2.21 -3.14
Si -3.76 -0.01 -11.67
Si -9.54  5.52 -5.38
Si  9.50  7.74  0.78
Si -9.57  3.24  6.98
Si -9.49 -3.32  7.05
Si -1.89  3.30 -11.68
Si  1.91 -9.92  6.99
Si 11.45  2.23  3.88
Si  3.82 -11.03  3.86
Si 11.44  4.42  0.79
Si -0.02 -8.82 -8.57
Si -7.63  6.61  7.03
Si -1.97 -12.11  0.78
Si -0.02 -11.01 -5.48
Si -7.64 -6.62  7.01
Si  1.91  9.94  6.99
Si -7.65  8.83  3.86
Si  3.84 -0.01 -11.69
Si -9.55  7.72  0.77
Si -1.89  9.91  7.04
Si  9.56  3.31  7.01
Si  7.63 -6.69  6.98
Si  1.91 -12.14  0.77
Si  7.65  4.41 -8.59
Si -1.91 -3.31 -11.71
Si -3.81 -11.02  3.98
Si -11.48  2.23  3.88
Si  9.55  5.52 -5.50
Si -1.89 -9.94  7.04
Si  9.57 -3.32  7.03
Si -11.48  4.42  0.79
Si  1.91  3.32 -11.73
Si  7.66  8.83  3.98
Si -7.70  4.43 -8.58
Si  7.71  6.61  7.05
Si  1.89 -3.38 -11.75
Si -0.01 -2.20 12.45
Si  1.92 -12.11  3.10
Si -1.94 -12.11  3.10
Si  9.53 -5.49 -6.26
Si  1.92  1.12 12.46
Si 11.45  4.42  3.08
Si  9.58  5.50  6.18
Si -1.94  1.13 12.46
Si  9.53  7.75  3.10
Si -9.57  5.51  6.20
Si -1.89 12.12 -3.18
Si -0.00  2.21 -12.47
Si 11.46 -4.41 -3.11
Si -11.47 -4.41 -3.11
Si -9.55 -5.49 -6.26
Si -0.00 -11.03  6.25
Si  1.89 12.13 -3.16
Si -9.55  7.74  3.10
Si -11.48  4.42  3.08
Si -0.01 11.04 -6.28
Si -9.57 -7.73 -3.16
Si  1.89 -1.11 -12.52
Si  9.58 -7.74 -3.18
Si -1.89 -1.12 -12.54
Si  9.51  1.10 -8.55
Si  7.61  8.80 -5.45
Si -5.72 -5.48 10.11
Si  3.83 -10.98 -5.47
Si  3.78 -8.83 -8.55
Si  5.75 -5.48 10.11
Si  1.87 12.11  3.92
Si  1.89  7.68 10.14
Si  9.56 -7.67  3.89
Si 11.46 -4.42  3.88
Si  7.62 -2.24 10.14
Si 11.46  2.20 -5.48
Si -11.47 -4.42  3.88
Si -11.47  2.20 -5.48
Si -9.58  1.07 -8.58
Si -3.86 -11.06 -5.45
Si -1.95  7.72 10.17
Si -7.63  8.87 -5.47
Si -3.85 -8.86 -8.58
Si -5.72  7.76 -8.61
Si -1.90 12.18  3.89
Si -9.59 -7.75  3.92
Si  5.75  7.76 -8.61
Si -7.68 -2.21 10.17
Si -3.79  2.23 -12.42
Si -7.61 -8.79 -6.23
Si 11.43 -6.60 -0.01
Si 11.42  6.61 -0.00
Si  3.80 -11.02  6.21
Si -11.44 -2.16 -6.26
Si 11.46  2.17  6.22
Si -11.47  2.17  6.22
Si  7.62 -8.83 -6.25
Si -3.79 -11.01  6.30
Si  0.03  4.46 12.46
Si -3.85 -2.21 12.47
Si -3.85 11.02 -6.25
Si -0.04 -13.24 -0.00
Si -7.67  8.83  6.21
Si  3.86 -2.17 12.49
Si  3.80  2.21 -12.51
Si -11.50 -6.60 -0.01
Si -0.04 13.26 -0.01
Si 11.49 -2.16 -6.26
Si -0.00 -4.45 -12.50
Si -11.51  6.61 -0.00
Si  3.86 11.07 -6.23
Si  7.68  8.85  6.30
Si -5.68  9.89  7.00
Si -11.42  6.58 -2.36
Si -5.70 -3.29 -11.66
Si -11.42 -0.04  7.00
Si -1.94 -1.12 13.21
Si -9.57 -7.67 -5.44
Si  5.76 -3.29 -11.66
Si  0.03  6.64 -11.66
Si 11.45 -4.39 -5.45
Si  5.78  9.89  7.00
Si -5.68  3.27 -11.72
