500
set: 1559.00  0.00  0.00
Si -1.12 -0.28  0.91
Si -0.89 -0.53 -1.45
Si  1.13 -1.50  1.10
Si  1.37 -1.75 -1.25
Si  2.61 -0.00 -0.30
Si -1.37  2.27  0.28
Si -0.70 -3.02  0.09
Si -1.13  2.02 -2.08
Si  2.37  0.25  2.06
Si -3.47 -0.00 -0.30
Si -1.36 -0.04  3.26
Si  2.37  2.58 -0.91
Si  0.89 -1.25  3.46
Si -0.94 -2.77  2.44
Si  2.13  2.83  1.44
Si  2.85 -0.25 -2.65
Si  0.09  3.75 -1.15
Si -0.65 -0.78 -3.80
Si -1.61  2.52  2.63
Si -0.46 -3.26 -2.26
Si -0.15  4.00  1.20
Si -3.23 -0.25 -2.65
Si -3.71  0.25  2.06
Si  1.61 -2.00 -3.60
Si -3.71  2.58 -0.91
Si  2.61  2.33 -3.26
Si -3.01 -3.79 -0.02
Si -0.89  1.77 -4.43
Si  3.07 -3.79 -0.02
Si  2.13  0.50  4.41
Si  0.33  3.50 -3.50
Si  4.95 -0.28  0.91
Si -3.95  2.83  1.44
Si  2.83 -3.54  2.33
Si -4.70 -1.75 -1.25
Si  4.70  2.27  0.28
Si  1.89  3.07  3.80
Si -4.94 -1.50  1.10
Si -3.47  2.33 -3.26
Si  0.96 -5.12  1.20
Si -3.25 -3.54  2.33
Si  5.19 -0.53 -1.45
Si -2.77 -4.04 -2.37
Si -1.18 -2.52  4.80
Si -0.39  4.25  3.56
Si  1.20 -5.36 -1.15
Si  1.96  5.32 -0.02
Si  4.71 -0.04  3.26
Si  4.94  2.02 -2.08
Si  3.31 -4.04 -2.37
Si  4.46  2.52  2.63
Si -0.22 -3.51 -4.62
Si -1.60  0.21  5.61
Si -2.98 -0.50 -5.00
Si  3.09 -0.50 -5.00
Si  0.65 -1.01  5.81
Si -3.95  0.50  4.41
Si -1.85  2.76  4.99
Si  2.20  5.07 -2.37
Si  0.72 -4.87  3.56
Si -4.46 -2.00 -3.60
Si  5.38 -3.02  0.09
Si -0.41 -1.03 -6.16
Si  1.72  5.57  2.33
Si  2.59 -3.29  4.69
Si  5.14 -2.77  2.44
Si -5.18 -1.25  3.46
Si -1.81  6.09  0.09
Si -4.19  3.07  3.80
Si -1.57  5.85 -2.26
Si  1.85 -2.25 -5.96
Si  2.85  2.08 -5.62
Si  5.43 -0.78 -3.80
Si -3.49 -3.29  4.69
Si  0.57  3.25 -5.86
Si -4.12  5.32 -0.02
Si  1.44 -5.61 -3.50
Si -3.23  2.08 -5.62
Si -3.88  5.07 -2.37
Si -0.26 -6.84  0.28
Si -2.53 -4.29 -4.73
Si  5.62 -3.26 -2.26
Si -0.65  1.52 -6.78
Si  5.18  1.77 -4.43
Si -2.84 -6.29  1.44
Si  1.89  0.74  6.76
Si -2.60 -6.54 -0.91
Si  4.22  2.76  4.99
Si -2.05  6.34  2.44
Si -0.50 -6.59  2.63
Si -6.96 -0.53 -1.45
Si -5.98  3.75 -1.15
Si  4.47  0.21  5.61
Si  1.65  3.32  6.15
Si  2.44  4.83 -4.73
Si  3.24 -6.29  1.44
Si  5.93  4.00  1.20
Si -7.20 -0.28  0.91
Si  3.55 -4.29 -4.73
Si  4.90 -2.52  4.80
Si  6.17  3.75 -1.15
Si -5.11 -5.12  1.20
Si -4.87 -5.36 -1.15
Si -1.33  5.60 -4.62
Si -0.02 -7.09 -2.08
Si -6.78 -3.02  0.09
Si  4.27  6.09  0.09
Si  7.21 -1.50  1.10
Si -4.36  5.57  2.33
Si -0.63  4.49  5.91
Si  3.48 -6.54 -0.91
Si  0.26  7.36 -1.25
Si -6.22  4.00  1.20
Si  0.48 -4.62  5.91
Si -5.74  3.50 -3.50
Si  1.48  5.82  4.69
Si -1.42 -2.27  7.15
Si -4.22 -2.25 -5.96
Si -6.54 -3.26 -2.26
Si -3.64  4.83 -4.73
Si  0.02  7.61  1.10
Si  4.51  5.85 -2.26
Si  3.00 -6.04  3.80
Si  7.45 -1.75 -1.25
Si -6.72 -0.78 -3.80
Si -7.21  2.02 -2.08
Si -3.08 -6.04  3.80
Si -7.45  2.27  0.28
Si  6.97 -1.25  3.46
Si -2.36 -6.78 -3.26
Si -2.75 -0.74 -7.36
Si  4.03  6.34  2.44
Si  0.02 -3.76 -6.97
Si -7.02 -2.77  2.44
Si  5.69  4.25  3.56
Si -4.19  0.74  6.76
Si  0.50  7.11 -3.60
Si -5.42 -1.01  5.81
Si  2.35 -3.04  7.04
Si -5.35 -4.87  3.56
Si -4.63 -5.61 -3.50
Si  6.41  3.50 -3.50
Si -0.74 -6.35  4.99
Si  3.33 -0.74 -7.36
Si -7.44 -0.04  3.26
Si -1.84  0.46  7.97
Si -2.09  3.01  7.34
Si  0.41 -0.76  8.16
Si  5.86 -3.51 -4.62
Si -4.43  3.32  6.15
Si  3.72 -6.78 -3.26
Si  5.67 -1.03 -6.16
Si -6.97  1.77 -4.43
Si  1.68 -5.86 -5.86
Si -2.29  6.59  4.80
Si -7.69  2.52  2.63
Si -6.46  4.25  3.56
Si -3.73 -3.04  7.04
Si -6.30 -3.51 -4.62
Si  0.22 -7.34 -4.43
Si -0.22  7.86  3.46
Si -0.17 -1.28 -8.51
Si -5.50  3.25 -5.86
Si  4.75  5.60 -4.62
Si  8.69 -0.00 -0.30
Si  8.45  0.25  2.06
Si -2.99  1.83 -7.97
Si -2.29 -4.54 -7.08
Si  7.69 -2.00 -3.60
Si  3.09  1.83 -7.97
Si -4.60  5.82  4.69
Si  0.81  3.00 -8.21
Si  7.04 -5.12  1.20
Si  8.20  2.83  1.44
Si  5.42  1.52 -6.78
Si  4.66 -2.27  7.15
Si  2.68  4.58 -7.08
Si -1.09  5.35 -6.97
Si  8.44  2.58 -0.91
Si  3.98  3.01  7.34
Si  2.76 -5.79  6.15
Si  2.09 -2.50 -8.31
Si -2.00  8.58 -1.45
Si  6.73 -1.01  5.81
Si  5.81 -6.84  0.28
Si  3.79  6.59  4.80
Si -6.48 -1.03 -6.16
Si  5.57 -6.59  2.63
Si  4.23  0.46  7.97
Si -7.26 -2.52  4.80
Si -3.32 -5.79  6.15
Si  6.80 -4.87  3.56
Si -3.40  4.58 -7.08
Si  7.28 -5.36 -1.15
Si  0.74  6.86 -5.96
Si -2.23  8.83  0.91
Si  5.45  4.49  5.91
Si  3.79 -4.54 -7.08
Si -0.41  1.27 -9.13
Si  1.50  9.11 -0.30
Si -2.12 -7.03 -5.62
Si  8.93 -0.25 -2.65
Si  1.65  0.99  9.12
Si -1.75  8.33 -3.80
Si  8.21  0.50  4.41
Si  1.41  3.57  8.50
Si -6.34 -6.84  0.28
Si  7.96  3.07  3.80
Si  0.24 -4.37  8.26
Si -5.59 -4.62  5.91
Si  1.24  6.07  7.04
Si -4.39 -5.86 -5.86
Si  1.74  8.86 -2.65
Si -2.36 -9.11 -0.30
Si -0.02 -9.39  0.91
Si  6.65  3.25 -5.86
Si -5.81  7.36 -1.25
Si -2.60 -8.86  2.06
Si -7.68  0.21  5.61
Si -9.54 -0.00 -0.30
Si -3.98 -2.50 -8.31
Si  6.05 -7.09 -2.08
Si  8.68  2.33 -3.26
Si -0.87  4.74  8.26
Si -6.10 -7.09 -2.08
Si -0.98 -6.10  7.34
Si  4.08  8.58 -1.45
Si  8.03  5.32 -0.02
Si  1.26  9.36  2.06
Si  3.84  8.83  0.91
Si -6.73  1.52 -6.78
Si  5.33 -6.35  4.99
Si -9.30 -0.25 -2.65
Si -6.58 -6.59  2.63
Si -0.26 -9.15  3.26
Si -5.57  7.11 -3.60
Si  3.48 -8.86  2.06
Si  0.22 -9.64 -1.45
Si -7.93  2.76  4.99
Si -6.05  7.61  1.10
Si  6.34  7.36 -1.25
Si  6.10  7.61  1.10
Si  3.96 -7.03 -5.62
Si -9.08 -3.79 -0.02
Si  3.72 -9.11 -0.30
Si -1.66 -2.02  9.51
Si  7.79  5.57  2.33
Si  8.90 -3.54  2.33
Si -7.64  5.85 -2.26
Si  9.14 -3.79 -0.02
Si -2.12 -9.36 -2.65
Si -2.48  9.08  3.26
Si  6.56 -4.62  5.91
Si -5.66 -0.76  8.16
Si -7.88  6.09  0.09
Si -6.06 -3.76 -6.97
Si -0.46  8.11  5.81
Si  8.27  5.07 -2.37
Si  6.10 -3.76 -6.97
Si -9.78  0.25  2.06
Si -6.70  4.49  5.91
Si -8.84 -4.04 -2.37
Si  7.52 -5.61 -3.50
Si  2.11 -2.80  9.39
Si -2.50 -0.99 -9.71
Si -2.84 -8.62  4.41
Si  4.99  5.35 -6.97
Si  4.32  8.33 -3.80
Si  0.26 -4.01 -9.32
Si  1.98  8.62 -5.00
Si -9.78  2.58 -0.91
Si  7.93 -2.25 -5.96
Si -4.43  0.99  9.12
Si  0.46 -7.59 -6.78
Si -4.58  9.11 -0.30
Si -5.26  3.00 -8.21
Si  3.24 -8.62  4.41
Si -2.53  6.84  7.15
Si -4.33  8.86 -2.65
Si -9.32 -3.54  2.33
Si -1.51  8.08 -6.16
Si  3.60  9.08  3.26
Si -4.67  3.57  8.50
Si  6.58  7.11 -3.60
Si -9.54  2.33 -3.26
Si -9.06 -0.50 -5.00
Si -7.41  5.60 -4.62
Si -5.86 -7.34 -4.43
Si  8.66 -3.29  4.69
Si  5.86  7.86  3.46
Si  3.57 -0.99 -9.71
Si  1.92 -6.11 -8.21
Si  7.72  3.32  6.15
Si  5.91 -1.28 -8.51
Si  9.17 -0.50 -5.00
Si  6.49 -0.76  8.16
Si  2.52 -5.54  8.50
Si  7.97  0.74  6.76
Si -4.84  6.07  7.04
Si  9.38 -4.04 -2.37
Si -2.33  3.26  9.69
Si  3.96 -9.36 -2.65
Si  3.55  6.84  7.15
Si -10.02  2.83  1.44
Si -0.50 -8.90  5.61
Si  0.17 -0.51 10.52
Si -5.33  6.86 -5.96
Si -2.08  0.71 10.32
Si -6.82 -6.35  4.99
Si -3.97 -2.80  9.39
Si -8.12  6.34  2.44
Si -7.50 -2.27  7.15
Si  0.46 -9.89 -3.80
Si  1.02  9.61  4.41
Si  7.55  5.82  4.69
Si -6.24 -1.28 -8.51
Si  6.29 -7.34 -4.43
Si -6.29  7.86  3.46
Si -0.85  5.10 -9.32
Si  0.98  6.62 -8.31
Si  4.42 -2.02  9.51
Si -8.60 -4.29 -4.73
Si -4.82  9.36  2.06
Si  8.92  2.08 -5.62
Si -3.56 -5.54  8.50
Si -4.09  8.62 -5.00
Si -2.05 -4.78 -9.44
Si  2.92  4.33 -9.44
Si -2.75  1.58 -10.32
Si  5.09 -6.10  7.34
Si  5.66  1.27 -9.13
Si -3.16  4.33 -9.44
Si  5.21  4.74  8.26
Si  8.51  4.83 -4.73
Si  3.74  3.26  9.69
Si -8.67 -6.54 -0.91
Si  2.24 -10.61  1.10
Si -1.88 -7.28 -7.97
Si -10.02  0.50  4.41
Si  3.33  1.58 -10.32
Si  1.05  2.75 -10.56
Si  0.07 -1.52 -10.86
Si -10.78 -1.75 -1.25
Si -1.88 -9.61 -5.00
Si -8.91 -6.29  1.44
Si -5.83 -4.37  8.26
Si 10.78  2.27  0.28
Si -4.15 -6.11 -8.21
Si -9.30  2.08 -5.62
Si 11.03 -0.28  0.91
Si  3.99  0.71 10.32
Si  2.00 -10.37  3.46
Si  6.89  3.00 -8.21
Si  4.56  8.08 -6.16
Si -9.56 -3.29  4.69
Si 10.54  2.52  2.63
Si  3.00 -8.37  6.76
Si -11.02 -1.50  1.10
Si -3.08 -8.37  6.76
Si  2.48 -10.86 -1.25
Si  6.06 -9.39  0.91
Si -2.71  9.32  5.61
Si -6.09 -9.39  0.91
Si -7.92  0.46  7.97
Si  2.33 -2.74 -10.66
Si 10.79 -0.04  3.26
Si -6.49  1.27 -9.13
Si  6.32 -4.37  8.26
Si -8.43 -6.78 -3.26
Si -10.54 -2.00 -3.60
Si  4.03 -4.78 -9.44
Si  5.82 -9.15  3.26
Si  9.31 -6.29  1.44
Si -7.17  5.35 -6.97
Si -3.83 -10.61  1.10
Si  7.76 -5.86 -5.86
Si  2.22  8.37 -7.36
Si  6.82  6.86 -5.96
Si  1.00  6.31  9.39
Si -10.26  3.07  3.80
Si 11.27 -0.53 -1.45
Si -5.85 -9.64 -1.45
Si -8.17  3.01  7.34
Si -1.22 -5.85  9.69
Si  0.00 -4.12 10.62
Si  3.36  9.32  5.61
Si  8.42 -3.04  7.04
Si 11.02  2.02 -2.08
Si -9.95  5.07 -2.37
Si  5.62  8.11  5.81
Si -10.19  5.32 -0.02
Si -3.59 -10.86 -1.25
Si -8.82 -0.74 -7.36
Si -0.17  1.03 -11.49
Si  9.07 -6.04  3.80
Si -2.24 11.13 -2.08
Si  9.62 -4.29 -4.73
Si  1.17  3.82 10.86
Si  4.20 -7.28 -7.97
Si -6.33 -9.15  3.26
Si -9.15 -6.04  3.80
Si  6.30 -9.64 -1.45
Si  9.55 -6.54 -0.91
Si  4.20 -9.61 -5.00
Si  1.41  1.24 11.47
Si -5.62 -7.59 -6.78
Si -3.74 -2.74 -10.66
Si -1.27  7.83 -8.51
Si -2.48 11.38  0.28
Si -4.07 -10.37  3.46
Si -8.37  6.59  4.80
Si -5.82 -4.01 -9.32
Si -0.70  8.35  8.16
Si -5.05  9.61  4.41
Si 10.30  2.76  4.99
Si -5.09  6.62 -8.31
Si -0.74 -8.65  7.97
Si -1.11  4.99 10.62
Si -6.94  4.74  8.26
Si -3.85  8.37 -7.36
Si  1.26 11.69 -0.91
Si  1.76 -10.12  5.81
Si 11.21 -2.77  2.44
Si  7.31  6.07  7.04
Si -9.71  4.83 -4.73
Si 11.45 -3.02  0.09
Si -11.26 -1.25  3.46
Si  5.23  5.10 -9.32
Si  7.58  9.11 -0.30
Si -8.36 -4.54 -7.08
Si -8.07  8.58 -1.45
Si -7.06 -6.10  7.34
Si  7.48  3.57  8.50
Si  0.70 -10.14 -6.16
Si  5.58 -8.90  5.61
Si  8.17 -2.50 -8.31
Si -2.00 10.88 -4.43
Si -6.53  8.11  5.81
Si  3.59 11.38  0.28
Si 10.55  0.21  5.61
Si  3.83 11.13 -2.08
Si  6.34 -4.01 -9.32
Si  9.41 -0.74 -7.36
Si  0.78  9.86  6.76
Si  1.50 11.44 -3.26
Si -5.61 -9.89 -3.80
Si  7.73  0.99  9.12
Si  2.72 -11.11 -3.60
Si 10.34  6.09  0.09
Si -5.02  2.75 -10.56
Si -7.83  8.33 -3.80
Si -10.43  5.57  2.33
Si  0.70 -7.84 -9.13
Si  1.02 11.94  1.44
Si  7.34  9.36  2.06
Si -5.90 -0.51 10.52
Si  6.53 -7.59 -6.78
Si -10.30 -2.25 -5.96
Si  7.82  8.86 -2.65
Si  0.17 -11.88  2.44
Si  0.41 -12.13  0.09
Si -1.90 -1.77 11.86
Si 11.51 -0.78 -3.80
Si -3.35 -11.11 -3.60
Si  8.75  4.58 -7.08
Si -8.31  8.83  0.91
Si  1.87 -2.55 11.75
Si -8.19 -7.03 -5.62
Si -2.77  7.09  9.51
Si 10.10  6.34  2.44
Si -9.06  1.83 -7.97
Si  8.83 -5.79  6.15
Si 11.26  1.77 -4.43
Si -2.72 11.63  2.63
Si 10.97 -2.52  4.80
Si -10.95 -5.36 -1.15
Si  6.25 -0.51 10.52
Si  9.16  1.83 -7.97
Si  2.28 -5.29 10.86
Si 10.58  5.85 -2.26
Si  3.31  7.09  9.51
Si -10.26  0.74  6.76
Si  4.85 -5.85  9.69
Si -2.27 -1.24 -12.06
Si 11.69 -3.26 -2.26
Si  9.79 -6.78 -3.26
Si -11.19 -5.12  1.20
Si  3.35 11.63  2.63
Si -6.57 -8.90  5.61
Si -5.08  6.31  9.39
Si -1.64 -9.86 -7.36
Si -8.43 -9.11 -0.30
Si -7.74 -2.02  9.51
Si  4.07 10.88 -4.43
Si  0.50 -4.26 -11.68
Si -4.31 -10.12  5.81
Si -4.67  1.24 11.47
Si -9.80 -3.04  7.04
Si  6.54 -9.89 -3.80
Si  1.22  6.37 -10.66
