500
set: 876.00  0.00  0.00
Si  0.43 -1.16  0.85
Si -0.43  1.27 -0.82
Si -1.35 -1.21 -0.82
Si  1.38  1.18  0.83
Si  2.18 -1.22 -0.81
Si -0.87  0.00  2.51
Si  0.84 -0.00 -2.54
Si -2.24  1.21  0.86
Si  0.04  2.36  2.51
Si -3.14 -1.20  0.82
Si -0.02 -2.42 -2.48
Si  3.17  1.18 -0.82
Si -2.63 -0.01 -2.54
Si  2.71 -0.01  2.49
Si  0.52  3.63 -0.78
Si -0.50 -3.62  0.82
Si -1.76  2.45 -2.45
Si  1.77 -2.42  2.51
Si  1.83  2.36 -2.58
Si -1.28  3.66  0.84
Si -1.84 -2.43  2.55
Si  1.26 -3.69 -0.88
Si -4.02  1.19 -0.92
Si -0.85 -0.01 -4.21
Si  0.90 -0.04  4.22
Si  4.06 -1.26  0.78
Si -2.31 -3.65 -0.78
Si  2.33  3.66  0.82
Si -0.01 -2.41  4.18
Si  3.04 -3.67  0.81
Si -0.01  2.45 -4.19
Si -3.15  3.65 -0.84
Si  3.56 -2.35 -2.47
Si  2.64 -0.02 -4.17
Si -3.57  2.44  2.47
Si -2.74  0.01  4.16
Si -3.65 -2.48 -2.51
Si  3.67  2.44  2.54
Si  1.74 -2.42 -4.13
Si  4.90  1.21  0.81
Si -1.86 -2.35 -4.15
Si -4.93 -1.16 -0.86
Si  1.82  2.36  4.19
Si -1.73  2.48  4.16
Si  4.52 -0.05 -2.49
Si -4.55 -0.06  2.49
Si -0.82  4.80 -2.51
Si  4.08  3.59 -0.88
Si  0.85 -4.83  2.54
Si -4.11 -3.62  0.84
Si  0.99  4.85  2.55
Si -1.00 -4.92 -2.58
Si  3.54 -2.41  4.16
Si -3.54  2.46 -4.16
Si  0.41 -1.28 -5.87
Si -3.60 -2.39  4.21
Si  5.86 -1.16 -0.86
Si -2.61  4.82  2.53
Si  2.62 -4.86 -2.50
Si -0.45  1.29  5.90
Si -5.89  1.21  0.81
Si  3.68  2.41 -4.17
Si  4.81 -3.63 -0.84
Si  2.80  4.86 -2.48
Si -4.44  0.03 -4.23
Si -0.31  6.08  0.82
Si -1.42 -1.19  5.86
Si -4.93  3.61  0.81
Si  0.34 -6.10 -0.82
Si  1.41  1.23 -5.88
Si -2.78 -4.92  2.51
Si  4.53  0.02  4.26
Si  1.48  6.07 -0.82
Si -1.44 -6.10  0.83
Si -2.19  1.25 -5.85
Si -5.34  2.42 -2.50
Si  5.35 -2.46  2.53
Si  2.27 -1.23  5.88
Si  5.44  2.42 -2.50
Si  2.07 -6.07  0.81
Si  0.86 -4.87 -4.17
Si -5.43 -2.46  2.53
Si -0.78  4.89  4.21
Si  0.96  4.93 -4.15
Si -2.10  6.12 -0.86
Si -1.01 -4.92  4.19
Si  6.24 -0.06  2.49
Si -6.27 -0.05 -2.49
Si -3.14 -1.16 -5.90
Si  3.15  1.21  5.92
Si -3.25 -6.00 -0.82
Si -6.73 -1.26  0.78
Si  0.56  3.62  5.85
Si  2.65 -4.84  4.16
Si -0.52 -3.68 -5.83
Si  5.86  3.61  0.81
Si  6.77  1.19 -0.92
Si -2.64  4.92 -4.18
Si  3.25  6.12  0.85
Si  4.39 -4.84  2.47
Si -2.83 -4.83 -4.19
Si  2.82  4.87  4.18
Si  1.23 -3.65  5.89
Si -5.98 -3.63 -0.84
Si -4.40  4.93 -2.47
Si -1.33  3.65 -5.89
Si -4.59 -4.83 -2.45
Si  4.60  4.86  2.51
Si  5.32 -2.36 -4.18
Si -5.31  2.44  4.16
Si -3.90  6.02  0.78
Si  2.31  3.60 -5.83
Si -4.05  1.28  5.88
Si  4.06 -1.20 -5.89
Si -2.27 -3.65  5.85
Si -5.47 -2.36 -4.18
Si  5.47  2.44  4.16
Si  3.94 -6.09 -0.92
Si  3.12 -3.62 -5.79
Si -3.03  3.67  5.83
Si -6.26  0.02  4.26
Si  0.41 -1.28  7.47
Si -0.42  1.21 -7.51
Si  6.34  0.03 -4.23
Si  6.68 -3.62  0.84
Si -6.71  3.59 -0.88
Si  0.19  7.27 -2.54
Si -0.12 -7.29  2.49
Si  4.42 -4.82 -4.16
Si -7.62  1.18 -0.82
Si -1.37 -1.28 -7.55
Si -4.42  4.87  4.16
Si  7.65 -1.20  0.82
Si -4.96 -1.18  5.89
Si  1.39  1.22  7.57
Si  4.96  1.23 -5.89
Si -4.55 -4.80  4.16
Si -1.72  7.22  2.49
Si  4.56  4.85 -4.13
Si  5.00  6.06 -0.81
Si  1.69 -7.33 -2.49
Si -7.11  2.44  2.54
Si  2.26 -1.20 -7.52
Si  1.96  7.28  2.51
Si -5.07 -6.07  0.86
Si -2.23  1.16  7.55
Si -1.99 -7.28 -2.54
Si  7.14 -2.48 -2.51
Si -7.23 -2.35 -2.47
Si  7.21  2.44  2.47
Si  4.05  3.62  5.89
Si -4.16 -3.63 -5.89
Si  6.20 -4.83 -2.45
Si -6.19  4.86  2.51
Si  3.18  1.22 -7.55
Si -3.18 -1.19  7.60
Si -0.58 -3.64  7.52
Si  5.83 -1.18  5.89
Si -5.83  1.23 -5.89
Si -3.44  7.23 -2.49
Si  5.72 -6.07  0.86
Si -6.40 -4.84  2.47
Si  0.54  3.64 -7.54
Si -4.85  3.66 -5.79
Si  0.09  7.29  4.16
Si -0.19 -7.29 -4.17
Si -5.79  6.06 -0.81
Si  6.38  4.93 -2.47
Si -1.22  3.63  7.52
Si  4.93 -3.61  5.83
Si -8.08 -0.01  2.49
Si  3.41 -7.34  2.49
Si  0.32 -6.07  5.92
Si  7.63  3.65 -0.84
Si  1.30 -3.65 -7.57
Si -0.31  6.12 -5.90
Si  3.66  7.28 -2.54
Si  8.15 -0.01 -2.54
Si -3.69 -7.28  2.51
Si  0.58  8.49  0.86
Si -1.42 -6.05 -5.88
Si -0.65 -8.50 -0.81
Si  1.41  6.09  5.86
Si -7.10  2.41 -4.17
Si  1.70 -7.26  4.26
Si -1.62  7.31 -4.23
Si -1.19  8.47 -0.92
Si -4.02  1.18 -7.52
Si -7.75 -3.67  0.81
Si  1.97  7.26 -4.21
Si  4.03 -1.22  7.55
Si  2.25  3.64  7.52
Si  7.18 -2.39  4.21
Si  1.23 -8.54  0.78
Si -1.93 -7.32  4.22
Si  8.55  1.21  0.86
Si -2.28 -3.64 -7.54
Si -7.24 -2.41  4.16
Si  7.24  2.46 -4.16
Si  2.13 -6.05 -5.89
Si -8.61 -1.22 -0.81
Si -2.13  6.10  5.89
Si -2.40 -8.44  0.85
Si  6.24 -4.80  4.16
Si -6.22  4.85 -4.13
Si  2.40  8.55 -0.82
Si -3.14  3.58 -7.57
Si  3.11 -3.69  7.56
Si  3.23  6.00 -5.87
Si -6.37 -4.82 -4.16
Si  3.03 -8.44 -0.86
Si -5.86 -3.61  5.83
Si -6.72 -1.20 -5.89
Si -3.28 -5.99  5.90
Si  6.74  1.28  5.88
Si  6.37  4.87  4.16
Si -3.06  8.49  0.81
Si  8.05  0.01  4.16
Si  5.94  3.66 -5.79
Si  3.52 -7.25 -4.23
Si -3.43  7.30  4.26
Si -8.15 -0.02 -4.17
Si -4.99 -1.20 -7.59
Si  4.97  1.29  7.59
Si  3.72  7.24  4.22
Si  6.88  6.02  0.78
Si -3.68 -7.29 -4.21
Si -6.84 -6.09 -0.92
Si -8.46  3.66  0.82
Si  3.91 -6.00  5.88
Si  8.48 -3.65 -0.78
Si  0.92  0.02 -9.23
Si -4.05 -3.65  7.52
Si -5.25  7.27  2.49
Si -0.89 -0.01  9.27
Si -3.90  6.08 -5.89
Si  4.12  3.63 -7.57
Si  5.33 -7.29 -2.54
Si -5.46 -7.29 -2.54
Si  5.54  7.27  2.49
Si  4.21  8.46  0.83
Si -4.18 -8.49 -0.82
Si -9.40  1.18  0.83
Si -0.03 -2.46 -9.22
Si  0.06  2.43  9.23
Si  9.44 -1.21 -0.82
Si  2.67 -0.05  9.18
Si  6.63 -3.63 -5.89
Si -2.70  0.02 -9.22
Si  8.95 -2.43  2.55
Si -8.96  2.36 -2.58
Si  5.80 -1.20 -7.59
Si -5.82  1.29  7.59
Si -6.74  3.62  5.89
Si  9.02  2.45 -2.45
Si -9.02 -2.42  2.51
Si  7.53 -6.00 -0.82
Si -7.99  4.86 -2.48
Si -4.85  3.59  7.56
Si  0.36 -6.06 -7.55
Si -1.72  2.44 -9.23
Si  4.83 -3.70 -7.57
Si  1.84  2.48 -9.21
Si -1.84 -2.36  9.24
Si  1.75 -2.46  9.23
Si  8.00 -4.92  2.51
Si  7.65 -1.16 -5.90
Si -7.53  6.12  0.85
Si -7.64  1.21  5.92
Si -0.35  6.09  7.60
Si  1.46  6.00 -7.55
Si -4.80  8.46 -0.82
Si -5.01 -6.03 -5.85
Si  4.82 -8.48  0.82
Si -1.44 -6.06  7.57
Si  8.18  4.82  2.53
Si -8.17 -4.86 -2.50
Si  5.10  6.05  5.88
Si  5.22 -7.26  4.16
Si  2.15 -5.99  7.59
Si -5.32  7.26 -4.17
Si -2.16  6.08 -7.59
Si  0.73 -9.63 -2.47
Si  5.46  7.26 -4.17
Si -5.57 -7.26  4.16
Si -0.75  9.72  2.47
Si -1.05 -9.70  2.51
Si  1.06  9.73 -2.45
Si  3.24  6.00  7.47
Si  8.92 -2.35 -4.15
Si -3.52  2.48  9.20
Si -8.97  2.36  4.19
Si -5.69  6.05  5.88
Si  3.49 -2.43 -9.25
Si  6.76  1.18 -7.52
Si -3.25 -6.07 -7.51
Si -3.65 -2.43 -9.20
Si  5.77 -6.03 -5.85
Si  3.59  2.42  9.24
Si -6.76 -1.22  7.55
Si  7.96 -4.83 -4.19
Si  9.50  3.66  0.84
Si -7.97  4.87  4.18
Si  9.92  0.00  2.51
Si -9.05 -2.42 -4.13
Si -9.53 -3.69 -0.88
Si  5.93  3.59  7.56
Si  4.45 -0.03 -9.25
Si -9.95 -0.00 -2.54
Si -7.67 -3.62 -5.79
Si  9.06  2.48  4.16
Si -4.57  0.01  9.22
Si -5.96 -3.70 -7.57
Si -2.52  9.70 -2.50
Si -8.14 -4.84  4.16
Si -0.56 -8.51  5.88
Si  0.64  8.53 -5.85
Si  2.87  9.64  2.51
Si  7.76  3.67  5.83
Si  2.53 -9.74  2.53
Si  8.15  4.92 -4.18
Si  5.99  8.46 -0.82
Si -5.96 -8.48  0.82
Si  1.24 -8.48 -5.89
Si -2.85 -9.70 -2.48
Si -8.52 -1.23  5.88
Si -0.83  4.85 -9.20
Si -0.98 -4.80 -9.21
Si -3.93  6.06  7.55
Si  3.94 -6.10 -7.52
Si -10.36 -1.16  0.85
Si -1.23  8.56  5.88
Si  7.09 -7.28  2.51
Si 10.36  1.27 -0.82
Si  0.76 -4.86  9.24
Si  8.60  1.25 -5.85
Si -7.12  7.28 -2.54
Si  0.99  4.92  9.24
Si  0.72 -9.69  4.16
Si  7.35  7.23 -2.49
Si -1.09 -9.70 -4.13
Si -0.72  9.74 -4.16
Si -8.71 -6.07  0.81
Si  8.68  6.12 -0.86
Si -2.42 -8.56 -5.87
Si -2.60  4.83  9.14
Si  1.10  9.76  4.16
Si  2.37  8.57  5.90
Si -7.38 -7.34  2.49
Si -6.67  3.63 -7.57
Si  3.00 -8.46  5.89
Si  6.74 -3.65  7.52
Si -6.58  8.46  0.83
Si -9.89 -0.04  4.22
Si  2.80  4.82 -9.22
Si -3.00  8.51 -5.89
Si -7.60  1.22 -7.55
Si -2.76 -4.85  9.23
Si  9.93 -0.01 -4.21
Si  6.61 -8.49 -0.82
Si  2.50 -9.63 -4.18
Si  2.64 -4.90 -9.28
Si  7.61 -1.19  7.60
Si -6.88 -6.00  5.88
Si -2.49  9.72  4.16
Si  5.36 -2.45  9.14
Si -0.89 -0.01 -10.84
Si -8.48  3.60 -5.83
Si -5.43 -2.45  9.14
Si  6.89  6.08 -5.89
Si -10.27  3.63 -0.78
Si  0.92  0.02 10.88
Si -2.83 -9.69  4.18
Si -4.29  9.72  2.54
Si  5.09  6.08 -7.52
Si 10.29 -3.62  0.82
Si -5.32  2.38 -9.28
Si -5.06 -6.12  7.55
Si -7.06  7.24  4.22
Si  8.52 -3.65  5.85
Si  4.31 -9.76 -2.51
Si  2.82  9.73 -4.19
Si -0.33 10.93 -0.84
Si  0.21 -10.95  0.81
Si  4.65  9.64 -2.58
Si  7.11 -7.29 -4.21
Si  5.47  2.38 -9.28
Si -4.66 -9.71  2.55
Si  1.54 10.94  0.84
Si -7.27 -7.25 -4.23
Si  9.37 -1.19  5.86
Si -1.57 -10.97 -0.88
Si -2.10 10.89  0.81
Si  6.22  0.01  9.22
Si  1.98 -10.91 -0.84
Si -9.38  1.23 -5.88
Si -4.25 -8.47  5.86
Si -9.31  6.07 -0.82
Si  0.06  2.43 -10.88
Si -0.03 -2.46 10.89
Si  4.23  8.51 -5.88
Si  9.35 -6.10  0.83
Si  7.35  7.30  4.26
Si -6.34 -0.03 -9.25
Si -2.70  0.02 10.89
Si -5.70  6.08 -7.52
Si -9.80  4.85  2.55
Si  2.67 -0.05 -10.93
Si  9.79 -4.92 -2.58
Si  7.51 -5.99  5.90
Si -1.84 -2.36 -10.87
Si  5.73 -6.12  7.55
Si -1.72  2.44 10.88
Si -10.74  2.36  2.51
Si  4.45 -4.80  9.20
Si  1.75 -2.46 -10.88
Si -7.56  6.00 -5.87
Si 11.22 -1.16  0.85
Si 10.76 -2.42 -2.48
Si -11.21  1.27 -0.82
Si  1.84  2.48 10.90
Si  0.59  8.44  7.55
Si  9.96  4.80 -2.51
Si -9.94 -4.83  2.54
Si -0.56 -8.47 -7.52
Si  7.65  3.58 -7.57
Si -10.81 -2.42 -2.48
Si -4.47  4.85 -9.25
Si 10.83  2.36  2.51
Si  4.82 -8.44 -5.90
Si -4.55 -4.84 -9.23
Si  4.58  4.82  9.23
Si -1.20  8.46 -7.52
Si -4.28  9.69 -4.17
Si -7.68 -3.69  7.56
Si  4.36 -9.67  4.21
Si -4.81  8.49  5.92
Si -3.32 -10.90  0.82
Si -8.53 -1.20 -7.52
Si  1.20 -8.49  7.55
Si  3.35 10.91 -0.78
Si  8.55  1.16  7.55
Si -4.69 -9.63 -4.15
Si  4.64  9.64  4.19
Si -7.75 -8.44 -0.86
Si  7.73  8.49  0.81
Si -3.88 10.87 -0.88
Si  2.40  8.49 -7.51
Si  3.85 -10.90  0.84
Si -2.41 -8.56  7.47
Si  3.49 -2.43 10.86
Si  8.80 -7.28 -2.54
Si  3.59  2.42 -10.87
Si -6.13  9.64 -2.58
Si -8.83  7.28  2.51
Si  9.78 -4.92  4.19
Si  9.46  3.65 -5.89
Si -3.52  2.48 -10.92
Si  4.45 -0.03 10.86
Si -0.16 -7.33  9.18
Si -9.83  4.93 -4.15
Si  6.12 -9.71  2.55
Si  0.13  7.30 -9.22
Si  2.97 -8.47 -7.59
Si -3.65 -2.43 10.91
Si -9.56 -3.65  5.89
Si 10.78 -2.41  4.18
Si -4.57  0.01 -10.89
Si -9.93 -4.87 -4.17
Si -10.79 -2.41  4.18
Si 10.78  2.45 -4.19
Si -2.99  8.57  7.59
Si -10.79  2.45 -4.19
Si  9.06  7.22  2.49
Si -6.85 -6.10 -7.52
Si  6.86  6.06  7.55
Si -1.74  7.29  9.22
Si -11.28 -3.62  0.82
Si  7.13 -2.43 -9.20
Si -5.96 -8.44 -5.90
Si 11.62 -0.00 -2.54
Si  1.62 -7.31 -9.25
Si -1.91 -7.26 -9.23
Si 11.31  3.63 -0.78
Si 10.01  4.89  4.21
Si -11.66  0.00  2.51
Si  0.76 -4.86 -10.87
Si  8.39 -8.44  0.85
Si  8.51 -3.64 -7.54
Si  1.93  7.27  9.27
Si -8.54  3.64  7.52
Si -9.09 -7.33 -2.49
Si  5.97  8.49  5.92
Si -0.98 -4.80 10.90
Si -7.20  2.42  9.24
Si  6.50  9.72  2.54
Si 10.34  1.29  5.90
Si -0.83  4.85 10.91
Si  0.99  4.92 -10.87
Si -6.47 -9.76 -2.51
