500
set: 148.00  0.00  0.00
Si  0.01  0.04  0.04
Si  0.06 -2.06  0.78
Si  0.04 -0.03 -2.25
Si  1.85  1.02  0.81
Si -1.90  1.01  0.79
Si -1.88  3.10 -0.05
Si -1.77 -3.17  0.08
Si -1.83 -0.97 -3.00
Si  1.88 -3.13  0.04
Si  1.87  3.14  0.06
Si  0.04  2.12 -2.99
Si  0.01 -2.12  3.00
Si -1.80  1.06  3.03
Si  1.86  0.96  3.03
Si  1.79 -1.08 -3.04
Si  3.69 -0.04 -0.06
Si -3.70 -0.03 -0.03
Si -1.89 -3.04 -2.17
Si -0.06  4.18  0.77
Si  0.07  2.11  3.71
Si  1.79 -3.17 -2.21
Si  1.91  3.15 -2.18
Si -3.62  0.12 -2.30
Si -1.77  3.15 -2.31
Si  3.65 -0.06 -2.30
Si -3.69 -2.12  0.75
Si -1.84 -1.06  3.77
Si  1.83 -1.15  3.77
Si  3.70 -2.14  0.79
Si -0.08 -4.20 -2.91
Si  3.64  2.01 -3.03
Si -3.69 -2.10  2.99
Si -0.04  4.25  3.00
Si  3.72 -2.08  3.04
Si -3.70  2.24 -3.03
Si  5.43  1.12  0.73
Si -1.83 -1.04 -5.24
Si  0.05  2.15 -5.22
Si -0.03 -4.24  3.73
Si -3.60  4.30  0.73
Si -3.64  2.12  3.78
Si  1.77 -5.33  0.72
Si  3.69  2.12  3.75
Si -1.77 -5.34  0.75
Si -5.54  1.08  0.70
Si  3.65  4.34  0.70
Si  1.82 -1.07 -5.32
Si -3.67 -4.18 -2.94
Si  0.03  6.30  0.06
Si -5.43  3.22  0.01
Si -5.47  1.12  2.94
Si  3.61 -4.29 -2.92
Si  0.01  2.11  5.97
Si  5.50  1.14  2.93
Si  1.82  5.26 -3.02
Si  3.67  4.22  2.98
Si -1.77  1.08 -6.00
Si -1.86 -5.29  2.98
Si -3.69  4.20  3.02
Si -5.50 -1.05 -3.02
Si  5.50  3.20 -0.03
Si  5.54 -1.09 -2.96
Si  5.52 -3.20  0.00
Si -1.77  5.36 -2.98
Si -5.52 -3.21 -0.03
Si  1.77 -5.36  2.99
Si -1.82 -1.10  6.05
Si  1.83 -1.07  6.05
Si -0.01 -6.42 -0.07
Si  1.81  1.06 -6.07
Si -0.03 -2.16 -6.05
Si  5.38 -3.20 -2.22
Si  0.06 -4.21 -5.16
Si  5.45  3.12 -2.28
Si  3.59 -4.22  3.74
Si  1.81  5.26  3.71
Si -3.65  2.03 -5.24
Si -3.68 -4.20  3.71
Si  0.08  6.36 -2.16
Si -5.54 -0.98  3.71
Si  3.68  2.08 -5.26
Si  0.03 -0.00  6.75
Si -5.53 -3.15 -2.27
Si -1.88  5.27  3.82
Si -0.08 -6.37 -2.32
Si  5.57 -0.99  3.73
Si -5.58  3.21 -2.23
Si -3.66 -6.22 -0.04
Si  7.27 -0.05  0.07
Si  3.67 -6.28 -0.02
Si  0.01 -4.20  5.95
Si  3.69 -2.13 -5.92
Si  3.64  2.11  5.96
Si -3.69 -2.12 -6.01
Si -3.65  2.10  6.05
Si  0.01  4.27 -6.02
Si -3.66  6.41 -0.02
Si -7.39 -0.05  0.07
Si  3.67  6.47 -0.04
Si -3.65  6.25 -2.22
Si -3.59 -4.20 -5.23
Si -7.32  0.02 -2.14
Si -1.79  7.38  0.81
Si -1.81  5.28 -5.21
Si  1.85 -3.21  6.68
Si  7.34  0.02 -2.14
Si  3.61  6.35 -2.29
Si -5.52 -5.25  0.78
Si -7.31 -2.16  0.75
Si  1.83  3.20  6.72
Si  3.69 -4.28 -5.18
Si -5.49 -1.03 -5.25
Si  5.54 -1.06 -5.20
Si  1.85  5.25 -5.29
Si -1.79  3.17  6.77
Si -1.81 -3.18  6.76
Si  7.35 -2.16  0.75
Si  1.81  7.45  0.78
Si -3.65 -0.05  6.79
Si -3.72 -6.35 -2.29
Si  3.74  0.03  6.74
Si  5.55 -5.32  0.81
Si  3.68 -6.45 -2.22
Si  5.40  5.26 -3.03
Si -1.78 -5.24 -5.97
Si -5.46 -1.03  5.95
Si -7.29  2.11 -2.94
Si -3.61  4.16 -6.02
Si -7.32 -2.12  2.96
Si  5.52  1.08 -5.95
Si -3.61 -4.31  5.95
Si  7.34 -2.12  2.96
Si  1.79  5.36  5.94
Si  1.83  7.40  3.01
Si  1.79 -7.39 -3.06
Si  5.45 -5.30  3.08
Si -5.49 -5.30  3.01
Si  7.37  2.11 -2.94
Si  1.87 -5.26 -6.02
Si  3.73 -4.27  5.95
Si  3.73  4.19 -6.02
Si -1.88  7.40  3.08
Si  5.55 -1.00  6.00
Si -1.81  5.31  6.03
Si -5.54  5.30 -3.06
Si -1.92 -7.43 -3.03
Si -5.54  1.12 -6.03
Si -5.54  5.23  3.67
Si -7.32  2.12  3.69
Si  7.33  4.19  0.71
Si  5.47  5.30  3.71
Si -7.33  4.19  0.71
Si -1.86 -7.39  3.71
Si  7.34  2.12  3.69
Si  1.79 -7.46  3.67
Si -1.86  1.07 -8.26
Si -0.00 -8.50  0.71
Si  0.02 -2.12 -8.28
Si  1.79  1.00 -8.30
Si  7.26 -4.23 -2.92
Si  7.29  4.25  2.97
Si -0.03 -8.44  2.97
Si -0.07  8.46 -2.92
Si -0.03  0.02 -9.01
Si -7.36  4.25  2.97
Si -7.39 -4.23 -2.92
Si -0.07  0.00  9.05
Si -5.46 -3.16  6.63
Si -3.68 -8.35  0.70
Si  0.01  8.43  3.69
Si -5.52  3.16  6.66
Si  9.12  1.08  0.70
Si  3.73 -8.39  0.73
Si  3.69 -2.12 -8.19
Si -3.64 -2.11 -8.22
Si  5.52 -3.15  6.70
Si  7.31  2.19 -5.21
Si  0.05 -6.31  6.75
Si -7.32 -4.27  3.69
Si  5.55  7.35  0.75
Si -1.80 -7.38 -5.27
Si -5.56  7.36  0.72
Si  5.49  3.19  6.74
Si -0.03  4.22 -8.24
Si  7.34 -4.27  3.69
Si -7.35  2.19 -5.21
Si -5.46  5.30 -5.34
Si  5.52  5.32 -5.27
Si  1.88 -7.39 -5.34
Si -9.23  1.12  0.73
Si -0.02  6.42  6.76
Si  7.29  2.07  5.92
Si -1.82  7.37 -5.92
Si  7.31  6.28 -0.07
Si  1.81 -7.41  5.90
Si -3.73  8.40 -2.92
Si  1.83  7.39 -5.92
Si -9.12 -1.09 -2.96
Si  1.81  9.48 -0.03
Si -5.52  5.29  5.90
Si -1.77 -7.38  5.98
Si  1.77  3.10 -8.98
Si -7.35  6.28 -0.07
Si  3.65 -0.03 -8.95
Si -5.50 -5.31 -5.92
Si  1.90 -9.48  0.01
Si -1.81  9.50  0.00
Si -7.37  2.07  5.92
Si -1.83 -9.50 -0.03
Si  5.47  7.41  2.98
Si -1.77 -3.10  8.99
Si  5.57 -7.34 -2.98
Si  1.83  3.18  8.96
Si -5.56  7.33  2.99
Si  1.82 -3.20  8.95
Si -9.14 -3.20  0.00
Si  9.14 -3.21 -0.03
Si -9.16  1.14  2.93
Si  5.51 -5.33 -5.92
Si -3.65 -0.01 -8.99
Si -7.32 -2.12 -6.00
Si -3.65 -8.48  2.98
Si  9.16 -1.05 -3.02
Si -7.30 -6.40  0.06
Si -9.16  3.20 -0.03
Si  9.18  1.12  2.94
Si -1.80  3.14  9.01
Si  7.34 -2.12 -6.00
Si -1.86  3.17 -9.00
Si  3.65  8.51 -2.94
Si  3.65 -8.50  3.02
Si  1.86 -3.11 -9.03
Si -1.83 -3.09 -9.04
Si -5.51 -7.43 -3.02
Si  5.55  5.32  5.98
Si  3.65  0.05  9.03
Si  7.36 -6.40  0.06
Si  9.23  3.22  0.01
Si -3.73 -0.06  9.05
Si  5.45  1.04 -8.15
Si -7.25 -6.34 -2.16
Si -9.09 -0.99  3.73
Si  9.08  3.21 -2.23
Si  9.12 -0.98  3.71
Si  7.24  6.33 -2.32
Si  1.76 -9.48 -2.23
Si  3.68  6.26  6.73
Si -3.65  6.31  6.71
Si -1.75 -5.23 -8.24
Si  9.12 -3.15 -2.27
Si -7.30 -4.24 -5.22
Si  1.79  1.08  9.70
Si  1.79 -5.21 -8.26
Si  3.59  4.24 -8.23
Si  0.03  8.46 -5.22
Si -1.95  9.50 -2.22
Si  3.65  8.49  3.71
Si  3.68 -6.38  6.71
Si -7.27  0.03  6.81
Si  5.45 -7.42  3.82
Si  7.36 -4.24 -5.22
Si -5.51 -7.43  3.71
Si  1.79  9.55 -2.27
Si -5.51  1.03 -8.26
Si -9.21  3.12 -2.28
Si  7.41 -6.34 -2.16
Si -3.74  8.47  3.74
Si -3.68  4.26 -8.26
Si -1.95  1.03  9.75
Si -3.65 -6.43  6.73
Si -1.88 -9.57 -2.28
Si -7.42  6.33 -2.32
Si  0.08 -2.11  9.81
Si  7.39  0.03  6.81
Si -9.28 -3.20 -2.22
Si -7.30 -4.19  5.92
Si  7.36 -4.19  5.92
Si  0.03  8.51  5.92
Si  0.03 -8.42 -6.05
Si -7.30  4.27 -6.05
Si  7.36  4.27 -6.05
Si -3.65  8.42 -5.18
Si  3.61 -2.12  9.68
Si -9.12 -1.06 -5.20
Si  0.02 10.53  0.75
Si  9.14 -5.25  0.78
Si -9.11 -5.32  0.81
Si  5.52 -7.42 -5.21
Si  9.16 -1.03 -5.25
Si -3.65 -2.21  9.75
Si -5.47 -7.45 -5.29
Si  3.74  8.50 -5.23
Si  0.00  4.25  9.83
Si  5.45  3.16 -8.89
Si -3.60  8.42  5.95
Si  5.40 -3.20  8.94
Si  3.72  8.39  5.95
Si -5.54 -7.34  5.94
Si -9.11 -1.00  6.00
Si -9.14  1.08 -5.95
Si 10.96 -0.03 -0.03
Si -5.54 -3.16  8.91
Si -10.96 -0.04 -0.06
Si -5.46 -3.27 -8.94
Si -5.54  3.15  8.93
Si -5.49  3.17 -8.96
Si  5.53 -3.17 -8.94
Si  9.12  5.30 -3.06
Si  0.00  6.34 -8.97
Si  0.04 -10.58 -2.94
Si  0.01 10.58  2.96
Si  9.12  1.12 -6.03
Si  0.04 -6.34  8.99
Si  9.20 -1.03  5.95
Si -5.46 -9.55  0.06
Si  9.17 -5.30  3.01
Si -5.46  9.56  0.04
Si  5.52 -7.38  6.03
Si  5.49  3.26  8.97
Si -5.46  7.43 -6.02
Si -3.59 -8.50 -6.02
Si  0.01 -6.35 -9.01
Si  5.56  9.52  0.08
Si  0.04  6.34  9.03
Si  5.45 -9.60 -0.05
Si  5.55  7.46 -5.97
Si -9.21 -5.30  3.08
Si -9.26  5.26 -3.03
Si  3.73 -8.54 -6.02
Si  9.12  5.23  3.67
Si  1.83  7.32 -8.20
Si -3.69  4.17  9.67
Si -1.77 -5.31  9.66
Si -3.63 10.55  0.79
Si -5.42 -9.55 -2.18
Si -10.95 -2.14  0.79
Si 10.96 -2.12  0.75
Si  5.49 -5.29 -8.20
Si -1.84  7.41 -8.20
Si -7.25 -2.12 -8.27
Si  3.63 10.57  0.75
Si  0.02 -10.58  3.69
Si  7.27 -8.52  0.77
Si -5.54  9.52 -2.21
Si  3.71  4.35  9.68
Si -5.50 -5.38 -8.20
Si -9.19  5.30  3.71
Si -11.01 -0.06 -2.30
Si -0.00 -0.04 -11.26
Si -5.54  1.06  9.76
Si  5.43  1.19  9.80
Si 11.04  0.12 -2.30
Si  5.43  9.65 -2.17
Si  5.56 -9.54 -2.31
Si -7.38 -8.52  0.77
Si  7.40 -2.12 -8.27
Si  1.91 -5.32  9.79
Si  3.63 -10.46 -3.03
Si -3.70 -6.22  8.94
Si -3.61 -6.31 -8.93
Si -3.69  6.24  8.94
Si  7.25  8.50 -2.91
Si -10.94 -2.08  3.04
Si  7.29 -8.45  3.00
Si 10.97 -2.10  2.99
Si  7.29  0.01 -8.97
Si  3.65 -6.33 -8.98
Si  3.72  6.38 -8.93
Si 10.96  2.24 -3.03
Si  3.64 10.60  2.99
Si -11.02  2.01 -3.03
Si -7.36 -8.45  3.00
Si  7.25  0.03  9.06
Si -7.37  0.01 -8.97
Si -3.69  6.36 -8.98
Si  3.63  6.47  8.94
Si  3.64 -6.46  8.94
Si -3.61 10.62  3.04
Si -7.41  8.50 -2.91
Si -3.68 -10.69 -3.03
Si -7.41  0.03  9.06
Si  9.10  7.36  0.72
Si -0.02 -10.51 -5.21
Si -9.11  7.35  0.75
Si  9.14  3.16  6.66
Si -1.89 -11.58  0.73
Si -9.13 -3.15  6.70
Si  1.82 -9.53  6.66
Si  1.87  9.54  6.63
Si  7.31 -6.28  6.76
Si  7.30  8.45  3.73
Si  1.79 -11.62  0.70
Si  9.20 -3.16  6.63
Si -1.78  3.12 -11.22
Si -10.97  2.12  3.75
Si -3.64 -10.57  3.75
Si -1.83 -9.51  6.74
Si -7.35 -6.28  6.76
Si -1.81  9.55  6.70
Si -7.29  6.38  6.75
Si  1.77  3.13 -11.25
Si -9.13  5.32 -5.27
Si -1.89 -3.11 -11.24
Si -9.17  3.19  6.74
Si -7.36  8.45  3.73
Si -7.32  4.19 -8.28
Si  3.69 -10.58  3.78
Si  7.34  4.19 -8.28
Si 11.01  2.12  3.78
Si  1.79 -3.15 -11.27
Si  3.73  0.07 -11.24
Si -11.01  4.34  0.70
Si  7.37  6.38  6.75
Si -3.68  0.11 -11.28
Si  0.01 -8.50 -8.28
Si 11.05  4.30  0.73
Si  9.20  5.30 -5.34
Si -9.09 -7.34 -2.98
Si -1.83 -11.56  2.93
Si  9.10  7.33  2.99
Si  1.86 -11.58  2.94
Si  9.13  5.29  5.90
Si -1.80 11.61 -2.96
Si 10.99 -4.18 -2.94
Si -9.11  5.32  5.98
Si  1.81  1.02 11.94
Si 10.97  4.20  3.02
Si -9.15 -5.33 -5.92
Si  9.16 -5.31 -5.92
Si -10.99  4.22  2.98
Si -1.81  1.03 11.97
Si  1.90 -1.02 -11.96
Si  0.01 10.57 -6.00
Si -0.03 -10.63  5.92
Si  1.83 11.64 -3.02
Si  9.15 -7.43 -3.02
Si -9.19  7.41  2.98
Si -1.83 -1.03 -12.01
Si -11.05 -4.29 -2.92
Si -0.01  2.05 -12.04
Si  0.03 -2.16 12.03
Si  7.24 -2.13  9.65
Si -7.27  8.49 -5.16
Si -1.88  7.36  9.69
Si 10.98 -4.20  3.71
Si  5.45 -5.34  9.69
Si -9.21  1.04 -8.15
Si -10.98  2.08 -5.26
Si  9.14 -7.43  3.71
Si -7.42 -2.13  9.65
Si  3.65 -8.44 -8.26
Si 11.01  2.03 -5.24
Si  9.14  1.03 -8.26
Si -3.74 -8.45 -8.23
Si  7.38  8.49 -5.16
Si  1.75  7.44  9.74
Si -5.58 -5.25  9.74
Si -3.65 -10.61 -5.26
Si -1.76 11.70  3.73
Si  1.78 11.72  3.71
Si -11.07 -4.22  3.74
Si -9.21 -7.42  3.82
Si  5.57  7.47 -8.24
Si  3.68 -10.67 -5.24
Si -5.54  7.49 -8.26
Si 11.00 -6.22 -0.04
Si  3.67 -1.99 11.93
Si -3.65 10.56 -5.92
Si -0.06 12.65  0.07
Si -10.97 -2.13 -5.92
Si -0.06 -4.28 -11.90
Si -10.99 -6.28 -0.02
Si -3.66 -2.05 11.95
Si 10.97 -2.12 -6.01
Si -7.32 -8.43 -6.02
Si  3.64 10.57 -6.01
Si  7.34 -8.43 -6.02
Si -3.69 -10.59  5.96
Si -7.33  8.50  5.95
Si  7.33  8.50  5.95
Si -11.02  2.11  5.96
Si  3.67  2.18 -11.99
Si 11.00  6.41 -0.02
Si 11.01  2.10  6.05
Si -0.06  4.18 12.04
Si -0.06 -12.74  0.07
Si  3.69 -10.60  6.05
Si -10.99  6.47 -0.04
Si -3.66  2.24 -12.01
Si 12.75  1.01  0.79
Si -5.48  9.48  6.68
Si -10.92  0.03  6.74
Si -5.47 -3.21 -11.16
Si  5.43 -3.23 -11.19
Si 11.01  6.25 -2.22
Si  5.55  3.14 -11.16
Si 10.94 -6.35 -2.29
Si -7.29  4.20  9.72
Si  0.01 -12.68 -2.14
Si -5.49 -9.49  6.72
