500
set: 960.00  0.00  0.00
Si -0.47  1.15 -0.87
Si  0.39 -1.20  0.85
Si  1.40  1.18  0.85
Si -1.37 -1.25 -0.85
Si  2.30 -1.20 -0.84
Si  0.90 -0.02 -2.59
Si -2.26  1.34  0.89
Si -0.98  0.05  2.61
Si  0.08  2.44  2.54
Si -3.20 -1.23  0.87
Si  3.23  1.16 -0.85
Si -0.07 -2.50 -2.61
Si -2.72  0.07 -2.60
Si  2.81 -0.01  2.59
Si  0.60  3.74 -0.85
Si -0.56 -3.81  0.85
Si  1.73 -2.50  2.56
Si -1.76  2.52 -2.54
Si -1.23  3.76  0.87
Si -1.89 -2.55  2.54
Si  1.90  2.49 -2.61
Si  1.26 -3.83 -0.85
Si  0.89 -0.00  4.24
Si -4.13  1.16 -0.85
Si -0.89 -0.06 -4.31
Si  4.16 -1.23  0.87
Si  2.35  3.79  0.85
Si -2.44 -3.84 -0.87
Si  3.13 -3.65  0.89
Si  0.02  2.54 -4.23
Si -0.11 -2.51  4.26
Si -3.09  3.79 -0.84
Si  3.63 -2.47 -2.54
Si  2.73 -0.02 -4.29
Si -2.77  0.04  4.30
Si -3.67  2.49  2.56
Si  3.69  2.49  2.56
Si -3.73 -2.47 -2.54
Si -4.55 -0.01  2.59
Si  1.86  2.48  4.26
Si -1.95 -2.45 -4.23
Si -5.06 -1.20 -0.84
Si -1.75  2.58  4.25
Si  1.85 -2.52 -4.26
Si  4.64  0.07 -2.60
Si  5.10  1.34  0.89
Si -4.23 -3.65  0.89
Si  0.84 -5.00  2.59
Si -0.75  5.06 -2.60
Si -1.07 -5.01 -2.59
Si  0.98  5.04  2.61
Si  4.27  3.79 -0.84
Si -3.55  2.47 -4.26
Si  3.64 -2.41  4.25
Si -5.96  1.18  0.85
Si -0.41  1.25  5.99
Si -3.72 -2.41  4.25
Si  0.44 -1.32 -6.00
Si  2.68 -4.92 -2.60
Si  5.99 -1.25 -0.85
Si -2.58  4.98  2.59
Si  3.81  2.47 -4.26
Si  0.34 -6.19 -0.84
Si  1.39  1.29 -6.00
Si  2.86  4.97 -2.59
Si  4.59  0.04  4.30
Si -1.47 -1.34  5.98
Si  4.92 -3.84 -0.87
Si -4.63 -0.02 -4.29
Si -2.95 -4.94  2.61
Si -5.00  3.79  0.85
Si  1.50  6.14 -0.87
Si -0.29  6.33  0.89
Si -1.58 -6.19  0.85
Si -2.20  1.26 -5.98
Si  2.23 -1.33  5.99
Si -5.46  2.49 -2.61
Si  5.47 -2.55  2.54
Si -2.16  6.15 -0.85
Si -1.07 -4.99  4.24
Si  1.08  4.93 -4.31
Si  0.76 -5.01 -4.29
Si  5.60  2.52 -2.54
Si  2.19 -6.22  0.87
Si -0.80  5.03  4.30
Si -5.63 -2.50  2.56
Si -3.23 -1.16 -5.96
Si  6.38  0.05  2.61
Si  3.27  1.30  6.00
Si -6.46 -0.02 -2.59
Si  0.50  3.65  5.98
Si  6.89  1.15 -0.87
Si  2.63 -4.95  4.30
Si -0.58 -3.70 -6.00
Si  3.37  6.17  0.85
Si -2.67  4.97 -4.29
Si  4.41 -4.94  2.61
Si -6.97 -1.20  0.85
Si -3.34 -6.24 -0.85
Si  2.86  4.99  4.24
Si  1.30 -3.69  6.00
Si -4.50  4.97 -2.59
Si -1.26  3.83 -5.96
Si -2.85 -5.05 -4.31
Si  6.13  3.76  0.87
Si -6.09 -3.83 -0.85
Si -4.68 -4.92 -2.60
Si  5.41 -2.45 -4.23
Si  4.13 -1.16 -5.96
Si  4.78  4.98  2.59
Si -4.09  1.30  6.00
Si -5.50  2.48  4.26
Si -3.99  6.17  0.85
Si -5.51 -2.52 -4.26
Si  2.40  3.67 -6.00
Si -2.37 -3.74  5.99
Si  4.02 -6.24 -0.85
Si  5.61  2.58  4.25
Si -3.16  3.66  5.99
Si -6.47 -0.00  4.24
Si  3.20 -3.73 -5.98
Si -6.76  3.74 -0.85
Si  6.47 -0.06 -4.31
Si -0.37  1.23 -7.70
Si  0.40 -1.30  7.70
Si  6.80 -3.81  0.85
Si  7.75 -1.20  0.85
Si -0.24 -7.49  2.56
Si  1.35  1.31  7.70
Si  0.20  7.51 -2.54
Si -4.50  4.99  4.24
Si -7.83  1.15 -0.87
Si -1.43 -1.35 -7.71
Si -5.13 -1.33  5.99
Si  5.16  1.26 -5.98
Si  4.51 -5.05 -4.31
Si  1.66 -7.46 -2.54
Si  4.70  4.97 -4.29
Si -1.70  7.48  2.56
Si -7.28  2.44  2.54
Si -4.73 -4.95  4.30
Si  5.20  6.15 -0.85
Si  2.05  7.43  2.54
Si -5.17 -6.22  0.87
Si -2.23  1.27  7.71
Si  7.29 -2.50 -2.61
Si  2.27 -1.34 -7.70
Si  4.20  3.66  5.99
Si -4.16 -3.73 -5.98
Si -2.04 -7.49 -2.61
Si  7.44  2.44  2.54
Si -7.43 -2.50 -2.61
Si  6.29 -5.01 -2.59
Si  3.31  1.28 -7.69
Si -3.27 -1.15  7.74
Si  5.89 -1.34  5.98
Si  5.78 -6.19  0.85
Si -5.86  6.14 -0.87
Si -6.38  5.04  2.61
Si  0.53  3.63 -7.71
Si -0.61 -3.68  7.70
Si -5.97  1.29 -6.00
Si -4.96  3.67 -6.00
Si -6.52 -5.00  2.59
Si -0.12 -7.51 -4.26
Si  1.34 -3.71 -7.69
Si  4.99 -3.74  5.99
Si -0.23  6.25 -5.98
Si  8.26 -0.02 -2.59
Si -3.50  7.48 -2.61
Si  0.22  7.57  4.25
Si  3.50 -7.54  2.54
Si  1.68 -7.40  4.25
Si  0.26 -6.32  5.99
Si  6.61  5.06 -2.60
Si -1.58  7.46 -4.26
Si -1.30  3.84  7.74
Si -8.34  0.05  2.61
Si  1.16 -8.64  0.89
Si  7.25 -2.51  4.26
Si -4.06  1.28 -7.69
Si  1.56  6.24  5.99
Si  3.86  7.48 -2.61
Si  0.74  8.75  0.87
Si  4.10 -1.15  7.74
Si  7.96  3.74 -0.85
Si -7.92 -3.81  0.85
Si  2.17 -6.15 -5.96
Si -3.86 -7.54  2.54
Si -1.53 -6.31 -6.00
Si -7.34  2.54 -4.23
Si  2.37  3.69  7.70
Si  1.99  7.53 -4.23
Si -8.73 -1.25 -0.85
Si -2.08 -7.50  4.26
Si  7.38  2.54 -4.23
Si -2.34 -3.76 -7.70
Si  8.76  1.18  0.85
Si -0.70 -8.82 -0.85
Si -1.12  8.78 -0.84
Si -2.12  6.29  6.00
Si -7.47 -2.51  4.26
Si -6.28  4.93 -4.31
Si -3.12  3.65 -7.70
Si  6.29 -4.99  4.24
Si  3.16 -3.71  7.71
Si  2.56  8.73 -0.85
Si -2.53 -8.80  0.85
Si  3.44 -7.44 -4.23
Si -6.92 -1.32 -6.00
Si  6.95  1.25  5.99
Si  8.25 -0.00  4.24
Si -6.06 -3.69  6.00
Si -3.53  7.47  4.26
Si -8.25 -0.06 -4.31
Si  3.36  6.28 -6.00
Si  6.56  5.03  4.30
Si -6.60 -5.01 -4.29
Si -5.09 -1.34 -7.70
Si -3.04  8.78  0.85
Si  6.10  3.83 -5.96
Si  5.13  1.27  7.71
Si  2.96 -8.83 -0.87
Si -3.44 -6.33  5.98
Si -7.03 -6.19 -0.84
Si  3.83  7.47  4.26
Si -3.92 -7.44 -4.23
Si -8.59  3.76  0.87
Si -0.92 -0.04  9.39
Si  8.63 -3.83 -0.85
Si -5.31  7.43  2.54
Si  0.93 -0.02 -9.46
Si  4.24  3.65 -7.70
Si  7.07  6.33  0.89
Si -4.20 -3.71  7.71
Si  3.92 -6.33  5.98
Si  5.32 -7.49 -2.61
Si -4.00  6.28 -6.00
Si  5.66  7.48  2.56
Si -5.70 -7.46 -2.54
Si -9.62  1.34  0.89
Si  9.09 -2.50  2.56
Si -0.07 -2.53 -9.44
Si  9.66 -1.20 -0.84
Si -2.73  0.02 -9.39
Si  6.78 -3.70 -6.00
Si  2.69  0.00  9.41
Si -0.02  2.56  9.46
Si -9.12  2.52 -2.54
Si -6.87  3.65  5.98
Si  5.93 -1.35 -7.71
Si  4.32  8.78  0.85
Si -6.01  1.31  7.70
Si -4.99  3.69  7.70
Si -7.77  1.25  5.99
Si -8.11  5.06 -2.60
Si -4.40 -8.83 -0.87
Si  7.70 -6.19 -0.84
Si -9.25 -2.55  2.54
Si  7.80 -1.32 -6.00
Si  1.81 -2.50  9.44
Si  5.02 -3.76 -7.70
Si  9.26  2.49 -2.61
Si -1.71  2.56 -9.45
Si  1.90  2.46 -9.44
Si -0.27  6.26  7.71
Si  8.21 -5.00  2.59
Si -1.99 -2.44  9.46
Si -7.66  6.33  0.89
Si  0.30 -6.33 -7.70
Si -4.80  8.73 -0.85
Si -5.20 -6.15 -5.96
Si  1.60  6.22 -7.70
Si -1.57 -6.29  7.70
Si  4.83 -8.80  0.85
Si  8.34  5.04  2.61
Si  2.13 -6.14  7.74
Si  5.29 -7.50  4.26
Si -2.09  6.27 -7.69
Si -8.43 -5.01 -2.59
Si  5.24  6.29  6.00
Si -5.37  7.53 -4.23
Si -5.68 -7.40  4.25
Si  0.71 -9.91 -2.60
Si -0.61  9.97  2.59
Si  5.78  7.46 -4.26
Si -9.11  2.58  4.25
Si -1.12 -9.99  2.59
Si -3.58  2.49  9.44
Si -10.08  0.07 -2.60
Si -5.80  6.24  5.99
Si  3.68 -2.43 -9.45
Si -3.68 -2.43 -9.45
Si -6.02 -3.71 -7.69
Si  9.21 -2.52 -4.26
Si  1.22 10.05 -2.60
Si  9.22  2.48  4.26
Si -6.96 -1.30  7.70
Si  8.12 -5.01 -4.29
Si  9.72  3.79  0.85
Si  3.78  2.49  9.44
Si  4.63  0.02 -9.39
Si  6.99  1.23 -7.70
Si  5.83 -6.31 -6.00
Si  3.32  6.30  7.70
Si 10.17 -0.01  2.59
Si -4.67  0.00  9.41
Si -8.16  5.03  4.30
Si -9.31 -2.45 -4.23
Si  7.86  3.65  5.98
Si -3.40 -6.34 -7.71
Si  2.44 -9.93  2.61
Si  6.06  3.84  7.74
Si -9.80 -3.84 -0.87
Si -0.67 -8.68  6.00
Si -1.20  8.65  5.99
Si -2.53  9.96 -2.59
Si -7.94 -3.70 -6.00
Si  7.12 -7.49  2.56
Si  1.23 -8.72 -5.98
Si  0.71  8.82 -5.96
Si  1.04  4.95  9.39
Si -10.56 -1.23  0.87
Si -0.76  5.01 -9.39
Si -6.20 -8.64  0.89
Si  0.72 -4.99  9.41
Si -8.44 -4.99  4.24
Si  8.44  4.93 -4.31
Si -7.16  7.51 -2.54
Si  8.75  1.29 -6.00
Si 10.59  1.16 -0.85
Si -4.04  6.30  7.70
Si  3.96 -6.34 -7.71
Si -8.83 -1.34  5.98
Si -1.04 -5.01 -9.46
Si -3.04 -10.00 -2.59
Si  2.95 10.03  2.61
Si  2.46  8.64  5.98
Si  6.24  8.78 -0.84
Si  8.86  6.14 -0.87
Si  0.66 -9.94  4.30
Si -2.54 -8.69 -6.00
Si -0.70  9.96 -4.29
Si  6.75 -3.68  7.70
Si -8.94 -6.19  0.85
Si -6.83  3.63 -7.71
Si -1.21 -10.00 -4.29
Si -2.99  8.66 -6.00
Si  2.66 -4.97 -9.39
Si  7.56  7.51 -2.54
Si 10.09 -0.02 -4.29
Si  1.17 10.02  4.30
Si -7.60 -7.49  2.56
Si -7.73  1.23 -7.70
Si -2.70  4.99  9.41
Si -10.13  0.04  4.30
Si  7.76 -1.30  7.70
Si  3.02 -8.73  5.99
Si -6.62  8.75  0.87
Si -2.89 -5.03  9.39
Si  2.90  4.97 -9.46
Si  6.66 -8.82 -0.85
Si -0.95  0.03 -11.08
Si -2.53  9.98  4.24
Si  0.86 -0.00 11.10
Si 10.49 -3.65  0.89
Si -10.45  3.79 -0.84
Si  5.37 -2.44  9.46
Si -8.62  3.83 -5.96
Si  8.66 -3.69  6.00
Si -0.19 11.14 -0.85
Si -5.23 -6.14  7.74
Si -5.46  2.46 -9.44
Si  4.32 -10.00 -2.59
Si  7.13  6.25 -5.98
Si  2.54 -10.04 -4.31
Si -5.55 -2.50  9.44
Si -7.10 -6.32  5.99
Si  3.05  9.92 -4.31
Si -7.14  7.57  4.25
Si  5.27  6.27 -7.69
Si  0.23 -11.21  0.87
Si -3.04 -9.98  4.24
Si  7.24 -7.51 -4.26
Si -4.41 10.03  2.61
Si  5.65  2.56 -9.45
Si -1.63 -11.18 -0.84
Si -9.56  1.26 -5.98
Si -0.11 -2.49 11.09
Si -9.52  6.15 -0.85
Si  4.83  9.96 -2.59
Si -2.02 11.16  0.85
Si  6.44 -0.04  9.39
Si -4.92 -9.93  2.61
Si  9.59 -1.33  5.99
Si  4.37  8.66 -6.00
Si  0.12  2.43 -11.15
Si -9.94  4.98  2.59
Si -7.48 -7.51 -4.26
Si -2.75  0.09 11.10
Si  9.55 -6.22  0.87
Si -6.43 -0.02 -9.46
Si -4.34 -8.73  5.99
Si  2.05 -11.23 -0.85
Si -5.76  6.22 -7.70
Si  2.85 -0.03 -11.10
Si 10.04 -4.92 -2.60
Si  1.67 11.32  0.89
Si  5.79 -6.29  7.70
Si -7.59  6.25 -5.98
Si  1.86  2.50 11.09
Si  7.58  7.57  4.25
Si 10.99 -2.47 -2.54
Si  4.47 -5.03  9.39
Si  1.76 -2.52 -11.13
Si  7.62 -6.32  5.99
Si -11.49  1.16 -0.85
Si -4.46  4.97 -9.46
Si -1.80  2.54 11.15
Si -11.03  2.49  2.56
Si -1.85 -2.56 -11.15
Si -4.90  8.64  5.98
Si  4.82 -8.69 -6.00
Si 11.05  2.49  2.56
Si -4.70 -4.97 -9.39
Si  7.89  3.63 -7.71
Si 11.52 -1.23  0.87
Si  4.66  4.99  9.41
Si -0.63 -8.70 -7.69
Si -1.16  8.64 -7.70
Si -4.31  9.92 -4.31
Si -11.09 -2.47 -2.54
Si 10.22  4.97 -2.59
Si  4.32 -9.98  4.24
Si -7.97 -3.68  7.70
Si  3.47 11.13 -0.87
Si  1.19 -8.71  7.71
Si  8.71  1.31  7.70
Si -10.31 -4.94  2.61
Si -3.55 -11.18  0.85
Si  0.67  8.83  7.74
Si -8.79 -1.35 -7.71
Si -3.90 11.13 -0.87
Si  2.50  8.62 -7.71
Si  3.81 -11.18  0.85
Si  4.83  9.98  4.24
Si -2.58 -8.67  7.70
Si -4.82 -10.04 -4.31
Si  9.99 -4.95  4.30
Si  8.10  8.75  0.87
Si -10.91  2.47 -4.26
Si -3.63  2.47 -11.13
Si  3.59 -2.45 11.15
Si  9.02 -7.46 -2.54
Si -8.06 -8.82 -0.85
Si -10.03  4.97 -4.29
Si -4.51 -0.03 -11.10
Si -3.02  8.68  7.70
Si  3.73  2.47 -11.13
Si  4.61  0.09 11.10
Si -9.06  7.48  2.56
Si -3.77 -2.45 11.15
Si -9.73 -3.74  5.99
Si  9.77  3.67 -6.00
Si 11.00 -2.41  4.25
Si  3.06 -8.75 -7.70
Si -0.16 -7.49  9.44
Si  6.24 -9.99  2.59
Si -6.14 10.05 -2.60
Si  0.25  7.55 -9.45
Si -11.08 -2.41  4.25
Si  1.71 -7.42 -9.45
Si 10.22  4.99  4.24
Si -1.62  7.48  9.44
Si  8.52 -8.64  0.89
Si -10.21 -5.05 -4.31
Si -11.59 -3.65  0.89
Si -11.91 -0.01  2.59
Si  8.70 -3.71 -7.69
Si  7.29 -2.53 -9.44
Si  6.17  8.65  5.99
Si -10.59 -1.16 -5.96
Si  1.02  5.02 -11.08
Si  7.09  6.26  7.71
Si 11.18  2.47 -4.26
Si -6.65 -9.91 -2.60
Si  0.88 -5.02 -11.10
Si -7.06 -6.33 -7.70
Si -1.11 -4.99 11.10
Si -6.13 -8.72 -5.98
Si -0.79  5.08 11.10
Si -8.66  3.84  7.74
Si -8.48  8.78 -0.84
Si -2.04 -7.52 -9.44
Si  7.34  2.56  9.46
Si  9.41  7.43  2.54
Si  1.95  7.54  9.46
Si 11.63  3.79 -0.84
Si -7.38  2.56  9.46
Si 10.63  1.30  6.00
