500
set: 972.00  0.00  0.00
Si  0.39 -1.21  0.80
Si -0.43  1.25 -0.88
Si  1.46  1.28  0.85
Si -1.47 -1.33 -0.82
Si  2.26 -1.25 -0.84
Si -2.26  1.24  0.89
Si -0.97 -0.04  2.60
Si  0.95  0.04 -2.67
Si  0.02  2.41  2.54
Si  0.02 -2.44 -2.59
Si  3.28  1.29 -0.83
Si -3.29 -1.30  0.92
Si -2.69 -0.00 -2.53
Si  2.70 -0.01  2.53
Si  0.47  3.66 -0.82
Si -0.47 -3.71  0.85
Si  1.84 -2.43  2.59
Si -1.80  2.50 -2.55
Si  1.34 -3.70 -0.83
Si -1.36  3.69  0.92
Si -1.91 -2.58  2.54
Si  1.96  2.56 -2.59
Si -4.08  1.29 -0.83
Si  4.07 -1.30  0.92
Si  0.94  0.07  4.27
Si -0.90 -0.09 -4.31
Si  2.32  3.78  0.80
Si -2.37 -3.74 -0.88
Si -0.07 -2.45  4.19
Si  0.04  2.45 -4.26
Si -3.17  3.74 -0.84
Si  3.17 -3.76  0.89
Si  3.63 -2.49 -2.55
Si -3.58  2.57  2.59
Si  2.86  0.06 -4.27
Si -2.81  0.01  4.30
Si -3.73 -2.49 -2.55
Si  1.86  2.54  4.19
Si  3.78  2.57  2.59
Si -4.66 -0.01  2.53
Si -1.77  2.50  4.33
Si  4.67 -0.00 -2.53
Si  1.78 -2.52 -4.33
Si -1.89 -2.54 -4.26
Si -5.10 -1.25 -0.84
Si  5.10  1.24  0.89
Si -0.76  4.99 -2.53
Si  0.77 -5.01  2.53
Si  0.96  4.96  2.60
Si  4.19  3.74 -0.84
Si -4.19 -3.76  0.89
Si -0.99 -4.96 -2.67
Si -5.90  1.28  0.85
Si  5.89 -1.33 -0.82
Si  0.55 -1.23 -6.01
Si -3.64  2.48 -4.33
Si -0.55  1.17  6.04
Si  3.65 -2.49  4.33
Si -4.50  0.06 -4.27
Si  3.72  2.48 -4.33
Si -2.72  4.99  2.53
Si -3.71 -2.49  4.33
Si  2.73 -5.00 -2.53
Si  4.55  0.01  4.30
Si -1.45 -1.24  5.98
Si  4.99 -3.74 -0.88
Si -0.33  6.23  0.89
Si  0.32 -6.25 -0.84
Si -5.04  3.78  0.80
Si  1.41  1.28 -6.06
Si -2.91 -5.03  2.60
Si  2.88  5.03 -2.67
Si -1.54 -6.21  0.80
Si -2.28  1.19 -5.94
Si  1.50  6.25 -0.88
Si -5.41  2.56 -2.59
Si  5.45 -2.58  2.54
Si  2.26 -1.20  6.03
Si -5.52 -2.43  2.59
Si  0.93 -4.93 -4.27
Si -1.00 -4.92  4.27
Si  1.04  4.90 -4.31
Si  5.56  2.50 -2.55
Si -0.88  5.01  4.30
Si -2.15  6.29 -0.83
Si  2.13 -6.30  0.92
Si -3.18 -1.27 -5.97
Si  6.39 -0.04  2.60
Si  3.18  1.25  6.01
Si -6.42  0.04 -2.67
Si  0.48  3.76  5.98
Si  2.61 -4.98  4.30
Si  6.93  1.25 -0.88
Si -2.57  5.06 -4.27
Si  6.00  3.69  0.92
Si -6.02 -3.70 -0.83
Si -6.97 -1.21  0.80
Si -0.53 -3.72 -6.06
Si -1.24  3.73 -5.97
Si  3.40  6.28  0.85
Si  1.24 -3.74  6.01
Si  4.45 -5.03  2.60
Si  2.87  5.07  4.27
Si -3.40 -6.33 -0.82
Si -4.48  5.03 -2.67
Si -2.83 -5.09 -4.31
Si  4.64  4.99  2.53
Si -4.63 -5.00 -2.53
Si -5.50  2.54  4.19
Si  5.47 -2.54 -4.26
Si  4.18 -1.27 -5.97
Si -4.18  1.25  6.01
Si -3.96  6.28  0.85
Si -5.58 -2.52 -4.33
Si  5.59  2.50  4.33
Si  3.96 -6.33 -0.82
Si  2.48  3.77 -6.01
Si -2.48 -3.82  6.04
Si -6.42  0.07  4.27
Si  3.15 -3.81 -5.94
Si  6.46 -0.09 -4.31
Si -0.45  1.16 -7.68
Si -3.17  3.80  6.03
Si  0.45 -1.21  7.71
Si -6.89  3.66 -0.82
Si -0.09 -7.42  2.59
Si  6.89 -3.71  0.85
Si  1.31  1.29  7.66
Si  7.75 -1.21  0.80
Si  5.08  1.19 -5.94
Si  0.14  7.50 -2.55
Si -7.80  1.25 -0.88
Si -1.35 -1.25 -7.74
Si -5.10 -1.20  6.03
Si -4.49  5.07  4.27
Si  4.53 -5.09 -4.31
Si  1.96  7.41  2.54
Si  1.69 -7.49 -2.55
Si -1.92 -7.43 -2.59
Si -4.75 -4.98  4.30
Si  2.36 -1.21 -7.68
Si -7.34  2.41  2.54
Si -7.34 -2.44 -2.59
Si -1.65  7.57  2.59
Si  7.38  2.41  2.54
Si  4.79  5.06 -4.27
Si  7.38 -2.44 -2.59
Si  5.21  6.29 -0.83
Si -2.38  1.21  7.78
Si -4.21 -3.81 -5.94
Si -5.23 -6.30  0.92
Si  4.20  3.80  6.03
Si  3.28  1.24 -7.70
Si  5.91 -1.24  5.98
Si -6.40  4.96  2.60
Si -3.28 -1.25  7.75
Si  6.37 -4.96 -2.67
Si -0.63 -3.70  7.66
Si  5.82 -6.21  0.80
Si -0.34  6.18 -5.94
Si -5.96  1.28 -6.06
Si -4.88  3.77 -6.01
Si -5.86  6.25 -0.88
Si  0.58  3.74 -7.74
Si  0.33 -6.19  6.03
Si  4.88 -3.82  6.04
Si  6.60  4.99 -2.53
Si -6.59 -5.01  2.53
Si  0.16  7.50  4.33
Si -0.15 -7.51 -4.33
Si  1.34 -3.76 -7.70
Si  7.83  3.66 -0.82
Si -3.47  7.55 -2.59
Si -1.34  3.75  7.75
Si -7.83 -3.71  0.85
Si  8.31  0.04 -2.67
Si -8.34 -0.04  2.60
Si  3.51 -7.58  2.54
Si  1.39  6.17  6.04
Si  0.57  8.69  0.92
Si -0.59 -8.70 -0.83
Si  7.29 -2.45  4.19
Si -1.39 -6.22 -6.01
Si -2.00 -7.45  4.19
Si -1.71  7.47 -4.33
Si  1.98  7.45 -4.26
Si -4.09  1.24 -7.70
Si  1.72 -7.49  4.33
Si -7.32  2.45 -4.26
Si  4.08 -1.25  7.75
Si -1.23  8.74 -0.84
Si -3.85 -7.58  2.54
Si -7.43 -2.45  4.19
Si  3.89  7.55 -2.59
Si  1.23 -8.75  0.89
Si  7.40  2.45 -4.26
Si -2.38 -3.84 -7.68
Si  2.38  3.79  7.71
Si  2.25 -6.26 -5.97
Si  8.82  1.28  0.85
Si -2.25  6.25  6.01
Si -8.83 -1.33 -0.82
Si  2.40  8.66 -0.82
Si -2.41 -8.71  0.85
Si -6.32  4.90 -4.31
Si -3.07  3.78 -7.68
Si  6.36 -4.92  4.27
Si -6.44 -4.93 -4.27
Si -6.82 -1.23 -6.01
Si  3.05 -3.79  7.78
Si  6.81  1.17  6.04
Si -5.00 -1.21 -7.68
Si  6.48  5.01  4.30
Si -3.39 -6.23  5.98
Si  3.06 -8.74 -0.88
Si  4.98  1.21  7.78
Si -8.26 -0.09 -4.31
Si  6.12  3.73 -5.97
Si -3.56  7.54  4.19
Si  8.30  0.07  4.27
Si  3.34  6.27 -6.06
Si -3.10  8.78  0.80
Si  3.53 -7.54 -4.26
Si -6.12 -3.74  6.01
Si  3.80  7.54  4.19
Si  7.04  6.23  0.89
Si -7.04 -6.25 -0.84
Si -1.00 -0.08  9.40
Si -3.83 -7.54 -4.26
Si  8.70 -3.70 -0.83
Si  1.04  0.05 -9.45
Si  3.98 -6.23  5.98
Si -8.72  3.69  0.92
Si -5.41  7.41  2.54
Si  5.45 -7.43 -2.59
Si  4.29  3.78 -7.68
Si -4.02  6.27 -6.06
Si -4.31 -3.79  7.78
Si -5.67 -7.49 -2.55
Si  9.62 -1.25 -0.84
Si -9.62  1.24  0.89
Si -0.06  2.47  9.46
Si -4.30 -8.74 -0.88
Si  4.26  8.78  0.80
Si -2.72 -0.01 -9.41
Si  5.71  7.57  2.59
Si -9.16  2.50 -2.55
Si  2.76  0.08  9.45
Si  0.03 -2.47 -9.53
Si -6.05  1.29  7.66
Si -1.68  2.48 -9.39
Si -8.12  4.99 -2.53
Si -6.88  3.76  5.98
Si  6.83 -3.72 -6.06
Si  9.21 -2.43  2.59
Si  1.69 -2.50  9.39
Si  6.01 -1.25 -7.74
Si  8.13 -5.01  2.53
Si  0.42 -6.21 -7.68
Si  4.98 -3.84 -7.68
Si -4.98  3.79  7.71
Si -7.69  6.23  0.89
Si  7.68 -6.25 -0.84
Si  1.48  6.15 -7.68
Si -0.44  6.20  7.78
Si -9.27 -2.58  2.54
Si -1.99 -2.53  9.46
Si  9.32  2.56 -2.59
Si  7.91 -1.23 -6.01
Si -1.49 -6.20  7.71
Si -4.96  8.66 -0.82
Si -7.91  1.17  6.04
Si  8.32  4.96  2.60
Si -5.11 -6.26 -5.97
Si  1.96  2.52 -9.53
Si  4.96 -8.71  0.85
Si  5.11  6.25  6.01
Si -8.35 -4.96 -2.67
Si  5.36 -7.45  4.19
Si -5.38  7.45 -4.26
Si -2.15  6.23 -7.70
Si  2.15 -6.25  7.75
Si  5.65  7.47 -4.33
Si -5.64 -7.49  4.33
Si -0.79  9.98  2.53
Si  0.80 -9.99 -2.53
Si -10.05 -0.00 -2.53
Si -3.61 -2.51 -9.39
Si  1.18  9.99 -2.53
Si  3.62  2.50  9.39
Si 10.06 -0.01  2.53
Si -1.17 -10.00  2.53
Si  6.91  1.16 -7.68
Si -9.13  2.50  4.33
Si -3.74  2.50  9.39
Si  3.75 -2.51 -9.39
Si  9.14 -2.52 -4.33
Si  3.24  6.29  7.66
Si -6.92 -1.21  7.71
Si  9.69  3.78  0.80
Si  9.22  2.54  4.19
Si -9.73 -3.74 -0.88
Si -3.29 -6.25 -7.74
Si -6.02 -3.76 -7.70
Si  4.64 -0.01 -9.41
Si -5.98  6.17  6.04
Si  6.02  3.75  7.75
Si -9.25 -2.54 -4.26
Si -4.60  0.08  9.45
Si  5.97 -6.22 -6.01
Si  8.29 -4.93 -4.27
Si  7.84  3.76  5.98
Si -8.24  5.01  4.30
Si  0.69  8.72 -5.97
Si -8.36 -4.92  4.27
Si -7.89 -3.72 -6.06
Si -0.69 -8.74  6.01
Si  8.40  4.90 -4.31
Si  0.94  4.92  9.40
Si  2.52 -10.03  2.60
Si  0.83 -4.91  9.45
Si -0.78  4.99 -9.41
Si -2.55 10.03 -2.67
Si  2.89  9.95  2.60
Si  1.21 -8.80 -5.94
Si -0.90 -4.94 -9.45
Si  6.13  8.74 -0.84
Si  7.27 -7.42  2.59
Si -2.92 -9.95 -2.67
Si -7.22  7.50 -2.55
Si -6.13 -8.75  0.89
Si -8.81 -1.24  5.98
Si -4.12  6.29  7.66
Si  8.77  1.28 -6.06
Si -1.23  8.79  6.03
Si  4.07 -6.25 -7.74
Si 10.64  1.29 -0.83
Si -10.66 -1.30  0.92
Si -7.45 -7.42  2.59
Si  6.73 -3.70  7.66
Si -1.01 -9.93 -4.27
Si  2.42  8.76  5.98
Si  8.86  6.25 -0.88
Si -8.91 -6.21  0.80
Si  0.68 -9.98  4.30
Si -2.46 -8.71 -6.06
Si  7.50  7.50 -2.55
Si -0.63 10.05 -4.27
Si  1.05 10.00  4.30
Si -6.78  3.74 -7.74
Si  2.71 -5.00 -9.41
Si -7.81  1.16 -7.68
Si -2.95  8.76 -6.01
Si  7.81 -1.21  7.71
Si -10.18  0.01  4.30
Si -2.67  5.08  9.45
Si  6.77 -8.70 -0.83
Si -6.79  8.69  0.92
Si 10.22  0.06 -4.27
Si -2.93 -5.07  9.40
Si  7.02  6.18 -5.94
Si  0.85  0.06 11.05
Si  2.94 -8.82  6.04
Si -8.60  3.73 -5.97
Si  2.97  5.05 -9.45
Si  8.60 -3.74  6.01
Si -7.04 -6.19  6.03
Si -0.88 -0.06 -11.12
Si  5.37 -2.53  9.46
Si -2.93 -9.92  4.27
Si  5.21  6.23 -7.70
Si  2.97  9.90 -4.31
Si -10.53  3.74 -0.84
Si 10.53 -3.76  0.89
Si -4.47  9.95  2.60
Si  4.44 -9.95 -2.67
Si -2.55 10.06  4.27
Si -5.21 -6.25  7.75
Si -5.40  2.52 -9.53
Si  5.69  2.48 -9.39
Si -5.68 -2.50  9.39
Si -7.20  7.50  4.33
Si  2.60 -10.09 -4.31
Si  7.21 -7.51 -4.33
Si -0.21 11.28 -0.83
Si  0.20 -11.29  0.92
Si  6.37 -0.08  9.40
Si -6.32  0.05 -9.45
Si  1.61 11.23  0.89
Si -9.64  1.19 -5.94
Si -0.08 -2.42 11.13
Si -1.61 -11.24 -0.84
Si  9.62 -1.20  6.03
Si  0.12  2.39 -11.17
Si  9.49 -6.30  0.92
Si -9.51  6.29 -0.83
Si -4.84 -10.03  2.60
Si  4.82 10.03 -2.67
Si -5.88  6.15 -7.68
Si  7.52  7.50  4.33
Si -7.51 -7.51 -4.33
Si -2.03 11.27  0.85
Si  4.41  8.76 -6.01
Si  5.87 -6.20  7.71
Si -7.71  6.18 -5.94
Si  2.80 -0.03 -11.18
Si -2.79  0.01 11.19
Si -10.09  4.99  2.53
Si  2.02 -11.32 -0.82
Si -10.94  2.57  2.59
Si 11.43 -1.30  0.92
Si 10.10 -5.00 -2.53
Si -11.45  1.29 -0.83
Si 10.99 -2.49 -2.55
Si  1.94 -2.44 -11.13
Si -4.42 -8.82  6.04
Si  4.43 -5.07  9.40
Si  7.69 -6.19  6.03
Si  1.86  2.58 11.13
Si -4.39  5.05 -9.45
Si -1.90  2.52 11.16
Si -1.81 -2.60 -11.17
Si -4.65 -5.00 -9.41
Si  8.67  1.29  7.66
Si -11.09 -2.49 -2.55
Si -4.39  9.90 -4.31
Si -7.99 -3.70  7.66
Si  4.43 -9.92  4.27
Si -0.59 -8.76 -7.70
Si  4.90 -8.71 -6.06
Si  0.59  8.74  7.75
Si -4.94  8.76  5.98
Si  7.94  3.74 -7.74
Si  4.70  5.08  9.45
Si 10.24  5.03 -2.67
Si -8.71 -1.25 -7.74
Si -1.13  8.78 -7.68
Si 11.14  2.57  2.59
Si -10.27 -5.03  2.60
Si -3.48 -11.20  0.80
Si  1.11 -8.79  7.78
Si  3.43 11.24 -0.88
Si  7.93  8.69  0.92
Si -7.95 -8.70 -0.83
Si -2.56 -8.70  7.66
Si  3.88 -11.20  0.80
Si -9.93  5.06 -4.27
Si  2.52  8.74 -7.74
Si  4.81 10.06  4.27
Si -3.48  2.55 -11.13
Si -3.93 11.24 -0.88
Si  9.97 -4.98  4.30
Si -4.77 -10.09 -4.31
Si  3.53 -2.48 11.16
Si  0.26  7.48 -9.39
Si -6.18  9.99 -2.53
Si -0.25 -7.49  9.39
Si  9.05 -7.49 -2.55
Si  6.19 -10.00  2.53
Si -9.01  7.57  2.59
Si -3.83 -2.48 11.16
Si  3.88  2.55 -11.13
Si -6.94 -6.21 -7.68
Si -3.05  8.78  7.71
Si -4.56 -0.03 -11.18
Si -11.00  2.48 -4.33
Si  4.57  0.01 11.19
Si 11.01 -2.49  4.33
Si  3.04 -8.84 -7.68
Si  6.92  6.20  7.78
Si  9.84  3.77 -6.01
Si -11.07 -2.49  4.33
Si 11.08  2.48 -4.33
Si -1.81  7.49  9.39
Si -1.09 -4.94 11.05
Si  1.82 -7.50 -9.39
Si -9.28 -7.43 -2.59
Si -9.85 -3.82  6.04
Si  9.32  7.41  2.54
Si 11.55  3.74 -0.84
Si -10.54 -1.27 -5.97
Si -10.19 -5.09 -4.31
Si -11.55 -3.76  0.89
Si 10.23  5.07  4.27
Si  1.88  7.46  9.46
Si 10.54  1.25  6.01
Si  7.30  2.47  9.46
Si  6.57  9.98  2.53
Si  8.70 -3.76 -7.70
Si  1.06  4.94 -11.12
Si -6.56 -9.99 -2.53
Si -8.70  3.75  7.75
Si -1.91 -7.47 -9.53
Si -7.42  2.47  9.46
Si -6.15 -8.80 -5.94
Si -7.33 -2.47 -9.53
Si -12.02 -0.01  2.53
Si -8.59  8.74 -0.84
Si -0.86  5.01 11.19
Si  8.75  6.17  6.04
