500
set: 1596.00  0.00  0.00
Si -0.07  0.85 -0.65
Si -0.85 -1.28  0.38
Si -2.07  0.92  1.12
Si  0.78 -0.77 -2.30
Si -1.59 -1.24 -1.85
Si  2.00  2.11 -0.80
Si  1.92 -2.21 -0.80
Si -0.77  3.03  0.38
Si  3.09 -1.19  0.86
Si -0.14 -3.46 -0.65
Si -1.28  0.61  3.23
Si -2.68  1.00 -2.09
Si -3.38 -1.19  0.86
Si -0.19 -1.64  3.47
Si -1.51  3.07 -1.85
Si  2.17 -1.17  3.02
Si -2.15 -3.39  1.12
Si  0.85  3.54 -2.30
Si -0.11  2.68  3.47
Si  3.79  1.00 -2.09
Si  3.17  3.12  0.86
Si -3.30  3.12  0.86
Si  4.40  0.92  1.12
Si -2.76 -3.31 -2.09
Si  1.69 -0.80 -4.46
Si  1.33  0.46  4.67
Si  2.25  3.15  3.02
Si -4.47  2.11 -0.80
Si -1.36 -3.71  3.23
Si -4.55 -2.21 -0.80
Si  0.01  5.17 -0.65
Si  3.00  1.32 -4.20
Si  4.88 -1.24 -1.85
Si -4.29 -1.17  3.02
Si  3.71 -3.31 -2.09
Si -2.25 -0.89 -4.94
Si -3.47  1.32 -4.20
Si  4.32 -3.39  1.12
Si  0.70 -5.08 -2.30
Si -0.92 -5.60  0.38
Si -2.00  5.24  1.12
Si -3.07  1.71  4.53
Si  5.62 -1.28  0.38
Si  3.40  1.71  4.53
Si  2.92 -3.00 -4.20
Si  1.76  3.52 -4.46
Si  0.55 -1.68  5.70
Si -1.21  4.92  3.23
Si -4.22  3.15  3.02
Si -1.67 -5.56 -1.85
Si -3.15 -2.60  4.53
Si  4.96  3.07 -1.85
Si  5.19  0.61  3.23
Si  1.25 -3.86  4.67
Si  3.32 -2.60  4.53
Si -5.70 -0.77 -2.30
Si -3.55 -3.00 -4.20
Si -1.47  1.25 -5.97
Si -2.61  5.32 -2.09
Si  0.63  2.64  5.70
Si  3.02 -5.51  0.86
Si -2.17  3.43 -4.94
Si  0.52 -1.81 -6.12
Si  5.70  3.03  0.38
Si  6.40  0.85 -0.65
Si -0.67  0.53  6.45
Si  4.22 -0.89 -4.94
Si -3.46 -5.51  0.86
Si -4.78 -0.80 -4.46
Si  2.10 -5.48  3.02
Si -6.54  0.85 -0.65
Si  0.60  2.50 -6.12
Si -1.98 -1.59  6.18
Si  2.07  6.42 -0.80
Si  1.41  4.77  4.67
Si  1.85 -6.52 -0.80
Si -1.55 -3.07 -5.97
Si -0.26 -5.95  3.47
Si  3.86  5.32 -2.09
Si -5.14  0.46  4.67
Si  1.61 -5.11 -4.46
Si  4.47  5.24  1.12
Si -1.90  2.72  6.18
Si -5.62  3.54 -2.30
Si  5.11 -3.71  3.23
Si  6.32 -3.46 -0.65
Si  6.28 -1.64  3.47
Si -4.71  3.52 -4.46
Si -0.70  7.35  0.38
Si  4.30  3.43 -4.94
Si -7.32 -1.28  0.38
Si -6.62 -3.46 -0.65
Si -0.75 -3.79  6.45
Si -2.32 -5.20 -4.94
Si  4.80 -5.56 -1.85
Si -4.37 -5.48  3.02
Si  7.25 -0.77 -2.30
Si -0.62 -0.38 -7.62
Si  3.07  5.63 -4.20
Si -6.66 -1.64  3.47
Si  6.36  2.68  3.47
Si -1.44  7.39 -1.85
Si -3.40  5.63 -4.20
Si -0.04  6.99  3.47
Si  4.49 -1.59  6.18
Si -0.22 -7.78 -0.65
Si -2.99 -0.85 -7.17
Si -4.40  6.42 -0.80
Si -7.24  3.03  0.38
Si  5.00  1.25 -5.97
Si  5.55 -5.60  0.38
Si  5.26  4.92  3.23
Si -6.58  2.68  3.47
Si  2.39  1.40 -7.41
Si -5.21 -3.86  4.67
Si  3.48 -0.85 -7.17
Si -5.77 -5.08 -2.30
Si -4.62 -6.52 -0.80
Si -0.60  4.84  6.45
Si -2.22 -7.71  1.12
Si -3.00  6.03  4.53
Si -3.23  7.43  0.86
Si  4.57  2.72  6.18
Si  3.24  7.43  0.86
Si  0.93  7.86 -2.30
Si -1.40  5.56 -5.97
Si  4.15 -5.20 -4.94
Si  0.48 -5.99  5.70
Si  2.31 -2.91 -7.41
Si  3.47  6.03  4.53
Si -6.46  5.17 -0.65
Si  6.47  5.17 -0.65
Si  4.92 -3.07 -5.97
Si -4.86 -5.11 -4.46
Si -8.06 -1.24 -1.85
Si  2.33  7.46  3.02
Si -5.06  4.77  4.67
Si -5.92 -1.68  5.70
Si -2.83 -7.62 -2.09
Si -7.75  0.61  3.23
Si  7.32  3.54 -2.30
Si -2.92  3.47 -7.17
Si  0.12  0.21  8.55
Si -4.08  1.40 -7.41
Si -5.84  2.64  5.70
Si -0.55  3.94 -7.62
Si -8.54  0.92  1.12
Si  0.45 -6.12 -6.12
Si  5.80  0.53  6.45
Si  3.64 -7.62 -2.09
Si  8.39 -2.21 -0.80
Si -5.95 -1.81 -6.12
Si  3.56  3.47 -7.17
Si -7.98  3.07 -1.85
Si  8.47  2.11 -0.80
Si -1.43 -8.02  3.23
Si -2.05 -5.91  6.18
Si -5.87  2.50 -6.12
Si  4.25 -7.71  1.12
Si -3.22 -6.92  4.53
Si  3.25 -6.92  4.53
Si  2.85 -7.31 -4.20
Si -2.89 -1.56  8.34
Si -0.70 -4.69 -7.62
Si -4.16 -2.91 -7.41
Si  0.70  6.95  5.70
Si -4.14  7.46  3.02
Si  7.17 -5.08 -2.30
Si  7.80  0.46  4.67
Si  1.21 -2.03  8.79
Si  5.03  7.39 -1.85
Si  1.29  2.28  8.79
Si -3.62 -7.31 -4.20
Si  0.67  6.82 -6.12
Si  1.84  7.83 -4.46
Si  7.02 -1.68  5.70
Si  3.58 -1.56  8.34
Si -2.82  2.75  8.34
Si  8.64 -1.17  3.02
Si -7.83 -3.71  3.23
Si  6.21 -5.95  3.47
Si -7.39 -5.60  0.38
Si -8.62 -3.39  1.12
Si  8.16 -0.80 -4.46
Si  5.77  7.35  0.38
Si -3.06 -5.16 -7.17
Si  5.72 -3.79  6.45
Si -2.10  7.74 -4.94
Si -9.15  1.00 -2.09
Si  6.99 -1.81 -6.12
Si  3.40 -5.16 -7.17
Si  7.10  2.64  5.70
Si  1.18 -8.17  4.67
Si  0.04 -4.10  8.55
Si  0.08  9.48 -0.65
Si  3.65  2.75  8.34
Si -1.83  7.04  6.18
Si  5.07  5.56 -5.97
Si  5.84 -0.38 -7.62
Si  4.42 -5.91  6.18
Si -1.62 -7.38 -5.97
Si -6.73 -5.95  3.47
Si -7.14  0.53  6.45
Si  9.56 -1.19  0.86
Si -7.68  4.92  3.23
Si  7.07  2.50 -6.12
Si  2.46  5.71 -7.41
Si  0.19  4.53  8.55
Si  0.62 -9.40 -2.30
Si  8.72  3.15  3.02
Si  0.29 -0.40 -9.78
Si  1.60  1.71 -9.52
Si -1.92  9.55  1.12
Si  7.72 -3.86  4.67
Si -1.13  9.24  3.23
Si -5.54  7.86 -2.30
Si -9.85 -1.19  0.86
Si -1.00 -9.91  0.38
Si  5.87  4.84  6.45
Si  1.52 -2.60 -9.52
Si  6.25 -7.78 -0.65
Si  8.23  3.52 -4.46
Si  5.04 -8.02  3.23
Si -7.94  1.25 -5.97
Si -8.47  5.24  1.12
Si -8.13 -5.56 -1.85
Si -9.23 -3.31 -2.09
Si -8.72 -0.89 -4.94
Si -1.67  1.31  9.85
Si  6.43  6.99  3.47
Si -4.63  7.83 -4.46
Si -6.51  6.99  3.47
Si  9.63  3.12  0.86
Si  4.37  7.74 -4.94
Si -2.53  9.63 -2.09
Si -4.01  5.71 -7.41
Si -1.74 -9.87 -1.85
Si -5.99 -5.99  5.70
Si -7.17  7.35  0.38
Si -6.69 -7.78 -0.65
Si  2.94 -9.82  0.86
Si -9.77  3.12  0.86
Si  1.48  9.08  4.67
Si  7.88  4.77  4.67
Si  2.73  0.06  9.99
Si -0.82 -8.10  6.45
Si -7.22 -3.79  6.45
Si -7.09 -0.38 -7.62
Si  5.92  3.94 -7.62
Si  9.47  1.32 -4.20
Si -1.75 -3.00  9.85
Si -5.26 -2.03  8.79
Si  2.02 -9.79  3.02
Si  4.64  7.04  6.18
Si -8.02 -3.07 -5.97
Si -5.18  2.28  8.79
Si -3.53 -9.82  0.86
Si 10.26  1.00 -2.09
Si -8.64  3.43 -4.94
Si  1.54 -9.43 -4.46
Si  0.36  3.91 -9.78
Si -6.02 -6.12 -6.12
Si  8.08 -5.11 -4.46
Si -8.45 -1.59  6.18
Si  2.24 -7.23 -7.41
Si  8.32 -6.52 -0.80
Si  8.57 -5.48  3.02
Si  3.94  9.63 -2.09
Si -2.97 -5.88  8.34
Si  4.55  9.55  1.12
Si  5.77 -4.69 -7.62
Si  2.82 -0.49 -10.26
Si -6.35  0.21  8.55
Si  4.85 -7.38 -5.97
Si -3.74  0.06  9.99
Si -5.77  6.95  5.70
Si -9.54  1.71  4.53
Si  9.39 -3.00 -4.20
Si  8.54  6.42 -0.80
Si -7.07  4.84  6.45
Si -9.08  5.32 -2.09
Si -8.37  2.72  6.18
Si  3.50 -5.88  8.34
Si -5.29 -8.17  4.67
Si  6.59  0.21  8.55
Si  6.95 -5.99  5.70
Si -4.87  1.71 -9.52
Si -5.80  6.82 -6.12
Si -0.34 -10.27  3.47
Si  0.21 -4.72 -9.78
Si -9.94  1.32 -4.20
Si -3.65 -0.49 -10.26
Si  1.14 -6.35  8.79
Si 10.18 -3.31 -2.09
Si -9.62 -2.60  4.53
Si -2.84  7.78 -7.17
Si 10.87  0.92  1.12
Si  2.15 10.74 -0.80
Si -7.91  7.39 -1.85
Si -2.40 -9.51 -4.94
Si  9.87  1.71  4.53
Si  9.48 -5.51  0.86
Si  1.77 -10.83 -0.80
Si  7.39  7.86 -2.30
Si  4.80  1.31  9.85
Si -4.95 -2.60 -9.52
Si  1.36  6.59  8.79
Si  6.92 -6.12 -6.12
Si -7.02  3.94 -7.62
Si  9.79 -2.60  4.53
Si  4.73 -9.87 -1.85
Si  5.34  9.24  3.23
Si -10.94  2.11 -0.80
Si -4.45 -9.79  3.02
Si  2.66 -4.25  9.99
Si -4.23 -7.23 -7.41
Si  3.63  7.78 -7.17
Si -0.52  9.15  6.45
Si -10.76 -1.17  3.02
Si -0.47  8.25 -7.62
Si  3.15  9.95 -4.20
Si -11.02 -2.21 -0.80
Si  2.81  4.37  9.99
Si -10.02 -3.00 -4.20
Si -2.74  7.06  8.34
Si -3.32  9.95 -4.20
Si -5.84 -9.40 -2.30
Si  4.72 -3.00  9.85
Si  5.47 -9.91  0.38
Si  2.90  3.82 -10.26
Si -7.87  5.56 -5.97
Si -8.79 -5.20 -4.94
Si 10.79 -3.39  1.12
Si -4.99  9.08  4.67
Si -9.92 -5.51  0.86
Si  1.95 -2.08 11.03
Si  1.67  6.03 -9.52
Si  2.03  2.24 11.03
Si -6.39  9.48 -0.65
Si -1.60  5.63  9.85
Si -6.43 -4.10  8.55
Si -7.17 -4.69 -7.62
Si  4.07 -9.51 -4.94
Si  7.17  6.95  5.70
Si  6.51 -4.10  8.55
Si -3.66  4.37  9.99
Si -3.81 -4.25  9.99
Si -3.57  3.82 -10.26
Si -4.93 -9.43 -4.46
Si -6.28  4.53  8.55
Si  6.55  9.48 -0.65
Si -10.69  3.15  3.02
Si  3.73  7.06  8.34
Si -0.88 -1.41 -11.44
Si 11.35 -1.24 -1.85
Si -6.18 -0.40 -9.78
Si -4.32 10.74 -0.80
Si  7.14  6.82 -6.12
Si -1.32  9.88 -5.97
Si  8.86  1.40 -7.41
Si -2.92 10.34  4.53
Si  2.75 -4.80 -10.26
Si -8.69 -7.71  1.12
Si -0.62 11.66  0.38
Si -0.58 -1.99 11.50
Si -7.90 -8.02  3.23
Si -0.50  2.33 11.50
Si  6.66  4.53  8.55
Si -2.87  1.64 -11.29
Si  0.40 -10.31  5.70
Si  0.73  0.13 11.77
Si  5.65 -8.10  6.45
Si 10.33  5.32 -2.09
Si 10.69 -0.89 -4.94
Si -0.78 -9.00 -7.62
Si  0.04 11.30  3.47
Si -0.80  2.90 -11.44
Si  3.55 10.34  4.53
Si -4.70 -10.83 -0.80
Si  9.54  5.63 -4.20
Si  7.68 -2.03  8.79
Si  8.78 -2.91 -7.41
Si  1.45 -6.91 -9.52
Si  6.76 -0.40 -9.78
Si -9.46 -0.85 -7.17
Si  8.80  7.46  3.02
Si -1.36 11.70 -1.85
Si -3.72 -4.80 -10.26
Si  7.76  2.28  8.79
Si  3.60  1.64 -11.29
Si -2.95 -2.67 -11.29
Si 11.43  3.07 -1.85
Si  7.09 -9.40 -2.30
Si -0.03 -8.41  8.55
Si -8.52 -5.91  6.18
Si -5.33 -6.35  8.79
Si -4.52 -2.08 11.03
Si -4.44  2.24 11.03
Si -9.47  6.03  4.53
Si  0.37 -10.44 -6.12
Si -0.30 -12.09 -0.65
Si 11.66  0.61  3.23
Si -9.87  5.63 -4.20
Si -5.11  6.59  8.79
Si -11.25 -0.80 -4.46
Si  3.52 -2.67 -11.29
Si  7.65 -8.17  4.67
Si -2.13 -10.22  6.18
Si 12.09 -1.28  0.38
Si -6.11  3.91 -9.78
Si 10.94  5.24  1.12
Si -3.15 11.75  0.86
Si -9.30 -7.62 -2.09
Si  3.32 11.75  0.86
Si -4.80  6.03 -9.52
Si -9.70  7.43  0.86
Si  8.31  7.83 -4.46
Si  9.71  7.43  0.86
Si -2.30 -12.02  1.12
Si -3.14 -9.47 -7.17
Si  9.95 -0.85 -7.17
Si  0.27  8.84  8.55
Si -9.38  3.47 -7.17
Si 10.77  3.43 -4.94
Si  3.33 -9.47 -7.17
Si  4.87  5.63  9.85
Si  2.40 11.77  3.02
Si -7.60  9.24  3.23
Si -1.82 -7.31  9.85
Si -12.16 -0.77 -2.30
Si -7.47 -9.91  0.38
Si  1.00 12.17 -2.30
Si  6.13 -10.27  3.47
Si -2.91 -11.94 -2.09
Si -8.09 -7.38 -5.97
Si  9.94  6.03  4.53
Si  0.65 -4.18 11.77
Si -8.30  7.04  6.18
Si -10.84 -5.48  3.02
Si  3.17 -11.23  4.53
Si -11.61  0.46  4.67
Si -6.25 -4.72 -9.78
Si -11.17  3.52 -4.46
Si 12.17  3.03  0.38
Si -3.30 -11.23  4.53
Si  6.83  3.91 -9.78
Si -8.57  7.74 -4.94
Si  9.32 -7.31 -4.20
Si 11.58 -3.71  3.23
Si  8.07  1.71 -9.52
Si  0.80  4.44 11.77
Si  3.56 -11.94 -2.09
Si  5.15  9.88 -5.97
Si -9.36 -1.56  8.34
Si -10.87  6.42 -0.80
Si  0.78 11.26  5.70
Si -7.29 -8.10  6.45
Si  2.77 -11.62 -4.20
Si  2.08 -0.45 -12.50
Si  5.95  9.15  6.45
Si 10.96 -1.59  6.18
Si  7.99 -2.60 -9.52
Si 11.27 -5.56 -1.85
Si  4.34 -10.22  6.18
Si  0.75 11.13 -6.12
Si  2.54 10.03 -7.41
Si  6.00  8.25 -7.62
Si -9.69 -6.92  4.53
Si  6.68 -4.72 -9.78
Si  9.72 -6.92  4.53
Si -8.39  9.55  1.12
Si  4.17 -12.02  1.12
Si -9.29  2.75  8.34
Si  0.44  8.23 -9.78
Si -5.02 -6.91 -9.52
Si -6.81 -10.27  3.47
Si -12.09  3.54 -2.30
Si 10.02  3.47 -7.17
Si  5.59 -1.41 -11.44
Si 10.62 -5.20 -4.94
Si -4.07 11.77  3.02
Si -0.95 -5.73 -11.44
Si 10.11 -7.62 -2.09
Si -1.51 -12.33  3.23
Si -8.14  1.31  9.85
Si  1.88 -6.39 11.03
Si -11.09 -6.52 -0.80
Si  0.99  1.80 -12.73
Si  5.11 11.70 -1.85
Si -3.70 -11.62 -4.20
Si 12.87  0.85 -0.65
Si  8.93  5.71 -7.41
Si 11.04  2.72  6.18
Si  7.95  9.08  4.67
Si -8.21 -9.87 -1.85
Si -10.55  1.40 -7.41
Si 11.47  1.25 -5.97
Si  2.10  6.55 11.03
Si -9.54 -5.16 -7.17
Si  0.91 -2.52 -12.73
