500
set: 23.00  0.00  0.00
Si  0.00  0.00  0.00
Si  1.19  2.09  0.00
Si -1.19 -2.09  0.00
Si -0.04 -0.04 -2.55
Si  0.04  0.04  2.55
Si  1.49 -2.09  0.00
Si -1.49  2.09  0.00
Si  2.67  0.00  0.00
Si -2.67  0.00  0.00
Si -1.15 -2.05  2.55
Si  1.15  2.05 -2.55
Si -1.23 -2.13 -2.55
Si  1.23  2.13  2.55
Si  1.52 -2.05  2.55
Si -1.52  2.05 -2.55
Si  1.45 -2.13 -2.55
Si -1.45  2.13  2.55
Si -2.64  0.04  2.55
Si  2.64 -0.04 -2.55
Si -2.71 -0.04 -2.55
Si  2.71  0.04  2.55
Si -0.30  4.18  0.00
Si  0.30 -4.18  0.00
Si -3.86 -2.09  0.00
Si  3.86  2.09  0.00
Si -4.16  2.09  0.00
Si  4.16 -2.09  0.00
Si  2.38  4.18  0.00
Si -2.38 -4.18  0.00
Si -0.33  4.14 -2.55
Si  0.33 -4.14  2.55
Si -0.26  4.22  2.55
Si  0.26 -4.22 -2.55
Si  3.83  2.05 -2.55
Si -3.83 -2.05  2.55
Si  0.07  0.08  5.11
Si -0.07 -0.08 -5.11
Si  3.90  2.13  2.55
Si -3.90 -2.13 -2.55
Si  2.97 -4.18  0.00
Si -2.97  4.18  0.00
Si -4.12  2.13  2.55
Si  4.12 -2.13 -2.55
Si  4.20 -2.05  2.55
Si -4.20  2.05 -2.55
Si -5.35  0.00  0.00
Si  5.35  0.00  0.00
Si  2.34  4.14 -2.55
Si -2.34 -4.14  2.55
Si -2.42 -4.22 -2.55
Si  2.42  4.22  2.55
Si  1.11  2.02 -5.11
Si -1.11 -2.02  5.11
Si -1.26 -2.17 -5.11
Si  1.26  2.17  5.11
Si  1.56 -2.02  5.11
Si -1.56  2.02 -5.11
Si  3.01 -4.14  2.55
Si -3.01  4.14 -2.55
Si  1.41 -2.17 -5.11
Si -1.41  2.17  5.11
Si  2.60 -0.08 -5.11
Si -2.60  0.08  5.11
Si  2.93 -4.22 -2.55
Si -2.93  4.22  2.55
Si -2.75 -0.08 -5.11
Si  2.75  0.08  5.11
Si -5.31  0.04  2.55
Si  5.31 -0.04 -2.55
Si  5.38  0.04  2.55
Si -5.38 -0.04 -2.55
Si  0.89  6.27  0.00
Si -0.89 -6.27  0.00
Si -1.78  6.27  0.00
Si  1.78 -6.27  0.00
Si -5.05 -4.18  0.00
Si  5.05  4.18  0.00
Si  0.37 -4.11  5.11
Si -0.37  4.11 -5.11
Si -0.22  4.26  5.11
Si  0.22 -4.26 -5.11
Si  3.79  2.02 -5.11
Si -3.79 -2.02  5.11
Si  0.85  6.23 -2.55
Si -0.85 -6.23  2.55
Si -3.94 -2.17 -5.11
Si  3.94  2.17  5.11
Si -6.54 -2.09  0.00
Si  6.54  2.09  0.00
Si -0.93 -6.31 -2.55
Si  0.93  6.31  2.55
Si  4.08 -2.17 -5.11
Si -4.08  2.17  5.11
Si  4.23 -2.02  5.11
Si -4.23  2.02 -5.11
Si  2.30  4.11 -5.11
Si -2.30 -4.11  5.11
Si  1.82 -6.23  2.55
Si -1.82  6.23 -2.55
Si -5.01 -4.14  2.55
Si  5.01  4.14 -2.55
Si  5.64 -4.18  0.00
Si -5.64  4.18  0.00
Si  1.74 -6.31 -2.55
Si -1.74  6.31  2.55
Si  2.45  4.26  5.11
Si -2.45 -4.26 -5.11
Si -5.09 -4.22 -2.55
Si  5.09  4.22  2.55
Si  6.83 -2.09  0.00
Si -6.83  2.09  0.00
Si -3.57 -6.27  0.00
Si  3.57  6.27  0.00
Si  3.04 -4.11  5.11
Si -3.04  4.11 -5.11
Si  2.90 -4.26 -5.11
Si -2.90  4.26  5.11
Si -6.50 -2.05  2.55
Si  6.50  2.05 -2.55
Si  5.27 -0.08 -5.11
Si -5.27  0.08  5.11
Si -6.57 -2.13 -2.55
Si  6.57  2.13  2.55
Si -5.42 -0.08 -5.11
Si  5.42  0.08  5.11
Si -5.61  4.22  2.55
Si  5.61 -4.22 -2.55
Si -5.68  4.14 -2.55
Si  5.68 -4.14  2.55
Si  6.79 -2.13 -2.55
Si -6.79  2.13  2.55
Si -3.53 -6.23  2.55
Si  3.53  6.23 -2.55
Si -6.87  2.05 -2.55
Si  6.87 -2.05  2.55
Si -0.11 -0.11 -7.66
Si  0.11  0.11  7.66
Si  4.46 -6.27  0.00
Si -4.46  6.27  0.00
Si  3.60  6.31  2.55
Si -3.60 -6.31 -2.55
Si  1.08  1.98 -7.66
Si -1.08 -1.98  7.66
Si -8.02  0.00  0.00
Si  8.02  0.00  0.00
Si -1.60  1.98 -7.66
Si  1.60 -1.98  7.66
Si -0.82 -6.20  5.11
Si  0.82  6.20 -5.11
Si -1.30 -2.21 -7.66
Si  1.30  2.21  7.66
Si -2.56  0.11  7.66
Si  2.56 -0.11 -7.66
Si  1.37 -2.21 -7.66
Si -1.37  2.21  7.66
Si  4.49 -6.23  2.55
Si -4.49  6.23 -2.55
Si -4.42  6.31  2.55
Si  4.42 -6.31 -2.55
Si -2.79 -0.11 -7.66
Si  2.79  0.11  7.66
Si  0.97  6.35  5.11
Si -0.97 -6.35 -5.11
Si  4.98  4.11 -5.11
Si -4.98 -4.11  5.11
Si -1.86  6.20 -5.11
Si  1.86 -6.20  5.11
Si  1.71 -6.35 -5.11
Si -1.71  6.35  5.11
Si -7.98  0.04  2.55
Si  7.98 -0.04 -2.55
Si -0.59  8.36  0.00
Si  0.59 -8.36  0.00
Si -5.13 -4.26 -5.11
Si  5.13  4.26  5.11
Si  8.06  0.04  2.55
Si -8.06 -0.04 -2.55
Si -6.46 -2.02  5.11
Si  6.46  2.02 -5.11
Si  2.08  8.36  0.00
Si -2.08 -8.36  0.00
Si -6.61 -2.17 -5.11
Si  6.61  2.17  5.11
Si -5.57  4.26  5.11
Si  5.57 -4.26 -5.11
Si  0.41 -4.07  7.66
Si -0.41  4.07 -7.66
Si  5.72 -4.11  5.11
Si -5.72  4.11 -5.11
Si  0.63 -8.32  2.55
Si -0.63  8.32 -2.55
Si -6.76  2.17  5.11
Si  6.76 -2.17 -5.11
Si  3.75  1.98 -7.66
Si -3.75 -1.98  7.66
Si -3.49 -6.20  5.11
Si  3.49  6.20 -5.11
Si -0.18  4.30  7.66
Si  0.18 -4.30 -7.66
Si -7.72 -4.18  0.00
Si  7.72  4.18  0.00
Si  0.56 -8.40 -2.55
Si -0.56  8.40  2.55
Si -6.91  2.02 -5.11
Si  6.91 -2.02  5.11
Si -6.24 -6.27  0.00
Si  6.24  6.27  0.00
Si  3.97  2.21  7.66
Si -3.97 -2.21 -7.66
Si  3.64  6.35  5.11
Si -3.64 -6.35 -5.11
Si  4.05 -2.21 -7.66
Si -4.05  2.21  7.66
Si  2.04  8.32 -2.55
Si -2.04 -8.32  2.55
Si -2.27 -4.07  7.66
Si  2.27  4.07 -7.66
Si -3.27  8.36  0.00
Si  3.27 -8.36  0.00
Si  4.27 -1.98  7.66
Si -4.27  1.98 -7.66
Si  2.12  8.40  2.55
Si -2.12 -8.40 -2.55
Si  7.69  4.14 -2.55
Si -7.69 -4.14  2.55
Si -2.49 -4.30 -7.66
Si  2.49  4.30  7.66
Si  6.20  6.23 -2.55
Si -6.20 -6.23  2.55
Si  7.76  4.22  2.55
Si -7.76 -4.22 -2.55
Si -3.08  4.07 -7.66
Si  3.08 -4.07  7.66
Si -4.53  6.20 -5.11
Si  4.53 -6.20  5.11
Si  2.86 -4.30 -7.66
Si -2.86  4.30  7.66
Si -4.38  6.35  5.11
Si  4.38 -6.35 -5.11
Si  6.28  6.31  2.55
Si -6.28 -6.31 -2.55
Si -5.24  0.11  7.66
Si  5.24 -0.11 -7.66
Si  8.32 -4.18  0.00
Si -8.32  4.18  0.00
Si  3.30 -8.32  2.55
Si -3.30  8.32 -2.55
Si -3.23  8.40  2.55
Si  3.23 -8.40 -2.55
Si  5.46  0.11  7.66
Si -5.46 -0.11 -7.66
Si  9.21  2.09  0.00
Si -9.21 -2.09  0.00
Si -7.95  0.08  5.11
Si  7.95 -0.08 -5.11
Si  7.13 -6.27  0.00
Si -7.13  6.27  0.00
Si  8.10  0.08  5.11
Si -8.10 -0.08 -5.11
Si  4.75  8.36  0.00
Si -4.75 -8.36  0.00
Si  8.28 -4.22 -2.55
Si -8.28  4.22  2.55
Si -8.36  4.14 -2.55
Si  8.36 -4.14  2.55
Si -9.51  2.09  0.00
Si  9.51 -2.09  0.00
Si -9.17 -2.05  2.55
Si  9.17  2.05 -2.55
Si  0.67 -8.29  5.11
Si -0.67  8.29 -5.11
Si -9.25 -2.13 -2.55
Si  9.25  2.13  2.55
Si -7.09  6.31  2.55
Si  7.09 -6.31 -2.55
Si -7.17  6.23 -2.55
Si  7.17 -6.23  2.55
Si  0.78  6.16 -7.66
Si -0.78 -6.16  7.66
Si -0.52  8.44  5.11
Si  0.52 -8.44 -5.11
Si  4.72  8.32 -2.55
Si -4.72 -8.32  2.55
Si  2.01  8.29 -5.11
Si -2.01 -8.29  5.11
Si  4.94  4.07 -7.66
Si -4.94 -4.07  7.66
Si  4.79  8.40  2.55
Si -4.79 -8.40 -2.55
Si  1.89 -6.16  7.66
Si -1.89  6.16 -7.66
Si  1.00  6.39  7.66
Si -1.00 -6.39 -7.66
Si -9.47  2.13  2.55
Si  9.47 -2.13 -2.55
Si  7.65  4.11 -5.11
Si -7.65 -4.11  5.11
Si -9.54  2.05 -2.55
Si  9.54 -2.05  2.55
Si -2.15 -8.44 -5.11
Si  2.15  8.44  5.11
Si -1.67  6.39  7.66
Si  1.67 -6.39 -7.66
Si  6.17  6.20 -5.11
Si -6.17 -6.20  5.11
Si -5.16 -4.30 -7.66
Si  5.16  4.30  7.66
Si  6.42  1.98 -7.66
Si -6.42 -1.98  7.66
Si  0.15  0.15 10.21
Si -0.15 -0.15 -10.21
Si -7.80 -4.26 -5.11
Si  7.80  4.26  5.11
Si  5.94 -8.36  0.00
Si -5.94  8.36  0.00
Si  3.34 -8.29  5.11
Si -3.34  8.29 -5.11
Si  6.31  6.35  5.11
Si -6.31 -6.35 -5.11
Si -3.19  8.44  5.11
Si  3.19 -8.44 -5.11
Si -5.53  4.30  7.66
Si  5.53 -4.30 -7.66
Si  6.65  2.21  7.66
Si -6.65 -2.21 -7.66
Si  5.76 -4.07  7.66
Si -5.76  4.07 -7.66
Si  3.45  6.16 -7.66
Si -3.45 -6.16  7.66
Si  6.72 -2.21 -7.66
Si -6.72  2.21  7.66
Si -1.04 -1.94 10.21
Si  1.04  1.94 -10.21
Si  0.60 10.45  0.00
Si -0.60 -10.45  0.00
Si  2.52 -0.15 -10.21
Si -2.52  0.15 10.21
Si  1.64 -1.94 10.21
Si -1.64  1.94 -10.21
Si  6.95 -1.98  7.66
Si -6.95  1.98 -7.66
Si  1.34 -2.24 -10.21
Si -1.34  2.24 10.21
Si -1.34 -2.24 -10.21
Si  1.34  2.24 10.21
Si -5.98  8.32 -2.55
Si  5.98 -8.32  2.55
Si -5.90  8.40  2.55
Si  5.90 -8.40 -2.55
Si  8.24 -4.26 -5.11
Si -8.24  4.26  5.11
Si -2.82 -0.15 -10.21
Si  2.82  0.15 10.21
Si  3.68  6.39  7.66
Si -3.68 -6.39 -7.66
Si -8.39  4.11 -5.11
Si  8.39 -4.11  5.11
Si -9.13 -2.02  5.11
Si  9.13  2.02 -5.11
Si  2.08 -10.45  0.00
Si -2.08 10.45  0.00
Si 10.70  0.00  0.00
Si -10.70  0.00  0.00
Si  0.56 10.42 -2.55
Si -0.56 -10.42  2.55
Si -7.05  6.35  5.11
Si  7.05 -6.35 -5.11
Si  7.20 -6.20  5.11
Si -7.20  6.20 -5.11
Si -4.68 -8.29  5.11
Si  4.68  8.29 -5.11
Si -9.28 -2.17 -5.11
Si  9.28  2.17  5.11
Si -0.63 -10.49 -2.55
Si  0.63 10.49  2.55
Si  4.57 -6.16  7.66
Si -4.57  6.16 -7.66
Si -4.34  6.39  7.66
Si  4.34 -6.39 -7.66
Si -8.91 -6.27  0.00
Si  8.91  6.27  0.00
Si  2.12 -10.42  2.55
Si -2.12 10.42 -2.55
Si -9.43  2.17  5.11
Si  9.43 -2.17 -5.11
Si  3.27 10.45  0.00
Si -3.27 -10.45  0.00
Si -10.66  0.04  2.55
Si 10.66 -0.04 -2.55
Si  4.83  8.44  5.11
Si -4.83 -8.44 -5.11
Si  0.45 -4.03 10.21
Si -0.45  4.03 -10.21
Si  2.04 -10.49 -2.55
Si -2.04 10.49  2.55
Si  7.91 -0.11 -7.66
Si -7.91  0.11  7.66
Si -10.73 -0.04 -2.55
Si 10.73  0.04  2.55
Si -3.71 -1.94 10.21
Si  3.71  1.94 -10.21
Si -9.58  2.02 -5.11
Si  9.58 -2.02  5.11
Si -0.15  4.33 10.21
Si  0.15 -4.33 -10.21
Si  8.88  6.23 -2.55
Si -8.88 -6.23  2.55
Si  8.13  0.11  7.66
Si -8.13 -0.11 -7.66
Si -7.43 -8.36  0.00
Si  7.43  8.36  0.00
Si  4.01 -2.24 -10.21
Si -4.01  2.24 10.21
Si  4.01  2.24 10.21
Si -4.01 -2.24 -10.21
Si -2.23 -4.03 10.21
Si  2.23  4.03 -10.21
Si -3.23 -10.42  2.55
Si  3.23 10.42 -2.55
Si 10.40  4.18  0.00
Si -10.40 -4.18  0.00
Si  8.95  6.31  2.55
Si -8.95 -6.31 -2.55
Si  4.31 -1.94 10.21
Si -4.31  1.94 -10.21
Si  0.70 -8.25  7.66
Si -0.70  8.25 -7.66
Si  3.31 10.49  2.55
Si -3.31 -10.49 -2.55
Si  2.53  4.33 10.21
Si -2.53 -4.33 -10.21
Si  3.12 -4.03 10.21
Si -3.12  4.03 -10.21
Si -7.39 -8.32  2.55
Si  7.39  8.32 -2.55
Si  1.97  8.25 -7.66
Si -1.97 -8.25  7.66
Si -0.48  8.48  7.66
Si  0.48 -8.48 -7.66
Si -6.01  8.29 -5.11
Si  6.01 -8.29  5.11
Si -2.82  4.33 10.21
Si  2.82 -4.33 -10.21
Si 10.36  4.14 -2.55
Si -10.36 -4.14  2.55
Si  5.20 -0.15 -10.21
Si -5.20  0.15 10.21
Si  5.87 -8.44 -5.11
Si -5.87  8.44  5.11
Si -4.75 10.45  0.00
Si  4.75 -10.45  0.00
Si  7.47  8.40  2.55
Si -7.47 -8.40 -2.55
Si  7.61  4.07 -7.66
Si -7.61 -4.07  7.66
Si 10.44  4.22  2.55
Si -10.44 -4.22 -2.55
Si  0.52 10.38 -5.11
Si -0.52 -10.38  5.11
Si -6.13 -6.16  7.66
Si  6.13  6.16 -7.66
Si -5.50 -0.15 -10.21
Si  5.50  0.15 10.21
Si  2.19  8.48  7.66
Si -2.19 -8.48 -7.66
Si -9.80  6.27  0.00
Si  9.80 -6.27  0.00
Si  0.67 10.53  5.11
Si -0.67 -10.53 -5.11
Si -4.79 10.42 -2.55
Si  4.79 -10.42  2.55
Si  3.38 -8.25  7.66
Si -3.38  8.25 -7.66
Si 10.99 -4.18  0.00
Si -10.99  4.18  0.00
Si  2.15 -10.38  5.11
Si -2.15 10.38 -5.11
Si  7.84  4.30  7.66
Si -7.84 -4.30 -7.66
Si -4.71 10.49  2.55
Si  4.71 -10.49 -2.55
Si 10.62 -0.08 -5.11
Si -10.62  0.08  5.11
Si -6.35 -6.39 -7.66
Si  6.35  6.39  7.66
Si  3.15 -8.48 -7.66
Si -3.15  8.48  7.66
Si  2.00 -10.53 -5.11
Si -2.00 10.53  5.11
Si -9.77  6.31  2.55
Si  9.77 -6.31 -2.55
Si -10.77 -0.08 -5.11
Si 10.77  0.08  5.11
Si -9.84  6.23 -2.55
Si  9.84 -6.23  2.55
Si  0.74  6.12 -10.21
Si -0.74 -6.12 10.21
Si -8.84 -6.20  5.11
Si  8.84  6.20 -5.11
Si -3.19 -10.38  5.11
