500
set: 304.00  0.00  0.00
Si -0.02  0.01  0.00
Si  1.87  1.10  0.75
Si  0.01 -0.05 -2.31
Si -0.01 -2.24  0.73
Si -1.92  1.18  0.76
Si  1.98 -3.22 -0.02
Si  1.92  1.06  3.08
Si -3.80  0.02 -0.03
Si -1.92 -3.28  0.04
Si -1.92  1.07  3.11
Si  0.04 -2.21  3.11
Si  0.04  2.20 -3.13
Si  1.91 -1.14 -3.14
Si  1.90  3.34  0.04
Si  3.85  0.02 -0.03
Si -1.91 -1.15 -3.16
Si -1.85  3.40 -0.02
Si  1.87  3.29 -2.27
Si  0.01  2.16  3.87
Si  3.82 -2.13  0.84
Si -3.82 -2.13  0.84
Si -1.92  3.30 -2.33
Si  1.91 -3.32 -2.33
Si -1.96 -3.33 -2.27
Si -3.81 -0.05 -2.37
Si -1.92 -1.11  3.92
Si  3.83 -0.05 -2.37
Si  1.87 -1.13  3.97
Si -0.00  4.49  0.84
Si  3.81  2.16 -3.08
Si -3.84  2.16 -3.08
Si -0.02  4.37  3.16
Si -0.02 -4.46 -3.08
Si  3.81 -2.25  3.16
Si -3.84 -2.25  3.16
Si  1.91 -5.44  0.76
Si  3.82  4.38  0.73
Si -3.83  4.38  0.73
Si -3.81  2.15  3.93
Si  1.91 -1.03 -5.48
Si  5.73  1.18  0.76
Si  3.83  2.15  3.93
Si -1.95 -5.53  0.75
Si -5.77  1.10  0.75
Si -0.01  2.18 -5.51
Si -1.95 -1.11 -5.49
Si  0.01 -4.47  3.93
Si -5.67 -3.22 -0.02
Si -1.85 -1.01  6.22
Si -5.73  1.06  3.08
Si -3.79  4.41  3.11
Si -1.92  1.13 -6.20
Si  5.72 -3.28  0.04
Si  0.03  2.23  6.21
Si -1.92  5.48 -3.14
Si  0.03 -6.60 -0.03
Si  5.73  1.07  3.11
Si  1.92  5.47 -3.16
Si -3.79 -4.42 -3.13
Si  3.86  4.41  3.11
Si -1.91 -5.56  3.08
Si -5.74 -1.14 -3.14
Si  0.03  6.64 -0.03
Si  1.91 -5.55  3.11
Si  0.03 -2.19 -6.28
Si -5.75  3.34  0.04
Si  1.90 -1.07  6.28
Si  3.86 -4.42 -3.13
Si  5.74 -1.15 -3.16
Si  1.98  1.19 -6.27
Si  5.80  3.40 -0.02
Si  0.00 -4.34 -5.40
Si  5.69 -3.33 -2.27
Si  0.01  6.57 -2.37
Si  3.82  2.28 -5.40
Si -3.82  2.28 -5.40
Si  5.73  3.30 -2.33
Si  1.91  5.51  3.92
Si -5.74 -3.32 -2.33
Si -5.78  3.29 -2.27
Si -3.81 -4.46  3.87
Si  5.73 -1.11  3.92
Si  3.83 -4.46  3.87
Si -1.96  5.50  3.97
Si  0.01 -6.67 -2.37
Si -0.00  0.08  7.08
Si -5.78 -1.13  3.97
Si  7.63  0.01  0.00
Si  3.80 -6.62  0.00
Si  3.80 -2.20 -6.24
Si  3.80  2.21  6.25
Si  3.80  6.63  0.00
Si -0.02 -4.41  6.25
Si -0.02  4.42 -6.24
Si -3.84 -6.62  0.00
Si -3.84 -2.20 -6.24
Si -3.84  2.21  6.25
Si -3.84  6.63  0.00
Si -7.67  0.01  0.00
Si -3.81  6.57 -2.31
Si -5.74 -5.44  0.76
Si  3.83  6.57 -2.31
Si -1.92 -3.23  7.00
Si  3.82 -0.03  6.97
Si -3.83 -0.03  6.97
Si  1.87 -3.32  6.99
Si  5.70 -5.53  0.75
Si -1.95  3.30  6.99
Si -7.64 -0.05 -2.31
Si  5.70 -1.11 -5.49
Si -1.95  7.72  0.75
Si  7.64 -2.24  0.73
Si  7.66 -0.05 -2.31
Si  1.87  5.51 -5.49
Si -7.65 -2.24  0.73
Si -5.74 -1.03 -5.48
Si  1.90  3.39  7.00
Si -3.81 -6.67 -2.31
Si  3.83 -6.67 -2.31
Si  3.82 -4.45 -5.51
Si -3.83 -4.45 -5.51
Si -1.92  5.59 -5.48
Si  1.90  7.80  0.76
Si -1.91  7.68  3.08
Si -1.85 -5.43 -6.27
Si  1.90 -5.49 -6.20
Si -3.80 -4.39  6.21
Si  1.90  7.69  3.11
Si -7.61 -2.21  3.11
Si  5.72  1.13 -6.20
Si -7.61  2.20 -3.13
Si  3.85 -4.39  6.21
Si  5.73  5.48 -3.14
Si -5.73  5.47 -3.16
Si -5.67  1.19 -6.27
Si  5.80 -1.01  6.22
Si  5.74 -5.56  3.08
Si -5.74 -5.55  3.11
Si -3.80  4.43 -6.28
Si  7.68 -2.21  3.11
Si -5.75 -1.07  6.28
Si  7.68  2.20 -3.13
Si -1.92 -7.76 -3.14
Si  3.85  4.43 -6.28
Si -1.92  5.55  6.28
Si  1.98  5.61  6.22
Si  1.92 -7.77 -3.16
Si  0.00 -8.75  0.84
Si -1.96  1.08 -8.52
Si -7.63  2.16  3.87
Si  1.91  1.09 -8.57
Si  7.66  2.16  3.87
Si  5.69  5.50  3.97
Si -5.74  5.51  3.92
Si  1.91 -7.73  3.92
Si  0.01 -2.25 -8.62
Si  7.64  4.49  0.84
Si -7.65  4.49  0.84
Si -1.96 -7.75  3.97
Si -0.02  8.79 -3.08
Si -0.02 -0.04 -9.32
Si  7.63  4.37  3.16
Si  7.63 -4.46 -3.08
Si -7.67  4.37  3.16
Si -7.66 -4.46 -3.08
Si -0.02 -0.04  9.40
Si -0.02 -8.87  3.16
Si -0.01  6.59  6.97
Si  0.01  4.36 -8.55
Si -1.92 -7.65 -5.48
Si  5.70  3.30  6.99
Si  5.73 -3.23  7.00
Si  9.52  1.10  0.75
Si  0.01  8.78  3.93
Si  5.70  7.72  0.75
Si -3.81 -2.26 -8.55
Si -0.01 -6.65  6.97
Si  3.83 -2.26 -8.55
Si -5.77 -3.32  6.99
Si -9.56  1.18  0.76
Si  1.87 -7.73 -5.49
Si -5.74  3.39  7.00
Si  7.64  2.18 -5.51
Si  3.82 -8.86  0.73
Si -7.65  2.18 -5.51
Si -3.83 -8.86  0.73
Si -7.64 -4.47  3.93
Si -5.77  5.51 -5.49
Si  7.66 -4.47  3.93
Si  5.73  5.59 -5.48
Si -5.74  7.80  0.76
Si -1.85 -9.84 -0.02
Si  1.98 -7.63  6.22
Si -1.91  3.27  9.32
Si  5.74  7.68  3.08
Si -5.74 -5.49 -6.20
Si -7.62  2.23  6.21
Si -7.62 -6.60 -0.03
Si  1.90 -9.90  0.04
Si -9.49  3.40 -0.02
Si -5.74  7.69  3.11
Si  1.90  3.27  9.35
Si -3.79 -0.01  9.35
Si  1.92 -3.35  9.32
Si -3.79  8.82 -3.13
Si -3.79 -8.84  3.11
Si  9.56  1.06  3.08
Si -7.62  6.64 -0.03
Si -7.62 -2.19 -6.28
Si  1.90  7.75 -6.20
Si -3.79 -0.01 -9.38
Si -9.56  1.07  3.11
Si -1.92 -3.35  9.35
Si -5.67  5.61  6.22
Si  9.55  3.34  0.04
Si -9.57 -3.28  0.04
Si  1.91  3.27 -9.38
Si  5.80 -5.43 -6.27
Si  3.86 -0.01  9.35
Si  7.67  2.23  6.21
Si  9.55 -1.14 -3.14
Si -1.92 -7.70  6.28
Si  7.67 -6.60 -0.03
Si -9.55 -1.15 -3.16
Si  3.86  8.82 -3.13
Si  3.86 -8.84  3.11
Si -1.91  3.27 -9.41
Si  3.86 -0.01 -9.38
Si -1.92 -3.35 -9.38
Si  5.73 -7.76 -3.14
Si -1.92  9.96  0.04
Si  7.67  6.64 -0.03
Si  9.62 -3.22 -0.02
Si  5.72  5.55  6.28
Si  7.67 -2.19 -6.28
Si -5.73 -7.77 -3.16
Si  1.92 -3.35 -9.41
Si -1.85  7.82 -6.27
Si  1.98 10.02 -0.02
Si  5.69  1.08 -8.52
Si -7.65 -4.34 -5.40
Si  7.65 -4.34 -5.40
Si  9.51  3.29 -2.27
Si -3.81  8.78  3.87
Si  1.87 -5.54 -8.52
Si  3.83  8.78  3.87
Si -7.63  6.57 -2.37
Si -1.96  9.91 -2.27
Si  0.01 -2.25 10.11
Si  7.66  6.57 -2.37
Si  1.91  9.92 -2.33
Si  9.51 -1.13  3.97
Si -5.74  1.09 -8.57
Si  3.82 -6.54  7.08
Si -3.82 -6.54  7.08
Si -1.91 -5.53 -8.57
Si -9.56  3.30 -2.33
Si  9.55 -3.32 -2.33
Si  1.87 -9.96 -2.27
Si -3.81  4.37 -8.62
Si -1.91 -9.94 -2.33
Si -9.56 -1.11  3.92
Si  3.83  4.37 -8.62
Si  1.91  1.09 10.16
Si -5.74 -7.73  3.92
Si  5.69 -7.75  3.97
Si -7.63 -6.67 -2.37
Si -9.60 -3.33 -2.27
Si -0.00  8.91 -5.40
Si  7.64  0.08  7.08
Si -7.65  0.08  7.08
Si  7.66 -6.67 -2.37
Si -1.96  1.08 10.21
Si  3.82  6.70  7.08
Si -3.83  6.70  7.08
Si  7.63 -4.41  6.25
Si  7.63  4.42 -6.24
Si -0.02 -8.82 -6.24
Si -0.02  8.84  6.25
Si -7.67 -4.41  6.25
Si -7.67  4.42 -6.24
Si  5.73 -7.65 -5.48
Si  9.55 -5.44  0.76
Si -0.01 11.01  0.73
Si  9.55 -1.03 -5.48
Si  3.82  8.80 -5.51
Si -3.83  8.80 -5.51
Si  0.01  4.36 10.18
Si -9.60 -5.53  0.75
Si -3.81 -2.26 10.18
Si -5.77 -7.73 -5.49
Si  3.83 -2.26 10.18
Si -9.60 -1.11 -5.49
Si -5.67 -7.63  6.22
Si -9.49 -1.01  6.22
Si  5.80 -9.84 -0.02
Si  5.74  3.27  9.32
Si -11.44  0.02 -0.03
Si -5.73 -3.35  9.32
Si -5.74 -9.90  0.04
Si -5.74  3.27  9.35
Si  0.04  6.62  9.35
Si -9.57  1.13 -6.20
Si -3.80  8.85  6.21
Si  0.04 11.03  3.11
Si -9.56  5.48 -3.14
Si -3.80 -8.81 -6.28
Si  0.04 -6.63  9.35
Si  5.73 -3.35  9.35
Si  9.56  5.47 -3.16
Si  5.72 -7.70  6.28
Si -9.55 -5.56  3.08
Si -5.75  7.75 -6.20
Si -5.74  3.27 -9.38
Si  0.04  6.62 -9.38
Si  3.85  8.85  6.21
Si  9.55 -5.55  3.11
Si  0.04 -11.04 -3.13
Si  9.55 -1.07  6.28
Si  3.85 -8.81 -6.28
Si  0.04 -6.63 -9.38
Si  5.72  9.96  0.04
Si  5.73 -3.35 -9.38
Si  5.74  3.27 -9.41
Si 11.49  0.02 -0.03
Si -5.73 -3.35 -9.41
Si -5.67 10.02 -0.02
Si  9.62  1.19 -6.27
Si  5.80  7.82 -6.27
Si  1.87  7.70 -8.52
Si  0.00  0.08 -11.64
Si  5.69  9.91 -2.27
Si -7.65 -8.75  0.84
Si  7.65 -8.75  0.84
Si -3.81  4.37 10.11
Si  3.83  4.37 10.11
Si -5.78 -5.54 -8.52
Si -1.92  7.72 -8.57
Si 11.47 -2.13  0.84
Si -11.47 -2.13  0.84
Si -5.74  9.92 -2.33
Si  5.73 -5.53 -8.57
Si -11.46 -0.05 -2.37
Si  9.55  5.51  3.92
Si  5.73 -9.94 -2.33
Si -5.74  1.09 10.16
Si -1.92 -5.53 10.16
Si 11.48 -0.05 -2.37
Si -7.63 -2.25 -8.62
Si -5.78 -9.96 -2.27
Si  0.01 -11.08  3.87
Si  5.69  1.08 10.21
Si  7.66 -2.25 -8.62
Si -9.60  5.50  3.97
Si  1.87 -5.54 10.21
Si  3.82 11.11  0.84
Si -3.83 11.11  0.84
Si  3.81  6.58 -9.32
Si  7.63  8.79 -3.08
Si -3.84  6.58 -9.32
Si  7.63 -0.04 -9.32
Si  3.80 10.99  3.16
Si 11.45  2.16 -3.08
Si -7.67  8.79 -3.08
Si -3.84 10.99  3.16
Si -7.66 -0.04 -9.32
Si  3.81 -6.67 -9.32
Si -11.49  2.16 -3.08
Si -3.84 -6.67 -9.32
Si  3.80  6.58  9.40
Si 11.45 -2.25  3.16
Si -3.84  6.58  9.40
Si  7.63 -0.04  9.40
Si  3.81 -11.08 -3.08
Si  7.63 -8.87  3.16
Si -3.84 -11.08 -3.08
Si -11.49 -2.25  3.16
Si -7.67 -0.04  9.40
Si  3.81 -6.67  9.40
Si -7.66 -8.87  3.16
Si -3.84 -6.67  9.40
Si -1.92 -12.06  0.76
Si  1.91 -9.86  7.00
Si  7.64  6.59  6.97
Si -7.64  4.36 -8.55
Si  9.52 -3.32  6.99
Si -7.65  6.59  6.97
Si  7.66  4.36 -8.55
Si -7.64  8.78  3.93
Si  1.87  9.93  6.99
Si -9.56 -3.23  7.00
Si  7.65  8.78  3.93
Si  9.52  5.51 -5.49
Si 11.46  4.38  0.73
Si  7.64 -6.65  6.97
Si -7.65 -6.65  6.97
Si -11.47  4.38  0.73
Si -11.46  2.15  3.93
Si -1.95 -9.94  6.99
Si  1.87 -12.15  0.75
Si -1.92 -3.23 -11.73
Si  9.55  3.39  7.00
Si 11.48  2.15  3.93
Si -9.60  3.30  6.99
Si  0.01 -8.88 -8.55
Si -9.60  7.72  0.75
Si  1.87 -3.32 -11.74
Si -1.95  3.30 -11.74
Si  1.91  3.39 -11.73
Si  9.55  7.80  0.76
Si  3.82 -0.03 -11.76
Si -3.83 -0.03 -11.76
Si -9.56  5.59 -5.48
Si -0.00 -11.07 -5.51
Si -1.92 10.01  7.00
Si -3.81 -11.09  3.93
Si  3.83 -11.09  3.93
Si -9.49 -5.43 -6.27
Si  1.90 -1.07 -12.45
Si -9.55  7.68  3.08
Si  9.55 -5.49 -6.20
Si -11.43  4.41  3.11
Si  0.03 -2.19 12.45
Si  0.03 -11.02  6.21
Si -1.91 12.10 -3.16
Si  1.90 12.10 -3.14
Si  9.55  7.69  3.11
Si -11.43 -4.42 -3.13
Si  1.98  1.19 12.46
Si -1.85 -1.01 -12.51
Si 11.51  4.41  3.11
Si -9.56 -7.76 -3.14
Si -1.92 -12.18  3.11
Si  1.92 -12.18  3.08
Si  0.03 11.06 -6.28
Si  0.03  2.23 -12.52
Si 11.51 -4.42 -3.13
Si -9.57  5.55  6.28
Si  9.56 -7.77 -3.16
Si -1.92  1.13 12.53
Si  9.62  5.61  6.22
Si -3.82 -10.96 -5.40
Si  3.82 -10.96 -5.40
Si -5.78  7.70 -8.52
Si -7.63 -2.25 10.11
Si  5.73  7.72 -8.57
Si -9.60  1.08 -8.52
Si 11.47  2.28 -5.40
Si  9.55  1.09 -8.57
Si -11.47  2.28 -5.40
Si  7.66 -2.25 10.11
Si  1.86 12.12  3.97
Si -11.46 -4.46  3.87
Si -1.92 12.13  3.92
Si -1.92  7.72 10.16
Si  9.55 -7.73  3.92
Si  5.73 -5.53 10.16
Si 11.48 -4.46  3.87
Si  7.64  8.91 -5.40
Si -7.65  8.91 -5.40
Si  1.86  7.70 10.21
Si -3.81 -8.88 -8.62
Si  3.84 -8.88 -8.62
Si -9.60 -7.75  3.97
Si -5.78 -5.54 10.21
Si 11.45 -6.62  0.00
Si 11.45 -2.20 -6.24
Si  7.63 -8.82 -6.24
Si 11.45  2.21  6.25
Si 11.45  6.63  0.00
Si  3.80 -11.03  6.25
Si  7.62  8.84  6.25
Si  3.80  2.21 -12.48
Si -0.02 -13.24  0.00
Si -0.02 -4.41 -12.48
Si  3.80 -2.20 12.49
Si  3.80 11.04 -6.24
Si -3.84 -11.03  6.25
Si -3.84  2.21 -12.48
Si -0.02  4.42 12.49
Si -0.02 13.25  0.00
Si -7.67 -8.82 -6.24
Si -3.84 -2.20 12.49
Si -3.84 11.04 -6.24
Si -11.49 -6.62  0.00
Si -11.49 -2.20 -6.24
Si -7.67  8.84  6.25
Si -11.49  2.21  6.25
Si -11.49  6.63  0.00
Si  5.73 -12.06  0.76
Si -5.74 -9.86  7.00
Si  0.01 13.19 -2.31
Si -0.01  2.18 13.22
Si -11.46  6.57 -2.31
Si  7.64 11.01  0.73
Si -9.56 -7.65 -5.48
Si 11.46 -0.03  6.97
Si  1.90 -1.03 13.25
Si  5.70 -9.94  6.99
Si -7.65 11.01  0.73
