500
set: 1618.00  0.00  0.00
Si -0.30 -0.39  0.66
Si  0.29  1.38 -1.01
Si -0.83  1.51  1.72
Si -1.64 -2.18  0.12
Si  0.99 -2.25  1.45
Si -2.08  1.17 -1.68
Si -1.54 -0.73 -2.74
Si -0.26 -2.59 -1.95
Si  1.53  1.72  2.39
Si -2.29  2.67  0.13
Si  2.89  1.17 -1.68
Si  2.67  2.67  0.13
Si  0.58  3.73 -0.78
Si  3.33 -2.18  0.12
Si -0.39 -1.84  3.51
Si  0.95 -0.05  4.05
Si  1.43  2.32 -3.27
Si -0.52 -4.13  1.13
Si  3.42 -0.73 -2.74
Si -3.43  1.72  2.39
Si -0.80  4.36  1.13
Si -0.96  1.03 -4.41
Si  2.08 -2.52 -3.28
Si  4.14  1.51  1.72
Si  4.67 -0.39  0.66
Si -1.04  3.01  3.52
Si -3.97 -2.25  1.45
Si  0.85 -4.75 -0.78
Si -4.68  1.38 -1.01
Si -2.88 -2.52 -3.28
Si -2.04  4.01 -2.27
Si  1.82  4.07  2.62
Si -1.77 -4.47 -2.27
Si -5.26 -0.39  0.66
Si -3.54  2.32 -3.27
Si  1.64  0.83 -5.08
Si -0.67  3.39 -4.18
Si  0.42  1.86  5.12
Si  2.92  4.01 -2.27
Si  5.25  1.38 -1.01
Si  2.10 -4.41  2.62
Si  2.24 -1.91  4.85
Si -4.01 -0.05  4.05
Si  4.71 -2.59 -1.95
Si -3.14  4.07  2.62
Si -4.39  3.73 -0.78
Si -2.87 -4.41  2.62
Si -2.73 -1.91  4.85
Si  0.73 -3.78  4.52
Si  3.20 -4.47 -2.27
Si  4.00  1.03 -4.41
Si  4.58 -1.84  3.51
Si  3.92  3.01  3.52
Si -3.32  0.83 -5.08
Si  4.17  4.36  1.13
Si -5.22 -2.59 -1.95
Si -2.02 -5.82  0.13
Si  4.44 -4.13  1.13
Si -5.79  1.51  1.72
Si -0.53  5.89 -1.95
Si -1.50 -2.93 -5.35
Si -4.12 -4.75 -0.78
Si  0.72  6.24  1.45
Si -2.18  2.06  5.78
Si  2.95 -5.82  0.13
Si  5.96 -2.25  1.45
Si  0.45  4.70  4.52
Si -0.77 -5.48  3.52
Si -1.91  6.31  0.12
Si  2.17 -1.08 -6.14
Si -0.40 -5.10 -4.18
Si -5.35 -1.84  3.51
Si  5.54  3.73 -0.78
Si  2.78  2.06  5.78
Si -2.79 -1.08 -6.14
Si  4.29  3.39 -4.18
Si -6.60 -2.18  0.12
Si -5.49 -4.13  1.13
Si  0.18  1.98 -6.67
Si  1.67  3.67 -5.67
Si  3.06  6.31  0.12
Si  3.46 -2.93 -5.35
Si  1.81  5.96 -3.28
Si -4.54  1.86  5.12
Si -6.51 -0.73 -2.74
Si  0.86 -1.49  6.91
Si  6.50  1.72  2.39
Si  5.92 -0.05  4.05
Si  1.70 -6.16 -3.27
Si -0.55 -6.97  1.72
Si  0.56 -7.11 -1.01
Si -4.24 -3.78  4.52
Si -5.76  4.36  1.13
Si  0.83 -2.86 -6.68
Si -7.04  1.17 -1.68
Si  1.81 -6.76  2.39
Si -1.62 -4.07  6.01
Si -5.93  1.03 -4.41
Si -3.16  5.96 -3.28
Si -3.29  3.67 -5.67
Si  6.39  2.32 -3.27
Si -0.66  6.65  3.51
Si  5.82 -4.75 -0.78
Si -6.01  3.01  3.52
Si  4.43  5.89 -1.95
Si  5.39  1.86  5.12
Si -4.25  6.24  1.45
Si  1.95 -4.81 -5.67
Si  0.20  3.35  6.92
Si -1.89  4.41  6.01
Si -3.27 -6.16 -3.27
Si -1.80 -7.31 -1.68
Si -7.26  2.67  0.13
Si  4.20 -5.48  3.52
Si  2.20  0.29  7.45
Si -5.64  3.39 -4.18
Si -3.16 -6.76  2.39
Si -1.78  5.55 -5.35
Si -4.51  4.70  4.52
Si -2.77  0.29  7.45
Si  3.35 -4.07  6.01
Si  4.57 -5.10 -4.18
Si -3.02 -4.81 -5.67
Si  3.07  4.41  6.01
Si  7.64  2.67  0.13
Si  7.86  1.17 -1.68
Si -0.57  8.09  0.66
Si  3.17 -7.31 -1.68
Si -2.21  0.69 -7.81
Si  7.05 -2.52 -3.28
Si -4.11 -1.49  6.91
Si  5.69 -3.78  4.52
Si -5.50  5.89 -1.95
Si  2.75  0.69 -7.81
Si  6.79  4.07  2.62
Si  3.19  5.55 -5.35
Si -4.13 -2.86 -6.68
Si  6.61  0.83 -5.08
Si -1.92  3.04 -7.58
Si -7.01  4.01 -2.27
Si -6.73 -4.47 -2.27
Si  0.69 -6.63  5.12
Si  1.97  6.58  4.85
Si -1.82  7.75 -2.74
Si -4.41 -7.11 -1.01
Si  4.41 -6.97  1.72
Si -4.79  1.98 -6.67
Si  5.42  4.70  4.52
Si -5.36 -5.10 -4.18
Si  0.40  0.49 -8.48
Si -1.48 -1.56  8.24
Si  5.68  6.24  1.45
Si  8.29 -2.18  0.12
Si  0.48 -5.13  6.92
Si  5.14  1.98 -6.67
Si  4.30  6.65  3.51
Si -5.74 -5.48  3.52
Si -0.69 -7.45 -4.41
Si -3.00  6.58  4.85
Si  3.04  3.04 -7.58
Si  7.06 -4.41  2.62
Si  0.56  5.62 -6.68
Si  3.15  7.75 -2.74
Si -1.91 -6.42  5.78
Si  8.39 -0.73 -2.74
Si  1.98 -3.44  7.92
Si -7.85 -2.52 -3.28
Si -6.47 -2.93 -5.35
Si  7.21 -1.91  4.85
Si -8.40  1.72  2.39
Si -0.02 -8.88  0.66
Si  1.67  2.20  8.51
Si -4.76  3.35  6.92
Si -5.52 -6.97  1.72
Si  5.53 -7.11 -1.01
Si  3.49 -1.56  8.24
Si -6.98 -5.82  0.13
Si  7.89  4.01 -2.27
Si -2.99 -3.44  7.92
Si  5.83 -1.49  6.91
Si  3.06 -6.42  5.78
Si  4.39  8.09  0.66
Si  5.17  3.35  6.92
Si -7.69 -1.91  4.85
Si  5.80 -2.86 -6.68
Si  0.45 -6.50 -6.67
Si -6.88  6.31  0.12
Si -8.94 -2.25  1.45
Si -7.83 -4.41  2.62
Si  1.92 -7.66 -5.08
Si  0.68  8.44  4.05
Si  9.10  1.51  1.72
Si -3.30  2.20  8.51
Si -5.63  6.65  3.51
Si -4.27 -6.63  5.12
Si -8.51  2.32 -3.27
Si -7.15  2.06  5.78
Si -8.11  4.07  2.62
Si  6.64  3.67 -5.67
Si -1.65 -5.44 -7.58
Si  7.14 -1.08 -6.14
Si  1.23 -8.53  4.05
Si -0.94  2.40  9.18
Si  1.70  5.04  7.92
Si  8.16 -4.47 -2.27
Si  2.21 -3.27 -8.74
Si  6.77  5.96 -3.28
Si -4.57  0.49 -8.48
Si  6.67 -6.16 -3.27
Si  4.28 -7.45 -4.41
Si  9.63 -0.39  0.66
Si  0.43  3.33 -9.07
Si -3.05 -7.66 -5.08
Si  0.93 -1.42 -9.54
Si -1.27 -9.22 -2.74
Si -4.49 -5.13  6.92
Si -2.75 -3.27 -8.74
Si -8.29  0.83 -5.08
Si -4.41  5.62 -6.68
Si -9.64  1.38 -1.01
Si -6.58 -4.07  6.01
Si  1.90  7.41 -6.14
Si  7.91 -5.82  0.13
Si -5.54  8.09  0.66
Si  0.59  6.99  6.91
Si -8.98 -0.05  4.05
Si  6.77 -6.76  2.39
Si  7.75  2.06  5.78
Si  3.32 -5.44 -7.58
Si  0.01  9.86 -1.01
Si -3.27  5.04  7.92
Si -7.76 -1.08 -6.14
Si  8.89  3.01  3.52
Si  5.36  0.49 -8.48
Si  8.97  1.03 -4.41
Si -2.35  9.65 -1.68
Si -3.07  7.41 -6.14
Si -9.35  3.73 -0.78
Si -6.77 -7.31 -1.68
Si  5.66 -6.63  5.12
Si -0.37 -3.73  9.41
Si -6.86  4.41  6.01
Si  2.62  9.65 -1.68
Si  6.91 -4.81 -5.67
Si -3.74 -8.53  4.05
Si  4.94 -8.88  0.66
Si  9.13  4.36  1.13
Si  5.44 -5.13  6.92
Si -4.99 -8.88  0.66
Si  8.02  6.31  0.12
Si  9.68 -2.59 -1.95
Si -1.10 10.00  1.72
Si -6.74  5.55 -5.35
Si -1.07  1.64 -10.07
Si -10.23 -0.39  0.66
Si -9.08 -4.75 -0.78
Si -4.29  8.44  4.05
Si  3.70 -9.22 -2.74
Si  4.03  2.40  9.18
Si  5.53  5.62 -6.68
Si  9.54 -1.84  3.51
Si  9.41 -4.13  1.13
Si -5.65 -7.45 -4.41
Si  7.17  0.29  7.45
Si -4.51 -6.50 -6.67
Si 10.22  1.38 -1.01
Si  1.94  5.21 -8.74
Si  8.43 -2.93 -5.35
Si  0.70 -5.15 -9.07
Si -4.04 -1.42 -9.54
Si  1.26 10.20  2.39
Si -1.24  9.52 -4.41
Si -0.65  4.76  9.41
Si -6.44 -1.56  8.24
Si -0.41 -3.21 -10.08
Si  2.11 -1.15 10.31
Si -8.12  5.96 -3.28
Si -3.02  5.21 -8.74
Si -7.17  0.69 -7.81
Si -6.78  7.75 -2.74
Si -8.26  3.67 -5.67
Si -4.54  3.33 -9.07
Si -6.88  3.04 -7.58
Si -10.19 -2.59 -1.95
Si  1.37  9.31 -5.08
Si  9.26  3.39 -4.18
Si  6.93  6.58  4.85
Si -7.73  0.29  7.45
Si -1.36 -10.66  0.12
Si  1.94 -6.29  8.51
Si -2.86 -1.15 10.31
Si -4.38  6.99  6.91
Si  5.42 -6.50 -6.67
Si -8.23 -6.16 -3.27
Si -8.12 -6.76  2.39
Si  3.86 10.00  1.72
Si -0.11 -10.32  3.51
Si  1.27 -10.73  1.45
Si -1.75  6.92  8.24
Si -7.98 -4.81 -5.67
Si  3.90  1.64 -10.07
Si  5.64  8.44  4.05
Si -9.20 -3.78  4.52
Si -9.51  1.86  5.12
Si  8.04  4.41  6.01
Si -1.52  0.64 10.85
Si -10.76  1.51  1.72
Si  7.72  0.69 -7.81
Si -3.02 -6.29  8.51
Si  6.63  2.20  8.51
Si -0.66 -6.08  9.18
Si  8.31 -4.07  6.01
Si -6.88 -6.42  5.78
Si -10.32 -1.84  3.51
Si  1.45  3.69 10.32
Si  5.39  3.33 -9.07
Si  8.13 -7.31 -1.68
Si  6.94 -3.44  7.92
Si -4.95  9.86 -1.01
Si  4.98  9.86 -1.01
Si -3.71 10.20  2.39
Si  4.59 -3.73  9.41
Si  3.73  9.52 -4.41
Si 10.51  3.73 -0.78
Si -5.90  2.40  9.18
Si -1.94 -7.79 -7.81
Si -3.60  9.31 -5.08
Si -9.21  6.24  1.45
Si  8.15  5.55 -5.35
Si  3.21  6.92  8.24
Si  9.16 -5.48  3.52
Si  0.02 -11.07 -1.95
Si 10.92 -2.25  1.45
Si  3.60 -10.66  0.12
Si  9.40  5.89 -1.95
Si -4.26 -5.15 -9.07
Si  5.55  6.99  6.91
Si -10.45 -4.13  1.13
Si  6.19 -8.53  4.05
Si  5.89 -1.42 -9.54
Si  1.51  0.35 -11.21
Si  2.47 -8.19  7.45
Si -2.49 -8.19  7.45
Si  1.15 10.81 -3.27
Si  4.32  4.76  9.41
Si -0.69  5.28 -10.08
Si  3.45  0.64 10.85
Si  2.40 11.15  0.13
Si -7.96  6.58  4.85
Si -6.61 -5.44 -7.58
Si  3.03 -7.79 -7.81
Si  8.01  3.04 -7.58
Si -2.57 11.15  0.13
Si -5.34 -3.73  9.41
Si -3.70 -10.73  1.45
Si  1.80  2.70 -10.98
Si -6.24 -9.22 -2.74
Si  6.88 -7.66 -5.08
Si -9.07 -1.49  6.91
Si -9.48  4.70  4.52
Si  1.73 -4.79 10.32
Si -3.51  3.69 10.32
Si  4.55 -3.21 -10.08
Si  6.67  5.04  7.92
Si  0.15 10.34  5.12
Si  8.11  7.75 -2.74
Si  9.53 -5.10 -4.18
Si 10.88 -0.05  4.05
Si  2.45 -9.56 -6.14
Si -10.73  4.36  1.13
Si -2.52 -9.56 -6.14
Si -9.10 -2.86 -6.68
Si  0.67 -8.00 -8.48
Si  1.93  8.78  7.45
Si 10.35  1.86  5.12
Si -0.23 -1.22 11.64
Si  2.36 -11.00 -3.28
Si -2.45 -10.39  4.85
Si -3.46  0.35 -11.21
Si  2.52 -10.39  4.85
Si -3.17  2.70 -10.98
Si -7.96 -3.44  7.92
Si -11.57 -2.18  0.12
Si -2.61 -11.00 -3.28
Si  7.18 -3.27 -8.74
Si  8.02 -6.42  5.78
Si -10.89  1.03 -4.41
Si -9.37 -7.11 -1.01
Si 10.78 -4.75 -0.78
Si  9.38 -6.97  1.72
Si  6.86  7.41 -6.14
Si -11.47 -0.73 -2.74
Si -6.07 10.00  1.72
Si  4.30 -6.08  9.18
Si -3.24 -4.79 10.32
Si 11.46  1.72  2.39
Si -6.04  1.64 -10.07
Si -5.38 -3.21 -10.08
Si -1.74 -3.10 11.32
Si  5.67 -5.15 -9.07
Si  0.65  7.07 -9.54
Si -10.60  3.39 -4.18
Si -0.85  0.14 -11.87
Si -3.04  8.78  7.45
Si  8.45 -1.56  8.24
Si -10.97  3.01  3.52
Si -3.81 10.81 -3.27
Si  4.85 -10.32  3.51
Si  9.27  6.65  3.51
Si -5.61  4.76  9.41
Si -9.75  1.98 -6.67
Si -5.08 -10.32  3.51
Si 11.36  2.32 -3.27
Si -8.26  2.20  8.51
Si -1.32 11.49  3.52
Si -7.72 -3.27 -8.74
Si  4.28  5.28 -10.08
Si -10.46  5.89 -1.95
Si  3.22 -3.10 11.32
Si -12.01  1.17 -1.68
Si 10.66 -3.78  4.52
Si -6.20  9.52 -4.41
Si  6.22 10.20  2.39
Si -8.01 -7.66 -5.08
Si  1.14 -9.98  6.91
Si -0.80 -6.84 -10.07
Si -7.31  9.65 -1.68
Si  0.30 12.21 -0.78
Si -10.33 -5.10 -4.18
Si 10.38  4.70  4.52
Si 10.11  1.98 -6.67
Si -2.46 10.54  5.78
Si -4.95 -11.07 -1.95
Si  2.51 10.54  5.78
Si  4.98 -11.07 -1.95
Si  6.91  5.21 -8.74
Si  2.48  9.18 -7.81
Si -2.48  9.18 -7.81
Si  0.12  8.97 -8.48
Si -2.05  2.54 11.91
Si  6.33  9.31 -5.08
Si -5.63 -6.08  9.18
Si  7.58  9.65 -1.68
Si  9.36  8.09  0.66
Si -6.33 -10.66  0.12
Si -9.73  3.35  6.92
Si -0.10 10.46 -6.67
Si -4.30 -8.00 -8.48
Si 10.65  6.24  1.45
Si -9.23 -6.63  5.12
Si  8.29 -5.44 -7.58
Si -8.23  5.04  7.92
Si  6.23 -10.73  1.45
Si -4.82 10.34  5.12
Si -12.22  2.67  0.13
Si  2.92  2.54 11.91
Si -10.70 -5.48  3.52
Si -8.03  7.41 -6.14
Si  7.07 -1.15 10.31
Si  3.65 11.49  3.52
Si  4.11  0.14 -11.87
Si  2.07 -5.78 -10.98
Si  5.11 10.34  5.12
Si -0.95 11.87 -4.18
Si  4.74 -1.22 11.64
Si -4.31  7.07 -9.54
Si  6.91 -6.29  8.51
Si -6.48  0.64 10.85
Si -0.25 -12.61  1.13
Si  9.24 -7.45 -4.41
Si 11.57  0.83 -5.08
Si -1.23 -11.42 -5.35
Si -6.72  6.92  8.24
Si -2.02  5.38 11.32
Si  6.42  3.69 10.32
Si -5.65  5.28 -10.08
Si 12.01 -2.52 -3.28
Si -10.48 -6.97  1.72
Si  0.97 -3.62 -12.14
Si 11.75  4.07  2.62
Si 10.49 -7.11 -1.01
Si 10.13  3.35  6.92
Si -3.83 -9.98  6.91
Si -11.70 -4.47 -2.27
Si -2.89 -5.78 -10.98
Si -9.54  0.49 -8.48
Si  1.83  7.33 10.31
Si -9.45 -5.13  6.92
Si -5.19 -1.22 11.64
Si -9.37  5.62 -6.68
Si -11.97  4.01 -2.27
Si  6.12 10.81 -3.27
Si -0.82  2.99 -12.46
Si -8.70 -8.53  4.05
Si  4.17 -6.84 -10.07
Si  2.95  5.38 11.32
Si  0.31  2.75 12.58
Si 12.60  2.67  0.13
Si 10.79 -1.49  6.91
Si -2.32 12.50 -2.27
