500
set: 1236.00  0.00  0.00
Si  0.59 -0.88 -0.28
Si  0.21  0.87  1.49
Si -1.67 -1.45 -1.17
Si  1.90  0.40 -1.68
Si -2.42  1.27  1.37
Si  1.36 -2.62  0.92
Si  1.05  2.98  0.50
Si -3.24  0.33 -0.73
Si -0.87  2.10 -2.50
Si  1.62  0.44  3.33
Si  1.21  2.93 -2.20
Si -1.38 -1.37 -3.42
Si  1.24 -1.98  3.22
Si  3.83  1.25 -1.00
Si  3.16  2.62  1.16
Si -2.54 -3.46 -0.27
Si -3.09  2.63 -1.46
Si -0.23 -4.45  0.12
Si -1.07  0.62 -4.34
Si  2.29 -0.45 -3.90
Si -2.25  3.42  2.12
Si -3.35  0.06  3.19
Si -0.40  4.60  1.52
Si -2.75 -2.03  3.64
Si  3.64 -3.43  0.58
Si -0.53 -3.03  4.00
Si  3.95  1.41  3.11
Si -3.77 -3.25  1.88
Si  1.96 -2.85 -4.21
Si -5.46 -0.42 -0.96
Si  1.16  0.90 -5.48
Si -0.32 -3.16 -4.76
Si  5.65 -0.42 -0.96
Si  1.38  3.10 -4.65
Si -3.69  4.41  0.42
Si  1.16  0.90  5.63
Si  5.49 -1.85  0.80
Si  0.67 -5.50 -2.06
Si -3.67 -2.43 -3.94
Si  4.43  3.54 -1.75
Si -5.62 -1.85  0.80
Si  5.32 -0.42  2.75
Si  0.67  5.61 -2.06
Si  2.70 -4.56 -2.91
Si -2.89  0.92  5.25
Si -2.37  3.27  4.70
Si  2.79 -3.11  4.70
Si -0.86 -5.20 -3.59
Si  4.91  4.08  0.45
Si  5.43 -1.90 -2.81
Si -3.90 -4.96 -1.13
Si -5.78 -0.42  2.75
Si -4.78  2.89 -3.27
Si -3.18 -4.60 -3.29
Si  5.02 -3.80 -1.68
Si  0.34  5.45  3.58
Si -2.89  0.92 -5.86
Si -5.67 -1.90 -2.81
Si  4.56 -0.95 -4.73
Si -0.23  6.65  0.12
Si -0.40 -6.51  1.52
Si  0.34 -5.66  3.58
Si  4.62 -2.13  4.42
Si -1.07  0.62  6.77
Si -0.58  4.35 -5.38
Si -0.86  5.91 -3.59
Si  4.23 -5.19  1.95
Si -0.32 -3.16  6.35
Si -5.23  1.12 -4.79
Si -0.58  4.35  5.73
Si  1.38  3.10  6.46
Si  2.80 -5.46  3.98
Si  4.91  2.59  4.78
Si -4.37 -3.17  4.98
Si -6.08 -3.80 -1.68
Si -3.90  6.15 -1.13
Si -4.62 -5.12  2.78
Si -6.20  4.08  0.45
Si -7.27  1.25 -1.00
Si  2.80  5.64  3.98
Si  4.23  5.91  1.95
Si -2.37  3.27 -6.41
Si  2.29 -0.45  7.21
Si  3.32  4.10 -5.48
Si  2.79 -3.11 -6.41
Si  2.70  6.55 -2.91
Si -3.69 -6.70  0.42
Si -4.42  4.28  4.56
Si  5.88  1.12 -4.79
Si  6.32  2.89 -3.27
Si  3.32  4.10  5.62
Si  1.96 -2.85  6.90
Si -0.53 -3.03 -7.10
Si  4.47  5.14 -3.69
Si -6.67  3.54 -1.75
Si  4.56 -0.95  6.38
Si  7.87  0.33 -0.73
Si -7.16  1.41  3.11
Si -1.38 -1.37  7.69
Si  1.62  0.44 -7.77
Si -3.18  6.51 -3.29
Si -4.45  4.94 -4.46
Si -4.62  5.99  2.78
Si -2.54  7.65 -0.27
Si -6.48 -2.13  4.42
Si -6.55 -0.95 -4.73
Si -4.37 -3.17 -6.12
Si -2.75 -2.03 -7.46
Si  1.05 -8.13  0.50
Si  1.24 -1.98 -7.88
Si -7.47 -3.43  0.58
Si  7.33 -3.25  1.88
Si -6.19  2.59  4.78
Si -5.23  1.12  6.32
Si -2.25 -7.68  2.12
Si  4.47 -5.97 -3.69
Si  7.76  0.06  3.19
Si -3.67 -2.43  7.16
Si  4.62 -2.13 -6.69
Si  4.91  2.59 -6.33
Si -7.94  2.62  1.16
Si  3.64  7.67  0.58
Si  1.21 -8.18 -2.20
Si  8.02  2.63 -1.46
Si  4.91 -7.03  0.45
Si -3.35  0.06 -7.92
Si  7.42  4.41  0.42
Si  1.36  8.49  0.92
Si -0.58 -6.75 -5.38
Si  5.88  1.12  6.32
Si  6.49 -5.12  2.78
Si  7.44 -2.43 -3.94
Si -4.45 -6.17 -4.46
Si  7.21 -4.96 -1.13
Si -6.88 -5.19  1.95
Si -0.58 -6.75  5.73
Si  8.68  1.27  1.37
Si -0.87  2.10  8.61
Si -3.77  7.86  1.88
Si  4.43 -7.57 -1.75
Si  6.74 -3.17  4.98
Si -4.42  4.28 -6.54
Si  5.02  7.30 -1.68
Si  3.95  1.41 -8.00
Si -0.53  8.08  4.00
Si  3.16 -8.48  1.16
Si -3.09 -8.47 -1.46
Si  6.69  4.28  4.56
Si -6.63  5.14 -3.69
Si -0.86 -5.20  7.52
Si -6.55 -0.95  6.38
Si -6.19  2.59 -6.33
Si  8.56 -3.46 -0.27
Si  6.49  5.99  2.78
Si -0.32  7.95 -4.76
Si -6.88  5.91  1.95
Si  0.34  5.45 -7.53
Si -4.42 -6.83  4.56
Si  8.36 -2.03  3.64
Si  1.38 -8.01 -4.65
Si -9.21  0.40 -1.68
Si -6.20 -7.03  0.45
Si -0.87 -9.01 -2.50
Si -4.45  4.94  6.64
Si  2.80 -5.46 -7.13
Si  6.66  4.94 -4.46
Si  0.34 -5.66 -7.53
Si -2.37 -7.83  4.70
Si  1.21  2.93  8.91
Si  1.96  8.25 -4.21
Si  3.32 -7.01 -5.48
Si  2.80  5.64 -7.13
Si  7.21  6.15 -1.13
Si -6.48 -2.13 -6.69
Si  3.32 -7.01  5.62
Si -0.86  5.91  7.52
Si -3.18 -4.60  7.82
Si  9.44 -1.45 -1.17
Si  1.90  0.40  9.43
Si -4.78  2.89  7.83
Si  6.74 -3.17 -6.12
Si -8.82 -0.45 -3.90
Si -6.08  7.30 -1.68
Si -6.63 -5.97 -3.69
Si  0.21  0.87 -9.62
Si  2.79  8.00  4.70
Si  8.86  3.42  2.12
Si  7.92 -4.60 -3.29
Si  2.70 -4.56  8.19
Si  1.24  9.13  3.22
Si  8.21  0.92  5.25
Si -1.67  9.66 -1.17
Si -2.25  3.42 -8.99
Si  5.32 -0.42 -8.35
Si -8.41 -4.56 -2.91
Si  7.42 -6.70  0.42
Si -8.31 -3.11  4.70
Si -4.78 -8.21 -3.27
Si -9.49  0.44  3.33
Si  4.47  5.14  7.41
Si -4.45 -6.17  6.64
Si  5.43 -1.90  8.30
Si -2.42  1.27 -9.73
Si  6.66 -6.17 -4.46
Si  8.21  0.92 -5.86
Si -9.75 -2.62  0.92
Si -2.75  9.07  3.64
Si -5.78 -0.42 -8.35
Si -0.32  7.95  6.35
Si -1.67 -1.45  9.94
Si -3.67  8.67 -3.94
Si -2.42 -9.84  1.37
Si -5.67 -1.90  8.30
Si -6.67 -7.57 -1.75
Si  0.59 10.23 -0.28
Si  6.69  4.28 -6.54
Si -4.37  7.93  4.98
Si  0.21 -10.24  1.49
Si -7.79  4.10 -5.48
Si  1.38 -8.01  6.46
Si -2.37 -7.83 -6.41
Si  9.73 -1.37 -3.42
Si -1.38  9.73 -3.42
Si -4.42 -6.83 -6.54
Si -7.79  4.10  5.62
Si  8.74  3.27  4.70
Si -9.15 -2.85 -4.21
Si -3.09  2.63  9.65
Si  6.32  2.89  7.83
Si -3.77 -3.25 -9.23
Si -10.06  2.98  0.50
Si  4.47 -5.97  7.41
Si -9.89  2.93 -2.20
Si -10.52 -0.88 -0.28
Si -9.87 -1.98  3.22
Si  6.69 -6.83  4.56
Si  1.36 -2.62 -10.19
Si  7.44 -2.43  7.16
Si  0.67 -5.50  9.05
Si  2.79  8.00 -6.41
Si  6.66  4.94  6.64
Si  3.83 -9.86 -1.00
Si -0.40  4.60 -9.58
Si -3.18  6.51  7.82
Si  0.67  5.61  9.05
Si -8.30 -5.46  3.98
Si -7.47  7.67  0.58
Si 10.23  2.10 -2.50
Si  3.16  2.62 -9.94
Si  7.92  6.51 -3.29
Si -0.53  8.08 -7.10
Si  5.49  9.26  0.80
Si -8.30  5.64  3.98
Si -4.62 -5.12 -8.33
Si -7.16  1.41 -8.00
Si  2.70  6.55  8.19
Si -5.62  9.26  0.80
Si  6.32 -8.21 -3.27
Si -3.24  0.33 10.38
Si  0.59 -0.88 10.82
Si  3.83  1.25 10.11
Si  7.33  7.86  1.88
Si  3.95 -9.70  3.11
Si  4.91 -8.51  4.78
Si -4.37  7.93 -6.12
Si  1.96  8.25  6.90
Si  4.43  3.54  9.36
Si -8.31 -3.11 -6.41
Si 10.03  0.62 -4.34
Si  1.90 -10.70 -1.68
Si  4.62  8.97  4.42
Si -10.90  0.87  1.49
Si -8.41  6.55 -2.91
Si  5.43  9.20 -2.81
Si  1.05  2.98 -10.61
Si  7.76  0.06 -7.92
Si -5.67  9.20 -2.81
Si -6.63  5.14  7.41
Si -9.72  3.10 -4.65
Si  6.66 -6.17  6.64
Si -4.62  5.99 -8.33
Si -3.24 -10.78 -0.73
Si  1.62 -10.66  3.33
Si  8.74  3.27 -6.41
Si  5.02 -3.80  9.43
Si  4.23 -5.19 -9.16
Si -9.94  0.90 -5.48
Si  8.36 -2.03 -7.46
Si -1.07 -10.48 -4.34
Si -8.82 -0.45  7.21
Si  0.59 -0.88 -11.39
Si 11.31  0.87  1.49
Si -9.94  0.90  5.63
Si  8.56  7.65 -0.27
Si -5.46 -0.42 10.15
Si  6.74  7.93  4.98
Si -6.19 -8.51  4.78
Si  2.29 10.65 -3.90
Si  6.69 -6.83 -6.54
Si -0.40 -6.51 -9.58
Si -6.63 -5.97  7.41
Si  5.65 -0.42 10.15
Si  1.16 -10.21 -5.48
Si  3.64 -3.43 -10.52
Si -2.54 -3.46 10.84
Si -7.94 -8.48  1.16
Si  4.91 -8.51 -6.33
Si  4.23  5.91 -9.16
Si 10.57 -3.03  4.00
Si  1.16 -10.21  5.63
Si  6.49 -5.12 -8.33
Si 11.70 -0.88 -0.28
Si 10.87 -4.45  0.12
Si 10.71  4.60  1.52
Si  8.02 -8.47 -1.46
Si  1.90 11.51 -1.68
Si -3.90 -4.96  9.98
Si -9.15 -2.85  6.90
Si -2.89 -10.18  5.25
Si  5.49 -1.85 -10.30
Si -7.79 -7.01 -5.48
Si -3.67  8.67  7.16
Si -6.08 -3.80  9.43
Si -0.23 -4.45 -10.99
Si -5.62 -1.85 -10.30
Si -7.79 -7.01  5.62
Si -3.24 11.43 -0.73
Si -6.48  8.97  4.42
Si  8.86 -7.68  2.12
Si -3.35 -11.04  3.19
Si -10.43 -5.50 -2.06
Si  0.59 -11.98 -0.28
Si -10.43  5.61 -2.06
Si  1.05  2.98 11.60
Si -6.67  3.54  9.36
Si -5.46 10.68 -0.96
Si -2.25 -7.68 -8.99
Si 10.25 -5.20 -3.59
Si  7.92 -4.60  7.82
Si  0.21 11.97  1.49
Si -2.75  9.07 -7.46
Si -9.72  3.10  6.46
Si  6.74  7.93 -6.12
Si -0.23 -4.45 11.22
Si  7.44  8.67 -3.94
Si -3.35 11.17  3.19
Si  4.56 10.15 -4.73
Si -2.89 -10.18 -5.86
Si  4.62  8.97 -6.69
Si 10.03  0.62  6.77
Si  5.65 10.68 -0.96
Si  1.24  9.13 -7.88
Si  1.62 11.55  3.33
Si -3.69  4.41 -10.69
Si  6.49  5.99 -8.33
Si  1.21 -8.18  8.91
Si -2.54 -3.46 -11.37
Si -11.34 -4.45  0.12
Si 10.79 -3.16 -4.76
Si  7.33 -3.25 -9.23
Si -8.30 -5.46 -7.13
Si -5.23 -9.99 -4.79
Si  5.32 10.69  2.75
Si -3.24  0.33 -11.83
Si -9.49  0.44 -7.77
Si -6.19 -8.51 -6.33
Si -7.27 -9.86 -1.00
Si -8.30  5.64 -7.13
Si -4.78 -8.21  7.83
Si -3.90  6.15  9.98
Si 10.25  5.91 -3.59
Si  1.36 -2.62 12.03
Si  2.29 -11.56 -3.90
Si -11.98  2.10 -2.50
Si  4.91  4.08 -10.66
Si -7.16 -9.70  3.11
Si -8.31  8.00  4.70
Si -5.78 10.69  2.75
Si -1.67 -1.45 -12.27
Si  9.73 -1.37  7.69
Si -1.38  9.73  7.69
Si -11.50  4.60  1.52
Si -0.87 -9.01  8.61
Si -7.27  1.25 10.11
Si 12.15  2.98  0.50
Si -1.07 -10.48  6.77
Si  5.88 -9.99 -4.79
Si -1.07 11.73 -4.34
Si -6.88 -5.19 -9.16
Si -10.77  5.45  3.58
Si -8.41 -4.56  8.19
Si 10.53  4.35 -5.38
Si 10.71 -6.51  1.52
Si  0.21  0.87 12.59
Si  8.74 -7.83  4.70
Si -11.64 -3.03  4.00
Si -10.77 -5.66  3.58
Si -2.42 12.38  1.37
Si -3.77  7.86 -9.23
Si  3.64 -3.43 11.69
Si -1.67 -12.55 -1.17
Si 10.87  6.65  0.12
Si 10.53  4.35  5.73
Si  3.83  1.25 -12.11
Si 12.46 -2.62  0.92
Si -11.43 -3.16 -4.76
Si -2.42  1.27 12.48
Si -9.87 -1.98 -7.88
Si -5.46 -11.53 -0.96
Si  8.02  2.63  9.65
Si  4.56 10.15  6.38
Si  4.43 -7.57  9.36
Si -0.23  6.65 -10.99
Si 12.32  2.93 -2.20
Si  8.36  9.07  3.64
Si -3.69  4.41 11.52
Si  5.65 -11.53 -0.96
Si -6.88  5.91 -9.16
Si  7.92  6.51  7.82
Si 10.79 -3.16  6.35
Si -12.77 -1.45 -1.17
Si 12.34 -1.98  3.22
Si -5.23 -9.99  6.32
Si  1.90  0.40 -12.79
Si -6.48  8.97 -6.69
Si  3.16  2.62 12.27
Si  5.02  7.30  9.43
Si -10.06 -8.13  0.50
Si -12.18  0.62 -4.34
Si -9.75  8.49  0.92
Si -6.55 10.15 -4.73
Si  3.83 12.35 -1.00
Si -6.20  4.08 -10.66
Si  5.32 -11.53  2.75
Si  6.32 -8.21  7.83
Si -7.94  2.62 -9.94
Si -1.38 -12.48 -3.42
Si -12.48 -1.37 -3.42
Si -9.15  8.25 -4.21
Si -9.89 -8.18 -2.20
Si  7.87  0.33 10.38
Si -0.23  6.65 11.22
Si  2.29 10.65  7.21
Si  8.86  3.42 -8.99
Si 10.57 -3.03 -7.10
Si  8.68  1.27 -9.73
Si 13.00  0.40 -1.68
Si -3.69 -6.70 -10.69
Si -11.34  6.65  0.12
Si 12.72  0.44  3.33
Si 11.78 -5.50 -2.06
Si 11.44  5.45  3.58
Si  3.95 -9.70 -8.00
Si -9.21  0.40  9.43
Si -5.78 -11.53  2.75
Si  8.68 -9.84  1.37
Si -8.31  8.00 -6.41
Si  4.91  4.08 11.55
Si  5.88 -9.99  6.32
Si -3.09 -8.47  9.65
Si 11.78  5.61 -2.06
Si -3.09  2.63 -12.57
Si  5.49 -1.85 11.91
Si  1.16 12.01 -5.48
Si -5.46 -0.42 -12.07
Si 11.44 -5.66  3.58
Si  7.21 -4.96  9.98
Si  1.62 -10.66 -7.77
Si -5.62 -1.85 11.91
Si -11.50 -6.51  1.52
Si  1.16 12.01  5.63
Si  1.36  8.49 -10.19
Si  5.65 -0.42 -12.07
Si -7.47 -3.43 -10.52
Si  7.87 -10.78 -0.73
Si  8.74 -7.83 -6.41
Si -6.08  7.30  9.43
Si  1.05 -8.13 -10.61
Si -9.72 -8.01 -4.65
Si -2.89 12.03  5.25
Si -8.41  6.55  8.19
Si -11.43 -3.16  6.35
Si -0.40  4.60 12.63
Si  3.16 -8.48 -9.94
Si 12.27  0.90 -5.48
Si -0.87 13.21 -2.50
Si  3.95 12.51  3.11
Si  7.44  8.67  7.16
Si -2.54  7.65 10.84
Si  3.64  7.67 -10.52
Si 12.27  0.90  5.63
Si -11.96 -5.20 -3.59
Si  1.24 -13.08  3.22
Si  5.43  9.20  8.30
Si 10.23  2.10  8.61
Si  9.44  9.66 -1.17
Si -11.69  4.35 -5.38
Si -1.07 11.73  6.77
Si 10.53 -6.75 -5.38
Si -5.67  9.20  8.30
