500
set: 1356.00  0.00  0.00
Si -1.12 -0.52  1.01
Si  1.38 -0.62  1.03
Si -2.35 -0.63 -1.03
Si  2.60 -0.52 -1.01
Si -1.44  1.02 -2.55
Si -1.44  1.03  2.74
Si  0.64  2.42 -2.52
Si  2.28  1.03  2.54
Si  2.28  1.02 -2.75
Si  0.64  2.43  2.77
Si  1.72 -2.19 -2.52
Si -2.00 -2.17  2.53
Si  1.72 -2.17  2.77
Si -2.00 -2.19 -2.76
Si  0.29  3.98  1.03
Si -0.36 -3.58 -2.55
Si -1.12 -0.53 -4.28
Si  1.52  4.08 -1.01
Si  1.38 -0.63 -4.25
Si -0.35 -3.57  2.74
Si -3.09  2.43  2.53
Si -2.21  4.08  1.01
Si -3.09  2.42 -2.76
Si -2.34 -0.62  4.26
Si -4.85 -0.52 -1.01
Si  2.61 -0.51  4.28
Si -0.03 -5.12  1.01
Si  5.11 -0.63 -1.03
Si -3.43  3.97 -1.03
Si -1.26 -5.23 -1.03
Si  3.37 -3.57  2.54
Si  4.36  2.43  2.53
Si  3.37 -3.58 -2.75
Si  4.36  2.42 -2.76
Si  4.02  3.97 -1.03
Si  0.29  3.97 -4.25
Si -5.17  1.03  2.54
Si  2.47 -5.22  1.03
Si -5.17  1.02 -2.75
Si -4.08 -3.57  2.54
Si -4.08 -3.58 -2.75
Si  1.52  4.09  4.28
Si -6.07 -0.62  1.03
Si  1.20  5.63  2.54
Si -2.21  4.08 -4.28
Si  1.20  5.62 -2.75
Si  5.45 -2.17  2.53
Si  3.69 -5.13 -1.01
Si -1.12 -0.51  6.30
Si  6.33 -0.52  1.01
Si -3.76 -5.13 -1.01
Si -4.84 -0.51  4.28
Si  5.45 -2.19 -2.76
Si  1.38 -0.61  6.32
Si  6.01  1.02 -2.55
Si -5.73 -2.19 -2.52
Si -2.53  5.62 -2.55
Si  5.11 -0.62  4.26
Si -0.03 -5.13 -4.28
Si  6.01  1.03  2.74
Si -5.73 -2.17  2.77
Si  5.25  4.08  1.01
Si -2.53  5.63  2.74
Si -3.43  3.98  4.26
Si -2.35 -0.64 -6.32
Si  2.60 -0.53 -6.30
Si -1.26 -5.22  4.26
Si  4.02  3.98  4.26
Si  2.47 -5.24 -4.25
Si -5.93  4.08 -1.01
Si -0.91 -6.78  2.53
Si -4.98 -5.22  1.03
Si -0.91 -6.79 -2.76
Si -6.07 -0.63 -4.25
Si -0.45  7.02 -2.52
Si  0.29  3.99  6.32
Si -0.45  7.03  2.77
Si  3.69 -5.12  4.28
Si  1.52  4.07 -6.30
Si -3.76 -5.12  4.28
Si -6.82  2.42 -2.52
Si  6.33 -0.53 -4.28
Si -6.82  2.43  2.77
Si  2.81 -6.79 -2.52
Si -2.20  4.09  6.30
Si  2.81 -6.78  2.77
Si  4.92  5.62 -2.55
Si  5.25  4.08 -4.28
Si -4.85 -0.53 -6.30
Si  4.92  5.63  2.74
Si -1.44  1.01 -7.84
Si -0.03 -5.11  6.30
Si  5.11 -0.64 -6.32
Si  3.28  7.03  2.53
Si  6.19 -5.23 -1.03
Si  0.63  2.41 -7.81
Si -3.43  3.96 -6.32
Si  3.27  7.02 -2.76
Si  2.29  1.04  7.83
Si -1.44  1.04  8.03
Si -7.16  3.98  1.03
Si  1.72 -2.19 -7.81
Si -1.26 -5.24 -6.32
Si  7.10 -3.58 -2.55
Si -2.00 -2.17  7.82
Si -5.93  4.09  4.28
Si -4.98 -5.24 -4.25
Si  7.10 -3.57  2.74
Si  2.28  1.01 -8.04
Si  0.64  2.44  8.06
Si  4.02  3.96 -6.32
Si  1.73 -2.17  8.06
Si -4.17  7.03  2.53
Si  2.47 -5.21  6.32
Si -2.00 -2.19 -8.05
Si -4.64 -6.79 -2.52
Si  0.73 -8.19 -2.55
Si -4.18  7.02 -2.76
Si -0.36 -3.59 -7.84
Si -8.57 -0.52  1.01
Si  0.73 -8.18  2.74
Si -4.64 -6.78  2.77
Si -0.79  8.58  1.03
Si -3.09  2.44  7.82
Si  0.43  8.68 -1.01
Si  7.75  3.98  1.03
Si -6.07 -0.61  6.32
Si -6.25  5.63  2.54
Si -0.35 -3.56  8.03
Si  8.09  2.42 -2.52
Si -6.26  5.62 -2.75
Si  8.09  2.43  2.77
Si  8.83 -0.62  1.03
Si  3.69 -5.14 -6.30
Si  6.33 -0.51  6.30
Si -3.76 -5.14 -6.30
Si -3.09  2.41 -8.05
Si -7.81 -3.58 -2.55
Si -7.81 -3.57  2.74
Si -2.99 -8.17  2.54
Si  7.42 -5.12  1.01
Si  2.93  8.57 -1.03
Si -7.48 -5.12  1.01
Si -2.99 -8.18 -2.75
Si  6.20 -5.22  4.26
Si  5.25  4.09  6.30
Si -7.16  3.97 -4.25
Si  3.37 -3.56  7.83
Si  4.37  2.44  7.82
Si -8.89  1.02 -2.55
Si -3.29  8.69  1.01
Si -8.89  1.03  2.74
Si  3.37 -3.59 -8.04
Si -5.17  1.04  7.83
Si  4.36  2.41 -8.05
Si -4.08 -3.56  7.83
Si -5.93  4.07 -6.30
Si -4.98 -5.21  6.32
Si -8.57 -0.53 -4.28
Si -0.80  8.57 -4.25
Si -5.17  1.01 -8.04
Si  4.46 -8.17  2.54
Si -1.12 -0.54 -9.57
Si  1.38 -0.64 -9.54
Si  4.16  8.69  1.01
Si  7.74  3.97 -4.25
Si  0.43  8.69  4.28
Si -4.08 -3.59 -8.04
Si  4.46 -8.18 -2.75
Si  1.20  5.64  7.83
Si -4.52  8.57 -1.03
Si  6.54 -6.78  2.53
Si  9.17 -2.19 -2.52
Si  5.45 -2.17  7.82
Si  6.54 -6.79 -2.76
Si  8.83 -0.63 -4.25
Si  9.18 -2.17  2.77
Si  1.06 -9.72  1.01
Si -2.34 -0.61  9.55
Si -9.80 -0.63 -1.03
Si  1.19  5.62 -8.04
Si -0.17 -9.84 -1.03
Si  8.97  4.08 -1.01
Si  6.01  1.01 -7.84
Si  2.61 -0.50  9.57
Si -5.73 -2.19 -7.81
Si -2.53  5.61 -7.84
Si  5.45 -2.19 -8.05
Si  7.42 -5.13 -4.28
Si  2.93  8.59  4.26
Si -9.45 -2.17  2.53
Si -7.48 -5.13 -4.28
Si  6.01  1.04  8.03
Si -9.45 -2.19 -2.76
Si  9.73  1.03  2.54
Si -5.73 -2.17  8.06
Si 10.06 -0.52 -1.01
Si -2.53  5.64  8.03
Si -2.67 -9.73 -1.01
Si  9.73  1.02 -2.75
Si -8.71 -5.23 -1.03
Si -3.29  8.68 -4.28
Si  7.00  7.02 -2.52
Si  6.19 -5.24 -6.32
Si  7.00  7.03  2.77
Si  0.29  3.96 -9.54
Si -7.16  3.99  6.32
Si -0.91 -6.77  7.82
Si  3.56 -9.83  1.03
Si -0.45  7.01 -7.81
Si  1.52  4.10  9.57
Si  4.16  8.68 -4.28
Si -9.66  4.08  1.01
Si  0.11 10.24  2.54
Si -0.92 -6.80 -8.05
Si  0.11 10.23 -2.75
Si -4.52  8.59  4.26
Si -3.90 -9.83  1.03
Si  8.65  5.63  2.54
Si -2.21  4.07 -9.57
Si -8.57 -0.51  6.30
Si -6.82  2.41 -7.81
Si  8.65  5.62 -2.75
Si  1.06 -9.73 -4.28
Si -9.79 -0.62  4.26
Si -0.79  8.59  6.32
Si -0.45  7.04  8.06
Si -0.17 -9.82  4.26
Si  0.43  8.67 -6.30
Si  2.81 -6.80 -7.81
Si -4.84 -0.50  9.57
Si  8.97  4.09  4.28
Si  7.75  3.99  6.32
Si  4.92  5.61 -7.84
Si -6.81  2.44  8.06
Si  5.11 -0.61  9.55
Si -0.03 -5.14 -9.57
Si -7.90  7.02 -2.52
Si  8.83 -0.61  6.32
Si  4.78 -9.73 -1.01
Si  2.81 -6.77  8.06
Si -6.72 -8.19 -2.55
Si -3.43  3.99  9.55
Si  6.66  8.58  1.03
Si -7.90  7.03  2.77
Si -6.72 -8.18  2.74
Si 10.06 -0.51  4.28
Si -1.25 -5.21  9.55
Si -2.67 -9.72  4.28
Si  4.92  5.64  8.03
Si  7.42 -5.11  6.30
Si -8.71 -5.22  4.26
Si  3.28  7.04  7.82
Si -7.48 -5.11  6.30
Si  2.93  8.56 -6.32
Si -8.36 -6.78  2.53
Si  4.02  3.99  9.55
Si -10.54  2.43  2.53
Si -8.37 -6.79 -2.76
Si -3.62 10.22 -2.55
Si -10.54  2.42 -2.76
Si  7.09 -3.59 -7.84
Si  2.47 -5.24 -9.54
Si  3.27  7.01 -8.05
Si -3.62 10.23  2.74
Si -7.02  8.68 -1.01
Si  3.83 10.22 -2.55
Si -3.29  8.70  6.30
Si  9.92 -5.22  1.03
Si  3.83 10.23  2.74
Si  3.56 -9.84 -4.25
Si  7.10 -3.56  8.03
Si -4.17  7.04  7.82
Si -9.66  4.08 -4.28
Si -6.07 -0.64 -9.54
Si -4.64 -6.80 -7.81
Si  0.73 -8.20 -7.84
Si -3.90 -9.84 -4.25
Si  3.70 -5.11  9.57
Si -4.18  7.01 -8.05
Si  0.73 -8.17  8.03
Si -3.76 -5.11  9.57
Si  6.33 -0.54 -9.57
Si -4.64 -6.77  8.06
Si  8.09  2.41 -7.81
Si -6.25  5.64  7.83
Si  4.16  8.70  6.30
Si -4.52  8.56 -6.32
Si  1.06 -9.71  6.30
Si -7.81 -3.59 -7.84
Si -6.26  5.62 -8.04
Si -10.88  3.97 -1.03
Si  5.24  4.07 -9.57
Si  4.78 -9.72  4.28
Si -1.11 -0.50 11.59
Si  6.66  8.57 -4.25
Si  0.17 -11.38  2.53
Si  8.09  2.44  8.06
Si 10.82 -3.57  2.54
Si -9.80 -0.64 -6.32
Si -6.39 -9.72  1.01
Si  8.97  4.07 -6.30
Si -0.17 -9.85 -6.32
Si -2.99 -8.16  7.83
Si  1.38 -0.60 11.61
Si  0.17 -11.39 -2.76
Si 10.82 -3.58 -2.75
Si -9.98  5.62 -2.55
Si -7.80 -3.56  8.03
Si  7.88  8.68 -1.01
Si -9.98  5.63  2.74
Si  8.18 -8.19 -2.55
Si -3.00 -8.19 -8.04
Si -2.35 -0.65 -11.61
Si 10.06 -0.53 -6.30
Si  2.60 -0.54 -11.59
Si  8.19 -8.18  2.74
Si -8.90  1.01 -7.84
Si -2.67 -9.74 -6.30
Si -8.24  8.58  1.03
Si -7.02  8.69  4.28
Si -8.71 -5.24 -6.32
Si -4.99 -5.24 -9.54
Si -5.93  4.10  9.57
Si -1.54 11.62 -2.52
Si  9.92 -5.24 -4.25
Si -8.89  1.04  8.03
Si -1.54 11.63  2.77
Si  2.19 11.63  2.53
Si  2.19 11.62 -2.76
Si  4.46 -8.16  7.83
Si 11.47  3.97 -1.03
Si -3.55 -11.39 -2.52
Si  3.56 -9.82  6.32
Si -9.65  4.09  6.30
Si  6.54 -6.77  7.82
Si -3.55 -11.38  2.77
Si  9.17 -2.19 -7.81
Si  7.28 -9.84 -1.03
Si  0.30  4.00 11.61
Si  3.90 -11.39 -2.52
Si 11.14 -5.13 -1.01
Si -3.89 -9.82  6.32
Si  4.46 -8.19 -8.04
Si 11.82  2.43  2.53
Si -11.53 -3.57  2.54
Si  3.90 -11.38  2.77
Si -10.88  3.98  4.26
Si -12.30 -0.52 -1.01
Si -11.21 -5.13 -1.01
Si 11.81  2.42 -2.76
Si  1.51  4.06 -11.59
Si -11.53 -3.58 -2.75
Si  6.54 -6.80 -8.05
Si  9.18 -2.17  8.06
Si -6.40 -9.73 -4.28
Si -9.45 -2.17  7.82
Si -7.62 -9.84 -1.03
Si -2.20  4.10 11.59
Si  7.88  8.69  4.28
Si  6.20 -5.21  9.55
Si  9.74  1.04  7.83
Si  4.78 -9.74 -6.30
Si 10.26 -6.79 -2.52
Si -7.16  3.96 -9.54
Si -4.85 -0.54 -11.59
Si  6.66  8.59  6.32
Si 10.26 -6.78  2.77
Si -9.45 -2.19 -8.05
Si 12.56 -0.63 -1.03
Si  7.00  7.01 -7.81
Si -8.25  8.57 -4.25
Si -0.03 -5.10 11.59
Si  9.73  1.01 -8.04
Si  5.10 -0.65 -11.61
Si -3.44  3.95 -11.61
Si  7.00  7.04  8.06
Si -1.26 -5.25 -11.61
Si -7.02  8.67 -6.30
Si -0.80  8.56 -9.54
Si -7.34 10.24  2.54
Si -8.57 -0.54 -9.57
Si 11.47  3.98  4.26
Si  9.92 -5.21  6.32
Si -7.34 10.23 -2.75
Si  0.11 10.25  7.83
Si  4.02  3.95 -11.61
Si  7.74  3.96 -9.54
Si -12.62  1.03  2.54
Si  0.43  8.70  9.57
Si  7.28 -9.82  4.26
Si -12.62  1.02 -2.75
Si  8.51 -9.72  1.01
Si  8.65  5.64  7.83
Si  2.47 -5.21 11.61
Si  7.56 10.24  2.54
Si 11.15 -5.12  4.28
Si  0.11 10.22 -8.04
Si  7.56 10.23 -2.75
Si -5.26 11.63  2.53
Si  8.83 -0.64 -9.54
Si -12.30 -0.51  4.28
Si -11.21 -5.12  4.28
Si -5.26 11.62 -2.76
Si  8.64  5.62 -8.04
Si 10.73  7.03  2.53
Si 10.73  7.02 -2.76
Si -6.07 -0.60 11.61
Si -7.91  7.01 -7.81
Si -7.62 -9.82  4.26
Si  7.42 -5.14 -9.57
Si -1.91 -12.78  2.54
Si  1.82 -12.79 -2.55
Si  2.93  8.60  9.55
Si -6.72 -8.20 -7.84
Si -7.48 -5.14 -9.57
Si  1.82 -12.78  2.74
Si -10.88  3.96 -6.32
Si  3.69 -5.15 -11.59
Si -1.91 -12.78 -2.75
Si  6.34 -0.50 11.59
Si -6.39 -9.71  6.30
Si -3.76 -5.15 -11.59
Si -1.45  1.00 -13.13
Si 12.56 -0.62  4.26
Si -6.72 -8.17  8.03
Si  5.91 11.62 -2.52
Si -8.36 -6.77  7.82
Si -7.90  7.04  8.06
Si  7.88  8.67 -6.30
Si 12.90 -2.17  2.53
Si -3.29  8.67 -9.57
Si  0.63  2.40 -13.10
Si -0.66 13.28 -1.01
Si  5.91 11.63  2.77
Si -10.54  2.44  7.82
Si  1.84 13.18 -1.03
Si -1.88 13.19  1.03
Si  2.29  1.05 13.12
Si  5.25  4.10 11.59
Si -3.62 10.21 -7.84
Si 12.90 -2.19 -2.76
Si 12.70  4.08  1.01
Si  1.72 -2.21 -13.10
Si -2.00 -2.16 13.11
Si  3.83 10.21 -7.84
Si -1.44  1.05 13.32
Si -8.37 -6.80 -8.05
Si -10.54  2.41 -8.05
Si -8.24  8.59  6.32
Si -10.45 -8.17  2.54
Si 10.38  8.57 -1.03
Si -3.62 10.24  8.03
Si -12.43 -5.22  1.03
Si -10.45 -8.18 -2.75
Si  2.28  1.00 -13.33
Si  4.16  8.67 -9.57
Si  3.84 10.24  8.03
Si -13.52 -0.62  1.03
Si  0.64  2.45 13.35
Si -13.18 -2.19 -2.52
Si -0.36 -3.60 -13.13
Si -4.52  8.60  9.55
Si  8.51 -9.73 -4.28
Si  1.73 -2.15 13.35
Si -5.94  4.06 -11.59
Si -13.18 -2.17  2.77
Si -4.98 -5.21 11.61
Si -2.00 -2.21 -13.34
Si  3.07 13.29  1.01
Si 11.47  3.96 -6.32
Si -3.08  2.45 13.11
Si -9.79 -0.61  9.55
Si -0.17 -9.81  9.55
Si  1.05 -9.74 -9.57
Si 13.46  1.02 -2.55
Si -7.28 -11.38  2.53
Si  8.97  4.10  9.57
Si 13.46  1.03  2.74
Si  7.28 -9.85 -6.32
Si 11.14 -5.14 -6.30
Si -0.35 -3.55 13.32
Si -7.28 -11.39 -2.76
Si  0.18 -11.37  7.82
Si -11.63  7.03  2.53
Si 12.37  5.62 -2.55
Si 10.82 -3.56  7.83
Si -12.30 -0.53 -6.30
Si 13.79 -0.52  1.01
Si -11.21 -5.14 -6.30
Si -10.74  8.69  1.01
Si -11.63  7.02 -2.76
Si 12.37  5.63  2.74
Si -9.98  5.61 -7.84
Si -2.67 -9.71  9.57
Si 10.06 -0.50  9.57
Si -3.09  2.40 -13.34
Si  7.63 -11.38  2.53
Si -8.71 -5.21  9.55
Si 10.82 -3.59 -8.04
