500
set: 820.00  0.00  0.00
Si -0.42  1.24 -0.78
Si  0.41 -1.29  0.86
Si  1.35  1.16  0.82
Si -1.34 -1.14 -0.87
Si -0.88  0.08  2.43
Si  0.88 -0.01 -2.47
Si  2.21 -1.18 -0.78
Si -2.32  1.18  0.80
Si -0.03 -2.30 -2.53
Si -3.14 -1.23  0.76
Si  0.04  2.46  2.44
Si  3.17  1.24 -0.80
Si  2.69  0.04  2.51
Si -2.66  0.04 -2.56
Si -0.44 -3.60  0.84
Si -1.73  2.26 -2.47
Si  1.72  2.35 -2.43
Si  0.49  3.64 -0.93
Si -1.80 -2.29  2.44
Si -1.29  3.52  0.72
Si  1.30 -3.56 -0.80
Si  1.78 -2.37  2.52
Si  3.93 -1.19  0.93
Si  2.16  3.53  0.90
Si -0.87 -0.04 -4.15
Si -2.19 -3.52 -0.89
Si  0.84 -0.09  4.17
Si -4.05  1.14 -0.92
Si  3.05 -3.52  0.91
Si  0.06  2.35 -4.14
Si -3.10  3.54 -0.95
Si -0.05 -2.45  4.14
Si -2.67  0.08  4.08
Si  3.52 -2.38 -2.41
Si -3.54  2.41  2.49
Si  2.78  0.01 -4.11
Si -3.62 -2.42 -2.47
Si  3.59  2.50  2.53
Si -1.74  2.42  4.12
Si  1.82  2.25  4.18
Si  1.82 -2.33 -4.14
Si -4.47  0.01  2.43
Si  4.90  1.18  0.92
Si  4.54 -0.07 -2.44
Si -1.85 -2.35 -4.20
Si -5.01 -1.19 -0.91
Si -4.03 -3.52  0.79
Si  3.95  3.62 -0.76
Si  0.86 -4.71  2.55
Si -0.93 -4.73 -2.48
Si -0.91  4.76 -2.57
Si  0.93  4.87  2.52
Si  2.55 -4.68 -2.48
Si -3.49 -2.32  4.13
Si -2.69 -4.60  2.52
Si  5.71 -1.32 -0.78
Si -0.35  1.29  5.76
Si  0.34 -5.85 -0.76
Si  3.60  2.38 -4.05
Si -2.61  4.67  2.54
Si -3.47  2.38 -4.19
Si  0.47 -1.17 -5.84
Si  2.69  4.74 -2.48
Si -1.28 -1.08  5.76
Si -5.83  1.22  0.78
Si -0.42  5.95  0.79
Si  1.38  1.10 -5.78
Si -4.86  3.54  0.75
Si  4.78 -3.64 -0.80
Si  4.41  0.05  4.17
Si -4.42 -0.02 -4.19
Si  3.58 -2.42  4.29
Si  1.42  5.95 -0.89
Si -1.45 -5.95  0.90
Si  2.18 -5.84  0.83
Si -2.12  1.17 -5.81
Si -0.80  4.72  4.10
Si  5.34  2.35 -2.40
Si -5.29 -2.38  2.55
Si  5.26 -2.44  2.55
Si -5.29  2.47 -2.51
Si  2.26 -1.09  5.87
Si -2.21  5.94 -0.84
Si  0.94  4.74 -4.19
Si  0.81 -4.80 -4.17
Si -0.98 -4.83  4.14
Si -3.12 -5.83 -0.93
Si  6.20 -0.09  2.55
Si -3.09 -1.12 -5.86
Si  6.60  1.01 -0.78
Si  3.17  5.87  0.84
Si  3.08  1.22  5.88
Si  2.63  4.64  4.14
Si  2.61 -4.67  4.13
Si -6.24  0.09 -2.61
Si -0.51 -3.56 -5.77
Si  0.49  3.55  5.79
Si -6.69 -1.21  0.86
Si -2.67 -4.73 -4.19
Si -5.83 -3.53 -0.84
Si -2.65  4.70 -4.26
Si  5.79  3.64  0.83
Si -1.20  3.56 -5.80
Si  1.35 -3.53  5.84
Si -4.40  4.83 -2.55
Si  4.48  4.77  2.55
Si -4.53 -4.71 -2.57
Si  4.42 -4.85  2.54
Si -2.15 -3.43  5.81
Si -5.26 -2.32 -4.21
Si  5.28 -2.52 -4.08
Si -5.29  2.45  4.14
Si  2.27  3.49 -5.81
Si  4.03 -1.27 -5.80
Si  3.88 -5.98 -0.88
Si -3.98  5.92  0.91
Si -4.10  1.09  5.82
Si  5.37  2.39  4.22
Si -0.02 -6.97  2.53
Si -3.10  3.54  5.75
Si -6.16  0.06  4.18
Si  3.08 -3.58 -5.77
Si -0.00  7.05 -2.47
Si  6.19 -0.17 -4.21
Si  6.62 -3.55  0.91
Si  4.87  1.08 -5.71
Si  0.44 -1.25  7.47
Si -0.33  1.30 -7.47
Si -6.72  3.50 -0.88
Si -4.83 -1.21  5.78
Si  4.42  4.67 -4.17
Si  7.52 -1.21  0.86
Si -4.41 -4.75  4.10
Si  4.32 -4.84 -4.11
Si -1.29 -1.19 -7.49
Si  1.73 -7.12 -2.40
Si  1.28  1.18  7.51
Si -7.61  1.01 -0.78
Si -1.68  7.09  2.55
Si  4.91  5.92 -0.80
Si -4.90 -5.96  0.72
Si -7.01 -2.18 -2.46
Si -4.34  4.90  4.15
Si -1.89 -7.13 -2.43
Si  1.81  7.18  2.44
Si -2.27  1.26  7.36
Si  7.10  2.28  2.44
Si -7.11  2.28  2.44
Si  7.20 -2.18 -2.46
Si  4.08  3.58  5.76
Si  2.29 -1.15 -7.52
Si -4.05 -3.47 -5.92
Si -6.18  4.63  2.54
Si  6.20 -4.64 -2.55
Si -3.03 -1.18  7.48
Si -0.01 -7.10 -4.05
Si  3.18  1.21 -7.45
Si  6.17  4.80 -2.48
Si -5.67  1.21 -5.81
Si  5.68 -1.21  5.84
Si -3.57 -7.01  2.44
Si  0.46 -5.89  5.76
Si  0.12  7.16  4.13
Si -6.23 -4.81  2.54
Si -5.82  5.83 -0.80
Si -0.44 -8.24 -0.80
Si  5.73 -5.94  0.75
Si  0.47  8.25  0.76
Si  1.29 -3.52 -7.41
Si  7.49  3.50 -0.88
Si -0.45 -3.64  7.50
Si  3.49 -7.19  2.44
Si -1.31  3.62  7.42
Si  0.55  3.66 -7.53
Si  7.97  0.09 -2.61
Si -8.01 -0.09  2.55
Si  3.58  7.18 -2.53
Si -3.40  7.30 -2.46
Si  1.75 -7.08  4.22
Si -7.59 -3.55  0.91
Si  4.84 -3.61  5.88
Si -4.90  3.61 -5.84
Si -0.44  6.00 -5.92
Si  1.29 -8.30  0.92
Si  1.76  7.12 -4.20
Si -1.35 -5.98 -5.81
Si -1.39  8.29 -0.91
Si -1.65  7.16 -4.21
Si  1.46  6.04  5.81
Si  8.38  1.22  0.78
Si -2.16  5.90  5.75
Si  7.10 -2.27  4.15
Si -1.79 -7.22  4.18
Si -7.11 -2.27  4.15
Si -7.09  2.28 -4.20
Si  2.16 -5.97 -5.73
Si -2.14 -3.44 -7.53
Si  2.25  3.56  7.44
Si  7.12  2.28 -4.20
Si -3.94  1.17 -7.53
Si  3.95 -1.23  7.55
Si -8.51 -1.32 -0.78
Si -2.26 -8.31  0.82
Si  2.27  8.33 -0.87
Si  6.26 -4.57  4.15
Si -3.01  3.53 -7.50
Si -6.28  4.64 -4.11
Si  3.11  5.92 -5.77
Si -3.12 -5.93  5.79
Si  5.77  3.51 -5.73
Si -3.08  8.26  0.86
Si  6.22  4.80  4.13
Si  3.56  7.02  4.14
Si -5.77 -3.57  5.75
Si  6.62  1.12  5.86
Si  3.04 -3.66  7.57
Si -6.26 -4.78 -4.26
Si -3.55 -7.13 -4.14
Si  6.67  5.96  0.91
Si -6.67 -1.28 -5.89
Si  2.99 -8.46 -0.78
Si -6.71 -5.93 -0.95
Si  4.86  1.16  7.51
Si -3.50  7.20  4.15
Si  3.51 -7.19 -4.20
Si -4.88 -1.19 -7.53
Si -8.02 -0.17 -4.21
Si  8.06  0.06  4.18
Si  3.94 -5.90  5.74
Si  8.38 -3.53 -0.84
Si -0.89  0.01  9.10
Si  5.31 -7.00 -2.51
Si  4.02  8.19  0.86
Si -3.95 -3.57  7.47
Si  0.85 -0.10 -9.14
Si -5.34  7.03  2.55
Si -3.98  5.98 -5.73
Si -4.04 -8.24 -0.78
Si -8.42  3.64  0.83
Si  4.09  3.65 -7.41
Si  5.39  7.11  2.52
Si -5.34 -7.21 -2.47
Si  9.21 -1.19 -0.91
Si -0.07  2.38  9.09
Si  6.62 -3.50 -5.73
Si -9.31  1.18  0.92
Si  0.04 -2.48 -9.10
Si  0.48 -5.82 -7.41
Si  2.59 -0.07  9.12
Si -6.66  3.57  5.74
Si -8.87  2.35 -2.40
Si -4.88  3.46  7.39
Si -0.34  5.91  7.47
Si -2.58 -0.01 -9.18
Si -4.89  8.15 -0.78
Si  5.76 -1.17 -7.54
Si  4.77 -8.26  0.78
Si  4.84 -3.61 -7.42
Si -4.81 -5.91 -5.80
Si  8.92 -2.38  2.55
Si  8.92  2.47 -2.51
Si  1.77  2.29 -9.15
Si -1.36 -5.91  7.44
Si -8.01 -4.64 -2.55
Si -5.81  1.24  7.55
Si  7.50 -5.93 -0.95
Si -1.67  2.42 -9.15
Si  8.03  4.63  2.54
Si -1.77 -2.39  9.14
Si -8.95 -2.44  2.55
Si  7.54 -1.28 -5.89
Si -7.59  1.12  5.86
Si -7.55  5.96  0.91
Si -5.32  6.95 -4.08
Si  7.98 -4.81  2.54
Si -8.04  4.80 -2.48
Si  1.77 -2.36  9.23
Si  4.96  5.94  5.84
Si  5.31 -7.02  4.14
Si -2.27  5.83 -7.47
Si  1.47  6.03 -7.53
Si -5.35 -7.06  4.12
Si -0.92 -9.44  2.51
Si -0.86  9.49  2.43
Si  2.20 -6.01  7.48
Si  5.43  7.14 -4.14
Si  0.93 -9.54 -2.44
Si  0.96  9.51 -2.56
Si -9.67 -0.07 -2.44
Si -3.07 -5.81 -7.53
Si -3.48  2.42  9.08
Si  3.16  5.83  7.50
Si  9.35  3.54  0.75
Si  6.66  1.12 -7.40
Si  3.58 -2.34 -9.06
Si  9.74  0.01  2.43
Si  5.70 -5.87 -5.84
Si  7.93  4.64 -4.11
Si -7.95 -4.57  4.15
Si -4.48 -0.04  9.03
Si -8.85  2.39  4.22
Si  5.81  3.46  7.48
Si -3.52 -2.32 -9.17
Si -6.73 -1.13  7.45
Si -5.76  5.86  5.88
Si  3.60  2.40  9.14
Si  7.55  3.57  5.74
Si -7.59 -3.50 -5.73
Si  8.92  2.45  4.14
Si -8.93 -2.52 -4.08
Si -9.43 -3.64 -0.80
Si -0.54 -8.26  5.88
Si -1.22  8.26  5.78
Si  8.95 -2.32 -4.21
Si  5.82  8.29 -0.78
Si  4.44  0.07 -9.15
Si -2.73 -9.49 -2.47
Si -5.88 -3.64 -7.47
Si -7.99  4.80  4.13
Si  7.95 -4.78 -4.26
Si  0.52  8.36 -5.86
Si -5.93 -8.29  0.80
Si  2.73  9.55  2.43
Si  2.59 -9.56  2.55
Si  1.26 -8.40 -5.71
Si -2.62  9.56 -2.61
Si  8.39  5.83 -0.80
Si 10.16  1.14 -0.92
Si  3.89 -5.95 -7.44
Si  7.06 -7.07  2.49
Si -7.08  7.09 -2.41
Si -3.89  5.94  7.47
Si  0.91  4.69  9.13
Si  0.80 -9.42  4.17
Si  7.13  7.09 -2.41
Si -0.83 -9.46 -4.11
Si -0.94 -4.83 -9.11
Si -7.15 -7.07  2.49
Si  0.95 -4.73  9.18
Si -0.81  9.46 -4.19
Si -8.48 -5.94  0.75
Si -10.28 -1.19  0.93
Si  8.54  1.21 -5.81
Si -8.54 -1.21  5.84
Si -0.84  4.81 -9.20
Si -2.24 -8.38 -5.78
Si  0.95  9.55  4.08
Si  2.33  8.40  5.76
Si -3.06  8.19 -5.89
Si  2.67  4.65 -9.11
Si  2.63 -4.68 -9.11
Si -2.64  4.72  9.10
Si  7.48 -1.13  7.45
Si -6.71  3.53 -7.44
Si  6.69  5.90 -5.77
Si -7.55  1.12 -7.40
Si  3.01 -8.35  5.86
Si  6.55 -8.34 -0.92
Si -6.71 -5.93  5.75
Si  6.71 -3.53  7.47
Si  9.79 -0.02 -4.19
Si -9.80  0.05  4.17
Si -4.92 -5.86  7.42
Si -0.44 10.61 -0.92
Si -2.70 -4.78  9.13
Si  2.74  9.43 -4.15
Si -4.40  9.38  2.55
Si  4.36 -9.39 -2.61
Si -6.67  8.29  0.93
Si -4.49 -9.39  2.43
Si  4.91  5.96 -7.41
Si  0.32 -10.66  0.93
Si -2.54  9.54  4.18
Si  5.41  2.32 -8.99
Si  4.49  9.46 -2.47
Si -3.97 -8.18  5.76
Si  1.29 10.65  0.80
Si -1.40 -10.66 -0.78
Si -5.30 -2.36  9.09
Si -8.44  3.51 -5.73
Si -2.77 -9.56  4.17
Si  5.29 -2.46  9.09
Si -0.86  0.14 -10.76
Si 10.18 -3.52  0.79
Si  8.44 -3.57  5.75
Si  0.86  0.00 10.80
Si -5.28  2.47 -9.13
Si -7.01  7.06  4.29
Si  2.58 -9.65 -4.21
Si -7.08 -7.10 -4.19
Si  7.13 -7.10 -4.19
Si -10.26  3.62 -0.76
Si  4.08  8.30 -5.84
Si -2.22 10.69  0.78
Si  7.20  7.06  4.29
Si -6.12  0.17 -9.14
Si -9.34  1.08 -5.71
Si  2.09 -10.79 -0.78
Si  6.11 -0.10  9.18
Si -9.30  5.92 -0.80
Si -2.74  0.03 10.71
Si  2.69  0.03 -10.73
Si  9.68 -4.71 -2.57
Si -5.76  5.86 -7.42
Si  9.31 -5.96  0.72
Si  9.38 -1.21  5.78
Si  0.03  2.45 -10.84
Si -0.11 -2.39 10.85
Si  5.71 -6.02  7.39
Si -4.41  9.30 -4.21
Si -0.43 -8.27 -7.45
Si  1.81 -2.24 -10.75
Si -9.73  4.77  2.55
Si -11.04  1.24 -0.80
Si  7.50  3.53 -7.44
Si 10.60 -2.42 -2.47
Si  7.50 -5.93  5.75
Si -7.50 -3.53  7.47
Si 11.07 -1.23  0.76
Si -4.33  4.80 -9.10
Si -7.52  5.90 -5.77
Si  1.75  2.44 10.76
Si  0.58  8.30  7.48
Si  4.45  9.38  4.17
Si -10.62  2.50  2.53
Si  3.19 10.71 -0.78
Si  4.36 -4.91  9.07
Si -1.83  2.31 10.81
Si -10.69 -2.38 -2.41
Si -1.74 -2.28 -10.84
Si  4.44 -9.41  4.18
Si 10.67  2.41  2.49
Si -9.79 -4.85  2.54
Si -4.45 -4.66 -9.20
Si  9.81  4.83 -2.55
Si  4.93 -8.27 -5.81
Si  7.54  8.29  0.93
Si -4.00 10.49 -0.78
Si -4.92  8.26  5.84
Si -3.20 -10.76  0.86
Si -1.27  8.28 -7.53
Si  1.25 -8.31  7.51
Si  4.57  4.75  9.18
Si -4.48 -9.52 -4.15
Si -7.66 -8.34 -0.92
Si  8.40  1.24  7.55
Si -8.45 -1.17 -7.54
Si  3.91 -10.68  0.86
Si  2.32  8.28 -7.49
Si -2.33 -8.30  7.51
Si -6.06  9.41 -2.44
Si -3.46  2.36 -10.73
Si  6.13 -9.46  2.43
Si -0.01 -7.07  9.14
Si  9.31  3.61 -5.84
Si  3.05 -8.35 -7.40
Si  3.60  2.37 -10.77
Si -8.90 -7.00 -2.51
Si  8.87  7.03  2.55
Si -4.40 -0.07 -10.74
Si -8.82  7.11  2.52
Si -10.61  2.38 -4.05
Si -3.12  8.34  7.45
Si -6.27 -9.44 -2.56
Si -9.79  4.67 -4.17
Si  0.09  7.15 -9.17
Si  1.80 -7.15 -8.99
Si  6.65  5.81  7.57
Si  4.34  0.06 10.80
Si -6.62 -5.95 -7.50
Si  9.80 -4.75  4.10
Si -5.73 -8.30 -5.81
Si -9.38 -3.61  5.88
Si -3.56 -2.48 10.81
Si -1.69  7.11  9.09
Si  3.51 -2.38 10.88
Si  6.31  9.51  2.51
Si  8.87 -7.21 -2.47
Si 11.11  3.54 -0.95
Si  1.84  7.08  9.14
Si -10.63 -2.42  4.29
Si 10.11  1.09  5.82
Si 10.72 -2.32  4.13
Si -11.16 -3.52  0.91
Si  8.28 -8.29  0.80
Si -4.96 -10.61 -0.87
Si -9.89 -4.84 -4.11
Si -3.94 -8.17 -7.47
Si  4.96 10.63  0.82
Si  8.33 -3.64 -7.47
Si -8.40  3.46  7.48
Si 10.74  2.38 -4.19
Si -0.87  4.77 10.73
Si  9.87  4.90  4.15
Si -1.84 -7.19 -9.15
Si -7.07 -2.28 -9.14
Si -10.18 -1.27 -5.80
Si -11.52  0.04  2.51
Si  0.91 -4.70 -10.77
Si  5.88  8.38  5.87
