500
set: 951.00  0.00  0.00
Si  0.45 -1.17  0.78
Si -0.43  1.19 -0.82
Si  1.30  1.15  0.80
Si -1.34 -1.14 -0.83
Si  0.84  0.04 -2.37
Si -2.14  1.11  0.80
Si  2.17 -1.11 -0.84
Si -0.88 -0.04  2.43
Si  0.03 -2.26 -2.38
Si -0.03  2.27  2.42
Si -3.01 -1.17  0.82
Si  3.04  1.15 -0.81
Si  0.44  3.40 -0.78
Si -2.56  0.03 -2.41
Si  2.62  0.02  2.43
Si -0.44 -3.47  0.82
Si  1.25 -3.45 -0.80
Si -1.28  3.45  0.83
Si  1.72 -2.27  2.46
Si  1.77  2.30 -2.42
Si -1.70  2.35 -2.43
Si -1.77 -2.32  2.41
Si  3.84 -1.16  0.77
Si -0.84  0.06 -4.00
Si -3.88  1.13 -0.81
Si  0.92  0.00  4.03
Si  2.20  3.43  0.82
Si -2.20 -3.50 -0.78
Si  2.98 -3.43  0.84
Si -3.01  3.45 -0.81
Si -0.04 -2.29  4.05
Si  0.07  2.37 -4.00
Si -3.36  2.29  2.37
Si  3.41  2.26  2.39
Si -2.56 -0.01  4.01
Si  2.58 -0.01 -4.01
Si  3.43 -2.34 -2.41
Si -3.45 -2.29 -2.45
Si -1.71 -2.29 -3.99
Si  4.30 -0.02 -2.38
Si -4.71 -1.17 -0.79
Si  1.71 -2.31 -4.01
Si -4.32 -0.02  2.38
Si -1.72  2.28  4.03
Si  1.72  2.33  4.02
Si  4.77  1.13  0.80
Si  0.87  4.58  2.41
Si  3.89  3.45 -0.80
Si -0.87 -4.60 -2.42
Si  0.77 -4.64  2.39
Si -0.81  4.61 -2.45
Si -3.92 -3.45  0.83
Si -5.56  1.13  0.80
Si  3.39 -2.34  4.00
Si  0.40 -1.12 -5.63
Si  3.44  2.27 -4.04
Si  2.52 -4.59 -2.44
Si -2.50  4.62  2.41
Si -3.46  2.26 -4.05
Si -3.50 -2.29  4.01
Si -0.39  1.16  5.66
Si  5.62 -1.17 -0.79
Si -0.37  5.73  0.82
Si  0.40 -5.75 -0.81
Si  4.32  0.01  3.96
Si  2.67  4.64 -2.38
Si  1.28  1.16 -5.60
Si -2.67 -4.63  2.42
Si  4.68 -3.45 -0.81
Si -1.25 -1.08  5.65
Si -4.33  0.04 -4.00
Si -4.71  3.47  0.84
Si -1.34 -5.75  0.80
Si  1.30  5.76 -0.83
Si  2.12 -1.18  5.61
Si -5.14 -2.28  2.41
Si -2.07  5.73 -0.79
Si -0.92 -4.57  4.02
Si -2.17  1.16 -5.64
Si  5.16  2.31 -2.44
Si  5.20 -2.28  2.41
Si -5.17  2.31 -2.44
Si  0.93  4.61 -3.99
Si -0.85  4.61  4.01
Si  0.80 -4.63 -4.04
Si  2.13 -5.77  0.80
Si  6.01 -0.02  2.38
Si -6.03 -0.02 -2.38
Si -3.04 -1.17 -5.62
Si  3.03  1.14  5.64
Si -3.07 -5.71 -0.82
Si  3.09  5.73  0.78
Si -2.57 -4.53 -4.00
Si  6.45  1.13 -0.81
Si -0.40 -3.45 -5.62
Si -2.60  4.61 -3.98
Si  2.55 -4.64  4.00
Si -6.49 -1.16  0.77
Si  5.62  3.47  0.84
Si  0.48  3.51  5.64
Si  2.60  4.61  4.05
Si -5.65 -3.45 -0.81
Si -4.26  4.56 -2.41
Si -1.24  3.44 -5.64
Si  1.26 -3.46  5.64
Si -4.34 -4.55 -2.43
Si  4.33 -4.61  2.37
Si  4.37  4.63  2.46
Si  5.08 -2.29 -3.98
Si -5.14  2.26  4.00
Si -2.16 -3.39  5.64
Si  5.19  2.26  4.00
Si  3.87 -1.19 -5.64
Si -3.85  5.75  0.77
Si  3.81 -5.77 -0.81
Si  2.24  3.45 -5.62
Si -5.25 -2.29 -3.98
Si -3.93  1.16  5.67
Si -6.02  0.01  3.96
Si  6.00  0.04 -4.00
Si  2.99 -3.44 -5.69
Si -3.01  3.49  5.65
Si -0.02 -6.88  2.43
Si  6.41 -3.45  0.83
Si  0.45 -1.15  7.23
Si  0.08  6.93 -2.41
Si -0.45  1.13 -7.24
Si -6.44  3.45 -0.80
Si -7.29  1.15 -0.81
Si  4.71  1.11 -5.65
Si -4.30  4.56  4.00
Si -1.35 -1.18 -7.23
Si -4.78 -1.19  5.60
Si  7.32 -1.17  0.82
Si  4.24 -4.64 -4.05
Si -1.68  6.88  2.38
Si -1.80 -6.86 -2.37
Si  1.35  1.19  7.26
Si  4.35  4.59 -4.01
Si  1.76  6.87  2.43
Si  1.66 -6.92 -2.38
Si -4.36 -4.62  4.03
Si -4.78 -5.79  0.80
Si  4.81  5.79 -0.84
Si -2.13  1.16  7.20
Si  2.09 -1.19 -7.26
Si  6.88 -2.29 -2.45
Si -6.92  2.26  2.39
Si -3.89 -3.46 -5.64
Si  3.90  3.44  5.64
Si -6.90 -2.34 -2.41
Si  6.97  2.29  2.37
Si  3.04  1.18 -7.18
Si -3.02 -1.10  7.22
Si  5.99 -4.55 -2.43
Si -6.01 -4.61  2.37
Si -5.97  4.63  2.46
Si  6.07  4.56 -2.41
Si  0.08  6.89  4.01
Si  5.56 -1.19  5.60
Si -0.06 -6.91 -4.01
Si  0.44  3.42 -7.22
Si -3.39  6.88 -2.38
Si -0.40  5.73 -5.62
Si -5.53  5.79 -0.84
Si -5.62  1.11 -5.65
Si -0.48 -3.41  7.28
Si  3.37 -6.92  2.38
Si  5.55 -5.79  0.80
Si  0.50  8.01  0.80
Si  0.39 -5.76  5.64
Si -0.48 -8.01 -0.84
Si -7.71  0.02  2.43
Si  4.68 -3.41  5.65
Si  1.30 -3.43 -7.22
Si  3.48  6.94 -2.37
Si  1.67 -6.89  3.96
Si -1.24  3.48  7.24
Si  7.77  0.03 -2.41
Si -1.36 -5.74 -5.60
Si  7.33  3.45 -0.81
Si -4.70  3.46 -5.69
Si -3.52 -6.93  2.43
Si -7.35 -3.43  0.84
Si -1.24  8.03 -0.81
Si -1.72 -6.90  4.03
Si  1.20 -8.05  0.77
Si -1.69  6.94 -4.00
Si  1.39  5.82  5.65
Si  1.80  6.96 -4.00
Si  6.84 -2.29  4.01
Si  3.84 -1.14  7.21
Si -3.82  1.17 -7.24
Si -2.13  5.71  5.60
Si -8.17 -1.11 -0.84
Si  6.88  2.26 -4.05
Si  8.19  1.11  0.80
Si -6.89  2.27 -4.04
Si -2.20 -3.48 -7.22
Si  2.07 -5.79 -5.65
Si -6.94 -2.34  4.00
Si  2.16  3.49  7.28
Si -2.19 -8.07  0.78
Si  2.21  8.09 -0.82
Si -5.98  4.59 -4.01
Si  6.03  4.56  4.00
Si  5.97 -4.62  4.03
Si -3.00  3.43 -7.27
Si -2.92  8.03  0.80
Si  2.98 -3.47  7.27
Si -3.04 -5.74  5.66
Si  3.36 -6.86 -4.00
Si  3.04  5.78 -5.63
Si  6.41  1.16  5.67
Si  2.98 -8.07 -0.79
Si -3.38  6.91  3.96
Si -3.48 -6.84 -4.00
Si -6.46 -1.19 -5.64
Si -6.10 -4.64 -4.05
Si -5.65 -3.41  5.65
Si  6.48  5.75  0.77
Si  5.64  3.46 -5.69
Si -7.75 -0.01 -4.01
Si  4.75  1.11  7.24
Si -4.68 -1.16 -7.28
Si  7.77 -0.01  4.01
Si -6.52 -5.77 -0.81
Si  3.56  6.90  4.03
Si -8.13  3.43  0.82
Si  0.88 -0.02 -8.82
Si  8.13 -3.50 -0.78
Si -3.82  5.71 -5.64
Si -3.88 -3.42  7.24
Si  5.13 -6.87 -2.41
Si  3.76 -5.74  5.67
Si -0.88 -0.05  8.87
Si -5.07  6.92  2.43
Si  3.95  3.47 -7.22
Si -5.21 -6.87 -2.41
Si  3.94  8.05  0.80
Si -3.98 -8.04 -0.83
Si  5.27  6.92  2.43
Si  8.99 -1.14 -0.83
Si -0.02  2.31  8.82
Si -9.03  1.15  0.80
Si -0.02 -2.30 -8.85
Si  8.56 -2.32  2.41
Si -8.56  2.30 -2.42
Si -2.60 -0.00 -8.82
Si  0.40 -5.72 -7.18
Si -5.58  1.11  7.24
Si -6.43  3.44  5.64
Si  2.57 -0.00  8.85
Si  6.45 -3.46 -5.64
Si -8.61 -2.27  2.46
Si -7.24  5.73  0.78
Si  7.26 -5.71 -0.82
Si -1.69  2.28 -8.83
Si -0.38  5.80  7.22
Si -7.66  4.64 -2.38
Si  8.63  2.35 -2.43
Si  7.66 -4.63  2.42
Si -1.75 -2.26  8.83
Si  7.29 -1.17 -5.62
Si  5.65 -1.16 -7.28
Si  1.72 -2.30  8.83
Si -7.30  1.14  5.64
Si  1.29  5.72 -7.23
Si -4.71  3.43  7.27
Si  4.76  5.72  5.61
Si  4.69 -3.47 -7.27
Si -4.65  8.05 -0.81
Si -1.29 -5.71  7.26
Si  1.77  2.28 -8.87
Si  4.68 -8.07  0.82
Si -4.82 -5.74 -5.64
Si -7.81 -4.59 -2.44
Si  7.84  4.62  2.41
Si -5.11  6.89 -4.01
Si  5.12 -6.91  4.01
Si -2.04  5.74 -7.28
Si  2.11 -5.79  7.24
Si -0.72  9.19  2.37
Si -5.21 -6.91  4.01
Si  5.22  6.89 -4.01
Si -0.92 -9.17  2.46
Si  0.79 -9.24 -2.41
Si  0.94  9.25 -2.43
Si  9.05  3.45  0.83
Si  3.09  5.75  7.23
Si -9.09 -3.45 -0.80
Si -3.39  2.28  8.86
Si  5.51 -5.74 -5.64
Si  9.45 -0.04  2.43
Si -5.57  5.72  5.61
Si -3.09 -5.77 -7.24
Si  3.49  2.34  8.81
Si  8.62 -2.29 -3.99
Si -6.49 -1.14  7.21
Si  8.61  2.28  4.03
Si  3.45 -2.32 -8.85
Si -8.61  2.33  4.02
Si -8.62 -2.31 -4.01
Si -3.46 -2.34 -8.85
Si -9.49  0.04 -2.37
Si  5.62  3.43  7.27
Si  4.30  0.02 -8.81
Si  6.52  1.17 -7.24
Si -2.61 -9.16 -2.38
Si  2.55 -9.18  2.41
Si -5.64 -3.47 -7.27
Si  2.61  9.17  2.42
Si  7.73  4.61 -3.98
Si  7.76 -4.53 -4.00
Si -4.33 -0.00  8.84
Si -0.53 -8.08  5.61
Si  0.47  8.06 -5.64
Si -2.53  9.21 -2.44
Si -7.73  4.61  4.05
Si  7.32  3.49  5.65
Si  5.68  8.05 -0.81
Si -5.66 -8.07  0.82
Si -7.34 -3.44 -5.69
Si -7.79 -4.64  4.00
Si -1.28  8.06  5.67
Si  1.23 -8.09 -5.64
Si  0.84 -4.56  8.81
Si -9.88 -1.17  0.78
Si  8.16  1.16 -5.64
Si -0.82  4.56 -8.85
Si -3.85  5.76  7.21
Si  9.90  1.19 -0.82
Si  3.87 -5.73 -7.24
Si  0.89  4.64  8.83
Si -8.22 -1.18  5.61
Si  6.81 -6.93  2.43
Si -6.85  6.94 -2.37
Si -0.87 -4.62 -8.87
Si -2.24 -8.02 -5.63
Si -0.81  9.16 -4.05
Si -8.20 -5.77  0.80
Si  6.95  6.88 -2.38
Si  0.92  9.18  4.03
Si  8.26  5.73 -0.79
Si -0.93 -9.21 -4.01
Si  0.75 -9.24  4.00
Si -6.96 -6.92  2.38
Si  2.25  8.06  5.66
Si -9.41  0.00  4.03
Si -6.39  3.47 -7.22
Si -2.98  8.01 -5.65
Si  2.91 -8.09  5.60
Si -2.56  4.58  8.84
Si  6.35 -8.04 -0.83
Si  6.45 -3.42  7.24
Si -2.66 -4.59  8.82
Si  9.49  0.06 -4.00
Si -7.29  1.18 -7.18
Si -2.50  9.16  4.00
Si  2.44 -9.19 -3.98
Si -6.39  8.05  0.80
Si  2.52 -4.61 -8.88
Si  2.62  4.60 -8.85
Si  7.31 -1.10  7.22
Si  6.51  5.71 -5.64
Si -4.77 -5.75  7.20
Si  0.34 -10.33  0.84
Si  4.73  5.71 -7.26
Si -0.36 10.35 -0.81
Si -4.28  9.16  2.39
Si -2.68 -9.19  4.05
Si -6.57 -5.74  5.67
Si  4.24 -9.20 -2.45
Si -8.09  3.45 -5.62
Si  2.71  9.27 -4.00
Si -0.88 -0.05 -10.43
Si  1.36 10.35  0.83
Si  6.85 -6.84 -4.00
Si -6.77  6.90  4.03
Si -1.40 -10.35 -0.80
Si  5.13 -2.32  8.84
Si -9.89  3.40 -0.78
Si  4.41  9.20 -2.42
Si  8.17 -3.39  5.64
Si -4.42 -9.22  2.41
Si  0.88 -0.02 10.47
Si  9.89 -3.47  0.82
Si -5.20 -2.32  8.84
Si  5.16  2.29 -8.88
Si -3.89 -7.98  5.65
Si -5.17  2.29 -8.88
Si -6.97 -6.86 -4.00
Si  3.92  8.06 -5.60
Si  6.96  6.91  3.96
Si  2.04 -10.35 -0.81
Si -2.06 10.37  0.84
Si -6.03  0.02 -8.81
Si  6.00 -0.00  8.84
Si -0.02 -2.30 10.45
Si  8.99 -5.75  0.80
Si -9.05  1.16 -5.60
Si -0.02  2.31 -10.48
Si -9.03  5.76 -0.83
Si  9.08 -1.08  5.65
Si  2.57 -0.00 -10.45
Si  5.56 -5.75  7.20
Si  3.08 10.30 -0.78
Si -9.46  4.58  2.41
Si  9.46 -4.60 -2.42
Si -2.60 -0.00 10.48
Si -5.60  5.71 -7.26
Si -10.30 -2.26 -2.38
Si  0.52  8.06  7.20
Si  1.77  2.28 10.43
Si 10.30  2.27  2.42
Si -4.24  4.58 -8.85
Si -1.69  2.28 10.47
Si  1.72 -2.30 -10.46
Si -3.08 -10.37  0.82
Si -1.75 -2.26 -10.47
Si -10.76  1.19 -0.82
Si  9.53  4.61 -2.45
Si -4.33 -4.62 -8.83
Si  1.20 -8.04  7.21
Si  4.19 -9.19  4.01
Si 10.36 -2.26 -2.38
Si  4.36  4.60  8.83
Si -7.29  5.78 -5.63
Si  7.30 -5.74  5.66
Si -4.66  8.04  5.64
Si 10.78 -1.17  0.78
Si  4.30 -4.62  8.86
Si  7.33  3.43 -7.27
Si -10.36  2.27  2.42
Si  4.65 -8.07 -5.62
Si -0.55 -8.09 -7.26
Si -4.25  9.17 -4.04
Si -9.56 -4.64  2.39
Si -7.35 -3.47  7.27
Si -1.17  8.07 -7.24
Si -4.36 -9.19 -3.99
Si -7.36 -8.07 -0.79
Si  7.41  8.03  0.80
Si  4.37  9.23  4.02
Si  8.21  1.16  7.20
Si  2.19  8.03 -7.24
Si -2.19 -8.05  7.23
Si -8.24 -1.19 -7.26
Si  3.77 -10.35  0.83
Si -3.80 10.35 -0.80
Si -2.94  8.01  7.24
Si  0.04  6.90 -8.82
Si  8.53 -6.86 -2.37
Si -5.92  9.20 -2.42
Si -9.40  4.61 -3.99
Si  9.41 -4.57  4.02
Si -3.39  2.28 -10.44
Si  5.92 -9.22  2.41
Si -0.07 -6.90  8.85
Si -9.07 -3.46  5.64
Si  9.09  3.44 -5.64
Si  6.05  9.16  2.39
Si  3.45 -2.32 10.45
Si -8.57  6.87  2.43
Si -3.46 -2.34 10.45
Si -6.46 -5.73 -7.24
Si -10.26  2.37 -4.00
Si  3.00 -8.06 -7.28
Si  9.48  4.61  4.01
Si  6.48  5.76  7.21
Si  3.49  2.34 -10.48
Si 10.29 -2.29  4.05
Si -6.09 -9.20 -2.45
Si  1.66 -6.88 -8.81
Si  8.65  6.88  2.38
Si -4.33 -0.00 -10.46
Si 10.77  3.40 -0.78
Si  4.30  0.02 10.48
Si -1.69  6.90  8.84
Si  5.67  8.04  5.64
Si -9.54 -4.63 -4.04
Si  1.76  6.85  8.87
Si -8.67 -6.92 -2.38
Si -10.78 -3.47  0.82
Si -1.76 -6.92 -8.82
Si -5.68 -8.07 -5.62
Si -10.37 -2.29  4.05
Si 10.40  2.37 -4.00
Si -6.85  2.34  8.81
Si 11.17  0.04 -2.37
Si  8.13 -3.48 -7.22
Si -0.82  4.56 10.45
Si  4.84 10.33  0.82
Si -0.87 -4.62 10.43
Si  6.87 -2.34 -8.85
Si -6.88 -2.32 -8.85
Si  8.20  5.71  5.60
Si  0.84 -4.56 -10.48
Si -9.93 -1.12 -5.63
Si -11.21 -0.04  2.43
