500
set: 1378.00  0.00  0.00
Si  1.52 -0.89  0.01
Si  0.51 -0.27  2.17
Si  1.28 -0.17 -2.04
Si -0.02  1.61  1.88
Si -2.11  1.40  0.08
Si -2.04 -1.17  0.99
Si -2.29 -0.45 -1.06
Si  0.76  1.71 -2.34
Si -1.36  2.71 -1.13
Si  1.35 -2.74 -1.13
Si  2.30  2.41  1.28
Si -1.26 -1.07 -3.23
Si -1.52 -3.05  1.28
Si  0.60 -4.05  0.08
Si -0.74 -2.95 -2.93
Si  0.57 -2.84  3.08
Si  0.74 -0.98  4.23
Si  4.25 -0.45 -1.06
Si -3.06 -0.55  3.15
Si -2.14  2.61  3.08
Si -1.33  1.50 -4.14
Si  4.42  1.40  0.08
Si -1.19  4.56  0.01
Si  3.47 -0.55  3.15
Si  4.49 -1.17  0.99
Si  1.78  4.29  0.99
Si  2.30 -0.79 -4.21
Si  3.08  2.50 -2.93
Si -4.23  2.41  1.28
Si  2.70 -3.84  1.88
Si -5.01 -0.89  0.01
Si -3.45  2.50 -2.93
Si  1.53  5.00 -1.06
Si -2.89  1.31  4.29
Si -3.06 -3.75 -2.34
Si -1.51 -0.36 -5.28
Si  3.48 -3.75 -2.34
Si -5.25 -0.17 -2.04
Si -3.84 -3.84  1.88
Si  3.64  1.31  4.29
Si -1.43  5.28 -2.04
Si  0.76  4.91  3.15
Si  1.38 -3.96 -4.14
Si  5.17  2.71 -1.13
Si -0.18 -4.14  4.29
Si  4.39  2.61  3.08
Si -5.18 -2.74 -1.13
Si  5.02 -3.05  1.28
Si  2.56  4.38 -3.23
Si  0.43 -5.90 -1.06
Si -4.23 -0.79 -4.21
Si -2.21  5.18  2.17
Si -2.82 -1.26  5.21
Si -0.58  2.80 -5.35
Si  1.52  2.31  5.50
Si  5.27 -1.07 -3.23
Si -0.41  4.66 -4.21
Si -0.80  1.52  6.09
Si  2.13 -2.65 -5.35
Si -0.27 -0.36  6.39
Si -6.03 -0.27  2.17
Si -1.97  4.47  4.23
Si -5.78  1.71 -2.34
Si -4.76  4.29  0.99
Si -2.54 -5.63 -2.04
Si  3.71 -1.26  5.21
Si  2.06 -0.08 -6.26
Si  0.67 -6.62  0.99
Si -2.30 -3.14  5.50
Si -3.98  4.38 -3.23
Si -2.30 -6.34  0.01
Si  1.00  4.19  5.21
Si -0.35 -6.00  3.15
Si  5.20  1.50 -4.14
Si  3.22 -5.72  2.17
Si -3.31 -5.72  2.17
Si  1.54  1.80 -6.55
Si  6.52  1.61  1.88
Si -6.55  1.61  1.88
Si  5.34  4.56  0.01
Si  1.71  6.86  0.08
Si  4.33  5.18  2.17
Si  5.80 -2.95 -2.93
Si -5.00  5.00 -1.06
Si -5.93 -4.05  0.08
Si  4.00 -5.63 -2.04
Si -5.79 -0.98  4.23
Si -5.96 -2.84  3.08
Si  5.03 -0.36 -5.28
Si  7.04 -0.27  2.17
Si -4.40 -2.65 -5.35
Si  1.45 -6.52 -3.23
Si  1.92 -3.93  6.09
Si -0.48 -0.98 -7.44
Si  4.24 -3.14  5.50
Si  5.10  5.28 -2.04
Si  4.24 -6.34  0.01
Si  4.56  4.47  4.23
Si -1.52 -6.25 -4.21
Si  2.31  5.10 -5.28
Si -4.47 -0.08 -6.26
Si  0.04 -2.86 -7.15
Si -5.15 -3.96 -4.14
Si -1.96  7.16 -2.34
Si -5.01  2.31  5.50
Si -2.73  7.07  1.88
Si -2.28 -3.65 -6.55
Si  7.29  1.71 -2.34
Si -0.20 -2.93  7.30
Si  2.69 -0.64  7.37
Si  1.21 -5.81 -5.28
Si -0.41  7.86  1.28
Si  0.93  6.76  4.29
Si -2.67  2.60 -7.15
Si  7.82 -0.17 -2.04
Si  8.06 -0.89  0.01
Si  7.14 -4.05  0.08
Si -5.78  4.91  3.15
Si  3.80  7.07  1.88
Si  7.11 -2.84  3.08
Si -2.92  2.52  7.30
Si -0.65  5.37 -6.26
Si -3.08 -6.44  4.23
Si -3.84 -0.64  7.37
Si -7.27 -2.95 -2.93
Si -4.83  6.86  0.08
Si -7.90  2.71 -1.13
Si  7.89 -2.74 -1.13
Si -5.00  1.80 -6.55
Si  3.46 -6.44  4.23
Si  2.49  6.95 -4.14
Si -4.22  5.10 -5.28
Si  7.28 -0.98  4.23
Si  5.95  2.80 -5.35
Si  0.37  7.95 -2.93
Si -0.11 -6.71  5.21
Si  5.74  1.52  6.09
Si -7.80 -1.07 -3.23
Si -0.04 -1.08  8.44
Si -0.55  1.59 -8.36
Si  3.62  2.52  7.30
Si  3.86  2.60 -7.15
Si -1.76 -5.53 -6.26
Si -6.11 -5.90 -1.06
Si  2.46  8.16 -1.13
Si -4.62 -3.93  6.09
Si  4.25 -3.65 -6.55
Si -2.47 -8.20 -1.13
Si  1.20 -8.50  1.28
Si -5.54  4.19  5.21
Si -2.99  5.09  6.39
Si -8.05 -3.05  1.28
Si -8.58 -1.17  0.99
Si  6.36 -4.14  4.29
Si -8.65  1.40  0.08
Si  6.12  4.66 -4.21
Si  1.68  8.07  3.08
Si -0.02  4.81  7.37
Si  4.58  7.16 -2.34
Si -5.08 -6.52 -3.23
Si -8.82 -0.45 -1.06
Si -5.86 -6.62  0.99
Si  3.55  5.09  6.39
Si  6.26 -0.36  6.39
Si -7.73  4.56  0.01
Si  2.44 -5.82  6.39
Si -6.71 -4.14  4.29
Si  3.08 -0.70 -8.42
Si -7.87  1.50 -4.14
Si -4.05  6.95 -4.14
Si  5.02 -6.25 -4.21
Si  2.86  1.21  8.51
Si  1.98 -8.40 -2.93
Si -3.46 -0.70 -8.42
Si  6.18 -6.00  3.15
Si  6.96 -5.90 -1.06
Si -4.08  8.16 -1.13
Si  4.07 -8.20 -1.13
Si  8.84  2.41  1.28
Si -3.20  4.48 -7.44
Si  3.33  4.48 -7.44
Si -7.12  2.80 -5.35
Si  7.29  4.91  3.15
Si -6.81 -0.36  6.39
Si -3.67  1.21  8.51
Si -6.95  4.66 -4.21
Si  8.31  4.29  0.99
Si -3.25 -8.29  3.08
Si  3.29 -8.29  3.08
Si  2.16 -3.86 -8.36
Si -5.33 -5.81 -5.28
Si -0.34 -9.20 -2.34
Si -0.73 -0.26 -9.50
Si -1.12 -9.29  1.88
Si  8.07  5.00 -1.06
Si -0.96 -4.24  8.51
Si -4.09 -5.82  6.39
Si -8.68  2.61  3.08
Si -1.19  7.76  5.50
Si  4.78 -5.53 -6.26
Si -8.04 -0.36 -5.28
Si -1.13 -6.09  7.37
Si  6.05 -0.98 -7.44
Si -7.33  1.52  6.09
Si -6.88 -6.00  3.15
Si  0.37  4.75 -8.42
Si  3.02  6.97  6.09
Si  7.92 -3.96 -4.14
Si -7.97  5.28 -2.04
Si -5.61  6.76  4.29
Si  8.84 -0.79 -4.21
Si  7.21 -6.62  0.99
Si -0.94  9.74  0.99
Si -1.18  7.25 -6.55
Si -1.69 -8.10 -5.35
Si -2.75  4.38  8.44
Si -3.51  6.97  6.09
Si -4.86  8.07  3.08
Si  2.93 -1.35  9.42
Si  0.74  2.22  9.71
Si  0.20  2.90 -9.57
Si -4.56 -8.40 -2.93
Si  8.06  2.31  5.50
Si -3.22 -9.50  0.08
Si  6.12  7.86  1.28
Si  3.32 -9.50  0.08
Si  7.53  4.19  5.21
Si -6.50 -2.86 -7.15
Si  2.23 -6.43 -7.44
Si  6.33 -2.93  7.30
Si -5.34 -8.50  1.28
Si -9.60 -0.55  3.15
Si  6.58 -2.86 -7.15
Si  5.88  5.37 -6.26
Si  9.23 -3.84  1.88
Si -3.60 -1.35  9.42
Si -4.37 -3.86 -8.36
Si  0.42 -8.59  5.50
Si  3.78  4.38  8.44
Si -7.02 -0.98 -7.44
Si  0.22  4.10  9.42
Si  2.91 -2.56 -9.57
Si -0.16  9.84 -3.23
Si  2.63 10.02  0.01
Si  3.24  8.26 -5.35
Si -6.74 -2.93  7.30
Si  9.62  2.50 -2.93
Si -3.30  8.26 -5.35
Si -8.75  5.18  2.17
Si  5.98  1.59 -8.36
Si -9.43  1.31  4.29
Si -0.74 -6.15 -8.42
Si -6.17  7.95 -2.93
Si -8.51  4.47  4.23
Si 10.01 -0.55  3.15
Si  8.67 -2.65 -5.35
Si -1.58  1.42 10.31
Si -3.62 -2.56 -9.57
Si  8.07  1.80 -6.55
Si -9.60 -3.75 -2.34
Si -2.44 -9.41 -4.14
Si -6.95  7.86  1.28
Si -1.18 10.45 -1.06
Si  9.09  4.38 -3.23
Si  8.60 -0.08 -6.26
Si  6.43 -6.71  5.21
Si -1.05 -0.46 10.61
Si -3.08 -3.24  9.71
Si -9.99  2.50 -2.93
Si  6.50 -1.08  8.44
Si  8.24  6.86  0.08
Si -4.30 -6.43 -7.44
Si -3.91 10.02  0.01
Si -6.57 -1.08  8.44
Si -9.36 -1.26  5.21
Si -6.64 -6.71  5.21
Si  7.99 -6.52 -3.23
Si  3.46 -3.24  9.71
Si  0.15  6.67  8.51
Si  2.54 -9.60  4.29
Si  1.15  8.05 -7.15
Si 10.79 -0.45 -1.06
Si  0.90  7.97  7.30
Si  4.85 -8.10 -5.35
Si  2.84  0.02 -10.48
Si -9.07 -5.63 -2.04
Si -8.83 -3.14  5.50
Si -8.83 -6.34  0.01
Si  5.34  7.76  5.50
Si  5.41 -9.29  1.88
Si  6.90  7.95 -2.93
Si 10.01 -3.75 -2.34
Si  1.85  9.92  4.23
Si -7.19  5.37 -6.26
Si  7.46  6.76  4.29
Si  6.51  4.81  7.37
Si  1.61 10.64  2.17
Si -6.56  4.81  7.37
Si  5.41 -6.09  7.37
Si -1.96 10.36  3.15
Si  2.68 -6.53  8.44
Si  5.58 -4.24  8.51
Si -8.05 -6.25 -4.21
Si  7.74 -5.81 -5.28
Si 10.96  1.40  0.08
Si  4.10 -9.41 -4.14
Si -7.09  1.59 -8.36
Si -1.72  9.65  5.21
Si -10.77  2.41  1.28
Si -3.69  0.02 -10.48
Si 10.18  1.31  4.29
Si  1.14 -4.03 10.31
Si 11.03 -1.17  0.99
Si  5.81 -0.26 -9.50
Si  8.45 -3.93  6.09
Si  5.36  7.25 -6.55
Si  2.32  1.90 -10.77
Si  2.39 10.73 -2.04
Si -10.38 -3.84  1.88
Si  0.43 -9.10 -6.55
Si -4.00 -9.60  4.29
Si  3.09  5.19 -9.50
Si  1.99 -5.71 -9.50
Si  0.18 -11.08 -2.04
Si  5.60  9.74  0.99
Si  2.76 -8.31 -7.15
Si  6.19 -9.20 -2.34
Si -3.86 -6.53  8.44
Si -8.49  7.16 -2.34
Si -1.90 -9.39  6.09
Si -3.44  5.19 -9.50
Si -3.13 10.11 -4.21
Si  2.51 -8.39  7.30
Si -0.60 -11.17  2.17
Si  3.27  7.04 -8.36
Si -3.27  7.04 -8.36
Si -1.50 -3.56 -10.77
Si  3.41 10.11 -4.21
Si -6.17  4.75 -8.42
Si  8.85  5.10 -5.28
Si  9.76 -5.72  2.17
Si -5.79  2.22  9.71
Si  4.96  1.42 10.31
Si  7.73 -8.50  1.28
Si 10.25 -1.26  5.21
Si -8.82 -3.65 -6.55
Si -11.55 -0.89  0.01
Si -10.77 -0.79 -4.21
Si -3.78 -8.31 -7.15
Si -9.85 -5.72  2.17
Si 10.93  2.61  3.08
Si -0.89 -6.81  9.42
Si -4.15 10.73 -2.04
Si  0.29 -0.88 -11.66
Si -4.22  1.90 -10.77
Si -6.88 -9.20 -2.34
Si  0.82 -2.76 -11.37
Si  4.58 10.36  3.15
Si -4.69  9.92  4.23
Si  1.91 -0.73 11.59
Si -8.29 -5.53 -6.26
Si  5.35 10.45 -1.06
Si  0.42 -11.79  0.01
Si -0.40 10.55 -5.28
Si -9.27  7.07  1.88
Si  0.13  5.47 -10.48
Si -4.03 -8.39  7.30
Si  9.23 -0.64  7.37
Si  3.15 -11.36 -1.06
Si -1.90  2.69 -11.37
Si -6.34  2.90 -9.57
Si -10.52  4.38 -3.23
Si -0.98 -5.44 -10.48
Si  6.90  4.75 -8.42
Si -6.12 -8.59  5.50
Si -3.39 -11.36 -1.06
Si  8.21  8.07  3.08
Si -4.93 10.64  2.17
Si  5.80 -6.15 -8.42
Si -9.21  2.60 -7.15
Si  5.48 -0.46 10.61
Si -0.98 -3.03 11.52
Si -7.26 -0.26 -9.50
Si -11.79 -0.17 -2.04
Si  4.82  9.65  5.21
Si -4.55 -5.71 -9.50
Si 11.55 -3.05  1.28
Si -5.39  8.05 -7.15
Si  2.77  5.00 10.61
Si  6.73  2.90 -9.57
Si -6.32  4.10  9.42
Si 11.71  2.71 -1.13
Si -11.72 -2.74 -1.13
Si -7.49 -4.24  8.51
Si  2.84  2.42 11.52
Si  2.37 -11.45  3.15
Si  4.63 -9.39  6.09
Si 10.54 -5.63 -2.04
Si  9.02  6.95 -4.14
Si -11.29  4.29  0.99
Si  6.38  9.84 -3.23
Si -7.66 -9.29  1.88
Si -5.64  7.97  7.30
Si  8.99  8.16 -1.13
Si -9.46  2.52  7.30
Si -9.00 -8.20 -1.13
Si 10.86  5.18  2.17
Si  1.66 -5.91 10.61
Si -7.67 -6.09  7.37
Si -7.73  7.76  5.50
Si 11.81 -1.07 -3.23
Si  6.75  4.10  9.42
Si -3.77  5.00 10.61
Si -9.61 -6.44  4.23
Si  8.51 -8.40 -2.93
Si -5.40 -4.03 10.31
Si -7.47  9.74  0.99
Si -6.70  9.84 -3.23
Si -3.70  2.42 11.52
Si  7.28  2.22  9.71
Si  6.95 -8.59  5.50
Si -1.01 12.31  0.08
Si  0.83 10.54  6.39
Si  5.03 -3.56 -10.77
Si  0.62  9.93 -7.44
Si -7.71  7.25 -6.55
Si  8.98 -5.82  6.39
Si -10.94 -2.65 -5.35
Si  1.20 -11.70 -4.21
Si -4.62 -0.73 11.59
Si 10.77 -3.14  5.50
Si 10.77 -6.34  0.01
Si -0.91 -8.01 -9.57
Si -3.15 -12.07  0.99
Si -1.97  7.67  9.71
Si 11.74  1.50 -4.14
Si -0.80  4.72 11.59
Si -9.53  5.09  6.39
Si -6.39  6.67  8.51
Si  4.64  2.69 -11.37
Si  3.39 -12.07  0.99
Si -4.17 -11.45  3.15
Si  2.24  6.88 10.31
Si  9.99 -6.44  4.23
Si -11.54  5.00 -1.06
Si -1.66 -9.31 -8.36
Si -0.36 -11.89  4.23
Si -2.37 -11.97 -3.23
Si -12.31  1.71 -2.34
Si 10.34  7.07  1.88
Si  8.70 -3.86 -8.36
Si -11.01 -0.08 -6.26
Si  0.96 -10.98 -6.26
Si  0.23  1.69 -12.57
Si 11.10  4.47  4.23
Si  1.08 12.52  1.88
Si -2.61 -11.26 -5.28
Si  6.68  6.67  8.51
Si -7.28 -6.15 -8.42
Si 11.56 -0.36 -5.28
Si -8.22 -8.10 -5.35
Si 11.88  4.56  0.01
Si  9.40  1.21  8.51
Si -0.81 -1.17 12.66
Si -10.38 -0.64  7.37
Si -2.42  4.57 -11.66
Si 10.15  2.52  7.30
Si -12.57 -0.27  2.17
Si -6.10 -9.10 -6.55
Si  9.62 -0.70 -8.42
Si  5.94 -11.17  2.17
Si 10.40  2.60 -7.15
Si  3.17 10.83 -6.26
Si  5.65 -6.81  9.42
Si -2.74 10.26  7.37
Si -2.67 -0.60 -12.64
Si -6.36 -11.08 -2.04
Si 11.64  5.28 -2.04
Si -2.52  8.35 -9.57
Si  2.08  1.12 12.73
Si -3.37 10.83 -6.26
Si  1.86 12.61 -2.34
Si 10.08  5.09  6.39
Si -11.55  2.31  5.50
Si  1.07  9.83  8.44
Si 12.33 -2.95 -2.93
Si -11.69 -3.96 -4.14
Si  1.76 -9.69  8.51
Si -5.72 -2.76 -11.37
Si -10.76  5.10 -5.28
Si -1.38 -11.27  6.39
Si -7.72 10.45 -1.06
Si -0.36 -8.69  9.71
Si  3.92 -11.26 -5.28
Si -0.40  7.35 -10.77
Si -9.74  4.48 -7.44
Si  5.56 -5.44 -10.48
Si -7.59 -0.46 10.61
Si -12.33 -0.98  4.23
Si -1.79 12.21  4.29
