500
set: 454.00  0.00  0.00
Si -0.11  0.21 -0.05
Si  0.12 -1.87  0.72
Si  1.87  1.06  0.59
Si -0.06 -0.08 -2.25
Si -1.93  1.13  0.83
Si -1.63 -3.06 -0.00
Si  1.81  0.97  2.81
Si  1.86 -1.01 -2.85
Si  1.83 -3.11 -0.06
Si -3.61 -0.17  0.10
Si -0.06  2.04 -3.00
Si -0.06 -2.16  2.94
Si -1.80  3.18 -0.06
Si  3.65 -0.17  0.10
Si -1.77  1.08  3.08
Si -1.83 -1.13 -3.13
Si  2.00  3.23 -0.00
Si  0.08  4.04  0.83
Si -3.55 -0.06 -2.12
Si  1.71  3.12 -2.23
Si  1.71 -1.08  3.70
Si -1.89 -1.05  3.63
Si  1.75 -3.15 -2.30
Si  3.71 -0.06 -2.12
Si -3.55 -2.25  0.83
Si  0.08  2.04  3.81
Si -1.89  3.14 -2.30
Si -1.93 -3.18 -2.23
Si  3.71 -2.25  0.83
Si  3.57  2.04 -2.88
Si -3.70  2.04 -2.88
Si -0.07  4.13  3.05
Si -0.07 -4.26 -2.88
Si  3.57 -2.16  3.05
Si -3.70 -2.16  3.05
Si  1.70 -0.97 -5.11
Si  1.70 -5.16  0.83
Si  3.57  2.02  3.68
Si  5.33  1.13  0.83
Si -5.40  1.06  0.59
Si -1.76 -5.23  0.59
Si -3.69  2.02  3.68
Si -0.06 -4.28  3.68
Si -3.52  4.42  0.72
Si  0.12  2.33 -5.22
Si -1.76 -1.03 -5.34
Si  3.75  4.42  0.72
Si  0.02  6.13  0.10
Si -5.26  3.23 -0.00
Si -5.41 -1.01 -2.85
Si  3.58  4.14  2.94
Si -5.46  0.97  2.81
Si -1.80 -1.01  5.88
Si  0.02 -2.26 -5.83
Si -1.77  5.28 -2.85
Si -1.63  1.14 -5.94
Si -5.43 -3.11 -0.06
Si -3.69  4.14  2.94
Si -1.83 -5.32  2.81
Si  1.80  5.17 -3.13
Si  3.58 -4.25 -3.00
Si  5.47  3.18 -0.06
Si  1.86 -5.21  3.08
Si  2.01 -0.96  5.93
Si  0.02  1.93  6.03
Si  1.83  1.09 -5.99
Si  5.44 -1.13 -3.13
Si -3.69 -4.25 -3.00
Si  5.49  1.08  3.08
Si  5.64 -3.06 -0.00
Si  0.02 -6.46  0.10
Si -3.55  1.94 -5.10
Si  5.38 -1.05  3.63
Si  0.08  6.23 -2.12
Si  3.71  1.94 -5.10
Si  5.34 -3.18 -2.23
Si  1.75  5.24  3.63
Si  5.38  3.14 -2.30
Si -1.93  5.21  3.70
Si  0.08 -6.35 -2.12
Si  0.08 -4.35 -5.10
Si -3.55 -4.26  3.81
Si -5.56  3.12 -2.23
Si -5.52 -3.15 -2.30
Si -5.56 -1.08  3.70
Si  0.08 -0.15  6.77
Si  3.71 -4.26  3.81
Si  3.52 -6.08 -0.05
Si -0.11 -3.98  5.88
Si -3.74 -6.08 -0.05
Si  7.16  0.21 -0.05
Si  3.52 -1.88 -5.99
Si  3.52  2.31  5.88
Si -3.74 -1.88 -5.99
Si -3.74  2.31  5.88
Si -7.38  0.21 -0.05
Si  3.52  6.51 -0.05
Si -7.15 -1.87  0.72
Si -0.11  4.41 -5.99
Si -3.52 -3.97 -5.22
Si -1.76  3.16  6.53
Si  1.87 -3.13  6.53
Si -3.74  6.51 -0.05
Si  3.57  6.21 -2.25
Si -3.52  0.23  6.65
Si  7.21 -0.08 -2.25
Si  3.75 -3.97 -5.22
Si -3.69  6.21 -2.25
Si -1.76  7.36  0.59
Si -5.57 -0.97 -5.11
Si  5.50 -5.23  0.59
Si -1.93  5.33 -5.11
Si -5.57 -5.16  0.83
Si  3.75  0.23  6.65
Si  3.57 -6.38 -2.25
Si  7.38 -1.87  0.72
Si  1.70  7.42  0.83
Si -7.33 -0.08 -2.25
Si -1.93 -3.06  6.76
Si  1.70  3.23  6.76
Si -3.69 -6.38 -2.25
Si  1.87  5.26 -5.34
Si  5.50 -1.03 -5.34
Si -3.61  4.03 -5.83
Si  3.65  4.03 -5.83
Si -5.26 -0.96  5.93
Si -1.83  7.26  2.81
Si -1.77 -7.31 -2.85
Si  7.21  2.04 -3.00
Si  7.21 -2.16  2.94
Si  5.47 -1.01  5.88
Si  5.44 -5.32  2.81
Si  1.83  5.28  5.88
Si  2.01 -5.16 -5.94
Si -5.41 -5.21  3.08
Si  5.49  5.28 -2.85
Si -1.80 -5.21 -5.99
Si -1.63  5.33  5.93
Si -5.46  5.17 -3.13
Si -5.43  1.09 -5.99
Si -7.33  2.04 -3.00
Si -7.33 -2.16  2.94
Si  1.86  7.38  3.08
Si  1.81 -7.42 -3.13
Si  5.64  1.14 -5.94
Si -3.61 -4.36  6.03
Si -7.19  4.04  0.83
Si  3.65 -4.36  6.03
Si  5.34  5.21  3.70
Si  0.08 -2.16 -8.05
Si  1.75 -7.35  3.63
Si -7.19  2.04  3.81
Si  7.35  4.04  0.83
Si -5.52  5.24  3.63
Si -1.93  1.02 -8.17
Si -1.93 -7.37  3.70
Si  1.75  1.04 -8.24
Si  7.35  2.04  3.81
Si  0.08 -8.55  0.83
Si -0.07  8.33 -2.88
Si -0.07 -0.06 -8.82
Si  7.20  4.13  3.05
Si  7.20 -4.26 -2.88
Si -3.52 -8.16  0.72
Si -7.33  4.13  3.05
Si -7.33 -4.26 -2.88
Si -0.07 -0.06  8.98
Si -0.07 -8.45  3.05
Si  0.12 -6.07  6.65
Si  3.75 -8.16  0.72
Si -5.40 -3.13  6.53
Si -1.93 -7.26 -5.11
Si -0.06  8.31  3.68
Si  5.33  5.33 -5.11
Si  5.50  3.16  6.53
Si  5.33 -3.06  6.76
Si -7.15  2.33 -5.22
Si  7.21 -4.28  3.68
Si -0.06  4.11 -8.18
Si  3.57 -2.18 -8.18
Si  5.50  7.36  0.59
Si  9.14  1.06  0.59
Si -5.40  5.26 -5.34
Si -3.69 -2.18 -8.18
Si -7.33 -4.28  3.68
Si  1.87 -7.33 -5.34
Si -9.20  1.13  0.83
Si  0.12  6.52  6.65
Si -5.57  7.42  0.83
Si  7.38  2.33 -5.22
Si -5.57  3.23  6.76
Si -8.90 -3.06 -0.00
Si -1.83  3.07  8.74
Si -5.26 -5.16 -5.94
Si -1.77 -3.11 -8.79
Si  1.81 -3.23  8.74
Si -7.25  6.13  0.10
Si  5.44  7.26  2.81
Si -1.63 -7.25  5.93
Si  7.29  6.13  0.10
Si  1.86  3.18 -8.79
Si  9.07  0.97  2.81
Si  3.58  8.33 -3.00
Si  1.83 -7.31  5.88
Si  2.01 -9.35 -0.00
Si  3.58 -0.06  8.87
Si -1.80 -9.40 -0.06
Si -7.25 -2.26 -5.83
Si  5.49 -7.31 -2.85
Si -5.43  5.28  5.88
Si -3.69  8.33 -3.00
Si  7.29 -2.26 -5.83
Si -3.69 -0.06  8.87
Si -9.07  3.18 -0.06
Si -9.04  1.08  3.08
Si  9.13 -1.01 -2.85
Si  9.10 -3.11 -0.06
Si  3.58 -0.06 -8.93
Si -7.25  1.93  6.03
Si  3.58 -8.45  2.94
Si  5.47 -5.21 -5.99
Si  1.83  9.48 -0.06
Si -5.41  7.38  3.08
Si  7.29  1.93  6.03
Si -3.69 -0.06 -8.93
Si -1.63  9.53 -0.00
Si -1.80  7.38 -5.99
Si -3.69 -8.45  2.94
Si -9.10 -1.13 -3.13
Si  0.08  8.24 -5.10
Si -1.77 -3.11  9.01
Si -7.25 -6.46  0.10
Si  2.00  7.43 -5.94
Si -3.55  4.14 -8.05
Si -5.46 -7.42 -3.13
Si  1.86  3.18  9.01
Si  7.29 -6.46  0.10
Si -1.83  3.07 -9.06
Si -7.19  6.23 -2.12
Si  8.97  3.12 -2.23
Si  5.64  5.33  5.93
Si  8.97 -1.08  3.70
Si  1.75  1.04  9.56
Si  3.71  4.14 -8.05
Si  1.81 -3.23 -9.06
Si -3.55  6.14  6.77
Si  5.34  1.02 -8.17
Si  9.27  3.23 -0.00
Si -7.19 -6.35 -2.12
Si  9.02 -3.15 -2.30
Si -7.19 -4.35 -5.10
Si -3.55  8.33  3.81
Si  5.34 -7.37  3.70
Si -1.93  9.41 -2.23
Si  3.71  6.14  6.77
Si  7.35  6.23 -2.12
Si  1.75  9.44 -2.30
Si  1.71 -5.27 -8.17
Si -7.19 -0.15  6.77
Si -1.93  1.02  9.63
Si  1.71 -9.47 -2.23
Si -5.52 -7.35  3.63
Si  3.71  8.33  3.81
Si -1.89 -9.45 -2.30
Si -9.15 -1.05  3.63
Si  7.35 -6.35 -2.12
Si  7.35 -4.35 -5.10
Si -1.89 -5.25 -8.24
Si -9.15  3.14 -2.30
Si -5.52  1.04 -8.24
Si -9.19 -3.18 -2.23
Si  0.08 -2.16  9.75
Si  7.35 -0.15  6.77
Si -3.55 -6.45  6.77
Si  3.71 -6.45  6.77
Si  7.16 -3.98  5.88
Si -0.11 -8.18 -5.99
Si -7.38 -3.98  5.88
Si  7.16  4.41 -5.99
Si  5.33 -7.26 -5.11
Si  8.97 -0.97 -5.11
Si  8.97 -5.16  0.83
Si -0.11  8.61  5.88
Si -9.03 -5.23  0.59
Si -0.06  4.11  9.62
Si -7.38  4.41 -5.99
Si  3.57 -2.18  9.62
Si -3.69 -2.18  9.62
Si -9.03 -1.03 -5.34
Si -5.40 -7.33 -5.34
Si -3.52  8.62 -5.22
Si -5.26 -9.35 -0.00
Si  0.12 10.72  0.72
Si  5.44  3.07  8.74
Si  3.75  8.62 -5.22
Si -8.90  1.14 -5.94
Si -5.41  3.18 -8.79
Si -5.46 -3.23  8.74
Si  5.49 -3.11 -8.79
Si -3.61  8.23  6.03
Si  3.65  8.23  6.03
Si -0.06 10.43  2.94
Si -5.43 -7.31  5.88
Si -0.06  6.24  8.87
Si -9.04  5.28 -2.85
Si -9.07 -1.01  5.88
Si -5.26  7.43 -5.94
Si  5.47 -9.40 -0.06
Si -10.88 -0.17  0.10
Si -0.06  6.24 -8.93
Si  9.07  5.17 -3.13
Si -9.10 -5.32  2.81
Si -0.06 -6.35  8.87
Si 10.92 -0.17  0.10
Si -5.43  9.48 -0.06
Si  5.64 -7.25  5.93
Si  9.10  1.09 -5.99
Si  9.13 -5.21  3.08
Si -0.06 -6.35 -8.93
Si -3.55 10.33  0.83
Si  5.47  7.38 -5.99
Si -0.06 -10.55 -3.00
Si -3.61 -8.56 -5.83
Si  3.65 -8.56 -5.83
Si -5.41  3.18  9.01
Si  5.49 -3.11  9.01
Si  5.44  3.07 -9.06
Si -7.19 -2.16 -8.05
Si  3.71 10.33  0.83
Si -10.82 -0.06 -2.12
Si  0.08 -0.15 -11.03
Si  9.01  5.24  3.63
Si  5.34  9.41 -2.23
Si  9.27 -0.96  5.93
Si -5.46 -3.23 -9.06
Si  5.34  1.02  9.63
Si  5.64  9.53 -0.00
Si -1.89 -5.25  9.56
Si -10.82 -2.25  0.83
Si -5.52  1.04  9.56
Si  1.71  7.31 -8.17
Si  5.38 -9.45 -2.30
Si  7.35 -2.16 -8.05
Si  1.71 -5.28  9.63
Si  5.38 -5.25 -8.24
Si -3.55  4.13  9.75
Si -5.52  9.44 -2.30
Si 10.98 -0.06 -2.12
Si -1.89  7.34 -8.24
Si -7.19 -8.55  0.83
Si -5.56 -5.27 -8.17
Si -9.19  5.21  3.70
Si -5.56 -9.47 -2.23
Si  0.08 -10.55  3.81
Si  3.71  4.13  9.75
Si 10.98 -2.25  0.83
Si  7.35 -8.55  0.83
Si  3.57  6.23 -8.82
Si  7.20  8.33 -2.88
Si  7.20 -0.06 -8.82
Si 10.84  2.04 -2.88
Si -3.70  6.23 -8.82
Si  3.57 10.43  3.05
Si  3.57 -6.36 -8.82
Si 10.84 -2.16  3.05
Si -7.33  8.33 -2.88
Si -7.33 -0.06 -8.82
Si -3.70 10.43  3.05
Si -3.70 -6.36 -8.82
Si -7.15 -6.07  6.65
Si  3.57  6.23  8.98
Si  3.57 -10.55 -2.88
Si  0.12 -10.26 -5.22
Si  7.20 -0.06  8.98
Si  7.20 -8.45  3.05
Si -10.97  2.04 -2.88
Si -3.70  6.23  8.98
Si -3.70 -10.55 -2.88
Si  3.57 -6.36  8.98
Si -9.03  3.16  6.53
Si -10.97 -2.16  3.05
Si -7.33 -0.06  8.98
Si  7.21  8.31  3.68
Si -7.33 -8.45  3.05
Si -1.76 -9.43  6.53
Si -3.70 -6.36  8.98
Si -1.93 -3.06 -11.04
Si 10.84  2.02  3.68
Si  1.70  3.23 -11.04
Si  1.87  9.45  6.53
Si  7.38 -6.07  6.65
Si -1.93 -11.46  0.83
Si  7.21  4.11 -8.18
Si  9.14 -3.13  6.53
Si -9.03  7.36  0.59
Si  1.70 -9.36  6.76
Si  8.97  7.42  0.83
Si -7.33  8.31  3.68
Si -10.79  4.42  0.72
Si  8.97  3.23  6.76
Si  1.87 -11.52  0.59
Si -3.52  0.23 -11.15
Si -7.33  4.11 -8.18
Si -10.96  2.02  3.68
Si -7.15  6.52  6.65
Si  3.57 -10.57  3.68
Si  3.75  0.23 -11.15
Si -0.06 -8.47 -8.18
Si -3.69 -10.57  3.68
Si -9.20  5.33 -5.11
Si  9.14  5.26 -5.34
Si -9.20 -3.06  6.76
Si -1.93  9.52  6.76
Si -1.76  3.16 -11.27
Si  1.87 -3.13 -11.27
Si  0.02 10.32 -5.83
Si  7.38  6.52  6.65
Si 11.02  4.42  0.72
Si  0.02  1.93 -11.77
Si -8.90  5.33  5.93
Si -9.04 -7.31 -2.85
Si 10.84  4.14  2.94
Si -9.10  7.26  2.81
Si  1.83  1.08 11.81
Si -1.83 11.46 -3.13
Si 10.84 -4.25 -3.00
Si -1.63  1.14 11.87
Si -1.77 -11.50  3.08
Si -9.07 -5.21 -5.99
Si  9.10  5.28  5.88
Si -7.19  8.24 -5.10
Si  1.86 11.57 -2.85
Si  2.01 -0.96 -11.87
Si -10.96  4.14  2.94
Si  1.81 -11.62  2.81
Si -1.80 -1.01 -11.92
Si -10.82  1.94 -5.10
Si -10.96 -4.25 -3.00
Si  9.07 -7.42 -3.13
Si  9.13  7.38  3.08
Si  9.27 -5.16 -5.94
Si  7.35  8.24 -5.10
Si  5.38 -5.25  9.56
Si  0.02 -2.26 11.97
Si  9.02 -7.35  3.63
Si -1.89  7.34  9.56
Si -3.55 -8.45 -8.05
Si  1.71 11.51  3.70
Si  1.71  7.31  9.63
Si -10.82 -4.26  3.81
Si -1.89 11.53  3.63
Si  0.02 -10.65  6.03
Si  3.72 -8.45 -8.05
Si  9.02  1.04 -8.24
Si 10.98  1.94 -5.10
Si  5.38  7.34 -8.24
Si -5.56  7.31 -8.17
Si -7.19 -2.16  9.75
Si -5.56 -5.28  9.63
Si -3.55 -10.64 -5.10
Si -9.19  1.02 -8.17
Si -9.19 -7.37  3.70
Si  3.52 -10.28  5.88
Si -0.11 -12.37 -0.05
Si  3.72 -10.64 -5.10
Si 10.98 -4.26  3.81
Si 10.79 -6.08 -0.05
Si  7.35 -2.16  9.75
Si  7.16 -8.18 -5.99
Si -3.74 -10.28  5.88
Si  3.52 -1.88 11.81
Si 10.79 -1.88 -5.99
Si 10.79  2.31  5.88
Si -7.38 -8.18 -5.99
Si -3.74 -1.88 11.81
Si -0.11 -3.98 -11.92
Si -11.01 -6.08 -0.05
Si 10.79  6.51 -0.05
Si -0.11  4.41 11.81
Si -10.79 -3.97 -5.22
Si -1.76 -1.03 12.46
Si  5.33 -3.06 -11.04
Si  7.16  8.61  5.88
Si  3.52  2.31 -11.92
Si  5.33 -11.46  0.83
Si -10.79  0.23  6.65
Si -11.01 -1.88 -5.99
Si 12.60  1.13  0.83
Si -5.40  9.45  6.53
Si 10.84  6.21 -2.25
Si  0.12 -6.07 -11.15
Si -11.01  2.31  5.88
Si  7.21  4.11  9.62
Si -0.06 12.51 -2.25
Si -3.74  2.31 -11.92
Si  5.50 -9.43  6.53
Si -12.66  1.06  0.59
Si -5.40 -11.52  0.59
Si  3.52 10.70 -5.99
Si -7.38  8.61  5.88
