500
set: 641.00  0.00  0.00
Si  0.76 -1.03  0.86
Si -0.76  1.03 -0.86
Si -1.28 -1.08 -0.86
Si  1.28  1.08  0.86
Si -0.40  0.55  2.42
Si  0.40 -0.55 -2.42
Si -2.32  1.08  0.86
Si  2.32 -1.08 -0.86
Si  0.92  1.56 -2.42
Si -0.92 -1.56  2.42
Si  2.84  1.03 -0.86
Si -2.84 -1.03  0.86
Si -0.23  3.14 -0.86
Si  0.23 -3.14  0.86
Si  0.12  2.65  2.42
Si -0.12 -2.65 -2.42
Si -1.79  3.18  0.86
Si  1.79 -3.18 -0.86
Si -1.80 -3.18 -0.86
Si  1.80  3.18  0.86
Si  2.67 -1.56  2.42
Si -2.67  1.56 -2.42
Si -3.19 -0.55 -2.42
Si  3.19  0.55  2.42
Si -1.63 -0.59 -4.15
Si  1.63  0.59  4.15
Si -4.35  1.03 -0.86
Si  4.35 -1.03  0.86
Si -1.11  1.51 -4.15
Si  1.11 -1.51  4.15
Si -1.45 -3.66  2.42
Si  1.45  3.66 -2.42
Si -1.96  0.59  4.15
Si  1.96 -0.59 -4.15
Si -3.36 -3.14  0.86
Si  3.36  3.14 -0.86
Si  4.00 -0.55 -2.42
Si -4.00  0.55  2.42
Si  2.15 -3.66  2.42
Si -2.15  3.66 -2.42
Si  3.47 -2.65 -2.42
Si -3.47  2.65  2.42
Si  3.83 -3.14  0.86
Si -3.83  3.14 -0.86
Si -4.87 -1.08 -0.86
Si  4.87  1.08  0.86
Si  2.48  1.51 -4.15
Si -2.48 -1.51  4.15
Si -1.44  2.70  4.15
Si  1.44 -2.70 -4.15
Si -3.71 -2.65 -2.42
Si  3.71  2.65  2.42
Si  0.29  5.24 -0.86
Si -0.29 -5.24  0.86
Si  4.52  1.56 -2.42
Si -4.52 -1.56  2.42
Si -0.64 -4.76 -2.42
Si  0.64  4.76  2.42
Si  2.15  2.70  4.15
Si -2.15 -2.70 -4.15
Si  1.27 -5.29 -0.86
Si -1.27  5.29  0.86
Si -0.59  3.62 -4.15
Si  0.59 -3.62  4.15
Si  0.05 -0.07 -5.71
Si -0.05  0.07  5.71
Si -2.32 -5.29 -0.86
Si  2.32  5.29  0.86
Si  5.91 -1.08 -0.86
Si -5.91  1.08  0.86
Si -0.57 -2.04  5.71
Si  0.57  2.04 -5.71
Si -2.95  4.76  2.42
Si  2.95 -4.76 -2.42
Si -0.47 -2.17 -5.71
Si  0.47  2.17  5.71
Si -3.31  5.24 -0.86
Si  3.31 -5.24  0.86
Si  3.00  3.62 -4.15
Si -3.00 -3.62  4.15
Si -5.39  3.18  0.86
Si  5.39 -3.18 -0.86
Si  5.39  3.18  0.86
Si -5.39 -3.18 -0.86
Si -0.92  4.81  4.15
Si  0.92 -4.81 -4.15
Si  4.70 -1.51  4.15
Si -4.70  1.51 -4.15
Si -1.63  5.77 -2.42
Si  1.63 -5.77  2.42
Si -1.97 -5.77  2.42
Si  1.97  5.77 -2.42
Si  6.43  1.03 -0.86
Si -6.43 -1.03  0.86
Si  3.88  5.24 -0.86
Si -3.88 -5.24  0.86
Si  5.04  3.66 -2.42
Si -5.04 -3.66  2.42
Si  5.22  0.59  4.15
Si -5.22 -0.59 -4.15
Si -3.54 -0.07 -5.71
Si  3.54  0.07  5.71
Si -3.64  0.07  5.71
Si  3.64 -0.07 -5.71
Si  3.02 -2.04  5.71
Si -3.02  2.04 -5.71
Si  4.23  4.76  2.42
Si -4.23 -4.76 -2.42
Si -3.12  2.17  5.71
Si  3.12 -2.17 -5.71
Si  2.67  4.81  4.15
Si -2.67 -4.81 -4.15
Si  6.26 -1.56  2.42
Si -6.26  1.56 -2.42
Si -4.18  3.62 -4.15
Si  4.18 -3.62  4.15
Si  5.55 -0.59 -4.15
Si -5.55  0.59  4.15
Si  5.04 -2.70 -4.15
Si -5.04  2.70  4.15
Si -0.07  5.72 -4.15
Si  0.07 -5.72  4.15
Si  1.09  4.15 -5.71
Si -1.09 -4.15  5.71
Si  0.99  4.28  5.71
Si -0.99 -4.28 -5.71
Si  6.78  0.55  2.42
Si -6.78 -0.55 -2.42
Si  5.74 -3.66  2.42
Si -5.74  3.66 -2.42
Si  4.87 -5.29 -0.86
Si -4.87  5.29  0.86
Si  4.06  2.17  5.71
Si -4.06 -2.17 -5.71
Si -4.16 -2.04  5.71
Si  4.16  2.04 -5.71
Si  1.16  6.87  2.42
Si -1.16 -6.87 -2.42
Si -0.81 -7.35  0.86
Si  0.81  7.35 -0.86
Si  0.75 -7.39 -0.86
Si -0.75  7.39  0.86
Si  2.50 -4.15  5.71
Si -2.50  4.15 -5.71
Si -6.08 -1.51  4.15
Si  6.08  1.51 -4.15
Si -5.74 -2.70 -4.15
Si  5.74  2.70  4.15
Si -2.60  4.28  5.71
Si  2.60 -4.28 -5.71
Si  1.61 -0.11 -7.43
Si -1.61  0.11  7.43
Si -6.95 -3.14  0.86
Si  6.95  3.14 -0.86
Si  2.43 -6.87 -2.42
Si -2.43  6.87  2.42
Si  1.98  0.11  7.43
Si -1.98 -0.11 -7.43
Si -4.51  4.81  4.15
Si  4.51 -4.81 -4.15
Si -1.09  2.22  7.43
Si  1.09 -2.22 -7.43
Si  1.46 -2.00  7.43
Si -1.46  2.00 -7.43
Si -3.53 -5.72  4.15
Si  3.53  5.72 -4.15
Si  2.79 -7.35  0.86
Si -2.79  7.35 -0.86
Si -7.07  2.65  2.42
Si  7.07 -2.65 -2.42
Si  3.66 -5.72  4.15
Si -3.66  5.72 -4.15
Si -2.84 -7.39 -0.86
Si  2.84  7.39  0.86
Si -5.91 -5.29 -0.86
Si  5.91  5.29  0.86
Si  7.59 -0.55 -2.42
Si -7.59  0.55  2.42
Si -2.13 -2.00  7.43
Si  2.13  2.00 -7.43
Si -7.94  1.03 -0.86
Si  7.94 -1.03  0.86
Si -0.40  6.91  4.15
Si  0.40 -6.91 -4.15
Si -7.42  3.14 -0.86
Si  7.42 -3.14  0.86
Si  7.30  2.65  2.42
Si -7.30 -2.65 -2.42
Si -5.22  5.77 -2.42
Si  5.22 -5.77  2.42
Si -2.50 -2.22 -7.43
Si  2.50  2.22  7.43
Si  1.11 -7.88  2.42
Si -1.11  7.88 -2.42
Si -5.56 -5.77  2.42
Si  5.56  5.77 -2.42
Si -6.54  4.76  2.42
Si  6.54 -4.76 -2.42
Si -4.68 -4.15  5.71
Si  4.68  4.15 -5.71
Si -4.58 -4.28 -5.71
Si  4.58  4.28  5.71
Si  0.94 -4.10  7.43
Si -0.94  4.10 -7.43
Si -8.46 -1.08 -0.86
Si  8.46  1.08  0.86
Si -6.60 -3.62  4.15
Si  6.60  3.62 -4.15
Si -8.11 -1.56  2.42
Si  8.11  1.56 -2.42
Si  2.49  7.88 -2.42
Si -2.49 -7.88  2.42
Si  4.40  7.35 -0.86
Si -4.40 -7.35  0.86
Si  1.61  6.25 -5.71
Si -1.61 -6.25  5.71
Si  0.57 -4.32 -7.43
Si -0.57  4.32  7.43
Si -4.34  7.39  0.86
Si  4.34 -7.39 -0.86
Si  3.19  6.91  4.15
Si -3.19 -6.91 -4.15
Si -4.75 -6.87 -2.42
Si  4.75  6.87  2.42
Si  1.98 -6.25  5.71
Si -1.98  6.25 -5.71
Si -1.51 -6.38 -5.71
Si  1.51  6.38  5.71
Si  6.90 -5.24  0.86
Si -6.90  5.24 -0.86
Si  2.08 -6.38 -5.71
Si -2.08  6.38  5.71
Si -0.46 -7.83  4.15
Si  0.46  7.83 -4.15
Si  2.65  4.10 -7.43
Si -2.65 -4.10  7.43
Si -6.26 -4.81 -4.15
Si  6.26  4.81  4.15
Si  6.61 -2.04  5.71
Si -6.61  2.04 -5.71
Si -3.99  6.91  4.15
Si  3.99 -6.91 -4.15
Si -0.30  0.42 -8.99
Si  0.30 -0.42  8.99
Si -4.68  2.22  7.43
Si  4.68 -2.22 -7.43
Si  5.20 -0.11 -7.43
Si -5.20  0.11  7.43
Si -6.71  2.17  5.71
Si  6.71 -2.17 -5.71
Si -3.02 -4.32 -7.43
Si  3.02  4.32  7.43
Si -7.13 -0.07 -5.71
Si  7.13  0.07  5.71
Si -7.47 -5.24  0.86
Si  7.47  5.24 -0.86
Si  0.82  1.69  8.99
Si -0.82 -1.69 -8.99
Si -5.05  2.00 -7.43
Si  5.05 -2.00  7.43
Si  7.24 -0.07 -5.71
Si -7.24  0.07  5.71
Si  5.57  0.11  7.43
Si -5.57 -0.11 -7.43
Si -6.09  4.15 -5.71
Si  6.09 -4.15  5.71
Si  0.22  2.52 -8.99
Si -0.22 -2.52  8.99
Si -8.29  1.51 -4.15
Si  8.29 -1.51  4.15
Si -3.14  7.83 -4.15
Si  3.14 -7.83  4.15
Si -1.68 -8.97 -2.42
Si  1.68  8.97  2.42
Si  6.19 -4.28 -5.71
Si -6.19  4.28  5.71
Si  6.03 -6.87 -2.42
Si -6.03  6.87  2.42
Si -7.82 -4.76 -2.42
Si  7.82  4.76  2.42
Si  4.70 -7.88  2.42
Si -4.70  7.88 -2.42
Si -1.91  8.97  2.42
Si  1.91 -8.97 -2.42
Si -7.77  3.62 -4.15
Si  7.77 -3.62  4.15
Si -0.23  9.50  0.86
Si  0.23 -9.50 -0.86
Si  4.16 -4.32 -7.43
Si -4.16  4.32  7.43
Si  2.77 -1.69 -8.99
Si -2.77  1.69  8.99
Si -8.98  3.18  0.86
Si  8.98 -3.18 -0.86
Si -8.98 -3.18 -0.86
Si  8.98  3.18  0.86
Si -1.33 -9.46  0.86
Si  1.33  9.46 -0.86
Si -3.29 -0.42  8.99
Si  3.29  0.42 -8.99
Si  5.72  2.00 -7.43
Si -5.72 -2.00  7.43
Si -9.50  1.08  0.86
Si  9.50 -1.08 -0.86
Si  4.53 -4.10  7.43
Si -4.53  4.10 -7.43
Si  8.63  3.66 -2.42
Si -8.63 -3.66  2.42
Si  0.42 -6.21  7.43
Si -0.42  6.21 -7.43
Si  4.05  7.83 -4.15
Si -4.05 -7.83  4.15
Si -8.81 -0.59 -4.15
Si  8.81  0.59  4.15
Si -2.26  9.46 -0.86
Si  2.26 -9.46  0.86
Si -6.38  7.35 -0.86
Si  6.38 -7.35  0.86
Si -7.66 -2.17 -5.71
Si  7.66  2.17  5.71
Si -3.89  0.42 -8.99
Si  3.89 -0.42  8.99
Si  0.05 -6.43 -7.43
Si -0.05  6.43  7.43
Si  6.43  7.39  0.86
Si -6.43 -7.39 -0.86
Si  7.75  2.04 -5.71
Si -7.75 -2.04  5.71
Si -1.34 -3.80 -8.99
Si  1.34  3.80  8.99
Si  6.09  2.22  7.43
Si -6.09 -2.22 -7.43
Si -0.12 -9.02 -4.15
Si  0.12  9.02  4.15
Si  3.37 -2.52  8.99
Si -3.37  2.52 -8.99
Si  5.21  6.25 -5.71
Si -5.21 -6.25  5.71
Si -8.63  2.70  4.15
Si  8.63 -2.70 -4.15
Si  5.10  6.38  5.71
Si -5.10 -6.38 -5.71
Si -8.46  5.29  0.86
Si  8.46 -5.29 -0.86
Si  2.25 -3.80 -8.99
Si -2.25  3.80  8.99
Si  7.12  5.72 -4.15
Si -7.12 -5.72  4.15
Si -9.15  0.59  4.15
Si  9.15 -0.59 -4.15
Si -3.81 -2.52  8.99
Si  3.81  2.52 -8.99
Si -10.02 -1.03  0.86
Si 10.02  1.03 -0.86
Si -3.36 -9.50 -0.86
Si  3.36  9.50  0.86
Si -7.25  5.72 -4.15
Si  7.25 -5.72  4.15
Si  5.57 -6.25  5.71
Si -5.57  6.25 -5.71
Si -0.74 -4.63  8.99
Si  0.74  4.63 -8.99
Si -4.42 -1.69 -8.99
Si  4.42  1.69  8.99
Si -3.17 -6.21  7.43
Si  3.17  6.21 -7.43
Si -1.46  8.36 -5.71
Si  1.46 -8.36  5.71
Si  6.08  7.88 -2.42
Si -6.08 -7.88  2.42
Si -9.85  1.56 -2.42
Si  9.85 -1.56  2.42
Si -5.67  6.38  5.71
Si  5.67 -6.38 -5.71
Si  3.83 -9.50 -0.86
Si -3.83  9.50  0.86
Si -0.58  9.98 -2.42
Si  0.58 -9.98  2.42
Si -8.11  4.81  4.15
Si  8.11 -4.81 -4.15
Si -9.33  3.66 -2.42
Si  9.33 -3.66  2.42
Si -2.13 -8.36  5.71
Si  2.13  8.36 -5.71
Si -1.56  8.49  5.71
Si  1.56 -8.49 -5.71
Si  2.03  8.49  5.71
Si -2.03 -8.49 -5.71
Si  3.54  6.43  7.43
Si -3.54 -6.43 -7.43
Si -3.64  6.43  7.43
Si  3.64 -6.43 -7.43
Si -4.01  6.21 -7.43
Si  4.01 -6.21  7.43
Si  2.85 -4.63  8.99
Si -2.85  4.63 -8.99
Si  3.47 -9.02 -4.15
Si -3.47  9.02  4.15
Si  6.78  6.91  4.15
Si -6.78 -6.91 -4.15
Si -6.25 -4.10  7.43
Si  6.25  4.10 -7.43
Si -9.33 -2.70 -4.15
Si  9.33  2.70  4.15
Si -3.71 -9.02 -4.15
Si  3.71  9.02  4.15
Si -9.67 -1.51  4.15
Si  9.67  1.51 -4.15
Si -10.37 -0.55 -2.42
Si 10.37  0.55  2.42
Si  5.27  8.97  2.42
Si -5.27 -8.97 -2.42
Si -4.92 -9.46  0.86
Si  4.92  9.46 -0.86
Si -3.01 -9.98  2.42
Si  3.01  9.98 -2.42
Si  1.26  0.37 -10.72
Si -1.26 -0.37 10.72
Si  5.50 -8.97 -2.42
Si -5.50  8.97  2.42
Si  8.81 -5.77  2.42
Si -8.81  5.77 -2.42
Si  0.97  9.94 -4.15
Si -0.97 -9.94  4.15
Si -6.62 -4.32 -7.43
Si  6.62  4.32  7.43
Si  8.18  4.28  5.71
Si -8.18 -4.28 -5.71
Si -8.28 -4.15  5.71
Si  8.28  4.15 -5.71
Si  7.94 -7.39 -0.86
Si -7.94  7.39  0.86
Si  0.74 -1.74 -10.72
Si -0.74  1.74 10.72
Si  7.99  7.35 -0.86
Si -7.99 -7.35  0.86
Si  1.73 -5.90 -8.99
Si -1.73  5.90  8.99
Si -9.50 -5.29 -0.86
Si  9.50  5.29  0.86
Si  1.86  5.90  8.99
Si -1.86 -5.90 -8.99
Si -4.94 -3.80 -8.99
Si  4.94  3.80  8.99
Si -2.33  0.37 -10.72
Si  2.33 -0.37 10.72
Si  4.33  4.63 -8.99
Si -4.33 -4.63  8.99
Si 10.54  3.14 -0.86
Si -10.54 -3.14  0.86
Si  7.58 -6.91 -4.15
Si -7.58  6.91  4.15
Si -8.34 -6.87 -2.42
Si  8.34  6.87  2.42
Si  2.62 -9.94  4.15
Si -2.62  9.94 -4.15
Si -9.15 -5.77  2.42
Si  9.15  5.77 -2.42
Si -4.18  9.98 -2.42
Si  4.18 -9.98  2.42
Si -6.73  7.83 -4.15
Si  6.73 -7.83  4.15
Si  6.36 -1.69 -8.99
Si -6.36  1.69  8.99
Si -1.78 -2.48 10.72
Si  1.78  2.48 -10.72
Si -1.81  2.48 -10.72
Si  1.81 -2.48 10.72
Si  0.10  8.31 -7.43
Si -0.10 -8.31  7.43
Si  5.86 -9.46  0.86
Si -5.86  9.46 -0.86
Si -2.85 -1.74 -10.72
Si  2.85  1.74 10.72
Si -10.66  2.65  2.42
Si 10.66 -2.65 -2.42
Si -1.26 -6.74  8.99
Si  1.26  6.74 -8.99
Si  5.05 -8.36  5.71
Si -5.05  8.36 -5.71
Si  0.47  8.54  7.43
Si -0.47 -8.54 -7.43
Si  6.88  0.42 -8.99
Si -6.88 -0.42  8.99
Si  8.27 -2.22 -7.43
Si -8.27  2.22  7.43
Si  5.84 -3.80 -8.99
Si -5.84  3.80  8.99
Si -0.22  3.84 10.72
Si  0.22 -3.84 -10.72
Si  1.39 -11.08 -2.42
Si -1.39 11.08  2.42
Si -11.18  0.55  2.42
Si 11.18 -0.55 -2.42
Si -5.15  8.49  5.71
Si  5.15 -8.49 -5.71
Si 10.14 -4.76 -2.42
Si -10.14  4.76  2.42
Si -10.89 -2.65 -2.42
Si 10.89  2.65  2.42
