500
set: 757.00  0.00  0.00
Si -0.39  1.20 -0.78
Si  0.47 -1.27  0.84
Si -1.32 -1.20 -0.80
Si  1.35  1.15  0.86
Si  2.16 -1.16 -0.84
Si -0.94 -0.01  2.42
Si  0.87  0.01 -2.50
Si -2.26  1.22  0.85
Si  0.06  2.45  2.37
Si -0.10 -2.33 -2.52
Si -3.17 -1.17  0.75
Si  3.20  1.20 -0.88
Si -2.60 -0.03 -2.44
Si  2.64 -0.05  2.56
Si  0.52  3.58 -0.80
Si -0.49 -3.62  0.86
Si -1.78 -2.32  2.37
Si -1.72  2.34 -2.45
Si  1.76 -2.36  2.56
Si -1.33  3.60  0.75
Si  1.35 -3.57 -0.88
Si  1.75  2.44 -2.52
Si  3.93 -1.17  0.75
Si -3.90  1.20 -0.88
Si  0.83  0.05  4.10
Si  2.31  3.50  0.84
Si -2.24 -3.57 -0.78
Si -0.87  0.07 -4.26
Si  2.99 -3.55  0.85
Si -0.05 -2.38  4.12
Si -0.02  2.38 -4.20
Si -3.10  3.62 -0.84
Si  2.68  0.03 -4.06
Si -2.64 -0.05  4.17
Si  3.53 -2.43 -2.45
Si -3.49  2.41  2.56
Si -3.57 -2.43 -2.45
Si  1.71 -2.44 -4.07
Si  3.61  2.41  2.56
Si  4.84  1.22  0.85
Si -1.68  2.36  4.19
Si  1.80  2.39  4.12
Si  4.50 -0.03 -2.44
Si -4.46 -0.05  2.56
Si -4.94 -1.16 -0.84
Si -1.87 -2.39 -4.20
Si -0.76  4.75 -2.44
Si  0.91  4.77  2.42
Si  4.00  3.62 -0.84
Si -0.98 -4.77 -2.50
Si -4.11 -3.55  0.85
Si  0.79 -4.82  2.56
Si -3.54  2.34 -4.07
Si  3.56  2.34 -4.07
Si  0.43 -1.23 -5.76
Si -5.75  1.15  0.86
Si -0.39  1.19  5.82
Si  5.78 -1.20 -0.80
Si -2.62  4.72  2.56
Si -3.52 -2.42  4.19
Si -4.79  3.50  0.84
Si  0.31 -5.93 -0.84
Si  2.65 -4.80 -2.44
Si -4.42  0.03 -4.06
Si  3.58 -2.42  4.19
Si  2.71  4.78 -2.50
Si -2.78 -4.78  2.42
Si  1.39  1.12 -5.78
Si -0.42  6.00  0.85
Si  4.86 -3.57 -0.78
Si  4.46 -0.05  4.17
Si -1.31 -1.19  5.85
Si  1.45  5.97 -0.78
Si -1.38 -6.04  0.84
Si  5.32 -2.32  2.37
Si  2.28 -1.19  5.74
Si  0.84 -4.75 -4.06
Si -1.01 -4.72  4.10
Si  2.08 -5.95  0.75
Si -0.80  4.73  4.17
Si  5.38  2.34 -2.45
Si -5.34 -2.36  2.56
Si -2.06  5.98 -0.88
Si -5.35  2.44 -2.52
Si -2.25  1.22 -5.87
Si  0.98  4.84 -4.26
Si  6.16 -0.01  2.42
Si  3.08  1.23  5.78
Si -3.19 -1.16 -5.77
Si -6.23  0.01 -2.50
Si  3.20  5.93  0.86
Si -2.58  4.80 -4.06
Si -6.63 -1.27  0.84
Si -3.17 -5.97 -0.80
Si -5.75 -3.57 -0.88
Si  5.77  3.60  0.75
Si -0.46 -3.66 -5.78
Si  6.71  1.20 -0.78
Si  2.68  4.83  4.10
Si  0.53  3.59  5.85
Si  4.32 -4.78  2.42
Si  2.62 -4.82  4.17
Si  1.24 -3.55  5.78
Si -2.71 -4.71 -4.26
Si -1.34  3.61 -5.77
Si -4.39  4.78 -2.50
Si -4.45 -4.80 -2.44
Si  4.48  4.72  2.56
Si  3.91 -1.16 -5.77
Si  5.23 -2.39 -4.20
Si -5.30  2.39  4.12
Si  2.27  3.54 -5.76
Si -4.01  1.23  5.78
Si -3.90  5.93  0.86
Si -5.39 -2.44 -4.07
Si -2.24 -3.59  5.82
Si  3.93 -5.97 -0.80
Si  5.42  2.36  4.19
Si -2.98  3.59  5.74
Si -6.27  0.05  4.10
Si  3.00 -3.56 -5.87
Si -6.58  3.58 -0.80
Si  0.12  7.12 -2.45
Si -0.40  1.19 -7.43
Si  6.24  0.07 -4.26
Si -0.08 -7.14  2.56
Si  6.61 -3.62  0.86
Si -4.82 -1.19  5.74
Si  0.44 -1.24  7.49
Si -1.32 -1.18 -7.40
Si -7.49  1.20 -0.78
Si  1.40  1.11  7.47
Si  4.84  1.22 -5.87
Si  4.39 -4.71 -4.26
Si  7.57 -1.27  0.84
Si -4.42  4.83  4.10
Si  4.53  4.80 -4.06
Si -1.94 -7.11 -2.52
Si -4.49 -4.82  4.17
Si  1.69 -7.21 -2.45
Si  7.00 -2.33 -2.52
Si -1.65  7.18  2.56
Si -2.25  1.21  7.38
Si -5.02 -5.95  0.75
Si -7.04  2.45  2.37
Si  1.91  7.22  2.37
Si  5.04  5.98 -0.88
Si  4.12  3.59  5.74
Si  7.16  2.45  2.37
Si  2.27 -1.18 -7.51
Si -7.20 -2.33 -2.52
Si -4.10 -3.56 -5.87
Si  6.12 -4.77 -2.50
Si  3.08  1.23 -7.47
Si -6.20  4.77  2.42
Si -5.71  1.12 -5.78
Si -3.18 -1.17  7.48
Si  0.52  3.59 -7.40
Si  3.47 -7.10  2.37
Si -5.65  5.97 -0.78
Si  0.17  7.13  4.19
Si -0.13 -7.21 -4.07
Si  0.43 -5.96  5.74
Si  6.34  4.75 -2.44
Si -4.83  3.54 -5.76
Si  5.79 -1.19  5.85
Si -3.63 -7.10  2.37
Si -0.45 -3.66  7.47
Si -6.31 -4.82  2.56
Si  7.97  0.01 -2.50
Si  1.23 -3.54 -7.47
Si -1.70  7.11 -4.07
Si  5.72 -6.04  0.84
Si  4.86 -3.59  5.82
Si -8.04 -0.01  2.42
Si -0.41  5.99 -5.87
Si -0.49 -8.34 -0.88
Si -1.33  3.61  7.48
Si -3.51  7.21 -2.52
Si  0.52  8.38  0.75
Si -1.42 -6.01 -5.76
Si  3.59  7.21 -2.52
Si  1.15 -8.33  0.85
Si -7.59 -3.62  0.86
Si  1.45  5.96  5.82
Si  7.62  3.58 -0.80
Si -1.89 -7.16  4.12
Si  1.82  7.16 -4.20
Si  1.74 -7.19  4.19
Si  7.05 -2.38  4.12
Si  3.92 -1.17  7.48
Si -1.25  8.39 -0.84
Si  2.07 -5.94 -5.77
Si -8.42 -1.20 -0.80
Si -2.25 -3.58 -7.43
Si  7.08  2.38 -4.20
Si -4.03  1.23 -7.47
Si  8.46  1.15  0.86
Si  2.28  3.54  7.49
Si -7.15 -2.38  4.12
Si -7.12  2.38 -4.20
Si -2.17  6.00  5.78
Si  2.37  8.35 -0.80
Si  3.01 -3.56  7.38
Si  6.09 -4.72  4.10
Si -2.33 -8.40  0.86
Si -2.94  8.28  0.84
Si -2.98  3.59 -7.51
Si -6.26 -4.75 -4.06
Si  3.23  5.89 -5.78
Si -6.12  4.84 -4.26
Si -6.67 -1.23 -5.76
Si  3.02 -8.35 -0.78
Si  4.86  1.21  7.38
Si  5.76  3.61 -5.77
Si  6.30  4.73  4.17
Si -3.16 -5.96  5.85
Si  7.93  0.05  4.10
Si  6.71  1.19  5.82
Si -5.86 -3.55  5.78
Si -3.46  7.17  4.12
Si  3.39 -7.17 -4.20
Si -4.83 -1.18 -7.51
Si  6.68  6.00  0.85
Si -0.86  0.06  8.99
Si -7.97  0.07 -4.26
Si  3.64  7.17  4.12
Si -6.79 -5.93 -0.84
Si -3.71 -7.17 -4.20
Si -3.87  5.89 -5.78
Si  5.16 -7.11 -2.52
Si -4.09 -3.56  7.38
Si  0.82  0.06 -9.15
Si -8.43  3.60  0.75
Si -5.19  7.22  2.37
Si  8.45 -3.57 -0.88
Si  3.94 -5.96  5.85
Si  4.12  3.59 -7.51
Si  4.16  8.28  0.84
Si -4.08 -8.35 -0.78
Si -5.41 -7.21 -2.45
Si -0.01  2.38  9.05
Si  9.26 -1.16 -0.84
Si  5.45  7.18  2.56
Si -0.06 -2.38 -9.12
Si -8.82  2.34 -2.45
Si -2.65 -0.04 -9.08
Si -5.70  1.11  7.47
Si  5.78 -1.18 -7.40
Si -9.36  1.22  0.85
Si -8.88 -2.32  2.37
Si -6.57  3.59  5.85
Si -7.86  4.75 -2.44
Si -0.40  5.99  7.38
Si -1.69  2.36 -9.06
Si  8.85  2.44 -2.52
Si  8.86 -2.36  2.56
Si  7.41 -5.93 -0.84
Si  6.64 -3.66 -5.78
Si -1.86 -2.40  9.05
Si  7.53 -1.23 -5.76
Si -7.49  1.19  5.82
Si  4.85 -3.58 -7.43
Si  2.69  0.02  9.18
Si -4.82  3.54  7.49
Si  0.43 -5.96 -7.51
Si  7.89 -4.82  2.56
Si  1.79  2.40 -9.12
Si  8.01  4.77  2.42
Si -4.73  8.35 -0.80
Si  1.44  5.96 -7.43
Si -7.52  6.00  0.85
Si  1.72 -2.44  9.18
Si  4.93  6.00  5.78
Si -5.03 -5.94 -5.77
Si  4.76 -8.40  0.86
Si -1.41 -6.01  7.49
Si -8.08 -4.77 -2.50
Si  5.21 -7.16  4.12
Si  2.08 -5.94  7.48
Si  5.40  7.11 -4.07
Si -2.18  6.00 -7.47
Si -5.28  7.16 -4.20
Si -0.77  9.50  2.56
Si  1.09  9.52 -2.44
Si -5.37 -7.19  4.19
Si  0.81 -9.57 -2.44
Si -1.05 -9.60  2.56
Si -9.70 -0.03 -2.44
Si  8.81 -2.44 -4.07
Si -8.78  2.36  4.19
Si -3.17 -5.96 -7.40
Si -3.53 -2.41 -9.06
Si -9.34 -3.57 -0.78
Si  3.57 -2.41 -9.06
Si  3.24  5.89  7.47
Si -5.65  5.96  5.82
Si  9.74 -0.05  2.56
Si  6.70  1.19 -7.43
Si  5.68 -6.01 -5.76
Si  9.41  3.50  0.84
Si  8.90  2.39  4.12
Si -6.66 -1.24  7.49
Si  7.94 -4.75 -4.06
Si -7.90  4.73  4.17
Si  5.77  3.61  7.48
Si  4.45 -0.04 -9.08
Si -3.54  2.33  9.18
Si  3.56  2.33  9.18
Si -5.87 -3.54 -7.47
Si -0.60 -8.32  5.78
Si  2.47 -9.56  2.42
Si -8.97 -2.39 -4.20
Si -4.41  0.02  9.18
Si  0.50  8.39 -5.77
Si -7.56 -3.66 -5.78
Si -2.54  9.56 -2.50
Si -1.13  8.36  5.74
Si  2.75  9.54  2.42
Si -8.12 -4.72  4.10
Si  0.99  4.83  8.99
Si  1.16 -8.33 -5.87
Si -2.82 -9.54 -2.50
Si  5.85  8.39 -0.84
Si  7.63  3.59  5.85
Si -3.86  5.89  7.47
Si -6.98  7.12 -2.45
Si -0.81  4.73 -9.08
Si -5.95 -8.33  0.85
Si  3.93 -5.96 -7.40
Si -8.41 -1.19  5.85
Si  8.49  1.12 -5.78
Si  7.02 -7.14  2.56
Si  8.08  4.84 -4.26
Si -1.02 -4.72 -9.15
Si -10.27 -1.17  0.75
Si  0.84 -4.75  9.18
Si -1.01 -9.52 -4.06
Si 10.30  1.20 -0.88
Si -0.73  9.57 -4.06
Si  1.05  9.50  4.17
Si  7.22  7.12 -2.45
Si -8.48 -6.04  0.84
Si -7.18 -7.14  2.56
Si  8.55  5.97 -0.78
Si  2.38  8.36  5.85
Si -2.30 -8.43 -5.78
Si  0.77 -9.60  4.17
Si -2.70 -4.71  8.99
Si -6.58  3.59 -7.40
Si -2.98  8.32 -5.76
Si  9.78  0.03 -4.06
Si -9.74 -0.05  4.17
Si  2.60 -4.82 -9.08
Si -6.67 -5.96  5.74
Si -7.50  1.19 -7.43
Si  3.02 -8.36  5.82
Si  6.65 -3.66  7.47
Si -2.56  4.79  9.18
Si -6.58  8.38  0.75
Si  6.61 -8.34 -0.88
Si  2.67  4.83 -9.15
Si  7.54 -1.24  7.49
Si  2.54 -9.48 -4.26
Si  5.24 -2.40  9.05
Si  6.69  5.99 -5.87
Si -2.86 -9.50  4.10
Si 10.09 -3.55  0.85
Si  0.24 -10.72  0.75
Si  8.34 -3.55  5.78
Si  4.28 -9.54 -2.50
Si -2.58  9.60  4.10
Si -4.35  9.54  2.42
Si  4.92  6.00 -7.47
Si  0.88  0.00 10.75
Si -5.02 -5.94  7.48
Si -6.93  7.13  4.19
Si -0.21 10.75 -0.88
Si  5.42  2.36 -9.06
Si  6.97 -7.21 -4.07
Si -5.31  2.40 -9.12
Si -8.44  3.61 -5.77
Si -1.53 -10.71 -0.84
Si -10.20  3.62 -0.84
Si -0.95 -0.00 -10.82
Si  4.56  9.56 -2.50
Si  2.82  9.61 -4.26
Si -4.63 -9.56  2.42
Si  1.43 10.77  0.85
Si -5.38 -2.44  9.18
Si  4.12  8.32 -5.76
Si -2.06 10.70  0.86
Si  6.24  0.06  8.99
Si  9.18 -5.95  0.75
Si -9.16  5.98 -0.88
Si -0.09 -2.34 10.72
Si -4.08 -8.36  5.82
Si  2.09 -10.75 -0.80
Si -7.23 -7.21 -4.07
Si  2.63 -0.04 -10.69
Si  7.27  7.13  4.19
Si  9.38 -1.19  5.74
Si  4.40 -4.71  8.99
Si -5.66  5.96 -7.43
Si  1.75 -2.36 -10.69
Si -6.28  0.06 -9.15
Si -11.00  1.20 -0.88
Si -9.72  4.72  2.56
Si -9.36  1.22 -5.87
Si 11.03 -1.17  0.75
Si -2.59 -0.03 10.81
Si  1.76  2.44 10.72
Si  9.75 -4.80 -2.44
Si  0.05  2.46 -10.88
Si -10.59  2.41  2.56
Si  5.69 -6.01  7.49
Si -1.71  2.34 10.79
Si  4.24 -9.50  4.10
Si 10.63 -2.43 -2.45
Si  1.17 -8.34  7.38
Si  7.54 -5.96  5.74
Si -0.61 -8.32 -7.47
Si  9.81  4.78 -2.50
Si -10.67 -2.43 -2.45
Si  7.62  3.59 -7.40
Si -4.50 -4.82 -9.08
Si -7.55 -3.66  7.47
Si -4.72  8.36  5.85
Si  0.51  8.38  7.48
Si -9.88 -4.78  2.42
Si -4.43  4.83 -9.15
Si -7.51  5.99 -5.87
Si -1.79 -2.32 -10.88
Si  3.30 10.75 -0.78
Si 10.71  2.41  2.56
Si -8.42 -1.18 -7.40
Si  4.80 -8.43 -5.78
Si -1.14  8.37 -7.51
Si  4.54  4.79  9.18
Si -7.59 -8.34 -0.88
Si -3.22 -10.82  0.84
Si  7.62  8.38  0.75
Si -4.56 -9.48 -4.26
Si -4.28  9.61 -4.26
Si  8.50  1.11  7.47
Si  4.52  9.60  4.10
Si  2.37  8.37 -7.40
Si -3.81 10.75 -0.78
Si -2.29 -8.43  7.47
Si -3.50  2.41 -10.69
Si -6.01  9.52 -2.44
Si  3.88 -10.82  0.84
Si  3.60  2.41 -10.69
Si  0.16  7.14 -9.06
Si -9.68  4.80 -4.06
Si  9.37  3.54 -5.76
Si -9.34 -3.59  5.82
Si -2.97  8.31  7.49
Si  3.01 -8.36 -7.43
Si -4.47 -0.04 -10.69
Si -8.75  7.18  2.56
Si  3.54 -2.44 10.79
Si  9.71 -4.82  4.17
Si -3.56 -2.44 10.79
Si  6.70  5.99  7.38
Si  8.79 -7.21 -2.45
Si  6.05 -9.60  2.56
Si -10.64  2.34 -4.07
Si 10.66  2.34 -4.07
Si  9.78  4.83  4.10
Si -10.62 -2.42  4.19
Si  1.83  7.15  9.05
Si -0.12 -7.21  9.18
Si -6.67 -5.96 -7.51
Si -9.81 -4.71 -4.26
Si  1.73 -7.19 -9.06
Si  6.33  9.50  2.56
Si 11.10  3.62 -0.84
Si -6.29 -9.57 -2.44
Si  4.51 -0.03 10.81
Si 10.68 -2.42  4.19
Si  8.33 -3.54 -7.47
Si -1.69  7.11  9.18
Si  7.09  2.38  9.05
Si -1.90 -7.15 -9.12
Si  0.78 -4.82 -10.69
Si  8.25 -8.33  0.85
Si -7.11  2.38  9.05
Si  7.04 -2.38 -9.12
Si  5.97  8.36  5.74
Si -9.04 -7.11 -2.52
Si 10.19  1.23  5.78
Si  9.01  7.22  2.37
Si -11.21 -3.55  0.85
Si -5.95 -8.33 -5.87
Si -0.97 -4.77 10.75
Si -0.75  4.74 10.81
Si -8.44  3.61  7.48
Si -7.16 -2.38 -9.12
Si -11.56 -0.05  2.56
