500
set: 1057.00  0.00  0.00
Si  0.49 -1.15  0.80
Si -0.44  1.32 -0.78
Si -1.28 -1.02 -0.82
Si  1.33  1.21  0.82
Si  2.15 -1.14 -0.85
Si -0.81 -0.03  2.45
Si -2.15  1.15  0.85
Si  0.84 -0.04 -2.48
Si -0.03  2.27  2.42
Si -0.02 -2.40 -2.38
Si  3.10  1.17 -0.79
Si -3.13 -1.24  0.79
Si -0.47 -3.47  0.82
Si  2.62 -0.09  2.48
Si -2.66  0.03 -2.45
Si  1.78  2.29 -2.38
Si -1.33  3.44  0.79
Si  0.53  3.67 -0.82
Si  1.30 -3.51 -0.79
Si  1.65 -2.45  2.44
Si -1.67  2.39 -2.50
Si -1.83 -2.41  2.42
Si -2.24 -3.36 -0.78
Si  3.86 -1.24  0.79
Si -3.89  1.17 -0.79
Si -0.92 -0.07 -4.10
Si  0.88 -0.05  4.14
Si  2.29  3.53  0.80
Si  0.10  2.31 -4.07
Si -0.07 -2.38  4.04
Si  3.03 -3.54  0.85
Si -3.04  3.54 -0.85
Si  3.45  2.23  2.44
Si -2.58  0.06  4.03
Si  2.56 -0.11 -4.08
Si -3.54  2.23  2.44
Si -3.47 -2.29 -2.50
Si  3.52 -2.29 -2.50
Si  1.73  2.31  4.04
Si  4.33  0.03 -2.45
Si -1.70 -2.38 -4.07
Si -4.37 -0.09  2.48
Si  1.73 -2.44 -4.04
Si -1.77  2.38  4.07
Si  4.83  1.15  0.85
Si -4.84 -1.14 -0.85
Si  0.99  4.65  2.45
Si -3.96 -3.54  0.85
Si  3.95  3.54 -0.85
Si -0.86  4.72 -2.45
Si -0.96 -4.72 -2.48
Si  0.82 -4.78  2.48
Si -3.46  2.25 -4.04
Si  3.42 -2.31  4.07
Si -2.56  4.59  2.48
Si  3.53  2.25 -4.04
Si  0.44 -1.13 -5.70
Si  2.53 -4.65 -2.45
Si -5.66  1.21  0.82
Si  5.71 -1.02 -0.82
Si  4.75 -3.36 -0.78
Si -0.38  1.33  5.71
Si -3.57 -2.31  4.07
Si  2.64  4.64 -2.48
Si  0.35 -5.82 -0.85
Si -0.35  5.83  0.85
Si -2.61 -4.71  2.45
Si -4.70  3.53  0.80
Si  4.41  0.06  4.03
Si -1.35 -1.02  5.74
Si  1.40  1.19 -5.72
Si -4.43 -0.11 -4.08
Si -1.31 -5.83  0.80
Si -5.21  2.29 -2.38
Si  5.16 -2.41  2.42
Si  1.36  6.01 -0.78
Si  0.88  4.61 -4.10
Si  2.19 -1.16  5.73
Si -2.22  1.10 -5.74
Si -0.78  4.74  4.03
Si -2.09  5.86 -0.79
Si  2.06 -5.92  0.79
Si  5.32  2.39 -2.50
Si  0.75 -4.80 -4.08
Si -0.93 -4.73  4.14
Si -5.34 -2.45  2.44
Si -3.08 -5.70 -0.82
Si -3.05 -1.20 -5.68
Si  3.04  1.21  5.68
Si -6.15 -0.04 -2.48
Si  6.18 -0.03  2.45
Si -6.50 -1.15  0.80
Si  2.61 -4.63  4.03
Si -2.63  4.57 -4.08
Si  5.66  3.44  0.79
Si -0.41 -3.50 -5.72
Si  3.13  5.89  0.82
Si  6.55  1.32 -0.78
Si -5.69 -3.51 -0.79
Si  2.68  4.63  4.14
Si  1.24 -3.48  5.68
Si -1.25  3.49 -5.68
Si -4.35  4.64 -2.48
Si  0.45  3.67  5.74
Si  4.42  4.59  2.48
Si -2.72 -4.76 -4.10
Si  4.38 -4.71  2.45
Si -4.46 -4.65 -2.45
Si  3.91 -5.70 -0.82
Si -2.18 -3.35  5.71
Si  3.94 -1.20 -5.68
Si -3.94  1.21  5.68
Si -5.25  2.31  4.04
Si  5.22  2.38  4.07
Si -5.26 -2.44 -4.04
Si  2.24  3.55 -5.70
Si  5.29 -2.38 -4.07
Si -3.85  5.89  0.82
Si  6.07 -0.07 -4.10
Si -3.00  3.52  5.73
Si  2.96 -3.58 -5.74
Si -6.11 -0.05  4.14
Si  6.52 -3.47  0.82
Si  0.42 -1.13  7.35
Si -0.37  1.32 -7.34
Si -6.46  3.67 -0.82
Si -1.33 -1.02 -7.30
Si  0.13  7.08 -2.50
Si  4.36  4.57 -4.08
Si -1.74  6.92  2.44
Si -4.38 -4.63  4.03
Si  4.77  1.10 -5.74
Si -0.16 -7.14  2.44
Si  1.38  1.19  7.33
Si -4.31  4.63  4.14
Si -4.80 -1.16  5.73
Si  1.78  6.96  2.42
Si -7.43  1.32 -0.78
Si  4.27 -4.76 -4.10
Si  1.72 -6.97 -2.50
Si  7.47 -1.15  0.80
Si  4.90  5.86 -0.79
Si -1.82 -7.08 -2.38
Si  6.96  2.27  2.42
Si -2.24  1.11  7.31
Si  2.21 -1.17 -7.32
Si  6.97 -2.40 -2.38
Si -4.93 -5.92  0.79
Si -7.01  2.27  2.42
Si -7.01 -2.40 -2.38
Si  3.99  3.52  5.73
Si -4.02 -3.58 -5.74
Si -6.00  4.65  2.45
Si  6.03 -4.72 -2.48
Si -3.06 -1.19  7.37
Si  3.06  1.20 -7.37
Si -5.59  1.19 -5.72
Si  5.64 -1.02  5.74
Si -3.40  6.97 -2.38
Si  6.13  4.72 -2.45
Si -0.42 -3.49  7.33
Si  0.04  7.06  4.07
Si -0.42  5.78 -5.74
Si -7.80 -0.03  2.45
Si  5.67 -5.83  0.80
Si  4.80 -3.35  5.71
Si  0.47  8.13  0.79
Si  0.47  3.66 -7.30
Si -6.17 -4.78  2.48
Si -0.07 -7.12 -4.04
Si -1.66  6.93 -4.04
Si  3.58  6.97 -2.38
Si  0.39 -5.85  5.73
Si  7.83 -0.04 -2.48
Si  3.36 -7.10  2.42
Si -4.75  3.55 -5.70
Si -0.51 -8.19 -0.79
Si  1.62 -6.99  4.07
Si  1.26 -3.48 -7.37
Si -1.26  3.49  7.37
Si -1.36 -5.82 -5.70
Si -7.46 -3.47  0.82
Si -5.63  6.01 -0.78
Si  1.90  6.99 -4.07
Si -6.89  2.31 -4.07
Si -3.63 -7.10  2.42
Si -1.87 -7.06  4.04
Si  1.23 -8.22  0.85
Si -2.17 -3.36 -7.34
Si  6.92 -2.38  4.04
Si -1.23  8.23 -0.85
Si -8.26 -1.02 -0.82
Si  7.51  3.67 -0.82
Si  1.42  6.01  5.71
Si  3.92 -1.19  7.37
Si -3.93  1.20 -7.37
Si  2.14 -5.88 -5.68
Si  8.32  1.21  0.82
Si -2.14  5.89  5.68
Si  2.23  3.56  7.35
Si -7.06 -2.38  4.04
Si  7.09  2.31 -4.07
Si -2.27 -8.16  0.82
Si  2.95 -8.04 -0.78
Si -2.98  3.51 -7.32
Si  2.95 -3.58  7.31
Si -3.15 -5.70  5.74
Si -6.11  4.61 -4.10
Si  2.33  8.35 -0.82
Si  6.06 -4.73  4.14
Si -2.90  8.22  0.80
Si -6.55 -1.13 -5.70
Si -3.45  6.99  4.04
Si  4.75  1.11  7.31
Si  6.21  4.74  4.03
Si -5.75 -3.48  5.68
Si  5.74  3.49 -5.68
Si  3.20  5.87 -5.72
Si  3.54  6.99  4.04
Si -4.78 -1.17 -7.32
Si  6.61  1.33  5.71
Si -6.24 -4.80 -4.08
Si  3.49 -7.06 -4.07
Si -6.64 -5.82 -0.85
Si -3.50 -7.06 -4.07
Si  6.63  5.83  0.85
Si  7.86 -0.05  4.14
Si -7.91 -0.07 -4.10
Si  0.89 -0.06 -8.90
Si  3.84 -5.70  5.74
Si -0.94 -0.07  8.94
Si  5.25  6.92  2.44
Si -5.21  6.96  2.42
Si  8.29 -3.51 -0.79
Si -3.79  5.87 -5.72
Si -4.04 -8.04 -0.78
Si -8.32  3.44  0.79
Si  4.01  3.51 -7.32
Si  5.17 -7.08 -2.38
Si -4.04 -3.58  7.31
Si -5.27 -6.97 -2.50
Si  4.09  8.22  0.80
Si  9.14 -1.14 -0.85
Si -9.14  1.15  0.85
Si  0.09  2.31  8.97
Si  5.66 -1.02 -7.30
Si  8.63 -2.45  2.44
Si -5.61  1.19  7.33
Si -0.05 -2.38 -9.00
Si  2.54 -0.11  8.96
Si -8.66  2.39 -2.50
Si -0.44  5.79  7.31
Si  8.77  2.29 -2.38
Si -2.56  0.05 -9.02
Si  0.40 -5.85 -7.32
Si  6.58 -3.50 -5.72
Si  4.82 -3.36 -7.34
Si  7.34 -5.82 -0.85
Si -7.34  5.83  0.85
Si -7.37  1.33  5.71
Si  7.43 -1.13 -5.70
Si -1.72 -2.37  8.97
Si -6.54  3.67  5.74
Si -1.75  2.37 -8.98
Si -4.76  3.56  7.35
Si  1.75  2.30 -9.00
Si -8.82 -2.41  2.42
Si  4.72 -8.16  0.82
Si -1.38 -5.81  7.35
Si -7.85  4.72 -2.45
Si  1.72 -2.43  9.01
Si  7.81 -4.78  2.48
Si -4.85 -5.88 -5.68
Si  4.85  5.89  5.68
Si -5.09  6.99 -4.07
Si  7.98  4.65  2.45
Si -7.95 -4.72 -2.48
Si  1.44  6.01 -7.34
Si -4.66  8.35 -0.82
Si  5.12 -7.06  4.04
Si -0.76  9.27  2.48
Si  5.33  6.93 -4.04
Si  2.12 -5.88  7.37
Si -2.13  5.88 -7.37
Si  0.73 -9.33 -2.45
Si -5.37 -6.99  4.07
Si  0.94  9.40 -2.45
Si -3.13 -5.71 -7.30
Si -0.98 -9.46  2.48
Si -9.23 -3.36 -0.78
Si -8.69 -2.38 -4.07
Si  3.44 -2.31 -8.98
Si  8.72  2.31  4.04
Si  5.63 -5.82 -5.70
Si -3.47  2.25  9.01
Si  3.18  5.88  7.33
Si  8.72 -2.44 -4.04
Si -6.56 -1.13  7.35
Si  3.52  2.25  9.01
Si -3.55 -2.31 -8.98
Si  9.61 -0.09  2.48
Si -8.76  2.38  4.07
Si -7.77  4.74  4.03
Si -9.65  0.03 -2.45
Si -0.56 -8.16  5.68
Si  9.28  3.53  0.80
Si  0.56  8.17 -5.68
Si -5.73 -3.48 -7.37
Si  5.73  3.49  7.37
Si  6.62  1.32 -7.34
Si -2.54  9.33 -2.48
Si  7.74 -4.80 -4.08
Si -7.39 -3.50 -5.72
Si -5.57  6.01  5.71
Si  7.87  4.61 -4.10
Si -4.45 -0.11  8.96
Si  3.86 -5.71 -7.30
Si  4.42  0.05 -9.02
Si  2.58 -9.40  2.45
Si  2.79  9.34  2.45
Si -5.76 -8.22  0.85
Si  5.75  8.23 -0.85
Si -1.20  8.20  5.73
Si  7.44  3.67  5.74
Si  0.87  4.62  8.94
Si -7.92 -4.73  4.14
Si -2.76 -9.41 -2.48
Si -0.91 -4.74 -8.90
Si  1.16 -8.27 -5.74
Si -3.81  5.88  7.33
Si -0.83  9.25 -4.08
Si -6.86  7.08 -2.50
Si -8.34 -1.02  5.74
Si  6.83 -7.14  2.44
Si  0.81 -9.31  4.03
Si -8.30 -5.83  0.80
Si 10.09  1.17 -0.79
Si  0.74 -4.79  8.96
Si -0.76  4.73 -9.02
Si  8.38  1.19 -5.72
Si -2.21 -8.18 -5.72
Si -10.12 -1.24  0.79
Si  1.02  9.42  4.03
Si  3.00 -8.04  5.71
Si  8.35  6.01 -0.78
Si  7.12  7.08 -2.50
Si -1.05 -9.48 -4.08
Si  9.54 -0.11 -4.08
Si -9.57  0.06  4.03
Si  2.25  8.35  5.74
Si -7.14 -7.14  2.44
Si  2.69  4.63 -8.90
Si -2.65  4.58  8.96
Si  6.57 -3.49  7.33
Si -2.94  8.23 -5.70
Si -6.52  8.13  0.79
Si -6.52  3.66 -7.30
Si  6.57  5.78 -5.74
Si  2.62 -4.63 -9.02
Si -7.36  1.32 -7.34
Si  6.48 -8.19 -0.79
Si -2.74 -4.75  8.94
Si  7.41 -1.13  7.35
Si -2.51  9.32  4.14
Si  2.68  9.29 -4.10
Si -6.60 -5.85  5.73
Si -4.19  9.34  2.45
Si -0.29 10.54 -0.79
Si  2.47 -9.44 -4.10
Si  8.23 -3.48  5.68
Si -8.23  3.49 -5.68
Si  0.82 -0.03 10.57
Si  4.23 -9.41 -2.48
Si -4.87 -5.88  7.37
Si  4.86  5.88 -7.37
Si  4.44  9.33 -2.48
Si  2.11 -10.38 -0.82
Si -0.79 -0.04 -10.60
Si -3.99 -8.04  5.71
Si  0.26 -10.61  0.79
Si -1.45 -10.51 -0.85
Si -2.73 -9.42  4.14
Si  1.45 10.51  0.85
Si 10.02 -3.54  0.85
Si  5.24  2.37 -8.98
Si -5.24  2.30 -9.00
Si -10.02  3.54 -0.85
Si -4.41 -9.40  2.45
Si  5.27 -2.37  8.97
Si -6.95  7.06  4.07
Si -5.27 -2.43  9.01
Si  6.92 -7.12 -4.04
Si  7.02  7.06  4.07
Si -6.10 -0.06 -8.90
Si  6.05 -0.07  8.94
Si  4.04  8.23 -5.70
Si -2.05 10.58  0.82
Si -7.06 -7.12 -4.04
Si -9.08  5.86 -0.79
Si  9.04 -5.92  0.79
Si -0.01  2.27 -10.63
Si  9.52 -4.65 -2.45
Si  9.18 -1.16  5.73
Si -9.55  4.59  2.48
Si  2.64 -0.10 -10.56
Si -9.21  1.10 -5.74
Si -4.30  4.63 -8.90
Si  5.61 -5.81  7.35
Si -2.67  0.04 10.59
Si -0.03 -2.39 10.67
Si 10.85 -1.24  0.79
Si 10.44  2.23  2.44
Si -1.69  2.40 10.55
Si  4.34  4.58  8.96
Si -9.60 -4.71  2.45
Si -10.88  1.17 -0.79
Si  9.63  4.64 -2.48
Si  4.25 -4.75  8.94
Si -7.41 -3.49  7.33
Si -5.55  6.01 -7.34
Si -10.46 -2.29 -2.50
Si -3.12 -10.52  0.80
Si -7.41  5.78 -5.74
Si -0.54 -8.17 -7.37
Si  1.66 -2.46 -10.61
Si  7.38 -5.85  5.73
Si  0.54  8.18  7.37
Si -4.30  9.29 -4.10
Si -10.53  2.23  2.44
Si 10.51 -2.29 -2.50
Si -4.37 -4.63 -9.02
Si -1.81 -2.42 -10.63
Si -1.18  8.20 -7.32
Si  1.77  2.29 10.67
Si  7.46  8.13  0.79
Si  7.46  3.66 -7.30
Si  4.78 -8.18 -5.72
Si  1.15 -8.26  7.31
Si -8.32 -1.02 -7.30
Si -7.49 -8.19 -0.79
Si  4.26 -9.42  4.14
Si  4.48  9.32  4.14
Si  3.16 10.69 -0.78
Si  8.37  1.19  7.33
Si -4.73  8.35  5.74
Si -2.22 -8.17  7.33
Si  3.87 -10.52  0.80
Si -4.52 -9.44 -4.10
Si  3.02 -8.04 -7.34
Si -9.17 -3.35  5.71
Si  2.27  8.35 -7.30
Si -3.49 -2.28 10.55
Si  3.50 -2.28 10.55
Si  3.46  2.23 -10.61
Si -3.83 10.69 -0.78
Si  9.60 -4.63  4.03
Si  6.55  5.79  7.31
Si -3.52  2.23 -10.61
Si -8.73  6.92  2.44
Si -9.62  4.57 -4.08
Si 10.41 -2.31  4.07
Si  9.23  3.55 -5.70
Si  0.05  7.06 -8.98
Si -10.45  2.25 -4.04
Si -4.35 -0.10 -10.56
Si  8.70 -6.97 -2.50
Si -2.96  8.24  7.35
Si  4.31  0.04 10.59
Si  6.23  9.27  2.48
Si -6.04  9.40 -2.45
Si  8.76  6.96  2.42
Si -6.58 -5.85 -7.32
Si -0.09 -7.12  9.01
Si  6.01 -9.46  2.48
Si -1.67  6.93  9.01
Si  9.66  4.63  4.14
Si 10.52  2.25 -4.04
Si  1.64 -6.99 -8.98
Si -4.88 -10.38 -0.82
Si -6.26 -9.33 -2.45
Si -10.94 -3.54  0.85
Si 10.94  3.54 -0.85
Si  1.89  7.00  8.97
Si -10.56 -2.31  4.07
Si -8.81 -7.08 -2.38
Si -6.90  2.31  8.97
Si  5.79  8.20  5.73
Si -9.71 -4.76 -4.10
Si 11.32  0.03 -2.45
Si 10.03  1.21  5.68
Si -3.97 -8.04 -7.34
Si -10.04 -1.20 -5.68
Si -1.85 -7.07 -9.00
Si -10.06 -5.70 -0.82
Si  8.25 -3.48 -7.37
Si -8.25  3.49  7.37
Si  6.94 -2.38 -9.00
Si -0.98 -4.72 10.57
Si  1.01  4.65 -10.60
Si -11.35 -0.09  2.48
