500
set: 1546.00  0.00  0.00
Si -0.99 -0.43 -0.53
Si  1.35  0.35  0.59
Si  1.33  0.10 -1.83
Si -1.24  1.99 -0.53
Si  1.60 -2.07  0.59
Si  0.16 -0.43  2.69
Si -2.13 -1.16  1.71
Si -0.75 -2.85 -0.53
Si  1.10  2.77  0.59
Si -2.38  1.26  1.71
Si  1.09  2.52 -1.83
Si -0.09  1.99  2.69
Si  1.58 -2.33 -1.83
Si -2.24  0.08 -2.75
Si  0.41 -2.85  2.69
Si -0.00  0.67 -3.89
Si  3.52  1.26  1.71
Si -2.00 -2.34 -2.75
Si  0.24 -1.75 -3.89
Si  3.76 -1.16  1.71
Si -1.89 -3.58  1.71
Si -2.48  2.50 -2.75
Si  3.65  0.08 -2.75
Si -4.54  0.35  0.59
Si -1.48  4.41 -0.53
Si -4.30 -2.07  0.59
Si  2.52  0.82  4.02
Si -2.62  3.68  1.71
Si  1.84 -4.49  0.59
Si -4.56  0.10 -1.83
Si  4.90 -0.43 -0.53
Si -0.25  3.09 -3.89
Si  3.41  2.50 -2.75
Si  4.66  1.99 -0.53
Si  0.25 -0.14  5.11
Si  2.77 -1.60  4.02
Si -0.33  4.41  2.69
Si  3.27  3.68  1.71
Si -4.32 -2.33 -1.83
Si  0.86  5.19  0.59
Si -3.37  0.82  4.02
Si -0.50 -5.27 -0.53
Si  3.90 -2.34 -2.75
Si  0.84  4.93 -1.83
Si -3.13 -1.60  4.02
Si  1.82 -4.75 -1.83
Si -4.79  2.77  0.59
Si  0.01  2.27  5.11
Si  2.51 -0.78 -4.98
Si  4.01 -3.58  1.71
Si  2.27  3.24  4.02
Si  2.27  1.64 -4.98
Si  0.49 -4.17 -3.89
Si -4.81  2.52 -1.83
Si  0.50 -2.56  5.11
Si -1.75 -4.76 -2.75
Si  5.15 -2.85 -0.53
Si  0.65 -5.27  2.69
Si -3.38 -0.78 -4.98
Si -4.05 -4.49  0.59
Si  4.41  4.41 -0.53
Si -2.73  4.92 -2.75
Si -3.62  3.24  4.02
Si -0.09  0.39 -6.31
Si -5.73 -0.43  2.69
Si -3.63  1.64 -4.98
Si -2.88 -4.02  4.02
Si  3.01 -4.02  4.02
Si -1.64 -6.00  1.71
Si  3.16  4.92 -2.75
Si -4.07 -4.75 -1.83
Si  2.76 -3.20 -4.98
Si -1.99 -0.74  6.25
Si  0.15 -2.03 -6.31
Si  6.05 -0.43  2.69
Si -3.14 -3.20 -4.98
Si  5.81  1.99  2.69
Si  2.02  4.06 -4.98
Si -5.49 -2.85  2.69
Si -0.49  5.51 -3.89
Si -2.23  1.68  6.25
Si -5.98  1.99  2.69
Si  4.14 -4.76 -2.75
Si -0.34  2.81 -6.31
Si -6.89 -0.43 -0.53
Si -0.24  4.70  5.11
Si -2.87  6.10  1.71
Si  3.03  6.10  1.71
Si -1.73  6.83 -0.53
Si -5.65 -1.75 -3.89
Si  5.89  0.67 -3.89
Si -5.89  0.67 -3.89
Si  0.74 -4.99  5.11
Si -1.74 -3.16  6.25
Si  2.03  5.66  4.02
Si  2.09 -6.91  0.59
Si -6.64 -2.85 -0.53
Si -5.03  5.19  0.59
Si  7.25  0.35  0.59
Si -5.05  4.93 -1.83
Si -0.57  6.83  2.69
Si  1.59 -0.72  7.17
Si  3.91 -0.74  6.25
Si  6.30 -2.85  2.69
Si -7.13  1.99 -0.53
Si  3.66  1.68  6.25
Si  7.23  0.10 -1.83
Si  6.14 -1.75 -3.89
Si  1.34  1.70  7.17
Si -3.87  4.06 -4.98
Si  5.65  3.09 -3.89
Si  7.00  2.77  0.59
Si  4.25 -6.00  1.71
Si  5.39 -5.27 -0.53
Si  5.56  4.41  2.69
Si  0.60  7.36 -1.83
Si -5.64 -0.14  5.11
Si  6.98  2.52 -1.83
Si  0.61  7.61  0.59
Si  2.07 -7.17 -1.83
Si -2.38 -0.34 -7.30
Si  0.73 -6.59 -3.89
Si -0.26 -7.69 -0.53
Si  0.40 -4.45 -6.31
Si  7.49 -2.07  0.59
Si -1.50 -7.18 -2.75
Si -5.41 -4.17 -3.89
Si -5.40 -2.56  5.11
Si -2.48  4.10  6.25
Si -6.14  3.09 -3.89
Si -5.24 -5.27  2.69
Si -3.81 -6.91  0.59
Si -3.87  5.66  4.02
Si  6.15 -0.14  5.11
Si  4.17  6.83 -0.53
Si -2.63  2.08 -7.30
Si -2.64 -6.44  4.02
Si  7.47 -2.33 -1.83
Si  1.83 -3.14  7.17
Si -2.89 -5.62 -4.98
Si  3.00 -5.62 -4.98
Si -6.22  4.41  2.69
Si -2.14 -2.76 -7.30
Si  3.51 -0.34 -7.30
Si -5.89  2.27  5.11
Si  5.90  2.27  5.11
Si  4.15 -3.16  6.25
Si  0.90 -7.69  2.69
Si -0.58  5.23 -6.31
Si  3.42  4.10  6.25
Si  3.27  2.08 -7.30
Si  3.26 -6.44  4.02
Si -8.03 -1.16  1.71
Si -6.40 -5.27 -0.53
Si -3.83 -7.17 -1.83
Si  1.10  4.12  7.17
Si  1.78  6.48 -4.98
Si  2.92  7.34 -2.75
Si -2.98  7.34 -2.75
Si -4.31 -0.72  7.17
Si -1.50 -5.58  6.25
Si -8.27  1.26  1.71
Si  6.75  5.19  0.59
Si  6.74  4.93 -1.83
Si  6.38 -4.17 -3.89
Si  1.10  1.17 -8.41
Si  6.39 -2.56  5.11
Si  5.80  0.39 -6.31
Si -8.13  0.08 -2.75
Si -0.74 -1.25  8.47
Si -0.98  1.17  8.47
Si  1.34 -1.25 -8.41
Si -7.38  4.41 -0.53
Si  5.40  5.51 -3.89
Si  3.76 -2.76 -7.30
Si -4.55  1.70  7.17
Si -7.89 -2.34 -2.75
Si -1.40 -8.42  1.71
Si -5.99  0.39 -6.31
Si -7.78 -3.58  1.71
Si -5.74 -2.03 -6.31
Si -0.48  7.12  5.11
Si -5.15 -4.99  5.11
Si -4.06 -3.14  7.17
Si  6.54 -5.27  2.69
Si  4.39 -7.18 -2.75
Si  5.56  2.81 -6.31
Si -0.74  7.93 -3.89
Si  5.66  4.70  5.11
Si  7.74 -4.49  0.59
Si  6.05 -2.03 -6.31
Si -2.87  4.50 -7.30
Si  0.99 -7.41  5.11
Si  5.32  6.83  2.69
Si  3.02  4.50 -7.30
Si  2.78  8.52  1.71
Si -1.89 -5.18 -7.30
Si -4.12  6.48 -4.98
Si -8.38  2.50 -2.75
Si  0.85  3.59 -8.41
Si  1.78  8.08  4.02
Si -5.16 -6.59 -3.89
Si -3.11  8.52  1.71
Si -0.49 -3.67  8.47
Si  7.72 -4.75 -1.83
Si -5.30  7.36 -1.83
Si -6.13  4.70  5.11
Si -5.28  7.61  0.59
Si -1.23  3.59  8.47
Si -6.39  5.51 -3.89
Si -6.23  2.81 -6.31
Si  2.08 -5.56  7.17
Si  1.59 -3.67 -8.41
Si  0.64 -6.87 -6.31
Si  8.41  0.82  4.02
Si -7.64 -4.76 -2.75
Si -8.52  3.68  1.71
Si -2.72  6.52  6.25
Si  4.40 -5.58  6.25
Si -1.97  9.25 -0.53
Si -5.50 -4.45 -6.31
Si  5.64 -7.69 -0.53
Si -4.80  4.12  7.17
Si -5.00 -7.69  2.69
Si  3.17  6.52  6.25
Si -1.25  0.39 -9.54
Si  2.33 -9.33  0.59
Si -4.55 -1.25 -8.41
Si  9.41  1.26  1.71
Si -0.82  9.25  2.69
Si  8.17  3.24  4.02
Si  8.66 -1.60  4.02
Si  4.50 -8.42  1.71
Si  8.16  1.64 -4.98
Si  1.60 -0.47  9.59
Si  0.85  6.54  7.17
Si  6.64 -4.99  5.11
Si -4.80  1.17 -8.41
Si  5.31  5.23 -6.31
Si -7.53 -6.00  1.71
Si -6.47  6.83  2.69
Si -1.00 -2.03 -9.54
Si  8.41 -0.78 -4.98
Si  4.00 -5.18 -7.30
Si -2.65 -8.04 -4.98
Si -3.82 -5.56  7.17
Si -6.15 -7.69 -0.53
Si  0.98 -9.01 -3.89
Si  4.91  1.17  8.47
Si  9.66 -1.16  1.71
Si  1.36  1.95  9.59
Si -4.11  8.08  4.02
Si  9.55  0.08 -2.75
Si -0.83  7.65 -6.31
Si  0.35  9.78 -1.83
Si  6.29 -4.45 -6.31
Si  6.49  7.36 -1.83
Si  5.15 -1.25  8.47
Si  3.25 -8.04 -4.98
Si -3.56 -9.33  0.59
Si -9.02 -1.60  4.02
Si  9.30  2.50 -2.75
Si -2.39 -8.86  4.02
Si  9.17  3.68  1.71
Si  2.31 -9.59 -1.83
Si  6.51  7.61  0.59
Si  0.37 10.03  0.59
Si -1.49  2.81 -9.54
Si  3.92  9.25 -0.53
Si -1.26 -9.60 -2.75
Si -7.88 -0.74  6.25
Si -0.01 -10.11 -0.53
Si  6.63 -6.59 -3.89
Si -9.27  0.82  4.02
Si -4.31 -3.67 -8.41
Si  1.85 -2.89  9.59
Si  7.92  4.06 -4.98
Si -1.25 -8.00  6.25
Si  5.16  7.93 -3.89
Si -4.91 -7.41  5.11
Si -7.62  6.83 -0.53
Si  5.41  7.12  5.11
Si -8.62  4.92 -2.75
Si  1.53  8.90 -4.98
Si  4.66  3.59  8.47
Si  7.24  1.70  7.17
Si  3.50 -8.86  4.02
Si  0.61  6.01 -8.41
Si -7.64 -3.16  6.25
Si -8.13  1.68  6.25
Si  7.48 -0.72  7.17
Si -3.58 -9.59 -1.83
Si -10.19 -2.07  0.59
Si  2.77  6.92 -7.30
Si -0.25 -6.09  8.47
Si  9.79 -2.34 -2.75
Si -5.04  3.59 -8.41
Si -6.48  5.23 -6.31
Si -8.78 -4.02  4.02
Si -10.44  0.35  0.59
Si  8.65 -3.20 -4.98
Si  2.67  9.76 -2.75
Si -1.48  6.01  8.47
Si -4.29 -0.47  9.59
Si  1.14 -10.11  2.69
Si -3.12  6.92 -7.30
Si  7.92  5.66  4.02
Si  1.83 -6.09 -8.41
Si -0.76 -4.45 -9.54
Si -9.28 -0.78 -4.98
Si  8.90 -4.02  4.02
Si  7.98 -6.91  0.59
Si  1.11  4.37  9.59
Si  6.79 -7.69  2.69
Si -10.46  0.10 -1.83
Si  4.65  0.39 -9.54
Si -10.21 -2.33 -1.83
Si -3.22  9.76 -2.75
Si -1.65 -7.60 -7.30
Si  9.90 -3.58  1.71
Si  9.06  4.92 -2.75
Si -7.40 -7.18 -2.75
Si  5.40 -3.67  8.47
Si -5.25 -6.87 -6.31
Si 10.55  1.99 -0.53
Si -4.54  1.95  9.59
Si -9.03 -3.20 -4.98
Si -4.04 -2.89  9.59
Si -8.76  6.10  1.71
Si 10.79 -0.43 -0.53
Si -9.51  3.24  4.02
Si  6.99  4.12  7.17
Si -6.63 -1.25  8.47
Si -6.38  7.12  5.11
Si -0.73  9.54  5.11
Si  7.96 -7.17 -1.83
Si -9.52  1.64 -4.98
Si  4.40  2.81 -9.54
Si  5.07  9.25  2.69
Si  4.89 -2.03 -9.54
Si -2.12  0.44 10.71
Si  1.08  0.92 -10.84
Si -9.95 -4.49  0.59
Si -5.04  6.54  7.17
Si  8.92  6.10  1.71
Si -4.91 -9.01 -3.89
Si -6.88  1.17  8.47
Si  2.32 -7.98  7.17
Si  7.73 -3.14  7.17
Si  6.99  1.17 -8.41
Si  4.63 -9.60 -2.75
Si -1.74  5.23 -9.54
Si  1.33 -1.50 -10.84
Si -1.15 -10.84  1.71
Si -8.28 -0.34 -7.30
Si -6.63  7.93 -3.89
Si -1.88 -1.98 10.71
Si -10.68  2.77  0.59
Si -4.36  8.90 -4.98
Si -0.98 10.36 -3.89
Si  5.07  7.65 -6.31
Si -10.70  2.52 -1.83
Si  1.23 -9.82  5.11
Si -4.06 -6.09 -8.41
Si  4.64 -8.00  6.25
Si  2.09 -5.31  9.59
Si  7.24 -1.25 -8.41
Si -7.39 -5.58  6.25
Si -9.96 -4.75 -1.83
Si -8.03 -2.76 -7.30
Si  7.67  6.48 -4.98
Si -8.37  4.10  6.25
Si 10.30  4.41 -0.53
Si -6.39 -3.67  8.47
Si -7.29 -8.42  1.71
Si  0.89 -9.29 -6.31
Si  4.42  6.01  8.47
Si  2.93  8.94  6.25
Si -2.97  8.94  6.25
Si -3.57 -7.98  7.17
Si  6.88 -7.41  5.11
Si -2.37  2.86 10.71
Si  1.54 10.50  4.02
Si  2.54 10.94  1.71
Si  4.25 -7.60 -7.30
Si  3.77  0.44 10.71
Si  6.75  3.59 -8.41
Si  0.83  3.33 -10.84
Si -5.54  9.78 -1.83
Si  6.54 -6.87 -6.31
Si -8.52  2.08 -7.30
Si 11.04 -2.85 -0.53
Si -8.53 -6.44  4.02
Si 10.04 -4.76 -2.75
Si -5.53 10.03  0.59
Si  0.61  8.96  7.17
Si -4.75 -10.11  2.69
Si  9.56  1.68  6.25
Si -8.79 -5.62 -4.98
Si -3.36 10.94  1.71
Si -4.78  4.37  9.59
Si -3.80 -5.31  9.59
Si  4.02 -1.98 10.71
Si -5.29  6.01 -8.41
Si  1.57 -3.92 -10.84
Si  3.53  2.86 10.71
Si -7.12  3.59  8.47
Si  8.90 -5.62 -4.98
Si  4.16  5.23 -9.54
Si  9.80 -0.74  6.25
Si -9.77  4.06 -4.98
Si -1.63 -4.40 10.71
Si  5.88 -10.11 -0.53
Si  5.14 -4.45 -9.54
Si -5.91 -10.11 -0.53
Si -6.71  9.25  2.69
Si  6.25  9.78 -1.83
Si  0.17  1.17 11.69
Si -0.51 -6.87 -9.54
Si  0.41 -1.25 11.69
Si  0.87  6.79  9.59
Si  8.81  7.34 -2.75
Si  6.75  6.54  7.17
Si -2.40 -10.46 -4.98
Si -8.87  7.34 -2.75
Si  6.26 10.03  0.59
Si  7.48 -3.67 -8.41
Si  7.68  8.08  4.02
Si -4.57 -1.50 -10.84
Si  5.64 -6.09  8.47
Si -7.79 -5.18 -7.30
Si  9.15 -6.44  4.02
Si -4.81  0.92 -10.84
Si  9.16  2.08 -7.30
Si -2.22 11.67 -0.53
Si  9.40 -0.34 -7.30
Si 10.15 -6.00  1.71
Si  0.36  8.43 -8.41
Si -7.14  0.39 -9.54
Si -9.70 -6.91  0.59
Si -1.07 10.07 -6.31
Si  9.31  4.10  6.25
Si -6.89 -2.03 -9.54
Si -11.63 -0.43  2.69
Si  4.75 -10.84  1.71
Si -9.76  5.66  4.02
Si -6.72  7.65 -6.31
Si  6.87 -9.01 -3.89
Si  5.17  9.54  5.11
Si -0.00 -8.51  8.47
Si -4.66 -9.82  5.11
Si -1.07 11.67  2.69
Si -11.38 -2.85  2.69
Si  2.58 -11.75  0.59
Si -2.49  0.90 -11.76
Si -4.36 10.50  4.02
Si -2.25 -1.52 -11.76
Si -1.72  8.43  8.47
Si  7.97 -5.56  7.17
Si  3.49 -10.46 -4.98
Si  4.91 10.36 -3.89
Si -6.14 -6.09  8.47
Si -10.93  5.19  0.59
Si  2.53  9.34 -7.30
Si  1.23 -11.43 -3.89
Si -10.95  4.93 -1.83
Si  2.08 -8.51 -8.41
Si -7.87  9.25 -0.53
Si -2.15 -11.28  4.02
Si 11.70  1.99  2.69
Si 10.06  6.83 -0.53
Si  7.25  1.95  9.59
Si  7.50 -0.47  9.59
Si -1.01 -10.42  6.25
Si -9.72 -7.17 -1.83
Si  6.50  6.01 -8.41
Si -2.61  5.28 10.71
Si -3.32 -11.75  0.59
Si -0.08  3.59 11.69
Si 10.05 -3.16  6.25
Si  3.67 11.67 -0.53
Si 11.95 -0.43  2.69
Si -8.77  4.50 -7.30
Si  3.40  0.90 -11.76
Si  0.66 -3.67 11.69
Si  8.68  8.52  1.71
Si  0.59  5.75 -10.84
Si -7.15 -9.60 -2.75
Si -5.01 -9.29 -6.31
Si -11.54 -1.75 -3.89
Si -4.32 -3.92 -10.84
Si -3.37  9.34 -7.30
Si  0.11 12.20 -1.83
Si -11.87  1.99  2.69
Si  4.26 -4.40 10.71
Si  8.91  4.50 -7.30
Si -1.01 -12.02 -2.75
Si  3.28  5.28 10.71
Si -7.38  2.81 -9.54
Si -1.98  7.65 -9.54
