500
set: 1554.00  0.00  0.00
Si -0.81  1.09 -0.96
Si  1.26 -1.58 -0.84
Si  1.86  1.24 -0.35
Si -1.41 -1.72 -1.45
Si  2.14 -1.01  1.29
Si -2.61  1.38  0.07
Si -3.02 -1.20  0.51
Si  0.69 -0.48  3.23
Si -1.99 -0.63  2.63
Si -1.91  1.94  2.14
Si  0.76  2.08  2.75
Si  2.60  1.80  1.73
Si -1.84  0.53 -3.08
Si -0.73  3.67 -1.45
Si  3.09 -1.86 -1.86
Si  3.31  0.71 -2.30
Si  0.08 -3.31  2.75
Si  1.18 -4.15 -0.35
Si  1.94  3.81 -0.84
Si  1.91 -3.58  1.73
Si  4.24 -1.20  0.51
Si -3.94  0.71 -2.30
Si -1.49 -4.30 -0.96
Si -2.11 -2.29 -3.52
Si -2.59 -3.44  2.14
Si -2.34  4.19  0.51
Si  4.65  1.38  0.07
Si -1.43  3.10 -3.52
Si -4.17 -1.86 -1.86
Si -0.24  0.00 -5.03
Si  3.47 -0.34  3.66
Si  2.44  0.14 -4.43
Si -3.29 -4.01  0.07
Si  2.36 -2.42 -3.94
Si -0.32 -2.57 -4.54
Si -3.79 -0.34  3.66
Si -4.67  1.80  1.73
Si -3.49  3.53 -1.86
Si  0.37  2.81 -4.54
Si  2.82  4.38  1.29
Si -5.12 -1.01  1.29
Si  3.77  3.53 -1.86
Si  1.42  0.08  5.32
Si -5.40  1.24 -0.35
Si -1.31  4.76  2.63
Si  3.97 -4.01  0.07
Si  0.96 -2.74  4.88
Si  1.64  2.65  4.88
Si  3.04  2.96 -3.94
Si  2.63 -4.68 -2.30
Si  3.06 -2.92  4.10
Si  5.27 -0.63  2.63
Si -3.52  2.47  4.10
Si  1.37  4.91  3.23
Si  3.74  2.47  4.10
Si  5.35  1.94  2.14
Si  4.67 -3.44  2.14
Si -2.99 -0.14 -5.45
Si  5.42  0.53 -3.08
Si  5.85 -1.72 -1.45
Si -6.00 -1.58 -0.84
Si -2.52 -4.86 -3.08
Si -0.42  0.36  6.34
Si -4.44  4.38  1.29
Si  4.92  4.19  0.51
Si -4.22  2.96 -3.94
Si -3.09  0.22  5.73
Si -4.82  0.14 -4.43
Si -0.13  6.48 -0.96
Si -4.20 -2.92  4.10
Si -5.32  3.81 -0.84
Si  6.45  1.09 -0.96
Si  5.15 -2.29 -3.52
Si -5.35 -3.58  1.73
Si  1.45 -6.40  1.29
Si  0.00 -5.87  3.23
Si -4.90 -2.42 -3.94
Si -1.16  5.91 -3.08
Si  4.27 -0.14 -5.45
Si -2.77  2.43 -5.89
Si -3.10  5.05  3.66
Si -4.63 -4.68 -2.30
Si -1.93  6.77  0.07
Si  0.58 -6.97 -0.84
Si -0.66  2.25 -6.67
Si  1.75 -5.25 -4.43
Si  4.17  0.22  5.73
Si -2.67 -6.02  2.63
Si  2.55  6.63 -0.35
Si -0.49 -2.21  6.82
Si -0.93 -0.56 -7.11
Si  5.77 -4.30 -0.96
Si -3.26  6.10 -2.30
Si -6.58 -0.48  3.23
Si  2.79 -5.73  3.66
Si -2.49  3.04  6.22
Si -6.50  2.08  2.75
Si -3.17 -2.35  6.22
Si -6.08 -4.15 -0.35
Si  0.45  5.39 -5.03
Si -0.92 -5.39 -5.03
Si -3.45 -2.96 -5.89
Si  4.74 -4.86 -3.08
Si  5.83  3.10 -3.52
Si -1.34 -3.14 -6.67
Si  4.16  5.05  3.66
Si  3.56 -6.59  0.51
Si  0.19  3.18  6.82
Si  0.73 -5.31  5.32
Si -2.10 -7.11 -1.45
Si -3.70 -6.59  0.51
Si  3.81 -2.96 -5.89
Si  6.53  3.67 -1.45
Si  4.00  6.10 -2.30
Si -1.23  7.33  2.14
Si  3.12  5.53 -4.43
Si  4.49  2.43 -5.89
Si  4.09 -2.35  6.22
Si  2.41 -7.25 -1.86
Si  2.29 -2.06  7.25
Si -5.62  2.65  4.88
Si -5.84  0.08  5.32
Si -2.31  5.25 -5.45
Si  2.10  5.47  5.32
Si  4.59 -6.02  2.63
Si  5.95  4.76  2.63
Si  1.45  7.47  2.75
Si  3.28  7.19  1.73
Si -4.47 -5.73  3.66
Si  2.57  0.74  7.69
Si -4.71  6.63 -0.35
Si -1.10 -5.03  6.34
Si -8.07  1.09 -0.96
Si -4.14  5.53 -4.43
Si  0.86 -0.85 -8.13
Si -5.89  4.91  3.23
Si  3.54 -0.70 -7.53
Si -7.18 -3.31  2.75
Si -2.41  5.61  5.73
Si -3.98  7.19  1.73
Si  4.77  3.04  6.22
Si -6.30 -2.74  4.88
Si -3.72 -0.70 -7.53
Si  3.49 -5.17  5.73
Si  7.34 -3.31  2.75
Si  2.98  3.32  7.25
Si  0.46  0.93  8.46
Si  3.59 -5.53 -5.45
Si  0.27  5.75  6.34
Si -3.67 -5.53 -5.45
Si -3.77 -5.17  5.73
Si  7.95 -0.48  3.23
Si -0.25  4.83 -7.11
Si  5.33  6.77  0.07
Si  7.02  0.00 -5.03
Si  6.95 -2.57 -4.54
Si  8.52 -1.58 -0.84
Si -6.89  2.81 -4.54
Si  8.02  2.08  2.75
Si -5.81 -6.40  1.29
Si -5.51 -5.25 -4.43
Si  0.94  1.73 -8.62
Si -2.79 -7.67 -3.52
Si  5.16 -7.11 -1.45
Si -7.99  3.67 -1.45
Si  1.68 -7.81 -3.94
Si -4.85 -7.25 -1.86
Si -8.67 -1.72 -1.45
Si  3.62  1.86 -8.02
Si -3.65  1.86 -8.02
Si -4.97 -2.06  7.25
Si -7.50  0.00 -5.03
Si -4.69  0.74  7.69
Si  6.10  5.91 -3.08
Si  4.95  5.25 -5.45
Si -4.28  3.32  7.25
Si  0.24 -1.64  8.91
Si -0.60 -8.70  2.75
Si -0.05  9.06 -1.45
Si  1.88 -4.64  7.69
Si -7.58 -2.57 -4.54
Si -5.16  5.47  5.32
Si  9.12  1.24 -0.35
Si  1.23 -8.97  1.73
Si -1.00 -7.96 -4.54
Si -0.75  8.49 -3.52
Si  2.93 -3.53 -8.02
Si -2.83  7.86  4.10
Si  7.63  2.81 -4.54
Si  6.84  0.36  6.34
Si -1.81  1.58 -9.03
Si  0.26 -3.66 -8.62
Si  4.85  5.61  5.73
Si -3.04  4.69 -7.53
Si -1.62 -5.95 -7.11
Si  8.44 -4.15 -0.35
Si  1.05  8.20 -4.54
Si  1.55  4.54 -8.13
Si  5.92 -3.14 -6.67
Si  0.28 -8.13  4.88
Si -2.80  8.92 -1.86
Si  6.33 -0.56 -7.11
Si  9.40 -1.01  1.29
Si  4.46 -7.67 -3.52
Si  0.50 -9.54 -0.35
Si  2.38 -8.31  4.10
Si -0.22 -4.46  8.46
Si  2.62  9.19 -0.84
Si -9.17  1.94  2.14
Si -9.10  0.53 -3.08
Si -9.25 -0.63  2.63
Si  6.60  2.25 -6.67
Si -3.27 -8.83  2.14
Si  7.13  6.48 -0.96
Si  2.32  8.04  4.88
Si -6.68 -6.97 -0.84
Si  0.92  3.75  8.91
Si  6.34 -5.39 -5.03
Si  6.03  7.33  2.14
Si -1.66  9.58  0.51
Si -4.33 -3.53 -8.02
Si -8.75 -4.30 -0.96
Si  4.22  4.69 -7.53
Si -2.27 -1.23 -9.48
Si -5.82  7.47  2.75
Si  6.77 -2.21  6.82
Si -7.39  6.48 -0.96
Si -8.69  3.10 -3.52
Si -7.26 -5.87  3.23
Si  7.26 -5.87  3.23
Si -3.54  8.35 -3.94
Si  2.99 -1.50  9.32
Si  4.43  7.86  4.10
Si  3.98 -8.83  2.14
Si  8.22 -2.74  4.88
Si -6.53 -5.31  5.32
Si  3.29 -9.40  0.07
Si  3.73  8.35 -3.94
Si -7.68  0.36  6.34
Si -9.87  1.38  0.07
Si -2.18 -9.69 -0.96
Si  9.20  3.81 -0.84
Si  9.17 -3.58  1.73
Si -2.08  7.82 -5.89
Si -6.81  5.39 -5.03
Si  2.86 -6.09 -7.53
Si -2.49 -3.81 -9.03
Si  0.02  7.64 -6.67
Si  4.46  8.92 -1.86
Si -1.59 -1.36  9.92
Si -8.57  4.76  2.63
Si  9.86  1.80  1.73
Si  6.16 -5.03  6.34
Si  8.68  0.08  5.32
Si -3.97 -9.40  0.07
Si  0.18 -6.24 -8.13
Si -9.37 -2.29 -3.52
Si -1.18 -7.59  6.82
Si -7.07  3.18  6.82
Si -4.64  9.19 -0.84
Si -0.17 -1.42 -10.25
Si  3.25  6.13  7.69
Si -4.27 -1.50  9.32
Si -10.28 -1.20  0.51
Si -5.58 -7.81 -3.94
Si -6.40 -0.85 -8.13
Si  8.63  4.91  3.23
Si  3.50  9.76  1.29
Si -5.38 -4.64  7.69
Si -1.59  4.16 -9.48
Si -4.88 -8.31  4.10
Si -9.60  4.19  0.51
Si  8.90  2.65  4.88
Si  3.41 -7.74  6.22
Si -0.62 10.15  2.63
Si  1.95 -10.07 -2.30
Si  1.61 -7.45  7.25
Si  7.84 -6.97 -0.84
Si  3.60  1.31  9.81
Si -3.76  9.76  1.29
Si -3.67  1.31  9.81
Si -0.99  1.46 10.41
Si -7.75 -2.21  6.82
Si  7.45  3.18  6.82
Si -7.92  2.25 -6.67
Si -4.94  8.04  4.88
Si -4.01  6.13  7.69
Si  1.14  6.32  8.46
Si -1.80  8.42  6.22
Si -4.40 -6.09 -7.53
Si -3.85 -7.74  6.22
Si -9.85 -3.44  2.14
Si  9.70  0.14 -4.43
Si  7.71  5.39 -5.03
Si  5.45  1.58 -9.03
Si  9.62 -2.42 -3.94
Si 10.35 -1.86 -1.86
Si  3.13 -8.35 -5.89
Si -3.58  3.89  9.32
Si -8.42  5.91 -3.08
Si  3.67  3.89  9.32
Si -0.91  4.03  9.92
Si  0.24  1.16 -10.70
Si  4.99 -1.23 -9.48
Si -6.32  1.73 -8.62
Si 10.57  0.71 -2.30
Si  5.64 -5.95 -7.11
Si -8.19 -0.56 -7.11
Si  8.71 -6.40  1.29
Si -6.80  0.93  8.46
Si  4.77 -3.81 -9.03
Si -5.71  4.54 -8.13
Si -6.03 -8.97  1.73
Si  7.99 -5.31  5.32
Si  5.08 -9.69 -0.96
Si  2.05 10.30  3.23
Si  0.87  8.57  6.82
Si  0.52  3.97 -10.25
Si -8.18 -5.39 -5.03
Si  2.91 -4.08  9.81
Si -2.03 -8.53 -6.67
Si -4.13 -8.35 -5.89
Si -6.99  5.75  6.34
Si 10.08  4.38  1.29
Si  5.18  7.82 -5.89
Si  7.01  4.83 -7.11
Si  1.80  1.60 10.83
Si  6.26 -7.96 -4.54
Si  5.61  9.58  0.51
Si -3.21 -10.25 -3.08
Si  9.89 -4.68 -2.30
Si -2.96  7.25 -8.02
Si -6.21  8.20 -4.54
Si -1.67 -3.93 10.41
Si  6.51  8.49 -3.52
Si -10.55 -4.01  0.07
Si  6.66 -8.70  2.75
Si  1.63  7.11 -8.62
Si -2.42 10.44  3.66
Si -8.61 -3.14 -6.67
Si  9.01 -5.25 -4.43
Si 10.73 -0.34  3.66
Si -9.78 -4.86 -3.08
Si -0.44 -7.03  8.91
Si  7.53  5.75  6.34
Si  1.39 -0.98 11.27
Si -9.19  6.77  0.07
Si -7.51  4.83 -7.11
Si -8.49  7.33  2.14
Si 10.30  2.96 -3.94
Si  4.05 -10.25 -3.08
Si -2.54  1.02 -11.12
Si -7.02 -1.64  8.91
Si -11.21  0.71 -2.30
Si -10.75  3.53 -1.86
Si -1.13  6.97 -9.03
Si -4.35 -4.08  9.81
Si 10.32 -2.92  4.10
Si  7.72  0.93  8.46
Si  5.67 -1.36  9.92
Si -0.44 -4.23 -10.70
Si  8.12 -0.85 -8.13
Si  1.12 -3.79 10.83
Si -6.34  3.75  8.91
Si  1.07 -10.64 -4.43
Si 11.50 -1.20  0.51
Si -10.25 -0.14 -5.45
Si -5.31 -10.07 -2.30
Si  4.30  7.25 -8.02
Si -8.36 -5.03  6.34
Si -11.05 -0.34  3.66
Si  7.21  9.06 -1.45
Si -7.00 -3.66 -8.62
Si -6.76 -9.54 -0.35
Si -0.48 11.30 -3.08
Si -11.43 -1.86 -1.86
Si -7.31  9.06 -1.45
Si 11.03  3.53 -1.86
Si -0.68 -11.26  3.23
Si  7.50 -1.64  8.91
Si -6.99 -8.13  4.88
Si -10.78  2.47  4.10
Si  8.71  7.47  2.75
Si  5.67  4.16 -9.48
Si  5.46  8.42  6.22
Si  2.31 -6.89  9.32
Si -5.65 -7.45  7.25
Si -10.35  0.22  5.73
Si -9.36 -7.11 -1.45
Si  9.81  6.63 -0.35
Si  7.04 -4.46  8.46
Si -10.03  2.43 -5.89
Si  6.08 -7.59  6.82
Si  0.77 -11.79  1.29
Si -3.60  8.71  7.25
Si  2.11 -11.12  3.66
Si  3.66  8.71  7.25
Si -9.93 -6.02  2.63
Si  0.55 11.87 -0.96
Si 11.23 -4.01  0.07
Si  2.04  0.87 -11.72
Si -2.95 -6.62 -9.48
Si  0.05 -10.70  5.32
Si  1.13 10.78 -5.03
Si -9.75  3.04  6.22
Si -5.21 10.30  3.23
Si 11.91  1.38  0.07
Si -2.58 11.49 -2.30
Si 11.00  2.47  4.10
Si -1.60 -10.78 -5.03
Si  7.52 -3.66 -8.62
Si  5.23 -8.53 -6.67
Si  8.20  1.73 -8.62
Si -7.86 -8.70  2.75
Si -1.62 10.64 -5.45
Si  4.84 10.44  3.66
Si  9.36  5.47  5.32
Si -10.37  5.05  3.66
Si -0.72 -0.80 12.05
Si  7.54 -8.13  4.88
Si  4.72  1.02 -11.12
Si 10.05 -5.73  3.66
Si -7.48 -4.46  8.46
Si -3.15 -1.80 -11.60
Si  9.55 -2.06  7.25
Si -3.35 -11.41  2.63
Si -11.93  1.80  1.73
Si -8.01  8.49 -3.52
Si -9.57  5.25 -5.45
Si  2.25 -8.92 -8.02
Si -6.12  6.32  8.46
Si -2.28 -6.75  9.92
Si -1.24 12.16  0.07
Si  9.67 -7.25 -1.86
Si -5.46  1.60 10.83
Si  6.27  1.46 10.41
Si -2.98  6.70  9.81
Si -3.46 10.92 -4.43
Si  2.07  4.41 11.27
Si  7.76 -9.54 -0.35
Si -1.78 -10.42  6.34
Si  2.88 -11.98  0.51
Si  2.81 -10.56  5.73
Si -0.85 -6.81 -10.25
Si  4.31 -6.62 -9.48
Si -8.26 -7.96 -4.54
Si  3.90 -11.41  2.63
Si -10.43 -2.35  6.22
Si -3.23 -4.37 -11.12
Si -10.52  6.10 -2.30
Si  3.80 10.92 -4.43
Si -0.11 -12.36 -0.84
Si -2.47  3.58 -11.60
Si  6.63 10.15  2.63
Si  2.78 10.86  5.32
Si  4.11 -1.80 -11.60
Si  1.44 -1.94 -12.21
Si  6.35  4.03  9.92
Si  3.23 12.02 -0.35
Si  5.59 -3.93 10.41
Si  0.43 10.22 -7.11
Si -7.24  7.64 -6.67
Si -7.08 -6.24 -8.13
Si -0.31  6.85 10.41
Si  8.49 -8.97  1.73
Si  7.28  7.64 -6.67
Si -12.38 -1.01  1.29
Si -11.48  2.96 -3.94
Si  9.83  0.74  7.69
Si -0.42 -9.05 -8.62
Si  8.94 -7.81 -3.94
Si -11.46 -2.92  4.10
Si -5.63  7.11 -8.62
Si -1.72 11.00  5.73
Si  8.31  8.20 -4.54
Si  2.90 -10.92 -5.45
Si  7.09 -1.42 -10.25
Si -11.70  4.38  1.29
Si -9.67  5.61  5.73
Si 10.38  5.53 -4.43
Si -10.71 -2.96 -5.89
Si  0.93  6.55 -10.70
Si 11.93 -3.44  2.14
Si -4.95 -6.89  9.32
Si  4.04 -4.37 -11.12
Si  4.68 11.49 -2.30
Si  4.28  6.70  9.81
Si  1.36 -4.52 -11.72
Si -0.26  2.02 12.49
Si  8.18  3.75  8.91
Si  7.44 -6.24 -8.13
Si 10.82 -6.59  0.51
Si -4.03 12.02 -0.35
Si -6.39  8.57  6.82
Si  1.20 -10.03  7.69
Si -12.66  1.24 -0.35
Si -7.43 -1.42 -10.25
Si -5.87 -0.98 11.27
Si 11.53 -0.14 -5.45
Si -4.38 -11.98  0.51
