500
set: 249.00  0.00  0.00
Si -0.03 -0.01 -0.01
Si -0.01  0.01 -2.21
Si -1.83  1.05  0.72
Si  1.82  1.05  0.75
Si  0.02 -2.11  0.76
Si -1.82  1.05  2.94
Si  1.82 -3.14 -0.02
Si -1.80  3.15 -0.00
Si -1.82 -1.06 -2.96
Si  3.63 -0.00 -0.02
Si  1.81 -1.04 -2.98
Si  1.84  3.14  0.00
Si -1.82 -3.17  0.00
Si  1.86  1.04  2.96
Si -0.01 -2.10  2.99
Si -3.66 -0.00  0.03
Si  0.01  2.12 -3.00
Si  0.01  2.05  3.69
Si  0.04  4.16  0.74
Si  3.62  0.01 -2.24
Si -3.65  0.04 -2.20
Si  1.82 -3.14 -2.24
Si -3.65 -2.09  0.71
Si  1.83  3.14 -2.23
Si  1.82 -1.04  3.72
Si -1.82 -3.18 -2.21
Si  3.64 -2.12  0.78
Si -1.81  3.18 -2.23
Si -1.83 -1.07  3.73
Si -0.03  4.17  2.99
Si -0.02 -4.19 -2.97
Si -3.62  2.14 -2.96
Si -3.64 -2.10  2.98
Si  3.65 -2.07  3.00
Si  3.66  2.12 -2.98
Si  5.41  1.06  0.73
Si  0.01 -4.17  3.69
Si  3.66  2.10  3.67
Si  1.79 -1.02 -5.20
Si  3.63  4.18  0.76
Si -3.64  4.19  0.73
Si  1.81 -5.25  0.73
Si -1.82 -5.26  0.76
Si -3.66  2.12  3.70
Si  0.01  2.12 -5.21
Si -1.79 -1.05 -5.23
Si -5.48  1.06  0.73
Si  1.79  1.05 -5.87
Si -1.76  1.01 -5.92
Si -0.00  6.27 -0.01
Si -1.79  5.24 -2.94
Si -5.43 -1.02 -2.97
Si -3.61 -4.18 -2.98
Si  5.43  3.15 -0.02
Si  1.84 -1.03  5.92
Si  3.65 -4.20 -2.94
Si  0.00 -2.08 -5.94
Si -5.45  1.07  2.96
Si -0.01 -6.29 -0.02
Si  5.45  1.07  2.96
Si  0.02  2.12  5.93
Si -5.46  3.15 -0.02
Si  5.47 -1.02 -2.97
Si  5.45 -3.17 -0.01
Si -5.45 -3.17 -0.01
Si  3.69  4.16  2.98
Si  1.79 -5.24  3.02
Si -1.76 -5.28  2.98
Si  1.84  5.26 -2.98
Si -1.79 -1.05  5.96
Si -3.66  4.20  3.02
Si -0.01 -6.26 -2.21
Si  3.60 -4.20  3.69
Si  1.83  5.23  3.69
Si -0.01 -0.00  6.66
Si -3.62 -4.21  3.69
Si  5.44 -1.07  3.70
Si  3.60  2.10 -5.21
Si  5.44 -3.15 -2.24
Si -1.85  5.24  3.69
Si  5.44  3.18 -2.21
Si -3.62  2.08 -5.21
Si -0.01  6.29 -2.24
Si -5.46 -1.07  3.70
Si -5.46 -3.15 -2.24
Si -5.46  3.18 -2.21
Si -0.01 -4.22 -5.19
Si  0.01 -4.17  5.89
Si  7.24 -0.00  0.03
Si -0.01  4.19 -5.90
Si  3.63  6.27  0.00
Si -3.59 -2.11 -5.93
Si -3.61 -6.30  0.00
Si -3.64  2.11  5.92
Si -7.26 -0.00 -0.02
Si  3.62  2.09  5.94
Si  3.65 -6.29 -0.00
Si -3.63  6.30 -0.02
Si  3.63 -2.10 -5.96
Si  3.63  6.26 -2.21
Si -1.83  5.22 -5.17
Si  3.64 -6.25 -2.23
Si -1.81 -3.11  6.67
Si -1.81  7.31  0.78
Si  7.25 -2.09  0.71
Si  7.25  0.04 -2.20
Si -3.63 -4.19 -5.18
Si  3.62 -4.22 -5.17
Si -3.63  0.00  6.66
Si  1.82  5.25 -5.18
Si -3.62 -6.29 -2.23
Si  1.80  7.34  0.71
Si -1.83  3.15  6.66
Si -5.41 -5.28  0.74
Si  1.83 -3.15  6.67
Si -3.63  6.29 -2.24
Si -7.26 -2.12  0.78
Si  3.63 -0.03  6.69
Si -5.44 -1.10 -5.21
Si -7.28  0.01 -2.24
Si  5.46 -1.10 -5.21
Si  1.80  3.19  6.70
Si  5.49 -5.28  0.74
Si -1.80 -5.22 -5.89
Si  1.82 -7.30 -2.96
Si  5.42  1.03 -5.91
Si -3.62 -4.15  5.94
Si -1.79 -7.32 -2.98
Si  1.81 -5.24 -5.92
Si -7.24  2.12 -2.98
Si  5.43 -1.05  5.93
Si  5.43  5.24 -2.97
Si  3.65  4.22 -5.89
Si  3.66 -4.18  5.92
Si -1.79  5.26  5.92
Si -3.64  4.20 -5.92
Si -7.25 -2.07  3.00
Si  7.26 -2.10  2.98
Si -5.48  1.03 -5.91
Si  5.42 -5.26  2.99
Si  1.81  7.34  2.98
Si -5.47 -1.05  5.93
Si -5.47  5.24 -2.97
Si  7.27  2.14 -2.96
Si -1.80  7.36  3.00
Si  1.82  5.29  5.94
Si -5.48 -5.26  2.99
Si -7.24  2.10  3.67
Si  1.79 -7.32  3.70
Si -1.79 -7.34  3.67
Si -1.82  1.04 -8.13
Si  7.24  2.12  3.70
Si -0.03 -8.38  0.73
Si  7.26  4.19  0.73
Si -7.27  4.18  0.76
Si -5.44  5.26  3.69
Si -0.03 -2.08 -8.16
Si  5.46  5.26  3.69
Si  1.81  1.04 -8.17
Si -7.21  4.16  2.98
Si -7.24 -4.20 -2.94
Si  0.00 -8.37  2.96
Si -0.00 -0.03  8.88
Si  7.24  4.20  3.02
Si  7.29 -4.18 -2.98
Si -0.01 -0.00 -8.92
Si  0.02  8.41 -2.97
Si -0.01  8.36  3.70
Si  0.02  4.18 -8.14
Si -5.43  7.33  0.76
Si  5.44  5.22 -5.19
Si  9.07  1.05  0.72
Si -3.63 -2.10 -8.14
Si  5.44 -3.12  6.69
Si -5.46  5.22 -5.19
Si  3.62 -8.39  0.72
Si -9.08  1.05  0.75
Si -3.63 -8.39  0.75
Si  5.47  7.33  0.76
Si -5.46 -3.12  6.69
Si -0.01 -6.29  6.69
Si  7.28 -4.21  3.69
Si  5.44  3.15  6.69
Si -5.45  3.15  6.69
Si  7.28  2.08 -5.21
Si  3.62 -2.10 -8.18
Si -1.85 -7.34 -5.21
Si -7.30 -4.20  3.69
Si  1.83 -7.35 -5.21
Si -0.01  6.32  6.69
Si -7.30  2.10 -5.21
Si -9.04  1.04  2.96
Si  1.79 -3.15 -8.87
Si -9.06  3.14  0.00
Si  5.44 -5.24 -5.90
Si -1.81  3.14  8.88
Si -3.63  0.01  8.88
Si -7.25 -6.29 -0.00
Si -5.44  5.26  5.89
Si  3.62  8.38 -2.96
Si  1.81 -7.33  5.92
Si  9.08  1.05  2.94
Si -3.61 -0.00 -8.89
Si -7.27  6.27  0.00
Si  9.07 -1.06 -2.96
Si -5.46 -5.24 -5.90
Si  1.79  9.43  0.03
Si -1.82  3.13 -8.89
Si -3.59 -8.40  2.96
Si  3.63 -8.39  2.94
Si  5.46  5.26  5.89
Si -5.44 -7.32 -3.00
Si  7.26  2.11  5.92
Si -1.80 -3.14  8.90
Si -9.08 -3.14 -0.02
Si -1.81  9.43 -0.02
Si  1.79 -9.44  0.03
Si  5.46 -7.32 -3.00
Si  5.44  7.34  2.99
Si  3.63 -0.02  8.90
Si  1.86  7.33 -5.93
Si -1.81 -9.44 -0.02
Si  9.08 -3.17  0.00
Si -9.09 -1.04 -2.98
Si  3.65  0.01 -8.90
Si  7.27  6.30 -0.02
Si  1.84 -3.15  8.90
Si -7.27  2.09  5.94
Si -3.64  8.40 -2.98
Si -5.46  7.34  2.99
Si -1.82 -7.35  5.94
Si -1.82  7.34 -5.96
Si  9.10  3.15 -0.00
Si -7.27 -2.10 -5.96
Si  1.79  3.14  8.93
Si -1.81 -3.15 -8.92
Si  7.29 -6.30  0.00
Si  1.82  3.16 -8.92
Si  7.31 -2.11 -5.93
Si  1.80 -9.39 -2.20
Si  3.64  4.17 -8.12
Si  1.80  1.05  9.60
Si -7.25 -6.25 -2.23
Si  0.01  8.34 -5.21
Si -7.27  6.26 -2.21
Si -1.81 -5.27 -8.12
Si -5.41  1.01 -8.16
Si  3.62 -6.28  6.66
Si  3.62  8.37  3.73
Si -9.06  3.14 -2.23
Si -3.62  6.29  6.67
Si  7.26  0.00  6.66
Si  7.27 -4.19 -5.18
Si -3.65 -6.25  6.70
Si  9.06 -1.07  3.73
Si -1.83 -9.43 -2.24
Si -9.08 -3.14 -2.24
Si  0.04 -2.13  9.63
Si -9.08 -1.04  3.72
Si  7.26  6.29 -2.24
Si  9.08 -3.18 -2.21
Si -3.63  8.39  3.72
Si -7.27 -0.03  6.69
Si -7.28 -4.22 -5.17
Si -1.83  9.45 -2.24
Si  7.28 -6.29 -2.23
Si  5.49  1.01 -8.16
Si -5.44 -7.39  3.69
Si  9.09  3.18 -2.23
Si  3.64  6.33  6.67
Si  1.80 -5.24 -8.19
Si  1.80  9.48 -2.20
Si  5.46 -7.39  3.69
Si -1.81  1.02  9.68
Si -3.65  4.20 -8.19
Si -7.24 -4.18  5.92
Si -7.25  4.22 -5.89
Si  7.26  4.20 -5.92
Si  7.27 -4.15  5.94
Si -0.02  8.39  5.93
Si -0.03 -8.41 -5.91
Si -5.44 -7.32 -5.21
Si -3.64 -2.10  9.62
Si  5.46 -7.32 -5.21
Si -0.03  4.21  9.63
Si  9.08 -5.26  0.76
Si -9.09 -5.25  0.73
Si -0.03 10.50  0.73
Si  3.63 -2.11  9.66
Si -9.11 -1.02 -5.20
Si  3.66  8.39 -5.23
Si -3.66  8.41 -5.20
Si  9.11 -1.05 -5.23
Si 10.87 -0.01 -0.01
Si -3.66 -8.38 -5.87
Si -5.43 -7.32  5.93
Si  5.42  9.43 -0.01
Si -9.06 -1.03  5.92
Si  0.02 -10.46 -2.97
Si  5.43 -3.15  8.88
Si  5.42  3.13  8.89
Si -0.01  6.29  8.88
Si -9.10  1.05 -5.87
Si -5.46 -3.15  8.88
Si -9.06  5.26 -2.98
Si  5.47 -7.32  5.93
Si  5.42 -3.16 -8.90
Si  5.42 -9.45 -0.01
Si -0.03  6.28 -8.90
Si -3.61  8.40  5.92
Si -0.03 -6.30  8.89
Si  5.45  3.12 -8.91
Si -5.45  3.12 -8.91
Si -5.48  9.43 -0.01
Si -5.48  3.13  8.89
Si  9.10  5.24 -2.94
Si -5.45  7.36 -5.94
Si  5.45  7.36 -5.94
Si  0.00 10.50  2.96
Si -5.48 -3.16 -8.90
Si  3.65  8.39  5.96
Si -5.48 -9.45 -0.01
Si -0.00 -6.32 -8.91
Si -10.93 -0.01 -0.01
Si  9.13  1.01 -5.92
Si -9.10 -5.24  3.02
Si  9.10 -1.05  5.96
Si  3.69 -8.43 -5.92
Si  9.13 -5.28  2.98
Si  9.05  5.24  3.69
Si  3.62  4.19  9.62
Si -9.07  5.23  3.69
Si -5.43 -5.25 -8.14
Si -10.88 -2.11  0.76
Si -1.83 -5.25  9.62
Si -0.01  0.03 -11.11
Si  5.44 -9.43 -2.21
Si  1.82  7.34 -8.14
Si  3.62 10.48  0.72
Si 10.89  0.01 -2.21
Si  7.27 -2.10 -8.14
Si -5.45 -9.43 -2.21
Si -3.63 10.48  0.75
Si  5.44  9.44 -2.21
Si  5.47 -5.25 -8.14
Si -10.90  0.01 -2.21
Si  7.27 -8.39  0.75
Si -5.45  9.44 -2.21
Si -5.43  1.04  9.66
Si -3.63  4.19  9.65
Si -7.28 -8.39  0.72
Si  1.82 -5.25  9.65
Si -1.83  7.34 -8.18
Si -0.01 -10.51  3.70
Si 10.92 -2.11  0.76
Si -7.28 -2.10 -8.18
Si  5.47  1.04  9.66
Si -3.59 10.48  2.96
Si  7.27  0.01  8.88
Si -3.66  6.29 -8.87
Si  3.63 -6.29  8.88
Si -7.25  0.01 -8.90
Si  3.63 10.48  2.94
Si -3.61  6.29  8.90
Si -3.64 -10.48 -2.98
Si -7.27  8.38 -2.96
Si 10.89 -2.10  2.99
Si -7.27 -8.39  2.94
Si  3.62 -10.50 -2.96
Si -7.27 -0.02  8.90
Si -10.89  2.12 -3.00
Si  3.63 -6.31 -8.89
Si  7.26  8.40 -2.98
Si  3.65  6.30  8.90
Si -3.63 -6.28 -8.92
Si  7.29 -0.00 -8.89
Si  3.63  6.29 -8.92
Si -10.91 -2.10  2.99
Si 10.90  2.12 -3.00
Si  7.31 -8.40  2.96
Si -3.66 -6.30  8.93
Si -10.86  4.16  0.74
Si -7.26  4.17 -8.12
Si  1.80 -3.10 -11.10
Si  9.06  5.22 -5.17
Si -10.89  2.05  3.69
Si -1.82  3.11 -11.11
Si -1.82  9.40  6.69
Si  7.25 -6.25  6.70
Si  9.06  3.15  6.66
Si -9.06 -3.15  6.67
Si  9.09  7.31  0.78
Si  1.82 -9.43  6.66
Si  1.80 -11.53  0.71
Si -9.08  5.25 -5.18
Si  9.09 -3.11  6.67
Si  1.82  9.44  6.66
Si 10.91  2.05  3.69
Si -7.28 -6.28  6.66
Si -3.62 -0.00 -11.13
Si -3.63 -10.48  3.72
Si -7.28  8.37  3.73
Si  7.28  6.29  6.67
Si  7.27  8.39  3.72
Si  3.64  0.04 -11.13
Si -7.25  6.33  6.67
Si -1.83 -3.14 -11.13
Si  1.82  3.15 -11.13
Si -9.10  7.34  0.71
Si  7.25  4.20 -8.19
Si 10.93  4.16  0.74
Si  3.62 -10.51  3.73
Si -1.81 -11.56  0.78
Si  0.04 -8.43 -8.16
Si -1.82 -9.47  6.69
Si -9.10  3.19  6.70
Si  0.01 -10.53 -5.21
Si -9.07 -7.30 -2.96
Si -0.03 10.47 -5.91
Si 10.87  4.17  2.99
Si 10.88 -4.19 -2.97
Si  9.10 -5.22 -5.89
Si -1.80 -11.51  3.00
Si  1.82 -1.00 -11.86
Si -9.09 -5.24 -5.92
Si -0.02 -10.49  5.93
Si -0.02  2.10 -11.86
Si  1.81 -11.53  2.98
Si -1.79 -1.03 -11.88
Si -9.09  7.34  2.98
Si  9.11 -7.32 -2.98
Si  1.81  1.05 11.88
Si -9.07  5.29  5.94
Si -1.79 11.55 -2.98
Si -10.92 -4.19 -2.97
Si  9.11  5.26  5.92
Si -10.93  4.17  2.99
Si -0.03 -2.12 11.88
Si  9.10  7.36  3.00
Si -1.80  1.07 11.90
Si  1.82 11.58 -2.96
Si  5.41 -5.23  9.63
Si -10.89 -4.17  3.69
Si  9.08  1.04 -8.13
Si  1.81  7.33  9.62
Si  7.26 -2.10  9.62
Si -1.79 11.54  3.67
Si -3.66 -10.46 -5.20
Si 10.90 -4.17  3.69
Si  3.63 -8.40 -8.13
Si  5.41  7.35 -8.16
Si  7.24  8.41 -5.20
Si -7.24  8.39 -5.23
Si -9.11 -7.32  3.70
Si  9.11 -7.34  3.67
Si -5.48 -5.23  9.63
Si -10.89  2.12 -5.21
Si -1.82  7.33  9.66
Si -9.09  1.04 -8.17
Si -3.64 -8.39 -8.17
Si 10.90  2.12 -5.21
Si  1.79 11.56  3.70
Si -7.27 -2.11  9.66
Si  3.66 -10.48 -5.23
Si -5.48  7.35 -8.16
Si  7.24 -8.38 -5.87
Si  3.65  2.10 -11.83
Si -3.61 -10.47  5.92
Si  3.69 10.45 -5.92
Si -3.66 10.49 -5.87
Si -7.21 -8.43 -5.92
Si 10.90  6.27 -0.01
Si -10.90  6.27 -0.01
Si 10.88 -6.29 -0.02
Si -10.88  2.12  5.93
Si  0.02 -4.17 -11.86
Si -10.89 -2.08 -5.94
Si -0.01 12.58 -0.02
Si 10.90 -2.08 -5.94
Si  0.00  4.21 11.86
Si -7.24  8.39  5.96
Si -3.61  2.11 -11.87
Si -10.91 -6.29 -0.02
Si  7.29  8.40  5.92
Si 10.92  2.12  5.93
Si  3.65 -10.49  5.96
Si -0.00 -12.61 -0.01
Si  3.69 -2.13 11.88
Si -3.66 -2.09 11.92
Si 10.89 -6.26 -2.21
Si  9.05 -7.34 -5.21
Si 10.89 -0.00  6.66
Si  1.83 -1.06 12.59
Si  5.44 -3.14 -11.11
Si -1.85 -1.05 12.59
Si  5.44  9.44  6.66
Si  5.44 -9.44  6.66
Si -5.45 -3.14 -11.11
Si -7.28  4.19  9.62
Si -10.91 -6.26 -2.21
