500
set: 1221.00  0.00  0.00
Si -1.22  0.59  0.65
Si  0.36 -1.50  0.34
Si  1.62  0.47  0.48
Si -1.07  0.45 -1.83
Si  1.42  0.34 -1.84
Si  0.26 -1.78 -1.86
Si  0.29  2.53  0.51
Si -2.26 -1.60  0.57
Si  0.19  2.47 -1.86
Si  1.32  0.44  2.78
Si  0.17 -1.72  2.72
Si -1.14  0.58  2.97
Si -2.23 -1.67 -1.72
Si  2.97 -1.61  0.40
Si -2.21  2.76  0.33
Si -3.60  0.57  0.40
Si -0.81 -3.72  0.32
Si  2.81  2.70  0.32
Si  0.27  2.70  2.89
Si -2.27 -1.61  2.85
Si  2.98 -1.80 -1.95
Si -2.38  2.52 -2.01
Si -3.55  0.43 -1.91
Si  4.00  0.57  0.40
Si  1.76 -3.66  0.33
Si  2.67  2.55 -1.95
Si  2.79 -1.64  2.77
Si -1.20  0.59 -4.10
Si -0.95 -3.87 -1.95
Si  1.26  0.45 -4.28
Si  4.04  0.43 -1.91
Si -2.36  2.68  2.79
Si  2.58  2.61  2.68
Si  1.59 -3.90 -2.01
Si  0.12 -1.72 -4.34
Si -3.73  0.58  2.77
Si -1.04 -3.81  2.68
Si  3.86  0.58  2.77
Si -4.62 -1.61  0.40
Si -1.00  4.81  0.40
Si  1.61 -3.74  2.79
Si  0.21  2.71 -4.17
Si  1.36  4.82  0.57
Si -2.33 -1.60 -4.21
Si -1.00  4.62 -1.95
Si -3.33 -3.89  0.51
Si  1.39  4.75 -1.72
Si -4.62 -1.80 -1.95
Si  2.73 -1.63 -4.29
Si -1.01  0.45  5.23
Si  1.47  0.33  5.23
Si -4.78  2.70  0.32
Si  0.32 -1.79  5.21
Si -3.43 -3.95 -1.86
Si  5.33 -1.60  0.57
Si -2.41  2.69 -4.28
Si -1.18  4.79  2.77
Si  2.52  2.62 -4.38
Si -3.79  0.58 -4.29
Si  1.35  4.81  2.85
Si  0.24  2.46  5.20
Si  3.81  0.58 -4.29
Si -4.80 -1.64  2.77
Si -3.36 -3.73  2.89
Si  4.26 -3.89  0.51
Si  5.36 -1.67 -1.72
Si -4.93  2.55 -1.95
Si  0.37 -5.86  0.40
Si  1.56 -3.73 -4.28
Si -1.10 -3.80 -4.38
Si -5.97  0.47  0.48
Si -2.17 -1.68  5.34
Si  4.16 -3.95 -1.86
Si  5.38  2.76  0.33
Si -2.32  2.51  5.05
Si -3.61  4.92  0.34
Si  5.22  2.52 -2.01
Si  3.03 -1.81  5.12
Si -3.71  4.64 -1.86
Si  5.32 -1.61  2.85
Si -3.50  0.42  5.16
Si -5.01  2.61  2.68
Si -2.00 -5.96  0.48
Si  0.42 -6.00 -1.91
Si  2.72  2.54  5.12
Si  3.88  4.64 -1.86
Si  4.24 -3.73  2.89
Si  3.99  4.92  0.34
Si  6.37  0.59  0.65
Si -6.18  0.34 -1.84
Si  0.24 -5.85  2.77
Si  2.75 -5.83  0.65
Si -0.90 -3.88  5.12
Si  5.24  2.68  2.79
Si  1.29  4.82 -4.21
Si -3.41 -3.72 -4.17
Si -1.24  4.79 -4.29
Si -1.28  0.60 -6.42
Si  1.65 -3.91  5.05
Si  4.10  0.42  5.16
Si  3.80  4.70  2.72
Si -3.80  4.70  2.72
Si -4.86 -1.63 -4.29
Si -2.21 -6.08 -1.84
Si  1.57  0.47 -6.58
Si  6.52  0.45 -1.83
Si -6.28  0.44  2.78
Si  2.90 -5.97 -1.83
Si  0.31 -1.49 -6.72
Si -5.83 -3.66  0.33
Si  5.26 -1.60 -4.21
Si -0.94  4.61  5.12
Si  4.18 -3.72 -4.17
Si -2.31 -5.98  2.78
Si  0.03  6.99  0.40
Si  0.24  2.54 -6.55
Si -2.32 -1.59 -6.49
Si -4.56 -1.81  5.12
Si  0.07  6.85 -1.91
Si  6.45  0.58  2.97
Si  2.83 -5.84  2.97
Si -5.07  2.62 -4.38
Si  5.18  2.69 -4.28
Si  0.18 -5.84 -4.29
Si  1.45  4.74  5.34
Si -2.35  6.89  0.48
Si -3.38 -3.96  5.20
Si -7.23 -1.50  0.34
Si  3.74  4.71 -4.34
Si -6.00 -3.90 -2.01
Si  2.40  7.01  0.65
Si  2.91 -1.60 -6.67
Si -2.55  6.76 -1.84
Si -3.85  4.71 -4.34
Si -4.87  2.54  5.12
Si -0.11  7.00  2.77
Si  2.55  6.88 -1.83
Si  0.42 -1.51  7.41
Si -5.98 -3.74  2.79
Si -4.84 -5.83  0.65
Si -3.65  0.58 -6.66
Si  6.40  0.59 -4.10
Si -2.27  2.77 -6.74
Si  2.78 -5.83 -4.10
Si -6.33  0.45 -4.28
Si -2.36 -5.97 -4.28
Si  5.27  2.51  5.05
Si  6.78 -3.72  0.32
Si -7.30  2.53  0.51
Si -0.86 -3.71 -6.75
Si  1.68  0.46  7.55
Si  3.94  0.58 -6.66
Si -7.33 -1.78 -1.86
Si  2.76  2.71 -6.75
Si  4.21 -3.96  5.20
Si  5.42 -1.68  5.34
Si -4.69 -5.97 -1.83
Si -1.17  0.58  7.71
Si  1.70 -3.65 -6.74
Si -2.65  6.86  2.78
Si -3.65  4.63  5.21
Si -6.23  4.82  0.57
Si  6.64 -3.87 -1.95
Si  0.47 -6.00  5.16
Si  0.35  2.52  7.58
Si -6.20  4.75 -1.72
Si  2.48  7.00  2.97
Si  3.94  4.63  5.21
Si -7.41  2.47 -1.86
Si  6.55 -3.81  2.68
Si -6.12  0.33  5.23
Si -0.65 -8.03  0.40
Si -7.42 -1.72  2.72
Si -4.76 -5.84  2.97
Si  7.96 -1.50  0.34
Si -2.21 -1.61  7.64
Si  6.59  4.81  0.40
Si -2.16  2.75  7.40
Si  5.59 -5.96  0.48
Si  1.31  4.83 -6.49
Si  3.02 -1.62  7.46
Si -0.16  7.01 -4.29
Si  1.71 -8.02  0.57
Si  7.86 -1.78 -1.86
Si -6.04 -3.73 -4.28
Si -3.54  0.56  7.47
Si  6.60  4.62 -1.95
Si -1.06  4.82 -6.67
Si  7.88  2.53  0.51
Si -4.68 -1.60 -6.67
Si -0.75 -3.73  7.39
Si -2.15 -6.09  5.23
Si -7.33  2.70  2.89
Si  5.39 -6.08 -1.84
Si -3.39 -3.88 -6.55
Si  2.87  2.69  7.39
Si  7.78  2.47 -1.86
Si -6.24  4.81  2.85
Si  7.77 -1.72  2.72
Si  6.58  0.45  5.23
Si  1.81 -3.67  7.40
Si  5.29 -5.98  2.78
Si  1.74 -8.10 -1.72
Si  6.41  4.79  2.77
Si -0.65 -8.22 -1.95
Si  2.96 -5.98  5.23
Si  2.43  7.01 -4.10
Si  4.05  0.56  7.47
Si  5.28 -1.59 -6.49
Si -2.71  6.87 -4.28
Si -0.83 -8.06  2.77
Si  0.13  6.84  5.16
Si -3.26 -7.92  0.34
Si -4.82 -5.83 -4.10
Si  5.04  6.76 -1.84
Si  5.25  6.89  0.48
Si  1.70 -8.03  2.85
Si  4.21 -3.88 -6.55
Si  6.50 -3.80 -4.38
Si -5.04  6.88 -1.83
Si -5.94 -3.91  5.05
Si -4.84  2.71 -6.75
Si -5.19  7.01  0.65
Si  7.86  2.70  2.89
Si -7.48 -1.72 -4.34
Si -8.81  0.59  0.65
Si -8.66  0.45 -1.83
Si  0.32 -5.85 -6.66
Si -2.50  6.75  5.23
Si -4.57 -1.62  7.46
Si  4.94  6.86  2.78
Si -7.38  2.71 -4.17
Si -0.94  4.80  7.46
Si -6.03  0.47 -6.58
Si -1.12  0.46 -8.90
Si -6.30  4.82 -4.21
Si  7.71 -1.72 -4.34
Si  1.36  0.35 -8.91
Si  2.61  6.87  5.23
Si  5.33  2.77 -6.74
Si  5.23 -5.97 -4.28
Si  6.32  0.60 -6.42
Si  4.33 -7.92  0.34
Si  6.36  4.79 -4.29
Si -3.36 -8.20 -1.86
Si  2.69 -5.83 -6.42
Si  0.20 -1.77 -8.92
Si -3.66  4.93 -6.72
Si -2.06 -5.95 -6.58
Si -7.28 -1.79  5.21
Si -3.28 -3.90  7.58
Si  1.42  4.81  7.64
Si -5.11  7.00  2.97
Si -0.89 -8.05 -4.29
Si -4.72  2.69  7.39
Si -8.40 -3.72  0.32
Si -4.64 -5.98  5.23
Si -1.16  9.12  0.32
Si  9.01  0.34 -1.84
Si  1.64 -8.02 -4.21
Si  3.93  4.93 -6.72
Si -2.29 -1.67 -8.79
Si -8.73  0.58  2.97
Si  9.22  0.47  0.48
Si  1.25  8.94 -2.01
Si  7.80  2.71 -4.17
Si -3.45 -8.15  2.72
Si  0.13  2.48 -8.93
Si -1.30  8.97 -1.95
Si  6.69 -3.88  5.12
Si  1.41  9.18  0.33
Si -7.22 -5.86  0.40
Si -7.35  2.46  5.20
Si  8.91  0.44  2.78
Si  4.23 -8.20 -1.86
Si -6.14  4.74  5.34
Si  4.88  6.87 -4.28
Si  5.39 -1.61  7.64
Si  0.43 -5.86  7.47
Si -1.39  9.03  2.68
Si  4.14 -8.15  2.72
Si -7.18 -6.00 -1.91
Si  4.32 -3.90  7.58
Si -3.55  4.91  7.41
Si  6.65  4.61  5.12
Si  5.44  2.75  7.40
Si -8.55 -3.87 -1.95
Si -5.91  0.46  7.55
Si  1.27  9.10  2.79
Si -5.17  7.01 -4.10
Si  7.91 -1.79  5.21
Si  2.92 -1.79 -9.02
Si -0.03  7.00 -6.66
Si -5.89 -3.65 -6.74
Si -3.61  0.44 -8.97
Si -3.68  8.95  0.51
Si  5.44 -6.09  5.23
Si -0.59 -8.23  5.12
Si -8.79  0.59 -4.10
Si  7.84  2.46  5.20
Si  2.61  2.56 -9.02
Si -2.43  2.53 -9.08
Si  4.04  4.91  7.41
Si  3.92  8.95  0.51
Si  2.35  7.02 -6.42
Si -7.36 -5.85  2.77
Si -8.64 -3.81  2.68
Si -1.94 -5.97  7.55
Si  3.99  0.44 -8.97
Si -2.40  6.89 -6.58
Si -3.78  8.90 -1.86
Si  8.86  0.45 -4.28
Si  3.81  8.90 -1.86
Si -8.59  4.81  0.40
Si -1.01 -3.87 -9.02
Si -3.50 -8.14 -4.34
Si  1.80 -8.10  5.34
Si  7.97 -5.86  0.40
Si  0.23 -1.73  9.79
Si  5.10  6.75  5.23
Si -8.59  4.62 -1.95
Si  1.37  0.43  9.85
Si -4.90 -5.83 -6.42
Si -5.88 -8.02  0.57
Si -4.98  6.87  5.23
Si  1.54 -3.89 -9.08
Si -9.86 -1.60  0.57
Si -7.29 -1.49 -6.72
Si  9.35 -3.66  0.33
Si  6.43  0.58  7.71
Si  2.81 -5.84  7.71
Si -5.78 -3.67  7.40
Si -8.61  0.45  5.23
Si  1.34  4.76 -8.79
Si  4.09 -8.14 -4.34
Si -1.08  0.57 10.03
Si -9.82 -1.67 -1.72
Si -5.85 -8.10 -1.72
Si  1.21  9.11 -4.28
Si -1.45  9.04 -4.38
Si  7.83 -5.85  2.77
Si -7.36  2.54 -6.55
Si  9.19 -3.90 -2.01
Si  8.01 -6.00 -1.91
Si  8.96  4.82  0.57
Si -9.80  2.76  0.33
Si -1.05  4.63 -9.02
Si  0.08  6.98  7.47
Si  6.73 -3.71 -6.75
Si -6.29  4.83 -6.49
Si -3.70  9.12  2.89
Si -1.86 -10.09  0.33
Si -3.31 -8.21  5.21
Si -2.22 -1.62  9.92
Si -7.57  6.99  0.40
Si  8.99  4.75 -1.72
Si -4.67 -1.79 -9.02
Si  0.32  2.69  9.96
Si  9.21 -3.74  2.79
Si  3.89  9.12  2.89
Si  1.30  8.93  5.05
Si  7.62  6.99  0.40
Si  0.64 -10.31  0.51
Si -7.52  6.85 -1.91
Si -5.90 -8.03  2.85
Si -7.41 -5.84 -4.29
Si -3.49 -3.94 -8.93
Si -8.77  4.79  2.77
Si  2.85 -1.65  9.84
Si -1.25  8.96  5.12
Si -9.87 -1.61  2.85
Si  5.31 -1.67 -8.79
Si -7.18 -1.51  7.41
Si  2.64  2.60  9.75
Si  1.65 -8.01 -6.49
Si -8.69 -3.80 -4.38
Si  7.66  6.85 -1.91
Si -0.71 -8.02 -6.67
Si  5.54 -5.95 -6.58
Si -2.29  6.88  7.55
Si -2.30  2.67  9.86
Si  9.07  0.33  5.23
Si -9.97  2.52 -2.01
Si  7.90 -1.49 -6.72
Si  6.54  4.82 -6.67
Si -0.99 -3.82  9.75
Si -3.68  0.57  9.84
Si  7.83  2.54 -6.55
Si  0.54 -10.37 -1.86
Si  8.94  4.81  2.85
Si  0.61 -10.15  2.89
Si  4.10 -3.94 -8.93
Si  3.92  0.57  9.84
Si -4.98  2.56 -9.02
Si  7.49  7.00  2.77
Si  6.94 -8.03  0.40
Si  4.29 -8.21  5.21
Si  3.16 -10.14  0.32
Si  7.78 -5.84 -4.29
Si -8.49 -3.88  5.12
Si -7.12 -6.00  5.16
Si -9.95  2.68  2.79
Si  1.67 -3.75  9.86
Si 10.56 -1.61  0.40
Si  2.46  7.00  7.71
Si -2.03 -10.32 -2.01
Si -3.76  9.13 -4.17
Si -2.01 -10.16  2.79
Si  6.84 -3.73  7.39
Si  3.83  9.13 -4.17
Si -3.77  4.65 -8.92
Si  5.16  2.53 -9.08
Si 10.26  2.55 -1.95
Si 10.41  2.70  0.32
Si  3.83  4.65 -8.92
Si  9.15 -3.73 -4.28
Si -7.70  7.00  2.77
Si -7.25  2.52  7.58
Si  0.36 -5.99 -8.97
Si -4.79 -5.84  7.71
Si -5.95 -8.02 -4.21
Si 10.17  2.61  2.68
Si  5.19  6.89 -6.58
Si -5.25  7.02 -6.42
Si 10.38 -1.64  2.77
Si -6.23  0.35 -8.91
Si  6.76 -8.06  2.77
Si 10.57 -1.80 -1.95
Si -9.92 -1.60 -4.21
Si -3.32 -7.91 -6.72
Si  3.02 -10.30 -1.95
Si -8.83  4.79 -4.29
Si  6.95 -8.22 -1.95
Si -6.18  4.81  7.64
Si -3.73  8.89  5.20
Si  8.89  4.82 -4.21
Si -8.87  0.60 -6.42
Si -8.53  4.61  5.12
Si  2.93 -10.23  2.68
Si  0.56 -10.14 -4.17
Si -0.60 -8.04  7.46
Si -1.12  4.78  9.84
Si  3.87  8.89  5.20
Si  6.47  0.46 -8.90
Si -2.26 -6.07 -8.91
Si  8.01 -1.51  7.41
Si -4.75 -1.65  9.84
Si -6.18  9.18  0.33
Si -4.43 -10.14  0.32
Si  7.43  7.01 -4.29
Si  2.85 -5.96 -8.90
Si  6.65  4.80  7.46
Si  1.41  4.80  9.92
Si  6.29  8.97 -1.95
Si -3.30 -3.73  9.96
Si -6.35  8.94 -2.01
Si  5.65 -5.97  7.55
Si  6.44  9.12  0.32
Si -10.01  2.69 -4.28
Si -2.06 -10.15 -4.28
Si -11.19  0.57  0.40
Si -0.09 11.07 -1.86
Si  1.76 -8.03  7.64
Si  4.28 -7.91 -6.72
Si  9.24 -3.91  5.05
Si -4.96  2.60  9.75
Si -1.25  0.60 -11.17
Si -9.77 -1.68  5.34
Si  7.94  2.52  7.58
Si  6.20  9.03  2.68
Si  9.16  0.47 -6.58
Si  0.01  6.86 -8.97
Si -7.76  7.01 -4.29
Si -9.59 -5.96  0.48
Si  8.07 -6.00  5.16
Si 10.33 -1.63 -4.29
Si -5.80 -8.10  5.34
Si -11.15  0.43 -1.91
Si -3.21 -7.93  7.41
Si  6.71 -8.05 -4.29
Si 10.12  2.62 -4.38
Si  0.01 11.34  0.34
Si -7.47  6.84  5.16
Si  5.38 -1.62  9.92
Si -9.91  2.51  5.05
Si -1.21  9.13 -6.75
Si  1.21  0.46 -11.35
Si -6.33  9.10  2.79
Si -4.58 -10.30 -1.95
Si -8.46 -3.71 -6.75
Si -0.17 11.12  2.72
Si  0.29 -5.86  9.84
Si -7.28 -5.85 -6.66
Si  4.29 -3.73  9.96
Si  1.36  9.19 -6.74
Si -3.74  4.69  9.79
Si -2.61  6.77 -8.91
Si  2.87 -10.22 -4.38
Si  5.29  2.67  9.86
Si  5.30  6.88  7.55
