500
set: 443.00  0.00  0.00
Si -0.06 -0.05  0.03
Si  1.74  1.14  0.67
Si  0.12 -0.06 -2.19
Si  0.01 -2.10  0.80
Si -1.82  1.11  0.71
Si  0.01  2.06 -2.88
Si -1.73  0.97  2.94
Si  1.81 -3.08 -0.09
Si  3.59  0.02  0.06
Si -1.83 -3.10 -0.00
Si -1.71 -1.01 -3.00
Si  1.80  3.19 -0.00
Si  1.93  1.09  2.93
Si -3.68  0.02  0.06
Si -1.83  3.22 -0.09
Si  1.90 -1.13 -2.99
Si  0.01 -2.14  3.05
Si -3.57 -0.04 -2.18
Si -1.84 -3.05 -2.21
Si -1.86 -1.13  3.61
Si  1.79 -0.95  3.73
Si -0.01  4.18  0.76
Si  3.62 -2.11  0.76
Si -1.86  3.06 -2.33
Si  0.07  2.06  3.75
Si -3.64 -2.11  0.76
Si  3.70 -0.04 -2.18
Si  1.79  3.24 -2.21
Si  1.77 -3.23 -2.33
Si  3.53  2.04 -2.95
Si -0.10  4.13  2.98
Si  3.53 -2.16  2.98
Si -3.73  2.04 -2.95
Si -0.10 -4.26 -2.95
Si -3.73 -2.16  2.98
Si -3.52  2.04  3.74
Si  1.81 -5.18  0.71
Si -1.90 -5.16  0.67
Si  0.01  2.10 -5.13
Si -3.62  4.20  0.80
Si  5.45  1.11  0.71
Si  3.64  4.20  0.80
Si  1.81 -0.99 -5.22
Si  0.12 -4.26  3.74
Si  3.75  2.04  3.74
Si -1.90 -0.96 -5.26
Si -5.53  1.14  0.67
Si -5.34  1.09  2.93
Si -1.83 -0.98  5.84
Si -1.71 -5.20  2.93
Si -1.73  5.16 -2.99
Si -0.05 -2.07 -5.87
Si -5.37 -1.13 -2.99
Si  5.43 -3.10 -0.00
Si -5.46 -3.08 -0.09
Si -0.05 -6.27  0.06
Si -3.62 -4.24 -2.88
Si  1.80 -1.00  5.93
Si  3.64 -4.24 -2.88
Si -3.62  4.15  3.05
Si -1.83  1.09 -5.93
Si  3.64  4.15  3.05
Si -0.05  6.32  0.06
Si  5.44  3.22 -0.09
Si -5.46  3.19 -0.00
Si  5.53  0.97  2.94
Si -0.05  2.12  5.99
Si  1.90 -5.32  2.94
Si  1.93  5.29 -3.00
Si  1.81  1.12 -6.02
Si  5.56 -1.01 -3.00
Si  1.77  5.16  3.61
Si  5.40 -1.13  3.61
Si  5.43 -3.05 -2.21
Si  0.07  6.25 -2.18
Si  5.40  3.06 -2.33
Si  3.62  2.09 -5.18
Si -3.65  2.09 -5.18
Si -0.01 -4.21 -5.18
Si -5.47 -0.95  3.73
Si -3.57 -4.24  3.75
Si -0.01 -0.01  6.69
Si  0.07 -6.33 -2.18
Si -5.47  3.24 -2.21
Si  3.70 -4.24  3.75
Si -1.84  5.34  3.73
Si -5.50 -3.23 -2.33
Si  3.58  6.25  0.03
Si  7.21 -0.05  0.03
Si -0.06  4.15 -5.90
Si  3.58 -2.14 -5.90
Si  3.58  2.05  5.96
Si -3.69  6.25  0.03
Si  3.58 -6.34  0.03
Si -3.69 -2.14 -5.90
Si -3.69  2.05  5.96
Si -0.06 -4.24  5.96
Si -7.32 -0.05  0.03
Si -3.69 -6.34  0.03
Si  5.37 -5.16  0.67
Si -7.15 -0.06 -2.19
Si  1.74 -3.06  6.60
Si -3.52  6.23 -2.19
Si -1.82 -3.08  6.64
Si -5.45 -5.18  0.71
Si -3.62 -4.19 -5.13
Si  3.64 -4.19 -5.13
Si  5.37 -0.96 -5.26
Si -3.52 -6.36 -2.19
Si -1.90  3.23  6.60
Si  3.75  6.23 -2.19
Si -7.26 -2.10  0.80
Si  1.81  3.21  6.64
Si  7.28 -2.10  0.80
Si -5.45 -0.99 -5.22
Si -3.62  0.00  6.73
Si  3.64  0.00  6.73
Si  1.81  7.40  0.71
Si -1.82  5.31 -5.22
Si  1.74  5.33 -5.26
Si -1.90  7.43  0.67
Si  3.75 -6.36 -2.19
Si  7.38 -0.06 -2.19
Si  5.44 -0.98  5.84
Si  1.90  7.26  2.94
Si  3.59  4.22 -5.87
Si -7.26  2.06 -2.88
Si  7.27  2.06 -2.88
Si  1.80 -5.20 -5.93
Si -5.34  5.29 -3.00
Si  1.81  5.32  5.84
Si -5.37 -5.32  2.94
Si -3.68  4.22 -5.87
Si  5.43  1.09 -5.93
Si -1.71  7.38  2.93
Si  1.93 -7.30 -3.00
Si -5.46 -1.00  5.93
Si  3.59 -4.17  5.99
Si  5.53  5.16 -2.99
Si -1.83 -5.17 -6.02
Si  5.56 -5.20  2.93
Si -1.83  5.29  5.93
Si -7.26 -2.14  3.05
Si  7.27 -2.14  3.05
Si -3.68 -4.17  5.99
Si -1.73 -7.42 -2.99
Si -5.46  1.12 -6.02
Si -1.84 -7.25  3.73
Si -5.50  5.16  3.61
Si -7.20  2.06  3.75
Si  0.07 -2.14 -8.12
Si  7.25  4.18  0.76
Si -1.84  1.14 -8.14
Si -7.28  4.18  0.76
Si -0.01 -8.40  0.76
Si  1.77 -7.43  3.61
Si  5.43  5.34  3.73
Si  7.33  2.06  3.75
Si  1.77  0.96 -8.26
Si  7.16  4.13  2.98
Si -0.10  8.33 -2.95
Si  7.16 -4.26 -2.95
Si -0.10 -0.06 -8.88
Si -0.10 -0.06  8.91
Si -7.37  4.13  2.98
Si -0.10 -8.45  2.98
Si -7.37 -4.26 -2.95
Si  9.00  1.14  0.67
Si  5.37  3.23  6.60
Si -3.52 -2.16 -8.12
Si  0.12  4.13 -8.12
Si -7.15 -4.26  3.74
Si  5.45 -3.08  6.64
Si  0.12  8.33  3.74
Si  1.74 -7.25 -5.26
Si -7.26  2.10 -5.13
Si -5.53 -3.06  6.60
Si -1.82 -7.28 -5.22
Si  7.28  2.10 -5.13
Si -3.62 -8.39  0.80
Si -5.45  3.21  6.64
Si -9.09  1.11  0.71
Si  3.64 -8.39  0.80
Si  5.37  7.43  0.67
Si  3.75 -2.16 -8.12
Si  0.01 -6.29  6.73
Si  0.01  6.29  6.73
Si -5.45  7.40  0.71
Si  5.45  5.31 -5.22
Si  7.38 -4.26  3.74
Si -5.53  5.33 -5.26
Si -5.37  7.26  2.94
Si  1.81 -7.27  5.84
Si -9.00  0.97  2.94
Si -8.97 -1.01 -3.00
Si -3.62 -0.04 -8.81
Si -5.34 -7.30 -3.00
Si  7.22 -2.07 -5.87
Si  3.64 -0.04 -8.81
Si -1.83 -9.37 -0.09
Si -3.62  8.35 -2.88
Si  3.64  8.35 -2.88
Si  7.22 -6.27  0.06
Si  1.80 -9.39 -0.00
Si -1.71  3.19  8.86
Si -1.83 -7.29  5.93
Si  9.07 -3.08 -0.09
Si  1.90  3.07  8.88
Si  1.93 -3.10  8.86
Si  7.22  6.32  0.06
Si -5.46 -5.20 -5.93
Si -5.46  5.32  5.84
Si -1.73 -3.23  8.88
Si -7.31 -2.07 -5.87
Si -9.10 -3.10 -0.00
Si  9.07  3.19 -0.00
Si  7.22  2.12  5.99
Si  1.90  3.07 -8.92
Si  5.44 -5.17 -6.02
Si  5.43  5.29  5.93
Si -7.31 -6.27  0.06
Si -1.71  3.19 -8.94
Si -1.73 -3.23 -8.92
Si  1.80  7.39 -5.93
Si -9.09  3.22 -0.09
Si  1.93 -3.10 -8.94
Si -1.83  9.48 -0.00
Si -7.31  6.32  0.06
Si -3.62 -8.43  3.05
Si  3.64 -8.43  3.05
Si  1.81  9.51 -0.09
Si -3.62 -0.04  8.98
Si -7.31  2.12  5.99
Si  5.56  7.38  2.93
Si  3.64 -0.04  8.98
Si  9.19  1.09  2.93
Si  9.17 -1.13 -2.99
Si -1.83  7.41 -6.02
Si  5.53 -7.42 -2.99
Si  1.77  0.96  9.54
Si  1.79 -9.34 -2.21
Si -7.20  6.25 -2.18
Si  5.43 -7.25  3.73
Si -3.57  4.15 -8.12
Si  1.79 -5.15 -8.14
Si  1.77  9.35 -2.33
Si -3.57  8.35  3.75
Si -7.20 -6.33 -2.18
Si  3.70  4.15 -8.12
Si  9.06 -0.95  3.73
Si -0.01  8.38 -5.18
Si  5.43  1.14 -8.14
Si -9.10 -3.05 -2.21
Si  7.25 -4.21 -5.18
Si  3.62  6.28  6.69
Si  7.25 -0.01  6.69
Si  3.70  8.35  3.75
Si -7.28 -4.21 -5.18
Si  9.06  3.24 -2.21
Si  9.04 -3.23 -2.33
Si -3.65  6.28  6.69
Si  3.62 -6.30  6.69
Si  7.33  6.25 -2.18
Si -9.13 -1.13  3.61
Si -7.28 -0.01  6.69
Si -3.64 -6.30  6.69
Si -1.84  1.14  9.66
Si -9.13  3.06 -2.33
Si  0.07 -2.14  9.68
Si -5.50 -7.43  3.61
Si  7.33 -6.33 -2.18
Si -1.84  9.53 -2.21
Si -5.50  0.96 -8.26
Si -1.86 -9.52 -2.33
Si -1.86 -5.33 -8.26
Si  7.21  4.15 -5.90
Si -0.06  8.34  5.96
Si  7.21 -4.24  5.96
Si -7.32  4.15 -5.90
Si -0.06 -8.44 -5.90
Si -7.32 -4.24  5.96
Si  9.08 -5.18  0.71
Si -3.62  8.39 -5.13
Si  5.45 -7.28 -5.22
Si  3.64  8.39 -5.13
Si -3.52 -2.16  9.67
Si  0.01 10.49  0.80
Si  0.12  4.13  9.67
Si  9.08 -0.99 -5.22
Si -5.53 -7.25 -5.26
Si -9.16 -5.16  0.67
Si  3.75 -2.16  9.67
Si -9.16 -0.96 -5.26
Si -8.97 -5.20  2.93
Si -9.00  5.16 -2.99
Si -5.34 -3.10  8.86
Si  0.01  6.25 -8.81
Si -5.46 -7.27  5.84
Si -5.37  3.07  8.88
Si  3.59 -8.37 -5.87
Si  5.44 -9.37 -0.09
Si -5.37  3.07 -8.92
Si -9.09 -0.98  5.84
Si  0.01 -6.33 -8.81
Si 10.85  0.02  0.06
Si  5.43 -7.29  5.93
Si -3.68 -8.37 -5.87
Si -5.34 -3.10 -8.94
Si -5.46 -9.39 -0.00
Si  9.07 -1.00  5.93
Si  0.01 10.45  3.05
Si  0.01 -10.53 -2.88
Si -9.10  1.09 -5.93
Si  5.43  9.48 -0.00
Si  5.56  3.19  8.86
Si  3.59  8.41  5.99
Si -5.46  7.39 -5.93
Si -10.95  0.02  0.06
Si  0.01  6.25  8.98
Si  9.07  1.12 -6.02
Si  5.53 -3.23  8.88
Si -3.68  8.41  5.99
Si -5.46  9.51 -0.09
Si  5.53 -3.23 -8.92
Si  5.44  7.41 -6.02
Si  0.01 -6.33  8.98
Si  5.56  3.19 -8.94
Si  9.17 -5.32  2.94
Si  9.04  5.16  3.61
Si  9.19  5.29 -3.00
Si -5.47 -9.34 -2.21
Si -5.50  0.96  9.54
Si -10.83 -0.04 -2.18
Si -7.20 -2.14 -8.12
Si -5.47 -5.15 -8.14
Si -1.86 -5.33  9.54
Si  1.79 -5.15  9.66
Si -5.50  9.35 -2.33
Si -0.01 -0.01 -11.11
Si  3.62 10.48  0.76
Si 10.89 -2.11  0.76
Si -3.65 10.48  0.76
Si -3.57  4.15  9.68
Si  7.25 -8.40  0.76
Si  5.43  1.14  9.66
Si -10.91 -2.11  0.76
Si -7.28 -8.40  0.76
Si  7.33 -2.14 -8.12
Si -1.86  7.25 -8.26
Si  3.70  4.15  9.68
Si  1.79  7.44 -8.14
Si  0.07 -10.53  3.75
Si 10.96 -0.04 -2.18
Si  5.43  9.53 -2.21
Si -9.10  5.34  3.73
Si  5.40 -9.52 -2.33
Si  5.40 -5.33 -8.26
Si  7.16  8.33 -2.95
Si 10.80  2.04 -2.95
Si  3.53 10.43  2.98
Si 10.80 -2.16  2.98
Si  3.53  6.23 -8.88
Si  7.16 -0.06 -8.88
Si  3.53  6.23  8.91
Si  7.16 -0.06  8.91
Si -3.73 10.43  2.98
Si  7.16 -8.45  2.98
Si -3.73  6.23 -8.88
Si  3.53 -6.35 -8.88
Si -3.73  6.23  8.91
Si  3.53 -6.35  8.91
Si -7.37  8.33 -2.95
Si  3.53 -10.55 -2.95
Si -7.37 -0.06 -8.88
Si -3.73 -6.35 -8.88
Si -7.37 -0.06  8.91
Si -3.73 -6.35  8.91
Si -11.00  2.04 -2.95
Si -3.73 -10.55 -2.95
Si  9.00 -3.06  6.60
Si -7.15  4.13 -8.12
Si -10.78  2.04  3.74
Si -7.15  8.33  3.74
Si  1.74 -11.45  0.67
Si -11.00 -2.16  2.98
Si -7.37 -8.45  2.98
Si -1.90 -9.35  6.60
Si  1.81 -9.38  6.64
Si -1.82 -11.47  0.71
Si -3.62  0.00 -11.07
Si  3.64  0.00 -11.07
Si -9.09 -3.08  6.64
Si  0.01 -10.49 -5.13
Si -10.89  4.20  0.80
Si  9.08  3.21  6.64
Si  9.00  5.33 -5.26
Si 10.91  4.20  0.80
Si -1.82 -3.08 -11.15
Si  1.74  9.53  6.60
Si  0.12 -8.45 -8.12
Si -7.26 -6.29  6.73
Si -7.26  6.29  6.73
Si  7.38  4.13 -8.12
Si -3.52 -10.55  3.74
Si -1.82  9.50  6.64
Si  9.08  7.40  0.71
Si  1.74 -3.06 -11.20
Si  7.28 -6.29  6.73
Si  7.38  8.33  3.74
Si  7.28  6.29  6.73
Si -9.16  3.23  6.60
Si -9.09  5.31 -5.22
Si  1.81  3.21 -11.15
Si  3.75 -10.55  3.74
Si -1.90  3.23 -11.20
Si 11.02  2.04  3.74
Si -9.16  7.43  0.67
Si  1.81  1.12 11.78
Si -8.97  7.38  2.93
Si  1.90 11.46 -2.99
Si -0.05  2.12 -11.80
Si  1.93 -11.49  2.93
Si  9.07 -5.20 -5.93
Si  9.07  5.32  5.84
Si -10.89 -4.24 -2.88
Si -0.05 10.51 -5.87
Si -9.00 -7.42 -2.99
Si  1.80 -1.00 -11.87
Si -10.89  4.15  3.05
Si 10.91 -4.24 -2.88
Si -1.83  1.09 11.86
Si -0.05 -10.46  5.99
Si  9.17  7.26  2.94
Si 10.91  4.15  3.05
Si -9.09 -5.17 -6.02
Si -9.10  5.29  5.93
Si -1.71 11.58 -3.00
Si -0.05 -2.07 11.93
Si -1.73 -11.62  2.94
Si  9.19 -7.30 -3.00
Si -1.86  7.25  9.54
Si -1.83 -0.98 -11.95
Si -1.86 11.45  3.61
Si  5.40 -5.33  9.54
Si -9.10 -7.25  3.73
Si -10.83 -4.24  3.75
Si  7.25  8.38 -5.18
Si 10.89  2.09 -5.18
Si -3.57 -8.43 -8.12
Si -5.47 -5.15  9.66
Si  9.04 -7.43  3.61
Si -7.28  8.38 -5.18
Si  5.40  7.25 -8.26
Si  3.62 -10.50 -5.18
Si -7.20 -2.14  9.68
Si -10.91  2.09 -5.18
Si -3.64 -10.50 -5.18
Si -9.10  1.14 -8.14
Si  3.70 -8.43 -8.12
Si  9.04  0.96 -8.26
Si -5.47  7.44 -8.14
Si  1.79  7.44  9.66
Si  7.33 -2.14  9.68
Si 10.96 -4.24  3.75
Si  1.79 11.63  3.73
Si 10.84  6.25  0.03
Si  3.58 10.44 -5.90
Si 10.84 -2.14 -5.90
Si  3.58  2.05 -11.83
Si  7.21  8.34  5.96
Si -0.06 12.54  0.03
Si 10.84  2.05  5.96
Si -3.69 10.44 -5.90
Si 10.84 -6.34  0.03
Si -3.69  2.05 -11.83
Si  7.21 -8.44 -5.90
Si -0.06 -4.24 -11.83
Si -0.06  4.15 11.90
Si -7.32  8.34  5.96
Si  3.58 -2.14 11.90
Si -10.96  6.25  0.03
Si  3.58 -10.53  5.96
Si -10.96 -2.14 -5.90
Si -0.06 -12.63  0.03
Si -7.32 -8.44 -5.90
Si -3.69 -2.14 11.90
Si -10.96  2.05  5.96
Si  5.37 -9.35  6.60
Si -10.78  6.23 -2.19
Si -3.69 -10.53  5.96
Si -10.96 -6.34  0.03
Si  9.00 -7.25 -5.26
Si -10.78 -6.36 -2.19
Si -1.90 -0.96 12.53
Si  0.12 12.52 -2.19
Si -5.45 -9.38  6.64
Si -7.15  4.13  9.67
Si  5.45 -11.47  0.71
Si  0.01 -6.29 -11.07
Si  0.01  6.29 -11.07
