500
set: 671.00  0.00  0.00
Si -0.32 -0.58  0.39
Si  0.83 -1.30 -1.64
Si  1.19  0.85  1.79
Si -2.39  0.38 -0.08
Si  1.15  2.86 -0.24
Si  0.01  0.64 -3.10
Si -0.33  2.60 -1.92
Si -0.60 -2.83  1.49
Si -2.40  2.43 -1.16
Si  2.43 -0.80  2.68
Si -1.16 -2.28 -3.01
Si -1.54 -3.65 -0.79
Si  4.06  1.06 -0.01
Si  0.55  2.00  3.67
Si -3.19 -0.95  2.70
Si -1.70  3.57  1.88
Si  2.45  2.78  2.34
Si -3.77 -2.42  0.47
Si  2.37  0.81 -3.76
Si -4.37 -0.44 -1.11
Si  3.25 -2.07 -2.47
Si -2.97  1.30 -3.29
Si -2.17 -2.73  3.13
Si  1.61 -1.40 -4.17
Si  4.18  0.91 -2.15
Si  1.25 -4.22  2.02
Si -3.58 -1.47 -2.98
Si  0.29 -4.77 -1.20
Si  0.34  4.88  0.71
Si  4.63 -1.79  0.47
Si  3.90  3.34 -0.00
Si  3.56 -3.64  1.77
Si  3.80  0.99  3.79
Si -1.02  0.72 -5.34
Si -4.81  2.33 -1.25
Si  3.84 -3.85 -1.09
Si -0.75  4.84 -2.87
Si -5.05  1.97  1.72
Si -1.40  3.07  4.60
Si -1.02  0.72  5.58
Si  2.96  4.72  1.73
Si  3.01 -1.28  4.86
Si -2.77  4.94 -1.63
Si -4.48  1.14  3.69
Si -2.03 -1.22 -5.44
Si -2.03 -1.22  5.47
Si  1.37 -3.89  4.31
Si -0.39 -2.71  5.33
Si  3.88  3.40 -3.21
Si  0.34 -6.03  0.71
Si -0.39 -2.71 -5.58
Si  2.11  2.32 -5.39
Si  0.29  6.14 -1.20
Si -3.87  0.14 -5.01
Si  2.11  2.32  5.52
Si -4.99 -2.97 -2.61
Si  5.87  1.97  1.72
Si -3.23  4.47  3.30
Si  4.32  3.38  3.45
Si  4.61 -0.36 -4.60
Si -6.28 -1.79  0.47
Si -5.06 -3.71  1.91
Si  6.54 -0.44 -1.11
Si  6.11  2.33 -1.25
Si -0.75 -6.07 -2.87
Si -2.77 -5.97 -1.63
Si  3.96  5.15 -1.97
Si -4.92 -4.70 -0.86
Si  3.01 -1.28 -6.05
Si -6.86  1.06 -0.01
Si -4.54  4.23 -3.15
Si -3.60 -4.16  4.30
Si -5.01  4.40  2.12
Si -3.87  0.14  5.91
Si -0.20  4.73 -5.25
Si  1.61 -1.40  6.74
Si  2.96 -6.19  1.73
Si  1.25  6.69  2.02
Si -6.73  0.91 -2.15
Si  5.93 -2.97 -2.61
Si -1.40  3.07 -6.32
Si  5.85 -3.71  1.91
Si  3.96 -5.76 -1.97
Si  2.00 -5.43 -4.39
Si  2.00  5.49 -4.39
Si -0.20  4.73  5.67
Si  3.59  3.80 -5.28
Si -1.54  7.26 -0.79
Si  6.44  1.14  3.69
Si  0.55  2.00 -7.24
Si  7.14 -2.42  0.47
Si  2.37  0.81  7.15
Si -4.48 -4.49 -4.27
Si  5.91  4.40  2.12
Si  6.00 -4.70 -0.86
Si  3.59  3.80  5.64
Si -7.01  3.34 -0.00
Si -1.70 -7.35  1.88
Si  1.37 -3.89 -6.61
Si -6.31 -0.36 -4.60
Si  4.61 -0.36  6.32
Si  0.01  0.64  7.82
Si -3.23 -6.44  3.30
Si -4.92  6.21 -0.86
Si  4.95 -3.34  5.30
Si  7.33 -1.47 -2.98
Si -0.20 -6.18 -5.25
Si  3.84  7.06 -1.09
Si -7.11  0.99  3.79
Si -7.08 -3.85 -1.09
Si  3.80  0.99 -7.12
Si  1.15 -8.05 -0.24
Si -6.59  3.38  3.45
Si  4.95 -3.34 -5.62
Si -0.60  8.08  1.49
Si  7.72 -0.95  2.70
Si  6.38  4.23 -3.15
Si  3.56  7.28  1.77
Si -2.97  1.30  7.63
Si -1.16 -2.28  7.91
Si -7.67 -2.07 -2.47
Si  1.37  7.02  4.31
Si -0.20 -6.18  5.67
Si -7.35 -3.64  1.77
Si -7.03  3.40 -3.21
Si -5.01 -6.52  2.12
Si  3.90 -7.57 -0.00
Si -2.17 -2.73 -7.78
Si  8.52  0.38 -0.08
Si -0.33 -8.31 -1.92
Si -4.48  1.14 -7.22
Si -3.60 -4.16 -6.62
Si  2.43 -0.80 -8.24
Si  7.04  0.14 -5.01
Si -5.96 -3.34  5.30
Si -4.54 -6.69 -3.15
Si  6.00  6.21 -0.86
Si  7.94  1.30 -3.29
Si  2.00 -5.43  6.52
Si  2.00  5.49  6.52
Si -3.60  6.75  4.30
Si  2.45 -8.13  2.34
Si -3.58 -1.47  7.93
Si -5.96 -3.34 -5.62
Si -3.19 -0.95 -8.21
Si -6.95  5.15 -1.97
Si -2.40 -8.48 -1.16
Si -4.48  6.43 -4.27
Si  8.51  2.43 -1.16
Si -6.31 -0.36  6.32
Si -8.48 -0.80  2.68
Si  6.43 -4.49 -4.27
Si -5.06  7.20  1.91
Si -2.17  8.18  3.13
Si  3.88 -7.51 -3.21
Si  5.91 -6.52  2.12
Si -4.48 -4.49  6.64
Si  7.04  0.14  5.91
Si -1.40 -7.84  4.60
Si -8.46  2.78  2.34
Si -1.16  8.63 -3.01
Si  1.19  0.85 -9.12
Si -6.95 -5.76 -1.97
Si  4.32  3.38 -7.47
Si  3.88  3.40  7.70
Si  3.25 -2.07  8.44
Si -3.77  8.50  0.47
Si  2.45  2.78 -8.58
Si  4.32 -7.54  3.45
Si -7.90 -1.28  4.86
Si -8.55  0.81 -3.76
Si -0.33  2.60  9.00
Si  0.83 -1.30  9.28
Si -3.23  4.47 -7.62
Si -7.95  4.72  1.73
Si -0.75  4.84  8.04
Si  7.31 -4.16  4.30
Si  5.85  7.20  1.91
Si  7.68  4.47  3.30
Si  3.59 -7.12 -5.28
Si  0.55 -8.92  3.67
Si  8.14  4.94 -1.63
Si  8.75 -2.73  3.13
Si -4.99  7.94 -2.61
Si  1.37  7.02 -6.61
Si  3.25  8.84 -2.47
Si  6.44  1.14 -7.22
Si  4.18  0.91  8.77
Si  6.38 -6.69 -3.15
Si  3.59 -7.12  5.64
Si  0.83  9.61 -1.64
Si -7.32  3.80 -5.28
Si -0.39  8.21  5.33
Si -0.60 -2.83 -9.42
Si -1.70  3.57 -9.04
Si -4.81 -8.58 -1.25
Si -9.72  0.85  1.79
Si  1.25 -4.22 -8.89
Si -0.39  8.21 -5.58
Si -4.54  4.23  7.77
Si -7.32  3.80  5.64
Si -7.90 -1.28 -6.05
Si  6.43  6.43 -4.27
Si  9.21  3.57  1.88
Si -7.08  7.06 -1.09
Si  9.37 -3.65 -0.79
Si -0.75 -6.07  8.04
Si -7.11  0.99 -7.12
Si -3.60  6.75 -6.62
Si -4.99 -2.97  8.30
Si -1.40 -7.84 -6.32
Si -9.77  2.86 -0.24
Si -7.95 -6.19  1.73
Si  8.14 -5.97 -1.63
Si  4.63  9.12  0.47
Si  5.93  7.94 -2.61
Si -4.48  6.43  6.64
Si  6.43 -4.49  6.64
Si -9.30 -1.40 -4.17
Si  1.19 -10.06  1.79
Si -10.08 -1.30 -1.64
Si -7.01 -7.57 -0.00
Si -2.40  2.43  9.76
Si -0.32 10.33  0.39
Si  2.11 -8.59 -5.39
Si -5.05 -8.95  1.72
Si  2.11 -8.59  5.52
Si  9.76 -2.28 -3.01
Si  3.56 -3.64 -9.14
Si  4.95  7.57  5.30
Si -3.23 -6.44 -7.62
Si  8.88 -1.22 -5.44
Si -7.35  7.28  1.77
Si  8.88 -1.22  5.47
Si  1.61  9.51 -4.17
Si -6.59  3.38 -7.47
Si -3.58  9.45 -2.98
Si -0.32 -0.58 -10.52
Si  7.68 -6.44  3.30
Si -8.80  2.32 -5.39
Si -2.97 -9.61 -3.29
Si -6.59 -7.54  3.45
Si  6.11 -8.58 -1.25
Si 10.60 -0.58  0.39
Si  5.93 -2.97  8.30
Si -8.80  2.32  5.52
Si  4.95  7.57 -5.62
Si  4.06 -9.85 -0.01
Si -5.05  1.97 -9.20
Si  7.31 -4.16 -6.62
Si  0.01 -10.27 -3.10
Si  2.43 10.11  2.68
Si -9.67 -4.22  2.02
Si  2.96  4.72 -9.18
Si -4.37 -0.44  9.80
Si -7.03 -7.51 -3.21
Si -2.39 -10.53 -0.08
Si 10.31 -2.83  1.49
Si -3.19  9.96  2.70
Si  0.29 -4.77  9.71
Si  5.87 -8.95  1.72
Si  7.31  6.75  4.30
Si -1.54 -3.65 10.13
Si -2.77  4.94  9.29
Si  7.33 -1.47  7.93
Si  6.38  4.23  7.77
Si -7.03  3.40  7.70
Si -5.06 -3.71 -9.01
Si -5.96  7.57  5.30
Si  9.52  3.07  4.60
Si -5.01  4.40 -8.79
Si  2.37 -10.10 -3.76
Si -4.81  2.33  9.66
Si  4.18 -10.00 -2.15
Si  3.96  5.15  8.95
Si 10.58  2.60 -1.92
Si  5.87  1.97 -9.20
Si -6.28  9.12  0.47
Si -6.73  0.91  8.77
Si  7.94  1.30  7.63
Si -2.39  0.38 10.83
Si  7.14  8.50  0.47
Si  1.15  2.86 10.68
Si -5.96  7.57 -5.62
Si -9.54 -3.89  4.31
Si -8.55  0.81  7.15
Si -10.36  2.00  3.67
Si  1.25  6.69 -8.89
Si  3.01  9.63  4.86
Si -4.54 -6.69  7.77
Si  3.84 -3.85  9.82
Si -11.23 -0.58  0.39
Si -2.39  0.38 -10.99
Si  6.43  6.43  6.64
Si  9.89  0.72 -5.34
Si  3.80 -9.93  3.79
Si -2.03  9.69 -5.44
Si  7.72 -0.95 -8.21
Si -2.03  9.69  5.47
Si -8.91 -5.43 -4.39
Si  0.34  4.88 -10.21
Si -0.32 -0.58 11.31
Si -8.91  5.49 -4.39
Si -10.90  0.64 -3.10
Si  3.96 -5.76  8.95
Si  5.85 -3.71 -9.01
Si -4.48 -9.77  3.69
Si -3.77 -2.42 -10.45
Si 10.92  0.64 -3.10
Si  9.89  0.72  5.58
Si -2.77 -5.97  9.29
Si -4.37 10.47 -1.11
Si  3.88 -7.51  7.70
Si  4.32 -7.54 -7.47
Si  2.96 -6.19 -9.18
Si  5.91  4.40 -8.79
Si  0.29  6.14  9.71
Si -7.32 -7.12 -5.28
Si -2.17  8.18 -7.78
Si  0.55 -8.92 -7.24
Si -0.32 -11.50  0.39
Si -2.39 11.30 -0.08
Si -1.02 -10.20 -5.34
Si  4.63 -1.79 -10.45
Si  1.15  2.86 -11.15
Si -9.30 -1.40  6.74
Si -7.67 -2.07  8.44
Si 10.16  4.84 -2.87
Si -7.32 -7.12  5.64
Si -10.57  4.88  0.71
Si -1.02 -10.20  5.58
Si  6.11  2.33  9.66
Si  4.06  1.06 10.91
Si  4.06  1.06 -10.92
Si -11.25  2.60 -1.92
Si  7.68  4.47 -7.62
Si -10.63 -4.77 -1.20
Si -1.16  8.63  7.91
Si  3.01  9.63 -6.05
Si  1.61  9.51  6.74
Si -1.70 -7.35 -9.04
Si  6.54 -0.44  9.80
Si  9.52  3.07 -6.32
Si -8.48 -0.80 -8.24
Si  0.34 -6.03 -10.21
Si  9.37  7.26 -0.79
Si 11.74 -1.30 -1.64
Si -9.67  6.69  2.02
Si  9.21 -7.35  1.88
Si  7.31  6.75 -6.62
Si -11.51 -2.83  1.49
Si  1.19 11.76  1.79
Si -7.67  8.84 -2.47
Si  0.01 11.55 -3.10
Si -8.46 -8.13  2.34
Si -6.86 -9.85 -0.01
Si  8.75 -2.73 -7.78
Si -5.01 -6.52 -8.79
Si  3.90  3.34 10.91
Si  3.90  3.34 -10.92
Si  6.38 -6.69  7.77
Si  8.51 -8.48 -1.16
Si  2.45 -8.13 -8.58
Si 10.53 -2.71  5.33
Si -4.92 -4.70 10.05
Si 10.16 -6.07 -2.87
Si -10.57 -6.03  0.71
Si 11.46  2.00  3.67
Si  3.56  7.28 -9.14
Si 10.53 -2.71 -5.58
Si -4.37 -11.36 -1.11
Si -3.77 -2.42 11.38
Si 11.20 -4.77 -1.20
Si -9.54 -3.89 -6.61
Si -6.73 -10.00 -2.15
Si -0.33 -8.31  9.00
Si  2.43 -11.71  2.68
Si 12.11  0.85  1.79
Si  6.44 -9.77  3.69
Si -7.35 -3.64 -9.14
Si 11.26  4.88  0.71
Si -8.91 -5.43  6.52
Si -6.28 -1.79 -10.45
Si  7.33  9.45 -2.98
Si -8.91  5.49  6.52
Si -10.63  6.14 -1.20
Si -1.54 -3.65 -11.70
Si  0.83 -12.22 -1.64
Si -8.46  2.78 -8.58
Si  8.75  8.18  3.13
Si  6.54 10.47 -1.11
Si 12.06  2.86 -0.24
Si  4.61 10.56 -4.60
Si  4.63 -1.79 11.38
Si -0.60  8.08 -9.42
Si  5.91 -6.52 -8.79
Si -6.95  5.15  8.95
Si -6.59 -7.54 -7.47
Si -3.87 -10.78 -5.01
Si -4.99  7.94  8.30
Si  2.37 11.73 -3.76
Si -2.40  2.43 -12.07
Si -1.54  7.26 10.13
Si -3.19 -11.86  2.70
Si  7.68 -6.44 -7.62
Si -5.06  7.20 -9.01
Si  2.37 -10.10  7.15
Si -9.54  7.02  4.31
Si  0.34  4.88 11.62
Si  6.00 -4.70 10.05
Si -2.97 -9.61  7.63
Si  4.06 11.97 -0.01
Si -12.07 -2.28 -3.01
Si  0.83 -1.30 -12.55
Si  3.25  8.84  8.44
Si -9.77 -8.05 -0.24
Si  3.84  7.06  9.82
Si -7.08 -3.85  9.82
Si -6.95 -5.76  8.95
Si  4.18 11.82 -2.15
Si -3.87 11.05 -5.01
Si -0.60 -2.83 12.41
Si  9.76 -2.28  7.91
Si -7.11 -9.93  3.79
Si -11.30 -2.71  5.33
Si  1.19  0.85 12.70
Si 11.26 -6.03  0.71
Si  3.80 -9.93 -7.12
Si -4.92  6.21 10.05
Si -10.36  2.00 -7.24
Si -4.37 -0.44 -12.02
Si 11.20  6.14 -1.20
Si 10.72  4.73 -5.25
Si -1.02 11.63 -5.34
Si -3.58  9.45  7.93
Si -7.03 -7.51  7.70
Si -3.87 -10.78  5.91
Si  7.14 -2.42 -10.45
Si -11.30 -2.71 -5.58
Si  7.94 -9.61 -3.29
Si  7.72  9.96  2.70
Si  0.01 -10.27  7.82
Si -6.86  1.06 10.91
Si  5.93  7.94  8.30
Si  5.85  7.20 -9.01
Si -6.86  1.06 -10.92
Si -1.02 11.63  5.58
Si -4.48 -9.77 -7.22
Si -11.67  4.84 -2.87
Si -2.97 12.22 -3.29
Si -12.45 -3.65 -0.79
Si 10.72  4.73  5.67
Si  4.61 -11.27 -4.60
Si  0.29 -4.77 -12.12
Si 12.16 -4.22  2.02
Si -7.95  4.72 -9.18
Si  3.80 11.90  3.79
Si -11.94  0.72 -5.34
Si -0.33  2.60 -12.83
Si  0.34 -6.03 11.62
Si  1.61 -12.32 -4.17
Si -3.87 11.05  5.91
Si -6.28 -1.79 11.38
Si -6.31 10.56 -4.60
Si  4.61 10.56  6.32
Si -2.40 -8.48  9.76
Si  6.54 -11.36 -1.11
Si  9.52 -7.84  4.60
Si -11.11  4.73 -5.25
Si  8.51  2.43  9.76
Si  3.84 -3.85 -12.01
Si 10.31  8.08  1.49
Si -11.94  0.72  5.58
Si -3.58 -12.38 -2.98
Si -12.62  3.57  1.88
Si  6.00  6.21 10.05
Si  2.43 10.11 -8.24
Si 12.53 -1.40 -4.17
Si -4.81  2.33 -12.16
Si -3.19  9.96 -8.21
Si  8.14  4.94  9.29
Si -13.31  0.38 -0.08
Si -11.11  4.73  5.67
Si -9.72  0.85 -9.12
Si  9.76  8.63 -3.01
Si -7.90  9.63  4.86
Si -4.48 12.05  3.69
Si  0.83  9.61  9.28
Si -1.70  3.57 12.79
Si  9.21  3.57 -9.04
Si -7.01  3.34 10.91
Si -7.01  3.34 -10.92
Si  1.15 -8.05 10.68
Si -8.80 -8.59 -5.39
Si  0.55 12.91  3.67
Si -10.90  0.64  7.82
Si 10.72 -6.18 -5.25
Si 10.92  0.64  7.82
Si -2.03 -12.13 -5.44
Si -11.67 -6.07 -2.87
