500
set: 150.00  0.00  0.00
Si  0.01 -0.08  0.07
Si  0.04 -0.11 -2.17
Si -1.77  1.07  0.69
Si  1.80  1.04  0.81
Si  0.06 -2.17  0.83
Si -1.79 -3.08  0.05
Si  3.61  0.08  0.01
Si -3.61  0.03 -0.03
Si  1.88 -1.12 -2.88
Si -0.01  2.02 -3.01
Si -1.84  1.07  2.96
Si -1.81 -1.13 -2.98
Si  1.84  3.18  0.01
Si -1.85  3.18 -0.12
Si  1.81  1.05  3.02
Si  1.86 -3.19 -0.01
Si -0.02 -2.10  3.06
Si  3.65  0.11 -2.25
Si -3.65 -2.12  0.73
Si -1.84 -1.02  3.74
Si  1.75  3.22 -2.24
Si -1.88  3.08 -2.33
Si -3.65 -0.04 -2.27
Si -0.06  2.09  3.76
Si -0.03  4.27  0.67
Si  1.77 -1.04  3.80
Si -1.88 -3.21 -2.21
Si  3.73 -2.09  0.70
Si  1.87 -3.29 -2.27
Si  3.58 -2.05  2.95
Si -0.06  4.20  2.92
Si -0.03 -4.19 -3.02
Si -3.69  2.03 -3.05
Si -3.69 -2.07  3.04
Si  3.64  2.23 -2.99
Si  1.76 -1.05 -5.11
Si -1.87 -5.22  0.76
Si  3.65  4.20  0.81
Si -3.67  4.19  0.74
Si  3.65  2.09  3.73
Si  1.77 -5.28  0.78
Si -5.49  1.08  0.74
Si  0.03  2.08 -5.25
Si -0.04 -4.20  3.78
Si  5.51  1.08  0.70
Si -3.67  2.19  3.71
Si -1.86 -1.15 -5.23
Si -1.78  5.21 -2.96
Si  1.76 -5.20  3.02
Si  3.54  4.18  3.07
Si  5.44 -1.04 -2.97
Si -1.75  0.95 -5.98
Si  1.85  1.05 -5.94
Si  5.45  3.19 -0.08
Si -5.47 -3.17  0.03
Si -5.47 -1.16 -2.97
Si  1.86  5.30 -2.92
Si -0.04 -2.12 -5.99
Si -0.05 -6.36  0.04
Si -5.51  1.14  2.97
Si  5.53  1.12  2.96
Si -1.86 -1.09  6.00
Si  5.54 -3.17  0.09
Si  0.06  6.39 -0.06
Si -1.82 -5.35  3.01
Si -5.54  3.22 -0.06
Si -0.09  2.13  6.04
Si  3.66 -4.31 -3.03
Si  1.91 -1.05  6.04
Si -3.66 -4.34 -3.01
Si -3.74  4.31  3.02
Si  5.44 -1.01  3.67
Si  5.43 -3.15 -2.19
Si  1.71  5.30  3.69
Si  3.65 -4.22  3.71
Si -3.55  2.11 -5.28
Si -3.62 -4.24  3.74
Si -0.04 -0.03  6.72
Si -0.00 -6.33 -2.27
Si -1.83  5.31  3.71
Si  3.67  2.08 -5.25
Si -5.54 -1.01  3.73
Si -5.45  3.22 -2.35
Si -0.01 -4.29 -5.25
Si -5.48 -3.30 -2.24
Si  5.56  3.16 -2.33
Si -0.02  6.42 -2.33
Si  0.06  4.22 -5.93
Si  3.65  6.31  0.07
Si  3.62  2.13  5.97
Si  3.63 -6.35  0.03
Si -3.69  2.17  5.94
Si -7.32  0.00 -0.03
Si  7.32  0.00 -0.03
Si  3.64 -2.06 -6.02
Si -3.69  6.34  0.03
Si -3.69 -2.09 -5.99
Si -3.67 -6.37  0.07
Si  0.06 -4.23  6.03
Si -3.56 -4.20 -5.19
Si  5.41 -1.03 -5.23
Si  3.74  6.26 -2.15
Si -1.78  5.26 -5.19
Si -7.27 -2.11  0.74
Si -1.78  7.37  0.72
Si -3.63  0.09  6.70
Si -3.60  6.34 -2.24
Si  1.85  5.33 -5.16
Si -7.31 -0.07 -2.24
Si  3.69 -4.14 -5.26
Si -5.48 -5.28  0.78
Si  1.78  3.17  6.73
Si -3.58 -6.43 -2.15
Si  7.33 -0.07 -2.24
Si  1.84  7.40  0.78
Si -5.54 -1.06 -5.23
Si -1.92  3.20  6.73
Si  3.72 -6.35 -2.24
Si -1.78 -3.20  6.77
Si  7.37 -2.11  0.74
Si  1.85 -3.13  6.80
Si  5.55 -5.32  0.72
Si  3.75  0.03  6.77
Si -7.26  2.02 -3.02
Si -5.46 -0.96  5.94
Si -3.57  4.21 -5.98
Si  1.87 -7.35 -3.00
Si  5.51 -1.06  5.91
Si -3.57 -4.25  5.98
Si -5.42  1.03 -6.01
Si  1.87 -5.19 -6.02
Si  1.90  5.26  5.95
Si -1.75  5.29  5.97
Si  3.66 -4.23  5.96
Si -1.80  7.40  2.98
Si -5.52 -5.26  2.98
Si  7.32 -2.11  3.03
Si  3.66  4.23 -6.00
Si  1.80  7.43  2.98
Si  5.52 -5.28  2.98
Si -7.33 -2.11  3.03
Si -5.46  5.34 -3.00
Si -1.74 -7.42 -3.08
Si  7.39  2.02 -3.02
Si -1.80 -5.29 -6.05
Si  5.58  1.07 -5.99
Si  5.58  5.27 -3.08
Si  5.43  5.24  3.73
Si  1.76 -7.34  3.75
Si  7.29  4.24  0.75
Si  1.76  1.11 -8.21
Si -7.29  2.17  3.73
Si  0.03 -2.06 -8.23
Si -0.03 -8.45  0.75
Si -1.89  1.01 -8.23
Si -7.36  4.24  0.75
Si  7.35  2.17  3.73
Si -1.89 -7.45  3.73
Si -5.56  5.34  3.75
Si  7.22 -4.16 -3.06
Si -0.10  0.07  8.90
Si -0.02 -8.44  2.97
Si  7.30  4.25  2.97
Si -7.34  4.25  2.97
Si -0.02  0.02 -8.99
Si -7.42 -4.16 -3.06
Si -0.10  8.52 -3.06
Si  5.45 -3.18  6.64
Si -5.40 -3.09  6.74
Si -7.22  2.11 -5.27
Si  1.93 -7.32 -5.22
Si  5.46  3.08  6.73
Si  0.10  6.34  6.69
Si -0.04  4.25 -8.18
Si -9.13  1.08  0.70
Si -5.40  5.37 -5.22
Si  3.65 -2.03 -8.25
Si  9.15  1.08  0.74
Si  7.32 -4.20  3.80
Si -7.32 -4.20  3.80
Si -3.67 -2.14 -8.23
Si  0.03 -6.38  6.71
Si  5.45  5.28 -5.32
Si  5.45  7.46  0.76
Si  3.66 -8.49  0.74
Si -3.67 -8.49  0.81
Si -5.56  7.41  0.78
Si -0.01  8.49  3.80
Si -1.87 -7.41 -5.32
Si  7.42  2.11 -5.27
Si -5.57  3.18  6.85
Si  7.24 -2.09 -5.92
Si  3.66  8.35 -3.01
Si  3.59 -8.37  3.02
Si -5.41 -5.28 -5.92
Si -7.26 -6.29 -0.06
Si  3.59  0.09 -8.94
Si -5.46 -7.38 -2.92
Si  1.78 -9.47 -0.06
Si -3.66  8.38 -3.03
Si  7.27  6.33  0.04
Si -9.11 -3.17  0.09
Si -3.66 -0.08  8.93
Si  7.28  2.10  5.97
Si -1.82  3.11 -8.95
Si  5.50  7.34  3.01
Si -9.12  1.12  2.96
Si -1.86  7.36 -5.96
Si  9.10  3.22 -0.06
Si -3.77 -0.04 -8.89
Si  1.91  7.41 -5.92
Si  3.66 -0.11  8.95
Si  5.57  5.17  5.98
Si  9.14  1.14  2.97
Si  1.82 -3.09 -8.99
Si  1.85  3.07  8.99
Si -1.87 -9.49 -0.08
Si -1.79  9.51  0.09
Si  5.46 -5.32 -5.96
Si  1.75  3.26 -8.94
Si -1.79 -3.11 -9.00
Si  1.85  9.51  0.03
Si -5.47  5.28  6.02
Si  7.38 -6.29 -0.06
Si  9.18 -3.17  0.03
Si -7.41 -2.09 -5.92
Si -7.36  2.10  5.97
Si  9.18 -1.16 -2.97
Si -7.37  6.33  0.04
Si  1.85 -7.41  6.02
Si -1.88  3.19  8.99
Si -9.20 -1.04 -2.97
Si -1.78 -3.24  9.00
Si -9.20  3.19 -0.08
Si  1.86 -3.15  9.04
Si -1.75 -7.51  5.98
Si  5.55 -7.47 -2.96
Si -3.77 -8.50  3.07
Si -5.57  7.49  3.02
Si  1.83  9.38 -2.24
Si -0.02 -2.04  9.63
Si -3.55 -6.35  6.68
Si -9.08  3.16 -2.33
Si  9.11 -1.01  3.73
Si  7.31 -6.26 -2.33
Si -3.65  6.31  6.71
Si -3.62  4.22 -8.22
Si  1.79 -5.24 -8.23
Si  5.50 -7.38  3.71
Si  7.31 -0.06  6.71
Si -7.34 -6.26 -2.33
Si -0.04  8.43 -5.24
Si  1.88 -9.47 -2.35
Si  1.83  0.92  9.72
Si  7.29 -4.25 -5.24
Si -7.33 -0.06  6.71
Si  3.77  6.33  6.68
Si -3.67  8.46  3.71
Si  7.31  6.35 -2.27
Si  3.70  8.45  3.74
Si -7.33  6.35 -2.27
Si  3.67 -6.38  6.71
Si -9.21 -1.01  3.67
Si -1.75 -9.53 -2.33
Si -1.89  9.54 -2.19
Si  3.65  4.24 -8.25
Si  5.50  1.08 -8.24
Si -9.21 -3.15 -2.19
Si -1.88 -5.24 -8.29
Si -7.36 -4.25 -5.24
Si -5.61 -7.39  3.69
Si  9.16 -3.30 -2.24
Si -1.89  1.08  9.77
Si  9.19  3.22 -2.35
Si -5.61  1.07 -8.26
Si -7.25  4.25 -5.88
Si  0.07 -8.43 -5.88
Si  7.39  4.25 -5.88
Si -7.25 -4.21  6.08
Si  0.07  8.48  6.08
Si  7.39 -4.21  6.08
Si -5.47 -7.36 -5.16
Si  9.11 -1.06 -5.23
Si -9.10 -5.32  0.72
Si  0.01  4.16  9.72
Si -3.60 -2.12  9.72
Si  0.05 10.57  0.74
Si  9.17 -5.28  0.78
Si  5.55 -7.43 -5.19
Si  3.75  8.48 -5.19
Si -9.24 -1.03 -5.23
Si -3.63  8.55 -5.26
Si  3.74 -2.20  9.81
Si  0.06  6.25  8.94
Si -9.07  1.07 -5.99
Si -9.13 -1.06  5.91
Si -9.07  5.27 -3.08
Si -0.02  6.36 -8.90
Si  9.12 -5.26  2.98
Si -5.46 -3.12  8.96
Si -5.42 -7.42  5.95
Si -0.00 -6.34 -8.93
Si -5.47  9.49 -0.01
Si -9.12 -5.28  2.98
Si  5.58 -3.19  8.88
Si -5.50 -3.17 -8.94
Si -5.48 -9.51  0.01
Si -3.67  8.45  5.96
Si  5.48 -9.51 -0.12
Si  9.19 -0.96  5.94
Si  5.51  3.10  8.98
Si  5.48 -3.16 -9.00
Si -0.01 10.57  3.03
Si -3.66 -8.46 -6.00
Si  3.75  8.44  5.98
Si  5.52  3.18 -8.98
Si  5.58 -7.39  5.97
Si -5.52  3.20 -8.98
Si -0.01 -6.44  8.95
Si  5.51  7.39 -6.05
Si 11.03  0.03 -0.03
Si  3.75 -8.47 -5.98
Si -11.04  0.08  0.01
Si -5.44  3.11  9.08
Si  9.18  5.34 -3.00
Si -5.46  7.49 -6.02
Si  9.22  1.03 -6.01
Si  0.07 -10.66 -3.02
Si  5.53  9.61  0.05
Si -5.46  9.40 -2.27
Si -10.91 -2.09  0.70
Si  5.44  9.47 -2.21
Si  0.04 -10.51  3.73
Si  7.26 -2.13 -8.20
Si -5.46  0.94  9.69
Si  7.30 -8.42  0.67
Si  1.77  7.42 -8.16
Si  3.67  4.19  9.69
Si -5.55 -5.26 -8.16
Si  9.08  5.34  3.75
Si  1.75 -5.24  9.72
Si -1.88 -5.38  9.62
Si  5.49 -5.25 -8.22
Si -7.34 -8.42  0.67
Si -0.03  0.01 -11.21
Si  3.67 10.56  0.73
Si -5.57 -9.47 -2.24
Si -3.59 10.59  0.70
Si  5.44  1.01  9.75
Si 10.99 -2.12  0.73
Si -10.99  0.11 -2.25
Si 10.99 -0.04 -2.27
Si -7.38 -2.13 -8.20
Si -1.84  7.44 -8.22
Si -9.22  5.24  3.73
Si -3.67  4.34  9.71
Si  5.45 -9.61 -2.33
Si  3.63  6.26  8.91
Si -3.68 -10.46 -2.99
Si  3.64 -6.30 -8.92
Si  3.64 -6.23  8.97
Si  7.29  0.04  8.94
Si  7.26 -8.49  2.92
Si 10.95  2.03 -3.05
Si 10.96 -2.07  3.04
Si -7.36  0.04  8.94
Si -3.69  6.39 -8.92
Si -3.69 -6.43  8.91
Si  7.29  8.49 -3.02
Si  7.26 -0.03 -9.04
Si -3.74 -6.28 -9.01
Si -11.00  2.23 -2.99
Si -7.38 -8.49  2.92
Si  3.58  6.41 -9.01
Si  3.63 10.62  3.04
Si -11.06 -2.05  2.95
Si -7.36  8.49 -3.02
Si -3.68  6.46  8.97
Si -3.75 10.64  2.95
Si  3.63 -10.65 -3.05
Si -7.38 -0.03 -9.04
Si  3.65 -10.49  3.71
Si -7.22 -6.35  6.69
Si  0.00 -8.43 -8.16
Si -3.67 -0.03 -11.15
Si -1.88  9.50  6.64
Si -7.30  6.30  6.71
Si  9.08  7.41  0.78
Si  1.76  3.18 -11.18
Si  7.32  4.26 -8.16
Si -7.33  4.26 -8.16
Si -1.81 -11.60  0.70
Si  1.83 -11.60  0.74
Si 10.98  4.19  0.74
Si  7.35  6.30  6.71
Si -9.20 -3.18  6.64
Si 10.97  2.19  3.71
Si -10.99  4.20  0.81
Si  1.83 -3.14 -11.22
Si  7.27  8.48  3.78
Si -9.19  3.08  6.73
Si  3.66 -0.03 -11.22
Si -11.00  2.09  3.73
Si -1.87  3.24 -11.20
Si  9.08  3.18  6.85
Si  0.10 -10.57 -5.27
Si -3.67 -10.60  3.73
Si -1.81 -3.14 -11.26
Si  7.42 -6.35  6.69
Si  9.24 -3.09  6.74
Si  1.76 -9.51  6.85
Si -7.37  8.48  3.78
Si -9.20  5.28 -5.32
Si -9.20  7.46  0.76
Si -1.86 -9.61  6.73
Si  1.92  9.59  6.74
Si  9.24  5.37 -5.22
Si -9.07  5.17  5.98
Si  1.85 11.53 -2.97
Si  1.82 -11.55  2.97
Si -1.79 -11.57  2.96
Si  0.06 -2.06 11.90
Si -9.15  7.34  3.01
Si -0.05  2.10 -11.92
Si 10.91  4.31  3.02
Si -0.09 10.59 -5.92
Si -9.10 -7.47 -2.96
Si  9.19 -7.38 -2.92
Si  9.07  7.49  3.02
Si -0.04 -10.58  5.97
Si -1.88 11.65 -2.97
Si  9.23 -5.28 -5.92
Si -9.18 -5.32 -5.96
Si  9.17  5.28  6.02
Si -10.98 -4.31 -3.03
Si  1.85  1.05 11.99
Si 10.99 -4.34 -3.01
Si  1.78 -1.01 -12.02
Si -1.79  1.05 12.04
Si -5.45 -5.24  9.61
Si -1.87 -1.04 -12.04
Si  9.04 -7.39  3.69
Si -11.10  4.18  3.07
Si -1.76  7.39  9.63
Si  9.03  1.07 -8.26
Si  1.87  7.45  9.61
Si  7.31  8.40 -5.25
Si  5.56 -5.30  9.63
Si  7.32 -2.11  9.69
Si -7.33  8.40 -5.25
Si -9.15 -7.38  3.71
Si -7.33 -2.11  9.69
Si -10.97  2.08 -5.25
Si -10.99 -4.22  3.71
Si -3.67 -8.45 -8.25
Si -9.15  1.08 -8.24
Si  3.71 -8.47 -8.22
Si -3.65 -10.61 -5.25
Si  1.78 11.67  3.73
Si -1.89 11.68  3.67
Si 11.03 -4.24  3.74
Si  5.44  7.45 -8.29
Si -5.54  7.45 -8.23
Si  3.77 -10.58 -5.28
Si 11.09  2.11 -5.28
Si -3.67  2.08 -11.88
Si  3.64 -10.52  5.94
Si -7.26 -8.46 -5.93
Si 10.96  2.17  5.94
Si 10.95  6.34  0.03
Si  3.63  2.11 -11.94
Si 10.95 -2.09 -5.99
Si -0.00  4.23 11.93
Si -7.27  8.45  6.03
Si -3.69 -10.55  5.97
Si -10.99  6.31  0.07
Si  0.00 -12.68 -0.03
Si -0.00 12.69 -0.03
Si 10.98 -6.37  0.07
Si  3.62 10.59 -5.99
Si  7.38 -8.46 -5.93
Si -11.01 -6.35  0.03
Si -11.02  2.13  5.97
Si  0.00 -4.23 -11.99
Si -11.01 -2.06 -6.02
Si -3.69 -2.12 11.98
Si  7.38  8.45  6.03
Si -10.90  6.26 -2.15
Si -3.69 10.62 -6.02
Si  3.65 -2.15 12.03
Si  0.06  6.29 -11.13
Si -7.27 10.52  0.83
Si  0.01 12.62 -2.24
Si -10.89  0.03  6.77
Si  5.41 -9.49  6.73
Si -10.92 -6.35 -2.24
Si -10.95 -4.14 -5.26
Si -9.10 -7.43 -5.19
Si  9.18 -7.36 -5.16
Si -5.52 -3.19 -11.15
