500
set: 1080.00  0.00  0.00
Si -0.42  1.20 -0.78
Si  0.41 -1.22  0.81
Si  1.28  1.12  0.78
Si -1.32 -1.12 -0.80
Si -2.16  1.03  0.80
Si  2.12 -1.14 -0.79
Si  0.84  0.07 -2.42
Si -0.86 -0.01  2.43
Si  0.00 -2.25 -2.45
Si  0.05  2.30  2.41
Si  3.03  1.19 -0.83
Si -3.13 -1.23  0.83
Si -2.52  0.03 -2.42
Si  2.63  0.03  2.41
Si  0.45  3.50 -0.80
Si -0.49 -3.50  0.78
Si  1.25 -3.43 -0.83
Si -1.36  3.39  0.83
Si -1.73 -2.32  2.41
Si -1.73  2.32 -2.41
Si  1.78 -2.33  2.41
Si  1.77  2.37 -2.45
Si  3.79 -1.23  0.83
Si  0.89  0.06  4.01
Si  2.19  3.40  0.81
Si -0.84 -0.01 -4.05
Si -2.19 -3.42 -0.78
Si -3.89  1.19 -0.83
Si -0.04 -2.25  4.04
Si  0.03  2.30 -4.03
Si -3.02  3.49 -0.79
Si -3.37  2.29  2.41
Si  2.98 -3.59  0.80
Si  3.41 -2.30 -2.41
Si -2.62  0.01  4.05
Si -3.50 -2.30 -2.41
Si  2.66 -0.02 -4.04
Si  3.55  2.29  2.41
Si -4.29  0.03  2.41
Si  4.75  1.03  0.80
Si -1.64  2.34  4.04
Si  1.74 -2.28 -4.05
Si -1.74 -2.32 -4.03
Si -4.80 -1.14 -0.79
Si  1.73  2.38  4.04
Si  4.39  0.03 -2.42
Si -0.93 -4.56 -2.42
Si  0.85 -4.59  2.41
Si  3.89  3.49 -0.79
Si -0.75  4.65 -2.42
Si  0.92  4.62  2.43
Si -3.94 -3.59  0.80
Si -0.39  5.66  0.80
Si -3.41 -2.28  4.04
Si  5.59 -1.12 -0.80
Si -3.40  2.35 -4.05
Si -5.63  1.12  0.78
Si -0.44  1.19  5.66
Si  0.40 -1.19 -5.68
Si -2.52  4.66  2.41
Si  2.62 -4.60 -2.42
Si  3.51 -2.28  4.04
Si  0.35 -5.76 -0.79
Si -2.63 -4.63  2.43
Si  3.51  2.35 -4.05
Si -4.25 -0.02 -4.04
Si -4.73  3.40  0.81
Si  2.62  4.69 -2.42
Si  4.73 -3.42 -0.78
Si  1.30  1.09 -5.64
Si  4.30  0.01  4.05
Si -1.30 -1.11  5.68
Si  1.36  5.83 -0.78
Si -1.36 -5.84  0.81
Si  2.14 -1.12  5.63
Si -5.14 -2.33  2.41
Si -0.88 -4.57  4.01
Si -2.24  1.08 -5.63
Si -5.14  2.37 -2.45
Si  5.19  2.32 -2.41
Si  5.19 -2.32  2.41
Si  0.93  4.62 -4.05
Si -0.84  4.63  4.05
Si  0.89 -4.64 -4.04
Si -2.12  5.82 -0.83
Si  2.02 -5.86  0.83
Si  3.01  1.18  5.67
Si  6.06 -0.01  2.43
Si -6.08  0.07 -2.42
Si -3.05 -1.28 -5.66
Si  3.06  5.75  0.78
Si  5.56  3.39  0.83
Si -3.10 -5.75 -0.80
Si -2.48  4.60 -4.04
Si  2.53 -4.61  4.05
Si  6.50  1.20 -0.78
Si -6.50 -1.22  0.81
Si -5.66 -3.43 -0.83
Si -0.47 -3.53 -5.64
Si -2.61 -4.63 -4.05
Si  0.47  3.52  5.68
Si -1.28  3.35 -5.66
Si  2.66  4.68  4.01
Si -4.30 -4.60 -2.42
Si  1.23 -3.45  5.67
Si  4.29 -4.63  2.43
Si -4.30  4.69 -2.42
Si  4.40  4.66  2.41
Si  3.82 -5.75 -0.80
Si -5.18 -2.28 -4.05
Si  5.18 -2.32 -4.03
Si -3.86  5.75  0.78
Si  3.87 -1.28 -5.66
Si -2.21 -3.44  5.66
Si  2.17  3.44 -5.68
Si -3.91  1.18  5.67
Si -5.19  2.38  4.04
Si  5.28  2.34  4.04
Si -6.03  0.06  4.01
Si  2.90 -3.54 -5.63
Si -3.00  3.51  5.63
Si  6.08 -0.01 -4.05
Si  0.40 -1.19  7.24
Si  0.04  6.95 -2.41
Si  6.43 -3.50  0.78
Si  0.00 -6.96  2.41
Si -0.44  1.19 -7.26
Si  4.68  1.08 -5.63
Si -6.47  3.50 -0.80
Si -1.30 -1.11 -7.24
Si -4.78 -1.12  5.63
Si  1.30  1.09  7.28
Si -7.33  1.20 -0.78
Si  7.33 -1.22  0.81
Si -4.26  4.68  4.01
Si -1.60  6.92  2.41
Si  4.31 -4.63 -4.05
Si -1.77 -6.88 -2.45
Si  1.64 -6.92 -2.41
Si -4.39 -4.61  4.05
Si  1.82  6.93  2.41
Si  4.44  4.60 -4.04
Si  4.80  5.82 -0.83
Si -6.87  2.30  2.41
Si -6.92 -2.25 -2.45
Si  2.14 -1.12 -7.29
Si  6.92 -2.25 -2.45
Si -4.90 -5.86  0.83
Si  3.91  3.51  5.63
Si -2.24  1.08  7.29
Si  6.96  2.30  2.41
Si -4.01 -3.54 -5.63
Si  5.99 -4.56 -2.42
Si  3.01  1.18 -7.25
Si -6.00  4.62  2.43
Si -6.06 -4.59  2.41
Si -3.05 -1.28  7.26
Si -0.03 -6.90 -4.05
Si -0.47  5.70 -5.63
Si -5.62  1.09 -5.64
Si  0.37 -5.74  5.63
Si  0.14  6.96  4.04
Si  5.61 -1.11  5.68
Si  0.47  3.52 -7.24
Si  0.42  8.02  0.83
Si  6.17  4.65 -2.42
Si -5.56  5.83 -0.78
Si -1.28  3.35  7.26
Si -0.47 -3.53  7.28
Si  5.56 -5.84  0.81
Si  3.42 -6.95  2.41
Si -0.52 -8.05 -0.83
Si  4.71 -3.44  5.66
Si  1.23 -3.45 -7.25
Si  7.76  0.07 -2.42
Si -3.37  7.00 -2.45
Si -3.50 -6.95  2.41
Si -7.77 -0.01  2.43
Si -4.75  3.44 -5.68
Si -1.82 -6.87  4.04
Si  1.74 -6.91  4.04
Si  7.37  3.50 -0.80
Si  1.80  6.93 -4.03
Si  3.55  7.00 -2.45
Si  1.34  5.81  5.66
Si -1.63  6.97 -4.05
Si -7.41 -3.50  0.78
Si -1.37 -5.81 -5.68
Si -1.25  8.11 -0.79
Si  6.87 -2.25  4.04
Si  2.17  3.44  7.24
Si -6.89  2.30 -4.03
Si  8.20  1.12  0.78
Si -3.91  1.18 -7.25
Si  3.87 -1.28  7.26
Si -2.21 -3.44 -7.26
Si  1.21 -8.21  0.80
Si -8.24 -1.12 -0.80
Si  6.95  2.30 -4.03
Si -6.96 -2.25  4.04
Si -2.14  5.80  5.67
Si  2.10 -5.90 -5.66
Si  2.22  8.12 -0.80
Si -2.26 -8.12  0.78
Si  6.03 -4.57  4.01
Si -5.99  4.62 -4.05
Si -2.96  8.03  0.81
Si  3.07  5.72 -5.64
Si  2.96 -8.04 -0.78
Si  2.90 -3.54  7.29
Si -6.03 -4.64 -4.04
Si -3.00  3.51 -7.29
Si -3.08 -5.73  5.68
Si  6.07  4.63  4.05
Si  5.64  3.35 -5.66
Si  6.53  5.66  0.80
Si  6.48  1.19  5.66
Si  3.40 -6.94 -4.03
Si -6.52 -1.19 -5.68
Si  4.68  1.08  7.29
Si -5.68 -3.45  5.67
Si -7.76 -0.01 -4.05
Si -3.51 -6.94 -4.03
Si -6.57 -5.76 -0.79
Si  7.81  0.06  4.01
Si -3.42  7.00  4.04
Si -4.78 -1.12 -7.29
Si  3.50  7.00  4.04
Si  8.17 -3.43 -0.83
Si -3.85  5.72 -5.64
Si -0.84 -0.01  8.87
Si  5.15 -6.88 -2.45
Si -5.10  6.93  2.41
Si  3.84 -5.73  5.68
Si  0.89  0.06 -8.91
Si -8.27  3.39  0.83
Si  3.91  3.51 -7.29
Si  3.96  8.03  0.81
Si -3.96 -8.04 -0.78
Si -5.28 -6.92 -2.41
Si -4.01 -3.54  7.29
Si  5.32  6.92  2.41
Si  9.04 -1.14 -0.79
Si -0.04 -2.25 -8.88
Si -9.08  1.03  0.80
Si  0.03  2.30  8.89
Si  5.61 -1.11 -7.24
Si -2.62  0.01 -8.87
Si -5.62  1.09  7.28
Si  2.66 -0.02  8.87
Si  6.45 -3.53 -5.64
Si -8.64 -2.32  2.41
Si -0.47  5.70  7.29
Si -8.65  2.32 -2.41
Si -7.31  5.66  0.80
Si -6.45  3.52  5.68
Si  0.37 -5.74 -7.29
Si -7.67  4.65 -2.42
Si  7.27 -5.76 -0.79
Si  4.71 -3.44 -7.26
Si -4.75  3.44  7.24
Si  1.74 -2.28  8.87
Si  8.69 -2.33  2.41
Si -1.64  2.34 -8.88
Si  8.69  2.37 -2.45
Si  7.32 -1.19 -5.68
Si  7.77 -4.59  2.41
Si -1.74 -2.32  8.89
Si  1.73  2.38 -8.88
Si -7.35  1.19  5.66
Si -1.37 -5.81  7.24
Si -7.85 -4.56 -2.42
Si  1.34  5.81 -7.26
Si  4.66 -8.12  0.78
Si  7.83  4.62  2.43
Si  4.78  5.80  5.67
Si -4.70  8.12 -0.80
Si  5.10 -6.87  4.04
Si -4.82 -5.90 -5.66
Si -5.11  6.93 -4.03
Si -2.14  5.80 -7.25
Si -5.18 -6.91  4.04
Si -0.92 -9.21  2.41
Si  0.85 -9.22 -2.42
Si  2.10 -5.90  7.26
Si -0.74  9.28  2.41
Si  1.02  9.28 -2.42
Si  5.29  6.97 -4.05
Si -3.08 -5.73 -7.24
Si -9.44  0.03 -2.42
Si -8.55  2.34  4.04
Si  3.07  5.72  7.28
Si  9.10  3.40  0.81
Si -9.11 -3.42 -0.78
Si -3.41 -2.28 -8.88
Si -3.40  2.35  8.87
Si  5.64  3.35  7.26
Si  0.50  7.97 -5.66
Si  6.48  1.19 -7.26
Si  3.51 -2.28 -8.88
Si -6.52 -1.19  7.24
Si  3.51  2.35  8.87
Si  8.66 -2.28 -4.05
Si -8.66 -2.32 -4.03
Si  5.54 -5.81 -5.68
Si  8.65  2.38  4.04
Si -5.68 -3.45 -7.25
Si -4.25 -0.02  8.87
Si  9.54  0.03  2.41
Si -5.58  5.81  5.66
Si  4.30  0.01 -8.87
Si -2.70 -9.18 -2.42
Si -0.54 -8.07  5.67
Si -7.80 -4.57  4.01
Si  2.52 -9.26  2.43
Si -7.76  4.63  4.05
Si  5.67  8.11 -0.79
Si  2.69  9.24  2.43
Si  7.81 -4.64 -4.04
Si -7.39 -3.53 -5.64
Si -2.53  9.31 -2.42
Si  7.39  3.52  5.68
Si  7.85  4.62 -4.05
Si -1.23  8.13  5.63
Si  1.13 -8.17 -5.63
Si  3.84 -5.73 -7.24
Si -3.85  5.72  7.28
Si  8.22  1.09 -5.64
Si -5.71 -8.21  0.80
Si -0.84  4.63 -8.87
Si  0.93  4.62  8.87
Si -0.88 -4.57 -8.91
Si  9.94  1.19 -0.83
Si -8.22 -1.11  5.68
Si  0.89 -4.64  8.87
Si -6.88  6.95 -2.41
Si -0.71  9.23 -4.04
Si -6.91 -6.96  2.41
Si  6.92 -6.96  2.41
Si  0.76 -9.24  4.05
Si  6.96  6.95 -2.41
Si  0.93  9.26  4.05
Si  8.27  5.83 -0.78
Si -0.88 -9.27 -4.04
Si -10.05 -1.23  0.83
Si -8.28 -5.84  0.81
Si -2.25 -8.16 -5.64
Si  2.24  8.14  5.68
Si  2.94 -8.06  5.66
Si  6.45  5.70 -5.63
Si -2.97  8.06 -5.68
Si -2.48  4.60  8.87
Si  2.53 -4.61 -8.87
Si -6.45  3.52 -7.24
Si  6.40 -8.05 -0.83
Si  6.45 -3.53  7.28
Si -2.61 -4.63  8.87
Si -6.50  8.02  0.83
Si -9.54  0.01  4.05
Si  7.32 -1.19  7.24
Si -6.55 -5.74  5.63
Si -2.66 -9.19  4.01
Si  4.21 -9.18 -2.42
Si  9.58 -0.02 -4.04
Si -7.35  1.19 -7.26
Si  1.38 10.28  0.80
Si  2.66  4.68 -8.91
Si  2.53 -9.26 -4.05
Si -2.48  9.31  4.01
Si  4.78  5.80 -7.25
Si  2.71  9.24 -4.05
Si -4.23  9.24  2.43
Si -0.35 10.44 -0.83
Si -8.20  3.35 -5.66
Si  8.15 -3.45  5.67
Si -1.43 -10.38 -0.79
Si  0.24 -10.48  0.83
Si -5.18 -2.28  8.87
Si -0.86 -0.01 -10.49
Si -4.82 -5.90  7.26
Si -6.78  6.96  4.04
Si -4.40 -9.26  2.43
Si  0.84  0.07 10.50
Si  5.18 -2.32  8.89
Si -5.19  2.38 -8.88
Si  6.89 -6.90 -4.05
Si  9.90 -3.59  0.80
Si -9.94  3.49 -0.79
Si  4.39  9.31 -2.42
Si  5.28  2.34 -8.88
Si -6.95 -6.90 -4.05
Si  2.05 -10.37 -0.80
Si -2.09 10.37  0.78
Si  3.94  8.06 -5.68
Si -3.98 -8.06  5.66
Si  7.05  6.96  4.04
Si  0.00 -2.25 10.47
Si  8.94 -5.86  0.83
Si  9.06 -1.12  5.63
Si  6.08 -0.01  8.87
Si  0.05  2.30 -10.51
Si -6.03  0.06 -8.91
Si -9.04  5.82 -0.83
Si  0.50  7.97  7.26
Si -9.44  4.66  2.41
Si -2.52  0.03 10.50
Si -9.16  1.08 -5.63
Si 10.71 -1.23  0.83
Si -10.29  2.29  2.41
Si  5.54 -5.81  7.24
Si  2.63  0.03 -10.51
Si -5.58  5.81 -7.26
Si  7.29 -5.74  5.63
Si 10.33 -2.30 -2.41
Si  9.54 -4.60 -2.42
Si -0.54 -8.07 -7.25
Si  1.77  2.37 10.47
Si -9.55 -4.63  2.43
Si  4.26 -9.19  4.01
Si  9.53  4.69 -2.42
Si  4.31 -4.63  8.87
Si  7.33  8.02  0.83
Si -1.73 -2.32 -10.51
Si -7.39  5.70 -5.63
Si -1.73  2.32 10.51
Si  1.78 -2.33 -10.50
Si -10.81  1.19 -0.83
Si -4.39 -4.61 -8.87
Si  7.39  3.52 -7.24
Si -4.26  4.68 -8.91
Si -4.21  9.24 -4.05
Si  4.44  4.60  8.87
Si  3.13 10.45 -0.78
Si -10.42 -2.30 -2.41
Si -7.39 -3.53  7.28
Si -3.13 -10.47  0.81
Si  4.67 -8.16 -5.64
Si -4.68  8.14  5.68
Si 10.47  2.29  2.41
Si -1.23  8.13 -7.29
Si -7.44 -8.05 -0.83
Si  1.13 -8.17  7.29
Si -8.22 -1.11 -7.24
Si -4.38 -9.26 -4.05
Si  8.22  1.09  7.28
Si  4.43  9.31  4.01
Si  2.24  8.14 -7.24
Si -3.79 10.45 -0.78
Si -2.25 -8.16  7.28
Si  3.79 -10.47  0.81
Si -9.40  4.60 -4.04
Si -8.51  6.92  2.41
Si -2.97  8.06  7.24
Si -0.03 -6.90  8.87
Si  2.94 -8.06 -7.26
Si  9.09  3.44 -5.68
Si -5.90  9.28 -2.42
Si  6.00 -9.21  2.41
Si  9.45 -4.61  4.05
Si -3.37  2.29 -10.50
Si  8.56 -6.92 -2.41
Si -9.13 -3.44  5.66
Si  6.45  5.70  7.29
Si  0.14  6.96 -8.88
Si  3.41 -2.30 10.51
Si -6.07 -9.22 -2.42
Si -3.50 -2.30 10.51
Si  3.55  2.29 -10.50
Si -10.33 -2.28  4.04
Si -10.32  2.35 -4.05
Si -9.53 -4.63 -4.05
Si -8.69 -6.88 -2.45
Si -4.29  0.03 -10.51
Si -6.55 -5.74 -7.29
Si -1.82 -6.87 -8.88
Si  1.74 -6.91 -8.88
Si  4.39  0.03 10.50
Si 10.81  3.49 -0.79
Si  9.58  4.68  4.01
Si -1.63  6.97  8.87
Si  6.17  9.28  2.41
Si  5.68  8.13  5.63
Si  8.74  6.93  2.41
Si 10.43 -2.28  4.04
Si  1.80  6.93  8.89
Si 10.43  2.35 -4.05
Si  8.15 -3.45 -7.25
Si -8.19  3.35  7.26
Si  6.87 -2.25 -8.88
Si -10.85 -3.59  0.80
Si -11.21  0.03  2.41
Si  4.83 10.37  0.78
Si -6.89  2.30  8.89
Si -5.79 -8.17 -5.63
Si -4.87 -10.37 -0.80
Si -0.93 -4.56 10.50
Si  9.92  1.18  5.67
Si  0.92  4.62 -10.49
Si  0.85 -4.59 -10.51
Si -6.96 -2.25 -8.88
