500
set: 142.00  0.00  0.00
Si -0.05  0.03 -0.08
Si  1.74  1.09  0.78
Si  0.01 -2.08  0.77
Si -1.85  1.07  0.74
Si -0.03 -0.03 -2.35
Si  3.55  0.03  0.09
Si -1.79 -3.16 -0.01
Si  0.04  2.13 -2.97
Si -1.77  1.15  3.00
Si  1.78 -3.20 -0.04
Si  1.78  0.95  3.09
Si -1.81  3.22  0.04
Si -3.72 -0.01  0.00
Si  1.89 -1.07 -3.03
Si -1.85 -1.11 -3.05
Si  1.86  3.24  0.10
Si -0.03 -2.18  3.07
Si  3.58 -2.13  0.74
Si -1.82 -0.97  3.73
Si  1.87  3.19 -2.15
Si -1.77  3.25 -2.21
Si -1.76 -3.22 -2.28
Si  3.73 -0.06 -2.18
Si -3.68  0.01 -2.28
Si  1.85 -3.19 -2.27
Si -0.01  4.26  0.84
Si -3.69 -2.19  0.69
Si  0.04  2.18  3.83
Si  1.83 -1.18  3.85
Si -3.62 -2.07  2.95
Si -3.64  2.18 -2.94
Si  3.71  2.10 -2.92
Si  3.67 -2.17  3.02
Si  0.03  4.31  3.07
Si  0.04 -4.31 -3.07
Si  3.61  2.10  3.74
Si  5.47  1.05  0.76
Si -3.71  4.20  0.75
Si  0.04 -4.34  3.63
Si -1.84 -5.31  0.70
Si -3.67  2.13  3.76
Si  0.06  2.15 -5.25
Si  1.86 -5.33  0.69
Si  1.91 -1.02 -5.27
Si -1.82 -1.05 -5.32
Si  3.70  4.32  0.83
Si -5.61  1.04  0.73
Si  1.80  5.25 -2.96
Si  5.42 -3.20 -0.07
Si  5.47  3.17  0.01
Si -0.08  6.34  0.00
Si  3.63  4.22  3.07
Si  0.07 -2.11 -6.00
Si -1.84  1.08 -5.99
Si -3.67 -4.24 -3.02
Si -1.88 -5.32  2.96
Si  5.50  1.09  3.02
Si  5.46 -1.14 -3.08
Si -5.52 -0.97 -3.04
Si  1.96 -5.32  2.93
Si -1.85 -1.03  6.02
Si -3.72  4.23  3.00
Si  0.02 -6.39  0.04
Si -5.55  1.09  3.00
Si  1.87  1.13 -6.02
Si -5.58  3.16 -0.01
Si  3.68 -4.32 -2.98
Si -1.79  5.34 -3.10
Si -5.61 -3.16 -0.05
Si  0.03  2.12  6.08
Si  1.92 -1.09  6.12
Si -3.65  2.13 -5.19
Si -5.47 -1.02  3.72
Si -5.47 -3.11 -2.30
Si -3.62 -4.20  3.79
Si  3.69  2.14 -5.20
Si  5.49 -1.03  3.75
Si -5.55  3.10 -2.26
Si  5.53  3.19 -2.24
Si  0.00  6.38 -2.26
Si -1.86  5.35  3.72
Si -0.02 -0.04  6.78
Si  0.08 -6.40 -2.25
Si  5.54 -3.25 -2.29
Si  0.02 -4.25 -5.34
Si  1.83  5.43  3.77
Si  3.78 -4.29  3.80
Si  0.06 -4.28  5.89
Si  7.28 -0.06  0.07
Si -3.70  6.29 -0.06
Si  3.63  6.39 -0.04
Si  3.68 -2.14 -6.00
Si  3.68  2.20  5.99
Si -3.69 -2.06 -6.04
Si -3.69  2.12  6.03
Si -3.74 -6.37 -0.04
Si  3.67 -6.47 -0.06
Si  0.06  4.22 -6.14
Si -7.46 -0.06  0.07
Si -1.76 -3.16  6.67
Si  7.28 -0.15 -2.20
Si  1.86  5.25 -5.21
Si  5.45 -5.29  0.67
Si -1.85  3.21  6.67
Si -3.66  6.31 -2.30
Si -3.66 -4.17 -5.26
Si  7.29 -2.18  0.86
Si  1.78  7.43  0.66
Si -5.50 -0.98 -5.25
Si  3.63 -4.27 -5.25
Si  3.71  0.08  6.76
Si -3.78 -6.32 -2.32
Si  3.59  6.44 -2.32
Si -3.74 -0.01  6.78
Si -1.92  7.47  0.67
Si -5.59 -5.33  0.66
Si  1.87  3.27  6.78
Si  5.52 -1.05 -5.36
Si -1.76  5.34 -5.36
Si -7.46 -0.15 -2.20
Si  1.86 -3.26  6.82
Si  3.71 -6.45 -2.30
Si -7.45 -2.18  0.86
Si -5.41 -5.22  2.94
Si  7.29  2.03 -2.92
Si -3.60  4.22 -5.97
Si -5.51  5.21 -3.03
Si -1.77  7.43  2.90
Si -1.83 -7.41 -2.96
Si -5.51 -1.08  5.99
Si  5.47  1.07 -6.05
Si -1.90  5.33  5.98
Si -1.83 -5.30 -6.03
Si  3.73  4.25 -5.99
Si  5.54 -1.05  6.00
Si  5.53  5.35 -2.96
Si -3.60 -4.28  6.06
Si -7.45  2.03 -2.92
Si  5.60 -5.33  2.90
Si -5.58  1.11 -6.00
Si  1.79  5.37  6.03
Si  1.86 -5.34 -6.04
Si  7.36 -2.13  3.12
Si  3.73 -4.26  6.04
Si -7.38 -2.13  3.12
Si  1.96  7.54  2.94
Si  1.85 -7.55 -3.03
Si  1.85 -7.39  3.76
Si  7.33  4.24  0.75
Si -0.00 -2.08 -8.25
Si -1.88 -7.42  3.78
Si -1.88  1.08 -8.25
Si  5.49  5.34  3.78
Si  1.85  1.11 -8.27
Si -0.04 -8.52  0.75
Si  7.37  2.17  3.78
Si -7.37  2.17  3.78
Si -5.52  5.37  3.76
Si -7.41  4.24  0.75
Si -0.01 -8.42  3.02
Si -7.28 -4.26 -3.03
Si  0.09 -0.01  9.00
Si -0.01  0.08 -9.01
Si  0.09  8.50 -3.03
Si  7.36  4.34  3.02
Si -7.38  4.34  3.02
Si  7.46 -4.26 -3.03
Si  9.12  1.04  0.73
Si  7.32  2.15 -5.20
Si -3.67 -8.44  0.83
Si -1.85 -7.40 -5.23
Si -5.50 -3.21  6.74
Si -7.30 -4.28  3.78
Si -5.46  3.24  6.76
Si -5.51  7.43  0.69
Si  0.07  8.47  3.78
Si  5.55  3.21  6.71
Si -5.50  5.30 -5.29
Si  0.06 -6.36  6.78
Si  5.51 -3.14  6.80
Si  5.51  5.36 -5.23
Si  5.53  7.45  0.70
Si  3.70 -2.12 -8.27
Si -7.42  2.15 -5.20
Si  1.87 -7.46 -5.29
Si  3.67 -8.55  0.75
Si -3.76 -2.16 -8.29
Si -9.26  1.05  0.76
Si -0.05  6.41  6.83
Si  0.04  4.16 -8.40
Si  7.44 -4.28  3.78
Si -1.79 -3.16  8.93
Si -5.41  7.44  2.93
Si -5.45 -5.35 -5.92
Si  9.13 -3.16 -0.05
Si -1.91  3.12  8.95
Si  1.92  7.41 -5.92
Si -7.33 -2.14 -5.95
Si -3.69  8.44 -2.98
Si  9.16  3.16 -0.01
Si  1.87 -7.37  6.01
Si -7.29  2.15  6.03
Si -3.74 -0.04 -8.96
Si  5.49  7.44  2.96
Si  7.29 -6.42  0.00
Si -7.35  6.36  0.04
Si  5.52 -5.29 -6.01
Si  9.19  1.09  3.00
Si -1.87 -3.17 -9.01
Si  7.40 -2.14 -5.95
Si  3.65 -0.03 -9.03
Si -1.84 -7.42  6.04
Si  3.70  0.02  9.01
Si  1.82 -3.17 -9.03
Si  3.65 -8.53  3.00
Si  1.85  3.29  8.99
Si  7.39  6.36  0.04
Si -1.95  9.56 -0.07
Si  9.22 -0.97 -3.04
Si  1.76  9.60 -0.05
Si -1.85  7.47 -6.01
Si -5.50  5.39  6.01
Si  1.79 -9.60 -0.01
Si -3.69 -0.06  9.04
Si -1.90 -9.58  0.01
Si  3.70  8.52 -3.02
Si  5.53  5.34  6.04
Si -9.24  1.09  3.02
Si  5.58 -7.42 -3.10
Si -9.27  3.17  0.01
Si -1.88  3.19 -9.07
Si  1.80 -3.26  9.07
Si -3.74 -8.54  3.07
Si -5.57 -7.51 -2.96
Si  7.44  2.15  6.03
Si -7.45 -6.42  0.00
Si  1.96  3.19 -9.10
Si -9.28 -1.14 -3.08
Si -9.31 -3.20 -0.07
Si -5.54 -7.33  3.77
Si -7.35  0.01  6.69
Si -7.29  6.36 -2.25
Si  5.50 -7.41  3.72
Si -1.83  9.51 -2.29
Si -3.59  8.47  3.80
Si -0.02  8.46 -5.25
Si  9.19  3.10 -2.26
Si -1.83  1.01  9.74
Si  7.39  0.01  6.69
Si -3.62  4.30 -8.23
Si  1.90  1.15  9.73
Si  3.78  4.21 -8.23
Si -1.88 -5.28 -8.28
Si -9.21  3.19 -2.24
Si  0.00 -2.12  9.77
Si -1.84 -9.57 -2.24
Si -7.37 -6.38 -2.26
Si  7.37 -6.38 -2.26
Si  7.35 -4.30 -5.25
Si -5.54  1.18 -8.26
Si -9.20 -3.25 -2.29
Si  1.90 -5.28 -8.31
Si  5.50  1.09 -8.31
Si -7.39 -4.30 -5.25
Si -9.25 -1.03  3.75
Si  9.27 -1.02  3.72
Si -3.65 -6.37  6.84
Si  9.27 -3.11 -2.30
Si  3.69 -6.36  6.83
Si  7.45  6.36 -2.25
Si -3.67  6.39  6.83
Si  3.72  6.38  6.84
Si  1.82 -9.65 -2.26
Si  3.75  8.56  3.79
Si  1.90  9.65 -2.30
Si  7.36  4.25 -6.00
Si -0.01 -8.51 -6.00
Si  7.36 -4.25  6.03
Si -7.38  4.25 -6.00
Si -0.01  8.51  6.03
Si -7.38 -4.25  6.03
Si  3.59 -2.06  9.71
Si  9.15 -5.33  0.66
Si -0.08 10.58  0.86
Si -3.66 -2.20  9.73
Si -0.09  4.11  9.83
Si -3.74  8.49 -5.25
Si -5.50 -7.51 -5.21
Si  9.24 -0.98 -5.25
Si -9.29 -5.29  0.67
Si -9.22 -1.05 -5.36
Si  5.61 -7.42 -5.36
Si  3.71  8.59 -5.26
Si -0.01 -6.39 -8.91
Si -0.03  6.33 -8.96
Si -9.14 -5.33  2.90
Si  5.47 -7.43  5.98
Si -5.51 -9.52  0.10
Si  5.52  3.15  8.98
Si  9.16  1.11 -6.00
Si -5.48  3.19  9.00
Si  9.22  5.21 -3.03
Si 11.02 -0.01  0.00
Si -3.63 -8.51 -5.99
Si -9.20 -1.05  6.00
Si -5.51  7.42 -6.04
Si  5.56 -9.54  0.04
Si -3.64  8.50  6.04
Si -9.21  5.35 -2.96
Si -5.58 -3.31 -8.94
Si -5.58 -7.39  6.03
Si  9.23 -1.08  5.99
Si -5.51 -3.29  9.00
Si -0.08  6.28  9.11
Si -5.59  9.56 -0.04
Si  5.54  7.46 -6.03
Si -5.41  3.29 -9.09
Si  0.04 -6.37  9.06
Si  5.60 -3.11 -9.04
Si  3.77  8.48  6.06
Si -0.01 10.63  3.12
Si  3.77 -8.54 -5.97
Si  9.32 -5.22  2.94
Si  5.53 -3.16  9.07
Si  5.58  9.60 -0.01
Si -0.07 -10.73 -2.92
Si -9.27  1.07 -6.05
Si  1.83  7.32 -8.18
Si  5.60  3.17 -9.13
Si -7.33 -2.07 -8.20
Si -11.19  0.03  0.09
Si  3.68 10.57  0.69
Si -11.00 -0.06 -2.18
Si -0.00 -10.59  3.78
Si -5.50 -9.57 -2.15
Si  7.41 -2.07 -8.20
Si  5.60 -9.51 -2.21
Si  3.69  4.26  9.75
Si -5.52  1.06  9.76
Si  5.55 -5.22 -8.30
Si -1.77 -5.25  9.82
Si  7.36 -8.50  0.84
Si -5.52  9.56 -2.27
Si -5.54 -5.43 -8.18
Si -0.04 -0.02 -11.28
Si 11.05 -2.19  0.69
Si -7.38 -8.50  0.84
Si 11.06  0.01 -2.28
Si  5.61  1.04  9.75
Si  5.61  9.54 -2.28
Si -3.64  4.19  9.85
Si  9.22  5.37  3.76
Si -3.79 10.63  0.74
Si -9.25  5.34  3.78
Si -1.82  7.53 -8.30
Si  1.87 -5.31  9.88
Si -11.16 -2.13  0.74
Si -7.33 -0.06  8.96
Si -7.34  0.06 -8.96
Si -7.33  8.45 -3.07
Si  3.73 -10.58 -2.94
Si -11.03  2.10 -2.92
Si -7.34 -8.45  3.07
Si  3.67  6.33 -9.01
Si -3.71 10.59  3.02
Si  7.40  0.06 -8.96
Si  7.41 -0.06  8.96
Si  7.40 -8.45  3.07
Si -3.65 -10.66 -2.92
Si  7.41  8.45 -3.07
Si -3.64 -6.33  9.10
Si -3.70 -6.43 -9.01
Si -11.07 -2.17  3.02
Si 11.10  2.18 -2.94
Si 11.12 -2.07  2.95
Si  3.75 -6.33 -9.08
Si -3.66  6.36  9.11
Si  3.75 10.69  2.95
Si -3.62  6.43 -9.08
Si  3.71 -6.40  9.11
Si -7.33  8.42  3.63
Si  3.73  6.43  9.10
Si -3.67  0.06 -11.20
Si  7.41  8.42  3.63
Si -7.30  4.22 -8.25
Si -0.05 -10.61 -5.20
Si -1.82 -9.55  6.71
Si -9.19  3.21  6.71
Si  1.91 -9.52  6.76
Si 11.03  4.20  0.75
Si  1.87  9.55  6.74
Si -7.31  6.40  6.78
Si  7.32 -6.35  6.83
Si  3.67 -0.05 -11.28
Si  3.70 -10.63  3.76
Si -9.21  7.45  0.70
Si -1.89 -3.21 -11.27
Si  1.76 -11.72  0.73
Si  9.23  7.43  0.69
Si  0.07 -8.54 -8.25
Si  9.24 -3.21  6.74
Si -11.04  4.32  0.83
Si 11.07  2.13  3.76
Si  7.44  4.22 -8.25
Si -9.22 -3.14  6.80
Si  1.76 -3.22 -11.30
Si -9.22  5.36 -5.23
Si -1.89 -11.71  0.76
Si  9.24  5.30 -5.29
Si -3.76 -10.66  3.74
Si -1.84  3.19 -11.33
Si  1.86  3.18 -11.34
Si  7.42  6.40  6.78
Si -1.86  9.62  6.80
Si -7.42 -6.35  6.83
Si  9.28  3.24  6.76
Si -11.13  2.10  3.74
Si -1.95  1.06 11.96
Si  1.76  1.10 11.98
Si -1.91 11.62 -3.08
Si  0.03 10.62 -5.95
Si 11.02  4.23  3.00
Si  0.02  2.11 -11.99
Si -9.16 -7.42 -3.10
Si  1.82 -11.67  3.00
Si -1.87 -11.67  3.02
Si  0.07 -10.61  6.03
Si -9.22 -5.29 -6.01
Si  9.17 -7.51 -2.96
Si -1.90 -1.08 -12.02
Si -0.08 -2.16 12.03
Si  1.79 -1.10 -12.04
Si -9.25  7.44  2.96
Si 11.07 -4.24 -3.02
Si -9.21  5.34  6.04
Si  9.29 -5.35 -5.92
Si -11.06 -4.32 -2.98
Si  9.24  5.39  6.01
Si -11.11  4.22  3.07
Si  9.33  7.44  2.93
Si  1.85 11.79 -3.04
Si  9.20 -7.33  3.77
Si -10.96 -4.29  3.80
Si  1.82  7.36  9.77
Si -3.67 -10.62 -5.20
Si  3.75 -8.46 -8.23
Si -7.29 -2.14  9.78
Si -3.59 -8.54 -8.23
Si -11.04  2.14 -5.20
Si  3.72 -10.63 -5.19
Si -9.23 -7.41  3.72
Si  9.20  1.18 -8.26
Si 11.09  2.13 -5.19
Si  5.49  7.48 -8.28
Si -1.84  7.45  9.79
Si  5.53 -5.31  9.79
Si -7.35  8.51 -5.34
Si -5.47  7.48 -8.31
Si  1.90 11.74  3.72
Si -1.88 11.73  3.75
Si -5.55 -5.40  9.77
Si -9.23  1.09 -8.31
Si  7.39  8.51 -5.34
Si  7.45 -2.14  9.78
Si 11.12 -4.20  3.79
Si -7.31  8.48  5.89
Si -3.69 -10.56  5.99
Si -0.09 12.70  0.07
Si 11.04  6.29 -0.06
Si  3.63 -2.12 11.99
Si 11.00 -6.37 -0.04
Si -0.09 -4.32 -11.96
Si  7.43  8.48  5.89
Si -3.70 -2.22 11.97
Si -3.69 10.62 -6.00
Si 11.05  2.12  6.03
Si 11.05 -2.06 -6.04
Si -11.06 -2.14 -6.00
Si -11.06  2.20  5.99
Si  3.68 -10.64  6.03
Si  3.67  2.03 -12.09
Si -0.09 12.61 -2.20
Si -0.09  4.20 12.10
Si -7.31 -8.54 -6.14
Si -3.74  2.13 -12.07
Si -11.11  6.39 -0.04
Si -0.09 -12.82  0.07
Si -11.07 -6.47 -0.06
Si  3.68 10.70 -6.04
Si  7.34  4.23  9.68
Si  1.78 -1.07 12.69
Si 10.96 -6.32 -2.32
Si  7.43 -8.54 -6.14
Si -1.92 -1.03 12.70
Si -5.50 -9.49  6.78
Si  5.52 -9.55  6.67
Si -0.08 -6.44 -11.17
Si -7.40  4.23  9.68
Si -0.03 -8.53  9.68
Si 11.00 -0.01  6.78
