500
set: 909.00  0.00  0.00
Si  0.43 -1.17  0.83
Si -0.44  1.19 -0.81
Si -1.32 -1.17 -0.82
Si  1.37  1.18  0.82
Si -2.16  1.15  0.81
Si  0.87 -0.01 -2.44
Si  2.17 -1.20 -0.84
Si -0.90  0.01  2.47
Si  3.04  1.16 -0.82
Si  0.03  2.35  2.44
Si -0.04 -2.34 -2.46
Si -3.11 -1.19  0.81
Si -2.63  0.02 -2.45
Si  2.66 -0.01  2.47
Si -0.48 -3.50  0.84
Si  0.47  3.54 -0.85
Si  1.25 -3.52 -0.79
Si -1.74  2.34 -2.47
Si  1.74 -2.36  2.47
Si -1.27  3.53  0.82
Si -1.78 -2.34  2.47
Si  1.77  2.38 -2.44
Si  3.92 -1.17  0.78
Si -3.92  1.17 -0.82
Si  0.84 -0.03  4.10
Si -0.88 -0.02 -4.10
Si -2.25 -3.52 -0.85
Si  2.24  3.56  0.84
Si  3.00 -3.51  0.83
Si -0.02 -2.36  4.08
Si  0.01  2.36 -4.10
Si -3.05  3.55 -0.83
Si -2.63 -0.01  4.07
Si  3.49 -2.36 -2.42
Si  2.62  0.06 -4.09
Si -3.46  2.38  2.46
Si -3.52 -2.37 -2.46
Si  3.56  2.36  2.45
Si -1.71  2.35  4.06
Si -4.36  0.01  2.48
Si  1.78  2.32  4.09
Si -4.82 -1.20 -0.81
Si  4.39 -0.00 -2.46
Si  1.73 -2.39 -4.09
Si -1.78 -2.34 -4.11
Si  4.86  1.19  0.80
Si -0.81  4.69 -2.46
Si -0.94 -4.68 -2.44
Si  0.84 -4.70  2.45
Si  3.97  3.54 -0.79
Si -3.99 -3.53  0.82
Si  0.94  4.72  2.47
Si -5.66  1.19  0.80
Si -0.42  1.19  5.71
Si -3.48  2.35 -4.10
Si  0.42 -1.21 -5.73
Si  2.53 -4.70 -2.46
Si  3.48 -2.36  4.10
Si  5.71 -1.20 -0.81
Si -2.56  4.72  2.43
Si -3.54 -2.33  4.12
Si  3.56  2.37 -4.11
Si -0.39  5.87  0.81
Si -2.69 -4.71  2.44
Si  2.68  4.72 -2.46
Si  4.75 -3.51 -0.83
Si  0.32 -5.90 -0.82
Si -4.39 -0.01 -4.07
Si  4.37 -0.04  4.09
Si -1.35 -1.17  5.72
Si  1.34  1.17 -5.74
Si -4.80  3.55  0.83
Si -1.35 -5.88  0.82
Si  1.40  5.89 -0.82
Si -2.18  1.20 -5.70
Si  2.20 -1.16  5.71
Si  5.24 -2.34  2.43
Si  5.25  2.37 -2.46
Si -5.28 -2.34  2.43
Si -5.27  2.37 -2.46
Si -2.10  5.86 -0.81
Si  0.84 -4.69 -4.11
Si  2.14 -5.87  0.80
Si -0.82  4.72  4.12
Si  0.94  4.72 -4.11
Si -0.94 -4.74  4.09
Si -6.13 -0.00 -2.46
Si  3.08  1.14  5.73
Si -3.07 -1.18 -5.76
Si  6.16  0.01  2.48
Si -3.16 -5.87 -0.81
Si  0.48  3.51  5.72
Si  3.15  5.89  0.83
Si -2.58  4.69 -4.10
Si -6.60 -1.17  0.78
Si  6.60  1.17 -0.82
Si -0.52 -3.56 -5.72
Si  2.59 -4.73  4.10
Si  2.70  4.70  4.08
Si  5.72  3.55  0.83
Si -2.71 -4.70 -4.10
Si -5.77 -3.51 -0.83
Si  1.26 -3.47  5.73
Si -4.32  4.70 -2.42
Si  4.35 -4.68  2.46
Si -1.27  3.52 -5.75
Si  4.46  4.70  2.47
Si -4.46 -4.72 -2.47
Si -5.22  2.33  4.10
Si -3.94  1.16  5.72
Si  5.22 -2.37 -4.10
Si  3.95 -1.20 -5.72
Si  2.20  3.50 -5.72
Si  5.31  2.33  4.10
Si -2.24 -3.55  5.72
Si  3.88 -5.89 -0.82
Si -3.88  5.89  0.78
Si -5.30 -2.37 -4.10
Si  6.14 -0.01 -4.07
Si -6.15 -0.04  4.09
Si -3.03  3.52  5.75
Si  3.01 -3.57 -5.73
Si -0.42  1.19 -7.35
Si  6.54 -3.53  0.82
Si  0.41 -1.15  7.38
Si  0.09  7.08 -2.45
Si -6.55  3.54 -0.79
Si -0.06 -7.07  2.47
Si  7.41 -1.19  0.81
Si  1.32  1.19  7.36
Si  4.84  1.17 -5.72
Si -4.84 -1.18  5.72
Si -4.32  4.70  4.10
Si -1.33 -1.18 -7.38
Si  4.33 -4.71 -4.10
Si -7.48  1.16 -0.82
Si -4.43 -4.71  4.06
Si  4.45  4.67 -4.09
Si  1.67 -7.06 -2.46
Si -1.64  7.07  2.48
Si  4.89  5.86 -0.84
Si -4.88 -5.91  0.81
Si  1.82  7.07  2.47
Si -1.85 -7.07 -2.44
Si -6.96  2.36  2.45
Si -2.16  1.16  7.36
Si  2.20 -1.17 -7.37
Si  7.00 -2.37 -2.46
Si -7.04 -2.36 -2.42
Si -3.99 -3.54 -5.75
Si  3.98  3.59  5.73
Si  7.07  2.38  2.46
Si  3.10  1.17 -7.35
Si -6.07  4.70  2.47
Si -3.10 -1.19  7.35
Si  6.06 -4.72 -2.47
Si -0.09 -7.00 -4.09
Si -6.17 -4.68  2.46
Si  0.09  7.05  4.07
Si -5.68  1.17 -5.72
Si  5.69 -1.18  5.72
Si  6.21  4.70 -2.42
Si  0.46  3.54 -7.35
Si -5.63  5.86 -0.84
Si -0.49 -3.54  7.38
Si  5.65 -5.91  0.81
Si -3.41  7.06 -2.46
Si  3.44 -7.05  2.48
Si -0.35  5.88 -5.76
Si -7.87 -0.01  2.47
Si -4.79  3.49 -5.73
Si  0.37 -5.92  5.73
Si  7.89  0.02 -2.45
Si  1.30 -3.54 -7.35
Si  4.78 -3.54  5.75
Si  0.56  8.21  0.81
Si  3.59  7.05 -2.44
Si -1.27  3.55  7.37
Si -3.62 -7.05  2.47
Si -1.67  7.05 -4.07
Si  7.47  3.55 -0.83
Si -0.55 -8.26 -0.84
Si  1.37  5.89  5.72
Si -1.38 -5.89 -5.74
Si -7.52 -3.51  0.83
Si  1.84  7.04 -4.10
Si  1.20 -8.23  0.78
Si  1.65 -7.10  4.09
Si -1.20  8.23 -0.82
Si -1.88 -7.09  4.10
Si  3.89 -1.17  7.36
Si -6.96  2.37 -4.11
Si  6.99 -2.33  4.12
Si -3.92  1.19 -7.39
Si -2.26 -3.52 -7.35
Si  2.23  3.52  7.38
Si -2.12  5.88  5.72
Si -8.35 -1.20 -0.84
Si  2.12 -5.89 -5.72
Si  8.37  1.15  0.81
Si -7.04 -2.36  4.10
Si  7.05  2.35 -4.10
Si -2.29 -8.23  0.83
Si  2.28  8.25 -0.81
Si -3.00  3.54 -7.34
Si -6.08  4.67 -4.09
Si  6.09 -4.71  4.06
Si  3.03 -3.53  7.36
Si  3.14  5.85 -5.73
Si -3.14 -5.87  5.71
Si -6.20 -4.71 -4.10
Si -2.94  8.25  0.80
Si  6.58  1.16  5.72
Si  6.20  4.70  4.10
Si -6.58 -1.20 -5.72
Si  2.99 -8.26 -0.81
Si -3.43  7.02  4.09
Si  5.73  3.49 -5.73
Si  3.42 -7.07 -4.07
Si -5.75 -3.54  5.75
Si -4.82 -1.16 -7.36
Si  7.90 -0.01  4.07
Si  3.56  7.03  4.10
Si -7.90  0.06 -4.09
Si  6.64  5.89  0.78
Si -6.64 -5.89 -0.82
Si  4.85  1.17  7.40
Si -3.60 -7.08 -4.10
Si -0.89  0.01  8.97
Si  0.88  0.03 -8.98
Si  8.28 -3.52 -0.85
Si -3.86  5.86 -5.72
Si -8.28  3.56  0.84
Si -5.15  7.05  2.47
Si  5.17 -7.04 -2.45
Si  3.86 -5.90  5.72
Si  4.02  3.52 -7.35
Si -3.99 -3.51  7.37
Si -5.35 -7.04 -2.45
Si  5.38  7.05  2.47
Si -4.04 -8.23 -0.82
Si  4.09  8.24  0.82
Si -9.15  1.18  0.82
Si  0.01 -2.35 -8.99
Si  0.04  2.36  9.00
Si  9.20 -1.17 -0.82
Si -2.63  0.00 -9.00
Si  8.74 -2.34  2.47
Si  5.71 -1.16 -7.36
Si -8.75  2.38 -2.44
Si  6.54 -3.54 -5.75
Si  2.61  0.01  9.03
Si -5.67  1.17  7.40
Si -6.54  3.59  5.73
Si -0.38  5.87  7.35
Si  8.78  2.34 -2.47
Si  0.38 -5.89 -7.35
Si -8.78 -2.36  2.47
Si  4.80 -3.52 -7.34
Si  7.36 -5.87 -0.81
Si -4.77  3.53  7.36
Si -7.44  1.14  5.73
Si  1.68 -2.37  9.00
Si  7.83 -4.71  2.44
Si  1.79  2.36 -8.98
Si -1.75  2.34 -9.01
Si -7.37  5.89  0.83
Si -7.84  4.72 -2.46
Si -1.80 -2.34  9.02
Si  7.45 -1.18 -5.76
Si -1.40 -5.87  7.36
Si  4.69 -8.25  0.81
Si -4.76  8.22 -0.82
Si -4.90 -5.86 -5.70
Si  1.39  5.88 -7.38
Si  7.96  4.72  2.43
Si  4.92  5.90  5.71
Si -7.99 -4.70 -2.46
Si  5.18 -7.07  4.07
Si -2.10  5.91 -7.36
Si  2.13 -5.89  7.40
Si -5.18  7.12 -4.09
Si -5.35 -7.07  4.07
Si  0.77 -9.42 -2.42
Si  0.98  9.40 -2.47
Si -0.73  9.44  2.46
Si -0.98 -9.42  2.47
Si  5.34  7.12 -4.09
Si -3.14 -5.87 -7.35
Si -8.74  2.32  4.09
Si  3.53  2.33  8.98
Si  5.63 -5.86 -5.70
Si -3.46  2.33  9.01
Si  9.62  0.01  2.47
Si -5.60  5.90  5.71
Si  9.26  3.53  0.82
Si  8.74 -2.34 -4.11
Si -9.27 -3.52 -0.79
Si -5.72 -3.52 -7.34
Si -9.65 -0.01 -2.44
Si  3.50 -2.34 -9.02
Si -3.52 -2.38 -9.01
Si  3.13  5.91  7.38
Si -6.63 -1.17  7.36
Si  6.60  1.19 -7.39
Si  8.81  2.35  4.06
Si  5.75  3.53  7.36
Si  4.36  0.02 -8.98
Si -8.80 -2.39 -4.09
Si  7.81 -4.70 -4.10
Si -7.82  4.70  4.08
Si -4.41  0.02  8.99
Si -0.52 -8.22  5.71
Si  2.52 -9.40  2.43
Si  0.54  8.26 -5.70
Si -2.55  9.42 -2.46
Si  5.76  8.22 -0.82
Si  7.50  3.52  5.75
Si -1.22  8.22  5.72
Si  7.94  4.69 -4.10
Si -2.76 -9.40 -2.46
Si -7.51 -3.57 -5.73
Si  2.75  9.41  2.44
Si -7.94 -4.73  4.10
Si  1.23 -8.26 -5.72
Si -5.83 -8.25  0.81
Si -8.32 -1.16  5.71
Si  6.90 -7.05  2.47
Si  8.35  1.20 -5.70
Si  0.81 -4.73  8.98
Si -6.93  7.05 -2.44
Si -0.93 -4.70 -8.98
Si -0.80  4.68 -9.01
Si 10.08  1.19 -0.81
Si -10.09 -1.17  0.83
Si  3.88 -5.87 -7.39
Si -3.91  5.89  7.36
Si  0.92  4.72  9.02
Si -8.38 -5.87  0.80
Si  2.30  8.25  5.71
Si  1.01  9.41  4.06
Si -0.76  9.41 -4.10
Si  8.43  5.86 -0.81
Si -7.08 -7.05  2.48
Si  0.76 -9.42  4.10
Si  7.11  7.06 -2.46
Si -2.30 -8.27 -5.73
Si -0.99 -9.45 -4.09
Si -6.51  3.52 -7.35
Si -2.96  8.23 -5.72
Si  6.53 -3.51  7.37
Si  2.97 -8.23  5.72
Si -2.56  4.70  9.00
Si  9.65 -0.02 -4.10
Si -6.43  8.24  0.82
Si  2.56 -4.70 -9.04
Si -2.68 -4.70  9.00
Si  6.48 -8.23 -0.82
Si -7.42  1.17 -7.35
Si  7.42 -1.19  7.35
Si -9.68 -0.03  4.10
Si  2.73  4.71 -8.99
Si -2.50  9.39  4.10
Si  6.67  5.86 -5.72
Si -6.66 -5.90  5.72
Si  2.50 -9.43 -4.10
Si  0.28 -10.57  0.83
Si -4.24  9.42  2.45
Si -4.88 -5.90  7.36
Si -2.74 -9.42  4.08
Si  2.73  9.42 -4.10
Si  4.92  5.89 -7.37
Si  4.28 -9.43 -2.46
Si -0.33 10.61 -0.83
Si 10.04 -3.50  0.84
Si  5.24 -2.36  9.00
Si  8.29 -3.55  5.72
Si -10.05  3.54 -0.85
Si -8.32  3.50 -5.72
Si  0.88  0.03 10.66
Si -5.28 -2.36  9.00
Si -0.89  0.01 -10.67
Si -1.47 -10.58 -0.79
Si -4.50 -9.40  2.47
Si -5.24  2.36 -9.04
Si -6.96  7.03  4.10
Si  6.93 -7.08 -4.10
Si  1.45 10.59  0.82
Si  5.28  2.36 -9.04
Si  4.49  9.44 -2.44
Si  7.09  7.02  4.09
Si  2.03 -10.57 -0.83
Si -7.11 -7.07 -4.07
Si -4.07 -8.23  5.72
Si  4.06  8.23 -5.74
Si -2.08 10.61  0.83
Si  9.17 -1.17  5.72
Si  6.11  0.02  8.99
Si -9.18  1.17 -5.74
Si -9.13  5.89 -0.82
Si -6.16  0.02 -8.98
Si  0.04  2.36 -10.64
Si  0.01 -2.35 10.64
Si  2.61  0.01 -10.61
Si  9.18 -5.88  0.82
Si  9.58 -4.68 -2.44
Si -2.63  0.00 10.64
Si -9.59  4.72  2.47
Si -5.60  5.89 -7.37
Si  5.64 -5.90  7.36
Si 10.48 -2.34 -2.46
Si -1.75  2.34 10.63
Si -7.38  5.85 -5.73
Si -1.80 -2.34 -10.62
Si -10.49  2.35  2.44
Si  7.38 -5.87  5.71
Si  1.68 -2.37 -10.64
Si -9.68 -4.70  2.45
Si 10.95 -1.17  0.83
Si  0.56  8.22  7.36
Si -4.30  4.72 -9.02
Si -10.96  1.19 -0.81
Si  1.79  2.36 10.65
Si -0.52 -8.23 -7.37
Si  4.40  4.69  9.00
Si -4.72  8.20  5.73
Si  4.35 -4.73  9.01
Si  9.72  4.69 -2.46
Si -3.20 -10.56  0.84
Si -7.49 -3.53  7.36
Si 10.55  2.35  2.44
Si  7.52  3.54 -7.34
Si -10.56 -2.34 -2.46
Si  3.19 10.60 -0.85
Si  1.17 -8.22  7.36
Si  4.27 -9.39  4.12
Si -4.47 -4.72 -9.01
Si  4.73 -8.24 -5.76
Si -4.24  9.43 -4.11
Si -1.20  8.25 -7.39
Si  4.50  9.38  4.09
Si -8.32 -1.17 -7.37
Si  8.36  1.16  7.36
Si -4.50 -9.40 -4.11
Si -7.54 -8.26 -0.81
Si  7.58  8.25  0.80
Si -2.31 -8.21  7.38
Si  3.82 -10.59  0.82
Si  2.30  8.25 -7.35
Si -3.83 10.60 -0.79
Si -3.46  2.33 -10.63
Si  3.50 -2.34 10.62
Si -9.26 -3.47  5.73
Si  2.99 -8.21 -7.36
Si  6.02 -9.40  2.47
Si  0.09  7.06 -9.00
Si -9.58  4.72 -4.11
Si  9.58 -4.74  4.09
Si -3.52 -2.38 10.63
Si  9.26  3.52 -5.75
Si -0.11 -7.05  9.03
Si  8.68 -7.07 -2.44
Si -2.96  8.23  7.40
Si -6.03  9.44 -2.44
Si  3.53  2.33 -10.66
Si -8.70  7.07  2.47
Si  4.36  0.02 10.65
Si -9.68 -4.69 -4.11
Si 10.51 -2.36  4.08
Si  6.61  5.89  7.36
Si -4.41  0.02 -10.65
Si  1.64 -7.04 -8.98
Si -10.52  2.36 -4.10
Si -6.64 -5.87 -7.39
Si 10.53  2.36 -4.10
Si -10.54 -2.36  4.08
Si -1.84 -7.03 -8.98
Si  9.71  4.72  4.12
Si  1.83  7.07  8.97
Si  5.80  8.20  5.73
Si -1.69  7.08  8.99
Si -6.24 -9.43 -2.46
Si -11.00 -3.50  0.84
Si 10.99  3.54 -0.85
Si  6.28  9.42  2.45
Si -8.85 -7.06 -2.46
Si -5.79 -8.24 -5.76
Si  8.26 -3.52 -7.35
Si -6.99  2.33  8.98
Si  8.88  7.07  2.48
Si -8.29  3.52  7.38
Si -0.80  4.68 10.63
Si 11.39 -0.01 -2.44
Si  7.00 -2.38 -9.01
Si  0.92  4.72 -10.62
Si -7.02 -2.34 -9.02
Si 10.11  1.19  5.71
Si  8.23 -8.23  0.83
Si -10.10 -1.21 -5.73
Si -0.93 -4.70 10.65
