500
set: 969.00  0.00  0.00
Si -0.42  1.16 -0.87
Si  0.42 -1.20  0.87
Si  1.38  1.30  0.78
Si -1.43 -1.38 -0.83
Si  2.24 -1.22 -0.90
Si -1.03 -0.03  2.55
Si -2.23  1.36  0.93
Si  0.94  0.01 -2.62
Si  0.04  2.40  2.53
Si -0.03 -2.52 -2.55
Si -3.28 -1.27  0.85
Si  3.31  1.25 -0.81
Si -2.71  0.04 -2.49
Si  0.53  3.62 -0.83
Si  2.76  0.03  2.56
Si -0.58 -3.70  0.78
Si  1.80 -2.47  2.55
Si -1.75  2.53 -2.54
Si  1.93  2.48 -2.55
Si -1.32  3.73  0.85
Si  1.35 -3.76 -0.81
Si -1.92 -2.60  2.53
Si -4.01  1.25 -0.81
Si  4.04 -1.27  0.85
Si  0.90 -0.02  4.26
Si -0.90 -0.10 -4.29
Si  2.37  3.81  0.87
Si -2.38 -3.85 -0.87
Si -0.09 -2.49  4.20
Si  3.13 -3.64  0.93
Si -0.00  2.48 -4.26
Si -3.12  3.79 -0.90
Si -3.56  2.54  2.55
Si  3.61 -2.48 -2.54
Si -2.78  0.03  4.27
Si  2.83  0.04 -4.27
Si -3.71 -2.48 -2.54
Si  3.76  2.54  2.55
Si -4.56  0.03  2.56
Si  1.87  2.52  4.20
Si  4.61  0.04 -2.49
Si  1.82 -2.47 -4.25
Si -5.08 -1.22 -0.90
Si -1.78  2.54  4.32
Si -1.96 -2.53 -4.26
Si  5.09  1.36  0.93
Si -4.18 -3.64  0.93
Si  0.80 -4.97  2.56
Si  0.93  4.98  2.55
Si -0.75  5.04 -2.49
Si  4.20  3.79 -0.90
Si -1.02 -4.99 -2.62
Si -3.54  2.53 -4.25
Si -0.49  1.12  5.98
Si  5.89 -1.38 -0.83
Si -5.94  1.30  0.78
Si  3.59 -2.47  4.32
Si  2.65 -4.97 -2.49
Si  0.45 -1.20 -6.04
Si -4.49  0.04 -4.27
Si -2.60  5.03  2.56
Si -3.73 -2.47  4.32
Si  3.78  2.53 -4.25
Si  4.54  0.03  4.27
Si  1.44  1.30 -5.95
Si -1.45 -1.35  5.94
Si  0.28 -6.22 -0.90
Si -4.95  3.81  0.87
Si  4.94 -3.85 -0.87
Si  2.90  5.02 -2.62
Si -2.98 -5.03  2.55
Si  1.53  6.16 -0.87
Si -0.27  6.37  0.93
Si -1.54 -6.20  0.87
Si -5.39  2.48 -2.55
Si -2.25  1.23 -5.96
Si  5.40 -2.60  2.53
Si  2.28 -1.25  6.01
Si -5.51 -2.47  2.55
Si  1.06  4.90 -4.29
Si  0.87 -4.97 -4.27
Si  5.56  2.53 -2.54
Si -2.06  6.25 -0.81
Si -0.82  5.03  4.27
Si  2.08 -6.27  0.85
Si -1.06 -5.03  4.26
Si -3.16 -1.14 -5.88
Si  6.29 -0.03  2.55
Si  3.17  1.28  5.92
Si -6.38  0.01 -2.62
Si  0.51  3.66  5.94
Si -0.52 -3.70 -5.95
Si  6.89  1.16 -0.87
Si  2.58 -4.98  4.27
Si -6.90 -1.20  0.87
Si -2.53  5.04 -4.27
Si  1.21 -3.72  5.92
Si -5.97 -3.76 -0.81
Si  4.33 -5.03  2.55
Si  6.00  3.73  0.85
Si -1.20  3.87 -5.88
Si  2.86  4.98  4.26
Si  3.34  6.31  0.78
Si -4.42  5.02 -2.62
Si -2.85 -5.11 -4.29
Si -4.67 -4.97 -2.49
Si -3.38 -6.38 -0.83
Si  4.16 -1.14 -5.88
Si  5.36 -2.53 -4.26
Si -5.45  2.52  4.20
Si -4.15  1.28  5.92
Si  4.71  5.03  2.56
Si -5.49 -2.47 -4.25
Si  5.54  2.54  4.32
Si -3.98  6.31  0.78
Si  2.41  3.81 -6.04
Si -2.45 -3.88  5.98
Si  3.94 -6.38 -0.83
Si  0.35 -1.20  7.59
Si -6.42 -0.02  4.26
Si  3.11 -3.77 -5.96
Si  6.42 -0.10 -4.29
Si -3.08  3.75  6.01
Si  6.74 -3.70  0.78
Si -0.40  1.12 -7.64
Si -6.79  3.62 -0.83
Si  7.74 -1.20  0.87
Si -7.74  1.16 -0.87
Si -0.15 -7.47  2.55
Si  1.35  1.30  7.68
Si  5.06  1.23 -5.96
Si -1.36 -1.35 -7.69
Si -4.46  4.98  4.26
Si -5.04 -1.25  6.01
Si  0.20  7.53 -2.54
Si  4.47 -5.11 -4.29
Si  1.65 -7.48 -2.54
Si -7.28  2.40  2.53
Si  1.99  7.41  2.53
Si  2.38 -1.25 -7.62
Si -4.74 -4.98  4.27
Si -2.35  1.23  7.67
Si -1.60  7.54  2.55
Si  7.29 -2.52 -2.55
Si  7.36  2.40  2.53
Si  4.79  5.04 -4.27
Si -7.35 -2.52 -2.55
Si -1.99 -7.53 -2.55
Si  5.26  6.25 -0.81
Si -5.24 -6.27  0.85
Si -4.21 -3.77 -5.96
Si  4.24  3.75  6.01
Si  6.30 -4.99 -2.62
Si  5.87 -1.35  5.94
Si -5.88  1.30 -5.95
Si  3.27  1.28 -7.71
Si -3.25 -1.14  7.75
Si -6.39  4.98  2.55
Si -5.79  6.16 -0.87
Si  5.78 -6.20  0.87
Si  0.60  3.66 -7.69
Si -0.61 -3.70  7.68
Si -6.52 -4.97  2.56
Si -0.13 -7.48 -4.25
Si -3.44  7.49 -2.55
Si -0.30  6.24 -5.96
Si  4.87 -3.88  5.98
Si  6.57  5.04 -2.49
Si  8.26  0.01 -2.62
Si  1.31 -3.72 -7.71
Si -4.91  3.81 -6.04
Si  0.32 -6.26  6.01
Si  7.85  3.62 -0.83
Si  1.46  6.13  5.98
Si  0.18  7.54  4.32
Si  7.23 -2.49  4.20
Si  3.44 -7.61  2.53
Si -8.35 -0.03  2.55
Si -1.29  3.87  7.75
Si -7.90 -3.70  0.78
Si  1.18 -8.64  0.93
Si  1.63 -7.47  4.32
Si -1.51 -6.20 -6.04
Si  2.20 -6.14 -5.88
Si -1.58  7.54 -4.25
Si  2.31  3.81  7.59
Si  0.63  8.74  0.85
Si -4.05  1.28 -7.71
Si  3.88  7.49 -2.55
Si -0.61 -8.76 -0.81
Si  4.07 -1.14  7.75
Si  7.32  2.48 -4.26
Si -7.32  2.48 -4.26
Si -2.04 -7.49  4.20
Si  1.96  7.48 -4.26
Si  8.70  1.30  0.78
Si -7.41 -2.49  4.20
Si -8.74 -1.38 -0.83
Si -2.36 -3.88 -7.64
Si -3.88 -7.61  2.53
Si -2.19  6.29  5.92
Si -1.17  8.79 -0.90
Si -2.99  3.75 -7.62
Si  2.49  8.63 -0.83
Si -6.26  4.90 -4.29
Si  3.01 -3.77  7.67
Si  6.26 -5.03  4.26
Si -2.53 -8.70  0.78
Si  6.83  1.12  5.98
Si -4.94 -1.25 -7.62
Si -6.45 -4.97 -4.27
Si  4.97  1.23  7.67
Si -6.87 -1.20 -6.04
Si  8.22 -0.02  4.26
Si  6.50  5.03  4.27
Si -8.21 -0.10 -4.29
Si -6.11 -3.72  5.92
Si -3.49  7.52  4.20
Si  3.40 -7.53 -4.26
Si  3.40  6.31 -5.95
Si  6.12  3.87 -5.88
Si -3.41 -6.35  5.94
Si -2.99  8.81  0.87
Si  2.98 -8.85 -0.87
Si -0.99 -0.10  9.34
Si  0.99 -0.02 -9.36
Si  3.83  7.52  4.20
Si -7.04 -6.22 -0.90
Si -8.64  3.73  0.85
Si -5.33  7.41  2.53
Si  8.67 -3.76 -0.81
Si -3.92 -7.53 -4.26
Si -3.92  6.31 -5.95
Si  4.33  3.75 -7.62
Si  3.91 -6.35  5.94
Si  7.05  6.37  0.93
Si -4.31 -3.77  7.67
Si  5.33 -7.53 -2.55
Si  9.56 -1.22 -0.90
Si -9.55  1.36  0.93
Si -0.09  2.48  9.37
Si -5.67 -7.48 -2.54
Si -2.69  0.03 -9.36
Si -6.81  3.66  5.94
Si  2.74  0.04  9.36
Si  0.01 -2.49 -9.43
Si -9.07  2.53 -2.54
Si  6.80 -3.70 -5.95
Si  9.12 -2.47  2.55
Si -1.68  2.54 -9.30
Si  5.72  7.54  2.55
Si -5.97  1.30  7.68
Si  5.96 -1.35 -7.69
Si -8.07  5.04 -2.49
Si  1.73 -2.47  9.37
Si  4.33  8.81  0.87
Si -5.01  3.81  7.59
Si  8.12 -4.97  2.56
Si  7.60 -6.22 -0.90
Si  0.42 -6.26 -7.62
Si -0.39  6.24  7.67
Si -4.34 -8.85 -0.87
Si -7.81  1.12  5.98
Si  9.24  2.48 -2.55
Si  4.96 -3.88 -7.64
Si  7.77 -1.20 -6.04
Si -2.05 -2.53  9.37
Si  1.56  6.13 -7.64
Si -4.83  8.63 -0.83
Si -5.12 -6.14 -5.88
Si -9.24 -2.60  2.53
Si -1.60 -6.20  7.59
Si -7.59  6.37  0.93
Si  1.97  2.52 -9.43
Si  4.79 -8.70  0.78
Si  8.25  4.98  2.55
Si  5.13  6.29  5.92
Si -8.34 -4.99 -2.62
Si  5.28 -7.49  4.20
Si  2.11 -6.14  7.75
Si -5.36  7.48 -4.26
Si -2.10  6.29 -7.71
Si -3.64 -2.47 -9.30
Si  0.70 -9.97 -2.49
Si  3.68 -2.47 -9.30
Si -10.03  0.04 -2.49
Si -5.69 -7.47  4.32
Si -1.16 -9.98  2.56
Si -3.63  2.53  9.37
Si -6.96 -1.20  7.59
Si  6.92  1.12 -7.64
Si -5.86  6.13  5.98
Si -0.65 10.04  2.56
Si  9.14 -2.47 -4.25
Si  5.74  7.54 -4.25
Si -9.10  2.54  4.32
Si  3.69  2.53  9.37
Si 10.08  0.03  2.56
Si  9.19  2.52  4.20
Si  1.21 10.04 -2.49
Si -4.58  0.04  9.36
Si  5.81 -6.20 -6.04
Si  4.63  0.03 -9.36
Si  9.69  3.81  0.87
Si -6.01 -3.72 -7.71
Si -9.70 -3.85 -0.87
Si  3.31  6.31  7.68
Si -8.14  5.03  4.27
Si  7.83  3.66  5.94
Si  8.19 -4.97 -4.27
Si -3.31 -6.35 -7.69
Si -7.83 -3.70 -5.95
Si -9.28 -2.53 -4.26
Si  6.02  3.87  7.75
Si -0.74 -8.72  5.92
Si  0.97  4.90  9.34
Si  8.38  4.90 -4.29
Si  2.38 -10.03  2.55
Si  0.78 -4.97  9.36
Si -6.14 -8.64  0.93
Si -2.46 10.02 -2.62
Si -0.73  5.03 -9.36
Si -8.38 -5.03  4.26
Si  7.17 -7.47  2.55
Si  8.76  1.30 -5.95
Si  0.76  8.87 -5.88
Si -0.96 -5.03 -9.36
Si -7.12  7.53 -2.54
Si  1.15 -8.78 -5.96
Si -1.12  8.75  6.01
Si -8.77 -1.35  5.94
Si  2.89  9.98  2.55
Si -10.60 -1.27  0.85
Si -4.01  6.31  7.68
Si 10.63  1.25 -0.81
Si  4.00 -6.35 -7.69
Si -2.98 -9.99 -2.62
Si  6.16  8.79 -0.90
Si  2.46  8.66  5.94
Si  8.85  6.16 -0.87
Si -2.47 -8.71 -5.95
Si -6.72  3.66 -7.69
Si  6.71 -3.70  7.68
Si -8.86 -6.20  0.87
Si  7.67 -1.20  7.59
Si -7.47 -7.47  2.55
Si  0.62 -9.98  4.27
Si -1.09 -9.97 -4.27
Si -7.72  1.12 -7.64
Si -0.57 10.04 -4.27
Si  2.67 -4.98 -9.36
Si  7.52  7.53 -2.54
Si -2.62  5.04  9.36
Si -10.10  0.03  4.27
Si  1.14 10.04  4.27
Si 10.15  0.04 -4.27
Si  2.95  4.98 -9.36
Si  8.53 -3.72  5.92
Si -6.68  8.74  0.85
Si  5.27 -2.53  9.37
Si  0.84  0.01 11.01
Si -2.95 -5.11  9.34
Si -8.52  3.87 -5.88
Si  6.71 -8.76 -0.81
Si -2.96  8.81 -6.04
Si  2.91 -8.88  5.98
Si 10.45 -3.64  0.93
Si -0.93 -0.03 -11.08
Si  7.02  6.24 -5.96
Si -5.36  2.52 -9.43
Si -10.44  3.79 -0.90
Si -2.50  9.99  4.26
Si -7.00 -6.26  6.01
Si  5.64  2.54 -9.30
Si -5.21 -6.14  7.75
Si -5.59 -2.47  9.37
Si  4.34 -9.99 -2.62
Si  3.02  9.91 -4.29
Si  7.19 -7.48 -4.25
Si -4.43  9.98  2.55
Si  5.22  6.29 -7.71
Si -7.14  7.54  4.32
Si  2.51 -10.11 -4.29
Si -0.10 11.26 -0.81
Si  6.33 -0.10  9.34
Si -9.37  6.25 -0.81
Si -6.33 -0.02 -9.36
Si -3.02 -10.03  4.26
Si  0.12 -11.28  0.85
Si  9.40 -6.27  0.85
Si -9.57  1.23 -5.96
Si  5.72 -6.20  7.59
Si  0.13  2.40 -11.10
Si -0.13 -2.52 11.08
Si -5.76  6.13 -7.64
Si -7.45 -7.48 -4.25
Si -1.68 -11.23 -0.90
Si  9.60 -1.25  6.01
Si  9.97 -4.97 -2.49
Si -9.92  5.03  2.56
Si -11.33  1.25 -0.81
Si  2.85  0.03 -11.07
Si  4.85 10.02 -2.62
Si -10.88  2.54  2.55
Si 11.36 -1.27  0.85
Si -4.37  4.98 -9.36
Si -4.94 -10.03  2.55
Si  7.50  7.54  4.32
Si -2.80  0.04 11.14
Si 10.93 -2.48 -2.54
Si  1.83  2.48 11.08
Si  4.37 -5.11  9.34
Si -7.62  6.24 -5.96
Si  1.90 -2.47 -11.08
Si -2.02 11.31  0.78
Si -1.85  2.53 11.09
Si  1.69 11.37  0.93
Si  4.36  8.81 -6.04
Si -1.83 -2.60 -11.10
Si  7.64 -6.26  6.01
Si -4.85  8.66  5.94
Si -4.64 -4.98 -9.36
Si -4.41 -8.88  5.98
Si  1.98 -11.39 -0.83
Si -11.03 -2.48 -2.54
Si  4.84 -8.71 -5.95
Si -4.30  9.91 -4.29
Si  4.69  5.04  9.36
Si  7.92  3.66 -7.69
Si -7.93 -3.70  7.68
Si 11.08  2.54  2.55
Si -1.03  8.75 -7.62
Si  8.67  1.30  7.68
Si -0.65 -8.72 -7.71
Si -8.68 -1.35 -7.69
Si 10.22  5.02 -2.62
Si  1.05 -8.78  7.67
Si  4.30 -10.03  4.26
Si  3.49 11.16 -0.87
Si -10.30 -5.03  2.55
Si -3.50 -11.21  0.87
Si  0.66  8.87  7.75
Si -3.83 11.16 -0.87
Si -7.93 -8.76 -0.81
Si  7.95  8.74  0.85
Si -9.85  5.04 -4.27
Si  2.56  8.66 -7.69
Si  3.82 -11.21  0.87
Si  9.90 -4.98  4.27
Si  4.82  9.99  4.26
Si -3.46  2.54 -11.08
Si  3.51 -2.47 11.09
Si -2.57 -8.71  7.68
Si -10.86  2.53 -4.25
Si -4.47  0.03 -11.07
Si  8.97 -7.48 -2.54
Si -8.92  7.54  2.55
Si -3.81 -2.47 11.09
Si  0.28  7.54 -9.30
Si 10.90 -2.47  4.32
Si -4.81 -10.11 -4.29
Si -0.23 -7.48  9.37
Si  6.16 -9.98  2.56
Si  3.85  2.54 -11.08
Si -6.11 10.04 -2.49
Si  4.52  0.04 11.14
Si -3.05  8.81  7.59
Si -6.90 -6.26 -7.62
Si  1.72 -7.47 -9.30
Si  9.73  3.81 -6.04
Si  6.93  6.24  7.67
Si -10.48 -1.14 -5.88
Si  7.22  2.48  9.37
Si -9.77 -3.88  5.98
Si  3.00 -8.88 -7.64
Si -11.50 -3.64  0.93
Si 10.18  4.98  4.26
Si 10.49  1.28  5.92
Si -11.05 -2.47  4.32
Si  1.86  7.48  9.37
Si -1.11 -4.99 11.01
Si -1.67  7.54  9.37
Si -11.88  0.03  2.56
Si  8.49 -8.64  0.93
Si 11.52  3.79 -0.90
Si 11.10  2.53 -4.25
Si  8.63 -3.72 -7.71
Si -10.17 -5.11 -4.29
Si  9.31  7.41  2.53
Si  0.89 -4.97 -11.07
Si  1.02  4.98 -11.08
Si 11.93  0.04 -2.49
Si -7.31 -2.49 -9.43
Si -7.41  2.48  9.37
Si  7.33 -2.49 -9.43
Si -1.95 -7.49 -9.43
Si -8.62  3.87  7.75
Si -6.62 -9.97 -2.49
Si -9.31 -7.53 -2.55
Si -8.48  8.79 -0.90
