500
set: 966.00  0.00  0.00
Si -0.48  1.05 -0.87
Si  0.45 -1.20  0.92
Si  1.40  1.27  0.82
Si -1.45 -1.33 -0.84
Si -1.00 -0.04  2.48
Si  2.23 -1.21 -0.91
Si -2.19  1.41  0.87
Si  0.95 -0.02 -2.59
Si -3.20 -1.20  0.84
Si  0.06  2.45  2.57
Si  3.27  1.31 -0.82
Si -0.09 -2.62 -2.55
Si -2.70  0.03 -2.54
Si  2.75  0.06  2.58
Si  0.54  3.66 -0.84
Si -0.58 -3.72  0.82
Si -1.68  2.47 -2.53
Si  1.70 -2.44  2.57
Si  1.89  2.37 -2.55
Si  1.29 -3.68 -0.82
Si -1.22  3.79  0.84
Si -1.92 -2.54  2.57
Si -0.86 -0.09 -4.20
Si -4.02  1.31 -0.82
Si  0.83 -0.09  4.22
Si  4.08 -1.20  0.84
Si  2.43  3.79  0.92
Si -2.46 -3.94 -0.87
Si  3.12 -3.58  0.87
Si -0.11 -2.48  4.18
Si  0.06  2.42 -4.30
Si -3.08  3.78 -0.91
Si  2.75  0.01 -4.21
Si -2.74  0.01  4.25
Si  3.63 -2.52 -2.53
Si -3.61  2.55  2.57
Si -3.66 -2.52 -2.53
Si  3.68  2.55  2.57
Si  1.82 -2.48 -4.20
Si -4.54  0.06  2.58
Si  1.87  2.52  4.18
Si  4.58  0.03 -2.54
Si -1.78  2.57  4.23
Si -5.06 -1.21 -0.91
Si -1.92 -2.57 -4.30
Si  5.10  1.41  0.87
Si -4.17 -3.58  0.87
Si  0.77 -4.93  2.58
Si  0.98  4.96  2.48
Si -0.72  5.03 -2.54
Si  4.21  3.78 -0.91
Si -1.03 -5.01 -2.59
Si -3.48  2.52 -4.20
Si  3.52 -2.42  4.23
Si  5.84 -1.33 -0.84
Si -0.53  1.21  5.94
Si -5.89  1.27  0.82
Si  0.48 -1.26 -5.96
Si  2.60 -4.96 -2.54
Si -3.76 -2.42  4.23
Si  1.51  1.26 -5.85
Si -4.53  0.01 -4.21
Si  3.81  2.52 -4.20
Si -2.56  5.05  2.58
Si  4.55  0.01  4.25
Si -4.86  3.79  0.92
Si -1.54 -1.40  5.90
Si  0.25 -6.20 -0.91
Si  1.50  6.04 -0.87
Si  4.83 -3.94 -0.87
Si  2.93  4.97 -2.59
Si -2.98 -5.03  2.48
Si -5.40  2.37 -2.55
Si -2.14  1.26 -5.93
Si -1.53 -6.19  0.92
Si  2.21 -1.15  5.96
Si -0.20  6.40  0.87
Si  5.37 -2.54  2.57
Si  1.12  4.91 -4.20
Si  0.77 -4.98 -4.21
Si  2.10 -6.19  0.84
Si -0.76  5.00  4.25
Si -5.59 -2.44  2.57
Si  5.61  2.47 -2.53
Si -2.04  6.30 -0.82
Si -1.15 -5.08  4.22
Si  6.29 -0.04  2.48
Si -3.11 -1.13 -5.90
Si  3.15  1.32  5.86
Si -6.34 -0.02 -2.59
Si  0.44  3.59  5.90
Si  6.81  1.05 -0.87
Si -0.47 -3.73 -5.85
Si -6.84 -1.20  0.92
Si  1.17 -3.67  5.86
Si -2.55  5.00 -4.21
Si  2.57 -4.98  4.25
Si  2.81  4.91  4.22
Si  4.31 -5.03  2.48
Si -6.00 -3.68 -0.82
Si -4.36  4.97 -2.59
Si -1.13  3.87 -5.90
Si  3.38  6.26  0.82
Si -2.84 -5.08 -4.20
Si  6.07  3.79  0.84
Si -3.43 -6.32 -0.84
Si -4.68 -4.96 -2.54
Si -5.42  2.52  4.18
Si -4.14  1.32  5.86
Si -5.46 -2.48 -4.20
Si  4.18 -1.13 -5.90
Si  5.37 -2.57 -4.30
Si  4.73  5.05  2.58
Si  5.50  2.57  4.23
Si -3.91  6.26  0.82
Si  2.46  3.73 -5.96
Si  3.86 -6.32 -0.84
Si -2.51 -3.79  5.94
Si  6.43 -0.09 -4.20
Si  3.16 -3.73 -5.93
Si  0.34 -1.19  7.59
Si -0.39  1.13 -7.61
Si  6.71 -3.72  0.82
Si -6.46 -0.09  4.22
Si -6.75  3.66 -0.84
Si -3.10  3.84  5.96
Si -0.29 -7.43  2.57
Si -4.48  4.91  4.22
Si  0.30  7.46 -2.53
Si  7.74 -1.20  0.92
Si -7.77  1.05 -0.87
Si -5.08 -1.15  5.96
Si -1.40 -1.48 -7.65
Si  1.37  1.33  7.70
Si  4.45 -5.08 -4.20
Si  5.14  1.26 -5.93
Si  2.35 -1.22 -7.59
Si -7.22  2.45  2.57
Si -2.28  1.34  7.62
Si  7.20 -2.62 -2.55
Si  4.74  5.00 -4.21
Si -4.72 -4.98  4.25
Si  1.65 -7.51 -2.53
Si -5.18 -6.19  0.84
Si -1.63  7.54  2.57
Si -4.12 -3.73 -5.93
Si  2.04  7.44  2.57
Si  7.35  2.45  2.57
Si  4.19  3.84  5.96
Si -7.38 -2.62 -2.55
Si  5.25  6.30 -0.82
Si -2.07 -7.61 -2.55
Si -5.78  1.26 -5.85
Si  5.75 -1.40  5.90
Si -3.25 -1.05  7.64
Si -6.31  4.96  2.48
Si -5.79  6.04 -0.87
Si  6.26 -5.01 -2.59
Si  0.58  3.51 -7.65
Si  3.29  1.25 -7.68
Si  5.75 -6.19  0.92
Si -3.42  7.36 -2.55
Si  4.78 -3.79  5.94
Si -4.83  3.73 -5.96
Si -0.61 -3.66  7.70
Si  0.23 -6.14  5.96
Si -0.16 -7.47 -4.20
Si -6.52 -4.93  2.58
Si -0.16  6.25 -5.93
Si  8.24 -0.02 -2.59
Si  1.31 -3.74 -7.68
Si  6.57  5.03 -2.54
Si -8.29 -0.04  2.48
Si  3.39 -7.53  2.57
Si  0.20  7.56  4.23
Si  7.18 -2.48  4.18
Si  1.54 -7.41  4.23
Si  7.82  3.66 -0.84
Si -1.26  3.94  7.64
Si  1.14 -8.57  0.87
Si  3.87  7.36 -2.55
Si  1.46  6.20  5.94
Si  4.04 -1.05  7.64
Si -1.50  7.51 -4.20
Si -0.69 -8.67 -0.82
Si -7.87 -3.72  0.82
Si -7.23  2.42 -4.30
Si -4.00  1.25 -7.68
Si -1.50 -6.25 -5.96
Si  2.20 -6.12 -5.90
Si  2.32  3.80  7.59
Si  2.04  7.41 -4.30
Si -2.09 -7.47  4.18
Si  8.69  1.27  0.82
Si  7.35  2.42 -4.30
Si -7.40 -2.48  4.18
Si -2.37 -3.86 -7.61
Si  0.76  8.79  0.84
Si -3.90 -7.53  2.57
Si -8.73 -1.33 -0.84
Si -2.16  6.31  5.86
Si -1.10  8.77 -0.91
Si -6.16  4.91 -4.20
Si  3.02 -3.65  7.62
Si -2.96  3.77 -7.59
Si  6.14 -5.08  4.22
Si  2.52  8.65 -0.84
Si  6.76  1.21  5.94
Si -2.56 -8.71  0.82
Si -6.81 -1.26 -5.96
Si -4.94 -1.22 -7.59
Si  8.12 -0.09  4.22
Si -8.14 -0.09 -4.20
Si  5.01  1.34  7.62
Si -6.51 -4.98 -4.21
Si -6.12 -3.67  5.86
Si  3.49  6.25 -5.85
Si  6.53  5.00  4.25
Si -3.44  7.50  4.18
Si -2.88  8.78  0.92
Si  3.39 -7.56 -4.30
Si -8.51  3.79  0.84
Si -3.80  6.25 -5.85
Si  6.16  3.87 -5.90
Si  8.58 -3.68 -0.82
Si  0.97 -0.16 -9.32
Si -3.52 -6.39  5.90
Si -1.00 -0.01  9.35
Si  2.85 -8.93 -0.87
Si  3.85  7.50  4.18
Si -7.04 -6.20 -0.91
Si -5.24  7.44  2.57
Si -4.26 -3.65  7.62
Si  3.77 -6.39  5.90
Si  4.33  3.77 -7.59
Si -3.90 -7.56 -4.30
Si  5.22 -7.61 -2.55
Si -0.08  2.50  9.25
Si  7.08  6.40  0.87
Si -9.47  1.41  0.87
Si  9.52 -1.21 -0.91
Si -8.97  2.47 -2.53
Si  8.98 -2.44  2.57
Si -2.60 -0.07 -9.30
Si  2.62  0.09  9.34
Si  0.03 -2.55 -9.37
Si -6.85  3.59  5.90
Si  6.82 -3.73 -5.85
Si -5.64 -7.51 -2.53
Si  5.89 -1.48 -7.65
Si  5.66  7.54  2.57
Si -1.64  2.49 -9.31
Si  8.05 -4.93  2.58
Si -8.01  5.03 -2.54
Si  1.69 -2.40  9.35
Si  7.53 -6.20 -0.91
Si -2.06 -2.49  9.25
Si -5.92  1.33  7.70
Si  9.18  2.37 -2.55
Si  0.37 -6.21 -7.59
Si -4.97  3.80  7.59
Si  4.92 -3.86 -7.61
Si  7.76 -1.26 -5.96
Si  4.41  8.78  0.92
Si  2.01  2.44 -9.37
Si -7.81  1.21  5.94
Si -9.21 -2.54  2.57
Si -7.49  6.40  0.87
Si  1.59  6.12 -7.61
Si -5.09 -6.12 -5.90
Si -0.30  6.33  7.62
Si -4.77  8.65 -0.84
Si -1.64 -6.18  7.59
Si  4.72 -8.71  0.82
Si  8.27  4.96  2.48
Si  2.06 -6.04  7.64
Si -4.44 -8.93 -0.87
Si  5.20 -7.47  4.18
Si  5.13  6.31  5.86
Si -5.25  7.41 -4.30
Si -8.32 -5.01 -2.59
Si -2.02  6.24 -7.68
Si  0.62 -9.95 -2.54
Si -5.75 -7.41  4.23
Si -3.62 -2.50 -9.31
Si -9.99  0.03 -2.54
Si  3.66 -2.50 -9.31
Si -1.22 -9.92  2.58
Si -9.07  2.57  4.23
Si  9.11 -2.48 -4.20
Si  6.90  1.13 -7.61
Si -3.62  2.59  9.35
Si 10.03  0.06  2.58
Si -6.95 -1.19  7.59
Si  7.73  3.59  5.90
Si  5.79  7.51 -4.20
Si  8.06 -4.98 -4.21
Si  3.67  2.59  9.35
Si -5.83  6.20  5.94
Si  9.16  2.52  4.18
Si -0.58 10.04  2.58
Si -8.05  5.00  4.25
Si  5.78 -6.25 -5.96
Si  1.26 10.02 -2.54
Si -7.76 -3.73 -5.85
Si  4.69 -0.07 -9.30
Si -5.98 -3.74 -7.68
Si -4.67  0.09  9.34
Si  9.72  3.79  0.92
Si -9.21 -2.57 -4.30
Si -0.81 -8.66  5.86
Si  6.02  3.94  7.64
Si  3.35  6.32  7.70
Si -6.99  7.46 -2.53
Si  7.00 -7.43  2.57
Si -0.62  4.92 -9.30
Si -9.75 -3.94 -0.87
Si -2.38  9.96 -2.59
Si  0.64 -4.90  9.34
Si -3.38 -6.47 -7.65
Si  2.33 -10.02  2.48
Si -6.15 -8.57  0.87
Si -10.49 -1.20  0.84
Si  8.41  4.91 -4.20
Si  1.18 -8.72 -5.93
Si  0.98  4.98  9.35
Si  8.80  1.26 -5.85
Si  2.96  9.95  2.48
Si 10.56  1.31 -0.82
Si  0.85  8.86 -5.90
Si  2.42  8.58  5.90
Si -1.01 -5.15 -9.32
Si  8.79  6.04 -0.87
Si -3.94  6.32  7.70
Si -8.83 -1.40  5.90
Si -1.12  8.83  5.96
Si -8.44 -5.08  4.22
Si  3.91 -6.47 -7.65
Si -3.01 -10.00 -2.59
Si -6.71  3.51 -7.65
Si  6.19  8.77 -0.91
Si -2.46 -8.72 -5.85
Si -8.82 -6.19  0.92
Si  6.68 -3.66  7.70
Si  7.62 -1.19  7.59
Si  0.58 -9.97  4.25
Si -0.57  9.99 -4.21
Si -7.67  1.13 -7.61
Si -1.21 -9.97 -4.21
Si 10.04  0.01 -4.21
Si -10.03  0.01  4.25
Si  2.95  4.83 -9.32
Si  5.23 -2.49  9.25
Si -7.58 -7.43  2.57
Si  1.22  9.99  4.25
Si  8.46 -3.67  5.86
Si  6.60 -8.67 -0.82
Si  2.71 -5.06 -9.30
Si  7.59  7.46 -2.53
Si -2.85  8.72 -5.96
Si  2.80 -8.78  5.94
Si -2.69  5.08  9.34
Si -6.53  8.79  0.84
Si -8.41  3.87 -5.90
Si  0.81  0.06 10.96
Si -2.98 -5.00  9.35
Si -5.28  2.44 -9.37
Si 10.41 -3.58  0.87
Si -2.50  9.90  4.22
Si -5.23 -6.04  7.64
Si -10.37  3.78 -0.91
Si -7.06 -6.14  5.96
Si -0.86 -0.11 -11.07
Si -4.33  9.95  2.48
Si  7.13 -7.47 -4.20
Si -5.60 -2.40  9.35
Si  5.64  2.49 -9.31
Si  4.28 -10.00 -2.59
Si  7.13  6.25 -5.93
Si  2.47 -10.07 -4.20
Si  3.10  9.90 -4.20
Si -7.09  7.56  4.23
Si  0.12 -11.18  0.84
Si -9.43  1.26 -5.93
Si  5.27  6.24 -7.68
Si  0.20  2.37 -10.98
Si -6.32 -0.16 -9.32
Si  6.29 -0.01  9.35
Si  9.50 -1.15  5.96
Si  9.39 -6.19  0.84
Si -9.33  6.30 -0.82
Si -0.23 -2.54 11.00
Si  5.64 -6.18  7.59
Si -5.69  6.12 -7.61
Si -0.06 11.29 -0.82
Si  2.88 -0.02 -10.97
Si -7.45 -7.47 -4.20
Si  9.89 -4.96 -2.54
Si -3.13 -10.07  4.22
Si -1.74 -11.19 -0.91
Si -4.34  4.83 -9.32
Si -9.85  5.05  2.58
Si -2.84  0.11 11.01
Si  7.52 -6.14  5.96
Si -7.45  6.25 -5.93
Si  1.75  2.45 11.00
Si  4.91  9.96 -2.59
Si -11.31  1.31 -0.82
Si  1.83 -2.52 -10.98
Si -1.78 -2.62 -10.98
Si -1.93 11.25  0.82
Si  4.31 -5.00  9.35
Si -4.96 -10.02  2.48
Si  7.49  7.56  4.23
Si  4.44  8.72 -5.96
Si -1.82  2.54 11.02
Si 11.37 -1.20  0.84
Si 10.91 -2.52 -2.53
Si -10.90  2.55  2.57
Si -4.87  8.58  5.90
Si  1.88 -11.31 -0.84
Si -4.49 -8.78  5.94
Si -10.95 -2.52 -2.53
Si  7.87  3.51 -7.65
Si -4.18  9.90 -4.20
Si -4.58 -5.06 -9.30
Si 10.96  2.55  2.57
Si  1.78 11.39  0.87
Si  4.83 -8.72 -5.85
Si  1.04 -8.64  7.62
Si  4.60  5.08  9.34
Si  3.48 11.04 -0.87
Si -7.90 -3.66  7.70
Si -0.98  8.76 -7.59
Si -0.68 -8.73 -7.68
Si 10.22  4.97 -2.59
Si  8.66  1.33  7.70
Si -8.69 -1.48 -7.65
Si  4.16 -10.07  4.22
Si -10.27 -5.03  2.48
Si -3.81 11.04 -0.87
Si  2.56  8.50 -7.65
Si -3.52 -11.18  0.92
Si  0.71  8.93  7.64
Si -3.47  2.47 -10.98
Si  4.79  9.90  4.22
Si -7.98 -8.67 -0.82
Si -9.84  5.00 -4.21
Si  3.49 -2.45 11.02
Si -4.40 -0.02 -10.97
Si  9.86 -4.98  4.25
Si -10.77  2.52 -4.20
Si  3.77 -11.18  0.92
Si 10.81 -2.42  4.23
Si -2.59 -8.65  7.70
Si  4.45  0.11 11.01
Si  3.81  2.47 -10.98
Si -3.80 -2.45 11.02
Si  6.07 -9.92  2.58
Si -0.30 -7.39  9.35
Si -4.82 -10.07 -4.20
Si  8.05  8.79  0.84
Si  8.93 -7.51 -2.53
Si  0.34  7.48 -9.31
Si -8.92  7.54  2.57
Si -6.03 10.02 -2.54
Si  7.21  2.50  9.25
Si -2.99  8.79  7.59
Si 10.10  4.91  4.22
Si -6.92 -6.21 -7.59
Si -10.40 -1.13 -5.90
Si  9.75  3.73 -5.96
Si -11.46 -3.58  0.87
Si  2.94 -8.85 -7.61
Si 10.44  1.32  5.86
Si  1.90  7.49  9.25
Si  8.43 -8.57  0.87
Si -9.79 -3.79  5.94
Si  1.68 -7.49 -9.31
Si -1.17 -4.93 10.96
Si -10.13 -5.08 -4.20
Si -11.05 -2.42  4.23
Si -7.37  2.50  9.25
Si  0.90 -5.01 -10.97
Si -11.83  0.06  2.58
Si  6.99  6.33  7.62
Si  8.59 -3.74 -7.68
Si -7.26 -2.55 -9.37
Si 11.09  2.52 -4.20
Si -8.55  3.94  7.64
Si 11.50  3.78 -0.91
Si 11.87  0.03 -2.54
Si -1.64  7.58  9.35
Si  1.12  4.88 -11.07
Si  7.32 -2.55 -9.37
Si -0.86  5.10 11.01
Si -8.39  8.77 -0.91
Si -1.95 -7.54 -9.37
Si -6.11 -8.72 -5.93
Si  9.33  7.44  2.57
