500
set: 1353.00  0.00  0.00
Si -0.10 -0.22  1.40
Si  0.22 -1.40 -0.50
Si  1.47  1.63  0.83
Si  0.24  0.00 -2.39
Si -2.44  0.07  0.94
Si -0.20  2.73 -0.50
Si -2.40  1.47 -0.96
Si  1.89 -2.50  0.83
Si -1.98 -2.66 -0.96
Si  3.40  0.68  0.28
Si -2.10  0.29 -2.85
Si -0.12 -1.62  3.29
Si  1.80  1.85 -2.96
Si  3.34 -0.81  2.16
Si  3.68 -0.58 -1.63
Si -2.74  1.25  2.83
Si -0.54  2.51  3.29
Si -0.52  3.91  1.40
Si -3.83 -1.65 -0.35
Si  2.23 -2.28 -2.96
Si  0.56 -1.18 -4.29
Si  0.32 -4.35  1.40
Si -2.01 -4.06  0.94
Si -2.31 -2.88  2.83
Si -0.19  4.13 -2.39
Si  0.66 -4.13 -2.39
Si  2.92  3.33  2.16
Si -4.26  2.48 -0.35
Si  1.13  1.41  4.62
Si -1.68 -3.84 -2.85
Si  3.26  3.55 -1.63
Si  3.07  0.46  4.07
Si  3.83 -3.45  0.28
Si -2.86  4.20  0.94
Si  3.74  0.90 -3.51
Si  0.14  2.96 -4.29
Si -0.44 -0.44  5.19
Si -2.06  1.69 -4.75
Si -2.77 -0.15  4.73
Si  1.55 -2.73  4.62
Si -1.64 -2.44 -4.75
Si  0.65 -5.53 -0.50
Si -3.50 -1.43 -4.14
Si  5.03  2.48 -0.35
Si  2.98  4.81  0.28
Si  5.45 -1.65 -0.35
Si -4.17 -1.87  3.44
Si -2.52  4.42 -2.85
Si -5.60 -0.58 -1.63
Si  1.04  5.76  0.83
Si -5.88  0.68  0.28
Si -4.60  2.26  3.44
Si  0.58  0.22 -6.18
Si  4.69  2.26  3.44
Si -3.92  2.70 -4.14
Si  4.17 -3.23 -3.51
Si -2.82  5.61 -0.96
Si -5.94 -0.81  2.16
Si -0.86  3.69  5.19
Si  5.11 -1.87  3.44
Si  4.11 -4.72 -1.63
Si -5.46 -3.45  0.28
Si  3.49 -3.67  4.07
Si  3.77 -4.94  2.16
Si -5.54  0.90 -3.51
Si  0.31 -5.75  3.29
Si  2.64  4.59  4.07
Si -3.41 -5.78 -0.35
Si  3.01 -1.03  5.95
Si  4.02 -0.36 -5.42
Si -2.35 -4.29  4.73
Si  1.38  5.98 -2.96
Si -3.16  5.38  2.83
Si -1.76  0.51 -6.64
Si  0.98 -5.31 -4.29
Si  6.85  0.07  0.94
Si -0.62  6.87 -0.50
Si -0.01 -4.57  5.19
Si -3.20  3.98  4.73
Si  3.32  5.04 -3.51
Si -5.12 -3.23 -3.51
Si -1.55 -6.79 -0.96
Si  2.31 -6.64  0.83
Si  6.88  1.47 -0.96
Si -6.03  3.55 -1.63
Si -5.18 -4.72 -1.63
Si  2.58  3.11  5.95
Si  6.55  1.25  2.83
Si  0.70  5.54  4.62
Si  5.79 -1.43 -4.14
Si  5.36  2.70 -4.14
Si -0.45 -1.84  7.08
Si -3.08  1.03  6.62
Si  2.14  2.07 -6.75
Si  1.00 -3.91 -6.18
Si -6.22  0.46  4.07
Si -0.96  6.64  3.29
Si -0.88  2.29  7.08
Si -6.36  3.33  2.16
Si  2.56 -2.06 -6.75
Si  3.60  3.77 -5.42
Si  2.65 -6.42 -2.96
Si -5.26 -0.36 -5.42
Si  0.15  4.36 -6.18
Si -3.07 -5.56 -4.14
Si -1.34 -3.62 -6.64
Si -5.52 -4.94  2.16
Si  6.42  4.20  0.94
Si  7.18  0.29 -2.85
Si -2.65 -3.10  6.62
Si -1.89 -7.01  2.83
Si  7.31 -2.66 -0.96
Si -7.40 -2.50  0.83
Si -3.75 -6.00  3.44
Si -2.48  5.83 -4.75
Si -6.30  4.81  0.28
Si -5.79 -3.67  4.07
Si -7.06 -2.28 -2.96
Si -7.82  1.63  0.83
Si  6.51 -0.15  4.73
Si  6.97 -2.88  2.83
Si  4.60  6.62 -0.35
Si -4.68  6.62 -0.35
Si  2.50  7.46  2.16
Si  0.90 -0.96 -8.08
Si -1.22 -6.57 -4.75
Si -0.95  8.05  1.40
Si  5.87 -5.78 -0.35
Si -7.48  1.85 -2.96
Si -0.29  7.09 -4.29
Si  2.73  0.24  7.86
Si  4.44 -4.50 -5.42
Si  2.83  7.68 -1.63
Si  7.27 -4.06  0.94
Si -2.19  4.65 -6.64
Si -1.59 -8.20  0.94
Si  4.26  6.39  3.44
Si  4.08  1.12 -7.30
Si  1.97 -6.86  4.62
Si  0.79  1.19  8.40
Si -4.84 -4.50 -5.42
Si -5.97  5.04 -3.51
Si -1.25 -7.97 -2.85
Si  6.76  4.42 -2.85
Si  3.43 -5.16  5.95
Si  6.46  5.61 -0.96
Si -3.16 -1.21 -7.93
Si -0.61  8.27 -2.39
Si  6.12  5.38  2.83
Si  0.75 -8.48  1.40
Si  1.08 -8.26 -2.39
Si  6.09  3.98  4.73
Si  4.35  2.04  7.23
Si  0.47  3.18 -8.08
Si  4.25 -7.58  0.28
Si -6.28 -1.03  5.95
Si -5.69  3.77 -5.42
Si -4.51 -2.09  7.23
Si  7.22  1.69 -4.75
Si -5.02  6.39  3.44
Si  5.54 -6.00  3.44
Si  4.77 -2.09  7.23
Si -1.30 -2.22 -8.54
Si -1.72  1.92 -8.54
Si -4.93  2.04  7.23
Si  7.61 -3.84 -2.85
Si  1.21 -2.95  8.40
Si -3.28  8.34  0.94
Si -0.78 -0.66  8.98
Si -5.21  1.12 -7.30
Si -6.64  4.59  4.07
Si -3.11 -0.37  8.52
Si  4.50 -3.01 -7.30
Si -3.50  5.16  6.62
Si -4.34  6.84 -4.14
Si -5.03 -7.58  0.28
Si  6.21  1.03  6.62
Si -3.58  2.93 -7.93
Si -9.06 -1.40 -0.50
Si -4.78 -3.01 -7.30
Si -0.03 -5.98  7.08
Si  2.31  4.37  7.86
Si  9.18 -0.22  1.40
Si  6.21 -5.56 -4.14
Si  2.56  8.95  0.28
Si  3.15 -3.90  7.86
Si  7.65 -2.44 -4.75
Si  1.72  6.21 -6.75
Si -9.05  0.00 -2.39
Si  4.59 -7.36 -3.51
Si  4.94  6.84 -4.14
Si -7.73 -2.73  4.62
Si -4.70 -7.36 -3.51
Si  6.93 -4.29  4.73
Si -1.28  7.83  5.19
Si -8.16  1.41  4.62
Si -6.70  3.11  5.95
Si -2.95  8.56 -2.85
Si -9.38 -0.22  1.40
Si  9.08  2.73 -0.50
Si  2.16  7.24  5.95
Si  9.51 -1.40 -0.50
Si  3.91 -7.81  4.07
Si  2.99 -6.19 -6.75
Si  1.32 -5.09 -8.08
Si -1.30  6.42  7.08
Si -6.97 -6.64  0.83
Si  8.74  2.51  3.29
Si -6.63 -6.42 -2.96
Si  8.76  3.91  1.40
Si -1.20  3.47  8.98
Si  3.66  5.26 -7.30
Si  1.07 -9.66 -0.50
Si -6.72 -2.06 -6.75
Si -8.72 -1.18 -4.29
Si -5.86 -5.16  5.95
Si  9.52  0.00 -2.39
Si -1.93 -8.42  4.73
Si -8.62 -4.13 -2.39
Si  6.63 -3.10  6.62
Si  9.17 -1.62  3.29
Si  2.22  8.72  4.07
Si -9.49  2.73 -0.50
Si -2.74 -5.34 -7.93
Si  0.62  9.89  0.83
Si  0.37  5.32  8.40
Si -3.54  3.76  8.52
Si -2.69 -4.51  8.52
Si  0.91  0.45 -9.97
Si -7.14  2.07 -6.75
Si  7.52  0.51 -6.64
Si -2.23 -7.24  6.62
Si -8.96 -4.35  1.40
Si -3.62  8.11  4.73
Si  4.53 -8.85 -1.63
Si  6.12 -1.21 -7.93
Si -9.40 -1.62  3.29
Si -8.24  5.76  0.83
Si  3.17  7.90 -5.42
Si  6.80  5.83 -4.75
Si  0.41 -8.71  5.19
Si -6.45  7.68 -1.63
Si  2.67 -1.25  9.74
Si -4.76 -8.85 -1.63
Si -0.35 -4.80  8.98
Si  4.36 -0.14 -9.21
Si  5.70  2.93 -7.93
Si  5.79  5.16  6.62
Si  4.19 -9.07  2.16
Si  2.90  9.17 -3.51
Si -6.56  0.24  7.86
Si  1.42 -8.04 -6.18
Si -0.92 -7.75 -6.64
Si  8.85 -0.44  5.19
Si -8.64 -5.53 -0.50
Si  9.10  4.13 -2.39
Si  3.93  6.17  7.23
Si -3.25  9.74 -0.96
Si -5.37 -7.81  4.07
Si  6.00  8.34  0.94
Si -6.79  7.46  2.16
Si  7.73 -6.79 -0.96
Si -7.91  5.98 -2.96
Si -2.99 -9.92 -0.35
Si -4.09 -6.23  7.23
Si  2.25  2.88  9.74
Si -4.93 -0.14 -9.21
Si  0.73 -9.89  3.29
Si  1.41 -9.44 -4.29
Si -0.27  8.49 -6.18
Si  6.17 -0.37  8.52
Si -9.15  2.96 -4.29
Si -1.42  0.73 -10.43
Si -3.58  9.52  2.83
Si  8.42  3.69  5.19
Si  7.39 -7.01  2.83
Si  0.96 10.12 -2.96
Si -9.47  4.13 -2.39
Si -5.63  5.26 -7.30
Si -5.09 -9.07  2.16
Si  9.61 -4.35  1.40
Si -9.81  3.91  1.40
Si -9.82  2.51  3.29
Si -0.88 -6.35 -8.54
Si -8.71  0.22 -6.18
Si -2.15  6.05 -8.54
Si -6.13 -3.90  7.86
Si  1.34 -3.69 -9.97
Si  0.28  9.67  4.62
Si -8.30 -5.31 -4.29
Si  9.42  2.96 -4.29
Si  7.10  4.65 -6.64
Si  3.93  3.99 -9.21
Si  9.84 -1.18 -4.29
Si  5.20 -6.23  7.23
Si -2.65 -9.69 -4.14
Si  0.05  7.31 -8.08
Si 10.75  1.63  0.83
Si -5.36  6.17  7.23
Si  5.75  3.76  8.52
Si  5.66  8.11  4.73
Si  7.95 -3.62 -6.64
Si -3.41  0.81 10.41
Si  0.49  4.58 -9.97
Si -1.00 -3.40 -10.43
Si  6.34  8.56 -2.85
Si -1.13 -10.93 -0.96
Si -9.72 -0.44  5.19
Si  9.95 -4.13 -2.39
Si -7.31 -6.86  4.62
Si -8.29 -3.91 -6.18
Si -1.05 11.00 -0.50
Si  8.66  6.87 -0.50
Si  2.48  2.29 -10.54
Si  2.90 -1.84 -10.54
Si -0.79 -2.06 10.87
Si -4.50 -4.27 -9.21
Si -4.36 -7.14 -7.30
Si -4.42 -8.63 -5.42
Si  1.64 -7.08  8.40
Si -6.30 -6.19 -6.75
Si -1.22  2.07 10.87
Si  2.73 -10.77  0.83
Si  8.32  6.64  3.29
Si -8.98 -5.75  3.29
Si -6.73  8.95  0.28
Si -8.58  5.54  4.62
Si -3.33 -10.14  3.44
Si  4.78 -4.27 -9.21
Si  8.41  2.29  7.08
Si  7.69 -8.20  0.94
Si  4.87 -8.63 -5.42
Si -2.61  8.78 -6.64
Si -2.99 -3.33 10.41
Si  4.93 -7.14 -7.30
Si -4.01  7.06 -7.93
Si -1.39 10.78  3.29
Si -6.11  7.90 -5.42
Si -5.35  3.99 -9.21
Si  9.93 -5.53 -0.50
Si  3.07 -10.55 -2.96
Si -6.98  4.37  7.86
Si -2.91  9.96 -4.75
Si  8.07 -6.57 -4.75
Si  5.70  9.52  2.83
Si  8.83 -1.84  7.08
Si 10.41  1.41  4.62
Si 11.17 -2.50  0.83
Si  6.04  9.74 -0.96
Si  4.18 10.75 -0.35
Si  3.09 -5.38  9.74
Si  9.27 -4.57  5.19
Si  7.56  1.92 -8.54
Si  6.55 -5.34 -7.93
Si -9.30 -4.57  5.19
Si -1.47 -11.15  2.83
Si -11.26 -2.66 -0.96
Si 11.09  1.85 -2.96
Si  9.86  0.22 -6.18
Si  9.59 -5.75  3.29
Si -1.85  4.87 -10.43
Si  8.34  8.05  1.40
Si  8.03 -7.97 -2.85
Si  6.59 -4.51  8.52
Si -8.39 -0.96 -8.08
Si  3.85 -9.29  5.95
Si -6.39  9.17 -3.51
Si  3.84 10.53  3.44
Si  1.88  8.50  7.86
Si -0.79 -10.70 -4.75
Si -11.38  0.29 -2.85
Si  6.30 -9.92 -0.35
Si -11.72  0.07  0.94
Si -7.12  7.24  5.95
Si  3.57 -8.03  7.86
Si -11.68  1.47 -0.96
Si -6.62 -1.25  9.74
Si 10.33  5.76  0.83
Si  5.28  7.06 -7.93
Si -9.13  4.36 -6.18
Si  4.01  1.82 11.02
Si -1.62  7.60  8.98
Si -8.20 -8.26 -2.39
Si  2.39  0.02 11.65
Si -7.57  6.21 -6.75
Si  7.98 -2.22 -8.54
Si -5.11 10.75 -0.35
Si -7.07  8.72  4.07
Si  1.24 -0.73 -11.87
Si -10.96 -3.84 -2.85
Si  2.07 11.59  2.16
Si  5.87  0.81 10.41
Si -10.15  3.69  5.19
Si -8.49  1.19  8.40
Si  4.42  1.35 -11.09
Si -8.07 -2.95  8.40
Si -0.71 11.22 -4.29
Si -11.30 -4.06  0.94
Si -3.92  9.29  6.62
Si -9.91  6.87 -0.50
Si  7.06 -7.24  6.62
Si 10.84 -2.73  4.62
Si -2.82 -0.98 -11.72
Si  9.44  4.36 -6.18
Si  4.44 -2.31 11.02
Si 11.51 -2.28 -2.96
Si -8.54 -8.48  1.40
Si  7.36 -8.42  4.73
Si  1.82  7.02  9.74
Si -3.84  4.94 10.41
Si -10.92 -2.44 -4.75
Si  2.40 -10.99  4.62
Si  2.41 11.81 -1.63
Si -9.74 -1.84  7.08
Si -4.87  1.35 -11.09
Si  8.68  8.27 -2.39
Si  9.00  7.09 -4.29
Si  0.45  0.96 12.19
Si  5.96 -10.14  3.44
Si -4.85 -2.31 11.02
Si -3.96  7.89  8.52
Si -4.44 -2.79 -11.09
Si -11.60 -2.88  2.83
Si -5.43 -9.29  5.95
Si  9.99  5.54  4.62
Si  3.23  9.39 -7.30
Si 10.27 -5.31 -4.29
Si  8.00  7.83  5.19
Si -1.37 12.18  1.40
Si -2.27 -8.64  8.52
Si -5.44 10.53  3.44
Si  0.39 -10.11  7.08
Si -5.27  1.82 11.02
Si -7.04  2.88  9.74
Si -8.81  3.18 -8.08
Si  0.81  3.40 -11.87
Si  1.74 -9.22 -8.08
Si  8.51 -0.66  8.98
Si -12.02  1.25  2.83
Si  1.29 10.34 -6.75
Si -11.35  1.69 -4.75
Si  4.84 -2.79 -11.09
Si -1.17 -12.33  0.94
Si -7.96 -5.09 -8.08
Si  7.98  6.42  7.08
Si  6.63 -9.69 -4.14
Si -6.38 -1.84 -10.54
Si -0.83 -12.11 -2.85
Si -0.37 -6.20 10.87
Si  2.06  6.43 -10.54
Si  1.97  4.15 11.65
Si -0.96 -2.00 -12.33
Si -3.25  3.15 -11.72
Si  3.33 -5.97 -10.54
Si  4.52 10.97 -4.14
Si -2.31 -9.47 -7.93
Si  8.09  3.47  8.98
Si 10.66  5.98 -2.96
Si -1.39  2.14 -12.33
Si -10.16  2.29  7.08
Si -6.21 -10.55 -2.96
Si -4.61 -11.72  0.28
Si -5.71 -8.03  7.86
Si  5.36  9.29  6.62
Si  6.29 -3.33 10.41
Si -1.64  6.20 10.87
Si  4.67 -11.72  0.28
Si 10.28 -3.91 -6.18
Si  0.88 -3.17 12.19
Si -6.55 -10.77  0.83
Si -0.06  9.45  8.40
Si -10.25  6.64  3.29
Si -4.77 10.97 -4.14
Si -9.57  7.09 -4.29
Si  0.07 -8.93  8.98
Si  7.14  6.05 -8.54
Si  2.81 -4.12 11.65
Si -1.03 12.40 -2.39
Si -8.22 -9.66 -0.50
Si 12.69  0.68  0.28
Si  1.51 -12.40 -2.39
Si -6.19 -5.38  9.74
Si  5.45  4.94 10.41
Si  6.38  9.96 -4.75
Si  1.17 -12.62  1.40
Si -6.81  2.29 -10.54
Si -4.27 -11.50 -3.51
Si  3.51  8.13 -9.21
Si  5.33  7.89  8.52
Si -3.45 -0.59 12.30
Si  1.76 -7.82 -9.97
Si  3.41 -10.33 -6.75
Si -1.72 10.56  7.08
Si -10.84 -6.79 -0.96
Si -7.86 -8.04 -6.18
Si 12.21  3.33  2.16
Si 12.63 -0.81  2.16
Si -1.11 -0.89 12.77
Si  6.68  8.78 -6.64
Si -0.58 -7.53 -10.43
