500
set: 986.00  0.00  0.00
Si -0.35  1.19 -0.82
Si  0.47 -1.18  0.82
Si -1.34 -1.20 -0.84
Si  1.48  1.29  0.91
Si -0.94 -0.06  2.49
Si  2.22 -1.19 -0.89
Si -2.26  1.24  0.79
Si  0.85  0.01 -2.56
Si -0.05 -2.35 -2.52
Si -3.14 -1.19  0.84
Si  3.13  1.23 -0.92
Si -0.00  2.38  2.55
Si -2.70 -0.04 -2.45
Si  2.67 -0.06  2.51
Si -0.43 -3.62  0.91
Si  0.57  3.70 -0.84
Si -1.83  2.36 -2.50
Si  1.79 -2.43  2.59
Si  1.22 -3.68 -0.92
Si -1.23  3.71  0.84
Si  1.86  2.55 -2.52
Si -1.91 -2.53  2.55
Si -0.95 -0.07 -4.21
Si  0.91  0.10  4.23
Si  4.11 -1.19  0.84
Si -4.12  1.23 -0.92
Si -2.26 -3.71 -0.82
Si  2.38  3.73  0.82
Si  3.08 -3.66  0.79
Si -0.10 -2.44  4.19
Si  0.02  2.40 -4.26
Si -3.12  3.71 -0.89
Si  2.75  0.02 -4.17
Si  3.51 -2.54 -2.50
Si -3.55  2.47  2.59
Si -2.79 -0.09  4.26
Si  3.70  2.47  2.59
Si  4.55 -0.04 -2.45
Si -3.75 -2.54 -2.50
Si  1.81  2.47  4.19
Si  4.99  1.24  0.79
Si  1.71 -2.51 -4.25
Si -4.58 -0.06  2.51
Si -1.75  2.41  4.30
Si -5.03 -1.19 -0.89
Si -1.89 -2.51 -4.26
Si -0.79  4.86 -2.45
Si  0.97  4.85  2.49
Si -4.17 -3.66  0.79
Si  0.76 -4.96  2.51
Si -1.06 -4.89 -2.56
Si  4.13  3.71 -0.89
Si -5.77  1.29  0.91
Si  0.53 -1.17 -5.85
Si -0.38  1.25  5.91
Si  3.62  2.40 -4.25
Si -3.63  2.40 -4.25
Si -2.67  4.85  2.51
Si  5.92 -1.20 -0.84
Si  2.64 -4.95 -2.45
Si -4.50  0.02 -4.17
Si  3.59 -2.50  4.30
Si  4.46 -0.09  4.26
Si  0.31 -6.10 -0.89
Si -3.66 -2.50  4.30
Si -4.87  3.73  0.82
Si  2.77  4.92 -2.56
Si -1.30 -1.26  5.94
Si -0.35  6.15  0.79
Si  1.42  1.27 -5.93
Si -2.85 -4.96  2.49
Si  4.99 -3.71 -0.82
Si -1.45 -6.08  0.82
Si  1.56  6.10 -0.82
Si  2.18 -1.23  5.84
Si  5.42  2.36 -2.50
Si -2.19  1.26 -5.92
Si  5.34 -2.53  2.55
Si -5.39  2.55 -2.52
Si  0.84 -4.88 -4.17
Si  0.96  4.83 -4.21
Si -1.01 -4.81  4.23
Si -0.88  4.82  4.26
Si -5.46 -2.43  2.59
Si  2.20 -6.10  0.84
Si -2.21  6.13 -0.92
Si  6.31 -0.06  2.49
Si  3.17  1.26  5.87
Si -3.21 -1.21 -5.96
Si -6.40  0.01 -2.56
Si -6.78 -1.18  0.82
Si -2.59  4.93 -4.17
Si -3.25 -6.11 -0.84
Si -0.49 -3.63 -5.93
Si  0.61  3.65  5.94
Si  1.26 -3.64  5.87
Si  2.55 -4.99  4.26
Si  6.90  1.19 -0.82
Si  4.40 -4.96  2.49
Si  3.39  6.19  0.91
Si -2.87 -4.98 -4.21
Si -6.03 -3.68 -0.92
Si  6.02  3.71  0.84
Si  4.58  4.85  2.51
Si  2.81  5.00  4.23
Si -4.49  4.92 -2.56
Si -1.30  3.70 -5.96
Si -4.61 -4.95 -2.45
Si -4.08  1.26  5.87
Si  5.36 -2.51 -4.26
Si -5.44  2.47  4.19
Si  4.04 -1.21 -5.96
Si -2.29 -3.65  5.91
Si  4.00 -6.11 -0.84
Si -3.86  6.19  0.91
Si  2.44  3.74 -5.85
Si  5.50  2.41  4.30
Si -5.54 -2.51 -4.25
Si  6.30 -0.07 -4.21
Si -3.16  3.68  5.84
Si -6.35  0.10  4.23
Si  3.15 -3.65 -5.92
Si -6.68  3.70 -0.84
Si  0.08  7.27 -2.50
Si -0.38  1.25 -7.60
Si -7.60  1.19 -0.82
Si  0.52 -1.16  7.66
Si  6.82 -3.62  0.91
Si -0.12 -7.34  2.59
Si -1.30 -1.26 -7.58
Si  1.42  1.27  7.58
Si -5.07 -1.23  5.84
Si  7.72 -1.18  0.82
Si  4.38 -4.98 -4.21
Si  5.07  1.26 -5.92
Si -4.43  5.00  4.23
Si -1.96 -7.26 -2.52
Si  1.91  7.28  2.55
Si  4.66  4.93 -4.17
Si -5.05 -6.10  0.84
Si  7.20 -2.35 -2.52
Si -1.64  7.38  2.59
Si  5.04  6.13 -0.92
Si -2.19  1.26  7.60
Si  1.59 -7.45 -2.50
Si  4.09  3.68  5.84
Si  7.25  2.38  2.55
Si -7.25  2.38  2.55
Si -4.10 -3.65 -5.92
Si  2.18 -1.23 -7.67
Si -4.70 -4.99  4.26
Si -7.30 -2.35 -2.52
Si -3.22 -1.21  7.55
Si  6.19 -4.89 -2.56
Si -6.28  4.85  2.49
Si  3.18  1.26 -7.65
Si -5.69  6.10 -0.82
Si -5.83  1.27 -5.93
Si -0.49 -3.63  7.58
Si  0.61  3.64 -7.58
Si -4.81  3.74 -5.85
Si  6.46  4.86 -2.45
Si  5.81 -6.08  0.82
Si  0.27 -6.13  5.84
Si  0.16  7.32  4.30
Si  5.95 -1.26  5.94
Si  8.11  0.01 -2.56
Si -1.31  3.70  7.55
Si -7.68 -3.62  0.91
Si  4.96 -3.65  5.91
Si -1.38 -6.07 -5.85
Si -0.20 -7.42 -4.25
Si -0.28  6.17 -5.92
Si -6.49 -4.96  2.51
Si -8.19 -0.06  2.49
Si  1.26 -3.65 -7.65
Si  3.43 -7.43  2.55
Si -3.48  7.46 -2.52
Si -1.72  7.30 -4.25
Si  7.15 -2.44  4.19
Si  4.03 -1.21  7.55
Si -0.69 -8.59 -0.92
Si  1.93  7.30 -4.26
Si  1.53  6.16  5.91
Si  1.17 -8.57  0.79
Si  0.68  8.62  0.84
Si -2.01 -7.34  4.19
Si  7.83  3.70 -0.84
Si -8.59 -1.20 -0.84
Si  1.68 -7.40  4.30
Si  3.77  7.46 -2.52
Si -7.23  2.40 -4.26
Si -3.82 -7.43  2.55
Si -2.29 -3.66 -7.60
Si -1.21  8.62 -0.89
Si -4.08  1.26 -7.65
Si  7.27  2.40 -4.26
Si -2.17  6.17  5.87
Si  2.13 -6.12 -5.96
Si -7.35 -2.44  4.19
Si  2.43  3.74  7.66
Si  8.73  1.29  0.91
Si -2.34 -8.52  0.91
Si  6.24 -4.81  4.23
Si -6.29  4.83 -4.21
Si -6.72 -1.17 -5.85
Si  3.15 -3.64  7.60
Si  2.49  8.61 -0.84
Si  6.37  4.82  4.26
Si -3.16  3.68 -7.67
Si -6.41 -4.88 -4.17
Si -5.99 -3.64  5.87
Si -3.21 -6.17  5.94
Si  6.87  1.25  5.91
Si -2.96  8.63  0.82
Si -3.53  7.37  4.19
Si  8.15  0.10  4.23
Si  3.08 -8.62 -0.82
Si  3.33  6.18 -5.93
Si  5.95  3.70 -5.96
Si  5.06  1.26  7.60
Si -8.21 -0.07 -4.21
Si  3.45 -7.42 -4.26
Si  3.72  7.37  4.19
Si  6.90  6.15  0.79
Si -5.07 -1.23 -7.67
Si -6.94 -6.10 -0.89
Si  8.47 -3.68 -0.92
Si -8.48  3.71  0.84
Si  0.91  0.10 -9.28
Si  5.29 -7.26 -2.52
Si -0.96 -0.07  9.31
Si -3.80 -7.42 -4.26
Si -4.10 -3.64  7.60
Si -5.34  7.28  2.55
Si -3.92  6.18 -5.93
Si  4.09  3.68 -7.67
Si  4.04 -6.17  5.94
Si  0.01  2.40  9.25
Si  9.47 -1.19 -0.89
Si -4.17 -8.62 -0.82
Si -9.51  1.24  0.79
Si  5.61  7.38  2.59
Si -6.64  3.65  5.94
Si -0.10 -2.44 -9.32
Si -5.83  1.27  7.58
Si -2.79 -0.09 -9.25
Si  4.29  8.63  0.82
Si -1.75  2.41 -9.21
Si -5.66 -7.45 -2.50
Si  6.76 -3.63 -5.93
Si -8.04  4.86 -2.45
Si -9.08  2.36 -2.50
Si  9.04 -2.43  2.59
Si  5.95 -1.26 -7.58
Si -7.63  1.25  5.91
Si  2.74  0.02  9.35
Si  8.01 -4.96  2.51
Si  7.56 -6.10 -0.89
Si  1.71 -2.51  9.27
Si -1.90 -2.51  9.25
Si  4.96 -3.66 -7.60
Si -0.28  6.17  7.60
Si  9.11  2.55 -2.52
Si -4.82  3.74  7.66
Si  7.78 -1.17 -5.85
Si -7.60  6.15  0.79
Si  1.81  2.47 -9.32
Si  0.27 -6.13 -7.67
Si -9.16 -2.53  2.55
Si  8.22  4.85  2.49
Si -1.39 -6.07  7.66
Si -4.76  8.61 -0.84
Si  4.91 -8.52  0.91
Si  1.53  6.15 -7.60
Si  5.08  6.17  5.87
Si  2.12 -6.11  7.55
Si  5.24 -7.34  4.19
Si -5.12 -6.12 -5.96
Si -8.31 -4.89 -2.56
Si -5.32  7.30 -4.26
Si -2.16  6.17 -7.65
Si  5.54  7.30 -4.25
Si -0.76  9.76  2.51
Si  1.12  9.77 -2.45
Si  0.73 -9.85 -2.45
Si  3.60 -2.50 -9.21
Si -5.57 -7.40  4.30
Si -3.66 -2.50 -9.21
Si  8.96 -2.51 -4.25
Si  9.92 -0.06  2.51
Si  3.62  2.40  9.27
Si -3.63  2.40  9.27
Si -9.51 -3.71 -0.82
Si -1.15 -9.87  2.51
Si -9.95 -0.04 -2.45
Si -9.00  2.41  4.30
Si -6.73 -1.16  7.66
Si  5.87 -6.07 -5.85
Si  4.46 -0.09 -9.25
Si -5.72  6.16  5.91
Si  9.06  2.47  4.19
Si -3.21 -6.17 -7.58
Si  5.94  3.70  7.55
Si  6.87  1.25 -7.60
Si  8.09 -4.88 -4.17
Si  3.33  6.18  7.58
Si  9.63  3.73  0.82
Si -8.13  4.82  4.26
Si -5.99 -3.65 -7.65
Si -4.51  0.02  9.35
Si -0.65 -8.55  5.87
Si -9.14 -2.51 -4.26
Si -7.74 -3.63 -5.93
Si  8.21  4.83 -4.21
Si -8.26 -4.81  4.23
Si -1.25  8.58  5.84
Si -0.88  4.82 -9.25
Si  2.88  9.76  2.49
Si  1.24 -8.55 -5.92
Si -2.58  9.82 -2.56
Si  2.49 -9.87  2.49
Si  0.61  8.60 -5.96
Si -8.55 -1.26  5.94
Si -10.39 -1.19  0.84
Si 10.38  1.23 -0.92
Si -1.00 -4.81 -9.28
Si  7.86  3.65  5.94
Si -7.17  7.27 -2.50
Si  0.95  4.83  9.31
Si -6.08 -8.57  0.79
Si -3.92  6.18  7.58
Si -2.97 -9.80 -2.56
Si  7.13 -7.34  2.59
Si  6.04  8.62 -0.89
Si  4.04 -6.17 -7.58
Si  0.83 -4.88  9.35
Si  8.67  1.27 -5.93
Si  7.33  7.27 -2.50
Si -8.70 -6.08  0.82
Si  1.03  9.72  4.26
Si -2.40 -8.54 -5.93
Si -1.07 -9.79 -4.17
Si -0.68  9.83 -4.17
Si  2.52  8.55  5.94
Si -6.64  3.64 -7.58
Si -7.37 -7.34  2.59
Si  8.81  6.10 -0.82
Si  6.76 -3.63  7.58
Si  0.64 -9.90  4.26
Si  2.55 -5.00 -9.25
Si 10.00  0.02 -4.17
Si -2.90  8.65 -5.85
Si  3.05 -8.56  5.91
Si -7.63  1.25 -7.60
Si  6.56 -8.59 -0.92
Si -6.57  8.62  0.84
Si -2.60  4.93  9.35
Si -10.04 -0.09  4.26
Si  2.82  5.00 -9.28
Si -2.87 -4.98  9.31
Si  8.51 -3.64  5.87
Si -4.37  9.76  2.49
Si  5.35 -2.51  9.25
Si -6.99 -6.13  5.84
Si  7.77 -1.16  7.66
Si  0.85  0.02 10.95
Si -5.13 -6.11  7.55
Si  2.87  9.74 -4.21
Si -2.92 -9.71  4.23
Si 10.33 -3.66  0.79
Si  4.28 -9.80 -2.56
Si  5.51  2.41 -9.21
Si  2.47 -9.89 -4.21
Si  6.98  6.17 -5.92
Si  0.29 -11.00  0.84
Si -10.37  3.71 -0.89
Si -7.09  7.32  4.30
Si -0.94 -0.06 -11.02
Si  5.09  6.17 -7.65
Si -8.55  3.70 -5.96
Si -2.52  9.91  4.23
Si -5.44  2.47 -9.32
Si -0.29 11.04 -0.92
Si  7.05 -7.42 -4.25
Si -5.54 -2.51  9.27
Si -1.60 -11.00 -0.89
Si  9.43 -1.23  5.84
Si  4.68  9.82 -2.56
Si  1.56 11.05  0.79
Si -9.44  1.26 -5.92
Si  0.00  2.38 -10.96
Si -4.20 -8.56  5.91
Si  6.29 -0.07  9.31
Si -4.76 -9.87  2.49
Si -0.05 -2.35 10.99
Si -6.34  0.10 -9.28
Si  2.09 -11.01 -0.84
Si  7.41  7.32  4.30
Si  9.45 -6.10  0.84
Si -1.95 11.10  0.91
Si -9.46  6.13 -0.92
Si  4.35  8.65 -5.85
Si  2.67 -0.06 -11.00
Si  7.52 -6.13  5.84
Si  9.89 -4.95 -2.45
Si -9.92  4.85  2.51
Si -5.72  6.15 -7.60
Si 10.76 -2.54 -2.50
Si -7.45 -7.42 -4.25
Si  1.79 -2.43 -10.92
Si -10.80  2.47  2.59
Si -7.53  6.17 -5.92
Si -2.71 -0.04 11.06
Si  5.86 -6.07  7.66
Si -1.91 -2.53 -10.96
Si -1.84  2.37 11.02
Si -7.74 -3.63  7.58
Si  4.38 -4.98  9.31
Si  1.86  2.55 10.99
Si -4.43  5.00 -9.28
Si -4.73  8.55  5.94
Si  4.33 -9.71  4.23
Si 10.02  4.92 -2.56
Si 11.36 -1.19  0.84
Si  0.60  8.60  7.55
Si -11.37  1.23 -0.92
Si  4.85 -8.54 -5.93
Si -4.38  9.74 -4.21
Si -0.65 -8.55 -7.65
Si -8.55 -1.26 -7.58
Si  1.24 -8.55  7.60
Si  7.86  3.64 -7.58
Si -4.70 -5.00 -9.25
Si -3.35 -10.99  0.82
Si 10.95  2.47  2.59
Si -10.10 -4.96  2.49
Si  4.66  4.93  9.35
Si -10.99 -2.54 -2.50
Si  3.48 11.00 -0.82
Si -1.25  8.58 -7.67
Si  8.67  1.27  7.58
Si -3.78 11.00 -0.82
Si -2.40 -8.54  7.58
Si  3.90 -10.99  0.82
Si  2.52  8.55 -7.58
Si -7.94 -8.59 -0.92
Si  7.93  8.62  0.84
Si -3.55  2.47 -10.92
Si -4.78 -9.89 -4.21
Si  0.17  7.31 -9.21
Si  4.73  9.91  4.23
Si -9.84  4.93 -4.17
Si -6.13  9.77 -2.45
Si  9.80 -4.99  4.26
Si  3.71  2.47 -10.92
Si -9.54 -3.65  5.91
Si  8.85 -7.45 -2.50
Si  3.50 -2.54 11.02
Si -8.89  7.38  2.59
Si  3.05 -8.56 -7.60
Si  6.10 -9.87  2.51
Si -0.20 -7.41  9.27
Si -3.75 -2.54 11.02
Si -2.90  8.65  7.66
Si -4.58 -0.06 -11.00
Si 10.88  2.40 -4.25
Si -10.88  2.40 -4.25
Si  9.69  3.74 -5.85
Si -1.72  7.30  9.27
Si 10.84 -2.50  4.30
Si  1.68 -7.40 -9.21
Si  1.93  7.30  9.25
Si  4.54 -0.04 11.06
Si  9.16  7.28  2.55
Si  6.49  9.76  2.51
Si -7.24  2.40  9.25
Si -10.91 -2.50  4.30
Si  6.00  8.58  5.84
Si -8.56  3.70  7.55
Si -9.21 -7.26 -2.52
Si  7.15 -2.44 -9.32
Si  7.26  2.40  9.25
Si 11.38  3.71 -0.89
Si -6.01 -8.55 -5.92
Si 10.07  5.00  4.23
Si  8.52 -3.65 -7.65
Si  6.97  6.17  7.60
Si -11.42 -3.66  0.79
Si 10.42  1.26  5.87
Si -10.12 -4.98 -4.21
Si -2.01 -7.34 -9.32
Si  8.42 -8.57  0.79
Si -1.06 -4.89 10.95
Si -6.98 -6.13 -7.67
Si 11.80 -0.04 -2.45
Si -8.63 -6.07 -5.85
Si -6.52 -9.85 -2.45
Si  0.97  4.85 -11.02
Si  0.76 -4.96 -11.00
