500
set: 1008.00  0.00  0.00
Si -0.40  1.22 -0.87
Si  0.42 -1.23  0.95
Si -1.29 -1.18 -0.88
Si  1.39  1.28  0.81
Si  2.15 -1.17 -0.83
Si -0.88 -0.01  2.46
Si -2.17  1.25  0.83
Si  0.87 -0.00 -2.50
Si -3.15 -1.19  0.77
Si -0.02  2.41  2.50
Si  3.21  1.23 -0.78
Si -0.06 -2.51 -2.48
Si  2.65 -0.02  2.49
Si -2.74 -0.00 -2.46
Si -0.49 -3.57  0.81
Si  0.59  3.67 -0.88
Si  1.83  2.35 -2.48
Si  1.32 -3.62 -0.78
Si -1.80  2.42 -2.53
Si -1.26  3.67  0.77
Si -1.90 -2.44  2.50
Si  1.81 -2.52  2.52
Si -3.99  1.23 -0.78
Si  4.05 -1.19  0.77
Si -0.96 -0.02 -4.21
Si  0.89 -0.08  4.23
Si -2.28 -3.64 -0.87
Si  2.31  3.63  0.95
Si  3.14 -3.60  0.83
Si -0.07 -2.43  4.21
Si  0.06  2.42 -4.24
Si -3.50  2.34  2.52
Si -3.15  3.68 -0.83
Si  3.51 -2.43 -2.53
Si -2.74 -0.00  4.18
Si  2.75 -0.09 -4.19
Si  3.69  2.34  2.52
Si  4.45 -0.00 -2.46
Si -3.69 -2.43 -2.53
Si  1.71 -2.45 -4.21
Si -4.54 -0.02  2.49
Si  1.81  2.43  4.21
Si -1.80  2.43  4.25
Si -1.83 -2.43 -4.24
Si -5.04 -1.17 -0.83
Si  5.03  1.25  0.83
Si -4.05 -3.60  0.83
Si -0.86  4.85 -2.46
Si  4.04  3.68 -0.83
Si  0.77 -4.88  2.49
Si  1.00  4.85  2.46
Si -1.02 -4.86 -2.50
Si -0.35  1.25  5.83
Si -5.80  1.28  0.81
Si  2.57 -4.86 -2.46
Si  3.51 -2.43  4.25
Si  0.45 -1.14 -5.90
Si  1.36  1.20 -5.75
Si  3.59  2.40 -4.21
Si -3.60  2.40 -4.21
Si -2.66  4.83  2.49
Si  5.90 -1.18 -0.88
Si  0.27 -6.03 -0.83
Si  4.45 -0.00  4.18
Si -4.44 -0.09 -4.19
Si -1.34 -1.21  5.83
Si -2.77 -4.86  2.46
Si  2.75  4.85 -2.50
Si -3.69 -2.43  4.25
Si -4.89  3.63  0.95
Si -0.28  6.11  0.83
Si  4.91 -3.64 -0.87
Si  1.49  6.07 -0.87
Si -1.47 -6.08  0.95
Si  5.29 -2.44  2.50
Si -5.37  2.35 -2.48
Si  5.39  2.42 -2.53
Si -2.21  1.24 -5.94
Si  2.27 -1.20  5.92
Si -5.38 -2.52  2.52
Si -0.86  4.85  4.18
Si  2.16 -6.04  0.77
Si  0.92  4.84 -4.21
Si -2.10  6.09 -0.78
Si  0.87 -4.94 -4.19
Si -1.00 -4.94  4.23
Si -3.11 -1.18 -5.88
Si  3.10  1.26  5.87
Si  6.31 -0.01  2.46
Si -6.33 -0.00 -2.50
Si -0.52 -3.65 -5.75
Si -2.56  4.77 -4.19
Si -3.18 -6.04 -0.88
Si  2.57 -4.86  4.18
Si  0.55  3.65  5.83
Si -5.87 -3.62 -0.78
Si -6.77 -1.23  0.95
Si  2.77  4.77  4.23
Si  6.80  1.22 -0.87
Si  1.21 -3.60  5.87
Si  3.28  6.14  0.81
Si  5.93  3.67  0.77
Si  4.42 -4.86  2.46
Si -4.44  4.85 -2.50
Si -2.85 -4.87 -4.21
Si -1.22  3.68 -5.88
Si  4.54  4.83  2.49
Si -4.63 -4.86 -2.46
Si -2.23 -3.61  5.83
Si -5.38  2.43  4.21
Si  4.09 -1.18 -5.88
Si  5.37 -2.43 -4.24
Si -4.10  1.26  5.87
Si  5.39  2.43  4.25
Si  4.02 -6.04 -0.88
Si -3.92  6.14  0.81
Si -5.49 -2.45 -4.21
Si  2.33  3.71 -5.90
Si  6.23 -0.02 -4.21
Si -6.31 -0.08  4.23
Si -3.04  3.66  5.92
Si -6.60  3.67 -0.88
Si  3.10 -3.62 -5.94
Si  0.45 -1.14  7.51
Si  6.70 -3.57  0.81
Si -0.35  1.25 -7.58
Si  0.09  7.28 -2.53
Si -7.59  1.22 -0.87
Si -4.42  4.77  4.23
Si  4.35 -4.87 -4.21
Si  7.62 -1.23  0.95
Si -0.08 -7.37  2.52
Si -1.34 -1.21 -7.58
Si -1.61  7.19  2.52
Si -4.93 -1.20  5.92
Si  4.99  1.24 -5.94
Si  4.64  4.77 -4.19
Si  1.36  1.20  7.66
Si  1.62 -7.29 -2.53
Si -2.21  1.24  7.48
Si -5.03 -6.04  0.77
Si -4.63 -4.86  4.18
Si  1.87  7.27  2.50
Si  2.26 -1.20 -7.49
Si  7.14 -2.51 -2.48
Si  7.18  2.41  2.50
Si  5.09  6.09 -0.78
Si -7.21  2.41  2.50
Si -1.94 -7.37 -2.48
Si -7.25 -2.51 -2.48
Si -4.09 -3.62 -5.94
Si  4.15  3.66  5.92
Si -3.11 -1.18  7.54
Si -6.19  4.85  2.46
Si  6.18 -4.86 -2.50
Si  3.10  1.26 -7.54
Si -5.83  1.20 -5.75
Si  6.34  4.85 -2.46
Si  5.86 -1.21  5.83
Si -3.48  7.20 -2.48
Si -5.71  6.07 -0.87
Si  5.73 -6.08  0.95
Si  0.55  3.65 -7.58
Si  0.09  7.28  4.25
Si  3.41 -7.30  2.50
Si -0.18 -7.30 -4.21
Si  8.06 -0.00 -2.50
Si  1.21 -3.60 -7.54
Si -8.08 -0.01  2.46
Si -6.43 -4.88  2.49
Si  4.96 -3.61  5.83
Si  3.71  7.20 -2.48
Si -1.22  3.68  7.54
Si  0.38 -6.05  5.92
Si -4.86  3.71 -5.90
Si -0.52 -3.65  7.66
Si -0.32  6.09 -5.94
Si -7.69 -3.57  0.81
Si -0.56 -8.48 -0.78
Si -1.44 -6.00 -5.90
Si -1.72  7.26 -4.21
Si  0.62  8.52  0.77
Si  1.54  6.10  5.83
Si  1.62 -7.28  4.25
Si  1.26 -8.46  0.83
Si -3.79 -7.30  2.50
Si -8.49 -1.18 -0.88
Si  7.12 -2.43  4.21
Si -1.96 -7.28  4.21
Si  1.94  7.28 -4.24
Si -7.14  2.42 -4.24
Si  4.09 -1.18  7.54
Si  7.79  3.67 -0.88
Si -1.27  8.54 -0.83
Si -4.10  1.26 -7.54
Si -2.23 -3.61 -7.58
Si  2.33  3.71  7.51
Si  2.20 -6.03 -5.88
Si  8.59  1.28  0.81
Si -7.27 -2.43  4.21
Si  7.25  2.42 -4.24
Si -2.21  6.11  5.87
Si -2.38 -8.43  0.81
Si  3.10 -3.62  7.48
Si -3.04  3.66 -7.49
Si  2.48  8.53 -0.88
Si  3.25  6.06 -5.75
Si -6.27  4.84 -4.21
Si  6.19 -4.94  4.23
Si  6.34  4.85  4.18
Si -3.22 -6.06  5.83
Si -6.75 -1.14 -5.90
Si -4.93 -1.20 -7.49
Si -3.00  8.48  0.95
Si -6.33 -4.94 -4.19
Si  3.03 -8.49 -0.87
Si  4.99  1.24  7.48
Si  6.85  1.25  5.83
Si -3.50  7.28  4.21
Si  8.08 -0.08  4.23
Si -5.98 -3.60  5.87
Si  3.48 -7.29 -4.24
Si  5.97  3.68 -5.88
Si -8.16 -0.02 -4.21
Si  3.70  7.28  4.21
Si -3.71 -7.29 -4.24
Si -6.93 -6.03 -0.83
Si  0.88 -0.08 -9.19
Si -3.95  6.06 -5.75
Si -8.46  3.67  0.77
Si -0.96 -0.01  9.21
Si -4.09 -3.62  7.48
Si  6.92  6.11  0.83
Si  8.52 -3.62 -0.78
Si  3.97 -6.06  5.83
Si  4.15  3.66 -7.49
Si -5.33  7.27  2.50
Si  5.25 -7.37 -2.48
Si  5.58  7.19  2.52
Si  9.35 -1.17 -0.83
Si -9.36  1.25  0.83
Si  0.06  2.42  9.17
Si -4.17 -8.49 -0.87
Si  4.19  8.48  0.95
Si -5.57 -7.29 -2.53
Si -0.07 -2.43 -9.21
Si  6.67 -3.65 -5.75
Si -6.65  3.65  5.83
Si -7.54  1.25  5.83
Si  2.75 -0.09  9.22
Si  7.46 -6.03 -0.83
Si  0.38 -6.05 -7.49
Si -2.74 -0.01 -9.24
Si  9.02  2.35 -2.48
Si -0.32  6.09  7.48
Si -1.80  2.43 -9.17
Si -8.99  2.42 -2.53
Si  5.86 -1.21 -7.58
Si -1.83 -2.43  9.17
Si  7.96 -4.88  2.49
Si  1.71 -2.45  9.20
Si  9.00 -2.52  2.52
Si -7.47  6.11  0.83
Si -4.86  3.71  7.51
Si  1.81  2.43 -9.21
Si -5.83  1.20  7.66
Si -8.05  4.85 -2.46
Si -1.44 -6.00  7.51
Si  7.64 -1.14 -5.90
Si  4.82 -8.43  0.81
Si -9.10 -2.44  2.50
Si  4.96 -3.61 -7.58
Si -4.71  8.53 -0.88
Si -4.99 -6.03 -5.88
Si  4.98  6.11  5.87
Si  8.20  4.85  2.46
Si  1.54  6.10 -7.58
Si -8.21 -4.86 -2.50
Si  2.20 -6.03  7.54
Si  5.24 -7.28  4.21
Si -5.25  7.28 -4.24
Si -2.21  6.11 -7.54
Si  5.48  7.26 -4.21
Si -0.77  9.69  2.49
Si  0.68 -9.71 -2.46
Si  1.03  9.71 -2.46
Si -5.57 -7.28  4.25
Si -1.12 -9.73  2.49
Si  3.51 -2.43 -9.17
Si  8.90 -2.45 -4.21
Si  9.85 -0.02  2.49
Si -5.66  6.10  5.83
Si -6.75 -1.14  7.51
Si  3.59  2.40  9.20
Si -3.60  2.40  9.20
Si -3.69 -2.43 -9.17
Si -9.48 -3.64 -0.87
Si  5.76 -6.00 -5.90
Si  9.50  3.63  0.95
Si -3.22 -6.06 -7.58
Si  9.01  2.43  4.21
Si -9.94 -0.00 -2.46
Si -8.99  2.43  4.25
Si -4.44 -0.09  9.22
Si  4.45 -0.01 -9.24
Si -9.02 -2.43 -4.24
Si -5.98 -3.60 -7.54
Si -8.05  4.85  4.18
Si  3.25  6.06  7.66
Si  6.85  1.25 -7.58
Si  5.97  3.68  7.54
Si -7.72 -3.65 -5.75
Si -0.67 -8.45  5.87
Si  2.54 -9.72  2.46
Si  8.06 -4.94 -4.19
Si -2.55  9.71 -2.50
Si  8.12  4.84 -4.21
Si  7.74  3.65  5.83
Si -5.94 -8.46  0.83
Si  8.56  1.20 -5.75
Si  0.66  8.54 -5.88
Si -8.53 -1.21  5.83
Si  1.22 -8.47 -5.94
Si  2.89  9.71  2.46
Si  5.92  8.54 -0.83
Si -1.16  8.52  5.92
Si -2.90 -9.71 -2.50
Si -10.34 -1.19  0.77
Si  0.93  4.84  9.21
Si -8.20 -4.94  4.23
Si -0.86  4.85 -9.24
Si -1.00 -4.94 -9.19
Si -7.11  7.28 -2.53
Si  3.97 -6.06 -7.58
Si  0.87 -4.94  9.22
Si 10.40  1.23 -0.78
Si -0.67  9.62 -4.19
Si -3.95  6.06  7.66
Si -2.41 -8.51 -5.75
Si  7.12 -7.37  2.52
Si  2.43  8.50  5.83
Si  0.68 -9.71  4.18
Si  7.28  7.28 -2.53
Si  1.03  9.71  4.18
Si -8.66 -6.08  0.95
Si  8.68  6.07 -0.87
Si -7.27 -7.37  2.52
Si -2.56  4.77  9.22
Si -1.02 -9.80 -4.19
Si  2.77  4.77 -9.19
Si -6.65  3.65 -7.58
Si  3.08 -8.46  5.83
Si  2.57 -4.86 -9.24
Si -7.54  1.25 -7.58
Si  7.64 -1.14  7.51
Si -9.94 -0.00  4.18
Si -6.57  8.52  0.77
Si  6.63 -8.48 -0.78
Si  9.95 -0.09 -4.19
Si  6.67 -3.65  7.66
Si -2.85 -4.87  9.21
Si -2.54  9.63  4.23
Si -2.98  8.57 -5.90
Si -4.99 -6.03  7.54
Si  8.41 -3.60  5.87
Si -6.82 -6.05  5.92
Si  2.46 -9.73 -4.21
Si -4.31  9.71  2.46
Si  5.37 -2.43  9.17
Si -8.42  3.68 -5.88
Si  4.29 -9.71 -2.50
Si  4.98  6.11 -7.54
Si  5.39  2.43 -9.17
Si  0.28 -10.90  0.77
Si  2.81  9.70 -4.21
Si -5.38  2.43 -9.21
Si  6.87  6.09 -5.94
Si  0.87 -0.00 10.92
Si  7.02 -7.30 -4.21
Si -0.22 10.94 -0.78
Si 10.34 -3.60  0.83
Si -0.88 -0.01 -10.95
Si -5.49 -2.45  9.20
Si -10.35  3.68 -0.83
Si -7.11  7.28  4.25
Si -1.62 -10.88 -0.83
Si  4.64  9.71 -2.50
Si -2.89 -9.79  4.23
Si -4.66 -9.72  2.46
Si -4.12 -8.46  5.83
Si  1.61 10.96  0.83
Si  6.23 -0.01  9.21
Si  2.13 -10.89 -0.88
Si  7.28  7.28  4.25
Si -9.30  6.09 -0.78
Si -6.31 -0.08 -9.19
Si  9.36 -6.04  0.77
Si  9.76 -4.86 -2.46
Si -0.02  2.41 -10.91
Si -9.40  1.24 -5.94
Si -7.37 -7.30 -4.21
Si  5.76 -6.00  7.51
Si -2.03 10.99  0.81
Si -0.06 -2.51 10.94
Si  4.22  8.57 -5.90
Si  9.46 -1.20  5.92
Si -10.69  2.34  2.52
Si  2.65 -0.02 -10.92
Si -9.85  4.83  2.49
Si -4.42  4.77 -9.19
Si -5.66  6.10 -7.58
Si 10.70 -2.43 -2.53
Si -11.18  1.23 -0.78
Si  4.35 -4.87  9.21
Si -2.74 -0.00 10.95
Si -1.80  2.42 10.88
Si  1.81 -2.52 -10.90
Si 11.24 -1.19  0.77
Si  4.79 -8.51 -5.75
Si  1.83  2.35 10.94
Si -1.90 -2.44 -10.91
Si  9.95  4.85 -2.50
Si -0.67 -8.46 -7.54
Si -7.51  6.09 -5.94
Si -9.96 -4.86  2.46
Si -4.76  8.50  5.83
Si  7.57 -6.05  5.92
Si  1.22 -8.47  7.48
Si  4.64  4.77  9.22
Si -1.16  8.52 -7.49
Si  0.66  8.54  7.54
Si -4.63 -4.86 -9.24
Si 10.89  2.34  2.52
Si  7.74  3.65 -7.58
Si -10.88 -2.43 -2.53
Si -4.38  9.70 -4.21
Si -7.72 -3.65  7.66
Si  3.38 10.93 -0.87
Si -8.53 -1.21 -7.58
Si -3.35 -10.94  0.95
Si  4.66  9.63  4.23
Si  4.31 -9.79  4.23
Si -7.76 -8.48 -0.78
Si  8.56  1.20  7.66
Si  7.82  8.52  0.77
Si -4.73 -9.73 -4.21
Si -3.82 10.93 -0.87
Si  3.84 -10.94  0.95
Si -9.75  4.77 -4.19
Si  2.43  8.50 -7.58
Si -8.81  7.19  2.52
Si -9.43 -3.61  5.83
Si  9.76 -4.86  4.18
Si -3.50  2.34 -10.90
Si  3.51 -2.43 10.88
Si -2.41 -8.51  7.66
Si  0.09  7.28 -9.17
Si  8.82 -7.29 -2.53
Si  6.08 -9.73  2.49
Si  3.69  2.34 -10.90
Si -3.69 -2.43 10.88
Si -0.18 -7.30  9.20
Si -6.17  9.71 -2.46
Si 10.71 -2.43  4.25
Si  3.08 -8.46 -7.58
Si -2.98  8.57  7.51
Si -6.82 -6.05 -7.49
Si  9.53  3.71 -5.90
Si  1.62 -7.28 -9.17
Si  4.45 -0.00 10.95
Si 10.79  2.40 -4.21
Si -4.54 -0.02 -10.92
Si  9.96  4.77  4.23
Si -10.80  2.40 -4.21
Si -11.24 -3.60  0.83
Si -1.72  7.26  9.20
Si  6.87  6.09  7.48
Si 11.23  3.68 -0.83
Si  8.41 -3.60 -7.54
Si  1.94  7.28  9.17
Si -7.13  2.42  9.17
Si  9.06  7.27  2.50
Si -8.42  3.68  7.54
Si  6.42  9.69  2.49
Si  7.12 -2.43 -9.21
Si -1.96 -7.28 -9.21
Si 11.65 -0.00 -2.46
Si 10.29  1.26  5.87
Si -10.30 -1.18 -5.88
Si -10.04 -4.87 -4.21
Si -10.88 -2.43  4.25
Si  7.25  2.42  9.17
Si -5.98 -8.47 -5.94
Si -6.51 -9.71 -2.46
Si -7.27 -2.43 -9.21
Si  0.77 -4.88 -10.92
Si  8.45 -8.46  0.83
Si -1.01 -4.86 10.92
Si -9.14 -7.37 -2.48
Si -11.74 -0.02  2.49
