500
set: 91.00  0.00  0.00
Si  0.00  0.00  0.00
Si -0.01  0.22  2.31
Si  0.01 -0.22 -2.31
Si  1.08  2.13  0.00
Si -1.08 -2.13  0.00
Si -2.55  0.00  0.00
Si  2.55  0.00  0.00
Si -1.47  2.13  0.00
Si  1.47 -2.13  0.00
Si -1.10 -1.92  2.31
Si  1.10  1.92 -2.31
Si -1.46  1.92 -2.31
Si  1.46 -1.92  2.31
Si -2.54 -0.22 -2.31
Si  2.54  0.22  2.31
Si  2.57 -0.22 -2.31
Si -2.57  0.22  2.31
Si -1.07 -2.35 -2.31
Si  1.07  2.35  2.31
Si -1.48  2.35  2.31
Si  1.48 -2.35 -2.31
Si  3.64  2.13  0.00
Si -3.64 -2.13  0.00
Si -0.39  4.27  0.00
Si  0.39 -4.27  0.00
Si -4.02  2.13  0.00
Si  4.02 -2.13  0.00
Si  0.03 -0.43 -4.63
Si -0.03  0.43  4.63
Si -0.37  4.05 -2.31
Si  0.37 -4.05  2.31
Si -3.65 -1.92  2.31
Si  3.65  1.92 -2.31
Si -2.17 -4.27  0.00
Si  2.17  4.27  0.00
Si -3.62 -2.35 -2.31
Si  3.62  2.35  2.31
Si  4.01 -1.92  2.31
Si -4.01  1.92 -2.31
Si  1.11  1.70 -4.63
Si -1.11 -1.70  4.63
Si -0.40  4.49  2.31
Si  0.40 -4.49 -2.31
Si -5.11  0.00  0.00
Si  5.11  0.00  0.00
Si -1.44  1.70 -4.63
Si  1.44 -1.70  4.63
Si  2.18  4.05 -2.31
Si -2.18 -4.05  2.31
Si  2.94 -4.27  0.00
Si -2.94  4.27  0.00
Si -4.04  2.35  2.31
Si  4.04 -2.35 -2.31
Si  2.53  0.43  4.63
Si -2.53 -0.43 -4.63
Si -2.58  0.43  4.63
Si  2.58 -0.43 -4.63
Si  1.06  2.57  4.63
Si -1.06 -2.57 -4.63
Si  2.15  4.49  2.31
Si -2.15 -4.49 -2.31
Si -1.50  2.57  4.63
Si  1.50 -2.57 -4.63
Si  2.93 -4.05  2.31
Si -2.93  4.05 -2.31
Si  5.09  0.22  2.31
Si -5.09 -0.22 -2.31
Si -5.12  0.22  2.31
Si  5.12 -0.22 -2.31
Si -2.95  4.49  2.31
Si  2.95 -4.49 -2.31
Si -0.36  3.83 -4.63
Si  0.36 -3.83  4.63
Si  3.66  1.70 -4.63
Si -3.66 -1.70  4.63
Si -4.00  1.70 -4.63
Si  4.00 -1.70  4.63
Si  4.72  4.27  0.00
Si -4.72 -4.27  0.00
Si -2.19 -3.83  4.63
Si  2.19  3.83 -4.63
Si  3.61  2.57  4.63
Si -3.61 -2.57 -4.63
Si -0.70 -6.40  0.00
Si  0.70  6.40  0.00
Si  6.19  2.13  0.00
Si -6.19 -2.13  0.00
Si -0.41  4.70  4.63
Si  0.41 -4.70 -4.63
Si  0.71  6.18 -2.31
Si -0.71 -6.18  2.31
Si -4.74 -4.05  2.31
Si  4.74  4.05 -2.31
Si -4.05  2.57  4.63
Si  4.05 -2.57 -4.63
Si  1.86 -6.40  0.00
Si -1.86  6.40  0.00
Si -2.91  3.83 -4.63
Si  2.91 -3.83  4.63
Si -1.84  6.18 -2.31
Si  1.84 -6.18  2.31
Si -5.08 -0.43 -4.63
Si  5.08  0.43  4.63
Si  6.21  1.92 -2.31
Si -6.21 -1.92  2.31
Si  4.71  4.49  2.31
Si -4.71 -4.49 -2.31
Si  6.58 -2.13  0.00
Si -6.58  2.13  0.00
Si  5.13 -0.43 -4.63
Si -5.13  0.43  4.63
Si  2.14  4.70  4.63
Si -2.14 -4.70 -4.63
Si  5.49 -4.27  0.00
Si -5.49  4.27  0.00
Si -0.04  0.65  6.94
Si  0.04 -0.65 -6.94
Si -6.18 -2.35 -2.31
Si  6.18  2.35  2.31
Si  0.69  6.62  2.31
Si -0.69 -6.62 -2.31
Si -3.25 -6.40  0.00
Si  3.25  6.40  0.00
Si  1.12  1.48 -6.94
Si -1.12 -1.48  6.94
Si -5.48  4.05 -2.31
Si  5.48 -4.05  2.31
Si  6.57 -1.92  2.31
Si -6.57  1.92 -2.31
Si -2.97  4.70  4.63
Si  2.97 -4.70 -4.63
Si -1.43  1.48 -6.94
Si  1.43 -1.48  6.94
Si -1.87  6.62  2.31
Si  1.87 -6.62 -2.31
Si  3.27  6.18 -2.31
Si -3.27 -6.18  2.31
Si  6.59 -2.35 -2.31
Si -6.59  2.35  2.31
Si  2.52  0.65  6.94
Si -2.52 -0.65 -6.94
Si  2.59 -0.65 -6.94
Si -2.59  0.65  6.94
Si  5.51 -4.49 -2.31
Si -5.51  4.49  2.31
Si  1.04  2.79  6.94
Si -1.04 -2.79 -6.94
Si  0.72  5.97 -4.63
Si -0.72 -5.97  4.63
Si  1.51 -2.79 -6.94
Si -1.51  2.79  6.94
Si -4.75 -3.83  4.63
Si  4.75  3.83 -4.63
Si  7.66  0.00  0.00
Si -7.66  0.00  0.00
Si  3.24  6.62  2.31
Si -3.24 -6.62 -2.31
Si -1.83  5.97 -4.63
Si  1.83 -5.97  4.63
Si  4.41 -6.40  0.00
Si -4.41  6.40  0.00
Si -0.35  3.61 -6.94
Si  0.35 -3.61  6.94
Si  4.40 -6.18  2.31
Si -4.40  6.18 -2.31
Si -6.22 -1.70  4.63
Si  6.22  1.70 -4.63
Si  3.68  1.48 -6.94
Si -3.68 -1.48  6.94
Si -7.65 -0.22 -2.31
Si  7.65  0.22  2.31
Si -7.67  0.22  2.31
Si  7.67 -0.22 -2.31
Si -4.70 -4.70 -4.63
Si  4.70  4.70  4.63
Si -5.47  3.83 -4.63
Si  5.47 -3.83  4.63
Si -6.17 -2.57 -4.63
Si  6.17  2.57  4.63
Si -2.21 -3.61  6.94
Si  2.21  3.61 -6.94
Si  3.98 -1.48  6.94
Si -3.98  1.48 -6.94
Si -6.55  1.70 -4.63
Si  6.55 -1.70  4.63
Si  3.28  5.97 -4.63
Si -3.28 -5.97  4.63
Si -0.67 -6.84 -4.63
Si  0.67  6.84  4.63
Si  4.42 -6.62 -2.31
Si -4.42  6.62  2.31
Si  3.60  2.79  6.94
Si -3.60 -2.79 -6.94
Si  2.90 -3.61  6.94
Si -2.90  3.61 -6.94
Si -7.28 -4.27  0.00
Si  7.28  4.27  0.00
Si -6.60  2.57  4.63
Si  6.60 -2.57 -4.63
Si  1.88 -6.84 -4.63
Si -1.88  6.84  4.63
Si -4.06  2.79  6.94
Si  4.06 -2.79 -6.94
Si  0.42 -4.92 -6.94
Si -0.42  4.92  6.94
Si -0.77  8.53  0.00
Si  0.77 -8.53  0.00
Si -5.52  4.70  4.63
Si  5.52 -4.70 -4.63
Si  5.07  0.65  6.94
Si -5.07 -0.65 -6.94
Si -5.81 -6.40  0.00
Si  5.81  6.40  0.00
Si -7.29 -4.05  2.31
Si  7.29  4.05 -2.31
Si -5.15  0.65  6.94
Si  5.15 -0.65 -6.94
Si  0.76 -8.32  2.31
Si -0.76  8.32 -2.31
Si  1.78  8.53  0.00
Si -1.78 -8.53  0.00
Si -4.38  5.97 -4.63
Si  4.38 -5.97  4.63
Si -2.13 -4.92 -6.94
Si  2.13  4.92  6.94
Si  5.82  6.18 -2.31
Si -5.82 -6.18  2.31
Si -1.79 -8.32  2.31
Si  1.79  8.32 -2.31
Si -7.26 -4.49 -2.31
Si  7.26  4.49  2.31
Si  3.23  6.84  4.63
Si -3.23 -6.84 -4.63
Si  7.64  0.43  4.63
Si -7.64 -0.43 -4.63
Si  7.69 -0.43 -4.63
Si -7.69  0.43  4.63
Si -8.75 -2.13  0.00
Si  8.75  2.13  0.00
Si  2.98 -4.92 -6.94
Si -2.98  4.92  6.94
Si -0.74 -5.75  6.94
Si  0.74  5.75 -6.94
Si  0.79 -8.75 -2.31
Si -0.79  8.75  2.31
Si -5.79 -6.62 -2.31
Si  5.79  6.62  2.31
Si -8.05  4.27  0.00
Si  8.05 -4.27  0.00
Si -3.33  8.53  0.00
Si  3.33 -8.53  0.00
Si  4.76  3.61 -6.94
Si -4.76 -3.61  6.94
Si -1.82  5.75 -6.94
Si  1.82 -5.75  6.94
Si  1.77  8.75  2.31
Si -1.77 -8.75 -2.31
Si  3.31 -8.32  2.31
Si -3.31  8.32 -2.31
Si  8.76  1.92 -2.31
Si -8.76 -1.92  2.31
Si  8.04 -4.05  2.31
Si -8.04  4.05 -2.31
Si  0.05 -0.87 -9.25
Si -0.05  0.87  9.25
Si -8.73 -2.35 -2.31
Si  8.73  2.35  2.31
Si -0.75  8.10 -4.63
Si  0.75 -8.10  4.63
Si -4.44  6.84  4.63
Si  4.44 -6.84 -4.63
Si  9.13 -2.13  0.00
Si -9.13  2.13  0.00
Si -1.14 -1.26  9.25
Si  1.14  1.26 -9.25
Si  6.23  1.48 -6.94
Si -6.23 -1.48  6.94
Si  1.42 -1.26  9.25
Si -1.42  1.26 -9.25
Si -7.30 -3.83  4.63
Si  7.30  3.83 -4.63
Si  6.96 -6.40  0.00
Si -6.96  6.40  0.00
Si -1.81 -8.10  4.63
Si  1.81  8.10 -4.63
Si -8.06  4.49  2.31
Si  8.06 -4.49 -2.31
Si  5.46 -3.61  6.94
Si -5.46  3.61 -6.94
Si  5.83  5.97 -4.63
Si -5.83 -5.97  4.63
Si  4.34  8.53  0.00
Si -4.34 -8.53  0.00
Si -6.95  6.18 -2.31
Si  6.95 -6.18  2.31
Si -3.29 -5.75  6.94
Si  3.29  5.75 -6.94
Si -9.12  1.92 -2.31
Si  9.12 -1.92  2.31
Si  2.50  0.87  9.25
Si -2.50 -0.87 -9.25
Si -3.34  8.75  2.31
Si  3.34 -8.75 -2.31
Si  6.54 -1.48  6.94
Si -6.54  1.48 -6.94
Si  2.61 -0.87 -9.25
Si -2.61  0.87  9.25
Si -4.35 -8.32  2.31
Si  4.35  8.32 -2.31
Si  6.15  2.79  6.94
Si -6.15 -2.79 -6.94
Si  4.68  4.92  6.94
Si -4.68 -4.92 -6.94
Si  9.14 -2.35 -2.31
Si -9.14  2.35  2.31
Si  1.03  3.00  9.25
Si -1.03 -3.00 -9.25
Si -7.25 -4.70 -4.63
Si  7.25  4.70  4.63
Si  1.52 -3.00 -9.25
Si -1.52  3.00  9.25
Si  0.33 -3.40  9.25
Si -0.33  3.40 -9.25
Si -6.98  6.62  2.31
Si  6.98 -6.62 -2.31
Si -3.30  8.10 -4.63
Si  3.30 -8.10  4.63
Si -0.66 -7.05 -6.94
Si  0.66  7.05  6.94
Si -6.62  2.79  6.94
Si  6.62 -2.79 -6.94
Si -4.37  5.75 -6.94
Si  4.37 -5.75  6.94
Si  8.02 -3.83  4.63
Si -8.02  3.83 -4.63
Si  4.32  8.75  2.31
Si -4.32 -8.75 -2.31
Si -3.69 -1.26  9.25
Si  3.69  1.26 -9.25
Si  8.77  1.70 -4.63
Si -8.77 -1.70  4.63
Si  1.90 -7.05 -6.94
Si -1.90  7.05  6.94
Si  5.78  6.84  4.63
Si -5.78 -6.84 -4.63
Si -2.22 -3.40  9.25
Si  2.22  3.40 -9.25
Si  0.80 -8.97 -4.63
Si -0.80  8.97  4.63
Si -5.53  4.92  6.94
Si  5.53 -4.92 -6.94
Si  3.97 -1.26  9.25
Si -3.97  1.26 -9.25
Si  8.72  2.57  4.63
Si -8.72 -2.57 -4.63
Si -10.22  0.00  0.00
Si 10.22  0.00  0.00
Si -1.76 -8.97 -4.63
Si  1.76  8.97  4.63
Si -6.94  5.97 -4.63
Si  6.94 -5.97  4.63
Si  2.89 -3.40  9.25
Si -2.89  3.40 -9.25
Si  4.36  8.10 -4.63
Si -4.36 -8.10  4.63
Si  7.62  0.65  6.94
Si -7.62 -0.65 -6.94
Si  9.11 -1.70  4.63
Si -9.11  1.70 -4.63
Si -5.88  8.53  0.00
Si  5.88 -8.53  0.00
Si -3.59 -3.00 -9.25
Si  3.59  3.00  9.25
Si -7.70  0.65  6.94
Si  7.70 -0.65 -6.94
Si -3.21 -7.05 -6.94
Si  3.21  7.05  6.94
Si -8.07  4.70  4.63
Si  8.07 -4.70 -4.63
Si -5.87  8.32 -2.31
Si  5.87 -8.32  2.31
Si -10.20 -0.22 -2.31
Si 10.20  0.22  2.31
Si -10.23  0.22  2.31
Si 10.23 -0.22 -2.31
Si  0.73 -7.88  6.94
Si -0.73  7.88 -6.94
Si  8.36  6.40  0.00
Si -8.36 -6.40  0.00
Si -4.08  3.00  9.25
Si  4.08 -3.00 -9.25
Si  9.16 -2.57 -4.63
Si -9.16  2.57  4.63
Si -5.06 -0.87 -9.25
Si  5.06  0.87  9.25
Si -0.44  5.14  9.25
Si  0.44 -5.14 -9.25
Si -5.16  0.87  9.25
Si  5.16 -0.87 -9.25
Si -3.35  8.97  4.63
Si  3.35 -8.97 -4.63
Si  1.82  7.88 -6.94
Si -1.82 -7.88  6.94
Si -8.37 -6.18  2.31
Si  8.37  6.18 -2.31
Si  0.31 10.67  0.00
Si -0.31 -10.67  0.00
Si -0.33 -10.45  2.31
Si  0.33 10.45 -2.31
Si -7.32 -3.61  6.94
Si  7.32  3.61 -6.94
Si -9.83 -4.27  0.00
Si  9.83  4.27  0.00
Si  5.85  5.75 -6.94
Si -5.85 -5.75  6.94
Si  2.12  5.14  9.25
Si -2.12 -5.14 -9.25
Si  5.89 -8.75 -2.31
Si -5.89  8.75  2.31
Si -0.75 -5.53  9.25
Si  0.75  5.53 -9.25
Si  6.99 -6.84 -4.63
Si -6.99  6.84  4.63
Si -4.45  7.05  6.94
Si  4.45 -7.05 -6.94
Si  9.84  4.05 -2.31
Si -9.84 -4.05  2.31
Si  8.35  6.62  2.31
Si -8.35 -6.62 -2.31
Si  2.24 -10.67  0.00
Si -2.24 10.67  0.00
Si -1.80  5.53 -9.25
Si  1.80 -5.53  9.25
Si  2.23 -10.45  2.31
Si -2.23 10.45 -2.31
Si  4.78  3.40 -9.25
Si -4.78 -3.40  9.25
Si  6.89  8.53  0.00
Si -6.89 -8.53  0.00
Si  4.31  8.97  4.63
Si -4.31 -8.97 -4.63
Si -2.99  5.14  9.25
Si  2.99 -5.14 -9.25
Si -3.29  7.88 -6.94
Si  3.29 -7.88  6.94
Si  5.85 -8.10  4.63
Si -5.85  8.10 -4.63
Si  9.82  4.49  2.31
Si -9.82 -4.49 -2.31
Si  2.87 10.67  0.00
Si -2.87 -10.67  0.00
Si -6.90 -8.32  2.31
Si  6.90  8.32 -2.31
Si  2.88 10.45 -2.31
Si -2.88 -10.45  2.31
Si -0.30 -10.89 -2.31
Si  0.30 10.89  2.31
Si  7.24  4.92  6.94
Si -7.24 -4.92 -6.94
Si -8.01  3.61 -6.94
Si  8.01 -3.61  6.94
Si -10.19 -0.43 -4.63
Si 10.19  0.43  4.63
Si -6.25 -1.26  9.25
Si  6.25  1.26 -9.25
Si -0.34 -10.23  4.63
Si  0.34 10.23 -4.63
Si 10.24 -0.43 -4.63
Si -10.24  0.43  4.63
Si  5.44 -3.40  9.25
Si -5.44  3.40 -9.25
Si  3.31  5.53 -9.25
Si -3.31 -5.53  9.25
Si  8.39  5.97 -4.63
Si -8.39 -5.97  4.63
Si  8.79  1.48 -6.94
Si -8.79 -1.48  6.94
Si  2.25 -10.89 -2.31
Si -2.25 10.89  2.31
Si -6.92  5.75 -6.94
Si  6.92 -5.75  6.94
Si  6.88  8.75  2.31
Si -6.88 -8.75 -2.31
Si -4.38 -7.88  6.94
Si  4.38  7.88 -6.94
Si  6.53 -1.26  9.25
Si -6.53  1.26 -9.25
Si 10.60 -4.27  0.00
Si -10.60  4.27  0.00
Si -2.22 10.23 -4.63
Si  2.22 -10.23  4.63
Si -5.77 -7.05 -6.94
Si  5.77  7.05  6.94
Si -9.52  6.40  0.00
Si  9.52 -6.40  0.00
Si -8.71 -2.79 -6.94
Si  8.71  2.79  6.94
Si -2.85 -10.89 -2.31
Si  2.85 10.89  2.31
Si -11.30 -2.13  0.00
