500
set: 575.00  0.00  0.00
Si  0.00  0.00  0.00
Si -1.71  1.05  0.74
Si  0.12 -2.06  0.74
Si  1.82  1.05  0.74
Si  0.39 -0.10 -2.20
Si -1.43 -1.15 -2.94
Si  1.43  1.15  2.94
Si  3.53  0.00  0.00
Si -3.53  0.00  0.00
Si  0.27  1.95 -2.94
Si -0.27 -1.95  2.94
Si  1.70  3.10  0.00
Si -1.70 -3.10  0.00
Si -1.83  3.10  0.00
Si  1.83 -3.10  0.00
Si  2.10 -1.15 -2.94
Si -2.10  1.15  2.94
Si -3.14 -0.10 -2.20
Si -1.44  3.00 -2.20
Si -3.41 -2.06  0.74
Si  1.54 -0.90  3.68
Si -1.31 -3.21 -2.20
Si -0.01  4.15  0.74
Si  3.64 -2.06  0.74
Si  2.09  3.00 -2.20
Si -1.98 -0.90  3.68
Si -0.28  2.20  3.68
Si  2.22 -3.21 -2.20
Si  3.92 -0.10 -2.20
Si  3.25 -1.95  2.94
Si -3.25  1.95 -2.94
Si  3.80  1.95 -2.94
Si -3.80 -1.95  2.94
Si  0.40 -4.26 -2.94
Si -0.40  4.26  2.94
Si  3.24  2.20  3.68
Si -1.04 -1.26 -5.13
Si -5.24  1.05  0.74
Si -0.15 -4.00  3.68
Si -1.58 -5.16  0.74
Si  3.52  4.15  0.74
Si  5.34  1.05  0.74
Si  0.66  1.85 -5.13
Si -3.54  4.15  0.74
Si  1.95 -5.16  0.74
Si -3.81  2.20  3.68
Si  2.49 -1.26 -5.13
Si -4.95 -1.15 -2.94
Si  4.95  1.15  2.94
Si -1.15  0.80 -5.88
Si  1.15 -0.80  5.88
Si  3.12  4.26  2.94
Si -3.12 -4.26 -2.94
Si  1.55 -5.05  2.94
Si -1.55  5.05 -2.94
Si  5.23  3.10  0.00
Si -5.23 -3.10  0.00
Si -2.86  1.85 -5.13
Si  1.97  5.05 -2.94
Si -1.97 -5.05  2.94
Si -5.36  3.10  0.00
Si  5.36 -3.10  0.00
Si -4.96  3.00 -2.20
Si -4.84 -3.21 -2.20
Si  0.13 -6.21  0.00
Si -0.13  6.21  0.00
Si  5.07 -0.90  3.68
Si  0.68 -2.31 -5.88
Si -0.68  2.31  5.88
Si  2.37  0.80 -5.88
Si -2.37 -0.80  5.88
Si  3.37 -4.00  3.68
Si  5.63 -1.15 -2.94
Si -5.63  1.15  2.94
Si  0.26  6.10 -2.20
Si -3.93  4.26  2.94
Si  3.93 -4.26 -2.94
Si -3.68 -4.00  3.68
Si  1.41  5.30  3.68
Si -0.56  0.25  6.62
Si -5.51 -0.90  3.68
Si  0.52 -6.31 -2.20
Si  5.62  3.00 -2.20
Si  0.79 -4.36 -5.13
Si -2.11  5.30  3.68
Si  4.19  1.85 -5.13
Si -2.85 -2.31 -5.88
Si  2.85  2.31  5.88
Si  5.75 -3.21 -2.20
Si -4.56 -1.26 -5.13
Si -6.66 -0.10 -2.20
Si -7.05  0.00  0.00
Si  7.05  0.00  0.00
Si -0.55 -3.90  5.88
Si  0.55  3.90 -5.88
Si -3.40 -6.21  0.00
Si  3.40  6.21  0.00
Si  3.66 -6.21  0.00
Si -3.66  6.21  0.00
Si -1.17  4.95 -5.13
Si  2.97  0.25  6.62
Si -3.27  6.10 -2.20
Si -2.73 -4.36 -5.13
Si -6.94 -2.06  0.74
Si -5.11 -5.16  0.74
Si  1.27 -2.85  6.62
Si -3.01 -6.31 -2.20
Si  1.69  7.25  0.74
Si  7.17 -2.06  0.74
Si  1.14  3.35  6.62
Si  3.79  6.10 -2.20
Si  2.36  4.95 -5.13
Si -1.84  7.25  0.74
Si -2.26 -2.85  6.62
Si  4.68 -0.80  5.88
Si -4.68  0.80 -5.88
Si  5.47 -5.16  0.74
Si  4.20 -2.31 -5.88
Si -4.20  2.31  5.88
Si  6.78 -1.95  2.94
Si -6.78  1.95 -2.94
Si -2.98  3.90 -5.88
Si  2.98 -3.90  5.88
Si -5.08  5.05 -2.94
Si  5.08 -5.05  2.94
Si  7.44 -0.10 -2.20
Si -4.08  0.25  6.62
Si -2.39  3.35  6.62
Si  4.05 -6.31 -2.20
Si  4.32 -4.36 -5.13
Si  6.02 -1.26 -5.13
Si  6.77  2.20  3.68
Si  5.50  5.05 -2.94
Si -5.50 -5.05  2.94
Si -1.30 -7.36 -2.94
Si  1.30  7.36  2.94
Si -1.02 -5.41 -5.88
Si  1.02  5.41  5.88
Si  4.94  5.30  3.68
Si  7.33  1.95 -2.94
Si -7.33 -1.95  2.94
Si -0.76  0.69 -8.07
Si -4.07 -3.90  5.88
Si  4.07  3.90 -5.88
Si  1.67 -7.11  3.68
Si  7.04  4.15  0.74
Si -1.85 -7.11  3.68
Si -7.07  4.15  0.74
Si -2.23  7.36  2.94
Si  2.23 -7.36 -2.94
Si  0.25 -8.26  0.74
Si -5.90 -0.80  5.88
Si  5.90  0.80 -5.88
Si  2.50 -5.41 -5.88
Si -2.50  5.41  5.88
Si -6.39  1.85 -5.13
Si  6.65  4.26  2.94
Si -6.65 -4.26 -2.94
Si  1.06 -2.41 -8.07
Si -7.34  2.20  3.68
Si -4.69  4.95 -5.13
Si  2.76  0.69 -8.07
Si -5.64  5.30  3.68
Si  4.80 -2.85  6.62
Si -0.14 -8.16  2.94
Si  0.14  8.16 -2.94
Si  4.67  3.35  6.62
Si -2.46 -2.41 -8.07
Si  6.90 -4.00  3.68
Si -8.77  1.05  0.74
Si -0.95  0.35  8.81
Si  0.95 -0.35 -8.81
Si -0.43 -5.96  6.62
Si -3.28 -8.26  0.74
Si  8.87  1.05  0.74
Si  5.21  7.25  0.74
Si  0.94  3.80 -8.07
Si  6.38  2.31  5.88
Si -6.38 -2.31 -5.88
Si -7.21 -4.00  3.68
Si  8.48  1.15  2.94
Si -8.48 -1.15 -2.94
Si -5.37  7.25  0.74
Si  7.46 -4.26 -2.94
Si -7.46  4.26  2.94
Si -0.91 -7.46 -5.13
Si  3.77 -8.26  0.74
Si -4.29  0.69 -8.07
Si -0.41  8.41  3.68
Si  2.58  0.35  8.81
Si -2.58 -0.35 -8.81
Si  4.55  5.41  5.88
Si -4.55 -5.41 -5.88
Si -6.26 -4.36 -5.13
Si -8.36 -3.21 -2.20
Si  1.28 -7.00  5.88
Si -1.28  7.00 -5.88
Si -5.78 -2.85  6.62
Si  5.89  4.95 -5.13
Si -8.49  3.00 -2.20
Si -0.69  6.46  6.62
Si  0.88 -2.75  8.81
Si -0.88  2.75 -8.81
Si  6.50  0.25  6.62
Si -4.82 -7.36 -2.94
Si  4.82  7.36  2.94
Si  8.75  3.10  0.00
Si -8.75 -3.10  0.00
Si -2.59  3.80 -8.07
Si  6.92  6.21  0.00
Si -6.92 -6.21  0.00
Si  3.38 -8.16  2.94
Si -3.38  8.16 -2.94
Si -6.54 -6.31 -2.20
Si -6.79  6.10 -2.20
Si  8.60 -0.90  3.68
Si -8.88  3.10  0.00
Si  8.88 -3.10  0.00
Si  2.25  7.00 -5.88
Si -2.25 -7.00  5.88
Si  3.67  8.16 -2.94
Si -3.67 -8.16  2.94
Si  3.10 -5.96  6.62
Si  2.62 -7.46 -5.13
Si  1.57  9.31  0.00
Si -1.57 -9.31  0.00
Si  7.72  1.85 -5.13
Si -5.91  3.35  6.62
Si  7.18 -6.21  0.00
Si -7.18  6.21  0.00
Si -0.75 -3.46 -8.81
Si  0.75  3.46  8.81
Si -1.96  9.31  0.00
Si  1.96 -9.31  0.00
Si  5.20 -7.11  3.68
Si  0.53  8.05 -5.13
Si -1.57  9.21 -2.20
Si  4.59 -2.41 -8.07
Si -6.51  3.90 -5.88
Si  6.51 -3.90  5.88
Si  2.65  2.75 -8.81
Si -2.65 -2.75  8.81
Si -5.38 -7.11  3.68
Si -8.09 -1.26 -5.13
Si  1.96  9.21 -2.20
Si  2.84  6.46  6.62
Si -9.15  1.15  2.94
Si  9.15 -1.15 -2.94
Si  3.11  8.41  3.68
Si  0.87  1.40  9.55
Si -1.18 -9.41 -2.20
Si -0.83 -1.70  9.55
Si -3.96 -5.96  6.62
Si  7.32  6.10 -2.20
Si  5.76 -7.36 -2.94
Si -5.76  7.36  2.94
Si -0.63 -5.51 -8.07
Si -9.04 -0.90  3.68
Si -2.78  3.46  8.81
Si  2.78 -3.46 -8.81
Si  9.14  3.00 -2.20
Si -4.47  0.35  8.81
Si  4.47 -0.35 -8.81
Si  2.35 -9.41 -2.20
Si  4.46  3.80 -8.07
Si  7.73 -2.31 -5.88
Si -7.73  2.31  5.88
Si -3.94  8.41  3.68
Si -6.03  5.41  5.88
Si  6.03 -5.41 -5.88
Si -2.99  8.05 -5.13
Si -2.66  1.40  9.55
Si  9.27 -3.21 -2.20
Si  2.70 -1.70  9.55
Si -4.43 -7.46 -5.13
Si -8.63 -5.16  0.74
Si -7.61  0.25  6.62
Si  7.57 -6.31 -2.20
Si -8.21  0.80 -5.88
Si  8.21 -0.80  5.88
Si -4.21  6.46  6.62
Si  2.89 -5.51 -8.07
Si -4.41  2.75 -8.81
Si  4.41 -2.75  8.81
Si  6.29  0.69 -8.07
Si -4.81  7.00 -5.88
Si  4.81 -7.00  5.88
Si -5.99 -2.41 -8.07
Si  7.85 -4.36 -5.13
Si  7.60  3.90 -5.88
Si -7.60 -3.90  5.88
Si  0.80 -8.51 -5.88
Si -0.80  8.51  5.88
Si  4.06  8.05 -5.13
Si -0.14 10.36  0.74
Si  4.28  3.46  8.81
Si -4.28 -3.46 -8.81
Si  9.00 -5.16  0.74
Si -8.61  5.05 -2.94
Si  8.61 -5.05  2.94
Si -10.19 -0.10 -2.20
Si -10.58  0.00  0.00
Si 10.58  0.00  0.00
Si -0.96  4.51  9.55
Si -0.82 -5.85  8.81
Si  0.82  5.85 -8.81
Si  4.39  1.40  9.55
Si -5.10 -9.31  0.00
Si  5.10  9.31  0.00
Si -4.16 -5.51 -8.07
Si -4.36 -1.70  9.55
Si  8.47  5.30  3.68
Si -0.89  6.90 -8.07
Si -10.46 -2.06  0.74
Si -2.72 -8.51 -5.88
Si  2.72  8.51  5.88
Si  6.11  0.35  8.81
Si -6.11 -0.35 -8.81
Si -6.81 -8.26  0.74
Si  1.00 -4.80  9.55
Si -5.09  9.21 -2.20
Si -4.71 -9.41 -2.20
Si -9.03 -5.05  2.94
Si  9.03  5.05 -2.94
Si -5.48  9.31  0.00
Si  5.48 -9.31  0.00
Si -5.77 -7.00  5.88
Si  5.77  7.00 -5.88
Si -6.12  3.80 -8.07
Si -0.03 -10.21  3.68
Si  2.57  4.51  9.55
Si  0.53 -10.46 -2.94
Si -0.53 10.46  2.94
Si -8.22  4.95 -5.13
Si 10.31 -1.95  2.94
Si -10.31  1.95 -2.94
Si  9.54 -1.26 -5.13
Si 10.70 -2.06  0.74
Si -2.71  5.85 -8.81
Si  2.71 -5.85  8.81
Si  3.39 10.36  0.74
Si  5.49  9.21 -2.20
Si  2.63  6.90 -8.07
Si  6.15 -7.46 -5.13
Si -2.53 -4.80  9.55
Si  8.32 -2.85  6.62
Si -3.67 10.36  0.74
Si  1.08 -6.56 -8.81
Si -1.08  6.56  8.81
Si  7.30 -8.26  0.74
Si  8.20  3.35  6.62
Si  6.91 -8.16  2.94
Si -6.91  8.16 -2.94
Si  6.63 -5.96  6.62
Si  1.34 -0.46 -11.01
Si -6.17 -2.75  8.81
Si  6.17  2.75 -8.81
Si  9.43  0.80 -5.88
Si -9.43 -0.80  5.88
Si 10.30  2.20  3.68
Si 10.97 -0.10 -2.20
Si -9.17  5.30  3.68
Si -4.33  8.51  5.88
Si  4.33 -8.51 -5.88
Si  6.37  6.46  6.62
Si -2.19 -0.46 -11.01
Si  2.45  6.56  8.81
Si -2.45 -6.56 -8.81
Si -7.82  0.69 -8.07
Si -7.20 -8.16  2.94
Si  7.20  8.16 -2.94
Si  3.00 10.46  2.94
Si -3.00 -10.46 -2.94
Si  1.40 -9.06  6.62
Si  5.87 -9.41 -2.20
Si -9.92  1.85 -5.13
Si  6.64  8.41  3.68
Si -0.49  2.64 -11.01
Si -8.08 -5.41 -5.88
Si  8.08  5.41  5.88
Si -6.30  3.46  8.81
Si  6.30 -3.46 -8.81
Si 10.57  4.15  0.74
Si  8.74  7.25  0.74
Si -10.59  4.15  0.74
Si  3.50 -10.21  3.68
Si 10.85  1.95 -2.94
Si -10.85 -1.95  2.94
Si 10.18  4.26  2.94
Si -10.18 -4.26 -2.94
Si -2.13 -9.06  6.62
Si -3.55 -10.21  3.68
Si -4.35 -5.85  8.81
Si  4.35  5.85 -8.81
Si -6.18  1.40  9.55
Si -4.49  4.51  9.55
Si -1.45 -11.36  0.74
Si -4.42  6.90 -8.07
Si -8.89  7.25  0.74
Si  8.35  7.36  2.94
Si -8.35 -7.36 -2.94
Si  6.22 -1.70  9.55
Si -6.52  8.05 -5.13
Si  2.08 -11.36  0.74
Si -0.36 -3.56 -11.01
Si -4.06 10.46  2.94
Si  4.06 -10.46 -2.94
Si  4.53 -4.80  9.55
Si -7.48 -5.96  6.62
Si  1.01  9.56  6.62
Si -10.87  2.20  3.68
Si  6.42 -5.51 -8.07
Si  0.42 10.11 -5.88
Si -0.42 -10.11  5.88
Si  8.12 -2.41 -8.07
Si  3.04  2.64 -11.01
Si -9.91 -2.31 -5.88
Si  9.91  2.31  5.88
Si  1.68 -11.26  2.94
Si -1.68 11.26 -2.94
Si 10.43 -4.00  3.68
Si -9.31 -2.85  6.62
Si  1.84 11.26 -2.94
Si -1.84 -11.26  2.94
Si  0.92 -10.57 -5.13
Si  9.42  4.95 -5.13
Si -7.47  8.41  3.68
Si  8.73 -7.11  3.68
Si -0.48 -1.51 -11.75
Si  0.48  1.51 11.75
Si  1.19 -8.62 -8.07
Si -9.79 -4.36 -5.13
Si -2.52  9.56  6.62
Si -8.00  0.35  8.81
Si  8.00 -0.35 -8.81
Si -4.60  6.56  8.81
Si  4.60 -6.56 -8.81
Si  1.22  1.59 -11.75
Si -1.22 -1.59 11.75
Si  7.99  3.80 -8.07
Si -8.91 -7.11  3.68
Si  3.17 -3.56 -11.01
Si -9.44  3.35  6.62
Si 10.02  0.25  6.62
Si -4.02  2.64 -11.01
Si -2.61 -10.57 -5.13
Si -2.33 -8.62 -8.07
Si -10.74 -4.00  3.68
Si  4.87 -0.46 -11.01
Si -7.74  6.46  6.62
Si -7.96 -7.46 -5.13
Si -10.06 -6.31 -2.20
Si -2.31  1.59 -11.75
Si  2.31 -1.59 11.75
Si  6.25  8.51  5.88
Si -6.25 -8.51 -5.88
Si -3.11 10.11 -5.88
Si  3.11 -10.11  5.88
Si -10.98  4.26  2.94
Si 10.98 -4.26 -2.94
Si  1.28 11.51  3.68
Si 10.45  6.21  0.00
Si -10.45 -6.21  0.00
Si -7.93  2.75 -8.81
Si  7.93 -2.75  8.81
Si -10.32  6.10 -2.20
Si  6.09  4.51  9.55
Si  7.59  8.05 -5.13
Si -9.28  7.36  2.94
Si  9.28 -7.36 -2.94
Si -3.89 -3.56 -11.01
Si  3.05 -1.51 -11.75
Si -3.05  1.51 11.75
Si  0.74  7.61  9.55
Si  4.93 -9.06  6.62
Si -10.04  3.90 -5.88
Si 10.04 -3.90  5.88
Si -7.80 -3.46 -8.81
Si  7.80  3.46  8.81
Si  6.16  6.90 -8.07
Si  6.24 -5.85  8.81
Si -6.24  5.85 -8.81
Si -6.06 -4.80  9.55
Si -2.24 11.51  3.68
Si  3.94 10.11 -5.88
Si -3.94 -10.11  5.88
Si -1.29 11.16 -5.13
Si -12.29  1.05  0.74
Si  8.34 -7.00  5.88
Si -8.34  7.00 -5.88
Si 10.71 -6.21  0.00
Si -10.71  6.21  0.00
Si -5.72 -0.46 -11.01
Si 12.01  1.15  2.94
Si -12.01 -1.15 -2.94
Si -0.26 12.41  0.00
Si  0.26 -12.41  0.00
Si -0.70 -7.91  9.55
Si -4.98 -11.36  0.74
Si -7.69 -5.51 -8.07
