500
set: 900.00  0.00  0.00
Si -0.43  1.20 -0.79
Si  0.46 -1.20  0.85
Si  1.36  1.14  0.80
Si -1.31 -1.19 -0.84
Si  2.15 -1.18 -0.81
Si -0.85  0.03  2.44
Si  0.89  0.01 -2.47
Si -2.17  1.24  0.82
Si  0.06  2.36  2.46
Si -3.11 -1.17  0.82
Si  3.12  1.18 -0.83
Si -0.08 -2.40 -2.49
Si -2.65 -0.02 -2.39
Si  2.64 -0.03  2.46
Si  0.47  3.57 -0.81
Si -0.47 -3.57  0.84
Si -1.75 -2.33  2.46
Si  1.76 -2.39  2.43
Si -1.25  3.53  0.86
Si -1.75  2.36 -2.48
Si  1.80  2.36 -2.48
Si  1.25 -3.57 -0.81
Si -0.91  0.01 -4.11
Si  0.89  0.01  4.13
Si -3.95  1.24 -0.83
Si  3.98 -1.17  0.82
Si -2.27 -3.54 -0.81
Si  2.27  3.54  0.84
Si -3.04  3.49 -0.86
Si  3.05 -3.52  0.81
Si -0.02 -2.38  4.10
Si  0.04  2.38 -4.11
Si -3.48  2.37  2.46
Si  3.47 -2.35 -2.48
Si  2.62  0.02 -4.13
Si -2.64 -0.04  4.12
Si  3.54  2.39  2.50
Si -3.58 -2.40 -2.44
Si  4.39  0.02 -2.46
Si -1.79 -2.36 -4.09
Si -4.41  0.01  2.47
Si  1.75 -2.37 -4.12
Si  1.76  2.36  4.12
Si  4.86  1.20  0.82
Si -1.71  2.36  4.17
Si -4.88 -1.18 -0.83
Si -0.84  4.70 -2.44
Si  4.00  3.53 -0.81
Si  0.80 -4.72  2.50
Si -3.99 -3.58  0.86
Si -0.94 -4.75 -2.48
Si  0.99  4.77  2.46
Si  3.49 -2.37  4.09
Si  5.70 -1.18 -0.83
Si  0.39 -1.19 -5.75
Si -5.72  1.20  0.82
Si -0.42  1.20  5.78
Si -3.53 -2.39  4.12
Si -3.57  2.35 -4.13
Si  3.54  2.37 -4.15
Si  2.66  4.70 -2.49
Si  2.57 -4.76 -2.50
Si -2.57  4.78  2.48
Si -2.68 -4.75  2.46
Si  4.37  0.01  4.09
Si  0.37 -5.92 -0.83
Si -0.37  5.94  0.82
Si -1.33 -1.17  5.76
Si  1.35  1.17 -5.77
Si -4.79  3.59  0.81
Si -4.42 -0.02 -4.13
Si  4.80 -3.62 -0.86
Si  1.43  5.92 -0.84
Si -1.38 -5.97  0.80
Si  2.17 -1.18  5.73
Si -2.16  1.16 -5.75
Si  5.27 -2.33  2.48
Si -5.27  2.34 -2.50
Si -5.32 -2.33  2.48
Si -0.79  4.71  4.12
Si  5.31  2.34 -2.50
Si  2.12 -5.91  0.82
Si  0.95  4.75 -4.09
Si  0.80 -4.74 -4.15
Si -0.98 -4.74  4.12
Si -2.14  5.93 -0.83
Si -3.08 -1.19 -5.71
Si  6.17  0.01  2.47
Si  3.12  1.19  5.76
Si -6.19  0.02 -2.46
Si -3.17 -5.91 -0.79
Si -6.61 -1.17  0.82
Si -0.48 -3.55 -5.74
Si  3.20  5.90  0.85
Si  6.63  1.24 -0.83
Si  0.46  3.56  5.77
Si  2.61 -4.74  4.13
Si -2.57  4.77 -4.13
Si -2.70 -4.72 -4.11
Si  2.72  4.72  4.10
Si -1.27  3.52 -5.75
Si  1.25 -3.54  5.74
Si  5.79  3.59  0.81
Si -5.78 -3.62 -0.86
Si  4.36 -4.74  2.46
Si -4.37  4.75 -2.48
Si  4.50  4.72  2.43
Si -4.49 -4.75 -2.48
Si -3.94  1.22  5.74
Si -5.23  2.37  4.13
Si  3.98 -1.18 -5.74
Si  3.89 -5.87 -0.83
Si  5.27 -2.34 -4.13
Si -5.31 -2.34 -4.13
Si  2.26  3.56 -5.74
Si -3.86  5.94  0.82
Si -2.28 -3.54  5.77
Si  5.35  2.37  4.13
Si -3.05  3.53  5.74
Si  3.00 -3.54 -5.78
Si  6.16 -0.02 -4.13
Si -6.21  0.01  4.09
Si  0.09  7.09 -2.39
Si  0.43 -1.20  7.40
Si -6.59  3.53 -0.81
Si -0.38  1.22 -7.41
Si -0.10 -7.14  2.46
Si  6.60 -3.58  0.86
Si  1.29  1.15  7.38
Si  7.47 -1.17  0.82
Si -7.47  1.18 -0.83
Si  4.27 -4.75 -4.13
Si -1.31 -1.20 -7.41
Si -4.35  4.74  4.09
Si  4.86  1.19 -5.78
Si -4.95 -1.20  5.74
Si  1.65 -7.09 -2.46
Si -4.91 -5.87  0.82
Si -1.67  7.12  2.47
Si  4.49  4.74 -4.12
Si -4.45 -4.75  4.17
Si  4.89  5.93 -0.81
Si -1.85 -7.10 -2.47
Si  2.17 -1.16 -7.38
Si  1.89  7.13  2.44
Si  7.00 -2.40 -2.44
Si -2.21  1.15  7.43
Si -7.04  2.39  2.50
Si  3.99  3.57  5.74
Si -4.01 -3.59 -5.75
Si  7.11  2.37  2.46
Si -7.11 -2.35 -2.48
Si -6.08  4.72  2.43
Si -3.12 -1.20  7.39
Si  6.09 -4.75 -2.48
Si  5.64 -1.20  5.74
Si  3.13  1.17 -7.44
Si  0.10  7.07  4.12
Si -6.22 -4.74  2.46
Si  5.67 -5.87  0.82
Si -0.12 -7.09 -4.13
Si  6.21  4.75 -2.48
Si -5.72  1.19 -5.78
Si -0.48 -3.54  7.40
Si -0.34  5.91 -5.71
Si  3.43 -7.10  2.47
Si -5.70  5.93 -0.81
Si  0.52  3.58 -7.43
Si  0.38 -5.92  5.76
Si  7.93 -0.02 -2.39
Si  4.79 -3.57  5.74
Si -3.45  7.12 -2.46
Si -3.59 -7.08  2.44
Si -7.94 -0.03  2.46
Si  1.27 -3.58 -7.41
Si -4.84  3.56 -5.78
Si -0.60 -8.28 -0.81
Si  7.54  3.49 -0.86
Si  1.63 -7.09  4.09
Si -7.54 -3.52  0.81
Si  3.63  7.12 -2.47
Si -1.68  7.09 -4.13
Si -1.28  3.54  7.49
Si  1.41  5.94  5.76
Si -1.39 -5.94 -5.77
Si  0.57  8.34  0.82
Si  1.24 -8.27  0.82
Si  1.83  7.12 -4.11
Si -1.85 -7.10  4.13
Si  3.94 -1.21  7.37
Si -3.94  1.23 -7.39
Si  7.01  2.35 -4.13
Si -1.21  8.34 -0.83
Si -7.04  2.37 -4.15
Si  7.05 -2.39  4.12
Si -2.22 -3.52 -7.43
Si  2.26  3.56  7.40
Si -7.09 -2.37  4.09
Si -2.20  5.91  5.74
Si  8.41  1.24  0.82
Si  2.12 -5.92 -5.78
Si -8.44 -1.18 -0.81
Si  2.31  8.30 -0.79
Si -2.28 -8.31  0.85
Si -6.09  4.74 -4.12
Si  3.02 -3.54  7.41
Si -3.04  3.56 -7.40
Si  6.13 -4.75  4.17
Si  3.13  5.92 -5.75
Si -6.60 -1.18 -5.74
Si  2.96 -8.28 -0.83
Si  6.23  4.74  4.09
Si -3.16 -5.91  5.78
Si  6.64  1.22  5.74
Si -2.98  8.30  0.82
Si  5.74  3.56 -5.78
Si -5.79 -3.57  5.74
Si -3.47  7.12  4.09
Si  4.84  1.20  7.39
Si -6.32 -4.75 -4.13
Si  3.42 -7.13 -4.13
Si -4.85 -1.19 -7.41
Si -6.69 -5.87 -0.83
Si  7.94 -0.04  4.12
Si -7.96  0.02 -4.13
Si -3.65 -7.09 -4.11
Si  3.63  7.11  4.13
Si  6.72  5.94  0.82
Si  8.31 -3.54 -0.81
Si -8.31  3.54  0.84
Si  0.90 -0.01 -9.03
Si  3.90 -5.89  5.74
Si -3.86  5.92 -5.74
Si -0.90  0.02  9.07
Si -5.20  7.08  2.46
Si  5.19 -7.12 -2.39
Si  4.01  3.52 -7.41
Si -4.02 -3.57  7.49
Si  5.38  7.08  2.46
Si  4.10  8.25  0.80
Si -5.39 -7.12 -2.39
Si -4.05 -8.30 -0.84
Si -9.22  1.14  0.80
Si  0.06  2.36  9.03
Si  9.27 -1.19 -0.84
Si -0.01 -2.41 -9.07
Si -2.62 -0.02 -9.02
Si -8.78  2.36 -2.48
Si -5.74  1.20  7.39
Si  2.62 -0.02  9.06
Si -6.59  3.57  5.74
Si  6.57 -3.59 -5.75
Si  5.73 -1.19 -7.41
Si -8.82 -2.39  2.43
Si  8.83 -2.33  2.46
Si -0.38  5.91  7.39
Si  8.83  2.36 -2.48
Si -7.38  5.90  0.85
Si -7.46  1.19  5.76
Si  7.50 -1.19 -5.71
Si  1.83  2.35 -9.03
Si  4.80 -3.54 -7.40
Si  1.74 -2.37  9.04
Si  7.41 -5.91 -0.79
Si -1.74  2.38 -9.05
Si  0.39 -5.94 -7.44
Si -4.82  3.57  7.41
Si  7.91 -4.75  2.46
Si -7.92  4.70 -2.49
Si -1.80 -2.36  9.08
Si  4.73 -8.28  0.82
Si -4.73  8.29 -0.83
Si  1.44  5.91 -7.41
Si  4.92  5.92  5.73
Si -1.45 -5.96  7.38
Si -4.90 -5.95 -5.75
Si -8.01 -4.76 -2.50
Si  8.01  4.78  2.48
Si  2.10 -5.91  7.39
Si -2.11  5.92 -7.41
Si -5.22  7.12 -4.13
Si  5.20 -7.14  4.12
Si  0.73 -9.46 -2.48
Si -0.74  9.47  2.46
Si  5.37  7.12 -4.13
Si  0.99  9.46 -2.48
Si -0.98 -9.49  2.43
Si -5.38 -7.14  4.12
Si -3.12 -5.89 -7.41
Si  8.79 -2.36 -4.09
Si -3.51  2.38  9.04
Si  3.49 -2.35 -9.05
Si  3.17  5.91  7.40
Si -3.54 -2.32 -9.05
Si -6.64 -1.21  7.37
Si -5.67  5.92  5.73
Si -9.69  0.01 -2.47
Si  3.52  2.38  9.06
Si  6.64  1.23 -7.39
Si  9.34  3.53  0.86
Si -8.82  2.36  4.12
Si -9.33 -3.57 -0.81
Si -8.83 -2.37 -4.12
Si -4.41 -0.07  9.01
Si  5.68 -5.95 -5.75
Si  9.73  0.03  2.44
Si -5.78 -3.54 -7.40
Si  5.76  3.57  7.41
Si -7.86  4.72  4.10
Si  7.88 -4.72 -4.11
Si  2.53 -9.43  2.48
Si  8.87  2.36  4.17
Si  4.42  0.03 -9.06
Si  0.58  8.27 -5.75
Si -0.57 -8.29  5.73
Si -2.53  9.45 -2.50
Si  7.54  3.53  5.74
Si -7.97 -4.74  4.13
Si  1.24 -8.29 -5.74
Si -5.85 -8.28  0.82
Si -7.58 -3.54 -5.78
Si  2.81  9.46  2.46
Si -1.20  8.32  5.74
Si  5.86  8.29 -0.83
Si  8.01  4.77 -4.13
Si -3.90  5.90  7.37
Si  3.90 -5.88 -7.39
Si -10.12 -1.20  0.85
Si -2.83 -9.51 -2.49
Si -8.41 -1.18  5.73
Si -0.91 -4.76 -9.03
Si  6.99 -7.08  2.44
Si -6.95  7.12 -2.47
Si  0.77 -4.73  9.06
Si 10.15  1.20 -0.79
Si  8.43  1.16 -5.75
Si -0.80  4.79 -9.05
Si  0.94  4.75  9.08
Si  0.75 -9.47  4.09
Si  8.44  5.93 -0.83
Si -8.46 -5.91  0.82
Si -0.83  9.46 -4.13
Si -2.35 -8.30 -5.75
Si -7.15 -7.10  2.47
Si  7.13  7.12 -2.46
Si -0.99 -9.47 -4.12
Si  2.32  8.30  5.78
Si  1.03  9.47  4.17
Si  2.90 -8.31  5.74
Si  9.67  0.01 -4.11
Si -6.57  3.52 -7.41
Si -6.48  8.25  0.80
Si -9.69  0.01  4.13
Si -2.98  8.29 -5.78
Si  2.61 -4.72 -9.05
Si -2.68 -4.74  9.03
Si -2.58  4.79  9.04
Si  7.46 -1.20  7.39
Si  2.73  4.69 -9.07
Si  6.56 -3.57  7.49
Si  6.53 -8.30 -0.84
Si -7.45  1.17 -7.44
Si -6.68 -5.89  5.74
Si  2.53 -9.44 -4.13
Si -0.30 10.59 -0.86
Si -2.49  9.48  4.13
Si  6.72  5.92 -5.74
Si  0.31 -10.63  0.81
Si  4.91  5.94 -7.38
Si -2.76 -9.49  4.10
Si  4.26 -9.51 -2.44
Si  8.30 -3.54  5.77
Si  2.78  9.49 -4.11
Si  5.26 -2.32  9.04
Si -0.90  0.02 -10.68
Si -8.32  3.56 -5.74
Si -4.30  9.50  2.50
Si -5.23  2.39 -9.05
Si  6.93 -7.09 -4.11
Si -4.95 -5.96  7.43
Si -4.50 -9.44  2.46
Si -5.32 -2.32  9.04
Si  0.90 -0.01 10.72
Si 10.11 -3.57  0.84
Si -10.11  3.57 -0.81
Si -6.95  7.11  4.13
Si  1.50 10.64  0.86
Si  5.35  2.39 -9.05
Si  4.54  9.46 -2.48
Si -1.49 -10.68 -0.81
Si  7.12  7.12  4.09
Si -4.07 -8.28  5.76
Si  4.09  8.28 -5.77
Si -7.16 -7.13 -4.13
Si -2.05 10.69  0.81
Si  6.17 -0.07  9.01
Si -9.15  5.92 -0.84
Si -0.01 -2.41 10.68
Si -9.23  1.17 -5.77
Si  2.06 -10.73 -0.86
Si -6.16  0.03 -9.06
Si  9.25 -1.17  5.76
Si  0.06  2.36 -10.71
Si  9.20 -5.97  0.80
Si -9.60  4.77  2.46
Si  2.62 -0.02 -10.68
Si  9.64 -4.75 -2.48
Si -5.67  5.94 -7.38
Si -2.62 -0.02 10.73
Si 10.50 -2.40 -2.49
Si -10.52  2.36  2.46
Si  5.63 -5.96  7.43
Si -1.80 -2.36 -10.66
Si  4.33 -4.73  9.04
Si  9.74  4.70 -2.44
Si -1.74  2.38 10.69
Si -0.57 -8.27 -7.38
Si  1.74 -2.37 -10.70
Si -11.01  1.20 -0.79
Si  7.42 -5.91  5.78
Si -4.35  4.75 -9.05
Si  0.53  8.26  7.43
Si -7.45  5.92 -5.75
Si  1.83  2.35 10.72
Si  4.76 -8.30 -5.71
Si 11.04 -1.20  0.85
Si -4.72  8.29  5.76
Si -9.79 -4.72  2.50
Si  7.54  3.56 -7.40
Si  4.49  4.74  9.04
Si -4.48 -4.72 -9.05
Si -7.56 -3.54  7.41
Si -3.21 -10.67  0.84
Si  1.20 -8.32  7.37
Si  3.21 10.68 -0.81
Si 10.65  2.36  2.46
Si -4.30  9.48 -4.15
Si -1.20  8.33 -7.39
Si -10.66 -2.40 -2.49
Si  4.31 -9.50  4.12
Si -8.41 -1.16 -7.38
Si  8.37  1.15  7.43
Si -4.53 -9.46 -4.09
Si  4.50  9.47  4.12
Si -7.62 -8.28 -0.83
Si  7.60  8.30  0.82
Si -3.85 10.64 -0.81
Si -2.31 -8.30  7.40
Si  3.85 -10.68  0.86
Si  2.36  8.33 -7.41
Si  0.13  7.08 -9.02
Si  9.60 -4.74  4.12
Si -9.63  4.75 -4.09
Si  3.49 -2.35 10.69
Si  9.31  3.52 -5.75
Si -6.04  9.46 -2.48
Si  3.52  2.38 -10.69
Si  6.09 -9.44  2.46
Si -3.54 -2.32 10.70
Si -8.69  7.13  2.44
Si -9.33 -3.54  5.74
Si -3.51  2.38 -10.70
Si -3.00  8.31  7.39
Si  8.73 -7.10 -2.47
Si  2.99 -8.29 -7.41
Si -0.12 -7.13  9.06
Si -1.67  7.04  9.01
Si  4.42  0.03 10.69
Si  6.68  5.90  7.37
Si -10.54  2.38 -4.11
Si -6.68 -5.88 -7.39
Si 10.56 -2.38  4.10
Si -4.41 -0.07 -10.73
Si -10.60 -2.38  4.10
Si  1.68 -7.07 -9.06
Si  9.80  4.71  4.12
Si -9.78 -4.74 -4.15
Si -5.82 -8.30 -5.71
Si 10.62  2.38 -4.11
Si 11.05  3.57 -0.81
Si -11.05 -3.57  0.84
Si -1.84 -7.12 -9.03
Si  6.28  9.50  2.50
Si -8.93 -7.09 -2.46
Si  8.91  7.12  2.47
Si  5.86  8.29  5.76
Si  1.84  7.12  9.07
Si -6.32 -9.51 -2.44
Si -11.43  0.03  2.44
Si -8.32  3.56  7.40
Si  7.04 -2.32 -9.05
Si  0.94  4.75 -10.66
Si  0.77 -4.73 -10.69
Si  7.07  2.38  9.04
Si  8.36 -3.52 -7.43
Si -7.07  2.38  9.06
Si 11.47  0.01 -2.47
Si -7.09 -2.35 -9.05
Si -8.27  8.30 -0.79
Si -0.80  4.79 10.70
