500
set: 425.00  0.00  0.00
Si  0.12 -0.05  0.01
Si -1.76  0.92  0.74
Si  0.13  0.01 -2.24
Si  1.74  1.22  0.82
Si -0.05 -2.19  0.72
Si -1.83  3.03  0.06
Si -1.75 -0.97 -2.93
Si  3.56  0.12  0.08
Si -1.77  1.00  2.98
Si -0.04 -2.08  2.99
Si -1.95 -3.08 -0.12
Si -0.04  2.13 -2.98
Si  1.70  3.25 -0.12
Si  1.88 -1.11 -2.99
Si -3.75  0.12  0.08
Si  1.91  1.14  3.03
Si  1.83 -3.30  0.06
Si  3.57 -2.04  0.70
Si  1.84 -1.04  3.62
Si -1.87  3.12 -2.19
Si  3.65 -0.01 -2.17
Si -3.66 -0.01 -2.17
Si  1.79 -3.21 -2.19
Si -3.74 -2.04  0.70
Si -1.81 -3.15 -2.35
Si -0.00  2.10  3.79
Si -0.09  4.29  0.70
Si -1.87 -1.10  3.78
Si  1.84  3.18 -2.35
Si  0.05  4.17  2.91
Si -3.60 -2.16  2.91
Si -3.60  2.06 -3.06
Si  3.71 -2.16  2.91
Si  3.71  2.06 -3.06
Si  0.05 -4.27 -3.06
Si -1.91 -5.11  0.82
Si  3.60  4.14  0.72
Si -3.52  2.12  3.73
Si -1.91 -0.89 -5.14
Si -3.71  4.14  0.72
Si  0.13 -4.21  3.73
Si -0.05  2.03 -5.25
Si  5.55  0.92  0.74
Si  1.89 -1.19 -5.23
Si  3.79  2.12  3.73
Si -5.57  1.22  0.82
Si  1.89 -5.41  0.74
Si  1.70 -0.97  5.85
Si  5.36 -3.08 -0.12
Si -0.10 -6.21  0.08
Si -0.10 -1.99 -5.89
Si  1.83  0.92 -5.91
Si  5.48  3.03  0.06
Si -1.75 -5.19  3.03
Si -1.77  5.22 -2.99
Si  3.62 -4.20 -2.98
Si -5.43 -1.11 -2.99
Si -5.40  1.14  3.03
Si  3.62  4.24  2.99
Si -3.69 -4.20 -2.98
Si  5.56 -0.97 -2.93
Si  5.54  1.00  2.98
Si -3.69  4.24  2.99
Si  1.88 -5.33  2.98
Si  1.91  5.36 -2.93
Si -5.48 -3.30  0.06
Si -1.83 -1.19  6.03
Si -0.10  2.23  6.04
Si -0.10  6.44  0.08
Si -5.60  3.25 -0.12
Si -1.95  1.14 -6.08
Si -5.47 -1.04  3.62
Si  5.44  3.12 -2.19
Si -1.81  5.29  3.62
Si -0.09  0.07  6.67
Si -0.00  6.31 -2.17
Si  1.79  5.23  3.78
Si -0.00 -6.34 -2.17
Si -0.08 -4.15 -5.27
Si  5.44 -1.10  3.78
Si  3.57  2.18 -5.27
Si -5.47  3.18 -2.35
Si -5.52 -3.21 -2.19
Si  5.49 -3.15 -2.35
Si  3.65 -4.23  3.79
Si -3.66 -4.23  3.79
Si -3.74  2.18 -5.27
Si -7.18 -0.05  0.01
Si -3.53  6.28  0.01
Si -3.53  2.06  5.97
Si -3.53 -2.16 -5.96
Si  0.12  4.17 -5.96
Si -3.53 -6.38  0.01
Si  3.78  6.28  0.01
Si  0.12 -4.27  5.97
Si  3.78  2.06  5.97
Si  3.78 -2.16 -5.96
Si  3.78 -6.38  0.01
Si  7.43 -0.05  0.01
Si  5.39 -5.11  0.82
Si  5.39 -0.89 -5.14
Si -7.18  0.01 -2.24
Si  1.89  7.25  0.74
Si -1.76  5.14 -5.23
Si -3.52 -6.32 -2.24
Si -3.52  6.34 -2.24
Si  3.60 -0.07  6.68
Si  1.89  3.03  6.71
Si  7.25 -2.19  0.72
Si -5.42 -1.19 -5.23
Si  1.74 -3.00  6.79
Si -3.71 -0.07  6.68
Si -1.76 -3.30  6.71
Si  3.60 -4.29 -5.25
Si  1.74  5.44 -5.14
Si -5.42 -5.41  0.74
Si  3.79 -6.32 -2.24
Si -7.36 -2.19  0.72
Si  3.79  6.34 -2.24
Si -3.71 -4.29 -5.25
Si  7.44  0.01 -2.24
Si -1.91  3.33  6.79
Si -1.91  7.55  0.82
Si  1.91 -7.30 -2.93
Si -5.48  0.92 -5.91
Si  3.56 -4.10  6.04
Si  1.83  5.14  6.03
Si  1.88  7.33  2.98
Si  7.27 -2.08  2.99
Si  3.56  4.33 -5.89
Si  7.27  2.13 -2.98
Si -5.40  5.36 -2.93
Si -5.60 -0.97  5.85
Si -5.43 -5.33  2.98
Si -1.95  5.36  5.85
Si  5.54  5.22 -2.99
Si  1.71 -5.19 -6.08
Si  5.36  1.14 -6.08
Si  5.56 -5.19  3.03
Si -7.35 -2.08  2.99
Si -7.35  2.13 -2.98
Si -1.77 -7.44 -2.99
Si -3.75 -4.10  6.04
Si -1.83 -5.41 -5.91
Si -3.75  4.33 -5.89
Si  5.48 -1.19  6.03
Si -1.75  7.46  3.03
Si -0.08 -8.37  0.70
Si -1.81 -7.37  3.62
Si  1.79  1.01 -8.15
Si -0.00 -2.12 -8.14
Si  7.22  4.29  0.70
Si  5.49  5.29  3.62
Si -5.52  5.23  3.78
Si  7.30  2.10  3.79
Si -7.31  2.10  3.79
Si  1.79 -7.43  3.78
Si -7.39  4.29  0.70
Si -1.81  1.07 -8.32
Si -7.25  4.17  2.91
Si  0.05 -0.05  8.87
Si  0.05  8.39 -3.06
Si  7.36  4.17  2.91
Si -7.25 -4.27 -3.06
Si  0.05 -8.49  2.91
Si  0.05 -0.05 -9.03
Si  1.74 -7.22 -5.14
Si  7.36 -4.27 -3.06
Si -5.42  7.25  0.74
Si -7.18 -4.21  3.73
Si -5.42  3.03  6.71
Si -9.07  0.92  0.74
Si -0.05  6.25  6.68
Si  9.05  1.22  0.82
Si -3.52 -2.10 -8.21
Si  7.25  2.03 -5.25
Si  5.55  5.14 -5.23
Si  0.13  4.23 -8.21
Si  0.13  8.45  3.73
Si -0.05 -6.40  6.68
Si -7.36  2.03 -5.25
Si  3.60 -8.51  0.72
Si  3.79 -2.10 -8.21
Si -5.57 -3.00  6.79
Si  5.39  3.33  6.79
Si  5.55 -3.30  6.71
Si  5.39  7.55  0.82
Si -3.71 -8.51  0.72
Si -1.76 -7.52 -5.23
Si  7.44 -4.21  3.73
Si -5.57  5.44 -5.14
Si  7.21 -6.21  0.08
Si  7.21 -1.99 -5.89
Si -1.83  7.24 -5.91
Si  1.83  9.35  0.06
Si -5.40 -7.30 -2.93
Si -1.95 -7.30  5.85
Si  1.70 -9.41 -0.12
Si -9.05 -0.97 -2.93
Si  5.36  5.36  5.85
Si  9.01  3.25 -0.12
Si -5.43  7.33  2.98
Si -9.08  1.00  2.98
Si  1.91 -3.08 -8.90
Si -9.13  3.03  0.06
Si -5.48  5.14  6.03
Si  3.62 -8.41  2.99
Si -1.75  3.25 -8.90
Si  3.62  0.02 -8.95
Si  1.88  3.11  8.94
Si  3.62  0.02  8.95
Si -3.69 -8.41  2.99
Si -7.40 -6.21  0.08
Si  1.88  3.11 -8.96
Si -7.40 -1.99 -5.89
Si -1.77 -3.22  8.94
Si  7.21  2.23  6.04
Si  3.62  8.46 -2.98
Si  7.21  6.44  0.08
Si -3.69  0.02 -8.95
Si -1.77 -3.22 -8.96
Si -3.69  0.02  8.95
Si -3.69  8.46 -2.98
Si  1.91 -3.08  9.00
Si  5.48 -5.41 -5.91
Si  9.13 -3.30  0.06
Si -1.75  3.25  9.00
Si  9.19 -1.11 -2.99
Si  5.54 -7.44 -2.99
Si -9.26 -3.08 -0.12
Si -5.60 -5.19 -6.08
Si  9.21  1.14  3.03
Si -1.95  9.57 -0.12
Si  1.70  7.46 -6.08
Si  5.56  7.46  3.03
Si -1.83 -9.63  0.06
Si  1.83 -7.52  6.03
Si -1.81  1.07  9.58
Si -7.40  2.23  6.04
Si -7.40  6.44  0.08
Si  3.57 -6.26  6.67
Si  7.22  0.07  6.67
Si  7.22 -4.15 -5.27
Si  1.79  9.45 -2.19
Si  3.65  4.20 -8.14
Si -3.66  4.20 -8.14
Si  5.49 -7.37  3.62
Si -3.74 -6.26  6.67
Si  9.09 -3.21 -2.19
Si  9.15 -1.04  3.62
Si  7.30  6.31 -2.17
Si -5.52  1.01 -8.15
Si -7.31  6.31 -2.17
Si  3.57  6.40  6.67
Si -1.87 -5.32 -8.15
Si  7.31 -6.34 -2.17
Si -7.31 -6.34 -2.17
Si -9.12 -3.15 -2.35
Si  3.65  8.42  3.79
Si -9.18  3.12 -2.19
Si -3.66  8.42  3.79
Si  1.84 -9.48 -2.35
Si -7.39  0.07  6.67
Si -1.81  9.51 -2.35
Si -1.87 -9.54 -2.19
Si  1.79  1.01  9.75
Si  9.15  3.18 -2.35
Si -3.74  6.40  6.67
Si -7.39 -4.15 -5.27
Si -9.18 -1.10  3.78
Si -0.00 -2.12  9.76
Si -5.52 -7.43  3.78
Si -0.08  8.51 -5.27
Si  1.84 -5.26 -8.32
Si  5.49  1.07 -8.32
Si -7.18  4.17 -5.96
Si -7.18 -4.27  5.97
Si  0.12  8.39  5.97
Si  0.12 -8.49 -5.96
Si  7.43  4.17 -5.96
Si  7.43 -4.27  5.97
Si -5.57 -7.22 -5.14
Si -0.05 10.47  0.72
Si  3.60  8.36 -5.25
Si -3.52 -2.10  9.69
Si -3.71  8.36 -5.25
Si -9.22 -5.11  0.82
Si  0.13  4.23  9.69
Si -9.22 -0.89 -5.14
Si  3.79 -2.10  9.69
Si  9.20 -1.19 -5.23
Si  9.20 -5.41  0.74
Si  5.55 -7.52 -5.23
Si  5.36 -7.30  5.85
Si  9.01 -0.97  5.85
Si  3.56 -8.32 -5.89
Si  5.48  7.24 -5.91
Si -5.48  9.35  0.06
Si -5.40 -3.08 -8.90
Si -3.75 -8.32 -5.89
Si 10.87  0.12  0.08
Si -9.05 -5.19  3.03
Si -9.08  5.22 -2.99
Si -5.43  3.11  8.94
Si  9.13  0.92 -5.91
Si -5.43  3.11 -8.96
Si -0.04 -10.52 -2.98
Si -5.40 -3.08  9.00
Si -0.04 -6.30 -8.95
Si -0.04 -6.30  8.95
Si -5.60 -9.41 -0.12
Si -0.04  6.35 -8.95
Si  5.36  9.57 -0.12
Si -0.04  6.35  8.95
Si  5.56  3.25 -8.90
Si -0.04 10.57  2.99
Si  5.54 -3.22  8.94
Si -9.13 -1.19  6.03
Si  5.54 -3.22 -8.96
Si  9.19 -5.33  2.98
Si  9.21  5.36 -2.93
Si -11.06  0.12  0.08
Si  3.56  8.55  6.04
Si  5.56  3.25  9.00
Si  7.22 -8.37  0.70
Si  5.48 -9.63  0.06
Si  1.84 -5.26  9.58
Si -5.48 -7.52  6.03
Si 10.88 -2.04  0.70
Si  5.49  1.07  9.58
Si -3.75  8.55  6.04
Si -1.87  7.34 -8.15
Si -9.26  1.14 -6.08
Si -5.60  7.46 -6.08
Si  7.31 -2.12 -8.14
Si -7.31 -2.12 -8.14
Si -9.12  5.29  3.62
Si  9.09  5.23  3.78
Si  5.44 -5.32 -8.15
Si -5.52  9.45 -2.19
Si 10.96 -0.01 -2.17
Si -10.96 -0.01 -2.17
Si -7.39 -8.37  0.70
Si -5.47 -9.48 -2.35
Si  5.44 -9.54 -2.19
Si  3.57 10.62  0.70
Si -0.00 -10.56  3.79
Si  5.49  9.51 -2.35
Si -0.08  0.07 -11.23
Si  3.65  4.21  9.76
Si -3.66  4.21  9.76
Si -5.52  1.01  9.75
Si -11.05 -2.04  0.70
Si -5.47 -5.26 -8.32
Si -1.87 -5.32  9.75
Si -3.74 10.62  0.70
Si  1.84  7.40 -8.32
Si -3.60  6.28  8.87
Si -7.25 -0.05  8.87
Si -3.60 10.50  2.91
Si  3.71  6.28  8.87
Si -10.91 -2.16  2.91
Si -3.60 -6.38  8.87
Si -7.25  8.39 -3.06
Si  3.71 10.50  2.91
Si -10.91  2.06 -3.06
Si  7.36 -0.05  8.87
Si -7.25 -8.49  2.91
Si  3.71 -6.38  8.87
Si -3.60  6.28 -9.03
Si  7.36  8.39 -3.06
Si -7.25 -0.05 -9.03
Si 11.02 -2.16  2.91
Si  1.74 -11.44  0.82
Si -3.60 -10.60 -3.06
Si  7.36 -8.49  2.91
Si  3.71  6.28 -9.03
Si 11.02  2.06 -3.06
Si -3.60 -6.38 -9.03
Si  3.71 -10.60 -3.06
Si  1.74 -3.00 -11.11
Si -1.76  9.36  6.71
Si -10.83  2.12  3.73
Si  7.36 -0.05 -9.03
Si  3.71 -6.38 -9.03
Si -9.07  5.14 -5.23
Si  7.25  6.25  6.68
Si 10.91  4.14  0.72
Si -7.18  4.23 -8.21
Si -7.18  8.45  3.73
Si -1.91 -9.33  6.79
Si  9.05 -3.00  6.79
Si -3.52 -10.54  3.73
Si  9.20  7.25  0.74
Si  9.05  5.44 -5.14
Si -7.36  6.25  6.68
Si  1.89  3.03 -11.19
Si -9.07 -3.30  6.71
Si -1.91  3.33 -11.11
Si  7.25 -6.40  6.68
Si  0.13 -8.43 -8.21
Si  9.20  3.03  6.71
Si  3.60 -0.08 -11.22
Si -11.01  4.14  0.72
Si  3.79 -10.54  3.73
Si -1.76 -3.30 -11.19
Si -3.71 -0.08 -11.22
Si -7.36 -6.40  6.68
Si -0.05 -10.62 -5.25
Si  7.44  4.23 -8.21
Si  7.44  8.45  3.73
Si  1.89 -9.63  6.71
Si -1.76 -11.74  0.74
Si 11.09  2.12  3.73
Si -9.22  3.33  6.79
Si  1.74  9.66  6.79
Si -9.22  7.55  0.82
Si -1.95  1.14 11.82
Si  9.01 -5.19 -6.08
Si -0.10 -10.43  6.04
Si -0.10  2.23 -11.86
Si  1.91 -11.52  3.03
Si -1.83 -1.19 -11.87
Si 10.92 -4.20 -2.98
Si  1.88 11.55 -2.99
Si  9.13  5.14  6.03
Si 10.92  4.24  2.99
Si -9.08 -7.44 -2.99
Si  9.21 -7.30 -2.93
Si -9.05  7.46  3.03
Si  9.19  7.33  2.98
Si -11.00 -4.20 -2.98
Si -9.13 -5.41 -5.91
Si -1.77 -11.65  2.98
Si -11.00  4.24  2.99
Si  1.83  0.92 11.99
Si -1.75 11.68 -2.93
Si -0.10 -1.99 12.01
Si -0.10 10.66 -5.89
Si -9.26  5.36  5.85
Si  1.71 -0.97 -12.05
Si -5.47 -5.26  9.58
Si  5.44  7.34 -8.15
Si  1.84  7.40  9.58
Si  9.09  1.01 -8.15
Si  3.57 -10.48 -5.27
Si -9.12 -7.37  3.62
Si 10.88  2.18 -5.27
Si  3.65 -8.45 -8.14
Si -3.66 -8.45 -8.14
Si -1.87 11.56  3.78
Si  1.84 11.62  3.62
Si -3.74 -10.48 -5.27
Si  9.09 -7.43  3.78
Si  7.22  8.51 -5.27
Si -1.87  7.34  9.75
Si 10.96 -4.23  3.79
Si -10.96 -4.23  3.79
Si  5.44 -5.32  9.75
Si  7.30 -2.12  9.76
Si -7.31 -2.12  9.76
Si -9.12  1.07 -8.32
Si -5.47  7.40 -8.32
Si -11.05  2.18 -5.27
Si -7.39  8.51 -5.27
Si -10.84  6.28  0.01
Si -10.84  2.06  5.97
Si -7.18  8.39  5.97
Si -10.84 -2.16 -5.96
Si -3.53 10.49 -5.96
Si -10.84 -6.38  0.01
Si  0.12 12.60  0.01
Si -3.53  2.06 -11.93
Si -7.18 -8.49 -5.96
Si -3.53 -2.16 11.94
Si  3.78 10.49 -5.96
Si  0.12  4.17 11.94
Si  9.05 -7.22 -5.14
Si  0.12 -4.27 -11.93
Si -3.53 -10.60  5.97
Si  3.78  2.06 -11.93
Si  7.43  8.39  5.97
Si  0.12 -12.71  0.01
Si  3.78 -2.16 11.94
Si -10.83 -6.32 -2.24
Si  5.39 -9.33  6.79
Si 11.08  6.28  0.01
Si  3.78 -10.60  5.97
Si  1.89 11.47 -5.23
Si -10.83  6.34 -2.24
Si -5.57 -11.44  0.82
Si  7.25 10.47  0.72
Si 11.08  2.06  5.97
Si  7.43 -8.49 -5.96
Si 11.08 -2.16 -5.96
Si  5.55  9.36  6.71
Si -7.18  4.23  9.69
Si -5.57 -3.00 -11.11
Si 11.08 -6.38  0.01
Si  5.39  3.33 -11.11
