500
set: 1111.00  0.00  0.00
Si -0.48  1.05 -0.88
Si  0.40 -1.18  0.78
Si  1.22  1.12  0.84
Si -1.41 -1.24 -0.87
Si -0.82  0.01  2.39
Si -2.15  1.11  0.79
Si  0.96  0.03 -2.39
Si  2.19 -1.19 -0.77
Si  2.98  1.16 -0.76
Si  0.03 -2.22 -2.43
Si -3.06 -1.19  0.84
Si  0.12  2.33  2.47
Si  0.36  3.36 -0.87
Si  2.63  0.12  2.42
Si -2.64  0.01 -2.42
Si -0.55 -3.49  0.84
Si  1.74 -2.23  2.38
Si  1.21 -3.45 -0.76
Si -1.65 -2.27  2.47
Si -1.29  3.41  0.84
Si -1.71  2.32 -2.40
Si  1.79  2.39 -2.43
Si -0.77  0.03 -3.96
Si  3.84 -1.19  0.84
Si  0.91  0.08  4.01
Si  2.16  3.42  0.78
Si -3.92  1.16 -0.76
Si -2.24 -3.56 -0.88
Si -2.94  3.41 -0.77
Si  0.08 -2.27  4.05
Si  0.06  2.31 -4.05
Si  2.99 -3.49  0.79
Si  3.42 -2.29 -2.40
Si -3.39  2.38  2.38
Si -2.59  0.01  4.04
Si -3.48 -2.29 -2.40
Si  2.62  0.08 -4.06
Si  3.50  2.38  2.38
Si  1.75 -2.18 -4.02
Si  4.26  0.01 -2.42
Si -4.26  0.12  2.42
Si -4.71 -1.19 -0.77
Si  4.75  1.11  0.79
Si -1.75  2.31  4.02
Si -1.71 -2.29 -4.05
Si  1.85  2.33  4.05
Si  0.87 -4.48  2.42
Si -0.80 -4.57 -2.39
Si  3.95  3.41 -0.77
Si -0.87  4.61 -2.42
Si  0.94  4.61  2.39
Si -3.91 -3.49  0.79
Si  5.49 -1.24 -0.87
Si -0.52  1.06  5.57
Si  0.34 -1.18 -5.59
Si  3.38 -2.30  4.02
Si  2.49 -4.60 -2.42
Si -0.38  5.72  0.79
Si -3.38  2.43 -4.02
Si -2.59 -4.60  2.39
Si -3.52 -2.30  4.02
Si -5.67  1.12  0.84
Si -1.36 -1.26  5.56
Si  1.28  5.65 -0.88
Si  0.42 -5.80 -0.77
Si  3.51  2.43 -4.02
Si -2.50  4.73  2.42
Si  2.73  4.64 -2.39
Si -4.73  3.42  0.78
Si -4.28  0.08 -4.06
Si  4.30  0.01  4.04
Si  1.28  1.12 -5.66
Si  4.65 -3.56 -0.88
Si -1.37 -5.79  0.78
Si -5.16 -2.23  2.38
Si -0.85 -4.52  4.01
Si -2.18  1.11 -5.59
Si -5.10  2.39 -2.43
Si  0.85 -4.53 -4.06
Si  2.10 -1.15  5.67
Si  5.18  2.32 -2.40
Si  0.99  4.64 -3.96
Si -0.83  4.62  4.04
Si -2.15  5.76 -0.76
Si  2.07 -5.80  0.84
Si  5.25 -2.27  2.47
Si -5.93  0.03 -2.39
Si  0.41  3.35  5.56
Si  2.98  5.72  0.84
Si -3.03 -1.19 -5.65
Si  6.07  0.01  2.39
Si  3.07  1.11  5.67
Si  6.42  1.05 -0.88
Si -2.53 -4.57 -3.96
Si  5.60  3.41  0.84
Si  2.54 -4.59  4.04
Si -6.50 -1.18  0.78
Si -0.49 -3.48 -5.66
Si -4.17  4.64 -2.39
Si -2.51  4.68 -4.06
Si -5.68 -3.45 -0.76
Si -3.17 -5.85 -0.87
Si -1.26  3.42 -5.65
Si  2.68  4.69  4.01
Si  4.31 -4.60  2.39
Si  1.31 -3.50  5.67
Si -4.40 -4.60 -2.42
Si -5.05  2.33  4.05
Si -5.14 -2.18 -4.02
Si  2.10  3.42 -5.59
Si  4.40  4.73  2.42
Si  5.14  2.31  4.02
Si -3.82  1.11  5.67
Si  3.87 -1.19 -5.65
Si  5.19 -2.29 -4.05
Si -3.91  5.72  0.84
Si  3.72 -5.85 -0.87
Si -2.29 -3.55  5.57
Si -5.98  0.08  4.01
Si  2.95 -3.49 -5.59
Si -0.03 -6.83  2.38
Si  6.35 -3.49  0.84
Si  6.12  0.03 -3.96
Si -3.03  3.46  5.67
Si  0.05  6.92 -2.40
Si  0.34 -1.19  7.28
Si -0.53  1.06 -7.31
Si  4.72  1.11 -5.59
Si -6.54  3.36 -0.87
Si  1.28  1.12  7.21
Si  7.29 -1.18  0.78
Si -1.74 -6.82 -2.43
Si  4.36 -4.57 -3.96
Si -4.22  4.69  4.01
Si  1.65 -6.89 -2.40
Si -7.37  1.05 -0.88
Si  4.74  5.76 -0.76
Si -4.36 -4.59  4.04
Si -4.80 -1.15  5.67
Si -1.36 -1.25 -7.32
Si -1.63  6.98  2.38
Si -6.78  2.33  2.47
Si  2.09 -1.14 -7.20
Si -4.82 -5.80  0.84
Si  4.38  4.68 -4.06
Si  1.88  6.94  2.47
Si -6.87 -2.22 -2.43
Si  6.92 -2.22 -2.43
Si -2.17  1.11  7.28
Si -3.94 -3.49 -5.59
Si  3.86  3.46  5.67
Si  7.01  2.33  2.47
Si -0.01 -6.78 -4.02
Si -6.03 -4.48  2.42
Si -5.95  4.61  2.39
Si  3.07  1.11 -7.21
Si -3.02 -1.19  7.23
Si  5.54 -1.26  5.56
Si  6.02  4.61 -2.42
Si  6.09 -4.57 -2.39
Si  0.01  6.91  4.02
Si -0.41  5.72 -5.59
Si -5.61  5.65 -0.88
Si -0.48 -3.49  7.21
Si  5.53 -5.79  0.78
Si  7.25  3.36 -0.87
Si  1.24  5.67  5.57
Si  4.61 -3.55  5.57
Si -5.62  1.12 -5.66
Si  0.40  3.35 -7.32
Si -3.41 -6.88  2.47
Si  0.47  8.02  0.84
Si -7.72  0.01  2.39
Si  0.33 -5.75  5.67
Si -1.26  3.42  7.23
Si  3.48 -6.88  2.47
Si -0.55 -8.05 -0.76
Si  1.30 -3.50 -7.21
Si -3.34  6.99 -2.43
Si -4.79  3.42 -5.59
Si -1.18  8.02 -0.77
Si  1.61 -6.90  4.02
Si -1.68 -6.88  4.05
Si -1.43 -5.79 -5.59
Si  3.56  6.99 -2.43
Si  7.86  0.03 -2.39
Si  1.82  6.92 -4.05
Si  1.22 -8.10  0.79
Si  8.11  1.12  0.84
Si -3.83  1.11 -7.21
Si -6.81 -2.27  4.05
Si -7.44 -3.49  0.84
Si -1.62  7.03 -4.02
Si -6.84  2.31 -4.05
Si  3.87 -1.19  7.23
Si  2.12  7.97 -0.87
Si -2.06  5.71  5.67
Si  2.10  3.42  7.28
Si  2.10 -5.79 -5.65
Si  6.95  2.31 -4.05
Si  6.98 -2.27  4.05
Si -2.29 -3.54 -7.31
Si -8.30 -1.24 -0.87
Si -2.31 -8.09  0.84
Si -5.90  4.64 -3.96
Si  6.37  1.06  5.57
Si  6.04 -4.52  4.01
Si -3.04  3.46 -7.20
Si -6.04 -4.53 -4.06
Si -2.97  8.03  0.78
Si  2.96 -3.50  7.28
Si  3.04  5.73 -5.66
Si -7.66  0.03 -3.96
Si  6.07  4.62  4.04
Si -3.12 -5.86  5.56
Si  5.63  3.42 -5.65
Si -3.28  6.94  4.05
Si -5.59 -3.50  5.67
Si  3.42 -6.90 -4.05
Si -6.56 -1.18 -5.59
Si  2.89 -8.16 -0.88
Si  6.51  5.72  0.79
Si -3.47 -6.90 -4.05
Si -6.47 -5.80 -0.77
Si -4.80 -1.14 -7.20
Si  4.72  1.11  7.28
Si  7.81  0.08  4.01
Si  3.61  6.94  4.05
Si  8.11 -3.45 -0.76
Si  3.86  3.46 -7.20
Si  5.16 -6.82 -2.43
Si -8.19  3.41  0.84
Si -5.01  6.94  2.47
Si  3.77 -5.86  5.56
Si  0.91  0.09 -8.87
Si -3.85  5.73 -5.66
Si -0.76  0.03  8.91
Si  3.93  8.03  0.78
Si -5.24 -6.89 -2.40
Si -3.94 -3.50  7.28
Si  5.27  6.98  2.38
Si  0.08 -2.27 -8.83
Si  0.06  2.31  8.83
Si -4.01 -8.16 -0.88
Si -9.04  1.11  0.79
Si -6.49  3.35  5.56
Si -8.54 -2.27  2.47
Si  9.08 -1.19 -0.77
Si  2.62  0.07  8.82
Si -2.60  0.02 -8.83
Si -5.61  1.12  7.21
Si  7.23 -1.18 -5.59
Si  0.33 -5.75 -7.20
Si  8.63 -2.23  2.38
Si -8.61  2.32 -2.40
Si  6.41 -3.48 -5.66
Si  5.53 -1.25 -7.32
Si -7.70 -4.57 -2.39
Si -0.41  5.71  7.28
Si -1.70 -2.30  8.83
Si  7.76 -4.48  2.42
Si -7.28  5.72  0.79
Si  1.75 -2.18  8.86
Si  1.84  2.34 -8.83
Si -1.76  2.31 -8.86
Si  1.24  5.67 -7.31
Si -4.77  7.97 -0.87
Si  8.69  2.39 -2.43
Si  4.60 -3.54 -7.31
Si -7.42  1.06  5.57
Si  4.59 -8.09  0.84
Si -7.77  4.61 -2.42
Si -4.79  3.42  7.28
Si  7.32 -5.80 -0.77
Si  4.84  5.71  5.67
Si  7.83  4.61  2.39
Si -4.79 -5.79 -5.65
Si -1.42 -5.79  7.28
Si -2.06  5.72 -7.21
Si -0.90 -9.09  2.42
Si -5.08  6.92 -4.05
Si  2.11 -5.80  7.23
Si  5.21 -6.88  4.05
Si  0.73 -9.21 -2.42
Si  0.89  9.22 -2.42
Si -5.28 -6.90  4.02
Si  5.28  7.03 -4.02
Si -0.73  9.34  2.42
Si  3.05  5.72  7.21
Si  9.06  3.42  0.78
Si  5.46 -5.79 -5.59
Si  6.37  1.06 -7.31
Si -5.65  5.67  5.57
Si  3.37 -2.30 -8.86
Si  7.30  3.35  5.56
Si -5.59 -3.50 -7.21
Si  8.64 -2.18 -4.02
Si -8.60 -2.29 -4.05
Si  5.63  3.42  7.23
Si -3.38  2.43  8.86
Si -4.27  0.07  8.82
Si -3.52 -2.30 -8.86
Si -8.65  2.31  4.02
Si  0.50  8.02 -5.65
Si  4.30  0.02 -8.83
Si -7.75 -4.52  4.01
Si -2.57 -9.18 -2.39
Si  9.53  0.12  2.42
Si -9.53  0.01 -2.42
Si  3.52  2.43  8.86
Si  2.54 -9.20  2.39
Si -2.40  9.24 -2.39
Si -9.14 -3.56 -0.88
Si  7.75 -4.53 -4.06
Si -7.72  4.62  4.04
Si -6.55 -1.19  7.28
Si  5.72  8.02 -0.77
Si -3.13 -5.86 -7.32
Si -0.46 -8.10  5.67
Si  2.71  9.22  2.39
Si  8.74  2.33  4.05
Si  1.19 -8.10 -5.59
Si -5.67 -8.10  0.79
Si -7.38 -3.48 -5.66
Si -1.27  8.06  5.67
Si  2.17  7.95  5.56
Si  0.86 -4.53  8.82
Si  9.87  1.16 -0.76
Si  7.89  4.64 -3.96
Si  6.87 -6.83  2.38
Si  8.18  5.65 -0.88
Si -3.85  5.72  7.21
Si -0.86 -4.52 -8.87
Si  8.17  1.12 -5.66
Si -0.83  4.62 -8.83
Si -6.92 -6.83  2.38
Si -6.84  6.92 -2.40
Si -8.25 -1.26  5.56
Si -0.91 -9.13 -4.06
Si -9.95 -1.19  0.84
Si  0.77 -9.20  4.04
Si  1.00  4.63  8.91
Si  6.95  6.92 -2.40
Si  3.77 -5.86 -7.32
Si  0.94  9.22  4.04
Si -8.26 -5.79  0.78
Si -2.25 -8.09 -5.66
Si -0.75  9.29 -4.06
Si -3.03  8.03 -5.59
Si  6.41 -3.49  7.21
Si  2.53 -4.59 -8.83
Si  2.84 -8.15  5.57
Si  6.34 -8.05 -0.76
Si -2.51  4.68  8.82
Si  6.48  5.72 -5.59
Si -2.62 -9.13  4.01
Si -6.42  8.02  0.84
Si -9.49  0.01  4.04
Si  2.60 -9.18 -3.96
Si -2.53 -4.58  8.91
Si  7.24 -1.19  7.28
Si -6.50  3.35 -7.32
Si  9.51  0.08 -4.06
Si  2.67  4.69 -8.87
Si  4.83  5.72 -7.21
Si -0.39 10.37 -0.76
Si -4.19  9.22  2.39
Si -6.56 -5.75  5.67
Si -2.45  9.29  4.01
Si  4.33 -9.18 -2.39
Si  2.76  9.24 -3.96
Si -4.79 -5.80  7.23
Si -5.05  2.34 -8.83
Si  0.31 -10.40  0.84
Si -9.84  3.41 -0.77
Si  1.38 10.32  0.79
Si -4.35 -9.20  2.39
Si  6.88 -6.78 -4.02
Si -7.42  1.06 -7.31
Si -5.14 -2.18  8.86
Si -6.91 -6.78 -4.02
Si -8.16  3.42 -5.65
Si  5.14  2.31 -8.86
Si  5.19 -2.30  8.83
Si  9.88 -3.49  0.79
Si -0.83  0.01 -10.48
Si -1.34 -10.40 -0.77
Si  3.86  8.03 -5.59
Si  0.97  0.03 10.49
Si -6.88  6.91  4.02
Si  4.49  9.24 -2.39
Si  8.20 -3.50  5.67
Si  6.91  6.91  4.02
Si -2.15 10.33  0.84
Si  0.11  2.34 -10.40
Si  1.96 -10.45 -0.87
Si -4.05 -8.15  5.57
Si  0.03 -2.22 10.45
Si  8.99 -1.15  5.67
Si -5.99  0.09 -8.87
Si  8.97 -5.80  0.84
Si -9.07  1.11 -5.59
Si  9.39 -4.60 -2.42
Si  3.05 10.26 -0.88
Si -9.05  5.76 -0.76
Si -1.65 -2.27 -10.40
Si -2.63  0.00 10.46
Si  2.63  0.13 -10.46
Si -9.39  4.73  2.42
Si -4.72  7.95  5.56
Si  5.47 -5.79  7.28
Si -9.48 -4.60  2.39
Si  0.51  8.02  7.23
Si  6.13  0.03  8.91
Si -10.29  2.38  2.38
Si 10.31 -2.29 -2.40
Si 10.73 -1.19  0.84
Si -7.31  5.72 -5.59
Si -5.66  5.67 -7.31
Si  7.23 -5.75  5.67
Si  4.28 -9.13  4.01
Si -0.46 -8.10 -7.21
Si  7.29  3.35 -7.32
Si  1.80  2.38 10.45
Si -1.71  2.32 10.48
Si -4.36 -4.59 -8.83
Si  1.73 -2.23 -10.50
Si -4.13  9.24 -3.96
Si -3.13 -10.39  0.78
Si -4.30 -9.18 -3.96
Si -4.22  4.69 -8.87
Si -1.27  8.07 -7.20
Si -10.37 -2.29 -2.40
Si -7.38 -3.49  7.21
Si -10.81  1.16 -0.76
Si  4.39  4.68  8.82
Si  4.64 -8.09 -5.66
Si  7.37  8.02  0.84
Si 10.40  2.38  2.38
Si  4.37 -4.58  8.91
Si  9.62  4.64 -2.39
Si  1.19 -8.10  7.28
Si  8.18  1.12  7.21
Si -3.85 10.26 -0.88
Si -7.45 -8.05 -0.76
Si  2.16  7.96 -7.32
Si  4.44  9.29  4.01
Si -2.25 -8.09  7.21
Si  3.76 -10.39  0.78
Si -8.26 -1.25 -7.32
Si  8.99  3.42 -5.59
Si  6.00 -9.09  2.42
Si -0.01 -6.78  8.86
Si -9.43 -4.57 -3.96
Si  0.01  6.92 -8.86
Si  8.55 -6.89 -2.40
Si  9.43 -4.59  4.04
Si -3.03  8.02  7.28
Si  3.42 -2.29 10.48
Si -6.00  9.22 -2.42
Si -9.41  4.68 -4.06
Si -8.63 -6.82 -2.43
Si 10.27 -2.30  4.02
Si -8.52  6.98  2.38
Si -3.47 -2.29 10.48
Si -3.40  2.38 -10.50
Si  4.26  0.00 10.46
Si -4.27  0.13 -10.46
Si -10.28  2.43 -4.02
Si  6.49  5.71  7.28
Si  2.84 -8.15 -7.31
Si -9.18 -3.55  5.57
Si -1.69 -6.87 -8.83
Si -6.57 -5.75 -7.20
Si  3.50  2.38 -10.50
Si -6.17 -9.21 -2.42
Si  1.61 -6.90 -8.86
Si  5.63  8.06  5.67
Si  1.82  6.91  8.83
Si  8.14  5.67  5.57
Si -5.71 -8.10 -5.59
Si -6.82 -2.27 -8.83
Si -10.80 -3.49  0.79
Si  9.57  4.69  4.01
Si -10.41 -2.30  4.02
Si 10.85  3.41 -0.77
Si  4.75 10.33  0.84
Si -6.83  2.31  8.83
Si -8.07  8.02 -0.77
Si  0.86 -4.48 -10.46
Si 11.15  0.01 -2.42
Si -11.15  0.12  2.42
Si 10.41  2.43 -4.02
Si -8.15  3.42  7.23
Si -1.61  7.03  8.86
Si  6.16  9.34  2.42
Si  9.88  5.72  0.84
Si  8.78  6.94  2.47
Si -0.87  4.61 10.46
Si  8.20 -3.50 -7.21
