500
set: 178.00  0.00  0.00
Si  0.04 -0.02 -0.00
Si  0.04 -2.19  0.77
Si  0.01  0.01 -2.33
Si -1.90  1.11  0.79
Si  1.91  1.11  0.81
Si -1.89  3.29 -0.00
Si  1.90  3.29  0.00
Si -1.92  1.08  3.11
Si  0.02  2.22 -3.10
Si -3.82  0.01 -0.01
Si -1.91 -1.12 -3.12
Si  1.89  1.11  3.15
Si  0.00 -2.17  3.17
Si -1.95 -3.31 -0.01
Si  1.91 -3.33 -0.04
Si  3.85  0.00 -0.00
Si  1.94 -1.10 -3.15
Si  1.91 -3.29 -2.34
Si -1.88 -3.30 -2.35
Si  3.80  0.02 -2.35
Si -3.84 -2.16  0.80
Si  0.01  2.22  3.89
Si -3.81 -0.02 -2.35
Si  3.81 -2.21  0.80
Si -1.91  3.32 -2.34
Si -1.92 -1.11  3.90
Si  1.88  3.32 -2.38
Si  0.00  4.43  0.78
Si  1.91 -1.11  3.92
Si  0.02 -4.41 -3.11
Si -3.81 -2.20  3.13
Si -3.82  2.20 -3.12
Si  3.81 -2.21  3.12
Si  3.81  2.21 -3.16
Si  0.01  4.42  3.16
Si  3.80  4.39  0.79
Si -3.79  4.40  0.77
Si  0.01 -4.39  3.90
Si  1.86 -1.10 -5.46
Si  3.83  2.21  3.88
Si  5.73  1.11  0.80
Si -5.74  1.11  0.80
Si  0.01  2.23 -5.46
Si -1.90 -1.10 -5.48
Si  1.94 -5.53  0.77
Si -1.93 -5.54  0.79
Si -3.87  2.21  3.90
Si -0.04  2.17  6.20
Si -1.94  1.10 -6.19
Si  5.71  1.11  3.09
Si -1.93 -1.07  6.22
Si  5.71  3.30 -0.01
Si  3.81 -4.38 -3.15
Si -3.84  4.38  3.11
Si -0.01  6.60  0.01
Si  1.93  5.49 -3.12
Si  5.69 -1.14 -3.16
Si  1.89  1.07 -6.25
Si  5.72 -3.33  0.01
Si  3.79  4.41  3.17
Si -3.80 -4.43 -3.12
Si  1.93 -1.13  6.24
Si -5.76  1.11  3.09
Si -0.02 -6.63 -0.01
Si -5.75  3.30 -0.01
Si -5.74 -3.33  0.01
Si  1.89 -5.55  3.11
Si -0.03 -2.20 -6.27
Si -1.94 -5.52  3.17
Si -1.93  5.55 -3.15
Si -5.77 -1.14 -3.16
Si -1.90  5.49  3.88
Si -5.73  3.29 -2.32
Si  0.02 -0.00  7.00
Si -5.71 -3.31 -2.35
Si  5.74  3.29 -2.32
Si  0.01 -4.40 -5.45
Si -3.82 -4.39  3.91
Si -3.82  2.22 -5.45
Si -5.73 -1.09  3.91
Si  0.02  6.62 -2.35
Si  5.74 -1.09  3.91
Si  3.83 -4.43  3.88
Si  3.83  2.18 -5.48
Si  0.01 -6.64 -2.32
Si  1.91  5.53  3.91
Si  5.75 -3.31 -2.35
Si -3.79  2.21  6.21
Si -7.61  0.00 -0.00
Si -3.82  6.60 -0.04
Si  3.78  6.62 -0.01
Si  0.00  4.45 -6.19
Si -3.84 -2.20 -6.21
Si  3.82  2.19  6.24
Si  7.64  0.01 -0.01
Si  0.02 -4.40  6.26
Si  3.82 -2.23 -6.25
Si -3.83 -6.63  0.00
Si  3.84 -6.63 -0.00
Si  1.88 -3.30  6.98
Si  7.63 -2.16  0.80
Si  1.91  5.51 -5.44
Si  1.92  3.29  7.01
Si -5.73 -5.50  0.78
Si  3.82 -6.61 -2.34
Si  5.73 -5.50  0.78
Si -3.82 -4.42 -5.44
Si -1.92  5.51 -5.46
Si -5.72 -1.09 -5.47
Si -1.92  7.72  0.80
Si -1.91 -3.30  7.02
Si  3.81 -4.42 -5.46
Si -3.82  0.02  7.02
Si -1.93  3.33  7.01
Si  3.85  0.01  7.01
Si  7.65 -0.02 -2.35
Si -7.65 -2.21  0.80
Si  5.75 -1.09 -5.47
Si -7.66  0.02 -2.35
Si -3.85 -6.61 -2.38
Si -3.82  6.64 -2.34
Si  3.85  6.63 -2.35
Si  1.90  7.77  0.80
Si  3.81 -4.41  6.20
Si -5.73  1.11 -6.20
Si -1.93  5.52  6.20
Si  5.74  1.11 -6.20
Si -5.71  5.52 -3.11
Si  1.91  5.50  6.24
Si -3.81  4.42 -6.23
Si -5.71 -1.10  6.25
Si  3.81  4.41 -6.24
Si  1.92 -5.51 -6.23
Si -1.92  7.72  3.12
Si  7.64  2.20 -3.12
Si -3.82 -4.42  6.24
Si -5.73 -5.50  3.16
Si -1.92 -5.52 -6.24
Si  1.92  7.72  3.13
Si -7.65 -2.21  3.12
Si  5.74 -5.50  3.16
Si  7.65 -2.20  3.13
Si  5.75  5.52 -3.11
Si  1.91 -7.73 -3.12
Si -1.93 -7.72 -3.16
Si  5.75 -1.10  6.25
Si -7.66  2.21 -3.16
Si  7.60  2.21  3.90
Si -0.00 -2.20 -8.56
Si -7.63  2.21  3.88
Si -1.90 -7.72  3.88
Si  1.86 -7.72  3.90
Si -1.93  1.08 -8.57
Si -0.00 -8.82  0.80
Si -7.67  4.39  0.79
Si -5.72  5.54  3.90
Si  1.94  1.09 -8.59
Si  7.67  4.40  0.77
Si  5.74  5.54  3.90
Si  7.62  4.38  3.11
Si -0.04  8.79 -3.16
Si -0.03 -8.82  3.09
Si -7.66 -4.38 -3.15
Si -0.02 -0.01 -9.37
Si -0.01 -0.01  9.37
Si  7.66 -4.43 -3.12
Si -7.67  4.41  3.17
Si -3.83 -2.20 -8.55
Si  1.91 -7.70 -5.45
Si -5.69  7.74  0.77
Si  3.84 -2.20 -8.57
Si -7.63 -4.43  3.88
Si  7.64 -4.39  3.91
Si  7.64  2.22 -5.45
Si -3.83 -8.81  0.81
Si -7.63  2.18 -5.48
Si -5.73  5.52 -5.45
Si  3.84 -8.81  0.79
Si  0.01  6.60  7.04
Si  0.01 -6.61  7.03
Si  5.74  5.52 -5.45
Si -5.73  3.32  7.03
Si -9.56  1.11  0.81
Si  0.01  8.83  3.91
Si  5.74  3.32  7.03
Si  0.04  4.42 -8.59
Si  9.57  1.11  0.79
Si -5.73 -3.33  7.04
Si -1.90 -7.74 -5.48
Si  5.74 -3.33  7.04
Si  5.78  7.74  0.77
Si -5.73 -5.48 -6.19
Si  5.74 -5.48 -6.19
Si  9.51 -3.31 -0.01
Si -3.82 -0.02  9.32
Si  7.62 -2.20 -6.21
Si  3.78  0.00  9.35
Si -5.71 -7.71 -3.10
Si -9.52 -1.10 -3.15
Si  1.89  7.73 -6.21
Si  7.64  6.60 -0.04
Si  1.91 -9.91 -0.01
Si  3.82  8.81 -3.12
Si  1.94 -7.72  6.21
Si -1.92  7.70 -6.25
Si  9.55  1.08  3.11
Si -1.88 -9.93 -0.00
Si  1.91  3.32  9.35
Si -1.88 -3.31 -9.36
Si -7.62 -6.63 -0.00
Si -1.88  3.31  9.36
Si  5.75 -7.71 -3.10
Si -1.88  9.93 -0.00
Si -3.79  8.83 -3.15
Si -7.64  2.19  6.24
Si  9.55 -1.12 -3.12
Si -1.89 -3.33  9.36
Si  7.63 -6.63  0.00
Si -3.83 -0.01 -9.36
Si  1.90 -3.33  9.36
Si -9.56  3.29  0.00
Si -9.55 -3.33 -0.04
Si -5.71  5.53  6.26
Si  1.91 -3.30 -9.37
Si  3.84 -0.01 -9.36
Si  7.68  2.21  6.21
Si -1.91 -7.74  6.24
Si -3.84 -8.82  3.15
Si  1.91  9.94 -0.01
Si  9.57  3.29 -0.00
Si -7.65 -2.23 -6.25
Si  3.82 -8.85  3.11
Si -1.95  3.31 -9.38
Si -9.57  1.11  3.15
Si  1.91  3.29 -9.40
Si -7.68  6.62 -0.01
Si  5.75  5.53  6.26
Si -5.73  7.76  3.17
Si  5.74  7.76  3.17
Si  1.90 -5.47 -8.56
Si -7.61  0.01  7.01
Si  3.80 -6.60  7.01
Si  3.81  4.41 -8.56
Si -5.72 -7.71  3.89
Si  7.61 -6.61 -2.38
Si  1.92  9.91 -2.35
Si -7.61  6.63 -2.35
Si  3.81  8.81  3.90
Si -7.64 -6.61 -2.34
Si -1.93 -9.91 -2.35
Si -1.92 -5.52 -8.56
Si -3.85  6.63  6.98
Si  7.64 -4.42 -5.44
Si  9.54 -1.11  3.90
Si -9.55 -3.29 -2.34
Si  5.75 -7.71  3.89
Si  7.64  0.02  7.02
Si  0.00 -2.19 10.14
Si -5.73  1.12 -8.58
Si  5.73  1.12 -8.58
Si -3.82  8.81  3.92
Si  9.56  3.32 -2.34
Si -3.81 -6.64  7.01
Si -7.65 -4.42 -5.46
Si -3.84  4.46 -8.56
Si  3.82  6.63  7.02
Si -9.56 -1.11  3.92
Si  7.64  6.64 -2.34
Si  0.01  8.83 -5.47
Si -1.92  1.10 10.16
Si -1.93  9.94 -2.35
Si  1.90  1.15 10.16
Si  1.92 -9.95 -2.35
Si  9.58 -3.30 -2.35
Si -9.58  3.32 -2.38
Si  0.01 -8.81 -6.20
Si -7.66 -4.41  6.20
Si -7.65  4.41 -6.24
Si  7.64 -4.42  6.24
Si  7.65  4.42 -6.23
Si  0.02  8.82  6.25
Si -5.72 -7.70 -5.46
Si -9.52 -5.53  0.77
Si -3.79 -2.22 10.13
Si  5.74 -7.70 -5.46
Si  9.53 -5.54  0.79
Si  3.80 -2.23 10.15
Si -0.00 11.04  0.80
Si  3.83  8.82 -5.48
Si -3.87  8.82 -5.46
Si -0.00  4.42 10.16
Si  9.56 -1.10 -5.48
Si -9.60 -1.10 -5.46
Si  9.52  1.10 -6.19
Si -11.43 -0.02 -0.00
Si  3.79 -8.83 -6.19
Si -5.69  9.91 -0.00
Si  9.54 -1.07  6.22
Si -9.54  5.49 -3.12
Si -5.69  3.29  9.36
Si -3.80  8.80  6.24
Si  5.72  3.29 -9.35
Si -9.54 -1.13  6.24
Si  5.69 -7.76  6.20
Si  5.71 -3.32  9.35
Si -5.69 -3.33 -9.36
Si  9.52 -5.52  3.17
Si -0.02  6.61  9.35
Si  0.04  6.60 -9.36
Si -5.74  3.29 -9.35
Si -0.03 11.04  3.09
Si -5.69 -9.95 -0.00
Si -0.01 -6.63 -9.35
Si  5.77  9.91 -0.00
Si -5.75 -3.32  9.35
Si  5.71  7.72 -6.27
Si  3.81  8.86  6.22
Si  0.04 -6.64  9.36
Si  9.54  5.55 -3.15
Si  5.77  3.29  9.36
Si -9.57  1.07 -6.25
Si -5.77 -7.76  6.20
Si  5.77 -3.33 -9.36
Si -9.57 -5.55  3.11
Si -5.76  7.72 -6.27
Si  5.77 -9.95 -0.00
Si 11.50 -0.02 -0.00
Si -3.84 -8.86 -6.25
Si -0.04 -11.07 -3.16
Si -11.42 -2.19  0.77
Si -5.69  1.12 10.13
Si  7.64 -2.20 -8.55
Si -7.63 -2.20 -8.57
Si  0.01 -0.02 -11.68
Si -5.69 -5.50 -8.59
Si -7.63 -8.81  0.79
Si  1.91  7.73 -8.55
Si -5.73 -9.92 -2.33
Si  7.64 -8.81  0.81
Si -11.46  0.01 -2.33
Si  9.56  5.49  3.88
Si  0.01 -11.02  3.91
Si  5.74 -9.92 -2.33
Si -1.90  7.73 -8.57
Si -5.73  9.94 -2.33
Si -1.90 -5.50 10.15
Si 11.47  0.01 -2.33
Si  5.74  9.94 -2.33
Si  5.78  1.12 10.13
Si -3.83 11.04  0.81
Si -9.56  5.53  3.91
Si  3.84 11.04  0.79
Si  3.84  4.42 10.15
Si  1.91 -5.50 10.17
Si  5.78 -5.50 -8.59
Si -3.83  4.42 10.17
Si 11.51 -2.19  0.77
Si  7.64 -0.02  9.32
Si  3.82 11.01  3.11
Si -11.44  2.22 -3.10
Si -3.82 -6.61  9.35
Si -7.62 -0.01 -9.36
Si  7.62 -8.82  3.15
Si  7.63 -0.01 -9.36
Si -7.64  8.81 -3.12
Si -3.79 -11.03 -3.15
Si -3.83  6.60  9.36
Si  3.84  6.60  9.36
Si  3.78 -6.62 -9.38
Si -11.46 -2.17  3.17
Si  3.85 -6.62  9.36
Si 11.47 -2.17  3.17
Si  3.85  6.62 -9.36
Si  3.82 -11.04 -3.12
Si -7.68  0.00  9.35
Si -7.65 -8.85  3.11
Si 11.48  2.22 -3.10
Si -3.82  6.63 -9.37
Si -3.84 11.04  3.15
Si  7.68  8.83 -3.15
Si -3.82 -6.64 -9.40
Si  1.90 -12.09  0.80
Si  7.61  6.63  6.98
Si  1.91 -9.90  7.02
Si -1.88 -9.92  7.01
Si -11.45  2.22  3.89
Si -9.55  3.29  7.01
Si  9.54  5.51 -5.46
Si  9.54  3.33  7.01
Si  0.00 -8.81 -8.58
Si -9.56  5.51 -5.44
Si -7.65  4.41 -8.56
Si  9.55  7.72  0.80
Si  7.63  4.46 -8.56
Si  0.01 -11.02 -5.47
Si  3.82  0.01 -11.70
Si  7.64  8.81  3.92
Si -7.66 -6.60  7.01
Si -9.58 -3.30  6.98
Si -7.65  8.81  3.90
Si -1.88  9.94  7.01
Si  9.56 -3.30  7.02
Si -1.88  3.32 -11.71
Si -1.93 -3.29 -11.71
Si -11.46  4.43  0.78
Si 11.46  4.43  0.78
Si  3.81 -11.04  3.90
Si  1.91  3.33 -11.70
Si -7.64  6.63  7.02
Si -1.92 -12.14  0.80
Si 11.48  2.22  3.89
Si  7.65 -6.64  7.01
Si  1.92 -3.33 -11.71
Si -3.82 -11.04  3.92
Si  1.91  9.95  7.02
Si -9.57  7.77  0.80
Si -3.85  0.01 -11.74
Si  9.54  5.52  6.20
Si -11.44 -4.41 -3.11
Si -9.54 -5.51 -6.23
Si  0.02  2.21 -12.47
Si  1.91 12.12 -3.12
Si  9.55  7.72  3.12
Si -9.55  5.50  6.24
Si  0.01 11.04 -6.20
Si -9.54  7.72  3.13
Si  9.55 -5.52 -6.24
Si  9.54 -7.72 -3.16
Si  1.92 -12.13  3.13
Si -1.92  1.10 12.48
Si  0.02 -11.03  6.25
Si  1.91 -1.11 -12.48
Si -9.55 -7.73 -3.12
Si -1.92 -12.14  3.12
Si -11.46  4.42  3.16
Si  1.92  1.11 12.49
Si -1.93 12.14 -3.16
Si 11.49 -4.41 -3.11
Si 11.47  4.42  3.16
Si  0.01 -2.19 12.52
Si -1.93 -1.10 -12.52
Si  7.60  8.82 -5.46
Si  9.53  1.08 -8.57
Si -11.45 -4.39  3.90
Si -9.52  1.09 -8.59
Si  5.73  7.73 -8.56
Si  1.94  7.71 10.13
Si -1.90 12.13  3.88
Si -5.74  7.73 -8.56
Si -11.45  2.23 -5.46
Si  1.86 12.13  3.90
Si -1.93  7.70 10.15
Si 11.48 -4.39  3.90
Si  9.56 -7.72  3.88
Si -7.63  8.82 -5.48
Si  3.80 -8.85 -8.57
Si -3.79 -8.84 -8.59
Si  5.73 -5.51 10.16
Si  3.83 -11.03 -5.48
Si -3.87 -11.03 -5.46
Si -5.74 -5.51 10.16
Si  7.67 -2.22 10.13
Si 11.48  2.23 -5.46
Si -7.67 -2.23 10.15
Si -9.60 -7.72  3.90
Si 11.43  2.17  6.20
Si  3.81 -11.00  6.22
Si  3.79 11.03 -6.19
Si -0.03  4.42 12.45
Si -3.84 10.99 -6.25
Si 11.46  6.60  0.01
Si 11.44 -6.63 -0.01
Si -0.02 13.23 -0.01
Si 11.44 -2.20 -6.27
Si -3.80  2.18 -12.48
Si  7.66  8.80  6.24
Si -7.67 -8.83 -6.19
Si -11.47  6.60  0.01
Si -3.84 -2.24 12.47
Si -11.50  2.17  6.20
Si -3.80 -11.05  6.24
Si -0.01 -13.25  0.01
Si  7.62 -8.86 -6.25
Si -7.66  8.86  6.22
Si -11.48 -6.63 -0.01
Si  3.81  2.24 -12.51
Si -11.49 -2.20 -6.27
Si  3.79 -2.21 12.53
Si -0.04 -4.45 -12.52
Si -5.69 -12.12  0.77
Si -11.44 -0.00  7.00
Si  0.01 13.22 -2.32
Si -5.71  9.93  7.00
Si -1.90 -1.13 13.24
Si -5.71 -9.93  7.00
Si  0.04 -8.81 10.13
Si -11.44  6.62 -2.35
Si -1.90 12.11 -5.48
Si -13.36  1.11  0.79
Si -9.56 -7.70 -5.45
