500
set: 1175.00  0.00  0.00
Si  0.39  0.48 -1.12
Si  0.42  0.86  1.43
Si -0.89 -1.57 -0.98
Si -0.75 -1.39  1.45
Si -2.15  0.69 -1.01
Si  1.58 -1.59  1.39
Si  1.99 -1.39 -1.19
Si -2.20  0.54  1.61
Si -0.76  2.93 -1.19
Si -1.17  2.72  1.39
Si  1.64  2.75 -0.98
Si  3.13  0.69 -1.01
Si  3.08  0.54  1.61
Si  0.50  0.83 -3.52
Si  1.79  2.93  1.45
Si -3.29 -1.39 -1.19
Si  0.59 -3.62 -1.01
Si -0.67 -1.41 -3.50
Si  0.31  0.50  3.83
Si -2.12  0.52 -3.34
Si  0.55 -3.77  1.61
Si  1.66 -1.62 -3.56
Si -3.70 -1.59  1.39
Si -2.11 -3.46  1.43
Si -0.97 -1.54  3.97
Si  1.91 -1.36  3.76
Si -2.14 -3.84 -1.12
Si -2.23  0.72  3.94
Si -1.09  2.69 -3.56
Si  3.16  0.52 -3.34
Si -3.64  2.75 -0.98
Si  4.39 -1.57 -0.98
Si -3.50  2.93  1.45
Si -0.84  2.95  3.76
Si  3.17 -3.46  1.43
Si  1.86  2.91 -3.50
Si  4.54 -1.39  1.45
Si  3.05  0.72  3.94
Si -4.89  0.48 -1.12
Si  3.14 -3.84 -1.12
Si  1.56  2.77  3.97
Si  0.63 -3.80 -3.34
Si  0.38  5.01 -1.01
Si  4.12  2.72  1.39
Si  0.33  4.85  1.61
Si -4.86  0.86  1.43
Si -3.37 -1.36  3.76
Si -3.62 -1.62 -3.56
Si -2.03 -3.48 -3.52
Si  0.52 -3.60  3.94
Si -2.36  4.79 -1.12
Si  4.52  2.93 -1.19
Si -3.42  2.91 -3.50
Si  2.92  4.79 -1.12
Si  5.67  0.48 -1.12
Si -2.22 -3.81  3.83
Si -2.33  5.17  1.43
Si -0.54 -5.70 -1.19
Si  0.41  4.83 -3.34
Si  3.25 -3.48 -3.52
Si  5.70  0.86  1.43
Si  4.62 -1.41 -3.50
Si -4.78  0.83 -3.52
Si -4.69 -3.62 -1.01
Si  4.32 -1.54  3.97
Si  0.47  0.45 -6.07
Si -3.72  2.77  3.97
Si  2.95  5.17  1.43
Si  4.20  2.69 -3.56
Si -0.95 -5.91  1.39
Si -0.81 -1.59 -5.93
Si  3.06 -3.81  3.83
Si  2.00 -5.70  1.45
Si  1.86 -5.88 -0.98
Si -4.74 -3.77  1.61
Si -4.97  0.50  3.83
Si -2.08  0.67 -5.96
Si -6.03 -1.39  1.45
Si  0.30  5.03  3.94
Si -6.17 -1.57 -0.98
Si  0.34  0.88  6.38
Si  4.45  2.95  3.76
Si -0.83 -1.36  6.40
Si -2.44  4.82  3.83
Si  2.07 -1.41 -6.14
Si -2.25  5.15 -3.52
Si  1.50 -1.57  6.33
Si -3.28 -5.70  1.45
Si  1.72  2.72 -5.93
Si  2.84  4.82  3.83
Si  5.59  0.50  3.83
Si  3.21  0.67 -5.96
Si -6.04  2.93 -1.19
Si  5.78  0.83 -3.52
Si -0.68  2.90 -6.14
Si -0.62 -5.68  3.76
Si -3.42 -5.88 -0.98
Si -4.66 -3.80 -3.34
Si  3.03  5.15 -3.52
Si -2.28  0.56  6.56
Si -0.87 -5.93 -3.56
Si  5.88 -3.62 -1.01
Si -1.25  2.74  6.33
Si  0.67 -3.64 -5.96
Si  2.08 -5.72 -3.50
Si -5.95 -1.41 -3.50
Si -3.21 -1.41 -6.14
Si -4.91  5.01 -1.01
Si -4.95  4.85  1.61
Si  5.83 -3.77  1.61
Si -6.45  2.72  1.39
Si -4.77 -3.60  3.94
Si  6.87 -1.59  1.39
Si -1.11  7.06 -0.98
Si  3.00  0.56  6.56
Si  1.71  2.95  6.40
Si  1.37  7.03  1.39
Si  1.78 -5.86  3.97
Si -3.56  2.72 -5.93
Si -3.20 -5.72 -3.50
Si -0.96  7.24  1.45
Si  4.33 -5.91  1.39
Si -2.06 -3.86 -6.07
Si  7.28 -1.39 -1.19
Si  4.74 -5.70 -1.19
Si  6.93  2.75 -0.98
Si -7.44  0.69 -1.01
Si -3.78 -1.57  6.33
Si  1.77  7.24 -1.19
Si -6.25 -1.54  3.97
Si -2.19 -3.43  6.38
Si  0.47 -3.75  6.56
Si  5.61  4.85  1.61
Si  4.47 -1.59 -5.93
Si  5.66  5.01 -1.01
Si -4.87  4.83 -3.34
Si -7.49  0.54  1.61
Si -4.82  0.45 -6.07
Si -6.12  2.95  3.76
Si  5.91 -3.80 -3.34
Si -6.37  2.69 -3.56
Si  0.46  4.98 -5.96
Si  7.07  2.93  1.45
Si  3.09 -3.43  6.38
Si  5.80 -3.60  3.94
Si  3.22 -3.86 -6.07
Si -3.50 -5.86  3.97
Si -3.58  2.95  6.40
Si  4.46 -1.36  6.40
Si  0.64 -7.77  1.43
Si  6.95 -1.62 -3.56
Si  1.45  7.01 -3.56
Si  4.04  2.74  6.33
Si -2.28  4.77 -6.07
Si -0.89  7.22 -3.50
Si -4.99  5.03  3.94
Si -4.94  0.88  6.38
Si -3.51  7.24 -1.19
Si -7.41  0.52 -3.34
Si -3.92  7.03  1.39
Si  5.69  4.83 -3.34
Si  0.25  4.88  6.56
Si  4.60  2.90 -6.14
Si -1.19  7.08  3.97
Si  4.41 -5.93 -3.56
Si -1.94 -7.93 -1.01
Si  7.20 -1.36  3.76
Si -5.83 -5.70 -1.19
Si  0.61 -8.15 -1.12
Si  4.66 -5.68  3.76
Si  4.18  7.06 -0.98
Si  3.00  4.77 -6.07
Si -7.40 -3.46  1.43
Si  1.70  7.26  3.76
Si -4.61 -3.64 -5.96
Si  5.75  0.45 -6.07
Si  6.85  2.77  3.97
Si -0.46 -5.73 -6.14
Si -7.43 -3.84 -1.12
Si  7.15  2.91 -3.50
Si -1.99 -8.09  1.61
Si  5.58  5.03  3.94
Si  8.41  0.69 -1.01
Si -7.52  0.72  3.94
Si  0.58  0.81 -8.47
Si  8.36  0.54  1.61
Si  5.62  0.88  6.38
Si -2.04  0.49 -8.29
Si  4.32  7.24  1.45
Si -2.41  5.19  6.38
Si  0.72 -7.80 -3.52
Si  1.94 -5.91 -5.93
Si -0.59 -1.43 -8.45
Si -6.09 -1.59 -5.93
Si  3.35 -7.93 -1.01
Si -6.23 -5.91  1.39
Si -1.03 -5.89  6.33
Si  2.87  5.19  6.38
Si -3.84  7.01 -3.56
Si  1.93 -5.67  6.40
Si -8.58 -1.39 -1.19
Si  0.23  0.53  8.78
Si -7.32 -3.48 -3.52
Si  1.74 -1.64 -8.51
Si  3.30 -8.09  1.61
Si  3.24  0.49 -8.29
Si -3.59  7.26  3.76
Si -6.11 -1.36  6.40
Si -4.82 -3.75  6.56
Si -1.91 -8.11 -3.34
Si -1.01  2.67 -8.51
Si  0.53 -8.13  3.83
Si  1.83 -1.34  8.71
Si -3.34 -5.91 -5.93
Si -5.90 -5.68  3.76
Si -5.96  2.90 -6.14
Si -2.02 -7.91  3.94
Si -7.64  4.79 -1.12
Si  8.44  0.52 -3.34
Si  4.10  7.08  3.97
Si -1.05 -1.52  8.92
Si  1.94  2.88 -8.45
Si -4.83  4.98 -5.96
Si  4.40  7.22 -3.50
Si  0.71 -3.82 -8.29
Si -4.65 -7.77  1.43
Si  0.17  9.11 -1.12
Si  5.96 -3.64 -5.96
Si -3.36 -5.67  6.40
Si -2.31  0.74  8.89
Si -8.98 -1.59  1.39
Si  8.33  0.72  3.94
Si  8.45 -3.46  1.43
Si -7.51 -3.81  3.83
Si -0.92  2.97  8.71
Si -1.03  7.04 -5.93
Si -6.15 -5.93 -3.56
Si  7.14 -5.88 -0.98
Si -7.61  5.17  1.43
Si  8.42 -3.84 -1.12
Si  7.29 -5.70  1.45
Si -3.54 -1.64 -8.51
Si -8.78  2.93  1.45
Si -1.96 -3.50 -8.47
Si -8.92  2.75 -0.98
Si  2.97  0.74  8.89
Si  3.38 -8.11 -3.34
Si  6.79 -1.57  6.33
Si  3.27 -7.91  3.94
Si -4.68 -8.15 -1.12
Si -3.45 -1.34  8.71
Si  1.49  2.79  8.92
Si -7.36  0.67 -5.96
Si  5.75 -3.75  6.56
Si -6.53  2.74  6.33
Si -3.34  2.88 -8.45
Si -8.65 -1.36  3.76
Si  8.21  4.79 -1.12
Si  1.29  7.06  6.33
Si  7.01  2.72 -5.93
Si -6.39  7.06 -0.98
Si  0.44 -3.57  8.89
Si  0.20  9.48  1.43
Si  0.49  4.81 -8.29
Si -5.03  4.88  6.56
Si -2.42  9.17  1.61
Si  4.25 -5.89  6.33
Si  1.85  7.22 -6.14
Si  5.74  4.98 -5.96
Si -2.37  9.32 -1.01
Si -6.25  7.24  1.45
Si  4.82 -5.73 -6.14
Si  7.35 -1.41 -6.14
Si -4.57 -7.80 -3.52
Si -4.71  0.81 -8.47
Si -8.90 -1.62 -3.56
Si  2.86  9.17  1.61
Si -1.04  7.27  6.40
Si  3.33 -3.50 -8.47
Si  4.70 -1.43 -8.45
Si  6.65  7.03  1.39
Si -7.54  5.15 -3.52
Si  2.91  9.32 -1.01
Si -8.70  2.91 -3.50
Si  8.24  5.17  1.43
Si -2.30 -3.79  8.78
Si  9.68 -1.57 -0.98
Si  8.53 -3.48 -3.52
Si  5.54  4.88  6.56
Si  5.92 -7.77  1.43
Si -7.72  4.82  3.83
Si  9.40  2.72  1.39
Si  4.28  2.67 -8.51
Si  0.09  9.13  3.83
Si  6.99  2.95  6.40
Si  8.34 -3.81  3.83
Si  7.37 -5.72 -3.50
Si  4.24 -1.52  8.92
Si  7.07 -5.86  3.97
Si -2.34  9.14 -3.34
Si  2.98 -3.79  8.78
Si  9.82 -1.39  1.45
Si -7.57  0.56  6.56
Si  0.56 -7.75  6.38
Si -3.43  7.22 -6.14
Si -3.80  2.79  8.92
Si  0.28  9.46 -3.52
Si -1.86 -7.96 -5.96
Si  5.89 -8.15 -1.12
Si -6.17  7.22 -3.50
Si -0.53 -10.01  1.45
Si -2.17  5.12 -8.47
Si  4.26  7.04 -5.93
Si -5.05  0.53  8.78
Si -4.76 -8.13  3.83
Si  2.94  9.14 -3.34
Si -5.75 -5.73 -6.14
Si  7.06  7.24 -1.19
Si  4.37  2.97  8.71
Si  8.13  4.82  3.83
Si  0.69 -8.18 -6.07
Si -4.58 -3.82 -8.29
Si -9.00  2.77  3.97
Si  0.22  5.05  8.89
Si -10.18  0.48 -1.12
Si -0.67 -10.20 -0.98
Si -10.15  0.86  1.43
Si -7.35 -3.86 -6.07
Si -4.00  7.06  6.33
Si  9.81  2.93 -1.19
Si  2.21 -10.02 -1.19
Si  5.86  0.81 -8.47
Si -2.52  4.84  8.78
Si  6.73  7.01 -3.56
Si  3.11  5.12 -8.47
Si  5.51  0.53  8.78
Si -6.47  7.08  3.97
Si -8.56 -5.70  1.45
Si -5.87 -1.43 -8.45
Si  8.32  5.15 -3.52
Si  8.49  0.67 -5.96
Si  2.76  4.84  8.78
Si -7.47 -3.43  6.38
Si -0.70 -5.66  8.71
Si -0.79 -5.96 -8.51
Si -2.45  9.35  3.94
Si  2.16 -5.75 -8.45
Si  6.00 -7.80 -3.52
Si  1.80 -10.22  1.39
Si  9.48  2.69 -3.56
Si -5.11  9.11 -1.12
Si  9.60 -1.54  3.97
Si  3.42 -7.96 -5.96
Si  2.83  9.35  3.94
Si -3.08 -10.02 -1.19
Si -8.71 -5.88 -0.98
Si  4.24  7.27  6.40
Si -8.50 -1.41 -6.14
Si  8.29  0.56  6.56
Si  9.90 -1.41 -3.50
Si -2.06 -8.06  6.56
Si -0.45 -10.04 -3.50
Si -9.97 -3.62 -1.01
Si  5.46  9.11 -1.12
Si -3.12 -5.75 -8.45
Si -10.07  0.83 -3.52
Si  5.81 -8.13  3.83
Si -6.31 -5.89  6.33
Si -4.79  4.81 -8.29
Si -4.85 -3.57  8.89
Si  6.98  7.26  3.76
Si -7.22 -7.93 -1.01
Si  1.70 -5.83  8.92
Si -7.57  4.77 -6.07
Si -8.48 -5.72 -3.50
Si -10.02 -3.77  1.61
Si  9.73  2.95  3.76
Si -5.08  9.48  1.43
Si  3.22 -8.06  6.56
Si  2.13 -9.99  3.76
Si -3.48 -10.22  1.39
Si  5.99 -3.82 -8.29
Si -6.29  2.67 -8.51
Si  0.25  9.08 -6.07
Si -0.75 -10.17  3.97
Si -10.26  0.50  3.83
Si -8.84  2.72 -5.93
Si -7.27 -8.09  1.61
Si  1.88 -10.25 -3.56
Si -0.73 -1.61 -10.88
Si 10.96  0.48 -1.12
Si  0.55  0.43 -11.02
Si -6.33 -1.52  8.92
Si  5.49  9.48  1.43
Si  7.22 -5.91 -5.93
Si  8.38 -3.43  6.38
Si -7.33  0.49 -8.29
Si -4.72 -7.75  6.38
Si -6.20  2.97  8.71
Si -2.00  0.65 -10.91
Si 10.99  0.86  1.43
Si  1.52  6.99 -8.51
Si -0.81  7.20 -8.45
Si -3.15 -9.99  3.76
Si  8.50 -3.86 -6.07
Si -9.94 -3.80 -3.34
Si -6.31  7.04 -5.93
Si  5.72 -3.57  8.89
Si  7.03 -1.64 -8.51
Si -9.06 -1.57  6.33
Si -4.60 -8.18 -6.07
Si -5.19  9.13  3.83
Si  4.75 -10.01  1.45
Si  5.77  4.81 -8.29
Si  7.21 -5.67  6.40
Si  4.61 -10.20 -0.98
Si -3.58 -5.83  8.92
Si -7.69  5.19  6.38
Si  5.38  9.13  3.83
Si -5.00  9.46 -3.52
Si -8.78 -5.86  3.97
Si -2.29  9.30 -5.96
Si  4.49 -5.96 -8.51
Si -8.86  2.95  6.40
Si  8.28  4.77 -6.07
Si  7.12 -1.34  8.71
Si -7.19 -8.11 -3.34
Si  1.80  2.70 -10.88
Si  4.58 -5.66  8.71
Si  0.26  0.90 11.33
Si -3.40 -10.25 -3.56
Si  9.62 -5.91  1.39
Si -10.05 -3.60  3.94
Si  2.15 -1.44 -11.09
Si -10.19  5.01 -1.01
Si -5.06  5.05  8.89
Si  3.29  0.65 -10.91
Si  2.99  9.30 -5.96
Si -10.24  4.85  1.61
Si  0.12  9.51  6.38
Si -8.79  7.24 -1.19
Si -7.30 -7.91  3.94
Si -0.91 -1.34 11.35
Si -0.60  2.88 -11.09
Si  1.62  7.29  8.71
Si -1.26  7.11  8.92
Si  1.43 -1.55 11.29
Si  7.23  2.88 -8.45
Si -11.31 -1.39  1.45
Si  1.43 11.38 -0.98
Si -1.38 11.35  1.39
Si  9.76 -1.59 -5.93
Si  5.57  9.46 -3.52
Si  0.75 -3.67 -10.91
Si  6.57  7.06  6.33
Si 10.88  0.50  3.83
Si  6.77  2.79  8.92
Si  0.80 -7.82 -8.47
Si -2.50  9.19  6.56
Si -6.33  7.27  6.40
Si  8.16  5.19  6.38
Si 10.03 -5.70 -1.19
Si  9.32  2.74  6.33
Si -11.46 -1.57 -0.98
Si -3.13 -1.44 -11.09
Si  5.50  5.05  8.89
Si  5.84 -7.75  6.38
Si  2.78  9.19  6.56
Si -3.76  6.99 -8.51
Si 11.07  0.83 -3.52
Si -0.98 11.55 -1.19
Si -9.20  7.03  1.39
Si -5.81 -10.01  1.45
Si  4.83 -10.04 -3.50
Si -7.24 -3.50 -8.47
Si -1.32  2.77 11.29
Si -7.60  0.74  8.89
Si -10.16  4.83 -3.34
Si  9.74 -1.36  6.40
Si -3.48  2.70 -10.88
Si  1.57 11.56  1.45
Si -1.83 -8.14 -8.29
Si -11.33  2.93 -1.19
Si -2.36  0.59 11.51
Si  8.63 -7.93 -1.01
Si 11.16 -3.62 -1.01
Si -10.10  0.45 -6.07
Si  5.97 -8.18 -6.07
Si  4.53 -10.17  3.97
Si -0.59 -10.22 -5.93
Si  1.63  2.98 11.35
Si  9.46  7.06 -0.98
Si -5.96 -10.20 -0.98
Si 11.12 -3.77  1.61
Si -11.23 -1.41 -3.50
Si -1.99 -3.88 -11.02
Si  7.14  7.22 -6.14
Si -0.61 -9.99  6.40
Si  2.92  0.59 11.51
Si  8.52  0.49 -8.29
