500
set: 997.00  0.00  0.00
Si  0.44 -1.19  0.85
Si -0.41  1.23 -0.85
Si -1.35 -1.21 -0.84
Si  1.38  1.21  0.85
Si  0.89 -0.01 -2.50
Si -2.23  1.22  0.81
Si  2.24 -1.22 -0.82
Si -0.89 -0.01  2.53
Si  3.14  1.21 -0.82
Si -0.08 -2.40 -2.50
Si  0.04  2.43  2.50
Si -3.17 -1.23  0.82
Si -2.68 -0.02 -2.50
Si  2.69  0.00  2.50
Si -0.50 -3.64  0.85
Si  0.53  3.64 -0.84
Si  1.76 -2.41  2.51
Si -1.78  2.40 -2.54
Si -1.28  3.62  0.82
Si  1.80  2.45 -2.50
Si  1.26 -3.64 -0.82
Si -1.84 -2.42  2.50
Si  0.86  0.02  4.20
Si  4.02 -1.23  0.82
Si -0.90  0.00 -4.20
Si -4.05  1.21 -0.82
Si -2.29 -3.62 -0.85
Si  2.33  3.66  0.85
Si  0.05  2.42 -4.17
Si -3.07  3.63 -0.82
Si  3.08 -3.64  0.81
Si -0.05 -2.44  4.20
Si -2.72 -0.03  4.16
Si -3.54  2.44  2.51
Si  2.70  0.02 -4.20
Si  3.53 -2.45 -2.54
Si  3.65  2.44  2.51
Si -3.66 -2.45 -2.54
Si -1.74  2.41  4.20
Si -4.50  0.00  2.50
Si  4.51 -0.02 -2.50
Si  1.75 -2.42 -4.20
Si -4.95 -1.22 -0.82
Si -1.83 -2.44 -4.17
Si  4.97  1.22  0.81
Si  1.83  2.42  4.20
Si -0.80  4.84 -2.50
Si  0.81 -4.85  2.50
Si -4.11 -3.64  0.81
Si  4.12  3.63 -0.82
Si  0.99  4.84  2.53
Si -0.99 -4.86 -2.50
Si -5.81  1.21  0.85
Si  0.44 -1.22 -5.85
Si -0.41  1.22  5.87
Si  5.84 -1.21 -0.84
Si -3.56  2.43 -4.20
Si  3.57 -2.44  4.20
Si -2.62  4.86  2.50
Si -3.62 -2.44  4.20
Si  3.63  2.43 -4.20
Si  2.62 -4.87 -2.50
Si  4.47 -0.03  4.16
Si  2.78  4.84 -2.50
Si -1.35 -1.19  5.85
Si -0.34  6.07  0.81
Si  0.36 -6.07 -0.82
Si  1.38  1.24 -5.85
Si -4.49  0.02 -4.20
Si -2.78 -4.86  2.53
Si -4.87  3.66  0.85
Si  4.90 -3.62 -0.85
Si -1.44 -6.04  0.85
Si  1.48  6.08 -0.85
Si  5.35 -2.42  2.50
Si  2.20 -1.22  5.88
Si -2.23  1.20 -5.88
Si -0.84  4.83  4.16
Si -5.39  2.45 -2.50
Si  5.41  2.40 -2.54
Si -5.43 -2.41  2.51
Si  0.82 -4.84 -4.20
Si -1.02 -4.83  4.20
Si -2.17  6.06 -0.82
Si  0.99  4.86 -4.20
Si  2.14 -6.08  0.82
Si -6.30 -0.01 -2.50
Si  6.30 -0.01  2.53
Si -3.17 -1.21 -5.89
Si  3.18  1.21  5.89
Si -0.50 -3.62 -5.85
Si -6.75 -1.19  0.85
Si  2.59 -4.88  4.16
Si  0.53  3.66  5.85
Si -3.24 -6.06 -0.84
Si -2.60  4.87 -4.20
Si  3.27  6.06  0.85
Si  6.78  1.23 -0.85
Si  5.91  3.62  0.82
Si -2.78 -4.85 -4.20
Si  2.74  4.88  4.20
Si -5.93 -3.64 -0.82
Si -4.42  4.84 -2.50
Si  4.41 -4.86  2.53
Si -1.28  3.64 -5.89
Si  1.30 -3.65  5.89
Si  4.58  4.86  2.50
Si -4.57 -4.87 -2.50
Si  5.36 -2.44 -4.17
Si -4.01  1.21  5.89
Si -5.36  2.42  4.20
Si  4.02 -1.21 -5.89
Si -3.92  6.06  0.85
Si  2.33  3.64 -5.85
Si -2.30 -3.64  5.87
Si  3.95 -6.06 -0.84
Si  5.45  2.41  4.20
Si -5.44 -2.42 -4.20
Si  6.29  0.00 -4.20
Si  3.08 -3.66 -5.88
Si -3.11  3.64  5.88
Si -6.33  0.02  4.20
Si -6.66  3.64 -0.84
Si -0.41  1.22 -7.54
Si  0.44 -1.22  7.55
Si  6.69 -3.64  0.85
Si -0.12 -7.26  2.51
Si  0.10  7.25 -2.54
Si -7.60  1.23 -0.85
Si -1.35 -1.19 -7.56
Si  7.63 -1.19  0.85
Si  1.38  1.24  7.55
Si  4.41 -4.85 -4.20
Si  4.96  1.20 -5.88
Si -4.99 -1.22  5.88
Si -4.45  4.88  4.20
Si -1.66  7.29  2.51
Si -4.61 -4.88  4.16
Si  4.59  4.87 -4.20
Si  1.64 -7.31 -2.54
Si  7.11 -2.40 -2.50
Si  5.03  6.06 -0.82
Si -1.97 -7.26 -2.50
Si  2.20 -1.22 -7.52
Si  1.93  7.28  2.50
Si -2.23  1.20  7.53
Si -5.05 -6.08  0.82
Si -7.15  2.43  2.50
Si  4.08  3.64  5.88
Si  7.24  2.43  2.50
Si -4.11 -3.66 -5.88
Si -7.27 -2.40 -2.50
Si -3.17 -1.21  7.51
Si  3.18  1.21 -7.52
Si  6.20 -4.86 -2.50
Si -6.20  4.84  2.53
Si -5.81  1.24 -5.85
Si  5.84 -1.19  5.85
Si  5.75 -6.04  0.85
Si  0.14  7.26  4.20
Si -0.50 -3.62  7.55
Si -5.72  6.08 -0.85
Si  6.39  4.84 -2.50
Si -6.38 -4.85  2.50
Si -0.14 -7.28 -4.20
Si  0.53  3.66 -7.56
Si -4.87  3.64 -5.85
Si  3.47 -7.28  2.50
Si -0.34  6.05 -5.88
Si -1.28  3.64  7.51
Si  1.30 -3.65 -7.52
Si  0.32 -6.07  5.88
Si  4.89 -3.64  5.87
Si  8.08 -0.01 -2.50
Si -8.08 -0.01  2.53
Si -3.51  7.30 -2.50
Si  0.60  8.47  0.82
Si -3.72 -7.28  2.50
Si -7.69 -3.64  0.85
Si -1.44 -6.07 -5.85
Si  3.69  7.30 -2.50
Si -0.63 -8.50 -0.82
Si  1.47  6.07  5.87
Si -1.68  7.28 -4.20
Si  7.72  3.64 -0.84
Si  1.68 -7.29  4.20
Si  1.93  7.27 -4.17
Si -1.18  8.48 -0.82
Si -4.01  1.21 -7.52
Si  4.03 -1.21  7.51
Si  1.20 -8.49  0.81
Si -7.14  2.42 -4.17
Si -1.93 -7.29  4.20
Si  7.14 -2.44  4.20
Si -8.55 -1.21 -0.84
Si -2.30 -3.64 -7.54
Si  7.24  2.42 -4.17
Si  2.33  3.64  7.55
Si  8.58  1.21  0.85
Si -2.12  6.06  5.89
Si -7.24 -2.44  4.20
Si  2.14 -6.06 -5.89
Si -2.38 -8.49  0.85
Si  2.41  8.49 -0.84
Si  6.17 -4.83  4.20
Si -3.11  3.64 -7.52
Si  3.08 -3.66  7.53
Si -6.21  4.86 -4.20
Si  6.35  4.83  4.16
Si -3.23 -6.05  5.85
Si -6.75 -1.22 -5.85
Si -6.37 -4.84 -4.20
Si  3.02 -8.47 -0.85
Si  6.78  1.22  5.87
Si  3.27  6.09 -5.85
Si -2.98  8.52  0.85
Si  8.05  0.02  4.20
Si  3.47 -7.29 -4.17
Si -3.47  7.27  4.20
Si -5.89 -3.65  5.89
Si  4.96  1.20  7.53
Si  5.91  3.64 -5.89
Si -4.99 -1.22 -7.52
Si -8.09  0.00 -4.20
Si -6.83 -6.07 -0.82
Si  3.72  7.27  4.20
Si -3.72 -7.29 -4.17
Si  6.85  6.07  0.81
Si  8.45 -3.64 -0.82
Si  0.86  0.02 -9.21
Si -0.90  0.00  9.21
Si -8.47  3.62  0.82
Si  5.22 -7.26 -2.50
Si  3.96 -6.05  5.85
Si  4.08  3.64 -7.52
Si -3.92  6.09 -5.85
Si -4.11 -3.66  7.53
Si -5.26  7.28  2.50
Si -4.18 -8.47 -0.85
Si  5.53  7.29  2.51
Si -5.55 -7.31 -2.54
Si -0.05 -2.44 -9.21
Si -9.42  1.22  0.81
Si  4.21  8.52  0.85
Si  9.43 -1.22 -0.82
Si  0.05  2.42  9.24
Si -6.66  3.66  5.85
Si  6.69 -3.62 -5.85
Si  2.70  0.02  9.21
Si  8.95 -2.41  2.51
Si -5.81  1.24  7.55
Si  5.84 -1.19 -7.56
Si -8.97  2.40 -2.54
Si -2.72 -0.03 -9.25
Si  8.99  2.45 -2.50
Si -0.34  6.05  7.53
Si -7.99  4.84 -2.50
Si  0.32 -6.07 -7.52
Si -1.74  2.41 -9.21
Si  1.75 -2.42  9.20
Si -9.03 -2.42  2.50
Si -7.61  1.22  5.87
Si  8.00 -4.85  2.50
Si  1.83  2.42 -9.21
Si -4.87  3.64  7.55
Si  7.63 -1.22 -5.85
Si  4.89 -3.64 -7.54
Si -7.53  6.07  0.81
Si  7.55 -6.07 -0.82
Si -1.83 -2.44  9.24
Si -4.78  8.49 -0.84
Si  1.47  6.07 -7.54
Si -1.44 -6.07  7.55
Si  4.81 -8.49  0.85
Si  8.18  4.84  2.53
Si -8.18 -4.86 -2.50
Si -5.05 -6.06 -5.89
Si  5.07  6.06  5.89
Si -2.12  6.06 -7.52
Si  2.14 -6.06  7.51
Si -5.26  7.27 -4.17
Si  5.26 -7.29  4.20
Si -0.73  9.71  2.50
Si  5.52  7.28 -4.20
Si -5.51 -7.29  4.20
Si  0.74 -9.72 -2.50
Si  1.08  9.69 -2.50
Si -1.08 -9.70  2.50
Si -8.93  2.41  4.20
Si -3.56  2.43  9.20
Si  3.57 -2.44 -9.21
Si  8.94 -2.42 -4.20
Si -9.87 -0.02 -2.50
Si -9.48 -3.62 -0.85
Si  3.63  2.43  9.20
Si -3.62 -2.44 -9.21
Si  9.88  0.00  2.50
Si -5.72  6.07  5.87
Si -6.75 -1.22  7.55
Si  5.75 -6.07 -5.85
Si -3.23 -6.05 -7.56
Si  6.78  1.22 -7.54
Si -5.89 -3.65 -7.52
Si  5.91  3.64  7.51
Si  9.52  3.66  0.85
Si -9.03 -2.44 -4.17
Si  3.27  6.09  7.55
Si  9.03  2.42  4.20
Si -4.49  0.02  9.21
Si -8.03  4.83  4.16
Si  8.01 -4.84 -4.20
Si  4.47 -0.03 -9.25
Si -7.69 -3.62 -5.85
Si -2.53  9.70 -2.50
Si  2.53 -9.71  2.53
Si -0.59 -8.50  5.89
Si  0.60  8.49 -5.89
Si  7.72  3.66  5.85
Si  8.18  4.86 -4.20
Si -1.22  8.49  5.88
Si  1.20 -8.51 -5.88
Si -8.22 -4.83  4.20
Si -8.54 -1.19  5.85
Si -5.99 -8.49  0.81
Si  2.88  9.70  2.53
Si  6.01  8.48 -0.82
Si 10.33  1.21 -0.82
Si  0.82 -4.84  9.21
Si -2.88 -9.71 -2.50
Si  7.07 -7.26  2.51
Si -1.02 -4.83 -9.21
Si -7.09  7.25 -2.54
Si  8.57  1.24 -5.85
Si  0.99  4.86  9.21
Si  3.96 -6.05 -7.56
Si -10.36 -1.23  0.82
Si -0.84  4.83 -9.25
Si -3.92  6.09  7.55
Si -2.38 -8.47 -5.85
Si -8.63 -6.04  0.85
Si  1.05  9.68  4.16
Si  7.30  7.25 -2.54
Si  0.70 -9.73  4.16
Si  2.42  8.51  5.85
Si -7.31 -7.26  2.51
Si -1.06 -9.69 -4.20
Si -0.72  9.72 -4.20
Si  8.67  6.08 -0.85
Si -6.66  3.66 -7.56
Si  6.69 -3.62  7.55
Si -2.98  8.49 -5.85
Si -2.60  4.87  9.21
Si  9.89  0.02 -4.20
Si  3.01 -8.49  5.87
Si -9.91 -0.03  4.16
Si  6.56 -8.50 -0.82
Si -6.59  8.47  0.82
Si  2.59 -4.88 -9.25
Si -2.78 -4.85  9.21
Si  2.74  4.88 -9.21
Si -7.61  1.22 -7.54
Si  7.63 -1.22  7.55
Si  6.85  6.05 -5.88
Si  2.52 -9.70 -4.20
Si -5.05 -6.06  7.51
Si -6.88 -6.07  5.88
Si -2.56  9.73  4.20
Si  5.07  6.06 -7.52
Si -0.89 -0.01 -10.87
Si -4.32  9.70  2.53
Si -10.26  3.63 -0.82
Si  4.32 -9.71 -2.50
Si -5.36  2.42 -9.21
Si 10.27 -3.64  0.81
Si  0.89 -0.01 10.91
Si -8.47  3.64 -5.89
Si -2.91 -9.68  4.20
Si -0.28 10.91 -0.82
Si  5.36 -2.44  9.24
Si  8.49 -3.65  5.89
Si -7.05  7.26  4.20
Si  2.87  9.71 -4.20
Si -5.44 -2.42  9.20
Si  5.45  2.41 -9.21
Si  0.26 -10.94  0.82
Si  7.06 -7.28 -4.20
Si  4.66  9.70 -2.50
Si  1.54 10.92  0.81
Si -1.53 -10.93 -0.82
Si -4.66 -9.71  2.53
Si -4.18 -8.49  5.87
Si -2.04 10.92  0.85
Si  4.21  8.49 -5.85
Si  2.07 -10.91 -0.84
Si  7.33  7.26  4.20
Si  9.39 -1.22  5.88
Si -7.33 -7.28 -4.20
Si  6.29  0.00  9.21
Si -0.08 -2.40 10.90
Si -9.42  1.20 -5.88
Si  9.33 -6.08  0.82
Si  0.04  2.43 -10.90
Si -6.33  0.02 -9.21
Si -9.36  6.06 -0.82
Si -9.81  4.86  2.50
Si -2.68 -0.02 10.90
Si  2.69  0.00 -10.91
Si  9.82 -4.87 -2.50
Si -5.72  6.07 -7.54
Si -1.78  2.40 10.86
Si  5.75 -6.07  7.55
Si 10.72 -2.45 -2.54
Si -10.74  2.44  2.51
Si  1.76 -2.41 -10.90
Si  4.41 -4.85  9.21
Si  7.51 -6.07  5.88
Si -7.53  6.05 -5.88
Si 11.21 -1.23  0.82
Si  1.80  2.45 10.90
Si -1.84 -2.42 -10.90
Si -4.45  4.88 -9.21
Si -11.24  1.21 -0.82
Si  0.60  8.49  7.51
Si  9.97  4.84 -2.50
Si  4.81 -8.47 -5.85
Si -0.59 -8.50 -7.52
Si -7.69 -3.62  7.55
Si -9.97 -4.86  2.53
Si -4.77  8.51  5.85
Si  4.59  4.87  9.21
Si 10.84  2.44  2.51
Si  4.28 -9.68  4.20
Si -1.22  8.49 -7.52
Si  7.72  3.66 -7.56
Si -10.86 -2.45 -2.54
Si  1.20 -8.51  7.53
Si -3.33 -10.90  0.85
Si -4.32  9.71 -4.20
Si -4.61 -4.88 -9.25
Si -8.54 -1.19 -7.56
Si  3.36 10.94 -0.85
Si  8.57  1.24  7.55
Si  7.79  8.47  0.82
Si -4.67 -9.70 -4.20
Si  4.63  9.73  4.20
Si -7.82 -8.50 -0.82
Si  3.86 -10.90  0.85
Si -2.38 -8.47  7.55
Si -3.83 10.94 -0.85
Si  2.42  8.51 -7.56
Si  3.53 -2.45 10.86
Si  9.78 -4.88  4.16
Si -9.79  4.87 -4.20
Si -3.54  2.44 -10.90
Si -6.11  9.69 -2.50
Si -3.66 -2.45 10.86
Si  0.14  7.26 -9.21
Si -0.14 -7.28  9.20
Si -9.49 -3.64  5.87
Si  6.11 -9.70  2.50
Si -8.85  7.29  2.51
Si  8.84 -7.31 -2.54
Si  3.01 -8.49 -7.54
Si -2.98  8.49  7.55
Si  3.65  2.44 -10.90
Si  9.52  3.64 -5.85
Si -10.75  2.43 -4.20
Si -4.50  0.00 -10.91
Si  4.51 -0.02 10.90
Si 10.76 -2.44  4.20
Si  9.93  4.88  4.20
Si  6.85  6.05  7.53
Si -1.68  7.28  9.20
Si -10.82 -2.44  4.20
Si -9.97 -4.85 -4.20
Si -6.88 -6.07 -7.52
Si 10.82  2.43 -4.20
Si  1.68 -7.29 -9.21
Si -8.47  3.64  7.51
Si -11.30 -3.64  0.81
Si -1.93 -7.29 -9.21
Si  7.14 -2.44 -9.21
Si 11.32  3.63 -0.82
Si  8.49 -3.65 -7.52
Si  1.93  7.27  9.24
Si -7.14  2.42  9.24
Si  6.46  9.71  2.50
Si  5.97  8.49  5.88
Si -6.45 -9.72 -2.50
Si  9.12  7.28  2.50
Si  0.99  4.84 -10.87
Si -8.37  8.48 -0.82
Si -9.16 -7.26 -2.50
Si -5.99 -8.51 -5.88
Si -0.80  4.84 10.90
Si -11.69  0.00  2.50
Si  8.39 -8.49  0.81
Si -7.24 -2.44 -9.21
Si  0.81 -4.85 -10.91
Si 11.70 -0.02 -2.50
