500
set: 1125.00  0.00  0.00
Si -0.06 -0.03 -0.04
Si  0.02 -0.01  2.40
Si  0.01  0.01 -2.48
Si  1.23  2.25 -0.05
Si -1.33  2.25 -0.04
Si  1.33 -2.25  0.06
Si -2.63 -0.03  0.02
Si -1.34 -2.29 -0.02
Si  2.65 -0.02 -0.02
Si  1.27 -2.21 -2.40
Si -1.25 -2.23  2.44
Si -2.59 -0.05  2.43
Si -1.27 -2.27 -2.43
Si  1.29 -2.29  2.42
Si  2.63  0.02  2.42
Si  1.35  2.23 -2.44
Si -1.32  2.26  2.43
Si -2.65 -0.03 -2.40
Si  1.29  2.28  2.45
Si  2.68 -0.00 -2.44
Si -1.29  2.33 -2.46
Si -0.03 -4.49  0.06
Si -3.90  2.24  0.03
Si  3.84 -2.35 -0.00
Si  3.90  2.29 -0.02
Si -3.94 -2.25 -0.00
Si -0.02  4.54  0.07
Si  0.06  0.02  4.82
Si  0.06  0.02 -4.96
Si -0.02  4.46  2.40
Si  3.84  2.23  2.48
Si -0.02  4.47 -2.46
Si -3.89  2.28 -2.43
Si -3.87  2.25  2.50
Si -3.88 -2.32  2.44
Si  3.97 -2.25 -2.40
Si  3.92 -2.30  2.45
Si  0.01 -4.56 -2.42
Si  0.03 -4.54  2.47
Si  3.92  2.26 -2.50
Si  2.56  4.50  0.04
Si -3.94 -2.31 -2.45
Si  2.58 -4.53  0.02
Si -5.21  0.02 -0.02
Si  5.22  0.02 -0.02
Si -2.64  4.50  0.02
Si -2.66 -4.53  0.04
Si -1.34 -2.20  4.86
Si  1.30 -2.31  4.83
Si  2.60  0.05 -4.88
Si  1.31  2.26  4.88
Si  2.60  0.05  4.90
Si -1.33  2.28 -4.88
Si -2.66  0.02 -4.87
Si -1.34 -2.20 -4.92
Si  1.31  2.26 -4.90
Si -1.33  2.28  4.90
Si -2.66  0.02  4.91
Si  1.30 -2.31 -4.95
Si -5.17  0.04  2.40
Si  2.65  4.45 -2.43
Si  2.60 -4.47 -2.46
Si -2.53  4.51  2.47
Si -5.17  0.05 -2.48
Si  2.60  4.48  2.48
Si -2.56 -4.58 -2.43
Si  5.26  0.04  2.40
Si -2.61 -4.55  2.48
Si -2.62  4.56 -2.46
Si  2.69 -4.52  2.47
Si  5.27  0.05 -2.48
Si  3.86 -2.21 -4.86
Si  3.86 -2.21  4.92
Si  3.91  2.22  4.88
Si -3.92 -2.22  4.89
Si  3.91  2.22 -4.90
Si -3.91  2.29 -4.87
Si -3.92 -2.22 -4.89
Si  0.01 -4.52  4.89
Si  0.01 -4.52 -4.89
Si -3.91  2.29  4.91
Si  0.01  4.58 -4.87
Si  0.01  4.58  4.91
Si -1.38  6.69 -0.00
Si -1.31 -6.74 -0.02
Si  5.20 -4.49  0.07
Si  6.49 -2.25 -0.00
Si  5.18  4.55  0.06
Si -5.23 -4.49  0.07
Si  1.27  6.78 -0.00
Si  6.53  2.24  0.03
Si  1.32 -6.79  0.03
Si -6.53  2.29 -0.02
Si -5.25  4.55  0.06
Si -6.59 -2.35 -0.00
Si -2.54 -4.44 -4.84
Si  5.17  0.03  4.85
Si -2.54 -4.44  4.94
Si  5.17  0.03 -4.93
Si  2.65 -4.49 -4.89
Si  2.65 -4.49  4.89
Si -2.57  4.54 -4.89
Si -2.57  4.54  4.89
Si -5.27  0.03  4.85
Si  2.67  4.60 -4.84
Si -5.27  0.03 -4.93
Si -6.47 -2.25 -2.40
Si  2.67  4.60  4.94
Si  1.27  6.72 -2.45
Si  1.33  6.71  2.44
Si -1.30  6.73  2.45
Si -5.21  4.47 -2.42
Si  5.22  4.47 -2.42
Si  0.01  0.01  7.30
Si -5.19  4.50  2.47
Si -1.25  6.78 -2.40
Si  1.33 -6.75 -2.43
Si  6.49 -2.31 -2.45
Si  5.20 -4.57  2.40
Si -6.51  2.26 -2.50
Si -6.52 -2.30  2.45
Si -1.29 -6.77 -2.50
Si  5.20 -4.56 -2.46
Si  5.25  4.50  2.47
Si  6.55  2.28 -2.43
Si -5.23 -4.57  2.40
Si  1.35 -6.78  2.50
Si -5.24 -4.56 -2.46
Si -1.37 -6.80  2.48
Si  6.55 -2.32  2.44
Si  6.57  2.25  2.50
Si  0.02 -0.01 -7.38
Si -6.59  2.23  2.48
Si -1.25 -2.23 -7.34
Si  3.88  6.75 -0.02
Si -7.78 -0.02 -0.02
Si -1.29  2.33  7.31
Si  1.29  2.28 -7.33
Si -2.59 -0.05 -7.35
Si  1.35  2.23  7.34
Si -1.32  2.26 -7.35
Si -1.27 -2.27  7.35
Si  7.80 -0.03  0.02
Si  2.68 -0.00  7.33
Si  1.27 -2.21  7.38
Si -3.89  6.78  0.06
Si  2.63  0.02 -7.36
Si  1.29 -2.29 -7.36
Si  3.89 -6.79 -0.04
Si -2.65 -0.03  7.38
Si -3.99 -6.79 -0.05
Si -7.76 -0.00 -2.44
Si  7.78 -0.03 -2.40
Si  3.93 -6.70 -2.46
Si -3.94  6.74  2.42
Si -7.80  0.02  2.42
Si -3.92 -6.75  2.45
Si  3.90 -6.77  2.43
Si -3.86 -6.80 -2.44
Si  3.94  6.76 -2.43
Si  7.84 -0.05  2.43
Si -3.95  6.82 -2.40
Si  3.96  6.81  2.44
Si -5.20 -4.46 -4.87
Si  1.31 -6.74 -4.87
Si -5.20 -4.46  4.91
Si  5.24 -4.46 -4.87
Si  6.51 -2.22  4.89
Si  6.51 -2.22 -4.89
Si  1.31 -6.74  4.91
Si -6.52  2.22  4.88
Si  5.24 -4.46  4.91
Si -5.21  4.51  4.89
Si -6.52  2.22 -4.90
Si -5.21  4.51 -4.89
Si  6.53  2.29 -4.87
Si  5.22  4.51  4.89
Si  5.22  4.51 -4.89
Si -6.57 -2.21 -4.86
Si -1.30 -6.81  4.88
Si -1.36  6.82 -4.86
Si  6.53  2.29  4.91
Si  1.29  6.81  4.89
Si  1.29  6.81 -4.89
Si -1.30 -6.81 -4.90
Si -6.57 -2.21  4.92
Si -1.36  6.82  4.92
Si  3.84  2.23 -7.30
Si -3.87  2.25 -7.28
Si  3.92  2.26  7.28
Si -0.02  4.47  7.32
Si  0.03 -4.54 -7.30
Si -3.88 -2.32 -7.34
Si -3.89  2.28  7.35
Si -0.02  4.46 -7.38
Si  3.92 -2.31 -7.33
Si -3.94 -2.31  7.33
Si  0.01 -4.56  7.36
Si  3.97 -2.25  7.38
Si -5.17  0.05  7.30
Si  2.60  4.48 -7.30
Si -2.53  4.51 -7.31
Si  2.60 -4.47  7.32
Si -2.61 -4.55 -7.30
Si  2.65  4.45  7.35
Si  7.79  4.50  0.02
Si  7.78 -4.53  0.04
Si  5.27  0.05  7.30
Si -5.17  0.04 -7.38
Si  2.69 -4.52 -7.31
Si  0.01 -9.01 -0.02
Si -2.62  4.56  7.32
Si -2.56 -4.58  7.35
Si -0.00  9.05 -0.02
Si  5.26  0.04 -7.38
Si -7.86 -4.53  0.02
Si -7.88  4.50  0.04
Si -3.92  6.73  4.83
Si  7.77  0.02 -4.87
Si  7.77  0.02  4.91
Si  3.89 -6.75 -4.88
Si  3.89 -6.75  4.90
Si -3.91 -6.77  4.88
Si -3.92  6.73 -4.95
Si -3.91 -6.77 -4.90
Si -7.84  0.05 -4.88
Si  3.88  6.84  4.86
Si -7.84  0.05  4.90
Si  3.88  6.84 -4.92
Si -7.78  4.45 -2.43
Si -7.74 -4.52  2.47
Si  0.05 -8.99  2.40
Si  0.05 -8.99 -2.48
Si -7.83 -4.47 -2.46
Si -7.83  4.48  2.48
Si  6.45 -6.79 -0.05
Si  2.58  9.00  0.02
Si -2.57  9.01 -0.02
Si  9.10  2.25 -0.04
Si  7.82  4.56 -2.46
Si -9.11 -2.25  0.06
Si  9.10 -2.29 -0.02
Si  7.82 -4.55  2.48
Si  0.04  9.07  2.40
Si -6.56  6.75 -0.02
Si -2.56 -9.06 -0.02
Si  0.04  9.08 -2.48
Si  6.54  6.78  0.06
Si  7.87 -4.58 -2.43
Si  2.59 -9.07  0.02
Si -6.55 -6.79 -0.04
Si  7.91  4.51  2.47
Si -9.21  2.25 -0.05
Si -6.50 -6.70 -2.46
Si -9.08  2.23 -2.44
Si  2.62  8.98  2.43
Si  2.56  9.01 -2.40
Si  6.50  6.74  2.42
Si -6.49  6.76 -2.43
Si -2.58 -9.01  2.42
Si  6.51 -6.75  2.45
Si -2.54 -9.03 -2.44
Si -2.54  9.03 -2.44
Si  9.11  2.26  2.43
Si -6.48  6.81  2.44
Si  6.49  6.82 -2.40
Si -6.53 -6.77  2.43
Si  2.57 -9.06 -2.40
Si -2.59  9.05  2.42
Si -9.16 -2.21 -2.40
Si -9.15 -2.29  2.42
Si -9.15  2.28  2.45
Si -0.06 -0.03  9.74
Si  9.16 -2.27 -2.43
Si  9.14  2.33 -2.46
Si  9.18 -2.23  2.44
Si  6.57 -6.80 -2.44
Si  2.63 -9.09  2.43
Si -0.06 -0.03 -9.82
Si  1.27  6.72  7.33
Si -6.51  2.26  7.28
Si -1.29 -6.77  7.28
Si -5.19  4.50 -7.30
Si -1.30  6.73 -7.33
Si  1.33  6.71 -7.34
Si  1.35 -6.78 -7.28
Si  5.25  4.50 -7.30
Si  6.49 -2.31  7.33
Si  1.23  2.25  9.73
Si  6.57  2.25 -7.28
Si -5.21  4.47  7.36
Si  5.22  4.47  7.36
Si  5.20 -4.56  7.32
Si  1.33 -2.25 -9.72
Si -1.37 -6.80 -7.30
Si -6.47 -2.25  7.38
Si  1.33 -6.75  7.35
Si -6.52 -2.31 -7.33
Si -6.59  2.23 -7.30
Si -5.24 -4.56  7.32
Si -1.33  2.25  9.74
Si -1.25  6.78  7.38
Si  6.55  2.28  7.35
Si  2.65 -0.02  9.76
Si -2.63 -0.03 -9.76
Si  6.56 -2.32 -7.34
Si -1.34 -2.29  9.76
Si  5.20 -4.57 -7.38
Si -5.23 -4.57 -7.38
Si -2.63 -0.03  9.80
Si -1.34 -2.29 -9.79
Si  2.65 -0.02 -9.80
Si -1.33  2.25 -9.81
Si  1.23  2.25 -9.83
Si  1.33 -2.25  9.84
Si -0.05 -9.00  4.85
Si -7.79 -4.49 -4.89
Si -7.79 -4.49  4.89
Si -7.76  4.60 -4.84
Si -0.04 -9.00 -4.93
Si  7.89 -4.44 -4.84
Si -0.05  9.07  4.85
Si -7.76  4.60  4.94
Si  7.89 -4.44  4.94
Si  7.86  4.54 -4.89
Si  7.86  4.54  4.89
Si -0.05  9.07 -4.93
Si  5.15  9.00 -0.04
Si 10.37 -0.03 -0.04
Si  5.16 -9.07 -0.04
Si -5.28  9.00 -0.04
Si -5.27 -9.07 -0.04
Si -10.49 -0.03 -0.04
Si  6.51  6.73  4.83
Si  9.10 -2.20  4.86
Si -2.62 -8.98 -4.88
Si  2.56 -9.01 -4.87
Si -2.62 -8.98  4.90
Si  9.10 -2.20 -4.92
Si  9.10  2.28 -4.88
Si  2.56 -9.01  4.91
Si -9.13 -2.31  4.83
Si  9.10  2.28  4.90
Si  6.51  6.73 -4.95
Si -6.54 -6.75 -4.88
Si  2.55  9.05 -4.87
Si -9.13  2.26  4.88
Si  6.53 -6.77  4.88
Si -6.54 -6.75  4.90
Si -9.13  2.26 -4.90
Si  6.53 -6.77 -4.90
Si  2.55  9.05  4.91
Si -2.63  9.08 -4.88
Si -9.13 -2.31 -4.95
Si -6.56  6.84  4.86
Si -2.63  9.08  4.90
Si  3.93 -6.70  7.31
Si -7.76 -0.00  7.33
Si -6.56  6.84 -4.92
Si -10.41 -0.01  2.40
Si -5.20  9.03  2.40
Si -5.19 -9.04  2.40
Si -0.03 -4.49 -9.72
Si  5.23  9.03  2.40
Si -5.21 -9.02 -2.48
Si -3.92 -6.75 -7.33
Si  5.24 -9.04  2.40
Si  5.23 -9.02 -2.48
Si -10.43  0.01 -2.48
Si -0.02  4.54 -9.71
Si  7.78 -0.03  7.38
Si 10.45 -0.01  2.40
Si -3.86 -6.80  7.34
Si  3.90 -6.77 -7.35
Si -7.80  0.02 -7.36
Si -3.94  6.74 -7.36
Si 10.44  0.01 -2.48
Si -5.21  9.04 -2.48
Si  5.22  9.04 -2.48
Si  3.94  6.76  7.35
Si -3.90  2.24 -9.75
Si  7.84 -0.05 -7.35
Si  3.90  2.29  9.76
Si  3.84 -2.35  9.78
Si  3.96  6.81 -7.34
Si  3.84 -2.35 -9.78
Si -3.94 -2.25  9.78
Si -3.94 -2.25 -9.78
Si  3.90  2.29 -9.79
Si -3.90  2.24  9.81
Si -3.95  6.82  7.38
Si -0.03 -4.49  9.84
Si -0.02  4.54  9.84
Si  2.56  4.50 -9.74
Si -5.21  0.02  9.76
Si -2.66 -4.53 -9.74
Si  5.22  0.02  9.76
Si  2.58 -4.53 -9.76
Si -2.64  4.50 -9.76
Si  2.58 -4.53  9.79
Si -2.64  4.50  9.79
Si -5.21  0.02 -9.80
Si  2.56  4.50  9.82
Si  5.22  0.02 -9.80
Si -2.66 -4.53  9.82
Si  9.05  6.69 -0.00
Si 10.41 -4.49  0.06
Si  9.12 -6.74 -0.02
Si  1.31 11.28  0.03
Si  1.28 -11.29 -0.00
Si 10.41  4.54  0.07
Si -9.12 -6.79  0.03
Si -10.46 -4.49  0.06
Si -9.16  6.78 -0.00
Si -10.45  4.54  0.07
Si -1.32 11.33 -0.02
Si -10.37  0.02  4.82
Si -5.15 -9.02  4.82
Si -1.37 -11.38 -0.00
Si -5.16  9.05  4.82
Si -10.37  0.02 -4.96
Si -5.15 -9.02 -4.96
Si  5.28 -9.02  4.82
Si  5.27  9.05  4.82
Si -5.16  9.05 -4.96
Si 10.49  0.02  4.82
Si  5.28 -9.02 -4.96
Si -7.74 -4.52 -7.31
Si -9.10  6.71  2.44
Si  0.05 -8.99  7.30
Si 10.41  4.46  2.40
Si  5.27  9.05 -4.96
Si -9.10 -6.75 -2.43
Si -7.78  4.45  7.35
Si 10.41  4.47 -2.46
Si  9.06 -6.80  2.48
Si  9.13  6.73  2.45
Si -7.83  4.48 -7.30
Si 10.49  0.02 -4.96
Si -1.25 -11.29 -2.40
Si -9.08 -6.78  2.50
Si -7.83 -4.47  7.32
Si -10.40 -4.54  2.47
Si -10.45  4.46  2.40
Si -1.38 11.27  2.48
Si -9.16  6.72 -2.45
Si  7.83 -4.55 -7.30
Si  0.05 -8.99 -7.38
Si  1.34 11.28  2.50
Si -10.43 -4.56 -2.42
Si -10.46  4.47 -2.46
Si -1.30 11.29 -2.50
Si  7.82  4.56  7.32
Si  1.33 11.31 -2.43
Si 10.44 -4.56 -2.42
Si  9.14 -6.77 -2.50
Si  0.04  9.08  7.30
Si  9.18  6.78 -2.40
Si -1.30 -11.34  2.45
Si 10.47 -4.54  2.47
Si  7.91  4.51 -7.31
Si  1.28 -11.35 -2.45
Si  1.34 -11.35  2.44
Si  0.04  9.07 -7.38
Si  7.87 -4.58  7.35
Si -6.50 -6.70  7.31
Si 11.66  2.25 -0.05
Si -9.08  2.23  7.34
Si  2.62  8.98 -7.35
Si  5.20 -4.49 -9.71
Si  6.51 -6.75 -7.33
Si -2.54 -9.03  7.33
Si -2.54  9.03  7.33
Si -6.49  6.76  7.35
Si  6.50  6.74 -7.36
Si -5.23 -4.49 -9.71
Si  5.18  4.55 -9.72
Si  2.56  9.01  7.38
Si  9.11  2.26 -7.35
Si -2.58 -9.01 -7.36
Si -6.48  6.81 -7.34
Si -1.38  6.69  9.78
Si  3.88 11.28 -0.04
Si -1.38  6.69 -9.78
Si -1.31 -6.74  9.76
Si -3.88 -11.29  0.06
Si  9.14  2.33  7.31
Si -6.53 -6.77 -7.35
Si -9.15  2.28 -7.33
Si -7.85  9.00  0.02
Si  6.53  2.24 -9.75
Si -5.25  4.55 -9.72
Si  6.49 -2.25  9.78
Si  1.32 -6.79 -9.75
Si -2.59  9.05 -7.36
Si  6.50 -2.25 -9.78
Si  7.87  9.01 -0.02
Si -1.31 -6.74 -9.79
Si  6.49  6.82  7.38
Si  9.18 -2.23 -7.34
