500
set: 312.00  0.00  0.00
Si -0.02  0.02  0.02
Si  0.05 -2.13  0.85
Si  0.02 -0.03 -2.31
Si  1.91  1.12  0.81
Si -1.99  1.05  0.73
Si  3.76 -0.04 -0.05
Si -1.85 -3.28  0.06
Si  0.04  2.18 -3.10
Si -1.94 -1.10 -3.08
Si -1.95  1.10  3.08
Si -1.92  3.30 -0.02
Si  1.90 -3.33 -0.02
Si  1.88 -1.11 -3.17
Si  1.89  1.11  3.17
Si  0.04 -2.24  3.15
Si  1.98  3.35  0.06
Si -3.89 -0.04 -0.05
Si -0.09  2.22  3.80
Si  0.05  4.34  0.79
Si  1.94 -3.27 -2.33
Si  3.74  0.01 -2.45
Si -1.89 -1.06  3.92
Si -3.77 -2.28  0.79
Si -1.89 -3.32 -2.34
Si  1.94  3.30 -2.34
Si -1.89  3.36 -2.33
Si  1.94 -1.11  3.91
Si  3.88 -2.28  0.79
Si -3.92  0.01 -2.45
Si -3.79 -2.18  3.09
Si  3.86 -2.18  3.09
Si  0.03 -4.39 -3.16
Si  0.03  4.45  3.09
Si -3.79  2.24 -3.16
Si  3.86  2.24 -3.16
Si  5.67  1.05  0.73
Si  0.05  2.29 -5.40
Si -1.92 -1.09 -5.44
Si -1.92 -5.51  0.81
Si -3.80  2.18  3.94
Si -5.74  1.12  0.81
Si  1.84 -5.57  0.73
Si  3.85  2.18  3.94
Si  1.84 -1.15 -5.52
Si -3.77  4.49  0.85
Si  0.02 -4.45  3.94
Si  3.88  4.49  0.85
Si -1.85  1.14 -6.19
Si -0.07  2.17  6.20
Si  5.71  1.10  3.08
Si  5.71 -1.10 -3.08
Si -5.68  3.35  0.06
Si -0.07  6.59 -0.05
Si -3.78  4.38  3.15
Si  1.88 -5.53  3.08
Si  1.89  5.53 -3.08
Si -3.78 -4.45 -3.10
Si -1.92 -1.12  6.23
Si  5.73  3.30 -0.02
Si -5.75 -3.33 -0.02
Si  3.87  4.38  3.15
Si  1.90  1.09 -6.27
Si -1.94 -5.52  3.17
Si -1.95  5.52 -3.17
Si  3.87 -4.45 -3.10
Si -0.07 -6.66 -0.05
Si  5.80 -3.28  0.06
Si -5.77  1.11  3.17
Si -5.77 -1.11 -3.17
Si -0.07 -2.25 -6.30
Si  1.98 -1.07  6.31
Si  3.74 -4.40  3.80
Si -3.77  2.14 -5.46
Si -5.71 -3.27 -2.33
Si -5.71  3.30 -2.34
Si -3.92 -4.40  3.80
Si -5.71 -1.11  3.91
Si -1.89  5.51  3.91
Si  3.88  2.14 -5.46
Si  0.05 -0.07  7.03
Si -0.09 -6.61 -2.45
Si  5.77 -1.06  3.92
Si  5.76 -3.32 -2.34
Si  5.77  3.36 -2.33
Si  0.06 -4.49 -5.46
Si  1.94  5.57  3.92
Si -0.09  6.64 -2.45
Si  3.81 -2.19 -6.23
Si  3.81 -6.60  0.02
Si  7.64  0.02  0.02
Si -3.84 -2.19 -6.23
Si -3.84 -6.60  0.02
Si -0.02  4.44 -6.23
Si -0.02 -4.39  6.27
Si  3.81  6.65  0.02
Si  3.81  2.23  6.27
Si -7.67  0.02  0.02
Si -3.84  6.65  0.02
Si -3.84  2.23  6.27
Si -3.77 -4.34 -5.40
Si  1.84  3.26  6.98
Si  1.84  7.68  0.73
Si -7.60 -2.13  0.85
Si  3.88 -4.34 -5.40
Si -3.80  6.60 -2.31
Si -7.63 -0.03 -2.31
Si  3.85  6.60 -2.31
Si  5.74 -1.09 -5.44
Si  5.74 -5.51  0.81
Si  1.91  5.54 -5.44
Si -1.99 -3.36  6.98
Si -3.80 -6.66 -2.31
Si  7.67 -0.03 -2.31
Si  1.91 -3.30  7.05
Si -1.92  7.75  0.81
Si -1.99  5.47 -5.52
Si  3.85 -6.66 -2.31
Si -1.92  3.33  7.05
Si -3.77  0.07  7.10
Si  7.71 -2.13  0.85
Si -5.81 -5.57  0.73
Si  3.88  0.07  7.10
Si -5.81 -1.15 -5.52
Si -7.61  2.18 -3.10
Si  1.98 -5.49 -6.19
Si  3.76 -4.46  6.20
Si  1.89 -7.73 -3.08
Si  1.88  7.73  3.08
Si  1.90  5.51  6.23
Si  5.73 -1.12  6.23
Si -7.61 -2.24  3.15
Si  3.76  4.38 -6.30
Si  5.71  5.52 -3.17
Si  5.71 -5.52  3.17
Si -5.68 -1.07  6.31
Si  5.80  1.14 -6.19
Si -5.77 -5.53  3.08
Si -5.77  5.53 -3.08
Si -3.89 -4.46  6.20
Si  7.70  2.18 -3.10
Si -5.75  1.09 -6.27
Si -1.92 -5.53 -6.27
Si -1.94 -7.73 -3.17
Si -1.94  7.74  3.17
Si -3.89  4.38 -6.30
Si -1.85  5.56  6.31
Si  7.70 -2.24  3.15
Si  7.56  2.22  3.80
Si -7.60  4.34  0.79
Si  1.94 -7.69  3.92
Si -1.89  1.09 -8.59
Si  1.94  1.15 -8.58
Si -1.89 -7.74  3.91
Si  7.71  4.34  0.79
Si  5.76  5.51  3.91
Si -5.71  5.57  3.92
Si -7.74  2.22  3.80
Si  0.06 -8.91  0.79
Si -0.09 -2.19 -8.70
Si  0.03 -8.81  3.09
Si  0.03  0.03  9.34
Si -7.62 -4.39 -3.16
Si -7.62  4.45  3.09
Si  7.68 -4.39 -3.16
Si  7.68  4.45  3.09
Si  0.03  0.03 -9.41
Si  0.03  8.87 -3.16
Si -3.77 -8.76  0.85
Si -7.60  2.29 -5.40
Si  5.67 -3.36  6.98
Si  0.02  4.39 -8.55
Si  5.67  5.47 -5.52
Si  3.88 -8.76  0.85
Si -3.80 -2.24 -8.55
Si  1.91 -7.72 -5.44
Si  3.85 -2.24 -8.55
Si  0.02  8.81  3.94
Si -5.82  3.26  6.98
Si -5.74  5.54 -5.44
Si  9.56  1.12  0.81
Si  0.05 -6.55  7.10
Si -5.82  7.68  0.73
Si -7.63 -4.45  3.94
Si  5.74  7.75  0.81
Si -5.74 -3.30  7.05
Si  5.74  3.33  7.05
Si  7.71  2.29 -5.40
Si  7.67 -4.45  3.94
Si -9.64  1.05  0.73
Si -1.99 -7.78 -5.52
Si  0.05  6.70  7.10
Si -5.68 -5.49 -6.19
Si  7.59  2.17  6.20
Si  7.59  6.59 -0.05
Si -9.50 -3.28  0.06
Si -3.78  8.80 -3.10
Si  1.89 -3.31 -9.32
Si  1.88  3.31  9.32
Si -3.78 -0.03 -9.34
Si -1.95 -3.32  9.32
Si -1.94  3.32 -9.32
Si  7.59 -6.66 -0.05
Si  3.87  8.80 -3.10
Si  1.98 -9.91  0.06
Si  9.53 -1.11 -3.17
Si -5.75  5.51  6.23
Si  1.90  9.93 -0.02
Si  7.59 -2.25 -6.30
Si  9.54  1.11  3.17
Si  3.87 -0.03 -9.34
Si  1.90 -7.74  6.23
Si  9.56 -3.33 -0.02
Si -5.77 -7.73 -3.08
Si  5.71 -7.73 -3.17
Si -1.85 -7.70  6.31
Si  1.98  7.77 -6.19
Si -5.77  7.73  3.08
Si  5.71  7.74  3.17
Si -9.58  3.30 -0.02
Si -1.92  7.72 -6.27
Si -9.59 -1.10 -3.08
Si -3.78 -0.03  9.40
Si -1.92 -9.95 -0.02
Si -7.72  2.17  6.20
Si  5.73 -5.53 -6.27
Si -9.60  1.10  3.08
Si -1.85  9.97  0.06
Si -3.78 -8.87  3.15
Si -7.72  6.59 -0.05
Si  1.89 -3.31  9.42
Si  1.88  3.31 -9.42
Si  3.87 -0.03  9.40
Si -1.94 -3.31 -9.42
Si -1.94  3.32  9.42
Si  3.87 -8.87  3.15
Si  9.63  3.35  0.06
Si -7.72 -6.66 -0.05
Si -7.72 -2.25 -6.30
Si  5.80  5.56  6.31
Si -0.09 -2.19 10.05
Si -3.77  6.55  7.03
Si  0.05  8.76 -5.46
Si  3.74  8.85  3.80
Si  7.56 -6.61 -2.45
Si -1.88 -9.90 -2.33
Si -5.71 -7.69  3.92
Si -1.88 -5.48 -8.58
Si -7.60 -0.07  7.03
Si  7.56  6.64 -2.45
Si -9.54 -1.06  3.92
Si  3.88  6.55  7.03
Si -9.54 -3.32 -2.34
Si -5.71  1.15 -8.58
Si -9.54  3.36 -2.33
Si -1.89  9.93 -2.34
Si -7.60 -4.49 -5.46
Si -1.89  1.09 10.16
Si  1.94 -5.53 -8.59
Si -3.92  8.85  3.80
Si  9.60 -3.27 -2.33
Si  5.76  1.09 -8.59
Si  1.94 -9.95 -2.34
Si  9.59  3.30 -2.34
Si  1.94  1.15 10.17
Si  5.76 -7.74  3.91
Si  9.59 -1.11  3.91
Si -3.77 -6.70  7.03
Si  7.71 -0.07  7.03
Si  1.94  9.99 -2.33
Si  3.74  4.43 -8.70
Si  7.71 -4.49 -5.46
Si  3.88 -6.70  7.03
Si -7.74 -6.61 -2.45
Si -7.74  6.64 -2.45
Si -3.92  4.43 -8.70
Si -0.02 -8.81 -6.23
Si  7.64  4.44 -6.23
Si  7.64 -4.39  6.27
Si -7.67  4.44 -6.23
Si -7.67 -4.39  6.27
Si -0.02  8.86  6.27
Si  9.49 -5.57  0.73
Si  9.49 -1.15 -5.52
Si -5.74 -7.72 -5.44
Si -9.57 -1.09 -5.44
Si -9.57 -5.51  0.81
Si -3.77  8.91 -5.40
Si  5.67 -7.78 -5.52
Si  0.02  4.39 10.19
Si -3.80 -2.24 10.19
Si  3.88  8.91 -5.40
Si  3.85 -2.24 10.19
Si  0.05 11.12  0.85
Si -9.50  1.14 -6.19
Si  3.76  8.80  6.20
Si 11.41 -0.04 -0.05
Si -5.68 -9.91  0.06
Si  5.71 -3.32  9.32
Si  5.71  3.32 -9.32
Si  0.04  6.59 -9.34
Si -5.68  7.77 -6.19
Si  9.53 -5.53  3.08
Si  9.54  5.53 -3.08
Si -3.89  8.80  6.20
Si -5.77 -3.31 -9.32
Si -5.77  3.31  9.32
Si  0.04 11.01  3.15
Si  0.04 -6.66 -9.34
Si -5.75  9.93 -0.02
Si -9.58 -1.12  6.23
Si  5.73  7.72 -6.27
Si -5.75 -7.74  6.23
Si  9.56  1.09 -6.27
Si  0.04  6.59  9.40
Si  5.73 -9.95 -0.02
Si  0.04 -11.08 -3.10
Si  5.71 -3.31 -9.42
Si  5.71  3.32  9.42
Si  3.76 -8.87 -6.30
Si -9.59 -5.52  3.17
Si -9.60  5.52 -3.17
Si  5.80 -7.70  6.31
Si  0.04 -6.66  9.40
Si -5.77 -3.31  9.42
Si -5.77  3.31 -9.42
Si  5.80  9.97  0.06
Si -11.54 -0.04 -0.05
Si -3.89 -8.87 -6.30
Si  9.63 -1.07  6.31
Si  3.74  4.43 10.05
Si -3.77 10.97  0.79
Si 11.39  0.01 -2.45
Si -3.92  4.43 10.05
Si  3.88 10.97  0.79
Si -0.09 -11.03  3.80
Si -11.42 -2.28  0.79
Si  5.77 -9.90 -2.33
Si -9.54  5.51  3.91
Si  5.77 -5.48 -8.58
Si -1.89 -5.48 10.17
Si -5.71 -5.53 -8.59
Si -5.71 -9.95 -2.34
Si  1.94  7.72 -8.59
Si  0.06 -0.07 -11.71
Si -5.71  1.15 10.17
Si  5.76  9.93 -2.34
Si  1.94 -5.53 10.16
Si  5.76  1.09 10.16
Si  7.56 -2.19 -8.70
Si -1.89  7.78 -8.58
Si -7.60 -8.91  0.79
Si -5.71  9.99 -2.33
Si  9.59  5.57  3.92
Si 11.53 -2.28  0.79
Si  7.71 -8.91  0.79
Si -11.57  0.01 -2.45
Si -7.74 -2.19 -8.70
Si -3.79 -6.60  9.34
Si -7.62 -8.81  3.09
Si -7.62  0.03  9.34
Si -11.45 -2.18  3.09
Si  3.86 -6.60  9.34
Si -3.79 -11.02 -3.16
Si -3.80  6.66  9.34
Si -11.45  2.24 -3.16
Si  7.68 -8.81  3.09
Si  3.86 -11.02 -3.16
Si  7.68  0.03  9.34
Si  3.86  6.66  9.34
Si -3.79 -6.60 -9.41
Si -7.62  0.03 -9.41
Si -3.80 11.08  3.09
Si -7.62  8.87 -3.16
Si 11.51 -2.18  3.09
Si  3.86 -6.60 -9.41
Si  3.86 11.08  3.09
Si -3.79  6.66 -9.41
Si 11.51  2.24 -3.16
Si  7.68  0.03 -9.41
Si  7.68  8.87 -3.16
Si  3.86  6.66 -9.41
Si  9.49  3.26  6.98
Si  0.05 -10.97 -5.40
Si  9.49  7.68  0.73
Si -3.77  0.08 -11.65
Si -1.99  9.89  6.98
Si -7.63  4.39 -8.55
Si  3.88  0.08 -11.65
Si -7.60 -6.55  7.10
Si  1.91 -3.30 -11.69
Si -7.63  8.81  3.94
Si  7.67  4.39 -8.55
Si -1.92  3.33 -11.69
Si -11.43  4.49  0.85
Si -11.46  2.18  3.94
Si  1.91 -12.14  0.81
Si  9.56  5.54 -5.44
Si  0.02 -8.87 -8.55
Si  1.84 -9.99  6.98
Si -1.92 -9.93  7.05
Si  7.67  8.81  3.94
Si  9.56 -3.30  7.05
Si -9.57  7.75  0.81
Si -9.57  3.33  7.05
Si  1.84  3.27 -11.77
Si  1.91  9.96  7.05
Si 11.50  2.18  3.94
Si -3.80 -11.08  3.94
Si  7.71 -6.55  7.10
Si -9.64 -3.36  6.98
Si  3.85 -11.08  3.94
Si -7.60  6.70  7.10
Si -9.64  5.47 -5.52
Si -1.99 -12.20  0.73
Si -1.99 -3.36 -11.77
Si 11.53  4.49  0.85
Si  7.71  6.70  7.10
Si  1.98 -1.07 -12.44
Si -11.44  4.38  3.15
Si -0.07 -2.25 12.45
Si  9.53  7.73  3.08
Si  9.54 -7.73 -3.08
Si -11.44 -4.45 -3.10
Si  9.55  5.51  6.23
Si  1.90  1.09 12.48
Si -0.07 11.01 -6.30
Si -1.94 -12.15  3.08
Si -9.50  5.56  6.31
Si -1.94 12.16 -3.08
Si  1.89 -12.15  3.17
Si  9.63 -5.49 -6.19
Si  1.88 12.15 -3.17
Si -0.07 -11.08  6.20
Si -9.57 -5.53 -6.27
Si -1.92 -1.11 -12.52
Si 11.52  4.38  3.15
Si -9.60 -7.73 -3.17
Si -9.59  7.74  3.17
Si -0.07  2.17 -12.54
Si 11.52 -4.45 -3.10
Si -1.85  1.14 12.56
Si  7.56 -2.19 10.05
Si 11.39 -4.40  3.80
Si -7.60  8.76 -5.46
Si -11.42  2.14 -5.46
Si -7.74 -2.19 10.05
Si -9.54  1.09 -8.59
Si -5.71  7.72 -8.59
Si  7.71  8.76 -5.46
Si -9.54 -7.74  3.91
Si  1.94 12.14  3.91
Si -5.71 -5.53 10.16
Si  9.60 -7.69  3.92
Si  1.94  7.72 10.16
Si  5.77 -5.48 10.17
Si  9.59  1.15 -8.58
Si  5.77  7.78 -8.58
Si -1.89  7.78 10.17
Si  3.74 -8.82 -8.70
Si 11.53  2.14 -5.46
Si -1.89 12.20  3.92
Si -11.57 -4.40  3.80
Si -3.77 -11.12 -5.46
Si  3.88 -11.12 -5.46
Si -3.92 -8.82 -8.70
Si  7.64 -8.81 -6.23
Si 11.46 -2.19 -6.23
Si 11.46 -6.60  0.02
Si -0.02 -4.39 -12.48
Si -0.02 -13.23  0.02
Si  3.81  2.23 -12.48
Si  3.81 -11.02  6.27
Si -7.67 -8.81 -6.23
Si -3.84  2.23 -12.48
Si -3.84 -11.02  6.27
Si 11.46  6.65  0.02
Si 11.46  2.23  6.27
Si -11.49 -2.19 -6.23
Si -11.49 -6.60  0.02
Si  3.81 11.07 -6.23
Si  3.81 -2.19 12.52
Si  7.63  8.86  6.27
Si -3.84 11.07 -6.23
Si -3.84 -2.19 12.52
Si -0.02 13.28  0.02
Si -0.02  4.44 12.52
Si -11.50  6.65  0.02
Si -11.50  2.23  6.27
Si -7.67  8.86  6.27
Si -11.43 -4.34 -5.40
Si  0.05 -6.55 -11.65
Si  5.66  9.89  6.98
Si 13.32  1.05  0.73
Si  1.84 -1.16 13.23
Si -11.46  6.60 -2.31
Si  0.02 13.23 -2.31
Si  1.84 12.10 -5.52
Si -5.74 -3.30 -11.69
Si  0.05  6.70 -11.65
Si  9.56 -7.72 -5.44
