500
set: 1400.00  0.00  0.00
Si  0.78 -0.57 -1.36
Si  1.56 -0.57  0.74
Si -1.29 -1.94 -0.93
Si  0.15 -0.80  2.50
Si -1.99  1.95 -0.93
Si  0.52  1.56 -2.71
Si  2.67  1.57  0.94
Si -2.65 -0.07 -1.87
Si -1.73  0.81  2.70
Si  0.86  3.32  0.74
Si -2.50 -2.32  0.94
Si  0.08  3.32 -1.36
Si -3.19  1.57  0.94
Si  3.21 -0.07 -1.87
Si  1.21 -2.33 -2.71
Si -0.54  3.09  2.50
Si  3.36 -2.32  0.94
Si -1.04 -3.08  2.70
Si -4.31 -0.57  0.74
Si  3.88  1.95 -0.93
Si  2.14 -0.61  3.87
Si -1.46  1.37 -4.08
Si -2.65 -0.91 -3.88
Si -1.96 -3.96 -1.87
Si -0.77 -2.52 -4.08
Si  1.47 -4.46 -1.36
Si  2.52  3.82 -1.87
Si  4.13  0.81  2.70
Si  2.25 -4.46  0.74
Si  4.57 -1.94 -0.93
Si  3.21 -0.91 -3.88
Si  1.44  3.28  3.87
Si -1.73  1.65  4.71
Si -5.09 -0.57 -1.36
Si -1.04 -2.24  4.71
Si  0.84 -4.69  2.50
Si -3.73 -0.61  3.87
Si -3.35  3.82 -1.87
Si  2.52  2.98 -3.88
Si  1.70  1.15  5.22
Si -0.37 -0.22  5.65
Si -3.62 -4.46  0.74
Si  3.91 -3.96 -1.87
Si -4.65 -2.33 -2.71
Si  1.98  5.46  0.94
Si  1.75 -0.15 -5.64
Si -3.35  2.98 -3.88
Si -0.60 -5.83 -0.93
Si -2.42  4.71  2.70
Si -5.00  3.32  0.74
Si -0.06  1.60 -5.84
Si -0.17  5.45 -2.71
Si  4.40  1.37 -4.08
Si -5.34  1.56 -2.71
Si -5.71 -0.80  2.50
Si  0.64 -2.29 -5.84
Si  4.83 -3.08  2.70
Si  2.39 -2.74  5.22
Si -4.40 -4.46 -1.36
Si  3.44  4.71  2.70
Si -1.96 -4.80 -3.88
Si  4.14  1.65  4.71
Si -2.68  5.84 -0.93
Si -1.81 -6.21  0.94
Si  6.02 -0.80  2.50
Si  2.83 -4.50  3.87
Si  5.33  3.09  2.50
Si -3.04 -4.50  3.87
Si  3.19  5.84 -0.93
Si -4.42  3.28  3.87
Si -3.89  5.46  0.94
Si -4.17  1.15  5.22
Si  6.64 -0.57 -1.36
Si -5.78  3.32 -1.36
Si -1.06  3.67  5.65
Si -3.47 -2.74  5.22
Si  1.06  3.74 -5.64
Si  5.95  3.32 -1.36
Si -4.12 -0.15 -5.64
Si  0.32 -4.11  5.65
Si -2.16  5.26 -4.08
Si  5.09 -2.52 -4.08
Si  1.91 -6.22 -2.71
Si  4.83 -2.24  4.71
Si  6.39  1.56 -2.71
Si  0.17  7.21  0.74
Si  3.90 -4.80 -3.88
Si -5.02 -4.69  2.50
Si  1.01  5.04  5.22
Si  2.44 -4.04 -5.64
Si -0.61  7.21 -1.36
Si -7.16 -1.94 -0.93
Si  4.06 -6.21  0.94
Si -0.35 -6.97  2.70
Si  7.42 -0.57  0.74
Si -1.23  6.98  2.50
Si -6.41  3.09  2.50
Si  6.73  3.32  0.74
Si -0.08 -6.41 -4.08
Si  3.71  5.26 -4.08
Si -2.42  5.54  4.71
Si -1.58 -0.60  7.52
Si -0.34 -6.13  4.71
Si -3.42 -4.04 -5.64
Si  2.48  1.15  7.32
Si -3.96 -6.22 -2.71
Si  5.49 -0.22  5.65
Si  5.26 -5.83 -0.93
Si  7.08 -2.33 -2.71
Si -6.91 -3.08  2.70
Si  3.44  5.54  4.71
Si -0.75  5.50 -5.84
Si -2.91  0.23 -7.51
Si  2.96  0.23 -7.51
Si  1.82  6.88 -3.88
Si -7.60  0.81  2.70
Si -0.84  1.60 -7.94
Si -7.85  1.95 -0.93
Si  1.83  7.71 -1.87
Si -3.38  1.15  7.32
Si -5.23 -2.29 -5.84
Si -1.27 -7.85 -1.87
Si  0.75  7.17  3.87
Si -6.64 -2.52 -4.08
Si -0.15 -2.29 -7.94
Si -2.69 -2.74  7.32
Si  4.80  3.67  5.65
Si -4.81  3.74 -5.64
Si  5.69  5.45 -2.71
Si  5.81  1.60 -5.84
Si -6.24 -0.22  5.65
Si  3.17 -2.74  7.32
Si -5.92  1.60 -5.84
Si -7.33  1.37 -4.08
Si -2.27  3.29  7.52
Si  6.71 -4.69  2.50
Si -6.04  5.45 -2.71
Si  1.33 -6.18 -5.84
Si -2.22 -3.66 -7.51
Si -6.90 -2.24  4.71
Si  4.29 -0.60  7.52
Si  7.33 -4.46 -1.36
Si -8.52 -0.07 -1.87
Si -4.86  5.04  5.22
Si  8.54  1.57  0.94
Si -8.37 -2.32  0.94
Si  2.16 -8.35 -1.36
Si  4.63  6.98  2.50
Si -6.47 -5.83 -0.93
Si -0.89 -4.49  7.52
Si  1.60  2.10 -8.45
Si  2.26  4.12 -7.51
Si -4.04  6.88 -3.88
Si -2.92 -8.35  0.74
Si  2.94 -8.35  0.74
Si -2.78 -6.63  5.22
Si  7.31  3.28  3.87
Si -4.04  7.71 -1.87
Si  8.00 -0.61  3.87
Si -5.54 -4.11  5.65
Si  2.29 -1.79 -8.45
Si  3.59  3.29  7.52
Si -7.83 -3.96 -1.87
Si  3.08 -6.63  5.22
Si  5.26  7.21 -1.36
Si  6.50 -2.29 -5.84
Si  1.79  5.04  7.32
Si  1.54 -8.59  2.50
Si -7.59  1.65  4.71
Si  3.65 -3.66 -7.51
Si  1.08  0.92  9.08
Si -5.69  7.21  0.74
Si -3.70 -8.35 -1.36
Si -9.06  1.57  0.94
Si  7.57  1.15  5.22
Si  9.08 -0.07 -1.87
Si  4.60 -7.85 -1.87
Si  8.12 -4.46  0.74
Si  5.52 -6.97  2.70
Si -3.60  4.12 -7.51
Si -0.40 -0.16 -9.29
Si  6.19 -4.11  5.65
Si -3.58 -1.79 -8.45
Si -0.12 -1.36  9.28
Si  8.39  3.82 -1.87
Si -8.52 -0.91 -3.88
Si  2.75  8.60  2.70
Si  6.04  7.21  0.74
Si  7.61 -0.15 -5.64
Si  1.29  9.36  0.94
Si  5.52 -6.13  4.71
Si  0.36  7.63 -5.64
Si  5.12  5.50 -5.84
Si -2.34 -8.39  3.87
Si -3.12  8.60  2.70
Si  5.03  1.60 -7.94
Si  5.79 -6.41 -4.08
Si  9.23 -2.32  0.94
Si -1.27 -8.69 -3.88
Si -1.76  7.56  5.65
Si  7.84  5.46  0.94
Si -5.12  7.17  3.87
Si -4.54 -6.18 -5.84
Si -5.94 -6.41 -4.08
Si -0.81  2.53  9.28
Si -6.93  3.67  5.65
Si  6.92  3.74 -5.64
Si -4.27  2.10 -8.45
Si  8.38  2.98 -3.88
Si -6.21 -6.97  2.70
Si  1.77 -2.98  9.08
Si  0.09 -9.72 -0.93
Si -0.86  9.34 -2.71
Si -1.53  5.49 -7.94
Si -4.08  5.04  7.32
Si -6.47  7.21 -1.36
Si  1.01 -8.00  5.65
Si  3.52 -8.39  3.87
Si -8.29  4.71  2.70
Si  9.08 -0.91 -3.88
Si -6.21 -6.13  4.71
Si -7.67 -6.21  0.94
Si -4.33 -8.59  2.50
Si -7.83 -4.80 -3.88
Si  9.74  1.95 -0.93
Si  6.87  5.04  5.22
Si  5.72 -2.29 -7.94
Si  4.98 -4.49  7.52
Si -1.10  3.73 -9.29
Si -2.00 -6.63  7.32
Si  0.55 -6.18 -7.94
Si  2.49  9.73 -0.93
Si -2.73 -7.93 -5.64
Si  0.29 -4.05 -9.29
Si  8.26 -2.74  5.22
Si -9.21  3.82 -1.87
Si -1.12 -10.10  0.94
Si -10.17 -0.57  0.74
Si -6.01 -2.29 -7.94
Si  3.13 -7.93 -5.64
Si -7.10  6.98  2.50
Si  0.38  4.81  9.08
Si  4.11  7.56  5.65
Si -4.79  0.92  9.08
Si  7.77 -6.22 -2.71
Si -3.37  9.73 -0.93
Si  0.31  8.93  5.22
Si -9.60 -0.61  3.87
Si 10.00  0.81  2.70
Si -6.62  5.50 -5.84
Si -8.54  5.84 -0.93
Si -4.10 -2.98  9.08
Si  0.91  6.00 -8.45
Si -2.85  9.15 -4.08
Si -8.02  5.26 -4.08
Si -9.21  2.98 -3.88
Si -4.58  9.36  0.94
Si  3.02  9.15 -4.08
Si  6.62  7.17  3.87
Si -9.48 -4.46  0.74
Si -6.71  1.60 -7.94
Si  8.69 -4.50  3.87
Si  4.60 -8.69 -3.88
Si -2.88 -5.68 -8.45
Si  4.33  5.49 -7.94
Si -7.44 -0.60  7.52
Si  3.87 -6.63  7.32
Si  2.98 -5.68 -8.45
Si  1.59  1.26 -10.46
Si 10.44 -1.94 -0.93
Si  0.58 -5.25  9.28
Si -8.90 -4.50  3.87
Si  9.77 -3.96 -1.87
Si -1.52 -7.55 -7.51
Si -7.13 -7.85 -1.87
Si  9.31  4.71  2.70
Si  5.46 -0.16 -9.29
Si  2.60 -10.11 -2.71
Si  2.90  7.18  7.52
Si -2.96  7.18  7.52
Si  9.05  5.84 -0.93
Si  8.31 -4.04 -5.64
Si  5.06  2.53  9.28
Si -2.81  1.11 10.44
Si  2.75  9.44  4.71
Si -2.39 -0.35 -10.65
Si -4.85 -8.00  5.65
Si  5.00  9.34 -2.71
Si  3.06  1.11 10.44
Si -3.27 -10.11 -2.71
Si -5.50  7.63 -5.64
Si -3.12  9.44  4.71
Si  5.75 -1.36  9.28
Si -2.11 -2.78 10.44
Si  7.69  6.88 -3.88
Si  2.29 -2.63 -10.46
Si -8.29  5.54  4.71
Si -9.34 -2.74  5.22
Si -10.96 -0.57 -1.36
Si  7.69  7.71 -1.87
Si -6.75 -4.49  7.52
Si  0.35 -10.02  4.71
Si  4.77  3.73 -9.29
Si  1.57  8.02 -7.51
Si  0.61 -10.30 -4.08
Si -10.52 -2.33 -2.71
Si -5.98 -1.36  9.28
Si 10.27  1.37 -4.08
Si  7.19 -6.18 -5.84
Si -0.52 11.11  0.74
Si -1.44  9.39 -5.84
Si  8.35  1.15  7.32
Si 10.00  1.65  4.71
Si  0.35 -10.86  2.70
Si  4.75 -10.10  0.94
Si -6.27 -0.16 -9.29
Si  3.48 -0.35 -10.65
Si -9.75  5.46  0.94
Si -0.19 -8.38  7.52
Si -1.30 11.10 -1.36
Si -10.26 -4.46 -1.36
Si -0.11 -0.52 11.28
Si -1.93 10.87  2.50
Si -5.77 -9.72 -0.93
Si  6.23  7.63 -5.64
Si -3.58 -2.63 -10.46
Si -10.03  1.15  5.22
Si -4.27  1.26 -10.46
Si -5.32 -6.18 -7.94
Si -1.50  6.42  9.28
Si -10.87  3.32  0.74
Si  5.96 -9.72 -0.93
Si  3.75 -2.78 10.44
Si 10.69 -3.08  2.70
Si  6.94  0.92  9.08
Si -9.98 -0.15 -5.64
Si -10.29  3.28  3.87
Si  7.46  2.10 -8.45
Si -4.96  6.00 -8.45
Si  4.34 -7.55 -7.51
Si  1.13 10.77 -3.88
Si -8.78  0.23 -7.51
Si  9.77 -4.80 -3.88
Si -8.14  3.29  7.52
Si  2.79  3.54 -10.65
Si -5.58 -4.05 -9.29
Si  8.82  0.23 -7.51
Si -8.56 -2.74  7.32
Si -1.69 -4.24 -10.65
Si -9.29 -4.04 -5.64
Si  1.09  8.94  7.32
Si  7.40 -8.59  2.50
Si -8.08 -3.66 -7.51
Si -11.21  1.56 -2.71
Si -3.08  3.54 -10.65
Si -5.48  4.81  9.08
Si  2.46 -6.87  9.08
Si  9.57  5.26 -4.08
Si  8.03 -8.35 -1.36
Si  0.90  5.16 -10.46
Si -6.67  2.53  9.28
Si  0.06 11.06  3.87
Si  7.65  5.04  7.32
Si -5.55  8.93  5.22
Si  9.92 -6.21  0.94
Si -4.29  8.02 -7.51
Si -0.81  3.37 11.28
Si  8.13  4.12 -7.51
Si  1.14 11.61 -1.87
Si  2.02 -10.07 -5.84
Si  7.15  9.36  0.94
Si  9.31  5.54  4.71
Si  2.37  5.00 10.44
Si  3.94 10.87  2.50
Si -6.73  9.34 -2.71
Si -9.25  1.15  7.32
Si  6.16 -4.05 -9.29
Si -11.58 -0.80  2.50
Si 11.19  3.09  2.50
Si  8.16 -1.79 -8.45
Si -3.40 -6.87  9.08
Si -7.13 -8.69 -3.88
Si 10.70 -2.24  4.71
Si -5.29 -5.25  9.28
Si -0.57 -11.74 -1.87
Si  4.42  9.39 -5.84
Si -2.09 -10.52  5.22
Si  6.41 -6.18 -7.94
Si -9.82 -6.22 -2.71
Si  9.04 -2.74  7.32
Si 10.96 -2.52 -4.08
Si  6.88 -8.00  5.65
Si  6.25  4.81  9.08
Si  6.18  8.93  5.22
Si  4.56 11.10 -1.36
Si -8.65 -6.63  5.22
Si -3.50  5.00 10.44
Si  4.36  6.42  9.28
Si -2.55 -1.02 11.79
Si -10.89 -4.69  2.50
Si  0.58 -4.41 11.28
Si -7.62  7.56  5.65
Si -8.79 -8.35  0.74
Si -1.79  7.62 -9.29
Si  8.81 -8.35  0.74
Si -7.40  5.49 -7.94
Si 11.88 -0.80  2.50
Si -11.65  3.32 -1.36
Si -6.96  3.73 -9.29
Si  4.17 -4.24 -10.65
Si  7.63 -2.98  9.08
Si -3.85 -10.07 -5.84
Si -5.25 -10.30 -4.08
Si  0.98 -7.94 -9.29
Si  3.31 -1.02 11.79
Si  8.95 -6.63  5.22
Si -6.98 -10.10  0.94
Si  0.55  1.50 12.23
Si  3.78 -10.52  5.22
Si  5.34 11.11  0.74
Si 11.81  3.32 -1.36
Si -8.21 -8.39  3.87
Si -5.52 -10.02  4.71
Si  6.77  6.00 -8.45
Si -4.73 10.77 -3.88
Si  0.13  2.02 -12.22
Si  0.82 -1.87 -12.22
Si  2.62  2.87 11.79
Si -0.98 -0.12 -12.41
Si  6.44 -5.25  9.28
Si -2.23 -12.24  0.74
Si  8.61  8.60  2.70
Si -1.42 -6.67 10.44
Si -5.52 -10.86  2.70
Si -2.23  9.38 -7.94
Si -4.77  8.94  7.32
Si  1.25 -2.39 12.23
Si  9.46  3.29  7.52
Si -3.24  2.87 11.79
Si -0.31  8.70  9.08
Si 12.51 -0.57 -1.36
Si 11.13 -5.83 -0.93
Si  5.67 -8.38  7.52
Si 10.67  3.67  5.65
Si -7.87 -6.63  7.32
Si -10.68  3.74 -5.64
Si 12.25  1.56 -2.71
Si  2.85 -12.24 -1.36
Si 10.15 -0.60  7.52
Si -2.88 -6.52 -10.46
Si  9.51 -3.66 -7.51
Si -9.91  6.88 -3.88
Si -4.73 11.61 -1.87
Si -4.96  5.16 -10.46
Si  5.75 -0.52 11.28
Si  2.98 -6.52 -10.46
Si -3.01 -12.24 -1.36
Si 11.36 -0.22  5.65
Si  4.08  7.62 -9.29
Si -9.90  7.71 -1.87
Si  6.21 -10.02  4.71
Si -8.98  8.60  2.70
Si -11.10 -2.29 -5.84
Si -9.47  4.12 -7.51
Si -9.57 -8.35 -1.36
Si -5.98 -0.52 11.28
Si -6.06 -8.38  7.52
Si  3.64 -12.24  0.74
Si -9.44 -1.79 -8.45
Si  6.21 -10.86  2.70
Si  5.06  3.37 11.28
Si  3.64  9.38 -7.94
Si -6.39 11.11  0.74
Si -0.33 11.53 -5.64
Si  6.48 -10.30 -4.08
Si 10.50  6.98  2.50
Si  8.36  9.73 -0.93
Si -1.31 -10.52  7.32
Si  1.24 -10.07 -7.94
Si -12.27  3.09  2.50
Si  7.46  1.26 -10.46
Si -1.86 -4.91 11.79
Si  2.23 -12.48  2.50
Si  2.06 12.49  2.70
Si -10.72  5.04  5.22
Si -2.19 -9.57 -8.45
Si -7.39 -7.55 -7.51
Si -1.65 -12.28  3.87
Si -8.60 -7.93 -5.64
Si -2.45 11.46  5.65
Si  0.21  9.89 -8.45
Si  5.29 -11.74 -1.87
Si 12.60  3.32  0.74
Si -0.29 -4.01 -12.41
Si 11.56  5.45 -2.71
Si -5.81 11.06  3.87
Si -1.67  3.77 -12.41
Si  1.27 -9.14  9.28
Si  5.92 11.06  3.87
Si 11.67  1.60 -5.84
