500
set: 576.00  0.00  0.00
Si  0.00  0.00  0.00
Si  0.05 -0.13 -2.18
Si -1.79  1.05  0.74
Si  0.04 -2.09  0.74
Si  1.82  1.05  0.74
Si -0.01 -1.96  2.92
Si  0.01  1.96 -2.92
Si  3.61  0.00  0.00
Si -3.61  0.00  0.00
Si -1.78 -3.14  0.00
Si  1.78  3.14  0.00
Si -1.77 -1.18 -2.92
Si  1.77  1.18  2.92
Si  1.83 -3.14  0.00
Si -1.83  3.14  0.00
Si -1.84  1.18  2.92
Si  1.84 -1.18 -2.92
Si -1.78  3.01 -2.18
Si  1.83  3.01 -2.18
Si -3.56 -0.13 -2.18
Si -1.80 -0.92  3.67
Si  1.80 -0.92  3.67
Si -3.57 -2.09  0.74
Si -0.01  4.19  0.74
Si  3.65 -0.13 -2.18
Si  3.64 -2.09  0.74
Si -0.02  2.23  3.67
Si -1.73 -3.27 -2.18
Si  1.88 -3.27 -2.18
Si  3.60 -1.96  2.92
Si -3.60  1.96 -2.92
Si -3.62 -1.96  2.92
Si  3.62  1.96 -2.92
Si -0.06  4.32  2.92
Si  0.06 -4.32 -2.92
Si  0.06  1.83 -5.11
Si  0.03 -4.06  3.67
Si -1.72 -1.30 -5.11
Si -5.40  1.05  0.74
Si -1.74 -5.23  0.74
Si  3.60  4.19  0.74
Si  5.42  1.05  0.74
Si -3.62  4.19  0.74
Si  3.58  2.23  3.67
Si  1.89 -1.30 -5.11
Si  1.86 -5.23  0.74
Si -3.63  2.23  3.67
Si  1.79  5.10 -2.92
Si -1.79 -5.10  2.92
Si  1.76 -0.79  5.85
Si -1.76  0.79 -5.85
Si  1.82 -5.10  2.92
Si -1.82  5.10 -2.92
Si  1.85  0.79 -5.85
Si -1.85 -0.79  5.85
Si -5.38 -1.18 -2.92
Si  5.38  1.18  2.92
Si -5.39 -3.14  0.00
Si  5.39  3.14  0.00
Si -5.43  3.14  0.00
Si  5.43 -3.14  0.00
Si -0.05  6.28  0.00
Si  0.05 -6.28  0.00
Si -5.45  1.18  2.92
Si  5.45 -1.18 -2.92
Si  0.07 -2.35 -5.85
Si -0.07  2.35  5.85
Si -3.55 -4.32 -2.92
Si  3.55  4.32  2.92
Si -3.67  4.32  2.92
Si  3.67 -4.32 -2.92
Si -3.55  1.83 -5.11
Si  0.00  6.15 -2.18
Si -3.58 -4.06  3.67
Si -5.39  3.01 -2.18
Si  3.67  1.83 -5.11
Si  3.63 -4.06  3.67
Si  5.43  3.01 -2.18
Si -0.03  0.26  6.59
Si -5.41 -0.92  3.67
Si  5.41 -0.92  3.67
Si -5.34 -3.27 -2.18
Si  1.76  5.37  3.67
Si  5.48 -3.27 -2.18
Si -1.85  5.37  3.67
Si  0.11 -4.45 -5.11
Si  0.10 -6.41 -2.18
Si  0.02  3.93 -5.85
Si -0.02 -3.93  5.85
Si -7.21  0.00  0.00
Si  7.21  0.00  0.00
Si  3.56  6.28  0.00
Si -3.56 -6.28  0.00
Si  3.54  2.35  5.85
Si -3.54 -2.35 -5.85
Si -3.65  6.28  0.00
Si  3.65 -6.28  0.00
Si  3.68 -2.35 -5.85
Si -3.68  2.35  5.85
Si -1.77  4.98 -5.11
Si  1.84  4.98 -5.11
Si  1.79 -2.88  6.59
Si -1.81 -2.88  6.59
Si -3.61  6.15 -2.18
Si  3.61  6.15 -2.18
Si -7.17 -0.13 -2.18
Si -5.33 -1.30 -5.11
Si  3.57  0.26  6.59
Si -7.18 -2.09  0.74
Si -5.35 -5.23  0.74
Si -3.64  0.26  6.59
Si  1.77  7.33  0.74
Si  7.25 -2.09  0.74
Si  7.26 -0.13 -2.18
Si -1.84  7.33  0.74
Si  5.47 -5.23  0.74
Si  5.49 -1.30 -5.11
Si  1.75  3.40  6.59
Si -3.50 -4.45 -5.11
Si -3.51 -6.41 -2.18
Si -1.86  3.40  6.59
Si  3.70 -6.41 -2.18
Si  3.71 -4.45 -5.11
Si  3.58 -3.93  5.85
Si -3.58  3.93 -5.85
Si -3.63 -3.93  5.85
Si  3.63  3.93 -5.85
Si  5.36 -0.79  5.85
Si -5.36  0.79 -5.85
Si -5.40 -5.10  2.92
Si  5.40  5.10 -2.92
Si  5.42 -5.10  2.92
Si -5.42  5.10 -2.92
Si -7.20  1.96 -2.92
Si  7.20 -1.96  2.92
Si -5.46 -0.79  5.85
Si  5.46  0.79 -5.85
Si -7.22 -1.96  2.92
Si  7.22  1.96 -2.92
Si  1.72  7.46  2.92
Si -1.72 -7.46 -2.92
Si  1.71  5.50  5.85
Si -1.71 -5.50 -5.85
Si  1.89 -7.46 -2.92
Si -1.89  7.46  2.92
Si -1.71  0.66 -8.03
Si  1.90 -5.50 -5.85
Si -1.90  5.50  5.85
Si -1.75 -7.20  3.67
Si  1.90  0.66 -8.03
Si  1.85 -7.20  3.67
Si  7.20  4.19  0.74
Si  7.19  2.23  3.67
Si -7.22  4.19  0.74
Si  0.12 -2.48 -8.03
Si  0.09 -8.37  0.74
Si -7.24  2.23  3.67
Si  5.36  5.37  3.67
Si -5.46  5.37  3.67
Si -0.04  8.24 -2.92
Si  0.04 -8.24  2.92
Si  0.08 -0.39 -8.77
Si -0.08  0.39  8.77
Si  7.15  4.32  2.92
Si -7.15 -4.32 -2.92
Si  0.07  3.80 -8.03
Si  0.01 -6.02  6.59
Si -5.38  4.98 -5.11
Si -7.27  4.32  2.92
Si  7.27 -4.32 -2.92
Si  5.45  4.98 -5.11
Si -7.15  1.83 -5.11
Si  5.40 -2.88  6.59
Si -5.42 -2.88  6.59
Si -7.19 -4.06  3.67
Si  7.24 -4.06  3.67
Si  7.27  1.83 -5.11
Si -9.00  1.05  0.74
Si -3.49 -2.48 -8.03
Si -3.52 -8.37  0.74
Si  5.38  7.33  0.74
Si  9.03  1.05  0.74
Si  5.35  3.40  6.59
Si -5.45  7.33  0.74
Si  3.69 -8.37  0.74
Si  3.73 -2.48 -8.03
Si -5.47  3.40  6.59
Si -0.07  8.51  3.67
Si -0.08  6.54  6.59
Si -1.67 -7.59 -5.11
Si  1.94 -7.59 -5.11
Si -1.80 -7.07  5.85
Si  1.80  7.07 -5.85
Si  1.80 -7.07  5.85
Si -1.80  7.07 -5.85
Si  1.75 -2.75  8.77
Si -1.75  2.75 -8.77
Si -1.86 -2.75  8.77
Si  1.86  2.75 -8.77
Si -3.57 -8.24  2.92
Si  3.57  8.24 -2.92
Si  3.52  0.39  8.77
Si -3.52 -0.39 -8.77
Si -3.64  8.24 -2.92
Si  3.64 -8.24  2.92
Si -8.98 -1.18 -2.92
Si  8.98  1.18  2.92
Si  3.69 -0.39 -8.77
Si -3.69  0.39  8.77
Si  8.99  3.14  0.00
Si -8.99 -3.14  0.00
Si -7.14 -2.35 -5.85
Si  7.14  2.35  5.85
Si -7.17 -6.28  0.00
Si  7.17  6.28  0.00
Si -3.54  3.80 -8.03
Si -9.04  3.14  0.00
Si  9.04 -3.14  0.00
Si  1.73  9.42  0.00
Si -1.73 -9.42  0.00
Si -9.05  1.18  2.92
Si  9.05 -1.18 -2.92
Si  0.01  8.12 -5.11
Si -7.26  6.28  0.00
Si  7.26 -6.28  0.00
Si  1.70  3.53  8.77
Si -1.70 -3.53 -8.77
Si  1.88 -9.42  0.00
Si -1.88  9.42  0.00
Si  3.68  3.80 -8.03
Si  5.33  7.46  2.92
Si -5.33 -7.46 -2.92
Si -3.59 -6.02  6.59
Si -5.32 -5.50 -5.85
Si  5.32  5.50  5.85
Si  3.62 -6.02  6.59
Si  7.28 -2.35 -5.85
Si -7.28  2.35  5.85
Si -1.91  3.53  8.77
Si  1.91 -3.53 -8.77
Si -5.32  0.66 -8.03
Si -0.04 -1.70  9.51
Si -5.36 -7.20  3.67
Si  1.78  9.29 -2.18
Si  5.49 -7.46 -2.92
Si -5.49  7.46  2.92
Si -1.83  9.29 -2.18
Si -7.21  6.15 -2.18
Si  7.21  6.15 -2.18
Si -5.50  5.50  5.85
Si  5.50 -5.50 -5.85
Si -8.99  3.01 -2.18
Si  5.46 -7.20  3.67
Si  7.18  0.26  6.59
Si  5.50  0.66 -8.03
Si -8.94 -3.27 -2.18
Si -9.02 -0.92  3.67
Si  9.04  3.01 -2.18
Si  1.74  1.44  9.51
Si  9.02 -0.92  3.67
Si -7.25  0.26  6.59
Si -1.87  1.44  9.51
Si -7.11 -4.45 -5.11
Si -7.12 -6.41 -2.18
Si  9.09 -3.27 -2.18
Si  3.54  8.51  3.67
Si  3.52  6.54  6.59
Si -1.68 -9.55 -2.18
Si -1.66 -5.62 -8.03
Si  7.31 -6.41 -2.18
Si -3.68  8.51  3.67
Si  7.32 -4.45 -5.11
Si  1.92 -9.55 -2.18
Si -3.69  6.54  6.59
Si  1.95 -5.62 -8.03
Si -7.19  3.93 -5.85
Si  7.19 -3.93  5.85
Si -7.24 -3.93  5.85
Si  7.24  3.93 -5.85
Si -3.60  8.12 -5.11
Si  3.62  8.12 -5.11
Si  3.56 -1.70  9.51
Si -3.65 -1.70  9.51
Si -8.93 -1.30 -5.11
Si -8.96 -5.23  0.74
Si  0.12 -8.63 -5.85
Si -0.12  8.63  5.85
Si -0.06 10.47  0.74
Si  9.08 -5.23  0.74
Si  9.10 -1.30 -5.11
Si -0.09  4.58  9.51
Si -5.28 -7.59 -5.11
Si -0.03 -5.89  8.77
Si  0.03  5.89 -8.77
Si -5.35  2.75 -8.77
Si  5.35 -2.75  8.77
Si -5.41 -7.07  5.85
Si  5.41  7.07 -5.85
Si  5.41 -7.07  5.85
Si -5.41  7.07 -5.85
Si  5.54 -7.59 -5.11
Si  5.47  2.75 -8.77
Si -5.47 -2.75  8.77
Si -8.97  0.79 -5.85
Si  8.97 -0.79  5.85
Si  9.00  5.10 -2.92
Si -9.00 -5.10  2.92
Si -1.76  6.94 -8.03
Si  1.85  6.94 -8.03
Si  9.03 -5.10  2.92
Si -9.03  5.10 -2.92
Si -9.06 -0.79  5.85
Si  9.06  0.79 -5.85
Si 10.82  0.00  0.00
Si -10.82  0.00  0.00
Si  1.78 -4.84  9.51
Si  5.34  9.42  0.00
Si -5.34 -9.42  0.00
Si -1.82 -4.84  9.51
Si  5.30  3.53  8.77
Si -5.30 -3.53 -8.77
Si  5.48 -9.42  0.00
Si -5.48  9.42  0.00
Si -5.51  3.53  8.77
Si  5.51 -3.53 -8.77
Si  5.39  9.29 -2.18
Si  0.13 -0.52 -10.95
Si  0.07 -10.34  3.67
Si -5.43  9.29 -2.18
Si -10.77 -0.13 -2.18
Si -0.11 10.60  2.92
Si  0.11 -10.60 -2.92
Si -3.49 -8.63 -5.85
Si  3.49  8.63  5.85
Si -7.09 -2.48 -8.03
Si  5.34  1.44  9.51
Si -10.78 -2.09  0.74
Si  0.13 -6.67 -8.77
Si -0.13  6.67  8.77
Si -7.13 -8.37  0.74
Si -5.48  1.44  9.51
Si  3.73 -8.63 -5.85
Si -3.73  8.63  5.85
Si  8.97  5.37  3.67
Si  3.55 10.47  0.74
Si 10.86 -2.09  0.74
Si 10.87 -0.13 -2.18
Si -3.67 10.47  0.74
Si  3.51  4.58  9.51
Si -5.27 -5.62 -8.03
Si  7.30 -8.37  0.74
Si -5.29 -9.55 -2.18
Si -9.06  5.37  3.67
Si  7.33 -2.48 -8.03
Si  3.57 -5.89  8.77
Si -3.57  5.89 -8.77
Si -3.64 -5.89  8.77
Si  3.64  5.89 -8.77
Si -3.70  4.58  9.51
Si  5.53 -9.55 -2.18
Si  5.55 -5.62 -8.03
Si  7.13  0.39  8.77
Si -7.13 -0.39 -8.77
Si -7.18 -8.24  2.92
Si  7.18  8.24 -2.92
Si -7.25  8.24 -2.92
Si  7.25 -8.24  2.92
Si -10.81  1.96 -2.92
Si 10.81 -1.96  2.92
Si 10.83  1.96 -2.92
Si -10.83 -1.96  2.92
Si -1.70  2.62 -10.95
Si -7.14  3.80 -8.03
Si -7.29  0.39  8.77
Si  7.29 -0.39 -8.77
Si -1.76 -9.16  6.59
Si  1.91  2.62 -10.95
Si  1.84 -9.16  6.59
Si -7.20 -6.02  6.59
Si -8.98  4.98 -5.11
Si  7.23 -6.02  6.59
Si  7.28  3.80 -8.03
Si -3.48 -0.52 -10.95
Si  9.05  4.98 -5.11
Si -3.53 -10.34  3.67
Si  9.01 -2.88  6.59
Si -3.50 -10.60 -2.92
Si  3.50 10.60  2.92
Si -9.03 -2.88  6.59
Si  3.48  6.67  8.77
Si -3.48 -6.67 -8.77
Si  3.68 -10.34  3.67
Si  3.74 -0.52 -10.95
Si -3.71 10.60  2.92
Si  3.71 -10.60 -2.92
Si 10.81  4.19  0.74
Si  8.98  7.33  0.74
Si 10.80  2.23  3.67
Si  8.96  3.40  6.59
Si -10.83  4.19  0.74
Si -3.74  6.67  8.77
Si  3.74 -6.67 -8.77
Si -10.84  2.23  3.67
Si -1.69 -11.51  0.74
Si -1.65 -3.66 -10.95
Si -9.05  7.33  0.74
Si  1.91 -11.51  0.74
Si  7.14  8.51  3.67
Si  7.13  6.54  6.59
Si  1.96 -3.66 -10.95
Si -9.07  3.40  6.59
Si  0.03 -10.21  5.85
Si -0.03 10.21 -5.85
Si -7.28  8.51  3.67
Si -0.09 -1.57 11.70
Si  0.09  1.57 -11.70
Si -7.29  6.54  6.59
Si  1.70  9.68  6.59
Si -1.91  9.68  6.59
Si  0.15 -10.73 -5.11
Si -1.74 -11.39  2.92
Si  1.74 11.39 -2.92
Si  0.17 -8.76 -8.03
Si -5.36  6.94 -8.03
Si -1.86 11.39 -2.92
Si  1.86 -11.39  2.92
Si  1.69  1.57 11.70
Si -1.69 -1.57 -11.70
Si  5.46  6.94 -8.03
Si  1.92 -1.57 -11.70
Si -1.92  1.57 11.70
Si -10.76 -4.32 -2.92
Si 10.76  4.32  2.92
Si  5.39 -4.84  9.51
Si -5.43 -4.84  9.51
Si -7.20  8.12 -5.11
Si -8.93 -7.46 -2.92
Si  8.93  7.46  2.92
Si  8.92  5.50  5.85
Si -8.92 -5.50 -5.85
Si  7.22  8.12 -5.11
Si -8.92  0.66 -8.03
Si  7.17 -1.70  9.51
Si -10.76  1.83 -5.11
Si -10.88  4.32  2.92
Si 10.88 -4.32 -2.92
Si -8.97 -7.20  3.67
Si -7.26 -1.70  9.51
Si -10.79 -4.06  3.67
Si -9.10  7.46  2.92
Si  9.10 -7.46 -2.92
Si -9.11  5.50  5.85
Si  9.11 -5.50 -5.85
Si  9.07 -7.20  3.67
Si 10.85 -4.06  3.67
Si 10.88  1.83 -5.11
Si  9.11  0.66 -8.03
Si -3.58 -10.21  5.85
Si  3.58 10.21 -5.85
Si  3.51 -1.57 11.70
Si -3.51  1.57 -11.70
Si  3.63 -10.21  5.85
Si -3.63 10.21 -5.85
Si  1.71 11.65  3.67
Si -1.90 11.65  3.67
Si -3.70 -1.57 11.70
Si  3.70  1.57 -11.70
Si  1.69  7.72  9.51
Si -3.45 -10.73 -5.11
Si -3.44 -8.76 -8.03
Si  0.08  5.76 -10.95
Si -1.92  7.72  9.51
Si  0.00 -7.98  9.51
Si -5.30  2.62 -10.95
Si -10.75 -2.35 -5.85
Si 10.75  2.35  5.85
Si  3.76 -10.73 -5.11
Si -10.77 -6.28  0.00
Si 10.77  6.28  0.00
Si  3.77 -8.76 -8.03
Si  1.79 11.26 -5.11
Si -1.82 11.26 -5.11
Si -5.37 -9.16  6.59
Si  5.45 -9.16  6.59
Si  5.51  2.62 -10.95
Si -10.87  6.28  0.00
Si 10.87 -6.28  0.00
Si -0.10 12.56  0.00
Si  0.10 -12.56  0.00
Si  1.72 -0.53 12.44
Si -10.89  2.35  5.85
Si 10.89 -2.35 -5.85
Si -1.88 -0.53 12.44
Si -0.14  4.71 11.70
Si  0.14 -4.71 -11.70
Si -7.09 -8.63 -5.85
Si  7.09  8.63  5.85
Si -0.05 12.44 -2.18
Si -10.82  6.15 -2.18
Si 10.82  6.15 -2.18
