500
set: 691.00  0.00  0.00
Si  0.87 -0.81 -0.13
Si  0.24  0.77  1.56
Si -1.29 -1.14 -0.90
Si  1.72  0.55 -1.97
Si  0.99  2.61  0.63
Si -2.08  0.96  1.80
Si -3.07  0.32 -0.19
Si  1.40 -2.94  0.62
Si -1.30 -1.21 -3.25
Si  0.71  2.99 -2.08
Si  1.65  0.17  3.38
Si -2.12 -3.23 -0.04
Si  1.57 -2.15  3.08
Si -3.14  2.32 -1.24
Si  3.43  2.24  0.87
Si -1.99  3.33  1.71
Si  4.04  0.96 -1.12
Si -1.38  1.11 -4.12
Si -1.37  3.19 -2.90
Si  1.95 -0.39 -4.09
Si -0.04 -4.69 -0.24
Si  0.09  4.63  1.42
Si  3.92  0.91  2.77
Si -3.21 -0.22  3.69
Si  3.76 -3.48  0.61
Si -0.40 -3.15  4.08
Si -2.64 -2.46  3.79
Si -3.43 -3.57  1.75
Si -3.34 -2.44 -3.40
Si -0.24 -2.77 -4.63
Si  0.48  0.90  5.45
Si -5.48 -0.78 -0.55
Si  2.08 -2.83 -4.31
Si  5.52 -0.78 -0.55
Si  0.48  0.90 -5.54
Si -3.69  4.30  0.20
Si  2.75 -4.33 -2.81
Si  0.93  3.20 -4.82
Si  1.01 -5.41 -2.04
Si  4.14  3.86 -1.67
Si -2.66  3.42  4.10
Si -3.69 -4.61 -1.02
Si  5.44 -2.28  1.16
Si  1.01  5.59 -2.04
Si -5.55 -2.28  1.16
Si -5.23  2.29 -2.31
Si  4.23 -0.37 -4.52
Si -5.44 -0.79  2.88
Si -5.29 -1.58 -2.89
Si -3.05  1.34  5.34
Si  4.80  4.06  0.49
Si  5.55 -0.79  2.88
Si -0.04  6.31 -0.24
Si -0.80 -4.92 -4.03
Si  5.03 -3.60 -1.78
Si  3.12 -3.24  4.65
Si  0.26 -5.37  3.67
Si  0.09 -6.37  1.42
Si -3.05  1.34 -5.65
Si  5.70 -1.58 -2.89
Si  5.76  2.29 -2.31
Si -3.18 -4.74 -3.40
Si  0.26  5.63  3.67
Si  3.96 -5.32  2.01
Si -0.24 -2.77  6.36
Si  4.65  2.49  4.54
Si  0.93  3.20  6.18
Si -0.89  4.34  5.47
Si -0.89  4.34 -5.52
Si -1.38  1.11  6.88
Si -6.95  0.96 -1.12
Si  1.95 -0.39  6.91
Si -5.96 -3.60 -1.78
Si  3.96  5.68  2.01
Si -5.37  1.50 -4.69
Si  2.75  5.48  4.00
Si -0.80  6.08 -4.03
Si  2.75 -5.51  4.00
Si  5.13 -1.73  4.97
Si -4.82  4.05  3.84
Si -6.20  4.06  0.49
Si -3.69  6.39 -1.02
Si -4.11 -3.10  5.42
Si  5.63  1.50 -4.69
Si  3.29  4.00 -5.46
Si  2.08 -2.83  6.68
Si  3.29  4.00  5.54
Si -4.11 -3.10 -5.58
Si -4.81 -5.50  2.07
Si -4.81  5.50  2.07
Si -0.40 -3.15 -6.91
Si  4.31  5.07 -3.73
Si -3.69 -6.70  0.20
Si -7.07  0.91  2.77
Si  2.75  6.66 -2.81
Si  4.23 -0.37  6.48
Si  3.12 -3.24 -6.34
Si -3.18  6.26 -3.40
Si  1.65  0.17 -7.62
Si -5.86 -1.73  4.97
Si  7.93  0.32 -0.19
Si -7.57  2.24  0.87
Si -1.30 -1.21  7.75
Si -3.21 -0.22 -7.30
Si -6.86  3.86 -1.67
Si -2.12  7.77 -0.04
Si -7.24 -3.48  0.61
Si -2.64 -2.46 -7.21
Si  5.13 -1.73 -6.02
Si -1.99 -7.67  1.71
Si -6.77 -0.37 -4.52
Si -2.66  3.42 -6.90
Si -6.34  2.49  4.54
Si  1.40  8.06  0.62
Si  4.31 -5.92 -3.73
Si  7.86  2.32 -1.24
Si  0.71 -8.01 -2.08
Si  6.18  4.05  3.84
Si  4.65  2.49 -6.46
Si  1.57 -2.15 -7.92
Si -3.43  7.43  1.75
Si -5.37  1.50  6.31
Si  4.14 -7.14 -1.67
Si  3.76  7.51  0.61
Si -1.37 -7.81 -2.90
Si  4.80 -6.94  0.49
Si  0.99 -8.39  0.63
Si  7.31  4.30  0.20
Si  6.19 -5.50  2.07
Si  6.19  5.50  2.07
Si  7.57 -3.57  1.75
Si -0.80 -4.92  6.97
Si -5.86 -1.73 -6.02
Si  5.63  1.50  6.31
Si  7.79 -0.22  3.69
Si -3.34 -2.44  7.60
Si -0.89 -6.66  5.47
Si  7.30 -4.61 -1.02
Si -0.89 -6.66 -5.52
Si  7.66 -2.44 -3.40
Si -1.37  3.19  8.10
Si -0.40  7.85  4.08
Si -5.02 -5.26 -5.30
Si -2.66 -7.58  4.10
Si -7.03 -5.32  2.01
Si  0.26 -5.37 -7.32
Si  5.03  7.39 -1.78
Si  8.91  0.96  1.80
Si  3.92  0.91 -8.22
Si -6.69  5.07 -3.73
Si  1.72  0.55  9.03
Si  0.93 -7.79 -4.82
Si  0.26  5.63 -7.32
Si -5.02 -5.26  5.70
Si -7.03  5.68  2.01
Si -0.80  6.08  6.97
Si -5.02  5.73 -5.30
Si -4.82 -6.95  3.84
Si  6.89 -3.10  5.42
Si  2.75  5.48 -6.99
Si -3.14 -8.68 -1.24
Si -6.20 -6.94  0.49
Si  2.75 -5.51 -6.99
Si -6.77 -0.37  6.48
Si -6.34  2.49 -6.46
Si  6.89 -3.10 -5.58
Si  0.71  2.99  8.91
Si  3.43 -8.75  0.87
Si  8.87 -3.23 -0.04
Si -0.24  8.23 -4.63
Si  3.29 -7.00 -5.46
Si  0.24  0.77 -9.43
Si  2.08  8.17 -4.31
Si -2.08  0.96 -9.19
Si  8.36 -2.46  3.79
Si -3.18 -4.74  7.60
Si  1.57  8.85  3.08
Si -9.28  0.55 -1.97
Si  3.29 -7.00  5.54
Si -5.02  5.73  5.70
Si -4.82  4.05 -7.15
Si  5.97 -5.26 -5.30
Si  3.12  7.76  4.65
Si  2.75 -4.33  8.19
Si -5.96  7.39 -1.78
Si  7.94  1.34  5.34
Si -6.69 -5.92 -3.73
Si -2.64  8.54  3.79
Si -7.88 -3.24  4.65
Si -8.25 -4.33 -2.81
Si  9.00  3.33  1.71
Si  7.82 -4.74 -3.40
Si  7.30  6.39 -1.02
Si  5.97 -5.26  5.70
Si -3.34  8.55 -3.40
Si -5.44 -0.79 -8.12
Si  9.71 -1.14 -0.90
Si -5.29 -1.58  8.11
Si  5.97  5.73 -5.30
Si  7.94  1.34 -5.65
Si  4.31  5.07  7.26
Si  5.55 -0.79 -8.12
Si  8.34  3.42  4.10
Si  7.31 -6.70  0.20
Si -9.05 -0.39 -4.09
Si -9.35  0.17  3.38
Si -1.29  9.86 -0.90
Si  0.93 -7.79  6.18
Si -6.86 -7.14 -1.67
Si  5.70 -1.58  8.11
Si  5.97  5.73  5.70
Si -9.60 -2.94  0.62
Si  6.18 -6.95  3.84
Si -1.99  3.33 -9.29
Si -9.43 -2.15  3.08
Si -10.13 -0.81 -0.13
Si  0.87 10.18 -0.13
Si -1.29 -1.14 10.10
Si -7.71  4.00 -5.46
Si  6.18  4.05 -7.15
Si -8.91 -2.83 -4.31
Si -7.71  4.00  5.54
Si  9.70 -1.21 -3.25
Si  4.31 -5.92  7.26
Si  5.44  8.71  1.16
Si -3.18  6.26  7.60
Si  0.24 -10.23  1.56
Si -10.01  2.61  0.63
Si -1.30  9.78 -3.25
Si -5.23  2.29  8.69
Si -5.55  8.71  1.16
Si -0.24  8.23  6.36
Si -2.08 -10.04  1.80
Si -4.11  7.89  5.42
Si -5.23 -8.71 -2.31
Si -7.24  7.51  0.61
Si -0.40  7.85 -6.91
Si -3.43 -3.57 -9.24
Si  3.12  7.76 -6.34
Si -4.11  7.89 -5.58
Si -3.14  2.32  9.76
Si  1.01 -5.41  8.96
Si  9.62  1.11 -4.12
Si  9.63  3.19 -2.90
Si  7.82  6.26 -3.40
Si -2.66 -7.58 -6.90
Si  1.01  5.59  8.96
Si -7.88 -3.24 -6.34
Si  0.09  4.63 -9.57
Si  5.76  2.29  8.69
Si  7.79 -0.22 -7.30
Si -8.25  5.48  4.00
Si  5.76 -8.71 -2.31
Si -8.25 -5.51  4.00
Si  4.65 -8.51  4.54
Si  4.04  0.96  9.88
Si  0.99  2.61 -10.37
Si  7.57  7.43  1.75
Si  2.08  8.17  6.68
Si  1.72 -10.45 -1.97
Si -1.38 -9.89 -4.12
Si  4.04 -10.04 -1.12
Si  1.40 -2.94 -10.38
Si -7.07  0.91 -8.22
Si -10.76  0.77  1.56
Si  2.75  6.66  8.19
Si  4.14  3.86  9.32
Si -10.29  2.99 -2.08
Si  3.43  2.24 -10.12
Si  0.87 -0.81 10.86
Si -8.25  6.66 -2.81
Si  7.66 -2.44  7.60
Si -4.82 -6.95 -7.15
Si  5.03 -3.60  9.21
Si -6.69  5.07  7.26
Si -3.07 -10.68 -0.19
Si  3.96 -5.32 -8.98
Si  3.92 -10.09  2.77
Si -5.29  9.41 -2.89
Si  0.87 -0.81 -11.13
Si -3.07  0.32 10.81
Si  8.36 -2.46 -7.21
Si -1.37 -7.81  8.10
Si  3.96  5.68 -8.98
Si  8.34  3.42 -6.90
Si 11.24  0.77  1.56
Si  5.70  9.41 -2.89
Si -9.05 -0.39  6.91
Si -3.05 -9.66  5.34
Si  1.65 -10.83  3.38
Si  5.44 -2.28 -9.83
Si  0.48 -10.09  5.45
Si -2.64  8.54 -7.21
Si -8.91 -2.83  6.68
Si  0.09 -6.37 -9.57
Si -6.69 -5.92  7.26
Si -5.55 -2.28 -9.83
Si  0.48 -10.09 -5.54
Si -4.81 -5.50 -8.92
Si  1.95 10.61 -4.09
Si -4.81  5.50 -8.92
Si -9.99 -5.41 -2.04
Si -6.34 -8.51  4.54
Si -5.96 -3.60  9.21
Si  3.76 -3.48 -10.38
Si -3.69 -4.61  9.97
Si -3.05 -9.66 -5.65
Si -3.07  0.32 -11.18
Si -7.57 -8.75  0.87
Si -5.48 10.22 -0.55
Si -10.07  3.20 -4.82
Si -2.12 -3.23 10.96
Si -9.99  5.59 -2.04
Si  5.52 10.22 -0.55
Si  4.65 -8.51 -6.46
Si -2.12 -3.23 -11.04
Si  5.13  9.27  4.97
Si -3.07 11.31 -0.19
Si  6.18 -6.95 -7.15
Si -0.04 -4.69 10.75
Si -7.71 -7.00 -5.46
Si  7.86 -8.68 -1.24
Si  1.65 11.17  3.38
Si 10.60 -3.15  4.08
Si -7.71 -7.00  5.54
Si  8.87  7.77 -0.04
Si  6.89  7.89  5.42
Si -5.48 -0.78 10.45
Si  1.72 11.54 -1.97
Si -3.21 10.78  3.69
Si  5.52 -0.78 10.45
Si  0.87 -11.81 -0.13
Si  6.89  7.89 -5.58
Si  0.24 11.76  1.56
Si -5.37 -9.50 -4.69
Si  9.62  1.11  6.88
Si -10.52  0.90  5.45
Si  7.82 -4.74  7.60
Si 11.86 -0.81 -0.13
Si 10.95 -4.69 -0.24
Si -3.34  8.55  7.60
Si -5.44 10.21  2.88
Si -10.52  0.90 -5.54
Si -10.91  4.63  1.42
Si  9.00 -7.67  1.71
Si  0.99  2.61 11.63
Si  7.66  8.55 -3.40
Si  5.55 10.21  2.88
Si  1.57  8.85 -7.92
Si  8.34 -7.58  4.10
Si  5.63 -9.50 -4.69
Si -11.04 -4.69 -0.24
Si -7.88  7.76  4.65
Si  0.71 -8.01  8.91
Si 10.20 -4.92 -4.03
Si -1.29 -1.14 -11.90
Si 10.76 -2.77 -4.63
Si -5.86  9.27  4.97
Si  1.40 -2.94 11.61
Si -9.35  0.17 -7.62
Si 11.09  4.63  1.42
Si -6.95  0.96  9.88
Si -8.25  5.48 -6.99
Si -1.38 -9.89  6.88
Si -8.25 -5.51 -6.99
Si  6.19 -5.50 -8.92
Si  6.19  5.50 -8.92
Si -0.04 -4.69 -11.24
Si  5.13  9.27 -6.02
Si -3.69  4.30 -10.80
Si -6.86  3.86  9.32
Si -1.99 -7.67 -9.29
Si -3.21 -11.21  3.69
Si -1.29 -12.13 -0.90
Si -10.07  3.20  6.18
Si  4.80  4.06 -10.51
Si  1.95 -11.39 -4.09
Si -6.95 -10.04 -1.12
Si 11.71  2.99 -2.08
Si -2.08 11.96  1.80
Si 11.99  2.61  0.63
Si 10.11  4.34  5.47
Si  4.23 10.63 -4.52
Si 10.11  4.34 -5.52
Si -3.43  7.43 -9.24
Si -12.29 -1.14 -0.90
Si -8.25 -4.33  8.19
Si -3.69  6.39  9.97
Si -6.34 -8.51 -6.46
Si  4.14 -7.14  9.32
Si -11.24 -2.77 -4.63
Si -0.04  6.31 10.75
Si  7.57 -3.57 -9.24
Si  9.70 -1.21  7.75
Si -9.43 -2.15 -7.92
Si -11.39 -3.15  4.08
Si -5.86  9.27 -6.02
Si  8.36  8.54  3.79
Si 10.20  6.08 -4.03
Si -9.60  8.06  0.62
Si -1.30  9.78  7.75
Si -3.69  4.30 11.20
Si -10.73 -5.37  3.67
Si  3.43  2.24 11.87
Si  7.82  6.26  7.60
Si  0.24  0.77 12.56
Si -7.03 -5.32 -8.98
Si -5.37 -9.50  6.31
Si -7.07 -10.09  2.77
Si 10.95  6.31 -0.24
Si -10.73  5.63  3.67
Si  4.04 11.96 -1.12
Si  3.76 -3.48 11.61
Si -1.30 -12.21 -3.25
Si -10.91 -6.37  1.42
Si  5.63 -9.50  6.31
Si -11.04  6.31 -0.24
Si  9.63 -7.81 -2.90
Si 11.47  0.90  5.45
Si  7.86  2.32  9.76
Si -7.03  5.68 -8.98
Si -7.88  7.76 -6.34
Si 12.40 -2.94  0.62
Si -12.30 -1.21 -3.25
Si 11.47  0.90 -5.54
Si 10.76 -2.77  6.36
Si -5.48 -0.78 -11.55
Si  1.95 10.61  6.91
Si  4.04  0.96 -12.11
Si  5.52 -0.78 -11.55
Si -8.91  8.17 -4.31
Si  3.92 11.90  2.77
Si  5.03  7.39  9.21
Si -7.57  2.24 -10.12
Si  8.91  0.96 -9.19
Si -3.14  2.32 -12.24
Si -1.38 12.10 -4.12
Si -6.20  4.06 -10.51
Si 11.09 -6.37  1.42
Si 12.71  0.55 -1.97
Si -0.04  6.31 -11.24
Si  4.23 -11.36 -4.52
Si -9.28  0.55  9.03
Si  9.63  3.19  8.10
Si -5.48 -11.78 -0.55
Si -2.08  0.96 12.80
Si 11.26 -5.37  3.67
Si  5.52 -11.78 -0.55
Si 10.60 -3.15 -6.91
Si -10.01 -8.39  0.63
Si 12.64  0.17  3.38
Si -12.38  1.11 -4.12
Si  1.72  0.55 -12.97
Si  4.80  4.06 11.48
Si -12.36  3.19 -2.90
Si  0.48 11.90  5.45
Si 12.56 -2.15  3.08
Si 11.26  5.63  3.67
Si -7.24 -3.48 -10.38
Si  0.48 11.90 -5.54
Si  4.23 10.63  6.48
Si  7.30 -4.61  9.97
Si -10.29 -8.01 -2.08
Si -11.24 -2.77  6.36
Si  8.34 -7.58 -6.90
Si  1.40  8.06 -10.38
Si -3.69 -6.70 -10.80
Si -5.96  7.39  9.21
Si -13.08  0.96  1.80
Si 11.92  3.20 -4.82
Si  0.09  4.63 12.42
Si -1.99  3.33 12.71
Si 10.11 -6.66  5.47
Si -5.44 -11.78  2.88
Si -9.43  8.85  3.08
Si 10.20 -4.92  6.97
Si  7.93 -10.68 -0.19
Si 10.11 -6.66 -5.52
Si 12.01 -5.41 -2.04
Si  5.55 -11.78  2.88
Si  1.65 -10.83 -7.62
Si  9.00  3.33 -9.29
Si  3.76  7.51 -10.38
Si -5.23 -8.71  8.69
Si  0.99 -8.39 -10.37
Si -6.77 10.63 -4.52
Si -3.69 -4.61 -12.02
Si -8.25  6.66  8.19
Si -11.79 -4.92 -4.03
Si 12.01  5.59 -2.04
Si  7.93  0.32 10.81
Si -3.21 10.78 -7.30
Si -3.14 -8.68  9.76
Si  0.71  2.99 -13.08
Si  1.95 -11.39  6.91
Si  4.80 -6.94 -10.51
Si -5.29  9.41  8.11
Si -13.12 -3.23 -0.04
Si  5.44 -2.28 12.16
Si -12.99  3.33  1.71
