500
set: 1284.00  0.00  0.00
Si  1.16 -1.01  0.59
Si -1.16 -1.01  0.59
Si  1.16  1.01 -0.59
Si -1.16  1.01 -0.59
Si  2.21  0.61 -2.62
Si  2.21 -0.61  2.62
Si -2.21  0.61 -2.62
Si -2.21 -0.61  2.62
Si  2.00  2.80  0.67
Si -2.00  2.80  0.67
Si  2.00 -2.80 -0.67
Si -2.00 -2.80 -0.67
Si -2.79 -1.71 -2.62
Si  2.79 -1.71 -2.62
Si -2.79  1.71  2.62
Si  2.79  1.71  2.62
Si -0.00 -4.01 -1.39
Si  0.00  4.01  1.39
Si  1.16 -1.01  4.64
Si -1.16 -1.01  4.64
Si  1.16  1.01 -4.64
Si -1.16  1.01 -4.64
Si -3.96  2.17 -2.62
Si  3.96  2.17 -2.62
Si -3.96 -2.17  2.62
Si  3.96 -2.17  2.62
Si -3.96  3.51 -0.60
Si  3.96  3.51 -0.60
Si -3.96 -3.51  0.60
Si  3.96 -3.51  0.60
Si -0.00 -4.01 -3.85
Si  0.00  4.01  3.85
Si  2.00 -2.80 -4.56
Si -2.00 -2.80 -4.56
Si  2.00  2.80  4.56
Si -2.00  2.80  4.56
Si -5.14 -1.71 -2.62
Si -5.14  1.71  2.62
Si  5.14 -1.71 -2.62
Si  5.14  1.71  2.62
Si  1.16 -1.01 -5.83
Si -1.16 -1.01 -5.83
Si  1.16  1.01  5.83
Si -1.16  1.01  5.83
Si -0.00 -6.26 -0.60
Si  0.00  6.26  0.60
Si  5.72  0.61 -2.62
Si  5.72 -0.61  2.62
Si -5.72  0.61 -2.62
Si -5.72 -0.61  2.62
Si  5.93  2.80  0.67
Si -5.93  2.80  0.67
Si  5.93 -2.80 -0.67
Si -5.93 -2.80 -0.67
Si  2.00  2.80 -5.91
Si -2.00  2.80 -5.91
Si  2.00 -2.80  5.91
Si -2.00 -2.80  5.91
Si  6.76 -1.01  0.59
Si  6.76  1.01 -0.59
Si -6.76 -1.01  0.59
Si -6.76  1.01 -0.59
Si -3.96 -3.51  4.64
Si -3.96  3.51 -4.64
Si  3.96 -3.51  4.64
Si  3.96  3.51 -4.64
Si -3.96 -5.76  1.39
Si -3.96  5.76 -1.39
Si  3.96 -5.76  1.39
Si  3.96  5.76 -1.39
Si -1.96 -6.97  0.67
Si  1.96 -6.97  0.67
Si -1.96  6.97 -0.67
Si  1.96  6.97 -0.67
Si  0.00 -4.01  6.62
Si -0.00  4.01 -6.62
Si -0.00 -6.26 -4.64
Si  0.00  6.26  4.64
Si -3.96 -3.51 -5.83
Si -3.96  3.51  5.83
Si  3.96 -3.51 -5.83
Si  3.96  3.51  5.83
Si -3.96 -5.76  3.85
Si -3.96  5.76 -3.85
Si  3.96 -5.76  3.85
Si  3.96  5.76 -3.85
Si  5.93 -2.80 -4.56
Si -5.93 -2.80 -4.56
Si  5.93  2.80  4.56
Si -5.93  2.80  4.56
Si -0.00 -7.60 -2.62
Si  0.00  7.60  2.62
Si  2.21 -0.61 -7.85
Si  2.21  0.61  7.85
Si -2.21 -0.61 -7.85
Si -2.21  0.61  7.85
Si  6.76 -1.01  4.64
Si  6.76  1.01 -4.64
Si -6.76 -1.01  4.64
Si -6.76  1.01 -4.64
Si -2.79 -1.71  7.85
Si  2.79 -1.71  7.85
Si -2.79  1.71 -7.85
Si  2.79  1.71 -7.85
Si -0.00 -6.26  5.83
Si  0.00  6.26 -5.83
Si -1.96  6.97 -4.56
Si  1.96  6.97 -4.56
Si -1.96 -6.97  4.56
Si  1.96 -6.97  4.56
Si  1.17  8.06 -2.62
Si -1.17  8.06 -2.62
Si  1.17 -8.06  2.62
Si -1.17 -8.06  2.62
Si  5.93  2.80 -5.91
Si -5.93  2.80 -5.91
Si  5.93 -2.80  5.91
Si -5.93 -2.80  5.91
Si  6.76 -1.01 -5.83
Si  6.76  1.01  5.83
Si -6.76 -1.01 -5.83
Si -6.76  1.01  5.83
Si -7.93 -4.01 -1.39
Si  7.93 -4.01 -1.39
Si  7.93  4.01  1.39
Si -7.93  4.01  1.39
Si -3.96  2.17  7.85
Si  3.96  2.17  7.85
Si -3.96 -2.17 -7.85
Si  3.96 -2.17 -7.85
Si  9.09 -1.01  0.59
Si  9.09  1.01 -0.59
Si -9.09 -1.01  0.59
Si -9.09  1.01 -0.59
Si -5.96 -6.97  0.67
Si  5.96 -6.97  0.67
Si -5.96  6.97 -0.67
Si  5.96  6.97 -0.67
Si -2.80  8.76  0.59
Si  2.80  8.76  0.59
Si -2.80 -8.76 -0.59
Si  2.80 -8.76 -0.59
Si -1.96 -6.97 -5.91
Si  1.96 -6.97 -5.91
Si -1.96  6.97  5.91
Si  1.96  6.97  5.91
Si -5.14 -1.71  7.85
Si -5.14  1.71 -7.85
Si  5.14 -1.71  7.85
Si  5.14  1.71 -7.85
Si -3.96 -5.76 -6.62
Si -3.96  5.76  6.62
Si  3.96 -5.76 -6.62
Si  3.96  5.76  6.62
Si -7.93 -4.01 -3.85
Si  7.93 -4.01 -3.85
Si  7.93  4.01  3.85
Si -7.93  4.01  3.85
Si -1.76 -9.15 -2.62
Si -1.76  9.15  2.62
Si  1.76 -9.15 -2.62
Si  1.76  9.15  2.62
Si  5.72 -0.61 -7.85
Si  5.72  0.61  7.85
Si -5.72 -0.61 -7.85
Si -5.72  0.61  7.85
Si  0.00 -4.01  9.08
Si -0.00  4.01 -9.08
Si  1.16 -1.01 -9.88
Si -1.16 -1.01 -9.88
Si  1.16  1.01  9.88
Si -1.16  1.01  9.88
Si -7.93 -6.26 -0.60
Si  7.93 -6.26 -0.60
Si -7.93  6.26  0.60
Si  7.93  6.26  0.60
Si -5.13  8.76  0.59
Si  5.13  8.76  0.59
Si -5.13 -8.76 -0.59
Si  5.13 -8.76 -0.59
Si -5.96  6.97 -4.56
Si  5.96  6.97 -4.56
Si -5.96 -6.97  4.56
Si  5.96 -6.97  4.56
Si  9.09 -1.01  4.64
Si  9.09  1.01 -4.64
Si -9.09 -1.01  4.64
Si -9.09  1.01 -4.64
Si -2.80  8.76  4.64
Si  2.80  8.76  4.64
Si -2.80 -8.76 -4.64
Si  2.80 -8.76 -4.64
Si  9.93  2.80  0.67
Si -9.93  2.80  0.67
Si  9.93 -2.80 -0.67
Si -9.93 -2.80 -0.67
Si  2.00 -2.80  9.80
Si -2.00 -2.80  9.80
Si  2.00  2.80 -9.80
Si -2.00  2.80 -9.80
Si 10.13  0.61 -2.62
Si 10.13 -0.61  2.62
Si -10.13  0.61 -2.62
Si -10.13 -0.61  2.62
Si  6.75  8.06 -2.62
Si -6.75  8.06 -2.62
Si  6.75 -8.06  2.62
Si -6.75 -8.06  2.62
Si  9.09 -1.01 -5.83
Si  9.09  1.01  5.83
Si -9.09 -1.01 -5.83
Si -9.09  1.01  5.83
Si -1.76 -10.38  2.62
Si -1.76 10.38 -2.62
Si  1.76 -10.38  2.62
Si  1.76 10.38 -2.62
Si -2.80  8.76 -5.83
Si  2.80  8.76 -5.83
Si -2.80 -8.76  5.83
Si  2.80 -8.76  5.83
Si -5.96 -6.97 -5.91
Si  5.96 -6.97 -5.91
Si -5.96  6.97  5.91
Si  5.96  6.97  5.91
Si  0.00 -7.60  7.85
Si -0.00  7.60 -7.85
Si -7.93 -4.01  6.62
Si  7.93 -4.01  6.62
Si  7.93  4.01 -6.62
Si -7.93  4.01 -6.62
Si -7.93 -6.26 -4.64
Si  7.93 -6.26 -4.64
Si  7.93  6.26  4.64
Si -7.93  6.26  4.64
Si -2.80 10.78 -0.59
Si  2.80 10.78 -0.59
Si -2.80 -10.78  0.59
Si  2.80 -10.78  0.59
Si -5.13  8.76  4.64
Si  5.13  8.76  4.64
Si -5.13 -8.76 -4.64
Si  5.13 -8.76 -4.64
Si -10.72 -1.71 -2.62
Si -10.72  1.71  2.62
Si 10.72 -1.71 -2.62
Si 10.72  1.71  2.62
Si  1.16  1.01 -11.07
Si -1.16  1.01 -11.07
Si  1.16 -1.01 11.07
Si -1.16 -1.01 11.07
Si -3.96 -3.51 -9.87
Si  3.96 -3.51 -9.87
Si -3.96  3.51  9.87
Si  3.96  3.51  9.87
Si  9.93 -2.80 -4.56
Si -9.93 -2.80 -4.56
Si  9.93  2.80  4.56
Si -9.93  2.80  4.56
Si  7.93 -7.60 -2.62
Si -7.93 -7.60 -2.62
Si -7.93  7.60  2.62
Si  7.93  7.60  2.62
Si  1.17  8.06  7.85
Si -1.17  8.06  7.85
Si  1.17 -8.06 -7.85
Si -1.17 -8.06 -7.85
Si -6.17 -9.15 -2.62
Si -6.17  9.15  2.62
Si  6.17 -9.15 -2.62
Si  6.17  9.15  2.62
Si -3.96 -5.76 -9.08
Si -3.96  5.76  9.08
Si  3.96 -5.76 -9.08
Si  3.96  5.76  9.08
Si  7.93 -6.26  5.83
Si -7.93 -6.26  5.83
Si  7.93  6.26 -5.83
Si -7.93  6.26 -5.83
Si  2.00  2.80 11.14
Si -2.00  2.80 11.14
Si  2.00 -2.80 -11.14
Si -2.00 -2.80 -11.14
Si -0.00  6.26 -9.87
Si  0.00 -6.26  9.87
Si -5.13  8.76 -5.83
Si  5.13  8.76 -5.83
Si -5.13 -8.76  5.83
Si  5.13 -8.76  5.83
Si  5.93 -2.80  9.80
Si -5.93 -2.80  9.80
Si  5.93  2.80 -9.80
Si -5.93  2.80 -9.80
Si  1.17 11.47  2.62
Si -1.17 11.47  2.62
Si  1.17 -11.47 -2.62
Si -1.17 -11.47 -2.62
Si  9.93  2.80 -5.91
Si -9.93  2.80 -5.91
Si  9.93 -2.80  5.91
Si -9.93 -2.80  5.91
Si -5.13 10.78 -0.59
Si  5.13 10.78 -0.59
Si -5.13 -10.78  0.59
Si  5.13 -10.78  0.59
Si  6.76 -1.01 -9.88
Si  6.76  1.01  9.88
Si -6.76 -1.01 -9.88
Si -6.76  1.01  9.88
Si -2.80 10.78 -4.64
Si  2.80 10.78 -4.64
Si -2.80 -10.78  4.64
Si  2.80 -10.78  4.64
Si -9.89 -6.97  0.67
Si  9.89 -6.97  0.67
Si -9.89  6.97 -0.67
Si  9.89  6.97 -0.67
Si -1.96  6.97  9.80
Si  1.96  6.97  9.80
Si -1.96 -6.97 -9.80
Si  1.96 -6.97 -9.80
Si -1.76 -9.15  7.85
Si -1.76  9.15 -7.85
Si  1.76 -9.15  7.85
Si  1.76  9.15 -7.85
Si -0.00 -11.94  2.62
Si  0.00 11.94 -2.62
Si -3.96  3.51 -11.07
Si  3.96  3.51 -11.07
Si -3.96 -3.51 11.07
Si  3.96 -3.51 11.07
Si -6.17 -10.38  2.62
Si -6.17 10.38 -2.62
Si  6.17 -10.38  2.62
Si  6.17 10.38 -2.62
Si -11.89  2.17 -2.62
Si 11.89  2.17 -2.62
Si -11.89 -2.17  2.62
Si 11.89 -2.17  2.62
Si -11.89  3.51 -0.60
Si 11.89  3.51 -0.60
Si -11.89 -3.51  0.60
Si 11.89 -3.51  0.60
Si  9.10  8.06 -2.62
Si -9.10  8.06 -2.62
Si  9.10 -8.06  2.62
Si -9.10 -8.06  2.62
Si -0.00 -4.01 -11.86
Si  0.00  4.01 11.86
Si -2.80 10.78  5.83
Si  2.80 10.78  5.83
Si -2.80 -10.78 -5.83
Si  2.80 -10.78 -5.83
Si  7.93 -4.01  9.08
Si -7.93 -4.01  9.08
Si  7.93  4.01 -9.08
Si -7.93  4.01 -9.08
Si -0.00 -6.26 -11.07
Si  0.00  6.26 11.07
Si -1.96 12.57  0.67
Si  1.96 12.57  0.67
Si -1.96 -12.57 -0.67
Si  1.96 -12.57 -0.67
Si -5.13 10.78 -4.64
Si  5.13 10.78 -4.64
Si -5.13 -10.78  4.64
Si  5.13 -10.78  4.64
Si 10.13 -0.61 -7.85
Si 10.13  0.61  7.85
Si -10.13 -0.61 -7.85
Si -10.13  0.61  7.85
Si  5.93  2.80 11.14
Si -5.93  2.80 11.14
Si  5.93 -2.80 -11.14
Si -5.93 -2.80 -11.14
Si -9.89  6.97 -4.56
Si  9.89  6.97 -4.56
Si -9.89 -6.97  4.56
Si  9.89 -6.97  4.56
Si  6.76  1.01 -11.07
Si  6.76 -1.01 11.07
Si -6.76  1.01 -11.07
Si -6.76 -1.01 11.07
Si  6.75  8.06  7.85
Si -6.75  8.06  7.85
Si  6.75 -8.06 -7.85
Si -6.75 -8.06 -7.85
Si -1.76 -10.38 -7.85
Si -1.76 10.38  7.85
Si  1.76 -10.38 -7.85
Si  1.76 10.38  7.85
Si -11.89 -3.51  4.64
Si -11.89  3.51 -4.64
Si 11.89 -3.51  4.64
Si 11.89  3.51 -4.64
Si -11.89 -5.76  1.39
Si -11.89  5.76 -1.39
Si 11.89 -5.76  1.39
Si 11.89  5.76 -1.39
Si  2.21  0.61 -13.09
Si  2.21 -0.61 13.09
Si -2.21  0.61 -13.09
Si -2.21 -0.61 13.09
Si -5.13 10.78  5.83
Si  5.13 10.78  5.83
Si -5.13 -10.78 -5.83
Si  5.13 -10.78 -5.83
Si -1.96 -6.97 11.14
Si  1.96 -6.97 11.14
Si -1.96  6.97 -11.14
Si  1.96  6.97 -11.14
Si  0.00 13.28 -0.60
Si -0.00 -13.28  0.60
Si -10.72 -1.71  7.85
Si -10.72  1.71 -7.85
Si 10.72 -1.71  7.85
Si 10.72  1.71 -7.85
Si -5.96  6.97  9.80
Si  5.96  6.97  9.80
Si -5.96 -6.97 -9.80
Si  5.96 -6.97 -9.80
Si -13.06 -1.71 -2.62
Si -13.06  1.71  2.62
Si 13.06 -1.71 -2.62
Si 13.06  1.71  2.62
Si  9.09 -1.01 -9.88
Si  9.09  1.01  9.88
Si -9.09 -1.01 -9.88
Si -9.09  1.01  9.88
Si -9.89 -6.97 -5.91
Si  9.89 -6.97 -5.91
Si -9.89  6.97  5.91
Si  9.89  6.97  5.91
Si -2.79 -1.71 -13.09
Si  2.79 -1.71 -13.09
Si -2.79  1.71 13.09
Si  2.79  1.71 13.09
Si -2.80  8.76 -9.88
Si  2.80  8.76 -9.88
Si -2.80 -8.76  9.88
Si  2.80 -8.76  9.88
Si -7.93 -7.60  7.85
Si  7.93 -7.60  7.85
Si -7.93  7.60 -7.85
Si  7.93  7.60 -7.85
Si -1.96 -12.57 -4.56
Si  1.96 -12.57 -4.56
Si -1.96 12.57  4.56
Si  1.96 12.57  4.56
Si -6.17 -9.15  7.85
Si -6.17  9.15 -7.85
Si  6.17 -9.15  7.85
Si  6.17  9.15 -7.85
Si  6.75 11.47  2.62
Si -6.75 11.47  2.62
Si  6.75 -11.47 -2.62
Si -6.75 -11.47 -2.62
Si -9.68 -9.15 -2.62
Si -9.68  9.15  2.62
Si  9.68 -9.15 -2.62
Si  9.68  9.15  2.62
Si -11.89 -3.51 -5.83
Si -11.89  3.51  5.83
Si 11.89 -3.51 -5.83
Si 11.89  3.51  5.83
Si -11.89 -5.76  3.85
Si -11.89  5.76 -3.85
Si 11.89 -5.76  3.85
Si 11.89  5.76 -3.85
Si -3.96  5.76 -11.86
Si -3.96 -5.76 11.86
Si  3.96  5.76 -11.86
Si  3.96 -5.76 11.86
Si -3.96  2.17 -13.09
Si  3.96  2.17 -13.09
Si -3.96 -2.17 13.09
Si  3.96 -2.17 13.09
Si -10.73  8.76  0.59
Si 10.73  8.76  0.59
Si -10.73 -8.76 -0.59
Si 10.73 -8.76 -0.59
Si 13.65  0.61 -2.62
Si 13.65 -0.61  2.62
Si -13.65  0.61 -2.62
Si -13.65 -0.61  2.62
Si -5.96 12.57  0.67
Si  5.96 12.57  0.67
Si -5.96 -12.57 -0.67
Si  5.96 -12.57 -0.67
Si  1.17 11.47 -7.85
Si -1.17 11.47 -7.85
Si  1.17 -11.47  7.85
Si -1.17 -11.47  7.85
Si -1.96 12.57 -5.91
Si  1.96 12.57 -5.91
Si -1.96 -12.57  5.91
Si  1.96 -12.57  5.91
Si -0.00 -13.28  4.64
Si  0.00 13.28 -4.64
Si -7.93  6.26 -9.87
Si  7.93  6.26 -9.87
