500
set: 132.00  0.00  0.00
Si -0.06  0.02  0.07
Si  0.00 -0.02 -2.21
Si -0.03 -2.14  0.74
Si  1.91  1.04  0.79
Si -1.87  1.12  0.87
Si  1.82 -3.20 -0.08
Si -3.69  0.01 -0.01
Si  0.04  2.14 -3.02
Si  1.81 -1.12 -3.04
Si  3.72  0.03 -0.08
Si -1.87 -3.24  0.02
Si -1.80 -1.07 -3.10
Si -1.83  3.27  0.04
Si  1.93  1.05  3.05
Si  0.08 -2.21  3.04
Si  1.99  3.20 -0.03
Si -1.86  1.04  3.15
Si -1.85  3.19 -2.26
Si -3.66  0.01 -2.31
Si  0.08  4.27  0.71
Si  3.69 -2.15  0.70
Si  0.06  2.13  3.77
Si -1.91 -3.19 -2.30
Si -1.87 -1.17  3.79
Si  1.92  3.19 -2.33
Si -3.76 -2.20  0.72
Si  1.99 -1.10  3.79
Si  3.73 -0.08 -2.40
Si  1.78 -3.32 -2.35
Si  0.02  4.31  3.06
Si -3.74  2.17 -3.02
Si  3.79 -2.19  2.96
Si -3.79 -2.18  3.01
Si  3.76  2.12 -3.12
Si -0.09 -4.36 -3.10
Si  1.82 -5.34  0.65
Si  5.54  1.08  0.80
Si  0.02  2.17 -5.30
Si -5.58  1.06  0.70
Si  1.80 -1.06 -5.34
Si -3.65  4.37  0.82
Si -1.93 -5.38  0.78
Si -1.85 -1.04 -5.38
Si  3.72  4.36  0.85
Si  3.76  2.16  3.87
Si -3.78  2.13  3.87
Si  0.07 -4.34  3.87
Si -5.52  3.23  0.04
Si -1.83  5.34 -3.02
Si -5.59 -1.03 -2.99
Si  1.89  5.35 -3.02
Si  1.85  1.08 -6.06
Si  1.87 -5.40  2.95
Si  5.58 -3.21 -0.02
Si -3.79 -4.25 -2.99
Si -1.81 -5.37  3.06
Si -0.04  6.44 -0.05
Si  5.55  3.27  0.08
Si -0.04  2.16  6.07
Si -5.59  1.07  3.04
Si  5.58  1.01  3.08
Si  3.73 -4.35 -3.01
Si -1.92 -1.10  6.08
Si -3.70  4.33  3.08
Si -1.87  1.14 -6.10
Si -0.05 -6.49 -0.01
Si  1.91 -1.09  6.11
Si  3.74  4.34  3.13
Si -0.02 -2.16 -6.19
Si -5.70 -3.23  0.02
Si  5.67 -1.13 -3.15
Si -0.02  0.00  6.76
Si  3.72 -4.33  3.74
Si  5.57  3.25 -2.25
Si  0.02  6.43 -2.32
Si -1.84  5.40  3.79
Si -3.73 -4.32  3.81
Si  5.57 -1.10  3.86
Si -0.05 -4.30 -5.36
Si -5.61  3.28 -2.25
Si  3.73  2.19 -5.39
Si -3.74  2.22 -5.37
Si -5.64 -1.05  3.86
Si -0.01 -6.51 -2.34
Si  1.86  5.40  3.91
Si  5.64 -3.27 -2.32
Si -5.69 -3.21 -2.31
Si  3.71 -2.09 -6.08
Si -3.71 -2.20 -6.05
Si  0.06  4.31 -6.06
Si  7.46  0.04 -0.00
Si  3.68 -6.50 -0.04
Si  3.69  6.50  0.04
Si -3.78 -6.45  0.04
Si -3.79  6.45 -0.04
Si -7.49  0.04 -0.00
Si  0.06 -4.32  6.15
Si  3.76  2.12  6.15
Si -3.77  2.22  6.12
Si  7.37 -2.12  0.85
Si -3.71  6.39 -2.31
Si  5.55 -5.38  0.70
Si -3.77 -6.42 -2.21
Si -1.89  3.31  6.77
Si  3.75 -4.24 -5.33
Si -3.71 -4.35 -5.29
Si  1.77  7.54  0.78
Si -1.85  5.39 -5.32
Si -5.61 -1.11 -5.29
Si  1.92  5.42 -5.29
Si  3.70  6.52 -2.21
Si -3.73  0.07  6.87
Si  7.47  0.03 -2.31
Si -7.47  0.03 -2.31
Si -1.85 -3.24  6.89
Si -1.93  7.56  0.70
Si  1.86  3.21  6.92
Si  5.59 -1.00 -5.43
Si  1.92 -3.21  6.92
Si  3.76 -0.04  6.92
Si -5.70 -5.40  0.78
Si  3.76 -6.56 -2.31
Si -7.58 -2.12  0.85
Si  1.83 -5.29 -6.07
Si -5.55  1.06 -6.05
Si  7.43  2.19 -2.98
Si  3.75 -4.29  6.04
Si -3.77 -4.19  6.10
Si -1.83  7.55  2.95
Si  5.58  5.40 -3.02
Si -1.89 -7.54 -3.02
Si  1.88 -7.53 -3.05
Si -5.58 -5.40  3.06
Si  5.65 -5.39  2.95
Si  1.89  7.54  3.06
Si -1.81  5.50  6.03
Si -5.60  5.41 -3.05
Si  5.60 -1.14  6.12
Si  7.45 -2.17  3.14
Si -7.51  2.19 -2.98
Si -1.87 -5.46 -6.08
Si  1.92  5.37  6.15
Si -5.64 -0.97  6.13
Si -7.50 -2.17  3.14
Si  3.75  4.33 -6.17
Si -3.77  4.44 -6.10
Si  5.67  1.18 -6.17
Si  7.47  2.12  3.71
Si -7.48  2.12  3.71
Si  1.86  1.10 -8.34
Si -1.81  1.09 -8.36
Si -7.45  4.29  0.76
Si -1.81 -7.54  3.84
Si  1.86 -7.53  3.86
Si  7.49  4.29  0.76
Si  0.03 -8.65  0.76
Si -5.62  5.41  3.86
Si  5.66  5.40  3.84
Si -0.00 -2.19 -8.50
Si -0.01 -0.06  9.07
Si -0.01  8.57 -3.13
Si  0.02 -0.01 -9.13
Si -7.46  4.30  3.07
Si  7.49  4.30  3.07
Si  0.02 -8.64  3.07
Si  7.46 -4.37 -3.13
Si -7.48 -4.37 -3.13
Si  1.87 -7.43 -5.32
Si -7.39  2.18 -5.27
Si -3.71 -2.16 -8.33
Si  0.07  4.29 -8.34
Si  3.70 -2.18 -8.33
Si  0.02  8.59  3.81
Si -3.75 -8.58  0.85
Si  5.63  5.36 -5.30
Si  5.54  7.57  0.78
Si -5.61 -3.12  6.88
Si  3.82 -8.57  0.82
Si  5.62  3.27  6.82
Si -1.84 -7.58 -5.30
Si -7.45 -4.36  3.81
Si  9.36  1.06  0.70
Si  0.02 -6.46  6.91
Si  7.55  2.18 -5.27
Si  7.50 -4.36  3.81
Si  5.63 -3.27  6.91
Si -5.68  3.26  6.87
Si -5.66  7.60  0.65
Si -5.61  5.51 -5.32
Si  0.07  6.49  6.93
Si -9.41  1.08  0.80
Si -1.80  3.19  9.05
Si  9.24 -3.23  0.02
Si -3.73  0.02 -9.07
Si  7.45  2.16  6.02
Si  7.42  6.45 -0.01
Si -1.87 -7.49  6.10
Si -5.61  7.54  2.95
Si -3.75  8.60 -3.01
Si -7.50  2.16  6.02
Si -1.92 -9.67  0.08
Si -9.27 -1.13 -3.15
Si -5.56 -5.41 -6.09
Si  3.77  0.02 -9.12
Si  7.43 -2.15 -6.13
Si  1.77  9.71  0.02
Si  1.91  7.53 -6.09
Si -1.81  3.26 -9.14
Si  9.36 -1.03 -2.99
Si -1.89 -3.30 -9.12
Si  5.56 -5.42 -6.12
Si  7.44 -6.50 -0.05
Si -1.92  7.53 -6.12
Si -3.73 -8.61  3.13
Si -5.58 -7.59 -3.02
Si  9.36  1.07  3.04
Si  3.77 -8.61  3.08
Si  3.68  8.69 -2.99
Si  1.85 -7.55  6.14
Si -9.37 -3.21 -0.02
Si  1.89 -3.25 -9.17
Si -9.36  1.01  3.08
Si  1.96 -9.72  0.04
Si -7.53  6.45 -0.01
Si  5.60  5.45  6.10
Si  3.68  0.07  9.21
Si -1.90  9.74 -0.02
Si -5.63  5.40  6.14
Si -3.75 -0.03  9.19
Si -1.83 -3.29  9.19
Si -7.50 -6.50 -0.05
Si -7.51 -2.15 -6.13
Si  1.89 -3.28  9.19
Si  5.66  7.57  3.06
Si  5.65 -7.60 -3.02
Si -9.40  3.27  0.08
Si  1.88  3.29  9.21
Si  9.43  3.23  0.04
Si  1.87  3.23 -9.26
Si  9.26 -3.21 -2.31
Si -5.61  1.08 -8.29
Si  3.73 -6.43  6.81
Si -3.74 -6.40  6.84
Si  7.42  0.01  6.84
Si  1.84 -5.37 -8.35
Si  1.87 -9.67 -2.25
Si -1.83  1.05  9.88
Si  1.78  1.10  9.89
Si -3.76  8.62  3.74
Si -1.83  9.68 -2.32
Si  7.46  6.43 -2.34
Si -1.90 -5.42 -8.35
Si  0.02 -2.20  9.89
Si -9.30 -3.27 -2.32
Si  9.31 -1.05  3.86
Si -1.90 -9.69 -2.25
Si -3.73  4.31 -8.39
Si -3.75  6.51  6.81
Si  3.74  8.62  3.81
Si -7.49  6.43 -2.34
Si  9.34  3.28 -2.25
Si  5.63 -7.55  3.79
Si  1.78  9.73 -2.31
Si -7.45 -6.51 -2.32
Si  3.73  6.54  6.84
Si -7.53  0.01  6.84
Si -9.38  3.25 -2.25
Si  5.63  1.08 -8.41
Si -5.61 -7.55  3.91
Si  7.45 -4.31 -5.44
Si -9.38 -1.10  3.86
Si  7.50 -6.51 -2.32
Si  3.72  4.30 -8.47
Si -0.02  8.63 -5.44
Si -7.49 -4.31 -5.44
Si -7.44 -4.33  6.08
Si  0.03  8.62  6.08
Si -7.44  4.30 -6.12
Si  7.51 -4.33  6.08
Si  0.04 -8.64 -6.12
Si  7.51  4.30 -6.12
Si  9.25 -5.40  0.78
Si -5.54 -7.52 -5.29
Si  3.76  8.59 -5.29
Si  9.33 -1.11 -5.29
Si -3.71 -2.24  9.89
Si -0.01  4.34  9.89
Si  5.63 -7.56 -5.32
Si -9.40 -5.38  0.70
Si  3.70 -2.11  9.99
Si -0.11 10.83  0.85
Si -9.36 -1.00 -5.43
Si -3.73  8.70 -5.33
Si  3.71 -8.51 -6.10
Si  5.67 -7.45  6.03
Si -0.02 -6.48 -9.06
Si -9.30 -5.39  2.95
Si  5.61 -3.28 -9.05
Si  5.60  7.49 -6.08
Si -0.04 -10.75 -2.98
Si -5.48 -9.75 -0.03
Si  0.08  6.41 -9.16
Si  9.30 -0.97  6.13
Si -5.58  3.23 -9.14
Si -3.72  8.65  6.04
Si -5.54 -3.27 -9.15
Si  5.65 -9.67  0.04
Si  5.60  9.70  0.02
Si -5.60 -3.22  9.15
Si  5.67  3.25  9.11
Si -9.28  1.18 -6.17
Si -3.71 -8.61 -6.17
Si  9.35  5.41 -3.05
Si  5.58 -3.23  9.19
Si -0.03 10.78  3.14
Si -5.55 -7.57  6.15
Si  9.39  1.06 -6.05
Si -11.23  0.03 -0.08
Si -9.37  5.40 -3.02
Si -9.35 -1.14  6.12
Si  9.37 -5.40  3.06
Si  0.04 -6.49  9.18
Si -5.67  3.19  9.17
Si 11.26  0.01 -0.01
Si -5.66  9.74 -0.08
Si -5.64  7.66 -6.07
Si -0.04  6.51  9.22
Si  3.70  8.75  6.10
Si  5.65  3.24 -9.25
Si -3.74  4.24  9.81
Si  3.71 10.75  0.72
Si -1.87  7.46 -8.41
Si -5.48 -5.42 -8.41
Si -9.29  5.40  3.84
Si  5.56  1.13  9.90
Si -7.39 -8.67  0.71
Si -5.70  1.00  9.85
Si 11.19 -2.20  0.72
Si -5.70  9.63 -2.35
Si  1.92 -5.44  9.87
Si -7.41 -2.19 -8.43
Si -0.00 -10.82  3.71
Si  0.03 -0.02 -11.44
Si  3.81  4.33  9.89
Si  9.33  5.41  3.86
Si -3.79 10.79  0.70
Si  1.99  7.53 -8.41
Si -5.55 -9.75 -2.33
Si  5.56  9.75 -2.30
Si -11.21 -0.08 -2.40
Si -1.85 -5.44  9.94
Si -11.26 -2.15  0.70
Si  5.63 -9.75 -2.26
Si  5.61 -5.49 -8.41
Si  7.54 -2.19 -8.43
Si 11.29  0.01 -2.31
Si  7.56 -8.67  0.71
Si  7.38 -0.05  9.10
Si  7.38  8.58 -3.10
Si -3.72  6.43  9.08
Si -3.69 10.75  2.96
Si -11.16 -2.19  2.96
Si 11.16 -2.18  3.01
Si  3.68 10.77  3.01
Si  3.76 -6.51  9.08
Si  3.73 -10.77 -3.02
Si -7.45 -0.01 -9.15
Si 11.20  2.17 -3.02
Si -11.19  2.12 -3.12
Si -7.45 -8.64  3.06
Si  7.50 -0.01 -9.15
Si -3.74 -6.46  9.18
Si  7.50 -8.64  3.06
Si -7.57 -0.05  9.10
Si  3.73  6.49  9.18
Si  3.69 -6.49 -9.19
Si -3.79  6.45 -9.19
Si -7.57  8.58 -3.10
Si -3.71 -10.83 -3.12
Si  3.79  6.43 -9.24
Si -3.68 -6.51 -9.24
Si -3.75  0.04 -11.36
Si -1.85 -9.67  6.82
Si  9.27  3.26  6.87
Si  0.08 -10.77 -5.27
Si -9.32  5.36 -5.30
Si -7.41  8.60  3.87
Si -7.45  4.27 -8.39
Si  1.80 -9.68  6.87
Si -9.32  3.27  6.82
Si  3.82  0.05 -11.38
Si  9.34 -3.12  6.88
Si -1.93 -3.23 -11.40
Si 11.17  2.13  3.87
Si -7.39 -6.45  6.93
Si  9.29  7.60  0.65
Si -1.93  3.25 -11.42
Si -1.85  9.68  6.91
Si -11.19  2.16  3.87
Si  7.50  4.27 -8.39
Si -1.93 -11.86  0.80
Si -3.71 -10.79  3.87
Si  1.89 -11.88  0.70
Si -9.32 -3.27  6.91
Si -7.45  6.49  6.91
Si  3.70 -10.81  3.87
Si  0.03 -8.67 -8.39
Si -11.22  4.36  0.85
Si  9.34  5.51 -5.32
Si  7.54  8.60  3.87
Si  7.49  6.49  6.91
Si -9.41  7.57  0.78
Si  1.89 -3.25 -11.50
Si  7.55 -6.45  6.93
Si 11.29  4.37  0.82
Si  1.86  9.82  6.88
Si  1.82  3.28 -11.55
Si 11.15 -4.25 -2.99
Si -1.92 -1.04 -12.12
Si -0.04 -2.19 12.15
Si -0.02 -10.79  6.02
Si  9.34  7.54  2.95
Si -1.80 11.82 -3.15
Si -9.29  7.57  3.06
Si  1.96 -1.09 -12.17
Si -1.90  1.11 12.19
Si -9.30 -7.60 -3.02
Si  9.32  5.40  6.14
Si -0.05  2.14 -12.21
Si  1.77  1.08 12.23
Si  1.89 -11.87  3.04
Si -11.22 -4.35 -3.01
Si -0.04 10.79 -6.13
Si -11.21  4.34  3.13
Si -9.35  5.45  6.10
Si  1.88 11.91 -2.99
Si  9.39 -5.41 -6.09
Si  9.37 -7.59 -3.02
Si 11.24  4.33  3.08
Si -9.39 -5.42 -6.12
Si -1.89 -11.93  3.08
Si  9.33  1.08 -8.29
Si  5.57  7.53 -8.35
Si  3.74 -10.72 -5.37
Si  7.46 -2.19  9.86
Si -9.31 -7.55  3.79
Si -7.49 -2.19  9.86
Si  7.42  8.64 -5.36
Si -3.75 -10.75 -5.39
Si -11.23 -4.33  3.74
Si -9.31  1.08 -8.41
Si -1.91 11.84  3.86
Si -5.64  7.58 -8.35
Si  3.75 -8.63 -8.39
Si 11.22 -4.32  3.81
Si  5.57 -5.38  9.96
Si -5.61 -5.35  9.96
Si  9.33 -7.55  3.91
Si 11.21  2.22 -5.37
Si  1.83 11.89  3.86
Si -11.22  2.19 -5.39
Si -1.91  7.56  9.96
Si -7.53  8.64 -5.36
Si  1.86  7.59  9.96
Si -3.75 -8.64 -8.47
Si 11.15  6.45 -0.04
Si -7.41 -8.63 -6.06
Si  3.71 -10.72  6.12
Si  3.76 10.75 -6.05
Si 11.17 -6.45  0.04
Si -0.01 -12.91 -0.00
Si -3.78  2.18 -12.16
Si -3.79 -2.18 12.16
Si -7.42  8.63  6.15
Si -0.01 -4.28 -12.21
Si -11.18  2.12  6.15
Si 11.18  2.22  6.12
Si -11.23 -2.09 -6.08
Si -0.02  4.35 12.20
Si 11.24 -2.20 -6.05
Si  3.68  2.13 -12.24
Si  7.54 -8.63 -6.06
Si  3.69 -2.13 12.25
Si -0.02 12.98 -0.00
Si -3.71 -10.82  6.15
Si -11.26  6.50  0.04
Si -3.77 10.85 -6.08
Si  7.53  8.63  6.15
Si -11.26 -6.50 -0.04
Si  5.59 -9.63  6.77
Si  5.61 -3.20 -11.34
Si -0.10 -6.43 -11.35
Si 11.18 -6.42 -2.21
Si -1.93 -1.06 12.90
Si  1.86 11.83 -5.29
Si -13.03  1.04  0.79
Si -11.20 -4.24 -5.33
Si -5.56 -3.27 -11.42
Si  5.61 -11.82  0.87
Si  0.00 -12.91 -2.31
