500
set: 1614.00  0.00  0.00
Si  0.27 -0.07 -1.29
Si  1.75 -0.70  0.35
Si -1.96  1.54  0.02
Si -1.00 -2.48 -0.19
Si -2.82 -0.70  0.35
Si -1.97 -1.01 -1.97
Si  1.12  2.04 -1.84
Si  0.60 -2.57  1.36
Si  2.61  1.54  0.02
Si -0.19  3.32 -0.19
Si  2.61 -1.01 -1.97
Si  1.41  3.23  1.36
Si -1.15  2.57 -2.81
Si  0.32 -3.77 -1.84
Si  3.57 -2.48 -0.19
Si  0.37 -2.55  3.56
Si -3.45  2.04 -1.84
Si  0.36 -0.33  4.40
Si -4.31 -0.07 -1.29
Si  1.81 -4.26  0.02
Si -1.96 -3.23 -2.81
Si -3.16  3.23  1.36
Si -3.97 -2.57  1.36
Si  1.18  3.25  3.56
Si  4.84 -0.07 -1.29
Si  2.61 -3.23 -2.81
Si -2.77 -4.26  0.02
Si  3.42  2.57 -2.81
Si -1.16  4.79 -1.97
Si -1.12  2.71  4.54
Si -1.98  0.60  5.08
Si -2.02  5.10  0.35
Si  4.38  3.32 -0.19
Si -0.92  2.56 -5.02
Si  2.56  5.10  0.35
Si  2.60  0.60  5.08
Si -4.76  3.32 -0.19
Si -1.93 -3.09  4.54
Si -3.40  3.25  3.56
Si  5.18 -2.57  1.36
Si  1.07  5.73 -1.29
Si -4.25 -3.77 -1.84
Si -0.54 -5.88 -1.29
Si -4.20 -2.55  3.56
Si  2.65 -3.09  4.54
Si -4.21 -0.33  4.40
Si -5.57 -2.48 -0.19
Si  3.42  4.79 -1.97
Si -0.58 -1.38 -6.03
Si -1.72 -3.25 -5.02
Si  3.45  2.71  4.54
Si  5.70  2.04 -1.84
Si  6.32 -0.70  0.35
Si  0.28  0.87 -6.36
Si  4.89 -3.77 -1.84
Si  1.33 -1.80  6.19
Si  0.94 -6.50  0.35
Si  4.94 -2.55  3.56
Si  2.85 -3.25 -5.02
Si  4.94 -0.33  4.40
Si  3.66  2.56 -5.02
Si -6.53  1.54  0.02
Si -0.49 -0.03  6.72
Si  0.37  2.22  6.39
Si -3.50  5.73 -1.29
Si -5.72  2.57 -2.81
Si -6.54 -1.01 -1.97
Si  5.99  3.23  1.36
Si  1.17  5.47  4.40
Si -3.24 -1.80  6.19
Si  4.03 -5.88 -1.29
Si  1.80 -6.81 -1.97
Si -0.44 -3.58  6.39
Si  7.19  1.54  0.02
Si  3.99 -1.38 -6.03
Si  2.05  2.65 -6.56
Si  1.25 -3.16 -6.56
Si -1.15  7.34  0.02
Si -7.39 -0.70  0.35
Si -3.63 -6.50  0.35
Si  0.23  4.42 -6.03
Si  1.79 -5.20  5.08
Si  5.75  3.25  3.56
Si -2.52  2.65 -6.56
Si  7.18 -1.01 -1.97
Si -0.44 -6.13  4.40
Si -2.77 -6.81 -1.97
Si  6.38 -4.26  0.02
Si  2.14  4.00  6.19
Si -4.29  0.87 -6.36
Si -5.73  4.79 -1.97
Si -2.44  4.00  6.19
Si -5.69  2.71  4.54
Si -2.78 -5.20  5.08
Si -3.40  5.47  4.40
Si -6.53 -3.23 -2.81
Si -5.49  2.56 -5.02
Si  4.08 -0.03  6.72
Si -5.11 -5.88 -1.29
Si -4.20  2.22  6.39
Si -2.06 -0.75 -7.67
Si -3.33 -3.16 -6.56
Si  4.86  0.87 -6.36
Si -5.15 -1.38 -6.03
Si -0.52 -4.93 -6.36
Si  3.42  7.34  0.02
Si  2.51 -0.75 -7.67
Si -1.64 -1.89  7.74
Si  5.65  5.73 -1.29
Si -1.17  6.40  5.08
Si  1.93  7.84 -1.84
Si -6.55  0.60  5.08
Si -6.59  5.10  0.35
Si  7.19 -3.23 -2.81
Si  4.94  2.22  6.39
Si -1.21  1.36 -8.21
Si  4.13 -3.58  6.39
Si -5.07 -0.03  6.72
Si -2.64  7.84 -1.84
Si -1.80 -8.28 -0.19
Si -8.02  2.04 -1.84
Si -0.20 -8.37  1.36
Si -7.34 -4.26  0.02
Si  2.93 -1.89  7.74
Si -7.73  3.23  1.36
Si -6.50 -3.09  4.54
Si  8.15 -2.48 -0.19
Si  0.28 -1.69 -8.35
Si  5.52 -6.50  0.35
Si  4.13 -6.13  4.40
Si -4.34  4.42 -6.03
Si -6.30 -3.25 -5.02
Si -0.83  3.91  7.74
Si  2.77 -8.28 -0.19
Si  5.90 -1.80  6.19
Si  7.13  5.10  0.35
Si  7.17  0.60  5.08
Si -0.34  8.38 -2.81
Si  3.40  6.40  5.08
Si  7.99  2.57 -2.81
Si  0.31  5.78  6.72
Si -5.01 -3.58  6.39
Si  4.80  4.42 -6.03
Si -8.88 -0.07 -1.29
Si  3.37  1.36 -8.21
Si -1.30 -5.83  6.72
Si  4.05 -4.93 -6.36
Si -8.54 -2.57  1.36
Si -5.02 -6.13  4.40
Si  7.22 -3.09  4.54
Si  5.74  5.47  4.40
Si -0.44 -8.35  3.56
Si  0.61  9.12 -0.19
Si -1.25  5.05 -7.67
Si  1.09  6.67 -6.36
Si -5.73  7.34  0.02
Si -7.97  3.25  3.56
Si  5.82 -3.16 -6.56
Si  1.09  4.12 -8.35
Si  2.22  9.03  1.36
Si -2.35  9.03  1.36
Si  3.74  3.91  7.74
Si  1.09  1.90 -9.19
Si -1.39 -7.18 -6.03
Si  3.27 -5.83  6.72
Si  9.41 -0.07 -1.29
Si  7.99  4.79 -1.97
Si -5.09 -4.93 -6.36
Si  7.42 -3.25 -5.02
Si  6.37 -6.81 -1.97
Si -4.29 -1.69 -8.35
Si  4.37 -8.37  1.36
Si -2.01 -4.44 -8.21
Si  8.95  3.32 -0.19
Si  8.03  2.71  4.54
Si  1.81 -9.03 -2.81
Si -0.31  8.51  4.54
Si  6.36 -5.20  5.08
Si  2.56 -4.44 -8.21
Si  6.62  2.65 -6.56
Si -4.77 -8.37  1.36
Si -0.11  8.36 -5.02
Si -0.49 -9.57 -1.84
Si  3.32  5.05 -7.67
Si -8.83 -3.77 -1.84
Si  4.23  8.38 -2.81
Si  4.85 -1.69 -8.35
Si -8.78 -2.55  3.56
Si  0.52 -7.60  6.19
Si -8.78 -0.33  4.40
Si -4.26  5.78  6.72
Si -3.48  6.67 -6.36
Si -2.77 -9.03 -2.81
Si  3.19 -7.18 -6.03
Si -9.34  3.32 -0.19
Si  1.98  9.05  3.56
Si -3.49  4.12 -8.35
Si -3.96  9.12 -0.19
Si  6.71  4.00  6.19
Si  8.23  2.56 -5.02
Si  4.14 -8.35  3.56
Si -8.07  5.73 -1.29
Si  0.29 -3.90 -9.19
Si -5.74  6.40  5.08
Si -3.48  1.90 -9.19
Si -7.09  2.65 -6.56
Si -2.59  9.05  3.56
Si -6.21 -1.89  7.74
Si  1.00 -10.06  0.02
Si -4.92  8.38 -2.81
Si  4.89  5.78  6.72
Si -7.82 -1.80  6.19
Si -5.78  1.36 -8.21
Si  1.84 -8.89  4.54
Si -6.63 -0.75 -7.67
Si -7.01  4.00  6.19
Si  9.75 -2.57  1.36
Si -7.34 -6.81 -1.97
Si -5.41  3.91  7.74
Si  1.70 -6.55 -7.67
Si -1.87 -1.87  9.94
Si  1.18  8.02  6.39
Si -7.36 -5.20  5.08
Si  6.50  7.84 -1.84
Si -2.73 -8.89  4.54
Si  9.46 -3.77 -1.84
Si -5.01 -8.35  3.56
Si -10.14 -2.48 -0.19
Si -6.38 -8.28 -0.19
Si  7.08 -0.75 -7.67
Si  2.70 -1.87  9.94
Si -8.20 -6.50  0.35
Si  9.52 -2.55  3.56
Si  9.51 -0.33  4.40
Si -2.87 -6.55 -7.67
Si  5.19  9.12 -0.19
Si  8.61 -5.88 -1.29
Si  2.04 -9.05 -5.02
Si  4.26  8.51  4.54
Si  4.08 -9.57 -1.84
Si  8.57 -1.38 -6.03
Si -4.05 -7.60  6.19
Si -7.97  5.47  4.40
Si 10.27  2.04 -1.84
Si -2.53 -9.05 -5.02
Si -5.87 -5.83  6.72
Si -3.57 -10.06  0.02
Si  4.46  8.36 -5.02
Si -1.07  3.93  9.94
Si -7.90 -3.16 -6.56
Si -0.35 10.59 -1.97
Si -3.40  8.02  6.39
Si -7.21  7.84 -1.84
Si -4.68  8.36 -5.02
Si  5.66  6.67 -6.36
Si -4.89  8.51  4.54
Si -1.71  8.45 -6.56
Si  7.99  7.34  0.02
Si -4.29 -3.90 -9.19
Si -5.83  5.05 -7.67
Si  5.66  4.12 -8.35
Si -0.40  7.16 -8.21
Si 10.89 -0.70  0.35
Si -8.86  0.87 -6.36
Si  7.51 -1.89  7.74
Si -1.88  0.35 10.78
Si  8.65 -0.03  6.72
Si  5.67  1.90 -9.19
Si -1.21 10.90  0.35
Si -5.06 -9.57 -1.84
Si -10.30  2.57 -2.81
Si  5.10 -7.60  6.19
Si  7.34 -8.28 -0.19
Si  2.86  8.45 -6.56
Si -8.78  2.22  6.39
Si  4.86 -3.90 -9.19
Si -5.96 -7.18 -6.03
Si  0.44 -8.96 -6.56
Si  2.69  0.35 10.78
Si  2.13 -7.69  7.74
Si 10.56  3.23  1.36
Si -2.45 -7.69  7.74
Si  0.40 -2.41 10.91
Si -11.11  1.54  0.02
Si -0.53 -7.49 -8.35
Si  3.51  3.93  9.94
Si -11.11 -1.01 -1.97
Si  8.71 -3.58  6.39
Si  6.79  9.03  1.36
Si 10.32  3.25  3.56
Si -9.69 -5.88 -1.29
Si  9.43  0.87 -6.36
Si  6.38 -9.03 -2.81
Si  3.36 10.90  0.35
Si -1.25 -9.38  6.39
Si  7.97  6.40  5.08
Si -6.58 -4.44 -8.21
Si -6.93  9.03  1.36
Si  1.21  3.39 10.91
Si  5.57 -10.06  0.02
Si  7.94  1.36 -8.21
Si  8.70 -6.13  4.40
Si -9.72 -1.38 -6.03
Si -10.06  2.56 -5.02
Si -10.30  4.79 -1.97
Si  0.35  1.28 11.46
Si -10.27  2.71  4.54
Si  4.22 10.59 -1.97
Si  1.33  1.88 -11.39
Si -8.92  4.42 -6.03
Si  4.17  7.16 -8.21
Si  9.51  2.22  6.39
Si -1.63  9.80  6.19
Si  6.56  9.05  3.56
Si 10.95 -4.26  0.02
Si  7.13 -4.44 -8.21
Si  1.88 11.53 -1.29
Si -9.64 -0.03  6.72
Si  5.75  8.02  6.39
Si 10.22  5.73 -1.29
Si  8.62 -4.93 -6.36
Si -1.35 -11.68 -1.29
Si  3.33 -9.38  6.39
Si -4.92 10.59 -1.97
Si -4.13 -8.96 -6.56
Si 11.76  1.54  0.02
Si  7.84 -5.83  6.72
Si  6.41 -8.89  4.54
Si  6.28 -6.55 -7.67
Si -11.10 -3.23 -2.81
Si -2.69 11.53 -1.29
Si  1.03 10.22 -6.03
Si -3.36  3.39 10.91
Si  4.04 -7.49 -8.35
Si -4.17 -2.41 10.91
Si  2.94  9.80  6.19
Si 11.75 -1.01 -1.97
Si -7.34 -9.03 -2.81
Si -4.97  7.16 -8.21
Si  9.37  4.42 -6.03
Si -3.25  1.88 -11.39
Si -6.45 -1.87  9.94
Si -11.97 -0.70  0.35
Si 10.09 -6.50  0.35
Si  8.31  3.91  7.74
Si  0.52 -3.92 -11.39
Si -9.58 -3.58  6.39
Si -7.16  9.05  3.56
Si -5.64  3.93  9.94
Si  7.89  5.05 -7.67
Si  1.90  7.70 -9.19
Si  0.98 -11.00  5.08
Si  7.76 -7.18 -6.03
Si  3.23 -11.68 -1.29
Si  5.01 -8.96 -6.56
Si -9.59 -6.13  4.40
Si  1.89 -5.45 10.78
Si  4.97 -2.41 10.91
Si -8.05  6.67 -6.36
Si -11.12  0.60  5.08
Si  1.98 11.27  4.40
Si -11.16  5.10  0.35
Si  6.62 -9.05 -5.02
Si -4.22  1.28 11.46
Si -2.67  7.70 -9.19
Si -8.87 -1.69 -8.35
Si 10.48 -1.80  6.19
Si  0.14 -12.30  0.35
Si -8.06  4.12 -8.35
Si -5.10 -7.49 -8.35
Si  8.94 -8.37  1.36
Si -0.46 -4.52 11.46
Si -5.78 10.90  0.35
Si -11.07 -3.09  4.54
Si -8.05  1.90 -9.19
Si -7.31 -8.89  4.54
Si -2.69 -5.45 10.78
Si -2.60 11.27  4.40
Si -3.54 10.22 -6.03
Si -10.87 -3.25 -5.02
Si -6.29  8.45 -6.56
Si -0.03  9.71  7.74
Si -1.07  6.15 10.78
Si  7.27 -1.87  9.94
Si  8.80  8.38 -2.81
Si 10.32  5.47  4.40
Si -8.53  9.12 -0.19
Si -8.83  5.78  6.72
Si 11.76 -3.23 -2.81
Si -7.44 -6.55 -7.67
Si  4.92  1.28 11.46
Si -1.33 -10.73 -6.36
Si -7.10 -9.05 -5.02
Si -6.45  0.35 10.78
Si -9.67 -4.93 -6.36
Si  8.71 -8.35  3.56
Si -9.35 -8.37  1.36
Si -3.59 -11.00  5.08
Si -0.91 -1.12 12.56
Si -10.30  7.34  0.02
Si -11.91 -4.26  0.02
Si  1.67 -2.06 -12.40
Si 10.39 -3.16 -6.56
Si  1.89 -7.67  9.94
Si  9.43 -1.69 -8.35
Si -4.05 -3.92 -11.39
Si -5.82 -9.38  6.39
Si 11.70  5.10  0.35
Si -1.25 -11.93  4.40
Si -12.31  3.23  1.36
Si  0.99 -12.61 -1.97
Si  6.70 -7.69  7.74
Si 11.74  0.60  5.08
Si  5.78  3.39 10.91
Si -2.68 -7.67  9.94
Si -12.59  2.04 -1.84
Si  3.24 -10.73 -6.36
Si  3.50  6.15 10.78
Si -2.04  0.19 -12.73
Si -2.91 -2.06 -12.40
Si -8.15 -10.06  0.02
Si 12.72 -2.48 -0.19
Si  9.46  5.78  6.72
Si  5.90  1.88 -11.39
Si -9.49  8.38 -2.81
Si -7.02 -7.69  7.74
Si  2.53  0.19 -12.73
Si  4.12 -4.52 11.46
Si -7.97  8.02  6.39
Si  7.26  0.35 10.78
Si 11.79 -3.09  4.54
Si  7.43  8.45 -6.56
Si  8.66 -9.57 -1.84
Si 10.95 -6.81 -1.97
Si -8.62 -7.60  6.19
Si  5.09 -3.92 -11.39
Si  8.83  8.51  4.54
Si -4.44 -12.30  0.35
Si -0.28  1.97 -12.94
Si  1.89  9.92 -8.35
Si -2.10  3.74 -12.40
Si  5.61 10.22 -6.03
Si 10.93 -5.20  5.08
Si  3.66 -1.12 12.56
Si 12.57  2.57 -2.81
Si  3.32 -11.93  4.40
Si -6.20  9.80  6.19
Si -0.35 13.15  0.02
Si -5.92 -11.68 -1.29
Si -10.32  6.40  5.08
Si  4.71 -12.30  0.35
Si  2.47  3.74 -12.40
Si -9.58 -8.35  3.56
Si -9.98  3.91  7.74
Si  4.55  9.71  7.74
Si -0.36 12.21  5.08
Si -1.88  2.90 12.77
Si  1.89 -2.90 12.77
Si -2.68  9.92 -8.35
Si -4.60  9.71  7.74
Si  1.83  0.65 13.10
Si  1.75 -10.24 -8.21
Si 11.20  2.65 -6.56
Si -3.58 -12.61 -1.97
Si  6.45 11.53 -1.29
Si -10.35  1.36 -8.21
Si  9.04  8.36 -5.02
Si -0.45 10.85 -7.67
Si -5.03 -4.52 11.46
Si  5.55 -11.00  5.08
Si -8.86 -3.90 -9.19
Si  9.76  9.12 -0.19
Si -2.68 -2.90 12.77
Si  2.70  2.90 12.77
Si -0.52 -9.71 -9.19
Si  8.08  3.93  9.94
Si -2.74  0.65 13.10
Si 11.99 -3.25 -5.02
Si -0.11  4.68 12.56
Si -10.78 -1.89  7.74
Si -2.82 -10.24 -8.21
Si -13.11 -2.57  1.36
Si  1.12 11.57  6.72
Si -12.54  3.25  3.56
Si -9.26  8.36 -5.02
Si 11.28  4.00  6.19
Si  7.94 10.90  0.35
Si -9.46  8.51  4.54
Si -13.45 -0.07 -1.29
Si  1.16  7.08 11.46
Si -1.08 -3.83 -12.94
Si 12.56  4.79 -1.97
Si -2.11 -11.63  6.72
Si -11.21 -0.75 -7.67
Si  6.47  7.70 -9.19
Si -5.65  6.15 10.78
Si -11.67  2.65 -6.56
Si  2.46 -11.63  6.72
Si 12.60  2.71  4.54
Si -0.41 -8.21 10.91
