500
set: 33.00  0.00  0.00
Si  0.00  0.00  0.00
Si  0.43 -0.21  2.46
Si -0.43  0.21 -2.46
Si  1.27 -2.19  0.00
Si -1.27  2.19  0.00
Si -1.47 -2.19  0.00
Si  1.47  2.19  0.00
Si  2.73  0.00  0.00
Si -2.73  0.00  0.00
Si  0.83 -1.98 -2.46
Si -0.83  1.98  2.46
Si  2.30  0.21 -2.46
Si -2.30 -0.21  2.46
Si -1.04 -2.40  2.46
Si  1.04  2.40 -2.46
Si  1.90  1.98  2.46
Si -1.90 -1.98 -2.46
Si -1.70  2.40 -2.46
Si  1.70 -2.40  2.46
Si -3.17  0.21 -2.46
Si  3.17 -0.21  2.46
Si -0.20 -4.38  0.00
Si  0.20  4.38  0.00
Si -4.00  2.19  0.00
Si  4.00 -2.19  0.00
Si -4.20 -2.19  0.00
Si  4.20  2.19  0.00
Si -3.57  1.98  2.46
Si  3.57 -1.98 -2.46
Si -0.63 -4.17 -2.46
Si  0.63  4.17  2.46
Si -0.86  0.42 -4.92
Si  0.86 -0.42  4.92
Si -2.53  4.38  0.00
Si  2.53 -4.38  0.00
Si -3.77 -2.40  2.46
Si  3.77  2.40 -2.46
Si  0.23 -4.59  2.46
Si -0.23  4.59 -2.46
Si -0.40  1.77  4.92
Si  0.40 -1.77 -4.92
Si  2.94  4.38  0.00
Si -2.94 -4.38  0.00
Si  1.87  0.42 -4.92
Si -1.87 -0.42  4.92
Si -2.10  4.17  2.46
Si  2.10 -4.17 -2.46
Si -5.47  0.00  0.00
Si  5.47  0.00  0.00
Si  0.61  2.61 -4.92
Si -0.61 -2.61  4.92
Si  4.63  1.98  2.46
Si -4.63 -1.98 -2.46
Si  4.43 -2.40  2.46
Si -4.43  2.40 -2.46
Si  5.04  0.21 -2.46
Si -5.04 -0.21  2.46
Si  2.33  1.77  4.92
Si -2.33 -1.77 -4.92
Si -2.51 -4.59  2.46
Si  2.51  4.59 -2.46
Si  3.37  4.17  2.46
Si -3.37 -4.17 -2.46
Si  2.13 -2.61  4.92
Si -2.13  2.61 -4.92
Si -2.96  4.59 -2.46
Si  2.96 -4.59  2.46
Si -3.14  1.77  4.92
Si  3.14 -1.77 -4.92
Si -3.60  0.42 -4.92
Si  3.60 -0.42  4.92
Si -5.90  0.21 -2.46
Si  5.90 -0.21  2.46
Si  1.06  3.96  4.92
Si -1.06 -3.96 -4.92
Si  3.34  2.61 -4.92
Si -3.34 -2.61  4.92
Si -1.67  3.96  4.92
Si  1.67 -3.96 -4.92
Si -1.06  6.57  0.00
Si  1.06 -6.57  0.00
Si -4.61 -0.42  4.92
Si  4.61  0.42 -4.92
Si  1.67  6.57  0.00
Si -1.67 -6.57  0.00
Si -4.84  4.17  2.46
Si  4.84 -4.17 -2.46
Si -0.63  6.36  2.46
Si  0.63 -6.36 -2.46
Si -5.27  4.38  0.00
Si  5.27 -4.38  0.00
Si -0.66  4.80 -4.92
Si  0.66 -4.80  4.92
Si -6.31  1.98  2.46
Si  6.31 -1.98 -2.46
Si  6.74 -2.19  0.00
Si -6.74  2.19  0.00
Si -2.10 -6.36 -2.46
Si  2.10  6.36  2.46
Si -5.67 -4.38  0.00
Si  5.67  4.38  0.00
Si -2.08 -4.80  4.92
Si  2.08  4.80 -4.92
Si  6.94  2.19  0.00
Si -6.94 -2.19  0.00
Si -5.07 -1.77 -4.92
Si  5.07  1.77  4.92
Si -1.24 -6.78  2.46
Si  1.24  6.78 -2.46
Si -6.51 -2.40  2.46
Si  6.51  2.40 -2.46
Si -1.50  6.78 -2.46
Si  1.50 -6.78  2.46
Si -3.80 -3.96 -4.92
Si  3.80  3.96  4.92
Si  5.24  4.59 -2.46
Si -5.24 -4.59  2.46
Si -4.86  2.61 -4.92
Si  4.86 -2.61  4.92
Si  1.29 -0.63  7.37
Si -1.29  0.63 -7.37
Si -0.03 -1.56 -7.37
Si  0.03  1.56  7.37
Si  1.44  0.63 -7.37
Si -1.44 -0.63  7.37
Si  3.80 -6.57  0.00
Si -3.80  6.57  0.00
Si  3.37 -6.36 -2.46
Si -3.37  6.36  2.46
Si  3.40 -4.80  4.92
Si -3.40  4.80 -4.92
Si  4.41 -3.96 -4.92
Si -4.41  3.96  4.92
Si -5.70  4.59 -2.46
Si  5.70 -4.59  2.46
Si  6.10  4.17  2.46
Si -6.10 -4.17 -2.46
Si -5.88  1.77  4.92
Si  5.88 -1.77 -4.92
Si  0.20 -6.15 -4.92
Si -0.20  6.15  4.92
Si  0.18  2.82 -7.37
Si -0.18 -2.82  7.37
Si  4.41  6.57  0.00
Si -4.41 -6.57  0.00
Si  7.17 -2.40  2.46
Si -7.17  2.40 -2.46
Si -2.71  1.56  7.37
Si  2.71 -1.56 -7.37
Si  7.37  1.98  2.46
Si -7.37 -1.98 -2.46
Si  2.76  1.56  7.37
Si -2.76 -1.56 -7.37
Si  6.33 -0.42  4.92
Si -6.33  0.42 -4.92
Si  7.77  0.21 -2.46
Si -7.77 -0.21  2.46
Si -8.21  0.00  0.00
Si  8.21  0.00  0.00
Si -3.98 -6.78  2.46
Si  3.98  6.78 -2.46
Si -6.08 -2.61  4.92
Si  6.08  2.61 -4.92
Si -2.53 -6.15 -4.92
Si  2.53  6.15  4.92
Si -2.56  2.82 -7.37
Si  2.56 -2.82  7.37
Si  4.84  6.36  2.46
Si -4.84 -6.36 -2.46
Si  4.23 -6.78  2.46
Si -4.23  6.78 -2.46
Si  1.24 -3.75 -7.37
Si -1.24  3.75  7.37
Si -4.81 -4.80  4.92
Si  4.81  4.80 -4.92
Si -2.94  6.15  4.92
Si  2.94 -6.15 -4.92
Si  1.50  3.75  7.37
Si -1.50 -3.75 -7.37
Si -2.91 -2.82  7.37
Si  2.91  2.82 -7.37
Si -4.03  0.63 -7.37
Si  4.03 -0.63  7.37
Si -4.18 -0.63  7.37
Si  4.18  0.63 -7.37
Si  0.81  6.99 -4.92
Si -0.81 -6.99  4.92
Si  1.93 -6.99  4.92
Si -1.93  6.99 -4.92
Si -0.40 -8.76  0.00
Si  0.40  8.76  0.00
Si  7.34  0.42 -4.92
Si -7.34 -0.42  4.92
Si -0.83 -8.55 -2.46
Si  0.83  8.55  2.46
Si  1.09 -5.01  7.37
Si -1.09  5.01 -7.37
Si -8.64  0.21 -2.46
Si  8.64 -0.21  2.46
Si  7.57 -4.17 -2.46
Si -7.57  4.17  2.46
Si  1.64  5.01 -7.37
Si -1.64 -5.01  7.37
Si  2.33 -8.76  0.00
Si -2.33  8.76  0.00
Si  6.53  3.96  4.92
Si -6.53 -3.96 -4.92
Si -1.90  8.55  2.46
Si  1.90 -8.55 -2.46
Si  8.00 -4.38  0.00
Si -8.00  4.38  0.00
Si -6.10  6.36  2.46
Si  6.10 -6.36 -2.46
Si -3.98  3.75  7.37
Si  3.98 -3.75 -7.37
Si  6.13 -4.80  4.92
Si -6.13  4.80 -4.92
Si  3.54  6.99 -4.92
Si -3.54 -6.99  4.92
Si  6.53 -6.57  0.00
Si -6.53  6.57  0.00
Si -4.23 -3.75 -7.37
Si  4.23  3.75  7.37
Si -5.44  1.56  7.37
Si  5.44 -1.56 -7.37
Si -0.03  8.97 -2.46
Si  0.03 -8.97  2.46
Si -3.14 -8.76  0.00
Si  3.14  8.76  0.00
Si  5.50  1.56  7.37
Si -5.50 -1.56 -7.37
Si -7.80 -1.77 -4.92
Si  7.80  1.77  4.92
Si -7.60  2.61 -4.92
Si  7.60 -2.61  4.92
Si -0.23 -5.94 -7.37
Si  0.23  5.94  7.37
Si  5.27  6.15  4.92
Si -5.27 -6.15 -4.92
Si  8.41  4.38  0.00
Si -8.41 -4.38  0.00
Si -5.29  2.82 -7.37
Si  5.29 -2.82  7.37
Si  7.98  4.59 -2.46
Si -7.98 -4.59  2.46
Si -7.14  3.96  4.92
Si  7.14 -3.96 -4.92
Si  9.04 -1.98 -2.46
Si -9.04  1.98  2.46
Si  3.57  8.55  2.46
Si -3.57 -8.55 -2.46
Si -2.71 -8.97  2.46
Si  2.71  8.97 -2.46
Si  3.83 -5.01  7.37
Si -3.83  5.01 -7.37
Si  5.67 -6.15 -4.92
Si -5.67  6.15  4.92
Si  2.76 -8.97  2.46
Si -2.76  8.97 -2.46
Si -7.14 -6.57  0.00
Si  7.14  6.57  0.00
Si  5.65  2.82 -7.37
Si -5.65 -2.82  7.37
Si -9.47  2.19  0.00
Si  9.47 -2.19  0.00
Si  4.66 -6.99  4.92
Si -4.66  6.99 -4.92
Si -1.27 -8.34 -4.92
Si  1.27  8.34  4.92
Si -1.47  8.34  4.92
Si  1.47 -8.34 -4.92
Si -2.51  5.94  7.37
Si  2.51 -5.94 -7.37
Si  6.71  6.78 -2.46
Si -6.71 -6.78  2.46
Si  9.24  2.40 -2.46
Si -9.24 -2.40  2.46
Si -8.43  4.59 -2.46
Si  8.43 -4.59  2.46
Si -1.01 -0.84  9.83
Si  1.01  0.84 -9.83
Si  9.67  2.19  0.00
Si -9.67 -2.19  0.00
Si  2.96  5.94  7.37
Si -2.96 -5.94 -7.37
Si -0.46 -1.35 -9.83
Si  0.46  1.35  9.83
Si -4.38 -5.01  7.37
Si  4.38  5.01 -7.37
Si  1.72 -0.84  9.83
Si -1.72  0.84 -9.83
Si  6.76 -0.63  7.37
Si -6.76  0.63 -7.37
Si  6.96 -6.78  2.46
Si -6.96  6.78 -2.46
Si  4.63 -8.55 -2.46
Si -4.63  8.55  2.46
Si -8.61  1.77  4.92
Si  8.61 -1.77 -4.92
Si -8.84 -4.17 -2.46
Si  8.84  4.17  2.46
Si -5.07  8.76  0.00
Si  5.07 -8.76  0.00
Si  6.91  0.63 -7.37
Si -6.91 -0.63  7.37
Si -2.28  1.35  9.83
Si  2.28 -1.35 -9.83
Si  7.57  6.36  2.46
Si -7.57 -6.36 -2.46
Si -7.54 -4.80  4.92
Si  7.54  4.80 -4.92
Si  0.26 -3.03  9.83
Si -0.26  3.03 -9.83
Si -0.38 -7.20  7.37
Si  0.38  7.20 -7.37
Si -9.07  0.42 -4.92
Si  9.07 -0.42  4.92
Si  8.81  2.61 -4.92
Si -8.81 -2.61  4.92
Si  3.19  1.35  9.83
Si -3.19 -1.35 -9.83
Si  0.46 -9.18  4.92
Si -0.46  9.18 -4.92
Si -4.00 -8.34 -4.92
Si  4.00  8.34  4.92
Si -0.81  3.54  9.83
Si  0.81 -3.54 -9.83
Si  9.90 -2.40  2.46
Si -9.90  2.40 -2.46
Si  5.88  8.76  0.00
Si -5.88 -8.76  0.00
Si -3.75 -0.84  9.83
Si  3.75  0.84 -9.83
Si -4.20  8.34  4.92
Si  4.20 -8.34 -4.92
Si -2.36  7.20 -7.37
Si  2.36 -7.20  7.37
Si  2.48  3.03 -9.83
Si -2.48 -3.03  9.83
Si 10.11  1.98  2.46
Si -10.11 -1.98 -2.46
Si -6.28 -6.99  4.92
Si  6.28  6.99 -4.92
Si  1.93  3.54  9.83
Si -1.93 -3.54 -9.83
Si  6.71 -3.75 -7.37
Si -6.71  3.75  7.37
Si  2.28  9.18 -4.92
Si -2.28 -9.18  4.92
Si -2.99  3.03 -9.83
Si  2.99 -3.03  9.83
Si -3.11 -7.20  7.37
Si  3.11  7.20 -7.37
Si -5.44 -8.97  2.46
Si  5.44  8.97 -2.46
Si -10.51 -0.21  2.46
Si 10.51  0.21 -2.46
Si  5.50 -8.97  2.46
Si -5.50  8.97 -2.46
Si  6.96  3.75  7.37
Si -6.96 -3.75 -7.37
Si  5.24 -5.94 -7.37
Si -5.24  5.94  7.37
Si -4.46  0.84 -9.83
Si  4.46 -0.84  9.83
Si  3.19 -9.18  4.92
Si -3.19  9.18 -4.92
Si -6.31 -8.55 -2.46
Si  6.31  8.55  2.46
Si 10.94  0.00  0.00
Si -10.94  0.00  0.00
Si -0.86 10.95  0.00
Si  0.86 -10.95  0.00
Si  1.04 -8.13 -7.37
Si -1.04  8.13  7.37
Si -0.43 10.74  2.46
Si  0.43 -10.74 -2.46
Si -3.54  3.54  9.83
Si  3.54 -3.54 -9.83
Si -5.70 -5.94 -7.37
Si  5.70  5.94  7.37
Si  6.56 -5.01  7.37
Si -6.56  5.01 -7.37
Si  1.70  8.13  7.37
Si -1.70 -8.13 -7.37
Si -1.87 -10.95  0.00
Si  1.87 10.95  0.00
Si -5.01  1.35  9.83
Si  5.01 -1.35 -9.83
Si -8.18  1.56  7.37
Si  8.18 -1.56 -7.37
Si -8.23 -1.56 -7.37
Si  8.23  1.56  7.37
Si -8.84  6.36  2.46
Si  8.84 -6.36 -2.46
Si -1.21 -5.22  9.83
Si  1.21  5.22 -9.83
Si -9.27 -3.96 -4.92
Si  9.27  3.96  4.92
Si  8.87 -4.80  4.92
Si -8.87  4.80 -4.92
Si 10.08  0.42 -4.92
Si -10.08 -0.42  4.92
Si -8.00 -6.15 -4.92
Si  8.00  6.15  4.92
Si -1.52  5.22 -9.83
Si  1.52 -5.22  9.83
Si -2.30 -10.74 -2.46
Si  2.30 10.74  2.46
Si  8.03 -2.82  7.37
Si -8.03  2.82 -7.37
Si -7.40  6.99 -4.92
Si  7.40 -6.99  4.92
Si -9.27  6.57  0.00
Si  9.27 -6.57  0.00
Si 10.31 -4.17 -2.46
Si -10.31  4.17  2.46
Si -0.66 -5.73 -9.83
Si  0.66  5.73  9.83
Si -7.11 -5.01  7.37
Si  7.11  5.01 -7.37
Si -4.66 -3.54 -9.83
Si  4.66  3.54  9.83
Si  3.17 -10.74 -2.46
Si -3.17 10.74  2.46
Si  5.09 -7.20  7.37
Si -5.09  7.20 -7.37
Si -1.29 11.16 -2.46
Si  1.29 -11.16  2.46
Si -8.38 -2.82  7.37
Si  8.38  2.82 -7.37
Si  8.41 -6.15 -4.92
Si -8.41  6.15  4.92
Si -1.44 -11.16  2.46
Si  1.44 11.16 -2.46
Si -3.60 10.95  0.00
Si  3.60 -10.95  0.00
Si  5.21  3.03 -9.83
Si -5.21 -3.03  9.83
Si  7.37 -8.55 -2.46
Si -7.37  8.55  2.46
Si  5.93  1.35  9.83
Si -5.93 -1.35 -9.83
Si  5.01  9.18 -4.92
Si -5.01 -9.18  4.92
Si -2.08  5.73  9.83
Si  2.08 -5.73 -9.83
Si -10.74  4.38  0.00
Si 10.74 -4.38  0.00
Si  3.77 -8.13 -7.37
Si -3.77  8.13  7.37
Si  0.00 -10.53 -4.92
Si -0.00 10.53  4.92
Si -11.37  0.21 -2.46
Si 11.37 -0.21  2.46
Si  9.88 -3.96 -4.92
Si -9.88  3.96  4.92
Si -7.80  8.76  0.00
Si  7.80 -8.76  0.00
Si -10.33  2.61 -4.92
Si 10.33 -2.61  4.92
Si -10.54 -1.77 -4.92
Si 10.54  1.77  4.92
Si -5.73  3.03 -9.83
Si  5.73 -3.03  9.83
Si  6.74  8.34  4.92
Si -6.74 -8.34 -4.92
Si -6.48 -0.84  9.83
Si  6.48  0.84 -9.83
Si -3.95 -5.22  9.83
Si  3.95  5.22 -9.83
Si  4.43  8.13  7.37
Si -4.43 -8.13 -7.37
Si -5.85 -7.20  7.37
Si  5.85  7.20 -7.37
Si  9.88  6.57  0.00
Si -9.88 -6.57  0.00
Si  3.40  5.73  9.83
Si -3.40 -5.73 -9.83
Si -4.61 -10.95  0.00
Si  4.61 10.95  0.00
Si -9.45 -6.78  2.46
Si  9.45  6.78 -2.46
Si  6.94 -8.34 -4.92
Si -6.94  8.34  4.92
Si -10.71 -4.59  2.46
Si 10.71  4.59 -2.46
Si  4.26 -5.22  9.83
Si -4.26  5.22 -9.83
Si  2.73 10.53  4.92
Si -2.73 -10.53 -4.92
Si -2.73 10.53  4.92
Si  2.73 -10.53 -4.92
Si -11.14 -4.38  0.00
Si 11.14  4.38  0.00
Si -0.89  9.39 -7.37
Si  0.89 -9.39  7.37
Si  5.93 -9.18  4.92
Si -5.93  9.18 -4.92
Si -9.50  0.63 -7.37
