500
set: 1509.00  0.00  0.00
Si -0.03 -1.31  1.28
Si  1.81  0.41  1.11
Si -1.55 -1.50 -0.47
Si -2.60  0.57  0.26
Si -1.17  2.39 -0.47
Si -1.27  1.01  2.17
Si  0.35  2.58  1.28
Si -1.11 -1.11 -2.60
Si  0.51  0.46 -3.48
Si  3.02 -1.89  0.21
Si -0.73  2.79 -2.60
Si  1.43 -3.48  1.11
Si  3.40  2.00  0.21
Si -1.65 -2.88  2.17
Si -3.26  0.33 -2.66
Si  3.49 -1.50 -1.90
Si  3.33  0.62  2.86
Si -2.98 -3.33  0.26
Si  1.97 -1.71 -3.65
Si -3.80 -1.44  2.11
Si -1.71  0.62  4.29
Si -3.42  2.45  2.11
Si  2.35  2.18 -3.65
Si  0.13 -3.44 -3.48
Si  3.87  2.39 -1.90
Si  2.19  4.30  1.11
Si -2.22  4.46  0.26
Si  4.37 -1.44  2.11
Si -4.76  2.00  0.21
Si  2.95 -3.27  2.86
Si -4.68 -1.50 -1.90
Si -4.30  2.39 -1.90
Si -1.01  0.27 -5.24
Si -2.44 -1.55 -4.50
Si -0.41 -5.21  1.28
Si -0.89  4.91  2.17
Si -2.06  2.34 -4.50
Si -5.14 -1.89  0.21
Si  4.91  0.33 -2.66
Si  5.57  0.57  0.26
Si  0.89  4.35 -3.48
Si -4.84  0.62  2.86
Si  4.75  2.45  2.11
Si -3.64 -3.56 -2.66
Si  2.87  0.23  4.97
Si -1.93 -5.40 -0.47
Si -2.88  4.22 -2.66
Si  3.56 -0.12 -4.55
Si -2.09 -3.28  4.29
Si -1.49 -5.00 -2.60
Si -3.14 -1.20  5.03
Si -0.18  0.81  6.04
Si  1.27 -1.36  5.87
Si  5.19 -3.33  0.26
Si -2.76  2.69  5.03
Si  4.53 -3.56 -2.66
Si -0.79  6.28 -0.47
Si -1.33  4.51  4.29
Si  2.64 -5.79  0.21
Si -6.36  0.41  1.11
Si -4.61 -0.12 -4.55
Si  3.71  4.51  2.86
Si  3.11 -5.39 -1.90
Si -1.39 -3.62 -5.24
Si  1.66  2.53  5.87
Si  0.73  6.47  1.28
Si  2.49 -3.67  4.97
Si -0.63  4.16 -5.24
Si -5.22 -3.27  2.86
Si  6.62 -1.50 -0.47
Si -0.56 -3.09  6.04
Si  3.18 -4.01 -4.55
Si  1.59 -5.61 -3.65
Si -4.46  4.51  2.86
Si  3.99 -5.33  2.11
Si  3.79  5.89  0.21
Si -4.18 -5.33  2.11
Si  3.94  3.77 -4.55
Si -0.35  6.68 -2.60
Si -1.81 -0.76  6.93
Si -5.82  2.18 -3.65
Si  5.03 -1.20  5.03
Si  3.25  4.12  4.97
Si -4.23  3.77 -4.55
Si  5.29  4.22 -2.66
Si -5.30  0.23  4.97
Si  6.90  1.01  2.17
Si -3.04  6.34  2.11
Si -4.38  5.89  0.21
Si -2.03 -6.77  2.17
Si -6.20 -1.71 -3.65
Si  7.00  2.39 -0.47
Si -0.57  0.66 -7.36
Si  5.95  4.46  0.26
Si -5.98  4.30  1.11
Si  5.73 -1.55 -4.50
Si  6.52 -2.88  2.17
Si  1.05 -7.38  1.11
Si  2.73  6.07 -3.65
Si  7.06 -1.11 -2.60
Si -2.82 -5.45 -4.50
Si -5.06 -5.39 -1.90
Si -3.92  6.28 -1.90
Si  0.20  4.70  6.04
Si -6.74 -3.48  1.11
Si -1.43  3.13  6.93
Si  6.46  0.62  4.29
Si  4.03  0.27 -6.66
Si  4.25  6.28 -1.90
Si -4.14  0.27 -6.66
Si -4.99 -4.01 -4.55
Si  5.41  2.69  5.03
Si -1.68  6.23 -4.50
Si  0.89 -5.26  5.87
Si  6.11  2.34 -4.50
Si -3.96  0.68  6.87
Si -3.36 -7.22  0.26
Si -3.52 -5.10  5.03
Si -5.52 -5.79  0.21
Si  4.21  0.68  6.87
Si -0.95 -3.23 -7.36
Si -0.25 -7.33 -3.48
Si -4.92  4.12  4.97
Si  6.08 -3.28  4.29
Si  2.57 -7.17  2.86
Si -2.73  2.10 -7.42
Si  2.79 -1.15  7.63
Si -3.10 -1.79 -7.42
Si  6.24 -5.40 -0.47
Si -7.81  2.58  1.28
Si  8.14 -1.31  1.28
Si  7.44  2.79 -2.60
Si -5.68 -3.67  4.97
Si -8.19 -1.31  1.28
Si  3.65 -3.62 -6.66
Si -7.66  0.46 -3.48
Si  5.13  6.34  2.11
Si  0.67 -1.66 -8.24
Si  3.83 -3.21  6.87
Si  4.65 -5.10  5.03
Si -1.84  8.35  0.26
Si  1.05  2.23 -8.24
Si -2.38  6.58  5.03
Si -2.19 -4.65  6.93
Si -0.19  4.56 -7.36
Si  2.57  8.20  1.11
Si  4.81 -7.22  0.26
Si  3.17  2.74  7.63
Si -3.76  4.16 -6.66
Si -2.47 -7.17  4.29
Si  6.68 -5.00 -2.60
Si -4.34 -3.21  6.87
Si  2.51  0.06 -8.42
Si -4.52 -3.62 -6.66
Si  5.35 -5.45 -4.50
Si  7.16  0.27 -5.24
Si -4.02 -7.46 -2.66
Si -2.50  8.12 -2.66
Si  4.15 -7.46 -2.66
Si -5.44  6.07 -3.65
Si  2.04  6.42  5.87
Si -3.58  4.57  6.87
Si  8.52  2.58  1.28
Si  4.41  4.16 -6.66
Si  1.27  8.24 -3.48
Si  7.28  4.91  2.17
Si -0.51  8.80  2.17
Si -6.51  2.53  5.87
Si -6.89 -1.36  5.87
Si  5.06 -1.79 -7.42
Si -7.28  4.35 -3.48
Si -0.79 -9.10  1.28
Si  6.84  4.51  4.29
Si -0.94 -6.98  6.04
Si  2.11 -7.56  4.97
Si  6.78 -3.62 -5.24
Si -1.77 -7.52 -5.24
Si  8.68  0.46 -3.48
Si -6.58 -5.61 -3.65
Si  6.14 -6.77  2.17
Si -2.25 -1.16  9.05
Si -5.38 -1.15  7.63
Si -8.04 -3.44 -3.48
Si  7.76 -5.21  1.28
Si  6.36 -0.76  6.93
Si  5.44  2.10 -7.42
Si  4.59  4.57  6.87
Si -1.87 -8.89 -2.60
Si  2.41 -5.05  7.63
Si -1.90  0.22 -9.26
Si -0.95  8.40  4.29
Si  2.13 -3.83 -8.42
Si -5.00  2.74  7.63
Si -5.60 -7.17  2.86
Si  2.80 -7.91 -4.55
Si -2.31 -9.29 -0.47
Si -0.25  8.05 -5.24
Si  8.30 -3.44 -3.48
Si -1.86  2.74  9.05
Si -9.34  2.39 -0.47
Si -8.90  2.79 -2.60
Si -9.28 -1.11 -2.60
Si  7.38  6.28 -0.47
Si -3.85  7.67 -4.55
Si -9.44  1.01  2.17
Si  2.89  3.95 -8.42
Si -4.08  8.40  2.86
Si  4.09  8.40  2.86
Si -2.35  6.00 -7.42
Si -9.72 -1.50 -0.47
Si  2.73 -9.29 -1.90
Si  4.32  7.67 -4.55
Si -1.05  7.03  6.93
Si -7.43  6.47  1.28
Si  2.26 -9.68  0.21
Si  0.29 -5.56 -8.24
Si -3.48 -5.68 -7.42
Si -5.60  8.20  1.11
Si  7.99  0.81  6.04
Si  9.98  0.41  1.11
Si  6.49  6.23 -4.50
Si  7.54  4.16 -5.24
Si  3.63  8.01  4.97
Si  5.79  6.58  5.03
Si  5.70 -7.17  4.29
Si -8.57 -5.21  1.28
Si  3.61 -9.23  2.11
Si  2.33 -1.54  9.74
Si -5.66  0.06 -8.42
Si  6.74  3.13  6.93
Si  7.61 -3.09  6.04
Si -0.41 10.18 -0.47
Si -0.85 -1.85 -10.00
Si -0.47  2.04 -10.00
Si -2.28 -3.67 -9.26
Si  1.21 -9.50 -3.65
Si  5.67  8.12 -2.66
Si -1.52  4.11 -9.26
Si  5.98 -4.65  6.93
Si  9.60 -3.48  1.11
Si  3.72 -2.24 -9.31
Si -4.07  1.65 -9.31
Si  4.10  1.65 -9.31
Si -7.12 -7.38  1.11
Si -1.33 -7.12 -7.36
Si -8.35  0.81  6.04
Si -3.29  0.92  9.79
Si  1.43  6.12 -8.24
Si  2.71  2.35  9.74
Si  4.68 -5.68 -7.42
Si -9.82 -2.88  2.17
Si -4.54  8.01  4.97
Si  3.45 -7.11  6.87
Si  6.33  8.35  0.26
Si  1.11 10.37  1.28
Si -4.56 -9.23  2.11
Si  0.58  8.59  6.04
Si -9.06  4.91  2.17
Si  3.27 -7.52 -6.66
Si -4.45 -2.24 -9.31
Si -9.18  0.27 -5.24
Si -4.00  9.79  0.21
Si -5.37 -7.91 -4.55
Si  7.59  0.66 -7.36
Si  7.82  6.68 -2.60
Si  9.06  4.35 -3.48
Si  4.17  9.79  0.21
Si -6.13  6.42  5.87
Si -2.62 -5.05  9.05
Si -5.28  3.95 -8.42
Si  3.55  6.63  7.63
Si  1.12  0.76 10.63
Si -7.27 -5.26  5.87
Si -9.88  0.62  4.29
Si -10.77  0.57  0.26
Si -2.66 10.24  2.11
Si  7.21 -3.23 -7.36
Si -5.75 -5.05  7.63
Si -3.20 -9.34 -4.50
Si -3.67 -2.98  9.79
Si -0.72 -0.97 10.81
Si  5.92 -1.16  9.05
Si  0.51 -9.15  5.87
Si  0.03 10.57 -2.60
Si -6.06 -7.56  4.97
Si 10.14 -1.71 -3.65
Si -5.44 -9.29 -1.90
Si -3.54 10.18 -1.90
Si -8.96  6.28 -0.47
Si -4.72 -7.11  6.87
Si  4.88  0.92  9.79
Si -3.38  8.06 -6.66
Si  5.86 -9.29 -0.47
Si -3.90 -8.99  5.03
Si -6.04 -3.83 -8.42
Si -7.97  4.70  6.04
Si -8.80  4.16 -5.24
Si -8.73 -3.09  6.04
Si  3.11  9.97 -3.65
Si  8.90  6.47  1.28
Si -4.62  6.63  7.63
Si  0.74 -3.14 10.63
Si -7.12  2.23 -8.24
Si -8.52  6.68 -2.60
Si -2.41 -10.67  2.17
Si  4.27 -8.99  5.03
Si -1.30 10.13 -4.50
Si  6.40 -7.52 -5.24
Si  4.50 -2.98  9.79
Si -4.90 -7.52 -6.66
Si  5.82  6.00 -7.42
Si -9.66 -5.00 -2.60
Si  6.26  0.22 -9.26
Si -0.34  2.93 10.81
Si  6.30 -8.89 -2.60
Si  9.44 -1.36  5.87
Si  0.19  8.45 -7.36
Si -7.50 -1.66 -8.24
Si 10.36  4.30  1.11
Si -2.91  4.81  9.79
Si -6.90  8.24 -3.48
Si -2.57 -8.55  6.93
Si -10.39  4.46  0.26
Si -1.49  6.63  9.05
Si  1.95 -5.44  9.74
Si  7.92 -7.33 -3.48
Si  8.37  4.70  6.04
Si -5.90 -9.68  0.21
Si  4.63 10.18 -1.90
Si  0.67 -11.27  1.11
Si 10.52  2.18 -3.65
Si -9.50  4.51  4.29
Si 11.19 -1.89  0.21
Si -3.20  8.46  6.87
Si  6.30  2.74  9.05
Si -5.46  2.35  9.74
Si -10.23  2.34 -4.50
Si -8.74  0.66 -7.36
Si -3.69  5.54 -9.31
Si -5.84 -1.54  9.74
Si -10.10 -5.40 -0.47
Si -9.56 -3.62 -5.24
Si  4.97 -9.34 -4.50
Si  4.79  8.06 -6.66
Si  1.75 -7.73 -8.42
Si  5.88 -3.67 -9.26
Si -10.26 -3.28  4.29
Si -1.24 -5.75 -10.00
Si -10.61 -1.55 -4.50
Si -0.09  5.93 -10.00
Si  2.19 -11.06  2.86
Si -11.15 -3.33  0.26
Si  3.34 -6.13 -9.31
Si -8.42 -7.33 -3.48
Si  1.50  4.65 10.63
Si  9.82  2.53  5.87
Si  7.22 -6.98  6.04
Si -3.74 -11.11  0.26
Si  4.48  5.54 -9.31
Si -11.43  0.33 -2.66
Si 11.57  2.00  0.21
Si  5.54 -5.05  9.05
Si -5.06  9.97 -3.65
Si -0.63 -11.22 -3.48
Si  7.97  4.56 -7.36
Si -2.00 10.47  5.03
Si  7.38 -9.10  1.28
Si  5.51 10.24  2.11
Si  9.76 -5.61 -3.65
Si  9.22 -7.38  1.11
Si  7.66  8.80  2.17
Si 11.50  0.62  2.86
Si  7.22  8.40  4.29
Si -1.10 -4.86 10.81
Si 11.66 -1.50 -1.90
Si  2.03 -8.94  7.63
Si -1.97  1.36 11.69
Si 11.12 -3.27  2.86
Si  3.27  7.85 -8.42
Si  4.43 -11.11  0.26
Si  3.09  6.24  9.74
Si  4.97  8.46  6.87
Si  9.06 -5.26  5.87
Si -11.59  2.45  2.11
Si -8.36  4.56 -7.36
Si  5.25  4.81  9.79
Si 11.04  0.23  4.97
Si  2.42 10.31  5.87
Si  6.65  4.11 -9.26
Si -11.05  4.22 -2.66
Si -3.60  2.04 -11.43
Si -4.83 -6.13 -9.31
Si -9.12 -3.23 -7.36
Si  7.12  7.03  6.93
Si -9.97 -0.76  6.93
Si -2.35 -2.53 11.69
Si  8.84 -1.66 -8.24
Si -2.85 -11.06  4.29
Si -0.42 -1.46 -12.12
Si -11.97 -1.44  2.11
Si -3.98 -1.85 -11.43
Si -9.60  3.13  6.93
Si  3.67 -1.09 11.63
Si  3.77 -11.35 -2.66
Si -2.66 -7.57 -9.26
Si 10.81 -5.79  0.21
Si -6.74  6.12 -8.24
Si -1.14  8.01 -9.26
Si  4.18 -1.85 -11.43
Si  6.83 -7.12 -7.36
Si  5.76 -10.67  2.17
Si 10.65 -3.67  4.97
Si -10.92  2.69  5.03
Si -6.96 -9.50 -3.65
Si -1.46 12.25  0.26
Si  5.60 -8.55  6.93
Si -0.04  2.44 -12.12
Si 12.04  2.39 -1.90
Si -11.30 -1.20  5.03
Si -10.20 -6.77  2.17
Si -2.57 -0.02 -12.18
Si  7.92  8.05 -5.24
Si -4.40 -11.35 -2.66
Si  4.56  2.04 -11.43
Si -2.12 12.01 -2.66
Si  2.95 12.09  1.11
Si -9.85  6.23 -4.50
Si -4.90  7.85 -8.42
Si -1.32 -10.87  6.04
Si -1.97  9.89 -7.42
Si -4.50 -1.09 11.63
Si  7.31 -1.85 -10.00
Si -0.09 -9.45 -8.24
Si -8.68  8.80  2.17
Si  9.22  2.23 -8.24
Si 11.73 -0.12 -4.55
Si -7.05 10.37  1.28
Si  1.73 -11.45  4.97
Si -11.81 -3.56 -2.66
Si -4.05 -6.87  9.79
Si -5.08  6.24  9.74
Si  4.05  2.80 11.63
Si 11.28 -5.39 -1.90
Si  4.12 -6.87  9.79
Si -4.12  2.80 11.63
Si -7.88 -5.56 -8.24
Si  2.64  0.97 12.39
Si -3.87 -9.57 -7.42
Si  1.65 12.14 -3.48
Si -2.15 -11.41 -5.24
Si  0.36 -7.03 10.63
Si -6.22 -5.44  9.74
Si -8.42  8.05 -5.24
Si  0.04  6.82 10.81
Si -7.05  0.76 10.63
Si  7.69  2.04 -10.00
Si 12.54 -1.44  2.11
Si  7.76 10.18 -0.47
Si -8.95 -9.10  1.28
Si -12.47  2.39 -1.90
Si  4.30 -9.57 -7.42
Si 11.35 -4.01 -4.55
Si -0.13 12.69  2.17
Si  2.42 -11.80 -4.55
Si -5.98 -11.06  2.86
Si -3.47 11.56 -4.55
Si -1.58  5.25 11.69
Si  2.26 -2.93 12.39
Si -0.67 10.92  6.93
Si -7.59  8.59  6.04
Si -2.19  3.88 -12.18
Si -9.11 -6.98  6.04
Si 10.90  6.07 -3.65
Si  5.32 -11.06  4.29
Si  9.44  8.24 -3.48
Si 11.88  4.51  2.86
Si -0.57 12.30  4.29
Si  6.87 10.13 -4.50
Si -10.01  8.35  0.26
Si  0.13 11.95 -5.24
Si -11.21  6.34  2.11
Si  8.46 -5.56 -8.24
Si  6.68  6.63  9.05
Si  1.21  0.11 -13.01
Si -10.99 -5.45 -4.50
Si -3.00 -8.94  9.05
Si -12.85 -1.50 -1.90
Si  3.29 -4.99 11.63
Si -12.93  2.00  0.21
Si  1.81 10.02 -8.24
Si -6.42 -7.73 -8.42
Si -1.17 -12.99  1.28
Si 11.41  4.12  4.97
Si -9.12  8.40  4.29
Si -2.95 -3.91 -12.18
Si  6.17 10.47  5.03
Si -3.70 12.30  2.86
Si  7.45 -0.97 10.81
Si  5.50 -7.57 -9.26
Si -5.75 10.31  5.87
