500
set: 1000.00  0.00  0.00
Si  0.46 -1.11  0.85
Si -0.39  1.28 -0.89
Si -1.35 -1.21 -0.81
Si  1.38  1.22  0.86
Si -2.18  1.20  0.81
Si  0.87 -0.05 -2.49
Si -0.91 -0.01  2.56
Si  2.28 -1.25 -0.82
Si  3.13  1.20 -0.80
Si  0.05  2.43  2.46
Si -0.07 -2.40 -2.50
Si -3.15 -1.20  0.83
Si  2.67 -0.02  2.48
Si -2.69  0.01 -2.48
Si -0.50 -3.63  0.86
Si  0.53  3.65 -0.81
Si  1.78 -2.42  2.51
Si -1.84 -2.42  2.46
Si -1.86  2.33 -2.57
Si  1.81  2.45 -2.50
Si  1.25 -3.65 -0.80
Si -1.27  3.65  0.83
Si  4.04 -1.20  0.83
Si  0.87  0.02  4.21
Si -4.06  1.20 -0.80
Si -2.27 -3.57 -0.89
Si -0.90  0.00 -4.24
Si  2.34  3.74  0.85
Si -3.03  3.60 -0.82
Si  0.03  2.42 -4.14
Si  3.13 -3.65  0.81
Si -0.07 -2.48  4.22
Si -3.53  2.43  2.51
Si  3.45 -2.52 -2.57
Si -2.80 -0.09  4.13
Si  2.72  0.01 -4.20
Si  3.66  2.43  2.51
Si -4.91 -1.25 -0.82
Si  4.50  0.01 -2.48
Si -1.85 -2.44 -4.14
Si -4.53 -0.02  2.48
Si  1.81  2.37  4.22
Si  1.73 -2.44 -4.23
Si -1.74  2.44  4.22
Si -3.74 -2.52 -2.57
Si  5.01  1.20  0.81
Si  0.78 -4.87  2.48
Si -0.80  4.87 -2.48
Si -4.06 -3.65  0.81
Si  0.97  4.84  2.56
Si  4.16  3.60 -0.82
Si -1.02 -4.91 -2.49
Si  0.44 -1.20 -5.84
Si -5.81  1.22  0.86
Si  5.84 -1.21 -0.81
Si  3.56 -2.41  4.22
Si -0.41  1.22  5.89
Si  4.39 -0.09  4.13
Si  2.62 -4.84 -2.48
Si -3.58  2.41 -4.23
Si -2.64  4.84  2.48
Si  3.61  2.41 -4.23
Si  2.75  4.80 -2.49
Si -3.63 -2.41  4.22
Si -1.33 -1.15  5.81
Si -0.29  6.05  0.81
Si -4.47  0.01 -4.20
Si  4.92 -3.57 -0.89
Si  1.40  1.31 -5.85
Si -2.80 -4.87  2.56
Si  0.39 -6.10 -0.82
Si -4.85  3.74  0.85
Si -1.43 -5.97  0.85
Si  5.33  2.33 -2.57
Si -0.92  4.76  4.13
Si  5.35 -2.42  2.46
Si  1.50  6.13 -0.89
Si -2.21  1.23 -5.88
Si  2.19 -1.23  5.90
Si -5.38  2.45 -2.50
Si -5.41 -2.42  2.51
Si  0.83 -4.84 -4.20
Si  2.15 -6.05  0.83
Si -2.18  6.05 -0.80
Si -1.01 -4.83  4.21
Si  0.99  4.86 -4.24
Si -3.12 -1.23 -5.89
Si  6.28 -0.01  2.56
Si -6.33 -0.05 -2.49
Si  3.22  1.18  5.88
Si -0.49 -3.54 -5.85
Si -6.74 -1.11  0.85
Si  2.51 -4.95  4.13
Si  0.55  3.71  5.81
Si -3.24 -6.06 -0.81
Si -2.59  4.86 -4.20
Si  3.27  6.08  0.86
Si  6.80  1.28 -0.89
Si -4.44  4.80 -2.49
Si  5.92  3.65  0.83
Si  2.76  4.88  4.21
Si -2.78 -4.85 -4.24
Si -5.95 -3.65 -0.80
Si -1.24  3.63 -5.89
Si  4.39 -4.87  2.56
Si  1.34 -3.68  5.88
Si  4.55  4.84  2.48
Si -4.57 -4.84 -2.48
Si  5.34 -2.44 -4.14
Si -3.97  1.18  5.88
Si -5.38  2.37  4.22
Si  4.07 -1.23 -5.89
Si  2.33  3.65 -5.84
Si  3.95 -6.06 -0.81
Si -3.92  6.08  0.86
Si -2.30 -3.63  5.89
Si  5.45  2.44  4.22
Si -5.47 -2.44 -4.23
Si  3.09 -3.63 -5.88
Si -6.32  0.02  4.21
Si  6.30  0.00 -4.24
Si -3.12  3.62  5.90
Si -0.41  1.22 -7.52
Si  0.03  7.19 -2.57
Si -6.66  3.65 -0.81
Si  6.69 -3.63  0.86
Si  0.44 -1.20  7.57
Si -0.11 -7.27  2.51
Si -7.58  1.28 -0.89
Si  7.65 -1.11  0.85
Si  1.40  1.31  7.55
Si -1.33 -1.15 -7.59
Si  4.98  1.23 -5.88
Si  4.41 -4.85 -4.24
Si -4.43  4.88  4.21
Si -5.00 -1.23  5.90
Si -1.65  7.29  2.51
Si  5.01  6.05 -0.80
Si  4.60  4.86 -4.20
Si  2.19 -1.23 -7.50
Si -1.95 -7.25 -2.50
Si  7.12 -2.40 -2.50
Si -5.04 -6.05  0.83
Si  1.93  7.28  2.46
Si -7.14  2.43  2.46
Si -2.21  1.23  7.53
Si  1.56 -7.37 -2.57
Si -4.68 -4.95  4.13
Si  7.24  2.43  2.46
Si -4.10 -3.63 -5.88
Si  4.07  3.62  5.90
Si -7.26 -2.40 -2.50
Si -3.12 -1.23  7.52
Si  6.17 -4.91 -2.49
Si  3.22  1.18 -7.53
Si -6.22  4.84  2.56
Si  5.86 -1.15  5.81
Si  5.76 -5.97  0.85
Si -5.79  1.31 -5.85
Si -0.49 -3.54  7.55
Si  6.39  4.87 -2.48
Si -5.70  6.13 -0.89
Si -6.41 -4.87  2.48
Si  0.14  7.29  4.22
Si  3.47 -7.28  2.46
Si -4.87  3.65 -5.84
Si -0.16 -7.29 -4.23
Si  8.06 -0.05 -2.49
Si -1.24  3.63  7.52
Si -0.33  6.08 -5.88
Si  0.55  3.71 -7.59
Si -3.49  7.30 -2.50
Si  4.89 -3.63  5.89
Si  0.30 -6.08  5.90
Si  1.34 -3.68 -7.53
Si -8.10 -0.01  2.56
Si -3.72 -7.28  2.46
Si -1.44 -6.06 -5.84
Si -7.69 -3.63  0.86
Si  3.70  7.30 -2.50
Si  0.61  8.51  0.83
Si -0.64 -8.51 -0.80
Si  1.68 -7.27  4.22
Si -1.15  8.46 -0.82
Si -1.70  7.26 -4.23
Si  7.72  3.65 -0.81
Si  1.91  7.27 -4.14
Si  1.47  6.07  5.89
Si -3.97  1.18 -7.53
Si -7.16  2.42 -4.14
Si  1.24 -8.51  0.81
Si  7.12 -2.48  4.22
Si  4.07 -1.23  7.52
Si -2.30 -3.63 -7.52
Si  7.22  2.42 -4.14
Si -8.55 -1.21 -0.81
Si -2.09  6.03  5.88
Si -1.96 -7.33  4.22
Si  8.57  1.22  0.86
Si  2.33  3.65  7.57
Si  2.19 -6.08 -5.89
Si -7.27 -2.48  4.22
Si -2.38 -8.48  0.86
Si  2.41  8.50 -0.81
Si  6.28  4.76  4.13
Si -3.12  3.62 -7.50
Si  6.18 -4.83  4.21
Si  3.09 -3.63  7.53
Si -6.20  4.86 -4.24
Si -3.22 -6.00  5.81
Si  3.03 -8.43 -0.89
Si -6.75 -1.20 -5.84
Si -6.36 -4.84 -4.20
Si  6.78  1.22  5.89
Si -3.50  7.22  4.22
Si  3.45 -7.29 -4.14
Si -5.86 -3.68  5.88
Si  8.06  0.02  4.21
Si -5.00 -1.23 -7.50
Si  4.98  1.23  7.53
Si  3.28  6.17 -5.85
Si  5.95  3.63 -5.89
Si -2.97  8.59  0.85
Si -8.09  0.00 -4.24
Si  3.69  7.22  4.22
Si -6.80 -6.10 -0.82
Si -3.74 -7.29 -4.14
Si -0.90  0.00  9.16
Si  6.90  6.05  0.81
Si  8.44 -3.65 -0.80
Si  0.87  0.02 -9.20
Si  3.98 -6.00  5.81
Si -8.46  3.65  0.83
Si  4.07  3.62 -7.50
Si  5.24 -7.25 -2.50
Si -4.10 -3.63  7.53
Si -5.26  7.28  2.46
Si -3.91  6.17 -5.85
Si -4.16 -8.43 -0.89
Si -9.37  1.20  0.81
Si  5.55  7.29  2.51
Si -0.07 -2.48 -9.19
Si -6.64  3.71  5.81
Si  0.03  2.42  9.27
Si  6.71 -3.54 -5.85
Si  9.47 -1.25 -0.82
Si  2.72  0.01  9.21
Si -5.79  1.31  7.55
Si  4.22  8.59  0.85
Si  8.97 -2.42  2.51
Si -5.63 -7.37 -2.57
Si  1.73 -2.44  9.18
Si  5.86 -1.15 -7.59
Si -7.49  6.05  0.81
Si  9.01  2.45 -2.50
Si  1.81  2.37 -9.19
Si  0.30 -6.08 -7.50
Si -1.74  2.44 -9.19
Si  7.97 -4.87  2.48
Si -9.03 -2.42  2.46
Si  4.89 -3.63 -7.52
Si -7.99  4.87 -2.48
Si -0.33  6.08  7.53
Si  7.63 -1.20 -5.84
Si -2.80 -0.09 -9.28
Si -9.05  2.33 -2.57
Si -7.60  1.22  5.89
Si -4.87  3.65  7.57
Si -1.85 -2.44  9.27
Si  7.59 -6.10 -0.82
Si  1.47  6.07 -7.52
Si -4.78  8.50 -0.81
Si  4.81 -8.48  0.86
Si -1.44 -6.06  7.57
Si  8.16  4.84  2.56
Si -5.01 -6.08 -5.89
Si  5.11  6.03  5.88
Si -2.09  6.03 -7.53
Si -8.21 -4.91 -2.49
Si -5.28  7.27 -4.14
Si  2.19 -6.08  7.52
Si  5.23 -7.33  4.22
Si -0.76  9.69  2.48
Si  0.74 -9.69 -2.48
Si  5.49  7.26 -4.23
Si -5.51 -7.27  4.22
Si  1.08  9.72 -2.48
Si -1.10 -9.72  2.48
Si  3.56 -2.41 -9.19
Si -3.58  2.41  9.18
Si  3.61  2.41  9.18
Si -9.46 -3.57 -0.89
Si  8.92 -2.44 -4.23
Si  9.86 -0.02  2.48
Si -3.63 -2.41 -9.19
Si -8.94  2.44  4.22
Si -9.88  0.01 -2.48
Si  5.75 -6.06 -5.84
Si  6.78  1.22 -7.52
Si -3.22 -6.00 -7.59
Si -6.75 -1.20  7.57
Si -5.72  6.07  5.89
Si  9.00  2.37  4.22
Si -5.86 -3.68 -7.53
Si -4.47  0.01  9.21
Si -9.05 -2.44 -4.14
Si  5.95  3.63  7.52
Si  4.39 -0.09 -9.28
Si -8.11  4.76  4.13
Si  8.03 -4.84 -4.20
Si  9.53  3.74  0.85
Si -7.68 -3.54 -5.85
Si  3.28  6.17  7.55
Si -2.56  9.65 -2.49
Si  0.65  8.48 -5.89
Si  2.51 -9.72  2.56
Si  7.75  3.71  5.81
Si -0.55 -8.53  5.88
Si -8.52 -1.15  5.81
Si  1.21 -8.48 -5.88
Si -1.24  8.48  5.90
Si -8.20 -4.83  4.21
Si -5.95 -8.51  0.81
Si  8.18  4.86 -4.24
Si  0.99  4.86  9.16
Si 10.32  1.20 -0.80
Si  2.86  9.69  2.56
Si  6.05  8.46 -0.82
Si -1.01 -4.83 -9.20
Si  0.84 -4.84  9.21
Si -10.35 -1.20  0.83
Si  7.08 -7.27  2.51
Si  3.98 -6.00 -7.59
Si -0.92  4.76 -9.28
Si -7.17  7.19 -2.57
Si  8.59  1.31 -5.85
Si -2.90 -9.76 -2.49
Si -2.37 -8.39 -5.85
Si  7.22  7.19 -2.57
Si -3.91  6.17  7.55
Si  0.97  9.61  4.13
Si -8.62 -5.97  0.85
Si -7.30 -7.27  2.51
Si -0.70  9.71 -4.20
Si -1.05 -9.70 -4.20
Si  2.44  8.56  5.81
Si  0.62 -9.80  4.13
Si  8.69  6.13 -0.89
Si  6.71 -3.54  7.55
Si -2.59  4.86  9.21
Si -2.78 -4.85  9.16
Si -2.98  8.50 -5.84
Si -6.64  3.71 -7.59
Si  3.01 -8.48  5.89
Si -7.60  1.22 -7.52
Si  9.91  0.01 -4.20
Si  6.55 -8.51 -0.80
Si  2.76  4.88 -9.20
Si -6.58  8.51  0.83
Si  2.51 -4.95 -9.28
Si -9.99 -0.09  4.13
Si  7.63 -1.20  7.57
Si -10.22  3.60 -0.82
Si -0.91 -0.01 -10.85
Si -5.01 -6.08  7.52
Si  2.53 -9.70 -4.24
Si  6.86  6.08 -5.88
Si -8.43  3.63 -5.89
Si -2.55  9.73  4.21
Si  5.11  6.03 -7.53
Si -5.38  2.37 -9.19
Si -6.89 -6.08  5.90
Si -4.34  9.69  2.56
Si -0.29 10.90 -0.80
Si  0.27 -10.91  0.83
Si -2.90 -9.68  4.21
Si  4.29 -9.76 -2.49
Si  0.87 -0.05 10.92
Si  5.45  2.44 -9.19
Si -5.47 -2.44  9.18
Si  5.34 -2.44  9.27
Si  2.87  9.71 -4.24
Si 10.32 -3.65  0.81
Si  7.03 -7.29 -4.23
Si -7.05  7.29  4.22
Si  4.63  9.65 -2.49
Si  8.53 -3.68  5.88
Si  1.59 10.90  0.81
Si -4.68 -9.72  2.56
Si -1.49 -10.96 -0.82
Si  6.30  0.00  9.16
Si  2.07 -10.91 -0.81
Si  4.21  8.50 -5.84
Si -4.18 -8.48  5.89
Si -2.04 10.93  0.86
Si  9.38 -1.23  5.90
Si -9.40  1.23 -5.88
Si -6.32  0.02 -9.20
Si  9.34 -6.05  0.83
Si  7.33  7.29  4.22
Si -0.07 -2.40 10.91
Si -9.37  6.05 -0.80
Si -7.35 -7.29 -4.23
Si  0.05  2.43 -10.95
Si  9.81 -4.84 -2.48
Si -5.72  6.07 -7.52
Si 10.64 -2.52 -2.57
Si -9.83  4.84  2.48
Si -1.86  2.33 10.84
Si -2.69  0.01 10.93
Si  2.67 -0.02 -10.93
Si  4.41 -4.85  9.16
Si  5.75 -6.06  7.57
Si -10.72  2.43  2.51
Si  1.78 -2.42 -10.90
Si  4.82 -8.39 -5.85
Si  7.50 -6.08  5.90
Si -7.52  6.08 -5.88
Si  9.94  4.80 -2.49
Si -4.43  4.88 -9.20
Si 11.23 -1.20  0.83
Si  1.81  2.45 10.91
Si -7.68 -3.54  7.55
Si -11.25  1.20 -0.80
Si -3.31 -10.82  0.85
Si  0.65  8.48  7.52
Si -1.84 -2.42 -10.95
Si -4.75  8.56  5.81
Si  4.60  4.86  9.21
Si -1.24  8.48 -7.50
Si -0.55 -8.53 -7.53
Si  4.30 -9.68  4.21
Si -9.99 -4.87  2.56
Si 10.85  2.43  2.51
Si  1.21 -8.48  7.53
Si -4.32  9.71 -4.24
Si  7.74  3.71 -7.59
Si -8.52 -1.15 -7.59
Si -4.68 -4.95 -9.28
Si -10.93 -2.52 -2.57
Si  8.59  1.31  7.55
Si  3.88 -10.82  0.85
Si  3.38 10.98 -0.89
Si -2.37 -8.39  7.55
Si  4.64  9.73  4.21
Si  7.80  8.51  0.83
Si -4.66 -9.70 -4.24
Si -7.83 -8.51 -0.80
Si  9.70 -4.95  4.13
Si  3.45 -2.52 10.84
Si -3.81 10.98 -0.89
Si  2.44  8.56 -7.59
Si -9.78  4.86 -4.20
Si -3.53  2.43 -10.90
Si -8.84  7.29  2.51
Si  3.01 -8.48 -7.52
Si -0.16 -7.29  9.18
Si  0.14  7.29 -9.19
Si  8.76 -7.37 -2.57
Si  6.09 -9.72  2.48
Si -3.74 -2.52 10.84
Si -9.49 -3.63  5.89
Si -6.11  9.72 -2.48
Si  9.52  3.65 -5.84
Si  3.66  2.43 -10.90
Si -2.98  8.50  7.57
Si 10.76 -2.41  4.22
Si  4.51  0.01 10.93
Si -10.77  2.41 -4.23
Si -4.53 -0.02 -10.93
Si -1.70  7.26  9.18
Si  1.68 -7.27 -9.19
Si 10.80  2.41 -4.23
Si  9.95  4.88  4.21
Si -11.26 -3.65  0.81
Si -10.82 -2.41  4.22
Si -8.43  3.63  7.52
Si  6.86  6.08  7.53
Si -6.89 -6.08 -7.50
Si -9.97 -4.85 -4.24
Si  7.12 -2.48 -9.19
Si  6.43  9.69  2.48
Si -8.34  8.46 -0.82
Si -6.46 -9.69 -2.48
Si  0.97  4.84 -10.85
Si -1.96 -7.33 -9.19
Si  5.96  8.48  5.90
Si -5.98 -8.48 -5.88
Si  9.12  7.28  2.46
Si  1.91  7.27  9.27
Si -9.14 -7.25 -2.50
Si -10.31 -1.23 -5.89
Si 11.35  3.60 -0.82
Si  8.53 -3.68 -7.53
Si 11.70  0.01 -2.48
Si -7.16  2.42  9.27
Si -11.72 -0.02  2.48
Si -7.27 -2.48 -9.19
Si -0.80  4.87 10.93
Si  0.78 -4.87 -10.93
