500
set: 1203.00  0.00  0.00
Si  1.27  0.54  0.73
Si -0.04 -1.51  0.61
Si -1.35  0.70  0.77
Si  1.32  0.72 -1.57
Si -1.22  0.66 -1.72
Si  0.19 -1.50 -1.78
Si  0.09  2.96  0.78
Si -2.61 -1.61  0.68
Si  2.69 -1.64  0.61
Si  0.05  2.92 -1.67
Si -0.05 -1.52  3.01
Si -2.47 -1.68 -1.74
Si -1.16  0.84  3.16
Si  1.41  0.55  3.17
Si  2.85 -1.51 -1.81
Si  1.36 -3.60  0.50
Si -3.81  0.79  0.59
Si  2.59  3.01  0.60
Si -1.19 -3.79  0.60
Si  3.96  0.79  0.59
Si -2.63  3.20  0.50
Si  1.39 -3.53 -1.81
Si -1.20 -3.69 -1.76
Si  0.24  2.92  3.15
Si -2.46 -1.72  3.10
Si  1.38  0.56 -4.07
Si -1.19  0.85 -4.09
Si  2.58  3.11 -1.76
Si  3.88  0.97 -1.89
Si -3.88  0.97 -1.89
Si  2.84 -1.60  3.02
Si -0.08 -1.51 -4.24
Si -2.59  3.27 -1.81
Si -3.72  0.86  2.95
Si -2.32  3.03  2.96
Si  2.79  2.89  2.85
Si -0.99 -3.91  2.85
Si  0.20  2.94 -4.10
Si  1.67 -3.77  2.96
Si  4.04  0.86  2.95
Si -2.49 -1.71 -4.15
Si  2.81 -1.59 -4.23
Si -1.29  5.17  0.61
Si  1.17  5.19  0.68
Si -5.07 -1.64  0.61
Si -3.69 -3.85  0.78
Si  5.16 -1.61  0.68
Si -4.91 -1.51 -1.81
Si  1.31  5.12 -1.74
Si -3.73 -3.88 -1.67
Si  4.08 -3.85  0.78
Si  0.22 -1.51  5.47
Si -1.18  0.65  5.53
Si -1.13  5.29 -1.81
Si -2.35  3.04 -4.29
Si -3.76  0.87 -4.30
Si  5.30 -1.68 -1.74
Si  4.04 -3.88 -1.67
Si  1.35  0.71  5.68
Si  1.63 -3.76 -4.29
Si  4.01  0.87 -4.30
Si  2.76  2.91 -4.40
Si -1.02 -3.89 -4.40
Si -4.92 -1.60  3.02
Si -5.18  3.01  0.60
Si  0.18 -6.01  0.59
Si  5.14  3.20  0.50
Si  1.32  5.08  3.10
Si -1.14  5.20  3.02
Si -3.54 -3.88  3.15
Si  0.10 -5.83 -1.89
Si -2.43 -1.69  5.51
Si  0.09  2.91  5.57
Si -5.19  3.11 -1.76
Si  2.89 -1.52  5.44
Si  5.17  3.27 -1.81
Si  5.31 -1.72  3.10
Si -4.97  2.89  2.85
Si  6.42  0.70  0.77
Si  3.74  5.29  0.61
Si  4.22 -3.88  3.15
Si -6.50  0.54  0.73
Si  0.27 -5.94  2.95
Si  1.43 -3.54  5.44
Si  1.23  0.55 -6.52
Si -1.38  0.71 -6.47
Si -3.85  0.96  5.36
Si -3.58 -3.87 -4.10
Si -6.45  0.72 -1.57
Si -4.03  5.29  0.61
Si  1.29  5.09 -4.15
Si  2.64 -6.10  0.77
Si  3.92  0.96  5.36
Si -4.96 -1.59 -4.23
Si -1.17 -3.70  5.49
Si -2.46 -6.08 -1.57
Si -3.80  5.30 -1.78
Si -2.51 -6.26  0.73
Si -0.08 -1.50 -6.63
Si  6.55  0.66 -1.72
Si -1.18  5.21 -4.23
Si  2.61  3.10  5.49
Si -2.56  3.26  5.44
Si  3.97  5.30 -1.78
Si  5.45  3.03  2.96
Si  5.27 -1.71 -4.15
Si  2.77 -6.14 -1.72
Si  4.19 -3.87 -4.10
Si  0.05  2.97 -6.46
Si -6.35  0.55  3.17
Si  3.73  5.28  3.01
Si -2.65 -1.60 -6.57
Si -5.01  2.91 -4.40
Si -4.04  5.28  3.01
Si  2.83 -5.96  3.16
Si  0.23 -5.93 -4.30
Si  2.66 -1.62 -6.63
Si -6.41 -3.60  0.50
Si  6.61  0.84  3.16
Si -2.37 -6.25  3.17
Si -4.88 -1.52  5.44
Si -6.37 -3.53 -1.81
Si  5.41  3.04 -4.29
Si -6.39  0.56 -4.07
Si  6.57 -3.79  0.60
Si -0.03  7.59  0.59
Si  1.35  5.11  5.51
Si -1.10  5.28  5.44
Si  3.69  5.29 -4.24
Si -3.84  0.80 -6.65
Si  6.56 -3.69 -1.76
Si  2.55  3.02 -6.64
Si -3.69 -3.89  5.57
Si  2.79 -5.95 -4.09
Si -1.23 -3.77 -6.64
Si -6.10 -3.77  2.96
Si  1.32 -3.59 -6.75
Si  3.92  0.80 -6.65
Si  6.57  0.85 -4.09
Si -2.40 -6.24 -4.07
Si  5.33 -1.69  5.51
Si -2.72  7.34  0.73
Si  7.72 -1.51  0.61
Si -4.07  5.29 -4.24
Si  2.43  7.50  0.77
Si  4.07 -3.89  5.57
Si -7.58 -1.50 -1.78
Si  0.14 -5.84  5.36
Si -2.66  3.21 -6.75
Si -7.81 -1.51  0.61
Si -0.10  7.77 -1.89
Si -0.01 -1.52  7.86
Si -5.13 -6.10  0.77
Si  2.56  7.46 -1.72
Si -5.00 -6.14 -1.72
Si  1.30  0.52  7.98
Si -2.67  7.53 -1.57
Si -5.15  3.10  5.49
Si -1.31  0.69  8.02
Si  5.21  3.26  5.44
Si  5.25 -6.26  0.73
Si  0.06  7.66  2.95
Si  5.30 -6.08 -1.57
Si -7.68  2.96  0.78
Si  7.95 -1.50 -1.78
Si  6.47  5.17  0.61
Si  6.78 -3.91  2.85
Si -4.93 -5.96  3.16
Si -6.13 -3.76 -4.29
Si -3.73 -3.83 -6.46
Si -2.57  7.35  3.17
Si -7.71  2.92 -1.67
Si -6.60  5.19  0.68
Si  7.72 -1.52  3.01
Si -6.46  5.12 -1.74
Si  7.86  2.96  0.78
Si  1.13  5.20 -6.57
Si  5.12 -1.60 -6.57
Si  2.73 -1.65  7.86
Si -3.76  5.29  5.47
Si -2.58 -1.62  7.92
Si -7.81 -1.52  3.01
Si  7.82  2.92 -1.67
Si -1.33  5.18 -6.63
Si -5.11 -1.62 -6.63
Si -1.08 -8.44  0.61
Si  4.04 -3.83 -6.46
Si  1.38 -8.41  0.68
Si -0.93 -8.31 -1.81
Si  0.12  2.94  8.03
Si  4.00  5.29  5.47
Si -6.41  0.71  5.68
Si  6.58  0.65  5.53
Si  1.40 -3.61  7.75
Si -7.53  2.92  3.15
Si -2.43 -6.09  5.68
Si  2.62  7.64  3.16
Si  6.63  5.29 -1.81
Si  2.81 -6.15  5.53
Si -3.77  0.78  7.84
Si -4.97 -5.95 -4.09
Si -6.44  5.08  3.10
Si -2.59  3.19  7.75
Si  1.52 -8.48 -1.74
Si  0.02  7.67 -4.30
Si -1.16 -3.80  7.85
Si  2.62  3.00  7.85
Si -2.61  7.37 -4.07
Si  3.99  0.78  7.84
Si  5.40 -6.25  3.17
Si  7.68 -1.51 -4.24
Si  5.05  7.34  0.73
Si  1.28  0.74 -8.81
Si  6.74 -3.89 -4.40
Si  6.62  5.20  3.02
Si  0.14 -6.00 -6.65
Si -5.21  3.02 -6.64
Si -0.94 -8.40  3.02
Si -7.85 -1.51 -4.24
Si  5.10  3.21 -6.75
Si  2.59  7.65 -4.09
Si -6.34 -3.54  5.44
Si -1.25  0.68 -8.96
Si  9.03  0.54  0.73
Si  8.00  2.92  3.15
Si -7.57  2.94 -4.10
Si  6.38  0.71 -6.47
Si  0.15 -1.49 -9.03
Si -3.82 -8.31  0.61
Si -8.98  0.66 -1.72
Si -9.11  0.70  0.77
Si  5.36 -6.24 -4.07
Si  1.53 -8.52  3.10
Si -3.59 -8.30 -1.78
Si  3.95 -8.31  0.61
Si  5.10  7.53 -1.57
Si -6.48  5.09 -4.15
Si -5.33  7.50  0.77
Si -6.53  0.55 -6.52
Si  9.08  0.72 -1.57
Si -5.20  7.46 -1.72
Si  2.60 -6.09 -6.47
Si  3.70  5.30 -6.63
Si  6.60 -3.70  5.49
Si -2.55 -6.25 -6.52
Si  0.02  2.94 -8.92
Si  6.59  5.21 -4.23
Si -4.06  5.30 -6.63
Si -0.07  7.76  5.36
Si  7.97  2.94 -4.10
Si -7.54 -1.51  5.47
Si -0.97 -8.39 -4.23
Si  4.17 -8.30 -1.78
Si -2.50 -1.66 -8.99
Si -5.03 -1.65  7.86
Si -1.25  5.15  7.86
Si -8.92  0.84  3.16
Si  1.21  5.18  7.92
Si  5.19  7.35  3.17
Si  1.50 -8.51 -4.15
Si  2.82 -1.49 -9.05
Si  5.19 -1.62  7.92
Si -3.65 -3.86  8.03
Si  2.60  7.45  5.53
Si -3.83 -8.32  3.01
Si -4.96 -6.15  5.53
Si  3.94 -8.32  3.01
Si -7.59 -6.01  0.59
Si  9.18  0.55  3.17
Si -5.14  7.64  3.16
Si -8.96 -3.79  0.60
Si -2.63  7.51  5.68
Si  7.99 -1.51  5.47
Si -1.24 -3.68 -9.01
Si  1.36 -3.52 -9.05
Si  4.11 -3.86  8.03
Si -7.66 -5.83 -1.89
Si  9.12 -3.60  0.50
Si  5.17  3.19  7.75
Si -5.14  3.00  7.85
Si -8.97 -3.69 -1.76
Si  2.54  3.12 -9.01
Si  5.16  7.37 -4.07
Si -6.42  5.11  5.51
Si -8.96  0.85 -4.09
Si  0.21 -6.03  7.84
Si  5.34 -6.09  5.68
Si -7.68  2.91  5.57
Si -1.40  9.81  0.60
Si  3.85  0.98 -9.14
Si  7.87 -5.83 -1.89
Si  7.94 -6.01  0.59
Si  9.16 -3.53 -1.81
Si -0.89 -8.32  5.44
Si -2.63  3.28 -9.05
Si -3.92  0.98 -9.14
Si -6.44 -3.59 -6.75
Si -8.75 -3.91  2.85
Si -7.50 -5.94  2.95
Si  9.14  0.56 -4.07
Si  6.54 -3.77 -6.64
Si  7.85  2.91  5.57
Si  1.15 10.00  0.50
Si  6.67  5.28  5.44
Si -3.86 -8.31 -4.24
Si -5.18  7.65 -4.09
Si -0.07  7.60 -6.65
Si  3.90 -8.31 -4.24
Si -1.41  9.91 -1.76
Si -1.20  9.70  2.85
Si  3.77  5.28  7.86
Si  2.40  7.51 -6.47
Si -2.75  7.35 -6.52
Si  1.55 -8.49  5.51
Si  7.69 -1.50 -6.63
Si -3.99  5.28  7.86
Si -5.16 -6.09 -6.47
Si -6.46  0.52  7.98
Si  1.19 10.07 -1.81
Si  6.45  0.69  8.02
Si  8.93  5.19  0.68
Si  1.46  9.83  2.96
Si -0.01 -1.54 10.26
Si -7.84 -1.50 -6.63
Si  8.03 -5.94  2.95
Si -3.76 -3.87 -8.92
Si -4.95 -1.49 -9.05
Si  5.22 -6.25 -6.52
Si  1.27  5.14 -8.99
Si  2.67 -6.12  8.02
Si -9.06  5.17  0.61
Si -2.48 -6.28  7.98
Si -7.71  2.97 -6.46
Si -1.12  0.82 10.41
Si -7.54 -5.93 -4.30
Si -8.90  5.29 -1.81
Si  4.00 -3.87 -8.92
Si -10.23 -1.68 -1.74
Si -10.38 -1.61  0.68
Si  3.87  9.76  0.78
Si -3.90  9.76  0.78
Si  1.45  0.54 10.42
Si -8.95  0.65  5.53
Si  5.26 -1.66 -8.99
Si -1.17  5.31 -9.05
Si -3.56 -8.31  5.47
Si  9.08  5.12 -1.74
Si  7.82  2.97 -6.46
Si -8.79 -3.89 -4.40
Si  9.43 -3.77  2.96
Si  3.83  9.72 -1.67
Si -6.39 -8.41  0.68
Si  6.44  5.18 -6.63
Si 10.46 -1.64  0.61
Si -3.93  9.72 -1.67
Si -5.17  7.45  5.53
Si -6.37 -3.61  7.75
Si -6.25 -8.48 -1.74
Si  0.30 -10.64  0.78
Si -6.63  5.20 -6.57
Si -2.42 -10.40  0.50
Si  5.13  7.51  5.68
Si -1.23  9.71 -4.40
Si  1.34 -8.40 -6.57
Si -8.91  5.20  3.02
Si -2.39 -10.33 -1.81
Si  9.12  0.71  5.68
Si -2.42 -1.74 10.35
Si -1.12 -8.42 -6.63
Si  6.68 -8.44  0.61
Si  2.88 -1.61 10.27
Si 10.35  3.01  0.60
Si  0.27  2.91 10.40
Si  4.21 -8.31  5.47
Si  0.26 -10.68 -1.67
Si -10.22 -1.72  3.10
Si  0.07 -5.82 -9.14
Si  1.42  9.85 -4.29
Si  8.00 -5.93 -4.30
Si  7.74  7.59  0.59
Si  9.09  5.08  3.10
Si -0.95 -3.92 10.10
Si -5.22  3.12 -9.01
Si  2.83  2.88 10.10
Si -3.69  0.85 10.20
Si 10.62 -1.51 -1.81
Si -2.28  3.02 10.20
Si -10.39  3.20  0.50
Si -3.75  9.72  3.15
Si -7.79  7.59  0.59
Si  0.01  7.58  7.84
Si  6.84 -8.31 -1.81
Si  5.14  3.28 -9.05
Si -10.09  3.03  2.96
Si 10.34  3.11 -1.76
Si  6.61 -3.80  7.85
Si -6.48  0.74 -8.81
Si  2.79 -10.59  0.60
Si  4.01  9.72  3.15
Si -2.50 -6.06 -8.81
Si  9.40 -3.76 -4.29
Si  2.79 -10.49 -1.76
Si -7.63 -5.84  5.36
Si -6.24 -8.52  3.10
Si -10.36  3.27 -1.81
Si  1.70 -3.78 10.20
Si  4.08  0.85 10.20
Si  5.01  7.35 -6.52
Si  7.66  7.77 -1.89
Si  6.51  0.68 -8.96
Si -8.93 -3.70  5.49
Si  9.00  0.55 -6.52
Si  0.44 -10.68  3.15
Si 10.61 -1.60  3.02
Si  7.76 -1.52  7.86
Si -3.83  5.32 -9.03
Si -2.68  7.32  7.98
Si -7.77 -1.52  7.86
Si -2.11 -10.57  2.96
Si -8.95  5.21 -4.23
Si  9.05  5.09 -4.15
Si  3.93  5.32 -9.03
Si  2.73 -6.12 -8.96
Si -10.26 -1.71 -4.15
Si  7.91 -5.84  5.36
Si -7.87  7.77 -1.89
Si -3.79  9.74 -4.10
Si -9.15  0.71 -6.47
Si  6.83 -8.40  3.02
Si  2.47  7.49  8.02
Si  9.19 -3.54  5.44
Si -7.71  7.66  2.95
Si -5.37  7.51 -6.47
Si  3.98  9.74 -4.10
Si -5.09 -6.12  8.02
Si -3.86 -8.30 -6.63
Si 10.56  2.89  2.85
Si  3.91 -8.30 -6.63
Si  7.82  7.66  2.95
Si -6.27 -8.51 -4.15
Si -1.37  9.90  5.49
Si -10.12  3.04 -4.29
Si  1.34  0.58 -11.32
Si  0.41 -10.66 -4.10
Si -1.23  0.87 -11.33
Si  6.51  5.15  7.86
Si  5.29 -6.28  7.98
Si -7.64  2.94  8.03
Si  3.00 -10.71  2.85
Si -4.89 -1.61 10.27
Si 10.57 -1.59 -4.23
Si  1.22 10.06  5.44
Si -6.56  5.18  7.92
Si -1.11  5.18 10.27
Si -0.12 -1.50 -11.48
Si -1.05 -8.45  7.86
Si  6.79 -8.39 -4.23
Si -2.15 -10.56 -4.29
Si  1.36  5.06 10.35
Si -4.94  2.88 10.10
Si -11.57  0.79  0.59
Si  7.89  2.94  8.03
Si -6.41 -3.52 -9.05
Si -3.51 -3.89 10.40
Si  1.41 -8.43  7.92
Si -8.86  5.28  5.44
Si  5.34 -10.40  0.50
Si  6.37  9.81  0.60
Si -10.20 -1.69  5.51
Si -4.97 -10.59  0.60
Si  6.53 -3.68 -9.01
Si -7.74  7.67 -4.30
Si  0.17  2.95 -11.35
Si -4.98 -10.49 -1.76
Si  7.79  7.67 -4.30
Si -7.62 -6.00 -6.65
Si 11.72  0.79  0.59
Si 10.52  2.91 -4.40
Si  5.35 -1.74 10.35
Si  5.38 -10.33 -1.81
Si -2.53 -1.70 -11.40
Si -8.99 -3.77 -6.64
Si  9.11  5.11  5.51
Si  0.30 -5.95 10.20
Si 11.65  0.97 -1.89
Si -11.65  0.97 -1.89
Si  3.87  9.71  5.57
Si -3.90  9.71  5.57
Si -6.21 -8.49  5.51
Si  9.09 -3.59 -6.75
Si -11.49  0.86  2.95
Si  4.26 -3.89 10.40
Si -7.61 -1.49 -9.03
Si  6.36  9.91 -1.76
Si -2.71  7.54 -8.81
Si  2.77 -1.57 -11.48
Si -2.35 -10.34  5.44
Si  5.27 -6.06 -8.81
Si  2.96 -10.69 -4.40
Si  2.53  7.48 -8.96
