500
set: 1112.00  0.00  0.00
Si  0.35 -1.17  0.78
Si -0.47  1.05 -0.89
Si  1.23  1.12  0.82
Si -1.42 -1.28 -0.85
Si -2.17  1.07  0.79
Si  0.94  0.03 -2.40
Si -0.83  0.04  2.46
Si  2.20 -1.18 -0.74
Si  2.98  1.17 -0.80
Si  0.03 -2.25 -2.45
Si -3.02 -1.20  0.87
Si  0.07  2.34  2.47
Si  0.34  3.33 -0.85
Si  2.63  0.10  2.40
Si -2.61  0.03 -2.42
Si -0.54 -3.49  0.82
Si  1.78 -2.19  2.37
Si  1.22 -3.43 -0.80
Si -1.25  3.41  0.87
Si -1.69  2.31 -2.42
Si -1.69 -2.27  2.47
Si  1.79  2.36 -2.45
Si -0.81  0.04 -3.97
Si  0.91  0.06  3.99
Si  2.12  3.44  0.78
Si  3.88 -1.20  0.87
Si -3.92  1.17 -0.80
Si -2.24 -3.56 -0.89
Si -2.93  3.43 -0.74
Si  0.05  2.35 -3.98
Si  0.06 -2.28  4.04
Si  2.96 -3.53  0.79
Si -3.35  2.42  2.37
Si -2.57  0.00  4.02
Si  3.44 -2.30 -2.42
Si -3.46 -2.30 -2.42
Si  2.66  0.12 -4.07
Si -1.72 -2.26 -3.98
Si -4.27  0.10  2.40
Si -4.70 -1.18 -0.74
Si  3.55  2.42  2.37
Si  4.73  1.07  0.79
Si  1.74 -2.20 -4.04
Si  4.29  0.03 -2.42
Si -1.72  2.33  4.01
Si  1.83  2.33  4.04
Si  0.86 -4.50  2.40
Si -0.82 -4.58 -2.40
Si  3.96  3.43 -0.74
Si -0.84  4.63 -2.42
Si  0.93  4.65  2.46
Si -3.93 -3.53  0.79
Si  5.47 -1.28 -0.85
Si -0.54  1.02  5.59
Si  3.41 -2.27  4.01
Si -0.40  5.68  0.79
Si  0.34 -1.19 -5.62
Si  2.52 -4.58 -2.42
Si -3.48 -2.27  4.01
Si -2.60 -4.56  2.46
Si -3.39  2.41 -4.04
Si -5.67  1.12  0.82
Si -2.50  4.71  2.40
Si  0.43 -5.79 -0.74
Si -1.35 -1.25  5.55
Si  1.29  5.66 -0.89
Si  3.51  2.41 -4.04
Si -4.23  0.12 -4.07
Si  2.71  4.63 -2.40
Si  1.23  1.14 -5.66
Si  4.33  0.00  4.02
Si  4.66 -3.56 -0.89
Si -4.78  3.44  0.78
Si -1.41 -5.77  0.78
Si -5.11 -2.19  2.37
Si -2.14  1.11 -5.57
Si -0.85 -4.55  3.99
Si  2.10 -1.13  5.64
Si  0.90 -4.49 -4.07
Si -5.11  2.36 -2.45
Si -0.81  4.61  4.02
Si  0.95  4.64 -3.97
Si  5.21  2.31 -2.42
Si  5.20 -2.27  2.47
Si -2.15  5.78 -0.80
Si  2.11 -5.80  0.87
Si -5.95  0.03 -2.40
Si  0.41  3.35  5.55
Si  2.99  5.72  0.82
Si -3.05 -1.23 -5.64
Si  6.06  0.04  2.46
Si  6.42  1.05 -0.89
Si -2.58 -4.57 -3.97
Si  3.08  1.12  5.70
Si  2.56 -4.61  4.02
Si  5.64  3.41  0.87
Si -0.53 -3.47 -5.66
Si -5.68 -3.43 -0.80
Si -4.19  4.63 -2.40
Si -6.54 -1.17  0.78
Si  2.67  4.66  3.99
Si -1.29  3.38 -5.64
Si -2.47  4.72 -4.07
Si  4.30 -4.56  2.46
Si -3.19 -5.88 -0.85
Si -4.37 -4.58 -2.42
Si  1.32 -3.48  5.70
Si  4.39  4.71  2.40
Si -5.07  2.33  4.04
Si  2.11  3.42 -5.62
Si -5.15 -2.20 -4.04
Si  5.18 -2.26 -3.98
Si  3.85 -1.23 -5.64
Si -3.81  1.12  5.70
Si  5.17  2.33  4.01
Si -3.90  5.72  0.82
Si  3.71 -5.88 -0.85
Si -2.30 -3.58  5.59
Si -5.99  0.06  3.99
Si  0.02 -6.79  2.37
Si  2.99 -3.50 -5.57
Si  6.08  0.04 -3.97
Si -3.03  3.47  5.64
Si  6.36 -3.49  0.82
Si  0.07  6.91 -2.42
Si  0.35 -1.19  7.26
Si -0.54  1.02 -7.29
Si  7.25 -1.17  0.78
Si -6.55  3.33 -0.85
Si  4.76  1.11 -5.57
Si  1.24  1.13  7.22
Si  4.32 -4.57 -3.97
Si -4.22  4.66  3.99
Si -1.74 -6.85 -2.45
Si -4.79 -1.13  5.64
Si -7.37  1.05 -0.89
Si -4.33 -4.61  4.02
Si  1.68 -6.91 -2.42
Si  4.75  5.78 -0.80
Si -1.36 -1.25 -7.32
Si -4.78 -5.80  0.87
Si -1.58  7.03  2.37
Si  1.84  6.95  2.47
Si  2.10 -1.13 -7.24
Si -6.82  2.34  2.47
Si -6.87 -2.25 -2.45
Si  4.43  4.72 -4.07
Si -3.90 -3.50 -5.57
Si  3.87  3.47  5.64
Si  6.92 -2.25 -2.45
Si -2.13  1.10  7.31
Si  6.97  2.34  2.47
Si  3.08  1.12 -7.17
Si -6.03 -4.50  2.40
Si -0.02 -6.80 -4.04
Si -3.04 -1.23  7.23
Si  5.54 -1.25  5.55
Si -5.96  4.65  2.46
Si  6.07 -4.58 -2.40
Si -0.37  5.71 -5.57
Si  5.48 -5.77  0.78
Si  6.05  4.63 -2.42
Si -5.60  5.66 -0.89
Si  7.24  3.33 -0.85
Si  0.04  6.94  4.01
Si -0.53 -3.47  7.22
Si  1.23  5.63  5.59
Si  0.34 -5.74  5.64
Si  0.41  3.35 -7.32
Si  3.44 -6.87  2.47
Si  4.59 -3.58  5.59
Si  0.51  8.01  0.87
Si -3.46 -6.87  2.47
Si  1.31 -3.48 -7.17
Si -1.28  3.38  7.23
Si -5.66  1.14 -5.66
Si -0.55 -8.04 -0.80
Si -3.34  6.97 -2.45
Si -7.73  0.04  2.46
Si  1.65 -6.88  4.01
Si -4.79  3.42 -5.62
Si -1.17  8.03 -0.74
Si -1.70 -6.88  4.04
Si -1.42 -5.79 -5.62
Si  3.55  6.97 -2.45
Si  7.84  0.03 -2.40
Si -3.82  1.12 -7.17
Si  1.81  6.95 -3.98
Si  8.12  1.12  0.82
Si  2.11  7.93 -0.85
Si -7.43 -3.49  0.82
Si -1.62  7.01 -4.04
Si -6.83 -2.28  4.04
Si -6.85  2.35 -3.98
Si  1.20 -8.14  0.79
Si  3.85 -1.23  7.23
Si  2.11  3.42  7.26
Si -2.05  5.73  5.70
Si  6.94  2.35 -3.98
Si  6.96 -2.28  4.04
Si  2.08 -5.83 -5.64
Si -2.31 -3.58 -7.29
Si -2.30 -8.10  0.82
Si -8.32 -1.28 -0.85
Si -5.94  4.64 -3.97
Si -6.00 -4.49 -4.07
Si  6.36  1.02  5.59
Si  6.04 -4.55  3.99
Si -3.04  3.48 -7.24
Si  3.00  5.74 -5.66
Si -3.01  8.04  0.78
Si  6.09  4.61  4.02
Si  3.41 -6.86 -3.98
Si  3.00 -3.50  7.31
Si  5.61  3.38 -5.64
Si -3.12 -5.86  5.55
Si -3.48 -6.86 -3.98
Si  6.50  5.68  0.79
Si -7.71  0.04 -3.97
Si -3.30  6.93  4.04
Si -5.58 -3.48  5.70
Si -6.46 -5.79 -0.74
Si  2.89 -8.16 -0.89
Si -6.55 -1.19 -5.62
Si -4.80 -1.13 -7.24
Si  7.80  0.06  3.99
Si  4.76  1.10  7.31
Si  3.59  6.93  4.04
Si  8.11 -3.43 -0.80
Si -8.15  3.41  0.87
Si  3.86  3.48 -7.24
Si  3.78 -5.86  5.55
Si  5.16 -6.85 -2.45
Si  0.90  0.06 -8.89
Si -5.06  6.95  2.47
Si -0.81  0.04  8.91
Si -3.90  5.74 -5.66
Si  3.88  8.04  0.78
Si -5.22 -6.91 -2.42
Si -3.90 -3.50  7.31
Si  5.31  7.03  2.37
Si  0.06 -2.27 -8.84
Si -4.00 -8.16 -0.89
Si -9.06  1.07  0.79
Si -6.48  3.35  5.55
Si  6.36 -3.47 -5.66
Si  9.09 -1.18 -0.74
Si  0.05  2.35  8.90
Si  2.67  0.12  8.81
Si -8.59  2.31 -2.42
Si -8.59 -2.27  2.47
Si -2.58  0.00 -8.85
Si  7.24 -1.19 -5.62
Si -5.66  1.13  7.22
Si  0.33 -5.74 -7.24
Si  8.68 -2.19  2.37
Si  5.54 -1.25 -7.32
Si  1.75 -2.20  8.84
Si -0.37  5.71  7.31
Si -7.30  5.68  0.79
Si  7.76 -4.50  2.40
Si -7.72 -4.58 -2.40
Si  1.22  5.63 -7.29
Si -4.79  7.93 -0.85
Si  1.82  2.33 -8.84
Si  4.59 -3.58 -7.29
Si -1.73  2.33 -8.86
Si  8.69  2.36 -2.45
Si -7.74  4.63 -2.42
Si -1.71 -2.26  8.90
Si -4.78  3.42  7.26
Si  4.59 -8.10  0.82
Si -7.43  1.02  5.59
Si  7.33 -5.79 -0.74
Si -1.42 -5.79  7.26
Si -2.05  5.73 -7.17
Si  4.85  5.73  5.70
Si  7.83  4.65  2.46
Si -4.82 -5.83 -5.64
Si -0.90 -9.11  2.40
Si -5.08  6.95 -3.98
Si  5.20 -6.88  4.04
Si  2.09 -5.84  7.23
Si  0.76 -9.18 -2.42
Si -5.25 -6.88  4.01
Si  0.92  9.24 -2.42
Si -0.74  9.31  2.40
Si  5.27  7.01 -4.04
Si  9.01  3.44  0.78
Si  3.00  5.74  7.22
Si  6.35  1.02 -7.29
Si -5.58 -3.48 -7.17
Si  5.47 -5.79 -5.62
Si -5.67  5.63  5.59
Si -8.61 -2.26 -3.98
Si  5.62  3.38  7.23
Si -3.38  2.40  8.84
Si  3.40 -2.27 -8.86
Si  7.31  3.35  5.55
Si -4.23  0.12  8.81
Si  8.64 -2.20 -4.04
Si -8.62  2.33  4.01
Si  0.48  7.98 -5.64
Si -3.49 -2.27 -8.86
Si -9.50  0.03 -2.42
Si  3.51  2.40  8.84
Si  9.52  0.10  2.40
Si  2.53 -9.17  2.46
Si -7.75 -4.55  3.99
Si -7.70  4.61  4.02
Si -2.59 -9.19 -2.40
Si -9.13 -3.56 -0.89
Si -2.42  9.24 -2.40
Si -6.55 -1.19  7.26
Si  4.32  0.00 -8.85
Si  7.79 -4.49 -4.07
Si -3.12 -5.86 -7.32
Si  8.72  2.33  4.04
Si  5.73  8.03 -0.74
Si -0.45 -8.09  5.70
Si  1.23 -8.11 -5.57
Si  0.90 -4.49  8.81
Si -1.26  8.08  5.64
Si  2.18  7.96  5.55
Si  7.85  4.64 -3.97
Si  2.70  9.26  2.46
Si -6.88 -6.79  2.37
Si -7.43 -3.47 -5.66
Si -5.70 -8.14  0.79
Si  8.13  1.14 -5.66
Si  6.91 -6.79  2.37
Si  9.88  1.17 -0.80
Si  8.19  5.66 -0.89
Si -0.87 -9.09 -4.07
Si -6.82  6.91 -2.42
Si -3.89  5.74  7.22
Si -0.81  4.61 -8.85
Si -0.86 -4.55 -8.89
Si -9.91 -1.20  0.87
Si -8.25 -1.25  5.55
Si  0.80 -9.21  4.02
Si  0.96  4.64  8.91
Si  0.96  9.21  4.02
Si  6.97  6.91 -2.42
Si  3.77 -5.86 -7.32
Si -2.30 -8.07 -5.66
Si -8.31 -5.77  0.78
Si -0.70  9.33 -4.07
Si  6.37 -3.47  7.22
Si -3.02  8.03 -5.62
Si  6.35 -8.04 -0.80
Si -6.38  8.01  0.87
Si -9.46  0.00  4.02
Si -2.46  4.72  8.81
Si  2.56 -4.60 -8.85
Si  6.52  5.71 -5.57
Si  2.83 -8.19  5.59
Si  2.55 -9.17 -3.97
Si  7.24 -1.19  7.26
Si -2.62 -9.15  3.99
Si -2.57 -4.57  8.91
Si -6.49  3.35 -7.32
Si -6.56 -5.74  5.64
Si  4.84  5.73 -7.17
Si -2.46  9.27  3.99
Si  2.67  4.67 -8.89
Si  9.56  0.12 -4.07
Si  1.36 10.29  0.79
Si -0.39 10.38 -0.80
Si  2.72  9.25 -3.97
Si  4.31 -9.19 -2.40
Si -9.83  3.43 -0.74
Si -4.36 -9.17  2.46
Si -0.84  0.05 -10.42
Si  0.35 -10.41  0.87
Si -5.07  2.33 -8.84
Si -4.20  9.26  2.46
Si -5.15 -2.20  8.84
Si -7.44  1.02 -7.29
Si -4.81 -5.84  7.23
Si  6.87 -6.80 -4.04
Si -8.18  3.38 -5.64
Si -1.33 -10.39 -0.74
Si  9.86 -3.53  0.79
Si -6.92 -6.80 -4.04
Si  0.95  0.02 10.48
Si  5.17  2.33 -8.86
Si  3.87  8.03 -5.62
Si  4.47  9.24 -2.40
Si -6.85  6.94  4.01
Si  5.18 -2.26  8.90
Si -2.14 10.33  0.82
Si  8.21 -3.48  5.70
Si  6.94  6.94  4.01
Si  0.03 -2.25 10.43
Si  0.07  2.34 -10.41
Si -9.03  1.11 -5.57
Si  9.00 -1.13  5.64
Si  1.94 -10.49 -0.85
Si -4.07 -8.19  5.59
Si -5.99  0.06 -8.89
Si  3.06 10.26 -0.89
Si  9.42 -4.58 -2.42
Si  9.01 -5.80  0.87
Si -9.04  5.78 -0.80
Si -2.60  0.03 10.45
Si  0.48  7.98  7.23
Si -9.40  4.71  2.40
Si  5.48 -5.79  7.26
Si -1.70 -2.26 -10.41
Si -10.24  2.42  2.37
Si  6.09  0.04  8.91
Si -4.72  7.96  5.55
Si -7.27  5.71 -5.57
Si  2.62  0.10 -10.48
Si -9.49 -4.56  2.46
Si -5.67  5.63 -7.29
Si  7.23 -5.74  5.64
Si -0.45 -8.09 -7.17
Si  1.79  2.36 10.43
Si -1.69  2.30 10.46
Si 10.34 -2.30 -2.42
Si  4.28 -9.15  3.99
Si  7.30  3.35 -7.32
Si 10.77 -1.20  0.87
Si -10.35 -2.30 -2.42
Si  1.78 -2.18 -10.51
Si  4.60 -8.07 -5.66
Si -4.34 -4.60 -8.85
Si -3.18 -10.38  0.78
Si -4.23  4.67 -8.89
Si -4.18  9.25 -3.97
Si -4.34 -9.17 -3.97
Si -10.81  1.17 -0.80
Si  4.32 -4.57  8.91
Si -7.42 -3.47  7.22
Si -1.27  8.08 -7.24
Si  9.60  4.63 -2.40
Si  8.13  1.13  7.22
Si  4.43  4.72  8.81
Si  7.41  8.01  0.87
Si 10.44  2.42  2.37
Si  1.23 -8.11  7.31
Si -7.44 -8.04 -0.80
Si -3.84 10.26 -0.89
Si  4.44  9.27  3.99
Si  2.17  7.96 -7.32
Si  3.72 -10.38  0.78
Si -2.29 -8.08  7.22
Si -8.25 -1.25 -7.32
Si  9.00  3.42 -5.62
Si -0.02 -6.81  8.84
Si  5.99 -9.11  2.40
Si -3.02  8.02  7.26
Si -9.47 -4.57 -3.97
Si -9.36  4.72 -4.07
Si  3.45 -2.30 10.46
Si -3.45 -2.30 10.46
Si  0.04  6.94 -8.86
Si  9.46 -4.61  4.02
Si -8.48  7.03  2.37
Si -5.97  9.24 -2.42
Si  8.57 -6.91 -2.42
Si 10.30 -2.27  4.01
Si -3.35  2.42 -10.51
Si -8.63 -6.85 -2.45
Si  4.29  0.03 10.45
Si -6.13 -9.18 -2.42
Si -10.28  2.41 -4.04
Si  2.82 -8.19 -7.29
Si -4.27  0.10 -10.48
Si -1.71 -6.88 -8.84
Si -6.57 -5.74 -7.24
Si  1.64 -6.88 -8.86
Si  6.53  5.71  7.31
Si -9.20 -3.58  5.59
Si  5.63  8.08  5.64
Si  3.54  2.42 -10.51
Si -5.67 -8.11 -5.57
Si  8.12  5.63  5.59
Si -10.38 -2.27  4.01
Si  9.57  4.66  3.99
Si -1.62  7.01  8.84
Si  4.76 10.33  0.82
Si -6.84 -2.27 -8.84
Si -8.06  8.03 -0.74
Si 10.86  3.43 -0.74
Si -10.82 -3.53  0.79
Si 10.40  2.41 -4.04
Si -11.16  0.10  2.40
Si  6.16  9.31  2.40
Si -8.18  3.38  7.23
Si  8.73  6.95  2.47
Si  1.82  6.95  8.90
Si  0.86 -4.50 -10.48
Si  8.21 -3.48 -7.17
Si 11.19  0.03 -2.42
Si  0.93  4.65 -10.42
Si  9.89  5.72  0.82
Si -0.82 -4.58 10.48
