500
set: 718.00  0.00  0.00
Si -0.80  1.15  0.91
Si  1.23 -1.33 -0.55
Si  0.48  0.35 -2.02
Si  1.03  2.11 -0.77
Si -1.10  2.07 -1.35
Si -1.55 -1.84 -1.28
Si  0.33 -2.53  1.01
Si  0.94  0.11  2.66
Si -1.95 -1.60  1.38
Si  3.02  0.18 -0.43
Si -2.65  0.47  1.87
Si -2.72 -0.01 -2.00
Si  1.87  3.00  1.10
Si  3.26  0.54  1.76
Si  2.32 -2.02  2.19
Si  2.62 -1.19 -2.74
Si -2.37  3.20  0.34
Si -0.94  1.12  3.84
Si  0.69  2.90  3.02
Si  1.46 -3.98 -0.60
Si  2.00  2.78 -2.65
Si -3.77 -2.33 -0.35
Si -2.10  0.78 -3.90
Si  0.17  4.29 -1.60
Si -3.71  2.27 -1.63
Si  1.22 -3.11 -3.27
Si  3.59  2.88 -0.86
Si -1.88 -2.51 -3.57
Si -2.07 -4.11 -1.24
Si -4.47 -1.18  1.25
Si -0.77 -1.02  4.66
Si -2.52 -2.38  3.50
Si  1.46 -0.21 -4.75
Si -0.83 -4.85  0.69
Si  3.98 -3.00  0.19
Si -2.85 -3.87  1.39
Si  4.81 -0.36 -1.50
Si -0.83  4.95  0.69
Si  4.82  1.44  0.70
Si  1.33  1.95 -4.53
Si -4.99 -0.36 -1.50
Si  1.22 -2.47  4.44
Si -4.98  1.44  0.70
Si -0.93  3.12 -4.12
Si  1.46 -0.21  5.05
Si -0.77 -1.02 -5.14
Si  1.69 -4.52  2.44
Si -2.01  3.54  3.61
Si -3.60  0.81  4.09
Si  3.50 -3.62 -2.29
Si -0.69 -4.36  3.34
Si  5.33 -1.18  1.25
Si  3.56  0.95  4.29
Si -3.90  3.69  1.97
Si  4.62  1.54 -3.01
Si  0.17 -5.51 -1.60
Si  1.33  1.95  5.27
Si  3.16  3.56  3.36
Si -0.76 -4.48 -3.72
Si  3.72  4.53  0.95
Si  4.84 -0.75  3.40
Si  1.22 -2.47 -5.36
Si  1.46  5.82 -0.60
Si -4.96 -0.75  3.40
Si  1.69  5.28  2.44
Si -4.60 -0.49 -4.01
Si  4.68 -3.15  2.41
Si -0.94  1.12 -5.96
Si -2.07  5.69 -1.24
Si -5.18  1.54 -3.01
Si -3.66  3.80 -3.25
Si -3.62 -3.95 -3.20
Si -4.36  4.40 -0.96
Si -2.10  0.78  5.90
Si -0.69  5.44  3.34
Si  6.03 -2.33 -0.35
Si -5.12 -3.15  2.41
Si  3.72 -5.27  0.95
Si  3.41  4.07 -3.78
Si -0.76  5.32 -3.72
Si -0.93  3.12  5.68
Si -5.82 -3.00  0.19
Si  5.20 -0.49 -4.01
Si -4.13  2.86  4.27
Si  3.56  0.95 -5.51
Si  4.15 -2.47 -4.58
Si  6.09  2.27 -1.63
Si -2.85  5.93  1.39
Si -3.08 -4.25  4.20
Si -6.54  0.54  1.76
Si -3.60  0.81 -5.71
Si -6.78  0.18 -0.43
Si  1.34  4.87 -4.68
Si -6.21  2.88 -0.86
Si  1.34 -4.93 -4.68
Si -1.88 -2.51  6.23
Si -4.36 -5.40 -0.96
Si -2.37 -6.60  0.34
Si  5.44  4.40 -0.96
Si  4.15 -2.47  5.22
Si  1.87 -6.80  1.10
Si -2.52 -2.38 -6.30
Si  1.34  4.87  5.12
Si  0.94  0.11 -7.14
Si  5.89  3.69  1.97
Si  1.34 -4.93  5.12
Si  1.22 -3.11  6.53
Si  0.33  7.27  1.01
Si  7.08 -0.01 -2.00
Si  7.15  0.47  1.87
Si  0.69  2.90 -6.78
Si -4.60 -0.49  5.79
Si -2.01  3.54 -6.19
Si  3.50  6.18 -2.29
Si  6.20  0.81  4.09
Si -4.13  2.86 -5.53
Si -2.01 -6.26  3.61
Si -3.90 -6.11  1.97
Si  1.22  6.69 -3.27
Si  0.69 -6.90  3.02
Si -3.62  5.85 -3.20
Si -0.76 -4.48  6.08
Si  4.47 -4.46  4.24
Si -3.08  5.55  4.20
Si  2.62 -1.19  7.06
Si -6.30 -3.62 -2.29
Si -6.24  0.95  4.29
Si -6.08  4.53  0.95
Si  5.67  2.86  4.27
Si  3.41 -5.73 -3.78
Si -3.08 -4.25 -5.60
Si -5.65 -2.47 -4.58
Si  5.44 -5.40 -0.96
Si -3.66 -6.00 -3.25
Si  3.16 -6.24  3.36
Si  2.00 -7.02 -2.65
Si -7.18 -1.19 -2.74
Si  1.03 -7.69 -0.77
Si  5.20 -0.49  5.79
Si  0.48  0.35  7.78
Si -0.69 -4.36 -6.46
Si  3.59 -6.92 -0.86
Si  3.98  6.80  0.19
Si -0.93 -6.68 -4.12
Si  6.14  3.80 -3.25
Si  2.00  2.78  7.15
Si -1.10 -7.73 -1.35
Si  6.17 -3.95 -3.20
Si  3.16  3.56 -6.44
Si  3.41  4.07  6.02
Si -7.48 -2.02  2.19
Si  4.84 -0.75 -6.41
Si  6.95 -3.87  1.39
Si -5.65 -2.47  5.22
Si  7.43  3.20  0.34
Si -6.08 -5.27  0.95
Si -0.76  5.32  6.08
Si  7.85 -1.60  1.38
Si -4.96 -0.75 -6.41
Si -5.33 -4.46  4.24
Si  4.47  5.34  4.24
Si -1.55  7.96 -1.28
Si  2.32 -2.02 -7.62
Si -6.64  3.56  3.36
Si -2.72 -0.01  7.80
Si -1.88  7.29 -3.57
Si  4.62  1.54  6.79
Si -2.65  0.47 -7.93
Si -6.24  0.95 -5.51
Si -3.77  7.47 -0.35
Si  2.32  7.78  2.19
Si  4.47 -4.46 -5.56
Si -3.66  3.80  6.55
Si  5.67  2.86 -5.53
Si  7.28 -2.38  3.50
Si  6.20  0.81 -5.71
Si -3.08  5.55 -5.60
Si -6.39  4.07 -3.78
Si -0.69  5.44 -6.46
Si  4.68  6.65  2.41
Si -3.62 -3.95  6.60
Si -1.95  8.20  1.38
Si  8.25 -1.84 -1.28
Si -7.93  3.00  1.10
Si -3.71 -7.54 -1.63
Si  1.23  8.47 -0.55
Si -2.52  7.42  3.50
Si -5.33  5.34  4.24
Si  1.22  7.33  4.44
Si  7.70  0.78 -3.90
Si -5.18  1.54  6.79
Si -8.57 -1.33 -0.55
Si  3.26  0.54 -8.04
Si -7.80  2.78 -2.65
Si  5.89 -6.11  1.97
Si -0.80 -8.65  0.91
Si -5.12  6.65  2.41
Si -1.10  2.07  8.45
Si -1.95 -1.60 -8.42
Si  1.69 -4.52 -7.36
Si -0.93 -6.68  5.68
Si  7.73 -4.11 -1.24
Si -1.55 -1.84  8.52
Si -5.33 -4.46 -5.56
Si  4.47  5.34 -5.56
Si -5.82  6.80  0.19
Si  3.41 -5.73  6.02
Si  6.72 -4.25  4.20
Si -0.80  1.15 -8.89
Si -2.01 -6.26 -6.19
Si  3.50 -3.62  7.51
Si  7.92 -2.51 -3.57
Si  8.70  2.07 -1.35
Si -8.77  2.11 -0.77
Si  6.17  5.85 -3.20
Si -6.30  6.18 -2.29
Si  9.00  1.15  0.91
Si -4.13 -6.94  4.27
Si  0.33 -2.53 -8.79
Si  1.33 -7.85 -4.53
Si  1.22  7.33 -5.36
Si  6.14 -6.00 -3.25
Si  1.69  5.28 -7.36
Si  6.95  5.93  1.39
Si -8.86  0.11  2.66
Si  0.17  4.29  8.20
Si -3.71  2.27  8.17
Si -8.34 -3.98 -0.60
Si  7.79  3.54  3.61
Si  4.68 -3.15 -7.39
Si  1.03  2.11  9.03
Si -6.21 -6.92 -0.86
Si -5.33  5.34 -5.56
Si -6.39 -5.73 -3.78
Si  1.87  3.00 -8.70
Si  2.62  8.61 -2.74
Si  1.22  6.69  6.53
Si  1.23 -1.33  9.25
Si -3.90  3.69 -7.83
Si  3.16 -6.24 -6.44
Si -5.12 -3.15 -7.39
Si -3.62  5.85  6.60
Si -0.94 -8.68  3.84
Si -9.32  0.35 -2.02
Si  1.33 -7.85  5.27
Si  4.15  7.33 -4.58
Si -8.11 -4.52  2.44
Si -8.34 -0.21 -4.75
Si  4.81 -0.36  8.30
Si -3.66 -6.00  6.55
Si  6.03  7.47 -0.35
Si  0.48 -9.45 -2.02
Si  6.72  5.55  4.20
Si -6.39  4.07  6.02
Si  4.82 -8.36  0.70
Si  7.73  5.69 -1.24
Si -2.85 -3.87 -8.41
Si -4.99 -0.36  8.30
Si -8.58 -3.11 -3.27
Si  0.69 -6.90 -6.78
Si -6.64 -6.24  3.36
Si  8.86  1.12  3.84
Si -4.47 -1.18 -8.55
Si -2.07 -4.11  8.56
Si  6.72 -4.25 -5.60
Si  7.70  0.78  5.90
Si  6.14  3.80  6.55
Si -8.34 -0.21  5.05
Si -4.98 -8.36  0.70
Si -1.88  7.29  6.23
Si -4.13 -6.94 -5.53
Si -4.47  8.62  1.25
Si -8.47  1.95 -4.53
Si  6.09 -7.54 -1.63
Si  3.02  0.18  9.37
Si -9.47 -2.53  1.01
Si  6.17 -3.95  6.60
Si -2.65 -9.33  1.87
Si  0.17 -5.51  8.20
Si  4.15  7.33  5.22
Si  7.28 -2.38 -6.30
Si -6.64  3.56 -6.44
Si  5.67 -6.94  4.27
Si  4.62 -8.26 -3.01
Si  7.43 -6.60  0.34
Si -0.77  8.78  4.66
Si -8.58 -2.47  4.44
Si  3.26 -9.26  1.76
Si -8.11  5.28  2.44
Si -9.11  2.90  3.02
Si -2.10 -9.02 -3.90
Si  3.59  2.88  8.94
Si -2.52  7.42 -6.30
Si  0.94 -9.69  2.66
Si  3.02 -9.62 -0.43
Si  1.46 -3.98  9.20
Si -7.18 -1.19  7.06
Si  5.33 -1.18 -8.55
Si -8.47  1.95  5.27
Si -8.34  5.82 -0.60
Si -5.18 -8.26 -3.01
Si -0.77  8.78 -5.14
Si  5.33  8.62  1.25
Si  9.03 -1.02  4.66
Si  2.00 -7.02  7.15
Si  8.97 -4.85  0.69
Si -2.37  3.20 -9.46
Si  8.97  4.95  0.69
Si  8.87  3.12 -4.12
Si  0.94  9.91  2.66
Si -5.65  7.33 -4.58
Si  3.50  6.18  7.51
Si -2.72  9.79 -2.00
Si -0.83 -4.85 -9.11
Si  6.72  5.55 -5.60
Si  0.48 10.15 -2.02
Si -6.54  0.54 -8.04
Si -2.72 -9.81 -2.00
Si  7.92 -2.51  6.23
Si  4.82  1.44 -9.10
Si -0.83  4.95 -9.11
Si -8.58 -2.47 -5.36
Si  3.02  9.98 -0.43
Si -3.77 -2.33  9.45
Si  6.09  2.27  8.17
Si  9.03 -1.02 -5.14
Si -6.30 -3.62  7.51
Si  3.56 -8.85  4.29
Si -4.98  1.44 -9.10
Si  5.89  3.69 -7.83
Si -6.39 -5.73  6.02
Si 10.28  0.35 -2.02
Si -2.07  5.69  8.56
Si 10.13 -2.53  1.01
Si -7.93 -6.80  1.10
Si  1.23 -1.33 -10.35
Si -3.60 -8.99  4.09
Si  5.67 -6.94 -5.53
Si  7.08 -0.01  7.80
Si  7.79  3.54 -6.19
Si -0.94 -8.68 -5.96
Si  3.72  4.53 -8.85
Si  7.79 -6.26  3.61
Si -5.65  7.33  5.22
Si  9.11 -4.36  3.34
Si -9.63  4.29 -1.60
Si  3.02  0.18 -10.23
Si -3.90 -6.11 -7.83
Si -2.85  5.93 -8.41
Si  7.15  0.47 -7.93
Si -10.60  1.15  0.91
Si  4.81  9.44 -1.50
Si  8.86  1.12 -5.96
Si  9.04 -4.48 -3.72
Si  6.17  5.85  6.60
Si -2.65 10.27  1.87
Si -4.99  9.44 -1.50
Si -4.36  4.40  8.84
Si  6.14 -6.00  6.55
Si -0.80  1.15 10.71
Si  1.46  9.59 -4.75
Si  4.84  9.05  3.40
Si  3.98 -3.00 -9.61
Si -8.46  4.87 -4.68
Si -7.80 -7.02 -2.65
Si  1.03  2.11 -10.57
Si -8.46 -4.93 -4.68
Si -7.48 -2.02 -7.62
Si -4.96  9.05  3.40
Si -2.37  3.20 10.14
Si  1.46  9.59  5.05
Si -7.80  2.78  7.15
Si  3.72 -5.27 -8.85
Si  7.28  7.42  3.50
Si  9.97  4.29 -1.60
Si -2.10 -9.02  5.90
Si  3.26 10.34  1.76
Si  1.46  5.82  9.20
Si  8.87  3.12  5.68
Si  4.68  6.65 -7.39
Si -7.48  7.78  2.19
Si -0.80 10.95  0.91
Si -8.46  4.87  5.12
Si  3.56 -8.85 -5.51
Si -8.46 -4.93  5.12
Si 10.83  2.11 -0.77
Si 10.74  0.11  2.66
Si -3.77 -2.33 -10.15
Si  0.33 -2.53 10.81
Si  9.11  5.44  3.34
Si  9.04  5.32 -3.72
Si 11.03 -1.33 -0.55
Si -4.60  9.31 -4.01
Si  2.32  7.78 -7.62
Si -6.64 -6.24 -6.44
Si  3.98 -3.00  9.99
Si  1.46 -10.01 -4.75
Si -10.90  2.07 -1.35
Si -5.12  6.65 -7.39
Si  1.87 -6.80 -8.70
Si -9.63 -5.51 -1.60
Si  1.23 -11.13 -0.55
Si -8.58 -3.11  6.53
Si  1.46 -3.98 -10.40
Si -4.36 -5.40  8.84
Si -3.60 -8.99 -5.71
Si -6.21  2.88  8.94
Si  5.44  4.40  8.84
Si 10.49  2.90  3.02
Si  1.46 -10.01  5.05
Si -1.55 -1.84 -11.08
Si  7.92  7.29 -3.57
Si  4.81 -10.16 -1.50
Si -8.58  6.69 -3.27
Si -8.86  0.11 -7.14
Si  5.20  9.31 -4.01
Si -1.10  2.07 -11.15
Si  0.33  7.27 -8.79
Si -4.99 -10.16 -1.50
Si  7.85  8.20  1.38
Si  2.62  8.61  7.06
Si  6.03 -2.33  9.45
Si  1.87  3.00 10.90
Si -1.95 -1.60 11.18
Si -10.74  1.12  3.84
Si -2.10 10.58 -3.90
Si -6.54 -9.26  1.76
Si -1.10 -7.73  8.45
Si  9.97 -5.51 -1.60
Si  8.25  7.96 -1.28
Si -7.18  8.61 -2.74
Si  5.89 -6.11 -7.83
Si -11.35 -1.84 -1.28
Si -6.78  0.18  9.37
Si  6.95 -3.87 -8.41
Si -6.30  6.18  7.51
Si -0.83 -4.85 10.49
Si -10.57 -1.02  4.66
Si  3.59  2.88 -10.66
Si -0.94 10.92  3.84
Si  7.85 -1.60 -8.42
Si  2.62 -10.99 -2.74
Si -5.82 -3.00 -9.61
Si -0.83  4.95 10.49
Si  4.82  1.44 10.51
Si  4.62 -8.26  6.79
Si -1.95 -11.40  1.38
Si -6.24 -8.85  4.29
Si -6.08  4.53 -8.85
Si  6.20 -8.99  4.09
Si -8.77 -7.69 -0.77
Si  5.44 -5.40  8.84
Si -10.63 -4.85  0.69
Si -4.98  1.44 10.51
Si -3.71 -7.54  8.17
Si  8.70 -7.73 -1.35
Si -9.11  2.90 -6.78
Si -10.63  4.95  0.69
Si  7.79 -6.26 -6.19
Si -1.55  7.96  8.52
Si -2.37 -6.60 -9.46
Si -6.78 -9.62 -0.43
Si  9.04 -4.48  6.08
Si -10.57 -1.02 -5.14
Si -0.77 -10.82  4.66
Si -1.55 -11.64 -1.28
Si -9.11 -6.90  3.02
Si  0.48  0.35 -11.82
Si -8.11 -4.52 -7.36
Si -10.49 -4.36  3.34
Si  8.87 -6.68 -4.12
Si  3.59 -6.92  8.94
Si -5.18 -8.26  6.79
Si -4.60  9.31  5.79
Si  7.15 -9.33  1.87
Si  1.03 -7.69  9.03
Si -10.73  3.12 -4.12
Si 11.02 -3.11 -3.27
Si -1.95  8.20 -8.42
Si -4.47 -10.98  1.25
Si -3.60 10.61  4.09
Si -11.75 -1.60  1.38
Si -5.82 -3.00  9.99
Si 11.26 -3.98 -0.60
Si -2.07 -4.11 -11.04
Si -6.08 -5.27 -8.85
Si -4.60 -10.29 -4.01
Si -2.65  0.47 11.67
Si -4.47 -1.18 11.05
Si  1.03 11.91 -0.77
Si -9.47  7.27  1.01
Si  9.11 -4.36 -6.46
Si -1.10 11.87 -1.35
Si -0.77 -10.82 -5.14
Si  8.25 -1.84  8.52
Si  1.46  5.82 -10.40
Si  3.26  0.54 11.56
Si  6.03 -2.33 -10.15
Si -8.57  8.47 -0.55
Si -10.56 -4.48 -3.72
