15
set: 3871.00  0.00  0.00
 C  0.35  0.29 -0.01
 C  1.65 -0.46 -0.01
 C  1.77 -1.79 -0.06
 O  2.69  0.44  0.05
 C  4.01 -0.13  0.05
 C  5.00  0.94  0.12
 C  5.85  1.80  0.17
 H  0.29  0.96 -0.88
 H  0.26  0.91  0.89
 H -0.50 -0.41 -0.05
 H  0.87 -2.40 -0.11
 H  2.73 -2.32 -0.06
 H  4.16 -0.73 -0.87
 H  4.12 -0.80  0.92
 H  6.60  2.57  0.21
