15
set: 1617.00  0.00  0.00
 C  1.17  1.22 -0.17
 N -0.21  1.54  0.15
 C -1.34  0.76  0.01
 N -1.56 -0.50 -0.04
 C -0.56 -1.54  0.09
 C  0.92 -1.32  0.09
 C  1.63 -0.19 -0.01
 H  1.81  1.87  0.45
 H  1.39  1.52 -1.22
 H -0.42  2.54  0.07
 H -2.24  1.40 -0.02
 H -0.77 -2.28 -0.71
 H -0.81 -2.10  1.01
 H  1.49 -2.25  0.17
 H  2.72 -0.28 -0.01
