19
set: 3896.00  0.00  0.00
 C  3.25 -1.21 -0.85
 C  2.66 -0.21  0.15
 C  3.14  1.23 -0.04
 O  2.40  2.13  0.81
 C  4.66  1.44  0.16
 C  5.12  1.11  1.55
 C  5.38  2.02  2.50
 H  2.79 -2.20 -0.74
 H  4.34 -1.34 -0.71
 H  3.09 -0.89 -1.89
 H  2.87 -0.54  1.18
 H  1.56 -0.20  0.05
 H  2.89  1.55 -1.07
 H  2.76  2.03  1.71
 H  4.88  2.50 -0.07
 H  5.20  0.83 -0.58
 H  5.21  0.05  1.80
 H  5.31  3.09  2.29
 H  5.68  1.73  3.50
