19
set: 1384.00  0.00  0.00
 C  0.72 -0.61 -0.02
 C  2.10 -0.02 -0.07
 C  2.45  1.28 -0.11
 C  1.48  2.43 -0.12
 C  3.92  1.67 -0.14
 C  4.33  2.36 -1.41
 C  4.85  3.59 -1.50
 H  0.56 -1.29 -0.88
 H -0.07  0.15 -0.04
 H  0.59 -1.22  0.88
 H  2.92 -0.76 -0.06
 H  0.44  2.11 -0.15
 H  1.67  3.08 -0.99
 H  1.63  3.06  0.77
 H  4.53  0.76 -0.00
 H  4.14  2.34  0.71
 H  4.18  1.78 -2.33
 H  5.01  4.20 -0.61
 H  5.13  4.03 -2.46
