21
set: 1214.00  0.00  0.00
 C  0.94  2.82 -0.57
 C  2.41  2.88 -0.15
 C  3.13  1.54 -0.32
 C  4.61  1.55  0.04
 C  4.93  1.83  1.50
 C  5.51  0.58 -0.69
 C  5.58  2.06 -1.00
 H  0.45  3.80 -0.44
 H  0.39  2.08  0.03
 H  0.84  2.54 -1.63
 H  2.48  3.21  0.90
 H  2.94  3.65 -0.75
 H  3.03  1.21 -1.37
 H  2.62  0.77  0.29
 H  6.02  1.77  1.68
 H  4.44  1.10  2.16
 H  4.60  2.83  1.80
 H  5.06 -0.08 -1.44
 H  6.34  0.13 -0.14
 H  6.46  2.61 -0.66
 H  5.18  2.40 -1.96
