15
set: 3236.00  0.00  0.00
 C  0.96  0.06  0.00
 C  2.45 -0.04  0.04
 C  3.24 -1.13  0.01
 C  4.64 -0.72  0.06
 C  5.75 -1.48  0.06
 O  4.68  0.66  0.12
 C  3.34  1.17  0.10
 H  0.49 -0.94 -0.05
 H  0.62  0.64 -0.86
 H  0.57  0.57  0.90
 H  2.92 -2.17 -0.03
 H  6.74 -1.03  0.10
 H  5.66 -2.56  0.02
 H  3.21  1.84 -0.77
 H  3.17  1.77  1.02
