15
set: 3808.00  0.00  0.00
 C  0.94  0.03 -0.11
 C  2.46 -0.04  0.06
 C  2.92 -0.74  1.34
 C  3.11 -0.75 -1.15
 O  2.55 -0.98 -2.20
 C  3.03  1.39  0.00
 O  3.93  1.81  0.70
 H  0.66  0.53 -1.05
 H  0.48  0.56  0.73
 H  0.52 -0.99 -0.14
 H  2.53 -0.21  2.22
 H  4.01 -0.76  1.42
 H  2.54 -1.78  1.37
 H  4.17 -1.06 -0.97
 H  2.54  2.04 -0.77
