16
set: 4684.00  0.00  0.00
 C  0.95  0.01  0.01
 C  2.49 -0.02 -0.06
 C  2.98  0.16 -1.50
 C  3.09 -1.26  0.63
 O  3.46 -0.84  1.98
 N  3.53  0.57  2.00
 C  3.05  1.02  0.90
 H  0.60 -0.17  1.03
 H  0.53 -0.77 -0.65
 H  0.56  0.98 -0.34
 H  4.08  0.18 -1.55
 H  2.60  1.10 -1.93
 H  2.63 -0.66 -2.13
 H  4.00 -1.61  0.12
 H  2.38 -2.10  0.73
 H  3.01  2.10  0.75
