13
set: 6974.00  0.00  0.00
 C  1.24  0.20  0.00
 C  2.70 -0.06 -0.00
 N  3.64  0.86 -0.01
 C  4.88  0.27 -0.01
 C  6.11  1.12 -0.02
 N  4.97 -1.06 -0.00
 S  3.41 -1.66  0.00
 H  0.65 -0.72 -0.01
 H  0.96  0.80 -0.87
 H  0.96  0.78  0.90
 H  7.01  0.49 -0.01
 H  6.13  1.78  0.86
 H  6.13  1.76 -0.91
