14
set: 6845.00  0.00  0.00
 O  0.77  1.74 -0.40
 N  2.15  1.89 -0.68
 C  2.85  1.14  0.09
 C  4.34  1.13 -0.01
 C  5.05  2.16 -0.91
 O  5.94  2.55  0.18
 C  5.16  1.79  1.13
 H  0.37  2.36 -1.05
 H  2.37  0.51  0.85
 H  4.68  0.11 -0.20
 H  4.41  3.00 -1.23
 H  5.61  1.77 -1.77
 H  5.79  1.12  1.74
 H  4.57  2.44  1.79
