15
set: 6637.00  0.00  0.00
 O  2.59 -0.92 -0.25
 C  1.90  0.33 -0.18
 C  2.90  1.40  0.17
 C  3.70  2.10 -0.89
 N  2.58  2.76 -0.22
 C  2.77  3.85  0.65
 N  2.45  3.96  1.88
 H  1.94 -1.62 -0.37
 H  1.10  0.31  0.58
 H  1.43  0.59 -1.15
 H  3.40  1.26  1.14
 H  3.55  1.84 -1.94
 H  4.71  2.42 -0.62
 H  3.19  4.73  0.13
 H  2.06  3.07  2.23
