14
set: 5658.00  0.00  0.00
 C  2.54 -0.54 -1.64
 N  2.34  0.11 -0.34
 C  3.11  1.32 -0.18
 C  2.43  2.65 -0.55
 O  2.54  3.11  0.86
 C  3.08  1.90  1.24
 O  3.36  1.53  2.35
 H  1.99 -1.49 -1.66
 H  3.60 -0.74 -1.88
 H  2.13  0.10 -2.44
 H  2.58 -0.54  0.42
 H  4.15  1.26 -0.56
 H  1.38  2.56 -0.84
 H  2.99  3.34 -1.21
