18
set: 5464.00  0.00  0.00
 C  3.02 -1.17 -0.43
 C  2.42  0.09  0.19
 O  1.82 -0.19  1.47
 C  3.43  1.22  0.30
 N  3.73  2.07 -0.88
 C  2.98  2.64  0.28
 C  3.69  3.71  1.07
 H  3.43 -0.95 -1.43
 H  2.26 -1.95 -0.52
 H  3.85 -1.55  0.19
 H  1.58  0.44 -0.43
 H  2.50 -0.61  2.03
 H  4.32  0.97  0.88
 H  3.06  1.85 -1.63
 H  1.91  2.78  0.15
 H  4.76  3.50  1.14
 H  3.27  3.78  2.09
 H  3.57  4.69  0.58
