15
set: 1923.00  0.00  0.00
 C  1.01  0.06  0.25
 C  2.48  0.04 -0.01
 N  3.16  1.12  0.22
 N  4.53  1.14 -0.14
 C  5.19  0.03 -0.06
 C  4.53 -1.29  0.20
 C  3.15 -1.23 -0.48
 H  0.74 -0.71  1.00
 H  0.45 -0.19 -0.67
 H  0.70  1.05  0.61
 H  6.26  0.09 -0.26
 H  5.15 -2.11 -0.19
 H  4.41 -1.46  1.29
 H  2.53 -2.11 -0.23
 H  3.27 -1.22 -1.57
