17
set: 3106.00  0.00  0.00
 C -1.69  0.86  0.54
 C -1.17 -0.29 -0.31
 C -0.34 -1.41  0.30
 C  1.08 -1.36 -0.30
 C  1.69  0.06 -0.16
 O  0.77  1.02  0.40
 C -0.45  1.04 -0.29
 H -2.59  1.37  0.22
 H -1.54  0.79  1.62
 H -1.74 -0.55 -1.20
 H -0.28 -1.28  1.40
 H -0.80 -2.39  0.12
 H  1.73 -2.10  0.18
 H  1.01 -1.64 -1.37
 H  2.54  0.06  0.53
 H  2.05  0.43 -1.14
 H -0.48  1.70 -1.17
