17
set: 3289.00  0.00  0.00
 C  0.95  0.01 -0.01
 C  2.49  0.03 -0.05
 C  2.98  0.15 -1.50
 C  3.09 -1.23  0.65
 O  3.51 -0.84  1.99
 C  3.54  0.54  1.97
 C  3.04  1.11  0.87
 H  0.58 -0.12  1.02
 H  0.55 -0.80 -0.63
 H  0.54  0.96 -0.39
 H  4.08  0.19 -1.54
 H  2.59  1.07 -1.96
 H  2.64 -0.70 -2.11
 H  3.98 -1.60  0.12
 H  2.37 -2.06  0.76
 H  3.96  0.99  2.87
 H  2.95  2.18  0.69
