21
set: 3677.00  0.00  0.00
 C  2.97 -1.02 -0.87
 C  2.47 -0.08  0.22
 C  3.01  1.36  0.15
 C  2.35  2.24  1.22
 C  4.55  1.46  0.18
 C  5.23  0.92  1.44
 O  6.65  1.13  1.42
 H  2.48 -2.00 -0.81
 H  4.06 -1.20 -0.81
 H  2.77 -0.61 -1.87
 H  2.70 -0.51  1.21
 H  1.37 -0.03  0.17
 H  2.70  1.76 -0.84
 H  2.56  1.87  2.23
 H  1.26  2.25  1.09
 H  2.71  3.28  1.16
 H  4.84  2.52  0.07
 H  4.97  0.93 -0.70
 H  5.00 -0.16  1.57
 H  4.88  1.44  2.33
 H  7.01  0.68  0.64
