17
set: 1459.00  0.00  0.00
 C  0.95 -0.02 -0.02
 C  2.40 -0.01 -0.01
 C  3.62 -0.01  0.00
 C  5.08  0.02  0.02
 C  5.66  1.46 -0.06
 C  7.16  1.47 -0.08
 C  7.94  2.06  0.83
 H  0.54  1.00 -0.01
 H  0.55 -0.55  0.86
 H  0.56 -0.53 -0.92
 H  5.47 -0.57 -0.82
 H  5.45 -0.47  0.94
 H  5.28  2.04  0.80
 H  5.27  1.93 -0.97
 H  7.63  0.93 -0.91
 H  7.51  2.60  1.68
 H  9.02  2.03  0.76
