17
set: 4381.00  0.00  0.00
 O  2.29 -0.94 -0.85
 C  1.99  0.18 -0.00
 C  3.20  1.07  0.06
 C  3.46  2.07 -1.02
 C  3.01  2.55  0.35
 C  3.96  3.25  1.24
 C  3.63  4.23  2.09
 H  1.54 -1.57 -0.79
 H  1.73 -0.17  1.02
 H  1.13  0.75 -0.39
 H  4.08  0.60  0.51
 H  2.74  2.14 -1.84
 H  4.49  2.27 -1.31
 H  1.97  2.89  0.42
 H  5.00  2.93  1.17
 H  2.60  4.59  2.18
 H  4.38  4.71  2.72
