17
set: 3427.00  0.00  0.00
 C  0.91  0.04 -0.21
 C  2.40 -0.04  0.13
 O  2.66 -1.21  0.93
 C  3.42 -0.84  2.09
 C  3.50  0.66  2.07
 C  4.16  1.43  3.17
 C  2.93  1.11  0.95
 H  0.59 -0.88 -0.72
 H  0.71  0.89 -0.88
 H  0.32  0.16  0.71
 H  2.97 -0.13 -0.82
 H  4.43 -1.30  2.04
 H  2.93 -1.23  3.00
 H  4.14  2.51  2.98
 H  5.21  1.13  3.29
 H  3.67  1.24  4.14
 H  2.84  2.15  0.64
