13
set: 3028.00  0.00  0.00
 N  1.16 -0.17 -0.52
 C  2.50 -0.19 -0.14
 N  3.19 -1.23  0.20
 C  3.16  1.14 -0.23
 C  4.45  1.33  0.14
 C  5.12  2.57  0.08
 C  5.73  3.62  0.04
 H  0.66  0.71 -0.44
 H  0.60 -0.98 -0.26
 H  2.61 -2.07  0.23
 H  2.57  1.98 -0.61
 H  5.00  0.46  0.50
 H  6.27  4.54  0.01
