18
set: 4711.00  0.00  0.00
 C  0.84  0.25 -0.35
 C  2.28  0.09  0.11
 C  2.49  0.15  1.62
 N  1.94 -1.04  2.29
 C  3.19 -0.84 -0.68
 C  3.36  0.66 -0.78
 O  4.47  1.29 -0.17
 H  0.78  0.28 -1.45
 H  0.40  1.18  0.04
 H  0.22 -0.60 -0.02
 H  2.06  1.11  1.98
 H  3.56  0.19  1.82
 H  0.92 -1.03  2.24
 H  2.17 -1.00  3.29
 H  2.78 -1.38 -1.54
 H  3.93 -1.39 -0.10
 H  3.02  1.15 -1.70
 H  5.26  1.03 -0.66
