15
set: 4334.00  0.00  0.00
 O  1.14 -0.13 -0.65
 C  2.52 -0.06 -0.22
 C  2.77  1.21  0.56
 C  3.25  1.23  1.81
 C  3.63 -0.00  2.56
 C  3.38 -1.27  1.80
 C  2.91 -1.29  0.55
 H  0.60 -0.16  0.17
 H  3.08 -0.03 -1.17
 H  2.50  2.14  0.05
 H  3.38  2.19  2.32
 H  4.70  0.05  2.86
 H  3.09 -0.04  3.53
 H  3.62 -2.21  2.31
 H  2.74 -2.24  0.04
