19
set: 1176.00  0.00  0.00
 C -0.87  0.00 -1.15
 C -0.64  1.07 -0.04
 C -1.17 -0.00  0.96
 C -0.64 -1.07 -0.04
 C  0.86 -1.29  0.21
 C  1.67 -0.00 -0.09
 C  0.86  1.29  0.21
 H -1.92  0.00 -1.49
 H -0.21  0.00 -2.03
 H -1.19  2.02 -0.11
 H -0.75 -0.00  1.98
 H -2.27 -0.00  1.02
 H -1.19 -2.02 -0.11
 H  1.00 -1.61  1.25
 H  1.24 -2.11 -0.43
 H  1.93  0.00 -1.16
 H  2.62 -0.00  0.46
 H  1.24  2.11 -0.42
 H  1.00  1.61  1.25
