17
set: 4010.00  0.00  0.00
 C  2.89 -0.15  0.67
 C  4.21  0.20  0.01
 O  4.35  1.63  0.03
 C  5.49  2.15 -0.52
 C  6.50  1.43 -1.07
 C  5.54  3.61 -0.45
 C  4.58  4.39  0.08
 H  2.76 -1.24  0.67
 H  2.05  0.30  0.12
 H  2.87  0.21  1.70
 H  4.24 -0.16 -1.04
 H  5.06 -0.26  0.55
 H  6.50  0.35 -1.14
 H  7.36  1.96 -1.47
 H  6.44  4.06 -0.87
 H  3.67  3.97  0.51
 H  4.69  5.48  0.09
