19
set: 1394.00  0.00  0.00
 C  0.70  1.01  0.23
 C  2.18  0.94  0.47
 C  3.12  1.32 -0.41
 C  4.61  1.24 -0.18
 C  5.27  0.30 -1.22
 C  5.23  2.61 -0.24
 C  5.89  3.20  0.77
 H  0.24  0.02  0.32
 H  0.47  1.42 -0.76
 H  0.21  1.65  0.99
 H  2.50  0.55  1.44
 H  2.81  1.72 -1.39
 H  4.79  0.82  0.83
 H  5.12  0.69 -2.24
 H  4.84 -0.70 -1.17
 H  6.36  0.23 -1.04
 H  5.12  3.14 -1.19
 H  6.03  2.71  1.73
 H  6.32  4.20  0.66
