16
set: 260.00  0.00  0.00
 C  0.85  0.07 -0.02
 C  2.34  0.00  0.08
 C  3.17  1.04 -0.11
 C  4.65  1.01 -0.04
 C  5.45 -0.26 -0.17
 C  5.48  0.75 -1.30
 H  0.47 -0.62 -0.79
 H  0.50  1.08 -0.27
 H  0.37 -0.23  0.93
 H  2.77 -0.97  0.33
 H  2.73  2.02 -0.34
 H  5.09  1.77  0.62
 H  4.91 -1.19 -0.35
 H  6.34 -0.37  0.44
 H  6.38  1.34 -1.45
 H  4.92  0.50 -2.20
