17
set: 2830.00  0.00  0.00
 N  1.11  0.29 -0.44
 C  2.49  0.03 -0.09
 C  3.18 -1.12 -0.79
 C  3.54  0.31 -1.14
 N  4.82  0.80 -0.70
 C  5.81  1.00 -1.77
 C  5.15  2.17 -1.12
 H  0.85  1.24 -0.18
 H  0.49 -0.34  0.08
 H  2.84  0.21  0.94
 H  2.59 -1.68 -1.52
 H  3.91 -1.69 -0.23
 H  3.15  0.68 -2.10
 H  5.51  0.76 -2.80
 H  6.84  0.73 -1.52
 H  5.69  2.77 -0.39
 H  4.41  2.71 -1.72
