15
set: 2447.00  0.00  0.00
 C  1.12 -0.10 -0.59
 C  2.37  0.08 -0.12
 N  3.04  1.28  0.10
 C  4.42  1.37  0.61
 C  4.63  2.92  0.66
 N  3.39  3.54  0.14
 C  2.59  2.57 -0.13
 H  0.74 -1.11 -0.71
 H  0.46  0.72 -0.87
 H  2.98 -0.79  0.14
 H  5.12  0.87 -0.07
 H  4.49  0.90  1.60
 H  5.48  3.24  0.06
 H  4.80  3.27  1.69
 H  1.59  2.73 -0.54
