14
set: 4667.00  0.00  0.00
 C  0.97 -0.06  0.16
 C  2.45  0.14 -0.08
 C  3.22  1.15  0.79
 C  4.14 -0.05  1.13
 O  3.26 -0.98  0.44
 C  5.48  0.00  0.53
 N  6.55  0.07  0.07
 H  0.61 -0.95 -0.37
 H  0.41  0.81 -0.22
 H  0.76 -0.18  1.23
 H  2.65  0.27 -1.16
 H  2.66  1.50  1.67
 H  3.70  1.99  0.28
 H  4.24 -0.31  2.20
