15
set: 6955.00  0.00  0.00
 C  0.94 -0.01  0.12
 C  2.46  0.02  0.03
 C  3.15  1.16  0.83
 S  4.44 -0.01  1.38
 O  4.59 -0.08  2.84
 O  5.62  0.05  0.50
 C  3.19 -1.18  0.71
 H  0.53 -0.89 -0.42
 H  0.50  0.89 -0.33
 H  0.61 -0.07  1.16
 H  2.78  0.07 -1.02
 H  2.58  1.50  1.70
 H  3.55  2.01  0.25
 H  3.62 -1.95  0.06
 H  2.63 -1.62  1.54
