14
set: 6565.00  0.00  0.00
 O  0.87 -0.05 -0.07
 C  2.10 -0.04 -0.05
 C  2.88  1.25  0.20
 N  4.20  1.19 -0.42
 C  5.01  0.07  0.07
 C  4.25 -1.22 -0.03
 C  2.91 -1.26 -0.15
 H  2.31  2.09 -0.24
 H  2.90  1.40  1.30
 H  4.70  2.07 -0.30
 H  5.34  0.19  1.13
 H  5.93  0.01 -0.53
 H  4.84 -2.14  0.01
 H  2.37 -2.20 -0.25
