17
set: 4114.00  0.00  0.00
 C  2.04 -0.24 -1.54
 O  2.22  0.28 -0.23
 C  3.33  1.21 -0.14
 C  3.54  1.57  1.34
 C  2.97  2.99  1.54
 C  2.80  3.50  0.13
 C  3.02  2.54 -0.79
 H  1.25 -1.01 -1.47
 H  2.96 -0.70 -1.93
 H  1.71  0.54 -2.26
 H  4.21  0.72 -0.59
 H  4.62  1.56  1.56
 H  3.07  0.81  1.98
 H  3.63  3.63  2.14
 H  1.99  2.98  2.06
 H  2.52  4.53 -0.10
 H  2.95  2.68 -1.87
