17
set: 3023.00  0.00  0.00
 N  1.02  0.36  0.54
 C  2.31  0.39  0.50
 N  3.00  1.47  0.02
 C  4.40  1.41 -0.38
 C  5.11  2.73 -0.15
 C  6.32  3.08 -0.98
 C  5.02  3.82 -1.19
 H  0.70 -0.50  0.99
 H  2.98 -0.41  0.87
 H  2.43  2.20 -0.40
 H  4.51  1.13 -1.45
 H  4.88  0.61  0.21
 H  5.12  3.06  0.89
 H  6.63  2.37 -1.75
 H  7.14  3.60 -0.49
 H  4.95  4.85 -0.85
 H  4.47  3.60 -2.11
