22
set: 2198.00  0.00  0.00
 C  2.81 -1.29  1.21
 C  2.15  0.09  1.32
 C  2.88  1.23  0.57
 C  2.07  2.53  0.65
 C  4.33  1.43  1.04
 N  4.43  1.78  2.46
 C  5.81  2.03  2.87
 H  2.20 -2.06  1.70
 H  3.81 -1.31  1.67
 H  2.93 -1.58  0.15
 H  2.03  0.37  2.38
 H  1.12  0.03  0.92
 H  2.94  0.93 -0.49
 H  2.03  2.90  1.69
 H  1.04  2.39  0.29
 H  2.54  3.32  0.04
 H  4.77  2.26  0.46
 H  4.93  0.53  0.78
 H  4.05  1.02  3.02
 H  6.19  2.93  2.36
 H  6.51  1.20  2.63
 H  5.85  2.21  3.95
