13
set: 6804.00  0.00  0.00
 O  4.18  2.23 -3.09
 C  3.12  2.48 -2.52
 N  2.95  2.46 -1.16
 N  3.95  1.97 -0.29
 C  4.86  3.08  0.12
 C  5.97  2.55  0.91
 C  6.90  2.11  1.55
 H  2.18  2.75 -3.05
 H  2.00  2.46 -0.78
 H  4.50  1.31 -0.85
 H  4.28  3.79  0.72
 H  5.26  3.63 -0.75
 H  7.72  1.72  2.11
