19
set: 2458.00  0.00  0.00
 C  2.39 -0.47 -1.48
 C  2.56  0.00 -0.03
 N  3.29 -0.94  0.84
 C  3.28  1.35  0.04
 C  2.68  2.61 -0.64
 C  3.14  3.37  0.62
 N  3.18  2.07  1.34
 H  1.81  0.25 -2.08
 H  1.87 -1.44 -1.51
 H  3.38 -0.60 -1.96
 H  1.57  0.15  0.43
 H  4.15 -1.24  0.37
 H  2.73 -1.79  0.98
 H  4.33  1.21 -0.29
 H  1.58  2.55 -0.71
 H  3.10  2.91 -1.61
 H  4.13  3.84  0.47
 H  2.45  4.11  1.06
 H  3.96  1.92  1.99
