13
set: 6456.00  0.00  0.00
 N  1.45 -0.65 -0.51
 N  2.63 -0.04  0.00
 C  3.35  0.83 -0.75
 O  3.15  1.03 -1.95
 C  4.48  1.57 -0.00
 C  4.57  1.35  1.43
 C  4.62  1.14  2.63
 H  1.74 -1.51 -0.98
 H  1.13 -0.03 -1.26
 H  2.70 -0.00  1.02
 H  4.34  2.65 -0.22
 H  5.42  1.29 -0.50
 H  4.68  0.97  3.68
