15
set: 4320.00  0.00  0.00
 O  1.11 -0.01  0.21
 C  2.54 -0.02  0.03
 C  2.89 -1.26 -0.82
 C  3.27 -0.69 -2.16
 C  3.32  0.66 -2.14
 C  3.00  1.17 -0.81
 C  3.05  2.44 -0.37
 H  0.84  0.92  0.30
 H  3.04 -0.04  1.01
 H  2.03 -1.94 -0.87
 H  3.73 -1.83 -0.38
 H  3.48 -1.31 -3.03
 H  3.59  1.30 -2.98
 H  2.83  2.70  0.67
 H  3.33  3.26 -1.03
