19
set: 3878.00  0.00  0.00
 C  1.01 -0.47  0.06
 C  2.50 -0.32 -0.23
 C  2.93 -1.05 -1.50
 O  2.85  1.07 -0.43
 C  3.03  1.88  0.66
 C  3.35  3.27  0.21
 C  2.96  1.50  1.96
 H  0.72  0.12  0.94
 H  0.76 -1.52  0.26
 H  0.42 -0.13 -0.80
 H  3.10 -0.70  0.62
 H  2.38 -0.65 -2.37
 H  2.71 -2.12 -1.42
 H  4.00 -0.92 -1.68
 H  4.24  3.27 -0.43
 H  3.53  3.93  1.07
 H  2.52  3.68 -0.38
 H  2.71  0.50  2.28
 H  3.15  2.24  2.73
