13
set: 5618.00  0.00  0.00
 C  1.00 -0.01 -0.01
 N  2.45  0.04  0.00
 C  3.25  1.16  0.01
 C  4.56  0.69  0.01
 O  5.75  1.37  0.02
 C  4.45 -0.72  0.01
 N  3.16 -1.11  0.01
 H  0.61  1.01  0.00
 H  0.64 -0.54  0.88
 H  0.65 -0.53 -0.91
 H  2.84  2.16  0.00
 H  5.56  2.33  0.02
 H  5.25 -1.46  0.02
