14
set: 5473.00  0.00  0.00
 C  2.33  1.88 -0.73
 C  3.12  2.84 -1.21
 O  4.45  3.05 -0.97
 C  5.07  2.11 -0.09
 C  6.54  2.53  0.01
 C  7.30  1.64  0.89
 N  7.88  0.92  1.59
 H  1.28  1.86 -1.03
 H  2.67  1.10 -0.05
 H  2.75  3.61 -1.89
 H  4.99  1.09 -0.50
 H  4.59  2.14  0.90
 H  6.61  3.56  0.39
 H  7.00  2.52 -0.99
