13
set: 1144.00  0.00  0.00
 O  1.39  1.69 -0.01
 C  2.59  1.90 -0.03
 C  3.49  1.53 -1.18
 N  4.88  1.44 -0.75
 C  5.34  0.09 -0.36
 C  5.78  0.70 -1.65
 H  3.11  2.41  0.82
 H  3.41  2.34 -1.92
 H  3.10  0.61 -1.67
 H  4.61 -0.73 -0.42
 H  6.02  0.06  0.49
 H  6.78  1.11 -1.75
 H  5.35  0.28 -2.57
