16
set: 854.00  0.00  0.00
 C  1.19 -0.11 -0.59
 O  2.55 -0.16 -0.16
 C  3.17  1.07 -0.14
 C  4.50  1.22 -0.04
 C  5.44  0.04  0.00
 C  5.11  2.59  0.04
 H  0.80 -1.13 -0.49
 H  1.11  0.20 -1.65
 H  0.59  0.57  0.04
 H  2.50  1.94 -0.17
 H  4.90 -0.91 -0.10
 H  6.00  0.02  0.95
 H  6.19  0.11 -0.81
 H  4.35  3.38 -0.01
 H  5.84  2.75 -0.77
 H  5.67  2.71  0.99
