13
set: 4350.00  0.00  0.00
 O  0.91 -0.22 -0.20
 C  2.32 -0.01  0.01
 C  3.07 -1.22 -0.47
 C  3.80 -0.85 -1.53
 O  3.72  0.49 -1.85
 C  2.91  1.08 -0.88
 C  2.73  2.40 -0.83
 H  0.47  0.64 -0.06
 H  2.51  0.22  1.08
 H  2.98 -2.22 -0.06
 H  4.45 -1.43 -2.19
 H  3.17  3.07 -1.56
 H  2.12  2.83 -0.03
