14
set: 5547.00  0.00  0.00
 C  3.14  3.11 -1.05
 C  2.44  2.10 -0.52
 O  2.90  0.94  0.06
 C  4.29  0.66  0.02
 O  5.01  1.26  1.09
 N  5.81  2.34  0.63
 C  6.44  2.89  1.59
 H  2.59  3.94 -1.50
 H  4.23  3.17 -1.04
 H  1.35  2.10 -0.51
 H  4.74  0.96 -0.94
 H  4.35 -0.42  0.19
 H  7.08  3.73  1.32
 H  6.35  2.56  2.63
