14
set: 2087.00  0.00  0.00
 C  1.56 -0.67  1.11
 C  2.31 -0.33  0.06
 C  3.01  0.99 -0.10
 C  4.50  0.83 -0.16
 C  5.27  1.17 -1.22
 C  6.68  1.00 -1.25
 N  7.84  0.86 -1.30
 H  1.07 -1.64  1.18
 H  1.40  0.02  1.95
 H  2.45 -1.05 -0.75
 H  2.76  1.64  0.75
 H  2.66  1.50 -1.02
 H  4.98  0.37  0.71
 H  4.82  1.62 -2.11
