13
set: 3654.00  0.00  0.00
 C  0.94 -0.05 -0.00
 C  2.39  0.01  0.00
 C  3.61  0.08  0.00
 C  5.02  0.10  0.00
 C  5.79  1.22  0.04
 C  7.25  1.10  0.04
 O  8.03  2.05  0.07
 H  0.50  0.96  0.01
 H  0.58 -0.60  0.88
 H  0.58 -0.58 -0.90
 H  5.53 -0.87 -0.03
 H  5.36  2.22  0.08
 H  7.63  0.05  0.00
