17
set: 3322.00  0.00  0.00
 C  0.94  0.16 -0.17
 C  2.43 -0.01 -0.02
 C  3.28 -0.70 -1.10
 O  2.70 -1.09 -2.32
 C  3.43  0.78 -0.84
 C  2.99  1.79 -1.88
 O  4.57  1.17 -0.09
 H  0.59  1.08  0.33
 H  0.41 -0.69  0.29
 H  0.63  0.21 -1.22
 H  2.79 -0.21  0.99
 H  4.10 -1.33 -0.75
 H  2.18 -1.90 -2.16
 H  2.15  1.42 -2.47
 H  3.82  2.00 -2.58
 H  2.71  2.73 -1.39
 H  5.31  1.26 -0.71
