16
set: 6520.00  0.00  0.00
 O  1.01  0.09  0.20
 C  2.44 -0.01  0.05
 C  2.76 -1.43 -0.42
 C  2.75 -1.34 -1.96
 N  3.26  0.02 -2.29
 C  2.20  1.05 -2.31
 C  3.02  0.86 -1.08
 H  0.80  1.03  0.36
 H  2.94  0.23  1.01
 H  2.06 -2.17 -0.00
 H  3.78 -1.69 -0.08
 H  3.40 -2.09 -2.43
 H  1.73 -1.49 -2.36
 H  2.40  1.90 -2.96
 H  1.16  0.71 -2.27
 H  3.82  1.57 -0.83
