18
set: 5525.00  0.00  0.00
 C  3.15 -1.07 -0.99
 C  2.63 -0.13  0.10
 O  2.80 -0.69  1.41
 C  3.22  1.32  0.06
 N  2.59  2.21  1.03
 C  4.73  1.28  0.24
 C  5.40  1.89  1.22
 H  3.00 -0.64 -1.99
 H  2.61 -2.03 -0.93
 H  4.22 -1.28 -0.87
 H  1.54 -0.02 -0.01
 H  3.76 -0.69  1.61
 H  3.02  1.72 -0.95
 H  2.49  1.69  1.91
 H  1.64  2.42  0.72
 H  5.28  0.69 -0.50
 H  4.88  2.52  1.95
 H  6.49  1.81  1.29
