17
set: 5190.00  0.00  0.00
 C  1.35 -0.58  0.99
 C  1.90 -0.09 -0.35
 C  2.27 -1.23 -1.31
 N  1.06 -1.92 -1.80
 N  0.94  0.78 -1.03
 C  0.81  2.11 -0.78
 O  1.49  2.75  0.02
 H  1.13  0.27  1.64
 H  2.10 -1.21  1.51
 H  0.43 -1.16  0.87
 H  2.80  0.52 -0.17
 H  2.99 -1.90 -0.80
 H  2.78 -0.80 -2.18
 H  0.70 -2.57 -1.10
 H  1.28 -2.48 -2.63
 H  0.29  0.31 -1.67
 H -0.00  2.57 -1.39
