16
set: 1756.00  0.00  0.00
 C  0.95  0.03 -0.01
 N  2.40  0.02  0.00
 C  3.22  1.12  0.00
 C  4.53  0.69  0.01
 C  4.52 -0.74  0.01
 C  5.71 -1.65  0.02
 C  3.18 -1.12  0.00
 H  0.60  1.07  0.00
 H  0.54 -0.48  0.88
 H  0.55 -0.46 -0.91
 H  2.79  2.12  0.00
 H  5.41  1.33  0.01
 H  5.40 -2.71  0.02
 H  6.34 -1.49  0.90
 H  6.34 -1.50 -0.87
 H  2.73 -2.11  0.00
