20
set: 235.00  0.00  0.00
 C  0.92 -0.09  0.05
 C  2.44 -0.02  0.23
 C  3.03  1.39  0.14
 C  2.50  2.32  1.24
 C  4.58  1.37  0.18
 C  5.25  0.66 -0.99
 H  0.57 -1.13  0.06
 H  0.62  0.35 -0.92
 H  0.38  0.44  0.84
 H  2.91 -0.67 -0.53
 H  2.71 -0.46  1.21
 H  2.73  1.81 -0.84
 H  2.77  1.94  2.23
 H  1.40  2.41  1.20
 H  2.92  3.33  1.14
 H  4.90  0.92  1.13
 H  4.93  2.42  0.20
 H  5.02 -0.42 -1.02
 H  6.35  0.75 -0.93
 H  4.94  1.09 -1.96
