17
set: 4200.00  0.00  0.00
 C  2.43 -0.49  0.09
 O  3.72  0.13  0.12
 C  3.74  1.51  0.11
 C  2.66  2.30  0.07
 C  5.16  2.01  0.16
 C  5.92  1.58  1.43
 O  6.25  0.20  1.47
 H  2.62 -1.57  0.10
 H  1.89 -0.22 -0.83
 H  1.83 -0.21  0.97
 H  1.64  1.92  0.05
 H  2.79  3.38  0.07
 H  5.15  3.10  0.10
 H  5.72  1.62 -0.71
 H  5.32  1.87  2.32
 H  6.87  2.12  1.48
 H  5.44 -0.28  1.21
