13
set: 5629.00  0.00  0.00
 C  0.99  0.05  0.07
 N  2.40  0.05 -0.25
 N  3.21  1.09  0.25
 C  4.51  0.61  0.24
 C  4.54 -0.72 -0.04
 C  3.16 -1.15 -0.31
 O  2.67 -2.26 -0.52
 H  0.45  0.83 -0.50
 H  0.82  0.19  1.14
 H  0.62 -0.94 -0.24
 H  3.05  1.99 -0.22
 H  5.33  1.30  0.45
 H  5.39 -1.39 -0.03
