14
set: 2752.00  0.00  0.00
 C  2.01  0.19  0.46
 N  3.09 -0.49 -0.24
 C  2.88 -1.90 -0.58
 C  2.74 -2.74  0.61
 N  2.60 -3.42  1.55
 N  3.81  0.15 -1.20
 C  3.74  1.43 -1.32
 H  2.41  1.03  1.05
 H  1.54 -0.51  1.16
 H  1.25  0.58 -0.24
 H  3.76 -2.21 -1.15
 H  1.99 -2.05 -1.22
 H  4.39  1.87 -2.07
 H  3.11  2.09 -0.72
