21
set: 1485.00  0.00  0.00
 C  3.06 -0.98 -0.95
 C  2.54 -0.08  0.18
 C  3.04  1.38  0.11
 C  2.34  2.24  1.17
 C  4.54  1.46  0.28
 C  5.41  1.95 -0.62
 C  6.89  2.03 -0.43
 H  2.68 -2.00 -0.85
 H  4.16 -1.02 -0.94
 H  2.75 -0.59 -1.93
 H  2.82 -0.51  1.16
 H  1.44 -0.07  0.15
 H  2.79  1.78 -0.89
 H  2.57  1.89  2.18
 H  1.24  2.20  1.04
 H  2.65  3.29  1.09
 H  4.92  1.08  1.24
 H  5.02  2.32 -1.57
 H  7.20  1.63  0.55
 H  7.24  3.07 -0.49
 H  7.43  1.47 -1.21
