15
set: 1036.00  0.00  0.00
 C  1.73 -0.98  0.41
 C  3.18 -0.52  0.35
 N  3.27  0.86 -0.13
 C  4.63  1.39 -0.16
 C  4.69  2.70 -0.91
 O  5.48  3.60 -0.66
 H  1.67 -2.04  0.72
 H  1.25 -0.88 -0.58
 H  1.15 -0.39  1.13
 H  3.74 -1.15 -0.36
 H  3.66 -0.66  1.34
 H  2.69  1.46  0.48
 H  5.25  0.68 -0.75
 H  5.13  1.50  0.82
 H  3.94  2.79 -1.74
