16
set: 6209.00  0.00  0.00
 N  2.57 -0.45  1.53
 C  2.52  0.00  0.12
 C  2.96  1.42 -0.03
 C  4.05  1.88 -0.66
 O  4.22  3.25 -0.65
 C  3.00  3.80 -0.06
 C  2.23  2.62  0.57
 H  2.25 -1.42  1.58
 H  1.89  0.09  2.08
 H  1.52 -0.12 -0.34
 H  3.21 -0.64 -0.46
 H  4.84  1.33 -1.17
 H  2.43  4.27 -0.87
 H  3.31  4.57  0.66
 H  1.16  2.64  0.31
 H  2.31  2.61  1.67
