15
set: 2834.00  0.00  0.00
 N  1.51  0.15  1.16
 C  2.32  0.05  0.16
 C  2.96 -1.27 -0.25
 C  4.09 -0.88 -1.19
 C  5.13  0.11 -0.69
 C  3.92  0.60 -1.47
 N  2.77  1.03 -0.72
 H  1.19  1.12  1.28
 H  2.21 -1.89 -0.77
 H  3.28 -1.83  0.64
 H  4.37 -1.56 -2.00
 H  5.15  0.33  0.38
 H  6.09  0.11 -1.19
 H  4.04  1.02 -2.47
 H  2.72  2.00 -0.41
