19
set: 2522.00  0.00  0.00
 C  2.06  0.02  1.74
 C  2.49  0.18  0.28
 N  3.04  1.49 -0.05
 C  2.14  2.63 -0.10
 C  4.39  1.71  0.07
 N  4.93  2.87  0.08
 C  6.38  2.93  0.11
 H  1.65 -0.99  1.92
 H  1.27  0.74  2.01
 H  2.91  0.17  2.42
 H  1.63 -0.01 -0.39
 H  3.26 -0.58  0.04
 H  1.22  2.34 -0.63
 H  2.64  3.45 -0.62
 H  1.87  2.99  0.91
 H  4.98  0.77  0.13
 H  6.72  3.54  0.96
 H  6.76  3.42 -0.80
 H  6.86  1.93  0.18
