15
set: 4036.00  0.00  0.00
 C  1.69 -1.66  0.81
 C  3.04 -1.06  1.14
 O  3.61 -1.28  2.19
 C  3.65 -0.15  0.07
 C  5.16 -0.08  0.15
 C  5.85 -1.32 -0.36
 O  5.28 -2.29 -0.82
 H  1.01 -0.90  0.40
 H  1.25 -2.12  1.71
 H  1.82 -2.43  0.04
 H  3.21  0.85  0.22
 H  3.32 -0.49 -0.93
 H  5.48  0.05  1.20
 H  5.57  0.78 -0.40
 H  6.97 -1.29 -0.30
