16
set: 1685.00  0.00  0.00
 C  1.30  0.13  0.74
 C  2.36 -0.08 -0.06
 C  2.83 -1.41 -0.64
 C  4.37 -1.28 -0.74
 C  4.61  0.21 -0.86
 N  3.76  0.84 -1.90
 C  3.37  0.94 -0.45
 H  1.06  1.13  1.10
 H  0.65 -0.69  1.05
 H  2.40 -1.52 -1.65
 H  2.50 -2.27 -0.04
 H  4.85 -1.64  0.19
 H  4.78 -1.85 -1.58
 H  5.60  0.63 -0.66
 H  4.18  1.74 -2.16
 H  3.39  1.91  0.04
