14
set: 833.00  0.00  0.00
 C  0.92 -0.02  0.01
 C  2.43 -0.04  0.00
 O  2.90  1.31  0.01
 C  4.33  1.36  0.00
 C  4.79  2.74  0.01
 C  5.20  3.88  0.01
 H  0.53 -1.05  0.00
 H  0.53  0.50 -0.88
 H  0.54  0.49  0.90
 H  2.82 -0.57 -0.89
 H  2.82 -0.57  0.89
 H  4.73  0.84 -0.89
 H  4.74  0.84  0.89
 H  5.57  4.89  0.02
