17
set: 1232.00  0.00  0.00
 C  0.87 -1.21  0.88
 C  1.15 -0.42 -0.37
 C  0.98  1.09 -0.43
 C -0.23  1.62  0.36
 C -1.47  0.78  0.14
 C -1.40 -0.53 -0.16
 C -0.12 -1.26 -0.29
 H  1.47 -2.10  1.06
 H  0.54 -0.69  1.78
 H  1.93 -0.81 -1.02
 H  1.90  1.59 -0.08
 H  0.85  1.37 -1.49
 H  0.01  1.65  1.44
 H -0.43  2.67  0.08
 H -2.44  1.27  0.24
 H -2.32 -1.10 -0.31
 H -0.15 -2.19 -0.86
