13
set: 4755.00  0.00  0.00
 C  0.95 -0.05  0.02
 C  2.44  0.06 -0.02
 C  3.22  1.20 -0.13
 N  4.52  0.73 -0.10
 O  5.66  1.51 -0.28
 C  4.49 -0.63  0.01
 N  3.24 -1.06  0.07
 H  0.48  0.94 -0.07
 H  0.61 -0.51  0.95
 H  0.59 -0.67 -0.81
 H  3.00  2.25 -0.24
 H  5.91  1.81  0.62
 H  5.40 -1.23  0.03
