13
set: 5627.00  0.00  0.00
 C  1.09 -0.01 -0.13
 N  2.52  0.03  0.12
 N  3.24 -1.15  0.28
 C  4.47 -0.82  0.49
 C  4.70  0.66  0.48
 C  3.29  1.18  0.21
 O  2.89  2.34  0.11
 H  0.75  1.02 -0.24
 H  0.57 -0.48  0.72
 H  0.87 -0.57 -1.05
 H  5.22 -1.60  0.65
 H  5.09  1.05  1.43
 H  5.39  0.99 -0.31
