19
set: 2997.00  0.00  0.00
 N  0.92  0.01 -0.02
 C  2.38 -0.07  0.16
 C  2.99  1.33  0.37
 C  2.43  2.01  1.63
 N  2.80  3.43  1.67
 C  4.49  1.25  0.44
 C  5.35  1.91 -0.35
 H  0.53 -0.94 -0.06
 H  0.71  0.44 -0.92
 H  2.92 -0.56 -0.67
 H  2.58 -0.68  1.06
 H  2.72  1.97 -0.49
 H  2.77  1.42  2.52
 H  1.33  1.94  1.60
 H  3.82  3.52  1.75
 H  2.40  3.88  2.50
 H  4.89  0.58  1.22
 H  5.00  2.58 -1.13
 H  6.43  1.80 -0.23
