15
set: 4418.00  0.00  0.00
 O  2.09 -0.35 -1.36
 C  2.27  0.08 -0.01
 C  3.17  1.30 -0.02
 C  2.57  2.60 -0.64
 C  2.89  3.32  0.67
 O  2.85  4.48  1.02
 C  3.34  2.02  1.35
 H  1.50 -1.12 -1.36
 H  2.74 -0.72  0.60
 H  1.30  0.34  0.46
 H  4.14  1.04 -0.47
 H  1.49  2.54 -0.84
 H  3.06  3.01 -1.53
 H  4.35  2.05  1.79
 H  2.63  1.69  2.13
