17
set: 3041.00  0.00  0.00
 N  1.35 -0.10  0.81
 N  2.44 -0.01 -0.05
 C  2.93  1.15 -0.26
 C  2.46  2.48  0.30
 C  3.41  3.53 -0.33
 C  4.70  2.73 -0.62
 C  4.18  1.37 -1.10
 H  0.84 -0.96  0.61
 H  0.72  0.71  0.78
 H  2.55  2.46  1.40
 H  1.40  2.69  0.08
 H  2.98  3.89 -1.28
 H  3.58  4.40  0.32
 H  5.35  3.23 -1.36
 H  5.28  2.61  0.31
 H  3.91  1.42 -2.17
 H  4.90  0.54 -0.98
