15
set: 1915.00  0.00  0.00
 C  0.92 -0.07 -0.02
 C  2.40  0.05 -0.02
 C  3.24  1.16 -0.08
 N  2.84  2.51 -0.22
 C  4.59  0.69 -0.06
 C  4.55 -0.69  0.01
 N  3.23 -1.07  0.04
 H  0.45  0.93 -0.02
 H  0.53 -0.61  0.86
 H  0.54 -0.59 -0.92
 H  3.52  3.14  0.20
 H  1.93  2.69  0.20
 H  5.49  1.30 -0.11
 H  5.35 -1.42  0.05
 H  2.90 -2.03  0.08
