20
set: 5102.00  0.00  0.00
 C  1.00 -0.04  0.23
 C  2.48 -0.04 -0.15
 C  3.06  1.34 -0.51
 C  2.33  1.98 -1.71
 O  2.93  2.18  0.64
 C  4.57  1.19 -0.82
 N  5.21  2.52 -0.82
 H  0.69 -1.03  0.58
 H  0.35  0.23 -0.63
 H  0.81  0.69  1.03
 H  2.65 -0.72 -1.00
 H  3.07 -0.42  0.70
 H  2.37  1.33 -2.60
 H  2.79  2.95 -1.96
 H  1.28  2.17 -1.45
 H  3.66  2.84  0.53
 H  4.71  0.62 -1.76
 H  5.02  0.61 -0.00
 H  5.16  2.96 -1.74
 H  6.20  2.44 -0.59
