17
set: 4165.00  0.00  0.00
 C  2.80 -0.12 -0.24
 O  1.96  1.02 -0.06
 C  2.55  2.26 -0.03
 C  1.50  3.30  0.17
 C  3.89  2.46 -0.17
 C  4.56  3.75 -0.14
 C  5.89  3.92 -0.28
 H  2.13 -0.99 -0.23
 H  3.53 -0.21  0.58
 H  3.33 -0.08 -1.21
 H  0.97  3.12  1.12
 H  0.75  3.24 -0.64
 H  1.91  4.31  0.18
 H  4.54  1.60 -0.31
 H  3.94  4.64  0.02
 H  6.56  3.08 -0.44
 H  6.33  4.92 -0.25
