15
set: 5772.00  0.00  0.00
 C  1.03  0.01  0.34
 N  2.39 -0.10 -0.17
 C  2.91 -1.43 -0.46
 C  4.43 -1.42 -0.53
 O  5.07 -2.26 -1.13
 N  2.87  0.81 -1.05
 C  2.26  1.93 -1.25
 H  0.91  0.92  0.93
 H  0.82 -0.85  0.99
 H  0.28  0.03 -0.48
 H  2.50 -1.87 -1.39
 H  2.63 -2.11  0.37
 H  4.91 -0.60  0.04
 H  2.74  2.63 -1.93
 H  1.31  2.22 -0.79
