20
set: 5063.00  0.00  0.00
 C  2.82 -0.88 -0.59
 C  2.79 -0.03  0.69
 C  3.80  1.13  0.70
 C  3.57  2.08  1.89
 N  3.84  1.43  3.19
 C  5.27  0.66  0.66
 O  5.63 -0.19  1.75
 H  2.02 -1.64 -0.57
 H  3.78 -1.40 -0.70
 H  2.67 -0.25 -1.48
 H  2.98 -0.69  1.55
 H  1.78  0.39  0.82
 H  3.64  1.73 -0.21
 H  2.54  2.50  1.82
 H  4.26  2.93  1.80
 H  3.08  0.80  3.43
 H  3.89  2.13  3.93
 H  5.92  1.56  0.62
 H  5.46  0.09 -0.26
 H  5.25  0.26  2.54
