13
set: 4616.00  0.00  0.00
 C  1.03  1.13 -0.30
 O -0.16  1.44  0.48
 N -1.37  0.85  0.04
 C -1.42 -0.44 -0.05
 N -0.47 -1.44  0.11
 C  0.92 -1.34  0.14
 C  1.64 -0.21 -0.03
 H  1.74  1.93 -0.04
 H  0.77  1.24 -1.37
 H -2.41 -0.82 -0.30
 H -0.85 -2.38  0.05
 H  1.41 -2.30  0.33
 H  2.72 -0.28  0.06
