15
set: 5191.00  0.00  0.00
 C  2.42 -0.99 -1.48
 C  3.20 -0.42 -0.28
 C  2.69  0.92  0.14
 N  3.44  1.96  0.09
 N  2.91  3.15  0.48
 C  3.66  4.31  0.45
 O  3.23  5.40  0.78
 H  2.79 -2.00 -1.73
 H  2.54 -0.35 -2.36
 H  1.35 -1.07 -1.26
 H  4.27 -0.32 -0.52
 H  3.11 -1.11  0.57
 H  1.64  0.99  0.48
 H  1.93  3.22  0.81
 H  4.69  4.11  0.08
