17
set: 4246.00  0.00  0.00
 C  2.57  0.06 -2.41
 O  3.45  0.16 -1.26
 C  4.28  1.24 -1.28
 O  4.28  2.07 -2.17
 C  5.22  1.21 -0.08
 C  6.46  0.37 -0.44
 C  5.61  2.63  0.34
 H  1.90  0.93 -2.45
 H  2.00 -0.86 -2.26
 H  3.15  0.01 -3.34
 H  4.69  0.71  0.74
 H  7.00  0.82 -1.28
 H  6.18 -0.66 -0.72
 H  7.14  0.32  0.42
 H  6.10  3.16 -0.49
 H  6.30  2.60  1.19
 H  4.73  3.22  0.63
