14
set: 6945.00  0.00  0.00
 C  0.91  0.09 -0.01
 C  2.40 -0.01 -0.00
 N  3.22  1.01  0.00
 C  4.55  0.61  0.01
 C  5.62  1.66  0.01
 C  4.74 -0.75  0.00
 S  3.22 -1.58 -0.00
 H  0.64  1.15  0.00
 H  0.47 -0.39  0.88
 H  0.48 -0.38 -0.90
 H  6.62  1.20  0.02
 H  5.52  2.31  0.89
 H  5.54  2.30 -0.88
 H  5.68 -1.30  0.01
