18
set: 5656.00  0.00  0.00
 C  2.13 -0.53 -1.45
 N  2.22  0.01 -0.10
 C  3.11  1.17 -0.02
 C  2.51  2.52 -0.43
 O  2.90  3.13  0.83
 C  3.25  1.81  1.38
 C  4.59  1.80  2.07
 H  1.51 -1.44 -1.44
 H  3.12 -0.79 -1.91
 H  1.64  0.20 -2.11
 H  2.57 -0.72  0.53
 H  4.10  1.00 -0.49
 H  1.41  2.49 -0.54
 H  2.96  3.05 -1.29
 H  2.45  1.46  2.06
 H  5.39  2.13  1.39
 H  4.83  0.79  2.43
 H  4.58  2.48  2.94
