13
set: 6446.00  0.00  0.00
 N  0.98  0.06  0.60
 N  2.35 -0.01  0.52
 C  2.97  1.07  0.11
 C  2.25  2.36 -0.24
 O  1.54  2.92  0.87
 C  4.39  1.04  0.04
 C  5.60  1.11 -0.07
 H  0.51  0.61 -0.13
 H  0.60 -0.88  0.66
 H  1.57  2.17 -1.10
 H  2.97  3.12 -0.57
 H  1.08  2.19  1.33
 H  6.67  1.15 -0.15
