15
set: 4535.00  0.00  0.00
 O  2.34  1.67 -0.44
 C  2.59  1.00 -1.60
 O  1.70  0.80 -2.40
 C  4.02  0.50 -1.79
 C  5.09  1.26 -1.04
 C  5.36  0.99  0.44
 C  6.36  0.58 -0.62
 H  3.19  1.73  0.05
 H  4.22  0.49 -2.87
 H  4.02 -0.56 -1.47
 H  5.20  2.31 -1.35
 H  4.79  0.19  0.92
 H  5.61  1.82  1.09
 H  7.30  1.14 -0.68
 H  6.45 -0.49 -0.83
