18
set: 6086.00  0.00  0.00
 N  0.90  0.02  0.20
 C  2.35  0.04  0.01
 C  3.13  1.08  0.87
 C  4.17 -0.02  1.23
 C  5.45  0.02  0.41
 O  6.32  1.09  0.79
 C  3.14 -1.08  0.73
 H  0.50 -0.77 -0.31
 H  0.49  0.86 -0.22
 H  2.67  0.11 -1.05
 H  2.53  1.38  1.74
 H  3.49  1.99  0.35
 H  4.43 -0.08  2.30
 H  5.21  0.07 -0.67
 H  6.03 -0.90  0.58
 H  5.83  1.92  0.68
 H  3.53 -1.91  0.11
 H  2.55 -1.50  1.56
