16
set: 5238.00  0.00  0.00
 C  1.16 -0.19  0.41
 C  2.52 -0.02 -0.26
 C  2.63 -0.84 -1.57
 O  1.69 -0.43 -2.57
 C  2.80  1.48 -0.53
 C  4.18  1.73 -0.93
 N  5.29  1.91 -1.24
 H  1.12  0.33  1.38
 H  0.94 -1.25  0.60
 H  0.35  0.22 -0.21
 H  3.30 -0.41  0.41
 H  2.52 -1.91 -1.33
 H  3.62 -0.69 -2.02
 H  0.82 -0.79 -2.33
 H  2.60  2.07  0.38
 H  2.13  1.84 -1.32
