18
set: 5667.00  0.00  0.00
 C  1.31  0.04 -0.78
 N  2.77  0.01 -0.77
 C  3.34  0.83  0.30
 C  4.85  0.85  0.22
 C  5.57  1.84 -0.70
 C  5.65  1.99  0.80
 O  6.84  1.79  1.52
 H  0.94 -0.53 -1.65
 H  0.88  1.06 -0.83
 H  0.93 -0.44  0.13
 H  3.13  0.35 -1.66
 H  3.02  0.39  1.27
 H  2.96  1.88  0.29
 H  5.31 -0.14  0.30
 H  4.97  2.56 -1.26
 H  6.46  1.48 -1.22
 H  5.09  2.82  1.24
 H  7.23  0.94  1.25
