17
set: 3283.00  0.00  0.00
 C  0.93  0.13  0.19
 C  2.41  0.05 -0.02
 C  3.18 -1.04 -0.20
 C  2.86 -2.49 -0.25
 O  4.54 -0.76 -0.33
 C  4.65  0.69 -0.43
 C  3.31  1.27  0.04
 H  0.46 -0.86  0.15
 H  0.45  0.76 -0.57
 H  0.69  0.57  1.17
 H  3.40 -3.03  0.53
 H  3.16 -2.92 -1.22
 H  1.78 -2.66 -0.11
 H  4.85  0.93 -1.49
 H  5.51  0.99  0.17
 H  2.97  2.09 -0.62
 H  3.35  1.68  1.06
