19
set: 3450.00  0.00  0.00
 C  3.04 -0.91  0.50
 C  2.33  0.44  0.51
 C  3.23  1.59  0.08
 C  3.45  1.85 -1.38
 C  2.63  2.83 -0.55
 O  4.39  1.78  0.87
 C  4.13  2.33  2.16
 H  2.38 -1.72  0.85
 H  3.93 -0.90  1.14
 H  3.38 -1.17 -0.52
 H  1.93  0.65  1.52
 H  1.45  0.42 -0.15
 H  2.93  1.21 -2.10
 H  4.45  2.16 -1.67
 H  3.10  3.78 -0.31
 H  1.55  2.87 -0.70
 H  3.56  1.63  2.80
 H  3.57  3.28  2.09
 H  5.10  2.52  2.62
