17
set: 4059.00  0.00  0.00
 C  0.91  2.13  1.08
 C  2.40  2.30  1.24
 O  3.06  1.66  0.13
 C  4.47  1.80  0.18
 C  5.03  3.11 -0.38
 C  4.18  3.86 -1.38
 O  6.15  3.48 -0.06
 H  0.38  2.59  1.93
 H  0.64  1.06  1.05
 H  0.55  2.60  0.16
 H  2.76  1.85  2.18
 H  2.67  3.38  1.27
 H  4.88  0.99 -0.45
 H  4.87  1.66  1.20
 H  3.89  3.19 -2.21
 H  4.73  4.72 -1.77
 H  3.24  4.19 -0.92
