14
set: 5954.00  0.00  0.00
 C  3.73 -1.04  0.46
 O  2.71 -0.03  0.46
 C  3.12  1.24  0.23
 C  4.38  1.68 -0.01
 C  4.64  3.08 -0.24
 N  5.84  3.49 -0.46
 O  5.85  4.90 -0.66
 H  3.21 -1.99  0.66
 H  4.47 -0.85  1.25
 H  4.24 -1.09 -0.52
 H  2.26  1.92  0.25
 H  5.23  1.01 -0.03
 H  3.80  3.79 -0.22
 H  6.80  5.07 -0.81
