15
set: 4516.00  0.00  0.00
 O  0.92 -0.03  0.04
 C  2.35 -0.14  0.08
 C  2.92  1.28  0.05
 C  4.45  1.33  0.02
 O  4.93  2.67 -0.19
 C  5.05  0.73  1.23
 C  5.53  0.28  2.25
 H  0.55 -0.92  0.10
 H  2.73 -0.70 -0.80
 H  2.69 -0.66  0.99
 H  2.55  1.83  0.93
 H  2.55  1.80 -0.85
 H  4.81  0.77 -0.86
 H  4.80  3.16  0.64
 H  5.96 -0.12  3.14
