18
set: 2593.00  0.00  0.00
 C  1.06 -0.36  0.35
 N  2.41  0.12  0.14
 C  2.88  1.28  0.95
 C  4.28  0.62  1.00
 C  3.54 -0.71  0.65
 C  4.14 -1.66 -0.33
 C  4.38 -2.95 -0.08
 H  0.91 -1.29 -0.22
 H  0.34  0.38 -0.01
 H  0.84 -0.57  1.42
 H  2.41  1.32  1.95
 H  2.78  2.26  0.46
 H  4.93  0.95  0.19
 H  4.82  0.64  1.95
 H  3.26 -1.25  1.58
 H  4.39 -1.23 -1.30
 H  4.13 -3.40  0.89
 H  4.85 -3.60 -0.82
