15
set: 3237.00  0.00  0.00
 C  0.98  0.02  0.07
 C  2.47 -0.01 -0.01
 C  3.26 -1.10 -0.07
 C  4.72 -0.77 -0.15
 C  4.74  0.77 -0.13
 O  5.73  1.47 -0.18
 C  3.29  1.26 -0.04
 H  0.55 -1.00  0.07
 H  0.55  0.57 -0.78
 H  0.64  0.53  0.98
 H  2.88 -2.13 -0.07
 H  5.32 -1.16  0.70
 H  5.22 -1.14 -1.06
 H  3.06  1.91 -0.90
 H  3.16  1.88  0.86
