21
set: 1195.00  0.00  0.00
 C  0.92 -0.02  0.04
 C  2.44  0.00  0.04
 C  3.19  1.07  0.90
 C  4.26  0.00  1.26
 C  5.53  0.09  0.41
 C  3.22 -1.09  0.83
 C  3.67 -2.36  0.11
 H  0.54 -0.90 -0.49
 H  0.51  0.87 -0.44
 H  0.53 -0.05  1.07
 H  2.81  0.04 -1.00
 H  2.59  1.37  1.77
 H  3.54  1.98  0.38
 H  4.54 -0.04  2.32
 H  5.30  0.17 -0.66
 H  6.17 -0.79  0.55
 H  6.11  0.98  0.69
 H  2.63 -1.37  1.72
 H  4.27 -2.13 -0.78
 H  2.81 -2.95 -0.21
 H  4.28 -3.00  0.77
