16
set: 839.00  0.00  0.00
 C  1.21 -0.83  0.41
 C  2.56 -0.23  0.04
 O  3.21 -1.02 -1.00
 C  2.48  1.25 -0.34
 C  3.84  1.89 -0.63
 O  4.48  1.37 -1.80
 H  0.76 -0.31  1.27
 H  1.31 -1.89  0.66
 H  0.50 -0.74 -0.44
 H  3.25 -0.34  0.90
 H  2.57 -1.09 -1.73
 H  2.00  1.80  0.49
 H  1.83  1.37 -1.23
 H  4.49  1.77  0.26
 H  3.72  2.97 -0.79
 H  4.41  0.40 -1.72
