16
set: 5468.00  0.00  0.00
 C  0.99 -0.12 -0.18
 C  2.46 -0.26  0.16
 O  2.96 -1.35  0.41
 C  3.28  1.02  0.16
 C  4.77  0.81  0.25
 C  5.62  0.75 -0.97
 N  5.60  1.98 -0.14
 H  0.53  0.69  0.40
 H  0.47 -1.06  0.00
 H  0.88  0.15 -1.24
 H  2.92  1.63  1.02
 H  3.03  1.63 -0.73
 H  5.10  0.21  1.10
 H  5.16  0.86 -1.95
 H  6.50  0.10 -0.94
 H  6.44  2.01  0.44
