15
set: 3439.00  0.00  0.00
 C  1.01  0.11  0.04
 C  2.52 -0.00  0.01
 O  3.10  1.07  0.79
 C  4.37  0.58  1.16
 O  4.21 -0.83  1.39
 C  3.12 -1.24  0.67
 C  2.71 -2.51  0.59
 H  0.56 -0.70 -0.56
 H  0.69  1.07 -0.39
 H  0.64  0.03  1.07
 H  2.89  0.07 -1.03
 H  5.11  0.72  0.35
 H  4.69  1.07  2.09
 H  1.82 -2.77  0.02
 H  3.26 -3.30  1.10
