17
set: 3097.00  0.00  0.00
 C  1.70 -0.08  0.01
 C  0.82 -1.23  0.54
 C -0.41 -1.53 -0.32
 C -1.50 -0.48 -0.20
 C -1.35  0.82  0.09
 O -0.19  1.55  0.18
 C  0.90  1.06 -0.63
 H  2.40 -0.45 -0.76
 H  2.32  0.32  0.83
 H  1.44 -2.14  0.63
 H  0.48 -0.98  1.55
 H -0.84 -2.49 -0.00
 H -0.12 -1.69 -1.38
 H -2.53 -0.83 -0.27
 H -2.22  1.46  0.28
 H  1.55  1.93 -0.80
 H  0.49  0.74 -1.60
