20
set: 2052.00  0.00  0.00
 C  0.87 -0.02 -0.03
 C  2.38 -0.14 -0.25
 C  3.17  1.05  0.32
 C  4.65  0.97  0.07
 N  5.61  1.81  0.84
 C  5.57  0.34  1.06
 C  6.81 -0.43  0.66
 H  0.34 -0.89 -0.45
 H  0.47  0.88 -0.51
 H  0.63  0.03  1.04
 H  2.60 -0.23 -1.33
 H  2.76 -1.07  0.21
 H  2.99  1.13  1.41
 H  2.78  1.99 -0.12
 H  4.93  0.88 -0.99
 H  5.09  2.28  1.59
 H  5.10 -0.00  1.99
 H  7.23 -0.01 -0.27
 H  6.58 -1.49  0.49
 H  7.59 -0.36  1.43
