17
set: 4466.00  0.00  0.00
 O  1.45 -0.13  0.41
 C  2.74  0.29 -0.09
 C  2.81 -0.13 -1.56
 C  2.71 -1.62 -1.75
 C  3.64 -2.37 -2.36
 C  2.90  1.78  0.08
 C  3.86  2.35  0.82
 H  1.38  0.18  1.33
 H  3.54 -0.23  0.47
 H  3.74  0.25 -2.00
 H  1.97  0.37 -2.09
 H  1.82 -2.09 -1.34
 H  4.54 -1.93 -2.78
 H  3.52 -3.45 -2.47
 H  2.16  2.40 -0.44
 H  4.61  1.75  1.35
 H  3.94  3.43  0.93
