13
set: 6644.00  0.00  0.00
 O  2.39 -1.01  0.45
 C  2.15  0.14  0.11
 C  3.18  1.24  0.02
 C  3.53  1.57 -1.48
 N  3.60  3.04 -1.57
 C  3.09  3.48 -0.48
 N  2.64  2.54  0.45
 H  1.12  0.46 -0.20
 H  4.08  0.95  0.59
 H  2.74  1.21 -2.16
 H  4.48  1.10 -1.79
 H  2.97  4.55 -0.26
 H  2.69  2.78  1.44
