13
set: 6667.00  0.00  0.00
 O  1.78  0.09 -0.88
 C  2.58 -0.05  0.30
 C  3.42  1.19  0.47
 N  3.97  1.89 -0.70
 C  2.86  2.53  0.07
 C  3.18  3.72  0.82
 N  3.42  4.67  1.46
 H  1.28 -0.73 -1.02
 H  3.25 -0.92  0.21
 H  1.95 -0.19  1.20
 H  4.10  1.16  1.32
 H  3.54  1.49 -1.54
 H  1.86  2.53 -0.37
