14
set: 5598.00  0.00  0.00
 C  1.12  0.01  0.17
 N  2.54 -0.00 -0.09
 C  3.34 -1.20 -0.20
 C  4.72 -0.67 -0.46
 C  4.70  0.67 -0.50
 C  3.30  1.15 -0.26
 O  2.88  2.30 -0.21
 H  0.81  1.06  0.20
 H  0.88 -0.46  1.14
 H  0.56 -0.51 -0.62
 H  2.99 -1.86 -1.02
 H  3.31 -1.81  0.73
 H  5.58 -1.32 -0.60
 H  5.52  1.36 -0.67
