13
set: 5612.00  0.00  0.00
 C  0.96  0.02 -0.01
 N  2.41  0.03  0.00
 C  3.26  1.14  0.01
 C  4.52  0.67  0.01
 O  4.51 -0.71  0.01
 C  3.18 -1.13 -0.00
 N  2.89 -2.38 -0.01
 H  0.60  1.05 -0.00
 H  0.57 -0.50  0.88
 H  0.58 -0.48 -0.91
 H  2.88  2.16  0.01
 H  5.49  1.16  0.01
 H  1.88 -2.52 -0.01
