18
set: 6085.00  0.00  0.00
 N  0.99 -0.00  0.10
 C  2.46 -0.01  0.02
 C  2.94 -1.37 -0.51
 C  2.60 -1.52 -2.00
 C  3.13 -0.32 -2.79
 O  2.60  0.91 -2.28
 C  2.95  1.10 -0.92
 H  0.65  0.93  0.35
 H  0.68 -0.64  0.83
 H  2.95  0.18  1.00
 H  2.49 -2.19  0.08
 H  4.03 -1.43 -0.37
 H  3.04 -2.45 -2.41
 H  1.51 -1.58 -2.13
 H  4.24 -0.29 -2.74
 H  2.83 -0.36 -3.84
 H  4.06  1.17 -0.81
 H  2.53  2.08 -0.63
