18
set: 5694.00  0.00  0.00
 C  2.87 -1.24  1.10
 N  2.74  0.17  1.51
 C  3.17  1.11  0.48
 C  2.77  2.54  0.89
 C  4.69  1.09  0.21
 C  5.16  1.46 -1.18
 O  5.48  0.80  1.11
 H  2.56 -1.88  1.94
 H  3.90 -1.54  0.81
 H  2.20 -1.43  0.26
 H  3.33  0.32  2.33
 H  2.65  0.85 -0.46
 H  3.27  2.82  1.83
 H  1.69  2.59  1.04
 H  3.05  3.28  0.12
 H  4.58  2.29 -1.60
 H  4.98  0.59 -1.84
 H  6.23  1.69 -1.18
