16
set: 6239.00  0.00  0.00
 N  2.41 -0.41 -1.50
 C  2.40  0.11 -0.12
 C  3.35  1.32 -0.02
 O  3.48  1.71  1.36
 C  3.22  3.12  1.50
 C  2.78  3.57  0.14
 C  2.86  2.55 -0.72
 H  1.66 -1.09 -1.62
 H  3.28 -0.92 -1.67
 H  2.71 -0.62  0.66
 H  1.38  0.45  0.12
 H  4.34  1.01 -0.41
 H  4.14  3.64  1.83
 H  2.46  3.28  2.28
 H  2.45  4.59 -0.08
 H  2.61  2.56 -1.78
