19
set: 4223.00  0.00  0.00
 C  3.16 -1.12  0.27
 O  4.05 -0.03  0.31
 C  3.45  1.17 -0.17
 C  4.48  2.29 -0.12
 C  3.94  3.63 -0.63
 C  4.96  4.76 -0.47
 O  3.47  3.54 -1.99
 H  3.69 -2.00  0.66
 H  2.81 -1.33 -0.76
 H  2.26 -0.94  0.90
 H  2.57  1.43  0.46
 H  3.08  1.03 -1.21
 H  5.36  2.00 -0.72
 H  4.83  2.41  0.91
 H  3.03  3.89 -0.07
 H  5.88  4.53 -1.02
 H  5.23  4.89  0.59
 H  4.55  5.70 -0.85
 H  4.26  3.38 -2.56
