16
set: 710.00  0.00  0.00
 C  0.93 -0.01  0.07
 C  2.45  0.00  0.01
 O  2.78  0.04 -1.39
 C  3.21  1.08  0.84
 C  4.22 -0.01  1.31
 C  3.23 -1.10  0.79
 H  0.59 -0.04  1.12
 H  0.54 -0.90 -0.45
 H  0.52  0.88 -0.41
 H  3.75  0.05 -1.47
 H  2.60  1.47  1.67
 H  3.60  1.93  0.27
 H  5.16  0.01  0.74
 H  4.46 -0.03  2.38
 H  3.64 -1.91  0.18
 H  2.63 -1.53  1.60
