16
set: 869.00  0.00  0.00
 C  2.11 -0.77 -0.21
 O  3.40 -0.18 -0.15
 C  3.34  1.24  0.02
 C  4.75  1.80  0.12
 C  5.54  1.25  1.31
 O  5.91 -0.12  1.16
 H  2.25 -1.85 -0.34
 H  1.53 -0.37 -1.06
 H  1.54 -0.59  0.72
 H  2.77  1.48  0.94
 H  2.80  1.69 -0.83
 H  4.67  2.90  0.21
 H  5.30  1.59 -0.81
 H  4.96  1.41  2.24
 H  6.49  1.81  1.43
 H  5.11 -0.57  0.82
