19
set: 3490.00  0.00  0.00
 C  2.34 -1.49 -0.46
 C  1.88 -0.11  0.01
 C  3.01  0.79  0.51
 C  3.75  0.29  1.73
 O  3.85  1.32 -0.56
 C  2.97  2.22  0.15
 C  3.60  3.35  0.93
 H  1.50 -2.05 -0.89
 H  2.76 -2.09  0.36
 H  3.11 -1.39 -1.24
 H  1.13 -0.21  0.82
 H  1.37  0.41 -0.82
 H  4.56  0.97  2.02
 H  4.20 -0.69  1.54
 H  3.07  0.18  2.58
 H  2.10  2.54 -0.45
 H  4.46  3.01  1.52
 H  2.87  3.80  1.61
 H  3.95  4.13  0.25
