15
set: 1619.00  0.00  0.00
 C  1.05  1.17 -0.18
 N -0.17  1.45  0.58
 N -1.37  0.87  0.22
 C -1.47 -0.39 -0.01
 C -0.51 -1.54  0.11
 C  0.98 -1.35  0.10
 C  1.65 -0.20 -0.01
 H  1.79  1.93  0.13
 H  0.87  1.33 -1.27
 H -0.33  2.46  0.58
 H -2.50 -0.70 -0.25
 H -0.76 -2.29 -0.67
 H -0.78 -2.06  1.05
 H  1.56 -2.27  0.19
 H  2.75 -0.24 -0.02
