15
set: 7211.00  0.00  0.00
 S  1.42  0.06  1.25
 C  2.76  0.02  0.22
 N  3.31 -1.16 -0.18
 C  4.36 -1.29 -1.20
 C  5.27 -0.06 -1.14
 C  4.42  1.20 -1.23
 N  3.37  1.16 -0.21
 H  2.79 -1.98  0.11
 H  4.93 -2.21 -1.00
 H  3.92 -1.39 -2.21
 H  5.83 -0.07 -0.20
 H  5.99 -0.09 -1.97
 H  5.04  2.09 -1.05
 H  3.99  1.30 -2.24
 H  2.89  2.01  0.06
