21
set: 2516.00  0.00  0.00
 C  1.94  0.30 -1.76
 C  3.22  0.22 -0.93
 N  4.03  1.43 -1.09
 C  5.20  1.51 -0.22
 C  6.34  0.63 -0.73
 C  5.64  2.98 -0.13
 N  4.55  3.82  0.39
 H  1.35 -0.61 -1.65
 H  2.18  0.45 -2.82
 H  1.32  1.15 -1.43
 H  3.82 -0.65 -1.27
 H  2.97  0.02  0.14
 H  3.45  2.25 -0.86
 H  4.95  1.17  0.82
 H  6.63  0.94 -1.75
 H  6.06 -0.43 -0.76
 H  7.22  0.72 -0.08
 H  5.88  3.32 -1.15
 H  6.57  3.03  0.47
 H  4.76  4.81  0.23
 H  4.46  3.69  1.40
