18
set: 1639.00  0.00  0.00
 C  1.06 -0.01  0.05
 C  2.56  0.03 -0.10
 C  3.21  1.10 -1.04
 C  2.89  0.09 -2.16
 N  3.13 -0.99 -1.10
 C  4.59 -0.76 -0.87
 C  4.70  0.81 -0.81
 H  0.73  0.79  0.72
 H  0.75 -0.97  0.50
 H  0.52  0.10 -0.90
 H  3.03 -0.06  0.89
 H  2.88  2.16 -1.06
 H  3.55  0.04 -3.03
 H  1.84  0.07 -2.49
 H  4.90 -1.25  0.07
 H  5.17 -1.20 -1.70
 H  5.34  1.23 -1.60
 H  5.06  1.18  0.16
