17
set: 3238.00  0.00  0.00
 C  0.98  0.02  0.01
 C  2.47 -0.01 -0.03
 C  3.26 -1.10 -0.10
 C  4.73 -0.74 -0.07
 C  4.72  0.78 -0.37
 O  4.96  1.05 -1.76
 C  3.31  1.24  0.07
 H  0.54 -0.98 -0.06
 H  0.58  0.63 -0.81
 H  0.62  0.49  0.95
 H  2.90 -2.13 -0.15
 H  5.16 -0.95  0.93
 H  5.35 -1.28 -0.80
 H  5.53  1.32  0.16
 H  4.27  0.57 -2.26
 H  2.96  2.07 -0.56
 H  3.32  1.62  1.11
