19
set: 2868.00  0.00  0.00
 N  0.95  0.03  0.01
 C  2.42  0.03  0.02
 C  3.01  1.13  0.91
 C  4.45  0.65  1.15
 C  4.32 -0.88  1.37
 N  5.56 -1.57  1.01
 C  3.00 -1.27  0.62
 H  0.61 -0.72 -0.59
 H  0.61  0.90 -0.41
 H  2.85  0.16 -1.00
 H  2.44  1.16  1.85
 H  2.96  2.13  0.45
 H  5.06  0.82  0.25
 H  4.95  1.15  1.99
 H  4.17 -1.06  2.45
 H  5.72 -1.48  0.00
 H  5.47 -2.57  1.21
 H  3.19 -2.04 -0.14
 H  2.25 -1.68  1.32
