19
set: 2356.00  0.00  0.00
 C  2.02 -0.01  0.63
 C  2.77 -0.10 -0.70
 C  2.13 -1.11 -1.66
 N  2.20 -2.48 -1.12
 C  2.86  1.26 -1.36
 C  3.97  2.22 -1.07
 N  3.96  1.46 -2.34
 H  2.54  0.63  1.35
 H  1.91 -1.01  1.07
 H  1.00  0.40  0.48
 H  3.81 -0.43 -0.51
 H  2.62 -1.00 -2.65
 H  1.07 -0.86 -1.80
 H  3.17 -2.81 -1.15
 H  1.67 -3.12 -1.72
 H  1.89  1.72 -1.61
 H  4.76  1.92 -0.37
 H  3.75  3.29 -1.09
 H  3.64  2.07 -3.10
