14
set: 7114.00  0.00  0.00
 C  3.28 -0.86 -1.65
 S  3.13 -0.09 -0.03
 O  1.70 -0.15  0.34
 O  4.16 -0.70  0.83
 C  3.54  1.59 -0.30
 C  4.72  2.07  0.18
 N  5.19  3.34  0.07
 H  4.32 -0.80 -1.98
 H  2.60 -0.35 -2.35
 H  2.97 -1.90 -1.52
 H  2.77  2.20 -0.79
 H  5.38  1.36  0.69
 H  4.55  4.08 -0.21
 H  5.94  3.63  0.69
