13
set: 4837.00  0.00  0.00
 C  1.12 -0.04  0.30
 C  2.38  0.01 -0.13
 N  3.15  1.14 -0.44
 C  4.43  0.83 -0.86
 N  5.30  1.71 -1.19
 C  4.46 -0.69 -0.81
 O  3.16 -1.10 -0.35
 H  0.65 -1.00  0.50
 H  0.55  0.87  0.46
 H  2.81  2.09 -0.36
 H  6.18  1.25 -1.48
 H  4.65 -1.12 -1.81
 H  5.23 -1.05 -0.11
