14
set: 6808.00  0.00  0.00
 O  1.90  0.33  1.18
 C  2.30  1.14  1.98
 O  3.50  1.77  1.95
 C  4.35  1.43  0.83
 C  5.68  2.21  0.80
 N  6.43  0.93  0.54
 C  5.20  0.15  0.91
 H  1.74  1.48  2.87
 H  3.77  1.50 -0.09
 H  5.95  2.61  1.79
 H  5.78  3.00  0.04
 H  6.59  0.83 -0.47
 H  4.91 -0.67  0.24
 H  5.28 -0.23  1.94
