14
set: 6411.00  0.00  0.00
 N  1.73 -1.73  0.27
 C  2.17 -0.61  0.92
 O  1.68 -0.21  1.98
 C  3.32  0.13  0.23
 C  4.70 -0.42  0.60
 C  5.11 -1.70 -0.09
 O  4.43 -2.31 -0.90
 H  2.32 -2.14 -0.45
 H  1.07 -2.32  0.76
 H  3.25  1.18  0.56
 H  3.20  0.10 -0.86
 H  4.80 -0.59  1.69
 H  5.50  0.31  0.37
 H  6.14 -2.06  0.18
