15
set: 3413.00  0.00  0.00
 C  0.97 -0.00  0.02
 C  2.48 -0.04 -0.10
 O  2.85 -1.19 -0.94
 C  3.32 -0.67 -2.11
 C  3.43  0.67 -2.15
 C  3.09  1.21 -0.79
 O  4.23  1.76 -0.10
 H  0.66  0.81  0.70
 H  0.59 -0.95  0.43
 H  0.50  0.17 -0.96
 H  2.96 -0.19  0.88
 H  3.55 -1.42 -2.87
 H  3.78  1.26 -2.99
 H  2.36  2.04 -0.81
 H  4.99  1.21 -0.35
