13
set: 3295.00  0.00  0.00
 C  0.98 -0.04 -0.01
 C  2.46  0.11  0.00
 C  3.30  1.19  0.00
 C  4.64  0.67  0.01
 O  5.82  1.36  0.02
 C  4.53 -0.69  0.01
 O  3.20 -1.05  0.01
 H  0.51  0.95 -0.00
 H  0.63 -0.59  0.87
 H  0.64 -0.58 -0.90
 H  3.00  2.24  0.00
 H  5.62  2.31  0.02
 H  5.25 -1.50  0.02
