17
set: 3142.00  0.00  0.00
 C  1.45  0.44 -0.07
 C  2.80 -0.21  0.04
 C  2.94 -1.72  0.06
 C  4.46 -1.98 -0.06
 C  5.03 -0.75 -0.81
 C  4.06  0.36 -0.47
 O  3.75  0.44  0.95
 H  1.54  1.53 -0.11
 H  0.82  0.18  0.79
 H  0.93  0.10 -0.98
 H  2.40 -2.13 -0.82
 H  2.50 -2.18  0.96
 H  4.90 -2.02  0.95
 H  4.70 -2.92 -0.56
 H  6.07 -0.52 -0.53
 H  5.01 -0.90 -1.91
 H  4.10  1.33 -0.99
