19
set: 3206.00  0.00  0.00
 C  0.92 -0.02  0.03
 C  2.44  0.01  0.04
 C  3.19  1.06  0.92
 C  4.26 -0.01  1.26
 C  5.51  0.05  0.38
 C  3.21 -1.09  0.81
 O  3.62 -2.28  0.16
 H  0.55 -0.91 -0.51
 H  0.50  0.87 -0.47
 H  0.52 -0.05  1.05
 H  2.82  0.06 -0.99
 H  2.60  1.35  1.80
 H  3.54  1.97  0.42
 H  4.56 -0.08  2.32
 H  5.27  0.17 -0.68
 H  6.13 -0.85  0.50
 H  6.13  0.92  0.66
 H  2.63 -1.42  1.68
 H  4.16 -2.02 -0.61
