17
set: 1252.00  0.00  0.00
 C  0.87 -0.02  0.15
 C  2.40 -0.00 -0.00
 C  3.18  1.08  0.83
 C  4.22 -0.01  1.22
 C  3.20 -1.09  0.80
 C  2.78  0.02 -1.41
 C  3.10  0.04 -2.58
 H  0.60 -0.04  1.21
 H  0.44 -0.91 -0.34
 H  0.43  0.87 -0.32
 H  2.58  1.40  1.69
 H  3.53  1.96  0.29
 H  5.09  0.01  0.55
 H  4.57 -0.02  2.26
 H  3.57 -1.96  0.23
 H  2.60 -1.45  1.65
 H  3.38  0.05 -3.62
