18
set: 493.00  0.00  0.00
 C  1.20 -0.33  0.93
 C  2.65 -0.34  0.44
 C  3.30  1.05  0.33
 N  3.33  1.83  1.59
 C  4.73  0.97 -0.21
 N  5.65  0.40  0.79
 H  0.78 -1.34  0.96
 H  0.56  0.27  0.26
 H  1.12  0.10  1.94
 H  2.69 -0.82 -0.55
 H  3.27 -0.96  1.11
 H  2.71  1.65 -0.39
 H  3.70  1.22  2.33
 H  2.38  2.07  1.88
 H  5.03  1.98 -0.55
 H  4.74  0.31 -1.10
 H  5.92  1.14  1.45
 H  6.51  0.09  0.34
