15
set: 2848.00  0.00  0.00
 N  0.99  0.01  0.02
 C  2.46 -0.03 -0.02
 C  3.07  1.29  0.42
 C  3.74  1.18  1.58
 C  3.75 -0.23  2.06
 N  4.43 -1.23  1.18
 C  2.98 -1.02  1.04
 H  0.61 -0.74 -0.57
 H  0.65  0.89 -0.38
 H  2.86 -0.31 -1.02
 H  3.01  2.19 -0.19
 H  4.26  1.99  2.09
 H  3.77 -0.47  3.13
 H  4.93 -0.71  0.44
 H  2.35 -1.87  1.31
