17
set: 1385.00  0.00  0.00
 C  0.80 -0.25  0.27
 C  2.29 -0.09  0.21
 C  2.99  1.02 -0.07
 C  2.40  2.37 -0.39
 C  4.51  0.97 -0.05
 C  5.13  1.30 -1.33
 C  5.63  1.58 -2.40
 H  0.46 -1.02 -0.45
 H  0.25  0.67  0.05
 H  0.48 -0.60  1.26
 H  2.86 -1.00  0.42
 H  1.31  2.36 -0.42
 H  2.77  2.72 -1.37
 H  2.72  3.12  0.35
 H  4.85 -0.03  0.27
 H  4.89  1.68  0.71
 H  6.08  1.82 -3.35
