15
set: 3621.00  0.00  0.00
 C  0.99  0.01  0.20
 C  2.49 -0.06  0.04
 C  3.15 -1.24 -0.10
 C  3.19  1.18  0.04
 C  3.73  2.28  0.06
 C  4.38  3.58  0.03
 O  3.68  4.56 -0.75
 H  0.73  0.50  1.15
 H  0.54 -0.99  0.18
 H  0.54  0.62 -0.60
 H  2.61 -2.18 -0.08
 H  4.23 -1.27 -0.21
 H  5.42  3.46 -0.32
 H  4.42  4.00  1.05
 H  3.48  4.14 -1.61
