13
set: 2911.00  0.00  0.00
 N  0.97  0.07  0.00
 C  2.13 -0.00 -0.02
 C  3.55 -0.02 -0.05
 C  4.35 -1.11 -0.11
 C  5.79 -0.68 -0.05
 N  5.78  0.78 -0.24
 C  4.41  1.24  0.06
 H  4.00 -2.14 -0.12
 H  6.22 -0.94  0.94
 H  6.42 -1.18 -0.80
 H  5.96  0.97 -1.23
 H  4.09  2.04 -0.63
 H  4.34  1.64  1.08
