15
set: 3271.00  0.00  0.00
 C  0.87 -0.02  0.13
 C  2.39  0.04 -0.04
 C  2.82  0.04 -1.51
 C  3.13  1.05  0.87
 O  3.78 -0.06  1.60
 C  3.14 -1.00  0.81
 O  3.24 -2.19  0.88
 H  0.58 -0.02  1.19
 H  0.48 -0.94 -0.33
 H  0.40  0.84 -0.37
 H  3.91  0.09 -1.62
 H  2.38  0.90 -2.04
 H  2.47 -0.88 -2.01
 H  2.50  1.64  1.55
 H  3.88  1.68  0.38
