15
set: 3508.00  0.00  0.00
 C  2.53 -0.29  1.60
 C  2.67  0.01  0.10
 C  3.12  1.40 -0.19
 C  4.20  1.91 -0.80
 O  4.10  3.30 -0.91
 C  3.06  3.62  0.02
 O  2.24  2.45  0.15
 H  2.16 -1.32  1.75
 H  1.81  0.40  2.07
 H  3.49 -0.19  2.11
 H  1.70 -0.15 -0.41
 H  3.39 -0.68 -0.37
 H  5.05  1.43 -1.27
 H  2.46  4.45 -0.37
 H  3.51  3.86  1.00
