17
set: 5168.00  0.00  0.00
 C  0.93 -0.46  0.11
 C  2.40 -0.45 -0.34
 C  2.93 -1.85 -0.61
 N  2.60  0.39 -1.53
 C  2.70  1.77 -1.40
 N  2.64  2.46 -2.62
 O  2.82  2.35 -0.32
 H  0.58  0.56  0.31
 H  0.81 -1.05  1.03
 H  0.29 -0.91 -0.67
 H  3.00  0.03  0.45
 H  2.37 -2.34 -1.42
 H  2.83 -2.48  0.29
 H  3.99 -1.82 -0.89
 H  2.17  0.05 -2.38
 H  3.05  1.99 -3.42
 H  2.96  3.42 -2.51
