20
set: 2264.00  0.00  0.00
 C  0.87 -0.49  0.50
 C  2.30 -0.31 -0.03
 C  2.76 -1.54 -0.82
 C  2.46  1.03 -0.84
 N  3.85  1.41 -1.11
 C  1.64  1.04 -2.11
 C  2.06  1.46 -3.30
 H  0.53  0.40  1.04
 H  0.83 -1.35  1.20
 H  0.15 -0.70 -0.31
 H  2.96 -0.20  0.84
 H  2.12 -1.71 -1.70
 H  2.71 -2.44 -0.20
 H  3.80 -1.44 -1.17
 H  2.04  1.82 -0.18
 H  4.30  0.70 -1.69
 H  4.38  1.44 -0.23
 H  0.62  0.67 -2.01
 H  3.07  1.87 -3.44
 H  1.40  1.44 -4.17
