15
set: 3396.00  0.00  0.00
 C  0.99  0.09  0.17
 C  2.47 -0.11 -0.06
 O  3.29  0.96  0.51
 C  4.11  0.00  1.24
 C  3.22 -1.17  0.82
 C  3.84 -2.31  0.06
 O  5.04 -2.47 -0.12
 H  0.42 -0.76 -0.24
 H  0.65  1.00 -0.34
 H  0.77  0.19  1.24
 H  2.69 -0.23 -1.14
 H  5.14 -0.05  0.84
 H  4.14  0.23  2.32
 H  2.57 -1.58  1.61
 H  3.10 -3.04 -0.37
