17
set: 3397.00  0.00  0.00
 C  0.98  0.33  0.43
 C  2.21 -0.21 -0.26
 O  1.83 -1.35 -1.06
 C  2.82 -1.53 -2.08
 C  3.33 -0.14 -2.41
 C  2.26  0.92 -2.57
 C  2.93  0.72 -1.23
 H  1.25  1.17  1.09
 H  0.50 -0.45  1.04
 H  0.25  0.69 -0.31
 H  2.95 -0.54  0.51
 H  3.66 -2.16 -1.71
 H  2.34 -2.06 -2.91
 H  4.29 -0.03 -2.90
 H  2.53  1.82 -3.13
 H  1.23  0.59 -2.69
 H  3.59  1.48 -0.83
