18
set: 1831.00  0.00  0.00
 C  0.93  0.05 -0.01
 C  2.48  0.02  0.00
 C  3.02  0.10 -1.43
 N  2.95 -1.24  0.66
 C  3.42 -0.89  2.03
 C  3.53  0.62  2.03
 C  3.01  1.12  0.90
 H  0.54 -0.09  1.00
 H  0.55 -0.76 -0.65
 H  0.56  1.01 -0.40
 H  4.12  0.15 -1.43
 H  2.64  1.00 -1.95
 H  2.70 -0.78 -2.01
 H  3.75 -1.58  0.14
 H  4.37 -1.39  2.26
 H  2.69 -1.22  2.79
 H  3.92  1.19  2.87
 H  2.91  2.18  0.66
