14
set: 2545.00  0.00  0.00
 C  0.91  0.16  0.68
 C  2.26 -0.18  0.04
 N  2.09 -0.86 -1.25
 C  3.02 -1.79 -1.70
 N  3.19 -2.25 -2.89
 C  3.10  1.03 -0.10
 N  3.74  2.00 -0.23
 H  1.06  0.66  1.65
 H  0.34 -0.76  0.83
 H  0.34  0.84  0.04
 H  2.81 -0.88  0.70
 H  1.61 -0.32 -1.96
 H  3.63 -2.21 -0.89
 H  2.57 -1.79 -3.57
