17
set: 3864.00  0.00  0.00
 C  0.54  0.79  0.32
 C  2.03  0.76  0.44
 C  2.83  1.73 -0.01
 O  4.20  1.67  0.13
 C  4.93  2.72 -0.37
 C  6.27  2.76 -0.27
 C  7.10  3.88 -0.80
 H  0.16 -0.06 -0.27
 H  0.20  1.71 -0.17
 H  0.06  0.74  1.30
 H  2.49 -0.11  0.91
 H  2.45  2.64 -0.49
 H  4.35  3.51 -0.86
 H  6.77  1.93  0.24
 H  6.48  4.65 -1.28
 H  7.83  3.53 -1.54
 H  7.68  4.37  0.00
