18
set: 1539.00  0.00  0.00
 C  1.11  0.08  0.10
 C  0.71  0.57  1.48
 C -0.40 -0.11  2.24
 C  1.03 -0.24  2.71
 C  2.52  0.47 -0.29
 C  3.70 -0.39 -0.01
 N  3.15 -0.31 -1.38
 H  1.03 -1.02  0.05
 H  0.41  0.48 -0.65
 H  0.77  1.66  1.61
 H -0.86 -0.98  1.77
 H -1.08  0.50  2.82
 H  1.32  0.28  3.62
 H  1.52 -1.21  2.57
 H  2.72  1.55 -0.28
 H  3.55 -1.36  0.49
 H  4.66  0.09  0.21
 H  3.74  0.29 -1.95
