17
set: 3633.00  0.00  0.00
 C  0.82  0.16  0.14
 C  2.28 -0.22  0.03
 C  2.54 -1.70  0.11
 C  3.22  0.72 -0.15
 C  4.71  0.53 -0.26
 C  5.38  0.94  1.05
 O  6.16  1.86  1.17
 H  0.68  1.25  0.09
 H  0.39 -0.20  1.09
 H  0.23 -0.31 -0.66
 H  1.95 -2.24 -0.65
 H  2.23 -2.10  1.09
 H  3.60 -1.97 -0.03
 H  2.89  1.77 -0.18
 H  5.13  1.15 -1.07
 H  4.97 -0.52 -0.45
 H  5.07  0.32  1.93
