19
set: 1179.00  0.00  0.00
 C  1.89  0.13 -0.72
 C  1.85 -0.13  0.77
 C  0.56  0.01 -0.02
 C -0.35  1.23  0.20
 C -1.77  0.73 -0.16
 C -1.73 -0.76  0.22
 C -0.34 -1.21 -0.27
 H  2.21  1.12 -1.06
 H  2.20 -0.69 -1.37
 H  2.13 -1.12  1.12
 H  2.12  0.69  1.44
 H -0.32  1.53  1.26
 H -0.04  2.10 -0.40
 H -2.56  1.29  0.35
 H -1.94  0.83 -1.24
 H -2.55 -1.34 -0.23
 H -1.80 -0.87  1.31
 H -0.39 -1.42 -1.36
 H  0.02 -2.12  0.23
