14
set: 638.00  0.00  0.00
 N  2.59 -1.11 -0.71
 C  2.22  0.21 -0.45
 N  1.03  0.62 -0.18
 C  3.36  1.17 -0.46
 C  3.15  2.53 -1.10
 C  3.27  2.42  0.39
 H  3.45 -1.25 -1.24
 H  1.84 -1.75 -0.97
 H  0.34 -0.14 -0.23
 H  4.35  0.72 -0.56
 H  2.16  2.71 -1.51
 H  3.99  2.95 -1.66
 H  4.18  2.76  0.88
 H  2.34  2.52  0.96
