15
set: 6677.00  0.00  0.00
 O  1.74 -0.36  1.05
 C  2.46 -0.01 -0.14
 C  3.02  1.38 -0.12
 N  4.02  1.76 -0.86
 C  4.22  3.19 -0.54
 C  2.97  3.64  0.25
 N  2.47  2.34  0.73
 H  2.38 -0.35  1.79
 H  1.72 -0.09 -0.96
 H  3.28 -0.72 -0.36
 H  5.14  3.29  0.07
 H  4.38  3.78 -1.46
 H  2.22  4.13 -0.40
 H  3.20  4.32  1.09
 H  1.49  2.23  0.99
