15
set: 3739.00  0.00  0.00
 C  0.38  0.43 -0.08
 C  1.81  0.08  0.15
 C  2.85  0.91  0.03
 C  4.25  0.47  0.28
 O  4.52 -0.69  0.61
 C  5.30  1.51  0.11
 C  6.60  1.24  0.30
 H -0.06 -0.22 -0.87
 H  0.25  1.47 -0.38
 H -0.22  0.24  0.83
 H  2.04 -0.96  0.45
 H  2.69  1.96 -0.27
 H  4.98  2.52 -0.18
 H  6.90  0.23  0.60
 H  7.37  2.00  0.18
