17
set: 5356.00  0.00  0.00
 C  0.74 -0.50 -0.29
 C  2.21 -0.13 -0.06
 N  3.18 -1.02 -0.72
 C  2.51  1.32 -0.51
 C  1.78  2.36  0.28
 N  0.98  3.16 -0.30
 O  0.40  4.07  0.63
 H  0.06  0.18  0.25
 H  0.54 -1.52  0.06
 H  0.49 -0.45 -1.36
 H  2.42 -0.19  1.03
 H  2.99 -1.03 -1.73
 H  3.02 -1.98 -0.40
 H  2.26  1.44 -1.57
 H  3.60  1.47 -0.40
 H  1.95  2.42  1.37
 H -0.17  4.61  0.05
