18
set: 4703.00  0.00  0.00
 C  0.95  0.06 -0.10
 C  2.45 -0.03  0.05
 C  3.34 -0.78 -0.97
 N  2.88 -1.42 -2.18
 C  3.42  0.72 -0.83
 C  2.94  1.65 -1.93
 O  4.54  1.24 -0.12
 H  0.56  1.01  0.30
 H  0.46 -0.76  0.45
 H  0.63 -0.02 -1.15
 H  2.81 -0.12  1.08
 H  4.18 -1.31 -0.51
 H  2.33 -0.78 -2.76
 H  2.28 -2.22 -1.97
 H  2.01  1.31 -2.40
 H  3.70  1.75 -2.72
 H  2.75  2.65 -1.51
 H  5.31  1.18 -0.72
