16
set: 1683.00  0.00  0.00
 C  1.20 -0.29 -0.05
 C  2.64  0.23 -0.02
 C  2.86  1.50  0.78
 C  3.89  1.34  1.64
 C  4.41 -0.05  1.56
 C  3.42 -1.10  1.97
 N  3.60 -0.77  0.54
 H  1.15 -1.23 -0.61
 H  0.54  0.44 -0.54
 H  0.81 -0.47  0.96
 H  2.95  0.40 -1.07
 H  2.25  2.39  0.67
 H  4.28  2.10  2.31
 H  5.48 -0.25  1.60
 H  3.76 -2.10  2.23
 H  2.53 -0.74  2.50
