14
set: 2699.00  0.00  0.00
 C  1.00 -0.01 -0.05
 N  2.45 -0.00  0.10
 C  3.00  1.36  0.02
 C  4.45  1.36  0.03
 C  5.68  1.38  0.01
 C  7.04  1.39 -0.02
 C  8.26  1.41 -0.04
 H  0.64 -1.04 -0.05
 H  0.63  0.50 -0.96
 H  0.54  0.50  0.82
 H  2.88 -0.57 -0.63
 H  2.63  1.93  0.90
 H  2.65  1.92 -0.87
 H  9.33  1.42 -0.05
