17
set: 1231.00  0.00  0.00
 C  0.41  1.43  0.77
 C  1.37  0.46  0.02
 C  0.40 -0.38 -0.88
 C -0.64  0.71 -1.26
 C -1.00  1.02  0.22
 C -1.26 -0.38  0.74
 C -0.43 -1.22  0.08
 H  0.63  2.48  0.53
 H  0.46  1.32  1.86
 H  1.96 -0.18  0.69
 H  2.08  1.02 -0.61
 H  0.89 -0.92 -1.70
 H -0.20  1.56 -1.79
 H -1.49  0.30 -1.82
 H -1.79  1.76  0.39
 H -1.91 -0.63  1.58
 H -0.26 -2.28  0.29
