17
set: 3997.00  0.00  0.00
 C  0.93 -0.07  0.05
 C  2.46 -0.02  0.03
 O  2.98 -0.78 -1.06
 C  3.02  1.44  0.02
 C  2.52  2.28  1.22
 C  4.48  1.44 -0.04
 C  5.69  1.47 -0.04
 H  0.52  0.35  0.98
 H  0.61 -1.11 -0.03
 H  0.51  0.49 -0.80
 H  2.86 -0.52  0.93
 H  2.67 -0.37 -1.89
 H  2.64  1.92 -0.91
 H  2.80  1.79  2.17
 H  1.44  2.41  1.19
 H  2.99  3.27  1.20
 H  6.76  1.47 -0.05
