16
set: 769.00  0.00  0.00
 C  1.26 -0.37  0.16
 C  2.79 -0.39  0.03
 C  3.39  1.02  0.04
 C  4.91  1.05 -0.08
 C  5.55  2.43 -0.11
 O  5.58  0.03 -0.16
 H  0.85 -1.39  0.15
 H  0.80  0.18 -0.67
 H  0.94  0.11  1.10
 H  3.09 -0.90 -0.90
 H  3.23 -0.97  0.85
 H  3.12  1.56  0.97
 H  2.97  1.63 -0.77
 H  5.16  3.02 -0.95
 H  6.64  2.33 -0.20
 H  5.31  2.98  0.81
