20
set: 5231.00  0.00  0.00
 C  1.03  0.14  0.05
 C  2.50 -0.12 -0.23
 C  2.71 -1.10 -1.39
 O  3.09  1.17 -0.50
 C  4.52  1.18 -0.45
 C  4.98  2.63 -0.45
 N  4.55  3.30  0.78
 H  0.91  0.83  0.89
 H  0.52 -0.81  0.30
 H  0.54  0.57 -0.83
 H  2.98 -0.53  0.68
 H  2.27 -0.70 -2.31
 H  2.23 -2.06 -1.16
 H  3.78 -1.29 -1.57
 H  4.95  0.66 -1.33
 H  4.87  0.68  0.47
 H  4.61  3.11 -1.38
 H  6.08  2.64 -0.49
 H  3.53  3.28  0.82
 H  4.82  4.28  0.76
