14
set: 729.00  0.00  0.00
 C  0.86 -0.09 -0.57
 C  2.28  0.04 -0.09
 C  3.02 -0.99  0.33
 C  2.83  1.42 -0.14
 C  3.08  2.21  1.09
 O  4.17  1.65  0.34
 H  0.75  0.24 -1.61
 H  0.18  0.53  0.03
 H  0.51 -1.13 -0.50
 H  2.62 -2.01  0.37
 H  4.06 -0.84  0.65
 H  2.58  2.00 -1.04
 H  2.89  1.73  2.06
 H  3.00  3.30  1.06
