16
set: 2437.00  0.00  0.00
 C  2.33 -0.50 -1.42
 C  2.49  0.03  0.00
 N  3.01  1.40  0.06
 C  2.25  2.55 -0.00
 C  3.11  3.63 -0.03
 C  4.44  3.12  0.00
 C  4.35  1.74  0.05
 H  1.94 -1.52 -1.40
 H  3.29 -0.51 -1.95
 H  1.63  0.13 -1.99
 H  3.18 -0.61  0.58
 H  1.53  0.02  0.53
 H  1.17  2.49 -0.01
 H  2.81  4.68 -0.07
 H  5.36  3.70  0.00
 H  5.12  0.98  0.10
