13
set: 3504.00  0.00  0.00
 C  1.18 -0.18 -0.60
 C  2.49 -0.02 -0.31
 C  3.17  1.23 -0.25
 C  4.46  1.53  0.03
 O  4.70  2.88 -0.03
 C  3.43  3.48 -0.39
 O  2.48  2.42 -0.52
 H  0.72 -1.17 -0.62
 H  0.55  0.68 -0.83
 H  3.11 -0.89 -0.08
 H  5.30  0.89  0.29
 H  3.54  4.01 -1.35
 H  3.12  4.16  0.42
