15
set: 1616.00  0.00  0.00
 C  2.13 -0.18  0.01
 C  0.77 -0.84  0.15
 C -0.44 -1.39 -0.56
 N -1.58 -0.51 -0.15
 C -1.35  0.65  0.37
 N -0.11  1.30  0.60
 C  0.86  0.63 -0.21
 H  2.73 -0.28 -0.90
 H  2.70 -0.12  0.93
 H  0.57 -0.91  1.23
 H -0.71 -2.42 -0.25
 H -0.36 -1.39 -1.66
 H -2.22  1.24  0.70
 H -0.16  2.32  0.58
 H  0.70  0.79 -1.29
