14
set: 6738.00  0.00  0.00
 O  2.57 -0.39 -1.57
 C  2.13  0.05 -0.27
 C  2.68  1.43  0.01
 C  1.86  2.48  0.21
 N  4.08  1.56  0.12
 C  5.05  0.60 -0.05
 O  6.25  0.84  0.11
 H  2.19 -1.27 -1.72
 H  2.47 -0.65  0.52
 H  1.03  0.12 -0.22
 H  0.79  2.36  0.12
 H  2.25  3.47  0.45
 H  4.44  2.49  0.35
 H  4.66 -0.39 -0.36
