14
set: 5511.00  0.00  0.00
 C  1.63 -0.47 -1.01
 C  1.64  0.69 -0.03
 O  0.70  0.90  0.73
 C  2.82  1.62 -0.02
 C  2.82  2.80  0.90
 N  3.78  1.29 -0.83
 O  4.85  2.20 -0.75
 H  1.54 -0.09 -2.03
 H  0.78 -1.12 -0.78
 H  2.58 -1.03 -0.97
 H  1.90  2.81  1.49
 H  2.90  3.73  0.31
 H  3.70  2.77  1.56
 H  5.48  1.83 -1.40
