13
set: 2526.00  0.00  0.00
 C  0.80  0.06  0.07
 C  2.15  0.02  0.02
 N  2.95 -1.14 -0.02
 C  2.51 -2.45 -0.01
 N  3.22 -3.52 -0.04
 C  2.92  1.23  0.01
 C  3.61  2.23 -0.01
 H  0.30  1.03  0.10
 H  0.18 -0.83  0.08
 H  3.96 -0.98 -0.06
 H  1.42 -2.55  0.03
 H  4.23 -3.31 -0.08
 H  4.19  3.13 -0.02
