15
set: 7030.00  0.00  0.00
 C  0.51 -0.59 -0.20
 C  2.01 -0.45 -0.27
 C  2.81 -1.52 -0.46
 N  2.60  0.84 -0.22
 C  2.14  2.09  0.13
 N  0.91  2.19  0.73
 S  3.08  3.44 -0.20
 H -0.00  0.16 -0.82
 H  0.13 -0.51  0.83
 H  0.24 -1.59 -0.56
 H  2.38 -2.51 -0.58
 H  3.90 -1.42 -0.52
 H  3.55  0.89 -0.57
 H  0.55  1.42  1.28
 H  0.72  3.12  1.09
