14
set: 4993.00  0.00  0.00
 C  1.00 -0.03 -0.09
 C  2.52  0.13  0.08
 C  2.95  1.55  0.04
 N  3.49  2.20  1.01
 O  3.62  3.56  0.54
 C  3.44  3.50 -0.87
 O  2.71  2.28 -1.11
 H  0.73 -1.10 -0.05
 H  0.66  0.37 -1.05
 H  0.46  0.48  0.71
 H  3.05 -0.42 -0.71
 H  2.85 -0.28  1.05
 H  4.42  3.43 -1.40
 H  2.85  4.36 -1.22
