18
set: 4973.00  0.00  0.00
 C  2.74 -1.34 -0.31
 C  2.22 -0.01  0.24
 C  3.25  1.11  0.23
 N  4.40  1.00  1.11
 C  3.52  1.84 -1.08
 C  2.81  2.55  0.06
 O  3.48  3.53  0.80
 H  1.96 -2.11 -0.30
 H  3.59 -1.72  0.27
 H  3.08 -1.23 -1.36
 H  1.86 -0.15  1.28
 H  1.34  0.31 -0.34
 H  4.12  0.62  2.02
 H  5.11  0.37  0.73
 H  2.95  1.54 -1.96
 H  4.54  2.16 -1.27
 H  1.74  2.76 -0.04
 H  4.23  3.04  1.21
