17
set: 5776.00  0.00  0.00
 C  1.06  0.09 -0.40
 N  2.45  0.28 -0.82
 C  3.03  1.54 -0.36
 C  4.56  1.60 -0.46
 O  5.17  2.67 -0.41
 N  5.14  0.37 -0.58
 C  6.58  0.18 -0.64
 H  0.67 -0.85 -0.82
 H  0.38  0.91 -0.69
 H  1.03 -0.01  0.70
 H  2.48  0.26 -1.85
 H  2.78  1.66  0.71
 H  2.64  2.44 -0.87
 H  4.49 -0.42 -0.58
 H  7.04  1.18 -0.68
 H  6.87 -0.38 -1.54
 H  6.95 -0.35  0.25
