19
set: 2616.00  0.00  0.00
 C  1.17 -0.07 -0.20
 N  2.57 -0.12  0.16
 C  3.04  1.06  0.89
 C  4.42  0.64  1.43
 C  4.40 -0.92  1.42
 N  5.40 -1.42  0.47
 C  2.93 -1.23  1.05
 H  0.88 -0.99 -0.73
 H  0.98  0.78 -0.87
 H  0.50  0.04  0.69
 H  2.35  1.31  1.73
 H  3.09  1.93  0.22
 H  5.24  0.98  0.79
 H  4.60  1.04  2.44
 H  4.65 -1.33  2.41
 H  5.13 -1.13 -0.47
 H  5.39 -2.45  0.47
 H  2.81 -2.20  0.55
 H  2.29 -1.23  1.97
