16
set: 723.00  0.00  0.00
 C  3.13 -1.25 -0.34
 C  2.44 -0.02  0.25
 C  3.40  1.13  0.48
 O  3.83  1.86 -0.69
 C  3.03  2.54  0.30
 C  3.69  3.66  1.06
 H  2.42 -2.07 -0.50
 H  3.92 -1.62  0.34
 H  3.60 -1.01 -1.30
 H  1.96 -0.27  1.21
 H  1.64  0.33 -0.43
 H  4.22  0.91  1.18
 H  2.00  2.74 -0.03
 H  4.70  3.37  1.38
 H  3.10  3.92  1.95
 H  3.77  4.56  0.43
