16
set: 4818.00  0.00  0.00
 C  0.97 -0.23  0.28
 C  2.44  0.06 -0.03
 N  3.22  0.92  0.92
 C  2.54  1.82  1.83
 C  3.95 -0.23  1.50
 C  3.38 -1.09  0.37
 O  3.57 -2.21 -0.04
 H  0.59 -0.98 -0.42
 H  0.35  0.67  0.17
 H  0.82 -0.62  1.30
 H  2.54  0.40 -1.08
 H  1.96  2.56  1.26
 H  3.28  2.36  2.43
 H  1.85  1.31  2.54
 H  5.05 -0.13  1.56
 H  3.57 -0.58  2.49
