16
set: 2139.00  0.00  0.00
 C  1.08 -0.15  0.27
 C  2.56  0.03 -0.12
 C  2.90 -0.75 -1.39
 C  2.92  1.51 -0.21
 C  3.34  2.15 -1.31
 C  2.77  2.25  1.01
 N  2.65  2.81  2.03
 H  0.84  0.39  1.20
 H  0.85 -1.21  0.43
 H  0.42  0.23 -0.53
 H  3.17 -0.38  0.71
 H  2.29 -0.41 -2.24
 H  2.68 -1.82 -1.24
 H  3.96 -0.66 -1.65
 H  3.47  1.63 -2.26
 H  3.56  3.22 -1.29
