17
set: 1327.00  0.00  0.00
 C  1.02 -0.07  0.29
 C  2.43  0.09 -0.21
 C  3.13  1.23 -0.22
 C  4.57  1.36 -0.74
 C  4.88  2.82 -0.54
 C  3.85  3.49  0.00
 C  2.66  2.59  0.27
 H  0.96 -0.83  1.08
 H  0.35 -0.41 -0.51
 H  0.61  0.86  0.69
 H  2.90 -0.82 -0.60
 H  4.65  1.06 -1.79
 H  5.27  0.71 -0.18
 H  5.83  3.27 -0.81
 H  3.84  4.55  0.23
 H  2.39  2.58  1.34
 H  1.76  2.94 -0.27
