19
set: 2919.00  0.00  0.00
 N  1.31  0.26 -1.36
 C  2.09  0.13 -0.12
 C  3.21  1.17 -0.00
 C  4.07  1.01  1.24
 N  3.26  1.17  2.46
 C  3.90  1.67 -1.25
 C  2.96  2.58 -0.49
 H  0.40 -0.19 -1.24
 H  1.77 -0.23 -2.12
 H  2.55 -0.87  0.01
 H  1.41  0.28  0.74
 H  4.92  1.72  1.17
 H  4.50 -0.01  1.26
 H  2.92  2.13  2.52
 H  3.84  1.03  3.29
 H  3.55  1.30 -2.22
 H  4.97  1.87 -1.20
 H  3.38  3.41  0.07
 H  1.99  2.77 -0.96
