19
set: 4113.00  0.00  0.00
 C  1.93 -0.50 -1.26
 O  2.17  0.07  0.02
 C  3.03  1.19 -0.06
 C  2.47  2.55 -0.58
 C  3.20  3.25  0.60
 C  4.53  3.89  0.23
 C  3.32  1.86  1.30
 H  1.27 -1.37 -1.11
 H  2.87 -0.84 -1.73
 H  1.43  0.21 -1.94
 H  3.96  0.91 -0.58
 H  1.38  2.57 -0.46
 H  2.74  2.86 -1.60
 H  2.58  3.98  1.15
 H  5.18  3.19 -0.31
 H  5.08  4.22  1.13
 H  4.39  4.77 -0.41
 H  4.26  1.62  1.81
 H  2.48  1.68  1.99
