16
set: 2975.00  0.00  0.00
 N  0.91 -0.14  0.02
 C  2.38 -0.17 -0.01
 C  2.94  1.26 -0.12
 C  4.43  1.32 -0.01
 C  5.25  1.79 -0.97
 C  6.66  1.84 -0.87
 C  7.88  1.91 -0.82
 H  0.55 -1.09  0.16
 H  0.56  0.16 -0.89
 H  2.82 -0.78 -0.82
 H  2.73 -0.61  0.94
 H  2.48  1.86  0.69
 H  2.61  1.71 -1.07
 H  4.87  0.95  0.92
 H  4.82  2.16 -1.91
 H  8.95  1.97 -0.77
