13
set: 6953.00  0.00  0.00
 C  0.94  0.01  0.02
 C  2.44  0.05  0.01
 C  3.23  1.17 -0.04
 S  4.90  0.73 -0.01
 N  4.60 -0.93  0.04
 C  3.29 -1.12  0.05
 N  2.77 -2.41  0.18
 H  0.52  1.02  0.03
 H  0.57 -0.53  0.91
 H  0.54 -0.51 -0.86
 H  2.92  2.21 -0.07
 H  1.90 -2.57 -0.31
 H  3.47 -3.13 -0.01
