13
set: 4239.00  0.00  0.00
 C  4.74 -1.12 -0.07
 O  3.82 -0.18 -0.63
 C  3.83  1.07  0.01
 C  5.04  1.95 -0.30
 O  5.96  1.61 -1.03
 C  5.00  3.26  0.34
 C  4.93  4.34  0.89
 H  4.57 -2.06 -0.59
 H  4.54 -1.26  1.01
 H  5.78 -0.80 -0.22
 H  3.76  0.98  1.12
 H  2.93  1.62 -0.31
 H  4.89  5.30  1.37
