17
set: 5812.00  0.00  0.00
 C  1.48 -0.62  0.14
 N  2.70  0.17  0.17
 C  3.84 -0.22 -0.46
 O  3.96 -1.24 -1.14
 C  5.04  0.74 -0.22
 C  5.86  0.89 -1.50
 N  4.60  2.01  0.39
 H  1.20 -0.97  1.14
 H  1.66 -1.48 -0.51
 H  0.64 -0.03 -0.27
 H  2.78  1.03  0.72
 H  5.65  0.21  0.53
 H  5.30  1.46 -2.26
 H  6.09 -0.10 -1.93
 H  6.80  1.42 -1.30
 H  4.37  2.68 -0.35
 H  5.37  2.42  0.93
