18
set: 4700.00  0.00  0.00
 C  0.89 -0.02 -0.21
 C  2.37  0.12  0.05
 C  2.76 -0.04  1.50
 N  3.31 -0.51 -0.92
 C  3.16  0.98 -0.90
 C  4.43  1.72 -0.56
 O  5.44  1.47 -1.55
 H  0.65  0.13 -1.28
 H  0.31  0.72  0.37
 H  0.53 -1.02  0.08
 H  3.85 -0.04  1.64
 H  2.39 -1.00  1.88
 H  2.33  0.76  2.12
 H  2.78 -0.89 -1.71
 H  2.59  1.42 -1.72
 H  4.79  1.45  0.44
 H  4.25  2.81 -0.58
 H  5.49  0.49 -1.61
