20
set: 2456.00  0.00  0.00
 C  2.62 -1.41 -0.47
 C  2.00 -0.09  0.04
 N  1.09 -0.26  1.19
 C  3.07  0.96  0.36
 C  4.03  0.64  1.49
 C  3.60  1.76 -0.81
 C  2.66  2.40  0.19
 H  3.29 -1.24 -1.33
 H  1.83 -2.11 -0.78
 H  3.20 -1.90  0.32
 H  1.38  0.33 -0.78
 H  1.59 -0.71  1.96
 H  0.34 -0.91  0.94
 H  4.76  1.45  1.62
 H  4.60 -0.29  1.29
 H  3.50  0.52  2.45
 H  3.20  1.54 -1.81
 H  4.65  2.05 -0.80
 H  3.08  3.14  0.88
 H  1.63  2.61 -0.12
