17
set: 2720.00  0.00  0.00
 C  1.42 -0.01  1.09
 N  2.84  0.31  1.24
 C  3.18  1.68  0.84
 C  2.55  2.71  1.78
 C  4.73  1.77  0.87
 C  5.23  3.06  0.40
 N  5.62  4.09  0.02
 H  1.28 -1.09  1.24
 H  0.99  0.25  0.10
 H  0.82  0.50  1.86
 H  3.37 -0.34  0.66
 H  2.85  1.90 -0.20
 H  2.84  2.50  2.82
 H  1.46  2.70  1.70
 H  2.89  3.72  1.52
 H  5.17  0.99  0.23
 H  5.08  1.59  1.89
