13
set: 5901.00  0.00  0.00
 C  3.18 -1.20  0.44
 O  2.43  0.00  0.21
 C  3.13  1.15  0.09
 N  2.51  2.27 -0.12
 N  3.51  3.30 -0.20
 C  4.68  2.77 -0.04
 C  4.63  1.30  0.18
 H  2.44 -2.00  0.51
 H  3.74 -1.14  1.39
 H  3.87 -1.40 -0.39
 H  5.58  3.39 -0.06
 H  5.16  0.73 -0.60
 H  5.04  0.99  1.15
