19
set: 1427.00  0.00  0.00
 C  0.80  0.26  0.01
 C  2.32  0.02  0.01
 C  2.72 -0.75  1.28
 C  2.72 -0.78 -1.24
 C  3.02  1.41  0.00
 C  4.48  1.37  0.00
 C  5.69  1.33  0.00
 H  0.49  0.82 -0.89
 H  0.49  0.84  0.90
 H  0.26 -0.69  0.02
 H  2.43 -0.20  2.19
 H  3.81 -0.91  1.32
 H  2.23 -1.73  1.31
 H  2.43 -0.25 -2.16
 H  2.23 -1.76 -1.24
 H  3.81 -0.94 -1.27
 H  2.68  1.99  0.88
 H  2.68  1.97 -0.89
 H  6.76  1.31  0.00
