19
set: 5372.00  0.00  0.00
 C  3.04 -1.00 -1.23
 C  2.70 -0.14 -0.01
 N  3.16 -0.69  1.28
 C  3.18  1.33 -0.14
 N  2.82  2.16  1.02
 C  4.70  1.48 -0.34
 O  5.06  2.85 -0.31
 H  2.70 -0.53 -2.16
 H  2.57 -1.99 -1.15
 H  4.13 -1.15 -1.31
 H  1.59 -0.09  0.07
 H  4.14 -0.99  1.20
 H  2.63 -1.52  1.52
 H  2.69  1.77 -1.03
 H  2.90  1.56  1.86
 H  1.85  2.46  0.97
 H  5.01  1.07 -1.32
 H  5.24  0.91  0.45
 H  4.46  3.22  0.37
