13
set: 6523.00  0.00  0.00
 O  0.96  0.04 -0.06
 C  2.38 -0.04  0.03
 C  2.98 -1.27 -0.59
 C  3.96 -0.89 -1.43
 N  4.09  0.52 -1.48
 C  3.06  1.10 -0.74
 N  2.63  2.31 -0.67
 H  0.77  1.01 -0.09
 H  2.70  0.03  1.10
 H  2.73 -2.29 -0.32
 H  4.65 -1.50 -2.00
 H  4.52  1.00 -2.27
 H  3.14  2.96 -1.28
