16
set: 5687.00  0.00  0.00
 C  1.15 -1.10  0.35
 N  2.34 -0.41 -0.11
 C  2.61  0.89  0.22
 C  3.82  1.51  0.09
 C  4.06  2.92  0.38
 C  2.90  3.79  0.85
 O  5.19  3.41  0.25
 H  0.92 -1.93 -0.33
 H  0.30 -0.41  0.33
 H  1.25 -1.50  1.38
 H  3.14 -0.99 -0.36
 H  1.74  1.44  0.57
 H  4.70  0.95 -0.25
 H  2.47  3.42  1.79
 H  2.09  3.83  0.10
 H  3.28  4.81  1.01
