20
set: 2487.00  0.00  0.00
 C  2.81 -1.46  0.73
 C  2.26 -0.14  1.25
 N  2.98  1.04  0.76
 C  2.21  2.26  1.03
 C  4.33  1.15  1.32
 C  5.17  2.17  0.61
 C  5.88  3.13  1.22
 H  2.16 -2.29  1.04
 H  3.82 -1.69  1.12
 H  2.87 -1.45 -0.37
 H  2.22 -0.16  2.37
 H  1.22 -0.04  0.91
 H  1.23  2.19  0.53
 H  2.74  3.13  0.63
 H  2.04  2.42  2.12
 H  4.81  0.16  1.21
 H  4.31  1.37  2.42
 H  5.20  2.07 -0.48
 H  5.86  3.25  2.30
 H  6.51  3.82  0.65
