19
set: 2990.00  0.00  0.00
 N  3.20  0.72  2.44
 C  2.85  1.79  1.49
 C  3.32  1.43  0.07
 C  4.83  1.39 -0.05
 C  5.52  0.23 -0.06
 C  5.55  2.72 -0.16
 N  5.11  3.45 -1.36
 H  2.91  0.98  3.38
 H  4.22  0.61  2.47
 H  3.25  2.79  1.77
 H  1.75  1.88  1.48
 H  2.93  2.19 -0.63
 H  2.89  0.45 -0.19
 H  5.01 -0.73  0.01
 H  6.61  0.22 -0.14
 H  6.64  2.54 -0.10
 H  5.28  3.34  0.71
 H  5.45  2.96 -2.20
 H  5.53  4.38 -1.37
