15
set: 1860.00  0.00  0.00
 C  0.94 -0.08  0.07
 C  2.45  0.12 -0.13
 C  3.04  1.27  0.66
 N  4.08  1.02  1.36
 N  4.48 -0.36  1.14
 C  3.51 -1.26  1.81
 C  3.37 -0.99  0.35
 H  0.58 -0.94 -0.50
 H  0.38  0.80 -0.26
 H  0.71 -0.25  1.13
 H  2.63  0.29 -1.21
 H  2.61  2.28  0.68
 H  3.92 -2.21  2.14
 H  2.81 -0.78  2.50
 H  3.69 -1.76 -0.36
