18
set: 2841.00  0.00  0.00
 N  1.04 -0.43  0.47
 C  2.36  0.09  0.12
 C  2.89  1.29  0.93
 C  4.29  0.62  0.93
 C  3.59 -0.74  0.62
 C  4.23 -1.72 -0.30
 C  4.43 -3.01 -0.03
 H  0.86 -1.29 -0.07
 H  0.32  0.23  0.19
 H  2.50  0.29 -0.96
 H  2.45  1.28  1.94
 H  2.79  2.30  0.50
 H  4.90  0.95  0.07
 H  4.90  0.68  1.84
 H  3.30 -1.23  1.57
 H  4.55 -1.32 -1.27
 H  4.13 -3.45  0.92
 H  4.91 -3.68 -0.76
