14
set: 6636.00  0.00  0.00
 O  2.00 -0.40 -1.28
 C  2.00  0.20  0.02
 C  3.14  1.21  0.05
 C  2.90  2.56 -0.69
 C  3.06  3.23  0.69
 O  3.09  4.36  1.12
 N  3.20  1.99  1.30
 H  1.28 -1.04 -1.32
 H  2.17 -0.56  0.81
 H  1.05  0.71  0.23
 H  4.09  0.72 -0.22
 H  1.91  2.67 -1.15
 H  3.68  2.84 -1.41
 H  3.53  1.74  2.23
