14
set: 841.00  0.00  0.00
 C  0.93 -0.28  0.18
 C  2.38  0.05 -0.19
 O  2.85 -0.69 -1.31
 C  2.59  1.58 -0.33
 C  3.38  2.07 -1.52
 O  2.15  2.33  0.53
 H  0.62  0.32  1.04
 H  0.83 -1.35  0.41
 H  0.26 -0.04 -0.66
 H  3.03 -0.24  0.65
 H  2.13 -0.75 -1.96
 H  4.33  1.53 -1.60
 H  3.55  3.15 -1.42
 H  2.83  1.86 -2.45
