14
set: 6807.00  0.00  0.00
 O  1.27  0.10  0.89
 C  2.02  0.20 -0.23
 O  1.80 -0.41 -1.25
 C  3.16  1.21 -0.07
 C  2.87  2.66 -0.57
 C  3.37  3.14  0.81
 N  3.28  1.73  1.32
 H  1.71  0.73  1.53
 H  4.08  0.78 -0.50
 H  1.80  2.84 -0.74
 H  3.44  2.99 -1.44
 H  4.40  3.52  0.78
 H  2.74  3.85  1.36
 H  4.10  1.41  1.84
