15
set: 1378.00  0.00  0.00
 C  2.31  0.65  2.25
 C  3.01  0.19  1.37
 C  3.86 -0.33  0.30
 C  4.66  0.77 -0.42
 C  5.69  1.47  0.49
 C  6.75  0.59  0.96
 C  7.62 -0.17  1.33
 H  1.69  1.04  3.03
 H  3.23 -0.86 -0.43
 H  4.56 -1.07  0.72
 H  3.97  1.53 -0.82
 H  5.18  0.32 -1.28
 H  5.17  1.91  1.36
 H  6.14  2.32 -0.06
 H  8.40 -0.83  1.66
