18
set: 6110.00  0.00  0.00
 N  0.78  0.42 -0.69
 C  2.10  0.16 -0.12
 C  2.14  0.34  1.39
 C  0.87 -0.14  2.10
 O  0.42 -1.42  1.64
 C  2.88 -0.97 -0.74
 C  3.37  0.46 -0.91
 H  0.78  0.23 -1.69
 H  0.54  1.41 -0.59
 H  2.29  1.41  1.64
 H  3.02 -0.19  1.78
 H  0.06  0.61  1.97
 H  1.05 -0.24  3.18
 H  0.17 -1.26  0.71
 H  2.45 -1.46 -1.62
 H  3.43 -1.64 -0.08
 H  4.26  0.77 -0.36
 H  3.26  0.92 -1.89
