17
set: 1069.00  0.00  0.00
 C  1.22 -0.21  0.83
 N  2.65 -0.02  0.57
 C  2.97  1.36  0.22
 C  4.43  1.49 -0.16
 O  4.66  0.73 -1.35
 C  6.03  0.76 -1.74
 H  1.02 -1.28  1.01
 H  0.56  0.13  0.01
 H  0.94  0.34  1.75
 H  2.94 -0.62 -0.20
 H  2.78  2.00  1.10
 H  2.35  1.75 -0.61
 H  5.08  1.11  0.66
 H  4.69  2.56 -0.33
 H  6.12  0.15 -2.65
 H  6.68  0.33 -0.95
 H  6.37  1.79 -1.95
