15
set: 1348.00  0.00  0.00
 C  0.97  0.44 -1.11
 C  2.18  0.41 -1.00
 C  3.59  0.33 -0.91
 C  4.35  1.12 -0.11
 C  5.82  1.10 -0.01
 C  6.71  0.38 -1.00
 C  6.66  1.89 -1.02
 H -0.10  0.47 -1.19
 H  4.08 -0.43 -1.54
 H  3.83  1.85  0.53
 H  6.20  1.16  1.01
 H  6.24 -0.15 -1.83
 H  7.60 -0.10 -0.61
 H  7.51  2.45 -0.64
 H  6.12  2.36 -1.84
