15
set: 3327.00  0.00  0.00
 C  1.04 -0.08 -0.05
 C  2.52  0.14  0.02
 C  3.22  1.21 -0.38
 O  4.58  1.15 -0.14
 C  4.82 -0.15  0.41
 C  4.53 -1.35 -0.43
 C  3.49 -0.86  0.57
 H  0.79 -0.94 -0.69
 H  0.53  0.81 -0.45
 H  0.62 -0.28  0.95
 H  2.89  2.13 -0.87
 H  5.63 -0.14  1.14
 H  5.09 -2.25 -0.18
 H  4.32 -1.21 -1.49
 H  3.23 -1.47  1.43
