16
set: 5245.00  0.00  0.00
 C  0.13  0.18 -1.11
 C  1.33 -0.18 -0.24
 C  2.23  1.01  0.02
 O  3.33  0.59  0.85
 C  4.21  1.64  1.18
 C  4.96  2.17  0.02
 N  5.55  2.57 -0.90
 H -0.50 -0.70 -1.29
 H  0.45  0.57 -2.09
 H -0.50  0.95 -0.64
 H  1.93 -0.97 -0.72
 H  0.99 -0.59  0.73
 H  1.67  1.82  0.54
 H  2.61  1.43 -0.93
 H  4.93  1.24  1.91
 H  3.68  2.49  1.65
