19
set: 3892.00  0.00  0.00
 C  0.97 -0.14 -0.35
 C  2.44 -0.13  0.07
 C  3.05  1.28  0.09
 O  2.35  2.15  1.00
 C  4.54  1.23  0.35
 C  5.21  2.01  1.22
 C  6.68  1.94  1.47
 H  0.55 -1.16 -0.31
 H  0.85  0.23 -1.38
 H  0.37  0.51  0.30
 H  3.03 -0.76 -0.62
 H  2.56 -0.58  1.07
 H  2.88  1.74 -0.90
 H  2.53  1.81  1.90
 H  5.09  0.49 -0.24
 H  4.64  2.76  1.78
 H  7.16  1.16  0.86
 H  6.89  1.72  2.53
 H  7.16  2.90  1.25
