16
set: 2970.00  0.00  0.00
 N  2.78 -0.67 -1.25
 C  2.41 -0.00  0.00
 C  2.98  1.44  0.03
 C  2.51  2.19  1.26
 C  1.69  3.24  1.22
 C  4.45  1.41 -0.02
 C  5.66  1.35 -0.05
 H  2.37 -1.61 -1.27
 H  3.80 -0.79 -1.28
 H  2.74 -0.52  0.92
 H  1.31  0.08  0.05
 H  2.62  1.95 -0.87
 H  2.87  1.80  2.22
 H  1.33  3.65  0.27
 H  1.36  3.74  2.14
 H  6.73  1.32 -0.08
