14
set: 105.00  0.00  0.00
 C  0.87 -0.00  0.03
 C  2.36 -0.07 -0.01
 C  3.19  0.98  0.01
 C  4.69  0.88 -0.04
 N  5.22  1.66 -1.17
 H  0.47 -0.54  0.91
 H  0.42 -0.48 -0.85
 H  0.51  1.04  0.08
 H  2.80 -1.08 -0.06
 H  2.78  2.00  0.04
 H  4.98 -0.19 -0.03
 H  5.11  1.33  0.88
 H  4.93  1.22 -2.05
 H  6.24  1.64 -1.16
