17
set: 1019.00  0.00  0.00
 C  0.91  0.03 -0.01
 C  2.44  0.00  0.07
 C  2.91 -0.84  1.26
 O  2.91 -0.58 -1.16
 C  2.99  1.44  0.16
 N  4.44  1.43 -0.09
 H  0.58  0.61 -0.88
 H  0.48  0.47  0.90
 H  0.52 -1.00 -0.11
 H  2.54 -0.44  2.22
 H  4.01 -0.89  1.30
 H  2.54 -1.87  1.15
 H  3.83 -0.22 -1.24
 H  2.70  1.90  1.12
 H  2.52  2.03 -0.65
 H  4.96  1.25  0.77
 H  4.76  2.33 -0.44
