19
set: 474.00  0.00  0.00
 C  0.98 -0.16  0.01
 C  2.50 -0.05  0.01
 C  2.99  1.40 -0.01
 N  4.45  1.48  0.04
 C  4.96  2.85 -0.03
 C  6.48  2.88 -0.04
 H  0.65 -1.21  0.03
 H  0.54  0.31 -0.89
 H  0.54  0.34  0.89
 H  2.91 -0.58 -0.86
 H  2.92 -0.54  0.90
 H  2.59  1.94  0.87
 H  2.57  1.92 -0.91
 H  4.84  0.94 -0.74
 H  4.58  3.39  0.85
 H  4.57  3.40 -0.92
 H  6.88  2.38  0.85
 H  6.85  3.91 -0.05
 H  6.89  2.37 -0.92
