22
set: 2364.00  0.00  0.00
 C  2.67 -1.56 -0.20
 C  3.96 -0.77 -0.41
 C  4.18 -0.48 -1.90
 N  3.86  0.48  0.35
 C  5.07  1.32  0.46
 C  4.70  2.59  1.24
 C  6.29  0.62  1.09
 H  2.51 -1.79  0.86
 H  2.70 -2.51 -0.75
 H  1.80 -0.98 -0.55
 H  4.80 -1.41 -0.06
 H  3.37  0.16 -2.29
 H  4.20 -1.41 -2.47
 H  5.13  0.04 -2.08
 H  3.53  0.26  1.30
 H  5.34  1.62 -0.56
 H  4.41  2.34  2.27
 H  3.85  3.10  0.76
 H  5.55  3.28  1.29
 H  6.07  0.32  2.13
 H  7.15  1.30  1.11
 H  6.58 -0.27  0.53
