18
set: 1643.00  0.00  0.00
 C  0.71  0.00 -0.08
 C  2.20  0.02  0.16
 C  3.21 -0.84 -0.57
 C  2.85 -1.45 -1.92
 N  2.26 -0.33 -2.68
 C  2.87  0.93 -2.21
 C  3.23  0.66 -0.76
 H  0.25  0.94  0.27
 H  0.24 -0.82  0.49
 H  0.47 -0.13 -1.14
 H  2.47  0.15  1.21
 H  3.99 -1.35  0.01
 H  3.77 -1.86 -2.38
 H  2.12 -2.27 -1.85
 H  2.36 -0.45 -3.69
 H  3.80  1.20 -2.75
 H  2.15  1.76 -2.34
 H  4.01  1.28 -0.32
