17
set: 1654.00  0.00  0.00
 C  1.00  0.01 -0.04
 C  2.50 -0.12 -0.03
 C  3.25 -0.69 -1.20
 C  3.37  0.78 -0.91
 C  4.62  1.39 -0.35
 N  4.50  2.75 -0.10
 N  5.74  0.80 -0.11
 H  0.65  0.80  0.64
 H  0.52 -0.93  0.27
 H  0.63  0.25 -1.05
 H  2.94 -0.34  0.95
 H  2.68 -0.98 -2.09
 H  4.11 -1.33 -1.00
 H  2.81  1.45 -1.58
 H  3.58  3.09  0.15
 H  5.26  3.13  0.47
 H  5.72 -0.17 -0.44
