16
set: 6035.00  0.00  0.00
 C  1.57 -0.41  0.40
 O  2.99 -0.32  0.21
 N  3.34  1.04  0.10
 C  4.61  1.20 -0.05
 C  5.62  0.09 -0.08
 C  5.06  2.63 -0.18
 O  5.95  3.02  0.88
 H  1.35 -1.48  0.47
 H  1.03  0.03 -0.45
 H  1.26  0.10  1.33
 H  5.52 -0.48 -1.02
 H  5.45 -0.62  0.74
 H  6.64  0.50 -0.02
 H  4.18  3.29 -0.24
 H  5.65  2.75 -1.10
 H  5.45  2.97  1.71
