20
set: 5501.00  0.00  0.00
 C  1.97  3.11 -1.79
 C  2.80  1.95 -1.28
 O  3.96  2.47 -0.63
 C  4.80  1.43 -0.11
 C  5.96  2.08  0.62
 N  5.49  2.82  1.79
 C  6.56  3.55  2.46
 H  1.07  2.74 -2.31
 H  2.54  3.73 -2.49
 H  1.64  3.75 -0.95
 H  3.11  1.30 -2.13
 H  2.22  1.33 -0.58
 H  5.18  0.80 -0.94
 H  4.22  0.79  0.58
 H  6.53  2.71 -0.09
 H  6.64  1.28  0.96
 H  4.77  3.48  1.47
 H  7.14  4.22  1.79
 H  7.27  2.83  2.91
 H  6.14  4.15  3.28
