15
set: 5832.00  0.00  0.00
 C  2.42 -1.22 -0.79
 N  3.66 -0.59 -0.37
 N  3.72  0.76 -0.51
 C  4.54  1.43  0.22
 C  4.66  2.89  0.02
 C  5.13  3.78  1.09
 O  6.01  3.43  0.02
 H  2.56 -2.30 -0.81
 H  2.20 -0.88 -1.81
 H  1.56 -0.97 -0.15
 H  4.04 -0.96  0.52
 H  5.19  0.97  0.98
 H  4.00  3.30 -0.76
 H  5.39  3.36  2.07
 H  4.79  4.82  1.10
