17
set: 415.00  0.00  0.00
 C  1.11  0.13  0.10
 C  2.62 -0.07 -0.09
 C  2.93 -0.84 -1.38
 C  3.34  1.27 -0.08
 C  3.81  1.91  1.18
 N  4.77  1.24  0.27
 H  0.89  0.66  1.04
 H  0.59 -0.84  0.13
 H  0.68  0.71 -0.73
 H  3.01 -0.65  0.76
 H  2.55 -0.30 -2.26
 H  2.47 -1.83 -1.37
 H  4.02 -0.97 -1.50
 H  3.03  1.95 -0.88
 H  3.66  1.39  2.13
 H  3.81  3.00  1.24
 H  5.28  1.95 -0.27
