15
set: 5848.00  0.00  0.00
 C  0.92 -0.14  0.03
 N  2.37 -0.15  0.15
 N  3.01 -1.34  0.55
 C  3.11  1.00 -0.11
 O  2.54  2.04 -0.45
 C  4.59  0.89  0.05
 C  5.36  1.96 -0.19
 H  0.61  0.86 -0.29
 H  0.45 -0.38  1.00
 H  0.59 -0.88 -0.71
 H  2.76 -2.08 -0.12
 H  2.64 -1.63  1.46
 H  5.00 -0.07  0.35
 H  4.91  2.90 -0.49
 H  6.45  1.90 -0.08
