16
set: 1688.00  0.00  0.00
 C  0.98  0.05 -0.01
 C  2.51 -0.00 -0.00
 C  3.14  1.30  0.45
 C  3.80  1.16  1.62
 C  3.81 -0.26  2.06
 N  4.50 -1.22  1.15
 C  3.05 -1.02  1.01
 H  0.55 -0.92 -0.32
 H  0.61  0.82 -0.71
 H  0.60  0.29  0.99
 H  2.86 -0.27 -1.02
 H  3.07  2.22 -0.13
 H  4.30  1.97  2.16
 H  3.83 -0.53  3.12
 H  4.99 -0.68  0.43
 H  2.44 -1.89  1.26
