18
set: 2146.00  0.00  0.00
 C  0.94 -0.55  0.63
 C  2.31 -0.43 -0.04
 C  2.72 -1.75 -0.71
 C  2.30  0.75 -1.03
 C  3.66  1.08 -1.68
 C  4.69  1.43 -0.71
 N  5.50  1.71  0.08
 H  0.65  0.38  1.14
 H  0.93 -1.36  1.38
 H  0.16 -0.78 -0.11
 H  3.05 -0.19  0.74
 H  2.02 -2.01 -1.52
 H  2.69 -2.57  0.02
 H  3.73 -1.71 -1.12
 H  1.93  1.65 -0.51
 H  1.58  0.54 -1.84
 H  3.55  1.93 -2.38
 H  4.03  0.23 -2.28
