16
set: 6768.00  0.00  0.00
 O  0.91  0.32 -0.31
 C  2.30 -0.05 -0.41
 C  3.07  1.08  0.26
 O  2.70  1.20  1.64
 C  4.58  0.93  0.22
 C  5.31 -0.37  0.15
 N  5.18  0.49 -1.06
 H  0.37 -0.43 -0.60
 H  2.62 -0.15 -1.46
 H  2.48 -1.00  0.13
 H  2.81  2.01 -0.28
 H  1.72  1.20  1.64
 H  5.09  1.73  0.77
 H  4.76 -1.31  0.10
 H  6.28 -0.42  0.65
 H  6.05  0.99 -1.23
