15
set: 5944.00  0.00  0.00
 C  3.40 -1.20  0.54
 O  2.55 -0.08  0.31
 C  3.16  1.12  0.10
 C  4.49  1.39  0.09
 C  4.99  2.72 -0.14
 N  6.26  2.96 -0.13
 N  6.66  4.24 -0.45
 H  2.74 -2.06  0.68
 H  4.02 -1.05  1.44
 H  4.06 -1.38 -0.33
 H  2.41  1.90 -0.07
 H  5.23  0.61  0.26
 H  4.25  3.53 -0.32
 H  7.56  4.44 -0.01
 H  5.97  4.98 -0.23
