16
set: 114.00  0.00  0.00
 C  0.96 -0.09  0.05
 C  2.48  0.03  0.10
 C  3.02  1.47  0.06
 C  2.57  2.30  1.27
 N  4.49  1.40 -0.10
 H  0.65 -1.14  0.01
 H  0.55  0.41 -0.85
 H  0.48  0.36  0.93
 H  2.93 -0.51 -0.75
 H  2.86 -0.46  1.02
 H  2.63  1.94 -0.86
 H  2.92  1.85  2.21
 H  1.48  2.40  1.32
 H  2.99  3.32  1.21
 H  4.90  0.96  0.73
 H  4.87  2.35 -0.12
