15
set: 7065.00  0.00  0.00
 C  1.03 -0.09  0.06
 C  2.55  0.02  0.04
 S  3.04  1.76 -0.01
 O  2.65  2.35 -1.30
 O  2.67  2.43  1.24
 O  4.67  1.47 -0.02
 C  5.46  2.69 -0.06
 H  0.74 -1.15  0.09
 H  0.59  0.36 -0.85
 H  0.60  0.41  0.94
 H  3.00 -0.44 -0.85
 H  3.01 -0.38  0.95
 H  6.50  2.35 -0.06
 H  5.27  3.31  0.82
 H  5.25  3.25 -0.98
