14
set: 706.00  0.00  0.00
 C  0.99  0.05  0.09
 C  2.49 -0.06  0.00
 O  3.20  0.97  0.77
 C  4.16 -0.01  1.25
 C  3.24 -1.16  0.79
 O  3.79 -2.28  0.12
 H  0.52 -0.79 -0.45
 H  0.64  0.99 -0.36
 H  0.65  0.02  1.14
 H  2.82 -0.04 -1.06
 H  5.11  0.03  0.69
 H  4.36  0.10  2.33
 H  2.63 -1.57  1.61
 H  4.35 -1.95 -0.61
