19
set: 2523.00  0.00  0.00
 C  2.61 -0.62 -0.20
 C  1.61  0.40  0.31
 N  2.25  1.61  0.85
 C  1.46  2.84  0.78
 C  1.42  3.44 -0.63
 N  3.04  1.32  1.92
 C  3.46  2.21  2.76
 H  2.08 -1.51 -0.58
 H  3.29 -0.93  0.60
 H  3.22 -0.21 -1.02
 H  0.95 -0.05  1.08
 H  0.96  0.73 -0.52
 H  1.89  3.58  1.46
 H  0.43  2.64  1.14
 H  2.44  3.67 -0.98
 H  0.83  4.37 -0.63
 H  0.96  2.76 -1.36
 H  4.13  1.84  3.54
 H  3.23  3.28  2.73
