20
set: 5242.00  0.00  0.00
 C  1.02 -0.18  0.01
 C  2.53 -0.17  0.21
 C  3.14  1.23  0.05
 O  2.59  2.15  1.00
 C  4.68  1.23  0.17
 C  5.28  2.54 -0.33
 N  5.01  1.07  1.60
 H  0.60 -1.19  0.17
 H  0.75  0.13 -1.01
 H  0.53  0.51  0.71
 H  3.01 -0.85 -0.52
 H  2.77 -0.56  1.21
 H  2.87  1.62 -0.95
 H  3.20  2.05  1.77
 H  5.08  0.40 -0.45
 H  4.87  3.39  0.23
 H  5.05  2.69 -1.40
 H  6.38  2.55 -0.22
 H  5.97  1.37  1.79
 H  4.96  0.08  1.88
