17
set: 5165.00  0.00  0.00
 C  0.98  0.02 -0.03
 C  2.53 -0.03  0.03
 C  3.00 -0.77  1.28
 N  3.12 -0.71 -1.15
 C  3.04  1.39 -0.02
 N  3.49  1.98  1.02
 O  3.88  3.32  0.73
 H  0.63  0.56 -0.92
 H  0.57  0.52  0.86
 H  0.58 -1.01 -0.07
 H  2.66 -0.25  2.19
 H  4.09 -0.83  1.30
 H  2.59 -1.79  1.29
 H  2.71 -0.34 -2.01
 H  2.87 -1.70 -1.12
 H  2.99  1.92 -0.99
 H  4.21  3.62  1.60
