15
set: 5296.00  0.00  0.00
 C  1.11  0.00  0.40
 C  2.59 -0.21  0.08
 C  3.38  1.09  0.11
 O  2.88  2.18  0.38
 N  4.74  1.02 -0.19
 C  5.51 -0.10 -0.52
 N  6.76 -0.14 -0.79
 H  0.58 -0.96  0.38
 H  0.64  0.68 -0.32
 H  0.98  0.45  1.40
 H  2.70 -0.67 -0.92
 H  3.05 -0.91  0.79
 H  5.21  1.93 -0.15
 H  4.94 -1.03 -0.55
 H  7.19  0.80 -0.74
