16
set: 5552.00  0.00  0.00
 C  3.28 -1.16 -0.75
 C  2.57  0.04 -0.14
 O  1.49 -0.04  0.46
 N  3.20  1.23 -0.31
 C  2.84  2.56  0.21
 C  4.18  3.10 -0.38
 C  4.50  1.66 -0.86
 H  4.26 -1.32 -0.28
 H  3.45 -1.01 -1.83
 H  2.66 -2.05 -0.60
 H  2.76  2.58  1.31
 H  1.92  2.96 -0.22
 H  4.05  3.83 -1.19
 H  4.88  3.51  0.36
 H  4.59  1.53 -1.95
 H  5.37  1.19 -0.37
