19
set: 3941.00  0.00  0.00
 C  1.73 -1.77 -0.77
 C  2.83 -0.93 -0.11
 C  2.81  0.53 -0.54
 O  1.56  1.11 -0.13
 C  3.97  1.32  0.05
 O  3.82  2.68 -0.38
 C  4.78  3.54  0.23
 H  1.76 -2.81 -0.42
 H  1.85 -1.78 -1.86
 H  0.74 -1.36 -0.54
 H  3.82 -1.35 -0.35
 H  2.72 -0.97  0.99
 H  2.89  0.58 -1.65
 H  1.66  2.07 -0.27
 H  4.94  0.91 -0.29
 H  3.93  1.27  1.16
 H  4.58  4.55 -0.15
 H  5.81  3.25 -0.04
 H  4.68  3.54  1.33
