16
set: 5476.00  0.00  0.00
 C  3.16 -1.23  0.35
 C  2.43  0.11  0.21
 O  1.19  0.12  0.19
 C  3.20  1.35  0.09
 C  2.45  2.65 -0.04
 C  4.57  1.33  0.09
 N  5.37  2.44  0.04
 H  3.76 -1.26  1.27
 H  3.83 -1.42 -0.50
 H  2.40 -2.02  0.40
 H  1.37  2.44 -0.03
 H  2.69  3.18 -0.98
 H  2.67  3.34  0.80
 H  5.12  0.39  0.19
 H  4.95  3.33 -0.22
 H  6.35  2.33 -0.19
