13
set: 1448.00  0.00  0.00
 C  0.92 -0.03 -0.00
 C  2.37  0.00  0.00
 C  3.59  0.04  0.00
 C  5.00  0.03  0.00
 C  5.78  1.15 -0.00
 C  7.19  1.12 -0.00
 C  8.41  1.15 -0.00
 H  0.50  0.99  0.01
 H  0.54 -0.56  0.88
 H  0.54 -0.54 -0.89
 H  5.49 -0.95  0.00
 H  5.30  2.13 -0.00
 H  9.48  1.16 -0.00
