15
set: 2600.00  0.00  0.00
 C  1.10  0.02 -0.19
 N  2.53 -0.01  0.04
 C  3.30 -1.16  0.25
 C  4.60 -0.86  0.45
 C  4.75  0.64  0.39
 C  3.33  1.14  0.12
 N  2.84  2.32 -0.03
 H  0.82  1.07 -0.33
 H  0.55 -0.38  0.67
 H  0.83 -0.55 -1.09
 H  2.82 -2.13  0.22
 H  5.40 -1.57  0.63
 H  5.13  1.07  1.33
 H  5.43  0.97 -0.41
 H  3.58  3.02  0.06
