18
set: 6315.00  0.00  0.00
 N  1.40 -0.52  1.49
 C  2.69 -0.27  0.80
 C  2.92  1.24  0.60
 C  2.99  1.99  1.94
 O  1.76  1.96  2.66
 C  4.19  1.49 -0.21
 O  4.05  0.88 -1.51
 H  1.35 -1.50  1.79
 H  0.62 -0.37  0.84
 H  2.77 -0.79 -0.17
 H  3.49 -0.66  1.45
 H  2.07  1.65  0.02
 H  3.23  3.05  1.76
 H  3.82  1.56  2.54
 H  1.43  1.03  2.56
 H  5.06  1.07  0.32
 H  4.34  2.58 -0.31
 H  4.87  1.05 -2.00
