15
set: 3699.00  0.00  0.00
 C  0.91 -0.00  0.03
 C  2.44 -0.02  0.03
 C  3.03  1.40  0.00
 C  4.48  1.45  0.00
 C  5.70  1.49 -0.00
 C  7.14  1.48 -0.00
 O  7.84  2.48 -0.00
 H  0.51 -1.02  0.05
 H  0.52  0.49 -0.87
 H  0.52  0.53  0.91
 H  2.82 -0.58 -0.84
 H  2.82 -0.54  0.92
 H  2.67  1.98  0.87
 H  2.67  1.95 -0.89
 H  7.59  0.46  0.00
