16
set: 725.00  0.00  0.00
 C  1.20 -0.27 -0.38
 C  2.71 -0.24 -0.15
 C  3.21  1.10  0.40
 C  4.70  1.12  0.65
 C  5.65  1.62 -0.35
 O  5.33  2.41  0.82
 H  0.88 -1.25 -0.77
 H  0.89  0.50 -1.10
 H  0.65 -0.09  0.56
 H  3.24 -0.46 -1.09
 H  3.00 -1.05  0.56
 H  2.69  1.33  1.35
 H  2.96  1.92 -0.30
 H  5.06  0.36  1.36
 H  5.27  2.02 -1.30
 H  6.68  1.23 -0.37
