15
set: 4305.00  0.00  0.00
 O  0.91  0.02  0.15
 C  2.32 -0.03  0.04
 C  3.05  1.05  0.86
 C  4.14 -0.02  1.24
 C  3.10 -1.13  0.83
 C  5.33  0.02  0.42
 C  6.33  0.05 -0.27
 H  0.52 -0.58 -0.51
 H  2.64 -0.01 -1.02
 H  2.45  1.31  1.74
 H  3.39  1.95  0.34
 H  4.42 -0.03  2.30
 H  3.49 -2.00  0.28
 H  2.52 -1.45  1.70
 H  7.22  0.08 -0.88
