19
set: 3945.00  0.00  0.00
 C  2.17  4.53 -0.82
 C  3.33  3.89 -0.07
 O  3.86  2.83 -0.88
 C  4.94  2.19 -0.25
 C  5.93  1.51 -1.16
 C  6.34  2.76 -0.38
 C  7.33  2.66  0.76
 H  1.73  5.34 -0.22
 H  1.38  3.79 -1.01
 H  2.50  4.94 -1.78
 H  2.99  3.48  0.90
 H  4.12  4.64  0.14
 H  4.69  1.69  0.69
 H  5.76  1.62 -2.23
 H  6.33  0.55 -0.85
 H  6.39  3.66 -0.99
 H  7.16  1.75  1.35
 H  7.24  3.52  1.44
 H  8.36  2.63  0.39
