21
set: 3773.00  0.00  0.00
 C  0.93 -0.13 -0.46
 C  2.46 -0.02 -0.44
 C  3.03  1.41 -0.37
 C  2.55  2.27 -1.54
 O  2.53  2.08  0.82
 C  4.57  1.33 -0.31
 C  5.30  2.66 -0.19
 H  0.62 -1.18 -0.37
 H  0.50  0.26 -1.39
 H  0.49  0.43  0.38
 H  2.88 -0.52 -1.33
 H  2.85 -0.58  0.43
 H  2.88  1.84 -2.49
 H  2.94  3.29 -1.45
 H  1.45  2.34 -1.54
 H  2.82  1.56  1.59
 H  4.92  0.79 -1.21
 H  4.84  0.68  0.55
 H  5.20  3.27 -1.10
 H  6.38  2.50 -0.02
 H  4.91  3.25  0.66
