13
set: 4460.00  0.00  0.00
 O  1.12 -0.71  0.14
 C  2.30 -0.39  0.07
 C  2.78  1.00  0.04
 C  4.09  1.27 -0.03
 C  4.69  2.66 -0.05
 C  5.62  2.85 -1.15
 C  6.40  2.99 -2.07
 H  3.11 -1.16  0.01
 H  2.02  1.79  0.08
 H  4.81  0.44 -0.08
 H  5.23  2.82  0.91
 H  3.89  3.42 -0.09
 H  7.08  3.12 -2.89
