18
set: 1760.00  0.00  0.00
 C  0.98  0.02  0.03
 C  2.48  0.01 -0.03
 C  3.28 -1.06 -0.07
 C  4.75 -0.71 -0.04
 N  5.34 -1.19  1.22
 C  4.73  0.83 -0.30
 C  3.28  1.30 -0.02
 H  0.56 -0.99  0.04
 H  0.55  0.57 -0.82
 H  0.63  0.55  0.94
 H  2.94 -2.10 -0.05
 H  5.30 -1.22 -0.85
 H  4.89 -0.73  2.01
 H  6.33 -0.93  1.26
 H  4.98  1.03 -1.35
 H  5.47  1.35  0.32
 H  2.92  2.01 -0.78
 H  3.17  1.81  0.96
