17
set: 3921.00  0.00  0.00
 C  0.99 -2.19 -0.77
 C  1.49 -0.91 -0.12
 C  2.87 -0.49 -0.59
 O  0.59  0.19 -0.46
 C -0.50  0.36  0.35
 C -1.32  1.54 -0.11
 O -0.75 -0.34  1.31
 H -0.01 -2.45 -0.39
 H  1.67 -3.03 -0.53
 H  0.96 -2.08 -1.86
 H  1.47 -1.02  0.98
 H  2.89 -0.34 -1.68
 H  3.61 -1.27 -0.34
 H  3.19  0.45 -0.11
 H -2.24  1.59  0.48
 H -1.55  1.46 -1.18
 H -0.75  2.47  0.03
