15
set: 4467.00  0.00  0.00
 O  0.54 -0.15 -0.12
 C  1.95 -0.33  0.14
 C  2.58 -0.90 -1.16
 C  2.00 -2.23 -1.54
 C  2.72 -3.35 -1.69
 C  2.59  0.92  0.55
 C  3.10  1.95  0.92
 H  0.16  0.33  0.63
 H  2.08 -1.08  0.94
 H  3.66 -0.97 -1.01
 H  2.40 -0.15 -1.95
 H  0.92 -2.25 -1.71
 H  3.80 -3.36 -1.53
 H  2.25 -4.29 -1.98
 H  3.55  2.87  1.24
