20
set: 1832.00  0.00  0.00
 C  0.87 -0.09  0.17
 C  2.38 -0.03  0.00
 C  2.79 -0.04 -1.48
 N  2.29  1.14 -2.20
 C  3.13  1.09  0.80
 C  4.19  0.04  1.25
 C  3.22 -1.09  0.80
 H  0.59 -0.14  1.23
 H  0.45 -0.99 -0.33
 H  0.38  0.80 -0.25
 H  2.46 -1.01 -1.91
 H  3.89 -0.03 -1.54
 H  1.29  1.05 -2.38
 H  2.74  1.20 -3.12
 H  2.53  1.46  1.64
 H  3.47  1.95  0.20
 H  5.10  0.08  0.64
 H  4.48  0.05  2.30
 H  3.64 -1.92  0.22
 H  2.65 -1.50  1.65
