17
set: 1234.00  0.00  0.00
 C -1.05 -0.01 -1.04
 C -0.65  1.05  0.04
 C -1.00 -0.04  1.10
 C -0.61 -1.08  0.01
 C  0.90 -1.18 -0.03
 C  1.61 -0.03 -0.04
 C  0.87  1.28  0.00
 H -2.14 -0.02 -1.19
 H -0.53  0.00 -2.01
 H -1.20  2.00  0.06
 H -0.43 -0.05  2.04
 H -2.08 -0.05  1.30
 H -1.10 -2.06  0.01
 H  1.39 -2.15 -0.06
 H  2.70 -0.03 -0.06
 H  1.14  1.90 -0.88
 H  1.19  1.87  0.88
