15
set: 2712.00  0.00  0.00
 C  1.15  0.10  0.37
 N  2.51  0.19 -0.14
 C  3.30 -1.04 -0.16
 C  3.59 -1.59  1.16
 C  3.80 -2.03  2.28
 C  3.17  1.41 -0.10
 N  2.74  2.58  0.22
 H  0.53  0.90 -0.07
 H  1.11  0.17  1.47
 H  0.72 -0.87  0.07
 H  4.25 -0.82 -0.69
 H  2.77 -1.79 -0.77
 H  3.99 -2.42  3.26
 H  4.22  1.32 -0.44
 H  1.76  2.54  0.55
