18
set: 2149.00  0.00  0.00
 C  0.93 -0.05  0.03
 C  2.39 -0.02  0.01
 C  3.60 -0.01 -0.01
 C  5.06  0.02 -0.02
 C  5.67  1.44 -0.03
 C  5.35  2.22 -1.30
 N  6.00  3.55 -1.26
 H  0.51  0.97  0.04
 H  0.55 -0.57  0.93
 H  0.53 -0.57 -0.85
 H  5.43 -0.54 -0.89
 H  5.44 -0.52  0.87
 H  6.77  1.36  0.08
 H  5.30  1.99  0.85
 H  4.25  2.26 -1.43
 H  5.76  1.68 -2.17
 H  5.56  4.11 -0.52
 H  5.82  4.04 -2.13
