16
set: 6081.00  0.00  0.00
 N  1.03  0.02 -0.50
 C  2.41  0.10  0.04
 C  3.23 -1.15 -0.19
 C  4.11 -0.99 -1.19
 C  4.07  0.40 -1.78
 C  3.21  1.19 -0.75
 O  2.36  2.17 -1.31
 H  0.35 -0.22  0.22
 H  0.97 -0.69 -1.23
 H  2.32  0.38  1.10
 H  3.06 -2.07  0.37
 H  4.77 -1.77 -1.56
 H  5.07  0.83 -1.91
 H  3.59  0.41 -2.77
 H  3.90  1.69 -0.05
 H  1.47  1.74 -1.28
