16
set: 5679.00  0.00  0.00
 C  1.01 -0.12  0.37
 N  2.44 -0.12  0.08
 C  3.14 -1.32  0.17
 C  2.61 -2.52  0.51
 C  3.04  1.10 -0.28
 C  4.53  1.08 -0.58
 O  2.39  2.14 -0.34
 H  0.65  0.91  0.25
 H  0.83 -0.46  1.40
 H  0.48 -0.79 -0.32
 H  4.20 -1.25 -0.06
 H  1.56 -2.66  0.75
 H  3.26 -3.39  0.54
 H  5.12  0.75  0.29
 H  4.82  2.11 -0.83
 H  4.77  0.42 -1.42
