14
set: 5212.00  0.00  0.00
 C  0.95 -0.54  0.19
 C  2.48 -0.45  0.04
 C  2.94  0.97 -0.12
 N  3.74  1.47  0.74
 O  4.02  2.84  0.37
 C  4.88  3.47  1.24
 O  5.39  3.02  2.23
 H  0.64 -1.59  0.25
 H  0.43 -0.09 -0.67
 H  0.61 -0.03  1.10
 H  2.79 -1.01 -0.86
 H  2.99 -0.89  0.91
 H  2.56  1.56 -0.97
 H  5.01  4.50  0.84
