13
set: 6553.00  0.00  0.00
 O  0.92 -0.03  0.39
 C  2.28 -0.01 -0.02
 C  3.16  1.05  0.72
 N  3.51 -0.02  1.69
 C  3.19 -1.06  0.68
 C  2.31  0.03 -1.48
 N  2.41  0.05 -2.65
 H  0.93 -0.06  1.36
 H  2.61  1.90  1.14
 H  3.99  1.40  0.09
 H  4.48 -0.02  2.02
 H  4.03 -1.37  0.03
 H  2.67 -1.95  1.06
