14
set: 4886.00  0.00  0.00
 C  0.99 -0.06 -0.00
 C  2.48  0.07 -0.08
 O  3.12 -0.37 -1.31
 C  3.16  1.02 -0.98
 C  4.52  1.60 -0.63
 C  5.29  1.99 -1.81
 N  5.89  2.31 -2.76
 H  0.60  0.54  0.83
 H  0.70 -1.10  0.17
 H  0.52  0.28 -0.93
 H  3.04 -0.24  0.82
 H  2.53  1.66 -1.62
 H  5.10  0.86 -0.05
 H  4.39  2.50  0.00
