13
set: 3749.00  0.00  0.00
 C  0.93  0.14 -0.07
 C  2.43 -0.03 -0.02
 C  3.10 -1.22  0.09
 C  2.48 -2.54  0.19
 O  3.14 -3.58  0.29
 C  3.18  1.18 -0.10
 C  3.77  2.24 -0.17
 H  0.61  0.79  0.75
 H  0.39 -0.81 -0.01
 H  0.65  0.65 -1.01
 H  4.19 -1.21  0.12
 H  1.37 -2.58  0.16
 H  4.32  3.16 -0.23
