20
set: 5333.00  0.00  0.00
 C  1.30 -0.77 -0.08
 C  2.78 -0.68 -0.47
 N  3.06 -0.98 -1.89
 C  3.35  0.71 -0.12
 C  4.86  0.86 -0.34
 C  5.73  0.08  0.66
 O  5.50  0.45  2.03
 H  1.15 -0.60  1.00
 H  0.89 -1.76 -0.32
 H  0.71 -0.02 -0.63
 H  3.33 -1.44  0.12
 H  2.50 -0.36 -2.48
 H  2.73 -1.93 -2.10
 H  3.11  0.93  0.93
 H  2.82  1.46 -0.73
 H  5.13  1.93 -0.28
 H  5.12  0.52 -1.35
 H  6.79  0.21  0.39
 H  5.51 -0.99  0.61
 H  5.74  1.39  2.12
