13
set: 4327.00  0.00  0.00
 O  1.23 -0.04  0.63
 C  2.50 -0.02  0.00
 C  2.80 -1.24 -0.87
 C  3.47 -0.65 -2.08
 C  3.40  0.70 -2.13
 C  2.64  1.17 -0.96
 O  2.14  2.27 -0.75
 H  0.94  0.89  0.68
 H  3.31  0.09  0.76
 H  1.85 -1.74 -1.15
 H  3.42 -2.01 -0.37
 H  3.95 -1.27 -2.84
 H  3.76  1.34 -2.92
