15
set: 4533.00  0.00  0.00
 O  0.96  0.08 -0.48
 C  2.05  0.11  0.35
 O  2.19 -0.74  1.19
 C  3.00  1.27  0.12
 C  2.44  2.73  0.18
 C  3.74  3.14  0.94
 C  4.00  1.63  1.23
 H  0.98  0.86 -1.07
 H  3.51  1.10 -0.85
 H  1.55  2.79  0.83
 H  2.22  3.24 -0.76
 H  4.48  3.56  0.26
 H  3.62  3.81  1.80
 H  5.03  1.26  1.13
 H  3.62  1.32  2.21
