19
set: 1837.00  0.00  0.00
 C  0.97  0.00  0.11
 C  2.49  0.01 -0.05
 C  3.03 -1.33 -0.60
 N  2.64 -1.48 -2.01
 C  3.23 -0.41 -2.82
 C  2.70  0.93 -2.32
 N  2.93  1.16 -0.89
 H  0.62  0.98  0.45
 H  0.67 -0.76  0.85
 H  0.47 -0.24 -0.84
 H  2.94  0.17  0.94
 H  2.62 -2.17 -0.02
 H  4.14 -1.34 -0.47
 H  2.93 -2.39 -2.35
 H  4.34 -0.40 -2.77
 H  2.94 -0.57 -3.88
 H  3.17  1.76 -2.88
 H  1.62  0.99 -2.52
 H  3.93  1.29 -0.74
