16
set: 799.00  0.00  0.00
 C  0.80  1.83 -1.28
 C  0.42  0.55 -0.54
 C  1.61 -0.04  0.21
 O  1.17 -1.23  0.88
 C  2.12 -1.89  1.61
 C  3.41 -1.58  1.78
 H -0.07  2.25 -1.81
 H  1.59  1.65 -2.02
 H  1.17  2.61 -0.59
 H  0.03 -0.20 -1.24
 H -0.39  0.75  0.19
 H  2.01  0.68  0.95
 H  2.43 -0.29 -0.49
 H  1.67 -2.77  2.07
 H  3.89 -0.71  1.33
 H  4.03 -2.23  2.40
