15
set: 4035.00  0.00  0.00
 C  2.67 -1.31 -1.25
 C  2.56 -0.44 -0.02
 O  1.98 -0.78  1.00
 C  3.26  0.93 -0.10
 C  4.71  0.73  0.38
 C  4.94  0.91  1.86
 O  5.59  0.42 -0.41
 H  2.10 -0.86 -2.07
 H  2.30 -2.31 -1.04
 H  3.72 -1.34 -1.58
 H  2.73  1.63  0.55
 H  3.29  1.29 -1.13
 H  4.81  1.97  2.13
 H  5.95  0.58  2.13
 H  4.18  0.34  2.42
