16
set: 6130.00  0.00  0.00
 N  0.77  0.41  0.43
 C  2.12  0.00  0.04
 C  3.25  0.82  0.76
 O  3.94 -0.40  1.15
 C  2.81 -1.21  0.75
 C  2.23  0.06 -1.46
 C  2.80 -0.83 -2.27
 H  0.65  0.32  1.44
 H  0.08 -0.19 -0.02
 H  2.87  1.38  1.63
 H  3.87  1.47  0.13
 H  3.11 -2.07  0.13
 H  2.23 -1.57  1.62
 H  1.79  0.97 -1.88
 H  3.26 -1.75 -1.90
 H  2.83 -0.66 -3.35
