14
set: 678.00  0.00  0.00
 C  1.05  0.08  0.01
 C  2.52 -0.08 -0.07
 C  3.30 -1.18 -0.11
 C  4.75 -0.76 -0.08
 C  4.63  0.75 -0.33
 O  3.23  1.11 -0.07
 H  0.55 -0.89  0.01
 H  0.68  0.67 -0.85
 H  0.76  0.62  0.92
 H  2.93 -2.20 -0.09
 H  5.21 -0.99  0.90
 H  5.36 -1.25 -0.85
 H  4.83  1.00 -1.39
 H  5.25  1.37  0.32
