15
set: 3956.00  0.00  0.00
 C  1.21  0.06  1.15
 C  2.03  0.36 -0.07
 O  1.79 -0.11 -1.18
 C  3.23  1.30  0.08
 C  3.17  2.64 -0.68
 C  3.44  3.27  0.70
 O  3.32  1.98  1.37
 H  1.86 -0.31  1.96
 H  0.43 -0.67  0.92
 H  0.77  0.99  1.54
 H  4.14  0.71 -0.13
 H  2.18  2.86 -1.10
 H  3.93  2.79 -1.45
 H  4.45  3.70  0.82
 H  2.69  3.99  1.07
