17
set: 1853.00  0.00  0.00
 C  0.96  0.03 -0.04
 C  2.48 -0.04  0.04
 C  3.12  1.12  0.84
 N  4.40  0.55  1.23
 C  4.38 -0.83  1.34
 N  5.33 -1.50  1.89
 C  3.05 -1.28  0.74
 H  0.56 -0.80 -0.64
 H  0.62  0.97 -0.52
 H  0.51 -0.02  0.96
 H  2.90  0.00 -0.98
 H  2.49  1.37  1.72
 H  3.25  2.03  0.24
 H  5.08  1.07  1.78
 H  5.13 -2.50  1.84
 H  3.18 -2.15  0.07
 H  2.39 -1.60  1.57
