19
set: 2871.00  0.00  0.00
 N  0.99  0.03  0.09
 C  2.46  0.01  0.04
 C  2.95 -1.33 -0.53
 C  2.62 -1.48 -2.02
 N  3.11 -0.37 -2.85
 C  2.63  0.93 -2.34
 C  2.95  1.17 -0.85
 H  0.66  0.91  0.50
 H  0.66 -0.72  0.71
 H  2.92  0.14  1.05
 H  2.50 -2.16  0.05
 H  4.04 -1.40 -0.38
 H  3.04 -2.42 -2.42
 H  1.53 -1.53 -2.15
 H  4.13 -0.37 -2.84
 H  3.05  1.73 -2.96
 H  1.53  0.95 -2.48
 H  4.05  1.27 -0.73
 H  2.51  2.12 -0.51
