16
set: 4643.00  0.00  0.00
 C  0.94  0.01  0.10
 C  2.45  0.08 -0.01
 C  3.22  1.06  0.93
 C  4.17 -0.14  1.21
 N  3.18 -1.07  0.62
 C  5.49 -0.03  0.49
 O  5.80 -0.69 -0.49
 H  0.54 -0.82 -0.49
 H  0.48  0.94 -0.27
 H  0.63 -0.14  1.15
 H  2.75  0.24 -1.06
 H  2.64  1.35  1.82
 H  3.66  1.95  0.47
 H  4.40 -0.32  2.28
 H  3.62 -1.70 -0.06
 H  6.19  0.73  0.92
