17
set: 4227.00  0.00  0.00
 C  2.36 -1.10  0.74
 O  3.52 -0.73 -0.01
 C  3.92  0.57  0.22
 C  5.23  0.90  0.26
 C  6.34 -0.09  0.15
 O  5.70  2.19  0.38
 C  4.73  3.23  0.50
 H  2.08 -2.11  0.42
 H  1.51 -0.42  0.53
 H  2.56 -1.09  1.82
 H  3.11  1.31  0.30
 H  5.95 -1.11  0.16
 H  7.05  0.04  0.99
 H  6.91  0.07 -0.78
 H  5.30  4.16  0.59
 H  4.11  3.09  1.40
 H  4.08  3.27 -0.39
