17
set: 1040.00  0.00  0.00
 C  1.35  1.88 -1.10
 C  2.58  1.34 -0.39
 O  3.67  2.25 -0.59
 C  4.86  1.81  0.06
 C  5.93  2.87 -0.13
 N  5.55  4.10  0.58
 H  0.50  1.20 -0.96
 H  1.54  1.99 -2.18
 H  1.08  2.87 -0.70
 H  2.85  0.34 -0.79
 H  2.39  1.22  0.69
 H  5.20  0.85 -0.38
 H  4.67  1.66  1.14
 H  6.09  3.01 -1.22
 H  6.87  2.50  0.30
 H  4.67  4.45  0.18
 H  6.24  4.83  0.41
