19
set: 3541.00  0.00  0.00
 C  1.16  0.15  0.19
 C  2.65 -0.04 -0.12
 C  2.86 -0.78 -1.45
 C  3.38  1.29 -0.12
 C  3.82  1.95  1.19
 C  4.84  1.38  0.24
 O  5.76  2.19 -0.46
 H  1.01  0.68  1.14
 H  0.63 -0.81  0.24
 H  0.67  0.76 -0.60
 H  3.08 -0.66  0.69
 H  2.43 -0.21 -2.28
 H  2.36 -1.77 -1.43
 H  3.92 -0.94 -1.65
 H  3.06  1.98 -0.90
 H  3.62  1.43  2.13
 H  3.74  3.04  1.25
 H  5.34  0.46  0.55
 H  5.30  2.99 -0.76
