17
set: 426.00  0.00  0.00
 C  0.65  1.05  0.82
 C  2.14  1.05  0.96
 C  3.01  1.44  0.02
 C  4.51  1.43  0.16
 C  5.12  2.83  0.05
 N  6.59  2.75  0.07
 H  0.23  0.04  0.95
 H  0.34  1.42 -0.17
 H  0.17  1.69  1.59
 H  2.54  0.69  1.92
 H  2.62  1.80 -0.94
 H  4.96  0.80 -0.63
 H  4.79  0.98  1.13
 H  4.69  3.47  0.85
 H  4.83  3.28 -0.91
 H  6.91  2.43  0.99
 H  6.99  3.69 -0.04
