17
set: 3316.00  0.00  0.00
 C  0.81  0.09  0.16
 C  2.32  0.06  0.02
 C  3.17  1.02  0.87
 O  4.02 -0.06  1.35
 C  3.12 -1.05  0.76
 C  3.81 -2.10 -0.05
 C  5.13 -2.15 -0.27
 H  0.34 -0.76 -0.37
 H  0.39  1.01 -0.27
 H  0.51  0.04  1.21
 H  2.62  0.10 -1.04
 H  2.61  1.49  1.71
 H  3.75  1.79  0.35
 H  2.50 -1.53  1.55
 H  3.15 -2.87 -0.46
 H  5.79 -1.39  0.15
 H  5.57 -2.94 -0.87
