16
set: 4820.00  0.00  0.00
 C  0.92 -0.01  0.39
 C  2.32 -0.03 -0.21
 N  3.30  1.00  0.27
 C  4.13 -0.01  1.01
 C  5.62 -0.00  0.70
 C  3.26 -1.10  0.37
 O  3.30 -2.31  0.32
 H  0.34 -0.88  0.05
 H  0.38  0.90  0.08
 H  0.95 -0.03  1.49
 H  2.26 -0.06 -1.31
 H  2.86  1.69  0.90
 H  3.97 -0.00  2.11
 H  5.78 -0.00 -0.39
 H  6.10 -0.89  1.13
 H  6.10  0.89  1.12
