16
set: 6136.00  0.00  0.00
 N  0.88  0.16  0.12
 C  2.32 -0.01  0.01
 C  3.16  0.92  0.90
 O  3.80 -0.20  1.58
 C  2.92 -1.15  0.87
 C  3.74 -2.22  0.18
 O  4.49 -2.99  1.12
 H  0.40 -0.61 -0.36
 H  0.59  1.01 -0.36
 H  2.70 -0.04 -1.03
 H  2.54  1.51  1.60
 H  3.90  1.57  0.40
 H  2.19 -1.59  1.57
 H  4.41 -1.75 -0.57
 H  3.08 -2.92 -0.35
 H  5.01 -2.35  1.64
