13
set: 4371.00  0.00  0.00
 O  0.90  0.09  0.33
 C  2.10 -0.00  0.14
 C  2.94  1.25 -0.08
 O  4.32  1.17  0.34
 C  4.93 -0.03  0.11
 C  4.31 -1.20 -0.08
 C  2.82 -1.34  0.03
 H  2.49  2.10  0.45
 H  2.92  1.45 -1.17
 H  6.02  0.08  0.11
 H  4.91 -2.08 -0.27
 H  2.37 -1.87 -0.83
 H  2.53 -1.93  0.91
