14
set: 6712.00  0.00  0.00
 O  3.26 -1.50  0.63
 C  2.93 -0.50 -0.35
 C  3.03  0.84  0.30
 C  3.77  1.85 -0.17
 C  3.86  3.21  0.47
 C  3.46  4.29 -0.44
 N  3.15  5.14 -1.17
 H  3.01 -2.37  0.27
 H  1.90 -0.65 -0.71
 H  3.61 -0.56 -1.22
 H  2.44  0.97  1.21
 H  4.37  1.71 -1.08
 H  4.89  3.42  0.80
 H  3.22  3.25  1.37
