16
set: 2034.00  0.00  0.00
 C  3.50 -1.20 -2.38
 C  3.55 -0.67 -1.29
 C  3.63 -0.01  0.00
 C  4.40  1.32 -0.06
 C  3.75  2.54 -0.77
 C  4.24  3.36  0.45
 N  4.39  2.09  1.21
 H  3.44 -1.68 -3.34
 H  4.12 -0.67  0.73
 H  2.62  0.19  0.40
 H  5.42  1.13 -0.45
 H  2.66  2.45 -0.80
 H  4.13  2.80 -1.76
 H  5.20  3.88  0.23
 H  3.54  4.08  0.89
 H  5.24  2.02  1.77
