18
set: 2243.00  0.00  0.00
 C  3.12 -1.50  1.22
 C  2.79 -0.57  0.08
 C  2.10 -0.96 -1.00
 C  3.26  0.86  0.23
 N  4.72  0.93  0.39
 C  5.48  1.03 -0.86
 C  5.32  2.22  0.04
 H  4.20 -1.49  1.41
 H  2.80 -2.52  1.01
 H  2.64 -1.16  2.15
 H  1.74 -1.99 -1.11
 H  1.87 -0.27 -1.81
 H  2.81  1.30  1.14
 H  2.91  1.46 -0.64
 H  4.91  1.04 -1.80
 H  6.42  0.48 -0.89
 H  6.15  2.55  0.67
 H  4.65  3.02 -0.31
