15
set: 3367.00  0.00  0.00
 C  0.97 -0.02  0.35
 C  2.41 -0.06 -0.12
 C  2.84  1.21 -0.84
 O  4.22  1.15 -1.23
 C  4.53 -0.07 -1.80
 C  3.73 -1.15 -1.72
 O  2.55 -1.19 -1.01
 H  0.83  0.77  1.10
 H  0.69 -0.98  0.79
 H  0.29  0.18 -0.50
 H  3.09 -0.22  0.74
 H  2.75  2.09 -0.19
 H  2.22  1.36 -1.74
 H  5.48 -0.08 -2.32
 H  3.97 -2.09 -2.21
