18
set: 6077.00  0.00  0.00
 N  0.96  0.01  0.05
 C  2.42  0.02  0.04
 C  3.11  1.09  0.92
 C  4.15  0.02  1.34
 C  3.14 -1.07  0.88
 C  3.66 -2.31  0.17
 O  4.38 -3.20  1.04
 H  0.61 -0.78 -0.50
 H  0.60  0.85 -0.41
 H  2.86  0.05 -0.98
 H  2.46  1.36  1.76
 H  3.48  2.01  0.43
 H  5.04  0.04  0.69
 H  4.48  0.01  2.38
 H  2.49 -1.36  1.72
 H  4.28 -2.01 -0.69
 H  2.82 -2.91 -0.22
 H  5.12 -2.69  1.41
