18
set: 2497.00  0.00  0.00
 C  1.15 -0.66 -0.13
 C  2.66 -0.47 -0.22
 N  3.03  0.92  0.08
 C  4.49  1.11  0.08
 C  4.87  2.44  0.55
 C  5.19  3.54  0.97
 C  5.57  4.86  1.45
 H  0.88 -1.69 -0.39
 H  0.64  0.02 -0.82
 H  0.79 -0.46  0.89
 H  3.01 -0.69 -1.24
 H  3.17 -1.19  0.45
 H  2.67  1.18  1.00
 H  4.85  0.98 -0.96
 H  5.02  0.35  0.69
 H  4.68  5.51  1.55
 H  6.26  5.35  0.75
 H  6.06  4.80  2.43
