16
set: 6082.00  0.00  0.00
 N  1.19  0.02  0.50
 C  2.52 -0.10 -0.11
 C  2.65 -1.31 -1.07
 C  3.56 -0.79 -2.15
 C  3.68  0.55 -2.10
 C  2.89  1.14 -0.97
 O  3.54  2.18 -0.23
 H  1.17  0.86  1.08
 H  1.01 -0.76  1.12
 H  3.34 -0.19  0.64
 H  1.65 -1.55 -1.48
 H  3.03 -2.22 -0.58
 H  4.01 -1.43 -2.90
 H  4.24  1.17 -2.81
 H  1.96  1.61 -1.34
 H  4.41  1.83  0.03
