17
set: 3414.00  0.00  0.00
 C  0.96  0.06  0.15
 C  2.45 -0.09 -0.04
 O  3.23  0.96  0.63
 C  4.18 -0.03  1.15
 C  5.53  0.04  0.45
 C  3.22 -1.18  0.73
 O  3.71 -2.32  0.06
 H  0.43 -0.78 -0.33
 H  0.60  0.99 -0.31
 H  0.70  0.07  1.22
 H  2.70 -0.11 -1.12
 H  4.31  0.10  2.24
 H  5.43 -0.06 -0.64
 H  6.19 -0.76  0.82
 H  6.00  1.00  0.65
 H  2.64 -1.56  1.59
 H  4.25 -2.02 -0.69
