16
set: 6267.00  0.00  0.00
 N  0.92  0.03 -0.01
 C  2.39 -0.02 -0.03
 C  2.96  1.41 -0.01
 C  4.42  1.43 -0.00
 C  5.63  1.42  0.02
 C  7.09  1.46 -0.00
 O  7.63  2.80 -0.01
 H  0.54 -0.91  0.14
 H  0.57  0.35 -0.91
 H  2.82 -0.56 -0.90
 H  2.73 -0.55  0.88
 H  2.56  1.93  0.88
 H  2.59  1.96 -0.89
 H  7.47  0.88 -0.87
 H  7.50  0.99  0.90
 H  7.13  3.30 -0.68
