17
set: 1345.00  0.00  0.00
 C  2.65 -1.33  0.27
 C  2.16 -0.13 -0.11
 C  2.91  1.12 -0.18
 C  2.30  2.24 -0.63
 C  4.33  1.12  0.29
 C  5.44  0.71 -0.66
 C  5.34  2.14 -0.17
 H  2.01 -2.21  0.29
 H  3.69 -1.45  0.57
 H  1.11 -0.07 -0.41
 H  1.26  2.22 -0.98
 H  2.82  3.20 -0.67
 H  4.45  0.75  1.31
 H  5.16  0.52 -1.70
 H  6.25  0.08 -0.28
 H  6.07  2.48  0.56
 H  5.03  2.89 -0.88
