15
set: 1989.00  0.00  0.00
 C  0.97 -0.07 -0.19
 C  2.42  0.05  0.18
 C  3.14  1.20  0.20
 C  4.61  1.35  0.55
 N  4.89  2.73  0.09
 N  3.71  3.42 -0.10
 C  2.72  2.56 -0.10
 H  0.83 -0.77 -1.03
 H  0.53  0.89 -0.47
 H  0.39 -0.48  0.65
 H  2.93 -0.88  0.44
 H  5.26  0.62  0.04
 H  4.77  1.25  1.64
 H  5.55  3.28  0.63
 H  1.72  2.90 -0.34
