13
set: 5796.00  0.00  0.00
 C  1.04 -0.25  0.13
 N  2.50 -0.20  0.07
 C  3.05  0.96 -0.05
 N  2.34  2.17 -0.23
 O  3.03  3.35  0.22
 C  4.48  1.06 -0.13
 C  5.69  1.12 -0.20
 H  0.74 -1.29  0.33
 H  0.58  0.07 -0.81
 H  0.62  0.38  0.94
 H  1.43  2.16  0.24
 H  3.21  3.82 -0.61
 H  6.76  1.16 -0.26
