14
set: 4937.00  0.00  0.00
 C  0.80  0.34  0.82
 C  1.77  0.40 -0.10
 C  3.06  1.14  0.06
 C  3.17  2.56 -0.61
 C  3.47  3.08  0.81
 O  3.78  4.15  1.30
 N  3.29  1.82  1.35
 H -0.12 -0.21  0.63
 H  0.89  0.85  1.78
 H  1.65 -0.12 -1.05
 H  3.91  0.50 -0.23
 H  2.23  2.94 -1.04
 H  3.99  2.69 -1.32
 H  3.50  1.45  2.27
