17
set: 1902.00  0.00  0.00
 C  1.03 -0.06  0.13
 C  2.53  0.02  0.01
 N  3.09  1.17 -0.18
 C  4.55  1.20 -0.30
 C  5.27  0.01  0.34
 C  4.61 -1.29 -0.11
 N  3.19 -1.19  0.16
 H  0.60 -0.68 -0.67
 H  0.61  0.95  0.05
 H  0.73 -0.50  1.09
 H  4.81  1.27 -1.37
 H  4.90  2.14  0.16
 H  6.34  0.01  0.08
 H  5.20  0.08  1.44
 H  5.02 -2.15  0.44
 H  4.81 -1.45 -1.19
 H  2.63 -2.03  0.07
