13
set: 6193.00  0.00  0.00
 N  2.78 -0.69 -1.29
 C  2.34  0.03 -0.08
 C  2.94  1.40 -0.00
 N  2.20  2.41  0.43
 O  3.06  3.54  0.43
 C  4.27  3.15 -0.02
 C  4.27  1.82 -0.31
 H  2.20 -1.52 -1.42
 H  3.74 -1.04 -1.16
 H  2.57 -0.50  0.87
 H  1.25  0.14 -0.12
 H  5.03  3.93 -0.08
 H  5.09  1.23 -0.70
