14
set: 5896.00  0.00  0.00
 C  2.11 -0.35 -1.57
 O  2.20  0.20 -0.26
 C  3.24  1.18 -0.12
 C  3.41  1.55  1.35
 O  2.80  2.87  1.50
 N  2.57  3.40  0.23
 C  2.85  2.53 -0.67
 H  1.35 -1.14 -1.53
 H  3.08 -0.79 -1.88
 H  1.80  0.40 -2.32
 H  4.17  0.78 -0.57
 H  4.47  1.64  1.63
 H  2.88  0.85  2.01
 H  2.71  2.79 -1.72
