14
set: 378.00  0.00  0.00
 C  1.03  0.06  0.04
 C  2.55 -0.02 -0.01
 C  3.08 -1.21 -0.86
 N  3.43 -0.67 -2.19
 C  3.43  0.61 -2.04
 N  3.15  1.11 -0.77
 H  0.69  0.98  0.55
 H  0.62 -0.80  0.59
 H  0.60  0.05 -0.98
 H  2.96 -0.04  1.01
 H  2.33 -2.02 -0.96
 H  3.98 -1.65 -0.41
 H  3.69  1.31 -2.84
 H  2.69  2.02 -0.71
