14
set: 6344.00  0.00  0.00
 N  1.43  0.03 -0.17
 C  2.79  0.08 -0.18
 C  3.42 -1.25 -0.56
 O  2.72 -2.37 -0.00
 C  3.49  1.24  0.05
 C  4.93  1.38  0.03
 O  5.53  2.44  0.24
 H  0.90  0.81  0.21
 H  1.01 -0.90 -0.08
 H  4.49 -1.26 -0.29
 H  3.35 -1.37 -1.65
 H  2.97 -2.43  0.94
 H  2.94  2.16  0.26
 H  5.52  0.45 -0.18
