13
set: 4356.00  0.00  0.00
 O  0.87 -0.04 -0.41
 C  2.08 -0.02 -0.17
 C  2.81  1.26  0.25
 C  4.27  1.21 -0.18
 O  4.95  0.02  0.31
 C  4.25 -1.12  0.17
 C  2.93 -1.20 -0.15
 H  2.31  2.13 -0.20
 H  2.72  1.36  1.34
 H  4.85  2.06  0.21
 H  4.35  1.19 -1.28
 H  4.88 -1.99  0.34
 H  2.47 -2.18 -0.29
