18
set: 5112.00  0.00  0.00
 C  0.56 -0.82  0.09
 C  2.07 -0.63 -0.08
 C  2.63 -1.55 -1.17
 C  2.43  0.81 -0.39
 O  2.03  1.64  0.72
 N  2.31  2.98  0.42
 C  1.99  3.76  1.39
 H  0.15 -0.16  0.87
 H  0.32 -1.86  0.35
 H  0.03 -0.58 -0.85
 H  2.56 -0.89  0.88
 H  2.18 -1.31 -2.15
 H  2.41 -2.60 -0.95
 H  3.72 -1.45 -1.27
 H  1.92  1.16 -1.31
 H  3.52  0.92 -0.55
 H  2.17  4.82  1.23
 H  1.55  3.40  2.32
