13
set: 6429.00  0.00  0.00
 N  0.92 -0.17 -0.06
 N  2.32 -0.09 -0.01
 C  3.09  1.04  0.15
 C  4.42  0.65  0.14
 C  4.44 -0.76 -0.02
 O  5.61 -1.50 -0.06
 C  3.13 -1.21 -0.11
 H  0.58  0.41 -0.84
 H  0.53  0.21  0.81
 H  2.64  2.02  0.24
 H  5.29  1.29  0.24
 H  5.38 -2.44 -0.18
 H  2.69 -2.19 -0.24
