15
set: 2014.00  0.00  0.00
 C  0.93  0.08  0.05
 C  2.24  0.17 -0.24
 C  3.04  1.39 -0.15
 N  4.33  1.37 -0.29
 C  4.78  2.76 -0.08
 C  3.51  3.64 -0.17
 N  2.46  2.64  0.13
 H  0.40 -0.87 -0.03
 H  0.35  0.93  0.41
 H  2.80 -0.70 -0.56
 H  5.24  2.83  0.93
 H  5.55  3.03 -0.81
 H  3.38  4.05 -1.19
 H  3.50  4.46  0.55
 H  1.54  2.81 -0.27
