16
set: 2819.00  0.00  0.00
 N  1.10  0.04 -0.65
 C  2.23  0.00  0.25
 C  3.49  0.76 -0.11
 C  3.67  1.21 -1.56
 C  3.76 -0.07 -2.35
 C  3.68 -1.15 -1.55
 C  3.49 -0.77 -0.12
 H  0.50  0.84 -0.42
 H  0.53 -0.80 -0.55
 H  2.03 -0.02  1.33
 H  3.99  1.31  0.68
 H  4.58  1.82 -1.67
 H  2.83  1.83 -1.91
 H  3.82 -0.10 -3.44
 H  3.70 -2.19 -1.89
 H  3.97 -1.36  0.66
