13
set: 6982.00  0.00  0.00
 C  0.82 -0.01  0.06
 C  2.32 -0.03  0.05
 C  3.19  1.06  0.01
 N  2.80  2.40  0.04
 N  4.53  0.76  0.03
 C  4.72 -0.53  0.07
 S  3.27 -1.49  0.09
 H  0.46  0.80  0.72
 H  0.41 -0.95  0.45
 H  0.40  0.15 -0.94
 H  3.57  3.01 -0.22
 H  1.97  2.61 -0.51
 H  5.70 -1.01  0.09
