19
set: 3758.00  0.00  0.00
 C  0.83 -0.20  0.03
 C  2.35 -0.14 -0.09
 C  2.87 -1.09 -1.17
 C  2.86  1.31 -0.34
 O  2.39  1.85 -1.58
 C  2.60  2.22  0.83
 C  2.10  3.46  0.76
 H  0.45  0.49  0.80
 H  0.50 -1.22  0.30
 H  0.34  0.05 -0.92
 H  2.79 -0.44  0.88
 H  2.51 -0.78 -2.16
 H  2.52 -2.12 -0.98
 H  3.97 -1.11 -1.20
 H  3.96  1.25 -0.48
 H  1.43  2.02 -1.47
 H  2.84  1.79  1.81
 H  1.87  3.92 -0.20
 H  1.94  4.05  1.66
