17
set: 509.00  0.00  0.00
 C  0.83 -0.29 -0.02
 C  2.35 -0.14  0.03
 N  3.10 -1.13 -0.77
 C  2.81  1.27 -0.40
 C  2.33  2.37  0.51
 C  1.61  3.43  0.13
 H  0.32  0.45  0.61
 H  0.52 -1.29  0.32
 H  0.47 -0.16 -1.06
 H  2.68 -0.29  1.08
 H  2.82 -1.03 -1.76
 H  2.81 -2.07 -0.50
 H  2.47  1.46 -1.43
 H  3.91  1.26 -0.42
 H  2.63  2.28  1.56
 H  1.29  3.56 -0.91
 H  1.31  4.20  0.84
