15
set: 6275.00  0.00  0.00
 N  1.25 -0.21 -0.78
 C  2.21  0.14  0.29
 C  2.87  1.47  0.03
 C  2.13  2.73  0.05
 C  0.80  2.83  0.15
 N  4.16  1.37 -0.17
 O  4.77  2.63 -0.40
 H  0.83 -1.12 -0.57
 H  1.75 -0.32 -1.66
 H  3.02 -0.60  0.43
 H  1.64  0.21  1.23
 H  2.74  3.64 -0.01
 H  0.16  1.95  0.16
 H  0.31  3.81  0.19
 H  5.71  2.36 -0.49
