15
set: 4445.00  0.00  0.00
 O  2.84 -0.94 -0.53
 C  2.26  0.22  0.10
 C  1.82 -0.17  1.44
 C  1.44 -0.44  2.56
 C  3.23  1.39  0.14
 C  3.38  2.24 -1.10
 C  2.71  2.80  0.13
 H  3.28 -0.61 -1.34
 H  1.36  0.54 -0.47
 H  1.11 -0.69  3.55
 H  4.13  1.19  0.73
 H  2.75  2.02 -1.96
 H  4.38  2.60 -1.35
 H  3.23  3.54  0.73
 H  1.62  2.94  0.09
