21
set: 2502.00  0.00  0.00
 C  0.82 -0.35 -0.24
 C  2.32 -0.64 -0.38
 N  2.69 -1.29 -1.66
 C  3.15  0.63 -0.19
 C  4.67  0.44 -0.24
 C  5.25 -0.45  0.86
 N  4.91  0.07  2.20
 H  0.59  0.09  0.74
 H  0.23 -1.26 -0.37
 H  0.50  0.37 -1.02
 H  2.60 -1.35  0.42
 H  2.40 -0.69 -2.44
 H  2.16 -2.16 -1.77
 H  2.87  1.08  0.78
 H  2.86  1.36 -0.97
 H  5.16  1.44 -0.19
 H  4.96  0.01 -1.21
 H  6.34 -0.55  0.69
 H  4.83 -1.46  0.77
 H  5.40  0.95  2.36
 H  5.26 -0.58  2.92
