15
set: 5971.00  0.00  0.00
 C  3.24 -1.09 -0.81
 O  2.49 -0.07 -0.15
 C  3.15  1.10  0.09
 C  4.43  1.39 -0.21
 N  5.04  2.62  0.10
 C  6.32  3.00 -0.26
 N  7.22  2.38 -0.93
 H  2.56 -1.95 -0.91
 H  4.11 -1.39 -0.20
 H  3.58 -0.76 -1.80
 H  2.49  1.82  0.59
 H  5.08  0.67 -0.71
 H  4.49  3.29  0.63
 H  6.55  4.00  0.12
 H  6.91  1.45 -1.26
