21
set: 1438.00  0.00  0.00
 C  1.10 -0.13 -0.19
 C  2.62 -0.29 -0.10
 C  3.14 -1.23 -1.19
 C  3.30  1.09 -0.16
 C  4.80  1.09  0.01
 C  5.34  0.59  1.32
 C  5.62  1.53 -0.96
 H  0.71  0.52  0.61
 H  0.59 -1.11 -0.10
 H  0.81  0.31 -1.15
 H  2.85 -0.74  0.88
 H  2.91 -0.83 -2.19
 H  2.68 -2.22 -1.11
 H  4.23 -1.36 -1.13
 H  2.86  1.73  0.63
 H  3.04  1.57 -1.12
 H  4.90  1.14  2.17
 H  6.43  0.68  1.38
 H  5.08 -0.47  1.48
 H  5.23  1.90 -1.91
 H  6.71  1.54 -0.83
