17
set: 4192.00  0.00  0.00
 C  0.76  0.78  0.38
 O  2.15  0.54  0.20
 C  2.87  1.75 -0.06
 C  4.33  1.40 -0.27
 C  5.21  2.64 -0.54
 C  4.88  3.35 -1.77
 C  4.61  3.92 -2.80
 H  0.29 -0.19  0.58
 H  0.31  1.24 -0.52
 H  0.58  1.45  1.24
 H  2.75  2.45  0.79
 H  2.46  2.25 -0.96
 H  4.42  0.70 -1.12
 H  4.71  0.88  0.62
 H  6.27  2.33 -0.57
 H  5.12  3.34  0.31
 H  4.37  4.44 -3.71
