15
set: 1861.00  0.00  0.00
 C  0.86  0.07  0.10
 C  2.40  0.04  0.09
 C  3.06  1.12 -0.71
 N  3.86  0.67 -1.62
 N  3.84 -0.78 -1.56
 C  3.03 -1.15 -0.61
 C  2.78 -2.58 -0.28
 H  0.50  0.99  0.57
 H  0.45 -0.78  0.66
 H  0.47  0.03 -0.93
 H  2.77  0.08  1.13
 H  2.92  2.19 -0.57
 H  3.35 -3.22 -0.96
 H  1.71 -2.82 -0.37
 H  3.07 -2.80  0.76
