15
set: 614.00  0.00  0.00
 N  1.06 -0.09  0.22
 C  2.42  0.14 -0.30
 C  2.56 -0.61 -1.61
 C  3.48 -1.55 -1.85
 C  2.60  1.62 -0.53
 C  3.56  2.37  0.03
 H  0.95  0.40  1.11
 H  0.93 -1.09  0.40
 H  3.23 -0.20  0.38
 H  1.83 -0.34 -2.38
 H  4.22 -1.83 -1.09
 H  3.54 -2.06 -2.81
 H  1.86  2.08 -1.20
 H  4.30  1.93  0.71
 H  3.64  3.44 -0.17
