19
set: 2426.00  0.00  0.00
 C  2.04 -0.77  0.92
 C  2.26  0.21 -0.25
 C  3.25  1.32  0.07
 N  2.90  2.55  0.31
 N  4.58  0.96  0.18
 C  5.14 -0.18 -0.53
 C  5.54  2.03  0.47
 H  1.28 -1.52  0.66
 H  1.71 -0.23  1.81
 H  2.97 -1.30  1.18
 H  1.30  0.69 -0.50
 H  2.57 -0.34 -1.15
 H  1.88  2.63  0.27
 H  4.47 -1.04 -0.50
 H  6.08 -0.47 -0.05
 H  5.36  0.05 -1.59
 H  5.09  2.73  1.17
 H  5.82  2.59 -0.44
 H  6.45  1.58  0.91
