15
set: 4108.00  0.00  0.00
 C  3.08 -1.16  0.51
 O  2.35  0.05  0.30
 C  3.07  1.20  0.17
 C  2.53  2.43 -0.03
 C  3.63  3.39 -0.12
 C  4.83  2.76  0.02
 C  4.58  1.29  0.22
 H  2.33 -1.96  0.58
 H  3.67 -1.12  1.44
 H  3.75 -1.37 -0.34
 H  1.47  2.66 -0.11
 H  3.49  4.46 -0.28
 H  5.82  3.22 -0.00
 H  5.06  0.68 -0.56
 H  4.98  0.94  1.19
