16
set: 1945.00  0.00  0.00
 C  2.50 -0.60 -1.41
 C  2.43  0.05 -0.02
 C  2.91  1.47  0.02
 C  2.22  2.67  0.14
 C  3.16  3.73  0.08
 C  4.41  3.17 -0.07
 N  4.25  1.80 -0.11
 H  2.12 -1.64 -1.38
 H  3.54 -0.64 -1.78
 H  1.91 -0.04 -2.14
 H  2.99 -0.56  0.71
 H  1.38  0.05  0.33
 H  1.14  2.76  0.26
 H  2.95  4.80  0.15
 H  5.40  3.62 -0.15
 H  5.00  1.12 -0.21
