15
set: 3914.00  0.00  0.00
 C  0.62 -0.05  0.19
 C  2.08 -0.39  0.05
 C  2.59 -1.63  0.14
 O  2.81  0.75 -0.18
 C  4.21  0.60 -0.33
 C  4.81  1.97 -0.57
 O  6.00  2.16 -0.73
 H  0.47  0.66  1.02
 H  0.03 -0.95  0.38
 H  0.26  0.43 -0.73
 H  1.92 -2.47  0.33
 H  3.65 -1.86  0.04
 H  4.46 -0.06 -1.19
 H  4.67  0.16  0.57
 H  4.06  2.81 -0.60
