18
set: 5482.00  0.00  0.00
 C  4.04 -0.93 -0.95
 C  2.88 -0.25 -0.24
 O  2.48 -0.99  0.95
 C  3.09  1.19  0.13
 C  4.18  1.93 -0.12
 C  4.34  3.37  0.29
 N  5.59  3.55  1.05
 H  4.25 -0.45 -1.92
 H  3.79 -1.98 -1.13
 H  4.96 -0.90 -0.34
 H  1.98 -0.31 -0.88
 H  3.19 -0.86  1.60
 H  2.25  1.65  0.67
 H  5.04  1.50 -0.64
 H  3.42  3.70  0.81
 H  4.43  3.99 -0.62
 H  5.50  3.09  1.96
 H  5.74  4.54  1.24
