17
set: 5176.00  0.00  0.00
 C  1.40 -0.19 -1.22
 C  2.37 -0.38 -0.05
 C  3.15  0.89  0.31
 N  4.04  1.32 -0.77
 C  4.07  2.64 -1.19
 N  5.12  2.92 -2.08
 O  3.28  3.50 -0.81
 H  0.87 -1.13 -1.45
 H  1.93  0.13 -2.12
 H  0.64  0.58 -0.99
 H  3.07 -1.20 -0.27
 H  1.81 -0.69  0.86
 H  3.73  0.73  1.23
 H  2.47  1.73  0.49
 H  4.89  0.78 -0.92
 H  5.38  2.18 -2.73
 H  4.97  3.82 -2.54
