19
set: 2218.00  0.00  0.00
 C  0.90 -0.39  0.14
 C  2.37 -0.21 -0.24
 C  2.79 -1.19 -1.34
 C  2.66  1.25 -0.68
 C  2.49  2.26  0.41
 N  1.61  3.20  0.33
 N  1.45  4.03  1.41
 H  0.59  0.31  0.92
 H  0.71 -1.42  0.50
 H  0.25 -0.22 -0.74
 H  2.98 -0.41  0.66
 H  2.21 -1.02 -2.26
 H  2.62 -2.23 -1.02
 H  3.86 -1.09 -1.58
 H  2.01  1.52 -1.52
 H  3.70  1.29 -1.05
 H  3.13  2.16  1.31
 H  1.11  4.94  1.09
 H  2.29  4.13  2.00
