14
set: 886.00  0.00  0.00
 O  1.06 -0.15  0.01
 C  2.46 -0.09 -0.01
 C  3.13 -0.75 -1.17
 C  3.18  0.77 -1.06
 C  4.41  1.51 -0.70
 C  5.61  0.99 -0.41
 H  0.74  0.60  0.54
 H  2.96 -0.16  0.96
 H  2.47 -1.15 -1.94
 H  4.04 -1.32 -0.99
 H  2.49  1.29 -1.72
 H  4.29  2.60 -0.64
 H  5.80 -0.09 -0.46
 H  6.44  1.62 -0.11
