18
set: 293.00  0.00  0.00
 C  0.95 -0.13 -0.24
 C  2.47  0.06 -0.04
 C  3.26 -0.84 -1.01
 C  2.88  1.52 -0.15
 C  2.68  2.21 -1.48
 C  3.40  2.17  0.90
 H  0.38  0.50  0.46
 H  0.67 -1.18 -0.06
 H  0.64  0.12 -1.26
 H  2.71 -0.26  0.99
 H  3.02 -0.62 -2.06
 H  3.01 -1.90 -0.83
 H  4.34 -0.72 -0.87
 H  1.63  2.19 -1.79
 H  3.26  1.72 -2.28
 H  3.00  3.26 -1.42
 H  3.54  1.66  1.86
 H  3.69  3.22  0.84
