16
set: 598.00  0.00  0.00
 N  1.08  0.03  0.55
 C  2.42 -0.02 -0.06
 C  3.28  1.17  0.42
 C  4.16  0.56  1.53
 N  4.45 -0.82  1.09
 C  3.19 -1.27  0.48
 H  0.57 -0.83  0.34
 H  0.54  0.79  0.12
 H  2.39 -0.05 -1.17
 H  2.65  2.00  0.76
 H  3.92  1.54 -0.41
 H  5.09  1.11  1.72
 H  3.59  0.52  2.47
 H  5.18 -0.78  0.37
 H  3.40 -2.02 -0.30
 H  2.57 -1.75  1.25
