14
set: 5886.00  0.00  0.00
 C  1.76 -0.49 -1.24
 O  1.93  0.24 -0.03
 C  2.99  1.15 -0.09
 C  2.72  2.57 -0.72
 N  3.08  3.13  0.59
 C  3.25  1.93  1.24
 O  3.51  1.63  2.39
 H  0.94 -1.21 -1.06
 H  2.68 -1.05 -1.50
 H  1.48  0.16 -2.08
 H  3.91  0.68 -0.49
 H  1.66  2.72 -1.00
 H  3.39  2.87 -1.54
 H  3.15  4.09  0.92
