13
set: 5290.00  0.00  0.00
 C  0.87  0.08 -0.18
 C  2.19  0.05 -0.00
 C  3.00  1.30 -0.05
 O  2.52  2.42 -0.24
 N  4.37  1.09  0.14
 C  5.31  2.12  0.13
 N  6.58  2.02  0.30
 H  0.26 -0.83 -0.15
 H  0.37  1.03 -0.36
 H  2.71 -0.90  0.18
 H  4.70  0.14  0.29
 H  4.85  3.10 -0.04
 H  6.87  1.04  0.44
