16
set: 1821.00  0.00  0.00
 C  1.26  0.08  0.58
 C  2.42 -0.06 -0.06
 C  3.00 -1.38 -0.58
 N  4.48 -1.22 -0.63
 C  4.71  0.22 -0.69
 C  4.01  0.99 -1.77
 C  3.42  0.99 -0.35
 H  0.89  1.06  0.90
 H  0.62 -0.78  0.81
 H  2.62 -1.57 -1.60
 H  2.73 -2.24  0.04
 H  4.86 -1.55  0.26
 H  5.69  0.55 -0.35
 H  4.47  1.92 -2.09
 H  3.49  0.45 -2.55
 H  3.41  1.92  0.22
