15
set: 4008.00  0.00  0.00
 C  1.30  0.35 -0.68
 C  2.55 -0.44 -0.34
 O  3.68  0.46 -0.41
 C  4.90 -0.06 -0.13
 C  5.20 -1.33  0.20
 C  6.53 -1.74  0.47
 C  7.66 -2.12  0.70
 H  0.42 -0.31 -0.64
 H  1.37  0.77 -1.69
 H  1.15  1.17  0.03
 H  2.71 -1.27 -1.05
 H  2.49 -0.86  0.68
 H  5.67  0.71 -0.21
 H  4.42 -2.10  0.28
 H  8.66 -2.46  0.90
