16
set: 6562.00  0.00  0.00
 O  0.95  0.14  0.66
 C  2.27 -0.01  0.10
 C  3.16  1.14  0.63
 N  4.39  0.55  1.19
 C  3.97 -0.79  1.65
 C  2.99 -1.26  0.61
 C  2.83 -2.50  0.12
 H  0.45 -0.66  0.45
 H  2.21 -0.02 -1.01
 H  2.59  1.65  1.43
 H  3.41  1.89 -0.14
 H  5.06  0.42  0.43
 H  4.83 -1.45  1.79
 H  3.47 -0.68  2.63
 H  2.15 -2.70 -0.71
 H  3.36 -3.35  0.54
