15
set: 1326.00  0.00  0.00
 C  0.90 -0.16  0.06
 C  2.38  0.00  0.11
 C  3.08  1.16  0.03
 C  2.57  2.53 -0.14
 C  3.64  3.37 -0.17
 C  4.88  2.59 -0.03
 C  4.55  1.27  0.09
 H  0.62 -0.82 -0.77
 H  0.38  0.80 -0.06
 H  0.53 -0.64  0.98
 H  2.96 -0.92  0.24
 H  1.52  2.81 -0.22
 H  3.61  4.45 -0.29
 H  5.88  3.01 -0.03
 H  5.22  0.42  0.21
