16
set: 2591.00  0.00  0.00
 C  0.95  0.00  0.12
 N  2.40  0.01  0.07
 C  3.11  1.04  0.86
 C  4.20 -0.03  1.22
 C  3.12 -1.07  0.76
 C  5.41  0.01  0.43
 C  6.44  0.04 -0.22
 H  0.56 -0.86 -0.44
 H  0.55  0.91 -0.36
 H  0.55 -0.05  1.16
 H  2.56  1.35  1.77
 H  3.44  1.92  0.30
 H  4.45 -0.08  2.29
 H  3.46 -1.89  0.12
 H  2.58 -1.48  1.64
 H  7.34  0.07 -0.80
