14
set: 5025.00  0.00  0.00
 C  0.95 -0.04 -0.02
 C  2.41 -0.01 -0.01
 C  3.62  0.00  0.01
 C  5.08  0.04  0.02
 C  5.62  1.45 -0.02
 N  6.44  1.82  0.89
 O  6.85  3.16  0.69
 H  0.54  0.98 -0.01
 H  0.56 -0.56  0.87
 H  0.57 -0.55 -0.91
 H  5.47 -0.51 -0.86
 H  5.49 -0.46  0.91
 H  5.29  2.13 -0.82
 H  7.44  3.31  1.45
