16
set: 6398.00  0.00  0.00
 N  1.20 -0.33  0.58
 C  2.39 -0.20 -0.09
 O  2.85 -1.10 -0.79
 C  3.10  1.14  0.10
 C  4.63  0.99  0.13
 C  5.33  2.32  0.08
 C  6.15  2.80  1.02
 H  0.78  0.44  1.09
 H  0.63 -1.16  0.40
 H  2.74  1.65  1.01
 H  2.80  1.77 -0.75
 H  4.91  0.37 -0.73
 H  4.93  0.44  1.04
 H  5.13  2.93 -0.81
 H  6.37  2.23  1.92
 H  6.63  3.77  0.91
