17
set: 1586.00  0.00  0.00
 C -1.69  0.76  0.45
 C -1.08 -0.37 -0.31
 C -0.27 -1.43  0.41
 N  1.10 -1.41 -0.13
 C  1.72 -0.06 -0.17
 C  0.80  1.02  0.40
 N -0.48  0.99 -0.34
 H -2.59  1.25  0.07
 H -1.61  0.74  1.54
 H -1.52 -0.67 -1.27
 H -0.32 -1.25  1.51
 H -0.70 -2.42  0.23
 H  1.69 -2.05  0.41
 H  2.67 -0.05  0.38
 H  1.95  0.21 -1.21
 H  0.66  0.88  1.49
 H  1.25  2.02  0.26
