13
set: 1749.00  0.00  0.00
 C  0.93  0.03 -0.01
 C  2.41  0.06 -0.00
 C  3.27  1.11  0.00
 C  4.64  0.53  0.00
 N  4.67 -0.77 -0.00
 C  3.29 -1.16 -0.00
 N  2.97 -2.40 -0.01
 H  0.51  1.05  0.00
 H  0.53 -0.50  0.87
 H  0.54 -0.49 -0.90
 H  3.03  2.17  0.00
 H  5.56  1.12  0.01
 H  1.94 -2.49 -0.01
