14
set: 5447.00  0.00  0.00
 C -0.71  1.96  1.67
 C -0.61  0.61  1.05
 N  0.27  0.40  0.14
 O  0.17 -0.97 -0.29
 C  1.08 -1.28 -1.30
 C  0.90 -2.74 -1.65
 O  1.87 -0.52 -1.78
 H -0.55  1.89  2.76
 H -1.72  2.37  1.52
 H  0.03  2.64  1.24
 H -1.29 -0.19  1.39
 H  1.22 -3.37 -0.81
 H  1.50 -2.97 -2.53
 H -0.16 -2.97 -1.84
