18
set: 5439.00  0.00  0.00
 C  1.08  1.08 -0.56
 C  2.51  0.84 -0.20
 N  3.34  1.82 -0.23
 O  4.64  1.40  0.12
 C  5.52  2.55  0.15
 C  5.24  3.41  1.38
 C  6.93  1.98  0.13
 H  0.78  0.45 -1.41
 H  0.91  2.13 -0.82
 H  0.42  0.81  0.28
 H  2.84 -0.17  0.07
 H  5.34  3.13 -0.77
 H  5.42  2.84  2.30
 H  4.20  3.75  1.37
 H  5.90  4.30  1.39
 H  7.11  1.35  1.02
 H  7.67  2.79  0.14
 H  7.09  1.36 -0.76
