17
set: 1739.00  0.00  0.00
 C  0.90  0.26  0.37
 C  2.36  0.13 -0.03
 C  3.37  1.07  0.71
 C  4.02 -0.19  1.35
 N  3.10 -1.01  0.57
 C  2.78 -2.33  0.70
 N  3.34 -3.23  1.44
 H  0.29 -0.55 -0.06
 H  0.49  1.22 -0.01
 H  0.78  0.24  1.46
 H  2.46  0.16 -1.13
 H  2.89  1.76  1.42
 H  4.03  1.64  0.04
 H  5.08 -0.35  1.11
 H  3.88 -0.28  2.44
 H  1.93 -2.64  0.06
 H  4.12 -2.82  1.98
