14
set: 4635.00  0.00  0.00
 C  1.06 -0.10  0.27
 C  2.36  0.01 -0.03
 C  3.20  1.28 -0.11
 C  4.54  0.84 -0.72
 C  4.50 -0.69 -0.72
 O  5.40 -1.47 -1.01
 N  3.22 -1.05 -0.32
 H  0.55 -1.06  0.31
 H  0.47  0.80  0.48
 H  3.34  1.68  0.91
 H  2.69  2.05 -0.69
 H  4.67  1.16 -1.76
 H  5.42  1.18 -0.16
 H  2.94 -2.03 -0.30
