19
set: 1358.00  0.00  0.00
 C  2.29 -0.36  1.75
 C  2.21 -0.02  0.25
 C  2.93  1.26 -0.12
 C  2.25  2.35 -0.51
 C  4.42  1.22 -0.03
 C  5.23  0.74 -1.22
 C  5.32  2.18 -0.78
 H  1.74 -1.29  1.96
 H  1.85  0.45  2.35
 H  3.32 -0.51  2.08
 H  1.16  0.06 -0.05
 H  2.65 -0.85 -0.33
 H  1.16  2.34 -0.60
 H  2.76  3.29 -0.75
 H  4.80  0.88  0.93
 H  4.69  0.53 -2.15
 H  6.09  0.08 -1.04
 H  6.23  2.51 -0.28
 H  4.85  2.93 -1.42
