14
set: 6665.00  0.00  0.00
 O  2.82 -0.94 -0.78
 C  2.35  0.09  0.11
 C  3.37  1.19  0.14
 N  3.49  2.15 -0.96
 C  2.91  2.60  0.34
 C  3.66  3.54  1.13
 C  4.26  4.34  1.82
 H  2.23 -1.70 -0.70
 H  2.21 -0.31  1.13
 H  1.38  0.50 -0.24
 H  4.34  0.91  0.57
 H  2.72  2.00 -1.62
 H  1.82  2.74  0.38
 H  4.81  5.04  2.41
