22
set: 2278.00  0.00  0.00
 C  4.27 -0.99 -0.61
 C  3.22 -0.43  0.35
 C  3.42  1.06  0.69
 C  2.25  1.59  1.54
 N  4.77  1.31  1.26
 C  5.18  2.71  1.17
 C  4.97  0.79  2.61
 H  4.08 -2.06 -0.82
 H  5.28 -0.90 -0.18
 H  4.26 -0.46 -1.57
 H  3.20 -1.02  1.28
 H  2.22 -0.53 -0.09
 H  3.42  1.61 -0.27
 H  2.14  1.02  2.47
 H  1.31  1.50  0.98
 H  2.38  2.65  1.80
 H  5.07  3.06  0.13
 H  6.24  2.79  1.45
 H  4.60  3.39  1.83
 H  4.70 -0.27  2.65
 H  4.40  1.33  3.39
 H  6.04  0.87  2.86
