17
set: 1498.00  0.00  0.00
 C  0.98 -0.14 -0.01
 C  2.51 -0.05 -0.03
 C  3.01  1.32 -0.01
 C  3.40  2.48  0.02
 C  3.85  3.87  0.04
 C  2.71  4.85 -0.11
 C  2.45  5.84  0.75
 H  0.65 -1.19 -0.01
 H  0.55  0.36 -0.89
 H  0.57  0.35  0.89
 H  2.90 -0.57 -0.92
 H  2.92 -0.59  0.84
 H  4.57  4.02 -0.78
 H  4.40  4.07  0.97
 H  2.08  4.71 -0.99
 H  3.06  6.00  1.64
 H  1.62  6.53  0.58
