20
set: 2343.00  0.00  0.00
 C  1.13  0.09  0.17
 C  2.63 -0.04 -0.04
 C  2.96 -0.73 -1.37
 N  3.26  1.28 -0.00
 C  3.22  2.03  1.28
 C  4.66  2.53  0.99
 C  4.75  1.34  0.01
 H  0.89  0.58  1.13
 H  0.64 -0.89  0.16
 H  0.69  0.70 -0.64
 H  3.04 -0.67  0.79
 H  2.56 -0.15 -2.21
 H  2.51 -1.74 -1.40
 H  4.04 -0.85 -1.51
 H  3.20  1.36  2.17
 H  2.42  2.77  1.37
 H  4.66  3.50  0.48
 H  5.36  2.55  1.83
 H  5.22  1.50 -0.97
 H  5.21  0.45  0.49
