13
set: 6421.00  0.00  0.00
 N  1.00 -0.31 -0.35
 C  2.32 -0.27  0.11
 O  2.75 -1.01  0.99
 N  3.09  0.70 -0.52
 C  4.42  0.99  0.01
 C  5.30  1.55 -1.01
 C  6.03  2.04 -1.84
 H  0.84 -0.09 -1.32
 H  0.53 -1.17 -0.05
 H  2.61  1.47 -0.98
 H  4.82  0.04  0.40
 H  4.37  1.69  0.87
 H  6.69  2.46 -2.58
