15
set: 5186.00  0.00  0.00
 C  0.95 -0.09  0.23
 C  2.44 -0.08  0.04
 C  3.17 -1.21  0.01
 N  3.05  1.19 -0.08
 N  4.47  1.22 -0.23
 C  2.40  2.40 -0.18
 O  2.99  3.47 -0.31
 H  0.63  0.49  1.11
 H  0.62 -1.13  0.37
 H  0.41  0.31 -0.65
 H  2.67 -2.17  0.12
 H  4.24 -1.20 -0.16
 H  4.86  1.06  0.71
 H  4.65  2.22 -0.45
 H  1.30  2.31 -0.16
