14
set: 739.00  0.00  0.00
 C  0.94 -0.17 -0.08
 C  2.41  0.06 -0.12
 C  3.08  1.23  0.01
 C  2.49  2.59  0.21
 C  4.55  1.15 -0.07
 O  5.31  2.10  0.01
 H  0.68 -0.87  0.72
 H  0.60 -0.64 -1.02
 H  0.36  0.75  0.07
 H  3.02 -0.84 -0.26
 H  1.40  2.59  0.20
 H  2.85  3.28 -0.56
 H  2.83  3.01  1.17
 H  4.95  0.11 -0.22
