17
set: 3602.00  0.00  0.00
 C  0.71 -0.26 -0.22
 C  2.16  0.05 -0.03
 C  2.74  1.26  0.11
 C  2.03  2.58  0.08
 C  4.25  1.36  0.27
 C  4.86  1.76 -1.06
 O  5.34  2.85 -1.32
 H  0.55 -0.82 -1.16
 H  0.08  0.64 -0.26
 H  0.33 -0.90  0.59
 H  2.82 -0.83  0.02
 H  0.96  2.48 -0.13
 H  2.46  3.25 -0.68
 H  2.14  3.10  1.05
 H  4.67  0.38  0.55
 H  4.53  2.11  1.02
 H  4.80  0.96 -1.85
