13
set: 4318.00  0.00  0.00
 O  0.96  0.01  0.03
 C  2.39  0.07 -0.03
 C  2.87  1.41  0.50
 C  3.66  1.27  1.58
 C  3.84 -0.17  1.91
 O  4.50 -0.94  0.84
 C  3.07 -0.94  0.91
 H  0.67 -0.71 -0.55
 H  2.75 -0.08 -1.07
 H  2.62  2.34  0.00
 H  4.14  2.08  2.12
 H  4.06 -0.53  2.92
 H  2.58 -1.89  1.12
