17
set: 7094.00  0.00  0.00
 C  3.83 -0.72  1.38
 N  3.76 -0.24 -0.01
 C  4.20  1.04 -0.34
 S  3.17  2.10 -1.16
 N  5.48  1.35  0.02
 C  6.51  0.33  0.18
 C  5.98  2.71 -0.13
 H  3.30 -1.67  1.44
 H  3.37 -0.01  2.09
 H  4.87 -0.90  1.69
 H  2.83 -0.35 -0.40
 H  6.12 -0.65 -0.13
 H  6.89  0.27  1.21
 H  7.36  0.58 -0.48
 H  5.15  3.42  0.00
 H  6.42  2.87 -1.13
 H  6.75  2.89  0.64
