17
set: 5444.00  0.00  0.00
 C  2.26  0.88  2.06
 C  3.07  0.22  0.94
 N  3.66  1.15 -0.03
 O  2.59  1.86 -0.70
 C  4.68  2.04  0.38
 C  5.76  1.39  1.21
 N  4.80  3.27  0.03
 H  1.83  0.11  2.72
 H  1.44  1.47  1.64
 H  2.89  1.54  2.67
 H  2.44 -0.48  0.37
 H  3.90 -0.37  1.35
 H  2.67  1.55 -1.62
 H  5.42  1.19  2.24
 H  6.61  2.08  1.26
 H  6.10  0.44  0.78
 H  3.96  3.54 -0.50
