17
set: 354.00  0.00  0.00
 C  0.87  0.03 -0.26
 C  2.35  0.03  0.05
 C  2.69  0.02  1.53
 C  3.27 -0.73 -0.90
 C  3.27  0.77 -0.93
 N  4.48  1.50 -0.58
 H  0.68  0.10 -1.34
 H  0.37  0.89  0.22
 H  0.38 -0.89  0.11
 H  3.77  0.07  1.71
 H  2.31 -0.89  2.01
 H  2.23  0.89  2.04
 H  2.82 -1.27 -1.74
 H  4.14 -1.22 -0.47
 H  2.75  1.23 -1.78
 H  5.09  0.94  0.01
 H  4.25  2.35 -0.06
