17
set: 3929.00  0.00  0.00
 C  1.01  0.06 -0.19
 C  2.52  0.03 -0.42
 C  3.21  1.36 -0.17
 O  2.59  2.41 -0.04
 C  4.73  1.39 -0.06
 C  5.44  0.79 -1.28
 O  5.17  2.72  0.16
 H  0.57 -0.92 -0.40
 H  0.53  0.80 -0.85
 H  0.77  0.33  0.84
 H  2.75 -0.26 -1.46
 H  3.01 -0.74  0.21
 H  4.99  0.77  0.83
 H  5.14  1.32 -2.19
 H  5.22 -0.28 -1.39
 H  6.52  0.91 -1.16
 H  4.33  3.24  0.22
