16
set: 1662.00  0.00  0.00
 C  1.03  0.01 -0.01
 C  2.37 -0.01  0.00
 C  3.34 -1.18  0.04
 C  4.64 -0.36 -0.04
 C  4.33  0.67 -1.16
 C  3.33  1.15 -0.06
 N  4.34  0.71  1.01
 H  0.45 -0.91  0.03
 H  0.48  0.95 -0.04
 H  3.22 -1.88 -0.80
 H  3.28 -1.74  0.99
 H  5.60 -0.89  0.03
 H  3.94  0.32 -2.13
 H  5.15  1.39 -1.30
 H  2.93  2.17 -0.01
 H  5.12  1.39  0.95
