17
set: 3234.00  0.00  0.00
 C  0.95  0.14 -0.11
 C  2.44 -0.00 -0.03
 C  3.19 -1.11 -0.04
 C  2.79 -2.55 -0.15
 C  4.64 -0.73  0.07
 O  4.67  0.71  0.16
 C  3.33  1.20  0.10
 H  0.45 -0.83 -0.22
 H  0.66  0.76 -0.97
 H  0.55  0.63  0.79
 H  3.23 -3.02 -1.04
 H  1.70 -2.66 -0.21
 H  3.14 -3.13  0.72
 H  5.12 -1.16  0.97
 H  5.24 -1.06 -0.80
 H  3.22  1.89 -0.77
 H  3.11  1.79  1.01
