14
set: 4565.00  0.00  0.00
 C -1.39  0.63  0.12
 C -1.50 -0.86 -0.20
 C -0.30 -1.63  0.23
 C  0.93 -1.10  0.43
 C  1.40  0.26  0.19
 N  0.90  1.33 -0.34
 O -0.45  1.36 -0.70
 H -2.34  1.14 -0.08
 H -1.12  0.78  1.18
 H -1.69 -0.98 -1.28
 H -2.40 -1.26  0.31
 H -0.43 -2.70  0.43
 H  1.71 -1.77  0.79
 H  2.46  0.42  0.42
