13
set: 2782.00  0.00  0.00
 C  2.84 -1.05  0.39
 N  2.27  0.09  0.25
 N  3.05  1.21  0.15
 C  2.45  2.45 -0.01
 C  3.44  3.40 -0.08
 C  4.69  2.72  0.04
 C  4.43  1.37  0.18
 H  2.17 -1.91  0.47
 H  3.92 -1.22  0.45
 H  1.36  2.51 -0.05
 H  3.29  4.47 -0.20
 H  5.68  3.17  0.02
 H  5.11  0.53  0.29
