16
set: 6147.00  0.00  0.00
 N  1.08  0.09  0.59
 C  2.45 -0.00  0.08
 C  2.69  1.18 -0.87
 O  4.04  1.20 -1.38
 C  4.48 -0.02 -1.81
 C  3.88 -1.20 -1.57
 C  2.65 -1.30 -0.70
 H  1.00  0.85  1.27
 H  0.84 -0.77  1.10
 H  3.23  0.05  0.87
 H  2.56  2.14 -0.36
 H  1.98  1.11 -1.71
 H  5.41  0.07 -2.38
 H  4.33 -2.10 -1.98
 H  1.75 -1.51 -1.30
 H  2.76 -2.15  0.00
