17
set: 1271.00  0.00  0.00
 C  1.05  0.05  0.19
 C  2.56 -0.04 -0.06
 C  2.94 -1.27 -0.93
 C  3.51 -0.68 -2.19
 C  3.58  0.66 -2.13
 C  3.08  1.17 -0.86
 C  3.07  2.45 -0.46
 H  0.79  0.96  0.76
 H  0.69 -0.82  0.76
 H  0.50  0.09 -0.76
 H  3.08 -0.08  0.91
 H  2.07 -1.92 -1.13
 H  3.68 -1.92 -0.42
 H  3.83 -1.29 -3.04
 H  3.97  1.31 -2.92
 H  2.68  2.74  0.52
 H  3.45  3.25 -1.10
