19
set: 2514.00  0.00  0.00
 C  1.39 -0.35 -0.23
 C  2.59  0.41 -0.79
 N  2.83  1.71 -0.16
 C  1.99  2.84 -0.54
 C  2.61  3.72 -1.64
 C  3.82  1.85  0.79
 N  4.18  2.88  1.48
 H  1.26 -1.30 -0.76
 H  0.46  0.22 -0.34
 H  1.53 -0.56  0.84
 H  2.46  0.57 -1.88
 H  3.51 -0.19 -0.68
 H  1.77  3.44  0.35
 H  1.02  2.44 -0.88
 H  3.58  4.12 -1.31
 H  1.95  4.56 -1.88
 H  2.79  3.14 -2.55
 H  4.36  0.91  0.96
 H  3.62  3.71  1.25
