17
set: 3333.00  0.00  0.00
 C  0.95  0.03 -0.02
 C  2.47 -0.01  0.03
 C  3.13  1.09  0.89
 O  4.45  0.61  1.16
 C  4.33 -0.81  1.39
 C  3.08 -1.26  0.65
 C  2.61 -2.50  0.60
 H  0.55 -0.77 -0.66
 H  0.59  0.99 -0.43
 H  0.51 -0.09  0.99
 H  2.87  0.10 -0.99
 H  2.56  1.22  1.84
 H  3.22  2.06  0.39
 H  5.25 -1.29  1.03
 H  4.22 -1.01  2.48
 H  1.68 -2.74  0.06
 H  3.12 -3.33  1.09
