13
set: 3417.00  0.00  0.00
 C  0.91  0.08 -0.00
 C  2.25 -0.02 -0.00
 O  2.99  1.18 -0.00
 C  4.35  1.15 -0.00
 C  5.08  0.02 -0.00
 C  4.38 -1.24 -0.00
 C  3.02 -1.25 -0.00
 H  0.41  1.04 -0.00
 H  0.31 -0.83  0.00
 H  4.76  2.16 -0.00
 H  6.17  0.08 -0.00
 H  4.94 -2.18  0.00
 H  2.45 -2.18  0.00
