21
set: 1492.00  0.00  0.00
 C  2.93 -0.94 -0.97
 C  2.59 -0.16  0.30
 C  3.13  1.29  0.32
 C  2.58  2.06  1.53
 C  2.92  3.55  1.54
 C  4.64  1.30  0.31
 C  5.42  1.83 -0.64
 H  2.52 -1.96 -0.93
 H  4.02 -1.02 -1.11
 H  2.52 -0.45 -1.86
 H  2.97 -0.69  1.18
 H  1.49 -0.11  0.42
 H  2.78  1.80 -0.60
 H  2.96  1.58  2.46
 H  1.48  1.93  1.55
 H  4.00  3.71  1.55
 H  2.50  4.05  2.43
 H  2.51  4.05  0.65
 H  5.11  0.82  1.18
 H  4.99  2.31 -1.52
 H  6.51  1.79 -0.57
