16
set: 319.00  0.00  0.00
 C  0.96 -0.12  0.01
 C  2.49 -0.04  0.01
 C  3.01  1.40  0.00
 C  4.55  1.48  0.01
 C  5.07  2.84  0.00
 C  5.47  3.99 -0.01
 H  0.62 -1.16  0.01
 H  0.54  0.37 -0.88
 H  0.54  0.38  0.89
 H  2.89 -0.57 -0.87
 H  2.89 -0.56  0.90
 H  2.62  1.95  0.88
 H  2.63  1.94 -0.88
 H  4.95  0.94 -0.87
 H  4.94  0.95  0.90
 H  5.83  4.99 -0.01
