14
set: 6848.00  0.00  0.00
 O  1.08  0.90  1.43
 N  2.48  0.72  1.26
 C  2.89  1.28  0.18
 C  4.34  1.20 -0.17
 C  4.98  2.58 -0.25
 C  6.06  2.87 -1.21
 O  4.72  3.34 -1.45
 H  0.92  0.43  2.26
 H  2.20  1.82 -0.48
 H  4.46  0.71 -1.14
 H  4.86  0.60  0.59
 H  4.94  3.17  0.67
 H  6.40  2.08 -1.89
 H  6.79  3.65 -0.98
