17
set: 1012.00  0.00  0.00
 C  1.26 -0.27  0.47
 C  2.51  0.21 -0.27
 C  2.59 -0.37 -1.69
 N  2.74 -1.83 -1.67
 C  2.58  1.74 -0.28
 O  3.78  2.28 -0.84
 H  1.27  0.03  1.53
 H  1.18 -1.36  0.41
 H  0.35  0.16  0.01
 H  3.40 -0.16  0.29
 H  3.40  0.16 -2.24
 H  1.65 -0.13 -2.22
 H  3.69 -2.08 -1.37
 H  2.64 -2.20 -2.62
 H  2.41  2.12  0.74
 H  1.76  2.14 -0.91
 H  4.51  2.07 -0.23
