17
set: 3492.00  0.00  0.00
 C  2.99 -1.17 -0.52
 C  2.48  0.07  0.21
 C  3.43  1.25  0.09
 C  3.40  2.17 -1.11
 O  2.47  1.88 -2.13
 C  2.92  2.68  0.22
 O  3.71  3.67  0.84
 H  2.30 -2.02 -0.40
 H  3.97 -1.49 -0.12
 H  3.11 -0.98 -1.59
 H  2.32 -0.15  1.28
 H  1.50  0.35 -0.20
 H  4.43  1.08  0.49
 H  4.37  2.55 -1.45
 H  2.18  2.72 -2.52
 H  1.84  2.80  0.32
 H  3.71  3.49  1.80
