19
set: 6321.00  0.00  0.00
 N  0.99 -0.02 -0.27
 C  2.45 -0.02 -0.12
 C  2.96  1.42  0.09
 N  2.31  2.09  1.24
 C  4.48  1.49  0.23
 C  5.02  2.92  0.23
 O  4.58  3.70  1.34
 H  0.62 -0.97 -0.16
 H  0.73  0.27 -1.22
 H  2.99 -0.47 -0.98
 H  2.70 -0.62  0.77
 H  2.68  2.01 -0.80
 H  2.56  1.58  2.10
 H  1.30  1.97  1.14
 H  4.95  0.93 -0.60
 H  4.79  0.99  1.17
 H  4.74  3.40 -0.73
 H  6.13  2.90  0.27
 H  3.62  3.49  1.43
