15
set: 3452.00  0.00  0.00
 C  0.71  0.26  0.17
 C  2.04  0.17  0.31
 C  3.02  1.26  0.06
 C  2.60  2.76 -0.07
 C  3.72  3.19  0.92
 C  3.94  1.70  1.24
 O  4.54  1.10  2.10
 H  0.07 -0.59  0.38
 H  0.23  1.18 -0.17
 H  2.48 -0.78  0.64
 H  3.70  0.98 -0.76
 H  1.60  2.94  0.34
 H  2.65  3.18 -1.08
 H  4.61  3.63  0.43
 H  3.44  3.82  1.77
