17
set: 5787.00  0.00  0.00
 C  0.94 -0.14 -0.18
 N  2.39 -0.21  0.00
 C  2.95 -1.55  0.12
 N  3.05  0.71 -0.76
 C  4.27  0.55 -1.13
 C  4.92  1.69 -1.88
 O  4.03  2.77 -2.10
 H  0.65  0.91 -0.20
 H  0.45 -0.64  0.66
 H  0.61 -0.62 -1.13
 H  2.27 -2.16  0.73
 H  3.93 -1.51  0.63
 H  3.09 -2.04 -0.86
 H  4.88 -0.34 -0.93
 H  5.29  1.31 -2.85
 H  5.81  2.03 -1.31
 H  3.20  2.51 -1.63
