15
set: 3889.00  0.00  0.00
 C  2.67 -0.54  1.41
 C  2.40 -0.01 -0.00
 C  2.87  1.42 -0.20
 O  2.11  2.35 -0.46
 C  4.30  1.64 -0.06
 C  5.50  1.83  0.04
 C  6.93  2.08  0.16
 H  2.32 -1.58  1.50
 H  2.14  0.06  2.16
 H  3.74 -0.52  1.65
 H  1.32 -0.02 -0.24
 H  2.92 -0.64 -0.74
 H  7.15  3.15  0.12
 H  7.47  1.58 -0.66
 H  7.32  1.68  1.11
