14
set: 930.00  0.00  0.00
 O  0.83  0.01 -0.01
 C  2.26  0.04  0.01
 C  2.75  1.47  0.02
 C  1.90  2.51  0.01
 C  4.20  1.69  0.04
 C  5.16  0.74  0.06
 H  0.56 -0.92 -0.01
 H  2.67 -0.47 -0.88
 H  2.66 -0.48  0.90
 H  0.82  2.35 -0.01
 H  2.28  3.53  0.01
 H  4.50  2.74  0.04
 H  4.93 -0.33  0.06
 H  6.21  1.01  0.08
