22
set: 2200.00  0.00  0.00
 C  0.98 -0.53  0.05
 C  2.23 -0.30  0.90
 C  2.66  1.17  1.02
 C  1.59  2.07  1.66
 C  1.18  1.69  3.08
 N  3.92  1.23  1.79
 C  4.66  2.48  1.65
 H  0.79 -1.60 -0.08
 H  1.09 -0.09 -0.95
 H  0.09 -0.09  0.52
 H  3.07 -0.86  0.45
 H  2.09 -0.72  1.91
 H  2.83  1.56 -0.01
 H  0.71  2.09  1.00
 H  1.96  3.11  1.66
 H  0.66  0.72  3.11
 H  0.50  2.44  3.51
 H  2.06  1.61  3.73
 H  4.51  0.45  1.49
 H  4.15  3.29  2.19
 H  4.79  2.80  0.60
 H  5.65  2.36  2.11
