17
set: 5732.00  0.00  0.00
 C  0.82 -0.25 -0.21
 N  2.22 -0.10  0.18
 C  3.00 -1.32  0.26
 C  2.88  1.10  0.03
 N  4.16  1.30  0.07
 C  2.04  2.36 -0.18
 O  2.87  3.49 -0.24
 H  0.25  0.66  0.02
 H  0.37 -1.07  0.37
 H  0.70 -0.48 -1.28
 H  2.34 -2.16  0.53
 H  3.77 -1.24  1.05
 H  3.50 -1.57 -0.69
 H  4.72  0.45  0.18
 H  1.32  2.46  0.65
 H  1.46  2.26 -1.12
 H  3.78  3.10 -0.14
