18
set: 750.00  0.00  0.00
 C  1.00  0.01 -0.01
 C  2.53 -0.04  0.01
 C  3.00 -0.77  1.28
 C  3.05 -0.78 -1.23
 C  3.05  1.41  0.01
 O  4.48  1.54  0.01
 H  0.63  0.54 -0.91
 H  0.60  0.53  0.87
 H  0.57 -1.00 -0.02
 H  2.66 -0.25  2.19
 H  4.10 -0.85  1.32
 H  2.61 -1.80  1.31
 H  2.68 -0.31 -2.16
 H  2.72 -1.83 -1.24
 H  4.15 -0.76 -1.27
 H  2.61  1.95  0.87
 H  2.71  1.92 -0.91
 H  4.80  1.26  0.88
