13
set: 4408.00  0.00  0.00
 O  1.76 -0.64 -0.64
 C  1.95  0.36  0.03
 C  3.23  1.19 -0.05
 C  3.69  1.47 -1.50
 C  3.26  2.90 -1.66
 C  2.90  3.39 -0.47
 O  2.97  2.48  0.57
 H  1.20  0.73  0.77
 H  3.99  0.68  0.56
 H  3.20  0.76 -2.19
 H  4.78  1.35 -1.62
 H  3.29  3.47 -2.59
 H  2.57  4.38 -0.17
