13
set: 1083.00  0.00  0.00
 C  1.12 -0.25 -0.20
 O  2.44 -0.00  0.27
 C  2.89  1.33  0.00
 C  2.34  2.37  0.98
 C  4.36  1.30  0.05
 N  5.53  1.33  0.08
 H  0.92 -1.31 -0.02
 H  1.04 -0.05 -1.29
 H  0.36  0.36  0.32
 H  2.61  1.61 -1.03
 H  2.63  2.11  2.01
 H  1.25  2.42  0.91
 H  2.74  3.36  0.75
