16
set: 5435.00  0.00  0.00
 C  2.84  1.98  3.21
 C  3.41  1.98  1.83
 N  4.43  2.71  1.57
 O  4.82  2.56  0.20
 C  5.95  3.38 -0.05
 C  6.08  3.83 -1.47
 C  5.73  4.83 -0.39
 H  2.85  0.96  3.63
 H  1.79  2.30  3.19
 H  3.41  2.64  3.86
 H  2.96  1.36  1.05
 H  6.84  3.10  0.52
 H  5.28  3.53 -2.15
 H  7.08  3.85 -1.91
 H  6.47  5.56 -0.07
 H  4.69  5.18 -0.36
