15
set: 3558.00  0.00  0.00
 C  0.95 -0.01 -0.01
 C  2.41 -0.02 -0.00
 C  3.63 -0.02 -0.00
 C  5.07 -0.03  0.02
 C  5.83  1.04  0.85
 O  6.68  0.03  1.46
 C  5.81 -1.03  0.95
 H  0.56  0.89  0.49
 H  0.55 -0.89  0.51
 H  0.56 -0.02 -1.04
 H  5.48 -0.08 -1.00
 H  5.19  1.54  1.60
 H  6.41  1.79  0.30
 H  6.39 -1.83  0.47
 H  5.17 -1.44  1.75
