19
set: 1350.00  0.00  0.00
 C  1.28  0.44  1.62
 C  2.65  0.52  1.03
 C  3.05  1.42  0.12
 C  4.44  1.50 -0.46
 C  5.12  2.83 -0.19
 C  6.21  3.33 -1.11
 C  4.86  4.01 -1.10
 H  0.81 -0.54  1.41
 H  0.62  1.22  1.22
 H  1.31  0.54  2.72
 H  3.37 -0.24  1.37
 H  2.34  2.18 -0.22
 H  4.39  1.35 -1.56
 H  5.06  0.68 -0.06
 H  5.24  3.07  0.87
 H  6.46  2.71 -1.97
 H  7.06  3.85 -0.66
 H  4.79  5.01 -0.65
 H  4.21  3.86 -1.96
