13
set: 3873.00  0.00  0.00
 C  0.84  0.12 -0.00
 C  2.33  0.01 -0.01
 C  2.92 -1.35 -0.01
 O  2.24 -2.37 -0.02
 C  3.16  1.09 -0.00
 C  4.57  1.08 -0.00
 C  5.79  1.18  0.00
 H  0.51  1.17  0.00
 H  0.42 -0.39  0.87
 H  0.42 -0.39 -0.88
 H  4.03 -1.39 -0.01
 H  2.70  2.09  0.00
 H  6.85  1.24  0.00
