17
set: 5357.00  0.00  0.00
 C  0.64 -0.22 -0.14
 C  2.17 -0.26 -0.07
 N  2.81 -1.12 -1.08
 C  2.78  1.14 -0.19
 C  2.47  2.04  1.01
 N  2.41  3.38  0.72
 O  2.30  1.61  2.14
 H  0.22  0.39  0.67
 H  0.22 -1.24 -0.04
 H  0.30  0.19 -1.10
 H  2.47 -0.65  0.92
 H  2.48 -0.86 -2.02
 H  2.50 -2.09 -0.95
 H  2.45  1.62 -1.13
 H  3.88  1.04 -0.25
 H  2.69  3.75 -0.18
 H  2.37  4.03  1.51
