18
set: 4632.00  0.00  0.00
 C  0.95 -0.11  0.31
 C  2.37  0.15 -0.16
 C  3.20  1.19  0.62
 C  4.14  0.01  0.96
 C  5.55  0.05  0.39
 N  6.38  0.97  1.18
 O  3.28 -0.93  0.22
 H  0.55 -1.02 -0.16
 H  0.30  0.74  0.03
 H  0.91 -0.23  1.40
 H  2.39  0.29 -1.25
 H  2.69  1.64  1.48
 H  3.65  1.99  0.01
 H  4.19 -0.25  2.03
 H  5.49  0.29 -0.70
 H  5.98 -0.96  0.47
 H  6.12  1.94  0.98
 H  7.36  0.88  0.90
