18
set: 5285.00  0.00  0.00
 C  1.06 -0.23  0.15
 C  2.54 -0.00 -0.23
 C  2.81 -0.94 -1.41
 O  3.27 -2.06 -1.31
 N  2.82  1.37 -0.65
 C  2.39  2.38  0.32
 C  4.25  1.53 -0.94
 H  0.81  0.31  1.07
 H  0.89 -1.30  0.33
 H  0.40  0.11 -0.66
 H  3.18 -0.33  0.61
 H  2.50 -0.51 -2.40
 H  1.30  2.36  0.44
 H  2.66  3.38 -0.07
 H  2.87  2.26  1.31
 H  4.57  0.81 -1.70
 H  4.89  1.38 -0.04
 H  4.44  2.54 -1.33
