19
set: 3837.00  0.00  0.00
 C  0.45  0.22 -0.43
 C  1.72  0.01  0.40
 C  2.57  1.28  0.56
 C  1.91  2.33  1.45
 O  2.73  3.48  1.60
 O  3.83  1.00  1.20
 C  4.82  0.46  0.32
 H -0.08 -0.74 -0.58
 H  0.68  0.63 -1.43
 H -0.26  0.91  0.05
 H  2.34 -0.76 -0.09
 H  1.47 -0.37  1.40
 H  2.77  1.73 -0.43
 H  1.68  1.87  2.43
 H  0.97  2.67  1.00
 H  3.62  3.13  1.83
 H  5.74  0.38  0.90
 H  4.99  1.13 -0.54
 H  4.54 -0.54 -0.06
