17
set: 5451.00  0.00  0.00
 C  1.53  2.19  1.11
 C  2.14  0.88  0.63
 N  3.47  1.00  0.05
 O  3.47  1.79 -1.13
 C  4.59  1.21  0.82
 N  5.55  1.92  0.35
 C  6.77  2.03  1.13
 H  0.51  2.02  1.49
 H  1.47  2.91  0.28
 H  2.13  2.64  1.91
 H  1.50  0.40 -0.13
 H  2.24  0.16  1.46
 H  4.38  2.21 -1.05
 H  4.57  0.69  1.79
 H  7.01  3.10  1.29
 H  7.62  1.60  0.57
 H  6.72  1.53  2.11
