15
set: 1314.00  0.00  0.00
 C  1.17 -0.23 -0.62
 C  2.47 -0.05 -0.29
 C  3.15  1.23 -0.16
 C  4.46  1.40  0.17
 C  4.79  2.86  0.20
 C  3.48  3.52 -0.15
 C  2.54  2.56 -0.36
 H  0.74 -1.23 -0.69
 H  0.50  0.61 -0.81
 H  3.09 -0.93 -0.11
 H  5.18  0.61  0.37
 H  5.59  3.13 -0.51
 H  5.16  3.18  1.19
 H  3.33  4.59 -0.22
 H  1.50  2.74 -0.63
