17
set: 2732.00  0.00  0.00
 C  1.17 -0.35  0.05
 N  2.61 -0.15 -0.14
 C  3.00  1.26 -0.06
 C  4.52  1.42 -0.10
 C  5.22  0.75  1.10
 C  4.94  1.43  2.36
 N  4.71  1.99  3.36
 H  0.93 -1.42 -0.07
 H  0.53  0.23 -0.64
 H  0.90 -0.07  1.08
 H  2.88 -0.51 -1.06
 H  2.62  1.66  0.89
 H  2.54  1.89 -0.86
 H  4.78  2.48 -0.15
 H  4.91  0.96 -1.03
 H  6.31  0.74  0.95
 H  4.88 -0.29  1.18
