18
set: 5876.00  0.00  0.00
 C  1.59 -0.58 -0.96
 O  2.22 -0.01  0.19
 C  3.02  1.14 -0.09
 C  4.22  0.83 -0.97
 C  2.26  2.45 -0.49
 N  2.87  3.18  0.67
 C  3.39  1.88  1.22
 H  0.90 -1.34 -0.58
 H  2.31 -1.06 -1.64
 H  1.01  0.17 -1.53
 H  4.86  1.72 -1.07
 H  3.92  0.53 -1.99
 H  4.82  0.02 -0.53
 H  1.17  2.36 -0.36
 H  2.48  2.87 -1.48
 H  3.65  3.76  0.34
 H  4.45  1.88  1.51
 H  2.78  1.54  2.07
