15
set: 1362.00  0.00  0.00
 C  2.60 -1.10 -0.26
 C  2.05  0.13 -0.21
 C  2.77  1.39 -0.05
 C  2.10  2.56 -0.00
 C  4.29  1.38  0.10
 C  5.00  1.01 -1.12
 C  5.61  0.72 -2.13
 H  1.98 -1.98 -0.37
 H  3.68 -1.26 -0.21
 H  0.96  0.22 -0.28
 H  1.01  2.59 -0.09
 H  2.61  3.52  0.12
 H  4.56  0.67  0.91
 H  4.62  2.37  0.43
 H  6.13  0.47 -3.03
