15
set: 3403.00  0.00  0.00
 C  1.01  0.06  0.12
 C  2.50 -0.03 -0.16
 O  2.74 -1.17 -1.06
 C  3.35 -0.67 -2.17
 C  3.58  0.66 -2.15
 C  3.09  1.18 -0.88
 C  3.11  2.44 -0.41
 H  0.81  0.90  0.81
 H  0.64 -0.87  0.58
 H  0.45  0.24 -0.81
 H  3.06 -0.26  0.76
 H  3.57 -1.40 -2.94
 H  4.05  1.24 -2.94
 H  2.71  2.69  0.58
 H  3.54  3.26 -0.99
