14
set: 6079.00  0.00  0.00
 N  1.05 -0.22 -0.18
 C  2.51 -0.03 -0.13
 C  2.98  1.34  0.32
 C  3.64  1.30  1.49
 C  3.80 -0.11  1.94
 O  4.56 -0.93  0.99
 C  3.13 -0.96  0.92
 H  0.66  0.23 -1.00
 H  0.63  0.24  0.63
 H  2.92 -0.29 -1.13
 H  2.79  2.24 -0.27
 H  4.04  2.16  2.03
 H  3.93 -0.39  2.98
 H  2.64 -1.91  1.14
