15
set: 4203.00  0.00  0.00
 C  1.90  0.04 -0.64
 O  3.23  0.52 -0.48
 C  3.36  1.85 -0.15
 C  2.36  2.72  0.07
 C  4.82  2.22 -0.10
 C  5.42  2.37 -1.49
 O  6.23  3.23 -1.79
 H  1.99 -1.02 -0.92
 H  1.37  0.59 -1.44
 H  1.33  0.12  0.30
 H  1.31  2.44  0.02
 H  2.60  3.75  0.32
 H  5.38  1.40  0.40
 H  4.99  3.14  0.47
 H  5.06  1.63 -2.24
