17
set: 4423.00  0.00  0.00
 O  1.09  0.45 -1.39
 C  1.72  0.11 -0.15
 C  2.91  1.02  0.09
 C  3.62  0.76  1.41
 O  2.81  1.02  2.56
 C  3.76  1.45 -1.08
 C  2.86  2.45 -0.39
 H  0.28 -0.09 -1.46
 H  2.08 -0.94 -0.17
 H  1.02  0.21  0.70
 H  4.56  1.35  1.44
 H  3.90 -0.31  1.49
 H  2.50  1.94  2.48
 H  3.45  1.10 -2.07
 H  4.84  1.53 -0.93
 H  3.33  3.22  0.22
 H  1.96  2.76 -0.93
