17
set: 2549.00  0.00  0.00
 C  1.16  0.16  0.49
 C  2.57  0.11 -0.06
 N  3.15 -0.91 -0.62
 N  3.29  1.27  0.10
 C  2.80  2.67  0.06
 C  4.20  3.09 -0.45
 C  4.53  1.59 -0.62
 H  1.15  0.52  1.53
 H  0.70 -0.84  0.46
 H  0.53  0.84 -0.10
 H  2.52 -1.72 -0.61
 H  2.48  3.07  1.03
 H  2.00  2.83 -0.68
 H  4.22  3.70 -1.36
 H  4.81  3.59  0.32
 H  4.51  1.22 -1.67
 H  5.44  1.21 -0.14
