14
set: 7039.00  0.00  0.00
 C  1.02  0.12  0.15
 C  2.50 -0.08 -0.01
 C  3.16 -1.24 -0.02
 S  3.36  1.49 -0.21
 N  4.99  1.04 -0.37
 O  2.92  2.07 -1.48
 O  3.22  2.22  1.06
 H  0.80  0.73  1.04
 H  0.52 -0.86  0.26
 H  0.59  0.63 -0.72
 H  2.61 -2.18  0.10
 H  4.24 -1.28 -0.15
 H  5.52  1.47  0.39
 H  5.32  1.37 -1.28
