17
set: 3605.00  0.00  0.00
 C  1.51  2.87 -0.84
 C  2.97  2.58 -0.67
 C  3.47  1.42 -0.18
 C  4.88  1.09 -0.00
 C  5.26 -0.15  0.37
 C  5.91  2.18 -0.22
 O  5.87  3.21  0.78
 H  1.22  3.78 -0.28
 H  0.89  2.04 -0.49
 H  1.27  3.08 -1.89
 H  3.66  3.37 -0.99
 H  2.76  0.64  0.12
 H  4.52 -0.94  0.53
 H  6.31 -0.41  0.50
 H  5.79  2.61 -1.23
 H  6.92  1.75 -0.16
 H  4.93  3.41  0.94
