17
set: 4148.00  0.00  0.00
 C  3.59 -1.23  0.11
 O  2.68 -0.19  0.48
 C  3.12  1.09  0.32
 C  4.32  1.51 -0.16
 C  4.65  2.91 -0.28
 C  5.82  3.40 -0.74
 C  6.16  4.85 -0.86
 H  3.07 -2.17  0.32
 H  4.51 -1.18  0.71
 H  3.85 -1.17 -0.96
 H  2.35  1.79  0.63
 H  5.08  0.78 -0.47
 H  3.88  3.62  0.03
 H  6.60  2.68 -1.06
 H  5.32  5.48 -0.53
 H  6.39  5.12 -1.91
 H  7.05  5.11 -0.27
