17
set: 6439.00  0.00  0.00
 N  0.77  1.10 -1.09
 N  2.14  1.21 -1.17
 C  2.85  0.92 -0.13
 C  4.34  1.14 -0.13
 C  4.80  2.60  0.05
 C  4.71  3.46 -1.21
 O  3.38  3.80 -1.61
 H  0.38  0.90 -2.01
 H  0.43  0.43 -0.39
 H  2.37  0.54  0.79
 H  4.76  0.75 -1.07
 H  4.76  0.53  0.69
 H  5.86  2.58  0.36
 H  4.24  3.09  0.87
 H  5.25  2.95 -2.03
 H  5.22  4.42 -1.03
 H  2.89  2.96 -1.73
