13
set: 6119.00  0.00  0.00
 N  1.03  0.07  0.25
 C  2.38 -0.03  0.03
 C  3.18 -1.12 -0.09
 C  4.58 -0.69 -0.22
 O  5.60 -1.37 -0.26
 N  4.55  0.71 -0.32
 C  3.23  1.23 -0.02
 H  0.47 -0.76  0.05
 H  0.58  0.94 -0.03
 H  2.88 -2.17 -0.07
 H  5.39  1.23 -0.06
 H  2.86  1.92 -0.80
 H  3.18  1.76  0.95
