19
set: 1484.00  0.00  0.00
 C  0.99 -0.22  0.02
 C  2.51 -0.02  0.01
 C  3.01  1.45  0.00
 C  2.53  2.19 -1.27
 C  2.53  2.22  1.26
 C  4.48  1.42  0.00
 C  5.69  1.40  0.00
 H  0.75 -1.29  0.03
 H  0.51  0.21 -0.87
 H  0.52  0.23  0.91
 H  2.94 -0.53 -0.86
 H  2.94 -0.51  0.90
 H  2.85  1.66 -2.18
 H  2.95  3.21 -1.31
 H  1.43  2.27 -1.28
 H  2.85  1.70  2.17
 H  1.43  2.30  1.27
 H  2.95  3.23  1.27
 H  6.76  1.37  0.00
