14
set: 6854.00  0.00  0.00
 O  0.95  1.39  0.79
 N  2.30  1.71  0.55
 C  2.97  0.65  0.27
 C  4.40  0.73 -0.01
 C  5.07 -0.42 -0.29
 C  5.06  2.05  0.05
 C  6.13  2.41 -0.68
 H  0.56  2.27  0.99
 H  2.48 -0.33  0.24
 H  4.55 -1.38 -0.35
 H  6.15 -0.43 -0.44
 H  4.61  2.77  0.73
 H  6.57  1.75 -1.42
 H  6.57  3.40 -0.57
