18
set: 2476.00  0.00  0.00
 C  1.47 -0.57  0.81
 C  2.59 -0.06 -0.12
 N  3.41 -1.15 -0.68
 C  2.03  0.83 -1.22
 C  2.01  0.46 -2.51
 C  1.48  2.15 -0.86
 C  1.55  2.77  0.33
 H  0.86  0.25  1.22
 H  1.89 -1.14  1.64
 H  0.80 -1.24  0.24
 H  3.28  0.56  0.48
 H  2.80 -1.86 -1.08
 H  3.91 -1.61  0.09
 H  2.47 -0.48 -2.84
 H  1.58  1.10 -3.28
 H  1.01  2.68 -1.69
 H  2.02  2.32  1.21
 H  1.14  3.77  0.46
