15
set: 4276.00  0.00  0.00
 O  0.82  0.15 -0.13
 C  2.17  0.01  0.22
 C  3.09 -0.93 -0.55
 C  2.58 -1.45 -1.89
 C  2.76 -0.24 -2.82
 O  2.68  0.94 -1.97
 C  3.22  0.57 -0.70
 H  0.83  0.69 -0.95
 H  2.33  0.08  1.30
 H  3.83 -1.51  0.00
 H  3.16 -2.32 -2.24
 H  1.52 -1.75 -1.82
 H  3.74 -0.26 -3.32
 H  1.97 -0.13 -3.59
 H  4.07  1.17 -0.37
