19
set: 2453.00  0.00  0.00
 C  3.10 -1.16 -0.56
 C  2.46  0.05  0.14
 N  1.96 -0.24  1.51
 C  3.40  1.23  0.20
 C  3.55  2.15 -1.00
 C  2.88  2.65  0.25
 N  3.48  3.72  1.01
 H  3.42 -0.90 -1.58
 H  2.40 -2.00 -0.62
 H  3.99 -1.50 -0.00
 H  1.57  0.36 -0.45
 H  2.75 -0.51  2.10
 H  1.34 -1.05  1.48
 H  4.33  1.05  0.76
 H  2.94  1.96 -1.89
 H  4.55  2.54 -1.23
 H  1.79  2.74  0.20
 H  4.50  3.70  0.91
 H  3.28  3.58  2.01
