14
set: 4658.00  0.00  0.00
 C  0.89  0.01 -0.00
 C  2.39 -0.01 -0.00
 C  3.22  1.10 -0.00
 O  2.84  2.42 -0.00
 N  4.53  0.68 -0.00
 C  4.57 -0.71 -0.01
 C  3.26 -1.15 -0.01
 H  0.51  1.04  0.01
 H  0.48 -0.51  0.88
 H  0.48 -0.49 -0.90
 H  3.63  2.99  0.00
 H  5.35  1.28 -0.00
 H  5.51 -1.25 -0.01
 H  2.94 -2.19 -0.01
