13
set: 3527.00  0.00  0.00
 C  0.92  0.04 -0.10
 C  2.13  0.00 -0.03
 C  3.60 -0.03  0.05
 O  4.08 -1.22  0.71
 C  4.72 -0.85  1.95
 C  4.78  0.65  1.94
 C  4.15  1.12  0.86
 H -0.15  0.07 -0.16
 H  4.00 -0.03 -0.98
 H  5.72 -1.32  1.99
 H  4.13 -1.23  2.81
 H  5.25  1.23  2.73
 H  4.01  2.16  0.59
