20
set: 2441.00  0.00  0.00
 C  2.23 -0.50 -1.38
 C  2.36  0.08  0.03
 N  3.20  1.26  0.05
 C  2.66  2.51 -0.55
 C  3.32  3.32  0.60
 C  4.67  3.92  0.26
 C  3.38  1.96  1.34
 H  1.60 -1.41 -1.37
 H  3.21 -0.76 -1.78
 H  1.75  0.22 -2.06
 H  2.82 -0.67  0.70
 H  1.34  0.29  0.44
 H  1.55  2.56 -0.51
 H  3.00  2.71 -1.58
 H  2.66  4.07  1.06
 H  5.33  3.17 -0.21
 H  5.18  4.30  1.16
 H  4.57  4.77 -0.44
 H  4.30  1.71  1.88
 H  2.51  1.83  2.03
