16
set: 469.00  0.00  0.00
 C  1.79 -0.72 -0.34
 C  3.29 -0.54 -0.08
 C  3.70  0.94 -0.02
 C  5.19  1.14  0.18
 N  5.63  0.95  1.49
 N  6.05  1.49 -0.71
 H  1.52 -1.78 -0.39
 H  1.49 -0.26 -1.30
 H  1.19 -0.25  0.45
 H  3.87 -1.04 -0.88
 H  3.56 -1.04  0.86
 H  3.15  1.45  0.79
 H  3.41  1.44 -0.96
 H  5.08  0.32  2.08
 H  6.63  0.86  1.58
 H  5.58  1.67 -1.60
