16
set: 2039.00  0.00  0.00
 C  0.93  0.00 -0.02
 C  2.38  0.01 -0.01
 C  3.60  0.01  0.02
 C  5.05  0.03  0.04
 C  5.80  1.10  0.89
 C  6.78 -0.04  1.26
 N  5.72 -1.02  0.88
 H  0.53  1.03 -0.01
 H  0.53 -0.53  0.85
 H  0.54 -0.50 -0.92
 H  5.44  0.05 -1.00
 H  5.20  1.42  1.74
 H  6.20  1.97  0.35
 H  7.67 -0.05  0.61
 H  7.10 -0.12  2.31
 H  6.05 -1.84  0.35
