14
set: 5645.00  0.00  0.00
 C  2.93 -1.21  0.50
 N  2.38 -0.03 -0.16
 C  3.10  1.17 -0.05
 C  2.62  2.45 -0.14
 O  3.65  3.36 -0.07
 C  4.80  2.64  0.07
 C  4.53  1.30  0.09
 H  2.21 -2.04  0.39
 H  3.14 -1.07  1.58
 H  3.86 -1.53  0.01
 H  1.39  0.10  0.04
 H  1.63  2.87 -0.26
 H  5.72  3.21  0.14
 H  5.26  0.50  0.19
