13
set: 7098.00  0.00  0.00
 C  2.99 -1.22  0.53
 O  2.30  0.00  0.28
 C  3.05  1.13  0.19
 C  2.56  2.39 -0.05
 C  3.59  3.37 -0.09
 C  4.85  2.86  0.12
 S  4.81  1.14  0.37
 H  2.23 -2.00  0.57
 H  3.52 -1.18  1.50
 H  3.71 -1.44 -0.28
 H  1.50  2.59 -0.19
 H  3.41  4.43 -0.26
 H  5.81  3.37  0.14
