20
set: 2056.00  0.00  0.00
 C  0.95  0.12  0.19
 C  2.39 -0.23 -0.20
 C  2.46 -0.83 -1.61
 C  3.34  0.97 -0.05
 N  3.11  2.16 -0.85
 C  3.89  1.25  1.33
 C  4.79  0.68  0.25
 H  0.91  0.54  1.21
 H  0.30 -0.77  0.16
 H  0.52  0.87 -0.50
 H  2.75 -1.00  0.51
 H  2.08 -0.12 -2.36
 H  1.84 -1.74 -1.69
 H  3.49 -1.10 -1.89
 H  3.16  1.92 -1.85
 H  2.18  2.54 -0.68
 H  3.59  0.59  2.15
 H  4.04  2.29  1.60
 H  5.53  1.35 -0.19
 H  5.10 -0.36  0.34
