13
set: 3790.00  0.00  0.00
 C  2.72 -1.13  0.74
 C  3.23  0.01  1.25
 C  3.19  1.33  0.53
 C  2.95  2.50  1.47
 O  3.43  2.58  2.59
 C  4.58  1.56 -0.12
 O  4.74  1.76 -1.30
 H  2.77 -2.06  1.31
 H  2.25 -1.16 -0.24
 H  3.70  0.02  2.23
 H  2.45  1.34 -0.29
 H  2.33  3.33  1.05
 H  5.42  1.52  0.61
