17
set: 3186.00  0.00  0.00
 C  0.93 -0.03  0.07
 C  2.44  0.00  0.05
 C  3.20  1.08  0.88
 C  4.24  0.01  1.31
 C  3.24 -1.09  0.88
 C  3.72 -2.26  0.09
 O  4.88 -2.47 -0.23
 H  0.53 -0.91 -0.45
 H  0.52  0.86 -0.44
 H  0.54 -0.03  1.10
 H  2.82  0.00 -0.98
 H  2.58  1.42  1.73
 H  3.56  1.96  0.34
 H  5.13 -0.00  0.67
 H  4.56  0.01  2.36
 H  2.60 -1.45  1.71
 H  2.91 -2.96 -0.25
