20
set: 2136.00  0.00  0.00
 C  0.89 -0.18 -0.01
 C  2.43 -0.11 -0.08
 C  2.97 -1.05 -1.17
 C  2.88  1.31 -0.32
 C  3.65  2.04  0.51
 C  4.08  3.45  0.25
 N  3.66  4.32  1.36
 H  0.50  0.45  0.79
 H  0.56 -1.22  0.17
 H  0.44  0.15 -0.96
 H  2.84 -0.44  0.89
 H  2.60 -0.75 -2.16
 H  2.65 -2.08 -0.99
 H  4.07 -1.03 -1.20
 H  2.54  1.77 -1.26
 H  3.99  1.61  1.46
 H  3.71  3.76 -0.75
 H  5.18  3.49  0.21
 H  2.64  4.39  1.37
 H  4.02  5.27  1.21
