16
set: 2185.00  0.00  0.00
 C  0.99 -0.25  0.17
 C  2.51 -0.10  0.13
 C  2.95  1.35 -0.16
 C  4.44  1.51 -0.16
 C  5.16  1.94 -1.21
 C  6.58  2.07 -1.18
 N  7.74  2.19 -1.18
 H  0.69 -1.29  0.37
 H  0.53  0.05 -0.79
 H  0.55  0.39  0.96
 H  2.93 -0.76 -0.64
 H  2.94 -0.43  1.09
 H  2.52  2.00  0.62
 H  2.54  1.69 -1.12
 H  4.96  1.24  0.77
 H  4.67  2.21 -2.15
