17
set: 1369.00  0.00  0.00
 C  1.99  0.37  1.51
 C  3.04  1.13  1.20
 C  3.79  1.05 -0.11
 C  5.29  0.84  0.08
 C  5.84 -0.38 -0.09
 C  6.13  1.98  0.46
 C  5.74  3.26  0.60
 H  1.48  0.48  2.47
 H  1.60 -0.38  0.82
 H  3.41  1.87  1.92
 H  3.63  1.98 -0.68
 H  3.38  0.23 -0.71
 H  5.24 -1.24 -0.38
 H  6.91 -0.54  0.06
 H  7.19  1.73  0.63
 H  4.71  3.58  0.44
 H  6.46  4.03  0.87
