13
set: 3730.00  0.00  0.00
 C  0.76  0.22  0.15
 C  2.09  0.08  0.02
 C  2.75 -1.28 -0.05
 C  3.34 -1.57 -1.42
 O  3.24 -2.65 -1.98
 C  2.96  1.21 -0.07
 C  3.74  2.14 -0.15
 H  0.29  1.21  0.19
 H  0.11 -0.65  0.21
 H  2.05 -2.08  0.22
 H  3.60 -1.31  0.66
 H  3.89 -0.72 -1.89
 H  4.42  2.97 -0.22
