17
set: 2326.00  0.00  0.00
 C  0.86 -0.26  0.05
 C  2.39 -0.09  0.00
 C  3.01 -0.92 -1.14
 C  2.75  1.35 -0.16
 N  3.44  1.98  0.72
 N  3.66  3.33  0.35
 C  4.36  3.95  1.22
 H  0.42  0.31  0.88
 H  0.60 -1.32  0.18
 H  0.40  0.09 -0.89
 H  2.82 -0.43  0.96
 H  2.63 -0.60 -2.12
 H  2.76 -1.99 -1.02
 H  4.11 -0.83 -1.15
 H  2.41  1.88 -1.07
 H  4.58  5.01  1.04
 H  4.73  3.47  2.14
