19
set: 1517.00  0.00  0.00
 C  1.04 -0.45  0.50
 C  2.55 -0.31  0.27
 C  2.98  1.14  0.00
 C  4.49  1.28 -0.23
 C  4.90  2.75 -0.49
 C  6.33  2.91 -0.71
 C  7.53  3.02 -0.89
 H  0.76 -1.50  0.69
 H  0.47 -0.11 -0.38
 H  0.71  0.14  1.37
 H  2.85 -0.94 -0.58
 H  3.09 -0.69  1.15
 H  2.67  1.77  0.85
 H  2.44  1.52 -0.88
 H  4.80  0.66 -1.08
 H  5.04  0.91  0.65
 H  4.59  3.38  0.36
 H  4.36  3.13 -1.37
 H  8.58  3.13 -1.05
