19
set: 1813.00  0.00  0.00
 C  0.88 -0.01 -0.23
 C  2.37  0.11  0.06
 C  2.73 -0.03  1.53
 N  3.31 -0.55 -0.88
 C  3.18  0.94 -0.88
 C  4.43  1.71 -0.53
 N  5.32  1.75 -1.70
 H  0.67  0.14 -1.29
 H  0.31  0.74  0.34
 H  0.51 -1.01  0.07
 H  3.81 -0.05  1.68
 H  2.32 -0.98  1.92
 H  2.30  0.79  2.12
 H  2.79 -0.94 -1.68
 H  2.63  1.38 -1.72
 H  4.89  1.27  0.38
 H  4.14  2.75 -0.28
 H  5.62  0.79 -1.90
 H  6.16  2.28 -1.47
