17
set: 3726.00  0.00  0.00
 C  4.04 -1.06  0.01
 C  3.20 -0.06  0.80
 C  3.30  1.38  0.27
 C  2.32  2.33  1.00
 C  4.72  1.93  0.46
 O  5.24  2.65 -0.59
 O  5.38  1.79  1.47
 H  3.92 -2.08  0.41
 H  5.11 -0.81  0.06
 H  3.75 -1.09 -1.05
 H  3.51 -0.05  1.85
 H  2.14 -0.35  0.77
 H  3.05  1.38 -0.81
 H  2.55  2.35  2.07
 H  1.29  1.97  0.87
 H  2.39  3.36  0.62
 H  4.60  2.64 -1.32
