15
set: 5842.00  0.00  0.00
 C  1.38 -0.38 -0.72
 N  2.83 -0.25 -0.69
 N  3.28  1.02 -0.52
 C  4.44  1.20  0.00
 C  5.00  2.59  0.12
 C  5.54  2.95  1.48
 O  5.58  2.21  2.45
 H  1.13 -1.40 -1.03
 H  0.98  0.32 -1.47
 H  0.90 -0.16  0.25
 H  3.30 -0.95 -0.11
 H  5.06  0.36  0.37
 H  4.23  3.33 -0.17
 H  5.84  2.75 -0.59
 H  5.93  4.00  1.55
