17
set: 1336.00  0.00  0.00
 C  0.96  0.00 -0.00
 C  2.42  0.00  0.01
 C  3.64  0.00  0.03
 C  5.07  0.00  0.04
 C  5.86 -0.74 -1.04
 C  5.87  0.77 -1.02
 C  7.11  1.53 -0.62
 H  0.56  1.03  0.00
 H  0.56 -0.52  0.88
 H  0.57 -0.51 -0.89
 H  5.53 -0.01  1.04
 H  5.28 -1.24 -1.81
 H  6.76 -1.26 -0.72
 H  5.25  1.25 -1.78
 H  7.66  0.99  0.17
 H  6.86  2.53 -0.23
 H  7.79  1.66 -1.47
