16
set: 5943.00  0.00  0.00
 C  1.51 -0.31  0.38
 O  2.89 -0.00  0.24
 C  3.12  1.40  0.16
 C  4.62  1.65  0.09
 C  5.38  1.15  1.33
 C  5.01  1.87  2.55
 N  4.70  2.46  3.51
 H  1.43 -1.40  0.43
 H  0.93  0.06 -0.49
 H  1.09  0.13  1.30
 H  2.69  1.91  1.05
 H  2.63  1.83 -0.73
 H  4.80  2.72 -0.05
 H  5.03  1.13 -0.79
 H  6.47  1.26  1.19
 H  5.17  0.08  1.49
