19
set: 2410.00  0.00  0.00
 C  1.07 -0.48  0.80
 C  2.53 -0.73  0.45
 C  3.27  0.57  0.11
 N  4.68  0.36 -0.22
 C  5.33  1.35 -1.05
 N  5.38 -0.23  0.79
 C  6.66 -0.13  0.85
 H  0.55 -1.42  1.05
 H  0.52 -0.01 -0.03
 H  0.97  0.18  1.68
 H  2.61 -1.42 -0.41
 H  3.05 -1.21  1.29
 H  3.16  1.29  0.95
 H  2.80  1.03 -0.77
 H  4.60  1.76 -1.76
 H  6.16  0.90 -1.62
 H  5.75  2.19 -0.45
 H  7.15 -0.68  1.67
 H  7.30  0.43  0.16
