15
set: 6428.00  0.00  0.00
 N  1.17  0.02  0.29
 N  2.45  0.07 -0.30
 C  3.29  1.26 -0.11
 C  4.60  0.84 -0.81
 C  4.64 -0.69 -0.64
 C  3.18 -1.09 -0.44
 O  2.71 -2.22 -0.33
 H  1.06 -0.96  0.58
 H  0.48  0.16 -0.46
 H  3.43  1.46  0.97
 H  2.82  2.14 -0.57
 H  4.54  1.10 -1.88
 H  5.47  1.35 -0.38
 H  5.08 -1.23 -1.49
 H  5.19 -0.99  0.26
