18
set: 1896.00  0.00  0.00
 C  0.99 -0.01 -0.01
 C  2.52 -0.02  0.01
 N  2.95  0.06  1.42
 C  3.05 -1.24 -0.81
 C  3.34 -0.67 -2.17
 C  3.35  0.67 -2.15
 C  3.07  1.21 -0.78
 H  0.62 -0.02 -1.05
 H  0.60  0.88  0.50
 H  0.59 -0.90  0.49
 H  3.97 -0.03  1.48
 H  2.56 -0.73  1.94
 H  2.32 -2.07 -0.83
 H  3.97 -1.65 -0.35
 H  3.55 -1.28 -3.05
 H  3.57  1.31 -3.01
 H  3.99  1.60 -0.31
 H  2.35  2.05 -0.77
