20
set: 2073.00  0.00  0.00
 C  1.11  0.20  0.07
 C  2.63 -0.07  0.01
 C  3.06 -0.92  1.22
 C  2.97 -0.82 -1.28
 C  3.35  1.28 -0.02
 C  3.87  2.01  1.17
 N  4.80  1.30  0.25
 H  0.78  0.79 -0.79
 H  0.84  0.75  0.99
 H  0.55 -0.75  0.07
 H  2.71 -0.48  2.17
 H  4.15 -1.01  1.26
 H  2.62 -1.93  1.15
 H  2.68 -0.24 -2.17
 H  2.45 -1.79 -1.33
 H  4.06 -1.01 -1.34
 H  3.00  1.92 -0.84
 H  3.80  1.56  2.16
 H  3.84  3.10  1.15
 H  5.27  1.97 -0.36
