20
set: 1936.00  0.00  0.00
 C  2.94 -1.10 -0.68
 C  2.38  0.12  0.07
 C  3.35  1.28  0.12
 C  3.48  2.31 -1.00
 C  2.66  2.27 -2.27
 C  2.88  2.71  0.32
 N  3.53  3.70  1.15
 H  2.22 -1.93 -0.68
 H  3.87 -1.46 -0.22
 H  3.16 -0.85 -1.73
 H  2.13 -0.18  1.11
 H  1.44  0.43 -0.39
 H  4.30  1.05  0.61
 H  4.50  2.67 -1.16
 H  1.64  1.90 -2.09
 H  3.12  1.62 -3.03
 H  2.57  3.28 -2.71
 H  1.79  2.84  0.31
 H  4.54  3.69  0.98
 H  3.41  3.47  2.14
