20
set: 5154.00  0.00  0.00
 C  0.95 -0.08  0.27
 C  2.48 -0.06  0.36
 C  3.11  1.29 -0.04
 N  2.69  2.43  0.80
 C  4.66  1.27 -0.01
 C  5.28  0.34 -1.05
 O  5.15  2.59 -0.25
 H  0.55 -1.06  0.54
 H  0.61  0.15 -0.75
 H  0.49  0.66  0.95
 H  2.88 -0.85 -0.29
 H  2.80 -0.31  1.38
 H  2.81  1.54 -1.07
 H  2.70  2.17  1.79
 H  1.74  2.72  0.58
 H  4.97  0.93  1.00
 H  4.92  0.59 -2.06
 H  5.06 -0.71 -0.85
 H  6.37  0.47 -1.04
 H  4.46  3.16  0.17
