21
set: 3696.00  0.00  0.00
 C  1.12  0.54  0.59
 C  2.52  1.03  0.97
 C  3.53  0.85 -0.17
 C  4.93  1.48  0.06
 C  5.61  0.92  1.31
 C  5.81  1.24 -1.18
 O  4.81  2.90  0.30
 H  0.42  0.68  1.43
 H  1.13 -0.53  0.33
 H  0.72  1.09 -0.27
 H  2.87  0.49  1.86
 H  2.49  2.10  1.25
 H  3.11  1.30 -1.09
 H  3.65 -0.22 -0.39
 H  5.04  1.18  2.21
 H  6.61  1.35  1.41
 H  5.70 -0.17  1.25
 H  5.34  1.66 -2.08
 H  5.97  0.17 -1.36
 H  6.79  1.72 -1.04
 H  4.46  3.30 -0.52
