15
set: 4865.00  0.00  0.00
 C  1.09  0.01  0.13
 C  2.57  0.03 -0.07
 N  3.17  1.10 -0.47
 N  4.56  1.02 -0.68
 C  5.23  0.07  0.19
 C  4.57 -1.28 -0.05
 O  3.15 -1.19  0.21
 H  0.63 -0.73 -0.54
 H  0.68  1.00 -0.08
 H  0.84 -0.29  1.16
 H  4.92  1.97 -0.59
 H  6.30  0.01 -0.08
 H  5.15  0.33  1.26
 H  4.95 -2.05  0.64
 H  4.72 -1.60 -1.09
