18
set: 4771.00  0.00  0.00
 C  0.97 -0.01  0.10
 C  2.49  0.01 -0.06
 C  3.03 -1.32 -0.63
 O  2.67 -1.49 -2.01
 C  3.21 -0.42 -2.80
 C  2.70  0.93 -2.32
 N  2.92  1.16 -0.88
 H  0.62  0.97  0.45
 H  0.66 -0.77  0.83
 H  0.46 -0.24 -0.85
 H  2.94  0.15  0.94
 H  2.61 -2.19 -0.10
 H  4.13 -1.34 -0.53
 H  4.32 -0.45 -2.74
 H  2.91 -0.63 -3.84
 H  3.19  1.75 -2.88
 H  1.62  1.00 -2.52
 H  3.93  1.30 -0.73
