15
set: 3020.00  0.00  0.00
 N  1.17  0.01 -0.80
 C  2.33  0.06 -0.23
 N  2.98  1.25  0.01
 C  4.30  1.37  0.66
 C  4.58  2.90  0.69
 C  3.35  3.49  0.05
 C  2.49  2.52 -0.31
 H  0.87 -0.96 -0.88
 H  2.92 -0.80  0.12
 H  5.06  0.82  0.07
 H  4.27  0.93  1.67
 H  5.50  3.15  0.14
 H  4.72  3.26  1.73
 H  3.19  4.56 -0.10
 H  1.52  2.58 -0.79
