17
set: 1769.00  0.00  0.00
 C  0.98  0.06 -0.03
 C  2.51 -0.01  0.03
 C  3.01 -0.01  1.47
 C  3.06 -1.21 -0.82
 N  3.43 -0.68 -2.14
 C  3.42  0.60 -2.01
 N  3.11  1.12 -0.75
 H  0.63  0.03 -1.07
 H  0.60  0.98  0.44
 H  0.53 -0.79  0.50
 H  4.11 -0.00  1.49
 H  2.66 -0.90  2.00
 H  2.65  0.87  2.02
 H  2.31 -2.01 -0.92
 H  3.95 -1.64 -0.34
 H  3.68  1.29 -2.81
 H  2.63  2.02 -0.71
