13
set: 4740.00  0.00  0.00
 C  0.94  0.06  0.02
 C  2.43  0.07 -0.02
 C  3.29  1.12 -0.10
 N  4.60  0.69 -0.25
 O  4.59 -0.73 -0.09
 C  3.25 -1.14 -0.02
 N  3.01 -2.40  0.02
 H  0.53  1.08  0.02
 H  0.57 -0.45  0.92
 H  0.52 -0.47 -0.85
 H  3.09  2.19 -0.12
 H  5.28  1.05  0.43
 H  2.00 -2.56  0.05
