22
set: 2478.00  0.00  0.00
 C  0.96 -0.10  0.06
 C  2.48  0.02 -0.08
 N  3.00 -0.69 -1.27
 C  3.02  1.49 -0.05
 C  2.61  2.26 -1.32
 C  2.49  2.23  1.19
 C  4.56  1.45  0.03
 H  0.58  0.33  1.00
 H  0.66 -1.16  0.04
 H  0.44  0.40 -0.77
 H  2.94 -0.48  0.79
 H  2.44 -0.43 -2.09
 H  2.86 -1.69 -1.15
 H  3.03  1.80 -2.22
 H  2.99  3.30 -1.27
 H  1.51  2.32 -1.43
 H  2.69  1.65  2.11
 H  1.41  2.41  1.14
 H  2.99  3.20  1.29
 H  4.89  0.96  0.96
 H  4.98  2.46  0.02
 H  4.98  0.88 -0.82
