16
set: 2150.00  0.00  0.00
 C  0.92 -0.05  0.03
 C  2.37  0.01  0.02
 C  3.59  0.07  0.00
 C  5.01  0.08 -0.01
 C  5.78  1.16 -0.26
 C  7.27  1.15 -0.26
 N  7.79  1.71 -1.52
 H  0.48  0.96  0.05
 H  0.55 -0.60  0.91
 H  0.54 -0.56 -0.87
 H  5.50 -0.88  0.20
 H  5.30  2.12 -0.49
 H  7.63  0.12 -0.03
 H  7.64  1.80  0.56
 H  7.57  1.08 -2.29
 H  8.81  1.78 -1.48
