15
set: 3653.00  0.00  0.00
 C  0.92 -0.06  0.02
 C  2.38  0.01  0.01
 C  3.59  0.08 -0.01
 C  5.01  0.10 -0.02
 C  5.77  1.20 -0.19
 C  7.27  1.17 -0.22
 O  7.80  1.67 -1.46
 H  0.48  0.95  0.05
 H  0.56 -0.61  0.90
 H  0.54 -0.57 -0.87
 H  5.51 -0.87  0.12
 H  5.30  2.18 -0.34
 H  7.63  0.15 -0.01
 H  7.69  1.84  0.55
 H  7.38  1.16 -2.17
