16
set: 2481.00  0.00  0.00
 C  0.95 -0.07 -0.00
 C  2.49 -0.03 -0.04
 N  3.11 -0.76 -1.17
 C  2.98  1.35 -0.03
 C  3.33  2.51 -0.02
 C  3.83  3.84 -0.01
 C  3.06  4.95  0.04
 H  0.56  0.46  0.88
 H  0.59 -1.11  0.03
 H  0.53  0.41 -0.90
 H  2.86 -0.52  0.88
 H  2.82 -0.32 -2.05
 H  2.73 -1.72 -1.19
 H  4.92  3.95 -0.06
 H  1.97  4.89  0.08
 H  3.51  5.94  0.04
