13
set: 6084.00  0.00  0.00
 N  1.00 -0.17 -0.19
 C  2.37  0.06 -0.02
 C  3.17  1.17 -0.00
 C  4.53  0.69  0.01
 C  4.47 -0.67  0.04
 N  5.39 -1.70  0.21
 O  3.15 -1.09  0.01
 H  0.49  0.71 -0.27
 H  0.60 -0.74  0.56
 H  2.83  2.20  0.01
 H  5.44  1.29  0.01
 H  5.36 -2.40 -0.54
 H  6.34 -1.33  0.29
