16
set: 720.00  0.00  0.00
 C  2.34 -0.53 -1.48
 C  2.47  0.02 -0.05
 C  3.23  1.33  0.02
 C  2.53  2.61 -0.51
 O  2.73  3.30  0.76
 C  3.27  2.08  1.37
 H  1.77 -1.47 -1.50
 H  3.33 -0.72 -1.92
 H  1.82  0.19 -2.13
 H  2.98 -0.73  0.58
 H  1.47  0.16  0.39
 H  4.24  1.21 -0.41
 H  1.46  2.48 -0.73
 H  3.02  3.14 -1.34
 H  4.26  2.26  1.82
 H  2.58  1.68  2.13
