15
set: 3944.00  0.00  0.00
 C  2.37 -1.45  1.31
 C  2.54 -1.08 -0.16
 C  2.63  0.41 -0.40
 O  2.59  1.28  0.44
 O  2.78  0.65 -1.76
 C  2.88  1.98 -2.16
 C  3.02  2.28 -3.45
 H  2.29 -2.53  1.43
 H  1.46 -0.99  1.72
 H  3.21 -1.09  1.91
 H  1.70 -1.46 -0.77
 H  3.44 -1.54 -0.59
 H  2.85  2.70 -1.34
 H  3.04  1.51 -4.22
 H  3.10  3.32 -3.75
