19
set: 2357.00  0.00  0.00
 C  3.25 -0.85 -1.15
 C  2.74 -0.32  0.20
 C  3.25  1.08  0.58
 N  2.59  1.65  1.77
 C  4.76  1.08  0.80
 C  5.45  2.07  1.67
 N  5.21  0.68  2.15
 H  2.76 -1.80 -1.41
 H  4.33 -1.04 -1.14
 H  3.04 -0.14 -1.96
 H  3.00 -1.02  1.01
 H  1.63 -0.28  0.17
 H  3.04  1.77 -0.27
 H  2.88  1.09  2.58
 H  1.58  1.56  1.68
 H  5.33  0.71 -0.05
 H  4.85  2.82  2.18
 H  6.46  2.36  1.40
 H  6.07  0.13  2.08
