15
set: 4498.00  0.00  0.00
 O  2.57 -0.86 -1.06
 C  2.19 -0.06  0.07
 C  2.93  1.28 -0.04
 C  4.41  1.14  0.06
 C  5.21  1.79  0.93
 C  6.66  1.57  0.94
 O  7.44  2.12  1.70
 H  2.17 -1.74 -0.96
 H  2.45 -0.55  1.02
 H  1.10  0.14  0.06
 H  2.55  1.96  0.74
 H  2.68  1.72 -1.02
 H  4.87  0.42 -0.63
 H  4.82  2.52  1.65
 H  7.02  0.82  0.19
