17
set: 1300.00  0.00  0.00
 C  1.02  0.12 -0.46
 C  2.45 -0.01  0.08
 C  2.71 -1.32  0.88
 C  3.41 -0.89  2.17
 C  3.97 -1.69  3.09
 C  3.36  0.57  2.20
 C  2.83  1.07  1.06
 H  0.78 -0.70 -1.16
 H  0.88  1.07 -1.00
 H  0.29  0.09  0.37
 H  3.14  0.04 -0.78
 H  3.30 -2.05  0.32
 H  1.75 -1.80  1.13
 H  3.97 -2.78  2.98
 H  4.44 -1.28  3.98
 H  3.73  1.16  3.04
 H  2.70  2.13  0.84
