20
set: 5145.00  0.00  0.00
 C  0.99 -0.21 -0.05
 C  2.53 -0.23  0.03
 C  2.96 -1.08  1.23
 N  3.13 -0.84 -1.19
 C  3.05  1.22  0.14
 C  4.57  1.38  0.25
 O  5.27  0.90 -0.90
 H  0.65  0.40 -0.90
 H  0.55  0.23  0.86
 H  0.59 -1.22 -0.17
 H  2.61 -0.64  2.17
 H  4.06 -1.18  1.28
 H  2.54 -2.10  1.16
 H  2.71 -0.41 -2.02
 H  2.90 -1.84 -1.23
 H  2.59  1.69  1.03
 H  2.70  1.79 -0.74
 H  4.94  0.87  1.17
 H  4.82  2.44  0.36
 H  4.80  0.07 -1.15
