13
set: 1059.00  0.00  0.00
 C  0.99  0.10 -0.13
 N  2.44  0.08 -0.04
 C  3.15 -1.12 -0.13
 C  2.61 -2.34 -0.30
 C  3.13  1.28  0.14
 O  2.60  2.38  0.23
 H  0.66  1.14 -0.04
 H  0.55 -0.51  0.68
 H  0.67 -0.31 -1.10
 H  4.23 -0.99 -0.05
 H  1.54 -2.51 -0.39
 H  3.27 -3.20 -0.36
 H  4.23  1.12  0.19
