19
set: 3008.00  0.00  0.00
 N  0.75 -0.06 -0.10
 C  2.17 -0.22  0.28
 C  2.91  1.12  0.13
 N  2.30  2.22  0.89
 C  4.40  1.00  0.51
 C  5.20  0.10 -0.39
 C  5.96 -0.93  0.02
 H  0.21 -0.87  0.20
 H  0.67 -0.02 -1.12
 H  2.70 -1.01 -0.29
 H  2.20 -0.52  1.34
 H  2.86  1.40 -0.94
 H  2.47  2.06  1.89
 H  1.28  2.14  0.77
 H  4.48  0.66  1.56
 H  4.81  2.02  0.47
 H  5.16  0.33 -1.46
 H  6.03 -1.20  1.08
 H  6.54 -1.53 -0.69
