13
set: 4797.00  0.00  0.00
 C  0.85 -0.05  0.21
 C  2.18 -0.04  0.02
 C  3.04  1.18 -0.13
 O  4.25  1.07  0.64
 N  5.04 -0.07  0.28
 C  4.35 -1.10 -0.07
 N  2.97 -1.19 -0.13
 H  0.31  0.89  0.27
 H  0.28 -0.97  0.28
 H  2.53  2.08  0.25
 H  3.30  1.34 -1.19
 H  4.91 -2.00 -0.32
 H  2.54 -2.10 -0.23
