20
set: 2496.00  0.00  0.00
 C  1.29 -0.31 -0.12
 C  2.78  0.01 -0.04
 N  3.02  1.45 -0.03
 C  4.44  1.80  0.09
 C  4.65  3.30  0.06
 C  4.19  4.02 -1.18
 C  5.22  3.94  1.09
 H  1.13 -1.39 -0.16
 H  0.85  0.15 -1.02
 H  0.76  0.08  0.76
 H  3.30 -0.40 -0.93
 H  3.23 -0.50  0.84
 H  2.52  1.87  0.76
 H  4.96  1.35 -0.78
 H  4.92  1.38  1.00
 H  4.75  3.66 -2.06
 H  4.33  5.10 -1.10
 H  3.13  3.80 -1.38
 H  5.55  3.39  1.98
 H  5.39  5.02  1.08
