19
set: 3705.00  0.00  0.00
 C  2.49 -1.09 -1.46
 C  3.08 -0.59 -0.13
 C  3.36  0.89 -0.13
 C  4.57  1.48 -0.02
 C  5.90  0.81  0.16
 O  4.76  2.85 -0.04
 C  3.62  3.68 -0.19
 H  2.24 -2.16 -1.41
 H  3.19 -0.93 -2.29
 H  1.56 -0.55 -1.70
 H  3.99 -1.17  0.09
 H  2.37 -0.82  0.68
 H  2.48  1.52 -0.26
 H  5.81 -0.28  0.16
 H  6.35  1.12  1.11
 H  6.58  1.11 -0.65
 H  3.99  4.71 -0.18
 H  2.90  3.54  0.63
 H  3.11  3.48 -1.15
