19
set: 1186.00  0.00  0.00
 C  1.15 -0.14  0.10
 C  2.63 -0.08 -0.19
 C  3.16 -0.43 -1.56
 C  3.21  1.00 -1.07
 C  4.49  1.70 -0.71
 C  5.81  0.98 -0.60
 C  5.58  1.93 -1.75
 H  0.88  0.52  0.95
 H  0.83 -1.16  0.36
 H  0.56  0.19 -0.77
 H  3.28 -0.38  0.64
 H  2.44 -0.66 -2.34
 H  4.09 -1.00 -1.63
 H  2.47  1.67 -1.52
 H  4.36  2.52  0.00
 H  5.85 -0.09 -0.82
 H  6.50  1.29  0.20
 H  6.10  2.88 -1.75
 H  5.42  1.48 -2.73
