17
set: 3674.00  0.00  0.00
 C  2.32 -0.42 -1.49
 C  2.54  0.07 -0.05
 C  2.92  1.54  0.04
 C  2.08  2.47  0.51
 C  4.33  1.90 -0.39
 C  5.29  1.57  0.74
 O  6.12  0.68  0.71
 H  2.06 -1.48 -1.49
 H  3.23 -0.30 -2.10
 H  1.51  0.14 -1.97
 H  3.34 -0.53  0.42
 H  1.63 -0.09  0.54
 H  1.08  2.20  0.87
 H  2.35  3.53  0.56
 H  4.39  2.98 -0.59
 H  4.64  1.34 -1.29
 H  5.15  2.21  1.65
