16
set: 6545.00  0.00  0.00
 O  0.98  0.09  0.09
 C  2.41  0.02  0.02
 C  3.07 -1.06  0.95
 N  3.85 -0.24  1.92
 C  4.46  0.76  0.94
 C  3.01  1.25  0.70
 C  2.84  0.87  2.19
 H  0.62 -0.68 -0.37
 H  2.73 -0.06 -1.04
 H  3.74 -1.74  0.41
 H  2.30 -1.64  1.48
 H  5.03  0.31  0.11
 H  5.08  1.49  1.48
 H  2.76  2.23  0.28
 H  3.27  1.61  2.88
 H  1.85  0.54  2.54
