13
set: 4384.00  0.00  0.00
 O  0.98  0.58 -0.72
 C  1.97  0.32 -0.05
 C  3.19  1.17  0.00
 C  3.56  1.97 -1.21
 C  2.96  2.70 -0.04
 C  3.86  3.52  0.82
 O  5.04  3.27  1.03
 H  2.01 -0.61  0.57
 H  4.00  0.84  0.65
 H  2.92  1.86 -2.08
 H  4.63  2.12 -1.38
 H  1.92  3.01 -0.12
 H  3.38  4.42  1.28
