17
set: 5543.00  0.00  0.00
 C  2.53 -1.24 -0.17
 C  3.87 -0.53 -0.08
 O  3.61  0.89 -0.06
 C  4.73  1.71 -0.00
 N  5.97  1.40  0.02
 N  4.29  3.02  0.05
 C  5.25  4.10 -0.13
 H  2.68 -2.32 -0.19
 H  1.99 -0.95 -1.09
 H  1.90 -0.99  0.69
 H  4.50 -0.77 -0.95
 H  4.41 -0.82  0.83
 H  6.12  0.39  0.05
 H  3.34  3.16 -0.28
 H  6.07  3.97  0.58
 H  4.74  5.05  0.08
 H  5.68  4.13 -1.15
