17
set: 2610.00  0.00  0.00
 C  1.18  0.03 -0.08
 N  2.47 -0.10  0.57
 C  3.32 -1.22  0.10
 C  4.72 -0.73  0.48
 C  4.49  0.77  0.46
 C  5.57  1.79  0.52
 N  3.24  1.08  0.50
 H  0.56 -0.84  0.17
 H  1.26  0.10 -1.18
 H  0.68  0.94  0.30
 H  3.23 -1.33 -1.00
 H  3.02 -2.16  0.58
 H  5.51 -1.07 -0.21
 H  5.01 -1.05  1.50
 H  5.14  2.80  0.50
 H  6.27  1.68 -0.32
 H  6.17  1.68  1.44
