18
set: 2681.00  0.00  0.00
 C  1.07 -0.27 -0.02
 N  2.51 -0.02  0.10
 C  2.95  1.40  0.01
 C  2.46  2.14 -1.26
 C  2.48  2.15  1.27
 C  4.42  1.38 -0.00
 C  5.63  1.38 -0.04
 H  0.91 -1.35  0.02
 H  0.59  0.11 -0.95
 H  0.54  0.17  0.84
 H  3.01 -0.55 -0.63
 H  2.79  1.62 -2.17
 H  2.87  3.16 -1.29
 H  1.36  2.21 -1.27
 H  2.81  1.62  2.17
 H  1.38  2.23  1.29
 H  2.89  3.17  1.28
 H  6.70  1.37 -0.07
