14
set: 651.00  0.00  0.00
 C  0.79  1.38  0.25
 C -0.71  1.24 -0.13
 C -0.97 -0.25 -0.03
 O -0.45 -0.86  1.18
 C  0.31 -0.97 -0.05
 C  1.45  0.03 -0.15
 H  1.27  2.24 -0.24
 H  0.88  1.52  1.33
 H -0.90  1.56 -1.16
 H -1.36  1.83  0.53
 H -1.90 -0.69 -0.42
 H  0.42 -1.99 -0.44
 H  2.30 -0.22  0.49
 H  1.80  0.05 -1.19
