17
set: 4405.00  0.00  0.00
 O  1.95 -0.25 -1.31
 C  2.35  0.14  0.01
 C  3.10  1.46 -0.11
 C  2.25  2.65 -0.56
 C  2.96  3.82  0.14
 C  3.36  3.19  1.47
 O  3.62  1.80  1.19
 H  1.55 -1.14 -1.26
 H  3.02 -0.61  0.46
 H  1.48  0.27  0.67
 H  3.95  1.32 -0.81
 H  1.22  2.54 -0.18
 H  2.20  2.75 -1.65
 H  3.86  4.12 -0.43
 H  2.32  4.71  0.26
 H  4.26  3.63  1.91
 H  2.53  3.27  2.21
