21
set: 3641.00  0.00  0.00
 C  3.20 -0.75  1.63
 C  2.73 -0.10  0.31
 C  1.23 -0.31  0.12
 C  3.13  1.39  0.18
 C  2.55  2.31  1.27
 C  4.65  1.56  0.07
 O  5.06  2.89 -0.29
 H  4.29 -0.67  1.77
 H  2.95 -1.82  1.63
 H  2.71 -0.29  2.50
 H  3.25 -0.63 -0.51
 H  0.64  0.13  0.94
 H  0.98 -1.39  0.09
 H  0.88  0.13 -0.83
 H  2.71  1.73 -0.80
 H  2.90  2.01  2.27
 H  1.45  2.30  1.27
 H  2.88  3.34  1.10
 H  5.06  0.82 -0.65
 H  5.13  1.38  1.05
 H  4.71  3.07 -1.18
