15
set: 1994.00  0.00  0.00
 C  2.30 -0.57 -1.41
 C  2.46  0.00  0.00
 C  2.99  1.41  0.02
 C  2.26  2.60 -0.00
 N  3.17  3.61 -0.01
 N  4.46  3.18  0.00
 C  4.34  1.84  0.02
 H  1.92 -1.60 -1.38
 H  3.26 -0.57 -1.95
 H  1.59  0.03 -2.00
 H  3.15 -0.64  0.58
 H  1.50 -0.04  0.53
 H  1.19  2.79 -0.01
 H  2.99  4.61 -0.02
 H  5.24  1.23  0.05
