16
set: 5110.00  0.00  0.00
 C  0.72  0.26  0.14
 C  2.08 -0.36  0.03
 C  2.28 -1.69  0.01
 C  3.24  0.58 -0.11
 O  3.27  1.44  1.05
 N  4.10  2.54  0.79
 C  4.23  3.29  1.83
 H  0.67  0.94  1.01
 H -0.07 -0.50  0.24
 H  0.49  0.87 -0.75
 H  1.45 -2.39  0.05
 H  3.29 -2.11 -0.07
 H  3.13  1.22 -1.00
 H  4.20  0.04 -0.19
 H  4.85  4.18  1.70
 H  3.74  3.08  2.78
