16
set: 279.00  0.00  0.00
 C  0.86  0.06 -0.02
 C  2.32  0.06 -0.32
 C  3.23  0.84  0.30
 C  4.67  0.87  0.04
 C  5.24 -0.05 -1.01
 C  5.46  1.71  0.74
 H  0.52 -0.94  0.30
 H  0.27  0.31 -0.92
 H  0.60  0.78  0.76
 H  2.66 -0.64 -1.09
 H  2.88  1.54  1.08
 H  4.79  0.15 -1.99
 H  5.04 -1.10 -0.76
 H  6.33  0.08 -1.09
 H  5.05  2.38  1.50
 H  6.54  1.76  0.57
