17
set: 4446.00  0.00  0.00
 O  1.57 -0.33  0.67
 C  2.85 -0.24  0.02
 C  3.21  1.21 -0.13
 C  4.35  1.74  0.33
 C  4.80  3.14  0.15
 C  5.57  3.55 -1.10
 C  4.18  4.09 -0.85
 H  1.28 -1.26  0.60
 H  2.80 -0.71 -0.98
 H  3.64 -0.76  0.60
 H  2.47  1.83 -0.65
 H  5.05  1.09  0.88
 H  5.17  3.61  1.07
 H  5.68  2.79 -1.87
 H  6.43  4.22 -0.98
 H  4.08  5.13 -0.56
 H  3.38  3.71 -1.48
