18
set: 5559.00  0.00  0.00
 C  1.35  3.50  1.27
 C  2.50  2.57  0.99
 O  3.64  3.38  0.64
 N  4.74  2.52  0.38
 C  5.80  3.19  0.09
 C  5.87  4.69  0.05
 C  7.03  2.38 -0.22
 H  0.46  2.92  1.55
 H  1.10  4.10  0.38
 H  1.58  4.19  2.10
 H  2.28  1.88  0.16
 H  2.75  1.96  1.88
 H  5.45  5.12  0.97
 H  5.25  5.08 -0.78
 H  6.90  5.04 -0.09
 H  6.81  1.31 -0.15
 H  7.84  2.63  0.48
 H  7.40  2.61 -1.23
