16
set: 5603.00  0.00  0.00
 C  1.05  0.01 -0.08
 N  2.49 -0.02  0.12
 C  3.00  1.09  0.94
 C  4.44  0.68  1.23
 C  4.36 -0.85  1.30
 O  5.21 -1.61  1.71
 C  2.98 -1.24  0.76
 H  0.75 -0.82 -0.73
 H  0.76  0.95 -0.56
 H  0.48 -0.08  0.88
 H  2.43  1.20  1.89
 H  2.91  2.04  0.38
 H  5.11  0.94  0.40
 H  4.87  1.09  2.15
 H  3.04 -2.09  0.07
 H  2.37 -1.55  1.64
