15
set: 4204.00  0.00  0.00
 C  0.91  0.80 -0.27
 O  2.14  0.90  0.49
 C  2.99  1.94  0.16
 C  2.47  3.32  0.07
 O  1.32  3.66  0.31
 C  4.31  1.65  0.06
 C  5.47  2.57 -0.12
 H  0.47 -0.15  0.05
 H  1.13  0.75 -1.35
 H  0.24  1.63 -0.05
 H  3.22  4.07 -0.26
 H  4.56  0.59  0.18
 H  5.19  3.63 -0.24
 H  6.06  2.27 -1.00
 H  6.15  2.50  0.75
