15
set: 2324.00  0.00  0.00
 C  0.87 -0.03 -0.06
 C  2.34 -0.33  0.04
 C  2.81 -1.72 -0.00
 C  2.00 -2.79 -0.13
 N  3.12  0.71  0.17
 N  4.49  0.39  0.26
 C  5.20  1.46  0.37
 H  0.72  1.05 -0.00
 H  0.31 -0.52  0.75
 H  0.46 -0.41 -1.01
 H  3.89 -1.85  0.08
 H  0.92 -2.70 -0.22
 H  2.41 -3.80 -0.15
 H  6.29  1.33  0.45
 H  4.76  2.46  0.38
