16
set: 6675.00  0.00  0.00
 O  2.37 -0.31 -1.52
 C  2.34  0.12 -0.15
 C  3.29  1.31 -0.01
 N  3.37  1.73  1.41
 C  3.22  3.20  1.50
 C  2.77  3.59  0.12
 C  2.82  2.55 -0.72
 H  1.73 -1.03 -1.63
 H  2.67 -0.69  0.52
 H  1.33  0.43  0.16
 H  4.28  0.99 -0.42
 H  4.23  1.42  1.84
 H  4.16  3.72  1.76
 H  2.48  3.48  2.27
 H  2.44  4.61 -0.13
 H  2.55  2.55 -1.77
