18
set: 2705.00  0.00  0.00
 C  0.59  0.36  0.10
 N  2.00  0.07  0.31
 C  2.88  1.15 -0.15
 C  4.34  0.80  0.07
 C  5.31  1.91 -0.37
 C  5.31  2.17 -1.81
 C  5.31  2.38 -3.01
 H -0.02 -0.51  0.39
 H  0.33  0.64 -0.94
 H  0.29  1.20  0.75
 H  2.25 -0.78 -0.20
 H  2.62  2.05  0.44
 H  2.71  1.42 -1.21
 H  4.59 -0.12 -0.48
 H  4.51  0.59  1.14
 H  6.34  1.65 -0.07
 H  5.07  2.85  0.16
 H  5.31  2.56 -4.06
