17
set: 2874.00  0.00  0.00
 N  0.77  0.37  0.41
 C  2.14  0.02  0.06
 C  3.23  0.90  0.78
 N  4.01 -0.31  1.18
 C  2.86 -1.18  0.75
 C  2.29  0.10 -1.44
 C  2.87 -0.78 -2.25
 H  0.63  0.28  1.41
 H  0.11 -0.27 -0.05
 H  2.81  1.42  1.66
 H  3.76  1.63  0.15
 H  4.79 -0.44  0.53
 H  3.13 -2.05  0.14
 H  2.30 -1.54  1.63
 H  1.86  1.02 -1.86
 H  3.30 -1.72 -1.89
 H  2.94 -0.59 -3.32
