15
set: 4309.00  0.00  0.00
 O  0.93  0.13  0.18
 C  2.34  0.03  0.04
 C  3.11  1.01  0.95
 C  4.12 -0.15  1.25
 C  3.08 -1.16  0.71
 C  5.38 -0.01  0.44
 O  5.70 -0.70 -0.51
 H  0.51 -0.43 -0.50
 H  2.64  0.14 -1.01
 H  2.51  1.25  1.84
 H  3.49  1.94  0.51
 H  4.41 -0.23  2.31
 H  3.47 -1.95  0.06
 H  2.47 -1.59  1.52
 H  6.05  0.83  0.78
