13
set: 3122.00  0.00  0.00
 C  1.65 -0.32  0.06
 O  0.92 -1.58  0.16
 C -0.19 -1.03 -0.64
 C -1.37 -0.54  0.14
 C -1.26  0.79  0.27
 O -0.17  1.38 -0.33
 C  0.60  0.28 -0.88
 H  2.66 -0.47 -0.36
 H  1.73  0.20  1.03
 H -0.42 -1.71 -1.48
 H -2.18 -1.15  0.52
 H -1.92  1.50  0.77
 H  0.92  0.56 -1.89
