18
set: 5046.00  0.00  0.00
 C  1.94  0.67 -2.86
 C  3.21  0.66 -2.07
 C  3.39  1.26 -0.88
 C  4.65  1.30 -0.06
 N  5.83  0.60 -0.59
 C  5.09  2.75  0.21
 O  6.25  2.78  1.04
 H  2.09  1.13 -3.85
 H  1.14  1.22 -2.34
 H  1.58 -0.36 -3.04
 H  4.05  0.11 -2.51
 H  2.54  1.81 -0.44
 H  4.44  0.85  0.93
 H  5.97  0.85 -1.58
 H  5.70 -0.41 -0.56
 H  4.29  3.31  0.73
 H  5.27  3.26 -0.76
 H  6.79  2.03  0.71
