17
set: 1867.00  0.00  0.00
 C  0.97  0.22 -0.31
 C  2.43  0.17  0.08
 N  3.30 -0.94 -0.38
 C  3.49  0.42 -0.92
 C  4.79  1.09 -0.57
 C  5.84  1.34 -1.59
 N  4.98  2.45 -1.12
 H  0.55  1.22 -0.14
 H  0.38 -0.50  0.29
 H  0.83 -0.03 -1.37
 H  2.64  0.46  1.12
 H  2.78 -1.51 -1.06
 H  3.15  0.63 -1.95
 H  5.13  0.88  0.45
 H  5.67  1.05 -2.63
 H  6.88  1.30 -1.26
 H  5.49  3.02 -0.44
