15
set: 3516.00  0.00  0.00
 C  3.05 -1.28 -0.35
 C  2.41  0.00  0.20
 C  3.43  1.08  0.46
 O  3.94  1.80 -0.68
 C  3.12  2.52  0.28
 C  3.76  3.54  1.07
 C  4.28  4.42  1.73
 H  2.30 -2.05 -0.53
 H  3.78 -1.69  0.36
 H  3.58 -1.08 -1.29
 H  1.88 -0.21  1.14
 H  1.66  0.38 -0.52
 H  4.21  0.84  1.20
 H  2.12  2.78 -0.09
 H  4.74  5.19  2.31
