17
set: 67.00  0.00  0.00
 C  0.96 -0.09  0.04
 C  2.48  0.02  0.09
 C  3.03  1.46  0.05
 C  2.57  2.30  1.25
 C  4.56  1.45 -0.04
 H  0.64 -1.14 -0.02
 H  0.55  0.43 -0.85
 H  0.48  0.35  0.93
 H  2.91 -0.54 -0.75
 H  2.86 -0.47  1.01
 H  2.64  1.93 -0.87
 H  2.88  1.83  2.20
 H  1.47  2.41  1.28
 H  3.00  3.31  1.21
 H  5.01  0.98  0.85
 H  4.96  2.47 -0.12
 H  4.91  0.88 -0.92
