15
set: 3425.00  0.00  0.00
 C  0.93  0.09 -0.19
 C  2.41 -0.02  0.15
 O  2.64 -1.20  0.98
 C  3.27 -0.82  2.15
 C  3.62 -1.71  3.10
 C  3.46  0.62  2.12
 C  2.97  1.11  0.96
 H  0.58 -0.82 -0.70
 H  0.75  0.95 -0.86
 H  0.33  0.23  0.72
 H  2.99 -0.17 -0.79
 H  3.41 -2.77  2.99
 H  4.11 -1.35  4.00
 H  3.92  1.18  2.93
 H  2.96  2.14  0.63
