17
set: 410.00  0.00  0.00
 C  2.94  0.57 -1.95
 C  2.73 -0.17 -0.62
 C  3.37  0.53  0.59
 C  4.88  0.58  0.55
 C  5.64  1.74  0.01
 N  5.53  1.53  1.47
 H  2.43  0.05 -2.78
 H  4.01  0.64 -2.21
 H  2.54  1.59 -1.91
 H  3.13 -1.19 -0.70
 H  1.65 -0.27 -0.44
 H  3.07 -0.00  1.51
 H  2.99  1.56  0.69
 H  5.37 -0.40  0.42
 H  5.09  2.61 -0.36
 H  6.59  1.56 -0.49
 H  6.41  1.13  1.82
