18
set: 4826.00  0.00  0.00
 C  0.86 -0.01  0.14
 C  2.37  0.04 -0.06
 N  2.66  0.04 -1.50
 C  3.15  1.10  0.80
 C  4.20  0.02  1.14
 O  5.34  0.19  0.29
 C  3.20 -1.07  0.65
 H  0.60 -0.05  1.20
 H  0.43 -0.89 -0.37
 H  0.38  0.89 -0.29
 H  3.68  0.13 -1.63
 H  2.25  0.88 -1.93
 H  2.59  1.42  1.69
 H  3.54  1.98  0.27
 H  4.52 -0.05  2.20
 H  5.91 -0.60  0.39
 H  3.61 -1.86  0.00
 H  2.66 -1.53  1.49
