19
set: 3918.00  0.00  0.00
 C  1.27 -0.53  1.76
 C  1.78 -0.90  0.37
 C  2.42 -2.29  0.34
 O  0.65 -0.80 -0.52
 C  0.99 -0.77 -1.91
 C -0.26 -0.31 -2.65
 O -0.68  0.98 -2.23
 H  0.83  0.48  1.75
 H  2.09 -0.55  2.49
 H  0.50 -1.24  2.08
 H  2.53 -0.15  0.05
 H  1.68 -3.05  0.63
 H  3.26 -2.34  1.04
 H  2.80 -2.54 -0.66
 H  1.30 -1.76 -2.28
 H  1.81 -0.05 -2.08
 H -1.06 -1.06 -2.50
 H -0.04 -0.25 -3.73
 H -0.71  0.95 -1.26
