19
set: 3447.00  0.00  0.00
 C  2.87 -1.04 -0.40
 C  2.38  0.24  0.28
 C  3.40  1.36  0.22
 C  3.50  2.28 -1.00
 C  3.08  2.83  0.34
 C  1.67  3.33  0.56
 O  3.97  3.67  1.05
 H  2.12 -1.84 -0.35
 H  3.79 -1.42  0.08
 H  3.11 -0.86 -1.46
 H  2.14  0.03  1.34
 H  1.44  0.57 -0.19
 H  4.37  1.09  0.65
 H  2.74  2.17 -1.78
 H  4.50  2.54 -1.38
 H  0.94  2.73  0.00
 H  1.60  4.37  0.22
 H  1.42  3.29  1.63
 H  4.87  3.29  0.99
