15
set: 1405.00  0.00  0.00
 C  1.54 -0.50  0.79
 C  2.89 -0.32  0.14
 C  3.48 -1.33 -0.55
 C  3.56  0.97  0.24
 C  3.08  2.06  0.90
 C  3.76  3.29  0.98
 C  4.32  4.37  1.08
 H  0.80  0.22  0.39
 H  1.60 -0.33  1.88
 H  1.15 -1.51  0.62
 H  3.00 -2.30 -0.65
 H  4.45 -1.19 -1.02
 H  4.54  1.04 -0.24
 H  2.11  2.01  1.39
 H  4.82  5.31  1.16
