18
set: 5138.00  0.00  0.00
 C  2.95 -1.04 -0.98
 C  2.43 -0.13  0.14
 C  3.08  1.28  0.18
 N  2.43  2.20  1.13
 C  4.56  1.19  0.49
 C  5.30  2.26  1.19
 O  4.92  1.04  1.89
 H  2.37 -1.97 -1.02
 H  4.00 -1.32 -0.84
 H  2.86 -0.55 -1.97
 H  2.58 -0.61  1.12
 H  1.35  0.01  0.02
 H  2.99  1.73 -0.82
 H  2.54  1.82  2.08
 H  1.43  2.24  0.94
 H  5.14  0.55 -0.18
 H  4.75  3.15  1.51
 H  6.38  2.37  1.02
