14
set: 5570.00  0.00  0.00
 C  3.16 -1.60  0.22
 C  2.50 -0.27 -0.04
 O  1.32 -0.14 -0.33
 N  3.29  0.90  0.06
 C  4.64  1.07  0.37
 C  5.08  2.53  0.38
 O  5.40  0.15  0.62
 H  4.02 -1.75 -0.45
 H  2.41 -2.38  0.09
 H  3.58 -1.63  1.24
 H  2.74  1.74 -0.13
 H  4.80  3.03 -0.56
 H  6.16  2.57  0.51
 H  4.59  3.06  1.21
