17
set: 4528.00  0.00  0.00
 O  2.59 -0.91  0.85
 C  2.28 -0.01 -0.23
 C  2.91  1.34  0.12
 O  2.37  1.82  1.36
 C  4.45  1.29  0.15
 C  5.07  2.63  0.40
 C  6.00  3.19 -0.38
 H  1.99 -1.67  0.79
 H  1.19  0.12 -0.33
 H  2.70 -0.38 -1.18
 H  2.59  2.07 -0.64
 H  2.41  1.05  1.97
 H  4.82  0.87 -0.80
 H  4.74  0.58  0.94
 H  4.72  3.15  1.29
 H  6.38  2.70 -1.27
 H  6.42  4.18 -0.14
