15
set: 5613.00  0.00  0.00
 C  1.12 -0.05  0.20
 N  2.46  0.01 -0.34
 C  3.22  1.24 -0.21
 C  4.58  0.77 -0.72
 O  4.63 -0.63 -0.35
 C  3.34 -1.08 -0.17
 N  3.13 -2.31  0.08
 H  0.63 -0.99 -0.11
 H  0.53  0.78 -0.20
 H  1.10 -0.00  1.31
 H  3.27  1.59  0.84
 H  2.80  2.05 -0.83
 H  4.66  0.85 -1.82
 H  5.43  1.27 -0.25
 H  2.14 -2.49  0.24
