16
set: 6052.00  0.00  0.00
 N  1.43 -0.42 -0.36
 C  2.75  0.01  0.03
 C  3.68 -1.05  0.59
 C  3.95 -0.43 -0.76
 O  4.93  0.60 -0.79
 C  4.24  1.83 -0.49
 C  3.07  1.47  0.44
 H  1.03  0.22 -1.06
 H  0.80 -0.43  0.44
 H  3.29 -2.07  0.60
 H  4.35 -0.78  1.40
 H  3.86 -1.02 -1.68
 H  4.97  2.52 -0.05
 H  3.86  2.28 -1.43
 H  3.36  1.54  1.50
 H  2.20  2.12  0.28
