14
set: 836.00  0.00  0.00
 C  1.55 -0.83 -0.44
 C  3.03 -0.55 -0.30
 O  3.86 -1.45 -0.43
 C  3.44  0.88  0.01
 C  4.94  1.13 -0.16
 O  5.73  0.35  0.74
 H  0.99 -0.40  0.40
 H  1.37 -1.90 -0.51
 H  1.17 -0.33 -1.35
 H  3.14  1.09  1.05
 H  2.85  1.57 -0.62
 H  5.17  2.18  0.06
 H  5.23  0.94 -1.21
 H  5.53 -0.58  0.50
