17
set: 6279.00  0.00  0.00
 N  1.64 -2.10 -0.55
 C  1.53 -0.82  0.20
 C  2.67  0.15 -0.15
 C  4.09 -0.45 -0.12
 C  4.43 -1.12  1.21
 N  4.06 -2.44  1.28
 O  5.00 -0.53  2.13
 H  0.82 -2.68 -0.35
 H  1.62 -1.91 -1.55
 H  1.58 -1.07  1.27
 H  0.57 -0.30  0.03
 H  2.61  1.00  0.55
 H  2.50  0.56 -1.16
 H  4.82  0.35 -0.27
 H  4.20 -1.18 -0.93
 H  3.35 -2.77  0.61
 H  4.12 -2.89  2.19
