17
set: 3905.00  0.00  0.00
 C  0.34 -0.32  1.45
 C  1.62 -0.46  0.62
 C  2.06  0.86  0.01
 O  3.25  0.66 -0.74
 C  3.71  1.87 -1.34
 C  4.92  1.63 -2.11
 C  5.94  1.48 -2.75
 H  0.05 -1.29  1.87
 H -0.49  0.05  0.84
 H  0.48  0.38  2.28
 H  1.47 -1.19 -0.20
 H  2.44 -0.85  1.24
 H  2.24  1.61  0.81
 H  1.26  1.27 -0.64
 H  3.91  2.63 -0.55
 H  2.93  2.29 -2.00
 H  6.83  1.33 -3.32
