15
set: 1028.00  0.00  0.00
 C  0.85 -0.01  0.44
 C  2.35 -0.06  0.17
 C  2.98  1.32  0.23
 O  4.40  1.17 -0.03
 N  5.02  2.42  0.03
 C  6.28  2.33 -0.20
 H  0.41 -1.01  0.39
 H  0.33  0.62 -0.31
 H  0.63  0.41  1.43
 H  2.55 -0.50 -0.82
 H  2.85 -0.71  0.92
 H  2.85  1.78  1.22
 H  2.55  1.99 -0.53
 H  6.83  3.27 -0.17
 H  6.78  1.38 -0.41
