15
set: 7090.00  0.00  0.00
 C  1.04 -0.12  0.10
 N  2.48  0.13  0.18
 C  3.34 -0.97  0.11
 C  2.97 -2.26  0.20
 C  2.96  1.43  0.29
 N  4.30  1.53  0.59
 S  2.04  2.81  0.04
 H  0.54  0.85  0.02
 H  0.70 -0.65  1.00
 H  0.82 -0.73 -0.78
 H  4.38 -0.72 -0.08
 H  1.94 -2.58  0.38
 H  3.72 -3.04  0.09
 H  4.70  0.85  1.24
 H  4.58  2.49  0.76
