15
set: 1409.00  0.00  0.00
 C  0.99  0.01 -0.01
 C  2.49 -0.07  0.06
 C  3.16 -1.25  0.14
 C  3.20  1.16  0.02
 C  3.74  2.26 -0.02
 C  4.43  3.49 -0.05
 C  3.85  4.71 -0.11
 H  0.60  0.60  0.83
 H  0.54 -0.99  0.03
 H  0.66  0.50 -0.93
 H  2.61 -2.19  0.17
 H  4.24 -1.29  0.19
 H  5.52  3.43 -0.03
 H  2.76  4.82 -0.13
 H  4.45  5.61 -0.14
