18
set: 5493.00  0.00  0.00
 C  0.76  1.93  0.60
 C  2.16  2.49  0.47
 O  3.05  1.39  0.17
 C  4.37  1.71  0.02
 C  4.96  2.91  0.12
 C  6.44  3.08 -0.08
 N  6.70  4.02 -1.18
 H  0.05  2.74  0.82
 H  0.70  1.19  1.40
 H  0.44  1.45 -0.34
 H  2.49  2.97  1.41
 H  2.22  3.23 -0.34
 H  4.94  0.81 -0.20
 H  4.39  3.82  0.33
 H  6.90  2.08 -0.20
 H  6.89  3.52  0.83
 H  6.37  3.62 -2.06
 H  7.71  4.16 -1.29
