14
set: 6729.00  0.00  0.00
 O  1.25 -0.37 -0.80
 C  2.39 -0.12 -0.44
 C  2.84  1.19  0.02
 C  4.13  1.37  0.40
 N  4.62  2.61  0.85
 C  5.64  2.50  1.93
 C  6.06  2.84  0.56
 H  3.18 -0.91 -0.45
 H  2.13  2.01  0.05
 H  4.83  0.52  0.35
 H  5.87  1.49  2.30
 H  5.56  3.27  2.70
 H  6.30  3.87  0.29
 H  6.58  2.07 -0.02
