18
set: 1656.00  0.00  0.00
 C  0.74 -0.05 -0.56
 C  2.18 -0.01 -0.08
 C  3.22 -0.75 -0.89
 C  3.18  0.77 -0.91
 N  2.48  0.02  1.35
 C  1.60  0.74  2.27
 C  1.66 -0.75  2.28
 H  0.71 -0.07 -1.66
 H  0.17  0.83 -0.24
 H  0.21 -0.95 -0.21
 H  2.89 -1.29 -1.78
 H  4.03 -1.22 -0.33
 H  3.96  1.29 -0.36
 H  2.82  1.27 -1.81
 H  0.68  1.20  1.88
 H  2.11  1.32  3.04
 H  2.21 -1.28  3.06
 H  0.77 -1.28  1.90
