16
set: 5276.00  0.00  0.00
 C  3.08 -0.92 -1.18
 C  2.90 -0.16  0.14
 C  3.22  1.34  0.06
 O  2.76  1.99  1.25
 C  4.68  1.60 -0.19
 N  5.31  2.36  0.63
 O  6.67  2.53  0.29
 H  2.75 -1.96 -1.07
 H  4.14 -0.95 -1.50
 H  2.50 -0.46 -1.99
 H  3.51 -0.61  0.94
 H  1.85 -0.23  0.47
 H  2.67  1.76 -0.81
 H  3.52  2.51  1.58
 H  5.18  1.16 -1.06
 H  6.98  3.13  0.99
