17
set: 5433.00  0.00  0.00
 C  0.99 -0.14 -0.48
 C  2.40 -0.03  0.08
 N  3.04  1.20 -0.39
 N  4.36  1.30  0.05
 C  4.84  2.47  0.25
 O  6.13  2.70  0.58
 C  6.95  1.52  0.71
 H  0.52 -1.08 -0.16
 H  1.00 -0.11 -1.58
 H  0.35  0.69 -0.13
 H  3.02 -0.87 -0.28
 H  2.38 -0.10  1.18
 H  2.48  2.02 -0.12
 H  4.28  3.42  0.16
 H  7.95  1.89  0.98
 H  6.98  0.97 -0.24
 H  6.56  0.86  1.49
