14
set: 2273.00  0.00  0.00
 C  0.92 -0.02  0.02
 C  2.37  0.00  0.01
 C  3.59  0.04  0.00
 C  5.06  0.03 -0.05
 N  5.64 -0.72 -1.20
 C  5.60  1.39 -0.01
 C  6.05  2.52  0.01
 H  0.51  1.00  0.03
 H  0.54 -0.55  0.91
 H  0.52 -0.53 -0.87
 H  5.43 -0.49  0.87
 H  5.32 -0.26 -2.06
 H  5.22 -1.65 -1.20
 H  6.44  3.52  0.04
