15
set: 1618.00  0.00  0.00
 C  0.92 -1.21  0.88
 C  1.15 -0.42 -0.37
 C  0.92  1.08 -0.38
 N -0.23  1.42  0.48
 N -1.44  0.78  0.25
 C -1.37 -0.47 -0.09
 C -0.12 -1.24 -0.25
 H  1.50 -2.12  1.04
 H  0.64 -0.66  1.79
 H  1.91 -0.77 -1.07
 H  1.79  1.63  0.01
 H  0.75  1.39 -1.43
 H -0.41  2.43  0.49
 H -2.33 -0.97 -0.22
 H -0.19 -2.17 -0.82
