14
set: 6391.00  0.00  0.00
 N  1.79  0.85 -1.09
 C  2.87  0.01 -1.00
 O  3.48 -0.39 -1.99
 C  3.26 -0.41  0.42
 C  4.76 -0.43  0.60
 C  5.47  0.68  1.26
 O  5.23 -0.57  1.96
 H  1.25  1.11 -0.28
 H  1.45  1.08 -2.02
 H  2.87 -1.43  0.58
 H  2.80  0.24  1.18
 H  5.30 -1.02 -0.14
 H  4.91  1.53  1.64
 H  6.52  0.87  1.01
