15
set: 3494.00  0.00  0.00
 C  1.07 -0.19 -0.39
 C  2.40  0.00 -0.29
 C  3.06  1.28 -0.19
 C  4.39  1.49 -0.06
 O  4.78  2.79  0.04
 C  3.56  3.61 -0.14
 C  2.37  2.63 -0.14
 H  0.64 -1.19 -0.46
 H  0.36  0.65 -0.40
 H  3.06 -0.88 -0.28
 H  5.20  0.77 -0.01
 H  3.68  4.14 -1.10
 H  3.54  4.34  0.68
 H  1.71  2.79 -1.02
 H  1.74  2.73  0.76
