16
set: 1830.00  0.00  0.00
 C  0.86 -0.03 -0.12
 C  2.21 -0.03 -0.00
 C  2.99  1.24  0.26
 N  4.28  1.19 -0.44
 C  5.12  0.08  0.04
 C  4.35 -1.21  0.02
 C  3.01 -1.24 -0.04
 H  0.28  0.89 -0.09
 H  0.31 -0.97 -0.25
 H  2.43  2.12 -0.10
 H  3.11  1.35  1.36
 H  4.77  2.07 -0.32
 H  5.51  0.25  1.07
 H  6.00  0.00 -0.62
 H  4.94 -2.13  0.05
 H  2.48 -2.20 -0.09
