20
set: 5343.00  0.00  0.00
 C  1.03 -0.34  0.12
 C  2.44 -0.14  0.66
 N  3.02  1.18  0.34
 C  2.37  2.26  1.07
 C  4.48  1.18  0.53
 C  5.18  0.54 -0.67
 O  4.71  1.12 -1.88
 H  0.69 -1.36  0.32
 H  1.01 -0.18 -0.97
 H  0.30  0.35  0.58
 H  3.10 -0.91  0.23
 H  2.45 -0.30  1.77
 H  1.30  2.30  0.83
 H  2.82  3.22  0.78
 H  2.47  2.15  2.18
 H  4.79  0.69  1.48
 H  4.80  2.24  0.59
 H  5.03 -0.56 -0.67
 H  6.27  0.71 -0.60
 H  3.76  1.30 -1.69
