16
set: 5386.00  0.00  0.00
 C  0.97 -0.02 -0.02
 C  2.51 -0.01  0.02
 N  2.96 -0.75  1.22
 C  3.06 -0.75 -1.22
 O  4.49 -0.77 -1.26
 C  3.01  1.38 -0.01
 C  3.49  2.50 -0.05
 H  0.60  0.50 -0.91
 H  0.56  0.49  0.87
 H  0.62 -1.06 -0.02
 H  2.79 -0.19  2.06
 H  3.98 -0.86  1.15
 H  2.63 -0.30 -2.13
 H  2.75 -1.80 -1.15
 H  4.77  0.17 -1.32
 H  3.89  3.49 -0.05
