19
set: 4432.00  0.00  0.00
 O  2.57  1.77 -2.11
 C  2.27  2.20 -0.77
 C  2.95  1.24  0.20
 C  4.47  1.27  0.13
 C  5.23  2.52  0.64
 C  6.32  1.58  1.22
 C  5.28  0.42  1.15
 H  2.16  2.41 -2.73
 H  1.18  2.20 -0.60
 H  2.64  3.23 -0.60
 H  2.58  0.22 -0.01
 H  2.62  1.50  1.22
 H  4.79  1.03 -0.89
 H  4.68  3.03  1.44
 H  5.55  3.27 -0.10
 H  7.14  1.42  0.50
 H  6.75  1.82  2.20
 H  5.63 -0.57  0.83
 H  4.74  0.32  2.10
