14
set: 6251.00  0.00  0.00
 N  1.09  0.05 -0.62
 C  2.25 -0.05 -0.53
 C  3.70 -0.15 -0.39
 C  4.28  0.90  0.58
 C  5.78  0.77  0.68
 C  6.49  0.95  1.95
 O  6.27 -0.37  1.41
 H  4.15 -0.04 -1.40
 H  3.95 -1.16 -0.04
 H  3.83  0.77  1.57
 H  4.02  1.91  0.23
 H  6.34  0.97 -0.25
 H  5.92  1.18  2.86
 H  7.53  1.29  1.95
