18
set: 221.00  0.00  0.00
 C  0.74  1.27 -0.22
 C -0.73  1.27  0.23
 C -1.46  0.00 -0.23
 C -0.73 -1.27  0.21
 C  0.73 -1.27 -0.24
 C  1.47 -0.00  0.22
 H  0.77  1.34 -1.33
 H  1.25  2.16  0.16
 H -1.25  2.17 -0.15
 H -0.77  1.33  1.33
 H -2.50 -0.00  0.15
 H -1.54  0.01 -1.34
 H -0.77 -1.34  1.32
 H -1.25 -2.16 -0.17
 H  1.25 -2.17  0.14
 H  0.77 -1.33 -1.34
 H  1.54 -0.01  1.33
 H  2.50 -0.00 -0.16
