17
set: 5175.00  0.00  0.00
 C  2.19 -0.93 -1.59
 C  2.33 -0.63 -0.10
 C  3.26  0.56  0.20
 N  4.63  0.29 -0.17
 C  5.21  1.02 -1.06
 N  6.47  0.69 -1.49
 O  7.09 -0.31 -0.70
 H  1.52 -1.79 -1.76
 H  3.16 -1.18 -2.04
 H  1.78 -0.07 -2.13
 H  2.72 -1.51  0.43
 H  1.34 -0.41  0.34
 H  3.23  0.77  1.28
 H  2.87  1.47 -0.32
 H  4.76  1.89 -1.57
 H  7.12  1.48 -1.59
 H  6.34 -0.52 -0.07
