15
set: 3807.00  0.00  0.00
 C  0.76  0.08  0.33
 C  2.06 -0.68  0.28
 C  1.98 -2.17  0.38
 C  3.21 -0.00  0.15
 O  4.43 -0.69  0.11
 C  5.56  0.06 -0.05
 O  5.63  1.26 -0.16
 H  0.91  1.17  0.24
 H  0.23 -0.12  1.27
 H  0.09 -0.24 -0.49
 H  1.35 -2.58 -0.42
 H  1.51 -2.47  1.33
 H  2.97 -2.64  0.33
 H  3.30  1.08  0.07
 H  6.43 -0.63 -0.05
