16
set: 5592.00  0.00  0.00
 C  1.07  0.04  0.40
 N  2.50  0.01  0.03
 C  2.84 -1.27 -0.65
 C  2.81 -0.99 -2.15
 O  3.99 -0.30 -2.61
 C  2.80  0.47 -2.33
 C  2.82  1.09 -0.93
 H  0.85  0.99  0.90
 H  0.86 -0.77  1.11
 H  0.38 -0.06 -0.47
 H  2.13 -2.06 -0.36
 H  3.85 -1.59 -0.37
 H  2.36 -1.69 -2.87
 H  2.35  0.98 -3.18
 H  3.83  1.48 -0.73
 H  2.11  1.92 -0.83
