17
set: 2508.00  0.00  0.00
 C  0.96 -0.03  0.01
 C  2.50 -0.03 -0.04
 N  3.09 -0.77 -1.19
 C  3.01  1.34 -0.03
 C  3.39  2.50 -0.00
 C  3.87  3.88  0.00
 N  2.76  4.85 -0.11
 H  0.60  0.49  0.91
 H  0.59 -1.07  0.04
 H  0.54  0.47 -0.87
 H  2.88 -0.53  0.87
 H  2.81 -0.30 -2.06
 H  2.68 -1.70 -1.22
 H  4.64  3.97 -0.79
 H  4.39  4.07  0.96
 H  2.26  4.67 -0.99
 H  3.15  5.79 -0.19
