17
set: 4270.00  0.00  0.00
 O  1.08 -0.08  0.06
 C  2.50  0.01  0.00
 C  3.09  1.05 -1.00
 C  2.71  0.04 -2.12
 C  3.09 -1.01 -1.02
 C  4.60 -0.77 -0.85
 C  4.60  0.80 -0.83
 H  0.76  0.71  0.53
 H  2.94 -0.00  1.02
 H  2.75  2.10 -1.01
 H  3.31  0.04 -3.04
 H  1.64  0.04 -2.34
 H  2.73 -2.04 -1.05
 H  4.99 -1.20  0.09
 H  5.18 -1.18 -1.68
 H  5.19  1.24 -1.64
 H  4.99  1.21  0.12
