15
set: 3378.00  0.00  0.00
 C  0.92  0.17 -0.19
 C  2.39  0.16  0.13
 O  3.19 -0.91 -0.42
 C  3.43  0.44 -0.88
 C  4.76  1.02 -0.51
 C  5.79  1.28 -1.53
 O  5.00  2.36 -0.98
 H  0.49  1.15  0.04
 H  0.40 -0.59  0.40
 H  0.76 -0.05 -1.26
 H  2.65  0.39  1.17
 H  3.11  0.65 -1.91
 H  5.08  0.82  0.52
 H  5.58  1.04 -2.57
 H  6.84  1.27 -1.24
