17
set: 3460.00  0.00  0.00
 C  0.85  0.10  0.25
 C  2.18  0.16  0.34
 C  3.03  1.37  0.04
 C  2.35  2.74  0.05
 C  3.49  3.67  0.47
 C  4.23  2.80  1.49
 O  4.11  1.44  1.02
 H  0.32 -0.83  0.46
 H  0.25  0.96 -0.05
 H  2.75 -0.72  0.64
 H  3.51  1.20 -0.95
 H  1.54  2.75  0.80
 H  1.91  2.99 -0.92
 H  4.14  3.90 -0.38
 H  3.13  4.62  0.90
 H  5.30  3.04  1.57
 H  3.77  2.89  2.49
