19
set: 1601.00  0.00  0.00
 C -1.50  0.76  0.14
 C -1.50 -0.76 -0.11
 N -0.33 -1.53  0.32
 C  0.90 -1.24 -0.42
 C  1.71  0.03 -0.03
 N  0.98  1.25  0.33
 C -0.27  1.51 -0.39
 H -2.42  1.18 -0.31
 H -1.58  0.95  1.22
 H -1.62 -0.95 -1.19
 H -2.39 -1.20  0.38
 H -0.18 -1.44  1.33
 H  1.58 -2.10 -0.34
 H  0.61 -1.18 -1.48
 H  2.36 -0.21  0.83
 H  2.39  0.25 -0.87
 H  0.79  1.25  1.33
 H -0.47  2.60 -0.33
 H -0.11  1.29 -1.46
