17
set: 6069.00  0.00  0.00
 N  1.10  0.15 -0.33
 C  2.53  0.04 -0.11
 C  3.33 -0.75 -1.12
 C  3.44  0.76 -1.09
 N  2.82  1.57 -2.13
 C  4.68  1.43 -0.53
 O  5.60  1.80 -1.56
 H  0.69  0.81  0.34
 H  0.64 -0.75 -0.19
 H  2.89 -0.01  0.92
 H  2.78 -1.18 -1.96
 H  4.17 -1.35 -0.76
 H  1.80  1.49 -2.02
 H  3.03  1.17 -3.05
 H  5.22  0.74  0.14
 H  4.38  2.32  0.06
 H  5.08  2.37 -2.15
