17
set: 2292.00  0.00  0.00
 C  1.07 -0.61  0.04
 C  2.38  0.10  0.20
 C  2.61  1.44  0.20
 C  1.56  2.49  0.02
 N  3.93  1.90  0.37
 C  4.38  3.21  0.42
 N  5.59  3.63  0.57
 H  1.10 -1.31 -0.81
 H  0.22  0.07 -0.13
 H  0.83 -1.21  0.93
 H  3.25 -0.55  0.35
 H  0.57  2.04 -0.11
 H  1.76  3.12 -0.86
 H  1.50  3.16  0.90
 H  4.64  1.18  0.47
 H  3.58  3.95  0.31
 H  6.25  2.85  0.66
