20
set: 1705.00  0.00  0.00
 C  1.10 -0.06 -0.15
 C  2.62  0.02  0.00
 C  3.10  1.20  0.86
 C  4.42  0.71  1.51
 C  4.57 -0.73  1.01
 N  3.20 -1.14  0.70
 C  3.14 -2.39 -0.06
 H  0.79 -0.89 -0.79
 H  0.72  0.87 -0.61
 H  0.63 -0.18  0.84
 H  3.07  0.11 -1.02
 H  2.35  1.43  1.63
 H  3.23  2.11  0.25
 H  5.29  1.33  1.22
 H  4.35  0.74  2.61
 H  5.21 -0.76  0.10
 H  5.02 -1.41  1.75
 H  2.10 -2.68 -0.23
 H  3.63 -3.19  0.52
 H  3.66 -2.31 -1.04
