14
set: 6061.00  0.00  0.00
 N  0.90 -0.07 -0.46
 C  2.23 -0.00  0.10
 C  3.36 -0.84 -0.50
 O  3.20 -1.41 -1.78
 C  2.82 -0.36 -2.68
 O  3.20  0.89 -2.08
 C  3.36  0.65 -0.69
 H  0.38  0.79 -0.27
 H  0.38 -0.85 -0.06
 H  2.35  0.14  1.18
 H  4.05 -1.40  0.13
 H  3.38 -0.48 -3.62
 H  1.73 -0.37 -2.83
 H  4.05  1.36 -0.23
