17
set: 1246.00  0.00  0.00
 C  1.25 -0.27  0.29
 C  2.71 -0.16 -0.09
 C  3.17 -0.48 -1.50
 C  3.19  0.95 -1.01
 C  4.52  1.64 -0.73
 C  5.11  2.24 -1.92
 C  5.59  2.74 -2.92
 H  1.01  0.37  1.15
 H  0.99 -1.30  0.55
 H  0.60  0.04 -0.55
 H  3.41 -0.44  0.70
 H  2.41 -0.75 -2.24
 H  4.13 -0.98 -1.64
 H  2.42  1.61 -1.41
 H  5.23  0.92 -0.30
 H  4.38  2.43  0.03
 H  6.02  3.18 -3.80
