14
set: 4666.00  0.00  0.00
 C  0.98 -0.07  0.16
 C  2.48  0.08 -0.05
 C  3.24  1.15  0.79
 C  4.11 -0.02  1.26
 O  3.24 -0.99  0.60
 C  2.81  0.14 -1.49
 N  3.07  0.21 -2.62
 H  0.76 -0.11  1.23
 H  0.62 -1.00 -0.31
 H  0.44  0.77 -0.29
 H  2.60  1.59  1.57
 H  3.73  1.94  0.22
 H  5.12 -0.04  0.83
 H  4.16 -0.20  2.34
