16
set: 2090.00  0.00  0.00
 C  0.79  0.26  0.83
 C  1.76  0.10 -0.08
 C  2.95  0.99 -0.24
 C  4.29  0.27  0.02
 C  4.45 -0.21  1.48
 C  4.49  0.90  2.43
 N  4.52  1.79  3.18
 H -0.05 -0.43  0.89
 H  0.81  1.09  1.54
 H  1.70 -0.75 -0.77
 H  2.86  1.86  0.43
 H  2.98  1.39 -1.27
 H  5.12  0.94 -0.24
 H  4.37 -0.61 -0.63
 H  5.38 -0.79  1.59
 H  3.62 -0.87  1.76
