20
set: 5115.00  0.00  0.00
 C  2.39 -1.01  1.61
 C  2.21 -0.12  0.38
 C  2.91  1.26  0.44
 C  2.30  2.21  1.49
 O  2.98  3.46  1.49
 N  4.36  1.24  0.69
 C  5.18  0.72 -0.41
 H  1.87 -1.97  1.47
 H  1.98 -0.55  2.52
 H  3.45 -1.24  1.80
 H  1.14  0.06  0.20
 H  2.58 -0.66 -0.51
 H  2.78  1.75 -0.54
 H  2.33  1.74  2.49
 H  1.24  2.40  1.24
 H  3.91  3.20  1.31
 H  4.56  0.71  1.54
 H  5.04  1.37 -1.29
 H  4.95 -0.32 -0.71
 H  6.24  0.77 -0.13
