13
set: 4376.00  0.00  0.00
 O  1.16 -0.10  0.12
 C  2.35  0.02  0.06
 O  3.25 -1.04  0.11
 C  4.54 -0.32 -0.00
 C  4.26  0.68 -1.15
 C  3.26  1.24 -0.08
 C  4.35  0.85  0.98
 H  5.36 -1.04  0.02
 H  3.85  0.28 -2.08
 H  5.10  1.37 -1.34
 H  2.77  2.21 -0.13
 H  5.20  1.56  0.99
 H  4.03  0.61  2.00
