17
set: 2817.00  0.00  0.00
 N  1.06 -0.03  0.04
 C  2.52 -0.02 -0.02
 C  3.13 -0.99 -1.07
 C  4.65 -0.77 -0.84
 C  4.64  0.80 -0.80
 C  3.12  1.01 -1.03
 N  2.76  0.03 -2.11
 H  0.73  0.77  0.58
 H  0.74 -0.87  0.54
 H  3.02 -0.04  0.97
 H  2.77 -2.01 -1.21
 H  5.01 -1.22  0.10
 H  5.25 -1.18 -1.67
 H  5.23  1.25 -1.61
 H  4.99  1.20  0.16
 H  2.74  2.03 -1.11
 H  3.43  0.06 -2.89
