15
set: 3190.00  0.00  0.00
 C  0.99 -0.08  0.00
 C  2.46  0.20 -0.01
 C  3.10  1.36  0.22
 C  4.60  1.24  0.12
 C  4.81 -0.24 -0.15
 O  4.35 -1.12  0.90
 C  3.48 -0.87 -0.25
 H  0.73 -0.80  0.79
 H  0.66 -0.52 -0.95
 H  0.41  0.84  0.17
 H  2.60  2.29  0.51
 H  5.01  1.86 -0.70
 H  5.11  1.56  1.04
 H  5.69 -0.60 -0.70
 H  3.27 -1.76 -0.86
