18
set: 5385.00  0.00  0.00
 C  0.95  0.11 -0.02
 C  2.48 -0.11 -0.01
 N  2.79 -1.09  1.05
 C  2.93 -0.78 -1.34
 O  2.36 -2.07 -1.49
 C  3.17  1.23  0.12
 C  3.97  1.63  1.11
 H  0.67  0.83 -0.80
 H  0.61  0.50  0.94
 H  0.44 -0.84 -0.24
 H  2.32 -0.85  1.92
 H  3.80 -1.09  1.24
 H  4.04 -0.82 -1.34
 H  2.62 -0.17 -2.20
 H  2.40 -2.44 -0.58
 H  2.98  1.93 -0.71
 H  4.20  0.99  1.97
 H  4.43  2.62  1.11
