17
set: 3579.00  0.00  0.00
 C  0.95  0.02 -0.38
 C  2.35 -0.35  0.05
 C  2.44 -1.62  0.85
 C  3.39  0.43 -0.30
 C  4.81  0.21  0.03
 C  5.89  0.74 -0.83
 O  5.58  1.40  0.41
 H  0.93  0.95 -0.97
 H  0.30  0.16  0.50
 H  0.50 -0.78 -0.98
 H  1.76 -1.57  1.72
 H  3.45 -1.82  1.23
 H  2.13 -2.48  0.25
 H  3.20  1.34 -0.88
 H  5.06 -0.67  0.64
 H  5.62  1.29 -1.74
 H  6.86  0.22 -0.86
