17
set: 3435.00  0.00  0.00
 C  1.01 -0.04  0.47
 C  2.38 -0.02 -0.17
 O  2.16 -0.03 -1.58
 C  3.32  1.09  0.40
 C  3.93  0.02  1.34
 O  5.32  0.05  1.64
 C  3.36 -1.08  0.41
 H  1.08 -0.03  1.57
 H  0.46 -0.95  0.16
 H  0.43  0.83  0.15
 H  3.03 -0.02 -2.02
 H  2.86  1.99  0.84
 H  4.06  1.40 -0.36
 H  3.43  0.02  2.32
 H  5.81  0.06  0.80
 H  4.11 -1.37 -0.34
 H  2.94 -1.99  0.86
