20
set: 5701.00  0.00  0.00
 C  1.28  1.12 -1.38
 N  2.59  1.70 -1.06
 C  3.30  0.95 -0.02
 C  4.79  1.36  0.05
 C  5.41  0.89  1.36
 C  5.56  0.81 -1.16
 O  4.89  2.81  0.06
 H  0.77  1.77 -2.11
 H  0.62  0.99 -0.51
 H  1.42  0.14 -1.85
 H  2.45  2.65 -0.71
 H  3.24 -0.12 -0.26
 H  2.84  1.09  0.99
 H  4.91  1.37  2.21
 H  6.48  1.15  1.39
 H  5.32 -0.20  1.47
 H  5.06  1.11 -2.10
 H  5.60 -0.29 -1.14
 H  6.59  1.19 -1.16
 H  4.66  3.10 -0.84
