13
set: 6151.00  0.00  0.00
 N  0.87 -0.11  0.27
 C  2.14 -0.05  0.06
 C  2.98  1.20 -0.13
 O  4.29  1.12  0.47
 C  4.95 -0.05  0.16
 C  4.28 -1.18 -0.12
 N  2.88 -1.21 -0.10
 H  0.48  0.83  0.33
 H  2.49  2.06  0.34
 H  3.09  1.40 -1.21
 H  6.03  0.03  0.19
 H  4.79 -2.11 -0.37
 H  2.38 -2.08 -0.02
