13
set: 4222.00  0.00  0.00
 C  0.97 -0.07  0.06
 O  2.40 -0.05  0.06
 C  2.89  1.28  0.00
 C  4.34  1.29  0.00
 C  5.56  1.37 -0.00
 C  7.00  1.38 -0.00
 O  7.68  2.39 -0.04
 H  0.67 -1.12  0.11
 H  0.56  0.39 -0.86
 H  0.56  0.46  0.94
 H  2.53  1.87  0.87
 H  2.53  1.80 -0.91
 H  7.46  0.36  0.04
