14
set: 7199.00  0.00  0.00
 O  0.89 -0.06  0.54
 S  2.22  0.04 -0.07
 O  2.39  0.19 -1.52
 C  3.22  1.31  0.81
 C  4.49  0.57  1.21
 N  4.02 -0.77  1.62
 C  3.30 -1.36  0.50
 H  2.62  1.62  1.67
 H  3.37  2.14  0.10
 H  5.20  0.55  0.35
 H  4.98  1.06  2.06
 H  4.79 -1.37  1.92
 H  3.91 -1.63 -0.38
 H  2.65 -2.18  0.81
