19
set: 1295.00  0.00  0.00
 C  0.95  0.03 -0.00
 C  2.50 -0.00 -0.04
 C  2.98  0.15 -1.49
 C  3.06 -1.29  0.64
 C  3.39 -0.90  2.10
 C  3.52  0.60  2.03
 C  3.05  1.08  0.88
 H  0.58 -0.12  1.02
 H  0.53 -0.76 -0.65
 H  0.57  1.00 -0.36
 H  4.08  0.17 -1.54
 H  2.60  1.08 -1.94
 H  2.63 -0.69 -2.11
 H  3.99 -1.58  0.13
 H  2.36 -2.14  0.56
 H  4.30 -1.40  2.47
 H  2.58 -1.19  2.80
 H  3.91  1.20  2.86
 H  2.99  2.14  0.61
