14
set: 5227.00  0.00  0.00
 C -0.13 -0.21  0.69
 C  0.87  0.26 -0.33
 C  1.91  1.05 -0.01
 O  2.89  1.55 -0.83
 C  2.78  1.17 -2.20
 C  3.88  1.77 -2.95
 N  4.74  2.23 -3.59
 H -0.15 -1.31  0.75
 H -1.15  0.12  0.43
 H  0.11  0.18  1.69
 H  0.72 -0.07 -1.36
 H  2.09  1.39  1.01
 H  1.82  1.52 -2.63
 H  2.82  0.07 -2.32
