13
set: 6911.00  0.00  0.00
 C  0.82  0.13 -0.01
 C  2.31  0.06 -0.00
 C  3.24  1.07  0.00
 C  4.60  0.64  0.01
 C  4.71 -0.72  0.01
 O  5.89 -1.42  0.02
 S  3.14 -1.50  0.00
 H  0.51  1.18 -0.00
 H  0.37 -0.36  0.87
 H  0.38 -0.34 -0.90
 H  2.94  2.12  0.00
 H  5.46  1.31  0.02
 H  5.70 -2.38  0.02
