20
set: 1701.00  0.00  0.00
 C  0.99 -0.05  0.19
 C  2.50  0.04  0.04
 C  3.27  1.13  0.82
 C  4.30  0.03  1.19
 C  4.71 -0.07  2.65
 C  5.53  0.05  0.27
 N  3.27 -0.99  0.80
 H  0.60 -0.96 -0.29
 H  0.50  0.81 -0.28
 H  0.71 -0.09  1.26
 H  2.76  0.07 -1.03
 H  2.71  1.49  1.69
 H  3.64  1.99  0.24
 H  3.83 -0.10  3.30
 H  5.33  0.79  2.95
 H  5.30 -0.98  2.83
 H  5.24  0.13 -0.79
 H  6.12 -0.88  0.39
 H  6.19  0.90  0.50
 H  3.64 -1.76  0.22
