15
set: 4526.00  0.00  0.00
 O  0.51  1.32 -0.20
 C  1.84  1.41 -0.64
 C  2.77  1.83  0.48
 O  2.32  2.02  1.60
 C  4.24  2.03  0.14
 C  4.58  3.50  0.14
 C  5.07  4.16 -0.91
 H  0.55  1.55  0.76
 H  1.94  2.14 -1.46
 H  2.20  0.44 -1.03
 H  4.49  1.58 -0.83
 H  4.82  1.51  0.93
 H  4.39  4.02  1.08
 H  5.27  3.66 -1.86
 H  5.30  5.22 -0.85
