15
set: 3992.00  0.00  0.00
 C  0.85 -0.23 -0.11
 C  2.36 -0.01  0.06
 O  3.11 -0.82 -0.87
 C  2.73  1.43 -0.07
 C  3.37  2.14  0.89
 C  3.74  3.50  0.79
 C  4.07  4.67  0.73
 H  0.29  0.31  0.66
 H  0.62 -1.30 -0.03
 H  0.51  0.14 -1.09
 H  2.67 -0.38  1.05
 H  2.83 -0.58 -1.77
 H  2.47  1.93 -1.01
 H  3.64  1.64  1.83
 H  4.36  5.70  0.68
