16
set: 5270.00  0.00  0.00
 C  0.99 -0.41  0.12
 C  2.47 -0.32 -0.23
 C  2.87 -1.22 -1.39
 O  2.80  1.05 -0.66
 C  3.02  1.96  0.30
 N  2.95  1.71  1.56
 O  3.27  2.89  2.30
 H  0.75  0.28  0.94
 H  0.75 -1.43  0.45
 H  0.37 -0.16 -0.75
 H  3.09 -0.54  0.65
 H  2.29 -0.96 -2.30
 H  2.66 -2.27 -1.14
 H  3.94 -1.12 -1.62
 H  3.27  2.95 -0.11
 H  3.16  2.57  3.21
