18
set: 5032.00  0.00  0.00
 C  3.53 -1.03 -0.29
 C  2.92  0.01  0.64
 C  3.21  1.48  0.24
 C  2.43  2.46  1.13
 C  4.68  1.77  0.33
 N  5.34  2.13 -0.71
 O  6.71  2.37 -0.39
 H  3.29 -2.05  0.04
 H  4.63 -0.94 -0.33
 H  3.16 -0.90 -1.32
 H  3.27 -0.15  1.68
 H  1.82 -0.11  0.68
 H  2.91  1.62 -0.81
 H  2.72  2.36  2.19
 H  1.35  2.27  1.06
 H  2.61  3.50  0.82
 H  5.19  1.67  1.31
 H  7.06  2.63 -1.26
