14
set: 4569.00  0.00  0.00
 C  0.85 -1.12  0.59
 C -0.37 -1.45 -0.27
 C -1.47 -0.42 -0.22
 N -1.47  0.84  0.07
 O -0.22  1.46  0.32
 C  0.88  1.00 -0.47
 O  1.65 -0.03  0.11
 H  1.53 -1.99  0.63
 H  0.52 -0.90  1.62
 H -0.80 -2.39  0.09
 H -0.07 -1.64 -1.32
 H -2.49 -0.77 -0.43
 H  1.56  1.86 -0.56
 H  0.49  0.71 -1.46
