17
set: 2405.00  0.00  0.00
 C  1.02  0.19 -1.32
 C  2.48  0.43 -1.11
 C  2.97  1.49 -0.44
 N  4.32  1.76 -0.22
 C  4.81  2.86  0.44
 N  6.06  3.06  0.60
 C  6.46  4.26  1.31
 H  0.77  0.12 -2.39
 H  0.41  0.99 -0.89
 H  0.69 -0.76 -0.87
 H  3.18 -0.31 -1.52
 H  2.30  2.25 -0.03
 H  5.02  1.10 -0.56
 H  4.02  3.55  0.80
 H  7.05  4.00  2.19
 H  5.60  4.89  1.63
 H  7.11  4.88  0.66
