15
set: 3156.00  0.00  0.00
 C  1.05  0.04  0.64
 C  2.43 -0.04  0.02
 C  2.66  0.69 -1.27
 O  3.99  1.11 -1.60
 C  4.74 -0.04 -1.72
 C  4.04 -1.18 -1.59
 C  2.63 -0.84 -1.26
 H  0.95  0.94  1.27
 H  0.85 -0.84  1.27
 H  0.27  0.08 -0.13
 H  3.27 -0.06  0.72
 H  1.89  1.33 -1.70
 H  5.79  0.13 -1.92
 H  4.44 -2.19 -1.70
 H  1.80 -1.42 -1.66
