13
set: 7107.00  0.00  0.00
 C  1.20 -0.32  0.20
 O  2.63 -0.07  0.07
 S  3.00  1.50 -0.28
 O  2.69  1.77 -1.68
 O  2.45  2.36  0.78
 C  4.75  1.34 -0.04
 C  5.58  1.54 -1.05
 H  1.12 -1.38  0.48
 H  0.70 -0.15 -0.77
 H  0.77  0.32  0.98
 H  5.03  1.14  1.00
 H  5.20  1.75 -2.05
 H  6.66  1.51 -0.90
