15
set: 1414.00  0.00  0.00
 C  0.89  0.36 -0.29
 C  2.34  0.08  0.02
 C  2.86 -1.14  0.35
 C  2.13 -2.38  0.47
 C  2.72 -3.55  0.80
 C  3.21  1.21 -0.06
 C  3.90  2.21 -0.14
 H  0.49  1.12  0.41
 H  0.26 -0.53 -0.21
 H  0.78  0.77 -1.30
 H  3.93 -1.19  0.54
 H  1.06 -2.37  0.28
 H  3.79 -3.61  1.00
 H  2.14 -4.47  0.89
 H  4.53  3.07 -0.20
