17
set: 2230.00  0.00  0.00
 C  1.42  0.16  1.52
 C  1.90  0.47  0.09
 C  2.78  1.70  0.01
 C  2.19  3.03 -0.09
 C  0.89  3.34  0.03
 N  4.07  1.46  0.01
 N  4.95  2.51 -0.04
 H  0.79 -0.74  1.53
 H  0.84  0.99  1.95
 H  2.28 -0.02  2.18
 H  1.03  0.59 -0.57
 H  2.49 -0.37 -0.29
 H  2.88  3.85 -0.33
 H  0.13  2.59  0.26
 H  0.53  4.36 -0.11
 H  5.88  2.19  0.24
 H  4.69  3.36  0.46
