18
set: 6265.00  0.00  0.00
 N  0.83 -0.02  0.20
 C  2.28 -0.12  0.01
 C  2.89  1.28 -0.18
 C  4.39  1.26 -0.24
 C  5.13  1.66 -1.28
 C  6.63  1.61 -1.31
 O  7.12  0.78 -2.38
 H  0.44 -0.95  0.38
 H  0.39  0.30 -0.66
 H  2.59 -0.76 -0.84
 H  2.71 -0.58  0.92
 H  2.56  1.90  0.67
 H  2.49  1.74 -1.09
 H  4.90  0.87  0.65
 H  4.64  2.05 -2.18
 H  7.02  1.28 -0.33
 H  7.05  2.61 -1.52
 H  6.69 -0.09 -2.28
