15
set: 6944.00  0.00  0.00
 C  0.85  0.12 -0.01
 C  2.35  0.02  0.00
 C  3.27  1.04  0.01
 C  4.64  0.61  0.02
 C  5.82  1.54  0.03
 C  4.73 -0.77  0.01
 S  3.16 -1.52 -0.00
 H  0.55  1.17 -0.00
 H  0.41 -0.37  0.87
 H  0.42 -0.35 -0.90
 H  2.98  2.09  0.01
 H  5.49  2.59  0.01
 H  6.47  1.38 -0.85
 H  6.44  1.40  0.93
 H  5.62 -1.39  0.01
