17
set: 3079.00  0.00  0.00
 C -0.87  0.05 -1.17
 C -0.65  1.08 -0.02
 C -1.15 -0.02  0.95
 C -0.58 -1.03 -0.08
 O  0.82 -1.22  0.15
 C  1.60 -0.04 -0.13
 C  0.86  1.27  0.22
 H -1.92  0.01 -1.48
 H -0.23  0.08 -2.06
 H -1.19  2.04 -0.06
 H -0.73 -0.06  1.96
 H -2.25 -0.06  1.00
 H -1.02 -2.03 -0.17
 H  1.87 -0.04 -1.20
 H  2.53 -0.15  0.45
 H  1.26  2.07 -0.42
 H  1.03  1.56  1.27
