15
set: 327.00  0.00  0.00
 C  0.70  1.34 -0.56
 C -0.45  1.00  0.32
 C -1.49  0.00 -0.22
 C -0.83 -1.37  0.03
 C  0.68 -1.08 -0.01
 N  0.86  0.32  0.49
 H  0.65  1.00 -1.60
 H  1.27  2.26 -0.40
 H -0.75  1.67  1.12
 H -2.45  0.10  0.30
 H -1.68  0.17 -1.29
 H -1.10 -1.73  1.04
 H -1.13 -2.14 -0.69
 H  1.25 -1.76  0.64
 H  1.09 -1.17 -1.03
