17
set: 2812.00  0.00  0.00
 N  0.99 -0.08 -0.11
 C  2.42  0.04  0.01
 C  3.38 -0.55 -1.06
 N  4.48 -0.40 -0.02
 C  3.39 -0.72  0.99
 C  4.49  1.10  0.11
 C  2.97  1.47  0.13
 H  0.51  0.43  0.63
 H  0.70 -1.06 -0.05
 H  3.54  0.01 -2.00
 H  3.21 -1.61 -1.27
 H  3.22 -1.80  1.02
 H  3.55 -0.32  2.00
 H  5.02  1.39  1.03
 H  5.03  1.53 -0.75
 H  2.66  2.10 -0.72
 H  2.66  1.96  1.06
