13
set: 6373.00  0.00  0.00
 N  1.11 -0.21  0.26
 C  2.46 -0.32  0.09
 N  3.18 -1.36 -0.18
 C  3.16  1.03  0.22
 O  2.51  2.02  0.56
 C  4.62  1.06 -0.05
 C  5.32  2.20  0.05
 H  0.78  0.69  0.61
 H  0.54 -1.03  0.42
 H  2.60 -2.21 -0.24
 H  5.07  0.11 -0.34
 H  4.82  3.12  0.35
 H  6.39  2.23 -0.15
