13
set: 5663.00  0.00  0.00
 C  3.18 -1.14  0.42
 N  2.59  0.02 -0.24
 C  3.15  1.26 -0.12
 N  2.56  2.42 -0.30
 C  3.60  3.34 -0.14
 C  4.76  2.69  0.15
 O  4.49  1.33  0.17
 H  2.62 -2.03  0.12
 H  3.17 -1.07  1.52
 H  4.22 -1.26  0.08
 H  1.57  0.07 -0.25
 H  3.43  4.41 -0.23
 H  5.78  2.98  0.35
