17
set: 1033.00  0.00  0.00
 C  0.92 -0.07 -0.10
 C  2.43  0.04  0.08
 N  3.22 -0.66 -0.96
 C  2.95  1.49  0.12
 C  2.43  2.30  1.31
 O  4.37  1.49  0.18
 H  0.37  0.39  0.74
 H  0.61 -1.12 -0.16
 H  0.60  0.43 -1.03
 H  2.72 -0.43  1.04
 H  2.83 -0.45 -1.89
 H  3.15 -1.67 -0.85
 H  2.61  1.99 -0.82
 H  2.67  1.79  2.25
 H  1.35  2.45  1.25
 H  2.92  3.28  1.31
 H  4.62  0.70 -0.37
