16
set: 772.00  0.00  0.00
 C  1.66 -0.70 -0.93
 C  2.96 -0.48 -0.14
 C  3.16  0.95  0.29
 C  4.20  1.69 -0.12
 O  4.49  2.99  0.18
 C  3.57  3.66  1.04
 H  1.54 -1.76 -1.20
 H  1.65 -0.10 -1.85
 H  0.78 -0.41 -0.33
 H  3.82 -0.80 -0.75
 H  2.95 -1.13  0.75
 H  2.39  1.38  0.94
 H  4.97  1.29 -0.78
 H  3.96  4.68  1.17
 H  3.50  3.16  2.01
 H  2.57  3.71  0.58
