17
set: 3231.00  0.00  0.00
 C  1.01  0.06  0.10
 C  2.34 -0.02  0.02
 C  3.12 -1.31 -0.01
 C  4.12 -1.30 -1.18
 C  4.94 -0.01 -1.16
 O  4.10  1.15 -1.21
 C  3.22  1.21 -0.08
 H  0.49  1.02  0.10
 H  0.39 -0.84  0.17
 H  2.44 -2.18 -0.08
 H  3.68 -1.41  0.93
 H  4.80 -2.17 -1.12
 H  3.58 -1.37 -2.14
 H  5.57  0.03 -0.24
 H  5.60  0.07 -2.03
 H  3.82  1.30  0.85
 H  2.62  2.12 -0.20
