20
set: 2632.00  0.00  0.00
 C  2.76 -0.99 -0.68
 N  2.27  0.25 -0.09
 C  3.30  1.26  0.03
 C  3.45  2.29 -1.08
 C  2.58  2.26 -2.31
 C  2.88  2.69  0.27
 C  3.64  3.58  1.22
 H  1.95 -1.74 -0.67
 H  3.65 -1.42 -0.18
 H  3.03 -0.81 -1.73
 H  1.88  0.06  0.84
 H  4.24  0.95  0.52
 H  4.48  2.61 -1.25
 H  1.61  1.81 -2.09
 H  3.05  1.68 -3.12
 H  2.40  3.28 -2.70
 H  1.79  2.83  0.26
 H  4.72  3.37  1.18
 H  3.31  3.44  2.26
 H  3.50  4.65  0.97
