15
set: 4053.00  0.00  0.00
 C  1.92 -0.64  0.03
 C  3.04  0.03 -0.75
 O  4.14  0.26  0.17
 C  5.24  0.84 -0.33
 C  5.48  1.26 -1.60
 C  6.77  1.87 -1.90
 O  7.10  2.28 -3.01
 H  1.07 -0.81 -0.64
 H  1.58 -0.01  0.86
 H  2.25 -1.61  0.43
 H  2.72  1.01 -1.15
 H  3.39 -0.59 -1.58
 H  6.00  0.95  0.45
 H  4.76  1.17 -2.41
 H  7.47  1.93 -1.03
