16
set: 2101.00  0.00  0.00
 C  0.84 -0.25  0.19
 C  2.33 -0.06  0.18
 C  3.01  1.07 -0.04
 C  2.42  2.42 -0.33
 C  4.54  1.03  0.02
 C  5.17  1.43 -1.24
 N  5.66  1.74 -2.25
 H  0.53 -0.98 -0.58
 H  0.29  0.68  0.01
 H  0.51 -0.66  1.16
 H  2.91 -0.97  0.36
 H  1.33  2.40 -0.36
 H  2.79  2.81 -1.29
 H  2.73  3.15  0.44
 H  4.89  0.03  0.28
 H  4.91  1.72  0.80
