17
set: 2513.00  0.00  0.00
 C  3.49 -1.13  0.21
 C  3.31 -0.05  1.27
 N  3.21  1.31  0.71
 C  2.82  2.28  1.74
 C  4.40  1.73 -0.01
 C  5.63  1.79  0.81
 N  6.55  1.81  1.53
 H  3.40 -2.13  0.67
 H  4.47 -1.09 -0.28
 H  2.71 -1.05 -0.57
 H  4.13 -0.12  2.02
 H  2.37 -0.23  1.81
 H  1.86  1.97  2.17
 H  2.70  3.27  1.28
 H  3.56  2.36  2.56
 H  4.22  2.73 -0.44
 H  4.59  1.05 -0.86
