19
set: 2232.00  0.00  0.00
 C  2.99 -0.97 -1.02
 C  2.52 -0.05  0.11
 C  3.17  1.35  0.09
 C  2.57  2.26  1.17
 C  4.69  1.26  0.26
 N  5.43  1.75 -0.81
 N  5.32  0.75  1.27
 H  2.50 -1.95 -0.96
 H  4.08 -1.13 -0.97
 H  2.76 -0.54 -2.00
 H  2.72 -0.52  1.09
 H  1.43  0.08  0.06
 H  2.96  1.79 -0.90
 H  2.73  1.85  2.17
 H  1.48  2.37  1.02
 H  3.01  3.27  1.14
 H  5.00  2.46 -1.39
 H  6.42  1.87 -0.62
 H  4.65  0.37  1.95
