15
set: 3586.00  0.00  0.00
 C  0.97 -0.08  0.00
 C  2.51 -0.03  0.00
 C  3.04  1.33  0.01
 C  3.44  2.48  0.01
 C  3.96  3.82  0.03
 C  3.93  4.70 -1.17
 O  3.00  4.92 -0.09
 H  0.63 -1.12 -0.00
 H  0.57  0.43 -0.88
 H  0.57  0.42  0.89
 H  2.90 -0.56 -0.88
 H  2.90 -0.57  0.88
 H  4.74  4.01  0.77
 H  3.49  4.30 -2.09
 H  4.71  5.46 -1.28
