14
set: 6748.00  0.00  0.00
 O  2.81 -0.96 -0.67
 C  2.24  0.18 -0.00
 C  1.80 -0.28  1.33
 N  1.42 -0.58  2.39
 C  3.22  1.33  0.12
 C  3.37  2.27 -1.05
 C  2.69  2.75  0.21
 H  3.27 -0.61 -1.46
 H  1.34  0.53 -0.53
 H  4.12  1.09  0.69
 H  2.73  2.11 -1.93
 H  4.37  2.65 -1.28
 H  3.23  3.44  0.86
 H  1.61  2.89  0.19
