18
set: 1665.00  0.00  0.00
 C  1.01  0.07  0.01
 C  2.53  0.02  0.11
 C  3.12 -1.15  0.96
 C  3.97 -0.30  1.92
 C  4.55  0.75  0.95
 N  3.11  1.24  0.78
 C  2.97  0.84  2.25
 H  0.63 -0.82 -0.51
 H  0.69  0.97 -0.54
 H  0.53  0.09  1.00
 H  2.94  0.01 -0.91
 H  3.73 -1.85  0.37
 H  2.34 -1.73  1.49
 H  4.57 -0.82  2.68
 H  5.03  0.42  0.02
 H  5.15  1.53  1.44
 H  3.39  1.63  2.88
 H  1.95  0.58  2.58
