16
set: 5959.00  0.00  0.00
 C  2.73 -0.82 -0.73
 O  2.50  0.05  0.37
 C  2.98  1.39  0.14
 C  2.36  2.27  1.22
 C  4.48  1.42  0.20
 N  5.15  1.75 -0.85
 O  6.54  1.71 -0.61
 H  2.30 -1.79 -0.45
 H  3.80 -0.95 -0.95
 H  2.22 -0.45 -1.64
 H  2.66  1.73 -0.86
 H  2.67  1.94  2.22
 H  1.27  2.22  1.16
 H  2.68  3.32  1.08
 H  4.98  1.14  1.13
 H  6.90  1.98 -1.47
