20
set: 5938.00  0.00  0.00
 C  1.29  2.21  0.48
 O  2.68  2.17  0.76
 C  3.40  1.39 -0.20
 C  4.90  1.47  0.10
 C  5.20  0.90  1.51
 C  5.64  0.65 -0.96
 N  5.30  2.88 -0.05
 H  0.82  2.83  1.25
 H  0.85  1.19  0.50
 H  1.09  2.65 -0.52
 H  3.22  1.79 -1.22
 H  3.06  0.34 -0.16
 H  4.65  1.47  2.27
 H  6.27  0.97  1.72
 H  4.90 -0.16  1.59
 H  5.44  1.05 -1.97
 H  5.35 -0.41 -0.93
 H  6.73  0.69 -0.79
 H  4.75  3.44  0.60
 H  6.28  2.99  0.23
