15
set: 2421.00  0.00  0.00
 C  0.99 -0.05  0.07
 C  2.52  0.03 -0.06
 C  3.05 -0.59 -1.34
 N  2.27 -1.19 -2.16
 N  2.83 -1.81 -3.25
 C  3.01  1.40  0.07
 C  3.42  2.54  0.16
 H  0.67  0.38  1.03
 H  0.66 -1.09  0.00
 H  0.51  0.52 -0.74
 H  2.96 -0.54  0.78
 H  4.14 -0.50 -1.51
 H  3.73 -1.42 -3.56
 H  2.16 -1.85 -4.01
 H  3.78  3.55  0.25
