19
set: 2219.00  0.00  0.00
 C  0.92  0.08  0.05
 C  2.44 -0.09 -0.10
 C  2.78 -1.00 -1.28
 C  3.11  1.30 -0.23
 C  4.63  1.26 -0.28
 N  5.24  0.93  0.92
 N  5.37  1.53 -1.30
 H  0.66  0.71  0.91
 H  0.42 -0.89  0.17
 H  0.49  0.56 -0.85
 H  2.81 -0.57  0.83
 H  2.41 -0.58 -2.22
 H  2.33 -1.99 -1.15
 H  3.87 -1.13 -1.38
 H  2.81  1.93  0.62
 H  2.75  1.79 -1.14
 H  4.72  0.36  1.57
 H  6.23  0.70  0.83
 H  4.78  1.82 -2.09
