14
set: 4916.00  0.00  0.00
 C  0.97  0.13  0.14
 C  2.45 -0.09 -0.07
 O  3.27  0.94  0.62
 C  4.03 -0.02  1.26
 O  5.01  0.14  1.94
 C  3.19 -1.20  0.73
 N  3.89 -2.31  0.15
 H  0.40 -0.67 -0.35
 H  0.65  1.09 -0.30
 H  0.72  0.13  1.21
 H  2.72 -0.09 -1.14
 H  2.54 -1.57  1.55
 H  4.47 -2.03 -0.64
 H  3.26 -3.04 -0.16
