13
set: 7208.00  0.00  0.00
 S  1.70  0.04  1.59
 C  2.70  0.01  0.26
 N  3.17 -1.11 -0.39
 C  4.24 -0.80 -1.30
 C  5.45 -0.06 -0.75
 C  4.27  0.72 -1.32
 N  3.22  1.10 -0.42
 H  3.08 -2.01  0.07
 H  4.31 -1.40 -2.21
 H  5.60 -0.05  0.33
 H  6.35 -0.08 -1.36
 H  4.37  1.29 -2.24
 H  3.16  2.01  0.03
