18
set: 5495.00  0.00  0.00
 C  2.81  1.92  0.70
 C  4.16  1.57  0.10
 O  4.89  2.79 -0.11
 C  6.13  2.69 -0.69
 C  6.74  1.54 -1.05
 C  6.73  4.06 -0.89
 N  5.99  4.95 -1.81
 H  2.23  1.01  0.87
 H  2.24  2.57  0.02
 H  2.93  2.44  1.66
 H  4.04  1.05 -0.87
 H  4.74  0.91  0.77
 H  6.30  0.55 -0.91
 H  7.73  1.60 -1.50
 H  7.75  3.95 -1.26
 H  6.78  4.57  0.09
 H  5.90  4.48 -2.72
 H  5.04  5.07 -1.46
