15
set: 1903.00  0.00  0.00
 C  1.01  0.02  0.03
 C  2.51  0.05  0.03
 N  3.12  1.20  0.16
 C  4.52  1.15  0.01
 C  5.25  0.03 -0.07
 C  4.59 -1.32  0.07
 N  3.15 -1.14 -0.18
 H  0.60 -1.00  0.05
 H  0.63  0.53 -0.87
 H  0.63  0.57  0.90
 H  4.99  2.13 -0.06
 H  6.33  0.07 -0.19
 H  4.99 -2.04 -0.66
 H  4.76 -1.75  1.08
 H  2.58 -1.98 -0.23
