15
set: 5374.00  0.00  0.00
 C  2.60 -1.13 -0.23
 C  3.78 -0.27  0.21
 N  3.61  1.11 -0.21
 C  4.55  1.95  0.08
 N  5.71  1.73  0.78
 C  4.34  3.36 -0.38
 O  5.18  4.24 -0.22
 H  2.73 -2.17  0.10
 H  2.50 -1.12 -1.32
 H  1.66 -0.75  0.20
 H  4.72 -0.69 -0.21
 H  3.89 -0.31  1.31
 H  6.07  0.80  0.89
 H  6.38  2.50  0.75
 H  3.36  3.52 -0.88
