16
set: 791.00  0.00  0.00
 C  0.96 -0.16  0.14
 C  2.46  0.05 -0.08
 C  2.90 -0.54 -1.44
 O  4.30 -0.48 -1.66
 C  2.84  1.50 -0.02
 C  3.88  2.01  0.66
 H  0.65  0.22  1.12
 H  0.70 -1.23  0.09
 H  0.37  0.36 -0.63
 H  3.03 -0.49  0.70
 H  2.35 -0.01 -2.26
 H  2.62 -1.60 -1.49
 H  4.59  0.43 -1.45
 H  2.22  2.18 -0.63
 H  4.52  1.37  1.28
 H  4.12  3.07  0.63
