17
set: 1446.00  0.00  0.00
 C  0.94 -0.04 -0.00
 C  2.39  0.01  0.00
 C  3.61  0.06  0.00
 C  5.03  0.06  0.00
 C  5.82  1.16  0.00
 C  5.27  2.55  0.00
 C  7.32  1.03  0.00
 H  0.50  0.97  0.01
 H  0.56 -0.58  0.88
 H  0.56 -0.56 -0.89
 H  5.51 -0.93 -0.00
 H  4.18  2.56  0.00
 H  5.63  3.11 -0.88
 H  5.63  3.11  0.89
 H  7.64 -0.02 -0.00
 H  7.76  1.52  0.88
 H  7.76  1.52 -0.88
