17
set: 1579.00  0.00  0.00
 C  0.65  0.93 -0.47
 N -0.47  0.21  0.18
 C  0.80 -0.50 -0.07
 C  1.61 -0.92  1.14
 C  1.42 -0.17  2.48
 C  1.40 -1.57  3.14
 N  1.14 -2.18  1.80
 H  0.59  1.16 -1.54
 H  1.10  1.71  0.14
 H -1.16 -0.07 -0.52
 H  0.81 -1.23 -0.88
 H  2.68 -0.96  0.85
 H  0.44  0.32  2.52
 H  2.21  0.52  2.79
 H  2.39 -1.84  3.57
 H  0.62 -1.78  3.89
 H  1.70 -3.00  1.59
