17
set: 3509.00  0.00  0.00
 C  0.81 -0.46  0.57
 C  1.93 -0.09 -0.42
 C  2.90  0.96  0.09
 C  3.73  0.67  1.33
 O  2.98  0.79  2.53
 C  3.40  1.99 -0.85
 O  2.38  2.33  0.10
 H  0.14 -1.20  0.11
 H  0.21  0.42  0.83
 H  1.21 -0.88  1.50
 H  1.48  0.28 -1.35
 H  2.51 -0.99 -0.68
 H  4.61  1.34  1.35
 H  4.10 -0.37  1.30
 H  2.58  1.68  2.51
 H  3.07  1.96 -1.90
 H  4.38  2.45 -0.68
