13
set: 2017.00  0.00  0.00
 C  3.03 -1.22  0.36
 C  2.45 -0.02  0.13
 C  3.11  1.26  0.05
 N  2.48  2.42 -0.18
 C  3.46  3.38 -0.18
 C  4.70  2.82  0.05
 N  4.47  1.47  0.19
 H  2.43 -2.13  0.40
 H  4.10 -1.35  0.51
 H  1.37  0.04 -0.01
 H  3.22  4.43 -0.35
 H  5.70  3.25  0.12
 H  5.17  0.76  0.37
