17
set: 3553.00  0.00  0.00
 C  2.22  2.69 -0.63
 C  2.70  1.45 -0.49
 C  3.46  0.95  0.71
 C  4.88  0.49  0.36
 C  5.93  1.57  0.02
 O  6.83  1.08  1.06
 C  5.83  0.14  1.53
 H  1.69  2.99 -1.53
 H  2.34  3.44  0.15
 H  2.56  0.72 -1.30
 H  2.92  0.10  1.17
 H  3.51  1.74  1.48
 H  4.84 -0.31 -0.40
 H  5.60  2.60  0.22
 H  6.39  1.52 -0.98
 H  6.22 -0.89  1.57
 H  5.44  0.42  2.53
