17
set: 4119.00  0.00  0.00
 C  1.72 -0.28 -1.28
 O  2.10  0.27 -0.02
 C  3.05  1.33 -0.15
 C  2.43  2.65 -0.70
 C  2.79  3.69  0.37
 O  2.85  2.95  1.60
 C  3.53  1.74  1.26
 H  1.05 -1.12 -1.07
 H  2.61 -0.65 -1.83
 H  1.20  0.45 -1.92
 H  3.89  0.99 -0.78
 H  1.34  2.53 -0.76
 H  2.81  2.92 -1.70
 H  3.77  4.16  0.16
 H  2.04  4.48  0.49
 H  4.63  1.90  1.24
 H  3.28  0.97  2.00
