17
set: 3358.00  0.00  0.00
 C  0.90 -0.02 -0.08
 C  2.42 -0.02  0.15
 C  3.10  1.22 -0.44
 O  3.21  1.14 -1.87
 C  4.10  0.09 -2.26
 C  3.86 -1.20 -1.51
 C  3.08 -1.25 -0.42
 H  0.42  0.83  0.44
 H  0.44 -0.95  0.28
 H  0.68  0.07 -1.16
 H  2.60 -0.01  1.24
 H  2.52  2.13 -0.24
 H  4.11  1.35  0.01
 H  5.15  0.41 -2.13
 H  3.93 -0.06 -3.33
 H  4.35 -2.09 -1.90
 H  2.89 -2.21  0.08
