17
set: 3282.00  0.00  0.00
 C  0.94  0.00 -0.09
 C  2.44  0.02  0.01
 C  3.17  1.14 -0.11
 C  4.66  1.16  0.05
 O  5.20 -0.05  0.58
 C  4.63 -1.20 -0.06
 C  3.13 -1.30  0.25
 H  0.60 -0.64 -0.92
 H  0.53  1.01 -0.25
 H  0.49 -0.41  0.83
 H  2.69  2.10 -0.31
 H  5.14  1.39 -0.93
 H  4.97  1.95  0.75
 H  5.18 -2.06  0.33
 H  4.78 -1.14 -1.15
 H  2.98 -1.63  1.29
 H  2.68 -2.08 -0.39
