17
set: 4440.00  0.00  0.00
 O  2.37 -0.66 -0.87
 C  2.08  0.26 -0.13
 C  2.97  1.42  0.21
 C  4.36  1.39 -0.43
 C  5.21  2.59 -0.06
 C  6.32  3.04 -0.97
 C  5.07  3.88 -0.83
 H  1.07  0.29  0.35
 H  3.03  1.46  1.32
 H  2.42  2.34 -0.06
 H  4.25  1.33 -1.52
 H  4.87  0.45 -0.13
 H  5.40  2.70  1.01
 H  6.46  2.49 -1.90
 H  7.24  3.40 -0.52
 H  5.14  4.82 -0.29
 H  4.38  3.89 -1.67
