19
set: 2673.00  0.00  0.00
 C  1.50 -0.11  0.46
 N  2.89  0.21  0.75
 C  3.20  1.65  0.72
 C  2.54  2.39  1.89
 C  4.70  1.82  0.76
 C  5.52  1.82 -0.48
 N  5.23  3.09  0.23
 H  1.40 -1.20  0.34
 H  1.10  0.37 -0.46
 H  0.85  0.19  1.29
 H  3.49 -0.25  0.06
 H  2.84  2.13 -0.23
 H  2.86  1.94  2.84
 H  1.45  2.35  1.83
 H  2.85  3.44  1.87
 H  5.17  1.40  1.66
 H  5.03  1.73 -1.46
 H  6.54  1.41 -0.44
 H  6.05  3.37  0.77
