18
set: 2376.00  0.00  0.00
 C  0.97 -0.14 -0.05
 C  2.48 -0.03  0.07
 C  3.00  1.44  0.04
 N  2.52  2.32  1.12
 C  4.47  1.45  0.02
 C  5.68  1.42  0.01
 C  7.14  1.42 -0.00
 H  0.65 -1.19 -0.05
 H  0.60  0.31 -0.98
 H  0.45  0.35  0.79
 H  2.97 -0.58 -0.75
 H  2.83 -0.49  1.01
 H  2.65  1.89 -0.91
 H  2.86  1.96  2.02
 H  1.50  2.28  1.15
 H  7.54  2.44 -0.02
 H  7.53  0.90 -0.89
 H  7.55  0.91  0.88
