17
set: 5504.00  0.00  0.00
 C  1.88 -0.37  1.32
 C  2.43  0.11 -0.03
 O  1.42  0.01 -1.06
 C  3.02  1.50  0.04
 C  2.13  2.69  0.28
 N  4.30  1.58 -0.12
 N  4.90  2.82  0.00
 H  2.67 -0.36  2.08
 H  1.48 -1.39  1.23
 H  1.07  0.29  1.68
 H  3.24 -0.56 -0.35
 H  0.58  0.31 -0.69
 H  1.08  2.40  0.43
 H  2.14  3.39 -0.58
 H  2.46  3.26  1.16
 H  5.79  2.81 -0.48
 H  4.32  3.62 -0.29
