16
set: 2075.00  0.00  0.00
 C  0.88 -0.11 -0.02
 C  2.34 -0.04 -0.02
 C  3.55  0.02 -0.01
 C  5.01  0.11  0.00
 C  5.52  1.54  0.10
 C  5.75  2.19  1.41
 N  6.89  1.69  0.62
 H  0.43  0.89 -0.01
 H  0.51 -0.66  0.85
 H  0.51 -0.63 -0.92
 H  5.42 -0.35 -0.91
 H  5.42 -0.46  0.85
 H  5.20  2.19 -0.72
 H  5.55  1.63  2.33
 H  5.59  3.27  1.49
 H  7.36  2.47  0.15
