17
set: 1023.00  0.00  0.00
 C  1.11 -0.30  0.23
 C  2.62 -0.14  0.08
 C  3.07  1.31 -0.05
 O  2.72  2.02  1.14
 C  4.58  1.44 -0.28
 N  4.95  2.86 -0.19
 H  0.82 -1.35  0.33
 H  0.58  0.11 -0.65
 H  0.75  0.25  1.11
 H  2.97 -0.69 -0.81
 H  3.13 -0.58  0.95
 H  2.55  1.76 -0.92
 H  3.33  2.79  1.13
 H  4.85  0.96 -1.24
 H  5.10  0.90  0.52
 H  4.75  3.35 -1.06
 H  5.96  2.97 -0.02
