14
set: 5512.00  0.00  0.00
 C  1.06 -0.53  0.34
 C  2.52 -0.75  0.02
 O  2.94 -1.83 -0.38
 C  3.43  0.46  0.20
 C  4.89  0.13  0.23
 N  5.61  0.62  1.17
 O  6.96  0.22  1.04
 H  0.94 -0.47  1.44
 H  0.45 -1.36 -0.03
 H  0.70  0.43 -0.07
 H  3.15  1.03  1.10
 H  3.21  1.13 -0.66
 H  5.31 -0.53 -0.54
 H  7.37  0.65  1.81
