15
set: 5606.00  0.00  0.00
 C  1.02 -0.02  0.09
 N  2.48 -0.01  0.06
 C  3.03  1.14  0.83
 C  4.41  0.66  1.26
 C  4.23 -0.86  1.38
 O  5.00 -1.69  1.84
 N  2.99 -1.14  0.83
 H  0.64 -0.89 -0.46
 H  0.67  0.89 -0.44
 H  0.61 -0.02  1.12
 H  2.41  1.34  1.72
 H  3.04  2.03  0.19
 H  5.18  0.82  0.48
 H  4.78  1.09  2.20
 H  2.88 -2.04  0.37
