15
set: 63.00  0.00  0.00
 C  0.87  0.03 -0.26
 C  2.35 -0.00  0.04
 C  2.70 -0.03  1.52
 C  3.25 -0.76 -0.91
 C  3.28  0.76 -0.88
 H  0.68  0.05 -1.34
 H  0.39  0.92  0.18
 H  0.36 -0.86  0.15
 H  3.78 -0.05  1.68
 H  2.27 -0.92  2.01
 H  2.30  0.86  2.04
 H  2.80 -1.25 -1.77
 H  4.11 -1.29 -0.49
 H  4.16  1.24 -0.45
 H  2.84  1.29 -1.73
