15
set: 6381.00  0.00  0.00
 N  1.10  1.66 -0.86
 C  2.25  0.97 -0.50
 N  2.50 -0.29 -0.57
 O  3.20  1.86 -0.09
 C  4.50  1.29  0.21
 C  5.45  2.42  0.45
 C  6.20  2.54  1.55
 H  1.04  2.59 -0.46
 H  0.24  1.13 -0.78
 H  1.69 -0.81 -0.92
 H  4.81  0.67 -0.64
 H  4.41  0.63  1.09
 H  5.53  3.16 -0.35
 H  6.13  1.81  2.37
 H  6.92  3.35  1.67
