13
set: 3268.00  0.00  0.00
 C  1.02 -0.05  0.19
 C  2.34  0.07 -0.02
 C  3.21  1.29 -0.05
 C  4.48  0.78 -0.76
 O  4.47 -0.67 -0.62
 C  3.21 -1.12 -0.28
 O  2.94 -2.29 -0.21
 H  0.57 -1.04  0.19
 H  0.38  0.82  0.37
 H  3.45  1.62  0.98
 H  2.76  2.15 -0.57
 H  4.47  1.01 -1.84
 H  5.41  1.14 -0.32
