15
set: 1065.00  0.00  0.00
 C  2.70 -0.82 -1.00
 N  2.52 -0.01  0.21
 C  3.03  1.34  0.10
 C  2.53  2.23  1.26
 C  4.55  1.46  0.05
 O  5.32  0.57  0.35
 H  2.30 -1.83 -0.81
 H  3.74 -0.91 -1.34
 H  2.10 -0.38 -1.81
 H  3.00 -0.47  0.99
 H  2.65  1.78 -0.85
 H  2.86  1.81  2.22
 H  1.44  2.26  1.24
 H  2.92  3.26  1.18
 H  4.94  2.47 -0.26
