16
set: 683.00  0.00  0.00
 C  0.97 -0.01 -0.05
 C  2.49  0.02  0.03
 C  3.08  1.14  0.90
 C  4.50  0.62  1.17
 O  4.40 -0.82  1.19
 C  3.11 -1.21  0.69
 H  0.61 -0.85 -0.65
 H  0.57  0.91 -0.50
 H  0.53 -0.10  0.96
 H  2.90  0.12 -0.99
 H  2.51  1.22  1.84
 H  3.07  2.12  0.41
 H  5.19  0.93  0.36
 H  4.91  0.96  2.13
 H  3.26 -2.05 -0.01
 H  2.48 -1.57  1.53
