17
set: 3609.00  0.00  0.00
 C  0.98  1.79 -1.36
 C  2.22  1.46 -0.58
 C  3.47  1.53 -1.06
 C  4.72  1.23 -0.27
 C  5.68  0.27 -0.99
 C  5.39  2.56  0.08
 O  6.51  2.89 -0.25
 H  0.31  0.92 -1.41
 H  1.22  2.10 -2.39
 H  0.41  2.60 -0.88
 H  2.07  1.13  0.45
 H  3.64  1.86 -2.09
 H  4.41  0.80  0.70
 H  5.98  0.69 -1.96
 H  5.19 -0.70 -1.17
 H  6.59  0.11 -0.41
 H  4.73  3.24  0.69
