15
set: 6070.00  0.00  0.00
 N  0.90  0.02 -0.28
 C  2.29 -0.22 -0.00
 C  3.11 -0.87 -1.09
 C  3.30  0.60 -0.79
 N  4.52  1.01 -0.16
 C  4.59  1.91  0.87
 O  5.62  2.38  1.34
 H  0.52  0.73  0.36
 H  0.35 -0.83 -0.14
 H  2.61 -0.47  1.02
 H  2.59 -1.12 -2.02
 H  3.90 -1.55 -0.79
 H  2.86  1.29 -1.51
 H  5.41  0.79 -0.60
 H  3.57  2.17  1.26
