18
set: 4902.00  0.00  0.00
 C  0.97  0.00 -0.04
 C  2.49  0.00  0.03
 O  2.94  0.13 -1.34
 C  3.10  1.13  0.90
 C  4.52  0.63  1.16
 N  4.33 -0.81  1.39
 C  3.10 -1.26  0.69
 H  0.54 -0.07  0.97
 H  0.62 -0.85 -0.63
 H  0.62  0.92 -0.52
 H  3.91  0.20 -1.33
 H  2.55  1.20  1.85
 H  3.05  2.10  0.39
 H  5.17  0.86  0.28
 H  4.99  1.11  2.03
 H  5.14 -1.36  1.12
 H  3.29 -2.02 -0.08
 H  2.39 -1.69  1.42
