19
set: 3839.00  0.00  0.00
 C  1.21 -0.01  1.36
 C  2.23  0.00  0.22
 C  2.78  1.39 -0.05
 O  3.72  1.32 -1.13
 C  4.28  2.57 -1.43
 C  5.47  3.05 -0.63
 C  5.63  2.56 -2.06
 H  0.84 -1.02  1.55
 H  0.34  0.63  1.14
 H  1.66  0.36  2.30
 H  1.76 -0.38 -0.70
 H  3.07 -0.67  0.45
 H  3.28  1.79  0.86
 H  1.96  2.09 -0.31
 H  3.55  3.32 -1.76
 H  5.84  2.39  0.16
 H  5.57  4.12 -0.43
 H  5.84  3.28 -2.85
 H  6.09  1.58 -2.19
