17
set: 1296.00  0.00  0.00
 C  0.84  0.09  0.08
 C  2.37 -0.03  0.06
 C  3.08  1.13 -0.58
 C  3.90  0.67 -1.56
 C  3.79 -0.80 -1.66
 C  4.55 -1.63 -2.64
 C  2.89 -1.21 -0.72
 H  0.52  0.98  0.64
 H  0.38 -0.79  0.55
 H  0.45  0.18 -0.95
 H  2.72 -0.12  1.11
 H  2.94  2.17 -0.28
 H  4.55  1.28 -2.20
 H  4.34 -1.32 -3.67
 H  4.30 -2.69 -2.54
 H  5.64 -1.52 -2.49
 H  2.59 -2.24 -0.54
