16
set: 2698.00  0.00  0.00
 C  0.96 -0.04 -0.07
 N  2.41 -0.01  0.08
 C  2.94  1.36  0.03
 C  4.39  1.39  0.03
 C  5.61  1.45 -0.00
 C  7.03  1.45 -0.02
 C  7.80  2.55 -0.08
 H  0.62 -1.08 -0.10
 H  0.58  0.48 -0.98
 H  0.49  0.44  0.80
 H  2.85 -0.56 -0.67
 H  2.56  1.90  0.91
 H  2.57  1.93 -0.86
 H  7.50  0.46  0.03
 H  7.37  3.55 -0.12
 H  8.89  2.46 -0.08
