15
set: 1562.00  0.00  0.00
 C  1.86 -0.34  0.21
 C  1.00 -1.58  0.61
 C -0.15 -1.08 -0.31
 N -1.41 -0.75  0.37
 C -1.35  0.51  0.63
 N -0.18  1.19  0.28
 C  0.64  0.27 -0.52
 H  2.68 -0.58 -0.49
 H  2.26  0.27  1.03
 H  1.43 -2.56  0.36
 H  0.70 -1.59  1.66
 H -0.33 -1.70 -1.19
 H -2.14  1.05  1.15
 H -0.26  2.17  0.00
 H  0.80  0.66 -1.54
