17
set: 1355.00  0.00  0.00
 C  1.14  0.24  0.06
 C  2.66 -0.01 -0.12
 C  2.92 -0.81 -1.32
 C  3.12 -1.46 -2.33
 C  3.44  1.29 -0.15
 C  3.83  1.96  1.15
 C  4.89  1.32  0.27
 H  0.97  0.81  0.98
 H  0.59 -0.71  0.12
 H  0.75  0.81 -0.79
 H  3.01 -0.60  0.75
 H  3.31 -2.04 -3.21
 H  3.16  1.96 -0.97
 H  3.57  1.44  2.08
 H  3.79  3.05  1.21
 H  5.57  1.98 -0.27
 H  5.33  0.39  0.61
