18
set: 5158.00  0.00  0.00
 C -0.24  1.53  0.57
 C  0.99  0.65  0.79
 C  2.25  1.24  0.17
 N  3.43  0.41  0.45
 C  4.66  0.90 -0.17
 C  5.87  0.17  0.37
 O  6.88 -0.05 -0.27
 H -1.14  1.07  1.01
 H -0.44  1.69 -0.50
 H -0.11  2.51  1.04
 H  0.81 -0.35  0.34
 H  1.17  0.48  1.86
 H  2.44  2.24  0.61
 H  2.09  1.41 -0.92
 H  3.24 -0.54  0.11
 H  4.79  1.96  0.14
 H  4.68  0.89 -1.27
 H  5.76 -0.16  1.44
