20
set: 1942.00  0.00  0.00
 C  2.06 -0.56 -1.34
 C  2.38  0.04  0.03
 C  3.27  1.28 -0.05
 C  2.66  2.60 -0.61
 C  3.33  3.31  0.60
 C  4.62  4.06  0.27
 N  3.51  1.97  1.25
 H  1.42 -1.44 -1.25
 H  2.98 -0.86 -1.87
 H  1.53  0.17 -1.98
 H  2.89 -0.71  0.66
 H  1.45  0.32  0.56
 H  4.20  1.02 -0.59
 H  1.56  2.61 -0.55
 H  2.98  2.92 -1.61
 H  2.67  3.97  1.18
 H  5.29  3.44 -0.35
 H  5.16  4.33  1.19
 H  4.40  4.98 -0.28
 H  4.44  1.82  1.64
