13
set: 412.00  0.00  0.00
 C  5.39 -2.09  0.01
 C  4.63 -1.15  0.00
 C  3.74  0.00  0.02
 C  4.48  1.33  0.11
 C  4.93  2.05 -1.11
 N  3.72  2.51 -0.37
 H  6.05 -2.93 -0.00
 H  3.04 -0.08  0.87
 H  3.11  0.01 -0.89
 H  5.10  1.45  1.00
 H  4.72  1.62 -2.10
 H  5.84  2.64 -1.05
 H  3.95  3.32  0.20
