13
set: 2995.00  0.00  0.00
 N  1.18  0.37  1.23
 C  2.17  0.39  0.59
 C  3.34  0.40 -0.20
 C  4.54  0.76  0.29
 N  5.69  0.76 -0.53
 C  6.95  0.40  0.18
 C  6.68  1.81 -0.18
 H  3.25  0.11 -1.25
 H  4.64  1.05  1.35
 H  7.63 -0.21 -0.41
 H  6.87  0.13  1.24
 H  6.42  2.51  0.62
 H  7.17  2.26 -1.05
