15
set: 5539.00  0.00  0.00
 C  0.77 -0.46  0.16
 C  2.28 -0.25 -0.02
 O  2.71 -0.80 -1.26
 C  2.66  1.19  0.11
 N  3.31  1.75 -0.84
 N  3.60  3.11 -0.57
 C  4.21  3.67 -1.56
 H  0.44 -0.11  1.15
 H  0.54 -1.53  0.07
 H  0.22  0.09 -0.61
 H  2.80 -0.78  0.81
 H  3.20 -0.07 -1.71
 H  2.37  1.74  1.02
 H  4.48  4.73 -1.45
 H  4.45  3.13 -2.49
