13
set: 7190.00  0.00  0.00
 O  1.02  0.01  0.36
 S  2.49 -0.00  0.24
 O  3.36 -0.01  1.43
 C  2.99 -1.36 -0.89
 C  3.45 -0.67 -2.13
 C  3.46  0.67 -2.13
 C  3.00  1.36 -0.89
 H  2.11 -2.00 -1.04
 H  3.78 -1.94 -0.38
 H  3.77 -1.26 -3.00
 H  3.78  1.26 -2.99
 H  3.80  1.93 -0.38
 H  2.12  2.01 -1.03
