17
set: 2788.00  0.00  0.00
 C  1.10  0.32 -0.15
 N  2.53  0.06  0.02
 N  2.75 -1.19  0.54
 C  3.84 -1.43  1.20
 C  3.34  1.17  0.44
 C  4.68  1.37 -0.23
 C  3.53  2.31 -0.53
 H  0.96  1.15 -0.86
 H  0.61  0.59  0.81
 H  0.63 -0.59 -0.54
 H  3.97 -2.46  1.54
 H  4.62 -0.70  1.42
 H  3.27  1.42  1.51
 H  4.95  0.65 -1.00
 H  5.50  1.74  0.38
 H  3.56  3.32 -0.12
 H  3.06  2.22 -1.51
