17
set: 4253.00  0.00  0.00
 C  2.59 -0.21  1.32
 O  2.37  0.23 -0.02
 C  2.82  1.52 -0.26
 O  4.26  1.53 -0.25
 C  4.86  2.74 -0.45
 C  4.28  3.93 -0.70
 C  5.08  5.18 -0.91
 H  2.08 -1.18  1.41
 H  2.15  0.50  2.04
 H  3.66 -0.34  1.53
 H  2.46  2.23  0.52
 H  2.46  1.82 -1.25
 H  5.95  2.63 -0.40
 H  3.19  4.02 -0.76
 H  6.16  4.99 -0.84
 H  4.83  5.96 -0.17
 H  4.89  5.62 -1.91
