16
set: 6620.00  0.00  0.00
 O  0.71  0.42  0.23
 C  1.91  0.26  0.36
 C  2.99  1.22 -0.09
 C  2.47  2.66 -0.35
 C  3.17  3.51  0.73
 N  3.55  2.52  1.75
 C  4.08  1.39  0.99
 H  2.31 -0.68  0.83
 H  3.43  0.76 -1.00
 H  1.38  2.66 -0.23
 H  2.71  3.01 -1.36
 H  4.04  4.03  0.29
 H  2.50  4.28  1.17
 H  4.23  2.90  2.41
 H  5.06  1.60  0.51
 H  4.19  0.50  1.63
