16
set: 2044.00  0.00  0.00
 C  0.96  0.02  0.00
 C  2.42  0.01  0.01
 C  3.63  0.01 -0.00
 C  5.07 -0.01  0.01
 C  5.88 -0.78 -1.01
 N  5.80  0.68 -1.09
 C  6.99  1.40 -0.66
 H  0.57  1.05 -0.09
 H  0.56 -0.41  0.93
 H  0.56 -0.57 -0.84
 H  5.53  0.06  1.00
 H  5.36 -1.32 -1.79
 H  6.81 -1.22 -0.64
 H  6.71  2.41 -0.34
 H  7.68  1.50 -1.52
 H  7.54  0.91  0.16
