17
set: 3319.00  0.00  0.00
 C  0.85  0.03 -0.21
 C  2.34  0.18  0.07
 C  2.74 -0.03  1.51
 O  3.19 -0.45 -0.92
 C  3.14  1.00 -0.87
 C  4.45  1.68 -0.55
 O  5.35  1.61 -1.66
 H  0.64  0.17 -1.27
 H  0.28  0.77  0.37
 H  0.51 -0.97  0.09
 H  3.82  0.00  1.65
 H  2.39 -1.02  1.85
 H  2.27  0.72  2.16
 H  2.61  1.44 -1.73
 H  4.90  1.26  0.36
 H  4.27  2.76 -0.38
 H  5.47  0.66 -1.86
