16
set: 5006.00  0.00  0.00
 C  0.84  0.14 -0.02
 C  2.33  0.02 -0.18
 C  3.21  0.96  0.20
 C  4.66  0.88  0.08
 C  5.36 -0.30 -0.54
 N  5.29  1.91  0.56
 O  6.70  1.77  0.44
 H  0.44 -0.67  0.61
 H  0.34  0.05 -1.00
 H  0.56  1.10  0.43
 H  2.69 -0.91 -0.62
 H  2.85  1.89  0.66
 H  4.70 -0.83 -1.24
 H  5.67 -1.01  0.24
 H  6.26  0.02 -1.07
 H  7.00  2.62  0.82
