16
set: 2594.00  0.00  0.00
 C  1.04 -0.03  0.03
 N  2.48  0.02  0.09
 C  3.12  1.06  0.94
 C  4.21  0.04  1.32
 C  3.18 -1.04  0.87
 C  3.63 -2.21  0.14
 C  4.01 -3.20 -0.46
 H  0.73 -0.93 -0.54
 H  0.66  0.85 -0.50
 H  0.56 -0.07  1.03
 H  2.49  1.34  1.82
 H  3.41  1.98  0.41
 H  5.07  0.07  0.65
 H  4.54  0.00  2.37
 H  2.57 -1.36  1.75
 H  4.34 -4.06 -1.00
