15
set: 3498.00  0.00  0.00
 C  0.95 -0.11 -0.11
 C  2.41  0.06  0.19
 C  3.10  1.22  0.11
 C  4.59  1.38  0.43
 O  4.90  2.79  0.21
 C  3.74  3.38 -0.19
 C  2.67  2.55 -0.27
 H  0.80 -0.84 -0.92
 H  0.48  0.83 -0.42
 H  0.40 -0.49  0.76
 H  2.95 -0.84  0.51
 H  5.24  0.79 -0.23
 H  4.83  1.15  1.48
 H  3.82  4.45 -0.40
 H  1.67  2.85 -0.57
