15
set: 6379.00  0.00  0.00
 N  1.20  1.44 -0.48
 C  2.46  1.71  0.06
 N  2.77  2.37  1.11
 O  3.40  1.07 -0.70
 C  4.74  1.17 -0.22
 C  5.79  0.72 -1.19
 C  5.64  2.20 -0.85
 H  1.22  1.14 -1.45
 H  0.49  2.14 -0.28
 H  1.93  2.74  1.58
 H  4.84  0.96  0.84
 H  5.44  0.41 -2.18
 H  6.64  0.16 -0.80
 H  6.39  2.67 -0.21
 H  5.20  2.84 -1.61
