16
set: 5802.00  0.00  0.00
 C  3.83 -1.06 -1.02
 N  2.92 -0.14 -0.35
 C  1.69 -0.65  0.06
 O  1.32 -1.80 -0.11
 C  3.31  1.20 -0.13
 C  2.35  2.11  0.57
 C  4.51  1.65 -0.55
 H  4.77 -1.16 -0.46
 H  4.05 -0.70 -2.04
 H  3.33 -2.03 -1.08
 H  1.06  0.11  0.57
 H  2.11  1.76  1.59
 H  1.40  2.22  0.03
 H  2.80  3.11  0.66
 H  5.24  1.03 -1.06
 H  4.78  2.69 -0.37
