15
set: 6885.00  0.00  0.00
 O  1.00  1.28 -1.36
 N  2.20  1.59 -0.64
 C  3.25  0.66 -0.89
 N  3.12 -0.51 -1.39
 C  4.56  1.20 -0.42
 C  5.65  0.21 -0.04
 C  5.78  1.00 -1.31
 H  0.35  1.13 -0.65
 H  2.46  2.55 -0.90
 H  2.15 -0.65 -1.70
 H  4.51  2.12  0.16
 H  5.37 -0.84 -0.14
 H  6.28  0.47  0.81
 H  6.50  1.81 -1.35
 H  5.59  0.47 -2.24
