15
set: 5067.00  0.00  0.00
 C  1.01 -0.00 -0.27
 C  2.45 -0.21  0.10
 C  2.97 -1.42  0.35
 C  3.34  0.99  0.17
 N  4.59  1.10 -0.15
 N  2.72  2.17  0.57
 O  3.64  3.22  0.79
 H  0.91  0.51 -1.24
 H  0.48  0.63  0.47
 H  0.48 -0.96 -0.32
 H  2.36 -2.32  0.29
 H  4.02 -1.55  0.64
 H  4.96  0.24 -0.57
 H  2.11  2.09  1.39
 H  4.48  2.78  0.47
