17
set: 6363.00  0.00  0.00
 N  1.28 -0.23 -1.02
 C  2.44 -0.41 -0.28
 N  2.70 -1.45  0.44
 C  3.37  0.78 -0.29
 C  4.84  0.54  0.09
 C  5.13  0.27  1.58
 O  4.93 -1.07  1.99
 H  1.29  0.46 -1.76
 H  0.68 -1.03 -1.17
 H  1.97 -2.18  0.38
 H  2.93  1.54  0.37
 H  3.34  1.22 -1.31
 H  5.39  1.46 -0.19
 H  5.26 -0.28 -0.50
 H  4.53  0.98  2.19
 H  6.19  0.51  1.77
 H  4.10 -1.36  1.54
