18
set: 5966.00  0.00  0.00
 C  3.72 -0.59  1.24
 O  3.22  0.66  1.71
 C  3.14  1.67  0.68
 C  2.30  2.80  1.27
 N  2.95  3.38  2.45
 C  4.51  2.12  0.24
 C  5.01  1.92 -0.98
 H  3.71 -1.28  2.09
 H  4.75 -0.51  0.86
 H  3.08 -1.00  0.43
 H  2.60  1.25 -0.20
 H  1.29  2.39  1.46
 H  2.20  3.59  0.51
 H  2.99  2.66  3.19
 H  2.39  4.15  2.82
 H  5.09  2.64  1.01
 H  4.43  1.41 -1.76
 H  6.00  2.27 -1.27
