16
set: 494.00  0.00  0.00
 C  1.73 -1.17  1.19
 C  2.10 -0.30 -0.01
 C  3.14  0.78  0.29
 N  4.43  0.21  0.64
 C  5.50  0.97  1.04
 N  5.55  2.23  1.34
 H  0.99 -1.93  0.92
 H  1.31 -0.56  2.00
 H  2.61 -1.69  1.60
 H  1.20  0.20 -0.40
 H  2.47 -0.93 -0.84
 H  2.79  1.39  1.14
 H  3.23  1.46 -0.58
 H  4.65 -0.70  0.24
 H  6.42  0.38  1.14
 H  4.64  2.68  1.20
