20
set: 1677.00  0.00  0.00
 C  1.00  0.08 -0.08
 C  2.51  0.06 -0.02
 C  3.37 -0.68 -1.05
 C  2.80 -1.44 -2.23
 C  3.43  0.83 -0.97
 C  2.85  1.69 -2.08
 N  4.68  1.40 -0.49
 H  0.59  0.97  0.44
 H  0.57 -0.81  0.41
 H  0.61  0.10 -1.11
 H  2.90  0.00  1.00
 H  4.25 -1.17 -0.62
 H  1.91 -0.96 -2.65
 H  2.50 -2.46 -1.93
 H  3.54 -1.53 -3.03
 H  1.91  1.29 -2.48
 H  3.57  1.77 -2.91
 H  2.64  2.70 -1.71
 H  5.12  0.76  0.18
 H  4.48  2.26  0.04
