19
set: 2935.00  0.00  0.00
 N  1.23  2.82 -1.63
 C  2.55  2.98 -0.99
 C  3.23  1.63 -0.81
 C  4.61  1.73 -0.19
 C  5.64  0.63 -0.40
 C  5.84  1.97 -1.06
 N  6.97  2.79 -0.67
 H  0.80  3.73 -1.78
 H  0.61  2.30 -1.01
 H  2.51  3.50 -0.01
 H  3.17  3.61 -1.65
 H  3.30  1.13 -1.79
 H  2.60  0.98 -0.18
 H  4.65  2.21  0.79
 H  5.36 -0.22 -1.03
 H  6.29  0.38  0.43
 H  5.65  2.00 -2.14
 H  7.28  2.55  0.27
 H  6.71  3.78 -0.66
