17
set: 4104.00  0.00  0.00
 C  2.26 -0.78 -0.97
 O  1.89  0.42 -0.28
 C  2.99  1.25 -0.03
 C  3.45  2.29 -1.06
 C  2.78  2.45 -2.41
 C  2.72  2.70  0.20
 O  3.30  3.44  1.25
 H  1.35 -1.36 -1.13
 H  2.97 -1.38 -0.37
 H  2.73 -0.56 -1.95
 H  3.78  0.78  0.57
 H  4.53  2.47 -1.05
 H  1.73  2.12 -2.36
 H  3.28  1.84 -3.18
 H  2.80  3.50 -2.74
 H  1.68  3.00  0.07
 H  4.26  3.24  1.27
