13
set: 359.00  0.00  0.00
 C  0.95 -0.03 -0.01
 C  2.45  0.06 -0.00
 C  3.30  1.15  0.00
 C  4.64  0.67  0.01
 C  4.58 -0.71  0.01
 N  3.25 -1.07  0.00
 H  0.53  0.98 -0.00
 H  0.56 -0.56  0.87
 H  0.57 -0.54 -0.90
 H  2.98  2.19  0.00
 H  5.55  1.26  0.02
 H  5.36 -1.47  0.01
 H  2.90 -2.02  0.00
