15
set: 2417.00  0.00  0.00
 C  1.26  0.29  0.11
 C  2.75  0.03 -0.14
 C  2.94 -0.75 -1.38
 N  3.08 -1.39 -2.35
 N  3.49  1.29 -0.26
 C  4.00  1.81  1.02
 C  4.93  1.21  0.02
 H  1.15  0.84  1.06
 H  0.70 -0.65  0.18
 H  0.85  0.90 -0.70
 H  3.15 -0.61  0.68
 H  3.80  1.23  1.93
 H  3.94  2.90  1.14
 H  5.56  1.85 -0.61
 H  5.35  0.23  0.25
