19
set: 6289.00  0.00  0.00
 N  1.68  2.42 -1.82
 C  2.51  2.61 -0.62
 C  3.86  1.91 -0.81
 C  4.80  1.98  0.41
 N  6.04  1.19  0.26
 C  5.24  3.42  0.75
 O  6.15  3.42  1.84
 H  0.80  2.93 -1.72
 H  1.42  1.43 -1.91
 H  2.05  2.25  0.32
 H  2.67  3.69 -0.50
 H  4.37  2.33 -1.69
 H  3.68  0.84 -1.03
 H  4.28  1.58  1.30
 H  6.45  1.35 -0.67
 H  5.85  0.19  0.34
 H  4.38  4.03  1.05
 H  5.69  3.88 -0.15
 H  6.69  2.61  1.68
