18
set: 2252.00  0.00  0.00
 C  1.01 -0.41 -0.34
 C  2.45 -0.03 -0.42
 C  3.04  1.10  0.06
 C  2.27  2.17  0.80
 N  1.82  3.23 -0.13
 C  4.47  1.30 -0.18
 C  5.21  2.35  0.21
 H  0.87 -1.31  0.27
 H  0.63 -0.66 -1.35
 H  0.37  0.39  0.06
 H  3.10 -0.74 -0.94
 H  2.91  2.55  1.62
 H  1.38  1.74  1.27
 H  2.62  3.60 -0.65
 H  1.44  4.01  0.40
 H  4.96  0.50 -0.74
 H  4.80  3.19  0.78
 H  6.28  2.40 -0.03
