15
set: 4166.00  0.00  0.00
 C  1.29 -0.43 -0.69
 O  2.65 -0.22 -0.31
 C  3.11  1.06 -0.16
 C  2.13  2.19 -0.05
 C  4.46  1.21 -0.08
 C  5.11  2.44  0.14
 C  5.71  3.49  0.32
 H  1.16 -1.51 -0.72
 H  1.08 -0.01 -1.69
 H  0.59 -0.00  0.04
 H  1.45  2.05  0.81
 H  1.51  2.29 -0.95
 H  2.68  3.13  0.10
 H  5.08  0.32 -0.18
 H  6.24  4.41  0.48
