14
set: 4679.00  0.00  0.00
 C  0.87  0.07  0.14
 C  2.39  0.07  0.03
 C  3.21  1.09  0.87
 C  4.01 -0.12  1.41
 O  5.02 -0.30  2.05
 N  3.08 -0.98  0.82
 O  3.30 -2.30  0.39
 H  0.45 -0.84 -0.31
 H  0.45  0.93 -0.38
 H  0.56  0.11  1.20
 H  2.71  0.05 -1.02
 H  2.65  1.64  1.63
 H  3.84  1.77  0.28
 H  2.82 -2.85  1.04
