15
set: 5835.00  0.00  0.00
 C  1.37  1.86 -0.28
 N  2.55  2.29 -0.55
 N  3.55  2.11  0.36
 C  4.90  2.11 -0.19
 C  5.25  3.46 -0.80
 C  6.66  3.56 -1.32
 O  7.49  2.67 -1.26
 H  0.58  2.06 -1.00
 H  1.13  1.31  0.65
 H  3.38  1.37  1.05
 H  5.04  1.32 -0.95
 H  5.59  1.88  0.64
 H  5.11  4.27 -0.06
 H  4.56  3.71 -1.62
 H  6.91  4.54 -1.79
