19
set: 1398.00  0.00  0.00
 C  0.82  0.85  1.06
 C  2.31  0.79  0.96
 C  3.04  1.38 -0.00
 C  4.55  1.33 -0.10
 C  5.17  2.70  0.00
 C  5.88  3.29 -0.97
 C  6.49  4.66 -0.87
 H  0.37 -0.15  1.02
 H  0.38  1.45  0.25
 H  0.50  1.30  2.02
 H  2.83  0.22  1.74
 H  2.53  1.96 -0.78
 H  4.84  0.87 -1.06
 H  4.94  0.68  0.71
 H  4.99  3.24  0.94
 H  6.05  2.75 -1.90
 H  6.28  5.13  0.10
 H  6.10  5.32 -1.67
 H  7.58  4.62 -1.00
