15
set: 6390.00  0.00  0.00
 N  1.21  0.11 -0.73
 C  2.40 -0.49 -0.39
 O  2.77 -1.54 -0.91
 C  3.21  0.23  0.69
 C  4.69  0.23  0.37
 C  5.34  1.38 -0.32
 N  5.50  1.19  1.14
 H  0.86  0.93 -0.25
 H  0.59 -0.38 -1.37
 H  3.04 -0.31  1.63
 H  2.86  1.26  0.85
 H  5.10 -0.76  0.16
 H  4.74  2.25 -0.60
 H  6.18  1.17 -0.98
 H  6.42  0.78  1.33
