13
set: 4869.00  0.00  0.00
 C  1.13  0.10  0.01
 C  2.63  0.14  0.00
 C  3.52  1.18 -0.00
 C  3.30  2.66  0.00
 N  4.78  0.62 -0.01
 N  4.75 -0.64 -0.01
 O  3.29 -1.02 -0.00
 H  0.78 -0.93 -0.01
 H  0.73  0.63 -0.87
 H  0.74  0.60  0.90
 H  2.23  2.89 -0.00
 H  3.76  3.13 -0.88
 H  3.74  3.12  0.90
