16
set: 4804.00  0.00  0.00
 C  0.85 -0.01 -0.44
 C  2.19  0.51  0.04
 N  3.39 -0.32  0.01
 C  3.28  0.80 -0.96
 C  4.21  1.97 -0.81
 C  4.87  2.19  0.53
 O  4.40  2.72 -1.77
 H  0.16  0.82 -0.66
 H  0.39 -0.64  0.33
 H  0.96 -0.60 -1.35
 H  2.14  1.16  0.92
 H  3.19 -1.20 -0.48
 H  3.05  0.58 -2.00
 H  4.13  2.57  1.26
 H  5.66  2.94  0.43
 H  5.26  1.25  0.93
