16
set: 6296.00  0.00  0.00
 N  1.00 -0.06  0.16
 C  2.47 -0.01  0.00
 C  2.89 -0.76 -1.29
 C  2.31 -0.17 -2.57
 O  2.66 -0.95 -3.73
 C  2.93  1.38  0.00
 C  3.33  2.52  0.03
 H  0.73  0.50  0.97
 H  0.72 -1.02  0.36
 H  3.00 -0.51  0.84
 H  2.56 -1.81 -1.20
 H  3.99 -0.77 -1.34
 H  2.63  0.88 -2.69
 H  1.21 -0.18 -2.53
 H  3.62 -0.86 -3.86
 H  3.68  3.54  0.05
