17
set: 3180.00  0.00  0.00
 C  0.91  0.08  0.11
 C  2.43 -0.03  0.01
 C  3.27  1.03  0.83
 C  4.21 -0.11  1.28
 C  3.16 -1.15  0.80
 C  2.85  0.06 -1.44
 O  3.58 -0.72 -2.03
 H  0.61  0.14  1.17
 H  0.42 -0.80 -0.33
 H  0.53  0.98 -0.40
 H  2.67  1.45  1.65
 H  3.71  1.87  0.26
 H  5.13 -0.15  0.69
 H  4.48 -0.13  2.35
 H  3.54 -1.98  0.18
 H  2.54 -1.54  1.61
 H  2.44  0.96 -1.97
