18
set: 2142.00  0.00  0.00
 C  0.93 -0.08  0.13
 C  2.46 -0.04  0.01
 C  2.93 -0.78 -1.25
 C  2.99  1.43  0.02
 C  2.58  2.23  1.27
 C  4.45  1.45 -0.12
 N  5.61  1.48 -0.20
 H  0.57  0.34  1.07
 H  0.58 -1.12  0.07
 H  0.46  0.47 -0.70
 H  2.90 -0.54  0.89
 H  2.51 -0.32 -2.16
 H  2.59 -1.83 -1.23
 H  4.02 -0.78 -1.34
 H  2.58  1.94 -0.87
 H  2.91  1.72  2.19
 H  1.49  2.35  1.31
 H  3.03  3.23  1.26
