16
set: 6462.00  0.00  0.00
 O  1.62 -0.23 -0.85
 C  2.81  0.12 -0.19
 C  3.58 -0.90  0.62
 C  4.14 -0.38 -0.70
 C  5.10  0.79 -0.63
 N  4.48  1.81  0.25
 C  3.03  1.60  0.17
 H  0.92 -0.34 -0.18
 H  3.18 -1.92  0.60
 H  4.05 -0.60  1.56
 H  4.16 -1.07 -1.55
 H  6.10  0.53 -0.26
 H  5.23  1.21 -1.65
 H  4.79  1.63  1.21
 H  2.55  1.91  1.11
 H  2.60  2.20 -0.65
