17
set: 5754.00  0.00  0.00
 C  1.08 -0.02 -0.20
 N  2.51  0.19 -0.07
 C  3.35 -1.00  0.00
 C  3.88 -1.45 -1.36
 O  4.79 -0.53 -1.95
 C  3.01  1.46  0.19
 N  4.22  1.86  0.36
 H  0.57  0.95 -0.25
 H  0.67 -0.58  0.66
 H  0.83 -0.58 -1.12
 H  2.77 -1.81  0.46
 H  4.21 -0.79  0.67
 H  3.03 -1.66 -2.04
 H  4.44 -2.39 -1.24
 H  4.33  0.33 -2.04
 H  2.21  2.21  0.24
 H  4.90  1.10  0.27
