19
set: 2648.00  0.00  0.00
 C  2.04 -0.53 -1.31
 N  2.23  0.07  0.01
 C  3.14  1.20 -0.02
 C  2.57  2.55 -0.54
 C  3.25  3.29  0.65
 N  4.44  4.02  0.25
 C  3.42  1.89  1.34
 H  1.40 -1.42 -1.22
 H  2.98 -0.83 -1.81
 H  1.52  0.18 -1.97
 H  2.60 -0.63  0.65
 H  4.09  0.96 -0.55
 H  1.47  2.56 -0.46
 H  2.87  2.89 -1.54
 H  2.60  3.99  1.20
 H  5.09  3.41 -0.25
 H  4.95  4.35  1.08
 H  4.39  1.69  1.83
 H  2.60  1.68  2.05
