13
set: 1112.00  0.00  0.00
 N  0.96  0.06  0.09
 C  2.41  0.00 -0.09
 C  2.96  1.44  0.04
 O  2.44  2.04  1.22
 C  4.42  1.45  0.05
 C  5.64  1.42  0.01
 H  0.59 -0.84  0.42
 H  0.48  0.27 -0.79
 H  2.74 -0.44 -1.05
 H  2.84 -0.60  0.72
 H  2.63  2.02 -0.86
 H  1.54  1.66  1.27
 H  6.71  1.40 -0.00
