14
set: 5923.00  0.00  0.00
 C  1.85 -0.85 -0.68
 O  1.65  0.37  0.05
 C  2.54  1.39 -0.20
 C  2.21  2.68  0.03
 C  0.87  3.15  0.50
 C  3.86  1.05 -0.64
 N  4.93  0.74 -1.01
 H  1.05 -1.52 -0.35
 H  2.83 -1.30 -0.46
 H  1.77 -0.68 -1.77
 H  3.00  3.42 -0.12
 H  0.14  2.33  0.52
 H  0.50  3.95 -0.15
 H  0.94  3.57  1.51
