17
set: 3922.00  0.00  0.00
 C  1.00 -1.04  0.73
 C  2.08 -0.82 -0.33
 C  2.64 -2.14 -0.86
 O  1.57 -0.11 -1.48
 C  1.30  1.26 -1.25
 C  1.01  1.92 -2.58
 O  0.68  3.09 -2.69
 H  0.61 -0.09  1.12
 H  1.41 -1.60  1.58
 H  0.16 -1.61  0.31
 H  2.90 -0.22  0.10
 H  1.84 -2.74 -1.31
 H  3.09 -2.72 -0.04
 H  3.40 -1.95 -1.62
 H  2.16  1.77 -0.79
 H  0.43  1.43 -0.59
 H  1.14  1.25 -3.47
