17
set: 1254.00  0.00  0.00
 C  1.00  0.00 -0.03
 C  2.51 -0.05 -0.01
 C  3.33 -0.77 -1.04
 C  2.73 -1.53 -2.21
 C  3.33  0.76 -1.02
 C  4.48  1.50 -0.63
 C  5.47  2.12 -0.29
 H  0.64  0.88  0.53
 H  0.57 -0.89  0.45
 H  0.60  0.07 -1.05
 H  2.95 -0.05  1.00
 H  4.26 -1.21 -0.66
 H  1.83 -1.03 -2.60
 H  2.45 -2.55 -1.91
 H  3.45 -1.60 -3.03
 H  2.73  1.22 -1.82
 H  6.34  2.67  0.01
