16
set: 2163.00  0.00  0.00
 C  1.63 -0.27  1.54
 C  2.34  0.01  0.20
 C  3.02  1.34  0.19
 C  4.34  1.60 -0.01
 C  5.42  0.59 -0.29
 C  4.78  2.96  0.04
 N  5.18  4.06  0.07
 H  1.10 -1.23  1.50
 H  0.90  0.52  1.78
 H  2.36 -0.31  2.36
 H  1.58  0.01 -0.61
 H  3.04 -0.80 -0.03
 H  2.38  2.21  0.39
 H  5.04 -0.44 -0.29
 H  6.22  0.66  0.46
 H  5.89  0.78 -1.27
