14
set: 6586.00  0.00  0.00
 O  1.04  0.01  0.59
 C  2.42  0.03  0.17
 C  2.71  1.20 -0.77
 O  4.08  1.19 -1.21
 N  4.54 -0.02 -1.77
 C  3.87 -1.09 -1.51
 C  2.68 -1.25 -0.60
 H  0.91  0.74  1.22
 H  3.09  0.10  1.04
 H  2.58  2.17 -0.28
 H  2.04  1.14 -1.65
 H  4.30 -1.98 -1.99
 H  1.79 -1.50 -1.20
 H  2.85 -2.10  0.07
