16
set: 377.00  0.00  0.00
 C  0.82  0.16 -0.34
 C  2.26 -0.03  0.07
 C  2.55  0.05  1.56
 N  1.84 -1.01  2.31
 C  3.16 -0.86 -0.77
 N  3.24  0.62 -0.84
 H  0.74  0.20 -1.43
 H  0.42  1.11  0.07
 H  0.19 -0.66  0.03
 H  2.30  1.07  1.91
 H  3.63 -0.10  1.72
 H  0.84 -0.83  2.30
 H  2.13 -0.98  3.29
 H  2.77 -1.34 -1.67
 H  3.96 -1.42 -0.26
 H  4.06  0.93 -0.29
