14
set: 5113.00  0.00  0.00
 C  0.96 -0.04 -0.00
 C  2.41 -0.01 -0.00
 C  3.62  0.03  0.00
 C  5.07  0.04  0.00
 O  5.54  1.41  0.13
 N  6.94  1.39  0.14
 C  7.42  2.57  0.25
 H  0.54  0.98  0.01
 H  0.57 -0.57  0.88
 H  0.57 -0.55 -0.90
 H  5.47 -0.39 -0.93
 H  5.47 -0.55  0.85
 H  8.51  2.65  0.26
 H  6.80  3.47  0.32
