19
set: 4110.00  0.00  0.00
 C  1.55 -0.52 -0.89
 O  2.22  0.03  0.23
 C  3.02  1.18 -0.06
 C  4.21  0.84 -0.96
 C  2.26  2.48 -0.49
 C  3.08  3.26  0.57
 C  3.43  1.91  1.25
 H  0.87 -1.29 -0.51
 H  2.24 -0.99 -1.61
 H  0.95  0.24 -1.43
 H  4.86  1.72 -1.08
 H  3.88  0.54 -1.96
 H  4.80  0.03 -0.52
 H  1.20  2.41 -0.20
 H  2.33  2.80 -1.54
 H  3.96  3.75  0.14
 H  2.54  3.99  1.18
 H  4.46  1.75  1.61
 H  2.72  1.65  2.05
