13
set: 6431.00  0.00  0.00
 N  1.07  0.12  0.43
 N  2.37  0.03 -0.06
 C  3.01  1.11 -0.23
 C  4.45  1.27 -0.66
 C  4.59  2.78 -0.70
 C  3.42  3.32 -0.33
 O  2.43  2.39 -0.03
 H  0.55 -0.70  0.11
 H  0.59  0.98  0.16
 H  4.64  0.80 -1.64
 H  5.14  0.80  0.05
 H  5.48  3.33 -0.97
 H  3.11  4.35 -0.23
