14
set: 383.00  0.00  0.00
 C  0.96  0.03 -0.07
 C  2.49 -0.04 -0.01
 C  3.03 -1.31  0.68
 N  3.18 -0.85  2.08
 N  3.43  0.52  2.08
 C  3.06  1.00  0.94
 H  0.55 -0.76 -0.72
 H  0.62  1.00 -0.47
 H  0.52 -0.09  0.94
 H  2.90  0.06 -1.03
 H  4.01 -1.60  0.25
 H  2.34 -2.16  0.62
 H  3.89 -1.33  2.64
 H  3.08  2.08  0.77
