15
set: 3718.00  0.00  0.00
 C  0.73 -0.16  0.07
 C  2.23  0.07 -0.10
 C  2.77 -0.56 -1.36
 C  3.85 -1.36 -1.42
 C  2.57  1.58 -0.02
 O  3.74  1.95 -0.61
 O  1.89  2.39  0.57
 H  0.37  0.37  0.97
 H  0.51 -1.23  0.17
 H  0.17  0.23 -0.79
 H  2.77 -0.37  0.76
 H  2.22 -0.33 -2.28
 H  4.41 -1.63 -0.53
 H  4.19 -1.77 -2.37
 H  4.11  1.16 -1.07
