16
set: 5335.00  0.00  0.00
 C  0.92  0.03  0.07
 C  2.40 -0.19 -0.04
 N  2.75 -1.51 -0.18
 C  3.27  0.87  0.05
 C  4.72  0.93 -0.02
 C  5.55 -0.33 -0.22
 O  5.30  2.02  0.09
 H  0.69  1.09  0.25
 H  0.49 -0.57  0.89
 H  0.41 -0.28 -0.86
 H  2.02 -2.16 -0.47
 H  3.69 -1.77 -0.45
 H  2.81  1.85  0.21
 H  5.38 -1.06  0.59
 H  6.61 -0.05 -0.22
 H  5.32 -0.81 -1.18
