18
set: 1541.00  0.00  0.00
 C  1.53  1.56 -0.43
 C  0.15  1.04 -0.09
 C  1.27  0.07 -0.35
 N  1.81 -0.65  0.77
 C  3.11 -1.23  0.53
 C  4.33 -0.43  0.92
 C  3.93 -1.64  1.73
 H  1.69  2.00 -1.42
 H  2.12  1.99  0.38
 H -0.64  1.13 -0.83
 H -0.16  1.15  0.95
 H  1.24 -0.46 -1.32
 H  1.16 -1.39  1.05
 H  3.22 -1.86 -0.36
 H  4.15  0.54  1.37
 H  5.22 -0.50  0.29
 H  4.53 -2.55  1.66
 H  3.48 -1.46  2.71
