19
set: 3899.00  0.00  0.00
 C  2.82 -0.77 -1.43
 C  2.58 -0.19 -0.03
 C  3.13  1.23  0.14
 O  2.68  1.68  1.43
 C  2.84  3.08  1.63
 C  4.63  1.29  0.05
 C  5.32  2.01 -0.84
 H  2.40 -1.78 -1.50
 H  3.89 -0.83 -1.67
 H  2.33 -0.16 -2.21
 H  3.04 -0.83  0.73
 H  1.50 -0.15  0.19
 H  2.69  1.89 -0.64
 H  2.45  3.31  2.63
 H  2.28  3.66  0.88
 H  3.90  3.39  1.58
 H  5.16  0.68  0.80
 H  4.81  2.63 -1.58
 H  6.41  2.01 -0.86
