18
set: 2843.00  0.00  0.00
 N  1.04  0.15  0.16
 C  2.49 -0.07 -0.04
 C  2.75 -1.52 -0.49
 C  2.74 -1.50 -2.04
 C  3.21 -0.09 -2.41
 C  2.17  1.00 -2.40
 C  3.04  0.79 -1.18
 H  0.87  1.14  0.35
 H  0.73 -0.36  0.99
 H  3.08  0.15  0.88
 H  2.03 -2.23 -0.06
 H  3.76 -1.82 -0.14
 H  3.41 -2.27 -2.46
 H  1.73 -1.70 -2.43
 H  4.08  0.03 -3.06
 H  2.36  1.89 -3.00
 H  1.12  0.71 -2.32
 H  3.78  1.56 -0.94
