14
set: 6674.00  0.00  0.00
 O  1.84 -0.42 -1.18
 C  2.05  0.25 -0.19
 C  3.18  1.28 -0.05
 N  3.66  1.32  1.34
 C  3.66  2.71  1.84
 C  2.91  3.46  0.77
 C  2.65  2.67 -0.28
 H  1.41  0.18  0.73
 H  3.95  1.02 -0.80
 H  4.57  0.87  1.44
 H  4.68  3.13  1.97
 H  3.16  2.78  2.82
 H  2.63  4.51  0.87
 H  2.12  2.96 -1.19
