18
set: 1649.00  0.00  0.00
 C  0.79  0.02 -0.51
 C  2.24  0.02 -0.04
 C  3.25 -0.77 -0.84
 C  3.26  0.75 -0.89
 C  2.46  0.06  1.45
 C  1.55  0.73  2.42
 N  1.57 -0.75  2.31
 H  0.74 -0.14 -1.59
 H  0.29  0.98 -0.29
 H  0.23 -0.78 -0.01
 H  2.89 -1.31 -1.72
 H  4.06 -1.27 -0.30
 H  4.08  1.27 -0.38
 H  2.91  1.24 -1.80
 H  3.53  0.09  1.72
 H  0.62  1.19  2.07
 H  1.99  1.20  3.30
 H  2.11 -1.15  3.08
