19
set: 417.00  0.00  0.00
 C  0.95 -0.09  0.01
 C  2.48 -0.04  0.02
 C  3.04  1.39  0.00
 C  4.57  1.45  0.00
 C  5.12  2.87  0.01
 N  6.59  2.86 -0.04
 H  0.58 -1.12  0.02
 H  0.54  0.40 -0.89
 H  0.53  0.43  0.89
 H  2.87 -0.59 -0.86
 H  2.86 -0.57  0.91
 H  2.65  1.94  0.88
 H  2.65  1.92 -0.89
 H  4.97  0.92 -0.87
 H  4.95  0.91  0.89
 H  4.71  3.42  0.88
 H  4.77  3.40 -0.89
 H  6.96  2.44  0.82
 H  6.95  3.82 -0.06
