14
set: 906.00  0.00  0.00
 O  0.91  0.02  0.17
 C  2.32 -0.03  0.02
 C  3.06  1.05  0.84
 C  4.12 -0.01  1.24
 O  5.36  0.04  0.53
 C  3.12 -1.12  0.78
 H  0.51 -0.66 -0.41
 H  2.59  0.01 -1.05
 H  2.44  1.35  1.70
 H  3.42  1.95  0.32
 H  4.41 -0.03  2.30
 H  5.16  0.10 -0.43
 H  3.55 -1.96  0.21
 H  2.53 -1.51  1.63
