15
set: 5377.00  0.00  0.00
 C  2.22 -0.11  1.43
 C  2.11  0.59  0.08
 N  3.06  1.70 -0.07
 C  2.78  2.99  0.42
 N  1.74  3.41  1.02
 C  4.28  1.46 -0.70
 O  4.64  0.39 -1.14
 H  1.48 -0.92  1.49
 H  2.05  0.58  2.26
 H  3.22 -0.55  1.55
 H  1.10  0.99 -0.09
 H  2.34 -0.11 -0.74
 H  3.60  3.69  0.22
 H  1.03  2.67  1.16
 H  4.91  2.38 -0.74
