16
set: 2260.00  0.00  0.00
 C  0.87  0.40  0.29
 C  2.33  0.09  0.05
 C  2.85 -1.15 -0.15
 C  2.13 -2.46 -0.19
 N  2.57 -3.24 -1.36
 C  3.20  1.22  0.06
 C  3.88  2.23  0.07
 H  0.53  1.20 -0.39
 H  0.72  0.76  1.32
 H  0.23 -0.48  0.13
 H  3.93 -1.22 -0.32
 H  1.03 -2.30 -0.14
 H  2.41 -3.03  0.71
 H  2.26 -2.79 -2.22
 H  2.14 -4.17 -1.34
 H  4.51  3.10  0.08
