15
set: 6158.00  0.00  0.00
 N  1.00  0.06  0.50
 C  2.42  0.00  0.13
 C  2.75  1.17 -0.79
 O  4.13  1.18 -1.19
 N  4.63 -0.03 -1.71
 C  3.96 -1.10 -1.48
 C  2.71 -1.27 -0.66
 H  0.83  0.85  1.13
 H  0.75 -0.78  1.04
 H  3.11  0.05  0.99
 H  2.60  2.15 -0.30
 H  2.10  1.12 -1.69
 H  4.42 -1.99 -1.93
 H  1.85 -1.49 -1.32
 H  2.84 -2.14  0.00
