16
set: 295.00  0.00  0.00
 C  0.92  0.04  0.08
 C  2.44 -0.04 -0.05
 C  2.86 -0.82 -1.29
 C  3.05  1.39 -0.04
 C  4.50  1.42 -0.03
 C  5.72  1.43 -0.01
 H  0.62  0.57  1.00
 H  0.48 -0.97  0.12
 H  0.48  0.57 -0.78
 H  2.84 -0.56  0.84
 H  2.47 -0.34 -2.20
 H  2.47 -1.85 -1.26
 H  3.96 -0.88 -1.38
 H  2.67  1.94  0.83
 H  2.68  1.93 -0.93
 H  6.79  1.45  0.01
