19
set: 2536.00  0.00  0.00
 C  3.61 -1.31 -0.71
 C  2.90 -0.03 -0.26
 N  3.66  1.15 -0.62
 C  4.08  1.89  0.34
 N  4.89  2.99  0.17
 C  5.03  3.96  1.24
 C  5.19  3.46 -1.17
 H  2.99 -2.20 -0.49
 H  4.57 -1.42 -0.20
 H  3.80 -1.28 -1.80
 H  2.71 -0.08  0.83
 H  1.91  0.02 -0.75
 H  3.85  1.69  1.40
 H  4.82  3.47  2.21
 H  4.35  4.82  1.13
 H  6.06  4.34  1.27
 H  5.13  2.60 -1.86
 H  6.21  3.88 -1.20
 H  4.48  4.23 -1.51
