19
set: 2666.00  0.00  0.00
 C  3.49 -0.67 -2.27
 N  4.42  0.31 -1.69
 C  3.74  1.32 -0.88
 C  4.70  2.14 -0.04
 N  5.81  1.48  0.69
 C  6.11  2.41 -0.44
 C  6.81  3.70 -0.08
 H  4.05 -1.36 -2.92
 H  2.67 -0.22 -2.86
 H  3.04 -1.27 -1.47
 H  4.92  0.77 -2.45
 H  3.06  0.78 -0.19
 H  3.10  2.00 -1.47
 H  4.19  2.91  0.56
 H  5.87  0.53  0.31
 H  6.45  1.94 -1.36
 H  6.43  4.09  0.87
 H  6.65  4.46 -0.86
 H  7.89  3.54  0.03
