17
set: 1279.00  0.00  0.00
 C  1.00  0.07  0.59
 C  2.19 -0.01 -0.03
 C  2.94  1.20 -0.53
 C  4.33  1.29  0.13
 C  5.03 -0.04  0.15
 C  4.40 -1.21 -0.04
 C  2.91 -1.32 -0.26
 H  0.51  1.03  0.74
 H  0.49 -0.82  0.97
 H  2.36  2.12 -0.36
 H  3.09  1.10 -1.62
 H  4.23  1.67  1.16
 H  4.95  2.03 -0.40
 H  6.11 -0.04  0.32
 H  4.96 -2.15 -0.04
 H  2.72 -1.67 -1.29
 H  2.49 -2.10  0.40
