17
set: 5823.00  0.00  0.00
 C  1.41 -0.31 -0.58
 N  2.85 -0.13 -0.57
 C  3.34  1.16 -0.33
 O  2.60  2.14 -0.30
 N  4.72  1.25 -0.21
 C  5.61  0.11 -0.28
 C  5.29  2.51  0.24
 H  1.19 -1.32 -0.96
 H  0.96  0.43 -1.25
 H  0.95 -0.19  0.42
 H  3.39 -0.90 -0.19
 H  5.30 -0.58 -1.08
 H  5.68 -0.45  0.68
 H  6.62  0.45 -0.53
 H  4.50  3.27  0.23
 H  6.11  2.83 -0.43
 H  5.70  2.43  1.26
