16
set: 6139.00  0.00  0.00
 N  0.96  0.11  0.07
 C  2.42  0.04  0.02
 C  3.11  1.12  0.88
 O  4.42  0.59  1.15
 C  4.22 -0.80  1.42
 C  3.02 -1.23  0.61
 C  2.55 -2.47  0.48
 H  0.56 -0.82 -0.06
 H  0.61  0.69 -0.69
 H  2.82  0.13 -1.01
 H  2.53  1.25  1.81
 H  3.24  2.09  0.38
 H  5.15 -1.33  1.15
 H  4.03 -0.96  2.51
 H  1.66 -2.69 -0.12
 H  3.03 -3.32  0.95
