15
set: 5160.00  0.00  0.00
 C  0.69  0.03  0.05
 C  2.15  0.00  0.35
 C  3.03  0.90 -0.12
 N  4.40  0.89  0.14
 C  5.25  1.90 -0.31
 N  6.58  1.73  0.09
 O  4.87  2.87 -0.95
 H  0.36 -0.89 -0.45
 H  0.43  0.88 -0.60
 H  0.09  0.12  0.97
 H  2.51 -0.81  1.00
 H  2.73  1.74 -0.76
 H  4.76  0.21  0.80
 H  6.93  0.78  0.16
 H  7.20  2.36 -0.40
