18
set: 5677.00  0.00  0.00
 C  1.57 -0.20  0.28
 N  2.94  0.18  0.63
 C  3.22  1.61  0.48
 C  2.44  2.45  1.49
 C  4.71  1.81  0.68
 C  5.65  1.81 -0.45
 O  5.27  3.04  0.19
 H  1.49 -1.30  0.26
 H  1.22  0.18 -0.70
 H  0.86  0.15  1.05
 H  3.58 -0.34  0.02
 H  2.97  1.98 -0.54
 H  2.63  2.09  2.51
 H  1.35  2.40  1.31
 H  2.74  3.50  1.42
 H  5.09  1.50  1.66
 H  5.26  1.69 -1.47
 H  6.69  1.51 -0.30
