20
set: 1762.00  0.00  0.00
 C  0.98  0.91 -0.46
 C  2.29  0.14 -0.46
 C  2.99  0.02  0.89
 C  3.48  1.34  1.48
 N  4.24  1.10  2.71
 C  2.40 -1.03 -1.40
 C  3.17  0.24 -1.69
 H  0.52  0.90 -1.46
 H  1.12  1.96 -0.18
 H  0.26  0.46  0.24
 H  3.86 -0.65  0.79
 H  2.30 -0.47  1.61
 H  2.62  2.03  1.61
 H  4.16  1.83  0.75
 H  3.62  0.72  3.43
 H  4.59  1.99  3.08
 H  1.54 -1.27 -2.03
 H  2.97 -1.91 -1.07
 H  4.25  0.23 -1.55
 H  2.82  0.87 -2.52
