18
set: 5039.00  0.00  0.00
 C  1.15 -0.54 -0.04
 C  2.65 -0.29  0.00
 C  3.01  1.20 -0.00
 C  4.52  1.44  0.04
 C  4.89  2.93  0.02
 N  6.24  3.17  0.03
 O  4.07  3.83 -0.01
 H  0.91 -1.62 -0.04
 H  0.69 -0.10 -0.94
 H  0.65 -0.10  0.83
 H  3.13 -0.79 -0.86
 H  3.08 -0.77  0.90
 H  2.54  1.70  0.86
 H  2.59  1.68 -0.90
 H  5.01  0.95 -0.81
 H  4.96  0.99  0.95
 H  6.93  2.43  0.04
 H  6.56  4.14  0.01
