15
set: 2823.00  0.00  0.00
 N  0.95 -0.34 -0.27
 C  2.28  0.10  0.12
 C  3.54 -0.70 -0.35
 N  4.35  0.60 -0.20
 C  3.03  1.19 -0.73
 C  3.02  0.57 -2.13
 C  3.36 -0.70 -1.88
 H  0.24  0.31  0.09
 H  0.74 -1.25  0.17
 H  2.38  0.34  1.20
 H  3.91 -1.60  0.15
 H  4.38  0.81  0.81
 H  2.87  2.27 -0.61
 H  2.79  1.07 -3.06
 H  3.49 -1.55 -2.55
