14
set: 6490.00  0.00  0.00
 O  1.78  0.03  1.53
 C  2.49  0.01  0.54
 C  2.99 -1.26 -0.17
 C  4.03 -0.78 -1.16
 N  5.19 -0.03 -0.63
 C  4.05  0.72 -1.18
 C  3.02  1.25 -0.21
 H  2.13 -1.73 -0.68
 H  3.36 -1.99  0.56
 H  4.24 -1.37 -2.05
 H  5.18 -0.02  0.40
 H  4.26  1.28 -2.09
 H  3.40  1.99  0.51
 H  2.16  1.72 -0.73
