20
set: 1822.00  0.00  0.00
 C  0.97  0.02 -0.03
 C  2.50  0.01  0.04
 C  3.12  1.11  0.91
 N  4.49  0.67  1.22
 C  4.37 -0.79  1.41
 C  3.10 -1.29  0.64
 C  3.40 -2.37 -0.40
 H  0.58 -0.81 -0.63
 H  0.59  0.95 -0.47
 H  0.54 -0.08  0.98
 H  2.90  0.13 -0.99
 H  2.55  1.21  1.86
 H  3.13  2.10  0.43
 H  5.07  0.85  0.40
 H  5.29 -1.29  1.07
 H  4.26 -1.00  2.49
 H  2.38 -1.69  1.37
 H  4.15 -2.02 -1.12
 H  2.49 -2.65 -0.96
 H  3.79 -3.29  0.08
