13
set: 4025.00  0.00  0.00
 C  3.60 -0.64  0.16
 C  4.71 -0.05 -0.28
 O  4.92  1.31 -0.11
 C  6.22  1.76 -0.02
 C  7.31  1.03  0.24
 C  6.26  3.23 -0.25
 O  7.28  3.90 -0.22
 H  3.43 -1.69 -0.07
 H  2.85 -0.09  0.73
 H  5.49 -0.56 -0.85
 H  7.29 -0.04  0.46
 H  8.27  1.55  0.26
 H  5.26  3.68 -0.45
