14
set: 878.00  0.00  0.00
 C  2.54 -0.94  0.62
 O  3.89 -0.49  0.59
 C  4.01  0.79 -0.02
 C  5.47  1.22  0.04
 C  5.92  1.57  1.44
 O  6.69  2.48  1.71
 H  2.54 -1.93  1.11
 H  2.13 -1.05 -0.40
 H  1.89 -0.25  1.20
 H  3.35  1.52  0.49
 H  3.68  0.74 -1.08
 H  5.66  2.08 -0.62
 H  6.09  0.38 -0.31
 H  5.50  0.93  2.25
