13
set: 6537.00  0.00  0.00
 O  0.92 -0.10 -0.35
 C  2.12 -0.01 -0.14
 C  2.80  1.31  0.22
 C  4.27  1.26 -0.20
 N  4.88  0.05  0.35
 N  4.30 -1.14  0.18
 C  3.02 -1.18 -0.10
 H  2.27  2.14 -0.25
 H  2.72  1.43  1.32
 H  4.83  2.13  0.15
 H  4.33  1.23 -1.31
 H  5.90 -0.02  0.32
 H  2.58 -2.17 -0.22
