15
set: 5785.00  0.00  0.00
 C  0.62  2.39  0.01
 N  2.07  2.45 -0.00
 C  2.70  1.34 -0.16
 N  4.06  1.27 -0.17
 C  4.90  2.42 -0.04
 C  6.35  2.07 -0.16
 O  6.76  0.93 -0.34
 H  0.21  3.03 -0.79
 H  0.24  2.79  0.96
 H  0.21  1.37 -0.13
 H  2.20  0.36 -0.28
 H  4.54  0.38 -0.34
 H  4.74  2.95  0.92
 H  4.67  3.19 -0.81
 H  7.06  2.93 -0.05
