16
set: 6143.00  0.00  0.00
 N  1.04 -0.04  0.62
 C  2.34 -0.08 -0.06
 C  3.27  1.04  0.50
 O  4.39  0.39  1.12
 C  3.90 -0.90  1.55
 C  3.11 -1.37  0.33
 O  3.97 -1.83 -0.72
 H  0.39 -0.70  0.17
 H  0.62  0.88  0.52
 H  2.28 -0.03 -1.16
 H  2.71  1.63  1.25
 H  3.67  1.71 -0.28
 H  4.76 -1.53  1.78
 H  3.24 -0.80  2.43
 H  2.42 -2.20  0.56
 H  4.71 -1.19 -0.76
