19
set: 558.00  0.00  0.00
 C  1.13  1.92  1.12
 N  2.58  2.01  1.11
 C  3.18  1.43 -0.10
 C  4.71  1.52 -0.10
 C  5.28  0.76 -1.30
 C  5.19  2.98 -0.08
 H  0.74  2.30  2.08
 H  0.73  0.89  0.96
 H  0.72  2.55  0.32
 H  2.96  1.51  1.92
 H  2.78  2.00 -0.97
 H  2.87  0.37 -0.26
 H  5.07  1.02  0.82
 H  4.95  1.21 -2.25
 H  4.97 -0.29 -1.30
 H  6.38  0.79 -1.30
 H  4.91  3.49 -1.01
 H  6.29  3.03  0.01
 H  4.74  3.53  0.76
