15
set: 5651.00  0.00  0.00
 C  1.04 -0.05  0.11
 N  2.37  0.12 -0.43
 C  3.05  1.17 -0.16
 C  2.72  2.45  0.60
 C  3.64  3.43 -0.12
 O  4.82  2.66 -0.41
 N  4.37  1.30 -0.63
 H  1.03 -0.93  0.77
 H  0.34 -0.26 -0.71
 H  0.65  0.81  0.69
 H  3.00  2.34  1.66
 H  1.66  2.71  0.54
 H  3.17  3.79 -1.05
 H  3.97  4.29  0.48
 H  4.47  1.09 -1.63
