21
set: 1194.00  0.00  0.00
 C  0.99  0.00 -0.07
 C  2.51  0.02  0.06
 C  3.07  1.14  0.95
 C  4.52  0.70  1.20
 C  4.41 -0.83  1.42
 C  3.12 -1.28  0.66
 C  3.36 -2.37 -0.38
 H  0.65 -0.84 -0.69
 H  0.61  0.93 -0.53
 H  0.52 -0.10  0.92
 H  2.95  0.15 -0.95
 H  2.51  1.17  1.91
 H  2.99  2.14  0.49
 H  5.12  0.91  0.30
 H  5.00  1.22  2.04
 H  5.30 -1.36  1.05
 H  4.32 -1.05  2.49
 H  2.39 -1.66  1.41
 H  4.11 -2.05 -1.11
 H  2.44 -2.61 -0.93
 H  3.72 -3.30  0.09
