16
set: 2061.00  0.00  0.00
 C  1.57 -0.69 -1.11
 C  2.48 -0.18 -0.25
 C  3.24  1.03 -0.47
 C  4.14  1.53  0.40
 C  4.91  2.77  0.18
 C  5.19  3.72  1.30
 N  6.26  2.84  0.81
 H  1.03 -1.60 -0.89
 H  1.36 -0.19 -2.06
 H  2.67 -0.71  0.69
 H  3.06  1.56 -1.42
 H  4.35  1.00  1.34
 H  4.79  3.23 -0.81
 H  4.83  3.49  2.31
 H  5.22  4.79  1.06
 H  6.89  3.36  0.20
