19
set: 3691.00  0.00  0.00
 C  0.95 -0.35  0.29
 C  2.47 -0.32  0.10
 C  3.02  1.11 -0.06
 C  4.50  1.16 -0.25
 C  5.14  1.66 -1.31
 C  6.63  1.66 -1.47
 O  7.05  0.92 -2.64
 H  0.59 -1.39  0.40
 H  0.43  0.09 -0.58
 H  0.64  0.21  1.18
 H  2.75 -0.90 -0.79
 H  2.96 -0.80  0.96
 H  2.75  1.69  0.85
 H  2.52  1.61 -0.91
 H  5.11  0.72  0.56
 H  4.57  2.09 -2.14
 H  7.11  1.27 -0.56
 H  7.01  2.68 -1.64
 H  6.64  0.04 -2.58
