13
set: 962.00  0.00  0.00
 C  0.41  1.44  0.29
 C  1.33  0.33 -0.19
 O  0.99 -0.95  0.39
 N -0.36 -1.33  0.33
 C -1.23 -0.42  0.06
 C -1.02  1.06 -0.12
 H  0.71  2.40 -0.13
 H  0.48  1.51  1.39
 H  2.38  0.49  0.10
 H  1.28  0.23 -1.29
 H -2.25 -0.81  0.02
 H -1.21  1.34 -1.17
 H -1.77  1.60  0.48
