18
set: 1548.00  0.00  0.00
 C -0.86  0.01 -1.15
 C -0.65  1.08 -0.03
 C -1.17  0.01  0.97
 C -0.60 -1.04 -0.04
 N  0.85 -1.25  0.12
 C  1.62 -0.01 -0.11
 C  0.86  1.29  0.22
 H -1.91 -0.02 -1.47
 H -0.21  0.02 -2.03
 H -1.19  2.03 -0.10
 H -0.76  0.00  1.99
 H -2.27 -0.02  1.01
 H -1.10 -2.02 -0.12
 H  1.02 -1.59  1.07
 H  1.91  0.01 -1.17
 H  2.56 -0.08  0.46
 H  1.25  2.11 -0.41
 H  1.01  1.59  1.27
