16
set: 809.00  0.00  0.00
 C  1.15 -0.25  0.24
 C  2.56  0.12 -0.22
 C  2.88 -0.54 -1.57
 O  4.24 -0.40 -1.98
 C  2.71  1.64 -0.28
 O  4.02  2.10 -0.68
 H  0.90  0.21  1.21
 H  1.03 -1.34  0.34
 H  0.39  0.10 -0.49
 H  3.29 -0.27  0.52
 H  2.19 -0.13 -2.34
 H  2.70 -1.62 -1.51
 H  4.45  0.55 -1.86
 H  2.42  2.10  0.68
 H  2.02  2.05 -1.05
 H  4.63  1.91  0.06
