19
set: 1881.00  0.00  0.00
 C  0.89  0.00 -0.14
 C  2.40  0.00  0.03
 N  2.77 -0.05  1.44
 C  3.23 -0.67 -1.05
 C  3.21  0.85 -0.92
 C  4.46  1.60 -0.51
 N  5.26  1.92 -1.70
 H  0.61  0.07 -1.20
 H  0.45  0.85  0.40
 H  0.45 -0.92  0.26
 H  3.79 -0.01  1.54
 H  2.48 -0.95  1.83
 H  2.74 -1.13 -1.91
 H  4.15 -1.18 -0.73
 H  2.64  1.38 -1.68
 H  5.02  1.01  0.25
 H  4.18  2.55 -0.03
 H  5.55  1.05 -2.16
 H  6.11  2.41 -1.43
