13
set: 5898.00  0.00  0.00
 C  3.28 -1.15  0.50
 O  2.46 -0.01  0.27
 C  3.10  1.18  0.14
 N  2.47  2.31 -0.07
 C  3.47  3.27 -0.14
 C  4.71  2.70  0.03
 N  4.47  1.34  0.21
 H  2.60 -2.00  0.58
 H  3.84 -1.06  1.44
 H  3.98 -1.33 -0.34
 H  3.24  4.31 -0.31
 H  5.72  3.11  0.04
 H  5.17  0.62  0.37
