22
set: 2179.00  0.00  0.00
 C  1.24 -0.74  1.61
 C  2.73 -0.39  1.66
 C  3.07  1.04  1.19
 C  2.38  2.15  2.02
 C  2.69  2.15  3.52
 C  4.60  1.22  1.13
 N  4.97  2.52  0.55
 H  1.07 -1.79  1.88
 H  0.82 -0.58  0.60
 H  0.65 -0.12  2.31
 H  3.28 -1.10  1.02
 H  3.11 -0.55  2.68
 H  2.69  1.14  0.16
 H  1.29  2.08  1.87
 H  2.69  3.12  1.59
 H  2.37  1.22  4.01
 H  2.16  2.98  4.02
 H  3.76  2.28  3.72
 H  5.02  0.35  0.58
 H  5.01  1.17  2.15
 H  4.73  2.54 -0.44
 H  5.99  2.64  0.60
