17
set: 5071.00  0.00  0.00
 C  1.84  0.56  1.35
 C  2.26 -0.04  0.03
 C  3.09 -1.29  0.03
 C  2.23 -2.57 -0.09
 N  3.09 -3.75 -0.00
 N  1.85  0.59 -1.02
 O  2.28 -0.06 -2.22
 H  1.21  1.44  1.20
 H  2.73  0.84  1.94
 H  1.28 -0.18  1.95
 H  3.68 -1.36  0.95
 H  3.78 -1.26 -0.83
 H  1.63 -2.50 -1.01
 H  1.52 -2.61  0.76
 H  3.69 -3.80 -0.84
 H  2.52 -4.60 -0.02
 H  1.93  0.55 -2.89
