17
set: 3657.00  0.00  0.00
 C  0.96  0.03 -0.00
 C  2.42  0.00  0.00
 C  3.63 -0.04  0.01
 C  5.10 -0.05 -0.01
 C  5.66 -0.82 -1.21
 C  5.62  1.41  0.04
 O  7.05  1.49  0.13
 H  0.58  1.07  0.00
 H  0.55 -0.48  0.88
 H  0.56 -0.47 -0.90
 H  5.45 -0.54  0.92
 H  5.29 -0.38 -2.15
 H  5.35 -1.87 -1.18
 H  6.76 -0.76 -1.21
 H  5.14  1.95  0.86
 H  5.36  1.92 -0.90
 H  7.30  1.22  1.03
