19
set: 2738.00  0.00  0.00
 C  1.28  0.22  0.62
 N  2.58  0.33 -0.05
 C  3.22  1.62  0.16
 C  4.58  1.68 -0.54
 N  5.21  2.98 -0.34
 C  6.06  3.09  0.85
 C  6.66  3.00 -0.51
 H  0.81 -0.74  0.36
 H  0.57  1.04  0.36
 H  1.43  0.25  1.71
 H  2.45  0.18 -1.05
 H  3.37  1.75  1.25
 H  2.60  2.48 -0.17
 H  4.44  1.54 -1.62
 H  5.21  0.84 -0.17
 H  6.16  2.21  1.49
 H  6.02  4.05  1.38
 H  7.07  3.90 -1.00
 H  7.16  2.06 -0.78
