14
set: 5726.00  0.00  0.00
 C  1.66 -0.67 -1.65
 N  2.98 -0.20 -1.28
 C  3.19  0.91 -0.52
 C  4.37  1.54 -0.28
 C  4.38  2.70  0.61
 O  5.61  3.30  0.80
 O  3.41  3.18  1.18
 H  1.66 -1.77 -1.73
 H  1.32 -0.26 -2.61
 H  0.94 -0.39 -0.87
 H  3.77 -0.56 -1.81
 H  2.29  1.32 -0.03
 H  5.30  1.19 -0.75
 H  6.29  2.81  0.29
