18
set: 1545.00  0.00  0.00
 C -1.26 -0.78 -0.54
 C -1.26  0.78 -0.53
 C -0.01  1.10  0.32
 C  1.26  0.78 -0.51
 C  1.26 -0.78 -0.51
 C -0.00 -1.10  0.31
 N  0.06 -0.00  1.32
 H -1.21 -1.21 -1.55
 H -2.16 -1.19 -0.06
 H -2.17  1.18 -0.05
 H -1.21  1.21 -1.54
 H -0.01  2.09  0.79
 H  2.15  1.18 -0.01
 H  1.21  1.22 -1.52
 H  2.16 -1.17 -0.02
 H  1.21 -1.21 -1.52
 H -0.00 -2.10  0.78
 H -0.80 -0.01  1.89
