13
set: 971.00  0.00  0.00
 C  0.88 -0.06 -0.09
 C  2.37  0.18 -0.14
 C  3.29 -0.69 -0.97
 N  2.94  0.67 -1.38
 C  3.85  1.72 -1.47
 O  3.75  2.78 -0.87
 H  0.35  0.88  0.11
 H  0.64 -0.77  0.72
 H  0.52 -0.47 -1.04
 H  2.82  0.61  0.76
 H  2.87 -1.49 -1.57
 H  4.31 -0.86 -0.60
 H  4.65  1.52 -2.21
