14
set: 6060.00  0.00  0.00
 N  1.10  0.06  0.73
 C  2.42 -0.03  0.15
 C  2.57  0.70 -1.16
 O  3.88  1.12 -1.56
 C  4.61 -0.04 -1.74
 C  3.91 -1.18 -1.57
 C  2.53 -0.82 -1.16
 H  1.01  0.90  1.29
 H  0.92 -0.74  1.33
 H  3.31 -0.07  0.79
 H  1.77  1.35 -1.52
 H  5.65  0.13 -2.00
 H  4.29 -2.18 -1.72
 H  1.65 -1.39 -1.50
