17
set: 3711.00  0.00  0.00
 C  0.97 -0.10  0.00
 C  2.51 -0.03  0.00
 C  3.01  1.34 -0.00
 C  3.38  2.50 -0.01
 C  3.86  3.87 -0.01
 O  2.77  4.79 -0.17
 C  3.23  6.13 -0.17
 H  0.64 -1.15  0.00
 H  0.56  0.40 -0.88
 H  0.56  0.39  0.89
 H  2.91 -0.56 -0.88
 H  2.91 -0.56  0.88
 H  4.59  4.01 -0.82
 H  4.39  4.09  0.95
 H  2.34  6.77 -0.30
 H  3.93  6.32 -1.00
 H  3.72  6.39  0.78
