15
set: 4208.00  0.00  0.00
 C  2.51 -0.52 -0.19
 O  2.06  0.84 -0.09
 C  2.99  1.82 -0.02
 C  2.31  3.15  0.07
 C  4.34  1.60 -0.02
 C  5.35  2.63  0.06
 O  6.56  2.41  0.05
 H  1.60 -1.13 -0.24
 H  3.10 -0.81  0.70
 H  3.12 -0.68 -1.10
 H  1.65  3.17  0.96
 H  1.67  3.30 -0.81
 H  3.01  3.98  0.14
 H  4.74  0.58 -0.09
 H  4.99  3.69  0.13
