18
set: 5916.00  0.00  0.00
 C  1.17 -0.16  0.58
 O  2.53 -0.23  0.17
 C  3.18  0.98  0.19
 C  4.52  1.09  0.09
 C  5.44 -0.10  0.01
 C  5.14  2.47  0.04
 N  6.06  2.68  1.18
 H  0.75 -1.16  0.45
 H  0.59  0.55 -0.03
 H  1.09  0.13  1.65
 H  2.54  1.87  0.25
 H  4.92 -1.03  0.26
 H  6.29  0.04  0.68
 H  5.85 -0.20 -1.01
 H  4.33  3.22 -0.04
 H  5.74  2.56 -0.88
 H  5.51  2.74  2.04
 H  6.54  3.57  1.07
