19
set: 6308.00  0.00  0.00
 N  1.13  0.11 -0.98
 C  2.57  0.09 -0.70
 C  3.05  1.49 -0.31
 C  4.53  1.55  0.06
 O  5.33  1.19 -1.07
 C  4.95  2.94  0.55
 N  6.42  2.97  0.68
 H  0.81 -0.84 -1.20
 H  0.95  0.66 -1.82
 H  3.19 -0.28 -1.54
 H  2.74 -0.59  0.15
 H  2.45  1.85  0.54
 H  2.89  2.19 -1.15
 H  4.71  0.82  0.89
 H  6.20  1.59 -0.87
 H  4.41  3.19  1.48
 H  4.67  3.68 -0.22
 H  6.71  2.54  1.57
 H  6.77  3.92  0.68
