17
set: 4229.00  0.00  0.00
 C  1.17  4.21 -0.50
 O  2.20  3.35 -0.94
 C  3.15  3.09  0.10
 C  4.16  2.09 -0.37
 C  5.45  2.43 -0.52
 O  6.49  1.65 -0.92
 C  6.17  0.29 -1.25
 H  0.47  4.34 -1.34
 H  1.56  5.20 -0.20
 H  0.62  3.79  0.36
 H  2.61  2.70  0.99
 H  3.65  4.03  0.41
 H  3.80  1.09 -0.60
 H  5.81  3.44 -0.30
 H  7.11 -0.18 -1.55
 H  5.45  0.26 -2.09
 H  5.75 -0.24 -0.38
