15
set: 3255.00  0.00  0.00
 C  0.92 -0.05  0.23
 C  2.38  0.15 -0.10
 C  3.20  1.14  0.74
 C  4.14 -0.07  1.03
 O  3.21 -0.98  0.34
 C  5.46 -0.02  0.43
 C  6.57  0.03 -0.06
 H  0.52 -0.94 -0.29
 H  0.33  0.82 -0.10
 H  0.78 -0.19  1.31
 H  2.51  0.30 -1.19
 H  2.68  1.51  1.64
 H  3.67  1.98  0.21
 H  4.23 -0.34  2.09
 H  7.55  0.07 -0.50
