19
set: 3529.00  0.00  0.00
 C  2.11 -0.53 -1.43
 C  2.45  0.00 -0.04
 C  3.26  1.29 -0.06
 O  4.51  0.98 -0.71
 C  2.58  2.58 -0.63
 C  3.10  3.38  0.60
 C  3.45  2.04  1.30
 H  1.52 -1.46 -1.36
 H  3.02 -0.74 -2.01
 H  1.51  0.19 -2.01
 H  3.03 -0.75  0.52
 H  1.53  0.19  0.53
 H  5.03  1.79 -0.77
 H  1.48  2.50 -0.64
 H  2.91  2.90 -1.63
 H  3.99  3.99  0.36
 H  2.38  4.03  1.11
 H  4.45  1.94  1.75
 H  2.70  1.74  2.04
