17
set: 3428.00  0.00  0.00
 C  1.05  0.20  0.05
 C  2.56 -0.05  0.14
 O  3.31  1.11 -0.24
 C  3.56  1.19 -1.65
 C  4.42  0.03 -2.13
 C  3.86 -1.27 -1.62
 C  2.98 -1.29 -0.60
 H  0.78  1.08  0.65
 H  0.48 -0.67  0.42
 H  0.74  0.38 -0.99
 H  2.81 -0.19  1.21
 H  4.05  2.16 -1.80
 H  2.60  1.20 -2.21
 H  5.46  0.15 -1.79
 H  4.45  0.03 -3.23
 H  4.16 -2.20 -2.10
 H  2.56 -2.24 -0.26
