20
set: 1697.00  0.00  0.00
 C  0.97  0.06  0.14
 C  2.49  0.02 -0.04
 C  3.00 -1.35 -0.55
 C  2.69 -1.56 -2.04
 C  3.21 -0.39 -2.87
 C  2.69  0.94 -2.32
 N  2.94  1.15 -0.88
 H  0.66  1.04  0.51
 H  0.64 -0.71  0.86
 H  0.43 -0.13 -0.80
 H  2.93  0.19  0.96
 H  2.57 -2.17  0.05
 H  4.09 -1.40 -0.41
 H  3.13 -2.51 -2.39
 H  1.60 -1.66 -2.19
 H  4.32 -0.38 -2.85
 H  2.92 -0.50 -3.93
 H  3.13  1.79 -2.86
 H  1.60  1.01 -2.49
 H  3.95  1.26 -0.75
