15
set: 999.00  0.00  0.00
 C  0.93 -0.07 -0.05
 C  2.46  0.03 -0.00
 C  3.11 -0.74 -1.16
 C  2.89  1.47 -0.03
 N  3.54  1.97  0.95
 O  3.84  3.34  0.72
 H  0.46  0.45  0.80
 H  0.61 -1.12 -0.03
 H  0.53  0.37 -0.98
 H  2.82 -0.39  0.95
 H  2.81 -0.33 -2.13
 H  2.81 -1.80 -1.14
 H  4.21 -0.70 -1.10
 H  2.63  2.09 -0.91
 H  4.32  3.58  1.53
