22
set: 2080.00  0.00  0.00
 C  0.93  0.73  0.13
 C  2.42  0.55 -0.16
 C  3.21  1.86 -0.09
 C  4.71  1.69 -0.38
 C  5.49  3.01 -0.31
 C  6.98  2.84 -0.61
 N  7.69  4.12 -0.49
 H  0.39 -0.23  0.07
 H  0.46  1.42 -0.59
 H  0.77  1.14  1.14
 H  2.55  0.10 -1.16
 H  2.85 -0.17  0.56
 H  3.08  2.32  0.91
 H  2.78  2.58 -0.81
 H  4.83  1.24 -1.37
 H  5.13  0.98  0.35
 H  5.39  3.47  0.68
 H  5.06  3.72 -1.03
 H  7.10  2.36 -1.61
 H  7.42  2.15  0.12
 H  7.35  4.77 -1.21
 H  8.69  3.99 -0.67
