17
set: 5740.00  0.00  0.00
 C  0.91 -0.21 -0.26
 N  2.32 -0.08  0.12
 C  2.85  1.26 -0.17
 C  4.27  1.37  0.31
 N  5.19  1.66 -0.54
 O  6.45  1.73  0.09
 C  7.43  2.04 -0.91
 H  0.58 -1.24 -0.09
 H  0.69  0.06 -1.31
 H  0.30  0.44  0.39
 H  2.87 -0.77 -0.39
 H  2.23  1.98  0.39
 H  2.80  1.55 -1.24
 H  4.49  1.18  1.37
 H  8.38  2.10 -0.36
 H  7.21  3.00 -1.39
 H  7.49  1.24 -1.67
