13
set: 7127.00  0.00  0.00
 N  0.82  0.27 -0.00
 C  2.22  0.09 -0.04
 C  3.14  1.13 -0.03
 N  2.77  2.48 -0.06
 C  4.50  0.67 -0.05
 C  4.60 -0.70 -0.08
 S  3.05 -1.47 -0.11
 H  0.36  0.08 -0.90
 H  0.37 -0.28  0.72
 H  3.35  3.08  0.52
 H  1.78  2.59  0.17
 H  5.36  1.33 -0.05
 H  5.50 -1.31 -0.09
