16
set: 2978.00  0.00  0.00
 N  0.92  0.01 -0.01
 C  2.39 -0.03 -0.04
 C  2.95  1.40 -0.01
 C  4.40  1.45 -0.00
 C  5.62  1.49  0.00
 C  7.04  1.49  0.01
 C  7.81  2.60 -0.00
 H  0.54 -0.93  0.11
 H  0.56  0.34 -0.91
 H  2.82 -0.57 -0.91
 H  2.73 -0.56  0.86
 H  2.54  1.92  0.87
 H  2.57  1.96 -0.89
 H  7.52  0.51  0.02
 H  7.38  3.60 -0.02
 H  8.90  2.52  0.00
