17
set: 3952.00  0.00  0.00
 C  0.91  0.04 -0.41
 C  2.07  0.26  0.54
 O  2.21 -0.41  1.56
 C  3.02  1.38  0.18
 C  2.55  2.83  0.57
 C  4.01  3.13  1.00
 C  4.29  1.60  1.04
 H  1.29 -0.41 -1.34
 H  0.44  0.99 -0.69
 H  0.17 -0.64  0.03
 H  3.24  1.35 -0.90
 H  1.87  2.80  1.44
 H  2.10  3.45 -0.21
 H  4.57  3.63  0.19
 H  4.16  3.70  1.93
 H  5.24  1.24  0.63
 H  4.13  1.17  2.04
