15
set: 6989.00  0.00  0.00
 C  2.43 -0.66 -1.44
 C  2.45 -0.04 -0.03
 C  2.99  1.36  0.01
 C  2.31  2.55  0.11
 C  3.15  3.70  0.07
 C  4.48  3.38 -0.07
 S  4.71  1.67 -0.15
 H  2.01 -1.68 -1.41
 H  3.45 -0.72 -1.85
 H  1.83 -0.06 -2.12
 H  3.03 -0.69  0.65
 H  1.43 -0.01  0.37
 H  1.22  2.59  0.22
 H  2.78  4.73  0.14
 H  5.33  4.05 -0.13
