15
set: 4042.00  0.00  0.00
 C  1.12 -0.41  0.36
 C  2.43  0.17 -0.17
 O  2.94 -0.76 -1.13
 C  2.21  1.55 -0.77
 C  2.10  1.79 -2.09
 C  2.12  2.71  0.16
 O  2.22  2.64  1.37
 H  0.68  0.25  1.12
 H  1.31 -1.39  0.82
 H  0.40 -0.54 -0.46
 H  3.13  0.28  0.67
 H  3.85 -0.49 -1.36
 H  2.17  0.99 -2.82
 H  1.93  2.81 -2.45
 H  1.95  3.69 -0.35
