17
set: 3296.00  0.00  0.00
 C  0.95  0.07  0.15
 C  2.46  0.02 -0.05
 C  2.98 -1.33 -0.58
 C  2.73 -1.46 -2.08
 O  3.27 -0.32 -2.78
 C  2.67  0.86 -2.28
 O  2.94  1.09 -0.91
 H  0.65  1.08  0.48
 H  0.65 -0.65  0.93
 H  0.38 -0.18 -0.76
 H  2.95  0.23  0.91
 H  2.51 -2.16 -0.04
 H  4.07 -1.38 -0.40
 H  3.24 -2.34 -2.50
 H  1.65 -1.55 -2.31
 H  3.12  1.70 -2.82
 H  1.58  0.82 -2.46
