13
set: 2528.00  0.00  0.00
 C  1.12 -0.07 -0.03
 C  2.43 -0.24  0.20
 N  3.41  0.71 -0.04
 C  4.79  0.55  0.20
 N  5.42 -0.46  0.67
 C  5.53  1.74 -0.16
 C  6.12  2.75 -0.48
 H  0.42 -0.87  0.19
 H  0.72  0.86 -0.44
 H  2.80 -1.18  0.61
 H  3.12  1.61 -0.42
 H  4.79 -1.25  0.88
 H  6.67  3.63 -0.74
