17
set: 1243.00  0.00  0.00
 C  1.00 -0.02 -0.51
 C  2.28 -0.02  0.29
 C  3.52  0.75 -0.10
 C  3.68  1.21 -1.56
 C  3.74 -0.08 -2.35
 C  3.69 -1.15 -1.55
 C  3.55 -0.78 -0.11
 H  0.44  0.91 -0.35
 H  0.36 -0.86 -0.22
 H  1.19 -0.11 -1.59
 H  2.12 -0.03  1.37
 H  4.04  1.31  0.68
 H  4.60  1.81 -1.69
 H  2.85  1.86 -1.89
 H  3.78 -0.10 -3.44
 H  3.72 -2.19 -1.89
 H  4.07 -1.36  0.65
