16
set: 527.00  0.00  0.00
 C  1.08  0.33 -0.63
 C  2.53  0.18 -0.26
 N  3.25  1.24 -0.07
 N  4.54  1.14  0.36
 C  5.23 -0.15  0.30
 C  5.34  2.29 -0.04
 H  0.86 -0.20 -1.57
 H  0.83  1.39 -0.76
 H  0.43 -0.10  0.14
 H  2.91 -0.84 -0.13
 H  4.74 -0.87  0.97
 H  6.26 -0.01  0.63
 H  5.23 -0.57 -0.73
 H  4.72  3.19  0.10
 H  5.66  2.25 -1.10
 H  6.23  2.36  0.60
