19
set: 3932.00  0.00  0.00
 C  1.05 -0.27 -0.34
 C  2.55 -0.17 -0.07
 C  3.08  1.27 -0.07
 O  2.41  2.08  0.93
 C  4.60  1.34  0.09
 C  5.17  2.76 -0.02
 O  4.77  3.62  1.04
 H  0.70 -1.31 -0.29
 H  0.80  0.12 -1.34
 H  0.47  0.32  0.39
 H  3.11 -0.74 -0.82
 H  2.79 -0.63  0.91
 H  2.80  1.75 -1.02
 H  2.54  1.65  1.79
 H  5.07  0.72 -0.69
 H  4.89  0.91  1.07
 H  4.88  3.19 -1.01
 H  6.27  2.73  0.00
 H  3.80  3.50  1.13
