15
set: 2554.00  0.00  0.00
 C  1.46  3.19 -0.58
 C  2.67  2.45 -0.15
 N  3.85  2.86 -0.47
 N  4.85  2.01  0.03
 C  6.04  2.42 -0.30
 C  7.21  1.69  0.12
 C  8.46  2.08 -0.21
 H  0.87  3.51  0.30
 H  0.80  2.54 -1.18
 H  1.73  4.08 -1.17
 H  2.56  1.54  0.46
 H  6.16  3.33 -0.92
 H  7.04  0.80  0.72
 H  8.64  2.97 -0.81
 H  9.34  1.51  0.12
