16
set: 5746.00  0.00  0.00
 C  0.94  0.14 -0.01
 N  2.35  0.00 -0.38
 C  3.15  1.17 -0.03
 C  4.64  0.94 -0.24
 O  5.35  1.81 -0.74
 C  5.18 -0.37  0.24
 C  6.48 -0.69  0.09
 H  0.38 -0.74 -0.37
 H  0.45  1.05 -0.42
 H  0.85  0.17  1.08
 H  2.42 -0.16 -1.39
 H  3.01  1.36  1.05
 H  2.87  2.10 -0.56
 H  4.47 -1.05  0.70
 H  7.15  0.01 -0.41
 H  6.88 -1.63  0.45
