14
set: 2898.00  0.00  0.00
 N  0.97  0.04 -0.11
 C  2.14  0.02 -0.06
 C  3.61 -0.00  0.00
 C  4.17 -1.30  0.67
 C  4.55 -0.90  2.11
 C  4.64  0.60  2.05
 C  4.13  1.10  0.91
 H  3.97  0.11 -1.03
 H  5.07 -1.59  0.11
 H  3.46 -2.13  0.62
 H  5.49 -1.37  2.44
 H  3.78 -1.20  2.84
 H  5.04  1.21  2.86
 H  4.04  2.16  0.66
