16
set: 4805.00  0.00  0.00
 C  0.96 -0.34 -0.05
 C  2.44 -0.34 -0.30
 N  2.98 -0.18 -1.68
 C  3.15  0.91 -0.69
 C  4.57  1.20 -0.27
 C  4.71  1.93  1.04
 O  3.79  2.31  1.74
 H  0.75 -0.16  1.02
 H  0.51 -1.30 -0.32
 H  0.45  0.45 -0.63
 H  3.01 -1.07  0.28
 H  2.20  0.05 -2.31
 H  2.51  1.80 -0.80
 H  5.10  1.79 -1.04
 H  5.15  0.26 -0.21
 H  5.77  2.12  1.35
