17
set: 2847.00  0.00  0.00
 N  1.47  0.13  0.89
 C  2.58 -0.19 -0.01
 C  2.36 -1.56 -0.71
 C  3.13 -1.51 -2.04
 C  3.15 -0.03 -2.40
 N  1.81  0.62 -2.25
 C  2.84  0.76 -1.18
 H  0.63  0.30  0.31
 H  1.65  1.00  1.38
 H  3.50 -0.23  0.60
 H  1.28 -1.67 -0.91
 H  2.66 -2.40 -0.06
 H  4.17 -1.85 -1.91
 H  2.67 -2.13 -2.82
 H  3.82  0.34 -3.17
 H  1.81  1.48 -2.81
 H  3.29  1.74 -1.00
