15
set: 1127.00  0.00  0.00
 O  2.25 -0.43 -1.35
 C  2.34  0.06 -0.01
 C  3.13  1.36 -0.05
 C  2.44  2.65 -0.56
 C  3.07  3.35  0.66
 N  3.28  2.01  1.29
 H  1.70 -1.23 -1.34
 H  2.86 -0.66  0.65
 H  1.34  0.26  0.42
 H  4.09  1.18 -0.57
 H  1.35  2.58 -0.50
 H  2.73  3.01 -1.56
 H  4.00  3.88  0.40
 H  2.43  4.03  1.25
 H  4.19  1.88  1.73
