20
set: 234.00  0.00  0.00
 C  0.96 -0.10  0.01
 C  2.49 -0.00 -0.02
 C  3.03 -0.81 -1.22
 C  2.99  1.47 -0.03
 C  2.45  2.27  1.16
 C  4.52  1.57 -0.06
 H  0.53  0.34  0.91
 H  0.64 -1.16 -0.02
 H  0.52  0.40 -0.86
 H  2.88 -0.47  0.90
 H  2.72 -0.35 -2.17
 H  2.63 -1.83 -1.20
 H  4.13 -0.88 -1.22
 H  2.60  1.93 -0.96
 H  2.76  1.81  2.11
 H  1.36  2.34  1.16
 H  2.85  3.29  1.15
 H  4.96  1.06  0.81
 H  4.84  2.62 -0.03
 H  4.95  1.12 -0.97
