18
set: 1547.00  0.00  0.00
 C -1.66  0.63  0.27
 C -1.60 -0.86 -0.26
 C -0.11 -0.81  0.19
 N  1.19 -1.31 -0.28
 C  2.08 -0.19  0.23
 C  1.20  1.11  0.56
 C -0.13  0.69 -0.05
 H -2.31  1.33 -0.26
 H -1.87  0.66  1.35
 H -1.71 -0.89 -1.35
 H -2.26 -1.61  0.20
 H -0.13 -0.97  1.29
 H  1.19 -1.26 -1.30
 H  2.58 -0.54  1.14
 H  2.85  0.02 -0.52
 H  1.13  1.24  1.65
 H  1.64  2.02  0.13
 H -0.06  0.82 -1.15
