20
set: 2694.00  0.00  0.00
 C  1.57  0.42 -1.48
 N  3.01  0.51 -1.27
 C  3.36  1.23 -0.05
 C  4.86  1.30  0.15
 C  5.53 -0.03  0.38
 C  5.49  2.49  0.12
 C  6.95  2.77  0.30
 H  1.36 -0.06 -2.44
 H  1.04  1.40 -1.46
 H  1.12 -0.21 -0.69
 H  3.44  0.99 -2.07
 H  2.90  0.68  0.79
 H  2.94  2.26 -0.02
 H  5.22 -0.46  1.34
 H  6.63  0.03  0.37
 H  5.22 -0.75 -0.40
 H  4.86  3.37 -0.05
 H  7.54  1.87  0.49
 H  7.11  3.46  1.15
 H  7.36  3.28 -0.59
