15
set: 2442.00  0.00  0.00
 C  2.41 -0.49 -1.42
 C  2.45  0.07 -0.00
 N  2.94  1.44  0.04
 C  2.21  2.60  0.05
 C  3.12  3.64  0.00
 C  4.38  3.01 -0.04
 N  4.28  1.68 -0.02
 H  2.05 -1.53 -1.40
 H  3.41 -0.47 -1.87
 H  1.73  0.09 -2.06
 H  3.11 -0.53  0.64
 H  1.45  0.07  0.45
 H  1.13  2.58  0.09
 H  2.90  4.71  0.01
 H  5.37  3.47 -0.07
