17
set: 3348.00  0.00  0.00
 C  0.99  0.04  0.03
 C  2.49 -0.01 -0.04
 C  3.21  1.08 -0.36
 O  4.58  1.16 -0.42
 C  5.26  0.04  0.18
 C  4.64 -1.29 -0.24
 C  3.17 -1.34  0.21
 H  0.53 -0.66 -0.68
 H  0.61  1.05 -0.18
 H  0.63 -0.25  1.03
 H  2.76  2.04 -0.61
 H  6.31  0.12 -0.14
 H  5.21  0.15  1.28
 H  5.22 -2.12  0.20
 H  4.71 -1.38 -1.33
 H  3.10 -1.61  1.28
 H  2.64 -2.13 -0.34
