17
set: 5172.00  0.00  0.00
 C  3.33 -1.17  0.02
 C  2.83  0.05  0.80
 C  3.20  1.41  0.19
 N  2.48  2.57  0.74
 C  4.67  1.76  0.26
 N  5.49  1.05  0.95
 O  6.80  1.59  0.90
 H  2.96 -2.10  0.47
 H  4.42 -1.21  0.01
 H  2.98 -1.14 -1.02
 H  3.20  0.01  1.84
 H  1.73  0.02  0.86
 H  2.95  1.38 -0.89
 H  2.64  2.62  1.75
 H  1.48  2.45  0.59
 H  5.00  2.66 -0.27
 H  7.29  0.97  1.46
