13
set: 446.00  0.00  0.00
 C  0.85 -0.25 -0.11
 C  2.36 -0.03  0.13
 C  2.74  1.41  0.09
 C  3.33  2.07  1.11
 C  3.68  3.45  1.05
 N  3.98  4.58  1.03
 H  0.61 -1.32 -0.12
 H  0.54  0.18 -1.08
 H  0.26  0.24  0.67
 H  2.92 -0.56 -0.66
 H  2.66 -0.48  1.09
 H  2.52  1.96 -0.83
 H  3.57  1.56  2.05
