18
set: 5604.00  0.00  0.00
 C  1.18 -0.08 -0.19
 N  2.59 -0.13  0.16
 C  3.07  1.07  0.86
 C  4.41  0.63  1.49
 C  4.44 -0.91  1.31
 O  5.25 -1.31  0.20
 C  2.96 -1.23  1.05
 H  0.89 -1.01 -0.70
 H  0.99  0.76 -0.87
 H  0.52  0.05  0.70
 H  2.35  1.38  1.65
 H  3.17  1.91  0.15
 H  5.29  1.07  0.99
 H  4.46  0.91  2.55
 H  4.85 -1.43  2.18
 H  4.78 -0.97 -0.59
 H  2.82 -2.21  0.57
 H  2.39 -1.21  2.01
