13
set: 6914.00  0.00  0.00
 C  0.91  0.05  0.01
 C  2.41  0.02  0.01
 C  3.29  1.07 -0.06
 C  4.65  0.62 -0.05
 N  5.75  1.47 -0.18
 N  4.84 -0.70  0.02
 S  3.33 -1.45  0.07
 H  0.55  1.08  0.04
 H  0.50 -0.48  0.88
 H  0.50 -0.43 -0.89
 H  2.99  2.12 -0.12
 H  5.64  2.37  0.27
 H  6.62  1.01  0.07
