15
set: 5708.00  0.00  0.00
 C  0.80  2.10 -0.67
 N  2.09  1.60 -0.27
 C  3.06  2.45 -0.21
 C  4.41  2.06  0.15
 C  5.42  2.96  0.21
 N  6.69  2.68  0.71
 O  7.72  3.39 -0.01
 H  0.06  1.88  0.12
 H  0.46  1.56 -1.57
 H  0.78  3.19 -0.88
 H  2.91  3.52 -0.46
 H  4.57  1.00  0.39
 H  5.27  4.01 -0.05
 H  6.93  1.69  0.68
 H  8.19  3.85  0.71
