16
set: 5961.00  0.00  0.00
 C  3.57 -1.25  0.34
 O  3.06  0.01  0.77
 C  3.39  1.07 -0.14
 C  4.85  1.44 -0.10
 C  5.48  1.86  1.19
 N  5.46  1.38 -1.24
 O  6.81  1.80 -1.13
 H  3.22 -1.99  1.08
 H  4.67 -1.27  0.31
 H  3.18 -1.52 -0.65
 H  2.78  1.92  0.19
 H  3.10  0.81 -1.17
 H  4.82  1.60  2.04
 H  5.66  2.94  1.20
 H  6.46  1.38  1.32
 H  7.12  1.69 -2.04
