13
set: 964.00  0.00  0.00
 C  0.61  1.33 -0.03
 N -0.78  1.39 -0.52
 C -1.44  0.15 -0.06
 C -0.34 -0.88  0.10
 O  0.56 -0.94 -1.04
 C  0.94 -0.15  0.12
 H  1.28  1.86 -0.73
 H  0.70  1.81  0.96
 H -0.75  1.34 -1.54
 H -1.92  0.31  0.93
 H -2.23 -0.15 -0.77
 H -0.49 -1.82  0.63
 H  1.82 -0.50  0.66
