19
set: 1451.00  0.00  0.00
 C  0.96 -0.00 -0.00
 C  2.41 -0.00 -0.00
 C  3.63 -0.00 -0.00
 C  5.10  0.00  0.00
 C  5.61 -0.72  1.27
 C  5.62 -0.74 -1.25
 C  5.61  1.46 -0.01
 H  0.56  1.03  0.01
 H  0.56 -0.52  0.88
 H  0.56 -0.50 -0.89
 H  5.26 -0.21  2.18
 H  6.71 -0.73  1.29
 H  5.26 -1.76  1.30
 H  5.26 -0.25 -2.17
 H  5.26 -1.78 -1.26
 H  6.72 -0.75 -1.27
 H  5.26  1.99 -0.91
 H  6.72  1.47 -0.01
 H  5.25  2.01  0.87
