17
set: 3603.00  0.00  0.00
 C  0.92  2.83  0.45
 C  2.29  2.34  0.79
 C  3.39  2.52  0.04
 C  4.71  2.03  0.40
 C  5.83  2.22 -0.33
 C  7.18  1.69  0.05
 O  7.71  0.79 -0.94
 H  0.53  3.50  1.23
 H  0.20  2.00  0.37
 H  0.91  3.37 -0.51
 H  2.39  1.79  1.74
 H  3.31  3.08 -0.90
 H  4.79  1.48  1.34
 H  5.78  2.77 -1.28
 H  7.13  1.21  1.05
 H  7.92  2.51  0.11
 H  7.02  0.11 -1.10
