13
set: 2730.00  0.00  0.00
 C  1.00 -0.02 -0.00
 N  2.46 -0.01  0.09
 C  2.99  1.35  0.02
 C  4.45  1.37  0.02
 C  5.67  1.39 -0.01
 C  7.03  1.41 -0.04
 N  8.20  1.42 -0.07
 H  0.65 -1.06 -0.02
 H  0.59  0.51 -0.89
 H  0.57  0.46  0.90
 H  2.86 -0.56 -0.67
 H  2.64  1.91  0.91
 H  2.64  1.93 -0.86
