14
set: 766.00  0.00  0.00
 C  0.97 -0.08  0.01
 C  2.51 -0.01  0.00
 C  3.01  1.36 -0.01
 C  3.39  2.51 -0.02
 C  3.89  3.88 -0.02
 O  2.86  4.78 -0.47
 H  0.64 -1.13  0.01
 H  0.56  0.41 -0.88
 H  0.56  0.41  0.90
 H  2.90 -0.55 -0.88
 H  2.91 -0.54  0.89
 H  4.78  3.94 -0.68
 H  4.22  4.15  1.00
 H  3.23  5.67 -0.45
