18
set: 5671.00  0.00  0.00
 C  1.45 -0.09 -0.77
 N  2.87  0.20 -0.92
 C  3.50  0.63  0.33
 C  4.98  0.92  0.14
 C  5.80  1.10  1.43
 O  6.52 -0.14  1.21
 C  5.88 -0.32 -0.09
 H  1.02 -0.34 -1.75
 H  0.86  0.73 -0.32
 H  1.33 -0.98 -0.12
 H  2.99  0.94 -1.62
 H  3.38 -0.19  1.06
 H  3.00  1.52  0.79
 H  5.12  1.72 -0.60
 H  5.22  1.08  2.37
 H  6.47  1.97  1.44
 H  6.60 -0.23 -0.91
 H  5.35 -1.28 -0.16
