14
set: 462.00  0.00  0.00
 C  1.05  0.02  0.04
 C  2.56  0.04  0.09
 C  3.23 -1.26  0.05
 C  4.42 -1.61  0.60
 N  3.12  1.22  0.09
 N  4.48  1.33  0.17
 H  0.67  1.05  0.01
 H  0.63 -0.49  0.91
 H  0.69 -0.51 -0.86
 H  2.67 -2.04 -0.47
 H  5.01 -0.94  1.21
 H  4.79 -2.64  0.49
 H  4.77  2.22 -0.25
 H  5.02  0.53 -0.18
