15
set: 6228.00  0.00  0.00
 N  2.45 -0.35  1.48
 C  2.52  0.04  0.06
 C  2.92  1.48 -0.09
 N  3.92  1.81 -0.84
 O  4.10  3.20 -0.81
 C  2.99  3.81 -0.07
 C  2.27  2.64  0.61
 H  2.44 -1.37  1.55
 H  1.57 -0.03  1.89
 H  1.56 -0.12 -0.49
 H  3.28 -0.57 -0.44
 H  2.34  4.33 -0.80
 H  3.42  4.54  0.62
 H  1.18  2.66  0.47
 H  2.47  2.58  1.69
