15
set: 4491.00  0.00  0.00
 O  0.30 -0.71  0.26
 C  1.68 -0.96  0.44
 C  2.40 -1.22 -0.91
 C  1.86 -2.43 -1.61
 C  2.59 -3.48 -1.99
 C  2.34  0.18  1.18
 O  1.71  1.17  1.53
 H  0.15  0.17  0.68
 H  1.82 -1.86  1.08
 H  3.48 -1.34 -0.73
 H  2.26 -0.33 -1.53
 H  0.78 -2.42 -1.81
 H  3.67 -3.52 -1.80
 H  2.15 -4.33 -2.50
 H  3.43  0.08  1.38
