13
set: 142.00  0.00  0.00
 C  0.91 -0.01  0.04
 C  2.43  0.02  0.02
 C  3.17  1.02  0.94
 O  4.02 -0.03  1.48
 C  3.21 -1.05  0.82
 H  0.53 -0.87 -0.52
 H  0.49  0.90 -0.42
 H  0.53 -0.08  1.07
 H  2.81  0.08 -1.01
 H  2.52  1.46  1.72
 H  3.76  1.82  0.46
 H  3.82 -1.76  0.26
 H  2.58 -1.59  1.55
