16
set: 4625.00  0.00  0.00
 C  0.89  0.04 -0.18
 C  2.38 -0.09  0.01
 C  3.24 -0.84 -0.98
 C  3.34  0.66 -0.88
 N  4.54  1.23 -0.33
 C  4.55  2.23  0.61
 O  5.55  2.82  0.99
 H  0.49  0.92  0.35
 H  0.36 -0.85  0.19
 H  0.64  0.16 -1.25
 H  2.71 -0.17  1.05
 H  2.76 -1.26 -1.86
 H  4.07 -1.42 -0.59
 H  2.89  1.23 -1.71
 H  5.43  1.05 -0.79
 H  3.53  2.44  1.01
