17
set: 1240.00  0.00  0.00
 C  0.81  0.03 -0.55
 C  2.12 -0.09  0.20
 C  2.58 -1.41  0.93
 C  3.96 -0.68  0.89
 C  3.52 -0.15 -0.52
 C  3.65  0.55  1.75
 C  2.44  0.94  1.30
 H -0.05 -0.05  0.13
 H  0.71 -0.77 -1.31
 H  0.73  0.99 -1.07
 H  2.53 -2.29  0.27
 H  2.14 -1.62  1.91
 H  4.91 -1.21  1.05
 H  3.95  0.80 -0.86
 H  3.56 -0.92 -1.30
 H  4.28  0.98  2.53
 H  1.81  1.77  1.61
