16
set: 5058.00  0.00  0.00
 C  2.63 -1.14  0.95
 C  3.11 -0.31 -0.25
 C  3.15  1.17  0.04
 C  4.27  1.91 -0.02
 N  4.34  3.28  0.25
 C  5.49  4.03  0.19
 O  5.54  5.23  0.44
 H  2.58 -2.21  0.70
 H  1.64 -0.82  1.29
 H  3.32 -1.03  1.80
 H  2.42 -0.49 -1.10
 H  4.10 -0.65 -0.57
 H  2.21  1.64  0.33
 H  5.23  1.46 -0.30
 H  3.50  3.78  0.52
 H  6.38  3.43 -0.11
