18
set: 5114.00  0.00  0.00
 C  2.40 -1.05 -0.37
 C  1.99  0.05  0.61
 C  2.67  1.39  0.35
 C  2.16  2.51  1.25
 O  4.10  1.17  0.58
 N  4.84  2.19 -0.03
 C  6.09  2.06  0.21
 H  1.87 -1.99 -0.15
 H  3.48 -1.25 -0.32
 H  2.15 -0.77 -1.41
 H  2.21 -0.26  1.64
 H  0.90  0.22  0.56
 H  2.56  1.67 -0.71
 H  2.27  2.24  2.31
 H  1.10  2.71  1.05
 H  2.73  3.43  1.06
 H  6.74  2.81 -0.25
 H  6.51  1.26  0.82
