13
set: 6365.00  0.00  0.00
 N  3.34 -1.34  0.02
 C  2.55 -0.20 -0.09
 N  1.25 -0.16 -0.12
 C  3.24  1.10 -0.11
 C  4.56  1.33  0.09
 C  5.10  2.69  0.03
 O  6.28  2.97  0.20
 H  4.29 -1.28 -0.34
 H  2.89 -2.22 -0.17
 H  0.84 -1.10 -0.08
 H  2.57  1.94 -0.31
 H  5.27  0.54  0.33
 H  4.34  3.49 -0.18
