17
set: 3265.00  0.00  0.00
 C  0.94  0.03 -0.02
 C  2.47  0.04  0.03
 C  3.09  1.17  0.87
 C  4.47  0.60  1.19
 O  4.27 -0.83  1.31
 C  3.10 -1.19  0.65
 C  2.68 -2.46  0.62
 H  0.56 -0.80 -0.63
 H  0.56  0.97 -0.45
 H  0.52 -0.07  1.00
 H  2.86  0.13 -1.00
 H  2.51  1.31  1.79
 H  3.14  2.13  0.34
 H  5.19  0.79  0.38
 H  4.90  0.95  2.14
 H  1.75 -2.71  0.11
 H  3.24 -3.26  1.10
