13
set: 1032.00  0.00  0.00
 C  1.01 -0.03 -0.01
 C  2.51 -0.04  0.03
 N  3.06 -1.29  0.12
 C  3.23  1.13  0.03
 C  4.67  1.23  0.03
 O  5.31  2.29  0.03
 H  0.62  1.00 -0.05
 H  0.59 -0.53  0.88
 H  0.64 -0.57 -0.90
 H  2.49 -2.09 -0.14
 H  4.06 -1.41  0.01
 H  2.68  2.07  0.02
 H  5.23  0.26  0.02
