16
set: 5181.00  0.00  0.00
 C  2.64  0.07  1.81
 C  3.66  0.64  0.83
 C  3.08  0.95 -0.56
 N  2.10  2.07 -0.60
 C  4.20  1.23 -1.59
 O  3.92  2.27 -2.40
 O  5.21  0.56 -1.68
 H  3.10 -0.13  2.78
 H  2.22 -0.88  1.44
 H  1.80  0.76  1.98
 H  4.49 -0.07  0.68
 H  4.11  1.56  1.23
 H  2.57  0.05 -0.94
 H  2.27  2.71  0.18
 H  1.14  1.73 -0.51
 H  3.04  2.60 -2.05
