19
set: 1880.00  0.00  0.00
 C  0.99  0.21  0.34
 C  2.41 -0.16 -0.06
 N  3.48  0.79  0.37
 C  3.88 -0.13  1.47
 C  3.07 -1.27  0.80
 C  3.90 -2.28  0.02
 N  4.57 -3.22  0.94
 H  0.28 -0.59  0.06
 H  0.66  1.13 -0.17
 H  0.91  0.37  1.42
 H  2.45 -0.35 -1.15
 H  3.12  1.70  0.68
 H  4.97 -0.27  1.55
 H  3.50  0.14  2.47
 H  2.39 -1.80  1.48
 H  4.58 -1.73 -0.66
 H  3.22 -2.87 -0.62
 H  5.28 -2.72  1.48
 H  5.08 -3.92  0.39
