14
set: 5817.00  0.00  0.00
 C  1.07 -0.04 -0.74
 N  2.52 -0.07 -0.73
 C  3.24  0.35  0.34
 O  2.77  0.77  1.40
 C  4.77  0.22  0.10
 C  5.64  0.66  1.23
 O  5.19 -0.21 -0.97
 H  0.71 -0.47 -1.68
 H  0.69  0.99 -0.65
 H  0.66 -0.62  0.10
 H  3.06 -0.39 -1.53
 H  5.36  0.12  2.15
 H  5.45  1.72  1.45
 H  6.69  0.50  0.98
