23
set: 1221.00  0.00  0.00
 C  2.00 -1.25  0.36
 C  3.41 -0.86 -0.09
 C  3.66 -1.30 -1.54
 C  3.64  0.64  0.13
 C  5.03  1.21 -0.20
 C  5.04  2.73  0.01
 C  6.14  0.54  0.62
 H  1.81 -0.97  1.40
 H  1.83 -2.33  0.26
 H  1.24 -0.74 -0.26
 H  4.12 -1.41  0.56
 H  3.00 -0.75 -2.23
 H  3.46 -2.37 -1.66
 H  4.70 -1.11 -1.85
 H  3.41  0.89  1.18
 H  2.89  1.19 -0.48
 H  5.24  1.02 -1.27
 H  4.86  2.98  1.06
 H  4.27  3.22 -0.60
 H  6.02  3.16 -0.27
 H  5.97  0.68  1.70
 H  7.12  0.99  0.38
 H  6.22 -0.54  0.42
