18
set: 5075.00  0.00  0.00
 C  2.33 -0.56  1.52
 C  2.57 -0.08  0.08
 C  2.73  1.42 -0.03
 C  1.58  2.33  0.29
 N  3.90  1.83 -0.39
 O  3.95  3.25 -0.45
 C  5.26  3.63 -0.87
 H  2.18 -1.64  1.54
 H  1.43 -0.09  1.96
 H  3.19 -0.31  2.16
 H  1.71 -0.38 -0.55
 H  3.47 -0.55 -0.33
 H  0.67  1.76  0.49
 H  1.40  3.02 -0.55
 H  1.81  2.96  1.16
 H  5.25  4.73 -0.91
 H  5.48  3.22 -1.87
 H  6.03  3.29 -0.16
