15
set: 4205.00  0.00  0.00
 C  4.28 -0.41  1.52
 O  3.87  0.91  1.89
 C  3.11  1.54  0.87
 C  2.46  2.80  1.40
 C  2.70  3.33  2.60
 C  4.02  1.99 -0.28
 O  3.70  2.03 -1.45
 H  4.85 -0.80  2.37
 H  4.92 -0.41  0.62
 H  3.41 -1.06  1.33
 H  2.33  0.87  0.46
 H  1.78  3.28  0.69
 H  3.38  2.84  3.31
 H  2.21  4.24  2.92
 H  5.04  2.31  0.07
