18
set: 5682.00  0.00  0.00
 C  0.88 -0.43 -0.18
 N  2.31 -0.25 -0.40
 C  2.75 -0.97 -1.59
 C  2.66  1.17 -0.49
 C  4.16  1.46 -0.34
 C  4.90  0.69  0.73
 O  4.69  2.32 -1.01
 H  0.57  0.08  0.74
 H  0.66 -1.50 -0.07
 H  0.25 -0.03 -1.02
 H  2.53 -2.04 -1.47
 H  3.84 -0.86 -1.72
 H  2.26 -0.61 -2.52
 H  2.16  1.70  0.34
 H  2.32  1.65 -1.44
 H  4.54  1.01  1.72
 H  5.98  0.88  0.65
 H  4.68 -0.39  0.67
