13
set: 7200.00  0.00  0.00
 O  0.85  0.01  0.40
 S  2.23  0.04 -0.11
 O  2.51  0.12 -1.55
 C  3.19  1.33  0.80
 C  4.40  0.56  1.32
 O  3.93 -0.75  1.73
 C  3.26 -1.33  0.64
 H  2.54  1.69  1.61
 H  3.43  2.12  0.09
 H  5.17  0.46  0.54
 H  4.84  1.02  2.21
 H  3.93 -1.67 -0.16
 H  2.59 -2.12  1.00
