14
set: 2011.00  0.00  0.00
 C  0.93  0.05 -0.11
 C  2.14 -0.01 -0.04
 C  3.61 -0.02  0.04
 N  4.14 -1.25  0.69
 C  4.68 -0.86  2.02
 C  4.72  0.65  1.99
 C  4.13  1.12  0.89
 H -0.14  0.08 -0.16
 H  3.99  0.04 -1.00
 H  4.91 -1.61  0.12
 H  5.67 -1.32  2.19
 H  4.02 -1.21  2.83
 H  5.13  1.25  2.81
 H  3.96  2.17  0.64
