18
set: 2606.00  0.00  0.00
 C  0.96  0.02 -0.48
 N  2.28 -0.00  0.15
 C  3.09  1.18 -0.18
 C  3.48  1.26 -1.67
 C  3.96 -0.07 -2.17
 C  3.75 -1.20 -1.48
 C  3.02 -1.23 -0.16
 H  0.45  0.96 -0.20
 H  0.36 -0.81 -0.09
 H  0.97 -0.05 -1.58
 H  4.00  1.14  0.43
 H  2.53  2.08  0.13
 H  4.27  2.02 -1.80
 H  2.63  1.61 -2.28
 H  4.48 -0.10 -3.13
 H  4.14 -2.16 -1.86
 H  2.32 -2.08 -0.13
 H  3.75 -1.42  0.66
