18
set: 1716.00  0.00  0.00
 C  0.98  0.02  0.03
 C  2.48 -0.02 -0.03
 C  3.26 -1.11 -0.09
 C  4.72 -0.76 -0.07
 C  4.74  0.77 -0.37
 N  4.96  1.12 -1.78
 C  3.32  1.23  0.04
 H  0.54 -0.98 -0.02
 H  0.57  0.62 -0.81
 H  0.63  0.51  0.95
 H  2.89 -2.14 -0.12
 H  5.16 -0.98  0.93
 H  5.33 -1.32 -0.80
 H  5.51  1.28  0.21
 H  4.26  0.64 -2.36
 H  5.87  0.75 -2.09
 H  2.96  2.04 -0.63
 H  3.31  1.65  1.06
