19
set: 1882.00  0.00  0.00
 C  1.02 -0.02 -0.18
 C  2.53  0.01 -0.02
 N  3.03 -0.13  1.33
 C  3.41 -0.63 -1.08
 C  3.43  0.87 -0.94
 C  2.84  1.73 -2.04
 N  4.64  1.46 -0.40
 H  0.70  0.07 -1.23
 H  0.54  0.79  0.38
 H  0.62 -0.98  0.19
 H  2.84 -1.07  1.68
 H  2.54  0.52  1.96
 H  2.93 -1.07 -1.96
 H  4.29 -1.17 -0.72
 H  1.98  1.25 -2.53
 H  3.60  1.91 -2.81
 H  2.50  2.70 -1.65
 H  4.86  0.97  0.48
 H  4.45  2.43 -0.13
