16
set: 6055.00  0.00  0.00
 N  1.07 -0.03  0.02
 C  2.53 -0.02  0.01
 C  3.16 -0.97 -1.04
 C  4.67 -0.77 -0.83
 C  4.66  0.80 -0.79
 C  3.14  0.98 -1.00
 O  2.86  0.03 -2.08
 H  0.72  0.77  0.55
 H  0.73 -0.87  0.50
 H  3.01 -0.04  1.01
 H  2.76 -1.97 -1.26
 H  5.04 -1.23  0.10
 H  5.25 -1.17 -1.67
 H  5.23  1.25 -1.61
 H  5.02  1.21  0.16
 H  2.73  1.99 -1.16
