15
set: 406.00  0.00  0.00
 C  0.98 -0.33 -0.17
 C  1.67  0.59  0.52
 C  2.75  1.44 -0.05
 C  2.62  2.96  0.30
 N  3.56  2.76  1.44
 C  4.05  1.50  0.81
 H  0.20 -0.93  0.30
 H  1.18 -0.52 -1.23
 H  1.45  0.75  1.58
 H  2.91  1.22 -1.12
 H  1.63  3.32  0.59
 H  3.02  3.59 -0.52
 H  4.26  3.49  1.56
 H  4.95  1.62  0.18
 H  4.22  0.67  1.52
