17
set: 1367.00  0.00  0.00
 C  1.47  0.93  1.76
 C  2.15  0.75  0.62
 C  3.11  1.74  0.02
 C  4.49  1.17 -0.19
 C  5.62  1.66  0.35
 C  6.94  1.08  0.14
 C  8.08  1.57  0.67
 H  0.79  0.18  2.14
 H  1.58  1.85  2.35
 H  2.02 -0.18  0.06
 H  3.17  2.65  0.65
 H  2.72  2.06 -0.96
 H  4.55  0.27 -0.81
 H  5.57  2.55  0.98
 H  6.98  0.19 -0.50
 H  8.07  2.45  1.31
 H  9.04  1.09  0.48
