14
set: 762.00  0.00  0.00
 C  1.06 -0.37 -0.10
 C  2.49  0.14  0.14
 C  2.60  1.64  0.05
 C  3.14  2.31 -0.98
 C  2.09  2.45  1.18
 O  1.62  1.99  2.21
 H  1.03 -1.47 -0.03
 H  0.69 -0.07 -1.09
 H  0.38  0.03  0.66
 H  3.18 -0.32 -0.59
 H  2.82 -0.18  1.14
 H  3.57  1.80 -1.85
 H  3.17  3.40 -0.98
 H  2.17  3.56  1.03
