21
set: 1501.00  0.00  0.00
 C  0.83  1.02 -1.33
 C  2.36  1.04 -1.30
 C  2.93  1.67 -0.01
 C  4.43  1.67  0.03
 C  5.27  2.72  0.04
 C  4.83  4.16  0.03
 C  6.76  2.52  0.06
 H  0.46  0.56 -2.26
 H  0.42  2.03 -1.26
 H  0.42  0.44 -0.48
 H  2.75  1.61 -2.16
 H  2.75  0.02 -1.40
 H  2.54  1.09  0.85
 H  2.52  2.69  0.11
 H  4.88  0.67  0.03
 H  3.75  4.29 -0.01
 H  5.27  4.69 -0.83
 H  5.20  4.68  0.93
 H  7.03  1.45  0.05
 H  7.21  2.98  0.95
 H  7.23  2.99 -0.82
