15
set: 386.00  0.00  0.00
 C  1.01 -0.09 -0.07
 C  2.52 -0.00 -0.04
 N  3.34 -0.62 -1.10
 C  3.27  0.86 -1.01
 C  4.51  1.58 -0.64
 C  5.70  1.00 -0.44
 H  0.56  0.65  0.60
 H  0.67 -1.09  0.25
 H  0.63  0.09 -1.09
 H  2.97 -0.11  0.95
 H  2.72 -0.94 -1.86
 H  2.63  1.37 -1.74
 H  4.41  2.66 -0.53
 H  5.82 -0.08 -0.56
 H  6.57  1.58 -0.15
