15
set: 5502.00  0.00  0.00
 C  3.27 -1.45  0.44
 C  2.58 -0.09  0.27
 O  1.35 -0.04  0.33
 C  3.35  1.12  0.05
 C  4.71  1.32 -0.02
 N  5.71  0.42  0.31
 N  5.23  2.54 -0.45
 H  3.82 -1.50  1.40
 H  3.96 -1.67 -0.38
 H  2.49 -2.22  0.46
 H  2.72  2.00 -0.08
 H  5.41 -0.53  0.49
 H  6.54  0.47 -0.28
 H  4.53  3.27 -0.58
 H  6.04  2.87  0.08
