19
set: 5397.00  0.00  0.00
 C  4.15 -1.30  0.95
 C  3.29 -0.63 -0.13
 N  1.84 -0.87  0.02
 C  3.49  0.90 -0.20
 O  3.12  1.47  1.05
 C  4.91  1.34 -0.56
 N  4.97  2.81 -0.46
 H  5.23 -1.20  0.75
 H  3.93 -2.38  0.99
 H  3.94 -0.86  1.94
 H  3.58 -1.03 -1.12
 H  1.53 -0.40  0.87
 H  1.68 -1.87  0.16
 H  2.80  1.26 -0.99
 H  3.55  2.36  1.03
 H  5.19  0.94 -1.56
 H  5.62  0.93  0.17
 H  4.55  3.24 -1.29
 H  5.94  3.13 -0.42
