16
set: 5699.00  0.00  0.00
 C  2.57 -0.48  1.17
 N  3.85 -1.10  0.81
 C  4.66 -0.25 -0.05
 C  6.01 -0.84 -0.36
 C  6.51 -1.95  0.21
 C  6.85 -0.13 -1.35
 O  6.52  0.90 -1.93
 H  1.97 -1.18  1.75
 H  1.97 -0.13  0.30
 H  2.76  0.40  1.81
 H  3.66 -1.98  0.32
 H  4.82  0.72  0.47
 H  4.17  0.02 -1.01
 H  5.96 -2.50  0.97
 H  7.51 -2.31 -0.07
 H  7.84 -0.61 -1.54
