16
set: 5319.00  0.00  0.00
 C  2.39 -0.45 -1.46
 C  2.41  0.11 -0.04
 N  3.23  1.32  0.05
 C  2.68  2.55 -0.59
 C  3.03  3.30  0.70
 O  3.08  4.46  1.03
 C  3.29  1.96  1.39
 H  1.79 -1.37 -1.51
 H  3.41 -0.68 -1.80
 H  1.96  0.27 -2.17
 H  2.85 -0.64  0.64
 H  1.37  0.30  0.30
 H  1.58  2.53 -0.74
 H  3.17  2.87 -1.51
 H  4.24  1.84  1.93
 H  2.45  1.70  2.07
