15
set: 981.00  0.00  0.00
 C  1.06 -0.12 -0.02
 C  2.56  0.03 -0.05
 N  3.34 -0.45 -1.21
 C  3.22  1.01 -0.96
 C  4.53  1.68 -0.63
 O  5.40  1.71 -1.76
 H  0.62  0.53  0.75
 H  0.78 -1.16  0.22
 H  0.61  0.15 -0.99
 H  3.07 -0.17  0.90
 H  2.69 -0.72 -1.95
 H  2.56  1.57 -1.64
 H  5.00  1.15  0.22
 H  4.36  2.73 -0.33
 H  5.48  0.79 -2.05
