18
set: 2372.00  0.00  0.00
 C  0.98 -0.07  0.24
 C  2.45 -0.05 -0.18
 C  2.69 -0.83 -1.48
 N  2.39 -2.26 -1.30
 C  2.96  1.41 -0.31
 C  4.40  1.53 -0.51
 C  5.60  1.63 -0.66
 H  0.84  0.39  1.23
 H  0.61 -1.10  0.27
 H  0.37  0.50 -0.48
 H  3.05 -0.53  0.62
 H  3.72 -0.63 -1.83
 H  2.00 -0.44 -2.25
 H  3.13 -2.70 -0.74
 H  2.40 -2.73 -2.20
 H  2.68  1.97  0.60
 H  2.43  1.90 -1.14
 H  6.66  1.72 -0.79
