14
set: 2778.00  0.00  0.00
 C  1.15 -0.40  0.25
 N  2.52 -0.19 -0.21
 C  3.13  1.05 -0.14
 N  2.30  2.14 -0.29
 C  4.49  1.18  0.06
 C  5.12  2.43 -0.07
 N  5.60  3.49 -0.18
 H  0.94 -1.47  0.22
 H  0.43  0.09 -0.41
 H  0.98 -0.04  1.28
 H  3.16 -0.96 -0.00
 H  1.55  2.04 -0.96
 H  2.80  3.02 -0.38
 H  5.09  0.31  0.34
