14
set: 6718.00  0.00  0.00
 O  2.68 -0.93 -1.23
 C  2.38 -0.21 -0.03
 C  3.18  1.09 -0.06
 C  4.67  0.89  0.04
 C  5.55  1.21 -0.93
 C  5.15  0.30  1.26
 N  5.48 -0.17  2.28
 H  2.29 -1.82 -1.16
 H  2.64 -0.80  0.87
 H  1.30  0.04  0.02
 H  2.84  1.72  0.79
 H  2.95  1.63 -0.99
 H  5.19  1.64 -1.87
 H  6.62  1.04 -0.81
