15
set: 6357.00  0.00  0.00
 N  4.31  1.73  4.12
 C  4.10  1.65  2.86
 N  5.01  1.09  2.00
 C  4.93  1.14  0.57
 C  6.03  1.87 -0.25
 O  6.11  0.75 -1.17
 C  5.36 -0.10 -0.25
 H  3.51  2.15  4.59
 H  3.19  2.00  2.33
 H  5.89  0.80  2.43
 H  3.92  1.48  0.29
 H  6.97  2.01  0.31
 H  5.75  2.81 -0.77
 H  4.58 -0.68 -0.76
 H  6.03 -0.78  0.31
