13
set: 5368.00  0.00  0.00
 C  3.67 -2.03 -0.12
 C  4.52 -0.99 -0.05
 N  4.09  0.33 -0.18
 C  4.97  1.26 -0.11
 N  4.62  2.59 -0.23
 C  5.50  3.65 -0.16
 O  5.16  4.82 -0.27
 H  4.02 -3.05 -0.01
 H  2.60 -1.85 -0.28
 H  5.60 -1.17  0.11
 H  6.05  1.09  0.06
 H  3.63  2.80 -0.38
 H  6.55  3.32  0.01
