13
set: 6600.00  0.00  0.00
 O  0.89 -0.04  0.01
 C  2.12 -0.02 -0.00
 N  2.87  1.12  0.19
 C  4.31  1.25 -0.09
 C  4.98 -0.08  0.07
 C  4.26 -1.21  0.01
 N  2.87 -1.18 -0.17
 H  2.30  1.96  0.21
 H  4.73  1.98  0.62
 H  4.48  1.66 -1.10
 H  6.06 -0.12  0.20
 H  4.70 -2.20  0.09
 H  2.33 -2.04 -0.14
