19
set: 4106.00  0.00  0.00
 C  2.02 -0.26 -1.51
 O  2.21  0.17 -0.17
 C  2.93  1.40 -0.07
 C  2.15  2.66 -0.48
 C  2.96  3.79  0.16
 C  3.51  3.20  1.49
 C  3.30  1.66  1.39
 H  1.55 -1.26 -1.46
 H  2.98 -0.34 -2.05
 H  1.35  0.41 -2.07
 H  3.84  1.33 -0.70
 H  1.14  2.60 -0.03
 H  2.03  2.78 -1.56
 H  3.80  4.07 -0.50
 H  2.37  4.71  0.32
 H  4.57  3.45  1.63
 H  2.98  3.60  2.36
 H  4.18  1.08  1.70
 H  2.45  1.34  2.01
