13
set: 1051.00  0.00  0.00
 C  1.07  0.07 -0.16
 N  2.52  0.02  0.03
 C  3.27 -0.78 -0.93
 C  3.31  0.73 -0.99
 C  4.52  1.45 -0.50
 O  5.05  2.37 -1.08
 H  0.69  1.00  0.27
 H  0.62 -0.78  0.37
 H  0.77  0.02 -1.23
 H  2.73 -1.26 -1.75
 H  4.12 -1.33 -0.53
 H  2.79  1.20 -1.83
 H  4.91  1.05  0.47
