18
set: 1693.00  0.00  0.00
 C  0.93 -0.00  0.09
 C  2.45 -0.01 -0.06
 C  3.03 -1.23 -0.75
 C  4.10 -0.91 -1.51
 C  4.39  0.57 -1.44
 C  3.06  1.17 -0.89
 N  2.12  1.61 -1.94
 H  0.58  0.92  0.57
 H  0.61 -0.85  0.72
 H  0.42 -0.09 -0.88
 H  2.89  0.04  0.95
 H  2.64 -2.23 -0.60
 H  4.71 -1.63 -2.07
 H  5.23  0.76 -0.75
 H  4.67  1.01 -2.41
 H  3.25  2.04 -0.25
 H  1.99  0.86 -2.61
 H  2.55  2.38 -2.46
