18
set: 2624.00  0.00  0.00
 C  2.04 -0.73 -0.32
 N  1.86  0.68  0.03
 C  3.12  1.38  0.19
 C  3.74  2.01 -1.03
 C  3.13  2.89  0.03
 C  3.93  3.74  0.94
 C  5.24  4.03  0.82
 H  1.05 -1.21 -0.37
 H  2.67 -1.30  0.39
 H  2.50 -0.80 -1.32
 H  1.33  0.75  0.90
 H  3.84  0.98  0.93
 H  3.18  1.91 -1.97
 H  4.82  1.97 -1.13
 H  2.14  3.29 -0.22
 H  3.39  4.14  1.80
 H  5.83  3.67 -0.02
 H  5.75  4.64  1.56
