13
set: 4313.00  0.00  0.00
 O  1.00 -0.10  0.05
 C  2.20  0.10 -0.02
 C  2.93  1.36  0.31
 C  4.24  1.22  0.01
 C  4.56 -0.14 -0.50
 C  4.33 -1.25  0.52
 C  3.25 -0.89 -0.50
 H  2.44  2.22  0.76
 H  5.01  1.99  0.16
 H  5.31 -0.29 -1.28
 H  4.84 -2.20  0.36
 H  4.18 -0.95  1.56
 H  2.98 -1.62 -1.25
