15
set: 3029.00  0.00  0.00
 N  2.73 -1.04 -0.40
 C  2.08  0.04  0.19
 N  0.97  0.00  0.85
 C  2.82  1.34  0.05
 C  2.15  2.50  0.16
 C  4.28  1.30 -0.19
 C  4.95  2.09 -1.04
 H  3.36 -0.83 -1.17
 H  2.18 -1.88 -0.54
 H  0.56 -0.94  0.82
 H  1.07  2.49  0.33
 H  2.66  3.46  0.12
 H  4.84  0.54  0.38
 H  4.43  2.81 -1.67
 H  6.03  2.03 -1.14
