17
set: 4156.00  0.00  0.00
 C  2.07 -0.48 -0.51
 O  3.37  0.11 -0.42
 C  3.42  1.41  0.04
 C  2.36  2.14  0.41
 C  4.82  1.91  0.04
 C  5.70  1.49 -1.11
 C  5.27  2.70  1.03
 H  2.23 -1.48 -0.92
 H  1.42  0.10 -1.17
 H  1.60 -0.56  0.49
 H  1.34  1.75  0.43
 H  2.50  3.18  0.71
 H  5.80  0.40 -1.15
 H  6.70  1.93 -1.03
 H  5.26  1.80 -2.07
 H  4.64  2.95  1.89
 H  6.28  3.10  1.02
