21
set: 1426.00  0.00  0.00
 C  0.94  0.04 -0.00
 C  2.46 -0.19  0.01
 C  2.84 -0.98  1.27
 C  2.86 -0.98 -1.25
 C  3.15  1.21 -0.00
 C  4.65  1.20  0.02
 C  5.44  1.68 -0.96
 H  0.63  0.61 -0.90
 H  0.61  0.61  0.88
 H  0.40 -0.92 -0.01
 H  2.58 -0.42  2.18
 H  3.92 -1.20  1.30
 H  2.30 -1.94  1.30
 H  2.58 -0.45 -2.17
 H  2.36 -1.97 -1.26
 H  3.95 -1.15 -1.28
 H  2.79  1.76  0.88
 H  2.81  1.77 -0.89
 H  5.13  0.77  0.90
 H  5.01  2.13 -1.86
 H  6.52  1.65 -0.88
