17
set: 3095.00  0.00  0.00
 C  0.81 -1.17  0.55
 C -0.40 -1.50 -0.33
 C -1.55 -0.53 -0.19
 C -1.47  0.76  0.16
 C -0.19  1.54  0.38
 C  1.01  1.04 -0.43
 O  1.66 -0.13  0.08
 H  1.47 -2.05  0.62
 H  0.45 -0.94  1.58
 H -0.76 -2.50 -0.03
 H -0.09 -1.60 -1.38
 H -2.55 -0.94 -0.37
 H -2.40  1.33  0.27
 H  0.07  1.59  1.45
 H -0.37  2.59  0.08
 H  1.80  1.81 -0.45
 H  0.68  0.87 -1.47
