20
set: 5152.00  0.00  0.00
 C  0.44  0.92 -0.46
 C  1.64  0.51  0.40
 C  2.82  1.49  0.36
 N  2.49  2.86  0.83
 C  4.03  0.96  1.14
 C  5.29  1.81  0.98
 O  5.17  3.12  1.55
 H -0.36  0.17 -0.40
 H  0.72  1.02 -1.51
 H  0.01  1.87 -0.13
 H  2.00 -0.48  0.07
 H  1.32  0.38  1.45
 H  3.13  1.61 -0.70
 H  2.05  2.80  1.75
 H  1.81  3.30  0.21
 H  4.25 -0.06  0.81
 H  3.77  0.90  2.22
 H  5.55  1.87 -0.10
 H  6.14  1.32  1.49
 H  4.27  3.42  1.27
