21
set: 1181.00  0.00  0.00
 C -1.54  0.76  0.13
 C -1.54 -0.76 -0.09
 C -0.31 -1.52  0.41
 C  0.96 -1.25 -0.41
 C  1.78  0.00 -0.02
 C  0.97  1.25  0.39
 C -0.32  1.53 -0.41
 H -2.45  1.18 -0.33
 H -1.62  0.97  1.21
 H -1.65 -0.96 -1.17
 H -2.44 -1.17  0.39
 H -0.13 -1.30  1.48
 H -0.53 -2.60  0.35
 H  1.64 -2.12 -0.35
 H  0.67 -1.18 -1.48
 H  2.45 -0.25  0.81
 H  2.44  0.26 -0.87
 H  0.71  1.19  1.45
 H  1.65  2.12  0.31
 H -0.54  2.60 -0.35
 H -0.17  1.31 -1.48
