18
set: 6295.00  0.00  0.00
 N  1.26  0.12  0.48
 C  2.61  0.23 -0.11
 C  2.55 -0.32 -1.55
 C  3.91 -0.35 -2.25
 O  3.83 -0.87 -3.59
 C  3.01  1.69 -0.10
 C  4.09  2.17  0.51
 H  1.29  0.42  1.46
 H  0.95 -0.85  0.47
 H  3.38 -0.34  0.45
 H  1.84  0.27 -2.14
 H  2.15 -1.35 -1.50
 H  4.64 -0.93 -1.66
 H  4.31  0.66 -2.36
 H  3.51 -1.78 -3.54
 H  2.32  2.36 -0.62
 H  4.78  1.51  1.05
 H  4.34  3.23  0.49
