14
set: 4988.00  0.00  0.00
 C  0.89  0.01 -0.03
 C  2.24  0.11 -0.11
 C  2.96  1.37 -0.09
 N  4.26  1.37 -0.16
 O  4.74  2.67 -0.10
 C  3.61  3.61 -0.15
 C  2.36  2.75  0.05
 H  0.41 -0.97 -0.04
 H  0.25  0.88  0.05
 H  2.86 -0.78 -0.20
 H  3.63  4.11 -1.13
 H  3.77  4.36  0.64
 H  1.58  2.94 -0.70
 H  1.90  2.87  1.04
