14
set: 5485.00  0.00  0.00
 C  1.07 -0.15  0.24
 C  2.52  0.05 -0.19
 O  2.80 -0.60 -1.43
 C  2.91  1.53 -0.23
 C  3.46  2.13 -1.31
 C  2.69  2.27  0.97
 N  2.49  2.83  1.98
 H  0.88  0.31  1.22
 H  0.84 -1.22  0.30
 H  0.38  0.32 -0.48
 H  3.18 -0.44  0.54
 H  2.06 -0.42 -2.03
 H  3.66  1.54 -2.20
 H  3.73  3.18 -1.29
