14
set: 1755.00  0.00  0.00
 C  0.96  0.02  0.04
 C  2.46  0.04 -0.02
 C  3.19  1.23 -0.05
 C  4.58  1.20 -0.12
 N  5.30  0.06 -0.15
 C  4.60 -1.09 -0.12
 C  3.21 -1.15 -0.06
 H  0.55  1.03  0.14
 H  0.61 -0.59  0.89
 H  0.54 -0.43 -0.88
 H  2.67  2.20 -0.03
 H  5.16  2.13 -0.14
 H  5.19 -2.01 -0.14
 H  2.71 -2.12 -0.03
