21
set: 1393.00  0.00  0.00
 C  0.87  0.97 -1.02
 C  2.36  0.83 -1.05
 C  3.19  1.29 -0.10
 C  4.70  1.19 -0.05
 C  5.10  0.43  1.23
 C  5.29  0.47 -1.28
 C  5.28  2.63  0.02
 H  0.50  1.53 -1.89
 H  0.53  1.50 -0.11
 H  0.38 -0.02 -1.05
 H  2.78  0.32 -1.92
 H  2.74  1.80  0.77
 H  4.69  0.92  2.13
 H  6.19  0.39  1.33
 H  4.71 -0.60  1.21
 H  5.04  1.00 -2.21
 H  4.91 -0.56 -1.35
 H  6.38  0.43 -1.20
 H  5.02  3.20 -0.88
 H  6.37  2.60  0.12
 H  4.88  3.17  0.89
