15
set: 328.00  0.00  0.00
 C  0.75  1.30  0.32
 C -0.73  1.19 -0.13
 C -1.02 -0.30 -0.14
 N -0.61 -1.11  1.03
 C  0.28 -1.03 -0.15
 C  1.41 -0.01 -0.14
 H  1.24  2.19 -0.10
 H  0.81  1.40  1.41
 H -0.86  1.59 -1.15
 H -1.41  1.76  0.53
 H -1.90 -0.67 -0.67
 H -0.26 -0.50  1.78
 H  0.42 -1.98 -0.68
 H  2.25 -0.31  0.50
 H  1.80  0.08 -1.17
