18
set: 4812.00  0.00  0.00
 C  0.95  0.05  0.03
 C  2.46 -0.04  0.05
 N  3.21  1.02  0.81
 C  4.17 -0.03  1.30
 C  3.21 -1.17  0.84
 C  2.43 -1.81  1.97
 O  3.77 -2.24  0.08
 H  0.51 -0.79 -0.53
 H  0.63  0.98 -0.45
 H  0.53  0.03  1.05
 H  2.83 -0.04 -1.00
 H  2.63  1.33  1.59
 H  5.11  0.00  0.73
 H  4.41  0.01  2.38
 H  2.00 -1.04  2.63
 H  3.11 -2.43  2.57
 H  1.63 -2.44  1.58
 H  4.27 -1.85 -0.66
