15
set: 154.00  0.00  0.00
 C  0.98 -0.01  0.01
 C  2.52 -0.01 -0.03
 C  3.05 -0.78 -1.25
 C  3.04  1.43 -0.00
 O  4.47  1.53  0.04
 H  0.60  0.52  0.90
 H  0.59 -1.04  0.04
 H  0.57  0.48 -0.88
 H  2.88 -0.52  0.89
 H  2.66 -0.34 -2.18
 H  2.74 -1.84 -1.22
 H  4.14 -0.74 -1.29
 H  2.59  1.97  0.85
 H  2.74  1.95 -0.92
 H  4.77  1.16  0.89
