15
set: 1572.00  0.00  0.00
 C -1.39  0.68  0.15
 C -1.50 -0.81 -0.18
 C -0.28 -1.59  0.18
 C  0.96 -1.10  0.40
 C  1.49  0.25  0.24
 N  0.96  1.35 -0.23
 N -0.35  1.39 -0.59
 H -2.34  1.18 -0.09
 H -1.22  0.80  1.24
 H -1.74 -0.93 -1.25
 H -2.36 -1.23  0.37
 H -0.42 -2.67  0.34
 H  1.73 -1.82  0.71
 H  2.55  0.37  0.47
 H -0.60  2.36 -0.79
