13
set: 5825.00  0.00  0.00
 C  6.17  3.42 -0.39
 N  5.61  3.29  0.75
 N  4.68  2.17  0.74
 C  4.53  1.67  2.11
 C  3.47  2.56  1.56
 C  2.19  1.99  1.07
 O  1.10  2.48  1.30
 H  6.89  4.24 -0.50
 H  5.96  2.76 -1.24
 H  5.17  2.11  2.88
 H  4.36  0.59  2.18
 H  3.45  3.59  1.93
 H  2.30  1.05  0.47
