16
set: 6041.00  0.00  0.00
 C  2.43  4.31  0.17
 O  3.38  3.28 -0.16
 N  3.82  3.46 -1.50
 C  3.09  2.66 -2.47
 C  5.19  3.71 -1.67
 C  5.93  4.17 -0.43
 O  5.72  3.58 -2.77
 H  2.89  5.31  0.10
 H  2.14  4.10  1.21
 H  1.54  4.27 -0.47
 H  3.11  1.60 -2.19
 H  3.57  2.79 -3.44
 H  2.05  3.01 -2.53
 H  5.97  3.37  0.31
 H  5.43  5.03  0.05
 H  6.94  4.45 -0.74
