13
set: 1042.00  0.00  0.00
 C  3.38 -1.32  0.39
 C  2.56 -0.04  0.23
 O  1.32 -0.09  0.28
 C  3.24  1.23  0.02
 C  4.59  1.38 -0.03
 N  5.26  2.55 -0.28
 H  4.06 -1.25  1.26
 H  3.99 -1.51 -0.50
 H  2.69 -2.15  0.54
 H  2.58  2.10 -0.10
 H  5.25  0.52  0.09
 H  4.75  3.42 -0.25
 H  6.25  2.61 -0.05
