16
set: 5588.00  0.00  0.00
 C  1.07 -0.41 -0.11
 N  2.53 -0.39 -0.23
 C  3.05 -0.42 -1.61
 C  3.10  0.84 -0.81
 C  4.38  1.34 -0.18
 C  5.16  2.31 -1.03
 O  4.81  2.75 -2.11
 H  0.78  0.05  0.84
 H  0.73 -1.46 -0.11
 H  0.55  0.12 -0.94
 H  2.33 -0.46 -2.43
 H  3.96 -1.02 -1.75
 H  2.39  1.61 -1.12
 H  5.04  0.50  0.09
 H  4.17  1.85  0.78
 H  6.14  2.63 -0.58
