17
set: 4179.00  0.00  0.00
 C  2.67 -0.86  0.20
 O  4.00 -0.39  0.10
 C  4.06  1.02  0.07
 C  5.48  1.51 -0.04
 C  6.52  0.66 -0.10
 C  5.70  2.96 -0.07
 C  4.76  3.92 -0.02
 H  2.71 -1.95  0.22
 H  2.06 -0.53 -0.67
 H  2.18 -0.50  1.12
 H  3.59  1.44  0.99
 H  3.47  1.41 -0.79
 H  6.37 -0.42 -0.07
 H  7.54  1.03 -0.18
 H  6.75  3.26 -0.15
 H  3.70  3.69  0.07
 H  5.03  4.97 -0.05
