19
set: 3329.00  0.00  0.00
 C  1.05  0.02 -0.20
 C  2.55  0.03  0.07
 C  3.00  1.08  1.08
 O  4.26  0.63  1.62
 C  4.45 -0.75  1.26
 C  3.12 -1.26  0.70
 C  3.26 -2.45 -0.25
 H  0.77 -0.76 -0.93
 H  0.70  0.98 -0.60
 H  0.49 -0.18  0.73
 H  3.08  0.20 -0.89
 H  2.26  1.18  1.90
 H  3.15  2.08  0.63
 H  5.25 -0.82  0.50
 H  4.78 -1.31  2.16
 H  2.46 -1.54  1.54
 H  3.88 -2.19 -1.12
 H  2.28 -2.78 -0.63
 H  3.72 -3.31  0.25
