16
set: 654.00  0.00  0.00
 C  0.75  1.29 -0.21
 C -0.73  1.24  0.23
 C -1.38 -0.06 -0.24
 O -0.67 -1.21  0.23
 C  0.67 -1.22 -0.25
 C  1.46 -0.00  0.22
 H  0.80  1.39 -1.31
 H  1.25  2.17  0.22
 H -1.28  2.10 -0.18
 H -0.79  1.30  1.33
 H -2.40 -0.15  0.15
 H -1.42 -0.08 -1.35
 H  1.12 -2.16  0.13
 H  0.67 -1.27 -1.36
 H  1.55 -0.03  1.32
 H  2.48 -0.04 -0.19
