14
set: 3040.00  0.00  0.00
 N  2.28 -1.25  0.80
 C  2.37 -0.33 -0.23
 N  1.81 -0.40 -1.39
 C  3.17  0.92  0.09
 C  4.70  0.72 -0.05
 C  5.26 -0.17  0.96
 N  5.65 -0.89  1.79
 H  3.01 -1.24  1.51
 H  1.97 -2.19  0.55
 H  1.31 -1.29 -1.51
 H  2.94  1.28  1.11
 H  2.86  1.69 -0.63
 H  5.21  1.70  0.03
 H  4.93  0.32 -1.05
