15
set: 3550.00  0.00  0.00
 C  0.97 -0.02  0.02
 C  2.42  0.02 -0.02
 C  3.63  0.05 -0.05
 C  5.08  0.09 -0.09
 C  5.82  1.12  0.81
 C  6.62 -0.09  1.32
 O  5.74 -1.02  0.61
 H  0.54  0.99  0.08
 H  0.61 -0.58  0.89
 H  0.56 -0.50 -0.88
 H  5.43  0.13 -1.14
 H  5.16  1.57  1.57
 H  6.38  1.91  0.29
 H  7.65 -0.15  0.93
 H  6.62 -0.27  2.40
