16
set: 275.00  0.00  0.00
 C  0.87 -0.15 -0.29
 C  2.35  0.02 -0.17
 C  3.05  1.13  0.18
 C  2.41  2.46  0.51
 C  4.51  1.05  0.23
 C  5.36  2.05  0.53
 H  0.51 -0.96  0.36
 H  0.60 -0.45 -1.32
 H  0.30  0.76 -0.05
 H  2.94 -0.88 -0.38
 H  1.32  2.42  0.46
 H  2.76  3.24 -0.19
 H  2.69  2.78  1.52
 H  4.93  0.07 -0.01
 H  5.01  3.06  0.78
 H  6.43  1.89  0.54
