14
set: 889.00  0.00  0.00
 O  0.95  0.03  0.02
 C  2.36  0.01  0.03
 C  3.04  1.06  0.93
 C  4.14  0.01  1.25
 C  3.13 -1.08  0.83
 O  3.55 -2.28  0.20
 H  0.64 -0.69 -0.55
 H  2.77  0.07 -1.00
 H  2.41  1.26  1.81
 H  3.33  2.01  0.48
 H  4.97  0.08  0.53
 H  4.55 -0.03  2.26
 H  2.51 -1.39  1.69
 H  4.16 -2.04 -0.52
