14
set: 6662.00  0.00  0.00
 O  2.32 -0.31 -1.52
 C  2.34  0.07 -0.15
 C  3.35  1.22  0.00
 C  3.47  1.76  1.43
 O  2.82  3.08  1.42
 N  2.58  3.45  0.09
 C  2.89  2.48 -0.70
 H  1.65 -1.01 -1.64
 H  2.65 -0.77  0.50
 H  1.34  0.42  0.19
 H  4.32  0.87 -0.40
 H  4.52  1.90  1.74
 H  2.95  1.15  2.18
 H  2.75  2.59 -1.77
