14
set: 824.00  0.00  0.00
 C  2.89 -1.19 -1.22
 C  3.04 -0.58  0.15
 O  2.90 -1.22  1.18
 C  3.42  0.91  0.20
 C  4.92  1.06  0.18
 C  5.62  1.65 -0.79
 H  3.75 -0.92 -1.86
 H  2.00 -0.78 -1.71
 H  2.80 -2.28 -1.15
 H  3.01  1.32  1.13
 H  2.98  1.45 -0.66
 H  5.44  0.62  1.04
 H  5.13  2.10 -1.66
 H  6.71  1.71 -0.75
