17
set: 3466.00  0.00  0.00
 C  1.09 -0.13  0.34
 C  2.36  0.16 -0.40
 C  3.04  1.32 -0.33
 C  2.74  2.57  0.47
 C  3.61  3.63 -0.23
 C  4.78  2.78 -0.73
 O  4.20  1.50 -1.06
 H  1.21 -0.99  1.03
 H  0.27 -0.40 -0.35
 H  0.74  0.72  0.94
 H  2.76 -0.62 -1.04
 H  3.06  2.44  1.52
 H  1.67  2.82  0.47
 H  3.07  4.06 -1.08
 H  3.93  4.44  0.43
 H  5.27  3.17 -1.63
 H  5.54  2.64  0.06
