19
set: 2538.00  0.00  0.00
 C  0.71 -0.73  0.87
 C  0.79  0.64  0.22
 N  2.00  1.38  0.59
 C  2.36  2.49 -0.28
 N  2.11  1.54  1.95
 C  2.79  2.51  2.46
 C  2.95  2.60  3.94
 H -0.21 -1.24  0.55
 H  0.70 -0.64  1.97
 H  1.57 -1.35  0.59
 H -0.12  1.23  0.46
 H  0.81  0.53 -0.88
 H  2.15  2.21 -1.32
 H  3.43  2.72 -0.19
 H  1.79  3.42 -0.04
 H  3.30  3.28  1.85
 H  2.37  1.82  4.44
 H  2.61  3.58  4.32
 H  4.00  2.50  4.24
