16
set: 522.00  0.00  0.00
 C  1.69 -0.21 -0.34
 C  2.99 -0.00  0.44
 N  3.46  1.37  0.34
 C  4.60  1.56 -0.21
 N  5.13  2.81 -0.44
 C  4.49  4.00  0.10
 H  1.31 -1.23 -0.20
 H  1.85 -0.04 -1.42
 H  0.92  0.50 -0.00
 H  3.76 -0.73  0.08
 H  2.81 -0.23  1.50
 H  5.26  0.74 -0.57
 H  6.13  2.85 -0.60
 H  3.44  4.04 -0.24
 H  5.02  4.89 -0.26
 H  4.47  4.00  1.21
