19
set: 2394.00  0.00  0.00
 C  0.84 -0.36 -0.12
 C  2.36 -0.17 -0.20
 C  3.02 -1.19 -1.13
 N  2.74  1.18 -0.61
 C  2.66  2.30  0.20
 C  2.90  3.60 -0.54
 N  2.44  2.33  1.47
 H  0.38  0.42  0.50
 H  0.59 -1.34  0.30
 H  0.40 -0.30 -1.13
 H  2.79 -0.31  0.81
 H  2.66 -1.07 -2.16
 H  2.78 -2.21 -0.81
 H  4.12 -1.07 -1.13
 H  2.75  1.35 -1.62
 H  3.86  3.59 -1.06
 H  2.89  4.42  0.19
 H  2.11  3.78 -1.28
 H  2.28  1.39  1.85
