16
set: 6616.00  0.00  0.00
 O  1.89 -0.71 -0.74
 C  2.04  0.18  0.08
 C  3.08  1.28 -0.00
 C  2.40  2.67 -0.20
 C  2.99  3.58  0.90
 C  4.22  2.81  1.39
 N  3.77  1.41  1.29
 H  1.40  0.26  1.00
 H  3.76  1.06 -0.85
 H  1.30  2.60 -0.12
 H  2.62  3.04 -1.21
 H  3.24  4.58  0.53
 H  2.28  3.69  1.73
 H  5.09  3.03  0.73
 H  4.51  3.05  2.42
 H  4.54  0.74  1.38
