13
set: 4749.00  0.00  0.00
 C  0.89 -0.07 -0.08
 C  2.38  0.08  0.01
 C  3.14  1.24 -0.23
 N  4.42  0.86 -0.03
 O  5.52  1.70 -0.15
 N  4.60 -0.41  0.31
 C  3.34 -0.90  0.33
 H  0.37  0.68  0.53
 H  0.59 -1.06  0.28
 H  0.53  0.03 -1.11
 H  2.88  2.25 -0.50
 H  6.26  1.09  0.07
 H  3.18 -1.94  0.59
