14
set: 1160.00  0.00  0.00
 C  0.98 -0.07 -0.04
 C  2.50  0.05 -0.02
 S  3.11  1.76  0.07
 C  2.62  2.49 -1.50
 O  2.36  2.45  1.14
 O  4.58  1.70  0.09
 H  0.69 -1.13  0.05
 H  0.55  0.31 -0.97
 H  0.54  0.48  0.80
 H  2.99 -0.40 -0.90
 H  2.94 -0.40  0.88
 H  3.09  1.93 -2.32
 H  3.00  3.51 -1.47
 H  1.53  2.50 -1.58
