14
set: 125.00  0.00  0.00
 C  1.10 -0.17  0.00
 N  2.55 -0.07 -0.13
 C  3.04  1.29  0.06
 C  4.53  1.35 -0.07
 C  5.19  2.15 -0.92
 H  0.77 -1.20 -0.22
 H  0.53  0.52 -0.66
 H  0.80  0.05  1.04
 H  2.83 -0.39 -1.05
 H  2.76  1.60  1.09
 H  2.57  2.03 -0.62
 H  5.09  0.67  0.58
 H  4.65  2.83 -1.58
 H  6.28  2.16 -0.97
