13
set: 3505.00  0.00  0.00
 C  1.07 -0.16  0.23
 C  2.27 -0.06  0.06
 C  3.70  0.09 -0.16
 C  4.34  1.17  0.78
 O  5.55  0.55  1.23
 C  5.20 -0.82  1.32
 O  4.44 -1.11  0.14
 H  0.01 -0.26  0.38
 H  3.89  0.32 -1.22
 H  3.67  1.39  1.62
 H  4.60  2.10  0.25
 H  6.11 -1.43  1.32
 H  4.59 -1.00  2.23
