16
set: 5406.00  0.00  0.00
 C  1.63 -1.80  1.30
 C  2.68 -1.05  0.46
 N  3.67 -1.90 -0.21
 C  2.04 -0.12 -0.56
 O  1.29 -0.90 -1.55
 C -0.04 -0.70 -1.62
 O -0.71  0.07 -0.96
 H  0.94 -1.11  1.80
 H  2.13 -2.41  2.07
 H  1.04 -2.48  0.67
 H  3.24 -0.37  1.14
 H  3.19 -2.51 -0.87
 H  4.12 -2.51  0.48
 H  2.81  0.41 -1.13
 H  1.35  0.59 -0.10
 H -0.45 -1.36 -2.42
