18
set: 2860.00  0.00  0.00
 N  1.00  0.03 -0.12
 C  2.46 -0.01  0.03
 C  3.00  1.16  0.87
 C  4.39  0.68  1.31
 C  4.27 -0.84  1.41
 C  5.19 -1.67  1.93
 C  2.93 -1.24  0.82
 H  0.69 -0.77 -0.68
 H  0.73  0.86 -0.65
 H  3.00 -0.00 -0.95
 H  2.33  1.28  1.74
 H  3.02  2.11  0.33
 H  5.15  0.94  0.55
 H  4.73  1.14  2.26
 H  5.04 -2.75  1.94
 H  6.12 -1.29  2.35
 H  2.99 -2.16  0.22
 H  2.20 -1.42  1.63
