17
set: 2207.00  0.00  0.00
 C  0.79  1.43 -1.32
 C  2.26  1.21 -1.13
 C  2.99  1.68 -0.10
 C  4.46  1.46  0.08
 C  5.29  2.75  0.06
 N  5.06  3.53 -1.06
 N  6.17  3.11  0.92
 H  0.58  1.89 -2.29
 H  0.37  2.08 -0.53
 H  0.24  0.48 -1.30
 H  2.76  0.60 -1.89
 H  2.49  2.29  0.67
 H  4.84  0.79 -0.71
 H  4.66  0.96  1.05
 H  4.14  3.46 -1.49
 H  5.46  4.46 -1.02
 H  6.26  2.40  1.65
