15
set: 3664.00  0.00  0.00
 C  0.95 -0.00  0.00
 C  2.41 -0.01  0.00
 C  3.62 -0.02  0.00
 C  5.08 -0.01  0.00
 C  5.67  1.41 -0.00
 C  7.17  1.46 -0.00
 O  7.91  0.48 -0.00
 H  0.56  1.02  0.01
 H  0.55 -0.53  0.88
 H  0.55 -0.51 -0.89
 H  5.46 -0.56 -0.88
 H  5.46 -0.56  0.88
 H  5.32  1.99  0.87
 H  5.31  1.98 -0.88
 H  7.60  2.49 -0.01
