14
set: 4651.00  0.00  0.00
 C  0.97  0.03 -0.10
 C  2.49 -0.07  0.04
 C  3.14 -1.29 -0.58
 C  4.06 -0.89 -1.47
 N  4.13  0.51 -1.53
 C  3.21  1.10 -0.68
 O  3.01  2.30 -0.55
 H  0.63  1.01  0.26
 H  0.47 -0.76  0.48
 H  0.67 -0.08 -1.15
 H  2.76  0.01  1.11
 H  2.89 -2.32 -0.33
 H  4.72 -1.49 -2.09
 H  4.72  1.05 -2.16
