20
set: 2700.00  0.00  0.00
 C  0.86  0.70  0.08
 N  2.31  0.54  0.13
 C  3.03  1.77 -0.18
 C  4.55  1.55 -0.17
 C  5.33  2.82 -0.39
 C  6.16  3.05 -1.41
 C  6.93  4.32 -1.62
 H  0.38 -0.27  0.24
 H  0.49  1.13 -0.88
 H  0.54  1.37  0.89
 H  2.59 -0.19 -0.54
 H  2.77  2.52  0.59
 H  2.74  2.21 -1.16
 H  4.82  0.81 -0.95
 H  4.82  1.10  0.80
 H  5.17  3.61  0.36
 H  6.31  2.25 -2.15
 H  6.72  5.06 -0.84
 H  6.69  4.77 -2.60
 H  8.02  4.13 -1.63
