15
set: 3817.00  0.00  0.00
 C  0.93 -0.01  0.42
 C  2.25  0.49 -0.19
 C  2.50  0.00 -1.63
 C  1.38  0.35 -2.59
 O  0.84 -0.45 -3.33
 C  2.40  1.99 -0.02
 O  2.82  2.75 -0.87
 H  0.81  0.34  1.46
 H  0.89 -1.10  0.42
 H  0.06  0.36 -0.16
 H  3.07  0.08  0.44
 H  2.66 -1.08 -1.66
 H  3.41  0.50 -2.01
 H  1.07  1.43 -2.59
 H  2.11  2.37  0.99
