17
set: 3093.00  0.00  0.00
 C -1.48  0.78 -0.04
 C -1.48 -0.78  0.06
 C -0.18 -1.47  0.63
 C  0.82 -0.71 -0.20
 O  2.09 -0.01 -0.01
 C  0.83  0.70  0.19
 C -0.18  1.46 -0.62
 H -2.36  1.09 -0.63
 H -1.64  1.20  0.97
 H -1.66 -1.20 -0.94
 H -2.35 -1.09  0.67
 H -0.06 -1.29  1.70
 H -0.22 -2.56  0.45
 H  0.67 -0.88 -1.28
 H  0.70  0.87  1.27
 H -0.22  2.55 -0.45
 H -0.08  1.28 -1.70
