18
set: 2191.00  0.00  0.00
 C  0.90 -0.01  0.02
 C  2.43 -0.01  0.02
 C  3.02  1.41 -0.00
 C  4.47  1.45 -0.01
 C  5.69  1.45  0.01
 C  7.15  1.46 -0.02
 N  7.68  2.84  0.03
 H  0.51 -1.04  0.03
 H  0.50  0.49 -0.88
 H  0.50  0.51  0.90
 H  2.81 -0.56 -0.86
 H  2.81 -0.54  0.91
 H  2.64  1.97  0.87
 H  2.63  1.95 -0.89
 H  7.49  0.87 -0.90
 H  7.53  0.93  0.87
 H  7.31  3.36 -0.77
 H  8.70  2.80 -0.09
