16
set: 4695.00  0.00  0.00
 C  0.75 -0.38 -0.01
 C  2.22 -0.52 -0.33
 C  2.78 -0.21 -1.68
 N  2.99  0.72 -0.55
 C  4.34  0.74  0.01
 C  5.17  1.84 -0.63
 O  6.39  1.85 -0.63
 H  0.60 -0.15  1.06
 H  0.21 -1.30 -0.25
 H  0.31  0.44 -0.59
 H  2.74 -1.31  0.22
 H  2.13  0.16 -2.47
 H  3.64 -0.80 -2.02
 H  4.89 -0.22 -0.07
 H  4.26  0.99  1.09
 H  4.57  2.67 -1.08
