16
set: 311.00  0.00  0.00
 C  0.97 -0.13 -0.09
 C  2.49 -0.02  0.07
 C  3.02  1.43  0.02
 C  2.50  2.31  1.17
 C  4.49  1.44 -0.01
 C  5.70  1.43 -0.00
 H  0.66 -1.19 -0.11
 H  0.63  0.33 -1.03
 H  0.43  0.35  0.74
 H  2.99 -0.59 -0.73
 H  2.81 -0.47  1.02
 H  2.68  1.88 -0.94
 H  2.80  1.89  2.14
 H  1.40  2.38  1.14
 H  2.91  3.33  1.10
 H  6.77  1.42 -0.01
