17
set: 1588.00  0.00  0.00
 C -0.87 -0.02 -1.13
 C -0.60  1.08 -0.06
 C -1.13  0.03  0.93
 N -0.68 -1.05 -0.03
 C  0.78 -1.22  0.19
 C  1.61  0.05 -0.11
 N  0.84  1.28  0.21
 H -1.91 -0.04 -1.47
 H -0.20 -0.11 -1.99
 H -1.09  2.06 -0.14
 H -0.66  0.01  1.92
 H -2.22  0.02  1.02
 H  0.91 -1.54  1.24
 H  1.15 -2.04 -0.44
 H  1.91  0.03 -1.18
 H  2.54  0.05  0.48
 H  1.19  2.05 -0.36
