17
set: 1289.00  0.00  0.00
 C  0.94  0.06 -0.00
 C  2.43  0.02  0.00
 C  3.31  1.05  0.00
 C  4.69  0.56  0.00
 C  5.90  1.46  0.00
 C  4.66 -0.80  0.00
 C  3.23 -1.26  0.00
 H  0.57  1.09  0.00
 H  0.51 -0.45  0.88
 H  0.52 -0.45 -0.89
 H  3.04  2.11  0.00
 H  5.62  2.52 -0.04
 H  6.56  1.25 -0.86
 H  6.51  1.31  0.91
 H  5.52 -1.47 -0.00
 H  3.00 -1.89 -0.88
 H  3.00 -1.89  0.88
