13
set: 6682.00  0.00  0.00
 O  1.09 -0.16  0.14
 C  2.30  0.01  0.02
 C  2.93  1.32  0.03
 N  4.24  1.42 -0.10
 N  4.58  2.72  0.01
 C  3.40  3.61 -0.14
 C  2.26  2.66  0.23
 H  3.01 -0.84 -0.12
 H  5.47  2.95 -0.43
 H  3.32  3.97 -1.18
 H  3.49  4.49  0.52
 H  1.36  2.78 -0.39
 H  1.95  2.77  1.29
