18
set: 4891.00  0.00  0.00
 C  0.99  0.15  0.12
 C  2.48 -0.07 -0.02
 O  3.27  0.98  0.63
 C  4.08 -0.02  1.31
 C  3.16 -1.17  0.83
 C  3.80 -2.33  0.09
 N  4.49 -3.23  1.03
 H  0.43 -0.68 -0.35
 H  0.69  1.08 -0.37
 H  0.70  0.20  1.18
 H  2.76 -0.13 -1.09
 H  5.10 -0.05  0.90
 H  4.13  0.16  2.40
 H  2.51 -1.55  1.63
 H  4.46 -1.93 -0.71
 H  3.01 -2.91 -0.41
 H  5.29 -2.76  1.45
 H  4.87 -4.04  0.53
