18
set: 1890.00  0.00  0.00
 C  0.99  0.06  0.05
 C  2.51 -0.01  0.07
 N  3.11  1.12  0.82
 C  4.46  0.65  1.16
 C  4.34 -0.86  1.47
 C  3.11 -1.28  0.67
 C  2.64 -2.52  0.53
 H  0.57 -0.73 -0.59
 H  0.65  1.03 -0.35
 H  0.58 -0.06  1.06
 H  2.88  0.08 -0.97
 H  2.58  1.23  1.69
 H  5.12  0.80  0.29
 H  4.87  1.24  1.99
 H  5.23 -1.44  1.21
 H  4.15 -1.01  2.55
 H  1.75 -2.74 -0.05
 H  3.14 -3.38  0.99
