14
set: 6771.00  0.00  0.00
 O  1.95 -1.50 -0.15
 C  1.68 -0.22  0.44
 C  2.89  0.72  0.49
 O  2.76  1.90  0.82
 N  4.08  0.12  0.16
 C  5.31  0.78  0.18
 C  6.49  0.20 -0.11
 H  1.75 -1.45 -1.10
 H  1.36 -0.40  1.47
 H  0.86  0.31 -0.07
 H  4.03 -0.87 -0.07
 H  5.22  1.83  0.45
 H  6.57 -0.85 -0.38
 H  7.40  0.79 -0.08
