20
set: 2684.00  0.00  0.00
 C  3.15 -1.00 -0.54
 N  2.64  0.02  0.38
 C  3.35  1.31  0.32
 C  2.63  2.30  1.25
 C  4.84  1.22  0.61
 C  5.27  0.73  1.97
 C  5.74  1.55 -0.34
 H  2.57 -1.93 -0.40
 H  4.23 -1.24 -0.42
 H  3.00 -0.67 -1.57
 H  2.65 -0.34  1.34
 H  3.24  1.67 -0.72
 H  2.65  1.96  2.29
 H  1.58  2.40  0.94
 H  3.12  3.29  1.21
 H  4.87 -0.28  2.17
 H  4.90  1.39  2.77
 H  6.36  0.68  2.05
 H  5.43  1.89 -1.32
 H  6.82  1.48 -0.15
