16
set: 2031.00  0.00  0.00
 C  0.95 -0.01 -0.01
 C  2.40 -0.00  0.02
 C  3.62 -0.01  0.05
 C  5.06  0.00  0.07
 C  5.85 -0.70 -1.04
 C  5.86  0.79 -0.99
 N  7.08  1.50 -0.69
 H  0.54  1.01 -0.08
 H  0.54 -0.48  0.89
 H  0.57 -0.57 -0.88
 H  5.52 -0.03  1.06
 H  5.29 -1.19 -1.83
 H  6.76 -1.22 -0.73
 H  5.24  1.30 -1.73
 H  7.70  0.94 -0.12
 H  6.88  2.36 -0.17
