17
set: 1740.00  0.00  0.00
 C  1.17 -0.17  0.06
 C  2.67 -0.29  0.16
 C  3.50 -1.13 -0.73
 C  2.95 -1.97 -1.86
 N  3.60  0.38 -0.82
 N  2.86  0.87 -1.96
 C  3.41  1.92 -2.44
 H  0.84  0.83  0.38
 H  0.70 -0.91  0.73
 H  0.79 -0.34 -0.95
 H  3.05 -0.14  1.18
 H  4.43 -1.52 -0.30
 H  2.02 -1.57 -2.27
 H  2.77 -2.99 -1.49
 H  3.68 -2.03 -2.68
 H  2.94  2.39 -3.31
 H  4.32  2.37 -2.00
