13
set: 4520.00  0.00  0.00
 O  2.08  1.95  1.55
 C  1.90  1.30  0.55
 C  3.02  0.79 -0.38
 O  2.68  0.13 -1.36
 C  4.40  1.14 -0.02
 C  5.50  0.13 -0.36
 C  5.39  1.38 -1.16
 H  0.88  0.99  0.19
 H  4.51  1.73  0.89
 H  5.15 -0.79 -0.82
 H  6.30  0.03  0.36
 H  6.12  2.17 -1.01
 H  4.97  1.30 -2.16
