16
set: 5514.00  0.00  0.00
 C  1.00 -0.17 -0.20
 C  2.48  0.07  0.07
 O  3.32 -0.75 -0.76
 C  2.87  1.54 -0.06
 C  2.83  2.23 -1.39
 N  3.23  2.10  1.04
 O  3.56  3.47  0.84
 H  0.38  0.41  0.50
 H  0.77 -1.24 -0.08
 H  0.72  0.14 -1.22
 H  2.72 -0.23  1.10
 H  3.01 -0.66 -1.68
 H  2.41  1.58 -2.17
 H  3.84  2.53 -1.69
 H  2.23  3.15 -1.33
 H  3.81  3.74  1.74
