18
set: 6107.00  0.00  0.00
 N  0.99  0.03  0.12
 C  2.47  0.02  0.05
 C  2.94 -1.32 -0.54
 C  2.61 -1.44 -2.03
 O  3.17 -0.35 -2.77
 C  2.62  0.90 -2.33
 C  2.94  1.16 -0.86
 H  0.67  0.91  0.54
 H  0.67 -0.72  0.75
 H  2.94  0.14  1.04
 H  2.48 -2.16  0.01
 H  4.03 -1.41 -0.40
 H  3.05 -2.35 -2.46
 H  1.52 -1.47 -2.18
 H  3.05  1.67 -2.98
 H  1.52  0.89 -2.48
 H  4.04  1.27 -0.75
 H  2.49  2.12 -0.54
