16
set: 6232.00  0.00  0.00
 N  1.01  0.13  0.38
 C  2.03  0.66 -0.54
 C  3.05  1.46  0.24
 O  3.95  2.28 -0.53
 C  2.97  2.93  0.34
 C  3.56  3.69  1.50
 O  4.15  4.93  1.08
 H  0.44 -0.58 -0.10
 H  0.37  0.87  0.66
 H  1.64  1.29 -1.37
 H  2.55 -0.20 -1.00
 H  3.52  0.91  1.07
 H  2.18  3.45 -0.21
 H  4.29  3.05  2.02
 H  2.76  3.96  2.21
 H  4.84  4.70  0.44
