15
set: 3235.00  0.00  0.00
 C  0.94  0.01  0.16
 C  2.43  0.09 -0.00
 C  3.16  1.22  0.05
 C  4.61  1.15 -0.06
 C  5.21 -0.05  0.11
 O  4.51 -1.21  0.27
 C  3.18 -1.18 -0.31
 H  0.67 -0.64  1.02
 H  0.46 -0.44 -0.73
 H  0.50  1.00  0.32
 H  2.68  2.19  0.23
 H  5.22  2.05 -0.15
 H  6.28 -0.19  0.23
 H  2.68 -2.07  0.09
 H  3.29 -1.32 -1.41
