14
set: 5924.00  0.00  0.00
 C  2.54 -0.86 -0.87
 O  2.27  0.03  0.22
 C  2.80  1.34  0.02
 C  2.33  2.22  1.15
 C  1.64  3.34  0.96
 C  4.28  1.31 -0.03
 N  5.45  1.27 -0.08
 H  2.06 -1.81 -0.61
 H  3.63 -1.02 -1.00
 H  2.11 -0.48 -1.81
 H  2.45  1.75 -0.95
 H  2.59  1.87  2.15
 H  1.38  3.69 -0.04
 H  1.32  3.95  1.80
