15
set: 1453.00  0.00  0.00
 C  0.94 -0.04  0.00
 C  2.39 -0.01 -0.00
 C  3.61  0.02 -0.00
 C  5.07  0.03 -0.02
 C  5.63 -0.77 -1.23
 C  5.61  1.40 -0.00
 C  6.07  2.52  0.01
 H  0.52  0.98  0.00
 H  0.55 -0.56  0.89
 H  0.54 -0.56 -0.88
 H  5.43 -0.47  0.90
 H  5.31 -0.31 -2.17
 H  5.26 -1.80 -1.19
 H  6.73 -0.78 -1.20
 H  6.47  3.51  0.01
