13
set: 6350.00  0.00  0.00
 N  0.98  0.27  0.09
 C  2.25  0.21 -0.04
 N  3.10  1.22  0.46
 C  3.80  2.12 -0.44
 C  2.66  2.61  0.42
 C  2.98  3.43  1.63
 O  2.42  4.47  1.91
 H  0.56 -0.59 -0.26
 H  2.83 -0.63 -0.46
 H  3.60  2.06 -1.51
 H  4.83  2.36 -0.16
 H  1.71  2.83 -0.07
 H  3.81  3.01  2.25
