13
set: 2306.00  0.00  0.00
 C  0.96  0.01  0.07
 C  2.50 -0.01  0.01
 C  2.99 -0.78 -1.25
 C  4.43 -1.02 -1.25
 N  5.58 -1.22 -1.25
 C  3.04  1.35  0.04
 N  3.43  2.45  0.05
 H  0.62  0.56  0.96
 H  0.57 -1.01  0.12
 H  0.54  0.51 -0.81
 H  2.89 -0.53  0.90
 H  2.71 -0.23 -2.16
 H  2.48 -1.76 -1.28
