15
set: 5756.00  0.00  0.00
 C  2.65 -0.80 -1.05
 N  2.40  0.04  0.13
 C  2.97  1.38  0.03
 C  2.41  2.28  1.16
 O  2.57  1.70  2.45
 C  4.45  1.38  0.01
 N  5.61  1.31 -0.01
 H  2.23 -1.80 -0.86
 H  3.72 -0.91 -1.31
 H  2.12 -0.38 -1.92
 H  2.81 -0.41  0.95
 H  2.64  1.82 -0.93
 H  1.35  2.47  0.93
 H  2.95  3.24  1.17
 H  1.86  1.04  2.56
