14
set: 5478.00  0.00  0.00
 C  1.32 -0.62 -0.09
 C  2.81 -0.46  0.09
 O  3.54 -1.41  0.35
 C  3.37  0.95 -0.08
 C  4.89  1.00  0.11
 C  5.41  2.36 -0.05
 N  5.80  3.45 -0.19
 H  0.78  0.02  0.63
 H  1.03 -1.66  0.06
 H  1.01 -0.29 -1.09
 H  2.86  1.62  0.63
 H  3.09  1.32 -1.08
 H  5.39  0.34 -0.61
 H  5.16  0.63  1.11
