16
set: 1590.00  0.00  0.00
 C  0.86 -1.58  0.62
 C  1.50 -0.17  0.61
 N  0.60  0.25 -0.51
 C -0.21  1.46 -0.23
 C -1.45  0.93  0.46
 C -1.48 -0.41  0.44
 C -0.26 -0.96 -0.26
 H  1.45 -2.33  0.08
 H  0.55 -1.98  1.59
 H  2.57 -0.11  0.37
 H  1.31  0.38  1.55
 H  0.36  2.16  0.39
 H -0.46  1.99 -1.16
 H -2.23  1.57  0.87
 H -2.28 -1.04  0.83
 H -0.53 -1.53 -1.17
