18
set: 2861.00  0.00  0.00
 N  0.96  0.20 -0.21
 C  2.39  0.02  0.17
 C  3.19  1.26 -0.24
 C  3.45  1.27 -1.75
 C  4.28  0.05 -2.16
 C  3.80 -1.21 -1.51
 C  2.94 -1.23 -0.48
 H  0.49  0.76  0.51
 H  0.49 -0.71 -0.23
 H  2.50 -0.11  1.27
 H  2.64  2.17  0.07
 H  4.15  1.26  0.31
 H  3.96  2.20 -2.05
 H  2.48  1.24 -2.26
 H  5.35  0.21 -1.91
 H  4.26 -0.07 -3.26
 H  4.18 -2.16 -1.90
 H  2.61 -2.18 -0.06
