19
set: 3561.00  0.00  0.00
 C  1.14  0.15  0.21
 C  2.63 -0.06 -0.10
 C  2.84 -0.68 -1.49
 C  3.39  1.25  0.00
 O  3.61  1.78  1.33
 C  4.75  1.36  0.55
 C  5.72  2.42  0.14
 H  1.01  0.60  1.20
 H  0.60 -0.80  0.18
 H  0.68  0.83 -0.53
 H  3.05 -0.74  0.66
 H  2.46 -0.02 -2.28
 H  2.31 -1.64 -1.57
 H  3.91 -0.87 -1.69
 H  3.08  2.02 -0.73
 H  5.20  0.42  0.93
 H  5.20  3.31 -0.24
 H  6.39  2.05 -0.65
 H  6.35  2.73  0.99
