16
set: 6550.00  0.00  0.00
 O  0.83 -0.02  0.21
 C  2.24  0.07  0.07
 C  2.93  1.10  0.97
 N  4.04  0.13  1.28
 C  3.17 -0.99  0.77
 C  3.77 -2.08 -0.03
 C  5.07 -2.23 -0.32
 H  0.47 -0.51 -0.55
 H  2.54  0.19 -0.98
 H  2.34  1.30  1.88
 H  3.24  2.05  0.53
 H  4.79  0.28  0.59
 H  2.61 -1.41  1.63
 H  3.05 -2.82 -0.41
 H  5.83 -1.55  0.07
 H  5.42 -3.06 -0.93
