19
set: 1239.00  0.00  0.00
 C  1.73 -0.14 -0.03
 C  0.82 -1.25  0.52
 C -0.43 -1.54 -0.33
 C -1.54 -0.53 -0.16
 C -1.44  0.76  0.18
 C -0.17  1.57  0.35
 C  1.00  1.11 -0.53
 H  2.34 -0.55 -0.86
 H  2.45  0.14  0.76
 H  1.41 -2.18  0.62
 H  0.49 -1.00  1.54
 H -0.83 -2.53 -0.04
 H -0.16 -1.64 -1.39
 H -2.56 -0.93 -0.29
 H -2.37  1.32  0.31
 H  0.13  1.59  1.42
 H -0.41  2.62  0.11
 H  1.73  1.93 -0.63
 H  0.61  0.93 -1.54
