14
set: 4733.00  0.00  0.00
 C  0.93  0.01 -0.01
 C  2.43  0.01 -0.00
 C  3.28  1.10  0.01
 N  4.58  0.64  0.01
 C  4.59 -0.75  0.01
 C  3.27 -1.15  0.00
 O  2.87 -2.47 -0.00
 H  0.55  1.04 -0.00
 H  0.51 -0.49  0.87
 H  0.52 -0.48 -0.90
 H  3.06  2.16  0.01
 H  5.41  1.22  0.02
 H  5.51 -1.32  0.01
 H  1.89 -2.48 -0.01
