17
set: 4060.00  0.00  0.00
 C  1.80  1.57 -1.49
 C  3.04  1.08 -0.76
 O  3.97  2.16 -0.65
 C  5.16  1.78  0.02
 C  6.06  3.01  0.15
 C  5.53  4.05  1.11
 O  6.24  4.72  1.84
 H  1.07  0.75 -1.58
 H  2.05  1.92 -2.49
 H  1.33  2.39 -0.93
 H  3.51  0.24 -1.31
 H  2.78  0.71  0.25
 H  5.68  0.99 -0.54
 H  4.92  1.37  1.03
 H  6.12  3.49 -0.85
 H  7.08  2.73  0.45
 H  4.42  4.17  1.12
