16
set: 5805.00  0.00  0.00
 C  2.41  3.41  1.08
 N  3.76  2.97  0.81
 C  4.05  1.88  0.03
 O  3.18  1.19 -0.51
 C  5.51  1.57 -0.15
 C  5.85  0.11 -0.21
 C  6.42  2.55 -0.32
 H  2.26  4.45  0.77
 H  2.16  3.31  2.15
 H  1.74  2.76  0.50
 H  4.54  3.40  1.31
 H  5.23 -0.38 -0.98
 H  5.61 -0.39  0.74
 H  6.91 -0.05 -0.44
 H  6.14  3.60 -0.34
 H  7.47  2.32 -0.50
