14
set: 5128.00  0.00  0.00
 C  1.29 -0.17 -0.33
 C  2.58  0.46  0.11
 C  3.79 -0.42  0.28
 C  4.59 -0.47 -1.01
 O  4.80 -1.48 -1.65
 N  2.57  1.73  0.28
 O  3.85  2.22  0.67
 H  0.52  0.59 -0.47
 H  0.94 -0.90  0.42
 H  1.43 -0.72 -1.27
 H  3.51 -1.45  0.55
 H  4.44  0.01  1.06
 H  4.98  0.53 -1.35
 H  3.66  3.17  0.81
