13
set: 4411.00  0.00  0.00
 O  2.54 -0.63 -1.28
 C  2.26 -0.01 -0.01
 C  2.85  1.36 -0.00
 C  2.17  2.54  0.15
 O  3.04  3.60  0.14
 C  4.29  3.08 -0.03
 C  4.24  1.72 -0.12
 H  2.25 -1.56 -1.22
 H  2.69 -0.61  0.81
 H  1.17  0.06  0.16
 H  1.12  2.78  0.28
 H  5.10  3.80 -0.07
 H  5.07  1.04 -0.27
