13
set: 3611.00  0.00  0.00
 C  0.91 -0.03  0.05
 C  2.39  0.01  0.12
 C  3.15  1.09 -0.17
 C  4.56  1.10 -0.10
 C  5.78  1.18 -0.05
 C  7.21  1.20  0.02
 O  7.91  2.17 -0.25
 H  0.57 -0.81 -0.65
 H  0.48  0.93 -0.27
 H  0.47 -0.29  1.03
 H  2.90 -0.91  0.44
 H  2.67  2.02 -0.49
 H  7.66  0.23  0.35
