15
set: 2628.00  0.00  0.00
 C  2.90 -1.11 -0.48
 N  2.38  0.12  0.13
 C  3.35  1.18  0.18
 C  3.46  2.08 -1.02
 C  2.80  2.60  0.25
 C  3.46  3.58  1.06
 N  4.01  4.37  1.72
 H  2.12 -1.88 -0.45
 H  3.81 -1.51  0.02
 H  3.15 -0.91 -1.53
 H  2.04 -0.07  1.08
 H  4.28  1.02  0.74
 H  2.79  1.89 -1.85
 H  4.44  2.49 -1.27
 H  1.71  2.68  0.23
