20
set: 2640.00  0.00  0.00
 C  2.05 -0.56 -1.31
 N  2.23  0.06  0.00
 C  3.14  1.20 -0.04
 C  2.56  2.54 -0.57
 C  3.25  3.28  0.61
 C  4.56  3.97  0.26
 C  3.42  1.89  1.32
 H  1.41 -1.45 -1.21
 H  2.99 -0.86 -1.81
 H  1.53  0.14 -1.98
 H  2.60 -0.63  0.66
 H  4.09  0.95 -0.56
 H  1.47  2.54 -0.48
 H  2.85  2.85 -1.59
 H  2.60  3.98  1.15
 H  5.24  3.29 -0.28
 H  5.09  4.32  1.16
 H  4.38  4.85 -0.38
 H  4.38  1.69  1.80
 H  2.60  1.69  2.02
