14
set: 5865.00  0.00  0.00
 C  2.40 -0.42 -1.71
 N  2.60  0.29 -0.46
 O  1.76 -0.18  0.58
 C  3.85  0.80 -0.11
 O  4.71  0.96 -0.98
 C  4.02  1.20  1.32
 C  5.18  1.75  1.71
 H  3.19 -0.09 -2.40
 H  1.42 -0.18 -2.14
 H  2.48 -1.51 -1.55
 H  0.99  0.42  0.56
 H  3.21  1.00  2.02
 H  5.98  1.92  0.99
 H  5.34  2.04  2.75
