14
set: 631.00  0.00  0.00
 N  0.98 -0.09  0.06
 C  2.45 -0.02 -0.02
 C  2.93  1.35  0.01
 C  3.34  2.50  0.01
 C  3.83  3.88 -0.01
 N  2.73  4.85 -0.16
 H  0.68 -1.06 -0.07
 H  0.57  0.45 -0.71
 H  2.87 -0.51 -0.93
 H  2.86 -0.57  0.84
 H  4.61  3.94 -0.80
 H  4.34  4.09  0.95
 H  2.24  4.66 -1.04
 H  3.14  5.79 -0.26
