17
set: 547.00  0.00  0.00
 C  2.26 -0.75 -1.37
 N  1.84  0.33 -0.48
 C  2.94  1.13  0.05
 C  3.69  0.45  1.18
 C  3.71  2.06 -0.88
 C  2.71  2.61  0.13
 H  2.92 -0.43 -2.20
 H  1.37 -1.23 -1.79
 H  2.80 -1.52 -0.80
 H  1.19  0.94 -0.97
 H  4.48  1.11  1.56
 H  4.17 -0.48  0.84
 H  3.00  0.21  2.00
 H  3.42  2.09 -1.93
 H  4.77  2.23 -0.69
 H  3.10  3.14  1.01
 H  1.77  3.02 -0.25
