15
set: 1875.00  0.00  0.00
 C  1.00 -0.01  0.30
 C  2.46 -0.01 -0.05
 N  3.12  1.05 -0.42
 C  4.49  0.64 -0.63
 C  5.26  0.11  0.56
 C  4.56 -0.87 -0.33
 N  3.20 -1.19  0.06
 H  0.47 -0.82 -0.22
 H  0.56  0.95  0.01
 H  0.86 -0.16  1.38
 H  5.03  1.15 -1.43
 H  6.35  0.15  0.49
 H  4.85  0.28  1.56
 H  5.10 -1.62 -0.92
 H  2.79 -2.07 -0.24
