17
set: 5819.00  0.00  0.00
 C  1.24  0.29  1.52
 N  2.37  1.03  2.07
 C  3.47  1.23  1.24
 O  4.47  2.03  1.75
 C  4.45  2.39  3.14
 N  3.56  0.68  0.09
 C  4.80  0.81 -0.65
 H  0.47  0.20  2.30
 H  1.57 -0.71  1.22
 H  0.81  0.77  0.62
 H  2.10  1.85  2.61
 H  5.44  2.82  3.35
 H  4.28  1.51  3.78
 H  3.69  3.16  3.35
 H  4.81  0.07 -1.47
 H  5.70  0.65 -0.02
 H  4.90  1.81 -1.11
