15
set: 3742.00  0.00  0.00
 C  0.75  0.02  0.12
 C  2.24  0.04  0.27
 C  3.06  0.93 -0.29
 C  4.57  0.94 -0.13
 O  5.08 -0.21  0.57
 C  5.23  1.11 -1.43
 C  5.76  1.23 -2.52
 H  0.41 -0.93 -0.31
 H  0.40  0.84 -0.52
 H  0.26  0.12  1.10
 H  2.69 -0.75  0.90
 H  2.66  1.74 -0.92
 H  4.85  1.79  0.51
 H  5.02 -0.96 -0.05
 H  6.24  1.33 -3.47
