19
set: 3003.00  0.00  0.00
 N  2.26 -0.03  3.47
 C  3.18 -0.19  2.33
 C  3.78  1.17  1.96
 N  4.72  1.06  0.85
 C  5.38  2.30  0.38
 C  6.68  1.50  0.17
 C  6.06  0.46  1.13
 H  1.94 -0.95  3.78
 H  1.42  0.47  3.17
 H  2.72 -0.63  1.42
 H  3.99 -0.86  2.64
 H  4.25  1.61  2.86
 H  2.98  1.85  1.64
 H  5.49  3.06  1.19
 H  4.90  2.77 -0.49
 H  6.78  1.12 -0.85
 H  7.62  1.97  0.48
 H  6.16 -0.61  0.89
 H  6.38  0.63  2.18
