16
set: 605.00  0.00  0.00
 N  2.29 -0.46 -1.41
 C  2.43  0.05 -0.03
 C  3.20  1.36 -0.03
 C  2.53  2.64 -0.59
 C  3.11  3.35  0.66
 N  3.29  2.02  1.30
 H  1.68 -1.28 -1.42
 H  3.20 -0.78 -1.75
 H  2.92 -0.65  0.67
 H  1.42  0.24  0.37
 H  4.20  1.20 -0.50
 H  1.44  2.56 -0.57
 H  2.86  2.99 -1.57
 H  4.05  3.88  0.43
 H  2.45  4.04  1.21
 H  4.18  1.90  1.79
