20
set: 2855.00  0.00  0.00
 N  0.99  0.02  0.08
 C  2.46  0.01  0.03
 C  2.95 -1.34 -0.52
 C  2.60 -1.54 -2.00
 C  3.12 -0.38 -2.86
 C  2.60  0.97 -2.34
 C  2.96  1.17 -0.86
 H  0.66  0.91  0.48
 H  0.65 -0.72  0.70
 H  2.91  0.15  1.04
 H  2.54 -2.16  0.09
 H  4.05 -1.38 -0.39
 H  3.01 -2.50 -2.35
 H  1.50 -1.60 -2.10
 H  4.23 -0.38 -2.84
 H  2.82 -0.52 -3.91
 H  3.02  1.80 -2.93
 H  1.51  1.01 -2.45
 H  4.06  1.24 -0.75
 H  2.55  2.12 -0.49
