17
set: 1790.00  0.00  0.00
 C  0.94  0.03 -0.00
 C  2.48 -0.02 -0.04
 C  2.99  0.13 -1.48
 C  3.02 -1.29  0.66
 N  3.14 -0.84  2.07
 N  3.40  0.53  2.07
 C  3.04  1.01  0.93
 H  0.57 -0.13  1.02
 H  0.51 -0.75 -0.66
 H  0.57  1.00 -0.36
 H  4.09  0.13 -1.51
 H  2.64  1.08 -1.92
 H  2.62 -0.68 -2.12
 H  4.01 -1.57  0.24
 H  2.34 -2.15  0.58
 H  3.84 -1.32  2.63
 H  3.06  2.09  0.75
