13
set: 3533.00  0.00  0.00
 C  1.67 -0.38 -1.24
 C  2.12  0.23 -0.14
 C  3.21  1.25 -0.13
 O  3.67  1.59 -1.46
 C  3.54  2.97 -1.56
 C  3.00  3.48 -0.44
 O  2.74  2.49  0.49
 H  0.87 -1.13 -1.19
 H  2.09 -0.16 -2.22
 H  1.70  0.00  0.84
 H  4.09  0.90  0.46
 H  3.85  3.43 -2.49
 H  2.73  4.50 -0.17
