18
set: 1690.00  0.00  0.00
 C  0.99  0.02  0.02
 C  2.48 -0.02 -0.05
 C  3.27 -1.11 -0.10
 C  4.74 -0.76 -0.06
 C  4.74  0.76 -0.35
 C  3.32  1.26  0.01
 N  2.76  2.34 -0.81
 H  0.56 -0.98 -0.05
 H  0.57  0.65 -0.79
 H  0.66  0.48  0.96
 H  2.91 -2.14 -0.09
 H  5.17 -0.99  0.93
 H  5.34 -1.34 -0.79
 H  4.90  0.93 -1.43
 H  5.53  1.30  0.19
 H  3.29  1.63  1.05
 H  2.88  2.11 -1.80
 H  3.28  3.20 -0.65
