16
set: 910.00  0.00  0.00
 O  2.27 -0.40 -1.39
 C  2.36  0.04 -0.03
 C  3.12  1.34  0.00
 C  2.45  2.63 -0.54
 C  3.08  3.41  0.64
 C  3.29  2.06  1.37
 H  1.75 -1.23 -1.41
 H  2.88 -0.71  0.59
 H  1.35  0.19  0.40
 H  4.11  1.19 -0.47
 H  1.36  2.57 -0.45
 H  2.70  2.95 -1.56
 H  4.05  3.86  0.36
 H  2.47  4.18  1.14
 H  4.22  1.90  1.93
 H  2.44  1.83  2.04
