15
set: 4364.00  0.00  0.00
 O  1.24 -0.35  0.04
 C  2.64 -0.22 -0.09
 C  3.15 -0.68 -1.42
 O  2.23 -1.16 -2.36
 C  3.19  0.82 -1.06
 C  4.48  1.51 -0.81
 C  5.47  1.09 -0.01
 H  0.90  0.46  0.47
 H  3.21 -0.43  0.82
 H  4.12 -1.18 -1.47
 H  1.36 -1.11 -1.93
 H  2.42  1.40 -1.58
 H  4.62  2.43 -1.38
 H  5.41  0.17  0.58
 H  6.40  1.65  0.07
