15
set: 5434.00  0.00  0.00
 C  3.26 -1.43 -0.14
 C  2.64 -0.06 -0.20
 N  1.40  0.23 -0.44
 N  3.45  1.03  0.01
 O  2.79  2.26 -0.07
 C  4.81  1.07  0.28
 C  5.52  2.19  0.48
 H  4.05 -1.55 -0.90
 H  2.49 -2.19 -0.33
 H  3.70 -1.63  0.85
 H  0.82 -0.59 -0.60
 H  1.86  1.92 -0.27
 H  5.26  0.08  0.33
 H  5.06  3.18  0.43
 H  6.58  2.11  0.69
