18
set: 1636.00  0.00  0.00
 C  1.04  0.00  0.06
 C  2.56 -0.00 -0.03
 C  3.19 -0.97 -1.08
 C  4.71 -0.77 -0.85
 C  4.71  0.79 -0.80
 C  3.20  1.02 -1.02
 N  2.83  0.06 -2.12
 H  0.69  0.87  0.65
 H  0.68 -0.91  0.56
 H  0.59  0.05 -0.94
 H  3.02 -0.03  0.96
 H  2.82 -2.00 -1.23
 H  5.06 -1.23  0.09
 H  5.31 -1.18 -1.68
 H  5.32  1.24 -1.61
 H  5.07  1.19  0.16
 H  2.84  2.06 -1.11
 H  3.49  0.08 -2.90
