13
set: 1046.00  0.00  0.00
 C  1.02 -1.69  0.04
 C  1.94 -0.48  0.13
 O  1.12  0.69  0.27
 C  1.87  1.88  0.40
 C  2.60  2.24 -0.83
 N  3.18  2.51 -1.81
 H  1.62 -2.60 -0.06
 H  0.35 -1.60 -0.82
 H  0.41 -1.78  0.95
 H  2.55 -0.39 -0.78
 H  2.62 -0.56  1.00
 H  2.60  1.82  1.22
 H  1.16  2.69  0.63
