17
set: 3151.00  0.00  0.00
 C  1.05  0.00  0.05
 C  2.57 -0.00 -0.00
 C  3.21 -0.95 -1.05
 C  4.72 -0.77 -0.84
 C  4.73  0.79 -0.79
 C  3.22  1.00 -0.99
 O  2.92  0.07 -2.09
 H  0.68  0.87  0.61
 H  0.67 -0.90  0.54
 H  0.63  0.04 -0.97
 H  3.01 -0.04  1.01
 H  2.81 -1.95 -1.29
 H  5.08 -1.24  0.09
 H  5.30 -1.17 -1.68
 H  5.31  1.24 -1.60
 H  5.09  1.20  0.17
 H  2.83  2.02 -1.15
