15
set: 4720.00  0.00  0.00
 C  1.03 -0.08  0.34
 C  2.47 -0.04 -0.13
 C  2.93 -1.20 -1.04
 N  3.94 -0.63 -1.96
 C  3.80  0.64 -1.86
 N  2.77  1.11 -1.03
 O  3.13  2.30 -0.31
 H  0.78  0.81  0.93
 H  0.86 -0.96  0.98
 H  0.34 -0.14 -0.52
 H  3.15  0.04  0.74
 H  2.08 -1.57 -1.64
 H  3.34 -2.06 -0.49
 H  4.38  1.38 -2.43
 H  2.39  2.90 -0.50
