13
set: 5879.00  0.00  0.00
 C  3.07 -1.19  0.52
 O  2.34  0.02  0.29
 C  3.11  1.13  0.16
 N  2.48  2.29 -0.05
 N  3.50  3.19 -0.14
 C  4.73  2.63  0.01
 C  4.52  1.28  0.21
 H  2.32 -1.98  0.60
 H  3.65 -1.14  1.45
 H  3.75 -1.42 -0.32
 H  3.28  4.16 -0.30
 H  5.64  3.23 -0.03
 H  5.28  0.52  0.37
