20
set: 1689.00  0.00  0.00
 C  1.06  0.00 -0.23
 C  2.57  0.04  0.01
 C  3.04  1.16  0.95
 C  4.45  0.72  1.43
 C  4.56 -0.79  1.11
 C  3.14 -1.23  0.69
 N  3.16 -2.49 -0.06
 H  0.77 -0.84 -0.88
 H  0.71  0.92 -0.73
 H  0.51 -0.09  0.72
 H  3.09  0.14 -0.96
 H  2.35  1.22  1.81
 H  3.04  2.15  0.47
 H  5.24  1.28  0.90
 H  4.59  0.93  2.50
 H  5.24 -0.97  0.26
 H  4.94 -1.39  1.95
 H  2.54 -1.42  1.61
 H  3.65 -2.35 -0.95
 H  2.20 -2.77 -0.30
