20
set: 1712.00  0.00  0.00
 C  0.96  0.07  0.13
 C  2.49  0.01 -0.01
 C  2.99 -1.35 -0.53
 C  2.70 -1.54 -2.03
 C  3.23 -0.35 -2.83
 N  2.63  0.89 -2.31
 C  3.03  1.13 -0.92
 H  0.65  1.02  0.59
 H  0.59 -0.74  0.76
 H  0.47  0.00 -0.85
 H  2.93  0.17  0.99
 H  2.54 -2.17  0.05
 H  4.08 -1.41 -0.38
 H  3.17 -2.47 -2.39
 H  1.62 -1.64 -2.20
 H  4.34 -0.34 -2.77
 H  2.95 -0.45 -3.90
 H  2.91  1.68 -2.89
 H  4.14  1.17 -0.80
 H  2.63  2.10 -0.60
