19
set: 2989.00  0.00  0.00
 N  0.90  2.44 -1.28
 C  2.28  1.92 -1.34
 C  3.07  2.34 -0.09
 C  4.43  1.72 -0.03
 C  5.59  2.38 -0.04
 C  6.95  1.74  0.04
 N  7.78  2.16 -1.10
 H  0.37  2.13 -2.09
 H  0.92  3.46 -1.34
 H  2.84  2.22 -2.24
 H  2.21  0.82 -1.36
 H  2.47  2.06  0.79
 H  3.16  3.44 -0.08
 H  4.46  0.62  0.03
 H  5.60  3.48 -0.11
 H  6.82  0.64  0.13
 H  7.46  2.08  0.96
 H  7.39  1.78 -1.97
 H  8.72  1.77 -1.01
