15
set: 3085.00  0.00  0.00
 C  0.40  1.54  0.39
 C  1.47  0.47  0.03
 C  0.61 -0.52 -0.83
 O -0.26  0.39 -1.53
 C -0.86  0.95 -0.34
 C -1.26 -0.29  0.44
 C -0.34 -1.22  0.13
 H  0.65  2.52 -0.05
 H  0.24  1.67  1.47
 H  1.92 -0.01  0.91
 H  2.27  0.90 -0.59
 H  1.17 -1.15 -1.54
 H -1.64  1.67 -0.60
 H -2.06 -0.35  1.18
 H -0.20 -2.21  0.56
