18
set: 5635.00  0.00  0.00
 C  2.64 -0.96 -0.52
 N  2.21  0.27  0.15
 C  3.25  1.27  0.22
 C  3.35  2.25 -0.93
 C  2.84  2.70  0.43
 C  3.69  3.62  1.27
 O  3.56  5.00  0.90
 H  1.83 -1.70 -0.48
 H  3.55 -1.42 -0.09
 H  2.84 -0.74 -1.58
 H  1.89  0.05  1.10
 H  4.21  0.97  0.66
 H  2.61  2.14 -1.73
 H  4.35  2.56 -1.24
 H  1.76  2.87  0.49
 H  4.75  3.30  1.22
 H  3.38  3.58  2.33
 H  3.69  5.04 -0.07
