14
set: 397.00  0.00  0.00
 C  1.05 -0.04  0.00
 C  2.54  0.03 -0.01
 N  3.28 -1.03  0.03
 N  4.62 -0.64  0.17
 C  4.75  0.77 -0.27
 C  3.35  1.31  0.06
 H  0.72 -1.08 -0.05
 H  0.62  0.52 -0.84
 H  0.64  0.41  0.92
 H  5.21 -1.30 -0.35
 H  4.94  0.84 -1.36
 H  5.56  1.27  0.26
 H  3.00  2.09 -0.64
 H  3.30  1.73  1.08
