15
set: 6833.00  0.00  0.00
 O  1.22  0.01  0.79
 N  2.39 -0.05 -0.03
 C  2.90  1.12 -0.16
 C  2.45  2.43  0.43
 C  3.38  3.45 -0.26
 N  4.60  2.66 -0.49
 C  4.14  1.35 -1.00
 H  0.96 -0.93  0.80
 H  2.60  2.41  1.52
 H  1.38  2.62  0.25
 H  2.91  3.80 -1.20
 H  3.60  4.32  0.37
 H  5.24  3.12 -1.15
 H  3.86  1.37 -2.07
 H  4.90  0.57 -0.85
