16
set: 2842.00  0.00  0.00
 N  0.97 -0.02  0.07
 C  2.42  0.03  0.03
 C  3.12  1.09  0.91
 C  4.18  0.03  1.29
 C  3.17 -1.07  0.85
 C  3.64 -2.26  0.17
 C  4.04 -3.24 -0.43
 H  0.63 -0.80 -0.51
 H  0.58  0.83 -0.35
 H  2.85  0.06 -0.99
 H  2.48  1.34  1.77
 H  3.46  2.02  0.43
 H  5.05  0.06  0.61
 H  4.53 -0.01  2.33
 H  2.52 -1.34  1.70
 H  4.40 -4.10 -0.95
