14
set: 1589.00  0.00  0.00
 C  2.72  0.29  0.90
 C  2.26  0.04 -0.58
 C  2.55  1.52 -0.79
 C  2.55  2.74 -1.44
 C  3.01  3.68 -0.45
 C  3.26  3.01  0.75
 N  2.98  1.69  0.49
 H  3.62 -0.25  1.23
 H  1.93  0.20  1.66
 H  1.20 -0.26 -0.67
 H  2.89 -0.67 -1.14
 H  2.27  2.97 -2.46
 H  3.17  4.74 -0.61
 H  3.63  3.37  1.71
