17
set: 3924.00  0.00  0.00
 C  1.05  0.08 -0.15
 C  2.54 -0.10 -0.04
 C  3.01 -1.53 -0.05
 O  2.60 -2.25  1.14
 C  3.37  0.96  0.09
 C  4.86  0.96  0.20
 O  5.48  1.66 -0.90
 H  0.75  1.13 -0.05
 H  0.53 -0.51  0.61
 H  0.69 -0.29 -1.13
 H  4.10 -1.61 -0.19
 H  2.53 -2.08 -0.88
 H  2.98 -1.77  1.90
 H  2.92  1.96  0.09
 H  5.27 -0.06  0.30
 H  5.17  1.52  1.09
 H  5.11  1.27 -1.72
