13
set: 6754.00  0.00  0.00
 O  2.78 -0.58 -0.55
 C  2.26  0.26  0.17
 C  2.96  1.52  0.62
 N  4.37  1.50  0.29
 C  5.00  2.80  0.14
 C  4.38  3.67 -0.87
 N  3.82  4.31 -1.68
 H  1.21  0.15  0.52
 H  2.79  1.64  1.70
 H  2.39  2.35  0.13
 H  4.51  0.90 -0.53
 H  6.06  2.65 -0.13
 H  4.99  3.33  1.10
