13
set: 3572.00  0.00  0.00
 C  0.86  0.05  0.06
 C  2.07  0.13  0.16
 C  3.47  0.20  0.31
 C  4.32  0.72 -0.61
 C  5.78  0.75 -0.41
 C  6.71  0.71 -1.57
 O  6.47  1.94 -0.88
 H -0.21 -0.02 -0.03
 H  3.88 -0.21  1.24
 H  3.94  1.14 -1.54
 H  6.15  0.37  0.55
 H  6.30  0.65 -2.58
 H  7.70  0.28 -1.42
