15
set: 1724.00  0.00  0.00
 C  1.06 -0.11  0.21
 C  2.38  0.00 -0.03
 C  3.21  1.27 -0.08
 C  4.53  0.84 -0.75
 C  4.55 -0.67 -0.64
 N  5.58 -1.40 -0.88
 N  3.27 -1.05 -0.26
 H  0.56 -1.07  0.24
 H  0.46  0.78  0.38
 H  3.40  1.62  0.95
 H  2.69  2.08 -0.61
 H  4.55  1.11 -1.81
 H  5.43  1.27 -0.29
 H  5.38 -2.40 -0.77
 H  2.98 -2.03 -0.21
