18
set: 6210.00  0.00  0.00
 N  0.81  0.44  0.91
 C  1.74  0.29 -0.23
 C  2.98  1.14 -0.04
 C  3.79  0.77  1.20
 O  4.97  1.55  1.41
 C  3.70  1.61 -1.28
 C  2.90  2.59 -0.45
 H  0.01 -0.18  0.78
 H  0.45  1.40  0.92
 H  1.29  0.55 -1.22
 H  2.03 -0.77 -0.28
 H  4.04 -0.31  1.16
 H  3.17  0.92  2.09
 H  5.63  1.27  0.76
 H  3.29  1.30 -2.25
 H  4.78  1.70 -1.26
 H  3.48  3.31  0.14
 H  1.96  2.97 -0.86
