18
set: 5601.00  0.00  0.00
 C  1.02 -0.01  0.04
 N  2.47  0.02  0.09
 C  3.14  1.05  0.92
 C  4.25  0.00  1.24
 C  4.85 -0.04  2.63
 O  5.33  0.05  0.31
 C  3.17 -1.05  0.85
 H  0.68 -0.88 -0.52
 H  0.65  0.89 -0.47
 H  0.56 -0.05  1.06
 H  2.55  1.31  1.83
 H  3.44  1.96  0.40
 H  4.07 -0.08  3.40
 H  5.47  0.86  2.80
 H  5.50 -0.92  2.73
 H  4.92  0.08 -0.58
 H  3.50 -1.92  0.26
 H  2.59 -1.39  1.74
