15
set: 2612.00  0.00  0.00
 C  0.97  0.02  0.01
 N  2.42  0.00  0.01
 C  3.24  1.10 -0.01
 C  4.56  0.67 -0.06
 C  4.54 -0.75 -0.07
 N  5.67 -1.59 -0.19
 C  3.20 -1.14 -0.03
 H  0.63  1.06  0.12
 H  0.58 -0.56  0.86
 H  0.56 -0.39 -0.92
 H  2.82  2.11  0.02
 H  5.44  1.31 -0.08
 H  5.49 -2.54  0.15
 H  6.47 -1.22  0.30
 H  2.75 -2.13 -0.03
