17
set: 1577.00  0.00  0.00
 C  1.76 -0.15 -0.02
 C  0.87 -1.28  0.52
 C -0.41 -1.49 -0.30
 C -1.48 -0.44 -0.07
 N -1.39  0.80  0.30
 N -0.15  1.40  0.47
 C  0.94  1.07 -0.47
 H  2.35 -0.50 -0.88
 H  2.47  0.15  0.76
 H  1.45 -2.22  0.55
 H  0.59 -1.06  1.56
 H -0.86 -2.46 -0.02
 H -0.18 -1.59 -1.38
 H -2.52 -0.78 -0.17
 H -0.32  2.40  0.52
 H  1.58  1.95 -0.54
 H  0.51  0.89 -1.47
