22
set: 2285.00  0.00  0.00
 C  2.24 -0.42 -1.93
 C  3.29  0.38 -1.16
 C  2.69  1.60 -0.44
 C  3.75  2.41  0.31
 N  3.20  3.49  1.14
 C  4.23  4.03  2.03
 C  2.61  4.56  0.34
 H  2.70 -1.29 -2.44
 H  1.75  0.20 -2.70
 H  1.46 -0.80 -1.26
 H  4.08  0.72 -1.85
 H  3.78 -0.27 -0.42
 H  1.92  1.27  0.29
 H  2.17  2.23 -1.18
 H  4.50  2.80 -0.41
 H  4.29  1.73  0.99
 H  4.63  3.23  2.66
 H  3.79  4.80  2.68
 H  5.08  4.49  1.47
 H  1.79  4.18 -0.27
 H  3.36  5.04 -0.34
 H  2.21  5.34  1.00
