14
set: 2804.00  0.00  0.00
 C  2.74 -1.36  1.04
 N  3.50 -0.53  0.13
 N  3.44  0.81  0.37
 C  4.38  1.57 -0.05
 C  4.24  3.06  0.12
 C  5.37  3.65  0.85
 N  6.28  4.10  1.42
 H  2.71 -2.38  0.65
 H  1.71 -0.97  1.09
 H  3.15 -1.38  2.07
 H  4.44 -0.88 -0.09
 H  5.29  1.19 -0.55
 H  3.31  3.27  0.67
 H  4.18  3.57 -0.85
