15
set: 6074.00  0.00  0.00
 N  0.39  0.29 -0.36
 C  1.67 -0.27  0.00
 C  2.40 -1.09 -1.04
 C  2.88  0.29 -0.68
 O  4.03  0.43  0.14
 N  5.20  0.30 -0.64
 C  6.25  0.45  0.08
 H  0.17  1.08  0.25
 H -0.35 -0.41 -0.23
 H  1.85 -0.59  1.04
 H  1.92 -1.21 -2.02
 H  3.00 -1.93 -0.69
 H  2.74  1.10 -1.40
 H  7.20  0.37 -0.45
 H  6.21  0.65  1.15
