15
set: 2743.00  0.00  0.00
 C  1.02 -0.04  0.28
 N  2.46  0.03  0.11
 C  3.12 -1.21 -0.24
 C  3.02  1.27 -0.18
 N  2.41  2.42 -0.27
 C  4.46  1.29 -0.35
 C  5.66  1.34 -0.51
 H  0.67  0.73  0.99
 H  0.76 -1.02  0.70
 H  0.47  0.09 -0.67
 H  2.90 -1.98  0.52
 H  4.21 -1.06 -0.27
 H  2.80 -1.59 -1.23
 H  1.40  2.31 -0.18
 H  6.72  1.40 -0.65
