15
set: 3800.00  0.00  0.00
 C  0.54  0.28 -0.03
 C  1.99  0.09  0.28
 C  3.00  0.81 -0.25
 C  4.45  0.61  0.10
 O  5.26  0.45 -1.05
 C  4.94  1.79  0.92
 O  5.89  2.48  0.55
 H  0.10 -0.64 -0.44
 H  0.39  1.09 -0.76
 H -0.03  0.53  0.88
 H  2.24 -0.71  0.99
 H  2.80  1.60 -0.98
 H  4.54 -0.27  0.77
 H  5.94  1.15 -0.99
 H  4.38  2.00  1.86
