15
set: 2596.00  0.00  0.00
 C  0.98  0.00  0.08
 N  2.43  0.02  0.07
 C  3.12  1.04  0.89
 C  4.20 -0.02  1.25
 C  3.14 -1.07  0.78
 C  5.41  0.03  0.44
 N  6.39  0.08 -0.19
 H  0.62 -0.86 -0.50
 H  0.60  0.91 -0.41
 H  0.55 -0.06  1.11
 H  2.56  1.33  1.80
 H  3.45  1.94  0.35
 H  4.48 -0.07  2.31
 H  3.49 -1.89  0.15
 H  2.59 -1.47  1.65
