15
set: 1074.00  0.00  0.00
 C  2.43 -0.88 -0.77
 O  2.05  0.29 -0.04
 C  3.13  1.17  0.13
 C  3.50  2.11 -1.01
 C  2.80  2.64  0.23
 N  3.48  3.57  1.10
 H  1.53 -1.50 -0.87
 H  3.20 -1.46 -0.24
 H  2.81 -0.62 -1.77
 H  3.95  0.79  0.75
 H  2.92  2.06 -1.92
 H  4.56  2.35 -1.14
 H  1.75  2.88  0.08
 H  4.49  3.42  1.07
 H  3.19  3.42  2.07
