15
set: 1738.00  0.00  0.00
 C  0.96 -0.04  0.07
 C  2.47  0.05  0.01
 C  3.20  1.11  0.88
 C  4.21 -0.02  1.23
 N  3.20 -1.02  0.78
 C  5.43  0.02  0.43
 N  6.40  0.01 -0.23
 H  0.59 -0.92 -0.47
 H  0.50  0.85 -0.39
 H  0.61 -0.10  1.11
 H  2.81  0.12 -1.04
 H  2.62  1.40  1.76
 H  3.60  2.00  0.38
 H  4.49 -0.13  2.29
 H  3.57 -1.78  0.21
