13
set: 3189.00  0.00  0.00
 C  0.97 -0.01 -0.02
 C  2.30  0.18  0.01
 C  3.02  1.46  0.08
 C  4.36  1.27 -0.01
 C  4.66 -0.19 -0.10
 O  4.24 -0.94  1.09
 C  3.35 -0.89 -0.06
 H  0.54 -1.01 -0.10
 H  0.27  0.83  0.03
 H  2.53  2.42  0.23
 H  5.12  2.04  0.02
 H  5.54 -0.59 -0.60
 H  3.16 -1.85 -0.55
