17
set: 3897.00  0.00  0.00
 C  1.20 -0.39 -0.02
 C  2.72 -0.17  0.04
 C  3.10  1.30  0.16
 O  2.54  1.92  1.33
 C  4.64  1.52  0.11
 C  5.31  0.98  1.29
 C  5.81  0.53  2.30
 H  0.96 -1.46 -0.07
 H  0.76  0.09 -0.90
 H  0.72  0.03  0.87
 H  3.19 -0.58 -0.87
 H  3.15 -0.72  0.89
 H  2.67  1.86 -0.68
 H  3.03  1.56  2.09
 H  4.83  2.61  0.06
 H  5.05  1.07 -0.80
 H  6.28  0.14  3.18
