17
set: 2228.00  0.00  0.00
 C  2.38 -0.55  1.24
 C  2.46  0.19 -0.10
 C  2.94  1.62  0.03
 C  2.08  2.66 -0.01
 C  4.36  1.87  0.23
 N  5.23  0.91  0.25
 N  6.55  1.24  0.34
 H  2.02 -1.58  1.10
 H  1.69 -0.04  1.93
 H  3.37 -0.60  1.72
 H  1.47  0.19 -0.58
 H  3.15 -0.36 -0.77
 H  1.02  2.52 -0.17
 H  2.43  3.69  0.11
 H  4.68  2.92  0.35
 H  7.09  0.48  0.75
 H  6.75  2.15  0.78
