19
set: 2297.00  0.00  0.00
 C  2.65 -0.72  1.83
 C  2.52 -0.22  0.41
 C  1.77 -0.87 -0.50
 C  3.28  1.05  0.04
 N  2.96  2.22  0.87
 C  4.80  0.84  0.05
 N  5.19 -0.17 -0.95
 H  2.29  0.03  2.56
 H  3.70 -0.94  2.10
 H  2.06 -1.64  1.98
 H  1.22 -1.78 -0.25
 H  1.69 -0.50 -1.52
 H  3.00  1.30 -1.00
 H  3.25  2.06  1.84
 H  1.95  2.37  0.89
 H  5.12  0.61  1.09
 H  5.26  1.80 -0.22
 H  4.75 -1.06 -0.73
 H  6.20 -0.32 -0.91
