13
set: 4478.00  0.00  0.00
 O  0.96 -0.06  0.00
 C  2.40 -0.03 -0.00
 C  2.86  1.36 -0.00
 C  3.28  2.49  0.00
 C  3.79  3.87  0.00
 C  2.74  4.88 -0.08
 C  1.88  5.73 -0.15
 H  0.70 -0.99 -0.00
 H  2.80 -0.54 -0.89
 H  2.81 -0.54  0.89
 H  4.49  4.00 -0.84
 H  4.38  4.04  0.92
 H  1.11  6.47 -0.21
