19
set: 4183.00  0.00  0.00
 C  1.98  1.01 -0.65
 O  3.21  1.69 -0.41
 C  4.31  1.00 -0.98
 C  5.60  1.80 -0.75
 C  6.82  0.97 -1.16
 C  5.50  3.15 -1.41
 C  6.37  3.68 -2.28
 H  1.19  1.60 -0.16
 H  1.99 -0.01 -0.22
 H  1.76  0.93 -1.73
 H  4.15  0.85 -2.07
 H  4.41 -0.01 -0.52
 H  5.65  1.97  0.34
 H  6.80  0.74 -2.24
 H  6.85  0.02 -0.62
 H  7.75  1.51 -0.95
 H  4.62  3.73 -1.13
 H  7.28  3.16 -2.60
 H  6.21  4.67 -2.70
