16
set: 4641.00  0.00  0.00
 C  0.93  0.06  0.13
 C  2.45  0.02  0.01
 C  3.27  1.07  0.83
 C  4.16 -0.12  1.27
 N  3.12 -1.08  0.76
 C  2.85  0.08 -1.45
 O  3.56 -0.73 -2.01
 H  0.65  0.07  1.19
 H  0.48 -0.83 -0.34
 H  0.51  0.95 -0.36
 H  2.67  1.50  1.65
 H  3.76  1.88  0.27
 H  5.11 -0.16  0.71
 H  4.36 -0.22  2.34
 H  3.50 -1.78  0.12
 H  2.44  0.97 -2.01
