14
set: 92.00  0.00  0.00
 C  0.98 -0.00 -0.07
 C  2.49  0.01  0.01
 C  3.33 -0.68 -1.06
 C  3.33  0.82 -0.97
 N  4.55  1.52 -0.63
 H  0.54  0.83  0.50
 H  0.56 -0.94  0.32
 H  0.65  0.10 -1.12
 H  2.91 -0.04  1.02
 H  2.81 -1.15 -1.89
 H  4.23 -1.20 -0.74
 H  2.76  1.34 -1.75
 H  5.16  0.92 -0.07
 H  4.34  2.34 -0.05
