18
set: 4676.00  0.00  0.00
 C  0.96  0.15 -0.16
 C  2.46 -0.00 -0.04
 C  3.32 -0.89 -0.89
 C  2.82 -1.71 -2.06
 O  3.67 -1.55 -3.20
 N  3.31  0.57 -1.09
 C  4.50  1.28 -0.63
 H  0.64  1.12  0.23
 H  0.44 -0.63  0.42
 H  0.63  0.08 -1.20
 H  2.84  0.12  0.99
 H  4.21 -1.30 -0.40
 H  1.78 -1.43 -2.31
 H  2.83 -2.78 -1.81
 H  3.72 -0.59 -3.36
 H  4.25  2.34 -0.44
 H  5.27  1.26 -1.42
 H  4.94  0.85  0.29
