17
set: 3547.00  0.00  0.00
 C  1.12  0.36  0.96
 C  2.37  0.09  0.16
 C  2.60 -1.08 -0.46
 C  3.38  1.19  0.06
 C  2.96  2.55 -0.56
 C  3.49  3.17  0.75
 O  3.67  1.85  1.34
 H  1.39  0.63  2.00
 H  0.46 -0.51  0.98
 H  0.56  1.21  0.56
 H  1.86 -1.89 -0.44
 H  3.52 -1.26 -1.00
 H  4.31  0.80 -0.38
 H  1.87  2.66 -0.69
 H  3.47  2.83 -1.49
 H  4.46  3.70  0.64
 H  2.80  3.79  1.33
