16
set: 2577.00  0.00  0.00
 C  0.99 -0.00 -0.61
 N  2.14 -0.03  0.28
 C  3.35  0.73 -0.05
 C  3.59  1.20 -1.48
 C  3.68 -0.09 -2.27
 C  3.61 -1.17 -1.47
 C  3.38 -0.78 -0.05
 H  0.42  0.91 -0.41
 H  0.35 -0.87 -0.38
 H  1.23 -0.04 -1.69
 H  3.76  1.32  0.78
 H  4.53  1.78 -1.55
 H  2.80  1.86 -1.86
 H  3.76 -0.11 -3.36
 H  3.65 -2.20 -1.81
 H  3.78 -1.38  0.76
