15
set: 5251.00  0.00  0.00
 C  1.06 -0.13 -0.38
 C  2.56  0.23 -0.23
 C  3.35 -0.88 -0.90
 O  3.84 -0.85 -2.01
 C  2.84  1.66 -0.70
 N  2.88  1.82 -2.07
 N  2.95  2.68  0.08
 H  0.45  0.58  0.20
 H  0.85 -1.14 -0.01
 H  0.75 -0.07 -1.43
 H  2.81  0.18  0.85
 H  3.43 -1.81 -0.28
 H  3.27  1.03 -2.59
 H  3.20  2.74 -2.36
 H  2.82  2.40  1.06
