13
set: 4828.00  0.00  0.00
 C  1.06  0.03  0.06
 C  2.55 -0.04 -0.02
 N  3.24 -1.14 -0.00
 C  4.64 -0.73 -0.10
 C  4.68  0.80 -0.17
 O  5.62  1.57 -0.25
 N  3.32  1.13 -0.11
 H  0.66 -0.98  0.13
 H  0.65  0.53 -0.83
 H  0.74  0.61  0.94
 H  5.22 -1.09  0.77
 H  5.12 -1.17 -0.99
 H  2.97  2.08 -0.14
