13
set: 997.00  0.00  0.00
 C  1.00 -0.02 -0.12
 C  2.49 -0.13 -0.02
 C  3.15 -1.30 -0.03
 C  3.21  1.18  0.20
 N  4.50  1.25 -0.27
 O  2.68  2.12  0.79
 H  0.70  0.57 -1.00
 H  0.61  0.52  0.76
 H  0.53 -1.01 -0.18
 H  2.62 -2.24 -0.14
 H  4.23 -1.35  0.10
 H  4.82  0.61 -0.99
 H  4.95  2.16 -0.22
