19
set: 2661.00  0.00  0.00
 C  2.35 -0.39 -1.12
 N  2.37  0.30  0.17
 C  3.23  1.48  0.23
 C  4.73  1.22  0.06
 C  5.72  2.33  0.49
 C  6.52  1.21  1.19
 N  5.32  0.33  1.11
 H  1.66 -1.25 -1.06
 H  3.33 -0.78 -1.48
 H  1.96  0.29 -1.89
 H  2.66 -0.34  0.91
 H  3.08  1.96  1.21
 H  2.90  2.19 -0.54
 H  4.96  0.88 -0.97
 H  5.27  3.04  1.20
 H  6.23  2.89 -0.30
 H  7.37  0.86  0.58
 H  6.87  1.40  2.22
 H  5.52 -0.62  0.80
