18
set: 2115.00  0.00  0.00
 C  3.99 -1.54 -0.27
 C  2.97 -0.50  0.14
 C  1.73 -0.86  0.52
 C  3.35  0.91  0.11
 C  4.55  1.41 -0.25
 C  4.88  2.87 -0.27
 N  6.09  3.13  0.54
 H  4.89 -1.48  0.37
 H  4.32 -1.38 -1.30
 H  3.58 -2.55 -0.18
 H  1.42 -1.90  0.55
 H  0.99 -0.11  0.81
 H  2.56  1.62  0.40
 H  5.37  0.74 -0.53
 H  3.99  3.46  0.03
 H  5.12  3.17 -1.31
 H  5.88  2.98  1.53
 H  6.37  4.11  0.45
