14
set: 577.00  0.00  0.00
 C  0.99 -0.26 -0.01
 N  2.40  0.02 -0.17
 C  2.78  1.23  0.02
 N  4.10  1.60 -0.12
 C  4.59  2.89  0.07
 C  5.87  3.27 -0.07
 H  0.85 -1.04  0.76
 H  0.58 -0.67 -0.95
 H  0.38  0.63  0.27
 H  2.11  2.06  0.30
 H  4.75  0.86 -0.38
 H  3.82  3.61  0.35
 H  6.66  2.57 -0.35
 H  6.15  4.31  0.10
