17
set: 4262.00  0.00  0.00
 O  1.60 -0.25 -0.90
 C  2.78  0.06 -0.19
 C  3.50 -1.02  0.56
 C  4.10 -0.45 -0.71
 C  5.14  0.67 -0.57
 C  4.31  1.96 -0.38
 C  2.98  1.51  0.28
 H  0.90 -0.42 -0.24
 H  3.09 -2.03  0.49
 H  3.97 -0.78  1.52
 H  4.11 -1.09 -1.59
 H  5.79  0.48  0.30
 H  5.79  0.73 -1.45
 H  4.84  2.73  0.20
 H  4.08  2.39 -1.37
 H  3.04  1.57  1.38
 H  2.13  2.13 -0.03
