16
set: 5436.00  0.00  0.00
 C  1.06  0.03 -0.75
 C  2.35  0.13  0.02
 N  2.86 -0.85  0.69
 O  2.04 -2.01  0.61
 C  3.06  1.44  0.06
 C  2.91  2.33  1.29
 C  4.23  1.68  0.98
 H  0.80  0.99 -1.21
 H  0.24 -0.30 -0.10
 H  1.15 -0.73 -1.54
 H  2.55 -2.64  1.14
 H  3.06  1.96 -0.90
 H  2.33  1.93  2.12
 H  2.80  3.40  1.12
 H  5.04  2.31  0.60
 H  4.54  0.84  1.60
