18
set: 1706.00  0.00  0.00
 C  0.95 -0.01  0.08
 C  2.46 -0.03 -0.08
 C  3.04 -1.26 -0.75
 C  4.09 -0.92 -1.51
 C  4.31  0.57 -1.42
 N  3.05  1.12 -0.85
 C  2.18  1.61 -1.93
 H  0.61  0.93  0.54
 H  0.65 -0.83  0.75
 H  0.42 -0.15 -0.87
 H  2.90  0.03  0.94
 H  2.67 -2.27 -0.58
 H  4.74 -1.60 -2.06
 H  5.16  0.79 -0.74
 H  4.54  1.05 -2.38
 H  2.70  2.44 -2.43
 H  1.25  2.01 -1.51
 H  1.92  0.84 -2.69
