16
set: 6690.00  0.00  0.00
 O  2.97  2.72 -1.50
 C  2.35  2.08 -0.67
 C  2.95  1.04  0.25
 C  4.45  0.86  0.13
 C  5.40  1.95  0.68
 C  6.24  0.78  1.25
 N  5.04 -0.10  1.11
 H  1.25  2.23 -0.54
 H  2.42  0.09  0.05
 H  2.67  1.30  1.29
 H  4.71  0.63 -0.92
 H  4.93  2.55  1.47
 H  5.88  2.61 -0.05
 H  7.08  0.51  0.59
 H  6.61  0.87  2.28
 H  5.23 -1.03  0.73
