17
set: 1264.00  0.00  0.00
 C  1.06  0.00  0.32
 C  2.38  0.01  0.06
 C  3.23  1.26 -0.09
 C  4.44  0.78 -0.92
 C  4.66 -0.66 -0.42
 C  3.26 -1.17 -0.14
 C  2.90 -2.47 -0.12
 H  0.50 -0.93  0.42
 H  0.50  0.93  0.43
 H  3.58  1.59  0.91
 H  2.69  2.09 -0.54
 H  4.18  0.77 -1.99
 H  5.33  1.42 -0.79
 H  5.21 -1.30 -1.13
 H  5.24 -0.65  0.52
 H  1.87 -2.77  0.09
 H  3.62 -3.26 -0.31
