13
set: 7071.00  0.00  0.00
 C  0.98  0.01 -0.01
 N  2.43 -0.01  0.00
 C  3.25  1.10  0.00
 C  4.57  0.68  0.01
 C  4.53 -0.74  0.01
Cl  5.91 -1.80  0.02
 C  3.21 -1.15  0.00
 H  0.64  1.05  0.00
 H  0.58 -0.50  0.88
 H  0.59 -0.48 -0.91
 H  2.83  2.10  0.00
 H  5.46  1.31  0.02
 H  2.77 -2.14  0.00
