17
set: 1084.00  0.00  0.00
 C  2.18  2.47 -2.23
 O  3.44  2.20 -1.64
 C  3.31  1.46 -0.42
 C  4.69  1.27  0.19
 C  5.61  0.43 -0.72
 N  5.23  2.59  0.56
 H  2.36  3.04 -3.15
 H  1.54  3.07 -1.56
 H  1.64  1.54 -2.49
 H  2.83  0.48 -0.62
 H  2.67  2.03  0.29
 H  4.53  0.71  1.13
 H  5.76  0.94 -1.68
 H  5.18 -0.56 -0.92
 H  6.59  0.28 -0.24
 H  5.30  3.16 -0.29
 H  6.18  2.48  0.92
