13
set: 3863.00  0.00  0.00
 C  1.54 -0.97  0.62
 C  2.62 -0.60  0.21
 C  3.91 -0.18 -0.33
 O  4.57  0.68  0.62
 C  5.81  1.16  0.11
 C  6.82  0.13 -0.10
 C  7.65 -0.75 -0.28
 H  0.59 -1.29  0.99
 H  3.76  0.36 -1.28
 H  4.53 -1.07 -0.54
 H  6.17  1.89  0.86
 H  5.66  1.72 -0.84
 H  8.38 -1.51 -0.43
