19
set: 3702.00  0.00  0.00
 C  0.53 -0.21 -1.01
 C  1.95 -0.52 -0.53
 C  2.70  0.72 -0.03
 C  4.12  0.40  0.46
 C  4.87  1.63  0.95
 C  6.26  1.38  1.46
 O  6.81  0.29  1.50
 H  0.02 -1.12 -1.37
 H  0.53  0.52 -1.83
 H -0.08  0.21 -0.20
 H  2.52 -0.98 -1.36
 H  1.92 -1.28  0.27
 H  2.12  1.18  0.79
 H  2.74  1.47 -0.83
 H  4.70 -0.07 -0.35
 H  4.08 -0.34  1.27
 H  4.32  2.15  1.77
 H  4.96  2.40  0.16
 H  6.80  2.29  1.82
