16
set: 6694.00  0.00  0.00
 O  4.54  0.55  1.93
 C  3.43  1.01  1.74
 C  3.01  1.82  0.54
 C  4.10  2.09 -0.50
 C  5.15  3.07 -0.00
 C  5.77  4.07 -0.91
 N  4.72  4.48  0.06
 H  2.62  0.85  2.49
 H  2.59  2.77  0.91
 H  2.15  1.29  0.10
 H  3.64  2.50 -1.40
 H  4.59  1.14 -0.78
 H  5.78  2.70  0.81
 H  5.45  4.11 -1.96
 H  6.80  4.37 -0.73
 H  5.16  4.95  0.86
