18
set: 1565.00  0.00  0.00
 C  0.61  0.35 -0.79
 C  0.06  1.32  0.20
 N  0.12 -0.11  0.51
 C  1.15 -0.50  1.46
 C  0.74 -0.59  2.95
 C  1.60 -1.88  3.06
 C  1.53 -2.00  1.51
 H  0.01  0.05 -1.66
 H  1.69  0.36 -0.96
 H -0.94  1.74  0.07
 H  0.78  1.98  0.70
 H  2.07  0.13  1.35
 H -0.33 -0.81  3.02
 H  0.98  0.26  3.61
 H  2.62 -1.66  3.41
 H  1.20 -2.71  3.65
 H  2.43 -2.33  0.97
 H  0.67 -2.61  1.19
