15
set: 1428.00  0.00  0.00
 C  0.96 -0.01 -0.02
 C  2.51 -0.02  0.00
 C  3.02 -0.73  1.29
 C  3.01 -0.74 -1.18
 C  3.40 -1.36 -2.15
 C  3.01  1.37 -0.01
 C  3.41  2.51  0.00
 H  0.59  0.50 -0.92
 H  0.58  0.53  0.87
 H  0.58 -1.04 -0.00
 H  2.65 -0.20  2.17
 H  4.11 -0.75  1.31
 H  2.65 -1.77  1.31
 H  3.75 -1.89 -3.01
 H  3.76  3.52  0.01
