15
set: 5248.00  0.00  0.00
 C  0.03  0.54 -0.24
 C  1.38  0.15  0.29
 C  2.48  0.88  0.09
 O  3.70  0.43  0.57
 C  4.77  1.29  0.51
 N  4.68  2.51  0.14
 N  5.87  3.23  0.02
 H -0.37 -0.23 -0.92
 H  0.07  1.49 -0.78
 H -0.70  0.64  0.58
 H  1.46 -0.78  0.86
 H  2.51  1.83 -0.45
 H  5.69  0.77  0.82
 H  5.65  4.21  0.21
 H  6.60  2.92  0.68
