20
set: 1975.00  0.00  0.00
 C  0.67  0.50  0.73
 C  1.84  0.27 -0.23
 C  3.07  1.15  0.01
 C  3.96  0.82  1.20
 N  3.28  1.02  2.49
 C  3.80  1.65 -1.22
 C  2.98  2.61 -0.39
 H -0.18 -0.14  0.45
 H  0.32  1.54  0.69
 H  0.96  0.27  1.76
 H  1.50  0.45 -1.27
 H  2.16 -0.78 -0.19
 H  4.90  1.40  1.09
 H  4.24 -0.25  1.14
 H  3.04  2.01  2.59
 H  3.93  0.81  3.25
 H  3.41  1.36 -2.20
 H  4.89  1.74 -1.18
 H  3.52  3.35  0.21
 H  2.04  2.97 -0.81
