15
set: 3589.00  0.00  0.00
 C  1.17 -0.50 -0.18
 C  2.48 -0.24 -0.08
 C  3.06  1.09 -0.10
 C  4.38  1.35 -0.02
 C  4.99  2.72  0.01
 C  5.46  3.05  1.42
 O  6.62  3.23  1.74
 H  0.78 -1.52 -0.16
 H  0.44  0.31 -0.28
 H  3.19 -1.07  0.01
 H  2.36  1.93 -0.20
 H  5.08  0.51  0.08
 H  4.23  3.47 -0.27
 H  5.85  2.80 -0.67
 H  4.64  3.10  2.18
