18
set: 5702.00  0.00  0.00
 C  1.96 -0.59  0.62
 N  3.42 -0.57  0.51
 C  3.90  0.63 -0.18
 C  5.43  0.69 -0.18
 C  6.11 -0.41 -1.01
 C  5.94  2.05 -0.62
 O  5.26  3.03 -0.87
 H  1.64 -1.54  1.08
 H  1.43 -0.48 -0.35
 H  1.63  0.22  1.27
 H  3.72 -1.40  0.00
 H  3.52  1.51  0.36
 H  3.53  0.72 -1.22
 H  5.78  0.59  0.86
 H  5.72 -0.42 -2.04
 H  5.93 -1.40 -0.57
 H  7.20 -0.26 -1.06
 H  7.06  2.11 -0.71
