13
set: 3400.00  0.00  0.00
 C  1.07  0.04  0.26
 C  2.27 -0.11 -0.32
 O  2.64 -1.25 -1.01
 C  4.07 -1.27 -1.21
 C  4.55  0.13 -0.91
 O  3.89  1.13 -1.69
 C  3.40  0.85 -0.34
 H  0.82  0.99  0.72
 H  0.34 -0.76  0.26
 H  4.53 -2.00 -0.53
 H  4.26 -1.57 -2.25
 H  5.59  0.33 -0.62
 H  3.47  1.67  0.38
