19
set: 3683.00  0.00  0.00
 C  3.00 -1.55  0.10
 C  2.50 -0.26  0.76
 C  3.29  0.99  0.33
 C  2.63  2.28  0.87
 C  4.73  0.96  0.84
 C  5.78  1.58 -0.06
 O  5.03  0.48  1.93
 H  2.39 -2.41  0.42
 H  4.04 -1.76  0.37
 H  2.93 -1.49 -1.00
 H  2.57 -0.35  1.85
 H  1.44 -0.10  0.52
 H  3.31  1.05 -0.77
 H  2.58  2.26  1.96
 H  1.60  2.37  0.48
 H  3.18  3.18  0.57
 H  5.44  2.54 -0.47
 H  5.95  0.92 -0.92
 H  6.72  1.72  0.48
