15
set: 991.00  0.00  0.00
 C  0.97  0.09  0.10
 C  2.47 -0.05 -0.00
 O  3.19  0.98  0.75
 C  4.13 -0.02  1.24
 C  3.22 -1.17  0.78
 N  3.85 -2.30  0.14
 H  0.47 -0.72 -0.45
 H  0.63  1.05 -0.33
 H  0.65  0.05  1.15
 H  2.79 -0.03 -1.07
 H  5.09  0.01  0.69
 H  4.33  0.09  2.32
 H  2.59 -1.54  1.61
 H  4.33 -2.02 -0.72
 H  3.17 -3.02 -0.11
