18
set: 2341.00  0.00  0.00
 C  2.43  3.24  1.66
 C  2.72  1.98  1.31
 C  3.86  1.18  1.87
 N  4.72  0.67  0.82
 C  5.62  1.63  0.13
 C  6.71  0.53  0.08
 C  5.90 -0.14  1.22
 H  1.58  3.77  1.23
 H  3.03  3.78  2.39
 H  2.10  1.46  0.57
 H  3.46  0.30  2.42
 H  4.42  1.80  2.61
 H  5.93  2.47  0.78
 H  5.24  2.03 -0.82
 H  6.68 -0.05 -0.85
 H  7.74  0.83  0.31
 H  5.75 -1.23  1.19
 H  6.29  0.14  2.22
