17
set: 2745.00  0.00  0.00
 C  2.68 -0.87 -0.88
 N  2.40  0.04  0.23
 C  2.94  1.39  0.04
 C  2.41  2.32  1.15
 N  2.83  3.71  0.91
 C  4.41  1.43 -0.01
 C  5.63  1.41  0.00
 H  2.28 -1.87 -0.63
 H  3.75 -0.98 -1.12
 H  2.16 -0.52 -1.78
 H  2.80 -0.35  1.09
 H  2.55  1.77 -0.92
 H  2.73  1.91  2.13
 H  1.31  2.27  1.11
 H  3.84  3.78  1.01
 H  2.41  4.32  1.61
 H  6.70  1.40 -0.01
