14
set: 5861.00  0.00  0.00
 C  2.80  0.79  2.10
 N  3.72  1.49  1.55
 O  3.91  1.12  0.21
 C  4.95  1.94 -0.36
 C  4.49  3.37 -0.65
 C  3.43  3.45 -1.73
 O  3.45  4.25 -2.65
 H  2.60  1.00  3.15
 H  2.25 -0.00  1.58
 H  5.24  1.41 -1.28
 H  5.81  1.96  0.33
 H  5.34  4.01 -0.94
 H  4.06  3.78  0.28
 H  2.60  2.71 -1.64
