16
set: 390.00  0.00  0.00
 C  0.95  0.06  0.08
 C  2.47 -0.00  0.02
 N  3.22  1.04  0.80
 C  4.17 -0.02  1.27
 C  3.22 -1.14  0.79
 N  3.82 -2.29  0.15
 H  0.51 -0.77 -0.50
 H  0.58  1.00 -0.34
 H  0.59 -0.02  1.12
 H  2.81  0.04 -1.03
 H  2.64  1.34  1.59
 H  5.11  0.02  0.68
 H  4.44  0.01  2.34
 H  2.60 -1.49  1.63
 H  4.31 -2.01 -0.71
 H  3.11 -2.98 -0.12
