13
set: 4922.00  0.00  0.00
 C  0.94 -0.09  0.02
 C  2.41  0.09  0.02
 C  3.23  1.19 -0.08
 N  2.90  2.54 -0.30
 C  4.55  0.63 -0.02
 N  4.54 -0.68  0.11
 O  3.18 -1.04  0.13
 H  0.44  0.85  0.30
 H  0.64 -0.86  0.74
 H  0.56 -0.39 -0.98
 H  3.48  3.18  0.24
 H  1.92  2.73 -0.12
 H  5.50  1.15 -0.07
