20
set: 5680.00  0.00  0.00
 C  2.10 -1.40  1.28
 N  3.39 -1.28  0.61
 C  3.42 -2.13 -0.58
 C  3.69  0.12  0.30
 C  5.12  0.37 -0.17
 C  6.18 -0.09  0.82
 O  7.46  0.28  0.29
 H  2.11 -0.81  2.21
 H  1.92 -2.45  1.55
 H  1.25 -1.06  0.65
 H  3.21 -3.17 -0.30
 H  4.41 -2.10 -1.05
 H  2.67 -1.82 -1.35
 H  3.51  0.69  1.23
 H  2.98  0.53 -0.45
 H  5.24  1.46 -0.33
 H  5.30 -0.10 -1.15
 H  6.10 -1.18  0.96
 H  6.00  0.39  1.80
 H  8.14 -0.10  0.88
