17
set: 4207.00  0.00  0.00
 C  3.26 -0.36  0.41
 O  2.52  0.87  0.45
 C  3.21  2.03  0.22
 C  2.25  3.18  0.31
 C  4.53  2.10 -0.05
 C  5.32  3.35 -0.27
 O  6.29  3.59  0.77
 H  2.53 -1.15  0.62
 H  4.05 -0.37  1.18
 H  3.71 -0.52 -0.58
 H  1.70  3.14  1.26
 H  1.50  3.11 -0.50
 H  2.75  4.15  0.23
 H  5.12  1.18 -0.07
 H  4.66  4.23 -0.40
 H  5.92  3.26 -1.19
 H  5.82  3.47  1.61
