17
set: 1463.00  0.00  0.00
 C  1.61 -0.25  1.54
 C  2.32  0.03  0.21
 C  3.01  1.36  0.19
 C  4.32  1.62 -0.02
 C  5.39  0.59 -0.29
 C  4.78  2.97  0.01
 C  5.23  4.11  0.03
 H  1.07 -1.21  1.51
 H  0.88  0.54  1.77
 H  2.33 -0.29  2.37
 H  1.57  0.01 -0.60
 H  3.03 -0.79 -0.02
 H  2.36  2.22  0.38
 H  5.00 -0.44 -0.25
 H  6.20  0.67  0.45
 H  5.84  0.75 -1.28
 H  5.61  5.11  0.05
