15
set: 3103.00  0.00  0.00
 C  2.09 -0.11 -0.01
 C  0.74 -0.82  0.17
 C -0.41 -1.50 -0.55
 C -1.54 -0.49 -0.24
 C -1.34  0.77  0.23
 O -0.12  1.43  0.37
 C  0.80  0.58 -0.31
 H  2.74 -0.26 -0.88
 H  2.62  0.04  0.93
 H  0.53 -0.81  1.25
 H -0.67 -2.49 -0.15
 H -0.25 -1.62 -1.63
 H -2.58 -0.83 -0.29
 H -2.17  1.41  0.53
 H  0.63  0.68 -1.39
