18
set: 4947.00  0.00  0.00
 C  2.44 -1.59 -0.40
 C  1.88 -0.18 -0.15
 C  2.94  0.84  0.21
 C  3.67  0.66  1.53
 N  2.71  0.64  2.65
 C  3.60  1.62 -0.85
 O  2.56  2.23 -0.05
 H  1.65 -2.27 -0.72
 H  2.88 -2.01  0.52
 H  3.22 -1.58 -1.18
 H  1.14 -0.21  0.66
 H  1.36  0.18 -1.05
 H  4.43  1.46  1.60
 H  4.20 -0.30  1.52
 H  2.28  1.57  2.73
 H  3.20  0.47  3.53
 H  3.33  1.43 -1.90
 H  4.61  2.03 -0.69
