16
set: 5578.00  0.00  0.00
 C  0.87 -0.13  0.05
 C  2.37 -0.19 -0.10
 O  2.89  1.10  0.29
 N  4.30  1.07  0.15
 C  4.80  2.21  0.49
 O  6.12  2.46  0.46
 C  6.95  1.36  0.01
 H  0.43 -1.09 -0.24
 H  0.44  0.65 -0.60
 H  0.58  0.09  1.08
 H  2.67 -0.40 -1.15
 H  2.81 -0.97  0.54
 H  4.21  3.07  0.84
 H  7.98  1.74  0.05
 H  6.68  1.07 -1.01
 H  6.83  0.49  0.68
