20
set: 2377.00  0.00  0.00
 C  0.68  0.10  0.74
 C  2.20  0.03  0.76
 C  2.90  1.33  0.32
 N  2.63  2.51  1.17
 C  4.43  1.16  0.23
 C  4.88  0.19 -0.82
 C  5.66 -0.88 -0.61
 H  0.23 -0.86  1.03
 H  0.30  0.34 -0.27
 H  0.29  0.86  1.42
 H  2.54 -0.79  0.10
 H  2.55 -0.22  1.78
 H  2.53  1.59 -0.69
 H  2.92  2.31  2.13
 H  1.62  2.68  1.21
 H  4.82  0.86  1.21
 H  4.85  2.16  0.00
 H  4.54  0.39 -1.84
 H  6.03 -1.13  0.39
 H  5.97 -1.54 -1.42
