19
set: 2938.00  0.00  0.00
 N  1.10  2.14  0.38
 C  2.46  1.91 -0.14
 C  3.40  1.47  0.99
 C  4.80  1.14  0.50
 C  5.74  2.27  0.01
 C  6.86  1.54  0.79
 N  5.80  0.84  1.57
 H  0.48  2.44 -0.37
 H  1.12  2.91  1.06
 H  2.90  2.79 -0.65
 H  2.40  1.11 -0.89
 H  2.96  0.58  1.48
 H  3.47  2.26  1.75
 H  4.75  0.34 -0.27
 H  5.48  3.24  0.47
 H  5.87  2.40 -1.07
 H  7.44  0.87  0.13
 H  7.55  2.14  1.40
 H  5.97 -0.16  1.74
