15
set: 5795.00  0.00  0.00
 C  1.15 -0.51 -0.14
 N  2.55 -0.15 -0.27
 C  2.97  0.98  0.18
 N  2.17  1.95  0.84
 O  1.05  2.40  0.05
 C  4.42  1.24  0.12
 C  5.05  2.41  0.31
 H  1.07 -1.60 -0.22
 H  0.55 -0.06 -0.95
 H  0.72 -0.19  0.82
 H  2.71  2.80  1.05
 H  0.28  2.17  0.62
 H  5.00  0.35 -0.13
 H  4.52  3.35  0.54
 H  6.13  2.49  0.24
