21
set: 3859.00  0.00  0.00
 C  0.93 -0.03 -0.06
 C  2.46  0.09  0.01
 C  2.92  1.54 -0.04
 O  4.34  1.58  0.03
 C  4.85  2.91  0.02
 C  6.37  2.87  0.07
 C  6.99  4.27  0.08
 H  0.62 -1.08 -0.02
 H  0.54  0.40 -0.99
 H  0.45  0.49  0.78
 H  2.92 -0.46 -0.83
 H  2.84 -0.37  0.94
 H  2.49  2.11  0.81
 H  2.57  2.03 -0.97
 H  4.45  3.47  0.89
 H  4.51  3.44 -0.89
 H  6.74  2.29 -0.79
 H  6.68  2.31  0.97
 H  6.71  4.83 -0.82
 H  8.09  4.21  0.11
 H  6.66  4.85  0.95
