16
set: 2122.00  0.00  0.00
 C  0.68 -0.10 -0.06
 C  2.12 -0.51  0.07
 C  2.49 -1.79  0.23
 C  3.15  0.60  0.01
 C  3.08  1.55  1.22
 C  4.09  2.61  1.15
 N  4.91  3.44  1.08
 H  0.36  0.57  0.76
 H  0.01 -0.97 -0.05
 H  0.51  0.46 -1.00
 H  1.75 -2.59  0.27
 H  3.54 -2.07  0.31
 H  3.01  1.19 -0.91
 H  4.16  0.16 -0.05
 H  3.23  0.99  2.16
 H  2.10  2.03  1.29
