13
set: 6101.00  0.00  0.00
 N  0.91  0.12  0.00
 C  2.31  0.15 -0.03
 C  3.17  1.22 -0.02
 N  2.80  2.57 -0.06
 C  4.50  0.68 -0.08
 C  4.36 -0.68 -0.11
 O  3.05 -1.04 -0.10
 H  0.49 -0.21 -0.87
 H  0.54 -0.44  0.78
 H  3.37  3.16  0.55
 H  1.81  2.69  0.17
 H  5.43  1.24 -0.10
 H  5.08 -1.49 -0.14
