16
set: 530.00  0.00  0.00
 C  1.14 -0.31 -0.86
 C  2.25 -0.24  0.19
 N  3.12  0.91 -0.07
 N  4.24  0.95  0.72
 C  4.77  2.10  0.98
 C  6.04  2.20  1.76
 H  0.50 -1.18 -0.68
 H  1.56 -0.39 -1.87
 H  0.50  0.58 -0.83
 H  2.89 -1.13  0.14
 H  1.81 -0.20  1.20
 H  2.60  1.80 -0.11
 H  4.30  3.03  0.63
 H  6.38  1.20  2.05
 H  5.91  2.82  2.66
 H  6.83  2.67  1.16
