14
set: 4754.00  0.00  0.00
 C  0.95  0.02  0.17
 C  2.45  0.05 -0.09
 C  3.31  1.03  0.76
 N  4.09 -0.16  1.17
 O  4.86 -0.26  2.34
 C  3.24 -1.10  0.60
 O  3.17 -2.31  0.67
 H  0.51 -0.87 -0.31
 H  0.46  0.91 -0.24
 H  0.73 -0.04  1.24
 H  2.68  0.11 -1.16
 H  2.75  1.48  1.60
 H  3.89  1.79  0.23
 H  5.78 -0.36  2.02
