16
set: 250.00  0.00  0.00
 C  0.99  0.03  0.02
 C  2.48 -0.01 -0.03
 C  3.27 -1.10 -0.10
 C  4.74 -0.75 -0.08
 C  4.74  0.78 -0.33
 C  3.31  1.25  0.05
 H  0.55 -0.98 -0.03
 H  0.58  0.62 -0.81
 H  0.64  0.51  0.95
 H  2.91 -2.12 -0.13
 H  5.18 -1.01  0.90
 H  5.33 -1.29 -0.84
 H  4.91  0.98 -1.39
 H  5.52  1.31  0.24
 H  2.94  2.05 -0.62
 H  3.27  1.67  1.08
