18
set: 2839.00  0.00  0.00
 N  0.76 -0.07  0.37
 C  2.19 -0.03  0.06
 C  3.01  1.09  0.76
 C  4.12  0.05  1.07
 C  3.07 -1.08  0.78
 C  5.31  0.00  0.16
 C  5.67  0.91 -0.76
 H  0.35 -0.91 -0.04
 H  0.29  0.72 -0.08
 H  2.42 -0.03 -1.02
 H  2.50  1.40  1.69
 H  3.27  1.98  0.18
 H  4.48  0.05  2.11
 H  3.41 -1.95  0.20
 H  2.58 -1.42  1.71
 H  5.94 -0.89  0.28
 H  5.10  1.82 -0.93
 H  6.57  0.77 -1.37
