18
set: 2363.00  0.00  0.00
 C  0.78  0.27  0.01
 C  2.31  0.02 -0.00
 C  2.72 -0.76  1.25
 N  2.75 -0.75 -1.18
 C  3.02  1.40 -0.05
 C  4.47  1.36  0.03
 C  5.68  1.36  0.11
 H  0.47  0.83 -0.88
 H  0.47  0.84  0.90
 H  0.24 -0.69  0.02
 H  2.45 -0.21  2.16
 H  3.81 -0.93  1.25
 H  2.22 -1.74  1.28
 H  2.41 -0.30 -2.04
 H  2.32 -1.68 -1.16
 H  2.63  2.02  0.78
 H  2.72  1.92 -0.98
 H  6.75  1.35  0.17
