14
set: 4628.00  0.00  0.00
 C  0.91  0.04  0.07
 C  2.40  0.10  0.03
 C  3.29  1.16 -0.04
 C  4.62  0.64 -0.03
 C  4.53 -0.74  0.05
 N  3.19 -1.04  0.07
 O  2.68 -2.33  0.25
 H  0.51  1.06  0.12
 H  0.55 -0.52  0.95
 H  0.49 -0.45 -0.82
 H  3.00  2.20 -0.10
 H  5.54  1.21 -0.08
 H  5.28 -1.53  0.11
 H  2.55 -2.68 -0.65
