13
set: 3441.00  0.00  0.00
 C  0.91  0.08  0.00
 C  2.26  0.01  0.07
 O  2.97  1.14  0.48
 C  4.29  1.16 -0.03
 O  5.06  0.03  0.39
 C  4.40 -1.13  0.10
 C  3.07 -1.17 -0.14
 H  0.39  1.01  0.21
 H  0.33 -0.81 -0.23
 H  4.78  2.05  0.39
 H  4.27  1.17 -1.13
 H  5.06 -2.00  0.10
 H  2.59 -2.11 -0.41
