14
set: 4997.00  0.00  0.00
 C  1.02  0.18  0.15
 C  2.50  0.03 -0.21
 C  3.28  1.30  0.04
 O  3.64  1.59  1.41
 C  4.70  1.27  0.48
 C  5.60  2.34  0.11
 N  6.35  3.18 -0.19
 H  0.47 -0.75 -0.04
 H  0.54  0.98 -0.44
 H  0.90  0.44  1.22
 H  2.61 -0.23 -1.27
 H  2.95 -0.79  0.38
 H  2.96  2.18 -0.52
 H  5.18  0.30  0.64
