16
set: 542.00  0.00  0.00
 C  0.99  0.00  0.06
 N  2.44 -0.00  0.08
 C  3.13  1.01  0.91
 C  4.21 -0.05  1.25
 N  5.41  0.09  0.44
 C  3.12 -1.09  0.82
 H  0.62 -0.86 -0.51
 H  0.63  0.91 -0.45
 H  0.54 -0.03  1.07
 H  2.55  1.31  1.80
 H  3.47  1.91  0.37
 H  4.50 -0.10  2.31
 H  5.15  0.09 -0.55
 H  6.02 -0.71  0.58
 H  3.45 -1.94  0.20
 H  2.54 -1.45  1.69
