16
set: 6100.00  0.00  0.00
 N  0.95  0.08  0.04
 C  2.42  0.07  0.01
 C  3.04  1.19  0.86
 C  4.41  0.60  1.20
 O  4.18 -0.83  1.32
 C  3.03 -1.17  0.64
 C  2.59 -2.43  0.58
 H  0.60 -0.82 -0.30
 H  0.60  0.79 -0.61
 H  2.83  0.15 -1.02
 H  2.43  1.32  1.77
 H  3.12  2.15  0.34
 H  5.15  0.77  0.41
 H  4.82  0.94  2.16
 H  1.68 -2.68  0.04
 H  3.13 -3.24  1.07
