14
set: 6505.00  0.00  0.00
 O  0.91 -0.08  0.45
 C  2.10 -0.04  0.17
 C  2.84  1.23 -0.24
 C  4.32  1.24  0.16
 C  4.98 -0.07 -0.15
 C  4.26 -1.20 -0.13
 N  2.88 -1.19  0.15
 H  2.29  2.08  0.15
 H  2.76  1.27 -1.35
 H  4.41  1.45  1.25
 H  4.84  2.08 -0.35
 H  6.05 -0.12 -0.36
 H  4.68 -2.19 -0.32
 H  2.39 -2.06  0.32
