15
set: 6573.00  0.00  0.00
 O  1.12 -0.03  0.65
 C  2.45  0.05  0.11
 C  2.60  1.28 -0.80
 N  3.91  1.20 -1.44
 C  4.37 -0.04 -1.86
 N  3.90 -1.19 -1.55
 C  2.71 -1.22 -0.69
 H  1.04  0.62  1.37
 H  3.20  0.12  0.92
 H  2.54  2.21 -0.21
 H  1.77  1.28 -1.53
 H  4.24  2.01 -1.96
 H  5.26  0.01 -2.49
 H  1.82 -1.43 -1.31
 H  2.80 -2.08 -0.00
