18
set: 1543.00  0.00  0.00
 C -1.75  0.86  0.54
 C -1.17 -0.25 -0.31
 C -0.33 -1.36  0.30
 C  1.10 -1.32 -0.27
 N  1.69  0.04 -0.25
 C  0.86  1.08  0.39
 C -0.50  1.11 -0.27
 H -2.68  1.32  0.20
 H -1.65  0.77  1.62
 H -1.71 -0.51 -1.23
 H -0.30 -1.24  1.40
 H -0.78 -2.35  0.11
 H  1.73 -2.03  0.29
 H  1.06 -1.68 -1.31
 H  2.61  0.01  0.19
 H  0.73  0.93  1.48
 H  1.38  2.04  0.26
 H -0.59  1.74 -1.16
