17
set: 2876.00  0.00  0.00
 N  1.01 -0.10 -0.16
 C  2.45 -0.12  0.02
 C  3.25 -0.82 -1.08
 N  2.64 -1.46 -2.22
 C  3.27  0.68 -1.00
 C  4.45  1.47 -0.56
 C  5.71  1.03 -0.45
 H  0.61  0.76  0.24
 H  0.57 -0.88  0.34
 H  2.86 -0.16  1.03
 H  4.16 -1.34 -0.74
 H  1.71 -1.05 -2.35
 H  2.46 -2.45 -1.99
 H  2.64  1.17 -1.74
 H  4.23  2.51 -0.29
 H  5.99  0.01 -0.72
 H  6.51  1.68 -0.10
