17
set: 1105.00  0.00  0.00
 N  2.19 -0.96  1.02
 C  2.17 -0.10 -0.18
 C  3.09  1.12 -0.05
 C  4.60  0.87 -0.11
 C  5.24  0.18  1.10
 O  4.96 -1.21  1.23
 H  1.63 -1.80  0.87
 H  1.76 -0.46  1.81
 H  1.15  0.25 -0.42
 H  2.50 -0.72 -1.03
 H  2.84  1.66  0.89
 H  2.82  1.81 -0.86
 H  5.10  1.84 -0.23
 H  4.84  0.28 -1.01
 H  4.96  0.74  2.02
 H  6.34  0.26  1.02
 H  3.96 -1.27  1.27
