19
set: 2629.00  0.00  0.00
 C  2.34 -0.98 -0.83
 N  2.18  0.19  0.05
 C  3.34  1.04  0.07
 C  3.44  2.12 -0.99
 C  3.15  2.49  0.44
 N  4.20  3.13  1.19
 C  4.01  3.05  2.64
 H  1.44 -1.61 -0.76
 H  3.22 -1.60 -0.60
 H  2.42 -0.63 -1.87
 H  1.97 -0.12  1.00
 H  4.30  0.61  0.38
 H  2.61  2.19 -1.70
 H  4.43  2.35 -1.38
 H  2.11  2.77  0.66
 H  4.28  4.11  0.91
 H  4.08  2.00  2.96
 H  3.03  3.44  2.99
 H  4.80  3.61  3.15
