15
set: 3767.00  0.00  0.00
 C  0.96 -0.01 -0.01
 C  2.41  0.01 -0.01
 C  3.63  0.01  0.01
 C  5.09  0.04 -0.03
 O  5.62 -0.75 -1.12
 C  5.60  1.47 -0.10
 C  6.42  2.01  0.80
 H  0.55  1.01 -0.01
 H  0.57 -0.52  0.88
 H  0.57 -0.53 -0.90
 H  5.50 -0.43  0.88
 H  5.03 -0.61 -1.88
 H  5.26  2.04 -0.97
 H  6.76  1.44  1.67
 H  6.77  3.04  0.71
