13
set: 4568.00  0.00  0.00
 C -1.50  0.62  0.27
 C -1.34 -0.77 -0.35
 C -0.25 -1.51  0.37
 N  0.98 -1.13  0.45
 N  1.42 -0.06 -0.32
 C  0.78  1.04 -0.50
 O -0.43  1.52 -0.11
 H -2.42  1.12 -0.06
 H -1.52  0.55  1.37
 H -1.12 -0.66 -1.42
 H -2.30 -1.32 -0.27
 H -0.50 -2.40  0.96
 H  1.31  1.83 -1.05
