17
set: 431.00  0.00  0.00
 C  3.69 -1.70  1.22
 C  3.24 -0.89  0.03
 C  2.61 -1.47 -1.01
 C  3.51  0.59  0.06
 C  5.01  0.96  0.02
 N  5.17  2.42  0.09
 H  4.79 -1.66  1.34
 H  3.39 -2.75  1.13
 H  3.26 -1.29  2.15
 H  2.41 -2.54 -1.03
 H  2.28 -0.88 -1.87
 H  3.09  1.03  0.98
 H  3.01  1.08 -0.79
 H  5.46  0.50 -0.88
 H  5.52  0.53  0.89
 H  4.78  2.85 -0.76
 H  6.16  2.66  0.10
