19
set: 3454.00  0.00  0.00
 C  2.99 -1.09 -0.69
 C  2.39  0.11  0.04
 C  3.33  1.30  0.09
 C  3.47  2.34 -1.04
 C  2.66  2.29 -2.32
 C  2.84  2.71  0.28
 O  3.42  3.63  1.18
 H  2.29 -1.94 -0.70
 H  3.92 -1.43 -0.21
 H  3.23 -0.85 -1.74
 H  2.13 -0.17  1.07
 H  1.45  0.41 -0.45
 H  4.29  1.09  0.59
 H  4.49  2.71 -1.17
 H  1.63  1.94 -2.15
 H  3.12  1.61 -3.06
 H  2.59  3.29 -2.78
 H  1.76  2.86  0.28
 H  4.38  3.48  1.19
