19
set: 3470.00  0.00  0.00
 C  2.01 -1.62 -0.36
 C  1.69 -0.13 -0.16
 C  2.91  0.72  0.15
 C  3.68  0.43  1.42
 C  2.84  0.57  2.70
 C  3.61  1.38 -0.97
 O  2.72  2.14 -0.12
 H  1.10 -2.18 -0.64
 H  2.41 -2.08  0.55
 H  2.75 -1.76 -1.17
 H  0.96 -0.01  0.65
 H  1.22  0.28 -1.07
 H  4.54  1.12  1.46
 H  4.11 -0.59  1.36
 H  2.39  1.57  2.75
 H  3.47  0.43  3.59
 H  2.03 -0.17  2.74
 H  3.26  1.23 -2.00
 H  4.67  1.63 -0.87
