17
set: 3815.00  0.00  0.00
 C  0.99 -0.22  0.33
 C  2.42 -0.11 -0.22
 C  2.73 -1.17 -1.28
 C  2.75  1.32 -0.72
 O  4.14  1.47 -0.94
 C  1.98  1.72 -1.96
 O  2.55  2.13 -2.96
 H  0.78  0.55  1.08
 H  0.85 -1.20  0.81
 H  0.24 -0.14 -0.47
 H  3.12 -0.26  0.62
 H  2.03 -1.10 -2.13
 H  2.63 -2.18 -0.86
 H  3.75 -1.06 -1.67
 H  2.41  2.03  0.07
 H  4.22  1.85 -1.84
 H  0.87  1.64 -1.92
