15
set: 5200.00  0.00  0.00
 C  0.66 -0.02 -0.16
 C  2.00 -0.10  0.50
 C  3.10  0.49  0.01
 N  4.38  0.44  0.56
 O  4.52 -0.22  1.79
 C  5.44  1.26  0.19
 N  6.57  1.42  0.76
 H  0.27 -1.02 -0.42
 H  0.69  0.57 -1.08
 H -0.09  0.44  0.50
 H  2.07 -0.66  1.44
 H  3.07  1.07 -0.91
 H  4.74 -1.14  1.56
 H  5.21  1.80 -0.74
 H  6.62  0.86  1.62
