13
set: 4278.00  0.00  0.00
 O  1.11  0.06  0.01
 C  2.31  0.04  0.07
 C  3.46  1.08  0.01
 C  4.09  0.04 -0.98
 C  3.46 -1.00 -0.01
 O  4.17 -0.76  1.23
 C  4.19  0.71  1.30
 H  3.30  2.14 -0.22
 H  5.19  0.02 -1.03
 H  3.63  0.05 -1.98
 H  3.35 -2.07 -0.20
 H  5.24  1.05  1.33
 H  3.67  1.04  2.21
