14
set: 816.00  0.00  0.00
 C  0.65 -0.03  0.23
 C  2.02 -0.69  0.18
 C  3.06  0.16 -0.52
 O  2.88  1.25 -1.01
 O  4.27 -0.48 -0.54
 C  5.33  0.25 -1.19
 H -0.07 -0.69  0.74
 H  0.27  0.17 -0.78
 H  0.69  0.92  0.76
 H  1.98 -1.67 -0.34
 H  2.40 -0.92  1.19
 H  5.51  1.21 -0.68
 H  5.08  0.45 -2.24
 H  6.22 -0.39 -1.12
