17
set: 1280.00  0.00  0.00
 C  1.02  0.01  0.07
 C  2.35  0.01  0.01
 C  3.25  1.22  0.05
 C  4.42  0.83 -0.87
 C  4.58 -0.67 -0.65
 C  5.70 -1.37 -0.82
 C  3.24 -1.21 -0.17
 H  0.44 -0.91  0.00
 H  0.46  0.94  0.18
 H  3.63  1.36  1.08
 H  2.74  2.15 -0.24
 H  4.13  1.02 -1.92
 H  5.35  1.38 -0.68
 H  5.73 -2.45 -0.63
 H  6.63 -0.90 -1.15
 H  2.80 -1.93 -0.88
 H  3.37 -1.75  0.78
