18
set: 5883.00  0.00  0.00
 C  2.03 -0.48 -1.38
 O  2.20  0.06 -0.07
 C  3.01  1.22 -0.07
 C  2.42  2.58 -0.52
 N  3.00  3.23  0.71
 C  3.22  1.86  1.31
 C  4.52  1.64  2.06
 H  1.43 -1.39 -1.28
 H  3.00 -0.74 -1.84
 H  1.50  0.22 -2.05
 H  3.98  1.02 -0.58
 H  1.32  2.60 -0.47
 H  2.75  3.00 -1.48
 H  3.92  3.62  0.47
 H  2.36  1.63  1.96
 H  5.39  1.82  1.41
 H  4.58  0.60  2.42
 H  4.59  2.30  2.93
