16
set: 1704.00  0.00  0.00
 C  0.99  0.02 -0.01
 N  2.45 -0.00 -0.00
 C  3.24  1.13  0.01
 C  4.57  0.72  0.01
 C  4.57 -0.70  0.01
 C  3.25 -1.13 -0.00
 C  2.70 -2.53 -0.01
 H  0.66  1.06 -0.01
 H  0.58 -0.48  0.88
 H  0.59 -0.47 -0.91
 H  2.80  2.12  0.01
 H  5.43  1.38  0.02
 H  5.44 -1.35  0.01
 H  1.60 -2.53 -0.00
 H  3.04 -3.10  0.86
 H  3.02 -3.08 -0.91
