19
set: 2867.00  0.00  0.00
 N  0.99 -0.01  0.10
 C  2.46 -0.00  0.02
 C  2.95 -1.36 -0.53
 C  2.60 -1.52 -2.02
 C  3.14 -0.33 -2.82
 N  2.57  0.91 -2.29
 C  2.96  1.13 -0.90
 H  0.64  0.94  0.28
 H  0.69 -0.59  0.89
 H  2.94  0.16  1.01
 H  2.51 -2.18  0.06
 H  4.04 -1.42 -0.39
 H  3.03 -2.46 -2.41
 H  1.51 -1.56 -2.14
 H  4.26 -0.34 -2.77
 H  2.86 -0.43 -3.88
 H  2.88  1.70 -2.86
 H  4.07  1.18 -0.76
 H  2.54  2.09 -0.56
