15
set: 4288.00  0.00  0.00
 O  1.13 -0.29  0.17
 C  2.52 -0.07  0.02
 C  3.14 -0.57 -1.25
 C  3.03  0.92 -0.99
 C  4.28  1.75 -0.69
 C  5.01  2.15 -1.89
 C  5.60  2.47 -2.90
 H  0.77  0.44  0.70
 H  3.10 -0.20  0.95
 H  2.45 -0.99 -1.99
 H  4.12 -1.04 -1.20
 H  2.26  1.44 -1.56
 H  4.96  1.16 -0.04
 H  4.01  2.65 -0.12
 H  6.12  2.76 -3.79
