17
set: 3426.00  0.00  0.00
 C  0.99  0.03 -0.18
 C  2.47 -0.06  0.19
 O  2.70 -1.22  1.03
 C  3.31 -0.83  2.28
 C  4.64 -1.56  2.47
 C  3.44  0.67  2.18
 C  2.98  1.10  1.00
 H  0.66 -0.89 -0.67
 H  0.82  0.87 -0.87
 H  0.37  0.19  0.72
 H  3.06 -0.18 -0.74
 H  2.63 -1.11  3.10
 H  5.35 -1.28  1.68
 H  4.48 -2.65  2.43
 H  5.08 -1.31  3.45
 H  3.86  1.28  2.98
 H  2.96  2.12  0.64
