20
set: 2657.00  0.00  0.00
 C  1.08  2.28 -0.27
 N  2.52  2.17 -0.52
 C  3.17  1.19  0.35
 C  4.67  1.14  0.12
 C  5.55  2.32  0.63
 C  6.63  1.28  1.03
 C  5.53  0.19  1.00
 H  0.66  3.08 -0.89
 H  0.81  2.47  0.79
 H  0.59  1.34 -0.57
 H  2.96  3.08 -0.36
 H  2.74  0.20  0.12
 H  2.97  1.37  1.43
 H  4.87  0.96 -0.95
 H  5.11  2.80  1.52
 H  5.84  3.11 -0.09
 H  7.37  1.14  0.23
 H  7.17  1.44  1.98
 H  5.79 -0.79  0.59
 H  5.07  0.05  1.99
