19
set: 3538.00  0.00  0.00
 C  1.04 -0.23 -0.23
 C  2.55 -0.14 -0.47
 C  3.25  0.86  0.46
 C  4.74  0.96  0.23
 C  5.68  1.48  1.31
 C  5.70  0.02  0.92
 O  6.80 -0.57  0.27
 H  0.56 -0.94 -0.92
 H  0.55  0.75 -0.38
 H  0.82 -0.55  0.79
 H  2.74  0.16 -1.52
 H  3.01 -1.13 -0.35
 H  3.06  0.57  1.51
 H  2.79  1.86  0.34
 H  5.03  1.23 -0.79
 H  5.25  1.75  2.28
 H  6.52  2.10  1.00
 H  5.28 -0.69  1.62
 H  7.17  0.08 -0.36
