14
set: 6177.00  0.00  0.00
 N  1.25 -0.46  0.86
 C  2.30 -0.22  0.41
 C  3.63  0.09 -0.15
 C  4.31  1.28  0.62
 C  5.51  0.61  1.33
 C  5.17 -0.88  1.25
 O  4.51 -1.03 -0.02
 H  3.51  0.29 -1.22
 H  3.61  1.73  1.33
 H  4.63  2.05 -0.09
 H  6.44  0.81  0.79
 H  5.62  0.95  2.36
 H  6.04 -1.55  1.24
 H  4.49 -1.19  2.07
