14
set: 6549.00  0.00  0.00
 O  0.82 -0.04  0.19
 C  2.24 -0.01  0.04
 C  3.06  1.04  0.85
 N  4.02 -0.01  1.31
 C  3.10 -1.07  0.82
 C  2.54  0.01 -1.39
 C  2.87  0.03 -2.56
 H  0.64 -0.05  1.15
 H  2.48  1.44  1.69
 H  3.49  1.88  0.28
 H  4.86  0.01  0.72
 H  3.55 -1.88  0.23
 H  2.52 -1.51  1.65
 H  3.14  0.05 -3.59
