17
set: 4121.00  0.00  0.00
 C  1.59 -0.61 -0.92
 O  2.21 -0.01  0.21
 C  2.99  1.15 -0.09
 C  4.19  0.85 -0.98
 C  2.20  2.44 -0.46
 O  2.81  3.16  0.65
 C  3.33  1.91  1.21
 H  0.93 -1.39 -0.53
 H  2.32 -1.07 -1.61
 H  0.98  0.12 -1.49
 H  4.81  1.76 -1.08
 H  3.89  0.55 -1.99
 H  4.81  0.06 -0.54
 H  1.11  2.33 -0.33
 H  2.43  2.91 -1.43
 H  4.40  2.00  1.48
 H  2.74  1.57  2.07
