17
set: 3021.00  0.00  0.00
 N  1.51  0.41  2.59
 C  2.34  0.72  1.66
 N  3.63  0.24  1.63
 C  4.67  0.74  0.77
 C  5.86  1.56  1.35
 C  6.77  0.86  0.31
 C  5.70 -0.26  0.19
 H  0.60  0.83  2.40
 H  2.12  1.37  0.79
 H  3.89 -0.30  2.45
 H  4.19  1.30 -0.04
 H  6.10  1.23  2.37
 H  5.78  2.66  1.33
 H  6.85  1.44 -0.62
 H  7.78  0.57  0.63
 H  5.50 -0.71 -0.79
 H  5.90 -1.07  0.91
