19
set: 2002.00  0.00  0.00
 C  2.76 -0.99 -0.75
 C  2.23  0.15  0.13
 C  3.27  1.23  0.37
 N  3.57  2.24 -0.67
 C  2.87  2.64  0.58
 C  3.65  3.58  1.47
 N  3.55  4.95  0.94
 H  1.99 -1.76 -0.91
 H  3.63 -1.48 -0.29
 H  3.07 -0.62 -1.74
 H  1.90 -0.25  1.10
 H  1.34  0.61 -0.34
 H  4.17  0.88  0.89
 H  2.88  2.15 -1.43
 H  1.80  2.87  0.50
 H  4.68  3.20  1.55
 H  3.21  3.57  2.48
 H  4.01  4.98  0.03
 H  4.06  5.60  1.54
