17
set: 4291.00  0.00  0.00
 O  0.99  0.10  0.07
 C  2.42  0.00  0.03
 C  3.02 -1.13  0.92
 C  3.83 -0.26  1.91
 C  4.50  0.76  0.94
 C  3.03  1.22  0.73
 C  2.82  0.87  2.24
 H  0.62 -0.68 -0.38
 H  2.76 -0.06 -1.02
 H  3.66 -1.83  0.35
 H  2.22 -1.71  1.41
 H  4.39 -0.78  2.70
 H  5.05  0.37  0.08
 H  5.10  1.51  1.47
 H  2.77  2.21  0.32
 H  3.25  1.63  2.90
 H  1.80  0.60  2.56
