17
set: 6026.00  0.00  0.00
 C  2.08 -0.15 -2.22
 O  2.91 -0.07 -1.06
 N  3.59  1.17 -1.09
 C  4.36  1.29 -0.06
 C  5.18  2.53  0.11
 C  6.69  2.25  0.06
 N  7.44  3.47  0.38
 H  1.56 -1.12 -2.15
 H  2.67 -0.11 -3.15
 H  1.33  0.66 -2.23
 H  4.43  0.49  0.68
 H  4.95  2.99  1.08
 H  4.90  3.25 -0.68
 H  6.93  1.80 -0.93
 H  6.94  1.49  0.82
 H  7.32  4.16 -0.38
 H  8.44  3.26  0.41
