15
set: 4370.00  0.00  0.00
 O  0.97  0.15  0.63
 C  2.29 -0.04  0.08
 C  3.19  1.10  0.62
 O  4.36  0.48  1.18
 C  3.95 -0.81  1.65
 C  2.98 -1.29  0.61
 C  2.78 -2.53  0.17
 H  0.44 -0.63  0.40
 H  2.25 -0.04 -1.02
 H  2.62  1.64  1.40
 H  3.52  1.81 -0.14
 H  4.85 -1.44  1.75
 H  3.46 -0.73  2.64
 H  2.08 -2.75 -0.64
 H  3.30 -3.39  0.60
