13
set: 6354.00  0.00  0.00
 N  1.23 -0.10 -0.69
 C  2.32  0.08 -0.01
 N  2.88  1.32  0.10
 O  4.08  1.44  0.87
 C  4.45  2.86  0.82
 C  3.38  3.50 -0.01
 C  2.51  2.55 -0.39
 H  0.97 -1.09 -0.67
 H  2.90 -0.68  0.53
 H  5.46  2.93  0.38
 H  4.49  3.24  1.86
 H  3.33  4.55 -0.26
 H  1.61  2.60 -1.00
