19
set: 3704.00  0.00  0.00
 C  2.21 -0.81 -1.46
 C  2.74 -0.31 -0.11
 C  3.07  1.16 -0.12
 C  4.27  1.69  0.12
 C  4.57  3.15  0.06
 O  5.11  3.58  1.31
 C  5.49  4.95  1.28
 H  1.94 -1.87 -1.41
 H  2.96 -0.69 -2.25
 H  1.31 -0.25 -1.77
 H  3.64 -0.88  0.18
 H  1.98 -0.50  0.67
 H  2.23  1.83 -0.36
 H  5.12  1.04  0.36
 H  3.64  3.73 -0.17
 H  5.30  3.37 -0.75
 H  5.91  5.19  2.26
 H  4.61  5.60  1.09
 H  6.24  5.15  0.49
