13
set: 7124.00  0.00  0.00
 N  0.79  0.06 -0.19
 C  2.19 -0.00 -0.02
 C  3.12  1.00  0.00
 C  4.47  0.53  0.02
 C  4.58 -0.84  0.03
 N  5.70 -1.66  0.21
 S  2.98 -1.58  0.01
 H  0.48  1.01 -0.34
 H  0.27 -0.36  0.58
 H  2.85  2.06 -0.01
 H  5.34  1.19  0.03
 H  5.86 -2.30 -0.57
 H  6.55 -1.11  0.37
