13
set: 7210.00  0.00  0.00
 S  0.79 -0.05  0.01
 C  2.47 -0.03  0.00
 N  3.20  1.12 -0.00
 C  4.66  1.26 -0.04
 C  5.32 -0.08 -0.01
 C  4.60 -1.21  0.01
 N  3.21 -1.19  0.00
 H  2.63  1.96 -0.00
 H  4.99  1.87  0.83
 H  4.96  1.82 -0.94
 H  6.41 -0.13 -0.01
 H  5.05 -2.20  0.02
 H  2.66 -2.05  0.01
