19
set: 1302.00  0.00  0.00
 C  1.05 -0.01  0.62
 C  2.43  0.02 -0.03
 C  2.60  1.21 -0.99
 C  4.03  1.29 -1.54
 C  4.55 -0.05 -1.98
 C  3.95 -1.21 -1.65
 C  2.73 -1.29 -0.78
 H  0.87  0.91  1.21
 H  0.94 -0.87  1.30
 H  0.26 -0.07 -0.14
 H  3.19  0.12  0.77
 H  2.34  2.15 -0.48
 H  1.89  1.09 -1.82
 H  4.71  1.71 -0.78
 H  4.07  2.00 -2.39
 H  5.45 -0.07 -2.60
 H  4.37 -2.15 -2.02
 H  1.85 -1.57 -1.39
 H  2.85 -2.12 -0.05
