16
set: 5273.00  0.00  0.00
 C  0.73 -0.12 -0.35
 C  2.22  0.25 -0.35
 C  2.92 -0.11 -1.67
 O  2.40  0.57 -2.83
 C  2.39  1.70  0.12
 N  2.57  2.63 -0.87
 O  2.35  2.00  1.31
 H  0.28  0.09  0.63
 H  0.59 -1.19 -0.57
 H  0.16  0.46 -1.10
 H  2.71 -0.35  0.44
 H  2.86 -1.21 -1.82
 H  3.98  0.16 -1.62
 H  1.51  0.24 -3.00
 H  2.51  2.35 -1.85
 H  2.62  3.61 -0.61
