17
set: 5252.00  0.00  0.00
 C  1.04  0.15  0.26
 C  2.56 -0.02  0.14
 C  3.06 -1.13  1.06
 O  2.91 -0.47 -1.20
 C  3.32  1.26  0.41
 N  2.73  2.38  0.61
 N  3.51  3.51  0.71
 H  0.69  0.95 -0.41
 H  0.75  0.43  1.28
 H  0.55 -0.79 -0.01
 H  2.84 -0.90  2.11
 H  4.15 -1.26  0.95
 H  2.58 -2.08  0.80
 H  2.61  0.22 -1.82
 H  4.42  1.17  0.35
 H  3.04  4.21  1.28
 H  4.48  3.35  1.01
