16
set: 670.00  0.00  0.00
 C  0.94 -0.02 -0.01
 C  2.46  0.03  0.06
 C  3.18  1.07  0.97
 C  4.27  0.00  1.27
 C  3.23 -1.07  0.83
 O  3.65 -2.26  0.18
 H  0.60 -0.90 -0.57
 H  0.53  0.87 -0.51
 H  0.51 -0.07  1.00
 H  2.89  0.10 -0.96
 H  2.58  1.30  1.86
 H  3.50  2.02  0.51
 H  5.09  0.07  0.54
 H  4.69 -0.06  2.28
 H  2.64 -1.40  1.70
 H  4.20 -2.00 -0.58
