21
set: 3682.00  0.00  0.00
 C  2.90 -0.89  1.34
 C  2.55 -0.03  0.12
 C  3.12  1.41  0.12
 C  2.51  2.26  1.24
 C  4.66  1.46  0.15
 C  5.34  0.62 -0.93
 O  5.13  2.82  0.09
 H  2.42 -1.88  1.27
 H  2.56 -0.44  2.28
 H  3.99 -1.06  1.43
 H  1.45  0.05  0.05
 H  2.86 -0.55 -0.79
 H  2.82  1.85 -0.85
 H  2.77  1.87  2.23
 H  1.42  2.29  1.16
 H  2.89  3.29  1.19
 H  5.01  1.12  1.14
 H  4.98  0.91 -1.93
 H  5.15 -0.45 -0.80
 H  6.42  0.78 -0.90
 H  4.89  3.17 -0.79
