17
set: 537.00  0.00  0.00
 C  1.08 -0.01 -0.12
 N  2.51 -0.04  0.12
 C  3.00  1.09  0.92
 C  4.43  0.67  1.30
 C  4.40 -0.88  1.26
 C  2.95 -1.22  0.87
 H  0.78 -0.88 -0.73
 H  0.81  0.90 -0.69
 H  0.48 -0.02  0.82
 H  2.38  1.23  1.84
 H  2.95  2.02  0.34
 H  5.15  1.06  0.56
 H  4.71  1.07  2.28
 H  5.10 -1.27  0.51
 H  4.67 -1.33  2.23
 H  2.86 -2.13  0.25
 H  2.33 -1.38  1.78
