15
set: 5421.00  0.00  0.00
 C  1.29  2.88  1.41
 C  2.54  2.15  1.03
 N  3.60  2.79  0.67
 N  4.69  2.06  0.34
 C  5.89  2.62 -0.07
 C  5.93  4.13 -0.15
 O  6.84  1.89 -0.35
 H  0.99  2.64  2.44
 H  0.46  2.59  0.76
 H  1.45  3.97  1.33
 H  2.53  1.05  1.07
 H  4.68  1.03  0.38
 H  5.17  4.50 -0.85
 H  6.93  4.43 -0.48
 H  5.71  4.57  0.83
