16
set: 499.00  0.00  0.00
 C  1.84 -0.93  1.00
 C  2.84 -0.38 -0.03
 C  2.87  1.12 -0.07
 N  3.93  1.77  0.26
 N  3.87  3.14  0.31
 C  5.15  3.79  0.07
 H  1.82 -2.03  0.97
 H  0.82 -0.57  0.80
 H  2.11 -0.62  2.01
 H  2.57 -0.76 -1.03
 H  3.86 -0.74  0.19
 H  1.94  1.65 -0.35
 H  3.10  3.54 -0.23
 H  5.89  3.39  0.78
 H  5.04  4.87  0.27
 H  5.54  3.66 -0.95
