15
set: 3253.00  0.00  0.00
 C  0.98 -0.08  0.21
 C  2.47  0.06 -0.07
 C  3.24  1.15  0.76
 C  4.09 -0.02  1.28
 O  3.25 -1.00  0.60
 C  2.75  0.10 -1.50
 C  2.98  0.14 -2.69
 H  0.81 -0.11  1.29
 H  0.61 -1.02 -0.23
 H  0.43  0.76 -0.23
 H  2.61  1.63  1.51
 H  3.76  1.90  0.16
 H  5.12 -0.05  0.90
 H  4.09 -0.18  2.37
 H  3.19  0.16 -3.74
