17
set: 1659.00  0.00  0.00
 C  0.86  0.16 -0.16
 C  2.32 -0.19  0.01
 C  3.04 -1.03 -1.01
 C  3.36  0.45 -0.88
 N  4.62  0.83 -0.29
 C  5.80  0.81 -1.02
 N  6.03  0.32 -2.18
 H  0.59  1.07  0.39
 H  0.22 -0.66  0.21
 H  0.61  0.32 -1.22
 H  2.65 -0.34  1.05
 H  2.49 -1.35 -1.90
 H  3.80 -1.73 -0.66
 H  2.99  1.10 -1.68
 H  4.58  1.47  0.49
 H  6.63  1.26 -0.46
 H  5.17 -0.08 -2.59
