16
set: 5560.00  0.00  0.00
 C  0.25 -0.51  0.62
 C  1.55 -0.93 -0.04
 O  2.63 -0.29  0.67
 N  3.84 -0.62  0.07
 C  4.84 -0.07  0.69
 C  6.18 -0.30  0.21
 C  7.28  0.23  0.80
 H -0.59 -0.99  0.11
 H  0.12  0.58  0.57
 H  0.24 -0.82  1.68
 H  1.59 -0.62 -1.10
 H  1.70 -2.02  0.00
 H  4.67  0.56  1.58
 H  6.28 -0.93 -0.67
 H  7.20  0.86  1.69
 H  8.28  0.03  0.42
