15
set: 4109.00  0.00  0.00
 C  1.00  0.17 -0.54
 O  2.41  0.06 -0.33
 C  3.10  1.23 -0.19
 C  4.45  1.30  0.01
 C  4.84  2.74  0.11
 C  3.54  3.48 -0.07
 C  2.54  2.59 -0.25
 H  0.63 -0.86 -0.62
 H  0.77  0.71 -1.47
 H  0.50  0.66  0.31
 H  5.13  0.46  0.09
 H  5.57  3.04 -0.67
 H  5.31  2.99  1.07
 H  3.45  4.57 -0.06
 H  1.49  2.83 -0.40
