15
set: 5258.00  0.00  0.00
 C  1.86 -0.12 -0.08
 C  3.34 -0.48 -0.04
 C  4.23  0.65  0.44
 O  3.79  1.76  0.72
 C  5.75  0.41  0.60
 N  6.21 -0.86  0.29
 N  6.54  1.31  1.06
 H  1.27 -0.97 -0.44
 H  1.69  0.73 -0.75
 H  1.50  0.17  0.91
 H  3.70 -0.78 -1.04
 H  3.53 -1.35  0.62
 H  5.74 -1.38 -0.44
 H  7.23 -0.93  0.26
 H  5.97  2.14  1.29
