15
set: 4807.00  0.00  0.00
 C  0.89 -0.07 -0.46
 C  2.18  0.56  0.02
 N  3.44 -0.21  0.04
 C  3.27  0.90 -0.94
 C  4.13  2.12 -0.76
 N  4.86  2.11  0.39
 O  4.11  3.04 -1.57
 H  0.15  0.70 -0.71
 H  0.45 -0.71  0.32
 H  1.06 -0.68 -1.36
 H  2.08  1.21  0.90
 H  3.31 -1.11 -0.44
 H  3.08  0.66 -1.99
 H  4.94  1.23  0.90
 H  5.53  2.86  0.55
