19
set: 3955.00  0.00  0.00
 C  3.00  3.61  2.39
 C  4.30  3.08  1.82
 O  4.00  1.92  1.03
 C  5.11  1.39  0.33
 C  6.16  0.71  1.18
 C  4.74  0.81 -1.01
 C  5.52  2.12 -0.94
 H  3.19  4.49  3.02
 H  2.50  2.85  3.00
 H  2.31  3.90  1.58
 H  4.99  2.81  2.64
 H  4.80  3.84  1.19
 H  6.92  0.24  0.55
 H  5.69 -0.08  1.79
 H  6.66  1.42  1.85
 H  3.69  0.88 -1.29
 H  5.27 -0.08 -1.34
 H  6.57  2.13 -1.22
 H  4.97  3.03 -1.18
