16
set: 501.00  0.00  0.00
 C  1.00 -0.55 -0.30
 C  1.65  0.53  0.56
 C  2.96  1.05 -0.03
 N  3.11  2.17 -0.65
 N  4.05  0.19  0.04
 C  4.25 -0.78  1.11
 H  0.05 -0.88  0.15
 H  1.65 -1.43 -0.41
 H  0.78 -0.17 -1.31
 H  1.82  0.15  1.58
 H  0.97  1.39  0.66
 H  2.22  2.67 -0.71
 H  4.89  0.64 -0.32
 H  4.36 -0.32  2.11
 H  5.18 -1.34  0.89
 H  3.44 -1.51  1.14
