18
set: 5871.00  0.00  0.00
 C  1.90 -0.65 -1.18
 O  1.71  0.45 -0.28
 C  2.91  1.09  0.10
 C  3.77  0.32  1.07
 C  3.54  2.01 -0.94
 C  2.75  2.60  0.21
 N  3.40  3.45  1.18
 H  2.47 -0.34 -2.08
 H  0.91 -0.99 -1.48
 H  2.43 -1.49 -0.70
 H  4.61  0.93  1.43
 H  4.20 -0.58  0.61
 H  3.17  0.01  1.94
 H  3.09  2.05 -1.93
 H  4.63  2.12 -0.92
 H  1.75  2.94 -0.05
 H  4.40  3.25  1.24
 H  3.01  3.30  2.12
