21
set: 2719.00  0.00  0.00
 C  1.25 -0.16  0.27
 N  2.70  0.05  0.23
 C  3.10  1.47  0.25
 C  2.64  2.17  1.53
 C  4.63  1.56  0.04
 C  5.45  1.10  1.25
 N  4.98  0.83 -1.20
 H  1.03 -1.21  0.05
 H  0.68  0.47 -0.45
 H  0.86  0.05  1.28
 H  3.03 -0.31 -0.66
 H  2.64  2.01 -0.61
 H  2.94  1.60  2.43
 H  1.55  2.28  1.56
 H  3.07  3.17  1.60
 H  4.84  2.63 -0.14
 H  5.20  0.06  1.51
 H  5.26  1.72  2.15
 H  6.52  1.16  1.03
 H  5.27 -0.12 -0.96
 H  5.81  1.26 -1.62
