19
set: 3469.00  0.00  0.00
 C  1.73 -0.58 -1.16
 C  2.41  0.06  0.05
 C  3.26  1.29 -0.28
 C  4.44  0.97 -1.19
 C  2.48  2.58 -0.64
 C  3.07  3.15  0.66
 O  3.75  1.90  0.97
 H  1.05 -1.39 -0.84
 H  2.46 -1.02 -1.86
 H  1.12  0.15 -1.73
 H  3.05 -0.67  0.56
 H  1.65  0.38  0.78
 H  5.06  1.87 -1.34
 H  4.10  0.62 -2.18
 H  5.07  0.19 -0.74
 H  1.39  2.46 -0.64
 H  2.79  3.08 -1.57
 H  3.79  3.98  0.53
 H  2.35  3.43  1.44
