15
set: 3129.00  0.00  0.00
 C -1.67  0.84  0.45
 C -1.10 -0.36 -0.28
 C -0.24 -1.37  0.46
 O  1.11 -1.33 -0.03
 C  1.69 -0.01 -0.01
 O  0.79  1.01  0.41
 C -0.41  0.98 -0.34
 H -2.57  1.30  0.04
 H -1.58  0.87  1.53
 H -1.62 -0.72 -1.18
 H -0.27 -1.18  1.55
 H -0.57 -2.40  0.29
 H  2.52  0.02  0.72
 H  2.06  0.19 -1.03
 H -0.39  1.56 -1.27
