13
set: 1366.00  0.00  0.00
 C  0.91  0.00 -0.00
 C  2.25  0.07  0.00
 C  3.01  1.27  0.00
 C  3.69  2.28  0.00
 C  4.51  3.49 -0.00
 C  3.74  4.74 -0.00
 C  3.12  5.78 -0.00
 H  0.40 -0.96  0.00
 H  0.30  0.91  0.00
 H  2.83 -0.86 -0.00
 H  5.18  3.48 -0.88
 H  5.18  3.48  0.88
 H  2.56  6.70 -0.00
