19
set: 3708.00  0.00  0.00
 C  1.62 -0.40  1.52
 C  2.31 -0.05  0.19
 C  2.62  1.41  0.01
 C  1.47  2.38 -0.07
 C  3.90  1.81 -0.10
 O  4.26  3.12 -0.32
 C  5.65  3.38 -0.10
 H  1.44 -1.48  1.60
 H  0.66  0.11  1.63
 H  2.26 -0.10  2.37
 H  1.65 -0.39 -0.64
 H  3.24 -0.64  0.10
 H  0.80  2.13 -0.91
 H  1.82  3.41 -0.21
 H  0.85  2.35  0.85
 H  4.73  1.10 -0.06
 H  5.82  4.42 -0.40
 H  6.28  2.72 -0.72
 H  5.91  3.26  0.96
