13
set: 4301.00  0.00  0.00
 O  1.09 -0.03  0.32
 C  2.28 -0.01  0.14
 C  3.32  1.09 -0.08
 C  4.31  0.01 -0.59
 C  3.37 -1.13 -0.06
 C  3.06 -2.27 -0.90
 C  2.78 -3.20 -1.63
 H  3.62  1.56  0.87
 H  3.02  1.89 -0.77
 H  4.38 -0.01 -1.68
 H  5.32  0.02 -0.16
 H  3.69 -1.46  0.94
 H  2.53 -4.02 -2.27
