17
set: 374.00  0.00  0.00
 C  0.83  0.21 -0.34
 C  2.28  0.06  0.06
 C  2.55  0.11  1.56
 N  1.94 -1.03  2.27
 C  3.16 -0.83 -0.78
 C  3.33  0.67 -0.84
 H  0.72  0.23 -1.43
 H  0.40  1.15  0.05
 H  0.22 -0.63  0.04
 H  2.23  1.10  1.94
 H  3.64  0.05  1.72
 H  0.93 -0.94  2.26
 H  2.22 -1.01  3.25
 H  2.72 -1.33 -1.64
 H  3.93 -1.42 -0.26
 H  4.22  1.11 -0.37
 H  3.00  1.19 -1.73
