15
set: 4686.00  0.00  0.00
 C  0.99 -0.05  0.04
 C  2.51  0.01  0.03
 C  3.13  1.17  0.81
 C  4.47  0.61  1.29
 O  5.40  1.20  1.83
 N  4.44 -0.76  1.03
 N  3.08 -1.19  0.72
 H  0.62 -0.95 -0.49
 H  0.57  0.82 -0.47
 H  0.61 -0.08  1.07
 H  2.88  0.06 -1.01
 H  2.55  1.41  1.71
 H  3.26  2.09  0.23
 H  4.92 -1.35  1.70
 H  3.19 -1.92  0.01
