14
set: 6709.00  0.00  0.00
 O  3.22  3.75 -1.59
 C  2.53  3.21 -0.75
 C  2.93  2.01  0.06
 C  4.35  1.50 -0.20
 C  5.46  2.46  0.30
 C  5.38  2.69  1.74
 N  5.29  2.87  2.89
 H  1.50  3.60 -0.54
 H  2.18  1.23 -0.14
 H  2.78  2.26  1.13
 H  4.49  1.37 -1.28
 H  4.48  0.52  0.28
 H  5.38  3.42 -0.22
 H  6.45  2.04  0.07
