14
set: 4961.00  0.00  0.00
 C  0.84  0.52  0.02
 C  2.13  0.15 -0.03
 C  3.31  1.10 -0.01
 C  3.90  1.36  1.39
 O  3.42  2.69  1.77
 N  2.98  3.35  0.61
 C  2.96  2.52 -0.37
 H  0.05 -0.22  0.03
 H  0.55  1.57  0.05
 H  2.38 -0.91 -0.06
 H  4.09  0.70 -0.69
 H  5.00  1.40  1.37
 H  3.56  0.65  2.16
 H  2.62  2.87 -1.35
