16
set: 5553.00  0.00  0.00
 C  3.02 -1.68  0.95
 C  2.44 -0.44  0.30
 O  1.25 -0.31  0.04
 N  3.34  0.57  0.01
 C  4.71  0.65  0.43
 C  5.77 -0.11 -0.34
 C  5.67  1.39 -0.46
 H  3.86 -2.08  0.37
 H  2.23 -2.43  1.03
 H  3.40 -1.45  1.96
 H  2.89  1.43 -0.31
 H  4.88  0.75  1.50
 H  5.44 -0.70 -1.20
 H  6.60 -0.54  0.22
 H  6.43  2.01  0.01
 H  5.28  1.79 -1.40
