14
set: 6551.00  0.00  0.00
 O  0.89  0.06  0.12
 C  2.30 -0.02  0.04
 C  3.06  1.02  0.86
 N  4.02 -0.03  1.37
 C  3.06 -1.10  0.89
 C  3.64 -2.23  0.20
 C  4.13 -3.16 -0.42
 H  0.51 -0.53 -0.55
 H  2.65 -0.05 -1.01
 H  2.45  1.41  1.69
 H  3.52  1.86  0.33
 H  4.85 -0.05  0.77
 H  2.44 -1.43  1.73
 H  4.57 -3.98 -0.95
