15
set: 2622.00  0.00  0.00
 C  1.11  0.05  0.03
 N  2.50 -0.04  0.44
 N  3.10  1.20  0.67
 C  4.31  1.18  0.18
 C  4.70 -0.09 -0.47
 C  4.64 -1.33  0.42
 C  3.40 -0.91 -0.30
 H  0.63 -0.93  0.14
 H  1.00  0.40 -1.01
 H  0.61  0.77  0.69
 H  4.94  2.06  0.28
 H  5.34 -0.10 -1.35
 H  5.14 -2.22  0.04
 H  4.67 -1.20  1.50
 H  2.95 -1.52 -1.09
