18
set: 4892.00  0.00  0.00
 C  1.02 -0.02 -0.02
 C  2.53  0.04  0.02
 O  3.08  0.05  1.33
 C  3.35 -0.62 -1.07
 C  3.26  0.90 -0.98
 C  4.49  1.70 -0.61
 N  5.28  1.99 -1.82
 H  0.65  0.02 -1.05
 H  0.59  0.81  0.55
 H  0.66 -0.96  0.43
 H  2.89 -0.82  1.72
 H  2.83 -1.14 -1.88
 H  4.29 -1.08 -0.76
 H  2.63  1.38 -1.73
 H  5.04  1.17  0.19
 H  4.17  2.67 -0.19
 H  5.63  1.10 -2.21
 H  6.11  2.53 -1.57
