17
set: 3148.00  0.00  0.00
 C  1.43 -0.17 -0.41
 C  2.83  0.05  0.09
 C  3.67 -1.09  0.64
 C  4.08 -0.41 -0.64
 C  5.08  0.72 -0.50
 O  4.63  1.50  0.62
 C  3.20  1.42  0.65
 H  1.15  0.58 -1.16
 H  0.69 -0.12  0.41
 H  1.33 -1.16 -0.88
 H  3.24 -2.10  0.56
 H  4.27 -0.91  1.53
 H  4.00 -0.94 -1.59
 H  6.11  0.39 -0.27
 H  5.10  1.33 -1.42
 H  2.89  1.58  1.69
 H  2.74  2.20  0.01
