14
set: 5088.00  0.00  0.00
 C  0.89  0.08  0.24
 C  2.37 -0.11  0.06
 C  2.96 -1.31 -0.05
 C  3.22  1.15  0.01
 O  2.88  2.03 -1.06
 C  3.16  1.86  1.31
 N  3.08  2.43  2.32
 H  0.66  0.65  1.15
 H  0.37 -0.89  0.31
 H  0.45  0.62 -0.61
 H  2.38 -2.23 -0.02
 H  4.04 -1.40 -0.18
 H  4.27  0.87 -0.17
 H  2.04  2.48 -0.84
