14
set: 4808.00  0.00  0.00
 C  0.92 -0.01 -0.40
 C  2.26  0.54  0.03
 N  3.48 -0.29 -0.05
 C  3.31  0.85 -0.98
 C  4.28  1.99 -0.75
 O  5.08  1.80  0.33
 O  4.32  2.99 -1.44
 H  0.21  0.80 -0.59
 H  0.50 -0.65  0.39
 H  1.02 -0.61 -1.32
 H  2.24  1.17  0.93
 H  3.30 -1.18 -0.52
 H  3.07  0.67 -2.03
 H  4.86  0.88  0.64
