19
set: 1829.00  0.00  0.00
 C  0.91 -0.04 -0.05
 C  2.42  0.02  0.03
 C  3.14  1.08  0.96
 N  2.45  1.56  2.15
 C  4.19 -0.01  1.29
 C  3.20 -1.10  0.80
 N  3.78 -2.27  0.14
 H  0.57 -0.94 -0.59
 H  0.49  0.83 -0.58
 H  0.45 -0.06  0.96
 H  2.85  0.10 -0.98
 H  3.52  1.96  0.42
 H  2.10  0.78  2.72
 H  1.63  2.12  1.89
 H  5.07  0.05  0.62
 H  4.55 -0.06  2.33
 H  2.60 -1.47  1.64
 H  4.26 -1.98 -0.72
 H  3.04 -2.92 -0.14
