19
set: 2418.00  0.00  0.00
 C  2.16 -0.23  0.46
 C  2.81 -0.52 -0.89
 C  2.01 -1.56 -1.70
 N  2.02 -2.87 -1.02
 N  2.89  0.71 -1.68
 C  4.03  1.58 -1.39
 C  3.99  0.78 -2.65
 H  2.80  0.43  1.07
 H  2.00 -1.17  1.01
 H  1.19  0.27  0.31
 H  3.83 -0.94 -0.72
 H  2.41 -1.58 -2.73
 H  0.97 -1.22 -1.76
 H  2.94 -3.31 -1.13
 H  1.35 -3.50 -1.48
 H  4.74  1.25 -0.62
 H  3.83  2.65 -1.41
 H  3.76  1.26 -3.60
 H  4.67 -0.08 -2.71
