14
set: 5055.00  0.00  0.00
 C  0.95  0.03 -0.02
 C  2.48  0.15 -0.10
 C  3.07 -0.42 -1.40
 C  2.85 -1.85 -1.53
 N  2.66 -3.00 -1.61
 C  2.89  1.60  0.09
 O  3.61  2.23 -0.66
 H  0.57  0.45  0.92
 H  0.65 -1.03 -0.06
 H  0.47  0.56 -0.85
 H  2.91 -0.39  0.76
 H  4.15 -0.21 -1.45
 H  2.63  0.09 -2.27
 H  2.48  2.07  1.02
