18
set: 1714.00  0.00  0.00
 C  0.97 -0.04  0.08
 C  2.46  0.04  0.00
 C  3.14  1.20  0.06
 C  4.65  1.28  0.03
 C  5.27 -0.09  0.29
 N  4.59 -1.09 -0.55
 C  3.19 -1.27 -0.14
 H  0.64 -0.69  0.91
 H  0.54 -0.46 -0.84
 H  0.52  0.95  0.24
 H  2.59  2.14  0.14
 H  4.98  1.66 -0.95
 H  5.00  2.00  0.78
 H  6.34 -0.09  0.03
 H  5.18 -0.32  1.38
 H  5.08 -1.98 -0.50
 H  3.09 -1.83  0.83
 H  2.68 -1.89 -0.90
