15
set: 1784.00  0.00  0.00
 C  0.90 -0.07 -0.20
 C  2.23  0.03  0.00
 C  2.93  1.33  0.30
 C  4.37  1.25 -0.22
 N  5.00  0.06  0.36
 N  4.38 -1.15  0.20
 C  3.09 -1.15  0.02
 H  0.25  0.81 -0.21
 H  0.42 -1.04 -0.37
 H  2.40  2.18 -0.16
 H  2.95  1.50  1.39
 H  4.96  2.13  0.08
 H  4.36  1.19 -1.32
 H  6.00 -0.04  0.17
 H  2.64 -2.14 -0.08
