20
set: 2375.00  0.00  0.00
 C  3.15 -1.74 -0.09
 C  2.72 -0.40  0.52
 C  3.66  0.77  0.22
 N  3.12  2.10  0.58
 C  5.06  0.68  0.84
 C  6.11  1.51  0.16
 C  5.32 -0.04  1.94
 H  2.41 -2.53  0.12
 H  4.12 -2.07  0.31
 H  3.24 -1.66 -1.18
 H  2.58 -0.50  1.62
 H  1.72 -0.13  0.13
 H  3.81  0.80 -0.88
 H  2.94  2.13  1.59
 H  2.22  2.24  0.11
 H  5.76  2.55  0.04
 H  6.31  1.12 -0.85
 H  7.05  1.52  0.72
 H  4.57 -0.65  2.44
 H  6.32 -0.05  2.38
