13
set: 6923.00  0.00  0.00
 C  0.93 -0.01 -0.01
 C  2.43  0.04 -0.00
 C  3.17  1.20 -0.00
 O  2.64  2.46 -0.01
 S  4.90  0.90 -0.00
 C  4.62 -0.82  0.00
 C  3.28 -1.11  0.00
 H  0.50  1.01  0.00
 H  0.54 -0.54  0.87
 H  0.54 -0.52 -0.90
 H  3.35  3.12 -0.00
 H  5.48 -1.50  0.01
 H  2.90 -2.13  0.00
