14
set: 4782.00  0.00  0.00
 C  0.98 -0.03  0.34
 C  2.41 -0.04 -0.15
 C  2.83  1.26 -0.81
 O  4.18  1.14 -1.31
 C  4.46 -0.10 -1.80
 N  3.76 -1.18 -1.78
 O  2.51 -1.11 -1.12
 H  0.85  0.73  1.13
 H  0.71 -1.01  0.76
 H  0.28  0.20 -0.48
 H  3.11 -0.26  0.68
 H  2.85  2.10 -0.10
 H  2.16  1.50 -1.65
 H  5.44 -0.15 -2.29
