14
set: 5364.00  0.00  0.00
 C  0.98 -0.05  0.09
 C  2.47 -0.11 -0.07
 N  2.99 -1.40 -0.21
 C  3.24  1.01 -0.03
 C  4.70  1.10 -0.14
 O  5.43 -0.01  0.27
 O  5.30  2.08 -0.54
 H  0.65  0.97  0.30
 H  0.65 -0.71  0.91
 H  0.48 -0.40 -0.83
 H  2.30 -2.12 -0.42
 H  3.83 -1.50 -0.76
 H  2.73  1.98  0.02
 H  4.84 -0.60  0.77
