17
set: 5506.00  0.00  0.00
 C  4.61 -1.30 -0.67
 C  3.40 -0.52 -0.16
 O  2.98 -0.99  1.13
 C  3.61  1.02 -0.15
 C  4.65  1.45  0.87
 N  5.94  1.60  0.38
 N  4.45  1.57  2.14
 H  4.86 -1.01 -1.70
 H  4.39 -2.37 -0.66
 H  5.50 -1.12 -0.05
 H  2.54 -0.72 -0.81
 H  3.70 -0.78  1.76
 H  2.65  1.49  0.12
 H  3.88  1.35 -1.17
 H  6.05  1.88 -0.59
 H  6.59  2.04  1.03
 H  3.46  1.40  2.34
