15
set: 3796.00  0.00  0.00
 C  0.96 -0.28 -0.06
 C  2.42 -0.02 -0.21
 C  3.10  1.13  0.03
 C  2.52  2.43  0.54
 O  2.89  3.55 -0.27
 C  4.55  1.10 -0.21
 O  5.30  2.07 -0.07
 H  0.79 -1.06  0.70
 H  0.54 -0.67 -1.00
 H  0.39  0.61  0.24
 H  3.01 -0.87 -0.56
 H  2.86  2.58  1.59
 H  1.42  2.40  0.55
 H  3.87  3.55 -0.27
 H  4.96  0.11 -0.55
