16
set: 2253.00  0.00  0.00
 C  0.99 -0.36 -0.19
 C  2.46 -0.10 -0.13
 C  3.09  1.10 -0.01
 C  2.37  2.44  0.08
 N  2.46  2.97  1.45
 C  4.52  1.15  0.04
 C  5.73  1.23  0.06
 H  0.70 -1.08  0.59
 H  0.72 -0.83 -1.15
 H  0.38  0.54 -0.07
 H  3.10 -0.98 -0.19
 H  1.34  2.33 -0.30
 H  2.89  3.15 -0.59
 H  1.92  2.39  2.09
 H  2.05  3.91  1.48
 H  6.80  1.30  0.09
