21
set: 3707.00  0.00  0.00
 C  2.86 -0.81 -1.18
 C  2.45 -0.04  0.08
 C  2.97  1.41  0.16
 C  2.40  2.13  1.38
 C  4.49  1.49  0.12
 O  5.05  0.78  1.23
 C  6.46  0.85  1.24
 H  2.38 -1.80 -1.20
 H  3.95 -0.97 -1.22
 H  2.56 -0.28 -2.09
 H  2.79 -0.59  0.98
 H  1.35 -0.01  0.14
 H  2.62  1.94 -0.75
 H  2.74  1.65  2.31
 H  1.30  2.11  1.37
 H  2.71  3.18  1.41
 H  4.81  2.56  0.16
 H  4.89  1.07 -0.82
 H  6.81  0.27  2.11
 H  6.82  1.89  1.33
 H  6.90  0.41  0.32
