15
set: 987.00  0.00  0.00
 C  0.93 -0.00  0.13
 C  2.44  0.02 -0.05
 N  2.76 -0.03 -1.47
 C  3.15  1.03  0.90
 O  3.52 -0.04  1.81
 C  3.18 -1.04  0.81
 H  0.67 -0.03  1.20
 H  0.49 -0.88 -0.36
 H  0.47  0.90 -0.31
 H  3.76  0.12 -1.62
 H  2.26  0.70 -1.98
 H  2.53  1.80  1.39
 H  4.04  1.51  0.44
 H  4.07 -1.45  0.31
 H  2.58 -1.86  1.23
