20
set: 1930.00  0.00  0.00
 C  2.83 -1.05 -0.43
 C  2.33  0.22  0.27
 C  3.37  1.33  0.26
 C  3.51  2.26 -0.93
 C  3.07  2.82  0.40
 C  1.64  3.31  0.56
 N  4.00  3.70  1.09
 H  2.07 -1.84 -0.42
 H  3.73 -1.45  0.07
 H  3.10 -0.85 -1.48
 H  2.06 -0.02  1.31
 H  1.41  0.57 -0.22
 H  4.32  1.04  0.73
 H  2.77  2.19 -1.72
 H  4.52  2.52 -1.29
 H  0.93  2.69  0.00
 H  1.56  4.34  0.20
 H  1.34  3.30  1.62
 H  4.97  3.42  0.88
 H  3.89  3.60  2.10
