17
set: 5255.00  0.00  0.00
 C  1.44 -0.87  0.76
 C  2.20 -1.05 -0.55
 C  2.50 -2.51 -0.87
 O  1.35 -0.47 -1.58
 C  1.95 -0.04 -2.75
 N  0.97  0.47 -3.58
 N  3.19 -0.02 -3.09
 H  1.24  0.19  0.95
 H  2.03 -1.27  1.59
 H  0.48 -1.40  0.72
 H  3.13 -0.46 -0.50
 H  1.57 -3.09 -0.89
 H  3.16 -2.94 -0.10
 H  2.99 -2.61 -1.84
 H  0.04  0.06 -3.46
 H  1.27  0.56 -4.54
 H  3.81 -0.35 -2.35
