14
set: 6632.00  0.00  0.00
 O  2.93 -0.96 -0.67
 C  2.39  0.13  0.08
 C  3.39  1.28 -0.00
 C  3.54  1.87 -1.41
 C  2.77  3.15 -1.24
 N  2.42  3.41 -0.04
 O  2.86  2.38  0.82
 H  2.31 -1.71 -0.61
 H  2.24 -0.14  1.14
 H  1.42  0.47 -0.34
 H  4.35  0.97  0.44
 H  3.13  1.21 -2.18
 H  4.59  2.08 -1.68
 H  2.51  3.86 -2.03
