16
set: 6063.00  0.00  0.00
 N  1.16 -0.09  0.08
 C  2.60 -0.12 -0.11
 C  3.11 -0.65 -1.42
 C  3.19  0.83 -1.13
 C  4.46  1.55 -0.85
 C  5.77  0.89 -0.68
 O  5.47  1.60 -1.89
 H  0.91  0.59  0.80
 H  0.83 -1.01  0.40
 H  3.24 -0.32  0.76
 H  2.37 -0.96 -2.15
 H  4.03 -1.24 -1.42
 H  2.44  1.43 -1.65
 H  4.34  2.51 -0.34
 H  5.85 -0.20 -0.78
 H  6.52  1.35 -0.03
