15
set: 514.00  0.00  0.00
 C  1.23 -0.32 -0.11
 C  2.74 -0.18  0.01
 N  3.15  1.21 -0.19
 C  4.59  1.40 -0.01
 C  4.97  2.80 -0.04
 C  5.29  3.98 -0.03
 H  0.93 -1.37  0.01
 H  0.88  0.03 -1.08
 H  0.71  0.26  0.67
 H  3.23 -0.79 -0.76
 H  3.08 -0.58  0.99
 H  2.65  1.82  0.47
 H  5.11  0.86 -0.83
 H  4.97  0.95  0.94
 H  5.56  5.01 -0.04
