14
set: 98.00  0.00  0.00
 C  0.90  0.04 -0.19
 C  2.39 -0.03  0.05
 N  2.71 -0.02  1.47
 C  3.25 -0.79 -0.95
 C  3.31  0.73 -0.87
 H  0.67  0.06 -1.27
 H  0.48  0.94  0.28
 H  0.39 -0.84  0.24
 H  3.72  0.06  1.61
 H  2.43 -0.90  1.90
 H  2.77 -1.24 -1.82
 H  4.10 -1.35 -0.56
 H  4.21  1.18 -0.43
 H  2.87  1.31 -1.68
