17
set: 3340.00  0.00  0.00
 C  0.85  0.24 -0.30
 C  2.31  0.09  0.11
 C  2.57  0.13  1.60
 O  2.10 -1.04  2.30
 C  3.19 -0.83 -0.72
 C  3.36  0.67 -0.81
 O  4.48  1.29 -0.22
 H  0.74  0.25 -1.39
 H  0.43  1.18  0.09
 H  0.24 -0.59  0.07
 H  2.11  1.04  2.03
 H  3.65  0.18  1.80
 H  1.13 -1.06  2.24
 H  2.76 -1.36 -1.57
 H  3.96 -1.38 -0.18
 H  2.98  1.17 -1.71
 H  5.26  1.05 -0.75
