13
set: 4248.00  0.00  0.00
 C  1.04  0.00  0.54
 O  2.49  0.06  0.60
 C  3.04  1.06 -0.15
 O  2.39  1.84 -0.83
 C  4.47  1.05 -0.05
 C  5.69  1.12 -0.02
 C  7.13  1.20  0.02
 H  0.76 -0.83  1.19
 H  0.71 -0.18 -0.49
 H  0.61  0.94  0.90
 H  7.46  1.90  0.80
 H  7.54  1.55 -0.94
 H  7.58  0.22  0.25
