15
set: 3164.00  0.00  0.00
 C  0.97  0.04 -0.13
 C  2.47 -0.00  0.01
 C  3.32 -0.74 -0.98
 C  3.34  0.79 -0.96
 C  4.53  1.57 -0.53
 O  5.30  1.05  0.48
 O  4.84  2.64 -1.02
 H  0.55  0.93  0.36
 H  0.51 -0.85  0.34
 H  0.67  0.05 -1.18
 H  2.83 -0.01  1.05
 H  2.83 -1.21 -1.83
 H  4.22 -1.27 -0.64
 H  2.81  1.28 -1.78
 H  4.94  0.19  0.78
