14
set: 2183.00  0.00  0.00
 C  0.96  0.06  0.00
 C  2.50  0.03 -0.00
 C  3.09  1.36 -0.00
 C  3.56  2.48 -0.00
 C  4.13  3.83  0.00
 C  3.12  4.89  0.00
 N  2.33  5.75  0.00
 H  0.57 -0.97  0.00
 H  0.58  0.58 -0.88
 H  0.58  0.58  0.89
 H  2.86 -0.52 -0.88
 H  2.87 -0.53  0.88
 H  4.78  3.98 -0.88
 H  4.78  3.98  0.88
