14
set: 4646.00  0.00  0.00
 C  1.04 -0.06  0.18
 C  2.35  0.05 -0.01
 C  3.22  1.29 -0.07
 C  4.53  0.80 -0.75
 N  4.49 -0.64 -0.54
 C  3.24 -1.15 -0.24
 O  2.93 -2.33 -0.18
 H  0.59 -1.06  0.21
 H  0.39  0.81  0.32
 H  3.43  1.64  0.94
 H  2.75  2.12 -0.62
 H  4.54  1.05 -1.82
 H  5.42  1.24 -0.29
 H  5.21 -1.27 -0.88
