18
set: 2976.00  0.00  0.00
 N  0.87  0.30  0.30
 C  2.29 -0.05  0.16
 C  3.13  1.23 -0.04
 C  4.62  0.96 -0.05
 C  5.30  0.90 -1.21
 C  5.33  0.76  1.21
 C  4.81  0.86  2.45
 H  0.33 -0.55  0.49
 H  0.51  0.67 -0.58
 H  2.51 -0.74 -0.68
 H  2.61 -0.56  1.08
 H  2.87  1.94  0.76
 H  2.84  1.70 -0.99
 H  4.82  1.06 -2.18
 H  6.37  0.68 -1.23
 H  6.39  0.51  1.11
 H  3.76  1.10  2.62
 H  5.43  0.69  3.33
