17
set: 3163.00  0.00  0.00
 C  0.89 -0.48  0.00
 C  2.38 -0.46 -0.29
 C  2.88 -0.17 -1.69
 C  3.08  0.84 -0.59
 C  4.47  1.10 -0.05
 C  5.23  2.21 -0.74
 O  4.79  2.94 -1.61
 H  0.69 -0.27  1.06
 H  0.45 -1.46 -0.24
 H  0.37  0.28 -0.60
 H  2.96 -1.19  0.27
 H  2.14  0.06 -2.46
 H  3.75 -0.72 -2.05
 H  2.45  1.73 -0.65
 H  5.10  0.20 -0.09
 H  4.44  1.38  1.03
 H  6.28  2.35 -0.36
