17
set: 1332.00  0.00  0.00
 C  2.99 -1.25 -0.60
 C  2.44 -0.03  0.13
 C  3.36  1.22  0.05
 C  2.85  2.40  0.84
 C  2.79  3.48  0.04
 C  3.22  3.11 -1.31
 C  3.55  1.80 -1.33
 H  2.31 -2.11 -0.50
 H  3.97 -1.55 -0.19
 H  3.12 -1.06 -1.68
 H  2.28 -0.27  1.19
 H  1.45  0.24 -0.28
 H  4.35  0.92  0.45
 H  2.59  2.35  1.90
 H  2.46  4.48  0.33
 H  3.27  3.80 -2.16
 H  3.92  1.23 -2.18
