19
set: 2464.00  0.00  0.00
 C  2.83 -1.31 -0.47
 C  2.26 -0.06  0.23
 N  1.74 -0.32  1.59
 C  3.28  1.08  0.29
 N  4.45  0.92  1.12
 C  3.49  1.89 -0.97
 C  2.75  2.49  0.21
 H  3.18 -1.07 -1.49
 H  2.07 -2.10 -0.54
 H  3.69 -1.72  0.09
 H  1.40  0.30 -0.37
 H  2.45 -0.83  2.13
 H  0.94 -0.97  1.53
 H  4.18  0.84  2.11
 H  4.98  0.08  0.87
 H  2.91  1.63 -1.86
 H  4.50  2.24 -1.17
 H  3.28  3.24  0.79
 H  1.67  2.62  0.14
