15
set: 5507.00  0.00  0.00
 C  0.87  0.07 -0.02
 C  2.35  0.25 -0.02
 O  3.20 -0.85  0.05
 C  2.72 -2.14  0.09
 C  3.54 -3.19  0.14
 N  2.87  1.42 -0.08
 N  4.25  1.53  0.02
 H  0.42  1.07 -0.07
 H  0.51 -0.43  0.89
 H  0.52 -0.52 -0.89
 H  1.63 -2.24  0.09
 H  4.62 -3.07  0.15
 H  3.12 -4.19  0.17
 H  4.54  2.38 -0.45
 H  4.76  0.71 -0.32
