15
set: 4040.00  0.00  0.00
 C  0.87 -0.39  0.04
 C  2.33  0.04  0.01
 O  3.14 -0.87 -0.75
 C  2.58  1.44 -0.49
 C  1.67  2.36 -0.84
 C  2.09  3.68 -1.35
 O  1.32  4.57 -1.69
 H  0.28  0.25  0.72
 H  0.80 -1.42  0.39
 H  0.41 -0.33 -0.96
 H  2.75 -0.03  1.03
 H  2.84 -0.82 -1.68
 H  3.65  1.69 -0.58
 H  0.59  2.19 -0.78
 H  3.20  3.82 -1.40
