15
set: 3108.00  0.00  0.00
 C  1.78  0.13 -0.70
 C  1.77 -0.13  0.82
 C  0.50 -0.01  0.05
 O -0.33  1.12  0.31
 C -1.66  0.73 -0.08
 C -1.64 -0.77  0.19
 O -0.31 -1.14 -0.21
 H  2.05  1.13 -1.04
 H  2.07 -0.69 -1.35
 H  2.06 -1.12  1.16
 H  2.05  0.70  1.48
 H -2.37  1.29  0.54
 H -1.84  0.94 -1.15
 H -2.35 -1.35 -0.41
 H -1.80 -0.99  1.27
