19
set: 1189.00  0.00  0.00
 C  1.05  0.06  0.45
 C  2.53  0.01  0.05
 C  2.87 -1.32 -0.68
 C  2.63 -1.04 -2.16
 C  3.74 -0.38 -2.93
 C  2.63  0.47 -2.36
 C  2.87  1.11 -0.99
 H  0.80  1.02  0.93
 H  0.80 -0.75  1.16
 H  0.40 -0.05 -0.43
 H  3.15  0.12  0.96
 H  2.23 -2.15 -0.31
 H  3.91 -1.62 -0.50
 H  1.93 -1.67 -2.72
 H  4.72 -0.32 -2.46
 H  3.77 -0.51 -4.02
 H  1.93  0.94 -3.05
 H  3.91  1.44 -0.89
 H  2.24  2.00 -0.85
