16
set: 5725.00  0.00  0.00
 C  0.20 -1.71  0.65
 N  1.31 -1.21 -0.17
 C  2.00 -2.31 -0.85
 C  2.25 -0.37  0.59
 C  2.84  0.74 -0.30
 O  2.11  0.93 -1.43
 O  3.82  1.39 -0.01
 H  0.53 -2.39  1.45
 H -0.51 -2.25  0.01
 H -0.33 -0.86  1.11
 H  1.30 -2.85 -1.50
 H  2.44 -3.04 -0.13
 H  2.81 -1.91 -1.48
 H  3.08 -0.93  1.05
 H  1.71  0.14  1.40
 H  1.41  0.22 -1.36
