14
set: 4875.00  0.00  0.00
 C  1.05 -0.03  0.24
 C  2.51  0.07 -0.08
 N  3.20 -0.95 -0.48
 O  4.53 -0.57 -0.72
 C  4.71  0.79 -0.21
 C  3.30  1.37 -0.11
 O  2.88  2.19 -1.21
 H  0.69 -1.04  0.02
 H  0.48  0.69 -0.36
 H  0.86  0.20  1.30
 H  5.36  1.34 -0.90
 H  5.18  0.72  0.78
 H  3.16  1.99  0.78
 H  2.92  1.65 -2.02
