15
set: 4028.00  0.00  0.00
 C  1.86 -0.96 -0.10
 C  3.23 -0.36  0.18
 O  4.15 -1.04  0.63
 C  3.38  1.09 -0.13
 C  4.53  1.74  0.11
 C  4.80  3.18 -0.17
 O  3.75  3.89 -0.81
 H  1.09 -0.42  0.46
 H  1.86 -2.02  0.18
 H  1.62 -0.86 -1.17
 H  2.52  1.62 -0.54
 H  5.36  1.16  0.54
 H  5.75  3.26 -0.74
 H  4.99  3.70  0.78
 H  3.64  3.52 -1.71
