15
set: 3511.00  0.00  0.00
 C  0.96  0.01  0.59
 C  1.59  0.98 -0.08
 C  2.90  1.53  0.31
 O  3.80  1.90 -0.76
 C  3.27  2.96  0.06
 C  4.20  3.69  0.94
 C  5.51  3.45  1.03
 H -0.02 -0.36  0.29
 H  1.41 -0.45  1.48
 H  1.13  1.43 -0.97
 H  3.40  1.05  1.17
 H  2.50  3.57 -0.44
 H  3.74  4.49  1.54
 H  5.97  2.67  0.42
 H  6.15  4.02  1.71
