15
set: 4475.00  0.00  0.00
 O  2.67 -0.71  1.13
 C  2.34  0.01 -0.07
 C  2.93  1.43  0.03
 C  2.42  2.17  1.24
 C  1.66  3.27  1.17
 C  4.40  1.40  0.00
 C  5.61  1.39 -0.02
 H  2.42 -1.64  1.00
 H  1.25  0.10 -0.18
 H  2.75 -0.49 -0.96
 H  2.59  1.96 -0.88
 H  2.69  1.74  2.21
 H  1.39  3.72  0.22
 H  1.30  3.77  2.08
 H  6.68  1.38 -0.03
