18
set: 2969.00  0.00  0.00
 N  2.79 -0.73 -1.22
 C  2.50 -0.22  0.12
 C  2.99  1.24  0.27
 C  2.52  1.83  1.58
 C  1.71  2.89  1.69
 C  4.50  1.30  0.17
 C  5.19  1.84 -0.84
 H  2.46 -1.69 -1.31
 H  3.80 -0.74 -1.37
 H  2.95 -0.82  0.95
 H  1.41 -0.23  0.27
 H  2.56  1.82 -0.57
 H  2.88  1.33  2.48
 H  1.34  3.42  0.81
 H  1.40  3.26  2.67
 H  5.04  0.85  1.01
 H  4.68  2.30 -1.69
 H  6.28  1.85 -0.85
