17
set: 2530.00  0.00  0.00
 C  0.98 -0.00  0.05
 C  2.52 -0.02  0.00
 N  3.04 -0.79  1.15
 C  3.00 -0.75 -1.28
 N  4.46 -0.82 -1.32
 C  3.03  1.37 -0.02
 C  3.47  2.50 -0.01
 H  0.57  0.53 -0.83
 H  0.63  0.51  0.95
 H  0.62 -1.04  0.06
 H  2.96 -0.23  2.00
 H  4.04 -0.94  0.98
 H  2.54 -0.25 -2.15
 H  2.61 -1.78 -1.22
 H  4.85  0.10 -1.57
 H  4.77 -1.48 -2.04
 H  3.85  3.51  0.01
