13
set: 5852.00  0.00  0.00
 C  1.32 -0.08  0.06
 N  2.26  0.80  0.78
 N  3.06  1.53 -0.13
 C  4.36  1.14 -0.35
 O  4.83  0.08  0.06
 C  5.14  2.11 -1.11
 C  5.82  2.88 -1.75
 H  0.79 -0.68  0.81
 H  1.81 -0.76 -0.66
 H  0.58  0.53 -0.47
 H  2.92  0.21  1.29
 H  2.82  2.51 -0.24
 H  6.44  3.56 -2.31
