17
set: 4499.00  0.00  0.00
 O  2.64  2.68  1.94
 C  2.58  1.30  1.52
 C  3.13  1.17  0.10
 C  4.64  1.27 -0.05
 C  5.37  0.18 -0.34
 C  5.29  2.62  0.08
 O  5.33  3.13  1.41
 H  2.33  2.73  2.86
 H  1.53  0.96  1.53
 H  3.16  0.66  2.21
 H  2.64  1.94 -0.52
 H  2.80  0.19 -0.28
 H  4.91 -0.81 -0.46
 H  6.45  0.24 -0.46
 H  4.78  3.34 -0.60
 H  6.34  2.56 -0.25
 H  4.40  3.17  1.72
