17
set: 2930.00  0.00  0.00
 N  2.43 -0.41 -1.55
 C  2.43  0.05 -0.15
 C  3.32  1.30 -0.00
 N  3.40  1.73  1.41
 C  3.30  3.20  1.48
 C  2.76  3.57  0.13
 C  2.77  2.52 -0.70
 H  1.73 -1.14 -1.67
 H  3.33 -0.84 -1.78
 H  2.77 -0.70  0.58
 H  1.40  0.33  0.13
 H  4.31  1.05 -0.43
 H  4.26  1.39  1.85
 H  4.27  3.70  1.67
 H  2.62  3.51  2.30
 H  2.41  4.58 -0.11
 H  2.45  2.50 -1.73
