15
set: 553.00  0.00  0.00
 C  0.95  0.06  0.10
 N  2.39 -0.01 -0.07
 C  2.75 -0.76 -1.26
 C  2.96  1.35 -0.10
 C  4.42  1.37 -0.10
 C  5.63  1.41 -0.11
 H  0.70  0.59  1.03
 H  0.54 -0.96  0.16
 H  0.44  0.58 -0.75
 H  2.36 -1.79 -1.18
 H  3.84 -0.82 -1.36
 H  2.34 -0.31 -2.20
 H  2.60  1.88  0.80
 H  2.60  1.93 -0.98
 H  6.70  1.45 -0.11
