18
set: 5148.00  0.00  0.00
 C  0.65 -0.55  0.18
 C  2.14 -0.64 -0.16
 C  2.44 -1.87 -1.02
 N  2.53  0.60 -0.87
 C  3.97  0.85 -0.93
 C  4.28  1.99 -1.87
 O  5.20  2.78 -1.72
 H  0.44  0.31  0.83
 H  0.32 -1.46  0.70
 H  0.06 -0.45 -0.74
 H  2.71 -0.74  0.79
 H  1.87 -1.82 -1.96
 H  2.15 -2.78 -0.48
 H  3.50 -1.96 -1.26
 H  2.08  1.39 -0.40
 H  4.46 -0.03 -1.38
 H  4.46  1.03  0.04
 H  3.59  2.06 -2.75
