17
set: 3832.00  0.00  0.00
 C  2.64 -1.07 -1.33
 C  2.69 -0.51  0.09
 C  3.42  0.83  0.18
 C  4.92  0.75 -0.02
 O  5.58 -0.26  0.23
 C  5.64  1.98 -0.52
 O  7.04  1.80 -0.54
 H  2.08 -2.02 -1.36
 H  3.65 -1.27 -1.72
 H  2.14 -0.38 -2.02
 H  3.19 -1.23  0.76
 H  1.67 -0.38  0.48
 H  3.28  1.27  1.19
 H  3.00  1.57 -0.52
 H  5.37  2.85  0.12
 H  5.25  2.21 -1.54
 H  7.16  0.86 -0.26
