14
set: 4621.00  0.00  0.00
 C  0.97  0.02  0.55
 C  2.41 -0.04  0.09
 C  2.80  0.73 -1.13
 O  4.18  1.10 -1.28
 N  4.96 -0.08 -1.38
 C  4.16 -1.10 -1.38
 C  2.73 -0.79 -1.21
 H  0.81  0.87  1.22
 H  0.69 -0.90  1.09
 H  0.28  0.13 -0.30
 H  3.17 -0.11  0.87
 H  2.12  1.42 -1.64
 H  4.60 -2.10 -1.51
 H  1.96 -1.36 -1.72
