15
set: 1054.00  0.00  0.00
 C  1.00 -0.00  0.04
 N  2.45  0.02  0.08
 C  3.12  1.03  0.93
 C  4.21 -0.02  1.25
 O  5.37  0.04  0.43
 C  3.14 -1.06  0.82
 H  0.65 -0.87 -0.54
 H  0.63  0.91 -0.45
 H  0.54 -0.06  1.05
 H  2.53  1.30  1.84
 H  3.43  1.95  0.41
 H  4.57 -0.07  2.29
 H  5.06  0.08 -0.49
 H  3.48 -1.92  0.22
 H  2.57 -1.43  1.70
