14
set: 866.00  0.00  0.00
 C  0.97 -0.05  0.03
 O  2.39 -0.05  0.03
 C  2.89  1.29  0.00
 C  4.34  1.30  0.00
 C  5.56  1.33  0.00
 C  7.01  1.36 -0.00
 H  0.65 -1.11  0.05
 H  0.56  0.43 -0.88
 H  0.56  0.46  0.92
 H  2.51  1.86  0.88
 H  2.51  1.82 -0.90
 H  7.39  2.39 -0.01
 H  7.42  0.84 -0.88
 H  7.42  0.86  0.89
