16
set: 5573.00  0.00  0.00
 C  1.14 -0.38  0.37
 C  2.61 -0.29 -0.00
 O  3.10  0.97  0.51
 N  4.46  1.08  0.19
 C  4.97  2.18  0.60
 C  6.43  2.42  0.33
 O  7.05  1.36 -0.37
 H  0.72 -1.32 -0.01
 H  0.57  0.45 -0.07
 H  1.01 -0.35  1.46
 H  2.75 -0.32 -1.10
 H  3.19 -1.12  0.44
 H  4.39  2.94  1.14
 H  6.95  2.59  1.29
 H  6.53  3.36 -0.25
 H  6.36  0.69 -0.51
