15
set: 62.00  0.00  0.00
 C  0.94 -0.01  0.01
 C  2.46  0.02  0.05
 C  3.19  1.07  0.93
 C  4.25 -0.01  1.27
 C  3.23 -1.09  0.83
 H  0.57 -0.88 -0.56
 H  0.53  0.90 -0.46
 H  0.52 -0.08  1.03
 H  2.86  0.07 -0.98
 H  2.58  1.32  1.82
 H  3.52  2.00  0.46
 H  5.10  0.04  0.58
 H  4.64 -0.05  2.30
 H  3.59 -1.96  0.27
 H  2.63 -1.45  1.68
