18
set: 732.00  0.00  0.00
 C  0.95 -0.07  0.01
 C  2.48 -0.04  0.01
 C  3.05  1.39  0.00
 C  4.58  1.43  0.01
 C  5.14  2.85  0.02
 O  6.57  2.91 -0.02
 H  0.57 -1.10  0.01
 H  0.54  0.43 -0.89
 H  0.54  0.44  0.89
 H  2.87 -0.59 -0.86
 H  2.86 -0.57  0.90
 H  2.66  1.94  0.87
 H  2.68  1.92 -0.89
 H  4.98  0.90 -0.87
 H  4.96  0.89  0.90
 H  4.75  3.40  0.90
 H  4.80  3.40 -0.87
 H  6.90  2.46  0.77
