15
set: 7106.00  0.00  0.00
 C  3.41  2.17  2.20
 O  4.24  1.17  1.57
 C  4.20  1.19  0.18
 S  5.36  2.41 -0.60
 C  6.96  1.85  0.01
 O  5.30  2.18 -2.05
 O  5.11  3.74 -0.02
 H  3.46  1.97  3.27
 H  2.36  2.06  1.86
 H  3.77  3.19  1.98
 H  3.22  1.46 -0.25
 H  4.51  0.21 -0.20
 H  6.93  1.82  1.10
 H  7.69  2.60 -0.33
 H  7.19  0.87 -0.43
