20
set: 2344.00  0.00  0.00
 C  1.41 -0.80  1.58
 C  2.43 -0.69  0.45
 C  2.99  0.72  0.30
 N  3.99  0.79 -0.77
 C  4.54  2.11 -0.96
 C  5.77  2.48 -0.16
 C  5.87  2.23 -1.65
 H  1.02 -1.82  1.67
 H  0.55 -0.13  1.42
 H  1.86 -0.53  2.55
 H  1.96 -0.99 -0.50
 H  3.26 -1.39  0.62
 H  3.49  1.02  1.24
 H  2.16  1.44  0.15
 H  3.57  0.47 -1.64
 H  3.83  2.94 -1.13
 H  6.16  1.70  0.50
 H  5.87  3.50  0.20
 H  6.04  3.08 -2.31
 H  6.34  1.29 -1.96
