13
set: 6781.00  0.00  0.00
 O  1.10  0.01 -0.59
 C  2.24  0.11 -0.18
 N  2.93  1.28  0.08
 C  4.33  1.35  0.57
 C  4.56  2.87  0.67
 C  3.23  3.41  0.21
 N  2.36  2.52 -0.11
 H  2.90 -0.77  0.04
 H  5.01  0.87 -0.14
 H  4.42  0.85  1.55
 H  5.38  3.22  0.03
 H  4.79  3.20  1.70
 H  2.97  4.47  0.13
