17
set: 2758.00  0.00  0.00
 C  0.92  0.17  0.18
 N  2.36  0.00  0.09
 C  3.07  1.06  0.07
 N  4.45  1.06 -0.01
 C  5.17 -0.21 -0.07
 C  5.16  2.26 -0.04
 C  6.49  2.39 -0.11
 H  0.54 -0.33  1.08
 H  0.43 -0.31 -0.68
 H  0.59  1.23  0.22
 H  2.65  2.09  0.11
 H  4.43 -1.01 -0.04
 H  5.86 -0.29  0.78
 H  5.75 -0.27 -1.01
 H  4.51  3.14  0.01
 H  7.18  1.55 -0.16
 H  6.92  3.39 -0.12
