13
set: 167.00  0.00  0.00
 C  0.89 -0.12 -0.09
 C  2.40  0.08  0.06
 O  3.12 -0.75 -0.88
 C  2.80  1.52 -0.08
 C  3.43  2.23  0.86
 H  0.34  0.43  0.69
 H  0.64 -1.19 -0.02
 H  0.54  0.26 -1.07
 H  2.72 -0.29  1.04
 H  2.85 -0.48 -1.78
 H  2.53  2.00 -1.03
 H  3.71  1.78  1.82
 H  3.70  3.28  0.71
