19
set: 3177.00  0.00  0.00
 C  0.94  0.00 -0.00
 C  2.46  0.02  0.06
 C  3.17  1.09  0.94
 C  4.22  0.01  1.34
 C  3.21 -1.08  0.88
 C  3.72 -2.30  0.14
 O  4.45 -3.21  0.98
 H  0.57 -0.88 -0.55
 H  0.55  0.90 -0.51
 H  0.51 -0.03  1.01
 H  2.88  0.05 -0.96
 H  2.55  1.37  1.80
 H  3.54  2.00  0.45
 H  5.10  0.04  0.67
 H  4.56 -0.01  2.38
 H  2.59 -1.40  1.73
 H  4.34 -1.98 -0.72
 H  2.88 -2.89 -0.26
 H  5.20 -2.71  1.36
