17
set: 3254.00  0.00  0.00
 C  0.90 -0.12  0.23
 C  2.26  0.46 -0.04
 C  3.01  1.15  1.11
 C  4.11  0.08  0.87
 O  3.30 -0.57 -0.15
 C  5.44  0.58  0.39
 C  5.89  0.43 -0.86
 H  0.58 -0.78 -0.59
 H  0.15  0.68  0.33
 H  0.90 -0.71  1.16
 H  2.24  1.06 -0.97
 H  2.51  1.07  2.09
 H  3.32  2.19  0.93
 H  4.26 -0.60  1.73
 H  6.04  1.08  1.15
 H  5.29 -0.08 -1.61
 H  6.87  0.81 -1.15
