15
set: 4147.00  0.00  0.00
 C  0.90  0.27 -0.57
 O  2.30  0.07 -0.32
 C  3.04  1.21 -0.27
 C  4.38  1.18 -0.06
 C  5.16 -0.10  0.12
 C  5.09  2.41 -0.01
 C  5.75  3.43  0.05
 H  0.44 -0.72 -0.57
 H  0.74  0.76 -1.54
 H  0.45  0.89  0.23
 H  2.50  2.15 -0.39
 H  4.51 -0.97  0.02
 H  5.63 -0.13  1.11
 H  5.97 -0.17 -0.63
 H  6.32  4.34  0.09
