15
set: 2599.00  0.00  0.00
 C  0.96  0.05  0.05
 N  2.41  0.02  0.01
 C  3.24  1.12 -0.09
 C  4.55  0.67 -0.10
 C  4.52 -0.75 -0.02
 C  3.18 -1.14  0.04
 N  2.55 -2.39  0.19
 H  0.63  0.89  0.68
 H  0.61 -0.89  0.49
 H  0.52  0.17 -0.96
 H  2.83  2.12 -0.15
 H  5.43  1.30 -0.16
 H  5.37 -1.43 -0.02
 H  2.37 -2.85 -0.71
 H  3.13 -3.02  0.74
