17
set: 1284.00  0.00  0.00
 C  0.92 -0.02 -0.00
 C  2.41  0.02  0.00
 C  3.24  1.10  0.01
 C  2.88  2.55  0.01
 C  4.64  0.62  0.01
 C  4.66 -0.73  0.01
 C  3.25 -1.24  0.00
 H  0.48  0.98  0.00
 H  0.52 -0.56  0.88
 H  0.53 -0.55 -0.89
 H  1.80  2.71 -0.00
 H  3.30  3.06 -0.88
 H  3.29  3.06  0.89
 H  5.50  1.28  0.01
 H  5.55 -1.37  0.01
 H  3.04 -1.87 -0.88
 H  3.04 -1.87  0.88
