18
set: 5647.00  0.00  0.00
 C  1.69 -0.62 -1.10
 N  2.23 -0.01  0.12
 C  3.07  1.17 -0.10
 C  4.32  0.95 -0.95
 C  2.28  2.44 -0.49
 O  2.83  3.18  0.64
 C  3.37  1.95  1.21
 H  1.04 -1.46 -0.82
 H  2.45 -1.00 -1.82
 H  1.07  0.12 -1.63
 H  2.77 -0.72  0.63
 H  4.90  1.88 -1.05
 H  4.07  0.61 -1.97
 H  4.98  0.19 -0.50
 H  1.19  2.32 -0.39
 H  2.54  2.92 -1.45
 H  4.43  2.06  1.50
 H  2.77  1.60  2.06
