15
set: 2885.00  0.00  0.00
 N  0.88 -0.06  0.10
 C  2.17  0.04  0.06
 N  2.92  1.19  0.31
 C  4.28  1.29 -0.24
 C  5.09  0.05  0.15
 C  4.30 -1.20 -0.13
 C  2.96 -1.18 -0.19
 H  0.44  0.85  0.30
 H  2.38  2.05  0.27
 H  4.75  2.20  0.16
 H  4.26  1.37 -1.34
 H  5.35  0.09  1.22
 H  6.04  0.04 -0.40
 H  4.85 -2.14 -0.26
 H  2.37 -2.08 -0.38
