14
set: 756.00  0.00  0.00
 C  0.96 -0.00 -0.00
 C  2.42 -0.00 -0.01
 C  3.64 -0.01 -0.00
 C  5.10  0.02 -0.03
 C  5.66 -0.76 -1.23
 O  5.61  1.37  0.00
 H  0.57  1.02  0.02
 H  0.58 -0.53  0.88
 H  0.55 -0.50 -0.90
 H  5.48 -0.44  0.90
 H  5.29 -0.34 -2.17
 H  5.35 -1.82 -1.18
 H  6.76 -0.71 -1.21
 H  5.11  1.88 -0.66
