14
set: 2750.00  0.00  0.00
 C  1.02  0.12 -0.34
 N  2.37 -0.00  0.17
 C  2.94 -1.34  0.22
 C  3.12 -1.96 -1.11
 N  3.21 -2.42 -2.17
 C  3.24  1.08  0.11
 N  3.01  2.30 -0.23
 H  0.55  1.03  0.07
 H  0.42 -0.74  0.00
 H  0.98  0.17 -1.44
 H  2.31 -2.00  0.83
 H  3.93 -1.29  0.72
 H  4.25  0.83  0.46
 H  2.04  2.43 -0.57
