16
set: 4655.00  0.00  0.00
 C  1.04  0.09 -0.00
 C  2.52 -0.06 -0.08
 C  3.30 -1.15 -0.11
 C  4.75 -0.73 -0.05
 N  5.35 -1.12  1.25
 C  4.61  0.78 -0.36
 O  3.22  1.14 -0.11
 H  0.56 -0.90  0.05
 H  0.66  0.63 -0.88
 H  0.76  0.67  0.89
 H  2.96 -2.18 -0.05
 H  5.37 -1.21 -0.83
 H  4.82 -0.69  2.01
 H  6.31 -0.79  1.31
 H  4.81  0.99 -1.42
 H  5.24  1.42  0.28
