14
set: 6068.00  0.00  0.00
 N  0.96  0.02 -0.36
 C  2.34  0.02  0.06
 C  3.30 -0.83 -0.72
 C  3.34  0.68 -0.91
 C  4.41  1.57 -0.39
 O  5.21  1.09  0.62
 O  4.59  2.70 -0.81
 H  0.50  0.87 -0.06
 H  0.47 -0.77  0.06
 H  2.58  0.16  1.12
 H  2.89 -1.39 -1.56
 H  4.12 -1.33 -0.20
 H  2.88  1.06 -1.82
 H  5.00  0.15  0.78
