21
set: 2407.00  0.00  0.00
 C  0.87  0.29  1.39
 C  2.34  0.10  0.99
 C  2.97  1.34  0.32
 N  3.09  2.53  1.18
 C  4.36  1.02 -0.26
 N  4.30  0.00 -1.31
 C  5.63 -0.34 -1.82
 H  0.47 -0.62  1.85
 H  0.25  0.51  0.51
 H  0.74  1.11  2.11
 H  2.44 -0.75  0.30
 H  2.94 -0.15  1.88
 H  2.32  1.64 -0.53
 H  3.63  2.29  2.01
 H  2.17  2.82  1.51
 H  5.00  0.63  0.55
 H  4.81  1.98 -0.60
 H  3.73  0.36 -2.08
 H  6.20 -0.84 -1.03
 H  6.22  0.53 -2.17
 H  5.53 -1.05 -2.65
