17
set: 5170.00  0.00  0.00
 C  0.90  0.09  0.06
 C  2.43  0.05 -0.10
 C  2.85 -0.75 -1.35
 N  2.40 -2.15 -1.26
 C  2.99  1.44 -0.17
 N  3.86  1.83  0.69
 O  4.26  3.17  0.44
 H  0.61  0.56  1.01
 H  0.49 -0.93  0.03
 H  0.43  0.66 -0.76
 H  2.87 -0.44  0.79
 H  3.95 -0.64 -1.47
 H  2.38 -0.30 -2.24
 H  2.96 -2.65 -0.57
 H  2.55 -2.62 -2.15
 H  2.64  2.11 -0.96
 H  4.89  3.32  1.16
