16
set: 1559.00  0.00  0.00
 C -0.45 -1.56 -0.32
 C  0.80 -1.22  0.52
 C  1.19  0.24  0.42
 N  1.06  0.89 -0.90
 C  0.10  1.25  0.20
 C -1.29  0.75  0.07
 C -1.55 -0.55 -0.17
 H -0.81 -2.57 -0.06
 H -0.16 -1.61 -1.39
 H  1.64 -1.86  0.21
 H  0.59 -1.44  1.58
 H  2.02  0.55  1.07
 H  1.76  1.63 -0.98
 H  0.23  2.23  0.66
 H -2.11  1.47  0.17
 H -2.58 -0.88 -0.27
