13
set: 7088.00  0.00  0.00
 C  3.02 -1.30  0.50
 N  2.48 -0.08 -0.06
 C  3.18  1.11 -0.01
 N  2.64  2.28 -0.24
 C  3.60  3.27 -0.18
 C  4.88  2.87  0.12
 S  4.92  1.14  0.33
 H  2.31 -2.12  0.32
 H  3.23 -1.23  1.58
 H  3.96 -1.56 -0.02
 H  1.47  0.06 -0.01
 H  3.31  4.30 -0.35
 H  5.78  3.46  0.22
