13
set: 2866.00  0.00  0.00
 N  1.00 -0.02  0.25
 C  2.38 -0.01  0.06
 C  3.10  1.19 -0.04
 C  4.49  1.13 -0.17
 C  5.12 -0.11 -0.20
 N  4.45 -1.27 -0.11
 C  3.12 -1.21  0.02
 H  0.50  0.80 -0.09
 H  0.53 -0.88 -0.02
 H  2.59  2.15 -0.01
 H  5.08  2.05 -0.25
 H  6.21 -0.19 -0.30
 H  2.59 -2.17  0.09
