17
set: 1401.00  0.00  0.00
 C  0.83  0.50 -1.01
 C  2.33  0.55 -0.99
 C  3.07  1.15 -0.05
 C  4.58  1.19 -0.05
 C  5.12  2.55 -0.02
 C  5.56  3.68  0.02
 C  6.08  5.04  0.05
 H  0.43  0.97 -1.93
 H  0.40  1.01 -0.15
 H  0.47 -0.54 -1.01
 H  2.85  0.06 -1.83
 H  2.57  1.67  0.78
 H  4.96  0.65 -0.93
 H  4.95  0.64  0.84
 H  5.31  5.77 -0.22
 H  6.91  5.16 -0.66
 H  6.46  5.30  1.05
