16
set: 5544.00  0.00  0.00
 C  1.39 -0.52  0.17
 C  2.76 -0.08 -0.30
 O  3.16  1.07  0.51
 C  4.35  1.61  0.21
 N  5.11  1.16 -0.73
 O  6.30  1.94 -0.80
 C  7.11  1.41 -1.85
 H  1.07 -1.39 -0.42
 H  0.65  0.28  0.04
 H  1.41 -0.81  1.23
 H  2.77  0.22 -1.36
 H  3.52 -0.87 -0.17
 H  4.60  2.47  0.84
 H  8.00  2.04 -1.87
 H  6.59  1.46 -2.82
 H  7.39  0.37 -1.64
