15
set: 3304.00  0.00  0.00
 C  1.00 -0.04  0.03
 C  2.51  0.01  0.11
 C  3.12  1.23  0.81
 C  4.42  0.67  1.39
 O  5.37  1.30  1.83
 C  4.31 -0.85  1.29
 O  2.97 -1.13  0.90
 H  0.67 -0.99 -0.41
 H  0.63  0.78 -0.60
 H  0.56  0.05  1.03
 H  2.95 -0.08 -0.91
 H  2.48  1.55  1.65
 H  3.31  2.10  0.17
 H  5.05 -1.21  0.55
 H  4.52 -1.34  2.25
