16
set: 4591.00  0.00  0.00
 C -1.73  0.66  0.28
 N -1.70 -0.76 -0.28
 C -0.23 -0.74  0.10
 C  1.12 -1.09 -0.50
 O  1.95 -0.03  0.09
 C  1.13  1.08  0.63
 C -0.21  0.77 -0.00
 H -2.40  1.35 -0.23
 H -1.98  0.61  1.35
 H -1.77 -0.67 -1.30
 H -0.21 -1.04  1.16
 H  1.55 -2.05 -0.19
 H  1.13 -1.01 -1.60
 H  1.12  1.02  1.73
 H  1.61  2.01  0.31
 H -0.13  1.02 -1.08
