17
set: 5256.00  0.00  0.00
 C  1.01 -0.01  0.10
 C  2.54  0.03 -0.07
 C  2.97 -0.82 -1.28
 O  4.38 -0.91 -1.44
 C  3.02  1.45 -0.16
 N  3.86  1.84 -1.05
 N  4.19  3.17 -1.12
 H  0.68  0.58  0.97
 H  0.66 -1.04  0.25
 H  0.50  0.39 -0.79
 H  2.99 -0.42  0.83
 H  2.48 -0.41 -2.19
 H  2.60 -1.85 -1.14
 H  4.66  0.02 -1.59
 H  2.63  2.17  0.59
 H  5.13  3.28 -1.50
 H  4.09  3.68 -0.24
