16
set: 5982.00  0.00  0.00
 C  3.55 -1.23  0.05
 O  4.37 -0.08  0.23
 C  3.69  1.13 -0.13
 C  4.62  2.29  0.16
 N  4.97  2.38  1.57
 C  4.71  3.47  2.34
 O  4.19  4.51  1.95
 H  4.15 -2.10  0.35
 H  3.25 -1.34 -1.01
 H  2.64 -1.18  0.67
 H  2.76  1.23  0.46
 H  3.43  1.11 -1.20
 H  4.13  3.24 -0.11
 H  5.53  2.19 -0.45
 H  5.37  1.55  2.01
 H  5.03  3.32  3.40
