17
set: 3501.00  0.00  0.00
 C  2.27 -0.48 -1.58
 C  2.44  0.06 -0.16
 C  3.42  1.25 -0.06
 C  3.62  1.74  1.40
 O  3.40  3.19  1.41
 C  2.98  3.52  0.15
 C  2.95  2.52 -0.74
 H  1.60 -1.35 -1.59
 H  3.23 -0.80 -2.00
 H  1.84  0.27 -2.25
 H  2.81 -0.75  0.50
 H  1.46  0.37  0.25
 H  4.38  0.92 -0.49
 H  4.63  1.56  1.79
 H  2.88  1.29  2.08
 H  2.73  4.58  0.02
 H  2.67  2.61 -1.78
