15
set: 4275.00  0.00  0.00
 O  1.33 -0.05  1.04
 C  2.50  0.01  0.25
 C  2.45  0.76 -1.05
 C  3.76  1.22 -1.68
 C  4.52 -0.07 -1.91
 C  3.78 -1.15 -1.59
 C  2.45 -0.77 -1.04
 H  1.20  0.83  1.45
 H  3.45 -0.02  0.81
 H  1.52  1.30 -1.26
 H  4.32  1.91 -1.02
 H  3.60  1.76 -2.63
 H  5.54 -0.10 -2.28
 H  4.11 -2.19 -1.69
 H  1.55 -1.35 -1.24
