13
set: 4982.00  0.00  0.00
 C  0.96 -0.05 -0.08
 C  2.48  0.06  0.10
 C  2.96  1.47  0.04
 N  3.54  2.06  1.07
 O  3.82  3.37  0.59
 C  3.36  3.39 -0.68
 N  2.83  2.27 -1.08
 H  0.65 -1.11 -0.07
 H  0.65  0.39 -1.03
 H  0.43  0.46  0.73
 H  2.99 -0.51 -0.69
 H  2.79 -0.37  1.07
 H  3.49  4.31 -1.23
