14
set: 6206.00  0.00  0.00
 N  2.16 -0.44 -1.38
 C  2.39  0.02 -0.00
 C  3.15  1.34 -0.02
 C  2.39  2.59 -0.50
 O  2.55  3.21  0.84
 C  3.23  2.10  1.31
 O  3.67  1.92  2.41
 H  1.53 -1.25 -1.37
 H  3.03 -0.76 -1.80
 H  2.95 -0.69  0.64
 H  1.41  0.17  0.48
 H  4.14  1.22 -0.48
 H  1.33  2.44 -0.73
 H  2.88  3.21 -1.26
