17
set: 4284.00  0.00  0.00
 O  0.80  0.03 -0.43
 C  2.18  0.01 -0.09
 C  3.15 -0.77 -0.94
 C  3.17  0.75 -0.95
 C  2.35  0.02  1.40
 C  1.41  0.80  2.29
 C  1.39 -0.72  2.30
 H  0.73  0.02 -1.40
 H  2.75 -1.28 -1.82
 H  3.96 -1.31 -0.44
 H  4.00  1.27 -0.46
 H  2.79  1.25 -1.84
 H  3.40  0.01  1.70
 H  0.57  1.30  1.80
 H  1.83  1.32  3.15
 H  1.79 -1.24  3.17
 H  0.54 -1.20  1.82
