14
set: 777.00  0.00  0.00
 C  0.96 -0.03 -0.09
 C  2.50  0.01 -0.05
 C  3.13 -0.90 -1.12
 C  3.03  1.44 -0.13
 O  2.76  2.12 -1.29
 O  3.67  1.98  0.74
 H  0.52  0.62  0.67
 H  0.61 -1.06  0.09
 H  0.57  0.28 -1.07
 H  2.83 -0.35  0.94
 H  2.80 -0.61 -2.14
 H  2.82 -1.94 -0.97
 H  4.22 -0.86 -1.10
 H  2.24  1.55 -1.89
