17
set: 3149.00  0.00  0.00
 C  0.99 -0.08 -0.05
 C  2.50  0.03 -0.01
 C  3.44 -0.58 -1.11
 C  4.49 -0.34  0.01
 C  3.39 -0.74  1.02
 O  4.54  1.11  0.12
 C  3.12  1.43  0.11
 H  0.54  0.34  0.86
 H  0.67 -1.13 -0.14
 H  0.58  0.47 -0.91
 H  3.57 -0.02 -2.05
 H  3.24 -1.64 -1.29
 H  5.51 -0.74 -0.00
 H  3.18 -1.82  1.03
 H  3.48 -0.34  2.04
 H  2.88  2.08 -0.75
 H  2.84  1.94  1.05
