17
set: 3154.00  0.00  0.00
 C  0.74  0.01  0.05
 C  2.25  0.02  0.14
 C  3.16 -0.86 -0.71
 C  2.61 -1.42 -2.01
 O  2.00 -0.32 -2.72
 C  2.62  0.90 -2.29
 C  3.17  0.65 -0.89
 H  0.33  0.96  0.43
 H  0.32 -0.80  0.65
 H  0.39 -0.11 -0.98
 H  2.63  0.14  1.16
 H  4.00 -1.37 -0.25
 H  3.44 -1.86 -2.60
 H  1.83 -2.18 -1.88
 H  3.45  1.18 -2.97
 H  1.85  1.68 -2.34
 H  4.01  1.26 -0.56
