15
set: 3825.00  0.00  0.00
 C  1.91 -0.91 -1.03
 C  1.73  0.08  0.13
 C  2.62  1.28  0.03
 C  2.25  2.56 -0.12
 O  4.02  1.00 -0.02
 C  4.62  0.54  1.11
 O  4.10  0.37  2.19
 H  1.23 -1.76 -0.91
 H  2.93 -1.29 -1.08
 H  1.68 -0.43 -2.00
 H  1.93 -0.42  1.09
 H  0.69  0.45  0.17
 H  1.20  2.82 -0.16
 H  2.99  3.35 -0.20
 H  5.68  0.34  0.87
