13
set: 6361.00  0.00  0.00
 N  2.27 -0.23  1.18
 C  2.07  1.01  0.93
 N  3.10  1.84  0.51
 C  4.40  1.43  0.31
 C  5.42  2.23 -0.10
 C  6.75  1.68 -0.27
 O  7.73  2.32 -0.64
 H  1.40 -0.68  1.48
 H  1.12  1.55  1.02
 H  2.87  2.81  0.33
 H  4.55  0.37  0.53
 H  5.28  3.29 -0.32
 H  6.83  0.58 -0.03
