19
set: 3875.00  0.00  0.00
 C  0.78 -0.02 -0.07
 C  2.29 -0.21  0.11
 C  2.59 -1.00  1.38
 O  2.82 -1.00 -0.98
 C  3.04  1.16  0.16
 C  2.90  1.97 -1.10
 C  3.84  2.07 -2.05
 H  0.54  0.49 -1.01
 H  0.35  0.56  0.76
 H  0.29 -1.00 -0.09
 H  2.21 -0.48  2.27
 H  3.68 -1.14  1.49
 H  2.12 -1.99  1.32
 H  2.84 -0.42 -1.76
 H  4.11  0.95  0.34
 H  2.66  1.73  1.02
 H  1.94  2.47 -1.26
 H  4.82  1.59 -1.93
 H  3.68  2.64 -2.96
