18
set: 231.00  0.00  0.00
 C  1.09 -0.23 -0.52
 C  2.56  0.07 -0.82
 C  3.40  0.30  0.44
 C  4.85  0.60  0.16
 C  5.91  0.31  1.20
 C  5.84 -0.52 -0.06
 H  0.51 -0.40 -1.44
 H  0.62  0.61  0.02
 H  0.99 -1.13  0.11
 H  2.63  0.96 -1.47
 H  3.00 -0.76 -1.40
 H  3.34 -0.60  1.09
 H  2.96  1.13  1.03
 H  5.02  1.50 -0.45
 H  5.59 -0.15  2.13
 H  6.74  1.01  1.30
 H  6.62 -0.40 -0.82
 H  5.46 -1.54  0.03
