18
set: 6080.00  0.00  0.00
 N  1.05  0.01 -0.16
 C  2.51  0.04  0.00
 C  3.00  1.18  0.90
 C  4.40  0.72  1.39
 C  4.44 -0.82  1.17
 C  3.01 -1.20  0.74
 O  2.90 -2.42  0.00
 H  0.79 -0.86 -0.64
 H  0.74  0.78 -0.76
 H  3.06  0.09 -0.97
 H  2.30  1.27  1.74
 H  3.03  2.15  0.39
 H  5.20  1.21  0.82
 H  4.56  0.98  2.45
 H  5.14 -1.08  0.35
 H  4.77 -1.38  2.06
 H  2.37 -1.35  1.62
 H  3.55 -2.38 -0.72
