13
set: 3487.00  0.00  0.00
 C  1.22  0.06  1.09
 C  1.87  0.41 -0.02
 C  3.05  1.32 -0.07
 C  2.83  2.78 -0.53
 C  3.29  3.13  0.88
 O  3.48  4.12  1.54
 O  3.48  1.81  1.27
 H  0.36 -0.61  1.05
 H  1.53  0.43  2.07
 H  1.56  0.03 -1.00
 H  3.92  0.84 -0.56
 H  1.78  3.06 -0.74
 H  3.49  3.16 -1.32
