17
set: 3687.00  0.00  0.00
 C  0.96 -0.09 -0.00
 C  2.50 -0.02 -0.01
 C  3.02  1.34  0.00
 C  3.45  2.48  0.01
 C  3.92  3.86  0.02
 C  2.76  4.87  0.00
 O  3.21  6.23 -0.04
 H  0.62 -1.13 -0.01
 H  0.55  0.42 -0.89
 H  0.55  0.41  0.89
 H  2.89 -0.55 -0.89
 H  2.89 -0.57  0.87
 H  4.57  4.06 -0.85
 H  4.54  4.04  0.91
 H  2.09  4.69  0.87
 H  2.16  4.73 -0.91
 H  3.62  6.43  0.82
