19
set: 2556.00  0.00  0.00
 C  1.87  2.22  1.89
 C  3.26  1.76  1.61
 N  4.19  2.59  1.29
 N  5.46  2.12  1.11
 C  6.30  2.93  0.21
 C  6.55  4.31  0.83
 C  7.60  2.17 -0.04
 H  1.14  1.74  1.22
 H  1.81  3.31  1.77
 H  1.57  1.97  2.92
 H  3.48  0.67  1.70
 H  5.51  1.11  0.88
 H  5.79  3.07 -0.76
 H  7.12  4.21  1.76
 H  5.60  4.80  1.05
 H  7.12  4.94  0.13
 H  8.14  2.01  0.91
 H  8.26  2.74 -0.71
 H  7.42  1.19 -0.50
