18
set: 226.00  0.00  0.00
 C  0.89 -0.02  0.12
 C  2.41 -0.01 -0.01
 C  2.84  0.02 -1.48
 C  3.17  1.07  0.84
 C  4.21 -0.01  1.24
 C  3.20 -1.09  0.80
 H  0.58 -0.04  1.18
 H  0.46 -0.91 -0.37
 H  0.45  0.87 -0.35
 H  3.93  0.03 -1.58
 H  2.44  0.92 -1.98
 H  2.46 -0.86 -2.01
 H  2.57  1.40  1.70
 H  3.54  1.96  0.30
 H  5.10  0.01  0.60
 H  4.54 -0.02  2.29
 H  3.58 -1.96  0.24
 H  2.60 -1.46  1.65
