14
set: 4715.00  0.00  0.00
 C  0.99 -0.06 -0.01
 C  2.46  0.10 -0.00
 C  3.32  1.16  0.00
 N  4.64  0.71  0.01
 C  4.54 -0.59  0.01
 C  5.62 -1.61  0.01
 O  3.24 -1.05  0.00
 H  0.51  0.93 -0.00
 H  0.64 -0.61  0.88
 H  0.65 -0.60 -0.90
 H  3.08  2.22  0.00
 H  5.20 -2.62  0.02
 H  6.27 -1.49  0.90
 H  6.26 -1.50 -0.87
