19
set: 3192.00  0.00  0.00
 C  0.99  0.00 -0.07
 C  2.51  0.03  0.07
 C  3.09  1.14  0.95
 C  4.53  0.68  1.19
 C  4.39 -0.83  1.42
 C  3.11 -1.27  0.66
 O  3.31 -2.31 -0.31
 H  0.66 -0.86 -0.67
 H  0.60  0.91 -0.54
 H  0.51 -0.08  0.92
 H  2.95  0.14 -0.94
 H  2.54  1.19  1.91
 H  3.01  2.14  0.48
 H  5.14  0.88  0.29
 H  5.02  1.20  2.03
 H  5.26 -1.41  1.08
 H  4.28 -1.05  2.50
 H  2.39 -1.72  1.36
 H  3.91 -1.95 -1.00
