18
set: 5905.00  0.00  0.00
 C  1.44 -0.39 -0.04
 O  2.84 -0.22 -0.09
 C  3.21  1.15  0.05
 C  4.72  1.27  0.02
 C  5.45  0.58  1.15
 C  5.40  1.44 -1.30
 N  5.17  2.62 -0.42
 H  1.24 -1.46 -0.14
 H  0.93  0.16 -0.86
 H  1.02 -0.04  0.93
 H  2.82  1.55  1.01
 H  2.78  1.76 -0.77
 H  6.54  0.67  1.03
 H  5.19 -0.49  1.18
 H  5.17  1.02  2.12
 H  4.81  1.43 -2.22
 H  6.41  1.05 -1.40
 H  6.04  2.85  0.06
