15
set: 4375.00  0.00  0.00
 O  0.93  0.12  0.09
 C  2.36  0.03  0.23
 C  3.07  1.27 -0.33
 O  3.10  1.23 -1.76
 C  3.93  0.16 -2.22
 C  3.63 -1.15 -1.55
 C  2.90 -1.21 -0.43
 H  0.75  0.12 -0.87
 H  2.53 -0.01  1.32
 H  2.52  2.18 -0.06
 H  4.10  1.33  0.08
 H  5.00  0.42 -2.08
 H  3.76  0.08 -3.30
 H  4.03 -2.05 -2.01
 H  2.64 -2.17  0.03
