18
set: 2576.00  0.00  0.00
 C  0.71 -0.02 -0.30
 N  2.11  0.03  0.09
 C  3.14 -0.81 -0.53
 C  2.88 -1.49 -1.87
 C  2.53 -0.36 -2.88
 C  2.88  0.99 -2.19
 C  3.14  0.68 -0.73
 H  0.23  0.92  0.01
 H  0.22 -0.84  0.25
 H  0.51 -0.17 -1.38
 H  3.81 -1.31  0.18
 H  3.79 -2.03 -2.17
 H  2.08 -2.24 -1.81
 H  3.10 -0.49 -3.82
 H  1.47 -0.40 -3.16
 H  3.80  1.43 -2.62
 H  2.08  1.74 -2.33
 H  3.81  1.34 -0.17
