13
set: 6448.00  0.00  0.00
 N  0.87  0.70 -0.80
 N  2.24  0.73 -0.89
 C  2.93  1.24  0.05
 C  4.45  1.16 -0.08
 O  4.84  0.49 -1.26
 C  5.01  2.52 -0.00
 C  5.47  3.64  0.09
 H  0.46  0.67 -1.73
 H  0.46  1.45 -0.23
 H  2.51  1.73  0.94
 H  4.84  0.59  0.79
 H  3.99  0.30 -1.73
 H  5.89  4.62  0.16
