21
set: 1507.00  0.00  0.00
 C  3.17  1.02 -2.46
 C  3.22  0.15 -1.20
 C  3.80  0.89  0.03
 C  5.24  1.34 -0.11
 C  6.25  0.24 -0.25
 C  5.54  2.65 -0.10
 C  6.89  3.30 -0.22
 H  2.76  0.46 -3.31
 H  4.18  1.37 -2.74
 H  2.54  1.91 -2.31
 H  3.81 -0.76 -1.40
 H  2.21 -0.19 -0.95
 H  3.72  0.21  0.90
 H  3.16  1.76  0.25
 H  6.09 -0.34 -1.17
 H  6.15 -0.48  0.58
 H  7.28  0.60 -0.26
 H  4.70  3.35  0.01
 H  7.71  2.58 -0.30
 H  7.09  3.94  0.66
 H  6.93  3.96 -1.10
