19
set: 3939.00  0.00  0.00
 C -0.75  5.05 -0.12
 C -0.16  4.12  0.94
 C  0.46  2.88  0.31
 O  1.00  2.05  1.36
 C  1.57  0.85  0.88
 O  2.76  1.02  0.14
 C  3.85  1.47  0.95
 H -1.20  5.94  0.35
 H -1.54  4.56 -0.70
 H  0.02  5.40 -0.82
 H -0.94  3.80  1.65
 H  0.61  4.64  1.52
 H -0.29  2.31 -0.26
 H  1.26  3.16 -0.39
 H  0.88  0.34  0.18
 H  1.75  0.24  1.78
 H  4.73  1.53  0.30
 H  4.05  0.76  1.77
 H  3.66  2.46  1.39
