14
set: 862.00  0.00  0.00
 C  1.13 -0.27 -0.15
 O  2.46 -0.02  0.29
 C  2.91  1.31 -0.00
 C  2.34  2.35  0.98
 C  4.37  1.31  0.02
 C  5.58  1.35  0.04
 H  0.94 -1.33  0.03
 H  1.02 -0.07 -1.23
 H  0.38  0.33  0.40
 H  2.59  1.58 -1.03
 H  2.64  2.10  2.00
 H  1.24  2.38  0.92
 H  2.72  3.35  0.73
 H  6.66  1.37  0.06
