14
set: 580.00  0.00  0.00
 C  1.62 -0.20  0.46
 N  2.68  0.02 -0.25
 N  2.95  1.28 -0.63
 C  2.58  2.53  0.10
 C  3.90  3.16 -0.42
 C  4.35  1.73 -0.82
 H  1.40 -1.24  0.71
 H  0.92  0.58  0.79
 H  2.56  2.37  1.19
 H  1.63  2.98 -0.22
 H  3.75  3.82 -1.28
 H  4.51  3.67  0.33
 H  4.75  1.58 -1.83
 H  5.04  1.27 -0.08
