18
set: 774.00  0.00  0.00
 C  2.34 -1.25  0.05
 C  1.57  0.00  0.47
 C  2.47  1.18  0.85
 C  1.66  2.45  1.13
 O  3.23  0.77  2.00
 C  4.38  1.57  2.24
 H  1.65 -2.07 -0.20
 H  3.00 -1.59  0.86
 H  2.97 -1.06 -0.83
 H  0.92 -0.22  1.33
 H  0.91  0.33 -0.35
 H  3.18  1.37  0.01
 H  0.95  2.28  1.94
 H  1.10  2.75  0.23
 H  2.31  3.29  1.41
 H  4.93  1.09  3.06
 H  4.13  2.60  2.53
 H  5.04  1.61  1.35
