15
set: 1575.00  0.00  0.00
 C -1.49  0.68  0.20
 C -1.44 -0.80 -0.25
 C -0.28 -1.55  0.34
 C  0.99 -1.09  0.44
 N  1.58  0.09 -0.01
 C  0.93  1.16 -0.38
 N -0.40  1.48 -0.36
 H -2.42  1.15 -0.14
 H -1.48  0.72  1.30
 H -1.43 -0.82 -1.35
 H -2.38 -1.28  0.07
 H -0.47 -2.54  0.74
 H  1.73 -1.76  0.90
 H  1.54  1.98 -0.78
 H -0.63  2.40 -0.70
