14
set: 581.00  0.00  0.00
 C  2.13 -0.33 -0.12
 N  3.38 -0.18 -0.36
 N  3.80  1.01 -0.89
 C  5.18  1.35 -0.65
 C  6.22  0.71 -1.53
 C  5.87  2.17 -1.71
 H  1.79 -1.30  0.25
 H  1.38  0.47 -0.28
 H  3.15  1.79 -0.78
 H  5.46  1.53  0.39
 H  5.85  0.01 -2.28
 H  7.18  0.45 -1.08
 H  6.58  2.92 -1.38
 H  5.28  2.44 -2.59
