15
set: 3113.00  0.00  0.00
 C  0.66 -0.02  0.16
 O  1.91  0.64 -0.14
 C  0.68  1.40 -0.21
 C  0.53  2.55  0.80
 C  0.32  3.75 -0.08
 C  0.18  3.42 -1.37
 C  0.27  1.93 -1.59
 H  0.53 -0.30  1.21
 H  0.33 -0.76 -0.57
 H  1.43  2.62  1.43
 H -0.33  2.39  1.48
 H  0.28  4.77  0.31
 H  0.01  4.13 -2.18
 H -0.70  1.51 -1.92
 H  1.02  1.64 -2.34
