19
set: 3264.00  0.00  0.00
 C  0.92 -0.02  0.05
 C  2.44  0.01  0.04
 C  3.19  1.08  0.88
 C  4.25  0.01  1.26
 O  5.46  0.07  0.51
 C  3.22 -1.09  0.82
 C  3.71 -2.34  0.10
 H  0.52 -0.90 -0.47
 H  0.49  0.87 -0.44
 H  0.54 -0.04  1.09
 H  2.79  0.03 -1.01
 H  2.59  1.39  1.76
 H  3.57  1.98  0.38
 H  4.57 -0.03  2.31
 H  5.23  0.21 -0.42
 H  2.63 -1.38  1.71
 H  4.36 -2.09 -0.75
 H  2.87 -2.93 -0.28
 H  4.29 -2.99  0.77
