15
set: 5839.00  0.00  0.00
 C  1.45 -0.44 -0.90
 N  2.87 -0.25 -0.70
 N  3.33  0.98 -0.52
 C  4.56  1.15 -0.10
 C  5.53  0.06  0.22
 C  4.95  2.56  0.02
 O  6.06  2.94  0.41
 H  1.27 -1.41 -1.38
 H  1.08  0.36 -1.55
 H  0.89 -0.40  0.05
 H  3.41 -1.04 -0.33
 H  5.16 -0.60  1.03
 H  6.47  0.51  0.56
 H  5.73 -0.58 -0.65
 H  4.15  3.27 -0.26
