14
set: 853.00  0.00  0.00
 C  1.62 -0.57 -0.36
 O  2.98 -0.17 -0.33
 C  3.12  1.20  0.01
 C  4.60  1.52  0.12
 C  5.35  2.08 -1.02
 O  4.93  2.92  0.08
 H  1.60 -1.64 -0.62
 H  1.05 -0.00 -1.12
 H  1.13 -0.43  0.62
 H  2.62  1.42  0.97
 H  2.66  1.85 -0.76
 H  5.15  0.93  0.86
 H  4.82  2.26 -1.96
 H  6.42  1.90 -1.09
