18
set: 4825.00  0.00  0.00
 C  0.96 -0.02  0.05
 C  2.48  0.03 -0.05
 N  2.86  0.04 -1.48
 C  3.11  1.19  0.78
 C  4.46  0.61  1.28
 O  4.53 -0.75  0.78
 C  3.18 -1.17  0.59
 H  0.63 -0.10  1.10
 H  0.57 -0.88 -0.51
 H  0.50  0.89 -0.38
 H  3.88 -0.01 -1.55
 H  2.58  0.93 -1.91
 H  2.47  1.45  1.63
 H  3.24  2.09  0.17
 H  5.34  1.14  0.89
 H  4.51  0.60  2.38
 H  3.18 -2.06 -0.05
 H  2.70 -1.42  1.57
