15
set: 1460.00  0.00  0.00
 C  0.93 -0.01 -0.00
 C  2.39 -0.01 -0.00
 C  3.61 -0.03  0.00
 C  5.06 -0.01  0.00
 C  5.63  1.44  0.00
 C  7.09  1.46  0.00
 C  8.30  1.46 -0.00
 H  0.54  1.01  0.01
 H  0.54 -0.54  0.88
 H  0.54 -0.52 -0.89
 H  5.45 -0.54 -0.88
 H  5.45 -0.54  0.88
 H  5.25  1.98  0.88
 H  5.25  1.98 -0.88
 H  9.38  1.47 -0.00
