16
set: 5049.00  0.00  0.00
 C  0.66 -0.01 -0.27
 C  1.86 -0.86  0.06
 C  1.76 -2.09  0.58
 C  3.21 -0.23 -0.19
 N  3.45  0.06 -1.60
 C  3.64  1.32 -2.09
 O  3.64  2.35 -1.42
 H  0.66  0.92  0.32
 H -0.28 -0.54 -0.09
 H  0.68  0.31 -1.33
 H  0.79 -2.55  0.79
 H  2.65 -2.68  0.82
 H  4.01 -0.90  0.19
 H  3.30  0.74  0.33
 H  3.45 -0.71 -2.26
 H  3.79  1.31 -3.19
