13
set: 618.00  0.00  0.00
 N  1.81 -0.42  1.57
 C  2.41 -0.06  0.27
 C  2.94  1.34  0.29
 C  4.22  1.68  0.01
 C  4.72  3.00 -0.01
 C  5.19  4.13 -0.04
 H  1.41 -1.36  1.51
 H  1.03  0.21  1.78
 H  1.70 -0.14 -0.58
 H  3.24 -0.76  0.07
 H  2.23  2.14  0.54
 H  4.94  0.89 -0.23
 H  5.59  5.12 -0.06
