23
set: 1224.00  0.00  0.00
 C  1.00 -0.86  1.29
 C  2.32 -0.38  1.90
 C  2.76  1.04  1.49
 C  1.69  2.11  1.79
 C  1.33  2.29  3.27
 C  4.13  1.36  2.10
 C  4.74  2.70  1.68
 H  0.82 -1.92  1.52
 H  1.00 -0.75  0.20
 H  0.14 -0.29  1.68
 H  3.13 -1.08  1.60
 H  2.27 -0.45  3.00
 H  2.89  1.03  0.39
 H  0.77  1.87  1.22
 H  2.03  3.08  1.38
 H  0.92  1.37  3.71
 H  0.56  3.07  3.39
 H  2.20  2.59  3.87
 H  4.83  0.55  1.82
 H  4.07  1.32  3.20
 H  4.77  2.80  0.58
 H  5.76  2.81  2.06
 H  4.16  3.55  2.07
