19
set: 2671.00  0.00  0.00
 C  2.70 -0.96 -0.59
 N  3.47  0.23 -0.95
 C  3.28  1.33 -0.00
 C  4.04  2.58 -0.44
 C  3.87  3.73  0.52
 C  3.96  5.15  0.08
 N  2.64  4.54  0.37
 H  2.83 -1.73 -1.36
 H  1.62 -0.78 -0.44
 H  3.10 -1.37  0.35
 H  3.17  0.55 -1.88
 H  3.66  1.00  0.98
 H  2.21  1.59  0.15
 H  3.67  2.91 -1.43
 H  5.11  2.34 -0.56
 H  4.21  3.53  1.54
 H  4.13  5.38 -0.97
 H  4.37  5.89  0.78
 H  2.32  4.86  1.29
