17
set: 6223.00  0.00  0.00
 N  2.55 -1.25 -0.32
 C  2.06  0.00  0.27
 C  3.12  1.09  0.21
 N  4.31  0.94  1.04
 C  3.34  1.84 -1.09
 C  2.69  2.55  0.08
 O  3.41  3.51  0.80
 H  1.78 -1.93 -0.38
 H  3.25 -1.68  0.28
 H  1.73 -0.10  1.33
 H  1.18  0.33 -0.30
 H  4.07  0.58  1.96
 H  4.98  0.31  0.61
 H  2.72  1.53 -1.94
 H  4.36  2.14 -1.33
 H  1.62  2.78  0.03
 H  4.18  3.00  1.15
