22
set: 2195.00  0.00  0.00
 C  2.21 -1.84  0.11
 C  3.49 -1.01  0.26
 C  3.32  0.43 -0.23
 C  4.59  1.28 -0.07
 C  4.42  2.72 -0.57
 N  5.62  3.51 -0.33
 C  5.51  4.87 -0.86
 H  2.36 -2.87  0.47
 H  1.89 -1.90 -0.94
 H  1.38 -1.41  0.69
 H  4.31 -1.49 -0.30
 H  3.80 -1.00  1.32
 H  2.49  0.91  0.32
 H  3.01  0.42 -1.29
 H  5.42  0.80 -0.62
 H  4.89  1.31  0.99
 H  3.59  3.20 -0.03
 H  4.12  2.70 -1.64
 H  6.42  3.04 -0.77
 H  4.74  5.42 -0.30
 H  5.24  4.92 -1.94
 H  6.47  5.40 -0.72
