14
set: 6713.00  0.00  0.00
 O  3.07 -0.92  0.50
 C  2.23  0.03 -0.17
 C  2.77  1.41  0.07
 C  2.03  2.40  0.57
 C  4.23  1.62 -0.31
 C  4.50  1.36 -1.72
 N  4.68  1.16 -2.86
 H  2.93 -1.79  0.09
 H  1.19 -0.03  0.21
 H  2.21 -0.17 -1.26
 H  1.00  2.22  0.87
 H  2.42  3.41  0.69
 H  4.86  0.92  0.28
 H  4.55  2.64 -0.06
