18
set: 1700.00  0.00  0.00
 C  0.98 -0.03  0.01
 C  2.50 -0.05  0.07
 C  3.15  1.18  0.72
 C  4.49  0.66  1.21
 C  5.54  1.39  1.59
 C  4.43 -0.85  1.15
 N  3.00 -1.14  0.93
 H  0.58 -0.95 -0.44
 H  0.62  0.81 -0.60
 H  0.56  0.07  1.02
 H  2.90 -0.13 -0.97
 H  2.53  1.49  1.59
 H  3.23  2.04  0.05
 H  6.46  0.93  1.94
 H  5.51  2.48  1.58
 H  5.08 -1.21  0.32
 H  4.79 -1.33  2.08
 H  2.86 -2.05  0.51
