17
set: 1406.00  0.00  0.00
 C  2.20 -0.91  1.16
 C  2.11 -0.00 -0.04
 C  1.46 -0.35 -1.16
 C  2.77  1.33  0.08
 C  2.03  2.46  0.18
 C  4.24  1.42  0.11
 C  5.08  0.41 -0.19
 H  3.24 -1.07  1.48
 H  1.74 -1.89  0.96
 H  1.68 -0.45  2.02
 H  0.96 -1.32 -1.25
 H  1.41  0.33 -2.02
 H  0.94  2.42  0.16
 H  2.50  3.44  0.29
 H  4.65  2.40  0.36
 H  4.72 -0.58 -0.47
 H  6.16  0.57 -0.17
