13
set: 1965.00  0.00  0.00
 C  0.95  0.02  0.03
 C  2.16 -0.02  0.02
 C  3.62 -0.02 -0.00
 C  4.23 -1.22 -0.78
 C  4.53 -0.56 -2.10
 N  4.48  0.73 -2.07
 N  4.19  1.14 -0.77
 H -0.12  0.05  0.04
 H  4.00  0.02  1.03
 H  3.54 -2.07 -0.85
 H  5.16 -1.57 -0.30
 H  4.83 -1.07 -3.02
 H  3.58  1.96 -0.80
