17
set: 5293.00  0.00  0.00
 C -1.00 -1.20  0.54
 C  0.10 -2.04 -0.09
 C -0.02 -3.52  0.22
 O -0.00 -1.77 -1.52
 N  1.12 -2.32 -2.20
 C  0.79 -3.17 -3.26
 N -0.30 -3.78 -3.50
 H -0.88 -0.14  0.29
 H -0.98 -1.31  1.63
 H -1.99 -1.53  0.18
 H  1.09 -1.67  0.25
 H -1.02 -3.90 -0.06
 H  0.12 -3.70  1.29
 H  0.74 -4.10 -0.33
 H  1.74 -1.54 -2.48
 H  1.67 -3.34 -3.90
 H -1.02 -3.48 -2.82
