14
set: 6614.00  0.00  0.00
 O  2.90 -0.96 -0.72
 C  2.36  0.09  0.09
 C  3.33  1.24  0.07
 C  3.34  2.20 -1.08
 C  2.78  2.64  0.27
 C  3.52  3.58  1.08
 N  4.12  4.34  1.73
 H  2.37 -1.76 -0.58
 H  2.21 -0.25  1.13
 H  1.38  0.42 -0.30
 H  4.30  1.03  0.54
 H  2.61  2.06 -1.87
 H  4.29  2.63 -1.38
 H  1.70  2.74  0.35
