18
set: 5921.00  0.00  0.00
 C  1.78  0.24 -1.82
 O  3.09  0.43 -1.27
 C  3.25  1.48 -0.40
 C  2.27  2.31  0.01
 C  4.69  1.56  0.06
 C  5.04  0.36  0.96
 N  5.56  1.73 -1.11
 H  1.86 -0.61 -2.50
 H  1.46  1.14 -2.38
 H  1.05  0.02 -1.03
 H  1.24  2.23 -0.31
 H  2.52  3.12  0.69
 H  4.77  2.48  0.66
 H  4.94 -0.58  0.40
 H  4.39  0.31  1.84
 H  6.08  0.45  1.31
 H  5.44  0.92 -1.73
 H  6.54  1.72 -0.81
