13
set: 2415.00  0.00  0.00
 C  1.46  1.54 -1.39
 C  2.48  1.32 -0.77
 C  3.61  1.04  0.03
 N  4.81  1.15 -0.43
 N  5.78  0.82  0.58
 C  6.98  0.22 -0.09
 C  7.01  1.63  0.34
 H  0.57  1.73 -1.96
 H  3.44  0.72  1.07
 H  6.87  0.03 -1.16
 H  7.46 -0.56  0.50
 H  7.52  1.92  1.27
 H  6.94  2.40 -0.43
