17
set: 3613.00  0.00  0.00
 C  0.69  1.20  1.10
 C  2.19  1.16  1.07
 C  2.95  1.48  0.01
 C  4.46  1.45 -0.01
 C  5.00  2.86 -0.24
 C  5.19  3.73  0.98
 O  5.24  3.27 -1.37
 H  0.27  0.21  1.32
 H  0.28  1.54  0.13
 H  0.33  1.88  1.88
 H  2.69  0.84  2.00
 H  2.47  1.80 -0.92
 H  4.82  0.82 -0.84
 H  4.84  1.05  0.94
 H  4.31  3.67  1.64
 H  5.38  4.77  0.70
 H  6.04  3.35  1.56
