13
set: 3592.00  0.00  0.00
 C  0.92 -0.11 -0.01
 C  2.27  0.01  0.00
 C  2.97  1.24  0.01
 C  3.64  2.25  0.01
 C  4.36  3.52  0.02
 C  3.44  4.72 -0.17
 O  3.60  5.79  0.39
 H  0.45 -1.09 -0.02
 H  0.28  0.76 -0.01
 H  2.88 -0.90  0.00
 H  5.08  3.55 -0.82
 H  4.95  3.67  0.94
 H  2.59  4.55 -0.88
