17
set: 3046.00  0.00  0.00
 N  0.73  1.07 -0.05
 N  1.98  1.06 -0.64
 C  3.00  1.32  0.09
 C  4.39  1.25 -0.47
 C  5.15  2.56 -0.34
 C  5.86  2.90  0.95
 C  6.66  2.56 -0.29
 H  0.02  1.30 -0.74
 H  0.65  1.67  0.78
 H  2.89  1.61  1.15
 H  4.32  0.94 -1.52
 H  4.96  0.46  0.06
 H  4.69  3.40 -0.86
 H  5.84  2.17  1.76
 H  5.85  3.94  1.29
 H  7.19  3.36 -0.80
 H  7.16  1.59 -0.31
