19
set: 3500.00  0.00  0.00
 C  0.52  1.14  0.52
 C  1.71  0.56 -0.27
 C  3.05  1.23 -0.02
 C  3.70  1.04  1.34
 O  3.00  1.67  2.43
 C  4.01  1.31 -1.19
 C  3.31  2.56 -0.71
 H -0.41  0.63  0.23
 H  0.39  2.21  0.30
 H  0.66  1.03  1.60
 H  1.48  0.62 -1.35
 H  1.81 -0.52 -0.04
 H  4.75  1.39  1.29
 H  3.72 -0.03  1.59
 H  2.88  2.60  2.18
 H  3.69  0.87 -2.14
 H  5.08  1.21 -0.99
 H  3.92  3.31 -0.20
 H  2.52  2.97 -1.34
