15
set: 6646.00  0.00  0.00
 O  3.04 -0.98 -0.53
 C  2.31  0.10  0.07
 C  3.23  1.31  0.07
 C  3.54  1.88 -1.35
 N  3.39  3.35 -1.26
 C  2.88  3.58 -0.10
 N  2.58  2.48  0.71
 H  2.46 -1.75 -0.57
 H  2.02 -0.15  1.11
 H  1.40  0.34 -0.50
 H  4.17  1.05  0.60
 H  2.82  1.49 -2.09
 H  4.54  1.62 -1.71
 H  2.63  4.58  0.26
 H  2.70  2.60  1.71
