17
set: 4497.00  0.00  0.00
 O  2.57 -0.71  0.48
 C  2.29  0.60  0.99
 C  2.89  1.62  0.02
 C  4.38  1.56 -0.07
 C  5.21  2.59  0.18
 C  6.71  2.50  0.08
 O  7.24  3.41 -0.90
 H  2.27 -1.36  1.14
 H  2.74  0.74  1.99
 H  1.20  0.77  1.07
 H  2.56  2.63  0.32
 H  2.45  1.42 -0.98
 H  4.81  0.59 -0.34
 H  4.81  3.57  0.45
 H  7.01  1.46 -0.13
 H  7.18  2.80  1.03
 H  6.77  3.23 -1.73
