16
set: 5141.00  0.00  0.00
 C  0.73  0.68 -0.13
 C  2.01 -0.03  0.19
 C  3.22  0.55  0.07
 N  4.45 -0.06  0.35
 C  4.52 -1.43  0.82
 C  5.63  0.66  0.19
 O  6.75  0.23  0.40
 H  0.17  0.16 -0.92
 H  0.91  1.71 -0.46
 H  0.06  0.72  0.75
 H  1.93 -1.06  0.54
 H  3.31  1.58 -0.27
 H  4.08 -2.11  0.07
 H  3.98 -1.54  1.77
 H  5.58 -1.68  0.96
 H  5.43  1.70 -0.17
