13
set: 6538.00  0.00  0.00
 O  1.08 -0.11  0.61
 C  2.40  0.05  0.10
 C  2.61  1.28 -0.78
 C  3.97  1.12 -1.42
 N  4.48 -0.02 -1.73
 N  3.61 -1.14 -1.68
 C  2.69 -1.13 -0.79
 H  0.91  0.60  1.25
 H  3.14  0.07  0.93
 H  2.56  2.22 -0.21
 H  1.81  1.32 -1.55
 H  4.61  1.99 -1.56
 H  2.03 -2.01 -0.72
