19
set: 1340.00  0.00  0.00
 C  0.97  0.22  0.77
 C  2.32  0.03  0.13
 C  2.65 -1.12 -0.48
 C  3.31  1.17  0.19
 C  2.91  2.61 -0.29
 C  3.81  3.18  0.84
 C  3.70  1.82  1.56
 H  0.42  1.06  0.31
 H  1.06  0.46  1.84
 H  0.35 -0.68  0.67
 H  1.95 -1.96 -0.53
 H  3.63 -1.26 -0.94
 H  4.23  0.87 -0.33
 H  1.85  2.82 -0.09
 H  3.13  2.87 -1.33
 H  4.83  3.37  0.47
 H  3.46  4.08  1.37
 H  4.59  1.42  2.07
 H  2.86  1.81  2.27
