15
set: 3062.00  0.00  0.00
 C  1.78 -0.00 -0.51
 C  0.81  0.76  0.36
 C  0.81 -0.76  0.36
 C -0.64 -0.98 -0.12
 C -0.85 -0.00 -1.30
 C -0.64  0.98 -0.12
 O -1.39 -0.00  0.73
 H  1.68 -0.00 -1.60
 H  2.82 -0.00 -0.17
 H  1.16  1.33  1.22
 H  1.16 -1.33  1.22
 H -1.06 -1.99 -0.09
 H -1.90 -0.00 -1.61
 H -0.18 -0.00 -2.16
 H -1.06  1.99 -0.09
