19
set: 2215.00  0.00  0.00
 C  0.95 -0.10 -0.03
 C  2.49 -0.02  0.04
 C  2.99 -0.71  1.32
 C  3.09 -0.70 -1.20
 C  2.88  1.45  0.02
 N  3.58  2.00  0.94
 N  3.96  3.31  0.77
 H  0.56  0.42 -0.93
 H  0.48  0.36  0.85
 H  0.62 -1.15 -0.09
 H  2.57 -0.24  2.22
 H  4.08 -0.66  1.39
 H  2.69 -1.77  1.30
 H  2.77 -0.20 -2.13
 H  2.78 -1.75 -1.25
 H  4.19 -0.67 -1.17
 H  2.54  2.02 -0.86
 H  4.09  3.75  1.68
 H  3.33  3.87  0.17
