20
set: 2980.00  0.00  0.00
 N  0.27  1.50  0.12
 C  1.65  1.01  0.20
 C  2.63  2.19  0.22
 C  4.10  1.75  0.33
 C  5.08  2.94  0.32
 C  6.51  2.52  0.45
 C  7.47  2.74 -0.46
 H -0.38  0.71  0.15
 H  0.11  1.95 -0.78
 H  1.94  0.32 -0.62
 H  1.76  0.45  1.14
 H  2.36  2.86  1.05
 H  2.50  2.78 -0.71
 H  4.35  1.07 -0.49
 H  4.24  1.18  1.27
 H  4.82  3.62  1.15
 H  4.95  3.52 -0.61
 H  6.77  1.98  1.37
 H  7.26  3.27 -1.39
 H  8.50  2.39 -0.30
