13
set: 3374.00  0.00  0.00
 C  0.96  0.00  0.10
 C  2.45  0.02 -0.05
 C  3.27 -1.02 -0.22
 O  4.63 -0.67 -0.33
 C  4.72  0.72 -0.23
 O  5.77  1.30 -0.29
 C  3.30  1.26 -0.03
 H  0.57 -1.02  0.06
 H  0.47  0.59 -0.69
 H  0.65  0.44  1.07
 H  3.08 -2.08 -0.29
 H  3.07  1.97 -0.84
 H  3.25  1.83  0.91
