16
set: 6660.00  0.00  0.00
 O  1.39 -0.86  0.58
 C  1.50  0.50  0.10
 C  2.96  0.90  0.10
 C  3.66  0.79  1.45
 O  3.89 -0.55  1.87
 C  3.77  0.74 -1.13
 N  3.22  2.06 -0.77
 H  0.45 -1.05  0.74
 H  0.94  1.19  0.76
 H  1.09  0.60 -0.92
 H  3.08  1.35  2.21
 H  4.65  1.27  1.38
 H  3.05 -1.03  1.70
 H  3.32  0.29 -2.02
 H  4.84  0.55 -1.01
 H  3.96  2.64 -0.35
