18
set: 6756.00  0.00  0.00
 O  0.77  2.05  2.06
 C  1.19  1.26  0.94
 C  1.70  2.21 -0.13
 N  2.88  2.93  0.35
 C  3.39  3.94 -0.58
 C  4.75  4.41 -0.10
 O  5.63  3.31  0.10
 H  0.58  1.45  2.80
 H  0.35  0.67  0.53
 H  2.00  0.56  1.23
 H  0.87  2.89 -0.42
 H  1.98  1.63 -1.02
 H  2.64  3.38  1.24
 H  2.70  4.80 -0.72
 H  3.51  3.45 -1.57
 H  4.63  4.99  0.84
 H  5.22  5.08 -0.84
 H  5.04  2.60  0.44
