16
set: 6688.00  0.00  0.00
 O  1.54 -0.44 -1.02
 C  2.08  0.10  0.19
 C  3.10  1.20 -0.08
 O  4.15  0.58 -0.83
 C  2.48  2.52 -0.62
 N  2.43  3.01  0.79
 C  3.47  2.01  1.19
 H  2.31 -0.70 -1.56
 H  2.57 -0.69  0.80
 H  1.24  0.52  0.76
 H  4.74  1.28 -1.16
 H  1.51  2.45 -1.13
 H  3.20  3.05 -1.26
 H  2.70  3.98  0.91
 H  4.51  2.38  1.13
 H  3.30  1.54  2.17
