17
set: 1433.00  0.00  0.00
 C  1.17 -0.19  0.34
 C  2.64 -0.05 -0.11
 C  2.89 -0.82 -1.41
 C  3.04  1.42 -0.18
 C  3.38  2.07 -1.31
 C  3.02  2.13  1.06
 C  3.00  2.68  2.15
 H  0.99  0.34  1.28
 H  0.91 -1.25  0.48
 H  0.49  0.23 -0.43
 H  3.26 -0.50  0.68
 H  2.26 -0.45 -2.23
 H  2.65 -1.88 -1.26
 H  3.94 -0.75 -1.72
 H  3.42  1.55 -2.27
 H  3.65  3.12 -1.30
 H  3.00  3.17  3.10
