14
set: 4795.00  0.00  0.00
 C  0.88  0.04  0.40
 C  2.15 -0.02 -0.01
 C  3.00  1.18 -0.29
 O  4.21  1.18  0.52
 N  4.96  0.00  0.50
 C  4.38 -1.08  0.13
 C  2.93 -1.29 -0.23
 H  0.38  1.00  0.54
 H  0.30 -0.86  0.61
 H  2.49  2.12 -0.04
 H  3.31  1.20 -1.35
 H  5.05 -1.95  0.14
 H  2.87 -1.62 -1.28
 H  2.53 -2.12  0.38
