17
set: 2811.00  0.00  0.00
 N  1.47 -0.43 -0.42
 C  2.76  0.01  0.04
 C  3.66 -1.04  0.65
 C  4.01 -0.44 -0.70
 N  4.98  0.64 -0.76
 C  4.24  1.88 -0.41
 C  3.04  1.47  0.47
 H  1.10  0.21 -1.13
 H  0.80 -0.44  0.36
 H  3.28 -2.06  0.65
 H  4.27 -0.76  1.51
 H  3.91 -1.08 -1.58
 H  5.73  0.48 -0.09
 H  4.92  2.61  0.06
 H  3.87  2.34 -1.35
 H  3.28  1.54  1.54
 H  2.16  2.10  0.29
