18
set: 5327.00  0.00  0.00
 C  1.11  0.16  0.21
 C  2.59 -0.05 -0.16
 N  2.83 -0.61 -1.50
 C  3.36  1.25 -0.05
 O  3.56  1.77  1.28
 C  4.72  1.33  0.51
 C  5.71  2.39  0.11
 H  1.02  0.58  1.22
 H  0.56 -0.79  0.17
 H  0.64  0.85 -0.50
 H  3.04 -0.76  0.57
 H  2.34 -0.04 -2.20
 H  2.40 -1.54 -1.56
 H  3.07  2.02 -0.79
 H  5.15  0.39  0.89
 H  5.19  3.28 -0.26
 H  6.37  2.01 -0.68
 H  6.34  2.67  0.97
