18
set: 2837.00  0.00  0.00
 N  0.77  0.38  0.38
 C  2.16  0.05  0.09
 C  3.20  0.97  0.82
 C  4.10 -0.27  1.06
 C  2.87 -1.17  0.79
 C  2.35  0.12 -1.40
 C  2.91 -0.79 -2.20
 H  0.59  0.30  1.38
 H  0.15 -0.30 -0.08
 H  2.77  1.35  1.76
 H  3.61  1.82  0.25
 H  4.86 -0.38  0.28
 H  4.58 -0.36  2.04
 H  3.00 -2.10  0.22
 H  2.33 -1.41  1.73
 H  1.97  1.05 -1.83
 H  3.30 -1.74 -1.83
 H  3.00 -0.62 -3.28
