15
set: 5161.00  0.00  0.00
 C  0.79 -0.26 -0.25
 C  2.27 -0.26  0.03
 C  3.00 -1.39 -0.01
 N  2.92  0.95  0.33
 C  2.29  2.07  0.41
 N  3.03  3.21  0.60
 O  4.38  2.98  0.94
 H  0.54  0.39 -1.10
 H  0.22  0.11  0.62
 H  0.44 -1.27 -0.48
 H  2.54 -2.35 -0.23
 H  4.07 -1.36  0.20
 H  1.21  2.25  0.28
 H  2.63  3.93  1.21
 H  4.40  1.99  0.84
