20
set: 1940.00  0.00  0.00
 C  1.76 -0.60 -1.22
 C  2.37 -0.02  0.06
 C  3.20  1.25 -0.14
 C  4.45  1.01 -0.99
 C  2.42  2.54 -0.56
 C  3.16  3.26  0.59
 N  3.51  1.94  1.17
 H  1.12 -1.46 -0.99
 H  2.53 -0.95 -1.92
 H  1.14  0.15 -1.74
 H  3.00 -0.77  0.56
 H  1.57  0.23  0.78
 H  5.03  1.94 -1.11
 H  4.19  0.65 -2.00
 H  5.10  0.26 -0.52
 H  1.34  2.45 -0.39
 H  2.60  2.91 -1.58
 H  4.02  3.85  0.23
 H  2.55  3.90  1.25
 H  4.49  1.85  1.46
