14
set: 570.00  0.00  0.00
 C  1.00 -0.09 -0.23
 N  2.41  0.03  0.15
 C  2.93  1.40  0.01
 C  2.45  2.31  1.15
 C  4.40  1.35 -0.01
 N  5.57  1.31 -0.04
 H  0.73 -1.15 -0.24
 H  0.77  0.34 -1.23
 H  0.36  0.41  0.51
 H  2.97 -0.60 -0.43
 H  2.63  1.86 -0.95
 H  2.74  1.89  2.12
 H  1.36  2.41  1.12
 H  2.88  3.32  1.05
