13
set: 4186.00  0.00  0.00
 C  1.00 -0.04  0.01
 O  2.42 -0.05  0.01
 C  2.93  1.29  0.00
 C  4.38  1.27  0.00
 C  5.61  1.31  0.00
 C  6.96  1.34  0.00
 C  8.19  1.37 -0.00
 H  0.68 -1.09  0.03
 H  0.59  0.45 -0.89
 H  0.59  0.47  0.91
 H  2.57  1.85  0.89
 H  2.57  1.83 -0.90
 H  9.26  1.39 -0.00
