17
set: 4220.00  0.00  0.00
 C  1.55  2.11  0.25
 O  2.95  2.30  0.41
 C  3.69  1.63 -0.60
 C  5.19  1.92 -0.41
 C  6.06  1.02 -1.27
 C  5.47  3.40 -0.63
 O  6.40  3.84 -1.29
 H  1.05  2.66  1.06
 H  1.28  1.04  0.33
 H  1.19  2.49 -0.72
 H  3.36  1.97 -1.61
 H  3.52  0.54 -0.55
 H  5.39  1.74  0.66
 H  5.82  1.13 -2.34
 H  5.93 -0.04 -1.00
 H  7.12  1.28 -1.16
 H  4.75  4.09 -0.13
