17
set: 3294.00  0.00  0.00
 C  0.91  0.08 -0.15
 C  2.41 -0.03  0.16
 C  3.20  1.23 -0.25
 C  3.56  1.17 -1.73
 O  4.41  0.04 -2.03
 C  3.98 -1.12 -1.45
 C  3.06 -1.23 -0.49
 H  0.45  0.91  0.41
 H  0.38 -0.85  0.13
 H  0.73  0.24 -1.22
 H  2.51 -0.14  1.25
 H  2.61  2.14 -0.06
 H  4.12  1.30  0.34
 H  4.13  2.06 -2.05
 H  2.66  1.10 -2.36
 H  4.51 -1.98 -1.87
 H  2.80 -2.23 -0.13
