19
set: 1387.00  0.00  0.00
 C  0.68  0.69  0.83
 C  2.17  0.59  0.69
 C  3.00  1.63  0.43
 C  4.43  1.51  0.31
 C  5.33  2.49  0.05
 C  4.98  3.94 -0.15
 C  6.80  2.18 -0.04
 H  0.35  0.34  1.82
 H  0.17  0.05  0.09
 H  0.33  1.72  0.69
 H  2.61 -0.40  0.81
 H  2.55  2.63  0.31
 H  4.83  0.49  0.44
 H  3.91  4.14 -0.08
 H  5.33  4.28 -1.14
 H  5.50  4.57  0.59
 H  7.01  1.11  0.12
 H  7.38  2.76  0.70
 H  7.20  2.46 -1.03
