15
set: 3110.00  0.00  0.00
 C  1.64 -0.12 -0.07
 C  0.72 -1.17  0.54
 O -0.43 -1.48 -0.27
 C -1.45 -0.56 -0.17
 C -1.35  0.73  0.18
 C -0.07  1.52  0.39
 O  0.99  1.09 -0.47
 H  2.12 -0.51 -0.98
 H  2.43  0.09  0.68
 H  1.28 -2.11  0.64
 H  0.36 -0.87  1.54
 H -2.40 -1.02 -0.44
 H -2.29  1.29  0.23
 H  0.25  1.53  1.45
 H -0.26  2.56  0.11
