17
set: 429.00  0.00  0.00
 C  0.88  1.04 -1.23
 C  2.37  0.86 -1.18
 C  3.16  1.35 -0.22
 C  4.66  1.21 -0.12
 C  5.31  0.47 -1.29
 N  5.22  2.55  0.15
 H  0.57  1.55 -2.16
 H  0.51  1.63 -0.38
 H  0.36  0.07 -1.23
 H  2.81  0.29 -2.01
 H  2.72  1.93  0.59
 H  4.86  0.62  0.80
 H  5.14  1.00 -2.24
 H  4.93 -0.55 -1.40
 H  6.40  0.40 -1.14
 H  5.07  3.14 -0.68
 H  6.23  2.48  0.27
