19
set: 3754.00  0.00  0.00
 C  0.93 -0.20  0.09
 C  2.45 -0.04  0.01
 C  3.12 -0.71  1.24
 C  2.93 -0.77 -1.28
 O  4.34 -0.72 -1.51
 C  2.89  1.40 -0.05
 C  2.12  2.49 -0.13
 H  0.43  0.24 -0.78
 H  0.53  0.29  1.00
 H  0.66 -1.26  0.13
 H  2.83 -0.19  2.17
 H  4.21 -0.68  1.15
 H  2.81 -1.76  1.32
 H  2.37 -0.36 -2.14
 H  2.68 -1.84 -1.19
 H  4.55  0.17 -1.83
 H  3.98  1.55 -0.00
 H  1.03  2.43 -0.16
 H  2.55  3.49 -0.17
