17
set: 3377.00  0.00  0.00
 C  1.14 -0.14 -0.06
 C  2.60  0.08 -0.33
 O  3.00  0.13 -1.73
 C  3.13  1.32 -0.93
 C  4.51  1.83 -0.67
 C  5.71  0.92 -0.80
 C  5.48  2.01 -1.82
 H  0.90  0.10  0.99
 H  0.86 -1.19 -0.24
 H  0.52  0.49 -0.71
 H  3.30 -0.49  0.29
 H  2.39  2.10 -1.19
 H  4.56  2.60  0.11
 H  5.51 -0.10 -1.12
 H  6.52  1.04 -0.08
 H  6.13  2.88 -1.82
 H  5.13  1.69 -2.81
