22
set: 2674.00  0.00  0.00
 C  0.99 -0.07 -0.05
 N  2.45  0.06 -0.09
 C  2.97 -0.78 -1.16
 C  2.96  1.47 -0.08
 C  2.53  2.29 -1.32
 C  2.44  2.17  1.20
 C  4.49  1.44  0.00
 H  0.57  0.46  0.82
 H  0.74 -1.13  0.06
 H  0.48  0.30 -0.97
 H  2.62 -1.81 -1.01
 H  4.07 -0.80 -1.14
 H  2.65 -0.47 -2.18
 H  2.90  1.83 -2.25
 H  2.93  3.31 -1.26
 H  1.43  2.37 -1.39
 H  2.66  1.56  2.08
 H  1.36  2.36  1.16
 H  2.94  3.14  1.31
 H  4.82  0.78  0.82
 H  4.88  2.45  0.20
 H  4.96  1.09 -0.93
