19
set: 4037.00  0.00  0.00
 C  0.91 -0.31 -0.11
 C  2.40 -0.48 -0.35
 O  2.65 -1.14 -1.61
 C  3.16  0.85 -0.26
 C  4.68  0.69 -0.35
 C  5.43  2.02 -0.45
 O  5.12  2.76 -1.64
 H  0.71  0.09  0.90
 H  0.39 -1.28 -0.20
 H  0.47  0.39 -0.83
 H  2.81 -1.18  0.39
 H  2.24 -0.60 -2.31
 H  2.90  1.34  0.70
 H  2.81  1.52 -1.06
 H  4.94  0.07 -1.22
 H  5.06  0.15  0.54
 H  6.52  1.85 -0.37
 H  5.14  2.69  0.38
 H  5.44  2.24 -2.40
