16
set: 1687.00  0.00  0.00
 C  1.04 -0.13  0.05
 C  2.52  0.14 -0.00
 C  3.16  1.28  0.32
 C  4.66  1.17  0.09
 C  4.86 -0.29 -0.31
 N  4.47 -1.35  0.63
 C  3.50 -0.92 -0.41
 H  0.81 -0.96  0.73
 H  0.66 -0.42 -0.94
 H  0.49  0.76  0.38
 H  2.69  2.17  0.74
 H  4.98  1.85 -0.72
 H  5.25  1.45  0.98
 H  5.68 -0.55 -0.98
 H  4.19 -0.93  1.52
 H  3.23 -1.68 -1.15
