15
set: 5827.00  0.00  0.00
 C  2.93  0.05  1.79
 N  2.79  0.34  0.36
 N  3.10  1.64  0.02
 C  2.55  2.97  0.42
 C  3.63  3.60 -0.48
 C  4.11  2.15 -0.79
 O  4.99  1.65 -1.45
 H  2.62 -0.99  1.96
 H  2.34  0.71  2.45
 H  3.99  0.13  2.07
 H  1.84  0.12  0.03
 H  2.64  3.19  1.49
 H  1.51  3.12  0.09
 H  3.26  4.13 -1.37
 H  4.38  4.21  0.03
