13
set: 3369.00  0.00  0.00
 C  0.91  0.05 -0.01
 C  2.41 -0.01 -0.00
 C  3.28  1.04  0.00
 O  4.59  0.58  0.01
 C  4.52 -0.77  0.01
 O  5.74 -1.37  0.02
 C  3.22 -1.21  0.00
 H  0.56  1.09 -0.00
 H  0.49 -0.46  0.87
 H  0.50 -0.44 -0.90
 H  3.16  2.11  0.00
 H  5.59 -2.33  0.02
 H  2.88 -2.24  0.00
