19
set: 3678.00  0.00  0.00
 C  2.19 -0.39  1.38
 C  2.54  0.19 -0.00
 C  2.90  1.66  0.01
 C  1.77  2.60  0.32
 C  4.17  2.04 -0.25
 C  4.73  3.43 -0.26
 O  5.79  3.58  0.72
 H  1.96 -1.46  1.31
 H  1.31  0.11  1.82
 H  3.03 -0.27  2.08
 H  1.67  0.04 -0.68
 H  3.37 -0.39 -0.43
 H  1.00  2.54 -0.47
 H  2.09  3.65  0.40
 H  1.27  2.33  1.26
 H  4.90  1.26 -0.47
 H  3.95  4.19 -0.10
 H  5.22  3.64 -1.22
 H  5.44  3.24  1.56
