17
set: 4103.00  0.00  0.00
 C  1.91 -0.66 -1.23
 O  1.72  0.45 -0.35
 C  2.93  1.05  0.08
 C  3.75  0.24  1.06
 C  3.61  1.97 -0.92
 C  2.81  2.53  0.24
 O  3.46  3.13  1.34
 H  2.52 -0.37 -2.10
 H  0.91 -0.96 -1.57
 H  2.38 -1.51 -0.72
 H  4.56  0.85  1.47
 H  4.20 -0.64  0.57
 H  3.12 -0.10  1.89
 H  3.19  2.06 -1.92
 H  4.70  2.05 -0.86
 H  1.82  2.94 -0.00
 H  3.77  4.00  1.05
