18
set: 5352.00  0.00  0.00
 C  1.07  0.29 -0.48
 C  2.56  0.12 -0.21
 N  3.23  1.42 -0.15
 C  4.65  1.31  0.20
 C  5.30  2.69  0.25
 C  6.78  2.69  0.48
 O  7.48  1.70  0.61
 H  0.57 -0.69 -0.57
 H  0.90  0.85 -1.41
 H  0.58  0.84  0.34
 H  3.02 -0.45 -1.03
 H  2.71 -0.48  0.72
 H  2.76  2.00  0.55
 H  5.15  0.71 -0.57
 H  4.83  0.79  1.17
 H  4.85  3.33  1.03
 H  5.11  3.24 -0.70
 H  7.24  3.71  0.53
