16
set: 102.00  0.00  0.00
 C  1.14 -0.29 -0.09
 C  2.66 -0.17 -0.05
 C  3.15  1.28  0.01
 C  4.67  1.42  0.03
 N  5.06  2.83  0.14
 H  0.82 -1.34 -0.14
 H  0.72  0.22 -0.96
 H  0.68  0.15  0.81
 H  3.09 -0.66 -0.95
 H  3.06 -0.73  0.81
 H  2.74  1.78  0.91
 H  2.74  1.84 -0.85
 H  5.08  0.90 -0.87
 H  5.07  0.89  0.91
 H  4.76  3.34 -0.70
 H  6.08  2.91  0.17
