13
set: 970.00  0.00  0.00
 C  0.95 -0.04  0.18
 C  2.45  0.06 -0.03
 C  3.22  1.13  0.81
 C  4.01 -0.06  1.41
 O  4.93 -0.21  2.20
 N  3.26 -0.96  0.68
 H  0.54 -0.94 -0.30
 H  0.45  0.83 -0.27
 H  0.70 -0.07  1.25
 H  2.70  0.12 -1.10
 H  2.61  1.67  1.55
 H  3.85  1.83  0.25
 H  3.36 -1.96  0.54
