18
set: 752.00  0.00  0.00
 C  0.96 -0.09  0.00
 C  2.49 -0.02 -0.01
 C  3.05 -0.78 -1.22
 C  3.01  1.44  0.00
 C  2.50  2.27  1.18
 O  4.45  1.48 -0.04
 H  0.53  0.34  0.92
 H  0.62 -1.13 -0.07
 H  0.54  0.46 -0.86
 H  2.86 -0.50  0.91
 H  2.66 -0.37 -2.16
 H  2.76 -1.84 -1.18
 H  4.15 -0.72 -1.26
 H  2.71  1.92 -0.94
 H  2.74  1.78  2.14
 H  1.41  2.41  1.14
 H  2.97  3.26  1.17
 H  4.78  1.14  0.82
