17
set: 5167.00  0.00  0.00
 C  1.30  0.05 -0.25
 C  2.36 -0.69 -1.06
 C  2.36 -2.19 -0.74
 N  2.11 -0.50 -2.48
 C  3.04  0.00 -3.22
 N  2.85  0.08 -4.58
 O  1.51 -0.19 -4.98
 H  1.32  1.13 -0.47
 H  1.46 -0.09  0.83
 H  0.30 -0.33 -0.50
 H  3.36 -0.28 -0.78
 H  1.39 -2.64 -1.01
 H  2.54 -2.36  0.33
 H  3.15 -2.72 -1.31
 H  4.03  0.35 -2.88
 H  3.15  0.96 -5.02
 H  1.12 -0.44 -4.09
