15
set: 7158.00  0.00  0.00
 N  1.93  1.61  0.83
 C  2.39  2.89  0.59
 S  1.48  4.25  0.99
 N  3.63  2.99  0.05
 C  4.55  1.89 -0.25
 C  5.98  2.36 -0.20
 C  6.82  2.33 -1.24
 H  2.24  0.85  0.22
 H  0.95  1.59  1.10
 H  3.93  3.94 -0.15
 H  4.34  1.44 -1.24
 H  4.40  1.11  0.51
 H  6.31  2.75  0.76
 H  6.50  1.95 -2.22
 H  7.85  2.67 -1.15
