15
set: 6451.00  0.00  0.00
 N  2.10 -0.55 -1.33
 N  1.94  0.62 -0.52
 C  0.81  0.68  0.26
 O -0.14 -0.09  0.15
 C  3.15  1.31 -0.20
 C  3.75  2.25 -1.22
 C  3.10  2.80  0.03
 H  1.98 -0.25 -2.31
 H  1.28 -1.12 -1.11
 H  0.86  1.50  1.00
 H  3.86  0.73  0.39
 H  3.20  2.39 -2.16
 H  4.83  2.28 -1.31
 H  3.74  3.21  0.81
 H  2.14  3.30 -0.09
