13
set: 5605.00  0.00  0.00
 C  1.03  0.02  0.08
 N  2.41  0.05 -0.37
 N  3.20  1.10  0.14
 C  4.56  0.67  0.24
 O  5.50  1.44  0.44
 C  4.50 -0.77  0.03
 C  3.21 -1.08 -0.30
 H  0.50  0.92 -0.27
 H  0.96 -0.04  1.18
 H  0.54 -0.86 -0.36
 H  3.04  2.01 -0.31
 H  5.35 -1.44  0.07
 H  2.75 -2.05 -0.49
