14
set: 6394.00  0.00  0.00
 N  2.79 -0.98 -0.36
 C  2.14  0.17  0.03
 O  0.95  0.18  0.34
 C  3.02  1.41  0.08
 C  2.40  2.60  0.22
 C  4.48  1.27 -0.01
 C  5.28  2.02 -0.79
 H  3.68 -0.92 -0.85
 H  2.20 -1.79 -0.54
 H  1.31  2.63  0.28
 H  2.97  3.52  0.30
 H  4.94  0.49  0.61
 H  4.87  2.78 -1.46
 H  6.36  1.89 -0.79
