13
set: 3372.00  0.00  0.00
 C  1.01  0.01  0.05
 C  2.35 -0.03  0.03
 C  3.27  1.17  0.08
 O  4.54  0.73 -0.45
 C  4.57 -0.64 -0.59
 O  5.54 -1.22 -1.01
 C  3.24 -1.23 -0.13
 H  0.41 -0.90  0.00
 H  0.48  0.96  0.13
 H  3.44  1.52  1.12
 H  2.91  2.02 -0.52
 H  2.89 -1.98 -0.85
 H  3.42 -1.75  0.83
