17
set: 1851.00  0.00  0.00
 C  0.99  0.08 -0.28
 C  2.50 -0.04  0.02
 C  2.88 -1.32  0.78
 N  2.83 -0.88  2.19
 C  3.59 -1.67  3.15
 N  3.10  0.48  2.24
 C  2.94  0.98  1.06
 H  0.68 -0.70 -0.99
 H  0.76  1.05 -0.72
 H  0.41 -0.04  0.64
 H  3.07  0.05 -0.92
 H  3.92 -1.64  0.53
 H  2.20 -2.16  0.61
 H  3.16 -2.68  3.21
 H  3.51 -1.19  4.14
 H  4.66 -1.75  2.88
 H  3.01  2.06  0.90
