16
set: 5660.00  0.00  0.00
 C  2.16 -0.33 -1.59
 N  2.34  0.17 -0.22
 C  3.42  1.17 -0.10
 C  3.57  1.64  1.36
 O  3.00  2.98  1.45
 C  2.82  3.39  0.16
 C  3.07  2.47 -0.78
 H  1.44 -1.16 -1.58
 H  3.10 -0.69 -2.06
 H  1.74  0.47 -2.22
 H  2.58 -0.63  0.38
 H  4.38  0.76 -0.48
 H  4.63  1.72  1.66
 H  3.03  1.00  2.07
 H  2.48  4.42  0.06
 H  2.98  2.63 -1.86
