13
set: 1021.00  0.00  0.00
 C  0.96  0.00  0.03
 C  2.49 -0.03  0.01
 C  3.04 -0.77 -1.24
 O  4.45 -0.90 -1.25
 C  3.06  1.32  0.04
 N  3.54  2.39  0.01
 H  0.59  0.53  0.92
 H  0.57 -1.02  0.05
 H  0.56  0.52 -0.85
 H  2.87 -0.55  0.90
 H  2.66 -0.27 -2.15
 H  2.64 -1.79 -1.23
 H  4.84 -0.01 -1.35
