15
set: 1846.00  0.00  0.00
 C  0.98  0.02  0.50
 C  2.21 -0.00 -0.02
 C  2.96  1.26 -0.39
 N  4.31  1.18  0.18
 C  4.92 -0.05  0.31
 N  4.41 -1.21  0.14
 C  3.00 -1.27 -0.27
 H  0.45  0.96  0.68
 H  0.46 -0.90  0.76
 H  2.44  2.15  0.01
 H  3.00  1.36 -1.49
 H  4.90  2.00  0.11
 H  5.97  0.02  0.62
 H  2.97 -1.51 -1.35
 H  2.52 -2.11  0.24
