17
set: 6027.00  0.00  0.00
 C  5.86 -0.86  0.01
 O  6.31  0.37 -0.56
 N  5.44  1.40 -0.12
 C  5.82  2.55 -0.57
 C  7.03  2.80 -1.41
 C  4.92  3.71 -0.18
 N  5.68  4.72  0.57
 H  5.89 -0.83  1.11
 H  6.55 -1.63 -0.37
 H  4.83 -1.09 -0.32
 H  6.87  2.41 -2.43
 H  7.91  2.28 -1.00
 H  7.24  3.88 -1.46
 H  4.04  3.30  0.34
 H  4.57  4.19 -1.11
 H  5.88  4.37  1.51
 H  5.11  5.56  0.69
