14
set: 4732.00  0.00  0.00
 C  1.01 -0.05  0.10
 C  2.52  0.03  0.01
 C  3.17  1.21  0.77
 N  4.43  0.60  1.16
 C  4.29 -0.78  1.26
 O  5.04 -1.57  1.79
 O  3.12 -1.15  0.62
 H  0.64 -0.94 -0.43
 H  0.56  0.84 -0.35
 H  0.69 -0.11  1.15
 H  2.85  0.05 -1.04
 H  2.56  1.50  1.64
 H  3.31  2.08  0.12
 H  5.04  1.03  1.84
