14
set: 6992.00  0.00  0.00
 C  0.86 -0.20  0.03
 C  2.39 -0.03 -0.01
 C  2.81  1.41 -0.04
 C  3.02  2.29  1.01
 C  3.37  3.58  0.55
 N  3.43  3.77 -0.77
 S  3.06  2.30 -1.51
 H  0.60 -1.27  0.05
 H  0.39  0.25 -0.86
 H  0.43  0.28  0.92
 H  2.80 -0.55 -0.88
 H  2.84 -0.50  0.88
 H  2.94  2.01  2.06
 H  3.58  4.44  1.19
