20
set: 1650.00  0.00  0.00
 C  0.91 -0.14 -0.06
 C  2.42 -0.22 -0.10
 C  3.13 -0.64 -1.36
 C  3.23  0.79 -0.88
 C  4.54  1.33 -0.34
 C  4.35  2.52  0.61
 N  5.66  3.05  1.04
 H  0.56  0.55  0.72
 H  0.46 -1.13  0.14
 H  0.51  0.21 -1.02
 H  2.89 -0.56  0.83
 H  2.52 -0.85 -2.25
 H  4.02 -1.27 -1.27
 H  2.64  1.51 -1.45
 H  5.20  1.64 -1.17
 H  5.07  0.52  0.19
 H  3.69  2.21  1.44
 H  3.83  3.33  0.07
 H  6.14  2.35  1.61
 H  5.52  3.86  1.65
