15
set: 2799.00  0.00  0.00
 C  1.26 -0.34 -0.35
 N  2.70 -0.26 -0.51
 N  3.21  1.00 -0.41
 C  4.44  1.14 -0.04
 C  5.06  2.52 -0.02
 C  5.67  2.85  1.26
 C  6.19  3.10  2.33
 H  0.93 -1.35 -0.60
 H  0.79  0.37 -1.05
 H  0.92 -0.09  0.68
 H  3.22 -0.98  0.02
 H  5.07  0.29  0.26
 H  4.28  3.25 -0.28
 H  5.83  2.59 -0.81
 H  6.63  3.33  3.28
