17
set: 4447.00  0.00  0.00
 O  2.84 -0.38 -1.50
 C  2.21  0.04 -0.28
 C  2.67  1.44  0.05
 C  1.78  2.43  0.21
 C  4.15  1.60  0.21
 C  4.78  2.78  0.90
 C  4.78  1.44  1.59
 H  2.68 -1.33 -1.60
 H  2.50 -0.63  0.55
 H  1.11  0.02 -0.37
 H  0.71  2.25  0.09
 H  2.09  3.45  0.47
 H  4.72  1.15 -0.61
 H  4.13  3.55  1.31
 H  5.72  3.16  0.49
 H  5.72  0.89  1.66
 H  4.11  1.31  2.43
