19
set: 3185.00  0.00  0.00
 C  0.92 -0.00 -0.04
 C  2.44  0.01  0.07
 C  3.16  1.04  0.97
 C  4.23 -0.04  1.30
 C  3.21 -1.12  0.84
 C  2.43 -1.74  2.00
 O  3.70 -2.22  0.07
 H  0.57 -0.88 -0.60
 H  0.56  0.89 -0.57
 H  0.45 -0.02  0.95
 H  2.88  0.06 -0.94
 H  2.56  1.30  1.85
 H  3.51  1.97  0.50
 H  5.08  0.01  0.61
 H  4.61 -0.11  2.33
 H  2.03 -0.97  2.67
 H  3.10 -2.39  2.58
 H  1.60 -2.36  1.62
 H  4.20 -1.85 -0.68
