13
set: 430.00  0.00  0.00
 C  0.80  0.01  0.10
 C  2.29  0.02  0.23
 C  3.11  0.95 -0.27
 C  4.61  0.94 -0.10
 C  5.32  0.94 -1.38
 N  5.88  0.96 -2.41
 H  0.46 -0.90 -0.41
 H  0.44  0.88 -0.47
 H  0.32  0.02  1.09
 H  2.73 -0.82  0.78
 H  2.69  1.79 -0.84
 H  4.92  0.05  0.47
 H  4.94  1.82  0.46
