19
set: 3315.00  0.00  0.00
 C  0.86  0.06  0.06
 C  2.37 -0.06  0.06
 C  3.20  0.93  0.90
 O  4.01 -0.14  1.45
 C  3.10 -1.16  0.89
 C  2.29 -1.80  2.01
 C  3.88 -2.20  0.09
 H  0.39 -0.79 -0.46
 H  0.54  0.97 -0.47
 H  0.45  0.11  1.08
 H  2.74 -0.09 -0.98
 H  2.62  1.45  1.68
 H  3.81  1.67  0.36
 H  1.78 -1.04  2.62
 H  2.96 -2.37  2.67
 H  1.54 -2.50  1.61
 H  4.48 -1.71 -0.68
 H  3.19 -2.90 -0.40
 H  4.54 -2.77  0.75
