19
set: 2627.00  0.00  0.00
 C  2.59 -0.90 -0.44
 N  2.22  0.33  0.25
 C  3.30  1.29  0.30
 C  3.47  2.22 -0.90
 C  3.01  2.79  0.41
 C  1.58  3.26  0.55
 N  3.95  3.66  1.11
 H  1.74 -1.60 -0.42
 H  3.48 -1.41 -0.02
 H  2.81 -0.68 -1.50
 H  1.91  0.12  1.20
 H  4.24  0.97  0.78
 H  2.73  2.13 -1.69
 H  4.49  2.44 -1.24
 H  0.89  2.57  0.06
 H  1.47  4.26  0.10
 H  1.29  3.33  1.61
 H  4.91  3.36  0.94
 H  3.80  3.59  2.12
