14
set: 585.00  0.00  0.00
 C  1.27 -0.33 -0.13
 N  2.69 -0.22 -0.40
 N  3.20  1.03 -0.34
 C  4.48  1.17 -0.13
 C  5.09  2.48 -0.13
 C  6.40  2.70  0.09
 H  0.94 -1.34 -0.39
 H  0.74  0.38 -0.78
 H  1.00 -0.11  0.92
 H  3.27 -0.96  0.02
 H  5.13  0.29  0.06
 H  4.41  3.31 -0.33
 H  7.10  1.88  0.29
 H  6.81  3.71  0.08
