13
set: 6943.00  0.00  0.00
 C  0.95 -0.02 -0.01
 C  2.45  0.04 -0.00
 C  3.21  1.19  0.00
 S  4.90  0.86  0.01
 C  4.63 -0.85  0.01
 C  3.28 -1.13  0.00
 O  2.81 -2.42 -0.00
 H  0.51  0.99 -0.00
 H  0.55 -0.55  0.88
 H  0.56 -0.53 -0.91
 H  2.86  2.22  0.00
 H  5.46 -1.55  0.01
 H  1.83 -2.38 -0.01
