19
set: 2999.00  0.00  0.00
 N  0.92  2.56 -1.12
 C  2.14  2.69 -0.31
 C  3.26  1.80 -0.87
 C  4.59  1.86 -0.09
 N  5.60  0.89 -0.56
 C  5.19  3.24 -0.14
 C  5.37  4.05  0.91
 H  0.20  3.20 -0.77
 H  0.53  1.62 -1.01
 H  2.00  2.44  0.77
 H  2.46  3.74 -0.34
 H  3.43  2.08 -1.92
 H  2.91  0.75 -0.87
 H  4.38  1.62  0.97
 H  5.83  1.10 -1.54
 H  5.18 -0.05 -0.57
 H  5.48  3.59 -1.14
 H  5.09  3.74  1.92
 H  5.80  5.05  0.80
