16
set: 2169.00  0.00  0.00
 C  2.37 -0.67  1.45
 C  2.21  0.04  0.10
 C  2.80  1.44  0.09
 C  2.12  2.61  0.00
 C  0.64  2.78 -0.11
 C  4.23  1.50  0.20
 N  5.39  1.50  0.29
 H  1.97 -1.68  1.40
 H  1.85 -0.12  2.25
 H  3.43 -0.74  1.74
 H  1.15  0.09 -0.17
 H  2.71 -0.55 -0.68
 H  2.71  3.53  0.02
 H  0.08  1.84 -0.10
 H  0.39  3.32 -1.03
 H  0.27  3.41  0.72
