13
set: 6581.00  0.00  0.00
 O  0.85  0.00 -0.33
 C  2.05 -0.01 -0.09
 C  2.89  1.26 -0.05
 N  4.23  1.02  0.49
 N  4.95 -0.02 -0.07
 C  4.29 -1.11 -0.26
 C  2.85 -1.28  0.16
 H  2.37  2.02  0.54
 H  2.92  1.61 -1.10
 H  4.80  1.86  0.45
 H  4.84 -1.95 -0.68
 H  2.35 -2.14 -0.30
 H  2.83 -1.42  1.26
