16
set: 6337.00  0.00  0.00
 N  2.68 -0.70 -1.21
 C  2.31 -0.03  0.04
 C  2.84  1.39  0.05
 O  4.27  1.33  0.08
 C  4.85  2.63 -0.01
 C  6.30  2.54  0.01
 C  7.51  2.51  0.02
 H  2.35 -1.67 -1.20
 H  3.70 -0.75 -1.27
 H  2.68 -0.54  0.96
 H  1.21  0.02  0.11
 H  2.46  1.94  0.94
 H  2.50  1.92 -0.86
 H  4.51  3.27  0.83
 H  4.52  3.14 -0.95
 H  8.58  2.46  0.03
