15
set: 1788.00  0.00  0.00
 C  0.94 -0.07 -0.07
 C  2.43  0.08  0.06
 C  3.11  1.23 -0.19
 C  4.60  1.24  0.04
 N  5.10 -0.08 -0.35
 N  4.51 -1.19  0.16
 C  3.23 -1.10  0.40
 H  0.68 -0.81 -0.83
 H  0.47  0.89 -0.33
 H  0.51 -0.41  0.88
 H  2.60  2.14 -0.51
 H  5.10  1.99 -0.59
 H  4.83  1.47  1.10
 H  6.11 -0.18 -0.35
 H  2.75 -2.01  0.76
