14
set: 814.00  0.00  0.00
 C  0.91 -0.58  0.26
 C  2.33 -0.00  0.14
 C  2.36  1.50 -0.21
 O  1.74  1.77 -1.45
 C  1.75  2.34  0.89
 O  0.88  3.16  0.66
 H  0.95 -1.66  0.45
 H  0.35 -0.42 -0.67
 H  0.35 -0.11  1.08
 H  2.88 -0.53 -0.65
 H  2.89 -0.15  1.07
 H  3.43  1.80 -0.24
 H  1.11  2.49 -1.27
 H  2.16  2.19  1.92
