15
set: 3663.00  0.00  0.00
 C  1.00 -0.00 -0.14
 C  2.46  0.00 -0.05
 C  3.67  0.00  0.02
 C  5.12  0.02  0.12
 C  5.83  1.34 -0.27
 C  5.15  2.22 -1.28
 O  6.92  1.60  0.22
 H  0.61  1.02 -0.21
 H  0.56 -0.48  0.75
 H  0.66 -0.56 -1.02
 H  5.56 -0.75 -0.54
 H  5.46 -0.24  1.14
 H  4.83  1.64 -2.15
 H  5.82  3.03 -1.58
 H  4.23  2.64 -0.84
