17
set: 3761.00  0.00  0.00
 C  1.03 -0.03  0.07
 C  2.55  0.08 -0.16
 C  2.95 -0.73 -1.42
 C  4.44 -0.82 -1.63
 O  5.05 -1.86 -1.80
 C  2.96  1.52 -0.25
 C  3.78  2.16  0.60
 H  0.73  0.50  0.99
 H  0.72 -1.08  0.16
 H  0.47  0.41 -0.77
 H  3.06 -0.37  0.71
 H  2.52 -0.23 -2.31
 H  2.54 -1.75 -1.38
 H  4.98  0.16 -1.62
 H  2.52  2.08 -1.09
 H  4.24  1.64  1.44
 H  4.01  3.21  0.47
