13
set: 433.00  0.00  0.00
 C  0.99 -0.04  0.29
 C  2.50 -0.02 -0.03
 C  2.82 -0.79 -1.29
 C  3.42 -0.30 -2.38
 C  3.00  1.36 -0.07
 N  3.38  2.46 -0.11
 H  0.78  0.46  1.24
 H  0.64 -1.08  0.36
 H  0.42  0.46 -0.51
 H  3.03 -0.51  0.81
 H  2.49 -1.83 -1.27
 H  3.76  0.73 -2.44
 H  3.59 -0.94 -3.25
