13
set: 6093.00  0.00  0.00
 N  0.97  0.00 -0.13
 C  2.42 -0.11  0.03
 C  3.07 -1.32 -0.62
 C  4.04 -0.89 -1.45
 N  4.11  0.52 -1.47
 C  3.11  1.07 -0.68
 O  2.83  2.26 -0.59
 H  0.72  0.98  0.04
 H  0.49 -0.55  0.59
 H  2.77 -0.06  1.09
 H  2.82 -2.35 -0.40
 H  4.73 -1.47 -2.05
 H  4.66  1.07 -2.12
