17
set: 3935.00  0.00  0.00
 C  0.99 -0.13 -0.08
 C  2.51 -0.02  0.02
 C  3.00  1.42  0.21
 O  2.47  2.03  1.39
 C  4.54  1.50  0.19
 C  5.06  2.92  0.19
 O  5.97  3.32 -0.51
 H  0.67 -1.18 -0.17
 H  0.61  0.42 -0.96
 H  0.50  0.30  0.81
 H  2.98 -0.44 -0.88
 H  2.88 -0.63  0.87
 H  2.60  2.03 -0.61
 H  2.71  1.47  2.15
 H  4.97  0.97 -0.67
 H  4.93  1.00  1.11
 H  4.53  3.61  0.89
