17
set: 3866.00  0.00  0.00
 C  0.62  0.88  0.96
 C  1.98  1.52  0.95
 C  2.38  2.39  0.02
 O  3.63  2.95  0.07
 C  4.08  3.84 -0.90
 C  3.19  4.17 -2.06
 C  5.31  4.35 -0.73
 H  0.07  1.12  1.88
 H  0.69 -0.22  0.90
 H  0.01  1.22  0.10
 H  2.68  1.25  1.75
 H  1.73  2.70 -0.81
 H  2.92  3.27 -2.64
 H  3.71  4.86 -2.72
 H  2.25  4.65 -1.73
 H  5.92  4.07  0.14
 H  5.72  5.04 -1.45
