15
set: 1014.00  0.00  0.00
 C  3.34 -2.17 -0.61
 C  2.46 -0.94 -0.39
 C  3.25  0.38 -0.28
 N  3.98  0.74 -1.49
 C  3.48  1.60 -2.43
 O  2.40  2.17 -2.36
 H  2.73 -3.08 -0.65
 H  4.07 -2.29  0.20
 H  3.90 -2.11 -1.56
 H  1.88 -1.06  0.53
 H  1.73 -0.84 -1.21
 H  3.97  0.32  0.55
 H  2.56  1.21 -0.07
 H  4.88  0.32 -1.67
 H  4.19  1.74 -3.28
