15
set: 1380.00  0.00  0.00
 C  1.04 -0.32  0.41
 C  2.50 -0.05  0.33
 C  3.12  1.11 -0.00
 C  2.41  2.35 -0.36
 C  3.00  3.51 -0.69
 C  4.56  1.15 -0.01
 C  5.77  1.21 -0.03
 H  0.77 -1.17 -0.25
 H  0.41  0.54  0.13
 H  0.75 -0.62  1.43
 H  3.15 -0.90  0.58
 H  1.32  2.29 -0.35
 H  4.09  3.61 -0.71
 H  2.40  4.39 -0.94
 H  6.84  1.25 -0.04
