15
set: 4482.00  0.00  0.00
 O  1.00  0.38 -0.31
 C  2.33 -0.16 -0.24
 C  3.29  1.01 -0.04
 C  4.74  0.58  0.01
 C  5.49  0.70  1.12
 C  5.28  0.03 -1.19
 C  5.70 -0.43 -2.24
 H  0.38 -0.36 -0.45
 H  2.59 -0.70 -1.16
 H  2.42 -0.87  0.61
 H  3.03  1.53  0.90
 H  3.14  1.72 -0.87
 H  5.08  1.12  2.03
 H  6.54  0.38  1.13
 H  6.08 -0.83 -3.16
