14
set: 5410.00  0.00  0.00
 C  1.13 -0.97 -0.18
 C  2.24  0.05  0.08
 N  1.74  1.42  0.20
 C  1.89  2.35 -0.77
 O  2.46  2.22 -1.86
 C  1.23  3.69 -0.41
 O  0.63  3.90  0.62
 H  1.55 -1.98 -0.26
 H  0.60 -0.74 -1.12
 H  0.39 -0.97  0.64
 H  2.96  0.05 -0.75
 H  2.79 -0.20  1.00
 H  1.20  1.71  1.01
 H  1.37  4.47 -1.20
