16
set: 6700.00  0.00  0.00
 O  1.70 -0.81  0.32
 C  2.92 -0.39 -0.32
 C  3.06  1.09 -0.18
 C  4.12  1.70  0.38
 C  4.27  3.16  0.50
 C  4.90  3.78  1.71
 N  5.67  3.68  0.46
 H  1.54 -1.73  0.07
 H  2.89 -0.66 -1.40
 H  3.80 -0.89  0.12
 H  2.23  1.69 -0.58
 H  4.94  1.10  0.78
 H  3.50  3.76  0.01
 H  5.26  3.13  2.51
 H  4.52  4.75  2.03
 H  5.68  4.59 -0.02
