13
set: 137.00  0.00  0.00
 C -0.80 -1.01 -0.21
 C -1.20  0.39  0.25
 C  0.01  1.22 -0.20
 O  1.15  0.35 -0.10
 C  0.70 -1.01  0.07
 H -1.33 -1.82  0.33
 H -0.99 -1.13 -1.28
 H -1.30  0.43  1.35
 H -2.14  0.75 -0.18
 H -0.11  1.54 -1.25
 H  0.19  2.11  0.42
 H  1.27 -1.66 -0.61
 H  0.92 -1.34  1.11
