14
set: 5281.00  0.00  0.00
 C  2.88  0.11  1.38
 C  3.62  0.27  0.28
 C  3.43  1.44 -0.62
 O  2.53  2.26 -0.51
 N  4.34  1.46 -1.69
 C  5.77  1.74 -1.52
 C  4.86  2.72 -2.21
 H  3.02 -0.74  2.05
 H  2.10  0.84  1.62
 H  4.41 -0.44  0.02
 H  6.45  1.12 -2.11
 H  6.11  2.00 -0.52
 H  4.57  3.62 -1.67
 H  4.89  2.80 -3.30
