18
set: 1758.00  0.00  0.00
 C  0.99  0.03  0.06
 C  2.33  0.01  0.05
 C  3.14 -1.27  0.02
 C  4.13 -1.25 -1.17
 N  4.96 -0.04 -1.24
 C  4.16  1.18 -1.20
 C  3.17  1.26 -0.01
 H  0.43  0.97  0.06
 H  0.41 -0.90  0.08
 H  2.48 -2.15 -0.04
 H  3.72 -1.35  0.96
 H  4.78 -2.13 -1.13
 H  3.55 -1.31 -2.11
 H  5.62 -0.04 -0.45
 H  4.84  2.05 -1.19
 H  3.59  1.23 -2.14
 H  3.76  1.35  0.92
 H  2.53  2.15 -0.10
