17
set: 4139.00  0.00  0.00
 C  3.64 -0.70 -1.35
 O  3.03 -0.12 -0.20
 C  3.49  1.11  0.17
 C  4.46  1.85 -0.40
 C  4.88  3.18  0.12
 C  4.79  3.54  1.58
 C  6.15  3.32  0.95
 H  3.16 -1.67 -1.49
 H  4.73 -0.84 -1.19
 H  3.49 -0.07 -2.24
 H  2.95  1.46  1.06
 H  4.97  1.49 -1.29
 H  4.70  4.01 -0.57
 H  4.44  2.78  2.28
 H  4.50  4.56  1.84
 H  6.78  4.19  0.77
 H  6.68  2.41  1.20
