19
set: 1301.00  0.00  0.00
 C  0.95  0.04 -0.09
 C  2.49 -0.01 -0.01
 C  3.04 -1.29  0.67
 C  3.39 -0.90  2.13
 C  4.65 -1.59  2.67
 C  3.50  0.61  2.04
 C  3.03  1.09  0.88
 H  0.57 -0.76 -0.75
 H  0.60  1.00 -0.49
 H  0.50 -0.10  0.90
 H  2.88  0.09 -1.04
 H  3.96 -1.61  0.16
 H  2.33 -2.13  0.62
 H  2.56 -1.15  2.81
 H  5.52 -1.36  2.03
 H  4.52 -2.68  2.69
 H  4.88 -1.26  3.69
 H  3.89  1.22  2.86
 H  2.98  2.15  0.61
