15
set: 5783.00  0.00  0.00
 C  1.24  0.31 -1.48
 N  2.59  0.16 -0.97
 C  3.19  1.21 -0.58
 N  4.49  1.18 -0.07
 C  5.19 -0.09  0.03
 C  5.10  2.36  0.33
 O  6.23  2.44  0.77
 H  1.19 -0.04 -2.52
 H  0.86  1.35 -1.45
 H  0.55 -0.32 -0.90
 H  2.75  2.23 -0.60
 H  4.59 -0.80  0.61
 H  6.15  0.10  0.52
 H  5.35 -0.52 -0.97
 H  4.43  3.24  0.19
