13
set: 2862.00  0.00  0.00
 N  1.06 -0.02  0.26
 C  2.43  0.05  0.06
 C  3.10  1.29 -0.02
 C  4.48  1.29 -0.17
 C  5.16  0.07 -0.24
 C  4.41 -1.10 -0.15
 N  3.07 -1.13 -0.01
 H  0.50  0.76 -0.06
 H  0.66 -0.94  0.05
 H  2.54  2.22  0.04
 H  5.02  2.23 -0.24
 H  6.24  0.03 -0.36
 H  4.90 -2.08 -0.20
