17
set: 2872.00  0.00  0.00
 N  0.96 -0.02 -0.00
 C  2.45 -0.01 -0.06
 C  3.02 -1.29  0.60
 C  3.35 -0.91  2.08
 N  4.53 -1.52  2.69
 C  3.46  0.60  2.00
 C  2.99  1.08  0.84
 H  0.61 -0.64 -0.74
 H  0.61  0.92 -0.23
 H  2.83  0.10 -1.09
 H  3.96 -1.57  0.10
 H  2.32 -2.14  0.53
 H  2.49 -1.16  2.73
 H  5.34 -1.41  2.07
 H  4.38 -2.53  2.80
 H  3.85  1.18  2.83
 H  2.93  2.14  0.57
