15
set: 3281.00  0.00  0.00
 C  0.85 -0.02 -0.25
 C  2.18 -0.00 -0.01
 C  2.94  1.26  0.34
 C  4.35  1.20 -0.23
 O  5.08  0.03  0.22
 C  4.35 -1.12  0.17
 C  3.01 -1.19  0.01
 H  0.26  0.90 -0.23
 H  0.32 -0.95 -0.45
 H  2.42  2.16 -0.04
 H  3.00  1.35  1.44
 H  4.96  2.06  0.07
 H  4.31  1.16 -1.34
 H  5.00 -1.99  0.28
 H  2.56 -2.18 -0.07
