14
set: 5036.00  0.00  0.00
 C  0.96 -0.05  0.00
 C  2.50 -0.04 -0.00
 C  3.07  1.29  0.00
 C  3.52  2.42  0.00
 C  3.96  3.81  0.00
 N  5.33  3.97 -0.00
 O  3.18  4.76  0.00
 H  0.58 -1.08  0.00
 H  0.56  0.47 -0.88
 H  0.57  0.46  0.89
 H  2.87 -0.59 -0.88
 H  2.88 -0.59  0.88
 H  5.95  3.17 -0.00
 H  5.70  4.91 -0.00
