18
set: 5877.00  0.00  0.00
 C  1.91 -0.49 -1.23
 O  2.17  0.08  0.05
 C  3.04  1.19 -0.03
 C  2.49  2.55 -0.55
 C  3.20  3.26  0.64
 N  4.42  3.95  0.23
 C  3.33  1.85  1.33
 H  1.25 -1.36 -1.07
 H  2.84 -0.83 -1.72
 H  1.40  0.22 -1.90
 H  3.97  0.90 -0.57
 H  1.39  2.58 -0.45
 H  2.78  2.89 -1.56
 H  2.58  3.98  1.19
 H  5.04  3.32 -0.28
 H  4.94  4.26  1.05
 H  4.29  1.62  1.82
 H  2.50  1.66  2.02
