19
set: 5975.00  0.00  0.00
 C  3.42 -1.32 -0.67
 O  4.24 -0.33 -0.06
 C  3.75  0.99 -0.30
 C  4.71  1.99  0.35
 N  6.10  1.89 -0.14
 C  4.21  3.43  0.16
 N  5.01  4.46  0.83
 H  3.86 -2.30 -0.44
 H  3.39 -1.20 -1.77
 H  2.38 -1.29 -0.29
 H  2.73  1.10  0.13
 H  3.68  1.18 -1.39
 H  4.74  1.77  1.43
 H  6.10  2.01 -1.16
 H  6.45  0.95  0.03
 H  3.17  3.51  0.51
 H  4.20  3.66 -0.92
 H  6.00  4.25  0.65
 H  4.89  4.37  1.85
