14
set: 5448.00  0.00  0.00
 C  0.69 -0.05  0.00
 C  2.16 -0.04 -0.22
 N  2.90  0.78  0.42
 O  4.27  0.61  0.08
 C  5.04  1.62  0.72
 C  6.48  1.14  0.81
 O  7.41  1.87  1.07
 H  0.35 -1.03  0.37
 H  0.15  0.14 -0.94
 H  0.40  0.72  0.73
 H  2.60 -0.75 -0.94
 H  4.67  1.79  1.75
 H  5.00  2.58  0.18
 H  6.61  0.04  0.64
