21
set: 1203.00  0.00  0.00
 C  2.22 -1.08 -0.74
 C  1.91  0.29 -0.12
 C  3.13  1.14  0.17
 C  4.06  0.58  1.23
 C  3.74  1.90 -1.00
 C  2.95  2.65  0.06
 C  3.61  3.66  0.97
 H  1.30 -1.63 -0.98
 H  2.81 -1.71 -0.06
 H  2.79 -0.97 -1.67
 H  1.33  0.15  0.81
 H  1.24  0.84 -0.81
 H  4.93  1.23  1.41
 H  4.45 -0.40  0.93
 H  3.53  0.45  2.19
 H  3.30  1.77 -1.99
 H  4.82  2.04 -1.00
 H  1.94  2.94 -0.26
 H  4.63  3.37  1.23
 H  3.04  3.78  1.91
 H  3.66  4.64  0.48
