16
set: 6229.00  0.00  0.00
 N  1.34 -0.37  0.89
 C  2.05  0.26 -0.24
 C  3.18  1.11  0.29
 O  3.80  2.02 -0.63
 C  3.03  2.58  0.47
 C  3.78  3.33  1.49
 C  3.34  4.45  2.08
 H  0.69 -1.08  0.54
 H  0.78  0.32  1.38
 H  1.42  0.88 -0.91
 H  2.49 -0.54 -0.86
 H  3.88  0.59  0.96
 H  2.07  3.03  0.16
 H  4.76  2.91  1.77
 H  2.37  4.88  1.80
 H  3.91  4.96  2.84
