17
set: 4216.00  0.00  0.00
 C  1.37 -0.23  0.18
 O  2.79 -0.18  0.11
 C  3.26  1.15  0.04
 C  4.77  1.20 -0.02
 C  5.54  0.11  0.07
 C  5.35  2.58 -0.22
 O  5.02  3.15 -1.50
 H  1.09 -1.29  0.22
 H  0.91  0.23 -0.72
 H  0.99  0.29  1.08
 H  2.92  1.73  0.93
 H  2.84  1.67 -0.85
 H  5.11 -0.88  0.20
 H  6.63  0.20  0.03
 H  6.45  2.53 -0.08
 H  4.95  3.29  0.52
 H  5.35  2.54 -2.18
