16
set: 5340.00  0.00  0.00
 C  0.96 -0.02  0.01
 C  2.50 -0.03 -0.04
 N  3.09 -0.76 -1.18
 C  3.01  1.35 -0.02
 C  3.37  2.51 -0.03
 C  3.87  3.88 -0.01
 O  2.84  4.78 -0.45
 H  0.59  0.49  0.91
 H  0.59 -1.06  0.02
 H  0.55  0.49 -0.87
 H  2.87 -0.53  0.88
 H  2.82 -0.29 -2.05
 H  2.68 -1.70 -1.22
 H  4.76  3.94 -0.67
 H  4.20  4.13  1.01
 H  3.22  5.67 -0.44
