16
set: 574.00  0.00  0.00
 C  0.94  0.16 -0.60
 N  2.22  0.24  0.07
 C  3.04  1.37  0.01
 C  2.32  2.70 -0.08
 N  4.31  1.18  0.07
 C  5.21  2.32  0.14
 H  0.47 -0.80 -0.35
 H  1.00  0.23 -1.70
 H  0.26  0.95 -0.25
 H  2.79 -0.60  0.02
 H  1.47  2.73  0.63
 H  1.91  2.86 -1.09
 H  3.00  3.53  0.15
 H  6.24  1.96  0.20
 H  5.04  2.96  1.03
 H  5.15  2.98 -0.75
