14
set: 5299.00  0.00  0.00
 C  0.76 -3.35 -1.51
 C  0.41 -2.51 -0.54
 C  0.75 -1.06 -0.53
 O  1.48 -0.78  0.70
 N  1.69  0.61  0.83
 C  1.14  1.22  1.93
 O  1.51  2.32  2.34
 H  0.46 -4.40 -1.50
 H  1.36 -3.02 -2.37
 H -0.17 -2.87  0.32
 H -0.16 -0.44 -0.54
 H  1.37 -0.79 -1.40
 H  2.63  0.90  0.55
 H  0.31  0.62  2.36
