15
set: 1977.00  0.00  0.00
 C  1.69 -0.64 -1.02
 C  1.98  0.24 -0.06
 C  3.10  1.24 -0.10
 C  3.66  1.64 -1.50
 N  3.97  3.09 -1.42
 C  3.41  3.50 -0.34
 N  2.70  2.58  0.42
 H  0.88 -1.37 -0.90
 H  2.25 -0.69 -1.96
 H  1.40  0.23  0.87
 H  3.93  0.85  0.53
 H  2.89  1.49 -2.28
 H  4.55  1.07 -1.78
 H  3.43  4.55 -0.02
 H  2.69  2.71  1.43
