19
set: 1906.00  0.00  0.00
 C  0.97  0.01  0.00
 C  2.50  0.02 -0.00
 N  2.94  0.09 -1.42
 C  3.09  1.14  0.89
 C  4.51  0.64  1.17
 N  4.29 -0.80  1.42
 C  3.11 -1.25  0.64
 H  0.58 -0.06  1.03
 H  0.59 -0.84 -0.58
 H  0.57  0.93 -0.45
 H  3.96  0.10 -1.46
 H  2.64  0.98 -1.82
 H  2.53  1.21  1.83
 H  3.07  2.12  0.39
 H  5.17  0.85  0.30
 H  4.97  1.13  2.04
 H  5.12 -1.35  1.21
 H  3.36 -1.98 -0.14
 H  2.38 -1.72  1.32
