17
set: 5562.00  0.00  0.00
 C  0.95  2.41  0.67
 C  2.25  1.61  0.69
 O  2.33  0.52  1.26
 N  3.30  2.18  0.03
 C  4.61  1.57 -0.05
 C  5.70  2.63  0.08
 N  5.51  3.67 -0.95
 H  1.07  3.43  0.28
 H  0.55  2.44  1.69
 H  0.22  1.88  0.04
 H  3.21  3.09 -0.42
 H  4.73  1.02 -1.00
 H  4.68  0.83  0.76
 H  6.69  2.14  0.04
 H  5.62  3.12  1.06
 H  5.79  3.31 -1.87
 H  6.11  4.48 -0.76
