16
set: 6744.00  0.00  0.00
 O  1.55  2.84 -0.36
 C  2.40  1.98 -0.50
 C  2.98  1.16  0.63
 N  4.36  0.79  0.36
 C  5.42  1.79  0.64
 C  6.33  0.64  1.13
 C  5.02 -0.17  1.28
 H  2.81  1.72 -1.51
 H  2.38  0.23  0.66
 H  2.83  1.69  1.59
 H  5.15  2.48  1.47
 H  5.75  2.38 -0.23
 H  6.98  0.25  0.34
 H  6.92  0.82  2.04
 H  5.01 -1.22  0.94
 H  4.63 -0.12  2.32
