15
set: 6121.00  0.00  0.00
 N  0.98  0.17 -0.27
 C  2.38  0.05  0.17
 C  3.16  1.31 -0.22
 C  3.51  1.19 -1.69
 O  4.38  0.06 -1.93
 N  3.98 -1.15 -1.37
 C  3.05 -1.14 -0.47
 H  0.44  0.69  0.43
 H  0.54 -0.76 -0.33
 H  2.47 -0.12  1.26
 H  2.55  2.21 -0.04
 H  4.08  1.40  0.39
 H  4.07  2.05 -2.08
 H  2.59  1.05 -2.28
 H  2.80 -2.14 -0.11
