14
set: 6050.00  0.00  0.00
 C  8.05  1.16 -2.65
 O  7.69  0.42 -1.47
 N  6.43  0.87 -1.00
 C  5.39 -0.05 -0.86
 O  4.47  0.22 -0.09
 C  5.45 -1.26 -1.72
 C  4.46 -2.16 -1.70
 H  7.31  1.00 -3.46
 H  9.03  0.77 -2.95
 H  8.12  2.24 -2.44
 H  6.53  1.51 -0.20
 H  6.33 -1.39 -2.36
 H  3.60 -2.01 -1.04
 H  4.49 -3.05 -2.32
