19
set: 3903.00  0.00  0.00
 C  1.32 -0.30  2.10
 C  2.03 -0.87  0.88
 C  2.71  0.21  0.06
 O  3.33 -0.40 -1.08
 C  4.02  0.42 -1.93
 C  4.59 -0.38 -3.06
 C  4.18  1.75 -1.79
 H  0.84 -1.10  2.69
 H  0.53  0.42  1.82
 H  2.02  0.22  2.77
 H  1.31 -1.40  0.23
 H  2.78 -1.61  1.18
 H  3.48  0.73  0.67
 H  1.98  0.97 -0.28
 H  5.25 -1.17 -2.68
 H  5.16  0.25 -3.75
 H  3.78 -0.88 -3.62
 H  3.76  2.32 -0.96
 H  4.75  2.30 -2.53
