16
set: 2173.00  0.00  0.00
 C  2.09 -0.69  1.45
 C  2.65 -0.20  0.10
 C  3.01  1.26  0.10
 C  1.90  2.26  0.24
 C  4.31  1.64 -0.04
 C  4.74  2.99 -0.05
 N  5.13  4.10 -0.06
 H  1.87 -1.77  1.40
 H  1.17 -0.18  1.73
 H  2.82 -0.54  2.26
 H  1.89 -0.37 -0.68
 H  3.53 -0.80 -0.17
 H  1.15  2.11 -0.55
 H  2.26  3.29  0.20
 H  1.37  2.12  1.20
 H  5.09  0.88 -0.15
