15
set: 4414.00  0.00  0.00
 O  0.68  0.47  0.36
 C  1.87  0.23  0.33
 C  2.96  1.20 -0.07
 C  2.45  2.63 -0.36
 C  3.13  3.49  0.73
 O  3.50  2.58  1.77
 C  3.96  1.41  1.10
 H  2.25 -0.78  0.62
 H  3.48  0.74 -0.92
 H  1.36  2.64 -0.26
 H  2.71  2.97 -1.37
 H  4.03  3.99  0.33
 H  2.47  4.25  1.17
 H  4.98  1.56  0.70
 H  3.98  0.58  1.83
