20
set: 5232.00  0.00  0.00
 C  0.87 -0.68  0.03
 C  2.38 -0.43  0.14
 C  2.97 -1.26  1.28
 O  3.04 -0.88 -1.07
 C  2.69  1.07  0.38
 C  2.19  2.04 -0.69
 N  2.78  1.73 -2.02
 H  0.44 -0.16 -0.83
 H  0.34 -0.36  0.94
 H  0.69 -1.76 -0.11
 H  2.49 -1.02  2.24
 H  4.05 -1.07  1.37
 H  2.83 -2.33  1.07
 H  2.91 -0.15 -1.72
 H  3.79  1.17  0.47
 H  2.27  1.38  1.35
 H  2.39  3.08 -0.37
 H  1.10  1.96 -0.79
 H  3.77  1.99 -2.02
 H  2.33  2.28 -2.75
