18
set: 5287.00  0.00  0.00
 C  1.17  0.25  0.40
 C  2.41  0.16 -0.50
 C  3.66 -0.23  0.29
 O  3.62 -0.45  1.50
 N  4.85 -0.33 -0.42
 C  5.00 -0.05 -1.84
 C  6.07 -0.66  0.29
 H  0.29  0.53 -0.19
 H  1.32  0.99  1.19
 H  0.97 -0.71  0.89
 H  2.58  1.13 -1.00
 H  2.24 -0.58 -1.30
 H  4.03  0.07 -2.33
 H  5.54 -0.87 -2.33
 H  5.59  0.88 -2.00
 H  5.82 -0.83  1.34
 H  6.80  0.17  0.22
 H  6.53 -1.57 -0.13
