13
set: 160.00  0.00  0.00
 C  0.91 -0.09  0.05
 C  2.45 -0.02 -0.03
 C  2.92  1.43 -0.02
 C  3.07  2.11 -1.36
 O  3.15  2.01  1.03
 H  0.57 -1.14  0.06
 H  0.44  0.40 -0.82
 H  0.54  0.40  0.96
 H  2.80 -0.53 -0.94
 H  2.88 -0.52  0.85
 H  3.94  1.68 -1.89
 H  3.22  3.18 -1.23
 H  2.19  1.92 -2.00
