15
set: 5538.00  0.00  0.00
 C  1.20 -0.65 -0.51
 C  2.61 -0.33 -0.07
 O  3.42 -1.20  0.22
 C  2.98  1.14 -0.00
 N  4.25  1.33  0.64
 N  4.92  2.47  0.31
 C  6.19  2.53  0.55
 H  0.81  0.09 -1.22
 H  0.55 -0.65  0.38
 H  1.17 -1.66 -0.95
 H  2.17  1.69  0.52
 H  2.97  1.53 -1.04
 H  4.79  0.46  0.71
 H  6.70  3.46  0.32
 H  6.76  1.69  0.97
