20
set: 2045.00  0.00  0.00
 C  1.04 -0.25 -0.00
 C  2.48 -0.13 -0.52
 C  3.38  0.70  0.40
 C  4.83  0.80 -0.08
 C  5.79  1.51  0.91
 N  6.23  0.18  1.41
 C  5.69 -0.47  0.18
 H  0.42 -0.84 -0.69
 H  0.58  0.74  0.11
 H  1.01 -0.74  0.98
 H  2.48  0.32 -1.52
 H  2.91 -1.14 -0.63
 H  3.37  0.28  1.42
 H  2.96  1.72  0.49
 H  4.86  1.18 -1.11
 H  5.33  2.16  1.68
 H  6.57  2.09  0.39
 H  7.24  0.08  1.55
 H  6.44 -0.63 -0.62
 H  5.16 -1.41  0.37
