19
set: 3459.00  0.00  0.00
 C  2.11 -0.35 -1.52
 C  2.46  0.15 -0.12
 C  3.21  1.48 -0.11
 C  2.42  2.70 -0.60
 C  3.10  3.84  0.15
 C  3.41  3.19  1.50
 O  3.61  1.79  1.24
 H  1.62 -1.33 -1.49
 H  3.02 -0.45 -2.14
 H  1.43  0.34 -2.04
 H  3.08 -0.60  0.40
 H  1.54  0.27  0.49
 H  4.13  1.36 -0.73
 H  1.36  2.60 -0.29
 H  2.45  2.81 -1.69
 H  4.04  4.13 -0.36
 H  2.48  4.74  0.24
 H  4.32  3.60  1.98
 H  2.57  3.31  2.20
