17
set: 5567.00  0.00  0.00
 C  4.88  1.66 -1.86
 C  4.74  1.56 -0.36
 O  5.81  2.35  0.22
 N  5.73  2.29  1.64
 C  6.84  1.52  2.18
 C  5.44  3.54  2.21
 N  5.02  4.60  1.65
 H  4.09  1.06 -2.34
 H  5.85  1.28 -2.20
 H  4.78  2.70 -2.20
 H  4.84  0.51 -0.01
 H  3.77  1.94 -0.01
 H  6.76  0.47  1.85
 H  6.77  1.54  3.28
 H  7.82  1.92  1.87
 H  5.56  3.50  3.31
 H  5.00  4.46  0.63
