18
set: 2378.00  0.00  0.00
 C  1.10 -0.38  0.44
 C  2.62 -0.17  0.49
 C  3.06  1.25  0.08
 N  2.58  2.34  0.95
 C  4.60  1.37  0.01
 C  5.22  0.49 -0.97
 C  5.73 -0.24 -1.80
 H  0.84 -1.41  0.72
 H  0.71 -0.20 -0.57
 H  0.57  0.29  1.13
 H  3.11 -0.89 -0.18
 H  3.00 -0.37  1.50
 H  2.67  1.46 -0.93
 H  2.82  2.13  1.93
 H  1.56  2.39  0.92
 H  5.02  1.16  1.01
 H  4.85  2.42 -0.22
 H  6.18 -0.88 -2.52
