15
set: 6801.00  0.00  0.00
 O  1.73 -0.69  2.98
 C  2.41 -0.10  2.16
 N  3.77 -0.27  2.01
 N  4.49  0.42  1.06
 C  5.70  1.18  1.51
 C  6.38  0.77  0.18
 C  5.33 -0.36  0.10
 H  2.03  0.65  1.43
 H  4.23 -0.95  2.63
 H  6.19  0.71  2.38
 H  5.52  2.24  1.72
 H  6.24  1.52 -0.61
 H  7.43  0.48  0.23
 H  4.84 -0.58 -0.86
 H  5.71 -1.30  0.55
