17
set: 404.00  0.00  0.00
 C  3.00 -1.22 -0.38
 C  2.39  0.09  0.13
 C  3.39  1.22  0.16
 C  3.64  2.10 -1.02
 N  2.88  2.60  0.13
 C  3.58  3.56  0.98
 H  2.26 -2.03 -0.40
 H  3.84 -1.55  0.26
 H  3.40 -1.10 -1.40
 H  1.99 -0.06  1.15
 H  1.54  0.39 -0.50
 H  4.27  1.06  0.80
 H  3.07  1.96 -1.94
 H  4.66  2.48 -1.16
 H  3.14  3.54  1.98
 H  3.44  4.57  0.56
 H  4.67  3.36  1.06
