17
set: 4194.00  0.00  0.00
 C  3.18 -1.22  0.63
 O  2.43 -0.11  0.12
 C  3.11  1.06 -0.04
 C  4.40  1.32  0.23
 C  5.01  2.67 -0.02
 C  6.01  2.65 -1.19
 O  5.40  2.29 -2.42
 H  2.48 -2.06  0.71
 H  3.59 -0.99  1.63
 H  4.01 -1.48 -0.05
 H  2.43  1.83 -0.42
 H  5.06  0.54  0.62
 H  5.54  3.03  0.88
 H  4.22  3.41 -0.25
 H  6.85  1.97 -0.95
 H  6.44  3.66 -1.34
 H  4.84  1.51 -2.23
