16
set: 6333.00  0.00  0.00
 N  0.94 -0.04 -0.23
 C  2.39 -0.11 -0.51
 C  2.58 -1.18 -1.60
 O  1.74 -0.93 -2.72
 C  2.86  1.28 -0.98
 C  4.31  1.37 -1.16
 C  5.51  1.42 -1.29
 H  0.72  0.77  0.35
 H  0.65 -0.87  0.30
 H  3.00 -0.40  0.37
 H  2.37 -2.18 -1.17
 H  3.63 -1.18 -1.96
 H  0.90 -0.62 -2.33
 H  2.54  2.04 -0.25
 H  2.36  1.52 -1.94
 H  6.57  1.48 -1.41
