19
set: 4006.00  0.00  0.00
 C  1.42  0.12 -0.47
 C  2.93  0.22 -0.37
 O  3.29  1.61 -0.31
 C  4.64  1.84 -0.23
 C  5.17  3.07 -0.14
 C  4.32  4.31 -0.13
 C  6.66  3.25 -0.06
 H  1.12 -0.94 -0.51
 H  1.05  0.62 -1.37
 H  0.94  0.58  0.41
 H  3.41 -0.25 -1.25
 H  3.30 -0.30  0.54
 H  5.28  0.94 -0.23
 H  3.25  4.08 -0.18
 H  4.58  4.97 -0.98
 H  4.51  4.90  0.78
 H  7.19  2.29 -0.07
 H  6.95  3.78  0.86
 H  7.04  3.86 -0.90
