20
set: 1709.00  0.00  0.00
 C  0.95 -0.08  0.10
 C  2.47  0.02  0.03
 C  3.20  1.11  0.86
 C  4.24  0.01  1.22
 C  5.53  0.08  0.41
 N  3.22 -1.00  0.79
 C  3.62 -2.23  0.12
 H  0.59 -0.99 -0.40
 H  0.48  0.78 -0.39
 H  0.62 -0.11  1.15
 H  2.79  0.06 -1.04
 H  2.61  1.44  1.72
 H  3.59  1.98  0.31
 H  4.48 -0.08  2.29
 H  5.35  0.22 -0.66
 H  6.14 -0.83  0.54
 H  6.14  0.93  0.76
 H  2.73 -2.81 -0.13
 H  4.24 -2.84  0.80
 H  4.20 -2.07 -0.82
