15
set: 1276.00  0.00  0.00
 C  0.90  0.00 -0.25
 C  2.23  0.01  0.03
 C  2.98  1.25  0.18
 C  4.30  1.27  0.45
 C  5.12  0.02  0.62
 C  4.31 -1.24  0.45
 C  2.99 -1.23  0.18
 H  0.35 -0.93 -0.36
 H  0.34  0.93 -0.36
 H  2.44  2.19  0.07
 H  4.83  2.22  0.56
 H  5.96  0.02 -0.10
 H  5.61  0.02  1.61
 H  4.84 -2.19  0.56
 H  2.45 -2.17  0.07
