16
set: 1761.00  0.00  0.00
 C  0.91  0.08  0.07
 C  2.41 -0.01  0.00
 C  3.18 -1.11 -0.08
 C  4.65 -0.72 -0.09
 N  5.53 -1.24 -1.15
 C  4.58  0.79 -0.07
 C  3.29  1.18  0.01
 H  0.45 -0.92  0.02
 H  0.51  0.69 -0.75
 H  0.59  0.55  1.01
 H  2.84 -2.15 -0.11
 H  5.09 -1.04  0.87
 H  5.11 -1.02 -2.06
 H  5.55 -2.26 -1.10
 H  5.47  1.42 -0.09
 H  2.93  2.21  0.08
