18
set: 5016.00  0.00  0.00
 C  0.96 -0.07 -0.05
 C  2.51 -0.02  0.05
 C  2.97 -0.75  1.32
 C  3.12 -0.70 -1.19
 C  2.93  1.43  0.04
 N  3.58  1.95  1.01
 O  3.85  3.33  0.76
 H  0.61  0.46 -0.95
 H  0.50  0.40  0.83
 H  0.62 -1.11 -0.11
 H  2.55 -0.28  2.22
 H  4.06 -0.72  1.42
 H  2.64 -1.80  1.29
 H  2.81 -0.19 -2.12
 H  2.78 -1.75 -1.26
 H  4.22 -0.69 -1.15
 H  2.65  2.03 -0.84
 H  4.33  3.58  1.57
