19
set: 4254.00  0.00  0.00
 C  3.98  6.44  1.36
 O  5.17  5.77  0.95
 C  5.58  6.12 -0.36
 O  4.69  5.69 -1.38
 C  4.71  4.26 -1.61
 C  3.35  3.89 -2.18
 C  5.86  3.89 -2.56
 H  3.78  6.14  2.39
 H  3.12  6.17  0.73
 H  4.12  7.54  1.33
 H  6.58  5.68 -0.47
 H  5.62  7.22 -0.47
 H  4.85  3.75 -0.64
 H  3.17  4.43 -3.13
 H  2.55  4.16 -1.48
 H  3.29  2.81 -2.38
 H  5.73  4.39 -3.53
 H  5.88  2.80 -2.73
 H  6.83  4.18 -2.15
