16
set: 5771.00  0.00  0.00
 C  1.02 -0.34  1.22
 N  2.25 -0.13  0.47
 C  2.68  1.26  0.48
 C  3.99  1.44 -0.27
 O  5.07  0.72  0.42
 C  5.90  1.47  1.18
 O  5.86  2.67  1.35
 H  0.78 -1.42  1.24
 H  0.19  0.17  0.71
 H  1.04  0.03  2.27
 H  3.00 -0.70  0.88
 H  2.78  1.69  1.50
 H  1.92  1.86 -0.05
 H  4.27  2.50 -0.33
 H  3.94  0.99 -1.26
 H  6.65  0.79  1.63
