21
set: 1399.00  0.00  0.00
 C  1.06  0.34 -1.69
 C  2.50  0.62 -1.38
 C  2.95  1.35 -0.35
 C  4.39  1.63 -0.05
 C  4.76  3.13 -0.02
 C  6.20  3.33  0.47
 C  4.54  3.79 -1.39
 H  0.78  0.71 -2.68
 H  0.39  0.81 -0.95
 H  0.86 -0.75 -1.69
 H  3.23  0.19 -2.07
 H  2.21  1.79  0.34
 H  5.03  1.11 -0.78
 H  4.64  1.20  0.94
 H  4.08  3.62  0.71
 H  6.91  2.85 -0.22
 H  6.35  2.88  1.46
 H  6.46  4.39  0.53
 H  5.21  3.35 -2.14
 H  4.76  4.87 -1.34
 H  3.51  3.66 -1.74
