15
set: 2445.00  0.00  0.00
 C  2.26 -0.47 -1.42
 C  2.56  0.01 -0.00
 N  3.03  1.40  0.04
 C  2.27  2.54 -0.12
 C  3.16  3.59 -0.06
 N  4.45  3.13  0.12
 C  4.33  1.82  0.17
 H  1.92 -1.52 -1.39
 H  3.15 -0.41 -2.05
 H  1.46  0.13 -1.88
 H  3.34 -0.61  0.46
 H  1.67 -0.07  0.64
 H  1.19  2.49 -0.24
 H  2.94  4.65 -0.14
 H  5.15  1.11  0.31
