13
set: 4357.00  0.00  0.00
 O  1.06 -0.14 -0.52
 C  2.49 -0.06 -0.25
 C  2.83  1.18  0.53
 C  3.31  1.14  1.78
 O  3.64 -0.02  2.45
 C  3.45 -1.19  1.75
 C  2.97 -1.26  0.50
 H  0.62 -0.17  0.36
 H  2.91 -0.02 -1.27
 H  2.61  2.15  0.08
 H  3.52  2.01  2.39
 H  3.76 -2.05  2.35
 H  2.87 -2.24  0.03
