15
set: 3493.00  0.00  0.00
 C  2.49 -0.57 -1.54
 C  2.46  0.02 -0.12
 C  3.21  1.35 -0.02
 C  2.54  2.62 -0.56
 O  2.53  3.22  0.79
 C  3.11  2.08  1.33
 O  3.38  1.86  2.48
 H  1.95 -1.53 -1.58
 H  3.53 -0.75 -1.87
 H  2.02  0.11 -2.27
 H  2.92 -0.69  0.59
 H  1.42  0.16  0.21
 H  4.25  1.24 -0.33
 H  1.51  2.51 -0.93
 H  3.13  3.24 -1.25
