13
set: 1992.00  0.00  0.00
 C  2.67 -1.20  0.36
 C  2.20  0.05  0.17
 C  2.99  1.27  0.10
 C  2.50  2.56 -0.11
 N  3.58  3.39 -0.10
 N  4.76  2.74  0.08
 C  4.40  1.46  0.21
 H  2.00 -2.05  0.40
 H  3.74 -1.40  0.49
 H  1.12  0.18  0.05
 H  1.49  2.93 -0.25
 H  3.59  4.40 -0.23
 H  5.17  0.71  0.37
