16
set: 4619.00  0.00  0.00
 C  1.46  0.31 -0.18
 C  2.84 -0.25  0.06
 C  3.07 -1.74  0.25
 N  4.53 -1.96  0.19
 C  5.07 -0.86 -0.65
 C  4.10  0.29 -0.49
 O  3.74  0.55  0.89
 H  1.50  1.39 -0.36
 H  0.82  0.13  0.70
 H  0.99 -0.18 -1.05
 H  2.57 -2.29 -0.56
 H  2.67 -2.12  1.21
 H  4.90 -1.82  1.13
 H  6.10 -0.62 -0.34
 H  5.10 -1.16 -1.71
 H  4.13  1.17 -1.14
