15
set: 3719.00  0.00  0.00
 C  0.97  0.00 -0.15
 C  2.47 -0.10 -0.03
 C  2.99 -1.50  0.18
 C  3.23  1.01 -0.06
 C  4.70  1.13  0.12
 O  5.50  0.23 -0.56
 O  5.22  1.98  0.82
 H  0.64  1.03 -0.33
 H  0.49 -0.36  0.77
 H  0.61 -0.64 -0.97
 H  2.43 -1.98  1.00
 H  4.06 -1.54  0.44
 H  2.81 -2.12 -0.71
 H  2.74  1.99 -0.11
 H  4.92 -0.29 -1.16
