14
set: 5149.00  0.00  0.00
 C  0.97 -0.32  0.08
 C  2.46  0.02 -0.08
 C  3.06 -0.69 -1.21
 N  3.52 -1.26 -2.12
 C  2.65  1.57 -0.14
 C  3.20  2.18 -1.40
 O  2.32  2.22  0.83
 H  0.58  0.23  0.95
 H  0.84 -1.40  0.25
 H  0.40 -0.04 -0.81
 H  3.00 -0.30  0.83
 H  2.60  1.88 -2.27
 H  4.22  1.80 -1.59
 H  3.22  3.27 -1.31
