15
set: 5353.00  0.00  0.00
 C  0.99  0.00 -0.05
 C  2.49 -0.07  0.05
 N  2.99 -1.36  0.12
 C  3.25  1.06  0.14
 C  4.69  1.10  0.23
 N  5.31  2.23  0.31
 O  6.72  2.00  0.39
 H  0.65  1.04 -0.05
 H  0.52 -0.52  0.80
 H  0.64 -0.48 -0.97
 H  2.42 -2.08 -0.32
 H  3.99 -1.49 -0.05
 H  2.74  2.02  0.14
 H  5.28  0.17  0.24
 H  7.06  2.91  0.45
