18
set: 1555.00  0.00  0.00
 C -1.76  0.71  0.29
 C -1.79 -0.73 -0.34
 C -0.28 -0.81  0.06
 C  1.07 -1.19 -0.52
 N  1.95 -0.09  0.01
 C  1.10  1.05  0.55
 C -0.24  0.71 -0.07
 H -2.39  1.49 -0.16
 H -1.94  0.67  1.37
 H -1.94 -0.68 -1.43
 H -2.48 -1.47  0.10
 H -0.26 -1.05  1.14
 H  1.46 -2.17 -0.20
 H  1.06 -1.17 -1.63
 H  2.53 -0.46  0.76
 H  1.06  1.05  1.65
 H  1.53  2.01  0.21
 H -0.18  0.94 -1.15
