15
set: 4544.00  0.00  0.00
 O  0.93  0.07 -0.07
 C  2.30 -0.03 -0.08
 O  2.82 -1.11 -0.18
 C  3.04  1.30  0.04
 C  4.56  1.12  0.20
 C  5.28  2.44  0.18
 C  6.03  2.91  1.19
 H  0.67  1.01  0.03
 H  2.63  1.87  0.88
 H  2.82  1.88 -0.87
 H  4.92  0.48 -0.62
 H  4.77  0.58  1.13
 H  5.18  3.04 -0.73
 H  6.16  2.35  2.11
 H  6.54  3.88  1.11
