19
set: 1180.00  0.00  0.00
 C -1.76  0.86  0.52
 C -1.15 -0.24 -0.33
 C -0.34 -1.36  0.30
 C  1.10 -1.37 -0.25
 C  1.79  0.03 -0.17
 C  0.87  1.12  0.43
 C -0.48  1.13 -0.25
 H -2.68  1.33  0.17
 H -1.68  0.76  1.60
 H -1.67 -0.49 -1.26
 H -0.32 -1.24  1.39
 H -0.82 -2.34  0.11
 H  1.70 -2.12  0.29
 H  1.08 -1.70 -1.30
 H  2.72 -0.03  0.41
 H  2.08  0.35 -1.18
 H  0.74  0.93  1.51
 H  1.36  2.10  0.36
 H -0.57  1.77 -1.13
