13
set: 1765.00  0.00  0.00
 C  1.01 -0.02  0.05
 C  2.51  0.05 -0.02
 C  3.20  1.27 -0.05
 C  4.59  1.21 -0.11
 N  5.27  0.05 -0.14
 C  4.51 -1.05 -0.12
 N  3.18 -1.12 -0.06
 H  0.55  0.97  0.08
 H  0.70 -0.59  0.94
 H  0.62 -0.57 -0.82
 H  2.68  2.22 -0.02
 H  5.19  2.13 -0.13
 H  5.04 -2.01 -0.14
