17
set: 3885.00  0.00  0.00
 C  0.95 -0.02  0.20
 C  2.46 -0.05 -0.04
 C  2.81 -0.79 -1.34
 O  2.40 -2.16 -1.33
 C  3.03  1.39 -0.07
 C  4.49  1.46 -0.11
 C  5.70  1.49 -0.13
 H  0.70  0.42  1.18
 H  0.53 -1.03  0.16
 H  0.44  0.58 -0.58
 H  2.94 -0.58  0.80
 H  3.89 -0.70 -1.54
 H  2.27 -0.33 -2.18
 H  3.00 -2.64 -0.72
 H  2.68  1.93  0.82
 H  2.62  1.93 -0.94
 H  6.77  1.53 -0.15
