18
set: 1664.00  0.00  0.00
 C  1.04  0.06  0.45
 C  2.50  0.02 -0.02
 C  2.85 -1.34 -0.69
 C  2.65 -1.09 -2.18
 C  3.75 -0.36 -2.92
 C  2.58  0.42 -2.36
 N  2.72  1.06 -1.06
 H  0.79  1.06  0.84
 H  0.87 -0.68  1.25
 H  0.36 -0.16 -0.38
 H  3.16  0.23  0.83
 H  2.20 -2.15 -0.33
 H  3.89 -1.64 -0.47
 H  1.99 -1.74 -2.75
 H  4.72 -0.26 -2.42
 H  3.81 -0.49 -4.00
 H  1.87  0.87 -3.06
 H  3.66  1.46 -0.97
