17
set: 1754.00  0.00  0.00
 C  0.94  0.01  0.04
 C  2.47  0.02  0.05
 C  3.11  1.18  0.84
 C  4.48  0.62  1.26
 N  4.17 -0.79  1.45
 C  3.11 -1.23  0.68
 N  2.82 -2.48  0.56
 H  0.55 -0.86 -0.50
 H  0.55  0.91 -0.44
 H  0.55 -0.03  1.07
 H  2.83  0.05 -0.99
 H  2.51  1.40  1.73
 H  3.20  2.10  0.25
 H  5.24  0.78  0.47
 H  4.85  1.07  2.19
 H  4.88 -1.47  1.73
 H  1.98 -2.59 -0.02
