14
set: 6576.00  0.00  0.00
 O  0.97  0.06  0.08
 C  2.39 -0.05  0.01
 C  3.00  1.12  0.81
 N  4.26  0.57  1.27
 C  4.31 -0.81  1.29
 O  5.23 -1.49  1.73
 C  3.00 -1.30  0.67
 H  0.59 -0.57 -0.56
 H  2.73  0.02 -1.04
 H  2.32  1.38  1.64
 H  3.15  2.02  0.18
 H  4.97  1.11  1.76
 H  3.18 -2.14 -0.01
 H  2.35 -1.64  1.49
