15
set: 1143.00  0.00  0.00
 O  0.76  0.29 -0.35
 C  2.16  0.01 -0.45
 C  2.87  0.90  0.57
 N  4.32  0.66  0.52
 C  5.06  1.54 -0.39
 C  5.14  1.73  1.09
 H  0.29 -0.31 -0.96
 H  2.55  0.23 -1.46
 H  2.38 -1.05 -0.22
 H  2.51  0.64  1.58
 H  2.60  1.96  0.38
 H  4.50  2.29 -0.95
 H  5.89  1.07 -0.93
 H  6.02  1.40  1.64
 H  4.63  2.61  1.50
