17
set: 3159.00  0.00  0.00
 C  0.81  0.05 -0.47
 C  2.26  0.07 -0.05
 C  3.26 -0.77 -0.82
 C  3.28  0.73 -0.96
 C  2.54  0.20  1.42
 C  1.60  0.77  2.40
 O  1.81 -0.66  2.33
 H  0.73 -0.17 -1.55
 H  0.32  1.02 -0.29
 H  0.26 -0.73  0.07
 H  2.87 -1.36 -1.66
 H  4.07 -1.25 -0.27
 H  4.11  1.28 -0.50
 H  2.91  1.18 -1.88
 H  3.61  0.28  1.67
 H  0.61  1.10  2.07
 H  1.98  1.25  3.30
