17
set: 3895.00  0.00  0.00
 C  0.92 -0.05 -0.04
 C  2.45 -0.01  0.03
 C  3.01  1.42  0.04
 O  2.50  2.18  1.17
 C  4.47  1.43  0.00
 C  5.69  1.42  0.01
 C  7.14  1.43  0.00
 H  0.55 -1.09 -0.01
 H  0.56  0.40 -0.98
 H  0.48  0.50  0.80
 H  2.89 -0.54 -0.84
 H  2.81 -0.54  0.93
 H  2.62  1.96 -0.84
 H  3.06  1.94  1.93
 H  7.54  2.45 -0.02
 H  7.53  0.90 -0.89
 H  7.55  0.92  0.89
