18
set: 4718.00  0.00  0.00
 C  0.99 -0.12  0.22
 C  2.47  0.04 -0.07
 C  2.79  0.04 -1.57
 N  2.17  1.19 -2.25
 C  3.22  1.13  0.74
 C  4.05 -0.03  1.31
 O  3.25 -1.02  0.59
 H  0.81 -0.17  1.30
 H  0.60 -1.04 -0.24
 H  0.42  0.74 -0.18
 H  2.49 -0.95 -1.97
 H  3.88  0.12 -1.68
 H  1.18  1.01 -2.42
 H  2.59  1.31 -3.17
 H  2.60  1.65  1.48
 H  3.75  1.87  0.13
 H  5.11 -0.06  0.99
 H  4.00 -0.18  2.40
