19
set: 2952.00  0.00  0.00
 N  2.01  2.01  2.54
 C  3.32  1.99  1.87
 C  3.15  2.09  0.35
 C  4.47  2.08 -0.43
 C  5.34  3.30 -0.20
 C  6.44  3.32  0.80
 N  6.74  3.19 -0.64
 H  2.14  1.99  3.55
 H  1.48  1.17  2.30
 H  3.93  1.09  2.10
 H  3.90  2.86  2.24
 H  2.58  3.01  0.13
 H  2.52  1.25  0.01
 H  4.24  2.02 -1.51
 H  5.05  1.18 -0.20
 H  4.83  4.26 -0.37
 H  6.65  2.42  1.39
 H  6.66  4.27  1.31
 H  7.06  4.10 -1.01
