19
set: 5529.00  0.00  0.00
 C  0.83 -0.21 -0.10
 C  2.34  0.05 -0.19
 O  2.98 -0.35  1.04
 C  2.99 -0.76 -1.31
 N  2.79 -2.20 -1.10
 C  2.63  1.56 -0.40
 N  2.34  2.29  0.84
 H  0.31  0.12 -1.01
 H  0.39  0.31  0.76
 H  0.65 -1.29  0.02
 H  2.89  0.44  1.61
 H  4.06 -0.46 -1.35
 H  2.53 -0.48 -2.27
 H  3.24 -2.46 -0.22
 H  3.26 -2.73 -1.84
 H  2.07  1.93 -1.28
 H  3.71  1.67 -0.61
 H  1.35  2.53  0.91
 H  2.86  3.17  0.88
