17
set: 3075.00  0.00  0.00
 C  1.89  0.13 -0.74
 C  1.87 -0.13  0.76
 C  0.58  0.03 -0.00
 C -0.34  1.24  0.22
 C -1.71  0.69 -0.19
 O -1.67 -0.70  0.15
 C -0.37 -1.15 -0.25
 H  2.22  1.12 -1.08
 H  2.17 -0.69 -1.40
 H  2.14 -1.13  1.10
 H  2.17  0.67  1.42
 H -0.35  1.53  1.29
 H -0.04  2.12 -0.37
 H -2.56  1.14  0.34
 H -1.87  0.81 -1.28
 H -0.38 -1.42 -1.33
 H -0.13 -2.04  0.34
