16
set: 1797.00  0.00  0.00
 C  1.27 -0.16  0.14
 C  2.74 -0.07 -0.16
 C  3.31 -0.36 -1.51
 N  3.19  1.03 -1.04
 C  4.46  1.66 -0.64
 C  5.16  2.25 -1.78
 C  5.75  2.74 -2.71
 H  0.99  0.52  0.95
 H  1.00 -1.18  0.44
 H  0.68  0.11 -0.75
 H  3.41 -0.31  0.68
 H  2.65 -0.62 -2.34
 H  4.32 -0.79 -1.56
 H  5.14  0.95 -0.14
 H  4.22  2.45  0.09
 H  6.27  3.17 -3.54
