15
set: 3882.00  0.00  0.00
 C  0.86  0.14  0.00
 C  2.35  0.02  0.01
 C  2.92 -1.37 -0.04
 O  2.54 -2.07 -1.24
 C  3.15  1.12  0.03
 C  4.57  1.11  0.03
 C  5.79  1.17  0.03
 H  0.52  1.18 -0.06
 H  0.43 -0.30  0.92
 H  0.43 -0.43 -0.84
 H  2.51 -1.97  0.78
 H  4.02 -1.34  0.07
 H  2.97 -1.61 -1.99
 H  2.69  2.11  0.06
 H  6.86  1.21  0.02
