17
set: 1330.00  0.00  0.00
 C  2.46 -0.63 -1.37
 C  2.33  0.07 -0.01
 C  2.91  1.45  0.01
 C  2.27  2.64  0.17
 C  3.23  3.74  0.13
 C  4.47  3.24 -0.06
 C  4.39  1.75 -0.15
 H  1.99 -1.63 -1.35
 H  3.51 -0.77 -1.66
 H  1.97 -0.05 -2.17
 H  2.81 -0.55  0.76
 H  1.26  0.13  0.27
 H  1.19  2.75  0.32
 H  2.96  4.79  0.23
 H  5.40  3.81 -0.14
 H  4.78  1.37 -1.12
 H  4.99  1.25  0.63
