19
set: 511.00  0.00  0.00
 C  1.00 -0.18  0.64
 C  2.49 -0.00  0.95
 N  3.02  1.31  0.56
 C  2.48  2.37  1.39
 C  4.49  1.33  0.60
 C  5.16  0.50 -0.49
 H  0.69 -1.21  0.86
 H  0.81  0.02 -0.42
 H  0.37  0.49  1.24
 H  3.05 -0.77  0.40
 H  2.67 -0.19  2.04
 H  1.38  2.42  1.29
 H  2.88  3.34  1.06
 H  2.72  2.25  2.47
 H  4.87  1.03  1.60
 H  4.79  2.39  0.47
 H  4.99 -0.58 -0.36
 H  6.24  0.67 -0.48
 H  4.77  0.78 -1.48
