14
set: 2192.00  0.00  0.00
 C  0.93  0.02  0.01
 C  2.46 -0.01  0.00
 C  3.06  1.42  0.00
 C  4.51  1.44 -0.00
 C  5.73  1.42 -0.00
 C  7.09  1.41 -0.00
 N  8.27  1.40 -0.01
 H  0.53 -1.00  0.01
 H  0.54  0.53 -0.88
 H  0.54  0.54  0.89
 H  2.84 -0.55 -0.88
 H  2.84 -0.54  0.89
 H  2.70  1.98  0.88
 H  2.70  1.97 -0.88
