13
set: 7028.00  0.00  0.00
 C  0.88 -0.12 -0.04
 C  2.41 -0.01  0.04
 C  2.91  1.40 -0.02
 N  3.35  2.06  1.02
 N  3.72  3.35  0.74
 C  3.55  3.65 -0.52
 S  2.91  2.36 -1.49
 H  0.57 -1.17  0.03
 H  0.50  0.29 -0.99
 H  0.41  0.44  0.78
 H  2.87 -0.60 -0.76
 H  2.77 -0.43  1.00
 H  3.79  4.63 -0.94
