13
set: 3410.00  0.00  0.00
 C  1.06  0.03  0.18
 C  2.36  0.03 -0.15
 O  3.11  1.16 -0.36
 C  4.41  0.79 -0.94
 C  4.63 -0.68 -0.61
 C  3.21 -1.19 -0.31
 O  2.86 -2.35 -0.20
 H  0.58 -0.93  0.36
 H  0.49  0.95  0.28
 H  4.36  0.96 -2.02
 H  5.15  1.47 -0.49
 H  5.09 -1.27 -1.42
 H  5.23 -0.82  0.30
