16
set: 6076.00  0.00  0.00
 N  1.34  0.11  0.95
 C  2.48  0.00  0.02
 C  2.43 -1.33 -0.77
 C  3.01 -0.99 -2.13
 O  4.25 -0.23 -2.07
 C  3.00  0.47 -2.30
 C  2.42  1.11 -1.06
 H  1.41  0.99  1.47
 H  1.42 -0.63  1.66
 H  3.46  0.07  0.52
 H  1.38 -1.65 -0.90
 H  2.98 -2.14 -0.27
 H  2.93 -1.69 -2.97
 H  2.92  0.95 -3.28
 H  2.96  2.03 -0.76
 H  1.37  1.38 -1.26
