19
set: 1273.00  0.00  0.00
 C  0.95  0.02 -0.01
 C  2.48  0.01  0.07
 C  3.10  1.15  0.90
 C  4.53  0.66  1.18
 C  4.35 -0.85  1.45
 C  3.10 -1.25  0.67
 C  2.62 -2.49  0.56
 H  0.58 -0.79 -0.66
 H  0.59  0.97 -0.43
 H  0.51 -0.11  0.98
 H  2.88  0.10 -0.96
 H  2.55  1.25  1.85
 H  3.06  2.12  0.39
 H  5.15  0.81  0.28
 H  5.02  1.19  2.01
 H  5.23 -1.45  1.17
 H  4.18 -1.02  2.52
 H  1.70 -2.71  0.01
 H  3.13 -3.34  1.02
