20
set: 5693.00  0.00  0.00
 C  1.18 -0.27  0.11
 N  2.61 -0.07  0.28
 C  3.03  1.33  0.19
 C  2.56  2.14  1.40
 C  4.56  1.40  0.01
 C  5.36  0.80  1.17
 O  4.84  0.71 -1.23
 H  0.97 -1.35  0.00
 H  0.75  0.25 -0.77
 H  0.63  0.07  1.00
 H  3.10 -0.57 -0.47
 H  2.61  1.81 -0.73
 H  2.88  1.66  2.34
 H  1.47  2.23  1.41
 H  2.98  3.16  1.36
 H  4.83  2.47 -0.10
 H  5.07 -0.24  1.34
 H  5.20  1.37  2.09
 H  6.44  0.84  0.94
 H  5.80  0.59 -1.29
