19
set: 3697.00  0.00  0.00
 C  1.05 -0.07  0.18
 C  2.57 -0.18  0.14
 C  3.25  1.19 -0.00
 C  4.79  1.12 -0.05
 C  5.40  2.50 -0.36
 C  5.33  0.66  1.29
 O  6.04 -0.30  1.48
 H  0.58 -1.06  0.28
 H  0.65  0.40 -0.73
 H  0.71  0.54  1.04
 H  2.88 -0.82 -0.70
 H  2.93 -0.68  1.06
 H  2.94  1.85  0.83
 H  2.90  1.68 -0.92
 H  5.12  0.39 -0.80
 H  5.16  3.24  0.42
 H  5.01  2.88 -1.32
 H  6.50  2.44 -0.45
 H  5.01  1.31  2.16
