14
set: 2269.00  0.00  0.00
 C  0.95 -0.01  0.07
 C  2.49 -0.01  0.02
 C  2.98 -0.79 -1.23
 C  4.43 -0.99 -1.27
 N  5.58 -1.17 -1.29
 C  3.03  1.35  0.03
 C  3.45  2.49  0.02
 H  0.60  0.53  0.96
 H  0.57 -1.03  0.11
 H  0.53  0.49 -0.81
 H  2.87 -0.53  0.91
 H  2.67 -0.26 -2.14
 H  2.50 -1.78 -1.24
 H  3.84  3.49  0.01
