17
set: 3211.00  0.00  0.00
 C  1.02  0.10  0.11
 C  2.34  0.01 -0.07
 C  3.13 -1.28 -0.06
 C  4.16 -1.33 -1.20
 C  5.00 -0.05 -1.18
 C  4.08  1.16 -1.23
 O  3.09  1.17 -0.18
 H  0.52  1.07  0.12
 H  0.42 -0.79  0.29
 H  2.44 -2.13 -0.10
 H  3.67 -1.35  0.90
 H  4.80 -2.23 -1.10
 H  3.64 -1.42 -2.17
 H  5.60 -0.01 -0.26
 H  5.69 -0.02 -2.03
 H  4.63  2.10 -1.11
 H  3.55  1.20 -2.21
