16
set: 1703.00  0.00  0.00
 C  0.95 -0.03 -0.01
 C  2.43  0.08 -0.00
 C  3.27  1.19  0.00
 C  4.62  0.73  0.01
 C  4.59 -0.66  0.01
 C  5.69 -1.67  0.01
 N  3.26 -1.03  0.00
 H  0.50  0.97 -0.00
 H  0.56 -0.57  0.87
 H  0.57 -0.56 -0.90
 H  2.93  2.22  0.00
 H  5.51  1.34  0.02
 H  5.29 -2.69  0.03
 H  6.34 -1.57  0.90
 H  6.34 -1.58 -0.88
 H  2.93 -1.99  0.00
