17
set: 2602.00  0.00  0.00
 C  1.14 -0.05  0.26
 N  2.50 -0.02 -0.24
 C  3.27  1.22 -0.21
 C  4.59  0.82 -0.88
 C  4.74 -0.66 -0.50
 C  3.32 -1.14 -0.25
 N  3.03 -2.39 -0.07
 H  0.63 -0.95 -0.12
 H  0.59  0.83 -0.10
 H  1.10 -0.06  1.37
 H  3.43  1.56  0.84
 H  2.73  2.02 -0.74
 H  4.48  0.92 -1.97
 H  5.43  1.45 -0.56
 H  5.24 -1.28 -1.25
 H  5.30 -0.78  0.44
 H  2.03 -2.51  0.14
