13
set: 4549.00  0.00  0.00
 C  2.09 -0.14 -0.12
 C  0.74 -0.84  0.10
 N -0.39 -1.31 -0.66
 C -1.44 -0.46 -0.23
 N -1.41  0.70  0.37
 O -0.11  1.34  0.64
 C  0.79  0.62 -0.19
 H  2.64 -0.15 -1.06
 H  2.71 -0.17  0.77
 H  0.63 -1.00  1.18
 H -0.63 -2.30 -0.63
 H -2.46 -0.82 -0.40
 H  0.56  0.83 -1.24
