18
set: 771.00  0.00  0.00
 C  0.97 -0.13  0.00
 C  2.49 -0.06  0.01
 C  3.02  1.38 -0.00
 C  4.54  1.45  0.00
 O  4.94  2.82  0.00
 C  6.36  2.95  0.00
 H  0.61 -1.17  0.02
 H  0.55  0.35 -0.89
 H  0.54  0.37  0.88
 H  2.89 -0.60 -0.86
 H  2.88 -0.58  0.90
 H  2.64  1.93  0.88
 H  2.64  1.91 -0.89
 H  4.95  0.93 -0.89
 H  4.95  0.93  0.89
 H  6.58  4.02  0.01
 H  6.81  2.49 -0.90
 H  6.81  2.47  0.89
