19
set: 3007.00  0.00  0.00
 N  1.94  0.05 -1.61
 C  3.12  0.12 -0.73
 C  2.91  1.21  0.35
 N  1.67  1.03  1.13
 C  4.12  1.30  1.26
 C  5.29  2.17  0.89
 C  4.38  2.56  2.03
 H  1.97 -0.79 -2.18
 H  1.94  0.84 -2.27
 H  4.07  0.32 -1.27
 H  3.22 -0.85 -0.23
 H  2.82  2.18 -0.18
 H  1.82  0.27  1.80
 H  0.95  0.69  0.48
 H  4.36  0.36  1.76
 H  5.22  2.75 -0.04
 H  6.29  1.82  1.12
 H  4.77  2.47  3.05
 H  3.69  3.39  1.88
