16
set: 7050.00  0.00  0.00
 C  1.28 -0.30  0.98
 C  2.79 -0.37  0.75
 N  3.28  0.93  0.27
 S  4.94  1.07 -0.08
 C  5.57  1.79  1.44
 O  5.55 -0.26 -0.21
 O  5.04  2.07 -1.14
 H  0.91 -1.25  1.37
 H  0.75 -0.09  0.04
 H  1.03  0.50  1.70
 H  3.04 -1.18  0.05
 H  3.30 -0.59  1.70
 H  2.80  1.26 -0.57
 H  5.10  2.77  1.57
 H  6.65  1.87  1.32
 H  5.33  1.12  2.27
