17
set: 2444.00  0.00  0.00
 C  2.46 -0.81  1.00
 C  2.52  0.25 -0.09
 N  2.74  1.59  0.44
 C  4.09  1.87  1.00
 C  4.17  3.40  0.88
 C  3.19  3.62 -0.24
 N  2.42  2.60 -0.46
 H  2.24 -1.79  0.57
 H  1.68 -0.57  1.73
 H  3.42 -0.89  1.54
 H  1.56  0.29 -0.64
 H  3.31 -0.01 -0.83
 H  4.86  1.38  0.37
 H  4.18  1.50  2.03
 H  5.18  3.77  0.67
 H  3.82  3.90  1.80
 H  3.03  4.55 -0.79
