18
set: 1801.00  0.00  0.00
 C  0.96  0.02 -0.02
 C  2.48  0.05  0.04
 C  3.15 -1.04  0.96
 N  3.98 -0.24  1.91
 C  4.57  0.78  0.93
 C  3.11  1.27  0.75
 C  2.99  0.87  2.24
 H  0.60 -0.93 -0.45
 H  0.56  0.84 -0.63
 H  0.51  0.11  0.99
 H  2.88 -0.02 -0.99
 H  3.79 -1.74  0.40
 H  2.40 -1.62  1.52
 H  5.10  0.34  0.07
 H  5.22  1.48  1.47
 H  2.86  2.27  0.36
 H  3.45  1.59  2.93
 H  2.02  0.53  2.64
