21
set: 2396.00  0.00  0.00
 C  1.02 -0.04  0.20
 C  2.51 -0.06 -0.14
 C  2.81 -1.00 -1.31
 N  2.25 -0.52 -2.58
 C  3.03  1.37 -0.37
 C  4.53  1.50 -0.63
 N  5.32  0.91  0.47
 H  0.82  0.55  1.11
 H  0.63 -1.06  0.38
 H  0.42  0.41 -0.61
 H  3.06 -0.48  0.73
 H  2.47 -2.02 -1.03
 H  3.90 -1.07 -1.44
 H  1.23 -0.61 -2.57
 H  2.57 -1.11 -3.35
 H  2.77  1.99  0.51
 H  2.50  1.81 -1.23
 H  4.76  2.56 -0.82
 H  4.79  0.96 -1.56
 H  5.18  1.45  1.32
 H  6.32  0.98  0.25
