13
set: 6685.00  0.00  0.00
 O  2.61 -0.83 -1.03
 C  2.33 -0.09  0.17
 C  2.90  1.30  0.11
 N  2.14  2.35  0.11
 N  2.97  3.53 -0.02
 C  4.20  3.14 -0.09
 C  4.35  1.66 -0.02
 H  2.09 -0.41 -1.75
 H  2.81 -0.66  0.98
 H  1.26 -0.02  0.38
 H  5.01  3.87 -0.20
 H  4.82  1.22 -0.91
 H  4.95  1.33  0.84
