13
set: 998.00  0.00  0.00
 C  1.04  0.03 -0.09
 C  2.54  0.07  0.07
 C  3.21 -1.22  0.24
 C  4.52 -1.50  0.41
 N  3.04  1.27  0.04
 O  4.44  1.30  0.19
 H  0.64  1.04 -0.21
 H  0.56 -0.44  0.78
 H  0.76 -0.57 -0.97
 H  2.52 -2.07  0.23
 H  5.28 -0.73  0.44
 H  4.83 -2.54  0.52
 H  4.61  2.26  0.14
