14
set: 5216.00  0.00  0.00
 C  0.99  0.06 -0.04
 C  2.28  0.01  0.30
 C  3.31  0.78 -0.46
 O  3.05  1.42 -1.48
 C  4.71  0.77  0.07
 C  4.99  1.13  1.50
 N  5.09 -0.26  1.06
 H  0.23 -0.50  0.51
 H  0.67  0.67 -0.89
 H  2.64 -0.60  1.14
 H  5.45  1.11 -0.67
 H  4.15  1.34  2.17
 H  5.89  1.71  1.70
 H  6.07 -0.52  0.91
