17
set: 1044.00  0.00  0.00
 C  3.33 -1.09 -1.19
 C  2.78 -0.25 -0.04
 O  3.13 -0.81  1.23
 C  3.18  1.24 -0.12
 C  4.69  1.51 -0.06
 N  5.27  1.01  1.21
 H  3.01 -0.70 -2.17
 H  2.97 -2.13 -1.09
 H  4.43 -1.13 -1.18
 H  1.68 -0.29 -0.09
 H  4.04 -0.47  1.42
 H  2.69  1.77  0.70
 H  2.79  1.67 -1.06
 H  4.87  2.59 -0.23
 H  5.20  0.98 -0.88
 H  4.97  1.61  1.98
 H  6.29  1.05  1.18
