16
set: 5288.00  0.00  0.00
 C  0.94  0.13  0.53
 C  2.37 -0.32  0.27
 C  3.32  0.85 -0.03
 O  2.97  2.02 -0.04
 N  4.63  0.46 -0.27
 C  5.66  1.36 -0.56
 C  6.93  1.02 -0.80
 H  0.30 -0.74  0.73
 H  0.53  0.67 -0.33
 H  0.90  0.81  1.39
 H  2.41 -1.01 -0.59
 H  2.77 -0.88  1.13
 H  4.85 -0.53 -0.24
 H  5.31  2.40 -0.57
 H  7.27 -0.02 -0.79
 H  7.67  1.79 -1.02
