15
set: 4333.00  0.00  0.00
 O  0.86 -0.05 -0.17
 C  2.09 -0.02 -0.06
 C  2.83  1.28  0.25
 C  4.25  1.29 -0.32
 C  5.05  0.06  0.12
 C  4.26 -1.21 -0.05
 C  2.91 -1.24 -0.16
 H  2.22  2.12 -0.11
 H  2.87  1.36  1.35
 H  4.78  2.21 -0.03
 H  4.20  1.30 -1.43
 H  5.33  0.15  1.19
 H  6.00 -0.02 -0.43
 H  4.82 -2.15 -0.08
 H  2.37 -2.17 -0.31
