17
set: 4338.00  0.00  0.00
 O  1.02  0.07 -0.17
 C  2.44 -0.05  0.00
 C  2.95  1.14  0.83
 C  4.33  0.68  1.32
 C  4.22 -0.85  1.42
 C  5.15 -1.66  1.93
 C  2.89 -1.27  0.83
 H  0.74 -0.64 -0.78
 H  2.94 -0.05 -0.98
 H  2.26  1.29  1.67
 H  2.98  2.08  0.25
 H  5.11  0.94  0.60
 H  4.62  1.13  2.28
 H  5.02 -2.75  1.94
 H  6.08 -1.27  2.36
 H  2.96 -2.20  0.24
 H  2.15 -1.42  1.63
