15
set: 6445.00  0.00  0.00
 N  1.27 -0.06  0.67
 N  2.60  0.15  0.35
 C  2.93  1.34 -0.05
 C  1.93  2.47 -0.12
 O  1.32  2.77  1.14
 C  4.33  1.61 -0.40
 C  5.25  0.68 -0.72
 H  0.59  0.37  0.03
 H  1.10 -1.06  0.74
 H  1.15  2.24 -0.89
 H  2.42  3.40 -0.45
 H  1.09  1.91  1.55
 H  4.62  2.67 -0.40
 H  4.99 -0.37 -0.75
 H  6.28  0.97 -0.95
