16
set: 5519.00  0.00  0.00
 C  1.29 -0.69  0.49
 C  2.78 -0.62  0.22
 O  3.18  0.76  0.23
 C  4.57  0.94 -0.03
 C  5.43  0.54  1.14
 N  6.32 -0.36  0.98
 O  7.04 -0.60  2.18
 H  0.95 -1.74  0.47
 H  0.73 -0.13 -0.28
 H  1.05 -0.27  1.47
 H  3.03 -1.07 -0.76
 H  3.34 -1.19  0.99
 H  4.69  2.01 -0.22
 H  4.89  0.38 -0.93
 H  5.26  1.02  2.11
 H  7.67 -1.29  1.91
