17
set: 3669.00  0.00  0.00
 C  1.88 -0.92 -0.90
 C  2.99 -0.45  0.05
 C  3.05  1.04  0.16
 C  4.12  1.81 -0.10
 C  4.08  3.29  0.03
 C  5.37  4.03 -0.30
 O  3.07  3.89  0.40
 H  1.84 -2.02 -0.92
 H  2.06 -0.57 -1.93
 H  0.90 -0.55 -0.59
 H  3.96 -0.85 -0.26
 H  2.79 -0.86  1.06
 H  2.14  1.56  0.47
 H  5.06  1.35 -0.43
 H  5.66  3.81 -1.34
 H  6.19  3.67  0.34
 H  5.23  5.10 -0.17
