14
set: 916.00  0.00  0.00
 O  2.84 -1.01 -0.28
 C  2.08  0.14  0.16
 C  3.05  1.28  0.29
 O  4.07  1.05  1.24
 C  3.38  2.13 -0.92
 C  2.55  2.69  0.22
 H  2.32 -1.81 -0.10
 H  1.62 -0.06  1.14
 H  1.29  0.39 -0.57
 H  4.49  0.21  0.96
 H  2.89  1.91 -1.87
 H  4.41  2.48 -1.00
 H  3.04  3.40  0.89
 H  1.48  2.86  0.06
