18
set: 4716.00  0.00  0.00
 C  0.95  0.00  0.07
 C  2.48 -0.00 -0.08
 C  3.03 -1.33 -0.61
 N  2.64 -1.50 -2.01
 C  3.22 -0.41 -2.81
 C  2.67  0.91 -2.29
 O  2.95  1.09 -0.90
 H  0.61  1.01  0.35
 H  0.66 -0.70  0.87
 H  0.45 -0.31 -0.85
 H  2.93  0.19  0.91
 H  2.62 -2.17 -0.02
 H  4.13 -1.32 -0.47
 H  2.97 -2.40 -2.36
 H  4.33 -0.38 -2.75
 H  2.93 -0.53 -3.87
 H  3.14  1.76 -2.80
 H  1.58  0.95 -2.47
