17
set: 2755.00  0.00  0.00
 C  0.50  1.53  1.40
 N  1.85  1.12  1.08
 C  2.61  2.00  0.54
 N  3.89  1.71  0.11
 C  4.88  2.74 -0.03
 C  5.85  2.64 -1.18
 C  4.77  3.69 -1.20
 H -0.22  0.91  0.84
 H  0.28  2.59  1.18
 H  0.30  1.35  2.47
 H  2.31  3.05  0.34
 H  4.22  0.79  0.41
 H  5.27  3.17  0.90
 H  5.73  1.79 -1.84
 H  6.88  2.95 -1.00
 H  5.05  4.73 -1.04
 H  3.94  3.53 -1.89
