15
set: 2787.00  0.00  0.00
 C  4.41 -2.05 -0.60
 N  4.01 -0.85 -0.78
 N  4.99  0.09 -0.38
 C  4.57  1.30 -0.57
 C  5.40  2.46 -0.23
 C  5.31  3.70 -1.11
 C  4.72  3.73  0.26
 H  3.72 -2.86 -0.88
 H  5.39 -2.29 -0.18
 H  3.57  1.48 -1.00
 H  6.38  2.21  0.19
 H  4.64  3.66 -1.97
 H  6.25  4.23 -1.29
 H  5.24  4.28  1.04
 H  3.63  3.71  0.35
