17
set: 4264.00  0.00  0.00
 O  1.05 -0.20 -0.12
 C  2.44  0.02 -0.00
 C  3.36 -0.56 -1.10
 C  4.44 -0.35  0.00
 C  3.34 -0.74  1.03
 C  4.48  1.19  0.13
 C  2.94  1.47  0.13
 H  0.60  0.34  0.56
 H  3.45 -0.01 -2.04
 H  3.15 -1.62 -1.28
 H  5.40 -0.88 -0.03
 H  3.12 -1.81  1.04
 H  3.42 -0.34  2.05
 H  4.97  1.51  1.06
 H  5.00  1.66 -0.72
 H  2.62  2.09 -0.73
 H  2.60  1.95  1.06
