16
set: 289.00  0.00  0.00
 C  0.97  0.07 -0.11
 C  2.45 -0.16  0.01
 C  2.89 -1.58 -0.23
 C  3.29  0.86  0.32
 C  4.73  0.81  0.47
 C  5.49  1.88  0.78
 H  0.70  1.12  0.08
 H  0.41 -0.56  0.61
 H  0.61 -0.20 -1.11
 H  2.39 -2.26  0.47
 H  3.97 -1.73 -0.14
 H  2.59 -1.91 -1.24
 H  2.84  1.85  0.47
 H  5.23 -0.15  0.32
 H  5.05  2.87  0.93
 H  6.57  1.80  0.88
