19
set: 449.00  0.00  0.00
 C  3.49 -1.04 -0.22
 C  2.97 -0.03  0.80
 C  3.23  1.45  0.43
 C  2.51  2.39  1.41
 C  4.73  1.79  0.32
 N  5.45  1.54  1.58
 H  3.19 -2.06  0.05
 H  4.59 -1.03 -0.28
 H  3.10 -0.84 -1.23
 H  3.42 -0.23  1.78
 H  1.88 -0.16  0.92
 H  2.80  1.62 -0.58
 H  2.86  2.22  2.44
 H  1.43  2.21  1.40
 H  2.69  3.44  1.15
 H  4.81  2.83 -0.05
 H  5.19  1.15 -0.45
 H  5.22  2.27  2.26
 H  6.46  1.62  1.42
