21
set: 3877.00  0.00  0.00
 C  2.81 -1.04  1.25
 C  3.47 -0.85 -0.12
 C  2.51 -1.13 -1.27
 O  3.93  0.50 -0.29
 C  5.21  0.79  0.29
 C  6.34  0.36 -0.65
 C  5.24  2.29  0.57
 H  3.51 -0.80  2.06
 H  2.50 -2.09  1.38
 H  1.93 -0.39  1.33
 H  4.33 -1.54 -0.21
 H  1.67 -0.42 -1.24
 H  2.10 -2.15 -1.20
 H  3.01 -1.02 -2.24
 H  5.31  0.25  1.25
 H  6.28  0.91 -1.60
 H  6.29 -0.72 -0.87
 H  7.32  0.56 -0.19
 H  5.09  2.85 -0.37
 H  6.21  2.59  1.00
 H  4.44  2.57  1.27
