17
set: 2741.00  0.00  0.00
 C  1.12 -0.27 -0.09
 N  2.53  0.09 -0.11
 C  2.87  1.33 -0.02
 C  1.97  2.53  0.11
 N  4.24  1.58 -0.05
 C  4.90  2.80  0.03
 C  6.23  2.96  0.00
 H  1.04 -1.37 -0.13
 H  0.57  0.12 -0.96
 H  0.59  0.06  0.82
 H  0.92  2.22  0.12
 H  2.11  3.22 -0.74
 H  2.17  3.09  1.03
 H  4.80  0.73 -0.14
 H  4.24  3.66  0.12
 H  6.92  2.12 -0.09
 H  6.66  3.96  0.07
