16
set: 1667.00  0.00  0.00
 C  1.52  0.11  1.03
 C  2.33 -0.05 -0.02
 C  2.87 -1.35 -0.57
 C  4.19 -0.94 -1.21
 C  5.09 -0.07 -0.40
 N  4.22  0.54 -1.43
 C  2.96  1.06 -0.85
 H  1.20  1.10  1.36
 H  1.13 -0.75  1.58
 H  2.20 -1.75 -1.35
 H  2.98 -2.12  0.20
 H  4.60 -1.55 -2.02
 H  4.83  0.07  0.65
 H  6.16 -0.03 -0.63
 H  3.14  1.98 -0.27
 H  2.30  1.33 -1.70
