20
set: 2041.00  0.00  0.00
 C  1.25 -0.40 -0.64
 C  2.76 -0.16 -0.61
 C  3.20  0.78  0.52
 C  4.69  1.01  0.55
 C  5.44  1.30  1.80
 N  5.52 -0.02  1.18
 C  6.78 -0.32  0.51
 H  0.96 -1.07 -1.46
 H  0.69  0.54 -0.77
 H  0.90 -0.86  0.30
 H  3.08  0.26 -1.58
 H  3.29 -1.12 -0.50
 H  2.89  0.36  1.49
 H  2.68  1.75  0.41
 H  5.11  1.47 -0.36
 H  4.92  1.34  2.76
 H  6.32  1.96  1.73
 H  6.61 -1.08 -0.27
 H  7.50 -0.73  1.24
 H  7.25  0.56  0.03
