17
set: 1269.00  0.00  0.00
 C  0.92 -0.06 -0.20
 C  2.44  0.01  0.01
 C  3.17 -1.22 -0.48
 C  4.11 -0.94 -1.39
 C  4.20  0.54 -1.68
 C  3.12  1.14 -0.78
 C  2.82  2.44 -0.69
 H  0.43  0.86  0.15
 H  0.49 -0.91  0.36
 H  0.68 -0.19 -1.26
 H  2.63  0.15  1.09
 H  2.93 -2.22 -0.11
 H  4.75 -1.67 -1.88
 H  5.20  0.95 -1.44
 H  4.02  0.77 -2.74
 H  3.34  3.19 -1.28
 H  2.04  2.80 -0.02
