14
set: 7081.00  0.00  0.00
 C  2.85 -1.26  0.41
 N  2.30 -0.01 -0.10
 C  3.05  1.15 -0.01
 C  2.63  2.46 -0.22
 C  3.69  3.40 -0.10
 C  4.91  2.83  0.19
 S  4.77  1.10  0.35
 H  2.11 -2.06  0.27
 H  3.14 -1.22  1.47
 H  3.74 -1.53 -0.18
 H  1.32  0.13  0.15
 H  1.60  2.72 -0.46
 H  3.56  4.47 -0.24
 H  5.88  3.30  0.32
