18
set: 4762.00  0.00  0.00
 C  0.98  0.15 -0.15
 C  2.49  0.09 -0.07
 C  3.32 -0.59 -1.16
 O  2.71 -1.06 -2.34
 C  3.43  0.90 -0.98
 C  2.85  1.82 -2.03
 N  4.70  1.39 -0.47
 H  0.60  1.08  0.31
 H  0.52 -0.70  0.38
 H  0.63  0.12 -1.19
 H  2.89 -0.07  0.94
 H  4.19 -1.19 -0.84
 H  2.25 -1.89 -2.12
 H  1.97  1.39 -2.51
 H  3.61  2.01 -2.80
 H  2.57  2.79 -1.58
 H  5.13  0.70  0.15
 H  4.54  2.22  0.11
