13
set: 2555.00  0.00  0.00
 C  0.85  0.13 -0.05
 C  2.33  0.04 -0.09
 N  3.07  0.98  0.39
 N  4.44  0.68  0.24
 C  5.17  1.64  0.72
 C  6.58  1.57  0.69
 C  7.80  1.60  0.71
 H  0.42 -0.72  0.52
 H  0.43  0.07 -1.06
 H  0.53  1.07  0.42
 H  2.80 -0.86 -0.53
 H  4.70  2.54  1.16
 H  8.87  1.59  0.71
