14
set: 2096.00  0.00  0.00
 C  4.31 -0.66  2.67
 C  4.20 -0.42  1.48
 C  4.10 -0.09  0.07
 C  4.37  1.39 -0.24
 C  5.79  1.82  0.16
 C  6.05  3.22 -0.11
 N  6.25  4.35 -0.35
 H  4.39 -0.89  3.71
 H  3.09 -0.35 -0.29
 H  4.80 -0.73 -0.51
 H  3.64  2.02  0.29
 H  4.23  1.57 -1.32
 H  6.54  1.21 -0.37
 H  5.94  1.64  1.24
