18
set: 2049.00  0.00  0.00
 C  1.04  0.38  0.79
 C  2.34  0.02  0.13
 C  2.54 -1.20 -0.41
 C  3.44  1.05  0.09
 C  3.03  2.48 -0.41
 N  2.98  2.94  1.00
 C  3.77  1.77  1.43
 H  0.58  1.26  0.32
 H  1.19  0.65  1.85
 H  0.33 -0.45  0.75
 H  1.76 -1.96 -0.40
 H  3.48 -1.46 -0.90
 H  4.31  0.63 -0.43
 H  2.08  2.57 -0.96
 H  3.84  2.93 -1.02
 H  3.41  3.85  1.17
 H  4.86  1.95  1.53
 H  3.41  1.29  2.36
