17
set: 3624.00  0.00  0.00
 C  3.13 -1.72 -1.22
 C  2.86 -0.86 -0.01
 C  2.24 -1.35  1.07
 C  3.30  0.58 -0.08
 C  4.82  0.75 -0.15
 C  5.30  2.18 -0.18
 O  4.58  3.16 -0.20
 H  2.68 -1.28 -2.13
 H  2.73 -2.73 -1.10
 H  4.21 -1.81 -1.42
 H  1.91 -2.39  1.12
 H  2.03 -0.72  1.94
 H  2.92  1.13  0.79
 H  2.86  1.07 -0.97
 H  5.26  0.25 -1.03
 H  5.31  0.26  0.71
 H  6.41  2.29 -0.19
