18
set: 5909.00  0.00  0.00
 C  1.59 -0.16  0.19
 O  3.00  0.03  0.19
 C  3.35  1.41  0.06
 C  4.86  1.54  0.15
 N  5.50  1.09  1.37
 C  5.66  1.36 -1.12
 C  5.49  2.74 -0.52
 H  1.41 -1.23  0.30
 H  1.14  0.18 -0.77
 H  1.11  0.39  1.02
 H  2.87  2.00  0.87
 H  2.98  1.81 -0.90
 H  5.23  0.11  1.54
 H  5.16  1.63  2.17
 H  5.12  1.12 -2.03
 H  6.63  0.88 -1.01
 H  6.35  3.17 -0.01
 H  4.84  3.45 -1.03
