15
set: 4424.00  0.00  0.00
 O  2.25 -0.32 -1.49
 C  2.31  0.13 -0.13
 C  3.38  1.22 -0.04
 C  3.57  1.76  1.40
 O  3.04  3.12  1.43
 C  2.80  3.46  0.12
 C  3.00  2.49 -0.78
 H  1.54 -0.98 -1.56
 H  2.58 -0.71  0.55
 H  1.34  0.54  0.20
 H  4.32  0.79 -0.42
 H  4.63  1.81  1.69
 H  3.02  1.18  2.16
 H  2.47  4.49 -0.02
 H  2.84  2.56 -1.85
