17
set: 5260.00  0.00  0.00
 C  3.43 -1.92  0.05
 C  3.24 -0.60  0.80
 C  3.86  0.63  0.11
 O  3.55  1.84  0.82
 C  5.38  0.52  0.01
 N  6.04  0.93  1.15
 N  6.03  0.02 -0.98
 H  2.94 -2.74  0.59
 H  4.50 -2.17 -0.06
 H  2.99 -1.87 -0.96
 H  3.67 -0.67  1.81
 H  2.16 -0.40  0.92
 H  3.47  0.70 -0.93
 H  2.62  1.79  1.10
 H  5.57  1.65  1.69
 H  7.05  1.03  1.05
 H  5.38 -0.26 -1.72
