18
set: 2697.00  0.00  0.00
 C  0.99 -0.01  0.18
 N  2.45 -0.00  0.13
 C  2.99  1.32 -0.17
 C  4.53  1.35 -0.07
 C  5.21  0.42 -1.10
 C  5.01  2.72 -0.21
 C  5.40  3.86 -0.34
 H  0.63 -1.04  0.34
 H  0.49  0.39 -0.73
 H  0.65  0.59  1.03
 H  2.75 -0.66 -0.60
 H  2.58  2.02  0.57
 H  2.69  1.71 -1.17
 H  4.79  0.99  0.94
 H  4.92  0.70 -2.13
 H  4.93 -0.63 -0.93
 H  6.30  0.49 -1.02
 H  5.75  4.87 -0.45
