15
set: 6995.00  0.00  0.00
 C  2.42 -0.63 -1.40
 C  2.36  0.02 -0.01
 C  2.91  1.42  0.03
 C  2.14  2.55  0.16
 S  3.09  4.00  0.13
 C  4.55  3.09 -0.06
 C  4.30  1.75 -0.10
 H  2.03 -1.66 -1.38
 H  3.46 -0.67 -1.77
 H  1.83 -0.05 -2.13
 H  2.92 -0.61  0.71
 H  1.32  0.03  0.35
 H  1.06  2.62  0.28
 H  5.50  3.61 -0.13
 H  5.08  1.00 -0.21
