16
set: 5211.00  0.00  0.00
 C  0.43 -0.59 -0.02
 C  1.89 -0.34 -0.34
 C  2.70 -1.62 -0.55
 N  4.12 -1.32 -0.74
 O  2.00  0.40 -1.61
 C  1.89  1.75 -1.53
 O  1.69  2.41 -0.53
 H -0.11  0.36  0.10
 H  0.34 -1.16  0.92
 H -0.06 -1.17 -0.82
 H  2.37  0.27  0.44
 H  2.23 -2.20 -1.38
 H  2.59 -2.22  0.37
 H  4.25 -0.84 -1.64
 H  4.65 -2.19 -0.80
 H  2.01  2.17 -2.55
