18
set: 2048.00  0.00  0.00
 C  1.03  1.78  1.46
 C  2.51  1.63  1.26
 C  3.10  1.33  0.09
 C  4.58  1.17 -0.12
 C  5.50  2.23  0.55
 N  5.77  1.28  1.66
 C  5.30  0.15  0.83
 H  0.78  2.78  1.85
 H  0.66  1.06  2.20
 H  0.48  1.63  0.52
 H  3.14  1.77  2.14
 H  2.46  1.19 -0.79
 H  4.79  1.01 -1.19
 H  5.02  3.17  0.86
 H  6.38  2.47 -0.07
 H  6.75  1.23  1.96
 H  6.10 -0.40  0.30
 H  4.65 -0.56  1.36
