14
set: 4724.00  0.00  0.00
 C  1.02 -0.01  0.19
 C  2.35 -0.01 -0.00
 C  3.21  1.24 -0.09
 N  4.47  0.73 -0.60
 C  4.58 -0.64 -0.68
 O  5.56 -1.27 -1.05
 C  3.23 -1.22 -0.21
 H  0.45 -0.94  0.24
 H  0.47  0.92  0.31
 H  3.34  1.70  0.91
 H  2.77  1.99 -0.76
 H  5.28  1.31 -0.80
 H  2.84 -1.93 -0.95
 H  3.41 -1.78  0.72
