16
set: 5450.00  0.00  0.00
 C  1.52 -0.47  0.83
 C  3.01 -0.13  0.81
 N  3.37  0.88 -0.18
 O  2.99  2.21  0.18
 C  1.96  2.68 -0.71
 C  4.55  0.81 -0.90
 O  5.18 -0.23 -1.09
 H  1.34 -1.27  1.56
 H  1.19 -0.83 -0.16
 H  0.91  0.39  1.11
 H  3.62 -1.00  0.55
 H  3.34  0.23  1.81
 H  1.71  3.69 -0.33
 H  1.07  2.04 -0.67
 H  2.33  2.76 -1.74
 H  4.83  1.80 -1.31
