13
set: 3622.00  0.00  0.00
 C  1.00  0.06 -0.03
 C  2.51 -0.05  0.05
 C  3.16 -1.22  0.18
 C  3.24  1.17 -0.01
 C  3.79  2.26 -0.07
 C  4.51  3.50 -0.14
 O  3.99  4.60 -0.24
 H  0.62  0.68  0.79
 H  0.54 -0.93  0.03
 H  0.70  0.54 -0.97
 H  2.61 -2.16  0.23
 H  4.25 -1.26  0.24
 H  5.62  3.39 -0.09
