14
set: 2573.00  0.00  0.00
 C  0.83 -0.55  0.11
 C  2.32 -0.20  0.14
 N  2.55  1.15 -0.37
 N  3.73  1.44 -0.89
 C  4.05  2.69 -1.09
 C  5.28  3.02 -1.70
 N  6.29  3.36 -2.19
 H  0.68 -1.56  0.51
 H  0.43 -0.50 -0.91
 H  0.25  0.14  0.74
 H  2.89 -0.88 -0.51
 H  2.72 -0.30  1.16
 H  1.98  1.91  0.03
 H  3.39  3.53 -0.81
