16
set: 5300.00  0.00  0.00
 C -0.52 -1.64  1.32
 C  0.55 -1.17  0.34
 C  1.65 -2.19  0.11
 O -0.01 -0.92 -0.99
 N -0.87  0.19 -0.97
 C -2.18 -0.01 -1.37
 O -2.92  0.90 -1.72
 H -1.32 -0.90  1.42
 H -0.08 -1.79  2.32
 H -0.95 -2.60  0.99
 H  0.98 -0.22  0.70
 H  1.23 -3.13 -0.29
 H  2.16 -2.42  1.06
 H  2.39 -1.81 -0.60
 H -0.42  1.05 -1.30
 H -2.48 -1.08 -1.27
