15
set: 5424.00  0.00  0.00
 C  1.06 -0.20 -0.27
 C  2.55 -0.48 -0.30
 N  3.12 -1.56 -0.69
 N  3.30  0.62  0.15
 C  4.68  0.84  0.30
 C  5.63 -0.26 -0.07
 O  5.04  1.93  0.73
 H  0.81  0.66 -0.91
 H  0.73  0.03  0.75
 H  0.50 -1.07 -0.63
 H  2.41 -2.24 -0.98
 H  2.77  1.44  0.44
 H  5.42 -1.17  0.51
 H  6.65  0.10  0.11
 H  5.50 -0.55 -1.12
