14
set: 6040.00  0.00  0.00
 C  1.89 -0.22 -0.62
 O  2.40  0.57  0.47
 N  2.93  1.78 -0.01
 C  2.09  2.89 -0.10
 C  0.79  2.91  0.23
 C  4.31  1.82 -0.19
 O  4.93  2.81 -0.53
 H  2.70 -0.54 -1.29
 H  1.12  0.33 -1.18
 H  1.44 -1.10 -0.14
 H  2.63  3.76 -0.49
 H  0.28  2.04  0.64
 H  0.23  3.84  0.12
 H  4.75  0.83  0.03
