15
set: 1990.00  0.00  0.00
 C  3.12 -1.25 -0.57
 C  2.45 -0.06  0.11
 C  3.30  1.23  0.07
 C  2.70  2.42  0.76
 N  2.60  3.46  0.00
 N  3.12  3.10 -1.31
 C  3.50  1.87 -1.27
 H  2.49 -2.15 -0.49
 H  4.09 -1.48 -0.10
 H  3.30 -1.07 -1.64
 H  2.23 -0.30  1.16
 H  1.48  0.15 -0.37
 H  4.29  1.01  0.52
 H  2.37  2.45  1.80
 H  3.93  1.40 -2.15
