17
set: 2227.00  0.00  0.00
 C  2.56 -0.68  1.50
 C  3.25 -0.26  0.20
 C  3.17  1.21 -0.06
 C  4.22  2.03 -0.22
 C  4.16  3.48 -0.49
 N  2.94  4.11 -0.25
 N  5.14  4.18 -0.98
 H  2.61 -1.77  1.64
 H  1.50 -0.40  1.50
 H  3.04 -0.21  2.37
 H  2.77 -0.80 -0.64
 H  4.31 -0.58  0.21
 H  2.16  1.63 -0.12
 H  5.24  1.61 -0.19
 H  2.43  3.79  0.57
 H  3.01  5.13 -0.32
 H  5.93  3.56 -1.19
