15
set: 5851.00  0.00  0.00
 C  3.03  0.25  2.56
 N  2.59  1.18  1.50
 N  3.20  0.86  0.27
 C  4.19  1.70 -0.22
 O  4.69  2.59  0.47
 C  4.57  1.40 -1.63
 C  5.51  2.13 -2.26
 H  2.60  0.61  3.51
 H  4.12  0.19  2.66
 H  2.63 -0.75  2.36
 H  2.95  2.12  1.72
 H  2.59  0.39 -0.39
 H  4.08  0.57 -2.14
 H  5.99  2.95 -1.73
 H  5.80  1.92 -3.29
