15
set: 3604.00  0.00  0.00
 C  0.69  0.10 -0.05
 C  2.16 -0.01 -0.23
 C  3.08  0.82  0.32
 C  4.50  0.67  0.13
 C  5.46  1.48  0.66
 C  6.87  1.24  0.40
 O  7.79  1.92  0.84
 H  0.28 -0.82  0.40
 H  0.19  0.21 -1.02
 H  0.41  0.95  0.58
 H  2.52 -0.84 -0.85
 H  2.74  1.65  0.95
 H  4.83 -0.17 -0.50
 H  5.20  2.33  1.29
 H  7.08  0.35 -0.26
