13
set: 1145.00  0.00  0.00
 O  1.38 -0.02  1.00
 C  2.39  0.07  0.30
 N  2.95  1.24 -0.09
 C  2.64  2.62  0.30
 C  3.92  3.08 -0.45
 C  4.20  1.58 -0.79
 H  2.94 -0.81 -0.11
 H  2.63  2.78  1.39
 H  1.68  2.99 -0.11
 H  3.74  3.71 -1.32
 H  4.68  3.55  0.19
 H  4.19  1.33 -1.86
 H  5.11  1.16 -0.32
