14
set: 5207.00  0.00  0.00
 C  0.64  0.28  0.11
 C  2.09  0.10  0.46
 C  3.09  0.71 -0.20
 N  4.44  0.57  0.09
 O  4.79 -0.27  1.15
 C  5.50  1.15 -0.54
 O  6.66  0.92 -0.18
 H  0.17 -0.68 -0.14
 H  0.51  0.96 -0.74
 H  0.08  0.69  0.96
 H  2.34 -0.56  1.30
 H  2.92  1.38 -1.04
 H  5.78 -0.17  1.11
 H  5.20  1.81 -1.38
