20
set: 2283.00  0.00  0.00
 C  0.93 -0.25  0.08
 C  2.45 -0.34  0.21
 C  3.16  0.98 -0.11
 C  4.70  0.94 -0.04
 N  5.36  2.17 -0.53
 C  5.18  0.66  1.36
 C  5.82 -0.44  1.76
 H  0.45 -1.21  0.32
 H  0.63  0.02 -0.94
 H  0.52  0.51  0.76
 H  2.84 -1.13 -0.46
 H  2.72 -0.66  1.23
 H  2.80  1.78  0.57
 H  2.88  1.30 -1.13
 H  5.05  0.11 -0.69
 H  5.09  2.95  0.07
 H  5.00  2.40 -1.46
 H  4.95  1.45  2.09
 H  6.07 -1.24  1.06
 H  6.13 -0.57  2.80
