14
set: 928.00  0.00  0.00
 O  1.82 -0.67 -1.17
 C  2.73 -0.37 -0.10
 C  2.86  1.11  0.01
 C  4.03  1.78 -0.00
 C  4.16  3.21  0.15
 C  5.34  3.87  0.14
 H  1.58 -1.62 -1.10
 H  3.72 -0.83 -0.28
 H  2.34 -0.77  0.86
 H  1.92  1.67  0.13
 H  4.96  1.21 -0.14
 H  3.23  3.78  0.27
 H  6.29  3.34  0.02
 H  5.39  4.96  0.25
