15
set: 3431.00  0.00  0.00
 C  0.96 -0.04  0.26
 C  2.36  0.00 -0.28
 O  2.48  1.08 -1.18
 C  3.83  1.23 -1.65
 C  4.44 -0.10 -1.97
 C  3.79 -1.23 -1.66
 O  2.63 -1.27 -0.93
 H  0.75  0.87  0.83
 H  0.84 -0.91  0.92
 H  0.24 -0.12 -0.57
 H  3.13  0.11  0.52
 H  4.43  1.80 -0.90
 H  3.76  1.87 -2.55
 H  5.38 -0.14 -2.52
 H  4.13 -2.23 -1.94
