17
set: 3676.00  0.00  0.00
 C  2.55 -1.05  1.50
 C  3.64 -0.32  0.72
 C  3.35  1.18  0.56
 C  3.40  1.95  1.86
 C  2.48  2.83  2.28
 C  4.31  1.87 -0.41
 O  5.27  1.33 -0.94
 H  2.79 -2.12  1.60
 H  1.57 -0.98  1.00
 H  2.43 -0.64  2.51
 H  3.75 -0.76 -0.28
 H  4.61 -0.44  1.21
 H  2.34  1.34  0.12
 H  4.30  1.78  2.47
 H  1.57  3.03  1.70
 H  2.60  3.37  3.22
 H  4.07  2.94 -0.61
