17
set: 5540.00  0.00  0.00
 C  1.14 -0.85  0.30
 C  2.56 -0.33  0.47
 O  3.45 -1.33 -0.03
 C  2.77  1.00 -0.27
 N  4.04  1.66 -0.01
 N  5.15  0.93 -0.28
 C  6.28  1.26  0.25
 H  0.41 -0.16  0.76
 H  1.04 -1.83  0.78
 H  0.89 -0.96 -0.77
 H  2.75 -0.15  1.55
 H  4.29 -0.87 -0.24
 H  1.98  1.72  0.01
 H  2.69  0.82 -1.35
 H  4.08  2.21  0.86
 H  7.16  0.68 -0.02
 H  6.39  2.09  0.96
