14
set: 2776.00  0.00  0.00
 C  1.23  0.20  0.93
 N  2.59  0.47  0.52
 C  3.01  1.74  0.21
 N  2.32  2.81  0.11
 C  4.50  1.86 -0.15
 C  5.36  0.83  0.42
 N  5.99 -0.03  0.88
 H  1.14 -0.87  1.17
 H  0.52  0.43  0.13
 H  0.95  0.78  1.83
 H  3.31 -0.22  0.76
 H  1.33  2.64  0.32
 H  4.84  2.85  0.19
 H  4.60  1.84 -1.24
