15
set: 346.00  0.00  0.00
 C  0.79  1.38 -0.59
 C -0.32  0.96  0.34
 C -1.36 -0.03 -0.22
 N -0.78 -1.39 -0.13
 C  0.69 -1.19 -0.21
 C  0.99  0.21  0.35
 H  0.67  1.17 -1.65
 H  1.32  2.32 -0.37
 H -0.60  1.62  1.17
 H -2.31  0.01  0.33
 H -1.58  0.20 -1.28
 H -0.99 -1.74  0.81
 H  1.21 -1.98  0.35
 H  1.00 -1.26 -1.26
 H  1.69  0.32  1.18
