17
set: 1388.00  0.00  0.00
 C  0.71  2.09 -0.58
 C  2.05  1.46 -0.40
 C  3.19  2.12 -0.09
 C  4.48  1.48  0.08
 C  5.62  2.14  0.39
 C  6.91  1.51  0.56
 C  8.05  2.15  0.86
 H -0.03  1.68  0.13
 H  0.31  1.90 -1.59
 H  0.75  3.18 -0.42
 H  2.10  0.37 -0.53
 H  3.15  3.20  0.04
 H  4.52  0.40 -0.05
 H  5.59  3.23  0.52
 H  6.94  0.42  0.43
 H  8.07  3.24  1.00
 H  9.00  1.62  0.98
