14
set: 6757.00  0.00  0.00
 O  1.62  2.12 -1.09
 C  1.66  1.71  0.05
 C  2.77  2.03  1.02
 N  3.89  2.68  0.37
 C  4.69  3.54  1.24
 C  5.99  3.95  0.56
 O  6.58  4.98  0.80
 H  0.85  1.06  0.47
 H  3.08  1.09  1.52
 H  2.28  2.63  1.82
 H  3.54  3.18 -0.45
 H  5.00  2.95  2.12
 H  4.18  4.44  1.62
 H  6.37  3.19 -0.17
