18
set: 5522.00  0.00  0.00
 C  0.47 -0.29 -0.43
 C  1.95 -0.30 -0.78
 O  2.22  0.80 -1.65
 C  2.84 -0.20  0.46
 N  4.24 -0.07  0.03
 C  5.26 -0.30  1.06
 C  5.02 -1.31 -0.02
 H  0.21 -1.16  0.19
 H -0.13 -0.34 -1.35
 H  0.20  0.63  0.10
 H  2.19 -1.25 -1.30
 H  3.18  0.93 -1.59
 H  2.68 -1.08  1.13
 H  2.58  0.71  1.02
 H  4.91 -0.55  2.06
 H  6.13  0.35  1.01
 H  5.72 -1.40 -0.85
 H  4.51 -2.24  0.27
