14
set: 132.00  0.00  0.00
 N  0.92 -0.04 -0.14
 C  2.38 -0.20 -0.04
 C  3.08  1.17 -0.08
 C  4.56  1.07  0.15
 C  5.51  1.44 -0.72
 H  0.47 -0.95 -0.06
 H  0.68  0.32 -1.07
 H  2.83 -0.85 -0.82
 H  2.60 -0.68  0.93
 H  2.61  1.80  0.69
 H  2.89  1.65 -1.06
 H  4.86  0.66  1.12
 H  5.25  1.86 -1.69
 H  6.57  1.34 -0.48
