16
set: 6478.00  0.00  0.00
 O  1.05  0.35 -0.38
 C  2.41  0.12 -0.08
 C  3.06 -1.05 -0.77
 C  3.47  0.36 -1.14
 N  4.77  0.82 -0.70
 C  5.78  0.95 -1.75
 C  5.15  2.16 -1.16
 H  0.88  1.30 -0.27
 H  2.72  0.31  0.95
 H  2.44 -1.59 -1.49
 H  3.76 -1.65 -0.19
 H  3.10  0.73 -2.10
 H  5.49  0.68 -2.77
 H  6.80  0.65 -1.46
 H  5.70  2.77 -0.43
 H  4.44  2.71 -1.79
