20
set: 5076.00  0.00  0.00
 C -0.95  0.05  0.32
 C  0.53  0.03 -0.05
 C  1.45  0.82  0.89
 C  1.15  2.31  0.96
 N  2.22  3.00  1.70
 O  1.39  0.34  2.25
 C  2.07 -0.89  2.46
 H -1.53 -0.61 -0.34
 H -1.39  1.06  0.23
 H -1.10 -0.28  1.36
 H  0.68  0.44 -1.07
 H  0.88 -1.01 -0.10
 H  2.50  0.71  0.54
 H  0.14  2.44  1.40
 H  1.12  2.70 -0.07
 H  2.24  2.62  2.65
 H  1.98  3.99  1.80
 H  2.05 -1.09  3.54
 H  3.12 -0.83  2.13
 H  1.59 -1.74  1.94
