17
set: 5358.00  0.00  0.00
 C  2.09  0.09  0.79
 C  3.45 -0.13  0.16
 N  4.18  1.13  0.04
 C  5.39  1.14 -0.41
 C  6.22 -0.02 -0.89
 N  6.04  2.37 -0.38
 O  5.17  3.45 -0.09
 H  1.53 -0.85  0.87
 H  1.49  0.80  0.19
 H  2.19  0.52  1.80
 H  3.32 -0.60 -0.84
 H  4.03 -0.86  0.76
 H  5.73 -0.51 -1.75
 H  6.32 -0.77 -0.10
 H  7.22  0.30 -1.19
 H  6.56  2.59 -1.24
 H  4.33  2.93  0.09
