17
set: 5845.00  0.00  0.00
 C  3.46 -1.74 -0.39
 N  4.43 -0.67 -0.57
 N  3.92  0.58 -0.48
 C  4.71  1.56 -0.17
 C  4.21  2.97 -0.17
 O  4.30  3.60  1.11
 C  3.34  3.10  2.04
 H  3.93 -2.70 -0.67
 H  2.61 -1.56 -1.05
 H  3.08 -1.83  0.65
 H  5.32 -0.82 -0.08
 H  5.76  1.39  0.11
 H  3.17  2.98 -0.55
 H  4.83  3.60 -0.83
 H  3.49  3.65  2.98
 H  3.47  2.02  2.23
 H  2.31  3.27  1.68
