13
set: 3793.00  0.00  0.00
 C  0.89 -0.12 -0.04
 C  2.37  0.03  0.04
 C  3.11  1.17  0.05
 C  2.54  2.53 -0.03
 O  3.21  3.56 -0.02
 C  4.60  1.05  0.14
 O  5.19 -0.01  0.21
 H  0.64 -0.74 -0.92
 H  0.33  0.82 -0.11
 H  0.53 -0.69  0.83
 H  2.95 -0.89  0.10
 H  1.43  2.59 -0.10
 H  5.14  2.02  0.14
