17
set: 7035.00  0.00  0.00
 C  0.95 -0.02 -0.04
 C  2.48  0.01 -0.06
 C  3.11 -0.79 -1.21
 S  3.13  1.73 -0.01
 C  2.58  2.49 -1.55
 O  2.45  2.42  1.10
 O  4.60  1.65 -0.06
 H  0.56  0.61  0.77
 H  0.61 -1.05  0.12
 H  0.53  0.32 -1.00
 H  2.87 -0.35  0.90
 H  2.72 -0.47 -2.18
 H  2.85 -1.85 -1.09
 H  4.20 -0.70 -1.20
 H  3.01  1.96 -2.40
 H  2.97  3.52 -1.50
 H  1.48  2.51 -1.58
