16
set: 715.00  0.00  0.00
 C  3.09 -1.20 -0.46
 C  2.45  0.04  0.18
 C  3.37  1.24  0.20
 C  3.53  2.13 -1.04
 C  2.84  2.65  0.19
 O  3.38  3.68  0.99
 H  2.40 -2.05 -0.47
 H  3.99 -1.50  0.10
 H  3.40 -0.99 -1.49
 H  2.14 -0.19  1.21
 H  1.53  0.30 -0.37
 H  4.29  1.11  0.78
 H  2.93  1.90 -1.92
 H  4.53  2.51 -1.26
 H  1.76  2.77  0.14
 H  4.35  3.57  1.01
