15
set: 411.00  0.00  0.00
 C  1.45  0.49 -1.35
 C  2.30 -0.11 -0.50
 C  3.13  0.60  0.53
 C  4.62  0.36  0.33
 C  5.57  0.34  1.47
 N  5.14 -0.93  0.85
 H  0.87 -0.08 -2.08
 H  1.29  1.57 -1.33
 H  2.43 -1.19 -0.55
 H  2.86  0.23  1.53
 H  2.93  1.68  0.51
 H  5.01  0.70 -0.63
 H  5.20  0.50  2.49
 H  6.59  0.70  1.30
 H  5.88 -1.28  0.23
