17
set: 2763.00  0.00  0.00
 C  1.25  0.15 -0.32
 N  2.64  0.08  0.12
 C  3.12 -1.19  0.47
 N  4.30 -1.68  0.52
 C  3.44  1.23 -0.04
 C  4.70  1.33  0.79
 C  3.05  2.27 -0.80
 H  0.79  1.07  0.07
 H  0.71 -0.72  0.08
 H  1.16  0.14 -1.41
 H  2.29 -1.85  0.77
 H  5.01 -1.02  0.18
 H  4.60  0.81  1.76
 H  4.91  2.39  0.99
 H  5.59  0.92  0.28
 H  2.15  2.25 -1.43
 H  3.64  3.18 -0.82
