17
set: 4306.00  0.00  0.00
 O  1.00 -0.54  0.64
 C  2.26 -0.02  0.22
 C  2.74  1.20  1.01
 C  4.18  0.64  0.89
 C  3.57 -0.78  0.63
 C  4.21 -1.71 -0.34
 C  4.47 -3.00 -0.12
 H  0.77 -1.28  0.04
 H  2.26  0.18 -0.87
 H  2.38  1.15  2.04
 H  2.53  2.20  0.60
 H  4.70  1.01 -0.01
 H  4.86  0.74  1.75
 H  3.38 -1.28  1.60
 H  4.47 -1.27 -1.31
 H  4.23 -3.48  0.84
 H  4.93 -3.63 -0.88
