13
set: 6442.00  0.00  0.00
 N  0.97  0.21 -0.31
 N  2.31  0.18 -0.47
 C  3.03  0.88  0.36
 C  4.44  0.97  0.22
 C  5.65  1.10  0.18
 C  7.09  1.25  0.05
 O  7.48  2.44 -0.66
 H  0.52 -0.60 -0.73
 H  0.61  0.47  0.62
 H  2.57  1.44  1.19
 H  7.51  0.35 -0.44
 H  7.56  1.34  1.04
 H  6.93  2.49 -1.46
