14
set: 1943.00  0.00  0.00
 C  2.97 -1.20  0.38
 C  2.40  0.00  0.17
 C  3.05  1.29  0.09
 C  2.49  2.55 -0.12
 C  3.54  3.51 -0.12
 C  4.72  2.82  0.08
 N  4.42  1.49  0.21
 H  2.37 -2.10  0.42
 H  4.05 -1.33  0.51
 H  1.31  0.05  0.05
 H  1.43  2.75 -0.25
 H  3.44  4.58 -0.26
 H  5.75  3.17  0.15
 H  5.09  0.75  0.37
