13
set: 982.00  0.00  0.00
 C  0.98  0.10 -0.19
 C  2.47  0.13  0.06
 N  3.39 -0.76 -0.64
 C  3.39  0.68 -1.00
 C  4.60  1.44 -0.58
 O  4.95  2.49 -1.07
 H  0.51  1.03  0.15
 H  0.52 -0.74  0.36
 H  0.76 -0.03 -1.26
 H  2.76  0.29  1.10
 H  2.88 -1.27 -1.38
 H  2.92  1.02 -1.93
 H  5.17  0.95  0.25
