18
set: 860.00  0.00  0.00
 C  0.98 -0.06 -0.02
 O  2.38  0.13 -0.01
 C  2.87  1.50 -0.02
 C  2.43  2.23 -1.29
 C  2.41  2.25  1.24
 C  4.39  1.33 -0.01
 H  0.81 -1.14 -0.00
 H  0.50  0.35 -0.92
 H  0.48  0.38  0.87
 H  2.71  1.65 -2.18
 H  2.91  3.21 -1.35
 H  1.34  2.39 -1.32
 H  2.69  1.70  2.14
 H  1.32  2.42  1.24
 H  2.89  3.24  1.28
 H  4.71  0.78  0.89
 H  4.89  2.31 -0.01
 H  4.72  0.76 -0.89
