19
set: 2595.00  0.00  0.00
 C  1.04  0.01  0.01
 N  2.49  0.02  0.10
 C  3.12  1.05  0.95
 C  4.17  0.00  1.39
 C  3.15 -1.05  0.89
 C  3.64 -2.26  0.10
 N  4.29 -3.23  1.00
 H  0.71 -0.88 -0.55
 H  0.70  0.90 -0.54
 H  0.55 -0.00  1.01
 H  2.48  1.36  1.80
 H  3.47  1.95  0.41
 H  5.08  0.03  0.76
 H  4.45 -0.02  2.45
 H  2.52 -1.40  1.73
 H  4.27 -1.89 -0.73
 H  2.76 -2.75 -0.36
 H  5.17 -2.84  1.34
 H  4.53 -4.07  0.48
