21
set: 1208.00  0.00  0.00
 C  2.19 -0.55 -1.46
 C  2.41  0.00 -0.05
 C  3.27  1.26 -0.02
 C  2.70  2.58 -0.62
 C  3.30  3.36  0.59
 C  4.62  4.06  0.28
 C  3.46  2.00  1.33
 H  1.56 -1.45 -1.45
 H  3.15 -0.83 -1.93
 H  1.71  0.19 -2.11
 H  2.87 -0.77  0.58
 H  1.43  0.23  0.41
 H  4.25  1.03 -0.48
 H  1.60  2.58 -0.60
 H  3.03  2.88 -1.62
 H  2.61  4.07  1.07
 H  5.34  3.38 -0.20
 H  5.09  4.44  1.21
 H  4.47  4.92 -0.39
 H  4.41  1.83  1.87
 H  2.62  1.80  2.02
