13
set: 1006.00  0.00  0.00
 C  1.01 -0.63 -0.66
 C  2.19 -0.42 -0.07
 C  3.08  0.75 -0.37
 N  4.41  0.33 -0.81
 C  5.56  0.68 -0.17
 O  5.63  1.40  0.82
 H  0.39 -1.49 -0.40
 H  0.62  0.05 -1.43
 H  2.56 -1.11  0.69
 H  3.26  1.36  0.53
 H  2.62  1.41 -1.13
 H  4.48 -0.30 -1.61
 H  6.46  0.23 -0.65
