19
set: 2524.00  0.00  0.00
 C  2.84 -1.32  0.93
 C  2.47 -0.21 -0.06
 N  1.02  0.03 -0.21
 C  3.12  1.13  0.32
 N  4.59  1.04  0.33
 C  5.23  1.37 -0.95
 C  5.29  2.32  0.19
 H  3.93 -1.43  1.01
 H  2.42 -2.28  0.61
 H  2.45 -1.09  1.93
 H  2.85 -0.48 -1.06
 H  0.61  0.21  0.71
 H  0.58 -0.83 -0.54
 H  2.80  1.42  1.34
 H  2.75  1.91 -0.38
 H  4.58  1.64 -1.79
 H  6.11  0.76 -1.21
 H  6.20  2.43  0.78
 H  4.68  3.23  0.11
