17
set: 3964.00  0.00  0.00
 C  3.08 -1.16 -0.36
 C  2.41  0.08  0.22
 O  2.05 -0.10  1.61
 C  3.31  1.30  0.19
 O  4.49  1.16  0.96
 C  3.46  2.10 -1.07
 C  2.69  2.68  0.11
 H  3.32 -1.01 -1.42
 H  2.42 -2.04 -0.29
 H  4.02 -1.37  0.18
 H  1.50  0.32 -0.37
 H  1.72 -1.01  1.71
 H  4.18  0.93  1.86
 H  2.91  1.78 -1.95
 H  4.46  2.50 -1.26
 H  3.18  3.47  0.68
 H  1.61  2.76  0.03
