14
set: 6956.00  0.00  0.00
 C  0.97 -0.04  0.11
 C  2.48  0.06  0.01
 C  3.15  1.18  0.84
 S  4.41 -0.04  1.34
 O  4.57 -0.21  2.78
 O  5.59  0.02  0.47
 N  3.18 -1.08  0.71
 H  0.60 -0.93 -0.43
 H  0.49  0.84 -0.33
 H  0.66 -0.13  1.16
 H  2.80  0.14 -1.05
 H  2.56  1.50  1.71
 H  3.57  2.03  0.29
 H  3.54 -1.83  0.11
