16
set: 2691.00  0.00  0.00
 C  0.96 -0.13  0.20
 N  2.42 -0.13  0.10
 C  2.97  1.19 -0.20
 C  4.46  1.15 -0.26
 C  5.19  1.59 -1.31
 C  6.60  1.58 -1.38
 C  7.82  1.59 -1.49
 H  0.60 -1.15  0.36
 H  0.44  0.29 -0.69
 H  0.66  0.47  1.08
 H  2.71 -0.78 -0.63
 H  2.66  1.86  0.62
 H  2.57  1.64 -1.14
 H  4.98  0.73  0.61
 H  4.66  2.00 -2.18
 H  8.88  1.59 -1.57
