16
set: 6720.00  0.00  0.00
 O  1.64 -0.87 -0.80
 C  1.60  0.04  0.31
 C  2.68  1.10  0.10
 C  4.09  0.52  0.08
 C  5.19  1.58 -0.16
 C  5.24  2.58  0.90
 N  5.28  3.38  1.75
 H  0.96 -1.54 -0.66
 H  1.78 -0.49  1.26
 H  0.61  0.53  0.38
 H  2.59  1.85  0.90
 H  2.48  1.62 -0.85
 H  4.17 -0.23 -0.72
 H  4.30 -0.01  1.03
 H  5.02  2.09 -1.11
 H  6.18  1.10 -0.22
