19
set: 1334.00  0.00  0.00
 C  2.45 -0.48 -1.66
 C  2.46  0.02 -0.21
 C  3.31  1.29  0.01
 C  3.41  1.70  1.50
 C  3.44  3.25  1.52
 C  2.84  3.61  0.18
 C  2.77  2.55 -0.64
 H  1.87 -1.41 -1.75
 H  3.47 -0.69 -2.01
 H  2.00  0.26 -2.34
 H  2.85 -0.78  0.45
 H  1.43  0.22  0.13
 H  4.32  1.08 -0.40
 H  4.28  1.25  2.01
 H  2.51  1.35  2.03
 H  4.48  3.64  1.59
 H  2.89  3.68  2.37
 H  2.55  4.62 -0.09
 H  2.42  2.58 -1.67
