15
set: 6440.00  0.00  0.00
 N  0.65  1.28  0.11
 N  1.93  0.88  0.29
 C  2.87  1.75  0.13
 C  4.26  1.36  0.23
 C  5.30  2.21  0.07
 C  6.73  1.78  0.15
 O  7.44  2.03 -1.09
 H -0.01  0.68  0.61
 H  0.45  2.28  0.22
 H  2.64  2.81 -0.10
 H  4.44  0.31  0.45
 H  5.12  3.26 -0.16
 H  6.80  0.72  0.44
 H  7.28  2.37  0.90
 H  6.92  1.60 -1.79
