14
set: 4890.00  0.00  0.00
 C  0.97 -0.09 -0.31
 C  2.21  0.68  0.08
 O  3.43 -0.08  0.23
 C  3.34  0.86 -0.86
 C  4.21  2.10 -0.79
 N  4.89  2.24  0.38
 O  4.24  2.90 -1.73
 H  0.21  0.60 -0.70
 H  0.54 -0.60  0.57
 H  1.20 -0.84 -1.07
 H  2.08  1.45  0.85
 H  3.27  0.43 -1.86
 H  4.92  1.46  1.03
 H  5.54  3.01  0.47
