16
set: 6469.00  0.00  0.00
 O  0.77 -0.06 -0.09
 C  2.15  0.03  0.18
 C  3.07 -0.85 -0.63
 C  2.52 -1.42 -1.95
 N  2.65 -0.36 -2.98
 C  2.59  0.92 -2.24
 C  3.11  0.67 -0.81
 H  0.38  0.82  0.07
 H  2.40  0.15  1.24
 H  3.87 -1.38 -0.11
 H  3.07 -2.32 -2.26
 H  1.46 -1.69 -1.84
 H  3.60 -0.43 -3.36
 H  3.18  1.69 -2.75
 H  1.54  1.26 -2.22
 H  3.93  1.27 -0.43
