15
set: 2649.00  0.00  0.00
 C  2.88 -1.18  0.52
 N  2.30  0.02 -0.06
 C  3.06  1.20  0.00
 C  2.58  2.50 -0.12
 N  3.67  3.36 -0.07
 C  4.83  2.64  0.09
 C  4.49  1.29  0.14
 H  2.14 -1.99  0.46
 H  3.21 -1.07  1.57
 H  3.76 -1.50 -0.07
 H  1.35  0.17  0.25
 H  1.57  2.88 -0.25
 H  3.61  4.37 -0.14
 H  5.79  3.13  0.15
 H  5.19  0.47  0.26
