18
set: 5321.00  0.00  0.00
 C  1.11 -0.11 -0.41
 C  2.61 -0.20 -0.15
 N  3.17  1.13  0.16
 C  4.59  1.10  0.42
 C  5.53  1.25 -0.77
 C  5.36  2.37  0.22
 O  6.37  2.64  1.17
 H  0.70 -1.09 -0.68
 H  0.90  0.60 -1.22
 H  0.57  0.24  0.49
 H  3.13 -0.56 -1.06
 H  2.81 -0.94  0.65
 H  2.68  1.52  0.97
 H  4.96  0.46  1.23
 H  5.08  1.37 -1.75
 H  6.46  0.68 -0.73
 H  4.78  3.24 -0.11
 H  7.11  3.07  0.70
