15
set: 5590.00  0.00  0.00
 C  1.03  0.20 -0.29
 N  2.47  0.37 -0.05
 C  3.34 -0.61 -0.68
 C  3.26  0.79 -1.21
 C  4.38  1.78 -0.98
 N  4.64  2.03  0.34
 O  5.01  2.26 -1.92
 H  0.53  1.18 -0.19
 H  0.62 -0.48  0.47
 H  0.80 -0.21 -1.29
 H  2.88 -1.39 -1.30
 H  4.21 -0.92 -0.10
 H  2.76  0.92 -2.17
 H  3.95  1.72  1.02
 H  5.32  2.75  0.57
