15
set: 4093.00  0.00  0.00
 C  2.43 -0.89 -0.87
 O  2.07  0.32 -0.20
 C  3.17  1.16 -0.01
 C  3.58  2.10 -1.11
 C  2.85  2.63  0.13
 C  3.54  3.43  1.10
 C  4.13  4.10  1.92
 H  1.51 -1.48 -0.97
 H  3.17 -1.46 -0.29
 H  2.84 -0.68 -1.88
 H  3.96  0.76  0.64
 H  2.99  2.08 -2.03
 H  4.63  2.35 -1.22
 H  1.79  2.87 -0.02
 H  4.65  4.70  2.65
