19
set: 4181.00  0.00  0.00
 C  1.95  0.28  0.88
 O  3.35  0.52  0.98
 C  3.83  1.27 -0.14
 C  5.32  1.44 -0.04
 C  6.11  0.16 -0.01
 C  5.85  2.68 -0.01
 C  7.29  3.07  0.03
 H  1.66 -0.30  1.77
 H  1.70 -0.30 -0.03
 H  1.38  1.22  0.86
 H  3.33  2.26 -0.18
 H  3.57  0.73 -1.08
 H  5.92 -0.44 -0.92
 H  5.78 -0.46  0.84
 H  7.19  0.32  0.08
 H  5.14  3.52 -0.03
 H  7.97  2.21  0.01
 H  7.51  3.66  0.94
 H  7.55  3.72 -0.82
