18
set: 2194.00  0.00  0.00
 C  0.92 -0.09  0.02
 C  2.44 -0.05  0.01
 C  3.01  1.37  0.01
 C  4.54  1.41  0.01
 C  5.08  2.85  0.00
 C  6.54  2.91 -0.00
 N  7.71  2.94 -0.00
 H  0.54 -1.12  0.02
 H  0.50  0.41 -0.87
 H  0.51  0.42  0.90
 H  2.83 -0.60 -0.87
 H  2.83 -0.59  0.90
 H  2.63  1.92  0.89
 H  2.63  1.91 -0.88
 H  4.93  0.88 -0.88
 H  4.93  0.88  0.89
 H  4.72  3.40  0.89
 H  4.71  3.40 -0.88
