16
set: 4839.00  0.00  0.00
 C  0.90  0.09  0.21
 C  2.40 -0.07  0.01
 N  3.24  0.91  0.73
 C  3.98 -0.04  1.41
 O  4.94  0.04  2.16
 C  3.13 -1.19  0.81
 C  3.90 -2.25  0.04
 H  0.36 -0.75 -0.26
 H  0.53  1.01 -0.25
 H  0.65  0.11  1.28
 H  2.65 -0.10 -1.07
 H  3.38  1.91  0.62
 H  2.48 -1.64  1.57
 H  4.53 -1.81 -0.74
 H  3.22 -2.97 -0.44
 H  4.56 -2.81  0.72
