14
set: 271.00  0.00  0.00
 C  1.55 -0.55  1.10
 C  2.32 -0.11  0.11
 C  3.07  1.20  0.10
 C  4.60  0.99  0.00
 C  5.34  2.24 -0.03
 C  5.94  3.30 -0.06
 H  1.04 -1.51  1.05
 H  1.40  0.05  2.01
 H  2.45 -0.73 -0.78
 H  2.84  1.77  1.01
 H  2.75  1.81 -0.76
 H  4.83  0.40 -0.90
 H  4.94  0.39  0.86
 H  6.47  4.23 -0.09
