16
set: 5500.00  0.00  0.00
 C  0.94 -0.05  0.08
 C  2.45 -0.14  0.04
 O  2.98  1.19  0.01
 C  4.40  1.20 -0.03
 C  4.84  2.67 -0.05
 C  6.29  2.81 -0.10
 N  7.45  2.89 -0.13
 H  0.50 -1.06  0.10
 H  0.55  0.47 -0.81
 H  0.60  0.49  0.97
 H  2.79 -0.69 -0.86
 H  2.84 -0.67  0.93
 H  4.77  0.68 -0.93
 H  4.82  0.69  0.86
 H  4.45  3.18  0.84
 H  4.40  3.17 -0.93
