18
set: 225.00  0.00  0.00
 C  0.97  0.01 -0.06
 C  2.49  0.01  0.06
 C  3.08  1.13  0.93
 C  4.52  0.66  1.18
 C  4.39 -0.86  1.42
 C  3.08 -1.28  0.69
 H  0.61 -0.82 -0.68
 H  0.60  0.95 -0.51
 H  0.51 -0.09  0.94
 H  2.92  0.12 -0.96
 H  2.53  1.18  1.88
 H  3.02  2.12  0.46
 H  5.13  0.85  0.28
 H  5.01  1.19  2.01
 H  5.27 -1.41  1.06
 H  4.30 -1.06  2.50
 H  3.26 -2.06 -0.07
 H  2.36 -1.70  1.40
