17
set: 5412.00  0.00  0.00
 C  0.76 -0.66  0.08
 C  2.28 -0.43  0.02
 N  2.99 -1.20 -1.02
 C  2.64  1.04 -0.12
 O  2.10  1.52 -1.37
 N  2.44  2.87 -1.53
 C  2.00  3.34 -2.65
 H  0.30 -0.09  0.91
 H  0.54 -1.72  0.23
 H  0.28 -0.33 -0.86
 H  2.71 -0.74  0.99
 H  2.65 -0.90 -1.94
 H  2.75 -2.19 -0.94
 H  3.74  1.17 -0.13
 H  2.22  1.63  0.71
 H  2.22  4.38 -2.84
 H  1.44  2.73 -3.37
