13
set: 3567.00  0.00  0.00
 C  0.97 -0.01  0.17
 C  2.31 -0.06  0.07
 C  3.02 -1.28 -0.07
 C  3.68 -2.30 -0.21
 C  3.16  1.19  0.06
 C  2.82  2.38  0.85
 O  3.88  1.49  1.27
 H  0.44  0.94  0.26
 H  0.37 -0.92  0.17
 H  4.25 -3.20 -0.32
 H  3.76  1.32 -0.85
 H  1.94  2.37  1.50
 H  3.15  3.36  0.50
