17
set: 5780.00  0.00  0.00
 C  0.29  1.22 -0.27
 N  1.63  1.78 -0.21
 C  2.62  0.96 -0.23
 N  3.93  1.35 -0.20
 C  4.38  2.70  0.16
 C  3.97  3.82 -0.81
 O  2.66  4.31 -0.60
 H -0.29  1.52  0.62
 H  0.28  0.11 -0.34
 H -0.25  1.62 -1.15
 H  2.49 -0.13 -0.31
 H  4.61  0.60 -0.10
 H  5.48  2.65  0.20
 H  4.02  2.97  1.17
 H  4.12  3.46 -1.84
 H  4.65  4.67 -0.65
 H  2.09  3.49 -0.47
