18
set: 4624.00  0.00  0.00
 C  1.06  0.01 -0.11
 C  2.57  0.03 -0.13
 C  3.35 -0.61 -1.27
 C  3.34  0.91 -1.09
 N  2.63  1.80 -1.99
 C  4.61  1.55 -0.59
 O  5.56  1.79 -1.65
 H  0.65  0.85  0.47
 H  0.69 -0.92  0.35
 H  0.62  0.06 -1.12
 H  3.03 -0.07  0.86
 H  2.77 -1.02 -2.10
 H  4.25 -1.18 -1.03
 H  1.86  1.31 -2.46
 H  3.28  2.10 -2.72
 H  5.06  0.92  0.20
 H  4.39  2.54 -0.17
 H  5.78  0.93 -2.04
