20
set: 5689.00  0.00  0.00
 C  0.69  0.20  1.20
 N  1.92  0.70  1.81
 C  2.84  1.40  0.87
 C  2.17  2.64  0.27
 C  4.14  1.73  1.61
 C  3.99  2.71  2.78
 O  3.13  2.23  3.81
 H  0.17 -0.45  1.92
 H  0.86 -0.37  0.27
 H  0.01  1.03  0.97
 H  2.43 -0.09  2.20
 H  3.09  0.72  0.02
 H  1.79  3.31  1.06
 H  1.33  2.38 -0.38
 H  2.89  3.20 -0.34
 H  4.87  2.14  0.89
 H  4.58  0.79  2.00
 H  3.64  3.69  2.40
 H  4.98  2.88  3.24
 H  2.38  1.79  3.34
