13
set: 3981.00  0.00  0.00
 C  0.97 -0.05 -0.27
 C  2.49 -0.04 -0.23
 O  3.13 -1.07 -0.37
 C  3.20  1.28 -0.00
 C  2.51  2.44  0.18
 C  4.62  1.25  0.00
 C  5.83  1.20  0.01
 H  0.59  0.61 -1.07
 H  0.55  0.31  0.68
 H  0.64 -1.07 -0.45
 H  1.43  2.46  0.18
 H  3.04  3.38  0.35
 H  6.90  1.16  0.01
