17
set: 1010.00  0.00  0.00
 C  0.98  0.02 -0.06
 C  2.51  0.00  0.10
 C  2.92 -0.76  1.36
 N  3.21 -0.62 -1.06
 C  3.05  1.46  0.15
 O  4.47  1.49  0.13
 H  0.69  0.54 -0.98
 H  0.50  0.54  0.79
 H  0.59 -1.01 -0.09
 H  2.44 -0.32  2.25
 H  4.01 -0.71  1.50
 H  2.62 -1.81  1.30
 H  2.76 -0.33 -1.93
 H  3.14 -1.64 -1.01
 H  2.71  1.95  1.08
 H  2.62  2.02 -0.71
 H  4.70  0.77 -0.50
