17
set: 6045.00  0.00  0.00
 C  2.10 -0.55  0.59
 O  3.49 -0.25  0.68
 N  3.65  1.17  0.50
 C  4.91  1.45  0.49
 N  5.37  2.75  0.47
 C  4.38  3.82  0.34
 C  6.67  3.00 -0.13
 H  2.03 -1.63  0.74
 H  1.70 -0.28 -0.41
 H  1.53 -0.01  1.36
 H  5.68  0.67  0.53
 H  3.54  3.61  1.01
 H  3.98  3.90 -0.69
 H  4.85  4.77  0.62
 H  7.35  2.17  0.10
 H  7.09  3.93  0.29
 H  6.61  3.11 -1.23
