15
set: 6125.00  0.00  0.00
 N  1.02 -0.01  0.40
 C  2.40  0.03 -0.07
 C  3.29  1.07  0.68
 N  4.14 -0.05  1.13
 C  3.30 -1.10  0.53
 C  5.17 -0.06  2.00
 O  5.68  0.94  2.50
 H  0.51 -0.75 -0.07
 H  0.55  0.87  0.15
 H  2.52  0.10 -1.17
 H  2.77  1.57  1.51
 H  3.82  1.80  0.06
 H  3.82 -1.74 -0.19
 H  2.77 -1.71  1.28
 H  5.53 -1.10  2.20
