17
set: 2991.00  0.00  0.00
 N  0.92  0.02 -0.01
 C  2.39 -0.03 -0.03
 C  2.96  1.41 -0.01
 C  4.42  1.44 -0.01
 C  5.63  1.44  0.01
 C  7.09  1.46 -0.01
 N  7.62  2.84  0.03
 H  0.54 -0.92  0.12
 H  0.57  0.36 -0.91
 H  2.82 -0.57 -0.90
 H  2.73 -0.55  0.87
 H  2.56  1.93  0.87
 H  2.58  1.95 -0.89
 H  7.44  0.87 -0.88
 H  7.47  0.93  0.89
 H  7.25  3.36 -0.77
 H  8.64  2.81 -0.08
