15
set: 3262.00  0.00  0.00
 C  0.90 -0.09 -0.08
 C  2.44 -0.01  0.00
 C  3.15 -1.23 -0.54
 C  3.95 -0.85 -1.53
 O  3.93  0.51 -1.79
 C  3.04  1.08 -0.87
 C  2.82  2.40 -0.87
 H  0.44  0.84  0.27
 H  0.52 -0.91  0.55
 H  0.58 -0.27 -1.12
 H  2.72  0.16  1.06
 H  3.01 -2.25 -0.18
 H  4.62 -1.41 -2.18
 H  3.32  3.06 -1.57
 H  2.12  2.84 -0.15
