17
set: 5949.00  0.00  0.00
 C  2.84 -0.86 -0.66
 O  2.57  0.03  0.43
 C  2.98  1.39  0.16
 C  2.33  2.25  1.23
 C  4.48  1.50  0.17
 N  5.13  1.81 -0.90
 N  6.50  1.81 -0.85
 H  2.49 -1.85 -0.35
 H  3.91 -0.90 -0.91
 H  2.28 -0.55 -1.57
 H  2.63  1.69 -0.85
 H  2.69  1.96  2.22
 H  1.24  2.13  1.20
 H  2.57  3.31  1.06
 H  4.99  1.29  1.13
 H  6.88  2.44 -1.56
 H  6.91  1.98  0.08
