14
set: 2688.00  0.00  0.00
 C  1.06 -0.15 -0.23
 N  2.47 -0.03  0.12
 C  2.97  1.36  0.02
 C  2.42  2.20  1.11
 C  1.94  2.90  1.97
 C  4.43  1.38  0.03
 C  5.65  1.39 -0.02
 H  0.78 -1.21 -0.21
 H  0.81  0.27 -1.23
 H  0.45  0.38  0.52
 H  3.05 -0.60 -0.50
 H  2.64  1.84 -0.93
 H  1.53  3.52  2.74
 H  6.72  1.39 -0.04
