18
set: 6336.00  0.00  0.00
 N  1.94 -1.28 -0.68
 C  1.61  0.02 -0.08
 C  2.85  0.90 -0.04
 O  3.79  0.32  0.85
 C  5.02  1.05  0.89
 C  6.01  0.31  1.74
 C  6.69  0.87  2.74
 H  1.11 -1.89 -0.66
 H  2.64 -1.74 -0.09
 H  1.20 -0.04  0.95
 H  0.86  0.52 -0.71
 H  2.58  1.92  0.30
 H  3.28  0.98 -1.06
 H  4.86  2.07  1.28
 H  5.42  1.15 -0.15
 H  6.17 -0.74  1.47
 H  6.54  1.91  3.03
 H  7.43  0.30  3.31
