13
set: 4829.00  0.00  0.00
 C  0.98  0.00 -0.00
 C  2.47  0.04 -0.01
 N  3.23  1.12 -0.01
 C  4.54  0.68 -0.01
 C  4.57 -0.70 -0.01
 O  5.54 -1.66 -0.01
 N  3.25 -1.11 -0.01
 H  0.61  1.04  0.01
 H  0.58 -0.51  0.88
 H  0.57 -0.50 -0.90
 H  5.38  1.37 -0.01
 H  6.40 -1.21 -0.01
 H  2.94 -2.07 -0.00
