14
set: 2118.00  0.00  0.00
 C  1.07 -0.15  0.45
 C  2.47 -0.07 -0.10
 C  3.06 -1.12 -0.71
 C  3.20  1.21  0.06
 C  2.69  2.31  0.66
 C  4.53  1.29 -0.46
 N  5.62  1.34 -0.89
 H  0.41  0.60 -0.03
 H  1.06  0.05  1.53
 H  0.65 -1.14  0.27
 H  2.52 -2.06 -0.83
 H  4.07 -1.06 -1.11
 H  1.68  2.31  1.08
 H  3.27  3.23  0.75
