20
set: 2479.00  0.00  0.00
 C  2.93 -0.93 -0.84
 C  2.54 -0.07  0.37
 N  2.91 -0.67  1.68
 C  3.10  1.37  0.27
 C  2.41  2.31  1.27
 C  4.60  1.42  0.45
 C  5.49  1.74 -0.50
 H  2.58 -0.48 -1.78
 H  2.48 -1.94 -0.76
 H  4.02 -1.04 -0.90
 H  1.44  0.03  0.39
 H  3.88 -0.99  1.64
 H  2.35 -1.51  1.83
 H  2.88  1.73 -0.76
 H  2.57  1.94  2.30
 H  1.33  2.34  1.09
 H  2.81  3.33  1.20
 H  4.96  1.18  1.46
 H  5.18  2.00 -1.51
 H  6.56  1.76 -0.29
