14
set: 4750.00  0.00  0.00
 C  0.93 -0.13 -0.00
 C  2.41  0.05 -0.00
 C  3.22  1.16 -0.00
 C  2.83  2.61  0.00
 C  4.53  0.61 -0.00
 N  4.53 -0.71 -0.01
 O  3.17 -1.07 -0.01
 H  0.43  0.84  0.02
 H  0.61 -0.72  0.87
 H  0.60 -0.67 -0.90
 H  3.72  3.25  0.01
 H  2.23  2.87  0.89
 H  2.24  2.88 -0.89
 H  5.48  1.13 -0.00
