16
set: 2120.00  0.00  0.00
 C  1.00  0.04  0.05
 C  2.51 -0.07  0.05
 C  3.15 -1.26  0.07
 C  3.22  1.17  0.02
 C  3.77  2.25  0.01
 C  4.46  3.54 -0.02
 N  3.53  4.66 -0.24
 H  0.65  0.61  0.92
 H  0.54 -0.96  0.07
 H  0.64  0.57 -0.85
 H  2.59 -2.19  0.10
 H  4.24 -1.31  0.07
 H  5.27  3.47 -0.77
 H  4.96  3.70  0.95
 H  3.05  4.53 -1.13
 H  4.06  5.53 -0.32
