17
set: 362.00  0.00  0.00
 C  0.97  0.00 -0.02
 C  2.49  0.02  0.04
 C  3.10  1.14  0.90
 C  4.51  0.63  1.16
 N  4.30 -0.80  1.43
 C  3.12 -1.25  0.66
 H  0.60 -0.84 -0.63
 H  0.58  0.93 -0.46
 H  0.54 -0.10  0.99
 H  2.89  0.13 -0.98
 H  2.55  1.23  1.85
 H  3.08  2.12  0.40
 H  5.15  0.83  0.28
 H  4.99  1.12  2.03
 H  5.13 -1.35  1.21
 H  3.37 -1.99 -0.12
 H  2.39 -1.74  1.35
