17
set: 4397.00  0.00  0.00
 O  2.24 -0.39  1.41
 C  2.50 -0.04  0.04
 C  2.98  1.38 -0.01
 C  4.15  1.80 -0.52
 C  4.32  3.30 -0.41
 C  2.90  3.78 -0.01
 C  2.18  2.53  0.55
 H  1.79 -1.25  1.41
 H  1.57 -0.13 -0.56
 H  3.26 -0.71 -0.40
 H  4.92  1.15 -0.94
 H  5.06  3.53  0.37
 H  4.68  3.77 -1.33
 H  2.37  4.13 -0.92
 H  2.91  4.62  0.70
 H  1.11  2.48  0.25
 H  2.19  2.49  1.65
