15
set: 1512.00  0.00  0.00
 C  0.95 -0.00  0.01
 C  2.48 -0.01  0.01
 C  3.07  1.42  0.00
 C  4.52  1.44 -0.00
 C  5.74  1.44 -0.00
 C  7.10  1.44 -0.00
 C  8.32  1.44 -0.00
 H  0.55 -1.02  0.02
 H  0.55  0.51 -0.88
 H  0.55  0.52  0.90
 H  2.85 -0.56 -0.87
 H  2.86 -0.54  0.90
 H  2.69  1.98  0.88
 H  2.69  1.96 -0.89
 H  9.39  1.43 -0.00
