15
set: 5653.00  0.00  0.00
 C  2.30 -0.60 -1.49
 N  2.23  0.16 -0.24
 C  3.18  1.26 -0.18
 C  2.67  2.66 -0.66
 N  2.91  3.13  0.72
 C  3.28  1.91  1.23
 O  3.54  1.50  2.34
 H  1.62 -1.47 -1.42
 H  3.32 -0.97 -1.74
 H  1.95  0.02 -2.33
 H  2.40 -0.45  0.56
 H  4.18  1.02 -0.60
 H  1.61  2.65 -0.94
 H  3.28  3.16 -1.42
 H  2.71  4.02  1.18
