16
set: 5535.00  0.00  0.00
 C  0.97 -1.29  1.44
 C  1.80 -0.90  0.22
 O  1.15 -1.44 -0.92
 C  1.95  0.63  0.14
 N  3.08  1.11 -0.68
 C  3.24  0.88 -2.01
 O  2.53  0.15 -2.71
 H  1.48 -1.01  2.38
 H  0.81 -2.37  1.44
 H -0.01 -0.80  1.41
 H  2.82 -1.33  0.33
 H  1.55 -1.01 -1.71
 H  2.11  1.04  1.14
 H  1.01  1.05 -0.26
 H  3.75  1.74 -0.25
 H  4.11  1.42 -2.43
