15
set: 3059.00  0.00  0.00
 C -1.04 -0.02 -1.03
 C -0.59  1.00  0.05
 C -1.00 -0.06  1.10
 C -0.62 -1.11  0.00
 C  0.89 -1.18 -0.03
 C  1.53 -0.00 -0.02
 O  0.85  1.19  0.02
 H -2.13  0.03 -1.16
 H -0.53  0.00 -2.00
 H -1.01  2.02  0.08
 H -0.44 -0.08  2.05
 H -2.08 -0.02  1.28
 H -1.12 -2.09 -0.01
 H  1.43 -2.13 -0.07
 H  2.61  0.14 -0.05
