17
set: 4479.00  0.00  0.00
 O  1.14  1.79 -0.29
 C  1.85  2.08  0.92
 C  3.18  2.75  0.55
 C  4.10  1.87 -0.23
 C  5.36  1.56  0.14
 C  6.24  0.70 -0.63
 C  7.50  0.38 -0.27
 H  0.35  1.29 -0.07
 H  2.06  1.15  1.49
 H  1.27  2.76  1.57
 H  3.67  3.10  1.48
 H  2.93  3.65 -0.04
 H  3.70  1.45 -1.15
 H  5.77  1.97  1.07
 H  5.83  0.29 -1.56
 H  7.95  0.77  0.64
 H  8.12 -0.28 -0.89
