19
set: 2764.00  0.00  0.00
 C  1.62 -0.71  0.16
 N  3.07 -0.61  0.00
 C  3.52 -1.48 -1.10
 N  3.37  0.77 -0.29
 C  4.58  1.14 -0.07
 C  5.68  0.29  0.51
 C  4.91  2.58 -0.38
 H  1.30 -0.03  0.96
 H  1.37 -1.74  0.45
 H  1.07 -0.44 -0.76
 H  3.21 -2.51 -0.88
 H  4.61 -1.46 -1.19
 H  3.08 -1.17 -2.07
 H  6.35 -0.09 -0.28
 H  5.25 -0.57  1.03
 H  6.30  0.88  1.19
 H  4.02  3.09 -0.77
 H  5.72  2.64 -1.13
 H  5.27  3.10  0.52
