16
set: 5409.00  0.00  0.00
 C  3.06 -1.51 -0.68
 C  2.68 -0.26  0.10
 N  3.32  0.95 -0.41
 C  4.24  1.66  0.28
 O  4.65  1.39  1.41
 C  4.76  2.91 -0.44
 O  4.35  3.03 -1.82
 H  2.56 -2.39 -0.25
 H  4.15 -1.68 -0.64
 H  2.76 -1.44 -1.74
 H  3.01 -0.34  1.15
 H  1.59 -0.12  0.10
 H  3.06  1.32 -1.33
 H  5.85  2.94 -0.33
 H  4.35  3.79  0.09
 H  5.02  2.59 -2.36
