16
set: 5461.00  0.00  0.00
 C  1.42  3.14 -0.33
 C  2.63  2.62 -0.55
 O  3.17  1.65  0.25
 C  4.55  1.35  0.01
 C  5.64  2.15  0.75
 N  6.32  0.87  1.14
 C  5.08  0.11  0.75
 H  1.02  3.88 -1.02
 H  0.82  2.85  0.53
 H  3.25  2.91 -1.41
 H  4.73  1.30 -1.08
 H  5.24  2.66  1.64
 H  6.24  2.86  0.17
 H  7.06  0.66  0.46
 H  5.23 -0.81  0.18
 H  4.47 -0.11  1.64
