17
set: 2756.00  0.00  0.00
 C  0.97  0.04  0.20
 N  2.26 -0.29 -0.40
 C  2.61 -1.64 -0.51
 N  3.77 -2.18 -0.64
 C  3.30  0.69 -0.27
 C  4.18  0.99 -1.47
 C  3.15  2.00 -1.02
 H  0.60  0.99 -0.22
 H  1.04  0.15  1.29
 H  0.25 -0.75 -0.04
 H  1.73 -2.29 -0.50
 H  4.51 -1.47 -0.62
 H  3.79  0.75  0.71
 H  3.96  0.43 -2.38
 H  5.23  1.20 -1.29
 H  3.49  2.90 -0.52
 H  2.26  2.12 -1.64
