15
set: 5784.00  0.00  0.00
 C  0.75  0.19  0.17
 N  2.18  0.18 -0.03
 C  2.79  1.29  0.05
 N  4.17  1.35 -0.14
 C  4.92  2.53 -0.06
 C  6.41  2.35 -0.27
 O  4.40  3.62  0.16
 H  0.25 -0.22 -0.72
 H  0.33  1.20  0.38
 H  0.49 -0.47  1.01
 H  2.34  2.27  0.25
 H  4.64  0.46 -0.33
 H  6.70  1.35 -0.59
 H  6.92  2.59  0.68
 H  6.74  3.09 -1.01
