17
set: 4444.00  0.00  0.00
 O  1.10  0.34  0.11
 C  2.50  0.02 -0.08
 C  2.61 -0.70 -1.40
 C  3.15 -1.91 -1.55
 C  3.35  1.27 -0.05
 C  3.73  1.86  1.30
 C  4.78  1.21  0.42
 H  1.07  1.02  0.80
 H  2.84 -0.66  0.73
 H  2.23 -0.15 -2.26
 H  3.53 -2.48 -0.70
 H  3.24 -2.37 -2.54
 H  3.12  1.99 -0.84
 H  3.43  1.32  2.20
 H  3.75  2.95  1.40
 H  5.51  1.85 -0.08
 H  5.16  0.24  0.73
