17
set: 3357.00  0.00  0.00
 C  0.95 -0.01 -0.08
 C  2.49  0.01 -0.04
 C  3.10 -1.20  0.71
 O  3.53 -0.72  2.02
 C  3.56  0.66  1.93
 C  4.13  1.35  3.12
 C  3.04  1.15  0.79
 H  0.57 -0.87 -0.66
 H  0.56  0.91 -0.54
 H  0.54 -0.07  0.94
 H  2.86  0.03 -1.08
 H  4.00 -1.58  0.19
 H  2.40 -2.02  0.87
 H  4.09  2.43  2.99
 H  5.17  1.04  3.28
 H  3.56  1.08  4.03
 H  2.94  2.20  0.54
