15
set: 6449.00  0.00  0.00
 N  1.58 -2.55  1.00
 N  2.16 -1.32  1.12
 C  2.31 -0.61  0.05
 C  3.06  0.68  0.13
 O  2.19  1.74 -0.34
 C  2.75  2.98 -0.42
 C  3.99  3.36 -0.08
 H  1.15 -2.83  1.88
 H  0.96 -2.68  0.20
 H  1.93 -0.93 -0.93
 H  3.96  0.66 -0.51
 H  3.37  0.87  1.17
 H  2.01  3.68 -0.81
 H  4.74  2.68  0.32
 H  4.26  4.40 -0.21
