15
set: 4163.00  0.00  0.00
 C  2.55 -0.83 -0.92
 O  2.29  0.02  0.19
 C  2.84  1.34  0.03
 C  2.35  2.18  1.18
 C  1.65  3.31  1.03
 C  4.31  1.32 -0.01
 C  5.52  1.30 -0.04
 H  2.06 -1.78 -0.70
 H  3.63 -1.00 -1.06
 H  2.13 -0.41 -1.86
 H  2.47  1.78 -0.92
 H  2.61  1.80  2.17
 H  1.39  3.69  0.04
 H  1.32  3.89  1.90
 H  6.59  1.29 -0.06
