14
set: 6468.00  0.00  0.00
 O  1.11  0.04  0.12
 C  2.32  0.02  0.09
 C  3.46  1.07  0.02
 C  4.10  0.03 -0.97
 C  3.45 -1.02 -0.03
 N  4.22 -0.80  1.23
 C  4.21  0.72  1.32
 H  3.29  2.12 -0.24
 H  5.20  0.00 -1.01
 H  3.65  0.05 -1.97
 H  3.31 -2.08 -0.29
 H  3.70 -1.19  2.02
 H  5.24  1.11  1.34
 H  3.68  1.09  2.21
