16
set: 1670.00  0.00  0.00
 C  1.40  0.02  1.00
 C  2.30  0.00  0.01
 C  2.92 -1.24 -0.61
 C  4.29 -0.78 -1.07
 N  5.13 -0.02 -0.11
 C  4.30  0.72 -1.10
 C  2.94  1.22 -0.64
 H  1.02  0.96  1.40
 H  1.01 -0.90  1.43
 H  2.34 -1.57 -1.48
 H  2.96 -2.09  0.10
 H  4.85 -1.38 -1.79
 H  4.67 -0.00  0.81
 H  4.87  1.29 -1.84
 H  2.98  2.08  0.03
 H  2.36  1.52 -1.53
