15
set: 2558.00  0.00  0.00
 C  1.68  0.57 -2.06
 C  2.76  0.65 -1.03
 N  3.61  1.62 -1.03
 N  4.52  1.69 -0.00
 C  5.75  2.39 -0.39
 C  6.67  2.50  0.73
 C  7.45  2.56  1.66
 H  1.73 -0.37 -2.62
 H  1.77  1.41 -2.76
 H  0.69  0.61 -1.59
 H  2.81 -0.14 -0.26
 H  4.71  0.79  0.46
 H  5.46  3.39 -0.74
 H  6.27  1.89 -1.24
 H  8.14  2.63  2.48
