18
set: 306.00  0.00  0.00
 C  0.94 -0.13 -0.10
 C  2.44  0.13 -0.02
 C  2.88  1.58 -0.03
 C  2.01  2.61 -0.12
 C  4.37  1.83  0.09
 C  5.17  1.40 -1.15
 H  0.74 -1.21 -0.08
 H  0.51  0.27 -1.03
 H  0.40  0.33  0.74
 H  2.95 -0.39 -0.85
 H  2.85 -0.33  0.90
 H  0.94  2.46 -0.21
 H  2.37  3.64 -0.11
 H  4.75  1.29  0.97
 H  4.54  2.90  0.27
 H  5.10  0.31 -1.32
 H  6.24  1.64 -1.02
 H  4.81  1.91 -2.05
