15
set: 2235.00  0.00  0.00
 C  0.96 -0.06  0.00
 C  2.49 -0.06  0.00
 C  3.07  1.28  0.01
 C  3.53  2.41  0.02
 C  4.01  3.76  0.01
 N  5.39  3.90  0.15
 N  3.26  4.81 -0.07
 H  0.58 -1.09 -0.01
 H  0.57  0.46 -0.89
 H  0.56  0.45  0.89
 H  2.87 -0.61 -0.88
 H  2.87 -0.61  0.88
 H  5.96  3.12 -0.16
 H  5.74  4.83 -0.07
 H  2.28  4.53 -0.10
