14
set: 4918.00  0.00  0.00
 C  0.96 -0.04 -0.18
 C  2.47 -0.02  0.02
 O  3.04  0.25 -1.28
 C  3.04 -1.27  0.69
 O  4.09 -0.81  1.59
 N  3.90  0.57  1.80
 C  2.98  1.01  1.01
 H  0.44 -0.19  0.77
 H  0.68 -0.85 -0.87
 H  0.62  0.91 -0.62
 H  4.00  0.36 -1.17
 H  3.48 -1.97 -0.03
 H  2.28 -1.78  1.30
 H  2.72  2.06  1.02
