15
set: 2320.00  0.00  0.00
 C  0.64  0.14 -0.01
 C  2.11  0.01  0.20
 C  3.03  0.97 -0.04
 C  4.44  0.76  0.19
 N  5.30  1.71 -0.06
 N  6.61  1.29  0.24
 C  7.47  2.21 -0.00
 H  0.28 -0.62 -0.72
 H  0.37  1.13 -0.40
 H  0.09 -0.02  0.93
 H  2.47 -0.96  0.59
 H  2.73  1.94 -0.43
 H  4.78 -0.21  0.57
 H  8.52  1.98  0.20
 H  7.19  3.19 -0.39
