18
set: 1804.00  0.00  0.00
 C  0.87  0.21  0.41
 C  2.31  0.03 -0.09
 C  3.31  0.94  0.70
 N  3.56 -0.20  1.63
 C  3.03 -1.16  0.62
 C  2.36  0.13 -1.58
 C  2.73 -0.83 -2.44
 H  0.84  0.18  1.51
 H  0.22 -0.59  0.03
 H  0.45  1.17  0.08
 H  2.89  1.84  1.18
 H  4.17  1.22  0.08
 H  4.54 -0.33  1.86
 H  3.81 -1.61 -0.02
 H  2.39 -1.95  1.04
 H  2.03  1.10 -1.98
 H  3.05 -1.82 -2.11
 H  2.71 -0.66 -3.52
