13
set: 4115.00  0.00  0.00
 C  3.25 -1.04  0.54
 O  2.40  0.09  0.28
 C  3.01  1.29  0.17
 C  2.47  2.52 -0.07
 C  3.59  3.43 -0.08
 C  4.71  2.69  0.14
 O  4.37  1.35  0.30
 H  2.57 -1.90  0.59
 H  3.79 -0.93  1.49
 H  3.97 -1.19 -0.28
 H  1.42  2.75 -0.21
 H  3.55  4.50 -0.25
 H  5.77  2.90  0.22
