13
set: 3306.00  0.00  0.00
 C  0.97  0.04  0.03
 C  2.46 -0.04  0.01
 C  3.27 -1.12 -0.08
 C  4.68 -0.69 -0.06
 O  5.70 -1.33 -0.12
 O  4.69  0.71  0.05
 C  3.34  1.18  0.10
 H  0.52 -0.96 -0.05
 H  0.60  0.66 -0.80
 H  0.62  0.51  0.96
 H  2.99 -2.16 -0.17
 H  3.17  1.88 -0.74
 H  3.18  1.73  1.04
