21
set: 2733.00  0.00  0.00
 C  0.99 -0.10 -0.06
 N  2.45 -0.01  0.02
 C  2.94  1.36 -0.03
 C  4.46  1.42 -0.01
 C  5.00  2.85 -0.00
 N  6.46  2.87  0.04
 C  7.00  4.23  0.00
 H  0.68 -1.15 -0.10
 H  0.55  0.43 -0.93
 H  0.55  0.34  0.85
 H  2.86 -0.54 -0.76
 H  2.54  1.88  0.87
 H  2.55  1.92 -0.91
 H  4.85  0.89 -0.91
 H  4.84  0.88  0.87
 H  4.63  3.37  0.90
 H  4.59  3.41 -0.87
 H  6.83  2.34 -0.75
 H  6.72  4.76  0.93
 H  6.64  4.84 -0.85
 H  8.10  4.19 -0.04
