15
set: 3421.00  0.00  0.00
 C  0.95 -0.00  0.07
 C  2.48 -0.00  0.10
 O  2.84 -0.00  1.50
 C  3.06  1.18 -0.66
 C  3.78  0.74 -1.71
 C  3.79 -0.74 -1.71
 C  3.06 -1.19 -0.67
 H  0.59 -0.00 -0.97
 H  0.57  0.89  0.58
 H  0.57 -0.90  0.58
 H  3.82 -0.00  1.54
 H  2.86  2.22 -0.38
 H  4.30  1.35 -2.45
 H  4.30 -1.35 -2.45
 H  2.87 -2.22 -0.38
