13
set: 1008.00  0.00  0.00
 C  0.87 -0.23 -0.21
 C  2.35 -0.29  0.02
 C  3.06 -1.43 -0.05
 N  3.00  0.92  0.33
 C  2.46  2.18  0.45
 O  3.13  3.18  0.72
 H  0.61  0.43 -1.05
 H  0.34  0.14  0.68
 H  0.50 -1.24 -0.43
 H  2.56 -2.37 -0.28
 H  4.14 -1.46  0.12
 H  4.01  0.89  0.48
 H  1.37  2.21  0.28
