16
set: 5107.00  0.00  0.00
 C  1.29 -0.47 -0.05
 C  2.80 -0.26  0.08
 C  3.19  1.22 -0.03
 C  4.70  1.47  0.07
 O  5.06  2.83 -0.19
 C  5.23  1.03  1.38
 N  5.62  0.72  2.43
 H  1.03 -1.54  0.03
 H  0.91 -0.11 -1.01
 H  0.74  0.06  0.75
 H  3.32 -0.83 -0.71
 H  3.15 -0.67  1.04
 H  2.68  1.80  0.76
 H  2.87  1.63 -0.99
 H  5.22  0.89 -0.70
 H  4.68  3.38  0.52
