14
set: 669.00  0.00  0.00
 C  1.01  0.02 -0.07
 C  2.52 -0.01 -0.02
 C  3.32 -0.72 -1.06
 C  3.31  0.81 -1.05
 C  4.53  1.50 -0.59
 O  4.93  2.58 -1.00
 H  0.62  0.92  0.42
 H  0.59 -0.85  0.45
 H  0.64  0.01 -1.11
 H  2.95 -0.01  0.98
 H  2.79 -1.19 -1.89
 H  4.24 -1.22 -0.76
 H  2.75  1.32 -1.83
 H  5.10  0.94  0.20
