16
set: 2968.00  0.00  0.00
 N  0.97 -0.23 -0.10
 C  2.42 -0.02 -0.02
 C  2.80  1.44  0.05
 C  1.91  2.43  0.17
 C  4.30  1.73 -0.01
 C  4.93  1.30 -1.26
 C  5.46  0.95 -2.30
 H  0.77 -1.23 -0.01
 H  0.65  0.03 -1.04
 H  3.00 -0.48 -0.84
 H  2.78 -0.51  0.91
 H  0.85  2.21  0.25
 H  2.23  3.48  0.20
 H  4.80  1.21  0.83
 H  4.47  2.80  0.13
 H  5.93  0.65 -3.21
