16
set: 1671.00  0.00  0.00
 C  0.95  0.01 -0.24
 C  2.42  0.04  0.00
 C  3.23  1.13  0.00
 C  4.67  0.75  0.16
 N  5.25 -0.10 -0.92
 C  4.68 -0.75  0.28
 C  3.23 -1.22  0.25
 H  0.71 -0.57 -1.14
 H  0.54  1.02 -0.36
 H  0.42 -0.48  0.60
 H  2.90  2.15 -0.14
 H  5.38  1.40  0.67
 H  4.57 -0.14 -1.69
 H  5.41 -1.28  0.89
 H  2.95 -1.68  1.21
 H  3.05 -1.99 -0.52
