19
set: 1182.00  0.00  0.00
 C  1.40 -0.26 -0.43
 C  2.80  0.05  0.04
 C  3.65 -1.04  0.66
 C  4.04 -0.45 -0.68
 C  5.10  0.66 -0.68
 C  4.31  1.95 -0.33
 C  3.11  1.49  0.52
 H  1.08  0.43 -1.23
 H  0.67 -0.18  0.39
 H  1.34 -1.29 -0.83
 H  3.24 -2.05  0.67
 H  4.27 -0.79  1.53
 H  3.94 -1.08 -1.56
 H  5.88  0.46  0.07
 H  5.60  0.74 -1.65
 H  4.93  2.71  0.17
 H  3.94  2.40 -1.27
 H  3.35  1.50  1.59
 H  2.24  2.14  0.38
