20
set: 5720.00  0.00  0.00
 C  2.61 -1.79  0.07
 N  3.76 -0.92 -0.14
 C  3.42  0.50 -0.08
 C  4.63  1.37 -0.37
 C  4.36  2.86 -0.24
 O  3.43  3.27 -1.24
 C  3.15  4.66 -1.16
 H  2.90 -2.84 -0.06
 H  1.75 -1.59 -0.61
 H  2.24 -1.67  1.10
 H  4.17 -1.12 -1.06
 H  3.05  0.71  0.94
 H  2.59  0.77 -0.77
 H  5.00  1.17 -1.39
 H  5.44  1.10  0.33
 H  5.31  3.43 -0.35
 H  3.96  3.10  0.77
 H  2.44  4.89 -1.96
 H  4.06  5.27 -1.29
 H  2.69  4.92 -0.18
