19
set: 3578.00  0.00  0.00
 C  0.79 -0.20 -0.08
 C  2.32 -0.16 -0.15
 C  2.84 -1.02 -1.30
 C  2.81  1.30 -0.23
 C  4.31  1.45 -0.11
 C  5.19  1.65 -1.27
 O  4.86  2.75 -0.39
 H  0.40  0.37  0.77
 H  0.42 -1.24  0.01
 H  0.35  0.22 -1.00
 H  2.71 -0.59  0.80
 H  2.49 -0.63 -2.27
 H  2.49 -2.06 -1.22
 H  3.94 -1.04 -1.33
 H  2.34  1.88  0.58
 H  2.48  1.75 -1.18
 H  4.76  0.98  0.78
 H  4.75  1.71 -2.27
 H  6.24  1.33 -1.23
