15
set: 401.00  0.00  0.00
 C  1.11 -0.34 -0.31
 C  1.74  0.49  0.53
 C  2.75  1.50  0.11
 C  2.51  3.00  0.45
 C  4.02  3.05  0.82
 N  3.98  1.57  0.96
 H  0.35 -1.05  0.05
 H  1.32 -0.34 -1.38
 H  1.52  0.46  1.60
 H  2.97  1.39 -0.97
 H  1.87  3.12  1.34
 H  2.15  3.65 -0.36
 H  4.63  3.41 -0.03
 H  4.31  3.59  1.73
 H  4.79  1.07  0.59
