15
set: 1129.00  0.00  0.00
 O  2.07 -0.43 -1.30
 C  2.28  0.08  0.03
 C  3.25  1.24 -0.06
 C  2.63  2.55 -0.63
 N  2.41  3.01  0.77
 C  3.40  2.02  1.27
 H  1.39 -1.12 -1.25
 H  2.70 -0.70  0.69
 H  1.33  0.43  0.47
 H  4.18  0.91 -0.54
 H  1.72  2.45 -1.23
 H  3.38  3.14 -1.19
 H  2.65  3.99  0.94
 H  4.42  2.42  1.40
 H  3.10  1.51  2.19
