14
set: 6407.00  0.00  0.00
 N  0.90  0.68  0.13
 C  2.23  0.62 -0.18
 O  2.74 -0.38 -0.70
 C  3.04  1.85  0.12
 C  2.53  3.09  0.05
 C  4.50  1.58  0.43
 O  5.31  2.74  0.51
 H  0.56  1.37  0.79
 H  0.37 -0.18  0.02
 H  1.49  3.27 -0.24
 H  3.16  3.96  0.25
 H  4.87  0.86 -0.31
 H  4.58  1.08  1.41
 H  5.43  3.09 -0.39
