17
set: 3227.00  0.00  0.00
 C  0.99 -0.08  0.45
 C  2.39  0.00 -0.13
 C  2.65  1.27 -0.94
 C  4.09  1.28 -1.48
 C  4.44 -0.08 -2.01
 C  3.68 -1.16 -1.76
 O  2.58 -1.18 -0.95
 H  0.83  0.74  1.16
 H  0.85 -1.04  0.97
 H  0.24 -0.01 -0.35
 H  3.14 -0.06  0.68
 H  2.45  2.15 -0.31
 H  1.94  1.30 -1.78
 H  4.79  1.59 -0.69
 H  4.19  2.04 -2.28
 H  5.31 -0.20 -2.66
 H  3.87 -2.14 -2.19
