14
set: 285.00  0.00  0.00
 C  1.05  0.07  0.27
 C  2.51 -0.21  0.02
 C  2.99 -1.44 -0.20
 C  3.43  1.00 -0.00
 C  3.43  1.76  1.25
 C  3.43  2.38  2.29
 H  0.92  0.58  1.24
 H  0.46 -0.85  0.27
 H  0.64  0.75 -0.50
 H  2.33 -2.31 -0.21
 H  4.05 -1.61 -0.38
 H  3.12  1.68 -0.82
 H  4.46  0.68 -0.24
 H  3.43  2.94  3.21
