14
set: 4969.00  0.00  0.00
 C  1.82 -0.29 -1.30
 C  2.34  0.13 -0.14
 C  3.43  1.13  0.02
 N  3.90  1.98 -1.07
 C  3.07  2.61  0.00
 C  3.81  3.52  0.91
 O  3.27  4.38  1.59
 H  1.02 -1.02 -1.32
 H  2.18  0.08 -2.26
 H  1.98 -0.30  0.80
 H  4.23  0.84  0.71
 H  3.30  1.86 -1.90
 H  2.03  2.85 -0.19
 H  4.91  3.35  0.94
