19
set: 2929.00  0.00  0.00
 N  1.96 -0.55 -1.29
 C  2.28  0.03  0.02
 C  3.12  1.30 -0.12
 N  4.31  0.98 -0.92
 C  2.36  2.61 -0.54
 C  3.08  3.37  0.61
 C  3.50  2.00  1.21
 H  1.18 -1.20 -1.21
 H  2.76 -1.11 -1.61
 H  2.83 -0.67  0.69
 H  1.33  0.29  0.52
 H  4.96  1.77 -0.91
 H  4.02  0.86 -1.89
 H  1.27  2.53 -0.37
 H  2.52  2.96 -1.56
 H  3.94  3.96  0.25
 H  2.46  4.02  1.24
 H  4.55  1.88  1.53
 H  2.85  1.69  2.04
