17
set: 1172.00  0.00  0.00
 C -1.74  0.95  0.33
 C -1.40 -0.40 -0.27
 C -0.42 -1.39  0.46
 C  0.90 -0.87 -0.13
 C  2.12 -0.00  0.03
 C  0.73  0.63  0.09
 C -0.59  0.88 -0.64
 H -2.67  1.41 -0.00
 H -1.51  1.14  1.38
 H -2.12 -0.82 -0.97
 H -0.47 -1.29  1.56
 H -0.65 -2.43  0.20
 H  0.82 -1.05 -1.21
 H  2.68  0.11  0.96
 H  2.75  0.02 -0.87
 H  0.56  0.82  1.16
 H -0.67  1.35 -1.63
