14
set: 4919.00  0.00  0.00
 C  1.02  0.17 -0.02
 C  2.53 -0.02  0.12
 O  3.26  1.19 -0.21
 C  3.67  1.14 -1.55
 O  4.59  0.08 -1.81
 N  4.06 -1.19 -1.49
 C  3.08 -1.19 -0.66
 H  0.70  1.00  0.62
 H  0.49 -0.74  0.29
 H  0.74  0.39 -1.06
 H  2.78 -0.21  1.18
 H  4.21  2.07 -1.78
 H  2.80  1.00 -2.23
 H  2.67 -2.18 -0.44
