18
set: 2201.00  0.00  0.00
 C  0.97 -0.11  0.01
 C  2.51 -0.04  0.02
 C  3.01  1.34  0.01
 C  3.40  2.49 -0.02
 C  3.87  3.87 -0.03
 N  2.77  4.83 -0.20
 C  3.23  6.21 -0.02
 H  0.64 -1.16  0.01
 H  0.56  0.38 -0.88
 H  0.55  0.38  0.90
 H  2.91 -0.58 -0.85
 H  2.90 -0.56  0.91
 H  4.58  4.01 -0.86
 H  4.46  4.05  0.90
 H  2.05  4.61  0.49
 H  3.91  6.47 -0.84
 H  3.76  6.39  0.94
 H  2.36  6.88 -0.07
