19
set: 1309.00  0.00  0.00
 C  0.82  0.63  0.94
 C  1.73  0.73 -0.28
 C  3.11  1.25  0.05
 C  3.95  1.93 -0.99
 C  3.35  2.75  0.14
 C  4.22  3.30  1.20
 C  4.03  4.47  1.83
 H -0.18  0.25  0.67
 H  0.69  1.61  1.42
 H  1.24 -0.05  1.70
 H  1.27  1.38 -1.04
 H  1.82 -0.27 -0.76
 H  3.66  0.65  0.78
 H  3.53  2.07 -1.99
 H  5.03  1.77 -0.98
 H  2.49  3.38 -0.13
 H  5.08  2.68  1.48
 H  3.18  5.12  1.58
 H  4.71  4.82  2.61
