14
set: 6157.00  0.00  0.00
 N  0.98  0.03 -0.03
 C  2.44 -0.01  0.01
 C  3.01  1.09  0.92
 O  4.27  0.58  1.42
 C  4.28 -0.80  1.34
 O  5.21 -1.46  1.74
 C  2.99 -1.27  0.68
 H  0.62 -0.75 -0.59
 H  0.66  0.88 -0.51
 H  2.92  0.09 -0.99
 H  2.32  1.27  1.76
 H  3.22  2.03  0.40
 H  3.18 -2.12  0.02
 H  2.30 -1.59  1.48
