20
set: 2373.00  0.00  0.00
 C  3.34 -1.27  0.03
 C  2.60 -0.12  0.72
 C  3.06  1.29  0.29
 N  2.21  2.38  0.83
 C  4.49  1.54  0.69
 C  5.51  1.75 -0.15
 C  6.93  1.98  0.26
 H  2.96 -2.25  0.35
 H  4.42 -1.24  0.25
 H  3.23 -1.21 -1.07
 H  2.70 -0.21  1.81
 H  1.52 -0.20  0.50
 H  2.99  1.35 -0.81
 H  2.31  2.41  1.85
 H  1.23  2.16  0.65
 H  4.68  1.54  1.77
 H  5.30  1.76 -1.23
 H  7.05  1.96  1.35
 H  7.29  2.96 -0.10
 H  7.60  1.23 -0.18
