14
set: 6106.00  0.00  0.00
 N  0.97  0.05  0.04
 C  2.42  0.13  0.00
 C  3.05  1.22  0.88
 C  4.41  0.60  1.22
 O  4.19 -0.84  1.25
 C  3.04 -1.14  0.58
 O  2.61 -2.27  0.48
 H  0.70 -0.93 -0.11
 H  0.55  0.59 -0.72
 H  2.84  0.21 -1.03
 H  2.44  1.34  1.78
 H  3.15  2.19  0.38
 H  5.17  0.81  0.45
 H  4.80  0.89  2.20
