16
set: 1951.00  0.00  0.00
 C  1.05 -0.15 -0.36
 C  2.39 -0.02 -0.34
 C  3.10  1.24 -0.24
 C  4.44  1.41 -0.17
 C  4.80  2.86  0.01
 N  3.53  3.60 -0.21
 C  2.44  2.60 -0.10
 H  0.59 -1.13 -0.43
 H  0.38  0.71 -0.29
 H  3.02 -0.91 -0.41
 H  5.18  0.60 -0.17
 H  5.18  3.04  1.04
 H  5.58  3.21 -0.68
 H  3.54  3.95 -1.16
 H  1.67  2.79 -0.87
 H  1.93  2.68  0.88
