13
set: 7051.00  0.00  0.00
 C  2.98 -1.30  0.24
 C  2.61 -0.15 -0.64
 O  1.88 -0.14 -1.59
 S  3.47  1.47 -0.11
 C  2.85  2.64 -1.32
 O  2.93  1.83  1.22
 O  4.92  1.28 -0.32
 H  4.07 -1.44  0.21
 H  2.46 -2.20 -0.08
 H  2.72 -1.06  1.29
 H  3.13  2.30 -2.32
 H  3.34  3.59 -1.07
 H  1.76  2.72 -1.21
