14
set: 117.00  0.00  0.00
 C  1.21  0.29  0.13
 C  2.67  0.06 -0.21
 N  3.42  1.32 -0.21
 C  3.97  1.73  1.08
 C  4.86  1.21  0.00
 H  0.65 -0.65  0.10
 H  0.75  0.99 -0.59
 H  1.09  0.72  1.14
 H  2.77 -0.38 -1.22
 H  3.12 -0.67  0.50
 H  3.80  1.06  1.94
 H  3.94  2.80  1.30
 H  5.49  1.89 -0.58
 H  5.28  0.20  0.14
