16
set: 6043.00  0.00  0.00
 C  4.04 -1.80 -0.51
 O  5.11 -1.02  0.01
 N  5.25  0.13 -0.82
 C  6.17  0.91 -0.35
 C  6.99  0.69  0.88
 O  6.47  2.06 -1.01
 C  5.72  2.31 -2.21
 H  3.97 -2.68  0.14
 H  4.25 -2.12 -1.55
 H  3.09 -1.25 -0.49
 H  6.34  0.43  1.73
 H  7.57  1.60  1.11
 H  7.68 -0.15  0.74
 H  6.09  3.26 -2.60
 H  4.64  2.37 -1.99
 H  5.88  1.50 -2.95
