17
set: 4084.00  0.00  0.00
 C  2.20  0.60  2.08
 C  2.27  0.91  0.59
 O  3.03  2.13  0.34
 C  4.38  1.98  0.19
 O  4.96  0.91  0.26
 C  5.03  3.32 -0.07
 C  6.55  3.24 -0.18
 H  1.56 -0.28  2.24
 H  1.78  1.45  2.64
 H  3.20  0.37  2.48
 H  1.28  1.12  0.18
 H  2.74  0.09  0.04
 H  4.72  4.01  0.74
 H  4.58  3.73 -0.99
 H  6.99  2.85  0.75
 H  6.98  4.23 -0.37
 H  6.85  2.57 -0.99
