17
set: 3307.00  0.00  0.00
 C  0.76 -0.07 -0.52
 C  2.18 -0.12  0.00
 C  3.23 -0.75 -0.82
 O  3.12  0.69 -0.76
 C  2.40 -0.06  1.49
 C  1.50  0.73  2.42
 C  1.51 -0.78  2.48
 H  0.77 -0.13 -1.62
 H  0.27  0.87 -0.24
 H  0.16 -0.91 -0.14
 H  2.96 -1.20 -1.79
 H  4.12 -1.17 -0.34
 H  3.47 -0.03  1.74
 H  0.62  1.21  2.00
 H  1.98  1.28  3.23
 H  1.99 -1.27  3.33
 H  0.64 -1.31  2.09
