13
set: 6028.00  0.00  0.00
 C  1.73 -0.73 -0.23
 O  3.15 -0.49 -0.13
 N  3.37  0.88 -0.17
 C  4.65  1.14 -0.09
 C  5.74  0.12  0.03
 C  4.98  2.53 -0.13
 N  5.34  3.64 -0.15
 H  1.62 -1.81 -0.19
 H  1.34 -0.34 -1.18
 H  1.20 -0.26  0.61
 H  5.68 -0.61 -0.80
 H  5.62 -0.45  0.96
 H  6.73  0.59  0.02
