19
set: 2539.00  0.00  0.00
 C  1.15  0.63 -0.66
 C  2.42  1.39 -0.29
 N  3.61  0.58 -0.57
 C  4.87  1.12 -0.48
 N  5.09  2.38 -0.33
 C  6.48  2.81 -0.33
 C  6.83  3.56  0.95
 H  0.26  1.24 -0.45
 H  1.05 -0.30 -0.06
 H  1.15  0.35 -1.72
 H  2.40  1.69  0.77
 H  2.51  2.31 -0.87
 H  3.53 -0.41 -0.40
 H  5.67  0.37 -0.59
 H  6.63  3.48 -1.19
 H  7.18  1.95 -0.47
 H  6.15  4.41  1.09
 H  7.86  3.94  0.91
 H  6.74  2.91  1.83
