15
set: 1776.00  0.00  0.00
 C  0.92  0.03  0.11
 C  2.42 -0.00  0.03
 C  3.26  1.11 -0.04
 N  3.05  2.51 -0.06
 N  4.56  0.64 -0.10
 C  4.57 -0.74 -0.07
 C  3.25 -1.16  0.01
 H  0.55  1.07  0.16
 H  0.55 -0.50  1.00
 H  0.45 -0.44 -0.77
 H  2.59  2.84  0.79
 H  2.46  2.79 -0.86
 H  5.36  1.25 -0.16
 H  5.50 -1.30 -0.10
 H  2.92 -2.19  0.05
