15
set: 3415.00  0.00  0.00
 C  0.94  0.06  0.25
 C  2.39 -0.08 -0.19
 O  3.28  0.95  0.34
 C  4.15 -0.01  1.02
 C  5.59  0.01  0.55
 C  3.25 -1.14  0.51
 O  3.23 -2.34  0.62
 H  0.36 -0.80 -0.12
 H  0.51  0.98 -0.15
 H  0.87  0.08  1.35
 H  2.46 -0.14 -1.29
 H  4.09  0.13  2.12
 H  5.66 -0.15 -0.53
 H  6.16 -0.78  1.06
 H  6.06  0.98  0.79
