20
set: 2494.00  0.00  0.00
 C  0.97 -0.04 -0.17
 C  2.49 -0.01 -0.07
 N  3.00  1.36 -0.11
 C  4.46  1.44  0.06
 C  4.93  2.87  0.04
 C  5.60  3.46  1.03
 C  6.09  4.88  1.02
 H  0.60 -1.07 -0.18
 H  0.64  0.47 -1.09
 H  0.51  0.48  0.68
 H  2.93 -0.55 -0.93
 H  2.82 -0.56  0.84
 H  2.56  1.91  0.63
 H  4.91  0.89 -0.78
 H  4.81  0.95  1.00
 H  4.67  3.43 -0.86
 H  5.83  2.87  1.93
 H  5.81  5.40  0.09
 H  7.18  4.92  1.13
 H  5.67  5.44  1.87
