17
set: 3468.00  0.00  0.00
 C  2.49 -0.45  1.50
 C  2.65  0.00  0.04
 C  3.20  1.38 -0.10
 C  4.35  1.82 -0.64
 C  4.46  3.32 -0.43
 C  3.04  3.65  0.07
 O  2.42  2.38  0.45
 H  2.06 -1.46  1.54
 H  1.83  0.23  2.05
 H  3.47 -0.47  2.01
 H  1.66 -0.03 -0.46
 H  3.31 -0.69 -0.51
 H  5.11  1.20 -1.10
 H  5.23  3.56  0.33
 H  4.72  3.88 -1.34
 H  2.42  4.08 -0.74
 H  3.01  4.32  0.94
