14
set: 567.00  0.00  0.00
 C  0.91  0.09  0.07
 N  2.36  0.03 -0.05
 C  2.77 -0.73 -1.24
 C  2.92  1.38 -0.06
 C  4.38  1.39  0.01
 N  5.55  1.41  0.05
 H  0.63  0.61  1.00
 H  0.51 -0.93  0.13
 H  0.42  0.60 -0.79
 H  2.38 -1.75 -1.16
 H  3.87 -0.79 -1.29
 H  2.40 -0.28 -2.18
 H  2.54  1.93  0.81
 H  2.62  1.97 -0.97
