16
set: 5243.00  0.00  0.00
 C  1.86 -0.93  0.60
 C  3.23 -0.30  0.39
 C  3.17  1.21  0.14
 O  2.62  1.93  1.24
 C  4.56  1.81 -0.21
 C  5.11  1.29 -1.46
 N  5.53  0.86 -2.46
 H  1.95 -2.01  0.82
 H  1.23 -0.83 -0.30
 H  1.33 -0.46  1.44
 H  3.74 -0.77 -0.47
 H  3.88 -0.48  1.26
 H  2.49  1.42 -0.70
 H  3.06  1.62  2.05
 H  5.28  1.60  0.60
 H  4.46  2.90 -0.29
