13
set: 1048.00  0.00  0.00
 C  1.11 -0.06  0.33
 C  2.61 -0.22  0.16
 O  3.17 -1.31  0.15
 N  3.31  0.98  0.04
 C  4.70  1.04 -0.09
 C  5.40  2.17 -0.20
 H  0.74  0.94  0.09
 H  0.85 -0.29  1.38
 H  0.60 -0.80 -0.30
 H  2.78  1.85  0.05
 H  5.16  0.05 -0.08
 H  4.93  3.16 -0.21
 H  6.48  2.13 -0.29
