15
set: 6287.00  0.00  0.00
 N  2.86 -0.53  1.27
 C  2.38  0.11  0.04
 C  2.81  1.56 -0.05
 C  1.90  2.55 -0.08
 N  4.18  1.84 -0.12
 C  5.25  0.97 -0.10
 O  6.41  1.35 -0.22
 H  2.57 -1.51  1.29
 H  2.42 -0.08  2.08
 H  1.29  0.09 -0.10
 H  2.81 -0.44 -0.82
 H  0.83  2.32 -0.04
 H  2.19  3.60 -0.16
 H  4.45  2.82 -0.21
 H  4.96 -0.08  0.06
