20
set: 2592.00  0.00  0.00
 C  1.01 -0.03  0.01
 N  2.45 -0.05  0.13
 C  3.11  1.00  0.94
 C  4.16 -0.04  1.38
 C  3.15 -1.13  0.90
 C  2.35 -1.71  2.08
 C  3.69 -2.24  0.01
 H  0.66 -0.93 -0.52
 H  0.71  0.84 -0.60
 H  0.47  0.04  0.98
 H  2.49  1.35  1.79
 H  3.45  1.88  0.37
 H  5.07 -0.02  0.76
 H  4.44 -0.06  2.44
 H  1.96 -0.93  2.74
 H  2.99 -2.37  2.68
 H  1.50 -2.32  1.72
 H  4.26 -1.81 -0.83
 H  2.87 -2.84 -0.41
 H  4.35 -2.92  0.57
