15
set: 4532.00  0.00  0.00
 O  2.10  0.10 -0.81
 C  1.96  0.95  0.04
 O  2.94  1.65  0.66
 C  4.30  1.33  0.26
 C  5.35  2.31  0.78
 C  6.28  1.09  1.02
 C  5.02  0.18  1.00
 H  0.98  1.29  0.43
 H  4.32  1.19 -0.83
 H  5.02  2.76  1.73
 H  5.69  3.11  0.10
 H  6.94  0.90  0.16
 H  6.89  1.09  1.94
 H  5.07 -0.79  0.50
 H  4.60  0.06  2.01
