17
set: 590.00  0.00  0.00
 N  1.00  0.02 -0.10
 C  2.46 -0.01  0.03
 C  3.00  1.13  0.90
 C  4.43  0.68  1.26
 C  4.36 -0.88  1.31
 C  2.96 -1.25  0.78
 H  0.69 -0.77 -0.66
 H  0.71  0.86 -0.61
 H  2.98  0.04 -0.96
 H  2.37  1.20  1.80
 H  2.98  2.11  0.40
 H  5.13  1.00  0.48
 H  4.78  1.12  2.20
 H  5.16 -1.32  0.69
 H  4.51 -1.26  2.33
 H  2.97 -2.16  0.14
 H  2.26 -1.44  1.61
