16
set: 2001.00  0.00  0.00
 C  3.01 -1.20 -0.52
 C  2.45  0.04  0.18
 C  3.47  1.16  0.28
 N  3.78  2.03 -0.87
 C  3.04  2.59  0.30
 C  3.71  3.59  1.10
 C  4.24  4.42  1.80
 H  2.25 -1.99 -0.58
 H  3.87 -1.61  0.02
 H  3.33 -0.97 -1.55
 H  2.12 -0.22  1.20
 H  1.56  0.42 -0.36
 H  4.37  0.92  0.87
 H  3.09  1.85 -1.61
 H  1.96  2.76  0.18
 H  4.73  5.16  2.40
