14
set: 643.00  0.00  0.00
 N  0.74  1.10 -0.43
 N  2.04  0.63 -0.36
 C  2.99  1.48 -0.51
 C  4.40  1.08 -0.36
 C  5.47  1.73 -1.23
 C  5.40  2.07  0.23
 H  0.13  0.35 -0.74
 H  0.62  1.94 -1.02
 H  2.79  2.54 -0.76
 H  4.54  0.03 -0.11
 H  5.13  2.49 -1.95
 H  6.28  1.10 -1.59
 H  6.17  1.66  0.89
 H  5.03  3.05  0.52
