17
set: 1293.00  0.00  0.00
 C  0.93 -0.00  0.06
 C  2.48  0.00  0.09
 C  2.98  0.00  1.55
 C  3.04  1.18 -0.69
 C  3.79  0.73 -1.72
 C  3.79 -0.74 -1.72
 C  3.04 -1.18 -0.68
 H  0.56 -0.00 -0.98
 H  0.53  0.89  0.57
 H  0.54 -0.89  0.57
 H  4.08  0.00  1.58
 H  2.62 -0.89  2.09
 H  2.62  0.89  2.08
 H  2.84  2.21 -0.42
 H  4.32  1.35 -2.45
 H  4.32 -1.36 -2.44
 H  2.84 -2.21 -0.41
