19
set: 3968.00  0.00  0.00
 C  1.14 -0.43 -0.24
 C  2.63 -0.27 -0.53
 O  2.85  0.06 -1.92
 C  3.31  0.73  0.40
 C  4.81  0.81  0.22
 C  5.68  1.35  1.33
 C  5.71 -0.13  1.00
 H  0.97 -0.79  0.79
 H  0.68 -1.14 -0.94
 H  0.62  0.54 -0.34
 H  3.13 -1.25 -0.42
 H  2.38  0.90 -2.09
 H  3.08  0.46  1.45
 H  2.86  1.73  0.24
 H  5.13  1.03 -0.80
 H  5.20  1.65  2.26
 H  6.55  1.96  1.05
 H  6.60 -0.53  0.50
 H  5.25 -0.81  1.71
