17
set: 4322.00  0.00  0.00
 O  1.09  0.04 -0.26
 C  2.49  0.01 -0.04
 C  2.95  1.18  0.83
 C  4.32  0.71  1.42
 C  4.40 -0.82  1.16
 C  2.98 -1.22  0.74
 O  2.86 -2.45  0.02
 H  0.85 -0.82 -0.65
 H  3.03  0.03 -1.02
 H  2.20  1.32  1.62
 H  3.02  2.12  0.27
 H  5.16  1.24  0.95
 H  4.37  0.94  2.49
 H  5.09 -1.03  0.32
 H  4.76 -1.39  2.02
 H  2.33 -1.34  1.62
 H  3.52 -2.45 -0.69
