17
set: 1238.00  0.00  0.00
 C  1.13  1.21 -0.31
 C -0.19  1.58  0.39
 C -1.40  0.83 -0.11
 C -1.53 -0.50 -0.20
 C -0.54 -1.58  0.17
 C  0.94 -1.31  0.15
 C  1.63 -0.19 -0.07
 H  1.91  1.92  0.02
 H  1.03  1.38 -1.40
 H -0.06  1.41  1.47
 H -0.36  2.66  0.27
 H -2.26  1.44 -0.40
 H -2.50 -0.88 -0.55
 H -0.72 -2.44 -0.50
 H -0.82 -1.97  1.17
 H  1.53 -2.22  0.33
 H  2.73 -0.29 -0.06
