14
set: 564.00  0.00  0.00
 C  1.01  0.01  0.01
 N  2.47  0.01 -0.05
 C  3.12 -1.22 -0.10
 C  2.54 -2.43 -0.10
 C  3.16  1.22 -0.06
 N  4.41  1.48 -0.12
 H  0.66  1.05  0.05
 H  0.66 -0.51  0.91
 H  0.58 -0.48 -0.88
 H  4.21 -1.14 -0.15
 H  1.46 -2.58 -0.06
 H  3.16 -3.32 -0.15
 H  2.46  2.07 -0.02
 H  5.00  0.64 -0.16
