15
set: 3173.00  0.00  0.00
 C  0.99 -0.09  0.31
 C  2.42  0.07 -0.05
 C  3.16  1.16 -0.33
 C  4.58  0.75 -0.55
 C  5.24  0.06  0.63
 C  4.50 -0.76 -0.38
 O  3.15 -1.12 -0.11
 H  0.50 -0.80 -0.38
 H  0.47  0.87  0.25
 H  0.88 -0.49  1.33
 H  2.78  2.18 -0.38
 H  5.19  1.24 -1.31
 H  6.33 -0.03  0.62
 H  4.80  0.21  1.62
 H  5.01 -1.49 -1.01
