15
set: 3911.00  0.00  0.00
 C  0.03  0.92 -0.28
 C  1.32  0.23  0.05
 C  2.46  0.47 -0.62
 O  3.70 -0.09 -0.43
 C  3.80 -1.05  0.62
 C  5.23 -1.55  0.66
 O  5.62 -2.38  1.46
 H -0.75  0.20 -0.56
 H  0.16  1.63 -1.12
 H -0.35  1.49  0.58
 H  1.30 -0.49  0.87
 H  2.51  1.18 -1.45
 H  3.12 -1.91  0.45
 H  3.53 -0.61  1.60
 H  5.91 -1.09 -0.10
