19
set: 1245.00  0.00  0.00
 C  0.99 -0.19  0.02
 C  2.50 -0.08 -0.04
 C  3.25 -0.59 -1.25
 C  3.16  0.90 -0.99
 C  4.39  1.68 -0.56
 C  5.24  2.10 -1.73
 C  5.57  3.37 -2.03
 H  0.56  0.57  0.69
 H  0.68 -1.18  0.39
 H  0.54 -0.05 -0.97
 H  3.01 -0.21  0.91
 H  2.67 -1.01 -2.07
 H  4.22 -1.07 -1.09
 H  2.48  1.45 -1.65
 H  4.99  1.05  0.11
 H  4.09  2.57  0.02
 H  5.60  1.29 -2.38
 H  5.23  4.20 -1.41
 H  6.19  3.61 -2.89
