19
set: 3630.00  0.00  0.00
 C  0.94 -0.13  0.17
 C  2.45 -0.07  0.06
 C  3.07 -1.44  0.09
 C  3.14  1.09 -0.03
 C  2.51  2.46 -0.10
 C  4.65  1.15 -0.10
 O  5.13  1.55 -1.40
 H  0.46  0.85  0.24
 H  0.65 -0.72  1.05
 H  0.51 -0.66 -0.70
 H  2.60 -2.09 -0.67
 H  2.89 -1.93  1.06
 H  4.15 -1.45 -0.09
 H  1.46  2.45 -0.41
 H  3.06  3.09 -0.82
 H  2.57  2.97  0.88
 H  5.12  0.20  0.21
 H  5.02  1.93  0.59
 H  4.73  0.94 -2.04
