20
set: 2262.00  0.00  0.00
 C  0.97 -0.07  0.06
 C  2.51 -0.09  0.03
 C  3.05 -0.66  1.35
 C  2.99 -0.96 -1.17
 N  2.54 -2.36 -1.06
 C  3.00  1.32 -0.24
 C  3.84  2.05  0.51
 H  0.56  0.40 -0.84
 H  0.60  0.49  0.93
 H  0.58 -1.10  0.11
 H  2.76 -0.04  2.20
 H  4.15 -0.73  1.34
 H  2.64 -1.67  1.52
 H  4.09 -0.85 -1.24
 H  2.57 -0.54 -2.09
 H  3.16 -2.88 -0.44
 H  2.61 -2.81 -1.98
 H  2.60  1.77 -1.15
 H  4.27  1.68  1.44
 H  4.12  3.06  0.21
