20
set: 1757.00  0.00  0.00
 C  0.96  0.04  0.18
 C  2.48  0.01  0.01
 C  2.99 -1.33 -0.55
 C  2.71 -1.48 -2.05
 N  3.20 -0.37 -2.87
 C  2.72  0.92 -2.37
 C  3.00  1.16 -0.87
 H  0.63  0.99  0.61
 H  0.62 -0.77  0.84
 H  0.43 -0.09 -0.78
 H  2.92  0.14  1.02
 H  2.54 -2.17  0.01
 H  4.08 -1.40 -0.39
 H  3.16 -2.42 -2.43
 H  1.63 -1.57 -2.23
 H  4.23 -0.37 -2.85
 H  3.17  1.72 -2.97
 H  1.63  0.97 -2.56
 H  4.09  1.26 -0.74
 H  2.55  2.12 -0.55
