18
set: 5868.00  0.00  0.00
 C  2.01 -0.46 -1.05
 O  1.81  0.64 -0.17
 C  3.00  1.34  0.09
 C  3.52  2.35 -0.92
 C  2.94  2.82  0.40
 C  1.60  3.51  0.41
 N  3.87  3.41  1.35
 H  1.03 -0.92 -1.21
 H  2.70 -1.20 -0.62
 H  2.42 -0.12 -2.02
 H  3.75  0.75  0.64
 H  2.91  2.52 -1.81
 H  4.60  2.43 -1.08
 H  0.90  3.03 -0.28
 H  1.72  4.57  0.13
 H  1.15  3.48  1.41
 H  4.80  2.97  1.27
 H  3.55  3.23  2.31
