14
set: 6417.00  0.00  0.00
 N -0.24  1.20  0.86
 C  0.85  1.60  0.14
 O  0.94  2.67 -0.46
 C  2.02  0.61  0.11
 O  1.71 -0.58  0.85
 C  2.70 -1.52  0.92
 C  3.93 -1.47  0.38
 H -0.25  0.30  1.32
 H -1.04  1.82  0.90
 H  2.90  1.12  0.54
 H  2.24  0.37 -0.94
 H  2.35 -2.37  1.50
 H  4.30 -0.63 -0.21
 H  4.59 -2.31  0.53
