18
set: 2899.00  0.00  0.00
 N  2.37 -0.45  1.49
 C  2.55 -0.01  0.08
 C  3.05  1.40  0.00
 C  4.19  1.82 -0.57
 C  4.37  3.32 -0.45
 C  2.98  3.81  0.01
 C  2.28  2.56  0.61
 H  2.02 -1.41  1.50
 H  1.64  0.11  1.93
 H  1.61 -0.09 -0.52
 H  3.28 -0.68 -0.39
 H  4.92  1.16 -1.03
 H  5.15  3.54  0.30
 H  4.70  3.79 -1.38
 H  2.41  4.15 -0.87
 H  3.03  4.65  0.71
 H  1.20  2.53  0.38
 H  2.37  2.54  1.71
