19
set: 3763.00  0.00  0.00
 C  1.18  0.18  0.33
 C  2.64  0.28 -0.12
 C  2.82 -0.31 -1.54
 C  4.27 -0.38 -2.00
 O  4.41 -0.90 -3.33
 C  3.11  1.71 -0.06
 C  4.07  2.18  0.74
 H  1.05  0.55  1.35
 H  0.83 -0.87  0.29
 H  0.52  0.77 -0.33
 H  3.26 -0.31  0.57
 H  2.25  0.29 -2.27
 H  2.38 -1.32 -1.56
 H  4.87 -0.98 -1.28
 H  4.72  0.62 -2.03
 H  4.06 -1.81 -3.33
 H  2.59  2.41 -0.73
 H  4.62  1.53  1.42
 H  4.35  3.24  0.74
