17
set: 4242.00  0.00  0.00
 C  2.65 -1.51  0.55
 O  3.32 -0.25  0.58
 C  2.80  0.65 -0.38
 C  3.58  1.95 -0.25
 O  3.05  2.86 -1.21
 C  3.63  4.10 -1.26
 C  4.63  4.57 -0.50
 H  3.12 -2.14  1.31
 H  2.75 -1.99 -0.44
 H  1.57 -1.39  0.78
 H  1.72  0.85 -0.19
 H  2.90  0.25 -1.40
 H  4.65  1.77 -0.44
 H  3.48  2.36  0.77
 H  3.15  4.70 -2.03
 H  5.13  3.99  0.27
 H  4.97  5.59 -0.67
