15
set: 3362.00  0.00  0.00
 C  1.06 -0.03  0.17
 C  2.54  0.01  0.01
 C  3.24  1.07 -0.45
 O  4.62  1.13 -0.54
 C  5.24  0.06  0.19
 C  4.52 -1.25 -0.08
 O  3.16 -1.18  0.37
 H  0.61 -0.82 -0.45
 H  0.61  0.93 -0.10
 H  0.79 -0.24  1.22
 H  2.75  1.99 -0.78
 H  6.28  0.02 -0.15
 H  5.21  0.29  1.27
 H  4.99 -2.08  0.47
 H  4.53 -1.47 -1.16
