15
set: 3308.00  0.00  0.00
 C  0.77 -0.05 -0.45
 C  2.21 -0.07 -0.01
 C  3.23 -0.77 -0.81
 O  3.14  0.66 -0.85
 C  2.50  0.12  1.46
 C  1.57  0.75  2.40
 O  1.74 -0.68  2.39
 H  0.69 -0.31 -1.52
 H  0.33  0.96 -0.32
 H  0.18 -0.77  0.13
 H  2.92 -1.29 -1.72
 H  4.12 -1.17 -0.32
 H  3.57  0.17  1.68
 H  0.59  1.11  2.05
 H  1.97  1.26  3.29
