17
set: 3222.00  0.00  0.00
 C  1.14  0.16 -0.34
 C  2.54 -0.07  0.23
 C  3.18 -1.39 -0.24
 C  3.74 -1.25 -1.63
 C  3.97 -0.04 -2.17
 C  3.71  1.23 -1.42
 O  3.43  1.03 -0.03
 H  0.77  1.15 -0.05
 H  0.45 -0.60  0.05
 H  1.13  0.08 -1.44
 H  2.47 -0.08  1.33
 H  2.42 -2.20 -0.22
 H  3.97 -1.69  0.46
 H  3.96 -2.16 -2.20
 H  4.36  0.05 -3.19
 H  4.59  1.88 -1.45
 H  2.88  1.79 -1.91
