15
set: 556.00  0.00  0.00
 C  1.06 -0.16 -0.22
 N  2.45  0.01  0.22
 C  2.95  1.39  0.04
 C  2.44  2.31  1.17
 C  4.41  1.38 -0.01
 C  5.63  1.37 -0.05
 H  0.81 -1.22 -0.19
 H  0.86  0.23 -1.24
 H  0.38  0.36  0.48
 H  3.05 -0.61 -0.33
 H  2.60  1.82 -0.92
 H  2.79  1.92  2.14
 H  1.35  2.34  1.17
 H  2.82  3.33  1.03
 H  6.70  1.36 -0.09
