13
set: 5833.00  0.00  0.00
 C  5.53 -0.89 -0.24
 N  5.34  0.23 -0.84
 N  4.66  1.15  0.00
 C  4.49  2.28 -0.59
 C  3.83  3.42  0.13
 C  4.87  4.39  0.69
 O  4.92  5.57  0.42
 H  6.04 -1.68 -0.80
 H  5.20 -1.08  0.79
 H  4.87  2.44 -1.61
 H  3.27  3.01  0.98
 H  3.16  3.98 -0.54
 H  5.60  3.92  1.40
