19
set: 2406.00  0.00  0.00
 C  1.49 -0.79  0.98
 C  2.42 -0.28 -0.11
 C  3.22 -1.41 -0.76
 N  1.68  0.53 -1.11
 C  2.42  1.50 -1.89
 N  0.63 -0.12 -1.66
 C  0.11  0.28 -2.77
 H  0.95  0.04  1.46
 H  2.06 -1.32  1.75
 H  0.74 -1.48  0.56
 H  3.13  0.44  0.35
 H  2.54 -2.13 -1.24
 H  3.82 -1.95 -0.01
 H  3.92 -1.03 -1.53
 H  3.27  1.86 -1.30
 H  1.78  2.37 -2.12
 H  2.78  1.09 -2.85
 H -0.77 -0.27 -3.12
 H  0.46  1.13 -3.37
