16
set: 4940.00  0.00  0.00
 C  1.39 -0.54 -0.47
 C  2.16  0.70 -0.95
 C  2.40  1.68  0.17
 C  3.62  1.60  1.06
 N  3.50  2.63  0.04
 C  3.41  3.99  0.33
 O  4.07  4.57  1.18
 H  1.22 -1.24 -1.31
 H  0.41 -0.27 -0.06
 H  1.94 -1.08  0.31
 H  1.60  1.20 -1.75
 H  3.13  0.41 -1.38
 H  1.50  2.07  0.66
 H  4.36  0.83  0.86
 H  3.54  1.93  2.10
 H  2.71  4.51 -0.35
