13
set: 3266.00  0.00  0.00
 C  0.87 -0.03 -0.01
 C  2.36 -0.00 -0.00
 C  3.18  1.09 -0.00
 O  2.88  2.42 -0.01
 O  4.50  0.76 -0.00
 C  4.55 -0.63  0.00
 C  3.28 -1.12  0.00
 H  0.46  0.99  0.00
 H  0.47 -0.55  0.88
 H  0.47 -0.54 -0.90
 H  3.71  2.92 -0.01
 H  5.54 -1.06  0.00
 H  3.00 -2.17  0.00
