15
set: 3135.00  0.00  0.00
 C -0.46  1.45 -0.48
 O -1.32  0.59  0.24
 C -1.33 -0.77 -0.22
 C -0.23 -1.62  0.34
 C  1.06 -1.23  0.44
 C  1.64  0.03 -0.01
 C  1.01  1.15 -0.44
 H -0.62  2.44 -0.02
 H -0.78  1.55 -1.54
 H -1.31 -0.80 -1.33
 H -2.31 -1.17  0.09
 H -0.51 -2.61  0.71
 H  1.77 -1.94  0.87
 H  2.73  0.05 -0.02
 H  1.63  1.98 -0.79
