15
set: 4437.00  0.00  0.00
 O  2.46 -1.37  1.14
 C  2.14 -0.20  1.28
 C  2.98  0.98  0.87
 C  4.33  0.61  0.27
 C  5.31  1.78  0.03
 O  6.21  1.30  1.07
 C  5.40  0.11  1.27
 H  1.15  0.07  1.73
 H  3.10  1.63  1.76
 H  2.38  1.58  0.17
 H  4.19 -0.05 -0.59
 H  4.93  2.79  0.25
 H  5.80  1.78 -0.96
 H  5.93 -0.80  0.96
 H  5.08  0.01  2.32
