22
set: 2189.00  0.00  0.00
 C  0.93  1.54  0.96
 C  2.44  1.69  1.19
 C  3.25  1.20 -0.01
 C  4.78  1.47  0.04
 C  5.41  0.84  1.29
 C  5.43  0.86 -1.22
 N  4.98  2.94  0.12
 H  0.36  1.89  1.84
 H  0.65  0.49  0.78
 H  0.59  2.13  0.09
 H  2.72  1.13  2.09
 H  2.69  2.74  1.38
 H  2.86  1.68 -0.93
 H  3.10  0.12 -0.16
 H  5.02  1.31  2.20
 H  6.51  0.99  1.28
 H  5.22 -0.24  1.33
 H  4.99  1.30 -2.13
 H  5.28 -0.23 -1.27
 H  6.51  1.06 -1.23
 H  4.66  3.37 -0.75
 H  5.99  3.13  0.17
