15
set: 4215.00  0.00  0.00
 C  4.11 -0.93  1.14
 O  4.86  0.18  0.66
 C  4.11  0.95 -0.27
 C  4.91  2.15 -0.67
 C  4.93  2.70 -1.89
 C  5.70  3.92 -2.15
 O  5.75  4.50 -3.23
 H  4.76 -1.46  1.85
 H  3.83 -1.62  0.32
 H  3.19 -0.60  1.66
 H  3.16  1.29  0.20
 H  3.83  0.35 -1.16
 H  5.49  2.61  0.14
 H  4.38  2.28 -2.74
 H  6.27  4.31 -1.26
