17
set: 5837.00  0.00  0.00
 C  2.29 -1.16 -0.93
 N  3.60 -0.55 -0.76
 N  3.58  0.81 -0.64
 C  4.50  1.41  0.03
 C  4.57  2.90  0.11
 C  3.65  3.63 -0.87
 O  2.27  3.35 -0.66
 H  2.43 -2.23 -1.13
 H  1.80 -0.71 -1.81
 H  1.62 -1.04 -0.06
 H  4.17 -1.02 -0.04
 H  5.28  0.82  0.57
 H  5.62  3.22 -0.07
 H  4.34  3.22  1.15
 H  3.95  3.38 -1.90
 H  3.77  4.72 -0.74
 H  2.21  2.38 -0.79
