16
set: 1628.00  0.00  0.00
 C  0.95  0.02 -0.62
 C  2.18 -0.08  0.25
 C  2.60 -1.39  1.03
 C  3.96 -0.63  0.97
 N  3.54 -0.22 -0.42
 C  3.64  0.61  1.84
 C  2.45  0.98  1.35
 H  0.04 -0.02 -0.01
 H  0.92 -0.80 -1.35
 H  0.94  0.97 -1.17
 H  2.57 -2.28  0.39
 H  2.15 -1.55  2.02
 H  4.93 -1.14  1.09
 H  3.92  0.71 -0.65
 H  4.24  1.02  2.65
 H  1.78  1.78  1.66
