14
set: 2084.00  0.00  0.00
 C  1.41 -0.30 -1.08
 C  2.28 -0.03 -0.10
 C  3.04  1.28  0.01
 C  2.66  2.03  1.28
 C  2.08  3.23  1.29
 C  4.49  1.02 -0.01
 N  5.63  0.81 -0.01
 H  0.87 -1.25 -1.12
 H  1.21  0.41 -1.88
 H  2.47 -0.76  0.69
 H  2.80  1.91 -0.86
 H  2.88  1.51  2.22
 H  1.86  3.76  0.36
 H  1.81  3.72  2.23
