17
set: 3987.00  0.00  0.00
 C  0.72  0.19 -0.05
 C  2.25  0.06 -0.03
 O  2.65 -0.81  1.04
 C  2.72 -0.57 -1.33
 C  3.38 -1.73 -1.43
 C  2.88  1.44  0.09
 C  3.80  1.79  1.00
 H  0.38  0.80 -0.90
 H  0.36  0.67  0.87
 H  0.26 -0.81 -0.13
 H  2.32 -0.41  1.87
 H  2.49  0.01 -2.22
 H  3.62 -2.32 -0.55
 H  3.68 -2.12 -2.40
 H  2.52  2.17 -0.64
 H  4.19  1.07  1.72
 H  4.20  2.81  1.03
