18
set: 2000.00  0.00  0.00
 C  1.55 -0.40  1.13
 C  2.10  0.25 -0.14
 C  3.29  1.16  0.14
 N  3.73  2.16 -0.85
 C  3.08  2.62  0.42
 C  3.92  3.37  1.36
 C  3.47  4.31  2.20
 H  0.70 -1.06  0.90
 H  1.20  0.36  1.85
 H  2.32 -1.01  1.64
 H  1.31  0.84 -0.63
 H  2.41 -0.53 -0.85
 H  4.12  0.67  0.65
 H  3.04  2.21 -1.61
 H  2.04  2.96  0.35
 H  4.99  3.11  1.35
 H  2.41  4.59  2.23
 H  4.13  4.82  2.89
