16
set: 5129.00  0.00  0.00
 C  1.05 -0.11 -0.11
 C  2.37  0.60  0.01
 C  3.63 -0.23  0.14
 C  4.39 -0.42 -1.19
 O  5.15  0.71 -1.59
 N  2.31  1.89 -0.02
 O  3.62  2.48  0.08
 H  0.23  0.61 -0.24
 H  0.86 -0.71  0.79
 H  1.07 -0.80 -0.97
 H  3.35 -1.22  0.52
 H  4.31  0.23  0.87
 H  3.67 -0.71 -1.98
 H  5.10 -1.25 -1.07
 H  4.71  1.51 -1.23
 H  3.40  3.42  0.07
