15
set: 3112.00  0.00  0.00
 C  1.67 -0.12 -0.05
 C  0.74 -1.17  0.56
 O -0.41 -1.46 -0.27
 C -1.43 -0.53 -0.15
 C -1.32  0.78  0.11
 O -0.16  1.53  0.22
 C  0.91  1.06 -0.63
 H  2.28 -0.57 -0.85
 H  2.36  0.21  0.74
 H  1.26 -2.13  0.68
 H  0.37 -0.84  1.55
 H -2.42 -0.97 -0.29
 H -2.22  1.38  0.27
 H  1.58  1.93 -0.77
 H  0.48  0.80 -1.61
