13
set: 3979.00  0.00  0.00
 C  3.05 -1.36  0.07
 C  2.33 -0.03  0.05
 O  1.10  0.04  0.05
 C  3.12  1.23  0.03
 C  4.47  1.29  0.03
 C  5.21  2.49  0.00
 C  5.88  3.51 -0.01
 H  3.71 -1.45  0.94
 H  3.68 -1.48 -0.83
 H  2.31 -2.16  0.09
 H  2.52  2.14  0.02
 H  5.06  0.36  0.04
 H  6.47  4.41 -0.03
