14
set: 6621.00  0.00  0.00
 O  0.99 -0.10  0.28
 C  2.18 -0.01  0.02
 C  2.92  1.25 -0.03
 C  4.24  1.36 -0.26
 C  4.66  2.80 -0.18
 N  3.40  3.58 -0.13
 C  2.32  2.62  0.23
 H  2.79 -0.92 -0.20
 H  4.93  0.53 -0.42
 H  5.26  2.97  0.74
 H  5.30  3.12 -1.01
 H  3.21  3.93 -1.07
 H  1.41  2.81 -0.35
 H  2.05  2.71  1.29
