14
set: 4944.00  0.00  0.00
 C  0.95 -0.17 -0.13
 C  2.44  0.07  0.13
 C  2.84  1.50  0.07
 C  3.33  2.41  0.97
 N  3.52  3.64  0.35
 C  3.15  3.43 -0.88
 O  2.72  2.16 -1.14
 H  0.71 -1.24 -0.07
 H  0.66  0.19 -1.12
 H  0.33  0.36  0.62
 H  3.04 -0.51 -0.60
 H  2.72 -0.31  1.12
 H  3.55  2.26  2.02
 H  3.14  4.13 -1.72
