14
set: 94.00  0.00  0.00
 C  0.84 -0.02 -0.24
 C  2.33 -0.06  0.05
 C  2.70 -0.02  1.51
 C  3.23 -0.76 -0.91
 N  3.15  0.72 -0.91
 H  0.65  0.00 -1.32
 H  0.39  0.89  0.20
 H  0.33 -0.89  0.19
 H  3.79 -0.09  1.65
 H  2.24 -0.86  2.06
 H  2.36  0.91  1.98
 H  2.82 -1.25 -1.79
 H  4.13 -1.24 -0.50
 H  3.97  1.10 -0.42
