13
set: 6165.00  0.00  0.00
 N  0.93 -0.06  0.04
 C  2.21  0.01  0.02
 N  2.97 -1.12 -0.31
 C  4.32 -1.21  0.00
 C  5.04 -0.09  0.15
 C  4.32  1.20 -0.09
 O  2.93  1.12  0.36
 H  0.54  0.86  0.25
 H  2.40 -1.96 -0.40
 H  4.72 -2.22  0.11
 H  6.09 -0.10  0.44
 H  4.75  2.04  0.47
 H  4.30  1.47 -1.16
