15
set: 4522.00  0.00  0.00
 O  0.79  0.86  0.74
 C  2.15  0.97  1.06
 C  2.97  1.41 -0.15
 O  2.38  1.61 -1.22
 C  4.43  1.57  0.03
 C  5.33  1.24 -1.16
 C  5.12  2.66 -0.78
 H  0.74  1.11 -0.21
 H  2.56  0.00  1.41
 H  2.32  1.70  1.87
 H  4.82  1.35  1.02
 H  4.81  0.88 -2.05
 H  6.28  0.76 -0.93
 H  5.93  3.20 -0.28
 H  4.46  3.26 -1.41
