21
set: 1516.00  0.00  0.00
 C  0.96  0.45 -1.27
 C  2.39  0.31 -0.74
 C  3.05  1.66 -0.42
 C  4.49  1.53  0.08
 C  5.13  2.88  0.40
 C  6.55  2.86  0.89
 C  7.32  1.78  1.06
 H  0.51 -0.53 -1.49
 H  0.93  1.05 -2.19
 H  0.31  0.95 -0.53
 H  3.00 -0.23 -1.49
 H  2.39 -0.32  0.16
 H  2.44  2.19  0.33
 H  3.03  2.29 -1.33
 H  5.10  1.01 -0.68
 H  4.51  0.89  0.98
 H  4.51  3.41  1.15
 H  5.08  3.53 -0.50
 H  6.98  3.84  1.11
 H  6.97  0.76  0.86
 H  8.35  1.87  1.42
