13
set: 6651.00  0.00  0.00
 O  1.88 -0.44 -1.25
 C  2.10  0.14 -0.20
 C  3.13  1.23 -0.03
 C  3.76  1.29  1.38
 N  3.88  2.75  1.60
 N  2.91  3.41  0.87
 C  2.48  2.62 -0.06
 H  1.51 -0.09  0.72
 H  3.87  1.15 -0.84
 H  4.74  0.80  1.44
 H  3.07  0.83  2.11
 H  3.88  3.06  2.57
 H  1.78  2.97 -0.82
