13
set: 6346.00  0.00  0.00
 N  1.69  1.57 -2.03
 C  2.54  1.97 -1.16
 C  3.03  3.39 -1.41
 O  3.84  3.98 -0.73
 N  2.95  1.14 -0.08
 C  4.36  1.21  0.40
 C  3.27  1.76  1.24
 H  1.41  0.60 -1.80
 H  2.55  3.84 -2.31
 H  5.03  1.94 -0.06
 H  4.78  0.23  0.62
 H  2.88  1.18  2.08
 H  3.21  2.84  1.33
