17
set: 3221.00  0.00  0.00
 C  0.88 -0.05  0.01
 C  2.41 -0.07 -0.04
 C  3.04  0.08  1.34
 C  2.95 -1.30 -0.83
 C  3.49 -0.67 -2.09
 C  3.38  0.66 -1.99
 O  2.81  1.12 -0.83
 H  0.46 -0.13 -1.00
 H  0.52  0.88  0.47
 H  0.51 -0.90  0.61
 H  4.13  0.12  1.26
 H  2.76 -0.77  1.98
 H  2.69  1.01  1.83
 H  2.15 -2.03 -1.02
 H  3.74 -1.83 -0.26
 H  3.92 -1.21 -2.93
 H  3.67  1.44 -2.69
