19
set: 1751.00  0.00  0.00
 C  0.84  0.03 -0.21
 C  2.33  0.01  0.06
 C  2.70  0.01  1.53
 C  3.26 -0.76 -0.89
 N  2.86 -1.55 -2.04
 C  3.24  0.74 -0.94
 N  4.43  1.51 -0.62
 H  0.62  0.03 -1.29
 H  0.37  0.93  0.23
 H  0.34 -0.85  0.22
 H  3.79 -0.02  1.69
 H  2.27 -0.87  2.04
 H  2.31  0.90  2.04
 H  4.14 -1.19 -0.39
 H  2.28 -1.00 -2.68
 H  2.30 -2.36 -1.75
 H  2.70  1.16 -1.79
 H  5.09  0.96 -0.08
 H  4.19  2.33 -0.07
