15
set: 3096.00  0.00  0.00
 C -1.41  0.64  0.13
 C -1.44 -0.85 -0.24
 C -0.30 -1.63  0.34
 C  0.96 -1.16  0.47
 C  1.48  0.12  0.04
 C  0.84  1.21 -0.47
 O -0.48  1.44 -0.63
 H -2.39  1.11 -0.08
 H -1.19  0.77  1.20
 H -1.47 -0.93 -1.34
 H -2.39 -1.26  0.12
 H -0.52 -2.64  0.70
 H  1.71 -1.84  0.91
 H  2.57  0.24  0.09
 H  1.42  2.06 -0.83
