15
set: 1094.00  0.00  0.00
 N  0.92  0.01  0.16
 C  2.37  0.02 -0.01
 C  3.14  1.08  0.84
 C  4.16 -0.02  1.25
 O  5.42  0.02  0.57
 C  3.15 -1.09  0.75
 H  0.52 -0.79 -0.34
 H  0.51  0.84 -0.27
 H  2.69  0.06 -1.07
 H  2.52  1.41  1.69
 H  3.55  1.96  0.32
 H  4.42 -0.06  2.32
 H  5.24  0.05 -0.39
 H  3.57 -1.92  0.17
 H  2.54 -1.49  1.58
