16
set: 246.00  0.00  0.00
 C  1.07 -0.02  0.38
 C  2.35  0.00 -0.01
 C  3.23  1.25 -0.12
 C  4.48  0.78 -0.89
 C  4.64 -0.68 -0.45
 C  3.19 -1.20 -0.40
 H  0.52 -0.96  0.45
 H  0.53  0.89  0.63
 H  3.52  1.58  0.89
 H  2.70  2.09 -0.60
 H  4.28  0.82 -1.98
 H  5.36  1.40 -0.69
 H  5.29 -1.27 -1.11
 H  5.08 -0.72  0.56
 H  2.89 -1.54 -1.41
 H  3.05 -2.06  0.27
