13
set: 6964.00  0.00  0.00
 C  0.99 -0.03 -0.06
 C  2.48  0.05 -0.03
 C  3.21  1.22  0.12
 N  2.73  2.52  0.36
 S  4.92  0.87  0.13
 C  4.52 -0.83 -0.09
 N  3.25 -1.09 -0.14
 H  0.54  0.80 -0.63
 H  0.55 -0.01  0.96
 H  0.68 -0.97 -0.53
 H  3.23  3.25 -0.14
 H  1.73  2.60  0.18
 H  5.32 -1.57 -0.19
