18
set: 4810.00  0.00  0.00
 C  0.90  0.01 -0.14
 C  2.41  0.00  0.03
 N  2.79 -0.06  1.43
 C  3.24 -0.66 -1.06
 C  3.22  0.86 -0.92
 C  4.48  1.59 -0.52
 O  5.36  1.79 -1.64
 H  0.62  0.09 -1.20
 H  0.47  0.86  0.41
 H  0.46 -0.92  0.26
 H  3.80 -0.06  1.54
 H  2.46 -0.94  1.83
 H  2.74 -1.12 -1.92
 H  4.15 -1.18 -0.74
 H  2.64  1.40 -1.67
 H  5.01  1.05  0.29
 H  4.25  2.60 -0.15
 H  5.44  0.93 -2.09
