16
set: 2132.00  0.00  0.00
 C  0.97  0.01  0.14
 C  2.51 -0.04 -0.01
 C  3.14 -0.76  1.22
 C  2.87 -0.79 -1.28
 C  3.55 -0.31 -2.32
 C  3.02  1.34 -0.05
 N  3.42  2.44 -0.08
 H  0.51  0.54 -0.70
 H  0.69  0.53  1.07
 H  0.57 -1.01  0.18
 H  2.87 -0.25  2.15
 H  4.23 -0.78  1.13
 H  2.77 -1.79  1.26
 H  2.51 -1.82 -1.28
 H  3.92  0.72 -2.35
 H  3.76 -0.94 -3.19
