20
set: 1746.00  0.00  0.00
 C  0.92 -0.02  0.05
 C  2.44 -0.01  0.04
 C  3.20  1.06  0.88
 C  4.26 -0.01  1.26
 N  5.49  0.15  0.49
 C  3.22 -1.11  0.83
 C  3.68 -2.36  0.11
 H  0.52 -0.90 -0.47
 H  0.51  0.87 -0.44
 H  0.54 -0.04  1.09
 H  2.80  0.02 -1.00
 H  2.61  1.38  1.75
 H  3.58  1.95  0.36
 H  4.54 -0.04  2.33
 H  5.29  0.21 -0.51
 H  6.10 -0.67  0.61
 H  2.62 -1.38  1.72
 H  4.32 -2.12 -0.75
 H  2.82 -2.94 -0.28
 H  4.25 -3.03  0.77
