14
set: 6482.00  0.00  0.00
 O  0.18  0.61 -0.41
 C  1.33 -0.05  0.05
 C  2.01 -0.99 -0.92
 C  2.68  0.30 -0.53
 O  3.84  0.15  0.27
 N  3.98  1.31  1.09
 C  5.04  1.23  1.80
 H  0.15  1.48  0.02
 H  1.33 -0.36  1.10
 H  1.60 -1.04 -1.93
 H  2.41 -1.92 -0.52
 H  2.73  1.11 -1.26
 H  5.24  2.07  2.46
 H  5.72  0.37  1.77
