13
set: 1901.00  0.00  0.00
 C  1.01 -0.00 -0.07
 C  2.50 -0.03  0.07
 N  3.15  1.16  0.07
 C  4.48  1.11  0.19
 C  5.18 -0.09  0.31
 C  4.42 -1.25  0.31
 N  3.08 -1.24  0.19
 H  0.64  1.03 -0.05
 H  0.54 -0.59  0.73
 H  0.72 -0.48 -1.02
 H  5.01  2.07  0.18
 H  6.27 -0.11  0.41
 H  4.89 -2.24  0.40
