19
set: 4439.00  0.00  0.00
 O  2.52  0.44  2.55
 C  3.57  1.02  1.75
 C  2.90  1.79  0.62
 C  3.89  2.40 -0.39
 C  4.81  3.46  0.18
 C  6.17  3.11  0.73
 C  6.05  3.87 -0.57
 H  2.94  0.01  3.31
 H  4.22  0.23  1.33
 H  4.20  1.69  2.35
 H  2.28  2.59  1.05
 H  2.22  1.11  0.09
 H  3.31  2.84 -1.22
 H  4.51  1.60 -0.84
 H  4.29  4.27  0.70
 H  6.48  2.06  0.67
 H  6.54  3.64  1.61
 H  6.34  4.93 -0.58
 H  6.28  3.34 -1.50
