17
set: 3601.00  0.00  0.00
 C  0.85 -0.13  0.15
 C  2.33  0.03  0.00
 C  3.04  1.18 -0.11
 C  2.45  2.56 -0.11
 C  4.53  1.13 -0.25
 C  5.26 -0.21 -0.27
 O  5.17  2.18 -0.35
 H  0.45 -0.75 -0.67
 H  0.31  0.82  0.14
 H  0.61 -0.66  1.08
 H  2.88 -0.91 -0.01
 H  1.36  2.56  0.02
 H  2.69  3.08 -1.05
 H  2.90  3.17  0.69
 H  4.93 -0.83 -1.11
 H  5.08 -0.78  0.65
 H  6.33 -0.01 -0.37
