15
set: 6539.00  0.00  0.00
 O  0.93  0.09 -0.40
 C  2.30  0.03  0.07
 C  3.08  1.31 -0.26
 C  3.53  1.25 -1.71
 N  4.39  0.08 -1.86
 N  3.91 -1.13 -1.45
 C  2.95 -1.16 -0.59
 H  0.44  0.67  0.21
 H  2.30 -0.13  1.16
 H  2.45  2.20 -0.08
 H  3.96  1.38  0.40
 H  4.11  2.14 -2.01
 H  2.64  1.18 -2.37
 H  4.87 -0.02 -2.75
 H  2.62 -2.16 -0.28
