16
set: 4594.00  0.00  0.00
 C  0.72  0.99 -0.40
 O -0.33  0.08 -0.02
 C  1.02 -0.43 -0.16
 C  1.71 -0.92  1.08
 C  1.49 -0.20  2.43
 N  1.20 -1.50  3.12
 C  1.15 -2.19  1.79
 H  0.66  1.37 -1.43
 H  0.99  1.73  0.36
 H  1.15 -1.07 -1.05
 H  2.78 -1.04  0.86
 H  0.59  0.44  2.43
 H  2.34  0.37  2.83
 H  2.04 -1.81  3.63
 H  1.75 -3.11  1.70
 H  0.11 -2.41  1.51
