17
set: 3861.00  0.00  0.00
 C  1.43 -0.42  0.87
 C  2.35  0.00 -0.01
 C  3.04  1.33  0.07
 O  4.45  1.12 -0.02
 C  5.16  2.36 -0.05
 C  6.63  2.08 -0.03
 C  7.50  2.60 -0.90
 H  0.93 -1.38  0.75
 H  1.15  0.18  1.73
 H  2.62 -0.62 -0.87
 H  2.77  1.85  1.01
 H  2.70  1.97 -0.77
 H  4.88  2.97  0.84
 H  4.88  2.95 -0.95
 H  6.97  1.42  0.76
 H  7.18  3.26 -1.71
 H  8.57  2.40 -0.83
