19
set: 1893.00  0.00  0.00
 C  0.93  0.05  0.12
 C  2.43 -0.02 -0.01
 N  3.23  1.03  0.71
 C  4.20 -0.02  1.19
 C  5.53  0.05  0.45
 C  3.22 -1.14  0.74
 N  3.76 -2.33  0.10
 H  0.45 -0.78 -0.43
 H  0.54  0.99 -0.29
 H  0.62 -0.02  1.18
 H  2.71 -0.01 -1.08
 H  2.68  1.37  1.51
 H  4.38  0.01  2.28
 H  5.38  0.10 -0.64
 H  6.16 -0.82  0.68
 H  6.07  0.96  0.75
 H  2.62 -1.48  1.61
 H  4.18 -2.10 -0.80
 H  3.03 -3.02 -0.07
