17
set: 4184.00  0.00  0.00
 C  1.07 -0.15 -0.54
 O  2.45 -0.04 -0.23
 C  2.92  1.29 -0.36
 C  4.42  1.32 -0.02
 C  5.24  0.46 -1.00
 C  4.89  2.70  0.01
 C  5.28  3.85  0.03
 H  0.78 -1.20 -0.41
 H  0.87  0.15 -1.59
 H  0.45  0.48  0.13
 H  2.37  1.97  0.32
 H  2.76  1.66 -1.40
 H  4.52  0.89  0.99
 H  5.17  0.86 -2.02
 H  4.86 -0.57 -1.00
 H  6.30  0.45 -0.71
 H  5.62  4.86  0.04
