17
set: 385.00  0.00  0.00
 C  1.05  0.05 -0.12
 C  2.55  0.13 -0.05
 N  3.42 -0.56 -1.05
 C  3.41  0.93 -0.97
 C  2.82  1.73 -2.11
 C  4.71  1.51 -0.42
 H  0.58  0.81  0.52
 H  0.70 -0.94  0.22
 H  0.67  0.19 -1.14
 H  2.94  0.00  0.97
 H  2.82 -0.84 -1.84
 H  1.87  1.31 -2.48
 H  3.52  1.77 -2.95
 H  2.62  2.77 -1.79
 H  5.11  0.87  0.37
 H  4.55  2.52 -0.01
 H  5.46  1.59 -1.22
