20
set: 2057.00  0.00  0.00
 C  0.94 -0.14 -0.30
 C  2.47 -0.11 -0.24
 C  3.02  1.23  0.23
 C  4.54  1.30  0.25
 N  5.13  1.16 -1.08
 C  5.21  2.18  1.30
 C  5.27  0.66  1.40
 H  0.56 -1.11 -0.63
 H  0.55  0.62 -1.00
 H  0.49  0.07  0.69
 H  2.89 -0.34 -1.23
 H  2.82 -0.91  0.43
 H  2.65  1.46  1.24
 H  2.64  2.04 -0.43
 H  6.13  0.99 -1.01
 H  5.01  2.03 -1.60
 H  4.58  2.71  2.01
 H  6.12  2.70  1.01
 H  6.23  0.18  1.19
 H  4.69  0.17  2.17
