15
set: 1107.00  0.00  0.00
 N  2.85 -0.72  1.00
 C  2.27  0.20  0.00
 C  2.81  1.60  0.20
 C  2.00  2.64  0.45
 C  4.31  1.75  0.09
 O  4.80  3.08  0.13
 H  2.57 -1.68  0.78
 H  2.47 -0.50  1.92
 H  1.17  0.24 -0.00
 H  2.58 -0.16 -0.99
 H  0.91  2.51  0.51
 H  2.39  3.65  0.61
 H  4.64  1.23 -0.83
 H  4.79  1.22  0.93
 H  4.40  3.56 -0.62
