17
set: 5716.00  0.00  0.00
 C  1.74 -0.34  1.11
 N  3.06  0.17  0.72
 C  3.05  1.56  0.22
 C  2.48  2.54  1.25
 C  4.48  2.02 -0.14
 N  5.47  1.31  0.48
 O  4.68  2.97 -0.90
 H  1.82 -1.42  1.29
 H  0.95 -0.18  0.34
 H  1.41  0.12  2.04
 H  3.41 -0.42 -0.04
 H  2.46  1.67 -0.72
 H  3.00  2.43  2.22
 H  1.40  2.37  1.41
 H  2.61  3.56  0.89
 H  5.20  0.60  1.16
 H  6.43  1.62  0.38
