18
set: 5545.00  0.00  0.00
 C  3.56 -1.03  1.23
 C  2.79 -0.31  0.12
 O  1.37 -0.40  0.34
 C  3.17  1.16 -0.06
 O  2.79  1.86  1.12
 C  4.65  1.42 -0.36
 N  4.87  2.88 -0.35
 H  4.62 -1.13  0.99
 H  3.14 -2.04  1.37
 H  3.47 -0.48  2.18
 H  2.96 -0.83 -0.84
 H  1.17  0.27  1.03
 H  2.57  1.54 -0.92
 H  3.31  2.70  1.07
 H  4.94  0.92 -1.31
 H  5.26  0.99  0.45
 H  4.56  3.29 -1.23
 H  5.86  3.10 -0.24
