15
set: 3326.00  0.00  0.00
 C  1.18  0.11  0.47
 C  2.41 -0.02 -0.04
 C  3.11 -1.34 -0.35
 O  4.53 -1.07 -0.32
 C  4.71  0.32 -0.49
 C  4.09  0.98 -1.69
 C  3.39  1.05 -0.33
 H  0.73  1.09  0.64
 H  0.57 -0.76  0.72
 H  2.82 -1.71 -1.35
 H  2.89 -2.13  0.39
 H  5.65  0.67 -0.07
 H  4.55  1.91 -2.04
 H  3.65  0.36 -2.47
 H  3.30  2.01  0.18
