20
set: 2249.00  0.00  0.00
 C  1.08  0.09 -0.13
 C  2.57  0.23  0.21
 C  3.03  1.68  0.45
 C  2.39  2.31  1.69
 N  4.50  1.68  0.62
 C  5.28  1.72 -0.62
 C  5.17  2.93  0.25
 H  0.83 -0.95 -0.37
 H  0.81  0.70 -1.00
 H  0.44  0.40  0.71
 H  3.17 -0.18 -0.62
 H  2.82 -0.37  1.10
 H  2.75  2.28 -0.44
 H  2.64  1.71  2.58
 H  1.30  2.36  1.59
 H  2.77  3.33  1.84
 H  4.73  1.75 -1.57
 H  6.19  1.12 -0.63
 H  6.00  3.23  0.89
 H  4.55  3.75 -0.13
