17
set: 3850.00  0.00  0.00
 C  0.91  0.09  0.02
 C  2.43 -0.01  0.01
 C  3.15  1.34 -0.03
 O  2.54  2.40 -0.04
 C  4.64  1.28 -0.04
 C  5.38  2.38 -0.80
 C  5.39  2.39  0.69
 H  0.45 -0.90  0.05
 H  0.55  0.62 -0.87
 H  0.56  0.66  0.89
 H  2.79 -0.59 -0.86
 H  2.81 -0.55  0.89
 H  5.09  0.29 -0.04
 H  4.74  3.11 -1.30
 H  6.28  2.08 -1.33
 H  6.30  2.10  1.22
 H  4.76  3.12  1.19
