15
set: 6347.00  0.00  0.00
 N  1.22 -0.52 -0.74
 C  2.31 -0.03  0.08
 C  2.14  1.40  0.63
 O  1.10  2.03  0.54
 N  3.31  1.95  1.17
 C  3.31  2.79  2.35
 C  3.99  1.45  2.36
 H  1.17  0.04 -1.60
 H  0.34 -0.33 -0.26
 H  3.26 -0.07 -0.48
 H  2.45 -0.70  0.95
 H  2.36  2.89  2.89
 H  3.91  3.70  2.29
 H  5.08  1.39  2.30
 H  3.51  0.65  2.93
