14
set: 6111.00  0.00  0.00
 N  0.90 -0.01 -0.15
 C  2.40 -0.01 -0.12
 C  2.89  1.23  0.60
 C  3.52  1.18  1.77
 O  3.85  0.02  2.45
 C  3.53 -1.15  1.79
 C  2.90 -1.22  0.61
 H  0.59 -0.84 -0.68
 H  0.58  0.80 -0.69
 H  2.81 -0.01 -1.15
 H  2.71  2.21  0.15
 H  3.87  2.05  2.32
 H  3.89 -2.01  2.36
 H  2.73 -2.21  0.18
