18
set: 5965.00  0.00  0.00
 C  2.62 -0.60  0.14
 O  2.24  0.78  0.13
 C  3.26  1.72  0.07
 C  2.63  3.09  0.12
 N  1.99  3.32  1.43
 C  4.57  1.43 -0.02
 C  5.70  2.41 -0.05
 H  1.69 -1.16  0.22
 H  3.27 -0.82  1.01
 H  3.14 -0.88 -0.78
 H  1.93  3.16 -0.73
 H  3.40  3.85 -0.03
 H  1.28  2.60  1.58
 H  1.49  4.22  1.41
 H  4.86  0.38 -0.06
 H  5.37  3.45 -0.01
 H  6.31  2.28 -0.96
 H  6.38  2.25  0.80
