18
set: 6065.00  0.00  0.00
 N  0.66 -0.47 -0.06
 C  2.07 -0.71 -0.25
 C  2.60 -0.48 -1.65
 C  2.96  0.50 -0.55
 C  4.38  0.59 -0.03
 C  4.48  1.26  1.34
 O  3.83  0.53  2.38
 H  0.45 -0.32  0.93
 H  0.12 -1.29 -0.35
 H  2.56 -1.52  0.31
 H  1.88 -0.16 -2.40
 H  3.39 -1.15 -2.01
 H  2.41  1.44 -0.60
 H  4.99  1.17 -0.75
 H  4.82 -0.41  0.03
 H  4.07  2.29  1.28
 H  5.53  1.34  1.65
 H  2.92  0.35  2.07
