17
set: 6153.00  0.00  0.00
 N  0.96 -0.05  0.13
 C  2.41 -0.07 -0.13
 C  2.60 -0.07 -1.64
 O  1.88  1.01 -2.24
 C  3.14  1.03  0.69
 N  3.53 -0.01  1.69
 C  3.27 -1.08  0.70
 H  0.79  0.13  1.12
 H  0.56 -0.97 -0.07
 H  2.27 -1.05 -2.05
 H  3.66  0.05 -1.90
 H  1.06  1.07 -1.70
 H  2.51  1.84  1.09
 H  3.97  1.47  0.12
 H  4.49  0.05  2.02
 H  4.16 -1.42  0.13
 H  2.74 -1.97  1.10
