15
set: 1260.00  0.00  0.00
 C  0.97 -0.03  0.02
 C  2.31  0.15 -0.05
 C  3.05  1.38  0.25
 C  4.37  1.23 -0.02
 C  4.67 -0.15 -0.49
 C  4.40 -1.24  0.54
 C  3.33 -0.87 -0.47
 H  0.51 -0.98 -0.24
 H  0.32  0.78  0.35
 H  2.58  2.27  0.67
 H  5.13  2.00  0.12
 H  5.42 -0.33 -1.26
 H  4.89 -2.20  0.39
 H  4.26 -0.93  1.58
 H  3.07 -1.61 -1.23
