15
set: 451.00  0.00  0.00
 C  0.98 -0.13 -0.09
 C  2.49 -0.02  0.07
 C  3.02  1.43  0.02
 C  2.51  2.32  1.17
 C  4.48  1.43 -0.01
 N  5.65  1.42 -0.01
 H  0.67 -1.19 -0.11
 H  0.64  0.33 -1.02
 H  0.44  0.34  0.74
 H  2.99 -0.59 -0.73
 H  2.82 -0.48  1.02
 H  2.69  1.88 -0.94
 H  2.80  1.89  2.14
 H  1.41  2.40  1.14
 H  2.93  3.33  1.10
