19
set: 2393.00  0.00  0.00
 C  0.94 -0.20  0.06
 C  2.44  0.06 -0.14
 C  3.06 -0.88 -1.19
 N  2.72  1.48 -0.43
 C  2.19  2.10 -1.63
 C  3.43  2.25  0.46
 N  3.73  3.51  0.41
 H  0.53  0.46  0.84
 H  0.77 -1.24  0.36
 H  0.38 -0.03 -0.87
 H  2.95 -0.13  0.82
 H  2.59 -0.74 -2.17
 H  2.91 -1.93 -0.89
 H  4.14 -0.69 -1.29
 H  1.69  1.35 -2.25
 H  3.00  2.54 -2.24
 H  1.46  2.89 -1.39
 H  3.77  1.68  1.34
 H  3.36  3.95 -0.44
