20
set: 1676.00  0.00  0.00
 C  1.03 -0.06  0.03
 C  2.54 -0.03 -0.02
 C  3.34 -0.70 -1.13
 C  2.69 -1.45 -2.27
 C  3.27  0.81 -1.04
 C  4.49  1.62 -0.64
 N  5.32  1.91 -1.82
 H  0.64  0.77  0.64
 H  0.66 -1.00  0.48
 H  0.57  0.03 -0.97
 H  3.01 -0.08  0.96
 H  4.28 -1.14 -0.79
 H  1.77 -0.96 -2.61
 H  2.43 -2.48 -1.98
 H  3.37 -1.51 -3.14
 H  2.65  1.30 -1.79
 H  5.03  1.07  0.16
 H  4.17  2.58 -0.21
 H  5.68  1.03 -2.22
 H  6.14  2.46 -1.55
