13
set: 4734.00  0.00  0.00
 C  0.97 -0.03 -0.01
 C  2.45  0.11  0.00
 C  3.29  1.16  0.00
 N  4.59  0.65  0.01
 C  4.56 -0.73  0.01
 N  5.57 -1.51  0.02
 O  3.20 -1.07  0.00
 H  0.50  0.96 -0.01
 H  0.62 -0.58  0.88
 H  0.63 -0.58 -0.90
 H  3.08  2.22  0.00
 H  5.46  1.17  0.02
 H  5.27 -2.49  0.02
