16
set: 6330.00  0.00  0.00
 N  1.20  0.09  0.06
 C  2.65 -0.12 -0.12
 C  2.85 -0.81 -1.48
 O  2.18 -0.12 -2.52
 C  3.34  1.23 -0.09
 C  3.88  1.80  1.16
 O  4.76  1.21  0.18
 H  1.02  0.70  0.85
 H  0.75 -0.81  0.26
 H  3.12 -0.74  0.67
 H  2.49 -1.86 -1.40
 H  3.92 -0.85 -1.73
 H  1.34  0.18 -2.11
 H  3.05  1.92 -0.89
 H  3.78  1.23  2.09
 H  3.97  2.88  1.27
