17
set: 3625.00  0.00  0.00
 C  1.17  0.03 -0.09
 C  2.67 -0.05  0.04
 C  3.28 -1.38  0.11
 C  2.61 -2.55  0.06
 C  3.40  1.10  0.08
 C  4.89  1.24  0.23
 O  5.22  1.97  1.43
 H  0.83  1.07 -0.13
 H  0.68 -0.47  0.76
 H  0.82 -0.48 -1.00
 H  4.37 -1.42  0.22
 H  1.53 -2.60 -0.05
 H  3.14 -3.50  0.14
 H  2.86  2.05  0.03
 H  5.29  1.86 -0.59
 H  5.41  0.28  0.20
 H  4.77  1.52  2.16
