17
set: 3770.00  0.00  0.00
 C  2.41 -1.81  0.55
 C  3.35 -0.89 -0.24
 C  2.96  0.56 -0.15
 C  3.76  1.50  0.36
 O  3.37  2.82  0.44
 C  4.27  3.73  0.94
 C  3.98  5.02  1.06
 H  2.71 -2.87  0.43
 H  1.37 -1.71  0.21
 H  2.44 -1.57  1.62
 H  3.33 -1.20 -1.30
 H  4.38 -1.01  0.10
 H  1.96  0.85 -0.50
 H  4.77  1.29  0.73
 H  5.25  3.30  1.21
 H  3.01  5.42  0.77
 H  4.73  5.70  1.46
