19
set: 1462.00  0.00  0.00
 C  2.22 -0.75 -1.49
 C  2.91 -0.38 -0.16
 C  3.40  1.04 -0.14
 C  4.66  1.51  0.01
 C  5.87  0.63  0.22
 C  4.87  2.95 -0.01
 C  6.04  3.59  0.13
 H  1.84 -1.78 -1.46
 H  2.92 -0.67 -2.33
 H  1.37 -0.08 -1.69
 H  3.74 -1.09  0.03
 H  2.19 -0.52  0.66
 H  2.61  1.79 -0.29
 H  5.62 -0.44  0.20
 H  6.35  0.85  1.18
 H  6.62  0.82 -0.56
 H  3.96  3.55 -0.16
 H  6.98  3.06  0.29
 H  6.10  4.68  0.10
