15
set: 4406.00  0.00  0.00
 O  0.96  0.20  0.36
 C  2.17  0.28  0.46
 C  3.03  1.36 -0.20
 C  2.35  2.74 -0.29
 C  3.22  3.63  0.62
 C  4.01  2.61  1.45
 O  4.25  1.52  0.54
 H  2.77 -0.47  1.04
 H  3.32  0.96 -1.19
 H  1.31  2.66  0.07
 H  2.31  3.11 -1.32
 H  3.91  4.24  0.02
 H  2.63  4.31  1.25
 H  4.99  2.97  1.79
 H  3.42  2.27  2.32
