20
set: 2270.00  0.00  0.00
 C  1.40  0.35  0.81
 C  2.69  0.55 -0.01
 C  2.45  0.21 -1.49
 C  3.71  0.22 -2.36
 N  3.38 -0.09 -3.75
 C  3.20  1.96  0.16
 C  4.36  2.31  0.72
 H  1.57  0.56  1.87
 H  1.04 -0.68  0.71
 H  0.61  1.03  0.45
 H  3.47 -0.14  0.39
 H  1.72  0.92 -1.92
 H  1.99 -0.79 -1.55
 H  4.46 -0.46 -1.90
 H  4.16  1.23 -2.33
 H  3.05 -1.06 -3.82
 H  4.22 -0.03 -4.33
 H  2.53  2.75 -0.21
 H  5.06  1.56  1.10
 H  4.66  3.36  0.81
