16
set: 244.00  0.00  0.00
 C  0.99 -0.02 -0.05
 C  2.50 -0.08 -0.05
 C  3.25 -0.75 -1.17
 C  3.31  0.76 -1.04
 C  4.52  1.48 -0.60
 C  5.76  0.96 -0.47
 H  0.61  0.83  0.54
 H  0.55 -0.94  0.38
 H  0.60  0.08 -1.07
 H  2.96 -0.17  0.94
 H  2.66 -1.15 -2.00
 H  4.14 -1.33 -0.92
 H  2.69  1.32 -1.75
 H  4.37  2.53 -0.33
 H  5.98 -0.07 -0.74
 H  6.58  1.57 -0.11
