16
set: 5393.00  0.00  0.00
 C  1.59 -0.64 -1.01
 C  2.92 -0.51 -0.27
 N  3.28  0.88  0.02
 C  4.16  1.59 -0.76
 O  4.76  1.10 -1.72
 C  4.33  3.01 -0.33
 C  5.15  3.84 -1.00
 H  1.37 -1.70 -1.20
 H  1.63 -0.11 -1.97
 H  0.76 -0.23 -0.42
 H  3.74 -0.91 -0.88
 H  2.90 -1.07  0.68
 H  2.77  1.37  0.75
 H  3.77  3.37  0.54
 H  5.70  3.47 -1.86
 H  5.28  4.88 -0.70
