16
set: 5569.00  0.00  0.00
 C  0.94 -0.39 -0.14
 C  2.42 -0.61  0.12
 O  2.85 -1.72  0.46
 N  3.22  0.48 -0.04
 C  4.69  0.45  0.02
 C  5.29  0.01  1.36
 O  5.35 -1.39  1.54
 H  0.68  0.66 -0.35
 H  0.38 -0.74  0.73
 H  0.64 -1.01 -1.00
 H  2.79  1.35 -0.34
 H  5.03  1.47 -0.21
 H  5.08 -0.22 -0.77
 H  4.72  0.51  2.18
 H  6.32  0.39  1.41
 H  4.48 -1.74  1.24
