17
set: 2729.00  0.00  0.00
 C  1.01  0.01 -0.37
 N  2.46  0.02 -0.26
 C  2.96  1.26  0.35
 C  4.41  1.37  0.31
 C  5.62  1.48  0.26
 C  7.07  1.59  0.20
 N  7.51  2.60 -0.78
 H  0.69 -0.90 -0.90
 H  0.59  0.89 -0.90
 H  0.56 -0.01  0.63
 H  2.89 -0.07 -1.19
 H  2.62  1.28  1.40
 H  2.52  2.17 -0.13
 H  7.48  0.57  0.02
 H  7.45  1.90  1.19
 H  7.15  2.35 -1.71
 H  8.53  2.58 -0.85
