15
set: 3137.00  0.00  0.00
 C  1.61 -0.17 -0.05
 O  0.76 -1.17  0.45
 C -0.35 -1.47 -0.41
 C -1.51 -0.53 -0.20
 C -1.39  0.75  0.18
 C -0.08  1.47  0.36
 O  0.94  0.97 -0.54
 H  2.20 -0.52 -0.92
 H  2.28  0.07  0.79
 H -0.66 -2.50 -0.15
 H -0.03 -1.48 -1.47
 H -2.51 -0.95 -0.34
 H -2.29  1.34  0.36
 H  0.27  1.41  1.41
 H -0.20  2.53  0.11
