14
set: 4894.00  0.00  0.00
 C  0.99  0.06  0.10
 C  2.49 -0.06 -0.01
 O  3.22  0.97  0.71
 C  4.15 -0.00  1.25
 C  3.22 -1.17  0.82
 C  3.80 -2.29  0.11
 N  4.27 -3.19 -0.47
 H  0.50 -0.77 -0.42
 H  0.66  1.00 -0.36
 H  0.68  0.06  1.16
 H  2.81 -0.08 -1.07
 H  5.11  0.00  0.71
 H  4.31  0.12  2.33
 H  2.59 -1.53  1.65
