13
set: 6814.00  0.00  0.00
 O  1.17  0.10 -0.38
 N  2.56 -0.02 -0.30
 C  3.21 -1.17  0.16
 C  4.46 -0.86  0.55
 C  4.66  0.63  0.41
 C  3.28  1.13 -0.01
 N  2.67  2.26 -0.07
 H  1.09  1.09 -0.30
 H  2.70 -2.13  0.08
 H  5.23 -1.57  0.82
 H  4.98  1.12  1.34
 H  5.40  0.88 -0.37
 H  3.26  3.05  0.19
