20
set: 1721.00  0.00  0.00
 C  0.94  0.04 -0.02
 C  2.46  0.03  0.04
 C  3.08  1.13  0.92
 C  4.51  0.65  1.14
 C  4.38 -0.87  1.38
 N  5.63 -1.58  1.05
 C  3.07 -1.28  0.61
 H  0.55 -0.77 -0.66
 H  0.56  0.99 -0.42
 H  0.50 -0.10  0.98
 H  2.85  0.17 -0.98
 H  2.54  1.17  1.89
 H  3.01  2.13  0.47
 H  5.11  0.81  0.22
 H  5.04  1.15  1.96
 H  4.22 -1.04  2.46
 H  5.80 -1.51  0.04
 H  5.53 -2.57  1.26
 H  3.30 -2.01 -0.18
 H  2.36 -1.76  1.30
