13
set: 6897.00  0.00  0.00
 C  2.46  0.36  1.01
 C  2.06 -0.03 -0.47
 C  2.39  1.42 -0.85
 C  2.50  2.44 -1.75
 S  3.06  3.87 -0.91
 C  3.14  3.06  0.65
 C  2.75  1.76  0.48
 H  3.33 -0.19  1.40
 H  1.64  0.29  1.74
 H  1.01 -0.32 -0.60
 H  2.71 -0.79 -0.94
 H  2.30  2.50 -2.82
 H  3.47  3.62  1.52
