13
set: 181.00  0.00  0.00
 O  2.79 -0.94 -1.19
 C  2.37 -0.28  0.01
 C  3.02  1.10  0.05
 C  4.52  1.06  0.15
 C  5.23  1.63  1.13
 H  2.45 -1.85 -1.18
 H  2.68 -0.86  0.90
 H  1.27 -0.17  0.03
 H  2.60  1.67  0.89
 H  2.73  1.63 -0.88
 H  5.03  0.50 -0.63
 H  4.75  2.19  1.93
 H  6.32  1.56  1.16
