13
set: 4379.00  0.00  0.00
 O  0.97  0.01  0.49
 C  2.16  0.03  0.22
 O  2.86  1.20  0.38
 C  4.20  1.26 -0.19
 C  5.04  0.04  0.16
 C  4.26 -1.20 -0.17
 C  2.92 -1.17 -0.20
 H  4.63  2.19  0.20
 H  4.10  1.35 -1.28
 H  5.31  0.04  1.23
 H  5.98  0.08 -0.41
 H  4.80 -2.13 -0.36
 H  2.31 -2.05 -0.42
