16
set: 396.00  0.00  0.00
 C  0.98 -0.00  0.23
 C  2.46  0.02 -0.13
 N  2.61 -0.03 -1.58
 C  3.26  1.05  0.73
 N  3.56 -0.04  1.69
 C  3.28 -1.05  0.64
 H  0.85 -0.02  1.32
 H  0.49 -0.88 -0.21
 H  0.47  0.90 -0.16
 H  3.58  0.14 -1.85
 H  2.05  0.70 -2.03
 H  2.72  1.91  1.16
 H  4.14  1.43  0.17
 H  4.52 -0.05  2.05
 H  4.16 -1.37  0.06
 H  2.74 -1.95  0.99
