17
set: 3652.00  0.00  0.00
 C  0.95 -0.02  0.01
 C  2.40 -0.01  0.01
 C  3.62 -0.01 -0.00
 C  5.08  0.01 -0.00
 C  5.69  1.42  0.01
 C  5.36  2.23 -1.24
 O  5.96  3.53 -1.24
 H  0.54  1.00  0.01
 H  0.55 -0.54  0.90
 H  0.55 -0.53 -0.88
 H  5.45 -0.54 -0.89
 H  5.45 -0.55  0.87
 H  6.79  1.34  0.11
 H  5.32  1.96  0.90
 H  4.26  2.30 -1.37
 H  5.76  1.72 -2.13
 H  5.55  4.05 -0.53
