20
set: 2467.00  0.00  0.00
 C  3.45 -0.66 -0.52
 C  2.72  0.09  0.59
 N  3.16  1.49  0.77
 C  2.26  2.18  1.69
 C  4.53  1.59  1.22
 C  5.64  1.69  0.21
 C  5.25  2.90  1.02
 H  3.00 -1.66 -0.64
 H  4.51 -0.80 -0.29
 H  3.37 -0.12 -1.47
 H  2.81 -0.47  1.55
 H  1.64  0.13  0.36
 H  1.24  2.17  1.28
 H  2.58  3.23  1.79
 H  2.23  1.72  2.70
 H  4.76  1.05  2.16
 H  5.35  1.68 -0.84
 H  6.59  1.19  0.44
 H  5.91  3.25  1.81
 H  4.70  3.68  0.49
