18
set: 5698.00  0.00  0.00
 C  1.32 -0.18  0.01
 N  2.75 -0.41 -0.24
 C  3.55  0.83 -0.16
 C  5.03  0.53 -0.28
 C  5.77  1.04 -1.27
 C  5.61 -0.36  0.79
 O  5.01 -1.66  0.85
 H  0.77 -1.12 -0.14
 H  0.88  0.60 -0.65
 H  1.18  0.14  1.05
 H  2.87 -0.81 -1.18
 H  3.36  1.27  0.83
 H  3.25  1.58 -0.91
 H  5.34  1.71 -2.03
 H  6.84  0.83 -1.36
 H  5.51  0.16  1.77
 H  6.69 -0.51  0.61
 H  4.05 -1.50  0.67
