14
set: 344.00  0.00  0.00
 C  0.34  0.86 -0.31
 N -0.79  0.13  0.30
 C  0.51 -0.56  0.11
 C  1.24 -0.93  1.36
 C  1.40 -2.34  1.78
 N  2.53 -1.62  1.16
 H  0.32  1.08 -1.38
 H  0.76  1.66  0.31
 H -1.45 -0.16 -0.42
 H  0.59 -1.30 -0.70
 H  1.16 -0.18  2.16
 H  0.98 -3.14  1.16
 H  1.42 -2.56  2.85
 H  3.20 -1.33  1.89
