18
set: 5669.00  0.00  0.00
 C  1.39  0.07 -0.79
 N  2.82  0.32 -0.91
 C  3.47  0.51  0.38
 C  4.95  0.82  0.23
 C  5.81 -0.07 -0.69
 C  6.17  1.24 -1.41
 O  5.18  1.99 -0.63
 H  0.94  0.02 -1.79
 H  0.84  0.84 -0.20
 H  1.22 -0.90 -0.30
 H  2.98  1.17 -1.46
 H  3.37 -0.42  0.97
 H  3.00  1.32  0.99
 H  5.39  0.99  1.23
 H  5.21 -0.76 -1.29
 H  6.64 -0.61 -0.21
 H  7.19  1.61 -1.21
 H  5.96  1.29 -2.49
