17
set: 5735.00  0.00  0.00
 C -0.35 -1.24  0.53
 N  0.88 -1.47  1.27
 C  2.15 -1.47  0.54
 C  2.37 -2.71 -0.32
 N  2.46 -3.90  0.54
 C  0.85 -1.61  2.64
 O -0.17 -1.61  3.33
 H -1.17 -1.22  1.26
 H -0.53 -2.03 -0.20
 H -0.31 -0.27  0.01
 H  2.96 -1.41  1.29
 H  2.20 -0.56 -0.09
 H  3.32 -2.59 -0.85
 H  1.58 -2.77 -1.10
 H  1.56 -4.08  1.00
 H  2.66 -4.73 -0.03
 H  1.87 -1.73  3.06
