16
set: 534.00  0.00  0.00
 C  1.17 -0.09  0.01
 N  2.63 -0.08 -0.06
 C  3.21 -0.62 -1.30
 C  3.21  0.85 -1.03
 C  4.46  1.59 -0.62
 N  5.16  2.10 -1.82
 H  0.84  0.70  0.70
 H  0.84 -1.06  0.41
 H  0.68  0.07 -0.97
 H  2.52 -0.99 -2.06
 H  4.12 -1.21 -1.17
 H  2.51  1.44 -1.64
 H  5.06  0.92  0.02
 H  4.18  2.46 -0.01
 H  5.53  1.31 -2.36
 H  5.96  2.67 -1.54
