17
set: 1584.00  0.00  0.00
 C  0.85 -0.14  0.03
 C  0.54 -0.13  1.51
 C -0.69  0.52  2.04
 N -0.63 -0.96  1.91
 N  1.62  1.05 -0.35
 C  3.08  0.90 -0.25
 C  2.40  0.91 -1.58
 H  1.39 -1.08 -0.23
 H -0.09 -0.14 -0.53
 H  1.41 -0.13  2.17
 H -1.38  1.00  1.35
 H -0.65  0.96  3.04
 H -0.45 -1.38  2.83
 H  3.47 -0.06  0.09
 H  3.62  1.78  0.10
 H  2.44  1.80 -2.21
 H  2.35 -0.04 -2.12
