14
set: 5513.00  0.00  0.00
 C  2.21 -1.63 -0.06
 C  3.00 -0.48 -0.64
 O  3.20 -0.38 -1.85
 C  3.52  0.55  0.36
 C  4.90  1.18  0.10
 N  5.14  1.50 -1.21
 O  5.66  1.42  1.03
 H  2.88 -2.25  0.55
 H  1.77 -2.23 -0.86
 H  1.42 -1.26  0.61
 H  3.53  0.15  1.38
 H  2.78  1.38  0.35
 H  4.57  1.03 -1.92
 H  6.09  1.80 -1.43
