18
set: 6343.00  0.00  0.00
 N  0.87 -0.17 -0.06
 C  2.32 -0.22 -0.34
 C  2.56 -1.55 -1.08
 O  1.71 -1.68 -2.21
 C  2.71  1.00 -1.19
 C  4.21  1.20 -1.35
 O  4.91  1.41 -0.12
 H  0.59  0.77  0.23
 H  0.64 -0.80  0.72
 H  2.94 -0.22  0.58
 H  2.40 -2.39 -0.36
 H  3.60 -1.63 -1.43
 H  0.86 -1.30 -1.89
 H  2.28  1.91 -0.72
 H  2.25  0.91 -2.18
 H  4.40  2.03 -2.05
 H  4.68  0.31 -1.79
 H  4.62  2.27  0.24
