16
set: 1568.00  0.00  0.00
 C -0.98 -0.04  1.06
 C -0.61 -1.12  0.01
 C -1.03 -0.02 -1.00
 N -0.68  1.04  0.03
 C  0.79  1.25 -0.00
 C  1.59 -0.04 -0.04
 C  0.91 -1.20 -0.03
 H -0.38  0.00  1.98
 H -2.05 -0.01  1.30
 H -1.11 -2.09  0.01
 H -2.11  0.02 -1.19
 H -0.47  0.05 -1.95
 H  1.02  1.87 -0.88
 H  1.07  1.85  0.88
 H  2.68 -0.00 -0.06
 H  1.41 -2.17 -0.06
