17
set: 1403.00  0.00  0.00
 C  0.78  0.81  1.08
 C  2.28  0.77  1.07
 C  3.05  1.19  0.06
 C  4.55  1.14  0.05
 C  5.18  2.56 -0.06
 C  6.64  2.53 -0.12
 C  7.85  2.48 -0.17
 H  0.36 -0.20  1.20
 H  0.38  1.25  0.16
 H  0.41  1.41  1.93
 H  2.76  0.35  1.96
 H  2.57  1.61 -0.83
 H  4.91  0.54 -0.80
 H  4.93  0.65  0.96
 H  4.86  3.17  0.80
 H  4.79  3.06 -0.96
 H  8.92  2.44 -0.21
