19
set: 3420.00  0.00  0.00
 C  0.97  0.02 -0.04
 C  2.49  0.00  0.04
 O  2.94  0.14 -1.34
 C  3.09  1.13  0.91
 C  4.52  0.66  1.18
 C  4.38 -0.86  1.42
 C  3.08 -1.28  0.68
 H  0.53 -0.06  0.96
 H  0.61 -0.83 -0.65
 H  0.62  0.95 -0.52
 H  3.91  0.13 -1.34
 H  2.53  1.19  1.86
 H  3.01  2.11  0.41
 H  5.16  0.86  0.30
 H  5.00  1.19  2.02
 H  5.26 -1.42  1.08
 H  4.28 -1.05  2.50
 H  3.25 -2.03 -0.10
 H  2.35 -1.71  1.38
