18
set: 2485.00  0.00  0.00
 C  0.89 -0.09  0.11
 C  2.42 -0.09 -0.07
 N  2.89 -0.91 -1.20
 C  2.95  1.34 -0.23
 C  4.49  1.41 -0.24
 C  5.01  2.75 -0.46
 C  5.41  3.88 -0.65
 H  0.59  0.50  0.99
 H  0.51 -1.11  0.23
 H  0.40  0.36 -0.77
 H  2.87 -0.52  0.84
 H  2.42 -0.61 -2.06
 H  2.62 -1.89 -1.05
 H  2.56  1.98  0.58
 H  2.57  1.77 -1.18
 H  4.87  0.72 -1.01
 H  4.88  1.03  0.73
 H  5.78  4.87 -0.82
