14
set: 5003.00  0.00  0.00
 C  1.00  0.20 -0.12
 C  2.51  0.08  0.09
 C  3.23  1.41  0.01
 O  2.85  2.29  1.11
 C  4.02  2.52  1.77
 N  5.08  1.98  1.30
 O  4.66  1.25  0.15
 H  0.52 -0.78 -0.08
 H  0.77  0.65 -1.10
 H  0.54  0.84  0.65
 H  2.95 -0.57 -0.68
 H  2.74 -0.38  1.07
 H  3.01  1.95 -0.93
 H  3.99  3.14  2.66
