13
set: 6062.00  0.00  0.00
 N  1.02  0.04  0.63
 C  2.39 -0.04  0.21
 C  2.71  0.75 -1.03
 O  4.07  1.10 -1.26
 N  4.83 -0.08 -1.43
 C  4.03 -1.10 -1.40
 C  2.62 -0.77 -1.12
 H  0.87  0.87  1.21
 H  0.77 -0.78  1.20
 H  3.20 -0.13  0.94
 H  1.99  1.45 -1.46
 H  4.45 -2.09 -1.56
 H  1.79 -1.31 -1.58
