20
set: 5286.00  0.00  0.00
 C  0.83 -0.45 -0.00
 C  2.29 -0.05 -0.22
 C  2.97 -0.91 -1.29
 O  4.30 -0.45 -1.54
 N  2.53  1.38 -0.55
 C  1.72  1.90 -1.64
 C  2.48  2.26  0.61
 H  0.34  0.17  0.77
 H  0.77 -1.50  0.34
 H  0.24 -0.37 -0.93
 H  2.85 -0.22  0.72
 H  2.37 -0.90 -2.23
 H  3.02 -1.95 -0.95
 H  4.23  0.52 -1.36
 H  1.78  1.24 -2.52
 H  2.10  2.88 -1.94
 H  0.65  2.02 -1.38
 H  3.15  1.88  1.40
 H  1.46  2.36  1.05
 H  2.82  3.26  0.33
