15
set: 3463.00  0.00  0.00
 C  1.15 -0.24  0.45
 C  2.31 -0.08  0.14
 C  3.71  0.13 -0.23
 C  4.39  1.27  0.59
 C  5.52  0.55  1.36
 C  5.08 -0.91  1.30
 O  4.50 -1.06 -0.00
 H  0.12 -0.40  0.72
 H  3.77  0.32 -1.32
 H  3.66  1.72  1.28
 H  4.77  2.06 -0.06
 H  6.48  0.67  0.84
 H  5.63  0.92  2.39
 H  5.90 -1.64  1.37
 H  4.33 -1.14  2.08
