20
set: 2006.00  0.00  0.00
 C  2.29 -0.45 -1.59
 C  2.43  0.04 -0.15
 C  3.32  1.26 -0.01
 N  2.83  2.54 -0.66
 C  3.21  3.29  0.59
 C  3.41  1.97  1.37
 C  4.66  1.79  2.23
 H  1.62 -1.32 -1.65
 H  3.26 -0.75 -2.00
 H  1.88  0.33 -2.24
 H  2.84 -0.76  0.49
 H  1.43  0.28  0.27
 H  4.32  1.03 -0.41
 H  1.81  2.50 -0.72
 H  4.15  3.84  0.43
 H  2.45  3.99  0.97
 H  2.51  1.74  1.97
 H  5.57  2.02  1.65
 H  4.75  0.75  2.59
 H  4.65  2.45  3.11
