15
set: 2220.00  0.00  0.00
 C  0.96 -0.09  0.05
 C  2.50  0.03 -0.01
 C  3.03 -0.69 -1.17
 C  3.47 -1.26 -2.15
 C  2.92  1.51  0.03
 N  3.02  2.12 -1.20
 N  3.08  2.20  1.11
 H  0.58  0.42  0.95
 H  0.65 -1.14  0.08
 H  0.50  0.38 -0.83
 H  2.92 -0.44  0.89
 H  3.86 -1.78 -3.00
 H  3.29  1.52 -1.98
 H  3.43  3.05 -1.19
 H  2.91  1.62  1.93
