14
set: 6019.00  0.00  0.00
 C  1.71 -0.62 -0.67
 O  3.12 -0.42 -0.46
 N  3.35  0.94 -0.29
 C  4.62  1.17 -0.10
 C  5.68  0.09 -0.06
 C  5.00  2.53  0.09
 C  5.41  3.66  0.26
 H  1.58 -1.70 -0.79
 H  1.38 -0.09 -1.58
 H  1.14 -0.26  0.20
 H  5.46 -0.63  0.73
 H  6.67  0.53  0.11
 H  5.68 -0.46 -1.01
 H  5.74  4.67  0.41
