18
set: 5346.00  0.00  0.00
 C  1.59 -0.16  1.03
 C  2.17  0.29 -0.31
 N  2.94  1.53 -0.22
 C  2.25  2.81 -0.24
 C  1.75  3.22 -1.63
 C  4.30  1.46 -0.08
 O  4.97  0.43 -0.04
 H  1.02 -1.09  0.91
 H  0.91  0.59  1.46
 H  2.40 -0.34  1.75
 H  1.37  0.43 -1.05
 H  2.85 -0.48 -0.70
 H  2.95  3.57  0.14
 H  1.41  2.78  0.47
 H  2.58  3.31 -2.34
 H  1.24  4.20 -1.58
 H  1.03  2.50 -2.04
 H  4.76  2.48  0.00
