22
set: 2486.00  0.00  0.00
 C  3.65 -1.17 -0.11
 C  2.66 -0.23  0.57
 N  3.16  1.14  0.76
 C  2.06  2.03  1.15
 C  4.36  1.24  1.62
 C  5.04  2.60  1.45
 C  4.12  0.92  3.11
 H  3.14 -2.11 -0.38
 H  4.49 -1.44  0.54
 H  4.05 -0.72 -1.02
 H  2.30 -0.68  1.53
 H  1.76 -0.14 -0.07
 H  1.29  2.01  0.36
 H  2.42  3.06  1.24
 H  1.57  1.74  2.10
 H  5.06  0.48  1.23
 H  4.46  3.42  1.90
 H  5.18  2.83  0.38
 H  6.02  2.59  1.94
 H  3.49  1.68  3.59
 H  5.08  0.90  3.65
 H  3.64 -0.06  3.25
