15
set: 560.00  0.00  0.00
 C  0.97 -0.02 -0.05
 N  2.42 -0.00  0.13
 C  2.96  1.36  0.02
 C  4.42  1.38  0.02
 C  5.63  1.39 -0.01
 C  7.09  1.40 -0.02
 H  0.61 -1.06 -0.05
 H  0.61  0.46 -0.99
 H  0.49  0.49  0.79
 H  2.86 -0.58 -0.59
 H  2.58  1.94  0.89
 H  2.59  1.90 -0.88
 H  7.47  2.44 -0.03
 H  7.48  0.90 -0.92
 H  7.50  0.90  0.86
