17
set: 2553.00  0.00  0.00
 C  0.93  0.97  0.48
 C  2.41  0.84  0.39
 N  3.15  1.84  0.08
 N  4.51  1.49  0.03
 C  5.32  2.50 -0.01
 C  4.93  3.96  0.02
 C  6.79  2.19 -0.09
 H  0.58  0.71  1.49
 H  0.44  0.26 -0.21
 H  0.61  1.99  0.24
 H  2.87 -0.14  0.59
 H  3.85  4.08 -0.11
 H  5.47  4.51 -0.76
 H  5.23  4.40  0.98
 H  6.95  1.10 -0.08
 H  7.33  2.63  0.76
 H  7.23  2.62 -1.00
