19
set: 4167.00  0.00  0.00
 C  3.04 -0.44  1.13
 O  2.66  0.33 -0.01
 C  2.99  1.75  0.05
 C  2.44  2.30 -1.27
 C  2.32  2.43  1.24
 C  4.50  1.89  0.04
 C  5.26  2.57  0.90
 H  2.87 -1.49  0.85
 H  2.43 -0.21  2.02
 H  4.11 -0.30  1.38
 H  2.89  1.79 -2.12
 H  2.64  3.38 -1.35
 H  1.35  2.14 -1.31
 H  2.71  2.08  2.21
 H  1.24  2.23  1.21
 H  2.46  3.52  1.20
 H  4.98  1.34 -0.78
 H  4.84  3.13  1.74
 H  6.35  2.61  0.79
