13
set: 4610.00  0.00  0.00
 C  1.10 -1.09  0.89
 C  1.12 -0.37 -0.43
 C  0.88  1.12 -0.48
 O -0.50  1.43 -0.85
 C -1.39  0.70 -0.12
 N -1.22 -0.46  0.41
 N -0.06 -1.17  0.00
 H  1.66 -2.02  1.00
 H  1.00 -0.47  1.79
 H  1.65 -0.81 -1.27
 H  1.08  1.60  0.49
 H  1.50  1.60 -1.25
 H -2.35  1.20  0.00
