16
set: 2829.00  0.00  0.00
 N  1.06 -0.15  0.05
 C  2.51 -0.06 -0.01
 C  3.18 -0.63 -1.24
 C  3.10  0.87 -1.04
 C  4.36  1.66 -0.71
 C  5.14  2.02 -1.89
 C  5.79  2.31 -2.88
 H  0.69  0.55  0.70
 H  0.78 -1.07  0.41
 H  3.08 -0.16  0.93
 H  2.53 -1.06 -2.00
 H  4.15 -1.12 -1.12
 H  2.37  1.38 -1.66
 H  4.99  1.08 -0.02
 H  4.08  2.59 -0.17
 H  6.36  2.57 -3.75
