16
set: 754.00  0.00  0.00
 C  0.98 -0.47  0.20
 C  2.38 -0.15 -0.35
 C  2.89 -1.27 -1.26
 C  2.37  1.21 -1.10
 C  3.75  1.69 -1.45
 O  4.13  2.03 -2.55
 H  0.63  0.32  0.88
 H  0.99 -1.42  0.75
 H  0.25 -0.56 -0.62
 H  3.07 -0.05  0.50
 H  2.23 -1.40 -2.13
 H  2.92 -2.23 -0.71
 H  3.90 -1.07 -1.63
 H  1.93  1.97 -0.44
 H  1.76  1.16 -2.02
 H  4.46  1.71 -0.58
