16
set: 6191.00  0.00  0.00
 N  2.37 -0.50  1.49
 C  2.51 -0.01  0.10
 C  3.07  1.38  0.06
 C  4.18  1.81 -0.54
 C  4.33  3.29 -0.37
 O  3.18  3.71  0.39
 C  2.37  2.56  0.68
 H  2.03 -1.46  1.47
 H  1.64  0.04  1.97
 H  1.56 -0.02 -0.47
 H  3.20 -0.69 -0.42
 H  4.90  1.19 -1.08
 H  5.25  3.57  0.17
 H  4.34  3.83 -1.34
 H  1.35  2.71  0.27
 H  2.27  2.45  1.78
