18
set: 1807.00  0.00  0.00
 C  0.98 -0.04 -0.02
 C  2.49 -0.10  0.00
 C  3.29 -0.82 -1.08
 N  2.73 -1.48 -2.24
 C  3.33  0.68 -1.02
 C  4.51  1.47 -0.60
 C  5.76  1.01 -0.44
 H  0.61  0.88  0.46
 H  0.54 -0.89  0.52
 H  0.58 -0.07 -1.04
 H  2.94 -0.15  1.00
 H  4.19 -1.33 -0.71
 H  2.07 -0.87 -2.72
 H  2.22 -2.32 -1.96
 H  2.71  1.18 -1.78
 H  4.31  2.52 -0.39
 H  6.02 -0.03 -0.65
 H  6.56  1.66 -0.10
