20
set: 2186.00  0.00  0.00
 C  0.92  0.18  0.15
 C  2.43 -0.06  0.13
 C  3.22  1.23 -0.14
 C  4.72  1.05 -0.13
 C  5.46  1.11 -1.25
 C  5.38  0.79  1.21
 N  5.10  1.89  2.15
 H  0.37 -0.75  0.33
 H  0.57  0.59 -0.81
 H  0.64  0.89  0.94
 H  2.69 -0.81 -0.64
 H  2.74 -0.49  1.10
 H  2.96  1.97  0.63
 H  2.91  1.65 -1.11
 H  5.00  1.29 -2.23
 H  6.54  0.97 -1.23
 H  6.46  0.60  1.04
 H  4.96 -0.13  1.65
 H  5.59  2.74  1.85
 H  5.48  1.66  3.08
