14
set: 20.00  0.00  0.00
 C  0.98 -0.01  0.01
 C  2.51  0.01 -0.01
 C  3.06 -0.76 -1.22
 C  3.04  1.45  0.02
 H  0.58  0.51  0.89
 H  0.59 -1.04  0.02
 H  0.57  0.49 -0.89
 H  2.87 -0.50  0.90
 H  2.73 -0.29 -2.16
 H  2.71 -1.80 -1.23
 H  4.16 -0.77 -1.22
 H  2.71  2.00 -0.88
 H  4.14  1.47  0.04
 H  2.68  2.00  0.90
