15
set: 1644.00  0.00  0.00
 C  1.09 -0.08 -0.33
 C  2.40  0.15  0.36
 C  3.52  0.95 -0.22
 C  3.55  1.21 -1.73
 N  3.61 -0.13 -2.36
 C  3.65 -0.98 -1.40
 N  3.69 -0.53 -0.05
 H  0.40  0.74 -0.09
 H  0.62 -1.02  0.02
 H  1.18 -0.13 -1.42
 H  2.33  0.18  1.46
 H  4.13  1.57  0.44
 H  4.43  1.79 -2.02
 H  2.66  1.75 -2.11
 H  3.70 -2.06 -1.58
