14
set: 2116.00  0.00  0.00
 C  1.04  0.01  0.25
 C  2.52 -0.11  0.00
 C  3.07 -1.26 -0.45
 C  3.38  1.03  0.26
 C  2.97  2.24  0.71
 C  3.86  3.32  0.94
 N  4.57  4.22  1.14
 H  0.60  0.81 -0.37
 H  0.83  0.26  1.30
 H  0.52 -0.93  0.01
 H  2.46 -2.14 -0.66
 H  4.14 -1.34 -0.63
 H  4.45  0.88  0.06
 H  1.92  2.43  0.92
