17
set: 3056.00  0.00  0.00
 N  0.59  1.12 -1.12
 N  1.96  0.97 -1.20
 C  2.66  1.18 -0.15
 C  4.16  1.14 -0.19
 C  4.80  2.52  0.09
 C  6.30  2.48  0.04
 C  7.11  2.77  1.06
 H  0.13  0.53 -1.81
 H  0.20  0.97 -0.18
 H  2.18  1.41  0.82
 H  4.46  0.78 -1.19
 H  4.53  0.42  0.55
 H  4.47  2.89  1.08
 H  4.42  3.23 -0.66
 H  6.73  2.17 -0.91
 H  6.72  3.07  2.04
 H  8.20  2.71  0.96
