18
set: 6529.00  0.00  0.00
 O  1.00 -0.03  0.12
 C  2.45  0.03  0.05
 C  2.91 -1.32 -0.51
 C  2.56 -1.47 -2.00
 N  3.03 -0.37 -2.84
 C  2.57  0.93 -2.33
 C  2.93  1.18 -0.85
 H  0.69  0.83  0.45
 H  2.86  0.16  1.06
 H  2.45 -2.13  0.08
 H  4.00 -1.40 -0.38
 H  2.97 -2.41 -2.39
 H  1.46 -1.53 -2.11
 H  4.05 -0.38 -2.86
 H  2.99  1.73 -2.96
 H  1.48  0.97 -2.45
 H  4.02  1.27 -0.74
 H  2.49  2.13 -0.50
