17
set: 1338.00  0.00  0.00
 C  3.57 -1.09 -2.45
 C  3.59 -0.61 -1.33
 C  3.63 -0.01 -0.00
 C  4.37  1.33  0.03
 C  3.75  2.57 -0.66
 C  4.26  3.43  0.52
 C  4.38  2.13  1.36
 H  3.55 -1.52 -3.43
 H  4.10 -0.71  0.70
 H  2.60  0.14  0.36
 H  5.41  1.18 -0.33
 H  2.65  2.51 -0.66
 H  4.09  2.82 -1.68
 H  5.25  3.87  0.31
 H  3.60  4.23  0.90
 H  5.25  2.02  2.03
 H  3.46  1.95  1.94
