14
set: 6039.00  0.00  0.00
 C  4.34  2.77 -2.45
 O  4.28  3.54 -1.24
 N  3.99  2.68 -0.17
 C  3.87  3.33  0.93
 C  3.58  2.57  2.18
 C  2.38  3.07  2.96
 O  1.68  4.01  2.65
 H  4.62  3.49 -3.24
 H  3.36  2.33 -2.68
 H  5.10  1.98 -2.38
 H  3.98  4.42  0.97
 H  4.44  2.60  2.88
 H  3.43  1.50  1.96
 H  2.19  2.50  3.91
