17
set: 3009.00  0.00  0.00
 N  1.68 -0.87 -0.72
 C  2.97 -0.49 -0.11
 C  3.14  1.04 -0.21
 N  2.06  1.81  0.42
 C  4.49  1.50  0.39
 C  5.67  0.97 -0.29
 C  6.65  0.53 -0.86
 H  1.44 -1.83 -0.45
 H  1.76 -0.87 -1.74
 H  3.84 -0.99 -0.56
 H  2.94 -0.77  0.95
 H  3.15  1.31 -1.28
 H  2.10  1.66  1.44
 H  1.18  1.38  0.12
 H  4.53  1.21  1.45
 H  4.51  2.60  0.36
 H  7.51  0.15 -1.37
