17
set: 2557.00  0.00  0.00
 C  4.03 -1.93 -1.21
 C  4.11 -0.45 -1.02
 N  5.24  0.12 -0.79
 N  5.28  1.49 -0.71
 C  6.34  2.02  0.14
 C  6.53  3.49 -0.10
 C  6.46  4.42  0.86
 H  3.33 -2.38 -0.48
 H  5.02 -2.38 -1.09
 H  3.64 -2.18 -2.21
 H  3.18  0.14 -1.11
 H  4.36  1.93 -0.52
 H  7.26  1.47 -0.14
 H  6.17  1.83  1.22
 H  6.73  3.78 -1.14
 H  6.26  4.15  1.90
 H  6.62  5.48  0.64
