14
set: 521.00  0.00  0.00
 C  0.76 -0.49  0.08
 C  2.25 -0.20 -0.07
 N  2.52  1.22  0.21
 C  3.93  1.58  0.10
 C  4.83  0.87  1.04
 N  5.48  0.28  1.81
 H  0.55 -1.54 -0.17
 H  0.16  0.16 -0.57
 H  0.43 -0.33  1.12
 H  2.56 -0.39 -1.11
 H  2.84 -0.88  0.58
 H  2.19  1.45  1.15
 H  4.05  2.66  0.27
 H  4.28  1.38 -0.93
