21
set: 3587.00  0.00  0.00
 C  0.93 -0.06 -0.00
 C  2.46 -0.01  0.02
 C  3.02  1.42 -0.01
 C  4.55  1.48  0.01
 C  5.10  2.91 -0.02
 C  6.62  2.96 -0.01
 O  7.15  4.29  0.02
 H  0.56 -1.09  0.02
 H  0.53  0.42 -0.91
 H  0.50  0.47  0.86
 H  2.86 -0.58 -0.84
 H  2.83 -0.53  0.92
 H  2.62  1.98  0.85
 H  2.64  1.93 -0.91
 H  4.94  0.91 -0.85
 H  4.92  0.96  0.91
 H  4.72  3.48  0.85
 H  4.72  3.43 -0.92
 H  7.02  2.40 -0.88
 H  7.01  2.47  0.90
 H  6.85  4.75 -0.78
