13
set: 7206.00  0.00  0.00
 O  1.00  0.26  0.05
 S  2.59 -0.11 -0.26
 O  2.98 -1.12  0.71
 O  2.70 -0.32 -1.71
 C  3.36  1.47  0.21
 C  4.85  1.34  0.20
 C  5.64  1.99 -0.67
 H  0.55  0.25 -0.82
 H  2.96  1.68  1.21
 H  2.99  2.21 -0.52
 H  5.28  0.68  0.95
 H  5.23  2.65 -1.43
 H  6.72  1.88 -0.63
