16
set: 4714.00  0.00  0.00
 C  0.95 -0.02  0.02
 C  2.47  0.04  0.03
 C  3.15  1.13  0.88
 N  4.50  0.63  1.23
 C  4.34 -0.82  1.41
 C  3.12 -1.24  0.58
 O  2.73 -2.38  0.40
 H  0.60 -0.92 -0.49
 H  0.52  0.86 -0.48
 H  0.55 -0.04  1.05
 H  2.84  0.12 -1.01
 H  2.57  1.29  1.81
 H  3.22  2.10  0.37
 H  5.12  0.80  0.44
 H  5.24 -1.39  1.14
 H  4.11 -1.06  2.47
