13
set: 6160.00  0.00  0.00
 N  1.16  0.06  0.61
 C  2.30 -0.10  0.01
 N  2.78 -1.32 -0.39
 C  4.11 -1.30 -0.99
 C  4.46  0.18 -1.01
 O  3.56  0.96 -1.81
 C  3.35  0.91 -0.37
 H  1.00  1.06  0.78
 H  2.16 -2.12 -0.46
 H  4.85 -1.86 -0.38
 H  4.12 -1.73 -2.01
 H  5.50  0.51 -0.98
 H  3.46  1.85  0.17
