15
set: 4509.00  0.00  0.00
 O -0.22 -0.49 -0.48
 C  1.13 -0.34 -0.05
 C  1.61  1.05 -0.37
 C  0.87  2.04 -0.89
 O  2.96  1.13 -0.07
 C  3.50  2.38  0.16
 C  4.80  2.63 -0.06
 H -0.50 -1.39 -0.25
 H  1.80 -1.06 -0.56
 H  1.24 -0.50  1.04
 H -0.18  1.85 -1.08
 H  1.29  3.01 -1.15
 H  2.80  3.11  0.57
 H  5.46  1.87 -0.49
 H  5.21  3.60  0.21
