17
set: 5717.00  0.00  0.00
 C  0.98  0.09 -0.03
 N  2.42 -0.04  0.16
 C  3.15  1.16 -0.24
 C  4.63  1.03  0.04
 C  5.10  0.81  1.44
 N  5.39  1.12 -1.00
 O  6.77  1.01 -0.64
 H  0.49 -0.86  0.22
 H  0.68  0.38 -1.06
 H  0.59  0.86  0.66
 H  2.77 -0.83 -0.40
 H  2.76  2.00  0.36
 H  3.02  1.44 -1.31
 H  4.26  0.54  2.09
 H  5.59  1.73  1.82
 H  5.87  0.02  1.48
 H  7.20  1.08 -1.51
