20
set: 2351.00  0.00  0.00
 C  2.08 -0.03  0.67
 C  2.80 -0.17 -0.67
 C  1.98 -0.99 -1.68
 N  1.76 -2.37 -1.20
 C  3.16  1.18 -1.25
 C  4.41  1.91 -0.80
 C  4.33  1.33 -2.20
 H  2.72  0.46  1.42
 H  1.77 -1.01  1.05
 H  1.17  0.59  0.56
 H  3.75 -0.72 -0.50
 H  2.48 -0.94 -2.67
 H  0.99 -0.52 -1.80
 H  2.63 -2.90 -1.25
 H  1.10 -2.85 -1.82
 H  2.30  1.82 -1.46
 H  5.05  1.40 -0.08
 H  4.37  2.99 -0.68
 H  4.24  2.03 -3.03
 H  4.93  0.44 -2.41
