17
set: 3090.00  0.00  0.00
 C  0.72  0.98 -0.37
 O -0.32  0.04 -0.03
 C  1.04 -0.44 -0.15
 C  1.71 -0.94  1.11
 C  1.46 -0.20  2.46
 C  1.42 -1.59  3.16
 C  1.16 -2.24  1.77
 H  0.68  1.37 -1.39
 H  0.96  1.71  0.41
 H  1.21 -1.06 -1.03
 H  2.79 -1.04  0.91
 H  0.47  0.27  2.46
 H  2.22  0.52  2.80
 H  2.40 -1.88  3.56
 H  0.66 -1.74  3.93
 H  1.67 -3.18  1.54
 H  0.08 -2.35  1.57
