16
set: 584.00  0.00  0.00
 C  1.53 -0.47 -0.98
 N  2.98 -0.31 -0.89
 N  3.36  0.98 -0.60
 C  4.55  1.18 -0.12
 C  5.52  0.06  0.18
 C  4.97  2.60  0.13
 H  1.32 -1.49 -1.32
 H  1.14  0.23 -1.72
 H  1.01 -0.29 -0.02
 H  3.42 -1.03 -0.31
 H  5.14 -0.62  0.96
 H  6.49  0.46  0.52
 H  5.70 -0.55 -0.72
 H  4.16  3.28 -0.15
 H  5.87  2.85 -0.46
 H  5.23  2.76  1.19
