19
set: 2888.00  0.00  0.00
 N  1.43 -0.07  1.08
 C  1.88  0.51 -0.20
 C  3.09  1.40  0.02
 C  3.43  2.48 -0.98
 C  2.90  2.85  0.39
 C  3.80  3.52  1.40
 N  3.80  4.98  1.20
 H  0.63 -0.68  0.92
 H  1.10  0.68  1.69
 H  1.11  1.10 -0.74
 H  2.16 -0.33 -0.86
 H  3.93  0.89  0.50
 H  2.78  2.61 -1.84
 H  4.49  2.66 -1.18
 H  1.86  3.21  0.41
 H  4.81  3.05  1.33
 H  3.43  3.32  2.42
 H  4.18  5.20  0.28
 H  4.41  5.42  1.89
