14
set: 650.00  0.00  0.00
 C  0.81  1.32 -0.61
 C -0.36  1.03  0.31
 C -1.40  0.01 -0.17
 C -0.70 -1.34  0.10
 O  0.72 -1.08  0.02
 C  0.93  0.26  0.45
 H  0.74  0.98 -1.65
 H  1.35  2.26 -0.46
 H -0.65  1.78  1.05
 H -2.34  0.09  0.39
 H -1.63  0.14 -1.24
 H -0.95 -1.71  1.11
 H -0.93 -2.12 -0.64
 H  1.61  0.37  1.29
