14
set: 6258.00  0.00  0.00
 N  1.31 -0.32  0.63
 C  2.34  0.03 -0.37
 C  2.75  1.42 -0.26
 C  3.06  2.59 -0.21
 C  3.45  3.97 -0.08
 C  4.35  4.63 -1.06
 O  2.95  4.91 -1.08
 H  1.01 -1.29  0.48
 H  0.48  0.27  0.48
 H  2.04 -0.16 -1.42
 H  3.22 -0.62 -0.18
 H  3.43  4.37  0.94
 H  4.72  4.03 -1.90
 H  5.00  5.44 -0.72
