13
set: 145.00  0.00  0.00
 C  0.99  0.12  0.06
 C  2.50 -0.08 -0.14
 C  3.26  1.22 -0.06
 C  3.89  1.70  1.18
 O  4.69  1.14  0.12
 H  0.46 -0.83 -0.03
 H  0.58  0.81 -0.69
 H  0.77  0.54  1.06
 H  2.69 -0.54 -1.12
 H  2.91 -0.77  0.62
 H  2.96  1.99 -0.79
 H  3.81  1.08  2.09
 H  4.02  2.77  1.35
