16
set: 6791.00  0.00  0.00
 O  2.85 -0.14  0.21
 C  2.64  0.88  0.86
 N  2.97  2.15  0.49
 C  3.66  2.48 -0.76
 C  4.89  3.31 -0.53
 C  5.38  4.23 -1.62
 C  4.78  4.81 -0.37
 H  2.15  0.86  1.86
 H  2.75  2.91  1.14
 H  2.97  3.01 -1.44
 H  3.90  1.51 -1.23
 H  5.66  2.82  0.08
 H  4.80  4.27 -2.54
 H  6.46  4.32 -1.77
 H  5.44  5.31  0.34
 H  3.78  5.26 -0.46
