17
set: 2956.00  0.00  0.00
 N  1.03  0.27  0.12
 C  2.45 -0.04 -0.08
 C  2.70 -0.78 -1.37
 C  1.79 -1.03 -2.32
 C  3.24  1.26 -0.07
 C  3.79  1.83  1.20
 N  4.68  1.13  0.25
 H  0.91  0.75  1.01
 H  0.49 -0.59  0.17
 H  2.88 -0.67  0.73
 H  3.73 -1.10 -1.50
 H  0.75 -0.69 -2.22
 H  2.06 -1.56 -3.23
 H  2.94  1.97 -0.84
 H  3.63  1.30  2.14
 H  3.84  2.92  1.28
 H  5.21  1.82 -0.30
