17
set: 4438.00  0.00  0.00
 O  1.35  2.90 -1.47
 C  2.78  2.99 -1.36
 C  3.26  1.76 -0.60
 C  4.76  1.74 -0.38
 O  5.26  2.83  0.39
 C  5.50  0.43 -0.26
 C  5.69  1.32 -1.48
 H  1.04  3.71 -1.91
 H  3.08  3.90 -0.81
 H  3.25  3.02 -2.36
 H  2.96  0.85 -1.16
 H  2.74  1.71  0.37
 H  4.95  2.70  1.31
 H  4.93 -0.50 -0.38
 H  6.32  0.39  0.45
 H  6.63  1.86 -1.56
 H  5.25  1.00 -2.43
