16
set: 845.00  0.00  0.00
 C  0.65  0.04 -0.61
 C  2.15 -0.17 -0.49
 O  2.74  1.06 -0.02
 C  4.15  0.98  0.12
 O  4.59  0.15  1.18
 C  4.27  0.70  2.46
 H  0.18 -0.88 -0.98
 H  0.42  0.85 -1.30
 H  0.22  0.28  0.37
 H  2.59 -0.43 -1.47
 H  2.38 -0.99  0.21
 H  4.48  2.02  0.27
 H  4.61  0.54 -0.79
 H  4.70  0.01  3.21
 H  3.18  0.77  2.61
 H  4.72  1.70  2.59
