15
set: 2772.00  0.00  0.00
 C  1.00 -0.07  0.56
 N  2.43  0.14  0.39
 C  2.95  1.39  0.13
 N  2.32  2.48 -0.14
 C  4.48  1.44  0.09
 C  5.17  0.41  0.85
 C  5.72 -0.48  1.47
 H  0.83 -1.12  0.81
 H  0.46  0.16 -0.37
 H  0.58  0.56  1.37
 H  3.07 -0.53  0.80
 H  1.30  2.34 -0.12
 H  4.77  2.44  0.44
 H  4.79  1.39 -0.97
 H  6.23 -1.24  2.03
