19
set: 3239.00  0.00  0.00
 C  0.95 -0.02  0.02
 C  2.48  0.02 -0.04
 C  2.96  0.12 -1.49
 C  3.08  1.15  0.83
 C  4.48  0.62  1.20
 O  4.46 -0.81  0.98
 C  3.12 -1.20  0.66
 H  0.59 -0.10  1.06
 H  0.55 -0.87 -0.54
 H  0.52  0.90 -0.42
 H  4.06  0.08 -1.55
 H  2.63  1.06 -1.95
 H  2.57 -0.71 -2.09
 H  2.47  1.29  1.74
 H  3.12  2.11  0.30
 H  5.27  1.04  0.57
 H  4.74  0.82  2.25
 H  3.17 -2.09  0.02
 H  2.55 -1.46  1.58
