14
set: 524.00  0.00  0.00
 C  0.94  0.26 -0.51
 C  2.26  0.02  0.16
 N  3.20  0.88  0.08
 N  4.38  0.44  0.81
 C  5.59  0.98  0.12
 C  5.08  1.64  1.35
 H  0.73 -0.54 -1.23
 H  0.94  1.23 -1.03
 H  0.13  0.25  0.23
 H  2.40 -0.91  0.72
 H  5.41  1.48 -0.83
 H  6.45  0.31  0.16
 H  5.57  1.46  2.31
 H  4.57  2.59  1.22
