17
set: 470.00  0.00  0.00
 C  1.04 -0.31 -0.05
 C  2.56 -0.26 -0.22
 C  3.18  0.98  0.42
 N  4.63  1.02  0.23
 C  5.37  1.84  1.19
 C  5.42  0.35  1.28
 H  0.62 -1.21 -0.52
 H  0.56  0.56 -0.52
 H  0.75 -0.33  1.01
 H  2.83 -0.28 -1.28
 H  3.02 -1.16  0.23
 H  2.91  1.02  1.50
 H  2.76  1.89 -0.05
 H  4.79  2.36  1.97
 H  6.21  2.40  0.78
 H  6.30 -0.20  0.93
 H  4.87 -0.11  2.11
