15
set: 3273.00  0.00  0.00
 C  0.91  0.01  0.07
 C  2.43  0.06  0.05
 C  3.18  1.08  0.97
 C  4.21 -0.03  1.18
 O  5.42 -0.05  1.25
 C  3.21 -1.11  0.75
 O  3.68 -2.23  0.05
 H  0.54 -0.84 -0.51
 H  0.47  0.93 -0.36
 H  0.54 -0.09  1.10
 H  2.81  0.16 -0.98
 H  2.61  1.31  1.89
 H  3.55  2.01  0.53
 H  2.62 -1.45  1.62
 H  4.63 -2.08 -0.13
