13
set: 5650.00  0.00  0.00
 C  3.07 -1.24  0.41
 N  2.56 -0.06 -0.27
 C  3.22  1.15 -0.13
 N  2.56  2.30 -0.23
 O  3.55  3.31 -0.13
 C  4.75  2.71  0.05
 C  4.63  1.36  0.06
 H  2.41 -2.08  0.19
 H  3.14 -1.12  1.51
 H  4.06 -1.50  0.02
 H  1.55  0.06 -0.22
 H  5.60  3.38  0.15
 H  5.41  0.62  0.18
