21
set: 1201.00  0.00  0.00
 C  2.84 -1.03 -0.42
 C  2.35  0.24  0.27
 C  3.38  1.35  0.24
 C  3.50  2.28 -0.95
 C  3.06  2.83  0.39
 C  1.63  3.29  0.55
 C  4.06  3.67  1.15
 H  2.08 -1.83 -0.39
 H  3.75 -1.42  0.06
 H  3.08 -0.84 -1.48
 H  2.08  0.01  1.32
 H  1.42  0.58 -0.21
 H  4.34  1.06  0.69
 H  2.74  2.18 -1.73
 H  4.50  2.54 -1.33
 H  0.92  2.70 -0.05
 H  1.53  4.34  0.23
 H  1.31  3.24  1.60
 H  5.09  3.31  1.01
 H  3.85  3.65  2.24
 H  4.03  4.72  0.82
