17
set: 3785.00  0.00  0.00
 C  1.17 -0.41  0.14
 C  2.68 -0.19  0.00
 C  3.08  1.28  0.18
 C  4.59  1.54  0.02
 O  4.88  2.95 -0.01
 C  5.38  0.86  1.05
 C  6.01  0.33  1.94
 H  0.91 -1.47  0.01
 H  0.61  0.17 -0.61
 H  0.81 -0.11  1.14
 H  3.01 -0.54 -0.99
 H  3.22 -0.81  0.74
 H  2.76  1.63  1.18
 H  2.57  1.90 -0.57
 H  4.91  1.18 -0.97
 H  4.82  3.28  0.91
 H  6.59 -0.14  2.71
