13
set: 6013.00  0.00  0.00
 C  2.91 -0.94  0.81
 O  2.86 -0.17 -0.41
 N  3.38  1.10 -0.21
 C  2.65  2.21  0.18
 C  3.57  3.23  0.18
 N  4.82  2.78 -0.21
 C  4.67  1.49 -0.44
 H  2.48 -1.92  0.55
 H  2.31 -0.47  1.60
 H  3.95 -1.07  1.15
 H  1.59  2.14  0.40
 H  3.40  4.28  0.43
 H  5.43  0.79 -0.78
