19
set: 3753.00  0.00  0.00
 C  1.11 -0.48  0.14
 C  2.61 -0.77  0.08
 C  3.09 -1.39  1.40
 C  2.94 -1.66 -1.12
 O  3.21  0.56 -0.10
 C  4.56  0.65 -0.19
 C  5.19  1.82 -0.37
 H  0.78  0.01 -0.79
 H  0.89  0.19  0.98
 H  0.55 -1.41  0.27
 H  2.89 -0.71  2.24
 H  4.17 -1.62  1.38
 H  2.56 -2.34  1.59
 H  2.62 -1.18 -2.05
 H  2.41 -2.62 -1.03
 H  4.01 -1.88 -1.20
 H  5.12 -0.28 -0.10
 H  4.64  2.76 -0.46
 H  6.28  1.84 -0.43
