15
set: 1113.00  0.00  0.00
 N  1.91 -0.90 -0.97
 C  2.07 -0.24  0.33
 C  2.84  1.05  0.18
 O  4.19  0.72 -0.20
 C  5.04  1.76 -0.41
 C  4.79  3.08 -0.29
 H  1.39 -1.77 -0.86
 H  2.83 -1.16 -1.33
 H  2.57 -0.86  1.10
 H  1.07  0.01  0.71
 H  2.86  1.61  1.13
 H  2.39  1.69 -0.60
 H  6.02  1.39 -0.70
 H  3.82  3.48 -0.01
 H  5.59  3.78 -0.49
