14
set: 6415.00  0.00  0.00
 N  1.78 -0.68  0.72
 C  2.85 -0.46 -0.10
 O  3.39 -1.33 -0.78
 C  3.33  1.01 -0.13
 O  2.62  1.86  0.77
 C  4.83  1.07  0.03
 C  5.49  2.04  0.67
 H  1.32  0.12  1.14
 H  1.33 -1.59  0.71
 H  3.07  1.36 -1.14
 H  3.13  1.88  1.61
 H  5.36  0.23 -0.43
 H  4.98  2.90  1.10
 H  6.57  2.00  0.77
