20
set: 5486.00  0.00  0.00
 C  3.17 -1.16 -0.21
 C  2.68 -0.05  0.72
 O  3.00 -0.35  2.09
 C  3.16  1.37  0.31
 C  2.48  2.45  1.15
 C  4.70  1.51  0.33
 N  5.26  1.26  1.68
 H  2.88 -0.97 -1.26
 H  2.73 -2.12  0.10
 H  4.26 -1.27 -0.17
 H  1.57 -0.03  0.68
 H  3.93 -0.04  2.20
 H  2.86  1.51 -0.75
 H  2.67  2.31  2.22
 H  1.39  2.42  1.01
 H  2.83  3.46  0.86
 H  4.97  2.51 -0.07
 H  5.14  0.77 -0.35
 H  5.07  2.06  2.29
 H  6.27  1.16  1.63
