13
set: 6958.00  0.00  0.00
 C  0.85  0.15 -0.01
 C  2.34 -0.00  0.02
 N  3.20  0.97 -0.05
 C  4.50  0.51 -0.03
 C  4.67 -0.85  0.07
 N  5.84 -1.60  0.22
 S  3.09 -1.61  0.16
 H  0.62  1.22 -0.01
 H  0.37 -0.32  0.86
 H  0.42 -0.30 -0.92
 H  5.32  1.23 -0.09
 H  6.67 -1.04  0.03
 H  5.86 -2.45 -0.34
