21
set: 2304.00  0.00  0.00
 C  1.26 -0.32  1.16
 C  2.72 -0.36  0.69
 C  2.88 -1.48 -0.35
 C  3.19  1.02  0.16
 N  3.03  2.13  1.13
 C  4.65  1.03 -0.31
 N  5.57  0.86  0.83
 H  1.10  0.43  1.96
 H  0.94 -1.29  1.56
 H  0.58 -0.07  0.33
 H  3.36 -0.61  1.56
 H  2.36 -1.23 -1.29
 H  2.46 -2.42  0.02
 H  3.94 -1.67 -0.59
 H  2.57  1.27 -0.72
 H  3.39  1.83  2.04
 H  2.04  2.33  1.27
 H  4.81  1.98 -0.85
 H  4.82  0.22 -1.02
 H  5.66  1.75  1.32
 H  6.51  0.64  0.48
