18
set: 6316.00  0.00  0.00
 N  2.42 -0.34  1.93
 C  2.33 -0.30  0.45
 C  3.34  0.71 -0.12
 C  4.81  0.43  0.20
 O  5.07  0.40  1.62
 C  5.36 -0.86 -0.42
 O  6.69 -1.09  0.00
 H  1.88 -1.12  2.30
 H  2.02  0.51  2.33
 H  1.32 -0.05  0.09
 H  2.56 -1.31  0.08
 H  3.09  1.72  0.25
 H  3.21  0.75 -1.22
 H  5.42  1.26 -0.19
 H  4.26 -0.02  2.02
 H  5.37 -0.78 -1.52
 H  4.71 -1.72 -0.15
 H  6.69 -0.83  0.95
