16
set: 672.00  0.00  0.00
 C  0.99  0.01 -0.02
 C  2.50 -0.04  0.01
 C  3.35 -0.78 -1.04
 C  2.75 -1.52 -2.22
 C  3.35  0.72 -0.97
 O  4.49  1.48 -0.59
 H  0.62  0.87  0.57
 H  0.54 -0.90  0.40
 H  0.61  0.13 -1.04
 H  2.93 -0.11  1.02
 H  4.24 -1.26 -0.63
 H  1.88 -0.99 -2.64
 H  2.41 -2.53 -1.93
 H  3.49 -1.63 -3.03
 H  2.82  1.26 -1.76
 H  4.96  0.99  0.10
