13
set: 4502.00  0.00  0.00
 O  0.92  0.11  0.01
 C  2.35 -0.02  0.01
 C  2.91  1.40  0.00
 C  4.36  1.44  0.00
 C  5.58  1.48 -0.00
 C  7.02  1.48  0.00
 O  7.72  2.49  0.00
 H  0.54 -0.79  0.02
 H  2.71 -0.57 -0.87
 H  2.71 -0.55  0.91
 H  2.53  1.95  0.88
 H  2.53  1.93 -0.89
 H  7.47  0.46 -0.00
