15
set: 1109.00  0.00  0.00
 N  1.01 -0.14 -0.60
 C  2.43  0.03 -0.24
 C  3.24 -0.85 -1.22
 O  2.87 -0.58 -2.57
 C  2.80  1.49 -0.36
 C  3.23  2.24  0.65
 H  0.44  0.57 -0.13
 H  0.67 -1.06 -0.27
 H  2.67 -0.30  0.80
 H  3.07 -1.91 -0.96
 H  4.32 -0.65 -1.11
 H  1.90 -0.44 -2.52
 H  2.71  1.91 -1.37
 H  3.34  1.84  1.66
 H  3.51  3.29  0.51
