14
set: 2569.00  0.00  0.00
 C  0.26  0.60  0.83
 C  1.14  0.15 -0.29
 N  2.24 -0.47 -0.06
 N  2.96 -0.93 -1.13
 C  4.39 -1.04 -0.82
 C  5.11 -1.71 -1.91
 N  5.69 -2.22 -2.78
 H -0.73  0.11  0.76
 H  0.08  1.68  0.79
 H  0.71  0.34  1.79
 H  0.81  0.36 -1.33
 H  2.79 -0.43 -2.02
 H  4.48 -1.63  0.10
 H  4.88 -0.06 -0.63
