18
set: 5593.00  0.00  0.00
 C  1.04 -0.01  0.01
 N  2.49 -0.01  0.10
 C  3.13  1.05  0.93
 C  4.17  0.01  1.40
 C  3.14 -1.06  0.92
 C  3.64 -2.27  0.14
 O  4.29 -3.23  0.98
 H  0.70 -0.91 -0.53
 H  0.70  0.87 -0.56
 H  0.55  0.01  1.01
 H  2.48  1.38  1.76
 H  3.48  1.93  0.37
 H  5.08  0.02  0.79
 H  4.43  0.01  2.47
 H  2.50 -1.40  1.76
 H  4.30 -1.93 -0.68
 H  2.79 -2.79 -0.31
 H  5.10 -2.82  1.33
