20
set: 2702.00  0.00  0.00
 C  1.43 -0.28 -0.32
 N  2.81  0.16 -0.09
 C  2.95  1.61 -0.19
 C  4.41  2.03  0.02
 C  4.65  3.52 -0.05
 C  3.98  4.37  1.01
 C  5.42  4.07 -1.00
 H  1.40 -1.38 -0.31
 H  0.99  0.08 -1.27
 H  0.79  0.07  0.50
 H  3.42 -0.28 -0.77
 H  2.31  2.06  0.59
 H  2.59  2.02 -1.16
 H  5.04  1.53 -0.73
 H  4.73  1.65  1.01
 H  2.88  4.31  0.94
 H  4.27  5.42  0.92
 H  4.25  4.01  2.02
 H  5.90  3.45 -1.76
 H  5.60  5.14 -1.05
