16
set: 1608.00  0.00  0.00
 C  0.91 -1.52  0.57
 N  1.43 -0.17  0.93
 C  0.74  0.45 -0.24
 C -0.23  1.59  0.15
 C -1.50  0.85  0.48
 C -1.44 -0.46  0.18
 C -0.11 -0.85 -0.40
 H  1.63 -2.16  0.03
 H  0.49 -2.08  1.43
 H  2.45 -0.10  0.90
 H  1.40  0.70 -1.09
 H  0.17  2.15  1.02
 H -0.38  2.32 -0.67
 H -2.38  1.34  0.91
 H -2.25 -1.17  0.33
 H -0.18 -1.32 -1.39
