18
set: 2384.00  0.00  0.00
 C  0.61 -0.38  0.37
 C  2.14 -0.38  0.28
 C  2.72  1.03  0.12
 N  4.18  1.00  0.07
 C  4.75  2.34 -0.15
 C  6.19  2.29 -0.37
 C  7.39  2.25 -0.58
 H  0.22 -1.40  0.48
 H  0.15  0.06 -0.53
 H  0.26  0.20  1.23
 H  2.46 -1.00 -0.58
 H  2.58 -0.84  1.18
 H  2.42  1.65  0.98
 H  2.27  1.51 -0.78
 H  4.49  0.39 -0.69
 H  4.54  2.95  0.74
 H  4.28  2.87 -1.01
 H  8.44  2.21 -0.75
