17
set: 2016.00  0.00  0.00
 C  2.75 -0.54  1.43
 C  2.55  0.08  0.04
 C  3.09  1.48 -0.06
 N  4.17  1.79 -0.71
 C  4.39  3.23 -0.48
 C  3.06  3.77  0.12
 N  2.48  2.52  0.64
 H  2.34 -1.56  1.45
 H  2.26  0.05  2.21
 H  3.82 -0.60  1.67
 H  1.48  0.09 -0.22
 H  3.06 -0.51 -0.73
 H  5.22  3.35  0.24
 H  4.68  3.74 -1.40
 H  2.42  4.21 -0.67
 H  3.21  4.51  0.91
 H  1.46  2.48  0.73
