19
set: 5974.00  0.00  0.00
 C  3.43  1.50  3.12
 O  4.12  2.40  2.26
 C  3.55  2.47  0.93
 C  2.32  3.38  0.90
 N  2.66  4.75  1.29
 C  4.68  2.94  0.01
 N  5.73  1.92 -0.03
 H  4.00  1.47  4.07
 H  3.40  0.48  2.69
 H  2.40  1.82  3.34
 H  3.25  1.45  0.62
 H  1.53  2.92  1.53
 H  1.92  3.39 -0.13
 H  3.09  4.73  2.22
 H  1.82  5.32  1.36
 H  5.01  3.94  0.35
 H  4.26  3.06 -1.00
 H  6.12  1.82  0.91
 H  6.50  2.25 -0.62
