18
set: 1661.00  0.00  0.00
 C  0.98  0.02 -0.01
 C  2.50  0.00  0.02
 C  3.13 -1.14  0.89
 C  3.93 -0.27  1.87
 C  4.61  0.77  0.93
 C  3.13  1.20  0.78
 N  2.88  0.78  2.22
 H  0.58 -0.91 -0.45
 H  0.60  0.86 -0.61
 H  0.58  0.11  1.01
 H  2.89 -0.03 -1.01
 H  3.76 -1.83  0.32
 H  2.36 -1.72  1.42
 H  4.45 -0.76  2.70
 H  5.17  0.41  0.05
 H  5.20  1.51  1.49
 H  2.83  2.21  0.48
 H  3.35  1.48  2.81
