17
set: 2424.00  0.00  0.00
 C  2.03 -2.00  0.41
 C  3.12 -1.00 -0.03
 C  2.97  0.33  0.65
 N  2.78  1.41 -0.02
 N  2.66  2.54  0.82
 C  2.44  3.61  0.15
 C  2.27  4.92  0.83
 H  2.19 -2.97 -0.06
 H  1.03 -1.64  0.12
 H  2.04 -2.14  1.50
 H  3.09 -0.84 -1.11
 H  4.11 -1.41  0.23
 H  3.02  0.36  1.75
 H  2.36  3.56 -0.95
 H  2.37  4.82  1.91
 H  1.29  5.36  0.59
 H  3.03  5.64  0.46
