17
set: 5715.00  0.00  0.00
 C  1.29 -0.16  0.34
 N  2.68  0.11  0.74
 C  3.12  1.49  0.45
 C  2.37  2.50  1.34
 C  4.59  1.57  0.73
 N  5.40  1.86 -0.22
 O  6.74  1.90  0.23
 H  1.11 -1.24  0.42
 H  1.05  0.16 -0.69
 H  0.59  0.33  1.03
 H  3.29 -0.52  0.22
 H  2.96  1.77 -0.61
 H  2.51  2.26  2.40
 H  1.29  2.50  1.12
 H  2.75  3.52  1.15
 H  4.95  1.37  1.75
 H  7.22  2.13 -0.58
