20
set: 2682.00  0.00  0.00
 C  1.04 -0.09  0.32
 N  2.48  0.11  0.50
 C  2.94  1.48  0.20
 C  2.45  2.46  1.27
 C  4.45  1.47  0.14
 C  5.17  1.82 -0.93
 C  6.67  1.83 -0.99
 H  0.81 -1.16  0.39
 H  0.65  0.28 -0.66
 H  0.47  0.42  1.12
 H  2.98 -0.53 -0.12
 H  2.56  1.82 -0.79
 H  2.82  2.15  2.27
 H  1.35  2.50  1.31
 H  2.82  3.47  1.06
 H  4.95  1.14  1.06
 H  4.65  2.13 -1.84
 H  7.12  1.49 -0.04
 H  7.05  2.84 -1.20
 H  7.04  1.17 -1.79
