15
set: 2597.00  0.00  0.00
 C  1.02 -0.03  0.04
 N  2.47  0.02  0.10
 C  3.12  1.05  0.94
 C  4.21  0.02  1.31
 C  3.17 -1.04  0.86
 C  3.61 -2.20  0.09
 N  3.97 -3.13 -0.51
 H  0.70 -0.90 -0.54
 H  0.65  0.87 -0.47
 H  0.55 -0.07  1.05
 H  2.51  1.34  1.81
 H  3.43  1.96  0.39
 H  5.07  0.05  0.64
 H  4.53 -0.03  2.36
 H  2.57 -1.41  1.73
