13
set: 3496.00  0.00  0.00
 C  0.96  0.02  0.05
 C  2.17 -0.04  0.00
 C  3.58 -0.04 -0.05
 C  4.40 -1.11 -0.13
 O  5.73 -0.84 -0.15
 C  5.85  0.62 -0.24
 C  4.46  1.21  0.04
 H -0.11  0.06  0.10
 H  4.14 -2.17 -0.16
 H  6.20  0.85 -1.26
 H  6.62  0.93  0.48
 H  4.17  1.97 -0.70
 H  4.38  1.66  1.04
