14
set: 6196.00  0.00  0.00
 N  2.00 -0.42 -1.31
 C  2.45  0.10 -0.01
 C  3.25  1.37 -0.24
 C  2.49  2.64 -0.64
 C  2.95  3.16  0.72
 O  2.84  4.16  1.37
 O  3.64  2.00  1.05
 H  1.28 -1.14 -1.17
 H  2.77 -0.88 -1.80
 H  3.06 -0.60  0.59
 H  1.56  0.36  0.59
 H  4.16  1.18 -0.83
 H  1.40  2.52 -0.74
 H  2.88  3.21 -1.49
