15
set: 3717.00  0.00  0.00
 C  0.69 -0.49  0.14
 C  2.11 -0.71 -0.28
 C  2.51 -1.80 -0.96
 C  3.10  0.36  0.14
 C  3.57  0.24  1.60
 O  3.63 -1.04  2.08
 O  3.90  1.18  2.28
 H  0.28  0.42 -0.32
 H  0.61 -0.34  1.23
 H  0.04 -1.34 -0.13
 H  1.81 -2.59 -1.24
 H  3.54 -1.92 -1.29
 H  2.69  1.37  0.03
 H  4.01  0.30 -0.48
 H  3.29 -1.64  1.39
