18
set: 4758.00  0.00  0.00
 C  0.86  0.12  0.06
 C  2.37 -0.02  0.04
 C  3.21  0.92  0.92
 O  3.93 -0.19  1.52
 C  3.02 -1.15  0.87
 C  3.77 -2.25  0.15
 N  4.45 -3.12  1.11
 H  0.37 -0.72 -0.46
 H  0.53  1.04 -0.43
 H  0.48  0.14  1.10
 H  2.74 -0.04 -1.00
 H  2.62  1.48  1.67
 H  3.89  1.62  0.40
 H  2.35 -1.59  1.63
 H  4.44 -1.77 -0.60
 H  3.03 -2.85 -0.41
 H  5.15 -2.56  1.62
 H  4.97 -3.85  0.62
