22
set: 2358.00  0.00  0.00
 C  0.69  1.07 -1.20
 C  2.02  1.00 -0.45
 C  2.83  2.28 -0.56
 N  4.08  2.20  0.21
 C  4.91  3.40  0.08
 C  6.21  3.28  0.87
 C  7.07  4.54  0.79
 H  0.12  0.13 -1.11
 H  0.85  1.26 -2.27
 H  0.06  1.88 -0.81
 H  2.62  0.15 -0.84
 H  1.84  0.78  0.62
 H  2.24  3.12 -0.16
 H  3.01  2.52 -1.64
 H  4.62  1.40 -0.12
 H  4.32  4.26  0.47
 H  5.14  3.65 -0.98
 H  6.78  2.41  0.50
 H  5.96  3.06  1.92
 H  7.35  4.76 -0.26
 H  8.00  4.42  1.36
 H  6.54  5.42  1.18
