19
set: 2429.00  0.00  0.00
 C  0.79 -0.83  0.93
 C  2.23 -0.62  0.45
 C  2.57  0.86  0.28
 N  3.94  1.03 -0.18
 N  4.38  2.33 -0.18
 C  5.28  2.68 -1.03
 C  5.87  4.05 -1.02
 H  0.57 -1.90  1.05
 H  0.07 -0.42  0.22
 H  0.62 -0.35  1.90
 H  2.38 -1.14 -0.51
 H  2.94 -1.07  1.17
 H  2.49  1.39  1.25
 H  1.84  1.34 -0.41
 H  4.13  0.53 -1.06
 H  5.67  1.96 -1.78
 H  5.38  4.66 -0.25
 H  5.74  4.55 -2.00
 H  6.95  4.03 -0.82
