17
set: 3537.00  0.00  0.00
 C  2.07 -0.60 -1.36
 C  2.44 -0.00  0.00
 C  3.24  1.29 -0.08
 O  4.45  0.99 -0.77
 C  2.43  2.53 -0.54
 O  2.34  3.01  0.83
 C  3.35  2.06  1.26
 H  1.49 -1.52 -1.24
 H  2.97 -0.84 -1.94
 H  1.46  0.10 -1.96
 H  3.03 -0.73  0.59
 H  1.52  0.21  0.58
 H  4.97  1.82 -0.84
 H  1.44  2.37 -1.00
 H  3.02  3.22 -1.18
 H  4.33  2.54  1.41
 H  3.05  1.53  2.18
