15
set: 2287.00  0.00  0.00
 C  2.82 -1.67 -0.20
 C  3.65 -0.69  0.21
 C  3.40  0.72  0.03
 C  4.27  1.68  0.45
 N  4.07  3.04  0.30
 C  4.94  4.06  0.71
 N  6.08  3.99  1.29
 H  3.07 -2.72 -0.03
 H  1.88 -1.46 -0.70
 H  4.58 -0.96  0.71
 H  2.47  1.02 -0.46
 H  5.20  1.40  0.94
 H  3.21  3.34 -0.15
 H  4.53  5.05  0.47
 H  6.38  3.02  1.47
