17
set: 3829.00  0.00  0.00
 C  0.28  0.49  0.09
 C  1.52  0.17  0.92
 C  2.77  0.93  0.45
 C  2.71  2.44  0.64
 O  3.92  0.47  1.25
 C  4.61 -0.59  0.76
 O  4.39 -1.20 -0.26
 H -0.57 -0.13  0.41
 H  0.44  0.28 -0.98
 H -0.03  1.54  0.19
 H  1.74 -0.90  0.85
 H  1.35  0.41  1.98
 H  2.98  0.67 -0.60
 H  2.54  2.69  1.70
 H  1.90  2.86  0.04
 H  3.65  2.90  0.32
 H  5.44 -0.82  1.47
