15
set: 2883.00  0.00  0.00
 N  1.08  0.01  0.02
 C  2.36  0.00  0.08
 N  3.29 -1.07  0.27
 C  4.58 -0.36  0.06
 C  4.29  0.61 -1.12
 C  3.28  1.20 -0.06
 C  4.38  0.85  1.00
 H  0.70 -0.94  0.13
 H  3.12 -1.88 -0.32
 H  5.45 -1.02  0.10
 H  3.87  0.19 -2.05
 H  5.12  1.31 -1.34
 H  2.80  2.18 -0.15
 H  5.22  1.56  0.97
 H  4.06  0.64  2.03
