18
set: 4901.00  0.00  0.00
 C  0.95  0.09  0.16
 C  2.44 -0.07 -0.06
 O  3.23  0.97  0.60
 C  4.17 -0.02  1.13
 C  5.53  0.04  0.47
 C  3.21 -1.18  0.71
 N  3.79 -2.33  0.06
 H  0.40 -0.73 -0.32
 H  0.59  1.03 -0.27
 H  0.71  0.10  1.24
 H  2.66 -0.10 -1.15
 H  4.27  0.10  2.23
 H  5.46 -0.03 -0.62
 H  6.17 -0.77  0.84
 H  6.01  1.00  0.71
 H  2.63 -1.53  1.57
 H  4.17 -2.09 -0.86
 H  3.09 -3.06 -0.09
