20
set: 2675.00  0.00  0.00
 C  2.18 -1.36 -0.04
 N  3.60 -1.08 -0.16
 C  4.13 -1.60 -1.42
 C  3.87  0.36 -0.02
 C  5.34  0.68  0.14
 C  6.05 -0.00  1.27
 C  5.95  1.55 -0.68
 H  1.81 -1.01  0.93
 H  2.01 -2.44 -0.10
 H  1.57 -0.88 -0.84
 H  3.97 -2.69 -1.46
 H  5.20 -1.40 -1.49
 H  3.63 -1.15 -2.31
 H  3.34  0.70  0.89
 H  3.45  0.94 -0.88
 H  5.59  0.27  2.24
 H  7.11  0.27  1.31
 H  5.95 -1.09  1.19
 H  5.41  2.03 -1.51
 H  7.00  1.81 -0.55
