14
set: 5881.00  0.00  0.00
 C  2.95 -1.06 -0.42
 O  2.39  0.20 -0.10
 C  3.35  1.24 -0.05
 C  3.61  1.89 -1.42
 C  2.77  3.13 -1.27
 N  2.35  3.34 -0.08
 O  2.80  2.29  0.76
 H  2.14 -1.80 -0.35
 H  3.75 -1.34  0.30
 H  3.37 -1.10 -1.44
 H  4.27  0.88  0.45
 H  3.28  1.24 -2.25
 H  4.66  2.15 -1.58
 H  2.52  3.84 -2.06
