17
set: 372.00  0.00  0.00
 C  0.89  0.03  0.04
 C  2.41 -0.00  0.04
 C  3.20  1.02  0.89
 N  4.09 -0.06  1.43
 C  3.16 -1.09  0.85
 C  3.81 -2.25  0.11
 H  0.47 -0.85 -0.48
 H  0.50  0.93 -0.46
 H  0.50  0.02  1.08
 H  2.79  0.01 -1.00
 H  2.59  1.45  1.71
 H  3.70  1.84  0.37
 H  4.96 -0.07  0.88
 H  2.53 -1.48  1.66
 H  4.41 -1.89 -0.74
 H  3.05 -2.95 -0.28
 H  4.47 -2.82  0.78
