13
set: 3269.00  0.00  0.00
 C  0.97  0.04  0.01
 C  2.46 -0.07  0.01
 C  3.27 -1.14 -0.05
 C  4.69 -0.70 -0.03
 O  4.65  0.74  0.05
 C  3.32  1.14  0.08
 O  3.01  2.31  0.14
 H  0.50 -0.94 -0.05
 H  0.63  0.66 -0.83
 H  0.63  0.54  0.93
 H  2.97 -2.19 -0.11
 H  5.25 -1.09  0.84
 H  5.25 -0.98 -0.94
