16
set: 740.00  0.00  0.00
 C  0.82  0.07  0.10
 C  2.31  0.01  0.23
 C  3.15  0.98 -0.15
 C  4.65  0.96 -0.06
 C  5.26 -0.30  0.57
 O  5.22  1.21 -1.37
 H  0.44 -0.75 -0.53
 H  0.49  1.02 -0.35
 H  0.33 -0.04  1.08
 H  2.71 -0.90  0.69
 H  2.75  1.90 -0.60
 H  4.98  1.83  0.53
 H  4.97 -1.20  0.01
 H  4.94 -0.42  1.62
 H  6.35 -0.22  0.55
 H  4.82  0.56 -1.97
