18
set: 2175.00  0.00  0.00
 C  1.01 -0.25  0.02
 C  2.53 -0.05  0.01
 C  3.00  1.44 -0.00
 C  2.53  2.18 -1.28
 C  2.53  2.20  1.26
 C  4.48  1.42  0.00
 N  5.64  1.40  0.00
 H  0.79 -1.33  0.03
 H  0.53  0.17 -0.88
 H  0.53  0.19  0.90
 H  2.97 -0.55 -0.86
 H  2.97 -0.53  0.90
 H  2.86  1.64 -2.18
 H  2.95  3.19 -1.31
 H  1.44  2.25 -1.29
 H  2.86  1.69  2.18
 H  1.44  2.28  1.27
 H  2.95  3.22  1.27
