19
set: 3810.00  0.00  0.00
 C  0.98 -0.03  0.03
 C  2.52 -0.01  0.02
 C  3.06 -0.65  1.31
 C  3.01 -0.78 -1.22
 O  4.42 -0.89 -1.33
 C  2.95  1.47 -0.07
 O  4.38  1.67 -0.17
 H  0.56  0.41 -0.89
 H  0.58  0.53  0.89
 H  0.61 -1.06  0.11
 H  2.75 -0.08  2.20
 H  4.16 -0.72  1.29
 H  2.68 -1.68  1.41
 H  2.58 -0.30 -2.13
 H  2.62 -1.81 -1.19
 H  4.77  0.01 -1.20
 H  2.55  2.04  0.79
 H  2.54  1.92 -0.99
 H  4.76  1.47  0.70
