17
set: 1266.00  0.00  0.00
 C  0.99  0.07  0.01
 C  2.49 -0.00  0.01
 C  3.25 -1.13  0.01
 C  4.70 -0.75  0.00
 C  4.67  0.75 -0.00
 C  3.38  1.18 -0.00
 C  2.90  2.61 -0.00
 H  0.55 -0.93  0.01
 H  0.61  0.60 -0.88
 H  0.61  0.61  0.89
 H  2.89 -2.15  0.01
 H  5.23 -1.15 -0.87
 H  5.24 -1.14  0.89
 H  5.56  1.38 -0.01
 H  1.80  2.67 -0.06
 H  3.31  3.17 -0.85
 H  3.21  3.14  0.91
