13
set: 4822.00  0.00  0.00
 C  0.92  0.09 -0.07
 C  2.41  0.08 -0.03
 N  3.22  1.12  0.07
 C  4.51  0.62  0.06
 C  4.51 -0.75 -0.05
 N  3.16 -1.07 -0.09
 O  2.66 -2.36 -0.31
 H  0.59  1.13 -0.12
 H  0.48 -0.37  0.82
 H  0.54 -0.45 -0.95
 H  5.37  1.28  0.13
 H  5.28 -1.51 -0.12
 H  2.53 -2.73  0.59
