14
set: 6881.00  0.00  0.00
 O  0.88  0.23  0.62
 N  2.29  0.28  0.67
 C  2.75  1.13 -0.17
 C  4.23  1.27 -0.29
 O  4.56  2.65 -0.09
 C  5.89  2.97 -0.23
 C  6.91  2.15 -0.50
 H  0.68 -0.43  1.31
 H  2.09  1.74 -0.81
 H  4.56  0.96 -1.30
 H  4.73  0.63  0.45
 H  6.02  4.04 -0.07
 H  6.81  1.08 -0.66
 H  7.91  2.58 -0.57
