20
set: 2167.00  0.00  0.00
 C  2.62 -0.30 -1.63
 C  2.40  0.21 -0.20
 C  2.82  1.65  0.01
 C  1.92  2.64  0.08
 C  4.32  1.88  0.12
 C  4.75  3.35  0.02
 N  4.80  1.20  1.35
 H  2.31 -1.35 -1.73
 H  3.68 -0.25 -1.92
 H  2.05  0.30 -2.35
 H  2.97 -0.42  0.51
 H  1.33  0.11  0.06
 H  0.85  2.43  0.02
 H  2.20  3.68  0.20
 H  4.80  1.34 -0.72
 H  4.36  3.94  0.86
 H  4.41  3.81 -0.92
 H  5.85  3.42  0.05
 H  4.42  1.69  2.16
 H  5.82  1.28  1.41
