13
set: 4861.00  0.00  0.00
 C  0.97  0.10 -0.01
 C  2.45  0.04  0.02
 N  3.21  1.07  0.17
 N  4.62  0.63  0.14
 C  4.64 -0.64 -0.02
 C  3.26 -1.25 -0.08
 O  2.96 -2.13 -1.16
 H  0.63  1.15 -0.02
 H  0.54 -0.40  0.87
 H  0.58 -0.42 -0.89
 H  5.58 -1.20 -0.07
 H  3.09 -1.84  0.84
 H  3.17 -1.66 -1.99
