14
set: 6873.00  0.00  0.00
 O  0.57 -0.06 -0.78
 N  1.51 -0.32  0.25
 C  2.54 -1.30 -0.10
 C  2.03 -2.72 -0.11
 C  2.48 -3.68  0.69
 C  1.76  0.74  1.09
 O  2.71  0.79  1.87
 H -0.21 -0.59 -0.53
 H  3.33 -1.17  0.65
 H  2.95 -1.03 -1.09
 H  1.25 -2.95 -0.86
 H  3.26 -3.48  1.43
 H  2.09 -4.70  0.64
 H  0.97  1.52  0.99
