15
set: 1389.00  0.00  0.00
 C  0.74  0.03 -0.15
 C  2.23 -0.02 -0.21
 C  3.07  0.87  0.38
 C  4.50  0.80  0.30
 C  5.34  1.69  0.89
 C  6.75  1.64  0.82
 C  7.97  1.63  0.79
 H  0.34 -0.90  0.30
 H  0.30  0.10 -1.15
 H  0.39  0.88  0.45
 H  2.68 -0.84 -0.79
 H  2.64  1.69  0.96
 H  4.94 -0.02 -0.28
 H  4.91  2.52  1.48
 H  9.04  1.61  0.75
