13
set: 4300.00  0.00  0.00
 O  1.52 -0.03  1.39
 C  2.38 -0.02  0.55
 C  3.18  1.09 -0.14
 C  4.14 -0.02 -0.71
 C  3.15 -1.12 -0.19
 C  4.42  0.01 -2.13
 C  4.64  0.03 -3.32
 H  3.62  1.86  0.51
 H  2.59  1.59 -0.93
 H  5.08 -0.04 -0.14
 H  2.55 -1.57 -1.00
 H  3.57 -1.93  0.43
 H  4.84  0.05 -4.37
