14
set: 6311.00  0.00  0.00
 N  0.47  0.61 -0.01
 C  1.77  0.23  0.09
 C  2.87  1.02 -0.08
 C  4.20  0.45  0.08
 O  4.44 -0.73  0.38
 C  5.39  1.38 -0.13
 O  6.60  0.69  0.07
 H -0.27 -0.07  0.05
 H  0.22  1.55 -0.30
 H  1.93 -0.82  0.35
 H  2.78  2.07 -0.34
 H  5.30  2.24  0.57
 H  5.34  1.80 -1.15
 H  6.29 -0.23  0.29
