14
set: 5922.00  0.00  0.00
 C  1.34 -0.27  0.53
 O  2.72  0.03  0.29
 C  3.03  1.34  0.09
 C  2.17  2.38  0.04
 C  4.52  1.50 -0.08
 C  5.27  1.21  1.15
 N  5.87  0.99  2.12
 H  1.30 -1.36  0.70
 H  0.72 -0.01 -0.34
 H  0.97  0.26  1.42
 H  1.09  2.26  0.15
 H  2.55  3.38 -0.12
 H  4.76  2.52 -0.40
 H  4.88  0.81 -0.86
