13
set: 7082.00  0.00  0.00
 C  0.98 -0.12  0.02
 N  2.43 -0.14 -0.02
 C  3.03  0.99 -0.03
 S  2.20  2.64 -0.08
 N  3.75  3.46 -0.18
 C  4.79  2.56 -0.06
 C  4.46  1.24 -0.05
 H  0.59 -1.12  0.27
 H  0.56  0.16 -0.97
 H  0.59  0.60  0.76
 H  3.80  4.31  0.39
 H  5.80  2.96 -0.02
 H  5.17  0.42 -0.06
