15
set: 4180.00  0.00  0.00
 C  2.68 -1.01  0.33
 O  4.01 -0.53  0.40
 C  4.08  0.85  0.10
 C  5.51  1.35  0.19
 C  6.54  0.54  0.51
 C  5.68  2.73 -0.10
 C  5.75  3.92 -0.35
 H  2.71 -2.08  0.57
 H  2.25 -0.88 -0.69
 H  2.02 -0.50  1.05
 H  3.46  1.44  0.81
 H  3.69  1.06 -0.92
 H  6.37 -0.51  0.72
 H  7.56  0.94  0.56
 H  5.85  4.96 -0.58
