13
set: 3768.00  0.00  0.00
 C  0.94 -0.02  0.01
 C  2.39  0.00 -0.00
 C  3.60  0.02 -0.01
 C  5.07  0.03 -0.05
 O  5.59 -0.69 -1.19
 C  5.59  1.41  0.01
 C  6.04  2.53  0.05
 H  0.52  0.99 -0.07
 H  0.56 -0.47  0.95
 H  0.55 -0.62 -0.82
 H  5.46 -0.53  0.82
 H  5.25 -0.24 -1.98
 H  6.44  3.53  0.08
