18
set: 309.00  0.00  0.00
 C  1.95 -0.33  1.46
 C  2.53  0.08  0.10
 C  3.04  1.51  0.04
 C  1.99  2.58  0.20
 C  4.35  1.75 -0.14
 C  5.05  3.08 -0.22
 H  1.62 -1.38  1.44
 H  1.08  0.28  1.74
 H  2.70 -0.23  2.26
 H  1.75 -0.05 -0.67
 H  3.36 -0.60 -0.17
 H  1.18  2.42 -0.52
 H  2.39  3.59  0.06
 H  1.53  2.54  1.20
 H  5.01  0.88 -0.25
 H  4.38  3.93 -0.11
 H  5.57  3.19 -1.19
 H  5.83  3.16  0.55
