16
set: 2187.00  0.00  0.00
 C  1.29 -0.36 -0.52
 C  2.79 -0.44 -0.24
 C  3.41  0.94  0.05
 C  4.90  0.90  0.30
 C  5.48  1.23  1.47
 C  5.71  0.46 -0.79
 N  6.34  0.10 -1.71
 H  0.87 -1.35 -0.72
 H  1.09  0.27 -1.40
 H  0.74  0.07  0.33
 H  3.31 -0.89 -1.10
 H  2.98 -1.10  0.62
 H  2.92  1.40  0.92
 H  3.21  1.61 -0.81
 H  4.87  1.57  2.31
 H  6.56  1.17  1.61
