16
set: 2693.00  0.00  0.00
 C  1.46 -0.20 -0.32
 N  2.80 -0.17  0.26
 C  3.51  1.07 -0.05
 C  4.96  1.02  0.39
 C  5.49  1.91  1.26
 C  5.75 -0.01 -0.19
 C  6.36 -0.92 -0.72
 H  1.01 -1.18 -0.13
 H  1.44 -0.01 -1.42
 H  0.83  0.56  0.16
 H  3.35 -0.95 -0.10
 H  3.01  1.90  0.47
 H  3.49  1.31 -1.14
 H  4.86  2.68  1.71
 H  6.54  1.87  1.54
 H  6.93 -1.71 -1.17
