14
set: 6174.00  0.00  0.00
 N  2.47 -0.53 -1.40
 C  2.39  0.04 -0.03
 C  2.80  1.47 -0.00
 C  2.13  2.65  0.15
 C  3.10  3.70  0.08
 C  4.31  3.08 -0.11
 O  4.15  1.72 -0.16
 H  2.24 -1.52 -1.36
 H  3.43 -0.46 -1.73
 H  2.99 -0.52  0.72
 H  1.34 -0.01  0.30
 H  1.05  2.76  0.29
 H  2.93  4.77  0.16
 H  5.32  3.44 -0.23
