14
set: 6006.00  0.00  0.00
 C  1.83 -0.67 -0.72
 O  2.99 -0.04 -1.29
 C  3.50  0.98 -0.53
 O  3.06  1.33  0.55
 N  4.54  1.60 -1.22
 C  5.77  0.91 -1.60
 C  5.77  1.97 -0.54
 H  1.55 -1.46 -1.43
 H  1.01  0.06 -0.61
 H  2.06 -1.10  0.26
 H  6.15  1.14 -2.60
 H  5.88 -0.12 -1.28
 H  5.87  1.65  0.50
 H  6.14  2.97 -0.76
