19
set: 1392.00  0.00  0.00
 C  0.99  0.19  0.88
 C  2.47  0.10  0.68
 C  3.27  1.14  0.39
 C  4.72  1.10  0.19
 C  5.41 -0.23  0.31
 C  5.36  2.26 -0.10
 C  6.82  2.48 -0.34
 H  0.70 -0.16  1.88
 H  0.44 -0.45  0.16
 H  0.63  1.22  0.76
 H  2.90 -0.90  0.77
 H  2.81  2.14  0.30
 H  5.00 -0.95 -0.42
 H  5.24 -0.66  1.31
 H  6.49 -0.16  0.15
 H  4.74  3.17 -0.16
 H  7.42  1.57 -0.24
 H  7.23  3.23  0.36
 H  6.99  2.89 -1.35
