16
set: 1952.00  0.00  0.00
 C  0.97 -0.05  0.15
 C  2.18 -0.04  0.05
 C  3.63 -0.07 -0.05
 C  4.35  1.16  0.60
 C  5.53  0.54  1.40
 N  5.67 -0.87  0.99
 C  4.30 -1.28  0.68
 H -0.09 -0.05  0.24
 H  3.91 -0.12 -1.11
 H  3.67  1.72  1.25
 H  4.70  1.85 -0.18
 H  6.48  1.07  1.26
 H  5.30  0.56  2.48
 H  6.23 -0.91  0.14
 H  4.29 -2.20  0.07
 H  3.76 -1.49  1.62
