15
set: 3908.00  0.00  0.00
 C  1.28 -0.36 -0.82
 C  2.31 -0.12 -0.00
 C  3.05  1.18  0.04
 O  4.46  0.92 -0.10
 C  5.23  2.10  0.01
 C  6.70  1.74 -0.13
 O  7.59  2.56 -0.07
 H  0.75 -1.31 -0.79
 H  0.93  0.38 -1.54
 H  2.65 -0.88  0.71
 H  2.88  1.69  1.01
 H  2.70  1.86 -0.76
 H  5.08  2.61  0.99
 H  4.98  2.85 -0.77
 H  6.89  0.65 -0.29
