15
set: 3724.00  0.00  0.00
 C  1.78 -0.69 -0.99
 C  2.90 -0.28 -0.03
 C  3.07  1.21  0.06
 C  4.21  1.88 -0.17
 C  4.41  3.35 -0.03
 O  3.30  4.15 -0.06
 O  5.51  3.84  0.11
 H  1.67 -1.78 -1.01
 H  2.00 -0.36 -2.02
 H  0.82 -0.25 -0.69
 H  3.86 -0.74 -0.33
 H  2.67 -0.67  0.98
 H  2.16  1.75  0.37
 H  5.12  1.34 -0.42
 H  2.52  3.61 -0.29
