21
set: 1213.00  0.00  0.00
 C  2.72 -1.41 -0.58
 C  2.03 -0.11 -0.15
 C  0.96 -0.37  0.92
 C  3.03  0.97  0.29
 C  3.89  0.66  1.50
 C  3.65  1.80 -0.81
 C  2.60  2.41  0.09
 H  3.49 -1.22 -1.34
 H  1.99 -2.12 -0.99
 H  3.21 -1.90  0.28
 H  1.51  0.30 -1.04
 H  1.39 -0.83  1.82
 H  0.19 -1.06  0.54
 H  0.46  0.56  1.23
 H  4.56  1.51  1.72
 H  4.52 -0.22  1.33
 H  3.28  0.48  2.40
 H  3.37  1.58 -1.84
 H  4.69  2.12 -0.69
 H  2.93  3.15  0.83
 H  1.62  2.60 -0.34
