16
set: 1525.00  0.00  0.00
 C -1.29  0.96  0.54
 C -1.43 -0.40 -0.12
 C -0.38 -1.47  0.18
 C  0.93 -0.95 -0.39
 C  1.56  0.28  0.17
 N  0.72  0.38 -1.04
 C -0.70  0.73 -0.83
 H -2.19  1.58  0.58
 H -0.65  1.06  1.41
 H -2.42 -0.72 -0.45
 H -0.31 -1.71  1.26
 H -0.66 -2.40 -0.33
 H  1.56 -1.65 -0.95
 H  1.20  0.67  1.12
 H  2.62  0.47 -0.02
 H -1.13  1.25 -1.68
