18
set: 1569.00  0.00  0.00
 C -1.50  0.78 -0.04
 C -1.51 -0.78  0.06
 C -0.21 -1.47  0.62
 C  0.84 -0.74 -0.20
 N  2.13 -0.01 -0.09
 C  0.84  0.68  0.19
 C -0.19  1.45 -0.60
 H -2.36  1.10 -0.64
 H -1.66  1.19  0.97
 H -1.68 -1.19 -0.96
 H -2.38 -1.08  0.65
 H -0.09 -1.29  1.70
 H -0.27 -2.56  0.45
 H  0.65 -0.90 -1.27
 H  2.59 -0.15  0.82
 H  0.67  0.82  1.27
 H -0.22  2.54 -0.41
 H -0.08  1.29 -1.68
