14
set: 5394.00  0.00  0.00
 C  0.88 -0.31  0.17
 C  2.38  0.00  0.07
 N  2.65  1.41 -0.18
 C  2.97  1.89 -1.42
 O  3.11  1.19 -2.42
 C  3.16  3.34 -1.46
 C  3.32  4.54 -1.56
 H  0.73 -1.38  0.36
 H  0.37 -0.05 -0.76
 H  0.41  0.25  1.00
 H  2.83 -0.55 -0.76
 H  2.90 -0.29  1.00
 H  2.52  2.09  0.57
 H  3.47  5.59 -1.66
