15
set: 1855.00  0.00  0.00
 C  0.93  0.03  0.03
 C  2.43  0.01  0.02
 C  3.28  1.11 -0.04
 N  4.58  0.65 -0.02
 C  4.58 -0.74  0.05
 C  3.26 -1.15  0.07
 N  2.77 -2.47  0.21
 H  0.55  1.06  0.03
 H  0.53 -0.48  0.92
 H  0.50 -0.47 -0.86
 H  3.06  2.17 -0.08
 H  5.41  1.23 -0.02
 H  5.51 -1.30  0.08
 H  1.92 -2.63 -0.34
 H  3.46 -3.18 -0.06
