15
set: 6884.00  0.00  0.00
 O  0.89  0.74 -0.34
 N  2.10  0.95 -1.10
 C  2.32 -0.10 -2.01
 N  1.50 -0.99 -2.42
 C  3.19  1.32 -0.23
 C  4.29  2.16 -0.83
 C  3.32  2.77  0.16
 H  0.36  1.53 -0.54
 H  3.33 -0.04 -2.42
 H  0.61 -0.90 -1.91
 H  3.48  0.56  0.51
 H  4.17  2.46 -1.87
 H  5.31  1.95 -0.52
 H  3.68  2.98  1.17
 H  2.58  3.46 -0.23
