17
set: 3370.00  0.00  0.00
 C  0.97  0.01  0.08
 C  2.50 -0.01 -0.04
 C  3.03 -1.33 -0.61
 O  2.70 -1.46 -2.00
 C  3.22 -0.37 -2.73
 O  2.69  0.88 -2.32
 C  3.02  1.12 -0.94
 H  0.62  0.96  0.50
 H  0.62 -0.80  0.74
 H  0.50 -0.13 -0.90
 H  2.94  0.13  0.97
 H  2.58 -2.20 -0.10
 H  4.13 -1.38 -0.49
 H  4.33 -0.35 -2.62
 H  2.94 -0.51 -3.78
 H  4.12  1.21 -0.84
 H  2.57  2.09 -0.68
