16
set: 5233.00  0.00  0.00
 C  0.94 -0.01 -0.01
 C  2.47 -0.07  0.03
 C  2.97 -0.82  1.26
 O  2.97 -0.80 -1.10
 C  3.03  1.39 -0.00
 C  4.48  1.47  0.03
 N  5.64  1.54  0.06
 H  0.58  0.52 -0.90
 H  0.53  0.52  0.87
 H  0.53 -1.03 -0.02
 H  2.66 -0.31  2.18
 H  4.07 -0.88  1.25
 H  2.57 -1.84  1.26
 H  2.58 -0.42 -1.91
 H  2.63  1.96  0.86
 H  2.67  1.90 -0.91
