15
set: 1785.00  0.00  0.00
 C  0.94  0.02  0.15
 C  2.43  0.07  0.01
 C  3.18  1.18  0.08
 C  4.63  1.08 -0.03
 N  5.27 -0.04  0.10
 N  4.48 -1.15  0.30
 C  3.16 -1.22 -0.33
 H  0.63 -0.65  0.97
 H  0.47 -0.38 -0.77
 H  0.52  1.02  0.34
 H  2.73  2.16  0.26
 H  5.25  1.98 -0.13
 H  5.04 -1.99  0.23
 H  2.64 -2.10  0.08
 H  3.22 -1.35 -1.43
