16
set: 5095.00  0.00  0.00
 C  0.92 -0.04  0.02
 C  2.45 -0.06 -0.02
 C  2.97 -0.81 -1.25
 C  3.00  1.39  0.02
 O  2.54  2.15  1.15
 C  4.47  1.41 -0.04
 N  5.64  1.42 -0.04
 H  0.55  0.53  0.89
 H  0.53 -1.06  0.07
 H  0.51  0.43 -0.89
 H  2.83 -0.56  0.88
 H  2.63 -0.32 -2.18
 H  2.59 -1.84 -1.26
 H  4.07 -0.86 -1.27
 H  2.62  1.94 -0.86
 H  2.96  1.78  1.94
