13
set: 5828.00  0.00  0.00
 C  1.51 -0.07  0.50
 N  2.59  0.10 -0.19
 N  2.92  1.35 -0.59
 C  2.60  2.60  0.16
 C  4.02  3.06 -0.19
 O  4.63  4.09 -0.05
 C  4.35  1.68 -0.78
 H  1.26 -1.10  0.78
 H  0.84  0.74  0.80
 H  2.46  2.42  1.25
 H  1.76  3.20 -0.22
 H  4.70  1.67 -1.82
 H  5.03  1.10 -0.14
