17
set: 6741.00  0.00  0.00
 O  0.93  2.65 -1.63
 C  2.33  2.32 -1.68
 C  2.75  1.93 -0.27
 C  4.23  1.58 -0.16
 N  5.08  2.75 -0.40
 N  6.39  2.48 -0.66
 C  7.27  3.39 -0.40
 H  0.66  2.94 -2.52
 H  2.93  3.17 -2.03
 H  2.51  1.47 -2.37
 H  2.16  1.07  0.06
 H  2.50  2.76  0.42
 H  4.52  0.82 -0.91
 H  4.44  1.13  0.84
 H  4.91  3.53  0.25
 H  8.30  3.18 -0.67
 H  7.02  4.36  0.07
