17
set: 2420.00  0.00  0.00
 C  1.99 -0.89 -0.15
 C  2.30  0.61  0.05
 C  3.50  1.05 -0.76
 N  3.48  1.66 -1.89
 N  4.73  0.64 -0.20
 C  5.93  1.41 -0.48
 C  5.32  1.42  0.89
 H  1.13 -1.19  0.46
 H  2.85 -1.50  0.14
 H  1.76 -1.10 -1.20
 H  2.49  0.80  1.12
 H  1.43  1.21 -0.24
 H  2.51  1.81 -2.19
 H  5.80  2.30 -1.10
 H  6.83  0.82 -0.67
 H  5.77  0.84  1.70
 H  4.81  2.34  1.20
