13
set: 2993.00  0.00  0.00
 N  1.75 -0.77  0.27
 C  2.29  0.28 -0.24
 C  2.15  0.54 -1.65
 C  2.08  0.84 -2.83
 N  3.03  1.21  0.56
 C  4.20  1.89 -0.07
 C  2.95  2.65  0.19
 H  1.96 -0.77  1.28
 H  2.00  1.07 -3.87
 H  4.41  1.64 -1.11
 H  5.06  1.98  0.59
 H  2.89  3.32  1.05
 H  2.34  2.92 -0.67
