15
set: 6524.00  0.00  0.00
 O  0.96  0.06  0.07
 C  2.38  0.00  0.03
 C  2.99  1.16  0.82
 C  4.36  0.62  1.25
 N  4.10 -0.80  1.40
 C  3.00 -1.25  0.69
 N  2.65 -2.48  0.62
 H  0.61 -0.68 -0.45
 H  2.74  0.02 -1.02
 H  2.36  1.34  1.70
 H  3.06  2.09  0.24
 H  5.13  0.82  0.48
 H  4.71  1.06  2.19
 H  4.78 -1.47  1.74
 H  1.79 -2.59  0.07
