14
set: 6721.00  0.00  0.00
 O  2.12 -0.96  0.75
 C  3.16 -0.43 -0.09
 C  3.02  1.05 -0.14
 C  4.03  1.91  0.11
 C  3.90  3.35  0.01
 N  4.92  4.10  0.25
 O  4.59  5.46  0.11
 H  2.10 -1.93  0.62
 H  3.06 -0.83 -1.12
 H  4.16 -0.71  0.28
 H  2.03  1.44 -0.41
 H  5.02  1.54  0.40
 H  2.93  3.79 -0.26
 H  5.43  5.90  0.31
