14
set: 6643.00  0.00  0.00
 O  0.98 -0.13  0.10
 C  2.19  0.01 -0.05
 C  2.89  1.27 -0.03
 C  4.24  1.43 -0.16
 N  4.63  2.73 -0.03
 C  3.43  3.60 -0.10
 C  2.27  2.63  0.23
 H  2.86 -0.88 -0.22
 H  4.99  0.64 -0.30
 H  5.51  3.05 -0.43
 H  3.33  4.01 -1.12
 H  3.51  4.44  0.61
 H  1.38  2.81 -0.38
 H  1.96  2.71  1.28
