19
set: 6288.00  0.00  0.00
 N  1.05 -0.06  0.28
 C  2.52 -0.12  0.16
 C  3.17  1.27  0.32
 C  2.58  2.08  1.48
 N  2.75  1.36  2.77
 C  4.70  1.13  0.45
 O  5.10  0.39  1.60
 H  0.67 -1.01  0.22
 H  0.65  0.45 -0.51
 H  2.88 -0.55 -0.79
 H  2.90 -0.78  0.96
 H  2.98  1.85 -0.60
 H  1.52  2.32  1.27
 H  3.13  3.03  1.56
 H  2.05  0.62  2.81
 H  2.54  1.99  3.55
 H  5.14  2.15  0.46
 H  5.11  0.61 -0.43
 H  4.47  0.67  2.31
