20
set: 2280.00  0.00  0.00
 C  2.94 -1.07 -0.18
 C  2.69 -0.04  0.92
 C  3.54  1.24  0.78
 C  3.05  2.35  1.74
 N  1.67  2.75  1.43
 C  5.00  0.97  1.03
 C  5.99  1.15  0.15
 H  2.32 -1.97 -0.03
 H  3.99 -1.39 -0.21
 H  2.69 -0.66 -1.17
 H  2.90 -0.49  1.91
 H  1.63  0.27  0.93
 H  3.44  1.62 -0.25
 H  3.78  3.18  1.72
 H  3.06  1.95  2.77
 H  1.66  3.30  0.56
 H  1.32  3.37  2.16
 H  5.24  0.57  2.03
 H  5.80  1.53 -0.86
 H  7.03  0.93  0.40
