16
set: 2432.00  0.00  0.00
 C  3.02 -1.10 -0.61
 C  2.52  0.14  0.11
 N  3.53  1.20  0.09
 C  3.49  2.09 -1.06
 C  3.01  2.57  0.28
 C  3.76  3.48  1.09
 C  4.38  4.28  1.77
 H  2.27 -1.91 -0.57
 H  3.95 -1.47 -0.16
 H  3.22 -0.89 -1.67
 H  2.31 -0.09  1.17
 H  1.56  0.48 -0.34
 H  2.72  1.92 -1.82
 H  4.46  2.43 -1.43
 H  1.92  2.66  0.37
 H  4.93  4.98  2.37
