19
set: 1487.00  0.00  0.00
 C  0.96 -0.13 -0.08
 C  2.48 -0.02  0.07
 C  3.02  1.43  0.02
 C  2.48  2.31  1.17
 C  4.48  1.44 -0.00
 C  5.70  1.43 -0.00
 C  7.16  1.43 -0.00
 H  0.65 -1.19 -0.11
 H  0.62  0.34 -1.02
 H  0.42  0.35  0.75
 H  2.97 -0.59 -0.73
 H  2.80 -0.47  1.02
 H  2.67  1.88 -0.94
 H  2.78  1.89  2.14
 H  1.39  2.38  1.13
 H  2.89  3.33  1.10
 H  7.55  2.46 -0.02
 H  7.55  0.91 -0.89
 H  7.56  0.93  0.89
