15
set: 2560.00  0.00  0.00
 C  1.22 -0.51 -0.27
 C  2.73 -0.42 -0.32
 N  3.55 -1.30 -0.80
 N  3.25  0.72  0.26
 C  4.68  1.01  0.14
 C  5.01  2.28  0.78
 C  5.29  3.33  1.31
 H  0.76  0.33 -0.82
 H  0.86 -0.47  0.77
 H  0.88 -1.45 -0.72
 H  3.03 -2.11 -1.14
 H  2.63  1.52  0.37
 H  4.99  1.03 -0.92
 H  5.24  0.18  0.60
 H  5.54  4.27  1.77
