15
set: 4456.00  0.00  0.00
 O  1.69 -0.75  0.85
 C  2.72 -0.35 -0.08
 C  2.91  1.13  0.04
 C  4.08  1.73  0.28
 C  4.25  3.19  0.36
 C  5.33  3.79  1.18
 O  5.46  3.74 -0.24
 H  1.45 -1.67  0.63
 H  2.42 -0.59 -1.11
 H  3.67 -0.87  0.13
 H  2.00  1.74 -0.10
 H  4.99  1.13  0.42
 H  3.36  3.79  0.19
 H  6.00  3.14  1.75
 H  5.18  4.79  1.61
