15
set: 1035.00  0.00  0.00
 C  2.58 -1.02  1.31
 C  3.00 -0.38 -0.01
 N  3.35  1.03  0.11
 C  4.65  1.48  0.09
 C  4.82  2.98  0.29
 O  5.61  0.73 -0.09
 H  2.33 -2.08  1.17
 H  1.69 -0.52  1.73
 H  3.39 -0.95  2.05
 H  2.21 -0.49 -0.77
 H  3.90 -0.88 -0.40
 H  2.61  1.70  0.30
 H  3.87  3.53  0.35
 H  5.41  3.38 -0.55
 H  5.39  3.14  1.21
