13
set: 2721.00  0.00  0.00
 C  1.01 -0.08 -0.28
 N  2.43 -0.00  0.06
 C  2.94  1.38 -0.00
 C  2.40  2.21  1.08
 C  1.94  2.92  1.95
 C  4.41  1.36  0.04
 N  5.58  1.33  0.02
 H  0.71 -1.14 -0.28
 H  0.75  0.36 -1.27
 H  0.42  0.43  0.49
 H  2.98 -0.57 -0.59
 H  2.67  1.89 -0.96
 H  1.54  3.54  2.73
