17
set: 557.00  0.00  0.00
 C  1.24 -0.31 -0.24
 N  2.67 -0.22  0.04
 C  3.19  1.14 -0.07
 C  4.67  1.19  0.20
 C  5.59  1.66 -0.66
 C  7.06  1.72 -0.40
 H  0.92 -1.36 -0.21
 H  0.94  0.12 -1.21
 H  0.69  0.23  0.55
 H  3.19 -0.82 -0.61
 H  2.66  1.75  0.68
 H  2.98  1.61 -1.06
 H  4.98  0.79  1.17
 H  5.24  2.04 -1.63
 H  7.31  1.31  0.59
 H  7.43  2.75 -0.45
 H  7.62  1.15 -1.16
