19
set: 2619.00  0.00  0.00
 C  0.98  0.04  0.17
 N  2.43  0.01 -0.05
 C  2.92 -1.28 -0.56
 C  2.66 -1.48 -2.06
 N  3.15 -0.37 -2.89
 C  2.67  0.92 -2.38
 C  2.93  1.11 -0.88
 H  0.71  1.00  0.64
 H  0.71 -0.77  0.87
 H  0.36 -0.08 -0.74
 H  2.47 -2.09  0.03
 H  4.01 -1.31 -0.38
 H  3.13 -2.42 -2.41
 H  1.58 -1.58 -2.25
 H  4.18 -0.37 -2.86
 H  3.14  1.73 -2.96
 H  1.58  0.97 -2.59
 H  4.02  1.18 -0.71
 H  2.48  2.05 -0.51
