14
set: 4735.00  0.00  0.00
 C  0.92  0.04 -0.01
 C  2.42 -0.00 -0.00
 C  3.27  1.08  0.00
 N  4.58  0.60  0.01
 C  4.55 -0.77  0.01
 O  5.75 -1.42  0.02
 C  3.23 -1.19  0.00
 H  0.56  1.08 -0.00
 H  0.49 -0.47  0.87
 H  0.50 -0.45 -0.90
 H  3.07  2.15  0.00
 H  5.43  1.15  0.02
 H  5.57 -2.38  0.02
 H  2.89 -2.22  0.00
