15
set: 6220.00  0.00  0.00
 N  2.39 -0.39 -1.60
 C  2.43  0.03 -0.19
 C  3.36  1.24 -0.02
 C  3.47  1.76  1.43
 O  3.21  3.20  1.37
 N  2.78  3.53  0.07
 C  2.86  2.50 -0.69
 H  1.65 -1.08 -1.74
 H  3.27 -0.86 -1.85
 H  2.75 -0.76  0.52
 H  1.41  0.33  0.10
 H  4.35  0.98 -0.43
 H  4.46  1.62  1.88
 H  2.70  1.30  2.08
 H  2.57  2.58 -1.74
