15
set: 1919.00  0.00  0.00
 C  1.06 -0.03  0.10
 C  2.55  0.02  0.02
 N  3.27 -1.06 -0.10
 N  4.61 -0.72 -0.01
 C  4.78  0.75 -0.14
 C  3.36  1.24  0.08
 C  2.94  2.50  0.30
 H  0.72 -1.07 -0.01
 H  0.59  0.58 -0.69
 H  0.70  0.35  1.07
 H  5.17 -1.30 -0.62
 H  5.13  1.01 -1.16
 H  5.49  1.14  0.59
 H  3.63  3.34  0.33
 H  1.88  2.72  0.46
