13
set: 1415.00  0.00  0.00
 C  0.95  0.13 -0.06
 C  2.45 -0.00 -0.02
 C  3.09 -1.20  0.06
 C  2.45 -2.46  0.12
 C  1.95 -3.57  0.18
 C  3.20  1.20 -0.08
 C  3.79  2.26 -0.13
 H  0.59  0.74  0.78
 H  0.47 -0.86 -0.01
 H  0.63  0.63 -0.98
 H  4.19 -1.21  0.08
 H  1.50 -4.54  0.22
 H  4.33  3.19 -0.18
