17
set: 2534.00  0.00  0.00
 C  0.89  0.10  0.35
 C  2.21  0.49 -0.31
 N  2.27  0.13 -1.73
 C  2.65 -1.13 -2.16
 N  2.49 -1.69 -3.31
 C  2.58  1.95 -0.18
 C  1.88  2.89  0.45
 H  0.90  0.30  1.43
 H  0.71 -0.97  0.21
 H  0.05  0.65 -0.09
 H  3.03 -0.09  0.17
 H  1.65  0.66 -2.35
 H  3.20 -1.68 -1.39
 H  1.96 -1.08 -3.96
 H  3.52  2.22 -0.67
 H  0.93  2.68  0.96
 H  2.23  3.93  0.49
