17
set: 1347.00  0.00  0.00
 C  0.87  0.19 -0.11
 C  2.08  0.12 -0.24
 C  3.53  0.06 -0.36
 C  4.25  1.20  0.40
 C  5.76  1.11  0.26
 C  6.65  1.71  1.32
 C  6.55  0.21  1.17
 H -0.19  0.24 -0.01
 H  3.80  0.10 -1.43
 H  3.89 -0.91  0.01
 H  3.97  1.15  1.46
 H  3.89  2.17  0.02
 H  6.13  1.19 -0.77
 H  6.17  2.16  2.19
 H  7.57  2.20  1.01
 H  7.41 -0.33  0.76
 H  6.00 -0.34  1.94
