16
set: 773.00  0.00  0.00
 C  2.26 -0.48  1.44
 C  2.16  0.17  0.05
 C  2.74  1.56 -0.00
 C  2.02  2.68 -0.22
 O  4.10  1.51  0.20
 C  4.79  2.76  0.20
 H  1.84 -1.49  1.43
 H  1.72  0.11  2.19
 H  3.31 -0.55  1.76
 H  1.10  0.23 -0.26
 H  2.68 -0.45 -0.69
 H  0.95  2.60 -0.37
 H  2.46  3.68 -0.25
 H  5.84  2.52  0.38
 H  4.41  3.43  0.99
 H  4.69  3.27 -0.78
