16
set: 6144.00  0.00  0.00
 N  0.86  0.28 -0.16
 C  2.28  0.15  0.12
 C  2.53  0.10  1.62
 O  1.76 -0.94  2.22
 C  3.10 -0.76 -0.78
 C  3.33  0.74 -0.79
 O  4.49  1.29 -0.20
 H  0.62 -0.07 -1.09
 H  0.57  1.26 -0.11
 H  2.26  1.09  2.05
 H  3.59 -0.08  1.84
 H  0.90 -0.90  1.76
 H  2.62 -1.22 -1.65
 H  3.85 -1.38 -0.28
 H  2.95  1.29 -1.66
 H  5.25  1.07 -0.77
