15
set: 1417.00  0.00  0.00
 C  0.84  0.21 -0.17
 C  2.33  0.04 -0.20
 C  2.90 -1.28 -0.44
 C  2.18 -2.40 -0.65
 C  3.15  1.12 -0.00
 C  4.56  1.11 -0.01
 C  5.78  1.15  0.00
 H  0.56  1.26  0.02
 H  0.39 -0.41  0.61
 H  0.39 -0.09 -1.13
 H  3.99 -1.33 -0.45
 H  1.09 -2.41 -0.65
 H  2.68 -3.36 -0.83
 H  2.69  2.10  0.18
 H  6.85  1.18  0.01
