19
set: 477.00  0.00  0.00
 C  0.97 -0.12  0.02
 C  2.50 -0.01 -0.01
 C  3.04 -0.80 -1.21
 N  2.94  1.40 -0.05
 C  2.42  2.18  1.07
 C  4.39  1.53 -0.09
 H  0.53  0.29  0.94
 H  0.67 -1.17 -0.05
 H  0.54  0.42 -0.84
 H  2.89 -0.49  0.92
 H  2.75 -0.31 -2.15
 H  2.62 -1.81 -1.20
 H  4.13 -0.90 -1.19
 H  1.33  2.24  1.04
 H  2.81  3.20  1.01
 H  2.72  1.76  2.06
 H  4.80  1.09 -1.01
 H  4.90  1.04  0.78
 H  4.66  2.59 -0.08
