18
set: 6332.00  0.00  0.00
 N  0.72 -0.13 -0.49
 C  2.19 -0.28 -0.37
 C  2.60 -1.44 -1.28
 O  2.07 -1.28 -2.59
 C  2.86  1.04 -0.78
 C  2.51  2.19  0.12
 C  1.84  3.28 -0.26
 H  0.43  0.78 -0.15
 H  0.24 -0.84  0.07
 H  2.51 -0.52  0.67
 H  2.24 -2.40 -0.84
 H  3.70 -1.50 -1.36
 H  1.18 -0.89 -2.43
 H  2.59  1.27 -1.83
 H  3.95  0.88 -0.76
 H  2.81  2.09  1.17
 H  1.51  3.43 -1.29
 H  1.60  4.08  0.45
