14
set: 203.00  0.00  0.00
 N  1.14 -0.18  0.08
 C  2.61 -0.13  0.03
 C  3.11  1.31 -0.05
 C  4.63  1.44  0.02
 O  5.19  0.96  1.26
 H  0.83 -1.14  0.21
 H  0.75  0.13 -0.81
 H  3.05 -0.71 -0.81
 H  3.00 -0.59  0.96
 H  2.64  1.90  0.76
 H  2.77  1.77 -1.00
 H  4.92  2.49 -0.16
 H  5.10  0.83 -0.76
 H  4.83  1.52  1.97
