15
set: 4581.00  0.00  0.00
 C  0.77 -1.19  0.44
 C  1.71 -0.08 -0.02
 O  1.02  1.09 -0.48
 C -0.07  1.48  0.35
 C -1.33  0.67  0.13
 N -1.48 -0.55 -0.26
 N -0.38 -1.36 -0.46
 H  1.33 -2.13  0.48
 H  0.40 -0.99  1.47
 H  2.30 -0.41 -0.89
 H  2.40  0.18  0.80
 H  0.22  1.51  1.42
 H -0.29  2.52  0.06
 H -2.27  1.22  0.24
 H -0.71 -2.32 -0.49
