15
set: 331.00  0.00  0.00
 C  0.41  1.32  0.30
 C -1.05  1.07 -0.08
 C -1.38 -0.39 -0.00
 C -0.43 -1.33  0.07
 C  1.04 -1.01  0.02
 N  1.26  0.37 -0.43
 H  0.71  2.34  0.03
 H  0.51  1.23  1.41
 H -1.25  1.45 -1.10
 H -1.71  1.64  0.60
 H -2.43 -0.68  0.01
 H -0.69 -2.39  0.16
 H  1.48 -1.22  1.03
 H  1.54 -1.69 -0.68
 H  2.24  0.62 -0.30
