15
set: 3833.00  0.00  0.00
 C  1.85 -0.73  0.35
 C  3.34 -0.56  0.62
 C  3.95  0.59 -0.18
 C  5.43  0.80  0.06
 O  6.13  0.14  0.81
 C  6.11  1.95 -0.72
 O  5.54  2.67 -1.50
 H  1.43 -1.55  0.94
 H  1.66 -0.95 -0.71
 H  1.28  0.18  0.60
 H  3.88 -1.49  0.39
 H  3.51 -0.37  1.70
 H  3.45  1.55  0.03
 H  3.82  0.45 -1.27
 H  7.20  2.04 -0.48
