13
set: 4072.00  0.00  0.00
 C  2.24 -0.83  1.40
 C  2.47 -0.13  0.08
 O  2.11 -0.56 -1.00
 C  3.24  1.23  0.15
 O  2.87  1.91  1.35
 C  4.67  0.96  0.07
 C  5.87  0.75  0.03
 H  1.55 -0.23  2.01
 H  3.18 -0.90  1.96
 H  1.82 -1.82  1.21
 H  2.92  1.80 -0.75
 H  3.56  2.58  1.54
 H  6.92  0.56 -0.01
