17
set: 3483.00  0.00  0.00
 C  2.55 -0.61  1.45
 C  2.59 -0.01  0.04
 C  3.13  1.39  0.00
 C  4.26  1.83 -0.57
 C  4.42  3.31 -0.36
 O  3.25  3.71  0.38
 C  2.43  2.56  0.65
 H  2.17 -1.64  1.42
 H  1.89 -0.04  2.12
 H  3.55 -0.63  1.90
 H  1.57 -0.01 -0.38
 H  3.20 -0.65 -0.62
 H  4.98  1.22 -1.12
 H  5.33  3.56  0.22
 H  4.46  3.87 -1.31
 H  1.42  2.72  0.23
 H  2.32  2.43  1.74
