15
set: 1886.00  0.00  0.00
 C  1.21 -0.14  0.02
 C  2.66  0.23  0.05
 N  3.15  1.29 -0.49
 C  4.60  1.29 -0.22
 C  4.88 -0.03  0.49
 C  4.50 -1.29 -0.20
 N  3.55 -0.65  0.77
 H  1.09 -1.15 -0.40
 H  0.64  0.58 -0.57
 H  0.82 -0.18  1.05
 H  5.16  1.42 -1.16
 H  4.84  2.15  0.42
 H  5.60 -0.06  1.31
 H  4.92 -2.24  0.14
 H  4.24 -1.23 -1.26
