17
set: 1560.00  0.00  0.00
 C -1.51  0.80  0.18
 C -1.39 -0.70 -0.12
 C -0.00 -1.23  0.23
 N  1.04 -1.06 -0.82
 C  1.13 -0.27  0.43
 C  0.87  1.22  0.33
 N -0.37  1.51 -0.40
 H -2.43  1.20 -0.26
 H -1.58  0.94  1.29
 H -1.57 -0.87 -1.19
 H -2.15 -1.25  0.45
 H  0.03 -2.15  0.82
 H  1.71 -1.84 -0.76
 H  1.90 -0.54  1.16
 H  0.85  1.61  1.38
 H  1.71  1.71 -0.19
 H -0.53  2.52 -0.40
