16
set: 5140.00  0.00  0.00
 C  0.86 -0.94 -1.14
 C  1.81 -0.60 -0.26
 C  2.47  0.75 -0.21
 N  3.93  0.62 -0.32
 C  4.64  1.90 -0.24
 C  6.13  1.68 -0.06
 O  6.98  2.44 -0.48
 H  0.41 -1.93 -1.13
 H  0.50 -0.24 -1.89
 H  2.17 -1.32  0.47
 H  2.26  1.22  0.76
 H  2.03  1.41 -0.99
 H  4.15  0.16 -1.20
 H  4.30  2.41  0.69
 H  4.47  2.60 -1.07
 H  6.39  0.75  0.50
