18
set: 2154.00  0.00  0.00
 C  0.95  0.01  0.01
 C  2.41  0.00  0.01
 C  3.63 -0.01  0.01
 C  5.09 -0.01 -0.01
 C  5.64 -0.80 -1.21
 C  5.63  1.45  0.01
 N  7.09  1.46  0.17
 H  0.55  1.03  0.01
 H  0.55 -0.51  0.89
 H  0.55 -0.50 -0.89
 H  5.44 -0.50  0.91
 H  5.25 -0.39 -2.15
 H  5.33 -1.86 -1.15
 H  6.73 -0.74 -1.22
 H  5.08  2.00  0.80
 H  5.38  1.92 -0.95
 H  7.34  1.26  1.14
 H  7.45  2.39 -0.03
