16
set: 4585.00  0.00  0.00
 C  0.65  1.04 -0.37
 N -0.45  0.19  0.13
 C  0.88 -0.40 -0.11
 C  1.64 -0.91  1.09
 C  1.44 -0.22  2.46
 O  1.12 -1.49  3.10
 C  1.08 -2.16  1.81
 H  0.63  1.39 -1.40
 H  1.01  1.78  0.36
 H -1.09 -0.04 -0.64
 H  0.99 -1.03 -1.01
 H  2.70 -1.02  0.83
 H  0.57  0.46  2.49
 H  2.32  0.25  2.91
 H  1.71 -3.07  1.80
 H  0.05 -2.42  1.52
