13
set: 1320.00  0.00  0.00
 C  0.96 -0.05 -0.00
 C  2.18  0.01  0.00
 C  3.59  0.04  0.00
 C  4.41  1.14 -0.00
 C  5.80  0.71 -0.00
 C  5.85 -0.65  0.00
 C  4.46 -1.20  0.01
 H -0.11 -0.09 -0.00
 H  4.07  2.17 -0.01
 H  6.65  1.38 -0.01
 H  6.75 -1.27  0.01
 H  4.25 -1.83 -0.87
 H  4.25 -1.83  0.89
