13
set: 6270.00  0.00  0.00
 N  1.09  0.25 -0.38
 C  2.52  0.02 -0.07
 C  3.09 -0.94 -1.01
 C  3.54 -1.74 -1.81
 C  3.35  1.35 -0.13
 N  2.75  2.31 -0.88
 O  4.42  1.45  0.45
 H  0.59  0.49  0.48
 H  0.67 -0.61 -0.74
 H  2.69 -0.37  0.95
 H  3.95 -2.44 -2.51
 H  1.82  2.11 -1.26
 H  3.20  3.21 -0.99
