18
set: 6303.00  0.00  0.00
 N  1.34 -1.66 -0.32
 C  2.60 -1.20  0.29
 C  2.88  0.25 -0.10
 C  4.11  0.85  0.56
 O  5.28  0.17  0.07
 C  6.48  0.59  0.55
 C  6.71  1.57  1.44
 H  1.14 -2.61 -0.02
 H  1.46 -1.71 -1.34
 H  3.48 -1.82  0.03
 H  2.48 -1.26  1.38
 H  2.01  0.86  0.17
 H  2.99  0.33 -1.20
 H  4.07  0.74  1.66
 H  4.20  1.92  0.32
 H  7.28  0.01  0.11
 H  5.93  2.18  1.90
 H  7.75  1.78  1.72
