18
set: 4693.00  0.00  0.00
 C  0.91 -0.01 -0.06
 C  2.41 -0.18 -0.09
 C  3.15 -0.58 -1.33
 N  3.19  0.81 -0.83
 C  4.46  1.23 -0.23
 C  5.29  1.95 -1.29
 O  4.57  3.04 -1.86
 H  0.62  0.72  0.70
 H  0.41 -0.96  0.17
 H  0.54  0.35 -1.03
 H  2.86 -0.54  0.84
 H  2.60 -0.72 -2.27
 H  4.05 -1.19 -1.22
 H  5.04  0.39  0.20
 H  4.22  1.94  0.59
 H  5.60  1.22 -2.07
 H  6.21  2.37 -0.84
 H  3.66  2.69 -1.97
