15
set: 2225.00  0.00  0.00
 C  0.98 -0.03 -0.35
 C  2.41  0.02 -0.10
 C  3.61  0.04  0.12
 C  5.04  0.11  0.37
 C  5.72  1.43 -0.01
 N  5.15  2.08 -1.08
 N  6.80  1.89  0.53
 H  0.54  0.98 -0.37
 H  0.46 -0.60  0.44
 H  0.75 -0.51 -1.31
 H  5.55 -0.69 -0.20
 H  5.25 -0.09  1.43
 H  4.15  1.92 -1.23
 H  5.49  3.02 -1.25
 H  7.13  1.26  1.27
