17
set: 1310.00  0.00  0.00
 C  2.99 -1.21 -0.52
 C  2.45  0.05  0.16
 C  3.45  1.19  0.16
 C  3.56  2.12 -1.02
 C  2.96  2.63  0.29
 C  3.68  3.58  1.09
 C  4.30  4.37  1.77
 H  2.25 -2.02 -0.51
 H  3.90 -1.58 -0.02
 H  3.26 -1.01 -1.57
 H  2.17 -0.18  1.20
 H  1.53  0.38 -0.34
 H  4.39  0.99  0.69
 H  2.86  1.98 -1.85
 H  4.54  2.50 -1.29
 H  1.87  2.76  0.29
 H  4.85  5.08  2.37
