22
set: 2381.00  0.00  0.00
 C  1.06 -0.23 -0.21
 C  2.59 -0.16 -0.24
 C  3.10  1.26 -0.47
 N  4.55  1.41 -0.34
 C  5.25  0.74 -1.43
 C  4.91  2.83 -0.26
 C  6.36  3.08  0.15
 H  0.71 -1.26 -0.05
 H  0.62  0.13 -1.15
 H  0.65  0.39  0.61
 H  2.96 -0.83 -1.03
 H  3.01 -0.54  0.71
 H  2.63  1.92  0.29
 H  2.73  1.63 -1.46
 H  5.01 -0.32 -1.45
 H  6.34  0.82 -1.29
 H  5.00  1.17 -2.43
 H  4.25  3.29  0.49
 H  4.70  3.36 -1.23
 H  6.59  2.54  1.08
 H  6.52  4.15  0.32
 H  7.08  2.76 -0.62
