17
set: 2798.00  0.00  0.00
 C  6.56 -0.26  1.04
 N  6.29  1.07  0.50
 N  5.03  1.22 -0.00
 C  4.51  2.40 -0.03
 C  3.16  2.63 -0.65
 C  2.15  3.14  0.35
 C  1.54  4.33  0.28
 H  7.63 -0.33  1.28
 H  6.33 -1.00  0.26
 H  5.97 -0.50  1.94
 H  6.59  1.83  1.12
 H  5.03  3.27  0.41
 H  2.83  1.68 -1.09
 H  3.25  3.36 -1.48
 H  1.94  2.47  1.18
 H  1.74  5.03 -0.53
 H  0.82  4.64  1.04
