21
set: 4012.00  0.00  0.00
 C  8.44  0.13 -1.38
 C  7.03  0.42 -0.88
 O  7.12  1.06  0.39
 C  5.86  1.49  0.93
 C  5.07  0.31  1.51
 C  6.16  2.55  1.98
 C  6.82  3.81  1.41
 H  8.40 -0.37 -2.36
 H  8.97 -0.53 -0.67
 H  9.02  1.06 -1.47
 H  6.46 -0.52 -0.81
 H  6.50  1.08 -1.60
 H  5.27  1.95  0.10
 H  5.63 -0.15  2.34
 H  4.87 -0.46  0.76
 H  4.10  0.66  1.90
 H  6.80  2.10  2.75
 H  5.21  2.82  2.47
 H  7.77  3.56  0.92
 H  7.04  4.54  2.21
 H  6.18  4.30  0.67
