17
set: 1060.00  0.00  0.00
 C  0.94 -0.71  0.47
 N  2.14 -0.10 -0.10
 C  2.94 -1.09 -0.81
 C  1.82  1.06 -0.95
 C  1.48  2.28 -0.08
 O  2.50  2.49  0.89
 H  0.37  0.03  1.05
 H  1.24 -1.52  1.16
 H  0.27 -1.14 -0.30
 H  3.23 -1.90 -0.12
 H  3.86 -0.62 -1.19
 H  2.40 -1.55 -1.67
 H  0.99  0.85 -1.66
 H  2.72  1.30 -1.54
 H  0.49  2.15  0.41
 H  1.42  3.18 -0.71
 H  2.80  1.58  1.12
