15
set: 5829.00  0.00  0.00
 C  1.56  2.64  0.28
 N  2.62  2.14 -0.25
 N  3.32  1.19  0.45
 C  4.71  1.04  0.09
 C  5.82  1.81  0.84
 O  6.56  0.58  1.08
 C  5.42 -0.22  0.63
 H  0.99  3.34 -0.31
 H  1.21  2.38  1.29
 H  3.12  1.14  1.45
 H  4.78  1.15 -1.00
 H  5.48  2.27  1.79
 H  6.41  2.54  0.27
 H  5.71 -0.99 -0.10
 H  4.89 -0.69  1.47
