16
set: 4677.00  0.00  0.00
 C  0.94  0.04  0.10
 C  2.46 -0.01  0.06
 C  3.24  1.11  0.82
 C  3.83 -0.04  1.67
 O  4.64 -0.14  2.58
 N  3.09 -0.97  0.98
 C  3.07 -2.42  1.04
 H  0.50 -0.90 -0.27
 H  0.57  0.86 -0.53
 H  0.58  0.20  1.13
 H  2.82 -0.14 -0.98
 H  2.61  1.81  1.39
 H  3.98  1.66  0.23
 H  2.06 -2.80  1.21
 H  3.72 -2.72  1.88
 H  3.47 -2.86  0.11
