17
set: 1262.00  0.00  0.00
 C  1.01 -0.18 -0.01
 C  2.50  0.20 -0.05
 C  2.85  1.45  0.74
 C  3.90  1.25  1.55
 C  4.38 -0.16  1.51
 C  3.36 -1.18  2.01
 C  3.44 -0.86  0.53
 H  0.81 -1.08 -0.61
 H  0.39  0.63 -0.43
 H  0.67 -0.37  1.02
 H  2.77  0.36 -1.11
 H  2.29  2.37  0.65
 H  4.34  2.01  2.20
 H  5.44 -0.39  1.58
 H  3.74 -2.15  2.32
 H  2.52 -0.80  2.59
 H  3.82 -1.64 -0.13
