14
set: 4931.00  0.00  0.00
 C  1.79 -0.80 -1.01
 C  2.09  0.11 -0.08
 C  3.14  1.17 -0.19
 C  3.61  1.59 -1.59
 C  3.55  3.09 -1.45
 N  2.99  3.51 -0.38
 O  2.61  2.42  0.41
 H  1.02 -1.55 -0.83
 H  2.29 -0.83 -1.98
 H  1.58  0.09  0.89
 H  4.01  0.89  0.44
 H  2.93  1.25 -2.39
 H  4.62  1.22 -1.83
 H  3.88  3.82 -2.19
