14
set: 721.00  0.00  0.00
 C  0.99 -0.30 -0.30
 C  1.62  0.56  0.51
 C  2.73  1.47  0.10
 C  2.63  2.97  0.49
 O  3.95  2.96  1.09
 C  4.01  1.51  0.97
 H  0.19 -0.94  0.07
 H  1.27 -0.39 -1.35
 H  1.32  0.62  1.57
 H  2.96  1.34 -0.96
 H  1.84  3.19  1.24
 H  2.55  3.69 -0.34
 H  4.94  1.18  0.49
 H  3.90  1.02  1.95
