17
set: 6318.00  0.00  0.00
 N  0.84 -0.31  0.16
 C  2.31 -0.30  0.18
 C  2.82  1.09 -0.20
 C  4.33  1.25 -0.09
 O  4.94  0.41 -1.10
 N  6.34  0.51 -1.00
 C  6.93 -0.20 -1.88
 H  0.50 -1.23  0.47
 H  0.51 -0.20 -0.80
 H  2.78 -1.05 -0.48
 H  2.64 -0.52  1.21
 H  2.35  1.84  0.46
 H  2.51  1.34 -1.23
 H  4.70  0.95  0.90
 H  4.63  2.30 -0.27
 H  8.02 -0.18 -1.87
 H  6.39 -0.81 -2.62
