15
set: 3120.00  0.00  0.00
 C  1.62 -0.54  0.32
 O  0.84 -1.70 -0.10
 C -0.12 -0.81 -0.78
 C -1.38 -0.57 -0.01
 C -1.38  0.63  0.58
 C -0.13  1.43  0.29
 C  0.75  0.44 -0.49
 H  2.67 -0.64  0.01
 H  1.57 -0.39  1.42
 H -0.27 -1.15 -1.82
 H -2.18 -1.31  0.07
 H -2.18  1.02  1.21
 H  0.36  1.79  1.21
 H -0.36  2.33 -0.30
 H  1.27  0.88 -1.36
