16
set: 5132.00  0.00  0.00
 C  1.94 -0.32  1.43
 C  2.41  0.10  0.04
 C  3.04  1.46  0.01
 C  2.21  2.69  0.33
 O  2.17  3.63 -0.75
 N  4.29  1.51 -0.29
 O  4.78  2.87 -0.27
 H  1.46 -1.32  1.39
 H  1.20  0.38  1.85
 H  2.78 -0.38  2.14
 H  1.56  0.10 -0.66
 H  3.15 -0.63 -0.35
 H  2.60  3.16  1.25
 H  1.17  2.40  0.51
 H  3.10  3.87 -0.92
 H  5.71  2.74 -0.52
