19
set: 3954.00  0.00  0.00
 C  2.39 -1.40 -0.53
 C  1.84 -0.07 -0.02
 O  0.93 -0.27  1.07
 C  2.93  0.95  0.32
 C  3.93  0.55  1.39
 C  3.43  1.80 -0.83
 C  2.54  2.40  0.24
 H  3.05 -1.25 -1.40
 H  1.56 -2.06 -0.83
 H  2.98 -1.92  0.25
 H  1.21  0.38 -0.81
 H  1.40 -0.77  1.76
 H  4.64  1.36  1.58
 H  4.51 -0.34  1.10
 H  3.42  0.34  2.35
 H  3.00  1.64 -1.82
 H  4.48  2.09 -0.84
 H  2.99  3.09  0.95
 H  1.50  2.64 -0.03
