13
set: 3133.00  0.00  0.00
 C  0.72 -1.24  0.52
 O -0.61 -1.56  0.04
 C -1.52 -0.55 -0.05
 C -1.26  0.77 -0.00
 C  0.13  1.23  0.15
 O  1.09  0.81 -0.90
 C  1.15  0.20  0.39
 H  1.39 -1.91 -0.04
 H  0.77 -1.51  1.59
 H -2.52 -0.96 -0.21
 H -2.08  1.48 -0.13
 H  0.30  2.25  0.51
 H  2.04  0.44  0.99
