16
set: 5582.00  0.00  0.00
 C  1.42  2.42 -1.07
 C  2.84  1.91 -1.17
 O  3.33  1.37 -2.14
 O  3.51  2.14  0.01
 C  4.89  1.67  0.07
 C  5.85  2.82 -0.19
 N  5.76  3.82  0.88
 H  1.40  3.45 -0.70
 H  0.87  1.80 -0.34
 H  0.95  2.35 -2.05
 H  5.03  0.87 -0.67
 H  5.02  1.29  1.09
 H  5.66  3.21 -1.21
 H  6.87  2.40 -0.19
 H  4.83  4.24  0.88
 H  6.42  4.58  0.70
