18
set: 2947.00  0.00  0.00
 N  1.20  0.29  0.26
 C  2.60  0.01 -0.14
 C  2.59 -0.62 -1.51
 C  3.13 -1.81 -1.80
 C  3.37  1.32 -0.15
 C  4.00  1.83  1.13
 C  4.86  1.32  0.00
 H  1.20  0.77  1.16
 H  0.69 -0.59  0.37
 H  3.12 -0.68  0.55
 H  2.09 -0.03 -2.29
 H  3.62 -2.41 -1.04
 H  3.11 -2.21 -2.82
 H  2.93  2.08 -0.81
 H  3.91  1.19  2.02
 H  3.97  2.90  1.34
 H  5.44  2.05 -0.57
 H  5.36  0.36  0.13
