19
set: 1510.00  0.00  0.00
 C  0.90 -0.01  0.02
 C  2.42 -0.01  0.02
 C  3.01  1.41  0.00
 C  4.47  1.44 -0.00
 C  5.69  1.43 -0.00
 C  7.15  1.46 -0.00
 C  7.73  2.88 -0.00
 H  0.50 -1.04  0.03
 H  0.49  0.49 -0.88
 H  0.49  0.51  0.90
 H  2.80 -0.57 -0.85
 H  2.80 -0.54  0.91
 H  2.63  1.97  0.87
 H  2.63  1.95 -0.89
 H  7.52  0.91 -0.88
 H  7.52  0.91  0.88
 H  7.40  3.44 -0.89
 H  8.83  2.85 -0.00
 H  7.40  3.44  0.89
