15
set: 5662.00  0.00  0.00
 C  2.33 -0.38 -1.66
 N  2.36  0.12 -0.29
 C  3.37  1.18 -0.09
 C  3.47  1.62  1.38
 O  2.83  2.93  1.46
 N  2.61  3.40  0.16
 C  2.92  2.49 -0.69
 H  1.66 -1.26 -1.71
 H  3.32 -0.68 -2.06
 H  1.90  0.38 -2.33
 H  2.59 -0.65  0.34
 H  4.37  0.88 -0.49
 H  4.51  1.74  1.71
 H  2.93  0.94  2.06
 H  2.81  2.70 -1.75
