19
set: 3830.00  0.00  0.00
 C  2.74 -0.65 -0.89
 C  2.68  0.07  0.46
 C  3.47  1.38  0.54
 C  3.12  2.15  1.83
 O  3.65  3.47  1.89
 C  4.98  1.12  0.46
 O  5.79  2.32  0.49
 H  2.09 -1.54 -0.89
 H  3.75 -1.00 -1.13
 H  2.40  0.01 -1.70
 H  3.02 -0.61  1.26
 H  1.62  0.29  0.69
 H  3.18  2.02 -0.32
 H  3.45  1.55  2.70
 H  2.02  2.25  1.90
 H  4.59  3.38  1.65
 H  5.23  0.53 -0.44
 H  5.30  0.54  1.33
 H  5.67  2.78 -0.35
