19
set: 2655.00  0.00  0.00
 C  1.16  0.95 -0.91
 N  2.36  1.25 -0.15
 C  3.45  1.77 -0.98
 C  4.71  1.96 -0.17
 C  5.65  0.78  0.08
 C  6.08  1.90 -0.83
 N  7.20  2.73 -0.45
 H  0.40  0.50 -0.25
 H  1.33  0.25 -1.77
 H  0.74  1.88 -1.32
 H  2.69  0.41  0.33
 H  3.12  2.73 -1.40
 H  3.68  1.11 -1.85
 H  4.62  2.67  0.66
 H  5.40 -0.18 -0.37
 H  6.12  0.71  1.06
 H  6.08  1.66 -1.89
 H  7.30  2.76  0.57
 H  7.05  3.70 -0.75
