19
set: 1333.00  0.00  0.00
 C  3.06 -1.16 -0.65
 C  2.54  0.03  0.17
 C  3.34  1.32 -0.05
 C  3.32  1.88 -1.50
 C  3.39  3.37 -1.31
 C  3.16  3.72 -0.03
 C  2.88  2.51  0.83
 H  2.49 -2.07 -0.43
 H  4.12 -1.36 -0.41
 H  2.99 -0.97 -1.73
 H  2.56 -0.23  1.24
 H  1.48  0.22 -0.08
 H  4.40  1.12  0.21
 H  2.38  1.60 -2.02
 H  4.14  1.48 -2.12
 H  3.58  4.07 -2.12
 H  3.12  4.74  0.34
 H  3.40  2.54  1.80
 H  1.80  2.45  1.06
