17
set: 3673.00  0.00  0.00
 C  2.98 -0.86 -0.97
 C  2.59  0.07  0.20
 C  2.98  1.50 -0.05
 C  2.09  2.45 -0.40
 C  4.44  1.84  0.13
 C  4.93  3.25 -0.18
 O  5.22  0.98  0.53
 H  2.68 -1.90 -0.75
 H  4.07 -0.85 -1.12
 H  2.49 -0.55 -1.90
 H  3.09 -0.28  1.11
 H  1.50  0.02  0.37
 H  1.03  2.21 -0.50
 H  2.37  3.48 -0.58
 H  4.70  3.53 -1.22
 H  6.01  3.28 -0.02
 H  4.44  3.99  0.47
