14
set: 5492.00  0.00  0.00
 C  1.03 -0.01  0.54
 C  2.46 -0.13  0.01
 O  2.38 -0.69 -1.31
 C  3.54 -1.19 -1.85
 C  4.78 -1.16 -1.34
 C  3.13  1.18 -0.00
 N  3.63  2.23  0.02
 H  1.04  0.42  1.55
 H  0.58 -1.01  0.58
 H  0.43  0.63 -0.12
 H  3.05 -0.81  0.66
 H  3.31 -1.65 -2.81
 H  5.05 -0.67 -0.40
 H  5.58 -1.61 -1.92
