22
set: 2188.00  0.00  0.00
 C  1.57  2.09 -1.39
 C  2.85  2.36 -0.60
 C  3.97  1.38 -0.94
 C  5.25  1.53 -0.10
 C  6.23  0.39 -0.40
 C  5.93  2.90 -0.26
 N  6.31  3.18 -1.65
 H  0.77  2.81 -1.14
 H  1.18  1.08 -1.19
 H  1.75  2.16 -2.47
 H  2.63  2.30  0.48
 H  3.18  3.39 -0.80
 H  4.24  1.50 -2.01
 H  3.60  0.35 -0.82
 H  4.97  1.45  0.97
 H  6.52  0.38 -1.47
 H  5.78 -0.59 -0.18
 H  7.15  0.47  0.20
 H  6.78  2.95  0.45
 H  5.22  3.69  0.06
 H  7.13  2.63 -1.91
 H  6.59  4.16 -1.74
