17
set: 6124.00  0.00  0.00
 N  1.07 -0.14 -0.07
 C  2.51 -0.10  0.03
 C  3.29 -0.71 -1.14
 N  2.64 -1.34 -2.27
 C  3.22  0.79 -0.98
 C  4.46  1.57 -0.60
 O  5.29  1.87 -1.73
 H  0.65  0.70  0.33
 H  0.70 -0.94  0.45
 H  2.98 -0.17  1.02
 H  4.24 -1.18 -0.88
 H  1.69 -0.97 -2.34
 H  2.53 -2.34 -2.08
 H  2.56  1.29 -1.69
 H  5.03  1.01  0.17
 H  4.19  2.54 -0.17
 H  5.36  1.05 -2.25
