17
set: 4087.00  0.00  0.00
 C  0.65  1.57 -0.61
 C  2.11  1.87 -0.90
 O  2.90  1.34  0.18
 C  4.28  1.47 -0.02
 O  4.76  2.83 -0.01
 C  4.80  3.46  1.21
 C  4.30  3.05  2.38
 H  0.02  1.95 -1.43
 H  0.33  2.05  0.32
 H  0.48  0.49 -0.52
 H  2.28  2.95 -0.99
 H  2.43  1.39 -1.85
 H  4.58  1.10 -1.02
 H  4.76  0.91  0.79
 H  5.34  4.41  1.11
 H  3.72  2.14  2.50
 H  4.46  3.68  3.26
