17
set: 3335.00  0.00  0.00
 C  0.95 -0.00  0.37
 C  2.41 -0.07 -0.06
 C  3.28  1.04  0.57
 O  4.47  0.41  1.09
 C  4.00 -0.88  1.55
 C  3.14 -1.37  0.39
 O  3.94 -1.95 -0.66
 H  0.35 -0.79 -0.12
 H  0.50  0.97  0.10
 H  0.84 -0.13  1.46
 H  2.47 -0.03 -1.16
 H  2.73  1.53  1.40
 H  3.61  1.82 -0.13
 H  4.87 -1.51  1.74
 H  3.40 -0.77  2.47
 H  2.43 -2.16  0.68
 H  4.65 -1.31 -0.84
