15
set: 5809.00  0.00  0.00
 C  1.08  0.07  0.15
 N  2.50 -0.00 -0.21
 C  3.03 -1.26 -0.50
 O  2.38 -2.30 -0.48
 C  3.27  1.19 -0.24
 C  4.73  1.08 -0.61
 N  2.80  2.35  0.04
 H  0.54  0.71 -0.56
 H  0.96  0.46  1.17
 H  0.69 -0.95  0.10
 H  4.10 -1.23 -0.76
 H  4.86  0.67 -1.62
 H  5.29  0.45  0.09
 H  5.14  2.09 -0.58
 H  1.80  2.32  0.28
