15
set: 4471.00  0.00  0.00
 O  1.37 -0.40 -1.01
 C  2.46 -0.29 -0.08
 C  2.82  1.15  0.07
 C  4.05  1.64 -0.14
 C  4.42  3.10  0.04
 C  5.53  3.29  0.98
 C  6.45  3.43  1.75
 H  1.03 -1.31 -0.96
 H  3.34 -0.87 -0.43
 H  2.16 -0.70  0.90
 H  2.01  1.81  0.38
 H  4.86  0.97 -0.45
 H  3.54  3.67  0.38
 H  4.71  3.52 -0.94
 H  7.26  3.56  2.43
