14
set: 5934.00  0.00  0.00
 C  1.37 -0.35 -0.09
 O  2.74  0.01 -0.15
 C  2.93  1.40  0.03
 C  4.38  1.76 -0.03
 C  5.37  0.87 -0.23
 C  6.74  1.24 -0.28
 N  7.88  1.52 -0.33
 H  1.32 -1.44 -0.24
 H  0.78  0.15 -0.88
 H  0.93 -0.11  0.90
 H  2.52  1.73  1.01
 H  2.38  1.98 -0.75
 H  4.61  2.82  0.09
 H  5.14 -0.19 -0.36
