13
set: 3512.00  0.00  0.00
 C  1.76 -0.23 -1.24
 C  2.22  0.08 -0.02
 C  3.32  1.04  0.24
 O  3.92  1.69 -0.89
 C  3.14  2.51  0.01
 C  3.83  3.49  0.80
 C  4.39  4.33  1.47
 H  0.95 -0.95 -1.37
 H  2.21  0.21 -2.13
 H  1.79 -0.39  0.87
 H  4.02  0.77  1.03
 H  2.17  2.83 -0.40
 H  4.89  5.08  2.06
