13
set: 6981.00  0.00  0.00
 C  0.84  0.05 -0.00
 C  2.34  0.00 -0.00
 C  3.22  1.06 -0.00
 O  2.77  2.36  0.00
 C  4.60  0.67 -0.00
 C  4.76 -0.69 -0.01
 S  3.23 -1.50 -0.01
 H  0.52  1.10  0.01
 H  0.41 -0.45  0.88
 H  0.41 -0.42 -0.90
 H  3.54  2.95  0.00
 H  5.43  1.38 -0.00
 H  5.68 -1.27 -0.01
