13
set: 4476.00  0.00  0.00
 O  1.07 -0.21 -0.26
 C  2.47 -0.12 -0.11
 C  2.96  1.37 -0.06
 C  2.30  2.07  1.05
 C  1.69  2.58  1.96
 C  4.42  1.43  0.01
 C  5.63  1.42  0.06
 H  0.66  0.23  0.52
 H  2.92 -0.60 -0.98
 H  2.83 -0.63  0.80
 H  2.63  1.84 -1.01
 H  1.19  3.06  2.77
 H  6.70  1.44  0.10
