14
set: 714.00  0.00  0.00
 C  0.92 -0.01  0.11
 C  2.43  0.00 -0.04
 O  2.71  0.04 -1.43
 C  3.16  1.03  0.88
 O  3.54 -0.03  1.80
 C  3.18 -1.05  0.82
 H  0.65 -0.04  1.18
 H  0.50 -0.90 -0.38
 H  0.49  0.88 -0.35
 H  3.68  0.05 -1.55
 H  2.55  1.80  1.37
 H  4.04  1.49  0.40
 H  4.07 -1.47  0.32
 H  2.59 -1.86  1.27
