18
set: 2267.00  0.00  0.00
 C  0.96 -0.09 -0.01
 C  2.50  0.02 -0.01
 C  3.03 -0.71 -1.17
 C  3.42 -1.36 -2.12
 N  2.96  1.42 -0.01
 C  2.46  2.16  1.15
 C  4.43  1.49 -0.04
 H  0.54  0.26  0.94
 H  0.67 -1.14 -0.14
 H  0.54  0.50 -0.83
 H  2.88 -0.51  0.90
 H  3.78 -1.92 -2.96
 H  1.37  2.24  1.12
 H  2.87  3.17  1.13
 H  2.75  1.69  2.12
 H  4.81  0.97 -0.93
 H  4.90  1.05  0.86
 H  4.73  2.55 -0.10
