13
set: 4047.00  0.00  0.00
 C  0.95 -0.04 -0.10
 C  2.48 -0.01  0.02
 O  3.13 -0.81 -0.98
 C  2.98  1.36  0.03
 C  3.37  2.52  0.03
 C  3.87  3.87 -0.00
 O  3.58  4.73  0.82
 H  0.48  0.50  0.74
 H  0.62 -1.09 -0.09
 H  0.63  0.43 -1.04
 H  2.77 -0.48  0.98
 H  2.99 -0.38 -1.84
 H  4.56  4.08 -0.86
