15
set: 3915.00  0.00  0.00
 C  0.93  0.07  0.04
 C  2.41 -0.14 -0.00
 C  2.88 -1.54 -0.19
 O  2.11 -2.49 -0.31
 C  3.31  0.87  0.11
 C  4.82  0.76  0.13
 O  5.34 -0.10  1.14
 H  0.68  1.13  0.17
 H  0.48 -0.52  0.85
 H  0.46 -0.30 -0.89
 H  3.98 -1.69 -0.24
 H  2.90  1.89  0.22
 H  5.24  1.78  0.22
 H  5.19  0.35 -0.82
 H  4.98  0.19  2.00
