15
set: 3172.00  0.00  0.00
 C  1.28  0.21  0.68
 C  2.25 -0.04 -0.20
 C  2.99 -1.35 -0.43
 C  4.21 -0.94 -1.24
 C  5.07  0.17 -0.66
 C  3.96  0.49 -1.62
 O  2.73  0.93 -1.06
 H  0.83  1.20  0.75
 H  0.90 -0.58  1.32
 H  2.37 -2.04 -1.02
 H  3.23 -1.85  0.52
 H  4.65 -1.65 -1.94
 H  4.93  0.46  0.39
 H  6.10  0.26 -1.03
 H  4.14  0.92 -2.61
