15
set: 3430.00  0.00  0.00
 C  0.89 -0.10  0.19
 C  2.28  0.04 -0.37
 O  2.71 -1.17 -1.04
 C  3.47 -0.70 -2.10
 C  3.27  0.61 -2.31
 C  3.75  1.56 -3.33
 O  2.34  1.09 -1.37
 H  0.59  0.84  0.68
 H  0.87 -0.90  0.94
 H  0.18 -0.33 -0.61
 H  3.03  0.28  0.41
 H  4.06 -1.43 -2.65
 H  4.29  2.41 -2.88
 H  2.90  1.98 -3.90
 H  4.41  1.06 -4.04
