15
set: 4153.00  0.00  0.00
 C  3.66 -1.00  0.28
 O  2.67  0.03  0.34
 C  3.12  1.31  0.20
 C  4.38  1.74  0.03
 C  4.71  3.21 -0.10
 C  5.37  3.54 -1.36
 C  5.93  3.81 -2.40
 H  3.12 -1.94  0.40
 H  4.40 -0.88  1.09
 H  4.18 -0.98 -0.70
 H  2.27  2.01  0.26
 H  5.21  1.04 -0.04
 H  5.36  3.52  0.73
 H  3.78  3.80 -0.00
 H  6.42  4.05 -3.32
