15
set: 2714.00  0.00  0.00
 C  2.67 -0.75 -1.17
 N  2.32  0.04  0.01
 C  2.89  1.39  0.02
 C  2.43  2.16  1.24
 C  1.72  3.29  1.18
 C  4.38  1.38 -0.03
 N  5.54  1.29 -0.06
 H  2.23 -1.75 -1.08
 H  3.76 -0.86 -1.34
 H  2.23 -0.27 -2.06
 H  2.63 -0.46  0.86
 H  2.54  1.91 -0.88
 H  2.72  1.73  2.21
 H  1.43  3.73  0.22
 H  1.40  3.81  2.08
