16
set: 5012.00  0.00  0.00
 C  0.97  0.01  0.19
 C  2.40  0.31 -0.29
 C  2.73 -0.26 -1.65
 C  1.90 -0.93 -2.46
 C  2.65  1.80 -0.32
 N  3.57  2.30  0.41
 O  3.65  3.71  0.24
 H  0.82  0.42  1.20
 H  0.79 -1.07  0.23
 H  0.22  0.46 -0.47
 H  3.12 -0.11  0.43
 H  3.77 -0.09 -1.97
 H  0.86 -1.13 -2.20
 H  2.24 -1.31 -3.43
 H  2.02  2.43 -0.97
 H  4.37  3.94  0.85
