17
set: 3366.00  0.00  0.00
 C  0.98 -0.12  0.22
 C  2.46  0.06 -0.06
 C  2.79  0.09 -1.56
 O  2.22  1.20 -2.25
 C  3.21  1.14  0.77
 C  4.07 -0.03  1.28
 O  3.26 -1.01  0.56
 H  0.80 -0.18  1.30
 H  0.61 -1.04 -0.24
 H  0.40  0.74 -0.17
 H  2.48 -0.88 -2.00
 H  3.88  0.18 -1.69
 H  1.26  1.04 -2.35
 H  2.59  1.61  1.54
 H  3.72  1.91  0.18
 H  5.11 -0.04  0.92
 H  4.06 -0.22  2.36
