14
set: 4558.00  0.00  0.00
 C  1.68 -0.13  0.27
 C  0.91 -1.45  0.54
 C -0.25 -0.94 -0.37
 C -1.31 -0.14  0.32
 N -1.23  1.14  0.17
 O -0.10  1.45 -0.63
 C  0.65  0.23 -0.84
 H  2.72 -0.22 -0.06
 H  1.63  0.59  1.10
 H  1.41 -2.33  0.11
 H  0.65 -1.67  1.59
 H -0.67 -1.66 -1.09
 H -2.15 -0.53  0.89
 H  1.02  0.24 -1.87
