14
set: 5858.00  0.00  0.00
 C  1.09  1.60  0.19
 N  2.22  1.07 -0.11
 O  3.28  1.96  0.14
 C  4.53  1.29 -0.14
 C  5.60  2.34 -0.13
 C  6.35  2.65  1.10
 O  6.94  1.84  0.06
 H  0.21  0.98  0.01
 H  0.99  2.62  0.59
 H  4.46  0.80 -1.13
 H  4.74  0.52  0.62
 H  5.51  3.13 -0.89
 H  6.11  2.11  2.02
 H  6.80  3.64  1.23
