17
set: 3162.00  0.00  0.00
 C  1.06 -0.57  0.03
 C  2.53 -0.62 -0.34
 C  3.01 -0.20 -1.68
 C  3.32  0.68 -0.47
 C  4.73  0.69  0.04
 C  5.19  1.97  0.70
 O  5.46 -0.29 -0.06
 H  0.92 -0.46  1.11
 H  0.55 -1.49 -0.28
 H  0.56  0.28 -0.47
 H  3.11 -1.43  0.12
 H  2.29  0.20 -2.39
 H  3.87 -0.72 -2.11
 H  2.76  1.61 -0.37
 H  5.13  2.81 -0.02
 H  6.22  1.86  1.05
 H  4.53  2.23  1.54
