15
set: 4442.00  0.00  0.00
 O  0.41  1.58  0.20
 C  1.59  1.24  0.19
 C  2.72  2.14  0.01
 C  3.99  1.66  0.03
 C  5.24  2.41 -0.13
 C  5.30  3.62 -1.07
 C  5.36  3.84  0.40
 H  1.87  0.16  0.31
 H  2.49  3.20 -0.12
 H  4.10  0.58  0.16
 H  6.15  1.82 -0.07
 H  4.38  3.86 -1.60
 H  6.22  3.73 -1.65
 H  6.31  4.12  0.86
 H  4.47  4.25  0.90
