18
set: 5198.00  0.00  0.00
 C  2.10 -0.69  0.55
 C  2.10 -1.17 -0.90
 C  2.57 -2.61 -1.04
 N  2.70 -2.98 -2.46
 O  0.75 -1.14 -1.44
 C  0.27  0.05 -1.90
 C  0.86  1.26 -1.94
 H  1.67  0.31  0.64
 H  3.13 -0.65  0.93
 H  1.52 -1.38  1.18
 H  2.74 -0.53 -1.54
 H  1.88 -3.25 -0.46
 H  3.56 -2.69 -0.57
 H  1.77 -2.94 -2.89
 H  3.02 -3.94 -2.54
 H -0.75 -0.09 -2.27
 H  1.87  1.45 -1.57
 H  0.30  2.09 -2.37
