19
set: 1472.00  0.00  0.00
 C  2.46 -0.49  1.48
 C  2.77 -0.00  0.05
 C  3.19  1.46 -0.02
 C  2.27  2.43 -0.12
 C  4.65  1.78  0.02
 C  5.51  1.07  1.04
 C  5.18  2.67 -0.85
 H  2.13 -1.54  1.46
 H  1.65  0.11  1.92
 H  3.33 -0.42  2.14
 H  1.87 -0.13 -0.57
 H  3.55 -0.64 -0.39
 H  1.21  2.20 -0.19
 H  2.55  3.49 -0.11
 H  5.17  1.29  2.06
 H  6.56  1.38  0.95
 H  5.46 -0.02  0.91
 H  4.57  3.14 -1.62
 H  6.24  2.92 -0.82
