15
set: 6654.00  0.00  0.00
 O  2.36 -0.32 -1.53
 C  2.41  0.02 -0.14
 C  3.25  1.29  0.00
 C  3.44  1.75  1.46
 N  3.49  3.23  1.31
 N  2.76  3.58  0.17
 C  2.63  2.54 -0.58
 H  1.79 -1.10 -1.64
 H  2.87 -0.80  0.45
 H  1.39  0.20  0.26
 H  4.22  1.10 -0.48
 H  4.36  1.38  1.92
 H  2.57  1.44  2.08
 H  3.16  3.76  2.11
 H  2.17  2.62 -1.57
