18
set: 5466.00  0.00  0.00
 C  2.13  1.43  2.28
 C  2.88  1.42  0.96
 O  3.85  2.46  0.97
 C  4.59  2.51 -0.25
 C  5.58  3.65 -0.17
 C  6.95  3.44  0.36
 N  6.72  3.53 -1.10
 H  1.36  0.64  2.29
 H  1.63  2.40  2.43
 H  2.82  1.27  3.12
 H  2.18  1.57  0.11
 H  3.37  0.44  0.80
 H  3.90  2.67 -1.10
 H  5.13  1.57 -0.44
 H  5.13  4.64 -0.02
 H  7.24  2.44  0.71
 H  7.43  4.27  0.88
 H  6.99  4.46 -1.43
