15
set: 4351.00  0.00  0.00
 O  0.96  0.09  0.02
 C  2.38  0.03 -0.00
 C  2.98  1.17  0.83
 C  4.34  0.60  1.20
 O  4.15 -0.83  1.32
 C  3.01 -1.20  0.65
 C  2.57 -2.46  0.60
 H  0.61 -0.67 -0.47
 H  2.75  0.10 -1.05
 H  2.35  1.30  1.72
 H  3.04  2.12  0.29
 H  5.10  0.79  0.42
 H  4.73  0.96  2.16
 H  1.65 -2.71  0.06
 H  3.09 -3.27  1.11
