16
set: 4900.00  0.00  0.00
 C  0.98  0.00  0.04
 C  2.49 -0.05 -0.11
 O  2.84 -1.20 -0.96
 C  3.30 -0.67 -2.14
 C  3.44  0.66 -2.17
 C  3.11  1.21 -0.80
 N  4.30  1.82 -0.19
 H  0.70  0.81  0.72
 H  0.59 -0.94  0.44
 H  0.51  0.19 -0.94
 H  2.98 -0.24  0.86
 H  3.50 -1.41 -2.92
 H  3.80  1.26 -3.00
 H  2.34  2.01 -0.85
 H  5.04  1.12 -0.11
 H  4.09  2.15  0.76
