15
set: 5201.00  0.00  0.00
 C  0.88 -0.39  0.35
 C  2.31 -0.17 -0.08
 C  3.19 -1.18 -0.23
 N  2.66  1.17 -0.34
 O  3.99  1.40 -0.72
 C  1.93  2.31 -0.04
 N  2.30  3.54 -0.15
 H  0.67  0.07  1.32
 H  0.70 -1.47  0.44
 H  0.16  0.01 -0.38
 H  2.86 -2.20 -0.04
 H  4.22 -1.01 -0.50
 H  4.00  1.25 -1.69
 H  0.92  2.08  0.32
 H  3.27  3.58 -0.48
