15
set: 4834.00  0.00  0.00
 C  0.98 -0.02  0.18
 C  2.47  0.06 -0.10
 N  2.71  0.03 -1.53
 C  3.24  1.11  0.80
 N  3.89 -0.04  1.46
 C  3.29 -1.02  0.69
 O  3.38 -2.23  0.69
 H  0.78 -0.02  1.26
 H  0.57 -0.94 -0.26
 H  0.45  0.84 -0.27
 H  3.71  0.08 -1.75
 H  2.24  0.81 -2.00
 H  2.61  1.71  1.47
 H  3.94  1.76  0.25
 H  4.51 -0.10  2.27
