18
set: 5695.00  0.00  0.00
 C  0.93 -0.05  0.11
 N  2.39  0.08  0.23
 C  2.86  1.48  0.24
 C  2.44  2.19  1.53
 C  4.39  1.45  0.11
 C  5.07  2.77 -0.17
 O  4.51  3.83 -0.38
 H  0.68 -1.10 -0.08
 H  0.49  0.57 -0.69
 H  0.45  0.24  1.06
 H  2.81 -0.39 -0.57
 H  2.46  2.05 -0.62
 H  2.81  1.64  2.41
 H  1.34  2.26  1.61
 H  2.83  3.21  1.54
 H  4.70  0.78 -0.72
 H  4.86  1.01  1.01
 H  6.19  2.70 -0.20
