15
set: 3299.00  0.00  0.00
 C  0.99 -0.08  0.04
 C  2.48  0.03  0.07
 C  3.19  1.14 -0.20
 C  4.68  1.18 -0.01
 O  5.15 -0.02  0.64
 C  4.49 -1.14  0.11
 O  3.09 -1.15  0.42
 H  0.67 -0.84 -0.69
 H  0.53  0.88 -0.21
 H  0.62 -0.41  1.03
 H  2.68  2.05 -0.51
 H  5.22  1.32 -0.97
 H  4.97  2.00  0.66
 H  4.91 -2.03  0.59
 H  4.59 -1.18 -0.99
