15
set: 3598.00  0.00  0.00
 C  1.14 -1.18  0.64
 C  2.46 -0.60  0.29
 C  2.77  0.71  0.08
 C  1.87  1.87  0.17
 C  0.83  2.04  1.01
 C  4.16  1.02 -0.38
 O  5.08  0.22 -0.43
 H  1.01 -2.16  0.14
 H  0.30 -0.52  0.38
 H  1.08 -1.38  1.72
 H  3.30 -1.29  0.15
 H  2.11  2.70 -0.50
 H  0.56  1.29  1.76
 H  0.24  2.96  0.99
 H  4.31  2.08 -0.70
