20
set: 1941.00  0.00  0.00
 C  0.58  0.22  0.44
 C  1.78  0.11 -0.50
 C  2.93  1.04 -0.14
 C  3.59  0.85  1.22
 C  4.23 -0.53  1.42
 C  3.78  1.60 -1.23
 N  2.72  2.44 -0.61
 H -0.25 -0.41  0.09
 H  0.22  1.26  0.48
 H  0.83 -0.09  1.46
 H  1.47  0.36 -1.53
 H  2.15 -0.93 -0.53
 H  2.84  1.02  2.01
 H  4.36  1.63  1.35
 H  3.49 -1.34  1.38
 H  4.74 -0.59  2.39
 H  4.98 -0.73  0.63
 H  3.58  1.32 -2.27
 H  4.83  1.82 -1.01
 H  3.17  3.09  0.05
