14
set: 798.00  0.00  0.00
 C  0.93 -0.04 -0.06
 C  2.45 -0.01  0.01
 C  3.01  1.43  0.04
 O  2.53  2.18  1.17
 C  4.48  1.43 -0.01
 C  5.69  1.40 -0.01
 H  0.56 -1.08 -0.04
 H  0.56  0.43 -0.98
 H  0.48  0.50  0.79
 H  2.89 -0.53 -0.86
 H  2.82 -0.54  0.90
 H  2.63  1.98 -0.83
 H  3.05  1.89  1.95
 H  6.76  1.40 -0.01
