17
set: 3890.00  0.00  0.00
 C  1.29 -0.58  0.04
 C  2.78 -0.28 -0.11
 C  3.12  1.20 -0.05
 O  2.28  2.08 -0.00
 C  4.62  1.54 -0.02
 C  5.08  1.69  1.40
 C  6.00  0.92  1.99
 H  1.11 -1.66 -0.04
 H  0.71 -0.07 -0.73
 H  0.92 -0.24  1.01
 H  3.17 -0.66 -1.07
 H  3.39 -0.79  0.66
 H  4.74  2.50 -0.56
 H  5.21  0.77 -0.54
 H  4.59  2.48  1.97
 H  6.51  0.12  1.45
 H  6.28  1.07  3.04
