17
set: 3737.00  0.00  0.00
 C  0.90 -0.30 -0.19
 C  2.36  0.02 -0.21
 C  2.99  1.19  0.07
 C  2.25  2.43  0.48
 O  2.47  2.81  1.86
 C  4.45  1.24 -0.03
 C  5.24  2.29  0.28
 H  0.71 -1.16  0.47
 H  0.55 -0.60 -1.19
 H  0.28  0.54  0.16
 H  3.00 -0.82 -0.51
 H  1.17  2.33  0.28
 H  2.61  3.29 -0.11
 H  2.36  2.00  2.39
 H  4.93  0.32 -0.39
 H  4.83  3.22  0.68
 H  6.32  2.24  0.16
