17
set: 4146.00  0.00  0.00
 C  1.19 -0.10 -0.70
 O  2.59 -0.21 -0.41
 C  3.24  0.99 -0.30
 C  4.58  1.08 -0.08
 C  5.45 -0.15  0.03
 C  5.16  2.40  0.03
 C  6.46  2.68  0.25
 H  0.79 -1.12 -0.72
 H  1.03  0.38 -1.68
 H  0.67  0.48  0.08
 H  2.61  1.88 -0.38
 H  4.87 -1.06 -0.11
 H  5.92 -0.19  1.03
 H  6.26 -0.12 -0.71
 H  4.46  3.24 -0.06
 H  7.21  1.90  0.36
 H  6.81  3.71  0.32
