14
set: 2472.00  0.00  0.00
 C  0.97 -0.02  0.01
 C  2.51 -0.01  0.02
 N  2.97 -0.71  1.24
 C  3.02 -0.75 -1.16
 C  3.42 -1.37 -2.12
 C  3.00  1.38 -0.05
 C  3.40  2.53 -0.03
 H  0.58  0.46 -0.90
 H  0.60  0.53  0.89
 H  0.62 -1.06  0.06
 H  2.71 -0.14  2.05
 H  4.00 -0.74  1.24
 H  3.77 -1.91 -2.97
 H  3.76  3.54 -0.03
