14
set: 4927.00  0.00  0.00
 C  0.90 -0.15  0.17
 C  2.31  0.09 -0.30
 O  2.85 -1.08 -0.94
 N  3.65 -0.61 -2.04
 C  3.30  0.62 -2.21
 C  3.78  1.50 -3.30
 O  2.38  1.11 -1.33
 H  0.50  0.76  0.64
 H  0.89 -0.96  0.91
 H  0.26 -0.43 -0.68
 H  2.98  0.41  0.52
 H  4.28  2.39 -2.89
 H  2.94  1.84 -3.91
 H  4.49  0.95 -3.94
