18
set: 2818.00  0.00  0.00
 N  0.80 -0.01 -0.16
 C  2.20  0.02  0.17
 C  3.17 -0.85 -0.61
 C  2.68 -1.49 -1.91
 C  2.82 -0.39 -2.99
 C  2.70  0.95 -2.23
 C  3.18  0.66 -0.80
 H  0.34  0.86  0.12
 H  0.33 -0.77  0.34
 H  2.48  0.16  1.22
 H  3.96 -1.35 -0.04
 H  3.28 -2.38 -2.16
 H  1.63 -1.81 -1.82
 H  3.82 -0.45 -3.44
 H  2.09 -0.49 -3.80
 H  3.31  1.74 -2.69
 H  1.66  1.30 -2.22
 H  3.98  1.27 -0.38
