15
set: 5420.00  0.00  0.00
 C  1.44  0.82  0.45
 C  2.90  0.54  0.26
 N  3.72  1.52  0.11
 N  5.05  1.26 -0.06
 C  5.63 -0.07 -0.08
 C  5.86  2.38 -0.21
 O  7.07  2.35 -0.37
 H  1.08  0.41  1.40
 H  0.85  0.34 -0.35
 H  1.25  1.90  0.43
 H  3.22 -0.51  0.26
 H  5.20 -0.67 -0.91
 H  5.44 -0.59  0.87
 H  6.70  0.05 -0.23
 H  5.25  3.31 -0.17
