15
set: 1103.00  0.00  0.00
 N  0.86  0.24 -0.42
 C  2.31 -0.03 -0.41
 C  3.00  0.78  0.69
 C  4.48  0.53  0.75
 C  5.23  0.51  2.02
 O  4.90 -0.72  1.35
 H  0.40 -0.38 -1.09
 H  0.69  1.19 -0.74
 H  2.81  0.17 -1.38
 H  2.46 -1.10 -0.20
 H  2.53  0.55  1.66
 H  2.84  1.86  0.50
 H  5.05  0.78 -0.15
 H  4.68  0.69  2.96
 H  6.29  0.77  2.04
