16
set: 2074.00  0.00  0.00
 C  1.13  0.15  0.04
 C  2.65 -0.07 -0.11
 C  2.96 -0.85 -1.31
 C  3.20 -1.46 -2.33
 C  3.40  1.26 -0.11
 C  3.74  1.95  1.16
 N  4.78  1.23  0.39
 H  0.91  0.70  0.97
 H  0.60 -0.81  0.07
 H  0.73  0.72 -0.81
 H  3.02 -0.64  0.77
 H  3.42 -2.02 -3.22
 H  3.18  1.89 -0.98
 H  3.49  1.49  2.11
 H  3.74  3.05  1.16
 H  5.36  1.89 -0.14
