15
set: 510.00  0.00  0.00
 C  0.92  0.01  0.10
 C  2.44 -0.06 -0.08
 N  2.89 -0.78 -1.27
 C  3.04  1.37 -0.09
 C  4.49  1.42 -0.01
 C  5.70  1.48  0.09
 H  0.63  0.51  1.03
 H  0.48 -1.00  0.11
 H  0.45  0.57 -0.74
 H  2.87 -0.58  0.79
 H  2.46 -0.37 -2.11
 H  2.57 -1.75 -1.23
 H  2.61  1.95  0.74
 H  2.70  1.88 -1.02
 H  6.77  1.51  0.17
