17
set: 3074.00  0.00  0.00
 C -1.74  0.86  0.56
 C -1.19 -0.26 -0.30
 C -0.31 -1.34  0.29
 C  1.10 -1.26 -0.32
 O  1.68  0.06 -0.29
 C  0.86  1.09  0.29
 C -0.53  1.11 -0.31
 H -2.69  1.31  0.26
 H -1.59  0.79  1.64
 H -1.77 -0.53 -1.18
 H -0.24 -1.23  1.39
 H -0.72 -2.34  0.10
 H  1.79 -1.94  0.20
 H  1.05 -1.57 -1.38
 H  0.80  0.96  1.39
 H  1.40  2.02  0.10
 H -0.67  1.73 -1.20
