15
set: 3143.00  0.00  0.00
 C  1.39  0.42 -0.22
 C  2.70 -0.21  0.20
 C  2.86 -1.73  0.21
 C  4.35 -1.93  0.00
 C  5.00 -0.77 -0.16
 C  4.04  0.37 -0.03
 O  3.41  0.44  1.28
 H  1.47  1.51 -0.20
 H  0.59  0.12  0.47
 H  1.11  0.09 -1.23
 H  2.27 -2.21 -0.60
 H  2.51 -2.17  1.16
 H  4.82 -2.92  0.02
 H  6.07 -0.65 -0.32
 H  4.21  1.34 -0.51
