17
set: 1259.00  0.00  0.00
 C  1.31  0.13  0.74
 C  2.38 -0.05 -0.04
 C  2.82 -1.35 -0.69
 C  4.36 -1.25 -0.77
 C  4.66  0.24 -0.83
 C  3.87  1.07 -1.81
 C  3.40  0.98 -0.36
 H  1.06  1.10  1.17
 H  0.64 -0.70  0.98
 H  2.38 -1.43 -1.69
 H  2.48 -2.23 -0.12
 H  4.82 -1.67  0.14
 H  4.77 -1.80 -1.63
 H  5.65  0.60 -0.53
 H  4.30  2.02 -2.12
 H  3.28  0.57 -2.58
 H  3.46  1.89  0.25
