19
set: 2740.00  0.00  0.00
 C  1.11 -0.13 -0.07
 N  2.55  0.06 -0.12
 C  3.04  1.26 -0.12
 C  2.24  2.54 -0.01
 N  4.42  1.41 -0.29
 C  5.21  0.19 -0.37
 C  5.12  2.53  0.31
 H  0.90 -1.21 -0.15
 H  0.57  0.37 -0.89
 H  0.67  0.22  0.88
 H  1.19  2.35 -0.26
 H  2.61  3.32 -0.68
 H  2.26  2.93  1.02
 H  4.71 -0.53 -1.02
 H  5.34 -0.29  0.62
 H  6.20  0.44 -0.77
 H  5.35  2.37  1.38
 H  4.53  3.46  0.23
 H  6.07  2.69 -0.22
