18
set: 2046.00  0.00  0.00
 C  2.40  3.07 -0.63
 C  2.71  1.77 -0.57
 C  3.41  1.10  0.56
 C  4.75  0.47  0.15
 C  5.90  1.49 -0.07
 N  6.37  1.21  1.32
 C  5.60 -0.06  1.33
 H  1.89  3.50 -1.50
 H  2.65  3.75  0.19
 H  2.44  1.13 -1.42
 H  2.77  0.30  0.97
 H  3.59  1.82  1.38
 H  4.60 -0.24 -0.68
 H  5.62  2.54 -0.25
 H  6.60  1.16 -0.86
 H  7.38  1.11  1.43
 H  6.19 -0.95  1.05
 H  5.07 -0.27  2.27
