19
set: 3612.00  0.00  0.00
 C  0.76  0.62  0.72
 C  2.26  0.75  0.77
 C  3.03  1.22 -0.22
 C  4.52  1.37 -0.14
 C  4.97  2.84  0.05
 C  4.65  3.74 -1.14
 O  4.44  3.38  1.27
 H  0.46 -0.44  0.84
 H  0.36  0.99 -0.23
 H  0.29  1.17  1.54
 H  2.74  0.41  1.70
 H  2.54  1.55 -1.15
 H  5.00  0.98 -1.05
 H  4.90  0.79  0.71
 H  6.06  2.84  0.21
 H  3.56  3.78 -1.33
 H  5.14  3.37 -2.06
 H  5.00  4.76 -0.95
 H  3.49  3.14  1.28
