15
set: 4395.00  0.00  0.00
 O  1.42 -0.20 -0.87
 C  1.97  0.37  0.06
 C  3.25  1.18 -0.03
 C  3.69  1.47 -1.48
 C  3.35  2.93 -1.67
 C  3.00  3.52 -0.53
 C  3.04  2.58  0.65
 H  1.53  0.32  1.09
 H  3.99  0.60  0.53
 H  3.15  0.81 -2.19
 H  4.77  1.28 -1.63
 H  3.42  3.42 -2.64
 H  2.73  4.58 -0.42
 H  3.87  2.83  1.33
 H  2.12  2.61  1.26
