16
set: 4933.00  0.00  0.00
 C  3.26 -1.17 -0.50
 C  2.53  0.04  0.06
 C  3.36  1.32 -0.01
 C  3.58  1.90 -1.42
 C  3.03  3.28 -1.24
 N  2.52  3.52 -0.08
 O  2.66  2.39  0.73
 H  2.64 -2.08 -0.42
 H  4.20 -1.36  0.04
 H  3.51 -1.05 -1.56
 H  2.26 -0.13  1.12
 H  1.58  0.21 -0.48
 H  4.32  1.17  0.52
 H  3.03  1.34 -2.19
 H  4.64  1.91 -1.72
 H  2.99  4.06 -2.00
