15
set: 3617.00  0.00  0.00
 C  0.97 -0.19  0.17
 C  2.44 -0.30 -0.16
 C  3.01 -1.47 -0.50
 C  3.27  0.90 -0.11
 C  2.86  2.15  0.21
 C  3.80  3.27  0.22
 O  3.51  4.42  0.50
 H  0.46  0.51 -0.51
 H  0.83  0.19  1.20
 H  0.48 -1.17  0.09
 H  2.43 -2.40 -0.55
 H  4.07 -1.54 -0.74
 H  4.32  0.76 -0.37
 H  1.82  2.38  0.48
 H  4.85  2.99 -0.06
