13
set: 4403.00  0.00  0.00
 O  1.51 -0.28 -0.92
 C  2.68 -0.07 -0.13
 C  2.93  1.40 -0.08
 C  2.21  2.50 -0.46
 C  3.01  3.64 -0.13
 C  4.16  3.16  0.44
 O  4.13  1.79  0.48
 H  1.27 -1.22 -0.85
 H  3.56 -0.57 -0.57
 H  2.55 -0.46  0.90
 H  1.24  2.48 -0.93
 H  2.77  4.69 -0.29
 H  5.05  3.63  0.85
