18
set: 4773.00  0.00  0.00
 C  0.96 -0.08  0.01
 C  2.47  0.04  0.07
 C  3.16  1.11  0.97
 O  2.42  1.53  2.11
 C  4.22  0.01  1.24
 N  3.21 -1.00  0.85
 C  3.66 -2.19  0.15
 H  0.67 -1.02 -0.49
 H  0.53  0.75 -0.55
 H  0.53 -0.08  1.02
 H  2.89  0.12 -0.96
 H  3.51  2.03  0.47
 H  2.15  0.72  2.58
 H  5.07  0.07  0.53
 H  4.60 -0.08  2.27
 H  2.80 -2.79 -0.17
 H  4.26 -2.82  0.84
 H  4.28 -1.96 -0.74
