13
set: 7085.00  0.00  0.00
 C  2.86 -1.27  0.48
 N  2.35 -0.04 -0.11
 C  3.10  1.12 -0.03
 C  2.69  2.43 -0.21
 N  3.67  3.39 -0.13
 C  4.83  2.86  0.11
 S  4.83  1.10  0.28
 H  2.11 -2.07  0.34
 H  3.08 -1.18  1.56
 H  3.77 -1.59 -0.04
 H  1.36  0.12  0.04
 H  1.66  2.73 -0.42
 H  5.76  3.41  0.22
