18
set: 1655.00  0.00  0.00
 C  1.08  0.34 -0.31
 C  2.54  0.02 -0.08
 C  3.21 -1.12 -0.81
 C  3.57  0.30 -1.14
 N  4.87  0.78 -0.72
 C  5.84  1.02 -1.80
 C  5.19  2.16 -1.09
 H  0.85  1.38 -0.05
 H  0.43 -0.31  0.30
 H  0.81  0.19 -1.36
 H  2.91  0.18  0.94
 H  2.63 -1.68 -1.54
 H  3.97 -1.70 -0.27
 H  3.20  0.70 -2.10
 H  5.51  0.82 -2.83
 H  6.87  0.75 -1.58
 H  5.75  2.74 -0.34
 H  4.43  2.73 -1.65
