18
set: 2981.00  0.00  0.00
 N  0.90 -0.03  0.05
 C  2.37 -0.10  0.04
 C  2.97  1.30 -0.07
 C  4.50  1.29 -0.03
 C  5.09  2.71 -0.14
 C  6.55  2.74 -0.10
 C  7.77  2.74 -0.07
 H  0.51 -0.97  0.17
 H  0.56  0.30 -0.86
 H  2.79 -0.74 -0.77
 H  2.69 -0.56  0.99
 H  2.57  1.92  0.75
 H  2.63  1.77 -1.01
 H  4.91  0.68 -0.84
 H  4.85  0.84  0.91
 H  4.70  3.34  0.68
 H  4.75  3.18 -1.07
 H  8.84  2.74 -0.04
