20
set: 2040.00  0.00  0.00
 C  1.04  0.09 -0.41
 C  2.50 -0.32 -0.63
 C  3.46  0.34  0.37
 C  4.90 -0.11  0.25
 C  5.61  0.21 -1.05
 C  5.73 -0.20  1.49
 N  5.16 -1.43  0.88
 H  0.37 -0.40 -1.12
 H  0.91  1.18 -0.53
 H  0.70 -0.17  0.61
 H  2.80 -0.07 -1.66
 H  2.60 -1.41 -0.53
 H  3.11  0.12  1.39
 H  3.42  1.44  0.25
 H  6.66 -0.09 -1.02
 H  5.57  1.29 -1.27
 H  5.14 -0.32 -1.90
 H  5.30  0.08  2.45
 H  6.81 -0.02  1.39
 H  5.90 -1.92  0.36
