14
set: 4939.00  0.00  0.00
 C  1.59 -0.72 -0.66
 C  2.30  0.36 -1.02
 C  2.96  1.26 -0.05
 C  4.30  1.91 -0.36
 N  3.08  2.69 -0.42
 C  2.81  3.73  0.47
 O  3.61  4.56  0.84
 H  1.13 -1.37 -1.40
 H  1.45 -0.99  0.39
 H  2.42  0.62 -2.07
 H  2.78  1.05  1.00
 H  4.78  1.70 -1.32
 H  4.98  2.11  0.48
 H  1.73  3.76  0.74
