14
set: 6515.00  0.00  0.00
 O  1.39  0.19  0.96
 C  2.41  0.05  0.28
 C  3.00 -1.31 -0.07
 C  4.02 -1.28 -1.21
 C  4.88 -0.03 -1.13
 O  4.05  1.14 -1.21
 N  3.17  1.15 -0.07
 H  2.17 -1.99 -0.27
 H  3.48 -1.66  0.86
 H  4.66 -2.18 -1.19
 H  3.50 -1.28 -2.19
 H  5.47 -0.00 -0.19
 H  5.56  0.07 -1.99
 H  2.70  2.05 -0.03
