15
set: 6352.00  0.00  0.00
 N  1.17  0.14  0.52
 C  2.29  0.22 -0.11
 N  3.22  1.20  0.20
 C  2.78  2.49  0.75
 C  3.22  3.51 -0.30
 C  4.47  2.83 -0.86
 O  4.12  1.44 -0.94
 H  0.66 -0.69  0.22
 H  2.67 -0.46 -0.88
 H  3.28  2.67  1.72
 H  1.69  2.44  0.91
 H  2.46  3.62 -1.09
 H  3.43  4.50  0.13
 H  4.74  3.13 -1.88
 H  5.34  2.97 -0.19
