18
set: 5935.00  0.00  0.00
 C  1.75  1.93  1.34
 O  3.17  1.94  1.27
 C  3.64  1.19  0.14
 C  5.15  1.25  0.07
 C  5.89  0.14  0.07
 C  5.73  2.64 -0.05
 N  7.20  2.66 -0.02
 H  1.47  2.52  2.22
 H  1.36  0.90  1.46
 H  1.30  2.38  0.44
 H  3.20  1.61 -0.79
 H  3.31  0.14  0.22
 H  5.42 -0.84  0.17
 H  6.97  0.19 -0.05
 H  5.25  3.27  0.72
 H  5.41  3.07 -1.02
 H  7.52  2.42  0.92
 H  7.53  3.60 -0.21
