13
set: 4747.00  0.00  0.00
 C  0.91 -0.09  0.22
 C  2.22 -0.01 -0.03
 C  3.03  1.24 -0.22
 N  4.27  1.09  0.54
 N  5.01 -0.03  0.19
 C  4.33 -1.06 -0.15
 O  2.95 -1.18 -0.20
 H  0.33  0.82  0.33
 H  0.41 -1.05  0.32
 H  2.47  2.11  0.14
 H  3.23  1.37 -1.31
 H  4.88  1.90  0.47
 H  4.82 -2.00 -0.40
