16
set: 1931.00  0.00  0.00
 C  3.07 -1.20 -0.49
 C  2.47  0.05  0.16
 C  3.42  1.23  0.16
 C  3.52  2.13 -1.04
 C  2.86  2.64  0.24
 C  3.53  3.63  1.04
 N  4.09  4.42  1.70
 H  2.36 -2.04 -0.47
 H  3.98 -1.52  0.04
 H  3.34 -1.01 -1.54
 H  2.17 -0.18  1.20
 H  1.54  0.33 -0.37
 H  4.35  1.08  0.71
 H  2.84  1.96 -1.88
 H  4.49  2.56 -1.30
 H  1.77  2.74  0.23
