17
set: 3937.00  0.00  0.00
 C  0.37 -0.62 -0.04
 C  1.89 -0.60  0.15
 C  2.47  0.78 -0.12
 O  3.92  0.79 -0.02
 C  4.43  1.05  1.22
 C  5.94  1.05  1.19
 O  3.75  1.28  2.21
 H -0.03 -1.63  0.15
 H  0.09 -0.34 -1.07
 H -0.12  0.07  0.65
 H  2.37 -1.33 -0.53
 H  2.15 -0.90  1.18
 H  2.06  1.52  0.58
 H  2.27  1.10 -1.15
 H  6.31  0.13  0.71
 H  6.33  1.13  2.20
 H  6.29  1.90  0.58
