13
set: 1308.00  0.00  0.00
 C  1.00  0.02 -0.08
 C  2.21  0.00 -0.04
 C  3.64 -0.01  0.01
 C  4.44 -0.74 -1.05
 C  4.44  0.77 -1.06
 C  5.60  1.51 -0.66
 C  6.59  2.13 -0.32
 H -0.07  0.03 -0.11
 H  4.09  0.01  1.01
 H  3.88 -1.24 -1.85
 H  5.36 -1.24 -0.73
 H  3.82  1.25 -1.82
 H  7.46  2.67 -0.02
