18
set: 4903.00  0.00  0.00
 C  1.02 -0.01  0.55
 C  2.35  0.01 -0.20
 O  2.00  0.09 -1.59
 C  3.36  1.07  0.35
 C  4.03 -0.06  1.18
 N  5.47  0.03  1.34
 C  3.34 -1.10  0.24
 H  1.19 -0.07  1.64
 H  0.43 -0.89  0.24
 H  0.45  0.90  0.33
 H  2.83  0.12 -2.10
 H  2.96  1.95  0.87
 H  4.04  1.40 -0.45
 H  3.58 -0.10  2.19
 H  5.93 -0.01  0.43
 H  5.82 -0.76  1.89
 H  4.01 -1.37 -0.59
 H  2.92 -2.02  0.68
