17
set: 3560.00  0.00  0.00
 C  1.01  0.23 -0.90
 C  2.50  0.37 -0.76
 C  3.11  1.28  0.01
 C  4.58  1.42  0.14
 O  5.41  0.51 -0.61
 C  5.45  1.91 -0.96
 C  6.75  2.63 -0.72
 H  0.70  0.35 -1.95
 H  0.47  0.97 -0.30
 H  0.68 -0.77 -0.59
 H  3.12 -0.33 -1.32
 H  2.52  1.99  0.61
 H  4.95  1.61  1.16
 H  4.94  2.13 -1.91
 H  7.16  2.37  0.26
 H  6.59  3.72 -0.76
 H  7.48  2.37 -1.49
