13
set: 4343.00  0.00  0.00
 O  1.00 -0.09  0.62
 C  2.14 -0.04  0.24
 C  2.85  1.21 -0.26
 C  4.33  1.27  0.16
 C  4.97 -0.06 -0.10
 C  4.23 -1.17 -0.11
 O  2.87 -1.22  0.19
 H  2.27  2.07  0.08
 H  2.79  1.17 -1.36
 H  4.41  1.53  1.23
 H  4.83  2.07 -0.39
 H  6.04 -0.14 -0.30
 H  4.61 -2.18 -0.30
