22
set: 2140.00  0.00  0.00
 C  3.27 -0.78  1.66
 C  2.75 -0.11  0.38
 C  1.25 -0.37  0.20
 C  3.09  1.41  0.29
 C  2.49  2.26  1.41
 C  4.60  1.64  0.17
 N  4.90  3.03 -0.23
 H  4.35 -0.65  1.80
 H  3.06 -1.86  1.64
 H  2.77 -0.37  2.56
 H  3.27 -0.59 -0.47
 H  0.67  0.03  1.04
 H  1.05 -1.45  0.15
 H  0.87  0.08 -0.72
 H  2.64  1.75 -0.67
 H  2.85  1.93  2.40
 H  1.39  2.21  1.42
 H  2.78  3.31  1.28
 H  5.02  0.88 -0.53
 H  5.08  1.47  1.15
 H  4.63  3.17 -1.20
 H  5.91  3.20 -0.18
