16
set: 6003.00  0.00  0.00
 C  1.89  1.21 -1.42
 O  3.10  0.99 -0.67
 C  4.01  2.00 -0.74
 O  3.82  3.03 -1.37
 C  5.26  1.66  0.04
 C  6.23  2.83  0.16
 N  7.48  2.38  0.79
 H  1.29  0.30 -1.29
 H  2.11  1.38 -2.48
 H  1.35  2.08 -1.02
 H  5.76  0.81 -0.46
 H  4.96  1.29  1.03
 H  5.73  3.67  0.68
 H  6.47  3.19 -0.85
 H  7.32  2.17  1.78
 H  8.17  3.13  0.77
