15
set: 4303.00  0.00  0.00
 O  0.84 -0.04  0.17
 C  2.26 -0.01  0.06
 C  3.06  1.07  0.87
 C  4.13 -0.00  1.18
 C  3.09 -1.10  0.84
 C  2.59  0.01 -1.36
 C  2.93  0.03 -2.52
 H  0.63 -0.05  1.12
 H  2.48  1.35  1.76
 H  3.35  1.98  0.33
 H  4.95  0.02  0.46
 H  4.55 -0.01  2.20
 H  3.41 -1.98  0.27
 H  2.53 -1.42  1.72
 H  3.21  0.05 -3.56
