13
set: 6593.00  0.00  0.00
 O  1.66  0.35  0.87
 C  2.62  0.01  0.21
 N  2.77 -1.18 -0.48
 C  4.05 -1.35 -1.13
 C  4.66  0.04 -0.94
 C  3.91  1.22 -1.43
 N  3.81  0.81  0.00
 H  2.06 -1.91 -0.41
 H  4.67 -2.11 -0.62
 H  3.95 -1.64 -2.19
 H  5.74  0.11 -0.77
 H  4.44  2.16 -1.59
 H  3.04  1.05 -2.06
