16
set: 4606.00  0.00  0.00
 C -1.22 -0.00  1.02
 C -0.63 -1.02  0.01
 C  0.86 -1.20  0.28
 O  1.43 -0.00  0.82
 C  0.86  1.20  0.29
 C -0.63  1.02  0.02
 N -0.74  0.00 -1.10
 H -0.85 -0.00  2.05
 H -2.32 -0.00  1.00
 H -1.13 -1.98 -0.17
 H  1.04 -1.98  1.04
 H  1.36 -1.49 -0.66
 H  1.36  1.49 -0.66
 H  1.04  1.98  1.05
 H -1.13  1.98 -0.16
 H -1.71  0.00 -1.42
