14
set: 5105.00  0.00  0.00
 C  0.84 -0.47 -0.04
 C  2.33 -0.10  0.02
 C  2.55  1.41 -0.06
 C  4.00  1.82 -0.01
 O  4.96  1.07  0.09
 C  4.23  3.28 -0.09
 N  4.39  4.44 -0.16
 H  0.71 -1.55  0.01
 H  0.38 -0.12 -0.98
 H  0.29 -0.02  0.79
 H  2.87 -0.59 -0.81
 H  2.78 -0.49  0.94
 H  2.04  1.94  0.76
 H  2.12  1.84 -0.98
