17
set: 3433.00  0.00  0.00
 C  0.95 -0.02  0.03
 C  2.47  0.03 -0.03
 O  2.84  0.11 -1.42
 C  3.12  1.19  0.78
 C  4.46  0.60  1.26
 O  4.54 -0.74  0.73
 C  3.18 -1.18  0.61
 H  0.60 -0.11  1.07
 H  0.58 -0.87 -0.55
 H  0.53  0.90 -0.40
 H  3.80 -0.05 -1.46
 H  2.48  1.48  1.62
 H  3.24  2.06  0.12
 H  5.35  1.15  0.90
 H  4.51  0.56  2.37
 H  3.16 -2.07 -0.02
 H  2.75 -1.41  1.61
