18
set: 5151.00  0.00  0.00
 C  0.94  0.00  0.11
 C  2.44 -0.01  0.05
 C  3.10 -1.38 -0.02
 N  3.70 -1.61 -1.36
 C  3.18  1.12  0.03
 C  4.68  1.16 -0.07
 O  5.18  0.84 -1.38
 H  0.55  1.03  0.12
 H  0.57 -0.51  1.01
 H  0.50 -0.52 -0.75
 H  2.36 -2.16  0.25
 H  3.92 -1.45  0.71
 H  2.97 -1.59 -2.08
 H  4.13 -2.54 -1.40
 H  2.65  2.07  0.03
 H  5.13  0.49  0.69
 H  5.04  2.18  0.15
 H  4.79 -0.05 -1.58
