19
set: 2664.00  0.00  0.00
 C  1.12  2.33  0.18
 N  2.50  2.27 -0.29
 C  3.28  1.22  0.38
 C  4.73  1.21 -0.08
 C  5.63  2.32  0.54
 N  6.11  1.34  1.54
 C  5.63  0.21  0.69
 H  0.61  3.18 -0.30
 H  1.01  2.42  1.28
 H  0.59  1.41 -0.13
 H  2.95  3.17 -0.11
 H  2.82  0.25  0.12
 H  3.25  1.30  1.49
 H  4.76  1.14 -1.18
 H  5.12  3.20  0.98
 H  6.39  2.67 -0.17
 H  7.12  1.35  1.71
 H  6.40 -0.24  0.04
 H  5.12 -0.59  1.25
