19
set: 3520.00  0.00  0.00
 C  2.37 -0.55 -1.57
 C  2.45 -0.03 -0.13
 C  3.39  1.15  0.03
 O  2.92  2.35 -0.67
 C  3.18  3.17  0.51
 C  3.42  1.92  1.38
 C  4.69  1.85  2.22
 H  1.67 -1.38 -1.65
 H  3.35 -0.90 -1.92
 H  2.04  0.25 -2.25
 H  2.81 -0.83  0.54
 H  1.45  0.27  0.23
 H  4.40  0.89 -0.33
 H  4.08  3.80  0.37
 H  2.32  3.80  0.76
 H  2.54  1.67  1.98
 H  5.58  2.10  1.62
 H  4.83  0.84  2.64
 H  4.64  2.55  3.06
