13
set: 4545.00  0.00  0.00
 O  1.06 -0.20  0.04
 C  2.43 -0.27  0.07
 O  2.98 -1.34  0.19
 C  3.14  1.07 -0.05
 C  4.67  0.92 -0.02
 C  5.35  2.20 -0.13
 C  5.90  3.28 -0.23
 H  0.78  0.73 -0.06
 H  2.81  1.73  0.76
 H  2.83  1.56 -0.99
 H  4.99  0.25 -0.83
 H  4.96  0.42  0.92
 H  6.39  4.23 -0.31
