18
set: 2949.00  0.00  0.00
 N  1.68 -0.14 -1.23
 C  2.53  0.05 -0.03
 C  3.11  1.43 -0.02
 C  4.43  1.69  0.06
 C  5.06  3.04  0.06
 C  5.48  3.69 -1.25
 C  4.35  4.27 -0.43
 H  1.24 -1.06 -1.20
 H  2.27 -0.13 -2.07
 H  3.34 -0.70  0.08
 H  1.87 -0.07  0.84
 H  2.39  2.25 -0.09
 H  5.12  0.85  0.14
 H  5.77  3.19  0.88
 H  5.21  3.16 -2.17
 H  6.43  4.21 -1.28
 H  4.53  5.21  0.10
 H  3.34  4.16 -0.82
