17
set: 356.00  0.00  0.00
 C  1.00 -0.03  0.00
 C  2.52 -0.05  0.09
 C  3.15  1.20  0.75
 C  4.44  0.68  1.44
 C  4.44 -0.84  1.15
 N  3.02 -1.13  0.96
 H  0.62 -0.96 -0.46
 H  0.66  0.81 -0.61
 H  0.56  0.06  1.01
 H  2.94 -0.14 -0.94
 H  2.45  1.60  1.50
 H  3.34  1.98  0.01
 H  5.35  1.16  1.04
 H  4.41  0.87  2.52
 H  5.05 -1.05  0.25
 H  4.86 -1.43  1.98
 H  2.87 -2.05  0.53
