17
set: 3741.00  0.00  0.00
 C  1.73  0.35 -2.64
 C  2.94  0.40 -1.76
 C  3.26  1.42 -0.94
 C  4.46  1.46 -0.03
 O  5.30  0.29 -0.13
 C  5.32  2.70 -0.18
 C  5.23  3.60 -1.17
 H  1.09 -0.51 -2.39
 H  2.02  0.23 -3.70
 H  1.13  1.27 -2.55
 H  3.60 -0.47 -1.78
 H  2.60  2.29 -0.88
 H  4.09  1.43  1.01
 H  5.81  0.38 -0.95
 H  6.09  2.79  0.58
 H  4.47  3.52 -1.95
 H  5.92  4.44 -1.22
