15
set: 3975.00  0.00  0.00
 C  3.16 -0.36 -0.07
 C  4.40  0.05 -0.34
 O  4.90  1.22  0.17
 C  5.88  1.88 -0.55
 C  6.08  1.72 -1.87
 C  6.67  2.80  0.27
 C  6.52  2.98  1.60
 H  2.82 -1.33 -0.42
 H  2.47  0.26  0.51
 H  5.11 -0.54 -0.93
 H  5.46  1.08 -2.49
 H  6.89  2.27 -2.36
 H  7.42  3.37 -0.27
 H  5.77  2.42  2.16
 H  7.14  3.69  2.14
