16
set: 881.00  0.00  0.00
 C  2.15  4.08  2.16
 O  2.33  2.71  2.54
 C  3.23  1.97  1.73
 C  2.87  1.94  0.25
 O  4.56  2.45  1.82
 C  5.13  2.30  3.12
 H  1.59  4.56  2.97
 H  1.57  4.17  1.22
 H  3.12  4.59  2.03
 H  3.18  0.95  2.17
 H  3.05  2.91 -0.22
 H  1.81  1.67  0.13
 H  3.48  1.19 -0.26
 H  6.16  2.67  3.06
 H  5.14  1.24  3.43
 H  4.58  2.89  3.87
