16
set: 5008.00  0.00  0.00
 C  0.88 -0.27  0.05
 C  2.34 -0.05  0.27
 C  3.07  0.95 -0.25
 C  4.53  1.16 -0.02
 C  5.46  0.91 -1.22
 N  4.97  0.05 -2.16
 O  6.57  1.43 -1.31
 H  0.68 -1.26 -0.39
 H  0.45  0.49 -0.62
 H  0.33 -0.24  1.00
 H  2.85 -0.77  0.93
 H  2.57  1.68 -0.90
 H  4.90  0.50  0.79
 H  4.74  2.19  0.30
 H  4.05 -0.36 -2.06
 H  5.55 -0.19 -2.96
