16
set: 6009.00  0.00  0.00
 C  2.72  0.26 -1.55
 O  2.88 -0.17 -0.19
 C  2.95  0.87  0.74
 O  4.22  1.53  0.79
 N  4.22  2.65 -0.08
 C  5.37  3.22 -0.09
 C  5.59  4.43 -0.93
 H  2.53 -0.65 -2.14
 H  3.62  0.76 -1.93
 H  1.86  0.95 -1.65
 H  2.84  0.40  1.72
 H  2.18  1.63  0.55
 H  6.20  2.81  0.51
 H  4.67  4.72 -1.45
 H  6.39  4.26 -1.67
 H  5.92  5.28 -0.31
