19
set: 1798.00  0.00  0.00
 C  0.80 -0.12 -0.13
 C  2.28 -0.37 -0.29
 C  2.98 -0.25 -1.61
 N  3.14  0.79 -0.58
 C  4.44  0.80  0.10
 C  5.42  1.71 -0.65
 N  6.72  1.72  0.05
 H  0.57  0.24  0.89
 H  0.23 -1.04 -0.30
 H  0.46  0.64 -0.84
 H  2.70 -1.12  0.39
 H  2.42  0.05 -2.50
 H  3.82 -0.93 -1.79
 H  4.88 -0.21  0.19
 H  4.28  1.19  1.12
 H  4.95  2.70 -0.78
 H  5.59  1.30 -1.66
 H  6.62  2.22  0.94
 H  7.40  2.25 -0.50
