13
set: 143.00  0.00  0.00
 C  1.00 -0.01 -0.07
 C  2.50  0.11  0.00
 O  3.26 -0.52 -1.05
 C  3.28  0.92 -0.94
 C  4.60  1.55 -0.59
 H  0.52  0.71  0.61
 H  0.68 -1.02  0.23
 H  0.64  0.17 -1.09
 H  2.93 -0.04  1.00
 H  2.72  1.42 -1.74
 H  5.09  1.01  0.23
 H  4.45  2.60 -0.28
 H  5.28  1.55 -1.45
