16
set: 5989.00  0.00  0.00
 C  2.35  0.06  2.52
 O  1.84  1.35  2.18
 C  2.56  2.01  1.17
 C  1.77  3.24  0.76
 O  3.85  2.48  1.65
 N  4.86  1.57  1.29
 C  6.01  1.96  1.72
 H  1.62 -0.39  3.20
 H  3.33  0.12  3.01
 H  2.44 -0.58  1.62
 H  2.77  1.33  0.33
 H  1.65  3.91  1.62
 H  0.78  2.94  0.40
 H  2.30  3.77 -0.04
 H  6.85  1.31  1.48
 H  6.15  2.88  2.30
