20
set: 5678.00  0.00  0.00
 C  1.27  1.93  0.91
 N  2.69  2.03  1.24
 C  3.56  1.44  0.21
 C  5.05  1.57  0.54
 C  5.68  2.97  0.41
 C  5.27  4.01  1.46
 O  3.94  4.50  1.32
 H  0.67  2.31  1.75
 H  0.94  0.90  0.68
 H  1.06  2.56  0.04
 H  2.86  1.54  2.13
 H  3.34  1.97 -0.74
 H  3.31  0.37  0.04
 H  5.59  0.89 -0.14
 H  5.23  1.18  1.56
 H  5.46  3.38 -0.59
 H  6.77  2.86  0.47
 H  5.93  4.89  1.36
 H  5.44  3.59  2.47
 H  3.35  3.70  1.37
