15
set: 3824.00  0.00  0.00
 C  4.17 -1.16 -1.46
 C  4.05 -0.48 -0.08
 C  3.16  0.73 -0.10
 C  3.57  1.96  0.20
 O  2.66  3.02  0.15
 C  3.14  4.27  0.43
 O  4.28  4.56  0.71
 H  4.81 -2.05 -1.40
 H  4.59 -0.47 -2.20
 H  3.18 -1.48 -1.82
 H  5.05 -0.19  0.28
 H  3.66 -1.21  0.65
 H  2.11  0.58 -0.39
 H  4.58  2.24  0.49
 H  2.30  4.98  0.35
