16
set: 6054.00  0.00  0.00
 N  1.01 -0.06 -0.11
 C  2.44 -0.00  0.01
 C  3.38 -0.59 -1.10
 C  4.43 -0.34  0.01
 C  3.37 -0.76  1.04
 O  4.46  1.11  0.12
 C  3.04  1.41  0.12
 H  0.56  0.38  0.70
 H  0.69 -1.03 -0.14
 H  3.48 -0.03 -2.04
 H  3.19 -1.65 -1.28
 H  5.46 -0.72 -0.03
 H  3.18 -1.84  1.05
 H  3.47 -0.36  2.06
 H  2.78  2.05 -0.74
 H  2.76  1.92  1.06
