15
set: 992.00  0.00  0.00
 C  1.02  0.02 -0.05
 C  2.52  0.06  0.02
 O  3.05  0.17  1.34
 C  3.38 -0.70 -0.98
 C  3.34  0.81 -1.01
 N  4.54  1.56 -0.69
 H  0.68  0.03 -1.10
 H  0.59  0.89  0.47
 H  0.61 -0.90  0.42
 H  2.93 -0.69  1.78
 H  2.89 -1.26 -1.78
 H  4.29 -1.15 -0.60
 H  2.77  1.26 -1.83
 H  4.95  1.16  0.16
 H  4.28  2.51 -0.44
