17
set: 549.00  0.00  0.00
 C  1.08  0.13 -0.58
 N  2.53 -0.03 -0.49
 C  3.15  0.97  0.38
 C  4.65  0.84  0.39
 C  5.48  1.54 -0.66
 C  5.51  2.02  0.77
 H  0.67 -0.60 -1.29
 H  0.75  1.14 -0.89
 H  0.63 -0.08  0.40
 H  2.94  0.05 -1.42
 H  2.75  0.83  1.40
 H  2.88  2.02  0.09
 H  5.01 -0.15  0.71
 H  4.96  2.16 -1.39
 H  6.36  1.03 -1.05
 H  6.41  1.83  1.36
 H  5.01  2.96  1.00
