20
set: 2037.00  0.00  0.00
 C  1.09  0.08  0.20
 C  2.60  0.00 -0.06
 C  2.92 -0.78 -1.34
 C  3.22  1.40 -0.12
 C  3.27  2.27  1.17
 C  4.71  2.64  0.73
 N  4.71  1.45 -0.17
 H  0.87  0.62  1.13
 H  0.65 -0.92  0.28
 H  0.58  0.61 -0.63
 H  3.08 -0.52  0.79
 H  2.47 -0.30 -2.22
 H  2.52 -1.81 -1.28
 H  4.00 -0.85 -1.50
 H  2.74  1.97 -0.94
 H  3.27  1.65  2.08
 H  2.55  3.08  1.27
 H  4.73  3.61  0.19
 H  5.50  2.63  1.49
 H  5.10  1.61 -1.10
