15
set: 4806.00  0.00  0.00
 C  0.94  0.35 -0.32
 C  2.36  0.06  0.11
 N  3.12 -1.06 -0.46
 C  3.50  0.33 -0.83
 C  4.81  0.79 -0.34
 N  5.48  1.63 -1.05
 O  6.70  1.97 -0.41
 H  0.64  1.37 -0.04
 H  0.24 -0.35  0.16
 H  0.83  0.25 -1.41
 H  2.56  0.20  1.18
 H  2.59 -1.47 -1.24
 H  3.23  0.70 -1.82
 H  5.19  0.40  0.61
 H  7.10  2.58 -1.05
