17
set: 3390.00  0.00  0.00
 C  0.97 -0.31  0.45
 C  2.37  0.05  0.02
 O  2.86  1.29  0.62
 C  4.13  0.66  0.92
 C  3.57 -0.75  0.61
 C  4.33 -1.65 -0.30
 C  4.62 -2.93 -0.04
 H  0.67 -1.27  0.01
 H  0.25  0.46  0.11
 H  0.90 -0.38  1.55
 H  2.43  0.12 -1.09
 H  4.92  0.98  0.22
 H  4.45  0.85  1.95
 H  3.27 -1.28  1.52
 H  4.68 -1.20 -1.24
 H  4.30 -3.41  0.88
 H  5.18 -3.55 -0.75
