17
set: 3544.00  0.00  0.00
 C  2.31  3.42 -0.46
 C  2.77  2.19 -0.68
 C  3.25  1.24  0.38
 C  4.72  0.87  0.20
 C  5.80  1.89  0.61
 C  6.34  0.76  1.50
 O  5.18 -0.08  1.22
 H  1.98  4.07 -1.27
 H  2.25  3.83  0.56
 H  2.82  1.82 -1.72
 H  2.67  0.30  0.33
 H  3.10  1.67  1.38
 H  4.89  0.45 -0.81
 H  5.39  2.75  1.16
 H  6.46  2.25 -0.18
 H  7.27  0.29  1.14
 H  6.43  0.97  2.58
