15
set: 4490.00  0.00  0.00
 O  1.44 -0.39 -1.17
 C  2.08  0.10 -0.25
 C  2.79  1.42 -0.31
 C  4.28  1.28  0.06
 C  5.01  2.62  0.12
 C  4.66  3.50  1.30
 O  3.92  3.19  2.21
 H  2.17 -0.44  0.73
 H  2.31  2.08  0.44
 H  2.66  1.86 -1.31
 H  4.78  0.64 -0.68
 H  4.37  0.78  1.03
 H  4.86  3.22 -0.80
 H  6.11  2.47  0.17
 H  5.16  4.50  1.29
