15
set: 325.00  0.00  0.00
 C  0.90  0.00  1.01
 C  0.34  1.00 -0.04
 C -1.19  0.79  0.08
 C -1.20 -0.77  0.09
 C  0.33 -1.00 -0.03
 N  0.78 -0.01 -1.07
 H  2.00 -0.01  1.02
 H  0.47  0.01  2.02
 H  0.72  2.02 -0.14
 H -1.60  1.24  1.00
 H -1.72  1.22 -0.78
 H -1.75 -1.20 -0.76
 H -1.62 -1.19  1.01
 H  0.69 -2.03 -0.12
 H  0.17 -0.01 -1.90
