17
set: 5792.00  0.00  0.00
 C  0.79  0.51 -1.09
 N  2.15  0.15 -0.73
 C  3.07  1.08 -0.31
 N  2.89  2.33 -0.04
 C  4.47  0.49 -0.09
 C  4.62 -0.08  1.31
 O  4.76 -0.58 -1.02
 H  0.27 -0.39 -1.43
 H  0.76  1.27 -1.89
 H  0.25  0.90 -0.21
 H  2.55 -0.72 -1.09
 H  1.91  2.60 -0.17
 H  5.18  1.32 -0.23
 H  3.93 -0.91  1.46
 H  4.40  0.70  2.05
 H  5.65 -0.43  1.47
 H  4.95 -0.18 -1.88
