13
set: 5443.00  0.00  0.00
 C -0.53  1.18  0.39
 C  0.26  0.07 -0.21
 N  1.54  0.07 -0.10
 O  2.09 -1.08 -0.74
 C  3.52 -0.99 -0.58
 C  4.12 -2.16 -1.22
 N  4.64 -3.08 -1.71
 H -1.25  0.79  1.13
 H -1.11  1.70 -0.38
 H  0.13  1.90  0.89
 H -0.25 -0.74 -0.74
 H  3.79 -0.98  0.49
 H  3.91 -0.08 -1.06
