17
set: 6141.00  0.00  0.00
 N  1.06  0.03 -0.20
 C  2.51  0.06  0.00
 C  2.94  1.09  1.04
 O  4.23  0.65  1.51
 C  4.35 -0.76  1.27
 C  3.03 -1.24  0.65
 N  3.22 -2.42 -0.18
 H  0.82 -0.70 -0.87
 H  0.74  0.91 -0.63
 H  3.09  0.23 -0.93
 H  2.20  1.11  1.87
 H  3.06  2.11  0.64
 H  5.20 -0.94  0.58
 H  4.58 -1.28  2.22
 H  2.32 -1.51  1.45
 H  3.73 -2.19 -1.04
 H  2.32 -2.83 -0.45
