17
set: 5442.00  0.00  0.00
 C  1.24  0.39 -0.15
 C  2.73  0.31 -0.08
 N  3.42  1.39 -0.10
 O  4.80  1.11 -0.02
 C  5.52  2.35  0.00
 C  7.01  2.01  0.04
 N  7.79  3.26  0.08
 H  0.86 -0.17 -1.02
 H  0.91  1.43 -0.24
 H  0.78 -0.06  0.74
 H  3.22 -0.67  0.00
 H  5.25  2.94  0.89
 H  5.27  2.94 -0.90
 H  7.24  1.35 -0.82
 H  7.22  1.44  0.95
 H  7.76  3.72 -0.83
 H  8.77  3.05  0.26
