13
set: 5621.00  0.00  0.00
 C  1.06  0.00 -0.17
 N  2.49 -0.00  0.06
 C  3.30 -1.19  0.30
 C  4.72 -0.56  0.42
 O  5.74 -1.20  0.63
 N  4.61  0.83  0.25
 C  3.33  1.06  0.05
 H  0.80 -0.59 -1.07
 H  0.73  1.04 -0.32
 H  0.52 -0.42  0.69
 H  3.25 -1.90 -0.54
 H  3.02 -1.71  1.23
 H  2.92  2.06 -0.12
