18
set: 5228.00  0.00  0.00
 C  2.04 -4.14  0.63
 C  3.31 -3.54  1.16
 C  4.19 -4.18  1.95
 O  3.43 -2.24  0.72
 C  4.58 -1.51  1.16
 C  4.49 -0.11  0.56
 N  3.36  0.62  1.14
 H  2.03 -4.11 -0.47
 H  1.17 -3.58  0.98
 H  1.94 -5.19  0.95
 H  3.99 -5.21  2.23
 H  5.10 -3.72  2.33
 H  5.50 -2.02  0.81
 H  4.59 -1.46  2.26
 H  4.47 -0.20 -0.54
 H  5.42  0.42  0.83
 H  2.49  0.15  0.88
 H  3.31  1.56  0.74
