18
set: 5668.00  0.00  0.00
 C  1.21  0.11  0.21
 N  2.62 -0.01 -0.17
 C  2.78 -0.73 -1.43
 C  3.27  1.27 -0.21
 C  3.76  1.88  1.10
 C  4.74  1.35  0.09
 O  5.63  2.18 -0.63
 H  1.13  0.63  1.17
 H  0.78 -0.90  0.33
 H  0.60  0.66 -0.54
 H  2.35 -1.74 -1.34
 H  3.85 -0.82 -1.67
 H  2.27 -0.22 -2.28
 H  2.91  2.00 -0.96
 H  3.61  1.32  2.02
 H  3.67  2.97  1.21
 H  5.23  0.40  0.34
 H  5.31  3.09 -0.56
