17
set: 3355.00  0.00  0.00
 C  0.98  0.04 -0.16
 C  2.49 -0.04  0.09
 C  3.05  1.06  0.99
 O  4.29  0.55  1.52
 C  4.26 -0.84  1.47
 C  5.29 -1.57  1.91
 C  2.96 -1.29  0.85
 H  0.64 -0.78 -0.79
 H  0.71  0.98 -0.66
 H  0.43 -0.01  0.79
 H  3.02 -0.00 -0.88
 H  2.36  1.29  1.82
 H  3.28  2.00  0.46
 H  5.24 -2.66  1.84
 H  6.17 -1.11  2.36
 H  3.09 -2.18  0.21
 H  2.24 -1.55  1.64
