15
set: 2784.00  0.00  0.00
 C  3.19 -0.88  0.25
 N  2.63  0.26  0.49
 N  3.09  1.38 -0.08
 C  4.39  1.49 -0.77
 C  4.58  2.98 -0.82
 C  3.61  3.63 -0.18
 C  2.61  2.67  0.41
 H  2.75 -1.75  0.74
 H  4.05 -1.02 -0.41
 H  4.36  1.02 -1.77
 H  5.18  0.97 -0.19
 H  5.43  3.44 -1.33
 H  3.52  4.71 -0.07
 H  2.59  2.70  1.51
 H  1.58  2.87  0.06
