13
set: 4859.00  0.00  0.00
 C  0.91 -0.04 -0.00
 C  2.40  0.05 -0.00
 C  3.25  1.16 -0.00
 O  2.80  2.46  0.00
 C  4.56  0.65 -0.00
 N  4.56 -0.70 -0.01
 N  3.25 -1.02 -0.01
 H  0.49  0.97  0.01
 H  0.53 -0.58  0.88
 H  0.53 -0.56 -0.90
 H  3.57  3.05  0.00
 H  5.51  1.19 -0.00
 H  2.99 -2.00 -0.01
