18
set: 6173.00  0.00  0.00
 N  2.13 -0.43 -1.41
 C  2.39  0.02 -0.03
 C  3.15  1.34 -0.01
 C  2.46  2.64 -0.50
 C  3.19  3.41  0.64
 C  3.38  2.05  1.35
 O  4.54  1.78  2.12
 H  1.57 -1.28 -1.40
 H  3.02 -0.68 -1.86
 H  2.94 -0.71  0.59
 H  1.41  0.17  0.45
 H  4.12  1.22 -0.52
 H  1.37  2.60 -0.34
 H  2.65  2.96 -1.53
 H  4.16  3.80  0.29
 H  2.66  4.20  1.17
 H  2.54  1.85  2.03
 H  5.32  2.01  1.57
