18
set: 6172.00  0.00  0.00
 N  1.92 -0.30  1.31
 C  2.20  0.23 -0.03
 C  3.24  1.33  0.04
 C  3.35  2.35 -1.07
 C  2.82  2.76  0.30
 C  3.65  3.65  1.18
 O  3.51  5.04  0.87
 H  1.25 -1.07  1.25
 H  1.48  0.43  1.88
 H  1.31  0.63 -0.56
 H  2.59 -0.60 -0.64
 H  4.18  1.02  0.50
 H  2.64  2.29 -1.89
 H  4.35  2.68 -1.35
 H  1.74  2.94  0.35
 H  4.71  3.34  1.13
 H  3.34  3.56  2.24
 H  3.67  5.14 -0.08
