15
set: 3757.00  0.00  0.00
 C  1.07 -0.00  0.19
 C  2.59 -0.03 -0.09
 C  2.93 -0.79 -1.37
 C  3.14  1.40 -0.12
 O  3.61  1.92 -1.12
 C  3.06  2.13  1.14
 C  3.02  2.74  2.19
 H  0.84  0.54  1.11
 H  0.69 -1.03  0.29
 H  0.54  0.48 -0.64
 H  3.08 -0.52  0.78
 H  2.47 -0.31 -2.24
 H  2.57 -1.82 -1.30
 H  4.02 -0.81 -1.54
 H  2.99  3.29  3.11
