17
set: 4002.00  0.00  0.00
 C  1.38 -0.73 -0.01
 C  2.88 -0.44  0.03
 O  3.60 -1.29 -0.89
 C  3.19  1.04 -0.20
 C  4.69  1.36 -0.08
 C  5.01  2.75 -0.37
 C  5.25  3.92 -0.62
 H  0.85 -0.17  0.77
 H  1.20 -1.80  0.15
 H  0.96 -0.45 -0.99
 H  3.28 -0.74  1.02
 H  3.22 -1.15 -1.77
 H  2.62  1.65  0.52
 H  2.84  1.33 -1.21
 H  5.26  0.70 -0.76
 H  5.04  1.12  0.94
 H  5.47  4.94 -0.84
