18
set: 864.00  0.00  0.00
 C  1.68  2.70  0.69
 O  3.01  2.27  0.93
 C  3.65  1.84 -0.26
 C  5.09  1.41  0.05
 C  5.73  0.82 -1.21
 C  5.91  2.58  0.61
 H  1.25  3.01  1.65
 H  1.06  1.88  0.27
 H  1.64  3.55 -0.02
 H  3.66  2.66 -1.01
 H  3.09  0.99 -0.71
 H  5.03  0.63  0.82
 H  5.80  1.57 -2.01
 H  5.16 -0.04 -1.59
 H  6.75  0.47 -0.99
 H  6.00  3.38 -0.14
 H  6.92  2.25  0.88
 H  5.43  3.00  1.50
