16
set: 936.00  0.00  0.00
 O  2.25 -0.97  0.99
 C  2.11 -0.04 -0.10
 C  2.94  1.21  0.17
 C  4.47  1.09  0.03
 C  5.20  0.30  1.11
 O  5.02 -1.11  1.04
 H  1.73 -1.77  0.79
 H  1.05  0.24 -0.21
 H  2.44 -0.51 -1.05
 H  2.68  1.58  1.18
 H  2.58  1.98 -0.53
 H  4.88  2.12  0.03
 H  4.71  0.66 -0.96
 H  4.92  0.69  2.11
 H  6.29  0.47  1.00
 H  4.05 -1.27  1.15
