17
set: 1506.00  0.00  0.00
 C  0.99 -0.03 -0.08
 C  2.52 -0.10  0.02
 C  3.18  1.29 -0.01
 C  4.69  1.24  0.06
 C  5.39  1.73  1.11
 C  5.36  0.64 -1.05
 C  5.88  0.13 -2.02
 H  0.55 -1.03 -0.06
 H  0.68  0.45 -1.03
 H  0.56  0.55  0.74
 H  2.92 -0.71 -0.80
 H  2.81 -0.61  0.95
 H  2.80  1.90  0.83
 H  2.88  1.80 -0.94
 H  4.87  2.19  1.95
 H  6.47  1.68  1.15
 H  6.36 -0.32 -2.86
