17
set: 3962.00  0.00  0.00
 C  2.33 -0.53 -1.43
 C  2.50  0.03 -0.01
 O  3.10 -0.93  0.87
 C  3.27  1.35  0.01
 C  2.52  2.60 -0.50
 O  2.53  3.20  0.82
 C  3.30  2.09  1.36
 H  1.80  0.18 -2.08
 H  1.76 -1.47 -1.40
 H  3.31 -0.73 -1.88
 H  1.50  0.21  0.43
 H  3.95 -1.20  0.47
 H  4.26  1.20 -0.45
 H  1.49  2.42 -0.87
 H  3.06  3.21 -1.24
 H  4.29  2.42  1.70
 H  2.77  1.58  2.18
