14
set: 5303.00  0.00  0.00
 C  1.10 -0.84  0.71
 C  2.34 -0.06  0.28
 C  2.05  1.41  0.01
 O  0.96  1.94  0.15
 N  3.17  2.14 -0.43
 C  3.17  3.50 -0.75
 O  4.17  4.08 -1.13
 H  1.35 -1.89  0.89
 H  0.32 -0.79 -0.06
 H  0.67 -0.42  1.63
 H  2.78 -0.49 -0.64
 H  3.13 -0.11  1.04
 H  4.07  1.66 -0.53
 H  2.17  3.96 -0.61
