18
set: 1878.00  0.00  0.00
 C  0.97 -0.33  0.47
 C  2.37  0.05  0.04
 N  2.93  1.33  0.60
 C  4.18  0.61  0.99
 C  3.57 -0.77  0.61
 C  4.32 -1.67 -0.31
 C  4.56 -2.97 -0.11
 H  0.68 -1.29  0.03
 H  0.24  0.43  0.14
 H  0.91 -0.42  1.57
 H  2.42  0.10 -1.07
 H  2.40  1.59  1.44
 H  5.03  0.90  0.35
 H  4.49  0.72  2.04
 H  3.25 -1.33  1.51
 H  4.70 -1.19 -1.23
 H  4.21 -3.48  0.79
 H  5.12 -3.57 -0.83
