21
set: 1198.00  0.00  0.00
 C  0.95 -0.01  0.12
 C  2.47  0.01  0.04
 C  3.24  1.08  0.86
 C  4.31 -0.01  1.22
 C  4.78 -0.04  2.68
 C  5.51  0.03  0.27
 C  3.27 -1.09  0.80
 H  0.53 -0.89 -0.41
 H  0.51  0.89 -0.35
 H  0.60 -0.05  1.16
 H  2.78  0.04 -1.01
 H  2.67  1.39  1.75
 H  3.60  1.98  0.33
 H  3.92 -0.07  3.37
 H  5.38  0.85  2.92
 H  5.40 -0.93  2.87
 H  5.19  0.06 -0.78
 H  6.15 -0.85  0.41
 H  6.13  0.93  0.45
 H  3.64 -1.95  0.22
 H  2.71 -1.46  1.67
