14
set: 4838.00  0.00  0.00
 C  0.93 -0.18 -0.01
 C  2.39  0.04 -0.00
 C  3.21  1.14 -0.01
 C  2.84  2.59 -0.02
 N  4.54  0.72 -0.00
 C  4.48 -0.58  0.00
 O  3.21 -1.09  0.00
 H  0.41  0.79  0.00
 H  0.60 -0.75  0.88
 H  0.60 -0.74 -0.90
 H  3.76  3.19 -0.00
 H  2.24  2.87  0.86
 H  2.27  2.86 -0.91
 H  5.29 -1.30  0.01
