17
set: 2580.00  0.00  0.00
 C  1.25 -0.11  0.06
 N  2.70 -0.13 -0.14
 C  3.14 -0.60 -1.46
 C  3.22  0.85 -1.10
 C  4.49  1.55 -0.74
 C  5.85  0.97 -0.92
 N  5.35  1.98 -1.87
 H  1.01  0.63  0.84
 H  0.91 -1.09  0.41
 H  0.68  0.15 -0.86
 H  2.37 -0.88 -2.19
 H  4.03 -1.23 -1.46
 H  2.48  1.49 -1.60
 H  4.38  2.25  0.10
 H  5.96 -0.03 -1.34
 H  6.62  1.25 -0.19
 H  5.77  2.89 -1.66
