13
set: 7062.00  0.00  0.00
 C  1.07 -0.28  0.03
 C  2.53  0.12 -0.08
 S  2.70  1.92  0.09
 O  2.07  2.59 -1.06
 O  2.38  2.31  1.48
 C  4.54  2.20 -0.10
 O  5.34  1.33 -0.30
 H  0.98 -1.36 -0.08
 H  0.46  0.20 -0.75
 H  0.66  0.01  1.01
 H  2.97 -0.12 -1.06
 H  3.16 -0.31  0.71
 H  4.77  3.29  0.00
