15
set: 3444.00  0.00  0.00
 C  1.02  0.22 -0.02
 C  2.52 -0.06  0.14
 O  3.32  1.10 -0.21
 C  3.64  1.11 -1.57
 O  4.51  0.03 -1.95
 C  4.00 -1.17 -1.52
 C  3.02 -1.27 -0.61
 H  0.74  1.09  0.59
 H  0.44 -0.65  0.32
 H  0.76  0.40 -1.07
 H  2.74 -0.20  1.22
 H  4.20  2.04 -1.77
 H  2.74  1.04 -2.20
 H  4.47 -2.02 -2.01
 H  2.63 -2.25 -0.34
