13
set: 3727.00  0.00  0.00
 C  0.96 -0.06  0.00
 C  2.50 -0.03 -0.00
 C  3.05  1.31  0.00
 C  3.47  2.46  0.00
 C  3.93  3.83  0.00
 O  5.29  3.97 -0.00
 O  3.20  4.80  0.00
 H  0.60 -1.10  0.00
 H  0.56  0.44 -0.88
 H  0.56  0.44  0.89
 H  2.89 -0.57 -0.88
 H  2.89 -0.57  0.88
 H  5.70  3.08 -0.00
