17
set: 3812.00  0.00  0.00
 C  1.03 -0.11  0.15
 C  2.52 -0.13 -0.21
 C  2.83 -1.21 -1.26
 C  2.96  1.23 -0.75
 O  2.38  1.80 -1.67
 C  4.18  1.89 -0.14
 O  4.50  3.10 -0.77
 H  0.81  0.63  0.94
 H  0.72 -1.09  0.52
 H  0.43  0.15 -0.73
 H  3.12 -0.34  0.70
 H  2.27 -1.01 -2.18
 H  2.54 -2.20 -0.88
 H  3.91 -1.24 -1.51
 H  5.03  1.17 -0.19
 H  3.97  2.04  0.94
 H  3.79  3.20 -1.46
