16
set: 5728.00  0.00  0.00
 C  1.74 -0.97  0.16
 N  3.10 -0.74 -0.33
 C  3.56  0.66 -0.17
 C  5.06  0.77 -0.47
 C  5.97 -0.08  0.42
 O  5.46 -1.27  0.82
 O  7.09  0.27  0.73
 H  1.45 -2.01 -0.05
 H  0.99 -0.29 -0.29
 H  1.72 -0.82  1.25
 H  3.15 -0.99 -1.32
 H  3.37  0.94  0.88
 H  2.98  1.36 -0.80
 H  5.39  1.81 -0.37
 H  5.25  0.48 -1.51
 H  4.51 -1.33  0.45
