13
set: 2314.00  0.00  0.00
 C  1.08 -0.20 -0.27
 C  2.59 -0.07 -0.10
 C  3.05  1.41 -0.02
 C  2.46  2.10  1.13
 N  1.94  2.63  2.04
 C  4.52  1.51  0.01
 N  5.68  1.55  0.00
 H  0.80 -1.26 -0.33
 H  0.73  0.29 -1.19
 H  0.54  0.24  0.58
 H  3.12 -0.52 -0.95
 H  2.93 -0.59  0.81
 H  2.71  1.94 -0.93
