21
set: 2423.00  0.00  0.00
 C  0.88 -0.88  0.18
 C  2.04 -0.15 -0.52
 C  2.68 -1.03 -1.61
 N  3.34 -2.20 -1.00
 N  1.72  1.19 -1.08
 C  0.64  1.20 -2.06
 C  1.48  2.18 -0.04
 H  0.50 -0.31  1.04
 H  1.24 -1.85  0.54
 H  0.04 -1.06 -0.50
 H  2.83  0.04  0.23
 H  3.34 -0.39 -2.22
 H  1.89 -1.42 -2.28
 H  4.22 -1.90 -0.56
 H  3.60 -2.87 -1.73
 H  0.85  0.48 -2.87
 H  0.59  2.20 -2.52
 H -0.36  0.97 -1.64
 H  2.32  2.19  0.67
 H  0.54  2.03  0.54
 H  1.42  3.18 -0.51
