19
set: 2330.00  0.00  0.00
 C  1.50 -0.18 -1.31
 C  2.22  0.22 -0.01
 C  2.61  1.67  0.04
 C  1.53  2.72  0.11
 N  3.88  1.95  0.04
 N  4.26  3.27  0.14
 C  5.63  3.50 -0.31
 H  1.22 -1.25 -1.29
 H  2.14 -0.01 -2.18
 H  0.57  0.39 -1.45
 H  3.14 -0.38  0.11
 H  1.57 -0.02  0.85
 H  0.53  2.27  0.18
 H  1.54  3.39 -0.77
 H  1.68  3.37  1.00
 H  3.59  3.94 -0.25
 H  6.30  2.85  0.26
 H  5.88  4.55 -0.10
 H  5.78  3.31 -1.39
