14
set: 6477.00  0.00  0.00
 O  1.28 -0.38  0.18
 C  2.65 -0.19 -0.06
 C  3.14 -0.53 -1.43
 C  3.12  0.92 -0.97
 C  4.42  1.65 -0.68
 C  5.07  2.15 -1.89
 N  5.58  2.55 -2.86
 H  1.00  0.26  0.86
 H  3.31 -0.45  0.78
 H  2.38 -0.82 -2.16
 H  4.10 -1.03 -1.54
 H  2.32  1.53 -1.40
 H  5.12  0.99 -0.16
 H  4.24  2.51 -0.01
