16
set: 5271.00  0.00  0.00
 C  0.68 -1.02 -0.33
 C  2.02 -0.35 -0.04
 C  3.15 -0.85 -0.93
 O  1.91  1.09 -0.29
 C  1.47  1.84  0.77
 N  1.45  3.17  0.41
 O  1.17  1.41  1.87
 H -0.10 -0.62  0.33
 H  0.76 -2.10 -0.16
 H  0.38 -0.86 -1.38
 H  2.28 -0.48  1.02
 H  2.91 -0.68 -1.99
 H  3.30 -1.92 -0.77
 H  4.09 -0.33 -0.70
 H  1.47  3.40 -0.57
 H  0.93  3.78  1.03
