19
set: 1257.00  0.00  0.00
 C  1.00 -0.38  0.34
 C  2.41  0.13  0.10
 C  2.95  1.32  0.93
 C  4.34  0.62  0.94
 C  3.62 -0.72  0.61
 C  4.26 -1.69 -0.32
 C  4.43 -3.00 -0.08
 H  0.82 -1.32 -0.21
 H  0.24  0.35  0.01
 H  0.83 -0.59  1.41
 H  2.56  0.34 -0.97
 H  2.50  1.34  1.94
 H  2.89  2.33  0.50
 H  4.96  0.95  0.10
 H  4.94  0.66  1.86
 H  3.33 -1.23  1.55
 H  4.61 -1.27 -1.27
 H  4.10 -3.46  0.85
 H  4.91 -3.66 -0.82
