14
set: 4844.00  0.00  0.00
 C  0.92 -0.02  0.08
 C  2.44  0.06 -0.07
 N  2.80  0.02 -1.47
 C  3.13  1.06  0.92
 O  3.68 -0.06  1.70
 C  3.17 -1.00  0.81
 O  3.32 -2.19  0.83
 H  0.62 -0.03  1.14
 H  0.56 -0.94 -0.40
 H  0.45  0.84 -0.41
 H  3.81  0.13 -1.61
 H  2.33  0.76 -1.99
 H  2.47  1.68  1.55
 H  3.94  1.66  0.48
