16
set: 6692.00  0.00  0.00
 O  2.76  2.80 -1.36
 C  2.29  2.24 -0.39
 C  2.97  1.16  0.41
 C  4.38  0.82 -0.05
 C  5.46  1.84  0.39
 N  5.75  0.98  1.57
 C  5.12 -0.18  0.88
 H  1.26  2.51 -0.02
 H  2.31  0.28  0.38
 H  2.97  1.48  1.47
 H  4.38  0.57 -1.12
 H  5.12  2.86  0.63
 H  6.28  1.91 -0.35
 H  6.74  0.87  1.79
 H  5.82 -0.82  0.32
 H  4.51 -0.82  1.53
