14
set: 6583.00  0.00  0.00
 O  1.45  0.08  1.02
 C  2.42  0.06  0.26
 C  3.11 -1.26 -0.10
 O  3.99 -1.22 -1.22
 C  4.87 -0.10 -1.12
 C  4.08  1.20 -1.24
 N  2.99  1.19 -0.26
 H  2.33 -2.00 -0.33
 H  3.65 -1.61  0.81
 H  5.42 -0.12 -0.16
 H  5.59 -0.18 -1.95
 H  4.74  2.05 -1.04
 H  3.68  1.30 -2.27
 H  2.49  2.05 -0.06
