19
set: 3684.00  0.00  0.00
 C  0.90 -0.15  0.29
 C  2.39 -0.05  0.66
 C  2.98  1.37  0.51
 C  2.34  2.38  1.47
 C  4.50  1.33  0.73
 C  5.33  0.72 -0.37
 O  4.91  0.35 -1.46
 H  0.56 -1.20  0.35
 H  0.73  0.19 -0.74
 H  0.27  0.44  0.96
 H  2.96 -0.73  0.01
 H  2.54 -0.39  1.70
 H  2.81  1.70 -0.52
 H  2.49  2.08  2.52
 H  1.25  2.46  1.31
 H  2.77  3.38  1.34
 H  4.77  0.82  1.67
 H  4.91  2.36  0.86
 H  6.42  0.64 -0.13
