16
set: 5180.00  0.00  0.00
 C  0.89 -0.05  0.11
 C  2.41  0.09 -0.09
 C  2.92 -0.73 -1.29
 N  2.37 -0.21 -2.57
 C  2.78  1.59 -0.15
 O  2.77  2.16 -1.38
 O  3.04  2.23  0.85
 H  0.58  0.49  1.02
 H  0.61 -1.10  0.22
 H  0.32  0.38 -0.73
 H  2.91 -0.29  0.81
 H  2.68 -1.79 -1.13
 H  4.01 -0.64 -1.35
 H  1.41 -0.51 -2.71
 H  2.91 -0.56 -3.36
 H  2.57  1.42 -2.05
