21
set: 1192.00  0.00  0.00
 C  0.92 -0.00 -0.02
 C  2.44 -0.02  0.08
 C  3.16  1.03  0.95
 C  4.21 -0.05  1.33
 C  3.20 -1.15  0.87
 C  2.40 -1.71  2.05
 C  3.77 -2.29  0.03
 H  0.54 -0.88 -0.58
 H  0.58  0.90 -0.55
 H  0.45 -0.00  0.97
 H  2.87  0.01 -0.94
 H  2.55  1.33  1.82
 H  3.53  1.95  0.46
 H  5.09 -0.01  0.68
 H  4.54 -0.09  2.38
 H  1.99 -0.91  2.69
 H  3.05 -2.33  2.69
 H  1.56 -2.33  1.71
 H  4.36 -1.90 -0.82
 H  2.97 -2.92 -0.38
 H  4.43 -2.93  0.63
