13
set: 6653.00  0.00  0.00
 O  3.07 -1.07 -0.54
 C  2.34 -0.04  0.12
 C  3.20  1.23  0.08
 C  2.62  2.43  0.76
 N  2.53  3.46 -0.01
 N  3.02  3.08 -1.33
 C  3.39  1.85 -1.28
 H  2.50 -1.85 -0.62
 H  2.14 -0.30  1.17
 H  1.37  0.16 -0.38
 H  4.19  0.97  0.51
 H  2.31  2.48  1.81
 H  3.79  1.34 -2.15
