16
set: 4694.00  0.00  0.00
 C  1.10 -0.26  0.16
 C  2.55 -0.17 -0.22
 C  3.06 -0.57 -1.59
 N  2.94  0.83 -1.23
 C  4.07  1.67 -1.12
 C  3.98  2.69 -0.01
 O  5.00  1.60 -1.91
 H  0.84  0.48  0.93
 H  0.87 -1.26  0.56
 H  0.45 -0.08 -0.72
 H  3.27 -0.31  0.59
 H  2.34 -0.93 -2.33
 H  4.07 -0.97 -1.67
 H  2.94  2.93  0.25
 H  4.52  3.60 -0.31
 H  4.48  2.29  0.89
