18
set: 4815.00  0.00  0.00
 C  1.00  0.04  0.02
 C  2.52  0.01  0.07
 N  3.10  1.11  0.85
 C  4.46  0.66  1.19
 C  4.36 -0.86  1.46
 C  3.13 -1.32  0.64
 O  3.40 -2.30 -0.38
 H  0.62 -0.80 -0.58
 H  0.64  0.98 -0.42
 H  0.58 -0.05  1.03
 H  2.91  0.10 -0.96
 H  2.56  1.21  1.72
 H  5.11  0.86  0.31
 H  4.87  1.24  2.03
 H  5.26 -1.42  1.16
 H  4.20 -1.05  2.53
 H  2.39 -1.82  1.29
 H  4.00 -1.88 -1.03
