17
set: 3303.00  0.00  0.00
 C  0.82  0.15 -0.69
 C  2.28  0.01 -0.30
 C  2.58  0.02  1.19
 C  2.60  1.44  1.79
 O  3.74  2.19  1.36
 C  3.23 -0.60 -1.24
 O  3.20  0.83 -1.10
 H  0.73  0.24 -1.78
 H  0.37  1.04 -0.24
 H  0.25 -0.73 -0.36
 H  3.56 -0.44  1.38
 H  1.83 -0.58  1.72
 H  2.67  1.38  2.88
 H  1.66  1.97  1.54
 H  3.83  2.03  0.40
 H  2.87 -0.98 -2.20
 H  4.13 -1.09 -0.85
