17
set: 3076.00  0.00  0.00
 C -1.26 -0.78 -0.54
 C -1.26  0.78 -0.53
 C -0.00  1.08  0.31
 C  1.27  0.78 -0.52
 C  1.27 -0.78 -0.53
 C  0.00 -1.08  0.30
 O -0.00 -0.01  1.27
 H -1.20 -1.21 -1.55
 H -2.15 -1.18 -0.05
 H -2.16  1.17 -0.04
 H -1.21  1.22 -1.54
 H -0.01  2.03  0.84
 H  2.16  1.18 -0.02
 H  1.22  1.22 -1.53
 H  2.16 -1.18 -0.02
 H  1.22 -1.21 -1.54
 H  0.00 -2.04  0.83
