14
set: 6893.00  0.00  0.00
 O  2.33 -0.33  0.34
 N  3.34  0.67  0.24
 C  4.50  0.11  0.27
 O  5.65  0.81  0.19
 C  5.49  2.26  0.06
 C  6.85  2.86 -0.08
 C  7.29  3.86  0.68
 H  1.52  0.21  0.32
 H  4.67 -0.97  0.35
 H  4.95  2.64  0.94
 H  4.86  2.45 -0.83
 H  7.47  2.45 -0.88
 H  6.68  4.28  1.49
 H  8.27  4.31  0.52
