16
set: 1567.00  0.00  0.00
 C -1.00 -0.05  1.12
 C -0.64  1.02  0.05
 C  0.87  1.28 -0.00
 C  1.62 -0.04 -0.01
 C  0.91 -1.18 -0.01
 C -0.60 -1.04  0.00
 N -0.96  0.01 -1.05
 H -0.44 -0.07  2.07
 H -2.08 -0.06  1.32
 H -1.22  1.95  0.01
 H  1.11  1.86 -0.91
 H  1.19  1.89  0.86
 H  2.71 -0.03 -0.03
 H  1.38 -2.16 -0.02
 H -1.12 -2.00 -0.09
 H -1.98 -0.01 -1.12
