13
set: 1123.00  0.00  0.00
 O  1.17 -0.05  0.65
 C  2.31  0.01  0.22
 C  3.16  1.26  0.00
 C  4.30  0.77 -0.88
 N  4.49 -0.62 -0.41
 C  3.15 -1.19 -0.25
 H  3.53  1.58  0.99
 H  2.55  2.08 -0.42
 H  4.00  0.83 -1.95
 H  5.23  1.34 -0.76
 H  5.07 -1.16 -1.05
 H  2.69 -1.56 -1.19
 H  3.12 -2.00  0.49
