16
set: 2272.00  0.00  0.00
 C  0.94  0.00  0.02
 C  2.40  0.01  0.01
 C  3.61  0.01  0.02
 C  5.09  0.01 -0.02
 N  5.65 -0.80 -1.14
 C  5.61  1.42 -0.11
 C  6.35  2.02  0.83
 H  0.54  1.03  0.03
 H  0.55 -0.52  0.90
 H  0.54 -0.50 -0.88
 H  5.47 -0.44  0.91
 H  5.28 -0.43 -2.02
 H  5.27 -1.75 -1.06
 H  5.33  1.97 -1.02
 H  6.63  1.49  1.75
 H  6.69  3.04  0.72
