15
set: 6046.00  0.00  0.00
 C  1.31 -0.16 -0.54
 O  2.73 -0.23 -0.40
 N  3.22  1.09 -0.22
 C  4.50  1.06 -0.08
 N  5.21  2.23  0.11
 C  6.59  2.30  0.27
 C  7.30  3.43  0.45
 H  0.99 -1.20 -0.69
 H  1.03  0.45 -1.41
 H  0.84  0.25  0.37
 H  5.09  0.14 -0.10
 H  4.67  3.09  0.13
 H  7.08  1.32  0.24
 H  6.83  4.41  0.49
 H  8.38  3.37  0.57
