17
set: 1250.00  0.00  0.00
 C  0.92  0.00  0.31
 C  2.37  0.01 -0.06
 C  3.14  1.07 -0.36
 C  4.56  0.70 -0.59
 C  5.27  0.09  0.62
 C  4.61 -0.82 -0.39
 C  3.18 -1.28 -0.12
 H  0.34 -0.66 -0.35
 H  0.49  1.01  0.26
 H  0.77 -0.38  1.34
 H  2.78  2.10 -0.39
 H  5.16  1.20 -1.35
 H  6.36  0.11  0.62
 H  4.80  0.23  1.59
 H  5.26 -1.43 -1.01
 H  3.10 -1.86  0.82
 H  2.81 -1.94 -0.92
