14
set: 653.00  0.00  0.00
 C  0.42  1.30  0.13
 C -1.07  1.06 -0.09
 C -1.39 -0.40  0.08
 C -0.42 -1.32  0.07
 C  1.02 -0.97 -0.17
 O  1.21  0.37 -0.62
 H  0.73  2.30 -0.21
 H  0.66  1.21  1.21
 H -1.37  1.41 -1.09
 H -1.65  1.66  0.64
 H -2.43 -0.70  0.21
 H -0.64 -2.38  0.23
 H  1.61 -1.15  0.76
 H  1.46 -1.61 -0.95
