15
set: 2613.00  0.00  0.00
 C  1.03 -0.02 -0.30
 N  2.48  0.00 -0.11
 C  3.10  1.24  0.16
 C  4.40  1.28  0.52
 C  5.19 -0.00  0.56
 N  4.34 -1.19  0.81
 C  3.12 -1.11  0.44
 H  0.73 -1.04 -0.57
 H  0.76  0.64 -1.14
 H  0.48  0.29  0.60
 H  2.46  2.12  0.10
 H  4.86  2.23  0.80
 H  5.73 -0.17 -0.39
 H  5.96  0.04  1.34
 H  2.47 -1.99  0.55
