15
set: 1551.00  0.00  0.00
 C  0.94 -1.19  0.84
 C  1.20 -0.35 -0.36
 C  0.99  1.14 -0.40
 C -0.28  1.57  0.36
 N -1.44  0.71  0.17
 C -1.23 -0.53 -0.09
 N -0.00 -1.22 -0.33
 H  1.50 -2.12  0.99
 H  0.58 -0.70  1.75
 H  1.94 -0.73 -1.07
 H  1.87  1.67 -0.01
 H  0.89  1.44 -1.46
 H -0.08  1.63  1.44
 H -0.56  2.59  0.06
 H -2.11 -1.19 -0.19
