18
set: 5649.00  0.00  0.00
 C  2.07 -0.54 -1.32
 N  2.25  0.07 -0.00
 C  3.15  1.22 -0.03
 C  2.54  2.55 -0.56
 C  3.18  3.30  0.65
 O  4.36  4.04  0.36
 C  3.40  1.91  1.33
 H  1.44 -1.44 -1.22
 H  3.01 -0.82 -1.83
 H  1.54  0.17 -1.97
 H  2.64 -0.63  0.64
 H  4.10  0.99 -0.56
 H  1.44  2.53 -0.49
 H  2.84  2.91 -1.56
 H  2.53  4.00  1.18
 H  4.97  3.47 -0.15
 H  4.38  1.77  1.81
 H  2.60  1.68  2.04
