14
set: 5383.00  0.00  0.00
 C  0.85  0.74 -0.04
 C  2.17  0.50 -0.08
 N  3.16  1.47  0.05
 C  4.52  1.19  0.00
 O  4.95  0.04 -0.16
 C  5.39  2.39  0.17
 C  6.72  2.28  0.15
 H  0.15 -0.08 -0.15
 H  0.45  1.74  0.11
 H  2.59 -0.50 -0.23
 H  2.87  2.44  0.19
 H  4.91  3.36  0.32
 H  7.19  1.30  0.00
 H  7.37  3.15  0.27
