13
set: 5070.00  0.00  0.00
 C  1.14  0.02 -0.38
 C  2.60  0.15 -0.07
 C  3.58 -0.97 -0.39
 C  2.98 -2.14 -1.01
 N  2.50 -3.08 -1.51
 N  3.00  1.25  0.48
 O  4.40  1.23  0.71
 H  0.62  0.93 -0.08
 H  0.71 -0.84  0.14
 H  0.99 -0.15 -1.46
 H  4.09 -1.27  0.54
 H  4.38 -0.58 -1.04
 H  4.54  2.10  1.12
