19
set: 1440.00  0.00  0.00
 C  0.78 -0.30  0.71
 C  2.16 -0.48  0.06
 C  2.38 -1.94 -0.36
 C  2.31  0.50 -1.12
 C  3.71  0.52 -1.78
 C  4.78  0.90 -0.87
 C  5.67  1.21 -0.10
 H  0.62  0.74  1.04
 H  0.66 -0.96  1.58
 H -0.03 -0.55 -0.00
 H  2.92 -0.22  0.81
 H  1.66 -2.24 -1.14
 H  2.24 -2.61  0.50
 H  3.39 -2.11 -0.75
 H  2.08  1.52 -0.77
 H  1.57  0.25 -1.90
 H  3.69  1.23 -2.62
 H  3.94 -0.46 -2.22
 H  6.46  1.48  0.57
