15
set: 7029.00  0.00  0.00
 C  0.69 -0.04  0.00
 C  2.16 -0.08  0.29
 C  3.02  0.89 -0.06
 N  4.38  0.89  0.27
 C  5.36  1.73 -0.20
 N  4.99  2.59 -1.21
 S  6.90  1.74  0.48
 H  0.37 -0.92 -0.58
 H  0.42  0.86 -0.57
 H  0.10 -0.04  0.93
 H  2.53 -0.95  0.84
 H  2.68  1.78 -0.59
 H  4.71  0.25  0.98
 H  4.29  2.27 -1.88
 H  5.77  3.10 -1.60
