19
set: 1468.00  0.00  0.00
 C  2.57 -1.13  1.19
 C  3.17 -0.45 -0.05
 C  3.10  1.05  0.02
 C  4.15  1.88 -0.01
 C  4.08  3.38  0.08
 C  4.81  3.92  1.28
 C  5.86  4.74  1.24
 H  2.63 -2.22  1.11
 H  1.51 -0.86  1.32
 H  3.11 -0.83  2.10
 H  2.63 -0.80 -0.95
 H  4.22 -0.76 -0.18
 H  2.09  1.48  0.11
 H  5.16  1.45 -0.09
 H  3.02  3.69  0.12
 H  4.51  3.83 -0.83
 H  4.44  3.57  2.25
 H  6.27  5.09  0.29
 H  6.36  5.08  2.15
