13
set: 4299.00  0.00  0.00
 O  1.55  0.03  1.39
 C  2.37  0.01  0.50
 C  2.96 -1.26 -0.14
 C  4.04 -0.76 -1.06
 O  5.07 -0.01 -0.38
 C  4.05  0.72 -1.09
 C  2.97  1.26 -0.18
 H  2.16 -1.79 -0.68
 H  3.33 -1.94  0.64
 H  4.39 -1.36 -1.91
 H  4.40  1.29 -1.96
 H  3.34  1.96  0.58
 H  2.17  1.77 -0.74
