13
set: 4660.00  0.00  0.00
 C  0.97 -0.05  0.01
 C  2.45  0.13 -0.00
 C  3.26  1.22 -0.06
 C  4.58  0.68 -0.05
 N  5.78  1.38 -0.18
 N  4.58 -0.64  0.03
 O  3.20 -1.00  0.05
 H  0.47  0.92  0.01
 H  0.66 -0.61  0.90
 H  0.64 -0.62 -0.87
 H  2.96  2.27 -0.13
 H  5.80  2.26  0.33
 H  6.59  0.80  0.03
