14
set: 5955.00  0.00  0.00
 C  3.20 -0.55  1.11
 O  2.76  0.23 -0.01
 C  3.29  1.47 -0.13
 C  4.19  2.08  0.67
 C  4.62  3.45  0.32
 N  5.54  4.00  1.20
 O  4.24  4.07 -0.68
 H  2.66 -1.50  1.03
 H  2.94 -0.05  2.05
 H  4.28 -0.73  1.06
 H  2.90  1.99 -1.01
 H  4.61  1.59  1.55
 H  5.66  3.62  2.13
 H  5.73  4.99  1.08
