16
set: 6020.00  0.00  0.00
 C  1.86 -0.74 -0.68
 O  3.21 -0.54 -0.23
 N  3.51  0.83 -0.31
 C  4.72  1.06  0.08
 C  5.24  2.40  0.08
 C  6.49  2.72  0.48
 C  7.07  4.09  0.50
 H  1.69 -1.82 -0.60
 H  1.74 -0.42 -1.73
 H  1.15 -0.19 -0.05
 H  5.36  0.23  0.42
 H  4.56  3.19 -0.26
 H  7.15  1.90  0.82
 H  6.35  4.84  0.14
 H  7.97  4.15 -0.14
 H  7.39  4.38  1.51
