19
set: 1779.00  0.00  0.00
 C  0.96  0.14 -0.11
 C  2.46 -0.00 -0.02
 C  3.30 -0.87 -0.92
 C  2.77 -1.70 -2.06
 N  3.79 -1.79 -3.12
 N  3.28  0.59 -1.09
 C  4.48  1.30 -0.64
 H  0.65  1.12  0.30
 H  0.46 -0.64  0.48
 H  0.60  0.08 -1.14
 H  2.87  0.10  0.99
 H  4.20 -1.29 -0.46
 H  1.80 -1.28 -2.40
 H  2.57 -2.72 -1.69
 H  3.92 -0.85 -3.51
 H  3.45 -2.37 -3.88
 H  4.22  2.34 -0.40
 H  5.22  1.32 -1.46
 H  4.96  0.84  0.25
