15
set: 1621.00  0.00  0.00
 C  1.37  0.11  0.52
 C  2.71 -0.08 -0.14
 C  3.45  1.04 -0.81
 C  4.08  0.37  0.42
 C  4.91 -0.81  0.15
 N  4.30 -1.79 -0.46
 N  2.99 -1.38 -0.72
 H  1.28  1.12  0.94
 H  1.21 -0.61  1.34
 H  0.55 -0.01 -0.21
 H  3.06  2.05 -0.65
 H  3.90  0.86 -1.78
 H  4.22  0.96  1.33
 H  5.96 -0.93  0.42
 H  2.33 -2.13 -0.52
