15
set: 3320.00  0.00  0.00
 C  0.87 -0.07  0.09
 C  2.38 -0.01 -0.01
 C  3.13  1.06  0.85
 O  4.00  0.06  1.44
 C  3.22 -1.01  0.84
 C  2.88  0.02 -1.44
 O  2.18 -0.00 -2.43
 H  0.55 -0.09  1.14
 H  0.48 -0.97 -0.41
 H  0.40  0.79 -0.40
 H  2.48  1.54  1.60
 H  3.70  1.83  0.30
 H  3.86 -1.72  0.29
 H  2.61 -1.55  1.59
 H  4.00  0.06 -1.52
