13
set: 6454.00  0.00  0.00
 N  0.88  2.56 -0.03
 N  2.28  2.49 -0.09
 C  2.82  1.33 -0.09
 O  4.16  1.14 -0.06
 C  4.94  2.36 -0.01
 C  6.35  2.02  0.03
 C  7.54  1.79  0.06
 H  0.60  3.42 -0.49
 H  0.42  1.77 -0.50
 H  2.29  0.37 -0.11
 H  4.64  2.94  0.88
 H  4.71  2.98 -0.89
 H  8.59  1.58  0.09
