15
set: 4473.00  0.00  0.00
 O  3.28 -0.72  0.67
 C  2.41  0.08 -0.15
 C  2.65  1.53  0.16
 C  1.66  2.34  0.57
 C  4.08  2.03 -0.02
 C  4.55  1.94 -1.39
 C  4.94  1.85 -2.54
 H  3.37 -1.59  0.25
 H  1.35 -0.17  0.02
 H  2.64 -0.09 -1.22
 H  0.65  1.96  0.72
 H  1.83  3.40  0.76
 H  4.74  1.43  0.63
 H  4.15  3.08  0.33
 H  5.28  1.78 -3.55
