15
set: 3134.00  0.00  0.00
 C  1.06  1.11 -0.48
 O -0.14  1.64  0.13
 C -1.28  0.90 -0.00
 C -1.46 -0.43 -0.12
 C -0.49 -1.58 -0.00
 C  0.96 -1.31  0.28
 C  1.62 -0.16  0.10
 H  1.79  1.93 -0.38
 H  0.85  0.97 -1.56
 H -2.15  1.56 -0.01
 H -2.50 -0.72 -0.24
 H -0.56 -2.21 -0.91
 H -0.87 -2.24  0.80
 H  1.52 -2.16  0.66
 H  2.69 -0.14  0.35
