17
set: 360.00  0.00  0.00
 C  0.97 -0.06  0.06
 C  2.49  0.04  0.06
 C  3.20  1.12  0.92
 C  4.22  0.01  1.26
 N  3.21 -1.00  0.85
 C  3.68 -2.18  0.15
 H  0.63 -0.97 -0.45
 H  0.52  0.80 -0.46
 H  0.59 -0.09  1.09
 H  2.87  0.08 -0.98
 H  2.59  1.41  1.79
 H  3.57  2.01  0.40
 H  5.09  0.04  0.57
 H  4.58 -0.08  2.29
 H  2.82 -2.78 -0.19
 H  4.27 -2.81  0.83
 H  4.31 -1.94 -0.73
