13
set: 6993.00  0.00  0.00
 C  2.67 -1.17  0.38
 C  2.20  0.08  0.17
 C  2.99  1.30  0.06
 C  2.41  2.54 -0.16
 S  3.58  3.81 -0.23
 C  4.88  2.69  0.03
 C  4.41  1.40  0.17
 H  1.99 -2.02  0.44
 H  3.73 -1.37  0.51
 H  1.12  0.21  0.05
 H  1.36  2.77 -0.28
 H  5.90  3.05  0.07
 H  5.07  0.56  0.35
