19
set: 2665.00  0.00  0.00
 C  2.17 -0.40 -1.35
 N  2.34  0.07  0.02
 C  2.92 -0.98  0.86
 C  3.16  1.27  0.06
 C  2.57  2.56 -0.55
 N  2.96  3.35  0.68
 C  3.23  2.05  1.39
 H  1.70  0.39 -1.96
 H  1.51 -1.28 -1.36
 H  3.13 -0.68 -1.84
 H  2.27 -1.86  0.85
 H  3.01 -0.63  1.89
 H  3.93 -1.30  0.51
 H  4.18  1.08 -0.34
 H  1.47  2.52 -0.63
 H  2.99  2.92 -1.49
 H  3.85  3.82  0.50
 H  4.17  2.01  1.96
 H  2.39  1.81  2.06
