17
set: 3764.00  0.00  0.00
 C  1.14 -0.10  0.70
 C  2.51 -0.00  0.00
 C  2.51 -0.62 -1.42
 C  1.58  0.07 -2.42
 O  1.65 -0.53 -3.72
 C  3.00  1.37 -0.00
 C  3.41  2.52 -0.01
 H  1.21  0.24  1.74
 H  0.79 -1.15  0.70
 H  0.38  0.52  0.20
 H  3.23 -0.60  0.60
 H  2.23 -1.68 -1.34
 H  3.54 -0.59 -1.81
 H  1.81  1.15 -2.47
 H  0.53 -0.04 -2.11
 H  2.54 -0.38 -4.07
 H  3.77  3.53 -0.00
