15
set: 4697.00  0.00  0.00
 C  1.03 -0.20  0.15
 C  2.48  0.04 -0.18
 C  3.14 -0.52 -1.40
 N  2.79  0.89 -1.35
 C  3.86  1.83 -1.25
 N  3.46  3.00 -0.64
 O  4.99  1.63 -1.66
 H  0.61  0.63  0.73
 H  0.92 -1.12  0.75
 H  0.44 -0.32 -0.77
 H  3.14  0.18  0.68
 H  2.56 -1.12 -2.10
 H  4.21 -0.75 -1.35
 H  2.47  3.22 -0.65
 H  4.10  3.78 -0.74
