14
set: 93.00  0.00  0.00
 C  0.97 -0.03  0.04
 C  2.48  0.04  0.04
 C  3.20  1.10  0.92
 C  4.21 -0.02  1.26
 N  3.19 -1.02  0.82
 H  0.61 -0.92 -0.50
 H  0.53  0.85 -0.44
 H  0.59 -0.09  1.08
 H  2.85  0.11 -1.00
 H  2.59  1.39  1.79
 H  3.58  2.00  0.42
 H  5.10  0.02  0.61
 H  4.53 -0.13  2.30
 H  3.55 -1.79  0.27
