19
set: 3887.00  0.00  0.00
 C  0.92  0.53 -0.81
 C  2.30  0.57 -0.17
 C  3.10  1.82 -0.51
 O  2.61  2.78 -1.09
 C  4.58  1.81 -0.10
 C  5.41  1.27 -1.28
 C  5.06  3.20  0.32
 H  0.37 -0.37 -0.50
 H  0.99  0.54 -1.91
 H  0.33  1.41 -0.52
 H  2.90 -0.31 -0.45
 H  2.23  0.53  0.93
 H  4.69  1.11  0.75
 H  5.31  1.94 -2.15
 H  5.08  0.26 -1.58
 H  6.47  1.21 -1.01
 H  4.91  3.92 -0.49
 H  6.13  3.18  0.58
 H  4.51  3.57  1.20
