17
set: 3109.00  0.00  0.00
 C  0.80 -1.25  0.53
 C  1.68 -0.09  0.03
 O  0.96  1.00 -0.54
 C -0.08  1.52  0.29
 C -1.39  0.77  0.17
 C -1.54 -0.52 -0.16
 C -0.42 -1.52 -0.36
 H  1.44 -2.15  0.59
 H  0.45 -1.05  1.55
 H  2.33 -0.43 -0.79
 H  2.33  0.27  0.86
 H  0.25  1.58  1.35
 H -0.24  2.56 -0.05
 H -2.29  1.37  0.34
 H -2.55 -0.91 -0.26
 H -0.81 -2.53 -0.14
 H -0.12 -1.54 -1.43
