14
set: 1997.00  0.00  0.00
 C  1.69 -0.22 -1.26
 C  2.24  0.16 -0.11
 C  3.37  1.11  0.05
 N  3.92  1.89 -1.06
 C  3.12  2.60 -0.02
 C  3.80  3.53  0.84
 C  4.34  4.31  1.59
 H  0.85 -0.91 -1.29
 H  2.06  0.12 -2.23
 H  1.85 -0.25  0.83
 H  4.13  0.80  0.78
 H  3.33  1.77 -1.89
 H  2.10  2.88 -0.29
 H  4.83  5.00  2.25
