15
set: 3891.00  0.00  0.00
 C  1.43 -0.59 -0.24
 C  2.80 -0.04  0.13
 C  2.92  1.46  0.01
 O  1.98  2.18 -0.28
 C  4.31  2.10  0.24
 C  5.26  1.35  1.05
 C  6.05  0.72  1.73
 H  1.41 -1.68 -0.14
 H  1.17 -0.34 -1.28
 H  0.65 -0.16  0.40
 H  3.61 -0.48 -0.49
 H  3.09 -0.31  1.16
 H  4.14  3.10  0.67
 H  4.73  2.26 -0.77
 H  6.74  0.17  2.33
