14
set: 676.00  0.00  0.00
 C  1.07 -0.07  0.11
 C  2.38  0.03 -0.11
 C  3.27  1.25 -0.01
 C  4.48  0.86 -0.87
 C  4.52 -0.66 -0.66
 O  3.14 -1.06 -0.50
 H  0.55 -1.02  0.01
 H  0.50  0.82  0.40
 H  3.58  1.39  1.04
 H  2.77  2.17 -0.34
 H  4.29  1.09 -1.93
 H  5.42  1.35 -0.57
 H  4.94 -1.22 -1.50
 H  5.08 -0.92  0.26
