17
set: 1404.00  0.00  0.00
 C  3.97 -0.30  2.26
 C  3.27 -0.46  0.94
 C  2.51 -1.55  0.67
 C  3.41  0.58 -0.07
 C  4.15  1.72  0.05
 C  4.25  2.72 -0.98
 C  4.99  3.84 -0.88
 H  3.64  0.61  2.78
 H  5.06 -0.22  2.12
 H  3.78 -1.16  2.92
 H  2.38 -2.35  1.41
 H  1.99 -1.67 -0.28
 H  2.86  0.42 -1.01
 H  4.70  1.90  0.97
 H  3.69  2.54 -1.91
 H  5.57  4.06  0.02
 H  5.04  4.57 -1.69
