13
set: 1070.00  0.00  0.00
 C  1.15 -0.30 -0.20
 N  2.59 -0.14 -0.20
 C  3.18  1.02  0.23
 O  2.52  1.97  0.67
 C  4.67  1.03  0.13
 C  5.38  2.10  0.50
 H  0.90 -1.34 -0.42
 H  0.67  0.36 -0.95
 H  0.74 -0.03  0.79
 H  3.17 -0.87 -0.61
 H  5.17  0.13 -0.26
 H  4.86  2.98  0.88
 H  6.47  2.13  0.43
