16
set: 5143.00  0.00  0.00
 C  1.24 -0.07 -0.97
 C  1.97 -0.54  0.25
 C  1.88 -1.81  0.71
 N  2.78  0.37  0.96
 C  3.08  1.70  0.68
 C  4.02  2.34  1.68
 O  2.64  2.32 -0.29
 H  1.93  0.30 -1.73
 H  0.57  0.77 -0.73
 H  0.65 -0.90 -1.38
 H  1.25 -2.53  0.19
 H  2.41 -2.15  1.60
 H  3.22 -0.01  1.79
 H  4.20  1.75  2.58
 H  3.61  3.32  1.97
 H  4.99  2.53  1.18
