14
set: 644.00  0.00  0.00
 N  0.79  0.57  0.48
 N  2.15  0.56  0.69
 C  2.89  1.20 -0.15
 C  4.39  1.16 -0.03
 C  4.98  2.53  0.21
 C  5.81  3.17 -0.61
 H  0.31  0.44  1.37
 H  0.43  1.39 -0.03
 H  2.46  1.80 -0.97
 H  4.83  0.75 -0.96
 H  4.64  0.48  0.79
 H  4.66  3.01  1.15
 H  6.14  2.72 -1.55
 H  6.20  4.16 -0.38
