14
set: 789.00  0.00  0.00
 C  0.97 -0.03 -0.03
 C  2.51 -0.01  0.00
 C  3.04 -0.79  1.22
 O  3.04 -0.71 -1.15
 C  3.00  1.37  0.02
 C  3.39  2.52 -0.00
 H  0.60  0.51 -0.92
 H  0.56  0.46  0.86
 H  0.62 -1.07 -0.08
 H  2.68 -0.33  2.15
 H  4.14 -0.78  1.22
 H  2.69 -1.83  1.16
 H  2.86 -0.16 -1.93
 H  3.74  3.54 -0.02
