16
set: 5347.00  0.00  0.00
 C  1.30 -0.24 -0.76
 C  2.56 -0.04  0.07
 N  3.12  1.29 -0.10
 C  4.45  1.57 -0.11
 C  5.04  2.80 -0.06
 C  6.47  2.91 -0.13
 O  7.12  3.96 -0.09
 H  0.89 -1.25 -0.60
 H  1.51 -0.12 -1.83
 H  0.52  0.48 -0.48
 H  3.33 -0.76 -0.24
 H  2.34 -0.24  1.14
 H  2.48  2.08  0.05
 H  5.09  0.68 -0.20
 H  4.45  3.72  0.04
 H  7.00  1.92 -0.23
