16
set: 5939.00  0.00  0.00
 C  1.40 -0.25 -0.30
 O  2.82 -0.09 -0.35
 C  3.23  1.13  0.22
 C  4.76  1.22  0.09
 C  5.23  1.25 -1.38
 C  5.25  2.39  0.83
 N  5.62  3.32  1.42
 H  1.17 -1.22 -0.76
 H  0.89  0.55 -0.86
 H  1.03 -0.24  0.74
 H  2.94  1.18  1.29
 H  2.76  1.99 -0.30
 H  5.18  0.33  0.58
 H  4.84  2.15 -1.88
 H  4.85  0.36 -1.89
 H  6.32  1.27 -1.44
