14
set: 6751.00  0.00  0.00
 O  2.78  2.40 -2.26
 C  2.22  2.11 -1.22
 C  2.89  1.44 -0.04
 N  4.32  1.23 -0.11
 C  5.09  2.48  0.08
 C  6.53  2.25 -0.07
 C  7.72  2.07 -0.21
 H  1.12  2.31 -1.08
 H  2.37  0.47  0.09
 H  2.63  2.01  0.88
 H  4.56  0.84 -1.03
 H  4.89  2.85  1.10
 H  4.79  3.28 -0.62
 H  8.77  1.91 -0.33
