18
set: 6691.00  0.00  0.00
 O  2.68  3.54 -0.48
 C  2.24  2.17 -0.58
 C  3.04  1.33  0.40
 C  4.54  1.28  0.11
 C  5.43  2.49  0.51
 N  6.41  1.58  1.20
 C  5.44  0.44  1.05
 H  2.15  4.07 -1.10
 H  2.38  1.79 -1.61
 H  1.16  2.10 -0.34
 H  2.63  0.30  0.36
 H  2.87  1.70  1.42
 H  4.71  1.00 -0.94
 H  4.95  3.16  1.23
 H  5.84  3.09 -0.31
 H  7.22  1.42  0.59
 H  5.86 -0.49  0.64
 H  4.97  0.21  2.02
