16
set: 7040.00  0.00  0.00
 C  0.97  0.08 -0.06
 C  2.50  0.00 -0.05
 C  3.08 -0.84 -1.18
 S  3.22  1.68 -0.05
 N  2.70  2.31 -1.55
 O  2.57  2.46  1.01
 O  4.68  1.54 -0.13
 H  0.60  0.70  0.77
 H  0.56 -0.93  0.06
 H  0.61  0.49 -1.01
 H  2.86 -0.36  0.93
 H  2.76 -0.45 -2.16
 H  2.72 -1.87 -1.09
 H  4.18 -0.85 -1.14
 H  3.52  2.55 -2.10
 H  2.14  3.15 -1.36
