16
set: 6460.00  0.00  0.00
 O  1.55 -0.26 -0.85
 C  2.75  0.06 -0.17
 C  3.51 -1.02  0.56
 C  4.06 -0.42 -0.74
 N  5.04  0.64 -0.67
 C  4.30  1.90 -0.42
 C  2.97  1.51  0.28
 H  0.87 -0.43 -0.18
 H  3.11 -2.03  0.49
 H  4.00 -0.77  1.50
 H  4.05 -1.06 -1.63
 H  5.70  0.46  0.09
 H  4.92  2.60  0.16
 H  4.08  2.37 -1.39
 H  3.04  1.59  1.38
 H  2.13  2.14 -0.05
