19
set: 3668.00  0.00  0.00
 C  2.39 -0.90 -1.53
 C  3.08 -0.41 -0.24
 C  3.06  1.09 -0.11
 C  4.15  1.87 -0.02
 C  4.18  3.36  0.14
 C  2.82  4.06  0.16
 O  4.96  3.71  1.31
 H  2.40 -2.00 -1.58
 H  2.90 -0.51 -2.42
 H  1.35 -0.57 -1.57
 H  4.12 -0.77 -0.21
 H  2.56 -0.86  0.63
 H  2.06  1.55 -0.11
 H  5.14  1.40 -0.02
 H  4.77  3.79 -0.69
 H  2.19  3.67  0.98
 H  2.28  3.91 -0.79
 H  2.96  5.13  0.32
 H  4.57  3.22  2.06
