21
set: 1480.00  0.00  0.00
 C  2.17 -0.52  1.33
 C  2.51  0.06 -0.05
 C  3.08  1.46  0.00
 C  2.01  2.53  0.05
 C  4.41  1.72  0.03
 C  5.46  0.64  0.02
 C  5.01  3.11  0.07
 H  1.70 -1.51  1.24
 H  1.47  0.13  1.88
 H  3.08 -0.63  1.94
 H  1.58  0.09 -0.66
 H  3.19 -0.62 -0.58
 H  1.25  2.29  0.82
 H  1.46  2.57 -0.91
 H  2.38  3.53  0.26
 H  5.06 -0.37  0.05
 H  6.13  0.76  0.90
 H  6.11  0.74 -0.87
 H  4.27  3.92  0.00
 H  5.71  3.24 -0.77
 H  5.59  3.25  0.99
