13
set: 1072.00  0.00  0.00
 C  2.67  0.85 -1.29
 N  3.84  1.22 -0.91
 O  4.83  0.30 -1.35
 C  6.10  0.73 -0.90
 C  7.24  0.27 -1.75
 C  6.85  1.73 -1.74
 H  1.85  1.49 -0.99
 H  2.49 -0.06 -1.88
 H  6.20  0.76  0.18
 H  6.99 -0.31 -2.64
 H  8.15 -0.05 -1.24
 H  7.50  2.45 -1.22
 H  6.34  2.12 -2.62
