16
set: 2625.00  0.00  0.00
 C  2.83 -1.11 -0.52
 N  2.37  0.12  0.12
 C  3.38  1.14  0.16
 C  3.49  2.07 -1.01
 C  2.90  2.58  0.30
 C  3.62  3.52  1.11
 C  4.24  4.31  1.80
 H  2.03 -1.86 -0.48
 H  3.74 -1.55 -0.05
 H  3.06 -0.91 -1.57
 H  2.05 -0.08  1.07
 H  4.33  0.92  0.68
 H  2.78  1.92 -1.83
 H  4.48  2.44 -1.29
 H  1.81  2.69  0.30
 H  4.78  5.00  2.41
