17
set: 2389.00  0.00  0.00
 C  1.07 -0.07  0.85
 C  2.46  0.35  0.47
 C  2.82  1.62  0.22
 N  4.10  2.04 -0.14
 C  4.50  3.35 -0.41
 C  5.96  3.44 -0.78
 N  3.79  4.42 -0.36
 H  0.64 -0.78  0.13
 H  0.39  0.80  0.90
 H  1.05 -0.57  1.83
 H  3.21 -0.45  0.39
 H  2.08  2.42  0.30
 H  4.81  1.31 -0.22
 H  6.61  3.06  0.02
 H  6.21  4.49 -0.97
 H  6.17  2.86 -1.69
 H  2.82  4.23 -0.10
