18
set: 316.00  0.00  0.00
 C  0.90  0.05 -0.03
 C  2.41 -0.17  0.05
 C  3.21  1.14 -0.07
 C  4.71  0.97  0.01
 C  5.38  0.28 -1.15
 C  5.40  1.42  1.07
 H  0.35 -0.90  0.07
 H  0.61  0.50 -1.00
 H  0.55  0.73  0.76
 H  2.72 -0.87 -0.74
 H  2.66 -0.65  1.01
 H  2.88  1.83  0.72
 H  2.95  1.62 -1.04
 H  4.98 -0.74 -1.29
 H  6.46  0.20 -1.00
 H  5.20  0.82 -2.09
 H  4.91  1.94  1.89
 H  6.49  1.29  1.13
