17
set: 2767.00  0.00  0.00
 C  0.92  0.81 -0.63
 N  2.26  0.28 -0.42
 C  3.27  1.08  0.09
 N  3.22  2.36  0.27
 C  4.55  0.40  0.40
 C  4.92 -0.83  0.03
 C  6.23 -1.47  0.38
 H  0.27  0.00 -0.98
 H  0.94  1.59 -1.41
 H  0.49  1.25  0.29
 H  2.30 -0.70 -0.15
 H  2.29  2.74  0.03
 H  5.23  1.04  0.98
 H  4.25 -1.44 -0.59
 H  6.86 -0.79  0.98
 H  6.79 -1.74 -0.53
 H  6.08 -2.40  0.94
