16
set: 2010.00  0.00  0.00
 C  0.85  0.49 -0.08
 C  2.13  0.21  0.17
 C  3.30  1.17  0.02
 N  4.01  1.33  1.32
 C  3.63  2.67  1.84
 C  3.09  3.42  0.65
 C  2.91  2.58 -0.38
 H  0.07 -0.27  0.06
 H  0.53  1.47 -0.42
 H  2.42 -0.78  0.53
 H  4.00  0.72 -0.71
 H  5.01  1.36  1.12
 H  4.50  3.16  2.31
 H  2.86  2.57  2.63
 H  2.83  4.47  0.67
 H  2.49  2.84 -1.35
