17
set: 3940.00  0.00  0.00
 C  0.97 -0.19  0.23
 C  2.38  0.20 -0.20
 C  2.86  1.52  0.39
 O  2.18  2.20  1.14
 C  4.30  1.95  0.08
 O  4.87  1.41 -1.11
 C  4.49  2.14 -2.27
 H  0.69 -1.15 -0.21
 H  0.24  0.57 -0.08
 H  0.90 -0.27  1.32
 H  2.47  0.27 -1.30
 H  3.13 -0.57  0.08
 H  4.93  1.58  0.91
 H  4.34  3.05  0.09
 H  4.98  1.66 -3.13
 H  4.83  3.19 -2.21
 H  3.40  2.14 -2.43
