16
set: 6156.00  0.00  0.00
 N  0.86 -0.10  0.02
 C  2.32 -0.07 -0.03
 C  2.73 -0.03 -1.50
 O  2.12  1.07 -2.17
 C  2.98  1.03  0.83
 O  3.94  0.08  1.37
 C  3.19 -1.03  0.82
 H  0.52  0.01  0.98
 H  0.50 -0.99 -0.33
 H  2.46 -1.00 -1.97
 H  3.82  0.09 -1.58
 H  1.21  1.11 -1.80
 H  2.32  1.45  1.61
 H  3.47  1.86  0.28
 H  3.84 -1.74  0.28
 H  2.62 -1.57  1.61
