14
set: 282.00  0.00  0.00
 C  0.77  0.02  0.16
 C  2.27  0.03  0.24
 C  3.06  0.99 -0.26
 C  4.57  0.98 -0.16
 C  5.23  1.06 -1.46
 C  5.77  1.14 -2.55
 H  0.41 -0.87 -0.37
 H  0.39  0.91 -0.37
 H  0.32 -0.00  1.16
 H  2.73 -0.82  0.75
 H  2.62  1.84 -0.79
 H  4.90  0.07  0.37
 H  4.90  1.83  0.46
 H  6.24  1.20 -3.50
