13
set: 4441.00  0.00  0.00
 O  2.49 -0.92  0.62
 C  2.28  0.17  0.10
 C  0.97  0.47 -0.46
 C -0.14  0.69 -0.91
 C  3.31  1.23  0.01
 C  3.36  2.16 -1.20
 C  2.92  2.70  0.12
 H -1.12  0.86 -1.31
 H  4.26  0.93  0.45
 H  2.60  2.01 -1.97
 H  4.35  2.41 -1.57
 H  3.60  3.34  0.68
 H  1.86  2.92  0.25
