13
set: 3418.00  0.00  0.00
 C  0.90  0.05 -0.00
 C  2.24 -0.04  0.00
 O  3.05  1.10  0.01
 C  4.38  0.70  0.01
 C  5.39  1.59  0.01
 C  4.40 -0.75  0.00
 C  3.12 -1.19  0.00
 H  0.39  1.01  0.00
 H  0.30 -0.86 -0.01
 H  6.42  1.24  0.02
 H  5.19  2.66  0.02
 H  5.31 -1.35  0.01
 H  2.76 -2.22 -0.00
