14
set: 5197.00  0.00  0.00
 C  0.99 -0.09  0.23
 C  2.51 -0.02 -0.08
 C  2.83 -0.84 -1.30
 N  3.39 -0.33 -2.33
 O  3.57 -1.30 -3.35
 C  2.97  1.37 -0.15
 C  3.31  2.53 -0.16
 H  0.77  0.43  1.17
 H  0.67 -1.14  0.32
 H  0.41  0.39 -0.57
 H  3.04 -0.50  0.77
 H  2.55 -1.91 -1.28
 H  4.00 -0.77 -4.05
 H  3.62  3.55 -0.18
