18
set: 5323.00  0.00  0.00
 C  1.10  0.10  0.21
 C  2.60  0.04 -0.10
 N  2.94 -0.69 -1.33
 C  3.17  1.45 -0.19
 C  3.14  2.35  1.06
 C  4.64  2.55  0.78
 O  4.63  1.50 -0.23
 H  0.88  0.62  1.16
 H  0.68 -0.91  0.28
 H  0.55  0.63 -0.59
 H  3.12 -0.46  0.73
 H  2.42 -0.31 -2.12
 H  2.65 -1.67 -1.24
 H  2.76  1.95 -1.09
 H  2.94  1.79  1.99
 H  2.50  3.24  1.03
 H  4.89  3.54  0.34
 H  5.34  2.34  1.60
