16
set: 6215.00  0.00  0.00
 N  1.97 -0.21 -1.32
 C  2.51  0.16 -0.00
 C  3.30  1.46 -0.13
 C  2.44  2.67 -0.56
 O  2.95  3.75  0.24
 C  3.26  3.13  1.46
 O  3.85  1.86  1.15
 H  1.32 -1.00 -1.22
 H  2.73 -0.54 -1.93
 H  3.17 -0.61  0.46
 H  1.67  0.32  0.69
 H  4.15  1.32 -0.82
 H  1.37  2.48 -0.33
 H  2.54  2.94 -1.61
 H  4.00  3.74  2.00
 H  2.35  2.98  2.08
