21
set: 3695.00  0.00  0.00
 C  0.89  1.95  1.06
 C  2.41  2.06  1.14
 C  3.11  1.53 -0.12
 C  4.65  1.50 -0.08
 C  5.22  0.69 -1.24
 C  5.24  2.92 -0.06
 O  6.66  2.95  0.07
 H  0.41  2.33  1.98
 H  0.57  0.91  0.93
 H  0.49  2.53  0.21
 H  2.77  1.49  2.02
 H  2.69  3.11  1.32
 H  2.78  2.12 -1.00
 H  2.75  0.50 -0.31
 H  4.95  1.01  0.87
 H  4.88  1.10 -2.21
 H  4.89 -0.36 -1.19
 H  6.32  0.71 -1.24
 H  4.77  3.53  0.73
 H  5.03  3.41 -1.03
 H  6.88  2.61  0.96
