16
set: 602.00  0.00  0.00
 N  2.90 -1.05 -0.63
 C  2.39  0.05  0.21
 C  3.35  1.22  0.23
 C  3.46  2.12 -0.98
 C  2.82  2.65  0.27
 N  3.45  3.73  1.01
 H  2.25 -1.84 -0.59
 H  3.79 -1.40 -0.24
 H  2.18 -0.26  1.26
 H  1.44  0.38 -0.22
 H  4.28  1.05  0.79
 H  2.83  1.90 -1.84
 H  4.45  2.51 -1.24
 H  1.73  2.74  0.25
 H  4.45  3.75  0.82
 H  3.34  3.59  2.01
