13
set: 4789.00  0.00  0.00
 C  0.90  0.06  0.03
 C  2.40  0.04  0.01
 C  3.29  1.07 -0.03
 O  4.56  0.62 -0.01
 N  4.54 -0.79  0.03
 C  3.26 -1.11  0.05
 N  2.85 -2.44  0.19
 H  0.52  1.08  0.04
 H  0.51 -0.46  0.92
 H  0.48 -0.44 -0.86
 H  3.16  2.15 -0.07
 H  2.03 -2.68 -0.36
 H  3.61 -3.10  0.03
