16
set: 2062.00  0.00  0.00
 C  2.56 -1.27  0.65
 C  2.17 -0.04  0.26
 C  3.05  1.11  0.02
 C  2.55  2.27 -0.47
 C  4.51  0.96  0.31
 C  5.51  0.67 -0.76
 N  5.42  2.02 -0.16
 H  1.83 -2.06  0.81
 H  3.60 -1.52  0.82
 H  1.11  0.15  0.09
 H  1.49  2.37 -0.69
 H  3.22  3.11 -0.65
 H  4.73  0.51  1.29
 H  5.16  0.61 -1.80
 H  6.36  0.03 -0.52
 H  6.17  2.14  0.52
