16
set: 2130.00  0.00  0.00
 C  0.94 -0.17 -0.01
 C  2.43 -0.05 -0.00
 C  3.18 -1.37 -0.01
 C  3.10  1.13  0.00
 C  2.51  2.52  0.00
 C  4.53  1.10  0.00
 N  5.70  1.10  0.00
 H  0.41  0.79 -0.00
 H  0.60 -0.75  0.87
 H  0.61 -0.73 -0.89
 H  2.49 -2.22  0.01
 H  3.86 -1.45  0.86
 H  3.82 -1.46 -0.91
 H  1.41  2.50 -0.01
 H  2.85  3.09 -0.87
 H  2.83  3.08  0.90
