17
set: 3799.00  0.00  0.00
 C  1.16  0.45 -1.60
 C  2.62  0.53 -1.29
 C  3.15  1.17 -0.24
 C  4.63  1.24  0.08
 O  5.44  0.48 -0.81
 C  5.10  2.71  0.07
 O  5.09  3.23 -1.27
 H  0.81 -0.60 -1.60
 H  0.95  0.83 -2.61
 H  0.55  1.01 -0.88
 H  3.30 -0.01 -1.95
 H  2.49  1.69  0.47
 H  4.80  0.84  1.09
 H  5.64  1.07 -1.56
 H  6.15  2.76  0.40
 H  4.48  3.32  0.74
 H  4.17  3.18 -1.59
