19
set: 2744.00  0.00  0.00
 C  1.22 -0.24  0.32
 N  2.64  0.07  0.52
 C  2.99  1.48  0.27
 C  2.54  2.36  1.45
 N  2.71  3.78  1.13
 C  4.48  1.58  0.09
 C  5.09  2.21 -0.92
 H  1.08 -1.33  0.37
 H  0.82  0.12 -0.65
 H  0.61  0.20  1.12
 H  3.19 -0.51 -0.12
 H  2.49  1.88 -0.64
 H  3.08  2.01  2.36
 H  1.47  2.19  1.63
 H  3.71  3.99  1.02
 H  2.37  4.36  1.90
 H  5.07  1.11  0.89
 H  4.53  2.69 -1.72
 H  6.18  2.27 -0.97
