13
set: 4510.00  0.00  0.00
 O  2.66 -0.60  1.30
 C  2.31 -0.01  0.05
 C  2.94  1.40 -0.00
 C  2.38  2.23  1.18
 O  1.31  2.79  1.13
 C  4.40  1.39 -0.00
 C  5.61  1.43  0.03
 H  2.28 -1.49  1.33
 H  1.22  0.11 -0.06
 H  2.70 -0.60 -0.80
 H  2.56  1.89 -0.92
 H  3.04  2.27  2.08
 H  6.68  1.45  0.04
