13
set: 6182.00  0.00  0.00
 N  1.86 -0.35 -1.15
 C  2.75 -0.04 -0.02
 C  2.99  1.43  0.06
 C  2.33  2.52 -0.43
 C  3.10  3.62  0.04
 N  4.14  3.25  0.76
 O  4.08  1.83  0.77
 H  1.57 -1.33 -1.10
 H  2.37 -0.24 -2.03
 H  3.73 -0.55 -0.04
 H  2.25 -0.37  0.91
 H  1.43  2.52 -1.03
 H  2.94  4.68 -0.12
