18
set: 6619.00  0.00  0.00
 O  1.73 -0.23 -1.23
 C  2.22  0.16  0.06
 C  3.21  1.31 -0.12
 C  2.56  2.57 -0.76
 C  2.83  3.70  0.24
 N  2.89  2.98  1.52
 C  3.74  1.81  1.24
 H  1.04 -0.90 -1.10
 H  2.73 -0.69  0.56
 H  1.39  0.50  0.71
 H  4.04  0.94 -0.74
 H  1.47  2.41 -0.87
 H  2.96  2.79 -1.76
 H  3.79  4.21 -0.01
 H  2.04  4.46  0.26
 H  3.28  3.56  2.27
 H  4.82  2.07  1.15
 H  3.64  1.06  2.04
