18
set: 6087.00  0.00  0.00
 N  1.04 -0.00 -0.14
 C  2.50 -0.06  0.03
 C  3.04  1.13  0.84
 C  4.40  0.65  1.38
 C  4.38 -0.90  1.32
 O  5.38 -1.44  0.44
 C  2.94 -1.25  0.88
 H  0.72 -0.81 -0.68
 H  0.79  0.82 -0.70
 H  3.04 -0.09 -0.94
 H  2.33  1.32  1.66
 H  3.11  2.06  0.25
 H  5.24  1.01  0.77
 H  4.59  1.02  2.40
 H  4.62 -1.36  2.29
 H  5.23 -1.06 -0.44
 H  2.91 -2.22  0.37
 H  2.28 -1.30  1.76
