15
set: 6847.00  0.00  0.00
 O  1.45  0.42  1.86
 N  2.69  0.38  1.17
 C  2.78  1.35  0.34
 C  4.03  1.50 -0.49
 C  4.71  2.83 -0.24
 C  5.47  3.52 -1.32
 N  4.12  3.99 -0.94
 H  1.52 -0.36  2.44
 H  1.97  2.08  0.22
 H  3.76  1.44 -1.56
 H  4.71  0.67 -0.26
 H  5.06  2.98  0.78
 H  5.54  3.07 -2.31
 H  6.34  4.12 -1.02
 H  4.20  4.83 -0.35
