17
set: 3024.00  0.00  0.00
 N  2.74 -0.74 -1.62
 C  2.13 -0.38 -0.43
 N  0.92 -0.66 -0.08
 C  3.00  0.42  0.52
 C  4.46  0.01  0.58
 C  5.49  0.65 -0.33
 C  5.48  0.96  1.15
 H  3.64 -0.32 -1.86
 H  2.17 -1.06 -2.39
 H  0.42 -1.17 -0.82
 H  2.53  0.34  1.51
 H  2.94  1.49  0.23
 H  4.62 -1.05  0.80
 H  5.16  1.44 -1.01
 H  6.30  0.03 -0.73
 H  6.28  0.54  1.76
 H  5.14  1.95  1.45
