17
set: 3991.00  0.00  0.00
 C  4.22 -0.96 -0.47
 C  2.95 -0.23 -0.03
 O  2.42 -0.79  1.20
 C  3.06  1.26  0.11
 C  4.17  2.01 -0.10
 C  4.22  3.45  0.09
 C  5.31  4.20 -0.11
 H  4.54 -0.64 -1.47
 H  4.02 -2.04 -0.50
 H  5.04 -0.78  0.24
 H  2.15 -0.45 -0.76
 H  3.02 -0.49  1.92
 H  2.14  1.75  0.45
 H  5.09  1.53 -0.44
 H  3.29  3.93  0.43
 H  6.25  3.76 -0.45
 H  5.30  5.28  0.05
