15
set: 1582.00  0.00  0.00
 C -1.62  0.65 -0.10
 C -1.31 -0.86 -0.27
 C -0.16 -1.27  0.61
 N  1.06 -0.89  0.44
 N  1.36 -0.15 -0.69
 C  0.76  0.98 -0.85
 C -0.33  1.50  0.06
 H -2.20  0.99 -0.97
 H -2.26  0.82  0.79
 H -1.02 -1.04 -1.32
 H -2.20 -1.46 -0.06
 H -0.34 -1.91  1.48
 H  1.08  1.56 -1.72
 H  0.02  1.41  1.10
 H -0.53  2.56 -0.14
