16
set: 5027.00  0.00  0.00
 C  1.87 -0.54 -1.29
 C  2.68 -0.14 -0.05
 C  3.04  1.31 -0.04
 C  4.30  1.80 -0.01
 C  4.60  3.21 -0.02
 N  5.83  3.61  0.00
 O  5.90  5.02 -0.01
 H  1.59 -1.60 -1.25
 H  2.46 -0.38 -2.21
 H  0.95  0.05 -1.37
 H  3.60 -0.75  0.02
 H  2.08 -0.37  0.85
 H  2.21  2.02 -0.07
 H  5.16  1.12  0.02
 H  3.78  3.94 -0.04
 H  6.86  5.17  0.00
