18
set: 573.00  0.00  0.00
 C  1.02 -0.11  0.02
 N  2.47 -0.01  0.07
 C  2.95  1.37 -0.02
 C  4.48  1.42  0.01
 N  4.96  2.80 -0.07
 C  6.41  2.89 -0.03
 H  0.71 -1.16  0.01
 H  0.55  0.40 -0.85
 H  0.60  0.35  0.93
 H  2.86 -0.54 -0.72
 H  2.55  1.91  0.86
 H  2.59  1.91 -0.92
 H  4.88  0.88 -0.86
 H  4.84  0.88  0.91
 H  4.57  3.33  0.72
 H  6.83  2.44 -0.94
 H  6.88  2.38  0.84
 H  6.72  3.95 -0.01
