17
set: 3972.00  0.00  0.00
 C  3.95 -0.64 -1.49
 C  3.06 -0.36 -0.28
 O  3.24 -1.35  0.75
 C  3.22  1.06  0.31
 C  4.65  1.39  0.69
 C  5.01  1.87  2.03
 O  5.28  0.50  1.67
 H  3.76  0.08 -2.30
 H  3.75 -1.65 -1.86
 H  5.02 -0.59 -1.22
 H  2.00 -0.47 -0.59
 H  4.02 -1.08  1.27
 H  2.57  1.14  1.19
 H  2.88  1.80 -0.43
 H  5.33  1.65 -0.13
 H  4.22  2.01  2.78
 H  5.90  2.49  2.17
