15
set: 1029.00  0.00  0.00
 C  1.08  0.15  0.09
 C  2.58 -0.12 -0.13
 N  2.90 -0.84 -1.37
 C  3.35  1.19 -0.11
 C  3.80  1.81  1.15
 O  4.74  1.15  0.28
 H  0.89  0.64  1.06
 H  0.52 -0.80  0.07
 H  0.68  0.79 -0.70
 H  2.97 -0.73  0.70
 H  2.50 -0.34 -2.17
 H  2.46 -1.76 -1.36
 H  3.15  1.85 -0.96
 H  3.60  1.30  2.10
 H  3.90  2.90  1.21
