19
set: 4169.00  0.00  0.00
 C  4.39 -0.11  2.11
 O  3.59  1.06  2.10
 C  3.43  1.62  0.77
 C  2.32  2.66  0.88
 C  4.72  2.23  0.28
 C  5.38  1.83 -0.82
 C  6.65  2.43 -1.33
 H  4.43 -0.46  3.15
 H  5.42  0.08  1.76
 H  3.95 -0.91  1.48
 H  3.12  0.81  0.08
 H  2.61  3.46  1.58
 H  1.40  2.19  1.26
 H  2.12  3.11 -0.10
 H  5.12  3.05  0.89
 H  4.96  1.00 -1.40
 H  7.01  3.24 -0.67
 H  6.51  2.85 -2.34
 H  7.45  1.67 -1.42
