17
set: 2796.00  0.00  0.00
 C  4.59 -1.68 -0.55
 N  4.59 -0.54  0.35
 N  4.92  0.65 -0.21
 C  4.51  1.73  0.37
 C  4.89  3.05 -0.13
 C  5.78  3.11 -1.35
 C  4.44  4.16  0.49
 H  4.47 -2.60  0.04
 H  5.56 -1.72 -1.06
 H  3.80 -1.63 -1.32
 H  3.79 -0.52  1.00
 H  3.87  1.70  1.27
 H  5.32  2.58 -2.19
 H  6.74  2.61 -1.15
 H  5.97  4.15 -1.63
 H  3.80  4.09  1.38
 H  4.70  5.15  0.14
