15
set: 6066.00  0.00  0.00
 N  1.09 -0.04 -0.01
 C  2.53 -0.05 -0.01
 C  3.21 -0.73 -1.15
 C  3.23  0.78 -1.10
 C  4.46  1.53 -0.78
 N  5.52  0.92 -0.37
 O  6.54  1.86 -0.05
 H  0.73  0.66  0.64
 H  0.73 -0.95  0.30
 H  3.07 -0.06  0.94
 H  2.57 -1.18 -1.91
 H  4.16 -1.24 -0.96
 H  2.54  1.29 -1.77
 H  4.45  2.62 -0.86
 H  7.28  1.27  0.19
