14
set: 6465.00  0.00  0.00
 O  1.11  0.02  0.27
 C  2.30  0.01  0.14
 C  3.44 -1.02 -0.05
 C  4.21 -0.83  1.29
 C  4.22  0.74  1.33
 C  3.46  1.03  0.01
 N  4.00  0.02 -0.97
 H  3.28 -2.04 -0.44
 H  3.68 -1.28  2.15
 H  5.21 -1.27  1.24
 H  5.24  1.15  1.31
 H  3.71  1.15  2.22
 H  3.33  2.07 -0.32
 H  5.03  0.01 -0.98
