19
set: 2317.00  0.00  0.00
 C  1.38 -1.26 -0.41
 C  2.68 -0.74  0.21
 C  3.02  0.68 -0.22
 C  4.33  1.22  0.39
 N  5.53  0.53 -0.05
 C  6.19  0.78 -1.23
 N  5.93  1.64 -2.15
 H  1.15 -2.28 -0.08
 H  1.44 -1.26 -1.51
 H  0.52 -0.62 -0.13
 H  3.51 -1.42 -0.07
 H  2.60 -0.78  1.31
 H  2.21  1.36  0.06
 H  3.10  0.73 -1.32
 H  4.28  1.16  1.48
 H  4.44  2.29  0.15
 H  5.88 -0.24  0.52
 H  7.06  0.12 -1.37
 H  5.09  2.20 -1.93
