16
set: 2258.00  0.00  0.00
 C  0.95 -0.01  0.29
 C  2.43 -0.09 -0.00
 C  3.02 -1.22 -0.42
 C  3.25  1.19  0.17
 N  2.94  2.26 -0.81
 C  3.14  1.71  1.53
 C  3.03  2.12  2.67
 H  0.46  0.76 -0.34
 H  0.78  0.28  1.33
 H  0.45 -0.97  0.10
 H  2.46 -2.14 -0.58
 H  4.10 -1.26 -0.60
 H  4.31  0.91  0.00
 H  2.01  2.63 -0.62
 H  2.90  1.84 -1.74
 H  2.95  2.50  3.67
