22
set: 2266.00  0.00  0.00
 C  1.92 -1.35  0.27
 C  3.17 -0.76 -0.39
 C  2.89 -0.33 -1.83
 C  3.69  0.42  0.46
 N  4.90  1.07 -0.06
 C  5.14  2.33  0.64
 C  6.07  0.21  0.01
 H  2.12 -1.67  1.30
 H  1.56 -2.22 -0.29
 H  1.10 -0.61  0.30
 H  3.94 -1.54 -0.41
 H  2.08  0.42 -1.87
 H  2.58 -1.19 -2.45
 H  3.78  0.13 -2.29
 H  3.86  0.06  1.50
 H  2.90  1.18  0.51
 H  4.27  2.99  0.53
 H  6.02  2.83  0.19
 H  5.34  2.19  1.72
 H  5.93 -0.70 -0.59
 H  6.31 -0.10  1.06
 H  6.94  0.74 -0.39
