13
set: 4790.00  0.00  0.00
 C  1.07 -0.03  0.40
 C  2.36  0.01  0.05
 C  3.27  1.21 -0.08
 O  4.60  0.67  0.02
 N  4.47 -0.63 -0.62
 C  3.22 -1.17 -0.29
 N  3.00 -2.43 -0.34
 H  0.53 -0.97  0.43
 H  0.52  0.87  0.66
 H  3.16  1.95  0.72
 H  3.13  1.69 -1.07
 H  5.28 -1.18 -0.33
 H  2.01 -2.63 -0.16
