18
set: 1566.00  0.00  0.00
 C  1.93  0.13 -0.67
 N  1.72 -0.02  0.80
 C  0.55  0.05 -0.11
 C -0.37  1.26  0.06
 C -1.80  0.71 -0.11
 C -1.69 -0.77  0.26
 C -0.34 -1.17 -0.36
 H  2.34  1.10 -0.97
 H  2.31 -0.72 -1.24
 H  1.90 -1.00  1.05
 H -0.22  1.67  1.08
 H -0.14  2.07 -0.65
 H -2.55  1.25  0.49
 H -2.11  0.80 -1.17
 H -2.53 -1.38 -0.10
 H -1.65 -0.88  1.36
 H -0.46 -1.34 -1.44
 H  0.09 -2.10  0.07
