17
set: 4225.00  0.00  0.00
 C  3.42  2.33  2.92
 O  4.32  2.04  1.85
 C  3.68  2.15  0.58
 C  4.71  1.87 -0.51
 C  5.87  2.87 -0.53
 C  5.55  4.22 -1.10
 O  4.48  4.55 -1.59
 H  3.98  2.22  3.85
 H  2.57  1.62  2.93
 H  3.02  3.36  2.85
 H  3.25  3.17  0.45
 H  2.85  1.43  0.51
 H  4.19  1.88 -1.48
 H  5.11  0.85 -0.36
 H  6.72  2.48 -1.11
 H  6.27  3.02  0.49
 H  6.40  4.95 -1.06
