19
set: 3599.00  0.00  0.00
 C  0.97 -0.22  0.22
 C  2.43  0.09  0.18
 C  3.03  1.28 -0.06
 C  2.29  2.57 -0.34
 C  4.53  1.39 -0.01
 C  5.03  1.97  1.32
 O  4.69  1.15  2.43
 H  0.70 -0.95 -0.56
 H  0.33  0.66  0.09
 H  0.69 -0.69  1.18
 H  3.09 -0.76  0.35
 H  1.20  2.47 -0.25
 H  2.51  2.91 -1.36
 H  2.61  3.37  0.34
 H  4.89  2.05 -0.83
 H  4.99  0.40 -0.15
 H  4.64  3.00  1.46
 H  6.13  2.03  1.31
 H  3.75  0.89  2.30
