13
set: 144.00  0.00  0.00
 C  0.95  0.02 -0.12
 C  2.45 -0.01  0.03
 O  2.78 -0.07  1.41
 C  3.29 -0.77 -0.96
 C  3.33  0.76 -0.91
 H  0.66  0.06 -1.17
 H  0.54  0.91  0.39
 H  0.50 -0.88  0.34
 H  3.75 -0.04  1.50
 H  2.80 -1.25 -1.81
 H  4.17 -1.30 -0.58
 H  4.22  1.23 -0.51
 H  2.86  1.32 -1.73
