15
set: 162.00  0.00  0.00
 C  0.92 -0.05  0.02
 C  2.45 -0.02  0.01
 C  3.00  1.39  0.00
 O  4.42  1.34 -0.02
 C  5.00  2.64 -0.01
 H  0.54 -1.08  0.03
 H  0.50  0.46 -0.86
 H  0.52  0.46  0.91
 H  2.83 -0.55 -0.88
 H  2.85 -0.55  0.89
 H  2.65  1.95  0.90
 H  2.63  1.95 -0.89
 H  6.09  2.51 -0.03
 H  4.71  3.21  0.89
 H  4.69  3.22 -0.90
