17
set: 1287.00  0.00  0.00
 C  0.98  0.02  0.05
 C  2.47 -0.00  0.00
 C  3.28 -1.09  0.01
 C  4.69 -0.73 -0.05
 C  5.74 -1.58 -0.03
 C  4.75  0.79 -0.16
 C  3.28  1.27 -0.06
 H  0.56 -0.99  0.12
 H  0.56  0.51 -0.84
 H  0.62  0.61  0.92
 H  2.93 -2.12  0.06
 H  6.77 -1.21 -0.08
 H  5.59 -2.65  0.04
 H  5.21  1.09 -1.12
 H  5.38  1.22  0.64
 H  2.98  1.90 -0.92
 H  3.10  1.89  0.84
