15
set: 3346.00  0.00  0.00
 C  1.02  0.01  0.01
 C  2.36 -0.02  0.03
 C  3.28  1.17  0.09
 O  4.56  0.71 -0.40
 C  4.57 -0.67 -0.51
 C  5.64 -1.33 -0.97
 C  3.25 -1.24 -0.04
 H  0.42 -0.90 -0.04
 H  0.48  0.96  0.04
 H  3.41  1.53  1.12
 H  2.95  2.00 -0.54
 H  5.62 -2.41 -1.05
 H  6.54 -0.80 -1.27
 H  2.87 -2.02 -0.71
 H  3.37 -1.69  0.96
