18
set: 5888.00  0.00  0.00
 C  1.55 -0.48 -1.08
 O  2.06  0.19  0.07
 C  3.24  0.91 -0.22
 C  3.05  2.30 -0.88
 N  3.15  2.93  0.46
 C  3.92  4.15  0.58
 C  3.73  1.69  1.02
 H  0.65 -1.02 -0.76
 H  2.28 -1.21 -1.48
 H  1.28  0.22 -1.89
 H  3.98  0.25 -0.71
 H  2.10  2.49 -1.41
 H  3.90  2.55 -1.55
 H  3.99  4.44  1.63
 H  3.41  4.96  0.04
 H  4.95  4.06  0.17
 H  4.84  1.70  1.08
 H  3.31  1.37  1.98
