13
set: 3860.00  0.00  0.00
 C  1.51 -0.95 -0.40
 C  2.78 -0.55 -0.23
 C  3.13  0.88 -0.04
 O  2.29  1.78 -0.02
 C  4.63  1.23  0.08
 C  5.41  0.32  0.90
 C  6.04 -0.44  1.60
 H  1.25 -2.00 -0.55
 H  0.71 -0.21 -0.39
 H  3.61 -1.27 -0.22
 H  4.69  2.26  0.46
 H  5.03  1.24 -0.95
 H  6.60 -1.11  2.23
