13
set: 7004.00  0.00  0.00
 C  0.83 -0.21 -0.09
 C  2.34  0.01  0.10
 C  2.76  1.44 -0.01
 C  3.28  2.25  0.99
 N  3.57  3.53  0.62
 N  3.33  3.82 -0.60
 S  2.66  2.40 -1.43
 H  0.58 -1.27  0.02
 H  0.51  0.11 -1.09
 H  0.26  0.37  0.65
 H  2.90 -0.59 -0.64
 H  2.65 -0.36  1.09
 H  3.47  1.93  2.02
