15
set: 7045.00  0.00  0.00
 C  0.95  0.02 -0.04
 C  2.48 -0.02 -0.03
 C  3.09 -0.81 -1.18
 S  3.15  1.68 -0.00
 O  2.58  2.29 -1.44
 O  2.48  2.43  1.05
 O  4.61  1.64 -0.11
 H  0.57  0.61  0.80
 H  0.58 -1.01  0.06
 H  0.57  0.44 -0.97
 H  2.85 -0.39  0.93
 H  2.74 -0.44 -2.15
 H  2.78 -1.86 -1.09
 H  4.19 -0.78 -1.16
 H  3.37  2.40 -2.01
