19
set: 4048.00  0.00  0.00
 C  1.00 -0.23  0.16
 C  2.52 -0.34  0.22
 O  2.99 -1.36 -0.71
 C  3.22  1.00 -0.01
 C  4.76  0.97  0.07
 C  5.30  0.52  1.44
 O  5.33  0.19 -0.99
 H  0.63  0.45  0.93
 H  0.54 -1.21  0.30
 H  0.68  0.17 -0.82
 H  2.81 -0.75  1.20
 H  2.62 -1.14 -1.59
 H  2.84  1.72  0.73
 H  2.94  1.39 -1.00
 H  5.12  2.00 -0.11
 H  5.02 -0.52  1.66
 H  4.92  1.16  2.25
 H  6.39  0.58  1.44
 H  4.82 -0.65 -1.00
