13
set: 7149.00  0.00  0.00
 N  2.09 -0.52 -1.34
 C  2.48 -0.12  0.03
 C  3.01  1.29  0.05
 C  2.32  2.48 -0.08
 N  3.06  3.63 -0.06
 C  4.33  3.36  0.06
 S  4.71  1.65  0.18
 H  1.78 -1.49 -1.33
 H  2.91 -0.48 -1.95
 H  3.22 -0.78  0.51
 H  1.58 -0.16  0.66
 H  1.23  2.54 -0.18
 H  5.13  4.10  0.10
