17
set: 4236.00  0.00  0.00
 C  2.88 -0.90 -0.43
 O  2.61  0.05  0.59
 C  2.95  1.41  0.23
 C  2.32  2.27  1.33
 O  2.80  1.93  2.62
 C  4.43  1.60  0.11
 C  5.06  1.90 -1.03
 H  2.57 -1.88 -0.03
 H  3.95 -0.94 -0.69
 H  2.29 -0.68 -1.34
 H  2.46  1.66 -0.74
 H  1.22  2.17  1.27
 H  2.58  3.33  1.16
 H  2.66  0.97  2.71
 H  5.00  1.47  1.04
 H  4.51  2.03 -1.97
 H  6.14  2.05 -1.07
