13
set: 6947.00  0.00  0.00
 C  1.02 -0.05  0.01
 C  2.51  0.10 -0.02
 C  3.19  1.28 -0.01
 S  4.91  1.00 -0.05
 C  4.57 -0.74 -0.06
 N  5.58 -1.67 -0.17
 N  3.30 -1.04 -0.04
 H  0.52  0.92  0.04
 H  0.70 -0.63  0.89
 H  0.67 -0.60 -0.88
 H  2.80  2.30  0.03
 H  5.27 -2.61  0.07
 H  6.46 -1.42  0.28
