20
set: 5499.00  0.00  0.00
 C  1.66  1.51 -0.91
 C  3.06  1.13 -0.48
 O  3.78  2.31 -0.15
 C  5.12  2.03  0.26
 C  5.83  3.36  0.55
 C  7.26  3.11  1.03
 N  5.84  4.30 -0.58
 H  1.08  0.61 -1.17
 H  1.69  2.17 -1.80
 H  1.14  2.05 -0.11
 H  3.59  0.58 -1.29
 H  3.03  0.45  0.40
 H  5.66  1.49 -0.55
 H  5.12  1.39  1.16
 H  5.27  3.86  1.36
 H  7.85  2.61  0.25
 H  7.28  2.48  1.93
 H  7.75  4.07  1.27
 H  4.88  4.37 -0.95
 H  6.40  3.90 -1.34
