16
set: 4653.00  0.00  0.00
 C  0.96 -0.02  0.04
 C  2.48  0.04  0.04
 C  3.12  1.19  0.83
 C  4.49  0.63  1.28
 N  4.22 -0.80  1.38
 C  3.14 -1.22  0.64
 O  2.78 -2.38  0.49
 H  0.62 -0.95 -0.44
 H  0.53  0.84 -0.49
 H  0.57 -0.02  1.07
 H  2.84  0.07 -1.01
 H  2.51  1.40  1.72
 H  3.22  2.12  0.26
 H  5.27  0.84  0.53
 H  4.82  1.05  2.24
 H  4.89 -1.47  1.72
