15
set: 3797.00  0.00  0.00
 C  0.66  0.34  0.06
 C  2.13  0.11  0.10
 C  3.07  1.04 -0.17
 C  4.51  0.73 -0.11
 O  4.97 -0.37  0.20
 C  5.47  1.85 -0.45
 O  6.81  1.42 -0.36
 H  0.18 -0.34 -0.68
 H  0.40  1.37 -0.20
 H  0.20  0.09  1.03
 H  2.48 -0.89  0.36
 H  2.78  2.06 -0.44
 H  5.28  2.70  0.23
 H  5.24  2.21 -1.48
 H  6.73  0.48 -0.08
