17
set: 5173.00  0.00  0.00
 C  1.53 -0.21  1.48
 C  2.97 -0.16  0.97
 C  3.24  1.01  0.01
 N  3.14  2.36  0.59
 C  4.61  0.81 -0.71
 N  5.33  1.95 -0.85
 O  4.98 -0.30 -1.11
 H  1.39 -1.05  2.18
 H  0.82 -0.34  0.65
 H  1.25  0.71  2.02
 H  3.23 -1.09  0.45
 H  3.68 -0.08  1.82
 H  2.50  0.95 -0.81
 H  3.52  2.35  1.54
 H  2.16  2.63  0.68
 H  4.89  2.83 -0.57
 H  6.18  1.93 -1.40
