20
set: 1719.00  0.00  0.00
 C  0.94 -0.01  0.12
 C  2.46 -0.01  0.04
 C  3.25  1.06  0.84
 C  4.31 -0.02  1.21
 C  4.80 -0.05  2.65
 N  5.48  0.09  0.33
 C  3.25 -1.10  0.80
 H  0.51 -0.89 -0.39
 H  0.51  0.89 -0.36
 H  0.60 -0.03  1.16
 H  2.77  0.01 -1.02
 H  2.69  1.40  1.72
 H  3.63  1.95  0.30
 H  3.96 -0.09  3.36
 H  5.40  0.85  2.87
 H  5.44 -0.93  2.83
 H  5.18  0.13 -0.65
 H  6.06 -0.75  0.42
 H  3.62 -1.97  0.24
 H  2.68 -1.46  1.68
