17
set: 1395.00  0.00  0.00
 C  0.85  0.67 -1.10
 C  2.34  0.60 -1.05
 C  3.10  1.20 -0.12
 C  4.61  1.16 -0.03
 C  5.31  0.34 -1.13
 C  5.15  2.52  0.04
 C  5.59  3.65  0.09
 H  0.50  1.12 -2.05
 H  0.44  1.27 -0.27
 H  0.40 -0.34 -1.05
 H  2.82  0.02 -1.84
 H  2.61  1.80  0.66
 H  4.85  0.68  0.95
 H  5.11  0.77 -2.12
 H  4.95 -0.70 -1.11
 H  6.39  0.34 -0.96
 H  5.98  4.65  0.14
