13
set: 980.00  0.00  0.00
 C  0.96  0.01 -0.05
 C  2.50 -0.02 -0.02
 C  3.11 -1.27  0.63
 O  3.53 -0.84  1.97
 N  3.58  0.56  2.00
 C  3.06  1.02  0.91
 H  0.57 -0.77 -0.71
 H  0.59  0.98 -0.41
 H  0.55 -0.15  0.96
 H  2.88  0.12 -1.05
 H  4.00 -1.63  0.10
 H  2.40 -2.10  0.76
 H  3.00  2.10  0.78
