18
set: 2177.00  0.00  0.00
 C  3.41 -0.73 -0.65
 C  2.72 -0.01  0.51
 C  3.14  1.45  0.71
 C  2.31  2.13  1.81
 C  4.66  1.60  1.00
 C  5.08  0.91  2.21
 N  5.41  0.34  3.18
 H  2.99 -1.73 -0.79
 H  4.49 -0.86 -0.48
 H  3.28 -0.18 -1.60
 H  2.89 -0.57  1.45
 H  1.63 -0.02  0.35
 H  2.97  1.99 -0.24
 H  2.46  1.63  2.78
 H  1.24  2.07  1.57
 H  2.57  3.19  1.92
 H  4.91  2.67  1.11
 H  5.25  1.22  0.16
