14
set: 785.00  0.00  0.00
 C -0.02  0.09  0.03
 C  1.42 -0.31  0.13
 C  2.44  0.52 -0.10
 O  3.75  0.10 -0.00
 C  4.73  1.03 -0.26
 C  6.03  0.71 -0.21
 H -0.56 -0.51 -0.71
 H -0.12  1.15 -0.25
 H -0.54 -0.05  0.99
 H  1.65 -1.35  0.41
 H  2.30  1.57 -0.39
 H  4.37  2.03 -0.49
 H  6.36 -0.30  0.02
 H  6.77  1.48 -0.42
