16
set: 5007.00  0.00  0.00
 C  0.71  0.11  0.06
 C  2.20 -0.01  0.25
 C  3.10  0.88 -0.17
 C  4.59  0.75  0.02
 C  5.32  0.65 -1.29
 N  6.17  1.55 -1.61
 O  6.74  1.28 -2.89
 H  0.32 -0.75 -0.50
 H  0.45  1.03 -0.47
 H  0.19  0.11  1.03
 H  2.55 -0.90  0.79
 H  2.77  1.77 -0.71
 H  4.80 -0.15  0.62
 H  4.99  1.62  0.57
 H  5.10 -0.19 -1.96
 H  7.35  2.03 -2.99
