14
set: 5126.00  0.00  0.00
 C  1.05 -0.08  0.49
 C  2.31 -0.65 -0.11
 C  2.53 -1.96 -0.31
 C  3.31  0.37 -0.55
 O  3.02  1.50 -0.97
 N  4.63 -0.01 -0.51
 O  5.53  1.03 -0.80
 H  1.28  0.49  1.40
 H  0.35 -0.88  0.74
 H  0.58  0.61 -0.21
 H  1.79 -2.70  0.01
 H  3.42 -2.32 -0.82
 H  4.97 -0.58  0.26
 H  4.88  1.76 -1.02
