16
set: 5467.00  0.00  0.00
 C  2.32  2.18  0.53
 C  3.30  2.40  1.43
 O  4.60  2.73  1.19
 C  4.98  2.86 -0.19
 C  6.44  3.25 -0.24
 C  7.51  2.22 -0.27
 N  7.11  2.91 -1.51
 H  1.33  1.93  0.90
 H  2.47  2.23 -0.55
 H  3.13  2.34  2.50
 H  4.36  3.63 -0.67
 H  4.83  1.91 -0.72
 H  6.68  4.20  0.24
 H  7.24  1.16 -0.23
 H  8.47  2.47  0.20
 H  7.80  3.64 -1.74
