14
set: 4781.00  0.00  0.00
 C  0.84  0.02 -0.03
 C  2.36  0.00 -0.04
 C  3.01 -0.03  1.33
 O  2.83 -1.15 -0.83
 C  3.44 -0.60 -1.91
 N  3.50  0.68 -1.98
 O  2.86  1.15 -0.79
 H  0.46  0.04 -1.06
 H  0.49  0.91  0.50
 H  0.46 -0.87  0.48
 H  4.11 -0.06  1.22
 H  2.69 -0.92  1.88
 H  2.73  0.86  1.89
 H  3.85 -1.27 -2.67
