15
set: 3034.00  0.00  0.00
 N  2.55 -1.35  1.16
 C  2.69 -0.69 -0.05
 N  2.53 -1.19 -1.23
 C  3.21  0.73  0.06
 C  4.76  0.76  0.13
 C  5.29  2.11  0.27
 C  5.71  3.24  0.40
 H  2.36 -0.78  1.98
 H  2.06 -2.24  1.15
 H  2.21 -2.17 -1.17
 H  2.80  1.23  0.95
 H  2.88  1.29 -0.82
 H  5.15  0.30 -0.79
 H  5.11  0.13  0.97
 H  6.09  4.23  0.50
