16
set: 2131.00  0.00  0.00
 C  0.84  0.00  0.08
 C  2.34 -0.19  0.03
 C  2.80 -1.61  0.19
 C  3.14  0.87 -0.16
 C  4.65  0.87 -0.22
 C  5.16  1.40 -1.48
 N  5.56  1.82 -2.49
 H  0.56  1.05 -0.04
 H  0.44 -0.36  1.04
 H  0.35 -0.59 -0.71
 H  2.34 -2.25 -0.58
 H  2.46 -2.01  1.17
 H  3.89 -1.74  0.13
 H  2.69  1.86 -0.28
 H  5.07 -0.14 -0.08
 H  5.07  1.49  0.59
