13
set: 5566.00  0.00  0.00
 C  0.37 -0.99 -0.13
 C  1.79 -0.55  0.15
 O  1.85  0.89 -0.10
 N  3.13  1.34  0.13
 C  3.22  2.61 -0.08
 C  4.47  3.26  0.12
 N  5.46  3.86  0.26
 H  0.28 -2.07  0.05
 H  0.09 -0.79 -1.17
 H -0.34 -0.47  0.53
 H  2.51 -1.05 -0.51
 H  2.09 -0.73  1.19
 H  2.36  3.22 -0.41
