17
set: 4511.00  0.00  0.00
 O  0.83  0.17  0.01
 C  2.24 -0.09  0.16
 C  2.98  1.23  0.39
 C  2.44  1.98  1.62
 O  1.14  2.53  1.43
 C  4.45  0.95  0.55
 C  5.42  1.39 -0.27
 H  0.36 -0.67 -0.05
 H  2.63 -0.59 -0.75
 H  2.41 -0.77  1.02
 H  2.83  1.87 -0.49
 H  3.11  2.83  1.85
 H  2.46  1.30  2.50
 H  0.60  1.82  1.04
 H  4.73  0.35  1.43
 H  5.19  1.99 -1.15
 H  6.47  1.16 -0.08
