14
set: 851.00  0.00  0.00
 C  2.02 -0.52 -1.24
 O  2.22  0.09  0.04
 C  3.02  1.25 -0.04
 C  2.36  2.58 -0.47
 O  2.82  3.23  0.75
 C  3.22  1.94  1.31
 H  1.43 -1.42 -1.07
 H  2.98 -0.79 -1.71
 H  1.47  0.15 -1.93
 H  3.96  1.04 -0.58
 H  1.26  2.52 -0.51
 H  2.75  3.09 -1.37
 H  4.24  1.97  1.73
 H  2.51  1.58  2.07
