19
set: 1177.00  0.00  0.00
 C -1.75  0.72  0.29
 C -1.77 -0.74 -0.30
 C -0.25 -0.77  0.07
 C  1.08 -1.20 -0.54
 C  2.01 -0.03 -0.02
 C  1.10  1.14  0.51
 C -0.24  0.74 -0.09
 H -2.41  1.47 -0.18
 H -1.92  0.71  1.37
 H -1.94 -0.73 -1.38
 H -2.43 -1.48  0.17
 H -0.21 -0.98  1.15
 H  1.45 -2.19 -0.23
 H  1.03 -1.19 -1.64
 H  2.68 -0.39  0.78
 H  2.67  0.33 -0.83
 H  1.06  1.13  1.61
 H  1.47  2.13  0.20
 H -0.20  0.95 -1.18
