18
set: 4802.00  0.00  0.00
 C  0.80 -0.61 -0.43
 C  2.27 -0.57 -0.73
 N  2.77  0.19 -1.91
 C  3.07  0.68 -0.53
 C  4.53  0.71 -0.11
 C  5.41 -0.37 -0.74
 O  5.52 -0.24 -2.15
 H  0.62 -0.95  0.60
 H  0.27 -1.29 -1.11
 H  0.34  0.39 -0.53
 H  2.79 -1.52 -0.61
 H  2.00  0.74 -2.32
 H  2.48  1.54 -0.19
 H  4.58  0.63  0.99
 H  4.94  1.70 -0.37
 H  5.05 -1.37 -0.45
 H  6.43 -0.28 -0.33
 H  4.58 -0.17 -2.46
