17
set: 5577.00  0.00  0.00
 C  0.97  0.92  0.84
 C  2.48  0.81  0.68
 O  2.98  2.13  0.41
 N  4.39  2.04  0.24
 C  4.86  3.21 -0.04
 N  6.21  3.44 -0.16
 C  7.13  2.31 -0.19
 H  0.55 -0.07  1.06
 H  0.50  1.31 -0.07
 H  0.72  1.59  1.67
 H  2.74  0.14 -0.16
 H  2.96  0.42  1.59
 H  4.21  4.09 -0.16
 H  6.46  4.23 -0.75
 H  7.04  1.74  0.75
 H  8.16  2.69 -0.27
 H  6.92  1.61 -1.02
