19
set: 3564.00  0.00  0.00
 C  1.08  0.09 -0.37
 C  2.56  0.21 -0.70
 C  3.44  0.28  0.55
 C  4.92  0.48  0.25
 O  5.23  1.67 -0.45
 C  5.96 -0.04  1.21
 C  5.77 -0.69 -0.15
 H  0.47  0.03 -1.29
 H  0.72  0.95  0.21
 H  0.87 -0.82  0.22
 H  2.74  1.10 -1.32
 H  2.89 -0.65 -1.31
 H  3.32 -0.63  1.15
 H  3.10  1.12  1.19
 H  5.09  2.42  0.17
 H  5.63 -0.58  2.10
 H  6.86  0.56  1.34
 H  6.53 -0.50 -0.90
 H  5.30 -1.68 -0.19
