19
set: 4211.00  0.00  0.00
 C  2.05 -0.55  1.05
 O  3.31  0.12  1.07
 C  3.29  1.40  0.41
 C  2.60  2.48  1.25
 C  4.75  1.71  0.06
 C  5.66  1.93  1.27
 O  5.26  0.67 -0.78
 H  2.23 -1.56  1.47
 H  1.66 -0.65  0.02
 H  1.30 -0.04  1.67
 H  2.75  1.29 -0.55
 H  3.07  2.56  2.24
 H  1.53  2.26  1.39
 H  2.68  3.46  0.75
 H  4.76  2.62 -0.57
 H  5.62  1.07  1.95
 H  5.36  2.83  1.84
 H  6.69  2.07  0.93
 H  5.02 -0.16 -0.33
