19
set: 3242.00  0.00  0.00
 C  0.94 -0.01  0.10
 C  2.45  0.01  0.03
 C  3.23  1.08  0.85
 C  4.29  0.00  1.22
 C  4.83 -0.04  2.63
 O  5.45  0.05  0.36
 C  3.26 -1.09  0.78
 H  0.52 -0.89 -0.42
 H  0.49  0.89 -0.35
 H  0.60 -0.06  1.15
 H  2.76  0.05 -1.03
 H  2.65  1.40  1.74
 H  3.60  1.97  0.33
 H  4.01 -0.07  3.36
 H  5.44  0.86  2.84
 H  5.46 -0.92  2.78
 H  5.15  0.07 -0.56
 H  3.66 -1.93  0.20
 H  2.70 -1.48  1.64
