17
set: 3084.00  0.00  0.00
 C -1.73  0.66  0.32
 C -1.69 -0.75 -0.36
 C -0.19 -0.78  0.05
 C  1.18 -1.08 -0.51
 O  1.98  0.01  0.07
 C  1.12  1.08  0.61
 C -0.21  0.74 -0.02
 H -2.39  1.43 -0.10
 H -1.91  0.57  1.41
 H -1.83 -0.66 -1.45
 H -2.35 -1.54  0.04
 H -0.18 -1.06  1.12
 H  1.64 -2.02 -0.18
 H  1.21 -1.02 -1.62
 H  1.11  1.02  1.71
 H  1.57  2.03  0.30
 H -0.16  1.02 -1.09
