19
set: 3243.00  0.00  0.00
 C  0.89  0.01  0.10
 C  2.41  0.03  0.02
 C  3.18  1.07  0.89
 C  4.23 -0.03  1.25
 C  5.50  0.02  0.42
 O  6.36  1.11  0.78
 C  3.21 -1.10  0.74
 H  0.47 -0.85 -0.45
 H  0.45  0.92 -0.33
 H  0.55 -0.07  1.14
 H  2.73  0.10 -1.03
 H  2.60  1.38  1.76
 H  3.55  1.97  0.38
 H  4.50 -0.10  2.31
 H  5.26  0.05 -0.66
 H  6.10 -0.89  0.60
 H  5.85  1.93  0.66
 H  3.61 -1.91  0.11
 H  2.63 -1.54  1.56
