13
set: 4913.00  0.00  0.00
 C  0.95 -0.00  0.07
 C  2.48 -0.00  0.11
 O  2.86 -0.00  1.49
 C  3.07  1.13 -0.71
 N  3.76  0.75 -1.72
 N  3.77 -0.74 -1.72
 C  3.07 -1.13 -0.71
 H  0.58 -0.00 -0.96
 H  0.57  0.89  0.59
 H  0.57 -0.90  0.59
 H  3.84 -0.00  1.53
 H  2.92  2.19 -0.50
 H  2.92 -2.20 -0.50
