14
set: 6564.00  0.00  0.00
 O  1.01  0.01 -0.20
 C  2.41  0.05 -0.06
 C  3.00  1.13  0.86
 N  4.35  0.64  1.23
 C  4.21 -0.83  1.37
 C  2.96 -1.22  0.60
 O  2.39 -2.30  0.57
 H  0.76 -0.93 -0.13
 H  2.91  0.13 -1.05
 H  2.37  1.22  1.77
 H  3.06  2.12  0.39
 H  4.99  0.84  0.46
 H  5.10 -1.37  1.03
 H  4.05 -1.10  2.43
