18
set: 5920.00  0.00  0.00
 C  1.18 -0.15 -0.38
 O  2.58  0.11 -0.35
 C  2.96  1.41 -0.10
 C  2.12  2.44  0.11
 C  4.46  1.52 -0.07
 C  5.10  0.84  1.14
 N  6.56  1.01  1.10
 H  1.08 -1.22 -0.59
 H  0.69  0.43 -1.18
 H  0.71  0.09  0.59
 H  1.04  2.34  0.10
 H  2.54  3.43  0.29
 H  4.75  2.58 -0.08
 H  4.86  1.07 -1.00
 H  4.78 -0.22  1.17
 H  4.73  1.32  2.06
 H  6.96  0.48  0.33
 H  6.98  0.63  1.95
