18
set: 5639.00  0.00  0.00
 C  2.19 -0.51 -1.40
 N  2.30  0.08 -0.07
 C  3.09  1.29 -0.05
 C  2.43  2.62 -0.50
 C  3.21  3.34  0.64
 C  3.34  1.96  1.33
 O  4.48  1.62  2.10
 H  1.64 -1.46 -1.34
 H  3.16 -0.71 -1.90
 H  1.61  0.16 -2.05
 H  2.73 -0.60  0.57
 H  4.07  1.18 -0.57
 H  1.35  2.60 -0.30
 H  2.61  2.96 -1.53
 H  4.19  3.70  0.30
 H  2.71  4.14  1.20
 H  2.47  1.76  1.98
 H  5.27  1.82  1.56
