15
set: 4362.00  0.00  0.00
 O  0.97 -0.37  0.10
 C  2.38 -0.16  0.03
 C  2.89  1.04  0.88
 O  3.44  0.15  1.90
 C  3.21 -1.01  1.04
 C  2.81 -0.21 -1.40
 C  2.00 -0.43 -2.45
 H  0.71 -0.34  1.04
 H  2.10  1.70  1.27
 H  3.68  1.64  0.39
 H  4.15 -1.42  0.64
 H  2.64 -1.80  1.55
 H  3.88 -0.06 -1.56
 H  0.93 -0.58 -2.30
 H  2.39 -0.45 -3.46
