13
set: 3989.00  0.00  0.00
 C  0.95 -0.03 -0.01
 C  2.50 -0.03  0.03
 O  2.97 -0.70  1.22
 C  3.02 -0.78 -1.12
 C  3.41 -1.40 -2.09
 C  3.01  1.36 -0.01
 C  3.39  2.51  0.02
 H  0.59  0.43 -0.94
 H  0.57  0.55  0.85
 H  0.60 -1.06  0.06
 H  2.92 -0.04  1.94
 H  3.77 -1.95 -2.94
 H  3.74  3.52  0.03
