19
set: 1515.00  0.00  0.00
 C  0.92 -0.13 -0.01
 C  2.45 -0.05  0.01
 C  2.97  1.39 -0.00
 C  4.51  1.46  0.02
 C  5.03  2.82  0.01
 C  5.44  3.97 -0.00
 C  5.93  5.34 -0.02
 H  0.57 -1.17  0.00
 H  0.51  0.35 -0.92
 H  0.48  0.38  0.86
 H  2.86 -0.60 -0.85
 H  2.83 -0.56  0.91
 H  2.57  1.94  0.86
 H  2.61  1.91 -0.90
 H  4.92  0.91 -0.84
 H  4.89  0.94  0.92
 H  5.10  6.06 -0.02
 H  6.55  5.54 -0.91
 H  6.56  5.55  0.87
