15
set: 1458.00  0.00  0.00
 C  0.90 -0.11 -0.00
 C  2.35 -0.05 -0.00
 C  3.56  0.01 -0.00
 C  5.03  0.07  0.00
 C  5.57  1.43  0.00
 C  6.04  2.55  0.00
 C  6.58  3.90 -0.00
 H  0.46  0.89  0.01
 H  0.52 -0.65  0.88
 H  0.52 -0.63 -0.90
 H  5.42 -0.48 -0.88
 H  5.41 -0.48  0.88
 H  5.81  4.64 -0.27
 H  7.40  4.00 -0.72
 H  6.97  4.18  0.99
