20
set: 2943.00  0.00  0.00
 N  1.46  2.19  2.05
 C  2.87  2.10  1.66
 C  3.00  1.84  0.16
 C  4.44  1.74 -0.35
 C  5.25  3.02 -0.23
 C  6.10  3.30  0.99
 C  6.75  2.98 -0.34
 H  1.38  2.39  3.05
 H  1.00  1.28  1.91
 H  3.44  1.31  2.21
 H  3.35  3.06  1.91
 H  2.47  2.64 -0.38
 H  2.47  0.90 -0.09
 H  4.42  1.43 -1.41
 H  4.97  0.93  0.18
 H  4.77  3.89 -0.68
 H  6.13  2.53  1.76
 H  6.16  4.32  1.36
 H  7.26  3.79 -0.87
 H  7.23  2.00 -0.45
