15
set: 1786.00  0.00  0.00
 C  0.99  0.04  0.03
 C  2.48 -0.03  0.00
 C  3.28 -1.11 -0.05
 C  4.70 -0.70 -0.06
 N  5.69 -1.52 -0.20
 N  4.69  0.69  0.14
 C  3.34  1.22  0.05
 H  0.55 -0.96 -0.02
 H  0.60  0.63 -0.81
 H  0.63  0.53  0.95
 H  2.98 -2.15 -0.10
 H  6.59 -1.01 -0.17
 H  5.47  1.24 -0.22
 H  3.18  1.83 -0.86
 H  3.09  1.86  0.91
