15
set: 3986.00  0.00  0.00
 C  1.31 -0.86 -0.05
 C  2.82 -0.73  0.02
 O  3.55 -1.71  0.11
 C  3.38  0.68 -0.03
 C  4.92  0.73  0.04
 C  5.44  2.09 -0.01
 C  5.85  3.23 -0.05
 H  0.84 -0.28  0.76
 H  1.02 -1.91  0.02
 H  0.94 -0.43 -1.00
 H  2.94  1.26  0.80
 H  3.02  1.17 -0.95
 H  5.34  0.13 -0.79
 H  5.25  0.22  0.96
 H  6.23  4.23 -0.08
