13
set: 6867.00  0.00  0.00
 O  2.20 -0.52  1.50
 N  2.49  0.24  0.35
 C  2.81 -0.60 -0.80
 C  3.98 -1.46 -0.57
 C  4.93 -2.15 -0.27
 C  3.29  1.37  0.60
 N  3.57  1.92  1.72
 H  3.03 -1.01  1.72
 H  2.98  0.07 -1.66
 H  1.93 -1.22 -1.03
 H  5.78 -2.76 -0.04
 H  3.63  1.84 -0.34
 H  3.16  1.37  2.49
