20
set: 2383.00  0.00  0.00
 C -0.10 -0.27  0.87
 C  1.41 -0.50  0.85
 C  2.20  0.79  0.64
 N  3.65  0.55  0.65
 C  4.43  1.75  0.38
 C  5.90  1.45  0.41
 C  6.75  1.73 -0.59
 H -0.64 -1.21  1.02
 H -0.45  0.17 -0.07
 H -0.39  0.41  1.68
 H  1.67 -1.21  0.04
 H  1.74 -0.96  1.79
 H  1.97  1.50  1.45
 H  1.86  1.28 -0.31
 H  3.87 -0.15 -0.06
 H  4.20  2.48  1.18
 H  4.17  2.25 -0.58
 H  6.27  0.96  1.32
 H  6.41  2.20 -1.51
 H  7.81  1.50 -0.52
