16
set: 1531.00  0.00  0.00
 C  1.79 -0.00 -0.52
 C  0.83  0.76  0.37
 C  0.83 -0.76  0.37
 C -0.64 -1.00 -0.08
 C -0.86 -0.00 -1.25
 C -0.64  1.00 -0.08
 N -1.43  0.00  0.75
 H  1.67 -0.00 -1.60
 H  2.83 -0.00 -0.20
 H  1.22  1.34  1.21
 H  1.22 -1.34  1.21
 H -1.00 -2.03 -0.11
 H -1.91 -0.00 -1.56
 H -0.19 -0.00 -2.11
 H -1.00  2.03 -0.11
 H -1.11  0.00  1.73
