15
set: 1909.00  0.00  0.00
 C  0.98 -0.11 -0.12
 C  2.50  0.02  0.02
 N  3.19 -1.22 -0.42
 C  4.03 -0.86 -1.32
 N  4.08  0.50 -1.59
 C  3.11  1.16 -0.81
 C  2.82  2.47 -0.81
 H  0.48  0.80  0.23
 H  0.62 -0.96  0.47
 H  0.71 -0.27 -1.17
 H  2.75  0.17  1.09
 H  4.69 -1.54 -1.85
 H  4.61  0.94 -2.33
 H  3.34  3.17 -1.46
 H  2.05  2.86 -0.15
