15
set: 4202.00  0.00  0.00
 C  2.31 -0.52 -0.66
 O  3.57  0.10 -0.39
 C  3.54  1.45 -0.16
 C  2.45  2.25 -0.16
 C  4.91  2.01  0.12
 C  6.07  1.04  0.11
 O  5.06  3.21  0.34
 H  2.53 -1.59 -0.81
 H  1.85 -0.10 -1.56
 H  1.62 -0.40  0.19
 H  1.44  1.89 -0.36
 H  2.61  3.30  0.04
 H  5.90  0.22  0.82
 H  6.99  1.58  0.36
 H  6.17  0.58 -0.89
