15
set: 3066.00  0.00  0.00
 C -1.76  0.92  0.35
 C -1.37 -0.35 -0.35
 O -0.46 -1.31  0.29
 C  0.78 -0.78 -0.21
 C  2.07 -0.10  0.14
 C  0.72  0.70  0.07
 C -0.61  0.97 -0.65
 H -2.71  1.36  0.05
 H -1.52  1.03  1.41
 H -2.05 -0.83 -1.06
 H  0.80 -0.97 -1.30
 H  2.49 -0.03  1.14
 H  2.81 -0.15 -0.66
 H  0.51  0.80  1.14
 H -0.72  1.50 -1.60
