15
set: 6828.00  0.00  0.00
 O  1.32 -0.00  0.76
 N  2.42 -0.01 -0.18
 C  2.88  1.19 -0.30
 C  2.49  2.45  0.43
 C  3.36  3.54 -0.24
 C  4.54  2.75 -0.81
 N  3.91  1.48 -1.19
 H  1.07 -0.94  0.75
 H  2.72  2.32  1.50
 H  1.41  2.63  0.36
 H  2.80  4.01 -1.06
 H  3.67  4.32  0.46
 H  5.00  3.24 -1.69
 H  5.33  2.61 -0.04
 H  4.49  0.71 -1.49
