17
set: 1966.00  0.00  0.00
 C  3.22 -1.19 -0.49
 C  2.49  0.00  0.13
 C  3.25  1.32  0.00
 C  3.43  1.87 -1.43
 C  3.36  3.35 -1.17
 N  2.88  3.64 -0.00
 N  2.54  2.45  0.64
 H  2.66 -2.12 -0.35
 H  4.21 -1.33 -0.03
 H  3.37 -1.05 -1.57
 H  2.30 -0.19  1.20
 H  1.50  0.14 -0.34
 H  4.26  1.20  0.46
 H  2.59  1.55 -2.08
 H  4.36  1.54 -1.92
 H  3.61  4.14 -1.87
 H  2.69  2.55  1.65
