15
set: 7053.00  0.00  0.00
 C  1.21 -0.44 -0.44
 C  2.70 -0.36 -0.19
 O  3.09  1.04 -0.33
 S  4.70  1.32 -0.10
 C  4.62  3.09 -0.36
 O  5.04  1.04  1.30
 O  5.46  0.69 -1.18
 H  0.88 -1.49 -0.34
 H  0.97 -0.10 -1.46
 H  0.66  0.17  0.28
 H  3.27 -0.96 -0.91
 H  2.96 -0.69  0.83
 H  4.26  3.27 -1.38
 H  5.65  3.45 -0.24
 H  3.96  3.52  0.39
