19
set: 1311.00  0.00  0.00
 C  0.81  0.03  0.10
 C  2.14  0.07  0.19
 C  3.01  1.30  0.18
 C  2.31  2.66  0.13
 C  3.44  3.65  0.46
 C  4.31  2.92  1.52
 C  3.92  1.42  1.43
 H  0.27 -0.91  0.12
 H  0.21  0.94 -0.00
 H  2.69 -0.88  0.29
 H  3.67  1.23 -0.70
 H  1.53  2.70  0.91
 H  1.82  2.86 -0.83
 H  4.03  3.84 -0.45
 H  3.06  4.62  0.81
 H  5.38  3.08  1.33
 H  4.10  3.31  2.53
 H  4.79  0.76  1.37
 H  3.34  1.12  2.32
