18
set: 2575.00  0.00  0.00
 C  1.14  0.00  0.06
 N  2.59 -0.00 -0.07
 C  3.15  1.02 -1.05
 C  2.83  0.06 -2.22
 C  3.14 -0.97 -1.11
 C  4.65 -0.77 -0.87
 C  4.66  0.79 -0.83
 H  0.84  0.87  0.67
 H  0.83 -0.90  0.61
 H  0.55  0.03 -0.88
 H  2.76  2.05 -0.99
 H  3.47  0.08 -3.12
 H  1.77  0.07 -2.52
 H  2.74 -2.00 -1.11
 H  4.97 -1.22  0.08
 H  5.26 -1.19 -1.69
 H  5.27  1.24 -1.62
 H  4.98  1.18  0.15
