13
set: 4609.00  0.00  0.00
 C -0.44  1.38 -0.16
 O -1.54  0.53 -0.52
 C -1.19 -0.87 -0.57
 C -0.26 -1.25  0.55
 N  0.97 -0.86  0.61
 N  1.47 -0.15 -0.46
 C  0.85  0.93 -0.81
 H -0.31  1.39  0.94
 H -0.72  2.39 -0.49
 H -0.71 -1.11 -1.54
 H -2.14 -1.42 -0.51
 H -0.61 -1.84  1.40
 H  1.29  1.49 -1.64
