19
set: 1772.00  0.00  0.00
 C  1.00 -0.02 -0.04
 C  2.52 -0.01  0.05
 C  3.11  1.13  0.89
 C  4.54  0.65  1.19
 N  5.45  1.05  0.11
 C  4.34 -0.88  1.38
 N  3.02 -1.20  0.77
 H  0.64 -0.89 -0.61
 H  0.64  0.89 -0.56
 H  0.56 -0.06  0.96
 H  2.93  0.06 -0.98
 H  2.54  1.22  1.82
 H  3.11  2.10  0.37
 H  4.93  1.10  2.12
 H  5.14  0.64 -0.78
 H  6.38  0.66  0.28
 H  5.17 -1.43  0.91
 H  4.33 -1.15  2.45
 H  3.06 -2.03  0.18
