16
set: 5277.00  0.00  0.00
 C  0.93 -0.16  0.40
 C  2.46 -0.22  0.39
 C  3.12  1.08 -0.08
 O  2.86  2.18  0.81
 C  4.62  0.87 -0.36
 N  5.43  1.81  0.21
 O  5.02 -0.07 -1.04
 H  0.50 -1.10  0.77
 H  0.54  0.01 -0.61
 H  0.56  0.65  1.04
 H  2.81 -1.02 -0.28
 H  2.84 -0.47  1.39
 H  2.68  1.38 -1.05
 H  2.85  1.83  1.71
 H  5.01  2.63  0.63
 H  6.42  1.81 -0.04
