18
set: 2703.00  0.00  0.00
 C  1.34 -0.29  0.29
 N  2.76  0.03  0.44
 C  3.12  1.30 -0.19
 C  4.61  1.60  0.01
 C  5.02  2.88 -0.57
 C  5.34  3.94 -1.07
 C  5.72  5.22 -1.65
 H  1.15 -1.28  0.72
 H  0.98 -0.28 -0.76
 H  0.74  0.44  0.86
 H  3.32 -0.71  0.02
 H  2.53  2.10  0.29
 H  2.87  1.34 -1.27
 H  5.21  0.79 -0.45
 H  4.84  1.58  1.08
 H  4.84  5.80 -1.97
 H  6.37  5.08 -2.53
 H  6.28  5.84 -0.93
