14
set: 6722.00  0.00  0.00
 O  1.23 -0.20  0.06
 C  2.63  0.09 -0.03
 C  2.85  1.58  0.03
 C  1.84  2.46  0.16
 C  4.22  2.05 -0.05
 N  5.20  1.22 -0.18
 O  6.43  1.90 -0.24
 H  1.13 -1.16  0.02
 H  3.05 -0.29 -0.98
 H  3.19 -0.39  0.79
 H  0.81  2.11  0.23
 H  2.03  3.53  0.21
 H  4.41  3.13 -0.01
 H  7.07  1.17 -0.33
