22
set: 2174.00  0.00  0.00
 C  2.94 -0.90 -1.11
 C  2.51  0.05  0.01
 C  3.04  1.51 -0.08
 C  2.57  2.19 -1.37
 C  2.49  2.29  1.13
 C  4.59  1.55 -0.05
 N  5.16  0.90  1.14
 H  2.49 -1.89 -0.96
 H  4.03 -1.05 -1.12
 H  2.63 -0.55 -2.10
 H  2.85 -0.37  0.97
 H  1.41  0.10  0.05
 H  2.97  1.70 -2.27
 H  2.89  3.24 -1.40
 H  1.47  2.18 -1.44
 H  2.77  1.82  2.08
 H  1.39  2.33  1.09
 H  2.86  3.33  1.13
 H  4.90  2.61 -0.18
 H  4.97  1.01 -0.94
 H  5.05  1.51  1.96
 H  6.17  0.78  1.01
