20
set: 2099.00  0.00  0.00
 C  0.53 -0.40  0.24
 C  1.98 -0.03  0.23
 C  2.54  1.17  0.01
 C  1.76  2.43 -0.28
 C  4.04  1.33  0.04
 C  4.56  2.17  1.22
 N  6.03  2.31  1.13
 H  0.32 -1.20 -0.49
 H -0.14  0.45  0.00
 H  0.23 -0.79  1.22
 H  2.66 -0.87  0.42
 H  0.69  2.25 -0.42
 H  2.14  2.92 -1.20
 H  1.87  3.17  0.53
 H  4.40  1.81 -0.89
 H  4.51  0.33  0.09
 H  4.20  1.72  2.16
 H  4.14  3.18  1.17
 H  6.47  1.40  1.28
 H  6.36  2.91  1.89
