14
set: 5438.00  0.00  0.00
 C  0.90 -0.10 -0.64
 C  2.29  0.05 -0.08
 N  2.97 -0.90  0.46
 O  2.22 -2.11  0.47
 C  2.92  1.40 -0.15
 C  3.19  2.20  1.07
 O  4.26  1.58  0.33
 H  0.55  0.84 -1.08
 H  0.20 -0.41  0.14
 H  0.88 -0.89 -1.41
 H  2.86 -2.72  0.88
 H  2.69  1.96 -1.07
 H  2.98  1.75  2.05
 H  3.16  3.30  1.02
