14
set: 1711.00  0.00  0.00
 C  0.98 -0.03  0.05
 C  2.48 -0.01 -0.03
 C  3.21  1.19 -0.09
 C  4.60  1.14 -0.16
 C  5.23 -0.11 -0.16
 N  4.56 -1.27 -0.09
 C  3.22 -1.20 -0.03
 H  0.56  0.99  0.02
 H  0.63 -0.50  0.98
 H  0.54 -0.60 -0.78
 H  2.69  2.15 -0.09
 H  5.20  2.05 -0.21
 H  6.32 -0.19 -0.21
 H  2.69 -2.16  0.02
