17
set: 4195.00  0.00  0.00
 C  1.24 -0.13 -0.37
 O  2.67 -0.18 -0.29
 C  3.28  1.04 -0.20
 C  4.61  1.19 -0.09
 C  5.57  0.03 -0.04
 C  5.18  2.58 -0.00
 O  5.81  2.85  1.27
 H  0.90 -1.17 -0.44
 H  0.92  0.42 -1.27
 H  0.81  0.34  0.52
 H  2.61  1.91 -0.23
 H  5.05 -0.93  0.07
 H  6.28  0.15  0.79
 H  6.17 -0.01 -0.97
 H  4.39  3.32 -0.21
 H  5.98  2.72 -0.74
 H  5.16  2.64  1.96
