16
set: 6078.00  0.00  0.00
 N  1.46  0.10  0.93
 C  2.54 -0.19 -0.01
 C  2.36 -1.58 -0.66
 C  3.06 -1.52 -2.03
 C  3.00 -0.05 -2.41
 O  1.69  0.54 -2.22
 C  2.71  0.74 -1.21
 H  0.59  0.21  0.41
 H  1.63  1.00  1.40
 H  3.49 -0.16  0.56
 H  1.28 -1.76 -0.80
 H  2.74 -2.39 -0.02
 H  4.12 -1.81 -1.96
 H  2.59 -2.17 -2.79
 H  3.57  0.34 -3.26
 H  3.04  1.78 -1.08
