17
set: 1511.00  0.00  0.00
 C  0.90 -0.03  0.02
 C  2.43 -0.02  0.02
 C  3.00  1.41  0.00
 C  4.46  1.46  0.00
 C  5.68  1.50  0.00
 C  7.10  1.50  0.00
 C  7.88  2.60 -0.00
 H  0.51 -1.05  0.03
 H  0.50  0.47 -0.88
 H  0.50  0.50  0.90
 H  2.81 -0.57 -0.86
 H  2.81 -0.55  0.91
 H  2.62  1.97  0.87
 H  2.62  1.95 -0.89
 H  7.57  0.51 -0.00
 H  7.44  3.60 -0.00
 H  8.96  2.51 -0.00
