17
set: 3874.00  0.00  0.00
 C  0.90 -0.24  0.18
 C  2.34  0.16 -0.12
 C  3.06 -0.86 -1.00
 O  2.54 -1.83 -1.52
 C  2.51  1.53 -0.77
 C  1.65  1.82 -1.97
 C  3.42  2.40 -0.32
 H  0.42  0.50  0.82
 H  0.87 -1.22  0.69
 H  0.31 -0.35 -0.74
 H  2.93  0.18  0.82
 H  4.15 -0.64 -1.15
 H  1.74  1.03 -2.73
 H  1.93  2.78 -2.44
 H  0.59  1.87 -1.70
 H  4.04  2.18  0.56
 H  3.58  3.37 -0.80
