19
set: 1275.00  0.00  0.00
 C  0.99  0.03  0.06
 C  2.33  0.01  0.03
 C  3.13 -1.28  0.01
 C  4.11 -1.31 -1.18
 C  4.99 -0.06 -1.21
 C  4.15  1.22 -1.22
 C  3.17  1.26 -0.03
 H  0.44  0.97  0.06
 H  0.41 -0.89  0.09
 H  2.46 -2.15 -0.01
 H  3.72 -1.34  0.95
 H  4.73 -2.22 -1.13
 H  3.53 -1.37 -2.12
 H  5.65 -0.05 -0.33
 H  5.65 -0.08 -2.09
 H  4.80  2.11 -1.20
 H  3.57  1.27 -2.16
 H  3.76  1.34  0.90
 H  2.53  2.15 -0.08
