17
set: 3638.00  0.00  0.00
 C  0.83 -0.45  0.01
 C  2.31 -0.03 -0.05
 C  3.10 -0.93 -1.03
 C  2.43  1.41 -0.46
 C  2.95  2.41  0.27
 C  3.00  3.78 -0.24
 O  3.45  4.74  0.36
 H  0.27  0.17  0.73
 H  0.74 -1.50  0.31
 H  0.35 -0.34 -0.98
 H  2.75 -0.14  0.95
 H  2.70 -0.84 -2.05
 H  3.02 -1.98 -0.73
 H  4.16 -0.65 -1.06
 H  2.04  1.65 -1.46
 H  3.35  2.25  1.28
 H  2.57  3.90 -1.28
