13
set: 5306.00  0.00  0.00
 C  0.17  0.46  0.27
 C  0.76 -0.90  0.11
 C -0.17 -2.08  0.25
 O -1.35 -1.93  0.50
 N  2.03 -0.99 -0.14
 N  2.50 -2.32 -0.28
 C  3.77 -2.32 -0.51
 H  0.94  1.23  0.14
 H -0.30  0.56  1.27
 H -0.64  0.61 -0.45
 H  0.29 -3.08  0.11
 H  4.25 -3.30 -0.64
 H  4.36 -1.40 -0.57
