18
set: 1666.00  0.00  0.00
 C  1.03  0.01  0.44
 C  2.51 -0.01  0.03
 C  2.90 -1.36 -0.63
 C  2.65 -1.14 -2.11
 C  3.69 -0.43 -2.90
 N  2.53  0.32 -2.39
 C  2.80  1.01 -1.10
 H  0.75  0.99  0.86
 H  0.82 -0.76  1.20
 H  0.38 -0.18 -0.43
 H  3.13  0.20  0.91
 H  2.30 -2.19 -0.23
 H  3.96 -1.60 -0.43
 H  1.93 -1.78 -2.63
 H  4.66 -0.27 -2.41
 H  3.74 -0.53 -3.99
 H  3.84  1.37 -1.05
 H  2.14  1.89 -1.03
