16
set: 589.00  0.00  0.00
 N  0.95  0.01  0.04
 C  2.41  0.05  0.02
 C  3.11  1.08  0.94
 C  4.18  0.00  1.25
 C  3.17 -1.07  0.80
 N  3.69 -2.28  0.18
 H  0.61 -0.74 -0.57
 H  0.57  0.88 -0.35
 H  2.85  0.12 -1.00
 H  2.48  1.28  1.82
 H  3.43  2.03  0.50
 H  5.03  0.06  0.55
 H  4.58 -0.06  2.28
 H  2.53 -1.37  1.66
 H  4.15 -2.06 -0.70
 H  2.94 -2.94 -0.03
