19
set: 1382.00  0.00  0.00
 C  0.91 -0.09 -0.33
 C  2.39  0.12 -0.40
 C  3.11  1.18  0.04
 C  2.48  2.37  0.72
 C  4.59  1.19 -0.12
 C  5.26  0.02 -0.79
 C  5.34  2.23  0.31
 H  0.67 -1.00  0.25
 H  0.49 -0.25 -1.34
 H  0.36  0.75  0.12
 H  2.93 -0.70 -0.87
 H  1.39  2.27  0.80
 H  2.69  3.30  0.16
 H  2.88  2.51  1.73
 H  4.90 -0.13 -1.82
 H  5.08 -0.92 -0.25
 H  6.35  0.18 -0.84
 H  4.91  3.10  0.80
 H  6.42  2.22  0.18
