15
set: 5730.00  0.00  0.00
 C  1.32 -0.29  0.41
 N  2.56  0.45  0.22
 C  2.49  1.68 -0.12
 C  1.23  2.48 -0.35
 N  3.68  2.41 -0.30
 C  4.97  1.93 -0.15
 O  5.96  2.63 -0.32
 H  1.55 -1.29  0.78
 H  0.76 -0.41 -0.54
 H  0.64  0.19  1.14
 H  0.59  1.97 -1.08
 H  1.43  3.49 -0.72
 H  0.65  2.56  0.58
 H  3.62  3.39 -0.57
 H  4.99  0.86  0.15
