15
set: 961.00  0.00  0.00
 C  0.71  1.21 -0.22
 C -0.75  1.18  0.25
 O -1.42  0.00 -0.22
 C -0.75 -1.18  0.24
 C  0.71 -1.21 -0.23
 N  1.46 -0.00  0.15
 H  0.73  1.29 -1.32
 H  1.22  2.09  0.19
 H -1.32  2.03 -0.14
 H -0.79  1.21  1.36
 H -0.79 -1.23  1.34
 H -1.32 -2.03 -0.17
 H  1.22 -2.09  0.17
 H  0.73 -1.28 -1.33
 H  1.60 -0.01  1.17
