14
set: 1686.00  0.00  0.00
 C  1.01 -0.06 -0.01
 C  2.34  0.10  0.01
 C  3.08  1.36 -0.17
 C  4.41  1.17  0.02
 C  4.70 -0.27  0.29
 N  4.38 -1.22 -0.80
 C  3.37 -0.96  0.26
 H  0.56 -1.04  0.16
 H  0.33  0.77 -0.20
 H  2.60  2.30 -0.47
 H  5.18  1.94 -0.04
 H  5.52 -0.57  0.94
 H  4.13 -0.68 -1.64
 H  3.13 -1.83  0.88
