20
set: 5930.00  0.00  0.00
 C  1.16 -0.22  0.37
 O  2.52  0.08  0.65
 C  2.91  1.42  0.31
 C  2.41  2.44  1.34
 C  4.44  1.41  0.13
 C  5.20  1.03  1.41
 N  4.74  0.55 -1.03
 H  1.02 -1.29  0.57
 H  0.92 -0.01 -0.69
 H  0.46  0.36  1.00
 H  2.48  1.66 -0.68
 H  2.78  2.19  2.34
 H  1.31  2.46  1.37
 H  2.76  3.45  1.08
 H  4.71  2.44 -0.16
 H  4.90  0.03  1.75
 H  5.02  1.74  2.23
 H  6.28  1.02  1.21
 H  4.40 -0.39 -0.82
 H  5.75  0.48 -1.15
