13
set: 1132.00  0.00  0.00
 O  2.25  0.40  1.48
 C  2.04  0.87  0.38
 C  3.09  1.36 -0.58
 C  4.51  1.16 -0.13
 C  5.28 -0.06 -0.51
 N  5.53  1.23 -1.20
 H  0.98  0.97  0.00
 H  2.88  2.43 -0.76
 H  2.92  0.88 -1.56
 H  4.76  1.60  0.84
 H  4.81 -0.82 -1.13
 H  6.02 -0.43  0.20
 H  6.39  1.66 -0.83
