15
set: 6452.00  0.00  0.00
 N  0.85  1.72 -0.04
 N  2.22  1.69  0.34
 C  3.13  0.98 -0.42
 O  2.77  0.21 -1.31
 C  4.56  1.23 -0.07
 C  5.53  0.08 -0.25
 C  5.57  1.23 -1.20
 H  0.38  0.96  0.47
 H  0.84  1.41 -1.03
 H  2.53  2.54  0.80
 H  4.75  1.91  0.77
 H  5.09 -0.85 -0.61
 H  6.32 -0.02  0.49
 H  6.39  1.94 -1.13
 H  5.16  1.06 -2.20
