13
set: 178.00  0.00  0.00
 O  3.02 -0.96 -0.62
 C  2.36  0.10  0.09
 C  3.27  1.30  0.11
 C  3.30  2.23 -1.08
 C  2.66  2.68  0.21
 H  2.46 -1.76 -0.54
 H  2.13 -0.21  1.13
 H  1.41  0.38 -0.40
 H  4.22  1.14  0.63
 H  2.65  1.99 -1.92
 H  4.26  2.67 -1.36
 H  3.18  3.42  0.82
 H  1.57  2.75  0.24
