22
set: 2683.00  0.00  0.00
 C  1.67 -0.50  0.41
 N  3.01 -0.07  0.80
 C  3.37  1.28  0.35
 C  2.51  2.33  1.05
 C  4.89  1.54  0.54
 C  5.34  1.47  2.00
 C  5.74  0.61 -0.34
 H  1.56 -1.57  0.62
 H  1.45 -0.34 -0.67
 H  0.91  0.03  0.99
 H  3.68 -0.73  0.41
 H  3.18  1.38 -0.75
 H  2.58  2.23  2.15
 H  1.45  2.24  0.77
 H  2.84  3.34  0.77
 H  5.05  2.57  0.18
 H  5.15  0.47  2.43
 H  4.83  2.21  2.63
 H  6.42  1.66  2.08
 H  5.72 -0.43  0.01
 H  6.80  0.93 -0.33
 H  5.40  0.63 -1.39
