17
set: 1242.00  0.00  0.00
 C  0.91 -0.16 -0.20
 C  2.32  0.32  0.09
 C  3.60 -0.45 -0.44
 C  4.35  0.90 -0.22
 C  2.99  1.48 -0.74
 C  2.99  0.89 -2.16
 C  3.38 -0.38 -1.96
 H  0.17  0.59  0.11
 H  0.70 -1.09  0.35
 H  0.77 -0.36 -1.27
 H  2.44  0.52  1.17
 H  3.93 -1.40  0.00
 H  4.55  1.13  0.84
 H  5.24  1.08 -0.84
 H  2.71  2.54 -0.61
 H  2.71  1.40 -3.08
 H  3.52 -1.19 -2.67
