20
set: 1973.00  0.00  0.00
 C  2.27 -1.22 -0.71
 C  1.90  0.14 -0.10
 C  3.10  0.99  0.32
 C  3.94  0.42  1.44
 N  3.87  1.67 -0.77
 C  2.98  2.47  0.11
 C  3.63  3.52  0.98
 H  1.37 -1.75 -1.05
 H  2.79 -1.87  0.00
 H  2.93 -1.09 -1.58
 H  1.26 -0.03  0.79
 H  1.29  0.71 -0.81
 H  4.80  1.06  1.66
 H  4.34 -0.57  1.16
 H  3.35  0.30  2.36
 H  3.40  1.50 -1.67
 H  2.02  2.79 -0.32
 H  4.61  3.19  1.35
 H  2.99  3.78  1.84
 H  3.80  4.44  0.39
