16
set: 243.00  0.00  0.00
 C  0.42  1.37  0.34
 C  1.38  0.38 -0.33
 C  1.06 -1.06  0.09
 C -0.42 -1.35  0.05
 C -1.35 -0.39 -0.05
 C -1.03  1.08 -0.08
 H  0.69  2.41  0.08
 H  0.50  1.28  1.43
 H  2.43  0.63 -0.07
 H  1.30  0.47 -1.42
 H  1.45 -1.26  1.11
 H  1.59 -1.77 -0.57
 H -0.72 -2.39  0.10
 H -2.41 -0.67 -0.10
 H -1.22  1.47 -1.10
 H -1.73  1.63  0.57
