16
set: 6235.00  0.00  0.00
 N  2.41 -0.59 -1.39
 C  2.42 -0.01 -0.04
 C  3.28  1.24  0.02
 O  2.68  2.43 -0.59
 C  3.09  3.24  0.54
 C  3.41  1.98  1.37
 O  4.60  1.89  2.12
 H  1.70 -1.33 -1.45
 H  3.31 -1.04 -1.59
 H  2.78 -0.69  0.76
 H  1.38  0.27  0.22
 H  4.27  1.04 -0.43
 H  4.00  3.84  0.31
 H  2.29  3.91  0.89
 H  2.60  1.72  2.07
 H  5.34  2.15  1.54
