20
set: 2162.00  0.00  0.00
 C  2.09 -0.67  1.47
 C  2.72 -0.27  0.13
 C  3.27  1.14  0.15
 C  4.54  1.55 -0.03
 C  5.71  0.65 -0.31
 C  4.86  3.02  0.04
 N  5.78  3.31  1.16
 H  1.64 -1.67  1.41
 H  1.29  0.04  1.76
 H  2.84 -0.67  2.27
 H  1.96 -0.34 -0.66
 H  3.51 -0.99 -0.14
 H  2.52  1.91  0.36
 H  5.50 -0.41 -0.13
 H  6.57  0.95  0.30
 H  6.03  0.74 -1.37
 H  3.92  3.60  0.08
 H  5.38  3.32 -0.89
 H  5.29  3.17  2.04
 H  6.07  4.29  1.13
