15
set: 1093.00  0.00  0.00
 N  0.97 -0.03  0.05
 C  2.43  0.00 -0.03
 C  3.03  1.15  0.80
 C  4.42  0.61  1.20
 O  4.43 -0.81  0.92
 C  3.08 -1.21  0.65
 H  0.60 -0.76 -0.57
 H  0.58  0.85 -0.31
 H  2.82  0.06 -1.07
 H  2.39  1.30  1.68
 H  3.09  2.09  0.24
 H  5.24  1.07  0.62
 H  4.62  0.78  2.28
 H  3.13 -2.11  0.02
 H  2.53 -1.44  1.58
