18
set: 2265.00  0.00  0.00
 C  0.94 -0.10  0.02
 C  2.47 -0.06 -0.03
 C  2.98 -0.81 -1.27
 C  3.00  1.41  0.00
 N  2.55  2.25  1.13
 C  4.46  1.43 -0.04
 C  5.68  1.43 -0.03
 H  0.54  0.35  0.94
 H  0.58 -1.14 -0.01
 H  0.50  0.43 -0.84
 H  2.87 -0.57  0.87
 H  2.60 -0.33 -2.19
 H  2.63 -1.85 -1.27
 H  4.07 -0.82 -1.31
 H  2.63  1.90 -0.92
 H  2.88  1.84  2.01
 H  1.52  2.25  1.16
 H  6.75  1.45 -0.04
