15
set: 4271.00  0.00  0.00
 O  1.12  0.03  0.06
 C  2.33  0.01  0.10
 C  3.46  1.06  0.03
 C  4.09  0.02 -0.96
 C  3.44 -1.05 -0.03
 C  4.21 -0.83  1.29
 C  4.23  0.74  1.33
 H  3.28  2.11 -0.24
 H  5.19  0.01 -1.01
 H  3.65  0.06 -1.97
 H  3.23 -2.08 -0.36
 H  3.69 -1.27  2.15
 H  5.22 -1.26  1.24
 H  5.25  1.15  1.31
 H  3.72  1.14  2.22
