18
set: 5933.00  0.00  0.00
 C  1.00  0.51  0.94
 O  2.42  0.54  0.93
 C  2.92  1.49 -0.02
 C  4.41  1.43 -0.04
 C  5.21  2.49  0.16
 C  6.71  2.45  0.11
 N  7.21  3.44 -0.85
 H  0.70 -0.25  1.67
 H  0.60  0.23 -0.05
 H  0.57  1.48  1.23
 H  2.57  2.51  0.24
 H  2.51  1.25 -1.02
 H  4.85  0.45 -0.24
 H  4.77  3.47  0.36
 H  7.04  1.41 -0.07
 H  7.10  2.73  1.11
 H  6.97  3.15 -1.80
 H  8.23  3.48 -0.81
