15
set: 5797.00  0.00  0.00
 C  0.90  0.24  0.09
 N  2.35  0.21  0.03
 C  2.99  1.33  0.04
 N  4.36  1.28 -0.02
 O  4.89 -0.00 -0.10
 C  5.24  2.34 -0.01
 C  6.58  2.25 -0.07
 H  0.55 -0.34  0.96
 H  0.48 -0.25 -0.80
 H  0.48  1.26  0.16
 H  2.57  2.34  0.11
 H  4.04 -0.53 -0.08
 H  4.72  3.30  0.05
 H  7.09  1.29 -0.13
 H  7.17  3.16 -0.06
