22
set: 2489.00  0.00  0.00
 C  2.72 -1.17 -0.45
 C  2.51 -0.25  0.75
 N  3.17  1.05  0.61
 C  2.54  2.10  1.43
 C  2.65  1.96  2.96
 C  4.63  0.96  0.77
 C  5.37  2.23  0.36
 H  2.13 -2.09 -0.33
 H  3.77 -1.48 -0.57
 H  2.41 -0.67 -1.38
 H  2.83 -0.78  1.68
 H  1.44 -0.06  0.86
 H  1.48  2.13  1.14
 H  2.96  3.07  1.12
 H  2.21  1.01  3.31
 H  2.11  2.78  3.45
 H  3.69  1.99  3.30
 H  4.97  0.14  0.12
 H  4.92  0.68  1.81
 H  5.09  2.54 -0.66
 H  6.46  2.05  0.37
 H  5.17  3.07  1.04
