17
set: 4142.00  0.00  0.00
 C  1.75  1.50  1.91
 O  3.07  1.65  1.41
 C  3.13  1.43  0.01
 C  4.57  1.60 -0.47
 C  5.08  3.01 -0.32
 C  5.90  3.44  0.83
 O  6.51  3.20 -0.46
 H  1.79  1.68  3.00
 H  1.36  0.48  1.73
 H  1.06  2.23  1.45
 H  2.46  2.14 -0.52
 H  2.77  0.41 -0.23
 H  4.62  1.31 -1.53
 H  5.23  0.91  0.09
 H  4.48  3.78 -0.82
 H  6.14  2.70  1.60
 H  5.88  4.48  1.15
