16
set: 5133.00  0.00  0.00
 C  3.05 -1.19  0.19
 C  3.87 -0.38 -0.81
 C  3.83  1.12 -0.52
 C  4.64  1.94 -1.51
 O  5.27  1.48 -2.47
 N  4.71  3.29 -1.25
 O  5.31  4.05 -2.28
 H  3.09 -2.27 -0.04
 H  1.99 -0.89  0.18
 H  3.42 -1.06  1.22
 H  3.51 -0.56 -1.84
 H  4.92 -0.72 -0.80
 H  4.21  1.32  0.50
 H  2.79  1.47 -0.54
 H  3.92  3.78 -0.85
 H  5.60  3.31 -2.88
