15
set: 4856.00  0.00  0.00
 C  0.93 -0.04 -0.16
 C  2.45 -0.01 -0.00
 N  3.06  0.20 -1.34
 C  3.04 -1.26  0.67
 O  4.09 -0.79  1.56
 N  3.89  0.59  1.79
 C  2.96  1.01  1.01
 H  0.44 -0.19  0.81
 H  0.64 -0.85 -0.84
 H  0.56  0.90 -0.58
 H  4.07  0.32 -1.24
 H  2.70  1.06 -1.76
 H  3.48 -1.96 -0.05
 H  2.28 -1.78  1.28
 H  2.69  2.07  1.03
