15
set: 455.00  0.00  0.00
 C  1.13 -0.36  0.04
 C  2.65 -0.19  0.05
 C  3.08  1.28 -0.06
 C  4.61  1.43 -0.05
 C  5.04  2.83 -0.15
 N  5.37  3.94 -0.24
 H  0.85 -1.42  0.12
 H  0.69  0.03 -0.89
 H  0.66  0.18  0.88
 H  3.09 -0.76 -0.78
 H  3.06 -0.62  0.98
 H  2.65  1.86  0.77
 H  2.68  1.72 -0.99
 H  5.07  0.87 -0.88
 H  5.03  1.01  0.88
