14
set: 884.00  0.00  0.00
 C  3.37 -1.96 -0.43
 O  2.57 -0.78 -0.53
 C  3.15  0.33  0.06
 O  4.27  0.76 -0.73
 C  4.96  1.84 -0.27
 C  4.71  2.58  0.82
 H  2.76 -2.78 -0.81
 H  3.65 -2.16  0.62
 H  4.29 -1.87 -1.03
 H  3.52  0.12  1.09
 H  2.39  1.13  0.08
 H  5.79  2.07 -0.94
 H  3.88  2.40  1.51
 H  5.37  3.42  1.04
