16
set: 5284.00  0.00  0.00
 C  1.08  0.17  0.76
 C  2.39  0.65  0.16
 C  2.67  0.07 -1.22
 O  2.04 -0.86 -1.71
 N  3.80  0.61 -1.85
 C  3.85  1.96 -2.41
 C  3.87  0.75 -3.29
 H  0.94  0.58  1.78
 H  1.05 -0.93  0.82
 H  0.22  0.48  0.15
 H  3.24  0.37  0.80
 H  2.42  1.75  0.09
 H  4.76  2.53 -2.22
 H  2.92  2.55 -2.39
 H  2.97  0.50 -3.85
 H  4.81  0.44 -3.75
