14
set: 5093.00  0.00  0.00
 C  1.06 -0.03  0.17
 C  2.58 -0.00 -0.10
 C  2.97 -0.79 -1.35
 C  3.07  1.43 -0.16
 O  3.60  1.96 -1.12
 C  2.86  2.22  1.08
 N  2.71  2.84  2.06
 H  0.78  0.53  1.07
 H  0.72 -1.07  0.30
 H  0.51  0.40 -0.69
 H  3.07 -0.44  0.79
 H  2.49 -0.36 -2.24
 H  2.66 -1.83 -1.25
 H  4.06 -0.76 -1.51
