14
set: 6673.00  0.00  0.00
 O  2.25 -0.26 -1.36
 C  2.26  0.16  0.01
 C  3.38  1.18  0.16
 N  3.23  2.47 -0.58
 C  2.88  3.23  0.65
 C  3.27  1.99  1.47
 O  3.42  1.74  2.64
 H  1.51 -0.87 -1.49
 H  2.46 -0.68  0.69
 H  1.29  0.62  0.28
 H  4.36  0.69 -0.01
 H  2.49  2.43 -1.28
 H  3.49  4.13  0.83
 H  1.82  3.49  0.79
