16
set: 523.00  0.00  0.00
 C  2.34 -0.96  0.59
 C  1.75  0.44  0.51
 N  2.74  1.45  0.12
 C  2.23  2.70 -0.43
 N  3.82  1.47  0.94
 C  4.57  2.52  1.02
 H  1.56 -1.68  0.88
 H  3.14 -1.00  1.34
 H  2.76 -1.27 -0.38
 H  1.27  0.71  1.47
 H  0.96  0.46 -0.26
 H  1.33  2.49 -1.02
 H  2.98  3.15 -1.10
 H  1.99  3.44  0.36
 H  5.45  2.43  1.66
 H  4.41  3.47  0.49
