13
set: 6353.00  0.00  0.00
 N  1.19  0.15  0.54
 C  2.41  0.11  0.12
 N  3.24  1.19  0.24
 C  2.72  2.57  0.43
 C  3.88  3.04 -0.47
 O  4.29  4.11 -0.84
 C  4.30  1.58 -0.72
 H  0.74 -0.77  0.41
 H  2.91 -0.77 -0.33
 H  2.74  2.94  1.46
 H  1.72  2.72  0.00
 H  4.14  1.25 -1.76
 H  5.33  1.32 -0.40
