14
set: 811.00  0.00  0.00
 C  0.97 -0.20 -0.00
 C  2.46  0.11 -0.06
 C  2.78  1.59 -0.05
 O  1.92  2.47  0.01
 C  4.24  2.02 -0.12
 O  4.37  3.42 -0.09
 H  0.80 -1.29 -0.00
 H  0.44  0.23 -0.87
 H  0.51  0.22  0.90
 H  2.93 -0.33 -0.95
 H  2.99 -0.34  0.80
 H  4.68  1.59 -1.04
 H  4.78  1.55  0.73
 H  3.44  3.74 -0.04
