16
set: 2962.00  0.00  0.00
 N  0.99 -0.01  0.22
 C  2.46 -0.02  0.01
 C  2.75 -0.75 -1.33
 C  4.21 -0.88 -1.64
 C  4.85 -2.04 -1.82
 C  2.97  1.35  0.00
 C  3.40  2.48  0.01
 H  0.78  0.56  1.05
 H  0.68 -0.96  0.43
 H  3.01 -0.57  0.80
 H  2.24 -0.18 -2.12
 H  2.28 -1.75 -1.29
 H  4.77  0.06 -1.72
 H  4.33 -3.00 -1.75
 H  5.92 -2.07 -2.04
 H  3.77  3.49  0.01
