13
set: 4965.00  0.00  0.00
 C  0.94 -0.16 -0.10
 C  2.45  0.05  0.12
 C  2.86  1.49  0.06
 C  3.35  2.34  1.02
 O  3.57  3.55  0.54
 N  3.15  3.43 -0.94
 N  2.78  2.25 -1.09
 H  0.69 -1.22 -0.08
 H  0.63  0.25 -1.07
 H  0.36  0.35  0.68
 H  3.01 -0.51 -0.65
 H  2.75 -0.36  1.09
 H  3.57  2.17  2.07
