13
set: 6169.00  0.00  0.00
 N  0.89 -0.02 -0.08
 C  2.18  0.02 -0.03
 N  2.97  1.16 -0.25
 O  4.23  1.16  0.49
 C  5.03  0.10 -0.04
 C  4.30 -1.21  0.03
 C  2.95 -1.23  0.09
 H  0.49  0.92 -0.18
 H  2.52  2.03  0.06
 H  5.93  0.09  0.59
 H  5.33  0.32 -1.08
 H  4.88 -2.13  0.04
 H  2.37 -2.14  0.17
