20
set: 2279.00  0.00  0.00
 C  1.44  0.09  1.33
 C  2.04  0.54 -0.01
 C  2.91  1.78  0.09
 C  2.18  3.07  0.39
 N  1.20  3.37 -0.67
 C  4.24  1.69 -0.07
 C  5.28  2.78 -0.01
 H  0.84 -0.83  1.19
 H  0.78  0.85  1.76
 H  2.23 -0.13  2.06
 H  1.22  0.75 -0.72
 H  2.64 -0.28 -0.44
 H  2.91  3.88  0.57
 H  1.62  2.95  1.33
 H  1.69  3.59 -1.53
 H  0.67  4.22 -0.42
 H  4.65  0.70 -0.28
 H  4.85  3.78  0.12
 H  5.89  2.79 -0.92
 H  5.97  2.61  0.83
