15
set: 3342.00  0.00  0.00
 C  0.90 -0.04  0.05
 C  2.41  0.03  0.03
 C  3.20  1.07  0.91
 O  2.48  1.66  1.99
 C  4.21 -0.04  1.33
 C  3.24 -1.07  0.73
 O  3.10 -2.27  0.85
 H  0.56 -0.97 -0.43
 H  0.45  0.81 -0.49
 H  0.50 -0.03  1.08
 H  2.78  0.10 -1.00
 H  3.63  1.92  0.36
 H  2.13  0.95  2.56
 H  5.17 -0.01  0.78
 H  4.43 -0.13  2.40
