19
set: 4487.00  0.00  0.00
 O  2.31 -0.11 -1.22
 C  1.96  0.52  0.02
 C  2.60  1.90  0.06
 C  4.13  1.87  0.06
 C  4.75  3.27  0.09
 C  6.28  3.24  0.06
 O  6.88  4.53  0.15
 H  1.92 -1.00 -1.23
 H  2.32 -0.08  0.88
 H  0.86  0.62  0.11
 H  2.23  2.42  0.96
 H  2.24  2.48 -0.81
 H  4.48  1.32 -0.83
 H  4.48  1.30  0.94
 H  4.43  3.82  1.00
 H  4.39  3.85 -0.77
 H  6.63  2.70 -0.85
 H  6.67  2.68  0.93
 H  6.59  5.04 -0.63
