15
set: 532.00  0.00  0.00
 C  1.06  0.29 -0.38
 N  2.42 -0.00  0.07
 C  3.09 -1.12 -0.59
 C  3.49  0.29 -0.90
 C  4.74  0.89 -0.39
 C  5.52  1.72 -1.09
 H  0.83  1.34 -0.19
 H  0.36 -0.33  0.19
 H  0.91  0.09 -1.46
 H  2.54 -1.66 -1.37
 H  3.72 -1.74  0.05
 H  3.16  0.66 -1.89
 H  5.01  0.61  0.63
 H  5.27  2.03 -2.11
 H  6.44  2.13 -0.67
