16
set: 5912.00  0.00  0.00
 C  1.75  0.25 -0.50
 O  3.08  0.42 -0.02
 C  3.64  1.66 -0.20
 C  3.07  2.72 -0.79
 C  5.03  1.65  0.34
 C  6.23  1.63 -0.55
 N  5.84  2.86  0.16
 H  1.47 -0.78 -0.27
 H  1.70  0.41 -1.59
 H  1.06  0.95  0.01
 H  2.06  2.70 -1.21
 H  3.65  3.64 -0.85
 H  5.13  1.09  1.28
 H  6.07  1.67 -1.63
 H  7.11  1.07 -0.22
 H  6.44  3.00  0.98
