19
set: 2942.00  0.00  0.00
 N  2.03  2.65 -2.58
 C  3.32  2.78 -1.88
 C  3.56  1.56 -0.99
 C  4.89  1.59 -0.25
 N  4.96  2.69  0.72
 C  5.59  0.27  0.02
 C  6.14  1.25 -1.00
 H  1.90  3.45 -3.20
 H  1.27  2.71 -1.90
 H  3.42  3.69 -1.26
 H  4.11  2.83 -2.64
 H  3.51  0.65 -1.62
 H  2.74  1.47 -0.26
 H  5.93  2.81  1.04
 H  4.40  2.46  1.54
 H  5.14 -0.65 -0.34
 H  6.13  0.18  0.97
 H  7.06  1.79 -0.75
 H  6.05  1.00 -2.06
