16
set: 6155.00  0.00  0.00
 N  0.99  0.00  0.09
 C  2.45 -0.01 -0.02
 C  2.94 -1.34 -0.61
 O  2.63 -1.46 -2.00
 C  3.16 -0.37 -2.72
 O  2.62  0.87 -2.32
 C  2.94  1.12 -0.94
 H  0.67  0.89  0.49
 H  0.68 -0.74  0.71
 H  2.98  0.13  0.95
 H  2.47 -2.19 -0.11
 H  4.04 -1.41 -0.46
 H  4.27 -0.35 -2.60
 H  2.88 -0.51 -3.77
 H  4.03  1.24 -0.82
 H  2.46  2.08 -0.69
