13
set: 963.00  0.00  0.00
 C  0.07  0.88 -0.11
 N -0.75 -0.34  0.07
 C  0.73 -0.45 -0.00
 C  1.45 -0.89  1.24
 C  1.12 -2.16  1.90
 O  2.32 -2.04  1.10
 H  0.08  1.38 -1.08
 H  0.08  1.55  0.76
 H -1.16 -0.61 -0.82
 H  1.16 -0.87 -0.92
 H  1.88 -0.09  1.86
 H  0.33 -2.78  1.47
 H  1.29 -2.27  2.98
