13
set: 3457.00  0.00  0.00
 C  2.81 -1.12  0.41
 C  2.24  0.08  0.18
 C  2.92  1.34  0.10
 C  2.46  2.62 -0.13
 C  3.59  3.49 -0.10
 C  4.67  2.68  0.14
 O  4.29  1.38  0.26
 H  2.20 -2.03  0.45
 H  3.88 -1.22  0.56
 H  1.15  0.14  0.03
 H  1.42  2.90 -0.30
 H  3.61  4.56 -0.24
 H  5.74  2.87  0.25
