20
set: 2636.00  0.00  0.00
 C  2.14 -0.31 -1.53
 N  2.30  0.14 -0.15
 C  3.03  1.40 -0.02
 C  2.23  2.63 -0.47
 C  2.95  3.83  0.19
 C  3.67  3.24  1.45
 C  3.35  1.74  1.45
 H  1.70 -1.31 -1.54
 H  3.09 -0.34 -2.11
 H  1.45  0.36 -2.06
 H  2.80 -0.58  0.37
 H  3.99  1.38 -0.60
 H  1.20  2.52 -0.07
 H  2.16  2.73 -1.56
 H  3.68  4.27 -0.50
 H  2.24  4.62  0.46
 H  4.76  3.41  1.37
 H  3.34  3.73  2.38
 H  4.17  1.13  1.86
 H  2.45  1.53  2.04
