13
set: 3443.00  0.00  0.00
 C  0.93  0.04 -0.11
 C  2.43 -0.02  0.14
 O  2.77 -1.21  0.88
 C  3.45 -0.87  2.04
 O  3.85 -1.69  2.84
 C  3.57  0.61  2.06
 C  2.99  1.11  0.97
 H  0.60 -0.85 -0.66
 H  0.68  0.93 -0.70
 H  0.39  0.09  0.85
 H  2.97 -0.08 -0.83
 H  4.06  1.14  2.88
 H  2.89  2.15  0.67
