19
set: 3445.00  0.00  0.00
 C  1.63 -0.13  1.40
 C  2.10  0.35  0.02
 C  3.21  1.38  0.11
 C  3.44  2.38 -1.00
 C  2.89  2.84  0.34
 C  3.75  3.69  1.24
 O  3.73  5.08  0.89
 H  0.83 -0.88  1.30
 H  1.24  0.70  2.00
 H  2.45 -0.60  1.96
 H  1.25  0.79 -0.53
 H  2.45 -0.50 -0.58
 H  4.12  1.03  0.61
 H  2.76  2.35 -1.85
 H  4.47  2.64 -1.25
 H  1.83  3.10  0.35
 H  4.79  3.30  1.24
 H  3.38  3.65  2.28
 H  3.92  5.13 -0.07
