14
set: 5265.00  0.00  0.00
 C  0.84 -0.25 -0.09
 C  2.28 -0.64 -0.10
 C  2.78 -1.87 -0.31
 O  3.08  0.47  0.20
 C  4.39  0.42 -0.18
 N  5.24  1.04  0.55
 O  6.51  1.01 -0.06
 H  0.64  0.50 -0.87
 H  0.57  0.20  0.88
 H  0.21 -1.12 -0.26
 H  2.09 -2.68 -0.55
 H  3.84 -2.10 -0.24
 H  4.62 -0.09 -1.12
 H  7.06  1.48  0.59
