14
set: 5035.00  0.00  0.00
 C  0.97 -0.06  0.00
 C  2.51 -0.04 -0.00
 C  3.06  1.31 -0.00
 C  3.48  2.46  0.00
 C  4.07  3.74  0.00
 N  3.33  4.81  0.00
 O  4.15  5.96  0.00
 H  0.61 -1.10  0.00
 H  0.57  0.44 -0.88
 H  0.58  0.44  0.89
 H  2.89 -0.58 -0.88
 H  2.90 -0.58  0.88
 H  5.16  3.83  0.00
 H  3.48  6.67  0.00
