21
set: 2708.00  0.00  0.00
 C  0.90 -0.36  0.43
 N  2.30 -0.73  0.23
 C  2.42 -1.67 -0.88
 C  3.12  0.47  0.02
 C  4.63  0.23  0.07
 C  5.12 -0.38  1.38
 N  6.60 -0.44  1.39
 H  0.81  0.31  1.29
 H  0.31 -1.26  0.63
 H  0.46  0.15 -0.46
 H  1.80 -2.55 -0.68
 H  3.46 -2.02 -0.98
 H  2.11 -1.24 -1.85
 H  2.86  1.18  0.82
 H  2.86  0.98 -0.94
 H  5.14  1.19 -0.09
 H  4.94 -0.41 -0.78
 H  4.62 -1.35  1.54
 H  4.81  0.28  2.21
 H  6.91 -1.10  0.68
 H  6.91 -0.83  2.28
