15
set: 6378.00  0.00  0.00
 N  1.03  2.78  2.12
 C  2.15  2.51  1.56
 N  2.95  3.53  1.07
 O  3.70  3.13 -0.09
 C  5.04  3.57  0.05
 C  5.78  3.74 -1.24
 C  5.41  4.95 -0.41
 H  0.63  1.94  2.53
 H  2.63  1.53  1.46
 H  2.43  4.39  0.86
 H  5.56  3.14  0.92
 H  5.20  3.57 -2.15
 H  6.82  3.41 -1.28
 H  6.19  5.48  0.13
 H  4.60  5.58 -0.79
