15
set: 6761.00  0.00  0.00
 O  3.61 -0.50  1.43
 C  2.47 -0.01  0.74
 C  2.77  1.17 -0.13
 N  3.97  1.61 -0.17
 N  4.12  2.75 -1.04
 C  5.48  2.73 -1.63
 C  5.19  3.64 -0.50
 H  4.34  0.09  1.15
 H  1.68  0.27  1.46
 H  2.04 -0.81  0.10
 H  1.96  1.63 -0.71
 H  5.52  3.11 -2.66
 H  6.09  1.85 -1.42
 H  5.59  3.37  0.48
 H  5.00  4.70 -0.67
