16
set: 5334.00  0.00  0.00
 C  1.00 -0.07 -0.17
 C  2.50 -0.04 -0.14
 N  3.10 -1.24 -0.43
 C  3.18  1.15  0.07
 C  2.44  2.46  0.22
 C  4.62  1.19  0.19
 O  5.31  2.20  0.36
 H  0.62  0.41 -1.09
 H  0.57  0.48  0.68
 H  0.61 -1.10 -0.14
 H  2.57 -2.09 -0.22
 H  4.10 -1.33 -0.32
 H  1.81  2.49  1.12
 H  1.79  2.67 -0.65
 H  3.18  3.27  0.30
 H  5.15  0.19  0.15
