14
set: 6809.00  0.00  0.00
 O  1.03  0.64  0.85
 C  2.01  0.14  0.05
 O  1.91 -0.95 -0.47
 C  3.23  1.05 -0.12
 C  2.83  2.52 -0.43
 N  2.76  2.74  1.04
 C  3.73  1.63  1.24
 H  1.34  1.54  1.17
 H  3.96  0.56 -0.77
 H  1.89  2.69 -0.98
 H  3.66  3.06 -0.93
 H  3.04  3.67  1.38
 H  4.79  1.94  1.17
 H  3.58  1.03  2.15
