13
set: 161.00  0.00  0.00
 C  0.93 -0.04  0.01
 C  2.46 -0.02  0.00
 C  3.04  1.39  0.01
 C  4.55  1.47  0.01
 O  5.30  0.51 -0.00
 H  0.55 -1.07  0.00
 H  0.53  0.47 -0.88
 H  0.53  0.47  0.89
 H  2.85 -0.56 -0.87
 H  2.85 -0.57  0.88
 H  2.69  1.97  0.88
 H  2.69  1.98 -0.86
 H  4.96  2.52  0.01
