20
set: 2669.00  0.00  0.00
 C  1.37 -0.47 -0.01
 N  2.81 -0.33 -0.20
 C  3.19 -0.69 -1.56
 C  3.26  1.02  0.16
 C  4.76  1.17  0.22
 C  5.55  1.69 -0.96
 C  5.36  2.56  0.27
 H  1.11 -0.24  1.03
 H  1.07 -1.50 -0.23
 H  0.78  0.21 -0.67
 H  2.86 -1.72 -1.77
 H  4.28 -0.65 -1.68
 H  2.73 -0.03 -2.33
 H  2.84  1.24  1.16
 H  2.84  1.79 -0.54
 H  5.26  0.41  0.84
 H  4.99  1.96 -1.86
 H  6.54  1.28 -1.15
 H  6.21  2.73  0.92
 H  4.67  3.40  0.18
