15
set: 4366.00  0.00  0.00
 O  0.80  0.11  0.29
 C  2.20  0.05  0.06
 C  3.02  1.03  0.90
 O  3.96 -0.02  1.26
 C  3.04 -1.05  0.79
 C  3.68 -2.14 -0.01
 C  4.97 -2.16 -0.37
 H  0.34 -0.34 -0.44
 H  2.44  0.09 -1.02
 H  2.46  1.40  1.77
 H  3.51  1.87  0.38
 H  2.45 -1.47  1.63
 H  3.01 -2.96 -0.28
 H  5.64 -1.35 -0.07
 H  5.37 -2.99 -0.95
