15
set: 3146.00  0.00  0.00
 C  1.02  0.08 -0.61
 C  2.15 -0.06  0.37
 C  2.47 -1.37  1.18
 C  3.85 -0.66  1.13
 O  3.51 -0.20 -0.24
 C  3.58  0.61  1.96
 C  2.41  1.02  1.44
 H  0.06  0.11 -0.08
 H  1.01 -0.76 -1.32
 H  1.13  1.02 -1.18
 H  2.43 -2.27  0.54
 H  1.98 -1.51  2.15
 H  4.81 -1.18  1.20
 H  4.20  1.03  2.75
 H  1.79  1.87  1.68
