18
set: 1682.00  0.00  0.00
 C  1.35  0.42  0.54
 C  2.53 -0.12 -0.26
 C  2.33 -1.54 -0.84
 C  3.25 -1.57 -2.07
 C  3.30 -0.11 -2.52
 C  2.00  0.63 -2.57
 N  2.89  0.78 -1.39
 H  1.56  1.43  0.90
 H  1.14 -0.22  1.41
 H  0.44  0.46 -0.08
 H  3.42 -0.12  0.39
 H  1.28 -1.70 -1.12
 H  2.59 -2.32 -0.11
 H  4.27 -1.89 -1.80
 H  2.89 -2.24 -2.86
 H  4.14  0.23 -3.12
 H  1.92  1.53 -3.18
 H  1.08  0.06 -2.48
