14
set: 6325.00  0.00  0.00
 N  1.21  3.24  0.64
 C  2.33  2.95  0.79
 C  3.73  2.61  1.03
 O  4.24  1.90 -0.10
 C  5.62  1.62  0.07
 C  6.41  1.49 -1.19
 C  6.63  2.68 -0.27
 H  3.79  2.00  1.95
 H  4.30  3.55  1.20
 H  5.83  0.93  0.90
 H  5.87  1.67 -2.12
 H  7.17  0.71 -1.24
 H  7.55  2.74  0.31
 H  6.24  3.64 -0.62
