15
set: 5710.00  0.00  0.00
 C  1.03 -0.01 -0.22
 N  2.47  0.08  0.02
 C  3.20 -1.09  0.22
 C  2.74 -2.34  0.06
 C  3.04  1.36  0.05
 N  4.44  1.39  0.09
 O  2.37  2.39  0.09
 H  0.63  1.01 -0.25
 H  0.56 -0.57  0.60
 H  0.83 -0.52 -1.17
 H  4.21 -0.93  0.60
 H  1.73 -2.57 -0.28
 H  3.39 -3.18  0.30
 H  4.94  0.71 -0.48
 H  4.78  2.34 -0.03
