15
set: 1782.00  0.00  0.00
 C  0.91  0.01 -0.07
 C  2.41  0.01 -0.01
 C  3.24  1.13 -0.09
 N  4.54  0.70  0.01
 N  5.63  1.60 -0.03
 C  4.58 -0.67  0.14
 C  3.27 -1.12  0.13
 H  0.52  1.02 -0.17
 H  0.48 -0.43  0.83
 H  0.55 -0.58 -0.93
 H  3.02  2.18 -0.20
 H  6.17  1.49  0.83
 H  6.24  1.33 -0.81
 H  5.53 -1.20  0.23
 H  2.96 -2.16  0.22
