16
set: 5703.00  0.00  0.00
 C  0.99  0.00 -0.29
 N  2.45  0.01 -0.21
 C  2.96  1.28  0.32
 C  4.41  1.37  0.26
 C  5.62  1.46  0.20
 C  7.07  1.57  0.09
 O  7.52  2.49 -0.93
 H  0.66 -0.94 -0.75
 H  0.56  0.85 -0.87
 H  0.56  0.04  0.72
 H  2.85 -0.14 -1.13
 H  2.63  1.36  1.38
 H  2.53  2.17 -0.20
 H  7.50  0.56 -0.07
 H  7.50  1.95  1.03
 H  7.01  2.28 -1.73
