13
set: 3588.00  0.00  0.00
 C  1.08  0.33 -0.30
 C  2.38  0.31  0.03
 C  3.24 -0.94  0.14
 C  2.55 -2.18 -0.14
 C  1.96 -3.22 -0.37
 C  3.06  1.59  0.32
 O  4.23  1.70  0.63
 H  0.54  1.28 -0.36
 H  0.53 -0.59 -0.52
 H  3.68 -0.96  1.15
 H  4.10 -0.82 -0.54
 H  1.46 -4.14 -0.57
 H  2.40  2.49  0.23
