18
set: 2182.00  0.00  0.00
 C  0.97 -0.09  0.00
 C  2.51 -0.02 -0.01
 C  3.01  1.35 -0.02
 C  3.40  2.51 -0.00
 C  3.89  3.89 -0.03
 C  4.98  4.05 -1.11
 N  2.74  4.82 -0.16
 H  0.64 -1.14  0.02
 H  0.55  0.39 -0.89
 H  0.56  0.41  0.89
 H  2.90 -0.56 -0.88
 H  2.91 -0.54  0.88
 H  4.34  4.10  0.95
 H  4.57  3.84 -2.10
 H  5.82  3.37 -0.92
 H  5.36  5.09 -1.10
 H  2.25  4.61 -1.03
 H  3.10  5.77 -0.26
