14
set: 5496.00  0.00  0.00
 C  0.95 -0.08 -1.15
 C  1.97 -0.21 -0.04
 O  1.62  0.77  0.98
 C  2.41  0.86  2.09
 C  2.17  1.77  3.05
 C  3.51 -0.07  2.22
 N  4.40 -0.82  2.32
 H  1.18 -0.81 -1.94
 H  0.98  0.93 -1.59
 H -0.06 -0.28 -0.78
 H  2.99 -0.01 -0.40
 H  1.95 -1.21  0.41
 H  1.35  2.47  2.95
 H  2.81  1.81  3.93
