18
set: 5804.00  0.00  0.00
 C  1.31  2.78  0.23
 N  2.63  2.24  0.53
 C  3.59  2.08 -0.43
 O  3.41  2.38 -1.62
 C  4.92  1.50  0.07
 C  5.20  0.17 -0.65
 C  6.05  2.52 -0.19
 H  1.12  3.71  0.80
 H  0.52  2.05  0.47
 H  1.29  3.00 -0.84
 H  2.85  1.98  1.48
 H  4.85  1.32  1.15
 H  5.23  0.33 -1.74
 H  4.41 -0.57 -0.43
 H  6.16 -0.25 -0.33
 H  6.11  2.75 -1.26
 H  7.02  2.10  0.14
 H  5.88  3.46  0.36
