17
set: 6329.00  0.00  0.00
 N  1.17  0.23 -0.78
 C  2.64  0.16 -0.70
 C  3.13  1.33  0.17
 O  2.38  1.35  1.39
 C  4.60  1.20  0.50
 C  5.66  1.60 -0.46
 N  5.35  2.46  0.70
 H  0.77 -0.66 -1.07
 H  0.88  0.93 -1.47
 H  3.15  0.18 -1.68
 H  2.90 -0.78 -0.20
 H  3.00  2.28 -0.38
 H  1.49  1.05  1.11
 H  4.83  0.36  1.17
 H  5.39  2.03 -1.42
 H  6.59  1.02 -0.46
 H  6.05  2.33  1.44
