14
set: 941.00  0.00  0.00
 O  2.58 -0.93  1.26
 C  2.68 -0.26 -0.02
 C  3.05  1.16  0.23
 C  4.10  1.79 -0.33
 C  4.45  3.22 -0.09
 O  5.77  3.36  0.46
 H  2.16 -1.80  1.10
 H  1.71 -0.30 -0.55
 H  3.44 -0.75 -0.66
 H  2.39  1.71  0.91
 H  4.77  1.23 -0.99
 H  3.69  3.70  0.56
 H  4.48  3.78 -1.03
 H  5.80  2.81  1.27
