18
set: 6021.00  0.00  0.00
 C  2.09 -0.71 -1.47
 O  3.02 -0.36 -0.43
 N  3.57  0.91 -0.74
 C  4.40  1.28  0.16
 C  5.11  2.60  0.04
 C  4.75  3.51  1.23
 C  6.63  2.39 -0.05
 H  1.70 -1.70 -1.19
 H  2.60 -0.77 -2.45
 H  1.27  0.01 -1.53
 H  4.61  0.64  1.03
 H  4.76  3.07 -0.89
 H  5.05  3.06  2.18
 H  3.67  3.70  1.27
 H  5.27  4.48  1.14
 H  7.01  1.88  0.85
 H  7.15  3.35 -0.14
 H  6.89  1.77 -0.92
