17
set: 2212.00  0.00  0.00
 C  0.79  0.03 -0.20
 C  2.30  0.29 -0.16
 C  2.98 -0.32 -1.36
 C  3.93 -1.26 -1.31
 C  2.64  1.79 -0.06
 N  4.00  2.03  0.07
 N  1.82  2.78 -0.02
 H  0.29  0.44  0.69
 H  0.59 -1.05 -0.23
 H  0.32  0.47 -1.10
 H  2.71 -0.19  0.74
 H  2.65  0.06 -2.33
 H  4.28 -1.67 -0.36
 H  4.39 -1.66 -2.22
 H  4.62  1.35 -0.38
 H  4.26  3.00 -0.05
 H  0.85  2.45 -0.06
