17
set: 1852.00  0.00  0.00
 C  1.03 -0.02  0.50
 C  2.47  0.03 -0.02
 C  2.70  1.26 -0.90
 N  4.05  1.20 -1.44
 C  4.59 -0.02 -1.78
 N  4.12 -1.19 -1.52
 C  2.83 -1.23 -0.82
 H  0.79  0.86  1.10
 H  0.88 -0.91  1.14
 H  0.31 -0.08 -0.33
 H  3.16  0.10  0.83
 H  2.59  2.18 -0.30
 H  1.94  1.30 -1.70
 H  4.43  2.02 -1.90
 H  5.56  0.05 -2.30
 H  2.04 -1.44 -1.57
 H  2.84 -2.10 -0.15
