18
set: 2159.00  0.00  0.00
 C  0.97 -0.01  0.01
 C  2.42  0.01  0.01
 C  3.64  0.01  0.01
 C  5.10  0.03 -0.01
 C  5.71  1.45  0.01
 C  5.33  2.21  1.28
 N  7.16  1.31 -0.21
 H  0.56  1.01  0.02
 H  0.57 -0.54  0.89
 H  0.57 -0.51 -0.89
 H  5.47 -0.48 -0.92
 H  5.49 -0.54  0.85
 H  5.31  1.99 -0.86
 H  5.73  1.70  2.17
 H  4.24  2.29  1.40
 H  5.75  3.23  1.26
 H  7.59  0.87  0.61
 H  7.59  2.24 -0.28
