15
set: 984.00  0.00  0.00
 C  0.99 -0.08 -0.12
 C  2.50 -0.06 -0.01
 N  3.09 -0.09  1.32
 C  3.33 -0.74 -1.09
 C  3.33  0.77 -0.98
 O  4.45  1.44 -0.47
 H  0.66  0.03 -1.17
 H  0.54  0.74  0.46
 H  0.57 -1.03  0.26
 H  3.08 -1.04  1.70
 H  2.55  0.50  1.96
 H  2.80 -1.21 -1.92
 H  4.25 -1.24 -0.77
 H  2.81  1.35 -1.75
 H  4.53  1.09  0.45
