15
set: 3213.00  0.00  0.00
 C  0.97 -0.07  0.39
 C  2.24 -0.01 -0.05
 C  2.99  1.24 -0.43
 C  4.38  1.27  0.21
 C  5.04 -0.07  0.01
 C  4.30 -1.17 -0.23
 O  2.92 -1.21 -0.24
 H  0.39  0.85  0.50
 H  0.50 -1.02  0.62
 H  2.39  2.12 -0.16
 H  3.11  1.24 -1.53
 H  4.31  1.51  1.29
 H  4.99  2.07 -0.24
 H  6.12 -0.17  0.03
 H  4.71 -2.16 -0.41
