17
set: 2710.00  0.00  0.00
 C  1.19 -0.61  0.61
 N  2.16 -0.40 -0.47
 C  2.72 -1.68 -0.90
 C  1.56  0.35 -1.56
 C  2.62  0.94 -2.51
 C  2.03  1.79 -3.53
 N  1.55  2.47 -4.34
 H  0.82  0.36  0.97
 H  1.68 -1.12  1.45
 H  0.32 -1.23  0.30
 H  3.16 -2.20 -0.04
 H  3.52 -1.53 -1.64
 H  1.95 -2.35 -1.35
 H  0.98  1.18 -1.13
 H  0.84 -0.27 -2.15
 H  3.19  0.14 -3.01
 H  3.34  1.53 -1.92
