14
set: 5024.00  0.00  0.00
 C  0.96 -0.04  0.00
 C  2.41  0.00  0.00
 C  3.63  0.07  0.00
 C  5.05  0.04 -0.00
 C  5.77 -1.29 -0.01
 N  5.66  1.19  0.00
 O  7.06  1.01 -0.00
 H  0.54  0.98  0.01
 H  0.58 -0.57  0.88
 H  0.58 -0.55 -0.89
 H  5.05 -2.12 -0.00
 H  6.43 -1.36  0.87
 H  6.41 -1.37 -0.89
 H  7.37  1.93  0.00
