17
set: 4062.00  0.00  0.00
 C  0.80  2.25 -0.90
 C  2.23  2.69 -0.67
 O  2.98  1.56 -0.23
 C  4.32  1.77  0.03
 C  4.98  2.93 -0.09
 O  6.32  3.14  0.16
 C  7.06  1.99  0.57
 H  0.19  3.10 -1.25
 H  0.35  1.87  0.03
 H  0.75  1.46 -1.66
 H  2.28  3.49  0.10
 H  2.68  3.09 -1.60
 H  4.79  0.84  0.35
 H  4.51  3.86 -0.40
 H  8.09  2.33  0.72
 H  7.03  1.20 -0.20
 H  6.67  1.58  1.52
