15
set: 2322.00  0.00  0.00
 C  0.93 -0.18  0.01
 C  2.42 -0.40  0.02
 C  2.98 -1.61  0.18
 C  3.30  0.75 -0.17
 N  2.83  1.94 -0.33
 N  3.87  2.88 -0.49
 C  3.41  4.07 -0.66
 H  0.64  0.53  0.80
 H  0.39 -1.12  0.16
 H  0.61  0.27 -0.94
 H  2.38 -2.51  0.32
 H  4.07 -1.73  0.18
 H  4.39  0.58 -0.16
 H  4.14  4.88 -0.79
 H  2.33  4.30 -0.67
