14
set: 822.00  0.00  0.00
 C  0.92  0.13  0.08
 C  2.41 -0.01 -0.16
 O  2.59 -0.60 -1.46
 C  3.13  1.32 -0.09
 C  3.91  1.72  1.09
 O  4.58  1.24 -0.10
 H  0.72  0.54  1.08
 H  0.43 -0.85 -0.00
 H  0.47  0.80 -0.67
 H  2.85 -0.68  0.61
 H  3.55 -0.64 -1.62
 H  2.73  2.10 -0.75
 H  3.96  1.05  1.95
 H  4.06  2.79  1.30
