60
set: 56.00  0.00  0.00
 C -17.90 -19.69 -18.56
 C -15.47 -17.43 -21.35
 C -16.74 -16.68 -21.27
 C -20.90 -16.23 -18.22
 C -21.82 -19.03 -18.17
 C -19.45 -19.63 -15.78
 C -17.71 -17.72 -16.18
 C -20.05 -21.97 -17.02
 C -17.73 -17.09 -22.33
 C -22.64 -20.34 -20.20
 C -19.97 -20.14 -22.64
 C -21.39 -17.44 -22.05
 C -19.67 -16.01 -20.98
 C -15.41 -18.72 -22.16
 C -15.47 -20.66 -20.69
 C -14.73 -19.46 -21.01
 C -17.25 -16.77 -17.40
 C -19.21 -19.62 -18.85
 C -20.22 -17.12 -15.77
 C -21.68 -16.67 -19.46
 C -19.41 -22.58 -19.64
 C -17.06 -22.96 -19.12
 C -20.08 -17.53 -22.82
 C -16.62 -16.93 -18.71
 C -18.51 -15.98 -17.24
 C -21.12 -16.52 -20.84
 C -17.96 -22.64 -20.22
 C -21.46 -19.96 -22.65
 C -19.36 -21.21 -21.70
 C -22.16 -18.68 -22.28
 C -16.68 -20.80 -21.70
 C -16.66 -19.44 -22.52
 C -14.90 -18.19 -20.11
 C -20.22 -21.71 -20.55
 C -17.89 -21.61 -21.39
 C -21.66 -18.37 -16.80
 C -20.53 -18.62 -15.75
 C -17.29 -16.26 -19.91
 C -21.26 -16.89 -16.89
 C -17.81 -18.53 -22.83
 C -19.84 -21.00 -16.19
 C -18.88 -16.71 -15.94
 C -17.95 -19.17 -16.10
 C -17.00 -21.73 -17.30
 C -17.90 -22.83 -17.81
 C -16.05 -21.98 -18.50
 C -15.70 -18.13 -18.91
 C -20.62 -19.81 -18.86
 C -19.43 -15.79 -18.40
 C -18.77 -15.85 -19.78
 C -19.12 -16.55 -22.26
 C -22.49 -17.90 -19.20
 C -16.28 -19.53 -18.42
 C -23.01 -19.20 -19.22
 C -21.26 -20.79 -19.85
 C -19.37 -22.67 -18.13
 C -15.66 -20.80 -19.18
 C -17.20 -20.14 -17.14
 C -19.30 -18.85 -23.00
 C -22.54 -19.97 -21.64
