60
set: 68.00  0.00  0.00
 C -18.27 -19.61 -18.61
 C -15.23 -17.54 -21.61
 C -16.55 -16.87 -21.71
 C -20.32 -16.92 -18.24
 C -22.03 -19.34 -17.94
 C -20.02 -20.47 -15.31
 C -17.62 -19.28 -15.64
 C -20.15 -22.63 -16.85
 C -17.60 -17.34 -22.67
 C -22.62 -20.60 -20.11
 C -19.87 -20.48 -22.50
 C -21.27 -17.78 -22.09
 C -19.48 -16.37 -21.08
 C -15.21 -18.94 -22.11
 C -15.48 -20.65 -20.47
 C -14.64 -19.50 -20.81
 C -16.26 -17.20 -17.97
 C -19.49 -20.00 -18.33
 C -19.66 -17.93 -15.93
 C -21.29 -17.20 -19.45
 C -19.24 -22.81 -19.44
 C -16.85 -22.91 -18.82
 C -19.97 -17.93 -22.85
 C -15.01 -17.30 -18.57
 C -17.72 -17.09 -17.42
 C -20.91 -16.90 -20.86
 C -17.81 -22.69 -19.99
 C -21.37 -20.30 -22.52
 C -19.32 -21.46 -21.49
 C -22.06 -19.01 -22.25
 C -16.59 -20.92 -21.56
 C -16.50 -19.70 -22.51
 C -14.89 -18.05 -20.07
 C -20.16 -22.00 -20.32
 C -17.80 -21.76 -21.18
 C -21.68 -18.61 -16.60
 C -20.60 -19.14 -15.62
 C -17.14 -16.83 -20.34
 C -20.72 -17.45 -16.92
 C -17.67 -18.87 -23.00
 C -20.42 -21.79 -15.90
 C -18.20 -17.95 -16.21
 C -18.51 -20.33 -15.17
 C -16.92 -21.84 -16.83
 C -17.71 -23.01 -17.55
 C -16.17 -21.70 -18.17
 C -16.41 -17.94 -19.49
 C -20.87 -20.33 -18.47
 C -18.83 -16.68 -18.46
 C -18.48 -16.42 -19.93
 C -18.99 -16.86 -22.42
 C -22.31 -18.24 -19.10
 C -16.92 -19.36 -18.98
 C -23.07 -19.45 -19.17
 C -21.33 -21.21 -19.60
 C -19.19 -23.02 -17.93
 C -15.96 -20.55 -19.02
 C -17.31 -20.78 -15.91
 C -19.17 -19.23 -23.04
 C -22.48 -20.26 -21.54
