60
set: 38.00  0.00  0.00
 C -20.42 -18.61 -19.92
 C -19.49 -20.40 -18.38
 C -19.56 -19.73 -19.63
 C -19.80 -17.73 -20.91
 C -18.32 -21.18 -17.96
 C -21.17 -17.78 -19.04
 C -16.38 -18.77 -21.00
 C -16.41 -20.51 -19.51
 C -18.48 -19.58 -20.60
 C -17.14 -19.93 -20.57
 C -15.35 -18.51 -20.07
 C -15.36 -19.54 -19.12
 C -18.55 -18.21 -21.17
 C -20.21 -16.38 -20.65
 C -19.51 -15.22 -20.45
 C -18.22 -14.69 -20.21
 C -21.02 -16.46 -19.49
 C -19.96 -14.56 -19.15
 C -17.19 -17.65 -21.20
 C -15.30 -17.09 -19.90
 C -16.88 -15.18 -20.17
 C -16.46 -16.50 -20.57
 C -14.63 -16.48 -18.85
 C -16.10 -14.51 -19.16
 C -14.93 -15.09 -18.63
 C -18.74 -13.83 -19.14
 C -18.27 -21.21 -16.56
 C -20.74 -18.72 -16.76
 C -19.37 -20.53 -16.00
 C -20.15 -19.97 -17.08
 C -18.90 -19.78 -14.90
 C -20.33 -18.00 -15.60
 C -16.96 -21.01 -18.37
 C -15.34 -19.47 -17.68
 C -17.05 -20.60 -16.07
 C -17.45 -19.67 -15.06
 C -16.21 -20.48 -17.21
 C -15.13 -18.22 -17.02
 C -17.13 -18.28 -15.03
 C -21.12 -17.69 -17.66
 C -20.71 -15.51 -18.44
 C -20.07 -16.58 -15.95
 C -20.74 -16.35 -17.21
 C -18.65 -13.90 -15.91
 C -18.80 -16.28 -15.32
 C -17.92 -17.55 -18.21
 C -16.70 -13.74 -18.04
 C -16.24 -17.64 -16.06
 C -18.03 -15.08 -15.52
 C -17.17 -17.54 -17.23
 C -14.85 -14.76 -17.25
 C -15.81 -16.22 -15.81
 C -16.64 -15.05 -15.82
 C -14.44 -17.10 -17.52
 C -14.70 -16.00 -16.61
 C -18.65 -13.13 -16.86
 C -18.03 -13.28 -18.10
 C -16.02 -14.10 -16.82
 C -19.38 -18.49 -14.73
 C -18.31 -17.52 -14.73
