60
set: 75.00  0.00  0.00
 C -19.59 -18.72 -20.44
 C -19.77 -20.16 -18.80
 C -20.32 -18.94 -19.25
 C -18.59 -17.71 -19.97
 C -18.49 -20.16 -18.52
 C -20.46 -17.78 -18.42
 C -16.36 -18.32 -20.69
 C -16.20 -20.28 -19.13
 C -17.85 -18.72 -18.97
 C -16.90 -19.35 -19.93
 C -15.24 -18.14 -19.78
 C -15.32 -19.22 -18.74
 C -17.16 -18.06 -17.82
 C -19.42 -16.76 -19.13
 C -19.59 -15.33 -19.64
 C -18.30 -14.48 -19.67
 C -18.82 -16.34 -17.82
 C -20.03 -14.57 -18.54
 C -17.26 -17.21 -20.62
 C -15.29 -16.78 -19.44
 C -16.94 -14.87 -19.62
 C -16.48 -16.15 -20.05
 C -14.67 -16.20 -18.30
 C -16.11 -14.23 -18.62
 C -14.92 -14.82 -18.11
 C -18.83 -13.63 -18.69
 C -18.85 -20.68 -15.82
 C -20.59 -18.66 -15.93
 C -19.53 -20.51 -14.61
 C -20.13 -20.01 -15.80
 C -18.71 -19.63 -13.87
 C -20.23 -17.93 -14.74
 C -17.14 -20.67 -18.10
 C -15.86 -18.88 -17.33
 C -17.48 -20.19 -15.77
 C -17.40 -19.48 -14.54
 C -16.69 -20.09 -16.91
 C -15.20 -17.92 -16.41
 C -16.91 -18.09 -14.44
 C -20.70 -17.67 -17.01
 C -19.83 -15.43 -17.36
 C -19.99 -16.57 -15.07
 C -20.43 -16.34 -16.38
 C -18.69 -13.84 -15.37
 C -18.69 -16.21 -14.51
 C -17.68 -16.88 -17.22
 C -16.74 -13.56 -17.52
 C -15.83 -17.50 -15.18
 C -18.01 -15.10 -15.12
 C -17.36 -15.78 -16.34
 C -14.78 -14.52 -16.71
 C -15.47 -16.06 -15.06
 C -16.51 -15.04 -15.36
 C -14.49 -16.82 -16.98
 C -14.50 -15.75 -16.02
 C -18.68 -13.08 -16.32
 C -18.09 -13.16 -17.60
 C -15.98 -13.95 -16.29
 C -19.18 -18.34 -13.86
 C -18.09 -17.37 -13.99
