60
set: 80.00  0.00  0.00
 C -18.88 -18.03 -19.45
 C -14.81 -17.35 -22.40
 C -15.22 -16.59 -21.26
 C -19.24 -15.34 -18.62
 C -21.49 -18.35 -17.77
 C -19.66 -19.76 -16.28
 C -17.33 -18.47 -16.37
 C -19.56 -22.15 -17.18
 C -17.63 -16.90 -22.26
 C -22.18 -20.48 -19.59
 C -19.90 -19.87 -22.20
 C -20.70 -16.73 -22.34
 C -19.01 -15.62 -20.09
 C -15.13 -18.61 -22.75
 C -15.44 -20.22 -20.22
 C -14.97 -18.81 -19.78
 C -15.61 -15.98 -17.60
 C -19.07 -19.55 -19.63
 C -19.42 -17.24 -16.93
 C -22.10 -17.05 -19.84
 C -18.85 -22.75 -19.69
 C -16.52 -22.37 -19.34
 C -19.22 -17.19 -22.01
 C -15.10 -16.75 -18.62
 C -17.08 -16.02 -17.42
 C -21.77 -16.77 -21.27
 C -17.57 -22.50 -20.41
 C -21.39 -19.32 -21.94
 C -19.27 -21.21 -21.73
 C -21.62 -17.87 -22.29
 C -16.68 -20.25 -21.32
 C -16.37 -19.27 -22.53
 C -14.59 -17.23 -19.96
 C -19.94 -21.94 -20.46
 C -17.76 -21.47 -21.48
 C -21.37 -16.99 -18.46
 C -20.29 -18.51 -16.79
 C -16.74 -16.12 -21.24
 C -20.12 -16.31 -17.91
 C -17.55 -18.36 -22.73
 C -20.03 -21.20 -16.44
 C -17.90 -17.12 -16.71
 C -18.18 -19.60 -16.10
 C -16.36 -21.01 -17.61
 C -17.15 -22.38 -17.99
 C -15.74 -21.11 -19.08
 C -15.92 -18.05 -19.01
 C -19.85 -20.68 -19.40
 C -17.76 -15.26 -18.51
 C -17.51 -15.33 -20.19
 C -19.34 -17.00 -20.46
 C -22.74 -18.40 -19.86
 C -17.31 -18.25 -19.42
 C -22.35 -19.23 -18.65
 C -21.10 -21.42 -19.54
 C -18.62 -22.71 -18.16
 C -17.66 -19.41 -20.24
 C -16.88 -19.95 -16.76
 C -18.99 -18.70 -22.50
 C -22.35 -19.57 -20.80
