60
set:  9.00  0.00  0.00
 C -16.81 -14.13 -16.30
 C -16.82 -20.12 -16.12
 C -16.77 -13.98 -17.63
 C -16.85 -20.28 -17.47
 C -13.37 -16.59 -17.05
 C -20.32 -16.39 -17.16
 C -13.33 -17.93 -17.07
 C -20.32 -17.73 -17.12
 C -15.58 -17.62 -13.49
 C -16.55 -18.71 -13.83
 C -16.13 -17.22 -20.31
 C -17.46 -17.20 -20.32
 C -15.73 -14.67 -15.63
 C -17.94 -14.54 -15.67
 C -15.57 -19.97 -15.53
 C -15.65 -14.37 -18.33
 C -17.95 -19.58 -15.50
 C -17.88 -14.32 -18.38
 C -15.73 -20.02 -18.23
 C -17.94 -19.92 -18.21
 C -13.80 -15.95 -15.90
 C -19.97 -15.66 -16.02
 C -13.61 -18.63 -15.93
 C -13.86 -15.89 -18.14
 C -19.97 -18.38 -15.94
 C -19.75 -15.74 -18.24
 C -13.87 -18.60 -18.15
 C -19.77 -18.44 -18.16
 C -15.32 -16.45 -14.11
 C -18.51 -16.30 -14.24
 C -14.62 -18.51 -13.87
 C -15.42 -16.11 -19.89
 C -18.61 -17.71 -14.18
 C -18.14 -16.05 -19.93
 C -15.46 -18.35 -19.86
 C -18.18 -18.29 -19.88
 C -19.03 -19.49 -17.61
 C -14.59 -19.67 -17.65
 C -19.00 -14.67 -17.76
 C -19.06 -19.38 -16.24
 C -14.58 -14.81 -17.67
 C -14.48 -19.69 -16.29
 C -19.05 -14.70 -16.39
 C -14.61 -14.90 -16.30
 C -19.31 -17.82 -19.24
 C -14.31 -17.93 -19.21
 C -19.29 -16.44 -19.28
 C -19.79 -17.67 -14.86
 C -14.29 -16.55 -19.21
 C -13.78 -17.98 -14.77
 C -19.76 -16.29 -14.90
 C -14.09 -16.63 -14.81
 C -17.52 -19.34 -19.39
 C -16.15 -19.38 -19.40
 C -17.45 -14.99 -19.51
 C -17.74 -18.73 -14.38
 C -16.07 -15.03 -19.48
 C -15.55 -19.45 -14.28
 C -17.56 -15.43 -14.62
 C -16.17 -15.49 -14.60
