60
set: 28.00  0.00  0.00
 C -16.63 -18.70 -17.77
 C -14.78 -17.00 -20.70
 C -16.02 -16.23 -20.64
 C -20.23 -15.99 -17.70
 C -21.54 -19.15 -17.13
 C -18.72 -19.26 -15.25
 C -17.02 -17.28 -15.61
 C -19.82 -21.24 -16.75
 C -17.03 -16.67 -21.68
 C -22.07 -19.85 -19.36
 C -18.84 -19.99 -21.43
 C -20.60 -17.05 -21.26
 C -18.91 -15.54 -20.37
 C -14.72 -18.36 -21.42
 C -15.22 -20.19 -19.89
 C -14.28 -19.03 -20.18
 C -16.54 -16.19 -16.80
 C -17.86 -18.65 -18.39
 C -19.56 -16.87 -15.33
 C -20.97 -16.31 -18.97
 C -19.12 -21.99 -19.16
 C -16.76 -21.73 -18.60
 C -19.36 -17.37 -21.93
 C -15.81 -16.18 -18.07
 C -17.89 -15.60 -16.70
 C -20.32 -15.96 -20.24
 C -17.76 -21.69 -19.74
 C -20.19 -20.33 -20.84
 C -19.07 -18.50 -18.86
 C -21.54 -17.97 -20.66
 C -16.24 -20.20 -21.00
 C -15.97 -18.99 -21.87
 C -14.16 -17.61 -19.48
 C -20.27 -21.36 -19.72
 C -17.61 -20.76 -20.87
 C -20.98 -18.20 -16.22
 C -19.84 -18.33 -15.20
 C -16.57 -15.71 -19.30
 C -20.56 -16.70 -16.45
 C -17.10 -18.15 -22.12
 C -18.83 -20.64 -15.79
 C -18.25 -16.38 -15.47
 C -17.24 -18.74 -15.47
 C -17.47 -21.11 -16.19
 C -17.57 -21.98 -17.36
 C -15.60 -20.83 -18.58
 C -14.75 -17.28 -18.24
 C -21.04 -20.61 -17.32
 C -18.77 -15.42 -17.84
 C -18.05 -15.36 -19.17
 C -18.38 -16.25 -21.56
 C -21.86 -17.49 -19.24
 C -15.29 -18.43 -17.50
 C -22.16 -18.70 -18.43
 C -21.34 -20.94 -18.74
 C -19.01 -22.12 -17.68
 C -15.52 -19.94 -17.30
 C -16.51 -20.01 -16.13
 C -18.55 -18.63 -22.02
 C -21.42 -19.44 -20.64
