60
set: 58.00  0.00  0.00
 C -21.39 -20.08 -23.79
 C -22.40 -19.96 -22.96
 C -20.69 -21.43 -23.79
 C -21.58 -22.15 -22.73
 C -19.38 -22.12 -23.77
 C -19.58 -23.32 -22.74
 C -17.87 -21.85 -23.78
 C -17.28 -22.89 -22.73
 C -17.00 -20.71 -23.59
 C -15.87 -20.95 -22.63
 C -22.50 -21.22 -22.06
 C -22.84 -21.54 -20.63
 C -20.85 -23.22 -22.02
 C -20.90 -23.35 -20.54
 C -18.34 -23.62 -22.02
 C -18.33 -23.79 -20.53
 C -16.20 -22.30 -21.96
 C -15.97 -22.63 -20.52
 C -14.81 -20.38 -21.80
 C -14.37 -20.76 -20.61
 C -21.99 -22.59 -19.83
 C -22.04 -22.67 -18.32
 C -19.64 -23.75 -19.80
 C -19.64 -23.72 -18.31
 C -17.06 -23.40 -19.80
 C -17.06 -23.43 -18.31
 C -14.96 -21.81 -19.75
 C -14.86 -21.97 -18.25
 C -23.73 -20.86 -19.69
 C -23.84 -21.00 -18.40
 C -20.91 -23.36 -17.57
 C -20.92 -23.41 -16.07
 C -18.33 -23.76 -17.57
 C -18.35 -23.80 -16.08
 C -15.90 -22.82 -17.56
 C -15.96 -22.78 -16.07
 C -13.97 -21.16 -17.40
 C -14.03 -21.01 -15.99
 C -23.04 -21.85 -17.51
 C -23.00 -21.82 -16.02
 C -19.66 -23.83 -15.35
 C -19.62 -23.73 -13.86
 C -17.10 -23.39 -15.32
 C -17.17 -23.12 -13.88
 C -15.08 -21.89 -15.31
 C -15.29 -21.42 -13.83
 C -23.63 -20.84 -15.10
 C -23.22 -20.55 -13.88
 C -22.01 -22.70 -15.29
 C -21.80 -22.47 -13.83
 C -18.39 -23.39 -13.15
 C -18.59 -22.28 -12.03
 C -16.42 -22.00 -13.11
 C -17.31 -21.61 -11.95
 C -14.31 -20.27 -13.71
 C -13.58 -20.12 -14.81
 C -22.15 -21.15 -13.08
 C -21.00 -20.90 -12.17
 C -20.69 -23.06 -13.10
 C -20.11 -22.05 -12.02
