60
set: 47.00  0.00  0.00
 C -20.56 -18.60 -19.99
 C -19.59 -20.42 -18.48
 C -19.68 -19.72 -19.73
 C -19.93 -17.68 -20.93
 C -18.40 -21.20 -18.09
 C -21.29 -17.81 -19.08
 C -16.52 -18.65 -21.06
 C -16.49 -20.38 -19.59
 C -18.60 -19.55 -20.70
 C -17.23 -19.85 -20.65
 C -15.48 -18.36 -20.11
 C -15.45 -19.42 -19.17
 C -18.71 -18.20 -21.27
 C -20.27 -16.32 -20.58
 C -19.63 -15.11 -20.36
 C -18.39 -14.46 -20.25
 C -21.08 -16.45 -19.44
 C -20.02 -14.57 -18.98
 C -17.38 -17.60 -21.29
 C -15.45 -16.99 -19.91
 C -17.05 -14.93 -20.37
 C -16.86 -16.45 -20.39
 C -14.86 -16.32 -18.84
 C -16.12 -14.25 -19.53
 C -15.13 -14.94 -18.76
 C -18.87 -13.72 -19.02
 C -18.37 -21.31 -16.71
 C -20.94 -18.86 -16.82
 C -19.49 -20.67 -16.13
 C -20.28 -20.07 -17.19
 C -19.02 -19.91 -15.06
 C -20.56 -18.17 -15.64
 C -17.02 -20.97 -18.47
 C -15.44 -19.39 -17.73
 C -17.15 -20.69 -16.20
 C -17.56 -19.79 -15.19
 C -16.30 -20.49 -17.31
 C -15.29 -18.18 -16.99
 C -17.24 -18.41 -15.16
 C -21.33 -17.80 -17.70
 C -20.81 -15.57 -18.35
 C -20.37 -16.75 -15.92
 C -20.96 -16.47 -17.17
 C -18.25 -13.90 -15.93
 C -19.10 -16.38 -15.30
 C -17.55 -16.66 -19.06
 C -16.59 -13.21 -18.65
 C -16.15 -17.82 -15.87
 C -18.43 -15.18 -15.73
 C -17.74 -16.40 -17.87
 C -15.33 -14.56 -17.37
 C -16.29 -16.40 -15.91
 C -17.57 -16.05 -16.55
 C -14.79 -16.90 -17.51
 C -15.26 -15.82 -16.67
 C -17.53 -13.21 -16.82
 C -17.94 -13.06 -18.24
 C -16.13 -13.40 -17.29
 C -19.51 -18.63 -14.85
 C -18.47 -17.64 -14.82
