60
set: 37.00  0.00  0.00
 C -20.49 -18.62 -19.90
 C -19.53 -20.41 -18.34
 C -19.62 -19.72 -19.59
 C -19.86 -17.71 -20.85
 C -18.39 -21.21 -17.94
 C -21.18 -17.76 -19.01
 C -16.40 -18.84 -21.00
 C -16.46 -20.51 -19.44
 C -18.53 -19.58 -20.56
 C -17.18 -19.95 -20.52
 C -15.40 -18.54 -20.05
 C -15.42 -19.52 -19.04
 C -18.60 -18.23 -21.15
 C -20.34 -16.36 -20.64
 C -19.76 -15.09 -20.52
 C -18.47 -14.65 -20.16
 C -21.16 -16.43 -19.48
 C -20.24 -14.39 -19.25
 C -17.24 -17.70 -21.19
 C -15.41 -17.12 -19.89
 C -17.27 -15.48 -19.76
 C -16.60 -16.60 -20.54
 C -14.81 -16.50 -18.80
 C -16.30 -14.58 -19.00
 C -15.09 -15.08 -18.61
 C -18.95 -13.76 -19.11
 C -18.34 -21.23 -16.53
 C -20.66 -18.68 -16.72
 C -19.41 -20.56 -15.96
 C -20.17 -19.97 -17.02
 C -18.85 -19.75 -14.92
 C -20.29 -17.94 -15.54
 C -17.01 -21.03 -18.32
 C -15.44 -19.44 -17.60
 C -17.08 -20.64 -16.04
 C -17.42 -19.70 -15.03
 C -16.27 -20.52 -17.15
 C -15.22 -18.22 -16.88
 C -17.04 -18.31 -14.95
 C -20.95 -17.69 -17.66
 C -20.87 -15.39 -18.50
 C -20.03 -16.57 -15.77
 C -20.33 -16.33 -17.28
 C -18.70 -13.97 -15.74
 C -18.75 -16.31 -15.11
 C -19.00 -16.40 -17.94
 C -16.89 -13.80 -17.88
 C -15.98 -17.70 -15.68
 C -18.02 -15.11 -15.31
 C -18.01 -16.22 -18.64
 C -14.97 -14.75 -17.21
 C -15.79 -16.27 -15.65
 C -16.65 -15.10 -15.64
 C -14.60 -17.08 -17.50
 C -14.78 -15.98 -16.61
 C -18.86 -13.28 -16.73
 C -18.24 -13.37 -17.99
 C -16.14 -14.14 -16.70
 C -19.32 -18.48 -14.66
 C -18.24 -17.55 -14.59
