60
set: 27.00  0.00  0.00
 C -20.35 -18.18 -19.64
 C -19.51 -20.09 -18.21
 C -19.57 -19.39 -19.42
 C -19.74 -17.42 -20.67
 C -18.40 -20.98 -17.85
 C -21.00 -17.23 -18.77
 C -16.36 -18.68 -20.81
 C -16.49 -20.45 -19.43
 C -18.51 -19.33 -20.43
 C -17.19 -19.78 -20.44
 C -15.31 -18.49 -19.86
 C -15.29 -19.67 -19.06
 C -18.51 -17.99 -21.00
 C -20.18 -16.08 -20.61
 C -19.50 -14.89 -20.74
 C -18.13 -14.50 -20.38
 C -21.00 -15.97 -19.43
 C -20.04 -13.97 -19.70
 C -17.13 -17.52 -21.02
 C -15.24 -17.01 -19.67
 C -16.89 -15.09 -20.09
 C -16.40 -16.42 -20.40
 C -14.55 -16.24 -18.72
 C -16.21 -14.41 -19.00
 C -15.02 -14.92 -18.49
 C -18.74 -13.63 -19.36
 C -18.31 -21.02 -16.46
 C -20.64 -18.37 -16.54
 C -19.35 -20.30 -15.88
 C -20.12 -19.64 -16.91
 C -18.80 -19.62 -14.77
 C -20.29 -17.82 -15.27
 C -17.04 -20.95 -18.29
 C -14.11 -19.14 -17.05
 C -17.00 -20.53 -15.99
 C -17.35 -19.54 -14.98
 C -16.17 -20.63 -17.14
 C -13.73 -17.98 -17.12
 C -16.99 -18.14 -14.69
 C -20.96 -17.21 -17.37
 C -20.78 -14.73 -18.77
 C -20.02 -16.41 -15.42
 C -20.60 -15.98 -16.68
 C -18.69 -14.05 -15.79
 C -18.72 -16.19 -14.83
 C -20.42 -14.75 -17.39
 C -16.94 -13.83 -17.88
 C -15.89 -17.40 -15.07
 C -17.96 -15.05 -15.19
 C -15.04 -19.93 -17.66
 C -14.95 -14.64 -17.09
 C -15.57 -16.15 -15.43
 C -16.60 -15.00 -15.55
 C -14.01 -16.69 -17.39
 C -14.53 -15.79 -16.41
 C -19.28 -13.92 -16.99
 C -18.30 -13.56 -18.03
 C -16.19 -14.17 -16.66
 C -19.30 -18.39 -14.45
 C -18.24 -17.45 -14.35
