60
set: 35.00  0.00  0.00
 C -18.07 -19.39 -18.33
 C -15.30 -17.44 -20.72
 C -16.53 -16.62 -20.70
 C -20.78 -16.21 -17.82
 C -21.93 -19.44 -17.36
 C -19.18 -19.45 -15.43
 C -17.57 -17.35 -15.62
 C -20.10 -21.53 -17.00
 C -17.51 -16.95 -21.82
 C -22.41 -20.13 -19.68
 C -19.69 -19.91 -22.00
 C -21.15 -17.16 -21.54
 C -19.39 -15.72 -20.53
 C -15.21 -18.70 -21.56
 C -15.39 -20.76 -20.23
 C -14.60 -19.50 -20.38
 C -17.08 -16.44 -16.83
 C -18.58 -19.62 -19.50
 C -20.15 -17.06 -15.39
 C -21.49 -16.52 -19.14
 C -19.35 -22.56 -19.41
 C -16.86 -22.45 -18.77
 C -19.90 -17.34 -22.34
 C -16.40 -16.77 -18.08
 C -18.44 -15.71 -16.75
 C -20.84 -16.11 -20.42
 C -17.87 -22.55 -19.94
 C -20.98 -20.53 -21.63
 C -19.01 -20.51 -20.72
 C -22.12 -18.14 -20.98
 C -16.50 -20.72 -21.31
 C -16.48 -19.36 -22.03
 C -14.75 -18.20 -19.49
 C -20.33 -21.53 -20.14
 C -17.75 -21.48 -20.94
 C -21.51 -18.48 -16.36
 C -20.36 -18.58 -15.27
 C -17.09 -16.16 -19.35
 C -21.16 -16.94 -16.55
 C -17.62 -18.40 -22.38
 C -19.12 -20.85 -16.05
 C -18.84 -16.46 -15.48
 C -17.82 -18.77 -15.74
 C -17.74 -21.14 -16.60
 C -17.77 -22.28 -17.58
 C -15.65 -21.51 -18.89
 C -15.41 -18.00 -18.19
 C -21.26 -20.85 -17.63
 C -19.32 -15.64 -17.93
 C -18.55 -15.66 -19.28
 C -18.86 -16.36 -21.80
 C -22.37 -17.74 -19.46
 C -15.69 -19.33 -17.45
 C -22.58 -18.98 -18.68
 C -21.42 -21.06 -19.13
 C -19.27 -22.48 -17.92
 C -15.26 -20.65 -17.77
 C -17.23 -19.60 -16.98
 C -19.12 -18.66 -22.58
 C -22.09 -19.66 -21.08
