60
set: 45.00  0.00  0.00
 C -20.54 -18.64 -19.95
 C -19.59 -20.46 -18.47
 C -19.66 -19.76 -19.71
 C -19.91 -17.72 -20.91
 C -18.41 -21.25 -18.08
 C -21.29 -17.85 -19.07
 C -16.50 -18.74 -21.07
 C -16.52 -20.46 -19.58
 C -18.59 -19.57 -20.68
 C -17.24 -19.90 -20.65
 C -15.47 -18.46 -20.13
 C -15.47 -19.47 -19.17
 C -18.67 -18.20 -21.23
 C -20.35 -16.40 -20.64
 C -19.67 -15.22 -20.43
 C -18.37 -14.68 -20.22
 C -21.16 -16.51 -19.48
 C -20.09 -14.61 -19.12
 C -17.31 -17.63 -21.25
 C -15.45 -17.05 -19.97
 C -17.01 -15.14 -20.21
 C -16.59 -16.47 -20.63
 C -14.82 -16.44 -18.87
 C -16.20 -14.42 -19.25
 C -15.03 -15.05 -18.70
 C -18.90 -13.85 -19.12
 C -18.37 -21.32 -16.67
 C -20.86 -18.82 -16.82
 C -19.45 -20.63 -16.12
 C -20.24 -20.06 -17.17
 C -18.94 -19.84 -15.03
 C -20.45 -18.10 -15.63
 C -17.06 -21.04 -18.48
 C -15.49 -19.43 -17.72
 C -17.14 -20.69 -16.18
 C -17.53 -19.72 -15.20
 C -16.34 -20.50 -17.30
 C -15.27 -18.25 -16.97
 C -17.16 -18.32 -15.14
 C -21.27 -17.80 -17.68
 C -20.84 -15.60 -18.41
 C -20.29 -16.67 -15.90
 C -20.89 -16.45 -17.19
 C -18.82 -13.94 -15.88
 C -19.01 -16.33 -15.25
 C -18.03 -16.83 -18.15
 C -16.79 -13.67 -18.17
 C -16.04 -17.78 -15.82
 C -18.30 -15.13 -15.45
 C -17.47 -16.09 -17.32
 C -14.98 -14.77 -17.30
 C -15.85 -16.34 -15.83
 C -16.95 -15.33 -16.16
 C -14.63 -17.07 -17.56
 C -14.76 -16.00 -16.63
 C -18.73 -13.18 -16.85
 C -18.15 -13.27 -18.10
 C -16.19 -14.18 -16.95
 C -19.44 -18.57 -14.83
 C -18.39 -17.58 -14.83
