60
set: 39.00  0.00  0.00
 C -20.56 -18.60 -19.94
 C -19.61 -20.39 -18.39
 C -19.69 -19.71 -19.64
 C -19.93 -17.71 -20.94
 C -18.45 -21.19 -17.99
 C -21.30 -17.78 -19.08
 C -16.52 -18.78 -21.03
 C -16.55 -20.47 -19.51
 C -18.61 -19.56 -20.63
 C -17.28 -19.91 -20.59
 C -15.50 -18.50 -20.08
 C -15.52 -19.49 -19.11
 C -18.69 -18.21 -21.23
 C -20.39 -16.38 -20.72
 C -19.69 -15.19 -20.56
 C -18.38 -14.71 -20.27
 C -21.23 -16.44 -19.55
 C -20.16 -14.52 -19.30
 C -17.31 -17.65 -21.25
 C -15.46 -17.08 -19.94
 C -17.05 -15.20 -20.21
 C -16.60 -16.50 -20.64
 C -14.83 -16.49 -18.86
 C -16.27 -14.53 -19.19
 C -15.10 -15.10 -18.68
 C -18.92 -13.86 -19.19
 C -18.42 -21.25 -16.59
 C -20.82 -18.71 -16.76
 C -19.51 -20.59 -16.02
 C -20.27 -19.99 -17.08
 C -18.97 -19.77 -14.98
 C -20.43 -17.97 -15.58
 C -17.09 -21.01 -18.39
 C -15.54 -19.44 -17.64
 C -17.18 -20.65 -16.10
 C -17.52 -19.71 -15.11
 C -16.34 -20.51 -17.21
 C -15.30 -18.23 -16.92
 C -17.13 -18.32 -15.03
 C -21.08 -17.73 -17.71
 C -20.91 -15.46 -18.56
 C -20.15 -16.59 -15.82
 C -20.45 -16.38 -17.34
 C -18.77 -14.01 -15.89
 C -18.86 -16.33 -15.17
 C -19.09 -16.75 -17.82
 C -16.89 -13.81 -18.04
 C -16.06 -17.72 -15.74
 C -18.12 -15.15 -15.43
 C -18.04 -17.27 -18.23
 C -15.03 -14.81 -17.28
 C -15.85 -16.29 -15.72
 C -16.74 -15.15 -15.76
 C -14.64 -17.10 -17.53
 C -14.80 -16.02 -16.63
 C -18.86 -13.26 -16.85
 C -18.22 -13.38 -18.09
 C -16.20 -14.20 -16.83
 C -19.43 -18.50 -14.73
 C -18.34 -17.57 -14.68
