60
set: 19.00  0.00  0.00
 C -16.38 -19.00 -15.32
 C -14.84 -17.19 -20.62
 C -16.04 -16.44 -20.47
 C -20.02 -16.27 -17.43
 C -21.47 -19.27 -16.92
 C -18.79 -19.44 -14.83
 C -17.49 -17.50 -13.85
 C -19.70 -21.21 -16.63
 C -17.07 -16.78 -21.45
 C -22.01 -19.87 -19.13
 C -18.88 -19.92 -21.22
 C -20.54 -17.07 -20.93
 C -18.83 -15.70 -20.01
 C -14.79 -18.45 -21.44
 C -15.29 -20.21 -19.85
 C -14.37 -19.13 -20.17
 C -16.33 -16.71 -16.62
 C -15.71 -17.93 -16.05
 C -19.59 -17.02 -15.09
 C -20.81 -16.45 -18.65
 C -19.07 -21.91 -19.01
 C -16.77 -21.62 -18.48
 C -19.36 -17.36 -21.65
 C -15.74 -16.54 -17.96
 C -17.68 -16.22 -16.34
 C -20.21 -16.03 -19.90
 C -17.76 -21.59 -19.58
 C -20.19 -20.28 -20.62
 C -17.50 -18.79 -14.44
 C -21.46 -17.98 -20.35
 C -16.31 -20.19 -20.92
 C -16.05 -19.03 -21.79
 C -14.21 -17.86 -19.44
 C -20.23 -21.30 -19.52
 C -17.66 -20.68 -20.70
 C -20.93 -18.37 -16.01
 C -19.87 -18.47 -14.94
 C -16.50 -16.04 -19.09
 C -20.45 -16.94 -16.24
 C -17.18 -18.18 -22.00
 C -18.72 -20.63 -15.66
 C -18.28 -16.40 -14.99
 C -17.60 -16.23 -13.61
 C -17.35 -21.11 -16.11
 C -17.49 -21.94 -17.27
 C -15.62 -20.70 -18.50
 C -14.72 -17.60 -18.16
 C -20.95 -20.67 -17.15
 C -18.56 -15.92 -17.51
 C -17.94 -15.72 -18.84
 C -18.37 -16.31 -21.27
 C -21.74 -17.55 -18.94
 C -14.91 -18.57 -17.11
 C -22.04 -18.78 -18.20
 C -21.27 -20.96 -18.55
 C -18.91 -22.02 -17.57
 C -15.34 -19.97 -17.26
 C -16.24 -20.21 -16.08
 C -18.58 -18.61 -21.85
 C -21.39 -19.43 -20.39
