60
set: 53.00  0.00  0.00
 C -18.38 -19.79 -18.20
 C -15.51 -17.38 -21.26
 C -16.78 -16.64 -21.17
 C -21.03 -16.25 -18.17
 C -22.09 -19.36 -17.86
 C -19.46 -19.64 -15.57
 C -17.78 -17.63 -16.00
 C -20.11 -22.01 -16.73
 C -17.78 -17.02 -22.25
 C -22.68 -20.22 -20.20
 C -20.06 -20.10 -22.45
 C -21.45 -17.19 -21.92
 C -19.64 -15.80 -20.91
 C -15.44 -18.67 -22.10
 C -15.48 -20.58 -20.51
 C -14.74 -19.38 -20.90
 C -17.32 -16.72 -17.25
 C -19.66 -19.99 -18.37
 C -20.34 -17.15 -15.73
 C -21.76 -16.55 -19.50
 C -19.50 -22.63 -19.46
 C -17.11 -22.89 -18.93
 C -20.17 -17.47 -22.69
 C -16.64 -16.92 -18.55
 C -18.62 -15.93 -17.13
 C -21.10 -16.17 -20.78
 C -18.05 -22.58 -20.03
 C -21.54 -20.08 -22.60
 C -19.47 -21.14 -21.49
 C -22.51 -18.09 -21.39
 C -16.74 -20.72 -21.51
 C -16.71 -19.41 -22.41
 C -14.86 -18.10 -20.04
 C -20.36 -21.80 -20.37
 C -17.98 -21.53 -21.19
 C -21.75 -18.49 -16.72
 C -20.60 -18.66 -15.63
 C -17.31 -16.23 -19.77
 C -21.37 -16.96 -16.88
 C -17.89 -18.50 -22.75
 C -19.79 -21.08 -15.84
 C -19.00 -16.64 -15.82
 C -17.97 -19.08 -15.95
 C -17.00 -21.63 -17.13
 C -17.95 -22.78 -17.62
 C -16.09 -21.90 -18.31
 C -15.65 -18.10 -18.75
 C -21.09 -20.38 -18.38
 C -19.53 -15.75 -18.30
 C -18.79 -15.74 -19.66
 C -19.14 -16.45 -22.20
 C -22.70 -17.75 -19.86
 C -15.91 -19.45 -18.12
 C -22.87 -19.03 -19.15
 C -21.55 -21.04 -19.71
 C -19.42 -22.72 -17.88
 C -15.58 -20.70 -18.97
 C -17.21 -19.96 -17.15
 C -19.37 -18.80 -22.89
 C -22.50 -19.62 -21.62
