60
set: 62.00  0.00  0.00
 C -17.73 -19.26 -18.52
 C -15.19 -17.46 -21.50
 C -16.48 -16.70 -21.45
 C -20.40 -16.63 -18.09
 C -21.71 -19.18 -17.91
 C -20.06 -20.29 -15.23
 C -17.71 -19.04 -15.62
 C -20.14 -22.42 -16.82
 C -17.54 -17.21 -22.38
 C -22.42 -20.49 -19.94
 C -19.81 -20.35 -22.37
 C -21.23 -17.65 -21.89
 C -19.45 -16.19 -20.87
 C -15.24 -18.85 -22.12
 C -15.32 -20.65 -20.50
 C -14.51 -19.52 -20.96
 C -16.58 -16.48 -17.57
 C -19.01 -19.63 -18.47
 C -19.77 -17.69 -15.69
 C -21.34 -16.93 -19.29
 C -19.18 -22.73 -19.36
 C -16.82 -22.80 -18.73
 C -19.92 -17.78 -22.65
 C -16.15 -16.58 -18.92
 C -17.93 -16.71 -17.15
 C -20.88 -16.72 -20.69
 C -17.72 -22.63 -19.89
 C -21.30 -20.16 -22.34
 C -19.21 -21.37 -21.43
 C -22.01 -18.89 -22.06
 C -16.52 -20.87 -21.49
 C -16.52 -19.58 -22.41
 C -14.54 -18.15 -20.23
 C -20.03 -21.90 -20.25
 C -17.70 -21.69 -21.11
 C -21.59 -18.46 -16.55
 C -20.65 -18.96 -15.44
 C -16.97 -16.14 -20.11
 C -20.78 -17.20 -16.75
 C -17.66 -18.71 -22.79
 C -20.46 -21.57 -15.89
 C -18.34 -17.65 -15.97
 C -18.55 -20.15 -15.17
 C -16.88 -21.62 -16.83
 C -17.70 -22.78 -17.46
 C -16.01 -21.63 -18.12
 C -15.44 -17.96 -19.07
 C -20.44 -19.98 -18.52
 C -18.94 -16.31 -18.30
 C -18.46 -16.01 -19.73
 C -18.93 -16.74 -22.17
 C -22.25 -18.08 -18.99
 C -16.25 -19.16 -18.66
 C -22.84 -19.37 -18.98
 C -21.04 -20.96 -19.51
 C -19.18 -22.86 -17.84
 C -15.63 -20.56 -18.98
 C -17.33 -20.52 -15.92
 C -19.14 -19.06 -22.85
 C -22.43 -20.20 -21.39
