60
set: 74.00  0.00  0.00
 C -18.29 -20.29 -19.53
 C -15.08 -18.03 -22.64
 C -15.57 -16.98 -22.04
 C -19.47 -16.92 -18.91
 C -21.85 -19.97 -18.64
 C -19.98 -20.86 -16.25
 C -17.51 -19.90 -16.32
 C -19.94 -23.26 -17.43
 C -17.88 -17.92 -22.09
 C -22.35 -21.45 -20.49
 C -20.13 -20.88 -22.78
 C -21.46 -18.20 -23.25
 C -19.14 -16.71 -20.46
 C -15.23 -19.48 -22.70
 C -15.52 -21.49 -21.33
 C -14.61 -20.32 -21.58
 C -15.86 -18.17 -18.63
 C -19.46 -20.67 -19.13
 C -19.33 -18.35 -16.82
 C -23.66 -18.37 -21.74
 C -19.12 -23.55 -20.04
 C -16.78 -23.31 -19.52
 C -20.17 -18.28 -22.61
 C -14.78 -18.65 -19.38
 C -17.06 -17.64 -17.80
 C -22.93 -18.37 -22.98
 C -17.76 -23.23 -20.65
 C -21.71 -20.69 -22.95
 C -19.47 -22.02 -21.97
 C -22.14 -19.43 -23.69
 C -16.75 -21.44 -22.20
 C -16.63 -20.07 -22.89
 C -14.50 -19.94 -20.12
 C -20.15 -22.82 -20.80
 C -17.95 -22.26 -21.80
 C -21.22 -18.94 -17.75
 C -20.34 -19.46 -16.61
 C -16.79 -17.37 -21.08
 C -20.19 -17.72 -17.95
 C -17.89 -19.21 -22.86
 C -20.43 -21.99 -17.21
 C -17.83 -18.52 -16.83
 C -18.53 -20.91 -15.98
 C -16.79 -22.40 -17.53
 C -17.58 -23.57 -18.19
 C -16.00 -22.24 -18.86
 C -16.36 -18.58 -20.08
 C -20.79 -21.27 -18.71
 C -17.92 -16.79 -18.68
 C -17.69 -16.47 -20.13
 C -19.26 -17.42 -21.78
 C -23.36 -19.59 -21.08
 C -16.93 -19.99 -19.86
 C -22.81 -20.19 -19.73
 C -21.22 -22.14 -19.97
 C -19.01 -23.70 -18.50
 C -15.70 -21.06 -19.79
 C -17.25 -21.38 -16.58
 C -19.35 -19.58 -22.97
 C -22.62 -20.85 -21.81
