60
set: 57.00  0.00  0.00
 C -21.49 -20.20 -23.91
 C -22.51 -20.08 -23.09
 C -20.78 -21.56 -23.90
 C -21.65 -22.25 -22.81
 C -19.47 -22.24 -23.88
 C -19.65 -23.43 -22.83
 C -17.96 -21.98 -23.91
 C -17.35 -23.01 -22.85
 C -17.08 -20.83 -23.79
 C -15.96 -21.04 -22.83
 C -22.58 -21.31 -22.15
 C -22.91 -21.61 -20.72
 C -20.91 -23.32 -22.09
 C -20.96 -23.42 -20.62
 C -18.41 -23.72 -22.12
 C -18.38 -23.84 -20.62
 C -16.27 -22.39 -22.11
 C -16.03 -22.67 -20.66
 C -14.89 -20.44 -22.02
 C -14.45 -20.77 -20.82
 C -22.05 -22.64 -19.91
 C -22.08 -22.69 -18.39
 C -19.69 -23.80 -19.87
 C -19.68 -23.73 -18.38
 C -17.11 -23.42 -19.90
 C -17.11 -23.39 -18.41
 C -15.04 -21.80 -19.91
 C -14.97 -21.85 -18.41
 C -23.78 -20.90 -19.78
 C -23.89 -21.02 -18.49
 C -20.95 -23.36 -17.64
 C -20.94 -23.38 -16.14
 C -18.37 -23.73 -17.65
 C -18.36 -23.73 -16.16
 C -15.97 -22.72 -17.68
 C -15.98 -22.69 -16.19
 C -14.13 -20.96 -17.59
 C -14.06 -20.87 -16.18
 C -23.08 -21.85 -17.58
 C -23.03 -21.79 -16.10
 C -19.67 -23.79 -15.42
 C -19.63 -23.67 -13.93
 C -17.11 -23.31 -15.42
 C -17.18 -22.99 -13.97
 C -15.07 -21.80 -15.45
 C -15.29 -21.26 -14.02
 C -23.67 -20.81 -15.18
 C -23.27 -20.51 -13.96
 C -22.02 -22.66 -15.36
 C -21.80 -22.42 -13.91
 C -18.39 -23.27 -13.23
 C -18.66 -22.11 -12.19
 C -16.47 -21.77 -13.30
 C -17.47 -21.22 -12.32
 C -14.30 -20.11 -13.90
 C -13.66 -19.91 -15.04
 C -22.18 -21.09 -13.15
 C -21.12 -20.84 -12.16
 C -20.72 -23.03 -13.17
 C -20.15 -21.96 -12.12
