60
set: 63.00  0.00  0.00
 C -22.73 -24.20 -24.21
 C -23.49 -24.23 -23.12
 C -21.37 -23.62 -23.92
 C -21.68 -23.12 -22.43
 C -19.97 -23.90 -23.83
 C -19.33 -23.60 -22.52
 C -16.21 -23.86 -23.99
 C -16.71 -23.72 -22.56
 C -14.90 -23.87 -24.07
 C -14.23 -23.84 -22.70
 C -23.01 -23.53 -21.88
 C -23.12 -23.58 -20.38
 C -20.48 -23.30 -21.62
 C -20.52 -23.37 -20.18
 C -17.98 -23.59 -21.86
 C -17.94 -23.53 -20.31
 C -15.42 -23.74 -21.75
 C -15.36 -23.67 -20.30
 C -13.03 -23.85 -21.90
 C -12.96 -23.79 -20.59
 C -21.84 -23.45 -19.51
 C -21.84 -23.54 -18.02
 C -19.20 -23.47 -19.50
 C -19.21 -23.51 -18.02
 C -16.65 -23.58 -19.55
 C -16.63 -23.57 -18.05
 C -14.01 -23.70 -19.59
 C -13.99 -23.66 -18.09
 C -24.25 -23.79 -19.47
 C -24.25 -23.82 -18.18
 C -20.51 -23.53 -17.28
 C -20.48 -23.60 -15.78
 C -17.91 -23.55 -17.29
 C -17.92 -23.57 -15.80
 C -15.30 -23.61 -17.32
 C -15.30 -23.61 -15.82
 C -12.86 -23.68 -17.18
 C -12.90 -23.68 -15.87
 C -23.13 -23.71 -17.24
 C -23.11 -23.75 -15.75
 C -19.19 -23.60 -15.02
 C -19.15 -23.65 -13.48
 C -16.60 -23.60 -15.10
 C -16.59 -23.64 -13.65
 C -14.04 -23.66 -14.98
 C -14.03 -23.71 -13.44
 C -24.17 -23.86 -14.76
 C -24.10 -23.89 -13.44
 C -21.77 -23.67 -15.04
 C -21.71 -23.72 -13.58
 C -17.83 -23.66 -12.80
 C -17.28 -23.72 -11.40
 C -15.35 -23.69 -12.79
 C -15.97 -23.73 -11.41
 C -12.74 -23.78 -12.77
 C -11.54 -23.73 -12.23
 C -22.91 -23.83 -12.63
 C -22.25 -23.86 -11.25
 C -20.44 -23.70 -12.78
 C -20.95 -23.79 -11.35
