60
set: 48.00  0.00  0.00
 C -20.50 -18.59 -19.98
 C -19.52 -20.42 -18.52
 C -19.61 -19.69 -19.74
 C -19.87 -17.62 -20.92
 C -18.34 -21.19 -18.13
 C -21.27 -17.83 -19.09
 C -16.44 -18.60 -21.07
 C -16.45 -20.33 -19.59
 C -18.53 -19.46 -20.70
 C -17.17 -19.78 -20.66
 C -15.42 -18.32 -20.11
 C -15.43 -19.33 -19.15
 C -18.62 -18.10 -21.24
 C -20.28 -16.31 -20.57
 C -19.58 -15.12 -20.31
 C -18.29 -14.55 -20.17
 C -21.12 -16.46 -19.46
 C -19.93 -14.63 -18.96
 C -17.27 -17.51 -21.27
 C -15.43 -16.92 -19.92
 C -16.93 -14.99 -20.32
 C -16.57 -16.34 -20.64
 C -14.83 -16.31 -18.80
 C -16.02 -14.25 -19.46
 C -15.04 -14.92 -18.68
 C -18.74 -13.82 -18.94
 C -18.30 -21.29 -16.73
 C -20.87 -18.87 -16.84
 C -19.42 -20.66 -16.16
 C -20.21 -20.08 -17.21
 C -18.95 -19.88 -15.07
 C -20.52 -18.18 -15.62
 C -16.97 -20.94 -18.50
 C -15.43 -19.32 -17.71
 C -17.10 -20.65 -16.22
 C -17.52 -19.73 -15.21
 C -16.26 -20.43 -17.32
 C -15.28 -18.14 -16.93
 C -17.20 -18.34 -15.10
 C -21.27 -17.83 -17.70
 C -20.77 -15.62 -18.34
 C -20.36 -16.75 -15.86
 C -20.90 -16.50 -17.17
 C -18.17 -13.95 -15.84
 C -19.13 -16.37 -15.17
 C -17.99 -17.32 -18.50
 C -16.48 -13.23 -18.60
 C -16.09 -17.76 -15.79
 C -18.39 -15.22 -15.61
 C -17.71 -16.43 -17.67
 C -15.12 -14.52 -17.29
 C -16.12 -16.32 -15.88
 C -17.41 -15.93 -16.44
 C -14.75 -16.87 -17.48
 C -15.05 -15.75 -16.60
 C -17.43 -13.29 -16.75
 C -17.85 -13.14 -18.17
 C -16.02 -13.43 -17.24
 C -19.48 -18.63 -14.83
 C -18.47 -17.61 -14.75
