60
set: 17.00  0.00  0.00
 C -14.34 -17.42 -14.12
 C -13.05 -16.01 -19.07
 C -14.26 -15.53 -18.92
 C -17.80 -14.95 -15.99
 C -19.01 -17.64 -15.44
 C -16.56 -18.06 -13.68
 C -17.27 -16.15 -12.86
 C -17.31 -19.40 -15.54
 C -15.26 -16.15 -19.67
 C -19.91 -18.23 -17.40
 C -17.46 -17.77 -19.68
 C -18.60 -15.80 -19.16
 C -16.75 -14.81 -18.49
 C -12.80 -17.18 -19.73
 C -12.68 -18.77 -18.15
 C -12.15 -17.63 -18.56
 C -14.32 -15.35 -15.40
 C -13.73 -16.44 -14.80
 C -17.46 -15.08 -13.72
 C -18.58 -15.12 -17.06
 C -16.92 -19.73 -17.89
 C -14.32 -19.85 -17.15
 C -17.57 -16.42 -19.78
 C -13.80 -15.25 -16.64
 C -15.57 -14.89 -15.13
 C -18.06 -14.90 -18.28
 C -15.94 -19.39 -18.80
 C -18.50 -18.44 -19.08
 C -15.45 -17.26 -13.41
 C -19.57 -16.46 -18.55
 C -13.66 -19.07 -19.06
 C -13.86 -18.00 -19.88
 C -12.30 -16.41 -17.97
 C -18.17 -19.35 -18.12
 C -14.68 -19.67 -18.46
 C -18.48 -16.83 -14.54
 C -17.67 -17.24 -13.48
 C -14.60 -15.00 -17.69
 C -18.16 -15.47 -14.77
 C -15.12 -17.50 -19.95
 C -16.42 -19.02 -14.57
 C -16.09 -15.01 -13.90
 C -15.91 -16.06 -13.01
 C -15.15 -19.34 -15.03
 C -15.28 -19.94 -16.25
 C -13.17 -19.13 -16.91
 C -12.77 -16.17 -16.77
 C -18.51 -18.90 -15.81
 C -16.44 -14.68 -16.18
 C -15.92 -14.68 -17.45
 C -16.46 -15.67 -19.54
 C -19.59 -16.07 -17.21
 C -12.90 -17.03 -15.75
 C -19.76 -17.20 -16.51
 C -19.00 -19.14 -17.06
 C -16.57 -19.94 -16.60
 C -13.14 -18.38 -15.79
 C -14.11 -18.58 -14.81
 C -16.19 -18.30 -19.62
 C -19.63 -17.79 -18.65
