60
set: 65.00  0.00  0.00
 C -24.67 -24.32 -23.94
 C -23.50 -24.52 -23.38
 C -20.25 -24.51 -24.62
 C -20.91 -24.52 -23.28
 C -18.94 -24.49 -24.60
 C -18.43 -24.50 -23.19
 C -15.29 -24.48 -24.56
 C -15.83 -24.48 -23.15
 C -13.99 -24.47 -24.62
 C -13.36 -24.46 -23.23
 C -22.24 -24.52 -22.67
 C -22.27 -24.52 -21.13
 C -19.69 -24.51 -22.38
 C -19.72 -24.51 -20.94
 C -17.13 -24.49 -22.49
 C -17.14 -24.50 -20.95
 C -14.58 -24.47 -22.31
 C -14.56 -24.48 -20.86
 C -12.19 -24.46 -22.40
 C -12.16 -24.46 -21.09
 C -21.04 -24.52 -20.26
 C -21.08 -24.52 -18.77
 C -18.42 -24.51 -20.20
 C -18.47 -24.51 -18.72
 C -15.87 -24.49 -20.15
 C -15.89 -24.49 -18.66
 C -13.24 -24.47 -20.12
 C -13.26 -24.48 -18.63
 C -23.44 -24.52 -20.28
 C -23.51 -24.52 -18.98
 C -19.78 -24.51 -18.00
 C -19.79 -24.51 -16.52
 C -17.20 -24.50 -17.95
 C -17.25 -24.50 -16.46
 C -14.59 -24.49 -17.90
 C -14.63 -24.49 -16.41
 C -12.16 -24.48 -17.69
 C -12.23 -24.48 -16.39
 C -22.41 -24.51 -18.04
 C -22.43 -24.51 -16.55
 C -18.53 -24.50 -15.72
 C -18.54 -24.50 -14.18
 C -15.95 -24.50 -15.73
 C -15.98 -24.50 -14.29
 C -13.39 -24.49 -15.53
 C -13.42 -24.49 -14.00
 C -23.51 -24.51 -15.58
 C -23.47 -24.50 -14.27
 C -21.11 -24.51 -15.81
 C -21.09 -24.50 -14.36
 C -17.24 -24.50 -13.47
 C -16.73 -24.50 -12.07
 C -14.76 -24.49 -13.39
 C -15.41 -24.49 -12.04
 C -12.16 -24.48 -13.29
 C -11.00 -24.68 -12.73
 C -22.31 -24.50 -13.44
 C -21.68 -24.49 -12.05
 C -19.83 -24.50 -13.52
 C -20.38 -24.49 -12.11
