60
set: 25.00  0.00  0.00
 C -16.17 -19.15 -16.00
 C -14.92 -17.15 -20.63
 C -16.14 -16.36 -20.61
 C -20.32 -16.04 -17.73
 C -21.56 -19.21 -17.14
 C -18.63 -19.23 -15.30
 C -17.18 -16.99 -15.52
 C -19.76 -21.22 -16.81
 C -17.11 -16.77 -21.68
 C -22.15 -19.92 -19.35
 C -18.94 -20.04 -21.47
 C -20.68 -17.13 -21.28
 C -18.99 -15.61 -20.41
 C -14.83 -18.44 -21.41
 C -15.31 -20.40 -20.06
 C -14.43 -19.19 -20.20
 C -16.66 -16.10 -16.76
 C -17.06 -18.76 -18.16
 C -19.65 -16.86 -15.36
 C -21.04 -16.39 -19.00
 C -19.20 -22.06 -19.22
 C -16.83 -21.97 -18.75
 C -19.44 -17.44 -21.97
 C -15.98 -16.34 -18.02
 C -18.03 -15.47 -16.72
 C -20.39 -16.03 -20.27
 C -17.85 -21.82 -19.83
 C -20.29 -20.40 -20.88
 C -18.28 -18.71 -18.61
 C -21.61 -18.05 -20.67
 C -16.33 -20.32 -21.14
 C -16.06 -19.07 -21.94
 C -14.40 -17.84 -19.38
 C -20.35 -21.42 -19.76
 C -17.71 -20.85 -20.95
 C -20.99 -18.26 -16.26
 C -19.82 -18.35 -15.27
 C -16.68 -15.84 -19.28
 C -20.64 -16.76 -16.49
 C -17.19 -18.22 -22.17
 C -18.66 -20.61 -15.90
 C -18.41 -16.18 -15.44
 C -17.26 -18.45 -15.35
 C -17.37 -21.31 -16.29
 C -17.61 -22.15 -17.47
 C -15.61 -21.11 -18.79
 C -15.03 -17.56 -18.14
 C -21.01 -20.64 -17.34
 C -18.88 -15.45 -17.88
 C -18.14 -15.44 -19.20
 C -18.46 -16.33 -21.59
 C -21.91 -17.57 -19.25
 C -15.66 -18.80 -17.47
 C -22.21 -18.77 -18.43
 C -21.38 -20.99 -18.74
 C -19.06 -22.17 -17.74
 C -15.31 -20.40 -17.56
 C -16.10 -20.57 -16.29
 C -18.63 -18.70 -22.08
 C -21.51 -19.51 -20.65
