60
set:  1.00  0.00  0.00
 C -16.62 -13.40 -15.99
 C -16.65 -19.88 -15.99
 C -16.62 -13.40 -17.29
 C -16.65 -19.88 -17.29
 C -13.40 -16.00 -16.64
 C -19.87 -15.97 -16.64
 C -13.40 -17.30 -16.64
 C -19.88 -17.27 -16.64
 C -15.99 -16.64 -13.40
 C -17.29 -16.63 -13.40
 C -15.99 -16.64 -19.87
 C -17.29 -16.63 -19.88
 C -15.53 -13.82 -15.31
 C -17.72 -13.81 -15.31
 C -15.56 -19.46 -15.31
 C -15.53 -13.82 -17.96
 C -17.74 -19.45 -15.31
 C -17.72 -13.81 -17.96
 C -15.55 -19.46 -17.96
 C -17.74 -19.45 -17.96
 C -13.81 -15.32 -15.54
 C -19.45 -15.30 -15.54
 C -13.82 -17.97 -15.54
 C -13.81 -15.32 -17.73
 C -19.46 -17.95 -15.54
 C -19.45 -15.30 -17.73
 C -13.82 -17.97 -17.73
 C -19.46 -17.95 -17.73
 C -15.31 -15.55 -13.82
 C -17.96 -15.54 -13.82
 C -15.32 -17.73 -13.82
 C -15.31 -15.55 -19.46
 C -17.97 -17.72 -13.82
 C -17.96 -15.54 -19.46
 C -15.31 -17.74 -19.46
 C -17.97 -17.72 -19.46
 C -18.79 -19.05 -17.31
 C -14.50 -19.06 -17.31
 C -18.77 -14.21 -17.31
 C -18.79 -19.05 -15.96
 C -14.48 -14.23 -17.31
 C -14.50 -19.06 -15.96
 C -18.77 -14.21 -15.96
 C -14.48 -14.23 -15.96
 C -19.06 -17.30 -18.78
 C -14.22 -17.32 -18.78
 C -19.05 -15.95 -18.78
 C -19.06 -17.30 -14.49
 C -14.21 -15.97 -18.78
 C -14.22 -17.32 -14.49
 C -19.05 -15.95 -14.49
 C -14.22 -15.97 -14.49
 C -17.32 -18.78 -19.06
 C -15.97 -18.78 -19.06
 C -17.30 -14.49 -19.06
 C -17.32 -18.78 -14.22
 C -15.95 -14.49 -19.06
 C -15.97 -18.78 -14.22
 C -17.30 -14.49 -14.22
 C -15.95 -14.49 -14.22
