60
set: 10.00  0.00  0.00
 C -16.75 -12.72 -16.88
 C -16.97 -20.45 -16.82
 C -16.77 -13.03 -18.16
 C -16.98 -20.33 -18.15
 C -14.14 -16.15 -17.07
 C -20.45 -16.68 -16.99
 C -14.09 -17.47 -17.12
 C -20.43 -17.98 -17.23
 C -17.52 -15.57 -14.39
 C -16.22 -19.25 -15.14
 C -16.43 -16.74 -20.45
 C -17.75 -16.73 -20.31
 C -15.81 -13.25 -16.06
 C -18.01 -13.05 -16.39
 C -15.85 -20.11 -16.14
 C -15.77 -13.73 -18.73
 C -18.04 -19.98 -16.10
 C -17.98 -13.60 -18.52
 C -15.89 -19.78 -18.80
 C -18.11 -19.86 -18.78
 C -14.61 -15.32 -16.03
 C -19.41 -15.23 -15.75
 C -14.49 -18.36 -16.15
 C -14.29 -15.45 -18.23
 C -19.88 -18.63 -16.18
 C -19.98 -15.74 -17.85
 C -14.28 -18.13 -18.33
 C -19.95 -18.47 -18.39
 C -16.31 -14.88 -14.52
 C -18.47 -14.77 -14.89
 C -17.54 -19.12 -15.12
 C -15.72 -15.64 -20.05
 C -18.13 -17.91 -14.83
 C -18.40 -15.68 -19.71
 C -15.72 -17.87 -20.14
 C -18.40 -17.89 -20.00
 C -19.20 -19.58 -18.08
 C -14.83 -19.36 -18.09
 C -18.74 -13.69 -17.39
 C -19.15 -19.65 -16.69
 C -14.81 -14.22 -17.95
 C -14.82 -19.55 -16.76
 C -19.50 -14.71 -17.04
 C -14.88 -14.08 -16.58
 C -19.51 -17.57 -19.27
 C -14.64 -17.44 -19.40
 C -19.49 -16.19 -19.02
 C -19.38 -17.70 -15.32
 C -14.65 -16.08 -19.35
 C -15.90 -17.00 -14.78
 C -19.88 -16.47 -15.77
 C -15.37 -15.74 -15.01
 C -17.73 -19.01 -19.78
 C -16.36 -18.98 -19.81
 C -17.73 -14.54 -19.47
 C -17.25 -16.89 -14.51
 C -16.35 -14.55 -19.66
 C -15.38 -18.16 -15.16
 C -17.87 -13.58 -15.20
 C -16.49 -13.67 -14.97
