60
set: 70.00  0.00  0.00
 C -17.92 -19.99 -19.31
 C -15.08 -17.84 -23.01
 C -15.59 -16.78 -22.40
 C -19.39 -16.84 -19.01
 C -21.64 -19.80 -18.88
 C -19.93 -20.77 -16.17
 C -17.44 -19.76 -16.31
 C -20.08 -23.06 -17.59
 C -17.79 -17.91 -22.23
 C -22.35 -20.98 -20.96
 C -19.74 -20.98 -23.19
 C -21.57 -18.36 -23.03
 C -19.08 -16.70 -20.58
 C -15.11 -19.32 -22.93
 C -15.18 -21.12 -21.21
 C -14.38 -19.93 -21.67
 C -15.84 -18.31 -18.64
 C -19.13 -20.45 -19.22
 C -19.27 -18.21 -16.81
 C -23.34 -17.92 -21.42
 C -19.10 -23.37 -20.16
 C -16.73 -23.32 -19.52
 C -20.10 -18.36 -22.79
 C -14.42 -18.19 -19.30
 C -16.98 -17.52 -17.88
 C -22.54 -17.38 -22.40
 C -17.62 -23.21 -20.70
 C -21.22 -20.97 -23.40
 C -19.10 -21.99 -22.24
 C -22.09 -19.76 -23.46
 C -16.41 -21.32 -22.17
 C -16.45 -20.03 -23.03
 C -14.37 -18.89 -20.54
 C -19.97 -22.58 -21.09
 C -17.60 -22.22 -21.86
 C -21.13 -18.81 -17.80
 C -20.32 -19.35 -16.62
 C -16.66 -17.24 -21.26
 C -20.12 -17.60 -18.00
 C -17.73 -19.17 -23.09
 C -20.36 -22.08 -16.76
 C -17.79 -18.37 -16.84
 C -18.45 -20.77 -15.92
 C -16.77 -22.29 -17.55
 C -17.60 -23.42 -18.23
 C -15.92 -22.17 -18.87
 C -15.93 -18.37 -20.31
 C -20.58 -20.79 -19.33
 C -17.81 -16.70 -18.79
 C -17.61 -16.39 -20.28
 C -19.19 -17.46 -21.92
 C -23.47 -18.58 -20.21
 C -16.43 -19.66 -19.41
 C -22.73 -19.82 -19.92
 C -21.08 -21.66 -20.46
 C -19.08 -23.49 -18.62
 C -15.57 -21.02 -19.69
 C -17.18 -21.25 -16.57
 C -19.16 -19.56 -23.28
 C -22.38 -20.83 -22.43
