60
set: 46.00  0.00  0.00
 C -20.58 -18.62 -20.00
 C -19.61 -20.45 -18.52
 C -19.70 -19.74 -19.75
 C -19.95 -17.69 -20.95
 C -18.41 -21.22 -18.13
 C -21.32 -17.85 -19.09
 C -16.54 -18.65 -21.10
 C -16.51 -20.38 -19.62
 C -18.62 -19.56 -20.73
 C -17.24 -19.85 -20.68
 C -15.50 -18.36 -20.15
 C -15.46 -19.41 -19.20
 C -18.73 -18.21 -21.30
 C -20.28 -16.34 -20.59
 C -19.64 -15.13 -20.36
 C -18.40 -14.47 -20.26
 C -21.11 -16.49 -19.45
 C -20.02 -14.61 -18.99
 C -17.40 -17.61 -21.33
 C -15.48 -16.99 -19.94
 C -17.07 -14.93 -20.39
 C -16.88 -16.45 -20.42
 C -14.88 -16.31 -18.87
 C -16.13 -14.25 -19.54
 C -15.14 -14.93 -18.78
 C -18.88 -13.76 -19.02
 C -18.38 -21.33 -16.75
 C -20.97 -18.90 -16.84
 C -19.51 -20.70 -16.17
 C -20.30 -20.11 -17.22
 C -19.04 -19.93 -15.09
 C -20.62 -18.22 -15.64
 C -17.04 -20.97 -18.51
 C -15.47 -19.38 -17.76
 C -17.17 -20.69 -16.24
 C -17.59 -19.78 -15.24
 C -16.32 -20.48 -17.35
 C -15.33 -18.18 -17.02
 C -17.28 -18.40 -15.20
 C -21.36 -17.85 -17.71
 C -20.83 -15.62 -18.35
 C -20.45 -16.79 -15.90
 C -21.00 -16.51 -17.18
 C -18.27 -13.97 -15.96
 C -19.19 -16.41 -15.28
 C -17.60 -16.67 -19.12
 C -16.60 -13.22 -18.66
 C -16.19 -17.81 -15.91
 C -18.48 -15.25 -15.78
 C -17.74 -16.42 -17.91
 C -15.29 -14.54 -17.37
 C -16.29 -16.39 -15.95
 C -17.55 -16.04 -16.61
 C -14.82 -16.89 -17.53
 C -15.23 -15.80 -16.68
 C -17.53 -13.26 -16.82
 C -17.94 -13.10 -18.23
 C -16.13 -13.42 -17.29
 C -19.56 -18.66 -14.87
 C -18.54 -17.65 -14.85
