60
set: 24.00  0.00  0.00
 C -14.99 -18.00 -13.83
 C -13.74 -15.95 -19.23
 C -14.86 -15.23 -19.19
 C -18.72 -14.96 -16.43
 C -19.96 -17.85 -15.93
 C -17.37 -17.89 -14.33
 C -16.10 -16.05 -13.44
 C -18.31 -19.73 -15.58
 C -15.81 -15.62 -20.11
 C -20.45 -18.51 -17.97
 C -17.49 -18.59 -19.84
 C -19.08 -15.93 -19.68
 C -17.51 -14.57 -18.85
 C -13.69 -17.16 -19.91
 C -14.16 -18.80 -18.44
 C -13.27 -17.81 -18.74
 C -15.40 -15.36 -15.74
 C -15.31 -16.65 -15.41
 C -18.21 -15.68 -14.23
 C -19.40 -15.24 -17.59
 C -17.70 -20.43 -17.76
 C -15.54 -20.17 -17.25
 C -17.95 -16.21 -20.32
 C -14.67 -15.21 -16.87
 C -16.58 -14.76 -15.39
 C -18.81 -14.93 -18.74
 C -16.46 -20.14 -18.28
 C -18.73 -18.94 -19.32
 C -16.11 -17.21 -14.35
 C -19.94 -16.77 -19.13
 C -15.09 -18.80 -19.47
 C -14.83 -17.73 -20.30
 C -13.25 -16.60 -18.09
 C -18.78 -19.87 -18.28
 C -16.35 -19.29 -19.31
 C -19.47 -16.96 -15.11
 C -18.42 -17.05 -14.23
 C -15.35 -14.76 -17.95
 C -19.06 -15.59 -15.29
 C -15.88 -16.95 -20.53
 C -17.34 -19.16 -14.73
 C -16.97 -15.17 -14.15
 C -15.23 -16.95 -13.09
 C -16.07 -19.70 -15.01
 C -16.25 -20.41 -16.11
 C -14.50 -19.31 -17.21
 C -13.83 -16.32 -16.95
 C -19.44 -19.18 -16.10
 C -17.36 -14.55 -16.51
 C -16.71 -14.45 -17.75
 C -17.05 -15.20 -19.97
 C -20.23 -16.34 -17.84
 C -14.28 -17.26 -16.06
 C -20.52 -17.45 -17.12
 C -19.74 -19.50 -17.39
 C -17.59 -20.53 -16.42
 C -14.28 -18.64 -15.99
 C -14.89 -19.01 -14.81
 C -17.21 -17.37 -20.42
 C -19.86 -18.14 -19.14
