60
set: 76.00  0.00  0.00
 C -18.30 -20.47 -20.13
 C -14.70 -18.50 -23.51
 C -15.05 -17.51 -22.76
 C -18.93 -17.53 -19.57
 C -22.13 -19.47 -19.74
 C -19.41 -21.49 -16.55
 C -17.06 -20.42 -16.91
 C -19.68 -23.33 -18.35
 C -17.40 -18.34 -22.86
 C -21.96 -21.76 -21.03
 C -19.80 -21.18 -23.40
 C -20.98 -18.46 -23.87
 C -18.59 -17.27 -21.10
 C -14.90 -19.94 -23.54
 C -15.13 -21.88 -22.11
 C -14.31 -20.67 -22.38
 C -15.28 -18.70 -18.71
 C -19.29 -21.09 -19.49
 C -19.12 -19.10 -17.55
 C -24.09 -19.67 -23.02
 C -18.82 -23.95 -20.79
 C -16.52 -23.75 -20.29
 C -19.69 -18.64 -23.35
 C -14.43 -19.23 -19.56
 C -16.67 -18.28 -18.34
 C -23.33 -19.40 -24.06
 C -17.47 -23.67 -21.42
 C -21.36 -20.91 -23.46
 C -19.15 -22.36 -22.68
 C -21.86 -19.56 -24.13
 C -16.39 -21.90 -22.98
 C -16.29 -20.57 -23.75
 C -14.64 -20.18 -20.80
 C -19.82 -23.15 -21.54
 C -17.61 -22.66 -22.54
 C -21.14 -18.86 -19.16
 C -19.91 -20.19 -16.95
 C -16.25 -17.93 -21.81
 C -19.82 -18.32 -18.71
 C -17.48 -19.66 -23.65
 C -19.84 -22.83 -17.06
 C -17.56 -19.15 -17.48
 C -17.91 -21.49 -16.45
 C -16.40 -22.81 -18.33
 C -17.27 -23.93 -18.97
 C -15.65 -22.67 -19.69
 C -16.03 -19.38 -21.10
 C -20.13 -22.16 -19.33
 C -17.40 -17.45 -19.32
 C -17.11 -17.13 -20.75
 C -18.74 -17.84 -22.47
 C -23.46 -20.43 -21.96
 C -17.15 -20.06 -20.66
 C -22.77 -20.48 -20.60
 C -20.88 -22.53 -20.62
 C -18.73 -24.12 -19.25
 C -15.10 -21.72 -20.61
 C -16.75 -21.87 -17.30
 C -18.95 -19.97 -23.68
 C -22.30 -21.35 -22.44
