60
set: 16.00  0.00  0.00
 C -14.27 -17.38 -14.20
 C -12.99 -16.13 -19.11
 C -14.20 -15.64 -18.90
 C -18.34 -15.52 -15.71
 C -19.15 -17.72 -15.60
 C -16.57 -17.84 -13.94
 C -17.23 -15.83 -13.32
 C -17.33 -19.38 -15.65
 C -15.23 -16.26 -19.58
 C -19.99 -18.46 -17.54
 C -17.43 -17.87 -19.72
 C -18.58 -15.93 -19.07
 C -16.75 -15.03 -18.25
 C -12.78 -17.30 -19.78
 C -12.65 -18.88 -18.20
 C -12.09 -17.76 -18.62
 C -13.97 -15.30 -15.40
 C -13.50 -16.46 -14.83
 C -17.06 -14.65 -14.03
 C -18.86 -15.42 -16.94
 C -16.91 -19.84 -17.97
 C -14.31 -19.89 -17.18
 C -17.54 -16.52 -19.69
 C -13.57 -15.30 -16.69
 C -15.10 -14.69 -15.08
 C -18.10 -15.14 -18.07
 C -15.93 -19.48 -18.86
 C -18.47 -18.57 -19.17
 C -15.43 -17.14 -13.57
 C -19.63 -16.63 -18.64
 C -13.63 -19.18 -19.12
 C -13.84 -18.10 -19.93
 C -12.19 -16.54 -18.04
 C -18.16 -19.48 -18.22
 C -14.65 -19.76 -18.50
 C -18.49 -16.71 -15.01
 C -17.63 -16.91 -13.94
 C -14.47 -15.08 -17.68
 C -17.30 -14.68 -15.33
 C -15.09 -17.58 -19.96
 C -16.44 -18.90 -14.71
 C -15.68 -14.77 -13.87
 C -15.84 -15.92 -13.19
 C -15.17 -19.28 -15.11
 C -15.29 -19.95 -16.28
 C -13.15 -19.20 -16.95
 C -12.60 -16.27 -16.84
 C -18.55 -18.96 -15.92
 C -16.08 -14.53 -16.02
 C -15.79 -14.77 -17.33
 C -16.44 -15.81 -19.35
 C -19.82 -16.29 -17.30
 C -12.74 -17.11 -15.78
 C -19.98 -17.43 -16.62
 C -19.04 -19.29 -17.16
 C -16.57 -19.97 -16.66
 C -13.10 -18.43 -15.84
 C -14.10 -18.56 -14.88
 C -16.16 -18.40 -19.67
 C -19.64 -17.95 -18.76
