60
set: 33.00  0.00  0.00
 C -17.95 -19.56 -18.34
 C -15.19 -17.73 -20.67
 C -16.49 -17.04 -20.61
 C -20.72 -16.50 -17.76
 C -21.95 -19.72 -17.25
 C -19.12 -19.73 -15.41
 C -17.50 -17.63 -15.56
 C -20.09 -21.77 -17.00
 C -17.50 -17.51 -21.63
 C -22.59 -20.41 -19.53
 C -19.70 -20.25 -21.85
 C -21.14 -17.50 -21.47
 C -19.32 -16.10 -20.47
 C -14.99 -18.96 -21.55
 C -15.15 -21.04 -20.20
 C -14.40 -19.74 -20.32
 C -17.00 -16.73 -16.76
 C -18.32 -19.70 -19.58
 C -20.08 -17.33 -15.33
 C -21.43 -16.83 -19.06
 C -19.38 -22.50 -19.49
 C -16.88 -22.58 -18.87
 C -19.89 -17.76 -22.29
 C -16.31 -17.07 -18.01
 C -18.36 -16.00 -16.69
 C -20.76 -16.47 -20.37
 C -17.91 -22.51 -20.05
 C -20.88 -20.86 -21.21
 C -18.35 -20.21 -21.05
 C -22.09 -18.46 -20.86
 C -16.11 -21.06 -21.38
 C -16.13 -19.72 -22.13
 C -14.63 -18.47 -19.44
 C -20.64 -21.85 -20.02
 C -17.49 -21.55 -21.08
 C -21.44 -18.75 -16.29
 C -20.31 -18.85 -15.21
 C -17.02 -16.50 -19.27
 C -21.09 -17.21 -16.48
 C -17.59 -19.02 -22.14
 C -19.08 -21.09 -16.07
 C -18.77 -16.73 -15.41
 C -17.75 -19.05 -15.70
 C -17.69 -21.37 -16.64
 C -17.77 -22.46 -17.67
 C -15.59 -21.75 -18.90
 C -15.31 -18.28 -18.13
 C -21.37 -21.17 -17.51
 C -19.24 -15.94 -17.88
 C -18.47 -16.01 -19.22
 C -18.80 -16.86 -21.69
 C -22.34 -18.01 -19.35
 C -15.62 -19.60 -17.42
 C -22.63 -19.25 -18.55
 C -21.69 -21.46 -18.97
 C -19.26 -22.60 -17.99
 C -15.24 -20.96 -17.69
 C -17.17 -19.85 -16.96
 C -19.24 -19.07 -22.66
 C -22.11 -19.97 -20.89
