60
set: 52.00  0.00  0.00
 C -17.96 -19.14 -18.55
 C -15.44 -17.07 -21.00
 C -16.69 -16.28 -20.95
 C -20.89 -15.87 -17.96
 C -21.71 -19.02 -17.64
 C -19.38 -19.25 -15.41
 C -17.70 -17.30 -15.89
 C -20.06 -21.21 -17.03
 C -17.69 -16.68 -22.01
 C -22.25 -19.80 -19.93
 C -19.91 -19.83 -22.22
 C -21.36 -16.81 -21.66
 C -19.53 -15.42 -20.70
 C -15.37 -18.35 -21.83
 C -15.47 -20.28 -20.33
 C -14.70 -19.09 -20.66
 C -17.22 -16.34 -17.08
 C -19.24 -19.39 -18.51
 C -20.24 -16.74 -15.50
 C -21.62 -16.17 -19.28
 C -19.31 -22.36 -19.33
 C -17.02 -22.57 -18.66
 C -20.08 -17.15 -22.39
 C -16.56 -16.49 -18.37
 C -18.51 -15.54 -16.93
 C -21.00 -15.77 -20.57
 C -17.88 -22.35 -19.88
 C -21.39 -19.72 -22.35
 C -19.31 -20.94 -21.36
 C -22.42 -17.71 -21.13
 C -16.65 -20.43 -21.36
 C -16.64 -19.09 -22.18
 C -14.88 -17.83 -19.76
 C -20.17 -21.54 -20.22
 C -17.83 -21.32 -21.04
 C -21.54 -18.13 -16.49
 C -20.52 -18.23 -15.34
 C -17.21 -15.81 -19.59
 C -21.23 -16.57 -16.68
 C -17.79 -18.17 -22.47
 C -19.70 -20.60 -15.82
 C -18.89 -16.28 -15.66
 C -17.90 -18.77 -15.81
 C -16.93 -21.24 -16.84
 C -17.87 -22.44 -17.37
 C -16.05 -21.54 -18.09
 C -15.70 -17.75 -18.56
 C -20.63 -20.12 -18.08
 C -19.40 -15.34 -18.11
 C -18.68 -15.33 -19.47
 C -19.04 -16.11 -21.95
 C -22.52 -17.38 -19.61
 C -16.40 -19.13 -18.07
 C -22.43 -18.67 -18.89
 C -21.21 -20.70 -19.49
 C -19.30 -22.31 -17.77
 C -15.70 -20.39 -18.83
 C -16.98 -19.77 -16.59
 C -19.27 -18.48 -22.56
 C -22.29 -19.21 -21.36
