60
set: 67.00  0.00  0.00
 C -18.02 -19.36 -18.63
 C -15.27 -17.72 -21.80
 C -16.58 -17.01 -21.64
 C -20.40 -16.88 -18.08
 C -21.93 -19.36 -17.89
 C -20.23 -20.49 -15.22
 C -17.87 -19.22 -15.53
 C -20.26 -22.61 -16.85
 C -17.68 -17.44 -22.56
 C -22.57 -20.66 -19.98
 C -19.94 -20.55 -22.48
 C -21.28 -17.83 -21.91
 C -19.41 -16.48 -20.85
 C -15.29 -19.13 -22.40
 C -15.47 -20.72 -20.55
 C -14.62 -19.66 -21.08
 C -16.55 -16.80 -17.25
 C -19.27 -19.81 -18.47
 C -19.92 -17.88 -15.66
 C -21.33 -17.19 -19.30
 C -19.26 -22.85 -19.37
 C -16.89 -22.83 -18.77
 C -20.02 -17.96 -22.68
 C -15.51 -16.99 -18.02
 C -17.99 -16.91 -17.03
 C -20.88 -16.94 -20.67
 C -17.80 -22.71 -19.93
 C -21.41 -20.34 -22.44
 C -19.34 -21.54 -21.48
 C -22.11 -19.05 -22.11
 C -16.64 -21.01 -21.59
 C -16.59 -19.82 -22.62
 C -14.74 -18.22 -20.49
 C -20.14 -22.05 -20.27
 C -17.82 -21.83 -21.18
 C -21.78 -18.64 -16.53
 C -20.83 -19.15 -15.45
 C -16.94 -16.83 -20.18
 C -20.86 -17.40 -16.76
 C -17.78 -18.94 -23.01
 C -20.60 -21.78 -15.91
 C -18.47 -17.85 -15.90
 C -18.74 -20.34 -15.13
 C -17.03 -21.67 -16.87
 C -17.77 -22.88 -17.49
 C -16.18 -21.59 -18.17
 C -15.83 -17.76 -19.36
 C -20.67 -20.20 -18.49
 C -18.91 -16.60 -18.24
 C -18.36 -16.48 -19.71
 C -19.01 -16.94 -22.23
 C -22.35 -18.25 -18.99
 C -16.61 -19.16 -18.93
 C -23.01 -19.52 -19.05
 C -21.22 -21.18 -19.53
 C -19.25 -23.01 -17.86
 C -15.85 -20.51 -19.06
 C -17.50 -20.65 -15.88
 C -19.24 -19.28 -23.00
 C -22.50 -20.32 -21.42
