35
#
 C  0.75  0.52  2.80
 C  0.44 -0.94  2.54
 O  1.30 -1.82  2.61
 H  0.18  0.89  3.66
 H  1.82  0.61  3.01
 H  0.49  1.15  1.93
 N -0.86 -1.25  2.23
 C -1.89 -0.34  1.77
 C -2.55  0.43  2.94
 O -3.01 -0.13  3.93
 H -1.01 -2.25  2.13
 H -1.44  0.38  1.07
 C -3.01 -1.11  1.04
 C -2.60 -2.02 -0.13
 C -1.83 -1.37 -1.30
 N -0.40 -1.25 -1.10
 C  0.30 -0.11 -0.79
 N  1.62 -0.36 -0.45
 N -0.13  1.12 -0.79
 H -3.73 -0.37  0.68
 H -3.55 -1.72  1.79
 H -3.52 -2.46 -0.54
 H -2.01 -2.88  0.23
 H -2.24 -0.37 -1.51
 H -2.01 -1.96 -2.21
 H  0.15 -2.10 -1.17
 H  2.11  0.49 -0.19
 H  1.78 -1.11  0.23
 H -1.05  1.19 -1.23
 N -2.59  1.78  2.73
 C -3.18  2.70  3.69
 H -2.10  2.15  1.93
 H -3.66  2.11  4.47
 H -3.93  3.35  3.20
 H -2.41  3.34  4.15
