35
#
 C  0.87 -1.34  0.00
 C -0.03 -0.44  0.83
 O -0.50  0.61  0.39
 H  0.34 -1.63 -0.91
 H  1.20 -2.24  0.53
 H  1.75 -0.76 -0.31
 N -0.29 -0.88  2.10
 C -1.02 -0.09  3.06
 C -0.66 -0.66  4.45
 O  0.14 -1.60  4.56
 H  0.24 -1.65  2.51
 H -0.66  0.95  3.01
 C -2.54 -0.07  2.80
 C -3.23 -1.42  2.99
 C -4.75 -1.31  3.20
 N -5.15 -0.42  4.29
 C -4.80 -0.67  5.61
 N -4.85  0.49  6.41
 N -4.43 -1.77  6.15
 H -2.70  0.32  1.78
 H -2.98  0.68  3.48
 H -2.79 -1.94  3.86
 H -3.04 -2.07  2.13
 H -5.17 -2.31  3.38
 H -5.23 -0.93  2.29
 H -5.17  0.56  4.04
 H -5.63  1.11  6.22
 H -4.81  0.24  7.39
 H -4.33 -2.52  5.47
 N -1.28 -0.08  5.51
 C -1.17 -0.59  6.87
 H -2.01  0.60  5.32
 H -0.32 -1.28  6.90
 H -2.08 -1.13  7.15
 H -1.00  0.24  7.57
