35
#
 C -0.33  0.56 -0.26
 C -0.08  1.02  1.16
 O  1.02  1.46  1.51
 H  0.53  0.88 -0.86
 H -1.24  0.99 -0.69
 H -0.41 -0.53 -0.30
 N -1.08  0.91  2.09
 C -2.48  0.50  2.05
 C -2.73 -0.65  1.05
 O -2.15 -1.73  1.18
 H -0.75  1.22  3.00
 H -2.66 -0.01  3.01
 C -3.45  1.71  2.04
 C -3.42  2.65  0.82
 C -3.19  4.13  1.18
 N -1.92  4.33  1.85
 C -0.74  4.29  1.11
 N  0.39  4.56  1.89
 N -0.78  4.03 -0.15
 H -3.20  2.29  2.93
 H -4.47  1.33  2.22
 H -4.36  2.59  0.25
 H -2.62  2.38  0.12
 H -3.98  4.47  1.87
 H -3.25  4.73  0.26
 H -1.91  4.99  2.62
 H  1.25  4.25  1.43
 H  0.34  4.15  2.82
 H  0.17  3.93 -0.53
 N -3.66 -0.43  0.08
 C -3.99 -1.42 -0.92
 H -4.02  0.51 -0.03
 H -5.07 -1.46 -1.09
 H -3.64 -2.39 -0.56
 H -3.49 -1.21 -1.88
