35
#
 C  0.58 -0.36  0.15
 C  0.15 -0.37  1.61
 O  0.83 -0.89  2.49
 H  1.56  0.12  0.08
 H -0.13  0.16 -0.51
 H  0.70 -1.40 -0.19
 N -1.04  0.27  1.87
 C -1.67  0.21  3.17
 C -3.16 -0.11  2.94
 O -3.74  0.25  1.92
 H -1.66  0.53  1.11
 H -1.17 -0.60  3.73
 C -1.54  1.53  3.96
 C -0.09  1.91  4.27
 C  0.01  3.23  5.03
 N  1.41  3.55  5.30
 C  1.80  4.75  5.88
 N  0.91  5.24  6.85
 N  2.89  5.31  5.48
 H -2.10  1.43  4.90
 H -2.03  2.33  3.38
 H  0.47  2.00  3.32
 H  0.40  1.11  4.84
 H -0.54  3.13  5.99
 H -0.49  4.03  4.47
 H  2.04  3.33  4.54
 H  1.30  5.98  7.42
 H  0.44  4.53  7.40
 H  3.14  6.12  6.06
 N -3.77 -0.77  3.97
 C -5.18 -1.09  3.97
 H -3.20 -1.07  4.75
 H -5.61 -0.69  3.04
 H -5.69 -0.64  4.83
 H -5.34 -2.18  3.99
