35
#
 C  0.09 -0.90  1.74
 C  0.36  0.51  2.22
 O  1.41  0.82  2.79
 H -0.58 -1.42  2.45
 H  1.04 -1.44  1.72
 H -0.38 -0.94  0.75
 N -0.61  1.45  1.98
 C -1.91  1.29  1.37
 C -2.41  2.71  1.02
 O -1.97  3.72  1.58
 H -0.40  2.40  2.29
 H -1.81  0.74  0.42
 C -2.96  0.53  2.24
 C -2.87  0.68  3.76
 C -3.03  2.11  4.34
 N -3.99  2.99  3.70
 C -5.35  2.78  3.66
 N -6.02  3.74  2.88
 N -6.03  1.84  4.22
 H -2.87 -0.54  2.01
 H -3.97  0.82  1.90
 H -1.91  0.30  4.12
 H -3.64  0.02  4.18
 H -2.07  2.63  4.29
 H -3.28  2.02  5.41
 H -3.59  3.64  3.03
 H -7.02  3.64  3.02
 H -5.72  4.69  3.06
 H -5.43  1.15  4.67
 N -3.37  2.75  0.07
 C -4.09  3.97 -0.27
 H -3.72  1.87 -0.30
 H -4.35  3.96 -1.33
 H -3.44  4.82 -0.06
 H -5.01  4.07  0.34
