35
#
 C -0.17  1.22  0.05
 C -0.45  0.50  1.36
 O  0.32  0.54  2.31
 H  0.78  0.86 -0.35
 H -0.06  2.29  0.26
 H -0.96  1.09 -0.70
 N -1.63 -0.20  1.40
 C -2.00 -1.02  2.53
 C -2.98 -2.08  1.99
 O -3.50 -1.94  0.87
 H -2.21 -0.33  0.57
 H -1.09 -1.50  2.91
 C -2.62 -0.20  3.68
 C -3.95  0.47  3.34
 C -4.62  1.12  4.57
 N -4.96  0.18  5.64
 C -5.79 -0.91  5.43
 N -6.93 -0.62  4.68
 N -5.46 -2.07  5.90
 H -1.87  0.55  3.98
 H -2.75 -0.87  4.55
 H -4.65 -0.25  2.91
 H -3.79  1.25  2.58
 H -5.53  1.65  4.25
 H -3.97  1.88  5.01
 H -4.16 -0.13  6.19
 H -7.33  0.31  4.81
 H -7.63 -1.35  4.66
 H -6.22 -2.74  5.83
 N -3.27 -3.14  2.77
 C -2.79 -3.48  4.10
 H -3.99 -3.74  2.37
 H -2.73 -4.57  4.19
 H -3.45 -3.09  4.89
 H -1.77 -3.09  4.25
