35
#
 C  0.68 -2.11  0.88
 C  0.65 -0.71  1.43
 O  1.61  0.05  1.37
 H  0.36 -2.85  1.63
 H  1.70 -2.33  0.56
 H  0.00 -2.21  0.02
 N -0.54 -0.27  2.00
 C -1.72 -1.07  2.31
 C -2.53 -1.55  1.08
 O -3.24 -2.55  1.19
 H -0.42  0.61  2.48
 H -1.43 -1.99  2.83
 C -2.67 -0.30  3.26
 C -3.54  0.81  2.63
 C -2.80  2.11  2.26
 N -3.52  2.93  1.27
 C -3.41  2.67 -0.10
 N -2.11  2.32 -0.52
 N -4.34  2.74 -0.98
 H -2.08  0.10  4.10
 H -3.35 -1.05  3.69
 H -4.35  1.05  3.33
 H -4.02  0.41  1.72
 H -1.82  1.89  1.83
 H -2.63  2.72  3.16
 H -4.47  3.15  1.54
 H -2.07  2.34 -1.53
 H -1.37  2.87 -0.10
 H -5.26  2.87 -0.55
 N -2.42 -0.80 -0.04
 C -3.23 -1.04 -1.22
 H -1.89  0.07  0.00
 H -2.60 -1.34 -2.08
 H -3.78 -0.13 -1.50
 H -3.93 -1.85 -1.00
