35
#
 C -1.08  1.59  0.23
 C -0.65  1.17  1.61
 O  0.40  1.55  2.14
 H -0.35  2.30 -0.16
 H -2.08  2.06  0.25
 H -1.13  0.71 -0.43
 N -1.49  0.33  2.31
 C -2.50 -0.56  1.74
 C -3.82  0.11  1.28
 O -4.40 -0.36  0.30
 H -1.11  0.07  3.21
 H -2.11 -1.01  0.82
 C -2.86 -1.68  2.74
 C -1.70 -2.47  3.36
 C -0.95 -3.48  2.47
 N -0.37 -3.00  1.22
 C  0.52 -1.94  1.08
 N  1.37 -1.69  2.15
 N  0.52 -1.31 -0.05
 H -3.54 -2.37  2.21
 H -3.45 -1.24  3.56
 H -2.10 -3.05  4.21
 H -0.97 -1.78  3.82
 H -1.64 -4.28  2.18
 H -0.18 -3.97  3.08
 H -0.92 -3.12  0.38
 H  1.19 -2.17  3.02
 H  1.62 -0.72  2.27
 H  1.29 -0.64 -0.09
 N -4.34  1.17  1.97
 C -3.88  1.83  3.18
 H -5.21  1.49  1.56
 H -3.60  1.12  3.96
 H -4.72  2.43  3.57
 H -3.03  2.50  3.00
