35
#
 C -0.14  0.94 -1.66
 C -0.04  0.55 -0.20
 O  1.00  0.73  0.46
 H  0.70  0.49 -2.20
 H -0.03  2.03 -1.73
 H -1.08  0.63 -2.12
 N -1.15 -0.02  0.33
 C -1.29 -0.35  1.75
 C -0.64 -1.73  2.11
 O -1.29 -2.66  2.58
 H -1.95 -0.18 -0.30
 H -0.70  0.41  2.30
 C -2.75 -0.28  2.20
 C -3.72 -1.23  1.47
 C -5.04 -0.57  1.03
 N -4.87  0.69  0.30
 C -4.15  0.82 -0.86
 N -3.97  2.15 -1.25
 N -3.64 -0.13 -1.59
 H -3.07  0.77  2.05
 H -2.77 -0.47  3.28
 H -3.97 -2.07  2.12
 H -3.23 -1.69  0.61
 H -5.64 -0.32  1.91
 H -5.63 -1.29  0.44
 H -5.44  1.48  0.58
 H -3.38  2.22 -2.07
 H -3.70  2.79 -0.51
 H -4.01 -1.04 -1.32
 N  0.70 -1.76  1.87
 C  1.50 -2.94  2.09
 H  1.11 -0.91  1.47
 H  1.92 -3.32  1.15
 H  0.87 -3.71  2.53
 H  2.33 -2.72  2.78
