35
#
 C -0.08  0.11  0.09
 C -0.21  0.28  1.59
 O  0.74  0.13  2.36
 H  0.77  0.72 -0.26
 H -0.98  0.39 -0.47
 H  0.16 -0.94 -0.11
 N -1.46  0.61  2.04
 C -1.84  0.75  3.45
 C -0.77  1.44  4.33
 O -0.42  0.96  5.40
 H -2.20  0.69  1.36
 H -2.70  1.44  3.45
 C -2.33 -0.56  4.10
 C -1.35 -1.75  4.14
 C -1.44 -2.68  2.92
 N -0.58 -3.84  3.00
 C  0.68 -4.00  2.45
 N  1.18 -2.88  1.79
 N  1.38 -5.08  2.45
 H -3.26 -0.86  3.58
 H -2.63 -0.30  5.13
 H -1.58 -2.35  5.04
 H -0.33 -1.38  4.27
 H -1.20 -2.15  1.99
 H -2.48 -3.02  2.81
 H -0.88 -4.61  3.59
 H  2.13 -3.06  1.49
 H  1.10 -1.97  2.26
 H  0.85 -5.87  2.84
 N -0.32  2.67  3.94
 C -0.59  3.42  2.72
 H  0.41  3.03  4.55
 H -0.38  4.48  2.91
 H -1.64  3.34  2.43
 H  0.03  3.09  1.87
