35
#
 C  0.12  0.66 -0.01
 C  0.15  0.69  1.51
 O  1.20  0.77  2.14
 H  0.75  1.46 -0.40
 H -0.89  0.76 -0.43
 H  0.55 -0.29 -0.35
 N -1.07  0.60  2.11
 C -1.22  0.70  3.56
 C -0.55 -0.40  4.41
 O -0.13 -0.11  5.53
 H -1.92  0.58  1.54
 H -0.71  1.62  3.91
 C -2.71  0.76  3.92
 C -3.44  1.94  3.25
 C -4.92  1.67  2.91
 N -5.23  0.37  2.32
 C -4.70 -0.13  1.15
 N -5.31 -1.33  0.76
 N -3.71  0.45  0.55
 H -2.80  0.80  5.01
 H -3.18 -0.19  3.60
 H -2.93  2.22  2.33
 H -3.41  2.82  3.91
 H -5.27  2.46  2.23
 H -5.54  1.73  3.81
 H -5.71 -0.30  2.90
 H -4.98 -1.69 -0.13
 H -6.32 -1.36  0.85
 H -3.55  0.03 -0.37
 N -0.51 -1.70  3.97
 C -0.94 -2.29  2.71
 H -0.02 -2.30  4.62
 H -1.92 -1.93  2.40
 H -1.01 -3.37  2.86
 H -0.23 -2.10  1.89
