35
#
 C -2.18  2.63  2.28
 C -2.11  1.36  3.09
 O -1.90  1.39  4.31
 H -1.36  3.28  2.64
 H -3.12  3.15  2.52
 H -2.07  2.47  1.21
 N -2.31  0.14  2.49
 C -2.99 -0.23  1.25
 C -2.08 -0.08  0.01
 O -1.23  0.79 -0.11
 H -2.19 -0.61  3.17
 H -3.19 -1.31  1.36
 C -4.35  0.47  1.04
 C -5.54 -0.14  1.80
 C -5.45 -0.20  3.34
 N -5.05  1.01  4.02
 C -5.80  2.18  4.03
 N -5.07  3.29  4.45
 N -7.03  2.34  3.66
 H -4.59  0.44 -0.03
 H -4.26  1.53  1.29
 H -5.72 -1.17  1.45
 H -6.43  0.44  1.52
 H -4.73 -0.98  3.65
 H -6.43 -0.54  3.73
 H -4.08  1.08  4.31
 H -5.67  4.06  4.72
 H -4.32  3.11  5.11
 H -7.44  1.47  3.32
 N -2.34 -1.01 -0.97
 C -1.67 -0.99 -2.26
 H -3.04 -1.71 -0.79
 H -2.39 -0.80 -3.07
 H -1.16 -1.94 -2.45
 H -0.93 -0.19 -2.24
