35
#
 C  0.25  1.22  0.69
 C -0.17 -0.01  1.47
 O  0.63 -0.88  1.82
 H  1.31  1.42  0.88
 H -0.34  2.11  0.93
 H  0.13  1.01 -0.39
 N -1.51 -0.07  1.75
 C -2.20 -1.21  2.37
 C -1.51 -1.72  3.66
 O -1.55 -2.90  3.97
 H -2.10  0.62  1.31
 H -3.15 -0.78  2.74
 C -2.61 -2.35  1.43
 C -1.53 -3.21  0.76
 C -0.93 -2.66 -0.55
 N -1.96 -2.34 -1.55
 C -2.18 -1.07 -2.04
 N -1.01 -0.33 -2.27
 N -3.40 -0.67 -2.24
 H -3.28 -1.92  0.67
 H -3.24 -3.02  2.04
 H -1.97 -4.19  0.54
 H -0.70 -3.40  1.46
 H -0.24 -3.42 -0.95
 H -0.33 -1.77 -0.36
 H -2.84 -2.83 -1.44
 H -0.22 -0.87 -2.60
 H -1.17  0.50 -2.84
 H -3.42  0.21 -2.77
 N -0.99 -0.74  4.46
 C -0.22 -1.07  5.65
 H -0.87  0.17  4.04
 H -0.34 -0.28  6.40
 H  0.85 -1.19  5.42
 H -0.60 -2.01  6.05
