35
#
 C -0.43 -0.17 -0.36
 C  0.09 -0.45  1.04
 O  1.20 -0.93  1.23
 H  0.29  0.48 -0.87
 H -1.42  0.30 -0.39
 H -0.47 -1.11 -0.92
 N -0.79 -0.10  2.05
 C -0.66 -0.42  3.47
 C -1.63  0.44  4.32
 O -1.94  0.08  5.45
 H -1.74  0.06  1.73
 H -0.97 -1.46  3.65
 C  0.76 -0.25  4.05
 C  1.37  1.16  3.94
 C  1.97  1.66  5.27
 N  1.00  1.72  6.35
 C  0.11  2.75  6.50
 N -0.94  2.42  7.38
 N  0.31  3.88  5.91
 H  1.42 -0.99  3.58
 H  0.66 -0.54  5.10
 H  0.62  1.90  3.63
 H  2.15  1.17  3.16
 H  2.38  2.67  5.14
 H  2.79  1.00  5.59
 H  0.78  0.86  6.85
 H -1.62  3.16  7.47
 H -1.39  1.53  7.15
 H -0.45  4.54  6.12
 N -2.08  1.58  3.73
 C -2.91  2.55  4.42
 H -1.61  1.87  2.88
 H -3.70  2.92  3.75
 H -2.31  3.40  4.77
 H -3.37  2.05  5.28
