35
#
 C -0.29  1.49  0.97
 C -0.33  0.04  1.42
 O  0.64 -0.72  1.31
 H -0.74  1.58 -0.03
 H  0.76  1.79  0.90
 H -0.84  2.16  1.64
 N -1.50 -0.42  1.96
 C -2.85  0.11  1.71
 C -3.40  1.03  2.81
 O -3.98  2.07  2.49
 H -1.47 -1.42  2.12
 H -2.82  0.77  0.83
 C -3.80 -1.07  1.41
 C -3.73 -1.65 -0.01
 C -2.35 -2.07 -0.55
 N -1.53 -2.88  0.35
 C -1.78 -4.23  0.53
 N -0.83 -4.86  1.34
 N -2.85 -4.77  0.04
 H -4.83 -0.72  1.58
 H -3.62 -1.87  2.14
 H -4.13 -0.92 -0.72
 H -4.39 -2.53 -0.05
 H -1.74 -1.19 -0.79
 H -2.51 -2.62 -1.49
 H -0.58 -2.56  0.49
 H -0.79 -5.87  1.22
 H  0.10 -4.44  1.37
 H -2.92 -5.75  0.30
 N -3.27  0.68  4.13
 C -2.66 -0.49  4.73
 H -3.67  1.38  4.75
 H -2.96 -0.52  5.79
 H -1.56 -0.47  4.69
 H -3.01 -1.42  4.27
