35
#
 C  0.01 -0.94  0.28
 C  0.17 -0.58  1.75
 O  1.28 -0.47  2.27
 H  0.52 -1.89  0.09
 H  0.50 -0.17 -0.32
 H -1.04 -1.03 -0.04
 N -0.99 -0.39  2.44
 C -1.07  0.02  3.84
 C -1.81 -1.09  4.62
 O -3.01 -1.00  4.89
 H -1.87 -0.50  1.94
 H -0.03  0.12  4.18
 C -1.78  1.38  3.94
 C -2.08  1.94  5.33
 C -0.90  2.11  6.30
 N -0.51  0.89  7.00
 C  0.71  0.28  6.83
 N  0.86 -0.86  7.64
 N  1.56  0.73  5.96
 H -2.74  1.31  3.40
 H -1.15  2.09  3.38
 H -2.86  1.33  5.81
 H -2.52  2.94  5.19
 H -1.17  2.87  7.06
 H -0.00  2.46  5.78
 H -1.26  0.31  7.37
 H  1.82 -1.20  7.66
 H  0.49 -0.75  8.58
 H  2.45  0.24  6.01
 N -1.09 -2.19  4.99
 C  0.28 -2.55  4.67
 H -1.66 -2.88  5.46
 H  0.78 -2.92  5.57
 H  0.84 -1.68  4.31
 H  0.32 -3.32  3.89
