35
#
 C -0.51 -2.93 -1.20
 C -0.49 -2.41  0.22
 O  0.55 -2.00  0.75
 H -1.49 -3.30 -1.53
 H  0.23 -3.73 -1.30
 H -0.20 -2.11 -1.87
 N -1.68 -2.43  0.88
 C -1.91 -1.85  2.20
 C -1.43 -2.77  3.36
 O -2.16 -3.11  4.30
 H -2.49 -2.82  0.40
 H -1.27 -0.96  2.25
 C -3.37 -1.38  2.33
 C -4.48 -2.42  2.07
 C -5.18 -2.96  3.33
 N -5.73 -1.90  4.16
 C -5.57 -1.77  5.54
 N -4.49 -2.44  6.07
 N -6.33 -1.07  6.32
 H -3.49 -0.55  1.63
 H -3.51 -0.96  3.33
 H -4.11 -3.30  1.51
 H -5.25 -1.96  1.42
 H -4.48 -3.54  3.93
 H -5.98 -3.66  3.02
 H -6.60 -1.48  3.83
 H -3.65 -2.57  5.50
 H -4.32 -2.18  7.03
 H -7.15 -0.72  5.81
 N -0.14 -3.12  3.27
 C  0.50 -3.95  4.28
 H  0.41 -2.74  2.49
 H  1.51 -4.21  3.93
 H -0.07 -4.87  4.44
 H  0.58 -3.43  5.24
