35
#
 C -0.52  0.67 -0.46
 C  0.21  0.18  0.77
 O  1.30 -0.39  0.68
 H -1.35 -0.02 -0.71
 H  0.19  0.67 -1.30
 H -0.96  1.66 -0.35
 N -0.37  0.35  2.00
 C -1.51  1.19  2.37
 C -2.78  0.92  1.53
 O -3.38  1.82  0.94
 H  0.23  0.10  2.80
 H -1.76  0.87  3.39
 C -1.20  2.70  2.46
 C -0.27  3.05  3.63
 C  1.23  2.77  3.39
 N  1.94  2.44  4.63
 C  1.88  1.16  5.14
 N  2.74  0.97  6.22
 N  1.10  0.27  4.62
 H -2.16  3.23  2.57
 H -0.78  3.05  1.50
 H -0.59  2.49  4.52
 H -0.40  4.12  3.89
 H  1.71  3.67  2.97
 H  1.36  1.97  2.66
 H  2.81  2.92  4.78
 H  2.60  0.11  6.73
 H  2.84  1.77  6.85
 H  1.12 -0.60  5.16
 N -3.23 -0.37  1.50
 C -2.69 -1.55  2.15
 H -4.06 -0.48  0.92
 H -3.49 -2.29  2.23
 H -2.35 -1.32  3.17
 H -1.85 -1.99  1.60
