35
#
 C -1.38  0.27 -0.05
 C -1.18 -0.24  1.36
 O -0.63 -1.32  1.60
 H -0.43  0.23 -0.59
 H -1.78  1.30 -0.09
 H -2.08 -0.40 -0.57
 N -1.65  0.59  2.34
 C -1.51  0.26  3.75
 C -2.51 -0.78  4.32
 O -2.15 -1.49  5.26
 H -2.10  1.48  2.08
 H -0.55 -0.25  3.88
 C -1.55  1.51  4.64
 C -0.36  2.47  4.46
 C -0.40  3.44  3.27
 N -1.51  4.38  3.30
 C -2.66  4.24  2.58
 N -3.57  5.29  2.79
 N -2.87  3.21  1.82
 H -1.55  1.15  5.68
 H -2.50  2.05  4.50
 H  0.57  1.89  4.39
 H -0.26  3.07  5.38
 H -0.47  2.90  2.32
 H  0.53  4.01  3.25
 H -1.56  5.01  4.10
 H -4.38  5.27  2.18
 H -3.16  6.21  2.87
 H -3.71  3.33  1.26
 N -3.78 -0.88  3.83
 C -4.47 -0.11  2.81
 H -4.30 -1.62  4.28
 H -4.22 -0.43  1.79
 H -4.26  0.97  2.90
 H -5.55 -0.25  2.95
