35
#
 C  1.40  1.01  2.14
 C  0.56  0.21  3.11
 O  1.07 -0.46  4.01
 H  1.97  1.76  2.70
 H  0.81  1.53  1.37
 H  2.12  0.34  1.65
 N -0.79  0.28  2.93
 C -1.74 -0.39  3.82
 C -1.94 -1.87  3.40
 O -2.95 -2.26  2.81
 H -1.16  0.76  2.12
 H -1.27 -0.39  4.82
 C -3.08  0.36  3.86
 C -2.99  1.82  4.30
 C -2.44  2.02  5.71
 N -2.50  3.42  6.09
 C -1.81  3.86  7.21
 N -2.12  5.19  7.53
 N -1.01  3.07  7.85
 H -3.74 -0.20  4.54
 H -3.55  0.28  2.87
 H -4.01  2.25  4.24
 H -2.38  2.41  3.60
 H -1.39  1.72  5.78
 H -2.99  1.38  6.43
 H -3.41  3.86  5.97
 H -1.51  5.59  8.24
 H -2.21  5.81  6.73
 H -0.49  3.57  8.57
 N -0.88 -2.66  3.73
 C -0.79 -4.05  3.34
 H -0.06 -2.18  4.10
 H -0.49 -4.67  4.19
 H -0.06 -4.19  2.52
 H -1.78 -4.37  2.98
