35
#
 C  0.42 -0.93  0.67
 C  0.11 -0.02  1.83
 O  0.94  0.76  2.28
 H  1.44 -1.30  0.79
 H  0.41 -0.34 -0.26
 H -0.26 -1.78  0.54
 N -1.14 -0.10  2.42
 C -2.35 -0.80  1.99
 C -2.31 -2.34  2.19
 O -3.20 -3.05  1.70
 H -1.25  0.59  3.16
 H -3.13 -0.49  2.71
 C -2.87 -0.41  0.59
 C -3.76  0.84  0.58
 C -5.20  0.59  1.05
 N -5.33  0.27  2.48
 C -6.09 -0.80  2.96
 N -6.02 -1.95  2.18
 N -6.81 -0.79  4.04
 H -3.43 -1.26  0.18
 H -2.01 -0.25 -0.08
 H -3.82  1.22 -0.45
 H -3.30  1.65  1.18
 H -5.64 -0.24  0.49
 H -5.81  1.48  0.82
 H -5.44  1.09  3.07
 H -5.10 -2.24  1.87
 H -6.54 -2.70  2.63
 H -6.90  0.16  4.41
 N -1.32 -2.81  2.98
 C -1.21 -4.20  3.35
 H -0.67 -2.13  3.35
 H -0.23 -4.61  3.05
 H -2.00 -4.76  2.85
 H -1.32 -4.33  4.44
