35
#
 C -1.02  0.55 -0.16
 C -0.58  0.74  1.27
 O  0.49  1.29  1.54
 H -0.87  1.50 -0.70
 H -2.05  0.22 -0.30
 H -0.35 -0.19 -0.62
 N -1.33  0.20  2.30
 C -2.75 -0.18  2.36
 C -3.16 -1.27  1.35
 O -4.28 -1.31  0.86
 H -0.91  0.42  3.20
 H -2.85 -0.69  3.34
 C -3.74  1.01  2.40
 C -3.71  1.96  1.22
 C -4.67  3.15  1.40
 N -4.62  4.14  0.33
 C -3.45  4.82  0.00
 N -2.73  5.31  1.09
 N -3.18  5.02 -1.24
 H -3.53  1.57  3.33
 H -4.74  0.57  2.51
 H -3.98  1.43  0.29
 H -2.70  2.37  1.07
 H -4.48  3.65  2.37
 H -5.71  2.80  1.47
 H -5.07  3.85 -0.53
 H -1.74  5.45  0.93
 H -2.94  4.95  2.01
 H -2.39  5.66 -1.36
 N -2.20 -2.22  1.14
 C -2.39 -3.33  0.23
 H -1.29 -2.05  1.54
 H -2.10 -4.28  0.71
 H -1.79 -3.21 -0.69
 H -3.45 -3.37 -0.04
