35
#
 C  0.34 -0.11 -0.30
 C  0.22  0.71  0.97
 O -0.25  1.85  0.95
 H  0.70 -1.14 -0.14
 H  1.04  0.40 -0.98
 H -0.63 -0.14 -0.80
 N  0.65  0.09  2.11
 C  0.78  0.79  3.39
 C  1.59 -0.05  4.39
 O  2.40  0.45  5.16
 H  1.20 -0.76  1.99
 H  1.37  1.71  3.24
 C -0.60  1.14  4.01
 C -0.56  2.37  4.94
 C -0.89  3.69  4.23
 N -0.06  4.03  3.07
 C  1.30  4.32  3.17
 N  1.69  4.91  4.38
 N  2.19  4.08  2.27
 H -0.98  0.27  4.56
 H -1.31  1.32  3.19
 H  0.42  2.44  5.43
 H -1.30  2.24  5.75
 H -0.86  4.51  4.96
 H -1.93  3.66  3.86
 H -0.26  3.46  2.25
 H  2.65  5.24  4.31
 H  1.05  5.60  4.75
 H  1.78  3.55  1.49
 N  1.32 -1.40  4.37
 C  1.90 -2.31  5.34
 H  0.49 -1.71  3.87
 H  2.03 -3.30  4.90
 H  1.29 -2.39  6.25
 H  2.88 -1.91  5.63
