35
#
 C -0.98  1.02  0.36
 C -0.26  0.40  1.55
 O  0.93  0.61  1.75
 H -0.29  1.71 -0.13
 H -1.89  1.56  0.66
 H -1.27  0.24 -0.37
 N -0.99 -0.40  2.37
 C -2.39 -0.78  2.26
 C -2.90 -1.01  3.70
 O -2.19 -1.60  4.52
 H -0.50 -0.81  3.17
 H -2.95  0.06  1.82
 C -2.56 -2.06  1.40
 C -4.00 -2.50  1.10
 C -4.67 -1.83 -0.12
 N -4.61 -0.38 -0.21
 C -5.19  0.46  0.72
 N -4.75  1.78  0.64
 N -6.02  0.14  1.66
 H -2.04 -2.87  1.94
 H -2.01 -1.92  0.46
 H -4.62 -2.37  2.00
 H -4.01 -3.58  0.90
 H -5.72 -2.14 -0.18
 H -4.19 -2.21 -1.04
 H -3.79 -0.00 -0.68
 H -5.34  2.40  1.18
 H -4.58  2.13 -0.30
 H -6.22 -0.87  1.65
 N -4.15 -0.56  3.97
 C -4.76 -0.77  5.27
 H -4.71 -0.12  3.23
 H -5.79 -0.40  5.23
 H -4.21 -0.23  6.05
 H -4.76 -1.83  5.54
