35
#
 C  0.73 -0.78  0.66
 C  0.54 -0.21  2.05
 O  1.50 -0.05  2.82
 H  1.23 -1.75  0.74
 H  1.39 -0.11  0.09
 H -0.21 -0.91  0.11
 N -0.74  0.12  2.37
 C -1.25  0.49  3.69
 C -0.85  1.89  4.23
 O -1.71  2.61  4.74
 H -1.49 -0.12  1.72
 H -2.33  0.59  3.53
 C -1.04 -0.58  4.80
 C -1.15 -2.05  4.38
 C -2.26 -2.46  3.40
 N -3.56 -1.84  3.62
 C -4.16 -1.05  2.67
 N -5.49 -0.74  2.97
 N -3.53 -0.69  1.60
 H -1.77 -0.34  5.58
 H -0.05 -0.44  5.25
 H -1.26 -2.64  5.31
 H -0.20 -2.38  3.93
 H -2.38 -3.56  3.43
 H -1.98 -2.21  2.37
 H -4.19 -2.28  4.28
 H -5.86  0.04  2.43
 H -5.70 -0.63  3.96
 H -4.10 -0.07  1.02
 N  0.46  2.20  4.13
 C  1.00  3.45  4.62
 H  1.08  1.48  3.74
 H  1.63  3.29  5.52
 H  0.16  4.10  4.90
 H  1.61  3.94  3.85
