35
#
 C  0.26 -0.50  0.51
 C  0.17 -0.24  2.01
 O  1.18 -0.21  2.72
 H  1.32 -0.66  0.27
 H -0.10  0.36 -0.07
 H -0.31 -1.39  0.21
 N -1.07 -0.06  2.55
 C -2.36  0.03  1.88
 C -3.07  1.29  2.38
 O -3.01  1.64  3.56
 H -1.08  0.20  3.53
 H -2.18  0.10  0.80
 C -3.26 -1.20  2.16
 C -2.70 -2.52  1.64
 C -3.63 -3.70  1.95
 N -3.11 -4.99  1.53
 C -2.19 -5.66  2.32
 N -1.74 -6.86  1.76
 N -1.89 -5.21  3.48
 H -4.25 -1.00  1.72
 H -3.42 -1.26  3.25
 H -1.72 -2.72  2.10
 H -2.54 -2.45  0.55
 H -4.61 -3.56  1.46
 H -3.79 -3.76  3.03
 H -3.06 -5.16  0.53
 H -0.82 -7.15  2.07
 H -1.86 -6.99  0.76
 H -1.28 -5.86  3.99
 N -3.80  1.96  1.43
 C -4.60  3.13  1.74
 H -3.78  1.61  0.48
 H -4.48  3.35  2.80
 H -5.67  2.95  1.54
 H -4.27  4.00  1.16
