35
#
 C -0.23 -0.69 -0.38
 C  0.37 -0.15  0.91
 O  1.54 -0.36  1.23
 H  0.52 -1.32 -0.86
 H -0.49  0.13 -1.07
 H -1.13 -1.28 -0.20
 N -0.46  0.58  1.72
 C -1.80  1.04  1.41
 C -1.78  2.19  0.37
 O -0.87  3.02  0.33
 H  0.03  1.02  2.50
 H -2.34  0.19  0.98
 C -2.57  1.47  2.68
 C -2.35  2.90  3.20
 C -0.93  3.23  3.70
 N -0.76  4.59  4.17
 C -0.73  5.71  3.34
 N -0.23  5.49  2.06
 N -1.07  6.84  3.85
 H -2.33  0.74  3.46
 H -3.65  1.35  2.48
 H -3.05  3.07  4.03
 H -2.63  3.63  2.42
 H -0.19  3.05  2.91
 H -0.66  2.56  4.53
 H -1.20  4.83  5.05
 H -0.39  6.26  1.42
 H -0.32  4.58  1.61
 H -0.92  7.61  3.19
 N -2.85  2.28 -0.47
 C -3.96  1.36 -0.61
 H -2.80  3.07 -1.11
 H -4.57  1.29  0.31
 H -3.64  0.35 -0.90
 H -4.62  1.73 -1.41
