35
#
 C -0.03 -1.45  1.56
 C -0.30  0.01  1.85
 O  0.60  0.85  1.85
 H -0.93 -2.07  1.45
 H  0.59 -1.86  2.37
 H  0.57 -1.52  0.64
 N -1.62  0.30  2.09
 C -2.25  1.53  2.60
 C -3.00  2.39  1.57
 O -4.10  2.86  1.90
 H -2.25 -0.49  2.08
 H -3.07  1.14  3.21
 C -1.34  2.39  3.51
 C -2.01  3.63  4.13
 C -3.01  3.38  5.27
 N -4.14  2.53  4.90
 C -4.28  1.25  5.39
 N -3.99  1.11  6.75
 N -4.61  0.29  4.58
 H -0.45  2.70  2.95
 H -0.97  1.73  4.31
 H -1.21  4.27  4.53
 H -2.49  4.22  3.34
 H -3.37  4.36  5.62
 H -2.49  2.91  6.12
 H -4.41  2.60  3.92
 H -4.31  1.87  7.34
 H -4.21  0.20  7.13
 H -4.85 -0.57  5.10
 N -2.49  2.66  0.34
 C -1.22  2.29 -0.27
 H -3.14  3.22 -0.22
 H -0.43  2.20  0.48
 H -0.93  3.09 -0.97
 H -1.29  1.35 -0.82
