35
#
 C  0.01 -0.18  0.26
 C  0.17  0.01  1.75
 O  1.27  0.13  2.28
 H  0.92 -0.67 -0.11
 H -0.05  0.81 -0.22
 H -0.87 -0.76 -0.03
 N -0.97  0.04  2.54
 C -2.38  0.10  2.14
 C -2.93 -1.22  1.54
 O -3.95 -1.23  0.85
 H -0.76  0.27  3.50
 H -2.93  0.20  3.10
 C -2.77  1.31  1.26
 C -2.30  2.66  1.80
 C -2.91  3.04  3.15
 N -2.45  4.35  3.58
 C -2.78  4.85  4.83
 N -2.33  6.17  5.01
 N -3.42  4.27  5.78
 H -3.86  1.29  1.16
 H -2.38  1.17  0.25
 H -2.56  3.43  1.06
 H -1.20  2.68  1.90
 H -2.62  2.32  3.92
 H -4.02  3.00  3.08
 H -2.39  5.05  2.84
 H -2.47  6.47  5.96
 H -1.38  6.33  4.69
 H -3.83  3.38  5.47
 N -2.24 -2.34  1.90
 C -2.63 -3.67  1.48
 H -1.40 -2.20  2.44
 H -2.82 -4.32  2.34
 H -1.86 -4.13  0.85
 H -3.56 -3.57  0.89
