35
#
 C  0.19 -2.29  1.78
 C -0.67 -1.79  2.93
 O -0.92 -2.48  3.93
 H  0.06 -3.37  1.69
 H  1.24 -2.08  2.03
 H -0.05 -1.81  0.83
 N -1.11 -0.51  2.80
 C -1.89  0.18  3.80
 C -2.40  1.48  3.14
 O -1.92  1.90  2.09
 H -0.91  0.04  1.96
 H -2.76 -0.45  4.08
 C -1.08  0.45  5.09
 C  0.13  1.38  4.92
 C  1.26  1.11  5.94
 N  2.28  0.15  5.53
 C  2.02 -1.19  5.22
 N  1.26 -1.89  6.15
 N  2.57 -1.69  4.17
 H -0.76 -0.54  5.43
 H -1.75  0.84  5.87
 H -0.19  2.43  4.99
 H  0.55  1.26  3.91
 H  0.83  0.81  6.91
 H  1.80  2.05  6.15
 H  2.91  0.52  4.82
 H  0.59 -2.53  5.72
 H  0.85 -1.36  6.91
 H  2.45 -2.71  4.17
 N -3.38  2.12  3.83
 C -3.94  3.39  3.41
 H -3.73  1.69  4.68
 H -3.80  4.17  4.17
 H -5.01  3.30  3.19
 H -3.42  3.69  2.49
