35
#
 C -0.04 -0.86 -0.13
 C  0.31 -0.05  1.10
 O  1.42  0.44  1.28
 H -0.79 -0.34 -0.75
 H -0.44 -1.85  0.13
 H  0.87 -0.99 -0.72
 N -0.68  0.10  2.05
 C -2.08 -0.24  1.91
 C -2.80  0.71  0.92
 O -2.46  1.88  0.77
 H -0.43  0.77  2.77
 H -2.15 -1.27  1.52
 C -2.77 -0.21  3.30
 C -2.99  1.19  3.90
 C -4.39  1.76  3.61
 N -4.52  3.16  3.95
 C -4.85  4.17  3.05
 N -4.55  3.90  1.72
 N -5.42  5.23  3.52
 H -2.15 -0.83  3.96
 H -3.74 -0.73  3.21
 H -2.25  1.91  3.51
 H -2.84  1.15  4.99
 H -5.14  1.16  4.17
 H -4.64  1.63  2.55
 H -4.84  3.39  4.88
 H -4.63  4.71  1.12
 H -3.72  3.34  1.51
 H -5.50  5.95  2.81
 N -3.85  0.16  0.26
 C -4.71  0.94 -0.63
 H -4.09 -0.81  0.43
 H -5.36  0.26 -1.19
 H -4.09  1.51 -1.34
 H -5.32  1.66 -0.07
