35
#
 C -0.07 -0.11 -0.27
 C -0.05 -0.33  1.23
 O  1.02 -0.54  1.82
 H  0.69 -0.76 -0.71
 H  0.18  0.93 -0.49
 H -1.05 -0.33 -0.73
 N -1.22 -0.35  1.93
 C -2.55  0.14  1.61
 C -2.55  1.38  0.70
 O -1.68  2.25  0.75
 H -1.11 -0.72  2.88
 H -3.16 -0.65  1.15
 C -3.24  0.54  2.95
 C -2.54  1.72  3.66
 C -2.37  1.57  5.19
 N -1.70  0.34  5.64
 C -0.58 -0.19  5.02
 N  0.46  0.68  4.75
 N -0.58 -1.46  4.75
 H -3.21 -0.36  3.59
 H -4.30  0.75  2.76
 H -3.10  2.65  3.48
 H -1.56  1.87  3.21
 H -3.34  1.59  5.70
 H -1.82  2.45  5.56
 H -2.34 -0.42  5.85
 H  1.00  0.44  3.91
 H  0.31  1.67  4.89
 H  0.34 -1.76  4.43
 N -3.62  1.50 -0.15
 C -4.73  0.59 -0.37
 H -3.60  2.37 -0.68
 H -5.37  1.01 -1.15
 H -5.34  0.45  0.53
 H -4.39 -0.40 -0.71
