35
#
 C -0.79  1.05 -0.47
 C -0.47  0.89  1.00
 O  0.69  0.76  1.40
 H -1.87  1.09 -0.68
 H -0.35  0.21 -1.02
 H -0.32  1.97 -0.84
 N -1.53  0.91  1.85
 C -1.39  0.76  3.28
 C -2.74  0.27  3.81
 O -3.79  0.49  3.20
 H -2.49  0.98  1.51
 H -0.61 -0.00  3.45
 C -0.96  2.09  3.96
 C -0.17  1.95  5.27
 C  1.14  1.16  5.14
 N  2.00  1.53  4.01
 C  2.53  2.81  3.88
 N  2.87  3.43  5.09
 N  2.73  3.44  2.77
 H -1.86  2.71  4.12
 H -0.34  2.63  3.23
 H -0.79  1.50  6.06
 H  0.07  2.97  5.62
 H  0.94  0.08  5.02
 H  1.70  1.25  6.08
 H  1.67  1.17  3.12
 H  3.40  4.28  4.91
 H  3.33  2.83  5.76
 H  2.33  2.93  1.99
 N -2.69 -0.39  5.00
 C -3.87 -0.85  5.70
 H -1.78 -0.56  5.41
 H -4.74 -0.57  5.10
 H -3.95 -0.38  6.69
 H -3.86 -1.94  5.83
