35
#
 C -0.33 -0.03  1.93
 C -1.08  0.26  3.22
 O -0.49  0.67  4.21
 H  0.66 -0.41  2.19
 H -0.19  0.90  1.37
 H -0.83 -0.75  1.27
 N -2.44  0.02  3.26
 C -3.35 -0.01  2.11
 C -3.33 -1.34  1.31
 O -3.72 -1.39  0.15
 H -2.88  0.39  4.11
 H -4.35 -0.02  2.58
 C -3.27  1.22  1.17
 C -4.59  1.94  0.90
 C -5.32  2.50  2.14
 N -4.48  3.28  3.04
 C -3.86  2.73  4.15
 N -2.67  3.34  4.49
 N -4.29  1.74  4.88
 H -2.84  0.91  0.21
 H -2.56  1.94  1.62
 H -5.28  1.26  0.38
 H -4.40  2.77  0.20
 H -5.76  1.68  2.73
 H -6.17  3.11  1.81
 H -4.03  4.09  2.64
 H -2.19  2.85  5.24
 H -2.04  3.56  3.72
 H -5.26  1.50  4.65
 N -2.93 -2.42  2.03
 C -2.89 -3.76  1.49
 H -2.59 -2.23  2.97
 H -1.87 -4.15  1.46
 H -3.29 -3.72  0.48
 H -3.51 -4.44  2.09
