35
#
 C -2.09 -0.53  3.90
 C -0.93 -0.47  2.93
 O -1.03 -0.86  1.77
 H -1.84 -0.19  4.91
 H -2.46 -1.56  3.96
 H -2.91  0.08  3.51
 N  0.25  0.03  3.44
 C  1.40  0.33  2.61
 C  2.66 -0.50  2.95
 O  3.76 -0.18  2.51
 H  0.21  0.47  4.36
 H  1.11  0.02  1.59
 C  1.72  1.83  2.62
 C  0.67  2.69  1.92
 C  0.85  4.19  2.16
 N  0.71  4.59  3.56
 C -0.45  5.06  4.15
 N -1.61  4.83  3.41
 N -0.54  5.69  5.27
 H  2.71  1.96  2.15
 H  1.83  2.16  3.67
 H -0.34  2.39  2.25
 H  0.69  2.50  0.83
 H  0.14  4.76  1.55
 H  1.86  4.49  1.83
 H  1.56  4.84  4.05
 H -2.43  5.07  3.96
 H -1.69  3.93  2.96
 H  0.38  5.93  5.64
 N  2.44 -1.60  3.72
 C  3.48 -2.55  4.05
 H  1.48 -1.79  3.99
 H  3.31 -3.52  3.55
 H  3.54 -2.71  5.13
 H  4.43 -2.13  3.69
