35
#
 C  1.34 -0.01  0.52
 C  0.31 -0.90  1.19
 O  0.32 -2.12  1.08
 H  2.34 -0.33  0.83
 H  1.22  1.06  0.74
 H  1.28 -0.16 -0.57
 N -0.63 -0.23  1.93
 C -1.79 -0.90  2.49
 C -3.00  0.01  2.21
 O -2.86  1.22  2.00
 H -0.74  0.77  1.84
 H -1.90 -1.86  1.96
 C -1.68 -1.16  4.01
 C -0.51 -2.08  4.37
 C -0.44 -2.43  5.86
 N -0.23 -1.30  6.75
 C -1.28 -0.69  7.41
 N -0.87  0.47  8.10
 N -2.48 -1.15  7.34
 H -2.62 -1.60  4.37
 H -1.58 -0.19  4.52
 H  0.44 -1.62  4.06
 H -0.58 -3.02  3.80
 H  0.38 -3.15  6.02
 H -1.37 -2.91  6.19
 H  0.55 -0.69  6.53
 H -1.58  0.84  8.73
 H  0.03  0.38  8.57
 H -3.11 -0.65  7.97
 N -4.21 -0.61  2.24
 C -5.47  0.10  2.11
 H -4.23 -1.60  2.42
 H -6.06  0.05  3.04
 H -6.07 -0.31  1.29
 H -5.24  1.15  1.89
