35
#
 C -5.53 -0.08  1.81
 C -4.03 -0.16  1.66
 O -3.49 -1.09  1.06
 H -5.89 -0.99  2.31
 H -5.98 -0.06  0.81
 H -5.87  0.80  2.37
 N -3.31  0.85  2.23
 C -1.85  0.92  2.14
 C -1.25  0.03  3.24
 O -0.87  0.47  4.34
 H -3.79  1.55  2.79
 H -1.60  0.48  1.16
 C -1.39  2.38  2.18
 C  0.06  2.62  1.72
 C  1.11  2.63  2.84
 N  0.85  3.71  3.79
 C  1.11  3.63  5.16
 N  0.93  2.38  5.71
 N  1.49  4.71  5.75
 H -1.52  2.79  3.20
 H -2.07  2.94  1.52
 H  0.10  3.58  1.20
 H  0.35  1.86  0.97
 H  2.11  2.73  2.39
 H  1.11  1.68  3.39
 H  1.09  4.64  3.46
 H  0.23  1.76  5.29
 H  0.94  2.36  6.73
 H  1.53  4.58  6.77
 N -1.20 -1.28  2.90
 C -0.81 -2.32  3.84
 H -1.73 -1.54  2.06
 H -0.07 -1.90  4.54
 H -0.35 -3.15  3.30
 H -1.66 -2.69  4.42
