35
#
 C -0.49 -0.13 -0.27
 C -0.27  0.14  1.20
 O  0.83  0.46  1.65
 H -1.44 -0.64 -0.49
 H  0.34 -0.73 -0.65
 H -0.48  0.83 -0.80
 N -1.38  0.02  1.99
 C -1.41  0.48  3.38
 C -0.83  1.93  3.45
 O -1.14  2.74  2.58
 H -2.27 -0.10  1.53
 H -2.48  0.66  3.59
 C -0.96 -0.60  4.39
 C  0.38 -1.33  4.20
 C  1.64 -0.56  4.61
 N  2.86 -1.34  4.54
 C  3.72 -1.43  3.45
 N  3.55 -0.48  2.46
 N  4.71 -2.27  3.36
 H -1.75 -1.36  4.37
 H -1.03 -0.17  5.41
 H  0.48 -1.66  3.16
 H  0.33 -2.25  4.81
 H  1.53 -0.20  5.65
 H  1.78  0.33  3.99
 H  2.91 -2.15  5.16
 H  4.17 -0.65  1.68
 H  2.60 -0.20  2.19
 H  4.80 -2.83  4.21
 N -0.11  2.25  4.56
 C  0.48  3.56  4.73
 H  0.20  1.50  5.16
 H  0.37  3.89  5.77
 H -0.03  4.26  4.07
 H  1.55  3.56  4.47
