35
#
 C -1.87 -1.08  0.35
 C -1.95 -0.20  1.58
 O -0.93  0.32  2.07
 H -1.31 -0.55 -0.43
 H -2.85 -1.38 -0.04
 H -1.30 -1.98  0.61
 N -3.19 -0.04  2.12
 C -3.53  0.67  3.37
 C -3.55  2.21  3.22
 O -4.54  2.85  3.56
 H -3.96 -0.47  1.63
 H -4.58  0.41  3.55
 C -2.69  0.25  4.59
 C -2.56 -1.26  4.78
 C -1.65 -1.65  5.96
 N -0.34 -0.98  6.00
 C  0.76 -1.46  5.29
 N  0.52 -1.70  3.93
 N  1.86 -1.65  5.93
 H -1.69  0.69  4.54
 H -3.18  0.70  5.47
 H -2.16 -1.72  3.86
 H -3.54 -1.72  4.95
 H -2.16 -1.37  6.89
 H -1.54 -2.75  5.97
 H -0.03 -0.80  6.95
 H -0.00 -0.97  3.44
 H  1.36 -1.96  3.42
 H  2.64 -1.84  5.28
 N -2.40  2.75  2.75
 C -2.22  4.18  2.58
 H -1.63  2.12  2.54
 H -3.17  4.67  2.81
 H -1.92  4.43  1.56
 H -1.45  4.57  3.27
