35
#
 C -0.70  0.19 -0.28
 C -0.13 -0.13  1.09
 O  0.98 -0.63  1.24
 H  0.02  0.83 -0.82
 H -1.67  0.69 -0.26
 H -0.78 -0.75 -0.85
 N -0.94  0.19  2.15
 C -0.61 -0.22  3.51
 C -1.85 -0.33  4.41
 O -1.97 -1.32  5.14
 H -1.91  0.43  1.94
 H -0.21 -1.24  3.47
 C  0.49  0.67  4.15
 C  0.90  0.20  5.56
 C  0.73  1.26  6.66
 N -0.56  1.95  6.65
 C -1.69  1.58  7.37
 N -1.72  0.26  7.79
 N -2.68  2.36  7.66
 H  0.14  1.71  4.18
 H  1.35  0.64  3.47
 H  0.33 -0.70  5.84
 H  1.96 -0.12  5.57
 H  1.50  2.04  6.53
 H  0.90  0.81  7.64
 H -0.54  2.94  6.44
 H -2.60  0.06  8.26
 H -1.52 -0.45  7.07
 H -2.46  3.34  7.46
 N -2.80  0.64  4.41
 C -2.74  2.02  3.94
 H -3.53  0.45  5.10
 H -2.79  2.71  4.79
 H -3.58  2.24  3.26
 H -1.80  2.20  3.40
