35
#
 C -2.62 -1.41  1.92
 C -1.13 -1.12  1.87
 O -0.32 -2.03  1.75
 H -2.90 -1.69  2.95
 H -2.82 -2.27  1.28
 H -3.27 -0.58  1.62
 N -0.70  0.18  2.04
 C -1.48  1.41  1.84
 C -2.62  1.59  2.88
 O -3.64  2.23  2.63
 H  0.30  0.31  1.84
 H -0.77  2.21  2.08
 C -1.95  1.67  0.40
 C -0.81  2.07 -0.55
 C  0.07  0.90 -1.04
 N  1.46  1.30 -1.25
 C  2.34  1.37 -0.18
 N  3.65  1.63 -0.58
 N  1.93  1.19  1.03
 H -2.69  2.48  0.45
 H -2.50  0.79  0.00
 H -0.17  2.79 -0.03
 H -1.22  2.59 -1.42
 H -0.30  0.52 -2.00
 H  0.04  0.06 -0.33
 H  1.88  1.03 -2.13
 H  4.28  1.85  0.18
 H  3.76  2.27 -1.36
 H  2.69  1.36  1.70
 N -2.34  1.06  4.10
 C -3.25  1.14  5.22
 H -1.49  0.50  4.16
 H -2.75  1.56  6.10
 H -3.65  0.15  5.48
 H -4.07  1.80  4.93
