35
#
 C -0.77 -0.60 -1.38
 C -0.06 -0.36 -0.07
 O  1.17 -0.23 -0.02
 H -0.71  0.33 -1.97
 H -1.82 -0.89 -1.29
 H -0.22 -1.37 -1.93
 N -0.79 -0.31  1.10
 C -2.22  0.04  1.26
 C -3.17 -1.15  0.93
 O -4.36 -0.96  0.69
 H -0.19 -0.10  1.89
 H -2.35  0.17  2.35
 C -2.66  1.34  0.58
 C -2.25  2.65  1.28
 C -0.74  2.95  1.42
 N  0.08  2.71  0.25
 C -0.09  3.37 -0.94
 N  0.63  2.79 -2.00
 N -0.89  4.38 -1.03
 H -3.75  1.31  0.52
 H -2.30  1.36 -0.46
 H -2.69  2.68  2.29
 H -2.70  3.47  0.71
 H -0.30  2.36  2.23
 H -0.64  4.01  1.72
 H  0.67  1.89  0.25
 H  0.84  3.44 -2.75
 H  1.45  2.25 -1.73
 H -0.91  4.76 -1.97
 N -2.60 -2.38  0.99
 C -3.34 -3.60  0.76
 H -1.60 -2.41  1.16
 H -2.97 -4.13 -0.13
 H -4.39 -3.33  0.61
 H -3.26 -4.28  1.63
