35
#
 C -0.09 -0.24  0.76
 C -0.30 -0.31  2.26
 O  0.65 -0.41  3.04
 H -0.06 -1.26  0.36
 H -0.85  0.32  0.21
 H  0.89  0.22  0.59
 N -1.58 -0.32  2.76
 C -2.89 -0.06  2.15
 C -3.09 -0.74  0.77
 O -3.45 -0.11 -0.22
 H -1.57 -0.37  3.78
 H -3.61 -0.57  2.81
 C -3.30  1.42  2.13
 C -2.34  2.39  1.44
 C -2.86  3.84  1.51
 N -2.01  4.83  0.89
 C -1.97  5.01 -0.49
 N -0.97  5.92 -0.88
 N -2.71  4.47 -1.40
 H -3.43  1.73  3.18
 H -4.29  1.48  1.65
 H -2.21  2.11  0.39
 H -1.35  2.35  1.92
 H -3.00  4.13  2.56
 H -3.85  3.90  1.04
 H -1.12  5.00  1.35
 H -1.05  6.13 -1.87
 H -0.93  6.76 -0.31
 H -3.29  3.72 -1.02
 N -2.89 -2.10  0.72
 C -2.54 -3.03  1.77
 H -3.04 -2.47 -0.22
 H -1.46 -3.05  1.98
 H -2.85 -4.03  1.47
 H -3.06 -2.79  2.71
