35
#
 C  0.73 -0.92 -0.07
 C  0.41 -1.03  1.41
 O  1.18 -1.61  2.18
 H  0.78 -1.93 -0.50
 H  1.72 -0.47 -0.19
 H  0.00 -0.33 -0.65
 N -0.76 -0.44  1.79
 C -1.43 -0.42  3.09
 C -1.40  0.97  3.79
 O -2.47  1.50  4.09
 H -1.28  0.03  1.05
 H -2.50 -0.53  2.87
 C -1.06 -1.58  4.04
 C -2.06 -1.69  5.20
 C -1.67 -2.74  6.24
 N -1.62 -4.08  5.68
 C -1.65 -5.26  6.41
 N -1.94 -5.11  7.77
 N -1.51 -6.46  5.94
 H -0.04 -1.46  4.43
 H -1.06 -2.50  3.44
 H -3.06 -1.93  4.81
 H -2.15 -0.73  5.72
 H -2.42 -2.74  7.04
 H -0.70 -2.45  6.69
 H -1.14 -4.18  4.79
 H -1.86 -6.00  8.25
 H -1.46 -4.36  8.25
 H -1.44 -6.44  4.92
 N -0.21  1.56  4.09
 C  1.15  1.18  3.76
 H -0.35  2.47  4.52
 H  1.25  0.10  3.62
 H  1.82  1.48  4.58
 H  1.50  1.67  2.84
