35
#
 C  0.03 -0.94 -0.39
 C -0.08 -0.42  1.04
 O  0.83 -0.53  1.85
 H  0.94 -0.52 -0.84
 H -0.83 -0.70 -1.02
 H  0.16 -2.03 -0.35
 N -1.28  0.18  1.34
 C -1.61  0.56  2.72
 C -3.13  0.58  2.91
 O -3.65 -0.11  3.79
 H -2.04  0.07  0.69
 H -1.27 -0.25  3.38
 C -0.86  1.84  3.17
 C -1.12  2.25  4.63
 C -2.36  3.12  4.83
 N -2.49  3.53  6.21
 C -3.58  4.28  6.64
 N -3.47  4.68  7.97
 N -4.62  4.62  5.95
 H -1.09  2.68  2.50
 H  0.20  1.61  3.04
 H -0.24  2.82  4.98
 H -1.19  1.36  5.27
 H -3.27  2.56  4.56
 H -2.31  3.99  4.15
 H -1.62  3.76  6.68
 H -4.33  5.12  8.29
 H -3.15  3.96  8.60
 H -4.52  4.38  4.97
 N -3.91  1.34  2.07
 C -3.53  2.47  1.23
 H -4.89  1.28  2.32
 H -2.54  2.32  0.79
 H -3.52  3.42  1.78
 H -4.25  2.56  0.40
