35
#
 C  0.96 -1.24  1.25
 C  0.17 -0.03  1.72
 O  0.72  0.99  2.13
 H  0.33 -2.05  0.87
 H  1.57 -1.61  2.08
 H  1.65 -0.92  0.46
 N -1.19 -0.16  1.65
 C -2.08  0.82  2.24
 C -3.16  0.03  3.01
 O -3.43 -1.13  2.69
 H -1.61 -1.08  1.51
 H -1.47  1.43  2.92
 C -2.75  1.73  1.19
 C -1.75  2.59  0.41
 C -2.41  3.48 -0.64
 N -3.05  2.69 -1.68
 C -3.88  3.28 -2.63
 N -4.27  2.37 -3.62
 N -4.29  4.50 -2.69
 H -3.48  2.39  1.70
 H -3.33  1.10  0.50
 H -1.00  1.94 -0.08
 H -1.18  3.22  1.10
 H -1.66  4.18 -1.05
 H -3.19  4.10 -0.16
 H -2.48  1.93 -2.04
 H -4.97  2.79 -4.23
 H -4.56  1.46 -3.27
 H -3.81  5.09 -2.00
 N -3.82  0.67  4.01
 C -3.64  2.02  4.50
 H -4.57  0.11  4.41
 H -3.91  2.05  5.57
 H -4.27  2.75  3.97
 H -2.60  2.33  4.41
