35
#
 C -0.39  0.85  0.40
 C -0.51  0.46  1.84
 O  0.44  0.02  2.50
 H  0.19  0.09 -0.14
 H  0.19  1.79  0.38
 H -1.35  1.00 -0.10
 N -1.75  0.65  2.42
 C -1.94  0.55  3.86
 C -2.83 -0.63  4.30
 O -3.23 -0.72  5.47
 H -2.45  1.14  1.88
 H -0.94  0.31  4.26
 C -2.45  1.86  4.49
 C -1.57  3.09  4.26
 C -0.10  2.96  4.72
 N  0.89  2.89  3.64
 C  1.02  3.89  2.69
 N  0.96  5.19  3.20
 N  1.26  3.58  1.46
 H -2.57  1.66  5.56
 H -3.47  2.06  4.11
 H -2.05  3.94  4.78
 H -1.57  3.36  3.19
 H  0.05  2.06  5.33
 H  0.16  3.80  5.39
 H  1.01  1.97  3.23
 H  0.62  5.33  4.14
 H  0.67  5.91  2.54
 H  1.50  4.42  0.92
 N -3.11 -1.55  3.34
 C -3.83 -2.77  3.60
 H -2.68 -1.40  2.43
 H -4.23 -2.71  4.62
 H -3.18 -3.65  3.53
 H -4.67 -2.89  2.90
