35
#
 C  0.16  0.40 -0.26
 C  0.04  0.39  1.25
 O  0.95  0.76  1.99
 H  0.37  1.43 -0.59
 H -0.73  0.03 -0.78
 H  1.03 -0.22 -0.55
 N -1.16 -0.05  1.73
 C -1.42 -0.16  3.16
 C -2.41 -1.32  3.32
 O -3.27 -1.52  2.46
 H -1.90 -0.39  1.12
 H -0.46 -0.34  3.65
 C -2.02  1.16  3.71
 C -2.12  1.23  5.23
 C -2.69  2.58  5.70
 N -2.74  2.75  7.15
 C -3.70  2.11  7.90
 N -3.51  2.29  9.28
 N -4.63  1.41  7.33
 H -3.02  1.30  3.25
 H -1.38  1.97  3.34
 H -1.13  1.08  5.68
 H -2.79  0.45  5.62
 H -3.71  2.70  5.33
 H -2.08  3.41  5.29
 H -1.84  2.87  7.61
 H -4.28  1.97  9.84
 H -3.22  3.23  9.54
 H -5.33  1.11  8.01
 N -2.32 -2.12  4.42
 C -1.37 -2.10  5.52
 H -3.06 -2.81  4.46
 H -1.08 -3.12  5.78
 H -1.78 -1.61  6.42
 H -0.46 -1.56  5.24
