35
#
 C  0.04 -2.11 -0.62
 C  0.07 -0.67 -0.13
 O  0.83  0.15 -0.66
 H  0.88 -2.65 -0.16
 H  0.21 -2.10 -1.70
 H -0.88 -2.65 -0.39
 N -0.70 -0.33  0.95
 C -1.89 -1.02  1.46
 C -1.56 -2.40  2.08
 O -2.38 -3.31  2.11
 H -0.67  0.67  1.13
 H -2.21 -0.41  2.32
 C -3.09 -1.08  0.50
 C -3.88  0.24  0.35
 C -3.59  1.08 -0.91
 N -2.21  1.51 -1.06
 C -1.69  2.56 -0.33
 N -0.40  2.89 -0.73
 N -2.41  3.12  0.60
 H -3.75 -1.86  0.90
 H -2.76 -1.44 -0.49
 H -3.73  0.88  1.23
 H -4.95  0.01  0.33
 H -4.26  1.95 -0.89
 H -3.84  0.48 -1.80
 H -1.77  1.34 -1.95
 H  0.04  3.59 -0.13
 H  0.21  2.08 -0.88
 H -1.86  3.83  1.09
 N -0.33 -2.47  2.66
 C  0.15 -3.66  3.34
 H  0.28 -1.67  2.54
 H  0.48 -3.42  4.36
 H  0.99 -4.12  2.80
 H -0.67 -4.38  3.38
