35
#
 C -1.79 -0.01  3.62
 C -0.59 -0.83  3.21
 O  0.34 -1.08  3.98
 H -1.63  0.35  4.64
 H -2.71 -0.61  3.59
 H -1.94  0.85  2.95
 N -0.57 -1.31  1.92
 C -1.60 -1.20  0.91
 C -2.90 -2.03  1.09
 O -3.89 -1.64  0.45
 H  0.27 -1.86  1.71
 H -1.98 -0.17  0.91
 C -1.02 -1.45 -0.49
 C -0.48 -2.88 -0.75
 C -1.09 -3.54 -2.01
 N -2.52 -3.72 -1.94
 C -3.14 -4.63 -1.10
 N -4.49 -4.34 -0.91
 N -2.62 -5.67 -0.55
 H -0.23 -0.71 -0.67
 H -1.83 -1.22 -1.20
 H -0.68 -3.54  0.10
 H  0.62 -2.86 -0.87
 H -0.60 -4.51 -2.19
 H -0.88 -2.92 -2.89
 H -3.11 -2.98 -2.30
 H -4.93 -5.03 -0.31
 H -4.68 -3.38 -0.63
 H -1.67 -5.85 -0.90
 N -3.00 -3.09  1.93
 C -2.01 -4.00  2.49
 H -3.94 -3.48  1.89
 H -2.37 -4.36  3.46
 H -1.06 -3.49  2.66
 H -1.86 -4.86  1.82
