35
#
 C -0.11  0.75 -0.41
 C -0.13 -0.11  0.83
 O  0.82 -0.86  1.10
 H  0.93  1.04 -0.62
 H -0.74  1.65 -0.35
 H -0.47  0.14 -1.26
 N -1.21 -0.05  1.65
 C -2.52  0.51  1.39
 C -3.28  0.45  2.73
 O -3.01 -0.41  3.57
 H -1.19 -0.66  2.47
 H -2.42  1.57  1.09
 C -3.33 -0.22  0.29
 C -3.59 -1.72  0.49
 C -2.41 -2.67  0.22
 N -1.85 -2.45 -1.11
 C -0.71 -3.12 -1.57
 N  0.28 -3.31 -0.62
 N -0.53 -3.55 -2.78
 H -2.81 -0.07 -0.67
 H -4.30  0.29  0.18
 H -4.41 -2.01 -0.18
 H -3.95 -1.92  1.51
 H -2.76 -3.71  0.35
 H -1.61 -2.52  0.96
 H -2.57 -2.47 -1.84
 H  0.46 -2.55  0.04
 H  1.12 -3.68 -1.04
 H -1.39 -3.47 -3.33
 N -4.30  1.33  2.92
 C -4.66  2.48  2.10
 H -4.78  1.21  3.81
 H -5.46  3.03  2.61
 H -5.04  2.19  1.11
 H -3.82  3.18  1.97
