35
#
 C -1.79 -0.89  0.21
 C -0.62 -1.04  1.16
 O  0.38 -1.71  0.89
 H -1.82  0.14 -0.18
 H -2.75 -1.07  0.70
 H -1.64 -1.58 -0.62
 N -0.70 -0.38  2.37
 C -1.74  0.54  2.80
 C -1.71  1.95  2.17
 O -2.78  2.52  1.94
 H  0.13 -0.50  2.95
 H -2.70  0.15  2.45
 C -1.76  0.64  4.34
 C -2.20 -0.64  5.08
 C -3.71 -0.78  5.34
 N -4.56 -1.07  4.19
 C -4.91 -0.11  3.25
 N -5.19  1.14  3.77
 N -4.89 -0.45  2.00
 H -2.41  1.48  4.61
 H -0.74  0.92  4.68
 H -1.83 -1.53  4.54
 H -1.70 -0.66  6.06
 H -4.08  0.12  5.84
 H -3.85 -1.61  6.06
 H -4.37 -1.95  3.73
 H -5.36  1.87  3.09
 H -5.74  1.19  4.62
 H -5.29  0.29  1.41
 N -0.52  2.57  1.89
 C  0.85  2.15  2.15
 H -0.66  3.48  1.46
 H  0.98  1.83  3.19
 H  1.50  3.02  2.01
 H  1.19  1.35  1.49
