35
#
 C -0.37 -0.45 -0.07
 C -0.23 -0.30  1.43
 O  0.88 -0.27  1.98
 H  0.13  0.40 -0.55
 H -1.42 -0.48 -0.41
 H  0.14 -1.36 -0.39
 N -1.39 -0.19  2.14
 C -1.42  0.01  3.59
 C -1.26 -1.35  4.32
 O -2.21 -1.92  4.85
 H -2.27 -0.29  1.65
 H -0.54  0.63  3.82
 C -2.70  0.74  3.99
 C -2.66  1.24  5.44
 C -3.95  1.95  5.86
 N -4.16  3.16  5.09
 C -5.29  3.95  5.14
 N -6.47  3.29  5.48
 N -5.19  5.19  4.79
 H -3.55  0.05  3.87
 H -2.85  1.59  3.31
 H -1.81  1.92  5.59
 H -2.51  0.39  6.12
 H -3.91  2.15  6.95
 H -4.79  1.26  5.69
 H -3.34  3.74  4.95
 H -7.23  3.90  5.76
 H -6.39  2.48  6.09
 H -6.10  5.66  4.79
 N  0.01 -1.81  4.31
 C  0.37 -3.12  4.83
 H  0.67 -1.31  3.71
 H  1.31 -3.06  5.40
 H  0.49 -3.86  4.03
 H -0.43 -3.45  5.50
