35
#
 C -3.94  0.53  0.09
 C -2.77  0.13  0.96
 O -1.97 -0.75  0.62
 H -4.57  1.32  0.52
 H -4.56 -0.35 -0.11
 H -3.55  0.87 -0.88
 N -2.65  0.80  2.14
 C -1.57  0.54  3.10
 C -1.95 -0.66  4.01
 O -2.34 -0.51  5.17
 H -3.40  1.43  2.43
 H -0.70  0.25  2.49
 C -1.24  1.79  3.91
 C -0.74  2.96  3.07
 C -0.38  4.20  3.91
 N  0.70  4.01  4.87
 C  1.99  3.63  4.47
 N  2.44  4.28  3.32
 N  2.61  2.74  5.16
 H -0.47  1.49  4.64
 H -2.12  2.07  4.51
 H -1.51  3.26  2.33
 H  0.14  2.66  2.49
 H -1.25  4.54  4.48
 H -0.12  5.03  3.23
 H  0.44  3.46  5.69
 H  2.14  5.25  3.22
 H  3.43  4.16  3.14
 H  3.59  2.66  4.87
 N -1.82 -1.86  3.38
 C -2.22 -3.11  4.00
 H -1.61 -1.83  2.38
 H -1.43 -3.87  3.88
 H -3.15 -3.49  3.57
 H -2.37 -2.92  5.07
