35
#
 C  0.15  0.32  1.34
 C -0.49  0.03  2.68
 O  0.19 -0.26  3.67
 H -0.12 -0.45  0.61
 H  1.23  0.32  1.47
 H -0.16  1.29  0.93
 N -1.86  0.10  2.78
 C -2.86  0.33  1.73
 C -2.79 -0.82  0.68
 O -2.86 -1.97  1.10
 H -2.20 -0.24  3.67
 H -3.82  0.09  2.21
 C -2.96  1.81  1.30
 C -4.38  2.16  0.81
 C -5.35  2.41  1.98
 N -6.73  2.04  1.73
 C -7.07  0.70  1.74
 N -8.38  0.47  1.29
 N -6.21 -0.19  2.11
 H -2.21  2.08  0.56
 H -2.73  2.41  2.19
 H -4.78  1.34  0.20
 H -4.34  3.05  0.16
 H -5.33  3.47  2.28
 H -5.03  1.83  2.86
 H -7.23  2.60  1.04
 H -8.71 -0.47  1.45
 H -9.06  1.16  1.58
 H -6.63 -1.12  2.17
 N -2.73 -0.61 -0.67
 C -2.39  0.55 -1.49
 H -2.75 -1.50 -1.16
 H -3.15  1.34 -1.44
 H -2.34  0.21 -2.53
 H -1.42  0.98 -1.23
