35
#
 C -0.51 -0.84  1.33
 C  0.27  0.09  2.24
 O  1.47 -0.09  2.48
 H  0.18 -1.62  0.98
 H -0.93 -0.31  0.47
 H -1.35 -1.32  1.86
 N -0.41  1.15  2.79
 C -1.83  1.45  2.70
 C -1.93  2.98  2.53
 O -1.79  3.73  3.50
 H  0.15  1.71  3.43
 H -2.23  0.95  1.81
 C -2.60  0.98  3.95
 C -4.09  1.32  3.96
 C -4.89  0.85  2.73
 N -4.78 -0.58  2.49
 C -4.35 -1.10  1.29
 N -4.48 -2.49  1.22
 N -3.91 -0.32  0.35
 H -2.13  1.42  4.83
 H -2.46 -0.11  4.02
 H -4.22  2.41  4.04
 H -4.54  0.90  4.87
 H -4.55  1.34  1.82
 H -5.95  1.13  2.86
 H -5.39 -1.19  3.03
 H -4.32 -2.99  2.08
 H -3.99 -2.91  0.44
 H -3.56 -0.87 -0.44
 N -2.17  3.46  1.28
 C -2.17  2.72  0.02
 H -2.13  4.48  1.23
 H -2.57  3.38 -0.76
 H -2.82  1.84  0.07
 H -1.16  2.41 -0.27
