35
#
 C  0.04 -0.14 -0.02
 C  0.08  0.00  1.48
 O  1.15  0.06  2.08
 H -0.48 -1.06 -0.34
 H  1.07 -0.19 -0.37
 H -0.46  0.71 -0.50
 N -1.09  0.09  2.22
 C -2.53 -0.03  1.99
 C -3.14 -1.21  2.80
 O -4.08 -0.98  3.57
 H -0.85  0.21  3.20
 H -3.00  0.84  2.48
 C -3.02 -0.03  0.54
 C -4.55 -0.00  0.44
 C -5.02  0.07 -1.01
 N -6.48  0.07 -1.07
 C -7.17  0.07 -2.28
 N -6.59  0.88 -3.27
 N -8.22 -0.66 -2.39
 H -2.62  0.87  0.04
 H -2.64 -0.89 -0.02
 H -4.97 -0.90  0.91
 H -4.96  0.86  1.00
 H -4.59 -0.77 -1.59
 H -4.63  0.99 -1.47
 H -6.92 -0.61 -0.45
 H -6.16  1.73 -2.94
 H -7.20  1.04 -4.07
 H -8.72 -0.48 -3.27
 N -2.65 -2.47  2.65
 C -1.54 -2.97  1.85
 H -3.11 -3.14  3.26
 H -0.56 -2.64  2.23
 H -1.57 -4.06  1.88
 H -1.63 -2.67  0.80
