35
#
 C  1.20 -0.91  0.73
 C  0.78 -2.25  1.28
 O  1.44 -3.28  1.07
 H  2.28 -0.94  0.53
 H  0.98 -0.07  1.41
 H  0.69 -0.72 -0.22
 N -0.35 -2.30  2.05
 C -1.44 -1.34  2.10
 C -2.38 -1.82  3.22
 O -2.41 -3.00  3.58
 H -0.60 -3.22  2.42
 H -1.04 -0.35  2.40
 C -2.21 -1.15  0.75
 C -2.11 -2.31 -0.25
 C -2.72 -3.64  0.19
 N -2.39 -4.73 -0.72
 C -1.65 -5.84 -0.36
 N -0.66 -5.60  0.59
 N -1.95 -6.98 -0.89
 H -1.83 -0.24  0.26
 H -3.27 -0.95  0.98
 H -1.06 -2.49 -0.52
 H -2.59 -1.99 -1.19
 H -3.82 -3.54  0.27
 H -2.37 -3.92  1.20
 H -3.11 -5.00 -1.38
 H -0.09 -6.41  0.81
 H -0.08 -4.76  0.51
 H -1.25 -7.69 -0.67
 N -3.17 -0.85  3.75
 C -4.19 -1.13  4.75
 H -3.06  0.10  3.42
 H -4.14 -2.19  5.00
 H -5.19 -0.89  4.38
 H -4.00 -0.55  5.67
