35
#
 C -1.55 -2.42  2.23
 C -0.97 -1.03  2.35
 O  0.21 -0.80  2.10
 H -1.32 -2.82  1.24
 H -2.64 -2.47  2.39
 H -1.06 -3.07  2.97
 N -1.85 -0.06  2.76
 C -1.48  1.32  3.06
 C -2.18  1.87  4.32
 O -1.54  2.51  5.15
 H -2.81 -0.36  2.90
 H -0.42  1.30  3.34
 C -1.69  2.31  1.88
 C -0.96  1.96  0.58
 C  0.50  2.42  0.48
 N  1.39  1.92  1.53
 C  1.67  2.64  2.68
 N  1.80  4.03  2.48
 N  1.75  2.01  3.80
 H -1.38  3.30  2.24
 H -2.77  2.38  1.67
 H -1.50  2.43 -0.26
 H -1.02  0.87  0.39
 H  0.53  3.52  0.49
 H  0.90  2.11 -0.50
 H  1.24  0.93  1.75
 H  2.31  4.29  1.65
 H  2.14  4.51  3.31
 H  2.06  2.62  4.55
 N -3.53  1.69  4.50
 C -4.54  1.08  3.66
 H -3.85  2.10  5.37
 H -5.51  1.56  3.85
 H -4.67 -0.00  3.85
 H -4.32  1.23  2.59
