35
#
 C  0.08 -0.04  0.68
 C -0.38  0.03  2.12
 O  0.41  0.04  3.06
 H  1.15  0.21  0.66
 H -0.47  0.65  0.02
 H -0.05 -1.05  0.28
 N -1.74  0.04  2.36
 C -2.87  0.05  1.43
 C -2.83 -1.14  0.45
 O -2.79 -1.00 -0.78
 H -1.95  0.09  3.35
 H -3.75 -0.14  2.07
 C -3.10  1.39  0.71
 C -4.53  1.91  0.92
 C -5.61  0.98  0.34
 N -6.89  1.03  1.03
 C -7.05  0.39  2.24
 N -8.27  0.69  2.85
 N -6.11 -0.36  2.72
 H -2.89  1.26 -0.36
 H -2.39  2.13  1.10
 H -4.64  2.92  0.50
 H -4.71  2.00  2.01
 H -5.29 -0.07  0.38
 H -5.79  1.20 -0.72
 H -7.42  1.89  0.93
 H -8.49  0.11  3.65
 H -9.07  0.76  2.22
 H -6.44 -0.85  3.56
 N -2.84 -2.39  1.00
 C -3.01 -2.75  2.40
 H -2.81 -3.13  0.32
 H -3.32 -3.80  2.45
 H -3.81 -2.16  2.86
 H -2.09 -2.63  2.98
