35
#
 C -0.77 -1.41  0.06
 C -0.10 -0.57  1.14
 O  1.09 -0.67  1.40
 H -0.01 -2.08 -0.35
 H -1.16 -0.78 -0.75
 H -1.60 -2.01  0.45
 N -0.90  0.32  1.82
 C -2.34  0.50  1.71
 C -2.61  2.02  1.79
 O -2.45  2.62  2.85
 H -0.43  0.83  2.56
 H -2.64  0.12  0.73
 C -3.12 -0.23  2.82
 C -4.64 -0.04  2.76
 C -5.30 -0.65  1.51
 N -6.72 -0.39  1.37
 C -7.20  0.81  0.88
 N -8.60  0.86  0.87
 N -6.53  1.83  0.45
 H -2.74  0.13  3.79
 H -2.86 -1.30  2.76
 H -4.88  1.03  2.82
 H -5.09 -0.50  3.66
 H -5.15 -1.74  1.51
 H -4.81 -0.28  0.60
 H -7.33 -0.86  2.04
 H -8.93  1.70  0.41
 H -9.05  0.02  0.52
 H -5.54  1.76  0.68
 N -3.03  2.65  0.66
 C -3.03  2.13 -0.71
 H -3.16  3.65  0.78
 H -2.02  1.86 -1.05
 H -3.41  2.92 -1.37
 H -3.70  1.27 -0.83
