35
#
 C -0.67 -0.53 -0.21
 C -0.52 -0.58  1.29
 O  0.50 -1.03  1.83
 H -0.44 -1.52 -0.63
 H  0.07  0.18 -0.60
 H -1.67 -0.22 -0.54
 N -1.54 -0.05  2.01
 C -1.60 -0.12  3.46
 C -3.06 -0.41  3.83
 O -3.98 -0.10  3.06
 H -2.43  0.17  1.57
 H -0.93 -0.94  3.77
 C -1.14  1.18  4.17
 C  0.35  1.52  4.00
 C  0.68  2.36  2.75
 N  2.09  2.66  2.63
 C  2.96  2.18  1.65
 N  2.50  1.09  0.93
 N  4.12  2.68  1.37
 H -1.36  1.07  5.24
 H -1.77  2.01  3.81
 H  0.95  0.60  3.98
 H  0.69  2.09  4.88
 H  0.11  3.30  2.79
 H  0.36  1.85  1.84
 H  2.44  3.47  3.12
 H  3.23  0.73  0.33
 H  2.00  0.35  1.43
 H  4.28  3.56  1.87
 N -3.32 -1.00  5.03
 C -2.38 -1.42  6.05
 H -4.31 -1.09  5.22
 H -2.81 -2.28  6.59
 H -2.16 -0.63  6.78
 H -1.44 -1.76  5.61
