35
#
 C  0.39  0.78  1.24
 C  0.24  0.58  2.73
 O  1.13  0.92  3.52
 H  1.46  0.78  1.01
 H -0.00  1.77  0.97
 H -0.13  0.03  0.63
 N -0.91  0.01  3.21
 C -2.17 -0.29  2.53
 C -2.03 -1.45  1.52
 O -2.27 -1.31  0.32
 H -0.94 -0.07  4.23
 H -2.81 -0.67  3.34
 C -2.89  0.91  1.87
 C -2.79  2.26  2.60
 C -3.70  2.46  3.83
 N -3.60  1.47  4.90
 C -2.44  1.17  5.61
 N -1.53  2.19  5.73
 N -2.19  0.03  6.18
 H -3.94  0.64  1.71
 H -2.48  1.03  0.86
 H -3.06  3.06  1.89
 H -1.74  2.45  2.87
 H -4.75  2.46  3.51
 H -3.53  3.46  4.25
 H -4.21  0.67  4.79
 H -0.62  1.87  6.06
 H -1.46  2.87  4.98
 H -2.99 -0.61  6.11
 N -1.63 -2.66  2.02
 C -1.26 -3.00  3.39
 H -1.51 -3.36  1.30
 H -1.34 -4.09  3.50
 H -1.93 -2.54  4.12
 H -0.23 -2.70  3.63
