35
#
 C  3.35 -1.52  0.62
 C  2.82 -0.53  1.63
 O  3.57  0.20  2.28
 H  4.03 -2.22  1.13
 H  3.95 -0.98 -0.13
 H  2.57 -2.09  0.11
 N  1.47 -0.49  1.77
 C  0.81  0.43  2.70
 C  0.78 -0.20  4.12
 O -0.21 -0.78  4.56
 H  0.90 -1.18  1.29
 H  1.45  1.32  2.73
 C -0.59  0.79  2.20
 C -1.30  1.88  3.01
 C -0.58  3.23  3.00
 N -1.38  4.23  3.68
 C -0.94  5.48  4.10
 N  0.43  5.70  3.93
 N -1.65  6.39  4.68
 H -1.21 -0.12  2.23
 H -0.50  1.10  1.15
 H -1.42  1.54  4.05
 H -2.31  2.01  2.60
 H -0.37  3.51  1.94
 H  0.38  3.16  3.52
 H -2.39  4.14  3.61
 H  0.66  6.66  4.17
 H  0.83  5.40  3.05
 H -2.60  6.05  4.87
 N  1.95 -0.06  4.79
 C  2.19 -0.67  6.08
 H  2.74  0.30  4.24
 H  1.23 -0.93  6.52
 H  2.72  0.03  6.74
 H  2.80 -1.58  5.99
