35
#
 C -0.21 -0.61  0.06
 C -0.09 -0.82  1.55
 O  0.97 -1.13  2.09
 H  0.74 -0.90 -0.41
 H -0.43  0.44 -0.18
 H -1.02 -1.22 -0.38
 N -1.23 -0.66  2.30
 C -2.52 -0.14  1.86
 C -2.53  1.33  1.40
 O -3.18  1.64  0.40
 H -1.08 -0.80  3.30
 H -2.83 -0.68  0.96
 C -3.56 -0.38  2.97
 C -4.98  0.11  2.67
 C -5.66 -0.62  1.51
 N -7.03 -0.15  1.35
 C -7.91 -0.81  0.50
 N -9.12 -0.12  0.37
 N -7.74 -1.92 -0.12
 H -3.21  0.10  3.90
 H -3.58 -1.47  3.18
 H -4.96  1.19  2.46
 H -5.59 -0.02  3.57
 H -5.70 -1.70  1.74
 H -5.08 -0.50  0.59
 H -7.11  0.86  1.31
 H -9.80 -0.67 -0.15
 H -9.50  0.25  1.24
 H -6.78 -2.24 -0.06
 N -1.83  2.28  2.09
 C -1.01  2.17  3.29
 H -1.91  3.20  1.67
 H -1.53  1.63  4.09
 H -0.82  3.19  3.66
 H -0.04  1.69  3.10
