35
#
 C -0.04 -1.24  0.32
 C -0.12 -1.17  1.83
 O  0.37 -2.02  2.58
 H  0.35 -2.22  0.03
 H  0.64 -0.45 -0.05
 H -1.01 -1.07 -0.15
 N -0.79 -0.08  2.32
 C -0.92  0.13  3.75
 C -2.15  0.99  4.02
 O -2.49  1.90  3.26
 H -1.19  0.59  1.68
 H -1.03 -0.87  4.20
 C  0.34  0.74  4.44
 C  0.66  2.24  4.28
 C  1.10  2.73  2.90
 N -0.03  2.90  1.99
 C  0.05  2.50  0.67
 N -1.22  2.23  0.12
 N  1.09  2.28 -0.06
 H  1.19  0.14  4.09
 H  0.25  0.53  5.51
 H  1.48  2.46  4.98
 H -0.19  2.85  4.63
 H  1.81  2.01  2.47
 H  1.64  3.68  3.01
 H -0.94  2.76  2.42
 H -1.18  2.19 -0.89
 H -1.98  2.81  0.47
 H  1.95  2.45  0.46
 N -2.84  0.75  5.17
 C -2.63 -0.31  6.14
 H -3.61  1.39  5.32
 H -3.45 -0.28  6.87
 H -1.68 -0.19  6.69
 H -2.63 -1.31  5.67
