35
#
 C -2.69 -0.16  1.00
 C -1.65  0.06  2.09
 O -0.52  0.48  1.85
 H -3.64 -0.57  1.38
 H -2.27 -0.85  0.26
 H -2.88  0.79  0.50
 N -2.08 -0.23  3.36
 C -1.23 -0.17  4.54
 C -0.54  1.21  4.73
 O  0.65  1.29  5.01
 H -3.00 -0.64  3.53
 H -1.94 -0.26  5.37
 C -0.20 -1.30  4.66
 C -0.54 -2.64  4.00
 C -1.94 -3.25  4.24
 N -2.45 -3.12  5.60
 C -3.60 -2.42  5.88
 N -4.09 -2.64  7.18
 N -4.17 -1.66  4.99
 H -0.00 -1.45  5.73
 H  0.75 -0.95  4.23
 H  0.22 -3.36  4.32
 H -0.43 -2.56  2.91
 H -1.92 -4.32  3.97
 H -2.68 -2.77  3.60
 H -2.19 -3.83  6.27
 H -4.74 -1.94  7.50
 H -3.39 -2.86  7.88
 H -5.00 -1.21  5.37
 N -1.32  2.33  4.67
 C -2.74  2.46  4.41
 H -0.78  3.18  4.76
 H -3.09  3.41  4.85
 H -3.31  1.65  4.89
 H -2.99  2.46  3.34
