35
#
 C -0.50 -0.02 -1.08
 C  0.21  0.21  0.24
 O  1.43  0.35  0.31
 H -1.24  0.78 -1.29
 H -1.04 -0.98 -1.10
 H  0.25 -0.02 -1.87
 N -0.57  0.27  1.37
 C -2.01  0.11  1.49
 C -2.44  0.91  2.73
 O -1.67  1.10  3.67
 H -0.09  0.49  2.24
 H -2.49  0.54  0.60
 C -2.46 -1.37  1.62
 C -1.82 -2.13  2.78
 C -2.34 -3.57  2.88
 N -1.74 -4.34  3.96
 C -2.35 -4.59  5.18
 N -3.31 -3.65  5.55
 N -2.11 -5.59  5.97
 H -2.22 -1.88  0.67
 H -3.55 -1.40  1.71
 H -2.01 -1.60  3.73
 H -0.72 -2.14  2.67
 H -2.14 -4.09  1.93
 H -3.43 -3.56  3.01
 H -1.05 -5.03  3.69
 H -3.63 -3.83  6.50
 H -3.04 -2.68  5.42
 H -1.51 -6.28  5.53
 N -3.74  1.33  2.78
 C -4.73  1.33  1.71
 H -3.97  1.84  3.63
 H -5.64  1.80  2.08
 H -4.99  0.31  1.39
 H -4.39  1.90  0.83
