35
#
 C  0.81 -0.41  0.77
 C  0.22  0.57  1.77
 O  0.92  1.31  2.46
 H  1.48 -1.09  1.30
 H  1.42  0.15  0.04
 H  0.06 -1.00  0.23
 N -1.15  0.57  1.85
 C -1.87  1.46  2.75
 C -1.89  1.08  4.24
 O -1.93  2.01  5.06
 H -1.67 -0.06  1.26
 H -1.37  2.43  2.73
 C -3.33  1.61  2.24
 C -4.20  2.65  2.98
 C -5.30  2.08  3.90
 N -4.77  1.42  5.09
 C -5.18  0.23  5.61
 N -6.47 -0.16  5.23
 N -4.37 -0.46  6.35
 H -3.83  0.62  2.28
 H -3.26  1.89  1.18
 H -4.72  3.27  2.24
 H -3.56  3.33  3.56
 H -5.91  1.35  3.34
 H -5.97  2.91  4.18
 H -3.85  1.73  5.42
 H -7.16  0.58  5.18
 H -6.81 -0.98  5.73
 H -4.85 -1.25  6.80
 N -2.00 -0.21  4.65
 C -2.16 -1.41  3.85
 H -2.39 -0.28  5.60
 H -2.46 -2.21  4.53
 H -1.22 -1.71  3.36
 H -2.95 -1.33  3.09
