35
#
 C -3.56 -3.14  1.35
 C -3.17 -2.68  2.74
 O -3.66 -3.21  3.75
 H -4.64 -2.97  1.22
 H -3.39 -4.22  1.27
 H -3.02 -2.63  0.54
 N -2.26 -1.68  2.80
 C -1.79 -0.96  4.00
 C -0.83 -1.78  4.91
 O  0.24 -1.27  5.27
 H -1.89 -1.34  1.92
 H -1.16 -0.15  3.62
 C -2.92 -0.34  4.83
 C -3.82  0.62  4.03
 C -4.92  1.27  4.89
 N -4.46  2.17  5.93
 C -4.01  3.45  5.65
 N -3.45  4.07  6.78
 N -4.06  4.09  4.54
 H -2.43  0.21  5.65
 H -3.53 -1.13  5.28
 H -4.31  0.07  3.22
 H -3.21  1.40  3.56
 H -5.52  0.48  5.37
 H -5.61  1.83  4.24
 H -4.02  1.73  6.73
 H -3.98  3.95  7.64
 H -3.26  5.05  6.58
 H -4.36  3.50  3.77
 N -1.28 -3.00  5.29
 C -0.52 -3.87  6.16
 H -2.20 -3.29  4.94
 H -1.04 -4.02  7.12
 H  0.45 -3.39  6.36
 H -0.35 -4.85  5.69
