35
#
 C -0.06 -0.09 -0.03
 C  0.01  0.06  1.48
 O  1.07  0.34  2.04
 H  0.63 -0.89 -0.33
 H  0.30  0.84 -0.49
 H -1.06 -0.32 -0.41
 N -1.16 -0.14  2.14
 C -1.37 -0.13  3.60
 C -1.30  1.28  4.23
 O -2.27  1.74  4.84
 H -1.99 -0.31  1.57
 H -2.43 -0.41  3.74
 C -0.50 -1.17  4.33
 C -0.89 -1.34  5.80
 C  0.03 -2.28  6.57
 N  0.18 -3.63  6.02
 C -0.84 -4.56  6.13
 N -0.55 -5.74  5.42
 N -1.91 -4.29  6.80
 H  0.56 -0.88  4.24
 H -0.62 -2.12  3.79
 H -1.93 -1.71  5.87
 H -0.87 -0.36  6.31
 H -0.34 -2.39  7.59
 H  1.05 -1.85  6.63
 H  0.75 -3.71  5.19
 H -1.20 -6.49  5.62
 H  0.41 -6.05  5.50
 H -2.50 -5.12  6.89
 N -0.10  1.91  4.09
 C  0.13  3.25  4.61
 H  0.59  1.46  3.49
 H -0.72  3.52  5.24
 H  0.23  3.98  3.80
 H  1.05  3.27  5.21
