35
#
 C  0.23  1.14 -0.18
 C  0.35  0.61  1.24
 O  1.44  0.47  1.78
 H -0.40  2.04 -0.23
 H -0.20  0.38 -0.84
 H  1.24  1.38 -0.52
 N -0.80  0.28  1.93
 C -2.21  0.19  1.53
 C -2.44 -1.12  0.72
 O -2.38 -2.18  1.34
 H -0.58 -0.19  2.80
 H -2.72 -0.07  2.47
 C -2.82  1.52  1.07
 C -4.35  1.53  1.15
 C -4.99  2.85  0.67
 N -4.88  3.11 -0.76
 C -3.75  3.59 -1.41
 N -2.97  4.46 -0.66
 N -3.38  3.30 -2.62
 H -2.49  1.81  0.07
 H -2.42  2.30  1.74
 H -4.66  1.36  2.19
 H -4.78  0.70  0.57
 H -4.54  3.69  1.22
 H -6.06  2.85  0.93
 H -5.42  2.47 -1.34
 H -2.26  4.90 -1.24
 H -3.48  5.13 -0.09
 H -3.96  2.56 -3.02
 N -2.63 -1.16 -0.64
 C -2.91 -0.14 -1.64
 H -2.73 -2.12 -0.95
 H -2.85 -0.61 -2.63
 H -2.19  0.68 -1.63
 H -3.92  0.29 -1.53
