35
#
 C  0.02 -0.86  0.57
 C -0.48 -1.58  1.81
 O  0.12 -2.57  2.26
 H  0.03  0.24  0.70
 H -0.60 -1.10 -0.30
 H  1.03 -1.20  0.37
 N -1.62 -1.14  2.40
 C -2.53 -0.09  1.97
 C -2.85  0.77  3.21
 O -2.97  0.26  4.32
 H -1.87 -1.60  3.28
 H -2.03  0.50  1.20
 C -3.87 -0.62  1.41
 C -3.84 -1.37  0.07
 C -3.74 -2.91  0.14
 N -2.41 -3.46  0.34
 C -1.52 -3.68 -0.69
 N -0.34 -4.28 -0.26
 N -1.68 -3.41 -1.95
 H -4.53  0.26  1.30
 H -4.35 -1.24  2.19
 H -3.04 -0.99 -0.58
 H -4.78 -1.15 -0.45
 H -4.17 -3.33 -0.79
 H -4.38 -3.28  0.96
 H -2.21 -3.91  1.22
 H  0.35 -4.31 -1.00
 H  0.03 -3.93  0.62
 H -2.63 -3.09 -2.14
 N -3.05  2.11  3.00
 C -2.89  2.85  1.76
 H -3.29  2.62  3.85
 H -3.14  3.90  1.96
 H -3.57  2.50  0.97
 H -1.86  2.82  1.38
