35
#
 C -1.05 -1.07 -0.29
 C -1.14 -1.19  1.22
 O -1.22 -2.28  1.77
 H -0.15 -1.59 -0.63
 H -1.02 -0.03 -0.65
 H -1.91 -1.58 -0.74
 N -1.10  0.00  1.89
 C -1.31  0.07  3.33
 C -2.57  0.90  3.60
 O -2.89  1.86  2.89
 H -1.26  0.87  1.38
 H -1.47 -0.96  3.64
 C -0.07  0.66  4.04
 C -0.15  0.81  5.57
 C -0.06 -0.48  6.41
 N -1.12 -1.47  6.14
 C -0.81 -2.53  5.27
 N -1.88 -3.42  5.11
 N  0.35 -2.60  4.72
 H  0.12  1.65  3.61
 H  0.78  0.01  3.78
 H -1.06  1.37  5.85
 H  0.69  1.44  5.89
 H -0.13 -0.21  7.47
 H  0.91 -0.96  6.24
 H -1.61 -1.79  6.97
 H -1.78 -4.02  4.30
 H -2.80 -2.98  5.13
 H  0.37 -3.33  4.00
 N -3.28  0.49  4.68
 C -4.43  1.21  5.20
 H -2.85 -0.24  5.25
 H -5.27  0.53  5.38
 H -4.72  1.95  4.44
 H -4.19  1.75  6.13
