35
#
 C  0.14 -0.51  0.12
 C  0.03 -0.59  1.63
 O  0.93 -1.05  2.33
 H  1.08  0.00 -0.14
 H -0.70  0.01 -0.36
 H  0.21 -1.53 -0.28
 N -1.13 -0.09  2.16
 C -1.48 -0.25  3.55
 C -2.94 -0.73  3.60
 O -3.75 -0.41  2.72
 H -1.92  0.12  1.55
 H -0.80 -1.02  3.97
 C -1.33  1.06  4.36
 C  0.11  1.56  4.44
 C  0.20  2.92  5.14
 N  1.57  3.42  5.28
 C  2.13  4.39  4.47
 N  1.63  4.40  3.16
 N  3.00  5.20  4.97
 H -1.72  0.89  5.38
 H -1.98  1.82  3.90
 H  0.52  1.64  3.42
 H  0.75  0.83  4.96
 H -0.23  2.84  6.15
 H -0.41  3.66  4.61
 H  1.92  3.51  6.23
 H  2.14  5.00  2.54
 H  1.46  3.48  2.75
 H  3.44  5.77  4.25
 N -3.27 -1.47  4.70
 C -4.62 -1.94  4.95
 H -2.54 -1.72  5.34
 H -5.00 -1.56  5.91
 H -4.66 -3.04  4.97
 H -5.26 -1.58  4.14
