35
#
 C -2.71 -0.53  1.19
 C -1.99  0.26  2.27
 O -1.94  1.49  2.26
 H -2.41 -0.15  0.21
 H -3.79 -0.36  1.29
 H -2.52 -1.61  1.24
 N -1.47 -0.50  3.29
 C -0.55  0.07  4.27
 C  0.62 -0.93  4.38
 O  0.51 -2.08  3.97
 H -1.26 -1.49  3.12
 H -0.19  1.03  3.85
 C -1.19  0.35  5.65
 C -2.25  1.46  5.67
 C -3.68  1.04  5.30
 N -4.29  0.11  6.26
 C -4.63 -1.21  6.02
 N -3.89 -1.86  5.06
 N -5.51 -1.89  6.69
 H -0.37  0.63  6.33
 H -1.60 -0.59  6.05
 H -1.94  2.27  4.99
 H -2.28  1.89  6.68
 H -3.72  0.61  4.29
 H -4.30  1.95  5.25
 H -4.85  0.54  6.97
 H -4.29 -2.74  4.76
 H -3.37 -1.34  4.37
 H -5.98 -1.31  7.38
 N  1.74 -0.45  4.98
 C  2.91 -1.26  5.23
 H  1.75  0.52  5.27
 H  3.80 -0.84  4.74
 H  2.72 -2.26  4.83
 H  3.12 -1.35  6.31
