35
#
 C -1.17 -1.64 -0.19
 C -0.56 -0.55  0.67
 O  0.07  0.39  0.19
 H -0.70 -2.61 -0.01
 H -1.02 -1.37 -1.24
 H -2.25 -1.76 -0.00
 N -0.76 -0.63  2.03
 C -1.19 -1.81  2.77
 C -1.88 -1.37  4.09
 O -1.83 -2.06  5.11
 H -0.27  0.09  2.57
 H -1.99 -2.28  2.19
 C -0.10 -2.90  3.05
 C  1.33 -2.66  2.57
 C  2.09 -1.44  3.15
 N  1.75 -1.09  4.51
 C  0.99  0.01  4.86
 N  0.41 -0.12  6.12
 N  0.80  1.09  4.17
 H -0.44 -3.84  2.59
 H -0.12 -3.09  4.13
 H  1.38 -2.58  1.47
 H  1.89 -3.57  2.82
 H  1.90 -0.55  2.53
 H  3.17 -1.62  3.07
 H  1.87 -1.79  5.23
 H -0.12  0.72  6.35
 H -0.15 -0.96  6.25
 H  1.46  1.16  3.39
 N -2.56 -0.20  4.01
 C -3.20  0.42  5.15
 H -2.43  0.34  3.16
 H -4.24  0.70  4.90
 H -2.66  1.33  5.46
 H -3.21 -0.30  5.97
