35
#
 C  1.79  0.49  0.48
 C  1.13  1.00  1.74
 O  1.73  1.76  2.51
 H  2.67 -0.11  0.76
 H  2.16  1.34 -0.10
 H  1.14 -0.12 -0.16
 N -0.15  0.56  1.93
 C -1.06  0.76  3.07
 C -2.24  1.72  2.75
 O -3.39  1.31  2.92
 H -0.52 -0.03  1.20
 H -1.59 -0.20  3.18
 C -0.37  1.02  4.42
 C -1.33  0.90  5.62
 C -2.09  2.18  5.98
 N -2.98  2.06  7.12
 C -4.24  1.47  7.01
 N -4.82  1.27  8.27
 N -4.88  1.12  5.96
 H  0.13  2.00  4.44
 H  0.43  0.28  4.52
 H -0.73  0.61  6.51
 H -2.05  0.08  5.46
 H -2.70  2.53  5.13
 H -1.37  2.99  6.19
 H -2.51  1.87  8.00
 H -5.79  0.97  8.16
 H -4.74  2.06  8.90
 H -4.33  1.18  5.10
 N -2.00  2.99  2.33
 C -0.76  3.69  2.05
 H -2.87  3.49  2.15
 H -0.85  4.73  2.37
 H -0.52  3.67  0.97
 H  0.08  3.24  2.59
