35
#
 C -1.47  0.59  0.09
 C -0.69  0.43  1.38
 O  0.45 -0.04  1.41
 H -1.79 -0.40 -0.25
 H -0.81  1.00 -0.68
 H -2.36  1.23  0.19
 N -1.33  0.86  2.52
 C -0.84  0.57  3.87
 C  0.53  1.24  4.16
 O  1.33  0.77  4.97
 H -2.31  1.11  2.44
 H -1.55  1.07  4.55
 C -0.81 -0.94  4.21
 C -0.98 -1.21  5.71
 C -0.64 -2.66  6.10
 N  0.66 -3.15  5.63
 C  1.86 -2.91  6.30
 N  2.01 -1.62  6.77
 N  2.80 -3.78  6.49
 H  0.13 -1.37  3.86
 H -1.63 -1.42  3.65
 H -2.02 -1.01  6.02
 H -0.35 -0.53  6.29
 H -1.40 -3.33  5.67
 H -0.72 -2.75  7.20
 H  0.62 -4.11  5.29
 H  2.93 -1.48  7.16
 H  1.73 -0.87  6.13
 H  2.50 -4.72  6.24
 N  0.73  2.43  3.53
 C  1.98  3.15  3.63
 H  0.09  2.66  2.78
 H  1.80  4.23  3.53
 H  2.70  2.84  2.86
 H  2.42  2.95  4.61
