35
#
 C -1.67 -1.57  0.07
 C -1.10 -1.26  1.44
 O -0.34 -2.04  2.02
 H -2.20 -2.53  0.12
 H -0.84 -1.68 -0.63
 H -2.36 -0.80 -0.30
 N -1.47 -0.06  1.99
 C -0.94  0.43  3.26
 C -1.73 -0.19  4.45
 O -2.55  0.46  5.09
 H -2.13  0.53  1.49
 H  0.10  0.06  3.31
 C -0.96  1.95  3.30
 C -0.08  2.53  4.40
 C -0.23  4.05  4.58
 N  0.08  4.85  3.41
 C -0.79  5.09  2.35
 N -2.10  5.36  2.70
 N -0.30  5.13  1.15
 H -2.01  2.27  3.45
 H -0.63  2.34  2.32
 H  0.97  2.29  4.19
 H -0.33  2.05  5.37
 H  0.44  4.38  5.40
 H -1.24  4.28  4.93
 H  1.02  4.73  3.04
 H -2.79  5.17  1.99
 H -2.41  5.12  3.63
 H -0.99  5.48  0.48
 N -1.42 -1.49  4.68
 C -2.11 -2.29  5.66
 H -0.83 -1.94  3.98
 H -1.40 -2.90  6.23
 H -2.85 -2.96  5.19
 H -2.65 -1.62  6.34
