35
#
 C  0.02 -0.90  0.57
 C -0.74 -0.65  1.86
 O -1.05 -1.56  2.63
 H  0.03 -0.04 -0.10
 H -0.43 -1.76  0.06
 H  1.05 -1.16  0.83
 N -1.03  0.66  2.13
 C -1.59  1.09  3.42
 C -2.08  2.53  3.24
 O -1.45  3.50  3.66
 H -0.62  1.37  1.54
 H -2.46  0.43  3.61
 C -0.63  0.93  4.62
 C  0.84  1.20  4.32
 C  1.77  0.83  5.48
 N  1.59 -0.52  6.05
 C  2.12 -1.67  5.45
 N  1.80 -1.83  4.10
 N  2.83 -2.58  6.04
 H -0.73 -0.09  5.00
 H -0.98  1.61  5.41
 H  1.00  2.26  4.09
 H  1.16  0.64  3.43
 H  1.59  1.52  6.32
 H  2.82  0.99  5.16
 H  1.78 -0.53  7.04
 H  2.13 -2.73  3.77
 H  0.82 -1.68  3.86
 H  3.12 -2.26  6.97
 N -3.25  2.69  2.54
 C -4.16  1.66  2.06
 H -3.54  3.66  2.47
 H -4.86  2.11  1.36
 H -4.74  1.20  2.88
 H -3.61  0.87  1.53
