35
#
 C -0.12 -1.76 -0.03
 C  0.44 -1.06  1.21
 O  1.64 -1.00  1.42
 H -0.62 -1.05 -0.70
 H -0.83 -2.55  0.22
 H  0.73 -2.20 -0.56
 N -0.46 -0.50  2.07
 C -1.91 -0.39  1.96
 C -2.29  1.08  2.22
 O -1.70  1.75  3.06
 H -0.05  0.07  2.82
 H -2.20 -0.68  0.94
 C -2.65 -1.28  2.98
 C -2.40 -2.77  2.80
 C -3.00 -3.63  3.92
 N -2.35 -3.35  5.19
 C -2.88 -3.83  6.39
 N -2.04 -3.56  7.47
 N -3.99 -4.45  6.58
 H -3.73 -1.07  2.90
 H -2.35 -0.96  3.99
 H -1.31 -2.96  2.75
 H -2.82 -3.12  1.84
 H -2.93 -4.70  3.64
 H -4.07 -3.40  4.03
 H -1.34 -3.34  5.16
 H -2.49 -3.80  8.35
 H -1.64 -2.63  7.49
 H -4.43 -4.71  5.70
 N -3.33  1.55  1.48
 C -3.89  2.88  1.65
 H -3.75  0.94  0.79
 H -3.82  3.46  0.72
 H -3.29  3.39  2.42
 H -4.93  2.84  1.97
