35
#
 C -1.14  1.35 -0.44
 C -0.83  0.61  0.85
 O  0.31  0.29  1.17
 H -0.78  0.75 -1.28
 H -0.57  2.29 -0.45
 H -2.20  1.58 -0.58
 N -1.92  0.35  1.64
 C -1.83 -0.49  2.82
 C -3.04 -1.43  2.80
 O -4.08 -1.11  2.23
 H -2.86  0.47  1.28
 H -0.88 -1.04  2.74
 C -1.82  0.32  4.14
 C -0.61  1.23  4.29
 C -0.53  1.90  5.67
 N -0.45  0.95  6.78
 C  0.73  0.53  7.39
 N  1.88  0.74  6.63
 N  0.84 -0.00  8.56
 H -1.86 -0.38  4.98
 H -2.75  0.91  4.18
 H -0.62  2.02  3.52
 H  0.31  0.64  4.10
 H -1.43  2.51  5.83
 H  0.33  2.58  5.71
 H -1.26  0.89  7.39
 H  2.68  0.28  7.07
 H  1.81  0.55  5.64
 H -0.05  0.03  9.07
 N -2.92 -2.61  3.47
 C -1.74 -3.16  4.12
 H -3.77 -3.17  3.47
 H -1.95 -4.20  4.40
 H -1.47 -2.62  5.04
 H -0.87 -3.16  3.45
