35
#
 C  0.45 -2.06  1.05
 C -0.09 -1.54  2.37
 O -0.16 -2.24  3.37
 H  1.49 -2.38  1.20
 H  0.42 -1.32  0.24
 H -0.13 -2.94  0.76
 N -0.48 -0.23  2.36
 C -1.08  0.39  3.53
 C -2.01  1.49  3.02
 O -1.83  2.01  1.90
 H -0.52  0.32  1.51
 H -1.65 -0.39  4.05
 C -0.01  0.92  4.52
 C  0.92  2.01  3.97
 C  0.39  3.45  4.12
 N  1.19  4.48  3.48
 C  1.30  4.65  2.11
 N  0.18  4.30  1.36
 N  2.39  5.20  1.66
 H  0.57  0.04  4.82
 H -0.51  1.28  5.44
 H  1.15  1.81  2.91
 H  1.89  1.95  4.49
 H  0.31  3.70  5.19
 H -0.64  3.53  3.73
 H  2.08  4.69  3.93
 H -0.45  3.58  1.69
 H  0.35  4.25  0.36
 H  2.33  5.37  0.66
 N -3.01  1.91  3.83
 C -3.36  1.46  5.16
 H -3.54  2.69  3.44
 H -2.84  2.03  5.95
 H -3.12  0.40  5.29
 H -4.44  1.57  5.31
