35
#
 C  0.54 -0.78 -0.04
 C  0.25 -0.69  1.44
 O  1.02 -1.13  2.29
 H -0.25 -0.35 -0.67
 H  0.68 -1.83 -0.31
 H  1.48 -0.25 -0.25
 N -0.92 -0.06  1.77
 C -1.37  0.04  3.15
 C -2.90  0.09  3.11
 O -3.49  0.47  2.09
 H -1.60  0.21  1.07
 H -1.01 -0.87  3.67
 C -0.75  1.27  3.87
 C -1.24  2.63  3.35
 C -2.47  3.17  4.12
 N -3.14  4.26  3.44
 C -4.48  4.26  3.08
 N -5.03  3.00  2.86
 N -5.09  5.40  3.00
 H  0.33  1.17  3.74
 H -0.93  1.18  4.96
 H -1.50  2.56  2.29
 H -0.43  3.36  3.42
 H -2.15  3.49  5.13
 H -3.20  2.37  4.28
 H -2.83  5.20  3.65
 H -5.95  3.03  2.44
 H -4.44  2.28  2.43
 H -6.02  5.29  2.60
 N -3.58 -0.26  4.23
 C -3.07 -0.67  5.52
 H -4.58 -0.10  4.15
 H -3.79 -1.33  6.00
 H -2.89  0.19  6.19
 H -2.13 -1.22  5.41
