35
#
 C -2.63  0.13  0.46
 C -1.97 -0.28  1.76
 O -1.09 -1.13  1.82
 H -2.86 -0.76 -0.12
 H -1.92  0.73 -0.12
 H -3.55  0.73  0.60
 N -2.43  0.37  2.89
 C -1.70  0.27  4.16
 C -2.05 -1.01  4.95
 O -1.28 -1.47  5.80
 H -3.02  1.18  2.76
 H -0.64  0.18  3.91
 C -1.95  1.56  4.97
 C -1.32  1.67  6.36
 C  0.21  1.77  6.41
 N  0.89  0.56  6.00
 C  1.51  0.49  4.76
 N  1.88 -0.82  4.41
 N  1.74  1.56  4.07
 H -3.04  1.68  5.07
 H -1.59  2.39  4.34
 H -1.66  0.84  7.00
 H -1.72  2.59  6.83
 H  0.51  2.03  7.44
 H  0.58  2.58  5.76
 H  0.40 -0.30  6.26
 H  1.95 -0.95  3.41
 H  1.32 -1.55  4.84
 H  2.26  1.32  3.22
 N -3.26 -1.56  4.67
 C -3.72 -2.79  5.28
 H -3.75 -1.18  3.87
 H -4.76 -2.69  5.62
 H -3.08 -3.01  6.13
 H -3.67 -3.64  4.57
