35
#
 C -0.04 -0.11  0.79
 C -0.60  0.23  2.16
 O  0.10  0.73  3.03
 H  1.02 -0.35  0.91
 H -0.11  0.77  0.13
 H -0.56 -0.94  0.30
 N -1.92 -0.06  2.42
 C -3.03 -0.31  1.49
 C -3.11 -1.76  0.97
 O -3.80 -2.05 -0.00
 H -2.21  0.23  3.36
 H -3.93 -0.20  2.12
 C -3.18  0.68  0.31
 C -3.01  2.18  0.61
 C -3.98  2.82  1.61
 N -3.57  2.74  3.02
 C -4.00  1.80  3.94
 N -5.29  1.31  3.72
 N -3.32  1.34  4.94
 H -4.17  0.50 -0.12
 H -2.47  0.41 -0.48
 H -3.12  2.71 -0.34
 H -1.98  2.39  0.95
 H -4.98  2.37  1.52
 H -4.09  3.89  1.36
 H -2.60  3.02  3.18
 H -5.60  0.77  4.52
 H -5.98  1.99  3.42
 H -2.36  1.70  4.94
 N -2.40 -2.67  1.70
 C -2.40 -4.09  1.41
 H -1.86 -2.30  2.48
 H -2.82 -4.66  2.24
 H -1.39 -4.45  1.20
 H -3.03 -4.24  0.52
