35
#
 C -0.39 -0.87  0.28
 C -0.41 -0.89  1.80
 O  0.55 -1.31  2.45
 H  0.54 -0.40 -0.05
 H -1.25 -0.34 -0.15
 H -0.39 -1.90 -0.09
 N -1.56 -0.42  2.35
 C -1.74 -0.31  3.79
 C -2.67 -1.45  4.28
 O -3.89 -1.38  4.13
 H -2.31 -0.04  1.75
 H -0.74 -0.41  4.23
 C -2.35  1.04  4.21
 C -1.61  2.29  3.72
 C -1.93  2.74  2.28
 N -3.35  2.94  2.03
 C -4.12  2.06  1.34
 N -5.45  2.49  1.18
 N -3.63  0.96  0.85
 H -2.37  1.05  5.31
 H -3.40  1.06  3.89
 H -0.52  2.15  3.79
 H -1.85  3.12  4.40
 H -1.56  2.02  1.55
 H -1.41  3.69  2.08
 H -3.73  3.87  2.16
 H -6.07  1.76  0.85
 H -5.84  2.97  1.98
 H -4.35  0.38  0.44
 N -2.09 -2.55  4.84
 C -0.68 -2.81  5.11
 H -2.76 -3.24  5.13
 H -0.52 -3.90  5.12
 H -0.36 -2.41  6.08
 H -0.04 -2.39  4.32
