35
#
 C -2.70  1.66 -2.61
 C -1.60  1.88 -1.60
 O -0.73  2.74 -1.78
 H -3.52  2.37 -2.40
 H -3.09  0.64 -2.61
 H -2.30  1.90 -3.59
 N -1.53  1.11 -0.46
 C -2.48  0.22  0.19
 C -2.58 -1.16 -0.50
 O -2.43 -1.33 -1.70
 H -0.71  1.36  0.09
 H -2.05  0.05  1.19
 C -3.88  0.84  0.40
 C -3.90  2.00  1.43
 C -4.33  3.36  0.86
 N -3.35  3.89 -0.05
 C -3.64  4.82 -1.05
 N -2.50  5.26 -1.70
 N -4.80  5.26 -1.40
 H -4.56  0.05  0.73
 H -4.27  1.18 -0.56
 H -2.90  2.12  1.89
 H -4.58  1.75  2.25
 H -4.55  4.05  1.69
 H -5.28  3.23  0.31
 H -2.39  3.93  0.30
 H -2.73  5.81 -2.52
 H -1.78  4.55 -1.87
 H -5.53  4.96 -0.74
 N -2.90 -2.21  0.33
 C -2.99 -2.23  1.78
 H -2.97 -3.09 -0.17
 H -2.03 -1.98  2.27
 H -3.26 -3.25  2.09
 H -3.76 -1.56  2.16
