35
#
 C  0.84 -0.18 -0.93
 C  0.48  0.75  0.21
 O  1.36  1.45  0.76
 H  1.30 -1.08 -0.50
 H  1.58  0.31 -1.57
 H -0.03 -0.48 -1.53
 N -0.82  0.76  0.57
 C -1.50  1.29  1.78
 C -1.41  2.81  2.08
 O -2.35  3.33  2.68
 H -1.41  0.14  0.03
 H -2.57  1.17  1.55
 C -1.23  0.45  3.04
 C  0.17  0.55  3.67
 C  0.86 -0.81  3.88
 N  1.05 -1.57  2.64
 C  2.29 -1.73  2.03
 N  3.13 -0.62  2.13
 N  2.55 -2.86  1.45
 H -1.44 -0.60  2.77
 H -2.00  0.74  3.78
 H  0.11  1.05  4.65
 H  0.83  1.18  3.06
 H  0.25 -1.43  4.55
 H  1.83 -0.66  4.37
 H  0.54 -2.45  2.58
 H  4.00 -0.73  1.62
 H  2.68  0.27  1.91
 H  3.42 -2.81  0.92
 N -0.30  3.47  1.69
 C -0.12  4.88  1.99
 H  0.48  2.91  1.33
 H  0.64  5.29  1.32
 H  0.19  5.04  3.03
 H -1.07  5.41  1.83
