35
#
 C  0.11 -1.56 -0.37
 C -0.27 -1.95  1.05
 O -0.18 -3.11  1.47
 H  1.16 -1.84 -0.54
 H -0.02 -0.49 -0.58
 H -0.50 -2.15 -1.07
 N -0.72 -0.93  1.83
 C -1.17 -1.14  3.20
 C -2.25 -0.09  3.47
 O -2.14  1.05  3.00
 H -0.83  0.02  1.48
 H -1.55 -2.17  3.25
 C  0.02 -1.00  4.19
 C -0.30 -1.30  5.65
 C  0.93 -1.21  6.56
 N  1.50  0.13  6.62
 C  2.83  0.44  6.36
 N  3.42 -0.35  5.37
 N  3.39  1.38  7.05
 H  0.41  0.03  4.10
 H  0.79 -1.69  3.83
 H -0.72 -2.32  5.75
 H -1.07 -0.60  6.03
 H  1.71 -1.90  6.20
 H  0.67 -1.55  7.57
 H  1.16  0.73  7.37
 H  4.34 -0.03  5.08
 H  2.83 -0.58  4.57
 H  4.31  1.61  6.66
 N -3.32 -0.42  4.24
 C -3.67 -1.69  4.85
 H -3.95  0.36  4.40
 H -4.76 -1.85  4.77
 H -3.39 -1.74  5.92
 H -3.18 -2.52  4.34
