35
#
 C -0.01  1.41 -0.05
 C  0.24  0.17  0.80
 O  1.11 -0.65  0.52
 H  0.65  1.36 -0.92
 H  0.21  2.33  0.51
 H -1.05  1.47 -0.38
 N -0.54  0.01  1.91
 C -1.54  0.93  2.43
 C -1.03  2.26  3.06
 O -1.80  3.22  3.08
 H -0.33 -0.82  2.45
 H -2.16  1.29  1.60
 C -2.49  0.22  3.42
 C -1.85 -0.24  4.73
 C -2.84 -1.03  5.59
 N -2.29 -1.54  6.84
 C -1.42 -2.61  6.83
 N -0.90 -2.89  8.10
 N -1.14 -3.22  5.72
 H -2.92 -0.65  2.89
 H -3.32  0.91  3.62
 H -1.49  0.64  5.30
 H -0.99 -0.90  4.55
 H -3.20 -1.90  5.02
 H -3.71 -0.41  5.84
 H -2.11 -0.85  7.56
 H -0.37 -3.75  8.15
 H -1.57 -2.81  8.86
 H -0.59 -4.07  5.90
 N  0.23  2.38  3.57
 C  1.30  1.40  3.77
 H  0.40  3.32  3.92
 H  2.04  1.86  4.44
 H  1.81  1.13  2.84
 H  0.94  0.49  4.26
