35
#
 C -0.31 -0.19  1.82
 C -1.36 -0.02  2.90
 O -1.05  0.15  4.08
 H  0.67  0.03  2.26
 H -0.47  0.47  0.96
 H -0.31 -1.23  1.46
 N -2.68 -0.09  2.54
 C -3.30 -0.11  1.22
 C -2.79 -1.30  0.37
 O -2.80 -2.44  0.83
 H -3.33  0.05  3.31
 H -4.34 -0.38  1.44
 C -3.33  1.29  0.56
 C -4.54  1.55 -0.34
 C -5.88  1.61  0.42
 N -5.91  2.64  1.46
 C -5.89  2.31  2.80
 N -6.16  3.41  3.63
 N -5.68  1.09  3.19
 H -2.39  1.50  0.02
 H -3.35  2.02  1.38
 H -4.64  0.77 -1.12
 H -4.39  2.50 -0.88
 H -6.10  0.65  0.90
 H -6.69  1.81 -0.29
 H -6.40  3.49  1.23
 H -5.93  3.25  4.60
 H -5.79  4.30  3.30
 H -5.66  1.03  4.21
 N -2.40 -1.02 -0.90
 C -1.91 -2.04 -1.81
 H -2.34 -0.05 -1.19
 H -0.82 -1.98 -1.94
 H -2.39 -1.94 -2.80
 H -2.17 -3.01 -1.38
