35
#
 C  0.63  1.41  2.04
 C -0.09  0.07  1.97
 O  0.50 -0.98  1.74
 H  1.58  1.27  2.58
 H  0.05  2.21  2.52
 H  0.88  1.72  1.02
 N -1.44  0.14  2.21
 C -2.39 -0.97  2.01
 C -1.96 -2.29  2.69
 O -2.26 -3.38  2.21
 H -1.84  1.06  2.32
 H -3.29 -0.66  2.56
 C -2.83 -1.18  0.55
 C -1.72 -1.52 -0.45
 C -2.30 -1.89 -1.82
 N -1.23 -2.15 -2.76
 C -1.38 -2.31 -4.13
 N -2.65 -2.00 -4.62
 N -0.45 -2.62 -4.98
 H -3.36 -0.28  0.22
 H -3.56 -2.00  0.57
 H -1.12 -2.35 -0.07
 H -1.04 -0.66 -0.58
 H -2.90 -1.05 -2.21
 H -2.98 -2.76 -1.70
 H -0.40 -2.59 -2.38
 H -2.72 -2.24 -5.60
 H -3.43 -2.37 -4.08
 H  0.46 -2.68 -4.52
 N -1.37 -2.15  3.91
 C -0.82 -3.29  4.62
 H -1.02 -1.23  4.14
 H -0.86 -3.10  5.70
 H  0.22 -3.49  4.33
 H -1.43 -4.17  4.39
