35
#
 C -0.13  1.88  0.82
 C  0.21  0.59  1.53
 O  1.36  0.18  1.66
 H  0.79  2.46  0.72
 H -0.89  2.47  1.36
 H -0.52  1.68 -0.19
 N -0.83 -0.16  2.02
 C -2.26 -0.01  1.78
 C -3.03  0.75  2.88
 O -3.79  1.66  2.55
 H -0.52 -1.00  2.50
 H -2.39  0.65  0.91
 C -2.91 -1.38  1.45
 C -2.94 -1.75 -0.05
 C -1.66 -1.56 -0.86
 N -0.53 -2.33 -0.35
 C  0.68 -2.34 -1.06
 N  1.79 -2.35 -0.22
 N  0.83 -2.40 -2.34
 H -3.94 -1.38  1.82
 H -2.39 -2.16  2.03
 H -3.72 -1.14 -0.53
 H -3.26 -2.80 -0.13
 H -1.41 -0.48 -0.93
 H -1.87 -1.89 -1.89
 H -0.38 -2.23  0.64
 H  2.65 -2.36 -0.76
 H  1.79 -1.64  0.51
 H -0.06 -2.53 -2.81
 N -2.88  0.40  4.19
 C -2.05 -0.63  4.79
 H -3.42  0.99  4.82
 H -2.14 -1.59  4.26
 H -2.41 -0.81  5.81
 H -0.99 -0.35  4.84
