35
#
 C -0.65 -0.17 -0.36
 C -0.72  0.48  1.01
 O -0.01  1.44  1.31
 H -0.82  0.60 -1.12
 H -1.38 -0.98 -0.50
 H  0.36 -0.56 -0.51
 N -1.63 -0.07  1.87
 C -1.75  0.37  3.26
 C -1.11 -0.71  4.15
 O -1.63 -1.82  4.26
 H -2.07 -0.95  1.63
 H -1.19  1.31  3.31
 C -3.20  0.60  3.68
 C -3.88  1.72  2.89
 C -5.35  1.88  3.25
 N -5.94  2.99  2.51
 C -7.27  3.36  2.73
 N -7.69  4.34  1.82
 N -8.08  2.92  3.62
 H -3.22  0.83  4.76
 H -3.76 -0.35  3.56
 H -3.78  1.52  1.81
 H -3.35  2.68  3.08
 H -5.45  2.10  4.33
 H -5.88  0.93  3.07
 H -5.64  3.06  1.55
 H -8.61  4.69  2.08
 H -7.02  5.10  1.67
 H -7.70  2.12  4.12
 N  0.06 -0.40  4.79
 C  0.82  0.84  4.72
 H  0.42 -1.16  5.36
 H  1.84  0.63  5.06
 H  0.40  1.63  5.36
 H  0.88  1.21  3.69
