35
#
 C -0.89 -1.88  0.61
 C -0.71 -1.51  2.08
 O  0.22 -1.92  2.75
 H -0.03 -1.49  0.05
 H -1.81 -1.49  0.16
 H -0.88 -2.97  0.52
 N -1.70 -0.70  2.60
 C -1.61 -0.15  3.95
 C -1.96 -1.16  5.07
 O -1.49 -1.03  6.20
 H -2.37 -0.29  1.97
 H -0.57  0.15  4.15
 C -2.56  1.06  4.03
 C -2.60  1.76  5.39
 C -3.90  2.56  5.66
 N -5.15  1.90  5.32
 C -5.60  0.72  5.90
 N -6.78  0.26  5.29
 N -5.08  0.03  6.85
 H -3.58  0.69  3.80
 H -2.29  1.78  3.24
 H -1.75  2.46  5.49
 H -2.45  1.02  6.18
 H -3.89  3.49  5.09
 H -3.92  2.85  6.72
 H -5.51  2.08  4.40
 H -7.49  0.98  5.16
 H -7.16 -0.52  5.82
 H -4.16  0.36  7.13
 N -2.85 -2.12  4.73
 C -3.41 -3.03  5.72
 H -3.16 -2.16  3.77
 H -2.61 -3.36  6.40
 H -3.83 -3.90  5.21
 H -4.19 -2.53  6.31
