35
#
 C -0.05 -1.46  0.60
 C -0.25 -1.40  2.10
 O  0.48 -2.01  2.88
 H  0.95 -1.88  0.41
 H -0.13 -0.48  0.11
 H -0.79 -2.13  0.13
 N -1.28 -0.62  2.57
 C -2.45 -0.19  1.82
 C -2.59  1.35  1.71
 O -3.57  1.85  1.15
 H -1.40 -0.69  3.60
 H -2.33 -0.53  0.78
 C -3.76 -0.79  2.36
 C -3.89 -2.32  2.25
 C -3.19 -3.17  3.33
 N -3.59 -2.83  4.69
 C -2.93 -1.89  5.47
 N -3.76 -1.29  6.41
 N -1.68 -1.57  5.44
 H -4.57 -0.31  1.79
 H -3.90 -0.47  3.41
 H -3.53 -2.66  1.26
 H -4.96 -2.57  2.28
 H -2.09 -3.07  3.27
 H -3.41 -4.23  3.16
 H -4.55 -3.01  4.94
 H -3.26 -0.59  6.96
 H -4.67 -0.97  6.08
 H -1.12 -2.23  4.89
 N -1.58  2.06  2.26
 C -1.53  3.50  2.25
 H -0.83  1.52  2.69
 H -2.43  3.86  1.75
 H -0.65  3.87  1.70
 H -1.49  3.91  3.27
