35
#
 C  0.05 -0.26 -0.35
 C -0.50 -0.40  1.05
 O  0.16 -0.88  1.98
 H  0.36 -1.25 -0.71
 H  0.94  0.37 -0.32
 H -0.67  0.17 -1.06
 N -1.78  0.06  1.23
 C -2.47 -0.07  2.50
 C -3.97 -0.07  2.20
 O -4.42  0.46  1.18
 H -2.35  0.35  0.45
 H -2.16 -1.04  2.94
 C -2.11  1.03  3.53
 C -2.76  2.40  3.33
 C -2.32  3.17  2.07
 N -3.01  4.44  1.87
 C -4.31  4.57  1.42
 N -4.79  3.52  0.64
 N -4.92  5.68  1.67
 H -1.01  1.12  3.53
 H -2.38  0.66  4.53
 H -2.54  3.03  4.21
 H -3.86  2.30  3.31
 H -2.45  2.56  1.17
 H -1.24  3.38  2.13
 H -2.76  5.20  2.49
 H -5.79  3.56  0.48
 H -4.48  2.56  0.83
 H -5.85  5.70  1.23
 N -4.75 -0.64  3.15
 C -6.20 -0.64  3.10
 H -4.29 -1.07  3.95
 H -6.59 -1.66  3.12
 H -6.50 -0.16  2.17
 H -6.62 -0.08  3.95
