35
#
 C -0.13 -1.85  0.74
 C  0.04 -0.45  1.30
 O  1.15  0.09  1.37
 H -0.52 -2.53  1.51
 H  0.84 -2.21  0.41
 H -0.84 -1.87 -0.10
 N -1.09  0.21  1.72
 C -2.46 -0.25  1.71
 C -3.17 -0.15  0.33
 O -4.28 -0.65  0.16
 H -0.91  1.09  2.22
 H -2.52 -1.32  1.97
 C -3.30  0.52  2.76
 C -3.46  2.04  2.54
 C -2.56  2.93  3.42
 N -1.15  2.83  3.06
 C -0.08  3.00  3.97
 N -0.47  3.27  5.28
 N  1.16  2.82  3.69
 H -2.88  0.32  3.75
 H -4.30  0.05  2.74
 H -4.50  2.32  2.78
 H -3.33  2.30  1.48
 H -2.66  2.60  4.46
 H -2.93  3.97  3.36
 H -0.92  3.22  2.15
 H  0.35  3.40  5.87
 H -1.17  4.00  5.41
 H  1.30  2.40  2.77
 N -2.49  0.54 -0.62
 C -2.99  0.72 -1.97
 H -1.57  0.88 -0.37
 H -3.07  1.79 -2.23
 H -3.99  0.27 -2.02
 H -2.34  0.23 -2.71
