35
#
 C -0.44  0.68 -0.55
 C -0.64  0.14  0.85
 O -0.05 -0.87  1.25
 H  0.63  0.87 -0.71
 H -1.00  1.61 -0.75
 H -0.75 -0.08 -1.27
 N -1.50  0.85  1.64
 C -1.87  0.42  2.99
 C -3.29 -0.18  2.93
 O -4.26  0.55  2.75
 H -2.06  1.59  1.22
 H -1.12 -0.33  3.26
 C -1.83  1.57  3.99
 C -0.45  2.20  4.18
 C -0.44  3.34  5.20
 N -0.80  2.91  6.55
 C -1.84  3.44  7.30
 N -2.94  3.86  6.54
 N -1.70  3.53  8.58
 H -2.19  1.19  4.96
 H -2.56  2.33  3.67
 H -0.08  2.59  3.22
 H  0.27  1.42  4.49
 H -1.15  4.13  4.89
 H  0.56  3.80  5.22
 H -0.03  2.67  7.16
 H -3.75  4.11  7.11
 H -3.20  3.26  5.76
 H -2.57  3.80  9.03
 N -3.41 -1.53  3.06
 C -2.36 -2.52  3.25
 H -4.37 -1.85  3.03
 H -1.49 -2.31  2.61
 H -2.76 -3.50  2.95
 H -2.03 -2.60  4.30
