35
#
 C -0.33 -0.99  1.67
 C -0.95  0.32  2.11
 O -0.31  1.15  2.77
 H  0.69 -0.78  1.32
 H -0.88 -1.52  0.89
 H -0.24 -1.64  2.55
 N -2.28  0.56  1.82
 C -3.11 -0.05  0.78
 C -3.44 -1.54  1.05
 O -3.69 -2.32  0.13
 H -2.55  1.49  2.13
 H -4.09  0.46  0.88
 C -2.65  0.18 -0.67
 C -2.37  1.67 -0.98
 C -0.90  2.06 -0.82
 N -0.74  3.50 -0.65
 C  0.41  4.09 -0.10
 N  1.04  3.32  0.87
 N  0.88  5.25 -0.41
 H -3.43 -0.22 -1.32
 H -1.75 -0.42 -0.89
 H -2.97  2.31 -0.32
 H -2.70  1.90 -2.00
 H -0.32  1.68 -1.69
 H -0.46  1.58  0.06
 H -1.09  4.05 -1.43
 H  0.47  2.78  1.51
 H  1.77  3.86  1.34
 H  0.41  5.64 -1.22
 N -3.50 -1.88  2.36
 C -3.83 -3.22  2.82
 H -3.23 -1.17  3.04
 H -4.69 -3.20  3.50
 H -2.98 -3.69  3.33
 H -4.08 -3.82  1.94
