35
#
 C  0.32 -0.38  0.75
 C  0.02  0.15  2.14
 O  0.92  0.36  2.96
 H  0.26 -1.48  0.76
 H  1.34 -0.09  0.49
 H -0.37 -0.01 -0.02
 N -1.28  0.41  2.45
 C -2.48 -0.02  1.75
 C -3.65  0.74  2.41
 O -3.55  1.19  3.55
 H -1.46  0.78  3.39
 H -2.41  0.27  0.70
 C -2.73 -1.55  1.82
 C -2.85 -2.13  3.24
 C -1.77 -3.17  3.56
 N -0.43 -2.60  3.55
 C  0.63 -3.20  2.90
 N  1.84 -2.56  3.17
 N  0.44 -4.24  2.15
 H -1.89 -2.04  1.30
 H -3.62 -1.78  1.23
 H -3.83 -2.61  3.37
 H -2.81 -1.33  3.99
 H -1.76 -3.98  2.82
 H -1.98 -3.64  4.54
 H -0.19 -1.95  4.29
 H  2.60 -2.85  2.57
 H  1.78 -1.54  3.25
 H  1.31 -4.51  1.69
 N -4.80  0.88  1.70
 C -5.12  0.42  0.36
 H -5.54  1.32  2.23
 H -5.88  1.08 -0.08
 H -5.51 -0.61  0.34
 H -4.23  0.46 -0.29
