35
#
 C  0.00  0.86 -0.09
 C  0.17  0.61  1.40
 O  1.27  0.70  1.94
 H -0.73  1.65 -0.29
 H -0.32 -0.05 -0.60
 H  0.97  1.17 -0.49
 N -0.93  0.28  2.14
 C -2.33  0.00  1.76
 C -2.41 -1.36  1.00
 O -2.14 -2.37  1.64
 H -0.67  0.00  3.08
 H -2.79 -0.29  2.72
 C -3.10  1.23  1.28
 C -4.63  1.08  1.37
 C -5.19  1.14  2.81
 N -4.83  2.36  3.51
 C -5.56  3.52  3.30
 N -5.20  4.55  4.19
 N -6.48  3.56  2.40
 H -2.82  1.52  0.26
 H -2.80  2.07  1.92
 H -4.96  0.13  0.93
 H -5.11  1.88  0.80
 H -4.80  0.30  3.41
 H -6.28  1.03  2.76
 H -4.50  2.24  4.46
 H -4.21  4.60  4.40
 H -5.58  5.45  3.95
 H -6.88  4.50  2.31
 N -2.75 -1.47 -0.32
 C -3.15 -0.51 -1.34
 H -2.75 -2.45 -0.60
 H -4.12 -0.03 -1.12
 H -3.26 -1.06 -2.28
 H -2.40  0.27 -1.51
