35
#
 C -0.47 -0.20  2.34
 C -0.80  1.20  2.79
 O -0.00  1.88  3.44
 H  0.30 -0.61  3.00
 H -0.06 -0.17  1.32
 H -1.34 -0.88  2.32
 N -2.04  1.72  2.47
 C -3.06  1.17  1.57
 C -3.74 -0.10  2.15
 O -4.21 -0.96  1.42
 H -2.11  2.71  2.71
 H -3.86  1.93  1.58
 C -2.61  0.98  0.11
 C -3.54  1.59 -0.95
 C -4.93  0.96 -1.02
 N -5.67  1.53 -2.14
 C -7.02  1.30 -2.35
 N -7.49  0.08 -1.85
 N -7.72  2.21 -2.93
 H -2.48 -0.10 -0.09
 H -1.62  1.45 -0.01
 H -3.64  2.67 -0.76
 H -3.07  1.49 -1.93
 H -5.48  1.10 -0.06
 H -4.82 -0.13 -1.15
 H -5.45  2.50 -2.36
 H -8.38 -0.21 -2.22
 H -6.81 -0.68 -1.79
 H -8.68  1.89 -3.12
 N -3.83 -0.13  3.51
 C -4.46 -1.21  4.23
 H -3.33  0.60  4.01
 H -5.22 -0.83  4.92
 H -3.72 -1.79  4.81
 H -4.93 -1.87  3.50
