35
#
 C  0.14  1.83  1.23
 C -0.30  0.97  2.40
 O -0.63  1.45  3.49
 H  1.02  2.41  1.54
 H -0.66  2.55  1.00
 H  0.39  1.26  0.33
 N -0.32 -0.38  2.16
 C -0.60 -1.34  3.20
 C  0.06 -2.66  2.76
 O  0.52 -2.81  1.63
 H  0.09 -0.78  1.32
 H -0.14 -0.99  4.13
 C -2.12 -1.51  3.46
 C -2.89 -2.14  2.30
 C -4.40 -2.20  2.57
 N -5.17 -2.95  1.60
 C -5.17 -4.34  1.59
 N -5.81 -4.86  0.46
 N -4.68 -5.15  2.46
 H -2.51 -0.51  3.70
 H -2.26 -2.11  4.37
 H -2.52 -3.15  2.10
 H -2.71 -1.56  1.38
 H -4.81 -1.18  2.62
 H -4.59 -2.65  3.56
 H -5.23 -2.52  0.67
 H -6.69 -4.39  0.21
 H -5.93 -5.86  0.54
 H -4.13 -4.65  3.16
 N  0.05 -3.65  3.70
 C  0.54 -4.99  3.44
 H -0.34 -3.44  4.60
 H  0.96 -5.00  2.42
 H -0.27 -5.73  3.49
 H  1.33 -5.27  4.15
