35
#
 C -1.35 -0.48 -0.01
 C -1.07 -0.04  1.41
 O -0.01  0.54  1.71
 H -1.18  0.37 -0.68
 H -2.36 -0.87 -0.16
 H -0.63 -1.26 -0.28
 N -2.02 -0.34  2.33
 C -1.99 -0.10  3.78
 C -2.20  1.39  4.17
 O -3.07  1.69  4.99
 H -2.88 -0.75  1.97
 H -2.88 -0.60  4.17
 C -0.76 -0.67  4.52
 C -0.55 -2.19  4.44
 C  0.10 -2.72  3.15
 N  1.33 -2.05  2.76
 C  2.53 -2.23  3.44
 N  3.48 -1.26  3.12
 N  2.86 -3.20  4.23
 H -0.92 -0.40  5.58
 H  0.15 -0.15  4.21
 H -1.50 -2.72  4.60
 H  0.10 -2.47  5.29
 H -0.59 -2.63  2.30
 H  0.30 -3.79  3.26
 H  1.22 -1.18  2.26
 H  4.29 -1.34  3.72
 H  3.14 -0.31  3.03
 H  2.12 -3.90  4.29
 N -1.35  2.27  3.59
 C -1.39  3.69  3.87
 H -0.65  1.89  2.94
 H -2.23  3.88  4.54
 H -1.53  4.27  2.94
 H -0.46  4.03  4.35
