35
#
 C -0.19  0.11  0.10
 C -0.18 -0.10  1.61
 O  0.68 -0.77  2.17
 H  0.71  0.67 -0.18
 H -1.08  0.66 -0.26
 H -0.14 -0.86 -0.39
 N -1.19  0.51  2.30
 C -1.27  0.51  3.75
 C -1.28 -0.88  4.43
 O -0.69 -1.02  5.50
 H -1.85  1.09  1.79
 H -0.35  0.96  4.16
 C -2.49  1.33  4.19
 C -2.55  1.62  5.69
 C -3.78  2.44  6.10
 N -3.86  3.78  5.51
 C -4.37  4.05  4.24
 N -5.45  3.24  3.87
 N -3.96  4.95  3.42
 H -2.46  2.29  3.63
 H -3.42  0.83  3.87
 H -2.55  0.68  6.26
 H -1.63  2.16  6.00
 H -3.79  2.56  7.19
 H -4.69  1.90  5.84
 H -3.06  4.37  5.73
 H -6.13  3.06  4.60
 H -5.88  3.60  3.02
 H -3.09  5.38  3.74
 N -2.02 -1.90  3.91
 C -2.75 -2.01  2.66
 H -1.91 -2.76  4.44
 H -3.43 -2.87  2.73
 H -3.36 -1.12  2.47
 H -2.09 -2.17  1.79
