35
#
 C  0.10  0.45  0.62
 C -0.19  0.10  2.07
 O  0.70  0.09  2.92
 H -0.06  1.53  0.48
 H -0.54 -0.08 -0.10
 H  1.15  0.23  0.42
 N -1.49 -0.22  2.42
 C -2.72 -0.10  1.63
 C -2.81 -1.13  0.48
 O -3.48 -0.91 -0.53
 H -1.59 -0.32  3.43
 H -3.51 -0.41  2.33
 C -3.05  1.33  1.14
 C -4.55  1.65  1.12
 C -5.14  1.88  2.52
 N -6.58  2.11  2.42
 C -7.38  2.24  3.55
 N -6.78  2.92  4.61
 N -8.57  1.73  3.53
 H -2.65  1.47  0.13
 H -2.53  2.04  1.80
 H -5.08  0.84  0.61
 H -4.71  2.56  0.52
 H -4.65  2.76  2.97
 H -4.91  1.02  3.18
 H -7.05  1.52  1.74
 H -7.42  3.20  5.34
 H -6.14  3.66  4.35
 H -9.11  2.00  4.35
 N -2.15 -2.30  0.71
 C -2.15 -3.40 -0.24
 H -1.57 -2.35  1.54
 H -2.50 -4.32  0.24
 H -1.14 -3.58 -0.64
 H -2.82 -3.13 -1.06
