35
#
 C -2.17 -1.53 -0.45
 C -1.79 -1.31  1.00
 O -0.64 -1.40  1.41
 H -1.78 -0.69 -1.04
 H -3.25 -1.61 -0.62
 H -1.67 -2.44 -0.81
 N -2.83 -0.95  1.82
 C -2.63 -0.80  3.25
 C -3.89 -1.35  3.95
 O -4.95 -1.49  3.35
 H -3.80 -1.14  1.55
 H -1.76 -1.42  3.51
 C -2.31  0.66  3.68
 C -3.49  1.64  3.75
 C -4.27  1.88  2.45
 N -3.47  2.24  1.28
 C -2.68  3.38  1.24
 N -3.26  4.50  1.85
 N -1.52  3.32  0.67
 H -1.54  1.03  2.99
 H -1.83  0.62  4.67
 H -3.09  2.60  4.11
 H -4.21  1.31  4.52
 H -5.02  2.66  2.63
 H -4.85  0.99  2.18
 H -2.95  1.46  0.90
 H -2.79  5.38  1.62
 H -4.27  4.58  1.76
 H -1.10  4.25  0.57
 N -3.74 -1.61  5.27
 C -4.82 -2.07  6.12
 H -2.81 -1.49  5.68
 H -4.61 -3.06  6.54
 H -5.72 -2.12  5.50
 H -5.00 -1.36  6.95
