35
#
 C  0.00  0.09  0.87
 C -0.25 -0.13  2.34
 O  0.62  0.03  3.20
 H  1.00  0.51  0.75
 H -0.73  0.78  0.42
 H -0.05 -0.85  0.31
 N -1.52 -0.53  2.70
 C -2.64 -0.87  1.83
 C -3.53  0.33  1.44
 O -4.41  0.20  0.60
 H -1.61 -0.74  3.70
 H -2.25 -1.25  0.88
 C -3.51 -1.98  2.45
 C -2.96 -3.41  2.36
 C -1.69 -3.69  3.17
 N -1.34 -5.11  3.25
 C -2.03 -5.95  4.11
 N -1.66 -7.29  3.93
 N -2.90 -5.48  4.93
 H -4.48 -1.95  1.93
 H -3.72 -1.72  3.50
 H -2.78 -3.66  1.30
 H -3.74 -4.09  2.72
 H -1.83 -3.36  4.21
 H -0.82 -3.16  2.77
 H -1.04 -5.54  2.38
 H -2.02 -7.91  4.65
 H -0.67 -7.45  3.78
 H -3.22 -6.20  5.58
 N -3.26  1.49  2.09
 C -4.00  2.72  1.85
 H -2.50  1.49  2.76
 H -4.50  3.07  2.76
 H -4.76  2.50  1.09
 H -3.34  3.51  1.47
