35
#
 C  0.12  0.04  0.03
 C  0.04  0.04  1.54
 O  1.06  0.08  2.24
 H  0.70 -0.83 -0.29
 H  0.66  0.94 -0.29
 H -0.86  0.02 -0.47
 N -1.22 -0.01  2.07
 C -1.59 -0.09  3.49
 C -1.34  1.22  4.28
 O -2.28  1.78  4.85
 H -1.99  0.02  1.41
 H -2.68 -0.18  3.50
 C -0.99 -1.33  4.18
 C -1.40 -1.45  5.65
 C -0.81 -2.70  6.31
 N -1.06 -2.76  7.74
 C -0.24 -2.10  8.65
 N -0.61 -2.36  9.98
 N  0.78 -1.35  8.42
 H  0.11 -1.30  4.10
 H -1.31 -2.22  3.62
 H -2.49 -1.47  5.75
 H -1.06 -0.56  6.21
 H  0.28 -2.76  6.10
 H -1.25 -3.60  5.86
 H -1.48 -3.61  8.09
 H -0.08 -1.78 10.62
 H -1.61 -2.30 10.15
 H  1.02 -1.34  7.42
 N -0.05  1.63  4.33
 C  0.36  2.82  5.06
 H  0.63  1.12  3.76
 H  1.14  2.58  5.79
 H -0.51  3.22  5.58
 H  0.75  3.59  4.37
