35
#
 C  2.65 -0.66  1.94
 C  1.83 -0.00  3.02
 O  2.35  0.40  4.07
 H  2.09 -0.93  1.04
 H  3.11 -1.57  2.36
 H  3.47  0.01  1.66
 N  0.50  0.12  2.76
 C -0.56  0.61  3.66
 C -0.51  2.15  3.91
 O -1.49  2.84  3.64
 H  0.19 -0.20  1.85
 H -1.49  0.49  3.10
 C -0.64 -0.20  4.96
 C -1.80  0.22  5.87
 C -1.82 -0.54  7.19
 N -0.64 -0.25  7.99
 C -0.08 -1.20  8.82
 N  0.98 -0.67  9.59
 N -0.54 -2.40  8.86
 H  0.30 -0.12  5.51
 H -0.76 -1.26  4.68
 H -2.76  0.07  5.36
 H -1.75  1.31  6.06
 H -1.82 -1.62  7.03
 H -2.74 -0.30  7.75
 H -0.54  0.71  8.31
 H  1.51 -1.38 10.09
 H  1.59 -0.04  9.08
 H  0.06 -3.00  9.43
 N  0.64  2.60  4.46
 C  0.86  4.01  4.75
 H  1.41  1.93  4.56
 H  1.20  4.15  5.78
 H -0.10  4.54  4.61
 H  1.60  4.45  4.07
