35
#
 C -0.26  0.58 -0.09
 C  0.04  0.08  1.31
 O  1.20 -0.10  1.70
 H  0.68  0.91 -0.53
 H -0.98  1.40 -0.09
 H -0.67 -0.23 -0.71
 N -1.01 -0.16  2.15
 C -2.39 -0.42  1.76
 C -3.50  0.25  2.60
 O -4.62  0.31  2.10
 H -0.69 -0.57  3.04
 H -2.55  0.04  0.78
 C -2.69 -1.94  1.61
 C -2.21 -2.80  2.79
 C -0.79 -3.37  2.60
 N -0.12 -3.81  3.82
 C  0.27 -2.93  4.81
 N  0.65 -1.66  4.35
 N  0.21 -3.32  6.04
 H -2.21 -2.29  0.68
 H -3.77 -2.04  1.46
 H -2.91 -3.63  2.95
 H -2.24 -2.22  3.73
 H -0.15 -2.63  2.09
 H -0.83 -4.23  1.92
 H -0.49 -4.66  4.23
 H  1.12 -1.11  5.07
 H  1.15 -1.60  3.47
 H  0.65 -2.64  6.67
 N -3.28  0.75  3.85
 C -2.11  0.76  4.72
 H -4.14  1.14  4.24
 H -2.42  1.16  5.69
 H -1.30  1.39  4.33
 H -1.72 -0.25  4.91
