35
#
 C  0.43  0.80  0.55
 C -0.06 -0.28  1.50
 O  0.71 -1.06  2.06
 H  1.17  1.41  1.07
 H -0.37  1.45  0.18
 H  0.93  0.33 -0.30
 N -1.42 -0.33  1.69
 C -2.04 -1.44  2.42
 C -3.52 -1.60  2.01
 O -3.93 -2.67  1.58
 H -2.00  0.20  1.05
 H -1.57 -2.37  2.09
 C -1.84 -1.33  3.95
 C -2.43 -2.53  4.70
 C -2.19 -2.43  6.21
 N -2.75 -3.58  6.89
 C -2.64 -3.72  8.27
 N -3.37 -4.82  8.75
 N -1.99 -2.97  9.09
 H -2.27 -0.39  4.33
 H -0.76 -1.28  4.12
 H -1.99 -3.46  4.32
 H -3.51 -2.60  4.51
 H -2.62 -1.48  6.59
 H -1.11 -2.39  6.41
 H -3.62 -3.94  6.50
 H -3.16 -4.97  9.74
 H -3.26 -5.67  8.21
 H -1.62 -2.14  8.63
 N -4.36 -0.51  2.10
 C -4.21  0.74  2.83
 H -5.31 -0.77  1.83
 H -3.17  1.07  2.83
 H -4.55  0.66  3.88
 H -4.81  1.51  2.34
