35
#
 C -1.81 -0.04  0.53
 C -1.71 -0.07  2.04
 O -1.12 -0.99  2.62
 H -2.67 -0.64  0.23
 H -0.90 -0.51  0.12
 H -1.93  0.96  0.09
 N -2.32  0.92  2.78
 C -3.00  2.15  2.40
 C -4.02  1.92  1.25
 O -4.72  0.91  1.23
 H -2.24  0.73  3.77
 H -3.67  2.37  3.25
 C -2.04  3.35  2.31
 C -0.89  3.27  1.30
 C  0.11  4.43  1.44
 N  0.82  4.35  2.70
 C  1.57  5.43  3.18
 N  2.29  5.10  4.33
 N  1.66  6.62  2.69
 H -1.59  3.47  3.31
 H -2.62  4.28  2.16
 H -1.26  3.27  0.27
 H -0.35  2.32  1.43
 H -0.43  5.39  1.41
 H  0.80  4.42  0.58
 H  1.23  3.44  2.90
 H  2.73  5.92  4.73
 H  1.78  4.55  5.02
 H  1.21  6.69  1.77
 N -4.13  2.93  0.34
 C -5.11  2.91 -0.73
 H -3.53  3.73  0.43
 H -5.82  3.74 -0.63
 H -5.66  1.96 -0.66
 H -4.63  2.97 -1.71
