35
#
 C  0.19 -0.76  0.43
 C -0.81 -0.03  1.31
 O -1.39  0.97  0.90
 H  0.59 -1.69  0.87
 H  1.03 -0.08  0.22
 H -0.28 -0.99 -0.53
 N -1.00 -0.60  2.54
 C -1.80 -0.13  3.68
 C -3.05 -1.00  3.96
 O -3.19 -1.49  5.08
 H -0.47 -1.44  2.73
 H -1.19 -0.32  4.57
 C -2.11  1.38  3.67
 C -2.69  1.89  4.99
 C -2.93  3.41  4.94
 N -1.70  4.19  4.77
 C -1.43  5.03  3.69
 N -2.02  4.64  2.49
 N -0.70  6.09  3.72
 H -2.80  1.63  2.85
 H -1.17  1.90  3.46
 H -2.01  1.65  5.82
 H -3.65  1.39  5.21
 H -3.43  3.72  5.87
 H -3.61  3.66  4.11
 H -1.27  4.50  5.63
 H -1.70  5.24  1.74
 H -1.95  3.65  2.25
 H -0.47  6.35  4.69
 N -4.00 -1.19  3.00
 C -4.02 -0.78  1.60
 H -4.75 -1.80  3.31
 H -5.05 -0.58  1.30
 H -3.62 -1.57  0.94
 H -3.43  0.13  1.43
