35
#
 C  1.29 -0.85  0.37
 C  0.77 -0.77  1.80
 O  1.47 -1.04  2.77
 H  2.16 -0.19  0.28
 H  0.54 -0.58 -0.38
 H  1.63 -1.88  0.18
 N -0.53 -0.36  1.92
 C -1.20 -0.33  3.21
 C -2.70 -0.48  2.91
 O -3.14 -0.31  1.77
 H -1.14 -0.26  1.12
 H -0.83 -1.17  3.80
 C -0.89  0.97  3.99
 C -1.48  2.24  3.38
 C -1.00  3.51  4.11
 N -1.64  4.74  3.68
 C -2.92  5.08  4.11
 N -3.42  6.21  3.44
 N -3.65  4.51  5.00
 H  0.20  1.04  4.06
 H -1.25  0.86  5.03
 H -2.58  2.21  3.40
 H -1.20  2.31  2.32
 H  0.08  3.63  3.98
 H -1.16  3.40  5.19
 H -1.42  5.04  2.74
 H -4.29  6.52  3.86
 H -2.75  6.97  3.34
 H -3.24  3.63  5.31
 N -3.53 -0.79  3.95
 C -3.20 -1.06  5.33
 H -4.51 -0.80  3.68
 H -3.92 -1.79  5.73
 H -3.24 -0.16  5.96
 H -2.20 -1.50  5.42
