35
#
 C  0.14 -0.15  0.32
 C  0.12  0.32  1.76
 O  1.16  0.59  2.37
 H -0.64  0.30 -0.30
 H  0.00 -1.24  0.28
 H  1.13  0.09 -0.09
 N -1.09  0.41  2.41
 C -2.46  0.22  1.93
 C -2.64 -1.13  1.19
 O -3.02 -1.18  0.02
 H -0.98  0.75  3.36
 H -3.07  0.15  2.84
 C -2.99  1.40  1.10
 C -4.52  1.45  1.03
 C -5.02  2.61  0.17
 N -6.47  2.66  0.18
 C -7.23  3.61 -0.48
 N -6.59  4.83 -0.70
 N -8.47  3.33 -0.75
 H -2.58  1.34  0.08
 H -2.61  2.32  1.56
 H -4.94  1.55  2.04
 H -4.90  0.51  0.61
 H -4.60  2.51 -0.85
 H -4.63  3.55  0.59
 H -6.95  1.76  0.18
 H -7.06  5.42 -1.38
 H -5.59  4.81 -0.84
 H -8.95  4.13 -1.17
 N -2.38 -2.26  1.90
 C -1.93 -2.40  3.28
 H -2.49 -3.11  1.36
 H -2.12 -3.42  3.61
 H -2.48 -1.73  3.95
 H -0.85 -2.19  3.39
