35
#
 C  1.55  0.05  0.06
 C  1.17  0.08  1.52
 O  2.01  0.24  2.41
 H  0.70 -0.08 -0.62
 H  2.27 -0.76 -0.10
 H  2.06  0.99 -0.20
 N -0.16 -0.05  1.78
 C -0.69 -0.20  3.12
 C -1.74 -1.32  3.07
 O -2.33 -1.57  2.01
 H -0.80 -0.35  1.05
 H  0.15 -0.47  3.77
 C -1.38  1.09  3.64
 C -0.47  2.32  3.76
 C  0.72  2.18  4.74
 N  0.42  1.56  6.03
 C -0.60  1.95  6.88
 N -0.85  3.33  6.88
 N -1.24  1.05  7.55
 H -1.84  0.88  4.61
 H -2.20  1.33  2.95
 H -1.10  3.17  4.08
 H -0.06  2.59  2.78
 H  1.17  3.17  4.89
 H  1.50  1.56  4.27
 H  0.54  0.55  6.07
 H -0.04  3.93  6.72
 H -1.43  3.65  7.64
 H -1.87  1.47  8.24
 N -2.01 -1.99  4.22
 C -1.35 -1.86  5.52
 H -2.75 -2.68  4.12
 H -1.71 -2.68  6.15
 H -1.56 -0.92  6.03
 H -0.26 -1.98  5.42
