35
#
 C  0.39  0.56  0.32
 C  0.38  0.48  1.84
 O  1.41  0.53  2.50
 H  0.86 -0.35 -0.07
 H  1.01  1.41  0.01
 H -0.61  0.66 -0.12
 N -0.86  0.38  2.42
 C -1.07  0.15  3.84
 C -0.16  1.03  4.74
 O  0.52  0.53  5.64
 H -1.66  0.29  1.81
 H -2.11  0.48  4.05
 C -0.94 -1.33  4.23
 C -1.54 -1.65  5.61
 C -0.65 -2.60  6.43
 N -1.00 -2.72  7.83
 C -0.73 -1.73  8.79
 N  0.24 -0.81  8.44
 N -1.25 -1.69  9.97
 H  0.13 -1.58  4.21
 H -1.42 -1.93  3.45
 H -2.55 -2.09  5.50
 H -1.67 -0.73  6.19
 H  0.40 -2.26  6.36
 H -0.67 -3.61  5.99
 H -1.84 -3.25  8.04
 H  0.33 -0.09  9.14
 H  0.30 -0.48  7.48
 H -1.86 -2.49 10.14
 N -0.22  2.38  4.59
 C -0.91  3.17  3.58
 H  0.44  2.87  5.19
 H -1.04  4.19  3.96
 H -1.91  2.77  3.38
 H -0.36  3.22  2.63
