35
#
 C -0.15 -0.62  2.24
 C -0.63  0.79  2.54
 O  0.13  1.63  3.00
 H -0.08 -1.16  3.19
 H  0.86 -0.55  1.82
 H -0.79 -1.20  1.57
 N -1.97  1.10  2.38
 C -3.03  0.46  1.59
 C -3.24 -1.03  1.96
 O -3.52 -1.88  1.12
 H -2.13  2.09  2.59
 H -3.96  0.94  1.94
 C -2.98  0.71  0.07
 C -1.76  0.18 -0.69
 C -1.76  0.58 -2.17
 N -2.93  0.11 -2.92
 C -4.07  0.87 -3.14
 N -3.81  2.23 -3.37
 N -5.22  0.30 -3.10
 H -3.05  1.80 -0.07
 H -3.89  0.28 -0.35
 H -0.82  0.57 -0.25
 H -1.72 -0.91 -0.60
 H -0.85  0.18 -2.65
 H -1.72  1.67 -2.26
 H -3.20 -0.86 -2.73
 H -4.63  2.74 -3.70
 H -2.99  2.43 -3.94
 H -5.96  0.93 -3.43
 N -3.17 -1.29  3.30
 C -3.32 -2.62  3.85
 H -2.85 -0.54  3.90
 H -4.02 -2.61  4.70
 H -2.36 -3.04  4.18
 H -3.72 -3.26  3.06
