35
#
 C -0.70  0.20 -0.09
 C -0.86  0.57  1.38
 O -0.49  1.65  1.85
 H  0.35 -0.08 -0.27
 H -0.91  1.09 -0.69
 H -1.35 -0.62 -0.39
 N -1.44 -0.40  2.14
 C -1.69 -0.22  3.56
 C -1.26 -1.50  4.29
 O -2.06 -2.31  4.77
 H -1.67 -1.30  1.72
 H -1.00  0.59  3.86
 C -3.12  0.28  3.93
 C -4.28  0.02  2.95
 C -4.94 -1.36  3.02
 N -4.07 -2.48  2.72
 C -3.59 -2.69  1.44
 N -2.36 -3.39  1.42
 N -4.06 -2.29  0.31
 H -3.03  1.37  4.03
 H -3.37 -0.11  4.93
 H -3.94  0.22  1.92
 H -5.06  0.77  3.16
 H -5.82 -1.39  2.35
 H -5.33 -1.54  4.04
 H -3.40 -2.67  3.47
 H -2.20 -3.80  0.51
 H -2.25 -4.06  2.18
 H -4.91 -1.72  0.43
 N  0.08 -1.71  4.40
 C  1.17 -0.95  3.81
 H  0.30 -2.60  4.83
 H  2.08 -1.12  4.41
 H  0.96  0.12  3.82
 H  1.38 -1.25  2.77
