35
#
 C -0.45  1.39  1.22
 C  0.34  0.78  2.36
 O  1.38  1.30  2.77
 H -1.12  2.16  1.63
 H -1.06  0.68  0.65
 H  0.26  1.90  0.55
 N -0.12 -0.39  2.93
 C -1.42 -1.04  2.77
 C -1.63 -1.72  1.39
 O -2.76 -1.97  0.97
 H  0.39 -0.65  3.77
 H -1.38 -1.90  3.46
 C -2.65 -0.18  3.15
 C -2.55  0.51  4.52
 C -2.95 -0.33  5.75
 N -2.42 -1.68  5.85
 C -1.07 -1.96  5.93
 N -0.79 -3.32  5.73
 N -0.09 -1.14  6.13
 H -3.54 -0.83  3.10
 H -2.81  0.57  2.37
 H -3.21  1.39  4.52
 H -1.53  0.92  4.64
 H -4.04 -0.43  5.77
 H -2.68  0.22  6.66
 H -2.98 -2.39  5.38
 H -1.44 -3.97  6.16
 H  0.18 -3.52  5.98
 H -0.41 -0.18  6.18
 N -0.48 -2.06  0.75
 C -0.47 -2.76 -0.52
 H  0.39 -1.78  1.19
 H  0.06 -3.72 -0.44
 H  0.02 -2.15 -1.30
 H -1.51 -2.94 -0.81
