35
#
 C -1.74 -2.74  2.47
 C -1.24 -1.32  2.60
 O -1.93 -0.34  2.31
 H -1.00 -3.50  2.75
 H -2.05 -2.91  1.43
 H -2.63 -2.86  3.10
 N  0.04 -1.19  3.05
 C  0.68  0.11  3.20
 C  2.18 -0.10  2.94
 O  2.77 -1.09  3.36
 H  0.62 -1.99  3.26
 H  0.23  0.77  2.45
 C  0.43  0.69  4.61
 C  1.03  2.07  4.89
 C  0.45  3.19  4.03
 N  1.02  4.47  4.40
 C  0.73  5.62  3.68
 N  1.52  6.71  4.07
 N -0.14  5.77  2.74
 H  0.84 -0.03  5.34
 H -0.66  0.71  4.76
 H  2.12  2.04  4.77
 H  0.84  2.32  5.95
 H -0.64  3.23  4.16
 H  0.62  2.98  2.95
 H  1.98  4.42  4.73
 H  1.62  6.82  5.08
 H  1.19  7.56  3.63
 H -0.56  4.88  2.46
 N  2.79  0.91  2.25
 C  4.21  0.92  1.96
 H  2.21  1.66  1.90
 H  4.65  0.05  2.45
 H  4.68  1.83  2.34
 H  4.39  0.85  0.88
