35
#
 C -0.44 -0.70 -1.22
 C -1.07 -0.31  0.10
 O -1.71  0.75  0.21
 H  0.11 -1.65 -1.18
 H  0.26  0.10 -1.52
 H -1.22 -0.76 -1.99
 N -0.91 -1.20  1.11
 C -1.31 -0.92  2.48
 C -0.23 -1.47  3.42
 O  0.56 -2.35  3.05
 H -0.26 -1.97  1.02
 H -1.34  0.17  2.59
 C -2.69 -1.53  2.85
 C -3.90 -0.79  2.28
 C -4.21  0.57  2.93
 N -3.23  1.62  2.69
 C -2.35  2.05  3.65
 N -1.54  3.08  3.21
 N -2.27  1.48  4.82
 H -2.78 -1.55  3.94
 H -2.69 -2.57  2.51
 H -4.79 -1.42  2.42
 H -3.80 -0.66  1.19
 H -4.29  0.45  4.02
 H -5.19  0.92  2.57
 H -2.87  1.66  1.73
 H -0.95  3.52  3.90
 H -1.94  3.72  2.52
 H -1.70  2.05  5.45
 N -0.27 -0.92  4.65
 C  0.59 -1.34  5.74
 H -0.97 -0.18  4.82
 H  0.01 -1.73  6.58
 H  1.22 -0.51  6.09
 H  1.25 -2.14  5.36
