35
#
 C -0.15 -1.98  0.16
 C  0.12 -1.00  1.27
 O  1.23 -0.53  1.50
 H  0.80 -2.23 -0.32
 H -0.83 -1.56 -0.60
 H -0.62 -2.91  0.53
 N -0.96 -0.63  2.05
 C -2.36 -0.92  1.81
 C -3.02 -0.22  0.60
 O -3.85 -0.84 -0.06
 H -0.72  0.05  2.77
 H -2.47 -1.98  1.55
 C -3.20 -0.65  3.08
 C -2.81 -1.50  4.30
 C -2.98 -3.00  4.08
 N -2.66 -3.73  5.29
 C -2.61 -5.13  5.29
 N -2.41 -5.64  6.57
 N -2.72 -5.93  4.29
 H -4.25 -0.83  2.82
 H -3.12  0.42  3.35
 H -3.44 -1.18  5.14
 H -1.77 -1.30  4.60
 H -2.28 -3.34  3.29
 H -4.00 -3.21  3.71
 H -3.04 -3.33  6.14
 H -2.26 -6.65  6.53
 H -1.69 -5.17  7.11
 H -3.01 -5.44  3.44
 N -2.69  1.07  0.28
 C -1.81  2.02  0.96
 H -3.18  1.39 -0.54
 H -2.03  2.08  2.03
 H -2.01  3.01  0.53
 H -0.75  1.80  0.81
