35
#
 C  0.33  0.50  0.37
 C  0.01 -0.37  1.57
 O  0.90 -0.88  2.24
 H -0.29  1.40  0.31
 H  0.19 -0.09 -0.55
 H  1.38  0.79  0.44
 N -1.31 -0.59  1.92
 C -2.59 -0.30  1.25
 C -2.81 -1.37  0.15
 O -3.21 -2.49  0.52
 H -1.37 -1.29  2.65
 H -3.33 -0.63  2.00
 C -2.87  1.20  1.02
 C -4.34  1.62  1.18
 C -5.31  1.20  0.07
 N -5.44 -0.24 -0.02
 C -5.72 -0.88 -1.21
 N -5.85 -2.26 -1.03
 N -5.82 -0.21 -2.31
 H -2.50  1.56  0.06
 H -2.29  1.73  1.79
 H -4.38  2.71  1.26
 H -4.71  1.24  2.16
 H -4.97  1.55 -0.91
 H -6.29  1.69  0.24
 H -5.76 -0.73  0.81
 H -5.95 -2.78 -1.90
 H -5.15 -2.67 -0.41
 H -5.91 -0.84 -3.12
 N -2.45 -1.20 -1.16
 C -2.32 -0.00 -1.99
 H -2.64 -2.05 -1.68
 H -3.29  0.48 -2.17
 H -1.91 -0.32 -2.95
 H -1.61  0.71 -1.56
