35
#
 C  0.10  0.51  0.10
 C -0.32 -0.17  1.39
 O -0.17 -1.37  1.58
 H  1.19  0.42 -0.00
 H -0.18  1.57  0.04
 H -0.35 -0.03 -0.74
 N -0.88  0.68  2.32
 C -1.30  0.20  3.63
 C -2.77 -0.28  3.73
 O -3.03 -1.24  4.45
 H -0.92  1.67  2.11
 H -0.73 -0.72  3.82
 C -1.04  1.21  4.76
 C  0.44  1.57  5.01
 C  1.05  2.64  4.09
 N  0.34  3.92  4.10
 C -0.68  4.26  3.24
 N -0.54  3.75  1.93
 N -1.72  4.99  3.49
 H -1.44  0.76  5.67
 H -1.63  2.13  4.60
 H  0.53  1.93  6.05
 H  1.06  0.66  4.95
 H  1.09  2.28  3.05
 H  2.09  2.82  4.40
 H  0.20  4.30  5.03
 H -1.22  4.21  1.32
 H  0.40  3.83  1.56
 H -1.80  5.20  4.49
 N -3.76  0.38  3.06
 C -3.72  1.61  2.28
 H -4.67 -0.04  3.22
 H -4.75  1.97  2.17
 H -3.31  1.45  1.27
 H -3.15  2.41  2.78
