35
#
 C -0.30  0.12  0.06
 C -0.14  0.09  1.56
 O  0.94  0.29  2.12
 H  0.43 -0.58 -0.39
 H -0.04  1.13 -0.30
 H -1.30 -0.14 -0.29
 N -1.29 -0.19  2.26
 C -1.35 -0.16  3.72
 C -1.87 -1.52  4.22
 O -3.04 -1.68  4.60
 H -2.16 -0.30  1.76
 H -0.31 -0.00  4.05
 C -2.23  0.99  4.23
 C -2.17  1.18  5.76
 C -3.53  1.55  6.36
 N -4.45  0.44  6.21
 C -5.81  0.65  6.25
 N -6.55 -0.47  5.82
 N -6.29  1.79  6.62
 H -3.26  0.81  3.91
 H -1.89  1.91  3.72
 H -1.44  1.96  6.01
 H -1.82  0.26  6.24
 H -3.94  2.45  5.88
 H -3.41  1.80  7.43
 H -4.12 -0.34  5.65
 H -7.50 -0.49  6.17
 H -6.08 -1.37  5.95
 H -7.32  1.77  6.62
 N -1.00 -2.57  4.22
 C  0.35 -2.64  3.68
 H -1.44 -3.44  4.50
 H  0.96 -3.31  4.31
 H  0.83 -1.65  3.67
 H  0.36 -3.02  2.65
