35
#
 C  0.27 -0.46  0.91
 C -0.19 -0.47  2.35
 O  0.60 -0.28  3.29
 H -0.54 -0.64  0.19
 H  1.04 -1.23  0.78
 H  0.73  0.51  0.69
 N -1.52 -0.67  2.56
 C -2.12 -0.67  3.89
 C -1.95 -2.06  4.56
 O -2.86 -2.89  4.62
 H -2.11 -0.91  1.77
 H -1.55  0.07  4.48
 C -3.59 -0.26  3.82
 C -4.19  0.06  5.19
 C -5.69  0.36  5.11
 N -6.26  0.76  6.38
 C -6.23  2.08  6.83
 N -6.92  2.25  8.03
 N -5.67  3.09  6.26
 H -4.16 -1.08  3.36
 H -3.67  0.62  3.16
 H -3.67  0.93  5.63
 H -4.03 -0.78  5.88
 H -6.22 -0.55  4.78
 H -5.89  1.13  4.34
 H -7.06  0.22  6.71
 H -6.77  3.18  8.40
 H -6.73  1.53  8.73
 H -5.32  2.86  5.33
 N -0.69 -2.26  5.04
 C -0.27 -3.53  5.59
 H  0.00 -1.56  4.79
 H  0.32 -3.38  6.51
 H  0.35 -4.10  4.88
 H -1.16 -4.12  5.83
