35
#
 C  0.79  0.34  0.67
 C  0.16 -0.30  1.90
 O  0.84 -0.79  2.79
 H  0.48 -0.15 -0.26
 H  1.88  0.25  0.77
 H  0.54  1.41  0.59
 N -1.21 -0.29  1.96
 C -2.15  0.21  0.96
 C -3.36  0.76  1.73
 O -3.91  0.07  2.60
 H -1.63 -0.72  2.79
 H -1.67  1.03  0.42
 C -2.58 -0.92 -0.00
 C -3.48 -0.53 -1.19
 C -2.75  0.08 -2.40
 N -2.18  1.42 -2.20
 C -2.96  2.54 -2.02
 N -4.04  2.65 -2.89
 N -2.66  3.37 -1.07
 H -3.10 -1.67  0.61
 H -1.67 -1.42 -0.38
 H -4.28  0.15 -0.86
 H -3.99 -1.44 -1.55
 H -3.44  0.11 -3.25
 H -1.92 -0.58 -2.71
 H -1.38  1.45 -1.58
 H -4.54  3.52 -2.85
 H -3.91  2.28 -3.82
 H -3.17  4.25 -1.15
 N -3.76  2.00  1.36
 C -4.90  2.66  1.95
 H -3.24  2.49  0.61
 H -4.60  3.56  2.50
 H -5.37  1.96  2.66
 H -5.63  2.94  1.18
