35
#
 C  1.13 -1.10  2.19
 C  0.35 -0.13  3.06
 O  0.76  0.26  4.14
 H  2.02 -0.58  1.81
 H  0.56 -1.49  1.33
 H  1.47 -1.93  2.81
 N -0.87  0.27  2.56
 C -1.67  1.30  3.20
 C -1.98  1.06  4.69
 O -1.93  2.02  5.46
 H -1.15 -0.05  1.64
 H -1.08  2.23  3.22
 C -2.93  1.53  2.35
 C -4.04  2.42  2.93
 C -3.63  3.83  3.41
 N -2.63  4.46  2.57
 C -1.48  5.10  3.03
 N -1.08  4.77  4.31
 N -0.77  5.95  2.35
 H -3.38  0.55  2.11
 H -2.59  1.96  1.40
 H -4.53  1.91  3.78
 H -4.82  2.50  2.15
 H -3.23  3.76  4.42
 H -4.54  4.45  3.48
 H -2.97  4.86  1.70
 H -0.16  5.13  4.53
 H -1.29  3.85  4.70
 H -1.23  6.18  1.46
 N -2.41 -0.15  5.14
 C -2.49 -1.43  4.45
 H -2.53 -0.16  6.15
 H -3.15 -2.08  5.02
 H -1.51 -1.92  4.35
 H -2.92 -1.32  3.45
