35
#
 C -0.71  0.77  0.39
 C -1.08  0.64  1.86
 O -1.14  1.62  2.60
 H  0.30  1.19  0.32
 H -1.40  1.49 -0.07
 H -0.75 -0.17 -0.16
 N -1.34 -0.64  2.28
 C -1.57 -1.01  3.69
 C -1.63 -2.54  3.80
 O -0.86 -3.14  4.55
 H -1.13 -1.39  1.64
 H -0.69 -0.73  4.27
 C -2.82 -0.33  4.33
 C -2.45  0.77  5.33
 C -3.58  1.79  5.53
 N -3.14  3.01  6.18
 C -2.79  4.17  5.51
 N -2.49  4.00  4.16
 N -2.83  5.28  6.17
 H -3.45 -1.09  4.81
 H -3.43  0.10  3.52
 H -1.57  1.30  4.96
 H -2.16  0.32  6.30
 H -4.39  1.35  6.13
 H -4.02  2.03  4.55
 H -3.46  3.20  7.12
 H -2.08  4.83  3.73
 H -2.04  3.14  3.85
 H -2.46  6.05  5.61
 N -2.52 -3.23  3.01
 C -3.71 -2.74  2.34
 H -2.49 -4.23  3.21
 H -3.95 -3.40  1.49
 H -3.55 -1.74  1.94
 H -4.59 -2.71  3.01
