35
#
 C -2.15  1.41  0.33
 C -0.88  1.05  1.09
 O  0.10  1.79  1.14
 H -2.42  0.63 -0.40
 H -1.97  2.35 -0.19
 H -3.00  1.52  1.02
 N -0.87 -0.17  1.74
 C -1.96 -1.11  1.86
 C -3.07 -0.81  2.88
 O -4.21 -1.24  2.64
 H  0.00 -0.36  2.23
 H -2.50 -1.10  0.90
 C -1.44 -2.54  2.06
 C -0.94 -3.21  0.77
 C -2.05 -3.56 -0.23
 N -2.58 -2.41 -0.97
 C -3.94 -2.18 -1.19
 N -4.77 -2.52 -0.13
 N -4.45 -1.69 -2.27
 H -2.25 -3.15  2.49
 H -0.64 -2.53  2.82
 H -0.43 -4.15  1.04
 H -0.18 -2.58  0.28
 H -2.90 -4.03  0.29
 H -1.67 -4.31 -0.95
 H -2.02 -2.15 -1.78
 H -5.73 -2.27 -0.34
 H -4.49 -2.20  0.80
 H -3.76 -1.64 -3.02
 N -2.83 -0.09  4.01
 C -1.57  0.38  4.58
 H -3.67  0.03  4.58
 H -0.82 -0.42  4.60
 H -1.76  0.67  5.62
 H -1.17  1.24  4.04
