35
#
 C  1.21 -0.46  0.21
 C  0.68 -0.38  1.63
 O  1.43 -0.27  2.60
 H  1.80  0.44 -0.00
 H  0.42 -0.56 -0.55
 H  1.88 -1.32  0.13
 N -0.68 -0.43  1.75
 C -1.34 -0.50  3.04
 C -2.70 -1.17  2.79
 O -3.09 -1.43  1.64
 H -1.28 -0.70  0.97
 H -0.74 -1.15  3.70
 C -1.42  0.88  3.74
 C -2.24  1.97  3.03
 C -3.75  1.78  3.12
 N -4.46  2.98  2.68
 C -5.84  3.01  2.83
 N -6.41  4.13  2.21
 N -6.46  2.07  3.46
 H -0.38  1.21  3.85
 H -1.80  0.74  4.77
 H -1.91  2.04  1.98
 H -1.99  2.94  3.50
 H -4.06  1.58  4.15
 H -4.08  0.91  2.52
 H -4.13  3.38  1.82
 H -7.39  4.28  2.45
 H -5.87  4.99  2.30
 H -7.45  2.30  3.58
 N -3.44 -1.43  3.90
 C -4.84 -1.83  3.83
 H -3.08 -1.09  4.79
 H -5.07 -2.48  4.68
 H -4.99 -2.39  2.90
 H -5.51 -0.96  3.83
