35
#
 C  0.78 -0.95  1.52
 C  0.28  0.38  2.02
 O  1.05  1.20  2.51
 H  0.89 -1.61  2.39
 H  1.76 -0.80  1.07
 H  0.12 -1.46  0.81
 N -1.07  0.69  1.96
 C -2.21  0.00  1.37
 C -2.26 -1.51  1.75
 O -1.86 -1.90  2.84
 H -1.26  1.58  2.40
 H -3.08  0.39  1.93
 C -2.46  0.38 -0.10
 C -1.32  0.11 -1.09
 C -1.75  0.19 -2.57
 N -2.40 -1.03 -3.07
 C -3.67 -1.43 -2.64
 N -4.63 -0.42 -2.65
 N -4.01 -2.61 -2.24
 H -2.68  1.46 -0.12
 H -3.40 -0.08 -0.44
 H -0.90 -0.89 -0.93
 H -0.50  0.82 -0.91
 H -0.88  0.36 -3.21
 H -2.42  1.05 -2.73
 H -1.76 -1.82 -3.07
 H -5.56 -0.79 -2.51
 H -4.56  0.24 -3.42
 H -3.18 -3.22 -2.18
 N -2.85 -2.34  0.85
 C -3.09 -3.74  1.17
 H -3.24 -1.99 -0.02
 H -2.15 -4.29  1.25
 H -3.71 -4.17  0.38
 H -3.62 -3.83  2.13
