35
#
 C -2.52 -0.30 -0.98
 C -1.70 -0.99  0.10
 O -0.94 -1.92 -0.19
 H -1.87  0.40 -1.51
 H -3.39  0.26 -0.61
 H -2.84 -1.06 -1.69
 N -1.85 -0.61  1.42
 C -2.51  0.55  2.03
 C -4.04  0.40  2.17
 O -4.71  1.27  2.74
 H -1.21 -1.12  2.02
 H -2.17  0.54  3.08
 C -2.00  1.88  1.43
 C -2.58  3.23  1.89
 C -2.61  3.52  3.41
 N -1.65  2.76  4.20
 C -1.96  2.04  5.35
 N -3.29  1.65  5.47
 N -1.00  1.80  6.18
 H -2.11  1.85  0.34
 H -0.92  1.87  1.63
 H -3.60  3.36  1.51
 H -1.96  4.00  1.40
 H -3.62  3.29  3.79
 H -2.47  4.60  3.58
 H -0.71  3.12  4.26
 H -3.47  0.96  6.19
 H -3.86  1.54  4.63
 H -1.31  1.18  6.94
 N -4.58 -0.76  1.71
 C -5.98 -1.09  1.85
 H -3.93 -1.45  1.35
 H -6.42 -1.33  0.87
 H -6.49 -0.22  2.27
 H -6.12 -1.94  2.52
