35
#
 C -0.09  0.65  1.13
 C -0.41 -0.20  2.34
 O  0.46 -0.82  2.94
 H  0.99  0.59  0.95
 H -0.36  1.71  1.27
 H -0.62  0.29  0.24
 N -1.71 -0.27  2.77
 C -2.93  0.37  2.25
 C -3.23 -0.14  0.81
 O -3.41 -1.35  0.66
 H -1.83 -0.95  3.51
 H -3.74 -0.12  2.82
 C -3.01  1.87  2.56
 C -2.87  2.20  4.04
 C -2.78  3.71  4.31
 N -1.61  4.36  3.71
 C -1.53  4.74  2.37
 N -2.72  5.24  1.85
 N -0.50  4.67  1.61
 H -3.97  2.26  2.18
 H -2.23  2.40  2.00
 H -1.97  1.71  4.45
 H -3.73  1.79  4.61
 H -2.74  3.89  5.40
 H -3.68  4.22  3.94
 H -0.72  3.97  4.04
 H -2.55  5.67  0.95
 H -3.25  5.85  2.47
 H  0.27  4.17  2.06
 N -3.35  0.70 -0.27
 C -3.10  2.12 -0.47
 H -3.59  0.16 -1.10
 H -3.84  2.76  0.03
 H -3.17  2.31 -1.55
 H -2.10  2.44 -0.15
