35
#
 C  0.22 -0.03  0.18
 C  0.45  1.03  1.23
 O  1.57  1.52  1.43
 H -0.24  0.42 -0.71
 H  1.19 -0.45 -0.11
 H -0.44 -0.84  0.53
 N -0.62  1.43  1.99
 C -2.01  1.37  1.58
 C -2.27  2.19  0.29
 O -1.58  3.16 -0.03
 H -0.40  2.29  2.51
 H -2.26  0.32  1.35
 C -2.95  1.83  2.73
 C -2.48  2.94  3.69
 C -2.03  4.29  3.09
 N -0.68  4.25  2.56
 C  0.41  4.70  3.29
 N  1.61  4.51  2.59
 N  0.24  5.22  4.46
 H -3.18  0.94  3.34
 H -3.91  2.14  2.27
 H -1.67  2.57  4.33
 H -3.33  3.13  4.37
 H -2.05  5.04  3.89
 H -2.72  4.62  2.30
 H -0.59  4.22  1.54
 H  2.43  4.71  3.15
 H  1.69  3.62  2.10
 H  1.14  5.41  4.90
 N -3.32  1.80 -0.48
 C -4.18  0.63 -0.32
 H -3.46  2.38 -1.30
 H -3.61 -0.31 -0.39
 H -4.92  0.64 -1.13
 H -4.73  0.64  0.63
