35
#
 C  0.06 -0.16  0.31
 C -0.48 -0.20  1.72
 O  0.03 -0.88  2.60
 H -0.67  0.20 -0.43
 H  0.41 -1.15  0.02
 H  0.93  0.52  0.29
 N -1.59  0.58  1.95
 C -2.07  0.87  3.30
 C -0.86  1.26  4.20
 O -0.07  2.12  3.82
 H -1.84  1.24  1.22
 H -2.61  1.83  3.21
 C -3.10 -0.14  3.82
 C -2.71 -1.63  3.85
 C -3.82 -2.52  4.40
 N -4.99 -2.52  3.55
 C -6.19 -3.09  3.96
 N -7.14 -3.11  2.93
 N -6.49 -3.58  5.11
 H -4.00 -0.04  3.20
 H -3.42  0.18  4.83
 H -1.80 -1.80  4.43
 H -2.45 -1.96  2.83
 H -4.13 -2.16  5.40
 H -3.42 -3.55  4.55
 H -4.79 -2.65  2.56
 H -8.04 -3.42  3.29
 H -7.22 -2.24  2.40
 H -5.67 -3.64  5.72
 N -0.82  0.70  5.44
 C  0.29  0.96  6.34
 H -1.38 -0.12  5.61
 H -0.03  0.81  7.38
 H  0.61  2.00  6.20
 H  1.15  0.31  6.13
