35
#
 C -0.23  0.67 -0.12
 C -0.60  0.10  1.24
 O -0.58  0.79  2.26
 H -0.94  1.47 -0.36
 H -0.24 -0.07 -0.92
 H  0.76  1.12 -0.05
 N -1.00 -1.21  1.23
 C -1.21 -1.97  2.45
 C -0.20 -3.13  2.46
 O  0.12 -3.70  1.43
 H -0.79 -1.78  0.42
 H -1.03 -1.28  3.29
 C -2.65 -2.56  2.55
 C -3.71 -1.63  3.15
 C -3.91 -0.29  2.43
 N -5.11  0.43  2.84
 C -5.16  1.08  4.07
 N -6.43  1.65  4.30
 N -4.14  1.10  4.85
 H -2.61 -3.47  3.16
 H -2.94 -2.88  1.54
 H -3.47 -1.42  4.20
 H -4.67 -2.18  3.15
 H -3.99 -0.44  1.34
 H -3.06  0.37  2.61
 H -5.99  0.04  2.54
 H -6.45  2.24  5.12
 H -6.84  2.11  3.50
 H -4.29  1.74  5.64
 N  0.26 -3.47  3.70
 C  1.16 -4.58  3.92
 H -0.02 -2.90  4.49
 H  0.72 -5.33  4.60
 H  2.12 -4.24  4.34
 H  1.35 -5.06  2.95
