35
#
 C -0.59 -0.04 -0.53
 C -0.45 -0.39  0.94
 O  0.41 -1.19  1.33
 H -0.53  1.04 -0.71
 H -1.56 -0.40 -0.92
 H  0.21 -0.54 -1.08
 N -1.30  0.20  1.84
 C -2.44  1.10  1.64
 C -3.57  0.38  0.85
 O -4.06 -0.62  1.37
 H -1.19 -0.19  2.77
 H -2.90  1.15  2.64
 C -2.02  2.55  1.30
 C -3.11  3.59  1.62
 C -3.21  3.90  3.11
 N -4.28  4.86  3.37
 C -4.78  4.99  4.66
 N -5.68  6.06  4.76
 N -4.39  4.20  5.60
 H -1.70  2.64  0.26
 H -1.13  2.76  1.90
 H -4.10  3.25  1.26
 H -2.88  4.52  1.07
 H -2.24  4.26  3.49
 H -3.45  3.01  3.70
 H -4.21  5.73  2.86
 H -6.18  6.09  5.64
 H -6.31  6.16  3.97
 H -4.94  4.35  6.45
 N -4.04  0.80 -0.37
 C -3.63  1.84 -1.30
 H -4.79  0.19 -0.68
 H -3.80  2.85 -0.91
 H -4.24  1.73 -2.21
 H -2.58  1.75 -1.60
