35
#
 C  0.04  0.31  0.17
 C -0.04 -0.00  1.65
 O  0.97 -0.10  2.34
 H  0.11  1.40  0.05
 H -0.82 -0.04 -0.41
 H  0.96 -0.13 -0.22
 N -1.28 -0.19  2.22
 C -2.62  0.06  1.68
 C -3.05 -0.96  0.58
 O -3.94 -0.69 -0.22
 H -1.22 -0.32  3.23
 H -3.30 -0.16  2.51
 C -2.92  1.51  1.24
 C -2.80  2.56  2.36
 C -1.39  3.11  2.60
 N -1.33  4.21  3.56
 C -1.93  5.44  3.34
 N -1.90  5.86  2.01
 N -2.49  6.21  4.22
 H -3.94  1.49  0.85
 H -2.29  1.79  0.39
 H -3.21  2.16  3.30
 H -3.44  3.42  2.09
 H -0.96  3.44  1.65
 H -0.71  2.33  2.98
 H -1.42  3.91  4.53
 H -2.21  6.82  1.93
 H -1.03  5.69  1.52
 H -2.58  5.73  5.12
 N -2.40 -2.15  0.64
 C -2.70 -3.24 -0.27
 H -1.66 -2.25  1.31
 H -2.99 -4.15  0.28
 H -1.83 -3.48 -0.90
 H -3.53 -2.93 -0.91
