35
#
 C  1.03 -1.79  2.10
 C  0.33 -0.57  2.68
 O  0.85  0.15  3.53
 H  2.05 -1.51  1.83
 H  1.10 -2.55  2.89
 H  0.52 -2.22  1.23
 N -0.92 -0.32  2.16
 C -1.83  0.72  2.64
 C -1.14  2.04  3.06
 O -1.37  2.57  4.14
 H -1.29 -0.98  1.50
 H -2.45  0.99  1.77
 C -2.79  0.22  3.74
 C -2.12 -0.37  4.98
 C -3.15 -0.78  6.03
 N -2.49 -1.36  7.19
 C -3.22 -1.92  8.23
 N -2.41 -2.29  9.31
 N -4.49 -2.12  8.29
 H -3.46 -0.54  3.28
 H -3.43  1.07  4.03
 H -1.43  0.37  5.40
 H -1.53 -1.26  4.71
 H -3.84 -1.54  5.62
 H -3.76  0.10  6.31
 H -1.64 -0.88  7.48
 H -2.95 -2.82  9.99
 H -1.55 -2.76  9.05
 H -4.98 -1.68  7.51
 N -0.37  2.68  2.12
 C  0.06  2.22  0.81
 H  0.07  3.51  2.50
 H -0.75  1.71  0.28
 H  0.35  3.10  0.22
 H  0.93  1.54  0.87
