35
#
 C  1.33 -3.88  1.26
 C  0.03 -3.15  1.00
 O -0.49 -3.11 -0.11
 H  2.11 -3.46  0.61
 H  1.21 -4.93  0.99
 H  1.67 -3.82  2.30
 N -0.52 -2.53  2.09
 C -1.69 -1.69  1.98
 C -1.64 -0.71  3.17
 O -0.82 -0.85  4.08
 H -0.01 -2.43  2.96
 H -1.63 -1.12  1.04
 C -3.01 -2.52  1.91
 C -3.32 -3.43  3.10
 C -3.88 -2.71  4.33
 N -4.31 -3.67  5.33
 C -4.91 -3.25  6.51
 N -5.11 -4.29  7.41
 N -5.27 -2.05  6.83
 H -2.92 -3.13  1.00
 H -3.85 -1.83  1.73
 H -2.40 -3.98  3.38
 H -4.05 -4.18  2.78
 H -4.75 -2.11  4.03
 H -3.13 -2.01  4.75
 H -3.68 -4.47  5.45
 H -5.48 -5.14  7.00
 H -5.67 -3.98  8.21
 H -4.93 -1.37  6.15
 N -2.55  0.29  3.13
 C -2.72  1.24  4.21
 H -3.19  0.33  2.35
 H -3.64  1.04  4.78
 H -2.76  2.27  3.83
 H -1.87  1.14  4.89
