35
#
 C -1.41  1.03  0.06
 C -0.96  0.83  1.49
 O -0.06  1.48  2.01
 H -0.60  1.48 -0.52
 H -2.27  1.72  0.05
 H -1.73  0.09 -0.42
 N -1.67 -0.12  2.18
 C -1.54 -0.32  3.61
 C -2.31 -1.60  3.94
 O -3.20 -2.02  3.19
 H -2.42 -0.64  1.74
 H -0.47 -0.44  3.84
 C -2.05  0.88  4.45
 C -3.55  1.19  4.41
 C -4.07  1.66  3.05
 N -5.39  2.27  3.17
 C -5.95  2.86  2.05
 N -7.28  3.24  2.27
 N -5.27  2.99  0.97
 H -1.48  1.76  4.11
 H -1.75  0.71  5.50
 H -3.75  1.99  5.14
 H -4.13  0.31  4.74
 H -4.09  0.83  2.32
 H -3.40  2.42  2.62
 H -6.05  1.73  3.73
 H -7.66  3.83  1.54
 H -7.47  3.63  3.19
 H -5.78  3.55  0.28
 N -2.02 -2.24  5.11
 C -1.01 -1.92  6.10
 H -2.62 -3.03  5.28
 H -0.67 -2.85  6.58
 H -1.39 -1.25  6.89
 H -0.14 -1.44  5.63
