35
#
 C -0.58  1.58 -0.04
 C -0.42  1.20  1.42
 O  0.57  1.55  2.07
 H -0.86  2.64 -0.10
 H -1.35  0.99 -0.57
 H  0.38  1.46 -0.55
 N -1.45  0.49  1.94
 C -1.63  0.14  3.34
 C -3.06 -0.44  3.44
 O -3.84 -0.38  2.49
 H -2.30  0.31  1.39
 H -0.92 -0.66  3.61
 C -1.38  1.32  4.32
 C -2.05  2.63  3.92
 C -1.31  3.86  4.49
 N -1.54  5.11  3.80
 C -1.05  5.41  2.53
 N  0.10  4.73  2.16
 N -1.64  6.35  1.87
 H -0.29  1.47  4.35
 H -1.68  1.01  5.33
 H -3.11  2.65  4.23
 H -2.06  2.73  2.83
 H -0.22  3.66  4.48
 H -1.56  4.01  5.55
 H -2.43  5.57  3.96
 H  0.36  4.87  1.19
 H  0.26  3.77  2.46
 H -1.16  6.54  0.99
 N -3.36 -1.01  4.63
 C -4.66 -1.58  4.92
 H -2.65 -1.03  5.35
 H -4.57 -2.65  5.19
 H -5.27 -1.49  4.02
 H -5.16 -1.05  5.75
