35
#
 C -0.37  0.60 -0.11
 C -0.28  0.10  1.32
 O  0.61 -0.66  1.70
 H  0.59  1.06 -0.38
 H -1.18  1.32 -0.28
 H -0.52 -0.26 -0.77
 N -1.26  0.55  2.16
 C -1.36  0.10  3.55
 C -2.85  0.05  3.94
 O -3.48 -1.00  3.93
 H -1.98  1.16  1.80
 H -1.01 -0.94  3.57
 C -0.48  0.95  4.49
 C -0.43  0.40  5.92
 C -0.07  1.46  6.98
 N -1.16  2.39  7.28
 C -1.52  3.45  6.45
 N -0.45  4.14  5.88
 N -2.73  3.84  6.19
 H -0.82  1.99  4.47
 H  0.53  0.96  4.06
 H  0.29 -0.43  5.97
 H -1.40 -0.04  6.20
 H  0.82  2.03  6.66
 H  0.20  0.96  7.92
 H -1.98  1.92  7.65
 H -0.76  5.01  5.45
 H  0.37  4.24  6.46
 H -3.41  3.20  6.59
 N -3.43  1.25  4.24
 C -4.83  1.34  4.61
 H -2.85  2.07  4.42
 H -5.12  2.40  4.62
 H -5.02  0.91  5.60
 H -5.44  0.79  3.89
