35
#
 C -0.78 -0.76 -1.11
 C -0.38 -0.47  0.32
 O  0.59 -0.99  0.86
 H  0.09 -0.58 -1.76
 H -1.63 -0.17 -1.47
 H -1.03 -1.83 -1.19
 N -1.19  0.43  0.98
 C -1.01  0.71  2.41
 C -2.36  1.13  3.01
 O -2.97  0.41  3.79
 H -2.03  0.75  0.53
 H -0.75 -0.23  2.90
 C  0.13  1.73  2.66
 C  0.35  2.00  4.14
 C  1.53  2.94  4.39
 N  1.70  3.20  5.81
 C  2.47  4.21  6.36
 N  3.00  5.11  5.43
 N  2.66  4.43  7.62
 H -0.08  2.67  2.12
 H  1.04  1.31  2.20
 H  0.53  1.05  4.66
 H -0.55  2.44  4.60
 H  1.35  3.90  3.88
 H  2.44  2.50  3.93
 H  1.52  2.42  6.43
 H  3.61  5.77  5.90
 H  3.42  4.71  4.60
 H  2.11  3.79  8.20
 N -2.83  2.35  2.58
 C -4.07  2.92  3.08
 H -2.20  2.94  2.05
 H -4.65  3.36  2.26
 H -3.88  3.70  3.84
 H -4.65  2.12  3.54
