35
#
 C -1.54  2.24  3.08
 C -1.14  1.11  4.02
 O  0.04  0.75  4.15
 H -2.62  2.32  2.94
 H -1.05  2.08  2.11
 H -1.16  3.18  3.49
 N -2.17  0.55  4.72
 C -1.93 -0.60  5.59
 C -1.95 -1.87  4.71
 O -2.98 -2.50  4.43
 H -3.13  0.68  4.41
 H -0.91 -0.47  5.96
 C -2.85 -0.62  6.83
 C -4.34 -0.99  6.74
 C -5.24 -0.11  5.87
 N -4.93 -0.31  4.46
 C -5.62  0.34  3.45
 N -5.26 -0.11  2.18
 N -6.44  1.33  3.56
 H -2.75  0.38  7.29
 H -2.38 -1.32  7.54
 H -4.74 -0.94  7.77
 H -4.44 -2.04  6.42
 H -5.09  0.95  6.13
 H -6.29 -0.35  6.09
 H -4.47 -1.20  4.25
 H -5.90  0.24  1.47
 H -5.07 -1.10  2.09
 H -6.57  1.61  4.54
 N -0.72 -2.20  4.23
 C -0.53 -3.24  3.25
 H -0.00 -1.48  4.34
 H -1.35 -3.96  3.33
 H  0.42 -3.75  3.43
 H -0.52 -2.84  2.22
