35
#
 C  0.43  2.18  0.93
 C  0.17  0.89  1.69
 O  0.75 -0.16  1.42
 H  1.51  2.36  0.89
 H -0.08  3.05  1.37
 H  0.08  2.05 -0.10
 N -0.77  1.00  2.69
 C -1.13 -0.14  3.52
 C -2.40 -0.92  3.14
 O -2.48 -2.10  3.48
 H -1.17  1.93  2.88
 H -0.33 -0.88  3.37
 C -1.18  0.23  5.02
 C  0.18  0.66  5.60
 C  0.23  2.09  6.14
 N -0.01  3.10  5.10
 C -1.25  3.64  4.84
 N -1.96  4.03  5.96
 N -1.65  3.73  3.61
 H -1.56 -0.65  5.55
 H -1.93  1.02  5.17
 H  0.96  0.55  4.83
 H  0.47 -0.02  6.42
 H  1.21  2.28  6.60
 H -0.52  2.22  6.93
 H  0.47  2.89  4.23
 H -2.82  4.53  5.78
 H -1.43  4.40  6.74
 H -2.48  4.32  3.52
 N -3.44 -0.32  2.48
 C -3.65  1.06  2.07
 H -4.19 -0.98  2.29
 H -4.71  1.19  1.85
 H -3.07  1.33  1.17
 H -3.39  1.77  2.86
