35
#
 C -0.38  1.88  0.01
 C  0.08  1.38  1.37
 O  1.10  1.80  1.90
 H -1.46  1.87 -0.13
 H  0.07  1.24 -0.77
 H  0.01  2.90 -0.12
 N -0.65  0.38  1.98
 C -2.02 -0.06  1.69
 C -2.15 -0.69  0.28
 O -3.16 -0.55 -0.40
 H -0.30  0.18  2.91
 H -2.19 -0.90  2.39
 C -3.12  0.98  1.98
 C -4.45  0.35  2.38
 C -5.56  1.38  2.65
 N -5.27  2.38  3.67
 C -5.26  2.05  5.01
 N -4.84  3.12  5.82
 N -5.58  0.86  5.40
 H -3.26  1.62  1.09
 H -2.74  1.62  2.79
 H -4.32 -0.25  3.29
 H -4.80 -0.32  1.59
 H -6.47  0.85  2.96
 H -5.80  1.93  1.72
 H -4.64  3.13  3.41
 H -4.97  2.95  6.81
 H -5.21  4.03  5.55
 H -5.64  0.82  6.42
 N -1.08 -1.44 -0.09
 C -1.00 -2.11 -1.38
 H -0.26 -1.41  0.51
 H -1.98 -2.05 -1.85
 H -0.73 -3.17 -1.25
 H -0.26 -1.64 -2.04
