35
#
 C  0.66  0.80  0.32
 C  0.34  0.72  1.80
 O  1.17  1.03  2.66
 H  0.90  1.84  0.07
 H -0.16  0.46 -0.33
 H  1.55  0.20  0.11
 N -0.90  0.27  2.12
 C -1.42  0.22  3.49
 C -0.93 -1.05  4.25
 O -1.70 -1.93  4.67
 H -1.52 -0.04  1.37
 H -0.98  1.08  4.01
 C -2.94  0.34  3.50
 C -3.70 -0.69  2.63
 C -5.01 -1.16  3.29
 N -4.72 -1.87  4.53
 C -5.37 -1.62  5.73
 N -6.69 -1.17  5.59
 N -4.88 -1.75  6.92
 H -3.21  1.36  3.19
 H -3.26  0.24  4.55
 H -3.08 -1.58  2.46
 H -3.95 -0.27  1.65
 H -5.55 -1.81  2.58
 H -5.66 -0.30  3.51
 H -3.73 -2.10  4.66
 H -7.15 -1.15  6.49
 H -7.24 -1.66  4.89
 H -3.87 -1.95  6.87
 N  0.40 -1.09  4.43
 C  1.06 -2.19  5.11
 H  0.95 -0.33  4.02
 H  1.02 -3.11  4.51
 H  0.57 -2.40  6.07
 H  2.11 -1.93  5.28
