35
#
 C  0.37 -0.93  2.33
 C -0.52 -0.90  3.56
 O -0.06 -1.13  4.68
 H  0.07 -0.23  1.55
 H  0.36 -1.94  1.90
 H  1.40 -0.71  2.65
 N -1.87 -0.68  3.40
 C -2.53  0.05  2.31
 C -2.43 -0.67  0.95
 O -2.38 -0.05 -0.12
 H -2.32 -0.58  4.31
 H -3.60  0.00  2.56
 C -2.17  1.55  2.22
 C -2.49  2.32  3.51
 C -1.32  2.36  4.53
 N -1.73  2.62  5.91
 C -2.47  1.71  6.65
 N -2.21  0.36  6.37
 N -3.34  2.17  7.49
 H -2.74  1.95  1.37
 H -1.11  1.67  1.94
 H -3.36  1.87  4.00
 H -2.78  3.35  3.26
 H -0.61  3.15  4.25
 H -0.75  1.43  4.51
 H -2.06  3.56  6.10
 H -2.58 -0.26  7.07
 H -1.24  0.11  6.13
 H -3.73  1.41  8.06
 N -2.48 -2.03  1.03
 C -2.43 -2.90 -0.13
 H -2.46 -2.43  1.97
 H -3.29 -3.58 -0.14
 H -2.46 -2.26 -1.02
 H -1.50 -3.49 -0.15
