35
#
 C -0.11 -0.30  0.16
 C -0.26  0.33  1.54
 O  0.43  1.28  1.89
 H -0.17  0.49 -0.60
 H -0.86 -1.07 -0.06
 H  0.89 -0.75  0.08
 N -1.22 -0.24  2.33
 C -1.38  0.08  3.75
 C -2.31 -0.91  4.48
 O -2.05 -1.22  5.64
 H -1.58 -1.14  2.03
 H -0.41 -0.09  4.25
 C -1.75  1.55  4.05
 C -3.01  2.10  3.38
 C -3.18  3.59  3.66
 N -4.36  4.12  2.98
 C -4.95  5.29  3.43
 N -5.95  5.73  2.54
 N -4.56  5.86  4.51
 H -0.88  2.16  3.76
 H -1.84  1.63  5.15
 H -3.91  1.58  3.74
 H -2.95  1.93  2.29
 H -2.27  4.14  3.37
 H -3.32  3.78  4.73
 H -4.35  4.02  1.97
 H -6.51  6.49  2.92
 H -6.53  4.99  2.16
 H -5.18  6.64  4.76
 N -3.38 -1.48  3.84
 C -4.17 -1.04  2.69
 H -3.86 -2.13  4.47
 H -5.10 -0.54  3.02
 H -4.44 -1.89  2.06
 H -3.61 -0.32  2.09
