35
#
 C -1.09 -1.03  1.89
 C -1.41  0.33  2.48
 O -0.76  0.80  3.41
 H -0.61 -1.63  2.67
 H -0.37 -0.91  1.07
 H -1.96 -1.56  1.50
 N -2.48  1.03  1.96
 C -3.22  0.80  0.72
 C -4.17 -0.42  0.77
 O -4.51 -1.01 -0.25
 H -2.57  1.97  2.35
 H -3.91  1.66  0.67
 C -2.39  0.79 -0.59
 C -1.15  1.69 -0.65
 C -1.28  3.16 -0.19
 N -2.46  3.86 -0.67
 C -3.61  4.07  0.09
 N -3.38  4.18  1.47
 N -4.82  4.17 -0.34
 H -3.09  1.06 -1.40
 H -2.08 -0.24 -0.82
 H -0.79  1.67 -1.70
 H -0.33  1.25 -0.06
 H -0.38  3.70 -0.52
 H -1.28  3.20  0.90
 H -2.66  3.77 -1.66
 H -2.59  4.77  1.73
 H -4.24  4.49  1.93
 H -4.89  3.93 -1.33
 N -4.62 -0.74  2.01
 C -5.56 -1.81  2.26
 H -4.23 -0.21  2.79
 H -6.47 -1.43  2.75
 H -5.12 -2.59  2.90
 H -5.83 -2.25  1.29
