35
#
 C -0.30  0.11 -0.01
 C -0.16  0.32  1.48
 O  0.85  0.79  1.99
 H -1.31 -0.20 -0.33
 H  0.42 -0.65 -0.33
 H -0.04  1.05 -0.53
 N -1.26 -0.03  2.23
 C -1.28 -0.03  3.69
 C -0.75  1.29  4.32
 O  0.04  1.28  5.25
 H -2.04 -0.46  1.75
 H -2.35 -0.09  3.97
 C -0.56 -1.23  4.30
 C -1.14 -2.58  3.86
 C -0.46 -3.78  4.53
 N -0.58 -3.85  5.98
 C -1.76 -4.25  6.57
 N -1.74 -4.10  7.97
 N -2.76 -4.67  5.86
 H -0.63 -1.12  5.40
 H  0.51 -1.16  4.05
 H -1.03 -2.70  2.77
 H -2.22 -2.63  4.09
 H  0.61 -3.79  4.29
 H -0.90 -4.71  4.13
 H -0.05 -3.16  6.50
 H -2.52 -4.55  8.44
 H -0.85 -4.34  8.40
 H -3.50 -5.04  6.45
 N -1.28  2.47  3.87
 C -2.24  2.73  2.81
 H -0.84  3.27  4.31
 H -2.70  3.71  2.99
 H -3.05  1.99  2.82
 H -1.79  2.74  1.81
