35
#
 C -0.13  0.42  0.14
 C -0.09  0.27  1.65
 O  0.95  0.37  2.29
 H -0.38  1.46 -0.11
 H -0.86 -0.23 -0.35
 H  0.87  0.22 -0.24
 N -1.28  0.00  2.31
 C -2.65 -0.02  1.79
 C -2.95 -1.25  0.90
 O -3.85 -1.24  0.07
 H -1.16  0.04  3.32
 H -3.27 -0.18  2.69
 C -3.12  1.30  1.13
 C -4.61  1.57  1.32
 C -5.10  2.83  0.58
 N -4.49  4.09  1.02
 C -3.26  4.57  0.59
 N -2.95  4.25 -0.74
 N -2.41  5.26  1.28
 H -2.89  1.28  0.06
 H -2.53  2.11  1.57
 H -4.84  1.67  2.40
 H -5.19  0.71  0.95
 H -6.19  2.92  0.70
 H -4.91  2.71 -0.49
 H -4.66  4.30  2.00
 H -2.13  4.78 -1.04
 H -3.72  4.33 -1.40
 H -2.68  5.30  2.26
 N -2.16 -2.34  1.15
 C -2.31 -3.59  0.43
 H -1.40 -2.21  1.80
 H -2.46 -4.42  1.13
 H -1.42 -3.80 -0.18
 H -3.18 -3.50 -0.22
