35
#
 C -0.64  1.23  0.82
 C -0.31  0.33  2.00
 O  0.69  0.49  2.68
 H -0.33  0.75 -0.12
 H -0.07  2.15  0.94
 H -1.71  1.47  0.74
 N -1.18 -0.70  2.27
 C -2.41 -1.07  1.60
 C -3.20 -1.97  2.58
 O -2.64 -2.50  3.55
 H -0.97 -1.26  3.09
 H -3.03 -0.17  1.43
 C -2.21 -1.75  0.21
 C -1.10 -2.80  0.11
 C -1.25 -4.05  0.97
 N -2.57 -4.66  0.79
 C -3.14 -5.58  1.68
 N -2.71 -5.48  2.99
 N -4.03 -6.47  1.37
 H -1.99 -0.95 -0.52
 H -3.17 -2.19 -0.10
 H -0.13 -2.34  0.36
 H -1.02 -3.09 -0.95
 H -1.13 -3.80  2.03
 H -0.44 -4.76  0.73
 H -2.79 -4.89 -0.17
 H -3.27 -6.07  3.60
 H -2.57 -4.54  3.36
 H -4.16 -6.52  0.35
 N -4.51 -2.12  2.30
 C -5.38 -3.05  3.00
 H -4.86 -1.69  1.45
 H -6.38 -2.63  3.07
 H -4.97 -3.20  4.01
 H -5.42 -4.03  2.49
