35
#
 C  0.86 -0.14  3.73
 C -0.46  0.53  4.03
 O -0.53  1.42  4.87
 H  0.75 -1.15  3.33
 H  1.42 -0.18  4.67
 H  1.44  0.49  3.04
 N -1.61  0.19  3.35
 C -2.01 -0.74  2.29
 C -1.83 -2.23  2.66
 O -0.92 -2.65  3.37
 H -2.38  0.75  3.70
 H -3.09 -0.57  2.21
 C -1.46 -0.46  0.87
 C  0.00 -0.78  0.57
 C  0.29 -0.97 -0.93
 N -0.24 -2.22 -1.48
 C -1.55 -2.40 -1.93
 N -2.11 -1.29 -2.55
 N -2.26 -3.47 -1.82
 H -1.66  0.60  0.65
 H -2.10 -1.02  0.17
 H  0.32 -1.69  1.09
 H  0.65  0.03  0.94
 H  1.37 -0.96 -1.10
 H -0.12 -0.13 -1.51
 H  0.11 -3.04 -1.01
 H -2.98 -1.54 -3.01
 H -1.49 -0.76 -3.16
 H -1.78 -4.17 -1.23
 N -2.75 -3.10  2.13
 C -3.90 -2.86  1.27
 H -2.54 -4.07  2.37
 H -4.62 -3.67  1.42
 H -3.63 -2.83  0.20
 H -4.40 -1.93  1.54
