35
#
 C -0.08  1.34 -0.18
 C -0.01  1.46  1.33
 O  1.05  1.76  1.91
 H  0.89  1.62 -0.60
 H -0.87  1.97 -0.60
 H -0.31  0.30 -0.47
 N -1.15  1.25  2.04
 C -2.47  0.86  1.59
 C -3.36  2.03  1.10
 O -4.45  1.80  0.57
 H -1.02  1.25  3.07
 H -2.39  0.19  0.72
 C -3.22  0.08  2.69
 C -3.48  0.82  4.03
 C -2.46  0.59  5.15
 N -1.17  1.23  4.90
 C  0.04  0.70  5.43
 N  1.13  1.44  5.00
 N  0.18 -0.31  6.21
 H -2.66 -0.85  2.89
 H -4.18 -0.21  2.25
 H -4.45  0.48  4.42
 H -3.61  1.90  3.85
 H -2.27 -0.49  5.24
 H -2.89  0.93  6.11
 H -1.19  2.25  4.97
 H  2.00  1.04  5.32
 H  1.14  1.67  3.99
 H -0.72 -0.64  6.56
 N -2.86  3.27  1.32
 C -3.55  4.48  0.92
 H -1.94  3.33  1.74
 H -3.74  5.14  1.78
 H -4.51  4.18  0.48
 H -2.98  5.04  0.17
