35
#
 C -0.19 -0.67 -0.16
 C -0.04 -0.62  1.35
 O  0.90 -1.16  1.93
 H -0.29 -1.72 -0.47
 H  0.73 -0.28 -0.62
 H -1.04 -0.10 -0.54
 N -1.01  0.09  2.00
 C -1.13  0.08  3.44
 C -2.62 -0.03  3.78
 O -3.48  0.27  2.95
 H -1.87  0.35  1.52
 H -0.58 -0.80  3.81
 C -0.53  1.35  4.11
 C  0.99  1.31  4.22
 C  1.57  2.42  5.11
 N  0.95  2.57  6.42
 C  0.96  1.57  7.38
 N  0.03  1.81  8.41
 N  1.68  0.50  7.42
 H -0.95  1.44  5.12
 H -0.87  2.23  3.54
 H  1.46  1.38  3.22
 H  1.29  0.32  4.60
 H  1.48  3.39  4.61
 H  2.65  2.25  5.26
 H  0.10  3.14  6.43
 H  0.20  1.16  9.18
 H  0.00  2.77  8.74
 H  2.23  0.38  6.57
 N -2.95 -0.44  5.04
 C -2.07 -0.80  6.14
 H -3.95 -0.42  5.22
 H -1.82  0.05  6.79
 H -1.13 -1.23  5.77
 H -2.56 -1.57  6.75
