35
#
 C -0.07 -0.95  0.13
 C -0.36 -0.35  1.49
 O  0.07  0.76  1.82
 H  0.99 -0.78 -0.12
 H -0.67 -0.42 -0.62
 H -0.30 -2.02  0.07
 N -1.14 -1.12  2.29
 C -1.52 -0.77  3.65
 C -1.92  0.73  3.74
 O -2.98  1.06  3.19
 H -1.27 -2.12  2.06
 H -2.51 -1.23  3.80
 C -0.60 -1.39  4.74
 C  0.88 -1.62  4.41
 C  1.21 -2.84  3.52
 N  0.62 -4.10  3.95
 C -0.50 -4.64  3.37
 N -0.89 -5.84  3.98
 N -1.12 -4.06  2.39
 H -1.04 -2.37  5.00
 H -0.69 -0.79  5.65
 H  1.42 -1.74  5.37
 H  1.32 -0.74  3.93
 H  2.31 -2.96  3.50
 H  0.89 -2.68  2.49
 H  0.84 -4.42  4.88
 H -1.63 -6.33  3.50
 H -0.13 -6.46  4.25
 H -1.85 -4.66  2.01
 N -1.25  1.63  4.54
 C  0.18  1.69  4.82
 H -1.72  2.53  4.48
 H  0.47  1.03  5.64
 H  0.41  2.72  5.13
 H  0.77  1.46  3.92
