35
#
 C  0.07  0.48  0.19
 C  0.18 -0.14  1.57
 O  1.26 -0.49  2.04
 H  1.08  0.61 -0.20
 H -0.43  1.46  0.21
 H -0.50 -0.16 -0.49
 N -0.98 -0.31  2.29
 C -2.36 -0.02  1.94
 C -3.00  0.70  3.14
 O -3.66  0.10  3.99
 H -0.83 -0.79  3.18
 H -2.34  0.65  1.07
 C -3.17 -1.28  1.58
 C -2.69 -2.00  0.33
 C -3.39 -3.35  0.12
 N -3.07 -4.32  1.16
 C -1.92 -5.08  1.08
 N -1.85 -6.04  2.11
 N -1.08 -4.89  0.13
 H -4.23 -0.98  1.47
 H -3.15 -1.96  2.45
 H -1.61 -2.20  0.38
 H -2.86 -1.38 -0.56
 H -3.09 -3.76 -0.86
 H -4.48 -3.22  0.11
 H -3.86 -4.77  1.61
 H -0.94 -6.48  2.18
 H -2.17 -5.71  3.02
 H -0.24 -5.46  0.25
 N -2.77  2.05  3.26
 C -1.90  2.88  2.44
 H -3.13  2.44  4.12
 H -2.19  2.85  1.38
 H -0.84  2.61  2.53
 H -2.01  3.92  2.77
