35
#
 C  1.02 -0.02  0.15
 C  0.69  0.09  1.62
 O  1.43  0.66  2.43
 H  1.21  0.99 -0.24
 H  0.24 -0.50 -0.45
 H  1.96 -0.59  0.04
 N -0.51 -0.47  2.00
 C -0.92 -0.54  3.39
 C -0.45 -1.89  3.97
 O -0.91 -2.94  3.52
 H -0.99 -1.07  1.34
 H -0.40  0.30  3.89
 C -2.44 -0.35  3.52
 C -2.94 -0.18  4.97
 C -3.18 -1.47  5.75
 N -4.20 -2.30  5.13
 C -4.23 -3.69  5.22
 N -2.98 -4.30  5.14
 N -5.38 -4.26  5.37
 H -2.95 -1.21  3.06
 H -2.69  0.54  2.94
 H -3.89  0.38  4.93
 H -2.25  0.46  5.54
 H -3.45 -1.21  6.79
 H -2.26 -2.07  5.83
 H -5.15 -1.95  5.25
 H -3.03 -5.31  5.05
 H -2.29 -3.88  4.51
 H -5.30 -5.28  5.27
 N  0.48 -1.88  4.95
 C  1.16 -0.73  5.54
 H  0.73 -2.80  5.28
 H  2.03 -1.09  6.09
 H  0.51 -0.18  6.25
 H  1.51 -0.04  4.76
