35
#
 C -0.08  0.32  0.17
 C  0.28 -0.25  1.53
 O  1.38 -0.74  1.76
 H -0.59 -0.45 -0.42
 H  0.86  0.57 -0.34
 H -0.74  1.19  0.20
 N -0.69 -0.24  2.51
 C -2.05  0.30  2.52
 C -2.88 -0.16  1.31
 O -3.41  0.64  0.52
 H -0.35 -0.65  3.38
 H -2.52 -0.17  3.40
 C -2.08  1.82  2.75
 C -3.44  2.48  2.98
 C -4.35  1.83  4.05
 N -5.09  0.67  3.56
 C -4.97 -0.59  4.09
 N -5.85 -1.51  3.49
 N -4.07 -0.86  4.98
 H -1.59  2.32  1.89
 H -1.43  2.01  3.62
 H -3.99  2.54  2.03
 H -3.26  3.52  3.30
 H -5.07  2.59  4.40
 H -3.77  1.50  4.92
 H -5.50  0.75  2.64
 H -5.88 -2.40  3.97
 H -6.78 -1.15  3.29
 H -4.19 -1.80  5.35
 N -3.03 -1.50  1.14
 C -2.56 -2.59  1.99
 H -3.59 -1.74  0.33
 H -2.68 -2.33  3.05
 H -1.51 -2.85  1.80
 H -3.19 -3.47  1.80
