35
#
 C -0.29 -0.91 -0.49
 C -0.45  0.05  0.67
 O  0.31  1.01  0.83
 H -0.31 -0.33 -1.43
 H -1.06 -1.69 -0.53
 H  0.70 -1.38 -0.43
 N -1.49 -0.21  1.52
 C -1.77  0.64  2.68
 C -0.91  0.21  3.89
 O -1.37 -0.44  4.83
 H -2.03 -1.05  1.40
 H -1.45  1.65  2.39
 C -3.28  0.63  2.96
 C -3.77  1.36  4.22
 C -3.39  2.84  4.38
 N -1.95  3.14  4.44
 C -1.17  3.13  5.59
 N -1.57  2.20  6.55
 N -0.14  3.88  5.81
 H -3.62 -0.41  3.04
 H -3.77  1.06  2.07
 H -3.45  0.80  5.10
 H -4.87  1.32  4.22
 H -3.89  3.22  5.29
 H -3.79  3.41  3.53
 H -1.66  3.86  3.79
 H -0.91  2.20  7.32
 H -1.73  1.25  6.19
 H -0.06  4.61  5.11
 N  0.37  0.64  3.81
 C  1.34  0.45  4.87
 H  0.63  1.14  2.96
 H  2.29  0.08  4.45
 H  0.94 -0.29  5.57
 H  1.53  1.39  5.41
