35
#
 C -0.31 -0.11 -0.67
 C -0.15  0.16  0.81
 O  0.96  0.35  1.32
 H  0.12  0.73 -1.23
 H -1.35 -0.25 -0.98
 H  0.26 -1.01 -0.94
 N -1.29  0.19  1.54
 C -1.31  0.49  2.97
 C -0.98 -0.78  3.80
 O -1.83 -1.40  4.45
 H -2.18 -0.04  1.10
 H -0.48  1.19  3.13
 C -2.64  1.15  3.35
 C -2.87  1.39  4.85
 C -1.66  1.95  5.62
 N -1.84  1.99  7.06
 C -1.66  0.91  7.92
 N -1.13 -0.24  7.34
 N -1.86  0.93  9.20
 H -3.47  0.53  2.97
 H -2.68  2.10  2.80
 H -3.18  0.45  5.31
 H -3.72  2.08  4.97
 H -1.42  2.97  5.28
 H -0.76  1.35  5.43
 H -2.40  2.74  7.44
 H -1.10 -0.98  8.03
 H -1.53 -0.56  6.46
 H -2.11  1.87  9.52
 N  0.32 -1.12  3.77
 C  0.84 -2.28  4.48
 H  0.92 -0.60  3.12
 H  1.87 -2.46  4.15
 H  0.23 -3.17  4.26
 H  0.83 -2.11  5.56
