35
#
 C -0.79 -1.66 -0.83
 C -0.70 -0.40  0.02
 O  0.11  0.49 -0.24
 H -0.10 -1.55 -1.67
 H -1.80 -1.84 -1.21
 H -0.48 -2.55 -0.25
 N -1.53 -0.30  1.10
 C -2.65 -1.16  1.47
 C -3.94 -0.32  1.49
 O -3.95  0.82  1.97
 H -1.52  0.61  1.56
 H -2.75 -1.93  0.71
 C -2.43 -1.81  2.86
 C -1.33 -2.88  2.88
 C -1.81 -4.31  2.61
 N -2.60 -4.48  1.38
 C -3.97 -4.54  1.33
 N -4.56 -5.28  2.36
 N -4.61 -3.92  0.38
 H -3.38 -2.24  3.20
 H -2.19 -1.00  3.56
 H -0.84 -2.89  3.86
 H -0.53 -2.61  2.17
 H -2.45 -4.64  3.45
 H -0.95 -4.99  2.58
 H -2.22 -4.02  0.56
 H -4.06 -6.11  2.67
 H -5.56 -5.40  2.28
 H -5.58 -4.23  0.32
 N -5.01 -0.97  0.98
 C -6.34 -0.39  0.97
 H -4.88 -1.93  0.64
 H -7.03 -0.97  1.60
 H -6.75 -0.35 -0.05
 H -6.27  0.63  1.37
