35
#
 C -0.35 -0.13 -0.44
 C  0.03 -0.16  1.02
 O  1.20 -0.30  1.38
 H -0.91  0.78 -0.71
 H -0.98 -1.00 -0.70
 H  0.57 -0.18 -1.03
 N -0.96 -0.02  1.97
 C -2.42  0.04  1.86
 C -2.99 -1.32  1.37
 O -2.88 -2.28  2.14
 H -0.60 -0.19  2.90
 H -2.75  0.02  2.91
 C -2.94  1.37  1.27
 C -4.42  1.64  1.60
 C -4.65  2.14  3.03
 N -6.05  2.37  3.38
 C -6.84  3.33  2.74
 N -6.14  4.49  2.39
 N -8.09  3.24  2.46
 H -2.78  1.43  0.19
 H -2.32  2.17  1.71
 H -5.02  0.73  1.45
 H -4.82  2.39  0.91
 H -4.08  3.07  3.18
 H -4.26  1.43  3.77
 H -6.57  1.52  3.56
 H -6.79  5.21  2.08
 H -5.49  4.84  3.09
 H -8.45  2.30  2.63
 N -3.60 -1.51  0.15
 C -3.92 -0.62 -0.96
 H -3.90 -2.47  0.06
 H -4.68  0.13 -0.71
 H -4.33 -1.25 -1.77
 H -3.03 -0.11 -1.36
