35
#
 C -1.05 -2.23  4.68
 C -0.45 -1.33  3.62
 O -0.67 -1.49  2.42
 H -0.76 -3.26  4.47
 H -2.15 -2.17  4.60
 H -0.76 -1.97  5.70
 N  0.36 -0.32  4.08
 C  0.99  0.66  3.20
 C  2.32  0.09  2.63
 O  3.42  0.48  3.01
 H  0.59 -0.30  5.07
 H  0.30  0.80  2.36
 C  1.22  1.98  3.93
 C -0.07  2.70  4.32
 C  0.17  4.01  5.08
 N  0.95  5.02  4.35
 C  0.52  5.57  3.14
 N -0.86  5.78  3.07
 N  1.25  5.90  2.14
 H  1.82  2.61  3.26
 H  1.86  1.80  4.81
 H -0.69  2.05  4.96
 H -0.67  2.91  3.42
 H  0.72  3.82  6.01
 H -0.79  4.44  5.37
 H  1.95  4.84  4.34
 H -1.10  6.32  2.25
 H -1.29  6.13  3.91
 H  2.22  5.57  2.25
 N  2.12 -0.86  1.68
 C  3.21 -1.60  1.06
 H  1.15 -1.16  1.53
 H  3.09 -1.61 -0.03
 H  3.25 -2.64  1.43
 H  4.15 -1.10  1.32
