35
#
 C  0.21  1.33  0.02
 C  0.45  0.56  1.31
 O  1.57  0.19  1.65
 H  1.15  1.34 -0.55
 H -0.08  2.37  0.23
 H -0.59  0.90 -0.59
 N -0.65  0.32  2.10
 C -2.05  0.48  1.71
 C -2.51  1.94  1.49
 O -3.28  2.19  0.56
 H -0.44 -0.32  2.86
 H -2.22  0.00  0.74
 C -3.01 -0.18  2.73
 C -2.72 -1.63  3.13
 C -2.74 -2.70  2.03
 N -1.73 -2.53  0.99
 C -0.38 -2.72  1.27
 N  0.42 -2.63  0.12
 N  0.01 -2.94  2.47
 H -4.01 -0.10  2.29
 H -3.03  0.42  3.65
 H -3.48 -1.92  3.87
 H -1.76 -1.72  3.66
 H -3.72 -2.68  1.52
 H -2.64 -3.69  2.51
 H -2.01 -2.82  0.06
 H  1.39 -2.44  0.34
 H  0.08 -1.98 -0.58
 H  1.03 -2.94  2.53
 N -2.09  2.92  2.34
 C -1.23  2.87  3.51
 H -2.48  3.83  2.08
 H -1.47  2.02  4.16
 H -1.40  3.78  4.10
 H -0.17  2.81  3.26
