35
#
 C -0.64 -2.77  2.00
 C -0.96 -1.85  3.17
 O -1.13 -2.28  4.31
 H  0.29 -3.31  2.23
 H -0.53 -2.25  1.05
 H -1.44 -3.52  1.92
 N -1.03 -0.52  2.86
 C -1.45  0.47  3.83
 C -2.41  1.43  3.10
 O -2.31  1.62  1.89
 H -1.04 -0.21  1.89
 H -1.97 -0.07  4.63
 C -0.27  1.28  4.40
 C  0.76  0.44  5.17
 C  0.23 -0.16  6.48
 N  1.19 -0.96  7.22
 C  2.37 -0.47  7.76
 N  2.28  0.81  8.31
 N  3.39 -1.25  7.82
 H  0.22  1.80  3.56
 H -0.66  2.08  5.06
 H  1.64  1.07  5.38
 H  1.12 -0.37  4.53
 H -0.62 -0.82  6.26
 H -0.17  0.64  7.13
 H  1.33 -1.90  6.86
 H  3.16  1.31  8.36
 H  1.52  1.40  8.00
 H  4.15 -0.83  8.37
 N -3.34  2.08  3.86
 C -3.65  1.86  5.27
 H -3.92  2.72  3.33
 H -4.50  2.49  5.53
 H -2.81  2.13  5.93
 H -3.93  0.82  5.47
