35
#
 C -0.93  0.13 -0.18
 C -0.69  0.01  1.31
 O  0.44 -0.18  1.78
 H -0.41  1.01 -0.56
 H -1.99  0.20 -0.45
 H -0.50 -0.75 -0.68
 N -1.80  0.17  2.09
 C -1.76 -0.01  3.53
 C -2.98 -0.86  3.91
 O -4.01 -0.84  3.24
 H -2.73  0.17  1.68
 H -0.82 -0.52  3.76
 C -1.80  1.33  4.30
 C -0.61  2.24  4.00
 C -0.65  3.53  4.82
 N  0.43  4.46  4.51
 C  0.33  5.31  3.43
 N  1.47  6.09  3.22
 N -0.78  5.41  2.77
 H -1.85  1.11  5.38
 H -2.74  1.84  4.05
 H -0.61  2.50  2.93
 H  0.33  1.70  4.19
 H -0.61  3.31  5.90
 H -1.59  4.07  4.62
 H  1.36  4.14  4.74
 H  1.61  6.38  2.26
 H  2.34  5.77  3.65
 H -0.73  6.16  2.08
 N -2.89 -1.61  5.05
 C -1.73 -1.80  5.91
 H -3.74 -2.10  5.28
 H -0.84 -2.08  5.33
 H -1.94 -2.61  6.61
 H -1.49 -0.90  6.50
