35
#
 C  1.07 -1.40  0.00
 C  0.14 -0.51  0.81
 O -0.38  0.50  0.33
 H  1.91 -0.80 -0.36
 H  0.52 -1.77 -0.88
 H  1.46 -2.26  0.56
 N -0.08 -0.91  2.10
 C -0.83 -0.10  3.03
 C -0.40 -0.55  4.44
 O  0.41 -1.46  4.62
 H  0.49 -1.64  2.53
 H -0.55  0.96  2.89
 C -2.36 -0.22  2.83
 C -2.92 -1.63  3.04
 C -4.33 -1.63  3.63
 N -4.31 -1.10  4.99
 C -5.48 -0.84  5.69
 N -5.23 -0.50  7.02
 N -6.69 -0.89  5.26
 H -2.58  0.14  1.81
 H -2.86  0.48  3.51
 H -2.26 -2.21  3.72
 H -2.92 -2.19  2.10
 H -4.76 -2.65  3.59
 H -4.99 -0.98  3.02
 H -3.57 -1.49  5.57
 H -4.49  0.18  7.15
 H -6.09 -0.21  7.48
 H -6.75 -1.29  4.32
 N -0.99  0.13  5.46
 C -0.75 -0.17  6.86
 H -1.68  0.84  5.23
 H -1.67 -0.53  7.36
 H -0.38  0.71  7.40
 H  0.01 -0.96  6.91
