35
#
 C  0.69  0.51  0.57
 C -0.16 -0.59  1.17
 O  0.15 -1.78  1.10
 H  0.84  0.29 -0.50
 H  1.67  0.49  1.04
 H  0.25  1.51  0.67
 N -1.31 -0.17  1.79
 C -2.20 -1.08  2.50
 C -3.63 -0.95  1.94
 O -4.52 -0.35  2.55
 H -1.50  0.82  1.86
 H -1.81 -2.08  2.27
 C -2.12 -0.86  4.02
 C -3.10 -1.66  4.89
 C -3.26 -3.14  4.51
 N -4.36 -3.78  5.21
 C -5.63 -3.96  4.69
 N -5.94 -3.13  3.61
 N -6.38 -4.88  5.20
 H -2.27  0.21  4.23
 H -1.08 -1.10  4.30
 H -4.09 -1.18  4.83
 H -2.79 -1.59  5.94
 H -2.33 -3.69  4.75
 H -3.42 -3.26  3.43
 H -4.14 -4.48  5.91
 H -6.92 -3.14  3.36
 H -5.55 -2.19  3.59
 H -7.32 -4.85  4.80
 N -3.88 -1.52  0.73
 C -2.96 -2.18 -0.19
 H -4.83 -1.36  0.41
 H -3.49 -2.99 -0.70
 H -2.10 -2.61  0.34
 H -2.57 -1.48 -0.95
