35
#
 C  0.14 -0.52 -0.73
 C  0.15 -0.13  0.73
 O  1.20  0.13  1.33
 H -0.63 -1.25 -0.99
 H  1.13 -0.91 -0.98
 H -0.04  0.38 -1.34
 N -1.05 -0.03  1.40
 C -2.42 -0.28  0.95
 C -2.62 -1.74  0.46
 O -2.99 -2.00 -0.68
 H -0.92  0.31  2.35
 H -3.03 -0.18  1.87
 C -2.97  0.72 -0.07
 C -2.78  2.18  0.35
 C -3.43  3.17 -0.62
 N -4.88  3.07 -0.74
 C -5.72  3.27  0.36
 N -5.34  4.35  1.17
 N -6.71  2.47  0.54
 H -4.04  0.49 -0.20
 H -2.50  0.53 -1.05
 H -3.20  2.34  1.35
 H -1.70  2.41  0.42
 H -3.02  3.03 -1.64
 H -3.15  4.20 -0.33
 H -5.21  2.26 -1.25
 H -6.05  4.62  1.85
 H -4.95  5.15  0.69
 H -7.33  2.81  1.28
 N -2.36 -2.73  1.36
 C -1.92 -2.63  2.75
 H -2.48 -3.66  0.97
 H -2.12 -3.59  3.24
 H -2.49 -1.86  3.29
 H -0.85 -2.41  2.83
