35
#
 C -1.50 -0.91 -0.59
 C -0.87 -1.50  0.66
 O -0.36 -2.63  0.64
 H -1.39 -1.64 -1.40
 H -1.02  0.03 -0.89
 H -2.57 -0.70 -0.45
 N -0.85 -0.74  1.80
 C -1.58  0.50  2.01
 C -0.75  1.51  2.85
 O -1.26  2.14  3.78
 H -0.49 -1.25  2.63
 H -1.68  0.98  1.02
 C -3.02  0.30  2.52
 C -3.30  0.01  4.01
 C -2.47 -1.07  4.71
 N -2.55 -2.38  4.08
 C -1.43 -3.12  3.79
 N -1.70 -4.41  3.32
 N -0.25 -2.61  3.96
 H -3.44 -0.51  1.91
 H -3.60  1.21  2.27
 H -4.37 -0.25  4.09
 H -3.16  0.93  4.59
 H -2.79 -1.14  5.76
 H -1.41 -0.81  4.73
 H -3.41 -2.90  4.20
 H -0.93 -4.79  2.78
 H -2.57 -4.48  2.80
 H  0.47 -3.23  3.59
 N  0.55  1.71  2.50
 C  1.31  1.21  1.36
 H  1.01  2.38  3.10
 H  2.19  1.86  1.23
 H  0.73  1.25  0.43
 H  1.66  0.18  1.50
