35
#
 C -0.22 -0.26 -0.28
 C -0.06 -0.02  1.20
 O  1.06  0.04  1.71
 H  0.56  0.30 -0.79
 H -1.20  0.02 -0.69
 H -0.05 -1.33 -0.50
 N -1.17  0.11  1.99
 C -2.58 -0.09  1.73
 C -3.32  1.20  2.15
 O -3.01  1.80  3.17
 H -0.96  0.42  2.95
 H -2.72 -0.27  0.65
 C -3.16 -1.28  2.54
 C -3.17 -2.66  1.87
 C -1.91 -3.12  1.13
 N -0.71 -3.08  1.96
 C  0.48 -3.57  1.46
 N  1.60 -3.06  2.13
 N  0.46 -4.45  0.52
 H -4.20 -1.04  2.82
 H -2.61 -1.31  3.49
 H -3.98 -2.69  1.13
 H -3.43 -3.40  2.64
 H -1.77 -2.53  0.21
 H -2.04 -4.16  0.80
 H -0.62 -2.27  2.57
 H  2.48 -3.36  1.71
 H  1.59 -2.04  2.26
 H  1.41 -4.72  0.25
 N -4.36  1.56  1.34
 C -5.22  2.69  1.63
 H -4.53  1.02  0.51
 H -5.18  3.44  0.83
 H -4.87  3.15  2.56
 H -6.27  2.37  1.77
