35
#
 C  0.24  0.07  0.12
 C  0.30 -0.53  1.52
 O  1.10 -1.41  1.82
 H -0.79  0.12 -0.27
 H  0.84 -0.56 -0.54
 H  0.65  1.08  0.13
 N -0.59 -0.05  2.44
 C -1.61  0.96  2.29
 C -1.00  2.36  2.00
 O  0.07  2.71  2.47
 H -0.54 -0.51  3.35
 H -2.30  0.69  1.47
 C -2.42  1.07  3.60
 C -3.48 -0.02  3.86
 C -3.03 -1.48  3.75
 N -1.85 -1.77  4.55
 C -1.14 -2.95  4.27
 N -0.05 -3.12  5.14
 N -1.53 -3.73  3.33
 H -2.94  2.04  3.61
 H -1.69  1.12  4.42
 H -4.32  0.11  3.16
 H -3.90  0.17  4.86
 H -2.77 -1.74  2.72
 H -3.88 -2.14  4.02
 H -1.93 -1.57  5.55
 H  0.57 -3.87  4.85
 H  0.48 -2.26  5.30
 H -0.83 -4.45  3.14
 N -1.76  3.20  1.23
 C -3.03  2.94  0.58
 H -1.34  4.12  1.11
 H -3.82  2.68  1.29
 H -2.96  2.13 -0.17
 H -3.35  3.85  0.05
