35
#
 C  0.37  0.02  0.74
 C -0.06  0.31  2.16
 O  0.73  0.75  3.00
 H  0.16 -1.03  0.49
 H  1.44  0.20  0.68
 H -0.15  0.66  0.02
 N -1.38  0.14  2.52
 C -2.51 -0.52  1.88
 C -2.33 -2.06  1.81
 O -1.22 -2.59  1.78
 H -1.50  0.31  3.52
 H -3.34 -0.34  2.58
 C -2.95  0.09  0.51
 C -2.73 -0.76 -0.74
 C -3.22 -0.08 -2.03
 N -4.59  0.43 -2.02
 C -5.68 -0.40 -1.97
 N -6.89  0.31 -1.94
 N -5.55 -1.69 -1.92
 H -2.43  1.06  0.42
 H -4.02  0.33  0.58
 H -3.26 -1.71 -0.65
 H -1.67 -1.00 -0.88
 H -3.13 -0.79 -2.86
 H -2.58  0.78 -2.27
 H -4.73  1.36 -1.66
 H -7.71 -0.27 -2.04
 H -6.93  1.12 -2.57
 H -6.45 -2.16 -2.03
 N -3.47 -2.82  1.81
 C -4.86 -2.38  1.68
 H -3.28 -3.81  1.68
 H -5.51 -3.18  2.05
 H -5.14 -2.16  0.64
 H -5.05 -1.50  2.30
