35
#
 C  0.95  0.81  1.11
 C  0.25  1.98  1.76
 O  0.86  3.00  2.11
 H  2.02  1.00  1.12
 H  0.61  0.68  0.08
 H  0.74 -0.13  1.64
 N -1.10  1.89  1.95
 C -2.02  0.86  1.51
 C -2.27  0.79 -0.01
 O -2.66 -0.27 -0.51
 H -1.52  2.72  2.39
 H -1.64 -0.13  1.78
 C -3.38  1.03  2.25
 C -4.25  2.25  1.89
 C -4.04  3.56  2.68
 N -2.72  4.18  2.59
 C -2.26  4.82  1.43
 N -0.98  5.32  1.59
 N -2.88  4.92  0.30
 H -3.19  1.00  3.33
 H -3.96  0.13  2.01
 H -5.30  1.98  2.06
 H -4.17  2.45  0.81
 H -4.21  3.36  3.74
 H -4.83  4.27  2.37
 H -2.40  4.63  3.45
 H -0.64  5.74  0.73
 H -0.29  4.68  2.00
 H -3.86  4.64  0.39
 N -2.05  1.93 -0.72
 C -2.35  2.03 -2.13
 H -1.84  2.79 -0.22
 H -3.10  1.28 -2.40
 H -1.46  1.87 -2.75
 H -2.74  3.04 -2.34
