35
#
 C  0.02  0.28  0.30
 C -0.07  0.07  1.79
 O  0.94  0.10  2.50
 H  0.30  1.33  0.11
 H -0.88  0.05 -0.27
 H  0.85 -0.34 -0.07
 N -1.29 -0.21  2.38
 C -2.68 -0.01  1.93
 C -3.06 -0.83  0.67
 O -3.92 -0.44 -0.12
 H -1.18 -0.27  3.39
 H -3.28 -0.49  2.72
 C -3.17  1.44  1.87
 C -2.63  2.34  0.74
 C -3.70  3.30  0.21
 N -4.73  2.53 -0.46
 C -6.03  3.00 -0.52
 N -6.94  2.02 -0.95
 N -6.31  4.21 -0.16
 H -2.96  1.90  2.85
 H -4.26  1.39  1.79
 H -2.28  1.74 -0.10
 H -1.76  2.92  1.09
 H -3.24  4.02 -0.49
 H -4.15  3.89  1.02
 H -4.61  1.52 -0.45
 H -7.80  2.41 -1.33
 H -6.55  1.31 -1.57
 H -7.30  4.40 -0.30
 N -2.44 -2.03  0.57
 C -2.67 -2.96 -0.52
 H -1.71 -2.22  1.25
 H -1.79 -3.06 -1.16
 H -3.50 -2.57 -1.11
 H -2.95 -3.95 -0.13
