35
#
 C -0.52 -0.19 -0.01
 C -0.28 -0.18  1.48
 O  0.85 -0.22  1.96
 H  0.02  0.66 -0.46
 H -1.58 -0.13 -0.30
 H -0.08 -1.10 -0.44
 N -1.40 -0.11  2.26
 C -1.36 -0.06  3.72
 C -1.25 -1.51  4.29
 O -2.21 -2.10  4.79
 H -2.31 -0.17  1.82
 H -0.43  0.47  3.98
 C -2.57  0.68  4.28
 C -2.60  2.16  3.89
 C -3.83  2.90  4.42
 N -5.09  2.39  3.88
 C -5.98  1.70  4.69
 N -7.18  1.42  4.02
 N -5.68  1.41  5.91
 H -2.56  0.58  5.37
 H -3.49  0.17  3.95
 H -2.56  2.27  2.79
 H -1.70  2.67  4.28
 H -3.75  3.97  4.17
 H -3.89  2.81  5.51
 H -5.53  2.95  3.15
 H -7.78  0.76  4.52
 H -7.07  1.14  3.05
 H -6.39  0.81  6.34
 N -0.00 -2.03  4.16
 C  0.31 -3.40  4.51
 H  0.66 -1.49  3.60
 H  1.25 -3.45  5.08
 H  0.41 -4.04  3.62
 H -0.51 -3.79  5.13
