35
#
 C -0.04 -0.12  0.85
 C -0.35 -0.30  2.32
 O  0.54 -0.17  3.17
 H  0.23 -1.09  0.42
 H  0.83  0.55  0.77
 H -0.87  0.28  0.26
 N -1.61 -0.70  2.69
 C -2.87 -0.37  2.00
 C -3.03 -1.10  0.64
 O -3.66 -0.61 -0.29
 H -1.74 -0.65  3.71
 H -3.65 -0.82  2.64
 C -3.15  1.13  1.91
 C -3.52  1.82  3.23
 C -2.48  1.85  4.36
 N -2.47  0.59  5.14
 C -1.57  0.47  6.22
 N -0.25  0.74  5.90
 N -2.06  0.14  7.37
 H -3.98  1.26  1.19
 H -2.28  1.64  1.46
 H -4.46  1.39  3.62
 H -3.77  2.87  2.99
 H -2.69  2.71  5.02
 H -1.47  2.01  3.94
 H -3.39  0.40  5.52
 H  0.42  0.54  6.63
 H  0.07  0.45  4.96
 H -1.33 -0.05  8.05
 N -2.48 -2.35  0.62
 C -2.55 -3.21 -0.54
 H -1.94 -2.63  1.43
 H -2.98 -4.19 -0.28
 H -3.19 -2.73 -1.28
 H -1.56 -3.37 -0.98
