35
#
 C -1.05  2.00  0.34
 C -0.61  1.63  1.74
 O  0.41  2.09  2.25
 H -1.19  3.09  0.30
 H -1.98  1.51  0.02
 H -0.25  1.75 -0.36
 N -1.42  0.75  2.40
 C -1.21  0.32  3.78
 C -0.17 -0.84  3.88
 O -0.46 -1.95  4.32
 H -2.21  0.34  1.90
 H -0.75  1.19  4.29
 C -2.54  0.00  4.47
 C -3.46 -0.99  3.76
 C -4.76 -1.20  4.53
 N -5.70 -2.07  3.84
 C -5.70 -3.44  4.09
 N -6.76 -4.10  3.44
 N -4.82 -3.96  4.88
 H -3.07  0.95  4.63
 H -2.30 -0.40  5.47
 H -2.95 -1.96  3.64
 H -3.73 -0.64  2.75
 H -5.26 -0.23  4.69
 H -4.53 -1.63  5.52
 H -6.62 -1.68  3.66
 H -6.68 -5.11  3.47
 H -6.94 -3.77  2.49
 H -4.89 -4.98  4.89
 N  1.07 -0.47  3.46
 C  2.18 -1.40  3.43
 H  1.18  0.48  3.11
 H  2.52 -1.58  2.40
 H  1.85 -2.34  3.87
 H  3.03 -1.01  4.01
