35
#
 C -0.08  1.18  0.50
 C -0.57 -0.14  1.08
 O -0.04 -1.21  0.82
 H  0.78  0.97 -0.14
 H  0.22  1.88  1.29
 H -0.87  1.66 -0.09
 N -1.67 -0.08  1.91
 C -2.35  1.10  2.40
 C -1.70  1.83  3.59
 O -1.69  3.07  3.60
 H -1.98 -1.00  2.23
 H -2.29  1.85  1.60
 C -3.84  0.81  2.66
 C -4.72  1.05  1.42
 C -5.20  2.51  1.26
 N -4.18  3.53  1.41
 C -3.23  3.76  0.44
 N -2.17  4.56  0.90
 N -3.39  3.28 -0.76
 H -4.20  1.44  3.49
 H -3.94 -0.23  3.01
 H -5.61  0.41  1.46
 H -4.16  0.75  0.52
 H -5.97  2.72  2.02
 H -5.66  2.63  0.27
 H -3.92  3.81  2.35
 H -1.39  4.61  0.25
 H -1.87  4.34  1.85
 H -2.62  3.56 -1.37
 N -1.16  1.14  4.62
 C -1.13 -0.30  4.86
 H -0.76  1.74  5.34
 H -0.85 -0.46  5.91
 H -0.39 -0.81  4.23
 H -2.11 -0.76  4.72
