35
#
 C  0.08 -0.78  1.29
 C -0.41 -1.04  2.70
 O  0.37 -1.29  3.63
 H  0.66 -1.65  0.95
 H  0.76  0.08  1.31
 H -0.72 -0.58  0.58
 N -1.75 -0.98  2.89
 C -2.39 -1.17  4.20
 C -2.60 -2.68  4.49
 O -3.70 -3.21  4.45
 H -2.36 -0.87  2.08
 H -1.68 -0.77  4.94
 C -3.71 -0.40  4.28
 C -3.54  1.12  4.21
 C -4.88  1.87  4.27
 N -5.64  1.71  5.50
 C -5.30  2.38  6.67
 N -6.04  1.94  7.77
 N -4.41  3.30  6.84
 H -4.18 -0.68  5.23
 H -4.39 -0.76  3.49
 H -3.04  1.41  3.27
 H -2.89  1.46  5.02
 H -5.53  1.54  3.44
 H -4.72  2.95  4.11
 H -6.07  0.81  5.64
 H -7.04  1.82  7.59
 H -5.87  2.53  8.58
 H -3.84  3.45  6.00
 N -1.44 -3.32  4.78
 C -1.37 -4.75  4.99
 H -0.57 -2.78  4.68
 H -2.39 -5.13  5.10
 H -0.80 -4.98  5.90
 H -0.89 -5.27  4.14
