35
#
 C -0.14  0.16  0.02
 C -0.13  0.27  1.54
 O  0.91  0.46  2.16
 H  0.87 -0.14 -0.30
 H -0.36  1.15 -0.41
 H -0.87 -0.55 -0.36
 N -1.33  0.14  2.21
 C -2.69 -0.02  1.71
 C -2.98 -1.42  1.10
 O -3.97 -1.61  0.39
 H -1.21  0.30  3.21
 H -3.32 -0.00  2.61
 C -3.20  1.09  0.77
 C -2.99  2.51  1.30
 C -3.78  2.82  2.58
 N -3.66  4.18  3.07
 C -2.56  4.60  3.81
 N -2.61  5.97  4.10
 N -1.55  3.91  4.23
 H -4.27  0.89  0.60
 H -2.72  0.99 -0.21
 H -3.31  3.22  0.52
 H -1.92  2.71  1.47
 H -3.47  2.15  3.40
 H -4.85  2.62  2.41
 H -4.09  4.90  2.50
 H -1.86  6.24  4.72
 H -3.52  6.30  4.43
 H -1.53  2.98  3.82
 N -2.11 -2.40  1.46
 C -2.25 -3.78  1.03
 H -1.32 -2.13  2.04
 H -2.35 -4.45  1.89
 H -1.39 -4.09  0.43
 H -3.16 -3.84  0.42
