35
#
 C -0.17  0.87 -0.16
 C -0.67  1.11  1.26
 O -0.87  2.24  1.69
 H -0.12 -0.20 -0.44
 H  0.82  1.31 -0.27
 H -0.84  1.38 -0.86
 N -0.88 -0.01  2.01
 C -1.24  0.01  3.42
 C -2.43  0.96  3.74
 O -2.37  1.74  4.68
 H -0.63 -0.91  1.60
 H -1.60 -1.01  3.65
 C -0.05  0.31  4.34
 C  1.12 -0.65  4.15
 C  2.22 -0.42  5.19
 N  3.40 -1.25  5.04
 C  3.39 -2.58  5.44
 N  4.58 -3.25  5.09
 N  2.36 -3.08  6.03
 H -0.42  0.26  5.38
 H  0.26  1.35  4.18
 H  1.55 -0.53  3.14
 H  0.79 -1.70  4.24
 H  1.82 -0.61  6.20
 H  2.55  0.63  5.16
 H  3.98 -1.06  4.23
 H  4.65 -4.17  5.51
 H  5.42 -2.70  5.24
 H  2.56 -4.03  6.37
 N -3.57  0.82  3.01
 C -3.87 -0.04  1.88
 H -4.27  1.52  3.26
 H -3.45 -1.05  2.03
 H -3.49  0.35  0.92
 H -4.96 -0.15  1.81
