35
#
 C  0.10  0.33 -0.58
 C  0.32  0.57  0.90
 O  1.36  1.10  1.32
 H  0.18  1.29 -1.10
 H -0.86 -0.14 -0.81
 H  0.91 -0.31 -0.95
 N -0.69  0.17  1.71
 C -0.62  0.14  3.16
 C -1.28 -1.17  3.60
 O -2.14 -1.71  2.89
 H -1.45 -0.39  1.34
 H  0.44  0.16  3.45
 C -1.39  1.32  3.81
 C -0.91  2.74  3.45
 C  0.34  3.23  4.19
 N  1.53  2.45  3.90
 C  2.17  1.66  4.83
 N  2.88  0.61  4.25
 N  2.15  1.75  6.12
 H -1.37  1.20  4.91
 H -2.45  1.21  3.51
 H -1.73  3.44  3.68
 H -0.75  2.81  2.37
 H  0.16  3.19  5.28
 H  0.50  4.29  3.95
 H  1.56  2.09  2.94
 H  3.14  0.73  3.28
 H  3.64  0.29  4.85
 H  1.59  2.54  6.44
 N -0.92 -1.69  4.81
 C  0.09 -1.19  5.73
 H -1.46 -2.51  5.07
 H  1.00 -0.89  5.21
 H  0.35 -2.00  6.42
 H -0.26 -0.34  6.33
