35
#
 C -5.61  2.47  1.70
 C -4.13  2.31  2.00
 O -3.28  3.06  1.53
 H -6.24  1.72  2.19
 H -5.75  2.40  0.61
 H -5.93  3.47  2.01
 N -3.81  1.28  2.83
 C -2.43  0.98  3.19
 C -2.35 -0.53  3.44
 O -3.28 -1.14  3.97
 H -4.51  0.63  3.20
 H -1.81  1.27  2.32
 C -1.99  1.79  4.43
 C -0.51  1.70  4.81
 C  0.43  2.27  3.75
 N  1.81  2.21  4.21
 C  2.90  2.51  3.39
 N  2.69  3.57  2.51
 N  3.99  1.86  3.57
 H -2.61  1.45  5.28
 H -2.26  2.84  4.23
 H -0.23  0.65  5.01
 H -0.35  2.25  5.74
 H  0.14  3.32  3.57
 H  0.30  1.74  2.78
 H  2.04  1.40  4.78
 H  1.74  3.84  2.29
 H  3.33  3.61  1.73
 H  4.76  2.25  3.01
 N -1.17 -1.12  3.08
 C -0.88 -2.52  3.32
 H -0.48 -0.55  2.61
 H -1.73 -2.94  3.88
 H  0.04 -2.64  3.91
 H -0.77 -3.07  2.37
