35
#
 C -1.33 -0.46  0.20
 C -0.90 -0.40  1.66
 O  0.28 -0.46  1.99
 H -0.87 -1.33 -0.27
 H -0.95  0.43 -0.31
 H -2.42 -0.51  0.07
 N -1.92 -0.28  2.56
 C -1.69 -0.09  3.99
 C -2.46 -1.17  4.77
 O -3.51 -0.92  5.38
 H -2.87 -0.17  2.23
 H -0.60 -0.22  4.12
 C -2.09  1.32  4.44
 C -1.72  1.62  5.91
 C -2.76  2.51  6.61
 N -4.07  1.86  6.63
 C -5.21  2.42  6.05
 N -5.27  3.81  6.13
 N -6.16  1.78  5.47
 H -3.17  1.43  4.30
 H -1.60  2.04  3.77
 H -0.73  2.10  5.97
 H -1.64  0.69  6.48
 H -2.85  3.47  6.08
 H -2.41  2.74  7.63
 H -4.02  0.85  6.47
 H -6.18  4.14  5.83
 H -4.99  4.21  7.02
 H -5.92  0.79  5.36
 N -1.95 -2.44  4.76
 C -0.83 -2.96  3.99
 H -2.55 -3.11  5.23
 H -0.36 -3.77  4.56
 H -0.08 -2.19  3.80
 H -1.16 -3.36  3.01
