35
#
 C -3.11 -1.06  1.38
 C -1.66 -0.91  1.78
 O -0.82 -1.78  1.54
 H -3.44 -0.25  0.71
 H -3.79 -1.06  2.24
 H -3.21 -2.01  0.85
 N -1.28  0.25  2.42
 C -2.12  1.35  2.89
 C -1.38  2.65  2.50
 O -0.51  3.13  3.23
 H -0.31  0.26  2.70
 H -3.07  1.28  2.37
 C -2.36  1.28  4.41
 C -3.12  2.46  5.02
 C -4.49  2.78  4.40
 N -5.44  1.66  4.47
 C -5.72  0.80  3.42
 N -5.70  1.41  2.15
 N -5.98 -0.46  3.49
 H -1.39  1.20  4.91
 H -2.89  0.33  4.60
 H -2.50  3.37  4.94
 H -3.25  2.28  6.10
 H -4.39  3.06  3.35
 H -4.92  3.65  4.92
 H -5.46  1.19  5.37
 H -6.07  0.76  1.47
 H -6.17  2.30  2.11
 H -5.82 -0.82  4.44
 N -1.72  3.22  1.31
 C -2.56  2.65  0.26
 H -1.12  4.00  1.06
 H -2.72  3.42 -0.50
 H -3.54  2.36  0.65
 H -2.09  1.78 -0.22
