35
#
 C  0.00  0.24  1.57
 C -0.65  0.67  2.86
 O -0.03  1.36  3.68
 H -0.62 -0.37  0.91
 H  0.91 -0.33  1.83
 H  0.33  1.13  1.03
 N -1.93  0.25  3.14
 C -2.99 -0.06  2.17
 C -2.83 -1.47  1.53
 O -3.35 -1.75  0.45
 H -2.26  0.63  4.03
 H -3.90 -0.15  2.77
 C -3.27  1.03  1.11
 C -4.08  2.25  1.58
 C -3.31  3.45  2.16
 N -2.61  3.23  3.41
 C -3.28  2.93  4.57
 N -2.48  2.26  5.51
 N -4.54  3.19  4.69
 H -3.82  0.51  0.31
 H -2.32  1.35  0.64
 H -4.84  1.94  2.31
 H -4.63  2.64  0.71
 H -4.03  4.27  2.31
 H -2.57  3.81  1.43
 H -1.64  2.91  3.35
 H -2.77  2.39  6.47
 H -1.47  2.35  5.39
 H -4.89  2.89  5.61
 N -2.14 -2.36  2.29
 C -1.94 -3.74  1.90
 H -1.73 -2.00  3.15
 H -2.33 -4.42  2.67
 H -0.87 -3.96  1.74
 H -2.48 -3.90  0.96
