35
#
 C -0.09 -0.05 -0.26
 C -0.07 -0.20  1.25
 O  0.86 -0.73  1.84
 H  0.83  0.46 -0.57
 H -0.95  0.50 -0.65
 H -0.07 -1.05 -0.71
 N -1.16  0.32  1.89
 C -1.35  0.18  3.33
 C -2.35 -0.97  3.58
 O -3.54 -0.84  3.27
 H -1.97  0.61  1.35
 H -0.36 -0.06  3.73
 C -1.87  1.47  3.96
 C -1.97  1.39  5.48
 C -2.51  2.69  6.10
 N -2.64  2.64  7.55
 C -1.76  3.23  8.46
 N -0.50  3.51  7.93
 N -2.01  3.55  9.68
 H -2.86  1.70  3.54
 H -1.19  2.29  3.67
 H -0.98  1.16  5.92
 H -2.64  0.56  5.78
 H -3.50  2.90  5.68
 H -1.86  3.53  5.83
 H -3.56  2.46  7.93
 H  0.12  3.83  8.67
 H -0.08  2.77  7.37
 H -3.01  3.44  9.90
 N -1.87 -2.13  4.11
 C -0.50 -2.45  4.50
 H -2.59 -2.84  4.24
 H -0.41 -3.54  4.57
 H -0.24 -2.02  5.48
 H  0.21 -2.10  3.74
