35
#
 C  0.06 -0.40  0.54
 C -0.09 -0.14  2.03
 O  0.87 -0.15  2.80
 H -0.28  0.46 -0.06
 H -0.52 -1.27  0.22
 H  1.12 -0.58  0.34
 N -1.35  0.12  2.50
 C -2.62  0.09  1.78
 C -3.55  1.19  2.34
 O -4.66  0.94  2.81
 H -1.38  0.24  3.51
 H -2.40  0.39  0.74
 C -3.30 -1.29  1.74
 C -3.12 -2.20  2.96
 C -3.77 -1.71  4.27
 N -3.72 -2.70  5.34
 C -4.60 -3.77  5.40
 N -4.24 -4.70  6.38
 N -5.65 -3.98  4.69
 H -2.90 -1.83  0.87
 H -4.37 -1.13  1.54
 H -2.05 -2.38  3.14
 H -3.55 -3.18  2.72
 H -4.82 -1.43  4.11
 H -3.29 -0.80  4.64
 H -2.79 -2.91  5.69
 H -4.97 -5.39  6.50
 H -3.96 -4.29  7.27
 H -5.75 -3.30  3.93
 N -3.09  2.48  2.28
 C -1.87  2.99  1.69
 H -3.74  3.15  2.68
 H -1.99  4.07  1.51
 H -1.66  2.52  0.72
 H -0.99  2.85  2.34
