35
#
 C  1.02  2.18  1.12
 C  0.35  0.85  0.83
 O  0.34  0.37 -0.31
 H  0.98  2.48  2.17
 H  0.53  2.96  0.51
 H  2.07  2.12  0.80
 N -0.23  0.24  1.91
 C -0.95 -1.03  1.81
 C -2.44 -0.88  2.18
 O -3.29 -1.04  1.31
 H -0.14  0.70  2.81
 H -0.99 -1.23  0.74
 C -0.23 -2.20  2.51
 C  1.17 -2.53  1.95
 C  1.21 -3.35  0.65
 N  0.57 -2.73 -0.50
 C -0.75 -3.01 -0.80
 N -1.32 -2.09 -1.68
 N -1.33 -4.06 -0.31
 H -0.88 -3.08  2.42
 H -0.13 -1.99  3.59
 H  1.72 -3.10  2.71
 H  1.74 -1.59  1.82
 H  0.70 -4.31  0.79
 H  2.26 -3.56  0.41
 H  0.85 -1.76 -0.68
 H -2.33 -2.07 -1.64
 H -0.93 -1.15 -1.62
 H -2.29 -4.13 -0.65
 N -2.81 -0.52  3.45
 C -2.04 -0.47  4.68
 H -3.82 -0.49  3.55
 H -1.88 -1.46  5.13
 H -2.58  0.15  5.41
 H -1.06 -0.00  4.53
