35
#
 C -0.33 -0.35 -0.06
 C -0.45 -0.28  1.45
 O  0.51 -0.48  2.19
 H  0.42  0.38 -0.39
 H -1.27 -0.16 -0.59
 H  0.04 -1.35 -0.34
 N -1.69  0.04  1.92
 C -1.99  0.05  3.34
 C -3.50 -0.26  3.46
 O -4.24 -0.18  2.48
 H -2.51  0.06  1.31
 H -1.42 -0.77  3.81
 C -1.54  1.36  4.04
 C -1.96  2.68  3.40
 C -3.47  3.02  3.42
 N -4.16  2.79  4.69
 C -3.75  3.31  5.90
 N -3.24  4.60  5.83
 N -3.84  2.57  6.96
 H -0.44  1.32  4.04
 H -1.85  1.33  5.09
 H -1.62  2.72  2.35
 H -1.42  3.48  3.93
 H -4.00  2.42  2.67
 H -3.60  4.07  3.10
 H -4.49  1.84  4.81
 H -3.12  5.06  6.72
 H -3.65  5.21  5.12
 H -3.64  3.11  7.81
 N -3.98 -0.61  4.68
 C -3.28 -0.77  5.95
 H -4.98 -0.79  4.67
 H -3.31  0.15  6.55
 H -2.24 -1.07  5.78
 H -3.76 -1.58  6.51
