35
#
 C  0.21 -0.23  2.40
 C -0.37 -0.76  3.70
 O  0.36 -1.02  4.65
 H -0.34  0.63  2.00
 H  0.20 -1.01  1.63
 H  1.25  0.06  2.60
 N -1.72 -1.01  3.79
 C -2.86 -0.43  3.08
 C -2.66 -0.33  1.55
 O -2.68  0.75  0.95
 H -1.96 -1.32  4.74
 H -3.67 -1.16  3.20
 C -3.38  0.89  3.68
 C -2.38  2.03  3.97
 C -1.60  1.96  5.30
 N -2.46  1.78  6.47
 C -2.73  0.52  7.00
 N -3.96  0.47  7.67
 N -2.03 -0.56  6.92
 H -3.91  0.64  4.61
 H -4.14  1.27  2.98
 H -2.95  2.97  3.96
 H -1.66  2.13  3.14
 H -1.03  2.89  5.42
 H -0.86  1.15  5.30
 H -3.24  2.42  6.50
 H -4.22  1.32  8.17
 H -4.00 -0.34  8.28
 H -1.15 -0.43  6.42
 N -2.49 -1.50  0.87
 C -2.61 -2.86  1.39
 H -2.43 -1.38 -0.13
 H -2.16 -3.55  0.66
 H -3.66 -3.17  1.54
 H -2.06 -2.97  2.33
