35
#
 C  0.25  1.03  1.62
 C -0.15 -0.15  2.48
 O  0.62 -0.63  3.31
 H -0.11  0.95  0.59
 H  1.34  1.12  1.63
 H -0.17  1.96  2.05
 N -1.39 -0.69  2.28
 C -2.54 -0.01  1.72
 C -2.88  1.28  2.52
 O -2.67  1.36  3.73
 H -1.66 -1.35  3.04
 H -2.32  0.26  0.67
 C -3.78 -0.94  1.71
 C -4.54 -1.18  3.03
 C -3.96 -2.19  4.03
 N -2.67 -1.78  4.55
 C -1.91 -2.68  5.31
 N -0.70 -2.11  5.72
 N -2.37 -3.86  5.55
 H -3.45 -1.90  1.28
 H -4.50 -0.52  0.99
 H -5.54 -1.56  2.76
 H -4.72 -0.22  3.54
 H -3.83 -3.18  3.56
 H -4.69 -2.34  4.84
 H -2.60 -0.81  4.85
 H -0.08 -2.76  6.18
 H -0.22 -1.55  5.01
 H -1.66 -4.44  6.01
 N -3.45  2.30  1.83
 C -3.68  2.41  0.40
 H -3.68  3.11  2.41
 H -4.35  1.63  0.02
 H -2.74  2.38 -0.18
 H -4.16  3.38  0.20
