35
#
 C -0.02  0.43  0.45
 C -0.39  0.59  1.91
 O  0.45  0.89  2.76
 H -0.42  1.26 -0.15
 H -0.39 -0.52  0.05
 H  1.07  0.46  0.38
 N -1.71  0.45  2.30
 C -2.90 -0.04  1.63
 C -2.84 -1.57  1.34
 O -1.79 -2.13  1.06
 H -1.78  0.51  3.31
 H -3.71  0.13  2.35
 C -3.28  0.70  0.33
 C -3.23  2.23  0.40
 C -4.12  2.90  1.46
 N -5.53  2.57  1.34
 C -6.20  1.72  2.21
 N -7.42  1.26  1.69
 N -5.83  1.29  3.37
 H -4.29  0.38  0.05
 H -2.63  0.37 -0.49
 H -3.49  2.63 -0.59
 H -2.20  2.57  0.59
 H -4.00  3.99  1.39
 H -3.78  2.63  2.47
 H -5.90  2.60  0.40
 H -7.98  0.85  2.42
 H -7.94  1.95  1.16
 H -4.91  1.65  3.63
 N -4.02 -2.25  1.40
 C -5.37 -1.77  1.69
 H -3.92 -3.23  1.13
 H -5.38 -1.04  2.51
 H -5.98 -2.63  2.00
 H -5.85 -1.31  0.81
