35
#
 C -0.13  0.01  1.37
 C -1.46 -0.44  1.95
 O -1.52 -1.15  2.95
 H -0.04  1.10  1.33
 H  0.01 -0.38  0.35
 H  0.66 -0.39  2.01
 N -2.61 -0.02  1.32
 C -2.79  0.79  0.11
 C -2.16  0.06 -1.12
 O -2.51 -1.10 -1.32
 H -3.44 -0.47  1.70
 H -3.85  0.68 -0.13
 C -2.54  2.29  0.35
 C -3.32  2.86  1.55
 C -4.84  2.79  1.40
 N -5.49  3.41  2.55
 C -6.84  3.69  2.51
 N -7.34  4.24  3.70
 N -7.50  3.52  1.41
 H -2.83  2.84 -0.56
 H -1.48  2.50  0.52
 H -3.04  3.91  1.68
 H -3.01  2.33  2.46
 H -5.19  1.75  1.28
 H -5.18  3.33  0.51
 H -5.12  3.12  3.45
 H -8.32  4.05  3.87
 H -6.77  4.14  4.53
 H -8.46  3.88  1.50
 N -1.30  0.67 -1.99
 C -0.55  1.91 -1.95
 H -1.06  0.03 -2.75
 H -1.19  2.80 -2.05
 H  0.14  1.91 -2.81
 H  0.06  2.01 -1.04
