35
#
 C  0.86 -0.46  1.28
 C  0.40 -0.07  2.67
 O  1.13  0.57  3.44
 H  1.08  0.45  0.71
 H  0.12 -1.06  0.72
 H  1.79 -1.04  1.36
 N -0.86 -0.46  3.02
 C -1.50 -0.09  4.28
 C -1.05 -1.01  5.45
 O -1.84 -1.75  6.05
 H -1.38 -1.04  2.38
 H -1.13  0.92  4.52
 C -3.02 -0.05  4.12
 C -3.66 -1.37  3.63
 C -4.84 -1.81  4.52
 N -5.33 -3.15  4.28
 C -4.61 -4.30  4.59
 N -3.68 -4.17  5.61
 N -4.93 -5.39  3.96
 H -3.27  0.78  3.44
 H -3.44  0.22  5.10
 H -2.92 -2.18  3.65
 H -4.00 -1.28  2.59
 H -5.69 -1.11  4.38
 H -4.54 -1.71  5.57
 H -5.92 -3.30  3.47
 H -3.05 -4.96  5.69
 H -3.21 -3.28  5.77
 H -4.41 -6.19  4.31
 N  0.26 -0.89  5.76
 C  0.91 -1.67  6.79
 H  0.81 -0.26  5.16
 H  1.51 -1.03  7.44
 H  1.57 -2.44  6.35
 H  0.13 -2.17  7.38
