35
#
 C  0.08 -0.16 -0.13
 C  0.09 -0.13  1.39
 O  1.13 -0.20  2.04
 H  0.69  0.68 -0.50
 H -0.92 -0.09 -0.57
 H  0.56 -1.08 -0.47
 N -1.14 -0.01  1.97
 C -1.32 -0.06  3.41
 C -2.76 -0.52  3.66
 O -3.61 -0.49  2.77
 H -2.00 -0.07  1.44
 H -0.61 -0.80  3.81
 C -1.01  1.29  4.09
 C -1.94  2.43  3.68
 C -1.55  3.76  4.31
 N -2.46  4.82  3.86
 C -2.46  6.10  4.40
 N -1.22  6.51  4.90
 N -3.46  6.91  4.47
 H  0.03  1.54  3.84
 H -1.04  1.16  5.19
 H -2.98  2.19  3.96
 H -1.94  2.53  2.58
 H -0.52  4.01  4.00
 H -1.54  3.68  5.41
 H -3.39  4.49  3.64
 H -1.23  7.50  5.11
 H -0.41  6.22  4.38
 H -4.33  6.45  4.19
 N -3.03 -0.90  4.94
 C -4.35 -1.31  5.38
 H -2.26 -0.93  5.60
 H -4.69 -0.69  6.22
 H -4.35 -2.37  5.70
 H -5.03 -1.19  4.54
