35
#
 C -0.47 -0.19 -0.53
 C -0.47  0.19  0.95
 O  0.16  1.16  1.36
 H -0.73  0.70 -1.11
 H -1.16 -1.00 -0.78
 H  0.55 -0.48 -0.81
 N -1.23 -0.63  1.75
 C -1.21 -0.61  3.22
 C -2.08 -1.76  3.76
 O -1.73 -2.44  4.72
 H -1.52 -1.50  1.33
 H -0.18 -0.79  3.58
 C -1.69  0.74  3.79
 C -1.78  0.80  5.32
 C -0.46  0.63  6.08
 N  0.55  1.63  5.76
 C  1.58  1.36  4.87
 N  2.31  2.52  4.56
 N  1.78  0.18  4.40
 H -2.68  0.97  3.36
 H -1.00  1.51  3.41
 H -2.48  0.04  5.70
 H -2.22  1.78  5.59
 H -0.01 -0.35  5.87
 H -0.67  0.67  7.16
 H  0.24  2.59  5.76
 H  3.14  2.34  4.01
 H  2.51  3.13  5.35
 H  2.62  0.14  3.83
 N -3.27 -1.93  3.11
 C -4.26 -2.89  3.56
 H -3.54 -1.25  2.42
 H -4.69 -3.43  2.71
 H -5.08 -2.41  4.13
 H -3.76 -3.60  4.23
