35
#
 C -0.25  0.37  0.27
 C -0.29 -0.11  1.71
 O  0.73 -0.32  2.36
 H  0.80  0.43 -0.03
 H -0.71  1.37  0.16
 H -0.78 -0.31 -0.41
 N -1.53 -0.29  2.28
 C -2.84 -0.20  1.65
 C -3.84  0.45  2.64
 O -4.86 -0.12  3.03
 H -1.48 -0.68  3.22
 H -2.75  0.50  0.81
 C -3.36 -1.54  1.11
 C -3.35 -2.71  2.11
 C -4.55 -3.64  1.94
 N -5.77 -2.93  2.29
 C -6.96 -3.23  1.66
 N -7.96 -2.28  1.91
 N -7.07 -4.27  0.91
 H -2.76 -1.80  0.23
 H -4.38 -1.37  0.74
 H -3.36 -2.33  3.15
 H -2.42 -3.29  2.01
 H -4.43 -4.53  2.58
 H -4.63 -4.01  0.91
 H -5.64 -1.97  2.60
 H -7.88 -1.79  2.80
 H -8.90 -2.64  1.77
 H -8.02 -4.37  0.55
 N -3.56  1.72  3.06
 C -2.46  2.59  2.68
 H -4.24  2.08  3.72
 H -2.72  3.62  2.97
 H -2.32  2.59  1.59
 H -1.52  2.32  3.16
