35
#
 C -0.67 -1.35  1.65
 C -1.29 -0.42  2.68
 O -0.73 -0.14  3.73
 H -0.06 -0.76  0.96
 H -1.40 -1.92  1.06
 H -0.01 -2.04  2.19
 N -2.54  0.12  2.41
 C -3.32  0.10  1.16
 C -3.87 -1.31  0.83
 O -4.09 -1.67 -0.33
 H -2.80  0.82  3.10
 H -4.21  0.70  1.39
 C -2.63  0.75 -0.05
 C -3.62  1.25 -1.12
 C -3.24  0.77 -2.54
 N -4.25  0.99 -3.55
 C -5.46  0.32 -3.62
 N -5.47 -0.94 -3.02
 N -6.42  0.86 -4.29
 H -1.93  0.02 -0.51
 H -2.01  1.57  0.33
 H -3.68  2.35 -1.11
 H -4.63  0.88 -0.90
 H -3.00 -0.30 -2.50
 H -2.32  1.27 -2.87
 H -4.34  1.93 -3.93
 H -6.40 -1.34 -2.92
 H -4.88 -1.12 -2.21
 H -7.24  0.25 -4.33
 N -4.13 -2.09  1.91
 C -4.68 -3.43  1.81
 H -3.84 -1.73  2.81
 H -5.61 -3.52  2.38
 H -3.97 -4.18  2.18
 H -4.89 -3.63  0.75
