35
#
 C  0.07 -0.61  2.48
 C -0.65 -1.91  2.78
 O -0.16 -2.81  3.45
 H  0.12 -0.41  1.40
 H -0.43  0.24  2.95
 H  1.09 -0.69  2.88
 N -1.91 -2.06  2.24
 C -2.70 -1.05  1.55
 C -3.21  0.11  2.43
 O -3.23  1.26  1.96
 H -2.34 -2.95  2.47
 H -2.07 -0.56  0.79
 C -3.86 -1.73  0.79
 C -4.64 -0.80 -0.16
 C -3.99 -0.61 -1.54
 N -2.58 -0.17 -1.54
 C -2.23  1.17 -1.69
 N -2.98  2.04 -0.90
 N -1.30  1.46 -2.53
 H -4.56 -2.17  1.53
 H -3.43 -2.57  0.23
 H -4.82  0.17  0.32
 H -5.63 -1.24 -0.33
 H -4.61  0.10 -2.12
 H -4.02 -1.57 -2.07
 H -2.00 -0.71 -2.18
 H -2.67  3.01 -0.96
 H -3.13  1.75  0.07
 H -1.02  2.44 -2.45
 N -3.64 -0.11  3.70
 C -3.77 -1.35  4.45
 H -3.93  0.74  4.15
 H -4.29 -2.13  3.88
 H -4.39 -1.14  5.34
 H -2.81 -1.75  4.79
