35
#
 C  0.14  0.45 -0.66
 C  0.07  0.41  0.86
 O  0.89  1.00  1.56
 H  1.11  0.05 -0.98
 H  0.09  1.49 -0.99
 H -0.67 -0.12 -1.15
 N -0.97 -0.30  1.38
 C -1.12 -0.50  2.81
 C -1.93 -1.79  2.98
 O -2.62 -2.23  2.06
 H -1.57 -0.88  0.80
 H -0.11 -0.61  3.23
 C -1.79  0.70  3.53
 C -3.31  0.86  3.37
 C -3.79  1.18  1.95
 N -5.22  1.50  1.87
 C -5.79  2.60  2.49
 N -4.96  3.72  2.55
 N -6.98  2.68  2.99
 H -1.27  1.60  3.18
 H -1.56  0.63  4.60
 H -3.63  1.68  4.03
 H -3.82 -0.05  3.73
 H -3.63  0.33  1.28
 H -3.21  2.01  1.54
 H -5.82  0.68  1.92
 H -5.48  4.54  2.85
 H -4.39  3.89  1.73
 H -7.43  1.77  3.01
 N -1.89 -2.41  4.19
 C -1.15 -2.05  5.39
 H -2.51 -3.21  4.24
 H -0.20 -1.57  5.12
 H -0.91 -2.96  5.95
 H -1.71 -1.36  6.04
