35
#
 C  1.91  0.11 -0.03
 C  1.18 -0.59  1.11
 O  1.57 -1.67  1.54
 H  2.97  0.16  0.21
 H  1.53  1.12 -0.26
 H  1.81 -0.51 -0.94
 N  0.10  0.09  1.60
 C -0.95 -0.35  2.52
 C -0.88  0.18  3.97
 O -1.95  0.49  4.51
 H -0.14  0.95  1.11
 H -1.83  0.18  2.15
 C -1.24 -1.86  2.52
 C -1.80 -2.43  1.21
 C -3.33 -2.33  1.00
 N -3.88 -1.02  0.68
 C -3.97  0.04  1.58
 N -4.43 -0.26  2.85
 N -3.64  1.22  1.16
 H -1.96 -2.04  3.33
 H -0.32 -2.41  2.78
 H -1.29 -1.98  0.35
 H -1.55 -3.50  1.17
 H -3.84 -2.73  1.89
 H -3.61 -3.00  0.18
 H -3.60 -0.65 -0.23
 H -3.88  0.17  3.59
 H -4.62 -1.24  3.03
 H -3.91  1.92  1.86
 N  0.29  0.30  4.65
 C  1.64 -0.08  4.28
 H  0.15  0.70  5.57
 H  2.18  0.74  3.78
 H  1.64 -0.95  3.62
 H  2.19 -0.35  5.19
