35
#
 C -2.36  1.67  0.40
 C -1.38  1.58  1.56
 O -0.20  1.88  1.44
 H -2.61  0.67  0.03
 H -1.86  2.21 -0.41
 H -3.30  2.18  0.65
 N -1.87  1.11  2.75
 C -3.22  0.66  3.07
 C -3.56  1.17  4.49
 O -3.55  0.43  5.47
 H -1.15  0.99  3.47
 H -3.91  1.16  2.37
 C -3.37 -0.86  2.98
 C -4.81 -1.39  3.09
 C -5.60 -1.43  1.77
 N -5.80 -0.16  1.09
 C -6.45  0.93  1.64
 N -7.59  0.63  2.38
 N -6.02  2.12  1.36
 H -2.76 -1.30  3.78
 H -2.92 -1.19  2.03
 H -5.36 -0.82  3.85
 H -4.78 -2.42  3.48
 H -6.58 -1.91  1.94
 H -5.09 -2.09  1.06
 H -5.03  0.15  0.50
 H -7.85  1.31  3.08
 H -7.74 -0.33  2.66
 H -6.68  2.83  1.67
 N -3.83  2.51  4.61
 C -3.76  3.53  3.58
 H -3.93  2.80  5.58
 H -4.27  4.43  3.96
 H -4.29  3.21  2.67
 H -2.73  3.80  3.33
