35
#
 C -1.13  0.52 -0.02
 C -0.38  0.28  1.27
 O  0.84  0.36  1.35
 H -0.82 -0.24 -0.75
 H -0.85  1.50 -0.42
 H -2.23  0.47  0.08
 N -1.15 -0.01  2.36
 C -0.59 -0.34  3.67
 C  0.38  0.76  4.18
 O  1.45  0.48  4.72
 H -2.15 -0.11  2.24
 H -1.44 -0.32  4.37
 C  0.06 -1.75  3.72
 C -0.47 -2.67  4.83
 C  0.12 -2.44  6.23
 N -0.03 -1.09  6.77
 C -1.26 -0.56  7.10
 N -1.23  0.83  7.23
 N -2.38 -1.18  7.28
 H  1.14 -1.63  3.78
 H -0.15 -2.22  2.75
 H -0.22 -3.71  4.55
 H -1.57 -2.62  4.86
 H  1.20 -2.65  6.21
 H -0.32 -3.15  6.94
 H  0.64 -0.43  6.37
 H -2.05  1.16  7.73
 H -0.37  1.21  7.62
 H -2.30 -2.17  7.08
 N -0.03  2.06  4.09
 C -1.34  2.59  3.78
 H  0.66  2.70  4.46
 H -1.42  3.59  4.24
 H -2.13  1.97  4.21
 H -1.51  2.70  2.70
