35
#
 C -0.58  0.20 -0.15
 C -0.62 -0.32  1.28
 O  0.39 -0.71  1.86
 H  0.32 -0.19 -0.62
 H -0.51  1.30 -0.13
 H -1.47 -0.07 -0.74
 N -1.82 -0.31  1.95
 C -3.18  0.07  1.52
 C -3.69 -0.83  0.37
 O -3.88 -0.41 -0.77
 H -1.73 -0.65  2.90
 H -3.80 -0.15  2.40
 C -3.36  1.55  1.17
 C -2.71  2.54  2.14
 C -3.07  2.39  3.63
 N -4.51  2.39  3.90
 C -5.27  1.25  4.09
 N -4.61  0.21  4.77
 N -6.47  1.21  3.62
 H -4.45  1.73  1.12
 H -3.00  1.74  0.15
 H -2.97  3.56  1.81
 H -1.61  2.48  2.07
 H -2.60  3.21  4.19
 H -2.65  1.46  4.03
 H -5.05  3.08  3.39
 H -5.24 -0.52  5.08
 H -4.01  0.52  5.53
 H -6.98  0.39  3.95
 N -3.93 -2.14  0.69
 C -3.71 -2.82  1.95
 H -4.20 -2.70 -0.11
 H -2.65 -3.08  2.12
 H -4.30 -3.74  1.96
 H -4.05 -2.20  2.80
