35
#
 C -1.65  0.90  0.26
 C -1.32  0.89  1.75
 O -0.70  1.80  2.28
 H -0.71  0.82 -0.30
 H -2.10  1.86  0.01
 H -2.32  0.09 -0.05
 N -1.78 -0.21  2.43
 C -1.40 -0.51  3.81
 C -1.85 -1.92  4.25
 O -1.11 -2.56  5.01
 H -2.09 -0.99  1.87
 H -0.30 -0.57  3.87
 C -1.81  0.57  4.85
 C -3.29  0.94  4.91
 C -3.52  2.15  5.81
 N -4.94  2.50  5.84
 C -5.44  3.57  6.57
 N -4.60  4.68  6.61
 N -6.58  3.44  7.15
 H -1.22  1.46  4.61
 H -1.46  0.20  5.83
 H -3.89  0.09  5.29
 H -3.67  1.18  3.91
 H -2.94  3.00  5.41
 H -3.13  1.96  6.83
 H -5.56  1.70  5.98
 H -5.05  5.53  6.94
 H -4.03  4.84  5.78
 H -6.90  4.33  7.55
 N -3.00 -2.49  3.77
 C -4.22 -1.89  3.24
 H -3.11 -3.43  4.15
 H -4.59 -2.49  2.39
 H -4.04 -0.87  2.90
 H -5.02 -1.85  4.01
