35
#
 C -1.22 -0.18  0.33
 C -1.08 -0.51  1.81
 O -0.24 -1.32  2.22
 H -1.21 -1.11 -0.24
 H -0.35  0.42  0.03
 H -2.13  0.39  0.09
 N -1.92  0.18  2.65
 C -1.98 -0.08  4.09
 C -3.21  0.57  4.72
 O -3.80  0.05  5.66
 H -2.72  0.64  2.22
 H -2.10 -1.16  4.26
 C -0.69  0.36  4.82
 C -0.37  1.85  4.75
 C  1.09  2.14  5.13
 N  1.44  3.55  5.18
 C  1.60  4.28  4.02
 N  1.83  5.65  4.28
 N  1.51  3.72  2.86
 H  0.13 -0.22  4.37
 H -0.78  0.02  5.86
 H -1.04  2.42  5.43
 H -0.53  2.23  3.73
 H  1.75  1.66  4.40
 H  1.32  1.71  6.12
 H  1.07  4.08  5.96
 H  2.10  6.17  3.45
 H  2.45  5.83  5.06
 H  1.79  4.36  2.11
 N -3.60  1.77  4.18
 C -4.67  2.56  4.79
 H -2.93  2.27  3.61
 H -5.10  3.23  4.04
 H -4.31  3.15  5.64
 H -5.44  1.87  5.15
