35
#
 C  0.64 -0.75 -0.07
 C  0.33 -0.18  1.30
 O  1.06  0.65  1.84
 H  1.61 -1.26 -0.03
 H  0.74  0.07 -0.79
 H -0.12 -1.46 -0.44
 N -0.83 -0.63  1.87
 C -1.18 -0.33  3.24
 C -1.74 -1.63  3.86
 O -2.15 -2.54  3.13
 H -1.30 -1.46  1.50
 H -0.25 -0.02  3.75
 C -2.22  0.80  3.38
 C -1.75  2.15  2.85
 C -2.53  3.34  3.43
 N -2.27  3.57  4.85
 C -3.02  3.03  5.88
 N -2.41  3.22  7.13
 N -4.14  2.39  5.84
 H -2.47  0.90  4.44
 H -3.14  0.49  2.87
 H -1.82  2.18  1.75
 H -0.68  2.29  3.07
 H -3.61  3.20  3.30
 H -2.27  4.26  2.89
 H -1.30  3.73  5.08
 H -3.06  2.98  7.88
 H -2.00  4.14  7.27
 H -4.44  2.22  4.87
 N -1.81 -1.71  5.21
 C -1.41 -0.73  6.21
 H -2.28 -2.55  5.54
 H -2.23 -0.03  6.46
 H -0.55 -0.15  5.87
 H -1.12 -1.26  7.13
