35
#
 C  0.17  1.54  1.42
 C -0.05  0.34  2.31
 O  0.87 -0.19  2.92
 H  1.07  1.35  0.82
 H  0.40  2.42  2.05
 H -0.67  1.78  0.76
 N -1.32 -0.21  2.41
 C -2.62  0.42  2.14
 C -2.98  0.53  0.64
 O -3.85  1.30  0.25
 H -1.33 -0.98  3.07
 H -3.36 -0.29  2.54
 C -2.84  1.77  2.86
 C -2.65  1.67  4.37
 C -2.48  3.04  5.07
 N -1.52  3.95  4.47
 C -0.15  3.74  4.33
 N  0.40  2.76  5.14
 N  0.64  4.43  3.57
 H -3.85  2.12  2.61
 H -2.14  2.50  2.44
 H -1.77  1.04  4.59
 H -3.50  1.16  4.84
 H -2.21  2.88  6.13
 H -3.44  3.57  5.08
 H -1.89  4.59  3.77
 H -0.14  1.91  5.28
 H  1.36  2.56  4.88
 H  0.15  5.20  3.11
 N -2.32 -0.34 -0.17
 C -2.54 -0.41 -1.60
 H -1.59 -0.90  0.27
 H -3.35  0.27 -1.84
 H -2.82 -1.43 -1.90
 H -1.64 -0.11 -2.16
