35
#
 C -0.05  1.45  1.23
 C -0.13  0.33  2.24
 O  0.66  0.22  3.18
 H -0.90  2.15  1.35
 H -0.09  1.08  0.19
 H  0.88  2.00  1.39
 N -1.13 -0.60  2.07
 C -2.24 -0.57  1.13
 C -3.21  0.63  1.30
 O -3.60  1.24  0.31
 H -1.13 -1.32  2.79
 H -1.85 -0.41  0.11
 C -2.95 -1.94  1.14
 C -4.11 -2.10  0.15
 C -5.47 -1.64  0.71
 N -6.58 -1.86 -0.20
 C -7.12 -3.12 -0.36
 N -8.08 -3.17 -1.39
 N -6.73 -4.11  0.38
 H -3.29 -2.17  2.16
 H -2.17 -2.68  0.91
 H -4.21 -3.16 -0.10
 H -3.89 -1.56 -0.78
 H -5.46 -0.57  0.96
 H -5.69 -2.20  1.63
 H -6.59 -1.28 -1.03
 H -8.61 -4.03 -1.41
 H -8.68 -2.35 -1.45
 H -7.31 -4.94  0.22
 N -3.62  0.99  2.55
 C -3.34  0.40  3.85
 H -4.23  1.80  2.53
 H -4.07  0.81  4.57
 H -2.33  0.63  4.22
 H -3.48 -0.69  3.84
