35
#
 C  1.06  0.58  2.88
 C  0.20 -0.37  2.08
 O  0.57 -1.51  1.79
 H  2.05  0.15  2.99
 H  0.63  0.74  3.89
 H  1.13  1.57  2.41
 N -1.03  0.08  1.66
 C -1.68  1.33  2.01
 C -2.00  1.51  3.52
 O -1.79  2.60  4.05
 H -1.55 -0.60  1.12
 H -1.01  2.18  1.80
 C -2.94  1.51  1.15
 C -3.64  2.86  1.33
 C -4.91  3.01  0.47
 N -4.72  2.85 -0.97
 C -3.82  3.63 -1.69
 N -3.84  4.98 -1.35
 N -3.05  3.06 -2.56
 H -3.66  0.69  1.36
 H -2.63  1.39  0.10
 H -2.94  3.67  1.08
 H -3.92  3.01  2.38
 H -5.36  3.99  0.67
 H -5.66  2.26  0.77
 H -4.61  1.88 -1.28
 H -3.33  5.58 -1.98
 H -4.75  5.36 -1.10
 H -2.54  3.74 -3.12
 N -2.53  0.47  4.23
 C -2.86 -0.89  3.84
 H -2.67  0.72  5.21
 H -3.47 -1.33  4.63
 H -1.97 -1.52  3.69
 H -3.46 -0.91  2.92
