35
#
 C -0.78  0.84 -0.63
 C -0.39  0.80  0.83
 O  0.75  1.08  1.21
 H  0.12  1.08 -1.21
 H -1.55  1.60 -0.83
 H -1.17 -0.13 -0.98
 N -1.36  0.48  1.74
 C -2.73  0.02  1.48
 C -3.69  0.62  2.54
 O -4.36 -0.08  3.29
 H -1.02  0.41  2.70
 H -3.03  0.44  0.51
 C -2.87 -1.51  1.42
 C -2.33 -2.25  2.65
 C -3.17 -3.49  3.00
 N -2.93 -4.04  4.32
 C -3.40 -3.47  5.51
 N -4.40 -2.51  5.35
 N -3.06 -3.82  6.70
 H -2.36 -1.86  0.50
 H -3.94 -1.73  1.29
 H -2.34 -1.58  3.52
 H -1.28 -2.54  2.50
 H -3.01 -4.28  2.26
 H -4.24 -3.22  2.93
 H -2.08 -4.57  4.44
 H -4.64 -2.10  6.24
 H -4.32 -1.83  4.60
 H -2.42 -4.62  6.67
 N -3.77  1.98  2.59
 C -3.12  2.98  1.75
 H -4.40  2.31  3.32
 H -3.65  3.93  1.88
 H -3.18  2.70  0.69
 H -2.07  3.13  2.02
