35
#
 C -1.17  2.24 -1.02
 C -0.39  1.34 -0.08
 O  0.84  1.32 -0.05
 H -0.46  2.85 -1.58
 H -1.87  2.89 -0.48
 H -1.77  1.65 -1.73
 N -1.13  0.53  0.76
 C -2.57  0.35  0.78
 C -3.35  1.53  1.40
 O -4.51  1.77  1.05
 H -0.56 -0.12  1.29
 H -2.96  0.27 -0.25
 C -2.87 -0.96  1.54
 C -4.35 -1.36  1.69
 C -5.11 -1.57  0.37
 N -4.48 -2.46 -0.60
 C -4.36 -3.81 -0.38
 N -3.63 -4.46 -1.40
 N -4.87 -4.36  0.67
 H -2.43 -0.88  2.55
 H -2.33 -1.77  1.02
 H -4.89 -0.60  2.27
 H -4.38 -2.30  2.26
 H -5.28 -0.61 -0.13
 H -6.10 -1.99  0.61
 H -3.77 -2.05 -1.20
 H -3.67 -5.47 -1.34
 H -3.85 -4.14 -2.34
 H -4.81 -5.38  0.63
 N -2.67  2.24  2.34
 C -3.25  3.37  3.04
 H -1.70  2.00  2.48
 H -2.71  4.30  2.81
 H -3.23  3.21  4.13
 H -4.29  3.47  2.71
