35
#
 C -1.74 -2.00  2.93
 C -0.42 -1.48  2.41
 O  0.46 -2.24  1.98
 H -1.55 -2.71  3.74
 H -2.24 -2.56  2.12
 H -2.42 -1.22  3.29
 N -0.26 -0.13  2.44
 C  0.91  0.57  1.91
 C  2.11  0.57  2.92
 O  2.60  1.62  3.35
 H -0.98  0.44  2.88
 H  1.24 -0.01  1.04
 C  0.54  1.99  1.48
 C -0.10  2.86  2.58
 C  0.61  4.22  2.73
 N  0.10  4.99  3.85
 C  0.53  4.73  5.15
 N  0.01  5.66  6.07
 N  1.32  3.80  5.57
 H -0.12  1.92  0.61
 H  1.47  2.47  1.12
 H -0.04  2.36  3.55
 H -1.16  3.04  2.37
 H  0.46  4.82  1.82
 H  1.69  4.04  2.83
 H -0.10  5.96  3.67
 H  0.24  5.38  7.02
 H -0.98  5.84  5.96
 H  1.75  3.27  4.81
 N  2.55 -0.67  3.23
 C  3.63 -0.90  4.17
 H  2.06 -1.46  2.79
 H  3.30 -1.56  4.98
 H  3.93  0.06  4.58
 H  4.49 -1.37  3.67
