35
#
 C -0.74 -0.75  0.32
 C -0.44 -0.28  1.73
 O  0.68 -0.38  2.21
 H -1.08 -1.79  0.36
 H  0.20 -0.71 -0.24
 H -1.51 -0.17 -0.20
 N -1.46  0.22  2.51
 C -2.85  0.60  2.24
 C -3.56 -0.41  1.30
 O -3.53 -1.62  1.53
 H -1.13  0.43  3.45
 H -3.38  0.42  3.19
 C -3.01  2.10  1.92
 C -2.18  2.66  0.75
 C -2.93  3.74 -0.03
 N -4.04  3.20 -0.81
 C -5.37  3.49 -0.53
 N -6.24  3.09 -1.55
 N -5.70  3.97  0.62
 H -2.75  2.65  2.83
 H -4.08  2.31  1.77
 H -1.90  1.86  0.05
 H -1.23  3.07  1.12
 H -2.24  4.26 -0.72
 H -3.35  4.50  0.65
 H -3.84  2.88 -1.74
 H -7.19  3.40 -1.42
 H -5.92  3.28 -2.50
 H -6.70  4.15  0.68
 N -4.27  0.12  0.28
 C -5.06 -0.71 -0.62
 H -4.25  1.12  0.10
 H -5.72 -0.07 -1.21
 H -5.66 -1.43 -0.04
 H -4.42 -1.30 -1.30
