35
#
 C -0.66 -1.16  0.43
 C -0.30 -0.39  1.69
 O  0.76 -0.63  2.28
 H  0.16 -1.84  0.21
 H -0.82 -0.50 -0.43
 H -1.58 -1.74  0.56
 N -1.16  0.57  2.13
 C -2.51  0.83  1.65
 C -2.78  2.33  1.34
 O -3.88  2.82  1.58
 H -0.92  0.94  3.07
 H -2.62  0.31  0.68
 C -3.58  0.29  2.61
 C -3.58  0.97  4.00
 C -3.36  0.04  5.20
 N -2.19 -0.83  5.15
 C -0.90 -0.37  5.12
 N  0.09 -1.36  5.16
 N -0.65  0.90  5.08
 H -3.39 -0.79  2.71
 H -4.56  0.40  2.13
 H -4.53  1.49  4.15
 H -2.81  1.75  4.04
 H -4.22 -0.62  5.34
 H -3.27  0.67  6.11
 H -2.34 -1.78  4.85
 H -0.24 -2.32  5.14
 H  0.79 -1.20  4.43
 H  0.35  1.06  5.20
 N -1.79  3.08  0.77
 C -0.50  2.71  0.22
 H -2.11  4.04  0.60
 H -0.14  3.54 -0.40
 H -0.57  1.83 -0.44
 H  0.25  2.51  0.99
