35
#
 C  0.83  0.57  1.37
 C -0.05 -0.64  1.62
 O  0.41 -1.78  1.72
 H  1.83  0.22  1.13
 H  0.87  1.22  2.26
 H  0.45  1.20  0.54
 N -1.40 -0.42  1.74
 C -2.10  0.86  1.79
 C -1.74  1.76  3.00
 O -1.56  2.97  2.80
 H -1.93 -1.26  1.92
 H -1.79  1.47  0.93
 C -3.62  0.60  1.70
 C -4.52  1.84  1.77
 C -4.30  2.88  0.66
 N -4.32  2.37 -0.70
 C -5.48  1.90 -1.29
 N -5.24  1.37 -2.57
 N -6.60  1.93 -0.66
 H -3.91 -0.10  2.50
 H -3.80  0.06  0.75
 H -4.39  2.35  2.74
 H -5.56  1.50  1.72
 H -3.35  3.40  0.80
 H -5.10  3.63  0.74
 H -3.46  1.98 -1.06
 H -6.09  1.15 -3.08
 H -4.60  1.91 -3.15
 H -7.37  1.66 -1.28
 N -1.65  1.23  4.25
 C -1.83 -0.14  4.72
 H -1.39  1.93  4.94
 H -2.77 -0.58  4.35
 H -1.90 -0.11  5.81
 H -1.00 -0.80  4.44
