35
#
 C -0.25 -1.62 -0.38
 C  0.11 -0.88  0.89
 O  1.27 -0.54  1.13
 H -1.29 -1.52 -0.71
 H -0.06 -2.70 -0.22
 H  0.43 -1.29 -1.18
 N -0.88 -0.67  1.83
 C -2.31 -0.44  1.55
 C -3.07 -1.73  1.16
 O -4.09 -1.69  0.48
 H -0.54 -0.11  2.61
 H -2.74 -0.16  2.52
 C -2.58  0.72  0.57
 C -2.42  2.14  1.14
 C -1.06  2.51  1.76
 N -0.96  2.06  3.15
 C  0.25  2.16  3.86
 N  0.05  2.50  5.20
 N  1.43  1.89  3.44
 H -3.61  0.60  0.21
 H -1.94  0.61 -0.31
 H -3.21  2.33  1.89
 H -2.61  2.85  0.32
 H -0.92  3.61  1.70
 H -0.24  2.06  1.18
 H -1.77  2.33  3.71
 H  0.94  2.57  5.69
 H -0.55  3.30  5.37
 H  1.44  1.46  2.51
 N -2.55 -2.86  1.69
 C -3.13 -4.17  1.49
 H -1.67 -2.77  2.20
 H -4.07 -4.04  0.94
 H -3.35 -4.66  2.45
 H -2.47 -4.82  0.90
