35
#
 C  0.46  0.79  4.43
 C -0.84  0.14  4.86
 O -1.39  0.43  5.92
 H  1.13  0.85  5.29
 H  0.23  1.82  4.11
 H  0.95  0.26  3.60
 N -1.36 -0.80  3.99
 C -2.71 -1.31  4.15
 C -2.80 -2.83  3.91
 O -3.85 -3.36  3.55
 H -0.95 -0.84  3.07
 H -2.93 -1.17  5.23
 C -3.74 -0.52  3.32
 C -5.14 -0.41  3.93
 C -5.19  0.20  5.35
 N -4.32  1.35  5.60
 C -4.31  2.51  4.85
 N -5.52  2.82  4.23
 N -3.30  3.30  4.68
 H -3.82 -0.97  2.32
 H -3.34  0.50  3.19
 H -5.62 -1.40  3.96
 H -5.74  0.22  3.25
 H -4.91 -0.56  6.09
 H -6.24  0.45  5.58
 H -3.39  1.09  5.93
 H -6.36  2.62  4.78
 H -5.51  3.78  3.89
 H -2.46  2.90  5.10
 N -1.65 -3.52  4.17
 C -1.58 -4.97  4.10
 H -0.85 -2.99  4.49
 H -0.75 -5.29  3.46
 H -2.52 -5.33  3.68
 H -1.44 -5.41  5.10
