35
#
 C  0.07  0.02 -0.44
 C -0.02 -0.49  0.98
 O  1.00 -0.76  1.64
 H  0.12  1.11 -0.42
 H -0.77 -0.31 -1.06
 H  1.01 -0.36 -0.86
 N -1.24 -0.61  1.59
 C -2.60 -0.31  1.15
 C -3.11 -1.35  0.12
 O -2.36 -2.01 -0.59
 H -1.15 -0.95  2.54
 H -3.21 -0.44  2.06
 C -2.86  1.15  0.66
 C -3.53  2.09  1.69
 C -2.58  2.92  2.56
 N -1.67  2.12  3.38
 C -0.33  2.03  3.03
 N  0.44  1.34  3.97
 N  0.10  2.56  1.94
 H -3.49  1.11 -0.24
 H -1.91  1.59  0.34
 H -4.21  1.51  2.33
 H -4.16  2.81  1.15
 H -3.17  3.56  3.23
 H -1.96  3.57  1.93
 H -1.86  2.09  4.37
 H -0.09  0.66  4.52
 H  1.23  0.86  3.54
 H  1.09  2.35  1.80
 N -4.47 -1.49  0.03
 C -5.52 -0.82  0.77
 H -4.75 -2.15 -0.69
 H -5.31 -0.79  1.85
 H -6.46 -1.38  0.64
 H -5.69  0.21  0.43
