35
#
 C  0.08  0.72  0.01
 C  0.08  0.14  1.41
 O  1.12 -0.06  2.03
 H -0.27  1.76  0.02
 H -0.55  0.14 -0.67
 H  1.12  0.71 -0.35
 N -1.12 -0.13  2.03
 C -2.51 -0.12  1.58
 C -2.83 -1.30  0.63
 O -2.03 -1.70 -0.21
 H -0.96 -0.54  2.95
 H -3.09 -0.26  2.51
 C -2.99  1.20  0.94
 C -2.76  2.42  1.83
 C -3.23  3.71  1.15
 N -2.97  4.87  1.99
 C -3.72  6.02  1.85
 N -3.30  7.06  2.70
 N -4.75  6.05  1.08
 H -4.07  1.09  0.73
 H -2.51  1.33 -0.04
 H -1.69  2.50  2.07
 H -3.29  2.30  2.79
 H -4.32  3.70  0.97
 H -2.76  3.81  0.16
 H -2.00  4.99  2.28
 H -3.52  7.99  2.35
 H -2.37  7.00  3.09
 H -5.26  6.92  1.18
 N -4.08 -1.86  0.74
 C -5.12 -1.56  1.71
 H -4.24 -2.60  0.07
 H -4.81 -1.78  2.74
 H -5.98 -2.19  1.49
 H -5.46 -0.52  1.66
