35
#
 C -0.23 -1.08  0.09
 C  0.10  0.17  0.88
 O  1.25  0.53  1.10
 H  0.69 -1.65 -0.04
 H -0.64 -0.81 -0.90
 H -0.99 -1.70  0.59
 N -0.96  0.94  1.33
 C -2.38  0.57  1.39
 C -3.08  0.45  0.01
 O -4.07 -0.28 -0.08
 H -0.64  1.65  1.98
 H -2.49 -0.43  1.83
 C -3.17  1.55  2.29
 C -3.42  2.96  1.72
 C -2.28  3.99  1.89
 N -2.23  4.98  0.82
 C -1.82  4.63 -0.45
 N -2.39  5.41 -1.46
 N -0.97  3.71 -0.77
 H -2.67  1.60  3.27
 H -4.14  1.07  2.46
 H -4.33  3.37  2.20
 H -3.66  2.88  0.65
 H -1.30  3.50  1.93
 H -2.37  4.53  2.84
 H -2.87  5.76  0.89
 H -2.08  5.13 -2.38
 H -3.38  5.59 -1.40
 H -0.47  3.36  0.05
 N -2.58  1.17 -1.01
 C -3.23  1.17 -2.31
 H -1.86  1.88 -0.86
 H -2.64  1.79 -2.99
 H -4.26  1.56 -2.26
 H -3.29  0.15 -2.71
