35
#
 C -0.45  2.07  0.72
 C -0.98  0.91  1.53
 O -0.50  0.60  2.62
 H  0.61  1.90  0.51
 H -0.52  2.99  1.32
 H -0.98  2.23 -0.23
 N -2.04  0.25  0.97
 C -2.56 -0.99  1.53
 C -2.77 -1.96  0.35
 O -2.94 -1.55 -0.80
 H -2.29  0.40 -0.00
 H -1.80 -1.37  2.22
 C -3.89 -0.79  2.29
 C -3.78  0.16  3.47
 C -5.08  0.27  4.28
 N -5.44 -0.96  4.96
 C -6.54 -1.71  4.57
 N -6.84 -2.73  5.49
 N -7.19 -1.42  3.50
 H -4.24 -1.78  2.64
 H -4.66 -0.44  1.59
 H -3.51  1.17  3.12
 H -2.96 -0.15  4.14
 H -5.92  0.54  3.62
 H -4.98  1.07  5.03
 H -5.23 -1.00  5.95
 H -7.50 -3.42  5.13
 H -6.03 -3.19  5.91
 H -7.92 -2.11  3.31
 N -2.79 -3.27  0.69
 C -3.08 -4.33 -0.27
 H -2.63 -3.52  1.66
 H -4.01 -4.85 -0.02
 H -2.26 -5.06 -0.30
 H -3.18 -3.87 -1.25
