35
#
 C -2.42  0.79  0.24
 C -1.59  0.72  1.51
 O -0.37  0.86  1.52
 H -3.50  0.81  0.41
 H -2.17 -0.09 -0.38
 H -2.12  1.68 -0.32
 N -2.31  0.51  2.67
 C -1.70  0.25  3.97
 C -0.50  1.18  4.28
 O  0.59  0.73  4.63
 H -3.30  0.34  2.58
 H -2.48  0.52  4.71
 C -1.33 -1.23  4.14
 C -1.05 -1.71  5.58
 C -2.21 -1.53  6.57
 N -3.49 -2.13  6.20
 C -3.71 -3.50  6.25
 N -4.94 -3.86  5.67
 N -2.95 -4.42  6.74
 H -0.44 -1.42  3.53
 H -2.15 -1.83  3.71
 H -0.17 -1.18  5.97
 H -0.79 -2.77  5.52
 H -2.41 -0.46  6.75
 H -1.92 -1.94  7.55
 H -4.00 -1.66  5.46
 H -5.12 -4.84  5.83
 H -5.72 -3.28  5.96
 H -2.04 -4.06  7.01
 N -0.72  2.53  4.27
 C -1.88  3.27  3.81
 H  0.13  3.06  4.42
 H -1.85  4.28  4.25
 H -2.81  2.80  4.16
 H -1.93  3.37  2.72
