35
#
 C  0.21 -0.31 -0.00
 C  0.12 -0.29  1.51
 O  1.12 -0.46  2.23
 H  0.92  0.47 -0.32
 H -0.75 -0.14 -0.50
 H  0.62 -1.27 -0.32
 N -1.11 -0.07  2.03
 C -1.36 -0.01  3.48
 C -1.52 -1.45  4.02
 O -2.63 -1.96  4.22
 H -1.92 -0.04  1.41
 H -0.44  0.43  3.91
 C -2.57  0.88  3.79
 C -2.57  1.49  5.19
 C -2.66  0.50  6.36
 N -2.83  1.13  7.66
 C -4.06  1.62  8.08
 N -3.95  2.38  9.26
 N -5.21  1.47  7.53
 H -3.48  0.28  3.64
 H -2.58  1.70  3.05
 H -3.42  2.18  5.26
 H -1.67  2.11  5.32
 H -1.75 -0.12  6.42
 H -3.48 -0.21  6.21
 H -2.03  1.67  7.99
 H -4.88  2.60  9.61
 H -3.36  1.96  9.97
 H -5.15  1.01  6.62
 N -0.33 -2.08  4.23
 C -0.25 -3.48  4.60
 H  0.49 -1.61  3.85
 H  0.57 -3.63  5.31
 H -0.09 -4.13  3.73
 H -1.20 -3.77  5.07
