35
#
 C  1.36 -0.64  1.70
 C  0.95 -1.18  3.05
 O  1.78 -1.57  3.88
 H  2.40 -0.32  1.76
 H  0.74  0.21  1.36
 H  1.30 -1.44  0.95
 N -0.39 -1.21  3.36
 C -1.51 -1.23  2.41
 C -2.76 -0.66  3.12
 O -3.72 -1.37  3.42
 H -0.57 -1.63  4.27
 H -1.25 -0.54  1.59
 C -1.75 -2.62  1.80
 C -1.91 -3.78  2.80
 C -1.10 -5.02  2.41
 N  0.34 -4.81  2.42
 C  1.14 -4.57  1.31
 N  0.63 -5.07  0.11
 N  2.26 -3.94  1.29
 H -0.90 -2.82  1.14
 H -2.64 -2.56  1.15
 H -2.97 -4.05  2.91
 H -1.59 -3.47  3.81
 H -1.39 -5.36  1.41
 H -1.35 -5.85  3.10
 H  0.71 -4.37  3.27
 H  1.35 -5.00 -0.61
 H  0.24 -6.01  0.16
 H  2.47 -3.51  2.20
 N -2.74  0.68  3.41
 C -1.71  1.65  3.09
 H -3.58  1.00  3.89
 H -2.05  2.63  3.44
 H -1.55  1.74  2.00
 H -0.75  1.42  3.57
