35
#
 C -0.10 -3.00  0.96
 C  0.17 -1.52  1.18
 O  1.23 -1.00  0.84
 H  0.86 -3.52  1.02
 H -0.50 -3.14 -0.05
 H -0.81 -3.44  1.68
 N -0.81 -0.76  1.80
 C -2.23 -1.09  1.95
 C -2.52 -2.09  3.10
 O -3.57 -2.73  3.12
 H -0.60  0.24  1.79
 H -2.67 -0.15  2.32
 C -2.97 -1.48  0.65
 C -4.33 -0.77  0.44
 C -4.28  0.58 -0.29
 N -3.59  1.68  0.40
 C -2.21  1.82  0.47
 N -1.52  1.39 -0.66
 N -1.54  2.27  1.48
 H -3.15 -2.56  0.67
 H -2.32 -1.26 -0.20
 H -4.84 -0.66  1.41
 H -4.98 -1.43 -0.15
 H -5.30  0.91 -0.50
 H -3.80  0.44 -1.28
 H -4.05  1.97  1.25
 H -0.53  1.62 -0.61
 H -1.95  1.59 -1.56
 H -2.15  2.43  2.28
 N -1.58 -2.13  4.07
 C -1.70 -2.95  5.25
 H -0.74 -1.58  3.91
 H -1.65 -2.35  6.17
 H -0.90 -3.71  5.29
 H -2.67 -3.46  5.21
