35
#
 C -0.95  2.45  1.40
 C -0.79  1.48  2.54
 O  0.22  0.76  2.62
 H  0.01  2.95  1.21
 H -1.73  3.21  1.57
 H -1.22  1.88  0.49
 N -1.80  1.46  3.44
 C -2.13  0.50  4.53
 C -1.10  0.27  5.66
 O -1.54 -0.04  6.77
 H -2.55  2.11  3.25
 H -2.95  0.99  5.06
 C -2.70 -0.83  3.99
 C -1.70 -1.79  3.32
 C -2.20 -2.34  1.97
 N -2.53 -1.31  0.99
 C -1.69 -0.86 -0.02
 N -0.33 -1.09  0.20
 N -2.06 -0.26 -1.10
 H -3.50 -0.57  3.28
 H -3.18 -1.33  4.84
 H -1.48 -2.64  3.98
 H -0.74 -1.29  3.15
 H -3.11 -2.94  2.13
 H -1.44 -3.02  1.55
 H -3.51 -1.20  0.77
 H  0.21 -0.68 -0.56
 H  0.02 -0.79  1.11
 H -3.08 -0.29 -1.22
 N  0.21  0.38  5.37
 C  1.23  0.12  6.36
 H  0.47  0.50  4.38
 H  2.17  0.57  6.04
 H  1.38 -0.96  6.52
 H  0.93  0.56  7.32
