35
#
 C  0.55 -2.00  6.09
 C -0.77 -2.25  5.40
 O -1.41 -3.29  5.58
 H  1.25 -2.81  5.84
 H  0.39 -2.04  7.18
 H  1.01 -1.04  5.83
 N -1.21 -1.26  4.58
 C -2.49 -1.33  3.86
 C -2.32 -2.11  2.53
 O -2.32 -1.55  1.44
 H -0.60 -0.47  4.38
 H -3.16 -1.91  4.51
 C -3.06  0.06  3.63
 C -3.42  0.81  4.92
 C -4.04  2.19  4.63
 N -4.36  2.95  5.84
 C -5.63  3.09  6.38
 N -6.53  2.09  5.99
 N -6.04  4.04  7.15
 H -3.96 -0.05  3.00
 H -2.36  0.65  3.02
 H -2.53  0.94  5.55
 H -4.12  0.21  5.51
 H -4.95  2.08  4.03
 H -3.34  2.78  4.03
 H -3.72  3.69  6.09
 H -6.18  1.14  6.01
 H -7.40  2.19  6.51
 H -5.34  4.78  7.24
 N -2.18 -3.45  2.72
 C -1.92 -4.37  1.63
 H -2.10 -3.77  3.69
 H -2.08 -3.84  0.69
 H -2.59 -5.24  1.69
 H -0.88 -4.73  1.66
