35
#
 C  0.21 -1.03  0.06
 C  0.37 -0.76  1.53
 O  1.47 -0.57  2.05
 H  1.03 -0.53 -0.47
 H -0.75 -0.71 -0.36
 H  0.33 -2.12 -0.11
 N -0.76 -0.74  2.33
 C -2.06 -1.33  2.01
 C -3.27 -0.72  2.75
 O -4.35 -0.70  2.16
 H -0.50 -0.64  3.30
 H -2.29 -1.07  0.97
 C -2.10 -2.88  2.08
 C -1.73 -3.58  3.39
 C -0.24 -3.59  3.80
 N  0.74 -3.80  2.73
 C  0.65 -4.80  1.78
 N  0.17 -6.01  2.28
 N  0.98 -4.53  0.56
 H -1.45 -3.26  1.27
 H -3.13 -3.17  1.80
 H -2.04 -4.63  3.28
 H -2.32 -3.19  4.23
 H -0.11 -4.34  4.59
 H  0.05 -2.64  4.27
 H  1.16 -2.95  2.36
 H  0.46 -6.25  3.22
 H  0.25 -6.79  1.63
 H  1.02 -5.39 -0.01
 N -3.19 -0.26  4.04
 C -2.09 -0.19  4.99
 H -4.09  0.11  4.34
 H -2.52  0.00  5.98
 H -1.38  0.62  4.77
 H -1.55 -1.14  5.07
