35
#
 C -1.06  0.39 -0.92
 C -0.41  0.49  0.44
 O  0.75  0.91  0.58
 H -2.09  0.01 -0.89
 H -0.46 -0.27 -1.56
 H -1.07  1.38 -1.39
 N -1.17  0.09  1.49
 C -0.64  0.04  2.84
 C -1.51 -0.97  3.61
 O -2.62 -1.31  3.20
 H -2.08 -0.35  1.38
 H  0.39 -0.35  2.78
 C -0.61  1.44  3.53
 C  0.79  1.99  3.85
 C  1.44  1.46  5.13
 N  1.80  0.04  5.02
 C  2.23 -0.74  6.11
 N  1.94 -0.21  7.36
 N  2.76 -1.91  6.02
 H -1.21  1.42  4.45
 H -1.11  2.14  2.85
 H  0.72  3.08  3.96
 H  1.45  1.82  2.98
 H  0.73  1.57  5.96
 H  2.33  2.08  5.36
 H  2.29 -0.19  4.17
 H  2.34 -0.78  8.10
 H  2.08  0.78  7.49
 H  2.81 -2.23  5.05
 N -0.95 -1.41  4.76
 C -1.61 -2.31  5.68
 H -0.02 -1.06  4.99
 H -2.49 -2.73  5.17
 H -1.94 -1.80  6.59
 H -0.93 -3.13  5.97
