35
#
 C  0.43  1.97  1.34
 C -0.20  1.13  2.44
 O -0.62  1.64  3.48
 H  0.75  1.38  0.47
 H  1.29  2.50  1.75
 H -0.30  2.72  1.01
 N -0.28 -0.20  2.18
 C -0.73 -1.15  3.18
 C -0.14 -2.52  2.78
 O  0.48 -2.67  1.73
 H  0.21 -0.63  1.40
 H -0.33 -0.85  4.16
 C -2.27 -1.21  3.29
 C -2.96 -1.82  2.07
 C -4.44 -2.13  2.32
 N -4.94 -3.16  1.42
 C -4.65 -4.50  1.63
 N -5.26 -5.34  0.69
 N -3.91 -5.01  2.56
 H -2.63 -0.19  3.49
 H -2.54 -1.79  4.19
 H -2.46 -2.77  1.81
 H -2.86 -1.16  1.20
 H -5.06 -1.24  2.18
 H -4.59 -2.44  3.37
 H -5.84 -2.98  0.97
 H -5.20 -5.01 -0.27
 H -4.93 -6.29  0.79
 H -3.66 -4.31  3.25
 N -0.40 -3.54  3.64
 C -0.11 -4.93  3.34
 H -0.97 -3.33  4.46
 H  0.38 -5.41  4.20
 H  0.58 -4.95  2.49
 H -1.02 -5.48  3.08
