35
#
 C -1.59 -0.97 -1.52
 C -0.53 -0.83 -0.45
 O  0.65 -1.10 -0.67
 H -1.09 -1.20 -2.46
 H -2.18 -0.05 -1.64
 H -2.29 -1.79 -1.28
 N -0.91 -0.40  0.80
 C -2.24 -0.11  1.34
 C -3.16 -1.36  1.23
 O -2.77 -2.40  1.76
 H -0.16 -0.47  1.48
 H -2.09 -0.07  2.43
 C -2.76  1.29  0.94
 C -1.83  2.40  1.43
 C -2.33  3.79  1.02
 N -1.44  4.81  1.54
 C -1.63  6.18  1.38
 N -2.96  6.57  1.19
 N -0.61  6.96  1.51
 H -3.76  1.43  1.38
 H -2.88  1.37 -0.15
 H -0.82  2.24  1.02
 H -1.74  2.36  2.52
 H -3.34  3.94  1.45
 H -2.43  3.83 -0.08
 H -0.45  4.59  1.55
 H -3.06  7.52  0.85
 H -3.57  5.92  0.70
 H -0.88  7.94  1.45
 N -4.40 -1.34  0.63
 C -5.08 -0.38 -0.22
 H -4.85 -2.25  0.73
 H -5.93 -0.88 -0.68
 H -4.43 -0.01 -1.03
 H -5.47  0.48  0.34
