35
#
 C  0.17  0.55  0.55
 C  0.42 -0.35  1.76
 O  1.57 -0.58  2.15
 H -0.41  1.44  0.83
 H -0.37  0.03 -0.25
 H  1.14  0.87  0.17
 N -0.66 -0.92  2.37
 C -2.05 -0.62  2.08
 C -2.58  0.57  2.92
 O -2.20  0.80  4.06
 H -0.44 -1.40  3.27
 H -2.10 -0.31  1.02
 C -2.98 -1.86  2.21
 C -2.60 -2.89  3.28
 C -2.65 -2.39  4.73
 N -1.89 -3.21  5.66
 C -0.51 -3.15  5.63
 N  0.09 -4.06  6.52
 N  0.09 -2.34  4.83
 H -2.98 -2.38  1.23
 H -4.01 -1.51  2.37
 H -1.58 -3.25  3.07
 H -3.27 -3.76  3.16
 H -3.69 -2.35  5.09
 H -2.25 -1.37  4.81
 H -2.27 -4.12  5.89
 H  1.10 -3.94  6.61
 H -0.36 -4.14  7.42
 H  1.10 -2.29  4.98
 N -3.53  1.36  2.31
 C -4.02  1.29  0.95
 H -3.85  2.12  2.90
 H -4.77  2.08  0.82
 H -4.50  0.33  0.72
 H -3.23  1.47  0.21
