35
#
 C -1.77  0.75  1.02
 C -1.13  0.02  2.17
 O  0.10 -0.07  2.31
 H -1.11  1.57  0.71
 H -2.76  1.16  1.27
 H -1.89  0.07  0.17
 N -2.00 -0.56  3.06
 C -1.65 -1.39  4.21
 C -0.42 -0.89  5.01
 O  0.47 -1.67  5.34
 H -2.99 -0.50  2.83
 H -2.50 -1.28  4.91
 C -1.54 -2.89  3.87
 C -0.35 -3.30  2.97
 C -0.76 -4.05  1.70
 N -1.64 -3.29  0.81
 C -1.22 -2.49 -0.25
 N  0.11 -2.11 -0.21
 N -1.96 -2.08 -1.23
 H -2.49 -3.17  3.40
 H -1.49 -3.43  4.83
 H  0.33 -3.94  3.54
 H  0.24 -2.42  2.71
 H -1.30 -4.97  1.96
 H  0.14 -4.35  1.14
 H -2.59 -3.63  0.70
 H  0.32 -1.46 -0.96
 H  0.46 -1.78  0.69
 H -2.88 -2.54 -1.23
 N -0.42  0.40  5.45
 C -1.34  1.49  5.17
 H  0.45  0.64  5.93
 H -1.24  2.24  5.96
 H -2.38  1.14  5.19
 H -1.16  1.97  4.20
