35
#
 C -3.65 -3.24  1.53
 C -3.23 -2.66  2.87
 O -3.80 -2.97  3.92
 H -3.61 -4.34  1.60
 H -3.03 -2.91  0.69
 H -4.69 -2.96  1.34
 N -2.19 -1.78  2.83
 C -1.65 -0.98  3.94
 C -0.84 -1.78  5.00
 O  0.27 -1.37  5.35
 H -1.76 -1.62  1.93
 H -0.89 -0.33  3.49
 C -2.70 -0.09  4.63
 C -3.36  0.91  3.67
 C -4.45  1.77  4.32
 N -3.91  2.67  5.32
 C -4.70  3.66  5.90
 N -4.04  4.32  6.94
 N -5.90  3.99  5.59
 H -2.16  0.43  5.43
 H -3.47 -0.71  5.10
 H -3.82  0.36  2.84
 H -2.60  1.58  3.23
 H -5.24  1.11  4.73
 H -4.93  2.38  3.54
 H -3.25  2.24  5.97
 H -3.07  4.57  6.74
 H -4.58  5.12  7.26
 H -6.32  3.34  4.92
 N -1.46 -2.87  5.51
 C -0.85 -3.70  6.54
 H -2.40 -3.08  5.16
 H -0.79 -4.75  6.21
 H -1.43 -3.66  7.47
 H  0.16 -3.32  6.73
