35
#
 C -1.40 -0.90 -1.60
 C -0.61  0.11 -0.78
 O  0.40  0.64 -1.23
 H -1.50 -1.87 -1.09
 H -0.87 -1.05 -2.54
 H -2.42 -0.54 -1.82
 N -1.06  0.41  0.48
 C -2.27 -0.04  1.14
 C -3.01  1.20  1.67
 O -2.40  2.18  2.10
 H -0.57  1.17  0.94
 H -2.90 -0.56  0.41
 C -1.98 -0.99  2.33
 C -1.31 -2.30  1.91
 C -1.01 -3.25  3.08
 N -0.06 -2.74  4.06
 C -0.42 -1.91  5.12
 N -1.64 -2.23  5.72
 N  0.37 -0.94  5.44
 H -2.93 -1.20  2.85
 H -1.34 -0.45  3.04
 H -0.37 -2.07  1.38
 H -1.95 -2.84  1.19
 H -0.61 -4.19  2.67
 H -1.95 -3.51  3.59
 H  0.82 -2.42  3.67
 H -1.81 -1.73  6.58
 H -1.83 -3.23  5.82
 H  0.08 -0.49  6.31
 N -4.37  1.11  1.66
 C -5.24  2.15  2.20
 H -4.80  0.28  1.27
 H -5.93  2.53  1.44
 H -4.59  2.97  2.54
 H -5.82  1.78  3.06
