35
#
 C  0.11  1.54  0.71
 C  0.16  0.46  1.77
 O  1.17  0.21  2.42
 H  1.07  2.06  0.71
 H -0.70  2.27  0.90
 H -0.07  1.11 -0.28
 N -1.01 -0.24  2.00
 C -2.26 -0.15  1.27
 C -3.11  1.09  1.64
 O -3.96  1.53  0.86
 H -0.89 -1.02  2.64
 H -2.07 -0.05  0.19
 C -3.07 -1.44  1.50
 C -4.30 -1.60  0.61
 C -5.07 -2.88  0.93
 N -6.22 -3.02  0.06
 C -6.93 -4.21  0.04
 N -8.11 -4.11 -0.72
 N -6.51 -5.24  0.68
 H -3.36 -1.49  2.56
 H -2.38 -2.29  1.32
 H -4.00 -1.62 -0.45
 H -4.96 -0.73  0.72
 H -5.36 -2.90  2.00
 H -4.44 -3.77  0.78
 H -6.80 -2.19 -0.02
 H -8.55 -5.00 -0.90
 H -8.02 -3.56 -1.58
 H -7.07 -6.07  0.47
 N -2.87  1.60  2.87
 C -3.58  2.75  3.40
 H -2.10  1.20  3.39
 H -2.90  3.59  3.59
 H -4.10  2.50  4.34
 H -4.32  3.06  2.65
