35
#
 C -0.87  2.24  0.60
 C -0.21  1.09  1.34
 O  0.97  1.11  1.68
 H -0.14  3.05  0.52
 H -1.77  2.60  1.11
 H -1.16  1.93 -0.42
 N -1.01  0.01  1.65
 C -2.41 -0.21  1.28
 C -3.44  0.38  2.28
 O -4.64  0.35  2.01
 H -0.51 -0.75  2.09
 H -2.61  0.31  0.33
 C -2.71 -1.70  1.06
 C -2.58 -2.57  2.32
 C -2.99 -4.03  2.04
 N -2.86 -4.93  3.17
 C -1.62 -5.44  3.56
 N -1.70 -6.12  4.78
 N -0.49 -5.36  2.95
 H -2.04 -2.07  0.27
 H -3.74 -1.76  0.69
 H -3.21 -2.17  3.12
 H -1.55 -2.57  2.70
 H -2.41 -4.44  1.20
 H -4.04 -4.05  1.71
 H -3.51 -4.77  3.93
 H -0.82 -6.60  4.97
 H -2.50 -6.74  4.87
 H -0.53 -4.73  2.14
 N -2.93  0.90  3.42
 C -3.75  1.49  4.46
 H -1.92  0.87  3.53
 H -4.79  1.43  4.13
 H -3.49  2.55  4.62
 H -3.64  0.95  5.41
