35
#
 C  0.07  1.14  0.77
 C  0.14  0.09  1.87
 O  1.21 -0.29  2.34
 H -0.49  2.03  1.09
 H -0.42  0.74 -0.13
 H  1.09  1.43  0.52
 N -1.05 -0.43  2.33
 C -2.40 -0.17  1.82
 C -3.34 -0.14  3.05
 O -4.00 -1.12  3.39
 H -0.94 -1.18  3.00
 H -2.39  0.82  1.36
 C -2.86 -1.20  0.79
 C -4.18 -0.82  0.12
 C -4.62 -1.77 -1.01
 N -3.75 -1.80 -2.17
 C -2.74 -2.73 -2.36
 N -1.97 -2.44 -3.51
 N -2.43 -3.76 -1.66
 H -2.96 -2.18  1.28
 H -2.06 -1.30  0.03
 H -4.11  0.20 -0.29
 H -4.99 -0.80  0.87
 H -5.63 -1.48 -1.35
 H -4.71 -2.80 -0.63
 H -3.61 -0.91 -2.64
 H -1.32 -3.19 -3.69
 H -2.52 -2.20 -4.33
 H -2.96 -3.80 -0.78
 N -3.37  1.02  3.77
 C -2.56  2.22  3.57
 H -3.93  0.96  4.61
 H -2.71  2.66  2.58
 H -1.48  2.02  3.71
 H -2.87  2.96  4.31
