35
#
 C  0.23 -0.09  0.08
 C -0.04 -0.19  1.57
 O  0.73 -0.76  2.35
 H  1.21  0.38 -0.06
 H -0.53  0.47 -0.47
 H  0.30 -1.11 -0.33
 N -1.20  0.41  1.99
 C -1.70  0.27  3.35
 C -3.20 -0.02  3.25
 O -3.87  0.38  2.29
 H -1.90  0.71  1.32
 H -1.16 -0.59  3.80
 C -1.45  1.53  4.21
 C  0.03  1.88  4.37
 C  0.24  3.06  5.31
 N  1.65  3.38  5.41
 C  2.06  4.50  6.11
 N  3.45  4.67  6.14
 N  1.19  5.31  6.60
 H -1.91  1.36  5.20
 H -2.00  2.37  3.76
 H  0.46  2.11  3.39
 H  0.57  0.99  4.75
 H -0.20  2.85  6.30
 H -0.28  3.96  4.94
 H  2.28  2.58  5.42
 H  3.80  5.15  6.96
 H  4.03  3.87  5.88
 H  1.65  6.15  6.98
 N -3.74 -0.69  4.30
 C -5.15 -0.97  4.43
 H -3.11 -1.01  5.03
 H -5.58 -0.51  5.33
 H -5.34 -2.06  4.47
 H -5.65 -0.57  3.54
