35
#
 C -0.71  0.26 -0.48
 C -0.21 -0.31  0.84
 O  0.88 -0.86  0.91
 H -0.93 -0.58 -1.15
 H  0.11  0.83 -0.93
 H -1.60  0.89 -0.41
 N -1.04 -0.30  1.95
 C -2.24  0.49  2.25
 C -3.39  0.32  1.22
 O -4.16  1.24  0.95
 H -0.56 -0.69  2.75
 H -2.65  0.01  3.16
 C -2.00  1.96  2.64
 C -1.37  2.87  1.59
 C -1.23  4.30  2.10
 N -0.64  5.15  1.08
 C -0.14  6.43  1.28
 N -0.04  6.81  2.62
 N  0.31  7.23  0.38
 H -1.36  1.95  3.54
 H -2.97  2.37  2.94
 H -2.00  2.87  0.69
 H -0.37  2.51  1.30
 H -0.56  4.31  2.98
 H -2.22  4.67  2.43
 H -0.95  4.98  0.13
 H  0.26  7.78  2.69
 H -0.84  6.60  3.21
 H  0.31  6.78 -0.55
 N -3.50 -0.94  0.72
 C -4.51 -1.31 -0.25
 H -2.77 -1.61  0.96
 H -5.04 -2.22  0.06
 H -4.07 -1.48 -1.25
 H -5.23 -0.49 -0.32
