35
#
 C  0.03 -0.17  0.21
 C -0.01 -0.10  1.73
 O  1.01 -0.13  2.40
 H  1.08 -0.15 -0.09
 H -0.50  0.66 -0.27
 H -0.43 -1.11 -0.15
 N -1.24 -0.00  2.34
 C -2.58  0.02  1.75
 C -3.35  1.18  2.43
 O -4.14  0.98  3.35
 H -1.19 -0.02  3.35
 H -2.46  0.24  0.68
 C -3.34 -1.30  1.92
 C -2.70 -2.48  1.20
 C -3.49 -3.78  1.43
 N -2.91 -4.96  0.80
 C -1.82 -5.58  1.37
 N -1.30 -6.60  0.55
 N -1.36 -5.20  2.51
 H -4.37 -1.14  1.55
 H -3.44 -1.51  2.99
 H -1.68 -2.64  1.56
 H -2.64 -2.28  0.12
 H -4.52 -3.67  1.05
 H -3.54 -3.99  2.50
 H -2.92 -4.97 -0.22
 H -0.60 -7.17  1.01
 H -2.01 -7.17  0.09
 H -0.64 -5.83  2.86
 N -3.10  2.44  1.97
 C -2.13  2.88  0.99
 H -3.58  3.16  2.52
 H -1.09  2.72  1.33
 H -2.26  3.95  0.81
 H -2.27  2.37  0.03
