35
#
 C  0.14  1.47  0.09
 C  0.20  0.64  1.36
 O  1.26  0.41  1.93
 H -0.50  1.01 -0.67
 H  1.15  1.55 -0.29
 H -0.23  2.48  0.31
 N -0.98  0.18  1.91
 C -2.35  0.16  1.39
 C -2.46 -0.89  0.25
 O -2.21 -2.06  0.54
 H -0.80 -0.45  2.69
 H -2.92 -0.34  2.19
 C -2.98  1.55  1.23
 C -2.88  2.40  2.50
 C -3.57  3.78  2.37
 N -3.35  4.49  1.12
 C -2.10  4.90  0.69
 N -2.09  5.30 -0.65
 N -0.99  4.92  1.35
 H -4.04  1.41  0.95
 H -2.51  2.10  0.41
 H -1.82  2.52  2.76
 H -3.35  1.87  3.35
 H -3.26  4.42  3.20
 H -4.66  3.66  2.46
 H -3.98  4.24  0.36
 H -1.21  5.74 -0.89
 H -2.88  5.90 -0.91
 H -1.09  4.50  2.28
 N -2.81 -0.58 -1.04
 C -3.20  0.65 -1.71
 H -2.83 -1.43 -1.61
 H -3.31  0.43 -2.78
 H -2.45  1.44 -1.61
 H -4.17  1.04 -1.35
