35
#
 C  0.26  1.15  0.45
 C -0.02  1.13  1.93
 O  0.65  1.76  2.75
 H  1.21  1.67  0.29
 H -0.53  1.69 -0.10
 H  0.32  0.14  0.02
 N -1.07  0.35  2.36
 C -2.08 -0.32  1.55
 C -2.96  0.61  0.69
 O -3.18  0.31 -0.48
 H -1.22  0.40  3.37
 H -1.57 -0.94  0.79
 C -2.88 -1.28  2.45
 C -4.00 -2.07  1.76
 C -5.35 -1.34  1.73
 N -6.37 -2.17  1.12
 C -7.64 -1.67  0.88
 N -8.52 -2.65  0.40
 N -8.07 -0.47  1.06
 H -3.30 -0.71  3.30
 H -2.15 -1.97  2.89
 H -4.13 -3.02  2.31
 H -3.71 -2.33  0.73
 H -5.27 -0.42  1.14
 H -5.62 -1.04  2.76
 H -6.35 -3.15  1.38
 H -9.40 -2.24  0.12
 H -8.12 -3.24 -0.33
 H -7.38  0.11  1.55
 N -3.48  1.76  1.23
 C -3.39  2.29  2.58
 H -4.02  2.29  0.55
 H -3.62  1.53  3.34
 H -4.15  3.08  2.68
 H -2.41  2.73  2.80
