35
#
 C -1.37 -1.25  0.32
 C -1.10 -0.23  1.41
 O -0.24  0.64  1.27
 H -0.45 -1.81  0.13
 H -1.63 -0.72 -0.61
 H -2.17 -1.97  0.55
 N -1.88 -0.37  2.52
 C -1.88  0.41  3.77
 C -3.06  1.43  3.80
 O -3.99  1.22  4.59
 H -2.60 -1.09  2.48
 H -2.21 -0.30  4.54
 C -0.50  0.94  4.21
 C -0.35  1.13  5.72
 C -1.33  2.09  6.41
 N -1.42  3.36  5.69
 C -2.44  4.28  5.86
 N -3.67  3.75  6.22
 N -2.16  5.53  5.68
 H -0.25  1.86  3.68
 H  0.25  0.20  3.88
 H -0.42  0.16  6.24
 H  0.68  1.49  5.90
 H -1.01  2.24  7.46
 H -2.32  1.64  6.44
 H -0.54  3.86  5.57
 H -4.44  4.41  6.18
 H -3.92  2.83  5.82
 H -3.00  6.12  5.72
 N -3.11  2.48  2.94
 C -2.05  3.12  2.17
 H -3.93  3.05  3.11
 H -1.56  3.91  2.76
 H -2.50  3.58  1.27
 H -1.30  2.39  1.84
