35
#
 C -0.98  0.04 -0.01
 C -0.54  0.13  1.44
 O  0.62 -0.09  1.79
 H -0.12 -0.27 -0.60
 H -1.34  1.01 -0.39
 H -1.79 -0.69 -0.14
 N -1.49  0.50  2.37
 C -2.93  0.68  2.16
 C -3.36  1.87  3.06
 O -3.87  1.68  4.16
 H -1.16  0.47  3.33
 H -3.07  0.96  1.11
 C -3.74 -0.58  2.46
 C -5.21 -0.46  2.05
 C -6.01 -1.74  2.28
 N -5.53 -2.83  1.44
 C -5.98 -4.14  1.63
 N -5.51 -5.00  0.63
 N -6.74 -4.59  2.56
 H -3.68 -0.79  3.54
 H -3.27 -1.42  1.94
 H -5.28 -0.18  0.98
 H -5.69  0.34  2.61
 H -7.09 -1.54  2.11
 H -5.91 -2.05  3.33
 H -5.40 -2.59  0.46
 H -5.75 -5.96  0.86
 H -4.52 -4.90  0.42
 H -7.13 -3.84  3.13
 N -3.12  3.12  2.58
 C -2.42  3.49  1.36
 H -3.35  3.86  3.24
 H -2.43  4.58  1.27
 H -2.92  3.09  0.46
 H -1.37  3.16  1.36
