35
#
 C -0.48 -2.21  1.23
 C -0.62 -1.28  2.41
 O  0.24 -0.42  2.67
 H -1.32 -2.91  1.12
 H  0.45 -2.78  1.33
 H -0.40 -1.61  0.32
 N -1.74 -1.44  3.17
 C -2.03 -0.62  4.35
 C -1.31 -1.19  5.60
 O -1.90 -1.82  6.47
 H -2.35 -2.23  2.99
 H -1.59  0.37  4.13
 C -3.53 -0.48  4.57
 C -4.23  0.28  3.44
 C -5.73  0.51  3.67
 N -6.03  1.34  4.83
 C -6.53  0.85  6.03
 N -6.87  1.88  6.91
 N -6.71 -0.37  6.39
 H -3.69  0.04  5.52
 H -3.97 -1.48  4.71
 H -4.12 -0.26  2.48
 H -3.75  1.26  3.30
 H -6.25 -0.46  3.79
 H -6.17  0.98  2.78
 H -6.32  2.29  4.61
 H -7.11  1.50  7.82
 H -6.18  2.63  6.97
 H -6.52 -1.03  5.63
 N  0.03 -0.94  5.60
 C  0.92 -1.47  6.60
 H  0.41 -0.51  4.75
 H  0.31 -1.85  7.43
 H  1.60 -0.69  6.98
 H  1.53 -2.30  6.21
