35
#
 C -1.26  0.08 -0.37
 C -0.94  0.10  1.11
 O -0.04  0.79  1.59
 H -1.55  1.10 -0.67
 H -2.06 -0.62 -0.65
 H -0.35 -0.18 -0.92
 N -1.73 -0.72  1.89
 C -1.60 -0.78  3.34
 C -1.42 -2.25  3.76
 O -2.34 -2.93  4.23
 H -2.46 -1.25  1.44
 H -0.67 -0.23  3.54
 C -2.71 -0.02  4.10
 C -4.15 -0.55  4.14
 C -4.79 -0.90  2.79
 N -6.22 -1.17  2.87
 C -7.15 -0.14  2.92
 N -8.45 -0.61  3.18
 N -6.97  1.13  2.77
 H -2.71  1.00  3.66
 H -2.36  0.10  5.13
 H -4.76  0.22  4.63
 H -4.18 -1.45  4.78
 H -4.32 -1.81  2.38
 H -4.64 -0.09  2.06
 H -6.47 -1.99  3.40
 H -8.71 -1.44  2.65
 H -9.13  0.14  3.07
 H -5.97  1.37  2.73
 N -0.17 -2.79  3.58
 C  0.98 -2.23  2.89
 H -0.15 -3.78  3.81
 H  0.96 -2.44  1.81
 H  1.89 -2.67  3.32
 H  1.03 -1.15  3.02
