35
#
 C -2.15  3.46 -0.08
 C -1.35  2.84  1.04
 O -0.26  3.27  1.40
 H -1.62  4.35 -0.42
 H -3.17  3.73  0.24
 H -2.25  2.76 -0.93
 N -1.91  1.74  1.67
 C -3.13  1.03  1.31
 C -4.43  1.77  1.71
 O -5.48  1.56  1.11
 H -1.28  1.30  2.34
 H -3.20  0.93  0.22
 C -3.07 -0.38  1.95
 C -4.27 -1.30  1.70
 C -4.56 -1.61  0.22
 N -3.42 -2.09 -0.57
 C -2.68 -3.22 -0.26
 N -3.41 -4.23  0.36
 N -1.42 -3.41 -0.49
 H -2.95 -0.25  3.04
 H -2.15 -0.86  1.59
 H -5.18 -0.87  2.13
 H -4.07 -2.24  2.22
 H -4.94 -0.71 -0.28
 H -5.38 -2.34  0.17
 H -2.85 -1.36 -0.99
 H -2.87 -5.09  0.40
 H -4.35 -4.37  0.01
 H -0.97 -2.55 -0.82
 N -4.31  2.60  2.78
 C -5.42  3.36  3.32
 H -3.37  2.75  3.15
 H -5.25  4.44  3.21
 H -5.58  3.13  4.38
 H -6.32  3.08  2.75
