35
#
 C  0.31  0.04 -0.13
 C  0.38  0.15  1.38
 O  1.44  0.32  1.98
 H  1.31  0.19 -0.54
 H -0.38  0.77 -0.57
 H -0.05 -0.96 -0.43
 N -0.81  0.08  2.06
 C -2.14 -0.20  1.52
 C -2.79  0.99  0.79
 O -3.64  0.80 -0.08
 H -0.70  0.07  3.07
 H -2.07 -1.00  0.76
 C -3.03 -0.70  2.68
 C -4.49 -1.00  2.35
 C -4.69 -2.11  1.30
 N -6.07 -2.46  1.05
 C -6.89 -1.68  0.23
 N -8.22 -2.12  0.27
 N -6.57 -0.68 -0.50
 H -3.00  0.06  3.48
 H -2.55 -1.60  3.09
 H -5.00 -0.09  2.00
 H -5.00 -1.30  3.28
 H -4.16 -3.02  1.62
 H -4.24 -1.81  0.34
 H -6.56 -2.89  1.83
 H -8.77 -1.62 -0.43
 H -8.33 -3.13  0.19
 H -5.61 -0.35 -0.37
 N -2.38  2.22  1.20
 C -2.90  3.45  0.63
 H -1.61  2.25  1.86
 H -2.12  3.99  0.08
 H -3.29  4.10  1.42
 H -3.71  3.18 -0.05
