35
#
 C -2.60  2.19 -0.62
 C -2.05  1.72  0.72
 O -1.58  2.52  1.54
 H -3.65  1.89 -0.75
 H -2.03  1.77 -1.46
 H -2.54  3.28 -0.65
 N -2.11  0.38  0.99
 C -2.60 -0.69  0.16
 C -3.01 -1.84  1.10
 O -2.53 -1.93  2.23
 H -1.80  0.09  1.92
 H -3.49 -0.35 -0.40
 C -1.56 -1.21 -0.87
 C -0.22 -1.62 -0.26
 C  0.58 -2.60 -1.12
 N  0.01 -3.95 -1.17
 C -1.03 -4.33 -2.01
 N -0.98 -3.77 -3.29
 N -2.00 -5.14 -1.73
 H -1.40 -0.44 -1.63
 H -2.01 -2.06 -1.41
 H -0.38 -2.09  0.73
 H  0.39 -0.72 -0.07
 H  1.60 -2.69 -0.73
 H  0.67 -2.22 -2.15
 H -0.09 -4.37 -0.25
 H -1.65 -4.22 -3.91
 H -0.06 -3.69 -3.70
 H -1.99 -5.38 -0.73
 N -3.88 -2.77  0.63
 C -4.52 -2.88 -0.68
 H -4.04 -3.53  1.29
 H -4.64 -1.89 -1.13
 H -5.52 -3.31 -0.55
 H -3.94 -3.53 -1.36
