35
#
 C -0.82 -0.34 -0.59
 C -0.51 -0.27  0.89
 O  0.63 -0.40  1.33
 H -0.29  0.48 -1.10
 H -1.89 -0.27 -0.82
 H -0.42 -1.28 -1.00
 N -1.59 -0.06  1.70
 C -1.46 -0.06  3.14
 C -2.81 -0.53  3.71
 O -3.83 -0.49  3.01
 H -2.54 -0.09  1.35
 H -0.66 -0.77  3.40
 C -1.05  1.33  3.70
 C -2.09  2.43  3.47
 C -1.69  3.78  4.06
 N -0.52  4.35  3.39
 C -0.14  5.68  3.56
 N -1.20  6.59  3.54
 N  1.11  5.95  3.73
 H -0.10  1.57  3.22
 H -0.84  1.24  4.78
 H -3.05  2.14  3.92
 H -2.27  2.55  2.39
 H -1.53  3.68  5.15
 H -2.53  4.48  3.94
 H  0.32  3.77  3.47
 H -0.91  7.55  3.47
 H -1.95  6.36  2.88
 H  1.28  6.96  3.69
 N -2.85 -0.95  5.00
 C -1.76 -1.11  5.95
 H -3.79 -1.19  5.31
 H -1.61 -0.22  6.57
 H -0.83 -1.34  5.43
 H -1.99 -1.96  6.61
