35
#
 C  0.61 -0.22  1.04
 C -0.02 -0.02  2.41
 O  0.65  0.09  3.44
 H  0.19 -1.10  0.54
 H  1.68 -0.35  1.18
 H  0.43  0.64  0.39
 N -1.39  0.04  2.47
 C -2.33  0.08  1.36
 C -2.28  1.36  0.49
 O -2.28  1.24 -0.74
 H -1.75  0.19  3.41
 H -2.07 -0.70  0.64
 C -3.76 -0.21  1.88
 C -4.01 -1.72  2.07
 C -4.69 -2.37  0.85
 N -4.10 -1.97 -0.41
 C -4.77 -1.19 -1.33
 N -3.92 -0.78 -2.37
 N -6.02 -0.92 -1.17
 H -4.49  0.20  1.17
 H -3.91  0.33  2.82
 H -4.66 -1.89  2.95
 H -3.06 -2.22  2.30
 H -5.74 -2.07  0.80
 H -4.67 -3.47  0.95
 H -3.27 -2.45 -0.75
 H -4.40 -0.21 -3.06
 H -3.10 -0.28 -2.01
 H -6.33 -0.23 -1.87
 N -2.22  2.59  1.07
 C -2.23  2.96  2.48
 H -2.17  3.33  0.39
 H -2.43  4.03  2.54
 H -1.27  2.76  2.97
 H -3.03  2.45  3.02
