35
#
 C  0.72  3.22  0.96
 C -0.51  2.72  1.70
 O -1.45  3.47  1.97
 H  1.46  2.43  0.75
 H  1.19  4.00  1.57
 H  0.40  3.68  0.02
 N -0.50  1.39  2.02
 C -1.54  0.81  2.86
 C -0.86 -0.11  3.88
 O  0.10 -0.82  3.58
 H  0.32  0.82  1.88
 H -2.00  1.63  3.40
 C -2.60  0.03  2.04
 C -3.40  0.90  1.06
 C -4.58  1.68  1.68
 N -4.24  2.44  2.89
 C -4.57  2.01  4.15
 N -5.87  1.52  4.26
 N -3.70  2.06  5.12
 H -3.28 -0.47  2.75
 H -2.08 -0.76  1.49
 H -3.82  0.26  0.27
 H -2.73  1.60  0.55
 H -5.38  0.97  1.95
 H -5.00  2.36  0.92
 H -3.34  2.92  2.83
 H -6.16  1.28  5.21
 H -6.59  2.01  3.73
 H -4.17  1.94  6.02
 N -1.46 -0.05  5.10
 C -1.03 -0.86  6.22
 H -2.19  0.66  5.22
 H -0.65 -0.23  7.04
 H -0.22 -1.52  5.88
 H -1.85 -1.48  6.60
