35
#
 C -1.81 -0.04  1.16
 C -2.60  0.22  2.43
 O -3.00 -0.70  3.13
 H -2.51 -0.13  0.32
 H -1.30 -1.00  1.28
 H -1.08  0.74  0.90
 N -2.92  1.52  2.77
 C -2.49  2.82  2.25
 C -2.43  2.89  0.71
 O -1.41  3.22  0.10
 H -3.45  1.55  3.64
 H -3.30  3.51  2.52
 C -1.22  3.38  2.92
 C  0.05  2.53  2.81
 C  1.22  3.10  3.63
 N  1.62  4.45  3.24
 C  1.15  5.60  3.85
 N  0.98  5.49  5.24
 N  0.89  6.64  3.13
 H -1.46  3.53  3.99
 H -1.04  4.38  2.50
 H  0.35  2.45  1.76
 H -0.14  1.51  3.17
 H  0.95  3.11  4.69
 H  2.09  2.43  3.52
 H  1.69  4.60  2.24
 H  0.80  6.38  5.70
 H  1.69  4.95  5.72
 H  0.71  7.46  3.70
 N -3.59  2.61  0.03
 C -4.90  2.25  0.56
 H -3.48  2.67 -0.97
 H -5.15  2.84  1.44
 H -4.97  1.19  0.83
 H -5.65  2.47 -0.21
