35
#
 C -0.67 -1.15  0.49
 C -0.50 -0.48  1.83
 O  0.50 -0.68  2.53
 H -0.10 -0.59 -0.27
 H -1.70 -1.22  0.13
 H -0.24 -2.15  0.56
 N -1.47  0.37  2.31
 C -2.73  0.87  1.76
 C -3.61 -0.23  1.12
 O -4.12 -0.11  0.00
 H -1.19  0.78  3.20
 H -3.33  1.15  2.65
 C -2.60  2.18  0.94
 C -1.48  2.31 -0.11
 C -1.92  2.26 -1.58
 N -2.42  0.98 -2.04
 C -1.56  0.04 -2.57
 N -2.21 -1.15 -2.91
 N -0.31  0.30 -2.78
 H -2.46  2.97  1.69
 H -3.58  2.38  0.48
 H -0.69  1.57  0.06
 H -0.99  3.29  0.04
 H -1.05  2.51 -2.22
 H -2.70  3.02 -1.76
 H -3.21  0.62 -1.51
 H -1.62 -1.98 -2.88
 H -3.12 -1.31 -2.49
 H  0.14 -0.46 -3.29
 N -3.88 -1.33  1.88
 C -3.48 -1.64  3.24
 H -4.49 -1.99  1.40
 H -4.18 -2.40  3.63
 H -3.55 -0.76  3.89
 H -2.46 -2.04  3.30
