35
#
 C  0.45  0.47  0.07
 C  0.30  0.35  1.57
 O  1.29  0.38  2.32
 H  1.28 -0.17 -0.26
 H  0.73  1.51 -0.16
 H -0.45  0.21 -0.49
 N -0.97  0.21  2.02
 C -1.46  0.34  3.41
 C -0.59  1.37  4.18
 O -0.58  2.54  3.80
 H -1.69  0.27  1.31
 H -2.39  0.92  3.30
 C -1.94 -0.99  4.04
 C -1.03 -2.06  4.68
 C  0.19 -2.58  3.89
 N  1.40 -1.81  4.06
 C  2.14 -1.84  5.22
 N  3.10 -0.82  5.28
 N  2.02 -2.63  6.24
 H -2.53 -1.48  3.25
 H -2.67 -0.70  4.81
 H -1.70 -2.92  4.88
 H -0.69 -1.75  5.67
 H -0.04 -2.62  2.81
 H  0.39 -3.62  4.19
 H  1.48 -0.97  3.47
 H  3.80 -1.01  5.99
 H  3.49 -0.54  4.38
 H  1.24 -3.28  6.12
 N  0.03  0.95  5.31
 C  0.90  1.84  6.06
 H  0.17 -0.04  5.44
 H  1.15  1.37  7.02
 H  0.39  2.79  6.24
 H  1.83  2.05  5.51
