35
#
 C -1.78  1.06  0.77
 C -1.33  0.47  2.09
 O -0.74  1.14  2.94
 H -0.91  1.47  0.24
 H -2.46  1.91  0.97
 H -2.30  0.35  0.12
 N -1.63 -0.85  2.28
 C -1.27 -1.55  3.51
 C  0.15 -2.15  3.39
 O  0.36 -3.34  3.18
 H -2.02 -1.38  1.52
 H -1.24 -0.77  4.29
 C -2.31 -2.62  3.87
 C -3.74 -2.10  3.98
 C -3.92 -0.98  5.01
 N -5.32 -0.57  5.08
 C -5.78  0.44  5.92
 N -4.84  1.42  6.21
 N -6.96  0.53  6.44
 H -1.99 -3.08  4.82
 H -2.25 -3.43  3.13
 H -4.39 -2.94  4.26
 H -4.11 -1.74  3.01
 H -3.32 -0.11  4.70
 H -3.53 -1.30  5.99
 H -5.97 -1.35  5.03
 H -5.28  2.22  6.66
 H -4.21  1.69  5.46
 H -7.51 -0.31  6.26
 N  1.13 -1.20  3.53
 C  2.53 -1.50  3.35
 H  0.82 -0.23  3.60
 H  2.92 -1.07  2.41
 H  2.65 -2.58  3.31
 H  3.13 -1.10  4.18
