35
#
 C  0.50  1.35  0.30
 C  1.22  1.28  1.63
 O  2.29  1.87  1.83
 H  0.05  2.35  0.21
 H -0.30  0.60  0.20
 H  1.22  1.23 -0.51
 N  0.59  0.58  2.61
 C  1.15  0.34  3.92
 C  0.84 -1.12  4.27
 O -0.20 -1.66  3.88
 H -0.24  0.02  2.40
 H  2.24  0.50  3.83
 C  0.60  1.26  5.05
 C  1.23  2.66  5.19
 C  0.46  3.83  4.59
 N  0.53  3.82  3.14
 C -0.11  4.71  2.30
 N -1.22  5.36  2.85
 N  0.23  4.98  1.08
 H  0.74  0.72  5.99
 H -0.49  1.34  4.91
 H  2.26  2.65  4.79
 H  1.34  2.87  6.27
 H  0.87  4.78  5.00
 H -0.58  3.77  4.93
 H  1.38  3.42  2.75
 H -1.74  5.85  2.14
 H -1.81  4.80  3.45
 H  1.13  4.56  0.85
 N  1.76 -1.74  5.06
 C  1.60 -3.09  5.55
 H  2.61 -1.23  5.29
 H  0.65 -3.47  5.17
 H  1.58 -3.12  6.65
 H  2.41 -3.74  5.19
