35
#
 C -0.12 -0.61 -0.28
 C -0.30 -0.45  1.23
 O  0.62 -0.66  2.02
 H  0.52 -1.47 -0.47
 H  0.39  0.28 -0.66
 H -1.07 -0.72 -0.82
 N -1.56 -0.06  1.60
 C -2.00  0.27  2.94
 C -1.60  1.71  3.32
 O -0.65  2.29  2.82
 H -2.29 -0.02  0.89
 H -3.10  0.26  2.87
 C -1.58 -0.73  4.03
 C -1.88 -2.21  3.75
 C -3.34 -2.59  3.45
 N -3.74 -2.31  2.06
 C -4.61 -1.32  1.68
 N -5.68 -1.11  2.55
 N -4.36 -0.64  0.60
 H -2.09 -0.45  4.97
 H -0.50 -0.63  4.20
 H -1.56 -2.79  4.63
 H -1.24 -2.56  2.92
 H -4.02 -2.06  4.12
 H -3.47 -3.67  3.64
 H -2.98 -2.39  1.39
 H -6.40 -0.50  2.18
 H -6.07 -1.95  2.98
 H -5.15 -0.05  0.32
 N -2.38  2.33  4.27
 C -3.56  1.84  4.97
 H -2.03  3.25  4.52
 H -4.18  2.70  5.25
 H -3.31  1.28  5.88
 H -4.16  1.20  4.32
