35
#
 C -1.37  0.21  1.32
 C -1.53  0.99  2.62
 O -0.56  1.23  3.34
 H -1.23 -0.85  1.58
 H -0.45  0.57  0.84
 H -2.19  0.29  0.62
 N -2.79  1.37  3.04
 C -4.05  1.56  2.33
 C -4.46  0.39  1.40
 O -4.73  0.57  0.22
 H -2.72  1.86  3.93
 H -4.82  1.57  3.12
 C -4.13  2.94  1.62
 C -3.02  3.20  0.60
 C -2.48  4.64  0.60
 N -1.10  4.75  0.10
 C -0.11  3.96  0.70
 N -0.02  4.07  2.08
 N  0.67  3.27 -0.06
 H -4.08  3.69  2.42
 H -5.13  3.03  1.16
 H -3.35  2.91 -0.41
 H -2.16  2.56  0.82
 H -2.52  5.05  1.62
 H -3.10  5.31 -0.01
 H -1.03  4.63 -0.91
 H -0.74  4.61  2.54
 H  0.22  3.22  2.58
 H  1.45  2.88  0.49
 N -4.55 -0.84  1.97
 C -4.30 -1.25  3.34
 H -4.81 -1.56  1.30
 H -4.83 -2.20  3.52
 H -4.69 -0.52  4.06
 H -3.24 -1.41  3.56
