35
#
 C  0.13 -0.08 -0.34
 C -0.24  0.50  1.01
 O -0.12  1.69  1.27
 H -0.03 -1.17 -0.42
 H  1.19  0.14 -0.55
 H -0.46  0.42 -1.12
 N -0.72 -0.40  1.92
 C -1.07 -0.02  3.27
 C -1.01 -1.29  4.12
 O -1.18 -2.41  3.62
 H -0.76 -1.40  1.72
 H -0.33  0.72  3.62
 C -2.48  0.63  3.36
 C -3.62 -0.28  2.89
 C -4.80 -0.38  3.88
 N -4.40 -0.69  5.26
 C -4.29 -1.96  5.80
 N -4.03 -2.97  4.89
 N -4.42 -2.26  7.06
 H -2.44  1.56  2.77
 H -2.64  0.92  4.41
 H -3.25 -1.30  2.69
 H -4.03  0.07  1.93
 H -5.52 -1.12  3.52
 H -5.32  0.59  3.92
 H -4.67  0.00  5.95
 H -3.90 -3.86  5.37
 H -3.27 -2.80  4.23
 H -4.78 -1.47  7.60
 N -0.80 -1.10  5.45
 C -0.84 -2.17  6.43
 H -0.71 -0.15  5.78
 H -0.72 -3.12  5.90
 H -1.80 -2.20  6.97
 H -0.02 -2.05  7.15
