35
#
 C -0.04  0.07  0.05
 C  0.02  0.07  1.57
 O  1.08  0.21  2.17
 H  0.92 -0.29 -0.32
 H -0.17  1.10 -0.30
 H -0.85 -0.54 -0.36
 N -1.15 -0.11  2.28
 C -2.55 -0.11  1.82
 C -2.98 -1.41  1.09
 O -4.02 -1.45  0.44
 H -0.99 -0.01  3.28
 H -3.14 -0.14  2.76
 C -2.99  1.14  1.06
 C -2.84  2.43  1.87
 C -3.20  3.69  1.07
 N -4.57  3.68  0.56
 C -4.82  3.49 -0.79
 N -6.19  3.63 -1.09
 N -3.86  3.24 -1.61
 H -4.04  0.99  0.77
 H -2.44  1.23  0.11
 H -1.80  2.54  2.22
 H -3.47  2.37  2.78
 H -2.53  3.79  0.21
 H -3.07  4.58  1.71
 H -5.24  4.25  1.05
 H -6.42  3.32 -2.03
 H -6.81  3.22 -0.40
 H -4.23  3.03 -2.55
 N -2.15 -2.47  1.27
 C -2.41 -3.78  0.69
 H -1.31 -2.31  1.81
 H -3.36 -3.71  0.14
 H -2.50 -4.54  1.47
 H -1.61 -4.07 -0.00
