35
#
 C -2.17  1.32  0.26
 C -2.55  0.61  1.54
 O -3.70  0.64  1.99
 H -1.12  1.17 -0.04
 H -2.35  2.40  0.39
 H -2.82  0.97 -0.55
 N -1.54 -0.08  2.15
 C -1.72 -0.75  3.44
 C -1.13  0.15  4.54
 O  0.09  0.31  4.62
 H -0.59  0.05  1.83
 H -2.80 -0.87  3.55
 C -1.04 -2.12  3.45
 C -1.29 -2.89  4.75
 C -0.63 -4.27  4.73
 N -0.88 -4.97  5.98
 C -0.48 -6.29  6.15
 N -0.67 -6.74  7.46
 N  0.03 -7.09  5.27
 H  0.04 -1.98  3.30
 H -1.42 -2.69  2.59
 H -2.37 -3.01  4.92
 H -0.89 -2.31  5.60
 H  0.45 -4.16  4.53
 H -1.06 -4.87  3.92
 H -0.77 -4.40  6.82
 H -0.49 -7.74  7.53
 H -1.57 -6.48  7.87
 H  0.25 -6.60  4.40
 N -2.00  0.77  5.39
 C -3.45  0.71  5.40
 H -1.53  1.35  6.08
 H -3.83  1.57  5.97
 H -3.82 -0.21  5.89
 H -3.86  0.77  4.38
