35
#
 C  0.62  1.57  0.61
 C  0.47  1.38  2.10
 O  1.41  1.65  2.87
 H  0.94  2.60  0.41
 H -0.30  1.37  0.03
 H  1.41  0.90  0.25
 N -0.73  0.90  2.51
 C -1.22  0.52  3.86
 C -1.20  1.60  4.97
 O -2.11  1.59  5.80
 H -1.42  0.76  1.78
 H -2.30  0.38  3.71
 C -0.70 -0.83  4.40
 C  0.80 -0.94  4.73
 C  1.65 -1.51  3.58
 N  3.09 -1.40  3.76
 C  3.80 -2.08  4.74
 N  3.37 -3.38  5.00
 N  4.84 -1.51  5.25
 H -0.98 -1.61  3.68
 H -1.29 -1.02  5.30
 H  0.93 -1.58  5.61
 H  1.21  0.04  5.01
 H  1.41 -0.98  2.64
 H  1.37 -2.56  3.39
 H  3.45 -0.46  3.65
 H  3.63 -3.73  5.91
 H  2.41 -3.62  4.75
 H  5.36 -2.15  5.86
 N -0.17  2.47  4.99
 C -0.05  3.47  6.04
 H  0.60  2.32  4.32
 H  0.70  4.21  5.73
 H  0.26  3.03  6.99
 H -1.01  3.97  6.20
