35
#
 C  0.74 -3.83  3.17
 C -0.06 -2.79  2.42
 O  0.45 -2.04  1.58
 H  0.22 -4.20  4.06
 H  1.71 -3.40  3.46
 H  0.95 -4.68  2.50
 N -1.39 -2.77  2.72
 C -2.29 -1.78  2.12
 C -2.25 -0.48  2.96
 O -3.16 -0.13  3.72
 H -1.68 -3.21  3.60
 H -1.83 -1.53  1.15
 C -3.71 -2.32  1.84
 C -4.31 -3.34  2.82
 C -4.80 -2.81  4.18
 N -4.61 -3.76  5.28
 C -3.32 -4.05  5.69
 N -3.14 -5.33  6.20
 N -2.29 -3.26  5.61
 H -3.68 -2.80  0.85
 H -4.38 -1.46  1.74
 H -3.56 -4.13  3.00
 H -5.14 -3.85  2.31
 H -5.87 -2.56  4.14
 H -4.29 -1.87  4.43
 H -5.22 -4.58  5.21
 H -3.96 -5.76  6.62
 H -2.31 -5.40  6.78
 H -2.57 -2.33  5.28
 N -1.10  0.22  2.77
 C -0.77  1.40  3.54
 H -0.39 -0.22  2.19
 H -0.39  2.20  2.89
 H -0.01  1.18  4.31
 H -1.68  1.75  4.05
