35
#
 C  1.12  0.79  0.46
 C  0.01  0.75  1.50
 O -0.45  1.77  2.01
 H  1.99  1.29  0.91
 H  0.79  1.41 -0.38
 H  1.42 -0.20  0.10
 N -0.45 -0.50  1.80
 C -1.40 -0.75  2.87
 C -1.29 -2.25  3.20
 O -0.35 -2.93  2.75
 H  0.08 -1.33  1.54
 H -1.09 -0.19  3.76
 C -2.84 -0.30  2.53
 C -3.47 -1.04  1.34
 C -5.00 -1.20  1.47
 N -5.46 -2.47  2.04
 C -5.61 -2.73  3.37
 N -6.25 -3.96  3.60
 N -5.15 -1.94  4.28
 H -2.80  0.78  2.34
 H -3.46 -0.43  3.42
 H -3.03 -2.04  1.21
 H -3.25 -0.49  0.41
 H -5.47 -1.13  0.47
 H -5.42 -0.39  2.08
 H -5.49 -3.27  1.42
 H -6.43 -4.16  4.58
 H -7.05 -4.17  3.00
 H -5.50 -2.20  5.21
 N -2.25 -2.75  4.01
 C -2.30 -4.15  4.37
 H -3.09 -2.20  4.20
 H -2.26 -4.28  5.46
 H -1.43 -4.66  3.93
 H -3.22 -4.63  4.00
