35
#
 C -0.36  0.58  0.05
 C -0.62  0.09  1.46
 O  0.21 -0.59  2.08
 H -0.07 -0.28 -0.57
 H  0.49  1.27  0.08
 H -1.22  1.09 -0.40
 N -1.79  0.49  2.02
 C -2.19  0.12  3.36
 C -3.70  0.42  3.44
 O -4.23  1.20  2.65
 H -2.48  1.04  1.51
 H -2.01 -0.96  3.49
 C -1.41  0.86  4.48
 C -1.33  2.39  4.33
 C -0.06  2.89  3.63
 N  1.14  2.56  4.39
 C  2.38  2.27  3.81
 N  2.31  1.53  2.63
 N  3.53  2.61  4.28
 H -0.39  0.45  4.51
 H -1.87  0.61  5.44
 H -1.38  2.86  5.32
 H -2.21  2.78  3.78
 H -0.14  3.98  3.47
 H  0.04  2.44  2.63
 H  1.26  3.11  5.23
 H  1.65  0.75  2.60
 H  3.24  1.26  2.33
 H  3.43  3.27  5.06
 N -4.42 -0.18  4.43
 C -3.99 -1.13  5.43
 H -5.39  0.13  4.45
 H -4.82 -1.81  5.66
 H -3.67 -0.65  6.37
 H -3.16 -1.74  5.06
