35
#
 C -1.05 -1.48  0.27
 C -1.65 -0.09  0.26
 O -1.87  0.53 -0.79
 H -0.13 -1.52  0.86
 H -0.84 -1.77 -0.76
 H -1.76 -2.20  0.71
 N -1.96  0.46  1.47
 C -1.53 -0.01  2.78
 C -2.37 -1.21  3.26
 O -3.58 -1.27  3.08
 H -2.45  1.34  1.41
 H -0.47 -0.31  2.70
 C -1.65  1.10  3.83
 C -0.97  2.45  3.54
 C  0.55  2.43  3.27
 N  0.92  2.15  1.90
 C  1.42  0.96  1.41
 N  1.44  0.92  0.02
 N  1.88 -0.05  2.08
 H -1.25  0.70  4.78
 H -2.72  1.28  4.01
 H -1.14  3.09  4.41
 H -1.46  2.96  2.70
 H  1.05  1.70  3.92
 H  0.97  3.41  3.55
 H  0.74  2.87  1.21
 H  1.79  0.03 -0.32
 H  0.58  1.20 -0.45
 H  1.98  0.18  3.07
 N -1.69 -2.19  3.93
 C -0.27 -2.27  4.24
 H -2.30 -2.92  4.29
 H -0.06 -3.28  4.60
 H  0.03 -1.56  5.02
 H  0.35 -2.10  3.35
