35
#
 C -0.49 -0.73 -0.17
 C -0.39 -0.42  1.30
 O  0.58  0.18  1.78
 H -0.49  0.22 -0.73
 H -1.38 -1.30 -0.44
 H  0.41 -1.29 -0.48
 N -1.44 -0.82  2.06
 C -1.55 -0.60  3.49
 C -2.81 -1.35  3.95
 O -3.65 -1.75  3.14
 H -2.25 -1.29  1.65
 H -0.67 -1.05  3.98
 C -1.57  0.89  3.92
 C -2.80  1.73  3.52
 C -3.08  1.89  2.03
 N -1.94  2.41  1.30
 C -2.04  2.68 -0.06
 N -0.80  2.90 -0.66
 N -3.11  2.72 -0.78
 H -0.64  1.34  3.54
 H -1.48  0.92  5.02
 H -2.67  2.73  3.96
 H -3.70  1.30  3.98
 H -3.92  2.59  1.92
 H -3.43  0.92  1.60
 H -1.04  2.02  1.57
 H -0.91  3.31 -1.59
 H -0.12  3.39 -0.09
 H -3.93  2.42 -0.26
 N -2.94 -1.50  5.29
 C -4.09 -2.14  5.91
 H -2.19 -1.17  5.88
 H -4.59 -1.45  6.60
 H -3.79 -3.04  6.46
 H -4.78 -2.41  5.11
