35
#
 C  1.03  0.79  0.79
 C  1.00 -0.06  2.06
 O  2.04 -0.47  2.57
 H  2.07  0.94  0.52
 H  0.54  1.77  0.94
 H  0.51  0.28 -0.03
 N -0.22 -0.36  2.59
 C -1.55  0.10  2.20
 C -2.15  0.81  3.43
 O -2.44  0.16  4.43
 H -0.17 -0.89  3.46
 H -1.44  0.78  1.36
 C -2.47 -1.08  1.82
 C -2.03 -1.90  0.60
 C -2.60 -1.46 -0.76
 N -2.15 -0.17 -1.28
 C -2.63  1.08 -0.94
 N -3.92  1.11 -0.44
 N -1.98  2.20 -1.01
 H -3.48 -0.69  1.68
 H -2.52 -1.73  2.71
 H -2.34 -2.94  0.74
 H -0.93 -1.93  0.54
 H -3.70 -1.44 -0.70
 H -2.35 -2.22 -1.51
 H -1.18 -0.16 -1.59
 H -4.28  2.06 -0.41
 H -4.58  0.45 -0.86
 H -1.00  2.05 -1.29
 N -2.34  2.16  3.37
 C -1.89  3.12  2.37
 H -2.67  2.54  4.26
 H -2.47  4.04  2.48
 H -2.04  2.76  1.35
 H -0.82  3.38  2.50
