35
#
 C -0.67  2.21 -0.16
 C -0.34  1.64  1.20
 O  0.64  2.01  1.84
 H  0.26  2.56 -0.62
 H -1.34  3.07 -0.04
 H -1.17  1.50 -0.84
 N -1.17  0.66  1.72
 C -2.48  0.20  1.24
 C -2.39 -0.63 -0.07
 O -3.33 -0.71 -0.85
 H -0.93  0.43  2.68
 H -2.80 -0.53  2.00
 C -3.56  1.30  1.15
 C -4.99  0.80  1.42
 C -5.26  0.47  2.88
 N -6.62 -0.03  3.05
 C -7.10 -0.38  4.31
 N -8.36 -0.98  4.24
 N -6.53 -0.21  5.45
 H -3.54  1.75  0.15
 H -3.30  2.08  1.87
 H -5.19 -0.07  0.78
 H -5.70  1.58  1.10
 H -5.15  1.38  3.49
 H -4.52 -0.26  3.26
 H -6.95 -0.62  2.30
 H -8.75 -1.10  5.17
 H -9.01 -0.53  3.61
 H -5.57  0.11  5.35
 N -1.21 -1.30 -0.23
 C -0.95 -2.16 -1.37
 H -0.47 -1.11  0.44
 H -1.87 -2.22 -1.96
 H -0.66 -3.16 -1.05
 H -0.15 -1.75 -2.00
