35
#
 C -0.56 -0.54 -0.77
 C -0.62 -0.87  0.71
 O -0.26 -1.96  1.16
 H  0.47 -0.67 -1.11
 H -0.89  0.47 -1.01
 H -1.18 -1.26 -1.31
 N -1.08  0.14  1.52
 C -1.26 -0.03  2.95
 C -2.76 -0.29  3.22
 O -3.59  0.61  3.06
 H -1.49  0.96  1.09
 H -0.65 -0.90  3.22
 C -0.79  1.20  3.73
 C -0.86  1.00  5.24
 C -0.32  2.20  6.04
 N  1.08  2.51  5.77
 C  2.12  2.20  6.62
 N  1.90  1.06  7.40
 N  3.15  2.97  6.66
 H -1.41  2.06  3.44
 H  0.25  1.41  3.43
 H -1.91  0.83  5.55
 H -0.30  0.09  5.52
 H -0.46  2.03  7.11
 H -0.92  3.09  5.78
 H  1.27  3.39  5.29
 H  2.72  0.75  7.91
 H  1.42  0.29  6.94
 H  3.91  2.57  7.22
 N -3.13 -1.54  3.61
 C -2.28 -2.71  3.81
 H -4.13 -1.64  3.77
 H -2.92 -3.61  3.78
 H -1.77 -2.69  4.78
 H -1.54 -2.81  3.01
