35
#
 C  0.02 -1.39 -0.22
 C  0.05 -0.44  0.96
 O  1.09  0.07  1.38
 H -0.95 -1.87 -0.38
 H  0.78 -2.17 -0.07
 H  0.30 -0.83 -1.12
 N -1.17 -0.20  1.56
 C -1.34  0.86  2.54
 C -1.68  0.38  3.96
 O -1.88  1.20  4.87
 H -2.00 -0.49  1.05
 H -0.33  1.29  2.65
 C -2.33  1.94  2.06
 C -1.72  2.98  1.12
 C -0.52  3.75  1.72
 N -0.63  4.08  3.13
 C -1.72  4.76  3.66
 N -1.99  4.40  4.98
 N -2.43  5.67  3.07
 H -2.74  2.44  2.94
 H -3.18  1.45  1.57
 H -2.52  3.69  0.85
 H -1.39  2.51  0.17
 H -0.35  4.66  1.13
 H  0.40  3.15  1.62
 H -0.21  3.41  3.77
 H -2.81  4.88  5.33
 H -1.98  3.40  5.16
 H -2.01  5.92  2.16
 N -1.71 -0.96  4.14
 C -1.92 -1.58  5.44
 H -1.46 -1.53  3.34
 H -1.00 -2.06  5.80
 H -2.72 -2.33  5.39
 H -2.20 -0.79  6.15
