35
#
 C -0.57  1.15  1.77
 C -1.23  0.15  2.70
 O -0.64 -0.31  3.67
 H  0.51  0.94  1.77
 H -0.71  2.16  2.17
 H -0.95  1.13  0.75
 N -2.53 -0.24  2.44
 C -3.50  0.31  1.49
 C -3.19 -0.02  0.00
 O -3.67  0.65 -0.91
 H -2.90 -0.83  3.18
 H -4.43 -0.24  1.70
 C -3.82  1.81  1.66
 C -4.28  2.16  3.08
 C -4.63  3.64  3.23
 N -5.02  3.94  4.59
 C -5.66  5.09  5.01
 N -6.12  5.92  3.98
 N -5.94  5.41  6.23
 H -4.60  2.05  0.93
 H -2.95  2.42  1.38
 H -3.49  1.90  3.80
 H -5.16  1.55  3.36
 H -5.48  3.88  2.57
 H -3.77  4.25  2.89
 H -4.48  3.48  5.32
 H -6.50  6.78  4.36
 H -5.47  6.08  3.21
 H -5.68  4.67  6.88
 N -2.42 -1.12 -0.18
 C -2.06 -1.62 -1.50
 H -2.05 -1.57  0.65
 H -2.39 -2.66 -1.63
 H -0.97 -1.57 -1.66
 H -2.56 -0.99 -2.24
