35
#
 C -2.82  0.52 -0.19
 C -2.04  0.70  1.09
 O -0.98  1.30  1.14
 H -3.00  1.51 -0.63
 H -3.79  0.01 -0.07
 H -2.21 -0.04 -0.90
 N -2.62  0.14  2.21
 C -1.90  0.06  3.49
 C -2.53 -1.01  4.39
 O -1.84 -1.82  5.00
 H -3.37 -0.53  2.06
 H -0.87 -0.27  3.30
 C -1.83  1.44  4.19
 C -1.03  1.44  5.50
 C -1.86  1.11  6.76
 N -1.11  1.02  7.99
 C -0.23 -0.01  8.31
 N -0.54 -1.26  7.76
 N  0.72  0.24  9.15
 H -2.86  1.81  4.36
 H -1.37  2.12  3.47
 H -0.57  2.43  5.64
 H -0.19  0.73  5.43
 H -2.43  0.18  6.63
 H -2.62  1.90  6.90
 H -0.76  1.89  8.37
 H -1.03 -1.32  6.87
 H  0.21 -1.93  7.83
 H  1.24 -0.60  9.38
 N -3.89 -0.98  4.48
 C -4.61 -1.85  5.40
 H -4.38 -0.18  4.10
 H -4.08 -2.81  5.46
 H -5.63 -2.03  5.02
 H -4.67 -1.43  6.41
