35
#
 C -0.46 -0.49  0.11
 C -0.33  0.04  1.53
 O  0.73  0.42  2.00
 H  0.26 -1.31 -0.02
 H -0.18  0.31 -0.59
 H -1.47 -0.85 -0.14
 N -1.49  0.05  2.26
 C -1.57  0.62  3.60
 C -0.90 -0.15  4.76
 O -0.65  0.48  5.79
 H -2.35 -0.26  1.82
 H -0.99  1.56  3.59
 C -3.02  0.94  3.97
 C -3.92 -0.28  4.18
 C -5.40  0.08  4.43
 N -5.67  1.01  5.51
 C -5.30  0.80  6.84
 N -5.43 -0.52  7.29
 N -4.96  1.82  7.54
 H -3.44  1.59  3.18
 H -3.00  1.54  4.89
 H -3.53 -0.86  5.03
 H -3.90 -0.96  3.31
 H -5.98 -0.85  4.58
 H -5.82  0.53  3.52
 H -5.56  1.99  5.29
 H -4.84 -0.75  8.08
 H -5.49 -1.26  6.60
 H -4.82  1.58  8.53
 N -0.64 -1.49  4.71
 C -0.79 -2.48  3.65
 H -0.16 -1.80  5.54
 H -1.80 -2.47  3.22
 H -0.64 -3.47  4.09
 H -0.06 -2.35  2.84
