35
#
 C -0.43  0.67  0.95
 C -0.13 -0.75  0.50
 O  0.88 -1.05 -0.13
 H -0.54  0.73  2.04
 H -1.36  1.03  0.51
 H  0.40  1.31  0.64
 N -1.05 -1.71  0.86
 C -2.38 -1.49  1.43
 C -2.40 -1.45  2.96
 O -3.39 -1.03  3.57
 H -0.86 -2.62  0.43
 H -2.75 -0.52  1.07
 C -3.34 -2.57  0.87
 C -4.82 -2.36  1.19
 C -5.45 -1.09  0.61
 N -5.44 -1.01 -0.84
 C -4.50 -0.30 -1.56
 N -4.66 -0.46 -2.94
 N -3.57  0.39 -0.97
 H -3.02 -3.56  1.25
 H -3.19 -2.58 -0.22
 H -4.98 -2.34  2.28
 H -5.37 -3.24  0.81
 H -4.93 -0.19  0.98
 H -6.49 -1.02  0.96
 H -5.88 -1.77 -1.34
 H -4.08  0.16 -3.49
 H -5.62 -0.45 -3.27
 H -3.04  0.93 -1.65
 N -1.27 -1.90  3.58
 C -1.11 -1.91  5.02
 H -0.50 -2.16  2.97
 H -2.04 -1.54  5.46
 H -0.28 -1.26  5.33
 H -0.92 -2.93  5.38
