35
#
 C  0.65 -1.33  1.60
 C  0.19  0.08  1.89
 O  0.81  1.07  1.51
 H  1.63 -1.49  2.07
 H  0.79 -1.44  0.52
 H -0.04 -2.11  1.95
 N -0.97  0.18  2.62
 C -1.47  1.48  3.10
 C -2.25  1.27  4.41
 O -1.82  1.73  5.47
 H -1.37 -0.66  3.01
 H -0.59  2.06  3.41
 C -2.22  2.26  2.01
 C -2.97  3.48  2.55
 C -3.90  4.09  1.49
 N -4.89  5.02  2.03
 C -6.01  4.53  2.67
 N -6.87  5.53  3.14
 N -6.24  3.26  2.73
 H -2.93  1.60  1.50
 H -1.48  2.56  1.26
 H -2.27  4.23  2.94
 H -3.61  3.18  3.40
 H -4.46  3.29  0.99
 H -3.32  4.63  0.72
 H -4.55  5.92  2.33
 H -7.40  5.28  3.96
 H -6.50  6.48  3.18
 H -7.17  3.08  3.11
 N -3.40  0.51  4.40
 C -4.27  0.15  3.29
 H -3.83  0.49  5.33
 H -4.89  0.99  2.95
 H -4.92 -0.67  3.62
 H -3.69 -0.23  2.44
