35
#
 C -0.57 -0.67  0.45
 C -0.59 -0.41  1.94
 O  0.35 -0.72  2.66
 H -0.34  0.27 -0.09
 H -1.52 -1.06  0.06
 H  0.23 -1.38  0.25
 N -1.69  0.23  2.48
 C -2.96  0.56  1.86
 C -3.67 -0.73  1.34
 O -3.66 -1.75  2.01
 H -1.66  0.23  3.50
 H -3.61  0.87  2.69
 C -2.90  1.76  0.89
 C -2.28  3.03  1.50
 C -0.76  3.16  1.28
 N -0.18  4.35  1.89
 C  0.08  4.40  3.26
 N  0.35  5.70  3.70
 N  0.07  3.44  4.12
 H -3.94  2.00  0.60
 H -2.37  1.50 -0.04
 H -2.49  3.07  2.58
 H -2.76  3.91  1.06
 H -0.54  3.19  0.20
 H -0.23  2.29  1.68
 H -0.50  5.23  1.50
 H  0.69  5.69  4.65
 H  0.98  6.22  3.09
 H -0.23  2.55  3.71
 N -4.32 -0.62  0.14
 C -5.06 -1.73 -0.44
 H -4.25  0.24 -0.38
 H -6.11 -1.45 -0.61
 H -5.03 -2.56  0.27
 H -4.62 -2.05 -1.39
