35
#
 C  0.02 -0.03  0.48
 C -0.27  0.03  1.97
 O  0.63  0.12  2.80
 H  0.93  0.55  0.31
 H -0.78  0.34 -0.16
 H  0.23 -1.07  0.20
 N -1.58 -0.08  2.41
 C -2.86 -0.11  1.70
 C -2.85 -0.99  0.43
 O -3.22 -0.56 -0.67
 H -1.63 -0.01  3.42
 H -3.54 -0.64  2.39
 C -3.48  1.28  1.46
 C -2.64  2.29  0.69
 C -3.39  3.63  0.54
 N -2.62  4.67 -0.12
 C -1.69  5.41  0.59
 N -0.97  6.32 -0.20
 N -1.60  5.29  1.87
 H -3.72  1.69  2.45
 H -4.44  1.12  0.95
 H -2.40  1.90 -0.30
 H -1.70  2.49  1.23
 H -3.66  4.02  1.53
 H -4.32  3.48 -0.04
 H -2.43  4.53 -1.11
 H -0.06  6.56  0.16
 H -0.95  6.15 -1.20
 H -0.95  5.97  2.26
 N -2.47 -2.29  0.57
 C -2.06 -3.01  1.77
 H -2.49 -2.81 -0.30
 H -2.21 -4.08  1.60
 H -2.68 -2.73  2.63
 H -1.01 -2.84  2.03
