35
#
 C -1.72  1.16 -0.63
 C -0.55  0.52  0.09
 O  0.62  0.81 -0.20
 H -2.19  0.45 -1.33
 H -1.34  2.01 -1.21
 H -2.50  1.51  0.06
 N -0.83 -0.38  1.07
 C -2.07 -1.09  1.29
 C -2.03 -1.62  2.74
 O -0.96 -1.87  3.29
 H -0.01 -0.81  1.52
 H -2.91 -0.39  1.18
 C -2.28 -2.28  0.31
 C -1.06 -3.20  0.15
 C -0.14 -2.78 -1.02
 N  1.19 -3.38 -1.00
 C  2.12 -3.12  0.01
 N  2.06 -1.84  0.54
 N  2.91 -4.08  0.36
 H -2.58 -1.88 -0.67
 H -3.15 -2.87  0.66
 H -1.39 -4.23 -0.01
 H -0.47 -3.21  1.08
 H -0.03 -1.69 -1.05
 H -0.61 -3.06 -1.97
 H  1.23 -4.37 -1.24
 H  2.84 -1.60  1.14
 H  1.77 -1.05 -0.05
 H  3.62 -3.74  1.01
 N -3.23 -1.84  3.36
 C -4.56 -1.47  2.90
 H -3.13 -2.21  4.30
 H -4.83 -1.99  1.97
 H -4.66 -0.39  2.74
 H -5.28 -1.77  3.66
