35
#
 C  0.87  1.56  0.61
 C  0.10  1.57  1.91
 O  0.24  2.49  2.73
 H  1.94  1.48  0.84
 H  0.73  2.52  0.10
 H  0.60  0.75 -0.07
 N -0.72  0.51  2.12
 C -1.55  0.24  3.31
 C -2.81  1.13  3.40
 O -3.92  0.62  3.52
 H -0.82 -0.15  1.36
 H -1.96 -0.77  3.14
 C -0.80  0.22  4.66
 C  0.35 -0.79  4.80
 C  1.70 -0.38  4.18
 N  2.20  0.94  4.58
 C  2.51  1.26  5.90
 N  3.05  0.21  6.64
 N  2.35  2.41  6.47
 H -1.57 -0.02  5.40
 H -0.45  1.23  4.91
 H  0.05 -1.76  4.38
 H  0.51 -0.95  5.87
 H  1.65 -0.38  3.09
 H  2.44 -1.15  4.45
 H  1.73  1.70  4.10
 H  3.41  0.55  7.53
 H  3.72 -0.37  6.15
 H  1.83  3.05  5.86
 N -2.58  2.47  3.39
 C -3.64  3.45  3.51
 H -1.60  2.77  3.31
 H -3.53  4.04  4.43
 H -4.59  2.92  3.54
 H -3.63  4.14  2.65
