35
#
 C -1.03  1.97  0.80
 C -0.62  1.04  1.93
 O  0.30  1.30  2.69
 H -0.37  2.84  0.83
 H -2.07  2.31  0.91
 H -0.94  1.48 -0.18
 N -1.34 -0.13  2.07
 C -2.37 -0.66  1.18
 C -3.40 -1.35  2.10
 O -3.31 -2.55  2.38
 H -0.98 -0.75  2.79
 H -2.84  0.19  0.68
 C -1.81 -1.61  0.11
 C -2.73 -1.80 -1.11
 C -4.05 -2.51 -0.82
 N -4.82 -2.67 -2.05
 C -6.16 -3.04 -2.10
 N -6.80 -3.06 -0.86
 N -6.84 -3.27 -3.17
 H -1.59 -2.58  0.59
 H -0.86 -1.20 -0.23
 H -2.17 -2.38 -1.86
 H -2.95 -0.82 -1.57
 H -4.66 -1.92 -0.12
 H -3.84 -3.48 -0.32
 H -4.29 -2.90 -2.88
 H -7.74 -3.42 -0.96
 H -6.30 -3.49 -0.09
 H -6.29 -3.09 -4.01
 N -4.39 -0.57  2.62
 C -4.54  0.87  2.48
 H -4.99 -1.05  3.28
 H -3.68  1.42  2.89
 H -5.43  1.18  3.04
 H -4.70  1.17  1.43
