35
#
 C -0.16  0.27  2.68
 C -0.14 -1.24  2.60
 O  0.80 -1.92  3.02
 H -0.06  0.72  1.68
 H  0.69  0.59  3.29
 H -1.09  0.65  3.12
 N -1.24 -1.86  2.03
 C -2.36 -1.24  1.34
 C -3.63 -1.08  2.21
 O -4.65 -0.58  1.73
 H -1.12 -2.86  1.92
 H -2.09 -0.21  1.07
 C -2.71 -2.00  0.04
 C -1.82 -1.67 -1.17
 C -0.33 -2.00 -1.01
 N  0.37 -1.76 -2.25
 C  1.77 -1.79 -2.31
 N  2.24 -1.67 -3.62
 N  2.60 -1.91 -1.33
 H -3.74 -1.74 -0.21
 H -2.69 -3.08  0.24
 H -1.92 -0.60 -1.42
 H -2.21 -2.23 -2.03
 H -0.21 -3.05 -0.66
 H  0.13 -1.36 -0.24
 H -0.08 -2.13 -3.09
 H  3.26 -1.57 -3.62
 H  1.79 -0.95 -4.17
 H  2.14 -2.13 -0.45
 N -3.52 -1.51  3.49
 C -4.59 -1.41  4.46
 H -2.62 -1.91  3.76
 H -4.31 -0.78  5.31
 H -4.88 -2.40  4.84
 H -5.45 -0.96  3.95
