35
#
 C -0.35 -0.25 -0.11
 C -0.24 -0.29  1.40
 O  0.80 -0.61  1.98
 H  0.31 -1.02 -0.54
 H  0.01  0.73 -0.45
 H -1.37 -0.39 -0.48
 N -1.37  0.10  2.06
 C -1.49  0.11  3.52
 C -2.93  0.34  3.98
 O -3.37 -0.20  4.99
 H -2.23  0.13  1.53
 H -1.21 -0.88  3.91
 C -0.54  1.14  4.18
 C -0.77  2.61  3.80
 C  0.49  3.50  3.93
 N  1.27  3.68  2.70
 C  1.81  2.61  1.99
 N  2.62  1.74  2.72
 N  1.60  2.54  0.72
 H  0.48  0.83  3.90
 H -0.62  1.01  5.27
 H -1.58  3.03  4.41
 H -1.09  2.68  2.75
 H  1.15  3.10  4.73
 H  0.21  4.51  4.26
 H  0.80  4.29  2.03
 H  2.49  0.76  2.47
 H  2.66  1.89  3.72
 H  2.21  1.83  0.30
 N -3.69  1.17  3.19
 C -5.04  1.55  3.59
 H -3.21  1.76  2.53
 H -5.61  1.85  2.71
 H -5.04  2.38  4.32
 H -5.52  0.69  4.06
