35
#
 C  0.44  1.46  0.41
 C  0.22  0.89  1.79
 O  1.15  0.75  2.59
 H  0.86  2.47  0.50
 H -0.47  1.52 -0.20
 H  1.18  0.85 -0.12
 N -1.06  0.56  2.09
 C -1.42 -0.14  3.32
 C -2.44 -1.22  2.94
 O -3.17 -1.08  1.95
 H -1.78  0.54  1.37
 H -0.50 -0.58  3.72
 C -2.05  0.82  4.36
 C -1.08  1.84  4.96
 C -0.05  1.22  5.92
 N  0.85  2.17  6.54
 C  2.08  2.59  6.02
 N  2.59  1.83  4.99
 N  2.78  3.57  6.50
 H -2.49  0.22  5.18
 H -2.89  1.33  3.88
 H -1.65  2.60  5.50
 H -0.55  2.37  4.15
 H  0.56  0.46  5.41
 H -0.59  0.68  6.72
 H  0.43  2.84  7.16
 H  1.97  1.49  4.25
 H  3.45  2.24  4.63
 H  2.35  3.96  7.34
 N -2.54 -2.30  3.76
 C -1.66 -2.65  4.87
 H -3.25 -2.97  3.47
 H -0.62 -2.78  4.55
 H -2.00 -3.60  5.29
 H -1.69 -1.90  5.67
