35
#
 C -1.84 -1.33  2.03
 C -3.04 -0.59  2.58
 O -3.24 -0.54  3.79
 H -1.86 -2.34  2.46
 H -0.94 -0.83  2.41
 H -1.77 -1.40  0.94
 N -3.93  0.04  1.73
 C -3.83  0.46  0.33
 C -3.37 -0.66 -0.63
 O -2.41 -0.52 -1.38
 H -4.65  0.51  2.28
 H -4.87  0.67  0.04
 C -3.05  1.78  0.11
 C -1.63  1.84  0.69
 C -1.57  2.32  2.14
 N -0.31  1.93  2.78
 C -0.12  1.96  4.17
 N -1.23  1.62  4.92
 N  0.99  2.25  4.76
 H -3.65  2.60  0.52
 H -3.01  1.93 -0.98
 H -1.03  2.52  0.06
 H -1.14  0.86  0.60
 H -2.38  1.89  2.73
 H -1.73  3.42  2.18
 H  0.51  2.28  2.29
 H -0.99  1.51  5.90
 H -1.84  0.88  4.57
 H  1.69  2.61  4.10
 N -4.11 -1.81 -0.63
 C -5.29 -2.16  0.14
 H -3.74 -2.50 -1.28
 H -5.05 -2.49  1.16
 H -5.82 -2.96 -0.38
 H -5.98 -1.31  0.21
