35
#
 C  0.35 -1.25  1.16
 C  0.26 -0.06  2.09
 O  1.27  0.45  2.58
 H  1.40 -1.37  0.87
 H -0.25 -1.13  0.25
 H  0.03 -2.18  1.66
 N -0.98  0.44  2.39
 C -2.29  0.03  1.91
 C -3.06  1.30  1.51
 O -2.99  2.32  2.19
 H -0.98  1.28  2.96
 H -2.15 -0.62  1.04
 C -3.11 -0.72  2.99
 C -2.48 -2.03  3.46
 C -2.61 -3.16  2.43
 N -1.74 -4.27  2.77
 C -1.60 -5.35  1.90
 N -0.82 -6.37  2.46
 N -2.09 -5.49  0.72
 H -4.13 -0.90  2.61
 H -3.22 -0.04  3.85
 H -2.96 -2.35  4.40
 H -1.42 -1.86  3.69
 H -2.31 -2.80  1.43
 H -3.67 -3.47  2.35
 H -1.71 -4.51  3.75
 H -0.62 -7.09  1.77
 H  0.02 -6.06  2.93
 H -2.76 -4.75  0.50
 N -3.83  1.18  0.39
 C -4.68  2.25 -0.10
 H -3.80  0.31 -0.12
 H -4.37  2.56 -1.11
 H -4.56  3.10  0.58
 H -5.73  1.94 -0.13
