35
#
 C -0.12  0.21  0.14
 C -0.29  0.83  1.51
 O  0.65  1.42  2.05
 H -0.96  0.42 -0.54
 H  0.81  0.61 -0.28
 H -0.03 -0.88  0.21
 N -1.48  0.69  2.19
 C -2.83  0.35  1.73
 C -2.89 -0.71  0.61
 O -3.35 -0.46 -0.50
 H -1.49  1.27  3.04
 H -3.32 -0.12  2.60
 C -3.68  1.60  1.40
 C -3.02  2.66  0.50
 C -3.20  4.10  1.02
 N -2.79  4.32  2.41
 C -1.57  3.87  2.90
 N -0.46  4.21  2.17
 N -1.56  3.19  4.01
 H -3.92  2.06  2.37
 H -4.63  1.26  0.96
 H -3.40  2.59 -0.53
 H -1.94  2.47  0.43
 H -4.25  4.40  0.95
 H -2.65  4.79  0.35
 H -3.52  4.11  3.09
 H  0.28  3.50  2.16
 H -0.60  4.69  1.29
 H -0.60  3.08  4.35
 N -2.47 -1.96  0.94
 C -1.88 -2.43  2.18
 H -2.53 -2.61  0.16
 H -1.99 -3.52  2.23
 H -2.39 -2.00  3.05
 H -0.81 -2.18  2.26
