35
#
 C -0.63  0.66 -0.41
 C -0.37  0.76  1.08
 O  0.50  1.53  1.50
 H -0.53 -0.37 -0.78
 H  0.10  1.29 -0.91
 H -1.64  1.01 -0.66
 N -1.10  0.03  1.99
 C -2.11 -1.04  1.96
 C -1.61 -2.32  2.68
 O -2.28 -2.81  3.58
 H -0.80  0.27  2.93
 H -2.92 -0.71  2.63
 C -2.77 -1.36  0.61
 C -3.96 -2.31  0.77
 C -4.62 -2.66 -0.58
 N -5.14 -1.54 -1.35
 C -6.30 -0.86 -1.00
 N -6.50  0.28 -1.78
 N -7.16 -1.16 -0.08
 H -2.05 -1.79 -0.09
 H -3.12 -0.41  0.18
 H -4.70 -1.86  1.44
 H -3.65 -3.25  1.24
 H -5.45 -3.36 -0.41
 H -3.90 -3.18 -1.22
 H -4.45 -0.97 -1.84
 H -7.42  0.68 -1.59
 H -6.35  0.14 -2.78
 H -6.84 -1.93  0.50
 N -0.43 -2.90  2.28
 C  0.54 -2.49  1.28
 H -0.21 -3.71  2.85
 H  1.25 -3.32  1.14
 H  1.11 -1.60  1.59
 H  0.07 -2.29  0.31
