35
#
 C  0.18  0.35  2.25
 C -0.99  1.26  2.57
 O -0.84  2.45  2.86
 H  0.22 -0.52  2.93
 H  1.10  0.93  2.37
 H  0.13 -0.03  1.22
 N -2.25  0.72  2.51
 C -2.63 -0.68  2.31
 C -3.92 -0.74  1.45
 O -4.95 -1.27  1.87
 H -2.98  1.37  2.78
 H -1.83 -1.14  1.70
 C -2.76 -1.49  3.61
 C -3.61 -0.83  4.70
 C -3.73 -1.73  5.94
 N -4.51 -1.15  7.02
 C -3.98 -0.57  8.16
 N -2.65 -0.15  8.04
 N -4.58 -0.40  9.29
 H -1.74 -1.66  3.99
 H -3.18 -2.47  3.35
 H -4.61 -0.61  4.32
 H -3.16  0.13  5.00
 H -2.73 -1.99  6.32
 H -4.20 -2.68  5.65
 H -5.46 -1.46  7.11
 H -2.37  0.36  8.87
 H -2.42  0.35  7.19
 H -5.49 -0.89  9.31
 N -3.87 -0.18  0.21
 C -2.73  0.42 -0.48
 H -4.75 -0.23 -0.28
 H -2.52  1.44 -0.13
 H -2.97  0.46 -1.55
 H -1.83 -0.19 -0.37
