35
#
 C -0.82 -1.44  0.67
 C -0.52 -0.86  2.03
 O  0.59 -1.01  2.57
 H -1.18 -2.47  0.81
 H  0.10 -1.47  0.08
 H -1.59 -0.88  0.12
 N -1.54 -0.18  2.61
 C -1.67  0.31  4.00
 C -0.78  1.51  4.40
 O -1.21  2.32  5.21
 H -2.39 -0.12  2.06
 H -2.68  0.74  4.03
 C -1.63 -0.82  5.07
 C -0.27 -1.15  5.70
 C -0.07 -2.65  5.96
 N  0.14 -3.41  4.73
 C -0.84 -4.05  3.99
 N -1.97 -4.46  4.71
 N -0.80 -4.29  2.72
 H -2.07 -1.71  4.60
 H -2.33 -0.52  5.86
 H -0.16 -0.60  6.65
 H  0.55 -0.81  5.06
 H -0.94 -3.07  6.49
 H  0.80 -2.80  6.61
 H  0.83 -2.98  4.12
 H -2.53 -5.09  4.15
 H -1.78 -4.84  5.64
 H  0.03 -3.86  2.31
 N  0.45  1.57  3.83
 C  1.41  2.60  4.19
 H  0.77  0.74  3.31
 H  2.03  2.84  3.32
 H  2.06  2.28  5.02
 H  0.86  3.49  4.51
