35
#
 C -0.50  0.74 -0.36
 C -0.36  0.73  1.15
 O  0.72  0.97  1.69
 H  0.35  1.29 -0.77
 H -1.43  1.21 -0.71
 H -0.47 -0.28 -0.75
 N -1.46  0.43  1.92
 C -2.81  0.05  1.52
 C -3.79  0.90  2.37
 O -4.28  0.46  3.41
 H -1.25  0.39  2.91
 H -2.93  0.32  0.46
 C -3.10 -1.44  1.71
 C -2.26 -2.37  0.84
 C -2.69 -2.40 -0.64
 N -4.03 -2.93 -0.84
 C -4.28 -4.30 -0.92
 N -5.62 -4.57 -1.20
 N -3.44 -5.27 -0.78
 H -4.17 -1.62  1.52
 H -2.95 -1.68  2.78
 H -2.34 -3.39  1.24
 H -1.20 -2.11  0.90
 H -1.95 -2.98 -1.23
 H -2.68 -1.39 -1.07
 H -4.65 -2.36 -1.41
 H -5.80 -5.57 -1.14
 H -6.28 -4.03 -0.66
 H -2.48 -4.94 -0.72
 N -4.05  2.17  1.94
 C -3.44  2.89  0.83
 H -4.62  2.70  2.59
 H -2.36  3.05  0.97
 H -3.93  3.87  0.74
 H -3.60  2.37 -0.13
