35
#
 C -0.46 -1.75  0.63
 C -0.63 -0.74  1.75
 O -0.10  0.38  1.71
 H  0.62 -1.93  0.48
 H -0.85 -1.32 -0.30
 H -0.96 -2.70  0.82
 N -1.43 -1.15  2.77
 C -1.56 -0.45  4.05
 C -1.49  1.10  3.97
 O -0.71  1.74  4.67
 H -1.66 -2.15  2.82
 H -2.59 -0.65  4.40
 C -0.55 -1.00  5.08
 C -1.08 -1.24  6.49
 C -2.38 -2.09  6.62
 N -2.67 -3.05  5.54
 C -1.75 -3.92  4.98
 N -0.87 -4.49  5.88
 N -1.77 -4.09  3.69
 H  0.28 -0.28  5.14
 H -0.15 -1.93  4.68
 H -1.27 -0.28  6.99
 H -0.28 -1.72  7.06
 H -3.26 -1.44  6.65
 H -2.37 -2.61  7.59
 H -3.29 -2.71  4.82
 H -0.28 -5.23  5.52
 H -1.21 -4.66  6.82
 H -1.17 -4.86  3.40
 N -2.46  1.74  3.24
 C -3.35  1.18  2.24
 H -2.30  2.74  3.20
 H -4.19  1.88  2.09
 H -3.78  0.23  2.58
 H -2.86  1.01  1.27
