35
#
 C -0.66  0.21 -0.35
 C -1.10 -0.31  1.01
 O -1.66 -1.39  1.15
 H  0.06 -0.50 -0.78
 H -0.20  1.21 -0.33
 H -1.53  0.23 -1.02
 N -0.84  0.53  2.06
 C -1.16  0.18  3.44
 C -2.64  0.31  3.87
 O -3.05 -0.44  4.75
 H -0.37  1.41  1.88
 H -0.98 -0.90  3.54
 C -0.26  0.94  4.42
 C  1.21  0.51  4.37
 C  2.10  1.26  5.37
 N  1.70  0.98  6.73
 C  2.19  1.72  7.80
 N  1.78  1.21  9.03
 N  2.95  2.76  7.76
 H -0.65  0.77  5.43
 H -0.34  2.03  4.24
 H  1.63  0.68  3.36
 H  1.28 -0.57  4.54
 H  2.01  2.34  5.20
 H  3.16  1.00  5.18
 H  1.55 -0.00  6.95
 H  2.05  1.83  9.79
 H  0.80  0.94  9.08
 H  3.30  2.94  6.82
 N -3.45  1.27  3.33
 C -3.16  2.35  2.40
 H -4.39  1.23  3.71
 H -2.25  2.89  2.66
 H -3.99  3.06  2.44
 H -3.07  2.00  1.36
