35
#
 C  0.31 -0.67  0.02
 C  0.08 -0.22  1.45
 O  0.98  0.25  2.14
 H  0.64  0.20 -0.57
 H -0.58 -1.11 -0.45
 H  1.13 -1.40  0.01
 N -1.20 -0.35  1.90
 C -1.58 -0.08  3.28
 C -2.54 -1.20  3.71
 O -3.26 -1.78  2.89
 H -1.89 -0.88  1.37
 H -0.66 -0.11  3.88
 C -2.28  1.30  3.45
 C -1.45  2.50  3.00
 C -0.23  2.78  3.89
 N  0.64  3.85  3.41
 C  0.20  5.16  3.27
 N -0.67  5.59  4.28
 N  0.61  5.86  2.26
 H -2.57  1.41  4.50
 H -3.22  1.27  2.87
 H -2.09  3.39  2.99
 H -1.11  2.35  1.96
 H  0.41  1.88  3.94
 H -0.56  3.00  4.92
 H  1.21  3.59  2.61
 H -0.81  6.59  4.30
 H -0.47  5.21  5.21
 H  0.34  6.84  2.35
 N -2.57 -1.45  5.05
 C -3.47 -2.42  5.65
 H -1.91 -0.95  5.64
 H -2.91 -3.22  6.15
 H -4.07 -2.85  4.85
 H -4.13 -1.94  6.38
