35
#
 C -1.47  1.17  1.34
 C -0.97  0.36  2.52
 O -0.23  0.83  3.39
 H -1.81  2.15  1.71
 H -2.28  0.68  0.80
 H -0.63  1.36  0.66
 N -1.37 -0.96  2.53
 C -1.14 -1.81  3.69
 C  0.07 -2.77  3.56
 O  0.29 -3.61  4.42
 H -2.11 -1.21  1.86
 H -0.88 -1.14  4.52
 C -2.40 -2.61  4.05
 C -2.76 -3.72  3.04
 C -4.27 -3.88  2.73
 N -4.56 -3.80  1.31
 C -4.36 -2.65  0.59
 N -4.48 -2.82 -0.79
 N -4.07 -1.48  1.06
 H -3.23 -1.89  4.15
 H -2.25 -3.04  5.05
 H -2.34 -4.67  3.39
 H -2.25 -3.52  2.08
 H -4.85 -3.12  3.29
 H -4.64 -4.85  3.08
 H -5.14 -4.52  0.89
 H -4.05 -3.65 -1.18
 H -4.27 -1.97 -1.30
 H -4.25 -1.45  2.07
 N  0.83 -2.59  2.45
 C  2.06 -3.31  2.22
 H  0.56 -1.83  1.83
 H  2.14 -4.09  2.99
 H  2.94 -2.65  2.29
 H  2.06 -3.79  1.23
