35
#
 C -1.26 -1.67 -0.03
 C -0.36 -0.83  0.86
 O  0.86 -1.02  0.89
 H -0.63 -2.37 -0.58
 H -1.83 -1.06 -0.74
 H -1.99 -2.25  0.56
 N -0.94  0.15  1.62
 C -2.34  0.53  1.72
 C -2.41  2.06  1.61
 O -1.54  2.78  2.11
 H -0.29  0.75  2.12
 H -2.88  0.07  0.88
 C -3.01  0.10  3.05
 C -3.08 -1.41  3.31
 C -1.81 -2.00  3.96
 N -1.91 -3.41  4.28
 C -2.66 -3.85  5.36
 N -2.71 -5.25  5.43
 N -3.23 -3.01  6.15
 H -4.03  0.51  3.04
 H -2.49  0.61  3.88
 H -3.31 -1.95  2.38
 H -3.90 -1.61  4.01
 H -1.61 -1.47  4.90
 H -0.93 -1.87  3.31
 H -1.85 -4.06  3.50
 H -3.12 -5.59  6.30
 H -1.83 -5.72  5.23
 H -3.63 -3.48  6.96
 N -3.51  2.55  0.96
 C -3.79  3.96  0.83
 H -4.16  1.88  0.57
 H -4.72  4.23  1.35
 H -3.86  4.26 -0.22
 H -2.96  4.51  1.30
