35
#
 C  0.16 -0.47  0.02
 C  0.02 -0.26  1.52
 O  1.01 -0.07  2.23
 H  0.71 -1.40 -0.15
 H  0.76  0.34 -0.40
 H -0.79 -0.52 -0.52
 N -1.27 -0.28  1.98
 C -1.77 -0.30  3.36
 C -2.37  1.01  3.91
 O -3.39  0.93  4.59
 H -1.98 -0.49  1.29
 H -2.67 -0.93  3.29
 C -0.85 -0.94  4.42
 C -0.44 -2.39  4.13
 C -1.58 -3.33  3.71
 N -2.73 -3.29  4.59
 C -3.98 -2.92  4.16
 N -4.94 -2.96  5.19
 N -4.20 -2.60  2.93
 H -1.43 -0.90  5.35
 H  0.06 -0.34  4.56
 H  0.05 -2.79  5.04
 H  0.33 -2.42  3.34
 H -1.20 -4.36  3.64
 H -1.96 -3.07  2.71
 H -2.68 -3.80  5.47
 H -5.81 -2.51  4.93
 H -4.60 -2.58  6.08
 H -5.15 -2.24  2.81
 N -1.79  2.22  3.67
 C -0.54  2.57  3.00
 H -2.33  2.98  4.08
 H -0.14  3.47  3.47
 H -0.69  2.76  1.93
 H  0.20  1.77  3.11
