35
#
 C  0.18 -0.36 -0.36
 C  0.21 -0.48  1.16
 O  0.89 -1.32  1.74
 H -0.41  0.49 -0.73
 H -0.24 -1.29 -0.77
 H  1.21 -0.27 -0.72
 N -0.57  0.43  1.83
 C -0.78  0.33  3.28
 C -2.11  1.00  3.66
 O -3.02  0.34  4.16
 H -1.23  0.98  1.29
 H -0.94 -0.73  3.52
 C  0.44  0.82  4.09
 C  0.15  1.00  5.58
 C  1.39  1.48  6.35
 N  1.10  1.97  7.70
 C  0.34  3.13  7.91
 N  0.55  4.13  6.96
 N -0.49  3.35  8.87
 H  0.81  1.77  3.67
 H  1.24  0.08  3.93
 H -0.23  0.07  6.02
 H -0.65  1.75  5.72
 H  1.89  2.28  5.78
 H  2.12  0.67  6.45
 H  0.86  1.24  8.36
 H  0.11  4.99  7.27
 H  1.52  4.27  6.69
 H -0.66  2.50  9.42
 N -2.29  2.34  3.40
 C -1.30  3.37  3.12
 H -3.19  2.66  3.74
 H -0.55  3.02  2.41
 H -0.79  3.72  4.04
 H -1.81  4.23  2.67
