35
#
 C  0.09 -1.12  2.43
 C -0.54  0.13  1.84
 O  0.13  1.01  1.30
 H -0.64 -1.86  2.78
 H  0.73 -0.83  3.27
 H  0.73 -1.58  1.67
 N -1.90  0.21  1.95
 C -2.68  1.38  1.53
 C -2.34  1.87  0.09
 O -2.17  3.06 -0.15
 H -2.39 -0.53  2.42
 H -3.73  1.04  1.50
 C -2.58  2.55  2.52
 C -3.06  2.20  3.92
 C -2.98  3.39  4.87
 N -3.43  3.02  6.20
 C -3.54  3.98  7.21
 N -3.85  3.40  8.45
 N -3.39  5.25  7.12
 H -3.16  3.38  2.11
 H -1.53  2.90  2.54
 H -2.45  1.37  4.33
 H -4.10  1.84  3.89
 H -3.62  4.20  4.50
 H -1.94  3.78  4.89
 H -3.10  2.12  6.53
 H -4.05  4.12  9.14
 H -4.59  2.70  8.42
 H -3.03  5.53  6.21
 N -2.34  0.94 -0.92
 C -2.57 -0.49 -0.88
 H -2.08  1.35 -1.81
 H -2.88 -0.82 -1.88
 H -3.39 -0.74 -0.19
 H -1.68 -1.06 -0.59
