35
#
 C  0.10 -0.85  6.27
 C -1.15 -1.49  5.68
 O -1.85 -2.27  6.33
 H  0.66 -1.61  6.84
 H -0.21 -0.07  6.97
 H  0.76 -0.41  5.51
 N -1.44 -1.13  4.39
 C -2.70 -1.47  3.73
 C -2.52 -2.43  2.53
 O -3.43 -2.61  1.72
 H -0.89 -0.38  3.97
 H -3.26 -2.06  4.48
 C -3.51 -0.23  3.33
 C -4.36  0.40  4.44
 C -3.59  0.97  5.64
 N -4.43  1.72  6.58
 C -5.08  2.91  6.23
 N -4.35  3.72  5.36
 N -6.23  3.31  6.63
 H -4.17 -0.55  2.51
 H -2.83  0.52  2.90
 H -5.09 -0.34  4.81
 H -4.95  1.22  4.00
 H -2.78  1.62  5.29
 H -3.12  0.17  6.23
 H -5.02  1.13  7.16
 H -3.35  3.79  5.56
 H -4.79  4.63  5.27
 H -6.73  2.57  7.14
 N -1.32 -3.07  2.47
 C -1.03 -4.09  1.48
 H -0.66 -2.88  3.21
 H -1.85 -4.10  0.76
 H -0.96 -5.09  1.94
 H -0.09 -3.87  0.96
