35
#
 C  0.26 -1.81  0.63
 C  0.30 -1.12  1.98
 O  1.35 -0.99  2.61
 H  1.30 -1.92  0.29
 H -0.31 -1.26 -0.13
 H -0.20 -2.80  0.75
 N -0.87 -0.65  2.54
 C -2.21 -0.40  2.00
 C -2.68 -1.56  1.08
 O -2.71 -2.71  1.50
 H -0.70 -0.27  3.47
 H -2.89 -0.52  2.86
 C -2.40  1.05  1.50
 C -1.40  1.60  0.46
 C -0.21  2.36  1.08
 N  0.65  2.99  0.10
 C  1.63  2.27 -0.59
 N  2.04  2.95 -1.75
 N  2.14  1.13 -0.31
 H -2.36  1.70  2.39
 H -3.43  1.15  1.13
 H -1.93  2.30 -0.20
 H -1.01  0.80 -0.19
 H  0.40  1.70  1.71
 H -0.59  3.14  1.76
 H  0.18  3.69 -0.47
 H  2.88  2.50 -2.13
 H  2.18  3.95 -1.63
 H  1.74  0.70  0.52
 N -3.11 -1.20 -0.17
 C -3.58 -2.18 -1.13
 H -2.99 -0.24 -0.47
 H -4.54 -1.86 -1.57
 H -3.73 -3.13 -0.60
 H -2.86 -2.34 -1.94
