35
#
 C -0.22  1.11 -0.04
 C -0.23  0.97  1.48
 O  0.70  1.38  2.17
 H  0.73  1.56 -0.33
 H -1.04  1.75 -0.39
 H -0.32  0.14 -0.54
 N -1.34  0.39  2.05
 C -2.52 -0.12  1.40
 C -3.68  0.03  2.41
 O -3.47  0.02  3.62
 H -1.36  0.39  3.07
 H -2.75  0.49  0.51
 C -2.37 -1.60  0.94
 C -2.25 -2.63  2.07
 C -3.59 -3.27  2.46
 N -3.53 -4.05  3.69
 C -4.22 -3.78  4.86
 N -4.71 -2.48  4.97
 N -4.44 -4.61  5.82
 H -1.48 -1.64  0.29
 H -3.22 -1.86  0.28
 H -1.80 -2.16  2.96
 H -1.55 -3.42  1.78
 H -3.94 -3.91  1.63
 H -4.36 -2.51  2.60
 H -3.21 -5.01  3.61
 H -5.08 -2.33  5.90
 H -4.11 -1.72  4.65
 H -4.15 -5.56  5.56
 N -4.92  0.12  1.88
 C -6.12  0.15  2.71
 H -5.02  0.12  0.87
 H -6.98  0.35  2.07
 H -6.03  0.95  3.45
 H -6.26 -0.80  3.24
