35
#
 C -0.20  0.86 -0.00
 C  0.08 -0.14  1.11
 O  1.20 -0.63  1.22
 H -0.48  1.84  0.40
 H -1.01  0.53 -0.67
 H  0.72  0.96 -0.58
 N -0.90 -0.49  2.01
 C -2.34 -0.27  2.21
 C -3.13 -1.59  2.14
 O -3.87 -1.90  3.08
 H -0.51 -1.15  2.69
 H -2.46  0.01  3.27
 C -2.98  0.88  1.41
 C -4.44  1.19  1.82
 C -5.50  0.35  1.10
 N -6.88  0.74  1.38
 C -7.42  1.97  1.05
 N -7.02  2.48 -0.19
 N -8.30  2.50  1.83
 H -2.95  0.68  0.33
 H -2.37  1.77  1.59
 H -4.63  2.25  1.61
 H -4.56  1.07  2.91
 H -5.42 -0.71  1.38
 H -5.33  0.38  0.01
 H -7.23  0.44  2.29
 H -7.11  3.48 -0.29
 H -6.17  2.11 -0.61
 H -8.73  3.32  1.41
 N -3.02 -2.40  1.05
 C -2.24 -2.25 -0.17
 H -3.57 -3.25  1.15
 H -2.57 -3.00 -0.89
 H -1.16 -2.38  0.00
 H -2.41 -1.27 -0.63
