35
#
 C -3.04  0.64  0.34
 C -1.99  0.59  1.43
 O -0.90  1.14  1.30
 H -2.62  0.18 -0.57
 H -3.25  1.69  0.10
 H -3.98  0.14  0.59
 N -2.35 -0.10  2.55
 C -1.52 -0.38  3.73
 C -1.24  0.86  4.63
 O -1.59  0.85  5.81
 H -3.30 -0.46  2.59
 H -2.13 -1.01  4.38
 C -0.23 -1.15  3.38
 C  0.61 -1.50  4.61
 C  1.83 -2.35  4.23
 N  2.71 -2.67  5.35
 C  3.64 -1.73  5.78
 N  4.28 -2.13  6.97
 N  3.82 -0.63  5.14
 H  0.37 -0.56  2.67
 H -0.54 -2.07  2.85
 H -0.01 -2.04  5.35
 H  0.97 -0.59  5.10
 H  2.44 -1.82  3.49
 H  1.51 -3.31  3.78
 H  2.30 -3.22  6.09
 H  5.07 -1.55  7.22
 H  4.51 -3.12  7.00
 H  4.61 -0.11  5.51
 N -0.58  1.88  4.02
 C -0.21  3.09  4.71
 H -0.40  1.78  3.01
 H -0.69  3.97  4.26
 H  0.88  3.23  4.69
 H -0.54  3.00  5.75
