35
#
 C  0.19  0.75  0.62
 C  0.14  0.55  2.12
 O  1.15  0.59  2.82
 H -0.16  1.76  0.36
 H -0.41  0.00  0.09
 H  1.23  0.65  0.32
 N -1.09  0.39  2.75
 C -2.44  0.16  2.28
 C -2.64 -1.28  1.73
 O -1.78 -1.85  1.08
 H -0.94  0.25  3.75
 H -3.07  0.28  3.17
 C -2.96  1.17  1.23
 C -2.80  2.63  1.65
 C -3.17  3.60  0.52
 N -2.69  4.96  0.72
 C -1.36  5.25  0.51
 N -1.02  6.58  0.79
 N -0.57  4.37 -0.00
 H -4.02  0.94  1.04
 H -2.44  1.00  0.28
 H -1.75  2.81  1.93
 H -3.41  2.84  2.55
 H -4.25  3.64  0.37
 H -2.71  3.25 -0.41
 H -3.16  5.49  1.45
 H -0.05  6.72  1.05
 H -1.66  7.12  1.36
 H  0.35  4.76 -0.22
 N -3.85 -1.86  1.98
 C -4.95 -1.37  2.79
 H -3.93 -2.79  1.58
 H -5.77 -2.10  2.75
 H -5.35 -0.41  2.41
 H -4.67 -1.24  3.85
