35
#
 C -0.12 -0.48  0.63
 C -0.64  0.23  1.87
 O -0.24  1.36  2.18
 H -0.75 -1.33  0.32
 H  0.89 -0.86  0.85
 H -0.04  0.24 -0.19
 N -1.53 -0.47  2.62
 C -2.03 -0.11  3.95
 C -3.16  0.96  3.94
 O -4.21  0.75  4.54
 H -1.82 -1.37  2.26
 H -2.52 -1.01  4.33
 C -0.92  0.31  4.94
 C  0.30 -0.61  4.96
 C  1.56  0.09  5.50
 N  2.82 -0.50  5.09
 C  3.30 -0.48  3.79
 N  2.89  0.59  3.01
 N  4.16 -1.39  3.45
 H -1.39  0.38  5.94
 H -0.59  1.33  4.69
 H  0.52 -0.94  3.94
 H  0.10 -1.53  5.54
 H  1.55  0.12  6.60
 H  1.55  1.15  5.18
 H  3.11 -1.35  5.57
 H  3.12  0.51  2.03
 H  1.96  0.99  3.15
 H  4.52 -1.23  2.51
 N -2.86  2.09  3.25
 C -3.78  3.21  3.16
 H -1.93  2.16  2.83
 H -3.98  3.47  2.11
 H -3.39  4.09  3.67
 H -4.72  2.91  3.63
