35
#
 C  0.25 -0.76  0.58
 C -0.70  0.05  1.44
 O -1.51  0.84  0.95
 H  0.86 -0.07 -0.01
 H -0.34 -1.36 -0.13
 H  0.90 -1.42  1.15
 N -0.59 -0.16  2.78
 C -1.30  0.63  3.76
 C -0.29  1.02  4.85
 O  0.71  0.32  5.06
 H  0.21 -0.67  3.16
 H -1.68  1.52  3.24
 C -2.48 -0.13  4.42
 C -3.60 -0.54  3.45
 C -4.29  0.62  2.72
 N -4.62  1.77  3.56
 C -5.71  1.75  4.44
 N -5.92  2.99  5.04
 N -6.49  0.76  4.72
 H -2.90  0.49  5.22
 H -2.07 -1.03  4.90
 H -4.34 -1.11  4.03
 H -3.21 -1.22  2.69
 H -5.19  0.24  2.20
 H -3.62  1.00  1.94
 H -4.49  2.67  3.11
 H -6.63  2.92  5.77
 H -5.08  3.46  5.37
 H -6.32 -0.04  4.11
 N -0.56  2.12  5.61
 C -1.59  3.12  5.38
 H  0.15  2.31  6.31
 H -1.81  3.63  6.33
 H -2.52  2.66  5.03
 H -1.28  3.88  4.65
