35
#
 C -0.05  0.89 -0.40
 C -0.06  0.61  1.10
 O  0.97  0.39  1.73
 H  0.34  0.00 -0.91
 H  0.65  1.71 -0.60
 H -1.03  1.14 -0.81
 N -1.30  0.61  1.68
 C -1.49  0.26  3.09
 C -2.87 -0.43  3.20
 O -2.99 -1.65  3.14
 H -2.12  0.74  1.10
 H -0.75 -0.52  3.33
 C -1.22  1.46  4.02
 C -1.07  1.13  5.51
 C -2.36  0.75  6.25
 N -2.20  0.62  7.69
 C -1.66 -0.54  8.22
 N -1.43 -0.43  9.60
 N -1.41 -1.56  7.47
 H -1.98  2.25  3.86
 H -0.28  1.90  3.67
 H -0.64  2.02  6.00
 H -0.34  0.32  5.63
 H -2.74 -0.22  5.89
 H -3.14  1.51  6.07
 H -1.91  1.47  8.17
 H -1.19 -1.31 10.05
 H -2.16  0.06 10.12
 H -1.15 -2.38  8.02
 N -3.93  0.43  3.27
 C -5.29 -0.05  3.45
 H -3.74  1.40  3.46
 H -5.59 -0.05  4.51
 H -5.33 -1.09  3.09
 H -5.99  0.56  2.87
