35
#
 C -0.49  0.52 -0.41
 C -0.17  0.42  1.07
 O  0.99  0.57  1.48
 H -1.46  0.98 -0.63
 H -0.51 -0.49 -0.84
 H  0.31  1.08 -0.90
 N -1.17  0.11  1.94
 C -2.62  0.10  1.74
 C -3.06 -0.89  0.63
 O -3.75 -0.54 -0.33
 H -0.86 -0.04  2.91
 H -3.02 -0.33  2.68
 C -3.26  1.48  1.54
 C -3.57  2.31  2.80
 C -2.40  2.93  3.59
 N -1.78  2.04  4.57
 C -0.54  1.46  4.46
 N  0.49  2.25  3.97
 N -0.41  0.22  4.82
 H -4.20  1.32  1.00
 H -2.62  2.08  0.87
 H -4.19  1.72  3.49
 H -4.21  3.14  2.48
 H -2.78  3.83  4.12
 H -1.63  3.28  2.90
 H -2.42  1.42  5.06
 H  0.26  3.20  3.70
 H  1.08  1.77  3.28
 H  0.58 -0.04  4.86
 N -2.65 -2.18  0.76
 C -1.88 -2.81  1.82
 H -2.94 -2.77 -0.02
 H -2.09 -3.88  1.82
 H -2.16 -2.42  2.81
 H -0.79 -2.67  1.70
