35
#
 C  0.62 -0.77  0.58
 C -0.84 -0.84  0.96
 O -1.50 -1.88  0.83
 H  1.18  0.00  1.14
 H  0.68 -0.52 -0.49
 H  1.09 -1.74  0.74
 N -1.37  0.33  1.44
 C -2.78  0.69  1.58
 C -3.73 -0.53  1.46
 O -4.45 -0.73  0.48
 H -0.73  1.12  1.46
 H -2.92  1.05  2.61
 C -3.18  1.87  0.65
 C -2.56  1.99 -0.75
 C -3.09  1.06 -1.85
 N -2.65 -0.32 -1.77
 C -1.53 -0.78 -2.41
 N -1.33 -2.16 -2.24
 N -0.81  0.02 -3.14
 H -4.27  1.87  0.58
 H -2.91  2.79  1.20
 H -1.46  1.88 -0.71
 H -2.74  3.02 -1.08
 H -4.19  1.06 -1.84
 H -2.75  1.44 -2.82
 H -3.20 -0.94 -1.19
 H -1.53 -2.48 -1.29
 H -0.40 -2.45 -2.52
 H -0.03 -0.49 -3.57
 N -3.82 -1.28  2.60
 C -4.49 -2.56  2.59
 H -3.07 -1.16  3.28
 H -5.45 -2.46  2.06
 H -4.69 -2.88  3.62
 H -3.89 -3.33  2.08
