35
#
 C -0.84  1.01 -0.14
 C -1.10  0.54  1.28
 O -1.20 -0.66  1.56
 H -0.59  2.08 -0.20
 H -1.74  0.83 -0.75
 H -0.03  0.41 -0.57
 N -1.24  1.54  2.20
 C -1.32  1.25  3.62
 C -2.74  1.37  4.22
 O -2.94  1.23  5.42
 H -0.96  2.50  1.93
 H -1.06  0.19  3.74
 C -0.35  2.11  4.46
 C  1.14  1.87  4.19
 C  1.75  2.57  2.96
 N  1.67  4.03  3.00
 C  0.73  4.76  2.34
 N  0.85  6.14  2.57
 N -0.19  4.20  1.60
 H -0.58  1.88  5.51
 H -0.60  3.18  4.33
 H  1.33  0.79  4.09
 H  1.71  2.19  5.08
 H  1.27  2.25  2.03
 H  2.81  2.29  2.88
 H  2.11  4.48  3.80
 H  1.80  6.49  2.62
 H  0.24  6.72  2.00
 H -0.73  4.90  1.09
 N -3.72  1.62  3.31
 C -5.13  1.67  3.67
 H -3.43  1.69  2.34
 H -5.58  2.62  3.35
 H -5.20  1.59  4.76
 H -5.69  0.85  3.21
