35
#
 C -0.74  0.21  1.16
 C -0.64  0.08  2.67
 O  0.40  0.36  3.28
 H -1.72 -0.09  0.76
 H  0.04 -0.40  0.70
 H -0.55  1.25  0.89
 N -1.76 -0.35  3.31
 C -1.89 -0.44  4.76
 C -1.28 -1.76  5.33
 O -1.95 -2.60  5.93
 H -2.57 -0.62  2.75
 H -1.28  0.38  5.17
 C -3.34 -0.22  5.20
 C -4.38 -1.17  4.59
 C -5.81 -0.91  5.09
 N -6.35  0.39  4.71
 C -6.43  1.47  5.58
 N -7.13  2.54  5.01
 N -5.97  1.59  6.77
 H -3.61  0.82  4.99
 H -3.36 -0.34  6.30
 H -4.11 -2.21  4.82
 H -4.41 -1.07  3.49
 H -5.84 -1.02  6.19
 H -6.47 -1.69  4.70
 H -7.10  0.36  4.02
 H -7.07  3.37  5.60
 H -6.88  2.75  4.04
 H -5.59  0.71  7.13
 N  0.06 -1.86  5.11
 C  0.84 -3.00  5.53
 H  0.50 -1.09  4.60
 H  0.18 -3.68  6.08
 H  1.67 -2.70  6.18
 H  1.26 -3.54  4.66
