35
#
 C -1.66 -0.66  1.15
 C -1.17 -0.79  2.58
 O -1.49 -1.76  3.29
 H -1.40 -1.58  0.61
 H -1.23  0.20  0.63
 H -2.76 -0.59  1.15
 N -0.37  0.22  3.02
 C  0.20  0.20  4.36
 C -0.79  0.81  5.40
 O -0.58  1.86  6.01
 H -0.32  1.08  2.44
 H  0.30 -0.86  4.62
 C  1.58  0.86  4.44
 C  1.70  2.26  3.82
 C  2.15  2.23  2.35
 N  1.80  3.42  1.59
 C  0.51  3.61  1.17
 N  0.27  4.81  0.51
 N -0.38  2.67  1.32
 H  2.31  0.18  3.97
 H  1.84  0.91  5.51
 H  2.40  2.87  4.40
 H  0.73  2.78  3.90
 H  1.71  1.37  1.82
 H  3.24  2.11  2.29
 H  2.35  4.25  1.76
 H -0.68  5.15  0.56
 H  0.96  5.55  0.62
 H -1.26  2.91  0.86
 N -1.90  0.04  5.56
 C -3.01  0.43  6.41
 H -1.98 -0.80  4.97
 H -2.71  1.32  6.98
 H -3.26 -0.38  7.12
 H -3.91  0.67  5.83
