35
#
 C -0.97 -1.41 -0.68
 C -0.34 -0.93  0.61
 O  0.83 -1.14  0.89
 H -1.69 -2.21 -0.46
 H -0.17 -1.81 -1.32
 H -1.49 -0.61 -1.22
 N -1.14 -0.22  1.48
 C -2.59 -0.04  1.44
 C -3.00  1.40  1.85
 O -4.14  1.66  2.23
 H -0.68 -0.07  2.37
 H -2.90 -0.12  0.39
 C -3.40 -1.09  2.23
 C -2.92 -1.30  3.68
 C -1.92 -2.46  3.87
 N -2.50 -3.78  3.69
 C -2.37 -4.51  2.52
 N -2.99 -5.77  2.63
 N -1.78 -4.03  1.48
 H -3.36 -2.04  1.69
 H -4.44 -0.74  2.23
 H -3.80 -1.50  4.32
 H -2.48 -0.38  4.09
 H -1.50 -2.41  4.89
 H -1.09 -2.39  3.16
 H -3.28 -4.03  4.28
 H -2.82 -6.37  1.83
 H -2.84 -6.25  3.51
 H -1.64 -4.75  0.78
 N -2.02  2.33  1.71
 C -2.23  3.74  1.95
 H -1.12  2.00  1.36
 H -2.17  4.32  1.02
 H -1.50  4.14  2.66
 H -3.24  3.86  2.37
