35
#
 C -0.05 -0.11  0.44
 C -0.41 -0.23  1.91
 O  0.44 -0.44  2.77
 H  1.02  0.07  0.38
 H -0.60  0.68 -0.08
 H -0.27 -1.06 -0.07
 N -1.74 -0.15  2.27
 C -2.93  0.16  1.47
 C -3.06 -0.74  0.22
 O -3.18 -0.27 -0.91
 H -1.86 -0.24  3.27
 H -3.77 -0.12  2.12
 C -3.09  1.64  1.12
 C -3.03  2.59  2.31
 C -4.11  2.38  3.38
 N -5.47  2.31  2.84
 C -6.14  3.48  2.50
 N -7.47  3.23  2.13
 N -5.55  4.62  2.58
 H -4.05  1.76  0.59
 H -2.32  1.93  0.39
 H -3.12  3.62  1.94
 H -2.05  2.52  2.81
 H -4.04  3.19  4.12
 H -3.95  1.43  3.92
 H -6.07  1.60  3.24
 H -7.94  4.03  1.72
 H -7.60  2.40  1.56
 H -6.14  5.37  2.21
 N -3.06 -2.09  0.42
 C -2.97 -2.84  1.67
 H -3.13 -2.62 -0.44
 H -1.94 -2.91  2.05
 H -3.34 -3.86  1.49
 H -3.60 -2.39  2.45
