35
#
 C  0.52 -4.32  3.06
 C -0.22 -3.28  2.25
 O  0.08 -3.01  1.08
 H  1.58 -4.02  3.13
 H  0.48 -5.28  2.54
 H  0.12 -4.44  4.08
 N -1.26 -2.67  2.91
 C -2.07 -1.66  2.27
 C -2.13 -0.41  3.16
 O -2.42 -0.45  4.36
 H -1.45 -2.94  3.88
 H -1.53 -1.41  1.35
 C -3.49 -2.16  1.85
 C -4.14 -3.22  2.75
 C -4.71 -2.73  4.10
 N -4.65 -3.75  5.15
 C -3.40 -4.07  5.69
 N -3.31 -5.39  6.14
 N -2.36 -3.31  5.78
 H -3.38 -2.60  0.85
 H -4.15 -1.29  1.73
 H -3.38 -4.00  2.96
 H -4.93 -3.72  2.18
 H -5.76 -2.43  3.99
 H -4.17 -1.84  4.46
 H -5.22 -4.56  4.96
 H -4.17 -5.79  6.50
 H -2.53 -5.50  6.79
 H -2.55 -2.35  5.44
 N -1.87  0.75  2.51
 C -1.90  2.05  3.15
 H -1.57  0.69  1.54
 H -2.25  1.90  4.18
 H -2.59  2.73  2.63
 H -0.90  2.50  3.18
