35
#
 C -0.35  0.91  0.95
 C -0.42  0.57  2.43
 O  0.57  0.51  3.14
 H  0.69  1.16  0.72
 H -0.98  1.77  0.69
 H -0.65  0.06  0.33
 N -1.68  0.36  2.96
 C -2.93  0.13  2.24
 C -4.10  0.93  2.87
 O -5.27  0.58  2.74
 H -1.63  0.00  3.92
 H -2.79  0.55  1.23
 C -3.28 -1.37  2.10
 C -4.22 -1.68  0.92
 C -5.25 -2.77  1.23
 N -6.12 -2.31  2.30
 C -7.30 -2.94  2.66
 N -7.40 -4.28  2.26
 N -8.30 -2.41  3.29
 H -3.73 -1.71  3.04
 H -2.33 -1.92  1.99
 H -3.62 -2.00  0.05
 H -4.76 -0.78  0.62
 H -4.72 -3.69  1.52
 H -5.81 -3.01  0.31
 H -6.09 -1.31  2.48
 H -8.19 -4.72  2.71
 H -6.54 -4.82  2.35
 H -8.16 -1.40  3.41
 N -3.72  2.06  3.52
 C -4.67  2.97  4.14
 H -2.73  2.24  3.60
 H -5.67  2.56  3.99
 H -4.62  3.97  3.68
 H -4.48  3.06  5.22
