35
#
 C -0.56 -1.29 -0.27
 C -1.00 -1.14  1.18
 O -0.96 -2.09  1.96
 H -1.19 -2.05 -0.74
 H  0.47 -1.66 -0.29
 H -0.62 -0.37 -0.86
 N -1.41  0.12  1.52
 C -1.98  0.65  2.77
 C -1.05  1.57  3.59
 O -1.55  2.56  4.12
 H -1.37  0.80  0.77
 H -2.73  1.38  2.42
 C -2.80 -0.35  3.64
 C -2.10 -1.24  4.67
 C -1.71 -0.54  5.97
 N -1.09 -1.49  6.88
 C -0.50 -1.07  8.06
 N  0.21 -2.09  8.70
 N -0.53  0.11  8.59
 H -3.36 -0.98  2.94
 H -3.55  0.27  4.16
 H -1.23 -1.73  4.22
 H -2.80 -2.06  4.92
 H -2.61 -0.12  6.46
 H -1.04  0.31  5.77
 H -0.60 -2.25  6.42
 H  0.51 -1.79  9.63
 H -0.27 -2.98  8.73
 H -0.97  0.79  7.96
 N  0.28  1.31  3.71
 C  1.07  0.14  3.33
 H  0.76  2.02  4.25
 H  1.84 -0.03  4.09
 H  1.57  0.28  2.36
 H  0.45 -0.76  3.27
