35
#
 C  0.31  0.86  0.76
 C  0.21 -0.02  1.99
 O  1.19 -0.36  2.65
 H  1.38  1.07  0.60
 H -0.21  1.82  0.91
 H -0.10  0.38 -0.14
 N -1.05 -0.46  2.36
 C -2.33 -0.05  1.81
 C -3.12  0.74  2.87
 O -3.06  0.43  4.06
 H -1.08 -0.90  3.27
 H -2.13  0.58  0.93
 C -3.17 -1.27  1.38
 C -2.63 -1.99  0.14
 C -3.02 -1.29 -1.17
 N -2.44 -1.88 -2.36
 C -1.20 -1.48 -2.82
 N -0.74 -2.22 -3.91
 N -0.61 -0.45 -2.30
 H -4.21 -0.95  1.20
 H -3.22 -1.95  2.24
 H -3.00 -3.02  0.12
 H -1.53 -2.06  0.21
 H -2.69 -0.24 -1.16
 H -4.11 -1.29 -1.28
 H -2.74 -2.82 -2.59
 H -1.11 -3.15 -4.03
 H  0.27 -2.19 -4.04
 H  0.25 -0.23 -2.80
 N -3.92  1.75  2.42
 C -4.05  2.24  1.05
 H -4.45  2.21  3.15
 H -4.77  3.07  1.05
 H -4.44  1.47  0.37
 H -3.10  2.62  0.65
