35
#
 C -0.20 -0.53 -0.46
 C  0.73  0.12  0.54
 O  1.59  0.94  0.20
 H -0.89 -1.26 -0.01
 H  0.40 -1.04 -1.22
 H -0.79  0.25 -0.96
 N  0.56 -0.24  1.85
 C  1.41  0.28  2.91
 C  1.61 -0.82  3.97
 O  2.61 -1.53  3.98
 H -0.15 -0.93  2.08
 H  2.40  0.44  2.46
 C  0.90  1.63  3.45
 C  1.89  2.29  4.40
 C  1.39  3.61  5.01
 N  1.02  4.63  4.03
 C -0.25  4.76  3.48
 N -1.29  4.48  4.37
 N -0.54  5.12  2.27
 H -0.09  1.51  3.93
 H  0.72  2.27  2.58
 H  2.84  2.48  3.86
 H  2.15  1.61  5.23
 H  2.16  4.02  5.68
 H  0.50  3.41  5.63
 H  1.75  4.83  3.35
 H -2.18  4.73  3.95
 H -1.18  4.88  5.29
 H  0.29  5.14  1.68
 N  0.57 -0.98  4.84
 C  0.59 -1.96  5.91
 H -0.16 -0.28  4.84
 H  1.41 -2.66  5.70
 H -0.36 -2.52  5.94
 H  0.76 -1.50  6.89
