35
#
 C  0.17  0.16 -0.04
 C  0.10  0.11  1.48
 O  1.11  0.11  2.19
 H  0.87 -0.61 -0.38
 H  0.58  1.13 -0.33
 H -0.80  0.02 -0.53
 N -1.16  0.08  2.00
 C -1.40 -0.02  3.42
 C -2.76 -0.70  3.61
 O -3.57 -0.80  2.68
 H -1.98 -0.04  1.42
 H -0.60 -0.65  3.85
 C -1.34  1.36  4.13
 C -2.43  2.34  3.69
 C -2.27  3.71  4.37
 N -3.26  4.70  3.97
 C -3.13  5.38  2.77
 N -4.25  6.17  2.48
 N -2.07  5.24  2.04
 H -0.35  1.78  3.93
 H -1.39  1.20  5.22
 H -3.43  1.93  3.92
 H -2.38  2.48  2.60
 H -1.29  4.13  4.12
 H -2.33  3.60  5.46
 H -4.22  4.48  4.22
 H -4.11  6.80  1.70
 H -4.64  6.66  3.29
 H -2.07  5.90  1.26
 N -3.01 -1.15  4.87
 C -4.26 -1.78  5.25
 H -2.27 -1.07  5.56
 H -4.11 -2.83  5.55
 H -4.92 -1.76  4.38
 H -4.74 -1.24  6.08
