35
#
 C  0.00 -0.13 -0.00
 C  0.01 -0.05  1.51
 O  1.05 -0.01  2.17
 H  0.58 -1.00 -0.31
 H  0.51  0.76 -0.40
 H -1.00 -0.19 -0.44
 N -1.23 -0.04  2.10
 C -1.39  0.00  3.54
 C -2.70 -0.76  3.84
 O -3.66 -0.64  3.08
 H -2.08 -0.11  1.56
 H -0.51 -0.49  3.97
 C -1.46  1.46  4.06
 C -1.53  1.59  5.58
 C -1.53  3.05  6.04
 N -1.62  3.22  7.49
 C -2.73  2.79  8.21
 N -3.95  3.08  7.59
 N -2.56  2.17  9.32
 H -2.34  1.94  3.60
 H -0.57  1.97  3.67
 H -0.67  1.08  6.04
 H -2.44  1.11  5.97
 H -2.36  3.59  5.56
 H -0.61  3.56  5.72
 H -0.78  2.92  7.99
 H -4.76  2.94  8.18
 H -3.99  3.95  7.07
 H -3.44  2.04  9.83
 N -2.77 -1.53  4.96
 C -1.77 -1.83  5.97
 H -3.69 -1.94  5.08
 H -1.84 -2.89  6.25
 H -1.90 -1.21  6.87
 H -0.76 -1.65  5.57
