35
#
 C -1.03  1.23 -0.04
 C -0.72  0.65  1.32
 O  0.40  0.24  1.63
 H -0.47  0.67 -0.80
 H -0.68  2.27 -0.05
 H -2.10  1.21 -0.28
 N -1.75  0.67  2.21
 C -1.69  0.01  3.50
 C -2.92 -0.91  3.60
 O -3.96 -0.64  3.01
 H -2.70  0.83  1.88
 H -0.75 -0.57  3.51
 C -1.70  0.99  4.71
 C -0.34  1.57  5.12
 C  0.34  2.49  4.10
 N -0.50  3.61  3.74
 C -0.41  4.25  2.51
 N -1.28  5.35  2.43
 N  0.34  3.97  1.50
 H -2.12  0.47  5.58
 H -2.41  1.80  4.47
 H  0.36  0.75  5.35
 H -0.48  2.12  6.06
 H  0.57  1.92  3.19
 H  1.31  2.82  4.51
 H -0.78  4.22  4.50
 H -1.27  5.74  1.49
 H -2.22  5.17  2.76
 H  1.03  3.25  1.74
 N -2.81 -2.00  4.41
 C -1.62 -2.48  5.10
 H -3.66 -2.55  4.47
 H -1.86 -3.44  5.57
 H -1.29 -1.79  5.89
 H -0.78 -2.65  4.41
