35
#
 C -0.31  1.52  4.54
 C -0.66  0.09  4.91
 O  0.19 -0.72  5.28
 H  0.23  1.53  3.59
 H  0.37  1.92  5.31
 H -1.18  2.18  4.46
 N -1.98 -0.24  4.74
 C -2.53 -1.50  5.24
 C -2.45 -2.68  4.24
 O -2.76 -3.81  4.61
 H -2.66  0.52  4.66
 H -1.91 -1.82  6.09
 C -3.99 -1.32  5.67
 C -4.20 -0.25  6.76
 C -4.96  1.00  6.29
 N -4.29  1.75  5.22
 C -4.86  1.91  3.95
 N -4.23  2.92  3.22
 N -5.84  1.26  3.42
 H -4.34 -2.30  6.01
 H -4.59 -1.08  4.77
 H -3.24  0.05  7.19
 H -4.78 -0.68  7.59
 H -5.11  1.68  7.15
 H -5.97  0.72  5.95
 H -3.85  2.61  5.55
 H -3.22  2.97  3.31
 H -4.54  2.91  2.25
 H -6.29  0.63  4.08
 N -2.07 -2.36  2.98
 C -1.91 -3.34  1.93
 H -1.80 -1.39  2.82
 H -2.51 -3.07  1.04
 H -2.27 -4.30  2.32
 H -0.86 -3.45  1.63
