35
#
 C -0.27 -0.15 -0.38
 C -0.10 -0.29  1.12
 O  0.94 -0.72  1.61
 H -0.13 -1.13 -0.85
 H  0.53  0.50 -0.76
 H -1.24  0.26 -0.69
 N -1.20  0.06  1.85
 C -1.34  0.06  3.31
 C -0.78  1.39  3.89
 O -1.54  2.36  3.91
 H -1.97  0.49  1.35
 H -2.41  0.20  3.48
 C -0.96 -1.27  3.98
 C -1.33 -1.29  5.46
 C -0.95 -2.60  6.18
 N -1.63 -3.79  5.68
 C -1.21 -4.51  4.56
 N  0.18 -4.65  4.47
 N -2.10 -4.94  3.73
 H  0.09 -1.52  3.83
 H -1.53 -2.06  3.45
 H -0.84 -0.46  5.99
 H -2.42 -1.12  5.58
 H -1.18 -2.50  7.25
 H  0.13 -2.75  6.10
 H -2.64 -3.72  5.66
 H  0.48 -5.29  3.74
 H  0.67 -4.81  5.34
 H -1.68 -5.58  3.05
 N  0.49  1.51  4.36
 C  1.60  0.57  4.43
 H  0.67  2.45  4.71
 H  2.53  1.14  4.48
 H  1.63 -0.06  3.53
 H  1.55 -0.07  5.32
