35
#
 C  1.54 -0.47  1.35
 C  0.85  0.88  1.43
 O  1.45  1.93  1.21
 H  2.61 -0.29  1.20
 H  1.16 -1.05  0.50
 H  1.39 -1.07  2.26
 N -0.48  0.90  1.78
 C -1.38 -0.23  1.75
 C -1.88 -0.52  0.31
 O -1.97  0.34 -0.56
 H -0.91  1.82  1.63
 H -0.82 -1.12  2.08
 C -2.55 -0.07  2.78
 C -3.24  1.30  2.84
 C -4.10  1.68  1.62
 N -4.24  3.11  1.38
 C -3.14  3.92  1.12
 N -2.05  3.27  0.53
 N -3.19  5.16  1.48
 H -2.12 -0.28  3.77
 H -3.29 -0.86  2.58
 H -2.48  2.08  2.99
 H -3.86  1.33  3.75
 H -5.12  1.27  1.74
 H -3.71  1.21  0.71
 H -4.90  3.60  1.96
 H -1.33  3.88  0.17
 H -2.23  2.47 -0.08
 H -2.38  5.68  1.15
 N -2.20 -1.83  0.09
 C -2.74 -2.31 -1.17
 H -2.07 -2.49  0.84
 H -2.09 -3.08 -1.61
 H -3.75 -2.72 -1.05
 H -2.78 -1.46 -1.86
