35
#
 C -1.40 -2.07  2.64
 C -0.20 -1.15  2.47
 O  0.91 -1.57  2.15
 H -1.85 -1.96  3.63
 H -1.06 -3.10  2.51
 H -2.18 -1.85  1.90
 N -0.41  0.19  2.67
 C -1.67  0.87  2.94
 C -2.70  0.96  1.78
 O -3.88  1.14  2.08
 H  0.42  0.75  2.52
 H -2.22  0.29  3.70
 C -1.43  2.26  3.55
 C -0.81  3.29  2.60
 C -0.63  4.68  3.24
 N -1.87  5.31  3.67
 C -2.43  5.15  4.94
 N -1.50  5.05  5.97
 N -3.69  5.10  5.22
 H -0.81  2.14  4.44
 H -2.41  2.62  3.89
 H -1.44  3.40  1.70
 H  0.18  2.97  2.24
 H -0.12  5.34  2.53
 H  0.03  4.59  4.12
 H -2.58  5.37  2.95
 H -1.97  5.06  6.87
 H -0.74  5.72  5.93
 H -4.27  5.02  4.38
 N -2.32  0.86  0.47
 C -1.02  0.78 -0.17
 H -3.13  0.93 -0.14
 H -0.55 -0.21 -0.06
 H -0.32  1.54  0.20
 H -1.16  0.96 -1.24
