35
#
 C -0.01  1.77  0.85
 C  0.10  0.89  2.08
 O  1.07  0.91  2.83
 H -0.94  2.36  0.84
 H  0.00  1.17 -0.07
 H  0.85  2.45  0.84
 N -0.96  0.04  2.33
 C -2.16 -0.17  1.53
 C -3.32  0.81  1.82
 O -4.33  0.79  1.12
 H -0.79 -0.58  3.12
 H -1.91 -0.00  0.47
 C -2.67 -1.62  1.65
 C -3.18 -2.01  3.04
 C -3.76 -3.42  3.09
 N -2.73 -4.42  2.83
 C -2.97 -5.78  2.69
 N -4.22 -6.11  2.17
 N -2.00 -6.59  2.95
 H -1.87 -2.30  1.33
 H -3.49 -1.73  0.93
 H -3.97 -1.31  3.35
 H -2.38 -1.93  3.80
 H -4.54 -3.49  2.32
 H -4.25 -3.57  4.07
 H -1.85 -4.27  3.32
 H -4.47 -7.08  2.30
 H -4.99 -5.48  2.35
 H -2.25 -7.56  2.73
 N -3.13  1.65  2.87
 C -4.11  2.63  3.28
 H -2.25  1.57  3.37
 H -4.45  2.46  4.31
 H -4.97  2.54  2.60
 H -3.71  3.65  3.20
