35
#
 C -0.28  0.06 -1.50
 C  0.36  0.21 -0.13
 O  1.58  0.28  0.02
 H -0.90 -0.85 -1.57
 H  0.53  0.00 -2.24
 H -0.92  0.92 -1.74
 N -0.48  0.28  0.95
 C -1.93  0.22  0.97
 C -2.39  1.00  2.22
 O -1.64  1.11  3.20
 H -0.04  0.47  1.86
 H -2.33  0.70  0.07
 C -2.48 -1.23  1.03
 C -2.12 -2.00  2.32
 C -3.34 -2.58  3.06
 N -4.44 -1.64  3.25
 C -4.61 -0.78  4.33
 N -3.47 -0.55  5.10
 N -5.72 -0.20  4.66
 H -2.09 -1.76  0.15
 H -3.57 -1.19  0.92
 H -1.55 -1.35  3.00
 H -1.44 -2.84  2.10
 H -3.01 -2.98  4.04
 H -3.75 -3.42  2.49
 H -5.31 -1.89  2.81
 H -3.68  0.13  5.83
 H -2.63 -0.30  4.59
 H -6.51 -0.57  4.12
 N -3.64  1.52  2.24
 C -4.71  1.37  1.26
 H -3.91  1.88  3.15
 H -5.30  0.47  1.44
 H -4.30  1.34  0.24
 H -5.37  2.24  1.33
