35
#
 C -2.54  1.21 -0.18
 C -2.23  0.58  1.17
 O -2.04  1.25  2.18
 H -3.43  1.85 -0.07
 H -2.72  0.49 -0.98
 H -1.71  1.87 -0.46
 N -2.20 -0.79  1.18
 C -1.74 -1.53  2.36
 C -1.33 -2.95  1.96
 O -0.31 -3.47  2.41
 H -2.14 -1.27  0.28
 H -0.84 -1.05  2.75
 C -2.82 -1.51  3.48
 C -2.26 -1.63  4.90
 C -1.91 -3.04  5.40
 N -3.07 -3.91  5.51
 C -3.33 -4.99  4.69
 N -4.64 -5.47  4.85
 N -2.56 -5.57  3.84
 H -3.57 -2.29  3.30
 H -3.33 -0.55  3.40
 H -2.99 -1.20  5.60
 H -1.36 -1.00  4.99
 H -1.42 -2.96  6.39
 H -1.17 -3.52  4.74
 H -3.90 -3.47  5.91
 H -4.74 -6.37  4.39
 H -4.96 -5.52  5.82
 H -1.66 -5.09  3.73
 N -2.15 -3.58  1.07
 C -1.95 -4.96  0.66
 H -3.08 -3.19  0.94
 H -2.37 -5.11 -0.34
 H -2.41 -5.66  1.38
 H -0.87 -5.16  0.64
