35
#
 C  0.62  0.93  0.72
 C  0.08 -0.22  1.54
 O  0.78 -1.20  1.84
 H  1.62  0.65  0.35
 H  0.71  1.85  1.32
 H -0.03  1.17 -0.13
 N -1.21 -0.14  1.97
 C -2.19  0.90  1.71
 C -1.89  2.32  2.25
 O -2.39  3.28  1.66
 H -1.58 -1.03  2.35
 H -2.28  1.08  0.63
 C -3.60  0.47  2.18
 C -3.94  0.44  3.68
 C -3.78 -0.89  4.45
 N -2.42 -1.21  4.89
 C -1.67 -2.18  4.26
 N -0.47 -2.48  4.89
 N -2.10 -2.69  3.15
 H -3.81 -0.52  1.73
 H -4.28  1.18  1.69
 H -5.01  0.69  3.76
 H -3.42  1.25  4.22
 H -4.14 -1.72  3.83
 H -4.41 -0.84  5.35
 H -2.23 -1.08  5.88
 H  0.24 -2.81  4.24
 H -0.09 -1.74  5.47
 H -1.40 -3.33  2.75
 N -1.11  2.54  3.35
 C -0.40  1.62  4.24
 H -1.00  3.53  3.53
 H  0.58  1.33  3.85
 H -0.99  0.72  4.42
 H -0.25  2.14  5.20
