35
#
 C -0.63 -0.84  0.24
 C -0.67  0.08  1.44
 O -0.24  1.24  1.36
 H  0.41 -1.13  0.07
 H -0.98 -0.29 -0.64
 H -1.23 -1.75  0.35
 N -1.21 -0.47  2.57
 C -1.25  0.01  3.97
 C -1.86  1.40  4.28
 O -2.42  1.55  5.37
 H -1.53 -1.42  2.46
 H -1.97 -0.67  4.45
 C  0.10 -0.18  4.71
 C  1.27  0.67  4.22
 C  2.53  0.40  5.05
 N  3.72  1.08  4.56
 C  4.42  0.58  3.48
 N  5.51  1.38  3.09
 N  4.12 -0.57  2.98
 H  0.37 -1.25  4.63
 H -0.11  0.02  5.77
 H  1.01  1.74  4.28
 H  1.49  0.45  3.17
 H  2.76 -0.68  5.02
 H  2.38  0.68  6.10
 H  3.73  2.09  4.67
 H  5.75  1.30  2.11
 H  5.52  2.34  3.42
 H  4.81 -0.86  2.28
 N -1.73  2.37  3.36
 C -2.23  3.71  3.60
 H -1.14  2.17  2.54
 H -2.26  4.26  2.66
 H -1.60  4.26  4.32
 H -3.24  3.66  4.03
