35
#
 C  0.37  1.31  0.03
 C -0.06  0.95  1.44
 O  0.00  1.77  2.37
 H  0.28  0.47 -0.67
 H  1.41  1.66  0.05
 H -0.25  2.14 -0.32
 N -0.52 -0.31  1.62
 C -1.04 -0.80  2.90
 C  0.10 -1.28  3.85
 O  0.25 -2.45  4.19
 H -0.46 -0.96  0.84
 H -1.48  0.09  3.38
 C -2.17 -1.82  2.72
 C -1.87 -3.24  2.19
 C -1.14 -3.29  0.85
 N -1.10 -4.64  0.33
 C -0.56 -4.85 -0.94
 N -0.41 -6.21 -1.24
 N -0.24 -3.85 -1.68
 H -2.92 -1.34  2.07
 H -2.66 -1.94  3.70
 H -2.83 -3.76  2.08
 H -1.28 -3.77  2.94
 H -0.11 -2.89  0.95
 H -1.65 -2.67  0.09
 H -0.84 -5.35  1.01
 H -0.19 -6.40 -2.21
 H -1.16 -6.81 -0.90
 H  0.04 -4.16 -2.62
 N  0.90 -0.25  4.25
 C  2.07 -0.45  5.08
 H  0.70  0.67  3.85
 H  2.05  0.22  5.95
 H  3.00 -0.26  4.52
 H  2.07 -1.49  5.43
