35
#
 C -0.48  0.05  1.71
 C -1.34  0.00  2.96
 O -0.88  0.24  4.07
 H  0.54 -0.22  2.00
 H -0.47  1.08  1.33
 H -0.83 -0.61  0.91
 N -2.68 -0.34  2.83
 C -3.50 -0.44  1.62
 C -3.19 -1.70  0.76
 O -3.49 -1.75 -0.43
 H -3.17 -0.23  3.71
 H -4.52 -0.63  2.00
 C -3.58  0.83  0.76
 C -4.02  2.06  1.55
 C -4.16  3.29  0.65
 N -4.57  4.50  1.34
 C -5.90  4.69  1.70
 N -6.08  5.84  2.48
 N -6.81  3.85  1.34
 H -4.29  0.62 -0.05
 H -2.61  1.01  0.27
 H -3.29  2.28  2.35
 H -4.99  1.87  2.03
 H -4.92  3.10 -0.13
 H -3.21  3.51  0.14
 H -3.90  4.89  2.00
 H -7.05  6.09  2.62
 H -5.53  6.64  2.19
 H -7.74  4.19  1.57
 N -2.62 -2.73  1.45
 C -2.29 -4.00  0.83
 H -2.38 -2.56  2.42
 H -2.81 -4.83  1.34
 H -1.21 -4.18  0.85
 H -2.63 -3.95 -0.21
