35
#
 C  1.37 -0.64  5.39
 C -0.14 -0.75  5.28
 O -0.88 -0.66  6.25
 H  1.71 -1.31  6.20
 H  1.62  0.38  5.68
 H  1.90 -0.89  4.47
 N -0.62 -0.96  4.00
 C -2.05 -0.89  3.71
 C -2.53 -2.07  2.84
 O -3.49 -1.95  2.07
 H  0.03 -0.87  3.23
 H -2.52 -1.02  4.70
 C -2.48  0.48  3.13
 C -3.90  0.90  3.50
 C -4.05  1.29  4.97
 N -5.43  1.63  5.27
 C -5.88  2.10  6.49
 N -4.87  2.47  7.38
 N -7.12  2.30  6.83
 H -2.38  0.45  2.04
 H -1.77  1.23  3.50
 H -4.60  0.09  3.24
 H -4.19  1.77  2.88
 H -3.42  2.16  5.19
 H -3.69  0.46  5.61
 H -6.14  1.14  4.73
 H -4.07  1.85  7.44
 H -5.26  2.70  8.29
 H -7.75  2.12  6.05
 N -1.85 -3.23  3.03
 C -2.23 -4.47  2.38
 H -1.09 -3.22  3.70
 H -1.38 -4.91  1.84
 H -3.03 -4.25  1.67
 H -2.60 -5.21  3.11
