35
#
 C  0.09  0.33 -0.10
 C  0.63  0.37  1.32
 O  1.76  0.79  1.57
 H -0.79  0.99 -0.21
 H -0.20 -0.68 -0.41
 H  0.88  0.69 -0.77
 N -0.20 -0.07  2.32
 C -1.55 -0.56  2.21
 C -2.27 -0.19  3.52
 O -1.64 -0.06  4.57
 H  0.15  0.04  3.28
 H -2.05 -0.06  1.38
 C -1.62 -2.09  1.94
 C -0.99 -3.00  3.01
 C -1.95 -3.42  4.13
 N -1.36 -4.27  5.14
 C -0.59 -3.74  6.18
 N  0.05 -4.75  6.91
 N -0.41 -2.51  6.51
 H -1.11 -2.25  0.98
 H -2.67 -2.39  1.77
 H -0.11 -2.50  3.44
 H -0.61 -3.91  2.52
 H -2.80 -3.97  3.69
 H -2.38 -2.55  4.64
 H -1.02 -5.17  4.81
 H  0.50 -4.35  7.74
 H -0.55 -5.54  7.15
 H -0.81 -1.84  5.84
 N -3.62 -0.07  3.48
 C -4.50 -0.09  2.33
 H -4.03  0.15  4.39
 H -5.52  0.16  2.66
 H -4.54 -1.08  1.85
 H -4.21  0.66  1.57
