35
#
 C -0.11  0.08 -0.01
 C -0.09  0.05  1.51
 O  0.98  0.08  2.14
 H -1.11  0.08 -0.44
 H  0.44 -0.79 -0.38
 H  0.43  0.97 -0.35
 N -1.31 -0.00  2.11
 C -1.59 -0.11  3.55
 C -1.29  1.18  4.36
 O -2.19  1.72  5.01
 H -2.12  0.04  1.50
 H -2.68 -0.20  3.63
 C -0.96 -1.37  4.18
 C -1.31 -1.53  5.66
 C -0.75 -2.83  6.25
 N -1.00 -3.00  7.67
 C -0.18 -2.39  8.60
 N -0.59 -2.58  9.93
 N  0.90 -1.79  8.23
 H  0.13 -1.34  4.06
 H -1.32 -2.24  3.61
 H -2.41 -1.50  5.80
 H -0.90 -0.69  6.24
 H  0.34 -2.86  6.12
 H -1.18 -3.70  5.72
 H -1.97 -3.12  7.94
 H -0.30 -1.85 10.56
 H -1.56 -2.86 10.08
 H  1.45 -1.49  9.04
 N  0.00  1.59  4.33
 C  0.47  2.75  5.06
 H  0.64  1.08  3.71
 H  1.23  2.47  5.80
 H -0.39  3.19  5.59
 H  0.89  3.50  4.38
