35
#
 C -0.21 -0.54 -0.19
 C -0.26  0.35  1.03
 O  0.31  1.44  1.06
 H  0.85 -0.72 -0.45
 H -0.67 -0.01 -1.03
 H -0.71 -1.51 -0.07
 N -0.96 -0.17  2.09
 C -1.26  0.49  3.37
 C -2.52  1.39  3.21
 O -3.62  0.84  3.33
 H -1.49 -1.02  1.91
 H -1.66 -0.31  4.00
 C -0.01  1.03  4.09
 C -0.33  1.53  5.50
 C  0.90  2.07  6.21
 N  0.55  2.57  7.53
 C  1.50  3.05  8.43
 N  2.55  3.75  7.83
 N  1.36  2.80  9.68
 H  0.48  1.81  3.50
 H  0.71  0.20  4.14
 H -0.77  0.71  6.09
 H -1.10  2.32  5.47
 H  1.32  2.89  5.61
 H  1.68  1.29  6.25
 H -0.10  1.97  8.04
 H  3.12  4.28  8.48
 H  2.32  4.28  7.00
 H  2.04  3.30 10.25
 N -2.44  2.72  2.95
 C -1.30  3.61  2.73
 H -3.37  3.14  2.90
 H -0.53  3.12  2.13
 H -0.87  3.97  3.68
 H -1.66  4.49  2.18
