35
#
 C  0.17  0.17  0.11
 C  0.02  0.30  1.62
 O  0.92  0.72  2.34
 H  1.03 -0.48 -0.10
 H  0.39  1.16 -0.30
 H -0.72 -0.23 -0.39
 N -1.19 -0.09  2.12
 C -1.47 -0.06  3.54
 C -2.41 -1.24  3.84
 O -3.34 -1.49  3.07
 H -1.93 -0.47  1.53
 H -0.50 -0.15  4.05
 C -2.14  1.28  3.94
 C -2.34  1.48  5.45
 C -1.03  1.72  6.21
 N -1.24  1.62  7.64
 C -0.17  1.48  8.52
 N -0.58  1.55  9.86
 N  1.08  1.31  8.25
 H -3.11  1.34  3.43
 H -1.51  2.09  3.53
 H -2.86  0.62  5.88
 H -3.01  2.34  5.60
 H -0.60  2.70  5.91
 H -0.29  0.96  5.93
 H -2.01  2.18  8.01
 H  0.19  1.32 10.48
 H -1.42  1.02 10.08
 H  1.27  1.44  7.25
 N -2.20 -1.98  4.96
 C -1.14 -1.88  5.95
 H -2.90 -2.70  5.09
 H -0.18 -1.62  5.49
 H -1.01 -2.87  6.42
 H -1.36 -1.16  6.75
