35
#
 C -0.70  0.17 -0.17
 C -0.51  0.13  1.33
 O  0.61  0.07  1.84
 H -1.75  0.31 -0.48
 H -0.33 -0.77 -0.60
 H -0.10  0.98 -0.59
 N -1.66  0.19  2.07
 C -1.66 -0.01  3.50
 C -2.82 -0.96  3.83
 O -3.81 -1.02  3.10
 H -2.56  0.08  1.62
 H -0.69 -0.44  3.77
 C -1.86  1.32  4.28
 C -0.69  2.29  4.12
 C -0.95  3.65  4.79
 N -2.07  4.39  4.22
 C -1.96  5.40  3.28
 N -0.76  5.41  2.57
 N -2.84  6.32  3.02
 H -2.01  1.09  5.35
 H -2.79  1.78  3.93
 H -0.49  2.44  3.05
 H  0.23  1.85  4.55
 H -0.04  4.27  4.73
 H -1.15  3.50  5.86
 H -2.92  4.43  4.77
 H -0.41  4.51  2.27
 H -0.80  6.09  1.82
 H -3.61  6.29  3.70
 N -2.72 -1.71  4.96
 C -1.58 -1.81  5.86
 H -3.54 -2.28  5.14
 H -1.40 -0.88  6.42
 H -0.66 -2.09  5.33
 H -1.79 -2.60  6.59
