35
#
 C -0.45  0.54 -0.45
 C -0.18  0.32  1.02
 O  0.98  0.28  1.45
 H -1.08 -0.24 -0.89
 H  0.52  0.55 -0.95
 H -0.96  1.50 -0.63
 N -1.21  0.16  1.93
 C -2.67  0.06  1.90
 C -3.17 -1.25  2.54
 O -4.04 -1.21  3.41
 H -0.82  0.06  2.86
 H -3.06  0.83  2.59
 C -3.35  0.31  0.54
 C -4.87  0.47  0.66
 C -5.54  0.66 -0.71
 N -5.05  1.80 -1.49
 C -3.90  1.77 -2.27
 N -3.74  0.58 -3.00
 N -3.09  2.77 -2.24
 H -2.94  1.23  0.12
 H -3.13 -0.49 -0.17
 H -5.33 -0.40  1.15
 H -5.10  1.34  1.30
 H -6.63  0.79 -0.57
 H -5.41 -0.25 -1.32
 H -5.08  2.69 -0.99
 H -4.60  0.18 -3.37
 H -3.01  0.64 -3.70
 H -2.38  2.70 -2.97
 N -2.66 -2.45  2.12
 C -1.63 -2.75  1.14
 H -3.06 -3.23  2.64
 H -0.62 -2.51  1.49
 H -1.67 -3.83  0.92
 H -1.81 -2.23  0.19
