35
#
 C -0.59  0.41 -0.41
 C -0.30  0.13  1.05
 O  0.83  0.21  1.51
 H -0.78  1.48 -0.55
 H -1.46 -0.12 -0.82
 H  0.30  0.15 -0.99
 N -1.35 -0.24  1.88
 C -2.79 -0.19  1.62
 C -3.26 -1.32  0.66
 O -4.33 -1.28  0.05
 H -1.05 -0.28  2.85
 H -3.26 -0.47  2.58
 C -3.28  1.23  1.26
 C -4.81  1.46  1.31
 C -5.33  2.09  0.01
 N -5.02  1.28 -1.17
 C -4.02  1.67 -2.03
 N -3.64  0.63 -2.90
 N -3.47  2.84 -1.98
 H -2.90  1.50  0.27
 H -2.78  1.90  1.97
 H -5.06  2.13  2.14
 H -5.34  0.52  1.48
 H -4.89  3.08 -0.16
 H -6.42  2.23  0.08
 H -5.04  0.28 -0.97
 H -3.16  0.96 -3.74
 H -4.38 -0.03 -3.12
 H -2.80  2.97 -2.74
 N -2.42 -2.39  0.61
 C -2.69 -3.56 -0.20
 H -1.54 -2.31  1.11
 H -2.59 -4.48  0.40
 H -2.00 -3.63 -1.05
 H -3.71 -3.49 -0.58
