35
#
 C  0.11 -0.00  0.22
 C -0.15 -0.22  1.70
 O  0.77 -0.32  2.51
 H  1.14  0.34  0.11
 H -0.58  0.71 -0.25
 H  0.00 -0.96 -0.32
 N -1.45 -0.35  2.13
 C -2.72 -0.21  1.42
 C -2.78 -1.07  0.14
 O -2.95 -0.57 -0.98
 H -1.50 -0.48  3.14
 H -3.47 -0.65  2.11
 C -3.12  1.25  1.16
 C -4.59  1.48  0.80
 C -5.57  1.18  1.93
 N -6.93  1.47  1.52
 C -8.00  1.28  2.39
 N -9.24  1.45  1.76
 N -7.96  0.96  3.64
 H -2.50  1.64  0.34
 H -2.86  1.82  2.06
 H -4.85  0.87 -0.09
 H -4.72  2.53  0.50
 H -5.33  1.81  2.81
 H -5.48  0.12  2.26
 H -7.14  1.25  0.55
 H -9.99  1.44  2.45
 H -9.29  2.26  1.15
 H -7.01  0.74  3.94
 N -2.63 -2.42  0.29
 C -2.42 -3.18  1.51
 H -2.65 -2.92 -0.59
 H -2.65 -4.23  1.30
 H -3.08 -2.85  2.31
 H -1.38 -3.12  1.87
