35
#
 C -0.08  1.06  0.22
 C -0.18  0.31  1.53
 O  0.72 -0.43  1.94
 H  0.74  1.79  0.31
 H -1.00  1.58 -0.06
 H  0.19  0.34 -0.56
 N -1.32  0.55  2.26
 C -1.58 -0.11  3.54
 C -2.97 -0.78  3.62
 O -3.06 -1.95  4.00
 H -1.99  1.21  1.88
 H -0.88 -0.96  3.55
 C -1.30  0.73  4.80
 C  0.14  1.24  4.90
 C  0.40  2.56  4.14
 N  1.60  2.47  3.31
 C  1.99  3.51  2.48
 N  1.86  4.78  3.05
 N  2.39  3.25  1.28
 H -1.52  0.07  5.66
 H -2.01  1.58  4.88
 H  0.40  1.38  5.96
 H  0.82  0.47  4.52
 H  0.52  3.39  4.86
 H -0.48  2.82  3.53
 H  1.69  1.58  2.82
 H  2.05  4.83  4.05
 H  2.32  5.52  2.53
 H  2.78  4.08  0.82
 N -4.09 -0.06  3.33
 C -4.24  1.31  2.88
 H -4.94 -0.62  3.41
 H -4.18  1.42  1.78
 H -3.50  1.97  3.35
 H -5.23  1.68  3.19
