35
#
 C  2.60 -0.35  3.04
 C  1.46  0.55  3.46
 O  1.58  1.42  4.32
 H  2.88 -0.98  3.90
 H  3.47  0.28  2.81
 H  2.38 -0.99  2.19
 N  0.26  0.31  2.85
 C -0.98  1.01  3.18
 C -0.85  2.55  3.09
 O -1.27  3.28  3.98
 H  0.22 -0.44  2.17
 H -1.69  0.72  2.39
 C -1.59  0.61  4.54
 C -1.73 -0.90  4.76
 C -0.56 -1.54  5.52
 N -0.44 -1.01  6.88
 C  0.77 -0.88  7.55
 N  1.83 -0.40  6.76
 N  0.82 -1.20  8.80
 H -2.57  1.10  4.59
 H -1.00  1.06  5.34
 H -1.86 -1.44  3.81
 H -2.65 -1.09  5.34
 H  0.39 -1.36  5.01
 H -0.69 -2.64  5.54
 H -1.13 -1.37  7.53
 H  2.66 -0.18  7.30
 H  1.61  0.33  6.09
 H  1.70 -0.91  9.22
 N -0.30  3.08  1.95
 C  0.17  2.43  0.75
 H -0.22  4.09  2.00
 H  0.15  3.15 -0.08
 H -0.48  1.59  0.46
 H  1.20  2.05  0.83
