35
#
 C -0.29  0.19 -0.21
 C -0.33 -0.04  1.29
 O  0.65 -0.45  1.92
 H  0.40  1.01 -0.42
 H -1.27  0.44 -0.64
 H  0.10 -0.71 -0.69
 N -1.52  0.28  1.90
 C -1.75  0.03  3.31
 C -3.10 -0.68  3.44
 O -4.01 -0.47  2.63
 H -2.35  0.44  1.35
 H -0.92 -0.61  3.65
 C -1.77  1.33  4.15
 C -0.45  2.09  4.10
 C -0.45  3.38  4.95
 N -1.42  4.39  4.55
 C -1.19  5.19  3.44
 N -2.30  5.99  3.14
 N -0.08  5.12  2.80
 H -2.02  1.07  5.19
 H -2.59  1.95  3.76
 H -0.19  2.36  3.07
 H  0.37  1.45  4.46
 H  0.54  3.84  4.89
 H -0.65  3.14  6.01
 H -2.39  4.17  4.73
 H -2.11  6.70  2.43
 H -2.77  6.40  3.95
 H -0.02  5.86  2.09
 N -3.27 -1.51  4.51
 C -2.28 -1.92  5.49
 H -4.20 -1.91  4.57
 H -2.72 -2.68  6.14
 H -1.94 -1.08  6.12
 H -1.39 -2.37  5.01
