35
#
 C -0.03 -0.40  1.22
 C -0.33  0.15  2.60
 O  0.55  0.33  3.44
 H  1.04 -0.25  1.04
 H -0.61  0.07  0.42
 H -0.25 -1.47  1.19
 N -1.65  0.40  2.94
 C -2.88  0.34  2.14
 C -3.02 -1.00  1.39
 O -3.10 -1.07  0.17
 H -1.73  0.79  3.88
 H -3.69  0.35  2.89
 C -3.06  1.56  1.22
 C -4.46  1.73  0.61
 C -5.61  1.86  1.62
 N -5.47  2.90  2.64
 C -5.29  4.24  2.31
 N -6.08  4.68  1.25
 N -4.43  4.93  2.98
 H -2.33  1.50  0.40
 H -2.79  2.45  1.81
 H -4.68  0.90 -0.06
 H -4.44  2.64 -0.01
 H -5.77  0.91  2.16
 H -6.55  2.02  1.06
 H -4.83  2.67  3.39
 H -7.00  4.26  1.18
 H -6.10  5.69  1.13
 H -4.48  5.93  2.76
 N -3.08 -2.13  2.16
 C -2.99 -2.27  3.61
 H -3.15 -2.98  1.61
 H -3.37 -3.25  3.89
 H -3.60 -1.52  4.12
 H -1.95 -2.17  3.97
