35
#
 C  1.25 -0.86  1.10
 C  0.57  0.25  1.89
 O  1.16  1.27  2.23
 H  1.78 -1.50  1.82
 H  1.99 -0.42  0.43
 H  0.55 -1.48  0.53
 N -0.74  0.01  2.20
 C -1.55  0.70  3.20
 C -0.93  2.04  3.70
 O -0.47  2.16  4.83
 H -1.11 -0.89  1.90
 H -2.49  1.00  2.70
 C -1.96 -0.24  4.36
 C -0.97 -1.27  4.91
 C  0.15 -0.78  5.85
 N  1.28 -0.15  5.21
 C  2.32 -0.84  4.63
 N  3.26 -0.01  4.02
 N  2.52 -2.12  4.62
 H -2.84 -0.80  3.99
 H -2.33  0.40  5.18
 H -0.51 -1.84  4.08
 H -1.56 -2.01  5.47
 H  0.50 -1.63  6.45
 H -0.27 -0.05  6.56
 H  1.22  0.85  5.07
 H  3.94 -0.56  3.51
 H  2.86  0.73  3.44
 H  1.82 -2.61  5.19
 N -1.11  3.13  2.89
 C -1.37  3.13  1.46
 H -0.65  3.95  3.27
 H -1.71  4.13  1.17
 H -2.17  2.42  1.21
 H -0.48  2.86  0.88
