35
#
 C  0.32 -1.23  0.11
 C  0.22 -0.87  1.58
 O  1.19 -0.95  2.34
 H  1.09 -0.59 -0.35
 H -0.62 -1.11 -0.44
 H  0.67 -2.26  0.02
 N -1.00 -0.44  2.00
 C -1.26  0.02  3.37
 C -1.52 -1.21  4.29
 O -2.65 -1.51  4.69
 H -1.78 -0.44  1.35
 H -0.33  0.50  3.71
 C -2.42  1.01  3.38
 C -2.62  1.68  4.75
 C -3.96  2.43  4.86
 N -5.14  1.67  4.43
 C -5.81  0.78  5.28
 N -4.99 -0.09  5.97
 N -7.10  0.87  5.34
 H -3.35  0.49  3.11
 H -2.23  1.77  2.61
 H -1.81  2.40  4.94
 H -2.57  0.93  5.54
 H -3.92  3.31  4.20
 H -4.07  2.80  5.89
 H -5.84  2.25  3.98
 H -5.49 -0.78  6.51
 H -4.20 -0.50  5.46
 H -7.50  0.08  5.86
 N -0.40 -1.90  4.58
 C -0.41 -3.14  5.34
 H  0.45 -1.63  4.07
 H  0.45 -3.18  6.01
 H -0.39 -4.02  4.68
 H -1.34 -3.18  5.93
