35
#
 C  0.59 -0.10 -0.60
 C  0.42 -0.14  0.91
 O  1.34 -0.48  1.65
 H  1.43  0.57 -0.84
 H -0.31  0.24 -1.13
 H  0.86 -1.10 -0.96
 N -0.81  0.24  1.37
 C -1.19  0.08  2.76
 C -2.61 -0.51  2.76
 O -3.35 -0.38  1.79
 H -1.59  0.31  0.72
 H -0.46 -0.60  3.21
 C -1.19  1.42  3.53
 C  0.19  2.08  3.61
 C  0.19  3.36  4.46
 N -0.67  4.41  3.92
 C -1.87  4.74  4.52
 N -2.45  5.89  3.94
 N -2.33  4.06  5.51
 H -1.58  1.26  4.55
 H -1.91  2.10  3.04
 H  0.56  2.30  2.60
 H  0.91  1.37  4.05
 H  1.21  3.75  4.53
 H -0.16  3.15  5.48
 H -0.21  5.17  3.43
 H -3.41  6.04  4.23
 H -2.35  5.95  2.93
 H -3.26  4.39  5.79
 N -3.02 -1.16  3.88
 C -2.30 -1.38  5.13
 H -4.00 -1.45  3.84
 H -2.67 -2.30  5.60
 H -2.42 -0.55  5.84
 H -1.23 -1.52  4.93
