35
#
 C -0.81 -1.34 -1.18
 C -0.14 -1.02  0.14
 O  0.95 -1.48  0.44
 H -0.53 -0.57 -1.92
 H -1.90 -1.38 -1.15
 H -0.41 -2.30 -1.53
 N -0.78 -0.15  1.00
 C -2.09  0.49  0.92
 C -3.25 -0.54  0.78
 O -4.05 -0.49 -0.15
 H -0.21  0.05  1.81
 H -2.22  0.97  1.91
 C -2.21  1.59 -0.15
 C -1.13  2.67 -0.01
 C -1.24  3.73 -1.11
 N -0.20  4.76 -1.06
 C  1.15  4.45 -1.23
 N  1.39  3.50 -2.23
 N  2.02  5.02 -0.47
 H -3.21  2.03 -0.07
 H -2.17  1.13 -1.14
 H -0.13  2.21 -0.06
 H -1.20  3.16  0.98
 H -2.21  4.25 -1.05
 H -1.23  3.25 -2.09
 H -0.29  5.41 -0.28
 H  2.37  3.40 -2.48
 H  0.79  3.56 -3.05
 H  2.97  4.83 -0.79
 N -3.34 -1.49  1.75
 C -2.52 -1.70  2.93
 H -4.10 -2.15  1.58
 H -3.08 -2.33  3.63
 H -2.32 -0.75  3.45
 H -1.56 -2.18  2.71
