35
#
 C  0.27  0.05  0.59
 C -0.01 -0.00  2.08
 O  0.89 -0.04  2.91
 H  0.17 -0.96  0.16
 H  1.30  0.38  0.46
 H -0.41  0.70  0.03
 N -1.32 -0.06  2.50
 C -2.58  0.03  1.75
 C -2.64 -0.95  0.56
 O -2.86 -0.57 -0.59
 H -1.39 -0.10  3.51
 H -3.35 -0.31  2.46
 C -2.95  1.45  1.31
 C -3.01  2.44  2.47
 C -3.41  3.85  2.02
 N -3.43  4.76  3.15
 C -4.01  6.03  3.15
 N -4.78  6.31  2.02
 N -3.96  6.89  4.11
 H -3.91  1.41  0.79
 H -2.22  1.80  0.56
 H -2.03  2.49  2.98
 H -3.74  2.10  3.23
 H -4.42  3.82  1.58
 H -2.71  4.18  1.22
 H -2.67  4.66  3.82
 H -5.10  7.28  2.06
 H -4.39  6.06  1.12
 H -3.48  6.51  4.93
 N -2.46 -2.28  0.83
 C -2.24 -2.93  2.12
 H -2.50 -2.86  0.01
 H -2.49 -3.99  2.01
 H -2.89 -2.52  2.89
 H -1.20 -2.85  2.46
