35
#
 C -0.81 -0.71  0.13
 C -0.56 -0.52  1.61
 O  0.57 -0.55  2.09
 H -0.34 -1.65 -0.20
 H -0.31  0.10 -0.42
 H -1.87 -0.72 -0.15
 N -1.68 -0.33  2.37
 C -1.63 -0.04  3.80
 C -2.48 -1.09  4.55
 O -3.61 -0.82  4.98
 H -2.59 -0.28  1.91
 H -0.56 -0.16  4.07
 C -2.09  1.38  4.12
 C -1.86  1.78  5.59
 C -2.97  2.66  6.16
 N -4.23  1.94  6.14
 C -5.42  2.50  6.54
 N -6.49  1.61  6.46
 N -5.62  3.70  6.97
 H -3.15  1.47  3.87
 H -1.54  2.06  3.45
 H -0.90  2.30  5.70
 H -1.78  0.87  6.22
 H -3.06  3.59  5.56
 H -2.70  2.97  7.19
 H -4.19  0.94  5.95
 H -7.38  2.10  6.57
 H -6.49  0.99  5.66
 H -4.75  4.21  7.09
 N -1.95 -2.33  4.72
 C -0.73 -2.89  4.16
 H -2.60 -2.98  5.16
 H -0.31 -3.61  4.87
 H  0.02 -2.11  3.98
 H -0.91 -3.40  3.21
