35
#
 C  0.59 -0.14  0.27
 C -0.02 -0.99  1.36
 O  0.56 -1.97  1.83
 H  1.57  0.23  0.62
 H -0.02  0.72 -0.03
 H  0.78 -0.77 -0.61
 N -1.25 -0.58  1.80
 C -2.07 -1.36  2.75
 C -3.50 -0.81  2.75
 O -4.45 -1.55  2.51
 H -1.72  0.14  1.27
 H -2.17 -2.38  2.36
 C -1.47 -1.43  4.18
 C -0.96 -2.83  4.55
 C -0.10 -2.85  5.82
 N  0.98 -1.85  5.86
 C  2.26 -2.09  5.36
 N  2.30 -2.84  4.20
 N  3.37 -1.67  5.89
 H -2.22 -1.12  4.92
 H -0.64 -0.72  4.27
 H -0.38 -3.23  3.70
 H -1.80 -3.52  4.69
 H  0.30 -3.86  5.96
 H -0.74 -2.63  6.69
 H  1.01 -1.33  6.73
 H  3.25 -2.91  3.84
 H  1.63 -2.59  3.47
 H  3.20 -1.28  6.82
 N -3.69  0.53  3.00
 C -2.80  1.48  3.65
 H -4.68  0.76  3.01
 H -2.90  1.46  4.75
 H -3.02  2.49  3.29
 H -1.76  1.26  3.41
