35
#
 C -0.18 -0.54 -0.13
 C -0.17 -0.66  1.38
 O  0.71 -1.28  1.98
 H  0.74 -0.04 -0.44
 H -1.04  0.02 -0.52
 H -0.18 -1.55 -0.56
 N -1.20 -0.05  2.04
 C -1.31  0.02  3.49
 C -1.94 -1.28  4.10
 O -3.01 -1.27  4.71
 H -1.94  0.38  1.49
 H -0.27  0.06  3.87
 C -2.04  1.29  3.94
 C -3.43  1.50  3.34
 C -4.12  2.73  3.93
 N -5.43  2.93  3.34
 C -6.16  4.09  3.59
 N -7.45  4.02  3.06
 N -5.79  5.14  4.23
 H -1.40  2.15  3.70
 H -2.13  1.24  5.03
 H -4.05  0.61  3.53
 H -3.39  1.65  2.24
 H -3.51  3.63  3.72
 H -4.17  2.63  5.03
 H -6.00  2.09  3.29
 H -7.92  4.91  3.14
 H -7.50  3.64  2.11
 H -4.89  5.01  4.69
 N -1.17 -2.38  3.89
 C -1.57 -3.70  4.33
 H -0.31 -2.25  3.35
 H -0.80 -4.15  4.97
 H -1.75 -4.37  3.48
 H -2.50 -3.60  4.91
