35
#
 C -0.21 -0.24  0.02
 C -0.14 -0.30  1.54
 O  0.89 -0.58  2.14
 H  0.48  0.54 -0.33
 H -1.21 -0.03 -0.37
 H  0.14 -1.20 -0.38
 N -1.31 -0.03  2.19
 C -1.40  0.06  3.64
 C -1.24 -1.24  4.46
 O -0.92 -1.13  5.64
 H -2.13  0.22  1.65
 H -0.52  0.64  3.99
 C -2.66  0.84  4.05
 C -4.02  0.21  3.70
 C -4.54 -0.79  4.75
 N -5.83 -1.37  4.43
 C -7.00 -0.63  4.57
 N -8.12 -1.34  4.11
 N -6.97  0.56  5.05
 H -2.59  1.84  3.58
 H -2.60  1.01  5.14
 H -3.99 -0.28  2.71
 H -4.77  1.01  3.62
 H -4.64 -0.27  5.71
 H -3.83 -1.62  4.89
 H -5.85 -2.06  3.69
 H -9.00 -0.88  4.34
 H -8.14 -2.32  4.37
 H -7.91  0.92  5.22
 N -1.49 -2.48  3.93
 C -1.91 -2.90  2.60
 H -1.28 -3.21  4.60
 H -2.76 -2.32  2.23
 H -2.24 -3.95  2.68
 H -1.09 -2.85  1.87
