35
#
 C  0.31 -0.73  0.98
 C -0.05  0.04  2.24
 O  0.82  0.41  3.03
 H  1.29 -0.39  0.66
 H -0.41 -0.62  0.16
 H  0.37 -1.79  1.24
 N -1.38  0.29  2.53
 C -2.61  0.05  1.79
 C -2.65 -1.39  1.20
 O -2.27 -2.35  1.85
 H -1.48  0.74  3.44
 H -3.39 -0.01  2.56
 C -3.00  1.24  0.88
 C -2.01  1.65 -0.21
 C -2.50  2.86 -1.00
 N -1.54  3.24 -2.02
 C -1.85  4.21 -2.97
 N -0.75  4.53 -3.77
 N -2.98  4.80 -3.16
 H -3.16  2.10  1.55
 H -4.00  1.04  0.44
 H -1.81  0.83 -0.91
 H -1.04  1.89  0.26
 H -2.72  3.70 -0.30
 H -3.45  2.62 -1.50
 H -0.58  3.27 -1.70
 H -1.03  5.15 -4.53
 H -0.21  3.74 -4.09
 H -3.65  4.59 -2.42
 N -3.21 -1.51 -0.04
 C -3.41 -2.79 -0.69
 H -3.50 -0.67 -0.53
 H -4.47 -2.98 -0.90
 H -3.04 -3.56 -0.01
 H -2.84 -2.85 -1.63
