35
#
 C  0.06 -0.06  0.10
 C  0.16 -0.30  1.59
 O  1.24 -0.45  2.17
 H  1.08 -0.04 -0.31
 H -0.44  0.89 -0.14
 H -0.50 -0.86 -0.40
 N -1.02 -0.33  2.30
 C -2.36 -0.12  1.79
 C -2.83  1.33  1.51
 O -3.86  1.47  0.85
 H -0.88 -0.50  3.29
 H -2.42 -0.59  0.80
 C -3.43 -0.84  2.67
 C -3.94 -0.10  3.91
 C -2.91  0.13  5.03
 N -3.43  0.81  6.21
 C -3.60  2.19  6.24
 N -4.16  2.61  7.45
 N -3.30  3.05  5.33
 H -3.02 -1.82  2.94
 H -4.29 -1.02  2.02
 H -4.77 -0.69  4.33
 H -4.38  0.86  3.61
 H -2.06  0.73  4.67
 H -2.49 -0.84  5.36
 H -4.08  0.28  6.78
 H -4.18  3.63  7.50
 H -3.76  2.19  8.28
 H -3.07  2.61  4.44
 N -2.19  2.43  2.02
 C -0.89  2.62  2.66
 H -2.67  3.28  1.72
 H -0.76  1.98  3.54
 H -0.86  3.66  3.01
 H -0.05  2.46  1.98
