35
#
 C  0.39 -1.07  0.55
 C  0.32 -0.30  1.85
 O  1.30  0.31  2.27
 H  1.24 -1.77  0.62
 H  0.61 -0.37 -0.26
 H -0.51 -1.64  0.29
 N -0.86 -0.27  2.56
 C -2.18 -0.84  2.29
 C -3.21  0.31  2.33
 O -3.89  0.53  3.33
 H -0.78  0.27  3.42
 H -2.16 -1.26  1.28
 C -2.56 -1.93  3.31
 C -1.72 -3.21  3.22
 C -2.17 -4.16  2.09
 N -1.47 -5.43  2.04
 C -0.22 -5.57  1.45
 N  0.33 -6.83  1.67
 N  0.44 -4.70  0.76
 H -3.62 -2.17  3.18
 H -2.48 -1.49  4.31
 H -1.80 -3.75  4.17
 H -0.65 -2.97  3.11
 H -2.06 -3.68  1.10
 H -3.24 -4.37  2.21
 H -1.62 -6.04  2.84
 H  1.18 -6.95  1.12
 H -0.31 -7.61  1.55
 H -0.00 -3.78  0.80
 N -3.30  1.10  1.22
 C -2.48  1.09  0.03
 H -3.93  1.89  1.36
 H -2.95  1.73 -0.73
 H -2.40  0.08 -0.40
 H -1.46  1.47  0.21
