35
#
 C  0.02 -0.04 -0.11
 C  0.11 -0.22  1.39
 O  1.13 -0.66  1.92
 H -0.92  0.41 -0.46
 H  0.14 -1.02 -0.59
 H  0.85  0.59 -0.44
 N -1.01  0.17  2.08
 C -1.35  0.04  3.51
 C -1.34  1.36  4.32
 O -2.21  1.52  5.18
 H -1.76  0.52  1.51
 H -2.43 -0.19  3.50
 C -0.70 -1.12  4.30
 C  0.64 -0.86  4.99
 C  1.01 -2.01  5.94
 N  0.10 -2.13  7.06
 C -0.69 -3.24  7.26
 N -1.43 -3.17  8.46
 N -0.70 -4.22  6.41
 H -0.62 -1.99  3.64
 H -1.43 -1.38  5.08
 H  0.60  0.07  5.56
 H  1.44 -0.76  4.24
 H  2.04 -1.86  6.32
 H  1.00 -2.97  5.41
 H  0.29 -1.58  7.89
 H -2.14 -3.88  8.53
 H -1.81 -2.24  8.66
 H -1.40 -4.92  6.66
 N -0.39  2.32  4.10
 C  0.80  2.31  3.26
 H -0.54  3.13  4.69
 H  1.56  2.94  3.74
 H  0.60  2.72  2.26
 H  1.22  1.31  3.16
