35
#
 C -0.56  1.85 -0.40
 C -0.10  0.61  0.34
 O  1.07  0.23  0.34
 H  0.33  2.35 -0.81
 H -1.10  2.55  0.25
 H -1.23  1.59 -1.23
 N -1.06 -0.09  1.04
 C -2.50  0.16  1.06
 C -2.95  1.22  2.10
 O -4.10  1.66  2.07
 H -0.73 -0.97  1.42
 H -2.82  0.56  0.09
 C -3.27 -1.15  1.32
 C -3.13 -2.18  0.19
 C -3.84 -3.49  0.53
 N -3.59 -4.57 -0.41
 C -2.38 -5.25 -0.37
 N -2.24 -6.15 -1.43
 N -1.52 -5.00  0.56
 H -4.32 -0.88  1.47
 H -2.91 -1.59  2.27
 H -2.07 -2.41  0.01
 H -3.53 -1.76 -0.74
 H -4.93 -3.33  0.58
 H -3.51 -3.84  1.51
 H -3.98 -4.45 -1.34
 H -1.44 -6.76 -1.34
 H -3.08 -6.66 -1.67
 H -0.74 -5.66  0.53
 N -2.01  1.58  3.01
 C -2.27  2.55  4.06
 H -1.09  1.17  2.91
 H -3.31  2.88  3.95
 H -1.60  3.42  3.97
 H -2.14  2.10  5.05
