35
#
 C -0.02  0.04 -0.00
 C -0.02  0.06  1.51
 O  1.04  0.14  2.15
 H -1.02  0.01 -0.45
 H  0.55 -0.83 -0.34
 H  0.51  0.93 -0.36
 N -1.24 -0.03  2.10
 C -1.54 -0.13  3.54
 C -1.29  1.18  4.34
 O -2.21  1.69  4.98
 H -2.04 -0.04  1.48
 H -2.63 -0.25  3.60
 C -0.88 -1.36  4.19
 C -1.31 -1.57  5.64
 C -0.65 -2.80  6.27
 N -1.08 -3.08  7.63
 C -2.26 -3.75  7.87
 N -2.56 -3.89  9.24
 N -2.93 -4.27  6.90
 H  0.21 -1.27  4.12
 H -1.16 -2.24  3.59
 H -2.41 -1.69  5.70
 H -1.07 -0.68  6.24
 H  0.44 -2.69  6.27
 H -0.90 -3.69  5.68
 H -0.79 -2.40  8.33
 H -3.55 -3.97  9.43
 H -2.09 -3.25  9.88
 H -3.71 -4.83  7.25
 N -0.01  1.64  4.30
 C  0.39  2.85  4.98
 H  0.64  1.16  3.67
 H  1.27  2.67  5.62
 H -0.44  3.18  5.61
 H  0.64  3.65  4.27
