35
#
 C -0.36 -0.30 -0.12
 C -0.24 -0.28  1.39
 O  0.86 -0.36  1.95
 H  0.10 -1.22 -0.49
 H  0.21  0.54 -0.53
 H -1.40 -0.24 -0.47
 N -1.40 -0.18  2.08
 C -1.45 -0.10  3.53
 C -2.89 -0.49  3.91
 O -3.83 -0.06  3.22
 H -2.29 -0.04  1.61
 H -0.71 -0.80  3.94
 C -1.14  1.34  4.01
 C -0.79  1.54  5.49
 C  0.63  1.11  5.89
 N  0.76 -0.34  6.11
 C  1.88 -1.08  5.69
 N  2.39 -0.71  4.46
 N  2.42 -2.05  6.35
 H -2.00  1.97  3.74
 H -0.29  1.70  3.40
 H -1.53  1.06  6.14
 H -0.87  2.62  5.70
 H  0.93  1.65  6.80
 H  1.34  1.39  5.11
 H  0.51 -0.61  7.06
 H  3.13 -1.33  4.17
 H  1.74 -0.49  3.70
 H  2.04 -2.11  7.30
 N -3.11 -1.24  5.02
 C -2.17 -2.04  5.79
 H -4.10 -1.43  5.15
 H -2.48 -2.04  6.84
 H -1.17 -1.61  5.73
 H -2.13 -3.08  5.43
