35
#
 C -0.77  1.49 -0.16
 C -0.69  0.68  1.13
 O  0.14 -0.21  1.30
 H  0.19  1.99 -0.32
 H -1.57  2.24 -0.14
 H -0.92  0.80 -1.00
 N -1.62  1.02  2.07
 C -1.68  0.37  3.37
 C -3.12 -0.07  3.64
 O -3.82  0.44  4.53
 H -2.31  1.75  1.87
 H -1.06 -0.54  3.25
 C -1.05  1.19  4.52
 C -1.16  2.72  4.44
 C -2.53  3.34  4.80
 N -2.93  4.43  3.91
 C -3.32  4.12  2.61
 N -3.05  5.12  1.68
 N -3.85  3.01  2.20
 H  0.03  0.94  4.53
 H -1.46  0.82  5.47
 H -0.89  3.03  3.42
 H -0.39  3.15  5.10
 H -2.52  3.75  5.82
 H -3.31  2.57  4.81
 H -2.35  5.26  3.98
 H -3.63  5.03  0.85
 H -3.01  6.07  2.03
 H -4.04  2.39  2.99
 N -3.62 -1.07  2.86
 C -3.00 -1.74  1.72
 H -4.60 -1.27  3.05
 H -3.42 -2.75  1.64
 H -1.92 -1.83  1.86
 H -3.19 -1.20  0.78
