35
#
 C -0.45 -0.81 -0.26
 C -0.01 -0.58  1.17
 O  1.16 -0.74  1.52
 H -0.60  0.15 -0.78
 H -1.39 -1.37 -0.33
 H  0.34 -1.36 -0.77
 N -0.94 -0.14  2.08
 C -2.39  0.03  1.93
 C -3.08 -1.33  1.61
 O -2.77 -2.35  2.22
 H -0.57 -0.11  3.02
 H -2.74  0.25  2.95
 C -2.80  1.21  1.04
 C -2.12  2.53  1.40
 C -2.57  3.70  0.51
 N -3.97  4.07  0.64
 C -4.96  3.60 -0.20
 N -6.22  4.12  0.14
 N -4.70  2.76 -1.14
 H -3.89  1.34  1.13
 H -2.61  1.00 -0.02
 H -1.03  2.43  1.30
 H -2.31  2.78  2.46
 H -2.42  3.45 -0.55
 H -1.96  4.59  0.73
 H -4.28  4.41  1.54
 H -6.95  3.89 -0.54
 H -6.23  5.10  0.39
 H -5.52  2.63 -1.75
 N -4.05 -1.29  0.65
 C -4.81 -2.47  0.27
 H -4.22 -0.42  0.16
 H -5.89 -2.30  0.39
 H -4.49 -3.29  0.92
 H -4.61 -2.75 -0.77
