35
#
 C -2.30  0.62  0.87
 C -1.22  0.40  1.92
 O -0.10 -0.03  1.63
 H -2.51 -0.34  0.39
 H -1.91  1.30  0.10
 H -3.23  1.03  1.29
 N -1.57  0.75  3.19
 C -0.74  0.49  4.35
 C  0.76  0.88  4.18
 O  1.66  0.13  4.53
 H -2.55  0.98  3.40
 H -1.11  1.18  5.13
 C -0.85 -0.96  4.88
 C -1.13 -1.07  6.39
 C -2.62 -1.12  6.76
 N -3.41  0.00  6.25
 C -4.26 -0.06  5.17
 N -4.99 -1.24  5.06
 N -4.30  0.94  4.34
 H  0.09 -1.47  4.64
 H -1.65 -1.47  4.31
 H -0.64 -0.23  6.91
 H -0.67 -1.98  6.79
 H -2.72 -1.17  7.86
 H -3.06 -2.04  6.36
 H -2.98  0.92  6.32
 H -5.68 -1.25  4.32
 H -5.30 -1.67  5.92
 H -5.10  0.87  3.70
 N  1.03  2.16  3.76
 C  0.15  3.19  3.26
 H  2.03  2.30  3.64
 H  0.65  4.16  3.36
 H -0.78  3.24  3.85
 H -0.12  3.05  2.20
