35
#
 C  0.06  0.80  0.57
 C -0.28  1.14  2.00
 O  0.53  1.71  2.74
 H -0.78  0.89 -0.13
 H  0.42 -0.24  0.52
 H  0.87  1.46  0.25
 N -1.50  0.74  2.52
 C -2.80  0.56  1.85
 C -2.75 -0.46  0.69
 O -3.33 -0.28 -0.37
 H -1.58  1.06  3.49
 H -3.42  0.06  2.60
 C -3.55  1.86  1.50
 C -2.96  2.88  0.52
 C -1.80  3.78  1.01
 N -1.67  4.00  2.43
 C -2.56  4.73  3.19
 N -2.24  4.72  4.56
 N -3.63  5.34  2.80
 H -3.77  2.37  2.46
 H -4.52  1.53  1.10
 H -3.81  3.52  0.23
 H -2.66  2.38 -0.41
 H -1.89  4.76  0.50
 H -0.83  3.37  0.68
 H -0.94  3.48  2.91
 H -2.82  5.40  5.05
 H -1.26  4.85  4.76
 H -3.81  5.18  1.81
 N -2.06 -1.61  0.99
 C -1.89 -2.69  0.05
 H -1.56 -1.62  1.87
 H -0.85 -2.73 -0.33
 H -2.56 -2.51 -0.80
 H -2.13 -3.65  0.51
