35
#
 C -0.88  0.24 -0.65
 C -0.27  0.53  0.71
 O  0.77  1.20  0.79
 H -0.77 -0.83 -0.89
 H -0.35  0.83 -1.39
 H -1.95  0.48 -0.68
 N -0.85  0.01  1.82
 C -2.18 -0.57  1.99
 C -2.35 -1.80  1.04
 O -1.49 -2.67  1.00
 H -0.38  0.27  2.68
 H -2.16 -1.05  2.98
 C -3.33  0.46  2.02
 C -3.31  1.42  3.23
 C -2.76  2.84  3.00
 N -1.33  2.91  2.73
 C -0.39  2.76  3.72
 N  0.91  2.89  3.24
 N -0.78  2.54  4.94
 H -4.27 -0.10  2.06
 H -3.34  1.04  1.08
 H -2.77  0.98  4.07
 H -4.35  1.56  3.58
 H -2.98  3.43  3.90
 H -3.27  3.31  2.15
 H -1.02  3.32  1.86
 H  1.62  2.66  3.93
 H  1.08  2.41  2.35
 H  0.03  2.39  5.55
 N -3.50 -1.86  0.32
 C -3.80 -2.95 -0.59
 H -4.15 -1.08  0.36
 H -4.80 -3.36 -0.39
 H -3.05 -3.73 -0.42
 H -3.74 -2.63 -1.64
