35
#
 C -0.30  0.96  0.61
 C  0.02  0.14  1.85
 O  1.09  0.23  2.45
 H -0.60  0.33 -0.23
 H -1.12  1.67  0.80
 H  0.60  1.53  0.34
 N -0.95 -0.73  2.28
 C -2.31 -0.87  1.78
 C -3.24  0.32  2.10
 O -3.94  0.80  1.20
 H -0.68 -1.27  3.10
 H -2.28 -0.88  0.69
 C -2.87 -2.24  2.23
 C -4.36 -2.51  1.97
 C -4.87 -2.26  0.54
 N -3.91 -2.61 -0.50
 C -3.72 -1.87 -1.66
 N -3.99 -0.51 -1.56
 N -3.31 -2.51 -2.71
 H -2.68 -2.38  3.30
 H -2.27 -2.99  1.70
 H -4.98 -1.92  2.66
 H -4.54 -3.56  2.24
 H -5.13 -1.20  0.42
 H -5.82 -2.81  0.40
 H -3.81 -3.60 -0.71
 H -3.68  0.04 -2.35
 H -3.93 -0.04 -0.66
 H -3.09 -1.87 -3.48
 N -3.28  0.84  3.36
 C -2.56  0.46  4.56
 H -3.90  1.65  3.42
 H -2.61 -0.62  4.74
 H -3.04  0.95  5.42
 H -1.50  0.76  4.53
