35
#
 C -0.28  0.74 -0.27
 C -0.16  0.39  1.20
 O  0.92  0.34  1.79
 H  0.58  0.32 -0.81
 H -0.23  1.84 -0.37
 H -1.21  0.40 -0.73
 N -1.36  0.22  1.85
 C -1.42 -0.32  3.20
 C -2.53 -1.39  3.18
 O -3.38 -1.42  2.29
 H -2.19 -0.05  1.30
 H -0.45 -0.79  3.41
 C -1.71  0.73  4.29
 C -0.57  1.73  4.57
 C -0.50  2.95  3.64
 N -1.72  3.74  3.66
 C -2.41  4.19  2.55
 N -2.29  3.36  1.42
 N -3.07  5.29  2.63
 H -1.93  0.19  5.22
 H -2.63  1.28  4.04
 H  0.40  1.21  4.54
 H -0.69  2.10  5.60
 H -0.29  2.64  2.61
 H  0.37  3.56  3.94
 H -1.79  4.43  4.41
 H -2.97  3.57  0.70
 H -2.19  2.36  1.61
 H -3.64  5.45  1.80
 N -2.50 -2.28  4.21
 C -3.50 -3.32  4.39
 H -1.75 -2.21  4.88
 H -4.05 -3.18  5.33
 H -3.04 -4.31  4.39
 H -4.21 -3.25  3.56
