35
#
 C  1.38 -0.77  0.73
 C  0.76 -0.24  2.01
 O  1.45  0.13  2.96
 H  2.17 -1.49  0.98
 H  1.85  0.07  0.21
 H  0.65 -1.24  0.05
 N -0.60 -0.20  2.03
 C -1.38  0.35  3.13
 C -0.75  1.71  3.57
 O -0.66  2.62  2.76
 H -1.11 -0.64  1.26
 H -2.33  0.68  2.68
 C -1.76 -0.67  4.22
 C -0.68 -1.54  4.87
 C -0.29 -2.81  4.07
 N -1.42 -3.62  3.66
 C -1.94 -3.66  2.38
 N -3.22 -4.22  2.34
 N -1.37 -3.30  1.28
 H -2.52 -1.34  3.79
 H -2.30 -0.11  5.01
 H -1.04 -1.86  5.86
 H  0.25 -0.98  5.04
 H  0.40 -3.42  4.68
 H  0.28 -2.53  3.18
 H -1.92 -4.13  4.38
 H -3.60 -4.20  1.40
 H -3.88 -3.86  3.03
 H -0.38 -3.11  1.42
 N -0.44  1.85  4.89
 C  0.24  3.04  5.36
 H -0.31  1.00  5.42
 H  0.13  3.12  6.45
 H -0.20  3.91  4.88
 H  1.31  3.02  5.10
