35
#
 C -0.56  0.56  0.09
 C -0.42  0.28  1.58
 O  0.68  0.24  2.13
 H -0.04  1.50 -0.14
 H -1.60  0.64 -0.24
 H -0.06 -0.24 -0.47
 N -1.59  0.08  2.25
 C -1.64 -0.23  3.68
 C -1.46 -1.76  3.92
 O -2.36 -2.49  4.32
 H -2.44 -0.06  1.71
 H -0.74  0.25  4.10
 C -2.87  0.36  4.38
 C -4.28  0.00  3.90
 C -4.73  0.57  2.54
 N -4.44  1.98  2.31
 C -5.26  2.96  2.84
 N -4.82  4.26  2.59
 N -6.36  2.64  3.43
 H -2.75  1.46  4.38
 H -2.79  0.06  5.44
 H -4.98  0.38  4.65
 H -4.39 -1.09  3.87
 H -5.82  0.47  2.47
 H -4.32 -0.00  1.69
 H -3.46  2.22  2.22
 H -5.11  4.95  3.27
 H -3.85  4.38  2.31
 H -6.91  3.47  3.66
 N -0.20 -2.18  3.64
 C  0.20 -3.57  3.72
 H  0.46 -1.49  3.27
 H  0.43 -3.98  2.73
 H -0.63 -4.14  4.15
 H  1.08 -3.69  4.36
