35
#
 C -0.10  0.12 -0.05
 C  0.04  0.09  1.46
 O  1.15  0.06  2.00
 H  0.37 -0.79 -0.45
 H  0.46  0.97 -0.44
 H -1.13  0.17 -0.41
 N -1.14  0.12  2.15
 C -1.40  0.01  3.60
 C -0.79  1.07  4.54
 O -1.42  1.37  5.56
 H -1.97  0.18  1.58
 H -2.48  0.21  3.68
 C -1.18 -1.41  4.18
 C  0.26 -1.80  4.53
 C  0.32 -3.18  5.20
 N  1.62 -3.57  5.71
 C  2.27 -2.93  6.76
 N  1.44 -2.44  7.77
 N  3.56 -2.92  6.76
 H -1.61 -2.13  3.47
 H -1.80 -1.46  5.09
 H  0.68 -1.06  5.22
 H  0.90 -1.80  3.64
 H  0.00 -3.96  4.49
 H -0.42 -3.24  6.02
 H  2.30 -3.85  5.01
 H  1.86 -1.72  8.34
 H  0.47 -2.24  7.53
 H  3.93 -2.52  7.63
 N  0.42  1.58  4.21
 C  1.11  2.51  5.08
 H  0.92  1.13  3.44
 H  1.78  3.14  4.48
 H  1.71  1.99  5.85
 H  0.38  3.14  5.60
