35
#
 C  0.50  0.91 -0.18
 C  0.29  1.10  1.31
 O  1.10  1.72  2.01
 H  0.54  1.89 -0.66
 H -0.29  0.31 -0.66
 H  1.47  0.42 -0.34
 N -0.85  0.56  1.82
 C -1.14  0.58  3.24
 C -2.04 -0.64  3.50
 O -2.64 -1.19  2.58
 H -1.44 -0.06  1.27
 H -0.19  0.48  3.78
 C -1.77  1.93  3.68
 C -3.17  2.23  3.11
 C -4.31  1.71  3.98
 N -5.60  2.00  3.38
 C -6.75  1.83  4.13
 N -7.91  1.98  3.36
 N -6.69  1.53  5.39
 H -1.06  2.70  3.35
 H -1.80  1.99  4.77
 H -3.25  1.82  2.09
 H -3.29  3.32  3.00
 H -4.29  2.20  4.97
 H -4.20  0.63  4.18
 H -5.69  1.72  2.41
 H -8.76  2.03  3.90
 H -7.87  2.72  2.66
 H -7.61  1.55  5.81
 N -2.15 -1.09  4.78
 C -1.59 -0.53  6.00
 H -2.83 -1.84  4.88
 H -1.45 -1.33  6.73
 H -2.25  0.24  6.45
 H -0.61 -0.08  5.80
