35
#
 C  1.69 -1.71  2.37
 C  1.02 -0.92  3.48
 O  1.62 -0.67  4.53
 H  1.98 -2.69  2.76
 H  2.61 -1.19  2.07
 H  1.05 -1.85  1.49
 N -0.25 -0.50  3.22
 C -1.07  0.13  4.24
 C -2.44 -0.56  4.25
 O -2.91 -1.07  3.22
 H -0.77 -0.88  2.43
 H -0.58 -0.07  5.20
 C -1.23  1.65  4.03
 C  0.05  2.49  4.20
 C  0.78  2.36  5.55
 N -0.10  2.32  6.72
 C -0.57  1.14  7.29
 N  0.32  0.09  7.35
 N -1.76  0.98  7.81
 H -2.00  2.00  4.74
 H -1.64  1.82  3.03
 H -0.23  3.54  4.03
 H  0.77  2.24  3.41
 H  1.47  3.21  5.66
 H  1.40  1.46  5.54
 H -0.81  3.04  6.73
 H -0.12 -0.77  7.68
 H  0.99 -0.05  6.60
 H -2.29  1.85  7.78
 N -3.08 -0.54  5.44
 C -4.41 -1.09  5.60
 H -2.63 -0.10  6.26
 H -4.68 -1.04  6.66
 H -4.45 -2.13  5.27
 H -5.16 -0.52  5.02
