35
#
 C  0.37 -1.12  0.91
 C  0.25 -0.58  2.31
 O  1.20 -0.59  3.09
 H  0.39 -2.22  0.98
 H  1.33 -0.80  0.49
 H -0.43 -0.84  0.23
 N -0.99 -0.19  2.79
 C -2.19  0.35  2.12
 C -2.77 -0.55  1.02
 O -3.30 -0.09  0.01
 H -0.89  0.12  3.76
 H -2.96  0.29  2.91
 C -2.14  1.87  1.79
 C -1.59  2.44  0.47
 C -0.17  2.11  0.01
 N  0.79  2.10  1.10
 C  2.13  1.86  0.86
 N  2.87  1.87  2.05
 N  2.55  1.67 -0.35
 H -1.63  2.34  2.64
 H -3.18  2.22  1.85
 H -1.68  3.54  0.57
 H -2.27  2.16 -0.35
 H  0.12  2.82 -0.78
 H -0.15  1.12 -0.48
 H  0.60  2.71  1.89
 H  3.85  1.64  1.90
 H  2.47  1.26  2.76
 H  3.53  1.38 -0.35
 N -2.74 -1.88  1.32
 C -3.21 -2.90  0.40
 H -2.21 -2.16  2.14
 H -3.83 -3.64  0.93
 H -2.38 -3.43 -0.09
 H -3.81 -2.41 -0.36
