35
#
 C -1.77 -1.36  4.01
 C -0.71 -0.88  3.04
 O -0.90 -0.84  1.82
 H -2.58 -0.62  4.04
 H -1.40 -1.52  5.02
 H -2.20 -2.30  3.62
 N  0.49 -0.50  3.61
 C  1.53  0.19  2.86
 C  2.88 -0.56  2.86
 O  3.92  0.02  2.52
 H  0.51 -0.42  4.63
 H  1.17  0.17  1.82
 C  1.70  1.64  3.31
 C  0.48  2.51  3.03
 C  0.68  3.96  3.45
 N -0.52  4.74  3.19
 C -0.78  6.01  3.69
 N  0.14  6.47  4.64
 N -1.80  6.75  3.41
 H  2.59  2.03  2.78
 H  1.95  1.67  4.38
 H -0.41  2.11  3.55
 H  0.24  2.47  1.95
 H  1.57  4.37  2.92
 H  0.89  4.01  4.53
 H -1.02  4.52  2.34
 H -0.06  7.43  4.89
 H  1.12  6.31  4.42
 H -2.47  6.25  2.81
 N  2.82 -1.87  3.20
 C  3.97 -2.75  3.14
 H  1.91 -2.25  3.41
 H  4.12 -3.28  4.09
 H  4.85 -2.13  2.94
 H  3.87 -3.49  2.33
