35
#
 C -0.06 -1.08  0.53
 C -0.44 -0.70  1.95
 O  0.18 -1.11  2.92
 H  1.02 -0.97  0.41
 H -0.57 -0.50 -0.25
 H -0.30 -2.15  0.38
 N -1.53  0.12  2.05
 C -2.15  0.57  3.31
 C -1.12  1.00  4.39
 O -1.22  0.62  5.55
 H -2.00  0.38  1.20
 H -2.68  1.50  3.04
 C -3.20 -0.40  3.89
 C -2.70 -1.80  4.27
 C -2.73 -2.82  3.12
 N -1.84 -3.97  3.33
 C -2.14 -4.99  4.23
 N -3.49 -5.35  4.27
 N -1.30 -5.62  4.99
 H -4.02 -0.47  3.16
 H -3.61  0.10  4.77
 H -3.31 -2.19  5.10
 H -1.68 -1.72  4.66
 H -2.44 -2.35  2.17
 H -3.76 -3.19  2.97
 H -0.87 -3.68  3.40
 H -3.61 -6.19  4.82
 H -3.94 -5.41  3.37
 H -0.38 -5.16  4.98
 N -0.16  1.91  4.04
 C  0.14  2.52  2.75
 H  0.48  2.10  4.80
 H  0.69  3.45  2.93
 H -0.78  2.78  2.21
 H  0.75  1.87  2.11
