35
#
 C  0.17 -0.52 -0.78
 C -0.61  0.47  0.05
 O -0.42  1.69 -0.05
 H  1.24 -0.42 -0.55
 H  0.05 -0.27 -1.84
 H -0.13 -1.57 -0.62
 N -1.53 -0.05  0.90
 C -2.23  0.78  1.89
 C -2.76 -0.06  3.06
 O -2.51  0.28  4.21
 H -1.51 -1.06  1.05
 H -1.48  1.44  2.34
 C -3.33  1.67  1.25
 C -3.70  2.91  2.08
 C -2.52  3.82  2.45
 N -1.70  4.12  1.29
 C -0.69  5.09  1.36
 N  0.23  4.96  0.31
 N -0.58  6.07  2.19
 H -4.24  1.08  1.07
 H -2.97  1.98  0.26
 H -4.19  2.61  3.02
 H -4.43  3.48  1.50
 H -1.93  3.37  3.27
 H -2.93  4.76  2.85
 H -1.42  3.30  0.75
 H  1.05  5.54  0.47
 H  0.44  4.01  0.01
 H -1.35  6.09  2.85
 N -3.49 -1.19  2.80
 C -4.22 -1.58  1.60
 H -3.79 -1.63  3.67
 H -3.74 -1.18  0.71
 H -5.26 -1.22  1.62
 H -4.24 -2.67  1.52
