35
#
 C  0.83  1.43  0.05
 C  0.54  1.02  1.48
 O  1.43  0.62  2.23
 H  1.30  0.58 -0.47
 H  1.55  2.25  0.06
 H -0.06  1.74 -0.51
 N -0.76  1.14  1.88
 C -1.19  0.68  3.21
 C -2.68  0.32  3.21
 O -3.07 -0.78  3.58
 H -1.47  1.34  1.19
 H -0.66 -0.26  3.41
 C -0.83  1.71  4.31
 C -0.74  1.11  5.72
 C  0.36  0.04  5.87
 N  1.66  0.40  5.32
 C  2.40  1.50  5.76
 N  2.26  1.77  7.13
 N  3.16  2.25  5.04
 H -1.55  2.54  4.30
 H  0.14  2.15  4.05
 H -1.70  0.66  6.02
 H -0.54  1.93  6.43
 H  0.06 -0.90  5.39
 H  0.46 -0.21  6.94
 H  1.71  0.31  4.30
 H  2.26  0.95  7.73
 H  2.96  2.45  7.42
 H  3.06  2.02  4.05
 N -3.52  1.30  2.77
 C -4.96  1.14  2.78
 H -3.15  2.24  2.68
 H -5.19  0.07  2.70
 H -5.41  1.67  1.94
 H -5.41  1.51  3.72
