35
#
 C -3.09  0.77  1.01
 C -2.21  0.32  2.16
 O -1.88  1.05  3.09
 H -3.81 -0.01  0.71
 H -2.46  1.02  0.14
 H -3.63  1.68  1.31
 N -1.80 -0.98  2.09
 C -0.96 -1.57  3.10
 C -0.12 -2.69  2.48
 O -0.49 -3.34  1.49
 H -2.09 -1.57  1.31
 H -0.30 -0.77  3.45
 C -1.73 -2.06  4.36
 C -2.59 -3.33  4.28
 C -3.81 -3.32  3.34
 N -3.46 -3.70  1.99
 C -3.94 -3.04  0.87
 N -3.15 -3.26 -0.26
 N -5.00 -2.31  0.77
 H -2.36 -1.21  4.67
 H -0.99 -2.21  5.16
 H -2.96 -3.52  5.30
 H -1.97 -4.21  4.04
 H -4.26 -2.32  3.33
 H -4.57 -4.01  3.75
 H -2.54 -4.12  1.88
 H -3.44 -2.70 -1.05
 H -2.15 -3.34 -0.11
 H -5.55 -2.33  1.63
 N  1.06 -2.93  3.11
 C  1.97 -4.00  2.73
 H  1.32 -2.32  3.88
 H  2.92 -3.59  2.38
 H  1.50 -4.56  1.92
 H  2.16 -4.67  3.58
