35
#
 C -2.57  1.65  0.31
 C -1.72  1.12  1.44
 O -0.49  1.15  1.40
 H -3.64  1.41  0.42
 H -2.20  1.25 -0.64
 H -2.45  2.74  0.27
 N -2.40  0.59  2.51
 C -1.75  0.25  3.77
 C -2.07 -1.17  4.26
 O -1.88 -1.50  5.43
 H -3.41  0.75  2.54
 H -0.67  0.25  3.54
 C -2.03  1.30  4.87
 C -1.55  2.70  4.51
 C -0.02  2.85  4.46
 N  0.38  4.10  3.84
 C  1.46  4.24  2.98
 N  1.73  3.12  2.20
 N  2.11  5.35  3.00
 H -1.57  0.93  5.79
 H -3.12  1.31  5.07
 H -1.96  3.42  5.25
 H -1.95  3.02  3.54
 H  0.42  2.03  3.88
 H  0.39  2.75  5.48
 H  0.32  4.93  4.43
 H  2.41  3.28  1.46
 H  0.95  2.53  1.90
 H  2.80  5.39  2.24
 N -2.53 -2.03  3.31
 C -2.77 -3.43  3.57
 H -2.59 -1.67  2.36
 H -3.77 -3.73  3.22
 H -2.71 -3.59  4.65
 H -2.02 -4.07  3.07
