35
#
 C -1.17 -0.96 -0.17
 C -0.87 -0.42  1.21
 O  0.25  0.05  1.48
 H -0.58 -1.87 -0.32
 H -0.85 -0.23 -0.92
 H -2.23 -1.20 -0.33
 N -1.87 -0.52  2.12
 C -1.82 -0.17  3.55
 C -1.85  1.36  3.82
 O -2.69  1.83  4.59
 H -2.75 -0.87  1.78
 H -2.78 -0.52  3.95
 C -0.70 -0.83  4.37
 C -0.68 -2.37  4.41
 C -0.10 -3.08  3.17
 N  1.19 -2.59  2.72
 C  2.35 -2.94  3.38
 N  3.49 -2.32  2.85
 N  2.34 -3.82  4.32
 H -0.84 -0.46  5.40
 H  0.28 -0.45  4.05
 H -1.69 -2.76  4.60
 H -0.06 -2.67  5.27
 H -0.79 -3.02  2.32
 H  0.03 -4.15  3.42
 H  1.18 -1.69  2.24
 H  4.26 -2.22  3.51
 H  3.34 -1.48  2.30
 H  3.29 -4.05  4.62
 N -0.88  2.08  3.20
 C -0.74  3.51  3.36
 H -0.23  1.56  2.60
 H -0.82  4.03  2.40
 H  0.22  3.76  3.83
 H -1.55  3.85  4.02
