35
#
 C  0.35 -1.08  0.85
 C -0.07 -0.49  2.19
 O  0.16 -1.10  3.24
 H  1.43 -1.30  0.89
 H  0.14 -0.43 -0.01
 H -0.17 -2.03  0.72
 N -0.68  0.72  2.12
 C -1.33  1.55  3.16
 C -0.50  1.95  4.40
 O -0.80  3.02  4.95
 H -0.77  1.10  1.18
 H -1.49  2.51  2.67
 C -2.74  1.05  3.55
 C -2.86 -0.22  4.40
 C -2.69 -0.00  5.91
 N -3.68  0.92  6.46
 C -3.44  1.79  7.52
 N -2.16  2.33  7.55
 N -4.30  2.12  8.43
 H -3.29  0.90  2.61
 H -3.24  1.87  4.08
 H -2.14 -0.99  4.08
 H -3.86 -0.65  4.24
 H -1.70  0.41  6.14
 H -2.73 -0.98  6.42
 H -4.62  0.52  6.51
 H -2.10  3.04  8.27
 H -1.76  2.63  6.66
 H -5.14  1.55  8.37
 N  0.47  1.13  4.83
 C  1.23  1.42  6.03
 H  0.51  0.19  4.40
 H  2.12  0.78  6.05
 H  0.65  1.25  6.94
 H  1.55  2.47  6.02
