35
#
 C -0.88 -2.55  0.30
 C -0.32 -1.40  1.11
 O  0.84 -1.39  1.51
 H -0.32 -3.45  0.56
 H -0.69 -2.35 -0.77
 H -1.95 -2.73  0.42
 N -1.14 -0.32  1.38
 C -2.56 -0.10  1.08
 C -3.47 -1.21  1.67
 O -4.24 -1.86  0.97
 H -0.65  0.41  1.88
 H -2.81  0.83  1.62
 C -2.89  0.15 -0.40
 C -2.27  1.41 -1.02
 C -0.77  1.32 -1.36
 N -0.29  2.46 -2.14
 C  0.44  3.51 -1.60
 N  0.20  3.74 -0.24
 N  1.30  4.25 -2.22
 H -3.98  0.21 -0.47
 H -2.62 -0.74 -0.99
 H -2.45  2.27 -0.35
 H -2.81  1.64 -1.95
 H -0.60  0.41 -1.96
 H -0.16  1.22 -0.46
 H -0.10  2.29 -3.11
 H  0.69  4.58  0.06
 H -0.78  3.76  0.02
 H  1.50  3.89 -3.15
 N -3.38 -1.43  3.01
 C -2.56 -0.76  4.01
 H -3.97 -2.19  3.32
 H -2.99 -0.96  5.00
 H -2.58  0.33  3.87
 H -1.52 -1.10  4.01
