35
#
 C  0.07  0.06  0.68
 C -0.24 -0.03  2.16
 O  0.64  0.04  3.01
 H  1.07  0.49  0.58
 H -0.65  0.67  0.12
 H  0.08 -0.94  0.23
 N -1.54 -0.25  2.55
 C -2.78 -0.31  1.77
 C -2.68 -1.29  0.57
 O -2.87 -0.92 -0.59
 H -1.63 -0.28  3.56
 H -3.53 -0.75  2.46
 C -3.32  1.06  1.33
 C -4.77  1.01  0.83
 C -4.97  1.79 -0.48
 N -6.22  1.56 -1.16
 C -6.55  0.37 -1.80
 N -5.48 -0.39 -2.25
 N -7.81  0.12 -2.00
 H -2.67  1.46  0.54
 H -3.22  1.74  2.19
 H -5.46  1.39  1.60
 H -5.07 -0.03  0.65
 H -4.14  1.56 -1.16
 H -4.90  2.87 -0.29
 H -7.05  2.01 -0.79
 H -5.73 -1.33 -2.54
 H -4.60 -0.37 -1.74
 H -7.94 -0.74 -2.54
 N -2.39 -2.59  0.85
 C -2.15 -3.21  2.14
 H -2.32 -3.16  0.02
 H -2.27 -4.30  2.03
 H -2.87 -2.87  2.89
 H -1.14 -3.01  2.52
