35
#
 C -0.26 -0.45 -0.16
 C -0.08 -0.03  1.29
 O  1.03  0.13  1.78
 H  0.74 -0.47 -0.62
 H -0.89  0.24 -0.73
 H -0.70 -1.45 -0.24
 N -1.21  0.16  2.04
 C -2.61 -0.07  1.70
 C -3.41  1.16  2.21
 O -3.92  1.16  3.33
 H -1.01  0.40  3.01
 H -2.68 -0.12  0.61
 C -3.18 -1.36  2.30
 C -2.48 -2.63  1.82
 C -3.08 -3.89  2.44
 N -2.46 -5.14  2.01
 C -2.75 -5.67  0.77
 N -1.96 -6.79  0.48
 N -3.65 -5.13  0.01
 H -4.25 -1.41  2.04
 H -3.15 -1.28  3.40
 H -1.41 -2.58  2.07
 H -2.56 -2.72  0.73
 H -4.15 -3.96  2.18
 H -3.02 -3.84  3.54
 H -1.51 -5.29  2.33
 H -2.26 -7.30 -0.35
 H -1.80 -7.42  1.26
 H -3.83 -5.71 -0.81
 N -3.48  2.24  1.39
 C -2.80  2.45  0.12
 H -3.94  3.04  1.82
 H -1.71  2.48  0.23
 H -3.12  3.42 -0.29
 H -3.07  1.68 -0.62
