35
#
 C -0.32  0.48  1.33
 C -0.07  0.22  2.80
 O  0.81  0.81  3.43
 H  0.23  1.38  1.05
 H -1.38  0.59  1.08
 H  0.07 -0.36  0.73
 N -0.85 -0.71  3.44
 C -1.98 -1.51  2.96
 C -1.66 -2.32  1.68
 O -2.30 -2.18  0.64
 H -0.62 -0.84  4.42
 H -2.10 -2.26  3.76
 C -3.30 -0.73  2.82
 C -4.56 -1.58  3.03
 C -5.02 -1.72  4.49
 N -4.07 -2.38  5.40
 C -3.08 -1.72  6.11
 N -3.48 -0.51  6.66
 N -1.90 -2.25  6.18
 H -3.33 -0.28  1.82
 H -3.28  0.09  3.56
 H -4.42 -2.58  2.59
 H -5.40 -1.14  2.48
 H -5.96 -2.29  4.52
 H -5.24 -0.73  4.90
 H -3.72 -3.28  5.07
 H -4.43 -0.45  7.02
 H -2.80 -0.07  7.27
 H -1.33 -1.79  6.89
 N -0.63 -3.21  1.77
 C  0.22 -3.52  2.92
 H -0.44 -3.69  0.90
 H  0.63 -4.52  2.79
 H -0.36 -3.51  3.85
 H  1.05 -2.81  3.02
