35
#
 C  0.57 -1.05  0.41
 C -0.11 -0.65  1.70
 O -0.38 -1.48  2.59
 H  1.54 -1.49  0.65
 H  0.72 -0.22 -0.28
 H -0.03 -1.83 -0.08
 N -0.42  0.67  1.84
 C -1.02  1.23  3.05
 C -2.56  1.02  3.04
 O -3.35  1.95  2.84
 H -0.25  1.30  1.06
 H -0.60  0.65  3.89
 C -0.65  2.70  3.20
 C -1.15  3.30  4.53
 C -1.87  4.65  4.33
 N -2.62  5.13  5.47
 C -3.80  4.56  5.93
 N -4.54  3.87  4.97
 N -4.14  4.80  7.15
 H -1.11  3.25  2.36
 H  0.44  2.80  3.10
 H -0.31  3.43  5.24
 H -1.85  2.61  5.02
 H -2.54  4.57  3.47
 H -1.14  5.43  4.06
 H -2.10  5.54  6.24
 H -5.29  3.32  5.37
 H -4.06  3.39  4.21
 H -5.06  4.40  7.36
 N -2.92 -0.26  3.27
 C -4.30 -0.71  3.22
 H -2.16 -0.95  3.31
 H -4.56 -1.27  4.13
 H -4.47 -1.37  2.35
 H -4.95  0.17  3.13
