35
#
 C  0.02 -0.39 -0.41
 C  0.35  0.38  0.86
 O  1.51  0.65  1.16
 H -0.19  0.34 -1.21
 H -0.86 -1.05 -0.33
 H  0.90 -0.96 -0.69
 N -0.68  0.79  1.67
 C -2.13  0.65  1.52
 C -2.59 -0.83  1.49
 O -3.22 -1.30  0.55
 H -0.39  1.37  2.46
 H -2.52  1.05  2.47
 C -2.75  1.43  0.35
 C -2.24  2.87  0.16
 C -2.76  3.93  1.14
 N -2.33  3.80  2.54
 C -1.00  3.79  2.92
 N -0.21  4.73  2.28
 N -0.61  2.92  3.80
 H -3.84  1.43  0.48
 H -2.57  0.86 -0.57
 H -2.55  3.20 -0.85
 H -1.14  2.89  0.16
 H -3.86  3.93  1.16
 H -2.47  4.93  0.77
 H -2.84  3.11  3.08
 H  0.75  4.80  2.60
 H -0.64  5.61  2.01
 H  0.34  3.11  4.13
 N -2.26 -1.59  2.58
 C -1.51 -1.22  3.77
 H -2.55 -2.56  2.48
 H -1.77 -1.91  4.58
 H -1.76 -0.21  4.11
 H -0.42 -1.26  3.61
