35
#
 C  0.43 -0.88  0.83
 C  0.30  0.57  1.27
 O  1.26  1.32  1.34
 H  0.10 -0.98 -0.21
 H -0.18 -1.56  1.44
 H  1.48 -1.16  0.90
 N -0.96  1.02  1.61
 C -2.23  0.33  1.52
 C -2.54 -0.19  0.09
 O -2.21  0.42 -0.92
 H -0.99  1.99  1.91
 H -2.22 -0.55  2.20
 C -3.36  1.26  2.00
 C -3.87  2.33  1.02
 C -2.85  3.37  0.51
 N -1.99  3.96  1.52
 C -2.35  4.95  2.43
 N -3.73  5.11  2.62
 N -1.41  5.56  3.07
 H -3.02  1.74  2.93
 H -4.22  0.63  2.28
 H -4.71  2.84  1.53
 H -4.31  1.85  0.13
 H -3.40  4.14 -0.07
 H -2.19  2.87 -0.21
 H -1.01  4.06  1.27
 H -3.97  5.96  3.10
 H -4.31  4.96  1.80
 H -1.79  6.25  3.72
 N -3.26 -1.34  0.08
 C -3.73 -1.96 -1.15
 H -3.45 -1.80  0.96
 H -3.28 -2.96 -1.28
 H -3.41 -1.32 -1.98
 H -4.82 -2.06 -1.16
