35
#
 C  0.98  0.41  2.98
 C -0.11 -0.24  3.81
 O  0.13 -0.76  4.90
 H  0.62  0.84  2.03
 H  1.75 -0.34  2.76
 H  1.45  1.20  3.58
 N -1.36 -0.21  3.27
 C -2.52 -0.77  3.97
 C -2.62 -2.30  3.70
 O -3.41 -2.77  2.89
 H -1.50  0.15  2.34
 H -2.31 -0.63  5.04
 C -3.79 -0.02  3.57
 C -5.03 -0.38  4.40
 C -4.91 -0.10  5.91
 N -4.52  1.27  6.24
 C -5.39  2.28  6.61
 N -6.71  2.08  6.22
 N -5.09  3.35  7.27
 H -4.01 -0.23  2.52
 H -3.60  1.06  3.67
 H -5.28 -1.45  4.26
 H -5.89  0.18  3.99
 H -4.17 -0.78  6.36
 H -5.87 -0.33  6.40
 H -3.58  1.40  6.59
 H -6.85  1.72  5.28
 H -7.27  2.91  6.41
 H -4.13  3.32  7.62
 N -1.75 -3.02  4.44
 C -1.57 -4.45  4.26
 H -1.04 -2.49  4.96
 H -0.68 -4.68  3.66
 H -2.45 -4.84  3.75
 H -1.47 -4.95  5.24
