35
#
 C -1.23  1.43 -0.03
 C -1.01  0.80  1.32
 O  0.00  0.15  1.60
 H -0.74  0.82 -0.80
 H -0.77  2.42 -0.02
 H -2.30  1.55 -0.28
 N -2.01  1.01  2.24
 C -1.85  0.77  3.67
 C -2.42 -0.58  4.17
 O -2.34 -0.88  5.36
 H -2.76  1.63  1.96
 H -0.77  0.69  3.85
 C -2.44  1.92  4.49
 C -1.73  3.26  4.30
 C -0.32  3.35  4.95
 N  0.73  3.87  4.06
 C  1.16  3.07  2.99
 N  1.72  1.86  3.35
 N  1.06  3.53  1.79
 H -2.42  1.61  5.55
 H -3.51  2.02  4.23
 H -2.37  4.06  4.71
 H -1.62  3.48  3.23
 H -0.01  2.36  5.31
 H -0.35  3.99  5.84
 H  0.49  4.79  3.69
 H  1.76  1.64  4.34
 H  1.51  1.07  2.74
 H  1.58  2.93  1.14
 N -2.98 -1.37  3.22
 C -3.47 -2.70  3.50
 H -2.92 -1.05  2.26
 H -4.50 -2.83  3.14
 H -3.46 -2.84  4.59
 H -2.84 -3.48  3.04
