35
#
 C -1.09  1.59  0.85
 C -0.38  0.48  1.62
 O  0.77  0.59  2.04
 H -1.48  1.23 -0.11
 H -0.37  2.39  0.68
 H -1.94  1.98  1.42
 N -1.09 -0.68  1.82
 C -2.49 -0.94  1.53
 C -3.53 -0.13  2.33
 O -4.58  0.21  1.76
 H -0.57 -1.38  2.35
 H -2.69 -0.61  0.50
 C -2.81 -2.45  1.64
 C -2.97 -3.16  0.29
 C -4.08 -2.58 -0.61
 N -5.33 -2.24  0.06
 C -6.08 -3.16  0.80
 N -6.03 -4.47  0.32
 N -6.77 -2.90  1.85
 H -3.74 -2.58  2.21
 H -2.02 -2.94  2.22
 H -3.19 -4.22  0.49
 H -2.02 -3.14 -0.27
 H -4.26 -3.29 -1.44
 H -3.74 -1.66 -1.09
 H -5.32 -1.32  0.49
 H -6.07 -4.56 -0.70
 H -6.72 -5.04  0.78
 H -6.62 -1.94  2.16
 N -3.33  0.17  3.64
 C -2.28 -0.29  4.54
 H -4.11  0.67  4.05
 H -2.62 -0.10  5.57
 H -1.33  0.24  4.39
 H -2.10 -1.37  4.46
