35
#
 C -0.01 -0.19  0.77
 C -0.15  0.42  2.15
 O  0.81  0.92  2.73
 H -0.15 -1.28  0.81
 H  1.00  0.01  0.41
 H -0.74  0.23  0.06
 N -1.38  0.38  2.75
 C -2.63 -0.14  2.22
 C -3.53  1.02  1.74
 O -3.87  1.91  2.51
 H -1.44  0.92  3.61
 H -2.38 -0.79  1.38
 C -3.39 -0.96  3.29
 C -2.56 -2.05  3.97
 C -2.08 -3.16  3.03
 N -1.17 -4.10  3.66
 C  0.21 -4.11  3.46
 N  0.74 -2.88  3.05
 N  1.00 -5.11  3.61
 H -4.29 -1.39  2.81
 H -3.77 -0.25  4.04
 H -3.16 -2.50  4.78
 H -1.69 -1.59  4.46
 H -1.57 -2.72  2.15
 H -2.95 -3.71  2.64
 H -1.55 -5.00  3.92
 H  1.75 -2.92  3.03
 H  0.40 -2.06  3.55
 H  0.48 -5.98  3.76
 N -3.89  0.96  0.43
 C -4.73  1.97 -0.20
 H -3.54  0.20 -0.14
 H -5.65  1.52 -0.60
 H -4.19  2.48 -1.02
 H -4.99  2.70  0.56
