35
#
 C  1.03  0.27  0.85
 C  0.26 -0.20  2.06
 O  0.60 -1.20  2.70
 H  1.17 -0.57  0.16
 H  2.03  0.58  1.18
 H  0.57  1.11  0.31
 N -0.81  0.57  2.42
 C -1.73  0.21  3.51
 C -2.97  1.11  3.48
 O -4.07  0.68  3.81
 H -1.15  1.23  1.73
 H -2.11 -0.80  3.33
 C -1.09  0.21  4.92
 C -0.33  1.46  5.36
 C  1.18  1.44  5.08
 N  1.84  0.40  5.86
 C  3.04 -0.20  5.48
 N  3.12 -0.52  4.13
 N  3.95 -0.38  6.38
 H -0.42 -0.66  4.99
 H -1.93  0.01  5.61
 H -0.47  1.60  6.44
 H -0.75  2.38  4.91
 H  1.60  2.43  5.30
 H  1.37  1.24  4.02
 H  1.90  0.61  6.86
 H  3.93 -1.08  3.90
 H  2.26 -0.88  3.69
 H  4.71 -0.96  6.03
 N -2.78  2.41  3.08
 C -3.87  3.38  3.12
 H -1.83  2.77  3.05
 H -3.68  4.17  2.39
 H -3.98  3.83  4.12
 H -4.80  2.86  2.88
