35
#
 C  0.77 -1.25  0.34
 C  0.50 -0.56  1.67
 O  1.42 -0.21  2.41
 H  1.31 -2.18  0.54
 H  1.43 -0.61 -0.25
 H -0.13 -1.48 -0.23
 N -0.81 -0.37  1.98
 C -1.37  0.14  3.24
 C -1.16  1.66  3.49
 O -2.13  2.35  3.84
 H -1.49 -0.66  1.29
 H -2.45  0.06  3.13
 C -0.93 -0.67  4.48
 C -1.19 -2.17  4.39
 C -2.65 -2.56  4.19
 N -2.79 -4.01  4.23
 C -3.97 -4.65  3.85
 N -5.13 -3.95  4.16
 N -3.88 -5.78  3.23
 H -1.48 -0.24  5.34
 H  0.14 -0.50  4.67
 H -0.82 -2.65  5.31
 H -0.59 -2.60  3.57
 H -3.04 -2.15  3.24
 H -3.25 -2.10  5.00
 H -2.00 -4.52  3.86
 H -5.98 -4.50  4.08
 H -5.10 -3.39  5.01
 H -4.80 -6.22  3.11
 N  0.10  2.12  3.34
 C  0.46  3.50  3.58
 H  0.82  1.43  3.09
 H  0.92  3.95  2.68
 H  1.17  3.59  4.41
 H -0.45  4.05  3.83
