35
#
 C -0.67 -1.18  0.22
 C -0.20 -0.38  1.42
 O  0.99 -0.32  1.73
 H -1.16 -2.10  0.56
 H  0.21 -1.44 -0.37
 H -1.40 -0.64 -0.40
 N -1.14  0.23  2.22
 C -2.47  0.71  1.83
 C -3.42 -0.44  1.42
 O -3.99 -0.47  0.33
 H -0.72  0.70  3.02
 H -2.89  1.13  2.76
 C -2.47  1.84  0.78
 C -1.96  3.21  1.27
 C -0.45  3.52  1.15
 N  0.47  2.83  2.06
 C  0.35  2.84  3.44
 N -0.33  3.94  3.97
 N  0.77  1.92  4.24
 H -3.50  1.94  0.44
 H -1.91  1.51 -0.11
 H -2.29  3.39  2.30
 H -2.46  3.97  0.66
 H -0.32  4.61  1.26
 H -0.10  3.29  0.14
 H  0.87  1.97  1.71
 H -0.18  4.00  4.98
 H -0.17  4.82  3.50
 H  1.21  1.15  3.72
 N -3.60 -1.44  2.33
 C -3.06 -1.57  3.68
 H -4.22 -2.17  2.00
 H -3.07 -0.61  4.21
 H -2.03 -1.95  3.68
 H -3.70 -2.27  4.24
