35
#
 C -0.42 -1.70 -0.44
 C  0.09 -0.93  0.76
 O  1.29 -0.85  1.01
 H -0.84 -2.66 -0.11
 H  0.44 -1.90 -1.10
 H -1.19 -1.17 -1.01
 N -0.83 -0.34  1.59
 C -2.29 -0.29  1.51
 C -2.89 -1.73  1.42
 O -2.52 -2.61  2.20
 H -0.40  0.06  2.41
 H -2.61  0.05  2.51
 C -2.83  0.72  0.48
 C -2.28  2.13  0.65
 C -2.83  3.12 -0.39
 N -4.26  3.37 -0.32
 C -5.18  2.69 -1.09
 N -6.49  3.12 -0.83
 N -4.82  1.76 -1.91
 H -3.92  0.75  0.57
 H -2.61  0.39 -0.55
 H -1.18  2.12  0.57
 H -2.51  2.51  1.67
 H -2.63  2.74 -1.40
 H -2.31  4.08 -0.29
 H -4.61  3.79  0.53
 H -7.18  2.74 -1.47
 H -6.60  4.13 -0.72
 H -5.61  1.47 -2.50
 N -3.84 -1.92  0.47
 C -4.50 -3.19  0.27
 H -4.06 -1.16 -0.17
 H -5.59 -3.08  0.30
 H -4.18 -3.86  1.09
 H -4.21 -3.65 -0.69
