35
#
 C  0.25 -2.42  2.66
 C  0.49 -1.00  3.13
 O  1.62 -0.50  3.13
 H  0.80 -3.11  3.30
 H  0.65 -2.52  1.64
 H -0.82 -2.70  2.65
 N -0.61 -0.33  3.56
 C -0.60  1.09  3.90
 C -0.11  1.33  5.36
 O -0.84  1.74  6.26
 H -1.53 -0.77  3.52
 H  0.15  1.55  3.24
 C -1.96  1.73  3.56
 C -3.18  1.54  4.48
 C -3.52  0.13  4.99
 N -3.44 -0.98  4.02
 C -4.30 -1.19  2.93
 N -5.05 -0.09  2.54
 N -4.36 -2.27  2.23
 H -2.21  1.40  2.54
 H -1.80  2.82  3.49
 H -4.04  1.97  3.94
 H -3.05  2.14  5.39
 H -4.52  0.16  5.47
 H -2.81 -0.12  5.78
 H -3.25 -1.87  4.48
 H -5.43  0.50  3.27
 H -5.72 -0.34  1.82
 H -3.67 -2.96  2.55
 N  1.21  1.05  5.51
 C  1.89  1.12  6.79
 H  1.68  0.62  4.70
 H  1.22  1.62  7.50
 H  2.82  1.68  6.70
 H  2.12  0.11  7.17
