35
#
 C -3.74  0.43  0.41
 C -2.66 -0.02  1.37
 O -1.80 -0.84  1.04
 H -3.26  0.86 -0.47
 H -4.43  1.17  0.84
 H -4.31 -0.44  0.08
 N -2.71  0.52  2.62
 C -1.72  0.20  3.66
 C -2.14 -1.08  4.42
 O -2.62 -1.05  5.55
 H -3.49  1.11  2.88
 H -0.79 -0.02  3.12
 C -1.52  1.38  4.61
 C -1.07  2.68  3.95
 C  0.29  2.60  3.24
 N  0.74  3.87  2.69
 C  1.72  4.67  3.27
 N  1.81  4.54  4.66
 N  2.45  5.40  2.51
 H -0.78  1.07  5.36
 H -2.45  1.54  5.18
 H -1.03  3.47  4.72
 H -1.82  3.03  3.22
 H  0.23  1.88  2.41
 H  1.05  2.21  3.94
 H  0.79  3.94  1.68
 H  2.41  5.24  5.10
 H  0.93  4.44  5.16
 H  3.04  6.04  3.05
 N -1.93 -2.21  3.69
 C -2.35 -3.52  4.15
 H -1.64 -2.09  2.72
 H -3.24 -3.88  3.61
 H -2.60 -3.45  5.22
 H -1.54 -4.25  4.02
