35
#
 C -0.68 -0.17  0.10
 C -0.34  0.14  1.55
 O  0.83  0.32  1.90
 H -0.13 -1.07 -0.21
 H -0.32  0.66 -0.53
 H -1.75 -0.33 -0.10
 N -1.42  0.21  2.38
 C -1.51  0.41  3.83
 C -2.08  1.77  4.28
 O -2.83  1.79  5.27
 H -2.32  0.05  1.93
 H -2.32 -0.27  4.15
 C -0.28  0.01  4.68
 C  0.80  1.06  4.90
 C  1.91  0.54  5.83
 N  3.02  1.48  6.03
 C  2.85  2.71  6.66
 N  1.94  2.70  7.71
 N  3.46  3.81  6.37
 H  0.15 -0.90  4.24
 H -0.69 -0.28  5.66
 H  0.37  1.96  5.36
 H  1.25  1.34  3.94
 H  2.35 -0.38  5.41
 H  1.49  0.26  6.80
 H  3.63  1.56  5.22
 H  1.94  1.87  8.29
 H  1.98  3.56  8.24
 H  4.00  3.72  5.51
 N -1.78  2.92  3.62
 C -0.83  3.19  2.54
 H -2.24  3.73  4.04
 H -0.44  4.21  2.67
 H -1.31  3.12  1.55
 H  0.02  2.50  2.57
