35
#
 C  0.53 -0.54  2.26
 C -0.25 -0.04  3.46
 O  0.33  0.26  4.51
 H  0.68 -1.63  2.37
 H  0.06 -0.36  1.29
 H  1.51 -0.07  2.29
 N -1.63  0.01  3.42
 C -2.61 -0.10  2.34
 C -2.28 -1.20  1.31
 O -2.18 -0.96  0.10
 H -1.99  0.37  4.30
 H -3.53 -0.46  2.83
 C -2.97  1.24  1.68
 C -1.81  2.05  1.06
 C -2.22  2.75 -0.23
 N -2.49  1.76 -1.26
 C -3.37  2.02 -2.28
 N -3.71  0.88 -3.02
 N -3.83  3.22 -2.47
 H -3.48  1.85  2.43
 H -3.72  1.02  0.91
 H -0.96  1.40  0.84
 H -1.44  2.79  1.78
 H -1.42  3.43 -0.56
 H -3.12  3.38 -0.09
 H -2.40  0.79 -0.96
 H -4.06  1.09 -3.95
 H -3.00  0.15 -3.04
 H -4.44  3.25 -3.28
 N -2.16 -2.47  1.77
 C -2.28 -2.97  3.13
 H -1.94 -3.14  1.04
 H -2.51 -4.04  3.09
 H -3.10 -2.47  3.66
 H -1.36 -2.83  3.72
