35
#
 C  0.58  0.59  0.30
 C  0.23 -0.12  1.60
 O  0.91 -1.05  2.05
 H  0.83 -0.16 -0.45
 H  1.48  1.20  0.47
 H -0.22  1.23 -0.07
 N -0.88  0.36  2.23
 C -1.40 -0.25  3.45
 C -2.26 -1.48  3.07
 O -3.50 -1.47  3.10
 H -1.56  0.93  1.71
 H -0.52 -0.64  3.98
 C -2.13  0.74  4.37
 C -2.81  1.99  3.77
 C -3.90  1.78  2.71
 N -3.33  1.69  1.35
 C -3.94  0.96  0.30
 N -4.61 -0.17  0.70
 N -3.87  1.27 -0.95
 H -1.41  1.10  5.11
 H -2.89  0.17  4.92
 H -2.04  2.68  3.37
 H -3.26  2.53  4.61
 H -4.62  2.61  2.75
 H -4.45  0.86  2.92
 H -3.05  2.61  1.00
 H -4.30 -0.67  1.53
 H -4.89 -0.75 -0.08
 H -3.44  2.19 -1.08
 N -1.52 -2.55  2.69
 C -2.11 -3.76  2.16
 H -0.52 -2.39  2.58
 H -1.58 -4.64  2.54
 H -2.08 -3.79  1.06
 H -3.16 -3.81  2.48
