35
#
 C  1.51 -1.88  1.12
 C  0.94 -1.68  2.52
 O  1.59 -1.90  3.54
 H  2.32 -2.62  1.17
 H  1.92 -0.93  0.76
 H  0.74 -2.21  0.40
 N -0.33 -1.18  2.55
 C -0.97 -0.71  3.75
 C -2.44 -0.43  3.39
 O -2.79 -0.23  2.23
 H -0.84 -0.99  1.69
 H -0.92 -1.51  4.51
 C -0.30  0.54  4.38
 C -0.35  1.84  3.56
 C  0.44  1.81  2.26
 N  0.66  3.16  1.74
 C  1.45  3.31  0.61
 N  1.43  4.63  0.13
 N  2.09  2.31  0.12
 H  0.75  0.27  4.58
 H -0.77  0.72  5.36
 H  0.07  2.64  4.20
 H -1.40  2.13  3.36
 H -0.06  1.18  1.50
 H  1.43  1.36  2.42
 H -0.17  3.75  1.74
 H  2.13  4.81 -0.59
 H  1.43  5.35  0.85
 H  2.72  2.61 -0.63
 N -3.29 -0.39  4.45
 C -4.70 -0.06  4.31
 H -2.93 -0.61  5.37
 H -4.96  0.83  4.90
 H -5.33 -0.90  4.64
 H -4.90  0.13  3.25
