35
#
 C  0.01  0.74 -0.20
 C  0.19  0.58  1.30
 O  1.30  0.61  1.82
 H -0.68  1.56 -0.45
 H -0.37 -0.19 -0.65
 H  0.99  0.97 -0.63
 N -0.93  0.39  2.08
 C -2.34  0.20  1.72
 C -2.53 -1.14  0.94
 O -2.27 -2.18  1.54
 H -0.68  0.16  3.03
 H -2.81 -0.07  2.68
 C -3.04  1.49  1.27
 C -4.56  1.43  1.42
 C -5.25  2.66  0.85
 N -6.70  2.57  1.03
 C -7.57  3.55  0.56
 N -7.11  4.86  0.75
 N -8.67  3.19  0.00
 H -2.76  1.78  0.25
 H -2.65  2.30  1.92
 H -4.83  1.32  2.48
 H -4.96  0.53  0.91
 H -4.98  2.79 -0.22
 H -4.88  3.56  1.37
 H -7.08  1.66  0.78
 H -7.81  5.57  0.59
 H -6.57  5.02  1.60
 H -9.28  3.98 -0.18
 N -2.97 -1.20 -0.36
 C -3.31 -0.20 -1.36
 H -3.04 -2.17 -0.65
 H -4.22  0.36 -1.12
 H -3.50 -0.74 -2.30
 H -2.49  0.50 -1.55
