35
#
 C -1.69  0.22  0.07
 C -1.24  0.75  1.42
 O -0.69  1.83  1.55
 H -0.80 -0.09 -0.49
 H -2.17  1.03 -0.49
 H -2.38 -0.63  0.13
 N -1.53 -0.07  2.49
 C -1.03  0.10  3.86
 C -1.27  1.52  4.43
 O -0.49  2.04  5.23
 H -1.92 -0.98  2.27
 H -1.68 -0.54  4.48
 C  0.41 -0.38  4.09
 C  1.53  0.41  3.38
 C  2.77  0.54  4.25
 N  2.49  1.40  5.38
 C  3.29  1.45  6.50
 N  2.73  2.18  7.55
 N  4.45  0.90  6.67
 H  0.45 -1.44  3.81
 H  0.57 -0.34  5.18
 H  1.18  1.41  3.10
 H  1.80 -0.09  2.44
 H  3.60  0.96  3.65
 H  3.10 -0.46  4.60
 H  1.51  1.67  5.49
 H  3.43  2.40  8.25
 H  2.19  2.99  7.27
 H  4.71  0.32  5.87
 N -2.46  2.09  4.09
 C -2.79  3.45  4.47
 H -2.96  1.67  3.32
 H -3.88  3.57  4.52
 H -2.38  4.19  3.76
 H -2.37  3.65  5.46
