35
#
 C -0.51 -1.41  1.58
 C  0.29 -0.13  1.49
 O  1.50 -0.11  1.72
 H  0.19 -2.25  1.64
 H -1.18 -1.56  0.72
 H -1.14 -1.42  2.49
 N -0.38  1.01  1.13
 C -1.80  1.25  1.18
 C -2.08  2.47  0.27
 O -1.22  3.34  0.09
 H  0.19  1.86  1.10
 H -2.34  0.38  0.76
 C -2.34  1.53  2.62
 C -1.51  2.56  3.41
 C -0.40  1.92  4.26
 N  0.62  2.84  4.74
 C  1.48  3.52  3.88
 N  1.83  2.81  2.73
 N  1.85  4.71  4.20
 H -2.36  0.57  3.16
 H -3.38  1.85  2.53
 H -2.18  3.13  4.07
 H -1.06  3.29  2.72
 H  0.10  1.11  3.71
 H -0.84  1.44  5.15
 H  0.33  3.47  5.48
 H  2.59  3.24  2.20
 H  1.90  1.80  2.76
 H  2.57  5.06  3.56
 N -3.33  2.53 -0.25
 C -3.80  3.65 -1.05
 H -3.97  1.76 -0.07
 H -4.66  4.14 -0.57
 H -4.10  3.32 -2.06
 H -2.98  4.36 -1.13
