35
#
 C  0.95  0.08  1.61
 C -0.09 -0.07  2.70
 O  0.18  0.11  3.89
 H  0.78 -0.55  0.73
 H  1.93 -0.15  2.04
 H  0.97  1.12  1.26
 N -1.38 -0.45  2.35
 C -1.99 -0.49  1.02
 C -1.43 -1.66  0.17
 O -1.38 -1.62 -1.06
 H -2.01 -0.38  3.14
 H -3.04 -0.77  1.20
 C -2.00  0.88  0.30
 C -3.05  1.06 -0.82
 C -2.50  1.08 -2.26
 N -1.43  2.03 -2.48
 C -0.07  1.78 -2.38
 N  0.31  0.45 -2.47
 N  0.86  2.69 -2.30
 H -1.00  1.12 -0.08
 H -2.20  1.61  1.10
 H -3.57  2.01 -0.64
 H -3.83  0.28 -0.75
 H -3.34  1.32 -2.94
 H -2.16  0.08 -2.55
 H -1.67  3.00 -2.33
 H  1.30  0.34 -2.30
 H -0.28 -0.26 -2.05
 H  0.46  3.63 -2.34
 N -1.07 -2.75  0.89
 C -0.55 -3.97  0.28
 H -1.07 -2.65  1.90
 H -1.12 -4.84  0.61
 H  0.51 -4.11  0.54
 H -0.64 -3.87 -0.81
