35
#
 C -0.88  1.37 -0.32
 C -0.81  0.38  0.82
 O -0.18 -0.68  0.73
 H  0.14  1.67 -0.59
 H -1.46  2.28 -0.08
 H -1.32  0.88 -1.19
 N -1.46  0.74  1.97
 C -1.46 -0.10  3.16
 C -2.57 -1.19  3.04
 O -3.66 -1.08  3.61
 H -2.04  1.57  1.97
 H -0.49 -0.61  3.16
 C -1.62  0.76  4.42
 C -1.52 -0.00  5.74
 C -0.19 -0.73  5.96
 N -0.15 -1.31  7.29
 C  0.96 -1.89  7.88
 N  2.16 -1.70  7.18
 N  1.00 -2.50  9.01
 H -2.60  1.25  4.38
 H -0.85  1.55  4.38
 H -2.35 -0.72  5.81
 H -1.66  0.72  6.56
 H  0.64 -0.01  5.87
 H -0.05 -1.50  5.17
 H -1.04 -1.65  7.65
 H  2.91 -2.23  7.61
 H  2.12 -1.82  6.17
 H  0.09 -2.46  9.49
 N -2.20 -2.23  2.26
 C -3.12 -3.30  1.90
 H -1.34 -2.11  1.72
 H -2.61 -4.27  1.95
 H -3.52 -3.16  0.89
 H -3.95 -3.29  2.61
