35
#
 C  0.39 -0.26 -0.00
 C  0.11  0.22  1.41
 O  1.03  0.54  2.17
 H  1.47 -0.28 -0.14
 H -0.06  0.41 -0.75
 H -0.01 -1.27 -0.19
 N -1.19  0.28  1.82
 C -2.41  0.06  1.06
 C -3.35  1.25  1.32
 O -3.35  1.83  2.40
 H -1.34  0.74  2.72
 H -2.15  0.00 -0.01
 C -3.14 -1.24  1.47
 C -2.31 -2.51  1.27
 C -3.05 -3.81  1.64
 N -4.17 -4.15  0.79
 C -5.49 -3.81  1.05
 N -6.34 -4.15 -0.01
 N -5.99 -3.24  2.09
 H -4.08 -1.31  0.90
 H -3.43 -1.15  2.53
 H -1.39 -2.45  1.87
 H -1.99 -2.59  0.22
 H -3.41 -3.77  2.68
 H -2.33 -4.65  1.61
 H -3.95 -4.31 -0.19
 H -7.31 -4.02  0.26
 H -6.18 -5.09 -0.39
 H -5.27 -2.92  2.75
 N -4.20  1.55  0.29
 C -5.24  2.55  0.40
 H -4.14  0.99 -0.56
 H -5.11  3.06  1.36
 H -6.24  2.09  0.37
 H -5.16  3.29 -0.41
