35
#
 C -0.48 -0.46  1.04
 C -0.37 -0.36  2.55
 O  0.70 -0.09  3.11
 H  0.23 -1.22  0.69
 H -0.18  0.50  0.61
 H -1.49 -0.71  0.69
 N -1.52 -0.57  3.25
 C -1.62 -0.45  4.70
 C -1.15 -1.74  5.43
 O -1.91 -2.43  6.12
 H -2.35 -0.87  2.74
 H -0.91  0.34  4.98
 C -3.03 -0.00  5.13
 C -4.19 -0.88  4.63
 C -5.53 -0.48  5.23
 N -5.92  0.86  4.84
 C -7.03  1.48  5.41
 N -7.32  2.70  4.78
 N -7.76  1.08  6.38
 H -3.18  1.03  4.80
 H -3.04  0.00  6.23
 H -3.99 -1.93  4.90
 H -4.28 -0.84  3.53
 H -5.46 -0.51  6.33
 H -6.30 -1.23  4.95
 H -5.81  1.06  3.85
 H -8.05  3.19  5.29
 H -6.52  3.29  4.61
 H -7.53  0.12  6.65
 N  0.17 -2.00  5.25
 C  0.82 -3.17  5.80
 H  0.68 -1.36  4.64
 H  1.69 -2.88  6.41
 H  1.16 -3.85  5.01
 H  0.10 -3.69  6.44
