35
#
 C -0.93  0.65  0.33
 C -0.90  0.48  1.84
 O -0.55  1.37  2.61
 H  0.11  0.67 -0.04
 H -1.38  1.62  0.10
 H -1.46 -0.15 -0.20
 N -1.28 -0.76  2.30
 C -1.30 -1.13  3.71
 C -2.05 -0.12  4.61
 O -1.58  0.27  5.67
 H -1.59 -1.44  1.62
 H -1.88 -2.07  3.75
 C  0.09 -1.42  4.30
 C  0.93 -2.42  3.49
 C  1.97 -1.75  2.57
 N  2.62 -2.64  1.63
 C  1.99 -3.07  0.48
 N  2.69 -4.08 -0.19
 N  0.87 -2.65 -0.01
 H -0.06 -1.78  5.32
 H  0.63 -0.46  4.41
 H  0.28 -3.07  2.87
 H  1.46 -3.10  4.17
 H  2.74 -1.27  3.19
 H  1.51 -0.93  2.00
 H  3.25 -3.33  2.04
 H  2.28 -4.26 -1.10
 H  3.69 -3.94 -0.24
 H  0.42 -2.00  0.64
 N -3.31  0.27  4.23
 C -4.10 -0.12  3.07
 H -3.71  0.95  4.86
 H -5.16  0.06  3.30
 H -4.00 -1.19  2.85
 H -3.84  0.45  2.16
