35
#
 C -0.45  0.47 -0.30
 C -0.22  0.52  1.20
 O  0.84  0.14  1.70
 H -0.40 -0.58 -0.63
 H  0.35  1.01 -0.80
 H -1.42  0.88 -0.62
 N -1.25  1.04  1.93
 C -1.42  1.11  3.39
 C -1.15  2.47  4.07
 O -1.84  2.74  5.06
 H -2.06  1.33  1.40
 H -2.51  1.06  3.51
 C -0.85 -0.10  4.20
 C  0.23  0.16  5.25
 C  1.67  0.29  4.72
 N  2.66  0.54  5.75
 C  2.93  1.81  6.24
 N  3.89  1.80  7.26
 N  2.42  2.94  5.86
 H -0.49 -0.85  3.48
 H -1.71 -0.55  4.72
 H  0.21 -0.68  5.96
 H -0.03  1.05  5.85
 H  1.76  1.09  3.98
 H  1.95 -0.63  4.19
 H  2.83 -0.21  6.41
 H  4.14  2.75  7.51
 H  4.70  1.23  7.07
 H  1.62  2.78  5.24
 N -0.19  3.34  3.64
 C  0.75  3.29  2.52
 H -0.18  4.18  4.21
 H  0.29  3.65  1.59
 H  1.14  2.29  2.36
 H  1.59  3.94  2.77
