35
#
 C -0.88  1.76  2.23
 C -0.65  0.60  3.18
 O  0.07  0.71  4.19
 H -1.52  1.51  1.38
 H  0.10  2.10  1.86
 H -1.32  2.59  2.79
 N -1.28 -0.56  2.86
 C -1.27 -1.76  3.71
 C  0.02 -2.62  3.52
 O -0.02 -3.79  3.14
 H -1.80 -0.61  2.00
 H -1.24 -1.39  4.75
 C -2.55 -2.58  3.51
 C -2.87 -2.97  2.07
 C -4.07 -3.92  1.99
 N -4.49 -4.20  0.63
 C -5.30 -3.33 -0.09
 N -5.62 -3.83 -1.35
 N -5.78 -2.19  0.29
 H -3.39 -2.01  3.94
 H -2.43 -3.49  4.12
 H -2.00 -3.46  1.61
 H -3.11 -2.08  1.46
 H -4.91 -3.51  2.58
 H -3.80 -4.88  2.46
 H -4.56 -5.18  0.37
 H -4.84 -4.23 -1.86
 H -6.12 -3.13 -1.90
 H -5.60 -2.02  1.28
 N  1.15 -1.95  3.84
 C  2.47 -2.54  3.72
 H  1.05 -0.98  4.15
 H  2.99 -2.53  4.69
 H  3.08 -1.99  2.99
 H  2.35 -3.57  3.39
