35
#
 C  1.47  0.97  0.37
 C  1.01  2.04  1.35
 O  1.78  2.91  1.76
 H  1.26 -0.04  0.73
 H  0.98  1.10 -0.61
 H  2.55  1.08  0.24
 N -0.29  2.00  1.79
 C -1.36  1.23  1.18
 C -1.98  2.00 -0.01
 O -2.01  3.23 -0.07
 H -0.57  2.85  2.29
 H -0.92  0.31  0.77
 C -2.42  0.78  2.22
 C -2.85  1.81  3.27
 C -3.73  2.97  2.75
 N -3.63  4.21  3.51
 C -2.43  4.90  3.66
 N -1.53  4.72  2.61
 N -2.25  5.59  4.73
 H -1.98 -0.08  2.75
 H -3.30  0.39  1.69
 H -1.96  2.23  3.76
 H -3.39  1.28  4.07
 H -4.78  2.67  2.74
 H -3.48  3.19  1.70
 H -4.15  4.24  4.38
 H -0.75  5.37  2.61
 H -1.89  4.54  1.67
 H -1.38  6.14  4.68
 N -2.52  1.25 -1.02
 C -2.47 -0.20 -1.18
 H -2.91  1.80 -1.77
 H -2.97 -0.73 -0.35
 H -1.44 -0.58 -1.26
 H -3.00 -0.46 -2.10
