35
#
 C  0.18 -0.03  2.06
 C -0.53 -0.32  3.37
 O  0.06 -0.80  4.33
 H  1.25 -0.21  2.21
 H  0.04  1.01  1.73
 H -0.18 -0.69  1.26
 N -1.87 -0.04  3.46
 C -2.79  0.52  2.47
 C -2.85 -0.39  1.21
 O -3.15 -1.57  1.38
 H -2.28 -0.38  4.32
 H -3.79  0.34  2.89
 C -2.66  2.05  2.34
 C -2.94  2.76  3.66
 C -2.67  4.28  3.59
 N -2.89  5.01  4.83
 C -2.18  4.75  6.00
 N -0.82  4.51  5.83
 N -2.80  4.86  7.12
 H -3.37  2.41  1.57
 H -1.66  2.33  1.98
 H -2.31  2.33  4.45
 H -3.99  2.60  3.97
 H -3.32  4.74  2.82
 H -1.65  4.45  3.23
 H -3.86  5.17  5.06
 H -0.49  4.24  4.91
 H -0.38  3.99  6.57
 H -2.16  4.79  7.91
 N -2.65  0.07 -0.07
 C -2.12  1.32 -0.60
 H -2.80 -0.68 -0.74
 H -1.19  1.62 -0.11
 H -2.84  2.14 -0.54
 H -1.89  1.15 -1.66
