35
#
 C -0.39 -0.09 -0.48
 C -0.15 -0.44  0.98
 O  0.95 -0.75  1.42
 H  0.58 -0.10 -0.99
 H -0.85  0.90 -0.59
 H -1.06 -0.82 -0.95
 N -1.25 -0.37  1.82
 C -2.64 -0.12  1.46
 C -2.95  1.37  1.19
 O -3.92  1.70  0.51
 H -1.05 -0.72  2.76
 H -2.89 -0.65  0.52
 C -3.55 -0.67  2.58
 C -5.03 -0.78  2.20
 C -5.92 -1.24  3.36
 N -5.57 -2.52  3.97
 C -5.80 -3.71  3.31
 N -5.28 -4.82  4.02
 N -6.40 -3.74  2.17
 H -3.43 -0.03  3.47
 H -3.17 -1.67  2.84
 H -5.14 -1.49  1.36
 H -5.40  0.19  1.84
 H -6.95 -1.33  2.99
 H -5.92 -0.49  4.16
 H -4.78 -2.52  4.60
 H -5.57 -5.71  3.63
 H -5.43 -4.78  5.02
 H -6.61 -4.69  1.88
 N -2.10  2.25  1.79
 C -2.25  3.69  1.66
 H -1.29  1.86  2.26
 H -2.35  4.16  2.65
 H -3.15  3.88  1.07
 H -1.38  4.13  1.14
