35
#
 C  0.07  0.56 -0.18
 C  0.39  0.42  1.29
 O  1.56  0.50  1.69
 H  0.91  0.15 -0.74
 H -0.00  1.63 -0.44
 H -0.85  0.04 -0.47
 N -0.62  0.23  2.20
 C -2.07  0.28  2.12
 C -2.67 -0.99  1.46
 O -2.12 -1.60  0.55
 H -0.27  0.17  3.17
 H -2.38  0.27  3.17
 C -2.66  1.55  1.47
 C -2.81  2.79  2.36
 C -1.54  3.44  2.95
 N -1.09  2.84  4.20
 C  0.08  2.11  4.36
 N  1.22  2.62  3.76
 N  0.02  1.02  5.07
 H -3.67  1.30  1.09
 H -2.07  1.80  0.57
 H -3.50  2.57  3.19
 H -3.32  3.56  1.76
 H -1.74  4.51  3.11
 H -0.72  3.38  2.22
 H -1.83  2.46  4.79
 H  1.76  1.91  3.25
 H  1.11  3.48  3.24
 H  0.97  0.69  5.28
 N -3.90 -1.38  1.93
 C -4.66 -0.83  3.04
 H -4.26 -2.19  1.45
 H -5.56 -1.44  3.17
 H -4.98  0.21  2.87
 H -4.09 -0.87  3.99
