35
#
 C -1.53 -0.02 -0.12
 C -1.44 -1.17  0.86
 O -0.62 -2.07  0.73
 H -0.73  0.70  0.11
 H -2.49  0.51 -0.10
 H -1.35 -0.40 -1.13
 N -2.36 -1.12  1.89
 C -2.32 -1.93  3.09
 C -1.20 -1.44  4.04
 O -0.22 -0.81  3.63
 H -2.88 -0.25  1.96
 H -3.26 -1.72  3.62
 C -2.33 -3.47  2.76
 C -1.44 -4.39  3.60
 C  0.08 -4.21  3.33
 N  0.84 -4.18  4.58
 C  2.10 -3.60  4.69
 N  2.31 -2.48  3.90
 N  2.95 -4.16  5.50
 H -2.03 -3.57  1.71
 H -3.37 -3.81  2.83
 H -1.74 -5.42  3.38
 H -1.62 -4.25  4.67
 H  0.25 -3.28  2.78
 H  0.43 -5.02  2.66
 H  0.85 -5.06  5.09
 H  3.16 -1.97  4.12
 H  1.51 -1.88  3.71
 H  3.78 -3.58  5.61
 N -1.41 -1.71  5.35
 C -0.41 -1.47  6.38
 H -2.21 -2.29  5.59
 H -0.89 -1.15  7.31
 H  0.26 -0.68  6.02
 H  0.19 -2.38  6.57
