35
#
 C -0.30  0.24 -0.51
 C -0.06 -0.53  0.78
 O  0.99 -1.13  1.00
 H  0.51  0.00 -1.20
 H -0.30  1.32 -0.32
 H -1.26 -0.01 -0.97
 N -1.07 -0.53  1.70
 C -2.32  0.22  1.66
 C -2.17  1.76  1.67
 O -2.88  2.44  0.93
 H -0.86 -1.06  2.55
 H -2.84  0.03  0.71
 C -3.24 -0.26  2.80
 C -4.65  0.32  2.75
 C -5.58 -0.22  3.84
 N -5.78 -1.66  3.79
 C -5.13 -2.57  4.61
 N -5.58 -3.87  4.42
 N -4.21 -2.34  5.49
 H -2.78 -0.02  3.77
 H -3.29 -1.35  2.74
 H -5.10  0.10  1.76
 H -4.63  1.42  2.83
 H -6.56  0.26  3.75
 H -5.19  0.06  4.84
 H -6.70 -1.97  3.47
 H -5.00 -4.53  4.94
 H -5.69 -4.15  3.45
 H -4.06 -1.33  5.63
 N -1.28  2.36  2.52
 C -0.35  1.78  3.48
 H -1.27  3.37  2.41
 H -0.83  1.05  4.13
 H  0.01  2.59  4.12
 H  0.52  1.31  3.00
