35
#
 C -0.16 -0.34 -0.29
 C -0.01 -0.18  1.21
 O  1.06 -0.37  1.79
 H  0.83 -0.27 -0.74
 H -0.83  0.41 -0.74
 H -0.56 -1.34 -0.51
 N -1.13  0.20  1.92
 C -2.52  0.14  1.49
 C -3.16  1.51  1.17
 O -4.33  1.57  0.79
 H -0.96  0.21  2.93
 H -2.56 -0.41  0.55
 C -3.38 -0.60  2.53
 C -2.91 -2.03  2.85
 C -2.95 -2.98  1.64
 N -2.37 -4.29  1.92
 C -1.14 -4.71  1.45
 N -0.24 -3.67  1.18
 N -0.77 -5.93  1.22
 H -4.42 -0.60  2.16
 H -3.40 -0.01  3.46
 H -3.53 -2.44  3.65
 H -1.88 -2.01  3.25
 H -2.41 -2.55  0.79
 H -4.00 -3.12  1.32
 H -3.03 -5.05  2.08
 H  0.67 -4.05  0.93
 H -0.15 -2.97  1.91
 H -1.56 -6.58  1.30
 N -2.34  2.58  1.33
 C -2.77  3.94  1.05
 H -1.39  2.39  1.62
 H -3.82  3.90  0.74
 H -2.18  4.38  0.23
 H -2.67  4.57  1.94
