35
#
 C  0.20 -0.52 -0.25
 C  0.14 -1.27  1.06
 O  0.95 -2.17  1.31
 H -0.68 -0.72 -0.88
 H  1.09 -0.88 -0.78
 H  0.28  0.56 -0.11
 N -0.81 -0.95  2.02
 C -1.99 -0.09  2.14
 C -3.26 -0.94  2.41
 O -3.86 -0.79  3.47
 H -0.67 -1.55  2.83
 H -1.88  0.44  3.10
 C -2.19  0.98  1.06
 C -3.45  1.83  1.24
 C -3.54  2.62  2.56
 N -4.45  3.75  2.54
 C -5.82  3.56  2.55
 N -6.52  4.77  2.45
 N -6.32  2.37  2.62
 H -2.22  0.54  0.06
 H -1.30  1.64  1.08
 H -4.36  1.22  1.14
 H -3.48  2.55  0.40
 H -2.54  3.02  2.82
 H -3.86  1.95  3.37
 H -4.14  4.56  2.00
 H -6.14  5.53  3.01
 H -7.52  4.68  2.59
 H -7.34  2.41  2.77
 N -3.68 -1.85  1.48
 C -3.09 -2.24  0.21
 H -4.51 -2.36  1.80
 H -2.12 -2.73  0.34
 H -2.98 -1.39 -0.47
 H -3.77 -2.96 -0.27
