35
#
 C -1.64  1.91  0.14
 C -1.25  1.59  1.57
 O -0.16  1.96  2.03
 H -2.64  1.57 -0.13
 H -0.91  1.44 -0.53
 H -1.57  3.00 -0.01
 N -2.16  0.88  2.28
 C -2.01  0.34  3.64
 C -2.01  1.40  4.77
 O -2.78  1.27  5.73
 H -3.04  0.67  1.82
 H -2.93 -0.23  3.83
 C -0.82 -0.65  3.74
 C -0.71 -1.40  5.08
 C  0.06 -0.63  6.18
 N  0.30 -1.41  7.38
 C  1.28 -2.38  7.45
 N  1.20 -3.13  8.63
 N  2.21 -2.66  6.60
 H  0.12 -0.13  3.51
 H -0.97 -1.39  2.93
 H -0.18 -2.35  4.90
 H -1.71 -1.66  5.45
 H -0.50  0.27  6.48
 H  1.03 -0.29  5.79
 H -0.53 -1.58  7.95
 H  2.01 -3.73  8.73
 H  1.03 -2.58  9.47
 H  2.09 -2.13  5.73
 N -1.11  2.40  4.64
 C -0.95  3.44  5.64
 H -0.51  2.38  3.80
 H -0.74  4.39  5.15
 H -0.13  3.21  6.34
 H -1.88  3.51  6.21
