35
#
 C -0.43 -1.84  0.17
 C  0.05 -1.22  1.47
 O  1.19 -0.77  1.61
 H  0.42 -1.89 -0.52
 H -1.23 -1.24 -0.28
 H -0.84 -2.85  0.33
 N -0.85 -1.18  2.50
 C -2.24 -1.62  2.48
 C -3.23 -0.70  1.74
 O -4.12 -1.20  1.06
 H -0.48 -0.77  3.35
 H -2.28 -2.57  1.93
 C -2.71 -1.92  3.92
 C -4.09 -2.58  4.02
 C -4.18 -3.97  3.37
 N -3.29 -4.96  3.98
 C -2.15 -5.40  3.35
 N -1.55 -6.48  4.02
 N -1.74 -4.87  2.25
 H -2.71 -1.00  4.52
 H -1.95 -2.59  4.36
 H -4.85 -1.94  3.55
 H -4.36 -2.67  5.08
 H -3.94 -3.92  2.30
 H -5.21 -4.34  3.45
 H -3.73 -5.63  4.60
 H -1.59 -6.43  5.04
 H -0.61 -6.70  3.70
 H -0.84 -5.27  1.96
 N -3.13  0.66  1.87
 C -2.20  1.48  2.64
 H -3.83  1.15  1.32
 H -2.60  2.50  2.67
 H -1.19  1.51  2.21
 H -2.13  1.14  3.69
