35
#
 C -0.37  1.36  0.14
 C -0.12  0.40  1.30
 O  1.00  0.27  1.79
 H  0.59  1.77 -0.17
 H -1.03  2.18  0.44
 H -0.84  0.86 -0.72
 N -1.20 -0.28  1.78
 C -2.58 -0.23  1.32
 C -3.47 -0.49  2.54
 O -3.11 -1.26  3.44
 H -1.05 -0.88  2.59
 H -2.79  0.78  0.93
 C -2.85 -1.29  0.21
 C -4.20 -1.14 -0.50
 C -4.28  0.12 -1.38
 N -5.62  0.56 -1.70
 C -6.35  1.34 -0.83
 N -7.63  1.63 -1.30
 N -5.85  1.71  0.31
 H -2.76 -2.28  0.67
 H -2.03 -1.22 -0.53
 H -5.01 -1.11  0.25
 H -4.39 -2.03 -1.12
 H -3.74 -0.05 -2.32
 H -3.79  0.97 -0.88
 H -6.16 -0.03 -2.33
 H -8.15  2.29 -0.74
 H -7.70  1.82 -2.30
 H -6.45  2.41  0.75
 N -4.67  0.14  2.53
 C -5.65 -0.09  3.57
 H -4.94  0.73  1.72
 H -5.78 -1.16  3.76
 H -6.61  0.34  3.24
 H -5.36  0.39  4.52
