35
#
 C -1.85  2.17  1.24
 C -0.61  1.47  1.75
 O  0.49  2.03  1.75
 H -1.61  3.23  1.11
 H -2.70  2.07  1.93
 H -2.16  1.76  0.27
 N -0.74  0.19  2.22
 C -1.80 -0.76  1.88
 C -2.15 -1.68  3.07
 O -2.81 -2.71  2.90
 H  0.18 -0.23  2.42
 H -2.72 -0.17  1.71
 C -1.51 -1.59  0.61
 C -0.11 -2.24  0.60
 C  0.96 -1.37 -0.08
 N  2.34 -1.71  0.25
 C  2.85 -1.55  1.53
 N  2.32 -0.47  2.25
 N  3.72 -2.41  1.97
 H -1.63 -0.94 -0.27
 H -2.29 -2.35  0.56
 H -0.16 -3.21  0.09
 H  0.21 -2.46  1.63
 H  0.80 -0.30  0.14
 H  0.87 -1.45 -1.17
 H  2.69 -2.57 -0.15
 H  2.84 -0.27  3.10
 H  2.13  0.39  1.73
 H  4.11 -2.11  2.86
 N -1.71 -1.26  4.28
 C -2.00 -1.97  5.51
 H -1.19 -0.39  4.30
 H -1.07 -2.23  6.04
 H -2.53 -2.89  5.25
 H -2.63 -1.37  6.18
