35
#
 C -0.01  0.54  1.21
 C -0.42  0.15  2.63
 O  0.39  0.12  3.55
 H  1.07  0.70  1.21
 H -0.51  1.47  0.90
 H -0.26 -0.24  0.48
 N -1.74 -0.16  2.83
 C -2.81 -0.24  1.85
 C -4.08  0.25  2.57
 O -4.38 -0.22  3.68
 H -1.98 -0.41  3.79
 H -2.56  0.42  1.02
 C -2.98 -1.68  1.31
 C -4.03 -1.85  0.19
 C -5.26 -2.68  0.59
 N -6.00 -2.17  1.73
 C -6.96 -1.20  1.62
 N -7.46 -0.80  2.86
 N -7.36 -0.81  0.45
 H -3.20 -2.34  2.16
 H -1.98 -1.99  0.95
 H -3.57 -2.35 -0.68
 H -4.38 -0.88 -0.18
 H -4.95 -3.71  0.83
 H -5.96 -2.73 -0.25
 H -5.64 -2.36  2.66
 H -8.07  0.01  2.82
 H -6.75 -0.71  3.60
 H -8.11 -0.12  0.54
 N -4.83  1.22  1.99
 C -4.81  1.74  0.63
 H -5.66  1.43  2.53
 H -5.16  2.78  0.65
 H -5.46  1.16 -0.03
 H -3.79  1.75  0.23
