35
#
 C -1.00 -0.80 -0.59
 C -0.67  0.17  0.52
 O  0.47  0.57  0.73
 H -0.13 -0.84 -1.26
 H -1.89 -0.53 -1.16
 H -1.16 -1.81 -0.18
 N -1.69  0.59  1.35
 C -3.14  0.43  1.23
 C -3.58 -1.04  1.03
 O -4.29 -1.38  0.08
 H -1.39  1.33  1.99
 H -3.53  0.70  2.23
 C -3.80  1.36  0.19
 C -3.31  2.80  0.27
 C -3.64  3.53  1.59
 N -2.73  4.65  1.90
 C -1.38  4.40  2.10
 N -1.13  3.30  2.96
 N -0.50  5.13  1.52
 H -4.89  1.30  0.33
 H -3.62  0.96 -0.81
 H -3.72  3.37 -0.57
 H -2.22  2.82  0.13
 H -3.61  2.83  2.44
 H -4.66  3.94  1.57
 H -2.82  5.43  1.25
 H -0.14  3.20  3.19
 H -1.70  3.30  3.80
 H  0.45  4.94  1.86
 N -3.18 -1.94  1.97
 C -2.38 -1.74  3.16
 H -3.49 -2.89  1.76
 H -1.30 -1.67  2.95
 H -2.54 -2.58  3.84
 H -2.68 -0.82  3.69
