35
#
 C  1.82  0.51  1.18
 C  0.86  1.60  1.61
 O  1.28  2.71  1.96
 H  2.80  0.97  1.02
 H  1.50  0.00  0.25
 H  1.92 -0.26  1.96
 N -0.48  1.32  1.59
 C -1.09  0.01  1.53
 C -1.98 -0.12  0.28
 O -2.63  0.82 -0.15
 H -1.09  2.10  1.89
 H -0.29 -0.74  1.49
 C -1.94 -0.24  2.80
 C -1.11 -0.21  4.09
 C -1.75  0.58  5.25
 N -2.15  1.95  4.94
 C -1.32  2.85  4.25
 N -0.02  2.95  4.71
 N -1.84  3.53  3.28
 H -2.48 -1.20  2.69
 H -2.72  0.54  2.81
 H -0.13  0.24  3.88
 H -0.91 -1.23  4.44
 H -1.05  0.58  6.11
 H -2.65  0.07  5.61
 H -3.09  2.04  4.56
 H  0.66  3.13  3.97
 H  0.28  2.31  5.43
 H -1.18  4.25  2.96
 N -2.05 -1.36 -0.29
 C -1.32 -2.56  0.07
 H -2.68 -1.41 -1.09
 H -1.63 -3.37 -0.60
 H -1.54 -2.89  1.10
 H -0.23 -2.44 -0.03
