35
#
 C -0.53 -1.90 -0.37
 C -0.10 -1.07  0.82
 O  1.08 -1.06  1.18
 H -0.60 -2.96 -0.08
 H  0.26 -1.81 -1.13
 H -1.49 -1.60 -0.82
 N -1.03 -0.35  1.51
 C -2.48 -0.29  1.41
 C -2.89  1.19  1.24
 O -2.21  2.09  1.72
 H -0.63  0.32  2.17
 H -2.80 -0.88  0.55
 C -3.16 -0.83  2.71
 C -3.55 -2.32  2.73
 C -2.52 -3.35  2.25
 N -1.23 -3.23  2.91
 C -0.25 -4.17  2.66
 N  1.04 -3.70  2.96
 N -0.58 -5.35  2.25
 H -4.08 -0.25  2.90
 H -2.49 -0.59  3.54
 H -4.45 -2.47  2.12
 H -3.84 -2.57  3.77
 H -2.41 -3.28  1.15
 H -2.90 -4.36  2.44
 H -0.89 -2.28  3.06
 H  1.77 -4.35  2.70
 H  1.25 -2.76  2.61
 H  0.25 -5.93  2.10
 N -4.06  1.43  0.58
 C -4.96  0.47 -0.02
 H -4.31  2.42  0.55
 H -5.79  1.01 -0.49
 H -5.39 -0.23  0.71
 H -4.47 -0.12 -0.81
