35
#
 C -1.61 -0.08 -0.06
 C -1.23  0.11  1.40
 O -0.06  0.22  1.76
 H -1.29 -1.08 -0.38
 H -1.07  0.65 -0.67
 H -2.69  0.02 -0.25
 N -2.28  0.16  2.28
 C -2.10  0.18  3.73
 C -1.06  1.23  4.22
 O -0.20  0.93  5.04
 H -3.21  0.01  1.92
 H -3.08  0.51  4.14
 C -1.76 -1.20  4.31
 C -2.84 -2.26  4.10
 C -2.44 -3.62  4.67
 N -1.30 -4.23  3.98
 C -0.10 -4.57  4.59
 N  0.29 -3.70  5.62
 N  0.51 -5.63  4.19
 H -1.56 -1.06  5.38
 H -0.82 -1.52  3.84
 H -3.06 -2.38  3.03
 H -3.78 -1.94  4.58
 H -3.30 -4.31  4.62
 H -2.18 -3.52  5.74
 H -1.53 -4.92  3.28
 H  1.23 -3.88  5.96
 H  0.13 -2.71  5.45
 H  1.45 -5.70  4.60
 N -1.20  2.52  3.79
 C -2.13  3.10  2.84
 H -0.45  3.11  4.13
 H -2.19  4.18  3.02
 H -3.14  2.69  2.97
 H -1.82  2.94  1.79
