35
#
 C  0.31 -1.48  0.18
 C  0.32 -0.98  1.62
 O  1.32 -1.08  2.33
 H  0.45 -2.56  0.19
 H  1.17 -1.04 -0.35
 H -0.61 -1.24 -0.37
 N -0.86 -0.41  2.03
 C -1.26  0.02  3.37
 C -1.25  1.53  3.69
 O -2.13  1.96  4.45
 H -1.61 -0.39  1.35
 H -2.34 -0.18  3.40
 C -0.63 -0.74  4.55
 C -0.96 -2.24  4.62
 C -2.44 -2.60  4.42
 N -3.35 -1.74  5.15
 C -4.36 -1.02  4.52
 N -4.65  0.18  5.18
 N -5.01 -1.36  3.46
 H -1.01 -0.24  5.45
 H  0.46 -0.61  4.55
 H -0.62 -2.61  5.61
 H -0.37 -2.80  3.88
 H -2.59 -3.66  4.67
 H -2.70 -2.50  3.35
 H -3.03 -1.36  6.04
 H -5.42  0.65  4.71
 H -3.85  0.80  5.27
 H -4.81 -2.34  3.21
 N -0.30  2.37  3.19
 C  0.90  2.09  2.42
 H -0.46  3.33  3.49
 H  1.34  1.13  2.70
 H  1.64  2.87  2.64
 H  0.71  2.09  1.34
