35
#
 C -0.81 -0.59  0.21
 C -0.83 -0.23  1.68
 O -0.14  0.67  2.15
 H -0.92  0.33 -0.38
 H -1.59 -1.30 -0.09
 H  0.18 -1.01 -0.04
 N -1.70 -0.98  2.44
 C -1.72 -0.93  3.91
 C -2.51 -2.09  4.53
 O -2.11 -2.57  5.58
 H -2.07 -1.82  2.01
 H -0.70 -1.10  4.27
 C -2.14  0.43  4.53
 C -3.55  0.95  4.24
 C -3.70  1.65  2.88
 N -5.09  2.00  2.57
 C -5.92  1.17  1.83
 N -5.29  0.60  0.71
 N -7.13  0.97  2.20
 H -1.39  1.17  4.23
 H -2.02  0.28  5.62
 H -3.81  1.68  5.03
 H -4.30  0.15  4.33
 H -3.33  1.01  2.08
 H -3.09  2.56  2.87
 H -5.62  2.37  3.36
 H -4.64  1.21  0.22
 H -5.94  0.16  0.07
 H -7.68  0.49  1.48
 N -3.62 -2.63  3.90
 C -4.54 -2.08  2.91
 H -3.98 -3.40  4.46
 H -5.45 -1.69  3.38
 H -4.83 -2.86  2.20
 H -4.09 -1.26  2.35
