35
#
 C  0.37  1.09  0.72
 C -0.15 -0.16  1.41
 O  0.48 -1.22  1.41
 H  1.37  1.31  1.12
 H -0.27  1.96  0.84
 H  0.49  0.87 -0.35
 N -1.35 -0.01  2.05
 C -2.04 -1.14  2.67
 C -3.24 -1.51  1.78
 O -4.19 -0.73  1.66
 H -1.90  0.83  1.89
 H -1.29 -1.94  2.69
 C -2.52 -0.80  4.09
 C -3.02 -2.02  4.86
 C -1.90 -2.91  5.40
 N -2.37 -4.11  6.10
 C -2.78 -5.26  5.44
 N -2.02 -5.58  4.31
 N -3.75 -6.04  5.77
 H -3.32 -0.05  4.01
 H -1.68 -0.33  4.63
 H -3.70 -2.62  4.23
 H -3.64 -1.68  5.71
 H -1.26 -2.34  6.09
 H -1.24 -3.23  4.58
 H -2.96 -3.90  6.90
 H -1.02 -5.48  4.43
 H -2.27 -6.51  3.98
 H -4.32 -5.63  6.52
 N -3.21 -2.70  1.14
 C -2.16 -3.72  1.17
 H -4.04 -2.89  0.58
 H -2.33 -4.41  0.33
 H -2.18 -4.30  2.10
 H -1.17 -3.27  1.03
