35
#
 C  0.41 -0.74  0.39
 C  0.28 -0.21  1.81
 O  1.24 -0.02  2.54
 H  1.48 -0.80  0.16
 H -0.09 -0.09 -0.34
 H -0.03 -1.74  0.30
 N -1.00  0.06  2.25
 C -2.27 -0.20  1.56
 C -2.68  0.91  0.57
 O -3.61  0.72 -0.22
 H -1.04  0.32  3.23
 H -2.17 -1.11  0.95
 C -3.39 -0.46  2.59
 C -3.85  0.77  3.39
 C -5.07  1.51  2.82
 N -6.32  0.77  2.95
 C -6.91  0.02  1.95
 N -8.07 -0.63  2.42
 N -6.55 -0.16  0.73
 H -3.02 -1.25  3.26
 H -4.25 -0.89  2.06
 H -3.03  1.50  3.49
 H -4.09  0.46  4.42
 H -4.94  1.75  1.76
 H -5.18  2.47  3.34
 H -6.57  0.50  3.90
 H -8.55 -1.07  1.65
 H -8.70 -0.02  2.95
 H -5.63  0.23  0.50
 N -1.98  2.07  0.65
 C -2.24  3.21 -0.20
 H -1.21  2.09  1.31
 H -1.37  3.43 -0.84
 H -2.47  4.10  0.40
 H -3.10  2.96 -0.83
