35
#
 C  0.34  0.78  1.22
 C  0.46 -0.70  1.53
 O  1.49 -1.22  1.94
 H  1.34  1.22  1.30
 H -0.33  1.27  1.94
 H -0.07  0.96  0.22
 N -0.66 -1.47  1.31
 C -2.00 -1.03  0.98
 C -2.70 -0.15  2.04
 O -3.41  0.79  1.65
 H -0.53 -2.45  1.56
 H -1.96 -0.36  0.11
 C -2.86 -2.25  0.59
 C -4.33 -1.94  0.25
 C -5.35 -2.62  1.17
 N -5.07 -2.49  2.60
 C -5.58 -1.51  3.44
 N -6.02 -0.36  2.80
 N -5.67 -1.60  4.73
 H -2.35 -2.73 -0.26
 H -2.82 -2.98  1.42
 H -4.49 -0.85  0.26
 H -4.55 -2.25 -0.78
 H -5.37 -3.70  0.95
 H -6.36 -2.23  0.95
 H -4.87 -3.35  3.09
 H -5.36  0.07  2.15
 H -6.34  0.32  3.50
 H -5.47 -2.55  5.05
 N -2.55 -0.40  3.37
 C -1.97 -1.55  4.04
 H -3.12  0.22  3.94
 H -2.36 -1.57  5.06
 H -2.27 -2.49  3.56
 H -0.87 -1.51  4.09
