35
#
 C  2.20 -0.56  0.70
 C  1.44 -0.62  2.01
 O  1.99 -0.90  3.08
 H  2.98  0.20  0.78
 H  1.57 -0.33 -0.17
 H  2.69 -1.53  0.54
 N  0.11 -0.33  1.93
 C -0.77 -0.44  3.08
 C -2.17 -0.75  2.53
 O -2.45 -0.53  1.35
 H -0.37 -0.23  1.04
 H -0.41 -1.28  3.69
 C -0.71  0.83  3.97
 C -1.12  2.15  3.31
 C -2.63  2.39  3.22
 N -2.98  3.72  2.71
 C -3.38  4.79  3.50
 N -2.99  4.70  4.84
 N -4.07  5.81  3.11
 H  0.33  0.89  4.31
 H -1.32  0.67  4.88
 H -0.68  2.22  2.30
 H -0.66  2.98  3.88
 H -3.09  2.26  4.21
 H -3.09  1.65  2.55
 H -3.31  3.76  1.76
 H -3.20  5.57  5.31
 H -2.03  4.40  5.00
 H -4.42  5.69  2.16
 N -3.10 -1.25  3.39
 C -2.95 -1.58  4.80
 H -4.01 -1.37  2.97
 H -1.93 -1.90  5.02
 H -3.62 -2.42  5.04
 H -3.21 -0.74  5.46
