35
#
 C -1.91  0.37 -0.41
 C -1.16  0.32  0.90
 O  0.07  0.46  0.96
 H -1.70  1.34 -0.90
 H -3.00  0.25 -0.31
 H -1.52 -0.41 -1.07
 N -1.92  0.12  2.01
 C -1.35  0.07  3.36
 C -0.81 -1.36  3.62
 O -1.44 -2.20  4.26
 H -2.91 -0.08  1.91
 H -0.49  0.77  3.35
 C -2.38  0.54  4.39
 C -1.80  1.01  5.74
 C -1.24 -0.10  6.66
 N -2.18 -1.17  6.97
 C -3.38 -0.93  7.63
 N -3.27 -0.01  8.68
 N -4.45 -1.52  7.23
 H -3.12 -0.26  4.56
 H -2.92  1.39  3.95
 H -2.60  1.52  6.28
 H -1.01  1.75  5.56
 H -0.89  0.38  7.58
 H -0.36 -0.57  6.21
 H -2.31 -1.81  6.18
 H -4.09  0.01  9.28
 H -2.41 -0.07  9.22
 H -5.22 -1.38  7.89
 N  0.40 -1.58  3.05
 C  1.03 -2.89  3.04
 H  0.72 -0.86  2.40
 H  2.10 -2.79  3.25
 H  0.89 -3.40  2.08
 H  0.56 -3.50  3.83
