35
#
 C -0.31  0.84 -0.28
 C -0.21 -0.30  0.72
 O  0.77 -1.04  0.73
 H  0.62  0.84 -0.85
 H -0.43  1.81  0.21
 H -1.15  0.70 -0.97
 N -1.20 -0.52  1.65
 C -2.54  0.00  1.97
 C -3.63 -1.09  1.84
 O -4.41 -1.26  2.78
 H -0.94 -1.30  2.24
 H -2.55  0.20  3.05
 C -2.96  1.33  1.30
 C -4.36  1.79  1.73
 C -5.47  1.35  0.75
 N -6.81  1.57  1.26
 C -7.74  0.57  1.54
 N -7.21 -0.71  1.70
 N -9.02  0.73  1.63
 H -2.92  1.25  0.20
 H -2.21  2.08  1.58
 H -4.37  2.89  1.80
 H -4.60  1.42  2.73
 H -5.38  0.28  0.52
 H -5.35  1.88 -0.20
 H -7.23  2.48  1.10
 H -7.93 -1.34  2.02
 H -6.34 -0.79  2.24
 H -9.30  1.68  1.35
 N -3.73 -1.84  0.71
 C -3.00 -1.76 -0.54
 H -4.50 -2.50  0.76
 H -3.51 -2.38 -1.28
 H -1.97 -2.12 -0.45
 H -2.98 -0.73 -0.94
