35
#
 C  0.76 -1.32  0.90
 C  0.40 -1.04  2.34
 O  1.13 -1.34  3.28
 H -0.04 -1.10  0.19
 H  1.05 -2.37  0.80
 H  1.64 -0.71  0.63
 N -0.80 -0.39  2.52
 C -1.35 -0.14  3.84
 C -2.83 -0.53  3.80
 O -3.49 -0.42  2.77
 H -1.46 -0.30  1.76
 H -0.78 -0.78  4.54
 C -1.21  1.34  4.27
 C  0.24  1.82  4.32
 C  0.34  3.30  4.73
 N  1.70  3.81  4.66
 C  2.25  4.28  3.47
 N  3.53  4.80  3.65
 N  1.71  4.30  2.30
 H -1.69  1.46  5.26
 H -1.79  1.96  3.57
 H  0.70  1.69  3.33
 H  0.83  1.21  5.02
 H -0.00  3.42  5.77
 H -0.34  3.91  4.11
 H  2.06  4.26  5.50
 H  3.95  5.02  2.76
 H  4.14  4.22  4.22
 H  0.73  4.01  2.32
 N -3.35 -0.95  4.99
 C -4.74 -1.30  5.17
 H -2.71 -1.06  5.77
 H -4.86 -2.36  5.44
 H -5.25 -1.12  4.21
 H -5.21 -0.68  5.94
