35
#
 C -0.82 -1.45  0.71
 C -0.64 -0.92  2.12
 O  0.41 -0.43  2.52
 H -0.03 -2.18  0.51
 H -0.69 -0.62  0.01
 H -1.80 -1.91  0.55
 N -1.75 -1.01  2.92
 C -1.73 -0.54  4.28
 C -2.63 -1.42  5.15
 O -3.70 -1.88  4.73
 H -2.60 -1.45  2.55
 H -0.68 -0.63  4.60
 C -2.08  0.96  4.45
 C -3.54  1.43  4.34
 C -4.22  1.34  2.97
 N -4.72 -0.00  2.67
 C -4.53 -0.65  1.47
 N -4.32  0.19  0.37
 N -4.48 -1.93  1.29
 H -1.46  1.50  3.72
 H -1.71  1.27  5.44
 H -3.56  2.49  4.64
 H -4.17  0.91  5.08
 H -3.51  1.64  2.19
 H -5.05  2.07  2.95
 H -4.69 -0.65  3.46
 H -4.37 -0.34 -0.50
 H -4.87  1.04  0.35
 H -4.56 -2.43  2.18
 N -2.24 -1.64  6.43
 C -0.99 -1.24  7.08
 H -2.91 -2.18  6.97
 H -0.97 -1.69  8.07
 H -0.92 -0.15  7.20
 H -0.12 -1.60  6.52
