35
#
 C -0.57 -2.13  0.81
 C -0.54 -0.79  1.51
 O  0.47 -0.37  2.07
 H  0.14 -2.79  1.33
 H -0.22 -2.02 -0.22
 H -1.56 -2.60  0.79
 N -1.69 -0.03  1.52
 C -2.88 -0.12  0.66
 C -3.88 -1.21  1.09
 O -4.76 -1.62  0.33
 H -1.55  0.87  1.99
 H -3.41  0.83  0.84
 C -2.63 -0.21 -0.86
 C -1.54  0.70 -1.45
 C -1.71  2.22 -1.29
 N -1.25  2.74 -0.01
 C -2.12  3.14  0.98
 N -1.50  3.25  2.24
 N -3.38  3.29  0.74
 H -3.59  0.00 -1.34
 H -2.39 -1.24 -1.13
 H -1.51  0.49 -2.53
 H -0.55  0.42 -1.07
 H -2.76  2.53 -1.39
 H -1.14  2.73 -2.09
 H -0.36  2.36  0.32
 H -2.04  3.80  2.90
 H -0.53  3.53  2.23
 H -3.88  3.64  1.56
 N -3.75 -1.63  2.38
 C -4.64 -2.61  2.99
 H -2.98 -1.25  2.91
 H -4.08 -3.50  3.31
 H -5.37 -2.90  2.23
 H -5.17 -2.18  3.85
