35
#
 C -0.51 -1.99  0.37
 C -0.24 -1.61  1.81
 O  0.83 -1.88  2.38
 H -1.42 -2.60  0.29
 H  0.34 -2.56 -0.00
 H -0.66 -1.10 -0.26
 N -1.21 -0.93  2.49
 C -2.48 -0.40  2.02
 C -2.39  0.81  1.07
 O -3.39  1.18  0.45
 H -1.05 -0.84  3.51
 H -3.03 -1.17  1.44
 C -3.35 -0.03  3.24
 C -2.91  1.20  4.06
 C -1.47  1.26  4.60
 N -1.07  0.01  5.28
 C  0.26 -0.07  5.80
 N  1.23 -0.04  4.81
 N  0.58 -0.18  7.04
 H -3.40 -0.92  3.89
 H -4.36  0.16  2.88
 H -3.61  1.29  4.90
 H -3.06  2.11  3.46
 H -1.38  2.13  5.27
 H -0.75  1.43  3.79
 H -1.73 -0.21  6.03
 H  1.08 -0.65  4.00
 H  2.16 -0.14  5.21
 H -0.24 -0.03  7.65
 N -1.18  1.43  1.00
 C -0.94  2.60  0.18
 H -0.43  1.03  1.55
 H -0.61  3.45  0.80
 H -1.88  2.86 -0.32
 H -0.17  2.40 -0.58
