35
#
 C -1.33  0.42 -0.20
 C -0.79  0.27  1.21
 O  0.41  0.12  1.44
 H -0.67  1.09 -0.76
 H -2.35  0.80 -0.25
 H -1.29 -0.56 -0.70
 N -1.74  0.32  2.20
 C -1.51 -0.02  3.61
 C -0.26  0.68  4.21
 O  0.46  0.11  5.03
 H -2.71  0.36  1.91
 H -2.36  0.44  4.15
 C -1.54 -1.52  3.93
 C -0.40 -2.35  3.33
 C -0.08 -3.59  4.19
 N  1.27 -4.09  4.00
 C  2.36 -3.70  4.75
 N  2.17 -2.55  5.52
 N  3.42 -4.44  4.73
 H -2.52 -1.92  3.64
 H -1.49 -1.59  5.03
 H  0.51 -1.74  3.26
 H -0.63 -2.66  2.30
 H -0.78 -4.41  3.97
 H -0.22 -3.34  5.25
 H  1.41 -4.99  3.57
 H  1.55 -1.81  5.19
 H  3.02 -2.18  5.92
 H  4.19 -4.02  5.25
 N -0.10  1.98  3.86
 C  1.08  2.73  4.24
 H -0.64  2.31  3.06
 H  0.85  3.80  4.25
 H  1.92  2.55  3.55
 H  1.38  2.42  5.25
