35
#
 C  0.26  1.70  0.75
 C  0.14  1.03  2.10
 O  1.05  1.04  2.93
 H -0.44  2.54  0.66
 H  0.03  1.00 -0.07
 H  1.28  2.07  0.64
 N -1.05  0.40  2.39
 C -2.28  0.45  1.62
 C -2.99  1.83  1.55
 O -3.52  2.16  0.49
 H -1.07  0.00  3.32
 H -2.06  0.24  0.57
 C -3.27 -0.62  2.11
 C -2.80 -2.05  1.83
 C -3.80 -3.12  2.30
 N -5.06 -3.01  1.59
 C -6.20 -3.69  2.02
 N -7.26 -3.55  1.13
 N -6.35 -4.38  3.10
 H -4.23 -0.44  1.62
 H -3.45 -0.49  3.20
 H -1.84 -2.25  2.32
 H -2.62 -2.17  0.75
 H -4.01 -2.98  3.37
 H -3.35 -4.12  2.19
 H -4.98 -2.95  0.58
 H -7.40 -2.61  0.77
 H -8.11 -3.95  1.51
 H -5.47 -4.53  3.59
 N -3.03  2.64  2.65
 C -2.56  2.42  4.01
 H -3.52  3.51  2.46
 H -3.01  3.19  4.64
 H -1.47  2.50  4.10
 H -2.88  1.45  4.40
