35
#
 C -0.38 -0.93  0.48
 C -0.32  0.06  1.63
 O  0.57  0.91  1.70
 H  0.48 -1.61  0.55
 H -0.28 -0.37 -0.46
 H -1.30 -1.53  0.45
 N -1.32 -0.08  2.56
 C -1.49  0.53  3.88
 C -2.58  1.62  3.97
 O -3.40  1.56  4.90
 H -1.97 -0.84  2.38
 H -1.92 -0.28  4.48
 C -0.17  0.96  4.57
 C -0.32  1.46  6.01
 C -0.66  0.41  7.08
 N -2.01 -0.15  6.97
 C -2.26 -1.45  6.55
 N -1.29 -2.39  6.90
 N -3.29 -1.84  5.86
 H  0.32  1.74  3.97
 H  0.51  0.09  4.54
 H -1.06  2.28  6.06
 H  0.64  1.91  6.30
 H -0.54  0.88  8.08
 H  0.06 -0.41  7.03
 H -2.69  0.51  6.58
 H -1.63 -3.33  6.71
 H -0.93 -2.30  7.84
 H -3.86 -1.03  5.58
 N -2.63  2.65  3.09
 C -1.80  2.96  1.94
 H -3.42  3.26  3.27
 H -1.74  4.05  1.83
 H -2.22  2.54  1.01
 H -0.79  2.57  2.06
