35
#
 C  0.05  1.11  0.07
 C  0.27  0.74  1.53
 O  1.39  0.66  2.02
 H -0.51  2.05 -0.02
 H -0.52  0.34 -0.47
 H  1.03  1.23 -0.40
 N -0.85  0.50  2.29
 C -2.24  0.59  1.90
 C -3.04  0.93  3.17
 O -2.60  0.64  4.29
 H -0.68  0.36  3.29
 H -2.35  1.41  1.18
 C -2.81 -0.70  1.24
 C -3.21 -1.84  2.18
 C -2.06 -2.52  2.95
 N -2.49 -3.57  3.85
 C -3.16 -3.35  5.05
 N -2.89 -2.15  5.69
 N -3.90 -4.31  5.50
 H -2.05 -1.05  0.53
 H -3.68 -0.42  0.63
 H -3.72 -2.61  1.58
 H -3.96 -1.49  2.90
 H -1.48 -1.78  3.51
 H -1.35 -2.96  2.23
 H -2.80 -4.44  3.43
 H -2.62 -1.33  5.15
 H -3.53 -1.92  6.44
 H -4.27 -4.09  6.43
 N -4.25  1.52  3.03
 C -4.96  1.89  1.81
 H -4.75  1.63  3.91
 H -5.64  2.72  2.03
 H -5.54  1.06  1.39
 H -4.25  2.25  1.05
