35
#
 C  0.51  1.31  0.22
 C  0.17  0.42  1.39
 O  0.98  0.17  2.28
 H  0.86  2.28  0.60
 H -0.33  1.48 -0.47
 H  1.34  0.86 -0.34
 N -1.11 -0.08  1.40
 C -1.57 -1.03  2.41
 C -1.59 -2.42  1.75
 O -2.45 -2.70  0.91
 H -1.68  0.03  0.57
 H -0.83 -0.97  3.22
 C -2.96 -0.63  2.94
 C -3.35 -1.30  4.27
 C -3.56 -2.81  4.19
 N -3.97 -3.33  5.48
 C -3.99 -4.70  5.72
 N -4.53 -5.01  6.98
 N -3.59 -5.66  4.95
 H -3.71 -0.85  2.17
 H -2.94  0.46  3.09
 H -4.28 -0.83  4.62
 H -2.59 -1.08  5.03
 H -2.61 -3.31  3.93
 H -4.27 -3.05  3.38
 H -4.72 -2.82  5.94
 H -4.42 -6.00  7.18
 H -4.20 -4.42  7.74
 H -3.37 -5.31  4.02
 N -0.60 -3.30  2.09
 C  0.46 -3.14  3.07
 H -0.68 -4.19  1.61
 H  1.24 -3.88  2.86
 H  0.10 -3.32  4.10
 H  0.91 -2.15  3.01
