35
#
 C -1.72  1.83  0.79
 C -1.30  0.81  1.83
 O -0.39 -0.00  1.61
 H -2.38  2.61  1.20
 H -2.24  1.31 -0.03
 H -0.82  2.29  0.37
 N -1.99  0.84  3.00
 C -1.61  0.04  4.16
 C -2.16 -1.41  4.06
 O -3.05 -1.83  4.81
 H -2.67  1.60  3.15
 H -0.51 -0.03  4.16
 C -2.10  0.72  5.44
 C -1.64  2.18  5.58
 C -2.65  3.10  6.28
 N -4.06  2.93  5.94
 C -4.60  3.06  4.69
 N -5.99  3.00  4.70
 N -3.85  3.17  3.63
 H -1.79  0.11  6.30
 H -3.20  0.66  5.44
 H -1.44  2.60  4.58
 H -0.69  2.23  6.13
 H -2.36  4.15  6.09
 H -2.60  2.95  7.37
 H -4.64  2.44  6.61
 H -6.43  3.12  3.79
 H -6.46  3.50  5.45
 H -4.42  3.41  2.81
 N -1.56 -2.14  3.09
 C -1.98 -3.48  2.76
 H -0.92 -1.63  2.48
 H -1.11 -4.15  2.67
 H -2.54 -3.51  1.81
 H -2.63 -3.85  3.56
