35
#
 C  0.23  0.02  0.10
 C  0.10  0.75  1.43
 O  1.02  1.43  1.89
 H  1.24  0.17 -0.27
 H -0.49  0.40 -0.64
 H  0.04 -1.05  0.22
 N -1.09  0.63  2.10
 C -2.31  0.00  1.64
 C -3.07  0.77  0.53
 O -3.98  0.21 -0.09
 H -1.08  1.09  3.03
 H -2.06 -0.96  1.17
 C -3.27 -0.33  2.82
 C -4.29  0.72  3.30
 C -3.83  1.90  4.18
 N -3.16  2.98  3.46
 C -1.80  3.18  3.56
 N -1.32  4.07  2.59
 N -1.08  2.50  4.40
 H -2.66 -0.67  3.66
 H -3.86 -1.20  2.49
 H -5.03  0.17  3.90
 H -4.86  1.11  2.43
 H -3.14  1.56  4.96
 H -4.72  2.31  4.68
 H -3.57  3.23  2.57
 H -0.32  4.26  2.67
 H -1.86  4.92  2.47
 H -0.10  2.79  4.37
 N -2.69  2.06  0.33
 C -3.29  2.89 -0.69
 H -1.92  2.43  0.88
 H -2.58  3.12 -1.50
 H -3.64  3.84 -0.27
 H -4.14  2.35 -1.11
