35
#
 C  0.67 -0.52 -0.47
 C  0.26  0.94 -0.31
 O  1.00  1.86 -0.66
 H  0.03 -1.03 -1.21
 H  1.70 -0.54 -0.83
 H  0.60 -1.07  0.47
 N -0.96  1.20  0.27
 C -2.03  0.25  0.46
 C -2.90  0.11 -0.81
 O -3.08  1.03 -1.61
 H -1.24  2.19  0.19
 H -1.57 -0.73  0.64
 C -2.86  0.56  1.74
 C -3.26  2.03  1.98
 C -4.32  2.60  1.02
 N -4.27  4.04  0.84
 C -3.18  4.69  0.27
 N -2.37  3.88 -0.53
 N -2.85  5.93  0.44
 H -2.26  0.23  2.60
 H -3.76 -0.08  1.74
 H -2.36  2.65  1.92
 H -3.61  2.12  3.02
 H -5.33  2.35  1.39
 H -4.25  2.12  0.03
 H -4.71  4.59  1.57
 H -1.70  4.44 -1.05
 H -2.82  3.16 -1.10
 H -3.45  6.38  1.13
 N -3.46 -1.12 -0.97
 C -4.35 -1.45 -2.07
 H -3.24 -1.84 -0.29
 H -3.95 -2.28 -2.67
 H -4.44 -0.57 -2.70
 H -5.35 -1.73 -1.70
