35
#
 C  0.98  2.02  0.67
 C  0.60  1.07  1.80
 O  1.11  1.15  2.92
 H  2.07  1.97  0.53
 H  0.73  3.04  0.97
 H  0.49  1.78 -0.27
 N -0.32  0.13  1.48
 C -0.73 -0.81  2.51
 C  0.45 -1.72  2.90
 O  1.14 -2.29  2.05
 H -0.77  0.11  0.55
 H -1.04 -0.23  3.39
 C -1.96 -1.66  2.08
 C -1.73 -2.88  1.18
 C -1.33 -2.61 -0.28
 N -2.41 -2.09 -1.11
 C -2.55 -0.77 -1.46
 N -3.68 -0.55 -2.26
 N -1.73  0.14 -1.05
 H -2.69 -0.97  1.63
 H -2.43 -2.02  3.01
 H -2.65 -3.48  1.18
 H -0.95 -3.51  1.62
 H -0.99 -3.56 -0.72
 H -0.48 -1.92 -0.34
 H -3.24 -2.66 -1.19
 H -3.73  0.39 -2.64
 H -3.86 -1.25 -2.97
 H -1.91  1.04 -1.50
 N  0.65 -1.93  4.24
 C  0.18 -1.10  5.33
 H  1.47 -2.51  4.42
 H  0.66 -1.43  6.26
 H -0.91 -1.20  5.48
 H  0.42 -0.04  5.17
