35
#
 C -2.27  1.60  1.06
 C -1.34  0.75  1.90
 O -0.49  1.24  2.65
 H -2.18  1.34 -0.01
 H -2.00  2.65  1.20
 H -3.32  1.45  1.34
 N -1.47 -0.61  1.80
 C -2.50 -1.36  1.10
 C -3.92 -1.32  1.72
 O -4.89 -1.26  0.97
 H -0.83 -1.12  2.41
 H -2.66 -0.89  0.12
 C -2.07 -2.82  0.88
 C -0.75 -2.99  0.12
 C -0.74 -2.35 -1.27
 N  0.52 -2.64 -1.95
 C  0.64 -2.34 -3.30
 N  1.91 -2.63 -3.82
 N -0.38 -1.93 -3.97
 H -2.88 -3.31  0.33
 H -1.99 -3.33  1.85
 H -0.54 -4.07  0.01
 H  0.09 -2.58  0.71
 H -0.91 -1.26 -1.20
 H -1.55 -2.75 -1.89
 H  1.35 -2.49 -1.39
 H  2.19 -2.06 -4.61
 H  2.66 -2.80 -3.16
 H -0.16 -1.88 -4.97
 N -4.08 -1.36  3.08
 C -3.10 -1.50  4.15
 H -5.06 -1.32  3.34
 H -2.40 -2.33  3.96
 H -3.65 -1.75  5.07
 H -2.52 -0.58  4.32
