35
#
 C -0.88 -0.13 -0.25
 C -0.66 -1.10  0.89
 O -0.16 -2.21  0.72
 H -1.93  0.21 -0.31
 H -0.61 -0.63 -1.18
 H -0.26  0.77 -0.13
 N -1.03 -0.68  2.14
 C -1.55  0.62  2.53
 C -0.58  1.82  2.46
 O -1.07  2.94  2.31
 H -0.86 -1.39  2.86
 H -2.33  0.90  1.82
 C -2.24  0.58  3.91
 C -1.38  0.42  5.17
 C -0.90 -1.01  5.48
 N -0.32 -1.17  6.80
 C -1.15 -1.30  7.91
 N -0.43 -1.29  9.11
 N -2.43 -1.38  7.76
 H -3.01 -0.20  3.89
 H -2.78  1.54  3.99
 H -0.52  1.11  5.14
 H -1.99  0.73  6.03
 H -1.75 -1.70  5.42
 H -0.14 -1.36  4.75
 H  0.54 -0.66  6.97
 H -0.98 -1.53  9.92
 H  0.45 -1.81  9.09
 H -2.89 -1.59  8.65
 N  0.78  1.67  2.55
 C  1.61  0.51  2.82
 H  1.25  2.56  2.47
 H  1.28 -0.05  3.70
 H  2.63  0.87  3.03
 H  1.67 -0.19  1.97
