35
#
 C -0.77 -0.89  0.25
 C -0.47 -0.37  1.65
 O  0.61  0.13  1.94
 H -1.84 -1.08  0.07
 H -0.22 -1.83  0.11
 H -0.40 -0.17 -0.48
 N -1.48 -0.53  2.56
 C -1.43 -0.18  3.98
 C -0.56  1.06  4.30
 O  0.31  1.03  5.16
 H -2.36 -0.90  2.21
 H -2.46  0.14  4.23
 C -1.14 -1.37  4.91
 C  0.23 -2.06  4.89
 C  0.63 -2.85  3.63
 N -0.39 -3.72  3.05
 C -0.79 -4.88  3.67
 N -1.88 -5.49  3.00
 N -0.22 -5.30  4.75
 H -1.93 -2.12  4.73
 H -1.31 -1.01  5.93
 H  0.24 -2.77  5.73
 H  1.02 -1.32  5.08
 H  1.48 -3.49  3.88
 H  0.96 -2.17  2.84
 H -1.12 -3.25  2.53
 H -2.10 -6.41  3.36
 H -1.79 -5.50  1.99
 H -0.55 -6.23  5.00
 N -0.89  2.24  3.69
 C -1.84  2.50  2.62
 H -0.24  2.98  3.92
 H -2.10  3.56  2.63
 H -2.77  1.94  2.78
 H -1.44  2.25  1.62
