35
#
 C  1.42  2.05  1.33
 C  0.80  1.28  2.48
 O  1.48  0.89  3.44
 H  2.24  1.45  0.91
 H  1.86  2.98  1.72
 H  0.71  2.29  0.53
 N -0.54  1.07  2.40
 C -1.27  0.36  3.44
 C -2.52 -0.21  2.77
 O -3.11  0.44  1.91
 H -1.09  1.41  1.62
 H -0.60 -0.43  3.81
 C -1.64  1.31  4.61
 C -1.79  0.65  5.98
 C -0.50 -0.03  6.49
 N  0.71  0.75  6.35
 C  1.14  1.75  7.20
 N  0.43  1.86  8.41
 N  2.17  2.51  7.02
 H -2.56  1.86  4.34
 H -0.84  2.06  4.67
 H -2.61 -0.08  5.99
 H -2.09  1.44  6.69
 H -0.34 -0.97  5.95
 H -0.63 -0.32  7.55
 H  1.12  0.77  5.41
 H  0.76  2.67  8.92
 H -0.58  1.84  8.33
 H  2.67  2.25  6.17
 N -2.99 -1.42  3.19
 C -2.36 -2.39  4.08
 H -3.86 -1.69  2.74
 H -2.78 -3.38  3.86
 H -2.53 -2.17  5.14
 H -1.28 -2.45  3.90
