35
#
 C -2.03 -2.75  0.96
 C -1.54 -1.83  2.06
 O -0.33 -1.67  2.28
 H -1.65 -3.76  1.15
 H -1.62 -2.41  0.00
 H -3.13 -2.79  0.88
 N -2.50 -1.18  2.77
 C -2.18 -0.21  3.82
 C -1.88 -0.95  5.15
 O -2.69 -1.03  6.08
 H -3.47 -1.39  2.60
 H -1.26  0.30  3.50
 C -3.32  0.80  3.97
 C -2.96  1.99  4.88
 C -4.17  2.52  5.67
 N -4.69  1.54  6.61
 C -5.78  0.73  6.29
 N -5.67 -0.54  6.87
 N -6.83  1.04  5.61
 H -4.19  0.27  4.38
 H -3.60  1.16  2.97
 H -2.52  2.80  4.29
 H -2.19  1.69  5.61
 H -4.98  2.81  4.98
 H -3.87  3.44  6.21
 H -3.97  1.06  7.13
 H -6.45 -1.13  6.61
 H -4.76 -0.98  6.75
 H -6.85  2.04  5.39
 N -0.64 -1.51  5.17
 C -0.18 -2.35  6.26
 H -0.14 -1.51  4.28
 H  0.88 -2.15  6.47
 H -0.30 -3.42  6.02
 H -0.78 -2.13  7.15
