35
#
 C -0.21 -0.97  1.54
 C -1.14 -0.35  2.57
 O -0.84  0.69  3.16
 H  0.34 -0.15  1.07
 H -0.70 -1.57  0.78
 H  0.52 -1.61  2.06
 N -2.30 -1.01  2.91
 C -2.98 -2.17  2.33
 C -2.04 -3.35  2.00
 O -2.03 -3.88  0.89
 H -2.82 -0.49  3.61
 H -3.60 -2.57  3.16
 C -3.98 -1.82  1.21
 C -3.51 -0.94  0.04
 C -2.86 -1.68 -1.15
 N -2.55 -0.81 -2.27
 C -3.53 -0.37 -3.16
 N -3.04  0.60 -4.04
 N -4.76 -0.75 -3.25
 H -4.81 -1.30  1.71
 H -4.40 -2.77  0.83
 H -2.82 -0.16  0.41
 H -4.38 -0.39 -0.34
 H -3.53 -2.48 -1.50
 H -1.94 -2.19 -0.84
 H -1.80 -0.15 -2.12
 H -3.72  0.79 -4.77
 H -2.12  0.39 -4.43
 H -5.03 -1.36 -2.49
 N -1.24 -3.82  3.01
 C -1.15 -3.39  4.39
 H -0.67 -4.60  2.72
 H -0.73 -4.21  4.98
 H -2.14 -3.17  4.81
 H -0.52 -2.50  4.52
