35
#
 C -0.51  0.18  2.64
 C -1.87  0.59  3.18
 O -2.08  1.73  3.58
 H  0.13 -0.11  3.49
 H -0.06  1.07  2.18
 H -0.52 -0.64  1.92
 N -2.87 -0.35  3.27
 C -2.98 -1.74  2.80
 C -1.70 -2.58  3.02
 O -1.17 -3.20  2.11
 H -3.72  0.06  3.65
 H -3.73 -2.20  3.46
 C -3.54 -1.87  1.37
 C -2.76 -1.16  0.26
 C -3.43 -1.36 -1.10
 N -2.67 -0.69 -2.14
 C -3.10 -0.46 -3.44
 N -4.44 -0.76 -3.67
 N -2.41  0.07 -4.40
 H -4.57 -1.49  1.39
 H -3.60 -2.95  1.15
 H -1.74 -1.57  0.22
 H -2.69 -0.09  0.46
 H -4.44 -0.93 -1.08
 H -3.54 -2.44 -1.30
 H -1.66 -0.71 -2.04
 H -4.66 -0.66 -4.65
 H -4.78 -1.64 -3.28
 H -1.49  0.37 -4.07
 N -1.23 -2.66  4.30
 C -1.75 -2.07  5.52
 H -0.39 -3.23  4.37
 H -1.36 -2.64  6.37
 H -2.84 -2.12  5.56
 H -1.45 -1.02  5.64
