35
#
 C -0.79 -1.02 -0.01
 C -0.13 -0.13  1.02
 O  1.10 -0.14  1.17
 H -1.54 -0.51 -0.63
 H -1.29 -1.86  0.49
 H -0.00 -1.42 -0.66
 N -0.91  0.65  1.84
 C -2.18  1.31  1.55
 C -3.25  0.37  0.97
 O -3.78  0.56 -0.12
 H -0.34  1.18  2.53
 H -2.57  1.61  2.54
 C -2.05  2.62  0.72
 C -1.01  2.63 -0.41
 C  0.29  3.39 -0.09
 N  0.99  2.97  1.12
 C  0.70  3.48  2.37
 N  0.58  4.87  2.41
 N  0.54  2.67  3.37
 H -1.83  3.43  1.42
 H -3.05  2.82  0.31
 H -1.45  3.10 -1.30
 H -0.76  1.60 -0.72
 H  0.06  4.46  0.00
 H  0.98  3.29 -0.94
 H  1.21  1.97  1.17
 H  1.22  5.39  1.82
 H  0.48  5.26  3.34
 H  0.52  3.17  4.26
 N -3.63 -0.69  1.75
 C -3.12 -1.09  3.05
 H -4.31 -1.29  1.30
 H -3.86 -1.73  3.54
 H -2.95 -0.22  3.70
 H -2.17 -1.64  2.98
