35
#
 C -0.45  1.41  2.41
 C  0.17  0.28  3.21
 O  1.17  0.43  3.91
 H -0.55  1.14  1.35
 H  0.19  2.29  2.51
 H -1.46  1.65  2.78
 N -0.44 -0.95  3.13
 C -1.72 -1.28  2.52
 C -2.98 -0.68  3.20
 O -3.89 -0.27  2.48
 H -0.00 -1.65  3.72
 H -1.76 -0.84  1.51
 C -1.86 -2.80  2.38
 C -0.92 -3.41  1.34
 C -0.80 -4.93  1.45
 N -0.09 -5.31  2.66
 C -0.16 -6.61  3.16
 N  0.73 -6.81  4.22
 N -0.90 -7.59  2.77
 H -2.90 -3.03  2.11
 H -1.68 -3.28  3.36
 H  0.09 -2.97  1.43
 H -1.27 -3.15  0.33
 H -0.32 -5.34  0.54
 H -1.81 -5.37  1.49
 H  0.83 -4.90  2.74
 H  0.58 -7.71  4.66
 H  0.76 -6.05  4.90
 H -1.39 -7.37  1.90
 N -3.07 -0.62  4.56
 C -2.17 -1.12  5.59
 H -3.94 -0.21  4.86
 H -2.71 -1.12  6.54
 H -1.27 -0.50  5.71
 H -1.86 -2.16  5.40
