35
#
 C -0.18 -0.10 -0.14
 C -0.25 -0.16  1.38
 O  0.75 -0.22  2.08
 H  0.40 -0.95 -0.50
 H  0.36  0.81 -0.42
 H -1.16 -0.10 -0.63
 N -1.52 -0.16  1.91
 C -1.76 -0.14  3.34
 C -2.89 -1.13  3.68
 O -4.02 -0.75  3.99
 H -2.31 -0.05  1.29
 H -0.82 -0.49  3.79
 C -2.04  1.30  3.82
 C -2.29  1.53  5.32
 C -1.41  0.73  6.29
 N -1.99 -0.58  6.54
 C -1.26 -1.74  6.74
 N -2.08 -2.87  6.91
 N  0.02 -1.90  6.75
 H -2.90  1.69  3.26
 H -1.16  1.88  3.50
 H -3.35  1.33  5.55
 H -2.13  2.60  5.52
 H -1.30  1.28  7.23
 H -0.40  0.61  5.87
 H -2.96 -0.70  6.26
 H -1.53 -3.65  7.24
 H -2.89 -2.71  7.50
 H  0.51 -1.03  6.51
 N -2.58 -2.45  3.61
 C -1.26 -3.05  3.43
 H -3.32 -3.05  3.94
 H -1.38 -4.13  3.39
 H -0.58 -2.81  4.27
 H -0.79 -2.72  2.49
