35
#
 C  0.24 -1.35  0.69
 C  0.31 -0.38  1.86
 O  1.37 -0.02  2.35
 H -0.23 -2.30  0.98
 H  1.27 -1.55  0.38
 H -0.30 -0.93 -0.16
 N -0.88  0.08  2.37
 C -2.23 -0.10  1.87
 C -2.83  1.29  1.57
 O -2.71  2.21  2.37
 H -0.78  0.80  3.09
 H -2.18 -0.69  0.94
 C -3.15 -0.81  2.89
 C -2.77 -2.27  3.17
 C -3.24 -3.24  2.07
 N -2.95 -4.65  2.36
 C -1.66 -5.18  2.24
 N -0.95 -4.72  1.13
 N -1.10 -6.03  3.03
 H -4.19 -0.75  2.54
 H -3.11 -0.23  3.82
 H -3.23 -2.58  4.12
 H -1.68 -2.36  3.30
 H -2.78 -2.98  1.11
 H -4.32 -3.15  1.93
 H -3.42 -4.99  3.19
 H -0.08 -5.24  1.03
 H -1.49 -4.72  0.26
 H -1.65 -6.17  3.89
 N -3.51  1.39  0.39
 C -4.18  2.61 -0.03
 H -3.53  0.58 -0.22
 H -5.26  2.44 -0.17
 H -3.75  3.00 -0.96
 H -4.04  3.35  0.76
