35
#
 C -0.25 -0.34 -0.01
 C -0.31 -0.46  1.50
 O  0.49 -1.15  2.14
 H  0.77 -0.06 -0.30
 H -0.95  0.38 -0.42
 H -0.45 -1.33 -0.44
 N -1.29  0.28  2.11
 C -1.55  0.18  3.54
 C -2.68 -0.85  3.76
 O -3.81 -0.64  3.34
 H -2.02  0.68  1.53
 H -0.61 -0.14  3.99
 C -1.96  1.54  4.12
 C -2.18  1.49  5.63
 C -2.57  2.87  6.20
 N -2.79  2.88  7.64
 C -1.72  2.91  8.52
 N -2.14  2.77  9.85
 N -0.51  3.01  8.08
 H -2.88  1.88  3.62
 H -1.17  2.27  3.87
 H -1.26  1.16  6.14
 H -2.97  0.77  5.87
 H -3.48  3.23  5.71
 H -1.77  3.59  6.00
 H -3.60  2.36  7.96
 H -1.40  2.95 10.52
 H -2.98  3.28 10.09
 H  0.14  3.14  8.86
 N -2.36 -1.99  4.44
 C -1.06 -2.39  4.97
 H -3.14 -2.62  4.56
 H -0.27 -2.25  4.22
 H -1.10 -3.45  5.21
 H -0.79 -1.84  5.88
