35
#
 C  0.08  0.90 -0.06
 C -0.55  1.05  1.31
 O -0.99  2.13  1.71
 H -0.64  1.22 -0.83
 H  0.41 -0.12 -0.29
 H  0.95  1.58 -0.13
 N -0.62 -0.09  2.05
 C -1.07 -0.11  3.42
 C -0.54 -1.42  4.03
 O  0.18 -2.19  3.39
 H -0.10 -0.93  1.78
 H -0.60  0.74  3.96
 C -2.60  0.05  3.56
 C -3.41 -1.04  2.86
 C -4.81 -1.24  3.46
 N -4.81 -1.92  4.77
 C -4.49 -1.30  5.97
 N -4.97 -0.00  6.11
 N -3.81 -1.82  6.94
 H -2.86  1.04  3.16
 H -2.85  0.10  4.63
 H -2.88 -2.01  2.91
 H -3.51 -0.81  1.79
 H -5.43 -1.85  2.79
 H -5.33 -0.28  3.57
 H -4.40 -2.85  4.72
 H -4.88  0.33  7.06
 H -5.89  0.18  5.70
 H -3.43 -2.73  6.67
 N -0.89 -1.67  5.32
 C -0.47 -2.87  6.00
 H -1.59 -1.09  5.78
 H -0.92 -3.78  5.57
 H -0.76 -2.80  7.06
 H  0.62 -2.99  5.94
