35
#
 C  1.62 -0.82  0.44
 C  1.13 -0.34  1.79
 O  1.91  0.01  2.68
 H  2.13 -1.79  0.57
 H  2.37 -0.11  0.06
 H  0.83 -0.94 -0.31
 N -0.23 -0.33  1.95
 C -0.93 -0.03  3.20
 C -0.27  1.09  4.05
 O -0.04  0.92  5.24
 H -0.79 -0.69  1.18
 H -1.91  0.38  2.90
 C -1.21 -1.29  4.05
 C  0.02 -2.12  4.41
 C -0.33 -3.26  5.37
 N  0.85 -4.05  5.67
 C  0.86 -5.28  6.30
 N -0.41 -5.84  6.50
 N  1.90 -5.96  6.65
 H -1.93 -1.91  3.49
 H -1.72 -0.95  4.96
 H  0.77 -1.47  4.88
 H  0.48 -2.55  3.51
 H -1.08 -3.92  4.90
 H -0.79 -2.83  6.28
 H  1.72 -3.54  5.74
 H -0.33 -6.69  7.06
 H -1.13 -5.21  6.84
 H  2.76 -5.51  6.33
 N -0.10  2.31  3.46
 C -0.26  2.70  2.08
 H  0.38  2.96  4.08
 H -0.38  3.79  2.03
 H -1.16  2.26  1.64
 H  0.60  2.43  1.45
