35
#
 C -0.61  2.18 -0.64
 C -0.28  1.59  0.72
 O  0.87  1.29  1.03
 H -0.43  1.41 -1.40
 H  0.08  3.00 -0.84
 H -1.64  2.54 -0.73
 N -1.36  1.44  1.57
 C -1.27  0.67  2.82
 C -2.66  0.49  3.44
 O -2.96 -0.52  4.06
 H -2.27  1.49  1.13
 H -0.92 -0.35  2.58
 C -0.34  1.35  3.87
 C  0.38  0.36  4.80
 C  1.70 -0.19  4.23
 N  1.60 -0.93  2.97
 C  0.88 -2.11  2.88
 N  1.03 -2.97  3.97
 N  0.13 -2.31  1.84
 H -0.94  2.05  4.46
 H  0.40  1.95  3.32
 H -0.29 -0.47  5.06
 H  0.61  0.87  5.74
 H  2.18 -0.81  5.00
 H  2.39  0.65  4.04
 H  1.42 -0.33  2.17
 H  0.63 -3.89  3.83
 H  1.95 -2.99  4.39
 H -0.24 -3.26  1.83
 N -3.52  1.55  3.28
 C -4.82  1.58  3.93
 H -3.14  2.42  2.93
 H -5.55  2.09  3.29
 H -4.78  2.10  4.90
 H -5.14  0.55  4.11
