35
#
 C -0.22  0.71 -0.18
 C -0.15 -0.36  0.88
 O  0.54 -1.37  0.70
 H  0.07  1.70  0.20
 H -1.22  0.80 -0.61
 H  0.48  0.42 -0.98
 N -0.83 -0.24  2.07
 C -1.79  0.68  2.69
 C -3.14 -0.00  3.00
 O -3.58  0.02  4.15
 H -0.62 -1.04  2.66
 H -1.41  0.88  3.71
 C -1.98  2.07  2.05
 C -0.83  3.04  2.39
 C -1.18  3.97  3.57
 N -1.77  3.26  4.69
 C -3.09  3.42  5.06
 N -3.47  2.48  6.03
 N -3.81  4.36  4.54
 H -2.92  2.48  2.44
 H -2.12  1.99  0.96
 H -0.59  3.68  1.52
 H  0.08  2.47  2.61
 H -1.92  4.71  3.27
 H -0.28  4.52  3.90
 H -1.18  2.78  5.36
 H -3.32  1.52  5.70
 H -4.44  2.60  6.32
 H -4.79  4.26  4.82
 N -3.84 -0.63  2.01
 C -3.53 -0.76  0.59
 H -4.69 -1.06  2.35
 H -4.42 -1.15  0.09
 H -2.70 -1.45  0.41
 H -3.31  0.21  0.14
