35
#
 C -0.88 -1.02 -0.01
 C -0.56 -0.84  1.46
 O  0.55 -1.09  1.92
 H -0.23 -0.37 -0.60
 H -1.93 -0.79 -0.27
 H -0.66 -2.05 -0.30
 N -1.60 -0.39  2.24
 C -1.44 -0.09  3.65
 C -2.49 -0.85  4.49
 O -3.36 -0.27  5.14
 H -2.49 -0.19  1.79
 H -0.44 -0.47  3.91
 C -1.44  1.42  3.94
 C -2.64  2.21  3.39
 C -2.63  3.68  3.80
 N -1.49  4.38  3.23
 C -1.19  5.71  3.45
 N -1.55  6.20  4.71
 N -0.53  6.35  2.55
 H -0.51  1.84  3.54
 H -1.40  1.55  5.03
 H -3.57  1.76  3.76
 H -2.66  2.15  2.29
 H -2.57  3.73  4.90
 H -3.59  4.14  3.50
 H -1.27  4.14  2.26
 H -1.59  7.21  4.77
 H -2.33  5.75  5.18
 H -0.28  7.29  2.86
 N -2.41 -2.21  4.49
 C -1.47 -3.08  3.81
 H -3.15 -2.65  5.03
 H -0.50 -2.60  3.67
 H -1.83 -3.39  2.82
 H -1.31 -3.98  4.42
