35
#
 C -0.36  0.88  1.12
 C -0.47  0.47  2.57
 O  0.51  0.36  3.30
 H  0.69  1.12  0.92
 H -0.98  1.76  0.89
 H -0.67  0.07  0.45
 N -1.74  0.25  3.08
 C -2.97  0.08  2.32
 C -4.15  0.84  2.98
 O -5.32  0.49  2.84
 H -1.71 -0.16  4.01
 H -2.82  0.57  1.35
 C -3.33 -1.40  2.07
 C -4.22 -1.64  0.83
 C -5.28 -2.71  1.04
 N -6.28 -2.23  1.98
 C -7.12 -3.08  2.67
 N -7.85 -2.43  3.67
 N -7.27 -4.36  2.51
 H -3.83 -1.80  2.97
 H -2.39 -1.96  1.96
 H -3.59 -1.93 -0.03
 H -4.73 -0.70  0.54
 H -4.81 -3.64  1.42
 H -5.75 -2.97  0.08
 H -6.09 -1.31  2.39
 H -8.61 -3.02  4.00
 H -8.16 -1.50  3.43
 H -6.61 -4.73  1.82
 N -3.78  1.94  3.70
 C -4.73  2.81  4.36
 H -2.78  2.10  3.79
 H -5.73  2.40  4.20
 H -4.69  3.82  3.95
 H -4.53  2.85  5.44
