35
#
 C  0.71  0.70 -0.28
 C  0.47  0.38  1.18
 O  1.41  0.15  1.95
 H  1.27 -0.12 -0.74
 H  1.33  1.60 -0.35
 H -0.22  0.87 -0.85
 N -0.82  0.37  1.58
 C -1.21  0.05  2.94
 C -2.69 -0.35  2.89
 O -3.43  0.03  1.98
 H -1.60  0.54  0.94
 H -0.61 -0.81  3.27
 C -0.97  1.25  3.90
 C -0.80  0.90  5.39
 C  0.21 -0.23  5.67
 N  1.45 -0.04  4.95
 C  2.58 -0.74  5.32
 N  3.62 -0.60  4.39
 N  2.62 -1.37  6.44
 H -1.79  1.97  3.78
 H -0.06  1.75  3.55
 H -1.76  0.62  5.84
 H -0.47  1.81  5.90
 H -0.24 -1.22  5.44
 H  0.45 -0.27  6.74
 H  1.36  0.11  3.94
 H  4.31 -1.34  4.43
 H  3.34 -0.38  3.44
 H  3.55 -1.77  6.60
 N -3.11 -1.12  3.93
 C -4.49 -1.53  4.10
 H -2.42 -1.42  4.61
 H -4.58 -2.63  4.08
 H -5.07 -1.11  3.27
 H -4.90 -1.16  5.05
