35
#
 C -0.61 -1.92  1.00
 C -1.03 -1.32  2.33
 O -0.55 -1.69  3.40
 H  0.22 -2.61  1.19
 H -0.29 -1.15  0.28
 H -1.44 -2.47  0.54
 N -1.98 -0.32  2.29
 C -2.71  0.17  1.13
 C -1.97  1.26  0.31
 O -2.41  1.62 -0.78
 H -2.29 -0.02  3.21
 H -2.86 -0.66  0.42
 C -4.10  0.69  1.53
 C -4.08  1.93  2.43
 C -5.49  2.34  2.86
 N -5.54  3.48  3.77
 C -5.18  3.33  5.09
 N -5.17  4.56  5.78
 N -4.88  2.17  5.57
 H -4.64 -0.13  2.04
 H -4.64  0.91  0.60
 H -3.60  2.77  1.89
 H -3.49  1.76  3.34
 H -5.97  1.50  3.38
 H -6.10  2.59  1.98
 H -5.31  4.38  3.36
 H -5.06  4.46  6.78
 H -5.94  5.18  5.55
 H -4.76  2.20  6.58
 N -0.85  1.76  0.89
 C -0.04  2.80  0.28
 H -0.59  1.38  1.80
 H  0.99  2.46  0.13
 H -0.03  3.71  0.90
 H -0.49  3.03 -0.69
