35
#
 C -2.04 -2.82  1.50
 C -2.29 -1.66  2.44
 O -2.99 -1.78  3.45
 H -3.00 -3.21  1.15
 H -1.54 -3.62  2.05
 H -1.43 -2.54  0.63
 N -1.68 -0.49  2.10
 C -1.82  0.71  2.92
 C -3.11  1.47  2.54
 O -3.10  2.51  1.88
 H -1.25 -0.41  1.16
 H -1.94  0.35  3.96
 C -0.59  1.61  2.82
 C  0.73  0.95  3.26
 C  1.83  0.96  2.19
 N  1.50  0.16  1.01
 C  0.71  0.60 -0.04
 N  1.08  1.81 -0.60
 N -0.26 -0.16 -0.45
 H -0.80  2.50  3.44
 H -0.53  2.00  1.80
 H  0.55 -0.10  3.55
 H  1.12  1.45  4.16
 H  2.77  0.57  2.61
 H  2.04  1.99  1.87
 H  1.24 -0.80  1.24
 H  0.34  2.37 -1.01
 H  1.83  2.34 -0.18
 H -0.66  0.18 -1.32
 N -4.24  0.85  3.00
 C -5.57  1.31  2.65
 H -4.10 -0.07  3.42
 H -6.21  1.33  3.54
 H -6.04  0.65  1.89
 H -5.49  2.32  2.24
