35
#
 C  0.14  0.93  0.31
 C -0.54 -0.24  0.99
 O -0.20 -1.40  0.81
 H -0.23  1.91  0.63
 H  0.00  0.83 -0.78
 H  1.22  0.87  0.50
 N -1.57  0.09  1.85
 C -2.44 -0.94  2.41
 C -3.71 -0.30  2.97
 O -4.83 -0.73  2.67
 H -1.94  1.04  1.78
 H -2.77 -1.59  1.59
 C -1.73 -1.84  3.48
 C -1.87 -3.35  3.25
 C -3.26 -3.95  3.50
 N -4.28 -3.63  2.51
 C -4.31 -4.29  1.30
 N -5.10 -3.63  0.35
 N -3.62 -5.36  1.11
 H -2.09 -1.59  4.49
 H -0.66 -1.58  3.46
 H -1.17 -3.85  3.93
 H -1.54 -3.60  2.23
 H -3.64 -3.64  4.48
 H -3.17 -5.05  3.51
 H -4.63 -2.67  2.51
 H -5.44 -4.24 -0.39
 H -5.84 -3.05  0.72
 H -3.78 -5.74  0.17
 N -3.61  0.77  3.82
 C -2.46  1.23  4.59
 H -4.52  1.08  4.14
 H -2.46  0.81  5.61
 H -2.48  2.33  4.67
 H -1.53  0.94  4.10
