35
#
 C -0.57 -0.22 -0.09
 C -0.57  0.22  1.36
 O  0.22  1.06  1.79
 H  0.37 -0.75 -0.30
 H -0.59  0.67 -0.73
 H -1.41 -0.87 -0.36
 N -1.52 -0.37  2.15
 C -1.62 -0.18  3.60
 C -1.47  1.30  4.03
 O -0.67  1.64  4.90
 H -2.10 -1.09  1.74
 H -2.64 -0.48  3.87
 C -0.63 -1.07  4.37
 C -1.04 -1.33  5.82
 C  0.02 -2.12  6.59
 N -0.34 -2.43  7.97
 C -1.37 -3.31  8.30
 N -1.49 -4.40  7.43
 N -2.17 -3.22  9.31
 H  0.36 -0.60  4.33
 H -0.56 -2.03  3.84
 H -1.99 -1.88  5.85
 H -1.20 -0.37  6.33
 H  0.96 -1.56  6.62
 H  0.25 -3.06  6.06
 H -0.33 -1.62  8.58
 H -2.13 -5.09  7.82
 H -0.62 -4.81  7.13
 H -2.07 -2.32  9.78
 N -2.34  2.21  3.49
 C -3.32  2.03  2.44
 H -2.14  3.16  3.79
 H -4.06  2.84  2.51
 H -3.87  1.09  2.55
 H -2.88  2.06  1.43
