35
#
 C -0.95 -0.16 -0.33
 C -0.61 -0.09  1.15
 O  0.53 -0.24  1.58
 H -0.33 -0.93 -0.80
 H -0.69  0.81 -0.79
 H -2.01 -0.36 -0.52
 N -1.67  0.25  1.97
 C -1.55  0.16  3.42
 C -2.81 -0.56  3.91
 O -3.83 -0.60  3.20
 H -2.62  0.07  1.65
 H -0.64 -0.44  3.63
 C -1.41  1.53  4.12
 C -0.04  2.22  3.96
 C  0.16  3.03  2.68
 N -0.79  4.13  2.55
 C -1.60  4.39  1.45
 N -1.86  3.28  0.65
 N -2.11  5.53  1.13
 H -1.60  1.38  5.19
 H -2.21  2.20  3.77
 H  0.76  1.47  4.02
 H  0.10  2.89  4.82
 H  0.08  2.40  1.79
 H  1.19  3.42  2.67
 H -0.57  4.97  3.08
 H -2.60  3.49 -0.02
 H -2.01  2.40  1.14
 H -1.74  6.28  1.71
 N -2.78 -1.14  5.14
 C -1.68 -1.22  6.08
 H -3.68 -1.54  5.41
 H -1.76 -2.16  6.65
 H -1.68 -0.38  6.80
 H -0.72 -1.23  5.56
