35
#
 C  2.26  1.17 -1.25
 C  0.88  0.89 -0.68
 O -0.12  0.86 -1.40
 H  3.07  1.12 -0.51
 H  2.25  2.17 -1.70
 H  2.46  0.45 -2.06
 N  0.84  0.68  0.67
 C -0.39  0.45  1.42
 C -0.57  1.38  2.64
 O -1.64  1.94  2.81
 H  1.73  0.66  1.16
 H -1.20  0.76  0.75
 C -0.61 -1.03  1.82
 C -0.74 -2.01  0.64
 C -2.12 -2.08 -0.03
 N -2.47 -0.84 -0.71
 C -3.62 -0.70 -1.47
 N -4.68 -1.53 -1.09
 N -3.79  0.10 -2.47
 H -1.52 -1.07  2.44
 H  0.22 -1.35  2.46
 H -0.52 -3.02  1.02
 H  0.03 -1.80 -0.12
 H -2.87 -2.30  0.76
 H -2.13 -2.94 -0.72
 H -1.68 -0.31 -1.08
 H -5.54 -1.24 -1.56
 H -4.82 -1.63 -0.08
 H -2.90  0.55 -2.72
 N  0.44  1.53  3.55
 C  1.78  0.96  3.59
 H  0.19  2.17  4.29
 H  2.13  0.96  4.63
 H  2.51  1.53  3.00
 H  1.78 -0.09  3.26
