35
#
 C -0.12  0.73  0.23
 C -0.32  0.69  1.73
 O  0.49  1.17  2.52
 H  0.86  1.16  0.03
 H -0.90  1.34 -0.25
 H -0.18 -0.27 -0.22
 N -1.45  0.06  2.20
 C -2.59 -0.41  1.42
 C -3.44  0.68  0.72
 O -3.84  0.48 -0.42
 H -1.54  0.10  3.21
 H -2.23 -1.01  0.58
 C -3.49 -1.31  2.29
 C -2.85 -2.66  2.61
 C -3.64 -3.51  3.61
 N -5.00 -3.85  3.19
 C -6.11 -3.03  3.38
 N -6.08 -2.29  4.57
 N -7.13 -2.90  2.60
 H -4.44 -1.46  1.76
 H -3.75 -0.79  3.23
 H -1.83 -2.52  3.02
 H -2.72 -3.23  1.67
 H -3.71 -2.99  4.57
 H -3.10 -4.45  3.80
 H -5.05 -4.35  2.30
 H -6.98 -1.84  4.72
 H -5.78 -2.81  5.39
 H -6.97 -3.37  1.70
 N -3.73  1.85  1.37
 C -3.44  2.27  2.74
 H -4.29  2.47  0.80
 H -3.71  1.50  3.47
 H -4.06  3.15  2.95
 H -2.39  2.54  2.88
