35
#
 C -1.40 -1.80  0.10
 C -1.14 -1.19  1.46
 O -0.30 -1.67  2.24
 H -0.46 -1.80 -0.47
 H -2.16 -1.26 -0.48
 H -1.70 -2.84  0.22
 N -1.88 -0.09  1.78
 C -1.73  0.61  3.06
 C -2.58 -0.12  4.13
 O -3.71  0.26  4.46
 H -2.62  0.20  1.16
 H -0.67  0.51  3.33
 C -2.11  2.08  2.92
 C -1.48  3.01  3.96
 C -1.86  2.73  5.41
 N -1.35  3.79  6.27
 C -1.43  3.73  7.66
 N -2.50  2.99  8.15
 N -0.51  4.33  8.35
 H -3.21  2.16  2.96
 H -1.79  2.42  1.92
 H -1.78  4.05  3.72
 H -0.38  2.98  3.86
 H -1.48  1.74  5.73
 H -2.96  2.68  5.48
 H -0.46  4.18  6.00
 H -2.71  3.16  9.13
 H -3.33  2.93  7.57
 H -0.73  4.30  9.35
 N -1.96 -1.22  4.65
 C -2.62 -2.12  5.58
 H -1.12 -1.52  4.17
 H -1.91 -2.44  6.35
 H -3.03 -3.00  5.08
 H -3.44 -1.58  6.06
