35
#
 C  0.27 -1.27  0.72
 C  0.11 -0.21  1.79
 O  0.97  0.67  1.95
 H  0.49 -0.77 -0.24
 H -0.59 -1.92  0.60
 H  1.15 -1.88  0.97
 N -1.03 -0.31  2.53
 C -1.46  0.40  3.75
 C -1.50  1.95  3.75
 O -2.24  2.49  4.58
 H -1.64 -1.07  2.27
 H -2.53  0.17  3.82
 C -0.82 -0.18  5.05
 C  0.70 -0.30  5.08
 C  1.47  1.04  5.18
 N  2.75  1.04  4.48
 C  3.84  0.41  5.04
 N  4.92  0.33  4.15
 N  3.80 -0.07  6.24
 H -1.25 -1.18  5.19
 H -1.20  0.44  5.88
 H  1.05 -0.84  4.19
 H  0.99 -0.93  5.94
 H  1.66  1.28  6.23
 H  0.87  1.86  4.75
 H  2.66  0.96  3.47
 H  5.80  0.08  4.59
 H  5.03  1.14  3.54
 H  4.72 -0.40  6.54
 N -0.76  2.63  2.85
 C -0.72  4.08  2.85
 H -0.02  2.10  2.38
 H -0.35  4.43  1.88
 H -0.08  4.47  3.65
 H -1.73  4.47  3.02
