35
#
 C -0.16  0.29 -0.69
 C  0.54  0.67  0.60
 O  1.72  1.02  0.63
 H -1.18  0.67 -0.77
 H -0.22 -0.80 -0.76
 H  0.45  0.66 -1.52
 N -0.17  0.59  1.79
 C -1.59  0.38  2.06
 C -2.16 -0.88  1.36
 O -2.98 -0.81  0.45
 H  0.40  0.89  2.57
 H -1.65  0.16  3.13
 C -2.44  1.65  1.80
 C -3.95  1.57  2.06
 C -4.41  1.17  3.47
 N -3.95 -0.14  3.97
 C -4.59 -1.36  3.73
 N -5.29 -1.43  2.53
 N -4.57 -2.38  4.52
 H -2.30  1.95  0.75
 H -1.99  2.44  2.41
 H -4.41  0.91  1.32
 H -4.37  2.57  1.87
 H -5.51  1.22  3.51
 H -4.03  1.91  4.19
 H -3.56 -0.11  4.90
 H -5.66 -2.36  2.40
 H -4.80 -1.08  1.71
 H -4.17 -2.14  5.43
 N -1.73 -2.08  1.84
 C -0.94 -2.34  3.03
 H -2.21 -2.87  1.41
 H -0.65 -3.39  3.03
 H -1.52 -2.14  3.95
 H -0.03 -1.73  3.04
