35
#
 C -0.90 -4.45  1.47
 C -0.85 -2.98  1.80
 O  0.17 -2.29  1.61
 H -1.77 -4.96  1.90
 H  0.02 -4.93  1.82
 H -0.93 -4.57  0.37
 N -1.99 -2.47  2.32
 C -2.12 -1.07  2.71
 C -1.51 -0.81  4.12
 O -2.18 -0.49  5.11
 H -2.70 -3.14  2.62
 H -1.47 -0.52  2.01
 C -3.56 -0.51  2.53
 C -4.76 -1.46  2.68
 C -5.19 -1.86  4.10
 N -4.19 -2.47  4.96
 C -3.63 -3.70  4.67
 N -2.47 -3.95  5.39
 N -4.01 -4.57  3.78
 H -3.61 -0.09  1.52
 H -3.67  0.33  3.23
 H -4.59 -2.36  2.06
 H -5.62 -0.96  2.22
 H -6.07 -2.53  4.03
 H -5.54 -0.96  4.63
 H -3.53 -1.78  5.33
 H -2.22 -4.94  5.38
 H -2.40 -3.52  6.30
 H -4.85 -4.26  3.29
 N -0.17 -0.96  4.13
 C  0.61 -0.87  5.35
 H  0.27 -1.29  3.26
 H  1.61 -0.48  5.12
 H  0.72 -1.86  5.83
 H  0.11 -0.20  6.05
