35
#
 C  0.19 -1.59  0.79
 C -0.14 -0.39  1.66
 O  0.68  0.15  2.39
 H  0.94 -1.29  0.05
 H -0.68 -2.02  0.27
 H  0.65 -2.36  1.42
 N -1.44  0.06  1.57
 C -1.90  1.26  2.26
 C -1.71  1.27  3.80
 O -1.41  2.33  4.34
 H -2.08 -0.41  0.94
 H -1.29  2.11  1.94
 C -3.37  1.51  1.89
 C -3.92  2.85  2.39
 C -5.39  3.03  2.02
 N -5.87  4.32  2.49
 C -7.17  4.74  2.21
 N -7.49  5.93  2.87
 N -8.05  4.17  1.46
 H -3.99  0.68  2.27
 H -3.44  1.48  0.79
 H -3.33  3.67  1.97
 H -3.80  2.91  3.48
 H -5.99  2.19  2.42
 H -5.50  3.00  0.92
 H -5.53  4.60  3.40
 H -8.39  6.28  2.55
 H -6.77  6.64  2.85
 H -7.73  3.24  1.15
 N -1.99  0.15  4.54
 C -2.30 -1.21  4.14
 H -1.79  0.31  5.52
 H -3.06 -1.23  3.36
 H -2.71 -1.73  5.01
 H -1.42 -1.76  3.79
