35
#
 C  0.35  1.22  1.07
 C  0.11  0.95  2.54
 O  0.89  1.34  3.41
 H  0.58  0.28  0.55
 H -0.52  1.68  0.58
 H  1.19  1.91  0.99
 N -1.00  0.23  2.91
 C -2.15 -0.22  2.13
 C -1.71 -1.02  0.87
 O -0.97 -1.99  0.98
 H -1.01  0.02  3.90
 H -2.62 -1.01  2.75
 C -3.22  0.87  1.93
 C -3.74  1.47  3.26
 C -3.09  2.80  3.69
 N -3.39  3.90  2.79
 C -2.51  4.38  1.83
 N -3.16  5.17  0.87
 N -1.24  4.19  1.72
 H -4.07  0.42  1.39
 H -2.83  1.69  1.30
 H -3.62  0.74  4.07
 H -4.83  1.64  3.17
 H -2.00  2.70  3.77
 H -3.45  3.05  4.70
 H -4.37  3.97  2.53
 H -2.47  5.67  0.31
 H -3.86  5.81  1.25
 H -0.88  3.56  2.44
 N -2.23 -0.60 -0.32
 C -1.87 -1.23 -1.57
 H -2.75  0.27 -0.34
 H -2.76 -1.35 -2.21
 H -1.45 -2.21 -1.35
 H -1.12 -0.64 -2.12
