35
#
 C -0.31  1.21 -0.88
 C -0.14  1.26  0.62
 O  0.98  1.36  1.13
 H -1.29  1.55 -1.23
 H -0.17  0.17 -1.21
 H  0.47  1.82 -1.33
 N -1.25  1.18  1.41
 C -2.60  0.80  1.06
 C -3.45  1.05  2.33
 O -2.94  1.09  3.44
 H -1.08  1.21  2.42
 H -2.98  1.45  0.26
 C -2.76 -0.67  0.59
 C -2.37 -1.77  1.59
 C -0.87 -1.97  1.85
 N -0.15 -2.18  0.59
 C  1.24 -2.35  0.58
 N  1.95 -1.48  1.39
 N  1.71 -3.30 -0.16
 H -2.17 -0.80 -0.33
 H -3.81 -0.82  0.30
 H -2.79 -2.72  1.21
 H -2.86 -1.60  2.56
 H -0.75 -2.83  2.53
 H -0.45 -1.11  2.37
 H -0.54 -2.93  0.03
 H  2.95 -1.53  1.26
 H  1.61 -0.51  1.43
 H  2.74 -3.25 -0.22
 N -4.78  1.18  2.11
 C -5.75  1.34  3.18
 H -5.12  1.16  1.15
 H -6.30  2.29  3.07
 H -5.20  1.36  4.12
 H -6.47  0.51  3.20
