35
#
 C -1.42 -0.34 -0.80
 C -1.03 -0.71  0.62
 O -0.31 -1.67  0.87
 H -0.75 -0.88 -1.47
 H -1.36  0.74 -1.00
 H -2.45 -0.65 -1.01
 N -1.54  0.04  1.66
 C -2.38  1.24  1.66
 C -3.65  1.06  0.80
 O -3.91  1.80 -0.15
 H -1.19 -0.28  2.56
 H -2.73  1.33  2.70
 C -1.62  2.53  1.31
 C -2.36  3.80  1.76
 C -1.63  5.10  1.39
 N -0.34  5.31  2.05
 C  0.86  4.75  1.62
 N  0.99  4.62  0.24
 N  1.84  4.37  2.38
 H -1.45  2.58  0.23
 H -0.64  2.47  1.79
 H -2.51  3.78  2.85
 H -3.36  3.83  1.30
 H -2.27  5.96  1.63
 H -1.48  5.13  0.30
 H -0.40  5.36  3.06
 H  1.94  4.36 -0.00
 H  0.65  5.41 -0.30
 H  1.57  4.38  3.37
 N -4.50  0.05  1.15
 C -4.37 -0.93  2.22
 H -5.30 -0.04  0.52
 H -5.35 -1.37  2.40
 H -4.05 -0.45  3.15
 H -3.66 -1.73  1.98
