35
#
 C  0.12  0.72  0.17
 C -0.27  0.32  1.58
 O  0.52  0.34  2.52
 H  1.15  1.08  0.19
 H -0.53  1.52 -0.22
 H  0.05 -0.13 -0.52
 N -1.57 -0.08  1.77
 C -2.62 -0.26  0.77
 C -3.29  1.06  0.32
 O -3.96  1.10 -0.73
 H -1.76 -0.42  2.71
 H -2.19 -0.69 -0.15
 C -3.68 -1.23  1.32
 C -4.75 -1.69  0.31
 C -6.19 -1.38  0.74
 N -6.42  0.05  0.94
 C -6.80  0.64  2.12
 N -7.54 -0.19  2.97
 N -6.43  1.85  2.38
 H -4.16 -0.75  2.19
 H -3.13 -2.11  1.71
 H -4.67 -2.77  0.14
 H -4.57 -1.20 -0.66
 H -6.41 -1.89  1.69
 H -6.88 -1.78 -0.01
 H -5.88  0.68  0.33
 H -7.94  0.30  3.76
 H -8.23 -0.79  2.51
 H -6.91  2.21  3.21
 N -3.12  2.12  1.14
 C -3.80  3.39  0.93
 H -2.60  1.96  1.99
 H -3.89  3.57 -0.15
 H -3.21  4.19  1.38
 H -4.81  3.36  1.37
