35
#
 C -0.74 -1.01  2.95
 C -1.44  0.33  2.91
 O -1.11  1.26  3.64
 H -0.18 -1.07  3.89
 H -0.02 -1.09  2.12
 H -1.43 -1.87  2.89
 N -2.45  0.51  1.98
 C -3.08 -0.47  1.11
 C -3.79 -1.58  1.93
 O -4.30 -1.33  3.02
 H -2.92  1.40  2.10
 H -3.93  0.08  0.65
 C -2.18 -0.95 -0.05
 C -1.40  0.16 -0.76
 C -2.29  1.18 -1.48
 N -1.47  2.15 -2.19
 C -2.07  3.10 -3.03
 N -1.14  4.03 -3.50
 N -3.30  3.19 -3.37
 H -2.80 -1.47 -0.80
 H -1.45 -1.69  0.32
 H -0.73 -0.29 -1.50
 H -0.76  0.68 -0.03
 H -2.96  1.68 -0.76
 H -2.92  0.66 -2.21
 H -0.68  2.50 -1.67
 H -1.56  4.63 -4.20
 H -0.26  3.63 -3.81
 H -3.89  2.55 -2.84
 N -3.85 -2.82  1.35
 C -4.54 -3.94  1.96
 H -3.37 -2.96  0.47
 H -3.84 -4.76  2.20
 H -5.33 -4.32  1.31
 H -4.99 -3.58  2.90
