35
#
 C -0.02 -1.20 -0.20
 C  0.02 -0.44  1.11
 O  1.08 -0.02  1.58
 H  0.40 -0.57 -0.99
 H -1.03 -1.51 -0.50
 H  0.62 -2.08 -0.11
 N -1.19 -0.23  1.70
 C -1.35  0.34  3.02
 C -2.37 -0.54  3.76
 O -3.21 -1.18  3.12
 H -2.01 -0.74  1.37
 H -0.37  0.30  3.52
 C -1.85  1.83  3.00
 C -0.87  2.82  3.63
 C  0.43  3.01  2.82
 N  1.60  3.35  3.63
 C  2.16  2.46  4.55
 N  1.92  1.12  4.28
 N  2.85  2.78  5.59
 H -2.82  1.89  3.52
 H -2.05  2.09  1.95
 H -0.60  2.49  4.64
 H -1.37  3.80  3.76
 H  0.31  3.80  2.07
 H  0.66  2.10  2.25
 H  1.64  4.31  3.95
 H  2.54  0.53  4.83
 H  1.84  0.82  3.30
 H  2.87  3.79  5.73
 N -2.33 -0.57  5.11
 C -1.42  0.12  6.02
 H -3.08 -1.11  5.52
 H -0.45  0.30  5.55
 H -1.26 -0.50  6.91
 H -1.83  1.10  6.35
