35
#
 C  0.60  0.71 -0.39
 C  0.43  1.08  1.06
 O  1.33  1.65  1.69
 H  1.64  0.40 -0.54
 H  0.42  1.61 -0.99
 H -0.08 -0.08 -0.73
 N -0.75  0.78  1.71
 C -2.06  0.45  1.14
 C -2.17 -1.01  0.61
 O -3.06 -1.34 -0.16
 H -0.75  1.15  2.65
 H -2.74  0.46  2.00
 C -2.62  1.46  0.12
 C -2.94  2.86  0.67
 C -1.76  3.78  0.99
 N -0.89  3.95 -0.19
 C  0.25  4.77 -0.13
 N  1.03  4.60  1.00
 N  0.44  5.58 -1.11
 H -3.54  1.01 -0.28
 H -1.94  1.54 -0.74
 H -3.56  2.77  1.57
 H -3.58  3.36 -0.08
 H -1.16  3.39  1.81
 H -2.16  4.75  1.34
 H -1.41  4.22 -1.02
 H  1.13  3.64  1.35
 H  1.91  5.09  0.97
 H  1.36  6.02 -1.05
 N -1.24 -1.86  1.12
 C -1.21 -3.27  0.79
 H -0.53 -1.47  1.73
 H -0.28 -3.54  0.26
 H -2.06 -3.48  0.13
 H -1.30 -3.89  1.69
