35
#
 C  0.31  0.12  0.11
 C  0.17  0.10  1.62
 O  1.13  0.27  2.36
 H  1.22 -0.42 -0.18
 H  0.43  1.17 -0.21
 H -0.55 -0.31 -0.42
 N -1.09 -0.12  2.09
 C -1.45  0.06  3.50
 C -0.86  1.41  4.00
 O -1.27  2.42  3.42
 H -1.85 -0.07  1.42
 H -2.52  0.31  3.49
 C -1.34 -1.25  4.32
 C -0.12 -2.14  4.10
 C -0.11 -3.33  5.07
 N  1.11 -4.12  5.03
 C  2.23 -3.68  5.71
 N  3.36 -4.50  5.53
 N  2.17 -2.67  6.51
 H -2.24 -1.83  4.10
 H -1.43 -0.98  5.39
 H  0.81 -1.58  4.23
 H -0.12 -2.51  3.06
 H -0.96 -4.00  4.87
 H -0.21 -2.97  6.10
 H  1.28 -4.64  4.18
 H  3.34 -5.13  4.73
 H  4.24 -4.03  5.63
 H  3.05 -2.55  7.02
 N -0.08  1.53  5.12
 C  0.90  0.60  5.68
 H  0.12  2.51  5.28
 H  1.44  1.14  6.47
 H  1.62  0.26  4.93
 H  0.44 -0.28  6.15
