35
#
 C -0.11 -0.14  0.07
 C  0.00  0.01  1.57
 O  1.08  0.26  2.12
 H  0.88  0.04 -0.36
 H -0.43 -1.16 -0.21
 H -0.82  0.57 -0.37
 N -1.14 -0.14  2.32
 C -2.53 -0.32  1.91
 C -2.71 -1.60  1.05
 O -2.38 -2.67  1.54
 H -0.99 -0.00  3.32
 H -3.02 -0.65  2.84
 C -3.20  1.02  1.53
 C -4.72  1.05  1.74
 C -5.18  1.03  3.22
 N -4.59  2.07  4.05
 C -3.41  1.87  4.76
 N -2.76  3.07  5.06
 N -2.87  0.76  5.14
 H -2.96  1.32  0.51
 H -2.74  1.78  2.17
 H -5.22  0.20  1.24
 H -5.12  1.96  1.27
 H -4.97  0.06  3.69
 H -6.27  1.13  3.25
 H -4.68  3.00  3.66
 H -2.02  2.93  5.75
 H -3.36  3.85  5.30
 H -3.41 -0.05  4.84
 N -3.30 -1.59 -0.19
 C -3.58 -0.53 -1.16
 H -3.36 -2.54 -0.55
 H -4.40  0.13 -0.85
 H -3.89 -1.02 -2.10
 H -2.69  0.08 -1.39
