35
#
 C  0.38  0.14  1.11
 C -0.61 -0.96  1.45
 O -0.25 -2.11  1.64
 H  0.44  0.88  1.91
 H  0.10  0.64  0.17
 H  1.36 -0.33  0.99
 N -1.95 -0.64  1.60
 C -2.74  0.54  1.27
 C -2.87  0.75 -0.26
 O -2.01  0.38 -1.04
 H -2.48 -1.48  1.77
 H -3.74  0.27  1.64
 C -2.35  1.85  2.03
 C -1.67  2.96  1.21
 C -1.51  4.27  2.01
 N -2.73  4.84  2.55
 C -3.75  5.34  1.76
 N -4.93  5.59  2.47
 N -3.73  5.58  0.49
 H -1.72  1.56  2.88
 H -3.27  2.26  2.46
 H -2.26  3.16  0.31
 H -0.68  2.65  0.87
 H -1.03  5.02  1.37
 H -0.83  4.11  2.86
 H -3.04  4.45  3.44
 H -5.58  6.12  1.90
 H -4.79  6.02  3.38
 H -2.86  5.27  0.06
 N -4.00  1.39 -0.69
 C -5.07  2.02  0.07
 H -3.99  1.55 -1.70
 H -5.98  2.02 -0.54
 H -4.84  3.06  0.35
 H -5.29  1.45  0.98
