35
#
 C -0.70 -1.24  1.88
 C -1.01 -0.48  3.15
 O -0.25 -0.50  4.12
 H -1.33 -2.14  1.80
 H  0.35 -1.55  1.92
 H -0.87 -0.65  0.97
 N -2.19  0.22  3.24
 C -3.25  0.46  2.25
 C -3.77 -0.87  1.65
 O -3.69 -1.15  0.46
 H -2.28  0.71  4.12
 H -4.08  0.88  2.83
 C -2.86  1.50  1.19
 C -4.04  2.12  0.41
 C -4.20  1.64 -1.04
 N -3.00  1.85 -1.83
 C -2.29  0.90 -2.56
 N -2.58 -0.42 -2.24
 N -1.43  1.15 -3.49
 H -2.13  1.08  0.48
 H -2.33  2.29  1.73
 H -3.92  3.21  0.39
 H -4.99  1.94  0.94
 H -5.06  2.16 -1.50
 H -4.44  0.57 -1.07
 H -2.84  2.80 -2.15
 H -1.93 -1.06 -2.69
 H -2.84 -0.66 -1.29
 H -1.40  2.15 -3.70
 N -4.35 -1.74  2.52
 C -4.53 -1.63  3.96
 H -4.64 -2.61  2.08
 H -4.91 -0.63  4.24
 H -3.60 -1.80  4.52
 H -5.27 -2.36  4.28
