35
#
 C -0.56  0.92  0.24
 C -0.42  0.29  1.62
 O  0.57 -0.38  1.92
 H -0.62  0.11 -0.50
 H  0.35  1.49  0.02
 H -1.43  1.57  0.13
 N -1.47  0.54  2.47
 C -1.74  0.01  3.81
 C -1.56  1.05  4.94
 O -2.51  1.24  5.72
 H -2.20  1.13  2.09
 H -2.83 -0.15  3.83
 C -1.11 -1.36  4.12
 C -1.68 -2.01  5.39
 C -0.94 -1.62  6.69
 N -1.52 -2.16  7.91
 C -2.73 -1.75  8.46
 N -3.08 -0.43  8.23
 N -3.36 -2.60  9.20
 H -0.02 -1.29  4.18
 H -1.32 -2.01  3.25
 H -2.75 -1.78  5.50
 H -1.61 -3.11  5.29
 H -0.87 -0.53  6.80
 H  0.10 -1.98  6.64
 H -1.39 -3.16  8.07
 H -4.04 -0.21  8.46
 H -2.77  0.05  7.38
 H -4.19 -2.17  9.63
 N -0.40  1.73  5.09
 C  0.84  1.67  4.33
 H -0.44  2.39  5.86
 H  0.91  2.48  3.59
 H  0.94  0.72  3.80
 H  1.69  1.76  5.02
