35
#
 C -4.15 -3.56  1.79
 C -3.64 -2.88  3.04
 O -4.23 -2.99  4.12
 H -5.16 -3.18  1.57
 H -4.25 -4.64  1.99
 H -3.52 -3.42  0.91
 N -2.51 -2.14  2.89
 C -1.85 -1.29  3.90
 C -1.12 -2.06  5.03
 O  0.04 -1.76  5.30
 H -2.08 -2.16  1.97
 H -1.03 -0.80  3.36
 C -2.77 -0.21  4.48
 C -3.33  0.75  3.42
 C -4.19  1.87  4.01
 N -3.40  2.75  4.87
 C -4.01  3.72  5.65
 N -3.07  4.54  6.29
 N -5.26  3.93  5.84
 H -2.18  0.35  5.22
 H -3.60 -0.68  5.03
 H -3.95  0.20  2.70
 H -2.50  1.19  2.84
 H -4.99  1.43  4.62
 H -4.68  2.43  3.19
 H -2.50  3.03  4.48
 H -2.29  4.04  6.71
 H -3.52  5.16  6.95
 H -5.84  3.37  5.21
 N -1.86 -2.99  5.68
 C -1.33 -3.76  6.79
 H -2.83 -3.11  5.37
 H -1.87 -3.52  7.72
 H -0.28 -3.50  6.91
 H -1.42 -4.84  6.60
