35
#
 C -2.61  1.14  0.22
 C -1.87  0.93  1.53
 O -1.07 -0.01  1.67
 H -3.34  0.34  0.10
 H -1.90  1.06 -0.61
 H -3.13  2.11  0.16
 N -2.16  1.81  2.52
 C -1.73  1.75  3.93
 C -0.24  2.10  4.17
 O  0.05  2.93  5.03
 H -2.78  2.58  2.28
 H -2.27  2.57  4.43
 C -2.09  0.43  4.65
 C -3.58  0.18  4.91
 C -4.42 -0.13  3.67
 N -5.73 -0.63  4.05
 C -6.68 -0.92  3.08
 N -7.94 -1.22  3.63
 N -6.53 -0.94  1.80
 H -1.57  0.47  5.62
 H -1.65 -0.42  4.10
 H -4.01  1.04  5.45
 H -3.66 -0.69  5.59
 H -3.91 -0.90  3.06
 H -4.52  0.77  3.03
 H -6.12 -0.22  4.90
 H -8.57 -1.56  2.91
 H -7.91 -1.83  4.44
 H -5.60 -0.58  1.53
 N  0.65  1.42  3.42
 C  2.08  1.61  3.54
 H  0.28  0.73  2.75
 H  2.26  2.40  4.28
 H  2.53  1.90  2.58
 H  2.58  0.68  3.88
