35
#
 C  0.35  0.38  0.30
 C -0.30  0.67  1.64
 O -0.82  1.76  1.88
 H  0.91 -0.56  0.28
 H  1.01  1.21  0.03
 H -0.44  0.33 -0.47
 N -0.28 -0.35  2.53
 C -0.85 -0.29  3.87
 C -2.27  0.35  3.79
 O -3.14 -0.30  3.21
 H  0.31 -1.16  2.32
 H -1.13 -1.32  4.10
 C  0.16  0.14  4.97
 C  1.26  1.15  4.63
 C  2.47  0.61  3.84
 N  3.08 -0.59  4.40
 C  2.77 -1.89  4.03
 N  2.39 -2.05  2.68
 N  2.80 -2.94  4.77
 H  0.65 -0.78  5.32
 H -0.42  0.50  5.83
 H  1.64  1.57  5.58
 H  0.86  2.01  4.07
 H  3.24  1.40  3.79
 H  2.19  0.40  2.80
 H  3.35 -0.52  5.37
 H  2.38 -3.05  2.47
 H  2.99 -1.55  2.03
 H  2.95 -2.70  5.76
 N -2.60  1.48  4.49
 C -1.79  2.65  4.79
 H -3.59  1.67  4.35
 H -2.47  3.48  5.00
 H -1.17  2.92  3.92
 H -1.15  2.51  5.67
