35
#
 C -0.69 -0.61 -0.19
 C -0.54 -0.62  1.32
 O  0.56 -0.89  1.84
 H -1.46 -1.32 -0.51
 H  0.28 -0.89 -0.61
 H -0.97  0.38 -0.56
 N -1.61 -0.36  2.12
 C -2.91  0.29  1.88
 C -3.48  0.04  0.47
 O -3.83 -1.09  0.14
 H -1.35 -0.34  3.12
 H -3.63 -0.25  2.52
 C -2.88  1.76  2.40
 C -1.72  2.64  1.91
 C -1.07  3.50  3.01
 N -0.67  2.77  4.22
 C  0.04  1.57  4.16
 N  1.17  1.57  3.37
 N -0.39  0.56  4.85
 H -2.81  1.67  3.49
 H -3.86  2.22  2.21
 H -2.04  3.33  1.10
 H -0.94  2.00  1.47
 H -1.77  4.28  3.35
 H -0.21  4.03  2.59
 H -1.40  2.68  4.92
 H  1.38  2.41  2.84
 H  1.35  0.69  2.88
 H  0.31 -0.19  4.86
 N -3.61  1.13 -0.33
 C -4.14  1.04 -1.68
 H -3.26  2.02 -0.00
 H -3.35  1.14 -2.43
 H -4.90  1.82 -1.85
 H -4.60  0.05 -1.79
