35
#
 C  0.04 -0.04  0.08
 C -0.01 -0.05  1.60
 O  1.01 -0.07  2.29
 H -0.50 -0.89 -0.35
 H  1.09 -0.10 -0.21
 H -0.40  0.88 -0.33
 N -1.25 -0.02  2.19
 C -2.56 -0.11  1.56
 C -3.57  0.80  2.29
 O -4.60  0.36  2.79
 H -1.21 -0.08  3.21
 H -2.46  0.29  0.54
 C -3.08 -1.56  1.43
 C -3.03 -2.38  2.72
 C -3.57 -3.80  2.52
 N -3.50 -4.67  3.69
 C -2.31 -5.05  4.29
 N -1.26 -5.34  3.41
 N -2.28 -5.20  5.57
 H -2.49 -2.06  0.66
 H -4.12 -1.51  1.06
 H -3.62 -1.88  3.51
 H -1.99 -2.44  3.09
 H -3.05 -4.29  1.67
 H -4.63 -3.76  2.22
 H -4.19 -4.47  4.41
 H -0.34 -5.27  3.81
 H -1.32 -4.97  2.47
 H -1.40 -5.62  5.88
 N -3.26  2.13  2.36
 C -2.15  2.85  1.76
 H -3.95  2.67  2.87
 H -1.21  2.73  2.33
 H -2.40  3.92  1.73
 H -1.97  2.53  0.73
