35
#
 C  0.60 -0.91  1.13
 C -0.05  0.32  1.72
 O  0.59  1.32  2.03
 H  0.35 -1.83  1.69
 H  1.68 -0.76  1.14
 H  0.28 -1.06  0.09
 N -1.41  0.26  1.94
 C -2.33 -0.75  1.47
 C -2.49 -0.73 -0.07
 O -2.41  0.32 -0.72
 H -1.80  1.16  2.22
 H -1.93 -1.74  1.75
 C -3.70 -0.60  2.19
 C -4.50  0.67  1.87
 C -5.45  0.53  0.66
 N -6.14  1.75  0.28
 C -5.52  2.87 -0.26
 N -4.40  2.63 -1.04
 N -6.09  4.02 -0.06
 H -3.49 -0.65  3.26
 H -4.31 -1.49  1.95
 H -3.83  1.53  1.69
 H -5.10  0.94  2.75
 H -6.21 -0.23  0.88
 H -4.91  0.15 -0.22
 H -6.90  2.04  0.89
 H -3.84  3.45 -1.24
 H -3.83  1.80 -0.88
 H -5.61  4.76 -0.57
 N -2.76 -1.93 -0.63
 C -3.05 -2.11 -2.04
 H -2.79 -2.75 -0.02
 H -4.07 -2.47 -2.20
 H -2.34 -2.81 -2.50
 H -2.94 -1.13 -2.52
