35
#
 C -1.07  0.06 -0.09
 C -1.30  0.59  1.31
 O -0.84  1.69  1.66
 H  0.01 -0.02 -0.26
 H -1.47  0.78 -0.81
 H -1.54 -0.92 -0.27
 N -2.04 -0.20  2.12
 C -2.24  0.03  3.55
 C -2.13 -1.35  4.22
 O -2.41 -2.37  3.58
 H -2.28 -1.15  1.84
 H -1.45  0.70  3.89
 C -3.63  0.65  3.84
 C -3.76  2.12  3.40
 C -3.47  3.14  4.50
 N -2.25  2.89  5.29
 C -1.05  3.56  5.04
 N -0.77  3.77  3.70
 N -0.35  3.92  6.07
 H -3.84  0.56  4.92
 H -4.37  0.02  3.33
 H -3.11  2.30  2.53
 H -4.79  2.30  3.05
 H -4.30  3.12  5.22
 H -3.45  4.15  4.07
 H -2.41  2.91  6.29
 H  0.15  4.19  3.54
 H -0.97  3.02  3.04
 H  0.57  4.27  5.79
 N -1.79 -1.40  5.53
 C -1.33 -0.33  6.40
 H -1.76 -2.35  5.89
 H -1.84 -0.39  7.37
 H -0.24 -0.39  6.57
 H -1.55  0.65  5.96
