35
#
 C  0.48  0.57  0.16
 C  0.30  0.29  1.64
 O  1.21  0.44  2.45
 H  0.73  1.62  0.02
 H -0.41  0.33 -0.45
 H  1.33 -0.02 -0.21
 N -0.95 -0.15  2.01
 C -1.33 -0.34  3.40
 C -1.92 -1.75  3.62
 O -3.06 -1.94  4.04
 H -1.67 -0.21  1.30
 H -0.37 -0.31  3.94
 C -2.21  0.80  3.96
 C -3.24  1.45  3.02
 C -4.39  0.55  2.54
 N -5.20 -0.04  3.58
 C -6.14  0.69  4.29
 N -6.61 -0.01  5.41
 N -6.60  1.87  4.06
 H -1.52  1.59  4.30
 H -2.71  0.42  4.87
 H -2.72  1.87  2.14
 H -3.66  2.31  3.56
 H -4.01 -0.28  1.92
 H -5.05  1.14  1.87
 H -4.72 -0.79  4.07
 H -7.43  0.45  5.80
 H -6.75 -1.01  5.27
 H -6.10  2.32  3.29
 N -1.10 -2.81  3.33
 C  0.28 -2.82  2.88
 H -1.56 -3.70  3.48
 H  0.77 -3.72  3.28
 H  0.83 -1.95  3.25
 H  0.36 -2.84  1.79
