35
#
 C -0.36  0.02 -0.03
 C -0.19 -0.48  1.39
 O  0.58 -1.38  1.69
 H -0.89  0.98 -0.11
 H -0.91 -0.74 -0.60
 H  0.63  0.11 -0.49
 N -0.97  0.17  2.33
 C -1.15 -0.25  3.73
 C  0.19 -0.51  4.47
 O  0.28 -1.39  5.33
 H -1.63  0.85  1.98
 H -1.56  0.64  4.23
 C -2.14 -1.40  3.94
 C -1.72 -2.77  3.41
 C -2.25 -3.91  4.30
 N -1.58 -5.19  4.12
 C -0.31 -5.49  4.61
 N  0.19 -4.60  5.55
 N  0.36 -6.56  4.34
 H -3.11 -1.09  3.51
 H -2.30 -1.46  5.03
 H -0.62 -2.83  3.38
 H -2.05 -2.92  2.37
 H -3.32 -4.06  4.14
 H -2.13 -3.63  5.36
 H -1.83 -5.71  3.28
 H  1.14 -4.85  5.81
 H  0.08 -3.60  5.39
 H -0.18 -7.19  3.74
 N  1.19  0.36  4.19
 C  2.53  0.18  4.72
 H  1.08  0.94  3.36
 H  3.12 -0.51  4.10
 H  2.45 -0.23  5.73
 H  3.04  1.15  4.76
