35
#
 C -0.36  1.33  2.31
 C  0.23 -0.06  2.39
 O  1.41 -0.27  2.64
 H -0.75  1.54  1.30
 H  0.43  2.05  2.55
 H -1.20  1.46  3.01
 N -0.63 -1.12  2.18
 C -2.03 -1.06  1.78
 C -2.99 -0.61  2.90
 O -4.02  0.00  2.64
 H -0.16 -2.02  2.14
 H -2.18 -0.32  0.98
 C -2.42 -2.45  1.22
 C -3.90 -2.64  0.83
 C -4.76 -3.19  1.96
 N -6.13 -3.37  1.54
 C -7.12 -3.72  2.44
 N -8.35 -3.95  1.82
 N -7.02 -3.87  3.72
 H -2.14 -3.22  1.95
 H -1.78 -2.62  0.33
 H -3.94 -3.34 -0.02
 H -4.33 -1.69  0.48
 H -4.76 -2.49  2.81
 H -4.31 -4.14  2.33
 H -6.25 -3.76  0.61
 H -9.08 -4.09  2.51
 H -8.61 -3.25  1.13
 H -6.04 -3.81  4.02
 N -2.61 -0.97  4.16
 C -3.40 -0.66  5.34
 H -1.69 -1.38  4.26
 H -4.36 -0.25  5.00
 H -2.90  0.08  5.97
 H -3.59 -1.57  5.93
