35
#
 C -0.38 -0.98  2.45
 C  0.11  0.29  3.13
 O  1.00  0.26  3.98
 H -0.38 -0.89  1.35
 H -1.41 -1.22  2.76
 H  0.28 -1.79  2.75
 N -0.47  1.48  2.76
 C -1.62  1.67  1.88
 C -1.51  3.06  1.23
 O -2.36  3.94  1.39
 H -0.12  2.31  3.27
 H -1.54  0.94  1.05
 C -3.00  1.43  2.54
 C -3.17  1.72  4.04
 C -3.34  3.19  4.47
 N -2.16  4.04  4.33
 C -0.96  3.77  4.96
 N -1.04  3.42  6.29
 N  0.14  3.90  4.28
 H -3.24  0.36  2.40
 H -3.75  1.99  1.96
 H -2.34  1.28  4.61
 H -4.08  1.19  4.38
 H -3.70  3.22  5.51
 H -4.13  3.67  3.88
 H -2.02  4.36  3.37
 H -0.30  2.82  6.64
 H -1.95  3.24  6.69
 H  0.96  3.82  4.88
 N -0.43  3.28  0.42
 C  0.70  2.41  0.15
 H -0.38  4.24  0.10
 H  1.18  2.75 -0.78
 H  0.37  1.38 -0.01
 H  1.44  2.41  0.96
