35
#
 C -0.85  0.65  0.21
 C -0.56  1.07  1.63
 O  0.25  1.96  1.89
 H -0.23  1.27 -0.45
 H -1.91  0.81 -0.05
 H -0.61 -0.41  0.06
 N -1.23  0.46  2.68
 C -2.07 -0.73  2.79
 C -1.30 -2.05  2.58
 O -0.41 -2.15  1.73
 H -0.87  0.81  3.56
 H -2.42 -0.69  3.83
 C -3.36 -0.71  1.89
 C -3.38 -1.63  0.65
 C -4.03 -3.01  0.91
 N -3.70 -3.99 -0.10
 C -2.89 -5.08  0.14
 N -2.75 -5.90 -0.99
 N -2.38 -5.31  1.31
 H -4.22 -0.97  2.53
 H -3.52  0.33  1.59
 H -2.36 -1.81  0.29
 H -3.91 -1.13 -0.17
 H -5.12 -2.90  0.98
 H -3.69 -3.42  1.86
 H -4.28 -4.04 -0.93
 H -2.03 -6.60 -0.89
 H -2.65 -5.40 -1.87
 H -1.76 -6.12  1.27
 N -1.72 -3.13  3.30
 C -2.73 -3.15  4.35
 H -1.56 -4.02  2.81
 H -2.79 -4.18  4.73
 H -3.74 -2.87  4.00
 H -2.45 -2.50  5.19
