35
#
 C -0.07  1.85  2.28
 C  0.51  0.82  3.23
 O  1.60  0.97  3.79
 H -0.94  1.49  1.72
 H  0.72  2.16  1.59
 H -0.36  2.74  2.86
 N -0.28 -0.29  3.43
 C  0.13 -1.37  4.31
 C  0.89 -2.53  3.64
 O  1.79 -3.10  4.27
 H -1.18 -0.33  2.96
 H  0.87 -0.94  4.99
 C -1.03 -1.96  5.13
 C -1.68 -1.04  6.17
 C -2.73 -0.03  5.65
 N -3.80 -0.66  4.89
 C -3.79 -0.72  3.51
 N -4.39 -1.85  2.97
 N -3.25  0.14  2.69
 H -0.61 -2.83  5.66
 H -1.80 -2.38  4.46
 H -0.90 -0.47  6.71
 H -2.17 -1.67  6.93
 H -2.25  0.72  5.02
 H -3.16  0.51  6.50
 H -4.20 -1.47  5.35
 H -4.69 -1.71  2.01
 H -5.08 -2.32  3.54
 H -2.90  0.95  3.20
 N  0.55 -2.95  2.38
 C -0.53 -2.53  1.50
 H  1.14 -3.71  2.06
 H -0.68 -3.31  0.75
 H -0.31 -1.59  0.98
 H -1.48 -2.42  2.03
