35
#
 C  0.94 -0.31  0.10
 C  0.46 -0.59  1.51
 O  0.97 -1.45  2.22
 H  2.00 -0.02  0.13
 H  0.37  0.47 -0.42
 H  0.88 -1.24 -0.48
 N -0.59  0.18  1.94
 C -1.08  0.13  3.30
 C -1.97 -1.07  3.72
 O -2.15 -1.24  4.93
 H -0.94  0.91  1.32
 H -0.21  0.00  3.96
 C -1.76  1.47  3.68
 C -3.01  1.87  2.89
 C -4.31  1.17  3.33
 N -5.51  1.68  2.69
 C -6.09  2.89  3.06
 N -7.11  3.27  2.18
 N -5.80  3.64  4.06
 H -0.99  2.25  3.57
 H -2.00  1.42  4.75
 H -2.87  1.71  1.81
 H -3.16  2.96  3.00
 H -4.43  1.26  4.42
 H -4.26  0.09  3.13
 H -5.62  1.44  1.71
 H -7.60  4.08  2.55
 H -7.75  2.52  1.93
 H -4.97  3.32  4.56
 N -2.56 -1.90  2.82
 C -2.55 -1.95  1.36
 H -3.04 -2.66  3.29
 H -3.32 -2.66  1.05
 H -1.58 -2.29  0.96
 H -2.79 -0.97  0.92
