35
#
 C  0.18  0.26  0.56
 C -0.03  0.40  2.04
 O  0.87  0.86  2.77
 H  0.15  1.26  0.10
 H -0.54 -0.40  0.08
 H  1.19 -0.13  0.41
 N -1.22  0.03  2.62
 C -2.57 -0.05  2.07
 C -2.85 -1.35  1.30
 O -2.00 -1.96  0.66
 H -1.24  0.30  3.61
 H -3.21 -0.07  2.97
 C -2.99  1.20  1.26
 C -3.31  2.46  2.09
 C -2.23  3.01  3.02
 N -2.20  2.29  4.31
 C -1.26  2.66  5.30
 N  0.04  2.77  4.84
 N -1.72  2.87  6.49
 H -3.88  0.95  0.66
 H -2.20  1.43  0.53
 H -4.23  2.28  2.68
 H -3.57  3.26  1.38
 H -2.42  4.09  3.19
 H -1.24  2.94  2.55
 H -3.11  2.31  4.76
 H  0.72  2.92  5.57
 H  0.35  2.11  4.12
 H -0.96  3.00  7.16
 N -4.15 -1.78  1.32
 C -5.26 -1.27  2.11
 H -4.29 -2.63  0.79
 H -5.07 -1.33  3.19
 H -6.14 -1.89  1.90
 H -5.52 -0.23  1.85
