35
#
 C -4.05  0.26  0.58
 C -2.71  0.34  1.29
 O -1.65  0.14  0.71
 H -4.12 -0.71  0.06
 H -4.09  1.04 -0.19
 H -4.91  0.38  1.24
 N -2.77  0.66  2.63
 C -1.57  0.98  3.39
 C -1.19 -0.06  4.45
 O -0.17  0.09  5.13
 H -3.66  1.01  2.98
 H -0.75  0.94  2.65
 C -1.66  2.40  3.99
 C -1.56  3.52  2.95
 C -0.19  3.67  2.25
 N  0.91  4.08  3.12
 C  1.43  3.24  4.11
 N  1.80  1.96  3.69
 N  1.58  3.71  5.30
 H -0.88  2.51  4.75
 H -2.62  2.49  4.54
 H -1.80  4.47  3.44
 H -2.33  3.38  2.17
 H -0.28  4.42  1.46
 H  0.07  2.73  1.74
 H  0.78  5.00  3.53
 H  1.63  1.75  2.71
 H  1.49  1.21  4.31
 H  2.12  3.06  5.88
 N -2.02 -1.12  4.57
 C -1.76 -2.23  5.47
 H -2.78 -1.18  3.90
 H -1.47 -3.14  4.91
 H -2.64 -2.46  6.08
 H -0.93 -1.95  6.12
