35
#
 C -0.31  0.04 -0.49
 C  0.18  0.05  0.95
 O  1.37  0.16  1.20
 H  0.26  0.78 -1.05
 H -1.38  0.23 -0.62
 H -0.09 -0.95 -0.92
 N -0.74 -0.14  1.97
 C -2.19  0.02  1.92
 C -2.91 -1.02  1.03
 O -4.00 -0.79  0.50
 H -0.34  0.03  2.90
 H -2.52 -0.25  2.93
 C -2.68  1.46  1.64
 C -2.04  2.51  2.56
 C -2.67  2.69  3.95
 N -2.96  1.50  4.74
 C -2.01  0.67  5.28
 N -2.56 -0.30  6.13
 N -0.76  0.79  4.96
 H -3.77  1.47  1.72
 H -2.45  1.71  0.59
 H -2.10  3.49  2.07
 H -0.97  2.30  2.68
 H -3.63  3.21  3.85
 H -2.01  3.34  4.55
 H -3.91  1.14  4.71
 H -3.29  0.03  6.76
 H -1.88 -0.88  6.60
 H -0.17  0.21  5.56
 N -2.27 -2.22  0.95
 C -2.79 -3.34  0.18
 H -1.36 -2.28  1.38
 H -2.89 -4.23  0.81
 H -2.14 -3.58 -0.67
 H -3.78 -3.05 -0.20
