35
#
 C -1.24 -0.74 -0.55
 C -0.44 -0.88  0.73
 O  0.57 -1.58  0.81
 H -1.26  0.31 -0.90
 H -2.28 -1.07 -0.43
 H -0.75 -1.35 -1.31
 N -0.89 -0.20  1.84
 C -2.07  0.66  1.96
 C -1.73  1.86  2.88
 O -2.34  2.08  3.92
 H -0.35 -0.38  2.68
 H -2.27  1.08  0.96
 C -3.34 -0.07  2.43
 C -3.15 -0.98  3.65
 C -4.48 -1.56  4.17
 N -5.27 -2.31  3.22
 C -4.92 -3.59  2.79
 N -5.73 -4.03  1.74
 N -3.99 -4.36  3.24
 H -3.71 -0.67  1.58
 H -4.10  0.69  2.65
 H -2.69 -0.42  4.47
 H -2.47 -1.81  3.39
 H -5.11 -0.74  4.54
 H -4.28 -2.20  5.04
 H -5.78 -1.76  2.54
 H -5.54 -5.01  1.54
 H -6.73 -3.87  1.87
 H -3.39 -3.88  3.91
 N -0.72  2.68  2.47
 C  0.07  2.63  1.25
 H -0.52  3.43  3.13
 H  0.54  3.61  1.10
 H -0.56  2.42  0.37
 H  0.87  1.87  1.29
