35
#
 C -0.33  0.10 -0.03
 C -0.25  0.09  1.48
 O  0.84 -0.00  2.07
 H -1.35  0.22 -0.42
 H  0.09 -0.84 -0.41
 H  0.30  0.92 -0.41
 N -1.44  0.20  2.14
 C -1.67  0.12  3.59
 C -1.17  1.36  4.39
 O -1.95  1.98  5.10
 H -2.26  0.33  1.56
 H -2.76  0.18  3.71
 C -1.19 -1.21  4.19
 C -1.50 -1.34  5.68
 C -1.14 -2.71  6.26
 N -1.99 -3.75  5.71
 C -1.72 -5.10  5.92
 N -2.74 -5.93  5.44
 N -0.69 -5.62  6.49
 H -0.11 -1.33  4.02
 H -1.68 -2.03  3.64
 H -2.56 -1.12  5.88
 H -0.94 -0.57  6.25
 H -1.20 -2.67  7.36
 H -0.10 -2.95  6.00
 H -2.98 -3.53  5.72
 H -2.46 -6.90  5.50
 H -3.08 -5.68  4.52
 H -0.09 -4.91  6.93
 N  0.16  1.62  4.27
 C  0.79  2.74  4.95
 H  0.69  1.06  3.60
 H  1.64  2.39  5.55
 H  0.05  3.20  5.61
 H  1.15  3.49  4.23
