35
#
 C -1.12 -0.86  0.18
 C -0.83 -0.48  1.62
 O  0.33 -0.24  1.99
 H -2.18 -1.06 -0.03
 H -0.53 -1.75 -0.07
 H -0.78 -0.04 -0.47
 N -1.92 -0.41  2.43
 C -2.02 -0.15  3.89
 C -1.53  1.22  4.41
 O -2.14  1.75  5.33
 H -2.80 -0.60  1.99
 H -3.10 -0.10  4.06
 C -1.50 -1.31  4.77
 C  0.01 -1.37  5.05
 C  0.41 -2.66  5.76
 N  0.29 -3.81  4.86
 C  0.12 -5.08  5.37
 N  0.23 -6.06  4.37
 N -0.07 -5.28  6.63
 H -1.82 -2.26  4.30
 H -2.03 -1.24  5.73
 H  0.29 -0.52  5.69
 H  0.58 -1.26  4.12
 H -0.23 -2.87  6.63
 H  1.44 -2.57  6.15
 H  0.88 -3.76  4.03
 H -0.07 -6.99  4.67
 H -0.20 -5.81  3.48
 H -0.29 -6.26  6.82
 N -0.42  1.74  3.83
 C  0.16  2.98  4.30
 H  0.09  1.15  3.16
 H  0.76  3.43  3.50
 H  0.80  2.83  5.18
 H -0.64  3.68  4.58
