35
#
 C -1.11 -0.06 -0.24
 C -0.96 -0.59  1.18
 O -0.09 -1.39  1.49
 H -0.87 -0.87 -0.94
 H -0.37  0.74 -0.38
 H -2.10  0.34 -0.46
 N -1.90 -0.10  2.06
 C -1.83 -0.22  3.51
 C -0.75  0.75  4.07
 O  0.18  1.18  3.38
 H -2.47  0.67  1.72
 H -2.79  0.17  3.89
 C -1.73 -1.71  3.97
 C -0.76 -2.05  5.11
 C  0.73 -1.93  4.73
 N  1.52 -1.36  5.83
 C  2.70 -0.63  5.67
 N  2.83  0.03  4.46
 N  3.63 -0.52  6.56
 H -1.43 -2.30  3.09
 H -2.74 -2.04  4.25
 H -0.98 -3.07  5.44
 H -0.94 -1.41  5.99
 H  0.85 -1.30  3.85
 H  1.12 -2.92  4.43
 H  1.56 -1.94  6.66
 H  2.00  0.41  4.02
 H  3.62  0.66  4.47
 H  3.47 -1.15  7.34
 N -0.94  1.13  5.36
 C  0.03  1.90  6.12
 H -1.70  0.69  5.88
 H -0.48  2.59  6.80
 H  0.63  2.48  5.40
 H  0.71  1.25  6.69
