35
#
 C -1.01 -0.78  0.06
 C -1.22 -0.12  1.41
 O -0.74  0.97  1.68
 H  0.04 -1.09 -0.02
 H -1.20 -0.04 -0.73
 H -1.65 -1.66 -0.11
 N -1.99 -0.84  2.30
 C -2.17 -0.50  3.71
 C -2.28  1.02  3.98
 O -1.62  1.58  4.86
 H -2.28 -1.77  2.02
 H -3.17 -0.89  3.98
 C -1.16 -1.23  4.63
 C  0.32 -1.27  4.23
 C  1.12  0.04  4.33
 N  1.04  0.70  5.62
 C  1.68  0.19  6.73
 N  1.32  0.86  7.91
 N  2.49 -0.81  6.64
 H -1.51 -2.27  4.71
 H -1.26 -0.80  5.64
 H  0.42 -1.65  3.20
 H  0.81 -2.01  4.87
 H  0.77  0.76  3.58
 H  2.17 -0.19  4.13
 H  0.16  1.19  5.77
 H  1.96  0.69  8.68
 H  1.14  1.85  7.80
 H  2.95 -0.99  7.53
 N -3.28  1.70  3.34
 C -4.15  1.28  2.26
 H -3.26  2.69  3.57
 H -3.66  1.33  1.28
 H -5.02  1.94  2.24
 H -4.51  0.26  2.42
