35
#
 C  0.03 -1.11  0.48
 C  0.09 -0.17  1.67
 O  1.13  0.37  2.02
 H  1.00 -1.08 -0.01
 H -0.74 -0.81 -0.25
 H -0.18 -2.15  0.80
 N -1.07  0.03  2.39
 C -2.42 -0.41  2.09
 C -3.31  0.84  1.95
 O -3.26  1.75  2.77
 H -0.99  0.74  3.11
 H -2.39 -0.96  1.14
 C -3.03 -1.32  3.17
 C -2.48 -2.75  3.23
 C -1.08 -2.89  3.86
 N -0.63 -4.27  3.98
 C -0.16 -4.96  2.88
 N  0.14 -6.30  3.18
 N -0.06 -4.39  1.73
 H -4.12 -1.38  2.98
 H -2.93 -0.81  4.14
 H -2.45 -3.19  2.22
 H -3.18 -3.36  3.82
 H -1.08 -2.45  4.87
 H -0.33 -2.35  3.28
 H -1.10 -4.84  4.68
 H  0.62 -6.78  2.44
 H  0.60 -6.44  4.08
 H  0.43 -4.99  1.06
 N -4.16  0.84  0.88
 C -5.10  1.91  0.61
 H -4.11  0.06  0.23
 H -4.90  2.39 -0.36
 H -4.97  2.66  1.41
 H -6.13  1.54  0.63
