35
#
 C -0.48 -0.33  0.12
 C  0.10  0.05  1.47
 O  1.22 -0.35  1.82
 H -1.52 -0.69  0.20
 H  0.14 -1.11 -0.32
 H -0.49  0.55 -0.55
 N -0.63  0.85  2.29
 C -1.98  1.34  2.14
 C -2.16  2.20  0.87
 O -1.35  3.07  0.55
 H -0.19  1.02  3.20
 H -2.70  0.49  2.09
 C -2.35  2.22  3.35
 C -2.32  1.55  4.74
 C -1.04  1.80  5.57
 N  0.14  1.09  5.07
 C  0.34 -0.28  5.38
 N  1.48 -0.76  4.77
 N -0.41 -1.03  6.11
 H -3.37  2.59  3.16
 H -1.70  3.10  3.32
 H -2.49  0.47  4.65
 H -3.15  1.95  5.33
 H -1.24  1.54  6.62
 H -0.80  2.87  5.56
 H  1.00  1.63  5.10
 H  1.59 -1.76  4.94
 H  1.59 -0.52  3.78
 H -1.13 -0.49  6.60
 N -3.31  1.95  0.18
 C -3.70  2.70 -1.00
 H -3.90  1.18  0.49
 H -4.69  3.17 -0.87
 H -3.74  2.05 -1.89
 H -2.95  3.47 -1.16
