35
#
 C -1.46  1.12 -0.22
 C -1.10  0.69  1.19
 O -0.05  1.01  1.74
 H -1.45  2.22 -0.26
 H -2.44  0.75 -0.55
 H -0.69  0.76 -0.90
 N -2.05 -0.09  1.81
 C -1.87 -0.56  3.18
 C -2.04 -2.09  3.25
 O -3.00 -2.64  3.80
 H -2.90 -0.31  1.29
 H -0.82 -0.33  3.39
 C -2.67  0.24  4.23
 C -4.20  0.11  4.39
 C -5.07  0.17  3.13
 N -5.05 -1.11  2.43
 C -4.91 -1.22  1.07
 N -4.57 -2.51  0.65
 N -4.97 -0.29  0.17
 H -2.43  1.30  4.02
 H -2.22  0.02  5.21
 H -4.52  0.93  5.05
 H -4.44 -0.82  4.93
 H -4.71  0.97  2.46
 H -6.10  0.43  3.41
 H -4.61 -1.86  2.97
 H -4.74 -2.65 -0.34
 H -4.91 -3.27  1.24
 H -5.20  0.61  0.59
 N -1.05 -2.84  2.68
 C  0.09 -2.41  1.89
 H -1.26 -3.83  2.70
 H -0.16 -2.31  0.83
 H  0.89 -3.15  2.00
 H  0.47 -1.44  2.24
