35
#
 C -0.87 -1.38  0.43
 C -0.69 -0.35  1.53
 O -0.01  0.66  1.38
 H -1.43 -0.92 -0.40
 H -1.41 -2.28  0.76
 H  0.11 -1.67  0.04
 N -1.35 -0.64  2.70
 C -1.35  0.29  3.82
 C -1.20 -0.47  5.15
 O -1.85 -0.19  6.16
 H -1.93 -1.48  2.75
 H -0.43  0.87  3.70
 C -2.51  1.32  3.81
 C -3.91  0.87  3.39
 C -4.74  0.05  4.39
 N -4.24 -1.30  4.68
 C -4.03 -2.24  3.69
 N -4.90 -2.17  2.61
 N -3.08 -3.13  3.66
 H -2.19  2.11  3.11
 H -2.53  1.78  4.81
 H -3.86  0.33  2.43
 H -4.49  1.79  3.18
 H -5.78 -0.00  4.04
 H -4.78  0.57  5.36
 H -3.53 -1.30  5.40
 H -4.86 -3.01  2.04
 H -5.85 -1.86  2.81
 H -2.47 -3.03  4.47
 N -0.26 -1.46  5.12
 C  0.08 -2.27  6.27
 H  0.19 -1.65  4.23
 H -0.13 -3.34  6.09
 H -0.54 -1.93  7.11
 H  1.14 -2.16  6.54
