35
#
 C -4.00  1.48  0.12
 C -2.80  0.88  0.83
 O -1.78  0.55  0.24
 H -4.88  1.60  0.75
 H -4.25  0.85 -0.74
 H -3.71  2.47 -0.28
 N -2.96  0.71  2.19
 C -1.85  0.34  3.06
 C -2.11 -0.96  3.87
 O -1.43 -1.24  4.85
 H -3.77  1.14  2.63
 H -1.02  0.10  2.37
 C -1.41  1.48  3.98
 C -0.88  2.70  3.23
 C -0.34  3.80  4.15
 N  0.81  3.39  4.95
 C  2.11  3.78  4.69
 N  2.38  4.00  3.33
 N  2.93  3.94  5.68
 H -0.63  1.08  4.65
 H -2.25  1.77  4.63
 H -1.67  3.14  2.60
 H -0.09  2.38  2.53
 H -1.14  4.12  4.84
 H -0.07  4.68  3.55
 H  0.67  3.30  5.95
 H  1.95  3.35  2.68
 H  3.37  4.14  3.13
 H  3.89  4.08  5.35
 N -3.10 -1.75  3.38
 C -3.40 -3.05  3.93
 H -3.56 -1.44  2.53
 H -3.12 -3.86  3.24
 H -4.47 -3.15  4.17
 H -2.82 -3.16  4.86
