35
#
 C  0.19 -0.05 -0.39
 C -0.19 -0.26  1.07
 O  0.28 -1.17  1.74
 H  1.27  0.08 -0.46
 H -0.31  0.82 -0.85
 H -0.08 -0.95 -0.95
 N -1.07  0.66  1.58
 C -1.65  0.52  2.90
 C -3.17  0.71  2.76
 O -3.64  1.45  1.89
 H -1.57  1.28  0.95
 H -1.41 -0.50  3.24
 C -1.09  1.55  3.91
 C  0.39  1.34  4.22
 C  0.95  2.39  5.19
 N  0.26  2.41  6.49
 C  0.67  1.57  7.51
 N  0.02  1.86  8.72
 N  1.56  0.67  7.30
 H -1.67  1.48  4.84
 H -1.26  2.56  3.50
 H  0.98  1.39  3.30
 H  0.56  0.34  4.64
 H  0.85  3.39  4.76
 H  2.02  2.19  5.35
 H -0.05  3.32  6.80
 H  0.16  1.15  9.43
 H -0.96  2.11  8.63
 H  1.70  0.07  8.12
 N -3.92  0.04  3.67
 C -5.36  0.15  3.75
 H -3.44 -0.58  4.31
 H -5.85 -0.82  3.59
 H -5.68  0.84  2.96
 H -5.68  0.55  4.72
