35
#
 C  0.04  1.49  0.57
 C -0.01  0.44  1.66
 O  0.83 -0.45  1.75
 H  1.03  1.97  0.58
 H -0.73  2.27  0.66
 H -0.07  1.00 -0.40
 N -1.05  0.58  2.56
 C -1.40 -0.49  3.51
 C -2.85 -0.94  3.29
 O -3.10 -2.10  2.96
 H -1.77  1.23  2.31
 H -0.79 -1.35  3.22
 C -1.11 -0.17  5.00
 C  0.34 -0.30  5.46
 C  1.34  0.71  4.86
 N  0.86  2.09  4.73
 C  0.34  2.85  5.77
 N  0.88  2.56  7.02
 N -0.57  3.76  5.67
 H -1.71 -0.89  5.59
 H -1.49  0.82  5.26
 H  0.72 -1.31  5.25
 H  0.34 -0.19  6.56
 H  1.64  0.39  3.86
 H  2.26  0.70  5.47
 H  0.35  2.24  3.86
 H  1.86  2.32  7.04
 H  0.63  3.27  7.70
 H -0.95  3.80  4.72
 N -3.87 -0.03  3.42
 C -3.90  1.27  4.09
 H -4.77 -0.46  3.26
 H -4.70  1.88  3.66
 H -2.96  1.81  3.96
 H -4.07  1.17  5.17
