35
#
 C -0.88 -1.03  1.82
 C -1.14  0.05  2.85
 O -0.33  0.31  3.74
 H -1.21 -0.77  0.81
 H -1.41 -1.95  2.10
 H  0.19 -1.24  1.82
 N -2.35  0.72  2.81
 C -3.44  0.66  1.84
 C -3.93 -0.78  1.56
 O -3.97 -1.24  0.42
 H -2.41  1.41  3.54
 H -4.28  1.18  2.33
 C -3.16  1.41  0.53
 C -2.80  2.88  0.74
 C -2.57  3.64 -0.58
 N -3.72  3.74 -1.46
 C -4.77  4.61 -1.20
 N -5.86  4.40 -2.06
 N -4.85  5.53 -0.30
 H -4.06  1.32 -0.10
 H -2.36  0.89 -0.03
 H -1.88  2.96  1.34
 H -3.60  3.38  1.31
 H -1.76  3.15 -1.15
 H -2.21  4.66 -0.36
 H -3.98  2.89 -1.95
 H -6.55  5.14 -1.95
 H -5.61  4.27 -3.03
 H -4.06  5.51  0.34
 N -4.35 -1.51  2.64
 C -4.43 -1.12  4.04
 H -4.65 -2.45  2.39
 H -3.45 -1.16  4.55
 H -5.12 -1.80  4.55
 H -4.83 -0.11  4.15
