35
#
 C -0.46 -1.63  1.51
 C  0.17 -1.03  2.76
 O  1.13 -1.55  3.33
 H  0.06 -2.58  1.30
 H -0.35 -0.97  0.64
 H -1.53 -1.83  1.65
 N -0.36  0.15  3.21
 C -1.54  0.84  2.72
 C -1.27  2.35  2.90
 O -1.06  2.80  4.03
 H  0.06  0.52  4.06
 H -1.66  0.60  1.65
 C -2.82  0.45  3.49
 C -4.12  0.91  2.82
 C -4.52  0.03  1.63
 N -5.75  0.43  0.96
 C -5.74  1.41 -0.02
 N -7.03  1.77 -0.42
 N -4.63  1.91 -0.45
 H -2.74  0.87  4.50
 H -2.82 -0.65  3.60
 H -4.04  1.96  2.48
 H -4.93  0.89  3.56
 H -4.65 -1.01  1.96
 H -3.74  0.03  0.86
 H -6.59  0.41  1.53
 H -7.06  2.36 -1.25
 H -7.70  1.00 -0.49
 H -4.79  2.52 -1.25
 N -1.25  3.13  1.79
 C -1.41  2.74  0.39
 H -1.03  4.10  1.99
 H -1.31  3.63 -0.22
 H -2.41  2.31  0.19
 H -0.63  2.03  0.08
