35
#
 C  2.44  0.20  0.15
 C  2.41  0.08  1.66
 O  3.40 -0.27  2.31
 H  1.48  0.52 -0.28
 H  2.73 -0.76 -0.27
 H  3.21  0.93 -0.12
 N  1.22  0.39  2.26
 C  1.03  0.35  3.71
 C  0.69 -1.09  4.18
 O -0.44 -1.42  4.56
 H  0.41  0.56  1.68
 H  2.00  0.63  4.15
 C -0.05  1.35  4.14
 C  0.36  2.81  3.95
 C -0.77  3.78  4.30
 N -0.41  5.19  4.20
 C -0.75  6.02  3.14
 N -1.00  5.35  1.94
 N -0.85  7.30  3.17
 H -0.29  1.15  5.19
 H -0.98  1.13  3.59
 H  0.68  2.98  2.91
 H  1.24  3.04  4.57
 H -1.10  3.59  5.34
 H -1.65  3.59  3.66
 H -0.25  5.68  5.07
 H -1.13  6.01  1.19
 H -0.33  4.62  1.70
 H -0.80  7.66  4.12
 N  1.76 -1.93  4.13
 C  1.67 -3.34  4.43
 H  2.61 -1.55  3.71
 H  2.46 -3.64  5.12
 H  1.74 -3.95  3.52
 H  0.69 -3.53  4.90
