35
#
 C -1.32 -1.95  0.03
 C -0.75 -1.30  1.27
 O  0.46 -1.07  1.39
 H -1.09 -1.32 -0.84
 H -2.40 -2.12  0.07
 H -0.81 -2.91 -0.13
 N -1.66 -0.98  2.23
 C -1.28 -0.47  3.54
 C -2.17 -1.18  4.57
 O -3.29 -1.58  4.26
 H -2.62 -1.31  2.18
 H -0.22 -0.73  3.69
 C -1.47  1.06  3.66
 C -0.58  1.90  2.73
 C  0.91  1.91  3.13
 N  1.74  2.78  2.32
 C  2.36  2.43  1.12
 N  2.48  1.08  0.87
 N  2.90  3.28  0.30
 H -1.28  1.36  4.70
 H -2.53  1.28  3.46
 H -0.95  2.93  2.74
 H -0.68  1.55  1.69
 H  1.33  0.90  3.09
 H  0.99  2.24  4.18
 H  1.53  3.77  2.38
 H  1.73  0.43  1.12
 H  2.87  0.91 -0.05
 H  2.84  4.23  0.66
 N -1.64 -1.28  5.82
 C -2.37 -1.85  6.94
 H -0.69 -0.96  5.96
 H -3.36 -2.15  6.58
 H -2.49 -1.12  7.75
 H -1.85 -2.74  7.34
