35
#
 C  0.10  0.33  0.03
 C  0.17  0.41  1.54
 O  1.21  0.74  2.11
 H  1.05 -0.08 -0.31
 H  0.02  1.35 -0.38
 H -0.73 -0.29 -0.34
 N -0.94  0.11  2.31
 C -2.37  0.11  1.99
 C -2.83 -1.19  1.29
 O -2.12 -1.86  0.55
 H -0.74  0.22  3.30
 H -2.86  0.15  2.97
 C -2.84  1.35  1.18
 C -3.00  2.66  1.98
 C -1.85  3.09  2.90
 N -1.94  2.43  4.20
 C -0.89  2.41  5.12
 N -1.35  2.40  6.44
 N  0.37  2.29  4.89
 H -3.81  1.12  0.71
 H -2.14  1.50  0.35
 H -3.92  2.61  2.58
 H -3.17  3.46  1.25
 H -1.87  4.19  3.02
 H -0.87  2.85  2.45
 H -2.86  2.53  4.64
 H -0.56  2.39  7.09
 H -2.01  3.14  6.67
 H  0.61  2.12  3.91
 N -4.13 -1.56  1.54
 C -5.08 -0.98  2.47
 H -4.39 -2.41  1.05
 H -6.01 -1.55  2.42
 H -5.32  0.07  2.21
 H -4.72 -1.01  3.51
