35
#
 C -1.93 -2.54  3.09
 C -1.07 -1.52  2.36
 O -0.92 -1.54  1.14
 H -1.96 -2.40  4.18
 H -1.54 -3.54  2.87
 H -2.95 -2.49  2.69
 N -0.48 -0.58  3.16
 C  0.37  0.46  2.62
 C  1.44  0.76  3.69
 O  1.12  0.93  4.87
 H -0.61 -0.58  4.17
 H  0.82  0.06  1.70
 C -0.43  1.74  2.29
 C  0.39  2.87  1.64
 C  0.18  4.24  2.31
 N  0.59  4.28  3.70
 C  1.90  4.23  4.13
 N  2.01  3.84  5.46
 N  2.96  4.53  3.45
 H -0.88  2.08  3.23
 H -1.26  1.43  1.64
 H  0.13  2.96  0.57
 H  1.46  2.65  1.67
 H -0.88  4.52  2.28
 H  0.72  5.02  1.75
 H -0.11  4.06  4.41
 H  1.57  2.94  5.66
 H  2.99  3.85  5.75
 H  2.72  4.93  2.54
 N  2.71  0.82  3.23
 C  3.85  1.20  4.05
 H  2.86  0.69  2.24
 H  4.71  0.56  3.82
 H  3.58  1.07  5.10
 H  4.12  2.26  3.88
