35
#
 C  0.34  0.47 -0.07
 C  0.08  1.23  1.22
 O  0.81  2.15  1.58
 H  0.61 -0.57  0.14
 H  1.17  0.96 -0.58
 H -0.54  0.47 -0.73
 N -1.00  0.86  1.99
 C -1.97 -0.23  1.84
 C -1.26 -1.61  1.98
 O -0.74 -1.86  3.06
 H -1.01  1.36  2.87
 H -2.53 -0.20  2.79
 C -3.02  0.02  0.75
 C -4.30 -0.80  0.95
 C -5.33 -0.64 -0.17
 N -5.80  0.73 -0.40
 C -6.45  1.47  0.60
 N -7.30  0.72  1.40
 N -6.33  2.74  0.82
 H -2.62 -0.13 -0.26
 H -3.28  1.09  0.81
 H -4.77 -0.52  1.91
 H -4.06 -1.88  1.04
 H -6.19 -1.29  0.03
 H -4.91 -0.98 -1.13
 H -5.16  1.31 -0.93
 H -7.86  1.32  1.99
 H -7.86  0.02  0.91
 H -5.58  3.15  0.26
 N -1.21 -2.54  0.98
 C -1.63 -2.55 -0.42
 H -0.72 -3.37  1.30
 H -1.21 -1.71 -0.99
 H -2.73 -2.55 -0.53
 H -1.26 -3.47 -0.87
