35
#
 C -0.32  0.69  0.28
 C -0.84  0.73  1.70
 O -0.09  0.96  2.64
 H  0.55  1.36  0.23
 H -1.04  0.97 -0.50
 H  0.05 -0.32  0.06
 N -2.17  0.46  1.92
 C -3.27  0.26  0.98
 C -4.36  1.27  1.36
 O -4.74  1.35  2.53
 H -2.46  0.56  2.89
 H -2.90  0.44 -0.03
 C -3.87 -1.16  1.10
 C -2.91 -2.32  0.83
 C -2.76 -2.80 -0.62
 N -2.18 -1.84 -1.55
 C -2.92 -0.98 -2.34
 N -2.14 -0.00 -2.97
 N -4.20 -0.95 -2.53
 H -4.75 -1.22  0.43
 H -4.27 -1.24  2.12
 H -3.25 -3.20  1.41
 H -1.92 -2.07  1.25
 H -3.73 -3.11 -1.02
 H -2.13 -3.70 -0.64
 H -1.24 -1.53 -1.34
 H -2.67  0.47 -3.69
 H -1.24 -0.33 -3.31
 H -4.69 -1.63 -1.95
 N -4.90  2.05  0.38
 C -4.51  2.14 -1.02
 H -5.60  2.70  0.73
 H -3.48  2.51 -1.14
 H -5.18  2.85 -1.51
 H -4.60  1.18 -1.54
