35
#
 C -0.81  1.74  3.86
 C -0.97  0.45  4.65
 O -0.12  0.08  5.46
 H  0.17  1.72  3.36
 H -0.80  2.59  4.56
 H -1.59  1.89  3.11
 N -2.11 -0.26  4.37
 C -2.47 -1.45  5.12
 C -2.26 -2.77  4.35
 O -2.60 -3.85  4.85
 H -2.85  0.22  3.84
 H -1.76 -1.50  5.96
 C -3.90 -1.39  5.66
 C -4.16 -0.29  6.72
 C -5.25  0.75  6.37
 N -4.77  1.98  5.75
 C -4.48  2.13  4.42
 N -4.01  3.41  4.10
 N -4.60  1.26  3.47
 H -4.11 -2.38  6.09
 H -4.60 -1.29  4.82
 H -3.23  0.26  6.94
 H -4.45 -0.77  7.66
 H -5.75  1.06  7.29
 H -6.03  0.29  5.75
 H -4.91  2.84  6.27
 H -3.32  3.80  4.74
 H -3.74  3.48  3.13
 H -5.14  0.45  3.78
 N -1.69 -2.65  3.12
 C -1.36 -3.78  2.29
 H -1.44 -1.71  2.83
 H -1.82 -3.69  1.30
 H -1.74 -4.68  2.78
 H -0.27 -3.88  2.17
