35
#
 C  0.55  1.39  0.59
 C  0.45  0.74  1.96
 O  1.45  0.41  2.59
 H  1.51  1.90  0.53
 H -0.26  2.10  0.38
 H  0.53  0.60 -0.18
 N -0.80  0.55  2.49
 C -2.08  0.53  1.81
 C -3.16  0.63  2.90
 O -2.95  0.25  4.05
 H -0.82  0.17  3.43
 H -2.16  1.41  1.14
 C -2.28 -0.75  0.95
 C -2.19 -2.04  1.77
 C -1.74 -3.29  0.98
 N -0.52 -3.14  0.18
 C  0.63 -2.48  0.60
 N  1.03 -2.71  1.90
 N  1.26 -1.76 -0.27
 H -1.49 -0.74  0.18
 H -3.24 -0.69  0.41
 H -3.16 -2.27  2.24
 H -1.49 -1.88  2.60
 H -2.52 -3.60  0.28
 H -1.62 -4.12  1.69
 H -0.68 -2.94 -0.81
 H  1.48 -1.91  2.36
 H  0.41 -3.23  2.51
 H  2.16 -1.45  0.10
 N -4.36  1.10  2.47
 C -5.53  1.19  3.34
 H -4.44  1.42  1.52
 H -5.86  2.23  3.44
 H -5.24  0.81  4.32
 H -6.35  0.58  2.95
