35
#
 C  1.03 -0.27  0.79
 C  0.27 -0.76  2.01
 O  0.64 -1.72  2.67
 H  2.06 -0.03  1.09
 H  0.58  0.61  0.31
 H  1.09 -1.09  0.06
 N -0.87 -0.04  2.31
 C -1.65 -0.34  3.50
 C -3.08 -0.85  3.24
 O -3.49 -1.85  3.84
 H -1.04  0.81  1.80
 H -1.16 -1.22  3.92
 C -1.62  0.79  4.55
 C -0.24  1.02  5.17
 C  0.34 -0.16  5.97
 N -0.47 -0.60  7.10
 C -1.65 -1.34  6.93
 N -1.54 -2.49  6.16
 N -2.72 -0.95  7.55
 H -2.35  0.55  5.34
 H -1.97  1.73  4.09
 H  0.49  1.29  4.39
 H -0.31  1.90  5.83
 H  1.33  0.12  6.36
 H  0.52 -1.02  5.30
 H -0.66  0.13  7.78
 H -2.31 -2.65  5.52
 H -0.63 -2.67  5.74
 H -3.45 -1.66  7.48
 N -3.92 -0.17  2.40
 C -3.68  1.03  1.62
 H -4.82 -0.62  2.31
 H -4.64  1.48  1.36
 H -3.14  0.82  0.67
 H -3.12  1.78  2.19
