35
#
 C -0.13 -1.47  1.36
 C -0.86 -0.28  1.96
 O -0.75  0.86  1.50
 H -0.32 -2.41  1.88
 H  0.95 -1.26  1.38
 H -0.42 -1.57  0.31
 N -1.65 -0.56  3.03
 C -2.35  0.47  3.76
 C -2.61 -0.08  5.17
 O -2.58 -1.30  5.40
 H -1.66 -1.48  3.47
 H -1.68  1.34  3.83
 C -3.65  0.97  3.05
 C -4.49 -0.07  2.30
 C -5.07 -1.24  3.12
 N -5.53 -0.95  4.47
 C -6.40  0.06  4.84
 N -7.25  0.50  3.82
 N -6.49  0.62  6.00
 H -3.33  1.73  2.32
 H -4.28  1.49  3.78
 H -3.90 -0.50  1.48
 H -5.31  0.49  1.84
 H -4.30 -2.02  3.25
 H -5.87 -1.72  2.53
 H -4.88 -1.22  5.20
 H -7.99  1.08  4.19
 H -7.59 -0.22  3.19
 H -5.76  0.26  6.62
 N -2.87  0.81  6.16
 C -3.07  2.25  6.09
 H -3.07  0.35  7.05
 H -4.12  2.51  5.91
 H -2.46  2.68  5.29
 H -2.74  2.70  7.03
