35
#
 C  0.17 -0.00  0.78
 C -0.08 -0.12  2.27
 O  0.82 -0.46  3.05
 H -0.35  0.86  0.33
 H -0.18 -0.91  0.26
 H  1.25  0.09  0.61
 N -1.33  0.16  2.73
 C -2.57  0.20  2.00
 C -3.62  0.75  2.99
 O -3.46  0.67  4.20
 H -1.47 -0.02  3.73
 H -2.49  0.91  1.16
 C -3.05 -1.18  1.41
 C -2.49 -2.48  2.01
 C -2.76 -2.80  3.49
 N -1.71 -2.27  4.34
 C -1.86 -2.24  5.71
 N -0.68 -1.84  6.35
 N -2.97 -2.59  6.26
 H -2.82 -1.18  0.34
 H -4.15 -1.22  1.48
 H -1.40 -2.54  1.82
 H -2.92 -3.29  1.40
 H -2.85 -3.89  3.61
 H -3.71 -2.37  3.83
 H -0.76 -2.38  4.01
 H -0.09 -1.19  5.83
 H -0.81 -1.54  7.32
 H -2.95 -2.42  7.27
 N -4.75  1.29  2.45
 C -5.03  1.59  1.06
 H -5.41  1.61  3.15
 H -5.05  0.69  0.43
 H -4.30  2.30  0.63
 H -6.02  2.06  0.99
