35
#
 C -0.17  0.14  0.05
 C -0.05 -0.10  1.55
 O  1.02 -0.37  2.09
 H  0.84  0.13 -0.37
 H -0.64  1.11 -0.17
 H -0.77 -0.64 -0.43
 N -1.21  0.00  2.30
 C -2.58  0.05  1.82
 C -3.41  1.15  2.54
 O -4.63  1.10  2.60
 H -1.07 -0.31  3.26
 H -2.55  0.36  0.77
 C -3.28 -1.33  1.89
 C -4.44 -1.49  0.90
 C -5.09 -2.87  1.00
 N -6.15 -3.01  0.02
 C -6.91 -4.14 -0.17
 N -6.31 -5.34  0.23
 N -8.06 -4.02 -0.76
 H -3.64 -1.50  2.91
 H -2.51 -2.09  1.68
 H -4.07 -1.36 -0.13
 H -5.19 -0.71  1.08
 H -5.46 -3.01  2.04
 H -4.32 -3.64  0.82
 H -6.69 -2.17 -0.17
 H -6.95 -6.11  0.32
 H -5.65 -5.29  1.01
 H -8.50 -4.93 -0.90
 N -2.66  2.17  3.05
 C -3.25  3.32  3.71
 H -1.65  2.09  2.97
 H -4.34  3.18  3.72
 H -3.01  4.25  3.18
 H -2.89  3.40  4.75
