35
#
 C -0.07 -0.10 -0.29
 C  0.20 -0.10  1.20
 O  1.34 -0.23  1.64
 H  0.89 -0.15 -0.81
 H -0.61  0.80 -0.61
 H -0.67 -0.98 -0.58
 N -0.86  0.05  2.06
 C -2.30  0.12  1.84
 C -2.83 -1.25  1.30
 O -2.74 -2.22  2.05
 H -0.57 -0.09  3.03
 H -2.72  0.09  2.85
 C -2.78  1.45  1.23
 C -4.27  1.71  1.48
 C -4.79  3.03  0.92
 N -4.74  3.06 -0.54
 C -5.45  4.03 -1.26
 N -5.15  3.97 -2.62
 N -6.28  4.90 -0.82
 H -2.54  1.50  0.16
 H -2.18  2.24  1.71
 H -4.43  1.72  2.57
 H -4.88  0.89  1.09
 H -4.23  3.88  1.37
 H -5.84  3.15  1.22
 H -3.82  2.88 -0.93
 H -5.75  4.60 -3.15
 H -5.14  3.03 -3.02
 H -6.29  4.94  0.20
 N -3.37 -1.42  0.05
 C -3.59 -0.54 -1.09
 H -3.66 -2.39 -0.07
 H -3.95 -1.16 -1.92
 H -2.66 -0.06 -1.43
 H -4.35  0.23 -0.90
