35
#
 C -0.20 -2.55  2.16
 C -0.49 -1.49  3.21
 O -0.01 -1.55  4.35
 H  0.89 -2.64  2.05
 H -0.65 -2.33  1.19
 H -0.57 -3.51  2.53
 N -1.30 -0.47  2.80
 C -1.84  0.52  3.71
 C -3.30  0.77  3.30
 O -3.71  0.48  2.17
 H -1.82 -0.54  1.93
 H -1.83  0.09  4.72
 C -1.05  1.85  3.71
 C  0.27  1.77  4.49
 C  0.09  1.60  6.00
 N -0.48  2.75  6.67
 C -1.76  2.85  7.15
 N -1.95  3.99  7.94
 N -2.68  1.98  6.85
 H -1.68  2.64  4.14
 H -0.86  2.13  2.67
 H  0.86  2.68  4.29
 H  0.87  0.92  4.12
 H  1.08  1.39  6.46
 H -0.54  0.73  6.23
 H  0.07  3.60  6.70
 H -2.87  4.06  8.35
 H -1.21  4.19  8.61
 H -3.50  2.12  7.44
 N -4.05  1.33  4.28
 C -5.43  1.73  4.08
 H -3.58  1.52  5.18
 H -5.55  2.81  4.20
 H -6.09  1.22  4.80
 H -5.72  1.45  3.07
