35
#
 C  1.70 -1.23  0.28
 C  1.12 -0.64  1.55
 O  1.83 -0.19  2.45
 H  0.98 -1.83 -0.29
 H  2.57 -1.84  0.53
 H  2.05 -0.40 -0.36
 N -0.25 -0.64  1.63
 C -0.94  0.17  2.66
 C -0.35  1.61  2.62
 O -0.43  2.20  1.54
 H -0.75 -0.77  0.76
 H -1.93  0.36  2.22
 C -1.24 -0.59  3.97
 C -0.19 -1.47  4.67
 C  0.18 -2.80  3.97
 N -0.92 -3.55  3.37
 C -2.01 -4.04  4.08
 N -1.72 -4.40  5.40
 N -3.22 -4.19  3.64
 H -2.11 -1.22  3.77
 H -1.61  0.16  4.69
 H -0.60 -1.71  5.66
 H  0.75 -0.92  4.83
 H  0.70 -3.43  4.70
 H  0.90 -2.62  3.17
 H -1.19 -3.21  2.45
 H -2.49 -4.92  5.81
 H -0.82 -4.84  5.55
 H -3.33 -3.78  2.71
 N  0.08  2.28  3.73
 C  0.72  1.76  4.94
 H  0.35  3.22  3.47
 H  1.15  2.61  5.47
 H  1.52  1.06  4.70
 H -0.00  1.28  5.61
