35
#
 C -0.39  1.85  0.94
 C -0.10  0.75  1.95
 O  0.97  0.68  2.55
 H  0.51  2.47  0.86
 H -1.22  2.49  1.27
 H -0.64  1.44 -0.05
 N -1.09 -0.17  2.19
 C -2.38 -0.31  1.52
 C -3.46 -0.71  2.54
 O -4.12 -1.75  2.44
 H -0.80 -0.91  2.83
 H -2.66  0.68  1.14
 C -2.34 -1.28  0.33
 C -1.74 -2.67  0.62
 C -2.44 -3.79 -0.14
 N -3.79 -3.96  0.37
 C -4.76 -4.64 -0.33
 N -6.03 -4.52  0.25
 N -4.63 -5.32 -1.42
 H -1.78 -0.80 -0.49
 H -3.37 -1.39 -0.04
 H -1.81 -2.90  1.70
 H -0.67 -2.68  0.38
 H -1.87 -4.72 -0.04
 H -2.46 -3.54 -1.22
 H -4.09 -3.27  1.05
 H -6.67 -5.20 -0.15
 H -6.04 -4.52  1.26
 H -3.68 -5.25 -1.79
 N -3.68  0.15  3.58
 C -3.08  1.45  3.83
 H -4.40 -0.18  4.22
 H -2.07  1.37  4.25
 H -3.72  1.99  4.55
 H -3.04  2.06  2.92
