35
#
 C -1.80 -1.51  1.76
 C -0.65 -0.78  2.44
 O  0.41 -1.32  2.70
 H -1.49 -2.55  1.62
 H -2.01 -1.08  0.77
 H -2.72 -1.48  2.35
 N -0.88  0.54  2.79
 C -2.01  1.35  2.40
 C -1.93  1.80  0.92
 O -0.86  2.05  0.38
 H -0.04  1.01  3.11
 H -2.91  0.73  2.54
 C -2.18  2.59  3.32
 C -1.34  3.83  3.00
 C  0.19  3.69  3.17
 N  0.93  4.89  2.85
 C  1.24  5.32  1.55
 N  1.21  4.34  0.58
 N  1.62  6.51  1.23
 H -1.99  2.25  4.35
 H -3.24  2.89  3.30
 H -1.68  4.64  3.67
 H -1.55  4.18  1.98
 H  0.58  2.89  2.53
 H  0.43  3.40  4.20
 H  0.80  5.67  3.49
 H  1.37  4.72 -0.34
 H  0.53  3.58  0.61
 H  1.70  7.11  2.06
 N -3.11  1.93  0.25
 C -4.46  1.61  0.71
 H -3.00  2.25 -0.70
 H -4.56  0.54  0.97
 H -5.16  1.82 -0.10
 H -4.76  2.21  1.58
