35
#
 C -0.20 -0.15 -0.10
 C -0.01 -0.17  1.41
 O  1.09 -0.36  1.92
 H  0.77 -0.35 -0.56
 H -0.57  0.82 -0.45
 H -0.92 -0.92 -0.42
 N -1.12  0.04  2.19
 C -2.51  0.13  1.77
 C -3.18  1.20  2.67
 O -3.88  0.90  3.64
 H -0.94 -0.08  3.19
 H -2.52  0.50  0.73
 C -3.26 -1.20  1.84
 C -4.68 -1.14  1.24
 C -5.71 -1.95  2.03
 N -5.88 -1.35  3.35
 C -6.33 -2.10  4.41
 N -6.32 -1.39  5.62
 N -6.78 -3.30  4.23
 H -3.32 -1.51  2.90
 H -2.66 -1.96  1.33
 H -4.67 -1.51  0.20
 H -5.03 -0.10  1.18
 H -5.39 -3.00  2.14
 H -6.67 -1.97  1.49
 H -5.31 -0.53  3.55
 H -6.30 -1.99  6.44
 H -5.64 -0.63  5.69
 H -7.11 -3.70  5.11
 N -2.93  2.50  2.36
 C -2.07  3.03  1.31
 H -3.34  3.16  3.02
 H -1.02  2.76  1.48
 H -2.15  4.12  1.32
 H -2.37  2.68  0.32
