35
#
 C  0.24 -0.42  0.40
 C  0.36 -0.66  1.89
 O  1.47 -0.80  2.42
 H  0.41 -1.38 -0.12
 H  1.04  0.26  0.11
 H -0.73 -0.01  0.09
 N -0.78 -0.74  2.64
 C -2.13 -1.02  2.19
 C -3.02 -0.90  3.44
 O -2.55 -1.03  4.57
 H -0.65 -0.88  3.64
 H -2.43 -0.27  1.45
 C -2.30 -2.42  1.53
 C -2.26 -3.66  2.44
 C -0.94 -3.94  3.20
 N  0.29 -3.75  2.47
 C  0.62 -4.42  1.31
 N  1.63 -3.79  0.57
 N  0.09 -5.50  0.84
 H -1.52 -2.52  0.76
 H -3.25 -2.43  0.99
 H -2.50 -4.52  1.80
 H -3.06 -3.61  3.19
 H -0.99 -4.98  3.59
 H -0.88 -3.30  4.09
 H  0.79 -2.88  2.65
 H  2.07 -4.43 -0.07
 H  2.28 -3.22  1.10
 H -0.66 -5.85  1.45
 N -4.36 -0.70  3.25
 C -5.10 -0.55  2.01
 H -4.88 -0.71  4.12
 H -5.99  0.06  2.20
 H -5.42 -1.52  1.59
 H -4.50 -0.03  1.26
