35
#
 C  0.55  0.87  1.79
 C -0.47  0.72  2.90
 O -0.22  1.07  4.06
 H  0.47  1.88  1.36
 H  0.42  0.13  1.00
 H  1.54  0.79  2.24
 N -1.70  0.17  2.63
 C -2.49  0.12  1.39
 C -2.13 -1.09  0.50
 O -0.99 -1.50  0.36
 H -2.26  0.15  3.47
 H -3.51 -0.03  1.75
 C -2.47  1.42  0.55
 C -2.58  2.71  1.39
 C -3.81  2.79  2.30
 N -3.70  3.84  3.30
 C -3.61  3.59  4.66
 N -2.89  2.44  4.99
 N -4.21  4.40  5.47
 H -3.30  1.37 -0.17
 H -1.55  1.45 -0.05
 H -2.56  3.57  0.71
 H -1.68  2.82  2.02
 H -3.96  1.84  2.83
 H -4.71  2.95  1.69
 H -4.27  4.67  3.14
 H -2.80  2.31  5.99
 H -1.99  2.28  4.53
 H -3.94  4.21  6.44
 N -3.18 -1.66 -0.18
 C -4.60 -1.38 -0.06
 H -2.89 -2.43 -0.78
 H -4.99 -1.60  0.94
 H -5.13 -2.03 -0.77
 H -4.85 -0.34 -0.31
