35
#
 C  0.81  0.48 -0.16
 C  0.66  0.41  1.35
 O  1.62  0.50  2.11
 H -0.15  0.47 -0.70
 H  1.42 -0.37 -0.49
 H  1.36  1.40 -0.42
 N -0.62  0.26  1.81
 C -0.90 -0.01  3.23
 C -2.26 -0.70  3.39
 O -2.35 -1.78  3.97
 H -1.33 -0.00  1.13
 H -0.17 -0.76  3.57
 C -0.73  1.24  4.12
 C -0.88  0.92  5.61
 C -0.74  2.18  6.47
 N -0.82  1.94  7.91
 C -1.96  2.15  8.68
 N -3.16  2.08  7.96
 N -2.00  2.40  9.94
 H -1.45  2.02  3.83
 H  0.27  1.64  3.92
 H -0.12  0.19  5.91
 H -1.85  0.45  5.81
 H -1.51  2.92  6.19
 H  0.24  2.65  6.27
 H  0.04  2.01  8.43
 H -3.94  2.13  8.60
 H -3.23  1.29  7.32
 H -1.06  2.58 10.32
 N -3.38 -0.10  2.86
 C -3.60  1.26  2.40
 H -4.22 -0.65  3.06
 H -2.69  1.67  1.95
 H -3.91  1.94  3.22
 H -4.39  1.27  1.64
