35
#
 C -0.45 -0.65 -0.18
 C -0.65 -0.98  1.28
 O -0.77 -2.13  1.68
 H -0.31  0.42 -0.38
 H -1.32 -1.01 -0.75
 H  0.43 -1.20 -0.55
 N -0.69  0.10  2.12
 C -0.99 -0.04  3.54
 C -2.47  0.35  3.76
 O -2.84  1.51  3.58
 H -0.76  1.03  1.73
 H -0.81 -1.09  3.77
 C -0.09  0.85  4.40
 C -0.30  0.62  5.90
 C  0.55  1.57  6.76
 N  0.39  1.40  8.20
 C -0.72  1.90  8.88
 N -0.74  1.48 10.22
 N -1.66  2.65  8.44
 H -0.30  1.91  4.16
 H  0.95  0.65  4.13
 H -0.05 -0.42  6.16
 H -1.36  0.75  6.16
 H  0.31  2.61  6.51
 H  1.61  1.43  6.53
 H  0.77  0.54  8.58
 H -1.47  1.96 10.73
 H  0.16  1.55 10.70
 H -1.62  2.78  7.43
 N -3.33 -0.64  4.13
 C -3.05 -2.05  4.35
 H -4.28 -0.31  4.27
 H -2.56 -2.23  5.33
 H -2.41 -2.46  3.56
 H -4.00 -2.60  4.34
