35
#
 C -2.56 -0.79  0.90
 C -2.49 -0.37  2.35
 O -2.48  0.81  2.69
 H -2.41 -1.87  0.74
 H -1.80 -0.23  0.34
 H -3.54 -0.50  0.50
 N -2.45 -1.40  3.26
 C -2.58 -1.16  4.70
 C -1.72 -2.16  5.51
 O -2.09 -2.60  6.60
 H -2.63 -2.33  2.92
 H -2.12 -0.17  4.86
 C -4.05 -1.12  5.16
 C -4.33 -0.32  6.44
 C -3.81  1.14  6.43
 N -3.99  1.88  5.19
 C -5.24  2.16  4.66
 N -5.18  2.54  3.32
 N -6.38  2.17  5.27
 H -4.41 -2.15  5.28
 H -4.62 -0.67  4.33
 H -3.90 -0.83  7.31
 H -5.42 -0.32  6.58
 H -2.73  1.15  6.64
 H -4.28  1.68  7.26
 H -3.26  1.77  4.50
 H -4.47  2.09  2.75
 H -6.10  2.59  2.90
 H -6.27  1.98  6.27
 N -0.52 -2.47  4.94
 C  0.46 -3.32  5.59
 H -0.29 -2.04  4.05
 H  0.77 -4.14  4.93
 H -0.00 -3.73  6.49
 H  1.35 -2.74  5.88
