35
#
 C -0.25 -0.24 -0.03
 C -0.17 -0.16  1.48
 O  0.89 -0.16  2.09
 H  0.30 -1.13 -0.37
 H  0.25  0.64 -0.46
 H -1.28 -0.28 -0.43
 N -1.38 -0.10  2.13
 C -1.48  0.05  3.57
 C -1.22 -1.20  4.46
 O -0.97 -1.00  5.64
 H -2.23 -0.11  1.58
 H -0.68  0.73  3.88
 C -2.83  0.67  3.97
 C -4.06 -0.19  3.64
 C -5.36  0.43  4.18
 N -6.57 -0.34  3.89
 C -6.75 -1.64  4.36
 N -6.32 -1.83  5.67
 N -7.27 -2.52  3.57
 H -2.91  1.65  3.48
 H -2.79  0.85  5.05
 H -3.94 -1.19  4.09
 H -4.17 -0.34  2.56
 H -5.51  1.43  3.76
 H -5.27  0.57  5.27
 H -6.86 -0.31  2.91
 H -6.62 -2.71  6.09
 H -6.43 -1.04  6.30
 H -7.49 -3.38  4.07
 N -1.28 -2.47  3.97
 C -1.60 -3.00  2.65
 H -1.05 -3.15  4.69
 H -2.54 -2.59  2.26
 H -1.75 -4.08  2.76
 H -0.80 -2.84  1.92
