35
#
 C -0.36 -0.76 -0.79
 C -0.41 -1.31  0.62
 O  0.16 -2.36  0.91
 H -0.78 -1.51 -1.47
 H  0.69 -0.61 -1.07
 H -0.91  0.18 -0.93
 N -1.11 -0.55  1.51
 C -1.44 -0.79  2.93
 C -0.27 -0.96  3.93
 O -0.42 -0.51  5.07
 H -1.50  0.31  1.14
 H -1.88  0.17  3.25
 C -2.52 -1.86  3.16
 C -2.10 -3.33  3.03
 C -3.27 -4.28  3.33
 N -2.93 -5.69  3.30
 C -2.27 -6.32  4.35
 N -1.88 -7.62  4.03
 N -1.99 -5.85  5.52
 H -3.36 -1.65  2.47
 H -2.91 -1.69  4.18
 H -1.27 -3.54  3.73
 H -1.71 -3.53  2.02
 H -4.08 -4.11  2.61
 H -3.69 -4.06  4.32
 H -2.67 -6.05  2.38
 H -1.53 -8.10  4.85
 H -2.60 -8.17  3.55
 H -2.19 -4.85  5.59
 N  0.83 -1.62  3.51
 C  1.93 -1.91  4.41
 H  0.78 -2.07  2.59
 H  2.84 -2.08  3.82
 H  1.73 -2.80  5.03
 H  2.09 -1.06  5.08
