35
#
 C  0.67 -0.51  0.15
 C  0.52 -0.16  1.62
 O  1.48 -0.23  2.39
 H  1.36 -1.35  0.05
 H  1.12  0.36 -0.36
 H -0.28 -0.75 -0.35
 N -0.75  0.21  1.99
 C -1.11  0.87  3.24
 C -0.61  2.34  3.20
 O  0.36  2.69  2.55
 H -1.39  0.35  1.22
 H -2.21  0.92  3.24
 C -0.69 -0.02  4.44
 C -0.79  0.55  5.87
 C  0.53  1.09  6.43
 N  0.98  2.36  5.85
 C  2.24  2.58  5.30
 N  2.78  1.50  4.63
 N  2.90  3.69  5.39
 H  0.34 -0.35  4.27
 H -1.31 -0.92  4.36
 H -1.10 -0.27  6.54
 H -1.58  1.31  5.97
 H  1.33  0.36  6.27
 H  0.43  1.21  7.53
 H  0.63  3.18  6.33
 H  3.67  1.76  4.20
 H  2.18  1.01  3.96
 H  2.46  4.33  6.05
 N -1.39  3.22  3.90
 C -0.97  4.60  4.10
 H -2.17  2.86  4.43
 H -1.21  4.91  5.12
 H -1.47  5.28  3.40
 H  0.11  4.66  3.94
