35
#
 C  0.33 -0.13  0.50
 C -0.01 -0.38  1.96
 O  0.86 -0.52  2.82
 H  1.40  0.11  0.45
 H -0.26  0.67  0.05
 H  0.15 -1.04 -0.09
 N -1.34 -0.46  2.32
 C -2.56 -0.31  1.52
 C -2.56 -1.26  0.29
 O -2.63 -0.83 -0.86
 H -1.45 -0.60  3.32
 H -3.36 -0.67  2.19
 C -2.89  1.14  1.14
 C -4.38  1.50  1.15
 C -5.24  0.79  0.09
 N -6.61  1.28  0.02
 C -6.93  2.47 -0.62
 N -8.25  2.86 -0.39
 N -6.18  3.21 -1.37
 H -2.46  1.36  0.15
 H -2.37  1.79  1.87
 H -4.48  2.58  1.00
 H -4.80  1.29  2.15
 H -5.29 -0.29  0.28
 H -4.78  0.89 -0.91
 H -7.18  1.09  0.83
 H -8.50  3.65 -0.98
 H -8.93  2.10 -0.47
 H -5.21  2.89 -1.37
 N -2.49 -2.60  0.55
 C -2.38 -3.29  1.82
 H -2.46 -3.16 -0.30
 H -1.37 -3.25  2.24
 H -2.66 -4.34  1.67
 H -3.08 -2.87  2.56
