35
#
 C -1.13  0.71  0.89
 C -0.76  0.09  2.21
 O -0.21  0.72  3.11
 H -1.26 -0.03  0.09
 H -0.37  1.44  0.60
 H -2.09  1.24  1.04
 N -1.08 -1.25  2.36
 C -1.08 -1.88  3.67
 C -0.04 -3.00  3.82
 O -0.10 -3.80  4.76
 H -1.68 -1.65  1.65
 H -0.73 -1.08  4.35
 C -2.48 -2.37  4.11
 C -2.80 -2.07  5.58
 C -3.15 -0.60  5.87
 N -4.40 -0.17  5.25
 C -4.48  0.53  4.06
 N -5.78  0.52  3.53
 N -3.55  1.15  3.41
 H -2.56 -3.45  3.94
 H -3.24 -1.88  3.47
 H -1.95 -2.38  6.21
 H -3.65 -2.70  5.90
 H -2.35  0.07  5.53
 H -3.23 -0.46  6.96
 H -5.18 -0.79  5.42
 H -5.85  1.21  2.78
 H -6.52  0.65  4.21
 H -2.63  1.04  3.85
 N  0.95 -3.01  2.89
 C  2.08 -3.91  2.94
 H  0.91 -2.28  2.18
 H  2.17 -4.48  2.00
 H  1.90 -4.62  3.76
 H  3.02 -3.38  3.13
