35
#
 C -0.32  0.46 -0.20
 C -0.58  1.00  1.19
 O -0.03  2.04  1.58
 H -1.14  0.74 -0.87
 H -0.22 -0.63 -0.22
 H  0.60  0.92 -0.57
 N -1.43  0.33  2.03
 C -2.26 -0.83  1.80
 C -2.94 -0.82  0.42
 O -3.56  0.15 -0.00
 H -1.38  0.68  2.99
 H -1.67 -1.77  1.91
 C -3.42 -0.86  2.83
 C -3.03 -0.76  4.31
 C -3.64  0.46  5.05
 N -3.43  1.76  4.42
 C -2.15  2.27  4.28
 N -2.06  3.44  3.52
 N -1.15  1.66  4.83
 H -3.99 -1.78  2.64
 H -4.09 -0.03  2.55
 H -1.94 -0.71  4.43
 H -3.36 -1.66  4.85
 H -3.21  0.50  6.06
 H -4.72  0.33  5.15
 H -4.09  2.01  3.70
 H -1.24  3.42  2.91
 H -2.89  3.71  3.01
 H -0.30  2.20  4.69
 N -2.86 -2.00 -0.26
 C -3.49 -2.22 -1.55
 H -2.29 -2.74  0.14
 H -4.16 -3.09 -1.51
 H -2.75 -2.38 -2.34
 H -4.08 -1.33 -1.78
