35
#
 C -1.43 -0.53  1.35
 C  0.07 -0.38  1.54
 O  0.88 -1.04  0.89
 H -1.67 -0.37  0.30
 H -2.02  0.17  1.97
 H -1.72 -1.55  1.60
 N  0.44  0.54  2.48
 C  1.83  0.77  2.80
 C  2.06  0.57  4.31
 O  1.30  1.04  5.16
 H -0.28  1.03  3.02
 H  2.38  0.00  2.24
 C  2.37  2.16  2.35
 C  1.75  3.39  3.01
 C  0.38  3.80  2.42
 N -0.51  4.47  3.37
 C -1.51  3.80  4.07
 N -1.23  2.45  4.33
 N -2.63  4.30  4.48
 H  2.26  2.20  1.25
 H  3.46  2.15  2.54
 H  2.44  4.24  2.92
 H  1.63  3.22  4.09
 H -0.13  2.93  1.99
 H  0.54  4.49  1.57
 H -0.75  5.43  3.16
 H -1.98  2.07  4.91
 H -0.31  2.24  4.74
 H -2.77  5.24  4.10
 N  3.18 -0.12  4.62
 C  3.60 -0.38  5.99
 H  3.71 -0.54  3.87
 H  4.62 -0.03  6.16
 H  3.54 -1.45  6.23
 H  2.92  0.17  6.65
