35
#
 C -0.92 -0.43  0.84
 C -2.07 -1.06  1.58
 O -1.92 -1.57  2.71
 H -1.16  0.56  0.43
 H -0.62 -1.06 -0.00
 H -0.08 -0.34  1.54
 N -3.30 -1.12  0.98
 C -3.84 -0.22 -0.05
 C -3.04 -0.30 -1.37
 O -2.53  0.69 -1.89
 H -3.99 -1.60  1.55
 H -4.84 -0.64 -0.28
 C -4.05  1.23  0.40
 C -5.20  1.48  1.40
 C -4.87  1.45  2.91
 N -4.51  0.15  3.47
 C -5.44 -0.86  3.54
 N -4.86 -2.14  3.57
 N -6.71 -0.60  3.50
 H -4.25  1.81 -0.51
 H -3.11  1.64  0.79
 H -6.03  0.78  1.22
 H -5.61  2.48  1.20
 H -5.74  1.82  3.45
 H -4.03  2.13  3.12
 H -3.54 -0.13  3.42
 H -5.41 -2.85  4.04
 H -3.86 -2.18  3.79
 H -7.26 -1.47  3.55
 N -2.94 -1.53 -1.95
 C -3.51 -2.80 -1.53
 H -2.39 -1.52 -2.81
 H -2.93 -3.28 -0.73
 H -3.53 -3.48 -2.40
 H -4.54 -2.68 -1.18
