35
#
 C  0.42 -0.13  0.11
 C  0.07 -0.25  1.58
 O  0.83 -0.78  2.39
 H  1.39  0.37  0.01
 H -0.33  0.41 -0.48
 H  0.53 -1.14 -0.31
 N -1.13  0.30  1.94
 C -1.70  0.11  3.25
 C -3.19 -0.22  3.05
 O -3.78  0.11  2.02
 H -1.81  0.55  1.22
 H -1.17 -0.73  3.72
 C -1.57  1.36  4.16
 C -0.12  1.79  4.39
 C  0.05  3.02  5.30
 N -0.56  4.24  4.79
 C -1.82  4.68  5.13
 N -2.21  5.80  4.38
 N -2.64  4.21  6.01
 H -2.05  1.15  5.12
 H -2.14  2.19  3.70
 H  0.37  1.99  3.43
 H  0.45  0.95  4.84
 H  1.12  3.20  5.45
 H -0.38  2.83  6.29
 H -0.24  4.53  3.87
 H -3.08  6.18  4.74
 H -1.50  6.51  4.28
 H -2.30  3.33  6.41
 N -3.78 -0.87  4.09
 C -5.20 -1.18  4.12
 H -3.21 -1.12  4.88
 H -5.63 -0.85  3.17
 H -5.71 -0.65  4.94
 H -5.37 -2.26  4.24
