35
#
 C  0.41 -0.24  1.46
 C -0.34 -0.51  2.75
 O  0.16 -1.18  3.65
 H  0.48  0.84  1.25
 H -0.09 -0.73  0.61
 H  1.41 -0.65  1.56
 N -1.60  0.01  2.91
 C -2.47  0.75  1.99
 C -2.87 -0.15  0.78
 O -3.55 -1.15  1.03
 H -2.04 -0.33  3.76
 H -3.43  0.80  2.52
 C -2.04  2.21  1.77
 C -3.18  3.10  1.28
 C -2.72  4.54  0.99
 N -3.78  5.46  0.62
 C -4.62  5.98  1.59
 N -5.67  6.73  1.04
 N -4.40  5.75  2.84
 H -1.17  2.30  1.11
 H -1.70  2.58  2.75
 H -3.97  3.14  2.05
 H -3.65  2.68  0.37
 H -1.97  4.54  0.19
 H -2.24  4.95  1.89
 H -4.24  5.27 -0.27
 H -6.20  7.25  1.72
 H -5.40  7.31  0.25
 H -5.02  6.30  3.44
 N -2.53  0.11 -0.52
 C -1.71  1.13 -1.16
 H -2.91 -0.60 -1.13
 H -1.63  0.87 -2.22
 H -2.15  2.13 -1.09
 H -0.69  1.16 -0.76
