35
#
 C -0.72  1.51 -0.03
 C -0.54  1.07  1.40
 O  0.48  1.36  2.05
 H -1.56  1.01 -0.54
 H  0.20  1.32 -0.59
 H -0.90  2.59 -0.04
 N -1.57  0.37  1.94
 C -1.69  0.01  3.34
 C -3.10 -0.60  3.49
 O -3.97 -0.39  2.64
 H -2.45  0.27  1.43
 H -0.93 -0.76  3.57
 C -1.46  1.19  4.32
 C -2.15  2.50  3.91
 C -1.46  3.74  4.52
 N -1.67  4.97  3.78
 C -1.04  5.27  2.57
 N  0.13  4.56  2.31
 N -1.39  6.21  1.75
 H -0.38  1.36  4.36
 H -1.77  0.89  5.33
 H -3.22  2.48  4.18
 H -2.12  2.60  2.82
 H -0.38  3.56  4.58
 H -1.79  3.90  5.55
 H -2.60  5.37  3.84
 H  0.51  4.80  1.40
 H  0.17  3.56  2.49
 H -2.18  6.74  2.12
 N -3.35 -1.36  4.59
 C -2.46 -1.74  5.67
 H -4.31 -1.67  4.64
 H -2.75 -2.73  6.04
 H -2.49 -1.04  6.51
 H -1.42 -1.81  5.32
