35
#
 C -0.42  0.46  0.93
 C -0.66 -0.41  2.15
 O  0.26 -0.71  2.90
 H  0.49  0.10  0.43
 H -0.22  1.48  1.28
 H -1.24  0.50  0.21
 N -1.93 -0.90  2.41
 C -3.24 -0.65  1.81
 C -3.27 -0.89  0.27
 O -4.00 -0.24 -0.47
 H -1.94 -1.39  3.30
 H -3.87 -1.47  2.20
 C -3.98  0.64  2.21
 C -3.33  1.99  1.88
 C -2.42  2.52  2.99
 N -1.71  3.71  2.53
 C -0.80  4.32  3.38
 N -0.31  5.53  2.85
 N -0.50  3.79  4.51
 H -4.17  0.58  3.30
 H -4.96  0.58  1.72
 H -4.14  2.72  1.70
 H -2.78  1.93  0.93
 H -1.67  1.79  3.30
 H -3.02  2.74  3.89
 H -2.27  4.36  1.98
 H  0.47  5.91  3.36
 H -0.13  5.51  1.85
 H  0.27  4.29  4.97
 N -2.50 -1.93 -0.14
 C -2.39 -2.32 -1.54
 H -1.88 -2.35  0.54
 H -2.53 -3.40 -1.65
 H -1.41 -2.04 -1.96
 H -3.17 -1.79 -2.09
