35
#
 C -3.92 -0.60 -0.16
 C -3.03  0.17  0.80
 O -2.90  1.39  0.73
 H -3.38 -1.39 -0.70
 H -4.32  0.11 -0.89
 H -4.76 -1.07  0.37
 N -2.38 -0.56  1.76
 C -2.34 -2.00  1.94
 C -2.21 -2.26  3.45
 O -1.33 -1.70  4.11
 H -1.77 -0.02  2.38
 H -3.29 -2.42  1.57
 C -1.16 -2.65  1.17
 C -1.08 -4.19  1.28
 C  0.27 -4.70  1.80
 N  0.62 -4.21  3.12
 C  0.14 -4.80  4.27
 N  0.38 -4.00  5.40
 N -0.39 -5.98  4.23
 H -0.24 -2.18  1.56
 H -1.24 -2.34  0.12
 H -1.28 -4.65  0.30
 H -1.86 -4.58  1.96
 H  1.08 -4.40  1.11
 H  0.26 -5.79  1.85
 H  0.99 -3.28  3.21
 H -0.03 -4.39  6.25
 H  0.10 -3.03  5.28
 H -0.68 -6.27  5.17
 N -3.12 -3.12  3.97
 C -3.13 -3.54  5.36
 H -3.77 -3.56  3.33
 H -4.16 -3.52  5.74
 H -2.53 -2.83  5.93
 H -2.71 -4.54  5.47
