35
#
 C  0.73 -0.26  0.40
 C  0.46 -0.27  1.89
 O  1.31 -0.65  2.71
 H  1.11 -1.25  0.10
 H -0.14 -0.01 -0.21
 H  1.53  0.47  0.20
 N -0.76  0.18  2.26
 C -1.21  0.33  3.63
 C -2.65  0.89  3.53
 O -3.09  1.34  2.47
 H -1.42  0.56  1.58
 H -1.26 -0.67  4.11
 C -0.30  1.22  4.51
 C  0.14  2.52  3.85
 C  1.14  3.33  4.70
 N  2.28  2.56  5.24
 C  3.43  2.30  4.48
 N  3.19  1.75  3.23
 N  4.65  2.51  4.87
 H  0.59  0.63  4.78
 H -0.82  1.43  5.46
 H -0.72  3.17  3.65
 H  0.60  2.31  2.88
 H  0.61  3.73  5.58
 H  1.49  4.19  4.11
 H  2.54  2.88  6.16
 H  4.07  1.51  2.78
 H  2.53  0.97  3.20
 H  4.67  3.07  5.73
 N -3.36  0.85  4.68
 C -4.71  1.37  4.80
 H -2.93  0.45  5.51
 H -5.41  0.59  5.12
 H -5.02  1.73  3.81
 H -4.76  2.21  5.51
