35
#
 C -0.26  1.79  0.03
 C -0.32  0.34  0.44
 O  0.61 -0.45  0.22
 H -1.21  2.16 -0.38
 H  0.54  1.91 -0.70
 H -0.03  2.41  0.91
 N -1.43 -0.10  1.09
 C -2.63  0.60  1.50
 C -2.43  1.83  2.42
 O -3.13  2.83  2.24
 H -1.43 -1.11  1.28
 H -3.16  1.03  0.63
 C -3.60 -0.39  2.20
 C -3.95 -1.66  1.38
 C -3.24 -2.95  1.82
 N -1.79 -2.93  1.65
 C -0.86 -2.91  2.70
 N  0.44 -2.84  2.21
 N -1.09 -2.92  3.97
 H -4.51  0.18  2.42
 H -3.17 -0.68  3.17
 H -3.77 -1.48  0.31
 H -5.03 -1.85  1.48
 H -3.65 -3.80  1.25
 H -3.47 -3.16  2.87
 H -1.43 -3.34  0.79
 H  1.12 -2.75  2.97
 H  0.60 -2.18  1.44
 H -2.07 -3.12  4.17
 N -1.50  1.78  3.42
 C -0.59  0.72  3.85
 H -1.48  2.65  3.94
 H -0.25  0.97  4.86
 H  0.29  0.63  3.20
 H -1.08 -0.26  3.91
