35
#
 C -2.98 -1.42 -0.59
 C -1.99 -0.46  0.04
 O -1.21  0.22 -0.62
 H -2.90 -1.34 -1.67
 H -4.01 -1.22 -0.28
 H -2.75 -2.46 -0.29
 N -2.01 -0.35  1.42
 C -2.77 -1.16  2.36
 C -4.27 -0.78  2.43
 O -5.11 -1.62  2.75
 H -1.26  0.22  1.79
 H -2.77 -2.22  2.06
 C -2.09 -1.06  3.74
 C -2.76 -1.82  4.90
 C -3.78 -0.99  5.70
 N -4.45 -1.69  6.77
 C -5.42 -2.67  6.60
 N -6.17 -2.58  5.43
 N -5.59 -3.51  7.57
 H -2.01  0.01  4.01
 H -1.06 -1.42  3.60
 H -1.98 -2.16  5.60
 H -3.24 -2.74  4.52
 H -4.54 -0.56  5.03
 H -3.26 -0.12  6.14
 H -3.90 -1.89  7.60
 H -6.73 -3.40  5.24
 H -5.75 -2.19  4.59
 H -6.38 -4.14  7.38
 N -4.55  0.51  2.15
 C -5.90  1.06  2.19
 H -3.79  1.08  1.81
 H -5.94  1.92  2.87
 H -6.57  0.28  2.57
 H -6.23  1.37  1.19
