35
#
 C -0.69 -1.49 -0.01
 C -0.38 -0.29  0.88
 O  0.43  0.57  0.54
 H -0.05 -1.41 -0.89
 H -1.74 -1.48 -0.33
 H -0.50 -2.44  0.49
 N -1.02 -0.21  2.08
 C -2.05 -1.07  2.63
 C -3.21 -0.17  3.12
 O -2.99  0.90  3.67
 H -0.87  0.66  2.59
 H -2.41 -1.74  1.84
 C -1.55 -1.91  3.83
 C -0.42 -2.87  3.47
 C  0.10 -3.63  4.69
 N  1.17 -4.54  4.32
 C  1.68 -5.46  5.23
 N  2.79 -6.14  4.73
 N  1.25 -5.72  6.42
 H -2.40 -2.47  4.25
 H -1.22 -1.21  4.62
 H  0.41 -2.31  3.02
 H -0.76 -3.60  2.72
 H -0.72 -4.23  5.13
 H  0.42 -2.91  5.47
 H  1.87 -4.14  3.71
 H  3.07 -6.89  5.36
 H  2.70 -6.45  3.77
 H  0.54 -5.06  6.72
 N -4.46 -0.69  2.93
 C -5.66 -0.02  3.39
 H -4.55 -1.57  2.44
 H -6.34  0.21  2.55
 H -5.36  0.91  3.87
 H -6.20 -0.64  4.12
