35
#
 C -0.36 -0.49 -0.02
 C -0.14 -0.27  1.46
 O  1.00 -0.23  1.95
 H  0.16  0.30 -0.58
 H -1.42 -0.50 -0.31
 H  0.09 -1.45 -0.31
 N -1.26 -0.11  2.22
 C -1.21  0.12  3.66
 C -1.11 -1.24  4.41
 O -2.07 -1.76  4.97
 H -2.16 -0.28  1.80
 H -0.28  0.67  3.84
 C -2.41  0.93  4.14
 C -2.46  2.34  3.54
 C -3.62  3.19  4.06
 N -3.47  3.46  5.48
 C -4.39  4.15  6.26
 N -5.72  4.00  5.86
 N -3.97  4.77  7.30
 H -2.37  0.99  5.24
 H -3.33  0.38  3.91
 H -2.53  2.29  2.45
 H -1.51  2.87  3.75
 H -4.55  2.62  3.91
 H -3.69  4.11  3.46
 H -2.52  3.71  5.78
 H -6.35  4.68  6.26
 H -5.91  3.81  4.88
 H -4.74  5.16  7.85
 N  0.14 -1.78  4.35
 C  0.45 -3.10  4.88
 H  0.81 -1.31  3.74
 H  0.56 -3.84  4.07
 H -0.38 -3.40  5.53
 H  1.38 -3.07  5.46
