35
#
 C  0.22  0.48  2.66
 C  0.21 -0.38  1.42
 O  1.16 -1.10  1.11
 H  0.02  1.54  2.43
 H  1.20  0.39  3.14
 H -0.56  0.16  3.37
 N -0.92 -0.34  0.64
 C -2.16  0.35  0.90
 C -3.06 -0.20  2.02
 O -3.89  0.57  2.53
 H -0.86 -0.94 -0.18
 H -1.93  1.36  1.27
 C -2.96  0.57 -0.41
 C -3.51 -0.68 -1.11
 C -4.84 -1.21 -0.55
 N -5.90 -0.22 -0.65
 C -6.96 -0.15  0.27
 N -6.59 -0.33  1.59
 N -8.14  0.07 -0.20
 H -2.30  1.12 -1.09
 H -3.80  1.24 -0.18
 H -2.78 -1.50 -1.13
 H -3.67 -0.42 -2.17
 H -4.74 -1.50  0.50
 H -5.10 -2.14 -1.09
 H -6.29 -0.11 -1.58
 H -7.34 -0.15  2.25
 H -5.70  0.08  1.90
 H -8.81  0.26  0.55
 N -2.96 -1.48  2.47
 C -2.23 -2.64  1.95
 H -3.63 -1.66  3.21
 H -2.65 -3.53  2.44
 H -1.16 -2.60  2.17
 H -2.37 -2.77  0.87
