35
#
 C  0.55 -3.34  1.87
 C  0.07 -2.81  3.21
 O  0.56 -3.17  4.27
 H  0.04 -2.90  1.01
 H  0.39 -4.43  1.85
 H  1.63 -3.16  1.78
 N -0.95 -1.89  3.14
 C -1.56 -1.32  4.34
 C -3.05 -1.08  4.05
 O -3.91 -1.89  4.36
 H -1.32 -1.64  2.24
 H -1.53 -2.11  5.11
 C -0.78 -0.10  4.86
 C -1.30  0.43  6.20
 C -0.51  1.63  6.72
 N  0.90  1.34  6.94
 C  1.88  1.82  6.10
 N  3.17  1.52  6.56
 N  1.58  2.50  5.04
 H -0.75  0.71  4.11
 H  0.27 -0.42  4.98
 H -1.28 -0.39  6.94
 H -2.36  0.73  6.11
 H -0.95  1.98  7.67
 H -0.56  2.46  6.00
 H  1.19  1.14  7.89
 H  3.90  1.70  5.87
 H  3.27  0.59  6.96
 H  2.41  2.72  4.49
 N -3.32  0.08  3.36
 C -4.67  0.48  3.01
 H -2.57  0.75  3.26
 H -4.71  0.83  1.98
 H -5.04  1.27  3.68
 H -5.31 -0.40  3.12
