35
#
 C  0.15  0.02  0.18
 C  0.11 -0.12  1.68
 O  1.13 -0.26  2.35
 H  1.20 -0.06 -0.14
 H -0.23  1.00 -0.14
 H -0.44 -0.77 -0.31
 N -1.10 -0.04  2.34
 C -2.49 -0.10  1.90
 C -2.87 -1.52  1.38
 O -2.04 -2.28  0.89
 H -0.96 -0.22  3.33
 H -3.06  0.06  2.82
 C -2.92  1.03  0.91
 C -3.20  0.63 -0.54
 C -3.37  1.87 -1.44
 N -3.62  1.59 -2.84
 C -2.61  1.19 -3.71
 N -3.12  0.82 -4.96
 N -1.34  1.14 -3.50
 H -2.13  1.79  0.94
 H -3.81  1.52  1.32
 H -4.12  0.02 -0.60
 H -2.40 -0.00 -0.94
 H -2.46  2.49 -1.38
 H -4.19  2.50 -1.06
 H -4.53  1.18 -3.04
 H -2.36  0.66 -5.61
 H -3.81  1.45 -5.34
 H -1.11  1.30 -2.52
 N -4.18 -1.88  1.51
 C -5.30 -1.10  2.00
 H -4.38 -2.79  1.10
 H -5.06 -0.59  2.94
 H -6.14 -1.77  2.20
 H -5.64 -0.34  1.27
