35
#
 C  0.17 -0.34  0.25
 C -0.01 -0.63  1.73
 O  0.79 -1.30  2.38
 H  1.02  0.35  0.14
 H -0.71  0.10 -0.22
 H  0.44 -1.28 -0.26
 N -1.10 -0.04  2.30
 C -1.52 -0.33  3.66
 C -3.04 -0.56  3.62
 O -3.72 -0.09  2.71
 H -1.85  0.34  1.72
 H -0.98 -1.25  3.96
 C -1.18  0.79  4.68
 C  0.31  0.90  5.05
 C  1.20  1.74  4.12
 N  0.87  3.15  4.08
 C  0.14  3.77  3.08
 N -0.04  5.14  3.33
 N -0.37  3.26  2.02
 H -1.74  0.58  5.60
 H -1.56  1.74  4.30
 H  0.75 -0.11  5.11
 H  0.39  1.33  6.06
 H  1.18  1.36  3.09
 H  2.24  1.63  4.45
 H  0.90  3.65  4.97
 H -0.48  5.59  2.53
 H  0.81  5.63  3.62
 H -0.31  2.24  2.03
 N -3.60 -1.28  4.63
 C -2.95 -1.92  5.77
 H -4.61 -1.33  4.57
 H -3.53 -2.81  6.06
 H -2.88 -1.25  6.64
 H -1.94 -2.26  5.50
