35
#
 C  0.28 -3.07 -0.44
 C  0.01 -2.14  0.73
 O  0.53 -1.03  0.83
 H -0.11 -4.08 -0.30
 H  1.36 -3.11 -0.62
 H -0.18 -2.63 -1.34
 N -0.85 -2.64  1.69
 C -1.37 -1.82  2.77
 C -0.96 -2.31  4.17
 O -1.62 -2.03  5.17
 H -1.32 -3.52  1.49
 H -0.87 -0.84  2.64
 C -2.89 -1.61  2.68
 C -3.72 -2.90  2.82
 C -4.98 -2.70  3.66
 N -4.62 -2.46  5.04
 C -5.55 -2.07  5.98
 N -4.98 -1.67  7.19
 N -6.84 -2.02  5.85
 H -3.11 -1.11  1.72
 H -3.16 -0.90  3.47
 H -3.13 -3.70  3.29
 H -4.02 -3.27  1.83
 H -5.61 -3.61  3.60
 H -5.58 -1.87  3.25
 H -3.65 -2.17  5.21
 H -4.15 -2.18  7.47
 H -5.67 -1.61  7.93
 H -7.12 -2.23  4.89
 N  0.19 -3.04  4.21
 C  0.79 -3.49  5.45
 H  0.66 -3.20  3.33
 H  0.99 -4.57  5.41
 H  0.09 -3.28  6.26
 H  1.73 -2.96  5.65
