35
#
 C  1.26 -0.80  0.91
 C  0.52  0.26  1.71
 O  1.12  1.08  2.41
 H  1.93 -0.30  0.20
 H  0.59 -1.48  0.36
 H  1.88 -1.39  1.59
 N -0.84  0.25  1.59
 C -1.69  1.24  2.26
 C -1.99  0.80  3.72
 O -3.09  0.38  4.07
 H -1.29 -0.50  1.09
 H -1.10  2.17  2.30
 C -2.98  1.47  1.47
 C -2.76  2.09  0.09
 C -4.07  2.31 -0.66
 N -3.81  2.86 -1.98
 C -4.79  3.17 -2.91
 N -5.97  2.42 -2.79
 N -4.51  4.03 -3.83
 H -3.63  2.11  2.08
 H -3.53  0.51  1.39
 H -2.10  1.45 -0.52
 H -2.23  3.05  0.20
 H -4.73  2.97 -0.05
 H -4.58  1.34 -0.76
 H -3.04  3.51 -2.05
 H -6.75  2.82 -3.30
 H -6.23  2.10 -1.87
 H -5.28  4.12 -4.50
 N -0.92  0.94  4.54
 C -0.93  0.50  5.92
 H -0.03  1.20  4.10
 H -0.35 -0.42  6.06
 H -1.97  0.32  6.21
 H -0.50  1.28  6.57
