35
#
 C -1.29  1.52 -0.43
 C -1.02  1.38  1.06
 O -0.07  1.95  1.60
 H -1.21  0.55 -0.95
 H -0.53  2.19 -0.84
 H -2.28  1.93 -0.64
 N -1.87  0.59  1.79
 C -3.04 -0.15  1.35
 C -4.19  0.17  2.34
 O -3.97  0.28  3.54
 H -1.72  0.61  2.79
 H -3.31  0.19  0.34
 C -2.83 -1.68  1.32
 C -1.74 -2.19  0.37
 C -0.31 -2.16  0.95
 N  0.69 -2.78  0.10
 C  0.82 -4.16 -0.02
 N  1.72 -4.52 -1.02
 N  0.22 -5.08  0.66
 H -3.80 -2.14  1.05
 H -2.63 -2.02  2.35
 H -1.77 -1.63 -0.58
 H -1.97 -3.24  0.11
 H -0.30 -2.66  1.92
 H  0.01 -1.13  1.14
 H  0.97 -2.25 -0.72
 H  1.90 -5.52 -0.99
 H  2.59 -3.98 -1.03
 H -0.50 -4.70  1.27
 N -5.42  0.27  1.78
 C -6.63  0.48  2.56
 H -5.51  0.18  0.77
 H -7.13  1.41  2.26
 H -6.33  0.56  3.61
 H -7.33 -0.36  2.45
