35
#
 C -0.35 -0.38 -0.42
 C -0.19 -0.58  1.07
 O  0.90 -0.91  1.53
 H  0.52 -0.83 -0.90
 H -0.37  0.69 -0.66
 H -1.26 -0.82 -0.84
 N -1.23 -0.35  1.94
 C -2.68 -0.08  1.88
 C -3.53 -1.28  2.38
 O -4.36 -1.08  3.27
 H -0.90 -0.50  2.90
 H -2.87  0.66  2.68
 C -3.26  0.51  0.59
 C -2.87  1.97  0.35
 C -3.29  2.51 -1.03
 N -2.40  2.17 -2.13
 C -2.54  1.04 -2.91
 N -1.55  0.96 -3.90
 N -3.47  0.18 -2.68
 H -4.35  0.45  0.70
 H -3.03 -0.10 -0.29
 H -1.79  2.12  0.48
 H -3.35  2.60  1.13
 H -3.35  3.61 -0.98
 H -4.29  2.14 -1.29
 H -1.48  2.59 -2.13
 H -1.70  0.22 -4.57
 H -1.32  1.84 -4.36
 H -3.52 -0.52 -3.43
 N -3.38 -2.52  1.83
 C -2.56 -2.96  0.71
 H -4.00 -3.20  2.25
 H -2.73 -2.36 -0.19
 H -2.84 -3.99  0.48
 H -1.49 -2.95  0.95
