35
#
 C -0.75  0.24 -0.43
 C -0.59 -0.05  1.05
 O  0.27 -0.81  1.48
 H  0.21  0.59 -0.83
 H -1.53  0.98 -0.66
 H -0.99 -0.70 -0.95
 N -1.46  0.62  1.87
 C -1.50  0.39  3.31
 C -2.71 -0.50  3.63
 O -3.86 -0.06  3.52
 H -2.24  1.12  1.46
 H -0.56 -0.12  3.54
 C -1.60  1.72  4.07
 C -1.69  1.57  5.59
 C -0.46  0.91  6.23
 N -0.55  0.69  7.67
 C -1.26 -0.37  8.21
 N -1.27 -0.34  9.61
 N -1.88 -1.32  7.59
 H -2.49  2.26  3.72
 H -0.72  2.32  3.79
 H -2.59  1.00  5.86
 H -1.82  2.57  6.04
 H  0.44  1.52  6.04
 H -0.26 -0.07  5.78
 H -0.52  1.53  8.25
 H -1.70 -1.19  9.98
 H -0.36 -0.15 10.03
 H -1.96 -1.13  6.59
 N -2.48 -1.78  4.06
 C -1.22 -2.52  4.09
 H -3.33 -2.28  4.28
 H -1.43 -3.57  3.85
 H -0.76 -2.50  5.09
 H -0.52 -2.14  3.34
