35
#
 C -0.81  1.06  1.03
 C -1.57  1.47  2.28
 O -1.82  2.63  2.56
 H  0.20  0.71  1.31
 H -0.72  1.95  0.40
 H -1.32  0.26  0.47
 N -1.98  0.45  3.12
 C -1.68 -0.97  3.05
 C -2.90 -1.83  2.61
 O -2.83 -3.06  2.61
 H -2.37  0.80  3.99
 H -0.94 -1.12  2.25
 C -1.08 -1.53  4.35
 C  0.44 -1.31  4.49
 C  0.89  0.14  4.70
 N  2.33  0.31  4.69
 C  3.02  0.35  3.50
 N  4.41  0.37  3.68
 N  2.39  0.35  2.37
 H -1.28 -2.60  4.36
 H -1.62 -1.10  5.21
 H  0.94 -1.70  3.59
 H  0.80 -1.92  5.34
 H  0.51  0.53  5.66
 H  0.50  0.79  3.91
 H  2.84 -0.13  5.46
 H  4.94  0.56  2.83
 H  4.73  0.95  4.46
 H  3.04  0.51  1.59
 N -3.99 -1.13  2.21
 C -5.20 -1.76  1.71
 H -3.92 -0.12  2.25
 H -5.38 -1.49  0.66
 H -6.07 -1.47  2.31
 H -5.06 -2.84  1.79
