35
#
 C -0.76 -0.91  1.31
 C -1.13 -0.40  2.69
 O -0.44 -0.67  3.67
 H -1.16 -0.31  0.48
 H -1.14 -1.93  1.20
 H  0.33 -0.95  1.25
 N -2.27  0.35  2.85
 C -3.27  0.86  1.91
 C -3.67 -0.14  0.80
 O -3.63  0.16 -0.39
 H -2.39  0.62  3.82
 H -4.19  0.96  2.52
 C -3.00  2.28  1.36
 C -1.73  2.52  0.53
 C -0.45  2.72  1.33
 N  0.65  3.03  0.44
 C  1.97  3.03  0.89
 N  2.85  3.52 -0.08
 N  2.43  2.67  2.03
 H -3.00  2.97  2.22
 H -3.88  2.54  0.75
 H -1.91  3.43 -0.07
 H -1.60  1.72 -0.21
 H -0.18  1.82  1.89
 H -0.61  3.52  2.09
 H  0.45  3.73 -0.26
 H  3.82  3.39  0.21
 H  2.69  3.15 -1.02
 H  1.68  2.46  2.70
 N -4.10 -1.37  1.20
 C -4.29 -1.90  2.55
 H -4.34 -1.97  0.42
 H -3.35 -2.27  2.99
 H -5.00 -2.73  2.50
 H -4.71 -1.14  3.22
