35
#
 C -0.00  0.43  0.13
 C  0.02  0.03  1.59
 O  0.98 -0.53  2.11
 H  0.80  1.16 -0.05
 H -0.95  0.87 -0.20
 H  0.22 -0.45 -0.48
 N -1.11  0.34  2.30
 C -1.25  0.09  3.73
 C -1.06 -1.37  4.18
 O -0.48 -1.60  5.24
 H -1.88  0.81  1.83
 H -0.43  0.61  4.26
 C -2.60  0.66  4.20
 C -2.82  0.61  5.71
 C -4.17  1.18  6.15
 N -4.36  2.59  5.87
 C -5.05  3.04  4.77
 N -5.04  4.45  4.67
 N -5.60  2.22  3.93
 H -3.42  0.13  3.69
 H -2.66  1.70  3.85
 H -2.00  1.14  6.22
 H -2.75 -0.43  6.07
 H -4.29  1.02  7.23
 H -4.99  0.65  5.64
 H -3.67  3.23  6.25
 H -5.66  4.81  3.96
 H -5.15  4.93  5.56
 H -6.17  2.72  3.25
 N -1.62 -2.39  3.46
 C -2.33 -2.39  2.19
 H -1.40 -3.30  3.86
 H -2.86 -3.35  2.10
 H -1.65 -2.29  1.33
 H -3.07 -1.59  2.14
