35
#
 C  3.06 -1.97  0.19
 C  2.88 -1.20  1.48
 O  3.73 -1.23  2.38
 H  2.23 -1.84 -0.52
 H  3.17 -3.04  0.43
 H  3.99 -1.65 -0.29
 N  1.74 -0.46  1.58
 C  1.44  0.37  2.75
 C  0.80 -0.51  3.86
 O -0.41 -0.51  4.09
 H  1.03 -0.54  0.86
 H  2.41  0.74  3.12
 C  0.54  1.54  2.36
 C  0.39  2.57  3.48
 C -0.49  3.75  3.07
 N -0.63  4.69  4.18
 C -1.39  5.85  4.10
 N -1.42  6.43  2.84
 N -2.05  6.41  5.06
 H -0.45  1.15  2.09
 H  0.98  2.02  1.47
 H  1.38  2.96  3.78
 H -0.05  2.08  4.36
 H -1.47  3.38  2.72
 H -0.03  4.26  2.22
 H -0.75  4.22  5.08
 H -1.83  7.36  2.88
 H -0.54  6.42  2.33
 H -2.07  5.82  5.90
 N  1.71 -1.26  4.53
 C  1.32 -2.25  5.53
 H  2.65 -1.28  4.14
 H  0.30 -2.04  5.84
 H  1.99 -2.19  6.40
 H  1.36 -3.27  5.13
