35
#
 C  1.34  0.28  0.15
 C  1.01  0.29  1.63
 O  1.85  0.66  2.47
 H  2.21 -0.37 -0.01
 H  1.62  1.29 -0.16
 H  0.51 -0.07 -0.48
 N -0.24 -0.12  1.96
 C -0.67 -0.32  3.33
 C -1.31 -1.72  3.40
 O -1.88 -2.20  2.42
 H -0.82 -0.59  1.27
 H  0.22 -0.28  3.96
 C -1.70  0.73  3.80
 C -1.24  2.19  3.76
 C  0.05  2.51  4.54
 N  0.11  1.87  5.84
 C  1.16  1.12  6.36
 N  2.18  0.81  5.49
 N  1.23  0.69  7.59
 H -1.99  0.47  4.83
 H -2.61  0.62  3.19
 H -2.07  2.80  4.15
 H -1.10  2.51  2.72
 H  0.14  3.61  4.64
 H  0.91  2.19  3.95
 H -0.54  2.20  6.55
 H  2.84  0.15  5.88
 H  2.04  0.76  4.48
 H  0.46  1.06  8.15
 N -1.26 -2.36  4.60
 C -0.57 -1.94  5.81
 H -1.74 -3.25  4.60
 H -0.62 -2.76  6.54
 H -1.03 -1.06  6.28
 H  0.49 -1.72  5.63
