35
#
 C -0.22  0.10 -0.09
 C -0.10  0.04  1.42
 O  1.01 -0.05  1.95
 H -0.80 -0.74 -0.50
 H  0.80  0.05 -0.49
 H -0.70  1.02 -0.44
 N -1.22  0.10  2.22
 C -2.68  0.14  2.06
 C -3.36 -1.08  2.73
 O -4.25 -0.89  3.56
 H -0.93  0.07  3.20
 H -3.04  0.98  2.68
 C -3.20  0.39  0.64
 C -4.72  0.58  0.59
 C -5.22  0.86 -0.83
 N -4.69  2.09 -1.41
 C -3.70  2.07 -2.38
 N -3.48  3.33 -2.95
 N -3.09  0.97 -2.68
 H -2.92 -0.41 -0.05
 H -2.72  1.30  0.25
 H -5.02  1.41  1.26
 H -5.24 -0.32  0.96
 H -6.32  0.93 -0.83
 H -4.94  0.03 -1.50
 H -5.34  2.86 -1.49
 H -2.63  3.39 -3.50
 H -3.57  4.12 -2.31
 H -2.35  1.13 -3.36
 N -2.98 -2.34  2.39
 C -1.96 -2.81  1.46
 H -3.49 -3.05  2.92
 H -0.94 -2.61  1.82
 H -2.08 -2.37  0.47
 H -2.08 -3.90  1.35
