35
#
 C  0.04 -0.08  0.01
 C  0.05 -0.13  1.52
 O  1.09 -0.30  2.16
 H  1.03 -0.39 -0.34
 H -0.13  0.95 -0.33
 H -0.73 -0.73 -0.42
 N -1.13  0.05  2.22
 C -2.53  0.12  1.82
 C -3.09 -1.24  1.36
 O -2.43 -2.03  0.69
 H -0.96 -0.05  3.22
 H -3.05  0.43  2.74
 C -2.86  1.19  0.76
 C -2.42  2.60  1.16
 C -2.68  3.63  0.04
 N -2.40  5.00  0.40
 C -3.28  5.75  1.18
 N -2.74  6.97  1.58
 N -4.48  5.44  1.55
 H -3.95  1.18  0.60
 H -2.41  0.90 -0.20
 H -1.34  2.60  1.40
 H -2.94  2.92  2.07
 H -3.73  3.57 -0.29
 H -2.07  3.38 -0.84
 H -1.42  5.22  0.56
 H -3.44  7.55  2.02
 H -2.23  7.47  0.85
 H -4.72  4.47  1.31
 N -4.39 -1.51  1.71
 C -5.29 -0.74  2.55
 H -4.72 -2.41  1.36
 H -6.25 -1.26  2.59
 H -5.47  0.27  2.15
 H -4.92 -0.64  3.58
