35
#
 C -0.14 -0.41  1.87
 C -0.73  0.34  3.04
 O -0.04  0.66  4.03
 H  0.36  0.30  1.20
 H -0.89 -0.97  1.30
 H  0.62 -1.08  2.26
 N -2.06  0.65  3.04
 C -3.03  0.86  1.94
 C -3.72 -0.47  1.58
 O -3.19 -1.33  0.88
 H -2.34  1.14  3.88
 H -3.77  1.53  2.40
 C -2.50  1.54  0.67
 C -1.62  2.79  0.84
 C -2.11  3.89  1.80
 N -1.59  3.76  3.15
 C -2.32  3.42  4.25
 N -1.51  3.14  5.36
 N -3.62  3.40  4.21
 H -3.40  1.81  0.09
 H -1.97  0.80  0.06
 H -1.51  3.23 -0.16
 H -0.61  2.50  1.14
 H -3.21  3.91  1.89
 H -1.81  4.87  1.40
 H -0.58  3.78  3.27
 H -2.03  2.86  6.18
 H -0.76  2.47  5.15
 H -4.00  3.10  5.11
 N -4.97 -0.61  2.12
 C -5.77 -1.81  1.95
 H -5.32  0.14  2.70
 H -5.24 -2.47  1.27
 H -6.75 -1.56  1.53
 H -5.91 -2.33  2.91
