35
#
 C  0.04  0.75  0.06
 C  0.14  0.92  1.56
 O  1.21  0.92  2.16
 H  1.06  0.72 -0.34
 H -0.52  1.56 -0.41
 H -0.46 -0.20 -0.20
 N -1.04  1.09  2.25
 C -2.40  1.05  1.72
 C -2.92  2.40  1.17
 O -4.00  2.46  0.58
 H -0.92  1.12  3.26
 H -2.43  0.37  0.86
 C -3.39  0.51  2.77
 C -3.57  1.40  4.01
 C -4.57  0.80  4.99
 N -4.74  1.66  6.15
 C -5.21  1.12  7.34
 N -5.48  2.12  8.30
 N -5.38 -0.15  7.48
 H -3.07 -0.50  3.06
 H -4.36  0.40  2.26
 H -3.90  2.40  3.69
 H -2.61  1.54  4.54
 H -4.23 -0.17  5.36
 H -5.54  0.62  4.48
 H -5.09  2.59  5.95
 H -5.66  1.75  9.22
 H -4.80  2.88  8.32
 H -5.61 -0.39  8.44
 N -2.12  3.48  1.39
 C -2.45  4.81  0.94
 H -1.24  3.30  1.88
 H -1.69  5.20  0.25
 H -2.53  5.51  1.79
 H -3.41  4.76  0.42
