35
#
 C -1.01  0.59 -0.09
 C -0.75  0.09  1.32
 O  0.14 -0.72  1.56
 H -1.16 -0.28 -0.74
 H -0.11  1.11 -0.44
 H -1.87  1.26 -0.18
 N -1.60  0.60  2.27
 C -1.55  0.37  3.72
 C -0.59  1.40  4.39
 O -1.06  2.50  4.68
 H -2.21  1.34  1.98
 H -2.52  0.74  4.09
 C -1.46 -1.11  4.12
 C -1.57 -1.31  5.63
 C -1.47 -2.77  6.07
 N -0.16 -3.33  5.76
 C  0.43 -4.42  6.39
 N -0.25 -4.88  7.53
 N  1.55 -4.96  6.08
 H -0.54 -1.55  3.71
 H -2.29 -1.63  3.61
 H -2.54 -0.91  5.98
 H -0.79 -0.73  6.15
 H -2.29 -3.35  5.61
 H -1.60 -2.82  7.16
 H  0.17 -3.19  4.81
 H  0.20 -5.71  7.88
 H -1.25 -4.99  7.43
 H  2.02 -4.45  5.32
 N  0.73  1.13  4.61
 C  1.55 -0.04  4.35
 H  1.19  1.92  5.06
 H  1.46 -0.80  5.15
 H  2.60  0.28  4.30
 H  1.29 -0.49  3.38
