35
#
 C -0.27  1.32  0.54
 C -0.67  1.25  2.00
 O  0.09  1.61  2.90
 H  0.78  1.63  0.50
 H -0.87  2.07 -0.01
 H -0.38  0.36  0.02
 N -1.92  0.77  2.29
 C -3.01  0.46  1.38
 C -4.27  1.20  1.86
 O -4.47  1.39  3.06
 H -2.20  0.86  3.27
 H -2.72  0.79  0.37
 C -3.34 -1.06  1.34
 C -2.22 -1.92  0.76
 C -2.51 -3.43  0.90
 N -2.51 -3.88  2.28
 C -1.34 -4.26  2.93
 N -1.59 -4.73  4.23
 N -0.13 -4.24  2.49
 H -4.26 -1.21  0.76
 H -3.56 -1.37  2.37
 H -1.27 -1.70  1.28
 H -2.07 -1.69 -0.30
 H -1.78 -4.00  0.31
 H -3.50 -3.66  0.48
 H -3.34 -4.37  2.59
 H -0.72 -4.89  4.72
 H -2.24 -4.17  4.76
 H -0.10 -4.00  1.49
 N -5.16  1.60  0.91
 C -5.03  1.50 -0.54
 H -5.98  2.05  1.29
 H -4.18  2.09 -0.92
 H -5.94  1.90 -0.99
 H -4.92  0.46 -0.88
