35
#
 C  0.13  0.12  0.04
 C  0.23  0.10  1.55
 O  1.32  0.18  2.13
 H  0.75 -0.69 -0.36
 H  0.55  1.07 -0.33
 H -0.89  0.01 -0.34
 N -0.96  0.01  2.21
 C -1.07 -0.19  3.64
 C -2.07 -1.34  3.84
 O -2.91 -1.60  2.97
 H -1.80 -0.25  1.69
 H -0.08 -0.46  4.01
 C -1.57  1.08  4.41
 C -0.53  1.69  5.36
 C  0.68  2.31  4.64
 N  1.91  2.32  5.42
 C  2.55  1.15  5.81
 N  2.35  0.06  4.96
 N  3.24  1.16  6.91
 H -2.48  0.82  4.99
 H -1.89  1.82  3.66
 H -0.16  0.91  6.04
 H -1.02  2.44  5.99
 H  0.46  3.35  4.36
 H  0.88  1.79  3.69
 H  1.97  3.01  6.16
 H  3.03 -0.68  5.09
 H  2.15  0.23  3.98
 H  3.75  0.29  7.03
 N -2.00 -2.04  5.00
 C -1.11 -1.84  6.13
 H -2.74 -2.73  5.09
 H -0.97 -2.80  6.65
 H -1.51 -1.12  6.86
 H -0.12 -1.49  5.80
