35
#
 C  1.08 -0.47  0.75
 C  0.64  0.02  2.11
 O  1.40  0.62  2.88
 H  1.93 -1.16  0.89
 H  1.44  0.38  0.17
 H  0.30 -0.99  0.19
 N -0.66 -0.24  2.44
 C -1.24  0.22  3.71
 C -0.90 -0.79  4.83
 O -1.68 -1.67  5.23
 H -1.23 -0.80  1.82
 H -0.69  1.15  3.94
 C -2.73  0.61  3.57
 C -3.81 -0.48  3.53
 C -3.61 -1.60  2.49
 N -4.62 -2.63  2.51
 C -4.71 -3.63  3.47
 N -3.55 -3.86  4.20
 N -5.81 -4.31  3.53
 H -2.79  1.24  2.66
 H -2.96  1.28  4.41
 H -4.77  0.02  3.32
 H -3.91 -0.94  4.52
 H -2.64 -2.09  2.64
 H -3.60 -1.17  1.47
 H -5.53 -2.43  2.11
 H -3.68 -4.50  4.97
 H -2.96 -3.07  4.46
 H -5.76 -5.04  4.24
 N  0.35 -0.62  5.32
 C  0.94 -1.53  6.29
 H  0.95  0.02  4.80
 H  1.53 -2.31  5.80
 H  0.13 -2.01  6.85
 H  1.58 -0.97  6.98
