35
#
 C  1.29 -1.05  0.57
 C  0.80 -0.38  1.83
 O  1.40  0.58  2.32
 H  1.29 -0.31 -0.25
 H  0.68 -1.91  0.26
 H  2.33 -1.38  0.72
 N -0.32 -0.91  2.39
 C -0.94 -0.34  3.58
 C -1.22 -1.35  4.71
 O -0.84 -1.10  5.85
 H -0.81 -1.63  1.86
 H -0.15  0.30  4.00
 C -2.16  0.54  3.25
 C -2.61  1.44  4.41
 C -1.61  2.55  4.76
 N -1.38  3.44  3.62
 C -0.16  4.09  3.41
 N  0.96  3.29  3.60
 N -0.19  5.34  3.07
 H -3.01 -0.08  2.92
 H -1.88  1.19  2.40
 H -3.58  1.90  4.14
 H -2.80  0.84  5.32
 H -0.65  2.12  5.06
 H -1.98  3.11  5.63
 H -2.12  4.12  3.47
 H  1.83  3.75  3.36
 H  0.93  2.33  3.25
 H  0.74  5.66  2.79
 N -1.93 -2.49  4.45
 C -2.45 -3.01  3.20
 H -2.03 -3.07  5.28
 H -1.69 -3.56  2.62
 H -2.87 -2.21  2.57
 H -3.27 -3.70  3.42
