35
#
 C -0.02 -0.34 -0.26
 C -0.15  0.28  1.12
 O  0.73  1.01  1.59
 H  0.10  0.47 -1.00
 H -0.88 -0.96 -0.55
 H  0.89 -0.95 -0.29
 N -1.29 -0.01  1.80
 C -1.57  0.53  3.13
 C -0.88 -0.35  4.20
 O -1.48 -1.21  4.85
 H -1.94 -0.70  1.42
 H -1.12  1.53  3.14
 C -3.08  0.63  3.34
 C -3.50  1.25  4.69
 C -2.82  2.57  5.04
 N -3.02  3.58  4.01
 C -2.33  4.79  4.05
 N -2.75  5.66  3.04
 N -1.41  5.16  4.87
 H -3.53 -0.37  3.28
 H -3.49  1.22  2.51
 H -3.29  0.54  5.49
 H -4.59  1.39  4.68
 H -1.74  2.42  5.16
 H -3.20  2.91  6.03
 H -3.97  3.66  3.66
 H -2.16  6.49  3.01
 H -2.85  5.23  2.12
 H -1.30  4.49  5.64
 N  0.44 -0.06  4.34
 C  1.32 -0.83  5.20
 H  0.85  0.56  3.63
 H  1.99 -0.16  5.76
 H  1.94 -1.54  4.62
 H  0.71 -1.39  5.91
