35
#
 C -1.02  1.01 -0.66
 C -0.63  0.90  0.81
 O  0.53  1.00  1.20
 H -0.10  1.11 -1.24
 H -1.65  1.89 -0.83
 H -1.58  0.14 -1.00
 N -1.65  0.69  1.70
 C -3.08  0.63  1.43
 C -3.79  1.95  1.02
 O -4.81  1.86  0.35
 H -1.33  0.61  2.66
 H -3.24  0.00  0.54
 C -3.87 -0.05  2.57
 C -4.04  0.69  3.90
 C -2.84  0.67  4.85
 N -3.12  1.20  6.18
 C -4.01  0.57  7.07
 N -3.94 -0.82  7.04
 N -4.83  1.15  7.87
 H -4.87 -0.24  2.15
 H -3.42 -1.04  2.74
 H -4.35  1.74  3.71
 H -4.88  0.22  4.43
 H -1.99  1.25  4.46
 H -2.48 -0.37  4.96
 H -3.24  2.21  6.20
 H -3.00 -1.21  6.99
 H -4.49 -1.22  7.79
 H -4.89  2.15  7.69
 N -3.29  3.17  1.38
 C -2.18  3.57  2.23
 H -3.88  3.92  1.02
 H -2.27  4.64  2.42
 H -2.20  3.06  3.21
 H -1.20  3.38  1.77
