35
#
 C -1.12 -1.44  1.25
 C -0.36 -0.30  1.89
 O  0.84 -0.36  2.15
 H -1.52 -1.14  0.26
 H -1.99 -1.76  1.85
 H -0.43 -2.28  1.12
 N -1.07  0.85  2.15
 C -2.50  1.08  2.04
 C -2.93  1.82  0.76
 O -4.10  2.15  0.58
 H -0.51  1.56  2.63
 H -3.00  0.09  1.98
 C -3.06  1.81  3.29
 C -4.45  1.29  3.70
 C -4.38 -0.11  4.36
 N -5.51 -0.97  4.08
 C -5.59 -1.65  2.88
 N -6.82 -2.28  2.67
 N -4.55 -1.74  2.12
 H -3.11  2.89  3.10
 H -2.36  1.66  4.12
 H -5.08  1.24  2.80
 H -4.93  2.00  4.38
 H -4.28 -0.01  5.45
 H -3.49 -0.65  4.00
 H -6.37 -0.79  4.57
 H -6.98 -2.55  1.70
 H -7.64 -1.82  3.06
 H -4.75 -2.30  1.29
 N -1.93  2.04 -0.14
 C -2.16  2.69 -1.42
 H -1.00  1.74  0.12
 H -1.90  2.03 -2.25
 H -1.57  3.61 -1.50
 H -3.22  2.94 -1.48
