35
#
 C  0.59 -0.34  0.44
 C  0.34 -0.22  1.93
 O  1.15  0.28  2.70
 H  1.65 -0.51  0.27
 H  0.31  0.61 -0.03
 H  0.01 -1.14 -0.04
 N -0.87 -0.75  2.37
 C -1.42 -0.37  3.68
 C -1.30  1.17  3.86
 O -1.63  1.91  2.94
 H -1.56 -0.86  1.64
 H -2.51 -0.52  3.57
 C -1.01 -1.30  4.85
 C  0.47 -1.43  5.25
 C  1.26 -2.49  4.47
 N  0.65 -3.81  4.51
 C  0.38 -4.60  3.40
 N  0.16 -3.90  2.22
 N  0.38 -5.88  3.56
 H -1.38 -2.31  4.62
 H -1.60 -0.97  5.72
 H  0.50 -1.71  6.32
 H  1.01 -0.48  5.15
 H  2.29 -2.53  4.88
 H  1.38 -2.18  3.42
 H  0.88 -4.39  5.31
 H -0.23 -4.46  1.48
 H -0.28 -2.98  2.30
 H  0.05 -6.36  2.71
 N -0.93  1.61  5.09
 C -0.76  3.03  5.36
 H -0.51  0.95  5.73
 H -0.97  3.23  6.42
 H -1.46  3.59  4.74
 H  0.26  3.37  5.12
