35
#
 C  2.03 -2.97  2.19
 C  1.24 -2.08  3.12
 O  1.23 -2.28  4.34
 H  1.99 -2.66  1.14
 H  1.64 -3.99  2.27
 H  3.08 -2.99  2.52
 N  0.54 -1.07  2.53
 C -0.35 -0.09  3.18
 C  0.38  0.99  4.01
 O  0.17  2.18  3.78
 H  0.67 -0.95  1.53
 H -0.79  0.47  2.35
 C -1.50 -0.72  4.00
 C -2.29 -1.81  3.25
 C -2.18 -3.21  3.87
 N -2.80 -3.33  5.18
 C -2.12 -3.30  6.39
 N -3.01 -3.33  7.48
 N -0.85 -3.24  6.62
 H -2.16  0.12  4.27
 H -1.11 -1.11  4.94
 H -1.95 -1.88  2.20
 H -3.35 -1.53  3.20
 H -1.13 -3.51  3.97
 H -2.65 -3.94  3.19
 H -3.77 -3.04  5.24
 H -2.49 -3.43  8.34
 H -3.74 -4.03  7.40
 H -0.29 -3.08  5.78
 N  1.19  0.52  4.99
 C  1.91  1.39  5.90
 H  1.27 -0.50  5.09
 H  1.60  1.22  6.94
 H  1.68  2.43  5.63
 H  2.99  1.24  5.82
