35
#
 C  0.20  2.51  1.35
 C  0.17  1.10  1.91
 O  0.95  0.72  2.78
 H  1.08  3.01  1.74
 H -0.70  3.07  1.64
 H  0.23  2.51  0.25
 N -0.79  0.25  1.41
 C -1.88  0.58  0.50
 C -3.00  1.48  1.09
 O -3.46  2.40  0.41
 H -0.78 -0.66  1.84
 H -1.50  1.21 -0.31
 C -2.48 -0.69 -0.12
 C -1.53 -1.45 -1.07
 C -1.09 -0.67 -2.32
 N -2.18 -0.21 -3.19
 C -2.92  0.92 -2.87
 N -2.13  2.03 -2.55
 N -4.21  0.85 -2.86
 H -3.39 -0.41 -0.66
 H -2.80 -1.38  0.68
 H -2.04 -2.37 -1.39
 H -0.62 -1.77 -0.53
 H -0.43 -1.32 -2.92
 H -0.49  0.20 -2.04
 H -2.83 -0.96 -3.45
 H -1.36  2.22 -3.18
 H -2.64  2.85 -2.24
 H -4.63  1.78 -2.75
 N -3.47  1.25  2.36
 C -3.12  0.21  3.32
 H -4.19  1.91  2.62
 H -3.89  0.21  4.10
 H -2.15  0.39  3.80
 H -3.12 -0.78  2.87
