35
#
 C  0.55 -0.94  2.05
 C  0.23  0.21  3.00
 O  1.11  0.75  3.66
 H  1.62 -1.14  2.12
 H  0.31 -0.67  1.01
 H -0.01 -1.85  2.29
 N -1.07  0.61  3.10
 C -2.23  0.17  2.34
 C -2.95  1.42  1.82
 O -2.90  2.48  2.44
 H -1.22  1.46  3.64
 H -1.87 -0.44  1.50
 C -3.23 -0.66  3.18
 C -2.64 -1.97  3.71
 C -3.63 -2.81  4.53
 N -4.74 -3.35  3.76
 C -5.98 -2.74  3.71
 N -6.85 -3.39  2.82
 N -6.23 -1.68  4.40
 H -4.12 -0.87  2.58
 H -3.57 -0.03  4.02
 H -1.77 -1.75  4.35
 H -2.27 -2.58  2.87
 H -4.08 -2.20  5.33
 H -3.10 -3.64  5.00
 H -4.50 -3.92  2.96
 H -7.81 -3.07  2.89
 H -6.81 -4.41  2.85
 H -7.22 -1.42  4.34
 N -3.68  1.30  0.67
 C -3.87  0.12 -0.16
 H -4.20  2.14  0.43
 H -4.51 -0.64  0.32
 H -2.91 -0.35 -0.42
 H -4.34  0.42 -1.10
