35
#
 C  0.19 -0.05  1.04
 C -0.93  0.18  2.03
 O -1.44  1.29  2.20
 H  1.03  0.61  1.29
 H -0.16  0.24  0.04
 H  0.55 -1.09  1.01
 N -1.33 -0.91  2.74
 C -2.37 -0.83  3.75
 C -2.08 -1.95  4.76
 O -1.64 -3.04  4.38
 H -0.89 -1.82  2.63
 H -2.27  0.16  4.22
 C -3.78 -0.97  3.12
 C -4.92 -0.55  4.05
 C -5.02  0.98  4.26
 N -5.49  1.35  5.60
 C -4.67  1.12  6.69
 N -5.33  0.84  7.87
 N -3.37  1.12  6.69
 H -3.91 -2.01  2.80
 H -3.79 -0.35  2.21
 H -4.80 -1.04  5.03
 H -5.87 -0.92  3.64
 H -5.71  1.43  3.53
 H -4.05  1.46  4.08
 H -6.47  1.13  5.76
 H -6.28  1.18  7.96
 H -4.76  1.01  8.69
 H -3.00  1.40  5.78
 N -2.37 -1.66  6.05
 C -2.18 -2.65  7.10
 H -2.66 -0.72  6.32
 H -1.11 -2.85  7.29
 H -2.66 -3.60  6.83
 H -2.63 -2.26  8.02
