35
#
 C -2.13 -1.64 -0.83
 C -1.54 -1.48  0.56
 O -0.54 -2.13  0.92
 H -1.37 -1.33 -1.57
 H -3.04 -1.05 -0.98
 H -2.35 -2.70 -1.00
 N -2.16 -0.59  1.36
 C -1.65 -0.17  2.67
 C -2.01 -1.19  3.79
 O -2.75 -0.91  4.74
 H -2.95 -0.04  0.99
 H -0.55 -0.19  2.59
 C -2.08  1.27  2.97
 C -3.54  1.59  3.35
 C -4.65  0.90  2.55
 N -4.52  1.14  1.10
 C -5.44  0.64  0.17
 N -5.93 -0.63  0.46
 N -5.65  1.32 -0.90
 H -1.78  1.87  2.10
 H -1.45  1.63  3.80
 H -3.68  2.68  3.28
 H -3.71  1.31  4.39
 H -5.63  1.25  2.93
 H -4.59 -0.18  2.74
 H -4.31  2.10  0.86
 H -6.75 -0.91 -0.06
 H -5.94 -0.93  1.43
 H -6.25  0.83 -1.56
 N -1.42 -2.39  3.61
 C -1.65 -3.52  4.49
 H -0.88 -2.52  2.74
 H -0.69 -3.96  4.81
 H -2.25 -4.30  4.00
 H -2.19 -3.16  5.38
