35
#
 C -0.75  2.51  0.83
 C -0.61  1.52  1.97
 O  0.12  1.74  2.94
 H -0.99  3.49  1.25
 H -1.51  2.21  0.10
 H  0.22  2.60  0.32
 N -1.33  0.37  1.83
 C -1.37 -0.63  2.89
 C -0.98 -2.03  2.38
 O -1.74 -3.00  2.44
 H -1.94  0.28  0.99
 H -0.57 -0.30  3.57
 C -2.67 -0.58  3.72
 C -4.01 -1.12  3.18
 C -4.40 -0.79  1.74
 N -3.75 -1.70  0.79
 C -3.13 -1.27 -0.35
 N -2.56 -2.31 -1.09
 N -3.04  0.00 -0.64
 H -2.79  0.48  3.99
 H -2.46 -1.11  4.67
 H -4.80 -0.71  3.83
 H -4.04 -2.21  3.31
 H -4.16  0.24  1.46
 H -5.49 -0.90  1.63
 H -3.33 -2.53  1.22
 H -2.26 -2.05 -2.02
 H -3.05 -3.19 -1.06
 H -2.63  0.14 -1.56
 N  0.28 -2.17  1.87
 C  1.33 -1.18  1.70
 H  0.44 -3.10  1.51
 H  1.27 -0.68  0.72
 H  2.30 -1.68  1.78
 H  1.27 -0.41  2.48
