35
#
 C  0.19 -0.52  0.84
 C -0.00 -1.02  2.27
 O  0.92 -1.52  2.91
 H  1.21 -0.78  0.53
 H  0.08  0.57  0.79
 H -0.54 -0.96  0.15
 N -1.25 -0.88  2.81
 C -2.48 -0.45  2.14
 C -3.28  0.38  3.16
 O -4.12 -0.15  3.89
 H -1.36 -1.31  3.73
 H -2.17  0.21  1.31
 C -3.29 -1.62  1.57
 C -4.49 -1.21  0.71
 C -4.16 -0.30 -0.49
 N -3.01 -0.75 -1.28
 C -3.14 -1.83 -2.15
 N -1.99 -2.01 -2.94
 N -4.23 -2.51 -2.20
 H -3.65 -2.23  2.41
 H -2.61 -2.24  0.99
 H -5.24 -0.69  1.32
 H -4.97 -2.12  0.33
 H -3.92  0.71 -0.15
 H -5.06 -0.23 -1.13
 H -2.44 -0.00 -1.66
 H -1.98 -2.88 -3.46
 H -1.11 -1.86 -2.45
 H -4.14 -3.32 -2.81
 N -3.00  1.71  3.24
 C -1.93  2.43  2.56
 H -3.50  2.19  3.98
 H -1.97  3.48  2.87
 H -2.04  2.40  1.47
 H -0.93  2.04  2.83
