35
#
 C -0.34 -0.95  0.34
 C -0.25 -0.70  1.83
 O  0.74 -0.98  2.49
 H -0.93 -1.87  0.14
 H  0.68 -1.12 -0.03
 H -0.79 -0.12 -0.21
 N -1.35 -0.12  2.45
 C -2.71 -0.04  1.92
 C -3.42  1.24  2.41
 O -4.64  1.31  2.52
 H -1.26 -0.16  3.46
 H -2.62  0.07  0.83
 C -3.53 -1.32  2.19
 C -4.76 -1.50  1.29
 C -5.13 -2.97  1.05
 N -4.15 -3.69  0.23
 C -3.00 -4.28  0.73
 N -3.18 -4.98  1.91
 N -1.89 -4.11  0.09
 H -3.84 -1.35  3.25
 H -2.84 -2.15  2.04
 H -4.57 -1.03  0.30
 H -5.62 -0.96  1.70
 H -6.11 -3.03  0.55
 H -5.23 -3.49  2.01
 H -3.93 -3.22 -0.64
 H -2.38 -5.53  2.21
 H -4.06 -5.49  2.00
 H -1.15 -4.73  0.45
 N -2.58  2.29  2.67
 C -3.06  3.59  3.08
 H -1.59  2.11  2.57
 H -2.80  4.36  2.33
 H -2.63  3.88  4.05
 H -4.15  3.54  3.17
