35
#
 C -0.94  1.82  2.29
 C -0.11  0.71  1.67
 O  1.10  0.63  1.82
 H -0.26  2.57  2.70
 H -1.57  1.43  3.10
 H -1.62  2.29  1.56
 N -0.78 -0.22  0.91
 C -2.22 -0.36  0.72
 C -3.03 -0.65  2.00
 O -4.10 -0.06  2.18
 H -0.18 -0.93  0.52
 H -2.64  0.60  0.37
 C -2.48 -1.42 -0.36
 C -3.95 -1.52 -0.79
 C -4.21 -2.64 -1.81
 N -3.50 -2.50 -3.08
 C -2.19 -2.91 -3.28
 N -1.88 -4.13 -2.67
 N -1.40 -2.17 -3.98
 H -2.13 -2.41 -0.01
 H -1.86 -1.16 -1.23
 H -4.60 -1.70  0.09
 H -4.28 -0.56 -1.21
 H -5.29 -2.68 -2.03
 H -3.95 -3.61 -1.37
 H -3.64 -1.60 -3.54
 H -0.99 -4.51 -2.98
 H -2.61 -4.83 -2.69
 H -0.53 -2.65 -4.20
 N -2.57 -1.55  2.91
 C -1.36 -2.37  2.93
 H -3.19 -1.63  3.71
 H -1.48 -3.13  3.70
 H -0.46 -1.78  3.15
 H -1.21 -2.89  1.97
