35
#
 C -0.04  0.39 -0.12
 C  0.11  0.12  1.36
 O  1.22  0.00  1.89
 H  0.91  0.12 -0.60
 H -0.20  1.47 -0.30
 H -0.85 -0.18 -0.58
 N -1.02  0.00  2.13
 C -2.42  0.31  1.83
 C -3.00 -0.72  0.81
 O -3.03 -1.90  1.15
 H -0.81 -0.28  3.08
 H -2.96 -0.00  2.74
 C -2.71  1.81  1.66
 C -2.47  2.67  2.91
 C -1.00  2.98  3.29
 N -0.11  3.34  2.19
 C -0.43  4.26  1.21
 N -1.09  5.39  1.68
 N -0.13  4.00 -0.03
 H -3.77  1.92  1.39
 H -2.13  2.23  0.82
 H -2.96  2.22  3.78
 H -2.98  3.63  2.74
 H -0.53  2.12  3.77
 H -1.01  3.78  4.05
 H  0.44  2.57  1.81
 H -1.18  6.14  1.00
 H -0.80  5.72  2.60
 H -0.27  4.81 -0.63
 N -3.51 -0.36 -0.41
 C -3.54  0.90 -1.15
 H -3.88 -1.17 -0.89
 H -3.75  0.66 -2.20
 H -2.58  1.42 -1.12
 H -4.33  1.58 -0.80
