35
#
 C  0.88  0.39  0.25
 C  0.33 -0.33  1.47
 O  1.07 -0.82  2.33
 H  0.17  1.11 -0.17
 H  1.10 -0.35 -0.53
 H  1.81  0.89  0.53
 N -1.03 -0.47  1.49
 C -1.83 -1.06  2.58
 C -1.96 -0.03  3.74
 O -2.78  0.88  3.58
 H -1.56  0.10  0.83
 H -2.85 -1.05  2.18
 C -1.50 -2.52  2.90
 C -1.73 -3.46  1.70
 C -0.44 -3.80  0.94
 N -0.63 -4.42 -0.36
 C -0.99 -3.67 -1.48
 N -1.24 -4.46 -2.60
 N -1.10 -2.39 -1.56
 H -2.16 -2.81  3.73
 H -0.47 -2.64  3.26
 H -2.45 -3.01  1.00
 H -2.19 -4.40  2.04
 H  0.18 -4.48  1.54
 H  0.17 -2.90  0.79
 H -0.99 -5.37 -0.36
 H -1.38 -3.88 -3.42
 H -0.57 -5.21 -2.76
 H -1.03 -1.95 -0.64
 N -1.24 -0.11  4.89
 C -0.14 -0.98  5.28
 H -1.48  0.64  5.53
 H  0.54 -1.15  4.44
 H -0.50 -1.95  5.68
 H  0.42 -0.48  6.08
