35
#
 C  0.14  0.19  0.60
 C -0.11  0.30  2.08
 O  0.79  0.69  2.84
 H  0.15  1.20  0.16
 H -0.60 -0.44  0.08
 H  1.14 -0.23  0.46
 N -1.33 -0.03  2.62
 C -2.67 -0.04  2.03
 C -2.98 -1.32  1.23
 O -2.13 -1.96  0.61
 H -1.35  0.19  3.61
 H -3.33 -0.05  2.91
 C -3.01  1.23  1.21
 C -3.30  2.50  2.04
 C -2.23  2.99  3.02
 N -2.30  2.27  4.30
 C -1.37  2.57  5.34
 N -0.06  2.65  4.92
 N -1.68  2.74  6.58
 H -3.89  1.02  0.59
 H -2.19  1.42  0.50
 H -4.25  2.36  2.59
 H -3.49  3.31  1.32
 H -2.36  4.08  3.17
 H -1.22  2.86  2.59
 H -3.24  2.31  4.68
 H  0.57  2.74  5.70
 H  0.26  1.98  4.20
 H -2.70  2.80  6.71
 N -4.29 -1.71  1.22
 C -5.40 -1.17  1.99
 H -4.45 -2.55  0.67
 H -5.24 -1.25  3.07
 H -6.30 -1.74  1.74
 H -5.61 -0.12  1.74
