35
#
 C  0.19  1.27  2.78
 C  0.43  0.14  1.80
 O  1.47 -0.51  1.78
 H  1.09  1.39  3.39
 H -0.67  1.06  3.44
 H -0.02  2.22  2.26
 N -0.59 -0.15  0.92
 C -1.90  0.46  0.83
 C -2.97  0.01  1.86
 O -4.02  0.67  1.91
 H -0.37 -0.92  0.29
 H -1.80  1.53  1.06
 C -2.45  0.39 -0.61
 C -2.78 -0.99 -1.19
 C -4.02 -1.69 -0.58
 N -5.21 -0.88 -0.49
 C -5.98 -0.56 -1.60
 N -6.93  0.43 -1.32
 N -5.92 -1.05 -2.79
 H -1.70  0.88 -1.25
 H -3.35  1.02 -0.65
 H -1.92 -1.68 -1.11
 H -2.94 -0.85 -2.27
 H -3.79 -2.06  0.43
 H -4.25 -2.59 -1.18
 H -5.19 -0.18  0.26
 H -7.37  0.37 -0.41
 H -7.60  0.51 -2.07
 H -5.12 -1.68 -2.90
 N -2.78 -1.02  2.72
 C -1.80 -2.11  2.75
 H -3.58 -1.13  3.33
 H -0.82 -1.78  3.13
 H -1.65 -2.56  1.76
 H -2.18 -2.88  3.41
