35
#
 C -1.44 -1.43  1.05
 C -0.67 -0.35  1.81
 O  0.48 -0.53  2.18
 H -1.61 -1.13  0.01
 H -2.42 -1.65  1.50
 H -0.84 -2.34  1.06
 N -1.33  0.83  2.07
 C -2.58  1.31  1.50
 C -2.28  2.20  0.28
 O -1.62  3.23  0.38
 H -0.72  1.54  2.46
 H -3.16  0.43  1.18
 C -3.39  2.12  2.53
 C -3.80  1.32  3.77
 C -4.90  0.29  3.50
 N -5.27 -0.55  4.63
 C -4.51 -1.65  5.01
 N -5.02 -2.26  6.16
 N -3.45 -2.12  4.45
 H -4.28  2.53  2.03
 H -2.78  2.99  2.82
 H -4.16  2.02  4.54
 H -2.92  0.82  4.20
 H -4.60 -0.39  2.68
 H -5.80  0.80  3.14
 H -5.76 -0.08  5.38
 H -4.51 -3.12  6.36
 H -6.02 -2.40  6.16
 H -3.08 -1.49  3.74
 N -2.82  1.76 -0.90
 C -2.63  2.47 -2.16
 H -3.33  0.89 -0.90
 H -2.05  3.37 -1.95
 H -3.60  2.76 -2.59
 H -2.09  1.85 -2.88
