35
#
 C  0.17 -0.04  0.87
 C -0.10  0.30  2.32
 O  0.84  0.49  3.11
 H  0.61 -1.05  0.84
 H  0.92  0.66  0.48
 H -0.72 -0.03  0.23
 N -1.41  0.35  2.68
 C -2.05  0.43  4.01
 C -1.71  1.62  4.93
 O -2.59  2.04  5.69
 H -2.06  0.19  1.92
 H -3.11  0.63  3.78
 C -2.03 -0.90  4.81
 C -0.66 -1.52  5.10
 C -0.20 -2.49  4.00
 N  1.25 -2.51  3.87
 C  1.85 -3.33  2.92
 N  3.21 -3.05  2.76
 N  1.30 -4.26  2.21
 H -2.66 -1.63  4.29
 H -2.56 -0.67  5.75
 H -0.70 -2.06  6.06
 H  0.09 -0.73  5.23
 H -0.68 -2.23  3.04
 H -0.54 -3.51  4.24
 H  1.65 -1.56  3.89
 H  3.66 -3.77  2.20
 H  3.71 -2.85  3.62
 H  0.29 -4.27  2.34
 N -0.46  2.13  4.88
 C -0.06  3.23  5.75
 H  0.23  1.64  4.30
 H  0.91  3.60  5.42
 H  0.01  2.91  6.80
 H -0.80  4.04  5.70
