35
#
 C -0.34  1.48  0.13
 C  0.07  0.44  1.16
 O  1.25  0.14  1.34
 H -0.74  2.38  0.62
 H -1.10  1.10 -0.56
 H  0.56  1.76 -0.43
 N -0.91 -0.16  1.92
 C -2.37 -0.10  1.83
 C -2.87 -0.79  0.53
 O -2.68 -1.99  0.37
 H -0.53 -0.91  2.49
 H -2.71 -0.80  2.61
 C -2.97  1.27  2.19
 C -4.43  1.21  2.63
 C -5.02  2.59  2.91
 N -6.41  2.47  3.35
 C -7.19  3.59  3.63
 N -6.51  4.61  4.31
 N -8.41  3.60  3.23
 H -2.85  1.99  1.37
 H -2.35  1.68  3.01
 H -4.52  0.59  3.54
 H -5.04  0.71  1.86
 H -4.93  3.22  2.01
 H -4.42  3.08  3.69
 H -6.96  1.83  2.79
 H -7.11  5.33  4.68
 H -5.81  4.30  4.98
 H -8.92  4.41  3.61
 N -3.51  0.00 -0.38
 C -4.01 -0.51 -1.64
 H -3.62  0.99 -0.18
 H -3.84 -1.59 -1.65
 H -3.48 -0.06 -2.50
 H -5.09 -0.32 -1.75
