35
#
 C -0.77 -0.06 -0.04
 C -0.55  0.21  1.44
 O  0.51  0.66  1.86
 H -0.10 -0.88 -0.34
 H -0.48  0.83 -0.61
 H -1.80 -0.33 -0.30
 N -1.61 -0.12  2.24
 C -1.71  0.08  3.70
 C -2.14  1.54  3.99
 O -3.34  1.81  3.88
 H -2.48 -0.34  1.78
 H -2.62 -0.46  3.98
 C -0.57 -0.54  4.53
 C -0.60 -2.07  4.61
 C -0.13 -2.80  3.34
 N  0.03 -4.24  3.50
 C  1.15 -4.75  4.15
 N  1.05 -6.14  4.35
 N  2.11 -3.98  4.53
 H -0.67 -0.14  5.55
 H  0.41 -0.22  4.16
 H -1.61 -2.42  4.88
 H  0.07 -2.38  5.42
 H  0.84 -2.40  3.03
 H -0.83 -2.64  2.51
 H -0.82 -4.77  3.66
 H  1.92 -6.56  4.67
 H  0.66 -6.65  3.56
 H  2.90 -4.52  4.87
 N -1.25  2.51  4.33
 C  0.20  2.50  4.45
 H -1.72  3.40  4.50
 H  0.65  1.89  3.66
 H  0.54  2.15  5.44
 H  0.56  3.53  4.32
