35
#
 C  0.19  0.13  0.44
 C  0.31  0.37  1.94
 O  1.38  0.22  2.53
 H -0.59 -0.60  0.19
 H  1.15 -0.23  0.08
 H -0.06  1.06 -0.09
 N -0.82  0.76  2.61
 C -2.16  0.98  2.08
 C -2.60  2.38  2.56
 O -2.69  2.61  3.76
 H -0.69  0.95  3.60
 H -2.10  0.94  0.99
 C -3.17 -0.07  2.58
 C -4.52 -0.00  1.85
 C -4.76 -1.15  0.85
 N -3.69 -1.44 -0.09
 C -3.42 -0.67 -1.19
 N -2.39 -1.20 -1.97
 N -4.05  0.44 -1.39
 H -3.30  0.09  3.66
 H -2.70 -1.06  2.47
 H -4.62  0.95  1.31
 H -5.35 -0.02  2.57
 H -5.67 -0.94  0.27
 H -4.94 -2.09  1.41
 H -2.96 -2.07  0.22
 H -2.23 -0.70 -2.84
 H -2.42 -2.21 -2.12
 H -3.84  0.81 -2.32
 N -2.86  3.34  1.62
 C -2.71  3.25  0.17
 H -3.08  4.24  2.03
 H -3.20  2.36 -0.24
 H -1.65  3.26 -0.14
 H -3.20  4.13 -0.27
