35
#
 C -3.64  3.37  1.84
 C -2.64  2.25  2.01
 O -1.88  1.90  1.10
 H -4.12  3.27  0.86
 H -3.10  4.33  1.86
 H -4.41  3.39  2.62
 N -2.60  1.67  3.24
 C -1.53  0.76  3.63
 C -1.95 -0.71  3.39
 O -2.21 -1.50  4.30
 H -3.21  2.02  3.97
 H -0.71  0.98  2.93
 C -1.09  1.03  5.07
 C  0.33  0.53  5.40
 C  1.45  1.05  4.49
 N  1.46  2.50  4.28
 C  0.78  3.12  3.23
 N  1.06  2.62  1.97
 N  0.01  4.12  3.49
 H -1.80  0.56  5.76
 H -1.13  2.12  5.22
 H  0.35 -0.57  5.38
 H  0.55  0.82  6.44
 H  1.39  0.57  3.50
 H  2.42  0.75  4.91
 H  1.31  3.04  5.13
 H  0.26  2.55  1.34
 H  1.71  1.85  1.90
 H -0.25  4.60  2.62
 N -1.98 -1.03  2.06
 C -2.45 -2.31  1.57
 H -1.82 -0.26  1.41
 H -1.74 -2.73  0.85
 H -3.43 -2.22  1.09
 H -2.53 -2.99  2.43
