35
#
 C  0.50  0.23  0.23
 C  0.44  0.50  1.73
 O  1.39  0.97  2.35
 H  1.15 -0.63  0.07
 H  0.95  1.09 -0.27
 H -0.48  0.02 -0.22
 N -0.76  0.21  2.33
 C -0.99  0.19  3.77
 C -0.18  1.27  4.53
 O  0.59  0.97  5.44
 H -1.47 -0.23  1.75
 H -2.05  0.46  3.91
 C -0.77 -1.21  4.36
 C -1.37 -1.42  5.77
 C -0.35 -1.64  6.90
 N  0.48 -2.81  6.75
 C  1.77 -2.79  6.24
 N  2.31 -4.09  6.15
 N  2.48 -1.79  5.85
 H  0.31 -1.43  4.35
 H -1.23 -1.92  3.66
 H -2.06 -2.28  5.75
 H -1.99 -0.55  6.05
 H -0.90 -1.72  7.85
 H  0.30 -0.76  6.98
 H  0.00 -3.70  6.66
 H  3.29 -4.03  5.88
 H  2.19 -4.64  6.99
 H  1.95 -0.91  5.81
 N -0.47  2.58  4.26
 C -1.23  3.13  3.16
 H  0.16  3.21  4.76
 H -2.15  2.56  2.99
 H -0.65  3.15  2.22
 H -1.52  4.16  3.41
