35
#
 C -0.87 -0.71  0.75
 C -0.77 -0.35  2.22
 O  0.01 -0.93  2.97
 H  0.11 -1.07  0.43
 H -1.20  0.11  0.10
 H -1.59 -1.53  0.63
 N -1.64  0.59  2.73
 C -2.44  1.59  2.01
 C -3.51  0.94  1.09
 O -3.83  1.43  0.01
 H -1.44  0.80  3.71
 H -3.02  2.11  2.79
 C -1.61  2.67  1.28
 C -2.35  4.00  1.11
 C -1.51  5.07  0.41
 N -0.24  5.42  1.07
 C -0.18  5.93  2.37
 N -1.24  6.77  2.71
 N  0.73  5.69  3.25
 H -1.29  2.29  0.29
 H -0.70  2.82  1.88
 H -2.65  4.38  2.10
 H -3.26  3.84  0.52
 H -2.11  5.98  0.29
 H -1.24  4.75 -0.61
 H  0.52  4.78  0.88
 H -1.54  7.41  1.97
 H -1.05  7.24  3.59
 H  1.37  4.95  2.93
 N -4.09 -0.16  1.62
 C -5.12 -0.92  0.93
 H -3.69 -0.53  2.48
 H -5.42 -0.34  0.05
 H -5.99 -1.08  1.58
 H -4.74 -1.90  0.60
