35
#
 C -2.32  0.99 -0.96
 C -1.45  0.81  0.27
 O -0.40  1.42  0.43
 H -1.89  1.79 -1.56
 H -3.36  1.23 -0.70
 H -2.33  0.07 -1.56
 N -1.90 -0.06  1.24
 C -3.06 -0.94  1.19
 C -4.35 -0.32  1.79
 O -5.41 -0.96  1.80
 H -1.23 -0.20  2.00
 H -3.31 -1.14  0.14
 C -2.79 -2.29  1.87
 C -2.54 -2.21  3.39
 C -3.14 -3.41  4.15
 N -4.59 -3.47  4.01
 C -5.22 -4.34  3.12
 N -6.40 -3.81  2.61
 N -4.86 -5.54  2.80
 H -1.94 -2.77  1.36
 H -3.66 -2.92  1.67
 H -2.99 -1.29  3.80
 H -1.46 -2.15  3.62
 H -2.87 -3.34  5.21
 H -2.72 -4.35  3.77
 H -5.07 -2.59  4.13
 H -6.84 -4.45  1.96
 H -6.32 -2.85  2.26
 H -4.07 -5.86  3.38
 N -4.22  0.94  2.28
 C -5.32  1.68  2.86
 H -3.30  1.36  2.22
 H -5.50  2.62  2.32
 H -5.12  1.92  3.92
 H -6.22  1.05  2.80
