35
#
 C -0.70  0.42 -0.40
 C -0.49 -0.08  1.02
 O  0.48 -0.75  1.34
 H  0.15  1.03 -0.69
 H -1.62  1.00 -0.54
 H -0.73 -0.45 -1.07
 N -1.45  0.31  1.91
 C -1.49 -0.13  3.31
 C -0.13 -0.02  4.04
 O  0.32 -0.96  4.69
 H -2.27  0.80  1.57
 H -2.15  0.60  3.81
 C -2.08 -1.55  3.47
 C -3.41 -1.78  2.74
 C -4.68 -1.25  3.43
 N -4.68  0.14  3.88
 C -4.51  1.27  3.10
 N -4.66  1.07  1.72
 N -4.19  2.45  3.51
 H -2.17 -1.76  4.54
 H -1.33 -2.25  3.09
 H -3.56 -2.86  2.62
 H -3.34 -1.38  1.72
 H -4.87 -1.84  4.34
 H -5.55 -1.43  2.78
 H -4.44  0.29  4.85
 H -4.83  1.96  1.25
 H -5.33  0.36  1.45
 H -4.03  2.48  4.52
 N  0.49  1.19  4.02
 C  0.10  2.42  3.35
 H  1.39  1.17  4.48
 H  0.56  3.27  3.88
 H -0.98  2.57  3.38
 H  0.43  2.46  2.30
