35
#
 C -0.15  0.29 -0.31
 C  0.03  0.46  1.18
 O  1.09  0.87  1.66
 H  0.06  1.24 -0.81
 H -1.15 -0.06 -0.60
 H  0.60 -0.43 -0.67
 N -1.05  0.14  1.94
 C -1.00  0.07  3.39
 C -1.78 -1.17  3.84
 O -2.66 -1.67  3.14
 H -1.85 -0.35  1.53
 H  0.05 -0.07  3.65
 C -1.57  1.34  4.07
 C -0.71  2.60  3.94
 C  0.54  2.66  4.83
 N  1.53  1.61  4.60
 C  1.51  0.41  5.29
 N  2.27 -0.58  4.68
 N  0.84  0.09  6.36
 H -1.76  1.12  5.13
 H -2.56  1.53  3.62
 H -1.32  3.48  4.20
 H -0.41  2.75  2.89
 H  0.26  2.63  5.89
 H  1.04  3.63  4.68
 H  1.74  1.49  3.60
 H  3.02 -0.28  4.07
 H  2.49 -1.36  5.29
 H  0.28  0.87  6.69
 N -1.41 -1.63  5.06
 C -2.07 -2.77  5.68
 H -0.63 -1.18  5.56
 H -3.16 -2.63  5.68
 H -1.72 -2.86  6.71
 H -1.86 -3.70  5.15
