35
#
 C -0.51  0.30  0.24
 C -0.75  1.01  1.56
 O -0.15  2.03  1.86
 H  0.28  0.83 -0.29
 H -1.41  0.30 -0.39
 H -0.20 -0.75  0.37
 N -1.68  0.46  2.40
 C -2.41 -0.79  2.25
 C -3.76 -0.59  2.95
 O -3.80 -0.10  4.08
 H -1.83  0.95  3.28
 H -2.55 -0.98  1.18
 C -1.65 -1.98  2.88
 C -2.29 -3.35  2.66
 C -1.51 -4.49  3.33
 N -1.50 -4.40  4.78
 C -0.36 -4.45  5.56
 N  0.75 -3.80  5.00
 N -0.40 -5.08  6.69
 H -1.57 -1.78  3.96
 H -0.63 -1.97  2.47
 H -2.35 -3.57  1.58
 H -3.32 -3.36  3.04
 H -0.47 -4.48  2.98
 H -1.94 -5.46  3.02
 H -2.25 -4.90  5.26
 H  1.54 -3.73  5.63
 H  0.55 -2.91  4.54
 H  0.45 -4.91  7.24
 N -4.89 -0.99  2.30
 C -5.03 -1.49  0.94
 H -5.74 -0.83  2.84
 H -6.09 -1.66  0.75
 H -4.51 -2.45  0.80
 H -4.66 -0.78  0.20
