35
#
 C  0.20 -0.08  0.24
 C -0.81  0.68  1.07
 O -1.12  1.85  0.81
 H  1.03 -0.46  0.85
 H  0.59  0.61 -0.52
 H -0.26 -0.93 -0.28
 N -1.40  0.07  2.15
 C -1.51 -1.32  2.59
 C -0.19 -2.11  2.37
 O  0.83 -1.77  2.95
 H -2.01  0.72  2.64
 H -1.55 -1.28  3.69
 C -2.83 -1.98  2.14
 C -3.21 -1.91  0.64
 C -4.06 -0.67  0.23
 N -3.43  0.31 -0.64
 C -2.93  0.02 -1.90
 N -3.53 -1.09 -2.51
 N -1.99  0.64 -2.52
 H -3.64 -1.52  2.72
 H -2.81 -3.03  2.48
 H -3.78 -2.81  0.39
 H -2.32 -1.94 -0.01
 H -4.38 -0.13  1.13
 H -4.99 -1.02 -0.24
 H -2.90  1.04 -0.17
 H -3.25 -1.13 -3.49
 H -4.53 -1.16 -2.40
 H -1.57  1.36 -1.93
 N -0.27 -3.20  1.56
 C  0.89 -4.02  1.26
 H -1.12 -3.37  1.05
 H  0.63 -5.08  1.28
 H  1.65 -3.82  2.02
 H  1.32 -3.77  0.27
