35
#
 C  0.46  0.90  1.66
 C -0.08 -0.36  2.30
 O  0.66 -1.16  2.87
 H  1.47  0.68  1.29
 H  0.55  1.68  2.43
 H -0.15  1.30  0.84
 N -1.44 -0.62  2.22
 C -2.54  0.25  1.79
 C -2.61  0.47  0.25
 O -3.29  1.37 -0.23
 H -1.69 -1.44  2.75
 H -3.45 -0.33  2.01
 C -2.67  1.58  2.55
 C -2.92  1.37  4.04
 C -3.05  2.68  4.84
 N -4.12  3.55  4.37
 C -3.90  4.70  3.61
 N -5.09  5.39  3.38
 N -2.80  5.16  3.15
 H -3.49  2.14  2.09
 H -1.77  2.19  2.40
 H -2.11  0.78  4.50
 H -3.85  0.78  4.18
 H -2.10  3.23  4.81
 H -3.23  2.44  5.90
 H -4.96  3.58  4.95
 H -4.93  6.16  2.72
 H -5.87  4.81  3.09
 H -1.99  4.64  3.49
 N -1.93 -0.45 -0.49
 C -1.93 -0.44 -1.94
 H -1.39 -1.15  0.02
 H -2.34 -1.38 -2.34
 H -0.92 -0.30 -2.33
 H -2.56  0.39 -2.27
