35
#
 C  0.89 -0.15  0.24
 C  0.65 -0.14  1.74
 O  1.57 -0.19  2.55
 H  1.47 -1.05 -0.01
 H  1.51  0.72 -0.03
 H -0.03 -0.13 -0.35
 N -0.66 -0.05  2.12
 C -1.05 -0.12  3.51
 C -2.46 -0.72  3.53
 O -3.17 -0.72  2.51
 H -1.42 -0.15  1.45
 H -0.35 -0.80  4.02
 C -0.94  1.25  4.22
 C -1.79  2.40  3.66
 C -3.28  2.36  4.05
 N -4.02  3.57  3.73
 C -3.91  4.72  4.50
 N -4.57  5.81  3.91
 N -3.31  4.88  5.63
 H  0.12  1.53  4.16
 H -1.16  1.13  5.30
 H -1.71  2.41  2.56
 H -1.37  3.35  4.01
 H -3.38  2.18  5.13
 H -3.79  1.52  3.55
 H -4.19  3.73  2.75
 H -4.59  6.60  4.56
 H -5.49  5.60  3.54
 H -2.76  4.06  5.88
 N -2.93 -1.21  4.71
 C -2.26 -1.32  5.99
 H -3.89 -1.53  4.65
 H -2.63 -2.20  6.52
 H -2.43 -0.44  6.63
 H -1.18 -1.44  5.86
