35
#
 C -1.58 -2.17  0.29
 C -1.15 -0.74  0.53
 O -0.63 -0.05 -0.34
 H -0.84 -2.85  0.73
 H -1.59 -2.33 -0.79
 H -2.56 -2.45  0.71
 N -1.28 -0.21  1.81
 C -2.17 -0.65  2.90
 C -1.78 -2.06  3.42
 O -2.61 -2.88  3.82
 H -1.03  0.78  1.82
 H -1.95  0.03  3.74
 C -3.67 -0.50  2.56
 C -4.62 -0.64  3.76
 C -5.87 -1.48  3.43
 N -5.51 -2.80  2.90
 C -5.75 -3.14  1.59
 N -7.01 -2.78  1.12
 N -4.82 -3.72  0.90
 H -3.92 -1.25  1.79
 H -3.79  0.48  2.08
 H -4.95  0.35  4.11
 H -4.10 -1.11  4.60
 H -6.49 -0.96  2.69
 H -6.48 -1.58  4.34
 H -4.57 -3.10  3.19
 H -7.25 -3.14  0.21
 H -7.77 -2.88  1.79
 H -5.18 -4.07  0.00
 N -0.44 -2.27  3.47
 C  0.15 -3.52  3.91
 H  0.15 -1.57  3.02
 H  0.92 -3.34  4.67
 H  0.59 -4.07  3.07
 H -0.65 -4.12  4.35
