35
#
 C -0.22 -0.83 -0.18
 C -0.02 -0.41  1.26
 O  1.11 -0.20  1.73
 H  0.19 -0.05 -0.83
 H -1.27 -1.01 -0.44
 H  0.35 -1.75 -0.37
 N -1.15 -0.29  2.01
 C -1.16  0.20  3.40
 C -0.82 -0.94  4.40
 O -1.64 -1.37  5.22
 H -2.04 -0.53  1.59
 H -0.33  0.92  3.46
 C -2.46  0.94  3.70
 C -3.78  0.15  3.52
 C -4.53 -0.21  4.82
 N -4.87  0.93  5.66
 C -4.11  1.35  6.74
 N -4.63  2.53  7.31
 N -3.05  0.83  7.25
 H -2.48  1.82  3.04
 H -2.40  1.33  4.72
 H -3.62 -0.80  2.99
 H -4.47  0.74  2.89
 H -3.91 -0.89  5.42
 H -5.45 -0.75  4.56
 H -5.44  1.65  5.23
 H -4.14  2.74  8.17
 H -5.64  2.52  7.45
 H -2.69  0.05  6.69
 N  0.45 -1.38  4.29
 C  0.98 -2.46  5.10
 H  1.02 -0.98  3.53
 H  1.14 -3.37  4.50
 H  0.26 -2.68  5.89
 H  1.94 -2.17  5.55
