35
#
 C  1.38 -0.26  0.14
 C  0.83 -0.44  1.53
 O  1.37 -1.18  2.36
 H  2.43  0.05  0.21
 H  0.83  0.47 -0.47
 H  1.37 -1.23 -0.38
 N -0.29  0.29  1.82
 C -1.01  0.15  3.08
 C -2.30 -0.65  2.83
 O -3.21 -0.15  2.17
 H -0.78  0.76  1.06
 H -0.32 -0.39  3.74
 C -1.35  1.52  3.70
 C -0.11  2.34  4.04
 C -0.46  3.71  4.63
 N  0.76  4.47  4.90
 C  0.76  5.68  5.59
 N -0.42  6.41  5.47
 N  1.73  6.16  6.30
 H -1.94  1.34  4.61
 H -2.01  2.06  3.01
 H  0.50  2.49  3.13
 H  0.52  1.79  4.75
 H -1.07  3.58  5.55
 H -1.09  4.25  3.91
 H  1.56  3.89  5.13
 H -0.30  7.35  5.83
 H -0.87  6.38  4.56
 H  2.48  5.48  6.41
 N -2.37 -1.91  3.33
 C -1.35 -2.65  4.08
 H -3.24 -2.38  3.12
 H -1.59 -3.72  4.01
 H -1.34 -2.37  5.14
 H -0.36 -2.50  3.65
