35
#
 C  1.32  1.14  1.21
 C  0.63  0.31  2.28
 O  1.25 -0.44  3.03
 H  2.00  1.85  1.70
 H  0.63  1.71  0.57
 H  1.93  0.48  0.59
 N -0.73  0.46  2.36
 C -1.54 -0.22  3.37
 C -1.38 -1.75  3.36
 O -1.30 -2.35  4.44
 H -1.19  1.10  1.72
 H -1.17  0.07  4.36
 C -3.00  0.25  3.20
 C -3.93  0.11  4.42
 C -4.26 -1.31  4.89
 N -4.68 -2.16  3.77
 C -4.68 -3.55  3.82
 N -3.67 -4.11  4.58
 N -5.61 -4.17  3.17
 H -3.46 -0.27  2.35
 H -2.97  1.32  2.95
 H -4.86  0.63  4.17
 H -3.50  0.66  5.28
 H -5.04 -1.25  5.67
 H -3.38 -1.76  5.36
 H -5.53 -1.86  3.31
 H -2.77 -3.61  4.64
 H -3.58 -5.12  4.49
 H -5.45 -5.18  3.17
 N -1.38 -2.44  2.19
 C -1.54 -1.99  0.82
 H -1.25 -3.44  2.34
 H -1.87 -2.85  0.22
 H -0.60 -1.61  0.39
 H -2.31 -1.22  0.73
