35
#
 C -0.24  0.26 -0.04
 C -0.10  0.16  1.47
 O  1.00  0.27  2.00
 H  0.12 -0.68 -0.48
 H  0.42  1.05 -0.39
 H -1.26  0.43 -0.40
 N -1.21 -0.11  2.25
 C -2.64 -0.06  1.95
 C -3.04 -0.90  0.71
 O -3.93 -0.54 -0.06
 H -0.96 -0.11  3.23
 H -3.10 -0.62  2.79
 C -3.31  1.33  1.98
 C -2.83  2.42  1.01
 C -1.63  3.24  1.52
 N -1.25  4.34  0.66
 C -1.95  5.54  0.63
 N -1.51  6.39 -0.39
 N -2.90  5.94  1.41
 H -3.24  1.70  3.02
 H -4.38  1.14  1.80
 H -3.67  3.11  0.85
 H -2.61  1.99  0.03
 H -0.74  2.61  1.66
 H -1.86  3.65  2.51
 H -0.84  4.08 -0.23
 H -1.94  7.31 -0.30
 H -0.50  6.45 -0.49
 H -3.22  5.19  2.03
 N -2.39 -2.09  0.61
 C -2.62 -3.02 -0.48
 H -1.63 -2.26  1.26
 H -2.78 -4.03 -0.10
 H -1.77 -3.03 -1.19
 H -3.52 -2.69 -1.02
