35
#
 C -0.79 -0.49 -0.46
 C -0.58 -0.03  0.97
 O  0.34  0.76  1.25
 H -1.66 -1.15 -0.59
 H  0.11 -1.02 -0.79
 H -0.91  0.39 -1.10
 N -1.46 -0.53  1.88
 C -1.50 -0.41  3.36
 C -1.59  1.00  3.98
 O -2.22  1.14  5.03
 H -2.16 -1.14  1.50
 H -2.48 -0.83  3.62
 C -0.46 -1.28  4.09
 C  1.00 -0.83  4.03
 C  1.91 -1.70  4.90
 N  1.57 -1.65  6.32
 C  1.02 -2.72  6.98
 N  0.87 -2.47  8.36
 N  0.73 -3.82  6.36
 H -0.54 -2.31  3.71
 H -0.78 -1.32  5.14
 H  1.08  0.22  4.36
 H  1.38 -0.85  3.00
 H  2.96 -1.39  4.77
 H  1.84 -2.76  4.60
 H  2.07 -0.98  6.89
 H  0.30 -3.17  8.83
 H  0.54 -1.53  8.58
 H  0.26 -4.48  6.98
 N -0.93  2.01  3.36
 C -0.91  3.35  3.91
 H -0.32  1.76  2.57
 H -0.62  4.05  3.13
 H -0.20  3.44  4.75
 H -1.90  3.61  4.29
