35
#
 C  0.09 -0.33  0.42
 C  0.02 -0.34  1.93
 O  1.04 -0.31  2.62
 H  0.25  0.71  0.08
 H -0.80 -0.73 -0.09
 H  0.97 -0.91  0.12
 N -1.22 -0.42  2.54
 C -2.57 -0.31  1.98
 C -3.03 -1.54  1.17
 O -4.05 -1.50  0.47
 H -1.14 -0.38  3.55
 H -3.23 -0.36  2.86
 C -2.85  1.02  1.24
 C -3.04  2.24  2.15
 C -4.49  2.54  2.58
 N -5.12  1.58  3.49
 C -5.53  0.31  3.10
 N -6.24  0.22  1.92
 N -5.26 -0.68  3.89
 H -3.73  0.86  0.61
 H -2.02  1.21  0.54
 H -2.69  3.14  1.61
 H -2.40  2.16  3.04
 H -5.12  2.66  1.69
 H -4.51  3.52  3.09
 H -4.70  1.54  4.41
 H -5.94 -0.55  1.32
 H -6.36  1.08  1.39
 H -5.75 -1.52  3.59
 N -2.30 -2.67  1.35
 C -2.66 -3.95  0.78
 H -1.50 -2.60  1.97
 H -1.83 -4.35  0.18
 H -3.53 -3.79  0.13
 H -2.92 -4.67  1.56
