35
#
 C -4.21  3.31  1.92
 C -2.90  2.63  2.25
 O -1.81  3.13  1.94
 H -4.25  3.49  0.84
 H -4.23  4.29  2.41
 H -5.10  2.74  2.22
 N -3.00  1.44  2.90
 C -1.84  0.65  3.28
 C -2.30 -0.82  3.26
 O -3.44 -1.13  3.62
 H -3.90  1.03  3.13
 H -1.07  0.82  2.51
 C -1.31  1.07  4.67
 C  0.03  0.45  5.08
 C  1.22  0.93  4.24
 N  1.47  2.37  4.39
 C  1.86  3.17  3.31
 N  1.14  2.95  2.14
 N  2.84  4.00  3.51
 H -2.08  0.83  5.41
 H -1.20  2.16  4.65
 H -0.01 -0.65  5.04
 H  0.22  0.71  6.13
 H  1.06  0.74  3.17
 H  2.12  0.35  4.53
 H  2.04  2.61  5.19
 H  1.41  3.58  1.39
 H  0.12  2.90  2.23
 H  2.93  4.64  2.72
 N -1.36 -1.71  2.87
 C -1.58 -3.15  2.86
 H -0.46 -1.35  2.55
 H -2.60 -3.32  3.22
 H -0.87 -3.66  3.52
 H -1.48 -3.56  1.85
