35
#
 C  0.86 -2.13  1.23
 C  0.82 -0.91  2.13
 O  1.86 -0.32  2.45
 H  0.94 -3.04  1.83
 H  1.75 -2.05  0.60
 H -0.03 -2.22  0.59
 N -0.39 -0.48  2.58
 C -1.66 -1.17  2.55
 C -2.72 -0.14  2.98
 O -2.42  0.85  3.64
 H -0.38  0.35  3.18
 H -1.89 -1.49  1.52
 C -1.71 -2.42  3.47
 C -1.44 -2.16  4.97
 C -0.20 -2.89  5.49
 N  1.02 -2.45  4.84
 C  1.98 -3.33  4.38
 N  3.14 -2.67  3.96
 N  1.75 -4.61  4.38
 H -0.98 -3.15  3.09
 H -2.70 -2.90  3.34
 H -2.30 -2.46  5.57
 H -1.32 -1.08  5.15
 H -0.27 -3.97  5.30
 H -0.13 -2.76  6.59
 H  1.34 -1.51  5.04
 H  3.77 -3.27  3.44
 H  2.98 -1.78  3.49
 H  2.53 -5.11  3.95
 N -3.99 -0.43  2.61
 C -5.14  0.37  3.00
 H -4.15 -1.27  2.05
 H -5.68  0.74  2.11
 H -4.76  1.23  3.56
 H -5.83 -0.20  3.63
