35
#
 C -0.30 -0.22  0.38
 C -0.61 -0.01  1.85
 O  0.26  0.26  2.66
 H -0.32  0.75 -0.13
 H -1.00 -0.89 -0.14
 H  0.72 -0.62  0.31
 N -1.93 -0.13  2.27
 C -3.16 -0.23  1.48
 C -3.36 -1.61  0.80
 O -4.13 -1.74 -0.15
 H -2.03  0.13  3.25
 H -3.97 -0.19  2.23
 C -3.41  0.92  0.50
 C -3.38  2.29  1.16
 C -3.68  3.42  0.17
 N -3.62  4.71  0.82
 C -3.96  5.88  0.14
 N -3.69  7.03  0.89
 N -4.45  5.99 -1.05
 H -4.39  0.73  0.03
 H -2.69  0.88 -0.33
 H -2.40  2.47  1.62
 H -4.12  2.34  1.98
 H -4.69  3.29 -0.25
 H -2.97  3.36 -0.68
 H -2.85  4.83  1.47
 H -4.06  7.85  0.42
 H -3.99  6.97  1.86
 H -4.46  5.09 -1.54
 N -2.67 -2.64  1.36
 C -2.76 -4.00  0.89
 H -2.03 -2.40  2.12
 H -3.11 -4.67  1.69
 H -1.79 -4.36  0.52
 H -3.48 -4.02  0.07
