35
#
 C -0.04 -0.41 -0.08
 C  0.13 -0.21  1.42
 O  1.23 -0.24  1.96
 H  0.96 -0.48 -0.52
 H -0.58  0.42 -0.55
 H -0.59 -1.33 -0.31
 N -1.01  0.01  2.15
 C -2.39  0.07  1.71
 C -3.15  0.93  2.74
 O -2.72  1.10  3.87
 H -0.88  0.23  3.14
 H -2.44  0.57  0.73
 C -3.05 -1.33  1.57
 C -3.10 -2.13  2.87
 C -3.59 -3.57  2.64
 N -3.61 -4.38  3.85
 C -2.65 -5.33  4.18
 N -1.41 -5.14  3.56
 N -2.81 -6.35  4.96
 H -2.48 -1.89  0.81
 H -4.06 -1.20  1.16
 H -3.75 -1.64  3.61
 H -2.10 -2.15  3.32
 H -2.95 -4.06  1.89
 H -4.61 -3.55  2.22
 H -4.51 -4.54  4.28
 H -0.73 -5.80  3.92
 H -1.06 -4.19  3.56
 H -3.79 -6.47  5.22
 N -4.33  1.44  2.29
 C -5.22  2.22  3.14
 H -4.59  1.29  1.33
 H -5.34  3.24  2.74
 H -4.77  2.28  4.13
 H -6.21  1.75  3.22
