35
#
 C -0.05 -0.03  0.26
 C -0.24  0.11  1.76
 O  0.71  0.24  2.53
 H  1.03 -0.01  0.06
 H -0.52  0.80 -0.29
 H -0.47 -0.96 -0.12
 N -1.53  0.11  2.23
 C -2.76 -0.11  1.50
 C -3.90  0.79  2.06
 O -4.99  0.33  2.39
 H -1.58  0.16  3.25
 H -2.59  0.25  0.47
 C -3.19 -1.59  1.40
 C -2.93 -2.47  2.64
 C -3.67 -2.08  3.91
 N -3.45 -3.09  4.94
 C -3.87 -2.93  6.26
 N -4.91 -2.03  6.44
 N -3.37 -3.53  7.29
 H -2.65 -2.04  0.56
 H -4.26 -1.62  1.15
 H -1.84 -2.49  2.84
 H -3.21 -3.50  2.38
 H -4.75 -1.99  3.68
 H -3.36 -1.08  4.26
 H -2.57 -3.58  4.86
 H -5.31 -2.11  7.36
 H -5.60 -1.97  5.69
 H -2.55 -4.08  7.05
 N -3.64  2.13  2.16
 C -2.49  2.89  1.69
 H -4.42  2.65  2.54
 H -2.15  2.54  0.70
 H -1.63  2.84  2.38
 H -2.79  3.93  1.57
