35
#
 C -0.87 -0.41  0.35
 C -0.66 -0.71  1.82
 O  0.31 -1.35  2.23
 H -0.08  0.28  0.03
 H -1.84  0.03  0.12
 H -0.74 -1.34 -0.22
 N -1.59 -0.17  2.67
 C -1.63 -0.45  4.11
 C -2.95  0.02  4.75
 O -3.42 -0.64  5.67
 H -2.45  0.14  2.24
 H -1.67 -1.55  4.24
 C -0.40  0.01  4.94
 C -0.06  1.50  4.96
 C  0.83  1.99  3.81
 N  2.20  1.50  3.96
 C  3.07  1.30  2.88
 N  2.48  0.68  1.78
 N  4.32  1.61  2.85
 H  0.47 -0.56  4.59
 H -0.62 -0.34  5.96
 H  0.47  1.72  5.90
 H -0.97  2.12  5.01
 H  0.81  3.09  3.77
 H  0.45  1.64  2.84
 H  2.69  1.93  4.74
 H  3.19  0.46  1.09
 H  1.87 -0.11  1.99
 H  4.58  2.18  3.65
 N -3.62  1.12  4.27
 C -3.18  2.29  3.52
 H -4.49  1.24  4.80
 H -3.11  3.17  4.18
 H -3.88  2.52  2.71
 H -2.19  2.12  3.09
