35
#
 C  0.40  0.73  0.09
 C  0.14  0.81  1.58
 O  0.79  1.55  2.32
 H  1.48  0.58 -0.07
 H  0.12  1.68 -0.36
 H -0.15 -0.08 -0.41
 N -0.87  0.02  2.05
 C -1.35  0.07  3.43
 C -1.57  1.56  3.84
 O -2.43  2.18  3.23
 H -1.43 -0.48  1.38
 H -2.40 -0.25  3.37
 C -0.65 -0.94  4.37
 C  0.84 -1.21  4.15
 C  1.46 -2.13  5.21
 N  0.84 -3.45  5.35
 C  1.04 -4.43  4.40
 N  0.26 -5.58  4.66
 N  1.85 -4.25  3.41
 H -1.19 -1.90  4.25
 H -0.85 -0.63  5.41
 H  1.41 -0.27  4.14
 H  0.99 -1.67  3.16
 H  1.42 -1.65  6.20
 H  2.51 -2.29  4.96
 H -0.06 -3.48  5.81
 H  0.51 -6.37  4.07
 H  0.21 -5.84  5.64
 H  1.98 -5.11  2.88
 N -0.96  2.12  4.94
 C  0.36  1.87  5.50
 H -1.30  3.07  5.05
 H  0.62  2.71  6.14
 H  1.12  1.79  4.70
 H  0.39  0.96  6.11
