35
#
 C  1.13  0.55  3.68
 C -0.05 -0.22  4.23
 O  0.04 -0.95  5.22
 H  1.53  1.19  4.47
 H  0.90  1.16  2.80
 H  1.92 -0.17  3.41
 N -1.23 -0.04  3.57
 C -2.47 -0.68  4.00
 C -2.56 -2.12  3.42
 O -3.24 -2.40  2.44
 H -1.25  0.51  2.72
 H -2.39 -0.77  5.10
 C -3.68  0.17  3.62
 C -5.02 -0.30  4.20
 C -5.06 -0.40  5.74
 N -4.64  0.80  6.47
 C -5.23  2.05  6.32
 N -6.60  2.01  6.06
 N -4.64  3.19  6.41
 H -3.77  0.18  2.52
 H -3.48  1.21  3.94
 H -5.28 -1.28  3.78
 H -5.80  0.40  3.87
 H -4.43 -1.22  6.09
 H -6.09 -0.67  6.04
 H -3.63  0.86  6.61
 H -7.12  1.30  6.56
 H -7.01  2.93  6.14
 H -3.62  3.09  6.47
 N -1.79 -3.01  4.11
 C -1.61 -4.38  3.67
 H -1.15 -2.61  4.79
 H -0.66 -4.52  3.13
 H -2.43 -4.63  2.98
 H -1.63 -5.06  4.53
