35
#
 C  0.24 -0.45  0.23
 C  0.03 -0.18  1.70
 O  0.81  0.50  2.36
 H  1.26 -0.81  0.08
 H  0.14  0.50 -0.32
 H -0.47 -1.18 -0.19
 N -1.09 -0.75  2.27
 C -1.48 -0.41  3.63
 C -2.22 -1.57  4.32
 O -3.11 -1.37  5.14
 H -1.80 -1.12  1.64
 H -0.53 -0.29  4.17
 C -2.24  0.93  3.73
 C -1.87  1.73  4.98
 C -2.15  3.23  4.83
 N -1.62  3.85  3.61
 C -0.29  4.27  3.49
 N  0.65  3.30  3.84
 N -0.06  5.47  3.09
 H -3.33  0.74  3.69
 H -1.98  1.53  2.85
 H -0.80  1.59  5.20
 H -2.42  1.36  5.85
 H -1.78  3.75  5.74
 H -3.24  3.39  4.80
 H -2.20  4.63  3.29
 H  1.61  3.59  3.66
 H  0.49  2.35  3.49
 H  0.93  5.61  2.88
 N -1.78 -2.82  3.98
 C -2.27 -4.02  4.61
 H -1.00 -2.87  3.33
 H -2.57 -4.76  3.85
 H -3.14 -3.75  5.21
 H -1.52 -4.48  5.26
