35
#
 C  0.45  0.86  1.86
 C  0.03 -0.11  2.95
 O  0.63 -0.21  4.01
 H -0.30  1.65  1.72
 H  0.56  0.35  0.89
 H  1.40  1.31  2.15
 N -1.08 -0.89  2.70
 C -2.00 -0.80  1.58
 C -2.82  0.52  1.49
 O -2.97  1.05  0.39
 H -1.32 -1.50  3.47
 H -1.43 -0.79  0.65
 C -2.92 -2.04  1.59
 C -4.02 -2.06  0.52
 C -3.49 -2.08 -0.92
 N -4.54 -2.16 -1.94
 C -5.41 -3.24 -2.06
 N -4.82 -4.47 -1.75
 N -6.64 -3.21 -2.41
 H -3.40 -2.12  2.58
 H -2.28 -2.92  1.48
 H -4.68 -1.19  0.64
 H -4.64 -2.95  0.68
 H -2.79 -2.92 -1.05
 H -2.92 -1.16 -1.14
 H -5.01 -1.27 -2.10
 H -5.44 -5.23 -2.02
 H -3.87 -4.60 -2.11
 H -6.99 -2.25 -2.47
 N -3.37  1.06  2.61
 C -3.35  0.61  4.00
 H -3.86  1.93  2.41
 H -3.63 -0.45  4.09
 H -4.10  1.19  4.55
 H -2.38  0.76  4.48
