35
#
 C  1.23 -1.77  1.90
 C  0.72 -0.96  3.08
 O  1.41 -0.83  4.11
 H  2.18 -1.34  1.57
 H  0.53 -1.79  1.06
 H  1.43 -2.79  2.24
 N -0.50 -0.40  2.93
 C -1.24  0.28  3.98
 C -2.69 -0.21  3.87
 O -3.14 -0.58  2.78
 H -1.08 -0.65  2.13
 H -0.80 -0.02  4.94
 C -1.22  1.82  3.83
 C  0.16  2.49  3.91
 C  0.75  2.65  5.32
 N  1.05  1.38  5.96
 C  0.44  1.00  7.13
 N  0.54 -0.39  7.37
 N -0.21  1.84  7.87
 H -1.88  2.25  4.60
 H -1.68  2.05  2.86
 H  0.07  3.50  3.48
 H  0.87  1.96  3.27
 H  0.05  3.18  5.98
 H  1.66  3.27  5.26
 H  1.35  0.63  5.34
 H  0.56 -0.63  8.35
 H  1.26 -0.87  6.84
 H -0.60  1.37  8.69
 N -3.45 -0.16  5.00
 C -3.02  0.16  6.35
 H -4.41 -0.45  4.85
 H -2.70  1.21  6.46
 H -2.19 -0.48  6.68
 H -3.87  0.00  7.02
