35
#
 C -0.33 -0.01 -0.28
 C -0.18  0.12  1.22
 O  0.92  0.29  1.76
 H  0.61  0.31 -0.73
 H -1.15  0.58 -0.70
 H -0.51 -1.06 -0.55
 N -1.30  0.01  2.02
 C -2.72 -0.10  1.66
 C -2.97 -1.27  0.68
 O -3.47 -1.12 -0.44
 H -1.08  0.14  3.00
 H -3.23 -0.39  2.60
 C -3.33  1.22  1.18
 C -4.87  1.21  1.07
 C -5.37  1.97 -0.17
 N -4.79  1.41 -1.39
 C -3.98  2.19 -2.19
 N -3.17  1.42 -3.04
 N -3.98  3.47 -2.10
 H -2.89  1.49  0.22
 H -3.01  2.00  1.89
 H -5.33  1.66  1.96
 H -5.24  0.18  1.02
 H -5.08  3.03 -0.14
 H -6.47  1.92 -0.21
 H -4.46  0.44 -1.28
 H -2.86  1.91 -3.88
 H -3.52  0.49 -3.26
 H -3.34  3.89 -2.78
 N -2.62 -2.52  1.11
 C -2.01 -2.92  2.37
 H -2.78 -3.24  0.41
 H -2.16 -4.00  2.49
 H -2.50 -2.43  3.22
 H -0.94 -2.71  2.41
