35
#
 C  0.74  0.27  0.25
 C  0.44  0.32  1.73
 O  1.27  0.70  2.56
 H  1.75 -0.13  0.10
 H  0.72  1.30 -0.14
 H  0.03 -0.33 -0.32
 N -0.81 -0.09  2.10
 C -1.33  0.11  3.45
 C -1.05  1.57  3.90
 O -1.57  2.46  3.22
 H -1.49 -0.23  1.36
 H -2.42  0.16  3.33
 C -1.08 -1.10  4.39
 C  0.27 -1.81  4.29
 C  0.43 -2.89  5.36
 N  1.70 -3.58  5.19
 C  2.20 -4.49  6.11
 N  1.22 -5.16  6.84
 N  3.45 -4.75  6.35
 H -1.87 -1.84  4.17
 H -1.28 -0.78  5.42
 H  1.10 -1.09  4.37
 H  0.36 -2.27  3.29
 H -0.40 -3.61  5.27
 H  0.35 -2.43  6.36
 H  2.43 -3.00  4.78
 H  1.63 -5.93  7.36
 H  0.39 -5.43  6.33
 H  4.06 -4.10  5.85
 N -0.40  1.89  5.06
 C  0.68  1.20  5.75
 H -0.40  2.90  5.17
 H  0.33  0.31  6.29
 H  1.10  1.88  6.49
 H  1.48  0.91  5.05
