35
#
 C -1.47  1.13 -1.48
 C -1.52  1.40  0.01
 O -1.61  2.55  0.46
 H -0.62  1.68 -1.91
 H -2.38  1.52 -1.94
 H -1.36  0.07 -1.73
 N -1.48  0.30  0.81
 C -1.51  0.39  2.26
 C -0.73 -0.81  2.79
 O -0.79 -1.91  2.23
 H -1.38 -0.64  0.43
 H -1.01  1.33  2.54
 C -2.97  0.40  2.78
 C -3.13  0.68  4.28
 C -2.76  2.11  4.69
 N -3.64  3.12  4.09
 C -3.16  4.35  3.61
 N -1.97  4.25  2.89
 N -3.73  5.49  3.77
 H -3.42 -0.57  2.53
 H -3.51  1.17  2.22
 H -2.54 -0.03  4.88
 H -4.18  0.50  4.55
 H -1.74  2.37  4.40
 H -2.79  2.19  5.80
 H -4.52  3.23  4.58
 H -1.71  5.16  2.53
 H -1.93  3.54  2.16
 H -4.49  5.43  4.45
 N -0.00 -0.59  3.92
 C  0.75 -1.62  4.60
 H  0.03  0.36  4.28
 H  0.40 -1.75  5.64
 H  1.82 -1.40  4.61
 H  0.59 -2.56  4.06
