35
#
 C  1.05 -2.42  0.31
 C  1.38 -1.20  1.14
 O  2.51 -0.99  1.60
 H  1.73 -2.44 -0.56
 H  0.02 -2.44 -0.05
 H  1.25 -3.32  0.90
 N  0.35 -0.32  1.36
 C  0.53  0.86  2.19
 C  0.39  0.45  3.67
 O -0.70  0.33  4.23
 H -0.59 -0.60  1.11
 H  1.56  1.20  2.00
 C -0.44  1.98  1.80
 C -0.06  3.34  2.41
 C -0.59  3.61  3.83
 N -0.03  4.78  4.47
 C  1.20  4.82  5.12
 N  1.74  3.58  5.47
 N  1.82  5.89  5.51
 H -1.46  1.70  2.09
 H -0.42  2.06  0.70
 H -0.42  4.15  1.75
 H  1.04  3.45  2.41
 H -0.44  2.75  4.49
 H -1.69  3.74  3.79
 H -0.30  5.68  4.09
 H  2.67  3.69  5.84
 H  1.65  2.81  4.81
 H  1.28  6.73  5.30
 N  1.59  0.25  4.29
 C  1.66 -0.27  5.65
 H  2.38  0.08  3.67
 H  2.67 -0.11  6.04
 H  1.42 -1.34  5.70
 H  0.94  0.27  6.28
