35
#
 C  0.43  0.19  0.63
 C  0.30  0.48  2.11
 O  1.29  0.75  2.80
 H  1.50  0.20  0.37
 H -0.09  0.95  0.02
 H  0.01 -0.79  0.36
 N -0.95  0.43  2.66
 C -2.19  0.33  1.92
 C -2.72  1.60  1.21
 O -3.55  1.45  0.31
 H -0.97  0.72  3.66
 H -2.03 -0.35  1.07
 C -3.34 -0.30  2.74
 C -3.67  0.40  4.07
 C -3.04 -0.31  5.28
 N -2.82  0.52  6.46
 C -1.74  1.38  6.49
 N -1.66  2.13  7.66
 N -0.93  1.45  5.48
 H -3.09 -1.35  2.93
 H -4.22 -0.30  2.08
 H -4.76  0.45  4.21
 H -3.33  1.45  4.05
 H -2.06 -0.72  5.01
 H -3.66 -1.16  5.59
 H -3.63  0.81  6.99
 H -0.81  2.67  7.76
 H -1.90  1.63  8.52
 H -0.08  1.98  5.68
 N -2.29  2.85  1.54
 C -1.38  3.35  2.57
 H -2.72  3.55  0.94
 H -1.55  2.87  3.54
 H -1.56  4.42  2.68
 H -0.32  3.20  2.30
