35
#
 C -0.26 -0.24  0.04
 C -0.14 -0.03  1.54
 O  0.94  0.07  2.10
 H -1.27 -0.09 -0.36
 H  0.06 -1.26 -0.20
 H  0.43  0.45 -0.47
 N -1.34  0.05  2.20
 C -1.51  0.06  3.66
 C -0.65  1.13  4.39
 O -0.22  0.93  5.52
 H -2.18 -0.12  1.66
 H -2.55  0.40  3.82
 C -1.40 -1.31  4.34
 C -0.00 -1.96  4.36
 C  0.21 -2.82  5.60
 N  0.21 -2.00  6.81
 C -0.25 -2.43  8.03
 N -0.16 -3.82  8.21
 N -0.75 -1.58  8.87
 H -2.12 -1.99  3.86
 H -1.75 -1.17  5.37
 H  0.77 -1.18  4.34
 H  0.15 -2.57  3.46
 H  1.17 -3.36  5.49
 H -0.58 -3.59  5.67
 H  0.08 -1.00  6.66
 H -0.31 -4.11  9.17
 H  0.68 -4.26  7.82
 H -0.93 -2.02  9.77
 N -0.53  2.31  3.73
 C  0.32  3.38  4.24
 H -0.78  2.33  2.75
 H -0.09  4.35  3.94
 H  1.35  3.29  3.87
 H  0.34  3.31  5.33
