35
#
 C  1.28  0.88  3.15
 C  0.75 -0.05  2.08
 O  1.48 -0.86  1.51
 H  1.36  1.91  2.76
 H  2.28  0.54  3.43
 H  0.63  0.91  4.04
 N -0.58  0.02  1.76
 C -1.49  1.13  2.00
 C -2.87  0.80  2.60
 O -3.46  1.70  3.20
 H -0.79 -0.59  0.97
 H -1.03  1.74  2.79
 C -1.64  2.06  0.77
 C -2.34  1.49 -0.47
 C -1.55  0.49 -1.33
 N -0.23  1.00 -1.70
 C  0.76  0.15 -2.22
 N  0.94 -1.02 -1.50
 N  1.47  0.37 -3.28
 H -0.64  2.41  0.50
 H -2.21  2.94  1.12
 H -2.61  2.35 -1.11
 H -3.30  1.03 -0.20
 H -2.15  0.25 -2.22
 H -1.40 -0.47 -0.82
 H -0.29  1.85 -2.26
 H  1.70 -1.57 -1.91
 H  1.07 -0.93 -0.48
 H  1.11  1.19 -3.79
 N -3.45 -0.43  2.48
 C -3.03 -1.64  1.78
 H -4.35 -0.46  2.94
 H -3.85 -2.36  1.85
 H -2.14 -2.10  2.22
 H -2.86 -1.46  0.71
