35
#
 C  0.85 -0.84 -0.81
 C  0.68  0.12  0.35
 O  1.47  1.06  0.51
 H  1.83 -1.33 -0.72
 H  0.86 -0.26 -1.74
 H  0.07 -1.61 -0.88
 N -0.38 -0.13  1.16
 C -0.81  0.51  2.42
 C -1.05  2.04  2.46
 O -1.72  2.47  3.40
 H -0.95 -0.92  0.89
 H -1.84  0.14  2.55
 C -0.05 -0.02  3.66
 C  1.47  0.19  3.75
 C  1.94  1.47  4.45
 N  1.56  2.73  3.82
 C  2.42  3.49  3.05
 N  3.32  2.73  2.29
 N  2.33  4.78  3.09
 H -0.26 -1.10  3.70
 H -0.55  0.42  4.54
 H  1.93  0.12  2.76
 H  1.89 -0.65  4.33
 H  3.04  1.43  4.56
 H  1.53  1.48  5.47
 H  0.91  3.31  4.34
 H  3.90  3.30  1.69
 H  2.88  1.97  1.77
 H  2.90  5.21  2.36
 N -0.60  2.79  1.43
 C -0.78  4.24  1.43
 H  0.18  2.40  0.90
 H -0.73  4.61  0.40
 H -0.02  4.74  2.04
 H -1.77  4.47  1.85
