35
#
 C  0.19  0.11  0.25
 C -0.08  0.73  1.61
 O  0.65  1.60  2.08
 H -0.54 -0.66 -0.03
 H  1.19 -0.33  0.26
 H  0.19  0.90 -0.51
 N -1.18  0.26  2.27
 C -1.58  0.81  3.57
 C -2.34 -0.29  4.33
 O -3.57 -0.27  4.44
 H -1.81 -0.38  1.80
 H -0.64  1.01  4.10
 C -2.40  2.10  3.42
 C -2.22  3.11  4.57
 C -0.93  3.95  4.49
 N  0.32  3.21  4.68
 C  0.64  2.60  5.87
 N  0.26  3.32  7.01
 N  1.21  1.44  5.86
 H -3.46  1.82  3.34
 H -2.11  2.59  2.48
 H -2.27  2.60  5.54
 H -3.07  3.81  4.55
 H -0.99  4.77  5.22
 H -0.86  4.42  3.50
 H  0.61  2.65  3.87
 H  0.66  2.96  7.88
 H  0.33  4.33  6.94
 H  1.53  1.18  6.80
 N -1.59 -1.29  4.85
 C -0.15 -1.48  4.76
 H -2.14 -2.03  5.29
 H  0.16 -2.19  5.54
 H  0.39 -0.54  4.94
 H  0.16 -1.89  3.78
