35
#
 C -0.82  0.47 -0.20
 C -0.90  0.07  1.27
 O -0.05  0.41  2.09
 H -1.69  1.06 -0.50
 H -0.76 -0.41 -0.85
 H  0.08  1.08 -0.33
 N -1.97 -0.69  1.66
 C -3.02 -1.27  0.82
 C -4.36 -1.24  1.60
 O -5.02 -2.25  1.85
 H -1.93 -0.98  2.63
 H -3.16 -0.59 -0.03
 C -2.69 -2.67  0.24
 C -1.82 -3.60  1.10
 C -2.46 -4.13  2.40
 N -3.71 -4.84  2.23
 C -3.77 -6.13  1.72
 N -5.08 -6.52  1.41
 N -2.81 -6.96  1.52
 H -2.15 -2.50 -0.70
 H -3.63 -3.16 -0.02
 H -0.87 -3.10  1.36
 H -1.55 -4.46  0.47
 H -2.66 -3.31  3.10
 H -1.74 -4.79  2.91
 H -4.50 -4.22  2.01
 H -5.13 -7.52  1.24
 H -5.79 -6.20  2.07
 H -1.90 -6.53  1.68
 N -4.81 -0.01  1.99
 C -4.24  1.31  1.73
 H -5.68 -0.06  2.51
 H -5.03  2.05  1.90
 H -3.92  1.40  0.69
 H -3.39  1.54  2.39
