35
#
 C -1.69  0.11  1.59
 C -0.24  0.55  1.58
 O  0.34  0.95  0.57
 H -2.16  0.21  2.57
 H -1.74 -0.94  1.28
 H -2.24  0.71  0.85
 N  0.40  0.48  2.81
 C  1.84  0.63  2.90
 C  2.32 -0.37  3.97
 O  1.52 -0.93  4.73
 H -0.00 -0.09  3.55
 H  2.27  0.36  1.92
 C  2.27  2.08  3.22
 C  1.83  2.61  4.60
 C  0.85  3.79  4.55
 N -0.43  3.36  4.00
 C -1.38  4.25  3.49
 N -1.34  5.51  4.07
 N -2.24  4.01  2.57
 H  1.86  2.71  2.41
 H  3.36  2.15  3.12
 H  2.71  2.93  5.17
 H  1.37  1.80  5.20
 H  1.29  4.61  3.95
 H  0.72  4.17  5.57
 H -0.40  2.47  3.51
 H -2.15  6.06  3.79
 H -1.18  5.54  5.08
 H -2.06  3.11  2.11
 N  3.66 -0.55  4.03
 C  4.30 -1.42  5.00
 H  4.24 -0.08  3.34
 H  3.52 -1.83  5.65
 H  5.02 -0.86  5.61
 H  4.82 -2.25  4.51
