35
#
 C  0.52  1.39  0.30
 C  0.16  1.37  1.77
 O  0.34  2.34  2.51
 H  1.59  1.64  0.20
 H -0.04  2.20 -0.19
 H  0.32  0.45 -0.22
 N -0.38  0.20  2.23
 C -0.75  0.01  3.62
 C -0.42 -1.45  3.96
 O -0.71 -2.37  3.20
 H -0.48 -0.60  1.62
 H -0.13  0.71  4.21
 C -2.24  0.35  3.85
 C -2.74  0.20  5.30
 C -3.28 -1.20  5.63
 N -3.74 -1.35  7.01
 C -4.85 -0.66  7.52
 N -5.87 -0.46  6.60
 N -4.99 -0.22  8.73
 H -2.84 -0.27  3.17
 H -2.36  1.39  3.52
 H -3.55  0.93  5.47
 H -1.94  0.47  6.01
 H -2.52 -1.97  5.47
 H -4.10 -1.44  4.95
 H -2.99 -1.40  7.70
 H -6.71 -0.11  7.07
 H -6.07 -1.25  5.99
 H -4.12 -0.29  9.26
 N  0.18 -1.63  5.17
 C  0.51 -2.95  5.70
 H  0.42 -0.81  5.71
 H -0.02 -3.14  6.64
 H  1.59 -3.04  5.87
 H  0.20 -3.69  4.95
