35
#
 C  0.26 -0.78  0.47
 C  0.21 -0.32  1.91
 O  1.23 -0.14  2.58
 H  1.29 -1.06  0.23
 H -0.07  0.01 -0.22
 H -0.40 -1.64  0.29
 N -1.03 -0.09  2.45
 C -2.32 -0.08  1.78
 C -2.49  1.02  0.70
 O -2.98  0.71 -0.39
 H -0.99  0.24  3.41
 H -2.43 -1.00  1.20
 C -3.44 -0.04  2.83
 C -4.85  0.05  2.25
 C -5.93 -0.02  3.34
 N -7.26  0.26  2.84
 C -7.73  1.56  2.70
 N -9.06  1.60  2.28
 N -7.10  2.67  2.93
 H -3.28  0.81  3.51
 H -3.34 -0.95  3.45
 H -5.02 -0.76  1.52
 H -4.97  0.99  1.69
 H -5.67  0.67  4.17
 H -5.94 -1.03  3.78
 H -7.97 -0.43  3.05
 H -9.34  2.56  2.07
 H -9.28  0.96  1.52
 H -6.19  2.50  3.36
 N -2.12  2.31  0.97
 C -1.53  2.90  2.16
 H -2.28  2.92  0.17
 H -2.08  2.63  3.07
 H -1.59  3.99  2.06
 H -0.48  2.62  2.29
