35
#
 C -0.58  0.19 -0.17
 C -0.34  0.21  1.32
 O  0.78  0.49  1.78
 H  0.07 -0.57 -0.62
 H -0.30  1.16 -0.59
 H -1.62 -0.03 -0.45
 N -1.41 -0.09  2.10
 C -1.42 -0.25  3.57
 C -1.30  1.06  4.38
 O -1.95  1.16  5.43
 H -2.29 -0.25  1.63
 H -2.45 -0.57  3.81
 C -0.46 -1.39  3.99
 C -0.25 -1.60  5.50
 C  1.12 -1.13  6.00
 N  1.31  0.31  5.92
 C  2.40  0.94  5.35
 N  2.90  0.32  4.20
 N  2.86  2.01  5.91
 H  0.51 -1.21  3.51
 H -0.86 -2.30  3.53
 H -0.34 -2.67  5.73
 H -1.04 -1.10  6.07
 H  1.92 -1.61  5.41
 H  1.26 -1.47  7.05
 H  0.96  0.85  6.71
 H  3.67  0.83  3.78
 H  2.19  0.10  3.49
 H  3.54  2.48  5.31
 N -0.50  2.03  3.88
 C -0.27  3.27  4.60
 H  0.14  1.76  3.13
 H -0.16  4.10  3.89
 H  0.64  3.21  5.22
 H -1.13  3.46  5.25
