35
#
 C  1.21 -1.00  0.71
 C  0.62 -0.37  1.96
 O  1.27 -0.25  3.00
 H  2.12 -0.45  0.44
 H  0.53 -0.99 -0.15
 H  1.50 -2.03  0.93
 N -0.68  0.06  1.85
 C -1.42  0.52  3.02
 C -2.94  0.39  2.83
 O -3.62 -0.10  3.74
 H -1.20 -0.24  1.04
 H -1.18 -0.16  3.86
 C -1.02  1.95  3.47
 C -1.49  2.31  4.90
 C -2.66  3.30  5.00
 N -3.91  2.81  4.45
 C -4.58  3.39  3.40
 N -5.70  2.64  2.99
 N -4.31  4.47  2.74
 H -1.39  2.69  2.75
 H  0.07  1.97  3.44
 H -0.65  2.76  5.45
 H -1.74  1.39  5.46
 H -2.39  4.23  4.49
 H -2.80  3.57  6.06
 H -4.10  1.82  4.60
 H -6.31  3.21  2.41
 H -6.20  2.19  3.75
 H -3.44  4.90  3.05
 N -3.52  0.83  1.68
 C -3.02  1.77  0.69
 H -4.54  0.84  1.79
 H -3.33  1.45 -0.32
 H -1.93  1.82  0.71
 H -3.41  2.78  0.88
