35
#
 C -1.24 -1.26  1.04
 C -1.11 -0.29  2.19
 O -0.26 -0.44  3.06
 H -0.25 -1.70  0.86
 H -1.62 -0.83  0.11
 H -1.92 -2.07  1.33
 N -2.01  0.75  2.31
 C -3.00  1.30  1.38
 C -3.85  0.24  0.65
 O -3.96  0.22 -0.57
 H -1.81  1.31  3.13
 H -3.72  1.83  2.03
 C -2.43  2.37  0.42
 C -1.26  1.93 -0.47
 C -0.72  3.10 -1.30
 N  0.39  2.75 -2.17
 C  1.73  3.00 -1.90
 N  2.02  3.22 -0.55
 N  2.69  3.08 -2.76
 H -2.11  3.22  1.04
 H -3.26  2.72 -0.21
 H -1.58  1.13 -1.15
 H -0.44  1.53  0.15
 H -0.41  3.93 -0.64
 H -1.53  3.50 -1.93
 H  0.18  2.61 -3.15
 H  3.02  3.28 -0.42
 H  1.59  2.56  0.10
 H  2.33  3.06 -3.72
 N -4.53 -0.65  1.43
 C -4.59 -0.76  2.88
 H -5.07 -1.32  0.89
 H -5.50 -1.30  3.15
 H -4.65  0.23  3.35
 H -3.72 -1.29  3.31
