35
#
 C  0.40  0.68  0.49
 C -0.11 -0.73  0.73
 O  0.51 -1.72  0.35
 H  0.51  1.24  1.43
 H -0.27  1.25 -0.17
 H  1.38  0.60  0.01
 N -1.32 -0.85  1.37
 C -2.06  0.20  2.03
 C -1.46  0.53  3.42
 O -0.84 -0.31  4.06
 H -1.48 -1.80  1.70
 H -2.04  1.09  1.39
 C -3.53 -0.24  2.24
 C -4.30 -0.67  0.99
 C -4.60  0.43 -0.05
 N -3.49  0.78 -0.92
 C -2.88  2.01 -0.92
 N -1.91  2.13 -1.92
 N -3.17  2.90 -0.02
 H -4.07  0.59  2.73
 H -3.53 -1.07  2.96
 H -5.27 -1.07  1.32
 H -3.78 -1.51  0.49
 H -4.91  1.36  0.44
 H -5.44  0.09 -0.68
 H -2.98  0.02 -1.37
 H -1.54  3.07 -2.03
 H -2.14  1.70 -2.81
 H -2.72  3.79 -0.24
 N -1.64  1.80  3.91
 C -2.45  2.88  3.37
 H -1.28  1.90  4.85
 H -1.93  3.84  3.52
 H -3.43  2.95  3.87
 H -2.63  2.76  2.30
