35
#
 C -0.51 -0.53  0.08
 C -0.52 -0.34  1.59
 O  0.49 -0.48  2.27
 H  0.18  0.20 -0.36
 H -1.50 -0.41 -0.39
 H -0.12 -1.53 -0.15
 N -1.73 -0.02  2.14
 C -1.89  0.27  3.55
 C -1.77 -0.89  4.56
 O -1.42 -0.61  5.71
 H -2.53  0.10  1.53
 H -1.03  0.90  3.84
 C -3.21  1.04  3.81
 C -3.04  2.56  3.96
 C -2.13  2.96  5.15
 N -2.36  2.23  6.40
 C -3.59  2.23  7.05
 N -4.31  3.43  6.94
 N -4.11  1.25  7.71
 H -3.69  0.65  4.71
 H -3.92  0.83  2.99
 H -4.03  3.00  4.11
 H -2.63  3.00  3.04
 H -2.22  4.04  5.31
 H -1.07  2.78  4.89
 H -1.92  1.31  6.41
 H -5.09  3.43  7.59
 H -3.74  4.27  7.03
 H -3.54  0.41  7.60
 N -2.09 -2.17  4.23
 C -2.60 -2.73  2.99
 H -1.95 -2.81  5.00
 H -3.00 -3.73  3.21
 H -1.83 -2.84  2.22
 H -3.43 -2.14  2.58
