35
#
 C -1.58 -0.27  0.09
 C -1.56 -0.39  1.60
 O -1.42  0.59  2.33
 H -0.57 -0.04 -0.26
 H -2.23  0.57 -0.19
 H -1.93 -1.18 -0.42
 N -1.71 -1.66  2.09
 C -1.57 -2.05  3.49
 C -2.11 -1.00  4.50
 O -1.43 -0.62  5.45
 H -1.77 -2.41  1.42
 H -2.22 -2.93  3.62
 C -0.14 -2.49  3.85
 C  0.96 -1.46  3.57
 C  2.33 -1.97  4.01
 N  3.34 -0.95  3.77
 C  4.68 -1.28  3.76
 N  5.53 -0.18  3.57
 N  5.06 -2.51  3.84
 H  0.07 -3.42  3.29
 H -0.13 -2.75  4.92
 H  0.71 -0.53  4.09
 H  1.00 -1.23  2.49
 H  2.63 -2.86  3.46
 H  2.30 -2.25  5.08
 H  3.10 -0.01  4.07
 H  6.45 -0.29  3.97
 H  5.14  0.74  3.76
 H  6.07 -2.59  3.70
 N -3.43 -0.65  4.40
 C -4.39 -0.94  3.35
 H -3.68  0.07  5.07
 H -5.40 -0.80  3.75
 H -4.31 -1.98  3.01
 H -4.27 -0.28  2.47
