35
#
 C  0.76  0.89 -0.10
 C  1.25  0.72  1.32
 O  2.46  0.71  1.60
 H  1.42  0.36 -0.78
 H  0.80  1.97 -0.33
 H -0.28  0.55 -0.24
 N  0.29  0.62  2.28
 C  0.61  0.78  3.70
 C  1.02 -0.58  4.35
 O  0.31 -1.15  5.17
 H -0.68  0.69  2.01
 H  1.50  1.43  3.73
 C -0.55  1.43  4.46
 C -0.08  2.29  5.64
 C  0.08  3.79  5.32
 N  0.96  4.10  4.19
 C  0.55  4.21  2.86
 N -0.76  4.65  2.69
 N  1.26  3.96  1.81
 H -1.20  0.62  4.83
 H -1.14  2.05  3.77
 H  0.87  1.89  6.05
 H -0.80  2.22  6.47
 H  0.46  4.32  6.20
 H -0.90  4.21  5.10
 H  1.91  3.77  4.28
 H -0.92  4.87  1.71
 H -1.05  5.41  3.30
 H  2.15  3.51  2.05
 N  2.22 -1.02  3.90
 C  2.77 -2.31  4.29
 H  2.65 -0.49  3.14
 H  3.83 -2.21  4.56
 H  2.68 -3.05  3.47
 H  2.21 -2.68  5.15
