35
#
 C  0.05  0.01 -0.18
 C  0.07 -0.12  1.33
 O  1.09 -0.41  1.95
 H  0.83  0.72 -0.49
 H -0.91  0.35 -0.59
 H  0.30 -0.96 -0.62
 N -1.13  0.11  1.96
 C -1.29 -0.10  3.40
 C -2.74 -0.52  3.68
 O -3.04 -1.68  3.97
 H -1.95  0.26  1.39
 H -0.67 -0.97  3.67
 C -0.81  1.11  4.21
 C -0.88  0.88  5.72
 C -0.35  2.08  6.53
 N -0.39  1.88  7.97
 C  0.70  1.58  8.77
 N  1.79  1.04  8.09
 N  0.80  1.78 10.04
 H -1.38  2.02  3.93
 H  0.23  1.31  3.92
 H -0.31 -0.02  5.98
 H -1.92  0.68  6.04
 H -0.93  2.98  6.28
 H  0.69  2.29  6.23
 H -1.16  2.30  8.46
 H  2.50  0.74  8.74
 H  1.57  0.32  7.40
 H  0.01  2.32 10.40
 N -3.67  0.48  3.54
 C -5.08  0.27  3.79
 H -3.33  1.43  3.44
 H -5.69  0.75  3.02
 H -5.38  0.65  4.78
 H -5.27 -0.81  3.77
