35
#
 C  1.33  1.26  1.43
 C  0.60  0.17  2.17
 O  1.00 -1.01  2.13
 H  1.17  1.13  0.35
 H  2.41  1.16  1.62
 H  1.00  2.27  1.71
 N -0.50  0.55  2.86
 C -1.23 -0.35  3.75
 C -2.25 -1.23  2.97
 O -3.47 -1.12  3.11
 H -0.74  1.55  2.92
 H -0.49 -1.03  4.21
 C -1.94  0.48  4.82
 C -0.97  1.31  5.68
 C -1.46  2.76  5.95
 N -0.57  3.82  5.52
 C -0.42  4.17  4.20
 N  0.42  5.27  4.02
 N -1.00  3.49  3.25
 H -2.55 -0.20  5.44
 H -2.66  1.14  4.31
 H  0.01  1.38  5.18
 H -0.78  0.80  6.64
 H -1.64  2.92  7.02
 H -2.42  2.91  5.43
 H  0.19  4.08  6.14
 H  0.30  6.03  4.69
 H  0.48  5.60  3.06
 H -0.94  3.98  2.36
 N -1.64 -2.13  2.15
 C -2.38 -3.00  1.26
 H -0.62 -2.06  2.07
 H -2.25 -2.72  0.21
 H -3.45 -2.92  1.52
 H -2.06 -4.05  1.39
