35
#
 C  0.20  0.02  0.67
 C -0.10  0.10  2.15
 O  0.79  0.11  3.00
 H -0.20  0.88  0.12
 H -0.22 -0.89  0.22
 H  1.29 -0.00  0.55
 N -1.42  0.19  2.52
 C -2.61  0.05  1.68
 C -3.71  0.98  2.26
 O -4.73  0.54  2.77
 H -1.55  0.19  3.53
 H -2.35  0.44  0.69
 C -3.12 -1.39  1.50
 C -3.19 -2.27  2.76
 C -1.89 -3.03  3.07
 N -2.02 -3.99  4.15
 C -2.59 -5.23  3.94
 N -2.76 -5.95  5.13
 N -2.94 -5.60  2.75
 H -2.47 -1.89  0.76
 H -4.11 -1.32  1.04
 H -3.98 -3.02  2.60
 H -3.51 -1.67  3.63
 H -1.07 -2.35  3.32
 H -1.59 -3.60  2.18
 H -2.17 -3.60  5.08
 H -3.03 -6.92  4.98
 H -1.99 -5.88  5.79
 H -3.24 -6.58  2.75
 N -3.47  2.32  2.18
 C -2.32  3.02  1.61
 H -4.20  2.88  2.61
 H -1.42  2.93  2.23
 H -2.58  4.08  1.51
 H -2.09  2.64  0.60
