35
#
 C -0.19  0.52  0.08
 C -0.13  0.22  1.57
 O  0.95  0.15  2.15
 H -0.75 -0.22 -0.48
 H  0.84  0.54 -0.28
 H -0.64  1.51 -0.10
 N -1.29  0.04  2.30
 C -2.73 -0.05  2.05
 C -3.30 -1.41  2.53
 O -4.27 -1.42  3.29
 H -1.05 -0.11  3.28
 H -3.22  0.66  2.73
 C -3.23  0.29  0.64
 C -4.76  0.44  0.59
 C -5.29  0.66 -0.84
 N -4.67  1.74 -1.60
 C -4.63  3.07 -1.16
 N -5.75  3.46 -0.44
 N -3.68  3.92 -1.37
 H -2.77  1.24  0.33
 H -2.92 -0.48 -0.09
 H -5.25 -0.44  1.01
 H -5.05  1.29  1.22
 H -6.38  0.81 -0.79
 H -5.14 -0.25 -1.44
 H -3.81  1.48 -2.08
 H -6.64  3.11 -0.77
 H -5.75  4.47 -0.29
 H -2.86  3.47 -1.79
 N -2.74 -2.58  2.10
 C -1.58 -2.82  1.25
 H -3.19 -3.39  2.52
 H -0.63 -2.60  1.75
 H -1.59 -3.88  0.97
 H -1.63 -2.24  0.32
