35
#
 C  1.11 -0.26  0.66
 C  0.70  0.68  1.78
 O  1.07  1.86  1.81
 H  0.69  0.11 -0.28
 H  0.79 -1.29  0.81
 H  2.21 -0.23  0.56
 N -0.10  0.14  2.73
 C -0.59  0.91  3.86
 C -0.84 -0.09  5.00
 O -1.25 -1.22  4.78
 H -0.39 -0.84  2.70
 H  0.19  1.64  4.12
 C -1.88  1.68  3.49
 C -2.33  2.71  4.53
 C -3.46  3.62  4.02
 N -3.10  4.40  2.86
 C -3.48  4.10  1.56
 N -2.98  5.04  0.64
 N -4.21  3.13  1.13
 H -2.68  0.95  3.28
 H -1.67  2.20  2.54
 H -1.48  3.34  4.81
 H -2.68  2.21  5.45
 H -3.76  4.31  4.82
 H -4.35  3.02  3.79
 H -2.81  5.36  3.02
 H -3.18  4.74 -0.31
 H -1.99  5.25  0.76
 H -4.61  2.59  1.90
 N -0.60  0.40  6.25
 C -0.84 -0.37  7.46
 H -0.23  1.34  6.33
 H -1.59  0.13  8.10
 H  0.08 -0.51  8.03
 H -1.23 -1.35  7.15
