35
#
 C  0.08 -0.43  0.12
 C  0.09 -0.02  1.59
 O  1.14  0.12  2.21
 H  1.07 -0.21 -0.29
 H -0.69  0.07 -0.47
 H -0.09 -1.51  0.04
 N -1.12  0.18  2.20
 C -2.46  0.10  1.65
 C -3.37  0.92  2.60
 O -2.97  1.31  3.70
 H -1.09  0.53  3.16
 H -2.49  0.61  0.67
 C -2.97 -1.35  1.43
 C -2.91 -2.29  2.64
 C -3.93 -1.99  3.74
 N -4.02 -3.08  4.71
 C -4.88 -4.14  4.48
 N -4.95 -5.01  5.58
 N -5.53 -4.22  3.37
 H -2.37 -1.78  0.62
 H -4.00 -1.32  1.04
 H -1.89 -2.28  3.06
 H -3.10 -3.31  2.28
 H -4.92 -1.83  3.29
 H -3.65 -1.08  4.30
 H -3.90 -2.83  5.68
 H -5.42 -5.89  5.37
 H -4.06 -5.17  6.05
 H -6.06 -5.10  3.32
 N -4.62  1.15  2.13
 C -5.65  1.79  2.94
 H -4.89  0.74  1.24
 H -6.20  2.52  2.34
 H -5.16  2.30  3.77
 H -6.36  1.05  3.34
