35
#
 C -0.76 -0.08 -0.80
 C -0.08 -0.05  0.55
 O  1.13 -0.24  0.65
 H -1.71  0.45 -0.85
 H -0.96 -1.13 -1.05
 H -0.07  0.33 -1.54
 N -0.83  0.16  1.69
 C -2.23  0.47  1.91
 C -3.18 -0.41  1.06
 O -2.93 -1.60  0.88
 H -0.25  0.08  2.52
 H -2.45  0.08  2.92
 C -2.49  2.00  2.03
 C -2.07  2.93  0.87
 C -2.97  2.97 -0.36
 N -4.35  3.27  0.00
 C -5.39  3.18 -0.93
 N -6.56  3.81 -0.50
 N -5.40  2.52 -2.03
 H -1.92  2.32  2.91
 H -3.54  2.17  2.30
 H -1.05  2.67  0.55
 H -2.00  3.95  1.28
 H -2.97  2.00 -0.87
 H -2.57  3.70 -1.08
 H -4.46  4.00  0.70
 H -7.26  3.82 -1.24
 H -6.45  4.72 -0.06
 H -4.52  2.03 -2.19
 N -4.32  0.17  0.61
 C -5.34 -0.58 -0.10
 H -4.48  1.17  0.76
 H -5.92  0.10 -0.72
 H -6.01 -1.11  0.59
 H -4.85 -1.33 -0.74
