35
#
 C  0.25  0.36  0.45
 C -0.06  0.11  1.92
 O  0.82 -0.12  2.75
 H  0.91  1.23  0.38
 H -0.64  0.53 -0.16
 H  0.80 -0.51  0.06
 N -1.38  0.16  2.25
 C -1.85 -0.06  3.61
 C -3.24 -0.70  3.49
 O -4.06 -0.22  2.69
 H -2.10  0.35  1.56
 H -1.12 -0.72  4.09
 C -1.94  1.28  4.38
 C -2.21  1.18  5.89
 C -1.01  0.65  6.69
 N -1.15  0.78  8.13
 C -1.89 -0.12  8.87
 N -2.02  0.26 10.21
 N -2.41 -1.17  8.32
 H -2.72  1.89  3.90
 H -0.98  1.80  4.21
 H -3.09  0.57  6.09
 H -2.44  2.19  6.25
 H -0.10  1.19  6.40
 H -0.83 -0.41  6.48
 H -1.15  1.72  8.49
 H -2.42 -0.45 10.81
 H -1.18  0.67 10.62
 H -2.82 -1.79  9.03
 N -3.54 -1.77  4.26
 C -2.69 -2.50  5.19
 H -4.50 -2.09  4.14
 H -1.69 -2.65  4.77
 H -3.13 -3.50  5.33
 H -2.60 -2.02  6.18
