35
#
 C  0.24 -0.33  0.67
 C  0.44  0.41  1.98
 O  1.47  0.24  2.65
 H  1.19 -0.82  0.41
 H -0.06  0.34 -0.14
 H -0.53 -1.11  0.77
 N -0.53  1.27  2.40
 C -1.93  1.24  2.00
 C -2.52  2.67  2.07
 O -3.50  2.94  2.76
 H -0.40  1.62  3.36
 H -1.99  0.94  0.94
 C -2.76  0.23  2.81
 C -2.84  0.38  4.34
 C -1.54  0.28  5.16
 N -0.82  1.58  5.20
 C  0.38  1.67  5.95
 N  1.33  0.73  5.58
 N  0.44  2.57  6.86
 H -2.35 -0.77  2.57
 H -3.79  0.25  2.42
 H -3.49 -0.43  4.70
 H -3.35  1.32  4.59
 H -0.86 -0.48  4.74
 H -1.78 -0.05  6.18
 H -1.43  2.32  5.54
 H  2.23  0.86  6.03
 H  1.40  0.51  4.58
 H  1.39  2.65  7.25
 N -1.91  3.63  1.31
 C -0.80  3.50  0.38
 H -2.33  4.55  1.42
 H -0.93  2.63 -0.28
 H  0.17  3.40  0.89
 H -0.78  4.39 -0.26
