35
#
 C  0.13  0.20 -0.07
 C  0.09  0.11  1.44
 O  1.11  0.07  2.13
 H  0.76 -0.61 -0.45
 H  0.60  1.15 -0.36
 H -0.86  0.13 -0.54
 N -1.16  0.10  2.00
 C -1.36 -0.03  3.42
 C -2.78 -0.59  3.62
 O -3.62 -0.57  2.71
 H -2.00  0.04  1.43
 H -0.62 -0.74  3.81
 C -1.17  1.31  4.18
 C -2.14  2.42  3.75
 C -1.83  3.75  4.44
 N -2.65  4.87  4.01
 C -2.40  5.53  2.81
 N -3.41  6.45  2.49
 N -1.41  5.39  2.00
 H -0.13  1.63  3.99
 H -1.25  1.13  5.26
 H -3.18  2.12  3.98
 H -2.09  2.55  2.66
 H -0.78  4.02  4.29
 H -1.96  3.65  5.53
 H -3.63  4.81  4.25
 H -3.15  7.01  1.69
 H -3.71  7.03  3.28
 H -0.81  4.61  2.26
 N -3.04 -1.07  4.86
 C -4.33 -1.61  5.25
 H -2.28 -1.10  5.53
 H -4.73 -1.08  6.12
 H -4.27 -2.68  5.48
 H -5.01 -1.47  4.40
