35
#
 C  0.63 -0.05  0.69
 C -0.08 -0.08  2.02
 O  0.53 -0.03  3.08
 H  0.22 -0.76 -0.04
 H  1.69 -0.28  0.87
 H  0.57  0.95  0.24
 N -1.46 -0.19  2.04
 C -2.49 -0.12  1.00
 C -2.74 -1.46  0.26
 O -3.62 -1.54 -0.60
 H -1.80 -0.14  3.00
 H -3.42  0.00  1.57
 C -2.42  1.11  0.05
 C -1.86  0.95 -1.38
 C -2.91  0.86 -2.51
 N -3.93  1.89 -2.47
 C -5.21  1.79 -1.94
 N -5.61  0.52 -1.59
 N -6.05  2.77 -1.82
 H -1.84  1.87  0.59
 H -3.42  1.54 -0.03
 H -1.21  0.07 -1.47
 H -1.21  1.81 -1.59
 H -3.41 -0.12 -2.48
 H -2.39  0.91 -3.47
 H -3.63  2.84 -2.66
 H -6.51  0.53 -1.12
 H -4.94 -0.15 -1.22
 H -5.66  3.64 -2.22
 N -1.97 -2.50  0.65
 C -2.13 -3.84  0.11
 H -1.34 -2.34  1.43
 H -1.17 -4.23 -0.24
 H -2.83 -3.79 -0.73
 H -2.53 -4.53  0.87
