35
#
 C -0.07 -0.60  0.01
 C -0.15 -0.51  1.52
 O  0.69 -1.03  2.25
 H  0.90 -0.22 -0.31
 H -0.86 -0.04 -0.50
 H -0.13 -1.65 -0.28
 N -1.21  0.22  2.02
 C -1.47  0.32  3.44
 C -2.63 -0.65  3.77
 O -3.78 -0.39  3.39
 H -1.95  0.50  1.38
 H -0.54  0.02  3.94
 C -1.81  1.77  3.83
 C -1.77  2.06  5.34
 C -2.90  1.41  6.15
 N -2.81  1.79  7.55
 C -3.46  1.15  8.59
 N -4.10 -0.04  8.24
 N -3.46  1.51  9.83
 H -2.80  2.03  3.42
 H -1.08  2.42  3.33
 H -1.83  3.15  5.48
 H -0.80  1.74  5.76
 H -2.81  0.31  6.11
 H -3.87  1.67  5.70
 H -2.56  2.76  7.74
 H -4.63 -0.40  9.03
 H -4.64 -0.02  7.38
 H -2.85  2.32  9.99
 N -2.33 -1.79  4.44
 C -1.05 -2.21  4.99
 H -3.14 -2.38  4.61
 H -1.10 -3.29  5.19
 H -0.82 -1.70  5.94
 H -0.23 -2.04  4.27
