35
#
 C  0.44  0.48 -0.38
 C  0.38  0.57  1.13
 O  1.37  0.38  1.83
 H  1.38 -0.01 -0.64
 H  0.44  1.49 -0.81
 H -0.40 -0.10 -0.79
 N -0.78  1.02  1.76
 C -2.18  0.98  1.34
 C -2.67 -0.48  1.11
 O -1.94 -1.35  0.66
 H -0.65  0.96  2.77
 H -2.74  1.39  2.20
 C -2.56  1.86  0.13
 C -2.55  3.38  0.37
 C -1.30  4.15 -0.08
 N -0.16  3.93  0.81
 C  1.14  4.29  0.45
 N  1.21  5.38 -0.42
 N  2.23  3.72  0.83
 H -3.57  1.56 -0.17
 H -1.92  1.60 -0.73
 H -2.74  3.60  1.43
 H -3.39  3.82 -0.18
 H -1.55  5.22 -0.10
 H -1.06  3.87 -1.12
 H -0.20  3.05  1.33
 H  2.17  5.70 -0.51
 H  0.56  6.14 -0.23
 H  2.07  2.86  1.35
 N -3.98 -0.73  1.41
 C -4.96  0.15  2.04
 H -4.26 -1.69  1.22
 H -5.91 -0.39  2.12
 H -5.14  1.06  1.46
 H -4.66  0.44  3.06
