35
#
 C  1.02  0.10  0.54
 C  0.53 -0.07  1.96
 O  1.29 -0.00  2.92
 H  1.95  0.67  0.57
 H  0.32  0.58 -0.15
 H  1.25 -0.89  0.12
 N -0.81 -0.39  2.17
 C -1.95 -0.20  1.27
 C -1.89 -1.15  0.04
 O -2.42 -0.87 -1.03
 H -1.02 -0.41  3.16
 H -2.82 -0.57  1.84
 C -2.22  1.29  0.95
 C -3.60  1.65  0.37
 C -3.63  1.98 -1.14
 N -2.72  3.04 -1.54
 C -1.43  2.81 -2.01
 N -0.70  4.00 -2.13
 N -0.87  1.69 -2.30
 H -1.42  1.68  0.31
 H -2.10  1.80  1.92
 H -3.99  2.52  0.91
 H -4.32  0.84  0.55
 H -4.65  2.28 -1.41
 H -3.39  1.08 -1.72
 H -2.85  3.93 -1.08
 H  0.17  3.82 -2.62
 H -1.21  4.76 -2.56
 H -1.46  0.88 -2.06
 N -1.28 -2.34  0.29
 C -1.14 -3.37 -0.71
 H -0.82 -2.43  1.19
 H -1.53 -4.33 -0.35
 H -0.08 -3.51 -0.99
 H -1.70 -3.06 -1.60
