35
#
 C  0.24  1.13  0.14
 C  0.28  1.05  1.65
 O  1.30  1.30  2.29
 H  1.26  1.17 -0.24
 H -0.28  2.05 -0.18
 H -0.29  0.28 -0.32
 N -0.87  0.66  2.30
 C -2.22  0.82  1.79
 C -2.58  2.31  1.54
 O -2.05  3.23  2.17
 H -0.81  0.84  3.31
 H -2.29  0.30  0.82
 C -3.26  0.15  2.74
 C -3.02  0.20  4.26
 C -2.79  1.57  4.92
 N -1.43  2.05  4.82
 C -0.43  1.75  5.74
 N  0.81  2.24  5.34
 N -0.55  1.11  6.85
 H -3.33 -0.91  2.45
 H -4.24  0.59  2.52
 H -2.18 -0.46  4.53
 H -3.91 -0.27  4.72
 H -3.08  1.50  5.98
 H -3.45  2.33  4.48
 H -1.27  2.81  4.17
 H  1.54  1.92  5.97
 H  1.05  2.07  4.36
 H -1.53  0.92  7.08
 N -3.52  2.56  0.59
 C -4.16  1.62 -0.32
 H -3.72  3.55  0.47
 H -4.73  0.84  0.21
 H -3.44  1.13 -0.99
 H -4.87  2.17 -0.94
