35
#
 C -0.68  2.27  0.93
 C -0.61  1.37  2.14
 O  0.42  1.25  2.81
 H -0.57  3.31  1.26
 H -1.62  2.17  0.36
 H  0.17  2.04  0.27
 N -1.77  0.72  2.47
 C -1.90 -0.09  3.68
 C -3.11 -1.03  3.47
 O -4.19 -0.83  4.01
 H -2.61  0.96  1.96
 H -0.98 -0.69  3.74
 C -2.02  0.70  5.00
 C -2.92  1.96  4.97
 C -2.17  3.25  5.31
 N -1.10  3.49  4.37
 C -0.47  4.72  4.23
 N  0.62  4.66  3.35
 N -0.82  5.87  4.71
 H -1.00  0.97  5.30
 H -2.38 -0.00  5.76
 H -3.75  1.83  5.68
 H -3.38  2.08  3.99
 H -1.81  3.22  6.36
 H -2.88  4.09  5.26
 H -0.51  2.69  4.16
 H  1.14  3.79  3.33
 H  1.20  5.49  3.42
 H -1.65  5.79  5.30
 N -2.92 -2.08  2.61
 C -1.67 -2.51  1.99
 H -3.73 -2.67  2.52
 H -1.91 -3.25  1.21
 H -0.98 -2.98  2.70
 H -1.16 -1.67  1.50
