35
#
 C -2.00  1.95  2.71
 C -1.21  1.40  1.54
 O -0.15  1.90  1.16
 H -1.57  2.91  2.99
 H -1.94  1.26  3.57
 H -3.07  2.06  2.48
 N -1.72  0.30  0.89
 C -2.90 -0.47  1.26
 C -2.77 -1.29  2.56
 O -3.73 -1.34  3.35
 H -1.16 -0.02  0.11
 H -3.71  0.24  1.48
 C -3.33 -1.35  0.06
 C -4.48 -2.34  0.31
 C -5.89 -1.73  0.44
 N -6.04 -0.80  1.55
 C -6.17  0.55  1.30
 N -5.92  1.33  2.44
 N -6.43  1.00  0.12
 H -2.45 -1.91 -0.28
 H -3.60 -0.66 -0.75
 H -4.26 -2.96  1.19
 H -4.51 -3.04 -0.54
 H -6.61 -2.56  0.55
 H -6.15 -1.18 -0.47
 H -5.49 -1.03  2.38
 H -6.36  2.24  2.42
 H -6.06  0.86  3.33
 H -6.52  2.02  0.13
 N -1.62 -1.96  2.85
 C -0.39 -2.09  2.09
 H -1.67 -2.44  3.74
 H -0.58 -2.36  1.04
 H  0.19 -2.91  2.53
 H  0.22 -1.18  2.11
