35
#
 C -0.08  0.03  0.62
 C -0.35 -0.06  2.11
 O  0.54 -0.30  2.93
 H  1.00  0.14  0.48
 H -0.61  0.86  0.14
 H -0.40 -0.90  0.12
 N -1.64  0.17  2.53
 C -2.85  0.29  1.73
 C -3.26  1.75  1.38
 O -4.26  1.96  0.71
 H -1.75  0.05  3.54
 H -2.67 -0.18  0.75
 C -4.04 -0.39  2.42
 C -3.93 -1.90  2.65
 C -4.04 -2.80  1.41
 N -2.85 -2.89  0.58
 C -2.70 -2.31 -0.67
 N -1.48 -2.68 -1.27
 N -3.46 -1.48 -1.29
 H -4.93 -0.16  1.83
 H -4.19  0.10  3.40
 H -4.75 -2.19  3.33
 H -3.00 -2.15  3.18
 H -4.87 -2.47  0.77
 H -4.30 -3.82  1.74
 H -2.03 -3.32  0.99
 H -1.44 -2.32 -2.22
 H -1.27 -3.68 -1.23
 H -4.24 -1.15 -0.71
 N -2.43  2.72  1.86
 C -2.64  4.13  1.60
 H -1.63  2.41  2.40
 H -1.80  4.56  1.05
 H -2.78  4.68  2.53
 H -3.55  4.22  0.99
