35
#
 C -1.59  1.67  0.13
 C -1.08  0.70  1.17
 O -0.03  0.08  1.04
 H -0.84  2.46 -0.01
 H -2.55  2.13  0.38
 H -1.68  1.15 -0.83
 N -1.89  0.55  2.27
 C -1.55 -0.36  3.35
 C -2.87 -0.88  3.92
 O -3.81 -0.09  4.12
 H -2.76  1.06  2.37
 H -0.93 -1.16  2.92
 C -0.72  0.36  4.45
 C -0.25 -0.54  5.59
 C  0.56  0.19  6.66
 N  1.85  0.63  6.14
 C  2.92  1.05  6.91
 N  2.75  0.89  8.29
 N  4.05  1.49  6.47
 H -1.33  1.19  4.85
 H  0.13  0.81  3.92
 H  0.35 -1.37  5.19
 H -1.13 -0.99  6.09
 H  0.75 -0.50  7.50
 H -0.04  1.03  7.05
 H  1.87  0.97  5.19
 H  3.53  1.30  8.79
 H  1.85  1.18  8.67
 H  4.11  1.43  5.45
 N -2.98 -2.20  4.20
 C -2.02 -3.27  3.96
 H -3.88 -2.45  4.61
 H -2.54 -4.23  4.05
 H -1.19 -3.27  4.68
 H -1.60 -3.21  2.95
