35
#
 C  0.13 -1.37 -0.39
 C  0.39 -1.20  1.10
 O  1.53 -1.10  1.54
 H  0.84 -2.11 -0.78
 H  0.33 -0.41 -0.88
 H -0.89 -1.68 -0.63
 N -0.75 -1.17  1.87
 C -0.87 -0.84  3.29
 C -0.73  0.69  3.49
 O  0.00  1.38  2.78
 H -1.62 -1.18  1.35
 H -1.91 -1.10  3.54
 C  0.06 -1.73  4.18
 C  0.62 -1.17  5.49
 C  1.71 -0.07  5.34
 N  2.65 -0.30  4.26
 C  3.59 -1.31  4.35
 N  4.20 -1.58  3.12
 N  3.87 -1.85  5.49
 H  0.91 -2.03  3.56
 H -0.50 -2.65  4.40
 H  1.09 -2.02  6.01
 H -0.16 -0.79  6.16
 H  2.27 -0.02  6.28
 H  1.26  0.91  5.17
 H  2.30 -0.10  3.33
 H  4.69 -2.47  3.10
 H  3.60 -1.46  2.30
 H  4.61 -2.54  5.38
 N -1.48  1.24  4.49
 C -2.54  0.63  5.28
 H -1.36  2.25  4.56
 H -2.79  1.32  6.10
 H -2.22 -0.31  5.74
 H -3.45  0.45  4.69
