35
#
 C -0.43 -0.57 -0.20
 C -0.29 -0.44  1.30
 O  0.81 -0.29  1.84
 H  0.36 -1.22 -0.58
 H -0.29  0.42 -0.65
 H -1.41 -0.97 -0.52
 N -1.45 -0.49  2.01
 C -1.53 -0.14  3.44
 C -0.75  1.19  3.66
 O -1.15  2.18  3.04
 H -2.32 -0.45  1.48
 H -2.56  0.23  3.58
 C -1.37 -1.34  4.39
 C -0.35 -2.42  3.99
 C  0.09 -3.32  5.16
 N -0.99 -3.96  5.89
 C -1.48 -3.44  7.07
 N -2.59 -4.16  7.55
 N -0.96 -2.38  7.61
 H -2.36 -1.82  4.47
 H -1.16 -0.97  5.40
 H  0.55 -1.97  3.57
 H -0.77 -3.04  3.19
 H  0.65 -2.73  5.90
 H  0.77 -4.10  4.78
 H -1.65 -4.50  5.35
 H -2.87 -3.89  8.49
 H -2.51 -5.17  7.46
 H -1.36 -2.20  8.53
 N  0.23  1.33  4.61
 C  1.16  0.35  5.15
 H  0.55  2.30  4.62
 H  0.71 -0.28  5.92
 H  1.98  0.91  5.62
 H  1.58 -0.27  4.35
