35
#
 C -2.72 -0.81  1.34
 C -1.84 -0.99  2.57
 O -0.65 -1.25  2.50
 H -3.69 -0.35  1.56
 H -2.88 -1.79  0.88
 H -2.17 -0.20  0.61
 N -2.51 -0.88  3.77
 C -1.80 -0.83  5.04
 C -1.78 -2.17  5.82
 O -1.26 -2.24  6.93
 H -3.45 -0.46  3.73
 H -0.74 -0.64  4.80
 C -2.36  0.27  5.94
 C -2.21  1.68  5.35
 C -3.34  2.67  5.71
 N -4.70  2.13  5.71
 C -5.25  1.44  4.65
 N -6.39  0.71  4.99
 N -4.80  1.37  3.43
 H -1.87  0.19  6.92
 H -3.43  0.05  6.12
 H -2.13  1.60  4.25
 H -1.26  2.13  5.67
 H -3.29  3.54  5.03
 H -3.18  3.06  6.72
 H -5.03  1.83  6.62
 H -6.89  0.41  4.16
 H -7.00  1.15  5.67
 H -3.94  1.90  3.32
 N -2.38 -3.22  5.18
 C -2.38 -4.56  5.73
 H -2.74 -3.04  4.26
 H -3.41 -4.95  5.80
 H -1.95 -4.51  6.73
 H -1.78 -5.24  5.11
