35
#
 C  0.45  0.80  0.67
 C  0.52  0.30  2.10
 O  1.55 -0.14  2.60
 H  0.69 -0.03 -0.00
 H  1.23  1.56  0.53
 H -0.52  1.22  0.38
 N -0.66  0.38  2.80
 C -0.82 -0.10  4.18
 C  0.29  0.42  5.12
 O  0.87 -0.33  5.90
 H -1.48  0.74  2.33
 H -1.76  0.36  4.53
 C -0.96 -1.64  4.20
 C -1.34 -2.33  5.51
 C -2.56 -1.79  6.26
 N -2.28 -0.55  6.97
 C -2.93  0.65  6.77
 N -4.22  0.54  6.25
 N -2.46  1.84  7.00
 H -0.02 -2.06  3.83
 H -1.73 -1.87  3.44
 H -0.47 -2.33  6.19
 H -1.53 -3.39  5.28
 H -2.91 -2.56  6.97
 H -3.39 -1.61  5.55
 H -1.31 -0.45  7.27
 H -4.69  1.44  6.29
 H -4.79 -0.20  6.64
 H -1.47  1.79  7.25
 N  0.53  1.76  5.14
 C -0.17  2.84  4.45
 H  1.28  2.01  5.76
 H  0.02  3.77  5.00
 H -1.25  2.68  4.46
 H  0.18  2.97  3.41
