35
#
 C -1.62  1.47  0.26
 C -1.87  1.31  1.75
 O -2.06  2.28  2.48
 H -0.73  2.09  0.12
 H -2.47  2.01 -0.18
 H -1.48  0.52 -0.28
 N -1.89  0.01  2.19
 C -2.00 -0.55  3.54
 C -3.34 -1.27  3.86
 O -3.29 -2.28  4.56
 H -1.73 -0.69  1.47
 H -1.30 -1.40  3.54
 C -1.56  0.35  4.72
 C -2.60  1.27  5.35
 C -2.02  2.05  6.53
 N -2.94  2.96  7.18
 C -3.92  2.52  8.06
 N -4.81  3.54  8.42
 N -4.09  1.34  8.56
 H -0.69  0.93  4.39
 H -1.20 -0.35  5.49
 H -3.47  0.68  5.70
 H -2.96  1.99  4.60
 H -1.15  2.64  6.19
 H -1.63  1.36  7.30
 H -3.22  3.76  6.62
 H -5.42  3.23  9.17
 H -4.36  4.43  8.65
 H -3.47  0.65  8.12
 N -4.53 -0.79  3.39
 C -4.86  0.43  2.67
 H -5.30 -1.38  3.68
 H -4.83  0.29  1.58
 H -4.18  1.25  2.94
 H -5.87  0.73  2.95
