35
#
 C  0.07  0.27  0.21
 C -0.05  0.74  1.65
 O  0.83  1.43  2.17
 H  1.01  0.65 -0.19
 H -0.75  0.64 -0.41
 H  0.06 -0.83  0.16
 N -1.13  0.33  2.39
 C -2.46 -0.05  1.92
 C -2.40 -1.34  1.06
 O -1.87 -2.35  1.50
 H -1.13  0.70  3.34
 H -2.99 -0.39  2.82
 C -3.24  1.15  1.34
 C -3.65  2.25  2.34
 C -2.56  2.96  3.16
 N -2.26  2.23  4.39
 C -1.22  2.67  5.24
 N -1.57  2.61  6.59
 N -0.03  3.01  4.91
 H -4.17  0.79  0.89
 H -2.65  1.61  0.53
 H -4.40  1.84  3.03
 H -4.18  3.03  1.76
 H -2.89  3.99  3.38
 H -1.63  3.05  2.57
 H -3.10  1.98  4.91
 H -0.81  2.93  7.18
 H -2.46  3.05  6.84
 H  0.19  2.80  3.92
 N -3.00 -1.28 -0.17
 C -2.99 -2.41 -1.08
 H -3.34 -0.39 -0.51
 H -3.98 -2.55 -1.53
 H -2.72 -3.30 -0.50
 H -2.25 -2.28 -1.88
