35
#
 C -0.25 -0.55  0.09
 C  0.06  0.13  1.42
 O  0.83  1.07  1.49
 H  0.64 -0.48 -0.55
 H -1.06  0.01 -0.39
 H -0.55 -1.60  0.19
 N -0.59 -0.45  2.49
 C -0.87  0.14  3.80
 C -1.92  1.28  3.66
 O -2.07  1.89  2.61
 H -1.28 -1.15  2.22
 H -1.37 -0.67  4.35
 C  0.36  0.48  4.68
 C  1.28  1.68  4.37
 C  0.64  3.07  4.33
 N  0.03  3.43  5.60
 C -1.08  4.23  5.76
 N -1.36  4.51  7.11
 N -1.91  4.64  4.86
 H  0.99 -0.42  4.68
 H -0.01  0.59  5.71
 H  1.77  1.53  3.40
 H  2.07  1.67  5.14
 H -0.12  3.10  3.54
 H  1.42  3.80  4.04
 H  0.57  3.24  6.43
 H -2.11  5.20  7.16
 H -0.55  4.80  7.65
 H -1.67  4.31  3.92
 N -2.70  1.56  4.75
 C -2.62  1.02  6.10
 H -3.21  2.43  4.64
 H -3.60  1.15  6.58
 H -2.40 -0.05  6.09
 H -1.87  1.54  6.72
