35
#
 C  0.36  0.14 -0.21
 C  0.53  0.50  1.26
 O  1.57  0.99  1.69
 H -0.41  0.78 -0.68
 H  0.06 -0.91 -0.34
 H  1.31  0.31 -0.71
 N -0.53  0.24  2.10
 C -1.88 -0.11  1.71
 C -2.66  1.11  1.17
 O -2.30  2.27  1.45
 H -0.40  0.66  3.02
 H -1.81 -0.84  0.89
 C -2.60 -0.85  2.87
 C -2.71 -0.15  4.23
 C -3.48  1.18  4.26
 N -4.75  1.06  3.55
 C -5.51  2.16  3.14
 N -4.77  3.28  2.79
 N -6.80  2.02  3.12
 H -2.05 -1.80  3.02
 H -3.61 -1.12  2.53
 H -1.72  0.02  4.67
 H -3.20 -0.87  4.91
 H -2.89  1.96  3.79
 H -3.63  1.48  5.32
 H -5.39  0.36  3.93
 H -5.32  4.02  2.35
 H -3.85  3.14  2.37
 H -7.25  2.84  2.70
 N -3.71  0.89  0.34
 C -4.43 -0.35  0.10
 H -4.20  1.75  0.10
 H -3.73 -1.19  0.01
 H -4.97 -0.27 -0.85
 H -5.15 -0.57  0.90
