35
#
 C  0.60 -0.04  0.67
 C  0.51 -0.28  2.16
 O  1.49 -0.55  2.87
 H  1.65 -0.09  0.37
 H  0.18  0.95  0.41
 H  0.04 -0.80  0.12
 N -0.74 -0.17  2.68
 C -1.00 -0.34  4.10
 C -2.48 -0.67  4.27
 O -3.32 -0.37  3.41
 H -1.54  0.06  2.09
 H -0.39 -1.19  4.43
 C -0.55  0.89  4.96
 C -1.56  1.98  5.32
 C -2.33  2.68  4.19
 N -1.50  3.02  3.04
 C -1.78  2.79  1.71
 N -2.93  2.06  1.44
 N -1.07  3.22  0.71
 H  0.30  1.32  4.42
 H -0.13  0.50  5.90
 H -1.00  2.74  5.89
 H -2.31  1.60  6.03
 H -2.82  3.58  4.60
 H -3.14  2.04  3.84
 H -0.70  3.62  3.21
 H -3.00  1.84  0.45
 H -3.21  1.31  2.07
 H -0.31  3.83  1.02
 N -2.87 -1.28  5.42
 C -2.04 -1.67  6.56
 H -3.87 -1.40  5.50
 H -2.55 -2.48  7.10
 H -1.88 -0.83  7.26
 H -1.07 -2.04  6.22
