35
#
 C  0.72  1.92  0.42
 C  0.11  1.89  1.80
 O  0.25  2.83  2.59
 H  0.39  2.83 -0.10
 H  0.47  1.05 -0.20
 H  1.81  1.99  0.52
 N -0.60  0.77  2.11
 C -1.10  0.53  3.48
 C -1.25 -0.97  3.74
 O -0.72 -1.49  4.72
 H -0.53 -0.02  1.48
 H -0.31  0.85  4.17
 C -2.39  1.32  3.82
 C -2.53  1.60  5.33
 C -2.09  3.01  5.76
 N -0.72  3.29  5.40
 C -0.10  4.46  5.81
 N  1.08  4.72  5.12
 N -0.45  5.26  6.77
 H -3.27  0.78  3.46
 H -2.37  2.27  3.26
 H -1.96  0.85  5.90
 H -3.58  1.48  5.63
 H -2.20  3.08  6.85
 H -2.79  3.76  5.32
 H -0.45  3.01  4.45
 H  1.42  5.66  5.28
 H  1.11  4.42  4.15
 H -1.30  4.93  7.24
 N -1.96 -1.74  2.84
 C -2.96 -1.34  1.85
 H -2.00 -2.71  3.15
 H -3.98 -1.34  2.27
 H -2.93 -2.04  1.01
 H -2.75 -0.34  1.47
