35
#
 C -1.71 -0.96  0.24
 C -1.10 -0.62  1.59
 O -0.08 -1.20  1.99
 H -2.04 -2.01  0.27
 H -0.93 -0.88 -0.52
 H -2.56 -0.34 -0.04
 N -1.75  0.36  2.28
 C -1.53  0.87  3.66
 C -0.18  1.56  3.95
 O -0.16  2.52  4.72
 H -2.55  0.76  1.82
 H -2.24  1.70  3.74
 C -1.91 -0.14  4.77
 C -0.83 -1.15  5.19
 C -1.37 -2.24  6.12
 N -2.26 -3.19  5.46
 C -3.63 -3.12  5.58
 N -4.28 -4.06  4.75
 N -4.20 -2.26  6.35
 H -2.82 -0.67  4.43
 H -2.21  0.44  5.65
 H -0.02 -0.62  5.71
 H -0.38 -1.62  4.31
 H -1.94 -1.81  6.96
 H -0.52 -2.80  6.55
 H -1.91 -3.59  4.60
 H -5.27 -4.16  4.96
 H -3.82 -4.97  4.71
 H -5.21 -2.42  6.41
 N  0.93  1.04  3.35
 C  2.25  1.57  3.63
 H  0.82  0.15  2.85
 H  2.19  2.65  3.77
 H  2.91  1.34  2.79
 H  2.68  1.13  4.55
