35
#
 C -1.02 -0.50 -0.09
 C -0.09 -0.27  1.09
 O  1.03  0.21  0.94
 H -0.43 -0.38 -1.00
 H -1.83  0.24 -0.09
 H -1.46 -1.51 -0.06
 N -0.53 -0.54  2.37
 C -1.72 -1.20  2.90
 C -1.72 -2.72  2.66
 O -1.29 -3.23  1.63
 H  0.21 -0.36  3.04
 H -1.66 -1.01  3.99
 C -3.07 -0.61  2.44
 C -3.21  0.89  2.72
 C -4.57  1.43  2.25
 N -4.81  2.82  2.59
 C -5.20  3.16  3.88
 N -5.24  4.55  4.07
 N -5.44  2.25  4.76
 H -3.87 -1.15  2.96
 H -3.22 -0.82  1.37
 H -2.40  1.44  2.23
 H -3.12  1.07  3.80
 H -5.38  0.84  2.71
 H -4.66  1.33  1.16
 H -4.21  3.50  2.14
 H -5.67  4.83  4.94
 H -5.61  5.08  3.28
 H -5.83  2.66  5.61
 N -2.26 -3.50  3.66
 C -2.73 -3.09  4.97
 H -2.25 -4.49  3.44
 H -3.53 -2.34  4.91
 H -1.92 -2.68  5.60
 H -3.14 -3.97  5.48
