35
#
 C -0.35  0.79 -0.56
 C -0.52 -0.42  0.34
 O  0.17 -1.43  0.16
 H -0.09  1.69  0.02
 H -1.25  1.01 -1.14
 H  0.47  0.57 -1.25
 N -1.44 -0.42  1.37
 C -2.50  0.45  1.88
 C -3.89 -0.24  1.81
 O -4.59 -0.27  2.83
 H -1.38 -1.31  1.86
 H -2.34  0.52  2.97
 C -2.54  1.90  1.37
 C -3.66  2.73  2.02
 C -4.96  2.75  1.19
 N -6.09  3.30  1.91
 C -7.27  2.62  2.18
 N -7.15  1.23  2.22
 N -8.35  3.31  2.32
 H -2.65  1.94  0.27
 H -1.56  2.35  1.60
 H -3.32  3.76  2.15
 H -3.89  2.35  3.02
 H -5.23  1.73  0.86
 H -4.79  3.33  0.26
 H -6.27  4.29  1.82
 H -7.98  0.77  2.58
 H -6.30  0.83  2.61
 H -9.13  2.73  2.64
 N -4.33 -0.79  0.65
 C -3.73 -0.80 -0.68
 H -5.26 -1.20  0.75
 H -4.49 -1.14 -1.39
 H -2.86 -1.46 -0.74
 H -3.43  0.21 -0.99
