35
#
 C -0.90 -1.78  1.49
 C -1.24 -0.80  2.58
 O -0.89 -0.96  3.75
 H  0.02 -1.46  0.96
 H -1.68 -1.90  0.73
 H -0.69 -2.75  1.96
 N -1.94  0.35  2.25
 C -2.50  0.80  0.98
 C -3.52 -0.21  0.37
 O -3.40 -0.63 -0.77
 H -2.06  0.95  3.06
 H -3.08  1.70  1.23
 C -1.45  1.18 -0.07
 C -0.45  2.23  0.42
 C  0.73  2.44 -0.54
 N  1.63  1.30 -0.67
 C  1.35  0.15 -1.39
 N  0.82  0.35 -2.66
 N  1.67 -0.99 -0.87
 H -1.97  1.53 -0.97
 H -0.92  0.26 -0.37
 H -0.05  1.94  1.40
 H -0.96  3.20  0.56
 H  1.33  3.30 -0.19
 H  0.37  2.73 -1.54
 H  2.09  1.04  0.20
 H  0.46  1.27 -2.88
 H  0.22 -0.40 -3.00
 H  1.58 -1.75 -1.56
 N -4.56 -0.59  1.17
 C -4.90 -0.18  2.52
 H -5.17 -1.27  0.71
 H -5.95 -0.42  2.70
 H -4.79  0.91  2.64
 H -4.29 -0.68  3.28
