35
#
 C  0.04  0.63 -0.19
 C -0.24 -0.48  0.80
 O  0.46 -1.49  0.82
 H  0.92  0.34 -0.77
 H  0.23  1.59  0.31
 H -0.80  0.78 -0.89
 N -1.28 -0.38  1.70
 C -2.40  0.52  1.99
 C -3.77 -0.19  1.82
 O -4.58 -0.14  2.74
 H -1.29 -1.22  2.29
 H -2.38  0.70  3.07
 C -2.36  1.92  1.33
 C -3.53  2.82  1.77
 C -4.72  2.76  0.81
 N -5.88  3.42  1.39
 C -6.90  3.86  0.56
 N -8.02  4.29  1.28
 N -6.77  3.84 -0.73
 H -2.34  1.85  0.24
 H -1.41  2.38  1.63
 H -3.18  3.86  1.85
 H -3.86  2.53  2.78
 H -4.95  1.72  0.53
 H -4.48  3.29 -0.13
 H -6.20  3.00  2.26
 H -8.70  4.79  0.72
 H -7.81  4.78  2.15
 H -7.55  4.31 -1.18
 N -4.05 -0.87  0.67
 C -3.30 -0.96 -0.57
 H -4.97 -1.30  0.70
 H -3.96 -1.41 -1.33
 H -2.41 -1.60 -0.48
 H -3.00  0.02 -0.94
