35
#
 C  0.15 -2.39 -0.17
 C  0.85 -1.15  0.37
 O  1.80 -0.63 -0.22
 H -0.67 -2.74  0.47
 H  0.89 -3.19 -0.28
 H -0.25 -2.16 -1.17
 N  0.36 -0.67  1.54
 C  0.93  0.49  2.20
 C  0.73  0.28  3.71
 O -0.34 -0.17  4.15
 H -0.41 -1.12  2.03
 H  2.00  0.51  1.95
 C  0.28  1.80  1.70
 C  0.85  3.09  2.31
 C  0.14  3.52  3.60
 N  0.83  4.64  4.23
 C  0.86  4.93  5.58
 N  0.24  3.98  6.40
 N  1.46  5.93  6.14
 H -0.80  1.74  1.87
 H  0.44  1.81  0.61
 H  0.76  3.91  1.57
 H  1.92  2.98  2.51
 H  0.13  2.69  4.31
 H -0.92  3.76  3.37
 H  1.10  5.40  3.63
 H  0.22  4.32  7.36
 H -0.66  3.64  6.10
 H  1.98  6.48  5.45
 N  1.78  0.63  4.49
 C  1.73  0.61  5.95
 H  2.61  1.00  4.04
 H  0.88 -0.02  6.24
 H  1.59  1.62  6.36
 H  2.66  0.18  6.35
