35
#
 C -0.02 -0.16 -0.05
 C  0.07  0.04  1.46
 O  1.15  0.20  2.02
 H  1.00 -0.17 -0.44
 H -0.57  0.67 -0.52
 H -0.53 -1.09 -0.32
 N -1.10  0.03  2.18
 C -2.46 -0.06  1.69
 C -3.28  1.05  2.37
 O -3.01  1.43  3.51
 H -1.00  0.29  3.16
 H -2.46  0.08  0.61
 C -3.12 -1.42  2.02
 C -2.48 -2.61  1.31
 C -3.14 -3.94  1.69
 N -2.63 -5.10  0.97
 C -3.02 -5.33 -0.33
 N -2.31 -6.40 -0.91
 N -3.91 -4.59 -0.90
 H -4.19 -1.37  1.76
 H -3.08 -1.56  3.12
 H -1.40 -2.65  1.56
 H -2.57 -2.49  0.22
 H -4.22 -3.89  1.48
 H -3.02 -4.13  2.77
 H -1.67 -5.36  1.19
 H -2.68 -6.70 -1.81
 H -2.15 -7.19 -0.29
 H -4.17 -4.97 -1.82
 N -4.34  1.55  1.68
 C -4.74  1.26  0.31
 H -4.86  2.26  2.19
 H -3.98  1.57 -0.42
 H -5.66  1.81  0.10
 H -4.95  0.19  0.16
