35
#
 C -1.04  0.04 -1.09
 C -0.59 -0.13  0.34
 O  0.60  0.00  0.65
 H -1.84 -0.65 -1.38
 H -0.17 -0.12 -1.74
 H -1.41  1.06 -1.25
 N -1.52 -0.43  1.30
 C -2.96 -0.55  1.21
 C -3.59  0.59  0.37
 O -3.24  1.76  0.51
 H -1.09 -0.71  2.19
 H -3.24 -1.53  0.79
 C -3.60 -0.41  2.61
 C -3.03 -1.32  3.72
 C -2.43 -0.54  4.92
 N -1.43  0.47  4.59
 C -0.23  0.11  4.01
 N  0.57  1.17  3.58
 N  0.07 -1.14  3.89
 H -4.68 -0.59  2.49
 H -3.50  0.65  2.89
 H -2.26 -1.99  3.33
 H -3.83 -1.96  4.12
 H -1.96 -1.27  5.60
 H -3.22 -0.03  5.48
 H -1.80  1.38  4.32
 H  1.01  0.96  2.68
 H  0.13  2.08  3.57
 H  1.01 -1.25  3.51
 N -4.60  0.24 -0.47
 C -5.14 -1.08 -0.76
 H -5.03  1.04 -0.94
 H -5.93 -0.97 -1.51
 H -5.58 -1.56  0.12
 H -4.37 -1.75 -1.19
