35
#
 C -1.15  1.96  1.39
 C -0.17  0.81  1.53
 O  1.04  0.97  1.62
 H -1.63  1.95  0.40
 H -0.59  2.89  1.51
 H -1.95  1.92  2.15
 N -0.70 -0.47  1.56
 C -2.09 -0.87  1.37
 C -2.91 -0.99  2.68
 O -4.09 -1.33  2.65
 H  0.00 -1.20  1.57
 H -2.61 -0.08  0.81
 C -2.19 -2.15  0.51
 C -1.54 -3.43  1.07
 C -2.26 -4.08  2.27
 N -3.68 -4.35  2.07
 C -4.12 -5.20  1.07
 N -3.34 -6.36  0.91
 N -5.16 -4.87  0.37
 H -1.74 -1.92 -0.46
 H -3.26 -2.34  0.33
 H -0.49 -3.26  1.35
 H -1.51 -4.16  0.25
 H -2.18 -3.45  3.17
 H -1.73 -5.01  2.52
 H -4.26 -3.52  2.12
 H -3.77 -7.06  0.31
 H -2.99 -6.76  1.77
 H -5.47 -5.64 -0.23
 N -2.24 -0.69  3.82
 C -2.85 -0.74  5.13
 H -1.26 -0.44  3.72
 H -3.91 -1.00  5.00
 H -2.78  0.23  5.64
 H -2.38 -1.51  5.76
