35
#
 C -1.19  0.51 -0.87
 C -0.64  0.30  0.54
 O  0.51 -0.06  0.73
 H -1.24 -0.47 -1.37
 H -0.49  1.13 -1.43
 H -2.19  0.97 -0.90
 N -1.54  0.57  1.54
 C -1.37  0.24  2.97
 C -2.51  0.85  3.80
 O -2.86  0.32  4.85
 H -2.51  0.64  1.24
 H -1.46 -0.85  3.11
 C -0.01  0.66  3.56
 C  0.34  2.15  3.42
 C  1.75  2.50  3.93
 N  1.97  2.28  5.35
 C  2.56  1.14  5.88
 N  2.54  1.15  7.28
 N  3.10  0.14  5.26
 H  0.77  0.06  3.08
 H -0.03  0.37  4.62
 H -0.39  2.77  3.96
 H  0.29  2.45  2.36
 H  1.94  3.57  3.71
 H  2.50  1.93  3.38
 H  1.32  2.74  5.98
 H  3.09  0.37  7.64
 H  2.82  2.03  7.70
 H  2.93  0.17  4.26
 N -3.06  2.00  3.31
 C -4.06  2.75  4.05
 H -2.60  2.44  2.52
 H -4.82  3.15  3.37
 H -3.61  3.58  4.61
 H -4.53  2.06  4.77
