35
#
 C -1.75 -1.36  0.50
 C -1.21 -1.01  1.87
 O -0.03 -1.20  2.18
 H -1.15 -0.85 -0.26
 H -2.81 -1.09  0.36
 H -1.64 -2.44  0.34
 N -2.11 -0.45  2.74
 C -1.76 -0.23  4.15
 C -3.02  0.07  4.97
 O -3.21 -0.45  6.07
 H -3.09 -0.54  2.52
 H -1.34 -1.16  4.56
 C -0.72  0.93  4.33
 C  0.52  0.58  5.15
 C  0.26  0.09  6.60
 N -0.80  0.76  7.35
 C -0.93  2.13  7.48
 N  0.26  2.85  7.44
 N -2.05  2.78  7.64
 H -1.22  1.80  4.77
 H -0.39  1.23  3.33
 H  1.15  1.48  5.18
 H  1.10 -0.20  4.63
 H  1.21  0.14  7.15
 H -0.02 -0.97  6.59
 H -1.70  0.29  7.26
 H  0.12  3.80  7.76
 H  1.06  2.40  7.89
 H -2.84  2.14  7.55
 N -3.88  0.97  4.41
 C -5.01  1.51  5.15
 H -3.55  1.48  3.60
 H -4.74  2.44  5.68
 H -5.32  0.77  5.88
 H -5.84  1.72  4.46
