35
#
 C  0.54  0.34  0.25
 C  0.15 -0.09  1.65
 O  0.90 -0.77  2.36
 H  1.47  0.92  0.31
 H -0.23  0.94 -0.25
 H  0.76 -0.55 -0.35
 N -1.08  0.33  2.07
 C -1.67 -0.12  3.32
 C -3.14 -0.46  3.03
 O -3.76  0.12  2.14
 H -1.74  0.74  1.42
 H -1.11 -1.02  3.63
 C -1.59  0.94  4.44
 C -0.16  1.33  4.80
 C -0.10  2.33  5.96
 N  1.27  2.70  6.25
 C  1.68  3.73  7.07
 N  0.64  4.55  7.54
 N  2.89  4.04  7.38
 H -2.10  0.53  5.33
 H -2.16  1.82  4.12
 H  0.34  1.77  3.93
 H  0.42  0.43  5.06
 H -0.61  1.89  6.84
 H -0.66  3.24  5.68
 H  1.97  1.99  6.08
 H  1.00  5.22  8.21
 H -0.20  4.07  7.86
 H  3.56  3.45  6.87
 N -3.68 -1.40  3.84
 C -5.08 -1.80  3.77
 H -3.08 -1.86  4.51
 H -5.55 -1.20  2.99
 H -5.59 -1.63  4.72
 H -5.17 -2.87  3.51
