35
#
 C  0.82  1.05  0.94
 C  0.17  2.37  1.33
 O  0.83  3.40  1.47
 H  0.46  0.70 -0.04
 H  0.63  0.26  1.67
 H  1.90  1.22  0.87
 N -1.19  2.37  1.51
 C -2.12  1.27  1.37
 C -3.46  1.88  0.95
 O -3.77  3.04  1.26
 H -1.61  3.28  1.70
 H -1.77  0.59  0.58
 C -2.27  0.43  2.68
 C -2.92  1.17  3.85
 C -4.44  0.95  3.94
 N -5.10  1.85  4.88
 C -6.12  2.74  4.55
 N -6.15  3.13  3.22
 N -6.94  3.08  5.49
 H -1.26  0.10  2.95
 H -2.83 -0.49  2.45
 H -2.72  2.25  3.78
 H -2.46  0.85  4.80
 H -4.64 -0.09  4.23
 H -4.91  1.09  2.96
 H -5.18  1.55  5.84
 H -6.78  3.91  3.05
 H -5.26  3.24  2.72
 H -7.57  3.82  5.17
 N -4.30  1.06  0.27
 C -5.65  1.46 -0.11
 H -3.99  0.12  0.05
 H -6.29  1.56  0.78
 H -6.07  0.70 -0.77
 H -5.62  2.42 -0.63
