35
#
 C -0.49  0.64 -0.53
 C -0.21  0.56  0.96
 O  0.94  0.70  1.39
 H -1.04 -0.22 -0.91
 H  0.48  0.71 -1.03
 H -1.08  1.54 -0.78
 N -1.22  0.34  1.88
 C -2.66  0.06  1.85
 C -3.01 -1.28  2.55
 O -3.89 -1.30  3.41
 H -0.83  0.35  2.82
 H -3.14  0.80  2.52
 C -3.36  0.18  0.49
 C -4.89  0.17  0.60
 C -5.57  0.27 -0.78
 N -5.24  1.49 -1.53
 C -4.07  1.65 -2.27
 N -3.64  0.49 -2.93
 N -3.38  2.73 -2.40
 H -3.04  1.12  0.03
 H -3.04 -0.63 -0.19
 H -5.24 -0.75  1.09
 H -5.22  1.00  1.24
 H -6.66  0.24 -0.65
 H -5.30 -0.60 -1.39
 H -5.51  2.34 -1.06
 H -4.37 -0.06 -3.36
 H -2.89  0.72 -3.57
 H -3.72  3.46 -1.77
 N -2.35 -2.42  2.20
 C -1.29 -2.64  1.23
 H -2.66 -3.22  2.75
 H -0.32 -2.25  1.57
 H -1.19 -3.72  1.08
 H -1.52 -2.20  0.26
