35
#
 C -0.79 -0.40  0.24
 C -0.61  0.03  1.68
 O  0.51  0.04  2.21
 H -0.46 -1.44  0.14
 H -0.14  0.21 -0.40
 H -1.82 -0.32 -0.13
 N -1.75  0.40  2.33
 C -1.88  0.75  3.76
 C -1.30  2.14  4.14
 O -1.99  2.94  4.77
 H -2.60  0.41  1.79
 H -2.96  0.89  3.91
 C -1.38 -0.34  4.72
 C -1.97 -1.74  4.48
 C -3.50 -1.81  4.62
 N -4.05 -3.16  4.53
 C -3.99 -4.00  5.64
 N -4.41 -5.30  5.33
 N -3.56 -3.57  6.77
 H -1.64 -0.00  5.73
 H -0.29 -0.41  4.67
 H -1.54 -2.42  5.22
 H -1.67 -2.11  3.49
 H -4.00 -1.21  3.84
 H -3.80 -1.40  5.59
 H -3.92 -3.63  3.64
 H -4.53 -5.89  6.14
 H -5.22 -5.35  4.71
 H -3.69 -4.27  7.51
 N -0.01  2.34  3.79
 C  0.70  3.57  4.11
 H  0.47  1.58  3.29
 H -0.01  4.26  4.58
 H  1.11  4.03  3.20
 H  1.53  3.38  4.81
