35
#
 C  0.41 -2.20  0.23
 C  0.22 -1.90  1.70
 O  0.81 -2.52  2.59
 H  1.47 -2.07 -0.02
 H -0.19 -1.57 -0.44
 H  0.17 -3.26  0.05
 N -0.65 -0.89  1.98
 C -1.03 -0.55  3.34
 C -2.39  0.16  3.25
 O -2.82  0.59  2.17
 H -1.24 -0.48  1.26
 H -1.12 -1.48  3.91
 C  0.03  0.33  4.06
 C  0.00  1.84  3.76
 C  0.28  2.24  2.30
 N  0.24  3.68  2.09
 C -0.97  4.37  2.03
 N -0.79  5.76  2.12
 N -2.16  3.90  1.91
 H  1.01 -0.10  3.83
 H -0.10  0.20  5.15
 H  0.76  2.32  4.40
 H -0.96  2.27  4.06
 H -0.45  1.79  1.62
 H  1.27  1.88  1.98
 H  0.98  4.20  2.56
 H -1.66  6.24  1.90
 H -0.02  6.11  1.56
 H -2.20  2.88  1.95
 N -3.05  0.33  4.42
 C -4.27  1.11  4.49
 H -2.66 -0.06  5.26
 H -4.52  1.29  5.55
 H -5.11  0.59  4.01
 H -4.14  2.08  3.99
