35
#
 C  0.10 -0.01  0.48
 C -0.11  0.29  1.96
 O  0.84  0.52  2.70
 H  1.13  0.25  0.23
 H -0.59  0.54 -0.17
 H -0.05 -1.08  0.29
 N -1.39  0.28  2.45
 C -2.67  0.02  1.79
 C -2.65 -1.36  1.09
 O -2.37 -2.38  1.73
 H -1.41  0.40  3.46
 H -3.38 -0.14  2.62
 C -3.19  1.24  1.00
 C -4.71  1.25  0.80
 C -5.23  2.48  0.04
 N -4.95  3.77  0.66
 C -5.64  4.17  1.79
 N -5.14  5.38  2.31
 N -6.60  3.45  2.26
 H -2.66  1.34  0.04
 H -2.90  2.12  1.59
 H -5.21  1.22  1.78
 H -5.05  0.36  0.25
 H -6.32  2.40 -0.06
 H -4.80  2.51 -0.97
 H -3.99  4.11  0.60
 H -5.72  5.77  3.05
 H -4.89  6.08  1.62
 H -7.09  3.94  3.02
 N -2.97 -1.38 -0.24
 C -2.98 -2.60 -1.02
 H -3.13 -0.50 -0.71
 H -2.14 -2.63 -1.73
 H -3.93 -2.70 -1.57
 H -2.88 -3.44 -0.32
