35
#
 C -0.16  0.14  0.14
 C -0.24 -0.14  1.63
 O  0.48 -0.97  2.19
 H  0.82  0.58 -0.09
 H -0.95  0.82 -0.22
 H -0.22 -0.81 -0.39
 N -1.15  0.61  2.32
 C -1.38  0.35  3.73
 C -2.02 -1.04  3.92
 O -2.86 -1.49  3.13
 H -1.82  1.20  1.84
 H -0.39  0.33  4.20
 C -2.19  1.49  4.38
 C -3.73  1.47  4.36
 C -4.48  1.21  3.04
 N -3.87  1.83  1.86
 C -3.90  1.23  0.59
 N -3.95 -0.15  0.59
 N -3.83  1.87 -0.53
 H -1.83  2.42  3.91
 H -1.89  1.55  5.43
 H -4.05  2.45  4.77
 H -4.10  0.72  5.08
 H -5.53  1.53  3.16
 H -4.51  0.13  2.87
 H -4.01  2.83  1.80
 H -3.79 -0.54 -0.33
 H -3.52 -0.65  1.37
 H -3.91  2.88 -0.39
 N -1.65 -1.74  5.02
 C -0.51 -1.48  5.89
 H -2.08 -2.66  5.07
 H -0.62 -0.52  6.42
 H  0.43 -1.48  5.33
 H -0.47 -2.27  6.65
