35
#
 C  1.52 -1.38  0.74
 C  0.87 -0.51  1.80
 O  1.50  0.34  2.42
 H  2.08 -0.74  0.05
 H  0.82 -2.00  0.18
 H  2.25 -2.02  1.26
 N -0.46 -0.75  2.00
 C -1.30 -0.23  3.09
 C -0.61  0.88  3.92
 O -0.18  0.68  5.05
 H -0.87 -1.51  1.47
 H -2.16  0.26  2.61
 C -1.89 -1.36  3.96
 C -1.05 -2.60  4.32
 C  0.08 -2.44  5.34
 N  1.29 -1.85  4.81
 C  2.33 -2.62  4.36
 N  3.32 -1.89  3.67
 N  2.34 -3.91  4.51
 H -2.79 -1.72  3.43
 H -2.26 -0.89  4.89
 H -0.63 -3.06  3.41
 H -1.76 -3.34  4.73
 H  0.35 -3.43  5.72
 H -0.26 -1.82  6.19
 H  1.33 -0.84  4.74
 H  4.27 -2.22  3.84
 H  3.24 -0.88  3.68
 H  3.16 -4.32  4.07
 N -0.69  2.15  3.41
 C -0.86  2.53  2.02
 H -0.19  2.81  4.00
 H -1.11  3.59  1.97
 H -1.69  1.97  1.57
 H  0.04  2.35  1.43
