35
#
 C -0.58  1.42  0.08
 C -0.41  1.04  1.54
 O  0.67  1.20  2.10
 H  0.40  1.72 -0.29
 H -1.28  2.27 -0.04
 H -0.96  0.59 -0.53
 N -1.46  0.52  2.27
 C -2.86  0.14  2.05
 C -3.12 -1.32  2.48
 O -4.06 -1.57  3.23
 H -1.15  0.37  3.23
 H -3.46  0.72  2.76
 C -3.44  0.41  0.65
 C -4.97  0.31  0.63
 C -5.55  0.57 -0.77
 N -5.06  1.78 -1.44
 C -5.11  3.03 -0.82
 N -6.33  3.32 -0.22
 N -4.04  3.76 -0.82
 H -3.01 -0.27 -0.10
 H -3.16  1.43  0.36
 H -5.31 -0.67  0.98
 H -5.39  1.05  1.34
 H -6.65  0.60 -0.70
 H -5.31 -0.26 -1.44
 H -4.14  1.67 -1.86
 H -6.44  4.28  0.10
 H -7.15  2.96 -0.69
 H -4.23  4.71 -0.48
 N -2.32 -2.32  2.01
 C -1.15 -2.28  1.15
 H -2.58 -3.23  2.39
 H -0.94 -3.30  0.81
 H -0.26 -1.90  1.66
 H -1.32 -1.67  0.26
