35
#
 C  0.13  0.87 -0.66
 C -0.32  0.25  0.64
 O -0.79 -0.89  0.70
 H  0.86  0.20 -1.14
 H  0.58  1.87 -0.55
 H -0.73  0.95 -1.33
 N -0.15  1.04  1.75
 C -0.65  0.63  3.06
 C -2.00  1.33  3.31
 O -2.07  2.56  3.39
 H  0.07  2.02  1.63
 H -0.76 -0.46  3.01
 C  0.34  0.99  4.18
 C -0.12  0.49  5.55
 C  0.91  0.71  6.66
 N  2.17 -0.00  6.43
 C  2.29 -1.33  6.81
 N  3.61 -1.80  6.66
 N  1.28 -1.98  7.27
 H  0.47  2.08  4.20
 H  1.31  0.54  3.92
 H -0.35 -0.59  5.51
 H -1.05  1.00  5.85
 H  0.48  0.40  7.62
 H  1.16  1.78  6.73
 H  3.02  0.54  6.52
 H  3.69 -2.81  6.76
 H  4.09 -1.47  5.83
 H  1.51 -2.96  7.42
 N -3.11  0.54  3.41
 C -3.19 -0.91  3.30
 H -3.96  1.06  3.58
 H -4.24 -1.19  3.18
 H -2.81 -1.42  4.20
 H -2.64 -1.28  2.42
