35
#
 C  0.38 -1.02  0.80
 C  0.30 -0.35  2.16
 O  0.94 -0.77  3.13
 H  0.12 -2.08  0.91
 H  1.42 -0.98  0.46
 H -0.27 -0.56  0.05
 N -0.53  0.73  2.22
 C -0.69  1.52  3.44
 C -1.71  0.86  4.41
 O -2.79  1.37  4.73
 H -1.16  0.90  1.43
 H  0.28  1.45  3.96
 C -0.97  3.01  3.15
 C -1.70  3.39  1.85
 C -3.22  3.17  1.79
 N -3.73  1.85  2.11
 C -3.56  0.78  1.27
 N -4.15 -0.39  1.77
 N -2.85  0.87  0.19
 H  0.01  3.51  3.12
 H -1.51  3.42  4.01
 H -1.23  2.89  0.98
 H -1.53  4.46  1.68
 H -3.56  3.44  0.78
 H -3.70  3.86  2.49
 H -3.75  1.64  3.11
 H -4.18 -1.16  1.12
 H -5.01 -0.26  2.29
 H -2.95  0.03 -0.38
 N -1.27 -0.32  4.90
 C -2.09 -1.16  5.75
 H -0.38 -0.68  4.53
 H -2.87 -1.69  5.18
 H -2.60 -0.54  6.50
 H -1.46 -1.89  6.25
