35
#
 C  1.50  0.08  1.76
 C  0.42 -0.88  2.27
 O  0.71 -2.01  2.66
 H  2.46 -0.43  1.85
 H  1.52  1.01  2.35
 H  1.33  0.36  0.71
 N -0.88 -0.45  2.24
 C -1.37  0.89  1.95
 C -2.04  1.48  3.20
 O -2.86  0.83  3.86
 H -1.54 -1.07  2.69
 H -0.51  1.52  1.70
 C -2.37  0.89  0.76
 C -1.69  1.04 -0.61
 C -1.59  2.51 -1.08
 N -1.05  3.47 -0.12
 C  0.24  3.47  0.37
 N  1.23  3.15 -0.53
 N  0.43  3.82  1.61
 H -3.11  1.69  0.91
 H -2.94 -0.05  0.81
 H -2.25  0.50 -1.38
 H -0.69  0.58 -0.58
 H -2.59  2.87 -1.34
 H -1.01  2.56 -2.02
 H -1.70  3.79  0.59
 H  0.98  2.79 -1.44
 H  2.11  2.81 -0.16
 H  1.42  3.95  1.82
 N -1.69  2.76  3.47
 C -2.25  3.49  4.59
 H -0.92  3.19  2.91
 H -3.31  3.27  4.68
 H -2.11  4.57  4.41
 H -1.76  3.23  5.54
