35
#
 C  0.08 -0.13  0.01
 C  0.06 -0.00  1.53
 O  1.11  0.13  2.17
 H -0.92 -0.18 -0.44
 H  0.64 -1.03 -0.25
 H  0.62  0.73 -0.41
 N -1.17 -0.04  2.11
 C -1.48 -0.06  3.55
 C -1.22  1.27  4.28
 O -2.11  1.77  4.98
 H -1.96 -0.11  1.48
 H -2.57 -0.16  3.60
 C -0.86 -1.29  4.26
 C -1.30 -1.46  5.72
 C -0.40 -0.73  6.73
 N -0.84 -0.84  8.11
 C -0.64 -2.00  8.83
 N -1.27 -1.96 10.09
 N  0.05 -2.97  8.34
 H  0.23 -1.24  4.18
 H -1.17 -2.17  3.68
 H -1.28 -2.52  5.98
 H -2.34 -1.11  5.85
 H -0.33  0.34  6.50
 H  0.62 -1.15  6.68
 H -1.69 -0.33  8.34
 H -0.99 -2.72 10.70
 H -1.23 -1.06 10.56
 H  0.21 -3.70  9.04
 N  0.02  1.80  4.14
 C  0.43  3.01  4.82
 H  0.68  1.27  3.55
 H  1.06  3.61  4.15
 H  0.98  2.80  5.74
 H -0.47  3.59  5.08
