35
#
 C -1.28  0.28 -1.15
 C -1.23  0.05  0.34
 O -1.79 -0.92  0.87
 H -0.91 -0.62 -1.66
 H -0.69  1.14 -1.48
 H -2.32  0.42 -1.46
 N -0.52  0.97  1.06
 C -0.49  0.94  2.52
 C -1.54  1.94  3.03
 O -1.42  3.16  2.80
 H -0.24  1.83  0.60
 H -0.76 -0.08  2.79
 C  0.92  1.24  3.05
 C  1.09  0.98  4.57
 C  1.20  2.23  5.45
 N  0.04  3.10  5.46
 C -1.04  2.83  6.27
 N -2.07  3.77  6.14
 N -1.02  1.84  7.10
 H  1.19  2.28  2.80
 H  1.60  0.60  2.48
 H  2.01  0.39  4.72
 H  0.27  0.35  4.95
 H  2.06  2.84  5.12
 H  1.38  1.92  6.49
 H -0.17  3.59  4.59
 H -2.98  3.45  6.44
 H -2.11  4.28  5.26
 H -1.84  1.85  7.71
 N -2.62  1.45  3.67
 C -2.87  0.08  4.12
 H -3.26  2.17  4.00
 H -2.66 -0.64  3.32
 H -3.93 -0.01  4.38
 H -2.27 -0.17  5.01
