35
#
 C -0.83 -1.11  0.12
 C -1.10 -0.44  1.45
 O -0.92  0.77  1.60
 H  0.24 -1.02 -0.11
 H -1.38 -0.58 -0.67
 H -1.10 -2.18  0.09
 N -1.55 -1.26  2.44
 C -1.78 -0.90  3.85
 C -3.03 -0.02  4.11
 O -3.83 -0.36  4.98
 H -1.70 -2.23  2.20
 H -2.03 -1.85  4.35
 C -0.53 -0.31  4.55
 C  0.68 -1.24  4.53
 C  1.89 -0.63  5.23
 N  3.03 -1.53  5.15
 C  4.25 -1.24  5.74
 N  4.61  0.11  5.71
 N  4.92 -2.20  6.28
 H -0.83 -0.09  5.58
 H -0.28  0.65  4.08
 H  0.96 -1.47  3.49
 H  0.42 -2.20  5.01
 H  1.63 -0.38  6.28
 H  2.13  0.33  4.74
 H  2.81 -2.50  5.33
 H  5.58  0.29  5.94
 H  4.30  0.64  4.90
 H  5.86 -1.90  6.57
 N -3.11  1.11  3.38
 C -4.20  2.06  3.52
 H -2.35  1.29  2.70
 H -4.73  2.19  2.57
 H -3.82  3.04  3.86
 H -4.89  1.67  4.28
