35
#
 C -1.12 -0.83  0.64
 C -1.25 -0.71  2.14
 O -0.76 -1.54  2.91
 H -0.25 -1.47  0.43
 H -1.00  0.13  0.13
 H -2.01 -1.32  0.23
 N -1.99  0.33  2.66
 C -2.61  1.48  2.00
 C -3.51  1.06  0.82
 O -3.36  1.50 -0.32
 H -2.01  0.32  3.68
 H -3.31  1.88  2.75
 C -1.59  2.59  1.67
 C -2.12  3.87  1.00
 C -3.42  4.43  1.60
 N -3.99  5.53  0.86
 C -4.76  5.44 -0.28
 N -5.13  4.14 -0.64
 N -5.13  6.54 -0.86
 H -0.80  2.16  1.03
 H -1.10  2.83  2.62
 H -1.34  4.64  1.07
 H -2.28  3.68 -0.07
 H -3.25  4.77  2.63
 H -4.19  3.65  1.66
 H -3.67  6.48  1.04
 H -5.58  4.10 -1.55
 H -4.44  3.40 -0.54
 H -5.68  6.35 -1.70
 N -4.53  0.20  1.09
 C -4.92 -0.39  2.37
 H -5.09 -0.03  0.28
 H -5.95 -0.76  2.27
 H -4.27 -1.23  2.65
 H -4.91  0.35  3.17
