35
#
 C  1.56  1.00  0.27
 C  0.96  0.59  1.59
 O  1.63  0.06  2.48
 H  2.06  0.13 -0.18
 H  2.34  1.75  0.46
 H  0.84  1.41 -0.44
 N -0.36  0.89  1.76
 C -1.13  0.45  2.90
 C -2.50 -0.00  2.35
 O -2.96  0.49  1.32
 H -0.93  1.20  0.97
 H -0.59 -0.40  3.35
 C -1.34  1.54  3.98
 C -0.10  1.92  4.80
 C  0.84  2.95  4.14
 N  1.95  3.37  4.97
 C  3.05  2.58  5.29
 N  3.41  1.63  4.35
 N  3.68  2.86  6.39
 H -2.12  1.17  4.68
 H -1.78  2.43  3.50
 H  0.47  1.01  5.05
 H -0.43  2.35  5.76
 H  0.26  3.85  3.89
 H  1.22  2.58  3.19
 H  1.73  3.98  5.75
 H  4.08  0.95  4.69
 H  2.71  1.21  3.73
 H  4.52  2.28  6.48
 N -3.15 -0.93  3.10
 C -4.48 -1.42  2.78
 H -2.67 -1.30  3.91
 H -5.18 -1.22  3.60
 H -4.46 -2.50  2.58
 H -4.81 -0.90  1.88
