35
#
 C  0.33 -0.62  0.05
 C  0.24 -0.14  1.49
 O  1.19  0.47  2.01
 H -0.46 -1.33 -0.22
 H  1.31 -1.07 -0.11
 H  0.26  0.25 -0.62
 N -0.93 -0.42  2.11
 C -1.24 -0.29  3.54
 C -1.26  1.13  4.16
 O -2.17  1.42  4.95
 H -1.53 -1.12  1.64
 H -2.30 -0.59  3.61
 C -0.44 -1.26  4.44
 C -0.86 -2.73  4.25
 C -0.26 -3.44  3.02
 N -1.16 -4.44  2.44
 C -2.18 -4.09  1.59
 N -2.88 -5.19  1.10
 N -2.39 -2.85  1.26
 H -0.64 -0.97  5.48
 H  0.64 -1.12  4.27
 H -1.95 -2.78  4.18
 H -0.59 -3.31  5.15
 H  0.66 -3.96  3.29
 H  0.00 -2.71  2.24
 H -0.82 -5.39  2.37
 H -3.73 -4.96  0.59
 H -3.04 -5.94  1.77
 H -3.24 -2.77  0.69
 N -0.24  1.95  3.82
 C -0.12  3.29  4.36
 H  0.48  1.57  3.19
 H  0.70  3.36  5.09
 H -1.06  3.54  4.87
 H  0.06  4.02  3.56
