35
#
 C -1.98 -0.92  1.50
 C -1.09 -0.31  2.56
 O -0.04  0.28  2.25
 H -2.40 -0.12  0.87
 H -2.81 -1.51  1.92
 H -1.38 -1.57  0.85
 N -1.51 -0.43  3.84
 C -0.81  0.19  4.96
 C  0.37 -0.71  5.45
 O  0.37 -1.27  6.54
 H -2.37 -0.95  4.03
 H -0.36  1.12  4.57
 C -1.75  0.51  6.12
 C -2.74  1.66  5.86
 C -4.02  1.31  5.08
 N -4.88  0.33  5.75
 C -4.80 -1.05  5.60
 N -4.39 -1.47  4.31
 N -5.07 -1.95  6.47
 H -1.11  0.78  6.97
 H -2.27 -0.40  6.44
 H -2.23  2.48  5.34
 H -3.05  2.07  6.84
 H -3.77  0.93  4.08
 H -4.60  2.23  4.92
 H -5.15  0.60  6.69
 H -4.53 -2.48  4.25
 H -4.89 -0.99  3.56
 H -5.21 -1.55  7.40
 N  1.38 -0.79  4.54
 C  2.54 -1.64  4.73
 H  1.22 -0.33  3.64
 H  2.53 -2.49  4.04
 H  2.52 -2.01  5.76
 H  3.47 -1.07  4.57
