35
#
 C  0.04 -0.37  0.12
 C  0.03 -0.06  1.61
 O  1.06  0.24  2.21
 H  0.73 -1.20 -0.06
 H  0.44  0.50 -0.41
 H -0.94 -0.62 -0.30
 N -1.21 -0.14  2.20
 C -1.62  0.04  3.60
 C -2.36  1.37  3.89
 O -3.47  1.32  4.41
 H -1.97 -0.37  1.57
 H -2.44 -0.68  3.74
 C -0.56 -0.27  4.67
 C  0.01 -1.69  4.65
 C -1.03 -2.80  4.77
 N -0.46 -4.14  4.91
 C  0.02 -4.57  6.13
 N  0.68 -5.81  6.03
 N -0.14 -3.86  7.19
 H -1.08 -0.11  5.64
 H  0.26  0.45  4.62
 H  0.71 -1.78  5.49
 H  0.61 -1.83  3.73
 H -1.70 -2.82  3.90
 H -1.65 -2.64  5.67
 H  0.08 -4.46  4.11
 H  0.90 -6.22  6.93
 H  0.24 -6.48  5.41
 H  0.16 -4.37  8.03
 N -1.78  2.57  3.59
 C -0.50  2.88  2.97
 H -2.39  3.35  3.83
 H  0.22  2.07  3.10
 H -0.09  3.79  3.43
 H -0.61  3.06  1.89
