35
#
 C -1.29  1.29  0.19
 C -0.86  0.67  1.51
 O  0.16  1.02  2.10
 H -0.58  1.00 -0.59
 H -1.24  2.38  0.29
 H -2.30  1.00 -0.12
 N -1.68 -0.33  1.96
 C -1.48 -1.00  3.24
 C -1.44 -2.52  3.02
 O -2.35 -3.27  3.40
 H -2.55 -0.55  1.48
 H -0.48 -0.66  3.58
 C -2.48 -0.54  4.32
 C -3.98 -0.87  4.20
 C -4.73 -0.37  2.96
 N -4.43 -1.18  1.78
 C -5.02 -0.99  0.54
 N -5.37  0.34  0.27
 N -5.08 -1.98 -0.28
 H -2.35  0.55  4.40
 H -2.13 -0.96  5.28
 H -4.47 -0.42  5.07
 H -4.12 -1.96  4.29
 H -4.44  0.67  2.76
 H -5.81 -0.39  3.18
 H -4.30 -2.18  1.97
 H -5.99  0.45 -0.53
 H -5.64  0.92  1.06
 H -5.46 -1.70 -1.19
 N -0.35 -3.03  2.38
 C  0.76 -2.32  1.76
 H -0.43 -4.02  2.20
 H  0.98 -1.38  2.28
 H  0.56 -2.08  0.70
 H  1.66 -2.95  1.81
