35
#
 C  0.01 -0.15  0.04
 C  0.06 -0.07  1.56
 O  1.12 -0.13  2.17
 H -0.56  0.67 -0.40
 H -0.45 -1.09 -0.28
 H  1.04 -0.11 -0.33
 N -1.13  0.05  2.24
 C -2.51  0.08  1.75
 C -2.83 -1.22  0.95
 O -2.64 -2.30  1.51
 H -1.00 -0.04  3.24
 H -3.12 -0.09  2.65
 C -2.93  1.44  1.20
 C -2.82  2.57  2.23
 C -3.31  3.93  1.72
 N -4.72  3.97  1.35
 C -5.19  3.71  0.07
 N -6.59  3.62  0.03
 N -4.53  3.54 -1.03
 H -3.97  1.37  0.86
 H -2.33  1.71  0.31
 H -1.77  2.68  2.55
 H -3.39  2.29  3.13
 H -2.72  4.25  0.85
 H -3.14  4.69  2.50
 H -5.37  3.76  2.09
 H -6.92  3.59 -0.93
 H -7.08  4.32  0.58
 H -3.52  3.52 -0.86
 N -3.37 -1.20 -0.32
 C -3.52 -0.16 -1.33
 H -3.55 -2.15 -0.62
 H -4.28  0.59 -1.08
 H -3.83 -0.65 -2.26
 H -2.57  0.36 -1.54
