35
#
 C -0.67 -1.23 -0.37
 C -0.25 -0.96  1.07
 O  0.90 -1.15  1.46
 H -0.41 -2.26 -0.62
 H -0.08 -0.57 -1.03
 H -1.73 -1.06 -0.56
 N -1.25 -0.51  1.89
 C -1.01 -0.11  3.28
 C -1.97 -0.92  4.18
 O -3.00 -0.42  4.65
 H -2.17 -0.33  1.50
 H  0.03 -0.40  3.48
 C -1.18  1.39  3.47
 C -0.78  1.87  4.87
 C -1.21  3.31  5.17
 N -2.61  3.64  4.86
 C -3.67  3.36  5.73
 N -3.62  2.10  6.31
 N -4.65  4.16  6.00
 H -2.23  1.67  3.29
 H -0.57  1.90  2.71
 H  0.31  1.80  5.00
 H -1.22  1.21  5.63
 H -0.60  3.99  4.56
 H -0.97  3.54  6.23
 H -2.71  4.56  4.45
 H -4.46  1.93  6.86
 H -3.39  1.32  5.69
 H -4.47  5.10  5.63
 N -1.65 -2.22  4.44
 C -0.59 -3.03  3.86
 H -2.36 -2.70  4.98
 H -0.24 -3.76  4.60
 H  0.26 -2.42  3.55
 H -0.94 -3.59  2.97
