35
#
 C -1.19  1.34  0.56
 C -0.93  0.06  1.33
 O -0.12 -0.77  0.93
 H -2.17  1.79  0.76
 H -1.10  1.13 -0.51
 H -0.41  2.06  0.83
 N -1.68 -0.07  2.47
 C -1.41 -0.99  3.59
 C  0.03 -0.72  4.13
 O  0.73  0.14  3.62
 H -2.20  0.76  2.72
 H -2.06 -0.62  4.40
 C -1.94 -2.42  3.32
 C -1.38 -3.30  2.19
 C -0.02 -3.94  2.42
 N  1.04 -2.95  2.52
 C  2.19 -3.18  3.21
 N  3.01 -2.05  3.35
 N  2.42 -4.34  3.76
 H -3.01 -2.28  3.12
 H -1.89 -2.99  4.26
 H -1.37 -2.74  1.24
 H -2.10 -4.12  2.05
 H  0.19 -4.66  1.61
 H  0.00 -4.53  3.35
 H  0.93 -2.13  1.93
 H  4.00 -2.23  3.29
 H  2.72 -1.21  2.85
 H  3.26 -4.29  4.33
 N  0.44 -1.36  5.26
 C -0.13 -2.47  6.00
 H  1.43 -1.17  5.43
 H  0.03 -3.44  5.50
 H -1.20 -2.32  6.18
 H  0.36 -2.52  6.98
