35
#
 C  0.95  3.17  0.71
 C  0.47  2.87  2.12
 O  0.55  3.72  3.02
 H  0.79  2.35  0.00
 H  2.01  3.42  0.75
 H  0.42  4.06  0.34
 N -0.04  1.63  2.32
 C -0.46  1.03  3.59
 C -1.76  1.59  4.23
 O -2.59  0.80  4.69
 H -0.11  1.03  1.51
 H -0.74  0.00  3.34
 C  0.66  0.99  4.65
 C  1.93  0.24  4.22
 C  1.72 -1.19  3.72
 N  1.05 -2.02  4.73
 C  0.77 -3.37  4.50
 N  1.75 -4.04  3.77
 N -0.28 -4.01  4.89
 H  0.22  0.54  5.56
 H  0.93  2.02  4.93
 H  2.62  0.22  5.08
 H  2.44  0.80  3.43
 H  2.70 -1.62  3.49
 H  1.16 -1.19  2.77
 H  0.27 -1.56  5.18
 H  2.71 -3.82  4.01
 H  1.57 -5.04  3.78
 H -0.98 -3.38  5.28
 N -1.87  2.94  4.27
 C -3.00  3.60  4.89
 H -1.07  3.48  3.94
 H -3.36  4.42  4.25
 H -2.73  4.02  5.87
 H -3.80  2.87  5.03
