35
#
 C  0.12 -0.18  1.01
 C -0.14  0.33  2.41
 O  0.76  0.81  3.10
 H  1.16 -0.52  0.97
 H -0.00  0.65  0.31
 H -0.54 -1.00  0.71
 N -1.42  0.30  2.90
 C -2.68  0.04  2.22
 C -2.77 -1.45  1.79
 O -2.49 -2.34  2.58
 H -1.47  0.63  3.86
 H -3.44  0.11  3.01
 C -3.04  1.10  1.15
 C -3.13  2.55  1.66
 C -1.81  3.30  1.92
 N -0.94  3.24  0.74
 C  0.34  3.81  0.76
 N  1.07  3.58  1.91
 N  0.70  4.48 -0.28
 H -4.03  0.84  0.75
 H -2.33  1.06  0.32
 H -3.73  2.59  2.58
 H -3.70  3.12  0.91
 H -1.28  2.87  2.77
 H -2.05  4.34  2.20
 H -1.40  3.58 -0.11
 H  2.04  3.87  1.86
 H  0.96  2.68  2.39
 H  1.69  4.74 -0.24
 N -3.20 -1.69  0.52
 C -3.35 -3.04 -0.01
 H -3.35 -0.91 -0.10
 H -4.36 -3.19 -0.43
 H -3.19 -3.74  0.81
 H -2.61 -3.24 -0.80
