35
#
 C -0.29  1.25 -0.66
 C -0.74  1.45  0.78
 O -0.89  2.57  1.27
 H  0.67  1.77 -0.80
 H -1.02  1.74 -1.32
 H -0.19  0.20 -0.95
 N -0.97  0.30  1.48
 C -1.25  0.29  2.90
 C -0.88 -1.13  3.38
 O -0.34 -1.94  2.61
 H -0.62 -0.60  1.14
 H -0.57  1.00  3.40
 C -2.69  0.77  3.21
 C -3.82 -0.17  2.76
 C -4.41 -1.05  3.87
 N -5.05 -0.29  4.94
 C -4.47 -0.05  6.16
 N -5.35  0.55  7.08
 N -3.25 -0.40  6.42
 H -2.78  1.74  2.72
 H -2.77  0.97  4.29
 H -3.47 -0.83  1.95
 H -4.64  0.42  2.32
 H -3.65 -1.70  4.32
 H -5.18 -1.72  3.44
 H -6.04 -0.14  4.87
 H -4.88  0.97  7.88
 H -6.04  1.17  6.69
 H -2.98 -0.12  7.36
 N -1.15 -1.42  4.67
 C -0.86 -2.74  5.21
 H -1.80 -0.85  5.23
 H  0.22 -2.91  5.31
 H -1.25 -3.53  4.55
 H -1.33 -2.82  6.19
