35
#
 C  0.18 -0.45  0.89
 C -0.24 -0.43  2.34
 O  0.57 -0.19  3.25
 H  0.60  0.53  0.63
 H -0.64 -0.68  0.20
 H  0.98 -1.20  0.76
 N -1.56 -0.67  2.59
 C -2.13 -0.64  3.94
 C -1.90 -2.01  4.64
 O -2.79 -2.85  4.75
 H -2.16 -0.94  1.82
 H -1.57  0.13  4.49
 C -3.61 -0.28  3.88
 C -4.20  0.05  5.26
 C -5.71  0.29  5.19
 N -6.33  0.67  6.45
 C -6.25  1.97  6.95
 N -6.75  2.07  8.25
 N -5.80  3.02  6.36
 H -4.16 -1.13  3.45
 H -3.73  0.59  3.21
 H -3.70  0.95  5.67
 H -4.00 -0.77  5.95
 H -6.21 -0.63  4.84
 H -5.95  1.06  4.45
 H -6.33 -0.05  7.17
 H -6.82  3.04  8.53
 H -7.62  1.57  8.41
 H -5.35  2.80  5.47
 N -0.63 -2.16  5.09
 C -0.15 -3.40  5.66
 H  0.05 -1.45  4.79
 H  0.46 -3.20  6.55
 H  0.45 -3.98  4.95
 H -1.02 -4.00  5.95
