35
#
 C -1.29 -2.12  0.83
 C -1.09 -0.82  1.57
 O -0.93  0.25  1.00
 H -0.48 -2.25  0.11
 H -2.22 -2.06  0.25
 H -1.34 -3.01  1.48
 N -1.09 -0.92  2.95
 C -1.04  0.25  3.82
 C  0.07  0.15  4.89
 O  0.03  0.84  5.91
 H -1.29 -1.83  3.36
 H -0.73  1.06  3.14
 C -2.40  0.66  4.42
 C -3.03 -0.25  5.48
 C -3.44 -1.66  5.05
 N -4.26 -1.75  3.84
 C -5.57 -1.25  3.80
 N -6.30 -1.48  4.97
 N -6.13 -0.62  2.82
 H -3.09  0.81  3.57
 H -2.25  1.65  4.87
 H -3.93  0.26  5.85
 H -2.35 -0.33  6.34
 H -3.98 -2.14  5.88
 H -2.55 -2.30  4.88
 H -3.76 -1.48  3.00
 H -6.18 -2.40  5.38
 H -7.28 -1.24  4.83
 H -5.45 -0.38  2.10
 N  1.08 -0.71  4.61
 C  2.26 -0.82  5.44
 H  1.07 -1.17  3.70
 H  2.05 -0.32  6.39
 H  3.13 -0.33  4.98
 H  2.51 -1.87  5.64
