35
#
 C -1.20  0.51  0.07
 C -0.83  0.07  1.47
 O  0.22 -0.52  1.71
 H -0.43  1.20 -0.30
 H -2.18  1.01  0.01
 H -1.19 -0.36 -0.59
 N -1.75  0.36  2.44
 C -1.50  0.09  3.85
 C -2.68 -0.71  4.47
 O -3.37 -0.26  5.38
 H -2.58  0.88  2.18
 H -0.62 -0.57  3.85
 C -1.13  1.35  4.66
 C -1.85  2.66  4.29
 C -3.34  2.71  4.61
 N -3.92  3.95  4.12
 C -5.26  4.27  4.22
 N -6.12  3.16  4.34
 N -5.62  5.50  4.09
 H -0.06  1.51  4.52
 H -1.29  1.13  5.73
 H -1.70  2.88  3.22
 H -1.35  3.48  4.83
 H -3.49  2.57  5.70
 H -3.85  1.87  4.12
 H -3.34  4.78  4.18
 H -7.05  3.41  4.63
 H -5.76  2.36  4.84
 H -6.63  5.61  4.13
 N -2.91 -1.95  3.95
 C -2.21 -2.66  2.90
 H -3.71 -2.41  4.38
 H -2.26 -3.74  3.10
 H -1.15 -2.39  2.86
 H -2.64 -2.47  1.91
