35
#
 C -0.43  0.24 -0.06
 C  0.04  0.04  1.37
 O  1.23  0.12  1.67
 H -1.33 -0.33 -0.32
 H  0.39 -0.03 -0.73
 H -0.65  1.31 -0.21
 N -0.89 -0.26  2.34
 C -2.36 -0.22  2.27
 C -2.98 -1.36  1.42
 O -4.10 -1.26  0.93
 H -0.48 -0.27  3.26
 H -2.68 -0.44  3.30
 C -2.97  1.13  1.89
 C -2.46  2.30  2.73
 C -3.18  3.62  2.41
 N -4.59  3.62  2.78
 C -5.65  3.84  1.90
 N -5.41  3.40  0.59
 N -6.77  4.40  2.17
 H -4.06  1.03  2.02
 H -2.80  1.34  0.82
 H -1.38  2.45  2.56
 H -2.58  2.08  3.80
 H -3.11  3.84  1.33
 H -2.67  4.45  2.93
 H -4.79  3.96  3.71
 H -6.25  3.49  0.04
 H -5.01  2.47  0.52
 H -6.76  4.83  3.11
 N -2.21 -2.48  1.32
 C -2.63 -3.67  0.60
 H -1.28 -2.44  1.73
 H -2.64 -4.55  1.26
 H -1.98 -3.87 -0.25
 H -3.65 -3.49  0.24
