35
#
 C -0.08 -0.29 -0.11
 C -0.15 -0.53  1.38
 O  0.47 -1.44  1.93
 H  0.97 -0.18 -0.41
 H -0.64  0.60 -0.44
 H -0.48 -1.17 -0.63
 N -0.94  0.33  2.09
 C -1.19  0.17  3.52
 C -2.61  0.68  3.82
 O -3.55 -0.10  4.02
 H -1.48  1.03  1.58
 H -1.22 -0.91  3.71
 C -0.06  0.78  4.36
 C -0.12  0.51  5.87
 C -1.23  1.27  6.61
 N -1.07  1.15  8.05
 C -1.87  1.95  8.87
 N -1.77  1.60 10.22
 N -2.61  2.87  8.36
 H  0.02  1.87  4.18
 H  0.87  0.35  3.97
 H  0.84  0.79  6.32
 H -0.24 -0.57  6.04
 H -2.23  0.93  6.30
 H -1.18  2.34  6.37
 H -0.95  0.20  8.40
 H -2.19  2.27 10.85
 H -0.83  1.33 10.52
 H -3.04  3.44  9.09
 N -2.76  2.04  3.81
 C -3.97  2.68  4.27
 H -1.90  2.59  3.83
 H -4.81  2.00  4.10
 H -4.14  3.61  3.72
 H -3.92  2.91  5.35
