35
#
 C -2.14  0.16 -0.31
 C -1.73 -0.09  1.13
 O -0.67 -0.64  1.43
 H -2.18 -0.81 -0.83
 H -1.37  0.76 -0.80
 H -3.11  0.66 -0.41
 N -2.60  0.37  2.07
 C -2.40  0.13  3.49
 C -3.78  0.11  4.14
 O -4.76  0.61  3.55
 H -3.53  0.71  1.83
 H -1.94 -0.87  3.59
 C -1.40  1.13  4.12
 C -1.66  2.63  3.89
 C -2.96  3.20  4.48
 N -3.15  2.79  5.87
 C -4.37  2.72  6.54
 N -5.49  2.63  5.72
 N -4.52  2.71  7.82
 H -0.42  0.89  3.69
 H -1.33  0.93  5.20
 H -1.65  2.85  2.82
 H -0.80  3.17  4.32
 H -3.81  2.85  3.90
 H -2.94  4.30  4.38
 H -2.38  3.03  6.49
 H -6.32  2.45  6.28
 H -5.42  2.07  4.87
 H -3.63  2.91  8.30
 N -3.93 -0.46  5.36
 C -2.90 -0.96  6.26
 H -4.86 -0.33  5.75
 H -3.33 -1.73  6.90
 H -2.50 -0.15  6.90
 H -2.08 -1.41  5.70
