35
#
 C -1.59  2.26 -0.28
 C -0.68  1.80  0.84
 O  0.30  2.45  1.20
 H -1.18  3.17 -0.71
 H -2.61  2.46  0.09
 H -1.68  1.50 -1.07
 N -1.00  0.62  1.46
 C -2.17 -0.21  1.24
 C -3.54  0.33  1.73
 O -4.56 -0.11  1.19
 H -0.36  0.38  2.21
 H -2.34 -0.31  0.16
 C -1.95 -1.64  1.78
 C -1.85 -1.76  3.30
 C -1.67 -3.21  3.77
 N -0.41 -3.76  3.31
 C -0.02 -5.08  3.46
 N -1.06 -6.01  3.46
 N  1.24 -5.34  3.49
 H -1.06 -2.05  1.30
 H -2.80 -2.24  1.43
 H -2.76 -1.36  3.78
 H -1.00 -1.17  3.70
 H -2.50 -3.80  3.35
 H -1.77 -3.25  4.87
 H  0.40 -3.15  3.43
 H -0.80 -6.93  3.81
 H -1.97 -5.71  3.80
 H  1.42 -6.35  3.51
 N -3.63  1.26  2.73
 C -2.63  1.88  3.59
 H -4.60  1.51  2.90
 H -1.97  1.14  4.06
 H -3.17  2.39  4.40
 H -2.01  2.62  3.07
