35
#
 C -0.11  0.50  0.21
 C -0.17  0.45  1.72
 O  0.81  0.70  2.42
 H  0.93  0.31 -0.10
 H -0.38  1.51 -0.13
 H -0.77 -0.21 -0.29
 N -1.37  0.10  2.32
 C -2.69 -0.06  1.71
 C -2.81 -1.32  0.82
 O -3.63 -1.37 -0.10
 H -1.33  0.20  3.33
 H -3.35 -0.27  2.57
 C -3.24  1.21  1.01
 C -4.76  1.36  1.08
 C -5.27  1.75  2.46
 N -6.73  1.83  2.46
 C -7.49  1.94  3.62
 N -6.84  2.60  4.66
 N -8.69  1.51  3.80
 H -2.94  1.18 -0.05
 H -2.75  2.08  1.46
 H -5.23  0.43  0.75
 H -5.07  2.14  0.36
 H -4.85  2.74  2.73
 H -4.92  1.04  3.23
 H -7.17  1.22  1.77
 H -7.49  2.82  5.41
 H -6.27  3.39  4.40
 H -9.01  0.94  3.02
 N -2.00 -2.35  1.17
 C -1.99 -3.62  0.48
 H -1.32 -2.16  1.90
 H -2.17 -4.45  1.18
 H -1.04 -3.79 -0.03
 H -2.80 -3.60 -0.26
