35
#
 C -0.71  1.03  0.12
 C -0.62  0.03  1.27
 O -0.06 -1.05  1.15
 H  0.30  1.24 -0.24
 H -1.20  1.98  0.39
 H -1.27  0.57 -0.70
 N -1.22  0.44  2.44
 C -1.36 -0.46  3.59
 C -2.80 -0.50  4.11
 O -3.41 -1.57  4.17
 H -1.75  1.30  2.41
 H -1.19 -1.46  3.18
 C -0.32 -0.22  4.71
 C  1.12 -0.47  4.26
 C  2.11 -0.31  5.41
 N  3.47 -0.53  4.95
 C  4.55 -0.17  5.73
 N  5.79 -0.48  5.16
 N  4.36  0.48  6.83
 H -0.58 -0.91  5.53
 H -0.41  0.80  5.12
 H  1.39  0.23  3.45
 H  1.19 -1.48  3.83
 H  1.85 -0.99  6.24
 H  2.08  0.71  5.83
 H  3.60 -1.33  4.34
 H  5.79 -1.16  4.41
 H  6.53 -0.64  5.83
 H  5.26  0.78  7.23
 N -3.42  0.67  4.50
 C -2.87  1.97  4.82
 H -4.36  0.48  4.84
 H -2.63  2.07  5.90
 H -3.58  2.76  4.55
 H -1.94  2.16  4.27
