35
#
 C  0.06  0.94  0.17
 C  0.21  0.45  1.59
 O  1.28  0.57  2.19
 H  1.01  0.82 -0.36
 H -0.18  2.02  0.21
 H -0.74  0.44 -0.40
 N -0.92 -0.15  2.10
 C -1.27 -0.38  3.51
 C -1.33  0.99  4.26
 O -0.84  2.00  3.77
 H -1.73 -0.06  1.49
 H -2.31 -0.72  3.46
 C -0.52 -1.58  4.15
 C  1.00 -1.53  4.41
 C  1.44 -1.05  5.80
 N  0.82  0.18  6.26
 C  1.29  1.47  6.04
 N  2.13  1.61  4.94
 N  0.93  2.38  6.89
 H -0.72 -2.42  3.47
 H -1.03 -1.83  5.09
 H  1.49 -0.93  3.63
 H  1.40 -2.55  4.29
 H  2.54 -0.97  5.82
 H  1.17 -1.82  6.54
 H  0.37  0.14  7.16
 H  2.31  2.59  4.73
 H  1.84  1.12  4.09
 H  1.22  3.31  6.57
 N -2.05  1.05  5.42
 C -2.63 -0.02  6.19
 H -1.87  1.93  5.91
 H -3.37  0.40  6.88
 H -1.90 -0.59  6.78
 H -3.17 -0.73  5.54
