35
#
 C  0.39 -0.38  0.16
 C  0.22 -0.48  1.66
 O  1.17 -0.70  2.42
 H  1.19 -1.07 -0.16
 H  0.70  0.65 -0.07
 H -0.53 -0.60 -0.40
 N -1.05 -0.24  2.11
 C -1.36 -0.11  3.53
 C -2.21 -1.31  3.97
 O -3.41 -1.37  3.69
 H -1.79 -0.10  1.44
 H -0.39 -0.12  4.03
 C -2.10  1.20  3.84
 C -1.47  2.46  3.23
 C -0.01  2.70  3.62
 N  0.54  3.96  3.13
 C  0.93  4.10  1.81
 N  1.33  5.42  1.53
 N  0.89  3.11  0.98
 H -2.15  1.30  4.94
 H -3.14  1.10  3.50
 H -2.07  3.33  3.55
 H -1.53  2.43  2.13
 H  0.63  1.90  3.22
 H  0.10  2.69  4.71
 H  0.16  4.80  3.55
 H  1.76  5.53  0.61
 H  1.89  5.86  2.26
 H  1.34  3.37  0.10
 N -1.58 -2.32  4.63
 C -0.18 -2.43  5.03
 H -2.21 -3.09  4.88
 H  0.01 -1.94  5.99
 H  0.48 -2.00  4.26
 H  0.07 -3.49  5.12
