35
#
 C  0.15 -0.29 -0.34
 C -0.00  0.42  0.99
 O  0.25  1.62  1.13
 H -0.11 -1.36 -0.30
 H  1.19 -0.19 -0.67
 H -0.48  0.20 -1.08
 N -0.47 -0.35  2.02
 C -0.57  0.15  3.37
 C -0.49 -1.07  4.30
 O -0.62 -2.22  3.87
 H -0.55 -1.36  1.94
 H  0.29  0.82  3.56
 C -1.85  1.01  3.59
 C -3.19  0.28  3.39
 C -3.68 -0.49  4.62
 N -4.99 -1.09  4.34
 C -5.64 -1.91  5.26
 N -5.42 -1.56  6.60
 N -6.41 -2.91  5.00
 H -1.77  1.83  2.87
 H -1.82  1.47  4.59
 H -3.10 -0.41  2.53
 H -3.96  1.01  3.11
 H -3.78  0.22  5.46
 H -2.96 -1.25  4.93
 H -5.07 -1.46  3.40
 H -5.40 -0.56  6.79
 H -6.05 -2.06  7.21
 H -6.39 -3.15  4.01
 N -0.28 -0.79  5.61
 C -0.31 -1.81  6.65
 H -0.21  0.19  5.89
 H -1.29 -1.85  7.15
 H  0.47 -1.61  7.40
 H -0.12 -2.77  6.18
