35
#
 C  0.49 -0.11  0.77
 C -0.04 -0.07  2.20
 O  0.72 -0.09  3.17
 H  1.58 -0.19  0.82
 H  0.24  0.82  0.23
 H  0.09 -0.95  0.20
 N -1.40 -0.03  2.38
 C -2.45  0.09  1.38
 C -3.38  1.25  1.82
 O -3.68  1.40  3.00
 H -1.70  0.10  3.34
 H -1.99  0.33  0.41
 C -3.29 -1.19  1.25
 C -2.50 -2.40  0.74
 C -3.34 -3.68  0.73
 N -2.56 -4.80  0.21
 C -3.07 -6.09  0.14
 N -3.83 -6.46  1.25
 N -2.82 -6.80 -0.90
 H -4.14 -0.99  0.58
 H -3.73 -1.41  2.24
 H -1.62 -2.57  1.37
 H -2.14 -2.20 -0.28
 H -4.27 -3.52  0.14
 H -3.67 -3.90  1.75
 H -2.09 -4.59 -0.67
 H -4.04 -7.46  1.30
 H -3.52 -6.09  2.15
 H -3.12 -7.77 -0.78
 N -3.85  2.02  0.80
 C -4.79  3.11  1.02
 H -3.52  1.84 -0.14
 H -4.36  4.07  0.72
 H -5.02  3.13  2.09
 H -5.72  2.94  0.45
