35
#
 C  0.86 -1.95  1.46
 C  0.60 -0.49  1.75
 O  1.50  0.29  2.04
 H  0.93 -2.10  0.37
 H  0.08 -2.63  1.83
 H  1.82 -2.22  1.90
 N -0.69 -0.02  1.65
 C -1.95 -0.71  1.36
 C -2.27 -1.81  2.42
 O -2.37 -2.99  2.12
 H -0.74  0.98  1.82
 H -2.72  0.07  1.50
 C -2.08 -1.28 -0.06
 C -1.62 -0.32 -1.17
 C -2.39  1.01 -1.26
 N -3.85  0.89 -1.42
 C -4.43  0.23 -2.49
 N -3.80  0.45 -3.72
 N -5.46 -0.52 -2.27
 H -3.12 -1.57 -0.21
 H -1.51 -2.21 -0.12
 H -1.72 -0.85 -2.13
 H -0.56 -0.08 -1.05
 H -1.99  1.60 -2.10
 H -2.22  1.62 -0.37
 H -4.34  0.63 -0.57
 H -3.41  1.37 -3.85
 H -4.33  0.13 -4.52
 H -5.89 -0.85 -3.14
 N -2.43 -1.39  3.71
 C -2.31 -0.05  4.27
 H -2.58 -2.16  4.35
 H -2.84  0.68  3.65
 H -1.27  0.27  4.38
 H -2.79 -0.05  5.25
