35
#
 C -0.10 -1.28  1.83
 C -0.34  0.09  2.44
 O  0.60  0.77  2.87
 H  0.98 -1.42  1.73
 H -0.58 -1.40  0.85
 H -0.50 -2.06  2.48
 N -1.62  0.55  2.56
 C -2.78  0.22  1.73
 C -3.15 -1.28  1.74
 O -3.24 -1.93  0.70
 H -1.66  1.52  2.89
 H -3.63  0.74  2.22
 C -2.67  0.77  0.30
 C -2.73  2.30  0.16
 C -1.63  3.14  0.81
 N -1.92  3.42  2.24
 C -1.00  4.19  3.00
 N  0.30  3.74  2.92
 N -1.31  5.20  3.74
 H -3.48  0.33 -0.30
 H -1.74  0.40 -0.15
 H -3.72  2.66  0.50
 H -2.71  2.52 -0.92
 H -1.52  4.09  0.26
 H -0.66  2.64  0.75
 H -2.85  3.83  2.33
 H  0.91  4.23  3.56
 H  0.45  2.72  2.89
 H -2.28  5.49  3.59
 N -3.39 -1.84  2.96
 C -3.37 -1.24  4.28
 H -3.61 -2.83  2.89
 H -2.35 -1.14  4.68
 H -3.96 -1.86  4.96
 H -3.82 -0.24  4.26
