35
#
 C -0.52  0.54 -0.40
 C  0.11 -0.11  0.81
 O  1.05 -0.89  0.71
 H -0.03  0.14 -1.29
 H -0.39  1.64 -0.39
 H -1.60  0.35 -0.47
 N -0.40  0.22  2.04
 C -1.47  1.14  2.35
 C -1.17  1.72  3.74
 O -0.48  1.08  4.55
 H  0.10 -0.16  2.85
 H -1.48  1.95  1.61
 C -2.87  0.45  2.32
 C -3.13 -0.55  3.46
 C -3.85  0.08  4.67
 N -3.84 -0.75  5.86
 C -3.26 -0.39  7.07
 N -2.28  0.60  6.99
 N -3.56 -0.88  8.23
 H -2.94 -0.05  1.35
 H -3.66  1.23  2.32
 H -2.18 -0.99  3.80
 H -3.73 -1.39  3.09
 H -4.89  0.31  4.38
 H -3.39  1.04  4.93
 H -4.57 -1.44  5.95
 H -1.82  0.70  7.89
 H -1.61  0.53  6.22
 H -4.38 -1.49  8.17
 N -1.72  2.91  4.08
 C -2.62  3.76  3.32
 H -1.56  3.16  5.06
 H -2.38  3.72  2.25
 H -2.50  4.79  3.65
 H -3.67  3.47  3.44
