35
#
 C  1.11  0.57  0.00
 C  0.81  0.54  1.49
 O  1.59  1.03  2.31
 H  2.08  0.09 -0.17
 H  1.19  1.61 -0.31
 H  0.35  0.07 -0.62
 N -0.36 -0.08  1.83
 C -0.95 -0.20  3.17
 C -1.80  1.07  3.49
 O -2.97  1.08  3.09
 H -0.98 -0.34  1.07
 H -1.75 -0.95  3.05
 C  0.01 -0.75  4.23
 C -0.69 -1.01  5.57
 C  0.23 -1.59  6.64
 N  1.26 -0.64  7.03
 C  2.05 -0.86  8.15
 N  3.08  0.08  8.27
 N  1.94 -1.79  9.04
 H  0.87 -0.08  4.35
 H  0.42 -1.69  3.83
 H -1.51 -1.73  5.41
 H -1.15 -0.09  5.95
 H  0.66 -2.55  6.30
 H -0.37 -1.81  7.54
 H  1.78 -0.23  6.25
 H  3.57 -0.02  9.15
 H  2.80  1.04  8.08
 H  1.25 -2.49  8.77
 N -1.29  2.14  4.16
 C  0.03  2.41  4.72
 H -2.00  2.86  4.28
 H  0.14  3.50  4.81
 H  0.81  2.05  4.05
 H  0.15  1.97  5.72
