35
#
 C -0.05 -0.11  0.09
 C -0.07  0.16  1.58
 O  0.96  0.39  2.21
 H  0.80  0.44 -0.34
 H -0.96  0.17 -0.44
 H  0.12 -1.18 -0.08
 N -1.28  0.06  2.25
 C -2.64  0.08  1.70
 C -2.92 -1.14  0.78
 O -3.63 -1.05 -0.22
 H -1.18  0.32  3.22
 H -3.29 -0.07  2.57
 C -3.04  1.42  1.05
 C -4.55  1.68  1.08
 C -4.95  3.02  0.45
 N -4.40  4.21  1.08
 C -4.86  4.68  2.30
 N -4.06  5.71  2.81
 N -5.89  4.29  2.98
 H -2.68  1.46  0.01
 H -2.52  2.21  1.61
 H -4.91  1.64  2.12
 H -5.07  0.88  0.53
 H -6.05  3.12  0.44
 H -4.64  3.04 -0.61
 H -3.42  4.40  0.90
 H -4.49  6.13  3.63
 H -3.78  6.41  2.13
 H -6.32  3.46  2.57
 N -2.36 -2.30  1.21
 C -2.51 -3.55  0.50
 H -1.72 -2.24  1.99
 H -2.85 -4.35  1.17
 H -1.56 -3.87  0.04
 H -3.25 -3.41 -0.29
