35
#
 C  0.45  1.11  0.24
 C  0.20  0.23  1.45
 O  1.02 -0.58  1.86
 H  1.52  1.28  0.14
 H -0.08  2.07  0.29
 H  0.10  0.58 -0.66
 N -1.01  0.43  2.06
 C -1.62 -0.39  3.10
 C -0.62 -0.95  4.13
 O -0.59 -2.15  4.41
 H -1.64  1.07  1.58
 H -2.23  0.33  3.69
 C -2.64 -1.42  2.55
 C -2.21 -2.81  2.04
 C -1.02 -2.91  1.09
 N -1.19 -2.10 -0.11
 C -0.25 -2.08 -1.13
 N  1.06 -2.30 -0.72
 N -0.67 -1.87 -2.34
 H -3.19 -0.89  1.76
 H -3.38 -1.59  3.35
 H -3.10 -3.25  1.55
 H -1.98 -3.44  2.90
 H -0.87 -3.98  0.84
 H -0.12 -2.59  1.62
 H -2.12 -2.13 -0.52
 H  1.75 -2.07 -1.43
 H  1.31 -1.94  0.20
 H  0.12 -1.78 -2.99
 N  0.12 -0.05  4.84
 C  0.29  1.37  4.64
 H  0.78 -0.52  5.47
 H  1.01  1.61  3.83
 H  0.67  1.82  5.57
 H -0.66  1.85  4.41
