35
#
 C  0.76 -0.24  0.07
 C  0.42 -0.33  1.55
 O  1.26 -0.65  2.39
 H  1.18 -1.20 -0.25
 H  1.53  0.52 -0.06
 H -0.10  0.00 -0.56
 N -0.87  0.02  1.88
 C -1.43 -0.17  3.22
 C -2.96  0.01  3.25
 O -3.62 -0.71  3.98
 H -1.53  0.03  1.11
 H -1.31 -1.24  3.49
 C -0.75  0.61  4.37
 C -0.69  2.14  4.32
 C  0.33  2.73  3.33
 N  0.55  4.16  3.48
 C  1.35  4.67  4.50
 N  1.26  6.07  4.59
 N  2.12  4.04  5.31
 H  0.27  0.21  4.46
 H -1.28  0.30  5.28
 H -0.42  2.49  5.33
 H -1.69  2.57  4.13
 H  0.02  2.55  2.29
 H  1.29  2.21  3.44
 H -0.24  4.75  3.25
 H  1.95  6.42  5.24
 H  1.30  6.55  3.69
 H  2.02  3.02  5.23
 N -3.59  0.92  2.42
 C -3.10  2.14  1.79
 H -4.59  0.87  2.56
 H -3.53  2.24  0.79
 H -2.01  2.11  1.69
 H -3.37  3.03  2.38
