35
#
 C -0.82 -0.98  0.36
 C -1.68  0.20  0.77
 O -1.34  1.37  0.55
 H -0.10 -1.20  1.16
 H -0.26 -0.72 -0.54
 H -1.41 -1.89  0.18
 N -2.85 -0.13  1.40
 C -3.78  0.82  2.01
 C -4.07  2.08  1.16
 O -4.07  3.19  1.67
 H -2.98 -1.10  1.62
 H -4.75  0.27  2.04
 C -3.43  1.18  3.47
 C -2.17  2.04  3.69
 C -1.08  1.37  4.52
 N -0.49  0.17  3.91
 C  0.75  0.17  3.27
 N  1.04  1.36  2.60
 N  1.49 -0.88  3.37
 H -3.34  0.22  4.01
 H -4.31  1.69  3.89
 H -2.46  2.97  4.21
 H -1.76  2.37  2.73
 H -1.49  1.06  5.50
 H -0.28  2.10  4.73
 H -0.58 -0.69  4.45
 H  0.28  1.75  2.05
 H  1.90  1.30  2.06
 H  2.31 -0.81  2.76
 N -4.46  1.91 -0.14
 C -4.54  0.70 -0.94
 H -4.59  2.79 -0.61
 H -5.22  0.89 -1.78
 H -4.95 -0.13 -0.36
 H -3.57  0.39 -1.35
