35
#
 C -0.01 -0.11 -0.06
 C  0.03  0.02  1.45
 O  1.11  0.17  2.05
 H  0.59 -0.98 -0.35
 H  0.47  0.77 -0.50
 H -1.02 -0.22 -0.47
 N -1.18 -0.03  2.07
 C -1.54 -0.04  3.51
 C -1.08  1.16  4.38
 O -1.83  1.51  5.30
 H -1.98 -0.13  1.45
 H -2.63  0.08  3.51
 C -1.26 -1.38  4.22
 C  0.20 -1.72  4.53
 C  0.32 -3.04  5.29
 N  1.72 -3.34  5.57
 C  2.12 -4.51  6.19
 N  1.25 -4.97  7.18
 N  3.22 -5.07  5.81
 H -1.71 -2.18  3.61
 H -1.84 -1.35  5.16
 H  0.65 -0.92  5.14
 H  0.78 -1.77  3.61
 H -0.16 -3.85  4.71
 H -0.24 -2.96  6.23
 H  2.35 -3.14  4.80
 H  1.64 -5.68  7.78
 H  0.76 -4.25  7.71
 H  3.48 -5.85  6.42
 N  0.11  1.73  4.11
 C  0.64  2.81  4.92
 H  0.70  1.26  3.41
 H  1.35  3.39  4.32
 H  1.15  2.44  5.82
 H -0.18  3.46  5.24
