35
#
 C  0.47  0.85  0.60
 C  0.08 -0.09  1.73
 O  0.94 -0.74  2.32
 H  0.19  1.89  0.82
 H  0.01  0.58 -0.36
 H  1.56  0.79  0.50
 N -1.24 -0.22  2.13
 C -2.56  0.23  1.67
 C -3.45 -0.95  1.21
 O -4.55 -1.11  1.74
 H -1.28 -0.88  2.90
 H -3.09  0.58  2.57
 C -2.57  1.38  0.66
 C -3.98  1.88  0.33
 C -3.99  2.88 -0.84
 N -3.60  2.30 -2.13
 C -2.27  2.06 -2.49
 N -1.38  3.06 -2.11
 N -1.82  1.03 -3.14
 H -2.07  1.07 -0.27
 H -1.98  2.21  1.07
 H -4.43  2.36  1.21
 H -4.64  1.04  0.08
 H -3.32  3.73 -0.62
 H -5.00  3.30 -0.96
 H -4.20  1.53 -2.42
 H -0.48  2.92 -2.55
 H -1.72  4.01 -2.21
 H -2.55  0.32 -3.24
 N -3.02 -1.79  0.23
 C -1.77 -1.84 -0.52
 H -3.69 -2.54  0.05
 H -1.86 -2.62 -1.28
 H -0.91 -2.08  0.12
 H -1.56 -0.89 -1.04
