35
#
 C  0.05 -1.22  0.30
 C  0.08 -1.28  1.82
 O  0.82 -2.04  2.43
 H -0.21 -2.22 -0.08
 H  1.06 -0.98 -0.06
 H -0.66 -0.49 -0.10
 N -0.78 -0.42  2.45
 C -0.91 -0.38  3.90
 C -2.41 -0.26  4.21
 O -3.04  0.72  3.80
 H -1.41  0.17  1.92
 H -0.47 -1.31  4.27
 C -0.12  0.82  4.48
 C -0.09  0.99  6.01
 C -1.24  1.79  6.66
 N -2.39  0.99  7.03
 C -3.72  1.22  6.79
 N -4.09  2.52  6.46
 N -4.54  0.22  6.91
 H -0.51  1.74  4.02
 H  0.91  0.69  4.12
 H  0.84  1.53  6.25
 H  0.01  0.01  6.51
 H -1.56  2.57  5.95
 H -0.84  2.32  7.54
 H -2.22  0.08  7.45
 H -4.86  2.56  5.80
 H -3.34  3.15  6.20
 H -5.51  0.54  6.84
 N -3.00 -1.25  4.94
 C -2.33 -2.40  5.53
 H -3.86 -0.94  5.41
 H -3.10 -3.03  5.98
 H -1.61 -2.13  6.32
 H -1.81 -2.99  4.77
