35
#
 C  0.34 -1.01  1.53
 C  0.00 -1.11  3.00
 O  0.82 -1.53  3.83
 H -0.18 -1.78  0.96
 H  1.42 -1.19  1.42
 H  0.09 -0.03  1.11
 N -1.25 -0.74  3.40
 C -2.39 -0.37  2.59
 C -2.85  1.04  2.99
 O -3.02  1.34  4.17
 H -1.39 -0.72  4.41
 H -2.07 -0.38  1.54
 C -3.58 -1.34  2.76
 C -3.35 -2.80  2.34
 C -2.70 -3.75  3.38
 N -1.26 -3.97  3.29
 C -0.62 -4.58  2.23
 N -1.45 -5.33  1.39
 N  0.64 -4.50  1.94
 H -4.41 -0.93  2.16
 H -3.91 -1.29  3.81
 H -2.78 -2.86  1.40
 H -4.34 -3.22  2.10
 H -3.21 -4.72  3.33
 H -2.90 -3.37  4.39
 H -0.66 -3.34  3.82
 H -0.89 -5.90  0.77
 H -2.17 -5.87  1.86
 H  1.12 -3.84  2.56
 N -3.07  1.90  1.95
 C -3.55  3.26  2.14
 H -2.88  1.58  1.01
 H -2.82  3.99  1.77
 H -3.68  3.41  3.22
 H -4.51  3.42  1.64
