35
#
 C -0.11 -0.57  0.40
 C -0.19 -0.40  1.91
 O  0.79 -0.56  2.63
 H -0.70 -1.44  0.08
 H  0.94 -0.74  0.15
 H -0.47  0.31 -0.13
 N -1.41 -0.07  2.46
 C -2.71  0.13  1.83
 C -3.16 -1.18  1.11
 O -3.21 -2.21  1.78
 H -1.38 -0.10  3.47
 H -3.42  0.13  2.68
 C -2.86  1.50  1.15
 C -2.64  2.65  2.14
 C -2.78  4.02  1.47
 N -2.53  5.09  2.41
 C -2.98  6.37  2.14
 N -2.64  7.31  3.13
 N -3.71  6.61  1.10
 H -3.87  1.58  0.73
 H -2.15  1.61  0.32
 H -1.63  2.56  2.58
 H -3.35  2.58  2.97
 H -3.80  4.17  1.08
 H -2.11  4.09  0.59
 H -1.67  5.02  2.94
 H -2.54  8.26  2.80
 H -1.92  7.04  3.79
 H -4.06  7.57  1.11
 N -3.55 -1.21 -0.21
 C -3.46 -0.25 -1.30
 H -3.86 -2.14 -0.46
 H -4.18  0.57 -1.21
 H -2.45  0.18 -1.40
 H -3.68 -0.78 -2.23
