35
#
 C -1.85 -1.76  0.42
 C -0.72 -0.81  0.77
 O  0.46 -1.18  0.80
 H -2.36 -1.46 -0.51
 H -2.61 -1.81  1.21
 H -1.42 -2.76  0.28
 N -1.06  0.49  1.03
 C -2.38  1.09  1.05
 C -2.18  2.57  0.69
 O -1.17  3.18  1.05
 H -0.29  1.14  1.22
 H -3.01  0.61  0.29
 C -3.08  0.91  2.44
 C -4.61  0.87  2.38
 C -5.31  2.24  2.40
 N -6.67  2.22  1.88
 C -6.91  2.12  0.53
 N -8.25  1.89  0.22
 N -5.94  2.20 -0.34
 H -2.72  1.68  3.13
 H -2.72 -0.05  2.84
 H -4.99  0.27  3.23
 H -4.92  0.34  1.47
 H -4.75  2.97  1.80
 H -5.35  2.64  3.42
 H -7.36  1.76  2.47
 H -8.48  1.99 -0.76
 H -8.92  2.36  0.82
 H -6.30  2.20 -1.29
 N -3.17  3.14 -0.04
 C -3.14  4.56 -0.35
 H -4.06  2.63 -0.21
 H -4.12  4.83 -0.76
 H -2.37  4.79 -1.10
 H -2.94  5.16  0.54
