35
#
 C -0.65 -1.30 -0.88
 C -0.72 -0.82  0.56
 O -0.07 -1.35  1.46
 H -0.89 -2.37 -0.91
 H -1.33 -0.76 -1.55
 H  0.38 -1.18 -1.23
 N -1.57  0.23  0.79
 C -1.68  0.88  2.10
 C -3.15  0.92  2.56
 O -3.78  1.97  2.71
 H -2.04  0.66  0.00
 H -1.12  0.23  2.78
 C -1.01  2.27  2.13
 C -1.44  3.23  1.01
 C -1.03  4.69  1.29
 N -1.42  5.20  2.62
 C -2.68  5.74  2.88
 N -3.74  4.98  2.39
 N -2.74  6.86  3.52
 H  0.08  2.12  2.09
 H -1.23  2.73  3.10
 H -2.53  3.19  0.87
 H -0.98  2.95  0.05
 H -1.43  5.33  0.49
 H  0.06  4.76  1.25
 H -0.73  5.83  3.01
 H -4.65  5.33  2.67
 H -3.66  3.96  2.49
 H -3.70  7.07  3.79
 N -3.75 -0.28  2.82
 C -3.21 -1.62  2.71
 H -4.72 -0.18  3.08
 H -3.40 -2.07  1.72
 H -3.67 -2.25  3.48
 H -2.12 -1.63  2.87
