35
#
 C -1.92  2.46 -0.88
 C -1.46  1.49  0.19
 O -0.33  1.00  0.21
 H -1.99  1.93 -1.84
 H -1.17  3.25 -0.99
 H -2.90  2.91 -0.65
 N -2.40  1.18  1.13
 C -2.11  0.28  2.23
 C -3.38 -0.49  2.58
 O -4.51 -0.01  2.42
 H -3.31  1.63  1.10
 H -1.35 -0.41  1.85
 C -1.49  1.00  3.47
 C -2.04  2.40  3.76
 C -3.45  2.47  4.38
 N -4.13  3.74  4.13
 C -4.63  3.99  2.85
 N -4.70  5.36  2.55
 N -5.00  3.14  1.96
 H -0.41  1.09  3.27
 H -1.59  0.35  4.35
 H -2.05  2.97  2.82
 H -1.33  2.93  4.42
 H -3.40  2.32  5.47
 H -4.10  1.67  4.00
 H -3.63  4.54  4.52
 H -5.30  5.52  1.75
 H -4.94  5.96  3.34
 H -4.91  2.17  2.29
 N -3.22 -1.72  3.13
 C -1.98 -2.48  3.29
 H -4.09 -2.18  3.37
 H -2.23 -3.46  3.70
 H -1.28 -1.99  3.98
 H -1.47 -2.64  2.33
