35
#
 C -0.65  1.81 -0.59
 C -0.11  0.84  0.45
 O  1.09  0.65  0.62
 H  0.20  2.34 -1.02
 H -1.35  2.54 -0.15
 H -1.19  1.28 -1.38
 N -1.04  0.17  1.21
 C -2.50  0.19  1.10
 C -3.20  1.24  2.00
 O -4.42  1.39  1.92
 H -0.63 -0.51  1.85
 H -2.77  0.47  0.07
 C -3.09 -1.20  1.38
 C -2.74 -2.24  0.31
 C -3.30 -3.62  0.64
 N -2.96 -4.57 -0.40
 C -3.45 -5.87 -0.37
 N -2.89 -6.67 -1.37
 N -4.31 -6.38  0.45
 H -4.18 -1.08  1.45
 H -2.75 -1.54  2.38
 H -1.64 -2.31  0.21
 H -3.12 -1.91 -0.66
 H -4.40 -3.56  0.70
 H -2.94 -3.94  1.63
 H -2.01 -4.50 -0.75
 H -3.35 -7.58 -1.40
 H -2.83 -6.24 -2.28
 H -4.53 -5.73  1.21
 N -2.39  1.95  2.82
 C -2.88  2.99  3.71
 H -1.39  1.75  2.78
 H -3.96  3.04  3.58
 H -2.43  3.96  3.47
 H -2.65  2.74  4.76
