35
#
 C -3.93  1.53  1.36
 C -2.67  1.03  2.04
 O -1.60  0.95  1.43
 H -4.80  1.60  2.03
 H -4.17  0.85  0.54
 H -3.73  2.51  0.92
 N -2.80  0.69  3.35
 C -1.79  0.07  4.23
 C -0.64  1.01  4.63
 O -0.31  1.10  5.83
 H -3.71  0.84  3.77
 H -2.31 -0.12  5.17
 C -1.30 -1.30  3.67
 C -0.70 -2.26  4.72
 C  0.82 -2.38  4.76
 N  1.46 -1.16  5.22
 C  2.81 -0.98  5.17
 N  3.22  0.28  5.63
 N  3.58 -1.90  4.68
 H -0.59 -1.14  2.85
 H -2.19 -1.77  3.22
 H -1.09 -3.27  4.53
 H -1.07 -1.99  5.73
 H  1.21 -2.62  3.76
 H  1.10 -3.23  5.40
 H  0.90 -0.50  5.76
 H  4.16  0.28  6.03
 H  2.56  0.77  6.22
 H  4.55 -1.58  4.65
 N -0.02  1.66  3.63
 C  1.12  2.53  3.85
 H -0.34  1.46  2.68
 H  1.18  3.26  3.03
 H  2.06  1.96  3.88
 H  1.01  3.06  4.80
