35
#
 C  0.07 -0.09  0.05
 C  0.01  0.21  1.54
 O  0.97  0.65  2.16
 H -0.90 -0.38 -0.39
 H  0.78 -0.91 -0.12
 H  0.45  0.79 -0.47
 N -1.20 -0.04  2.14
 C -1.44  0.08  3.57
 C -0.96  1.44  4.16
 O -0.30  1.48  5.19
 H -1.94 -0.44  1.57
 H -2.54  0.07  3.69
 C -0.84 -1.08  4.39
 C -1.19 -2.48  3.87
 C -2.69 -2.80  3.85
 N -3.00 -4.18  3.50
 C -2.98 -5.16  4.48
 N -3.22 -6.45  3.98
 N -2.85 -4.85  5.72
 H -1.18 -0.97  5.43
 H  0.25 -0.95  4.41
 H -0.70 -3.22  4.52
 H -0.77 -2.63  2.86
 H -3.23 -2.15  3.14
 H -3.12 -2.63  4.85
 H -2.72 -4.47  2.57
 H -2.82 -7.20  4.54
 H -3.08 -6.60  2.99
 H -2.98 -5.66  6.33
 N -1.39  2.58  3.55
 C -2.20  2.77  2.36
 H -1.00  3.41  3.98
 H -2.65  3.77  2.40
 H -3.03  2.05  2.33
 H -1.63  2.68  1.43
