35
#
 C -1.87 -0.88  0.70
 C -1.77  0.07  1.89
 O -1.29 -0.31  2.96
 H -2.55 -1.70  0.96
 H -0.88 -1.32  0.51
 H -2.23 -0.41 -0.23
 N -2.26  1.32  1.65
 C -2.41  2.47  2.56
 C -1.40  3.62  2.29
 O -1.85  4.76  2.10
 H -2.61  1.48  0.72
 H -3.36  2.94  2.26
 C -2.53  2.16  4.06
 C -3.74  1.30  4.41
 C -3.81  1.02  5.92
 N -4.92  0.18  6.33
 C -6.20  0.70  6.45
 N -7.16 -0.29  6.71
 N -6.41  1.97  6.30
 H -2.62  3.14  4.56
 H -1.61  1.69  4.43
 H -3.68  0.33  3.88
 H -4.67  1.80  4.10
 H -3.91  1.97  6.46
 H -2.88  0.54  6.25
 H -4.89 -0.78  6.00
 H -6.85 -1.01  7.36
 H -8.07  0.08  6.96
 H -7.38  2.21  6.55
 N -0.06  3.39  2.30
 C  0.69  2.16  2.48
 H  0.47  4.23  2.09
 H  1.62  2.38  3.02
 H  0.95  1.68  1.52
 H  0.12  1.43  3.07
