35
#
 C  0.07 -0.14  0.01
 C  0.09 -0.20  1.52
 O  1.12 -0.39  2.17
 H -0.59  0.64 -0.38
 H -0.26 -1.10 -0.39
 H  1.10  0.05 -0.32
 N -1.11 -0.08  2.20
 C -2.44  0.29  1.73
 C -2.92 -0.55  0.52
 O -3.32 -0.03 -0.52
 H -0.98 -0.16  3.20
 H -3.12  0.02  2.56
 C -2.62  1.79  1.46
 C -2.34  2.68  2.68
 C -0.91  3.24  2.79
 N -0.57  4.14  1.70
 C  0.40  3.89  0.74
 N  0.30  4.79 -0.34
 N  1.30  2.98  0.70
 H -3.66  1.93  1.12
 H -2.00  2.10  0.60
 H -2.57  2.15  3.61
 H -3.02  3.54  2.66
 H -0.17  2.42  2.79
 H -0.80  3.76  3.75
 H -1.34  4.72  1.38
 H  1.12  4.69 -0.94
 H  0.16  5.76 -0.06
 H  1.24  2.32  1.49
 N -2.92 -1.91  0.67
 C -2.54 -2.71  1.82
 H -3.23 -2.40 -0.16
 H -3.00 -3.70  1.72
 H -2.92 -2.28  2.76
 H -1.45 -2.84  1.92
