35
#
 C  3.53 -0.92  0.28
 C  2.67  0.11  0.99
 O  2.61  1.28  0.63
 H  4.57 -0.56  0.27
 H  3.19 -0.99 -0.76
 H  3.49 -1.91  0.73
 N  1.97 -0.35  2.07
 C  1.15  0.53  2.87
 C  1.17 -0.02  4.31
 O  1.22 -1.24  4.52
 H  2.06 -1.31  2.41
 H  1.62  1.52  2.84
 C -0.30  0.62  2.32
 C -1.11  1.78  2.90
 C -0.64  3.16  2.40
 N -0.93  4.26  3.32
 C -0.27  4.42  4.53
 N  1.06  3.95  4.54
 N -0.74  4.93  5.62
 H -0.80 -0.34  2.50
 H -0.21  0.73  1.23
 H -1.06  1.76  4.00
 H -2.18  1.64  2.65
 H -1.12  3.40  1.44
 H  0.43  3.14  2.19
 H -1.91  4.52  3.38
 H  1.53  4.34  5.36
 H  1.58  4.16  3.69
 H -1.74  5.12  5.54
 N  1.09  0.92  5.28
 C  1.01  0.58  6.69
 H  1.11  1.91  5.01
 H  0.47  1.36  7.22
 H  2.01  0.47  7.14
 H  0.49 -0.38  6.80
