35
#
 C  0.50 -0.89  0.80
 C  0.05 -0.38  2.15
 O  0.60  0.56  2.72
 H  0.53 -0.04  0.09
 H -0.13 -1.68  0.38
 H  1.53 -1.27  0.89
 N -1.02 -1.04  2.70
 C -1.50 -0.74  4.05
 C -2.12 -2.02  4.65
 O -1.52 -2.69  5.48
 H -1.40 -1.85  2.22
 H -0.62 -0.52  4.66
 C -2.44  0.48  4.07
 C -2.97  0.78  5.48
 C -4.11  1.81  5.48
 N -4.95  1.78  6.67
 C -5.84  0.74  6.89
 N -6.38  0.75  8.17
 N -6.18 -0.20  6.06
 H -3.29  0.31  3.38
 H -1.89  1.34  3.67
 H -2.15  1.12  6.12
 H -3.36 -0.15  5.94
 H -4.77  1.65  4.61
 H -3.72  2.83  5.37
 H -4.51  2.14  7.52
 H -7.13  0.07  8.26
 H -6.65  1.67  8.52
 H -5.62 -0.16  5.21
 N -3.37 -2.34  4.18
 C -4.17 -3.41  4.74
 H -3.84 -1.66  3.59
 H -4.99 -3.01  5.36
 H -3.51 -4.02  5.37
 H -4.58 -4.04  3.95
