35
#
 C  0.91  0.21  0.78
 C  0.27  0.11  2.15
 O  0.86  0.47  3.18
 H  0.32 -0.25 -0.02
 H  1.90 -0.26  0.82
 H  1.06  1.28  0.55
 N -0.98 -0.43  2.20
 C -1.77 -0.49  3.43
 C -1.69  0.88  4.16
 O -1.95  1.91  3.53
 H -1.46 -0.58  1.32
 H -2.82 -0.50  3.10
 C -1.56 -1.81  4.21
 C -0.15 -2.38  4.41
 C  0.73 -1.72  5.48
 N  1.98 -2.42  5.73
 C  3.08 -2.28  4.88
 N  4.05 -3.26  5.14
 N  3.29 -1.41  3.96
 H -2.13 -2.57  3.66
 H -2.09 -1.72  5.18
 H  0.39 -2.38  3.46
 H -0.27 -3.44  4.69
 H  0.19 -1.68  6.44
 H  0.97 -0.68  5.20
 H  1.86 -3.36  6.08
 H  4.91 -3.05  4.63
 H  4.24 -3.41  6.13
 H  2.49 -0.80  3.78
 N -1.45  0.87  5.50
 C -1.30  2.11  6.24
 H -1.04  0.03  5.90
 H -2.02  2.84  5.86
 H -0.29  2.53  6.13
 H -1.49  1.92  7.30
