35
#
 C -0.33  0.15 -0.12
 C -0.22  0.40  1.38
 O  0.81  0.83  1.90
 H -1.35 -0.10 -0.45
 H  0.34 -0.67 -0.39
 H  0.02  1.05 -0.65
 N -1.34  0.13  2.11
 C -1.40  0.18  3.57
 C -0.80  1.48  4.17
 O -0.04  1.45  5.13
 H -2.14 -0.26  1.62
 H -2.47  0.20  3.82
 C -0.76 -1.05  4.23
 C -1.48 -2.36  3.89
 C -0.86 -3.59  4.55
 N -0.93 -3.51  6.00
 C -0.12 -4.30  6.79
 N -0.42 -4.16  8.16
 N  0.75 -5.09  6.26
 H -0.76 -0.89  5.31
 H  0.30 -1.10  3.93
 H -1.46 -2.53  2.80
 H -2.54 -2.29  4.16
 H  0.21 -3.68  4.29
 H -1.34 -4.51  4.17
 H -1.86 -3.33  6.38
 H  0.25 -4.62  8.76
 H -0.58 -3.19  8.45
 H  1.35 -5.50  6.97
 N -1.24  2.68  3.66
 C -2.14  2.97  2.56
 H -0.76  3.47  4.09
 H -2.54  3.98  2.69
 H -3.00  2.28  2.56
 H -1.65  2.91  1.58
