35
#
 C -0.87 -0.29  1.87
 C -2.15 -0.47  2.65
 O -2.41  0.21  3.65
 H -0.47 -1.22  1.45
 H -0.13  0.17  2.53
 H -1.05  0.41  1.04
 N -3.06 -1.41  2.22
 C -3.04 -2.32  1.07
 C -1.91 -3.37  1.19
 O -0.98 -3.43  0.39
 H -3.88 -1.46  2.81
 H -3.99 -2.87  1.15
 C -3.01 -1.64 -0.31
 C -3.94 -0.44 -0.51
 C -5.45 -0.69 -0.45
 N -6.03 -0.76  0.89
 C -6.25 -1.91  1.62
 N -6.47 -3.07  0.87
 N -6.25 -2.02  2.91
 H -3.25 -2.42 -1.05
 H -1.98 -1.34 -0.53
 H -3.72 -0.02 -1.50
 H -3.69  0.36  0.21
 H -5.97  0.12 -0.99
 H -5.70 -1.62 -0.99
 H -5.79  0.03  1.48
 H -6.84 -3.81  1.46
 H -7.03 -2.94  0.03
 H -6.00 -1.14  3.37
 N -2.01 -4.25  2.23
 C -2.99 -4.30  3.30
 H -1.21 -4.88  2.29
 H -3.02 -5.32  3.70
 H -4.00 -4.06  2.93
 H -2.76 -3.60  4.11
