35
#
 C  0.15  1.13  1.68
 C -0.83  0.65  2.74
 O -0.52  0.57  3.92
 H  0.39  0.32  0.98
 H  1.06  1.44  2.19
 H -0.25  1.98  1.11
 N -2.10  0.28  2.34
 C -2.73  0.19  1.02
 C -2.07 -0.94  0.17
 O -2.23 -2.09  0.56
 H -2.62 -0.13  3.11
 H -3.70 -0.27  1.24
 C -3.05  1.56  0.40
 C -4.13  1.51 -0.70
 C -5.52  1.10 -0.22
 N -6.02  2.00  0.81
 C -7.12  1.66  1.59
 N -7.51  2.71  2.43
 N -7.78  0.56  1.61
 H -2.16  2.07  0.02
 H -3.42  2.19  1.23
 H -3.84  0.81 -1.50
 H -4.19  2.50 -1.18
 H -5.50  0.09  0.20
 H -6.20  1.06 -1.10
 H -5.97  2.99  0.58
 H -8.23  2.42  3.07
 H -6.74  3.18  2.91
 H -7.51 -0.07  0.85
 N -1.35 -0.71 -0.98
 C -0.94  0.49 -1.69
 H -1.05 -1.60 -1.37
 H -1.79  1.01 -2.18
 H -0.25  0.18 -2.48
 H -0.41  1.20 -1.05
