35
#
 C -2.70 -0.77 -0.31
 C -1.61 -0.74  0.73
 O -0.51 -1.27  0.57
 H -2.29 -1.21 -1.22
 H -3.09  0.24 -0.53
 H -3.57 -1.37  0.01
 N -1.88 -0.07  1.92
 C -3.15  0.47  2.35
 C -3.27  2.00  2.25
 O -4.32  2.57  2.59
 H -1.15 -0.20  2.62
 H -3.90  0.12  1.63
 C -3.55 -0.03  3.77
 C -4.63 -1.13  3.76
 C -6.06 -0.58  3.59
 N -6.29  0.29  2.45
 C -6.27 -0.20  1.15
 N -6.07  0.80  0.20
 N -6.38 -1.43  0.75
 H -3.90  0.82  4.37
 H -2.64 -0.41  4.26
 H -4.59 -1.68  4.71
 H -4.40 -1.86  2.97
 H -6.33 -0.00  4.49
 H -6.77 -1.42  3.55
 H -5.85  1.22  2.55
 H -6.34  0.49 -0.73
 H -6.42  1.72  0.44
 H -6.44 -2.07  1.54
 N -2.19  2.65  1.76
 C -2.15  4.08  1.53
 H -1.41  2.06  1.49
 H -2.08  4.31  0.46
 H -1.29  4.53  2.04
 H -3.07  4.51  1.93
