35
#
 C -0.15 -0.27 -0.01
 C  0.05 -0.16  1.50
 O  1.17 -0.22  2.01
 H  0.83 -0.46 -0.46
 H -0.56  0.66 -0.42
 H -0.83 -1.09 -0.28
 N -1.07  0.02  2.27
 C -2.45  0.03  1.84
 C -3.20  0.95  2.81
 O -3.00  0.86  4.02
 H -0.92  0.08  3.27
 H -2.50  0.42  0.81
 C -3.09 -1.38  1.87
 C -4.47 -1.47  1.23
 C -5.06 -2.89  1.32
 N -6.34 -3.06  0.66
 C -7.50 -2.57  1.23
 N -8.62 -2.74  0.39
 N -7.48 -2.01  2.39
 H -3.13 -1.71  2.92
 H -2.39 -2.07  1.35
 H -4.41 -1.17  0.17
 H -5.18 -0.79  1.72
 H -5.20 -3.16  2.37
 H -4.36 -3.62  0.88
 H -6.33 -3.05 -0.36
 H -9.50 -2.53  0.84
 H -8.65 -3.64 -0.09
 H -8.42 -1.82  2.73
 N -4.09  1.86  2.31
 C -4.42  2.13  0.92
 H -4.57  2.39  3.03
 H -5.03  1.34  0.46
 H -3.52  2.29  0.31
 H -5.01  3.06  0.89
