35
#
 C -0.81  0.42 -0.07
 C -0.92  0.13  1.41
 O  0.07 -0.13  2.09
 H -0.86 -0.53 -0.62
 H  0.17  0.87 -0.25
 H -1.59  1.08 -0.46
 N -2.16  0.11  2.01
 C -3.49  0.55  1.58
 C -3.81  0.22  0.11
 O -4.16  1.09 -0.69
 H -2.07 -0.11  3.00
 H -4.19 -0.07  2.16
 C -3.83  2.01  1.94
 C -2.89  3.14  1.49
 C -1.79  3.57  2.50
 N -0.45  3.05  2.32
 C  0.42  3.42  1.30
 N  0.05  4.56  0.59
 N  1.50  2.80  0.96
 H -3.94  2.06  3.04
 H -4.83  2.19  1.53
 H -3.52  4.02  1.30
 H -2.42  2.92  0.52
 H -2.10  3.28  3.52
 H -1.75  4.67  2.53
 H -0.23  2.15  2.73
 H  0.82  4.88  0.01
 H -0.37  5.31  1.13
 H  1.60  1.92  1.48
 N -3.77 -1.10 -0.25
 C -3.42 -2.26  0.54
 H -3.98 -1.24 -1.24
 H -3.85 -3.15  0.07
 H -3.83 -2.19  1.55
 H -2.33 -2.41  0.63
