35
#
 C -0.64 -0.33 -0.11
 C -0.01 -0.49  1.26
 O  0.96 -1.21  1.47
 H -0.72  0.72 -0.41
 H -1.66 -0.75 -0.12
 H -0.03 -0.88 -0.82
 N -0.57  0.24  2.30
 C -1.76  1.08  2.27
 C -1.49  2.57  1.94
 O -2.43  3.36  1.86
 H -0.15  0.03  3.20
 H -2.41  0.74  1.45
 C -2.59  0.94  3.57
 C -1.87  1.21  4.90
 C -1.43  2.67  5.13
 N -0.98  2.94  6.49
 C -1.89  3.10  7.54
 N -1.25  3.14  8.78
 N -3.17  3.20  7.48
 H -2.99 -0.09  3.59
 H -3.44  1.62  3.47
 H -1.00  0.54  5.03
 H -2.56  0.93  5.71
 H -2.25  3.35  4.89
 H -0.61  2.94  4.46
 H -0.11  2.50  6.76
 H -1.90  3.40  9.51
 H -0.41  3.72  8.81
 H -3.53  3.04  6.54
 N -0.19  2.90  1.72
 C  0.24  4.24  1.40
 H  0.50  2.16  1.82
 H  0.79  4.27  0.45
 H  0.87  4.66  2.19
 H -0.66  4.86  1.31
