35
#
 C -0.45  1.77 -0.07
 C -0.56  0.80  1.09
 O -0.16 -0.36  1.01
 H -0.98  1.35 -0.94
 H  0.61  1.85 -0.35
 H -0.84  2.77  0.14
 N -1.15  1.31  2.22
 C -1.32  0.54  3.45
 C -2.82  0.41  3.75
 O -3.39  1.20  4.51
 H -1.47  2.27  2.21
 H -0.89 -0.45  3.22
 C -0.53  1.20  4.59
 C -0.73  0.67  6.01
 C -0.53 -0.83  6.24
 N -1.45 -1.71  5.51
 C -2.69 -2.11  5.97
 N -3.38 -1.14  6.70
 N -3.08 -3.32  5.70
 H -0.77  2.27  4.60
 H  0.54  1.13  4.30
 H -1.72  0.98  6.38
 H -0.00  1.19  6.66
 H -0.60 -1.03  7.33
 H  0.48 -1.11  5.93
 H -1.00 -2.50  5.05
 H -3.37 -0.21  6.30
 H -4.32 -1.43  6.95
 H -4.06 -3.46  5.96
 N -3.51 -0.58  3.12
 C -3.01 -1.72  2.37
 H -4.49 -0.61  3.40
 H -3.72 -1.97  1.57
 H -2.89 -2.60  3.02
 H -2.05 -1.49  1.89
