35
#
 C -1.45 -0.23  1.44
 C -0.16  0.54  1.63
 O  0.03  1.64  1.10
 H -1.64 -0.34  0.37
 H -2.27  0.37  1.86
 H -1.45 -1.22  1.91
 N  0.76 -0.06  2.43
 C  2.05  0.50  2.78
 C  2.71 -0.54  3.72
 O  2.08 -1.49  4.17
 H  0.56 -0.94  2.90
 H  2.67  0.60  1.88
 C  1.96  1.91  3.43
 C  1.00  2.01  4.62
 C  0.27  3.35  4.69
 N -0.66  3.48  3.57
 C -1.27  4.68  3.23
 N -1.43  5.57  4.30
 N -1.68  5.03  2.06
 H  1.66  2.59  2.63
 H  2.97  2.22  3.73
 H  1.53  1.84  5.57
 H  0.24  1.21  4.56
 H  1.01  4.18  4.70
 H -0.28  3.40  5.65
 H -0.42  2.93  2.75
 H -2.04  6.34  4.03
 H -1.69  5.15  5.18
 H -1.38  4.35  1.35
 N  4.02 -0.31  3.99
 C  4.80 -1.16  4.88
 H  4.47  0.49  3.56
 H  5.17 -0.60  5.75
 H  5.66 -1.60  4.35
 H  4.15 -1.97  5.22
