35
#
 C  0.30 -0.34  1.48
 C -0.07  0.97  2.15
 O  0.79  1.81  2.44
 H -0.18 -0.44  0.49
 H  0.01 -1.21  2.08
 H  1.39 -0.36  1.35
 N -1.39  1.19  2.41
 C -2.52  0.34  2.11
 C -3.75  1.26  1.95
 O -3.73  2.41  2.39
 H -1.64  2.12  2.76
 H -2.35 -0.20  1.17
 C -2.80 -0.72  3.21
 C -3.15 -0.13  4.58
 C -3.75 -1.17  5.55
 N -5.05 -1.68  5.10
 C -5.21 -2.82  4.33
 N -4.39 -3.88  4.70
 N -6.06 -2.80  3.36
 H -1.91 -1.37  3.30
 H -3.62 -1.37  2.87
 H -3.87  0.69  4.47
 H -2.25  0.31  5.04
 H -3.87 -0.71  6.54
 H -3.06 -2.02  5.67
 H -5.69 -0.96  4.78
 H -4.61 -4.76  4.24
 H -4.23 -3.99  5.70
 H -6.22 -3.74  2.99
 N -4.86  0.75  1.35
 C -5.09 -0.57  0.78
 H -5.64  1.40  1.35
 H -4.16 -0.98  0.36
 H -5.80 -0.48 -0.05
 H -5.49 -1.28  1.52
