35
#
 C -0.09  0.28 -0.26
 C -0.19  0.69  1.20
 O  0.37  1.71  1.59
 H  0.62  0.95 -0.74
 H  0.24 -0.76 -0.39
 H -1.06  0.38 -0.76
 N -0.92 -0.06  2.10
 C -1.63 -1.34  2.11
 C -0.93 -2.47  2.91
 O -1.64 -3.21  3.60
 H -0.86  0.38  3.02
 H -2.52 -1.17  2.73
 C -2.17 -1.80  0.74
 C -3.15 -2.99  0.81
 C -2.53 -4.38  0.58
 N -1.94 -4.55 -0.74
 C -0.60 -4.35 -1.03
 N -0.34 -4.30 -2.40
 N  0.38 -4.19 -0.20
 H -1.36 -2.04  0.05
 H -2.70 -0.94  0.31
 H -3.93 -2.85  0.05
 H -3.67 -3.01  1.78
 H -3.30 -5.15  0.72
 H -1.76 -4.60  1.33
 H -2.57 -4.36 -1.52
 H  0.66 -4.34 -2.58
 H -0.85 -4.99 -2.95
 H  0.06 -4.16  0.77
 N  0.42 -2.65  2.87
 C  1.47 -1.99  2.10
 H  0.71 -3.41  3.48
 H  2.40 -2.53  2.29
 H  1.61 -0.94  2.40
 H  1.29 -2.05  1.02
