35
#
 C  0.68  0.16  0.37
 C -0.20  0.75  1.46
 O -0.53  1.93  1.46
 H  1.65  0.68  0.39
 H  0.22  0.36 -0.60
 H  0.85 -0.92  0.48
 N -0.60 -0.13  2.42
 C -1.29  0.30  3.62
 C -0.68 -0.46  4.81
 O -0.17 -1.58  4.65
 H -0.18 -1.06  2.50
 H -1.08  1.37  3.73
 C -2.81  0.07  3.56
 C -3.56  1.02  2.61
 C -3.56  2.49  3.04
 N -4.14  2.74  4.36
 C -3.40  2.68  5.53
 N -4.15  2.36  6.66
 N -2.13  2.86  5.67
 H -3.23  0.16  4.57
 H -2.98 -0.97  3.25
 H -4.61  0.67  2.53
 H -3.14  0.96  1.60
 H -4.14  3.08  2.31
 H -2.54  2.90  3.01
 H -5.10  2.41  4.45
 H -3.68  2.64  7.51
 H -5.13  2.62  6.64
 H -1.68  3.11  4.78
 N -0.79  0.18  6.00
 C -0.34 -0.41  7.24
 H -1.21  1.12  6.01
 H  0.35  0.26  7.77
 H  0.18 -1.35  7.01
 H -1.19 -0.63  7.91
