35
#
 C -0.97  1.35 -0.46
 C -0.24  0.72  0.71
 O  0.98  0.75  0.83
 H -0.22  1.77 -1.14
 H -1.63  2.16 -0.11
 H -1.60  0.64 -0.99
 N -1.02  0.13  1.69
 C -2.45 -0.15  1.64
 C -3.33  0.88  2.39
 O -4.56  0.74  2.43
 H -0.47 -0.32  2.41
 H -2.79 -0.08  0.60
 C -2.76 -1.56  2.15
 C -2.14 -2.70  1.33
 C -2.53 -2.70 -0.16
 N -3.96 -2.64 -0.39
 C -4.57 -1.56 -0.98
 N -5.96 -1.73 -1.13
 N -3.89 -0.53 -1.37
 H -3.85 -1.66  2.17
 H -2.42 -1.65  3.20
 H -2.45 -3.65  1.79
 H -1.04 -2.67  1.38
 H -2.12 -3.60 -0.64
 H -2.10 -1.84 -0.68
 H -4.48 -3.51 -0.41
 H -6.44 -0.89 -1.40
 H -6.41 -2.17 -0.34
 H -4.50  0.22 -1.69
 N -2.66  1.91  2.97
 C -3.33  2.98  3.67
 H -1.65  1.92  2.86
 H -3.15  3.95  3.18
 H -2.99  3.05  4.72
 H -4.40  2.77  3.66
