35
#
 C -0.23 -0.46 -0.41
 C -0.09 -0.33  1.09
 O  1.01 -0.29  1.63
 H -1.17 -0.08 -0.83
 H -0.16 -1.53 -0.67
 H  0.61  0.05 -0.88
 N -1.24 -0.32  1.87
 C -2.63 -0.06  1.46
 C -3.17 -1.15  0.50
 O -3.97 -0.88 -0.41
 H -1.02 -0.16  2.85
 H -3.21 -0.19  2.38
 C -2.89  1.36  0.93
 C -4.38  1.77  1.03
 C -4.87  2.50 -0.23
 N -6.30  2.67 -0.33
 C -7.19  1.65 -0.66
 N -6.63  0.54 -1.26
 N -8.48  1.71 -0.53
 H -2.56  1.43 -0.11
 H -2.26  2.05  1.51
 H -4.54  2.40  1.91
 H -5.00  0.88  1.17
 H -4.53  1.95 -1.12
 H -4.40  3.50 -0.30
 H -6.71  3.38  0.28
 H -7.32 -0.19 -1.40
 H -5.72  0.19 -0.93
 H -8.78  2.63 -0.19
 N -2.73 -2.40  0.76
 C -3.13 -3.57 -0.01
 H -2.01 -2.50  1.47
 H -3.52 -4.35  0.64
 H -2.28 -3.97 -0.59
 H -3.91 -3.25 -0.71
