35
#
 C -0.88 -1.60  1.69
 C -0.86 -0.38  2.60
 O -0.01 -0.24  3.47
 H -1.10 -1.36  0.65
 H -1.65 -2.30  2.03
 H  0.09 -2.09  1.77
 N -1.85  0.56  2.45
 C -2.92  0.68  1.46
 C -3.77 -0.61  1.32
 O -3.92 -1.17  0.24
 H -1.74  1.33  3.11
 H -3.60  1.45  1.88
 C -2.47  1.18  0.08
 C -1.68  2.49  0.12
 C -1.31  3.00 -1.28
 N -2.47  3.37 -2.09
 C -2.80  2.80 -3.31
 N -2.42  1.47 -3.46
 N -3.42  3.39 -4.29
 H -3.37  1.30 -0.53
 H -1.86  0.39 -0.40
 H -0.75  2.36  0.70
 H -2.27  3.27  0.64
 H -0.75  2.23 -1.82
 H -0.64  3.87 -1.18
 H -2.75  4.34 -2.02
 H -2.60  0.87 -2.66
 H -2.79  1.09 -4.32
 H -3.50  4.39 -4.12
 N -4.36 -1.08  2.46
 C -4.34 -0.54  3.81
 H -4.89 -1.94  2.30
 H -5.18 -0.97  4.36
 H -4.47  0.55  3.80
 H -3.41 -0.78  4.34
