35
#
 C  0.83 -0.25  0.17
 C  0.59 -0.06  1.66
 O  1.54  0.15  2.43
 H  1.42 -1.17  0.03
 H  1.43  0.59 -0.20
 H -0.09 -0.33 -0.42
 N -0.70 -0.13  2.06
 C -1.22 -0.16  3.45
 C -1.08  1.17  4.23
 O -2.04  1.59  4.87
 H -1.39 -0.27  1.34
 H -2.31 -0.26  3.34
 C -0.71 -1.41  4.20
 C -1.22 -1.54  5.65
 C -0.32 -0.92  6.73
 N  0.94 -1.62  6.97
 C  2.05 -1.57  6.15
 N  2.38 -0.30  5.65
 N  2.75 -2.65  5.99
 H  0.39 -1.44  4.17
 H -1.05 -2.28  3.62
 H -1.33 -2.61  5.88
 H -2.23 -1.10  5.74
 H -0.87 -0.92  7.68
 H -0.12  0.14  6.52
 H  0.83 -2.57  7.32
 H  2.83 -0.33  4.74
 H  1.63  0.38  5.66
 H  3.62 -2.45  5.50
 N  0.13  1.77  4.21
 C  0.37  3.03  4.89
 H  0.86  1.34  3.62
 H  1.45  3.22  4.91
 H -0.01  2.98  5.92
 H -0.13  3.86  4.39
