35
#
 C -1.12 -1.12 -0.35
 C -0.52 -0.87  1.02
 O  0.68 -1.03  1.24
 H -0.30 -1.13 -1.07
 H -1.87 -0.38 -0.64
 H -1.62 -2.10 -0.36
 N -1.35 -0.50  2.05
 C -2.76 -0.08  2.06
 C -3.69 -1.09  1.37
 O -4.27 -0.84  0.31
 H -0.83 -0.34  2.91
 H -3.05 -0.10  3.12
 C -2.95  1.37  1.56
 C -4.38  1.94  1.55
 C -5.17  1.89  2.86
 N -5.40  0.56  3.43
 C -6.49 -0.25  3.13
 N -6.93 -0.17  1.81
 N -7.00 -0.96  4.08
 H -2.55  1.44  0.54
 H -2.31  2.00  2.19
 H -4.95  1.45  0.75
 H -4.31  3.00  1.26
 H -6.13  2.42  2.71
 H -4.62  2.46  3.63
 H -5.25  0.51  4.44
 H -6.19 -0.18  1.10
 H -7.67 -0.83  1.59
 H -7.70 -1.61  3.72
 N -3.87 -2.29  1.99
 C -3.46 -2.65  3.34
 H -4.54 -2.88  1.52
 H -2.40 -2.44  3.50
 H -3.61 -3.73  3.46
 H -4.07 -2.13  4.10
