35
#
 C -0.21  0.90 -0.04
 C -0.30  0.35  1.36
 O  0.67  0.43  2.14
 H  0.33  0.16 -0.66
 H  0.38  1.82 -0.03
 H -1.18  1.09 -0.50
 N -1.49 -0.22  1.68
 C -1.92 -1.14  2.76
 C -1.61 -0.82  4.25
 O -2.34 -1.35  5.09
 H -2.16 -0.19  0.93
 H -3.02 -1.04  2.74
 C -1.64 -2.63  2.44
 C -0.31 -3.26  2.88
 C  0.98 -2.71  2.29
 N  0.92 -2.62  0.83
 C  2.00 -2.17  0.07
 N  2.78 -1.20  0.68
 N  2.17 -2.70 -1.10
 H -1.79 -2.76  1.36
 H -2.44 -3.20  2.93
 H -0.38 -4.34  2.64
 H -0.23 -3.21  3.98
 H  1.82 -3.35  2.63
 H  1.17 -1.71  2.70
 H  0.52 -3.44  0.37
 H  3.44 -0.75  0.06
 H  2.29 -0.55  1.29
 H  2.92 -2.22 -1.61
 N -0.57 -0.03  4.54
 C -0.21  0.26  5.92
 H  0.05  0.26  3.77
 H  0.44  1.15  5.94
 H  0.32 -0.58  6.39
 H -1.12  0.46  6.50
