35
#
 C  0.15  1.01  0.44
 C -0.01  0.73  1.92
 O  0.78  1.16  2.76
 H  1.21  0.92  0.17
 H -0.16  2.05  0.26
 H -0.45  0.35 -0.20
 N -1.09 -0.04  2.27
 C -1.51 -0.21  3.66
 C -1.57  1.19  4.34
 O -2.35  2.01  3.84
 H -1.79 -0.21  1.55
 H -2.59 -0.43  3.60
 C -0.88 -1.44  4.35
 C  0.59 -1.76  4.07
 C  1.06 -3.03  4.77
 N  0.38 -4.21  4.26
 C  0.21 -5.41  4.92
 N  0.64 -5.42  6.25
 N -0.37 -6.47  4.45
 H -1.47 -2.31  4.04
 H -1.05 -1.35  5.44
 H  1.24 -0.93  4.36
 H  0.74 -1.87  2.98
 H  0.84 -2.96  5.85
 H  2.16 -3.11  4.67
 H  0.29 -4.27  3.25
 H  0.55 -6.36  6.64
 H  1.55 -5.02  6.42
 H -0.78 -6.29  3.52
 N -0.93  1.49  5.51
 C  0.35  1.00  6.02
 H -1.16  2.43  5.79
 H  1.12  1.01  5.24
 H  0.66  1.66  6.84
 H  0.27 -0.02  6.43
