35
#
 C -0.20  0.46 -0.04
 C -0.16  0.40  1.48
 O  0.87  0.60  2.12
 H  0.68 -0.06 -0.44
 H -0.12  1.52 -0.34
 H -1.11  0.04 -0.48
 N -1.35  0.10  2.08
 C -1.55  0.19  3.53
 C -0.97  1.55  4.03
 O -1.51  2.57  3.59
 H -2.18  0.09  1.50
 H -2.62  0.39  3.65
 C -1.27 -1.13  4.28
 C -0.10 -1.99  3.80
 C  0.22 -3.11  4.80
 N  1.29 -4.01  4.36
 C  2.62 -3.89  4.74
 N  3.01 -2.59  5.07
 N  3.49 -4.84  4.83
 H -2.19 -1.73  4.22
 H -1.16 -0.89  5.35
 H  0.79 -1.37  3.63
 H -0.34 -2.44  2.83
 H -0.68 -3.72  4.98
 H  0.50 -2.67  5.77
 H  1.01 -4.96  4.18
 H  4.01 -2.55  5.23
 H  2.69 -1.87  4.43
 H  3.05 -5.76  4.72
 N -0.04  1.65  5.03
 C  1.08  0.77  5.35
 H  0.13  2.63  5.23
 H  0.76 -0.15  5.86
 H  1.74  1.30  6.03
 H  1.64  0.50  4.44
