35
#
 C -0.58 -0.35 -1.89
 C  0.03 -0.05 -0.54
 O  1.22  0.29 -0.45
 H  0.21 -0.75 -2.52
 H -0.92  0.59 -2.34
 H -1.41 -1.06 -1.83
 N -0.73 -0.14  0.60
 C -2.17 -0.24  0.82
 C -2.69 -1.68  0.63
 O -2.23 -2.46 -0.21
 H -0.20  0.14  1.42
 H -2.29  0.02  1.88
 C -3.06  0.76  0.03
 C -3.13  2.19  0.61
 C -2.17  3.23  0.03
 N -0.76  2.92  0.17
 C -0.11  2.99  1.38
 N  1.26  2.73  1.26
 N -0.77  3.29  2.45
 H -4.08  0.34  0.03
 H -2.77  0.78 -1.02
 H -2.99  2.16  1.70
 H -4.15  2.58  0.45
 H -2.40  4.20  0.51
 H -2.36  3.35 -1.05
 H -0.18  3.02 -0.65
 H  1.74  2.66  2.15
 H  1.49  1.95  0.64
 H -0.16  3.24  3.27
 N -3.73 -2.04  1.43
 C -4.34 -1.30  2.52
 H -4.06 -2.99  1.26
 H -5.15 -1.90  2.94
 H -4.77 -0.35  2.19
 H -3.63 -1.10  3.34
