35
#
 C -0.59  1.58 -0.93
 C  0.01  0.98  0.32
 O  1.23  0.94  0.50
 H -0.58  0.82 -1.73
 H  0.06  2.41 -1.25
 H -1.61  1.95 -0.81
 N -0.84  0.46  1.26
 C -2.26  0.19  1.17
 C -2.72 -0.19  2.59
 O -1.93 -0.65  3.42
 H -0.40  0.07  2.09
 H -2.79  1.11  0.88
 C -2.66 -0.92  0.16
 C -2.24 -2.36  0.50
 C -0.73 -2.68  0.50
 N  0.03 -2.19 -0.65
 C -0.35 -2.38 -1.96
 N -0.89 -3.65 -2.22
 N -0.22 -1.42 -2.81
 H -2.26 -0.64 -0.82
 H -3.75 -0.90  0.05
 H -2.73 -3.01 -0.24
 H -2.64 -2.66  1.48
 H -0.61 -3.77  0.60
 H -0.25 -2.25  1.39
 H  0.49 -1.29 -0.52
 H -1.01 -3.86 -3.20
 H -0.47 -4.42 -1.70
 H -0.38 -1.74 -3.77
 N -4.05 -0.04  2.83
 C -4.68 -0.42  4.07
 H -4.62  0.38  2.10
 H -5.15  0.44  4.57
 H -3.91 -0.84  4.73
 H -5.45 -1.19  3.91
