35
#
 C  0.31  0.16  0.07
 C  0.19  0.19  1.58
 O  1.17  0.31  2.31
 H  0.81  1.08 -0.26
 H -0.65  0.08 -0.45
 H  0.95 -0.68 -0.22
 N -1.09  0.08  2.06
 C -1.37 -0.09  3.47
 C -2.44 -1.18  3.60
 O -3.24 -1.40  2.69
 H -1.85 -0.20  1.45
 H -0.43 -0.40  3.95
 C -1.87  1.21  4.15
 C -0.85  2.35  4.10
 C -1.30  3.58  4.90
 N -1.49  3.33  6.33
 C -0.55  3.58  7.32
 N  0.76  3.69  6.86
 N -0.78  3.73  8.58
 H -2.10  0.99  5.20
 H -2.81  1.52  3.67
 H -0.68  2.66  3.06
 H  0.12  1.99  4.47
 H -2.25  3.95  4.50
 H -0.56  4.39  4.77
 H -2.44  3.35  6.67
 H  1.41  3.73  7.63
 H  1.05  3.04  6.14
 H -1.79  3.77  8.77
 N -2.46 -1.85  4.78
 C -3.44 -2.86  5.12
 H -1.73 -1.63  5.46
 H -4.02 -2.57  6.00
 H -2.97 -3.83  5.30
 H -4.12 -2.95  4.26
