35
#
 C -0.74  0.02 -0.70
 C -0.54 -0.17  0.79
 O  0.59 -0.27  1.29
 H -1.79 -0.02 -0.99
 H -0.17 -0.75 -1.23
 H -0.32  1.00 -0.99
 N -1.68 -0.20  1.53
 C -1.63 -0.32  2.99
 C -1.52 -1.82  3.37
 O -2.48 -2.52  3.71
 H -2.58 -0.20  1.03
 H -0.67  0.14  3.26
 C -2.72  0.51  3.71
 C -4.07 -0.11  4.13
 C -5.00 -0.62  3.03
 N -5.40  0.41  2.07
 C -4.90  0.49  0.79
 N -4.99  1.76  0.23
 N -4.32 -0.44  0.10
 H -2.89  1.40  3.09
 H -2.26  0.89  4.63
 H -4.60  0.67  4.70
 H -3.90 -0.94  4.82
 H -5.90 -1.05  3.49
 H -4.51 -1.44  2.49
 H -5.67  1.29  2.49
 H -4.90  1.74 -0.78
 H -5.76  2.34  0.54
 H -4.34 -1.33  0.60
 N -0.25 -2.28  3.25
 C  0.08 -3.69  3.38
 H  0.41 -1.66  2.76
 H  1.03 -3.81  3.91
 H  0.15 -4.18  2.40
 H -0.72 -4.17  3.95
