35
#
 C -0.36 -0.98  0.15
 C -0.12 -0.62  1.60
 O  0.86 -1.04  2.22
 H -1.13 -1.76  0.07
 H  0.57 -1.39 -0.25
 H -0.69 -0.13 -0.45
 N -1.04  0.19  2.22
 C -2.39  0.46  1.78
 C -2.66  1.92  1.32
 O -3.28  2.11  0.28
 H -0.81  0.36  3.21
 H -2.57 -0.11  0.86
 C -3.46  0.02  2.80
 C -3.49 -1.50  3.09
 C -2.47 -2.06  4.09
 N -2.51 -1.39  5.39
 C -1.67 -0.34  5.71
 N -2.23  0.58  6.60
 N -0.48 -0.10  5.27
 H -4.43  0.32  2.40
 H -3.34  0.57  3.75
 H -3.39 -2.06  2.14
 H -4.50 -1.74  3.46
 H -1.45 -1.98  3.71
 H -2.67 -3.13  4.24
 H -3.45 -1.31  5.78
 H -1.52  1.13  7.07
 H -2.93  0.22  7.25
 H -0.12 -0.83  4.66
 N -2.23  2.96  2.09
 C -1.47  2.97  3.33
 H -2.44  3.86  1.66
 H -1.55  3.97  3.77
 H -0.40  2.75  3.18
 H -1.86  2.26  4.07
