35
#
 C  0.95  0.48  0.68
 C  0.39  0.58  2.09
 O  1.07  0.99  3.03
 H  1.31  1.47  0.38
 H  0.22  0.12 -0.06
 H  1.81 -0.20  0.69
 N -0.91  0.19  2.24
 C -1.58  0.22  3.54
 C -1.25 -1.09  4.30
 O -2.00 -2.08  4.27
 H -1.39 -0.25  1.46
 H -1.12  1.06  4.09
 C -3.08  0.47  3.38
 C -3.80  1.01  4.64
 C -4.74  0.02  5.35
 N -4.10 -1.08  6.07
 C -3.37 -0.89  7.24
 N -3.73  0.22  8.01
 N -2.41 -1.65  7.66
 H -3.56 -0.46  3.03
 H -3.19  1.21  2.57
 H -4.40  1.88  4.35
 H -3.06  1.38  5.37
 H -5.42 -0.44  4.62
 H -5.38  0.58  6.04
 H -3.64 -1.75  5.45
 H -3.31  0.16  8.93
 H -4.73  0.40  8.06
 H -2.19 -2.36  6.96
 N -0.06 -1.06  4.93
 C  0.50 -2.18  5.65
 H  0.51 -0.23  4.77
 H  0.40 -2.05  6.73
 H  1.56 -2.30  5.40
 H -0.04 -3.09  5.35
