35
#
 C -0.70 -0.23 -0.40
 C -0.71  0.27  1.03
 O  0.30  0.74  1.55
 H -0.84  0.63 -1.08
 H -1.48 -0.97 -0.62
 H  0.29 -0.65 -0.60
 N -1.87  0.15  1.77
 C -3.26  0.05  1.30
 C -3.69 -1.38  0.88
 O -4.69 -1.57  0.21
 H -1.75  0.57  2.69
 H -3.87  0.26  2.19
 C -3.64  1.08  0.22
 C -3.32  2.52  0.61
 C -3.26  3.48 -0.59
 N -2.33  3.06 -1.64
 C -1.01  3.50 -1.76
 N -0.41  3.83 -0.55
 N -0.34  3.62 -2.85
 H -4.71  0.95  0.01
 H -3.12  0.83 -0.72
 H -2.35  2.56  1.13
 H -4.06  2.91  1.33
 H -3.01  4.49 -0.24
 H -4.26  3.54 -1.06
 H -2.75  2.88 -2.55
 H -0.54  3.18  0.22
 H  0.58  4.04 -0.69
 H -0.94  3.50 -3.67
 N -2.90 -2.38  1.37
 C -3.16 -3.78  1.12
 H -2.08 -2.09  1.90
 H -4.07 -3.85  0.52
 H -3.32 -4.32  2.07
 H -2.33 -4.25  0.58
