35
#
 C -0.41 -0.33  4.17
 C -1.12 -1.64  4.41
 O -0.86 -2.36  5.39
 H  0.21 -0.39  3.26
 H  0.23 -0.11  5.02
 H -1.11  0.51  4.02
 N -2.06 -2.03  3.51
 C -2.61 -1.32  2.37
 C -3.53 -0.09  2.62
 O -3.80  0.60  1.64
 H -2.39 -3.00  3.62
 H -1.80 -0.90  1.76
 C -3.36 -2.33  1.48
 C -4.69 -2.90  2.01
 C -4.71 -3.57  3.40
 N -3.60 -4.53  3.58
 C -3.48 -5.16  4.85
 N -3.17 -4.28  5.88
 N -3.68 -6.43  4.90
 H -2.66 -3.15  1.27
 H -3.57 -1.84  0.53
 H -5.05 -3.63  1.26
 H -5.45 -2.11  2.03
 H -5.69 -4.06  3.54
 H -4.63 -2.81  4.19
 H -3.66 -5.28  2.89
 H -3.05 -4.74  6.77
 H -2.40 -3.62  5.69
 H -3.43 -6.81  5.82
 N -4.07  0.22  3.84
 C -3.88 -0.28  5.20
 H -4.62  1.07  3.76
 H -2.94  0.06  5.65
 H -3.90 -1.37  5.25
 H -4.71  0.09  5.81
