35
#
 C -1.54  1.17  0.58
 C -1.19 -0.10  1.33
 O -0.04 -0.53  1.39
 H -0.99  2.01  1.04
 H -2.61  1.40  0.58
 H -1.19  1.08 -0.46
 N -2.25 -0.74  1.92
 C -2.08 -1.93  2.74
 C -3.01 -3.07  2.26
 O -3.92 -3.52  2.96
 H -3.17 -0.33  1.85
 H -1.04 -2.24  2.57
 C -2.24 -1.65  4.25
 C -3.53 -0.93  4.65
 C -3.62 -0.73  6.17
 N -4.86 -0.06  6.52
 C -5.13  0.53  7.75
 N -4.04  0.63  8.61
 N -6.26  1.05  8.11
 H -1.37 -1.05  4.55
 H -2.17 -2.61  4.78
 H -4.39 -1.51  4.31
 H -3.58  0.07  4.18
 H -2.78 -0.11  6.51
 H -3.52 -1.72  6.66
 H -5.68 -0.36  6.02
 H -4.34  0.99  9.51
 H -3.45 -0.19  8.69
 H -6.94  1.03  7.34
 N -2.78 -3.56  1.01
 C -1.78 -3.18  0.03
 H -3.45 -4.27  0.74
 H -1.51 -4.05 -0.57
 H -0.86 -2.81  0.52
 H -2.13 -2.38 -0.65
