35
#
 C  0.00 -1.62  2.03
 C -0.32 -1.29  3.47
 O  0.56 -1.11  4.31
 H  0.92 -2.22  2.02
 H  0.21 -0.69  1.49
 H -0.79 -2.16  1.50
 N -1.65 -1.20  3.85
 C -2.88 -1.19  3.05
 C -3.30 -2.57  2.47
 O -4.19 -2.64  1.63
 H -1.74 -0.93  4.83
 H -3.68 -1.00  3.78
 C -2.95 -0.09  1.97
 C -3.09  1.33  2.51
 C -4.27  1.55  3.47
 N -5.50  0.91  3.04
 C -6.05 -0.18  3.70
 N -6.72 -1.06  2.85
 N -6.00 -0.42  4.98
 H -3.80 -0.35  1.33
 H -2.07 -0.15  1.32
 H -3.18  2.01  1.64
 H -2.17  1.65  3.03
 H -4.43  2.64  3.61
 H -4.04  1.15  4.46
 H -5.73  0.97  2.05
 H -7.14 -1.81  3.39
 H -6.15 -1.42  2.09
 H -5.65  0.40  5.49
 N -2.67 -3.64  3.01
 C -3.02 -5.01  2.67
 H -1.98 -3.46  3.73
 H -3.45 -5.53  3.53
 H -2.13 -5.56  2.33
 H -3.76 -4.98  1.87
