35
#
 C -2.64  1.74  0.71
 C -1.82  1.50  1.96
 O -0.59  1.59  1.94
 H -2.34  1.01 -0.06
 H -2.41  2.74  0.32
 H -3.73  1.66  0.86
 N -2.53  1.18  3.08
 C -1.98  0.82  4.40
 C -1.39  2.03  5.16
 O -1.82  2.33  6.28
 H -3.54  1.20  3.00
 H -2.86  0.54  5.00
 C -1.02 -0.38  4.32
 C -0.95 -1.26  5.58
 C -0.48 -0.58  6.88
 N  0.78  0.13  6.69
 C  1.28  1.05  7.61
 N  0.31  1.80  8.27
 N  2.56  1.10  7.78
 H -0.01 -0.04  4.05
 H -1.36 -1.02  3.49
 H -0.27 -2.10  5.35
 H -1.93 -1.71  5.78
 H -0.40 -1.35  7.67
 H -1.24  0.13  7.22
 H  1.55 -0.44  6.35
 H  0.70  2.57  8.80
 H -0.51  2.07  7.71
 H  2.83  1.88  8.38
 N -0.39  2.68  4.53
 C  0.36  3.76  5.15
 H -0.12  2.34  3.60
 H  1.26  3.38  5.65
 H -0.27  4.26  5.89
 H  0.66  4.48  4.38
