35
#
 C -1.40  0.13 -0.34
 C -0.84 -0.27  1.01
 O  0.24 -0.84  1.12
 H -2.48  0.35 -0.33
 H -1.20 -0.67 -1.06
 H -0.86  1.03 -0.68
 N -1.64  0.04  2.08
 C -1.23 -0.01  3.48
 C -0.25  1.16  3.79
 O  0.20  1.89  2.90
 H -2.43  0.65  1.88
 H -2.14  0.26  4.04
 C -0.86 -1.47  3.93
 C  0.45 -1.80  4.67
 C  1.71 -1.93  3.81
 N  2.23 -0.72  3.23
 C  2.99  0.20  3.91
 N  3.21  1.37  3.19
 N  3.52  0.08  5.09
 H -0.89 -2.09  3.02
 H -1.69 -1.82  4.56
 H  0.29 -2.77  5.16
 H  0.66 -1.10  5.49
 H  1.50 -2.62  2.97
 H  2.50 -2.41  4.41
 H  1.83 -0.46  2.33
 H  3.69  2.06  3.76
 H  2.37  1.75  2.75
 H  3.39 -0.86  5.46
 N -0.02  1.37  5.11
 C  0.89  2.38  5.62
 H -0.38  0.68  5.76
 H  0.45  2.87  6.50
 H  1.05  3.12  4.84
 H  1.86  1.93  5.89
