35
#
 C -1.46 -1.30  0.52
 C -1.08 -1.12  1.98
 O  0.08 -1.29  2.37
 H -2.52 -1.13  0.32
 H -1.20 -2.33  0.22
 H -0.86 -0.62 -0.09
 N -2.08 -0.76  2.82
 C -1.88 -0.48  4.24
 C -1.89 -1.82  5.04
 O -2.84 -2.17  5.74
 H -3.03 -0.70  2.46
 H -0.87 -0.04  4.32
 C -2.94  0.49  4.74
 C -2.67  0.99  6.17
 C -3.82  1.83  6.75
 N -5.09  1.13  6.82
 C -6.09  1.27  5.86
 N -7.13  0.36  6.06
 N -6.15  2.09  4.87
 H -3.91 -0.01  4.71
 H -2.98  1.34  4.05
 H -1.75  1.60  6.19
 H -2.50  0.12  6.82
 H -3.97  2.75  6.17
 H -3.54  2.15  7.77
 H -5.05  0.21  7.24
 H -7.92  0.58  5.45
 H -7.42  0.24  7.03
 H -5.29  2.61  4.75
 N -0.74 -2.53  4.89
 C -0.57 -3.86  5.45
 H -0.09 -2.20  4.17
 H -0.69 -4.64  4.68
 H -1.34 -4.01  6.22
 H  0.42 -3.96  5.90
