35
#
 C -0.79  1.61 -0.56
 C -0.48  0.57  0.52
 O  0.44 -0.24  0.39
 H -1.84  1.57 -0.87
 H -0.14  1.40 -1.42
 H -0.59  2.63 -0.20
 N -1.27  0.58  1.64
 C -2.26  1.58  1.98
 C -1.72  2.99  2.31
 O -2.35  3.98  1.93
 H -1.01 -0.12  2.36
 H -2.91  1.77  1.11
 C -3.18  1.11  3.13
 C -4.11 -0.06  2.80
 C -3.51 -1.47  2.84
 N -3.07 -1.90  4.16
 C -1.77 -1.86  4.59
 N -1.59 -2.42  5.86
 N -0.84 -1.31  3.86
 H -3.79  1.98  3.40
 H -2.57  0.88  4.02
 H -4.54  0.09  1.79
 H -4.97 -0.03  3.49
 H -2.65 -1.56  2.17
 H -4.27 -2.19  2.49
 H -3.78 -2.00  4.88
 H -0.62 -2.49  6.15
 H -2.11 -3.28  6.03
 H  0.09 -1.50  4.22
 N -0.56  3.13  3.02
 C  0.32  2.13  3.61
 H -0.31  4.11  3.14
 H  0.91  2.62  4.39
 H  1.01  1.69  2.88
 H -0.25  1.32  4.08
