35
#
 C -0.16 -0.82  2.12
 C  0.28  0.22  1.10
 O  1.42  0.22  0.64
 H  0.53 -1.66  2.07
 H -1.19 -1.18  1.95
 H -0.12 -0.39  3.13
 N -0.64  1.17  0.72
 C -2.03  1.29  1.08
 C -2.69  2.18 -0.01
 O -2.03  2.66 -0.94
 H -0.35  1.78 -0.05
 H -2.53  0.31  1.02
 C -2.27  1.87  2.49
 C -1.68  3.27  2.70
 C -2.38  4.07  3.81
 N -3.72  4.54  3.44
 C -4.86  3.74  3.47
 N -4.92  2.84  4.53
 N -5.83  3.76  2.61
 H -1.86  1.18  3.23
 H -3.35  1.88  2.68
 H -1.74  3.86  1.76
 H -0.61  3.19  2.92
 H -1.78  4.96  4.05
 H -2.44  3.48  4.73
 H -3.72  5.15  2.63
 H -5.85  2.43  4.61
 H -4.57  3.19  5.42
 H -5.61  4.39  1.83
 N -4.02  2.39  0.11
 C -4.74  3.23 -0.82
 H -4.50  2.10  0.96
 H -4.57  2.90 -1.85
 H -4.42  4.28 -0.76
 H -5.81  3.17 -0.59
