35
#
 C -2.21  0.89 -0.79
 C -1.77  0.92  0.66
 O -1.55  1.98  1.26
 H -1.60  1.60 -1.36
 H -3.25  1.22 -0.83
 H -2.14 -0.10 -1.24
 N -1.69 -0.29  1.27
 C -1.33 -0.48  2.66
 C -0.33 -1.65  2.69
 O -0.31 -2.50  1.80
 H -1.71 -1.15  0.72
 H -0.85  0.45  2.99
 C -2.55 -0.83  3.57
 C -3.11  0.32  4.41
 C -3.61  1.56  3.66
 N -4.61  1.20  2.66
 C -5.13  2.12  1.74
 N -4.30  3.18  1.43
 N -6.30  2.04  1.18
 H -2.27 -1.64  4.25
 H -3.33 -1.23  2.91
 H -2.35  0.66  5.13
 H -3.93 -0.09  5.03
 H -2.77  2.04  3.16
 H -4.01  2.28  4.40
 H -5.33  0.57  2.99
 H -4.66  3.72  0.65
 H -3.30  2.99  1.37
 H -6.85  1.28  1.58
 N  0.50 -1.73  3.77
 C  0.57 -0.84  4.92
 H  1.08 -2.57  3.78
 H  1.54 -0.97  5.42
 H -0.23 -1.05  5.66
 H  0.49  0.21  4.62
