35
#
 C -0.98 -1.14  1.03
 C -0.22 -0.72  2.28
 O  0.66 -1.41  2.79
 H -2.06 -1.07  1.17
 H -0.70 -2.17  0.80
 H -0.72 -0.49  0.18
 N -0.56  0.49  2.83
 C -1.46  1.50  2.29
 C -1.02  2.15  0.96
 O -1.90  2.46  0.15
 H  0.00  0.73  3.65
 H -2.42  1.03  2.05
 C -1.71  2.58  3.37
 C -2.85  3.58  3.05
 C -2.42  5.01  2.69
 N -1.64  5.13  1.47
 C -0.31  5.50  1.43
 N  0.21  5.46  0.13
 N  0.48  5.84  2.39
 H -0.77  3.13  3.56
 H -1.95  2.04  4.29
 H -3.51  3.65  3.92
 H -3.47  3.18  2.23
 H -1.84  5.44  3.52
 H -3.33  5.63  2.61
 H -1.95  4.55  0.70
 H  1.10  5.95  0.10
 H -0.43  5.81 -0.58
 H  0.04  5.74  3.31
 N  0.28  2.42  0.72
 C  1.44  2.36  1.61
 H  0.39  3.03 -0.09
 H  1.77  1.33  1.80
 H  1.26  2.88  2.56
 H  2.26  2.90  1.12
