35
#
 C  0.01  0.00  0.17
 C -0.00  0.03  1.68
 O  1.04  0.01  2.34
 H  1.04  0.18 -0.16
 H -0.65  0.76 -0.28
 H -0.31 -0.98 -0.20
 N -1.22  0.05  2.33
 C -2.58  0.06  1.80
 C -2.82 -1.16  0.87
 O -2.65 -2.30  1.29
 H -1.12 -0.03  3.34
 H -3.21 -0.19  2.67
 C -3.03  1.45  1.31
 C -4.55  1.65  1.27
 C -4.95  3.10  0.96
 N -4.49  4.06  1.96
 C -5.21  4.28  3.14
 N -4.64  5.30  3.91
 N -6.28  3.69  3.54
 H -2.58  1.69  0.33
 H -2.60  2.18  2.01
 H -4.97  1.37  2.25
 H -5.03  1.00  0.53
 H -6.04  3.16  0.83
 H -4.51  3.41  0.00
 H -3.99  4.86  1.61
 H -5.10  5.37  4.81
 H -3.63  5.26  3.99
 H -6.67  3.07  2.83
 N -3.23 -0.89 -0.40
 C -3.46 -1.94 -1.38
 H -3.27  0.07 -0.70
 H -2.65 -1.98 -2.12
 H -4.41 -1.77 -1.91
 H -3.50 -2.89 -0.85
