35
#
 C -0.22  1.08 -0.01
 C -0.20  0.36  1.33
 O  0.86 -0.02  1.84
 H  0.24  0.44 -0.77
 H  0.39  1.99  0.07
 H -1.23  1.36 -0.34
 N -1.41  0.16  1.92
 C -1.53 -0.48  3.23
 C -1.52 -2.02  3.07
 O -2.54 -2.72  3.07
 H -2.25  0.42  1.42
 H -0.60 -0.22  3.75
 C -2.69  0.10  4.06
 C -4.14 -0.32  3.77
 C -4.62 -0.16  2.32
 N -5.97 -0.62  2.07
 C -6.31 -1.96  1.87
 N -5.25 -2.81  1.62
 N -7.52 -2.41  1.81
 H -2.59  1.19  4.00
 H -2.48 -0.15  5.12
 H -4.79  0.28  4.42
 H -4.28 -1.37  4.07
 H -3.97 -0.71  1.63
 H -4.56  0.91  2.02
 H -6.71 -0.07  2.48
 H -5.57 -3.77  1.53
 H -4.40 -2.73  2.17
 H -8.21 -1.66  1.88
 N -0.27 -2.52  2.90
 C -0.01 -3.91  2.59
 H  0.47 -1.82  2.74
 H  0.89 -4.25  3.11
 H  0.12 -4.07  1.51
 H -0.87 -4.50  2.92
