35
#
 C -0.28 -0.47  0.04
 C -0.06 -0.30  1.54
 O  1.04 -0.44  2.05
 H  0.67 -0.75 -0.41
 H -0.63  0.46 -0.42
 H -1.02 -1.25 -0.17
 N -1.16  0.04  2.29
 C -2.54  0.13  1.85
 C -3.23  1.13  2.81
 O -3.04  1.04  4.02
 H -1.01  0.12  3.30
 H -2.55  0.51  0.82
 C -3.27 -1.23  1.91
 C -4.62 -1.30  1.19
 C -4.53 -1.24 -0.35
 N -3.71 -2.31 -0.91
 C -4.27 -3.57 -1.11
 N -3.39 -4.42 -1.80
 N -5.46 -3.83 -0.71
 H -3.40 -1.50  2.97
 H -2.60 -1.99  1.47
 H -5.29 -0.49  1.53
 H -5.13 -2.23  1.45
 H -4.08 -0.29 -0.68
 H -5.55 -1.28 -0.76
 H -3.07 -2.03 -1.64
 H -3.69 -5.39 -1.82
 H -2.41 -4.34 -1.55
 H -5.69 -4.81 -0.84
 N -4.05  2.08  2.28
 C -4.35  2.38  0.89
 H -4.49  2.66  2.99
 H -3.44  2.38  0.28
 H -4.78  3.38  0.84
 H -5.07  1.68  0.45
