35
#
 C -1.89 -1.19  1.25
 C -1.08 -0.46  2.29
 O -0.07 -0.95  2.79
 H -2.85 -0.72  0.99
 H -2.08 -2.21  1.63
 H -1.28 -1.29  0.35
 N -1.49  0.80  2.70
 C -2.46  1.71  2.10
 C -3.93  1.24  2.24
 O -4.81  1.66  1.50
 H -0.82  1.21  3.35
 H -2.42  2.61  2.74
 C -2.15  2.18  0.67
 C -0.83  2.96  0.55
 C  0.41  2.14  0.18
 N  0.31  1.59 -1.17
 C  0.47  0.26 -1.50
 N  0.09 -0.01 -2.82
 N  0.88 -0.72 -0.76
 H -3.00  2.81  0.37
 H -2.15  1.32 -0.02
 H -0.62  3.51  1.48
 H -0.95  3.75 -0.22
 H  0.55  1.31  0.88
 H  1.31  2.77  0.27
 H -0.26  2.13 -1.81
 H  0.38 -0.95 -3.08
 H  0.40  0.68 -3.50
 H  1.06 -0.45  0.20
 N -4.16  0.39  3.28
 C -5.47 -0.14  3.59
 H -3.35  0.07  3.80
 H -5.74  0.07  4.64
 H -5.52 -1.22  3.42
 H -6.20  0.35  2.93
