35
#
 C -1.75 -1.05  0.07
 C -1.04 -1.14  1.41
 O -0.34 -2.11  1.71
 H -1.35 -0.23 -0.54
 H -2.83 -0.91  0.17
 H -1.57 -1.99 -0.46
 N -1.22 -0.11  2.30
 C -1.87  1.16  2.08
 C -0.83  2.28  2.31
 O  0.02  2.17  3.19
 H -0.60 -0.15  3.11
 H -2.23  1.18  1.05
 C -3.06  1.41  3.03
 C -4.21  0.39  2.91
 C -4.06 -0.85  3.82
 N -5.18 -1.77  3.73
 C -5.31 -2.66  2.67
 N -6.60 -3.19  2.58
 N -4.42 -3.02  1.81
 H -3.45  2.42  2.82
 H -2.68  1.45  4.06
 H -4.33  0.07  1.87
 H -5.15  0.89  3.19
 H -3.96 -0.53  4.87
 H -3.14 -1.39  3.58
 H -6.07 -1.38  4.04
 H -6.62 -3.97  1.92
 H -7.01 -3.46  3.47
 H -3.54 -2.52  1.93
 N -0.93  3.40  1.54
 C -1.84  3.64  0.43
 H -0.24  4.11  1.76
 H -1.66  4.65  0.05
 H -2.90  3.59  0.74
 H -1.68  2.94 -0.40
