35
#
 C  0.33 -0.31  0.41
 C -0.10 -0.54  1.85
 O  0.70 -0.51  2.78
 H  1.42 -0.19  0.41
 H -0.13  0.60  0.00
 H  0.06 -1.15 -0.24
 N -1.43 -0.77  2.08
 C -2.51 -0.82  1.12
 C -3.78 -0.34  1.85
 O -3.87 -0.47  3.08
 H -1.72 -0.84  3.06
 H -2.29 -0.12  0.29
 C -2.72 -2.24  0.50
 C -3.26 -3.29  1.48
 C -4.80 -3.42  1.44
 N -5.34 -4.16  2.56
 C -6.29 -3.67  3.45
 N -6.27 -2.28  3.61
 N -7.09 -4.51  4.01
 H -1.74 -2.54  0.12
 H -3.38 -2.16 -0.38
 H -2.82 -4.27  1.25
 H -2.95 -3.06  2.51
 H -5.10 -3.89  0.49
 H -5.27 -2.43  1.44
 H -5.45 -5.17  2.44
 H -6.85 -1.97  4.38
 H -5.36 -1.81  3.60
 H -7.65 -4.06  4.74
 N -4.80  0.17  1.12
 C -4.91  0.30 -0.32
 H -5.63  0.35  1.67
 H -5.29 -0.61 -0.80
 H -3.94  0.55 -0.77
 H -5.60  1.13 -0.55
