35
#
 C -1.69 -0.80  0.37
 C -1.28 -0.59  1.81
 O -0.10 -0.47  2.16
 H -1.45  0.10 -0.21
 H -2.76 -1.04  0.25
 H -1.09 -1.62 -0.05
 N -2.30 -0.51  2.71
 C -2.03 -0.32  4.12
 C -1.32 -1.56  4.71
 O -1.77 -2.69  4.55
 H -3.27 -0.63  2.41
 H -1.35  0.55  4.20
 C -3.31  0.03  4.89
 C -4.33 -1.08  5.19
 C -4.80 -1.94  4.01
 N -5.30 -1.12  2.90
 C -5.64 -1.65  1.65
 N -4.92 -2.78  1.28
 N -6.44 -1.12  0.79
 H -3.80  0.85  4.34
 H -3.01  0.46  5.86
 H -5.21 -0.61  5.67
 H -3.92 -1.78  5.93
 H -5.57 -2.65  4.38
 H -3.94 -2.53  3.67
 H -5.97 -0.41  3.19
 H -5.28 -3.21  0.44
 H -4.64 -3.43  2.00
 H -6.84 -0.24  1.14
 N -0.21 -1.33  5.47
 C  0.61 -0.12  5.49
 H  0.22 -2.19  5.80
 H  0.89  0.19  4.48
 H  1.52 -0.34  6.06
 H  0.10  0.71  6.01
