35
#
 C  1.09  0.46  0.79
 C  0.37  0.17  2.10
 O  0.93  0.20  3.18
 H  1.80 -0.35  0.60
 H  1.66  1.38  0.91
 H  0.42  0.55 -0.07
 N -0.97 -0.13  1.97
 C -1.83 -0.60  3.06
 C -1.56  0.10  4.42
 O -1.43 -0.54  5.46
 H -1.35 -0.20  1.03
 H -2.84 -0.26  2.79
 C -1.89 -2.14  3.15
 C -0.59 -2.94  3.08
 C  0.34 -2.88  4.31
 N -0.29 -3.22  5.56
 C -0.63 -4.52  5.90
 N -1.45 -4.58  7.04
 N -0.31 -5.62  5.32
 H -2.54 -2.47  2.32
 H -2.44 -2.39  4.07
 H -0.01 -2.64  2.19
 H -0.88 -3.99  2.90
 H  0.75 -1.87  4.41
 H  1.20 -3.55  4.14
 H -0.86 -2.47  5.94
 H -1.51 -5.53  7.38
 H -1.21 -3.92  7.77
 H  0.20 -5.45  4.45
 N -1.64  1.46  4.46
 C -1.76  2.43  3.38
 H -1.43  1.82  5.38
 H -2.14  3.36  3.80
 H -2.47  2.08  2.62
 H -0.80  2.63  2.88
