35
#
 C -1.45  0.89 -0.95
 C -0.71 -0.03  0.01
 O  0.01 -0.94 -0.38
 H -1.25  1.95 -0.75
 H -2.54  0.74 -0.88
 H -1.13  0.65 -1.97
 N -0.87  0.22  1.35
 C -1.75  1.18  2.00
 C -1.05  2.51  2.38
 O -1.66  3.38  3.01
 H -0.41 -0.48  1.94
 H -2.54  1.46  1.29
 C -2.43  0.59  3.25
 C -1.48  0.31  4.42
 C -2.22  0.10  5.75
 N -3.21  1.14  6.08
 C -2.86  2.35  6.69
 N -1.82  3.03  6.06
 N -3.50  2.69  7.76
 H -2.97 -0.32  2.95
 H -3.19  1.31  3.58
 H -0.77  1.14  4.53
 H -0.88 -0.59  4.24
 H -1.47 -0.00  6.55
 H -2.78 -0.84  5.71
 H -4.00  0.76  6.60
 H -1.63  3.94  6.47
 H -1.86  3.08  5.04
 H -3.27  3.66  8.02
 N  0.23  2.65  1.96
 C  1.03  3.83  2.22
 H  0.64  1.85  1.48
 H  1.42  4.24  1.28
 H  1.87  3.60  2.89
 H  0.38  4.57  2.70
