35
#
 C -0.38  1.31 -0.42
 C -0.01  1.07  1.03
 O  1.14  1.30  1.44
 H -1.26  1.96 -0.52
 H -0.60  0.36 -0.94
 H  0.47  1.78 -0.91
 N -0.97  0.60  1.87
 C -2.31  0.17  1.52
 C -3.37  1.14  2.09
 O -3.18  1.77  3.12
 H -0.69  0.52  2.86
 H -2.39  0.15  0.43
 C -2.58 -1.28  2.03
 C -2.45 -1.47  3.56
 C -1.39 -2.49  4.00
 N -0.05 -2.31  3.45
 C  0.71 -1.19  3.72
 N  1.94 -1.14  3.07
 N  0.26 -0.29  4.53
 H -1.86 -1.93  1.50
 H -3.57 -1.59  1.68
 H -3.42 -1.80  3.97
 H -2.23 -0.51  4.05
 H -1.70 -3.51  3.74
 H -1.31 -2.44  5.10
 H  0.14 -2.78  2.57
 H  2.10 -0.22  2.65
 H  2.13 -1.88  2.41
 H  0.99  0.41  4.71
 N -4.55  1.22  1.40
 C -4.88  0.65  0.10
 H -5.21  1.87  1.82
 H -4.22  1.02 -0.70
 H -5.90  0.95 -0.15
 H -4.85 -0.45  0.11
