35
#
 C  0.66 -2.53  0.47
 C  1.22 -1.35  1.23
 O  2.42 -1.27  1.53
 H -0.42 -2.47  0.29
 H  0.88 -3.45  1.04
 H  1.18 -2.61 -0.49
 N  0.33 -0.37  1.55
 C  0.73  0.86  2.24
 C  0.79  0.61  3.77
 O -0.12  0.96  4.54
 H -0.65 -0.51  1.36
 H  1.75  1.08  1.90
 C -0.20  2.02  1.87
 C  0.26  3.37  2.46
 C -0.75  3.94  3.48
 N -0.27  5.04  4.29
 C  0.70  4.94  5.29
 N  1.03  3.65  5.67
 N  1.30  5.94  5.86
 H -1.22  1.78  2.22
 H -0.24  2.07  0.77
 H  0.43  4.10  1.66
 H  1.23  3.24  2.98
 H -1.09  3.12  4.13
 H -1.65  4.29  2.95
 H -0.32  5.96  3.87
 H  1.53  3.63  6.55
 H  0.39  2.88  5.51
 H  1.01  6.83  5.46
 N  1.91 -0.04  4.16
 C  2.15 -0.46  5.52
 H  2.51 -0.39  3.41
 H  1.32 -0.10  6.14
 H  3.09 -0.03  5.90
 H  2.20 -1.55  5.60
