35
#
 C  0.16  0.07  0.15
 C -0.01 -0.00  1.65
 O  0.97 -0.06  2.41
 H  0.76  0.95 -0.10
 H -0.79  0.13 -0.40
 H  0.71 -0.81 -0.19
 N -1.29  0.01  2.11
 C -1.61 -0.04  3.54
 C -1.58 -1.52  4.00
 O -2.60 -2.21  4.08
 H -2.05 -0.04  1.45
 H -0.79  0.50  4.05
 C -2.94  0.65  3.83
 C -3.10  1.19  5.25
 C -3.16  0.13  6.36
 N -3.40  0.68  7.69
 C -4.66  1.11  8.07
 N -4.65  1.72  9.33
 N -5.67  0.95  7.29
 H -3.76 -0.06  3.61
 H -3.04  1.49  3.13
 H -4.02  1.77  5.31
 H -2.27  1.89  5.47
 H -2.23 -0.46  6.41
 H -3.98 -0.58  6.15
 H -2.63  1.21  8.09
 H -5.58  1.90  9.70
 H -4.06  1.25 10.02
 H -6.54  1.20  7.76
 N -0.33 -1.97  4.28
 C -0.06 -3.37  4.58
 H  0.44 -1.37  3.97
 H  0.73 -3.44  5.33
 H  0.26 -3.93  3.68
 H -0.98 -3.82  4.96
