35
#
 C -0.52 -2.74  1.05
 C -1.17 -1.59  1.78
 O -1.46 -0.53  1.21
 H -1.17 -3.05  0.22
 H -0.33 -3.61  1.69
 H  0.43 -2.40  0.62
 N -1.42 -1.80  3.10
 C -1.94 -0.75  3.95
 C -1.66 -1.21  5.41
 O -1.12 -2.29  5.63
 H -1.06 -2.60  3.61
 H -1.36  0.17  3.76
 C -3.44 -0.43  3.69
 C -3.73  1.07  3.69
 C -5.19  1.45  4.01
 N -5.72  0.88  5.25
 C -5.12  1.08  6.48
 N -5.50  0.16  7.45
 N -4.24  1.98  6.79
 H -4.04 -0.95  4.45
 H -3.71 -0.86  2.72
 H -3.48  1.48  2.70
 H -3.06  1.58  4.39
 H -5.86  1.11  3.21
 H -5.29  2.54  4.05
 H -6.16 -0.03  5.15
 H -5.24  0.47  8.38
 H -6.46 -0.15  7.41
 H -4.01  2.58  6.00
 N -2.05 -0.36  6.39
 C -1.92 -0.72  7.79
 H -2.58  0.48  6.19
 H -0.88 -0.98  8.03
 H -2.55 -1.59  8.05
 H -2.24  0.14  8.39
