35
#
 C -2.39  1.40  1.73
 C -1.76  0.63  2.86
 O -1.24  1.18  3.84
 H -2.53  0.80  0.83
 H -1.76  2.27  1.50
 H -3.37  1.76  2.08
 N -1.83 -0.73  2.77
 C -1.35 -1.61  3.84
 C  0.15 -1.94  3.61
 O  0.54 -3.04  3.20
 H -2.21 -1.15  1.93
 H -1.41 -1.01  4.76
 C -2.20 -2.87  3.96
 C -3.70 -2.65  4.20
 C -4.08 -1.89  5.48
 N -4.03 -0.43  5.43
 C -4.86  0.36  4.65
 N -6.02 -0.26  4.19
 N -4.64  1.59  4.30
 H -1.78 -3.47  4.78
 H -2.05 -3.49  3.06
 H -4.17 -3.64  4.24
 H -4.17 -2.14  3.34
 H -3.42 -2.19  6.31
 H -5.09 -2.20  5.79
 H -3.13  0.00  5.61
 H -6.67  0.43  3.83
 H -6.46 -0.91  4.84
 H -3.71  1.90  4.61
 N  0.96 -0.89  3.91
 C  2.39 -0.92  3.67
 H  0.51 -0.01  4.14
 H  2.69 -1.96  3.47
 H  2.94 -0.56  4.55
 H  2.67 -0.30  2.81
