35
#
 C -1.05 -1.99  0.97
 C -1.68 -1.05  1.98
 O -1.29 -1.01  3.15
 H -1.50 -2.98  1.09
 H  0.02 -2.07  1.22
 H -1.16 -1.69 -0.07
 N -2.76 -0.28  1.60
 C -3.36  0.01  0.30
 C -3.55 -1.22 -0.60
 O -3.18 -1.25 -1.78
 H -3.08  0.30  2.38
 H -4.40  0.30  0.54
 C -2.76  1.24 -0.41
 C -1.25  1.34 -0.62
 C -0.65  0.57 -1.82
 N -1.37  0.71 -3.07
 C -1.36  1.87 -3.82
 N -2.32  1.86 -4.84
 N -0.61  2.91 -3.68
 H -3.06  2.11  0.21
 H -3.29  1.38 -1.37
 H -0.71  1.04  0.29
 H -1.02  2.40 -0.76
 H -0.62 -0.51 -1.61
 H  0.39  0.88 -1.97
 H -2.22  0.14 -3.11
 H -2.16  2.63 -5.49
 H -2.40  0.97 -5.33
 H -0.03  2.85 -2.84
 N -4.22 -2.29 -0.07
 C -4.83 -2.45  1.24
 H -4.32 -3.05 -0.73
 H -5.33 -1.53  1.56
 H -4.10 -2.73  2.01
 H -5.59 -3.23  1.17
