35
#
 C -0.14 -0.60  0.05
 C -0.18 -0.99  1.51
 O  0.58 -1.85  1.98
 H  0.88 -0.27 -0.19
 H -0.84  0.19 -0.22
 H -0.34 -1.49 -0.56
 N -1.10 -0.34  2.28
 C -1.25 -0.59  3.71
 C -2.17 -1.83  3.92
 O -3.37 -1.72  4.19
 H -1.76  0.29  1.83
 H -0.25 -0.84  4.08
 C -1.78  0.65  4.43
 C -1.71  0.54  5.95
 C -2.11  1.85  6.64
 N -2.06  1.76  8.09
 C -3.22  1.73  8.84
 N -2.95  1.74 10.22
 N -4.38  1.73  8.28
 H -2.82  0.83  4.12
 H -1.18  1.51  4.09
 H -0.69  0.26  6.26
 H -2.39 -0.25  6.30
 H -3.13  2.13  6.36
 H -1.44  2.67  6.31
 H -1.25  2.17  8.55
 H -3.77  1.55 10.79
 H -2.16  1.16 10.50
 H -5.12  1.61  8.96
 N -1.52 -3.01  3.74
 C -2.21 -4.28  3.75
 H -0.58 -2.94  3.35
 H -1.64 -5.02  4.31
 H -2.37 -4.66  2.73
 H -3.19 -4.14  4.22
