35
#
 C -1.25 -0.20 -0.39
 C -0.80 -0.17  1.06
 O  0.39 -0.26  1.36
 H -0.76  0.62 -0.93
 H -2.34 -0.12 -0.53
 H -0.91 -1.14 -0.84
 N -1.82 -0.03  1.97
 C -1.79 -0.00  3.44
 C -2.04  1.42  4.01
 O -3.05  1.59  4.70
 H -2.75  0.09  1.57
 H -2.71 -0.52  3.75
 C -0.61 -0.77  4.07
 C -0.84 -1.18  5.54
 C -0.85 -0.06  6.59
 N  0.36  0.74  6.57
 C  0.42  2.11  6.73
 N  1.74  2.60  6.63
 N -0.54  2.95  6.89
 H  0.33 -0.22  3.97
 H -0.47 -1.69  3.49
 H -0.05 -1.90  5.80
 H -1.79 -1.73  5.64
 H -1.00 -0.52  7.58
 H -1.71  0.61  6.42
 H  1.22  0.27  6.31
 H  1.76  3.58  6.90
 H  2.43  2.06  7.15
 H -1.46  2.50  6.84
 N -1.17  2.43  3.76
 C  0.15  2.43  3.15
 H -1.41  3.26  4.30
 H  0.35  1.49  2.62
 H  0.92  2.58  3.91
 H  0.22  3.25  2.42
