35
#
 C -1.92  1.63  5.02
 C -1.34  0.24  4.85
 O -0.56 -0.24  5.66
 H -2.60  1.63  5.88
 H -2.47  1.99  4.14
 H -1.11  2.33  5.25
 N -1.76 -0.44  3.72
 C -1.48 -1.85  3.53
 C -0.48 -2.15  2.39
 O -0.32 -3.30  1.98
 H -2.51 -0.03  3.18
 H -0.94 -2.16  4.45
 C -2.77 -2.70  3.43
 C -3.81 -2.27  2.38
 C -3.35 -2.35  0.91
 N -2.84 -3.64  0.49
 C -3.67 -4.75  0.36
 N -2.96 -5.95  0.34
 N -4.95 -4.78  0.18
 H -3.24 -2.68  4.42
 H -2.46 -3.73  3.25
 H -4.18 -1.25  2.58
 H -4.68 -2.92  2.51
 H -2.55 -1.62  0.71
 H -4.19 -2.06  0.26
 H -1.88 -3.82  0.77
 H -2.17 -6.02  0.98
 H -3.58 -6.75  0.37
 H -5.33 -3.84  0.09
 N  0.22 -1.08  1.94
 C  1.27 -1.19  0.95
 H  0.02 -0.19  2.38
 H  1.28 -2.22  0.58
 H  2.25 -0.95  1.38
 H  1.08 -0.51  0.10
