35
#
 C -1.82  0.10 -0.10
 C -1.26  0.17  1.31
 O -0.04  0.13  1.52
 H -2.91  0.20 -0.16
 H -1.52 -0.86 -0.54
 H -1.35  0.89 -0.70
 N -2.19  0.29  2.30
 C -1.96  0.27  3.76
 C -1.25  1.53  4.32
 O -1.75  2.13  5.28
 H -3.16  0.37  2.01
 H -2.96  0.33  4.20
 C -1.28 -1.04  4.22
 C -0.98 -1.11  5.72
 C -2.22 -1.03  6.62
 N -1.91 -1.16  8.04
 C -2.07 -2.31  8.80
 N -2.13 -3.49  8.05
 N -2.18 -2.38 10.08
 H -0.35 -1.18  3.65
 H -1.95 -1.87  3.93
 H -0.29 -0.30  6.00
 H -0.44 -2.05  5.92
 H -2.94 -1.81  6.34
 H -2.72 -0.06  6.48
 H -1.91 -0.30  8.58
 H -2.12 -4.29  8.67
 H -1.44 -3.57  7.31
 H -2.28 -1.45 10.50
 N -0.06  1.85  3.75
 C  0.74  2.97  4.19
 H  0.24  1.27  2.96
 H  1.72  2.64  4.55
 H  0.21  3.47  5.01
 H  0.89  3.69  3.37
