35
#
 C -0.82 -2.42  0.36
 C -0.97 -1.84  1.75
 O -1.12 -2.54  2.75
 H  0.08 -3.04  0.34
 H -0.75 -1.66 -0.43
 H -1.67 -3.08  0.16
 N -0.93 -0.47  1.82
 C -1.12  0.24  3.07
 C -1.68  1.62  2.72
 O -1.49  2.13  1.61
 H -0.91  0.11  0.99
 H -1.85 -0.33  3.67
 C  0.19  0.33  3.90
 C  1.34  1.09  3.24
 C  1.34  2.61  3.50
 N  2.36  3.35  2.78
 C  2.34  3.59  1.41
 N  1.08  3.69  0.83
 N  3.47  3.79  0.83
 H  0.48 -0.71  4.10
 H -0.05  0.77  4.89
 H  1.34  0.90  2.15
 H  2.30  0.68  3.60
 H  1.50  2.79  4.58
 H  0.36  3.05  3.28
 H  3.31  3.23  3.10
 H  0.29  3.18  1.23
 H  1.09  3.66 -0.18
 H  3.34  4.05 -0.15
 N -2.36  2.24  3.72
 C -2.85  3.60  3.62
 H -2.48  1.74  4.59
 H -2.68  3.95  2.59
 H -2.33  4.27  4.31
 H -3.93  3.64  3.83
