35
#
 C  1.19  1.57  1.53
 C  0.52  0.21  1.54
 O  1.11 -0.81  1.17
 H  1.91  1.61  2.36
 H  0.48  2.40  1.64
 H  1.74  1.69  0.60
 N -0.77  0.19  1.99
 C -1.48 -1.06  2.26
 C -0.56 -2.00  3.11
 O -0.23 -1.58  4.21
 H -1.13  1.03  2.42
 H -2.23 -0.80  3.02
 C -2.29 -1.59  1.05
 C -1.67 -1.46 -0.34
 C -2.53 -2.14 -1.40
 N -1.95 -1.94 -2.73
 C -2.46 -2.55 -3.87
 N -3.85 -2.65 -3.88
 N -1.64 -2.97 -4.77
 H -3.24 -1.03  1.05
 H -2.58 -2.63  1.26
 H -0.66 -1.89 -0.36
 H -1.55 -0.40 -0.60
 H -3.54 -1.70 -1.38
 H -2.65 -3.21 -1.16
 H -0.93 -2.01 -2.74
 H -4.24 -2.89 -4.79
 H -4.36 -1.90 -3.43
 H -2.14 -3.27 -5.61
 N -0.26 -3.28  2.74
 C -0.06 -3.85  1.41
 H  0.29 -3.71  3.48
 H -1.01 -4.02  0.89
 H  0.42 -4.82  1.54
 H  0.58 -3.21  0.80
