35
#
 C -0.41 -2.25 -0.61
 C -0.12 -1.80  0.81
 O  0.90 -2.16  1.40
 H -1.41 -2.71 -0.70
 H  0.35 -2.98 -0.89
 H -0.36 -1.40 -1.30
 N -1.02 -0.96  1.44
 C -2.35 -0.50  1.05
 C -3.37 -1.67  1.07
 O -3.64 -2.22  2.14
 H -0.77 -0.82  2.41
 H -2.68  0.12  1.90
 C -2.36  0.43 -0.18
 C -3.60  1.32 -0.26
 C -3.61  2.19 -1.52
 N -4.71  3.14 -1.60
 C -4.66  4.32 -0.88
 N -5.86  5.04 -0.96
 N -3.60  4.63 -0.20
 H -2.24 -0.14 -1.12
 H -1.46  1.06 -0.11
 H -3.62  1.99  0.62
 H -4.52  0.72 -0.22
 H -3.65  1.55 -2.42
 H -2.68  2.78 -1.57
 H -5.64  2.73 -1.69
 H -5.80  5.97 -0.56
 H -6.29  5.05 -1.88
 H -3.67  5.58  0.17
 N -3.90 -2.05 -0.12
 C -4.84 -3.15 -0.25
 H -3.62 -1.55 -0.96
 H -4.44 -3.95 -0.88
 H -5.80 -2.80 -0.67
 H -5.02 -3.54  0.76
