35
#
 C -1.01  1.28  0.21
 C -1.20  0.31  1.37
 O -1.34 -0.90  1.19
 H -0.08  1.03 -0.32
 H -0.97  2.33  0.52
 H -1.83  1.15 -0.51
 N -1.20  0.89  2.60
 C -1.27  0.12  3.84
 C -2.56 -0.71  4.06
 O -2.47 -1.78  4.65
 H -1.01  1.88  2.70
 H -0.49 -0.65  3.83
 C -1.05  1.06  5.04
 C  0.39  1.49  5.33
 C  1.16  2.24  4.23
 N  0.40  3.29  3.52
 C  0.03  4.46  4.19
 N -0.61  5.38  3.36
 N  0.20  4.57  5.46
 H -1.41  0.53  5.94
 H -1.69  1.95  4.93
 H  0.38  2.12  6.22
 H  0.99  0.60  5.57
 H  1.47  1.53  3.44
 H  2.07  2.66  4.68
 H  0.76  3.47  2.59
 H -0.56  6.34  3.67
 H -0.49  5.28  2.36
 H -0.21  5.43  5.82
 N -3.77 -0.22  3.67
 C -4.14  1.02  3.00
 H -4.52 -0.88  3.85
 H -3.61  1.88  3.42
 H -5.21  1.18  3.16
 H -3.96  0.99  1.91
