35
#
 C -0.27  0.52 -0.19
 C -0.01  0.27  1.28
 O  1.14  0.16  1.71
 H  0.68  0.80 -0.66
 H -1.01  1.32 -0.38
 H -0.65 -0.39 -0.67
 N -1.08  0.15  2.13
 C -2.52  0.22  1.87
 C -2.92 -0.81  0.77
 O -2.64 -1.99  0.92
 H -0.79 -0.13  3.06
 H -2.98 -0.21  2.77
 C -3.01  1.67  1.74
 C -4.52  1.85  1.95
 C -5.04  3.26  1.60
 N -4.48  3.87  0.39
 C -4.49  3.22 -0.83
 N -3.55  3.72 -1.74
 N -5.22  2.21 -1.19
 H -2.71  2.07  0.76
 H -2.46  2.27  2.48
 H -4.77  1.66  3.00
 H -5.07  1.09  1.38
 H -4.81  3.96  2.41
 H -6.14  3.24  1.52
 H -3.66  4.44  0.55
 H -3.73  3.39 -2.68
 H -3.38  4.72 -1.70
 H -5.84  1.92 -0.43
 N -3.59 -0.34 -0.32
 C -4.00 -1.24 -1.38
 H -3.81  0.64 -0.45
 H -3.14 -1.64 -1.94
 H -4.65 -0.68 -2.07
 H -4.55 -2.10 -0.97
