35
#
 C -0.87  1.44  2.16
 C -0.34  0.02  2.10
 O  0.74 -0.30  2.60
 H -1.75  1.50  2.81
 H -1.18  1.81  1.17
 H -0.09  2.08  2.56
 N -1.12 -0.91  1.46
 C -2.47 -0.74  0.94
 C -3.55 -0.44  1.99
 O -4.48  0.32  1.69
 H -0.72 -1.85  1.47
 H -2.50  0.13  0.28
 C -2.85 -1.98  0.10
 C -4.13 -1.84 -0.74
 C -5.34 -2.66 -0.27
 N -5.87 -2.28  1.04
 C -5.74 -3.10  2.14
 N -6.31 -2.53  3.29
 N -5.12 -4.23  2.08
 H -2.93 -2.87  0.75
 H -1.99 -2.16 -0.57
 H -3.92 -2.16 -1.77
 H -4.42 -0.78 -0.81
 H -5.08 -3.72 -0.20
 H -6.14 -2.56 -1.02
 H -5.92 -1.28  1.23
 H -6.46 -3.20  4.04
 H -7.15 -1.98  3.12
 H -5.22 -4.75  2.95
 N -3.51 -1.03  3.22
 C -2.67 -2.12  3.71
 H -4.36 -0.86  3.74
 H -1.64 -1.80  3.90
 H -2.67 -2.98  3.02
 H -3.11 -2.46  4.65
