35
#
 C -1.43 -4.77  2.48
 C -1.05 -3.30  2.57
 O -0.11 -2.82  1.92
 H -1.64 -5.19  3.48
 H -0.61 -5.32  2.02
 H -2.34 -4.88  1.88
 N -1.82 -2.54  3.39
 C -1.72 -1.08  3.43
 C -0.61 -0.63  4.42
 O -0.87 -0.11  5.51
 H -2.61 -2.96  3.87
 H -1.43 -0.76  2.42
 C -3.07 -0.47  3.80
 C -4.24 -0.91  2.89
 C -5.33 -1.71  3.61
 N -4.87 -2.98  4.19
 C -4.87 -4.16  3.44
 N -4.68 -5.29  4.24
 N -5.02 -4.30  2.17
 H -2.96  0.62  3.78
 H -3.28 -0.72  4.85
 H -3.86 -1.49  2.04
 H -4.73 -0.02  2.45
 H -6.17 -1.90  2.92
 H -5.73 -1.11  4.44
 H -5.15 -3.11  5.15
 H -4.03 -5.19  5.01
 H -4.50 -6.12  3.68
 H -5.27 -3.41  1.72
 N  0.64 -0.86  3.94
 C  1.83 -0.62  4.73
 H  0.70 -1.41  3.08
 H  1.55 -0.02  5.60
 H  2.58 -0.09  4.14
 H  2.27 -1.57  5.09
