35
#
 C  0.01 -0.02  0.17
 C -0.09  0.01  1.69
 O  0.90  0.17  2.40
 H  0.85  0.61 -0.12
 H -0.89  0.29 -0.35
 H  0.23 -1.06 -0.14
 N -1.33 -0.21  2.27
 C -2.66 -0.15  1.66
 C -2.86 -1.24  0.57
 O -3.54 -1.05 -0.43
 H -1.28 -0.10  3.28
 H -3.35 -0.43  2.47
 C -3.07  1.26  1.18
 C -4.59  1.50  1.18
 C -4.93  2.97  0.90
 N -6.35  3.27  0.90
 C -7.10  3.07 -0.25
 N -8.48  3.23 -0.00
 N -6.55  2.75 -1.36
 H -2.68  1.44  0.17
 H -2.59  1.98  1.86
 H -5.01  1.21  2.16
 H -5.06  0.86  0.42
 H -4.55  3.25 -0.09
 H -4.44  3.61  1.64
 H -6.84  3.06  1.76
 H -9.04  3.26 -0.85
 H -8.71  4.00  0.62
 H -7.22  2.75 -2.13
 N -2.27 -2.43  0.87
 C -2.34 -3.58 -0.02
 H -1.65 -2.45  1.67
 H -2.66 -4.47  0.53
 H -1.36 -3.79 -0.49
 H -3.06 -3.35 -0.80
