35
#
 C -0.28  0.93 -0.22
 C -0.12 -0.24  0.73
 O  0.91 -0.91  0.72
 H -1.14  0.82 -0.89
 H  0.63  0.98 -0.83
 H -0.39  1.88  0.32
 N -1.12 -0.57  1.62
 C -2.50 -0.16  1.92
 C -3.50 -1.33  1.70
 O -4.27 -1.63  2.61
 H -0.81 -1.36  2.18
 H -2.55 -0.03  3.01
 C -2.98  1.17  1.32
 C -4.36  1.62  1.83
 C -5.55  1.09  0.99
 N -6.85  1.55  1.44
 C -7.50  0.95  2.52
 N -8.65  1.68  2.89
 N -7.20 -0.11  3.17
 H -3.00  1.13  0.22
 H -2.24  1.93  1.59
 H -4.39  2.72  1.81
 H -4.50  1.32  2.88
 H -5.57 -0.00  0.99
 H -5.42  1.41 -0.05
 H -7.00  2.55  1.38
 H -9.18  1.16  3.58
 H -9.23  1.96  2.10
 H -6.28 -0.49  2.93
 N -3.52 -2.00  0.51
 C -2.75 -1.80 -0.70
 H -4.20 -2.75  0.52
 H -3.21 -2.40 -1.50
 H -1.70 -2.12 -0.59
 H -2.77 -0.76 -1.03
