35
#
 C -1.05  0.23 -0.32
 C -0.00  0.28  0.78
 O  1.05  0.90  0.65
 H -1.94  0.80 -0.03
 H -1.36 -0.80 -0.55
 H -0.61  0.69 -1.21
 N -0.26 -0.37  1.97
 C -1.33 -1.31  2.34
 C -1.14 -2.66  1.59
 O -0.13 -3.33  1.78
 H  0.56 -0.38  2.57
 H -1.08 -1.59  3.37
 C -2.73 -0.69  2.37
 C -3.74 -1.42  3.26
 C -3.44 -1.36  4.77
 N -3.30 -0.02  5.33
 C -4.40  0.79  5.50
 N -4.04  2.08  5.93
 N -5.59  0.36  5.24
 H -3.15 -0.59  1.35
 H -2.63  0.35  2.71
 H -3.81 -2.49  2.98
 H -4.74 -0.99  3.11
 H -2.51 -1.91  5.02
 H -4.26 -1.85  5.31
 H -2.43  0.46  5.14
 H -3.30  2.11  6.62
 H -4.84  2.65  6.20
 H -6.30  1.03  5.53
 N -2.13 -3.03  0.73
 C -2.09 -4.27 -0.03
 H -2.95 -2.44  0.65
 H -1.15 -4.77  0.22
 H -2.11 -4.07 -1.11
 H -2.93 -4.93  0.23
