35
#
 C -0.70 -0.16  0.33
 C -0.37  0.07  1.79
 O  0.78  0.37  2.15
 H -1.73 -0.48  0.14
 H -0.01 -0.93 -0.06
 H -0.50  0.77 -0.22
 N -1.42 -0.08  2.65
 C -1.49 -0.01  4.12
 C -0.99  1.28  4.83
 O -1.58  1.64  5.85
 H -2.29 -0.35  2.21
 H -2.57  0.04  4.32
 C -1.00 -1.27  4.87
 C  0.50 -1.59  4.88
 C  1.01 -2.52  3.77
 N  0.38 -3.84  3.74
 C -0.66 -4.19  2.91
 N -1.16 -5.47  3.18
 N -1.21 -3.50  1.96
 H -1.57 -2.13  4.50
 H -1.33 -1.11  5.91
 H  0.74 -2.07  5.84
 H  1.10 -0.67  4.85
 H  2.09 -2.66  3.89
 H  0.88 -2.07  2.78
 H  0.44 -4.37  4.60
 H -1.82 -5.76  2.47
 H -0.44 -6.18  3.34
 H -0.85 -2.55  1.96
 N  0.07  1.92  4.30
 C  0.62  3.11  4.93
 H  0.55  1.48  3.50
 H  1.30  3.60  4.23
 H  1.17  2.87  5.85
 H -0.19  3.80  5.20
