35
#
 C -1.76  3.45  2.32
 C -1.16  2.43  3.27
 O  0.01  2.04  3.13
 H -1.10  4.32  2.28
 H -2.77  3.77  2.60
 H -1.79  3.01  1.32
 N -1.98  1.99  4.26
 C -1.72  0.91  5.23
 C -0.65  1.24  6.30
 O -0.93  1.10  7.50
 H -2.91  2.40  4.30
 H -2.64  0.84  5.81
 C -1.49 -0.44  4.52
 C -1.09 -1.63  5.41
 C -1.97 -1.90  6.65
 N -3.39 -1.67  6.42
 C -4.25 -0.96  7.25
 N -3.64 -0.14  8.18
 N -5.54 -1.01  7.21
 H -0.71 -0.31  3.75
 H -2.42 -0.67  4.00
 H -0.05 -1.50  5.77
 H -1.08 -2.51  4.77
 H -1.66 -1.26  7.48
 H -1.79 -2.93  6.99
 H -3.87 -2.36  5.86
 H -4.31  0.46  8.65
 H -2.74  0.30  7.98
 H -5.86 -1.73  6.56
 N  0.56  1.63  5.84
 C  1.67  1.96  6.72
 H  0.65  1.73  4.82
 H  2.54  1.33  6.49
 H  1.35  1.78  7.75
 H  1.96  3.01  6.60
