35
#
 C  0.54 -0.37  1.07
 C  0.35 -0.63  2.56
 O  1.29 -1.07  3.24
 H  0.37  0.69  0.82
 H -0.15 -0.97  0.47
 H  1.57 -0.63  0.81
 N -0.86 -0.38  3.13
 C -2.06  0.24  2.57
 C -2.62 -0.62  1.39
 O -2.94 -1.78  1.64
 H -0.94 -0.70  4.10
 H -2.83  0.04  3.33
 C -1.97  1.77  2.42
 C -2.08  2.61  3.71
 C -0.91  2.60  4.72
 N -1.03  1.59  5.77
 C -0.23  0.46  5.87
 N  1.13  0.63  5.69
 N -0.82 -0.67  6.13
 H -2.81  2.09  1.79
 H -1.06  2.05  1.88
 H -3.01  2.35  4.24
 H -2.22  3.65  3.39
 H -0.85  3.60  5.18
 H  0.04  2.45  4.19
 H -1.98  1.37  6.04
 H  1.55 -0.09  5.09
 H  1.45  1.57  5.48
 H -0.12 -1.39  6.35
 N -2.83 -0.13  0.13
 C -2.42  1.09 -0.55
 H -3.26 -0.84 -0.45
 H -3.11  1.93 -0.37
 H -2.42  0.89 -1.63
 H -1.41  1.40 -0.28
