35
#
 C  0.30 -1.03  0.30
 C  0.16 -0.55  1.73
 O  1.09 -0.58  2.53
 H  1.11 -0.47 -0.18
 H -0.61 -0.93 -0.30
 H  0.60 -2.09  0.32
 N -1.07 -0.06  2.05
 C -1.45  0.31  3.41
 C -2.99  0.34  3.43
 O -3.65 -0.12  2.49
 H -1.88 -0.24  1.45
 H -1.12 -0.49  4.10
 C -0.80  1.62  3.89
 C -1.20  2.86  3.08
 C -1.27  4.15  3.93
 N -2.59  4.50  4.44
 C -3.12  4.08  5.63
 N -4.20  4.84  6.08
 N -2.60  3.09  6.29
 H  0.29  1.48  3.87
 H -1.06  1.77  4.95
 H -2.17  2.72  2.59
 H -0.48  3.02  2.27
 H -0.94  5.01  3.33
 H -0.59  4.08  4.79
 H -3.18  5.07  3.85
 H -4.91  4.34  6.60
 H -4.56  5.57  5.48
 H -3.00  3.03  7.23
 N -3.56  0.87  4.54
 C -5.00  0.99  4.65
 H -3.00  1.45  5.18
 H -5.25  1.23  5.68
 H -5.48  0.05  4.36
 H -5.40  1.78  3.99
