35
#
 C -0.67 -0.11  0.32
 C -0.81 -0.42  1.80
 O -0.31 -1.42  2.30
 H -0.12 -0.93 -0.15
 H -0.12  0.82  0.15
 H -1.65 -0.01 -0.17
 N -1.51  0.47  2.57
 C -2.27  1.65  2.14
 C -2.09  2.78  3.18
 O -3.03  3.23  3.83
 H -1.61  0.17  3.54
 H -1.81  2.00  1.20
 C -3.75  1.37  1.87
 C -4.50  0.67  3.02
 C -5.98  1.06  3.06
 N -6.13  2.49  3.34
 C -7.04  3.30  2.70
 N -8.23  2.63  2.34
 N -6.75  4.53  2.47
 H -3.82  0.75  0.96
 H -4.23  2.33  1.63
 H -4.05  0.95  3.98
 H -4.42 -0.42  2.93
 H -6.48  0.45  3.83
 H -6.47  0.82  2.10
 H -5.26  2.98  3.57
 H -8.96  3.26  2.02
 H -8.57  1.95  3.00
 H -7.57  5.05  2.13
 N -0.82  3.26  3.35
 C  0.40  2.90  2.65
 H -0.77  3.99  4.06
 H  1.15  3.67  2.86
 H  0.24  2.89  1.56
 H  0.79  1.93  2.96
