35
#
 C  0.53 -2.17 -0.13
 C  1.17 -1.21  0.85
 O  2.38 -1.19  1.05
 H  0.76 -3.20  0.19
 H  0.97 -2.03 -1.12
 H -0.56 -2.07 -0.21
 N  0.32 -0.34  1.47
 C  0.79  0.67  2.43
 C  0.94  0.02  3.83
 O  0.08  0.15  4.71
 H -0.68 -0.45  1.35
 H  1.78  0.97  2.07
 C -0.15  1.87  2.46
 C  0.46  3.08  3.16
 C -0.55  4.22  3.32
 N -0.02  5.46  3.89
 C  0.48  5.55  5.19
 N -0.12  4.70  6.11
 N  1.42  6.34  5.59
 H -1.08  1.57  2.98
 H -0.42  2.13  1.42
 H  1.33  3.44  2.59
 H  0.82  2.79  4.16
 H -1.40  3.88  3.93
 H -0.98  4.49  2.34
 H  0.52  6.01  3.24
 H  0.15  4.93  7.06
 H -1.12  4.54  6.00
 H  1.87  6.82  4.81
 N  2.08 -0.69  3.97
 C  2.37 -1.48  5.15
 H  2.62 -0.85  3.11
 H  3.43 -1.38  5.43
 H  2.15 -2.55  5.00
 H  1.75 -1.11  5.97
