35
#
 C  0.05 -1.74  0.49
 C -0.19 -0.44  1.22
 O  0.61  0.48  1.17
 H  1.11 -2.00  0.62
 H -0.11 -1.58 -0.59
 H -0.57 -2.58  0.81
 N -1.33 -0.32  2.01
 C -2.57 -1.10  1.98
 C -2.48 -2.47  2.69
 O -3.34 -3.33  2.52
 H -1.39  0.62  2.40
 H -3.27 -0.53  2.62
 C -3.21 -1.22  0.59
 C -3.61  0.13 -0.01
 C -3.76  0.12 -1.54
 N -2.51 -0.10 -2.24
 C -2.09 -1.34 -2.72
 N -0.76 -1.30 -3.15
 N -2.73 -2.45 -2.78
 H -4.08 -1.88  0.68
 H -2.51 -1.74 -0.08
 H -2.86  0.89  0.24
 H -4.56  0.48  0.44
 H -4.19  1.08 -1.87
 H -4.47 -0.66 -1.86
 H -1.76  0.53 -1.99
 H -0.52 -2.16 -3.64
 H -0.50 -0.48 -3.69
 H -3.64 -2.41 -2.32
 N -1.42 -2.61  3.54
 C -1.19 -3.81  4.32
 H -0.77 -1.84  3.58
 H -1.17 -3.58  5.39
 H -0.24 -4.28  4.04
 H -2.01 -4.50  4.11
