35
#
 C  1.08  0.58  1.39
 C  0.40 -0.30  2.42
 O  0.99 -0.72  3.41
 H  2.11  0.24  1.24
 H  1.12  1.61  1.78
 H  0.56  0.60  0.42
 N -0.92 -0.59  2.17
 C -1.79 -1.19  3.18
 C -1.58 -0.47  4.54
 O -1.65  0.76  4.59
 H -1.37 -0.06  1.43
 H -2.81 -0.87  2.90
 C -1.80 -2.73  3.14
 C -0.45 -3.45  3.26
 C -0.63 -4.97  3.38
 N  0.68 -5.62  3.41
 C  0.86 -6.95  3.77
 N -0.24 -7.76  3.51
 N  1.91 -7.48  4.30
 H -2.27 -3.03  2.19
 H -2.49 -3.08  3.93
 H  0.12 -3.08  4.12
 H  0.17 -3.22  2.38
 H -1.20 -5.33  2.51
 H -1.22 -5.21  4.28
 H  1.44 -5.02  3.74
 H -0.00 -8.74  3.61
 H -0.74 -7.57  2.64
 H  2.59 -6.76  4.57
 N -1.45 -1.26  5.64
 C -1.20 -0.68  6.95
 H -1.21 -2.23  5.50
 H -0.13 -0.45  7.10
 H -1.53 -1.37  7.73
 H -1.76  0.26  7.03
