35
#
 C -0.48  0.64  0.17
 C -0.53  0.11  1.59
 O  0.39  0.31  2.38
 H -1.38  0.45 -0.42
 H  0.38  0.19 -0.34
 H -0.30  1.72  0.21
 N -1.67 -0.57  1.91
 C -2.02 -1.33  3.11
 C -3.06 -0.67  4.05
 O -3.90 -1.39  4.58
 H -2.35 -0.65  1.16
 H -2.62 -2.18  2.73
 C -0.85 -1.99  3.88
 C -0.14 -1.23  5.01
 C -0.86 -1.29  6.37
 N -0.09 -0.72  7.47
 C  0.95 -1.42  8.08
 N  1.67 -0.61  8.98
 N  1.30 -2.65  7.92
 H -0.11 -2.29  3.13
 H -1.25 -2.93  4.30
 H  0.05 -0.19  4.72
 H  0.86 -1.68  5.14
 H -1.10 -2.33  6.63
 H -1.82 -0.77  6.34
 H  0.05  0.28  7.43
 H  2.33 -1.17  9.51
 H  1.09 -0.04  9.58
 H  0.79 -3.09  7.15
 N -3.05  0.68  4.29
 C -2.14  1.73  3.86
 H -3.82  0.95  4.89
 H -2.13  2.51  4.63
 H -2.45  2.19  2.91
 H -1.12  1.36  3.75
