35
#
 C  0.28  0.01  0.31
 C  0.21  0.37  1.79
 O  1.11  0.98  2.36
 H -0.66 -0.39 -0.09
 H  1.07 -0.74  0.18
 H  0.57  0.90 -0.26
 N -0.95 -0.01  2.43
 C -1.16  0.07  3.87
 C -0.62  1.39  4.49
 O  0.15  1.38  5.45
 H -1.61 -0.57  1.90
 H -2.26  0.11  4.00
 C -0.62 -1.17  4.60
 C -1.14 -1.40  6.02
 C -2.67 -1.50  6.17
 N -3.30 -2.43  5.22
 C -3.27 -3.79  5.46
 N -4.07 -4.51  4.55
 N -2.58 -4.27  6.44
 H  0.47 -1.10  4.62
 H -0.88 -2.04  3.98
 H -0.79 -0.60  6.68
 H -0.70 -2.34  6.39
 H -3.13 -0.52  6.00
 H -2.90 -1.80  7.20
 H -4.19 -2.11  4.85
 H -3.93 -5.51  4.59
 H -4.04 -4.16  3.60
 H -2.58 -5.30  6.42
 N -1.14  2.57  4.03
 C -1.96  2.81  2.86
 H -0.68  3.37  4.45
 H -2.45  3.79  2.97
 H -2.76  2.06  2.78
 H -1.39  2.81  1.92
