35
#
 C -0.65  0.50 -0.59
 C -0.22  0.16  0.82
 O  0.95  0.14  1.18
 H  0.24  0.77 -1.16
 H -1.37  1.33 -0.62
 H -1.14 -0.37 -1.07
 N -1.23 -0.12  1.73
 C -2.66 -0.25  1.46
 C -3.37  1.10  1.25
 O -4.39  1.17  0.55
 H -0.88 -0.45  2.63
 H -2.82 -0.80  0.53
 C -3.28 -1.07  2.61
 C -4.79 -1.32  2.52
 C -5.67 -0.16  3.08
 N -6.74  0.28  2.19
 C -7.81 -0.55  1.85
 N -8.26 -1.35  2.90
 N -8.39 -0.63  0.71
 H -3.04 -0.58  3.57
 H -2.75 -2.04  2.62
 H -5.03 -2.24  3.06
 H -5.08 -1.50  1.48
 H -5.05  0.72  3.29
 H -6.11 -0.46  4.04
 H -6.36  0.76  1.37
 H -9.14 -1.80  2.64
 H -8.32 -0.89  3.80
 H -7.88 -0.10 -0.00
 N -2.82  2.16  1.90
 C -3.36  3.50  1.83
 H -1.93  1.99  2.36
 H -4.27  3.47  1.23
 H -2.65  4.19  1.35
 H -3.59  3.88  2.83
