35
#
 C -0.45 -0.25  0.24
 C -0.69 -0.18  1.74
 O  0.22 -0.34  2.54
 H -0.21  0.75 -0.13
 H -1.31 -0.63 -0.33
 H  0.42 -0.89  0.07
 N -1.97  0.08  2.19
 C -3.19  0.42  1.46
 C -3.82 -0.77  0.68
 O -4.65 -0.57 -0.20
 H -1.99  0.21  3.20
 H -3.93  0.64  2.25
 C -3.11  1.68  0.57
 C -2.61  2.92  1.31
 C -2.65  4.17  0.42
 N -2.07  5.36  1.00
 C -0.70  5.56  1.04
 N -0.35  6.69  1.79
 N  0.24  4.87  0.49
 H -4.12  1.84  0.17
 H -2.48  1.48 -0.30
 H -1.58  2.76  1.67
 H -3.23  3.10  2.21
 H -3.70  4.39  0.15
 H -2.13  3.97 -0.53
 H -2.58  5.75  1.79
 H  0.64  6.89  1.70
 H -0.92  7.51  1.61
 H -0.12  4.00  0.08
 N -3.41 -2.00  1.09
 C -3.92 -3.22  0.50
 H -2.70 -2.04  1.81
 H -4.41 -3.85  1.26
 H -3.12 -3.80  0.03
 H -4.66 -2.95 -0.26
