35
#
 C -1.31  2.06  2.26
 C -0.49  0.85  2.65
 O  0.67  0.95  3.05
 H -1.39  2.12  1.17
 H -2.33  2.04  2.68
 H -0.79  2.95  2.62
 N -1.07 -0.39  2.53
 C -2.35 -0.76  1.94
 C -2.98 -1.89  2.79
 O -3.15 -3.03  2.34
 H -0.43 -1.15  2.78
 H -3.01  0.12  2.03
 C -2.28 -1.14  0.45
 C -1.19 -2.15  0.05
 C  0.14 -1.54 -0.44
 N -0.01 -0.75 -1.65
 C -0.06  0.64 -1.66
 N -0.59  1.15 -2.86
 N  0.29  1.47 -0.74
 H -2.14 -0.21 -0.13
 H -3.26 -1.53  0.17
 H -1.58 -2.79 -0.75
 H -0.98 -2.84  0.88
 H  0.86 -2.35 -0.62
 H  0.59 -0.90  0.33
 H -0.58 -1.18 -2.36
 H -0.42  2.15 -2.92
 H -0.28  0.66 -3.69
 H  0.61  1.00  0.11
 N -3.34 -1.57  4.07
 C -3.24 -0.29  4.75
 H -3.71 -2.36  4.58
 H -3.84 -0.34  5.66
 H -3.65  0.52  4.14
 H -2.21 -0.04  5.03
