35
#
 C -0.09 -0.54  0.72
 C -1.09  0.26  1.53
 O -0.96  1.48  1.69
 H  0.89 -0.07  0.85
 H -0.35 -0.48 -0.35
 H -0.04 -1.60  1.01
 N -2.14 -0.40  2.11
 C -2.76 -1.68  1.74
 C -2.08 -2.92  2.35
 O -2.32 -4.05  1.94
 H -2.78  0.21  2.62
 H -3.74 -1.63  2.24
 C -3.03 -1.91  0.23
 C -3.54 -0.72 -0.59
 C -4.82  0.00 -0.11
 N -4.58  1.25  0.58
 C -4.56  1.43  1.95
 N -3.85  2.57  2.33
 N -5.11  0.68  2.86
 H -3.74 -2.74  0.17
 H -2.11 -2.29 -0.24
 H -3.72 -1.11 -1.61
 H -2.75  0.04 -0.71
 H -5.42 -0.65  0.54
 H -5.46  0.21 -0.98
 H -4.15  2.00  0.05
 H -2.88  2.60  1.99
 H -3.89  2.70  3.34
 H -5.74 -0.01  2.44
 N -1.24 -2.66  3.39
 C -0.58 -3.70  4.15
 H -1.13 -1.68  3.66
 H -0.91 -3.71  5.20
 H  0.51 -3.56  4.13
 H -0.83 -4.66  3.69
