35
#
 C  0.47  0.27  0.17
 C  0.32  0.26  1.68
 O  1.24  0.57  2.44
 H  1.42 -0.20 -0.09
 H  0.52  1.31 -0.16
 H -0.34 -0.24 -0.35
 N -0.91 -0.10  2.15
 C -1.29 -0.00  3.56
 C -0.88  1.40  4.09
 O -1.42  2.37  3.56
 H -1.66 -0.23  1.47
 H -2.38  0.12  3.55
 C -1.02 -1.30  4.36
 C  0.26 -2.09  4.05
 C  0.42 -3.34  4.92
 N -0.67 -4.32  4.82
 C -1.01 -4.92  3.62
 N  0.08 -5.31  2.84
 N -2.26 -5.03  3.31
 H -1.87 -1.96  4.16
 H -1.08 -1.06  5.43
 H  1.16 -1.46  4.16
 H  0.25 -2.39  2.99
 H  0.49 -3.06  5.98
 H  1.37 -3.83  4.68
 H -1.52 -4.05  5.30
 H -0.15 -5.92  2.07
 H  0.90 -5.64  3.36
 H -2.39 -5.62  2.48
 N -0.09  1.58  5.20
 C  1.03  0.77  5.68
 H -0.02  2.57  5.40
 H  1.58  1.38  6.41
 H  1.70  0.50  4.86
 H  0.69 -0.13  6.20
