35
#
 C -0.51  0.50  1.35
 C -0.54  0.09  2.81
 O  0.16  0.67  3.65
 H -1.19  1.35  1.20
 H -0.80 -0.30  0.66
 H  0.50  0.85  1.11
 N -1.33 -0.97  3.18
 C -2.51 -1.51  2.51
 C -2.20 -2.50  1.36
 O -3.04 -2.78  0.51
 H -1.32 -1.14  4.20
 H -2.97 -2.15  3.28
 C -3.57 -0.48  2.05
 C -3.83  0.72  2.97
 C -4.58  0.47  4.29
 N -3.91 -0.34  5.31
 C -2.64 -0.11  5.80
 N -2.27  1.21  5.96
 N -1.90 -1.14  6.09
 H -4.51 -1.03  1.87
 H -3.28 -0.09  1.06
 H -4.44  1.44  2.41
 H -2.89  1.24  3.19
 H -5.54 -0.03  4.09
 H -4.85  1.45  4.73
 H -4.11 -1.34  5.30
 H -1.29  1.39  5.75
 H -2.89  1.93  5.60
 H -1.06 -0.85  6.59
 N -0.95 -3.05  1.41
 C -0.49 -4.04  0.47
 H -0.34 -2.72  2.15
 H -0.25 -4.99  0.97
 H  0.40 -3.70 -0.08
 H -1.30 -4.22 -0.25
