35
#
 C  0.29 -0.59  1.72
 C -0.87 -0.98  2.61
 O -0.91 -2.08  3.17
 H  1.14 -1.23  1.99
 H  0.59  0.46  1.81
 H  0.04 -0.77  0.67
 N -1.91 -0.09  2.78
 C -2.14  1.21  2.16
 C -2.60  2.18  3.28
 O -3.79  2.38  3.50
 H -2.66 -0.46  3.35
 H -1.18  1.56  1.75
 C -3.19  1.17  1.04
 C -2.81  0.26 -0.13
 C -1.71  0.84 -1.02
 N -1.16 -0.19 -1.89
 C -0.03  0.06 -2.66
 N  0.28 -1.00 -3.51
 N  0.72  1.12 -2.67
 H -3.37  2.20  0.69
 H -4.15  0.85  1.48
 H -3.71  0.07 -0.74
 H -2.49 -0.72  0.25
 H -0.89  1.23 -0.41
 H -2.11  1.70 -1.59
 H -1.83 -0.80 -2.32
 H  1.18 -0.85 -3.97
 H  0.22 -1.92 -3.08
 H  0.30  1.88 -2.12
 N -1.62  2.76  4.03
 C -0.18  2.52  3.98
 H -1.98  3.32  4.80
 H  0.30  3.19  4.70
 H  0.24  2.76  2.99
 H  0.08  1.49  4.24
