35
#
 C  0.25  2.67 -1.22
 C  0.61  1.62 -0.19
 O  1.77  1.48  0.21
 H -0.69  3.20 -0.98
 H  1.07  3.39 -1.27
 H  0.13  2.21 -2.21
 N -0.39  0.79  0.27
 C -1.82  0.88  0.06
 C -2.46  0.10  1.24
 O -1.78 -0.30  2.19
 H -0.13  0.22  1.08
 H -2.16  1.92  0.21
 C -2.27  0.46 -1.37
 C -1.65 -0.79 -1.99
 C -2.19 -2.14 -1.51
 N -1.81 -2.40 -0.13
 C -2.55 -3.24  0.68
 N -1.97 -3.37  1.95
 N -3.63 -3.80  0.24
 H -2.04  1.31 -2.03
 H -3.37  0.38 -1.40
 H -0.56 -0.76 -1.87
 H -1.83 -0.74 -3.08
 H -1.83 -2.94 -2.18
 H -3.28 -2.17 -1.55
 H -0.83 -2.32  0.10
 H -2.54 -3.89  2.60
 H -1.65 -2.48  2.34
 H -4.10 -4.30  0.99
 N -3.81 -0.03  1.18
 C -4.58 -0.74  2.19
 H -4.28  0.24  0.33
 H -5.46 -0.15  2.47
 H -3.94 -0.88  3.07
 H -4.90 -1.72  1.81
