35
#
 C -0.28 -1.13 -0.06
 C -0.22  0.09  0.85
 O  0.55  1.02  0.63
 H -1.25 -1.20 -0.57
 H -0.11 -2.07  0.49
 H  0.51 -1.02 -0.81
 N -1.05  0.09  1.95
 C -2.14 -0.83  2.18
 C -3.35 -0.57  1.25
 O -3.62  0.54  0.79
 H -1.06  0.99  2.44
 H -1.77 -1.84  1.93
 C -2.55 -0.90  3.68
 C -2.73  0.39  4.49
 C -3.82  1.39  4.04
 N -3.42  2.35  3.02
 C -2.38  3.25  3.24
 N -2.31  3.74  4.55
 N -1.51  3.66  2.38
 H -1.78 -1.50  4.18
 H -3.48 -1.49  3.74
 H -1.78  0.93  4.57
 H -2.97  0.07  5.51
 H -4.18  1.93  4.93
 H -4.70  0.85  3.65
 H -3.42  1.96  2.07
 H -1.64  4.51  4.60
 H -3.20  3.98  4.97
 H -1.58  3.14  1.49
 N -4.11 -1.66  0.92
 C -3.86 -3.06  1.22
 H -4.88 -1.43  0.30
 H -4.68 -3.65  0.79
 H -3.85 -3.26  2.30
 H -2.92 -3.42  0.78
