35
#
 C -2.83  0.72  0.06
 C -2.13  0.10  1.25
 O -1.11 -0.57  1.14
 H -2.98 -0.06 -0.70
 H -2.18  1.49 -0.37
 H -3.80  1.17  0.30
 N -2.73  0.33  2.47
 C -2.09 -0.02  3.73
 C -2.86 -1.08  4.56
 O -2.59 -1.26  5.75
 H -3.50  0.99  2.50
 H -1.15 -0.51  3.44
 C -1.76  1.21  4.59
 C -2.97  2.03  5.02
 C -2.59  3.21  5.92
 N -3.69  4.08  6.29
 C -4.23  5.00  5.40
 N -5.41  5.57  5.88
 N -3.79  5.35  4.24
 H -1.06  1.84  4.02
 H -1.22  0.85  5.48
 H -3.68  1.38  5.57
 H -3.52  2.43  4.15
 H -1.82  3.83  5.43
 H -2.13  2.84  6.85
 H -4.36  3.68  6.94
 H -5.71  6.34  5.29
 H -5.38  5.84  6.86
 H -2.99  4.78  3.95
 N -3.80 -1.78  3.88
 C -4.53 -2.88  4.46
 H -3.90 -1.56  2.89
 H -4.24 -3.84  4.01
 H -5.61 -2.74  4.34
 H -4.29 -2.91  5.53
