35
#
 C -0.65 -0.91  0.26
 C  0.09 -0.76  1.57
 O  1.08 -1.44  1.85
 H -1.58 -1.47  0.42
 H -0.01 -1.48 -0.42
 H -0.93  0.05 -0.19
 N -0.38  0.15  2.50
 C -1.46  1.13  2.42
 C -2.80  0.50  1.98
 O -3.40  0.86  0.97
 H  0.20  0.17  3.33
 H -1.61  1.45  3.47
 C -1.12  2.37  1.59
 C -1.95  3.62  1.91
 C -1.65  4.25  3.28
 N -0.25  4.65  3.45
 C  0.19  5.87  2.96
 N  1.51  6.14  3.34
 N -0.60  6.62  2.28
 H -1.24  2.13  0.52
 H -0.05  2.60  1.75
 H -3.02  3.39  1.86
 H -1.76  4.38  1.15
 H -1.89  3.56  4.10
 H -2.30  5.13  3.41
 H  0.18  4.37  4.32
 H  1.91  6.94  2.86
 H  2.13  5.34  3.31
 H -0.11  7.44  1.91
 N -3.31 -0.49  2.78
 C -2.75 -1.06  4.00
 H -4.17 -0.89  2.43
 H -3.55 -1.60  4.53
 H -2.38 -0.28  4.68
 H -1.93 -1.76  3.80
