35
#
 C  0.11 -0.01  0.08
 C  0.09  0.01  1.60
 O  1.11  0.04  2.28
 H  0.71  0.83 -0.28
 H -0.89  0.03 -0.37
 H  0.61 -0.93 -0.25
 N -1.16 -0.00  2.15
 C -1.40 -0.05  3.59
 C -0.66  1.05  4.39
 O -0.07  0.80  5.43
 H -1.98 -0.04  1.54
 H -2.48  0.18  3.70
 C -1.10 -1.43  4.23
 C -1.61 -2.66  3.47
 C -3.11 -2.96  3.53
 N -4.01 -1.97  2.92
 C -3.91 -1.55  1.60
 N -3.43 -2.51  0.72
 N -4.17 -0.37  1.15
 H -1.49 -1.41  5.26
 H -0.01 -1.50  4.33
 H -1.10 -3.54  3.90
 H -1.29 -2.61  2.42
 H -3.44 -3.05  4.58
 H -3.31 -3.95  3.08
 H -4.29 -1.22  3.54
 H -3.59 -2.25 -0.25
 H -3.65 -3.48  0.93
 H -4.45  0.27  1.90
 N -0.77  2.34  3.94
 C -1.45  2.88  2.78
 H -0.23  2.99  4.51
 H -1.65  3.95  2.96
 H -2.42  2.39  2.61
 H -0.85  2.80  1.86
