35
#
 C -0.87  1.87  1.26
 C -0.23  0.65  1.88
 O  0.99  0.59  2.09
 H -0.13  2.68  1.26
 H -1.77  2.19  1.79
 H -1.15  1.66  0.21
 N -1.03 -0.40  2.24
 C -2.36 -0.69  1.72
 C -3.45 -1.08  2.75
 O -4.62 -0.89  2.43
 H -0.48 -1.19  2.56
 H -2.75  0.25  1.32
 C -2.35 -1.70  0.55
 C -1.89 -3.14  0.84
 C -0.39 -3.37  1.07
 N  0.43 -2.79  0.01
 C  1.82 -2.67  0.16
 N  2.21 -2.06  1.35
 N  2.57 -3.14 -0.78
 H -1.71 -1.27 -0.24
 H -3.37 -1.73  0.15
 H -2.20 -3.75 -0.02
 H -2.45 -3.55  1.70
 H -0.22 -4.46  1.16
 H -0.05 -2.95  2.02
 H  0.26 -3.23 -0.90
 H  3.22 -1.95  1.42
 H  1.73 -1.19  1.61
 H  3.54 -2.87 -0.65
 N -3.14 -1.62  3.97
 C -1.88 -2.02  4.57
 H -3.99 -1.81  4.50
 H -2.10 -2.53  5.51
 H -1.23 -1.16  4.79
 H -1.33 -2.74  3.94
