35
#
 C  1.49  3.35  0.49
 C  0.07  2.81  0.44
 O -0.86  3.48 -0.04
 H  2.25  2.56  0.55
 H  1.59  3.98  1.39
 H  1.67  3.97 -0.39
 N -0.11  1.57  0.98
 C -1.38  0.89  1.26
 C -2.10  0.32  0.01
 O -2.49 -0.84  0.01
 H  0.73  1.09  1.29
 H -1.11 -0.01  1.82
 C -2.38  1.71  2.11
 C -1.95  2.03  3.55
 C -0.87  3.11  3.67
 N -0.76  3.57  5.06
 C  0.29  4.38  5.49
 N  0.81  5.21  4.49
 N  0.80  4.43  6.67
 H -3.29  1.10  2.16
 H -2.65  2.63  1.58
 H -1.61  1.11  4.06
 H -2.84  2.38  4.09
 H -1.15  3.96  3.02
 H  0.10  2.74  3.31
 H -1.01  2.87  5.75
 H  1.43  5.91  4.89
 H  0.12  5.62  3.86
 H  0.43  3.69  7.27
 N -2.28  1.21 -1.01
 C -2.97  0.85 -2.23
 H -1.94  2.16 -0.87
 H -2.34  1.06 -3.11
 H -3.91  1.40 -2.34
 H -3.19 -0.22 -2.20
