35
#
 C  0.19  0.89 -0.78
 C  0.27  0.47  0.68
 O  1.32  0.44  1.31
 H -0.10  0.04 -1.42
 H  1.19  1.23 -1.08
 H -0.53  1.69 -0.94
 N -0.92  0.14  1.29
 C -2.25  0.04  0.71
 C -3.12  1.31  0.85
 O -4.26  1.33  0.37
 H -0.80 -0.19  2.25
 H -2.14 -0.11 -0.38
 C -3.01 -1.17  1.27
 C -2.41 -2.52  0.85
 C -3.11 -3.73  1.47
 N -4.48 -3.86  1.01
 C -5.26 -5.01  1.10
 N -4.57 -6.14  1.54
 N -6.49 -5.12  0.75
 H -4.05 -1.06  0.92
 H -3.04 -1.10  2.37
 H -1.35 -2.56  1.13
 H -2.45 -2.61 -0.25
 H -3.04 -3.66  2.57
 H -2.57 -4.64  1.17
 H -5.02 -3.01  0.94
 H -5.22 -6.92  1.66
 H -3.96 -6.02  2.35
 H -6.84 -4.27  0.31
 N -2.55  2.35  1.50
 C -3.21  3.62  1.71
 H -1.60  2.21  1.85
 H -2.66  4.44  1.23
 H -3.32  3.84  2.78
 H -4.21  3.55  1.26
