35
#
 C  0.12 -0.32  0.46
 C  0.04 -0.13  1.97
 O  1.05 -0.04  2.66
 H  1.18 -0.38  0.20
 H -0.33  0.53 -0.07
 H -0.39 -1.24  0.13
 N -1.21 -0.08  2.54
 C -2.51 -0.06  1.89
 C -3.32  1.11  2.47
 O -3.18  1.45  3.64
 H -1.22  0.15  3.53
 H -2.35  0.08  0.81
 C -3.31 -1.37  2.11
 C -2.66 -2.61  1.50
 C -3.48 -3.88  1.75
 N -2.86 -5.10  1.27
 C -1.88 -5.72  2.02
 N -1.33 -6.85  1.39
 N -1.60 -5.31  3.20
 H -4.32 -1.23  1.70
 H -3.43 -1.50  3.20
 H -1.66 -2.75  1.94
 H -2.53 -2.47  0.41
 H -4.47 -3.79  1.29
 H -3.63 -4.01  2.83
 H -2.81 -5.21  0.26
 H -0.39 -7.08  1.69
 H -1.45 -6.94  0.39
 H -0.94 -5.93  3.67
 N -4.23  1.71  1.65
 C -4.46  1.46  0.24
 H -4.76  2.45  2.10
 H -3.57  1.69 -0.37
 H -5.27  2.12 -0.10
 H -4.77  0.43  0.04
