35
#
 C -0.06  1.83  1.63
 C -0.39  1.54  3.08
 O  0.22  2.09  4.00
 H  1.02  2.01  1.56
 H -0.57  2.75  1.33
 H -0.35  1.04  0.93
 N -1.39  0.65  3.38
 C -2.29 -0.11  2.51
 C -1.53 -1.08  1.56
 O -1.70 -1.07  0.35
 H -1.53  0.57  4.38
 H -2.87 -0.75  3.20
 C -3.27  0.77  1.72
 C -4.18  1.61  2.63
 C -4.74  2.86  1.96
 N -3.73  3.85  1.63
 C -3.16  4.00  0.37
 N -2.06  4.87  0.39
 N -3.49  3.45 -0.74
 H -3.87  0.13  1.06
 H -2.69  1.42  1.05
 H -3.61  1.93  3.52
 H -5.01  1.00  3.01
 H -5.49  3.33  2.63
 H -5.28  2.61  1.04
 H -3.12  4.11  2.40
 H -1.76  5.08 -0.55
 H -2.20  5.72  0.94
 H -4.21  2.73 -0.63
 N -0.68 -1.97  2.14
 C -0.37 -2.19  3.55
 H -0.20 -2.55  1.46
 H  0.32 -1.44  3.95
 H -1.28 -2.18  4.16
 H  0.09 -3.18  3.66
