35
#
 C  0.33 -0.50 -0.44
 C  0.09 -0.47  1.06
 O  0.96 -0.79  1.87
 H  1.20  0.14 -0.67
 H -0.53 -0.17 -1.03
 H  0.60 -1.53 -0.73
 N -1.15 -0.04  1.44
 C -1.60 -0.11  2.82
 C -3.03 -0.68  2.81
 O -3.77 -0.51  1.84
 H -1.90  0.04  0.76
 H -0.91 -0.78  3.34
 C -1.59  1.27  3.52
 C -0.22  1.95  3.54
 C -0.23  3.24  4.35
 N  1.03  3.98  4.31
 C  2.00  3.94  5.31
 N  1.98  2.78  6.07
 N  2.86  4.86  5.58
 H -1.95  1.13  4.55
 H -2.33  1.92  3.02
 H  0.10  2.17  2.51
 H  0.53  1.25  3.94
 H -0.49  3.03  5.40
 H -1.02  3.91  3.96
 H  1.03  4.84  3.78
 H  2.78  2.76  6.70
 H  1.90  1.91  5.55
 H  2.67  5.72  5.06
 N -3.40 -1.32  3.94
 C -4.73 -1.86  4.15
 H -2.70 -1.46  4.66
 H -5.33 -1.62  3.26
 H -5.21 -1.42  5.03
 H -4.70 -2.95  4.27
