35
#
 C  0.86  3.00  2.21
 C  0.49  1.84  3.11
 O  0.99  1.68  4.23
 H  1.90  3.28  2.39
 H  0.21  3.85  2.48
 H  0.72  2.78  1.14
 N -0.46  1.00  2.60
 C -0.99 -0.13  3.33
 C -1.82 -0.94  2.32
 O -2.19 -0.44  1.26
 H -0.87  1.15  1.68
 H -0.15 -0.73  3.71
 C -1.83  0.32  4.56
 C -3.10  1.12  4.23
 C -3.52  2.09  5.35
 N -2.95  3.44  5.28
 C -1.58  3.72  5.34
 N -0.87  3.11  6.37
 N -1.10  4.58  4.51
 H -1.14  0.92  5.16
 H -2.09 -0.56  5.17
 H -3.93  0.44  4.01
 H -2.94  1.71  3.31
 H -3.30  1.65  6.34
 H -4.61  2.23  5.34
 H -3.35  4.01  4.54
 H  0.06  2.80  6.10
 H -1.37  2.42  6.92
 H -0.14  4.83  4.78
 N -2.14 -2.22  2.65
 C -1.77 -2.99  3.83
 H -2.74 -2.67  1.96
 H -0.79 -2.68  4.20
 H -1.70 -4.05  3.56
 H -2.50 -2.89  4.65
