35
#
 C -1.03  1.73  0.49
 C -0.98  0.46  1.31
 O  0.07 -0.19  1.45
 H -1.09  1.43 -0.57
 H -0.09  2.28  0.64
 H -1.88  2.37  0.73
 N -2.17  0.08  1.86
 C -2.59 -1.13  2.59
 C -1.80 -1.57  3.85
 O -2.42 -2.14  4.74
 H -2.94  0.72  1.66
 H -3.55 -0.83  3.03
 C -2.92 -2.36  1.70
 C -1.80 -3.32  1.30
 C -0.94 -2.94  0.08
 N -1.74 -2.77 -1.12
 C -1.73 -1.63 -1.91
 N -2.82 -1.58 -2.80
 N -0.89 -0.66 -1.89
 H -3.45 -1.99  0.81
 H -3.65 -2.94  2.28
 H -2.26 -4.30  1.09
 H -1.12 -3.50  2.15
 H -0.18 -3.72 -0.07
 H -0.40 -2.01  0.29
 H -2.59 -3.33 -1.17
 H -2.66 -0.86 -3.50
 H -3.05 -2.47 -3.23
 H -0.18 -0.78 -1.17
 N -0.47 -1.33  3.88
 C  0.34 -1.75  5.00
 H -0.04 -0.94  3.03
 H  1.30 -1.23  4.96
 H  0.53 -2.84  4.99
 H -0.17 -1.51  5.94
