35
#
 C -0.05 -0.08  0.20
 C -0.12  0.11  1.70
 O  0.88  0.33  2.37
 H  0.79  0.51 -0.18
 H -0.97  0.21 -0.34
 H  0.14 -1.14 -0.02
 N -1.35 -0.04  2.33
 C -2.69 -0.04  1.74
 C -2.92 -1.23  0.77
 O -3.61 -1.13 -0.24
 H -1.29  0.17  3.32
 H -3.37 -0.24  2.59
 C -3.12  1.31  1.13
 C -4.63  1.54  1.16
 C -5.01  2.90  0.56
 N -6.44  3.20  0.60
 C -7.02  3.65  1.77
 N -8.42  3.74  1.66
 N -6.31  3.90  2.81
 H -2.75  1.39  0.09
 H -2.62  2.11  1.71
 H -4.99  1.51  2.20
 H -5.14  0.74  0.60
 H -4.69  2.95 -0.50
 H -4.50  3.70  1.10
 H -7.03  2.60  0.03
 H -8.86  4.21  2.44
 H -8.75  4.10  0.76
 H -6.88  4.34  3.54
 N -2.33 -2.39  1.17
 C -2.42 -3.62  0.41
 H -1.70 -2.33  1.96
 H -2.74 -4.45  1.04
 H -1.45 -3.88 -0.05
 H -3.15 -3.46 -0.39
