35
#
 C  0.23 -0.49  1.05
 C -0.08 -0.36  2.52
 O  0.78 -0.53  3.38
 H  0.24  0.49  0.56
 H -0.50 -1.13  0.54
 H  1.23 -0.93  0.96
 N -1.35  0.01  2.92
 C -2.62  0.16  2.22
 C -3.23 -1.19  1.78
 O -2.53 -2.11  1.36
 H -1.41  0.01  3.94
 H -3.29  0.60  2.98
 C -2.60  1.13  1.02
 C -1.99  2.50  1.30
 C -2.70  3.29  2.42
 N -2.27  4.66  2.56
 C -2.70  5.66  1.70
 N -2.02  6.87  1.90
 N -3.60  5.59  0.78
 H -3.64  1.25  0.67
 H -2.07  0.65  0.18
 H -2.02  3.10  0.38
 H -0.93  2.40  1.57
 H -2.54  2.79  3.39
 H -3.79  3.29  2.25
 H -1.32  4.79  2.91
 H -2.44  7.61  1.35
 H -1.89  7.13  2.87
 H -3.93  4.64  0.63
 N -4.59 -1.30  1.83
 C -5.55 -0.35  2.37
 H -4.93 -2.19  1.50
 H -5.41 -0.18  3.45
 H -6.56 -0.77  2.23
 H -5.53  0.62  1.85
