35
#
 C  0.55 -0.20  0.67
 C  0.49 -0.33  2.18
 O  1.51 -0.44  2.87
 H  0.35 -1.17  0.20
 H  1.57  0.11  0.40
 H -0.17  0.52  0.28
 N -0.75 -0.30  2.77
 C -2.03 -0.54  2.14
 C -3.10 -0.21  3.20
 O -2.84 -0.25  4.40
 H -0.77 -0.37  3.79
 H -2.16  0.15  1.29
 C -2.24 -2.01  1.60
 C -1.31 -3.07  2.20
 C -1.50 -3.36  3.69
 N -0.48 -4.26  4.22
 C  0.48 -3.89  5.17
 N  0.82 -2.55  5.17
 N  1.03 -4.69  6.02
 H -2.09 -1.99  0.51
 H -3.28 -2.30  1.76
 H -0.26 -2.80  2.03
 H -1.45 -4.01  1.63
 H -2.50 -3.81  3.86
 H -1.48 -2.44  4.28
 H -0.72 -5.24  4.26
 H  1.02 -2.09  4.27
 H  1.55 -2.37  5.85
 H  0.58 -5.61  6.02
 N -4.35  0.10  2.74
 C -4.77  0.30  1.36
 H -5.01  0.29  3.48
 H -4.65 -0.60  0.75
 H -4.24  1.13  0.88
 H -5.84  0.56  1.37
