35
#
 C -1.81 -1.52 -0.20
 C -0.94 -0.93  0.89
 O  0.23 -1.29  1.02
 H -1.22 -1.60 -1.11
 H -2.74 -1.00 -0.42
 H -2.07 -2.55  0.11
 N -1.47 -0.04  1.82
 C -2.63  0.86  1.77
 C -3.97  0.15  1.51
 O -4.90  0.70  0.92
 H -0.74  0.24  2.47
 H -2.73  1.21  2.82
 C -2.42  2.14  0.94
 C -2.25  1.98 -0.59
 C -3.48  2.41 -1.40
 N -3.50  1.91 -2.77
 C -3.87  0.60 -3.03
 N -3.47  0.17 -4.30
 N -4.50 -0.22 -2.26
 H -1.53  2.64  1.36
 H -3.27  2.81  1.15
 H -2.02  0.94 -0.84
 H -1.38  2.56 -0.92
 H -3.54  3.51 -1.44
 H -4.39  2.07 -0.90
 H -2.73  2.24 -3.34
 H -3.92 -0.71 -4.54
 H -3.58  0.86 -5.03
 H -4.69  0.17 -1.34
 N -4.07 -1.09  2.07
 C -5.24 -1.93  1.88
 H -3.23 -1.49  2.46
 H -5.42 -2.53  2.78
 H -5.12 -2.60  1.01
 H -6.11 -1.29  1.70
