35
#
 C -0.71  0.54 -0.04
 C -0.56  0.16  1.42
 O  0.54 -0.01  1.95
 H -0.07 -0.11 -0.64
 H -0.34  1.57 -0.16
 H -1.74  0.49 -0.41
 N -1.73  0.03  2.12
 C -1.78 -0.18  3.56
 C -0.82  0.83  4.26
 O -1.10  2.02  4.14
 H -2.59  0.30  1.65
 H -2.75  0.24  3.87
 C -1.82 -1.68  3.96
 C -1.00 -2.66  3.14
 C -1.06 -4.07  3.73
 N -0.40 -5.10  2.93
 C -1.05 -5.65  1.84
 N -0.21 -6.48  1.09
 N -2.28 -5.36  1.59
 H -2.87 -1.99  3.90
 H -1.57 -1.75  5.04
 H  0.05 -2.34  3.06
 H -1.40 -2.71  2.12
 H -2.10 -4.39  3.84
 H -0.60 -4.09  4.74
 H  0.60 -4.97  2.80
 H -0.70 -7.03  0.39
 H  0.42 -7.06  1.65
 H -2.65 -5.95  0.83
 N  0.18  0.44  5.11
 C  1.02 -0.75  5.06
 H  0.63  1.27  5.49
 H  0.51 -1.64  5.45
 H  1.89 -0.57  5.70
 H  1.38 -0.94  4.04
