35
#
 C  0.30 -0.92  1.41
 C  0.14  0.58  1.55
 O  1.09  1.31  1.82
 H  1.36 -1.16  1.52
 H -0.05 -1.29  0.43
 H -0.27 -1.46  2.18
 N -1.11  1.11  1.32
 C -2.38  0.40  1.25
 C -3.29  0.99  0.14
 O -4.51  0.84  0.17
 H -1.18  2.11  1.54
 H -2.16 -0.62  0.89
 C -3.10  0.26  2.60
 C -3.17  1.49  3.52
 C -3.99  2.68  3.01
 N -3.30  3.43  1.96
 C -3.98  4.23  1.03
 N -5.19  3.70  0.60
 N -3.43  5.34  0.68
 H -2.59 -0.54  3.16
 H -4.12 -0.10  2.39
 H -2.15  1.83  3.77
 H -3.61  1.17  4.47
 H -4.23  3.35  3.87
 H -4.95  2.33  2.61
 H -2.52  3.99  2.32
 H -5.60  4.20 -0.18
 H -5.23  2.68  0.48
 H -3.95  5.79 -0.08
 N -2.63  1.59 -0.87
 C -3.29  2.22 -2.00
 H -1.63  1.73 -0.74
 H -4.32  1.85 -2.04
 H -2.78  1.95 -2.94
 H -3.30  3.31 -1.90
