35
#
 C -0.52 -0.68  0.05
 C -0.67 -0.91  1.54
 O -0.79 -2.04  2.01
 H  0.34 -1.26 -0.32
 H -0.39  0.37 -0.23
 H -1.42 -1.07 -0.46
 N -0.62  0.21  2.31
 C -0.81  0.17  3.76
 C -2.26  0.60  4.07
 O -2.61  1.78  3.93
 H -0.65  1.12  1.87
 H -0.64 -0.87  4.04
 C  0.19  1.10  4.46
 C  0.08  1.11  5.99
 C  0.35 -0.25  6.65
 N  0.42 -0.21  8.10
 C  1.56  0.24  8.77
 N  1.34  0.37 10.15
 N  2.71  0.52  8.28
 H  0.03  2.12  4.09
 H  1.20  0.79  4.16
 H -0.92  1.47  6.29
 H  0.80  1.84  6.39
 H  1.29 -0.68  6.28
 H -0.44 -0.97  6.39
 H -0.45  0.02  8.57
 H  2.21  0.57 10.63
 H  0.84 -0.40 10.57
 H  2.71  0.52  7.26
 N -3.13 -0.35  4.50
 C -2.92 -1.79  4.65
 H -4.06  0.01  4.68
 H -3.88 -2.30  4.54
 H -2.51 -2.04  5.64
 H -2.25 -2.17  3.87
