35
#
 C  0.64  0.32  1.16
 C  0.07  0.47  2.56
 O  0.79  0.73  3.53
 H  0.66 -0.74  0.87
 H  1.66  0.71  1.17
 H  0.04  0.84  0.40
 N -1.28  0.29  2.75
 C -2.35  0.01  1.79
 C -2.04 -1.25  0.94
 O -1.95 -1.21 -0.28
 H -1.55  0.44  3.71
 H -3.22 -0.25  2.42
 C -2.76  1.22  0.92
 C -4.26  1.34  0.64
 C -4.85  0.26 -0.28
 N -6.26  0.46 -0.59
 C -6.66  1.42 -1.51
 N -8.06  1.55 -1.56
 N -5.79  2.09 -2.18
 H -2.21  1.18 -0.03
 H -2.43  2.12  1.45
 H -4.45  2.31  0.17
 H -4.81  1.33  1.60
 H -4.75 -0.74  0.15
 H -4.31  0.26 -1.23
 H -6.91  0.33  0.18
 H -8.37  2.13 -2.33
 H -8.56  0.67 -1.53
 H -6.24  2.66 -2.90
 N -1.89 -2.43  1.62
 C -1.94 -2.68  3.05
 H -1.65 -3.21  1.01
 H -1.03 -2.36  3.57
 H -2.80 -2.17  3.52
 H -2.08 -3.75  3.21
