35
#
 C -1.16  0.60 -0.66
 C -0.55  0.77  0.71
 O  0.56  1.29  0.85
 H -1.22  1.59 -1.14
 H -2.15  0.13 -0.67
 H -0.48 -0.01 -1.26
 N -1.22  0.29  1.81
 C -2.66  0.03  1.97
 C -3.14 -1.25  1.23
 O -4.32 -1.40  0.94
 H -0.70  0.49  2.66
 H -2.78 -0.22  3.03
 C -3.55  1.24  1.68
 C -3.30  2.44  2.62
 C -2.91  3.73  1.90
 N -1.67  3.57  1.17
 C -1.37  4.36  0.07
 N -0.17  4.00 -0.54
 N -2.21  5.25 -0.35
 H -4.59  0.90  1.75
 H -3.41  1.56  0.64
 H -2.50  2.20  3.35
 H -4.19  2.64  3.23
 H -2.86  4.57  2.62
 H -3.68  4.02  1.16
 H -0.87  3.23  1.69
 H  0.33  4.74 -1.02
 H  0.42  3.31 -0.08
 H -1.90  5.64 -1.24
 N -2.18 -2.19  1.03
 C -2.45 -3.46  0.39
 H -1.23 -1.94  1.27
 H -2.14 -4.30  1.04
 H -1.94 -3.55 -0.57
 H -3.53 -3.53  0.23
