35
#
 C  0.66 -0.87  0.54
 C  0.26 -0.05  1.75
 O  1.04  0.73  2.31
 H  1.68 -1.26  0.70
 H  0.70 -0.21 -0.34
 H -0.03 -1.69  0.33
 N -1.04 -0.21  2.14
 C -1.54  0.46  3.33
 C -1.45 -0.48  4.53
 O -2.05 -1.57  4.57
 H -1.56 -0.99  1.74
 H -0.83  1.29  3.47
 C -2.94  1.11  3.17
 C -4.23  0.29  3.27
 C -4.54 -0.70  2.14
 N -3.70 -1.89  2.21
 C -3.13 -2.52  1.13
 N -3.74 -2.26 -0.10
 N -2.07 -3.27  1.15
 H -2.92  1.65  2.21
 H -2.99  1.89  3.95
 H -5.06  1.01  3.30
 H -4.27 -0.25  4.23
 H -4.38 -0.20  1.16
 H -5.61 -0.96  2.19
 H -3.19 -2.00  3.09
 H -3.38 -2.87 -0.82
 H -4.75 -2.22 -0.09
 H -1.67 -3.31  2.09
 N -0.68 -0.09  5.58
 C  0.20  1.08  5.67
 H -0.66 -0.76  6.34
 H  0.81  1.18  4.76
 H  0.87  0.94  6.52
 H -0.37  2.00  5.83
