35
#
 C -0.88 -0.12 -0.84
 C -0.36  0.24  0.53
 O  0.84  0.21  0.82
 H -0.13 -0.75 -1.33
 H -0.98  0.81 -1.43
 H -1.85 -0.62 -0.83
 N -1.26  0.67  1.49
 C -2.72  0.77  1.46
 C -3.39 -0.62  1.32
 O -4.14 -0.89  0.38
 H -0.79  0.97  2.34
 H -2.98  1.15  2.46
 C -3.29  1.75  0.42
 C -2.56  3.10  0.39
 C -2.98  3.93 -0.83
 N -2.01  4.99 -1.13
 C -0.86  4.67 -1.84
 N -0.11  5.80 -2.16
 N -0.61  3.45 -2.16
 H -4.36  1.88  0.63
 H -3.24  1.29 -0.57
 H -1.48  2.93  0.31
 H -2.74  3.67  1.31
 H -3.95  4.41 -0.67
 H -3.07  3.27 -1.70
 H -2.40  5.90 -1.34
 H  0.82  5.59 -2.52
 H -0.07  6.51 -1.43
 H  0.32  3.36 -2.59
 N -3.13 -1.54  2.29
 C -2.26 -1.43  3.45
 H -3.56 -2.44  2.10
 H -1.19 -1.52  3.19
 H -2.52 -2.23  4.15
 H -2.41 -0.48  3.98
