35
#
 C -1.34  3.09  0.69
 C -0.92  2.42  1.99
 O  0.24  2.04  2.17
 H -2.38  3.44  0.68
 H -1.20  2.36 -0.12
 H -0.67  3.93  0.50
 N -1.91  2.28  2.92
 C -1.83  1.58  4.21
 C -0.96  2.28  5.29
 O -1.45  2.51  6.40
 H -2.81  2.68  2.69
 H -2.84  1.66  4.63
 C -1.47  0.09  4.03
 C -1.34 -0.71  5.33
 C -2.61 -0.76  6.21
 N -3.83 -1.19  5.55
 C -4.07 -2.49  5.15
 N -5.24 -2.62  4.39
 N -3.36 -3.54  5.38
 H -0.52  0.02  3.48
 H -2.23 -0.36  3.38
 H -0.53 -0.30  5.95
 H -1.04 -1.73  5.06
 H -2.80  0.23  6.64
 H -2.43 -1.43  7.06
 H -4.33 -0.48  5.01
 H -5.45 -3.60  4.23
 H -6.04 -2.13  4.79
 H -2.47 -3.31  5.84
 N  0.32  2.54  4.94
 C  1.26  3.17  5.84
 H  0.59  2.32  3.97
 H  2.15  2.53  5.97
 H  0.77  3.30  6.81
 H  1.59  4.15  5.46
