35
#
 C -2.18  1.85  4.05
 C -1.34  0.59  4.01
 O -0.12  0.62  4.24
 H -1.75  2.59  3.36
 H -2.13  2.27  5.06
 H -3.23  1.68  3.78
 N -1.99 -0.56  3.70
 C -1.39 -1.89  3.74
 C -0.52 -2.23  2.49
 O -0.63 -3.29  1.85
 H -2.98 -0.50  3.46
 H -0.67 -1.87  4.57
 C -2.45 -2.97  4.04
 C -3.84 -2.84  3.39
 C -3.92 -2.78  1.86
 N -3.35 -3.96  1.25
 C -3.62 -4.27 -0.08
 N -2.63 -5.08 -0.65
 N -4.66 -3.98 -0.78
 H -2.60 -2.98  5.13
 H -2.01 -3.94  3.78
 H -4.37 -1.96  3.80
 H -4.43 -3.71  3.73
 H -3.45 -1.85  1.48
 H -4.99 -2.72  1.59
 H -2.36 -4.05  1.49
 H -1.67 -4.87 -0.39
 H -2.77 -5.19 -1.65
 H -5.36 -3.47 -0.23
 N  0.40 -1.29  2.20
 C  1.34 -1.46  1.10
 H  0.50 -0.51  2.86
 H  1.93 -0.54  1.00
 H  0.81 -1.65  0.16
 H  2.03 -2.30  1.28
