35
#
 C -0.68  0.58 -0.21
 C -0.43  0.43  1.28
 O  0.58 -0.12  1.71
 H  0.15  1.15 -0.65
 H -1.62  1.09 -0.46
 H -0.68 -0.41 -0.67
 N -1.41  0.95  2.09
 C -1.33  0.90  3.54
 C -2.33 -0.07  4.21
 O -1.94 -0.83  5.09
 H -2.16  1.45  1.64
 H -0.36  0.45  3.76
 C -1.39  2.29  4.22
 C -0.38  3.32  3.68
 C  1.07  2.84  3.59
 N  1.52  2.22  4.82
 C  2.60  1.34  4.89
 N  2.78  0.53  3.78
 N  3.34  1.38  5.95
 H -1.20  2.10  5.28
 H -2.40  2.71  4.15
 H -0.44  4.21  4.33
 H -0.69  3.66  2.68
 H  1.71  3.71  3.30
 H  1.18  2.11  2.78
 H  1.56  2.84  5.63
 H  3.43 -0.23  3.92
 H  1.97  0.27  3.21
 H  4.02  0.62  5.96
 N -3.66 -0.05  3.84
 C -4.35  0.76  2.86
 H -4.20 -0.74  4.35
 H -4.23  0.39  1.83
 H -4.03  1.81  2.90
 H -5.42  0.76  3.10
