35
#
 C -0.96 -0.35 -0.69
 C -0.75  0.12  0.74
 O  0.34  0.52  1.15
 H -0.63 -1.40 -0.75
 H -0.32  0.24 -1.36
 H -2.00 -0.29 -1.02
 N -1.86  0.04  1.54
 C -1.91  0.11  3.00
 C -0.61  0.66  3.64
 O  0.16 -0.04  4.28
 H -2.69 -0.34  1.10
 H -2.69  0.86  3.25
 C -2.39 -1.22  3.63
 C -1.91 -2.56  3.04
 C -0.47 -3.02  3.38
 N  0.58 -2.41  2.60
 C  0.93 -2.81  1.33
 N  1.94 -2.03  0.77
 N  0.47 -3.82  0.66
 H -3.49 -1.22  3.56
 H -2.15 -1.18  4.70
 H -2.04 -2.58  1.95
 H -2.59 -3.33  3.43
 H -0.42 -4.11  3.26
 H -0.26 -2.81  4.44
 H  0.99 -1.56  2.98
 H  2.09 -2.29 -0.20
 H  1.81 -1.02  0.88
 H -0.18 -4.38  1.22
 N -0.49  2.02  3.56
 C  0.76  2.67  3.92
 H -1.06  2.49  2.86
 H  0.59  3.74  4.04
 H  1.53  2.50  3.16
 H  1.11  2.25  4.87
