35
#
 C -0.67 -0.82 -0.14
 C -0.26 -0.69  1.32
 O  0.91 -0.77  1.68
 H -0.11 -0.08 -0.73
 H -1.74 -0.67 -0.31
 H -0.39 -1.81 -0.50
 N -1.28 -0.47  2.20
 C -1.06 -0.41  3.64
 C -2.29 -1.01  4.34
 O -2.28 -2.14  4.83
 H -2.24 -0.46  1.85
 H -0.23 -1.09  3.86
 C -0.65  1.01  4.10
 C -0.13  1.11  5.54
 C -1.16  0.87  6.64
 N -0.64  1.20  7.96
 C -0.75  2.49  8.45
 N -0.32  2.60  9.78
 N -1.23  3.43  7.71
 H -1.48  1.72  3.95
 H  0.14  1.33  3.42
 H  0.28  2.12  5.68
 H  0.71  0.41  5.67
 H -1.48 -0.18  6.68
 H -2.06  1.49  6.45
 H -0.69  0.48  8.66
 H -0.22  3.56 10.10
 H  0.50  2.04 10.01
 H -1.17  4.34  8.18
 N -3.41 -0.22  4.32
 C -4.63 -0.60  5.01
 H -3.29  0.76  4.08
 H -4.68 -1.69  5.04
 H -5.50 -0.22  4.46
 H -4.66 -0.22  6.04
