35
#
 C  0.45  0.13 -0.05
 C  0.39  0.14  1.47
 O  1.39  0.26  2.17
 H  0.92  1.05 -0.39
 H -0.54  0.02 -0.52
 H  1.09 -0.71 -0.36
 N -0.86  0.03  2.01
 C -1.08 -0.07  3.43
 C -2.41 -0.81  3.63
 O -3.21 -0.96  2.71
 H -1.68 -0.18  1.44
 H -0.25 -0.66  3.86
 C -1.07  1.31  4.14
 C -2.19  2.25  3.69
 C -2.10  3.63  4.37
 N -3.13  4.58  3.99
 C -4.48  4.42  4.27
 N -4.77  3.84  5.51
 N -5.34  4.90  3.44
 H -0.09  1.76  3.94
 H -1.13  1.15  5.23
 H -3.18  1.81  3.90
 H -2.15  2.39  2.60
 H -1.13  4.09  4.13
 H -2.09  3.51  5.46
 H -3.02  5.00  3.07
 H -5.68  3.41  5.57
 H -4.04  3.28  5.95
 H -6.29  4.84  3.81
 N -2.64 -1.25  4.90
 C -3.86 -1.94  5.29
 H -1.90 -1.14  5.58
 H -4.33 -1.45  6.15
 H -3.66 -2.99  5.54
 H -4.54 -1.91  4.43
