35
#
 C -1.42 -0.59  0.26
 C -1.39 -0.44  1.76
 O -0.83 -1.27  2.48
 H -0.52 -1.13 -0.04
 H -1.50  0.35 -0.30
 H -2.29 -1.21 -0.02
 N -2.06  0.61  2.35
 C -2.70  1.80  1.79
 C -3.59  1.51  0.56
 O -3.47  2.11 -0.50
 H -1.95  0.60  3.36
 H -3.43  2.11  2.56
 C -1.75  3.02  1.62
 C -0.39  2.80  0.94
 C -0.36  3.04 -0.57
 N -0.66  4.44 -0.89
 C -1.33  4.87 -2.04
 N -2.26  3.97 -2.54
 N -1.16  6.01 -2.63
 H -1.57  3.38  2.64
 H -2.30  3.82  1.11
 H -0.00  1.79  1.15
 H  0.33  3.49  1.40
 H -1.10  2.42 -1.09
 H  0.63  2.75 -0.97
 H  0.07  5.09 -0.62
 H -2.83  4.39 -3.26
 H -2.77  3.41 -1.86
 H -0.36  6.51 -2.23
 N -4.56  0.57  0.72
 C -4.92 -0.21  1.89
 H -5.11  0.43 -0.13
 H -4.89  0.39  2.80
 H -4.27 -1.09  2.03
 H -5.96 -0.56  1.76
