35
#
 C -0.28  1.01 -0.59
 C -0.42  1.14  0.91
 O  0.35  1.83  1.58
 H  0.76  1.23 -0.85
 H -0.91  1.78 -1.07
 H -0.58  0.04 -1.00
 N -1.45  0.47  1.53
 C -2.51 -0.39  0.99
 C -1.94 -1.63  0.26
 O -2.21 -1.87 -0.92
 H -1.49  0.69  2.53
 H -3.03 -0.77  1.89
 C -3.55  0.34  0.13
 C -4.16  1.55  0.84
 C -5.26  2.21 -0.00
 N -5.87  3.38  0.61
 C -6.82  3.25  1.60
 N -7.31  4.47  2.08
 N -7.25  2.08  1.94
 H -4.34 -0.38 -0.12
 H -3.10  0.63 -0.83
 H -3.37  2.30  1.06
 H -4.60  1.26  1.80
 H -6.07  1.49 -0.18
 H -4.86  2.51 -0.98
 H -5.29  4.22  0.64
 H -7.62  4.45  3.05
 H -6.77  5.31  1.86
 H -8.05  2.16  2.58
 N -1.13 -2.46  0.98
 C -0.72 -2.36  2.37
 H -0.77 -3.23  0.43
 H  0.08 -1.62  2.52
 H -0.35 -3.34  2.69
 H -1.56 -2.10  3.02
