35
#
 C -2.80  1.41  1.72
 C -1.46  0.90  1.23
 O -0.66  1.64  0.65
 H -2.84  2.49  1.56
 H -2.96  1.20  2.79
 H -3.63  0.94  1.17
 N -1.16 -0.41  1.45
 C -2.00 -1.45  2.02
 C -1.82 -1.77  3.53
 O -2.73 -2.38  4.09
 H -0.21 -0.68  1.15
 H -3.04 -1.11  1.97
 C -1.91 -2.75  1.19
 C -0.51 -3.39  1.10
 C  0.09 -3.48 -0.32
 N  0.07 -2.26 -1.12
 C  0.78 -1.14 -0.78
 N  0.63 -0.04 -1.61
 N  1.54 -1.15  0.28
 H -2.30 -2.52  0.19
 H -2.62 -3.46  1.65
 H -0.54 -4.42  1.50
 H  0.21 -2.85  1.72
 H -0.46 -4.24 -0.91
 H  1.13 -3.82 -0.24
 H -0.75 -2.11 -1.70
 H  0.47  0.82 -1.08
 H -0.05 -0.14 -2.37
 H  2.08 -0.29  0.32
 N -0.71 -1.39  4.22
 C  0.53 -0.72  3.82
 H -0.78 -1.66  5.19
 H  1.24 -0.83  4.64
 H  0.39  0.35  3.62
 H  0.99 -1.18  2.93
