35
#
 C -1.32  0.91  2.60
 C -1.30 -0.10  3.73
 O -0.28 -0.32  4.39
 H -0.41  0.79  2.00
 H -1.31  1.92  3.03
 H -2.20  0.82  1.95
 N -2.49 -0.71  4.00
 C -2.64 -1.67  5.10
 C -2.23 -3.09  4.62
 O -3.06 -3.96  4.35
 H -3.23 -0.64  3.31
 H -1.92 -1.34  5.86
 C -4.05 -1.66  5.69
 C -4.50 -0.29  6.23
 C -5.40  0.49  5.26
 N -5.68  1.87  5.63
 C -4.75  2.88  5.42
 N -5.17  4.10  5.94
 N -3.61  2.79  4.83
 H -4.06 -2.41  6.49
 H -4.77 -2.04  4.94
 H -3.62  0.33  6.48
 H -5.05 -0.42  7.17
 H -6.37 -0.03  5.15
 H -4.96  0.52  4.25
 H -6.28  2.00  6.44
 H -6.14  4.34  5.75
 H -4.53  4.85  5.68
 H -3.36  1.82  4.65
 N -0.88 -3.24  4.54
 C -0.27 -4.44  4.01
 H -0.32 -2.40  4.68
 H  0.55 -4.78  4.67
 H  0.15 -4.27  3.00
 H -1.03 -5.22  3.95
