35
#
 C -2.26 -0.66 -0.09
 C -1.91  0.21  1.11
 O -2.06  1.43  1.10
 H -3.29 -0.44 -0.39
 H -2.15 -1.73  0.09
 H -1.61 -0.37 -0.93
 N -1.42 -0.47  2.19
 C -0.88  0.23  3.36
 C  0.12 -0.68  4.10
 O  1.30 -0.36  4.19
 H -1.18 -1.45  2.07
 H -0.26  1.06  3.00
 C -1.99  0.82  4.26
 C -1.48  1.30  5.62
 C -2.56  1.97  6.48
 N -3.80  1.22  6.64
 C -3.88  0.05  7.37
 N -5.16 -0.52  7.33
 N -2.83 -0.44  7.95
 H -2.78  0.07  4.40
 H -2.44  1.65  3.70
 H -0.66  2.03  5.48
 H -1.05  0.46  6.19
 H -2.84  2.94  6.06
 H -2.15  2.15  7.49
 H -4.49  1.32  5.90
 H -5.92  0.15  7.42
 H -5.28 -1.30  7.98
 H -3.09 -1.23  8.55
 N -0.31 -1.89  4.59
 C -1.67 -2.34  4.90
 H  0.43 -2.37  5.09
 H -1.66 -3.43  4.99
 H -2.36 -2.09  4.08
 H -2.06 -1.91  5.83
