35
#
 C -3.81  1.03  0.09
 C -2.66  0.51  0.94
 O -1.61  0.11  0.44
 H -4.67  1.38  0.68
 H -4.14  0.23 -0.59
 H -3.44  1.85 -0.53
 N -2.88  0.52  2.29
 C -1.96 -0.09  3.22
 C -2.80 -0.92  4.21
 O -3.95 -0.59  4.50
 H -3.82  0.68  2.66
 H -1.29 -0.74  2.63
 C -1.12  0.94  4.00
 C -0.20  1.77  3.10
 C  0.58  2.82  3.89
 N  1.47  3.56  3.02
 C  2.27  4.62  3.41
 N  2.63  4.61  4.76
 N  2.68  5.45  2.51
 H -0.52  0.41  4.76
 H -1.81  1.60  4.56
 H -0.80  2.27  2.33
 H  0.50  1.11  2.57
 H  1.18  2.31  4.67
 H -0.14  3.48  4.42
 H  1.17  3.67  2.05
 H  2.98  5.50  5.10
 H  1.98  4.18  5.41
 H  3.33  6.14  2.91
 N -2.17 -2.00  4.75
 C -2.77 -2.85  5.75
 H -1.24 -2.22  4.41
 H -2.17 -2.87  6.67
 H -2.88 -3.88  5.38
 H -3.76 -2.45  5.98
