35
#
 C -0.31  1.30 -0.24
 C  0.09  1.03  1.19
 O  1.18  1.35  1.66
 H  0.50  1.87 -0.72
 H -1.24  1.87 -0.30
 H -0.46  0.34 -0.77
 N -0.82  0.36  1.98
 C -2.22  0.05  1.70
 C -3.18  1.26  1.78
 O -4.35  1.15  1.41
 H -0.50  0.23  2.94
 H -2.30 -0.30  0.66
 C -2.74 -1.05  2.64
 C -2.49 -2.51  2.25
 C -1.04 -3.01  2.16
 N -0.29 -2.59  0.97
 C -0.73 -2.88 -0.31
 N -1.22 -4.17 -0.47
 N -0.68 -1.96 -1.22
 H -3.83 -0.91  2.71
 H -2.34 -0.86  3.65
 H -2.99 -2.72  1.29
 H -3.01 -3.14  2.99
 H -1.04 -4.11  2.22
 H -0.46 -2.67  3.03
 H  0.03 -1.63  1.02
 H -1.38 -4.45 -1.43
 H -0.75 -4.89  0.08
 H -0.89 -2.33 -2.14
 N -2.66  2.41  2.30
 C -3.42  3.63  2.42
 H -1.67  2.41  2.54
 H -3.42  4.00  3.46
 H -4.45  3.41  2.12
 H -3.02  4.42  1.77
