35
#
 C -1.29 -0.43 -0.53
 C -0.87  0.29  0.73
 O -0.08  1.23  0.69
 H -2.26 -0.95 -0.46
 H -0.53 -1.18 -0.78
 H -1.32  0.30 -1.34
 N -1.34 -0.13  1.95
 C -2.29 -1.18  2.34
 C -2.14 -2.49  1.54
 O -3.09 -3.02  0.97
 H -0.98  0.44  2.71
 H -1.99 -1.45  3.37
 C -3.76 -0.72  2.46
 C -4.49 -0.20  1.22
 C -4.24  1.27  0.89
 N -5.05  1.66 -0.26
 C -5.04  2.97 -0.73
 N -5.78  3.11 -1.91
 N -4.45  3.99 -0.22
 H -3.80  0.04  3.26
 H -4.31 -1.59  2.85
 H -5.57 -0.32  1.39
 H -4.26 -0.84  0.36
 H -3.17  1.46  0.71
 H -4.53  1.89  1.75
 H -5.13  0.96 -0.98
 H -5.86  4.09 -2.16
 H -6.68  2.64 -1.90
 H -3.82  3.73  0.55
 N -0.91 -3.08  1.54
 C  0.32 -2.66  2.21
 H -0.88 -3.93  0.99
 H  0.97 -3.54  2.31
 H  0.12 -2.28  3.21
 H  0.87 -1.89  1.65
