35
#
 C -0.79  2.00  0.36
 C -0.00  1.26  1.41
 O  1.19  1.49  1.64
 H -1.82  2.21  0.66
 H -0.82  1.41 -0.57
 H -0.27  2.94  0.14
 N -0.67  0.30  2.14
 C -1.82 -0.49  1.69
 C -3.15 -0.12  2.38
 O -4.20 -0.67  2.05
 H -0.03 -0.22  2.74
 H -2.00 -0.29  0.62
 C -1.52 -1.99  1.87
 C -0.62 -2.63  0.80
 C  0.76 -2.00  0.52
 N  1.55 -1.66  1.69
 C  2.32 -2.58  2.39
 N  3.12 -2.00  3.36
 N  2.30 -3.87  2.28
 H -2.48 -2.51  1.87
 H -1.08 -2.13  2.87
 H -1.16 -2.66 -0.16
 H -0.49 -3.69  1.10
 H  0.63 -1.07 -0.05
 H  1.32 -2.68 -0.14
 H  1.84 -0.68  1.75
 H  3.79 -2.67  3.73
 H  3.55 -1.11  3.12
 H  1.60 -4.18  1.59
 N -3.06  0.84  3.34
 C -4.20  1.31  4.10
 H -2.13  1.21  3.52
 H -5.08  0.77  3.73
 H -4.36  2.39  3.95
 H -4.08  1.11  5.17
