35
#
 C  1.38  1.87  2.62
 C  0.70  0.74  3.38
 O  1.06  0.43  4.52
 H  1.13  1.87  1.55
 H  2.46  1.78  2.75
 H  1.07  2.82  3.06
 N -0.32  0.12  2.73
 C -1.14 -0.91  3.38
 C -0.45 -2.30  3.29
 O -0.89 -3.20  2.58
 H -0.57  0.44  1.79
 H -1.19 -0.63  4.45
 C -2.53 -0.95  2.77
 C -3.35  0.34  2.97
 C -4.23  0.69  1.76
 N -3.46  0.94  0.53
 C -2.52  1.96  0.51
 N -3.02  3.20  0.87
 N -1.29  1.69  0.20
 H -3.07 -1.81  3.19
 H -2.41 -1.19  1.70
 H -2.67  1.20  3.14
 H -3.98  0.26  3.86
 H -4.85  1.57  1.98
 H -4.93 -0.13  1.53
 H -3.01  0.09  0.17
 H -2.40  3.99  0.75
 H -3.99  3.39  0.61
 H -0.75  2.54  0.03
 N  0.65 -2.40  4.07
 C  1.50 -3.57  4.08
 H  0.96 -1.53  4.54
 H  1.73 -3.88  5.11
 H  2.45 -3.38  3.55
 H  0.98 -4.38  3.56
