35
#
 C -1.43 -1.53  0.78
 C -0.97 -0.48  1.78
 O -0.01  0.26  1.56
 H -2.29 -2.12  1.13
 H -0.59 -2.21  0.57
 H -1.69 -1.03 -0.16
 N -1.70 -0.40  2.93
 C -1.33  0.49  4.01
 C -1.89 -0.12  5.30
 O -2.80 -0.96  5.27
 H -2.41 -1.09  3.16
 H -0.23  0.50  4.06
 C -1.77  1.97  3.77
 C -3.15  2.18  3.14
 C -4.36  1.64  3.93
 N -4.31  1.91  5.36
 C -4.62  3.14  5.91
 N -4.55  3.13  7.31
 N -4.94  4.23  5.30
 H -1.02  2.41  3.10
 H -1.72  2.51  4.72
 H -3.18  1.73  2.14
 H -3.26  3.27  2.99
 H -4.40  0.55  3.83
 H -5.29  2.03  3.48
 H -4.45  1.11  5.96
 H -4.65  4.07  7.68
 H -3.74  2.65  7.69
 H -5.09  4.07  4.30
 N -1.35  0.29  6.48
 C -0.31  1.27  6.72
 H -1.79 -0.15  7.28
 H  0.22  1.01  7.64
 H -0.71  2.29  6.83
 H  0.42  1.27  5.91
