35
#
 C -1.71 -2.97  0.25
 C -2.10 -2.06  1.38
 O -3.04 -1.26  1.30
 H -1.92 -2.49 -0.71
 H -2.33 -3.88  0.32
 H -0.65 -3.28  0.28
 N -1.36 -2.18  2.52
 C -1.84 -1.64  3.80
 C -1.36 -0.17  4.01
 O -0.55  0.14  4.88
 H -0.66 -2.91  2.56
 H -2.93 -1.60  3.72
 C -1.41 -2.54  4.96
 C -2.44 -2.58  6.10
 C -3.73 -3.36  5.78
 N -3.51 -4.76  5.46
 C -3.38 -5.26  4.17
 N -2.90 -6.57  4.16
 N -3.63 -4.68  3.05
 H -0.45 -2.17  5.35
 H -1.25 -3.57  4.59
 H -2.71 -1.56  6.40
 H -1.97 -3.03  6.99
 H -4.27 -2.90  4.95
 H -4.41 -3.30  6.65
 H -2.99 -5.28  6.16
 H -3.31 -7.18  4.87
 H -2.99 -6.97  3.23
 H -3.89 -3.70  3.16
 N -1.94  0.69  3.15
 C -1.60  2.10  3.09
 H -2.54  0.28  2.42
 H -1.02  2.33  2.19
 H -1.00  2.34  3.97
 H -2.51  2.72  3.09
