35
#
 C -0.30 -0.19  0.23
 C -1.19 -0.83  1.28
 O -0.76 -1.71  2.02
 H  0.38  0.51  0.74
 H -0.84  0.36 -0.55
 H  0.31 -0.98 -0.22
 N -2.51 -0.43  1.38
 C -3.10  0.84  0.96
 C -3.40  0.91 -0.57
 O -3.60  1.98 -1.13
 H -2.97 -0.92  2.14
 H -4.11  0.84  1.41
 C -2.38  2.10  1.45
 C -2.60  2.48  2.92
 C -2.12  1.49  4.01
 N -0.78  0.94  3.87
 C  0.40  1.65  3.71
 N  0.33  2.99  4.08
 N  1.51  1.18  3.24
 H -2.73  2.93  0.82
 H -1.30  2.01  1.26
 H -3.68  2.65  3.10
 H -2.11  3.44  3.08
 H -2.79  0.62  4.07
 H -2.23  1.99  4.99
 H -0.72 -0.03  3.57
 H  1.27  3.39  4.11
 H -0.20  3.19  4.92
 H  1.40  0.21  2.93
 N -3.49 -0.30 -1.19
 C -3.81 -0.44 -2.59
 H -3.27 -1.12 -0.63
 H -4.71 -1.06 -2.73
 H -2.98 -0.89 -3.15
 H -4.01  0.56 -2.99
