35
#
 C -3.40 -0.66  1.40
 C -2.45 -0.89  2.56
 O -1.23 -0.99  2.40
 H -3.41 -1.57  0.77
 H -3.01  0.15  0.78
 H -4.43 -0.43  1.71
 N -3.03 -0.96  3.79
 C -2.29 -1.12  5.04
 C -1.93 -2.61  5.29
 O -2.39 -3.26  6.23
 H -4.05 -0.91  3.85
 H -1.34 -0.58  4.90
 C -3.09 -0.52  6.21
 C -2.64  0.86  6.72
 C -2.59  2.01  5.68
 N -3.61  2.01  4.64
 C -4.96  2.04  4.91
 N -5.73  1.64  3.79
 N -5.57  2.35  6.00
 H -3.03 -1.24  7.04
 H -4.16 -0.48  5.95
 H -1.64  0.78  7.17
 H -3.32  1.13  7.54
 H -1.63  1.98  5.15
 H -2.61  2.97  6.21
 H -3.37  1.42  3.85
 H -5.44  2.08  2.92
 H -6.71  1.81  3.97
 H -4.91  2.52  6.76
 N -1.05 -3.10  4.38
 C -0.61 -4.48  4.38
 H -0.78 -2.47  3.62
 H  0.49 -4.54  4.31
 H -1.04 -5.04  3.53
 H -0.94 -4.95  5.31
