35
#
 C -0.76 -1.54 -0.32
 C -0.42 -1.22  1.12
 O  0.73 -1.28  1.56
 H -0.44 -2.57 -0.54
 H -0.17 -0.88 -0.98
 H -1.82 -1.43 -0.57
 N -1.48 -0.85  1.89
 C -1.41 -0.51  3.32
 C -0.36  0.59  3.62
 O  0.47  0.47  4.51
 H -2.40 -0.81  1.46
 H -2.40 -0.07  3.55
 C -1.18 -1.72  4.23
 C -2.12 -2.91  4.02
 C -3.64 -2.64  4.14
 N -4.29 -2.33  2.87
 C -4.77 -1.09  2.52
 N -5.25 -1.06  1.20
 N -4.69 -0.08  3.32
 H -1.27 -1.36  5.27
 H -0.14 -2.05  4.11
 H -1.86 -3.67  4.77
 H -1.92 -3.38  3.04
 H -3.85 -1.80  4.81
 H -4.13 -3.53  4.56
 H -4.11 -2.97  2.10
 H -5.77 -0.21  0.98
 H -5.77 -1.89  0.91
 H -5.18  0.73  2.95
 N -0.44  1.75  2.89
 C -1.43  2.15  1.91
 H  0.29  2.41  3.13
 H -1.48  3.25  1.89
 H -1.19  1.80  0.89
 H -2.43  1.78  2.18
