35
#
 C  0.10  2.02  1.15
 C -0.18  1.61  2.58
 O  0.58  1.90  3.51
 H  0.95  1.43  0.77
 H  0.42  3.08  1.13
 H -0.75  1.89  0.47
 N -1.34  0.91  2.77
 C -1.68  0.27  4.04
 C -1.47  1.22  5.24
 O -0.78  0.92  6.22
 H -1.87  0.64  1.96
 H -2.77  0.08  4.00
 C -0.96 -1.09  4.18
 C -1.44 -2.01  5.33
 C -0.48 -2.15  6.52
 N  0.86 -2.60  6.19
 C  1.93 -1.81  5.79
 N  1.88 -0.48  6.17
 N  2.90 -2.41  5.17
 H  0.12 -0.91  4.25
 H -1.12 -1.60  3.22
 H -1.62 -3.01  4.91
 H -2.42 -1.67  5.71
 H -0.91 -2.88  7.23
 H -0.41 -1.21  7.07
 H  0.96 -3.55  5.84
 H  2.53  0.11  5.65
 H  0.97 -0.03  6.26
 H  3.67 -1.76  4.99
 N -2.17  2.40  5.24
 C -3.01  2.97  4.21
 H -1.93  2.98  6.03
 H -3.68  3.71  4.67
 H -3.64  2.21  3.74
 H -2.44  3.47  3.42
