35
#
 C  0.28 -0.16  1.17
 C -0.86  0.12  2.13
 O -1.34  1.25  2.27
 H  1.13  0.49  1.44
 H -0.03  0.12  0.16
 H  0.61 -1.20  1.17
 N -1.32 -0.95  2.83
 C -2.39 -0.83  3.80
 C -2.17 -1.93  4.84
 O -1.77 -3.05  4.48
 H -0.91 -1.88  2.74
 H -2.28  0.17  4.27
 C -3.78 -0.93  3.13
 C -4.93 -0.44  4.01
 C -4.97  1.09  4.18
 N -5.43  1.52  5.50
 C -4.67  1.26  6.62
 N -5.40  1.09  7.78
 N -3.37  1.20  6.67
 H -3.94 -1.98  2.83
 H -3.74 -0.34  2.20
 H -4.86 -0.91  5.00
 H -5.89 -0.79  3.58
 H -5.63  1.56  3.44
 H -3.97  1.52  3.99
 H -6.43  1.57  5.64
 H -6.24  0.52  7.73
 H -4.81  0.90  8.59
 H -2.96  1.58  5.81
 N -2.45 -1.60  6.12
 C -2.32 -2.54  7.22
 H -2.72 -0.63  6.35
 H -3.29 -2.77  7.67
 H -1.66 -2.13  8.00
 H -1.88 -3.47  6.82
