35
#
 C  0.54 -0.81  1.17
 C  0.58  0.06  2.42
 O  1.56  0.10  3.16
 H  1.53 -1.27  1.06
 H  0.31 -0.22  0.27
 H -0.21 -1.60  1.26
 N -0.53  0.83  2.68
 C -1.86  0.73  2.10
 C -2.49  2.13  1.84
 O -3.71  2.25  1.69
 H -0.50  1.30  3.59
 H -1.75  0.30  1.09
 C -2.82 -0.20  2.88
 C -2.85 -0.07  4.41
 C -3.16  1.32  4.99
 N -1.95  2.13  5.09
 C -1.90  3.53  5.05
 N -3.09  4.16  4.73
 N -0.83  4.24  5.19
 H -2.55 -1.23  2.63
 H -3.82 -0.02  2.47
 H -1.91 -0.44  4.85
 H -3.62 -0.77  4.77
 H -3.65  1.20  5.98
 H -3.86  1.83  4.33
 H -1.24  1.74  5.71
 H -3.02  5.16  4.81
 H -3.95  3.77  5.10
 H -0.00  3.66  5.29
 N -1.61  3.15  1.75
 C -2.00  4.52  1.53
 H -0.63  2.93  1.95
 H -1.55  5.17  2.30
 H -3.09  4.58  1.60
 H -1.68  4.88  0.54
