35
#
 C -0.20 -0.21  0.06
 C -0.13  0.01  1.56
 O  0.93  0.21  2.15
 H  0.29 -1.16 -0.19
 H  0.36  0.59 -0.44
 H -1.22 -0.23 -0.34
 N -1.33 -0.04  2.22
 C -1.46  0.02  3.67
 C -0.69  1.21  4.31
 O -0.01  1.05  5.31
 H -2.16 -0.25  1.68
 H -2.53  0.22  3.86
 C -1.05 -1.29  4.36
 C -1.80 -2.53  3.88
 C -3.31 -2.53  4.19
 N -4.02 -3.76  3.87
 C -3.76 -4.98  4.48
 N -3.49 -4.91  5.85
 N -3.88 -6.05  3.78
 H -1.19 -1.15  5.44
 H  0.03 -1.42  4.22
 H -1.35 -3.42  4.35
 H -1.66 -2.67  2.79
 H -3.82 -1.72  3.64
 H -3.47 -2.28  5.25
 H -4.18 -3.92  2.88
 H -2.99 -5.71  6.22
 H -3.19 -4.03  6.23
 H -3.81 -6.89  4.36
 N -0.89  2.46  3.79
 C -1.68  2.89  2.65
 H -0.32  3.16  4.25
 H -1.90  3.96  2.76
 H -2.64  2.37  2.61
 H -1.16  2.74  1.69
