35
#
 C  0.27  1.24  0.08
 C  0.35  0.56  1.43
 O  1.37  0.56  2.12
 H  1.21  1.77 -0.10
 H -0.56  1.96  0.03
 H  0.11  0.51 -0.72
 N -0.79 -0.08  1.88
 C -2.05 -0.26  1.16
 C -2.94  1.00  1.11
 O -3.76  1.14  0.21
 H -0.65 -0.60  2.74
 H -1.84 -0.50  0.11
 C -2.80 -1.45  1.81
 C -4.18 -1.78  1.24
 C -4.17 -2.19 -0.24
 N -5.48 -2.59 -0.75
 C -6.18 -3.70 -0.28
 N -5.36 -4.78  0.07
 N -7.45 -3.82 -0.14
 H -2.90 -1.23  2.89
 H -2.14 -2.33  1.73
 H -4.86 -0.93  1.37
 H -4.59 -2.61  1.83
 H -3.46 -3.01 -0.40
 H -3.83 -1.35 -0.86
 H -6.10 -1.80 -0.92
 H -5.92 -5.61  0.24
 H -4.59 -4.96 -0.57
 H -7.93 -2.92 -0.29
 N -2.76  1.87  2.13
 C -3.51  3.10  2.26
 H -1.99  1.68  2.77
 H -2.86  3.98  2.17
 H -4.04  3.15  3.23
 H -4.25  3.13  1.45
