35
#
 C -1.82  0.96 -0.30
 C -1.03  1.01  0.98
 O  0.01  1.67  1.08
 H -2.56  0.15 -0.35
 H -1.11  0.86 -1.13
 H -2.34  1.92 -0.44
 N -1.47  0.30  2.08
 C -2.73 -0.40  2.34
 C -2.96 -1.60  1.39
 O -3.97 -1.70  0.70
 H -0.85  0.44  2.88
 H -2.61 -0.83  3.35
 C -3.96  0.52  2.35
 C -3.81  1.71  3.29
 C -4.75  2.90  2.97
 N -4.80  3.31  1.58
 C -3.76  3.86  0.83
 N -2.66  4.31  1.56
 N -3.77  4.04 -0.45
 H -4.84 -0.08  2.60
 H -4.12  0.88  1.32
 H -2.76  2.06  3.27
 H -3.99  1.41  4.34
 H -4.48  3.76  3.60
 H -5.78  2.63  3.25
 H -5.51  2.88  1.01
 H -1.90  4.57  0.94
 H -2.35  3.73  2.33
 H -4.67  3.78 -0.86
 N -1.98 -2.56  1.35
 C -0.74 -2.64  2.09
 H -2.18 -3.30  0.68
 H -0.38 -3.67  2.05
 H -0.89 -2.39  3.15
 H  0.04 -1.98  1.69
