35
#
 C  1.73 -2.02  0.69
 C  0.91 -2.08  1.96
 O  0.79 -3.13  2.61
 H  2.76 -2.31  0.92
 H  1.73 -1.03  0.22
 H  1.33 -2.76 -0.02
 N  0.33 -0.91  2.36
 C -0.60 -0.87  3.49
 C -1.61  0.27  3.37
 O -2.81  0.05  3.47
 H  0.32 -0.14  1.70
 H -1.21 -1.78  3.43
 C  0.13 -0.88  4.86
 C -0.73 -1.42  6.02
 C -1.15 -2.89  5.85
 N -0.08 -3.81  5.47
 C  1.04 -4.03  6.26
 N  0.81 -3.96  7.64
 N  2.24 -4.27  5.85
 H  0.48  0.13  5.12
 H  1.03 -1.50  4.76
 H -1.64 -0.81  6.15
 H -0.15 -1.32  6.94
 H -1.93 -2.99  5.08
 H -1.63 -3.23  6.79
 H  0.16 -3.76  4.48
 H  1.61 -4.31  8.15
 H -0.06 -4.39  7.95
 H  2.29 -4.17  4.83
 N -1.15  1.55  3.11
 C  0.17  2.12  3.31
 H -1.93  2.21  3.08
 H  0.95  1.36  3.21
 H  0.28  2.59  4.30
 H  0.35  2.89  2.54
