35
#
 C  1.69 -0.55  1.16
 C  0.90  0.05  2.30
 O  1.39  0.29  3.40
 H  2.01 -1.56  1.45
 H  2.60  0.04  1.00
 H  1.14 -0.62  0.21
 N -0.42  0.33  2.02
 C -1.34  0.80  3.05
 C -2.75  0.29  2.70
 O -3.27 -0.63  3.32
 H -0.80  0.05  1.12
 H -1.06  0.30  3.99
 C -1.20  2.33  3.27
 C -1.95  2.88  4.49
 C -3.48  2.94  4.35
 N -4.07  3.63  5.48
 C -5.45  3.75  5.60
 N -5.82  4.58  6.66
 N -6.36  3.21  4.86
 H -1.49  2.88  2.36
 H -0.13  2.51  3.41
 H -1.58  3.90  4.68
 H -1.70  2.29  5.38
 H -3.90  1.93  4.31
 H -3.74  3.44  3.39
 H -3.55  4.44  5.81
 H -6.83  4.54  6.80
 H -5.31  4.42  7.52
 H -5.95  2.73  4.05
 N -3.34  0.92  1.64
 C -4.71  0.63  1.24
 H -2.92  1.77  1.30
 H -4.80  0.63  0.15
 H -5.42  1.36  1.65
 H -4.97 -0.36  1.63
