35
#
 C  0.44  0.45  0.59
 C  0.13  0.41  2.07
 O  0.95  0.72  2.93
 H  1.51  0.65  0.47
 H -0.13  1.25  0.09
 H  0.18 -0.49  0.08
 N -1.13 -0.00  2.43
 C -2.27 -0.26  1.56
 C -2.80  0.97  0.77
 O -3.14  0.82 -0.40
 H -1.29  0.01  3.44
 H -1.98 -0.96  0.77
 C -3.41 -0.90  2.38
 C -4.55 -1.46  1.52
 C -5.76 -1.86  2.36
 N -6.85 -2.45  1.58
 C -7.98 -1.74  1.18
 N -7.74 -0.39  0.91
 N -9.11 -2.35  1.13
 H -3.81 -0.16  3.09
 H -2.97 -1.71  2.98
 H -4.20 -2.34  0.95
 H -4.84 -0.71  0.76
 H -6.13 -0.98  2.91
 H -5.46 -2.60  3.11
 H -7.11 -3.40  1.82
 H -6.87 -0.18  0.43
 H -8.53  0.09  0.49
 H -9.83 -1.78  0.68
 N -2.89  2.19  1.38
 C -2.58  2.60  2.74
 H -3.23  2.90  0.74
 H -3.02  3.60  2.89
 H -1.50  2.67  2.93
 H -3.03  1.93  3.48
