35
#
 C -0.08 -0.67 -0.55
 C  0.27 -1.14  0.85
 O  1.09 -2.04  1.05
 H  0.24  0.37 -0.71
 H -1.16 -0.72 -0.75
 H  0.44 -1.31 -1.27
 N -0.39 -0.54  1.90
 C -1.22  0.64  1.83
 C -0.41  1.93  1.59
 O  0.73  2.08  2.04
 H  0.00 -0.80  2.80
 H -1.92  0.50  0.99
 C -2.10  0.79  3.11
 C -1.46  1.40  4.36
 C -0.34  0.59  5.01
 N  0.05  1.20  6.27
 C  0.88  0.53  7.16
 N  1.24  1.34  8.25
 N  1.33 -0.68  7.10
 H -2.51 -0.21  3.34
 H -2.96  1.41  2.84
 H -2.25  1.54  5.11
 H -1.08  2.41  4.12
 H  0.53  0.51  4.32
 H -0.70 -0.43  5.23
 H  0.24  2.20  6.21
 H  1.75  0.80  8.94
 H  0.48  1.87  8.65
 H  1.13 -1.11  6.19
 N -1.07  2.89  0.89
 C -0.51  4.20  0.61
 H -1.99  2.66  0.52
 H -0.41  4.37 -0.47
 H  0.48  4.23  1.07
 H -1.13  5.00  1.04
