35
#
 C -0.91  0.42 -0.74
 C -0.80  0.18  0.76
 O  0.12 -0.47  1.25
 H -0.01  0.94 -1.08
 H -1.79  1.00 -1.03
 H -0.93 -0.56 -1.25
 N -1.78  0.75  1.51
 C -1.91  0.50  2.94
 C -3.40  0.26  3.22
 O -4.28  0.77  2.52
 H -2.62  1.13  1.08
 H -1.31 -0.40  3.15
 C -1.39  1.67  3.81
 C  0.07  2.03  3.54
 C  0.61  3.03  4.57
 N  1.95  3.52  4.27
 C  3.10  3.01  4.85
 N  3.04  1.64  5.13
 N  4.08  3.81  5.11
 H -1.52  1.38  4.87
 H -2.04  2.55  3.64
 H  0.18  2.45  2.53
 H  0.68  1.11  3.55
 H  0.58  2.59  5.57
 H -0.06  3.91  4.59
 H  2.05  4.53  4.15
 H  3.93  1.25  5.42
 H  2.59  1.07  4.42
 H  4.92  3.30  5.40
 N -3.66 -0.51  4.31
 C -5.00 -0.79  4.79
 H -2.87 -0.92  4.80
 H -5.70 -0.27  4.12
 H -5.15 -0.42  5.81
 H -5.22 -1.86  4.76
