35
#
 C  0.21  0.14 -0.23
 C  0.05  0.44  1.26
 O  0.88  1.13  1.85
 H  1.16 -0.39 -0.38
 H  0.28  1.09 -0.77
 H -0.60 -0.46 -0.66
 N -1.06 -0.09  1.83
 C -1.51 -0.11  3.23
 C -2.69  0.82  3.59
 O -3.47  0.44  4.47
 H -1.66 -0.62  1.20
 H -1.97 -1.10  3.35
 C -0.39 -0.03  4.30
 C -0.02  1.37  4.80
 C  1.35  1.40  5.49
 N  2.39  1.09  4.54
 C  3.73  1.06  4.90
 N  4.58  0.89  3.80
 N  4.24  1.17  6.08
 H  0.49 -0.54  3.90
 H -0.75 -0.62  5.15
 H -0.78  1.73  5.51
 H  0.02  2.09  3.97
 H  1.38  0.66  6.31
 H  1.50  2.39  5.96
 H  2.18  1.30  3.57
 H  5.52  0.68  4.11
 H  4.25  0.24  3.09
 H  3.52  1.41  6.77
 N -2.88  2.02  2.97
 C -2.07  2.75  2.00
 H -3.71  2.49  3.32
 H -2.30  3.82  2.10
 H -2.29  2.45  0.96
 H -1.00  2.63  2.18
