35
#
 C  1.29  0.96  1.79
 C -0.08  1.54  1.53
 O -0.23  2.55  0.84
 H  2.02  1.60  1.28
 H  1.39 -0.06  1.40
 H  1.52  0.96  2.86
 N -1.19  0.91  2.05
 C -1.33 -0.19  3.01
 C -1.08  0.34  4.46
 O -1.90  1.12  4.92
 H -2.03  1.48  1.92
 H -2.42 -0.35  3.05
 C -0.73 -1.52  2.54
 C -1.35 -2.73  3.25
 C -0.69 -4.06  2.89
 N -0.68 -4.35  1.46
 C  0.42 -4.13  0.64
 N  0.19 -4.56 -0.67
 N  1.57 -3.63  0.95
 H  0.36 -1.54  2.64
 H -0.92 -1.60  1.46
 H -2.42 -2.78  3.00
 H -1.30 -2.61  4.35
 H -1.21 -4.88  3.40
 H  0.35 -4.09  3.27
 H -1.30 -5.09  1.15
 H  0.96 -4.29 -1.28
 H -0.72 -4.29 -1.05
 H  1.66 -3.49  1.96
 N  0.02  0.01  5.21
 C  1.12 -0.94  5.03
 H -0.02  0.48  6.11
 H  0.79 -1.98  5.03
 H  1.80 -0.81  5.87
 H  1.69 -0.75  4.11
