35
#
 C -1.71 -1.19 -1.29
 C -2.09 -0.28 -0.14
 O -2.55  0.84 -0.31
 H -0.92 -0.71 -1.88
 H -2.58 -1.30 -1.95
 H -1.37 -2.19 -0.98
 N -1.89 -0.82  1.12
 C -2.03  0.01  2.32
 C -1.36 -0.68  3.52
 O -0.67 -0.04  4.32
 H -1.29 -1.63  1.18
 H -1.48  0.95  2.17
 C -3.51  0.33  2.64
 C -3.72  1.12  3.94
 C -3.12  2.53  3.93
 N -3.25  3.25  5.18
 C -2.42  3.09  6.29
 N -1.19  2.49  6.04
 N -2.67  3.54  7.48
 H -4.07 -0.62  2.68
 H -3.90  0.89  1.78
 H -3.32  0.56  4.80
 H -4.81  1.20  4.11
 H -3.59  3.13  3.13
 H -2.05  2.51  3.67
 H -4.19  3.53  5.43
 H -0.68  2.34  6.90
 H -1.13  1.71  5.38
 H -3.55  4.06  7.50
 N -1.63 -2.01  3.67
 C -1.17 -2.78  4.81
 H -2.33 -2.42  3.06
 H -0.87 -3.78  4.49
 H -1.94 -2.86  5.59
 H -0.30 -2.26  5.24
