35
#
 C -1.13 -0.11  0.26
 C -0.72 -0.41  1.69
 O -0.22 -1.50  2.01
 H -1.56  0.89  0.14
 H -1.85 -0.86 -0.07
 H -0.24 -0.20 -0.38
 N -0.93  0.59  2.58
 C -0.57  0.46  3.99
 C -1.71 -0.24  4.78
 O -2.44  0.35  5.57
 H -1.49  1.42  2.28
 H  0.31 -0.21  4.01
 C -0.20  1.80  4.61
 C  1.04  2.47  3.99
 C  0.80  3.86  3.39
 N -0.11  3.84  2.24
 C -1.49  3.95  2.37
 N -1.91  4.97  3.20
 N -2.24  3.10  1.75
 H -0.05  1.64  5.68
 H -1.08  2.47  4.56
 H  1.46  1.82  3.19
 H  1.84  2.56  4.74
 H  1.76  4.29  3.06
 H  0.39  4.53  4.15
 H  0.10  3.10  1.57
 H -2.91  5.12  3.25
 H -1.36  5.83  3.20
 H -3.23  3.37  1.77
 N -1.80 -1.57  4.49
 C -2.85 -2.41  5.02
 H -1.19 -1.91  3.74
 H -3.59 -2.67  4.24
 H -3.36 -1.86  5.81
 H -2.44 -3.34  5.42
