35
#
 C  1.02  0.84  2.31
 C  0.12 -0.23  2.91
 O  0.58 -1.21  3.48
 H  1.72  1.18  3.08
 H  0.48  1.71  1.92
 H  1.61  0.39  1.50
 N -1.22  0.02  2.78
 C -2.29 -0.92  3.13
 C -1.92 -1.91  4.27
 O -1.98 -3.12  4.11
 H -1.49  0.73  2.10
 H -3.11 -0.30  3.54
 C -2.87 -1.67  1.92
 C -1.89 -2.41  1.01
 C -1.20 -1.56 -0.09
 N -2.13 -0.84 -0.96
 C -2.60  0.44 -0.75
 N -1.71  1.30 -0.08
 N -3.74  0.92 -1.11
 H -3.46 -0.95  1.33
 H -3.59 -2.39  2.32
 H -2.43 -3.22  0.51
 H -1.11 -2.90  1.61
 H -0.59 -2.22 -0.71
 H -0.52 -0.83  0.35
 H -2.82 -1.44 -1.42
 H -2.06  2.25 -0.17
 H -0.75  1.23 -0.42
 H -4.37  0.19 -1.47
 N -1.70 -1.37  5.51
 C -1.45  0.01  5.87
 H -1.41 -2.08  6.18
 H -1.66  0.14  6.94
 H -2.13  0.68  5.32
 H -0.42  0.32  5.67
