35
#
 C -1.33 -1.60  0.36
 C -0.90 -1.03  1.69
 O  0.29 -0.97  2.02
 H -0.52 -1.46 -0.37
 H -2.25 -1.14 -0.03
 H -1.50 -2.68  0.50
 N -1.93 -0.62  2.49
 C -1.96 -0.27  3.93
 C -1.15  0.96  4.39
 O -1.58  1.61  5.35
 H -2.85 -0.74  2.08
 H -3.00  0.06  4.09
 C -1.74 -1.48  4.86
 C -0.27 -1.86  5.14
 C -0.09 -3.33  5.54
 N -0.45 -4.30  4.50
 C  0.04 -4.23  3.20
 N  1.40 -3.95  3.09
 N -0.75 -4.50  2.21
 H -2.26 -2.33  4.39
 H -2.25 -1.27  5.81
 H  0.13 -1.22  5.93
 H  0.34 -1.67  4.24
 H -0.71 -3.58  6.41
 H  0.95 -3.50  5.86
 H -1.43 -4.58  4.48
 H  1.63 -3.34  2.30
 H  1.87 -3.65  3.93
 H -0.21 -4.61  1.35
 N  0.00  1.23  3.74
 C  0.87  2.32  4.14
 H  0.33  0.53  3.06
 H  1.36  2.75  3.26
 H  1.65  1.99  4.85
 H  0.27  3.09  4.64
