35
#
 C  1.22 -0.15 -0.83
 C  0.31  0.05  0.37
 O -0.03  1.17  0.76
 H  2.16  0.37 -0.64
 H  0.75  0.31 -1.71
 H  1.43 -1.21 -1.05
 N -0.11 -1.09  0.98
 C -0.88 -1.08  2.21
 C -0.61 -2.42  2.91
 O -0.05 -3.35  2.32
 H  0.29 -2.00  0.76
 H -0.50 -0.26  2.84
 C -2.38 -0.78  1.96
 C -3.12 -1.74  1.03
 C -3.54 -3.08  1.65
 N -4.46 -2.88  2.76
 C -4.60 -3.80  3.79
 N -5.61 -3.44  4.68
 N -3.94 -4.89  3.99
 H -2.42  0.24  1.55
 H -2.91 -0.73  2.93
 H -2.49 -1.95  0.15
 H -4.01 -1.23  0.63
 H -2.66 -3.61  2.03
 H -3.99 -3.72  0.87
 H -5.30 -2.36  2.54
 H -5.63 -4.06  5.49
 H -5.63 -2.46  4.95
 H -3.35 -5.13  3.19
 N -1.02 -2.50  4.20
 C -0.89 -3.70  5.01
 H -1.51 -1.70  4.59
 H -0.21 -4.38  4.49
 H -1.86 -4.20  5.15
 H -0.46 -3.44  5.99
