35
#
 C -2.19  0.74  0.57
 C -1.71  0.50  1.99
 O -1.68  1.39  2.83
 H -2.00 -0.10 -0.11
 H -1.69  1.64  0.18
 H -3.26  0.94  0.59
 N -1.30 -0.79  2.26
 C -1.03 -1.25  3.62
 C  0.32 -1.98  3.75
 O  0.57 -2.68  4.73
 H -1.54 -1.50  1.57
 H -0.92 -0.32  4.20
 C -2.18 -2.08  4.20
 C -3.50 -1.33  4.32
 C -3.48 -0.21  5.37
 N -4.68  0.63  5.40
 C -5.96  0.14  5.69
 N -5.97 -0.91  6.60
 N -7.08  0.57  5.22
 H -1.84 -2.46  5.18
 H -2.32 -2.98  3.57
 H -4.30 -2.04  4.58
 H -3.78 -0.89  3.35
 H -2.65  0.48  5.19
 H -3.31 -0.64  6.37
 H -4.70  1.34  4.68
 H -6.92 -1.10  6.91
 H -5.31 -0.83  7.37
 H -6.92  1.25  4.46
 N  1.21 -1.76  2.74
 C  2.56 -2.27  2.76
 H  0.93 -1.11  2.02
 H  2.64 -2.98  3.59
 H  3.30 -1.47  2.92
 H  2.80 -2.79  1.82
