35
#
 C  1.68  0.23 -0.15
 C  0.40  0.10  0.64
 O -0.38 -0.85  0.47
 H  1.44  0.28 -1.22
 H  2.28 -0.68  0.00
 H  2.29  1.10  0.13
 N  0.17  1.09  1.56
 C -1.07  1.16  2.33
 C -1.99  2.20  1.66
 O -1.70  3.40  1.69
 H  0.75  1.92  1.53
 H -1.50  0.15  2.28
 C -0.80  1.55  3.78
 C -2.06  1.52  4.65
 C -1.78  1.85  6.12
 N -0.90  0.89  6.77
 C  0.25  1.22  7.47
 N  0.93  2.33  6.97
 N  0.57  0.51  8.50
 H -0.37  2.56  3.80
 H -0.05  0.85  4.19
 H -2.52  0.52  4.59
 H -2.80  2.24  4.27
 H -2.74  1.90  6.67
 H -1.33  2.85  6.20
 H -1.36  0.10  7.22
 H  1.85  2.47  7.39
 H  0.95  2.43  5.96
 H  1.51  0.75  8.85
 N -3.11  1.74  1.03
 C -3.57  0.37  0.88
 H -3.67  2.48  0.61
 H -4.07 -0.00  1.78
 H -2.73 -0.30  0.62
 H -4.29  0.33  0.05
