35
#
 C -0.54  2.06 -0.23
 C -0.81  2.02  1.26
 O -0.62  3.02  1.96
 H  0.52  2.28 -0.39
 H -1.11  2.89 -0.67
 H -0.79  1.13 -0.76
 N -1.27  0.83  1.72
 C -1.63  0.37  3.08
 C -3.16  0.19  3.28
 O -3.57 -0.91  3.68
 H -1.39  0.11  1.02
 H -1.27 -0.66  3.14
 C -1.00  1.14  4.25
 C  0.54  1.05  4.30
 C  1.16  2.17  5.13
 N  0.94  3.45  4.49
 C  0.80  4.60  5.23
 N  0.27  5.67  4.49
 N  1.09  4.61  6.49
 H -1.41  0.69  5.17
 H -1.31  2.18  4.25
 H  0.95  1.09  3.28
 H  0.84  0.08  4.71
 H  2.24  1.98  5.25
 H  0.74  2.20  6.15
 H  0.45  3.42  3.60
 H  0.51  6.58  4.87
 H  0.43  5.63  3.49
 H  0.94  5.54  6.89
 N -4.01  1.22  3.06
 C -3.77  2.57  2.58
 H -4.98  0.95  3.22
 H -4.49  3.25  3.05
 H -3.87  2.65  1.49
 H -2.77  2.92  2.85
