35
#
 C -0.13 -0.62  0.27
 C -0.17 -0.42  1.77
 O  0.85 -0.40  2.45
 H -0.60 -1.57 -0.01
 H  0.92 -0.63 -0.04
 H -0.65  0.19 -0.27
 N -1.40 -0.25  2.38
 C -2.75 -0.31  1.81
 C -3.01 -1.70  1.16
 O -2.86 -2.69  1.87
 H -1.33 -0.26  3.39
 H -3.40 -0.38  2.69
 C -3.15  0.99  1.09
 C -3.08  2.21  2.02
 C -3.49  3.50  1.31
 N -3.40  4.63  2.22
 C -3.83  5.90  1.82
 N -3.53  6.88  2.77
 N -4.44  6.22  0.73
 H -4.18  0.89  0.72
 H -2.52  1.18  0.21
 H -2.05  2.31  2.40
 H -3.73  2.06  2.90
 H -4.53  3.42  0.97
 H -2.87  3.64  0.41
 H -2.57  4.65  2.80
 H -3.96  7.76  2.52
 H -3.72  6.62  3.73
 H -4.47  5.45  0.07
 N -3.45 -1.85 -0.13
 C -3.56 -0.94 -1.26
 H -3.61 -2.83 -0.33
 H -4.41 -0.25 -1.17
 H -2.65 -0.36 -1.43
 H -3.73 -1.55 -2.16
