35
#
 C -0.16 -0.60 -0.49
 C  0.12  0.31  0.69
 O  1.09  1.07  0.70
 H  0.60 -0.42 -1.25
 H -1.15 -0.40 -0.93
 H -0.13 -1.66 -0.21
 N -0.75  0.26  1.75
 C -1.96 -0.51  1.89
 C -2.90  0.30  2.82
 O -2.47  1.21  3.52
 H -0.61  0.97  2.47
 H -2.46 -0.60  0.91
 C -1.72 -1.95  2.41
 C -1.09 -2.07  3.81
 C -2.08 -1.92  4.97
 N -1.42 -2.20  6.23
 C -2.11 -2.03  7.43
 N -1.37 -2.48  8.53
 N -3.29 -1.54  7.61
 H -1.06 -2.44  1.69
 H -2.67 -2.52  2.38
 H -0.28 -1.33  3.92
 H -0.61 -3.06  3.88
 H -2.94 -2.59  4.80
 H -2.46 -0.89  5.01
 H -0.78 -2.98  6.23
 H -1.83 -2.24  9.40
 H -0.39 -2.20  8.53
 H -3.76 -1.38  6.72
 N -4.19 -0.11  2.83
 C -5.18  0.43  3.74
 H -4.46 -0.88  2.22
 H -6.07  0.78  3.20
 H -4.72  1.28  4.26
 H -5.49 -0.31  4.49
