35
#
 C -1.41 -1.51  0.38
 C -1.18 -0.52  1.50
 O -1.16  0.70  1.31
 H -1.37 -2.56  0.70
 H -0.66 -1.34 -0.40
 H -2.39 -1.32 -0.07
 N -1.01 -1.06  2.74
 C -0.77 -0.25  3.92
 C  0.17 -1.04  4.83
 O  0.02 -2.25  5.01
 H -1.01 -2.07  2.88
 H -0.31  0.68  3.57
 C -2.10  0.08  4.64
 C -1.94  1.01  5.84
 C -3.28  1.43  6.48
 N -4.05  0.32  7.05
 C -4.95 -0.46  6.32
 N -5.65  0.23  5.33
 N -5.17 -1.72  6.48
 H -2.57 -0.86  4.94
 H -2.76  0.55  3.89
 H -1.41  1.93  5.54
 H -1.32  0.54  6.62
 H -3.90  1.93  5.72
 H -3.09  2.16  7.27
 H -3.54 -0.22  7.73
 H -6.38 -0.36  4.94
 H -6.00  1.14  5.61
 H -4.48 -2.15  7.11
 N  1.15 -0.30  5.43
 C  2.10 -0.87  6.37
 H  1.21  0.68  5.19
 H  3.13 -0.77  6.00
 H  1.87 -1.93  6.47
 H  2.03 -0.38  7.35
