35
#
 C -0.08  0.10 -0.15
 C  0.09  0.19  1.36
 O  1.20  0.31  1.87
 H  0.91  0.14 -0.61
 H -0.67  0.95 -0.53
 H -0.58 -0.82 -0.46
 N -1.04  0.14  2.12
 C -2.42  0.04  1.69
 C -3.28  0.72  2.78
 O -2.86  0.89  3.92
 H -0.92  0.30  3.12
 H -2.55  0.59  0.75
 C -2.89 -1.42  1.47
 C -2.90 -2.29  2.73
 C -3.24 -3.74  2.43
 N -3.27 -4.52  3.66
 C -3.54 -5.89  3.66
 N -2.93 -6.59  2.62
 N -4.31 -6.37  4.58
 H -2.23 -1.87  0.72
 H -3.90 -1.41  1.02
 H -3.63 -1.88  3.45
 H -1.92 -2.24  3.22
 H -2.47 -4.16  1.76
 H -4.20 -3.80  1.88
 H -3.81 -4.09  4.41
 H -2.95 -7.60  2.74
 H -2.00 -6.26  2.35
 H -4.31 -7.39  4.57
 N -4.53  1.08  2.38
 C -5.51  1.67  3.27
 H -4.78  0.94  1.41
 H -5.79  2.68  2.94
 H -5.05  1.75  4.26
 H -6.41  1.05  3.34
