35
#
 C -0.28  0.58 -0.49
 C -0.61 -0.05  0.85
 O -0.28 -1.20  1.13
 H -0.68 -0.06 -1.29
 H  0.81  0.61 -0.61
 H -0.68  1.59 -0.62
 N -1.32  0.75  1.71
 C -1.63  0.34  3.07
 C -3.14  0.51  3.36
 O -3.56  1.24  4.26
 H -1.54  1.70  1.42
 H -1.41 -0.74  3.09
 C -0.74  1.01  4.14
 C -0.34  2.48  3.93
 C -1.48  3.51  3.96
 N -1.01  4.90  3.91
 C -0.30  5.50  4.96
 N -0.65  5.04  6.23
 N  0.60  6.42  4.85
 H  0.19  0.42  4.19
 H -1.24  0.90  5.11
 H  0.22  2.58  2.98
 H  0.37  2.74  4.72
 H -2.09  3.36  4.85
 H -2.17  3.39  3.12
 H -0.65  5.19  3.01
 H -0.25  5.63  6.95
 H -1.63  4.84  6.38
 H  0.86  6.57  3.87
 N -4.00 -0.21  2.58
 C -3.71 -1.17  1.52
 H -4.97 -0.04  2.81
 H -4.50 -1.93  1.51
 H -2.76 -1.68  1.70
 H -3.67 -0.70  0.53
