35
#
 C -0.39  1.74 -0.13
 C -0.25  0.57  0.82
 O  0.48 -0.39  0.57
 H -0.73  1.37 -1.10
 H  0.59  2.19 -0.29
 H -1.09  2.51  0.22
 N -1.00  0.64  1.96
 C -0.93 -0.39  3.00
 C -2.36 -0.71  3.47
 O -2.78 -0.35  4.57
 H -1.53  1.48  2.15
 H -0.51 -1.26  2.49
 C  0.00  0.05  4.14
 C  0.23 -0.95  5.28
 C  0.60 -2.39  4.88
 N -0.56 -3.20  4.54
 C -0.75 -3.90  3.37
 N -1.96 -4.62  3.38
 N -0.03 -3.93  2.30
 H -0.38  0.98  4.57
 H  0.97  0.28  3.66
 H -0.66 -0.98  5.93
 H  1.05 -0.56  5.91
 H  1.15 -2.86  5.71
 H  1.29 -2.39  4.02
 H -1.38 -3.07  5.12
 H -2.00 -5.23  2.57
 H -2.13 -5.13  4.24
 H  0.75 -3.27  2.33
 N -3.14 -1.40  2.60
 C -2.82 -1.89  1.27
 H -4.08 -1.57  2.95
 H -3.49 -2.73  1.04
 H -1.79 -2.28  1.22
 H -2.94 -1.12  0.50
