35
#
 C  0.23 -0.33  0.32
 C -0.86 -0.25  1.36
 O -1.41 -1.27  1.81
 H -0.12 -0.94 -0.52
 H  1.10 -0.84  0.76
 H  0.55  0.65 -0.06
 N -1.18  0.99  1.79
 C -2.20  1.28  2.78
 C -2.34  2.82  2.79
 O -1.44  3.53  2.34
 H -0.69  1.82  1.45
 H -3.14  0.82  2.46
 C -1.90  0.74  4.21
 C -0.53  1.08  4.81
 C  0.64  0.19  4.35
 N  0.39 -1.24  4.38
 C  0.52 -2.07  5.47
 N  1.08 -1.48  6.61
 N  0.24 -3.34  5.51
 H -2.02 -0.35  4.18
 H -2.69  1.12  4.87
 H -0.63  1.00  5.91
 H -0.26  2.14  4.62
 H  1.53  0.40  4.97
 H  0.93  0.45  3.33
 H -0.15 -1.62  3.60
 H  1.05 -2.14  7.39
 H  0.71 -0.57  6.87
 H -0.04 -3.68  4.59
 N -3.47  3.36  3.32
 C -4.64  2.69  3.85
 H -3.45  4.37  3.33
 H -5.53  3.31  3.65
 H -4.58  2.53  4.94
 H -4.80  1.72  3.36
