35
#
 C -0.38 -0.89 -0.11
 C -0.35 -0.48  1.35
 O  0.71 -0.30  1.96
 H  0.37 -1.66 -0.28
 H -0.10 -0.01 -0.72
 H -1.36 -1.25 -0.44
 N -1.57 -0.31  1.94
 C -1.73  0.29  3.27
 C -0.90  1.61  3.33
 O -1.21  2.49  2.53
 H -2.38 -0.32  1.34
 H -2.74  0.71  3.26
 C -1.72 -0.74  4.43
 C -0.82 -1.97  4.29
 C -0.82 -2.88  5.52
 N -0.12 -2.33  6.67
 C -0.78 -1.68  7.70
 N  0.12 -1.10  8.62
 N -2.07 -1.61  7.73
 H -2.75 -1.10  4.54
 H -1.52 -0.21  5.37
 H  0.21 -1.68  4.04
 H -1.16 -2.57  3.43
 H -0.35 -3.84  5.26
 H -1.84 -3.09  5.85
 H  0.83 -2.02  6.51
 H -0.33 -0.77  9.46
 H  0.93 -1.67  8.83
 H -2.39 -1.20  8.61
 N  0.04  1.86  4.29
 C  0.90  0.94  5.02
 H  0.40  2.80  4.17
 H  1.78  1.50  5.36
 H  1.26  0.13  4.36
 H  0.41  0.51  5.90
