35
#
 C  0.01 -1.53 -0.59
 C  0.63 -0.81  0.59
 O  1.80 -0.41  0.56
 H  0.76 -1.57 -1.39
 H -0.87 -1.00 -0.97
 H -0.30 -2.55 -0.34
 N -0.14 -0.61  1.70
 C -1.53 -0.98  1.94
 C -2.24  0.24  2.55
 O -1.68  0.94  3.39
 H  0.28 -0.04  2.43
 H -1.99 -1.25  0.98
 C -1.66 -2.17  2.92
 C -1.04 -3.47  2.40
 C -0.96 -4.56  3.48
 N -0.35 -5.81  3.03
 C  0.95 -5.87  2.52
 N  1.90 -5.15  3.24
 N  1.18 -6.63  1.51
 H -2.73 -2.32  3.15
 H -1.18 -1.87  3.87
 H -0.02 -3.26  2.04
 H -1.61 -3.85  1.54
 H -1.96 -4.81  3.84
 H -0.42 -4.18  4.36
 H -0.95 -6.39  2.44
 H  2.72 -4.86  2.72
 H  1.58 -4.45  3.90
 H  2.18 -6.71  1.32
 N -3.52  0.44  2.12
 C -4.37  1.50  2.64
 H -3.89 -0.17  1.40
 H -4.66  2.19  1.84
 H -3.79  2.04  3.39
 H -5.27  1.09  3.11
