35
#
 C  2.76 -0.34  0.89
 C  1.75 -0.45  2.01
 O  2.00 -1.03  3.06
 H  2.41  0.25  0.03
 H  3.03 -1.34  0.55
 H  3.68  0.13  1.29
 N  0.54  0.16  1.77
 C -0.58  0.04  2.70
 C -1.57 -0.99  2.13
 O -2.17 -0.76  1.08
 H  0.33  0.47  0.83
 H -0.13 -0.30  3.64
 C -1.29  1.39  2.92
 C -0.39  2.44  3.58
 C -1.07  3.81  3.71
 N -2.29  3.85  4.49
 C -2.29  3.76  5.88
 N -3.58  3.62  6.40
 N -1.29  3.79  6.69
 H -2.17  1.19  3.54
 H -1.67  1.74  1.95
 H  0.53  2.57  2.99
 H -0.08  2.08  4.57
 H -1.31  4.20  2.71
 H -0.36  4.53  4.15
 H -3.11  3.46  4.05
 H -3.56  3.71  7.41
 H -4.28  4.24  5.99
 H -0.39  3.76  6.19
 N -1.74 -2.14  2.82
 C -1.06 -2.58  4.04
 H -2.41 -2.77  2.40
 H -1.20 -3.66  4.14
 H -1.46 -2.10  4.94
 H  0.02 -2.39  3.98
