35
#
 C -0.39  1.41  1.44
 C -0.78  0.36  2.46
 O  0.06 -0.23  3.14
 H -0.37  0.97  0.43
 H  0.63  1.73  1.68
 H -1.05  2.28  1.44
 N -2.11  0.07  2.61
 C -3.22  0.42  1.75
 C -4.39  0.88  2.63
 O -4.61  0.33  3.71
 H -2.33 -0.56  3.38
 H -2.88  1.23  1.09
 C -3.71 -0.76  0.87
 C -2.63 -1.43 -0.00
 C -1.86 -2.56  0.70
 N -0.86 -3.23 -0.13
 C  0.32 -2.63 -0.57
 N  0.79 -1.60  0.24
 N  0.97 -2.94 -1.64
 H -4.52 -0.38  0.23
 H -4.17 -1.51  1.53
 H -1.92 -0.68 -0.38
 H -3.11 -1.85 -0.90
 H -2.57 -3.32  1.04
 H -1.37 -2.18  1.61
 H -1.25 -3.87 -0.81
 H  0.67 -1.68  1.25
 H  1.74 -1.35 -0.02
 H  0.46 -3.62 -2.20
 N -5.20  1.86  2.14
 C -5.03  2.63  0.92
 H -5.97  2.09  2.76
 H -5.03  2.00  0.03
 H -4.11  3.23  0.93
 H -5.87  3.33  0.84
