35
#
 C -0.46  0.15  0.24
 C -0.85 -0.05  1.69
 O -0.16 -0.68  2.48
 H -1.30  0.42 -0.41
 H  0.01 -0.77 -0.14
 H  0.29  0.95  0.19
 N -2.04  0.53  2.06
 C -2.44  0.68  3.46
 C -1.23  1.20  4.29
 O -0.61  2.18  3.90
 H -2.47  1.16  1.39
 H -3.12  1.54  3.47
 C -3.26 -0.52  3.99
 C -2.64 -1.92  3.89
 C -3.54 -3.02  4.47
 N -4.80 -3.22  3.75
 C -5.96 -2.48  3.97
 N -6.17 -2.11  5.31
 N -6.84 -2.13  3.09
 H -4.21 -0.52  3.43
 H -3.55 -0.30  5.03
 H -1.66 -1.97  4.39
 H -2.42 -2.15  2.84
 H -3.78 -2.80  5.52
 H -3.00 -3.97  4.46
 H -4.68 -3.44  2.77
 H -7.09 -1.72  5.42
 H -5.97 -2.84  5.99
 H -6.51 -2.33  2.14
 N -1.00  0.58  5.48
 C  0.13  0.96  6.31
 H -1.42 -0.32  5.64
 H -0.08  0.73  7.36
 H  0.30  2.03  6.20
 H  1.05  0.44  6.01
