35
#
 C -1.23 -0.10  0.37
 C -0.83  0.11  1.81
 O  0.29  0.55  2.13
 H -1.29  0.88 -0.12
 H -2.19 -0.61  0.26
 H -0.44 -0.67 -0.14
 N -1.77 -0.21  2.73
 C -1.63  0.07  4.16
 C -0.81 -1.02  4.91
 O -1.27 -1.67  5.85
 H -2.66 -0.60  2.38
 H -1.04  1.00  4.23
 C -3.00  0.30  4.81
 C -3.98 -0.89  4.73
 C -5.41 -0.51  4.32
 N -5.55  0.33  3.13
 C -5.04 -0.02  1.90
 N -4.95  1.05  1.01
 N -4.61 -1.18  1.52
 H -3.43  1.18  4.32
 H -2.83  0.57  5.86
 H -4.03 -1.40  5.70
 H -3.59 -1.65  4.04
 H -5.91  0.03  5.13
 H -6.01 -1.43  4.17
 H -5.58  1.33  3.31
 H -4.79  0.73  0.06
 H -5.70  1.74  1.06
 H -4.69 -1.87  2.26
 N  0.46 -1.14  4.44
 C  1.40 -2.11  4.96
 H  0.72 -0.53  3.65
 H  2.31 -1.61  5.32
 H  1.68 -2.84  4.20
 H  0.93 -2.63  5.80
