35
#
 C -0.71 -1.30 -0.73
 C -0.27 -0.43  0.42
 O  0.83  0.12  0.42
 H -1.08 -0.67 -1.56
 H -1.50 -2.02 -0.48
 H  0.17 -1.84 -1.10
 N -1.09 -0.27  1.53
 C -2.52 -0.53  1.74
 C -2.95 -2.00  1.52
 O -4.07 -2.30  1.14
 H -0.67  0.39  2.17
 H -2.64 -0.42  2.83
 C -3.49  0.51  1.14
 C -3.46  0.83 -0.36
 C -4.13 -0.20 -1.28
 N -4.44  0.31 -2.61
 C -3.46  0.49 -3.57
 N -3.95  1.12 -4.72
 N -2.24  0.11 -3.36
 H -3.29  1.45  1.68
 H -4.50  0.20  1.43
 H -2.44  1.04 -0.70
 H -4.01  1.79 -0.48
 H -3.50 -1.09 -1.41
 H -5.07 -0.54 -0.84
 H -5.20  0.98 -2.66
 H -3.30  1.12 -5.50
 H -4.88  0.82 -5.01
 H -1.68  0.20 -4.21
 N -2.01 -2.91  1.90
 C -2.22 -4.34  1.79
 H -1.09 -2.55  2.13
 H -1.93 -4.85  2.71
 H -1.64 -4.77  0.95
 H -3.28 -4.51  1.60
