35
#
 C -1.47 -3.90  1.77
 C -1.01 -2.68  2.54
 O  0.12 -2.62  3.05
 H -2.50 -3.83  1.40
 H -1.39 -4.78  2.42
 H -0.79 -4.06  0.93
 N -1.90 -1.66  2.63
 C -1.60 -0.36  3.24
 C -1.74 -0.40  4.79
 O -2.58  0.27  5.41
 H -2.83 -1.78  2.24
 H -0.53 -0.18  3.04
 C -2.42  0.76  2.59
 C -3.94  0.54  2.57
 C -4.72  1.83  2.28
 N -4.36  2.97  3.12
 C -4.93  3.19  4.38
 N -4.96  2.06  5.20
 N -5.37  4.37  4.65
 H -2.05  0.92  1.57
 H -2.21  1.68  3.15
 H -4.27  0.12  3.53
 H -4.23 -0.18  1.79
 H -5.80  1.61  2.35
 H -4.52  2.14  1.25
 H -4.38  3.86  2.62
 H -5.29  2.25  6.14
 H -4.13  1.46  5.19
 H -5.62  4.46  5.64
 N -0.85 -1.23  5.38
 C -0.81 -1.46  6.81
 H -0.23 -1.76  4.75
 H  0.21 -1.34  7.19
 H -1.16 -2.47  7.06
 H -1.47 -0.73  7.29
