35
#
 C -1.22 -0.40 -0.01
 C -0.77 -0.45  1.44
 O  0.36 -0.83  1.76
 H -0.50  0.20 -0.58
 H -2.22  0.02 -0.15
 H -1.19 -1.42 -0.42
 N -1.69 -0.01  2.35
 C -1.46 -0.09  3.79
 C -2.28 -1.27  4.35
 O -3.51 -1.22  4.35
 H -2.65  0.14  2.05
 H -0.38 -0.28  3.89
 C -1.83  1.20  4.51
 C -1.00  2.40  4.05
 C -1.38  3.72  4.74
 N -1.10  3.67  6.16
 C -1.52  4.69  7.01
 N -1.02  4.53  8.31
 N -2.27  5.70  6.74
 H -1.70  1.05  5.59
 H -2.91  1.40  4.37
 H -1.12  2.54  2.97
 H  0.07  2.20  4.21
 H -2.46  3.89  4.61
 H -0.86  4.56  4.24
 H -0.18  3.30  6.40
 H -1.45  5.21  8.94
 H -1.09  3.59  8.68
 H -2.45  5.78  5.73
 N -1.60 -2.36  4.80
 C -0.17 -2.59  4.81
 H -2.21 -3.09  5.16
 H  0.01 -3.67  4.92
 H  0.34 -2.08  5.64
 H  0.29 -2.28  3.86
