35
#
 C -0.53 -0.16 -0.76
 C -0.01 -0.22  0.67
 O  1.19 -0.31  0.93
 H -1.09  0.76 -0.95
 H  0.34 -0.20 -1.43
 H -1.19 -1.01 -0.98
 N -0.94 -0.15  1.68
 C -2.38 -0.03  1.58
 C -2.86  0.66  2.86
 O -2.22  0.54  3.92
 H -0.57 -0.11  2.63
 H -2.63  0.60  0.71
 C -3.11 -1.39  1.40
 C -2.79 -2.47  2.45
 C -3.90 -2.77  3.46
 N -4.23 -1.67  4.36
 C -5.46 -1.05  4.34
 N -5.52  0.04  5.23
 N -6.40 -1.42  3.54
 H -2.82 -1.76  0.40
 H -4.19 -1.22  1.35
 H -1.86 -2.22  2.98
 H -2.57 -3.42  1.94
 H -3.60 -3.64  4.07
 H -4.83 -3.03  2.95
 H -3.45 -1.11  4.69
 H -6.48  0.30  5.47
 H -4.96 -0.07  6.07
 H -7.27 -0.91  3.73
 N -4.03  1.35  2.82
 C -4.98  1.45  1.73
 H -4.39  1.55  3.75
 H -5.66  0.58  1.70
 H -4.47  1.54  0.77
 H -5.58  2.36  1.87
