35
#
 C  1.33 -0.86  1.15
 C  0.88 -0.60  2.57
 O  1.64 -0.73  3.53
 H  2.25 -0.30  0.96
 H  0.58 -0.60  0.39
 H  1.57 -1.93  1.06
 N -0.43 -0.22  2.72
 C -1.15 -0.07  3.99
 C -0.41  0.83  5.02
 O -0.53  0.64  6.23
 H -1.00 -0.21  1.88
 H -2.04  0.52  3.73
 C -1.66 -1.37  4.63
 C -0.63 -2.43  5.05
 C -0.37 -3.50  3.98
 N  0.56 -4.53  4.40
 C  1.85 -4.74  3.91
 N  2.39 -3.68  3.19
 N  2.55 -5.82  4.06
 H -2.39 -1.82  3.93
 H -2.23 -1.05  5.51
 H -1.00 -2.94  5.95
 H  0.32 -1.96  5.34
 H  0.02 -3.05  3.05
 H -1.33 -3.98  3.70
 H  0.19 -5.31  4.92
 H  3.36 -3.87  2.99
 H  2.24 -2.74  3.57
 H  1.99 -6.57  4.48
 N  0.26  1.89  4.49
 C  1.07  2.77  5.32
 H  0.44  1.87  3.49
 H  1.07  3.78  4.90
 H  2.11  2.41  5.39
 H  0.64  2.78  6.32
