35
#
 C  1.89  0.08  0.05
 C  1.13 -0.12  1.35
 O  1.72 -0.28  2.41
 H  2.47 -0.82 -0.16
 H  2.60  0.91  0.18
 H  1.25  0.30 -0.82
 N -0.23 -0.09  1.22
 C -1.29 -0.32  2.22
 C -2.05  0.96  2.64
 O -3.28  0.97  2.55
 H -0.58  0.07  0.29
 H -2.07 -0.87  1.69
 C -0.91 -1.17  3.44
 C -0.50 -2.60  3.09
 C -0.23 -3.47  4.32
 N -1.40 -3.66  5.17
 C -1.48 -3.35  6.52
 N -0.62 -2.34  6.94
 N -2.25 -3.91  7.39
 H -1.81 -1.21  4.07
 H -0.10 -0.69  4.01
 H  0.42 -2.60  2.48
 H -1.28 -3.07  2.48
 H  0.56 -3.02  4.94
 H  0.15 -4.45  4.00
 H -2.03 -4.41  4.90
 H -0.82 -2.09  7.91
 H -0.56 -1.53  6.33
 H -2.72 -4.74  7.00
 N -1.38  2.04  3.13
 C  0.04  2.28  3.31
 H -2.01  2.81  3.35
 H  0.19  2.90  4.20
 H  0.48  2.80  2.45
 H  0.59  1.34  3.45
