35
#
 C  1.03  0.39 -0.46
 C  0.49  1.26  0.66
 O  0.85  2.44  0.78
 H  0.58 -0.61 -0.50
 H  2.11  0.28 -0.32
 H  0.86  0.90 -1.41
 N -0.40  0.66  1.50
 C -0.97  1.21  2.74
 C -1.97  2.36  2.53
 O -3.11  2.27  3.02
 H -0.64 -0.30  1.29
 H -1.58  0.40  3.15
 C  0.14  1.51  3.78
 C -0.30  2.20  5.08
 C -1.51  1.59  5.82
 N -1.56  0.14  5.75
 C -2.73 -0.60  5.63
 N -3.77  0.04  4.97
 N -2.74 -1.79  6.13
 H  0.91  2.13  3.30
 H  0.61  0.54  4.01
 H -0.52  3.26  4.89
 H  0.58  2.20  5.74
 H -2.43  1.98  5.38
 H -1.50  1.94  6.86
 H -0.91 -0.37  6.35
 H -4.55 -0.55  4.73
 H -3.57  0.78  4.29
 H -3.61 -2.29  5.89
 N -1.52  3.43  1.86
 C -2.35  4.60  1.58
 H -0.58  3.36  1.46
 H -1.84  5.51  1.91
 H -3.29  4.49  2.13
 H -2.57  4.68  0.51
