35
#
 C -0.79  0.44 -1.09
 C -0.49  1.12  0.23
 O  0.47  1.87  0.40
 H -0.61 -0.64 -1.03
 H -0.11  0.87 -1.84
 H -1.83  0.57 -1.42
 N -1.35  0.86  1.29
 C -2.43 -0.11  1.34
 C -3.84  0.50  1.39
 O -4.84 -0.23  1.48
 H -1.01  1.24  2.17
 H -2.43 -0.63  0.37
 C -2.23 -1.16  2.46
 C -1.73 -2.53  1.96
 C -2.86 -3.44  1.43
 N -3.72 -2.88  0.39
 C -3.28 -2.54 -0.88
 N -2.15 -3.24 -1.33
 N -3.80 -1.64 -1.65
 H -3.17 -1.29  3.00
 H -1.50 -0.75  3.18
 H -1.24 -3.07  2.78
 H -0.97 -2.39  1.18
 H -3.53 -3.71  2.27
 H -2.43 -4.39  1.08
 H -4.40 -2.20  0.75
 H -2.04 -3.11 -2.33
 H -2.09 -4.21 -1.04
 H -4.56 -1.15 -1.17
 N -3.90  1.85  1.29
 C -5.15  2.59  1.22
 H -3.02  2.33  1.17
 H -5.18  3.37  1.99
 H -5.97  1.88  1.40
 H -5.29  3.05  0.23
