35
#
 C  0.09  0.64  0.33
 C  0.08  0.45  1.83
 O  1.12  0.45  2.49
 H -0.23 -0.27 -0.19
 H  1.12  0.88  0.03
 H -0.57  1.46  0.01
 N -1.13  0.26  2.45
 C -2.48  0.16  1.89
 C -2.58 -1.03  0.89
 O -2.27 -2.15  1.31
 H -1.02  0.02  3.43
 H -3.09 -0.23  2.73
 C -3.10  1.52  1.52
 C -3.13  2.50  2.69
 C -3.78  3.84  2.33
 N -5.20  3.78  2.00
 C -5.66  3.71  0.70
 N -7.06  3.62  0.65
 N -4.85  3.68 -0.30
 H -4.12  1.34  1.17
 H -2.57  1.99  0.68
 H -2.11  2.70  3.04
 H -3.67  2.05  3.54
 H -3.28  4.29  1.46
 H -3.66  4.54  3.18
 H -5.82  3.42  2.71
 H -7.44  3.71 -0.29
 H -7.55  4.22  1.31
 H -5.36  3.77 -1.19
 N -3.05 -0.89 -0.39
 C -3.28  0.26 -1.25
 H -3.06 -1.80 -0.85
 H -3.58 -0.12 -2.23
 H -2.37  0.87 -1.40
 H -4.07  0.92 -0.89
