35
#
 C  0.14  0.31  0.05
 C  0.21 -0.14  1.50
 O  1.27 -0.57  1.99
 H  1.10  0.11 -0.43
 H -0.09  1.39 -0.01
 H -0.66 -0.21 -0.49
 N -0.91 -0.04  2.25
 C -2.22  0.47  1.90
 C -2.37  2.00  1.71
 O -3.32  2.41  1.04
 H -0.81 -0.36  3.23
 H -2.53  0.08  0.92
 C -3.27 -0.03  2.92
 C -3.08  0.37  4.41
 C -2.37 -0.65  5.31
 N -0.96 -0.85  4.98
 C -0.41 -2.15  4.94
 N  0.94 -2.11  4.61
 N -1.15 -3.17  5.20
 H -3.31 -1.13  2.85
 H -4.24  0.34  2.57
 H -4.08  0.51  4.85
 H -2.60  1.36  4.49
 H -2.84 -1.64  5.23
 H -2.48 -0.34  6.36
 H -0.31 -0.18  5.40
 H  1.36 -3.03  4.51
 H  1.17 -1.49  3.81
 H -0.66 -4.04  5.00
 N -1.48  2.89  2.26
 C -0.31  2.72  3.11
 H -1.73  3.84  2.01
 H -0.06  3.70  3.53
 H  0.57  2.35  2.57
 H -0.51  2.04  3.95
