35
#
 C -1.13 -1.09  1.25
 C -0.89  0.15  2.09
 O  0.06  0.22  2.87
 H -0.15 -1.55  1.05
 H -1.65 -0.92  0.31
 H -1.72 -1.81  1.84
 N -1.79  1.19  2.03
 C -2.89  1.49  1.10
 C -3.80  0.29  0.78
 O -4.06 -0.04 -0.37
 H -1.51  1.94  2.65
 H -3.54  2.19  1.66
 C -2.43  2.24 -0.17
 C -1.37  1.56 -1.02
 C -0.87  2.46 -2.16
 N  0.18  1.89 -2.99
 C  1.42  1.51 -2.48
 N  1.98  2.40 -1.56
 N  1.98  0.45 -2.95
 H -2.05  3.22  0.17
 H -3.33  2.44 -0.77
 H -0.50  1.28 -0.40
 H -1.77  0.63 -1.45
 H -0.54  3.43 -1.76
 H -1.71  2.71 -2.83
 H -0.13  1.17 -3.64
 H  2.65  1.99 -0.92
 H  1.37  3.07 -1.12
 H  2.95  0.36 -2.61
 N -4.37 -0.36  1.84
 C -4.25 -0.09  3.27
 H -4.95 -1.14  1.56
 H -5.12 -0.53  3.77
 H -4.27  0.99  3.47
 H -3.34 -0.50  3.71
