35
#
 C -1.46  1.57  1.20
 C -0.37  0.99  2.09
 O  0.73  1.52  2.16
 H -1.81  0.86  0.44
 H -1.02  2.44  0.70
 H -2.33  1.90  1.79
 N -0.61 -0.14  2.85
 C -1.67 -1.14  3.02
 C -1.19 -2.56  2.64
 O -1.32 -3.47  3.46
 H  0.22 -0.35  3.39
 H -1.84 -1.23  4.10
 C -3.04 -0.82  2.40
 C -4.11 -1.85  2.80
 C -5.47 -1.52  2.20
 N -6.45 -2.52  2.61
 C -7.74 -2.58  2.08
 N -8.25 -1.35  1.67
 N -8.46 -3.64  1.93
 H -3.36  0.17  2.75
 H -2.99 -0.77  1.30
 H -3.80 -2.85  2.47
 H -4.19 -1.90  3.90
 H -5.40 -1.45  1.10
 H -5.79 -0.52  2.55
 H -6.06 -3.44  2.77
 H -8.04 -0.56  2.27
 H -9.24 -1.42  1.46
 H -7.93 -4.49  2.14
 N -0.65 -2.80  1.41
 C -0.37 -1.89  0.31
 H -0.34 -3.76  1.31
 H  0.46 -1.20  0.52
 H -0.09 -2.50 -0.57
 H -1.25 -1.31  0.03
