35
#
 C -1.91  1.81  4.26
 C -1.26  0.45  4.38
 O -0.23  0.27  5.03
 H -2.75  1.84  3.55
 H -1.15  2.54  3.94
 H -2.27  2.12  5.25
 N -1.89 -0.57  3.69
 C -1.50 -1.96  3.84
 C -0.76 -2.57  2.62
 O -0.48 -3.77  2.63
 H -2.80 -0.37  3.29
 H -0.75 -1.96  4.65
 C -2.67 -2.87  4.27
 C -3.97 -2.79  3.45
 C -3.87 -2.82  1.92
 N -3.22 -4.01  1.40
 C -3.03 -4.12  0.03
 N -2.15 -5.15 -0.32
 N -3.55 -3.40 -0.91
 H -2.91 -2.65  5.32
 H -2.27 -3.90  4.25
 H -4.51 -1.87  3.71
 H -4.62 -3.61  3.78
 H -3.37 -1.90  1.55
 H -4.90 -2.78  1.52
 H -2.39 -4.29  1.93
 H -2.17 -5.96  0.29
 H -2.20 -5.37 -1.30
 H -4.09 -2.62 -0.53
 N -0.50 -1.73  1.60
 C  0.09 -2.17  0.35
 H -0.77 -0.76  1.72
 H  0.25 -3.25  0.42
 H  1.05 -1.67  0.16
 H -0.59 -1.97 -0.49
