35
#
 C -1.69 -1.85 -0.99
 C -0.88 -1.71  0.28
 O  0.26 -2.17  0.37
 H -1.05 -2.30 -1.75
 H -2.06 -0.88 -1.36
 H -2.57 -2.49 -0.82
 N -1.45 -1.09  1.36
 C -2.56 -0.14  1.40
 C -3.86 -0.77  0.84
 O -4.21 -1.89  1.19
 H -0.80 -1.03  2.15
 H -2.79 -0.02  2.47
 C -2.17  1.27  0.88
 C -0.90  1.83  1.56
 C  0.42  1.49  0.84
 N  1.61  1.63  1.65
 C  1.87  0.83  2.76
 N  1.38 -0.48  2.67
 N  2.49  1.36  3.76
 H -3.01  1.95  1.07
 H -2.01  1.24 -0.21
 H -0.85  1.46  2.60
 H -0.99  2.92  1.64
 H  0.54  2.15 -0.04
 H  0.39  0.47  0.44
 H  1.90  2.59  1.86
 H  1.76 -1.09  3.38
 H  1.37 -0.93  1.75
 H  2.73  0.65  4.46
 N -4.59  0.01 -0.01
 C -5.85 -0.43 -0.58
 H -4.22  0.91 -0.28
 H -6.65  0.31 -0.37
 H -6.11 -1.38 -0.11
 H -5.77 -0.57 -1.66
