35
#
 C  1.40 -1.18  0.82
 C  0.68  0.09  1.22
 O  1.27  1.14  1.47
 H  2.07 -1.47  1.64
 H  2.03 -0.97 -0.05
 H  0.73 -2.02  0.59
 N -0.69 -0.01  1.25
 C -1.53  1.05  1.79
 C -2.57  0.36  2.69
 O -2.87 -0.82  2.54
 H -1.14 -0.92  1.24
 H -0.87  1.71  2.38
 C -2.24  1.87  0.69
 C -1.26  2.59 -0.24
 C -1.95  3.47 -1.29
 N -2.79  2.75 -2.24
 C -4.13  2.43 -2.02
 N -4.84  3.38 -1.29
 N -4.75  1.37 -2.42
 H -2.90  2.61  1.18
 H -2.90  1.20  0.13
 H -0.62  1.85 -0.75
 H -0.57  3.22  0.34
 H -1.18  4.01 -1.87
 H -2.56  4.23 -0.80
 H -2.31  2.01 -2.75
 H -5.83  3.16 -1.30
 H -4.66  4.35 -1.56
 H -4.10  0.68 -2.81
 N -3.14  1.17  3.63
 C -4.21  0.73  4.50
 H -2.82  2.13  3.70
 H -5.13  1.31  4.33
 H -3.92  0.84  5.56
 H -4.41 -0.32  4.29
