35
#
 C  0.34 -1.59  2.18
 C -0.25 -0.19  2.14
 O  0.46  0.81  2.01
 H -0.40 -2.37  2.41
 H  1.14 -1.62  2.92
 H  0.79 -1.80  1.20
 N -1.61 -0.13  2.23
 C -2.38  1.10  2.21
 C -3.82  0.68  2.54
 O -4.18 -0.50  2.40
 H -2.18 -0.97  2.29
 H -1.99  1.76  3.00
 C -2.31  1.90  0.88
 C -2.62  1.14 -0.41
 C -1.45  0.29 -0.98
 N -0.17  0.96 -1.04
 C  0.12  1.92 -2.00
 N  1.28  2.64 -1.71
 N -0.54  2.22 -3.06
 H -1.31  2.35  0.82
 H -3.01  2.74  0.97
 H -2.90  1.88 -1.17
 H -3.49  0.48 -0.29
 H -1.72 -0.05 -1.99
 H -1.32 -0.62 -0.39
 H  0.29  1.08 -0.14
 H  1.60  3.17 -2.51
 H  2.03  2.09 -1.28
 H -1.43  1.71 -3.11
 N -4.69  1.63  2.97
 C -4.45  3.04  3.24
 H -5.63  1.28  3.10
 H -5.10  3.36  4.06
 H -4.66  3.67  2.36
 H -3.41  3.21  3.55
