35
#
 C -1.81 -0.46  1.62
 C -0.62  0.41  1.99
 O  0.47 -0.08  2.28
 H -1.48 -1.50  1.68
 H -2.16 -0.26  0.60
 H -2.66 -0.31  2.30
 N -0.80  1.77  1.98
 C -1.95  2.54  1.56
 C -1.47  3.67  0.63
 O -0.31  4.09  0.70
 H  0.06  2.32  2.08
 H -2.64  1.88  1.02
 C -2.71  3.19  2.74
 C -3.44  2.20  3.64
 C -4.37  2.89  4.66
 N -5.47  3.63  4.04
 C -5.35  4.94  3.59
 N -4.68  5.79  4.47
 N -5.84  5.25  2.43
 H -3.43  3.91  2.33
 H -1.98  3.78  3.33
 H -2.73  1.56  4.18
 H -4.06  1.53  3.02
 H -3.79  3.58  5.29
 H -4.80  2.14  5.34
 H -5.99  3.09  3.36
 H -4.85  5.63  5.46
 H -4.71  6.77  4.22
 H -5.85  6.26  2.29
 N -2.38  4.19 -0.24
 C -3.78  3.86 -0.40
 H -2.02  4.99 -0.76
 H -4.43  4.29  0.38
 H -3.93  2.77 -0.42
 H -4.12  4.24 -1.37
