35
#
 C -0.45 -0.36  0.08
 C -0.82 -1.01  1.40
 O -0.56 -2.18  1.65
 H  0.13  0.56  0.22
 H -1.35 -0.12 -0.50
 H  0.15 -1.08 -0.48
 N -1.48 -0.24  2.34
 C -1.96  1.14  2.27
 C -2.99  1.29  1.10
 O -3.96  0.55  1.10
 H -1.79 -0.80  3.13
 H -2.64  1.23  3.13
 C -0.86  2.18  2.49
 C -0.17  2.01  3.85
 C  0.89  3.08  4.12
 N  0.30  4.41  4.22
 C  1.08  5.56  4.13
 N  0.34  6.71  4.41
 N  2.33  5.66  3.85
 H -1.30  3.19  2.44
 H -0.10  2.13  1.70
 H  0.31  1.03  3.90
 H -0.92  2.03  4.66
 H  1.61  3.10  3.28
 H  1.46  2.82  5.03
 H -0.46  4.48  4.89
 H  0.90  7.55  4.23
 H -0.57  6.75  3.97
 H  2.79  4.75  3.82
 N -2.87  2.25  0.12
 C -1.79  3.14 -0.27
 H -3.67  2.21 -0.50
 H -1.65  3.98  0.43
 H -2.05  3.57 -1.25
 H -0.83  2.62 -0.39
