35
#
 C -0.24  2.05  0.21
 C  0.38  1.03  1.13
 O  1.49  1.22  1.66
 H -0.23  1.67 -0.82
 H  0.36  2.96  0.26
 H -1.28  2.29  0.47
 N -0.27 -0.15  1.37
 C -1.63 -0.60  1.08
 C -2.05 -0.27 -0.37
 O -1.33 -0.57 -1.32
 H  0.28 -0.76  1.96
 H -1.54 -1.70  1.02
 C -2.64 -0.34  2.22
 C -3.03  1.11  2.63
 C -2.30  1.68  3.86
 N -0.95  2.13  3.62
 C -0.66  3.44  3.31
 N  0.71  3.69  3.24
 N -1.64  4.28  3.14
 H -2.24 -0.85  3.11
 H -3.55 -0.90  1.97
 H -4.10  1.11  2.87
 H -2.90  1.82  1.81
 H -2.29  0.93  4.66
 H -2.88  2.55  4.22
 H -0.18  1.57  3.98
 H  0.93  4.60  2.85
 H  1.25  2.95  2.81
 H -1.28  5.20  2.87
 N -3.28  0.30 -0.53
 C -3.82  0.63 -1.83
 H -3.79  0.59  0.30
 H -4.85  0.25 -1.94
 H -3.18  0.17 -2.59
 H -3.84  1.72 -1.99
