35
#
 C -1.12  0.53 -1.28
 C -0.30  0.20 -0.04
 O  0.93  0.26 -0.08
 H -1.60  1.51 -1.16
 H -1.90 -0.20 -1.50
 H -0.42  0.59 -2.12
 N -0.90 -0.14  1.15
 C -2.26 -0.44  1.64
 C -2.36 -1.92  2.09
 O -2.69 -2.17  3.26
 H -0.18 -0.31  1.85
 H -2.35  0.09  2.60
 C -3.42  0.04  0.76
 C -4.79  0.17  1.45
 C -5.44 -1.12  1.97
 N -5.36 -2.20  0.98
 C -5.42 -3.56  1.28
 N -5.09 -3.90  2.58
 N -5.74 -4.49  0.45
 H -3.52 -0.59 -0.13
 H -3.15  1.05  0.40
 H -5.46  0.64  0.72
 H -4.72  0.87  2.29
 H -6.48 -0.90  2.25
 H -4.93 -1.45  2.88
 H -5.80 -1.99  0.10
 H -5.02 -4.91  2.69
 H -4.34 -3.38  3.04
 H -6.08 -4.10 -0.44
 N -2.05 -2.93  1.24
 C -1.87 -2.92 -0.20
 H -2.19 -3.85  1.67
 H -2.79 -2.60 -0.72
 H -1.65 -3.94 -0.53
 H -1.03 -2.28 -0.50
