35
#
 C  0.30  0.63  0.73
 C  0.11 -0.13  2.03
 O  1.07 -0.65  2.60
 H  1.37  0.60  0.51
 H -0.02  1.67  0.82
 H -0.25  0.17 -0.10
 N -1.14 -0.24  2.61
 C -2.52  0.14  2.31
 C -3.46 -1.08  2.17
 O -4.51 -1.11  2.81
 H -1.05 -0.73  3.50
 H -2.90  0.62  3.23
 C -2.74  1.16  1.17
 C -4.20  1.55  0.92
 C -4.96  2.14  2.13
 N -4.26  3.23  2.78
 C -3.76  3.18  4.07
 N -3.14  4.38  4.44
 N -3.82  2.21  4.92
 H -2.33  0.78  0.22
 H -2.17  2.06  1.42
 H -4.78  0.68  0.56
 H -4.20  2.28  0.10
 H -5.14  1.35  2.86
 H -5.95  2.48  1.79
 H -4.43  4.17  2.42
 H -2.70  4.29  5.35
 H -2.51  4.77  3.75
 H -4.43  1.45  4.61
 N -3.13 -2.11  1.34
 C -1.98 -2.29  0.46
 H -3.82 -2.86  1.36
 H -2.18 -3.16 -0.18
 H -1.05 -2.48  1.02
 H -1.83 -1.43 -0.19
