35
#
 C  0.38 -0.59  0.15
 C  0.54 -0.29  1.63
 O  1.62 -0.36  2.20
 H  1.36 -0.87 -0.24
 H  0.02  0.29 -0.41
 H -0.33 -1.41 -0.03
 N -0.60  0.08  2.32
 C -1.98  0.10  1.84
 C -2.65  1.32  2.50
 O -3.25  1.22  3.57
 H -0.45  0.21  3.32
 H -1.94  0.25  0.75
 C -2.74 -1.19  2.14
 C -4.07 -1.29  1.38
 C -4.88 -2.55  1.73
 N -5.49 -2.56  3.05
 C -6.67 -1.88  3.31
 N -7.00 -1.89  4.67
 N -7.46 -1.28  2.49
 H -2.92 -1.22  3.23
 H -2.10 -2.04  1.88
 H -3.87 -1.30  0.30
 H -4.69 -0.40  1.59
 H -4.23 -3.44  1.66
 H -5.68 -2.70  1.00
 H -4.84 -2.59  3.84
 H -7.92 -1.51  4.83
 H -6.87 -2.79  5.13
 H -7.05 -1.21  1.55
 N -2.52  2.52  1.87
 C -1.72  2.82  0.69
 H -2.92  3.30  2.39
 H -2.06  2.26 -0.19
 H -0.65  2.62  0.85
 H -1.83  3.89  0.46
