35
#
 C -1.26 -0.54 -1.26
 C -0.49 -0.69  0.04
 O  0.74 -0.81  0.07
 H -0.54 -0.56 -2.08
 H -1.82  0.40 -1.29
 H -1.98 -1.35 -1.40
 N -1.21 -0.71  1.20
 C -2.64 -0.53  1.36
 C -3.15  0.93  1.22
 O -4.18  1.15  0.58
 H -0.63 -0.77  2.05
 H -3.16 -1.05  0.55
 C -3.16 -1.12  2.69
 C -3.04 -2.65  2.83
 C -1.67 -3.21  3.24
 N -1.18 -2.73  4.53
 C -0.44 -1.57  4.73
 N  0.43 -1.26  3.67
 N -0.48 -0.78  5.74
 H -4.22 -0.84  2.76
 H -2.67 -0.63  3.54
 H -3.34 -3.13  1.88
 H -3.78 -2.98  3.57
 H -0.91 -2.98  2.47
 H -1.74 -4.31  3.29
 H -1.82 -2.91  5.31
 H  0.93 -2.04  3.26
 H  1.06 -0.51  3.95
 H -1.25 -1.02  6.38
 N -2.46  1.95  1.81
 C -1.27  1.93  2.64
 H -2.89  2.85  1.62
 H -1.16  2.92  3.11
 H -0.35  1.73  2.07
 H -1.34  1.20  3.46
