35
#
 C -3.19  0.21  0.26
 C -2.10  0.48  1.28
 O -0.92  0.62  0.95
 H -4.17 -0.00  0.70
 H -2.88 -0.64 -0.37
 H -3.27  1.09 -0.40
 N -2.52  0.54  2.58
 C -1.64  0.92  3.69
 C -1.58 -0.16  4.79
 O -1.27  0.13  5.95
 H -3.52  0.52  2.76
 H -0.64  0.94  3.25
 C -1.97  2.30  4.28
 C -2.11  3.44  3.28
 C -0.89  3.74  2.37
 N  0.35  3.99  3.07
 C  1.36  3.07  3.33
 N  1.52  2.05  2.41
 N  2.12  3.30  4.35
 H -1.19  2.52  5.02
 H -2.90  2.22  4.87
 H -2.35  4.35  3.85
 H -2.98  3.28  2.62
 H -1.14  4.62  1.76
 H -0.75  2.93  1.65
 H  0.34  4.70  3.79
 H  0.75  1.76  1.81
 H  2.08  1.27  2.73
 H  2.90  2.64  4.39
 N -1.86 -1.43  4.38
 C -1.74 -2.58  5.26
 H -2.06 -1.57  3.40
 H -1.57 -2.20  6.27
 H -0.90 -3.22  4.97
 H -2.66 -3.18  5.25
