35
#
 C  0.21  0.68  2.95
 C -0.17 -0.67  3.55
 O  0.56 -1.27  4.33
 H  0.38  0.60  1.87
 H  1.13  1.01  3.43
 H -0.58  1.43  3.11
 N -1.39 -1.19  3.18
 C -2.34 -0.68  2.20
 C -3.48  0.19  2.79
 O -4.31  0.70  2.04
 H -1.55 -2.12  3.56
 H -1.81 -0.02  1.51
 C -2.94 -1.84  1.38
 C -1.94 -2.51  0.45
 C -2.53 -3.73 -0.27
 N -1.61 -4.36 -1.21
 C -0.91 -5.53 -0.96
 N -0.68 -5.78  0.40
 N -0.48 -6.38 -1.83
 H -3.79 -1.42  0.81
 H -3.37 -2.58  2.08
 H -1.04 -2.81  1.01
 H -1.59 -1.78 -0.30
 H -3.43 -3.42 -0.83
 H -2.86 -4.47  0.47
 H -1.80 -4.20 -2.19
 H -0.08 -6.59  0.51
 H -0.36 -4.99  0.95
 H -0.84 -6.17 -2.76
 N -3.45  0.35  4.14
 C -4.43  1.15  4.85
 H -2.71 -0.11  4.65
 H -3.95  1.99  5.38
 H -4.99  0.55  5.58
 H -5.13  1.56  4.11
