35
#
 C  0.17 -0.95  0.28
 C  0.23 -0.07  1.51
 O  1.30  0.28  2.01
 H  1.16 -0.92 -0.20
 H -0.60 -0.65 -0.44
 H -0.04 -1.99  0.57
 N -0.95  0.31  2.10
 C -2.35  0.12  1.70
 C -2.67 -1.36  1.38
 O -3.07 -1.72  0.28
 H -0.79  0.91  2.91
 H -2.93  0.37  2.60
 C -2.79  1.07  0.57
 C -4.30  1.20  0.37
 C -5.08  1.72  1.58
 N -4.57  2.98  2.12
 C -4.87  4.20  1.53
 N -4.35  5.28  2.27
 N -5.55  4.43  0.46
 H -2.34  0.74 -0.37
 H -2.37  2.06  0.80
 H -4.73  0.22  0.08
 H -4.46  1.87 -0.49
 H -5.05  0.99  2.40
 H -6.15  1.82  1.31
 H -4.49  3.02  3.13
 H -4.48  6.15  1.77
 H -3.39  5.15  2.58
 H -5.99  3.58  0.10
 N -2.49 -2.26  2.40
 C -2.02 -2.03  3.75
 H -2.69 -3.21  2.12
 H -2.29 -2.89  4.37
 H -2.49 -1.15  4.20
 H -0.93 -1.90  3.80
