35
#
 C -1.29  1.81  2.52
 C -0.22  0.81  2.93
 O  0.95  0.93  2.58
 H -1.35  2.60  3.28
 H -2.28  1.35  2.43
 H -1.00  2.27  1.57
 N -0.67 -0.22  3.71
 C  0.28 -1.09  4.40
 C  1.45 -1.65  3.56
 O  2.57 -1.72  4.08
 H -1.57 -0.07  4.17
 H  0.81 -0.52  5.18
 C -0.42 -2.30  5.07
 C -1.71 -1.99  5.84
 C -1.59 -0.87  6.88
 N -2.87 -0.33  7.31
 C -3.61  0.46  6.45
 N -4.85  0.82  6.98
 N -3.15  0.77  5.28
 H  0.33 -2.76  5.73
 H -0.65 -3.06  4.30
 H -2.06 -2.91  6.33
 H -2.50 -1.71  5.13
 H -1.01 -0.03  6.48
 H -1.06 -1.23  7.78
 H -3.41 -0.89  7.96
 H -5.35  1.51  6.43
 H -4.85  1.05  7.97
 H -3.75  1.47  4.83
 N  1.22 -2.22  2.34
 C  0.05 -2.15  1.48
 H  2.09 -2.52  1.91
 H -0.87 -2.28  2.05
 H  0.11 -2.96  0.75
 H -0.02 -1.19  0.94
