35
#
 C  2.45 -0.20  2.27
 C  1.45 -0.95  3.12
 O  1.76 -1.46  4.20
 H  3.21 -0.91  1.92
 H  2.96  0.54  2.90
 H  2.01  0.31  1.41
 N  0.17 -1.00  2.62
 C -0.85 -1.88  3.21
 C -2.05 -2.05  2.27
 O -2.65 -3.12  2.20
 H  0.07 -0.77  1.64
 H -0.42 -2.88  3.33
 C -1.35 -1.35  4.58
 C -1.97 -2.44  5.46
 C -0.93 -3.22  6.31
 N  0.24 -3.73  5.61
 C  0.25 -4.82  4.76
 N -0.88 -5.65  4.82
 N  1.23 -5.16  3.98
 H -2.08 -0.54  4.40
 H -0.49 -0.89  5.10
 H -2.56 -3.12  4.83
 H -2.69 -1.98  6.16
 H -1.43 -4.05  6.83
 H -0.56 -2.55  7.10
 H  0.92 -3.02  5.35
 H -1.78 -5.17  4.78
 H -0.81 -6.36  4.09
 H  2.03 -4.54  4.13
 N -2.41 -0.94  1.55
 C -3.61 -0.92  0.73
 H -2.01 -0.05  1.82
 H -3.79 -1.94  0.37
 H -3.46 -0.25 -0.13
 H -4.49 -0.59  1.29
