35
#
 C  0.36 -1.44  0.48
 C  0.18 -0.57  1.72
 O  1.13 -0.18  2.39
 H -0.53 -2.06  0.27
 H  1.23 -2.08  0.62
 H  0.54 -0.79 -0.38
 N -1.13 -0.25  1.98
 C -1.58  0.49  3.14
 C -1.27  2.00  3.00
 O -0.49  2.46  2.18
 H -1.84 -0.89  1.61
 H -2.68  0.41  3.11
 C -1.12 -0.12  4.49
 C -1.93 -1.37  4.88
 C -1.53 -2.65  4.11
 N -2.64 -3.56  3.84
 C -3.49 -3.35  2.77
 N -4.58 -4.22  2.77
 N -3.27 -2.41  1.90
 H -1.23  0.64  5.29
 H -0.05 -0.33  4.43
 H -3.00 -1.17  4.69
 H -1.84 -1.55  5.96
 H -0.78 -3.21  4.68
 H -1.09 -2.41  3.15
 H -3.07 -4.01  4.64
 H -5.12 -4.20  1.91
 H -4.38 -5.17  3.07
 H -3.94 -2.47  1.13
 N -1.93  2.83  3.89
 C -3.17  2.55  4.61
 H -1.73  3.81  3.69
 H -3.06  1.70  5.29
 H -4.02  2.35  3.94
 H -3.42  3.43  5.22
