35
#
 C  0.81  1.07 -0.20
 C  1.28  1.18  1.23
 O  2.00  2.12  1.62
 H  0.01  1.81 -0.36
 H  0.42  0.07 -0.45
 H  1.64  1.32 -0.87
 N  0.84  0.22  2.08
 C  1.12  0.23  3.50
 C  0.72 -1.15  4.03
 O  0.01 -1.92  3.38
 H  0.26 -0.56  1.76
 H  2.21  0.36  3.63
 C  0.40  1.39  4.26
 C  1.36  2.39  4.91
 C  0.86  3.84  4.84
 N  0.78  4.31  3.45
 C -0.41  4.50  2.76
 N -1.50  4.88  3.56
 N -0.58  4.36  1.49
 H -0.29  0.98  5.00
 H -0.22  1.90  3.52
 H  2.34  2.35  4.41
 H  1.55  2.14  5.97
 H  1.54  4.49  5.41
 H -0.13  3.92  5.29
 H  1.49  3.89  2.85
 H -2.28  5.15  2.96
 H -1.29  5.59  4.25
 H  0.26  3.96  1.06
 N  1.19 -1.44  5.28
 C  0.86 -2.65  5.99
 H  1.78 -0.74  5.73
 H  0.26 -3.28  5.32
 H  0.27 -2.44  6.90
 H  1.76 -3.20  6.28
