35
#
 C  0.14 -0.64  0.43
 C -0.06 -0.75  1.93
 O  0.75 -1.34  2.65
 H  0.26 -1.64  0.01
 H  1.06 -0.09  0.23
 H -0.69 -0.13 -0.08
 N -1.16 -0.10  2.42
 C -1.58 -0.24  3.80
 C -3.11 -0.47  3.77
 O -3.79 -0.08  2.83
 H -1.89  0.21  1.79
 H -1.07 -1.13  4.21
 C -1.25  0.98  4.70
 C  0.25  1.15  5.02
 C  1.10  1.92  4.00
 N  0.73  3.32  3.83
 C -0.03  3.81  2.77
 N -0.26  5.19  2.89
 N -0.52  3.17  1.77
 H -1.79  0.85  5.64
 H -1.66  1.89  4.23
 H  0.71  0.16  5.16
 H  0.33  1.68  5.98
 H  1.08  1.44  3.01
 H  2.15  1.88  4.33
 H  0.74  3.90  4.66
 H -0.72  5.54  2.06
 H  0.57  5.73  3.13
 H -0.42  2.16  1.88
 N -3.62 -1.10  4.86
 C -5.04 -1.34  5.05
 H -2.97 -1.42  5.57
 H -5.55 -0.94  4.17
 H -5.41 -0.83  5.94
 H -5.25 -2.41  5.12
