35
#
 C  0.05 -1.34  0.55
 C -0.30 -1.87  1.92
 O  0.34 -2.76  2.47
 H  0.98 -1.82  0.22
 H  0.18 -0.24  0.55
 H -0.74 -1.57 -0.18
 N -1.39 -1.30  2.55
 C -2.31 -0.31  2.03
 C -1.87  1.16  2.22
 O -2.49  2.07  1.66
 H -1.64 -1.76  3.43
 H -2.37 -0.42  0.94
 C -3.74 -0.50  2.61
 C -4.74 -1.11  1.63
 C -4.99 -0.24  0.38
 N -5.21  1.17  0.64
 C -6.41  1.60  1.17
 N -6.37  2.94  1.57
 N -7.41  0.79  1.28
 H -4.12  0.47  2.96
 H -3.67 -1.13  3.51
 H -5.70 -1.24  2.15
 H -4.41 -2.11  1.31
 H -5.86 -0.63 -0.16
 H -4.13 -0.30 -0.31
 H -4.38  1.69  0.92
 H -7.29  3.36  1.69
 H -5.75  3.54  1.04
 H -8.25  1.29  1.61
 N -0.79  1.35  3.02
 C -0.24  2.66  3.31
 H -0.36  0.52  3.41
 H -0.86  3.41  2.80
 H  0.79  2.75  2.95
 H -0.26  2.86  4.39
