35
#
 C -0.30 -0.45  0.03
 C -0.06 -0.10  1.49
 O  1.07 -0.17  1.98
 H -1.16  0.04 -0.42
 H -0.47 -1.54 -0.03
 H  0.61 -0.20 -0.52
 N -1.12  0.26  2.28
 C -2.53  0.51  1.99
 C -3.14 -0.60  1.10
 O -2.87 -1.78  1.28
 H -0.83  0.41  3.25
 H -3.05  0.32  2.95
 C -2.82  1.99  1.64
 C -2.08  2.57  0.43
 C -2.41  4.05  0.18
 N -2.09  4.95  1.28
 C -2.96  5.22  2.33
 N -4.29  5.38  1.95
 N -2.49  5.28  3.53
 H -2.55  2.57  2.53
 H -3.91  2.13  1.54
 H -2.30  2.02 -0.49
 H -0.99  2.48  0.59
 H -3.48  4.16 -0.05
 H -1.86  4.39 -0.72
 H -1.14  4.85  1.65
 H -4.89  5.73  2.69
 H -4.43  5.88  1.08
 H -3.18  5.64  4.19
 N -4.04 -0.18  0.16
 C -4.77 -1.11 -0.69
 H -4.23  0.81  0.07
 H -4.58 -0.91 -1.75
 H -5.86 -1.05 -0.51
 H -4.43 -2.12 -0.44
