35
#
 C  0.22 -0.41  0.18
 C  0.18 -0.48  1.70
 O  1.18 -0.74  2.36
 H -0.00  0.60 -0.19
 H -0.49 -1.11 -0.29
 H  1.23 -0.69 -0.14
 N -1.02 -0.23  2.31
 C -2.27  0.12  1.67
 C -2.33  1.63  1.36
 O -2.06  2.46  2.24
 H -1.01 -0.23  3.34
 H -2.35 -0.47  0.74
 C -3.51 -0.20  2.55
 C -3.37 -1.36  3.56
 C -3.02 -0.89  4.98
 N -1.65 -0.36  5.14
 C -1.44  0.87  5.81
 N -2.12  1.93  5.24
 N -0.68  0.87  6.85
 H -4.35 -0.41  1.87
 H -3.79  0.71  3.10
 H -2.63 -2.10  3.21
 H -4.33 -1.88  3.63
 H -3.15 -1.73  5.68
 H -3.72 -0.10  5.29
 H -1.02 -1.04  5.57
 H -2.10  2.00  4.21
 H -1.94  2.82  5.69
 H -0.47  1.82  7.16
 N -2.71  2.02  0.11
 C -3.12  1.19 -1.01
 H -2.76  3.03  0.00
 H -3.41  1.84 -1.83
 H -3.99  0.56 -0.76
 H -2.31  0.54 -1.36
