35
#
 C -2.21 -1.73  2.05
 C -0.81 -1.19  1.80
 O  0.19 -1.90  1.95
 H -2.84 -1.65  1.15
 H -2.72 -1.18  2.86
 H -2.12 -2.78  2.34
 N -0.70  0.11  1.39
 C -1.75  1.08  1.16
 C -1.21  2.10  0.14
 O  0.01  2.33  0.09
 H  0.24  0.43  1.16
 H -2.63  0.57  0.75
 C -2.20  1.83  2.45
 C -1.06  2.50  3.26
 C -1.02  4.03  3.22
 N -0.80  4.62  1.91
 C -1.75  5.32  1.20
 N -1.31  5.68 -0.09
 N -2.95  5.67  1.54
 H -2.70  1.08  3.09
 H -2.97  2.56  2.19
 H -0.09  2.10  2.94
 H -1.15  2.22  4.32
 H -0.23  4.38  3.90
 H -1.96  4.45  3.62
 H -0.10  4.15  1.34
 H -1.91  6.40 -0.48
 H -0.33  5.95 -0.13
 H -3.21  5.29  2.45
 N -2.09  2.76 -0.64
 C -3.54  2.74 -0.60
 H -1.67  3.58 -1.08
 H -3.94  3.51  0.08
 H -3.91  1.76 -0.29
 H -3.93  2.93 -1.61
