35
#
 C  1.64 -2.59  4.74
 C  0.52 -1.80  4.09
 O  0.38 -1.76  2.86
 H  2.60 -2.21  4.37
 H  1.56 -3.63  4.43
 H  1.64 -2.54  5.84
 N -0.33 -1.16  4.94
 C -1.47 -0.37  4.46
 C -1.00  1.05  4.07
 O -1.14  2.02  4.82
 H -0.11 -1.13  5.93
 H -1.81 -0.88  3.55
 C -2.57 -0.35  5.52
 C -3.88  0.32  5.06
 C -4.51 -0.25  3.79
 N -4.88 -1.64  3.95
 C -5.55 -2.32  2.93
 N -5.69 -3.69  3.21
 N -6.01 -1.85  1.83
 H -2.20  0.20  6.40
 H -2.75 -1.38  5.84
 H -3.69  1.39  4.90
 H -4.61  0.25  5.88
 H -3.84 -0.10  2.93
 H -5.43  0.33  3.57
 H -4.21 -2.22  4.45
 H -5.99 -3.89  4.16
 H -6.28 -4.14  2.52
 H -5.72 -0.88  1.68
 N -0.41  1.10  2.85
 C  0.21  2.30  2.33
 H -0.21  0.20  2.41
 H -0.18  3.16  2.89
 H -0.03  2.43  1.26
 H  1.30  2.28  2.44
