35
#
 C  0.34 -0.24  0.96
 C -0.38 -0.24  2.28
 O  0.14  0.19  3.32
 H  1.27 -0.83  1.05
 H  0.63  0.79  0.72
 H -0.25 -0.65  0.13
 N -1.65 -0.74  2.27
 C -2.48 -0.79  3.48
 C -2.15 -2.07  4.30
 O -2.83 -3.09  4.24
 H -2.01 -1.18  1.43
 H -2.19  0.09  4.07
 C -3.96 -0.72  3.10
 C -4.92 -0.60  4.29
 C -4.73  0.68  5.11
 N -5.73  0.76  6.16
 C -5.72  1.80  7.08
 N -6.84  1.77  7.92
 N -4.84  2.73  7.23
 H -4.22 -1.64  2.55
 H -4.10  0.13  2.42
 H -4.81 -1.47  4.95
 H -5.95 -0.63  3.91
 H -4.77  1.56  4.44
 H -3.74  0.69  5.59
 H -6.66  0.45  5.89
 H -6.74  2.46  8.67
 H -7.07  0.85  8.28
 H -4.15  2.72  6.47
 N -1.02 -1.93  5.05
 C -0.45 -3.03  5.80
 H -0.46 -1.10  4.87
 H -0.13 -2.69  6.79
 H  0.42 -3.47  5.28
 H -1.21 -3.80  5.91
