35
#
 C -1.29  0.15 -0.03
 C -1.30 -0.21  1.44
 O -0.45  0.24  2.22
 H -2.15 -0.22 -0.59
 H -0.37 -0.26 -0.48
 H -1.24  1.25 -0.12
 N -2.30 -1.06  1.83
 C -2.47 -1.69  3.14
 C -2.91 -0.73  4.28
 O -3.92 -0.98  4.93
 H -2.96 -1.34  1.11
 H -3.34 -2.35  3.03
 C -1.25 -2.56  3.53
 C -1.45 -3.29  4.86
 C -0.29 -4.24  5.21
 N -0.15 -5.39  4.32
 C  0.53 -5.37  3.10
 N  1.65 -4.54  3.07
 N  0.21 -6.03  2.04
 H -0.35 -1.93  3.58
 H -1.09 -3.28  2.72
 H -2.39 -3.86  4.84
 H -1.56 -2.56  5.68
 H -0.43 -4.62  6.23
 H  0.66 -3.68  5.22
 H -0.97 -5.98  4.29
 H  2.18 -4.68  2.22
 H  2.23 -4.56  3.91
 H -0.70 -6.48  2.14
 N -2.09  0.33  4.50
 C -2.35  1.32  5.52
 H -1.30  0.45  3.85
 H -1.49  1.42  6.19
 H -3.22  0.98  6.11
 H -2.58  2.30  5.08
