35
#
 C -0.31 -0.62  2.47
 C -0.65  0.38  3.56
 O -0.07  0.39  4.64
 H  0.47 -1.28  2.86
 H  0.06 -0.12  1.56
 H -1.18 -1.24  2.19
 N -1.63  1.30  3.28
 C -2.40  1.46  2.06
 C -2.84  2.93  1.99
 O -3.01  3.60  3.01
 H -1.78  2.02  3.99
 H -1.76  1.24  1.19
 C -3.65  0.53  1.96
 C -4.88  0.93  2.79
 C -4.72  0.79  4.32
 N -5.89  1.21  5.07
 C -6.21  2.53  5.38
 N -5.17  3.44  5.28
 N -7.35  2.94  5.83
 H -3.33 -0.49  2.22
 H -3.95  0.50  0.90
 H -5.72  0.29  2.48
 H -5.18  1.96  2.55
 H -3.86  1.36  4.69
 H -4.50 -0.26  4.58
 H -6.71  0.61  4.98
 H -5.49  4.38  5.45
 H -4.49  3.37  4.52
 H -8.00  2.15  5.97
 N -3.08  3.41  0.74
 C -3.60  4.74  0.48
 H -2.89  2.80 -0.04
 H -4.56  4.69 -0.05
 H -2.89  5.33 -0.11
 H -3.75  5.23  1.45
