35
#
 C -2.40 -1.04  0.45
 C -1.57 -0.90  1.71
 O -0.36 -1.17  1.71
 H -3.44 -0.69  0.56
 H -2.42 -2.10  0.17
 H -1.92 -0.49 -0.36
 N -2.23 -0.44  2.81
 C -1.72 -0.36  4.19
 C -0.67  0.75  4.43
 O -0.75  1.45  5.44
 H -3.21 -0.21  2.68
 H -2.56 -0.01  4.79
 C -1.32 -1.77  4.68
 C -0.56 -1.88  6.01
 C  0.95 -1.51  5.95
 N  1.65 -1.91  4.73
 C  1.71 -3.22  4.28
 N  1.88 -3.30  2.90
 N  1.68 -4.29  5.00
 H -0.73 -2.27  3.90
 H -2.25 -2.35  4.77
 H -0.65 -2.92  6.34
 H -1.02 -1.26  6.79
 H  1.45 -1.95  6.82
 H  1.08 -0.43  6.04
 H  1.66 -1.20  4.00
 H  1.87 -4.27  2.59
 H  1.27 -2.71  2.35
 H  1.70 -4.07  6.00
 N  0.32  0.87  3.51
 C  1.37  1.87  3.65
 H  0.33  0.21  2.73
 H  1.88  1.98  2.69
 H  2.11  1.58  4.41
 H  0.93  2.83  3.95
