35
#
 C -0.03 -2.41  1.07
 C -0.10 -1.38  2.17
 O  0.61 -1.46  3.18
 H -0.73 -2.23  0.24
 H -0.23 -3.40  1.49
 H  0.99 -2.43  0.67
 N -0.98 -0.36  1.98
 C -1.11  0.79  2.87
 C -2.00  0.51  4.12
 O -2.98  1.20  4.41
 H -1.57 -0.37  1.16
 H -0.09  0.96  3.27
 C -1.58  2.01  2.08
 C -0.44  2.78  1.40
 C  0.49  3.56  2.36
 N -0.12  4.70  3.04
 C -1.11  4.56  4.02
 N -0.83  3.65  5.04
 N -2.14  5.34  3.97
 H -2.15  2.67  2.75
 H -2.31  1.69  1.32
 H -0.87  3.50  0.68
 H  0.19  2.09  0.80
 H  1.34  3.95  1.79
 H  0.93  2.88  3.10
 H -0.40  5.45  2.42
 H -1.64  3.13  5.37
 H -0.01  3.06  4.92
 H -2.70  5.27  4.82
 N -1.55 -0.53  4.87
 C -2.21 -0.98  6.07
 H -0.69 -0.99  4.55
 H -2.49 -2.04  6.00
 H -3.12 -0.38  6.20
 H -1.57 -0.85  6.95
