35
#
 C  0.27 -1.02 -0.34
 C  0.29 -0.76  1.15
 O  1.35 -0.55  1.75
 H -0.73 -1.15 -0.76
 H  0.86 -1.93 -0.54
 H  0.78 -0.19 -0.85
 N -0.93 -0.77  1.76
 C -1.19 -0.63  3.20
 C -0.98  0.80  3.76
 O -1.90  1.38  4.34
 H -1.74 -0.89  1.17
 H -2.28 -0.78  3.31
 C -0.47 -1.70  4.04
 C -0.86 -1.67  5.52
 C -0.19 -2.80  6.33
 N -0.58 -4.14  5.89
 C  0.27 -5.12  5.42
 N  1.47 -4.64  4.87
 N  0.07 -6.39  5.44
 H  0.61 -1.58  3.93
 H -0.73 -2.68  3.61
 H -1.95 -1.74  5.62
 H -0.57 -0.71  5.97
 H -0.45 -2.67  7.39
 H  0.90 -2.72  6.26
 H -1.43 -4.51  6.32
 H  1.98 -5.40  4.44
 H  1.39 -3.83  4.27
 H -0.76 -6.63  6.00
 N  0.27  1.31  3.60
 C  0.64  2.63  4.07
 H  0.93  0.75  3.05
 H  1.53  2.58  4.71
 H -0.20  3.04  4.64
 H  0.85  3.31  3.22
