35
#
 C  0.39  1.15  0.31
 C -0.07  0.15  1.37
 O  0.49 -0.92  1.53
 H  0.65  2.12  0.75
 H -0.38  1.32 -0.45
 H  1.28  0.73 -0.16
 N -1.15  0.50  2.15
 C -2.05  1.65  2.04
 C -2.28  2.20  3.46
 O -3.30  1.93  4.10
 H -1.43 -0.24  2.79
 H -1.54  2.41  1.43
 C -3.40  1.30  1.39
 C -3.29  0.77 -0.04
 C -4.63  0.28 -0.60
 N -5.22 -0.83  0.14
 C -5.16 -2.16 -0.25
 N -4.08 -2.48 -1.07
 N -6.00 -3.09  0.06
 H -4.03  2.20  1.41
 H -3.90  0.56  2.02
 H -2.56 -0.06 -0.08
 H -2.90  1.55 -0.72
 H -4.50 -0.03 -1.65
 H -5.35  1.11 -0.60
 H -6.02 -0.61  0.71
 H -3.18 -2.10 -0.78
 H -4.04 -3.48 -1.23
 H -6.83 -2.71  0.53
 N -1.29  2.98  4.00
 C  0.01  3.29  3.44
 H -1.47  3.23  4.97
 H  0.66  2.40  3.36
 H  0.51  4.01  4.10
 H -0.07  3.76  2.45
