35
#
 C -1.11 -1.45 -0.99
 C -0.58 -0.33 -0.12
 O  0.63 -0.25  0.13
 H -0.53 -1.45 -1.92
 H -2.18 -1.40 -1.24
 H -0.91 -2.40 -0.49
 N -1.45  0.59  0.41
 C -2.90  0.71  0.29
 C -3.20  2.14 -0.21
 O -3.41  3.07  0.56
 H -0.98  1.28  0.99
 H -3.26 -0.01 -0.45
 C -3.63  0.46  1.62
 C -3.43 -0.95  2.19
 C -4.01 -2.09  1.34
 N -5.43 -1.95  1.04
 C -5.89 -1.65 -0.22
 N -7.28 -1.72 -0.32
 N -5.07 -1.37 -1.18
 H -4.70  0.64  1.45
 H -3.31  1.21  2.35
 H -3.89 -0.98  3.19
 H -2.36 -1.15  2.34
 H -3.85 -3.05  1.86
 H -3.49 -2.17  0.38
 H -6.08 -2.43  1.65
 H -7.66 -1.30 -1.16
 H -7.79 -1.41  0.51
 H -5.59 -1.12 -2.03
 N -3.18  2.33 -1.57
 C -2.81  1.37 -2.60
 H -3.27  3.30 -1.83
 H -3.09  1.79 -3.57
 H -3.35  0.42 -2.47
 H -1.73  1.17 -2.61
