35
#
 C  0.68  0.89  0.93
 C  0.11 -0.35  1.60
 O  0.78 -1.38  1.74
 H  1.00  0.62 -0.08
 H  1.58  1.20  1.49
 H -0.01  1.73  0.88
 N -1.17 -0.22  2.07
 C -2.01 -1.32  2.56
 C -3.44 -0.84  2.87
 O -4.38 -1.59  2.62
 H -1.67  0.61  1.75
 H -2.17 -2.02  1.73
 C -1.45 -2.19  3.71
 C -1.08 -1.55  5.05
 C  0.24 -0.75  5.08
 N  1.41 -1.49  4.67
 C  2.04 -2.41  5.50
 N  2.97 -3.19  4.82
 N  1.85 -2.61  6.76
 H -0.58 -2.74  3.32
 H -2.23 -2.94  3.88
 H -0.99 -2.37  5.78
 H -1.90 -0.92  5.43
 H  0.41 -0.37  6.10
 H  0.17  0.14  4.44
 H  1.46 -1.68  3.67
 H  3.56 -3.70  5.47
 H  3.50 -2.71  4.10
 H  1.07 -2.07  7.12
 N -3.68  0.43  3.37
 C -2.83  1.33  4.13
 H -4.68  0.57  3.48
 H -3.02  1.25  5.21
 H -3.02  2.37  3.83
 H -1.77  1.11  3.96
