35
#
 C  0.89  0.81  2.07
 C -0.03 -0.36  1.80
 O  0.37 -1.52  1.78
 H  1.92  0.45  2.07
 H  0.68  1.27  3.04
 H  0.78  1.60  1.32
 N -1.35 -0.08  1.58
 C -2.03  1.20  1.73
 C -2.04  1.79  3.16
 O -1.82  2.99  3.33
 H -1.92 -0.91  1.43
 H -1.50  1.97  1.15
 C -3.46  1.10  1.16
 C -4.21  2.42  1.10
 C -5.64  2.25  0.56
 N -6.39  3.49  0.42
 C -6.06  4.46 -0.53
 N -5.62  3.94 -1.74
 N -6.13  5.74 -0.38
 H -3.37  0.67  0.15
 H -4.04  0.37  1.75
 H -4.25  2.89  2.09
 H -3.67  3.13  0.45
 H -6.22  1.59  1.23
 H -5.61  1.74 -0.41
 H -6.64  3.92  1.31
 H -6.14  3.14 -2.09
 H -5.54  4.68 -2.44
 H -6.32  6.00  0.59
 N -2.30  0.98  4.23
 C -2.58 -0.45  4.30
 H -2.25  1.48  5.11
 H -2.96 -0.67  5.31
 H -3.36 -0.75  3.59
 H -1.69 -1.07  4.13
