35
#
 C  0.70 -0.47  0.76
 C -0.04  0.36  1.79
 O  0.32  1.50  2.09
 H  1.38  0.19  0.23
 H  0.03 -0.97  0.05
 H  1.28 -1.26  1.25
 N -1.14 -0.19  2.42
 C -1.80 -1.49  2.23
 C -0.81 -2.67  2.37
 O -0.60 -3.46  1.46
 H -1.57  0.46  3.07
 H -2.49 -1.56  3.09
 C -2.65 -1.58  0.94
 C -3.94 -2.39  1.09
 C -3.75 -3.89  1.34
 N -5.04 -4.56  1.43
 C -5.22 -5.86  1.86
 N -4.09 -6.45  2.44
 N -6.33 -6.53  1.84
 H -2.03 -2.01  0.14
 H -2.91 -0.56  0.65
 H -4.53 -2.26  0.17
 H -4.55 -1.98  1.91
 H -3.22 -4.05  2.29
 H -3.10 -4.31  0.54
 H -5.75 -4.23  0.78
 H -4.26 -7.43  2.64
 H -3.20 -6.29  1.97
 H -7.10 -5.95  1.52
 N -0.16 -2.79  3.57
 C -0.27 -1.96  4.76
 H  0.49 -3.56  3.59
 H  0.13 -2.51  5.61
 H -1.32 -1.72  4.99
 H  0.28 -1.01  4.66
