35
#
 C  0.04 -0.13  0.03
 C  0.10 -0.21  1.55
 O  1.17 -0.35  2.14
 H  0.95  0.37 -0.31
 H -0.84  0.37 -0.39
 H  0.08 -1.16 -0.36
 N -1.08 -0.15  2.26
 C -2.46  0.03  1.82
 C -3.04  1.21  2.63
 O -3.68  1.03  3.66
 H -0.93 -0.25  3.26
 H -2.45  0.30  0.76
 C -3.32 -1.23  2.03
 C -2.88 -2.46  1.23
 C -3.51 -2.60 -0.17
 N -3.20 -1.53 -1.11
 C -3.94 -0.38 -1.27
 N -5.32 -0.54 -1.17
 N -3.31  0.74 -1.46
 H -4.36 -0.97  1.80
 H -3.30 -1.45  3.11
 H -3.15 -3.37  1.79
 H -1.78 -2.49  1.14
 H -4.60 -2.66 -0.06
 H -3.19 -3.56 -0.61
 H -2.21 -1.34 -1.23
 H -5.86  0.28 -1.41
 H -5.70 -1.40 -1.55
 H -3.96  1.49 -1.74
 N -2.78  2.47  2.16
 C -1.93  2.85  1.04
 H -3.09  3.20  2.80
 H -2.12  3.91  0.81
 H -2.17  2.27  0.15
 H -0.86  2.74  1.27
