35
#
 C  0.43 -0.20  0.26
 C  0.28  0.10  1.74
 O  1.25  0.10  2.50
 H -0.50 -0.12 -0.31
 H  0.83 -1.21  0.14
 H  1.17  0.50 -0.16
 N -1.00  0.37  2.15
 C -1.50  0.56  3.52
 C -1.64  2.01  4.05
 O -2.48  2.18  4.93
 H -1.71  0.36  1.43
 H -2.56  0.29  3.44
 C -0.89 -0.44  4.56
 C -0.28  0.13  5.85
 C  1.05  0.85  5.66
 N  1.50  1.40  6.93
 C  2.66  2.17  6.98
 N  2.84  2.79  8.22
 N  3.53  2.35  6.04
 H -0.13 -1.04  4.04
 H -1.69 -1.13  4.84
 H -0.13 -0.71  6.55
 H -1.01  0.81  6.32
 H  0.96  1.64  4.90
 H  1.81  0.14  5.28
 H  0.76  1.75  7.53
 H  3.76  3.21  8.28
 H  2.65  2.19  9.02
 H  3.22  1.94  5.16
 N -0.93  3.06  3.56
 C  0.21  3.13  2.65
 H -1.21  3.92  4.01
 H -0.10  3.13  1.59
 H  0.73  4.08  2.84
 H  0.92  2.32  2.82
