35
#
 C  0.22 -0.09  0.08
 C -0.48  0.77  1.11
 O -0.32  1.99  1.19
 H -0.05  0.27 -0.92
 H -0.02 -1.16  0.15
 H  1.30  0.05  0.19
 N -1.31  0.10  1.97
 C -2.07  0.77  3.01
 C -1.26  1.33  4.19
 O -1.66  2.35  4.76
 H -1.41 -0.91  1.87
 H -2.52  1.67  2.57
 C -3.20 -0.16  3.51
 C -4.24  0.50  4.44
 C -4.19  0.08  5.92
 N -2.97  0.43  6.62
 C -2.03 -0.48  7.06
 N -0.92  0.15  7.64
 N -2.04 -1.77  6.99
 H -2.75 -1.04  4.01
 H -3.70 -0.55  2.61
 H -5.25  0.25  4.08
 H -4.15  1.59  4.38
 H -4.33 -1.01  6.00
 H -5.05  0.54  6.43
 H -2.60  1.36  6.39
 H -0.36 -0.54  8.16
 H -1.15  0.95  8.22
 H -2.84 -2.12  6.46
 N -0.17  0.66  4.65
 C  0.32 -0.67  4.34
 H  0.15  1.04  5.54
 H -0.48 -1.42  4.30
 H  0.99 -0.98  5.16
 H  0.89 -0.70  3.40
