35
#
 C  0.45  0.24  0.08
 C  0.10 -0.10  1.52
 O  0.93 -0.59  2.29
 H  1.31  0.92  0.08
 H -0.38  0.70 -0.48
 H  0.76 -0.68 -0.43
 N -1.18  0.19  1.89
 C -1.70 -0.14  3.21
 C -2.59 -1.40  3.09
 O -3.68 -1.33  2.52
 H -1.85  0.46  1.19
 H -0.81 -0.34  3.82
 C -2.50  1.03  3.80
 C -3.11  0.75  5.17
 C -2.08  0.48  6.28
 N -2.68  0.18  7.57
 C -2.87 -1.09  8.10
 N -2.82 -2.12  7.15
 N -3.06 -1.39  9.34
 H -3.31  1.27  3.10
 H -1.83  1.90  3.84
 H -3.82 -0.09  5.10
 H -3.72  1.62  5.47
 H -1.42  1.35  6.40
 H -1.43 -0.37  6.00
 H -2.70  0.92  8.26
 H -3.09 -2.99  7.58
 H -3.31 -1.95  6.28
 H -2.94 -0.58  9.95
 N -2.12 -2.57  3.61
 C -0.82 -2.85  4.22
 H -2.76 -3.34  3.47
 H -0.84 -2.69  5.31
 H -0.03 -2.25  3.76
 H -0.58 -3.91  4.04
