35
#
 C -0.24  0.51 -0.18
 C -0.10  0.33  1.33
 O  0.94  0.59  1.92
 H  0.01  1.55 -0.43
 H -1.25  0.28 -0.56
 H  0.49 -0.14 -0.68
 N -1.22 -0.14  1.97
 C -1.20 -0.54  3.38
 C -2.41 -1.42  3.72
 O -2.29 -2.41  4.44
 H -1.95 -0.54  1.39
 H -0.31 -1.16  3.56
 C -1.13  0.68  4.32
 C -0.98  0.29  5.81
 C -2.08  0.85  6.72
 N -3.45  0.51  6.30
 C -4.17 -0.54  6.88
 N -3.42 -1.67  7.16
 N -5.43 -0.35  7.09
 H -2.05  1.28  4.18
 H -0.29  1.30  3.99
 H -0.01  0.66  6.19
 H -0.94 -0.80  5.91
 H -2.02  1.94  6.73
 H -1.90  0.50  7.75
 H -4.06  1.30  6.20
 H -2.80 -1.98  6.41
 H -3.98 -2.44  7.52
 H -5.89 -1.22  7.37
 N -3.60 -1.00  3.20
 C -4.86 -1.61  3.58
 H -3.63 -0.06  2.82
 H -4.66 -2.64  3.90
 H -5.54 -1.63  2.72
 H -5.34 -1.08  4.41
