35
#
 C -1.28  0.69 -0.37
 C -1.33 -0.18  0.87
 O -1.39 -1.41  0.81
 H -0.32  0.51 -0.89
 H -1.37  1.77 -0.17
 H -2.08  0.39 -1.05
 N -1.30  0.49  2.06
 C -1.25 -0.20  3.34
 C -2.47 -1.06  3.73
 O -2.28 -2.05  4.44
 H -1.23  1.50  2.05
 H -0.44 -0.94  3.30
 C -0.95  0.79  4.48
 C  0.42  1.47  4.38
 C  0.72  2.33  5.62
 N  2.01  3.03  5.58
 C  3.22  2.35  5.53
 N  3.27  1.21  6.33
 N  4.16  2.80  4.77
 H -1.01  0.22  5.42
 H -1.75  1.55  4.53
 H  0.49  2.10  3.48
 H  1.20  0.70  4.28
 H  0.68  1.70  6.52
 H -0.05  3.10  5.75
 H  2.04  3.80  4.92
 H  4.20  0.81  6.44
 H  2.76  1.26  7.21
 H  5.04  2.31  4.92
 N -3.74 -0.69  3.37
 C -4.23  0.42  2.58
 H -4.42 -1.38  3.68
 H -4.06  0.29  1.50
 H -3.77  1.37  2.88
 H -5.30  0.51  2.75
