35
#
 C  0.12 -0.76  1.43
 C -0.28  0.29  2.45
 O  0.54  0.80  3.22
 H  1.20 -0.90  1.51
 H -0.13 -0.46  0.41
 H -0.38 -1.72  1.63
 N -1.60  0.67  2.50
 C -2.75  0.18  1.74
 C -3.54  1.42  1.26
 O -4.52  1.83  1.87
 H -1.79  1.35  3.24
 H -2.36 -0.36  0.87
 C -3.67 -0.74  2.55
 C -2.99 -2.03  3.02
 C -3.93 -2.88  3.88
 N -3.27 -4.12  4.27
 C -3.86 -5.12  5.02
 N -5.25 -5.19  4.92
 N -3.09 -5.95  5.64
 H -4.54 -0.98  1.93
 H -4.06 -0.17  3.41
 H -2.09 -1.79  3.61
 H -2.66 -2.63  2.16
 H -4.82 -3.13  3.29
 H -4.26 -2.28  4.75
 H -2.28 -4.05  4.49
 H -5.68 -5.76  5.64
 H -5.75 -4.32  4.77
 H -3.63 -6.69  6.10
 N -3.08  2.06  0.14
 C -1.86  1.79 -0.61
 H -3.59  2.91 -0.07
 H -0.95  1.99 -0.03
 H -1.85  2.45 -1.49
 H -1.83  0.76 -0.98
