35
#
 C -0.80  0.12 -0.62
 C -0.46  0.51  0.80
 O  0.68  0.84  1.13
 H -0.12  0.65 -1.29
 H -1.84  0.34 -0.91
 H -0.63 -0.96 -0.75
 N -1.45  0.48  1.75
 C -2.85  0.08  1.61
 C -3.80  0.68  2.67
 O -4.94  0.97  2.32
 H -1.10  0.72  2.66
 H -3.24  0.54  0.69
 C -3.08 -1.45  1.47
 C -2.45 -2.31  2.55
 C -2.49 -3.82  2.25
 N -2.00 -4.22  0.93
 C -0.77 -3.81  0.41
 N  0.23 -3.67  1.35
 N -0.52 -3.54 -0.83
 H -2.67 -1.74  0.49
 H -4.17 -1.61  1.41
 H -2.95 -2.16  3.52
 H -1.39 -2.02  2.68
 H -3.53 -4.19  2.30
 H -1.94 -4.36  3.03
 H -2.72 -4.26  0.21
 H  1.14 -3.50  0.92
 H  0.26 -4.37  2.08
 H -1.37 -3.56 -1.40
 N -3.43  0.84  3.98
 C -2.20  0.56  4.70
 H -4.18  1.27  4.51
 H -2.44  0.43  5.76
 H -1.47  1.39  4.62
 H -1.73 -0.37  4.36
