35
#
 C -1.71  1.71  0.56
 C -0.87  0.50  0.91
 O -0.09 -0.02  0.09
 H -2.74  1.61  0.92
 H -1.70  1.83 -0.52
 H -1.28  2.60  1.03
 N -0.97 -0.00  2.18
 C -1.74  0.48  3.31
 C -1.34  1.85  3.92
 O -2.17  2.42  4.64
 H -0.38 -0.81  2.32
 H -2.78  0.62  3.01
 C -1.75 -0.59  4.43
 C -0.51 -0.77  5.33
 C  0.77 -1.43  4.75
 N  1.75 -0.50  4.18
 C  1.94 -0.23  2.84
 N  1.92 -1.31  1.97
 N  2.15  1.00  2.48
 H -2.03 -1.55  3.98
 H -2.58 -0.31  5.10
 H -0.83 -1.40  6.17
 H -0.24  0.20  5.78
 H  0.50 -2.17  3.99
 H  1.26 -1.99  5.56
 H  1.90  0.34  4.73
 H  1.51 -1.13  1.05
 H  1.86 -2.25  2.34
 H  2.44  1.05  1.50
 N -0.12  2.34  3.64
 C  0.32  3.60  4.22
 H  0.60  1.82  3.10
 H  1.38  3.73  3.97
 H  0.19  3.60  5.31
 H -0.26  4.45  3.82
