35
#
 C  0.97 -1.58  1.12
 C  0.78 -0.25  1.84
 O  1.69  0.57  1.92
 H  1.45 -2.29  1.80
 H  1.65 -1.40  0.28
 H  0.03 -2.02  0.75
 N -0.45  0.01  2.39
 C -1.52 -0.91  2.69
 C -2.76 -0.06  3.04
 O -2.66  1.09  3.47
 H -0.55  0.93  2.82
 H -1.76 -1.52  1.80
 C -1.17 -1.87  3.86
 C -0.90 -1.16  5.19
 C  0.15 -1.86  6.07
 N  1.50 -1.80  5.50
 C  2.07 -2.79  4.71
 N  1.65 -4.09  5.01
 N  2.93 -2.62  3.77
 H -0.28 -2.43  3.55
 H -1.97 -2.62  3.98
 H -1.83 -1.05  5.76
 H -0.55 -0.13  5.00
 H -0.12 -2.91  6.22
 H  0.16 -1.39  7.06
 H  1.79 -0.87  5.22
 H  2.23 -4.76  4.51
 H  1.58 -4.31  6.00
 H  3.06 -1.63  3.55
 N -3.95 -0.70  2.89
 C -5.22 -0.10  3.24
 H -3.95 -1.64  2.50
 H -5.87  0.00  2.36
 H -5.02  0.90  3.64
 H -5.75 -0.69  4.01
