35
#
 C  0.47  1.12  1.50
 C  0.10 -0.03  2.41
 O  0.92 -0.88  2.74
 H  1.51  0.98  1.19
 H  0.38  2.10  1.99
 H -0.18  1.12  0.61
 N -1.18 -0.12  2.92
 C -2.43  0.58  2.65
 C -3.01  0.24  1.26
 O -2.31 -0.10  0.31
 H -1.28 -0.98  3.46
 H -3.12  0.15  3.39
 C -2.41  2.12  2.93
 C -2.39  3.06  1.72
 C -2.23  4.52  2.15
 N -1.98  5.44  1.05
 C -0.72  5.53  0.50
 N -0.63  6.42 -0.58
 N  0.27  4.90  1.04
 H -1.52  2.31  3.55
 H -3.27  2.37  3.56
 H -3.32  2.95  1.13
 H -1.57  2.81  1.04
 H -1.37  4.61  2.82
 H -3.12  4.87  2.69
 H -2.76  5.61  0.42
 H  0.11  6.20 -1.24
 H -1.50  6.69 -1.03
 H  1.16  5.15  0.61
 N -4.37  0.33  1.13
 C -5.36  0.79  2.09
 H -4.69  0.15  0.18
 H -5.19  0.36  3.08
 H -6.35  0.46  1.76
 H -5.38  1.89  2.19
