35
#
 C  0.87 -0.59  0.02
 C  0.30 -0.42  1.41
 O  0.59  0.53  2.14
 H  1.95 -0.46  0.06
 H  0.46  0.21 -0.62
 H  0.63 -1.56 -0.43
 N -0.59 -1.40  1.79
 C -1.20 -1.41  3.10
 C -0.52 -2.49  3.97
 O -0.67 -3.71  3.77
 H -0.68 -2.22  1.19
 H -0.96 -0.43  3.52
 C -2.76 -1.53  3.10
 C -3.48 -2.12  1.87
 C -3.49 -3.65  1.72
 N -2.19 -4.24  1.45
 C -1.64 -4.18  0.19
 N -0.25 -4.43  0.20
 N -2.33 -3.84 -0.85
 H -3.14 -0.51  3.23
 H -3.06 -2.08  4.01
 H -3.09 -1.67  0.95
 H -4.53 -1.80  1.94
 H -4.15 -3.91  0.89
 H -3.88 -4.12  2.63
 H -1.55 -4.23  2.25
 H  0.11 -4.75 -0.70
 H  0.07 -5.03  0.96
 H -1.77 -3.89 -1.70
 N  0.30 -2.06  4.96
 C  0.65 -0.69  5.33
 H  0.72 -2.82  5.49
 H  1.57 -0.73  5.93
 H -0.13 -0.22  5.95
 H  0.84 -0.07  4.45
