35
#
 C -0.52 -0.78  0.38
 C -0.29 -0.45  1.85
 O  0.77 -0.71  2.42
 H -0.66  0.13 -0.21
 H -1.43 -1.39  0.25
 H  0.34 -1.33  0.01
 N -1.31  0.17  2.51
 C -2.59  0.62  1.98
 C -2.57  1.83  1.01
 O -3.49  1.93  0.20
 H -1.09  0.37  3.49
 H -3.01 -0.17  1.36
 C -3.59  0.87  3.13
 C -3.28  2.04  4.06
 C -4.26  2.14  5.24
 N -4.16  1.01  6.16
 C -5.17  0.07  6.25
 N -4.97 -0.82  7.31
 N -6.16  0.08  5.42
 H -3.67 -0.06  3.71
 H -4.58  1.03  2.67
 H -3.32  2.99  3.50
 H -2.26  1.96  4.47
 H -5.29  2.17  4.87
 H -4.07  3.07  5.79
 H -3.67  1.19  7.03
 H -4.00 -1.10  7.47
 H -5.58 -1.63  7.29
 H -6.77 -0.72  5.56
 N -1.57  2.76  1.04
 C -0.42  2.94  1.91
 H -1.71  3.47  0.32
 H -0.01  3.94  1.73
 H  0.38  2.21  1.73
 H -0.69  2.89  2.97
