35
#
 C  0.28  0.55  0.71
 C  0.03 -0.36  1.90
 O  0.73 -1.37  2.09
 H -0.65  0.91  0.26
 H  0.86  0.00 -0.03
 H  0.86  1.42  1.04
 N -1.00 -0.06  2.74
 C -1.58  1.25  2.94
 C -0.52  2.30  3.33
 O  0.47  2.01  4.00
 H -0.96 -0.61  3.62
 H -2.07  1.58  2.00
 C -2.69  1.20  4.03
 C -2.25  1.14  5.51
 C -1.82 -0.21  6.09
 N -0.62 -0.74  5.45
 C -0.21 -2.05  5.71
 N  0.95 -2.37  5.01
 N -0.90 -2.79  6.52
 H -3.34  0.34  3.80
 H -3.30  2.10  3.90
 H -3.12  1.46  6.11
 H -1.47  1.89  5.70
 H -2.61 -0.96  5.96
 H -1.68 -0.11  7.18
 H  0.14 -0.07  5.34
 H  1.21 -3.35  5.09
 H  0.99 -2.03  4.04
 H -0.56 -3.75  6.51
 N -0.79  3.57  2.92
 C  0.04  4.71  3.25
 H -1.61  3.72  2.34
 H -0.51  5.46  3.83
 H  0.44  5.19  2.34
 H  0.88  4.34  3.85
