35
#
 C  0.46  0.64 -0.03
 C  0.24  0.18  1.40
 O  1.00 -0.61  1.96
 H  1.49  1.00 -0.14
 H -0.24  1.42 -0.36
 H  0.35 -0.23 -0.69
 N -0.85  0.72  2.03
 C -1.25  0.30  3.37
 C -2.79  0.40  3.46
 O -3.50 -0.59  3.27
 H -1.46  1.34  1.51
 H -1.02 -0.77  3.45
 C -0.48  1.07  4.46
 C -0.85  0.63  5.88
 C -0.40  1.61  6.97
 N -0.82  3.01  6.77
 C -2.14  3.34  6.44
 N -3.10  2.62  7.13
 N -2.52  4.22  5.56
 H -0.65  2.15  4.32
 H  0.59  0.91  4.27
 H -0.41 -0.36  6.09
 H -1.94  0.51  5.96
 H  0.70  1.64  7.04
 H -0.75  1.26  7.95
 H -0.16  3.55  6.21
 H -4.03  3.00  7.01
 H -2.88  2.35  8.08
 H -1.71  4.61  5.06
 N -3.31  1.64  3.71
 C -4.73  1.83  3.88
 H -2.71  2.39  4.05
 H -4.91  2.89  4.11
 H -5.12  1.21  4.70
 H -5.28  1.56  2.97
