35
#
 C -2.77  2.31  1.29
 C -1.87  1.26  1.88
 O -0.90  0.79  1.25
 H -3.47  2.74  2.01
 H -3.34  1.87  0.47
 H -2.15  3.11  0.87
 N -2.16  0.86  3.15
 C -1.54 -0.23  3.91
 C -0.12  0.08  4.45
 O  0.14 -0.12  5.63
 H -2.95  1.32  3.59
 H -2.14 -0.32  4.82
 C -1.56 -1.59  3.19
 C -2.96 -2.19  2.93
 C -3.37 -2.29  1.45
 N -3.80 -1.01  0.88
 C -3.56 -0.68 -0.46
 N -2.26 -0.93 -0.89
 N -4.54 -0.16 -1.14
 H -0.99 -2.27  3.84
 H -1.00 -1.52  2.25
 H -3.73 -1.62  3.47
 H -3.00 -3.21  3.34
 H -4.18 -3.03  1.35
 H -2.53 -2.66  0.85
 H -4.76 -0.77  1.10
 H -1.55 -0.59 -0.24
 H -2.09 -0.61 -1.83
 H -4.21  0.19 -2.04
 N  0.77  0.52  3.52
 C  2.15  0.82  3.86
 H  0.44  0.62  2.56
 H  2.40  1.86  3.60
 H  2.84  0.16  3.32
 H  2.28  0.68  4.93
