35
#
 C  0.24 -0.14  0.19
 C -0.46 -0.56  1.47
 O -0.47 -1.73  1.87
 H -0.14 -0.76 -0.63
 H  0.09  0.92 -0.06
 H  1.31 -0.35  0.28
 N -1.04  0.45  2.18
 C -1.81  0.20  3.38
 C -2.76  1.40  3.53
 O -2.57  2.45  2.91
 H -1.16  1.39  1.79
 H -2.41 -0.71  3.21
 C -0.94 -0.06  4.65
 C  0.41  0.65  4.70
 C  0.36  2.19  4.74
 N  1.66  2.84  4.75
 C  2.45  3.05  3.63
 N  1.83  2.78  2.41
 N  3.65  3.54  3.62
 H -0.76 -1.14  4.70
 H -1.53  0.20  5.55
 H  1.02  0.33  3.84
 H  0.95  0.29  5.59
 H -0.18  2.51  5.65
 H -0.22  2.59  3.90
 H  2.17  2.84  5.62
 H  2.50  2.86  1.65
 H  1.28  1.92  2.36
 H  3.93  3.83  4.56
 N -3.82  1.27  4.38
 C -4.24  0.11  5.15
 H -4.37  2.12  4.46
 H -5.34  0.11  5.21
 H -3.84  0.11  6.17
 H -3.93 -0.81  4.66
