35
#
 C -1.31 -0.27 -0.17
 C -0.73  0.30  1.11
 O  0.34  0.90  1.12
 H -1.86  0.53 -0.69
 H -2.00 -1.11 -0.01
 H -0.49 -0.59 -0.82
 N -1.50  0.05  2.23
 C -1.45  0.71  3.53
 C -1.96  2.17  3.42
 O -1.91  2.80  2.36
 H -2.40 -0.36  2.02
 H -2.21  0.18  4.12
 C -0.15  0.51  4.35
 C  1.20  1.14  3.95
 C  1.20  2.65  3.70
 N  0.61  3.38  4.81
 C  0.14  4.69  4.75
 N -0.25  5.12  3.49
 N  0.12  5.37  5.85
 H  0.00 -0.58  4.40
 H -0.38  0.83  5.37
 H  1.58  0.66  3.04
 H  1.90  0.91  4.76
 H  0.64  2.85  2.78
 H  2.24  2.98  3.50
 H  1.04  3.22  5.72
 H -0.75  6.00  3.50
 H -0.66  4.43  2.86
 H -0.32  6.28  5.71
 N -2.57  2.72  4.51
 C -2.54  2.28  5.90
 H -2.80  3.69  4.36
 H -1.60  2.57  6.40
 H -3.38  2.73  6.43
 H -2.66  1.19  5.97
