35
#
 C -0.00  1.20 -0.37
 C  0.21  0.08  0.63
 O  1.08 -0.78  0.46
 H  0.88  1.25 -1.01
 H -0.17  2.18  0.10
 H -0.88  0.97 -0.99
 N -0.60  0.02  1.74
 C -1.69  0.90  2.16
 C -2.75  1.04  1.04
 O -3.17  0.06  0.45
 H -0.45 -0.83  2.28
 H -2.23  0.32  2.93
 C -1.20  2.19  2.83
 C -0.25  1.94  4.01
 C  0.17  3.22  4.73
 N -0.97  3.87  5.36
 C -0.90  5.20  5.79
 N -2.04  5.57  6.51
 N  0.04  6.06  5.60
 H -2.07  2.76  3.20
 H -0.68  2.84  2.10
 H  0.66  1.43  3.65
 H -0.72  1.25  4.73
 H  0.59  3.93  3.99
 H  0.98  3.00  5.45
 H -1.49  3.27  5.99
 H -2.03  6.57  6.71
 H -2.92  5.27  6.11
 H  0.88  5.62  5.20
 N -3.19  2.31  0.79
 C -4.19  2.60 -0.22
 H -2.76  3.08  1.28
 H -3.76  3.15 -1.07
 H -5.02  3.19  0.20
 H -4.58  1.64 -0.59
