35
#
 C -1.89  1.44 -0.91
 C -1.06  1.13  0.31
 O  0.03  1.66  0.53
 H -1.38  2.21 -1.49
 H -2.90  1.79 -0.65
 H -2.01  0.53 -1.53
 N -1.56  0.19  1.18
 C -2.87 -0.44  1.16
 C -4.02  0.40  1.77
 O -5.11  0.42  1.20
 H -0.94  0.00  1.96
 H -3.18 -0.55  0.11
 C -2.83 -1.86  1.78
 C -2.46 -2.95  0.77
 C -1.03 -2.86  0.20
 N -0.82 -3.68 -0.98
 C -1.25 -3.23 -2.21
 N -1.12 -4.20 -3.21
 N -1.75 -2.05 -2.35
 H -3.83 -2.08  2.18
 H -2.14 -1.87  2.64
 H -3.16 -2.89 -0.08
 H -2.60 -3.94  1.24
 H -0.29 -3.15  0.96
 H -0.80 -1.83 -0.10
 H -0.89 -4.69 -0.85
 H -1.28 -3.85 -4.15
 H -0.27 -4.76 -3.16
 H -1.91 -1.83 -3.33
 N -3.82  1.09  2.94
 C -2.65  1.16  3.80
 H -4.64  1.61  3.22
 H -2.24  0.17  4.02
 H -2.97  1.59  4.76
 H -1.86  1.80  3.39
