35
#
 C -0.24 -2.45 -1.26
 C  0.40 -1.43 -0.33
 O  1.61 -1.25 -0.30
 H  0.51 -3.23 -1.46
 H -0.47 -1.96 -2.22
 H -1.16 -2.90 -0.88
 N -0.43 -0.70  0.50
 C -1.89 -0.61  0.51
 C -2.58 -1.93  0.95
 O -3.67 -2.27  0.50
 H  0.08  0.03  0.99
 H -2.12  0.10  1.33
 C -2.53 -0.04 -0.77
 C -3.91  0.60 -0.54
 C -4.99  0.03 -1.48
 N -6.34  0.49 -1.20
 C -7.07 -0.01 -0.12
 N -8.25  0.71  0.09
 N -6.78 -1.00  0.65
 H -2.61 -0.84 -1.52
 H -1.83  0.70 -1.18
 H -3.86  1.69 -0.67
 H -4.24  0.43  0.49
 H -4.98 -1.06 -1.41
 H -4.76  0.29 -2.52
 H -6.52  1.47 -1.40
 H -8.83  0.23  0.78
 H -8.78  0.90 -0.76
 H -5.84 -1.38  0.49
 N -1.90 -2.63  1.90
 C -2.39 -3.88  2.46
 H -0.96 -2.31  2.12
 H -3.42 -4.01  2.13
 H -2.35 -3.85  3.55
 H -1.79 -4.73  2.11
