35
#
 C -0.90  1.56 -0.58
 C -0.51  0.93  0.74
 O  0.63  1.05  1.19
 H -0.67  0.85 -1.40
 H -0.27  2.44 -0.73
 H -1.95  1.84 -0.67
 N -1.42  0.15  1.41
 C -2.86 -0.08  1.24
 C -3.30 -0.28 -0.22
 O -4.19  0.38 -0.74
 H -1.02 -0.21  2.28
 H -3.04 -1.06  1.72
 C -3.75  0.93  1.99
 C -3.59  2.40  1.61
 C -4.69  3.29  2.20
 N -6.06  2.82  1.97
 C -6.77  3.05  0.78
 N -6.03  2.86 -0.37
 N -8.01  3.40  0.70
 H -3.55  0.81  3.07
 H -4.80  0.63  1.83
 H -3.60  2.51  0.52
 H -2.62  2.79  1.95
 H -4.55  4.32  1.81
 H -4.56  3.34  3.29
 H -6.66  2.97  2.78
 H -6.61  2.96 -1.19
 H -5.43  2.04 -0.41
 H -8.39  3.66  1.62
 N -2.68 -1.28 -0.92
 C -1.66 -2.22 -0.49
 H -3.02 -1.36 -1.87
 H -1.69 -3.09 -1.15
 H -1.85 -2.57  0.53
 H -0.65 -1.79 -0.52
