35
#
 C -1.39  2.70  0.96
 C -0.45  1.54  1.23
 O  0.70  1.71  1.65
 H -0.90  3.62  1.28
 H -2.35  2.58  1.48
 H -1.62  2.77 -0.12
 N -0.93  0.27  1.01
 C -2.22 -0.11  0.44
 C -3.38 -0.20  1.46
 O -4.54 -0.34  1.07
 H -0.24 -0.46  1.15
 H -2.54  0.67 -0.26
 C -2.10 -1.41 -0.37
 C -1.71 -2.68  0.41
 C -2.91 -3.45  1.00
 N -2.54 -4.57  1.84
 C -2.11 -4.39  3.15
 N -1.64 -5.58  3.73
 N -2.09 -3.30  3.84
 H -1.35 -1.22 -1.16
 H -3.06 -1.57 -0.88
 H -1.00 -2.44  1.23
 H -1.16 -3.36 -0.25
 H -3.53 -3.82  0.18
 H -3.56 -2.78  1.59
 H -2.11 -5.36  1.36
 H -1.46 -5.45  4.72
 H -2.21 -6.39  3.55
 H -2.33 -2.50  3.25
 N -3.02 -0.14  2.77
 C -3.98 -0.19  3.86
 H -2.04  0.02  2.97
 H -4.04  0.78  4.38
 H -3.70 -0.96  4.59
 H -4.96 -0.42  3.44
