35
#
 C  0.78 -0.91  1.95
 C -0.11  0.27  1.64
 O  0.34  1.32  1.18
 H  0.94 -0.99  3.03
 H  1.75 -0.73  1.47
 H  0.37 -1.87  1.62
 N -1.46  0.19  1.93
 C -2.36 -0.96  2.01
 C -1.81 -2.13  2.86
 O -1.67 -3.26  2.40
 H -1.92  1.06  1.65
 H -3.22 -0.59  2.59
 C -2.95 -1.39  0.66
 C -2.05 -1.92 -0.47
 C -1.09 -0.94 -1.19
 N -1.47  0.47 -1.28
 C -2.67  0.97 -1.74
 N -3.39  0.10 -2.56
 N -3.17  2.13 -1.47
 H -3.54 -0.54  0.28
 H -3.69 -2.18  0.88
 H -2.74 -2.32 -1.22
 H -1.46 -2.78 -0.11
 H -0.89 -1.35 -2.19
 H -0.11 -0.93 -0.69
 H -0.94  1.10 -0.68
 H -4.16  0.59 -3.01
 H -2.84 -0.44 -3.22
 H -2.60  2.63 -0.78
 N -1.54 -1.86  4.17
 C -1.67 -0.61  4.90
 H -1.19 -2.67  4.67
 H -1.71 -0.83  5.97
 H -2.60 -0.08  4.63
 H -0.83  0.08  4.72
