35
#
 C -0.48 -2.15  0.95
 C  0.28 -0.92  1.43
 O  1.47 -0.99  1.74
 H -1.18 -1.93  0.13
 H -1.06 -2.58  1.77
 H  0.25 -2.89  0.62
 N -0.41  0.26  1.52
 C -1.80  0.54  1.21
 C -1.89  2.06  0.96
 O -1.00  2.82  1.37
 H  0.14  1.07  1.79
 H -2.08  0.03  0.28
 C -2.78  0.05  2.31
 C -2.47  0.42  3.76
 C -2.53  1.92  4.11
 N -3.75  2.54  3.59
 C -3.91  3.89  3.30
 N -2.74  4.61  3.10
 N -5.05  4.50  3.20
 H -2.81 -1.05  2.25
 H -3.80  0.39  2.06
 H -1.47  0.05  4.04
 H -3.18 -0.13  4.40
 H -1.67  2.43  3.69
 H -2.45  2.04  5.21
 H -4.61  2.11  3.92
 H -1.97  4.15  2.61
 H -2.94  5.54  2.76
 H -5.82  3.90  3.50
 N -2.95  2.54  0.27
 C -4.17  1.85 -0.13
 H -2.98  3.55  0.25
 H -4.59  2.37 -1.00
 H -4.92  1.84  0.67
 H -3.95  0.82 -0.44
