35
#
 C -0.44  0.94  1.36
 C -1.24  1.33  2.59
 O -1.11  2.45  3.09
 H  0.14  0.03  1.53
 H  0.23  1.77  1.12
 H -1.10  0.76  0.49
 N -2.06  0.41  3.16
 C -2.72 -0.75  2.56
 C -1.68 -1.80  2.08
 O -0.90 -2.25  2.91
 H -2.60  0.78  3.95
 H -3.15 -1.29  3.42
 C -3.90 -0.34  1.66
 C -5.10  0.28  2.39
 C -4.92  1.63  3.10
 N -4.42  1.47  4.48
 C -4.18  2.64  5.27
 N -3.38  3.57  4.66
 N -4.65  2.83  6.46
 H -3.56  0.35  0.88
 H -4.28 -1.24  1.14
 H -5.90  0.42  1.64
 H -5.51 -0.45  3.12
 H -5.88  2.17  3.10
 H -4.21  2.27  2.55
 H -5.02  0.84  5.01
 H -2.58  3.21  4.11
 H -3.14  4.33  5.28
 H -5.34  2.12  6.71
 N -1.63 -2.28  0.79
 C -2.25 -1.85 -0.46
 H -0.93 -3.00  0.71
 H -2.24 -0.76 -0.57
 H -1.66 -2.27 -1.28
 H -3.28 -2.21 -0.57
