35
#
 C -1.04 -3.77  1.62
 C -0.29 -2.54  2.11
 O  0.70 -2.63  2.84
 H -1.20 -3.75  0.53
 H -2.02 -3.86  2.10
 H -0.45 -4.65  1.89
 N -0.74 -1.32  1.70
 C -2.06 -0.96  1.22
 C -1.90 -0.04 -0.00
 O -0.95  0.72 -0.10
 H -0.15 -0.54  1.97
 H -2.59 -1.88  0.95
 C -2.86 -0.19  2.30
 C -3.43 -0.99  3.48
 C -2.44 -1.67  4.46
 N -1.23 -0.94  4.79
 C -1.23  0.24  5.47
 N  0.06  0.79  5.61
 N -2.34  0.78  5.85
 H -3.71  0.31  1.81
 H -2.22  0.62  2.68
 H -4.11 -1.78  3.11
 H -4.04 -0.29  4.07
 H -2.12 -2.64  4.08
 H -3.00 -1.87  5.39
 H -0.37 -1.27  4.36
 H  0.11  1.53  6.31
 H  0.81  0.12  5.72
 H -2.17  1.63  6.39
 N -2.90 -0.09 -0.94
 C -4.06 -0.96 -0.97
 H -2.77  0.57 -1.70
 H -4.64 -0.73 -1.87
 H -4.72 -0.81 -0.10
 H -3.79 -2.02 -1.02
