35
#
 C  0.77 -0.66  0.43
 C  0.01 -1.15  1.65
 O  0.58 -1.52  2.67
 H  1.43  0.16  0.74
 H  0.12 -0.30 -0.38
 H  1.39 -1.47  0.06
 N -1.36 -1.13  1.54
 C -2.22 -1.75  2.56
 C -3.62 -2.03  2.00
 O -4.18 -3.11  2.17
 H -1.75 -1.03  0.61
 H -1.80 -2.74  2.81
 C -2.30 -0.89  3.84
 C -3.29 -1.41  4.89
 C -2.93 -2.80  5.46
 N -3.89 -3.33  6.41
 C -5.14 -3.81  6.07
 N -5.26 -4.35  4.80
 N -6.05 -3.80  7.00
 H -2.59  0.14  3.55
 H -1.29 -0.83  4.25
 H -4.31 -1.45  4.48
 H -3.33 -0.69  5.72
 H -1.95 -2.74  5.97
 H -2.79 -3.53  4.66
 H -3.91 -2.90  7.33
 H -4.68 -3.99  4.04
 H -6.22 -4.51  4.51
 H -6.91 -4.27  6.67
 N -4.20 -1.00  1.32
 C -5.56 -1.06  0.82
 H -3.74 -0.09  1.35
 H -5.64 -0.49 -0.11
 H -6.28 -0.67  1.55
 H -5.80 -2.11  0.63
