35
#
 C -0.86 -0.24  0.32
 C -0.90 -0.04  1.82
 O  0.07 -0.32  2.53
 H -1.49 -1.09  0.03
 H  0.18 -0.45  0.04
 H -1.22  0.64 -0.24
 N -2.05  0.41  2.41
 C -3.13  1.27  1.90
 C -3.65  0.87  0.50
 O -3.60  1.62 -0.47
 H -1.91  0.51  3.41
 H -3.98  1.07  2.57
 C -2.85  2.78  2.05
 C -1.69  3.46  1.30
 C -0.24  3.11  1.70
 N  0.01  2.75  3.08
 C -0.11  3.64  4.12
 N  0.17  3.05  5.37
 N -0.50  4.85  3.91
 H -2.72  2.97  3.13
 H -3.78  3.30  1.77
 H -1.83  4.53  1.49
 H -1.81  3.30  0.22
 H  0.39  3.97  1.43
 H  0.13  2.26  1.10
 H  0.22  1.78  3.28
 H  0.33  3.73  6.10
 H  0.91  2.35  5.36
 H -0.49  5.39  4.78
 N -4.23 -0.37  0.40
 C -4.54 -1.31  1.46
 H -4.61 -0.54 -0.52
 H -3.67 -1.47  2.11
 H -4.80 -2.27  1.01
 H -5.39 -0.99  2.08
