35
#
 C -0.27 -1.39  0.59
 C -0.22 -0.57  1.86
 O  0.76  0.08  2.20
 H  0.15 -2.38  0.82
 H  0.36 -0.91 -0.16
 H -1.28 -1.52  0.20
 N -1.37 -0.61  2.62
 C -1.52 -0.07  3.97
 C -0.68  1.19  4.26
 O  0.07  1.24  5.23
 H -2.09 -1.26  2.31
 H -2.57  0.26  4.04
 C -1.32 -1.15  5.05
 C  0.06 -1.84  5.03
 C  0.00 -3.34  5.36
 N -0.84 -4.14  4.47
 C -0.54 -4.32  3.13
 N -1.64 -4.79  2.39
 N  0.57 -4.09  2.52
 H -2.11 -1.90  4.87
 H -1.51 -0.70  6.03
 H  0.73 -1.33  5.74
 H  0.53 -1.71  4.05
 H -0.38 -3.49  6.38
 H  1.02 -3.76  5.35
 H -1.83 -4.10  4.68
 H -1.33 -5.10  1.48
 H -2.18 -5.51  2.86
 H  1.26 -3.65  3.12
 N -0.93  2.31  3.52
 C -1.68  2.43  2.28
 H -0.30  3.07  3.75
 H -1.11  2.10  1.40
 H -1.96  3.49  2.14
 H -2.61  1.85  2.33
