35
#
 C -0.76 -0.82  1.10
 C -0.94  0.40  1.97
 O  0.02  0.94  2.52
 H -1.66 -1.43  0.98
 H  0.04 -1.43  1.53
 H -0.43 -0.50  0.10
 N -2.22  0.90  2.15
 C -3.37  0.75  1.26
 C -4.09 -0.61  1.38
 O -4.79 -1.05  0.47
 H -2.18  1.78  2.66
 H -4.11  1.47  1.66
 C -3.11  1.12 -0.22
 C -2.20  2.35 -0.40
 C -2.74  3.64  0.23
 N -1.73  4.69  0.38
 C -1.19  5.03  1.61
 N -0.98  3.95  2.48
 N -0.96  6.28  1.85
 H -4.09  1.29 -0.69
 H -2.68  0.26 -0.74
 H -2.04  2.51 -1.47
 H -1.21  2.15  0.02
 H -3.17  3.44  1.22
 H -3.57  4.04 -0.38
 H -1.87  5.52 -0.18
 H -0.55  4.23  3.35
 H -0.49  3.14  2.09
 H -0.42  6.40  2.71
 N -3.93 -1.23  2.58
 C -4.56 -2.49  2.91
 H -3.29 -0.80  3.24
 H -5.21 -2.39  3.79
 H -3.82 -3.28  3.10
 H -5.18 -2.79  2.05
