35
#
 C -0.76  0.25 -0.55
 C  0.06  0.25  0.72
 O  1.26 -0.02  0.70
 H -0.13  0.61 -1.37
 H -1.69  0.83 -0.52
 H -1.05 -0.79 -0.77
 N -0.55  0.55  1.92
 C -1.92  0.94  2.25
 C -2.96  0.03  1.53
 O -2.73 -1.17  1.40
 H  0.10  0.44  2.69
 H -2.05  0.61  3.30
 C -2.09  2.48  2.29
 C -1.64  3.28  1.05
 C -2.68  3.55 -0.05
 N -3.61  4.63  0.26
 C -4.83  4.45  0.87
 N -5.50  5.65  1.09
 N -5.25  3.27  1.22
 H -1.48  2.82  3.14
 H -3.13  2.73  2.55
 H -0.77  2.78  0.60
 H -1.26  4.26  1.39
 H -3.27  2.65 -0.28
 H -2.15  3.83 -0.97
 H -3.21  5.55  0.35
 H -5.43  6.34  0.35
 H -6.45  5.54  1.42
 H -6.21  3.30  1.55
 N -4.12  0.61  1.15
 C -5.17 -0.20  0.56
 H -4.35  1.61  1.29
 H -5.97  0.47  0.22
 H -5.59 -0.92  1.29
 H -4.79 -0.78 -0.29
