35
#
 C -2.65 -0.71  1.28
 C -1.91  0.10  2.33
 O -1.85  1.33  2.30
 H -2.54 -0.22  0.31
 H -3.72 -0.72  1.54
 H -2.30 -1.75  1.21
 N -1.38 -0.64  3.36
 C -0.49 -0.04  4.34
 C  0.67 -1.03  4.52
 O  0.56 -2.21  4.18
 H -1.18 -1.63  3.22
 H -0.12  0.91  3.91
 C -1.15  0.27  5.70
 C -2.16  1.43  5.71
 C -3.60  1.08  5.28
 N -4.21  0.07  6.13
 C -4.80 -1.12  5.70
 N -4.37 -1.57  4.46
 N -5.68 -1.81  6.35
 H -0.35  0.51  6.42
 H -1.63 -0.65  6.09
 H -1.80  2.24  5.06
 H -2.21  1.84  6.73
 H -3.63  0.72  4.25
 H -4.20  2.00  5.30
 H -4.59  0.40  7.01
 H -4.70 -2.51  4.29
 H -3.38 -1.44  4.25
 H -6.01 -1.31  7.18
 N  1.80 -0.52  5.08
 C  2.97 -1.32  5.38
 H  1.82  0.47  5.29
 H  3.85 -0.94  4.84
 H  2.77 -2.34  5.05
 H  3.19 -1.33  6.45
