35
#
 C -0.32 -0.10 -0.02
 C -0.04  0.33  1.40
 O  1.10  0.55  1.81
 H  0.64 -0.23 -0.54
 H -0.91  0.65 -0.56
 H -0.88 -1.05 -0.06
 N -1.12  0.47  2.24
 C -2.53  0.36  1.90
 C -3.15  1.50  1.05
 O -4.18  1.24  0.42
 H -0.86  0.79  3.17
 H -2.66 -0.52  1.25
 C -3.37  0.10  3.16
 C -3.50  1.27  4.15
 C -4.69  2.20  3.86
 N -4.69  3.41  4.67
 C -4.15  4.62  4.24
 N -4.39  4.91  2.89
 N -3.50  5.48  4.94
 H -2.92 -0.77  3.66
 H -4.37 -0.22  2.83
 H -2.58  1.87  4.17
 H -3.61  0.87  5.17
 H -5.63  1.64  4.03
 H -4.70  2.50  2.81
 H -4.52  3.25  5.66
 H -4.15  5.87  2.69
 H -5.33  4.67  2.56
 H -3.27  5.10  5.87
 N -2.58  2.73  0.97
 C -1.51  3.37  1.74
 H -3.15  3.36  0.42
 H -1.65  3.27  2.82
 H -1.55  4.44  1.52
 H -0.52  3.00  1.47
