35
#
 C  1.27 -0.12  1.38
 C  0.37 -0.50  2.52
 O  0.73 -1.24  3.44
 H  1.94 -0.95  1.14
 H  1.88  0.73  1.74
 H  0.73  0.20  0.48
 N -0.89  0.06  2.50
 C -1.72  0.10  3.71
 C -3.14 -0.45  3.50
 O -4.03 -0.20  4.30
 H -1.03  0.81  1.83
 H -1.23 -0.63  4.38
 C -1.73  1.50  4.36
 C -1.44  1.53  5.87
 C -0.11  0.88  6.30
 N  1.05  1.10  5.43
 C  1.46  2.33  4.96
 N  1.25  3.39  5.84
 N  1.98  2.41  3.77
 H -2.71  1.97  4.19
 H -0.98  2.12  3.84
 H -1.45  2.58  6.18
 H -2.26  1.03  6.41
 H -0.22 -0.21  6.35
 H  0.12  1.20  7.33
 H  1.22  0.35  4.76
 H  1.32  3.17  6.83
 H  1.73  4.24  5.59
 H  2.37  3.34  3.61
 N -3.30 -1.24  2.40
 C -4.54 -1.93  2.11
 H -2.48 -1.40  1.83
 H -4.43 -3.02  2.22
 H -4.89 -1.70  1.09
 H -5.29 -1.58  2.83
