35
#
 C -1.14 -2.12 -0.04
 C -0.90 -1.95  1.45
 O -0.25 -2.76  2.10
 H -2.00 -1.54 -0.41
 H -1.30 -3.18 -0.26
 H -0.24 -1.79 -0.58
 N -1.40 -0.79  1.99
 C -1.42 -0.58  3.43
 C -2.83 -0.06  3.76
 O -3.53  0.46  2.88
 H -2.17 -0.31  1.52
 H -1.25 -1.56  3.89
 C -0.35  0.41  3.94
 C  1.09 -0.12  3.94
 C  1.84  0.00  2.61
 N  1.95  1.38  2.15
 C  1.66  1.82  0.87
 N  0.68  1.08  0.20
 N  2.30  2.84  0.41
 H -0.62  0.69  4.97
 H -0.41  1.34  3.36
 H  1.11 -1.17  4.26
 H  1.66  0.45  4.70
 H  1.36 -0.60  1.83
 H  2.85 -0.44  2.73
 H  2.72  1.92  2.53
 H  0.31  1.54 -0.62
 H -0.05  0.68  0.79
 H  1.91  3.16 -0.49
 N -3.27 -0.17  5.04
 C -2.61 -0.77  6.18
 H -4.18  0.26  5.18
 H -3.37 -1.21  6.84
 H -2.03 -0.04  6.76
 H -1.94 -1.57  5.87
