35
#
 C  0.53  1.12  1.20
 C  0.11 -0.33  1.38
 O  0.84 -1.24  0.99
 H  0.76  1.59  2.17
 H -0.23  1.74  0.72
 H  1.44  1.11  0.59
 N -1.07 -0.65  2.01
 C -2.26  0.05  2.54
 C -3.55 -0.45  1.85
 O -4.49 -0.85  2.54
 H -1.15 -1.67  2.07
 H -2.39 -0.30  3.57
 C -2.19  1.58  2.58
 C -3.36  2.21  3.33
 C -3.35  3.74  3.28
 N -2.16  4.37  3.84
 C -1.09  4.74  3.05
 N -0.01  5.22  3.82
 N -1.11  4.61  1.77
 H -2.15  2.01  1.57
 H -1.25  1.87  3.07
 H -3.36  1.87  4.38
 H -4.32  1.87  2.91
 H -4.23  4.13  3.81
 H -3.41  4.09  2.24
 H -1.94  4.15  4.80
 H  0.72  5.65  3.27
 H -0.28  5.81  4.61
 H -0.30  5.05  1.34
 N -3.65 -0.42  0.49
 C -2.68 -0.02 -0.53
 H -4.54 -0.80  0.17
 H -2.24  0.96 -0.31
 H -3.21  0.06 -1.48
 H -1.87 -0.75 -0.65
