35
#
 C -0.30  1.32 -0.75
 C  0.02  0.98  0.69
 O  1.14  1.21  1.16
 H  0.28  2.20 -1.03
 H -1.36  1.49 -0.95
 H  0.02  0.47 -1.37
 N -0.93  0.39  1.48
 C -2.33  0.06  1.26
 C -2.57 -0.63 -0.11
 O -1.76 -1.45 -0.54
 H -0.55  0.15  2.40
 H -2.54 -0.78  1.95
 C -3.29  1.19  1.70
 C -3.10  2.56  1.03
 C -4.21  3.55  1.38
 N -5.54  3.14  0.90
 C -5.70  2.88 -0.46
 N -5.40  3.96 -1.28
 N -6.07  1.70 -0.84
 H -3.17  1.32  2.78
 H -4.32  0.83  1.56
 H -3.06  2.46 -0.07
 H -2.13  2.98  1.33
 H -3.97  4.54  0.96
 H -4.29  3.69  2.47
 H -5.89  2.33  1.41
 H -5.59  3.85 -2.26
 H -5.59  4.88 -0.90
 H -6.32  1.68 -1.84
 N -3.73 -0.34 -0.76
 C -4.06 -1.03 -2.00
 H -4.40  0.36 -0.44
 H -5.11 -0.81 -2.24
 H -3.93 -2.11 -1.88
 H -3.42 -0.70 -2.83
