35
#
 C -0.51 -0.15 -0.07
 C -0.36  0.17  1.41
 O  0.66  0.66  1.87
 H  0.23 -0.91 -0.34
 H -0.28  0.75 -0.65
 H -1.51 -0.51 -0.35
 N -1.46 -0.11  2.18
 C -1.49  0.01  3.64
 C -0.84  1.32  4.15
 O  0.03  1.30  5.02
 H -2.25 -0.56  1.74
 H -2.56  0.08  3.91
 C -0.88 -1.21  4.34
 C -1.36 -1.40  5.78
 C -0.67 -2.57  6.46
 N -1.19 -2.75  7.81
 C -0.74 -3.75  8.66
 N  0.63 -4.02  8.56
 N -1.59 -4.35  9.43
 H  0.21 -1.11  4.31
 H -1.14 -2.10  3.74
 H -2.46 -1.58  5.78
 H -1.18 -0.49  6.36
 H  0.41 -2.35  6.51
 H -0.77 -3.49  5.85
 H -2.20 -2.70  7.88
 H  1.00 -4.58  9.32
 H  1.22 -3.23  8.34
 H -1.12 -4.96 10.10
 N -1.34  2.51  3.68
 C -2.31  2.75  2.64
 H -0.82  3.31  4.04
 H -2.72  3.76  2.77
 H -3.15  2.05  2.70
 H -1.88  2.69  1.63
