35
#
 C  0.63 -0.74  1.23
 C  0.07 -1.44  2.45
 O  0.79 -2.07  3.22
 H  1.69 -0.98  1.16
 H  0.51  0.36  1.31
 H  0.14 -1.06  0.30
 N -1.29 -1.37  2.67
 C -2.28 -0.57  1.98
 C -2.90  0.43  2.98
 O -3.25  0.05  4.10
 H -1.58 -1.74  3.57
 H -1.77 -0.02  1.17
 C -3.42 -1.41  1.36
 C -2.97 -2.43  0.30
 C -2.57 -3.81  0.86
 N -2.19 -4.76 -0.17
 C -0.93 -4.72 -0.77
 N -0.89 -5.47 -1.95
 N  0.12 -4.11 -0.37
 H -4.14 -0.71  0.92
 H -3.95 -1.92  2.18
 H -2.13 -2.02 -0.29
 H -3.79 -2.58 -0.41
 H -3.42 -4.23  1.42
 H -1.75 -3.72  1.58
 H -2.94 -5.00 -0.81
 H  0.08 -5.57 -2.27
 H -1.36 -6.36 -1.91
 H -0.05 -3.55  0.47
 N -3.04  1.70  2.53
 C -3.65  2.76  3.32
 H -2.69  1.92  1.60
 H -2.94  3.58  3.50
 H -3.93  2.32  4.28
 H -4.54  3.16  2.83
