35
#
 C -0.74  2.04  0.13
 C -0.06  0.87  0.82
 O  1.16  0.86  1.03
 H -1.56  2.45  0.73
 H -1.16  1.75 -0.84
 H  0.02  2.82 -0.04
 N -0.85 -0.15  1.25
 C -2.22 -0.49  0.89
 C -2.97 -1.01  2.15
 O -4.00 -0.46  2.54
 H -0.33 -0.86  1.77
 H -2.73  0.44  0.63
 C -2.36 -1.50 -0.28
 C -1.35 -1.41 -1.44
 C -0.21 -2.44 -1.42
 N  0.84 -2.26 -0.44
 C  0.77 -2.65  0.88
 N  1.71 -2.04  1.68
 N -0.07 -3.50  1.40
 H -3.38 -1.36 -0.66
 H -2.34 -2.52  0.13
 H -0.92 -0.40 -1.51
 H -1.89 -1.57 -2.38
 H  0.28 -2.43 -2.41
 H -0.62 -3.45 -1.31
 H  1.55 -1.56 -0.64
 H  1.66 -2.34  2.65
 H  1.85 -1.03  1.55
 H -0.59 -4.00  0.68
 N -2.40 -2.08  2.75
 C -2.99 -2.66  3.94
 H -1.59 -2.56  2.34
 H -3.12 -1.90  4.73
 H -2.33 -3.45  4.31
 H -3.98 -3.10  3.73
