35
#
 C  0.87  0.17  1.82
 C -0.25 -0.85  1.78
 O -0.04 -2.06  1.72
 H  0.92  0.66  2.80
 H  0.73  0.96  1.07
 H  1.81 -0.35  1.63
 N -1.54 -0.37  1.80
 C -1.97  1.01  2.02
 C -1.61  1.60  3.40
 O -1.18  2.76  3.46
 H -2.24 -1.10  1.79
 H -1.45  1.67  1.32
 C -3.48  1.11  1.74
 C -4.03  2.54  1.81
 C -5.53  2.58  1.54
 N -6.02  3.95  1.59
 C -7.32  4.23  1.19
 N -7.68  5.56  1.45
 N -8.06  3.31  0.66
 H -4.04  0.47  2.45
 H -3.66  0.69  0.74
 H -3.51  3.17  1.08
 H -3.82  2.97  2.80
 H -6.07  1.93  2.26
 H -5.77  2.18  0.54
 H -5.70  4.49  2.39
 H -8.55  5.84  1.02
 H -6.94  6.24  1.28
 H -8.94  3.70  0.31
 N -1.78  0.86  4.54
 C -2.26 -0.50  4.72
 H -1.48  1.37  5.37
 H -1.53 -1.26  4.41
 H -3.20 -0.68  4.19
 H -2.47 -0.64  5.79
