35
#
 C  1.96 -0.92  1.31
 C  0.87 -0.50  2.27
 O  1.12 -0.08  3.39
 H  2.79 -1.36  1.88
 H  2.34 -0.02  0.81
 H  1.63 -1.63  0.53
 N -0.41 -0.66  1.77
 C -1.62 -0.01  2.25
 C -1.68  1.43  1.69
 O -0.67  2.01  1.29
 H -0.44 -0.91  0.79
 H -2.45 -0.59  1.82
 C -1.80 -0.01  3.78
 C -1.68 -1.40  4.42
 C -1.92 -1.39  5.93
 N -1.18 -0.36  6.68
 C  0.12 -0.58  7.15
 N  0.99 -1.12  6.21
 N  0.38 -0.27  8.38
 H -2.79  0.41  4.00
 H -1.06  0.67  4.24
 H -0.70 -1.83  4.20
 H -2.42 -2.08  3.97
 H -1.72 -2.40  6.33
 H -2.99 -1.18  6.12
 H -1.72  0.04  7.45
 H  1.95 -1.18  6.54
 H  0.93 -0.75  5.26
 H  1.38 -0.31  8.57
 N -2.91  2.04  1.62
 C -4.21  1.54  2.04
 H -2.85  3.00  1.30
 H -4.98  2.02  1.43
 H -4.43  1.75  3.10
 H -4.29  0.46  1.88
