35
#
 C -1.61 -1.82  0.44
 C -1.21 -0.65  1.32
 O -1.00  0.47  0.88
 H -0.89 -1.90 -0.39
 H -2.59 -1.60 -0.01
 H -1.67 -2.78  0.97
 N -1.14 -0.94  2.66
 C -0.67  0.02  3.63
 C -0.23 -0.80  4.86
 O -0.39 -2.02  4.91
 H -1.11 -1.90  3.00
 H  0.24  0.52  3.23
 C -1.69  1.16  3.93
 C -3.16  0.73  3.98
 C -3.53 -0.31  5.05
 N -4.91 -0.75  5.01
 C -5.42 -1.68  4.11
 N -4.46 -2.38  3.38
 N -6.67 -1.98  3.96
 H -1.58  1.91  3.14
 H -1.42  1.64  4.88
 H -3.45  0.35  2.99
 H -3.78  1.63  4.13
 H -3.33  0.11  6.05
 H -2.89 -1.20  4.98
 H -5.60 -0.10  5.37
 H -3.67 -1.85  3.02
 H -4.91 -2.96  2.68
 H -7.26 -1.49  4.64
 N  0.35 -0.08  5.86
 C  0.82 -0.69  7.09
 H  0.47  0.91  5.73
 H  0.33 -0.24  7.97
 H  1.91 -0.58  7.20
 H  0.58 -1.76  7.05
