35
#
 C -0.36  1.04  0.24
 C  0.10 -0.19  1.00
 O  1.28 -0.51  1.08
 H  0.53  1.63 -0.01
 H -1.05  1.67  0.82
 H -0.86  0.76 -0.69
 N -0.87 -0.94  1.62
 C -2.31 -0.87  1.43
 C -2.95 -1.58  2.64
 O -2.36 -2.48  3.23
 H -0.55 -1.76  2.14
 H -2.62  0.18  1.42
 C -2.81 -1.54  0.12
 C -2.23 -2.95 -0.14
 C -0.97 -2.94 -1.03
 N -0.32 -4.23 -1.14
 C  0.53 -4.73 -0.17
 N  0.67 -6.12 -0.25
 N  1.21 -4.08  0.71
 H -2.56 -0.88 -0.73
 H -3.90 -1.59  0.15
 H -2.99 -3.57 -0.62
 H -1.98 -3.44  0.81
 H -0.23 -2.22 -0.66
 H -1.23 -2.60 -2.05
 H -0.72 -4.90 -1.79
 H  1.27 -6.46  0.50
 H -0.21 -6.64 -0.29
 H  1.18 -3.07  0.59
 N -4.21 -1.20  2.99
 C -4.97 -0.06  2.49
 H -4.58 -1.72  3.78
 H -5.18 -0.14  1.42
 H -4.47  0.90  2.69
 H -5.94 -0.05  3.01
