35
#
 C -2.43  0.32 -0.34
 C -1.70  0.29  0.99
 O -0.48  0.45  1.07
 H -3.52  0.21 -0.24
 H -2.04 -0.48 -0.97
 H -2.21  1.27 -0.84
 N -2.49  0.10  2.09
 C -1.92 -0.14  3.40
 C -2.67 -1.33  4.02
 O -3.82 -1.60  3.66
 H -3.45 -0.23  1.98
 H -0.86 -0.36  3.25
 C -2.05  1.09  4.33
 C -1.30  2.32  3.82
 C -1.43  3.51  4.77
 N -0.72  4.67  4.23
 C -0.60  5.86  4.93
 N -1.73  6.19  5.70
 N  0.50  6.52  4.85
 H -1.68  0.82  5.33
 H -3.12  1.32  4.45
 H -1.67  2.61  2.83
 H -0.23  2.07  3.68
 H -1.06  3.23  5.78
 H -2.50  3.75  4.89
 H  0.17  4.45  3.79
 H -1.73  7.15  6.02
 H -2.62  5.92  5.30
 H  0.42  7.44  5.30
 N -2.04 -2.05  4.99
 C -0.70 -1.87  5.52
 H -2.63 -2.77  5.40
 H -0.34 -2.83  5.90
 H -0.67 -1.14  6.35
 H -0.01 -1.53  4.74
