35
#
 C -0.77 -1.90  0.63
 C -0.65 -1.56  2.10
 O  0.38 -1.76  2.74
 H -1.78 -1.78  0.22
 H -0.43 -2.93  0.47
 H -0.09 -1.24  0.06
 N -1.78 -1.03  2.68
 C -1.78 -0.48  4.03
 C -2.02 -1.54  5.13
 O -1.74 -1.29  6.31
 H -2.54 -0.76  2.07
 H -0.77 -0.09  4.24
 C -2.82  0.65  4.10
 C -2.85  1.44  5.42
 C -3.87  2.58  5.39
 N -5.25  2.14  5.18
 C -6.05  1.72  6.24
 N -7.37  1.50  5.85
 N -5.71  1.54  7.47
 H -3.82  0.24  3.91
 H -2.59  1.35  3.28
 H -1.86  1.86  5.63
 H -3.07  0.76  6.25
 H -3.63  3.27  4.56
 H -3.79  3.17  6.32
 H -5.76  2.65  4.47
 H -7.47  0.99  4.97
 H -7.90  1.07  6.60
 H -4.76  1.84  7.66
 N -2.57 -2.71  4.71
 C -2.82 -3.82  5.61
 H -2.64 -2.85  3.71
 H -2.72 -3.45  6.64
 H -2.09 -4.63  5.46
 H -3.83 -4.22  5.47
