35
#
 C  0.21 -0.33  0.60
 C -0.09  0.31  1.94
 O  0.80  0.90  2.57
 H  0.44  0.45 -0.13
 H -0.58 -0.99  0.24
 H  1.13 -0.92  0.73
 N -1.35  0.24  2.47
 C -2.64  0.24  1.79
 C -3.13 -1.17  1.40
 O -2.39 -2.06  1.01
 H -1.41  0.70  3.40
 H -3.33  0.63  2.56
 C -2.74  1.20  0.58
 C -2.85  2.70  0.89
 C -1.60  3.47  1.38
 N -1.16  3.23  2.76
 C -2.05  3.19  3.81
 N -2.95  4.26  3.85
 N -2.03  2.19  4.63
 H -3.65  0.92  0.01
 H -1.91  1.01 -0.11
 H -3.67  2.87  1.61
 H -3.16  3.20 -0.04
 H -1.80  4.55  1.24
 H -0.74  3.24  0.74
 H -0.44  2.51  2.85
 H -3.51  4.33  4.69
 H -2.57  5.16  3.55
 H -2.60  2.35  5.46
 N -4.49 -1.36  1.47
 C -5.51 -0.46  1.99
 H -4.77 -2.29  1.18
 H -5.35 -0.22  3.05
 H -6.48 -0.96  1.90
 H -5.57  0.47  1.41
