35
#
 C  0.11 -0.23  0.21
 C  0.04  0.19  1.66
 O  1.06  0.41  2.31
 H  1.09  0.05 -0.18
 H -0.68  0.23 -0.42
 H  0.00 -1.32  0.13
 N -1.19  0.32  2.24
 C -2.50  0.10  1.66
 C -3.50  0.87  2.55
 O -3.19  1.22  3.69
 H -1.21  0.64  3.20
 H -2.54  0.55  0.65
 C -2.88 -1.40  1.50
 C -2.72 -2.29  2.74
 C -3.79 -2.07  3.82
 N -3.78 -3.14  4.82
 C -4.49 -4.31  4.60
 N -4.48 -5.15  5.72
 N -5.09 -4.51  3.48
 H -2.24 -1.81  0.70
 H -3.91 -1.48  1.13
 H -1.72 -2.15  3.18
 H -2.79 -3.33  2.41
 H -4.79 -2.04  3.35
 H -3.63 -1.13  4.35
 H -3.72 -2.85  5.79
 H -4.83 -6.09  5.53
 H -3.60 -5.18  6.23
 H -5.49 -5.45  3.44
 N -4.73  1.15  2.03
 C -5.28  0.83  0.73
 H -5.34  1.60  2.71
 H -4.50  0.85 -0.04
 H -6.02  1.60  0.46
 H -5.77 -0.15  0.70
