35
#
 C -3.90  3.01  1.67
 C -2.70  2.17  2.05
 O -1.63  2.25  1.42
 H -4.79  2.80  2.28
 H -4.14  2.83  0.62
 H -3.63  4.07  1.78
 N -2.86  1.36  3.13
 C -1.91  0.34  3.53
 C -2.71 -0.97  3.66
 O -3.90 -0.96  3.99
 H -3.80  1.20  3.49
 H -1.16  0.26  2.72
 C -1.18  0.63  4.87
 C  0.11  1.44  4.74
 C -0.07  2.92  4.34
 N  1.16  3.62  4.03
 C  1.98  3.32  2.94
 N  1.35  2.64  1.90
 N  3.22  3.66  3.00
 H -0.94 -0.33  5.35
 H -1.90  1.13  5.54
 H  0.77  0.96  4.00
 H  0.66  1.40  5.70
 H -0.56  3.46  5.15
 H -0.74  2.99  3.48
 H  1.73  3.92  4.81
 H  0.34  2.68  1.79
 H  1.85  2.67  1.02
 H  3.70  3.46  2.12
 N -2.00 -2.11  3.43
 C -2.55 -3.44  3.59
 H -1.03 -2.01  3.13
 H -2.02 -3.99  4.38
 H -2.50 -4.01  2.65
 H -3.60 -3.33  3.88
