35
#
 C  0.19  1.63  0.37
 C -0.09  0.85  1.64
 O  0.65  0.90  2.62
 H  1.27  1.70  0.23
 H -0.21  2.64  0.49
 H -0.27  1.18 -0.52
 N -1.22  0.08  1.62
 C -1.80 -0.50  2.83
 C -1.82  0.57  3.95
 O -2.31  1.67  3.73
 H -1.85  0.22  0.84
 H -2.87 -0.62  2.60
 C -1.30 -1.92  3.17
 C  0.21 -2.15  3.39
 C  1.04 -2.46  2.13
 N  0.62 -3.65  1.40
 C -0.19 -3.63  0.28
 N -0.48 -4.93 -0.18
 N -0.70 -2.62 -0.34
 H -1.64 -2.59  2.37
 H -1.85 -2.24  4.06
 H  0.33 -3.00  4.08
 H  0.68 -1.28  3.87
 H  2.09 -2.58  2.42
 H  1.02 -1.61  1.43
 H  0.65 -4.52  1.91
 H -0.97 -4.89 -1.07
 H  0.32 -5.55 -0.22
 H -0.53 -1.75  0.18
 N -1.39  0.18  5.19
 C -1.32  1.13  6.28
 H -0.83 -0.66  5.25
 H -1.36  0.59  7.24
 H -2.17  1.81  6.22
 H -0.40  1.73  6.25
