35
#
 C  0.33 -0.70  0.30
 C -0.13 -0.27  1.68
 O  0.55 -0.45  2.69
 H  0.52 -1.78  0.31
 H  1.28 -0.21  0.07
 H -0.39 -0.48 -0.50
 N -1.36  0.33  1.72
 C -1.96  0.78  2.96
 C -3.48  0.67  2.79
 O -4.02  0.96  1.72
 H -1.93  0.46  0.89
 H -1.60  0.10  3.76
 C -1.53  2.22  3.32
 C -2.07  2.74  4.65
 C -1.47  4.10  5.03
 N -1.96  4.67  6.27
 C -1.53  4.20  7.51
 N -2.28  4.75  8.56
 N -0.59  3.37  7.78
 H -1.84  2.88  2.49
 H -0.43  2.22  3.33
 H -1.86  2.02  5.45
 H -3.17  2.84  4.61
 H -1.67  4.83  4.23
 H -0.37  4.02  5.09
 H -2.92  4.99  6.25
 H -1.87  4.50  9.45
 H -2.45  5.75  8.48
 H -0.20  2.95  6.93
 N -4.16  0.26  3.89
 C -5.61  0.18  3.94
 H -3.63  0.03  4.72
 H -5.94 -0.84  4.17
 H -5.99  0.46  2.95
 H -6.02  0.86  4.69
