35
#
 C  1.17 -0.21  0.40
 C  0.78  0.13  1.83
 O  1.58  0.63  2.62
 H  0.33 -0.58 -0.22
 H  1.95 -0.97  0.42
 H  1.59  0.68 -0.08
 N -0.52 -0.14  2.16
 C -1.11  0.02  3.49
 C -0.59  1.26  4.27
 O -0.18  1.16  5.42
 H -1.10 -0.58  1.46
 H -2.18  0.23  3.32
 C -1.03 -1.26  4.34
 C  0.37 -1.80  4.61
 C  0.35 -3.12  5.37
 N -0.20 -4.19  4.55
 C -0.72 -5.40  5.01
 N -0.90 -5.47  6.39
 N -1.11 -6.39  4.27
 H -1.63 -2.03  3.83
 H -1.53 -1.05  5.29
 H  0.95 -1.06  5.19
 H  0.93 -1.94  3.67
 H -0.29 -3.02  6.26
 H  1.37 -3.36  5.73
 H  0.15 -4.24  3.60
 H -1.19 -6.41  6.65
 H -0.14 -5.12  6.96
 H -1.05 -6.15  3.28
 N -0.73  2.49  3.68
 C -1.14  2.83  2.33
 H -0.33  3.23  4.25
 H -1.48  3.87  2.32
 H -1.99  2.21  2.01
 H -0.33  2.72  1.60
