35
#
 C -0.57  0.04 -0.44
 C -0.10  0.01  1.00
 O  1.09  0.03  1.31
 H  0.32  0.01 -1.08
 H -1.13  0.96 -0.66
 H -1.22 -0.81 -0.69
 N -1.07 -0.03  1.98
 C -2.52 -0.10  1.82
 C -3.20  0.79  2.89
 O -3.99  0.33  3.72
 H -0.69 -0.10  2.92
 H -2.76  0.34  0.85
 C -3.08 -1.54  1.83
 C -2.61 -2.41  3.00
 C -3.28 -3.79  2.97
 N -2.78 -4.61  4.06
 C -3.18 -5.92  4.31
 N -3.65 -6.61  3.19
 N -3.00 -6.40  5.49
 H -2.79 -2.01  0.88
 H -4.17 -1.47  1.83
 H -2.85 -1.91  3.95
 H -1.52 -2.56  2.95
 H -3.05 -4.28  2.01
 H -4.38 -3.65  3.02
 H -2.56 -4.13  4.92
 H -4.16 -7.45  3.42
 H -4.12 -6.07  2.47
 H -3.26 -7.39  5.53
 N -2.89  2.12  2.87
 C -2.06  2.86  1.94
 H -3.35  2.64  3.62
 H -0.98  2.72  2.14
 H -2.30  3.92  2.03
 H -2.26  2.56  0.90
