35
#
 C -0.05  0.02 -0.38
 C  0.13  0.32  1.10
 O  1.25  0.53  1.57
 H  0.85  0.35 -0.90
 H -0.93  0.50 -0.83
 H -0.15 -1.07 -0.53
 N -0.98  0.33  1.90
 C -2.38  0.06  1.59
 C -3.21  1.19  2.23
 O -3.69  1.08  3.36
 H -0.76  0.49  2.88
 H -2.49  0.09  0.50
 C -2.86 -1.31  2.12
 C -2.16 -2.52  1.50
 C -2.59 -2.82  0.06
 N -1.99 -4.00 -0.53
 C -2.45 -5.28 -0.24
 N -1.61 -6.27 -0.76
 N -3.51 -5.63  0.41
 H -3.94 -1.37  1.96
 H -2.72 -1.31  3.21
 H -2.37 -3.40  2.12
 H -1.06 -2.39  1.54
 H -2.36 -1.97 -0.60
 H -3.69 -2.94  0.01
 H -0.98 -3.95 -0.67
 H -2.03 -7.19 -0.65
 H -1.29 -6.10 -1.71
 H -3.96 -4.83  0.86
 N -3.36  2.34  1.51
 C -2.74  2.69  0.24
 H -3.84  3.08  2.02
 H -3.11  3.68 -0.06
 H -3.01  1.99 -0.55
 H -1.64  2.75  0.31
