35
#
 C -0.13  0.50 -0.60
 C  0.15 -0.41  0.58
 O  1.27 -0.81  0.86
 H -0.66  1.42 -0.30
 H -0.74 -0.00 -1.35
 H  0.83  0.78 -1.04
 N -0.93 -0.77  1.36
 C -2.34 -0.45  1.15
 C -2.80  0.88  1.80
 O -3.95  1.29  1.60
 H -0.69 -1.43  2.09
 H -2.52 -0.32  0.08
 C -3.25 -1.59  1.63
 C -3.20 -1.88  3.13
 C -4.21 -2.95  3.55
 N -4.21 -3.24  4.98
 C -3.69 -4.38  5.56
 N -2.72 -5.03  4.79
 N -4.02 -4.88  6.70
 H -3.00 -2.50  1.06
 H -4.28 -1.31  1.35
 H -3.40 -0.96  3.70
 H -2.19 -2.21  3.45
 H -4.02 -3.89  3.00
 H -5.22 -2.62  3.26
 H -4.93 -2.79  5.53
 H -2.30 -5.79  5.32
 H -2.02 -4.42  4.37
 H -4.84 -4.42  7.10
 N -1.88  1.52  2.56
 C -2.15  2.77  3.24
 H -0.97  1.08  2.65
 H -1.47  3.56  2.90
 H -2.05  2.66  4.33
 H -3.18  3.06  3.01
