35
#
 C -0.14 -0.70 -0.27
 C -0.17 -0.31  1.20
 O  0.82  0.10  1.79
 H  0.20  0.17 -0.85
 H -1.11 -1.03 -0.66
 H  0.59 -1.50 -0.41
 N -1.39 -0.44  1.80
 C -1.56 -0.28  3.24
 C -2.46 -1.43  3.72
 O -3.28 -1.96  2.97
 H -2.15 -0.95  1.35
 H -0.56 -0.34  3.69
 C -2.20  1.08  3.61
 C -1.38  2.29  3.16
 C -1.98  3.62  3.61
 N -1.90  3.77  5.05
 C -2.58  4.80  5.70
 N -2.25  4.86  7.06
 N -3.42  5.64  5.21
 H -2.33  1.11  4.71
 H -3.21  1.12  3.18
 H -1.31  2.29  2.06
 H -0.34  2.20  3.51
 H -3.04  3.67  3.31
 H -1.46  4.45  3.08
 H -0.99  3.57  5.45
 H -2.85  5.53  7.54
 H -2.23  3.96  7.54
 H -3.46  5.59  4.19
 N -2.30 -1.78  5.02
 C -3.12 -2.78  5.68
 H -1.58 -1.31  5.55
 H -3.68 -2.36  6.52
 H -2.50 -3.61  6.05
 H -3.83 -3.17  4.94
