35
#
 C  1.88 -0.70  0.58
 C  1.11 -0.93  1.88
 O  1.65 -1.50  2.83
 H  2.24 -1.67  0.21
 H  2.76 -0.09  0.81
 H  1.30 -0.21 -0.21
 N -0.17 -0.46  1.86
 C -1.22 -0.44  2.89
 C -1.51  0.99  3.41
 O -2.66  1.43  3.34
 H -0.45 -0.01  0.99
 H -2.16 -0.69  2.36
 C -1.08 -1.42  4.06
 C -0.99 -2.90  3.67
 C -0.41 -3.76  4.81
 N  0.90 -3.26  5.24
 C  1.09 -2.67  6.48
 N  0.45 -3.34  7.53
 N  1.78 -1.58  6.57
 H -1.96 -1.25  4.70
 H -0.20 -1.15  4.67
 H -0.36 -3.02  2.79
 H -1.99 -3.29  3.41
 H -0.33 -4.80  4.46
 H -1.08 -3.75  5.67
 H  1.40 -2.73  4.52
 H  0.47 -4.35  7.48
 H  0.69 -2.99  8.45
 H  1.98 -1.35  7.55
 N -0.50  1.73  3.96
 C  0.92  1.44  4.13
 H -0.82  2.65  4.25
 H  1.50  1.67  3.23
 H  1.10  0.40  4.41
 H  1.29  2.06  4.95
