35
#
 C -2.03 -0.34  0.20
 C -1.02 -0.29  1.34
 O  0.18 -0.51  1.15
 H -1.67  0.29 -0.62
 H -3.04 -0.03  0.48
 H -2.07 -1.37 -0.17
 N -1.53  0.03  2.56
 C -0.84 -0.01  3.86
 C  0.29  1.02  4.10
 O  0.39  1.54  5.22
 H -2.53  0.23  2.60
 H -1.61  0.31  4.57
 C -0.35 -1.43  4.25
 C -1.31 -2.21  5.15
 C -1.67 -1.48  6.47
 N -0.62 -0.68  7.06
 C  0.54 -1.27  7.54
 N  1.55 -0.33  7.78
 N  0.58 -2.54  7.77
 H  0.61 -1.33  4.77
 H -0.13 -1.99  3.33
 H -0.84 -3.17  5.39
 H -2.25 -2.43  4.61
 H -1.99 -2.24  7.21
 H -2.53 -0.81  6.32
 H -0.48  0.24  6.64
 H  2.47 -0.74  7.86
 H  1.54  0.49  7.19
 H  1.48 -2.80  8.17
 N  1.14  1.25  3.08
 C  2.29  2.11  3.22
 H  1.03  0.65  2.25
 H  3.15  1.59  3.67
 H  2.04  2.96  3.88
 H  2.58  2.49  2.24
