35
#
 C -0.22 -1.63  0.30
 C -0.31 -0.89  1.62
 O  0.62 -0.88  2.42
 H -0.23 -2.71  0.51
 H  0.75 -1.39 -0.16
 H -1.02 -1.39 -0.41
 N -1.54 -0.31  1.85
 C -1.91  0.56  2.96
 C -1.41  2.01  2.72
 O -0.48  2.26  1.97
 H -2.17 -0.30  1.06
 H -3.01  0.57  2.96
 C -1.44  0.02  4.33
 C -2.08 -1.32  4.70
 C -1.17 -2.21  5.56
 N -0.07 -2.83  4.82
 C -0.29 -3.90  3.94
 N -1.30 -4.78  4.34
 N  0.35 -4.12  2.85
 H -1.66  0.77  5.10
 H -0.35 -0.06  4.28
 H -2.34 -1.89  3.80
 H -3.03 -1.15  5.24
 H -1.76 -3.00  6.04
 H -0.72 -1.62  6.38
 H  0.56 -2.15  4.39
 H -1.27 -5.62  3.76
 H -1.31 -5.00  5.33
 H  0.96 -3.33  2.62
 N -2.07  3.00  3.41
 C -3.32  2.91  4.14
 H -1.71  3.92  3.20
 H -3.53  3.89  4.58
 H -3.27  2.18  4.96
 H -4.17  2.64  3.49
