35
#
 C -0.25 -1.45 -0.87
 C -0.14 -0.95  0.56
 O  0.91 -0.55  1.04
 H  0.31 -2.40 -0.95
 H  0.24 -0.73 -1.54
 H -1.28 -1.62 -1.21
 N -1.31 -0.97  1.27
 C -1.40 -0.69  2.71
 C -0.50  0.50  3.14
 O  0.31  0.38  4.06
 H -2.13 -1.37  0.84
 H -2.44 -0.37  2.89
 C -1.10 -1.93  3.56
 C -1.60 -1.83  5.01
 C -0.69 -2.54  6.01
 N  0.61 -1.89  6.06
 C  1.80 -2.56  6.25
 N  1.68 -3.76  6.96
 N  2.97 -2.20  5.84
 H -0.02 -2.11  3.54
 H -1.57 -2.80  3.07
 H -2.62 -2.24  5.10
 H -1.67 -0.77  5.31
 H -0.57 -3.60  5.72
 H -1.18 -2.54  7.00
 H  0.69 -1.06  5.46
 H  2.60 -4.12  7.20
 H  1.06 -3.72  7.77
 H  2.90 -1.39  5.21
 N -0.72  1.71  2.57
 C -1.56  2.05  1.43
 H -0.05  2.41  2.88
 H -1.77  3.13  1.46
 H -2.52  1.53  1.48
 H -1.08  1.81  0.47
