35
#
 C  1.08 -1.62  1.20
 C  0.16 -2.68  1.75
 O  0.44 -3.88  1.69
 H  0.74 -1.33  0.20
 H  2.09 -2.04  1.12
 H  1.11 -0.71  1.82
 N -1.02 -2.29  2.33
 C -1.71 -1.01  2.14
 C -2.68 -0.73  3.31
 O -3.66  0.00  3.18
 H -1.61 -3.09  2.54
 H -0.96 -0.22  2.21
 C -2.41 -0.85  0.78
 C -3.39 -1.96  0.36
 C -2.79 -3.26 -0.18
 N -1.81 -3.00 -1.23
 C -1.06 -4.03 -1.83
 N -0.64 -5.02 -0.95
 N -0.74 -4.10 -3.08
 H -1.64 -0.75  0.01
 H -2.95  0.10  0.83
 H -4.04 -1.53 -0.43
 H -4.08 -2.20  1.19
 H -3.61 -3.91 -0.54
 H -2.29 -3.83  0.62
 H -2.18 -2.38 -1.95
 H  0.00 -5.65 -1.41
 H -0.32 -4.72 -0.03
 H -1.24 -3.39 -3.63
 N -2.34 -1.32  4.49
 C -3.08 -1.10  5.72
 H -1.49 -1.87  4.51
 H -3.33 -2.05  6.20
 H -4.00 -0.56  5.47
 H -2.50 -0.49  6.43
