35
#
 C  0.48 -1.07  0.55
 C  0.27  0.16  1.41
 O  1.20  0.90  1.70
 H  0.77 -1.90  1.21
 H  1.31 -0.86 -0.14
 H -0.40 -1.40 -0.02
 N -0.99  0.43  1.91
 C -2.29 -0.20  1.70
 C -2.20 -1.75  1.80
 O -1.53 -2.28  2.68
 H -0.97  1.23  2.53
 H -2.87  0.04  2.60
 C -3.07  0.42  0.52
 C -2.41  0.37 -0.86
 C -3.24  1.10 -1.92
 N -2.59  1.05 -3.21
 C -3.20  1.25 -4.44
 N -4.59  1.41 -4.38
 N -2.62  1.23 -5.59
 H -3.23  1.48  0.79
 H -4.08 -0.02  0.49
 H -2.25 -0.66 -1.20
 H -1.42  0.84 -0.80
 H -3.42  2.14 -1.58
 H -4.23  0.62 -2.02
 H -1.58  1.18 -3.22
 H -4.95  1.62 -5.31
 H -4.93  2.05 -3.68
 H -1.64  0.96 -5.52
 N -2.96 -2.46  0.92
 C -3.05 -3.90  0.94
 H -3.48 -1.95  0.21
 H -4.08 -4.24  1.10
 H -2.43 -4.26  1.77
 H -2.68 -4.34  0.01
