35
#
 C -0.19  0.09 -0.07
 C -0.05  0.12  1.44
 O  1.06  0.16  1.98
 H  0.34 -0.80 -0.45
 H  0.31  0.97 -0.48
 H -1.23  0.06 -0.43
 N -1.23  0.11  2.13
 C -1.49  0.03  3.58
 C -0.93  1.15  4.49
 O -1.57  1.46  5.50
 H -2.07  0.11  1.56
 H -2.58  0.19  3.66
 C -1.22 -1.36  4.21
 C  0.24 -1.70  4.53
 C  0.36 -3.06  5.23
 N  1.70 -3.41  5.67
 C  2.30 -2.98  6.84
 N  1.45 -2.33  7.74
 N  3.52 -3.20  7.20
 H -1.65 -2.12  3.53
 H -1.81 -1.39  5.13
 H  0.66 -0.92  5.19
 H  0.86 -1.68  3.63
 H  0.02 -3.85  4.54
 H -0.31 -3.11  6.10
 H  2.35 -3.69  4.95
 H  1.98 -1.98  8.53
 H  0.82 -1.63  7.35
 H  4.00 -3.80  6.53
 N  0.25  1.71  4.14
 C  0.89  2.70  4.98
 H  0.78  1.26  3.39
 H  1.57  3.31  4.37
 H  1.47  2.25  5.80
 H  0.13  3.35  5.43
