35
#
 C -4.36  3.27  2.48
 C -3.10  2.44  2.38
 O -2.14  2.79  1.69
 H -4.73  3.47  1.46
 H -4.11  4.23  2.94
 H -5.16  2.79  3.06
 N -3.08  1.29  3.11
 C -1.94  0.40  3.10
 C -2.47 -1.00  3.47
 O -3.51 -1.14  4.11
 H -3.89  0.96  3.64
 H -1.54  0.40  2.08
 C -0.83  0.85  4.10
 C  0.60  0.59  3.63
 C  1.02  1.39  2.38
 N  0.79  2.83  2.47
 C  1.34  3.62  3.46
 N  2.67  3.28  3.77
 N  0.63  4.54  4.02
 H -1.01  0.37  5.07
 H -0.96  1.93  4.26
 H  0.78 -0.48  3.44
 H  1.28  0.85  4.46
 H  0.47  1.05  1.49
 H  2.08  1.19  2.17
 H -0.18  3.09  2.27
 H  3.13  3.97  4.35
 H  3.24  3.02  2.97
 H  1.21  5.14  4.62
 N -1.68 -2.03  3.06
 C -1.96 -3.42  3.40
 H -0.87 -1.82  2.50
 H -2.88 -3.43  3.99
 H -1.15 -3.86  3.98
 H -2.12 -4.02  2.49
