35
#
 C -0.09  0.57  1.05
 C -0.22  0.28  2.53
 O  0.76  0.02  3.23
 H -0.61  1.49  0.75
 H -0.50 -0.25  0.44
 H  0.98  0.67  0.82
 N -1.47  0.32  3.08
 C -2.73  0.20  2.36
 C -3.88  0.91  3.12
 O -4.95  0.35  3.35
 H -1.49  0.11  4.08
 H -2.62  0.75  1.41
 C -3.11 -1.25  1.99
 C -3.30 -2.27  3.14
 C -2.07 -3.10  3.58
 N -1.05 -2.44  4.40
 C -1.33 -1.79  5.59
 N -2.44 -2.28  6.28
 N -0.69 -0.78  6.08
 H -2.34 -1.62  1.29
 H -4.05 -1.19  1.43
 H -4.05 -3.00  2.80
 H -3.75 -1.78  4.01
 H -1.55 -3.49  2.69
 H -2.44 -3.99  4.11
 H -0.29 -2.00  3.89
 H -2.47 -1.91  7.23
 H -2.60 -3.28  6.23
 H  0.06 -0.49  5.44
 N -3.66  2.20  3.51
 C -2.53  3.09  3.24
 H -4.45  2.59  4.03
 H -1.69  2.92  3.93
 H -2.87  4.12  3.35
 H -2.17  2.97  2.21
