35
#
 C  0.31 -0.79  0.77
 C  0.20 -0.30  2.20
 O  1.14 -0.39  2.98
 H  1.04 -1.61  0.76
 H  0.70  0.02  0.14
 H -0.64 -1.15  0.36
 N -0.96  0.31  2.62
 C -2.27  0.50  2.00
 C -3.05 -0.82  1.84
 O -2.50 -1.92  1.70
 H -0.91  0.58  3.60
 H -2.81  1.11  2.73
 C -2.26  1.32  0.67
 C -2.54  2.81  0.90
 C -1.50  3.52  1.79
 N -2.04  4.59  2.61
 C -2.78  4.30  3.74
 N -3.31  5.44  4.35
 N -2.94  3.07  4.13
 H -3.01  0.91 -0.02
 H -1.29  1.18  0.17
 H -3.52  2.91  1.39
 H -2.62  3.32 -0.07
 H -0.69  3.94  1.18
 H -1.04  2.80  2.48
 H -2.30  5.44  2.14
 H -3.73  5.27  5.26
 H -2.70  6.25  4.36
 H -3.39  3.04  5.05
 N -4.41 -0.72  1.85
 C -5.24  0.47  1.98
 H -4.88 -1.61  1.68
 H -6.23  0.17  2.35
 H -5.38  1.00  1.02
 H -4.81  1.17  2.70
