35
#
 C -0.49  1.63  4.57
 C -0.77  0.18  4.92
 O  0.10 -0.57  5.36
 H -0.51  2.23  5.49
 H -1.22  2.05  3.86
 H  0.51  1.71  4.14
 N -2.07 -0.22  4.71
 C -2.57 -1.49  5.24
 C -2.44 -2.69  4.28
 O -2.73 -3.82  4.66
 H -2.77  0.51  4.59
 H -1.96 -1.76  6.11
 C -4.04 -1.34  5.65
 C -4.30 -0.28  6.75
 C -5.09  0.94  6.27
 N -4.41  1.74  5.24
 C -4.96  1.95  3.97
 N -4.35  3.02  3.31
 N -5.91  1.31  3.38
 H -4.37 -2.33  5.99
 H -4.64 -1.12  4.75
 H -3.35  0.05  7.19
 H -4.88 -0.73  7.57
 H -5.31  1.60  7.13
 H -6.07  0.63  5.88
 H -3.96  2.57  5.62
 H -3.35  3.12  3.45
 H -4.61  3.05  2.33
 H -6.35  0.62  3.99
 N -2.02 -2.39  3.02
 C -1.81 -3.39  2.00
 H -1.77 -1.42  2.84
 H -2.38 -3.16  1.09
 H -2.16 -4.35  2.40
 H -0.75 -3.48  1.74
