35
#
 C -1.08  0.34 -0.80
 C -1.31  0.60  0.67
 O -0.47  1.22  1.35
 H -0.16 -0.24 -0.92
 H -0.93  1.29 -1.31
 H -1.91 -0.21 -1.29
 N -2.47  0.12  1.19
 C -2.89  0.17  2.60
 C -3.33  1.59  3.05
 O -4.46  1.76  3.53
 H -3.12 -0.32  0.54
 H -3.83 -0.41  2.64
 C -1.86 -0.50  3.55
 C -2.44 -1.09  4.84
 C -3.11 -0.13  5.82
 N -2.26  1.01  6.12
 C -2.71  2.22  6.66
 N -4.03  2.53  6.39
 N -1.99  3.05  7.35
 H -1.07  0.22  3.78
 H -1.39 -1.31  2.98
 H -1.61 -1.61  5.35
 H -3.17 -1.88  4.60
 H -3.39 -0.69  6.73
 H -4.05  0.25  5.39
 H -1.33  0.77  6.47
 H -4.24  3.48  6.68
 H -4.36  2.31  5.45
 H -1.08  2.64  7.58
 N -2.40  2.55  2.92
 C -2.60  3.91  3.38
 H -1.49  2.27  2.52
 H -2.10  4.61  2.69
 H -2.20  4.07  4.39
 H -3.67  4.13  3.39
