35
#
 C -0.03  0.04 -0.02
 C  0.09  0.10  1.50
 O  1.18  0.20  2.05
 H  0.99  0.04 -0.43
 H -0.57  0.91 -0.42
 H -0.55 -0.87 -0.36
 N -1.07  0.05  2.22
 C -2.44  0.02  1.76
 C -3.23  1.09  2.54
 O -2.92  1.37  3.70
 H -0.96  0.23  3.22
 H -2.45  0.25  0.68
 C -3.13 -1.35  1.99
 C -2.49 -2.50  1.22
 C -3.14 -3.86  1.53
 N -3.00 -4.25  2.92
 C -4.09 -4.24  3.78
 N -3.78 -4.80  5.03
 N -5.23 -3.79  3.40
 H -4.20 -1.28  1.74
 H -3.09 -1.56  3.07
 H -1.41 -2.55  1.45
 H -2.58 -2.32  0.13
 H -2.68 -4.63  0.89
 H -4.21 -3.83  1.30
 H -2.28 -4.93  3.14
 H -4.49 -4.63  5.74
 H -2.85 -4.57  5.38
 H -5.90 -3.78  4.17
 N -4.30  1.66  1.92
 C -4.76  1.45  0.56
 H -4.81  2.31  2.50
 H -3.99  1.69 -0.19
 H -5.62  2.11  0.38
 H -5.10  0.41  0.39
