35
#
 C  0.20 -0.13  2.18
 C -0.37  0.21  3.54
 O  0.37  0.43  4.50
 H -0.31 -1.00  1.74
 H  1.26 -0.34  2.31
 H  0.09  0.72  1.49
 N -1.73  0.33  3.70
 C -2.87  0.06  2.84
 C -3.06 -1.45  2.57
 O -2.12 -2.24  2.59
 H -1.96  0.53  4.67
 H -3.73  0.43  3.41
 C -2.87  0.83  1.49
 C -2.50  2.32  1.60
 C -3.39  3.17  2.52
 N -4.78  3.24  2.12
 C -5.81  2.66  2.82
 N -7.07  2.93  2.27
 N -5.57  1.91  3.86
 H -3.87  0.74  1.05
 H -2.18  0.35  0.78
 H -2.51  2.75  0.59
 H -1.47  2.43  1.97
 H -2.98  4.19  2.55
 H -3.38  2.79  3.54
 H -5.00  3.56  1.18
 H -7.84  2.62  2.84
 H -7.20  3.88  1.94
 H -6.44  1.67  4.34
 N -4.33 -1.89  2.29
 C -5.57 -1.14  2.20
 H -4.35 -2.88  2.06
 H -6.39 -1.75  2.60
 H -5.82 -0.87  1.16
 H -5.52 -0.22  2.79
