35
#
 C  0.25  0.23 -0.02
 C  0.23  0.23  1.50
 O  1.24  0.46  2.15
 H  0.95 -0.54 -0.36
 H  0.63  1.20 -0.37
 H -0.73  0.05 -0.49
 N -1.00 -0.02  2.05
 C -1.38 -0.22  3.45
 C -2.16  0.94  4.11
 O -3.08  0.65  4.88
 H -1.75 -0.18  1.39
 H -2.17 -0.99  3.40
 C -0.29 -0.82  4.38
 C  0.63  0.11  5.17
 C  0.04  0.61  6.50
 N  0.95  1.46  7.28
 C  2.14  1.00  7.83
 N  2.08 -0.31  8.31
 N  3.16  1.78  7.84
 H  0.31 -1.50  3.76
 H -0.83 -1.46  5.10
 H  0.95  0.96  4.56
 H  1.56 -0.44  5.40
 H -0.26 -0.26  7.11
 H -0.88  1.18  6.35
 H  1.10  2.38  6.88
 H  1.19 -0.59  8.72
 H  2.86 -0.57  8.90
 H  3.93  1.38  8.39
 N -1.84  2.24  3.87
 C -0.79  2.85  3.07
 H -2.48  2.87  4.35
 H -0.53  3.82  3.51
 H -1.10  3.01  2.03
 H  0.12  2.24  3.07
