35
#
 C -0.11 -0.09 -0.05
 C -0.47 -0.48  1.37
 O  0.01 -1.47  1.92
 H -0.58  0.84 -0.38
 H -0.41 -0.90 -0.73
 H  0.99 -0.01 -0.13
 N -1.38  0.35  1.97
 C -1.85  0.09  3.32
 C -3.39  0.07  3.38
 O -4.04  0.83  4.10
 H -1.79  1.13  1.42
 H -1.50 -0.94  3.54
 C -1.22  0.97  4.42
 C -1.51  2.49  4.46
 C -0.52  3.40  3.72
 N -0.57  3.34  2.26
 C -1.74  3.64  1.58
 N -2.37  4.81  1.98
 N -2.17  2.82  0.67
 H -0.13  0.80  4.38
 H -1.56  0.54  5.38
 H -1.49  2.80  5.52
 H -2.53  2.69  4.12
 H  0.51  3.17  4.01
 H -0.69  4.44  4.04
 H -0.19  2.48  1.89
 H -3.16  5.11  1.43
 H -1.78  5.56  2.32
 H -2.95  3.20  0.13
 N -4.02 -0.85  2.59
 C -3.46 -1.87  1.72
 H -5.03 -0.78  2.65
 H -4.15 -2.72  1.68
 H -2.50 -2.23  2.10
 H -3.30 -1.50  0.69
