35
#
 C -1.91  1.22 -0.16
 C -1.41  0.30  0.94
 O -0.52 -0.53  0.76
 H -1.16  2.01 -0.32
 H -2.87  1.69  0.07
 H -1.99  0.65 -1.09
 N -2.04  0.45  2.16
 C -1.51 -0.15  3.38
 C -2.45 -1.19  4.03
 O -2.26 -1.59  5.17
 H -2.66  1.24  2.27
 H -0.63 -0.72  3.05
 C -1.09  0.91  4.40
 C  0.04  1.82  3.91
 C  0.48  2.83  4.97
 N  1.47  3.80  4.52
 C  1.17  4.77  3.57
 N -0.11  5.33  3.69
 N  2.05  5.06  2.67
 H -0.79  0.37  5.31
 H -1.97  1.52  4.68
 H -0.28  2.38  3.01
 H  0.90  1.21  3.60
 H  0.92  2.30  5.84
 H -0.39  3.36  5.36
 H  2.39  3.41  4.31
 H -0.43  5.45  4.65
 H -0.24  6.17  3.14
 H  1.78  5.89  2.13
 N -3.47 -1.63  3.23
 C -4.38 -2.68  3.63
 H -3.50 -1.26  2.29
 H -5.42 -2.36  3.52
 H -4.18 -2.90  4.69
 H -4.22 -3.59  3.04
