35
#
 C -0.57  0.04 -1.04
 C  0.14  0.13  0.30
 O  1.36  0.26  0.37
 H -1.17 -0.87 -1.14
 H  0.20  0.04 -1.82
 H -1.23  0.90 -1.20
 N -0.63  0.06  1.43
 C -2.07  0.03  1.55
 C -2.49  1.14  2.54
 O -1.76  1.45  3.47
 H -0.13  0.26  2.30
 H -2.50  0.23  0.56
 C -2.61 -1.32  2.07
 C -2.31 -2.50  1.14
 C -2.77 -3.85  1.69
 N -2.05 -4.19  2.90
 C -2.36 -5.23  3.76
 N -3.67 -5.71  3.66
 N -1.47 -5.60  4.62
 H -3.69 -1.24  2.24
 H -2.16 -1.50  3.06
 H -1.23 -2.54  0.93
 H -2.81 -2.34  0.17
 H -2.65 -4.61  0.90
 H -3.84 -3.79  1.93
 H -1.05 -3.99  2.92
 H -3.82 -6.58  4.15
 H -4.08 -5.73  2.73
 H -1.82 -6.35  5.23
 N -3.72  1.70  2.37
 C -4.66  1.49  1.28
 H -3.95  2.39  3.07
 H -5.53  2.12  1.45
 H -5.01  0.45  1.22
 H -4.23  1.77  0.30
