35
#
 C  0.23 -0.50  0.72
 C -0.03 -0.42  2.21
 O  0.87 -0.61  3.04
 H -0.14 -1.46  0.33
 H  1.31 -0.46  0.56
 H -0.25  0.30  0.16
 N -1.29 -0.11  2.62
 C -2.53 -0.13  1.85
 C -3.56  0.66  2.69
 O -3.46  0.74  3.91
 H -1.43 -0.04  3.63
 H -2.37  0.39  0.90
 C -3.07 -1.57  1.56
 C -3.06 -2.50  2.79
 C -1.79 -3.36  2.88
 N -1.56 -3.85  4.23
 C -0.31 -4.24  4.69
 N  0.76 -3.51  4.21
 N -0.26 -5.25  5.50
 H -2.47 -2.01  0.75
 H -4.08 -1.46  1.16
 H -3.94 -3.15  2.76
 H -3.15 -1.91  3.71
 H -0.91 -2.76  2.59
 H -1.84 -4.18  2.14
 H -2.26 -4.50  4.57
 H  1.64 -3.70  4.67
 H  0.64 -2.52  4.00
 H  0.68 -5.37  5.89
 N -4.58  1.20  1.97
 C -5.68  1.91  2.59
 H -4.56  1.11  0.96
 H -6.64  1.39  2.40
 H -5.76  2.94  2.21
 H -5.50  1.93  3.67
