35
#
 C  0.03 -0.46  0.24
 C  0.08  0.11  1.65
 O  1.13  0.48  2.17
 H -0.98 -0.64 -0.14
 H  0.59 -1.41  0.23
 H  0.55  0.23 -0.44
 N -1.13  0.20  2.28
 C -1.35  0.62  3.67
 C -0.37  1.72  4.14
 O  0.28  1.60  5.17
 H -1.94 -0.17  1.79
 H -2.34  1.11  3.67
 C -1.44 -0.57  4.64
 C -0.20 -1.48  4.73
 C  0.58 -1.40  6.06
 N -0.19 -1.77  7.24
 C -0.82 -0.86  8.07
 N -1.58 -1.50  9.07
 N -0.80  0.43  8.04
 H -2.30 -1.17  4.30
 H -1.72 -0.18  5.63
 H  0.51 -1.26  3.93
 H -0.51 -2.53  4.58
 H  0.96 -0.39  6.20
 H  1.45 -2.07  5.99
 H -0.60 -2.70  7.23
 H -1.91 -0.82  9.74
 H -1.08 -2.26  9.53
 H -0.33  0.80  7.20
 N -0.38  2.91  3.45
 C -1.02  3.24  2.20
 H  0.32  3.55  3.81
 H -0.45  2.89  1.32
 H -1.10  4.34  2.13
 H -2.03  2.83  2.15
