35
#
 C  0.26 -1.08  0.22
 C  0.30 -0.38  1.56
 O  1.35  0.11  2.00
 H  1.19 -0.86 -0.31
 H -0.59 -0.77 -0.40
 H  0.17 -2.16  0.37
 N -0.84 -0.31  2.32
 C -2.25 -0.33  1.94
 C -2.61 -1.55  1.07
 O -2.17 -2.67  1.34
 H -0.65  0.15  3.21
 H -2.78 -0.56  2.88
 C -2.76  1.07  1.52
 C -2.21  1.78  0.27
 C -0.78  2.39  0.34
 N -0.27  2.76  1.64
 C -0.79  3.77  2.42
 N -0.22  3.82  3.70
 N -1.74  4.60  2.12
 H -2.59  1.74  2.38
 H -3.86  1.01  1.44
 H -2.92  2.59  0.05
 H -2.24  1.12 -0.61
 H -0.75  3.26 -0.33
 H -0.05  1.68 -0.07
 H  0.39  2.11  2.06
 H -0.48  4.68  4.17
 H  0.78  3.65  3.73
 H -2.13  4.40  1.20
 N -3.48 -1.32  0.05
 C -4.01 -2.39 -0.79
 H -3.81 -0.38 -0.11
 H -5.09 -2.48 -0.68
 H -3.53 -3.32 -0.46
 H -3.77 -2.21 -1.84
