35
#
 C  0.11  0.31  0.38
 C  0.18  0.53  1.88
 O  1.01  1.28  2.39
 H -0.09  1.27 -0.11
 H -0.66 -0.41  0.07
 H  1.09 -0.04  0.03
 N -0.75 -0.15  2.61
 C -0.76 -0.11  4.06
 C -1.43 -1.41  4.53
 O -2.10 -2.11  3.76
 H -1.35 -0.86  2.20
 H  0.29 -0.09  4.40
 C -1.44  1.17  4.61
 C -2.91  1.38  4.23
 C -3.93  0.59  5.07
 N -5.32  0.90  4.80
 C -5.91  2.14  5.01
 N -5.47  2.81  6.15
 N -6.85  2.52  4.22
 H -0.84  2.01  4.23
 H -1.33  1.19  5.71
 H -3.06  1.13  3.16
 H -3.15  2.45  4.31
 H -3.72  0.74  6.15
 H -3.81 -0.49  4.91
 H -5.70  0.48  3.95
 H -5.61  3.82  6.13
 H -4.57  2.55  6.54
 H -7.30  3.38  4.56
 N -1.26 -1.70  5.84
 C -1.89 -2.83  6.49
 H -0.68 -1.08  6.40
 H -1.15 -3.45  7.01
 H -2.38 -3.43  5.72
 H -2.65 -2.50  7.22
