35
#
 C  0.39 -0.21  0.75
 C -0.04 -0.44  2.19
 O  0.80 -0.44  3.11
 H  0.37 -1.15  0.19
 H  1.42  0.17  0.76
 H -0.26  0.50  0.23
 N -1.36 -0.62  2.44
 C -2.40 -0.99  1.48
 C -3.80 -0.60  1.99
 O -4.60 -0.03  1.24
 H -1.58 -0.76  3.42
 H -2.28 -0.37  0.59
 C -2.37 -2.47  1.00
 C -2.75 -3.60  1.98
 C -1.64 -4.23  2.83
 N -0.82 -3.34  3.64
 C -1.25 -2.69  4.76
 N -0.22 -2.02  5.43
 N -2.51 -2.72  5.10
 H -1.37 -2.67  0.58
 H -3.06 -2.51  0.15
 H -3.17 -4.43  1.39
 H -3.57 -3.27  2.64
 H -0.94 -4.76  2.17
 H -2.11 -4.98  3.49
 H  0.18 -3.32  3.46
 H -0.57 -1.41  6.17
 H  0.41 -1.50  4.80
 H -2.66 -2.20  5.96
 N -4.10 -0.90  3.28
 C -5.42 -0.61  3.82
 H -3.51 -1.55  3.83
 H -6.21 -1.15  3.28
 H -5.64  0.46  3.74
 H -5.44 -0.90  4.88
