35
#
 C -0.53  0.25  0.78
 C -0.38  0.01  2.26
 O  0.52  0.53  2.92
 H  0.02  1.17  0.53
 H -1.57  0.34  0.44
 H -0.08 -0.58  0.22
 N -1.26 -0.85  2.88
 C -2.44 -1.54  2.37
 C -2.17 -2.32  1.06
 O -2.83 -2.14  0.04
 H -1.06 -0.94  3.87
 H -2.68 -2.31  3.13
 C -3.68 -0.65  2.22
 C -4.11 -0.01  3.54
 C -5.33  0.90  3.38
 N -5.71  1.48  4.66
 C -6.75  2.40  4.78
 N -6.82  3.33  3.74
 N -7.54  2.30  5.79
 H -4.50 -1.26  1.81
 H -3.48  0.13  1.47
 H -3.29  0.58  3.97
 H -4.35 -0.80  4.28
 H -6.16  0.33  2.92
 H -5.08  1.70  2.67
 H -5.80  0.80  5.41
 H -7.44  4.11  3.93
 H -5.93  3.63  3.36
 H -8.18  3.10  5.85
 N -1.16 -3.25  1.09
 C -0.31 -3.65  2.20
 H -1.03 -3.71  0.20
 H -0.88 -3.75  3.13
 H  0.12 -4.63  1.97
 H  0.52 -2.94  2.37
