35
#
 C  0.05 -0.02  0.20
 C -0.01 -0.12  1.71
 O  0.99 -0.05  2.41
 H  1.05 -0.31 -0.12
 H -0.11  1.03 -0.09
 H -0.70 -0.62 -0.32
 N -1.25 -0.32  2.31
 C -2.58 -0.26  1.69
 C -2.86 -1.46  0.75
 O -3.66 -1.38 -0.17
 H -1.20 -0.25  3.32
 H -3.27 -0.42  2.54
 C -2.95  1.10  1.04
 C -4.30  1.68  1.47
 C -5.54  0.92  0.98
 N -6.80  1.57  1.29
 C -7.26  2.66  0.56
 N -8.38  3.26  1.17
 N -6.81  3.15 -0.54
 H -2.92  0.99 -0.05
 H -2.16  1.82  1.32
 H -4.36  2.72  1.10
 H -4.34  1.75  2.57
 H -5.57 -0.10  1.40
 H -5.48  0.77 -0.11
 H -7.04  1.60  2.28
 H -8.78  3.95  0.54
 H -9.08  2.60  1.50
 H -5.93  2.71 -0.81
 N -2.20 -2.61  1.08
 C -2.35 -3.84  0.34
 H -1.51 -2.54  1.82
 H -2.63 -4.67  1.00
 H -1.42 -4.11 -0.18
 H -3.14 -3.69 -0.41
