35
#
 C -2.63 -0.48  1.18
 C -2.31 -0.27  2.64
 O -1.86  0.80  3.06
 H -2.73 -1.54  0.90
 H -1.86 -0.01  0.57
 H -3.59  0.02  0.98
 N -2.56 -1.34  3.46
 C -2.60 -1.21  4.92
 C -1.80 -2.30  5.65
 O -2.03 -2.57  6.83
 H -3.09 -2.11  3.06
 H -2.05 -0.27  5.11
 C -4.05 -1.09  5.45
 C -4.24 -0.12  6.62
 C -3.77  1.34  6.35
 N -3.93  1.83  4.99
 C -5.16  1.95  4.37
 N -5.05  2.06  2.97
 N -6.34  1.94  4.90
 H -4.40 -2.08  5.75
 H -4.68 -0.75  4.61
 H -3.72 -0.49  7.51
 H -5.32 -0.12  6.86
 H -2.70  1.43  6.57
 H -4.28  2.02  7.05
 H -3.15  1.64  4.37
 H -4.24  2.58  2.65
 H -5.92  2.43  2.58
 H -6.29  1.77  5.91
 N -0.82 -2.89  4.91
 C  0.10 -3.86  5.47
 H -0.70 -2.57  3.96
 H -0.24 -4.10  6.49
 H  1.12 -3.46  5.53
 H  0.11 -4.79  4.88
