35
#
 C -0.08 -0.08  0.09
 C -0.07  0.18  1.59
 O  0.93  0.56  2.19
 H  0.58 -0.93 -0.11
 H  0.35  0.79 -0.42
 H -1.07 -0.29 -0.32
 N -1.27 -0.02  2.22
 C -1.46  0.06  3.67
 C -0.77  1.30  4.30
 O -0.02  1.18  5.27
 H -2.05 -0.38  1.67
 H -2.55  0.21  3.81
 C -1.03 -1.24  4.38
 C -1.62 -1.46  5.77
 C -3.13 -1.74  5.78
 N -3.71 -2.07  7.07
 C -3.44 -3.23  7.77
 N -3.20 -4.37  6.99
 N -3.53 -3.21  9.06
 H  0.07 -1.23  4.44
 H -1.31 -2.08  3.72
 H -1.40 -0.60  6.42
 H -1.11 -2.32  6.23
 H -3.38 -2.54  5.06
 H -3.69 -0.86  5.41
 H -3.81 -1.29  7.72
 H -2.72 -5.11  7.47
 H -2.85 -4.22  6.05
 H -3.42 -4.14  9.46
 N -1.12  2.53  3.83
 C -1.93  2.89  2.68
 H -0.58  3.27  4.27
 H -2.27  3.92  2.81
 H -2.83  2.26  2.62
 H -1.39  2.81  1.73
