35
#
 C  0.22  0.04  0.10
 C  0.15  0.10  1.61
 O  1.15  0.30  2.31
 H  0.94 -0.74 -0.19
 H  0.61  1.00 -0.27
 H -0.74 -0.16 -0.38
 N -1.09 -0.08  2.15
 C -1.34  0.01  3.59
 C -1.04 -1.34  4.31
 O -1.91 -2.04  4.83
 H -1.85 -0.33  1.54
 H -0.60  0.72  3.96
 C -2.73  0.59  3.91
 C -4.00 -0.22  3.62
 C -4.26 -0.59  2.16
 N -5.59 -1.15  2.01
 C -6.07 -1.51  0.75
 N -7.29 -2.18  0.82
 N -5.53 -1.28 -0.40
 H -2.79  1.56  3.39
 H -2.73  0.83  4.98
 H -4.86  0.38  3.97
 H -3.98 -1.14  4.23
 H -3.49 -1.32  1.81
 H -4.19  0.31  1.52
 H -5.87 -1.79  2.75
 H -7.69 -2.30 -0.11
 H -7.96 -1.79  1.48
 H -4.58 -0.91 -0.30
 N  0.29 -1.64  4.31
 C  0.81 -2.87  4.85
 H  0.90 -1.00  3.80
 H  1.61 -2.67  5.58
 H  1.22 -3.52  4.06
 H -0.00 -3.40  5.36
