35
#
 C -0.10  0.11 -0.06
 C -0.07 -0.25  1.42
 O  0.89 -0.81  1.95
 H  0.69  0.85 -0.25
 H -1.06  0.51 -0.40
 H  0.15 -0.79 -0.64
 N -1.20  0.08  2.12
 C -1.31 -0.11  3.56
 C -1.11 -1.56  4.07
 O -0.52 -1.74  5.13
 H -1.96  0.55  1.64
 H -0.49  0.42  4.06
 C -2.66  0.46  4.04
 C -2.86  0.44  5.55
 C -4.19  1.08  5.96
 N -4.35  1.03  7.41
 C -5.48  1.52  8.04
 N -5.97  2.71  7.49
 N -5.98  0.86  9.03
 H -3.48 -0.09  3.55
 H -2.72  1.50  3.67
 H -2.03  0.98  6.05
 H -2.81 -0.59  5.92
 H -5.02  0.57  5.43
 H -4.20  2.13  5.62
 H -4.11  0.12  7.81
 H -6.66  3.17  8.07
 H -5.27  3.36  7.15
 H -6.72  1.39  9.50
 N -1.68 -2.62  3.40
 C -2.36 -2.68  2.12
 H -1.44 -3.50  3.83
 H -2.89 -3.64  2.06
 H -1.67 -2.61  1.26
 H -3.11 -1.89  2.02
