35
#
 C -1.36  1.55  0.61
 C -1.21  1.19  2.08
 O -1.30  2.04  2.97
 H -0.62  2.32  0.36
 H -2.36  1.98  0.45
 H -1.23  0.69 -0.06
 N -1.00 -0.13  2.34
 C -0.74 -0.61  3.69
 C  0.11 -1.88  3.56
 O  0.20 -2.49  2.49
 H -0.79 -0.80  1.61
 H -0.17  0.17  4.22
 C -2.05 -0.85  4.48
 C -2.90 -2.01  3.96
 C -4.27 -2.12  4.65
 N -5.16 -0.99  4.35
 C -5.78 -0.20  5.30
 N -5.05 -0.03  6.48
 N -6.93  0.37  5.20
 H -2.62  0.09  4.44
 H -1.79 -1.03  5.54
 H -2.37 -2.97  4.09
 H -3.05 -1.89  2.87
 H -4.14 -2.17  5.74
 H -4.75 -3.06  4.34
 H -5.70 -1.09  3.50
 H -5.51  0.65  7.08
 H -4.06  0.18  6.34
 H -7.43  0.05  4.36
 N  0.69 -2.30  4.71
 C  1.49 -3.51  4.80
 H  0.60 -1.72  5.53
 H  2.53 -3.29  5.04
 H  1.45 -4.01  3.83
 H  1.08 -4.19  5.57
