35
#
 C -0.19  0.51  1.99
 C -0.79 -0.60  2.82
 O -0.10 -1.31  3.55
 H -0.44  1.50  2.42
 H -0.53  0.47  0.95
 H  0.90  0.40  2.03
 N -2.16 -0.79  2.81
 C -3.23 -0.25  1.99
 C -3.20 -0.77  0.53
 O -2.15 -1.05 -0.04
 H -2.40 -1.61  3.37
 H -4.15 -0.63  2.46
 C -3.35  1.28  1.98
 C -3.53  1.89  3.37
 C -3.99  3.36  3.34
 N -5.31  3.54  2.73
 C -5.52  3.69  1.37
 N -4.62  4.56  0.75
 N -6.47  3.03  0.80
 H -4.23  1.53  1.37
 H -2.49  1.73  1.47
 H -2.59  1.82  3.95
 H -4.27  1.30  3.94
 H -3.27  3.96  2.77
 H -4.02  3.76  4.36
 H -6.02  2.91  3.11
 H -4.84  4.79 -0.21
 H -4.34  5.38  1.30
 H -6.64  3.36 -0.15
 N -4.41 -0.88 -0.10
 C -5.75 -0.60  0.41
 H -4.32 -1.17 -1.07
 H -6.47 -1.00 -0.31
 H -5.95  0.47  0.53
 H -5.93 -1.11  1.36
