35
#
 C  0.29 -0.46  3.67
 C -0.60  0.38  4.57
 O -0.75  0.14  5.76
 H -0.33 -1.13  3.07
 H  0.93 -1.08  4.32
 H  0.91  0.14  3.00
 N -1.26  1.45  4.00
 C -1.49  1.72  2.58
 C -1.41  3.24  2.27
 O -1.92  3.71  1.26
 H -1.92  1.87  4.65
 H -0.64  1.28  2.03
 C -2.78  1.11  2.01
 C -4.06  1.43  2.80
 C -4.49  0.38  3.83
 N -4.81 -0.91  3.24
 C -3.92 -1.98  3.20
 N -4.29 -2.95  2.26
 N -2.84 -2.17  3.89
 H -2.65  0.02  1.94
 H -2.87  1.49  0.99
 H -4.89  1.56  2.08
 H -3.97  2.41  3.30
 H -5.38  0.75  4.37
 H -3.72  0.22  4.59
 H -5.41 -0.86  2.42
 H -5.29 -3.14  2.22
 H -3.75 -3.80  2.40
 H -2.63 -1.38  4.51
 N -0.70  3.97  3.17
 C -0.44  5.38  3.00
 H -0.29  3.47  3.96
 H  0.63  5.58  2.81
 H -0.74  5.95  3.89
 H -1.02  5.73  2.14
