35
#
 C -0.06  0.12  0.17
 C -0.40  0.47  1.61
 O  0.46  0.81  2.41
 H  1.01  0.32  0.03
 H -0.62  0.72 -0.56
 H -0.26 -0.94 -0.05
 N -1.72  0.39  1.99
 C -2.89 -0.06  1.24
 C -4.03  0.95  1.50
 O -4.90  0.73  2.34
 H -1.86  0.60  2.98
 H -2.62 -0.04  0.17
 C -3.35 -1.47  1.61
 C -2.33 -2.57  1.37
 C -2.85 -3.96  1.77
 N -3.98 -4.41  0.96
 C -5.24 -4.73  1.45
 N -5.60 -4.05  2.61
 N -6.07 -5.58  0.93
 H -4.27 -1.69  1.04
 H -3.65 -1.45  2.67
 H -1.41 -2.38  1.95
 H -2.03 -2.59  0.31
 H -3.16 -3.96  2.82
 H -2.03 -4.69  1.69
 H -3.73 -4.95  0.13
 H -6.57 -4.24  2.84
 H -5.39 -3.05  2.62
 H -5.63 -6.12  0.19
 N -4.00  2.12  0.79
 C -2.99  2.59 -0.14
 H -4.73  2.77  1.06
 H -2.02  2.77  0.35
 H -3.34  3.53 -0.59
 H -2.84  1.88 -0.97
