35
#
 C -0.18 -0.05 -0.32
 C -0.03  0.00  1.18
 O  1.07 -0.01  1.73
 H -0.35 -1.09 -0.62
 H  0.76  0.29 -0.77
 H -1.01  0.56 -0.70
 N -1.17  0.06  1.95
 C -2.53 -0.31  1.54
 C -3.58  0.37  2.46
 O -4.70 -0.11  2.62
 H -0.96 -0.05  2.94
 H -2.71  0.15  0.55
 C -2.79 -1.82  1.40
 C -2.44 -2.71  2.60
 C -0.96 -3.01  2.85
 N -0.29 -3.45  1.62
 C  1.07 -3.77  1.60
 N  1.88 -2.87  2.29
 N  1.43 -4.84  0.99
 H -2.24 -2.17  0.52
 H -3.86 -1.92  1.18
 H -2.96 -3.67  2.45
 H -2.87 -2.29  3.53
 H -0.88 -3.77  3.65
 H -0.42 -2.13  3.23
 H -0.78 -4.23  1.17
 H  2.87 -3.03  2.15
 H  1.63 -1.88  2.22
 H  2.45 -4.90  0.91
 N -3.17  1.53  3.04
 C -4.04  2.35  3.86
 H -2.24  1.87  2.80
 H -3.56  2.61  4.81
 H -4.95  1.77  4.07
 H -4.33  3.27  3.34
