35
#
 C  1.22 -1.36  0.42
 C  0.80 -1.61  1.85
 O  1.39 -2.43  2.56
 H  2.25 -1.72  0.30
 H  1.16 -0.31  0.13
 H  0.59 -1.94 -0.27
 N -0.25 -0.89  2.36
 C -1.33 -0.24  1.60
 C -1.55  1.24  2.00
 O -2.52  1.86  1.57
 H -0.49 -1.19  3.30
 H -1.01 -0.21  0.55
 C -2.65 -1.03  1.66
 C -2.54 -2.45  1.08
 C -2.16 -3.53  2.10
 N -1.66 -4.73  1.44
 C -0.90 -5.70  2.11
 N  0.01 -5.19  3.02
 N -1.13 -6.94  1.83
 H -3.39 -0.43  1.12
 H -3.00 -1.07  2.71
 H -1.80 -2.47  0.27
 H -3.50 -2.72  0.62
 H -3.02 -3.74  2.76
 H -1.36 -3.17  2.76
 H -2.35 -5.21  0.87
 H  0.66 -5.88  3.37
 H  0.47 -4.30  2.81
 H -0.43 -7.55  2.26
 N -0.60  1.77  2.80
 C -0.62  3.16  3.23
 H  0.18  1.17  3.06
 H -1.55  3.61  2.86
 H  0.23  3.72  2.82
 H -0.59  3.23  4.33
