35
#
 C -1.34  1.57  0.55
 C -0.93  1.05  1.92
 O  0.19  0.57  2.12
 H -1.32  0.73 -0.16
 H -0.60  2.30  0.22
 H -2.34  2.03  0.52
 N -1.89  1.17  2.89
 C -1.92  0.67  4.27
 C -1.73  1.73  5.38
 O -2.41  1.61  6.41
 H -2.76  1.60  2.59
 H -2.98  0.40  4.43
 C -1.14 -0.64  4.56
 C  0.34 -0.58  4.97
 C  0.59 -0.27  6.45
 N -0.03 -1.25  7.34
 C -0.52 -0.97  8.62
 N -1.03  0.31  8.77
 N -0.52 -1.78  9.62
 H -1.25 -1.27  3.66
 H -1.69 -1.14  5.37
 H  0.90  0.13  4.35
 H  0.78 -1.56  4.75
 H  0.21  0.72  6.73
 H  1.68 -0.23  6.62
 H  0.40 -2.17  7.30
 H -1.58  0.69  8.00
 H -1.49  0.40  9.67
 H  0.01 -2.63  9.41
 N -0.87  2.77  5.24
 C  0.10  3.08  4.20
 H -0.90  3.39  6.05
 H  0.95  3.60  4.67
 H -0.32  3.74  3.43
 H  0.49  2.18  3.73
