35
#
 C  1.34  1.32 -0.05
 C  0.76  2.34  0.91
 O  0.93  3.55  0.75
 H  1.85  1.87 -0.85
 H  0.56  0.69 -0.49
 H  2.06  0.67  0.45
 N  0.03  1.89  1.99
 C -0.24  0.52  2.44
 C  1.09 -0.22  2.78
 O  1.83  0.32  3.60
 H -0.19  2.64  2.64
 H -0.64  0.66  3.45
 C -1.34 -0.17  1.62
 C -2.67  0.58  1.61
 C -3.34  0.75  2.99
 N -3.47 -0.47  3.79
 C -4.11 -1.62  3.34
 N -5.19 -1.39  2.50
 N -3.79 -2.84  3.63
 H -1.50 -1.18  2.03
 H -1.02 -0.31  0.58
 H -3.37  0.04  0.96
 H -2.54  1.58  1.17
 H -4.33  1.21  2.85
 H -2.78  1.47  3.61
 H -2.67 -0.68  4.38
 H -5.72 -2.24  2.34
 H -5.78 -0.59  2.75
 H -2.91 -2.88  4.15
 N  1.43 -1.43  2.25
 C  0.88 -2.25  1.18
 H  2.31 -1.75  2.65
 H -0.06 -2.73  1.45
 H  0.73 -1.68  0.25
 H  1.61 -3.04  0.96
