35
#
 C -0.03 -1.72 -1.52
 C  0.34 -0.72 -0.44
 O  1.36 -0.03 -0.52
 H  0.89 -1.99 -2.06
 H -0.71 -1.24 -2.23
 H -0.52 -2.63 -1.14
 N -0.51 -0.57  0.63
 C -1.75 -1.27  0.99
 C -1.53 -2.78  1.19
 O -2.08 -3.64  0.49
 H -0.19  0.15  1.27
 H -2.02 -0.86  1.97
 C -2.93 -1.00  0.05
 C -3.18  0.48 -0.23
 C -3.43  1.36  1.00
 N -4.57  0.93  1.81
 C -4.43  0.39  3.07
 N -5.65  0.22  3.73
 N -3.26  0.12  3.55
 H -3.82 -1.44  0.52
 H -2.81 -1.54 -0.89
 H -4.04  0.57 -0.92
 H -2.32  0.91 -0.77
 H -2.56  1.37  1.67
 H -3.60  2.40  0.68
 H -5.46  1.38  1.62
 H -5.59 -0.37  4.55
 H -6.43 -0.05  3.13
 H -3.34 -0.32  4.47
 N -0.69 -3.14  2.21
 C  0.02 -2.29  3.14
 H -0.54 -4.15  2.27
 H  0.94 -1.87  2.71
 H  0.29 -2.88  4.02
 H -0.62 -1.46  3.48
