35
#
 C -0.23  1.93  0.20
 C  0.11  0.61  0.86
 O  1.26  0.24  1.07
 H  0.70  2.48  0.04
 H -0.91  2.53  0.81
 H -0.72  1.76 -0.77
 N -0.95 -0.19  1.25
 C -2.37  0.03  0.98
 C -3.03  1.08  1.91
 O -4.06  1.65  1.57
 H -0.67 -1.10  1.59
 H -2.51  0.42 -0.04
 C -3.10 -1.32  1.10
 C -4.56 -1.31  0.64
 C -5.23 -2.68  0.73
 N -4.60 -3.64 -0.17
 C -4.87 -5.00 -0.08
 N -4.29 -5.73 -1.13
 N -5.57 -5.62  0.81
 H -3.05 -1.67  2.14
 H -2.54 -2.05  0.49
 H -4.62 -0.94 -0.40
 H -5.14 -0.60  1.24
 H -6.31 -2.58  0.53
 H -5.12 -3.07  1.75
 H -4.50 -3.31 -1.13
 H -4.40 -6.72 -0.98
 H -3.33 -5.47 -1.34
 H -6.06 -4.97  1.43
 N -2.40  1.27  3.10
 C -2.88  2.20  4.11
 H -1.52  0.79  3.24
 H -3.81  2.64  3.73
 H -2.16  3.00  4.29
 H -3.09  1.68  5.05
