35
#
 C -2.28  0.59  0.36
 C -0.90  0.80  0.94
 O -0.22  1.80  0.69
 H -2.39 -0.41 -0.09
 H -2.45  1.36 -0.40
 H -3.05  0.67  1.14
 N -0.41 -0.17  1.78
 C -1.12 -1.33  2.31
 C -2.33 -0.99  3.22
 O -3.37 -1.65  3.09
 H  0.51  0.03  2.14
 H -1.58 -1.89  1.49
 C -0.10 -2.27  2.99
 C -0.69 -3.58  3.54
 C -1.19 -3.49  5.00
 N -1.80 -4.71  5.50
 C -1.10 -5.90  5.66
 N  0.22 -5.73  6.08
 N -1.54 -7.10  5.47
 H  0.43 -1.73  3.79
 H  0.65 -2.50  2.23
 H  0.08 -4.36  3.50
 H -1.52 -3.92  2.90
 H -1.94 -2.69  5.10
 H -0.35 -3.21  5.65
 H -2.74 -4.87  5.13
 H  0.63 -6.62  6.34
 H  0.36 -5.03  6.80
 H -2.46 -7.09  5.03
 N -2.24  0.00  4.15
 C -1.12  0.86  4.51
 H -3.11  0.14  4.65
 H -0.20  0.29  4.66
 H -1.36  1.34  5.47
 H -0.93  1.65  3.77
