35
#
 C -1.62  1.35  0.75
 C -1.51  1.42  2.26
 O -1.37  2.49  2.86
 H -1.33  2.33  0.36
 H -2.66  1.16  0.45
 H -0.98  0.58  0.32
 N -1.56  0.25  2.96
 C -2.02 -1.08  2.54
 C -1.01 -1.70  1.53
 O  0.15 -1.83  1.90
 H -1.42  0.39  3.96
 H -1.83 -1.72  3.42
 C -3.54 -1.13  2.29
 C -4.38 -0.75  3.53
 C -5.31  0.44  3.29
 N -4.59  1.66  2.97
 C -4.78  2.37  1.81
 N -4.09  3.59  1.81
 N -5.53  1.89  0.87
 H -3.80 -2.15  1.97
 H -3.82 -0.47  1.46
 H -3.72 -0.53  4.38
 H -4.99 -1.61  3.84
 H -5.95  0.60  4.17
 H -5.97  0.25  2.43
 H -4.11  2.14  3.72
 H -4.05  4.03  0.89
 H -3.17  3.56  2.25
 H -5.53  2.52  0.06
 N -1.38 -2.15  0.29
 C -2.60 -2.03 -0.49
 H -0.59 -2.57 -0.18
 H -2.36 -2.28 -1.53
 H -3.01 -1.01 -0.49
 H -3.39 -2.72 -0.16
