35
#
 C  0.52  1.64  3.28
 C  0.30  0.45  4.20
 O  1.03  0.23  5.17
 H -0.38  2.26  3.19
 H  0.78  1.30  2.27
 H  1.34  2.24  3.69
 N -0.77 -0.38  3.92
 C -1.64 -0.30  2.76
 C -2.74  0.78  2.85
 O -3.35  1.14  1.84
 H -0.75 -1.27  4.45
 H -1.07 -0.05  1.85
 C -2.33 -1.66  2.55
 C -1.34 -2.80  2.29
 C -1.80 -4.18  2.79
 N -2.40 -4.24  4.12
 C -1.80 -3.80  5.27
 N -2.54 -4.14  6.42
 N -0.71 -3.09  5.24
 H -3.05 -1.56  1.73
 H -2.91 -1.88  3.46
 H -0.38 -2.58  2.77
 H -1.14 -2.89  1.21
 H -0.93 -4.87  2.76
 H -2.56 -4.60  2.11
 H -3.39 -4.43  4.17
 H -2.09 -3.88  7.29
 H -2.90 -5.09  6.43
 H -0.33 -2.95  6.18
 N -2.99  1.24  4.10
 C -4.00  2.23  4.40
 H -2.39  0.88  4.84
 H -4.49  2.50  3.45
 H -3.55  3.14  4.84
 H -4.76  1.84  5.09
