35
#
 C -1.07 -1.54  0.47
 C -0.58 -0.63  1.58
 O  0.41  0.09  1.45
 H -0.30 -2.29  0.26
 H -1.20 -0.95 -0.45
 H -2.01 -2.05  0.71
 N -1.32 -0.68  2.72
 C -0.98  0.12  3.88
 C -0.73 -0.78  5.10
 O -1.40 -1.78  5.36
 H -2.13 -1.31  2.79
 H -0.03  0.60  3.60
 C -2.01  1.26  4.16
 C -3.49  0.91  3.93
 C -4.12 -0.02  4.98
 N -5.22 -0.85  4.49
 C -5.05 -1.91  3.60
 N -3.75 -2.42  3.53
 N -5.96 -2.43  2.86
 H -1.75  2.09  3.48
 H -1.85  1.64  5.18
 H -3.58  0.43  2.94
 H -4.06  1.84  3.87
 H -4.51  0.57  5.82
 H -3.36 -0.68  5.42
 H -6.11 -0.38  4.38
 H -3.18 -2.40  4.38
 H -3.77 -3.34  3.09
 H -6.84 -1.92  2.93
 N  0.30 -0.36  5.89
 C  0.68 -1.03  7.11
 H  0.85  0.42  5.56
 H  1.68 -1.49  7.02
 H -0.05 -1.82  7.31
 H  0.69 -0.33  7.96
