35
#
 C  0.14 -0.00  0.86
 C -0.17  0.01  2.34
 O  0.69 -0.29  3.18
 H  0.84 -0.82  0.67
 H  0.65  0.93  0.59
 H -0.75 -0.10  0.22
 N -1.43  0.35  2.75
 C -2.49  1.10  2.08
 C -3.29  0.19  1.12
 O -3.22  0.30 -0.11
 H -1.53  0.32  3.76
 H -3.16  1.37  2.91
 C -2.07  2.40  1.37
 C -1.04  3.30  2.07
 C -1.34  3.77  3.52
 N -0.72  2.97  4.56
 C -1.32  1.96  5.28
 N -0.40  1.08  5.84
 N -2.59  1.78  5.48
 H -3.00  2.98  1.20
 H -1.70  2.16  0.37
 H -0.93  4.19  1.44
 H -0.05  2.81  2.08
 H -2.43  3.79  3.70
 H -1.00  4.80  3.64
 H  0.29  2.96  4.58
 H -0.87  0.37  6.40
 H  0.27  0.67  5.17
 H -3.14  2.59  5.17
 N -4.08 -0.76  1.70
 C -4.17 -1.13  3.10
 H -4.51 -1.38  1.02
 H -3.37 -1.82  3.41
 H -5.14 -1.63  3.27
 H -4.13 -0.25  3.76
