35
#
 C  1.26 -1.00  2.12
 C  0.61 -0.57  3.42
 O  1.01 -0.97  4.52
 H  0.64 -0.78  1.24
 H  1.46 -2.08  2.16
 H  2.22 -0.49  2.02
 N -0.43  0.30  3.29
 C -1.20  0.77  4.44
 C -2.27 -0.30  4.80
 O -3.47 -0.17  4.53
 H -0.91  0.39  2.38
 H -0.49  0.80  5.28
 C -1.80  2.18  4.24
 C -2.09  2.70  2.82
 C -3.08  1.90  1.95
 N -2.41  0.80  1.23
 C -3.08 -0.37  0.84
 N -4.02 -0.83  1.73
 N -2.74 -0.88 -0.30
 H -1.10  2.89  4.70
 H -2.72  2.22  4.83
 H -1.15  2.82  2.26
 H -2.49  3.71  2.94
 H -3.57  2.58  1.24
 H -3.87  1.48  2.58
 H -1.89  1.13  0.42
 H -4.38 -1.76  1.54
 H -3.92 -0.61  2.72
 H -3.18 -1.78 -0.46
 N -1.74 -1.38  5.42
 C -2.52 -2.56  5.73
 H -0.72 -1.41  5.47
 H -2.22 -2.96  6.71
 H -2.38 -3.35  4.97
 H -3.58 -2.29  5.76
