35
#
 C -1.14  0.53 -0.37
 C -0.61  0.83  1.02
 O  0.41  1.49  1.17
 H -0.50 -0.25 -0.82
 H -1.02  1.43 -0.98
 H -2.18  0.18 -0.42
 N -1.23  0.27  2.12
 C -2.60 -0.24  2.30
 C -2.97 -1.40  1.35
 O -4.11 -1.55  0.92
 H -0.77  0.58  2.97
 H -2.58 -0.72  3.29
 C -3.70  0.84  2.39
 C -3.88  1.76  1.18
 C -4.98  2.81  1.43
 N -5.18  3.72  0.31
 C -4.69  5.01  0.23
 N -3.61  5.27  1.07
 N -5.15  5.96 -0.51
 H -3.47  1.46  3.28
 H -4.64  0.32  2.60
 H -4.15  1.17  0.29
 H -2.94  2.28  0.95
 H -4.74  3.40  2.33
 H -5.93  2.29  1.64
 H -5.99  3.54 -0.28
 H -3.23  6.19  0.87
 H -2.88  4.56  1.09
 H -6.04  5.70 -0.96
 N -1.95 -2.27  1.11
 C -2.09 -3.42  0.24
 H -1.03 -2.01  1.45
 H -1.70 -4.32  0.73
 H -1.55 -3.28 -0.71
 H -3.15 -3.55  0.02
