35
#
 C -0.13 -0.56 -0.18
 C  0.17 -0.40  1.30
 O  1.32 -0.40  1.73
 H  0.70 -0.13 -0.74
 H -1.08 -0.12 -0.51
 H -0.17 -1.64 -0.41
 N -0.90 -0.33  2.18
 C -2.30 -0.03  1.91
 C -2.98 -1.11  1.02
 O -3.84 -0.83  0.19
 H -0.57 -0.16  3.13
 H -2.80 -0.12  2.89
 C -2.56  1.40  1.39
 C -3.96  1.94  1.70
 C -4.13  3.43  1.35
 N -4.03  3.77 -0.06
 C -5.09  3.58 -0.95
 N -4.72  3.88 -2.27
 N -6.29  3.20 -0.70
 H -2.37  1.44  0.31
 H -1.81  2.05  1.87
 H -4.17  1.82  2.77
 H -4.70  1.33  1.16
 H -3.37  4.02  1.88
 H -5.10  3.78  1.71
 H -3.11  3.70 -0.48
 H -5.53  3.84 -2.88
 H -4.20  4.75 -2.38
 H -6.39  2.87  0.26
 N -2.57 -2.38  1.29
 C -3.09 -3.54  0.58
 H -1.79 -2.49  1.93
 H -3.44 -4.30  1.28
 H -2.32 -3.98 -0.07
 H -3.92 -3.20 -0.04
