35
#
 C  0.64 -0.72  0.31
 C  0.42  0.35  1.36
 O  1.30  1.13  1.71
 H -0.25 -1.31  0.08
 H  1.43 -1.40  0.67
 H  1.01 -0.25 -0.60
 N -0.84  0.40  1.90
 C -1.25  1.35  2.92
 C -0.95  2.83  2.56
 O -0.43  3.60  3.36
 H -1.54 -0.25  1.55
 H -2.35  1.29  2.93
 C -0.69  1.01  4.31
 C -1.45 -0.08  5.08
 C -2.76  0.36  5.77
 N -3.89  0.65  4.89
 C -4.18  1.85  4.25
 N -3.60  2.98  4.79
 N -4.98  1.98  3.24
 H -0.64  1.93  4.90
 H  0.36  0.70  4.18
 H -0.80 -0.46  5.88
 H -1.66 -0.94  4.43
 H -2.58  1.24  6.40
 H -3.08 -0.43  6.46
 H -4.28 -0.15  4.42
 H -3.74  3.79  4.20
 H -2.65  2.92  5.15
 H -5.44  1.10  3.01
 N -1.38  3.27  1.34
 C -2.27  2.61  0.39
 H -1.16  4.24  1.18
 H -2.72  3.38 -0.25
 H -3.09  2.10  0.91
 H -1.74  1.89 -0.25
