35
#
 C -0.15  1.19  0.06
 C -0.11  0.86  1.54
 O  0.55  1.51  2.35
 H -0.61  2.18 -0.07
 H -0.70  0.46 -0.55
 H  0.88  1.27 -0.31
 N -0.85 -0.23  1.92
 C -0.99 -0.63  3.31
 C  0.33 -0.91  4.08
 O  0.40 -0.57  5.26
 H -1.39 -0.72  1.22
 H -1.43  0.20  3.89
 C -1.94 -1.84  3.38
 C -2.29 -2.30  4.80
 C -3.29 -3.46  4.79
 N -3.65 -3.94  6.12
 C -4.84 -3.65  6.78
 N -5.47 -2.48  6.34
 N -5.39 -4.35  7.71
 H -1.49 -2.69  2.83
 H -2.86 -1.57  2.85
 H -2.70 -1.45  5.37
 H -1.38 -2.60  5.35
 H -2.87 -4.30  4.23
 H -4.21 -3.16  4.27
 H -3.20 -4.78  6.44
 H -6.27 -2.28  6.93
 H -4.86 -1.68  6.23
 H -4.92 -5.25  7.84
 N  1.34 -1.62  3.49
 C  1.52 -2.06  2.12
 H  2.14 -1.69  4.10
 H  2.31 -2.81  2.10
 H  1.80 -1.24  1.44
 H  0.61 -2.54  1.72
