35
#
 C -1.14  0.39  1.48
 C -2.02  0.35  2.70
 O -2.05 -0.64  3.44
 H -1.45  1.09  0.70
 H -1.09 -0.63  1.07
 H -0.12  0.67  1.80
 N -2.79  1.44  3.04
 C -3.04  2.73  2.40
 C -3.19  2.66  0.86
 O -2.54  3.37  0.10
 H -3.28  1.28  3.91
 H -4.05  3.02  2.74
 C -2.12  3.89  2.83
 C -0.60  3.71  2.69
 C  0.08  3.02  3.89
 N  1.52  3.18  3.94
 C  2.36  2.38  3.19
 N  3.70  2.79  3.29
 N  1.91  1.40  2.49
 H -2.35  4.11  3.88
 H -2.43  4.76  2.25
 H -0.16  4.72  2.60
 H -0.34  3.19  1.76
 H -0.13  1.95  3.91
 H -0.33  3.45  4.82
 H  1.86  4.13  4.06
 H  4.36  2.13  2.88
 H  4.00  3.08  4.22
 H  2.67  0.83  2.12
 N -4.14  1.80  0.37
 C -5.04  0.90  1.08
 H -4.17  1.79 -0.65
 H -5.88  0.66  0.41
 H -5.45  1.38  1.97
 H -4.55 -0.04  1.38
