35
#
 C  0.41 -0.74 -0.54
 C -0.13 -0.29  0.81
 O -0.66  0.82  0.97
 H  1.23 -0.07 -0.83
 H -0.39 -0.63 -1.29
 H  0.76 -1.78 -0.54
 N  0.02 -1.19  1.82
 C -0.48 -0.95  3.16
 C  0.67 -1.22  4.16
 O  0.72 -2.22  4.87
 H  0.46 -2.10  1.64
 H -0.72  0.12  3.19
 C -1.80 -1.71  3.48
 C -2.00 -3.07  2.80
 C -1.22 -4.26  3.41
 N -0.72 -5.22  2.44
 C  0.35 -4.98  1.59
 N  1.23 -3.97  2.03
 N  0.61 -5.56  0.47
 H -2.62 -1.05  3.17
 H -1.88 -1.81  4.58
 H -1.73 -2.97  1.74
 H -3.08 -3.30  2.80
 H -1.86 -4.81  4.11
 H -0.39 -3.88  4.02
 H -1.42 -5.84  2.03
 H  2.12 -4.07  1.54
 H  1.36 -3.91  3.04
 H -0.14 -6.20  0.20
 N  1.65 -0.28  4.21
 C  1.85  0.89  3.37
 H  2.41 -0.54  4.84
 H  2.40  1.65  3.95
 H  0.90  1.33  3.06
 H  2.43  0.66  2.46
