35
#
 C -2.21  2.23  2.70
 C -1.53  1.37  3.75
 O -0.50  1.70  4.33
 H -1.54  3.06  2.44
 H -3.16  2.63  3.09
 H -2.45  1.65  1.80
 N -2.18  0.20  4.03
 C -1.68 -0.70  5.05
 C -2.16 -2.12  4.74
 O -3.31 -2.36  4.35
 H -3.04 -0.03  3.53
 H -0.58 -0.66  4.98
 C -2.01 -0.29  6.51
 C -3.43 -0.50  7.08
 C -4.55  0.37  6.50
 N -5.02 -0.13  5.22
 C -5.31  0.73  4.18
 N -5.20  0.10  2.92
 N -5.58  1.99  4.21
 H -1.72  0.77  6.60
 H -1.31 -0.84  7.16
 H -3.37 -0.28  8.16
 H -3.72 -1.56  7.02
 H -4.19  1.40  6.39
 H -5.38  0.40  7.23
 H -4.60 -1.02  4.94
 H -5.65  0.65  2.20
 H -5.47 -0.88  2.90
 H -5.56  2.35  5.16
 N -1.25 -3.10  5.00
 C -1.54 -4.51  4.85
 H -0.32 -2.81  5.26
 H -1.32 -5.05  5.78
 H -0.96 -4.95  4.03
 H -2.61 -4.61  4.63
