35
#
 C  1.18  1.12  1.25
 C  0.39  0.03  1.95
 O  0.93 -0.89  2.55
 H  1.87  1.58  1.98
 H  0.56  1.91  0.81
 H  1.79  0.67  0.47
 N -0.98  0.16  1.89
 C -1.85 -0.92  2.36
 C -3.27 -0.75  1.79
 O -3.84 -1.70  1.24
 H -1.36  0.81  1.20
 H -1.48 -1.86  1.93
 C -1.87 -1.08  3.91
 C -1.53 -2.48  4.41
 C -2.62 -3.55  4.27
 N -2.87 -3.98  2.91
 C -3.12 -5.31  2.57
 N -3.57 -5.43  1.25
 N -3.00 -6.38  3.29
 H -2.85 -0.77  4.32
 H -1.13 -0.37  4.32
 H -1.30 -2.40  5.49
 H -0.61 -2.83  3.92
 H -3.55 -3.20  4.76
 H -2.29 -4.43  4.84
 H -3.32 -3.30  2.30
 H -3.52 -6.39  0.93
 H -3.18 -4.76  0.59
 H -2.78 -6.16  4.26
 N -3.89  0.46  1.90
 C -3.61  1.57  2.81
 H -4.84  0.43  1.52
 H -2.55  1.58  3.08
 H -4.20  1.50  3.74
 H -3.84  2.52  2.32
