35
#
 C  0.52 -1.36  0.41
 C -0.14 -0.91  1.70
 O -0.50 -1.70  2.57
 H  0.66 -0.56 -0.32
 H -0.10 -2.15 -0.04
 H  1.49 -1.80  0.65
 N -0.31  0.44  1.84
 C -0.80  1.03  3.08
 C -2.30  0.79  3.35
 O -2.69  0.51  4.49
 H  0.06  1.06  1.13
 H -0.31  0.49  3.89
 C -0.40  2.52  3.13
 C -0.88  3.33  4.34
 C -0.21  3.02  5.69
 N -0.52  1.71  6.22
 C  0.39  0.67  6.12
 N -0.21 -0.58  6.33
 N  1.64  0.91  5.91
 H -0.78  3.01  2.21
 H  0.70  2.55  3.08
 H -1.98  3.25  4.44
 H -0.69  4.39  4.12
 H -0.51  3.79  6.41
 H  0.88  3.07  5.60
 H -1.49  1.42  6.11
 H  0.37 -1.35  6.01
 H -1.16 -0.66  5.95
 H  2.17  0.03  5.89
 N -3.22  0.94  2.35
 C -3.04  1.27  0.94
 H -4.16  0.72  2.66
 H -4.01  1.58  0.54
 H -2.67  0.42  0.35
 H -2.35  2.12  0.81
