35
#
 C -0.22 -0.45 -0.12
 C -0.25 -0.56  1.39
 O  0.77 -0.71  2.05
 H -0.90  0.31 -0.52
 H -0.51 -1.41 -0.58
 H  0.81 -0.22 -0.42
 N -1.47 -0.54  2.03
 C -2.83 -0.33  1.52
 C -3.16 -1.26  0.32
 O -3.48 -0.81 -0.78
 H -1.37 -0.62  3.04
 H -3.49 -0.66  2.34
 C -3.14  1.14  1.21
 C -4.64  1.48  1.12
 C -5.37  1.42  2.46
 N -6.78  1.75  2.27
 C -7.74  1.58  3.26
 N -7.25  1.68  4.56
 N -9.00  1.33  3.09
 H -2.67  1.41  0.26
 H -2.67  1.75  1.99
 H -5.12  0.80  0.40
 H -4.75  2.49  0.70
 H -4.91  2.15  3.15
 H -5.27  0.43  2.93
 H -7.14  1.53  1.34
 H -6.55  2.41  4.71
 H -8.01  1.73  5.23
 H -9.21  1.14  2.11
 N -3.10 -2.60  0.54
 C -2.75 -3.31  1.76
 H -3.30 -3.15 -0.29
 H -3.10 -4.35  1.67
 H -3.24 -2.88  2.64
 H -1.66 -3.33  1.95
