35
#
 C -3.13 -0.34  0.11
 C -2.22  0.42  1.06
 O -1.29  1.12  0.64
 H -3.95 -0.86  0.61
 H -2.52 -1.06 -0.44
 H -3.54  0.37 -0.63
 N -2.53  0.29  2.38
 C -1.67  0.80  3.44
 C -1.34 -0.35  4.40
 O -2.20 -1.19  4.72
 H -3.20 -0.41  2.68
 H -0.75  1.12  2.95
 C -2.30  1.99  4.20
 C -2.15  3.33  3.47
 C -0.93  4.16  3.91
 N  0.35  3.46  4.02
 C  0.93  2.70  3.03
 N  0.77  3.16  1.73
 N  1.59  1.63  3.37
 H -1.85  2.05  5.20
 H -3.37  1.75  4.36
 H -3.04  3.96  3.65
 H -2.13  3.15  2.39
 H -1.12  4.59  4.90
 H -0.82  5.03  3.24
 H  0.57  3.09  4.94
 H  0.48  2.43  1.08
 H  0.20  3.99  1.62
 H  2.10  1.25  2.57
 N -0.08 -0.31  4.88
 C  0.41 -1.29  5.83
 H  0.59  0.35  4.44
 H  0.60 -2.27  5.36
 H -0.33 -1.44  6.63
 H  1.34 -0.92  6.27
