35
#
 C -0.31 -0.43  0.19
 C -0.20 -0.02  1.65
 O  0.85  0.39  2.13
 H -1.32 -0.69 -0.13
 H  0.35 -1.29  0.02
 H  0.07  0.39 -0.44
 N -1.36 -0.12  2.36
 C -1.49  0.11  3.80
 C -0.62  1.27  4.34
 O  0.10  1.13  5.32
 H -2.17 -0.52  1.89
 H -2.53  0.45  3.95
 C -1.32 -1.17  4.63
 C  0.03 -1.89  4.48
 C  0.14 -3.16  5.34
 N -0.74 -4.26  4.93
 C -2.08 -4.38  5.29
 N -2.38 -3.92  6.57
 N -3.03 -4.88  4.57
 H -2.14 -1.85  4.36
 H -1.48 -0.91  5.69
 H  0.84 -1.20  4.76
 H  0.20 -2.16  3.43
 H -0.07 -2.92  6.39
 H  1.17 -3.53  5.30
 H -0.58 -4.57  3.98
 H -3.32 -4.19  6.84
 H -1.69 -4.12  7.29
 H -2.71 -5.05  3.61
 N -0.79  2.51  3.78
 C -1.55  2.90  2.61
 H -0.15  3.19  4.17
 H -1.75  3.98  2.66
 H -2.52  2.38  2.57
 H -1.01  2.70  1.67
