35
#
 C  0.76 -1.24  0.78
 C  0.42 -0.76  2.18
 O  1.27 -0.57  3.04
 H  1.43 -0.51  0.31
 H -0.12 -1.38  0.13
 H  1.31 -2.18  0.85
 N -0.92 -0.57  2.43
 C -1.40 -0.00  3.68
 C -1.37 -0.88  4.95
 O -1.47 -0.29  6.03
 H -1.58 -0.70  1.67
 H -0.72  0.82  3.95
 C -2.81  0.58  3.49
 C -3.92 -0.46  3.24
 C -5.28  0.19  2.97
 N -5.30  0.96  1.73
 C -5.73  2.28  1.63
 N -5.46  3.06  2.76
 N -6.34  2.65  0.56
 H -2.78  1.29  2.66
 H -3.04  1.14  4.41
 H -4.01 -1.12  4.12
 H -3.66 -1.11  2.39
 H -5.56  0.85  3.80
 H -6.05 -0.60  2.93
 H -5.60  0.46  0.90
 H -5.63  4.05  2.62
 H -4.58  2.88  3.23
 H -6.48  3.67  0.54
 N -1.30 -2.24  4.91
 C -1.17 -3.18  3.81
 H -1.26 -2.63  5.85
 H -1.91 -3.00  3.03
 H -1.34 -4.19  4.21
 H -0.16 -3.16  3.36
