35
#
 C -1.48  1.02  4.58
 C -0.61  0.29  3.57
 O  0.28 -0.49  3.90
 H -1.11  0.77  5.58
 H -2.53  0.71  4.50
 H -1.44  2.11  4.44
 N -0.88  0.52  2.25
 C -1.95  1.32  1.68
 C -3.39  0.75  1.78
 O -4.32  1.56  1.72
 H -0.28 -0.01  1.62
 H -2.03  2.26  2.24
 C -1.64  1.71  0.22
 C -1.60  0.55 -0.79
 C -1.28  1.02 -2.21
 N  0.07  1.55 -2.30
 C  0.50  2.25 -3.43
 N  1.86  2.54 -3.38
 N -0.20  2.61 -4.45
 H -0.68  2.25  0.21
 H -2.41  2.43 -0.09
 H -2.58  0.05 -0.81
 H -0.87 -0.22 -0.50
 H -1.98  1.82 -2.50
 H -1.44  0.18 -2.92
 H  0.79  0.95 -1.90
 H  2.13  3.15 -4.15
 H  2.19  2.90 -2.48
 H -1.14  2.21 -4.44
 N -3.64 -0.58  1.92
 C -2.76 -1.75  1.91
 H -4.63 -0.77  1.98
 H -3.39 -2.64  1.83
 H -2.16 -1.84  2.83
 H -2.08 -1.75  1.05
