35
#
 C -2.10  2.76  0.96
 C -1.54  1.50  1.55
 O -0.61  0.87  1.02
 H -2.98  3.15  1.49
 H -2.37  2.57 -0.09
 H -1.30  3.53  0.96
 N -2.06  1.11  2.75
 C -1.71 -0.15  3.38
 C -3.02 -0.76  3.92
 O -3.95 -0.05  4.28
 H -2.92  1.54  3.11
 H -1.28 -0.78  2.59
 C -0.68 -0.03  4.53
 C  0.63  0.66  4.13
 C  0.58  2.20  4.22
 N  1.07  2.82  2.99
 C  1.01  4.19  2.77
 N  1.29  4.98  3.88
 N  0.78  4.62  1.57
 H -0.46 -1.05  4.88
 H -1.15  0.49  5.38
 H  0.91  0.36  3.11
 H  1.43  0.29  4.79
 H  1.21  2.53  5.06
 H -0.45  2.52  4.44
 H  0.84  2.31  2.14
 H  1.21  4.56  4.79
 H  0.93  5.92  3.83
 H  0.90  5.63  1.51
 N -3.02 -2.12  4.00
 C -4.13 -2.88  4.56
 H -2.23 -2.62  3.63
 H -4.58 -3.53  3.80
 H -4.88 -2.15  4.89
 H -3.81 -3.49  5.41
