35
#
 C -0.84  0.01 -0.34
 C -0.54 -0.62  1.00
 O  0.09 -1.67  1.10
 H -0.04 -0.30 -1.03
 H -0.92  1.10 -0.33
 H -1.79 -0.40 -0.72
 N -1.05 -0.04  2.15
 C -1.70  1.25  2.39
 C -2.78  1.61  1.34
 O -2.77  2.68  0.74
 H -0.78 -0.57  2.97
 H -2.28  1.09  3.32
 C -0.72  2.40  2.68
 C  0.35  2.68  1.63
 C  1.35  3.73  2.12
 N  2.41  4.00  1.15
 C  2.27  5.01  0.22
 N  3.44  5.19 -0.55
 N  1.18  5.70  0.15
 H -0.24  2.17  3.64
 H -1.33  3.31  2.84
 H -0.11  3.05  0.70
 H  0.91  1.76  1.39
 H  1.83  3.39  3.05
 H  0.82  4.68  2.33
 H  3.36  3.82  1.46
 H  3.90  4.32 -0.82
 H  3.31  5.80 -1.34
 H  1.20  6.34 -0.64
 N -3.79  0.71  1.15
 C -4.02 -0.58  1.79
 H -4.45  1.01  0.45
 H -3.41 -1.39  1.35
 H -3.80 -0.53  2.86
 H -5.08 -0.83  1.68
