35
#
 C  0.20  0.62  0.08
 C  0.21 -0.11  1.41
 O  1.25 -0.42  1.99
 H  1.23  0.88 -0.17
 H -0.41  1.53  0.11
 H -0.20 -0.02 -0.72
 N -1.01 -0.40  1.97
 C -2.34 -0.20  1.40
 C -2.99  1.16  1.75
 O -4.06  1.49  1.24
 H -0.95 -0.95  2.82
 H -2.26 -0.19  0.30
 C -3.30 -1.34  1.78
 C -3.12 -2.66  1.02
 C -1.83 -3.44  1.31
 N -1.81 -4.78  0.76
 C -2.50 -5.84  1.35
 N -2.48 -6.99  0.55
 N -3.11 -5.86  2.48
 H -4.32 -0.96  1.59
 H -3.24 -1.51  2.87
 H -3.19 -2.47 -0.06
 H -3.97 -3.31  1.26
 H -1.66 -3.52  2.39
 H -0.95 -2.91  0.91
 H -1.73 -4.84 -0.26
 H -2.87 -7.78  1.06
 H -1.58 -7.21  0.15
 H -3.17 -4.93  2.90
 N -2.29  1.94  2.62
 C -2.74  3.24  3.05
 H -1.41  1.57  2.96
 H -3.70  3.44  2.56
 H -2.03  4.03  2.76
 H -2.88  3.28  4.14
