35
#
 C -0.00  0.29  0.13
 C -0.04  0.17  1.64
 O  1.01  0.14  2.29
 H -0.52 -0.54 -0.37
 H  1.05  0.28 -0.17
 H -0.47  1.22 -0.21
 N -1.23  0.12  2.32
 C -2.67  0.04  2.00
 C -3.30 -1.25  2.57
 O -4.27 -1.17  3.32
 H -1.05  0.07  3.32
 H -3.16  0.82  2.61
 C -3.08  0.30  0.55
 C -4.60  0.43  0.39
 C -5.02  0.79 -1.04
 N -4.44  2.06 -1.51
 C -5.07  3.25 -1.21
 N -4.49  4.34 -1.89
 N -6.09  3.28 -0.41
 H -2.71 -0.48 -0.12
 H -2.62  1.25  0.22
 H -4.99  1.20  1.07
 H -5.10 -0.50  0.67
 H -6.11  0.85 -1.09
 H -4.68  0.01 -1.74
 H -4.03  2.03 -2.44
 H -4.81  5.24 -1.55
 H -3.48  4.31 -1.96
 H -6.39  4.24 -0.22
 N -2.79 -2.47  2.22
 C -1.64 -2.82  1.41
 H -3.28 -3.23  2.69
 H -0.69 -2.57  1.89
 H -1.68 -2.34  0.42
 H -1.66 -3.90  1.23
