35
#
 C -0.16  0.12 -0.03
 C -0.06  0.07  1.48
 O  1.03  0.14  2.07
 H  0.27  1.07 -0.38
 H -1.19  0.04 -0.41
 H  0.44 -0.69 -0.45
 N -1.24 -0.05  2.15
 C -1.34 -0.03  3.61
 C -1.02 -1.43  4.24
 O -1.86 -2.09  4.86
 H -2.09 -0.18  1.62
 H -0.56  0.65  3.96
 C -2.71  0.49  4.06
 C -3.92 -0.30  3.50
 C -4.96 -0.61  4.59
 N -5.99 -1.56  4.20
 C -5.77 -2.93  4.07
 N -4.65 -3.42  4.72
 N -6.57 -3.76  3.48
 H -2.78  1.55  3.79
 H -2.72  0.44  5.16
 H -3.58 -1.26  3.08
 H -4.40  0.25  2.68
 H -5.46  0.32  4.90
 H -4.45 -1.00  5.48
 H -6.70 -1.21  3.57
 H -4.50 -4.40  4.53
 H -3.79 -2.87  4.75
 H -7.41 -3.29  3.14
 N  0.26 -1.81  4.05
 C  0.78 -3.08  4.51
 H  0.85 -1.18  3.49
 H  1.69 -2.94  5.11
 H  1.03 -3.74  3.66
 H  0.01 -3.57  5.12
