35
#
 C -1.05 -1.40  0.44
 C -0.76 -0.72  1.76
 O  0.17  0.08  1.89
 H -1.29 -0.63 -0.30
 H -1.88 -2.12  0.48
 H -0.14 -1.91  0.09
 N -1.60 -1.04  2.78
 C -1.51 -0.46  4.11
 C -1.39  1.09  3.98
 O -2.36  1.68  3.51
 H -2.27 -1.80  2.64
 H -2.54 -0.52  4.51
 C -0.64 -1.24  5.12
 C  0.65 -1.94  4.65
 C  0.48 -3.27  3.88
 N -0.48 -4.19  4.46
 C -1.78 -4.35  4.01
 N -2.64 -4.86  4.97
 N -2.23 -4.12  2.82
 H -1.28 -2.02  5.56
 H -0.40 -0.57  5.95
 H  1.25 -2.15  5.55
 H  1.26 -1.28  4.03
 H  1.46 -3.76  3.80
 H  0.16 -3.06  2.85
 H -0.27 -4.56  5.38
 H -2.59 -4.44  5.90
 H -3.59 -4.95  4.62
 H -1.46 -3.96  2.16
 N -0.35  1.79  4.53
 C  1.05  1.42  4.65
 H -0.52  2.79  4.39
 H  1.24  0.79  5.54
 H  1.64  2.34  4.78
 H  1.40  0.90  3.75
