35
#
 C  0.57  0.40  1.62
 C -0.33 -0.70  2.13
 O  0.12 -1.63  2.79
 H  1.30  0.63  2.40
 H  0.06  1.30  1.27
 H  1.12 -0.00  0.76
 N -1.68 -0.70  1.84
 C -2.61  0.33  1.37
 C -2.46  0.64 -0.13
 O -1.37  0.65 -0.70
 H -2.12 -1.52  2.24
 H -3.60 -0.13  1.52
 C -2.62  1.64  2.20
 C -2.77  1.38  3.72
 C -1.45  1.48  4.49
 N -1.54  0.86  5.80
 C -0.44  0.29  6.46
 N  0.51 -0.29  5.63
 N -0.27  0.26  7.74
 H -3.45  2.25  1.83
 H -1.71  2.22  2.00
 H -3.20  0.38  3.89
 H -3.49  2.10  4.14
 H -1.13  2.53  4.55
 H -0.65  0.96  3.94
 H -2.15  1.35  6.45
 H  0.20 -0.81  4.81
 H  1.20 -0.79  6.18
 H -0.96  0.84  8.22
 N -3.61  0.95 -0.80
 C -4.99  0.87 -0.34
 H -3.45  1.16 -1.78
 H -5.64  1.20 -1.15
 H -5.17  1.53  0.52
 H -5.28 -0.16 -0.07
