35
#
 C -1.03 -1.08  1.92
 C -1.67 -0.45  3.14
 O -1.16 -0.55  4.26
 H -0.09 -1.54  2.23
 H -1.68 -1.85  1.48
 H -0.81 -0.32  1.15
 N -2.85  0.23  2.98
 C -3.65  0.52  1.79
 C -4.13 -0.79  1.11
 O -4.87 -1.53  1.75
 H -3.21  0.60  3.86
 H -4.60  0.87  2.23
 C -3.11  1.70  0.97
 C -4.16  2.39  0.09
 C -5.29  3.10  0.84
 N -4.86  4.17  1.74
 C -4.44  4.00  3.05
 N -5.07  2.95  3.73
 N -3.57  4.71  3.68
 H -2.24  1.42  0.37
 H -2.73  2.43  1.71
 H -4.63  1.66 -0.60
 H -3.65  3.12 -0.56
 H -5.88  2.38  1.43
 H -5.99  3.53  0.11
 H -4.37  4.93  1.27
 H -4.83  3.00  4.72
 H -6.07  2.88  3.59
 H -3.08  5.35  3.05
 N -3.83 -1.11 -0.20
 C -2.87 -0.59 -1.16
 H -4.29 -1.98 -0.44
 H -2.85 -1.29 -2.01
 H -1.86 -0.54 -0.76
 H -3.16  0.39 -1.56
