35
#
 C -1.45 -1.36  0.55
 C -0.10 -0.68  0.72
 O  0.95 -1.33  0.74
 H -2.13 -0.81 -0.12
 H -1.94 -1.47  1.52
 H -1.27 -2.36  0.14
 N -0.09  0.68  0.87
 C -1.21  1.60  0.89
 C -0.63  2.99  0.56
 O  0.56  3.25  0.73
 H  0.83  1.12  0.96
 H -1.92  1.34  0.09
 C -2.01  1.60  2.23
 C -1.18  1.54  3.52
 C -0.40  2.81  3.85
 N  0.18  2.71  5.18
 C  1.06  3.69  5.65
 N  1.37  3.51  7.00
 N  1.57  4.67  5.00
 H -2.67  0.73  2.21
 H -2.67  2.48  2.26
 H -0.49  0.68  3.48
 H -1.88  1.33  4.34
 H -1.07  3.69  3.76
 H  0.42  2.95  3.13
 H -0.44  2.35  5.90
 H  2.11  4.15  7.28
 H  1.58  2.55  7.26
 H  1.17  4.76  4.06
 N -1.50  3.93  0.09
 C -2.88  3.77 -0.31
 H -1.05  4.83 -0.08
 H -3.00  2.95 -1.04
 H -3.21  4.69 -0.80
 H -3.55  3.58  0.54
