35
#
 C  0.23 -1.07 -0.08
 C  0.01 -0.60  1.35
 O  0.94 -0.27  2.08
 H  1.09 -1.74 -0.11
 H  0.47 -0.19 -0.69
 H -0.64 -1.57 -0.52
 N -1.30 -0.57  1.76
 C -1.70  0.06  3.02
 C -1.03  1.47  3.11
 O -1.33  2.27  2.23
 H -2.01 -0.69  1.06
 H -2.74  0.36  2.86
 C -1.73 -0.92  4.22
 C -0.62 -1.97  4.32
 C -0.77 -2.91  5.53
 N -1.96 -3.75  5.52
 C -3.14 -3.44  6.19
 N -4.16 -4.36  5.89
 N -3.39 -2.47  6.99
 H -2.69 -1.45  4.16
 H -1.79 -0.33  5.14
 H  0.37 -1.51  4.37
 H -0.61 -2.57  3.40
 H -0.77 -2.35  6.47
 H  0.11 -3.57  5.57
 H -2.07 -4.35  4.71
 H -4.96 -4.19  6.49
 H -3.87 -5.33  5.92
 H -2.62 -1.79  7.03
 N -0.29  1.87  4.19
 C  0.60  1.10  5.05
 H -0.02  2.85  4.05
 H  1.23  1.81  5.59
 H  1.25  0.44  4.46
 H  0.05  0.51  5.79
