35
#
 C -0.06 -0.04 -0.01
 C -0.06 -0.07  1.51
 O  0.99 -0.11  2.16
 H  0.51  0.83 -0.34
 H -1.07 -0.01 -0.45
 H  0.46 -0.93 -0.38
 N -1.28 -0.03  2.11
 C -1.45 -0.01  3.56
 C -1.37 -1.46  4.12
 O -2.37 -2.11  4.40
 H -2.12 -0.08  1.54
 H -0.58  0.55  3.95
 C -2.75  0.69  3.93
 C -2.97  0.91  5.44
 C -1.88  1.76  6.11
 N -2.18  2.11  7.49
 C -3.05  3.14  7.78
 N -3.35  3.21  9.15
 N -3.52  3.89  6.85
 H -3.59  0.10  3.54
 H -2.77  1.67  3.42
 H -3.04 -0.07  5.94
 H -3.93  1.42  5.57
 H -1.77  2.71  5.57
 H -0.91  1.25  6.10
 H -2.23  1.32  8.14
 H -3.85  4.06  9.42
 H -2.56  3.04  9.77
 H -4.05  4.68  7.24
 N -0.09 -1.91  4.23
 C  0.21 -3.28  4.60
 H  0.63 -1.34  3.79
 H  1.07 -3.31  5.28
 H  0.45 -3.90  3.71
 H -0.67 -3.71  5.09
