35
#
 C -0.41  0.36 -0.60
 C  0.02  0.33  0.86
 O  1.20  0.28  1.19
 H -0.76  1.37 -0.87
 H  0.46  0.11 -1.22
 H -1.22 -0.35 -0.81
 N -0.97  0.35  1.80
 C -2.40  0.48  1.59
 C -2.78  1.86  0.98
 O -2.14  2.88  1.21
 H -0.63  0.38  2.77
 H -2.74 -0.31  0.91
 C -3.13  0.29  2.94
 C -2.82  1.38  3.97
 C -2.88  0.90  5.44
 N -2.23 -0.37  5.74
 C -0.97 -0.81  5.37
 N -0.11  0.19  4.89
 N -0.54 -2.03  5.38
 H -2.82 -0.70  3.32
 H -4.21  0.23  2.75
 H -3.52  2.22  3.87
 H -1.83  1.81  3.77
 H -3.92  0.78  5.75
 H -2.47  1.71  6.08
 H -2.84 -1.12  6.04
 H -0.12  1.07  5.41
 H  0.83 -0.18  4.76
 H -1.29 -2.68  5.62
 N -3.90  1.88  0.20
 C -4.70  0.76 -0.28
 H -4.11  2.80 -0.17
 H -4.12  0.08 -0.92
 H -5.53  1.16 -0.87
 H -5.13  0.18  0.55
