35
#
 C -0.11  0.00  0.01
 C -0.04  0.06  1.52
 O  1.03  0.18  2.11
 H  0.45 -0.88 -0.33
 H  0.39  0.88 -0.40
 H -1.13 -0.05 -0.40
 N -1.26 -0.02  2.15
 C -1.59 -0.13  3.58
 C -2.19  1.14  4.22
 O -3.12  1.00  5.01
 H -2.06 -0.10  1.54
 H -2.47 -0.79  3.59
 C -0.55 -0.84  4.48
 C  0.56 -0.03  5.18
 C  0.12  0.63  6.49
 N  1.21  1.29  7.20
 C  2.09  0.55  7.97
 N  3.17  1.32  8.44
 N  1.90 -0.71  8.17
 H -0.09 -1.63  3.87
 H -1.13 -1.36  5.25
 H  0.99  0.70  4.49
 H  1.37 -0.73  5.43
 H -0.29 -0.12  7.17
 H -0.66  1.39  6.32
 H  1.64  2.08  6.72
 H  2.91  2.26  8.75
 H  3.73  0.85  9.13
 H  2.57 -1.08  8.85
 N -1.72  2.39  3.92
 C -0.61  2.82  3.08
 H -2.26  3.11  4.39
 H -0.20  3.75  3.50
 H -0.92  3.02  2.05
 H  0.20  2.08  3.07
