35
#
 C  0.13  0.82  0.13
 C -0.10  0.74  1.63
 O  0.47  1.48  2.42
 H  1.16  0.50 -0.08
 H  0.04  1.86 -0.19
 H -0.56  0.20 -0.46
 N -1.01 -0.22  2.03
 C -1.19 -0.60  3.44
 C -2.02 -1.89  3.50
 O -1.65 -2.89  4.13
 H -1.26 -0.92  1.33
 H -0.21 -0.83  3.88
 C -1.86  0.55  4.23
 C -2.23  0.26  5.69
 C -1.06  0.02  6.66
 N -0.46 -1.29  6.54
 C  0.86 -1.53  6.21
 N  1.05 -2.82  5.71
 N  1.87 -0.74  6.35
 H -2.77  0.86  3.69
 H -1.17  1.40  4.19
 H -2.92 -0.60  5.76
 H -2.80  1.12  6.07
 H -1.41  0.19  7.69
 H -0.27  0.77  6.48
 H -1.10 -2.05  6.31
 H  2.01 -2.95  5.38
 H  0.34 -3.14  5.06
 H  1.62  0.12  6.84
 N -3.20 -1.85  2.82
 C -4.15 -2.94  2.81
 H -3.47 -0.96  2.40
 H -4.51 -3.14  1.79
 H -5.02 -2.73  3.45
 H -3.64 -3.83  3.19
