35
#
 C -0.36  0.89  0.59
 C -0.45  0.29  1.97
 O  0.50  0.30  2.75
 H -0.66  1.95  0.64
 H -0.99  0.40 -0.16
 H  0.68  0.86  0.27
 N -1.64 -0.30  2.36
 C -2.94 -0.29  1.68
 C -2.96 -1.14  0.38
 O -3.72 -0.88 -0.55
 H -1.63 -0.56  3.34
 H -3.61 -0.83  2.37
 C -3.56  1.11  1.47
 C -5.09  1.12  1.50
 C -5.68  2.53  1.35
 N -5.32  3.43  2.45
 C -4.67  4.65  2.31
 N -3.86  4.76  1.18
 N -4.76  5.66  3.11
 H -3.21  1.51  0.50
 H -3.17  1.76  2.26
 H -5.44  0.68  2.45
 H -5.48  0.49  0.69
 H -6.77  2.45  1.29
 H -5.34  2.99  0.41
 H -5.93  3.40  3.26
 H -3.33  5.62  1.21
 H -3.28  3.95  0.97
 H -5.49  5.53  3.81
 N -2.11 -2.20  0.39
 C -1.99 -3.13 -0.72
 H -1.46 -2.27  1.17
 H -2.14 -4.16 -0.38
 H -1.01 -3.05 -1.21
 H -2.77 -2.87 -1.45
