35
#
 C -0.75  1.53  0.95
 C -0.63  0.69  2.22
 O  0.46  0.47  2.73
 H -1.77  1.58  0.54
 H -0.08  1.12  0.19
 H -0.41  2.55  1.18
 N -1.82  0.24  2.72
 C -2.10 -0.62  3.88
 C -2.63  0.07  5.16
 O -3.33 -0.64  5.90
 H -2.65  0.52  2.21
 H -2.97 -1.20  3.57
 C -1.01 -1.67  4.21
 C  0.15 -1.36  5.18
 C -0.14 -1.50  6.69
 N -0.39 -0.23  7.36
 C -1.42  0.08  8.21
 N -1.95 -0.96  8.95
 N -1.78  1.33  8.32
 H -0.58 -1.99  3.25
 H -1.56 -2.54  4.61
 H  0.58 -0.38  4.95
 H  0.95 -2.08  4.93
 H  0.72 -2.00  7.16
 H -1.01 -2.15  6.83
 H  0.06  0.59  6.97
 H -2.95 -0.88  9.09
 H -1.70 -1.90  8.65
 H -2.43  1.45  9.10
 N -2.34  1.35  5.47
 C -1.33  2.24  4.90
 H -2.53  1.54  6.47
 H -1.04  2.95  5.69
 H -1.73  2.83  4.06
 H -0.43  1.72  4.57
