35
#
 C -0.91  0.27 -0.19
 C -0.51  0.26  1.27
 O  0.66  0.24  1.65
 H -0.35 -0.52 -0.71
 H -0.60  1.23 -0.64
 H -1.98  0.12 -0.36
 N -1.54  0.29  2.16
 C -1.30  0.18  3.58
 C -0.70 -1.20  3.93
 O -1.08 -2.24  3.39
 H -2.51  0.17  1.85
 H -0.54  0.94  3.83
 C -2.58  0.52  4.39
 C -3.61 -0.58  4.73
 C -4.13 -1.51  3.62
 N -4.35 -0.85  2.33
 C -4.12 -1.50  1.10
 N -3.16 -2.49  1.13
 N -4.70 -1.19 -0.02
 H -3.07  1.33  3.84
 H -2.26  0.95  5.35
 H -4.46 -0.05  5.20
 H -3.20 -1.23  5.52
 H -5.05 -1.99  3.97
 H -3.40 -2.31  3.46
 H -5.17 -0.26  2.28
 H -2.90 -2.80  0.20
 H -2.39 -2.41  1.79
 H -5.46 -0.52  0.12
 N  0.23 -1.18  4.92
 C  0.93 -2.37  5.35
 H  0.61 -0.28  5.17
 H  1.15 -2.31  6.42
 H  1.87 -2.51  4.80
 H  0.29 -3.24  5.16
