35
#
 C  0.68  0.36 -0.25
 C  0.71  0.13  1.25
 O  0.70  1.06  2.06
 H  1.50  1.03 -0.53
 H -0.26  0.87 -0.50
 H  0.75 -0.56 -0.84
 N  0.78 -1.18  1.64
 C  0.70 -1.59  3.04
 C  1.91 -2.48  3.43
 O  1.77 -3.64  3.82
 H  0.74 -1.90  0.93
 H  0.78 -0.64  3.61
 C -0.63 -2.25  3.39
 C -1.05 -3.42  2.48
 C -1.75 -4.55  3.24
 N -0.79 -5.21  4.11
 C -1.18 -6.04  5.14
 N -0.12 -6.41  5.97
 N -2.37 -6.46  5.41
 H -1.41 -1.47  3.36
 H -0.57 -2.59  4.43
 H -0.18 -3.86  1.97
 H -1.73 -3.07  1.69
 H -2.19 -5.27  2.53
 H -2.59 -4.13  3.83
 H  0.13 -4.76  4.17
 H -0.38 -7.19  6.57
 H  0.77 -6.56  5.49
 H -3.07 -6.05  4.79
 N  3.15 -1.92  3.35
 C  3.53 -0.58  2.95
 H  3.89 -2.57  3.59
 H  4.43 -0.29  3.51
 H  2.74  0.15  3.18
 H  3.76 -0.51  1.88
