35
#
 C -0.99 -0.65  0.49
 C -0.84 -0.12  1.91
 O  0.14  0.52  2.27
 H -0.21 -1.40  0.32
 H -0.81  0.18 -0.20
 H -1.97 -1.09  0.28
 N -1.86 -0.44  2.76
 C -1.91 -0.06  4.18
 C -1.93  1.48  4.38
 O -1.20  2.03  5.19
 H -2.62 -1.01  2.40
 H -2.89 -0.43  4.53
 C -0.82 -0.67  5.07
 C -0.62 -2.19  4.97
 C  0.25 -2.68  3.79
 N  1.51 -1.98  3.62
 C  2.74 -2.36  4.11
 N  2.72 -3.51  4.92
 N  3.88 -1.81  3.86
 H -1.09 -0.41  6.10
 H  0.13 -0.15  4.88
 H -1.59 -2.72  4.93
 H -0.14 -2.52  5.90
 H -0.31 -2.60  2.85
 H  0.47 -3.75  3.91
 H  1.48 -1.08  3.15
 H  3.65 -3.67  5.30
 H  2.01 -3.52  5.65
 H  3.78 -1.07  3.15
 N -2.83  2.21  3.64
 C -3.88  1.76  2.74
 H -2.76  3.20  3.82
 H -4.64  2.55  2.67
 H -4.38  0.86  3.11
 H -3.51  1.56  1.72
