35
#
 C  0.85  0.55  0.57
 C  0.02 -0.45  1.36
 O  0.30 -1.65  1.37
 H  1.62 -0.01  0.04
 H  1.33  1.28  1.23
 H  0.24  1.10 -0.16
 N -1.05  0.02  2.08
 C -1.48  1.39  2.28
 C -1.69  1.60  3.79
 O -2.13  0.70  4.50
 H -1.49 -0.66  2.69
 H -0.69  2.07  1.92
 C -2.81  1.71  1.55
 C -2.72  1.58  0.03
 C -4.05  1.87 -0.68
 N -4.43  3.27 -0.50
 C -5.64  3.82 -0.87
 N -6.72  2.93 -0.89
 N -5.69  5.10 -1.07
 H -3.12  2.73  1.82
 H -3.58  1.04  1.94
 H -2.42  0.55 -0.24
 H -1.95  2.25 -0.37
 H -4.83  1.23 -0.23
 H -3.96  1.59 -1.75
 H -3.68  3.95 -0.64
 H -6.53  1.96 -1.12
 H -7.54  3.29 -1.37
 H -6.64  5.41 -1.26
 N -1.41  2.85  4.25
 C -1.65  3.27  5.62
 H -1.06  3.54  3.59
 H -2.00  2.39  6.17
 H -2.42  4.05  5.67
 H -0.73  3.63  6.09
