35
#
 C -0.09 -1.36  1.17
 C  0.16 -0.57  2.45
 O  1.12  0.20  2.56
 H -0.32 -0.65  0.36
 H -0.91 -2.08  1.27
 H  0.83 -1.89  0.90
 N -0.76 -0.75  3.43
 C -0.65 -0.07  4.72
 C  0.35 -0.86  5.61
 O  0.01 -1.72  6.43
 H -1.48 -1.49  3.37
 H -0.18  0.90  4.50
 C -2.01  0.22  5.36
 C -2.90 -0.91  5.90
 C -3.70 -1.76  4.90
 N -2.93 -2.57  3.93
 C -2.40 -3.85  4.27
 N -1.78 -3.90  5.49
 N -2.46 -4.89  3.51
 H -2.58  0.82  4.64
 H -1.80  0.89  6.21
 H -2.33 -1.55  6.58
 H -3.67 -0.44  6.53
 H -4.38 -2.42  5.48
 H -4.33 -1.10  4.30
 H -3.46 -2.67  3.06
 H -1.33 -4.80  5.65
 H -1.23 -3.10  5.81
 H -3.07 -4.74  2.71
 N  1.64 -0.53  5.36
 C  2.75 -1.25  5.95
 H  1.80  0.02  4.51
 H  2.41 -1.73  6.87
 H  3.57 -0.56  6.18
 H  3.14 -2.03  5.27
