35
#
 C  0.37  0.06  1.62
 C -0.28  0.87  2.73
 O  0.38  1.29  3.68
 H  1.45  0.14  1.74
 H  0.09  0.42  0.62
 H  0.09 -1.00  1.69
 N -1.61  1.14  2.62
 C -2.57  0.44  1.78
 C -3.82  1.31  1.67
 O -4.09  2.15  2.52
 H -2.02  1.70  3.37
 H -2.12  0.32  0.78
 C -2.91 -1.00  2.29
 C -3.96 -1.15  3.41
 C -3.76 -0.38  4.72
 N -2.40 -0.45  5.22
 C -1.97  0.40  6.24
 N -0.60  0.27  6.47
 N -2.68  1.23  6.92
 H -1.96 -1.45  2.61
 H -3.26 -1.59  1.43
 H -4.02 -2.23  3.63
 H -4.96 -0.88  3.03
 H -4.50 -0.75  5.45
 H -3.99  0.69  4.55
 H -1.92 -1.34  5.17
 H -0.31  0.92  7.20
 H -0.05  0.42  5.62
 H -3.68  1.11  6.74
 N -4.65  1.10  0.60
 C -4.52  0.14 -0.48
 H -5.49  1.67  0.63
 H -3.47  0.03 -0.79
 H -5.07  0.52 -1.35
 H -4.92 -0.85 -0.22
