35
#
 C -1.16 -1.61  0.49
 C -0.62 -1.52  1.90
 O  0.49 -1.95  2.20
 H -1.14 -2.66  0.17
 H -0.49 -1.06 -0.18
 H -2.18 -1.22  0.37
 N -1.44 -0.88  2.79
 C -1.22 -0.83  4.25
 C -2.43 -0.22  4.97
 O -2.77 -0.69  6.06
 H -2.39 -0.71  2.48
 H -1.21 -1.86  4.62
 C  0.11 -0.21  4.74
 C  0.48  1.23  4.38
 C  0.94  1.48  2.93
 N  2.01  0.60  2.48
 C  3.31  0.82  2.86
 N  4.20 -0.17  2.40
 N  3.65  1.90  3.49
 H  0.92 -0.88  4.43
 H  0.05 -0.29  5.84
 H  1.32  1.53  5.03
 H -0.34  1.93  4.62
 H  1.32  2.51  2.86
 H  0.11  1.37  2.22
 H  1.73 -0.36  2.30
 H  3.78 -1.07  2.18
 H  5.03 -0.26  2.97
 H  4.66  1.96  3.60
 N -3.18  0.79  4.40
 C -2.82  1.79  3.41
 H -3.95  1.03  5.02
 H -2.56  2.75  3.88
 H -3.67  1.97  2.73
 H -1.97  1.46  2.81
