35
#
 C  0.02 -0.38  0.91
 C -0.13 -0.33  2.42
 O  0.81 -0.54  3.18
 H  1.06 -0.67  0.69
 H -0.18  0.59  0.44
 H -0.65 -1.12  0.45
 N -1.37 -0.02  2.91
 C -2.62  0.15  2.17
 C -3.40  1.30  2.86
 O -4.28  1.08  3.68
 H -1.44 -0.07  3.93
 H -2.36  0.46  1.15
 C -3.46 -1.13  2.10
 C -4.66 -1.02  1.16
 C -5.45 -2.32  1.08
 N -6.57 -2.18  0.16
 C -7.35 -3.28 -0.18
 N -8.46 -2.92 -0.95
 N -7.17 -4.52  0.12
 H -3.81 -1.37  3.12
 H -2.80 -1.94  1.78
 H -4.32 -0.75  0.14
 H -5.32 -0.21  1.50
 H -5.78 -2.61  2.09
 H -4.80 -3.12  0.70
 H -7.10 -1.32  0.27
 H -8.94 -3.74 -1.30
 H -8.26 -2.25 -1.70
 H -6.41 -4.63  0.81
 N -3.02  2.57  2.54
 C -1.92  2.99  1.69
 H -3.51  3.29  3.08
 H -0.94  2.68  2.09
 H -1.93  4.09  1.62
 H -2.02  2.61  0.66
