35
#
 C -0.12  1.76 -0.04
 C -0.28  2.00  1.44
 O  0.31  2.90  2.05
 H  0.83  2.18 -0.38
 H -0.95  2.29 -0.55
 H -0.17  0.70 -0.31
 N -1.17  1.16  2.06
 C -1.56  1.31  3.46
 C -1.05  0.09  4.24
 O -1.64 -0.99  4.19
 H -1.58  0.40  1.54
 H -1.07  2.24  3.79
 C -3.08  1.46  3.63
 C -3.70  2.62  2.83
 C -4.29  2.18  1.48
 N -4.91  3.28  0.75
 C -4.22  3.99 -0.21
 N -5.02  4.97 -0.83
 N -2.99  3.72 -0.48
 H -3.26  1.62  4.71
 H -3.56  0.50  3.39
 H -2.95  3.40  2.64
 H -4.51  3.08  3.41
 H -5.05  1.41  1.64
 H -3.50  1.75  0.84
 H -5.91  3.25  0.64
 H -4.50  5.60 -1.42
 H -5.64  5.47 -0.20
 H -2.60  4.40 -1.14
 N  0.11  0.24  4.95
 C  0.94  1.43  5.11
 H  0.39 -0.60  5.44
 H  1.96  1.11  5.33
 H  0.59  2.07  5.93
 H  0.96  2.02  4.18
