35
#
 C  0.06 -1.76  0.95
 C -0.29 -0.70  1.98
 O  0.31 -0.60  3.05
 H -0.21 -2.75  1.36
 H  1.14 -1.76  0.79
 H -0.46 -1.64 -0.01
 N -1.30  0.15  1.63
 C -1.89  1.14  2.54
 C -0.79  1.93  3.31
 O -0.81  2.04  4.53
 H -1.80 -0.03  0.77
 H -2.39  1.87  1.89
 C -2.94  0.52  3.49
 C -4.19  1.37  3.73
 C -3.98  2.68  4.52
 N -3.37  2.52  5.83
 C -4.02  1.91  6.88
 N -3.16  1.48  7.89
 N -5.30  1.77  7.06
 H -2.45  0.27  4.44
 H -3.26 -0.43  3.04
 H -4.92  0.75  4.28
 H -4.66  1.62  2.77
 H -4.95  3.19  4.63
 H -3.34  3.38  3.96
 H -2.36  2.39  5.78
 H -3.64  0.92  8.58
 H -2.28  1.06  7.57
 H -5.83  2.23  6.31
 N  0.13  2.60  2.57
 C  0.36  2.60  1.13
 H  0.83  3.06  3.15
 H  0.91  3.51  0.87
 H -0.59  2.63  0.58
 H  0.93  1.73  0.79
