35
#
 C  1.03 -0.41  1.33
 C  0.11  0.59  2.01
 O  0.46  1.75  2.19
 H  1.83 -0.66  2.04
 H  1.50  0.09  0.48
 H  0.57 -1.34  1.00
 N -1.11  0.16  2.50
 C -1.92 -1.03  2.20
 C -1.18 -2.37  2.45
 O -1.38 -3.36  1.76
 H -1.62  0.94  2.90
 H -2.71 -1.03  2.98
 C -2.67 -1.00  0.86
 C -1.83 -0.92 -0.42
 C -2.72 -0.90 -1.67
 N -1.91 -0.80 -2.87
 C -2.50 -0.65 -4.12
 N -1.56 -0.71 -5.15
 N -3.74 -0.47 -4.39
 H -3.36 -0.14  0.89
 H -3.29 -1.91  0.82
 H -1.15 -1.78 -0.47
 H -1.22 -0.01 -0.42
 H -3.39 -0.03 -1.63
 H -3.36 -1.81 -1.68
 H -1.08 -1.39 -2.87
 H -1.99 -0.47 -6.04
 H -0.71 -0.17 -4.99
 H -4.33 -0.59 -3.57
 N -0.37 -2.36  3.55
 C  0.41 -3.51  3.96
 H -0.23 -1.46  4.01
 H  0.27 -3.71  5.03
 H  1.48 -3.36  3.76
 H  0.06 -4.37  3.38
