35
#
 C  0.28 -0.46  1.37
 C -0.02 -0.85  2.80
 O  0.87 -1.21  3.58
 H -0.01  0.59  1.16
 H -0.26 -1.09  0.65
 H  1.35 -0.56  1.21
 N -1.33 -0.78  3.22
 C -2.51 -0.51  2.41
 C -3.48  0.30  3.29
 O -4.39 -0.24  3.92
 H -1.48 -1.12  4.16
 H -2.20  0.11  1.56
 C -3.17 -1.79  1.87
 C -4.26 -1.50  0.84
 C -4.84 -2.78  0.20
 N -3.89 -3.61 -0.52
 C -3.35 -3.23 -1.74
 N -2.29 -4.06 -2.13
 N -3.69 -2.25 -2.50
 H -3.59 -2.35  2.72
 H -2.38 -2.40  1.42
 H -3.86 -0.85  0.05
 H -5.09 -0.95  1.31
 H -5.66 -2.51 -0.49
 H -5.30 -3.40  0.98
 H -3.28 -4.18  0.06
 H -2.01 -3.86 -3.09
 H -2.45 -5.06 -1.98
 H -4.39 -1.66 -2.06
 N -3.26  1.65  3.37
 C -2.16  2.40  2.79
 H -3.87  2.12  4.02
 H -2.14  2.33  1.69
 H -1.18  2.08  3.18
 H -2.29  3.46  3.04
