35
#
 C  0.08 -0.15  1.02
 C -0.54 -0.22  2.40
 O  0.16 -0.24  3.41
 H  1.03  0.39  1.11
 H -0.54  0.32  0.25
 H  0.31 -1.17  0.69
 N -1.91 -0.33  2.53
 C -3.03 -0.15  1.60
 C -2.78 -0.74  0.20
 O -2.87 -0.05 -0.83
 H -2.17 -0.37  3.51
 H -3.84 -0.78  2.02
 C -3.58  1.28  1.55
 C -2.59  2.39  1.14
 C -3.27  3.49  0.32
 N -3.77  2.95 -0.95
 C -5.07  3.12 -1.39
 N -5.67  4.31 -0.99
 N -5.75  2.28 -2.11
 H -4.00  1.52  2.54
 H -4.43  1.27  0.85
 H -1.78  1.97  0.52
 H -2.11  2.82  2.02
 H -2.54  4.30  0.14
 H -4.11  3.93  0.88
 H -3.39  2.03 -1.17
 H -6.56  4.44 -1.47
 H -5.08  5.14 -1.05
 H -5.24  1.40 -2.21
 N -2.51 -2.07  0.12
 C -2.40 -3.05  1.19
 H -2.36 -2.38 -0.83
 H -2.56 -4.04  0.76
 H -3.18 -2.89  1.95
 H -1.43 -3.03  1.69
