35
#
 C  1.39  0.76  0.52
 C  0.71  0.78  1.87
 O  1.09  1.52  2.79
 H  2.47  0.78  0.66
 H  1.10  1.67 -0.03
 H  1.12 -0.11 -0.09
 N -0.36 -0.06  2.02
 C -1.26  0.01  3.17
 C -1.68  1.49  3.40
 O -2.28  2.03  2.47
 H -0.72 -0.50  1.18
 H -2.21 -0.40  2.81
 C -0.83 -0.92  4.34
 C  0.66 -1.09  4.62
 C  0.93 -2.01  5.81
 N  0.53 -1.39  7.07
 C  0.41 -2.14  8.24
 N  0.15 -1.33  9.35
 N  0.50 -3.41  8.39
 H -1.23 -1.92  4.10
 H -1.37 -0.62  5.25
 H  1.15 -0.12  4.78
 H  1.15 -1.52  3.74
 H  2.00 -2.29  5.83
 H  0.36 -2.94  5.70
 H  0.91 -0.46  7.22
 H -0.05 -1.89 10.17
 H -0.55 -0.61  9.20
 H  0.84 -3.87  7.54
 N -1.53  2.14  4.59
 C -0.51  1.98  5.62
 H -1.93  3.07  4.52
 H  0.49  1.88  5.17
 H -0.52  2.87  6.25
 H -0.71  1.12  6.26
