35
#
 C  0.24 -0.34 -0.14
 C  0.36  0.18  1.28
 O  1.46  0.33  1.83
 H -0.43  0.27 -0.75
 H -0.15 -1.37 -0.15
 H  1.24 -0.35 -0.58
 N -0.80  0.50  1.95
 C -2.12 -0.04  1.65
 C -3.25  0.97  2.00
 O -4.42  0.60  2.10
 H -0.62  0.76  2.92
 H -2.20 -0.16  0.56
 C -2.40 -1.41  2.31
 C -2.20 -1.42  3.83
 C -0.78 -1.82  4.30
 N -0.44 -1.31  5.62
 C -0.25  0.06  5.78
 N -0.71  0.55  7.00
 N  0.34  0.87  4.96
 H -1.76 -2.17  1.83
 H -3.44 -1.66  2.07
 H -2.93 -2.09  4.30
 H -2.42 -0.42  4.23
 H -0.02 -1.47  3.59
 H -0.68 -2.91  4.32
 H -0.90 -1.77  6.40
 H -0.57  1.55  7.09
 H -1.64  0.24  7.29
 H  0.87  0.37  4.24
 N -2.84  2.26  2.14
 C -3.75  3.34  2.42
 H -1.85  2.44  2.03
 H -4.75  2.91  2.57
 H -3.79  4.06  1.59
 H -3.46  3.88  3.34
