35
#
 C  0.40  0.11  0.04
 C  0.28 -0.27  1.51
 O  1.12 -0.96  2.09
 H  1.27  0.78 -0.07
 H -0.49  0.61 -0.36
 H  0.61 -0.79 -0.54
 N -0.84  0.18  2.15
 C -1.07 -0.00  3.57
 C -1.02 -1.46  4.07
 O -0.51 -1.69  5.17
 H -1.50  0.76  1.63
 H -0.24  0.46  4.13
 C -2.38  0.71  3.96
 C -2.72  0.71  5.46
 C -3.54 -0.50  5.93
 N -3.90 -0.48  7.33
 C -2.99 -0.85  8.33
 N -3.50 -0.57  9.61
 N -1.84 -1.39  8.21
 H -3.22  0.27  3.39
 H -2.29  1.75  3.61
 H -3.31  1.62  5.68
 H -1.80  0.79  6.06
 H -3.00 -1.44  5.74
 H -4.47 -0.56  5.34
 H -4.52  0.28  7.61
 H -2.89 -0.97 10.31
 H -4.46 -0.86  9.75
 H -1.49 -1.44  7.24
 N -1.62 -2.47  3.37
 C -2.24 -2.47  2.05
 H -1.47 -3.37  3.81
 H -2.86 -3.37  1.96
 H -1.50 -2.47  1.23
 H -2.90 -1.60  1.92
