35
#
 C  0.08 -0.56  1.85
 C -0.69 -1.01  3.07
 O -0.22 -1.79  3.91
 H  1.14 -0.75  2.03
 H -0.09  0.49  1.61
 H -0.22 -1.16  0.98
 N -1.96 -0.50  3.24
 C -2.86 -0.05  2.17
 C -3.06  1.48  2.12
 O -3.74  1.98  1.23
 H -2.44 -0.96  4.02
 H -2.43 -0.31  1.19
 C -4.22 -0.76  2.31
 C -4.29 -2.21  1.80
 C -3.29 -3.23  2.38
 N -3.14 -3.23  3.83
 C -4.07 -3.63  4.78
 N -5.30 -4.05  4.26
 N -3.92 -3.59  6.06
 H -4.95 -0.17  1.74
 H -4.53 -0.72  3.36
 H -4.15 -2.22  0.70
 H -5.32 -2.56  1.98
 H -2.29 -3.05  1.98
 H -3.57 -4.24  2.00
 H -2.18 -3.16  4.17
 H -5.87 -4.44  4.99
 H -5.25 -4.66  3.44
 H -3.02 -3.16  6.31
 N -2.43  2.18  3.09
 C -2.50  3.62  3.20
 H -1.89  1.64  3.77
 H -1.50  4.07  3.13
 H -2.96  3.92  4.15
 H -3.12  3.98  2.37
