35
#
 C -0.01  0.26  3.64
 C -0.18 -1.23  3.39
 O  0.55 -2.07  3.90
 H  0.77  0.39  4.39
 H -0.94  0.72  3.99
 H  0.28  0.78  2.72
 N -1.22 -1.61  2.57
 C -2.14 -0.77  1.82
 C -3.40 -0.33  2.60
 O -4.18  0.48  2.11
 H -1.23 -2.61  2.38
 H -1.63  0.17  1.56
 C -2.56 -1.43  0.49
 C -3.39 -2.70  0.65
 C -3.84 -3.31 -0.69
 N -2.76 -3.84 -1.52
 C -1.97 -3.06 -2.37
 N -2.66 -2.01 -2.99
 N -0.72 -3.23 -2.64
 H -1.65 -1.63 -0.09
 H -3.13 -0.69 -0.07
 H -4.30 -2.48  1.24
 H -2.85 -3.47  1.22
 H -4.39 -2.56 -1.26
 H -4.54 -4.14 -0.49
 H -2.22 -4.58 -1.08
 H -2.08 -1.58 -3.70
 H -3.59 -2.23 -3.32
 H -0.30 -3.93 -2.02
 N -3.56 -0.90  3.82
 C -4.68 -0.61  4.69
 H -2.84 -1.55  4.13
 H -4.34 -0.18  5.65
 H -5.27 -1.51  4.91
 H -5.31  0.12  4.18
