35
#
 C -0.31 -0.31 -0.09
 C -0.23 -0.16  1.42
 O  0.85  0.01  2.00
 H  0.13  0.58 -0.55
 H -1.33 -0.44 -0.46
 H  0.30 -1.17 -0.39
 N -1.41 -0.20  2.09
 C -1.51 -0.03  3.54
 C -1.23 -1.38  4.25
 O -2.13 -2.09  4.70
 H -2.26 -0.42  1.58
 H -0.71  0.68  3.81
 C -2.87  0.54  3.92
 C -2.93  0.99  5.38
 C -4.32  1.50  5.77
 N -4.34  1.90  7.17
 C -5.34  2.64  7.78
 N -6.30  3.17  6.90
 N -5.42  2.94  9.03
 H -3.64 -0.23  3.74
 H -3.09  1.39  3.26
 H -2.20  1.78  5.57
 H -2.67  0.14  6.03
 H -5.07  0.71  5.55
 H -4.58  2.38  5.16
 H -3.81  1.32  7.81
 H -7.04  3.62  7.43
 H -6.65  2.53  6.19
 H -4.59  2.62  9.54
 N  0.09 -1.69  4.29
 C  0.58 -2.96  4.79
 H  0.72 -1.10  3.73
 H  1.47 -2.81  5.42
 H  0.84 -3.65  3.98
 H -0.21 -3.42  5.39
