35
#
 C -0.30  1.17 -0.07
 C -0.81  0.43  1.15
 O -0.89 -0.80  1.19
 H -0.92  0.90 -0.93
 H  0.72  0.82 -0.28
 H -0.29  2.26  0.04
 N -1.20  1.23  2.20
 C -1.71  0.68  3.45
 C -3.09  1.28  3.80
 O -3.27  1.95  4.81
 H -1.11  2.23  2.11
 H -1.84 -0.40  3.25
 C -0.73  0.82  4.62
 C -0.20  2.25  4.85
 C  1.28  2.43  4.47
 N  1.68  3.81  4.24
 C  1.31  4.45  3.06
 N  1.31  5.84  3.16
 N  0.97  3.90  1.94
 H  0.11  0.14  4.43
 H -1.23  0.46  5.52
 H -0.34  2.55  5.90
 H -0.79  2.98  4.27
 H  1.52  1.85  3.56
 H  1.94  2.01  5.25
 H  1.60  4.40  5.07
 H  1.27  6.27  2.24
 H  2.04  6.24  3.75
 H  0.99  2.88  2.03
 N -4.11  1.04  2.92
 C -4.11  0.27  1.69
 H -4.97  1.51  3.19
 H -3.37 -0.54  1.73
 H -3.88  0.90  0.81
 H -5.10 -0.18  1.55
