35
#
 C -0.04  1.46 -0.70
 C  0.09  1.06  0.76
 O  0.72  0.08  1.12
 H  0.97  1.55 -1.13
 H -0.58  2.39 -0.87
 H -0.55  0.65 -1.24
 N -0.55  1.89  1.65
 C -0.67  1.54  3.06
 C -1.88  2.22  3.72
 O -2.63  1.56  4.44
 H -1.21  2.57  1.27
 H -0.90  0.46  3.11
 C  0.65  1.75  3.85
 C  0.70  1.03  5.21
 C  0.55  1.93  6.45
 N -0.69  2.69  6.47
 C -0.86  4.05  6.52
 N  0.30  4.82  6.55
 N -2.01  4.67  6.58
 H  0.85  2.83  3.97
 H  1.44  1.36  3.20
 H  1.65  0.50  5.31
 H -0.08  0.25  5.24
 H  1.39  2.63  6.51
 H  0.62  1.30  7.35
 H -1.54  2.16  6.29
 H  1.05  4.55  5.92
 H  0.07  5.81  6.50
 H -2.77  3.99  6.72
 N -2.11  3.55  3.50
 C -1.20  4.59  3.04
 H -2.88  3.89  4.08
 H -0.92  5.24  3.88
 H -1.68  5.21  2.26
 H -0.29  4.16  2.61
