35
#
 C  0.11 -1.13  0.17
 C -0.01 -0.53  1.56
 O  1.00 -0.13  2.16
 H -0.81 -1.62 -0.16
 H  0.93 -1.86  0.18
 H  0.38 -0.34 -0.54
 N -1.27 -0.45  2.04
 C -1.67 -0.12  3.42
 C -1.45  1.35  3.88
 O -2.35  1.92  4.49
 H -2.01 -0.93  1.50
 H -2.77 -0.19  3.42
 C -1.10 -1.11  4.45
 C -1.92 -2.39  4.70
 C -2.49 -3.14  3.47
 N -3.85 -2.73  3.14
 C -4.28 -2.31  1.91
 N -5.67 -2.29  1.78
 N -3.44 -2.00  0.96
 H -0.99 -0.60  5.42
 H -0.07 -1.37  4.14
 H -2.76 -2.16  5.36
 H -1.28 -3.09  5.26
 H -2.49 -4.22  3.67
 H -1.88 -2.99  2.57
 H -4.57 -3.08  3.76
 H -6.00 -1.69  1.03
 H -6.20 -2.16  2.63
 H -3.93 -1.70  0.12
 N -0.24  1.88  3.61
 C  0.13  3.22  4.02
 H  0.44  1.27  3.13
 H  0.50  3.80  3.16
 H  0.92  3.20  4.79
 H -0.76  3.70  4.44
