35
#
 C -5.80  1.75  1.64
 C -4.32  1.95  1.95
 O -3.69  2.91  1.51
 H -6.22  0.84  2.09
 H -5.93  1.71  0.56
 H -6.35  2.62  2.01
 N -3.75  0.99  2.73
 C -2.35  1.01  3.08
 C -1.93 -0.45  3.30
 O -2.73 -1.28  3.74
 H -4.27  0.17  3.05
 H -1.81  1.44  2.22
 C -2.10  1.88  4.34
 C -0.63  2.10  4.74
 C  0.19  2.84  3.67
 N  1.60  3.01  4.02
 C  2.59  2.17  3.52
 N  2.20  0.82  3.43
 N  3.72  2.68  3.16
 H -2.65  1.43  5.17
 H -2.57  2.85  4.13
 H -0.17  1.13  4.97
 H -0.60  2.68  5.67
 H -0.24  3.84  3.53
 H  0.11  2.33  2.70
 H  1.93  3.96  4.03
 H  1.75  0.48  4.28
 H  2.97  0.21  3.17
 H  4.41  1.95  2.96
 N -0.64 -0.75  2.98
 C -0.06 -2.06  3.20
 H -0.02 -0.01  2.65
 H  0.65 -2.06  4.04
 H  0.46 -2.41  2.30
 H -0.88 -2.75  3.44
