35
#
 C  0.21 -3.35 -0.34
 C -0.02 -2.42  0.83
 O  0.83 -1.59  1.18
 H  1.14 -3.92 -0.17
 H  0.36 -2.75 -1.25
 H -0.61 -4.06 -0.52
 N -1.21 -2.55  1.47
 C -1.65 -1.67  2.55
 C -1.04 -2.06  3.93
 O -1.72 -2.39  4.91
 H -1.84 -3.29  1.18
 H -1.26 -0.67  2.31
 C -3.18 -1.60  2.61
 C -3.91 -2.97  2.70
 C -5.12 -2.93  3.64
 N -4.67 -2.75  5.00
 C -5.53 -2.38  6.01
 N -4.87 -2.07  7.21
 N -6.82 -2.27  5.97
 H -3.54 -1.06  1.72
 H -3.44 -0.99  3.48
 H -3.22 -3.74  3.08
 H -4.25 -3.29  1.71
 H -5.70 -3.86  3.53
 H -5.79 -2.10  3.33
 H -3.67 -2.56  5.12
 H -5.51 -2.03  7.99
 H -4.04 -2.63  7.40
 H -7.17 -2.44  5.02
 N  0.31 -1.98  3.96
 C  1.07 -2.31  5.15
 H  0.78 -1.70  3.09
 H  0.95 -3.36  5.43
 H  0.74 -1.70  6.01
 H  2.13 -2.11  4.96
