35
#
 C -1.41 -1.19 -0.63
 C -1.01 -1.09  0.83
 O  0.16 -0.89  1.18
 H -2.50 -1.16 -0.78
 H -1.02 -2.13 -1.03
 H -0.93 -0.37 -1.19
 N -2.03 -1.30  1.72
 C -1.82 -1.22  3.16
 C -2.24 -2.54  3.87
 O -3.11 -2.56  4.74
 H -2.98 -1.28  1.35
 H -0.74 -1.10  3.28
 C -2.52 -0.01  3.79
 C -4.05  0.04  3.63
 C -4.59  1.37  3.10
 N -3.95  1.84  1.87
 C -4.01  1.18  0.67
 N -3.23  1.79 -0.31
 N -4.68  0.11  0.37
 H -2.07  0.88  3.31
 H -2.25  0.03  4.85
 H -4.54 -0.17  4.59
 H -4.39 -0.78  2.97
 H -4.43  2.16  3.84
 H -5.69  1.30  2.96
 H -3.67  2.81  1.84
 H -3.24  1.26 -1.18
 H -2.29  2.05 -0.03
 H -5.35 -0.12  1.11
 N -1.58 -3.68  3.51
 C -0.51 -3.87  2.54
 H -1.93 -4.50  3.99
 H  0.11 -2.97  2.45
 H -0.90 -4.12  1.54
 H  0.13 -4.69  2.88
