35
#
 C -1.91 -0.01 -0.00
 C -1.34  0.21  1.39
 O -0.20  0.64  1.57
 H -1.36 -0.83 -0.48
 H -1.73  0.89 -0.60
 H -2.98 -0.24 -0.01
 N -2.19 -0.08  2.42
 C -1.79 -0.08  3.83
 C -0.89  1.13  4.20
 O  0.19  0.98  4.77
 H -3.09 -0.48  2.20
 H -2.72  0.04  4.41
 C -1.11 -1.39  4.25
 C -1.11 -1.63  5.77
 C  0.14 -2.35  6.28
 N  1.32 -1.53  6.03
 C  2.53 -1.69  6.68
 N  2.70 -2.93  7.30
 N  3.47 -0.81  6.78
 H -0.09 -1.38  3.86
 H -1.64 -2.22  3.75
 H -2.00 -2.20  6.07
 H -1.17 -0.66  6.30
 H  0.22 -3.33  5.76
 H  0.03 -2.57  7.35
 H  1.14 -0.61  5.64
 H  3.66 -3.04  7.60
 H  2.38 -3.73  6.76
 H  3.17  0.09  6.40
 N -1.40  2.38  3.99
 C -2.60  2.79  3.30
 H -0.72  3.11  4.22
 H -2.87  3.80  3.62
 H -3.44  2.13  3.55
 H -2.48  2.79  2.20
