35
#
 C -0.65 -1.55  0.08
 C -0.07 -0.86  1.30
 O  1.06 -1.11  1.71
 H  0.08 -2.28 -0.27
 H -0.86 -0.84 -0.73
 H -1.59 -2.07  0.32
 N -0.85  0.09  1.92
 C -2.23  0.44  1.62
 C -2.34  1.95  1.89
 O -2.17  2.38  3.03
 H -0.44  0.51  2.75
 H -2.42  0.22  0.57
 C -3.23 -0.37  2.48
 C -4.68 -0.35  1.98
 C -5.43  0.98  2.20
 N -6.81  0.96  1.72
 C -7.09  1.11  0.37
 N -8.45  0.91  0.09
 N -6.16  1.38 -0.48
 H -3.17 -0.00  3.52
 H -2.88 -1.41  2.49
 H -5.24 -1.15  2.49
 H -4.71 -0.59  0.90
 H -4.93  1.80  1.68
 H -5.45  1.23  3.27
 H -7.44  0.34  2.22
 H -8.71  1.17 -0.85
 H -9.09  1.28  0.78
 H -6.55  1.58 -1.40
 N -2.57  2.77  0.83
 C -2.83  2.41 -0.56
 H -2.60  3.75  1.09
 H -1.99  1.83 -0.98
 H -2.91  3.33 -1.13
 H -3.77  1.85 -0.67
