35
#
 C -2.49  0.79 -0.49
 C -1.99  1.10  0.91
 O -1.23  2.03  1.15
 H -2.95  1.70 -0.90
 H -3.21 -0.03 -0.54
 H -1.63  0.55 -1.12
 N -2.47  0.27  1.89
 C -1.95  0.33  3.27
 C -2.07 -1.04  3.95
 O -1.08 -1.60  4.40
 H -2.95 -0.58  1.60
 H -0.87  0.50  3.19
 C -2.57  1.49  4.08
 C -2.22  1.47  5.58
 C -0.73  1.65  5.87
 N -0.44  1.68  7.30
 C -0.56  2.86  8.01
 N -0.07  2.75  9.33
 N -1.05  3.92  7.46
 H -3.66  1.49  3.96
 H -2.21  2.42  3.63
 H -2.56  0.53  6.05
 H -2.76  2.29  6.07
 H -0.38  2.59  5.40
 H -0.15  0.82  5.45
 H  0.30  1.07  7.61
 H -0.33  3.53  9.92
 H -0.27  1.85  9.77
 H -1.14  4.68  8.13
 N -3.31 -1.65  4.02
 C -4.63 -1.07  3.90
 H -3.25 -2.53  4.53
 H -4.67 -0.34  3.09
 H -4.96 -0.56  4.83
 H -5.35 -1.86  3.67
