35
#
 C  0.12 -0.94  0.48
 C  0.05 -0.41  1.90
 O  1.09 -0.15  2.53
 H  0.62 -1.92  0.51
 H  0.76 -0.27 -0.11
 H -0.85 -1.04 -0.01
 N -1.20 -0.27  2.40
 C -1.67  0.07  3.77
 C -1.20  1.41  4.40
 O -1.99  1.99  5.14
 H -1.95 -0.50  1.76
 H -2.74  0.26  3.63
 C -1.57 -1.08  4.79
 C -0.17 -1.61  5.16
 C  0.25 -2.85  4.35
 N  1.58 -3.32  4.70
 C  2.60 -3.57  3.80
 N  2.57 -2.78  2.65
 N  3.46 -4.49  4.09
 H -2.19 -1.92  4.42
 H -2.08 -0.70  5.69
 H -0.17 -1.89  6.23
 H  0.59 -0.83  5.05
 H  0.23 -2.64  3.28
 H -0.49 -3.65  4.51
 H  1.64 -3.97  5.49
 H  3.42 -2.85  2.10
 H  2.25 -1.82  2.75
 H  4.24 -4.49  3.43
 N  0.04  1.85  4.13
 C  0.56  3.07  4.72
 H  0.66  1.23  3.59
 H  1.38  3.45  4.10
 H  0.95  2.89  5.74
 H -0.23  3.81  4.79
