35
#
 C  0.69 -0.56  1.38
 C  0.06 -0.06  2.67
 O  0.73  0.24  3.65
 H  1.74 -0.28  1.40
 H  0.21 -0.16  0.48
 H  0.62 -1.65  1.33
 N -1.32  0.02  2.74
 C -2.34 -0.23  1.72
 C -2.19 -1.60  1.02
 O -2.13 -1.71 -0.20
 H -1.63  0.36  3.64
 H -3.29 -0.29  2.29
 C -2.50  0.91  0.70
 C -2.90  2.23  1.35
 C -3.03  3.38  0.34
 N -4.03  3.14 -0.69
 C -3.66  2.88 -2.00
 N -4.77  2.80 -2.86
 N -2.42  2.76 -2.33
 H -3.25  0.60 -0.04
 H -1.56  1.04  0.13
 H -2.16  2.53  2.10
 H -3.86  2.11  1.88
 H -2.07  3.54 -0.17
 H -3.29  4.31  0.87
 H -4.92  3.62 -0.59
 H -4.54  2.44 -3.78
 H -5.58  2.32 -2.46
 H -2.32  2.48 -3.30
 N -2.15 -2.70  1.83
 C -2.26 -2.80  3.28
 H -2.03 -3.57  1.31
 H -2.54 -3.82  3.54
 H -3.05 -2.14  3.66
 H -1.32 -2.55  3.80
