35
#
 C -1.44 -0.43  3.26
 C -2.77 -0.70  3.94
 O -2.88 -0.70  5.16
 H -0.65 -0.64  3.99
 H -1.38  0.63  2.99
 H -1.30 -1.05  2.36
 N -3.90 -0.92  3.17
 C -4.12 -1.11  1.74
 C -3.56 -2.44  1.18
 O -2.37 -2.76  1.27
 H -4.69 -1.12  3.77
 H -5.21 -1.19  1.66
 C -3.68  0.09  0.86
 C -4.73  1.22  0.81
 C -5.69  1.12 -0.39
 N -6.36 -0.17 -0.58
 C -7.28 -0.71  0.29
 N -8.12  0.20  0.90
 N -7.26 -2.00  0.50
 H -3.48 -0.28 -0.16
 H -2.73  0.47  1.22
 H -4.23  2.20  0.74
 H -5.30  1.23  1.75
 H -5.14  1.31 -1.32
 H -6.45  1.92 -0.32
 H -5.77 -0.90 -0.98
 H -8.89 -0.20  1.42
 H -8.36  1.03  0.38
 H -8.07 -2.31  1.04
 N -4.50 -3.18  0.53
 C -4.16 -4.43 -0.11
 H -5.49 -2.88  0.55
 H -4.97 -4.71 -0.79
 H -4.01 -5.24  0.63
 H -3.22 -4.33 -0.67
