35
#
 C -0.41 -1.06  0.51
 C -0.15 -0.45  1.88
 O  0.87 -0.70  2.52
 H  0.43 -1.73  0.28
 H -0.45 -0.28 -0.26
 H -1.35 -1.62  0.47
 N -1.11  0.39  2.38
 C -2.41  0.71  1.81
 C -2.74  2.14  2.25
 O -2.62  2.47  3.43
 H -0.93  0.78  3.30
 H -2.33  0.65  0.71
 C -3.51 -0.26  2.29
 C -4.87 -0.05  1.62
 C -5.93 -1.07  2.04
 N -5.61 -2.47  1.78
 C -5.58 -2.97  0.50
 N -5.12 -4.30  0.45
 N -5.92 -2.23 -0.51
 H -3.60 -0.16  3.38
 H -3.15 -1.28  2.09
 H -4.76 -0.11  0.52
 H -5.26  0.95  1.85
 H -6.87 -0.85  1.51
 H -6.14 -0.98  3.12
 H -4.97 -2.91  2.43
 H -5.24 -4.74 -0.45
 H -5.46 -4.89  1.20
 H -5.97 -2.78 -1.37
 N -3.19  3.02  1.31
 C -3.33  2.82 -0.13
 H -3.40  3.94  1.68
 H -3.67  3.76 -0.58
 H -4.07  2.04 -0.38
 H -2.37  2.56 -0.60
