35
#
 C -0.72 -0.51  2.36
 C -0.02  0.64  1.66
 O  1.13  0.95  1.95
 H -1.33 -1.13  1.68
 H -1.39 -0.13  3.15
 H  0.04 -1.13  2.83
 N -0.72  1.33  0.70
 C -2.00  1.01  0.10
 C -2.02  1.70 -1.29
 O -0.96  2.03 -1.83
 H -0.15  1.95  0.12
 H -2.05 -0.08 -0.13
 C -3.22  1.33  0.99
 C -3.44  2.83  1.22
 C -4.75  3.15  1.97
 N -5.92  2.34  1.66
 C -6.50  2.22  0.42
 N -7.73  1.55  0.47
 N -5.91  2.63 -0.66
 H -3.10  0.81  1.95
 H -4.11  0.89  0.52
 H -3.46  3.35  0.26
 H -2.61  3.25  1.79
 H -4.99  4.21  1.81
 H -4.59  3.02  3.05
 H -6.23  1.69  2.36
 H -8.21  1.48 -0.42
 H -8.35  1.83  1.23
 H -6.54  2.60 -1.46
 N -3.22  1.86 -1.88
 C -3.31  2.53 -3.17
 H -4.08  1.91 -1.31
 H -3.00  3.58 -3.12
 H -4.34  2.48 -3.52
 H -2.65  2.03 -3.90
