35
#
 C  0.38  0.16  0.30
 C  0.16  0.21  1.80
 O  1.01  0.64  2.58
 H -0.33 -0.48 -0.23
 H  1.40 -0.18  0.10
 H  0.29  1.19 -0.10
 N -1.06 -0.26  2.22
 C -1.52 -0.10  3.60
 C -1.23  1.35  4.09
 O -1.68  2.30  3.45
 H -1.75 -0.47  1.52
 H -2.62 -0.10  3.54
 C -1.14 -1.29  4.51
 C  0.33 -1.72  4.55
 C  0.58 -2.89  5.52
 N -0.12 -4.12  5.23
 C  0.24 -4.96  4.18
 N -0.69 -5.99  3.98
 N  1.27 -4.89  3.41
 H -1.74 -2.15  4.16
 H -1.51 -1.06  5.53
 H  0.99 -0.88  4.84
 H  0.65 -2.00  3.54
 H  0.31 -2.59  6.54
 H  1.66 -3.11  5.55
 H -1.11 -4.14  5.46
 H -0.33 -6.66  3.30
 H -0.99 -6.45  4.84
 H  1.80 -4.03  3.56
 N -0.58  1.48  5.28
 C -0.19  2.80  5.76
 H -0.04  0.69  5.60
 H  0.00  2.75  6.84
 H -1.01  3.50  5.57
 H  0.71  3.17  5.24
