35
#
 C -0.69 -0.47 -0.38
 C -0.19 -0.33  1.04
 O  0.91 -0.74  1.39
 H  0.08 -0.99 -0.96
 H -0.88  0.51 -0.84
 H -1.63 -1.04 -0.44
 N -1.03  0.28  1.95
 C -2.34  0.84  1.72
 C -2.51  2.00  2.72
 O -1.91  2.00  3.80
 H -0.64  0.43  2.88
 H -2.40  1.24  0.70
 C -3.49 -0.20  1.88
 C -3.59 -0.88  3.25
 C -4.48 -0.13  4.26
 N -4.51 -0.69  5.60
 C -3.43 -0.68  6.48
 N -2.58  0.41  6.37
 N -3.37 -1.63  7.36
 H -3.31 -0.97  1.11
 H -4.45  0.27  1.61
 H -2.59 -1.02  3.68
 H -4.00 -1.89  3.13
 H -5.52 -0.12  3.89
 H -4.19  0.93  4.34
 H -5.03 -1.56  5.70
 H -2.49  0.91  5.49
 H -1.70  0.30  6.86
 H -2.60 -1.48  8.01
 N -3.36  3.00  2.39
 C -4.10  3.19  1.15
 H -3.46  3.71  3.11
 H -4.56  4.19  1.17
 H -4.91  2.46  1.03
 H -3.45  3.15  0.27
