35
#
 C  0.46 -0.28  0.10
 C  0.14 -0.05  1.56
 O  0.82  0.71  2.27
 H  0.43  0.69 -0.42
 H -0.23 -0.97 -0.40
 H  1.48 -0.66  0.02
 N -0.93 -0.73  2.05
 C -1.44 -0.59  3.42
 C -0.64 -1.47  4.43
 O -1.17 -2.38  5.06
 H -1.40 -1.40  1.44
 H -1.24  0.46  3.69
 C -2.94 -0.85  3.50
 C -3.44 -2.19  2.92
 C -4.05 -2.07  1.52
 N -4.47 -3.37  1.03
 C -4.92 -3.57 -0.27
 N -5.69 -2.52 -0.77
 N -4.58 -4.65 -0.89
 H -3.46 -0.02  3.00
 H -3.21 -0.80  4.56
 H -4.20 -2.62  3.58
 H -2.62 -2.93  2.91
 H -3.34 -1.58  0.81
 H -4.92 -1.39  1.58
 H -3.85 -4.14  1.29
 H -6.19 -2.74 -1.63
 H -6.28 -2.04 -0.10
 H -5.08 -4.74 -1.78
 N  0.66 -1.10  4.54
 C  1.60 -1.80  5.39
 H  0.98 -0.33  3.94
 H  2.08 -1.11  6.09
 H  2.38 -2.30  4.80
 H  1.05 -2.56  5.95
