35
#
 C -2.74 -2.01  1.31
 C -2.94 -2.19  2.81
 O -3.74 -3.01  3.26
 H -2.50 -2.99  0.87
 H -1.96 -1.29  1.05
 H -3.70 -1.68  0.88
 N -2.16 -1.39  3.60
 C -2.22 -1.27  5.06
 C -1.66 -2.47  5.86
 O -0.86 -2.27  6.77
 H -1.50 -0.79  3.13
 H -1.52 -0.46  5.31
 C -3.62 -0.88  5.59
 C -4.25  0.35  4.93
 C -3.43  1.63  5.08
 N -4.12  2.75  4.46
 C -3.50  3.98  4.31
 N -4.37  4.96  3.82
 N -2.28  4.30  4.58
 H -3.51 -0.71  6.68
 H -4.30 -1.73  5.48
 H -5.25  0.50  5.38
 H -4.42  0.15  3.86
 H -2.46  1.52  4.57
 H -3.21  1.81  6.15
 H -5.12  2.80  4.66
 H -4.96  4.65  3.04
 H -3.87  5.82  3.60
 H -1.79  3.55  5.08
 N -2.14 -3.69  5.50
 C -1.73 -4.91  6.18
 H -2.84 -3.71  4.75
 H -2.57 -5.35  6.73
 H -0.94 -4.66  6.89
 H -1.36 -5.64  5.45
