35
#
 C -0.65 -1.03 -0.10
 C -0.67 -0.79  1.39
 O  0.31 -0.99  2.10
 H  0.10 -0.37 -0.56
 H -1.62 -0.86 -0.59
 H -0.34 -2.07 -0.29
 N -1.86 -0.33  1.90
 C -2.02  0.07  3.29
 C -3.20 -0.67  3.96
 O -4.19 -0.08  4.41
 H -2.62 -0.13  1.25
 H -1.09 -0.26  3.78
 C -2.14  1.59  3.45
 C -3.23  2.26  2.60
 C -3.92  3.43  3.31
 N -4.61  2.94  4.49
 C -5.30  3.77  5.34
 N -5.95  3.07  6.37
 N -5.43  5.05  5.27
 H -1.16  2.03  3.21
 H -2.33  1.80  4.51
 H -4.01  1.54  2.33
 H -2.81  2.63  1.65
 H -4.62  3.92  2.61
 H -3.18  4.19  3.60
 H -4.75  1.94  4.54
 H -6.28  3.72  7.08
 H -5.42  2.30  6.76
 H -5.02  5.42  4.41
 N -3.11 -2.03  4.05
 C -2.04 -2.91  3.61
 H -3.94 -2.45  4.46
 H -2.21 -3.29  2.59
 H -2.00 -3.77  4.30
 H -1.07 -2.41  3.64
