35
#
 C -3.14  1.71 -0.47
 C -2.33  1.53  0.80
 O -1.26  0.92  0.81
 H -3.49  0.72 -0.80
 H -2.48  2.09 -1.26
 H -4.00  2.38 -0.37
 N -2.87  2.11  1.91
 C -2.35  1.98  3.28
 C -0.80  1.93  3.37
 O -0.23  1.03  3.99
 H -3.77  2.55  1.82
 H -2.63  2.92  3.79
 C -2.98  0.83  4.06
 C -2.77 -0.57  3.45
 C -2.73 -1.67  4.51
 N -1.58 -1.49  5.39
 C -1.60 -1.75  6.74
 N -2.50 -2.76  7.11
 N -0.85 -1.06  7.54
 H -4.06  1.03  4.16
 H -2.57  0.86  5.08
 H -1.83 -0.59  2.89
 H -3.57 -0.80  2.73
 H -2.69 -2.65  4.00
 H -3.66 -1.66  5.11
 H -0.95 -0.72  5.14
 H -2.38 -3.07  8.07
 H -2.57 -3.54  6.46
 H -0.87 -1.45  8.49
 N -0.10  2.99  2.87
 C -0.56  4.11  2.07
 H  0.91  2.85  2.95
 H  0.17  4.92  2.15
 H -1.52  4.49  2.44
 H -0.67  3.85  1.01
