35
#
 C  0.45  0.68  0.66
 C  0.04  0.72  2.13
 O  0.84  0.96  3.02
 H  0.36 -0.34  0.26
 H  1.50  0.98  0.61
 H -0.15  1.34  0.03
 N -1.28  0.46  2.41
 C -2.34  0.08  1.49
 C -3.62  0.83  1.94
 O -4.46  0.30  2.67
 H -1.49  0.44  3.41
 H -2.06  0.44  0.50
 C -2.57 -1.44  1.46
 C -3.62 -1.92  0.45
 C -3.12 -2.12 -1.00
 N -2.34 -1.03 -1.59
 C -2.80  0.23 -1.92
 N -4.18  0.39 -1.90
 N -2.06  1.23 -2.29
 H -2.89 -1.75  2.47
 H -1.60 -1.92  1.27
 H -4.49 -1.24  0.48
 H -4.02 -2.89  0.77
 H -3.98 -2.34 -1.66
 H -2.47 -3.00 -1.03
 H -1.34 -1.10 -1.51
 H -4.45  1.35 -2.05
 H -4.69 -0.07 -1.15
 H -1.09  0.95 -2.41
 N -3.76  2.12  1.51
 C -2.80  2.93  0.77
 H -4.56  2.59  1.92
 H -1.89  3.13  1.35
 H -3.27  3.89  0.54
 H -2.52  2.47 -0.19
