35
#
 C  0.38  0.91  0.36
 C  0.14  0.66  1.83
 O  0.94  1.01  2.70
 H  0.36  2.00  0.20
 H -0.35  0.44 -0.30
 H  1.39  0.56  0.10
 N -1.06  0.06  2.14
 C -1.39 -0.36  3.50
 C -2.00 -1.77  3.51
 O -1.48 -2.66  4.17
 H -1.60 -0.31  1.37
 H -0.43 -0.47  4.02
 C -2.24  0.64  4.33
 C -1.56  1.98  4.64
 C -1.76  3.05  3.56
 N -1.12  4.32  3.88
 C -0.05  4.90  3.20
 N  0.67  4.04  2.38
 N  0.29  6.14  3.26
 H -2.46  0.12  5.27
 H -3.21  0.82  3.85
 H -0.48  1.83  4.80
 H -1.96  2.37  5.58
 H -2.84  3.22  3.41
 H -1.37  2.72  2.59
 H -1.64  4.96  4.46
 H  1.50  4.51  2.03
 H  0.87  3.10  2.73
 H -0.39  6.69  3.79
 N -3.10 -2.04  2.74
 C -4.08 -1.13  2.15
 H -3.41 -3.00  2.85
 H -4.92 -0.92  2.83
 H -4.48 -1.58  1.23
 H -3.63 -0.17  1.88
