35
#
 C -0.66  2.18  0.08
 C -0.72  1.03  1.07
 O  0.30  0.55  1.58
 H -0.04  1.88 -0.77
 H -0.17  3.03  0.56
 H -1.65  2.48 -0.29
 N -1.97  0.58  1.37
 C -2.19 -0.54  2.28
 C -3.48 -1.22  1.81
 O -4.41 -0.53  1.37
 H -2.80  0.95  0.93
 H -1.31 -1.19  2.20
 C -2.31 -0.05  3.74
 C -2.33 -1.15  4.80
 C -2.39 -0.60  6.24
 N -3.64  0.05  6.60
 C -4.79 -0.66  6.89
 N -5.91  0.17  7.03
 N -4.94 -1.94  7.02
 H -3.22  0.57  3.81
 H -1.45  0.61  3.92
 H -1.42 -1.77  4.71
 H -3.19 -1.82  4.64
 H -1.58  0.12  6.39
 H -2.22 -1.42  6.95
 H -3.80  0.96  6.18
 H -6.71 -0.36  7.37
 H -5.75  1.01  7.58
 H -4.08 -2.44  6.77
 N -3.59 -2.57  1.91
 C -2.62 -3.57  2.34
 H -4.51 -2.91  1.64
 H -1.61 -3.16  2.30
 H -2.66 -4.43  1.66
 H -2.81 -3.92  3.36
