35
#
 C -0.62 -1.63  0.26
 C -1.41 -1.69  1.55
 O -2.58 -1.29  1.61
 H -0.64 -0.60 -0.12
 H -1.11 -2.26 -0.48
 H  0.43 -1.94  0.37
 N -0.75 -2.20  2.63
 C -1.37 -2.45  3.93
 C -0.62 -1.76  5.10
 O -0.72 -2.17  6.25
 H  0.16 -2.61  2.47
 H -2.36 -1.96  3.89
 C -1.56 -3.95  4.20
 C -2.54 -4.67  3.27
 C -4.03 -4.42  3.53
 N -4.42 -3.06  3.22
 C -5.70 -2.58  3.50
 N -5.93 -1.34  2.91
 N -6.63 -3.14  4.19
 H -1.88 -4.05  5.25
 H -0.58 -4.44  4.14
 H -2.38 -5.75  3.37
 H -2.31 -4.44  2.21
 H -4.24 -4.61  4.60
 H -4.62 -5.16  2.96
 H -3.95 -2.61  2.44
 H -6.75 -0.88  3.31
 H -5.13 -0.72  2.83
 H -6.37 -4.09  4.47
 N  0.12 -0.67  4.75
 C  0.79  0.16  5.73
 H  0.10 -0.38  3.78
 H  0.75 -0.36  6.69
 H  0.30  1.14  5.83
 H  1.84  0.32  5.45
