35
#
 C  0.19 -1.34  0.07
 C  0.46 -1.58  1.55
 O  1.35 -2.34  1.92
 H  0.42 -0.30 -0.21
 H -0.86 -1.54 -0.20
 H  0.83 -2.01 -0.50
 N -0.34 -0.94  2.46
 C -1.24  0.16  2.17
 C -0.50  1.52  2.29
 O  0.45  1.71  3.05
 H  0.00 -1.01  3.43
 H -1.56  0.06  1.13
 C -2.53  0.11  3.04
 C -2.36 -0.24  4.52
 C -1.73  0.87  5.39
 N -1.05  0.39  6.59
 C  0.07 -0.43  6.54
 N  0.78 -0.38  5.34
 N  0.48 -1.22  7.47
 H -3.18 -0.66  2.58
 H -3.07  1.06  2.93
 H -1.76 -1.15  4.61
 H -3.35 -0.50  4.93
 H -2.50  1.59  5.71
 H -1.01  1.46  4.80
 H -1.65  0.19  7.38
 H  1.67 -0.86  5.42
 H  0.85  0.51  4.85
 H -0.18 -1.25  8.25
 N -0.96  2.53  1.49
 C -1.98  2.47  0.45
 H -0.44  3.40  1.60
 H -2.96  2.18  0.84
 H -1.70  1.77 -0.36
 H -2.08  3.47  0.01
