35
#
 C -0.13  0.14  0.59
 C  0.01 -0.26  2.05
 O  1.09 -0.53  2.55
 H  0.87  0.13  0.14
 H -0.56  1.15  0.47
 H -0.78 -0.56  0.04
 N -1.15 -0.28  2.80
 C -2.52 -0.11  2.34
 C -3.28  0.60  3.48
 O -3.95 -0.04  4.30
 H -1.01 -0.62  3.75
 H -2.49  0.56  1.46
 C -3.19 -1.44  1.94
 C -4.38 -1.34  0.97
 C -5.62 -0.59  1.45
 N -5.39  0.86  1.46
 C -6.09  1.77  2.25
 N -6.54  1.27  3.46
 N -6.31  3.01  1.94
 H -3.50 -1.95  2.86
 H -2.42 -2.06  1.47
 H -4.69 -2.37  0.72
 H -4.04 -0.90  0.01
 H -5.88 -0.91  2.47
 H -6.48 -0.85  0.81
 H -5.21  1.24  0.53
 H -6.92  2.01  4.04
 H -5.88  0.67  3.96
 H -6.06  3.20  0.97
 N -3.13  1.95  3.58
 C -2.52  2.84  2.61
 H -3.68  2.37  4.32
 H -1.47  2.57  2.42
 H -2.53  3.85  3.01
 H -3.07  2.85  1.66
