35
#
 C -0.14  0.01 -0.10
 C -0.11  0.04  1.41
 O  0.94  0.12  2.05
 H  0.34  0.92 -0.48
 H -1.14 -0.07 -0.53
 H  0.47 -0.84 -0.45
 N -1.33 -0.02  2.03
 C -1.48  0.04  3.48
 C -1.26 -1.37  4.09
 O -2.19 -2.09  4.46
 H -2.16 -0.17  1.47
 H -0.68  0.70  3.84
 C -2.84  0.62  3.85
 C -2.97  0.95  5.34
 C -4.34  1.54  5.67
 N -4.45  1.81  7.10
 C -5.44  2.65  7.57
 N -5.51  2.65  8.98
 N -6.20  3.31  6.76
 H -3.63 -0.11  3.57
 H -3.00  1.53  3.25
 H -2.19  1.67  5.63
 H -2.81  0.03  5.93
 H -5.14  0.86  5.33
 H -4.50  2.50  5.16
 H -4.26  1.01  7.70
 H -6.11  3.38  9.35
 H -4.61  2.62  9.44
 H -6.79  3.97  7.26
 N  0.05 -1.72  4.16
 C  0.49 -3.04  4.57
 H  0.71 -1.10  3.68
 H  1.35 -2.96  5.26
 H  0.78 -3.66  3.72
 H -0.34 -3.53  5.09
