35
#
 C -0.82 -0.92  0.18
 C -0.14 -0.75  1.53
 O  0.95 -1.24  1.79
 H -0.27 -1.68 -0.38
 H -0.80  0.02 -0.39
 H -1.87 -1.22  0.28
 N -0.81  0.00  2.47
 C -2.02  0.79  2.30
 C -1.91  1.94  1.27
 O -2.85  2.13  0.49
 H -0.29  0.11  3.34
 H -2.82  0.16  1.87
 C -2.49  1.27  3.69
 C -3.85  1.97  3.78
 C -3.95  3.41  3.25
 N -2.93  4.28  3.80
 C -2.20  5.21  3.09
 N -1.25  5.88  3.88
 N -2.25  5.48  1.83
 H -1.71  1.92  4.12
 H -2.52  0.37  4.32
 H -4.14  1.97  4.85
 H -4.62  1.37  3.26
 H -4.96  3.79  3.48
 H -3.85  3.41  2.16
 H -2.74  4.21  4.79
 H -0.86  6.66  3.36
 H -1.59  6.17  4.79
 H -2.92  4.89  1.33
 N -0.80  2.72  1.23
 C  0.31  2.82  2.17
 H -0.92  3.52  0.61
 H  0.88  3.72  1.91
 H  0.99  1.96  2.10
 H -0.02  2.94  3.21
