35
#
 C -1.33  1.82  0.18
 C -0.43  1.17  1.19
 O  0.76  1.46  1.29
 H -0.72  2.10 -0.69
 H -1.76  2.76  0.59
 H -2.17  1.19 -0.15
 N -0.95  0.18  2.02
 C -2.35 -0.17  2.29
 C -3.03 -0.98  1.16
 O -4.25 -1.10  1.10
 H -0.26 -0.12  2.70
 H -2.29 -0.89  3.13
 C -3.24  0.99  2.75
 C -2.73  1.65  4.04
 C -3.45  2.96  4.39
 N -3.19  4.05  3.44
 C -3.92  4.25  2.28
 N -5.30  4.08  2.43
 N -3.29  4.54  1.19
 H -4.25  0.60  2.89
 H -3.31  1.73  1.95
 H -2.84  0.96  4.89
 H -1.65  1.87  3.95
 H -3.14  3.30  5.39
 H -4.54  2.79  4.43
 H -2.21  4.20  3.24
 H -5.85  4.35  1.62
 H -5.70  4.41  3.30
 H -3.94  4.83  0.45
 N -2.17 -1.59  0.30
 C -2.61 -2.41 -0.81
 H -1.18 -1.39  0.42
 H -2.18 -3.42 -0.75
 H -2.33 -1.97 -1.78
 H -3.70 -2.49 -0.75
