35
#
 C -2.32 -0.30 -1.06
 C -1.58  0.31  0.12
 O -0.57  1.00 -0.01
 H -2.37  0.44 -1.86
 H -3.33 -0.65 -0.82
 H -1.73 -1.15 -1.43
 N -2.14  0.06  1.36
 C -1.40  0.34  2.60
 C -1.02  1.84  2.68
 O  0.05  2.24  3.14
 H -2.87 -0.63  1.41
 H -2.12  0.19  3.42
 C -0.24 -0.66  2.79
 C  0.42 -0.71  4.18
 C  1.81 -0.03  4.31
 N  2.82 -0.51  3.38
 C  2.97 -0.11  2.06
 N  2.55  1.18  1.76
 N  3.55 -0.94  1.25
 H  0.51 -0.49  2.01
 H -0.68 -1.64  2.58
 H  0.54 -1.76  4.46
 H -0.24 -0.27  4.95
 H  2.18 -0.21  5.33
 H  1.70  1.05  4.21
 H  3.13 -1.47  3.50
 H  2.37  1.32  0.77
 H  1.81  1.58  2.32
 H  3.70 -0.51  0.34
 N -2.01  2.69  2.29
 C -1.80  4.12  2.22
 H -2.79  2.29  1.78
 H -2.76  4.64  2.32
 H -1.33  4.42  1.27
 H -1.14  4.42  3.04
