35
#
 C -1.85  1.37 -0.45
 C -1.04  1.29  0.82
 O  0.18  1.34  0.83
 H -1.17  1.64 -1.26
 H -2.65  2.13 -0.39
 H -2.31  0.40 -0.69
 N -1.73  1.15  2.02
 C -3.14  0.88  2.19
 C -3.89  1.86  3.11
 O -4.94  2.37  2.73
 H -1.09  0.97  2.79
 H -3.61  1.07  1.22
 C -3.40 -0.60  2.55
 C -4.87 -1.02  2.72
 C -5.82 -0.69  1.55
 N -5.28 -0.86  0.20
 C -4.59 -1.97 -0.26
 N -5.04 -3.18  0.28
 N -3.61 -1.80 -1.08
 H -2.86 -0.86  3.47
 H -2.94 -1.20  1.75
 H -5.30 -0.55  3.63
 H -4.88 -2.10  2.90
 H -6.12  0.37  1.61
 H -6.74 -1.27  1.67
 H -4.90 -0.02 -0.23
 H -4.68 -4.00 -0.19
 H -6.04 -3.24  0.48
 H -3.27 -2.69 -1.46
 N -3.41  2.13  4.37
 C -2.18  1.70  5.01
 H -3.98  2.82  4.85
 H -2.00  0.64  4.86
 H -2.29  1.85  6.10
 H -1.31  2.28  4.68
