35
#
 C -2.51 -1.94  0.85
 C -2.11 -0.69  1.61
 O -2.53  0.43  1.30
 H -1.97 -2.84  1.17
 H -2.33 -1.77 -0.22
 H -3.59 -2.10  0.98
 N -1.29 -0.89  2.68
 C -0.80  0.17  3.54
 C  0.20 -0.50  4.50
 O  0.25 -1.72  4.64
 H -0.97 -1.82  2.94
 H -0.27  0.91  2.92
 C -1.91  0.94  4.31
 C -2.70  0.19  5.38
 C -3.52 -1.02  4.92
 N -4.42 -0.68  3.83
 C -5.29 -1.60  3.24
 N -5.57 -2.72  4.01
 N -5.90 -1.45  2.11
 H -2.57  1.38  3.55
 H -1.42  1.81  4.79
 H -3.39  0.91  5.85
 H -2.02 -0.16  6.17
 H -4.11 -1.38  5.77
 H -2.83 -1.84  4.64
 H -4.06 -0.02  3.15
 H -4.80 -3.14  4.52
 H -6.11 -3.40  3.48
 H -5.69 -0.54  1.70
 N  0.99  0.36  5.19
 C  1.97 -0.07  6.17
 H  0.91  1.35  4.99
 H  1.91 -1.16  6.24
 H  1.74  0.36  7.16
 H  2.98  0.22  5.88
