35
#
 C -0.03 -0.12  0.12
 C -0.09  0.00  1.63
 O  0.93  0.08  2.31
 H -0.03 -1.18 -0.14
 H  0.92  0.32 -0.20
 H -0.86  0.36 -0.41
 N -1.32 -0.00  2.26
 C -2.69  0.03  1.76
 C -2.89 -0.96  0.58
 O -2.45 -2.10  0.63
 H -1.21  0.02  3.27
 H -3.28 -0.46  2.55
 C -3.27  1.46  1.64
 C -2.57  2.46  0.69
 C -1.42  3.24  1.35
 N -0.81  4.23  0.49
 C -1.41  5.44  0.18
 N -0.73  6.15 -0.81
 N -2.49  5.95  0.69
 H -3.27  1.89  2.65
 H -4.34  1.36  1.38
 H -3.32  3.18  0.33
 H -2.19  1.95 -0.21
 H -0.63  2.57  1.69
 H -1.80  3.76  2.25
 H -0.18  3.87 -0.23
 H -1.11  7.09 -0.90
 H  0.29  6.16 -0.70
 H -2.96  5.30  1.31
 N -3.64 -0.49 -0.46
 C -3.98 -1.32 -1.61
 H -3.96  0.47 -0.45
 H -5.07 -1.41 -1.72
 H -3.55 -2.32 -1.43
 H -3.55 -0.91 -2.53
