35
#
 C -2.90  3.45  2.12
 C -2.03  2.21  2.07
 O -1.09  2.11  1.27
 H -3.15  3.76  1.09
 H -2.31  4.26  2.58
 H -3.82  3.32  2.69
 N -2.33  1.26  2.98
 C -1.58  0.03  3.16
 C -2.62 -1.10  3.32
 O -3.70 -0.89  3.86
 H -3.18  1.33  3.54
 H -0.98 -0.11  2.25
 C -0.66  0.06  4.42
 C  0.83  0.29  4.16
 C  1.22  1.57  3.43
 N  0.70  2.76  4.11
 C  0.89  4.04  3.60
 N  0.88  4.13  2.22
 N  1.06  5.00  4.45
 H -0.77 -0.89  4.97
 H -1.06  0.84  5.09
 H  1.24 -0.56  3.59
 H  1.34  0.25  5.14
 H  0.82  1.55  2.41
 H  2.33  1.60  3.35
 H  0.87  2.78  5.11
 H  0.84  5.08  1.86
 H  0.28  3.48  1.71
 H  1.07  5.91  3.98
 N -2.21 -2.31  2.87
 C -3.00 -3.52  3.02
 H -1.31 -2.37  2.40
 H -3.93 -3.24  3.53
 H -2.48 -4.27  3.62
 H -3.25 -3.95  2.04
