35
#
 C -1.26 -1.96  0.89
 C -0.15 -1.06  1.40
 O  0.98 -1.47  1.62
 H -1.73 -1.56 -0.02
 H -2.05 -2.07  1.64
 H -0.84 -2.94  0.68
 N -0.46  0.27  1.60
 C -1.76  0.92  1.47
 C -2.10  1.39  0.04
 O -3.22  1.79 -0.24
 H  0.30  0.80  2.02
 H -2.55  0.19  1.71
 C -1.91  2.07  2.49
 C -0.91  3.24  2.35
 C -1.31  4.31  1.32
 N -0.32  5.35  1.12
 C  0.92  5.13  0.53
 N  0.95  4.14 -0.45
 N  1.90  5.90  0.87
 H -1.82  1.63  3.49
 H -2.94  2.45  2.40
 H  0.10  2.87  2.12
 H -0.81  3.73  3.33
 H -2.24  4.80  1.64
 H -1.56  3.86  0.35
 H -0.24  6.05  1.85
 H  1.88  3.79 -0.66
 H  0.24  3.42 -0.42
 H  2.73  5.73  0.29
 N -1.06  1.35 -0.86
 C -1.24  1.65 -2.27
 H -0.22  0.88 -0.54
 H -0.46  2.33 -2.62
 H -2.22  2.13 -2.38
 H -1.22  0.74 -2.88
