35
#
 C -1.52 -0.44 -1.26
 C -0.41 -0.18 -0.26
 O  0.77 -0.41 -0.52
 H -1.15 -1.18 -1.98
 H -1.73  0.49 -1.80
 H -2.46 -0.78 -0.81
 N -0.75  0.35  0.97
 C -2.05  0.70  1.55
 C -2.97 -0.54  1.69
 O -4.04 -0.64  1.08
 H  0.07  0.53  1.54
 H -1.81  1.03  2.57
 C -2.78  1.86  0.87
 C -1.90  3.09  0.61
 C -1.23  3.72  1.83
 N -2.14  4.15  2.88
 C -2.33  3.46  4.05
 N -3.31  4.05  4.87
 N -1.67  2.38  4.32
 H -3.63  2.13  1.52
 H -3.24  1.52 -0.07
 H -2.52  3.85  0.10
 H -1.10  2.83 -0.11
 H -0.63  4.58  1.50
 H -0.53  3.01  2.31
 H -2.91  4.75  2.60
 H -3.37  3.64  5.80
 H -3.30  5.06  4.89
 H -1.84  2.07  5.27
 N -2.54 -1.52  2.53
 C -1.33 -1.56  3.33
 H -3.15 -2.33  2.54
 H -1.47 -2.28  4.14
 H -1.12 -0.58  3.79
 H -0.45 -1.86  2.74
