35
#
 C  0.11 -0.78  1.73
 C -0.16  0.24  2.82
 O  0.56  0.34  3.80
 H  0.87 -1.47  2.11
 H  0.51 -0.28  0.83
 H -0.79 -1.34  1.46
 N -1.23  1.11  2.68
 C -2.34  1.19  1.74
 C -3.38  0.07  1.94
 O -3.07 -1.07  2.26
 H -1.30  1.70  3.50
 H -2.82  2.15  1.98
 C -1.95  1.27  0.25
 C -1.07  2.48 -0.07
 C -0.88  2.71 -1.58
 N -2.12  2.79 -2.37
 C -3.18  3.63 -2.03
 N -2.79  4.87 -1.54
 N -4.44  3.37 -2.14
 H -2.89  1.34 -0.31
 H -1.47  0.34 -0.06
 H -0.08  2.38  0.39
 H -1.53  3.38  0.37
 H -0.29  1.89 -2.02
 H -0.29  3.62 -1.74
 H -2.46  1.88 -2.69
 H -3.57  5.52 -1.49
 H -1.96  5.28 -1.97
 H -4.59  2.39 -2.40
 N -4.68  0.41  1.69
 C -5.25  1.72  1.39
 H -5.33 -0.37  1.81
 H -5.09  2.43  2.21
 H -6.33  1.60  1.26
 H -4.85  2.15  0.46
