35
#
 C -0.12  1.00  0.11
 C -0.17  0.38  1.50
 O  0.83 -0.06  2.06
 H -1.10  1.30 -0.27
 H  0.33  0.28 -0.58
 H  0.54  1.88  0.14
 N -1.41  0.33  2.08
 C -1.62 -0.17  3.43
 C -1.61 -1.70  3.66
 O -1.47 -2.09  4.82
 H -2.20  0.70  1.57
 H -0.76  0.17  4.03
 C -2.90  0.42  4.04
 C -4.20  0.02  3.32
 C -5.44  0.46  4.11
 N -6.71  0.13  3.48
 C -7.22 -1.17  3.49
 N -8.35 -1.29  2.67
 N -6.78 -2.20  4.12
 H -2.80  1.52  4.07
 H -2.94  0.07  5.08
 H -4.23 -1.07  3.18
 H -4.25  0.47  2.32
 H -5.42  1.55  4.26
 H -5.43  0.02  5.11
 H -6.95  0.67  2.66
 H -8.78 -2.20  2.80
 H -9.03 -0.54  2.78
 H -5.89 -2.03  4.58
 N -1.79 -2.60  2.65
 C -2.01 -2.43  1.22
 H -1.73 -3.55  3.00
 H -1.11 -2.10  0.69
 H -2.83 -1.74  1.01
 H -2.30 -3.41  0.82
