35
#
 C -3.67  0.16  0.23
 C -2.60  0.77  1.12
 O -1.64  1.38  0.65
 H -4.47 -0.35  0.78
 H -3.19 -0.55 -0.45
 H -4.11  0.95 -0.38
 N -2.79  0.59  2.46
 C -1.79  0.95  3.44
 C -1.69 -0.22  4.45
 O -2.62 -1.02  4.58
 H -3.47 -0.09  2.80
 H -0.84  1.05  2.91
 C -2.12  2.25  4.20
 C -2.02  3.55  3.39
 C -0.67  3.77  2.67
 N  0.49  3.43  3.49
 C  1.27  2.31  3.29
 N  1.63  2.05  1.98
 N  1.67  1.62  4.33
 H -1.44  2.31  5.07
 H -3.13  2.16  4.62
 H -2.23  4.39  4.07
 H -2.81  3.57  2.62
 H -0.61  4.82  2.35
 H -0.66  3.15  1.77
 H  0.42  3.63  4.48
 H  1.13  2.54  1.25
 H  1.79  1.07  1.76
 H  2.41  0.97  4.06
 N -0.54 -0.24  5.15
 C -0.29 -1.21  6.20
 H  0.20  0.45  4.94
 H -1.22 -1.75  6.40
 H  0.04 -0.70  7.12
 H  0.48 -1.93  5.91
