35
#
 C -0.16  1.40  0.76
 C -0.21  0.50  1.98
 O  0.70  0.46  2.80
 H -0.48  2.41  1.06
 H -0.81  1.06 -0.06
 H  0.88  1.46  0.41
 N -1.36 -0.25  2.09
 C -1.77 -0.89  3.34
 C -1.65  0.12  4.52
 O -1.91  1.30  4.34
 H -2.11  0.01  1.47
 H -2.86 -1.02  3.25
 C -1.20 -2.31  3.53
 C  0.32 -2.49  3.46
 C  0.83 -3.79  4.09
 N  0.95 -3.73  5.56
 C -0.14 -3.75  6.42
 N -1.12 -4.68  6.09
 N -0.31 -3.01  7.47
 H -1.66 -2.95  2.76
 H -1.60 -2.71  4.48
 H  0.83 -1.64  3.94
 H  0.64 -2.45  2.41
 H  1.83 -4.03  3.70
 H  0.18 -4.64  3.83
 H  1.63 -3.02  5.85
 H -1.79 -4.79  6.85
 H -0.79 -5.56  5.72
 H  0.43 -2.30  7.53
 N -1.36 -0.39  5.75
 C -1.34  0.46  6.92
 H -1.16 -1.37  5.88
 H -2.24  1.08  6.96
 H -0.47  1.13  6.92
 H -1.30 -0.18  7.81
