35
#
 C  1.69 -4.14  1.60
 C  1.09 -3.58  2.87
 O  1.31 -4.06  3.98
 H  1.40 -5.20  1.51
 H  2.78 -4.11  1.69
 H  1.39 -3.61  0.70
 N  0.29 -2.48  2.71
 C -0.42 -1.89  3.82
 C -1.67 -1.21  3.25
 O -1.71 -0.86  2.06
 H  0.01 -2.16  1.78
 H -0.69 -2.71  4.50
 C  0.44 -0.88  4.64
 C  0.60  0.52  4.05
 C  1.43  0.60  2.75
 N  1.52  1.93  2.17
 C  0.49  2.57  1.50
 N -0.44  1.74  0.88
 N  0.55  3.86  1.42
 H  1.41 -1.36  4.80
 H -0.01 -0.79  5.64
 H -0.38  0.98  3.87
 H  1.09  1.16  4.80
 H  1.03 -0.08  1.99
 H  2.45  0.24  2.95
 H  2.11  2.60  2.66
 H -1.26  2.23  0.56
 H -0.66  0.84  1.29
 H -0.21  4.23  0.84
 N -2.71 -0.96  4.08
 C -2.84 -1.27  5.49
 H -3.46 -0.44  3.64
 H -3.90 -1.43  5.72
 H -2.46 -0.46  6.13
 H -2.30 -2.20  5.74
