35
#
 C -1.68  1.14  1.54
 C -1.10  0.25  2.63
 O -0.43  0.70  3.55
 H -2.08  0.58  0.69
 H -0.91  1.84  1.21
 H -2.49  1.74  1.98
 N -1.37 -1.09  2.49
 C -0.95 -2.06  3.49
 C -0.06 -3.18  2.91
 O  0.12 -4.23  3.51
 H -2.01 -1.38  1.74
 H -0.30 -1.48  4.17
 C -2.09 -2.66  4.33
 C -3.14 -3.43  3.50
 C -4.43 -2.63  3.20
 N -5.06 -3.00  1.94
 C -4.46 -2.61  0.75
 N -4.61 -3.52 -0.29
 N -3.85 -1.49  0.53
 H -2.56 -1.85  4.90
 H -1.62 -3.33  5.06
 H -3.41 -4.36  4.02
 H -2.69 -3.74  2.55
 H -4.21 -1.56  3.18
 H -5.17 -2.76  4.00
 H -5.52 -3.90  1.92
 H -4.15 -3.21 -1.14
 H -4.47 -4.50 -0.07
 H -4.04 -0.84  1.30
 N  0.53 -2.89  1.71
 C  1.48 -3.77  1.07
 H  0.33 -1.98  1.32
 H  1.49 -4.71  1.64
 H  2.49 -3.34  1.08
 H  1.19 -3.98  0.03
