35
#
 C -0.37 -0.68  0.42
 C -0.15 -0.08  1.80
 O  0.95 -0.12  2.36
 H -0.65  0.10 -0.31
 H -1.17 -1.43  0.42
 H  0.56 -1.14  0.10
 N -1.23  0.52  2.40
 C -2.60  0.56  1.93
 C -3.21  1.87  2.48
 O -3.06  2.18  3.66
 H -1.07  0.89  3.34
 H -2.60  0.57  0.84
 C -3.42 -0.65  2.43
 C -4.83 -0.75  1.84
 C -5.58 -2.01  2.29
 N -4.95 -3.24  1.84
 C -4.30 -4.08  2.74
 N -3.91 -5.29  2.15
 N -4.15 -3.73  3.97
 H -3.47 -0.62  3.53
 H -2.86 -1.56  2.17
 H -4.78 -0.73  0.74
 H -5.43  0.13  2.14
 H -6.61 -1.98  1.91
 H -5.63 -2.04  3.39
 H -5.40 -3.72  1.07
 H -3.29 -5.84  2.72
 H -3.57 -5.20  1.19
 H -3.58 -4.41  4.48
 N -3.93  2.65  1.62
 C -4.12  2.49  0.19
 H -4.29  3.49  2.06
 H -4.68  3.36 -0.18
 H -4.69  1.59 -0.06
 H -3.16  2.47 -0.35
