35
#
 C  1.00 -1.15  0.73
 C  0.39 -1.12  2.12
 O  0.70 -1.93  2.99
 H  2.08 -1.03  0.81
 H  0.61 -0.37  0.06
 H  0.81 -2.13  0.28
 N -0.53 -0.13  2.34
 C -1.18  0.06  3.63
 C -2.15 -1.06  4.06
 O -2.26 -1.32  5.26
 H -0.75  0.51  1.59
 H -0.40  0.03  4.41
 C -1.88  1.44  3.65
 C -2.39  1.89  5.03
 C -3.92  1.91  5.19
 N -4.56  0.60  5.12
 C -5.35  0.24  4.05
 N -5.86 -1.06  4.19
 N -5.56  1.03  3.05
 H -2.70  1.45  2.92
 H -1.13  2.16  3.29
 H -2.05  2.92  5.22
 H -1.94  1.28  5.82
 H -4.38  2.53  4.42
 H -4.16  2.36  6.17
 H -4.07 -0.16  5.58
 H -6.07 -1.34  5.14
 H -6.64 -1.25  3.57
 H -6.26  0.65  2.42
 N -2.91 -1.70  3.14
 C -3.16 -1.40  1.74
 H -3.60 -2.31  3.58
 H -4.08 -1.91  1.44
 H -2.35 -1.75  1.09
 H -3.33 -0.32  1.57
