35
#
 C -0.28 -0.21 -0.47
 C -0.29  0.08  1.02
 O  0.75  0.25  1.65
 H  0.69 -0.64 -0.72
 H -0.38  0.74 -1.01
 H -1.09 -0.86 -0.81
 N -1.50  0.19  1.66
 C -2.87 -0.03  1.18
 C -3.06 -1.45  0.58
 O -3.46 -1.62 -0.57
 H -1.38  0.42  2.65
 H -3.48 -0.00  2.10
 C -3.41  1.04  0.24
 C -3.34  2.47  0.81
 C -2.07  3.24  0.43
 N -1.98  4.56  1.04
 C -1.61  4.72  2.37
 N -1.91  6.00  2.86
 N -1.06  3.86  3.16
 H -4.46  0.77  0.02
 H -2.90  0.98 -0.74
 H -3.44  2.45  1.90
 H -4.20  3.04  0.43
 H -2.01  3.37 -0.66
 H -1.17  2.69  0.72
 H -2.71  5.21  0.74
 H -1.47  6.14  3.76
 H -1.69  6.76  2.21
 H -0.96  2.95  2.71
 N -2.76 -2.51  1.39
 C -2.30 -2.53  2.77
 H -2.87 -3.41  0.92
 H -1.23 -2.31  2.86
 H -2.49 -3.52  3.19
 H -2.86 -1.80  3.38
