35
#
 C -0.99 -0.61  1.60
 C -2.19 -0.81  2.51
 O -2.37 -1.87  3.11
 H -0.19 -0.10  2.15
 H -1.21 -0.02  0.70
 H -0.63 -1.60  1.31
 N -3.05  0.24  2.69
 C -3.07  1.57  2.08
 C -3.24  1.51  0.54
 O -2.42  2.02 -0.23
 H -3.84  0.05  3.32
 H -4.00  2.02  2.46
 C -1.90  2.50  2.44
 C -1.44  2.50  3.91
 C -2.44  3.00  4.96
 N -3.47  2.02  5.30
 C -4.79  2.10  4.92
 N -5.34  3.38  4.98
 N -5.39  1.02  4.50
 H -2.18  3.52  2.15
 H -1.04  2.25  1.81
 H -1.10  1.49  4.20
 H -0.55  3.14  3.97
 H -2.94  3.92  4.61
 H -1.88  3.27  5.88
 H -3.15  1.05  5.28
 H -6.34  3.42  4.81
 H -5.04  3.96  5.75
 H -6.40  1.15  4.43
 N -4.35  0.88  0.06
 C -5.41  0.20  0.79
 H -4.37  0.82 -0.95
 H -6.31  0.20  0.18
 H -5.15 -0.84  1.05
 H -5.64  0.73  1.73
