35
#
 C -0.12  0.64  0.15
 C -0.15  0.22  1.61
 O  0.90  0.11  2.25
 H  0.68  1.38  0.03
 H -1.06  1.04 -0.24
 H  0.13 -0.25 -0.45
 N -1.34 -0.09  2.22
 C -2.74  0.03  1.80
 C -2.99 -0.52  0.37
 O -2.37 -1.48 -0.06
 H -1.19 -0.42  3.16
 H -3.28 -0.71  2.42
 C -3.36  1.40  2.16
 C -2.70  2.64  1.53
 C -3.63  3.86  1.45
 N -4.66  3.73  0.43
 C -5.91  3.17  0.65
 N -6.54  2.78 -0.55
 N -6.52  2.95  1.76
 H -3.32  1.50  3.25
 H -4.43  1.37  1.92
 H -2.36  2.42  0.51
 H -1.79  2.91  2.10
 H -3.04  4.76  1.23
 H -4.13  4.05  2.42
 H -4.29  3.56 -0.50
 H -7.51  2.56 -0.38
 H -6.44  3.45 -1.31
 H -5.94  3.17  2.57
 N -3.98  0.09 -0.34
 C -4.42 -0.43 -1.62
 H -4.55  0.81  0.09
 H -5.19  0.24 -2.02
 H -4.83 -1.45 -1.53
 H -3.57 -0.48 -2.32
