35
#
 C  0.45  1.17  2.08
 C -0.04  0.44  3.31
 O  0.71  0.19  4.26
 H  1.47  1.51  2.26
 H -0.19  2.04  1.84
 H  0.45  0.51  1.20
 N -1.34  0.06  3.33
 C -2.27  0.00  2.22
 C -2.94  1.37  1.97
 O -3.18  2.15  2.88
 H -1.64 -0.43  4.18
 H -1.72 -0.31  1.31
 C -3.36 -1.04  2.51
 C -2.91 -2.51  2.52
 C -1.80 -2.91  3.50
 N -2.08 -2.45  4.87
 C -1.17 -2.76  5.91
 N  0.14 -2.44  5.63
 N -1.49 -3.29  7.04
 H -4.16 -0.93  1.76
 H -3.82 -0.77  3.47
 H -2.58 -2.80  1.51
 H -3.80 -3.13  2.73
 H -0.84 -2.49  3.19
 H -1.68 -4.01  3.46
 H -3.02 -2.72  5.16
 H  0.74 -2.59  6.43
 H  0.31 -1.54  5.16
 H -2.46 -3.61  7.05
 N -3.29  1.65  0.67
 C -3.03  0.87 -0.52
 H -3.76  2.54  0.57
 H -3.47  1.39 -1.38
 H -3.49 -0.13 -0.48
 H -1.95  0.75 -0.72
