35
#
 C  1.14  0.12  0.85
 C  0.27 -0.94  1.50
 O  0.65 -2.11  1.60
 H  2.10 -0.34  0.62
 H  1.31  0.99  1.51
 H  0.69  0.49 -0.08
 N -0.97 -0.57  1.96
 C -1.53  0.76  2.07
 C -2.00  1.00  3.52
 O -2.36  0.06  4.24
 H -1.44 -1.27  2.52
 H -0.76  1.51  1.84
 C -2.73  0.98  1.11
 C -2.32  1.16 -0.35
 C -1.59  2.48 -0.64
 N -2.39  3.67 -0.41
 C -2.23  4.54  0.63
 N -3.02  5.69  0.51
 N -1.44  4.27  1.63
 H -3.31  1.85  1.45
 H -3.40  0.11  1.21
 H -3.22  1.10 -0.99
 H -1.68  0.33 -0.67
 H -1.25  2.48 -1.69
 H -0.70  2.59 -0.01
 H -3.23  3.79 -0.97
 H -2.88  6.38  1.23
 H -3.07  6.10 -0.42
 H -1.31  5.11  2.21
 N -2.00  2.30  3.88
 C -2.53  2.76  5.14
 H -1.75  2.99  3.15
 H -1.79  3.38  5.67
 H -2.76  1.88  5.76
 H -3.45  3.35  5.01
