35
#
 C -3.12 -0.22  0.47
 C -2.21  0.04  1.67
 O -1.12  0.60  1.54
 H -3.34  0.74 -0.01
 H -4.05 -0.73  0.74
 H -2.57 -0.83 -0.26
 N -2.70 -0.41  2.87
 C -1.95 -0.26  4.11
 C -1.48 -1.57  4.76
 O -0.34 -1.65  5.20
 H -3.65 -0.77  2.88
 H -1.02  0.23  3.80
 C -2.65  0.64  5.16
 C -2.93  2.08  4.68
 C -4.42  2.44  4.53
 N -5.14  1.65  3.54
 C -5.81  0.48  3.83
 N -6.05 -0.31  2.69
 N -6.20  0.02  4.97
 H -1.98  0.66  6.03
 H -3.57  0.15  5.50
 H -2.43  2.25  3.72
 H -2.49  2.80  5.38
 H -4.51  3.50  4.26
 H -4.94  2.33  5.49
 H -4.70  1.66  2.62
 H -6.32  0.22  1.86
 H -6.73 -1.03  2.90
 H -5.91  0.62  5.75
 N -2.35 -2.62  4.90
 C -3.75 -2.75  4.53
 H -1.91 -3.42  5.33
 H -4.34 -1.86  4.78
 H -4.18 -3.58  5.10
 H -3.89 -2.97  3.46
