35
#
 C -0.13  0.19 -0.48
 C -0.11  0.39  1.03
 O  0.79  1.02  1.58
 H  0.80 -0.31 -0.77
 H -0.14  1.17 -0.96
 H -0.98 -0.40 -0.85
 N -1.15 -0.20  1.69
 C -1.45 -0.25  3.13
 C -2.61  0.74  3.48
 O -3.73  0.27  3.71
 H -1.86 -0.64  1.11
 H -1.95 -1.22  3.28
 C -0.22 -0.24  4.06
 C -0.44 -0.97  5.39
 C -1.52 -0.41  6.34
 N -1.46  1.02  6.61
 C -0.35  1.68  7.11
 N  0.40  0.94  8.02
 N -0.10  2.88  6.70
 H  0.14  0.78  4.25
 H  0.60 -0.74  3.53
 H  0.53 -0.97  5.92
 H -0.68 -2.03  5.20
 H -1.48 -0.97  7.29
 H -2.52 -0.60  5.93
 H -1.94  1.60  5.93
 H -0.12  0.29  8.61
 H  1.07  1.48  8.55
 H  0.65  3.31  7.24
 N -2.39  2.08  3.54
 C -1.19  2.88  3.32
 H -3.25  2.58  3.76
 H -0.78  3.24  4.27
 H -1.45  3.75  2.69
 H -0.42  2.31  2.79
