35
#
 C -0.13 -1.74  1.45
 C -0.29 -0.32  1.97
 O  0.68  0.42  2.17
 H  0.39 -1.70  0.49
 H -1.08 -2.27  1.32
 H  0.51 -2.30  2.15
 N -1.57  0.08  2.21
 C -1.92  1.40  2.71
 C -1.60  1.67  4.20
 O -1.26  2.81  4.53
 H -2.33 -0.58  2.05
 H -1.26  2.12  2.20
 C -3.38  1.70  2.32
 C -3.94  3.02  2.89
 C -4.73  2.88  4.19
 N -6.07  2.34  4.02
 C -6.42  1.02  4.20
 N -7.79  0.80  3.98
 N -5.54  0.12  4.50
 H -4.02  0.87  2.65
 H -3.41  1.72  1.22
 H -4.59  3.49  2.13
 H -3.11  3.73  3.06
 H -4.82  3.86  4.68
 H -4.21  2.22  4.90
 H -6.71  2.88  3.45
 H -8.09 -0.13  4.22
 H -8.40  1.51  4.36
 H -6.00 -0.76  4.73
 N -1.71  0.68  5.13
 C -2.25 -0.67  5.03
 H -1.44  1.00  6.05
 H -1.55 -1.37  4.55
 H -3.22 -0.67  4.50
 H -2.45 -1.03  6.04
