35
#
 C  0.39  0.34  1.19
 C  0.09  0.03  2.64
 O  0.98 -0.20  3.46
 H  0.01  1.33  0.89
 H -0.05 -0.40  0.51
 H  1.48  0.34  1.06
 N -1.23  0.03  3.02
 C -2.42  0.13  2.18
 C -3.51  0.87  2.99
 O -4.54  0.32  3.36
 H -1.36 -0.23  4.00
 H -2.16  0.77  1.33
 C -2.94 -1.21  1.63
 C -3.03 -2.39  2.61
 C -1.74 -3.22  2.72
 N -1.87 -4.44  3.50
 C -2.47 -5.59  2.99
 N -2.64 -6.57  3.97
 N -2.87 -5.82  1.79
 H -2.29 -1.50  0.78
 H -3.93 -1.02  1.20
 H -3.84 -3.05  2.29
 H -3.33 -2.03  3.61
 H -0.92 -2.64  3.16
 H -1.40 -3.51  1.71
 H -1.99 -4.31  4.50
 H -2.95 -7.44  3.54
 H -1.83 -6.71  4.57
 H -2.82 -4.98  1.20
 N -3.26  2.19  3.27
 C -2.12  3.00  2.90
 H -3.99  2.62  3.84
 H -2.37  4.05  3.09
 H -1.89  2.91  1.83
 H -1.22  2.75  3.47
