35
#
 C -1.15  0.78  0.48
 C -0.17  0.55  1.62
 O  0.65  1.39  1.97
 H -0.88  1.72 -0.01
 H -2.18  0.85  0.86
 H -1.13 -0.04 -0.25
 N -0.24 -0.67  2.26
 C -1.23 -1.71  2.09
 C -2.67 -1.33  2.49
 O -3.61 -1.76  1.80
 H  0.43 -0.75  3.03
 H -1.33 -1.95  1.02
 C -0.75 -2.99  2.81
 C -1.71 -4.19  2.73
 C -2.27 -4.63  4.10
 N -2.82 -3.55  4.91
 C -4.17 -3.25  5.01
 N -4.92 -3.54  3.87
 N -4.60 -2.78  6.14
 H -0.55 -2.75  3.87
 H  0.23 -3.25  2.37
 H -1.20 -5.05  2.29
 H -2.55 -3.95  2.06
 H -1.46 -5.09  4.68
 H -3.03 -5.42  3.94
 H -2.38 -3.42  5.82
 H -4.52 -3.19  2.99
 H -5.89 -3.27  3.96
 H -5.58 -2.49  6.07
 N -2.91 -0.53  3.56
 C -2.02 -0.13  4.64
 H -3.91 -0.40  3.72
 H -2.65  0.14  5.50
 H -1.40  0.73  4.37
 H -1.38 -0.96  4.96
