35
#
 C -0.41  1.17 -0.13
 C -0.21  0.25  1.06
 O  0.91 -0.10  1.43
 H -0.99  2.07  0.12
 H -0.94  0.66 -0.95
 H  0.58  1.48 -0.49
 N -1.33 -0.16  1.73
 C -2.71  0.14  1.38
 C -3.24  1.47  1.99
 O -4.33  1.93  1.64
 H -1.18 -0.85  2.50
 H -2.80  0.28  0.29
 C -3.68 -0.99  1.78
 C -3.51 -2.30  1.00
 C -2.38 -3.24  1.44
 N -2.54 -3.78  2.79
 C -1.91 -3.26  3.89
 N -2.18 -4.00  5.06
 N -1.19 -2.19  3.82
 H -4.69 -0.59  1.61
 H -3.60 -1.17  2.86
 H -3.36 -2.07 -0.07
 H -4.46 -2.85  1.05
 H -1.40 -2.75  1.41
 H -2.34 -4.09  0.74
 H -3.35 -4.36  2.97
 H -2.17 -5.01  4.95
 H -1.65 -3.69  5.87
 H -0.66 -2.02  4.68
 N -2.43  2.05  2.90
 C -2.75  3.29  3.58
 H -1.55  1.58  3.09
 H -2.00  4.06  3.37
 H -2.82  3.14  4.67
 H -3.72  3.63  3.20
