35
#
 C -0.86  0.14 -0.99
 C -0.56  0.44  0.47
 O  0.09  1.43  0.79
 H -0.10 -0.56 -1.36
 H -0.79  1.08 -1.54
 H -1.84 -0.32 -1.16
 N -1.00 -0.43  1.44
 C -1.85 -1.62  1.40
 C -1.50 -2.56  0.21
 O -0.32 -2.87  0.01
 H -0.66 -0.15  2.36
 H -1.52 -2.23  2.26
 C -3.34 -1.30  1.65
 C -4.01 -0.37  0.64
 C -5.53 -0.22  0.85
 N -6.28 -1.44  1.14
 C -6.33 -2.54  0.34
 N -7.26 -3.49  0.79
 N -5.54 -2.67 -0.69
 H -3.41 -0.85  2.66
 H -3.88 -2.25  1.71
 H -3.85 -0.73 -0.38
 H -3.57  0.63  0.70
 H -5.96  0.26 -0.04
 H -5.72  0.45  1.70
 H -6.60 -1.57  2.10
 H -7.36 -4.30  0.18
 H -8.15 -3.12  1.10
 H -5.82 -3.48 -1.25
 N -2.52 -3.05 -0.52
 C -2.26 -3.96 -1.62
 H -3.50 -2.75 -0.40
 H -3.20 -4.17 -2.13
 H -1.82 -4.90 -1.27
 H -1.55 -3.52 -2.34
