35
#
 C -0.31 -0.25 -0.07
 C  0.01  0.01  1.39
 O  1.16  0.07  1.80
 H -1.00  0.49 -0.49
 H -0.76 -1.24 -0.20
 H  0.63 -0.21 -0.63
 N -1.04  0.18  2.26
 C -2.49  0.11  2.03
 C -2.88 -1.28  1.45
 O -2.54 -2.27  2.10
 H -0.74  0.24  3.22
 H -2.92  0.04  3.04
 C -3.06  1.41  1.43
 C -2.86  2.61  2.36
 C -3.38  3.93  1.79
 N -4.78  3.96  1.41
 C -5.79  3.94  2.35
 N -7.06  3.85  1.77
 N -5.51  3.96  3.61
 H -4.14  1.27  1.27
 H -2.62  1.62  0.45
 H -1.78  2.73  2.57
 H -3.36  2.42  3.32
 H -2.80  4.22  0.90
 H -3.23  4.72  2.54
 H -5.02  3.53  0.52
 H -7.82  3.97  2.43
 H -7.19  4.44  0.95
 H -6.35  4.06  4.18
 N -3.62 -1.44  0.31
 C -4.01 -0.54 -0.75
 H -3.81 -2.43  0.16
 H -4.35 -1.14 -1.60
 H -3.18  0.08 -1.11
 H -4.84  0.13 -0.46
