35
#
 C  0.47  1.55  0.60
 C  0.23  0.84  1.91
 O  1.13  0.66  2.73
 H -0.35  1.43 -0.13
 H  1.40  1.19  0.16
 H  0.59  2.63  0.81
 N -1.05  0.41  2.13
 C -1.53 -0.08  3.42
 C -1.07  0.89  4.54
 O -1.14  2.10  4.36
 H -1.75  0.73  1.47
 H -2.61  0.09  3.40
 C -1.36 -1.62  3.57
 C  0.01 -2.26  3.29
 C  1.08 -2.06  4.36
 N  2.36 -2.64  3.96
 C  3.58 -2.00  4.10
 N  3.53 -0.61  4.05
 N  4.63 -2.74  4.28
 H -2.08 -2.07  2.87
 H -1.73 -1.91  4.57
 H  0.40 -1.88  2.33
 H -0.16 -3.34  3.14
 H  0.74 -2.51  5.32
 H  1.24 -0.99  4.54
 H  2.47 -3.64  4.09
 H  4.43 -0.16  3.97
 H  2.80 -0.17  3.48
 H  5.48 -2.18  4.23
 N -0.73  0.33  5.73
 C -0.27  1.12  6.86
 H -0.59 -0.68  5.77
 H -0.58  2.16  6.68
 H  0.83  1.09  6.94
 H -0.71  0.76  7.79
