35
#
 C -1.65 -0.21  0.25
 C -0.83 -0.01  1.51
 O  0.41 -0.06  1.49
 H -1.50 -1.23 -0.10
 H -1.27  0.47 -0.52
 H -2.72 -0.03  0.39
 N -1.55  0.21  2.65
 C -1.04  0.27  4.03
 C -0.13  1.46  4.41
 O -0.26  1.97  5.53
 H -2.55  0.27  2.55
 H -1.93  0.46  4.64
 C -0.38 -1.05  4.50
 C -1.33 -2.02  5.21
 C -2.04 -1.41  6.46
 N -1.26 -0.48  7.25
 C -0.06 -0.83  7.84
 N  0.76  0.27  8.09
 N  0.33 -2.01  8.20
 H  0.44 -0.81  5.19
 H  0.09 -1.54  3.64
 H -0.75 -2.90  5.51
 H -2.11 -2.38  4.52
 H -2.40 -2.24  7.10
 H -2.95 -0.87  6.15
 H -1.28  0.49  6.91
 H  1.68  0.00  8.41
 H  0.73  1.02  7.41
 H -0.41 -2.70  8.06
 N  0.81  1.82  3.52
 C  1.79  2.86  3.81
 H  0.92  1.23  2.69
 H  2.13  3.31  2.87
 H  2.66  2.45  4.34
 H  1.33  3.62  4.44
