35
#
 C  0.54  2.92  3.29
 C  0.27  1.48  2.88
 O  0.96  0.54  3.26
 H  1.34  2.91  4.03
 H -0.35  3.40  3.73
 H  0.85  3.52  2.43
 N -0.82  1.27  2.05
 C -1.69  2.26  1.43
 C -2.96  2.61  2.26
 O -3.73  3.48  1.86
 H -0.91  0.30  1.75
 H -1.15  3.20  1.34
 C -2.11  1.80  0.03
 C -0.97  1.75 -0.98
 C -1.40  1.19 -2.34
 N -1.87 -0.19 -2.27
 C -3.08 -0.64 -2.78
 N -4.12  0.29 -2.72
 N -3.13 -1.83 -3.28
 H -2.89  2.51 -0.31
 H -2.59  0.81  0.10
 H -0.14  1.13 -0.59
 H -0.55  2.76 -1.13
 H -0.56  1.26 -3.05
 H -2.21  1.80 -2.76
 H -1.16 -0.90 -2.40
 H -5.02 -0.10 -2.95
 H -4.15  0.87 -1.88
 H -4.09 -2.11 -3.49
 N -3.12  1.90  3.40
 C -4.25  2.10  4.30
 H -2.41  1.22  3.63
 H -3.91  2.42  5.29
 H -4.84  1.19  4.40
 H -4.88  2.89  3.87
