35
#
 C  3.53 -2.11  3.09
 C  2.18 -1.53  3.42
 O  1.94 -1.05  4.54
 H  3.63 -2.47  2.05
 H  3.73 -2.95  3.77
 H  4.30 -1.35  3.28
 N  1.26 -1.56  2.42
 C -0.16 -1.18  2.49
 C -0.43  0.34  2.63
 O -1.30  0.87  1.93
 H  1.56 -1.93  1.53
 H -0.57 -1.42  1.51
 C -0.94 -2.01  3.54
 C -2.48 -2.03  3.36
 C -3.29 -1.20  4.36
 N -3.14  0.22  4.14
 C -3.69  1.17  4.97
 N -3.47  2.48  4.54
 N -4.31  0.98  6.09
 H -0.68 -1.67  4.55
 H -0.56 -3.04  3.46
 H -2.82 -3.07  3.47
 H -2.75 -1.73  2.34
 H -2.97 -1.45  5.38
 H -4.35 -1.50  4.28
 H -2.73  0.53  3.26
 H -4.07  3.13  5.04
 H -3.49  2.62  3.53
 H -4.34 -0.01  6.34
 N  0.28  0.99  3.57
 C  0.06  2.40  3.86
 H  0.91  0.43  4.16
 H  0.90  2.76  4.46
 H -0.88  2.56  4.41
 H  0.01  2.97  2.93
