35
#
 C -0.23  0.78  0.40
 C -0.34  0.80  1.91
 O  0.55  1.22  2.65
 H  0.80  0.52  0.13
 H -0.42  1.79  0.02
 H -0.92  0.08 -0.08
 N -1.54  0.34  2.40
 C -1.74  0.19  3.83
 C -1.15 -1.16  4.30
 O -1.49 -2.24  3.79
 H -2.16 -0.20  1.79
 H -1.18  1.01  4.28
 C -3.22  0.36  4.26
 C -4.25 -0.75  4.01
 C -4.63 -1.06  2.56
 N -3.54 -1.68  1.84
 C -3.64 -2.08  0.52
 N -2.48 -2.70  0.05
 N -4.60 -1.85 -0.31
 H -3.56  1.30  3.79
 H -3.20  0.56  5.34
 H -5.17 -0.45  4.53
 H -3.92 -1.69  4.49
 H -4.93 -0.12  2.05
 H -5.53 -1.71  2.56
 H -2.83 -2.12  2.44
 H -2.63 -3.17 -0.83
 H -1.98 -3.27  0.73
 H -5.36 -1.32  0.13
 N -0.25 -1.12  5.31
 C  0.39  0.06  5.90
 H  0.11 -2.03  5.57
 H  1.22 -0.28  6.52
 H -0.30  0.62  6.54
 H  0.79  0.72  5.11
