35
#
 C  0.22 -0.23  0.14
 C  0.23 -0.19  1.65
 O  1.28 -0.19  2.30
 H  1.25 -0.37 -0.21
 H -0.18  0.70 -0.29
 H -0.41 -1.05 -0.24
 N -0.98 -0.14  2.28
 C -2.30 -0.00  1.71
 C -2.65  1.33  1.00
 O -3.56  1.32  0.17
 H -0.93 -0.16  3.31
 H -2.43 -0.74  0.90
 C -3.39 -0.32  2.75
 C -3.51  0.62  3.98
 C -2.85  0.13  5.27
 N -1.39  0.09  5.19
 C -0.57 -0.85  5.88
 N -1.26 -1.75  6.68
 N  0.70 -0.96  5.73
 H -3.24 -1.35  3.10
 H -4.34 -0.31  2.20
 H -4.58  0.75  4.21
 H -3.16  1.63  3.73
 H -3.19 -0.90  5.47
 H -3.20  0.75  6.11
 H -0.94  0.99  5.13
 H -1.97 -1.36  7.31
 H -0.62 -2.37  7.16
 H  1.05 -0.40  4.94
 N -1.99  2.50  1.27
 C -0.91  2.83  2.19
 H -2.35  3.25  0.70
 H -0.84  3.92  2.24
 H  0.07  2.44  1.87
 H -1.10  2.46  3.20
