35
#
 C  3.19  0.30  2.14
 C  2.29  0.15  3.35
 O  2.70 -0.30  4.42
 H  4.16  0.70  2.46
 H  2.77  0.94  1.36
 H  3.35 -0.70  1.72
 N  0.99  0.54  3.17
 C -0.10  0.28  4.11
 C  0.29  0.40  5.60
 O  0.02 -0.50  6.40
 H  0.73  0.85  2.24
 H -0.82  1.11  3.95
 C -0.87 -1.03  3.79
 C -0.05 -2.28  3.46
 C  0.70 -2.95  4.62
 N  1.37 -4.19  4.25
 C  2.50 -4.30  3.45
 N  3.22 -3.13  3.28
 N  2.92 -5.38  2.87
 H -1.51 -0.81  2.93
 H -1.54 -1.22  4.64
 H  0.66 -2.07  2.65
 H -0.75 -3.02  3.04
 H -0.00 -3.18  5.43
 H  1.43 -2.26  5.06
 H  0.77 -5.01  4.21
 H  4.16 -3.33  2.94
 H  3.19 -2.43  4.01
 H  2.26 -6.16  3.01
 N  0.80  1.59  6.03
 C  1.25  2.73  5.26
 H  1.06  1.56  7.01
 H  1.27  3.61  5.92
 H  0.56  2.96  4.45
 H  2.26  2.59  4.84
