35
#
 C  1.28  1.80  0.41
 C  0.86  1.52  1.84
 O  1.45  2.02  2.80
 H  1.22  2.88  0.23
 H  0.67  1.28 -0.34
 H  2.33  1.51  0.29
 N -0.21  0.69  1.99
 C -0.66  0.20  3.28
 C -0.97 -1.29  3.11
 O -1.32 -1.74  2.01
 H -0.58  0.18  1.19
 H  0.17  0.35  3.98
 C -1.92  0.94  3.78
 C -1.68  2.41  4.15
 C -0.89  2.57  5.46
 N -0.53  3.95  5.74
 C  0.77  4.44  5.88
 N  1.76  3.63  5.34
 N  1.09  5.54  6.48
 H -2.34  0.40  4.65
 H -2.68  0.87  2.99
 H -2.64  2.92  4.24
 H -1.13  2.92  3.34
 H  0.04  1.99  5.43
 H -1.48  2.16  6.30
 H -1.23  4.52  6.19
 H  2.65  4.10  5.36
 H  1.57  3.16  4.45
 H  0.29  5.96  6.94
 N -0.89 -2.07  4.22
 C -0.38 -1.70  5.53
 H -1.14 -3.04  4.06
 H -0.43 -2.58  6.18
 H -0.98 -0.90  6.00
 H  0.67 -1.37  5.49
