35
#
 C -0.06 -0.15  0.09
 C  0.01 -0.06  1.60
 O  1.08 -0.03  2.20
 H -0.26 -1.19 -0.21
 H  0.91  0.15 -0.31
 H -0.85  0.47 -0.35
 N -1.17 -0.05  2.32
 C -2.56 -0.06  1.87
 C -2.86 -1.19  0.85
 O -3.36 -0.96 -0.24
 H -1.00  0.03  3.31
 H -3.14 -0.32  2.77
 C -3.08  1.29  1.37
 C -2.96  2.40  2.41
 C -3.55  3.73  1.90
 N -3.41  4.85  2.82
 C -2.20  5.51  2.93
 N -2.21  6.45  3.97
 N -1.22  5.23  2.14
 H -4.13  1.15  1.06
 H -2.54  1.58  0.45
 H -1.91  2.57  2.67
 H -3.49  2.11  3.34
 H -4.62  3.61  1.66
 H -3.03  4.02  0.97
 H -3.93  4.77  3.68
 H -1.40  7.06  3.97
 H -3.07  6.99  4.05
 H -0.44  5.88  2.27
 N -2.55 -2.47  1.23
 C -2.00 -2.95  2.49
 H -2.76 -3.15  0.51
 H -2.22 -4.02  2.57
 H -2.47 -2.45  3.35
 H -0.91 -2.81  2.56
