35
#
 C  0.66  0.47  2.78
 C -0.41 -0.55  2.44
 O -0.21 -1.76  2.47
 H  1.55 -0.07  3.13
 H  0.33  1.17  3.55
 H  0.93  1.06  1.89
 N -1.65 -0.06  2.11
 C -2.06  1.33  1.91
 C -2.46  2.07  3.20
 O -2.61  3.29  3.19
 H -2.30 -0.78  1.81
 H -1.21  1.91  1.51
 C -3.21  1.38  0.90
 C -2.77  1.05 -0.53
 C -3.94  0.67 -1.45
 N -4.55 -0.60 -1.08
 C -5.84 -0.67 -0.59
 N -6.31 -1.99 -0.51
 N -6.50  0.40 -0.30
 H -3.65  2.39  0.93
 H -3.99  0.69  1.22
 H -2.05  0.22 -0.53
 H -2.24  1.92 -0.97
 H -3.60  0.62 -2.49
 H -4.73  1.43 -1.40
 H -4.26 -1.41 -1.63
 H -7.16 -2.09  0.03
 H -5.61 -2.68 -0.23
 H -7.40  0.18  0.12
 N -2.66  1.29  4.29
 C -3.07  1.82  5.58
 H -2.49  0.29  4.18
 H -4.03  1.39  5.90
 H -3.17  2.90  5.47
 H -2.32  1.60  6.35
