35
#
 C  0.65 -1.23  1.16
 C  0.73  0.26  1.47
 O  1.80  0.86  1.56
 H  0.17 -1.40  0.18
 H  0.07 -1.77  1.91
 H  1.67 -1.62  1.13
 N -0.46  0.92  1.63
 C -1.80  0.41  1.43
 C -2.24  0.10 -0.03
 O -3.10 -0.76 -0.20
 H -0.34  1.92  1.81
 H -1.88 -0.58  1.90
 C -2.85  1.30  2.12
 C -2.94  2.75  1.63
 C -4.06  3.52  2.34
 N -4.16  4.92  1.97
 C -4.71  5.29  0.75
 N -4.61  6.67  0.53
 N -5.20  4.40 -0.05
 H -2.64  1.29  3.20
 H -3.83  0.81  1.98
 H -3.15  2.78  0.55
 H -1.99  3.28  1.79
 H -3.92  3.47  3.43
 H -5.02  3.05  2.10
 H -3.42  5.53  2.31
 H -4.80  7.25  1.34
 H -5.13  6.99 -0.29
 H -5.67  4.84 -0.84
 N -1.68  0.75 -1.10
 C -0.74  1.86 -1.18
 H -2.08  0.42 -1.97
 H -1.04  2.71 -0.55
 H -0.75  2.22 -2.22
 H  0.29  1.58 -0.92
