35
#
 C  0.38  0.85  0.51
 C  0.12  0.00  1.74
 O  0.82 -0.96  2.03
 H  1.20  0.39 -0.05
 H  0.67  1.87  0.80
 H -0.51  0.93 -0.14
 N -0.95  0.36  2.54
 C -1.80  1.54  2.41
 C -2.31  1.98  3.79
 O -2.28  3.16  4.14
 H -0.97 -0.15  3.42
 H -1.19  2.39  2.07
 C -2.96  1.34  1.39
 C -3.39  2.61  0.65
 C -4.34  3.55  1.40
 N -5.65  2.96  1.65
 C -6.12  2.59  2.90
 N -7.30  1.82  2.81
 N -5.63  2.84  4.07
 H -3.82  0.87  1.89
 H -2.60  0.60  0.66
 H -3.88  2.31 -0.29
 H -2.50  3.18  0.35
 H -4.47  4.47  0.81
 H -3.91  3.86  2.36
 H -6.05  2.44  0.88
 H -7.72  1.73  3.73
 H -7.97  2.17  2.13
 H -4.73  3.32  4.02
 N -2.80  0.99  4.59
 C -3.38  1.25  5.90
 H -3.00  0.09  4.16
 H -3.26  0.37  6.53
 H -4.45  1.51  5.81
 H -2.86  2.10  6.34
