35
#
 C  0.24  0.96  2.34
 C -0.12 -0.14  3.32
 O  0.47 -0.30  4.39
 H -0.60  1.65  2.18
 H  0.52  0.54  1.37
 H  1.09  1.51  2.75
 N -1.14 -0.99  2.96
 C -2.11 -0.80  1.89
 C -3.14  0.34  2.08
 O -3.48  0.99  1.10
 H -1.33 -1.70  3.67
 H -1.57 -0.48  0.99
 C -2.84 -2.13  1.58
 C -1.92 -3.23  1.04
 C -1.41 -2.95 -0.38
 N -0.36 -3.84 -0.85
 C  0.96 -3.69 -0.44
 N  1.78 -4.71 -0.91
 N  1.47 -2.76  0.29
 H -3.63 -1.90  0.86
 H -3.34 -2.48  2.49
 H -2.46 -4.18  1.04
 H -1.06 -3.36  1.71
 H -1.02 -1.93 -0.47
 H -2.25 -3.01 -1.10
 H -0.64 -4.80 -1.03
 H  2.75 -4.52 -0.70
 H  1.64 -4.95 -1.89
 H  0.75 -2.16  0.71
 N -3.66  0.60  3.31
 C -3.48 -0.08  4.59
 H -4.31  1.38  3.29
 H -3.62 -1.17  4.50
 H -4.26  0.28  5.27
 H -2.51  0.12  5.05
