35
#
 C -0.35 -1.82  1.13
 C -0.11 -0.46  1.77
 O  1.03 -0.03  1.94
 H  0.08 -2.59  1.78
 H  0.18 -1.86  0.18
 H -1.41 -2.05  0.96
 N -1.25  0.22  2.12
 C -1.41  1.49  2.84
 C -1.93  2.63  1.92
 O -3.01  3.16  2.18
 H -2.12 -0.25  1.90
 H -2.28  1.34  3.50
 C -0.24  1.91  3.73
 C -0.63  3.03  4.70
 C  0.55  3.51  5.56
 N  1.21  2.48  6.37
 C  0.61  2.00  7.52
 N  1.32  0.92  8.07
 N -0.48  2.52  7.97
 H  0.63  2.20  3.14
 H  0.07  1.01  4.30
 H -1.44  2.69  5.37
 H -1.01  3.90  4.15
 H  0.20  4.28  6.25
 H  1.33  3.96  4.92
 H  1.77  1.81  5.87
 H  2.34  1.02  8.04
 H  1.01  0.67  9.00
 H -0.72  2.14  8.88
 N -1.18  3.06  0.86
 C  0.04  2.52  0.28
 H -1.65  3.80  0.34
 H  0.68  3.35 -0.06
 H -0.17  1.87 -0.58
 H  0.61  1.94  1.01
