35
#
 C  1.95 -0.29  0.71
 C  1.25 -0.07  2.04
 O  1.85  0.32  3.04
 H  2.77 -1.00  0.85
 H  2.39  0.66  0.38
 H  1.28 -0.66 -0.08
 N -0.09 -0.32  2.03
 C -0.93 -0.31  3.23
 C -0.65  0.85  4.21
 O -0.49  0.65  5.41
 H -0.53 -0.75  1.22
 H -1.95 -0.12  2.86
 C -0.91 -1.67  3.97
 C -2.26 -2.13  4.52
 C -3.23 -2.77  3.51
 N -3.82 -1.88  2.51
 C -3.23 -1.58  1.30
 N -3.81 -0.47  0.68
 N -2.21 -2.14  0.73
 H -0.51 -2.43  3.29
 H -0.20 -1.57  4.80
 H -2.76 -1.30  5.04
 H -2.08 -2.89  5.30
 H -4.07 -3.23  4.06
 H -2.74 -3.60  2.98
 H -4.43 -1.16  2.89
 H -3.51 -0.41 -0.29
 H -4.82 -0.41  0.76
 H -1.81 -2.88  1.32
 N -0.74  2.12  3.72
 C -0.89  2.57  2.34
 H -0.49  2.82  4.41
 H -1.27  3.59  2.35
 H -1.61  1.94  1.80
 H  0.07  2.56  1.79
