35
#
 C -0.08  0.48  0.46
 C  0.18  0.08  1.91
 O  1.30  0.15  2.40
 H  0.88  0.76  0.02
 H -0.77  1.34  0.41
 H -0.52 -0.34 -0.13
 N -0.89 -0.37  2.64
 C -2.29 -0.46  2.28
 C -3.11  0.18  3.41
 O -2.75  0.10  4.58
 H -0.70 -0.51  3.64
 H -2.44  0.10  1.34
 C -2.77 -1.92  2.09
 C -2.06 -2.67  0.96
 C -2.49 -4.13  0.85
 N -2.18 -4.91  2.05
 C -3.18 -5.34  2.90
 N -2.68 -6.19  3.91
 N -4.40 -4.98  2.73
 H -3.85 -1.92  1.91
 H -2.61 -2.45  3.04
 H -0.97 -2.62  1.12
 H -2.26 -2.18 -0.01
 H -1.99 -4.60 -0.01
 H -3.58 -4.20  0.69
 H -1.35 -5.49  2.01
 H -3.35 -6.36  4.65
 H -1.77 -5.93  4.28
 H -5.00 -5.32  3.49
 N -4.26  0.79  3.01
 C -5.22  1.35  3.95
 H -4.48  0.80  2.03
 H -4.79  1.27  4.95
 H -6.17  0.79  3.93
 H -5.43  2.40  3.73
