35
#
 C -2.70  0.75 -0.37
 C -1.95  0.12  0.79
 O -0.96  0.64  1.30
 H -3.30  1.58  0.03
 H -3.36  0.05 -0.89
 H -1.97  1.17 -1.07
 N -2.47 -1.06  1.25
 C -1.93 -1.77  2.38
 C -2.61 -3.14  2.40
 O -3.66 -3.34  1.78
 H -3.29 -1.48  0.83
 H -0.84 -1.88  2.24
 C -2.14 -0.99  3.71
 C -3.61 -0.73  4.07
 C -3.79  0.51  4.96
 N -3.43  1.78  4.31
 C -4.12  2.26  3.20
 N -5.50  2.04  3.24
 N -3.61  2.87  2.18
 H -1.60 -0.05  3.56
 H -1.63 -1.52  4.53
 H -4.05 -1.60  4.57
 H -4.20 -0.57  3.15
 H -3.17  0.43  5.86
 H -4.83  0.57  5.30
 H -2.43  1.91  4.20
 H -5.97  2.55  2.50
 H -5.93  2.17  4.15
 H -2.59  2.83  2.19
 N -2.04 -4.13  3.15
 C -0.81 -4.10  3.92
 H -2.59 -4.99  3.16
 H -0.36 -5.10  3.91
 H -0.96 -3.80  4.96
 H -0.08 -3.42  3.46
