35
#
 C  0.12  0.28  0.09
 C  0.10  0.07  1.59
 O  1.12  0.03  2.27
 H  0.90 -0.34 -0.35
 H  0.38  1.33 -0.11
 H -0.84  0.06 -0.39
 N -1.14 -0.09  2.16
 C -1.33 -0.05  3.61
 C -0.80 -1.32  4.31
 O -0.41 -1.26  5.48
 H -1.96  0.11  1.59
 H -0.72  0.76  4.02
 C -2.82  0.22  3.89
 C -3.35  0.06  5.33
 C -2.61  0.84  6.43
 N -2.08  2.12  6.00
 C -0.79  2.57  6.24
 N  0.15  1.59  6.51
 N -0.59  3.85  6.20
 H -3.42 -0.45  3.25
 H -3.01  1.25  3.56
 H -3.35 -1.01  5.61
 H -4.40  0.36  5.30
 H -1.78  0.23  6.81
 H -3.30  0.97  7.29
 H -2.72  2.91  5.96
 H  1.12  1.90  6.45
 H  0.01  0.64  6.16
 H  0.40  4.07  6.30
 N -0.87 -2.47  3.59
 C -0.35 -3.73  4.08
 H -1.09 -2.36  2.61
 H  0.62 -3.97  3.62
 H -1.06 -4.54  3.87
 H -0.22 -3.64  5.16
