35
#
 C -0.95 -1.08 -0.19
 C -0.73 -0.64  1.24
 O  0.20  0.11  1.57
 H -0.08 -1.67 -0.51
 H -0.99 -0.19 -0.83
 H -1.86 -1.67 -0.33
 N -1.62 -1.14  2.15
 C -1.59 -0.77  3.57
 C -1.60 -2.03  4.45
 O -2.53 -2.30  5.21
 H -2.37 -1.73  1.82
 H -0.62 -0.27  3.69
 C -2.66  0.27  3.96
 C -4.15 -0.09  3.90
 C -4.70 -0.46  2.52
 N -6.16 -0.48  2.56
 C -6.93 -0.94  1.50
 N -6.35 -0.74  0.24
 N -8.08 -1.52  1.57
 H -2.46  1.15  3.33
 H -2.43  0.58  4.99
 H -4.70  0.80  4.25
 H -4.35 -0.90  4.61
 H -4.32 -1.45  2.20
 H -4.36  0.28  1.78
 H -6.54 -0.77  3.46
 H -5.88  0.15  0.12
 H -7.03 -0.93 -0.49
 H -8.33 -1.74  2.54
 N -0.51 -2.85  4.36
 C  0.68 -2.72  3.53
 H -0.60 -3.69  4.93
 H  0.56 -3.21  2.55
 H  1.53 -3.19  4.04
 H  0.93 -1.67  3.35
