35
#
 C -0.33 -0.28 -0.35
 C -0.13 -0.40  1.15
 O  0.92 -0.77  1.65
 H -1.02 -1.06 -0.71
 H  0.64 -0.42 -0.83
 H -0.75  0.69 -0.64
 N -1.21 -0.07  1.95
 C -2.56  0.28  1.54
 C -2.79  1.79  1.32
 O -3.86  2.20  0.88
 H -1.04 -0.24  2.94
 H -2.76 -0.18  0.56
 C -3.59 -0.27  2.56
 C -4.98 -0.56  1.97
 C -5.15 -1.99  1.43
 N -4.13 -2.50  0.53
 C -3.99 -2.09 -0.78
 N -2.87 -2.68 -1.41
 N -4.71 -1.27 -1.45
 H -3.68  0.45  3.39
 H -3.17 -1.19  3.00
 H -5.20  0.19  1.20
 H -5.74 -0.42  2.75
 H -6.12 -2.08  0.92
 H -5.19 -2.69  2.28
 H -3.29 -2.88  0.97
 H -2.88 -2.47 -2.40
 H -2.77 -3.68 -1.24
 H -5.40 -0.79 -0.86
 N -1.75  2.59  1.67
 C -1.79  4.03  1.52
 H -0.91  2.14  1.99
 H -1.65  4.53  2.49
 H -2.78  4.30  1.13
 H -1.02  4.39  0.83
