35
#
 C -0.37  0.05  2.34
 C -0.69  1.35  3.03
 O -0.32  1.59  4.18
 H -1.21 -0.65  2.47
 H -0.17  0.16  1.26
 H  0.50 -0.40  2.83
 N -1.40  2.31  2.32
 C -2.32  2.06  1.22
 C -2.47  3.30  0.31
 O -3.47  3.46 -0.39
 H -1.65  3.08  2.94
 H -1.87  1.29  0.57
 C -3.69  1.53  1.69
 C -4.43  2.44  2.68
 C -5.08  1.68  3.84
 N -4.13  0.97  4.69
 C -3.78 -0.37  4.57
 N -4.79 -1.19  4.06
 N -2.64 -0.90  4.86
 H -3.51  0.55  2.14
 H -4.31  1.36  0.80
 H -5.19  3.04  2.16
 H -3.74  3.18  3.13
 H -5.79  0.94  3.44
 H -5.67  2.38  4.46
 H -3.35  1.54  5.02
 H -4.52 -2.16  4.15
 H -5.72 -1.01  4.44
 H -1.94 -0.19  5.10
 N -1.41  4.16  0.33
 C -1.33  5.33 -0.51
 H -0.63  3.90  0.93
 H -2.30  5.45 -1.01
 H -0.55  5.22 -1.28
 H -1.12  6.23  0.08
