35
#
 C -2.46  0.22  0.52
 C -1.71  0.44  1.82
 O -0.61  1.00  1.85
 H -1.84 -0.39 -0.14
 H -2.59  1.20  0.03
 H -3.44 -0.26  0.64
 N -2.36 -0.01  2.94
 C -1.87 -0.08  4.33
 C -2.29  1.06  5.29
 O -2.34  0.77  6.49
 H -3.26 -0.43  2.78
 H -2.45 -0.91  4.75
 C -0.37 -0.50  4.47
 C  0.59  0.43  5.23
 C  0.96  1.72  4.50
 N  1.94  2.46  5.28
 C  2.34  3.75  4.96
 N  2.21  4.08  3.61
 N  2.75  4.53  5.91
 H  0.02 -0.68  3.46
 H -0.36 -1.46  4.99
 H  1.51 -0.13  5.41
 H  0.16  0.67  6.21
 H  0.06  2.33  4.31
 H  1.37  1.47  3.51
 H  1.87  2.36  6.29
 H  2.26  3.31  2.95
 H  2.75  4.88  3.32
 H  3.10  5.42  5.53
 N -2.62  2.31  4.87
 C -2.54  2.96  3.58
 H -2.89  2.89  5.66
 H -2.52  4.04  3.74
 H -3.42  2.74  2.94
 H -1.63  2.69  3.03
