35
#
 C  0.94  0.12  0.00
 C  0.58 -0.21  1.44
 O  1.25 -1.01  2.11
 H  1.98  0.46 -0.03
 H  0.29  0.88 -0.45
 H  0.88 -0.80 -0.59
 N -0.50  0.45  1.94
 C -1.03  0.18  3.28
 C -2.27 -0.73  3.14
 O -3.31 -0.29  2.66
 H -1.09  0.98  1.31
 H -0.21 -0.32  3.81
 C -1.40  1.48  4.00
 C -1.85  1.25  5.44
 C -2.18  2.54  6.19
 N -1.01  3.38  6.36
 C -1.12  4.68  6.85
 N  0.14  5.26  7.07
 N -2.18  5.35  7.09
 H -2.20  1.98  3.44
 H -0.52  2.15  3.97
 H -1.07  0.69  6.00
 H -2.75  0.61  5.45
 H -2.65  2.29  7.16
 H -2.93  3.11  5.62
 H -0.18  2.89  6.69
 H  0.04  6.24  7.31
 H  0.82  5.11  6.33
 H -3.02  4.77  7.03
 N -2.15 -2.02  3.54
 C -0.98 -2.70  4.10
 H -3.00 -2.56  3.42
 H -1.12 -3.78  3.97
 H -0.85 -2.50  5.17
 H -0.07 -2.42  3.56
