35
#
 C -0.50  0.00 -0.47
 C -0.67 -0.70  0.86
 O -0.19 -1.82  1.08
 H -0.88 -0.66 -1.27
 H  0.56  0.17 -0.66
 H -1.03  0.97 -0.52
 N -1.36 -0.01  1.81
 C -1.67 -0.60  3.10
 C -2.98  0.04  3.57
 O -3.38  1.11  3.09
 H -1.87  0.84  1.59
 H -1.79 -1.68  2.95
 C -0.53 -0.40  4.12
 C -0.24  1.07  4.47
 C  0.88  1.26  5.49
 N  2.17  0.88  4.94
 C  3.37  0.94  5.64
 N  3.42  1.93  6.63
 N  4.34  0.18  5.27
 H  0.35 -0.89  3.68
 H -0.76 -0.96  5.04
 H -1.15  1.53  4.88
 H  0.01  1.62  3.55
 H  0.63  0.69  6.41
 H  0.91  2.33  5.76
 H  2.18  0.08  4.31
 H  4.17  1.80  7.30
 H  2.54  2.20  7.07
 H  5.19  0.38  5.80
 N -3.67 -0.58  4.57
 C -3.40 -1.85  5.22
 H -4.50 -0.07  4.87
 H -4.34 -2.33  5.49
 H -2.79 -1.73  6.13
 H -2.87 -2.53  4.54
