35
#
 C  0.90 -2.16  0.77
 C  0.51 -1.48  2.07
 O  0.63 -2.02  3.16
 H  1.94 -2.51  0.85
 H  0.80 -1.52 -0.12
 H  0.27 -3.05  0.64
 N  0.03 -0.20  1.94
 C -0.48  0.55  3.09
 C -1.70  1.35  2.58
 O -2.82  0.85  2.57
 H -0.10  0.19  1.01
 H -0.89 -0.21  3.78
 C  0.66  1.30  3.81
 C  0.42  1.66  5.29
 C -0.61  2.76  5.58
 N -1.96  2.32  5.28
 C -2.98  3.22  5.03
 N -4.18  2.56  4.75
 N -2.75  4.49  5.07
 H  0.97  2.19  3.25
 H  1.52  0.62  3.78
 H  1.38  1.98  5.71
 H  0.15  0.74  5.84
 H -0.42  3.66  4.99
 H -0.51  3.07  6.64
 H -2.25  1.42  5.65
 H -4.92  3.18  4.47
 H -4.07  1.78  4.10
 H -3.58  5.01  4.75
 N -1.41  2.57  2.05
 C -2.43  3.47  1.55
 H -0.49  2.95  2.24
 H -2.14  3.86  0.56
 H -2.59  4.31  2.23
 H -3.36  2.90  1.45
