35
#
 C  0.09 -0.40 -0.36
 C  0.07 -0.92  1.07
 O  0.54 -2.01  1.37
 H  1.13 -0.34 -0.70
 H -0.38  0.58 -0.48
 H -0.42 -1.13 -1.00
 N -0.52 -0.08  1.98
 C -0.57 -0.38  3.41
 C -1.88 -1.01  3.93
 O -1.82 -1.89  4.78
 H -0.82  0.83  1.67
 H  0.17 -1.18  3.57
 C -0.18  0.85  4.25
 C  1.29  1.23  4.09
 C  1.67  2.58  4.72
 N  1.46  2.67  6.17
 C  0.24  3.01  6.75
 N -0.47  4.01  6.07
 N -0.13  2.39  7.82
 H -0.40  0.63  5.30
 H -0.82  1.71  3.98
 H  1.92  0.44  4.52
 H  1.56  1.28  3.02
 H  1.10  3.39  4.24
 H  2.73  2.78  4.52
 H  1.89  1.92  6.70
 H  0.11  4.76  5.69
 H -1.25  4.37  6.60
 H -0.95  2.83  8.24
 N -3.09 -0.55  3.49
 C -3.42  0.54  2.58
 H -3.87 -1.05  3.91
 H -4.47  0.79  2.71
 H -3.26  0.27  1.52
 H -2.84  1.45  2.81
