35
#
 C -0.43  2.55  0.39
 C -0.61  1.49  1.45
 O  0.14  1.41  2.43
 H  0.62  2.86  0.39
 H -1.04  3.43  0.62
 H -0.71  2.21 -0.62
 N -1.65  0.60  1.31
 C -2.68  0.52  0.29
 C -3.61  1.75  0.20
 O -4.29  1.94 -0.81
 H -1.53 -0.24  1.90
 H -2.24  0.44 -0.71
 C -3.54 -0.75  0.52
 C -4.68 -0.69  1.56
 C -4.36 -0.45  3.04
 N -3.42 -1.41  3.63
 C -2.07 -1.10  3.80
 N -1.80  0.03  4.55
 N -1.19 -1.87  3.25
 H -2.85 -1.58  0.76
 H -4.00 -1.00 -0.44
 H -5.22 -1.65  1.48
 H -5.41  0.07  1.25
 H -5.32 -0.48  3.60
 H -3.95  0.56  3.19
 H -3.49 -2.34  3.23
 H -2.57  0.55  4.94
 H -0.99  0.58  4.24
 H -0.25 -1.63  3.58
 N -3.66  2.54  1.31
 C -4.51  3.71  1.41
 H -3.04  2.29  2.08
 H -5.07  3.79  0.47
 H -3.91  4.62  1.55
 H -5.22  3.62  2.24
