35
#
 C -0.59 -0.74  0.94
 C -0.55 -0.32  2.40
 O  0.28 -0.78  3.18
 H  0.04 -0.05  0.36
 H -1.60 -0.73  0.51
 H -0.17 -1.74  0.86
 N -1.48  0.60  2.85
 C -2.43  1.41  2.09
 C -3.59  0.57  1.48
 O -4.18  0.94  0.46
 H -1.28  0.89  3.80
 H -2.92  2.04  2.84
 C -1.79  2.35  1.05
 C -2.58  3.64  0.82
 C -1.93  4.55 -0.22
 N -2.70  5.76 -0.40
 C -2.24  6.79 -1.22
 N -3.19  7.80 -1.39
 N -1.09  6.89 -1.79
 H -1.67  1.83  0.09
 H -0.78  2.61  1.41
 H -2.68  4.20  1.77
 H -3.60  3.38  0.49
 H -1.80  3.99 -1.16
 H -0.92  4.84  0.13
 H -3.71  5.61 -0.46
 H -2.79  8.60 -1.87
 H -3.67  8.08 -0.54
 H -0.55  6.03 -1.71
 N -3.91 -0.54  2.19
 C -4.98 -1.43  1.80
 H -3.31 -0.78  2.96
 H -5.70 -1.57  2.62
 H -4.59 -2.42  1.50
 H -5.50 -0.99  0.94
