35
#
 C -0.14  0.27 -0.51
 C  0.08  0.42  0.98
 O  1.20  0.56  1.46
 H  0.76  0.62 -1.01
 H -1.02  0.82 -0.88
 H -0.30 -0.78 -0.77
 N -1.01  0.34  1.82
 C -2.45  0.24  1.53
 C -2.78 -0.90  0.55
 O -3.33 -0.70 -0.53
 H -0.75  0.47  2.80
 H -2.91 -0.04  2.49
 C -3.08  1.57  1.10
 C -4.60  1.61  1.28
 C -5.23  2.95  0.86
 N -4.73  4.13  1.57
 C -4.82  4.28  2.95
 N -5.98  3.75  3.51
 N -3.95  4.85  3.72
 H -2.82  1.77  0.04
 H -2.61  2.36  1.71
 H -4.85  1.42  2.33
 H -5.06  0.82  0.68
 H -6.32  2.89  0.98
 H -5.05  3.13 -0.21
 H -3.85  4.49  1.21
 H -6.83  3.89  2.97
 H -6.08  4.04  4.48
 H -3.09  5.07  3.22
 N -2.43 -2.17  0.93
 C -1.77 -2.60  2.16
 H -2.65 -2.87  0.23
 H -0.69 -2.42  2.14
 H -1.94 -3.68  2.27
 H -2.20 -2.11  3.04
