35
#
 C -0.35  0.89  2.42
 C -1.53 -0.04  2.63
 O -1.37 -1.21  2.98
 H  0.53  0.41  2.85
 H -0.50  1.87  2.90
 H -0.17  1.05  1.35
 N -2.79  0.45  2.41
 C -3.19  1.73  1.88
 C -4.32  2.27  2.79
 O -5.23  1.54  3.16
 H -3.55 -0.20  2.63
 H -2.33  2.41  1.91
 C -3.74  1.68  0.43
 C -2.74  1.34 -0.69
 C -2.62 -0.14 -1.10
 N -1.78 -0.97 -0.27
 C -0.41 -1.07 -0.44
 N  0.17 -1.99  0.43
 N  0.33 -0.41 -1.28
 H -4.17  2.67  0.23
 H -4.58  0.98  0.42
 H -1.74  1.73 -0.45
 H -3.06  1.89 -1.59
 H -2.26 -0.18 -2.15
 H -3.63 -0.59 -1.12
 H -2.22 -1.70  0.27
 H  1.19 -1.94  0.39
 H -0.20 -2.00  1.38
 H -0.23  0.14 -1.92
 N -4.23  3.60  3.10
 C -5.23  4.29  3.89
 H -3.43  4.12  2.77
 H -4.79  4.69  4.82
 H -6.00  3.55  4.16
 H -5.70  5.10  3.33
