35
#
 C -0.36  0.68 -0.26
 C -0.26  0.13  1.15
 O  0.41 -0.87  1.40
 H -0.93 -0.05 -0.85
 H  0.64  0.75 -0.69
 H -0.86  1.66 -0.32
 N -0.97  0.83  2.10
 C -1.29  0.46  3.49
 C -0.55  1.27  4.58
 O -1.22  1.75  5.50
 H -1.47  1.63  1.76
 H -2.33  0.78  3.64
 C -1.24 -1.05  3.79
 C -2.22 -1.86  2.92
 C -1.73 -3.30  2.66
 N -2.51 -4.02  1.67
 C -2.41 -3.71  0.31
 N -3.45 -4.28 -0.44
 N -1.52 -3.00 -0.29
 H -1.50 -1.16  4.86
 H -0.22 -1.43  3.66
 H -2.34 -1.37  1.94
 H -3.22 -1.88  3.38
 H -1.74 -3.88  3.59
 H -0.69 -3.27  2.32
 H -3.46 -4.25  1.96
 H -3.25 -4.20 -1.43
 H -3.66 -5.24 -0.19
 H -0.86 -2.55  0.36
 N  0.80  1.43  4.55
 C  1.79  0.96  3.59
 H  1.13  2.01  5.32
 H  1.99  1.71  2.80
 H  2.73  0.77  4.13
 H  1.48  0.03  3.11
