35
#
 C -0.84 -1.76  0.22
 C -0.31 -0.76  1.23
 O  0.73 -0.13  1.06
 H -1.69 -2.34  0.59
 H -0.02 -2.44 -0.06
 H -1.14 -1.22 -0.68
 N -1.07 -0.61  2.37
 C -0.81  0.44  3.34
 C -0.24 -0.05  4.69
 O -0.08  0.73  5.62
 H -1.98 -1.06  2.38
 H -0.00  1.03  2.89
 C -2.02  1.38  3.56
 C -3.14  0.88  4.49
 C -3.78 -0.45  4.09
 N -4.94 -0.75  4.94
 C -5.60 -1.97  4.90
 N -4.76 -3.07  4.72
 N -6.87 -2.17  5.01
 H -2.43  1.63  2.57
 H -1.64  2.31  3.99
 H -3.92  1.65  4.51
 H -2.76  0.80  5.52
 H -3.05 -1.27  4.23
 H -4.06 -0.44  3.02
 H -5.58  0.03  5.01
 H -3.90 -3.05  5.27
 H -5.28 -3.93  4.85
 H -7.39 -1.29  4.99
 N  0.08 -1.37  4.73
 C  0.76 -1.97  5.87
 H -0.00 -1.90  3.87
 H  0.70 -1.26  6.70
 H  1.82 -2.17  5.66
 H  0.27 -2.91  6.17
