35
#
 C -0.58  0.40 -1.13
 C -0.07  0.02  0.24
 O  1.00 -0.56  0.40
 H  0.24  0.28 -1.84
 H -0.97  1.42 -1.18
 H -1.40 -0.27 -1.43
 N -0.84  0.32  1.34
 C -2.12  1.04  1.45
 C -3.20  0.38  0.55
 O -3.78  0.99 -0.35
 H -0.39  0.06  2.21
 H -2.44  0.86  2.49
 C -2.01  2.56  1.24
 C -2.92  3.41  2.13
 C -4.43  3.29  1.86
 N -4.85  3.60  0.51
 C -4.91  4.90  0.03
 N -5.07  4.95 -1.36
 N -4.84  6.01  0.69
 H -2.19  2.80  0.19
 H -0.96  2.83  1.45
 H -2.63  4.46  2.01
 H -2.74  3.16  3.19
 H -4.98  3.95  2.56
 H -4.79  2.27  2.09
 H -4.59  2.88 -0.16
 H -5.31  5.89 -1.66
 H -5.69  4.24 -1.74
 H -4.61  5.85  1.68
 N -3.50 -0.92  0.80
 C -2.93 -1.83  1.80
 H -4.19 -1.30  0.16
 H -3.62 -2.67  1.92
 H -2.84 -1.33  2.77
 H -1.95 -2.21  1.51
