35
#
 C  0.28 -0.60  0.00
 C  0.18 -0.30  1.48
 O  1.18 -0.13  2.19
 H  1.10 -1.31 -0.16
 H  0.53  0.33 -0.53
 H -0.65 -1.00 -0.43
 N -1.09 -0.21  1.98
 C -1.37  0.32  3.32
 C -0.61  1.67  3.49
 O -0.92  2.56  2.69
 H -1.85 -0.18  1.31
 H -2.40  0.69  3.26
 C -1.38 -0.77  4.43
 C -0.39 -1.92  4.32
 C -0.49 -2.93  5.48
 N -0.07 -2.40  6.78
 C -0.90 -1.67  7.62
 N -2.21 -2.15  7.71
 N -0.42 -0.63  8.22
 H -2.40 -1.20  4.43
 H -1.29 -0.26  5.40
 H  0.64 -1.55  4.25
 H -0.57 -2.47  3.38
 H  0.13 -3.80  5.25
 H -1.53 -3.29  5.57
 H  0.85 -1.98  6.77
 H -2.75 -1.73  8.45
 H -2.30 -3.17  7.69
 H -1.06 -0.28  8.93
 N  0.22  1.94  4.54
 C  1.06  1.05  5.33
 H  0.54  2.90  4.48
 H  1.86  1.66  5.76
 H  1.52  0.28  4.70
 H  0.52  0.59  6.17
