35
#
 C -0.56 -1.50 -0.30
 C -0.19 -0.55  0.82
 O  0.96 -0.16  1.00
 H  0.35 -1.70 -0.88
 H -1.31 -1.06 -0.97
 H -0.96 -2.46  0.07
 N -1.21 -0.12  1.64
 C -2.58 -0.62  1.69
 C -3.50  0.56  2.07
 O -3.90  0.73  3.21
 H -0.89  0.45  2.43
 H -2.84 -0.96  0.68
 C -2.76 -1.80  2.65
 C -4.08 -2.54  2.45
 C -4.12 -3.93  3.11
 N -3.05 -4.84  2.67
 C -2.81 -5.12  1.33
 N -3.96 -5.25  0.56
 N -1.66 -5.25  0.76
 H -2.66 -1.44  3.68
 H -1.92 -2.49  2.46
 H -4.28 -2.67  1.38
 H -4.91 -1.94  2.86
 H -5.10 -4.39  2.93
 H -4.02 -3.84  4.20
 H -2.19 -4.73  3.19
 H -3.74 -5.63 -0.36
 H -4.74 -5.73  1.01
 H -0.90 -5.00  1.40
 N -3.81  1.44  1.06
 C -3.33  1.42 -0.31
 H -4.35  2.23  1.37
 H -3.79  2.26 -0.84
 H -3.62  0.50 -0.84
 H -2.24  1.54 -0.37
