35
#
 C -0.58  1.27  2.06
 C -1.13 -0.05  2.57
 O -0.47 -0.78  3.32
 H -0.89  2.07  2.75
 H -0.93  1.52  1.05
 H  0.51  1.21  2.08
 N -2.40 -0.44  2.19
 C -3.45  0.25  1.44
 C -3.28  0.21 -0.10
 O -4.03  0.85 -0.83
 H -2.67 -1.29  2.68
 H -4.36 -0.36  1.62
 C -3.78  1.68  1.91
 C -3.98  1.82  3.41
 C -4.08  3.29  3.84
 N -3.79  3.52  5.25
 C -2.48  3.49  5.69
 N -2.33  3.68  7.07
 N -1.51  3.38  4.84
 H -4.67  2.00  1.35
 H -2.97  2.36  1.59
 H -3.11  1.38  3.94
 H -4.87  1.26  3.74
 H -5.08  3.70  3.63
 H -3.35  3.88  3.27
 H -4.49  3.23  5.91
 H -1.51  3.25  7.47
 H -3.16  3.56  7.64
 H -0.60  3.50  5.30
 N -2.28 -0.59 -0.55
 C -1.99 -0.77 -1.96
 H -1.73 -1.08  0.15
 H -2.70 -0.15 -2.52
 H -2.12 -1.82 -2.26
 H -0.97 -0.45 -2.20
