35
#
 C -0.65 -1.65  0.60
 C -0.46 -0.73  1.79
 O  0.18  0.31  1.73
 H -1.07 -1.06 -0.23
 H -1.30 -2.51  0.79
 H  0.34 -2.01  0.28
 N -1.07 -1.16  2.95
 C -0.84 -0.46  4.22
 C -0.98 -1.40  5.43
 O -0.13 -1.35  6.33
 H -1.45 -2.09  2.97
 H  0.21 -0.15  4.24
 C -1.69  0.83  4.35
 C -1.42  1.61  5.66
 C -2.64  1.73  6.58
 N -3.35  0.47  6.82
 C -3.18 -0.36  7.91
 N -1.95 -0.24  8.55
 N -4.17 -1.14  8.23
 H -2.75  0.58  4.28
 H -1.44  1.44  3.48
 H -1.07  2.63  5.43
 H -0.59  1.14  6.21
 H -3.37  2.42  6.13
 H -2.34  2.18  7.54
 H -4.30  0.42  6.49
 H -1.14 -0.27  7.93
 H -1.84 -0.92  9.30
 H -3.90 -1.78  8.98
 N -2.01 -2.29  5.50
 C -3.31 -2.27  4.84
 H -1.97 -2.82  6.37
 H -4.10 -2.08  5.59
 H -3.51 -3.24  4.35
 H -3.35 -1.48  4.09
