35
#
 C  0.02 -0.30  1.51
 C -0.72 -0.25  2.82
 O -0.13 -0.31  3.91
 H  1.08 -0.47  1.72
 H -0.09  0.64  0.95
 H -0.36 -1.11  0.86
 N -2.09 -0.15  2.81
 C -2.97  0.37  1.76
 C -2.91 -0.49  0.47
 O -2.65  0.00 -0.63
 H -2.47 -0.13  3.76
 H -3.99  0.24  2.16
 C -2.77  1.86  1.45
 C -3.24  2.85  2.52
 C -2.50  2.87  3.88
 N -1.04  2.80  3.85
 C -0.21  3.60  3.08
 N -0.75  4.85  2.74
 N  0.98  3.30  2.66
 H -3.32  2.07  0.52
 H -1.72  2.05  1.21
 H -4.31  2.69  2.74
 H -3.17  3.85  2.08
 H -2.81  2.03  4.51
 H -2.83  3.77  4.42
 H -0.64  1.90  4.08
 H -1.26  5.32  3.48
 H -0.03  5.44  2.33
 H  1.21  2.33  2.89
 N -3.18 -1.82  0.60
 C -3.57 -2.57  1.78
 H -3.11 -2.32 -0.28
 H -4.04 -3.51  1.46
 H -4.30 -2.03  2.38
 H -2.71 -2.82  2.42
