35
#
 C -0.81 -0.28 -0.11
 C -0.43 -0.08  1.35
 O  0.70 -0.26  1.77
 H -0.52 -1.29 -0.41
 H -0.24  0.43 -0.72
 H -1.88 -0.14 -0.31
 N -1.45  0.33  2.17
 C -1.26  0.60  3.59
 C -0.68 -0.58  4.40
 O  0.19 -0.36  5.24
 H -2.38  0.43  1.79
 H -0.49  1.37  3.71
 C -2.60  1.14  4.15
 C -2.62  1.65  5.59
 C -2.56  0.58  6.71
 N -3.36 -0.63  6.48
 C -4.71 -0.62  6.18
 N -5.44  0.34  6.88
 N -5.16 -1.44  5.29
 H -3.38  0.37  4.02
 H -2.88  1.98  3.50
 H -3.55  2.22  5.71
 H -1.80  2.36  5.76
 H -2.87  1.05  7.66
 H -1.53  0.24  6.86
 H -2.88 -1.33  5.92
 H -5.12  0.54  7.82
 H -6.45  0.22  6.82
 H -6.19 -1.44  5.27
 N -1.18 -1.85  4.24
 C -2.15 -2.38  3.29
 H -0.63 -2.53  4.76
 H -2.44 -3.38  3.62
 H -1.75 -2.46  2.27
 H -3.07 -1.78  3.27
