35
#
 C -0.90  0.40 -0.43
 C -1.47 -0.78  0.33
 O -1.73 -1.86 -0.21
 H -1.59  0.67 -1.24
 H  0.05  0.09 -0.90
 H -0.71  1.28  0.19
 N -1.68 -0.57  1.66
 C -2.26 -1.58  2.53
 C -2.99 -0.83  3.65
 O -2.54  0.21  4.11
 H -1.49  0.33  2.10
 H -2.96 -2.17  1.92
 C -1.17 -2.53  3.08
 C -1.69 -3.72  3.88
 C -0.58 -4.68  4.33
 N  0.36 -4.07  5.27
 C  1.73 -3.96  5.09
 N  2.14 -3.92  3.76
 N  2.62 -3.89  6.02
 H -0.48 -1.93  3.70
 H -0.61 -2.89  2.21
 H -2.40 -4.30  3.26
 H -2.25 -3.38  4.77
 H -0.00 -5.03  3.47
 H -1.03 -5.57  4.79
 H  0.09 -4.11  6.25
 H  3.13 -3.73  3.70
 H  1.59 -3.33  3.14
 H  2.22 -4.08  6.94
 N -4.14 -1.43  4.09
 C -4.93 -0.90  5.19
 H -4.45 -2.27  3.62
 H -4.98 -1.62  6.02
 H -5.94 -0.65  4.86
 H -4.43  0.01  5.54
