35
#
 C -0.98 -0.13  0.21
 C -1.21  0.63  1.50
 O -0.94  1.82  1.63
 H -1.27 -1.18  0.25
 H  0.09 -0.06 -0.05
 H -1.54  0.37 -0.60
 N -1.76 -0.11  2.51
 C -1.95  0.43  3.84
 C -1.97 -0.77  4.80
 O -2.09 -1.92  4.36
 H -1.87 -1.12  2.46
 H -1.10  1.09  4.07
 C -3.24  1.28  3.95
 C -4.53  0.48  3.86
 C -5.80  1.33  4.02
 N -5.85  2.16  5.23
 C -5.67  1.64  6.51
 N -6.20  0.37  6.70
 N -5.08  2.22  7.50
 H -3.19  2.04  3.15
 H -3.21  1.84  4.90
 H -4.55 -0.31  4.63
 H -4.59 -0.04  2.89
 H -6.69  0.69  3.97
 H -5.90  2.03  3.17
 H -5.40  3.06  5.13
 H -6.24  0.12  7.68
 H -7.07  0.17  6.20
 H -4.64  3.10  7.21
 N -1.87 -0.54  6.14
 C -1.73  0.72  6.85
 H -1.98 -1.38  6.69
 H -1.21  1.46  6.23
 H -1.10  0.55  7.74
 H -2.69  1.14  7.18
