35
#
 C  0.13  0.11 -0.07
 C -0.32 -0.82  1.04
 O  0.14 -1.95  1.18
 H  1.22  0.23 -0.02
 H -0.34  1.10 -0.04
 H -0.10 -0.36 -1.04
 N -1.27 -0.30  1.88
 C -1.94 -1.12  2.87
 C -3.44 -0.83  2.77
 O -3.84  0.26  2.35
 H -1.78  0.55  1.63
 H -1.70 -2.16  2.63
 C -1.45 -0.82  4.31
 C  0.02 -1.14  4.54
 C  0.47 -0.80  5.97
 N  1.88 -1.07  6.23
 C  2.90 -0.13  6.24
 N  2.59  1.06  5.57
 N  4.05 -0.25  6.81
 H -2.07 -1.39  5.02
 H -1.65  0.25  4.52
 H  0.64 -0.59  3.81
 H  0.21 -2.21  4.34
 H -0.13 -1.37  6.69
 H  0.28  0.27  6.17
 H  2.10 -1.93  6.71
 H  3.41  1.65  5.53
 H  2.14  0.95  4.67
 H  4.09 -1.09  7.39
 N -4.30 -1.80  3.19
 C -3.98 -3.14  3.66
 H -5.27 -1.52  3.15
 H -4.90 -3.74  3.63
 H -3.61 -3.14  4.70
 H -3.24 -3.62  3.02
