35
#
 C  0.50 -0.93  0.55
 C  0.14 -0.20  1.83
 O  0.99  0.37  2.52
 H -0.36 -1.21 -0.07
 H  1.05 -1.85  0.81
 H  1.18 -0.30 -0.04
 N -1.18 -0.26  2.18
 C -1.79  0.32  3.38
 C -1.11  1.64  3.86
 O -0.75  1.78  5.02
 H -1.81 -0.71  1.53
 H -2.80  0.64  3.06
 C -2.01 -0.69  4.52
 C -0.81 -1.28  5.28
 C  0.13 -2.23  4.51
 N -0.50 -3.23  3.66
 C -1.18 -4.33  4.17
 N -1.85 -5.05  3.17
 N -1.26 -4.74  5.39
 H -2.63 -1.50  4.11
 H -2.64 -0.17  5.26
 H -1.24 -1.83  6.14
 H -0.21 -0.47  5.70
 H  0.78 -2.74  5.23
 H  0.80 -1.64  3.87
 H -0.87 -2.89  2.78
 H -2.23 -5.91  3.56
 H -1.28 -5.24  2.35
 H -0.84 -4.06  6.04
 N -1.07  2.68  2.98
 C -1.41  2.72  1.57
 H -0.58  3.48  3.36
 H -1.60  3.77  1.28
 H -2.33  2.16  1.37
 H -0.61  2.33  0.92
