35
#
 C -0.78 -0.05 -0.37
 C -0.52  0.31  1.08
 O  0.55  0.83  1.43
 H -0.03 -0.79 -0.68
 H -0.63  0.85 -0.98
 H -1.78 -0.45 -0.56
 N -1.53  0.02  1.95
 C -1.50  0.14  3.42
 C -1.52  1.59  3.98
 O -2.22  1.83  4.96
 H -2.38 -0.36  1.55
 H -2.47 -0.24  3.75
 C -0.40 -0.77  4.02
 C -0.13 -0.57  5.52
 C  0.98  0.46  5.81
 N  2.30 -0.00  5.37
 C  3.21  0.78  4.66
 N  2.63  1.61  3.70
 N  4.49  0.78  4.81
 H  0.53 -0.64  3.46
 H -0.72 -1.81  3.83
 H  0.18 -1.54  5.95
 H -1.04 -0.27  6.05
 H  0.99  0.67  6.89
 H  0.77  1.41  5.31
 H  2.77 -0.61  6.03
 H  3.36  2.06  3.16
 H  1.94  1.17  3.10
 H  4.77  0.26  5.65
 N -0.71  2.49  3.36
 C -0.52  3.83  3.86
 H -0.10  2.13  2.63
 H -0.75  4.58  3.09
 H  0.52  3.97  4.20
 H -1.20  3.98  4.71
