35
#
 C -0.75 -0.36 -1.04
 C -0.28  0.31  0.24
 O  0.83  0.82  0.34
 H  0.14 -0.62 -1.62
 H -1.34  0.37 -1.62
 H -1.38 -1.24 -0.88
 N -1.15  0.36  1.31
 C -2.51 -0.16  1.47
 C -2.57 -1.70  1.32
 O -3.26 -2.25  0.46
 H -0.75  0.87  2.09
 H -2.76  0.05  2.53
 C -3.57  0.52  0.59
 C -3.49  2.05  0.55
 C -3.67  2.73  1.91
 N -3.73  4.19  1.84
 C -4.91  4.82  1.49
 N -4.74  6.20  1.30
 N -6.00  4.14  1.34
 H -4.56  0.21  0.97
 H -3.51  0.11 -0.42
 H -4.28  2.41 -0.12
 H -2.53  2.36  0.11
 H -2.85  2.47  2.60
 H -4.61  2.40  2.37
 H -2.89  4.64  1.49
 H -5.61  6.71  1.21
 H -4.11  6.64  1.96
 H -6.80  4.76  1.20
 N -1.82 -2.44  2.19
 C -0.95 -1.99  3.26
 H -1.87 -3.44  2.00
 H  0.02 -1.62  2.89
 H -0.76 -2.84  3.93
 H -1.42 -1.20  3.85
