35
#
 C -0.11 -0.46  0.03
 C  0.03 -0.06  1.48
 O  1.15  0.06  2.00
 H -0.42 -1.51 -0.04
 H  0.88 -0.36 -0.44
 H -0.84  0.13 -0.53
 N -1.09  0.09  2.26
 C -2.46  0.50  1.90
 C -3.03 -0.20  0.65
 O -3.34  0.43 -0.36
 H -0.84  0.36  3.22
 H -3.09  0.15  2.74
 C -2.64  2.04  1.85
 C -1.60  2.83  1.02
 C -0.68  3.74  1.85
 N  0.20  3.05  2.80
 C -0.17  2.68  4.09
 N -1.14  3.48  4.69
 N  0.28  1.66  4.74
 H -2.63  2.40  2.88
 H -3.64  2.22  1.46
 H -2.12  3.46  0.29
 H -0.98  2.15  0.41
 H -1.28  4.48  2.39
 H -0.03  4.31  1.16
 H  0.83  2.38  2.39
 H -1.20  3.27  5.68
 H -1.04  4.48  4.52
 H  0.92  1.11  4.15
 N -3.20 -1.55  0.73
 C -3.02 -2.42  1.88
 H -3.63 -1.94 -0.10
 H -2.97 -3.45  1.53
 H -3.85 -2.33  2.60
 H -2.08 -2.19  2.40
