35
#
 C  0.69 -0.83  0.35
 C  0.31 -0.75  1.81
 O  1.09 -1.10  2.71
 H  0.97 -1.86  0.11
 H  1.58 -0.21  0.19
 H -0.10 -0.50 -0.33
 N -0.94 -0.27  2.08
 C -1.44 -0.08  3.44
 C -1.99 -1.43  4.00
 O -3.19 -1.67  4.09
 H -1.57 -0.08  1.31
 H -0.57  0.21  4.05
 C -2.50  1.02  3.46
 C -2.94  1.41  4.87
 C -4.20  2.29  4.89
 N -5.32  1.80  4.08
 C -6.24  0.84  4.53
 N -5.66 -0.23  5.19
 N -7.52  0.89  4.36
 H -3.38  0.68  2.89
 H -2.10  1.90  2.93
 H -2.13  1.96  5.38
 H -3.12  0.50  5.47
 H -3.95  3.28  4.49
 H -4.51  2.43  5.94
 H -5.80  2.55  3.59
 H -4.82 -0.64  4.76
 H -6.36 -0.93  5.41
 H -7.81  1.80  4.01
 N -1.01 -2.29  4.34
 C -1.28 -3.65  4.79
 H -0.05 -2.03  4.08
 H -2.31 -3.69  5.15
 H -0.59 -3.92  5.60
 H -1.17 -4.38  3.97
