35
#
 C  0.11 -2.18  0.89
 C -0.06 -0.71  1.19
 O  0.91  0.03  1.38
 H  0.37 -2.31 -0.17
 H -0.77 -2.79  1.12
 H  0.97 -2.54  1.48
 N -1.33 -0.20  1.28
 C -2.61 -0.66  0.73
 C -3.28 -1.67  1.69
 O -3.12 -2.89  1.59
 H -1.33  0.79  1.51
 H -3.22  0.26  0.75
 C -2.59 -1.20 -0.70
 C -1.75 -0.45 -1.75
 C -2.00  1.06 -1.93
 N -1.10  1.92 -1.18
 C -1.38  2.53  0.03
 N -0.23  2.89  0.72
 N -2.55  2.80  0.53
 H -3.64 -1.23 -1.04
 H -2.27 -2.25 -0.68
 H -1.94 -0.95 -2.71
 H -0.68 -0.60 -1.55
 H -3.03  1.33 -1.67
 H -1.89  1.31 -3.00
 H -0.11  1.86 -1.41
 H -0.46  3.37  1.59
 H  0.44  2.13  0.87
 H -3.29  2.65 -0.16
 N -4.02 -1.09  2.68
 C -4.62 -1.85  3.76
 H -4.04 -0.08  2.72
 H -4.55 -2.91  3.50
 H -5.68 -1.57  3.88
 H -4.10 -1.68  4.71
