35
#
 C -0.28 -1.27 -0.79
 C  0.08 -0.08  0.07
 O  1.01  0.68 -0.23
 H  0.54 -1.44 -1.49
 H -1.19 -1.07 -1.38
 H -0.44 -2.18 -0.19
 N -0.64  0.15  1.21
 C -1.98 -0.33  1.58
 C -1.96 -1.86  1.86
 O -1.22 -2.26  2.76
 H -0.28  0.93  1.74
 H -2.12  0.05  2.61
 C -3.08  0.30  0.71
 C -3.13  1.84  0.82
 C -3.13  2.56 -0.53
 N -1.93  2.35 -1.31
 C -1.80  1.48 -2.38
 N -0.50  1.44 -2.87
 N -2.71  0.76 -2.94
 H -4.05 -0.12  1.00
 H -2.92  0.02 -0.34
 H -2.26  2.21  1.40
 H -4.02  2.15  1.39
 H -3.27  3.64 -0.37
 H -4.00  2.23 -1.13
 H -1.11  2.88 -1.06
 H -0.41  0.75 -3.60
 H  0.24  1.38 -2.17
 H -3.64  0.98 -2.59
 N -2.76 -2.75  1.19
 C -3.62 -2.64  0.02
 H -2.64 -3.68  1.58
 H -4.59 -2.18  0.25
 H -3.80 -3.66 -0.35
 H -3.15 -2.08 -0.79
