35
#
 C -0.65  0.79 -0.30
 C -0.58  0.42  1.17
 O  0.17  1.01  1.94
 H -1.40  0.23 -0.88
 H  0.34  0.61 -0.75
 H -0.86  1.86 -0.39
 N -1.43 -0.59  1.54
 C -1.59 -1.28  2.82
 C -2.91 -0.92  3.57
 O -3.69 -1.83  3.85
 H -2.02 -0.96  0.80
 H -1.79 -2.33  2.55
 C -0.36 -1.27  3.74
 C -0.54 -2.09  5.03
 C -0.80 -3.59  4.82
 N -0.82 -4.37  6.05
 C  0.28 -4.50  6.88
 N  1.50 -4.60  6.20
 N  0.10 -4.50  8.16
 H -0.08 -0.24  4.00
 H  0.49 -1.67  3.16
 H -1.36 -1.67  5.63
 H  0.37 -1.97  5.63
 H -0.03 -4.00  4.14
 H -1.77 -3.75  4.33
 H -1.66 -4.23  6.61
 H  2.27 -4.91  6.79
 H  1.47 -5.11  5.32
 H  0.97 -4.75  8.66
 N -3.17  0.36  3.93
 C -2.44  1.59  3.68
 H -4.07  0.44  4.40
 H -2.49  2.24  4.56
 H -2.86  2.15  2.82
 H -1.39  1.40  3.46
