35
#
 C  0.25  0.27  0.19
 C  0.07 -0.14  1.64
 O  1.00 -0.59  2.30
 H  0.99 -0.40 -0.27
 H  0.66  1.29  0.18
 H -0.67  0.25 -0.40
 N -1.22  0.03  2.10
 C -1.67  0.11  3.50
 C -0.96  1.30  4.20
 O  0.02  1.85  3.70
 H -1.82  0.51  1.45
 H -2.72  0.42  3.41
 C -1.76 -1.27  4.21
 C -0.49 -2.09  4.51
 C  0.07 -1.96  5.94
 N  0.26 -0.60  6.42
 C  1.42  0.17  6.25
 N  2.17 -0.15  5.14
 N  1.80  1.11  7.05
 H -2.40 -1.87  3.55
 H -2.33 -1.14  5.14
 H  0.29 -1.86  3.78
 H -0.72 -3.15  4.37
 H  1.02 -2.53  5.99
 H -0.63 -2.44  6.64
 H -0.17 -0.42  7.33
 H  1.67 -0.33  4.27
 H  2.92  0.53  5.02
 H  1.23  1.12  7.91
 N -1.52  1.80  5.34
 C -2.64  1.30  6.12
 H -0.92  2.49  5.78
 H -3.01  2.11  6.76
 H -2.37  0.45  6.76
 H -3.47  1.00  5.47
