35
#
 C -0.98  0.55 -0.26
 C -0.80 -0.29  0.99
 O  0.07 -1.14  1.08
 H -0.69 -0.05 -1.13
 H -0.29  1.41 -0.20
 H -2.00  0.93 -0.40
 N -1.72 -0.01  1.98
 C -1.62 -0.38  3.39
 C -0.74  0.66  4.14
 O  0.02  1.41  3.55
 H -2.28  0.82  1.81
 H -2.65 -0.27  3.78
 C -1.19 -1.85  3.65
 C  0.28 -2.08  3.97
 C  0.62 -3.57  3.98
 N  2.01 -3.77  4.37
 C  2.60 -5.03  4.46
 N  1.74 -6.03  4.91
 N  3.84 -5.16  4.12
 H -1.47 -2.43  2.76
 H -1.81 -2.24  4.47
 H  0.55 -1.65  4.95
 H  0.90 -1.58  3.21
 H  0.40 -4.01  2.99
 H -0.03 -4.09  4.70
 H  2.66 -3.13  3.91
 H  2.22 -6.88  5.20
 H  1.03 -5.75  5.57
 H  4.19 -6.10  4.35
 N -0.88  0.73  5.50
 C -1.68 -0.11  6.39
 H -0.24  1.38  5.93
 H -1.84  0.43  7.33
 H -1.20 -1.07  6.61
 H -2.67 -0.31  5.96
