35
#
 C -2.27 -1.91  0.60
 C -1.63 -0.78  1.39
 O -1.21  0.25  0.85
 H -2.02 -2.90  1.03
 H -1.92 -1.86 -0.43
 H -3.36 -1.80  0.62
 N -1.58 -0.97  2.74
 C -1.04  0.05  3.61
 C -0.25 -0.61  4.74
 O -0.57 -1.70  5.22
 H -1.98 -1.81  3.15
 H -0.37  0.64  2.97
 C -2.11  1.04  4.16
 C -2.88  0.64  5.43
 C -3.69 -0.66  5.39
 N -4.69 -0.69  4.33
 C -4.78 -1.61  3.30
 N -4.07 -2.80  3.52
 N -5.40 -1.47  2.18
 H -2.80  1.24  3.33
 H -1.61  2.00  4.36
 H -3.56  1.48  5.68
 H -2.19  0.56  6.28
 H -4.18 -0.79  6.37
 H -3.01 -1.50  5.25
 H -5.20  0.17  4.15
 H -4.15 -3.19  4.46
 H -4.32 -3.48  2.80
 H -5.75 -0.51  2.06
 N  0.79  0.14  5.21
 C  1.62 -0.28  6.33
 H  1.02  0.99  4.72
 H  1.65  0.49  7.11
 H  2.65 -0.50  6.00
 H  1.18 -1.19  6.74
