35
#
 C -0.05 -0.61  0.31
 C -0.50  0.59  1.13
 O -0.22  1.74  0.82
 H  0.57 -0.25 -0.50
 H -0.92 -1.15 -0.10
 H  0.52 -1.33  0.92
 N -1.25  0.33  2.25
 C -1.75 -0.95  2.72
 C -2.91 -1.59  1.92
 O -3.08 -2.81  2.04
 H -1.52  1.18  2.75
 H -0.95 -1.69  2.62
 C -2.12 -0.90  4.21
 C -3.32 -0.01  4.57
 C -3.73 -0.14  6.04
 N -4.19 -1.48  6.34
 C -4.41 -1.90  7.65
 N -4.97 -3.18  7.70
 N -4.17 -1.26  8.74
 H -1.23 -0.57  4.77
 H -2.33 -1.93  4.53
 H -4.18 -0.27  3.93
 H -3.11  1.05  4.37
 H -4.50  0.63  6.27
 H -2.87  0.08  6.68
 H -4.83 -1.88  5.66
 H -5.00 -3.52  8.66
 H -4.55 -3.86  7.07
 H -3.91 -0.29  8.56
 N -3.74 -0.86  1.11
 C -3.85  0.58  0.88
 H -4.42 -1.45  0.66
 H -4.80  0.75  0.35
 H -3.04  0.98  0.26
 H -3.89  1.15  1.81
