35
#
 C -0.77  0.37 -0.10
 C -0.71  0.10  1.39
 O  0.35 -0.09  1.98
 H -0.45  1.41 -0.27
 H -1.77  0.23 -0.53
 H -0.06 -0.28 -0.61
 N -1.91  0.10  2.04
 C -2.01  0.11  3.50
 C -1.09  1.24  4.06
 O -1.35  2.38  3.68
 H -2.71  0.45  1.53
 H -2.99  0.56  3.71
 C -2.07 -1.31  4.13
 C -1.22 -2.41  3.49
 C -1.38 -3.77  4.19
 N -0.88 -3.85  5.56
 C  0.45 -3.72  5.92
 N  1.38 -4.21  5.00
 N  0.73 -3.24  7.09
 H -3.12 -1.63  4.08
 H -1.84 -1.21  5.20
 H -0.16 -2.12  3.46
 H -1.53 -2.53  2.44
 H -0.91 -4.56  3.58
 H -2.45 -4.05  4.24
 H -1.48 -3.48  6.29
 H  1.08 -4.30  4.03
 H  2.31 -3.83  5.09
 H  1.72 -3.31  7.30
 N -0.15  1.03  5.02
 C  0.65 -0.15  5.32
 H  0.27  1.92  5.28
 H  0.13 -0.87  5.96
 H  1.54  0.18  5.87
 H  0.98 -0.64  4.40
