35
#
 C -0.09  0.44  0.02
 C -0.10  0.07  1.49
 O  0.91 -0.33  2.06
 H  0.20 -0.44 -0.56
 H  0.67  1.21 -0.14
 H -1.06  0.81 -0.35
 N -1.30  0.21  2.13
 C -1.52 -0.24  3.50
 C -2.77 -1.12  3.63
 O -2.68 -2.26  4.07
 H -2.10  0.46  1.56
 H -0.69 -0.93  3.71
 C -1.48  0.90  4.55
 C -0.12  1.58  4.71
 C  0.95  0.70  5.38
 N  2.21  1.39  5.64
 C  3.23  1.59  4.72
 N  3.25  0.73  3.64
 N  4.19  2.45  4.85
 H -1.79  0.46  5.52
 H -2.23  1.66  4.30
 H -0.25  2.48  5.32
 H  0.26  1.92  3.73
 H  1.17 -0.19  4.79
 H  0.56  0.33  6.35
 H  2.16  2.13  6.33
 H  3.96  0.98  2.97
 H  2.38  0.39  3.22
 H  4.12  2.95  5.74
 N -3.99 -0.64  3.22
 C -4.44  0.73  3.00
 H -4.73 -1.32  3.38
 H -5.27  0.73  2.28
 H -3.64  1.35  2.58
 H -4.78  1.22  3.92
