35
#
 C  0.44 -0.20  0.15
 C  0.08 -0.26  1.62
 O  0.93 -0.17  2.51
 H  1.14 -1.01 -0.07
 H  0.96  0.75 -0.05
 H -0.42 -0.28 -0.52
 N -1.25 -0.40  1.89
 C -1.75 -0.56  3.24
 C -3.12 -1.26  3.13
 O -3.72 -1.34  2.05
 H -1.93 -0.58  1.16
 H -1.06 -1.23  3.78
 C -1.80  0.76  4.05
 C -2.36  2.00  3.33
 C -3.79  1.91  2.79
 N -4.73  1.44  3.81
 C -6.03  1.04  3.51
 N -6.18  0.39  2.29
 N -6.96  1.30  4.38
 H -0.77  0.98  4.35
 H -2.37  0.58  4.98
 H -1.70  2.26  2.49
 H -2.30  2.84  4.04
 H -3.82  1.21  1.95
 H -4.08  2.89  2.39
 H -4.75  2.01  4.65
 H -7.09 -0.04  2.17
 H -5.41 -0.22  2.01
 H -7.84  0.86  4.12
 N -3.60 -1.78  4.29
 C -4.94 -2.30  4.43
 H -3.07 -1.59  5.13
 H -4.94 -3.14  5.13
 H -5.29 -2.64  3.45
 H -5.63 -1.52  4.80
