35
#
 C -0.23 -0.63 -0.13
 C -0.39  0.34  1.02
 O  0.15  1.44  1.02
 H  0.66 -1.24  0.06
 H -0.06 -0.04 -1.04
 H -1.07 -1.31 -0.29
 N -1.12 -0.04  2.13
 C -1.97 -1.20  2.39
 C -1.28 -2.53  1.99
 O -0.10 -2.72  2.25
 H -1.09  0.66  2.86
 H -1.99 -1.29  3.49
 C -3.44 -0.96  1.96
 C -3.70 -0.64  0.49
 C -5.16 -0.24  0.23
 N -5.44  0.10 -1.16
 C -5.56  1.40 -1.64
 N -4.88  2.36 -0.89
 N -6.23  1.78 -2.68
 H -3.80 -0.12  2.56
 H -4.06 -1.82  2.29
 H -3.45 -1.49 -0.17
 H -3.04  0.18  0.18
 H -5.42  0.62  0.87
 H -5.83 -1.07  0.52
 H -5.98 -0.57 -1.68
 H -4.91  3.26 -1.35
 H -3.93  2.11 -0.60
 H -6.80  1.02 -3.05
 N -2.08 -3.47  1.40
 C -1.59 -4.79  1.04
 H -3.04 -3.23  1.20
 H -2.18 -5.58  1.54
 H -0.55 -4.86  1.37
 H -1.64 -4.95 -0.04
