35
#
 C  0.23 -1.06 -0.14
 C  0.52 -0.27  1.12
 O  1.66  0.16  1.36
 H  1.12 -1.03 -0.77
 H -0.63 -0.66 -0.69
 H  0.01 -2.11  0.11
 N -0.51 -0.02  1.98
 C -1.77 -0.75  2.06
 C -2.89  0.20  2.56
 O -3.55 -0.04  3.57
 H -0.20  0.44  2.85
 H -2.05 -1.05  1.04
 C -1.69 -2.01  2.94
 C -1.01 -1.80  4.31
 C  0.51 -2.03  4.29
 N  1.23 -1.42  5.42
 C  1.31 -0.05  5.60
 N  1.29  0.70  4.41
 N  1.40  0.58  6.72
 H -1.15 -2.79  2.37
 H -2.71 -2.38  3.08
 H -1.47 -2.48  5.04
 H -1.23 -0.79  4.67
 H  0.96 -1.65  3.36
 H  0.74 -3.10  4.30
 H  1.12 -1.92  6.30
 H  1.52  1.67  4.62
 H  1.84  0.35  3.63
 H  1.27 -0.06  7.51
 N -3.13  1.32  1.81
 C -2.52  1.74  0.56
 H -3.85  1.91  2.21
 H -3.16  2.50  0.10
 H -2.45  0.91 -0.15
 H -1.51  2.16  0.70
