35
#
 C  1.08  0.16  0.06
 C  0.63  0.34  1.49
 O  1.41  0.66  2.39
 H  1.52  1.10 -0.30
 H  0.27 -0.13 -0.63
 H  1.87 -0.60  0.03
 N -0.70  0.12  1.72
 C -1.26  0.15  3.05
 C -2.48 -0.78  3.03
 O -2.99 -1.13  1.95
 H -1.31 -0.28  1.01
 H -0.50 -0.25  3.74
 C -1.57  1.60  3.53
 C -2.57  2.40  2.69
 C -4.04  2.05  2.94
 N -4.91  2.98  2.25
 C -6.29  2.81  2.26
 N -6.96  3.89  1.67
 N -6.96  1.82  2.73
 H -0.60  2.11  3.52
 H -1.89  1.58  4.58
 H -2.34  2.28  1.62
 H -2.42  3.46  2.92
 H -4.23  2.04  4.03
 H -4.26  1.04  2.57
 H -4.61  3.95  2.28
 H -7.95  3.68  1.58
 H -6.55  4.21  0.80
 H -6.36  1.17  3.25
 N -3.01 -1.18  4.21
 C -2.55 -0.91  5.56
 H -3.85 -1.75  4.10
 H -2.79 -1.76  6.20
 H -3.01 -0.01  5.99
 H -1.46 -0.78  5.58
