35
#
 C  0.85  0.38  0.33
 C  0.44  0.13  1.77
 O  1.25 -0.15  2.65
 H  1.36 -0.53 -0.05
 H  1.59  1.19  0.31
 H  0.02  0.63 -0.33
 N -0.90  0.26  2.02
 C -1.46  0.00  3.32
 C -2.93 -0.40  3.10
 O -3.52 -0.11  2.06
 H -1.57  0.41  1.27
 H -0.91 -0.84  3.77
 C -1.30  1.21  4.29
 C -1.93  2.52  3.82
 C -3.43  2.68  4.11
 N -4.02  3.90  3.58
 C -4.35  4.00  2.23
 N -4.65  5.33  1.87
 N -4.42  3.08  1.34
 H -0.22  1.33  4.43
 H -1.70  0.92  5.28
 H -1.75  2.65  2.74
 H -1.40  3.36  4.30
 H -3.60  2.67  5.20
 H -4.01  1.84  3.71
 H -3.64  4.76  3.97
 H -5.04  5.36  0.94
 H -5.24  5.82  2.54
 H -4.08  2.17  1.66
 N -3.51 -1.05  4.13
 C -4.92 -1.42  4.14
 H -2.94 -1.28  4.94
 H -5.04 -2.51  4.23
 H -5.35 -1.10  3.19
 H -5.45 -0.94  4.97
