35
#
 C -1.61 -2.66  0.30
 C -2.01 -1.80  1.48
 O -2.95 -1.00  1.42
 H -1.82 -2.13 -0.63
 H -2.22 -3.58  0.33
 H -0.55 -2.95  0.33
 N -1.30 -1.99  2.62
 C -1.79 -1.52  3.92
 C -1.31 -0.07  4.22
 O -0.51  0.19  5.12
 H -0.60 -2.72  2.64
 H -2.88 -1.47  3.82
 C -1.40 -2.48  5.04
 C -2.45 -2.59  6.14
 C -3.72 -3.35  5.73
 N -3.47 -4.73  5.36
 C -3.38 -5.20  4.06
 N -3.13 -6.58  4.01
 N -3.51 -4.55  2.95
 H -0.45 -2.14  5.47
 H -1.23 -3.49  4.62
 H -2.74 -1.58  6.49
 H -2.01 -3.10  7.01
 H -4.23 -2.84  4.90
 H -4.44 -3.34  6.56
 H -3.68 -5.44  6.06
 H -2.40 -6.90  4.65
 H -2.97 -6.88  3.06
 H -3.85 -3.60  3.10
 N -1.87  0.85  3.39
 C -1.51  2.25  3.42
 H -2.46  0.48  2.64
 H -0.92  2.44  4.32
 H -2.41  2.88  3.44
 H -0.91  2.53  2.54
