35
#
 C -1.63 -0.51  1.22
 C -0.24  0.10  1.29
 O  0.27  0.68  0.33
 H -1.68 -1.17  0.35
 H -2.36  0.30  1.06
 H -1.92 -1.06  2.12
 N  0.39 -0.02  2.50
 C  1.74  0.45  2.70
 C  2.34 -0.39  3.84
 O  1.62 -1.05  4.60
 H  0.02 -0.61  3.24
 H  2.31  0.26  1.77
 C  1.80  1.97  2.99
 C  1.17  2.38  4.32
 C  1.03  3.90  4.48
 N  0.13  4.52  3.51
 C -1.19  4.87  3.75
 N -1.76  4.23  4.85
 N -1.89  5.72  3.09
 H  1.29  2.46  2.16
 H  2.86  2.30  2.96
 H  1.76  1.99  5.17
 H  0.17  1.91  4.40
 H  2.02  4.37  4.37
 H  0.67  4.13  5.49
 H  0.56  5.01  2.73
 H -2.76  4.44  4.90
 H -1.58  3.23  4.93
 H -1.32  6.23  2.41
 N  3.69 -0.31  3.97
 C  4.43 -0.98  5.03
 H  4.20  0.22  3.28
 H  5.11 -1.73  4.61
 H  3.70 -1.48  5.67
 H  5.00 -0.26  5.62
