35
#
 C -0.82  0.04  1.77
 C -2.23  0.43  2.18
 O -2.44  1.45  2.83
 H -0.14  0.35  2.57
 H -0.55  0.60  0.87
 H -0.68 -1.03  1.56
 N -3.28 -0.39  1.82
 C -3.29 -1.48  0.83
 C -2.50 -2.73  1.26
 O -2.05 -3.53  0.44
 H -4.20  0.07  1.91
 H -4.34 -1.82  0.84
 C -2.95 -1.05 -0.61
 C -3.75  0.18 -1.05
 C -5.27 -0.06 -1.16
 N -6.09  1.12 -0.92
 C -6.35  1.54  0.37
 N -7.03  2.76  0.41
 N -5.97  0.85  1.40
 H -3.14 -1.91 -1.27
 H -1.88 -0.84 -0.70
 H -3.37  0.53 -2.02
 H -3.58  1.00 -0.34
 H -5.59 -0.81 -0.42
 H -5.53 -0.46 -2.15
 H -6.01  1.86 -1.60
 H -7.34  3.04  1.33
 H -7.74  2.89 -0.30
 H -6.35  1.24  2.26
 N -2.43 -2.91  2.61
 C -1.77 -4.04  3.22
 H -2.80 -2.16  3.19
 H -1.44 -4.71  2.42
 H -2.46 -4.60  3.88
 H -0.90 -3.73  3.81
