35
#
 C -0.17 -0.33  0.07
 C -0.15 -0.40  1.58
 O  0.82 -0.80  2.21
 H  0.64  0.34 -0.26
 H -1.12  0.03 -0.35
 H  0.04 -1.33 -0.33
 N -1.31  0.00  2.20
 C -1.45  0.06  3.65
 C -2.72 -0.68  4.11
 O -3.62 -0.12  4.75
 H -2.08  0.33  1.63
 H -0.58 -0.51  4.02
 C -1.35  1.49  4.23
 C -1.96  2.63  3.40
 C -3.47  2.56  3.18
 N -3.92  3.76  2.48
 C -5.25  3.89  2.10
 N -5.46  5.02  1.29
 N -6.24  3.13  2.40
 H -0.28  1.71  4.35
 H -1.80  1.47  5.23
 H -1.45  2.69  2.43
 H -1.73  3.57  3.92
 H -3.99  2.48  4.14
 H -3.74  1.65  2.61
 H -3.26  4.15  1.82
 H -6.45  5.17  1.14
 H -5.00  5.86  1.61
 H -5.94  2.29  2.89
 N -2.82 -2.01  3.80
 C -1.85 -2.87  3.13
 H -3.69 -2.43  4.11
 H -2.00 -2.90  2.04
 H -1.96 -3.89  3.52
 H -0.82 -2.55  3.32
