35
#
 C -2.27  0.98  1.26
 C -1.80  0.25  2.50
 O -2.01  0.67  3.64
 H -3.36  0.85  1.16
 H -1.81  0.61  0.33
 H -2.07  2.05  1.37
 N -1.17 -0.94  2.27
 C -0.60 -1.74  3.34
 C  0.45 -2.65  2.68
 O  0.50 -2.80  1.46
 H -0.88 -1.23  1.33
 H -0.11 -1.07  4.05
 C -1.66 -2.56  4.12
 C -2.61 -3.39  3.24
 C -3.98 -2.71  3.06
 N -4.87 -3.33  2.09
 C -4.73 -3.12  0.73
 N -5.62 -3.90 -0.02
 N -3.92 -2.32  0.12
 H -2.24 -1.85  4.73
 H -1.14 -3.21  4.83
 H -2.77 -4.38  3.68
 H -2.16 -3.57  2.25
 H -3.85 -1.66  2.75
 H -4.50 -2.67  4.02
 H -5.23 -4.25  2.35
 H -6.57 -3.92  0.33
 H -5.58 -3.63 -1.00
 H -3.23 -1.93  0.77
 N  1.30 -3.27  3.54
 C  2.33 -4.20  3.11
 H  1.21 -3.07  4.53
 H  2.27 -4.28  2.02
 H  2.18 -5.19  3.55
 H  3.33 -3.84  3.39
