35
#
 C -0.05 -0.15  0.05
 C -0.01 -0.01  1.56
 O  1.04  0.03  2.19
 H  0.21 -1.19 -0.20
 H  0.72  0.49 -0.39
 H -1.02  0.08 -0.40
 N -1.25  0.10  2.16
 C -1.50  0.03  3.61
 C -0.59  0.98  4.43
 O -0.20  0.68  5.56
 H -2.06 -0.03  1.57
 H -2.51  0.46  3.73
 C -1.55 -1.39  4.18
 C -0.24 -2.20  4.16
 C -0.07 -3.04  5.42
 N  0.10 -2.17  6.58
 C -0.26 -2.58  7.83
 N -0.31 -1.53  8.76
 N -0.56 -3.82  8.07
 H -2.34 -1.94  3.65
 H -1.90 -1.29  5.22
 H  0.63 -1.52  4.07
 H -0.20 -2.85  3.28
 H  0.81 -3.70  5.32
 H -0.93 -3.71  5.59
 H  0.05 -1.17  6.38
 H -0.19 -1.83  9.72
 H  0.30 -0.74  8.55
 H -0.79 -3.95  9.06
 N -0.38  2.20  3.88
 C  0.53  3.16  4.48
 H -0.60  2.30  2.90
 H  0.26  4.17  4.15
 H  1.58  2.95  4.21
 H  0.44  3.10  5.57
