35
#
 C  0.07  0.29  0.03
 C  0.07  0.14  1.54
 O  1.12  0.17  2.20
 H  0.50  1.26 -0.22
 H -0.92  0.20 -0.42
 H  0.73 -0.48 -0.40
 N -1.15 -0.03  2.12
 C -1.39 -0.04  3.56
 C -1.05 -1.40  4.23
 O -1.83 -2.01  4.97
 H -1.96 -0.07  1.52
 H -0.66  0.67  3.99
 C -2.80  0.48  3.88
 C -3.96  0.04  2.97
 C -4.29 -1.46  2.92
 N -4.60 -2.06  4.20
 C -5.81 -1.83  4.80
 N -5.85 -2.29  6.13
 N -6.76 -1.21  4.18
 H -2.76  1.58  3.87
 H -3.02  0.19  4.92
 H -3.82  0.41  1.94
 H -4.87  0.56  3.32
 H -3.45 -2.03  2.49
 H -5.16 -1.60  2.26
 H -3.78 -2.17  4.80
 H -6.79 -2.38  6.50
 H -5.29 -3.12  6.31
 H -7.62 -1.20  4.73
 N  0.20 -1.84  3.98
 C  0.72 -3.06  4.55
 H  0.81 -1.22  3.43
 H  1.68 -3.29  4.08
 H  0.03 -3.90  4.37
 H  0.86 -2.98  5.64
