35
#
 C  0.26  0.36  0.47
 C -0.01  0.16  1.94
 O  0.89  0.12  2.78
 H -0.40  1.10  0.00
 H  0.13 -0.58 -0.08
 H  1.30  0.68  0.37
 N -1.32 -0.01  2.35
 C -2.58  0.10  1.60
 C -2.60 -0.81  0.34
 O -2.80 -0.35 -0.78
 H -1.39 -0.14  3.35
 H -3.33 -0.32  2.28
 C -3.02  1.53  1.25
 C -3.02  2.50  2.44
 C -1.70  3.28  2.62
 N -1.71  4.25  3.71
 C -2.55  5.37  3.74
 N -2.82  5.91  2.48
 N -3.06  5.92  4.78
 H -4.03  1.45  0.83
 H -2.40  1.92  0.44
 H -3.25  1.97  3.38
 H -3.82  3.24  2.31
 H -1.46  3.79  1.67
 H -0.86  2.60  2.81
 H -1.58  3.85  4.63
 H -3.29  6.80  2.57
 H -2.03  5.94  1.84
 H -2.91  5.35  5.62
 N -2.39 -2.15  0.54
 C -2.17 -2.87  1.78
 H -2.40 -2.68 -0.33
 H -2.39 -3.93  1.60
 H -2.85 -2.53  2.57
 H -1.14 -2.78  2.14
