35
#
 C -0.99 -0.09  0.22
 C -0.43 -0.36  1.60
 O  0.49 -1.15  1.80
 H -1.70  0.74  0.19
 H -1.48 -1.00 -0.15
 H -0.15  0.12 -0.46
 N -1.06  0.33  2.61
 C -0.58  0.27  3.99
 C -1.57 -0.41  4.96
 O -1.38 -0.38  6.18
 H -1.71  1.09  2.35
 H  0.30 -0.40  3.96
 C -0.15  1.64  4.53
 C  1.02  2.28  3.77
 C  0.69  3.63  3.11
 N -0.35  3.53  2.08
 C -1.70  3.67  2.34
 N -2.03  4.75  3.15
 N -2.53  2.79  1.86
 H  0.11  1.49  5.59
 H -1.02  2.31  4.54
 H  1.39  1.60  2.99
 H  1.88  2.44  4.44
 H  1.59  4.06  2.65
 H  0.35  4.35  3.87
 H -0.20  2.76  1.44
 H -3.02  4.92  3.27
 H -1.47  5.59  3.04
 H -3.50  3.09  1.96
 N -2.62 -1.04  4.38
 C -3.60 -1.80  5.12
 H -2.66 -1.01  3.36
 H -4.62 -1.44  4.92
 H -3.38 -1.66  6.19
 H -3.54 -2.87  4.89
