35
#
 C  0.35  0.10  0.30
 C  0.14 -0.10  1.79
 O  1.09 -0.24  2.57
 H  0.97  1.00  0.15
 H -0.58  0.21 -0.27
 H  0.92 -0.75 -0.10
 N -1.15 -0.11  2.21
 C -1.51 -0.27  3.62
 C -1.54 -1.78  3.99
 O -2.58 -2.43  4.06
 H -1.90 -0.09  1.53
 H -0.70  0.21  4.18
 C -2.85  0.41  3.90
 C -3.27  0.43  5.38
 C -2.31  1.18  6.30
 N -2.85  1.24  7.65
 C -2.17  1.91  8.66
 N -2.77  1.72  9.91
 N -1.11  2.63  8.56
 H -3.64 -0.10  3.33
 H -2.79  1.45  3.52
 H -3.40 -0.61  5.72
 H -4.26  0.90  5.45
 H -2.18  2.21  5.93
 H -1.31  0.70  6.29
 H -3.32  0.39  7.95
 H -2.34  2.32 10.61
 H -3.78  1.80  9.91
 H -0.70  2.58  7.62
 N -0.29 -2.28  4.21
 C -0.06 -3.69  4.45
 H  0.49 -1.68  3.96
 H  0.68 -3.83  5.26
 H  0.31 -4.20  3.55
 H -1.01 -4.15  4.74
