35
#
 C  0.11  0.91 -0.20
 C  0.28  0.52  1.25
 O  1.39  0.36  1.75
 H -0.37  0.09 -0.77
 H  1.10  1.09 -0.62
 H -0.50  1.81 -0.33
 N -0.85  0.35  2.03
 C -2.27  0.39  1.69
 C -2.65 -0.74  0.69
 O -2.57 -1.90  1.10
 H -0.61 -0.02  2.94
 H -2.75 -0.00  2.59
 C -2.82  1.83  1.52
 C -3.13  2.49  2.88
 C -4.51  2.13  3.45
 N -4.71  0.70  3.74
 C -5.36 -0.13  2.85
 N -5.51 -1.43  3.35
 N -5.75  0.30  1.70
 H -3.76  1.80  0.95
 H -2.10  2.45  0.96
 H -3.11  3.58  2.76
 H -2.34  2.25  3.60
 H -5.29  2.44  2.75
 H -4.66  2.68  4.39
 H -4.79  0.44  4.71
 H -4.71 -1.77  3.87
 H -5.79 -2.10  2.64
 H -6.13 -0.46  1.13
 N -3.04 -0.50 -0.60
 C -3.38  0.72 -1.32
 H -3.29 -1.38 -1.06
 H -3.40  0.48 -2.39
 H -2.63  1.50 -1.17
 H -4.36  1.11 -1.03
