35
#
 C -1.12  2.44  2.44
 C -0.38  1.13  2.22
 O  0.71  0.90  2.74
 H -1.16  3.03  1.50
 H -0.57  3.02  3.18
 H -2.15  2.29  2.78
 N -0.99  0.19  1.42
 C -2.22  0.33  0.64
 C -3.49 -0.16  1.37
 O -4.59 -0.12  0.81
 H -0.41 -0.63  1.25
 H -2.40  1.40  0.47
 C -2.07 -0.31 -0.76
 C -1.74 -1.81 -0.82
 C -2.83 -2.77 -0.32
 N -4.15 -2.56 -0.88
 C -4.42 -2.94 -2.18
 N -5.67 -2.48 -2.63
 N -3.56 -3.62 -2.87
 H -1.28  0.25 -1.28
 H -3.00 -0.12 -1.30
 H -0.80 -2.04 -0.28
 H -1.54 -2.06 -1.87
 H -2.93 -2.71  0.78
 H -2.52 -3.80 -0.56
 H -4.65 -1.74 -0.53
 H -6.00 -2.94 -3.47
 H -6.39 -2.43 -1.91
 H -3.95 -3.90 -3.77
 N -3.31 -0.58  2.65
 C -4.39 -1.09  3.47
 H -2.36 -0.61  2.99
 H -4.40 -0.59  4.45
 H -4.30 -2.18  3.62
 H -5.33 -0.89  2.95
