35
#
 C -2.02  1.75  4.93
 C -1.45  0.35  4.82
 O -0.71 -0.13  5.68
 H -1.21  2.45  5.18
 H -2.73  1.77  5.76
 H -2.53  2.09  4.02
 N -1.82 -0.35  3.69
 C -1.55 -1.77  3.54
 C -0.52 -2.10  2.44
 O -0.37 -3.25  2.03
 H -2.54  0.05  3.11
 H -1.04 -2.06  4.48
 C -2.83 -2.61  3.43
 C -3.83 -2.22  2.33
 C -3.33 -2.37  0.88
 N -2.87 -3.69  0.52
 C -3.74 -4.73  0.27
 N -3.09 -5.97  0.21
 N -5.02 -4.70  0.11
 H -3.34 -2.56  4.40
 H -2.53 -3.66  3.29
 H -4.19 -1.18  2.47
 H -4.73 -2.84  2.46
 H -2.51 -1.66  0.69
 H -4.14 -2.07  0.19
 H -1.97 -3.93  0.94
 H -2.17 -5.95 -0.23
 H -3.70 -6.68 -0.18
 H -5.40 -3.76  0.28
 N  0.22 -1.05  2.00
 C  1.31 -1.18  1.06
 H  0.04 -0.15  2.44
 H  1.31 -2.22  0.69
 H  2.28 -0.98  1.53
 H  1.18 -0.50  0.21
