35
#
 C -3.37  1.73  0.38
 C -1.95  1.19  0.33
 O -1.04  1.80 -0.22
 H -4.13  0.96  0.17
 H -3.45  2.54 -0.35
 H -3.57  2.13  1.38
 N -1.71 -0.03  0.94
 C -2.64 -0.77  1.77
 C -2.89 -0.07  3.12
 O -1.98  0.47  3.74
 H -0.72 -0.19  1.09
 H -3.58 -0.87  1.22
 C -2.07 -2.17  2.08
 C -1.66 -3.05  0.89
 C -2.80 -3.66  0.06
 N -3.53 -2.70 -0.77
 C -4.80 -2.21 -0.53
 N -5.61 -3.03  0.26
 N -5.28 -1.09 -0.95
 H -2.81 -2.71  2.70
 H -1.19 -2.02  2.73
 H -1.06 -3.89  1.28
 H -0.99 -2.49  0.22
 H -3.52 -4.14  0.73
 H -2.38 -4.44 -0.59
 H -2.94 -2.04 -1.28
 H -5.56 -4.03  0.05
 H -6.56 -2.69  0.23
 H -4.57 -0.54 -1.43
 N -4.17 -0.09  3.60
 C -5.35 -0.67  2.96
 H -4.28  0.35  4.50
 H -6.21 -0.48  3.62
 H -5.27 -1.75  2.81
 H -5.57 -0.20  1.99
