35
#
 C  0.90  0.76 -0.15
 C -0.30  0.16  0.55
 O -1.23 -0.35 -0.05
 H  1.45 -0.04 -0.66
 H  1.59  1.30  0.51
 H  0.55  1.45 -0.93
 N -0.27  0.23  1.92
 C -1.30 -0.37  2.75
 C -2.71  0.25  2.68
 O -3.68 -0.49  2.88
 H  0.53  0.66  2.37
 H -1.47 -1.40  2.39
 C -0.85 -0.43  4.22
 C  0.36 -1.33  4.47
 C  0.68 -1.45  5.97
 N  1.85 -2.28  6.29
 C  1.90 -3.65  6.01
 N  0.68 -4.31  6.15
 N  2.94 -4.33  5.67
 H -1.71 -0.81  4.80
 H -0.66  0.59  4.59
 H  1.26 -0.94  3.95
 H  0.18 -2.33  4.06
 H -0.20 -1.85  6.50
 H  0.87 -0.46  6.41
 H  2.73 -1.83  6.10
 H  0.80 -5.31  6.10
 H  0.11 -4.02  6.95
 H  3.73 -3.71  5.46
 N -2.89  1.59  2.47
 C -1.93  2.66  2.26
 H -3.87  1.83  2.43
 H -2.46  3.61  2.41
 H -1.51  2.66  1.25
 H -1.11  2.62  2.99
