35
#
 C  0.27 -3.15 -0.32
 C  0.01 -2.26  0.88
 O  0.83 -1.41  1.25
 H  1.22 -3.68 -0.16
 H  0.40 -2.51 -1.20
 H -0.53 -3.88 -0.51
 N -1.18 -2.45  1.51
 C -1.66 -1.62  2.62
 C -1.04 -2.04  3.99
 O -1.73 -2.42  4.94
 H -1.78 -3.21  1.20
 H -1.28 -0.60  2.42
 C -3.19 -1.59  2.66
 C -3.88 -2.97  2.70
 C -5.10 -2.99  3.62
 N -4.68 -2.85  5.00
 C -5.56 -2.52  6.01
 N -4.92 -2.24  7.22
 N -6.85 -2.44  5.94
 H -3.54 -1.02  1.79
 H -3.47 -1.01  3.54
 H -3.18 -3.75  3.06
 H -4.20 -3.27  1.69
 H -5.66 -3.94  3.47
 H -5.79 -2.17  3.33
 H -3.69 -2.64  5.14
 H -4.09 -2.79  7.41
 H -5.58 -2.24  7.99
 H -7.18 -2.58  4.99
 N  0.30 -1.90  4.03
 C  1.09 -2.24  5.20
 H  0.76 -1.58  3.17
 H  0.41 -2.50  6.02
 H  1.71 -1.39  5.50
 H  1.75 -3.10  5.00
