35
#
 C -0.71  0.52 -0.37
 C -0.12 -0.02  0.92
 O  0.93  0.41  1.38
 H  0.04  1.14 -0.85
 H -1.59  1.14 -0.15
 H -1.03 -0.28 -1.06
 N -0.79 -1.05  1.54
 C -2.14 -1.50  1.27
 C -3.19 -0.41  1.60
 O -2.92  0.55  2.33
 H -0.41 -1.33  2.45
 H -2.22 -1.72  0.19
 C -2.40 -2.83  2.03
 C -3.02 -2.77  3.45
 C -2.38 -1.83  4.48
 N -0.92 -1.87  4.47
 C -0.15 -0.78  4.94
 N -0.65  0.46  4.61
 N  0.91 -1.06  5.61
 H -1.44 -3.35  2.07
 H -3.06 -3.46  1.42
 H -3.00 -3.80  3.83
 H -4.09 -2.50  3.38
 H -2.79 -2.07  5.48
 H -2.69 -0.80  4.27
 H -0.52 -2.72  4.87
 H  0.03  1.21  4.68
 H -1.24  0.54  3.78
 H  1.47 -0.23  5.79
 N -4.42 -0.53  1.03
 C -4.94 -1.61  0.21
 H -5.07  0.19  1.33
 H -5.81 -1.24 -0.35
 H -5.26 -2.48  0.80
 H -4.20 -1.94 -0.52
