35
#
 C -0.28 -0.47 -0.39
 C -0.33 -0.12  1.09
 O  0.18  0.91  1.53
 H  0.76 -0.43 -0.73
 H -0.84  0.29 -0.95
 H -0.70 -1.46 -0.62
 N -0.99 -1.01  1.88
 C -1.10 -0.84  3.31
 C -1.41 -2.23  3.90
 O -1.86 -3.14  3.20
 H -1.33 -1.90  1.53
 H -0.13 -0.48  3.69
 C -2.16  0.21  3.74
 C -3.64 -0.17  3.56
 C -4.10 -0.35  2.12
 N -5.55 -0.43  2.06
 C -6.20 -0.53  0.83
 N -7.57 -0.77  0.98
 N -5.69 -0.44 -0.35
 H -1.93  1.13  3.18
 H -1.99  0.45  4.80
 H -4.24  0.63  4.01
 H -3.86 -1.09  4.14
 H -3.63 -1.25  1.67
 H -3.78  0.52  1.52
 H -5.97 -1.00  2.79
 H -8.04 -0.70  0.08
 H -8.03 -0.19  1.69
 H -4.67 -0.41 -0.31
 N -1.20 -2.34  5.24
 C -1.49 -3.55  5.98
 H -0.79 -1.55  5.73
 H -2.22 -3.36  6.79
 H -0.58 -3.98  6.43
 H -1.92 -4.28  5.28
