35
#
 C  0.32 -0.11  0.10
 C  0.25 -0.22  1.61
 O  1.23 -0.46  2.30
 H  0.91  0.77 -0.16
 H -0.66 -0.03 -0.38
 H  0.85 -0.99 -0.29
 N -1.01 -0.05  2.16
 C -1.22  0.06  3.59
 C -2.12 -1.05  4.18
 O -2.62 -0.93  5.30
 H -1.75  0.26  1.54
 H -0.22 -0.12  4.03
 C -1.71  1.45  4.02
 C -3.05  1.86  3.43
 C -3.53  3.21  3.97
 N -4.78  3.60  3.34
 C -5.45  4.79  3.57
 N -4.64  5.84  4.01
 N -6.70  4.85  3.28
 H -0.93  2.18  3.75
 H -1.78  1.43  5.12
 H -3.81  1.09  3.66
 H -3.00  1.95  2.33
 H -2.77  3.97  3.75
 H -3.62  3.14  5.08
 H -5.44  2.85  3.16
 H -5.16  6.62  4.39
 H -3.83  5.60  4.58
 H -7.07  5.80  3.43
 N -2.29 -2.15  3.39
 C -3.00 -3.33  3.83
 H -1.79 -2.16  2.51
 H -2.32 -4.18  3.99
 H -3.77 -3.62  3.10
 H -3.49 -3.09  4.78
