35
#
 C -0.26 -0.37  2.18
 C -1.18 -0.08  3.35
 O -0.78 -0.12  4.51
 H -0.76 -0.83  1.32
 H  0.54 -1.03  2.54
 H  0.20  0.57  1.84
 N -2.48  0.27  3.09
 C -3.19  0.52  1.83
 C -3.35 -0.77  0.99
 O -2.72 -0.98 -0.04
 H -3.00  0.51  3.93
 H -4.20  0.80  2.15
 C -2.65  1.67  0.96
 C -2.12  2.91  1.69
 C -2.97  3.48  2.85
 N -4.41  3.57  2.59
 C -5.34  2.67  3.08
 N -5.01  2.10  4.32
 N -6.45  2.31  2.52
 H -3.46  1.95  0.28
 H -1.86  1.28  0.31
 H -1.97  3.70  0.94
 H -1.12  2.71  2.11
 H -2.59  4.48  3.10
 H -2.83  2.86  3.74
 H -4.66  3.96  1.69
 H -4.62  2.74  5.00
 H -5.82  1.61  4.69
 H -6.52  2.67  1.57
 N -4.26 -1.68  1.46
 C -5.09 -1.59  2.66
 H -4.30 -2.53  0.92
 H -5.83 -2.39  2.62
 H -5.63 -0.63  2.70
 H -4.50 -1.70  3.58
