35
#
 C -1.02  0.36 -0.04
 C -0.81  0.25  1.46
 O  0.32  0.26  1.97
 H -0.61  1.31 -0.39
 H -2.08  0.30 -0.33
 H -0.47 -0.45 -0.53
 N -1.94  0.16  2.21
 C -1.90 -0.10  3.64
 C -3.30 -0.61  4.02
 O -4.12 -0.92  3.14
 H -2.84 -0.07  1.79
 H -1.18 -0.92  3.82
 C -1.42  1.13  4.46
 C -0.53  0.71  5.63
 C -0.32  1.80  6.70
 N -1.52  2.47  7.19
 C -2.55  1.84  7.84
 N -3.51  2.74  8.32
 N -2.60  0.55  7.93
 H -2.30  1.69  4.81
 H -0.87  1.79  3.79
 H  0.46  0.43  5.24
 H -0.93 -0.18  6.14
 H  0.33  2.60  6.30
 H  0.21  1.35  7.56
 H -1.73  3.38  6.81
 H -4.25  2.31  8.86
 H -3.15  3.59  8.75
 H -3.34  0.26  8.57
 N -3.57 -0.74  5.34
 C -4.87 -1.21  5.78
 H -2.96 -0.35  6.06
 H -5.14 -2.13  5.25
 H -5.67 -0.48  5.60
 H -4.81 -1.42  6.86
