35
#
 C -0.22 -1.58 -0.39
 C -0.15 -0.86  0.95
 O  0.82 -1.02  1.70
 H -0.63 -2.59 -0.22
 H  0.80 -1.69 -0.77
 H -0.85 -1.09 -1.14
 N -1.21 -0.07  1.34
 C -2.24  0.52  0.48
 C -3.18 -0.52 -0.16
 O -3.75 -0.32 -1.23
 H -1.00  0.51  2.18
 H -2.89  1.07  1.19
 C -1.74  1.57 -0.53
 C -1.31  2.89  0.13
 C  0.09  2.86  0.79
 N  0.22  3.70  1.97
 C -0.30  3.30  3.18
 N -0.19  4.28  4.17
 N -0.86  2.14  3.33
 H -2.58  1.76 -1.22
 H -0.93  1.16 -1.15
 H -2.05  3.15  0.90
 H -1.33  3.70 -0.61
 H  0.86  3.18  0.07
 H  0.36  1.84  1.10
 H  0.23  4.70  1.82
 H -0.43  3.96  5.10
 H  0.69  4.80  4.17
 H -1.07  1.95  4.31
 N -3.37 -1.63  0.61
 C -4.24 -2.72  0.21
 H -2.80 -1.71  1.44
 H -4.98 -2.95  0.99
 H -3.66 -3.64 -0.01
 H -4.76 -2.42 -0.71
