35
#
 C  0.23  0.51 -0.04
 C -0.44 -0.60  0.74
 O -0.18 -1.79  0.53
 H  1.32  0.44  0.11
 H -0.10  1.51  0.25
 H  0.04  0.36 -1.11
 N -1.34 -0.21  1.69
 C -2.04 -1.15  2.56
 C -3.28 -1.74  1.83
 O -4.44 -1.41  2.12
 H -1.59  0.77  1.76
 H -1.33 -1.98  2.75
 C -2.43 -0.47  3.86
 C -3.05 -1.43  4.89
 C -4.09 -0.76  5.79
 N -5.22 -0.29  4.99
 C -5.86  0.91  5.23
 N -5.87  1.28  6.59
 N -6.35  1.58  4.25
 H -3.16  0.32  3.63
 H -1.55  0.02  4.28
 H -2.26 -1.87  5.53
 H -3.53 -2.28  4.38
 H -3.63  0.09  6.32
 H -4.41 -1.49  6.55
 H -5.20 -0.53  4.00
 H -6.49  2.06  6.79
 H -6.01  0.52  7.25
 H -6.92  2.37  4.59
 N -2.96 -2.63  0.86
 C -3.95 -3.22 -0.02
 H -1.96 -2.72  0.64
 H -3.78 -4.31 -0.11
 H -3.92 -2.78 -1.03
 H -4.94 -3.05  0.41
