35
#
 C -1.55 -0.18 -2.58
 C -0.55  0.59 -1.74
 O  0.41  1.15 -2.28
 H -1.70  0.37 -3.51
 H -2.51 -0.38 -2.09
 H -1.11 -1.16 -2.82
 N -0.67  0.64 -0.37
 C -1.82  0.37  0.48
 C -2.10 -1.15  0.62
 O -1.70 -1.98 -0.18
 H  0.00  1.29  0.04
 H -1.49  0.70  1.48
 C -3.10  1.19  0.12
 C -3.34  2.45  0.96
 C -2.16  3.42  1.09
 N -1.59  3.84 -0.18
 C -0.23  3.79 -0.41
 N  0.15  4.35 -1.63
 N  0.57  3.27  0.47
 H -3.99  0.55  0.18
 H -3.01  1.48 -0.94
 H -3.64  2.18  1.98
 H -4.20  2.98  0.53
 H -1.33  2.97  1.65
 H -2.48  4.30  1.68
 H -2.10  4.52 -0.72
 H  1.05  4.02 -1.94
 H -0.53  4.19 -2.37
 H  1.53  3.24  0.11
 N -2.84 -1.53  1.71
 C -3.38 -0.73  2.79
 H -3.02 -2.53  1.73
 H -2.67  0.04  3.11
 H -3.57 -1.38  3.65
 H -4.33 -0.23  2.52
