35
#
 C -1.33 -0.05 -0.15
 C -0.87 -0.06  1.29
 O  0.32  0.08  1.60
 H -0.80 -0.84 -0.70
 H -1.03  0.91 -0.60
 H -2.41 -0.18 -0.27
 N -1.84 -0.25  2.22
 C -1.60 -0.19  3.66
 C -1.08 -1.55  4.21
 O -1.76 -2.27  4.94
 H -2.80 -0.39  1.91
 H -0.80  0.55  3.81
 C -2.87  0.26  4.38
 C -3.31  1.68  4.02
 C -4.71  2.01  4.56
 N -5.24  3.29  4.11
 C -5.72  3.42  2.82
 N -6.07  4.75  2.52
 N -5.79  2.41  2.02
 H -2.71  0.16  5.46
 H -3.68 -0.46  4.15
 H -3.33  1.81  2.93
 H -2.58  2.41  4.41
 H -4.72  2.01  5.66
 H -5.41  1.24  4.22
 H -4.79  4.11  4.48
 H -6.57  4.85  1.64
 H -6.53  5.25  3.28
 H -6.29  2.65  1.16
 N  0.18 -1.84  3.78
 C  0.84 -3.09  4.09
 H  0.59 -1.19  3.10
 H  1.85 -2.91  4.48
 H  0.91 -3.74  3.20
 H  0.25 -3.61  4.85
