35
#
 C -0.19 -0.87 -0.83
 C -1.05 -0.72  0.41
 O -2.27 -0.58  0.35
 H -0.38 -1.87 -1.25
 H  0.88 -0.75 -0.65
 H -0.52 -0.13 -1.58
 N -0.36 -0.81  1.60
 C -0.97 -0.62  2.92
 C  0.08 -0.75  4.03
 O -0.02 -0.10  5.07
 H  0.64 -0.71  1.54
 H -1.36  0.41  3.01
 C -2.15 -1.58  3.19
 C -1.83 -3.08  3.07
 C -3.03 -3.90  2.56
 N -3.33 -3.71  1.14
 C -2.49 -4.17  0.13
 N -1.81 -5.35  0.44
 N -2.29 -3.61 -1.01
 H -2.94 -1.30  2.48
 H -2.53 -1.35  4.19
 H -1.49 -3.48  4.03
 H -1.01 -3.24  2.35
 H -3.93 -3.64  3.13
 H -2.84 -4.97  2.75
 H -3.68 -2.77  0.93
 H -1.38 -5.73 -0.41
 H -2.35 -6.05  0.93
 H -2.74 -2.69 -1.05
 N  1.10 -1.64  3.80
 C  2.08 -1.95  4.82
 H  0.99 -2.28  3.02
 H  2.21 -1.07  5.45
 H  3.04 -2.21  4.35
 H  1.76 -2.78  5.46
