35
#
 C  0.16  0.88  0.46
 C  0.19 -0.40  1.28
 O  1.27 -0.86  1.66
 H -0.31  1.70  1.01
 H -0.39  0.76 -0.49
 H  1.20  1.15  0.24
 N -0.97 -1.05  1.64
 C -2.41 -0.96  1.34
 C -2.92 -2.20  0.57
 O -3.89 -2.81  1.02
 H -0.73 -1.87  2.19
 H -2.92 -1.07  2.31
 C -2.89  0.37  0.75
 C -4.42  0.58  0.76
 C -5.24 -0.17 -0.30
 N -4.75  0.03 -1.64
 C -4.57 -0.96 -2.59
 N -3.97 -0.47 -3.77
 N -4.81 -2.22 -2.50
 H -2.52  0.51 -0.27
 H -2.45  1.18  1.36
 H -4.60  1.66  0.63
 H -4.83  0.33  1.75
 H -6.30  0.15 -0.21
 H -5.23 -1.25 -0.08
 H -4.44  0.96 -1.89
 H -4.36  0.41 -4.11
 H -4.01 -1.18 -4.49
 H -5.17 -2.48 -1.58
 N -2.31 -2.60 -0.58
 C -1.31 -1.93 -1.39
 H -2.83 -3.34 -1.04
 H -1.62 -0.93 -1.71
 H -1.17 -2.53 -2.30
 H -0.34 -1.87 -0.88
