35
#
 C  0.35 -0.98  0.66
 C -0.09 -0.95  2.11
 O  0.58 -1.50  3.00
 H  1.39 -1.32  0.63
 H  0.27  0.00  0.18
 H -0.26 -1.69  0.09
 N -1.24 -0.29  2.42
 C -2.37 -0.06  1.52
 C -3.12  1.25  1.86
 O -4.25  1.46  1.40
 H -1.56 -0.45  3.40
 H -1.97  0.11  0.51
 C -3.33 -1.26  1.44
 C -4.08 -1.67  2.72
 C -3.26 -2.22  3.89
 N -2.70 -1.14  4.74
 C -1.89 -1.49  5.86
 N -0.82 -2.30  5.54
 N -2.08 -1.09  7.07
 H -2.76 -2.12  1.07
 H -4.08 -1.02  0.68
 H -4.80 -2.45  2.43
 H -4.70 -0.82  3.07
 H -2.43 -2.84  3.53
 H -3.90 -2.88  4.51
 H -3.44 -0.51  5.04
 H -0.21 -2.44  6.33
 H -0.32 -2.08  4.67
 H -2.99 -0.62  7.16
 N -2.45  2.12  2.65
 C -2.97  3.41  3.03
 H -1.52  1.83  2.95
 H -4.00  3.48  2.64
 H -2.38  4.23  2.59
 H -2.98  3.53  4.12
