35
#
 C  0.26  0.76 -0.32
 C  0.22  0.74  1.20
 O  1.07  1.30  1.89
 H  0.29  1.80 -0.66
 H -0.59  0.25 -0.79
 H  1.19  0.28 -0.65
 N -0.83  0.06  1.74
 C -1.00 -0.11  3.17
 C -1.96 -1.30  3.36
 O -2.66 -1.72  2.43
 H -1.49 -0.47  1.17
 H -0.02 -0.34  3.60
 C -1.52  1.17  3.89
 C -2.98  1.57  3.63
 C -3.30  2.02  2.20
 N -4.61  2.67  2.17
 C -5.20  3.09  0.99
 N -4.29  3.57  0.04
 N -6.48  3.00  0.86
 H -0.84  1.98  3.61
 H -1.39  1.02  4.97
 H -3.21  2.41  4.30
 H -3.66  0.75  3.92
 H -3.26  1.16  1.51
 H -2.52  2.73  1.88
 H -5.31  2.21  2.74
 H -4.72  4.09 -0.72
 H -3.46  4.03  0.40
 H -6.80  3.45  0.01
 N -1.99 -1.81  4.62
 C -2.88 -2.89  5.00
 H -1.36 -1.42  5.31
 H -3.55 -2.58  5.82
 H -2.31 -3.77  5.33
 H -3.48 -3.16  4.13
