35
#
 C -0.05  1.63 -0.57
 C  0.48  0.86  0.62
 O  1.68  0.78  0.85
 H  0.72  1.62 -1.35
 H -0.22  2.68 -0.28
 H -0.98  1.22 -0.98
 N -0.41  0.23  1.47
 C -1.87  0.17  1.53
 C -2.52 -0.88  0.60
 O -3.74 -1.09  0.66
 H  0.09 -0.20  2.25
 H -2.08 -0.25  2.53
 C -2.59  1.57  1.50
 C -3.53  1.87  0.33
 C -3.98  3.33  0.28
 N -2.93  4.28 -0.08
 C -2.01  4.80  0.82
 N -2.55  5.17  2.05
 N -0.77  4.88  0.46
 H -1.79  2.32  1.55
 H -3.16  1.68  2.43
 H -4.41  1.22  0.39
 H -3.05  1.62 -0.64
 H -4.40  3.63  1.25
 H -4.79  3.44 -0.45
 H -2.45  4.06 -0.95
 H -1.92  5.70  2.64
 H -3.48  5.58  2.02
 H -0.21  5.42  1.13
 N -1.68 -1.54 -0.23
 C -2.12 -2.60 -1.11
 H -0.69 -1.35 -0.13
 H -1.82 -2.40 -2.15
 H -3.21 -2.65 -1.05
 H -1.71 -3.58 -0.80
