35
#
 C -1.28 -1.10  0.73
 C -0.75 -0.42  1.97
 O  0.44 -0.11  2.10
 H -2.20 -1.67  0.93
 H -0.51 -1.77  0.33
 H -1.49 -0.35 -0.04
 N -1.70 -0.13  2.91
 C -1.33  0.47  4.19
 C -0.88 -0.63  5.18
 O -1.58 -1.04  6.12
 H -2.57 -0.66  2.85
 H -0.42  1.05  3.96
 C -2.37  1.47  4.74
 C -3.88  1.25  4.53
 C -4.58  0.19  5.39
 N -4.24 -1.20  5.08
 C -4.45 -1.75  3.83
 N -5.56 -1.27  3.14
 N -3.69 -2.62  3.24
 H -2.13  2.44  4.28
 H -2.16  1.59  5.82
 H -4.09  1.06  3.47
 H -4.36  2.21  4.75
 H -5.67  0.33  5.31
 H -4.33  0.33  6.45
 H -3.34 -1.46  5.50
 H -6.37 -1.04  3.71
 H -5.79 -1.86  2.35
 H -2.87 -2.83  3.81
 N  0.35 -1.11  4.90
 C  0.95 -2.23  5.61
 H  0.79 -0.76  4.05
 H  0.35 -2.42  6.51
 H  1.98 -2.00  5.90
 H  0.95 -3.14  4.99
