35
#
 C -0.18 -1.30  0.04
 C -0.10 -1.08  1.54
 O  0.82 -1.55  2.22
 H -0.18 -2.38 -0.16
 H  0.72 -0.88 -0.43
 H -1.07 -0.84 -0.42
 N -1.09 -0.32  2.08
 C -1.23 -0.12  3.51
 C -2.72  0.15  3.78
 O -3.52  0.32  2.86
 H -1.93 -0.08  1.54
 H -0.94 -1.05  4.01
 C -0.28  0.99  4.04
 C -0.44  2.39  3.44
 C -1.69  3.16  3.90
 N -1.68  4.57  3.54
 C -0.94  5.48  4.28
 N -0.89  6.75  3.68
 N -0.36  5.11  5.38
 H  0.74  0.63  3.85
 H -0.38  1.05  5.14
 H -0.43  2.32  2.34
 H  0.43  2.98  3.74
 H -1.77  3.12  5.00
 H -2.61  2.73  3.48
 H -1.72  4.77  2.55
 H -0.51  7.46  4.29
 H -1.77  7.04  3.25
 H  0.04  5.92  5.86
 N -3.07  0.19  5.09
 C -4.40  0.56  5.53
 H -2.33  0.11  5.78
 H -4.72 -0.08  6.36
 H -5.08  0.44  4.69
 H -4.43  1.61  5.86
