35
#
 C  0.26 -1.01  0.08
 C  0.06  0.01  1.18
 O  0.81  0.98  1.31
 H  0.19 -0.50 -0.89
 H -0.46 -1.84  0.09
 H  1.27 -1.42  0.16
 N -1.01 -0.25  2.01
 C -1.48  0.51  3.18
 C -2.68  1.42  2.79
 O -3.82  1.04  3.07
 H -1.59 -1.03  1.75
 H -1.99 -0.25  3.79
 C -0.37  1.11  4.06
 C -0.77  1.25  5.54
 C -1.91  2.23  5.85
 N -1.70  3.57  5.30
 C -0.93  4.49  5.98
 N -0.99  5.77  5.40
 N -0.28  4.15  7.04
 H -0.02  2.07  3.68
 H  0.49  0.43  4.01
 H  0.12  1.58  6.10
 H -1.05  0.27  5.95
 H -2.03  2.29  6.94
 H -2.86  1.86  5.44
 H -2.49  3.96  4.80
 H -0.28  6.41  5.75
 H -1.00  5.77  4.38
 H  0.31  4.92  7.37
 N -2.49  2.59  2.12
 C -1.28  3.30  1.73
 H -3.38  3.04  1.92
 H -1.47  3.81  0.78
 H -0.45  2.61  1.58
 H -0.99  4.05  2.48
