35
#
 C -0.19 -0.45  0.47
 C  0.07 -0.12  1.94
 O  1.08 -0.52  2.52
 H  0.61 -1.12  0.13
 H -0.18  0.45 -0.15
 H -1.16 -0.95  0.32
 N -0.85  0.66  2.57
 C -2.12  1.15  2.07
 C -2.41  2.47  2.81
 O -2.15  2.60  4.00
 H -0.65  0.89  3.55
 H -2.03  1.34  0.99
 C -3.26  0.13  2.31
 C -4.60  0.51  1.67
 C -5.67 -0.59  1.75
 N -6.14 -0.93  3.08
 C -5.44 -1.69  4.01
 N -4.80 -2.82  3.50
 N -5.52 -1.37  5.25
 H -3.38  0.01  3.40
 H -2.92 -0.83  1.92
 H -4.44  0.75  0.60
 H -5.00  1.42  2.13
 H -5.31 -1.50  1.24
 H -6.55 -0.27  1.16
 H -6.61 -0.17  3.57
 H -4.64 -2.87  2.50
 H -4.01 -3.15  4.04
 H -5.11 -2.07  5.86
 N -2.97  3.45  2.05
 C -3.37  4.74  2.59
 H -3.13  3.26  1.06
 H -3.12  4.74  3.65
 H -4.45  4.90  2.47
 H -2.83  5.56  2.10
