35
#
 C -3.17  2.28 -0.02
 C -1.99  1.91  0.86
 O -1.14  2.73  1.19
 H -3.20  1.69 -0.94
 H -3.08  3.34 -0.28
 H -4.13  2.14  0.50
 N -1.91  0.61  1.29
 C -2.78 -0.52  0.96
 C -2.93 -1.42  2.20
 O -2.54 -2.59  2.22
 H -1.07  0.42  1.83
 H -3.78 -0.11  0.74
 C -2.33 -1.31 -0.29
 C -0.86 -1.74 -0.30
 C -0.48 -2.48 -1.58
 N -0.59 -1.61 -2.74
 C -0.52 -2.02 -4.06
 N -0.84 -3.36 -4.29
 N -0.25 -1.13 -4.96
 H -2.54 -0.70 -1.17
 H -2.97 -2.20 -0.36
 H -0.21 -0.86 -0.20
 H -0.66 -2.40  0.55
 H -1.17 -3.33 -1.71
 H  0.54 -2.89 -1.47
 H -0.22 -0.67 -2.64
 H -0.57 -3.69 -5.21
 H -0.62 -4.02 -3.56
 H -0.28 -1.53 -5.90
 N -3.52 -0.85  3.30
 C -4.08  0.48  3.46
 H -3.56 -1.48  4.10
 H -4.70  0.76  2.59
 H -3.31  1.25  3.59
 H -4.73  0.48  4.33
