35
#
 C -0.32 -0.53  0.19
 C -0.29 -0.74  1.69
 O  0.73 -0.59  2.36
 H  0.59 -0.97 -0.24
 H -0.30  0.55 -0.02
 H -1.21 -0.97 -0.30
 N -1.51 -1.05  2.24
 C -1.75 -1.39  3.64
 C -0.72 -0.81  4.64
 O -0.07 -1.54  5.38
 H -2.24 -1.34  1.58
 H -2.71 -0.91  3.92
 C -1.94 -2.90  3.85
 C -0.78 -3.78  3.34
 C -1.24 -5.08  2.67
 N -2.20 -4.91  1.56
 C -1.97 -4.01  0.52
 N -0.67 -3.98  0.07
 N -2.85 -3.23 -0.03
 H -2.87 -3.17  3.32
 H -2.12 -3.09  4.91
 H -0.10 -4.02  4.16
 H -0.18 -3.22  2.61
 H -1.74 -5.74  3.39
 H -0.36 -5.64  2.31
 H -3.16 -4.87  1.87
 H -0.57 -3.49 -0.82
 H -0.14 -4.84  0.13
 H -3.75 -3.29  0.46
 N -0.70  0.55  4.80
 C -1.25  1.57  3.93
 H  0.04  0.84  5.43
 H -1.35  2.50  4.49
 H -2.26  1.28  3.59
 H -0.63  1.75  3.04
