35
#
 C -0.12  0.14  0.06
 C  0.08 -0.16  1.53
 O  1.14 -0.60  1.96
 H -0.02 -0.80 -0.51
 H  0.69  0.80 -0.27
 H -1.08  0.60 -0.19
 N -1.02  0.10  2.31
 C -1.25 -0.15  3.74
 C -1.27  1.14  4.60
 O -2.28  1.38  5.28
 H -1.82  0.49  1.83
 H -2.31 -0.47  3.81
 C -0.43 -1.31  4.35
 C -0.90 -1.72  5.75
 C -0.24 -0.95  6.90
 N -0.71 -1.33  8.23
 C -0.50 -2.59  8.78
 N  0.71 -3.18  8.42
 N -1.29 -3.23  9.58
 H  0.64 -1.07  4.36
 H -0.53 -2.16  3.66
 H -0.68 -2.79  5.89
 H -2.00 -1.62  5.83
 H -0.43  0.13  6.80
 H  0.85 -1.08  6.84
 H -1.63 -0.96  8.45
 H  0.88 -4.01  8.98
 H  1.51 -2.55  8.39
 H -2.20 -2.76  9.65
 N -0.20  1.98  4.62
 C  1.06  1.92  3.90
 H -0.37  2.79  5.20
 H  1.87  2.26  4.57
 H  1.06  2.56  3.01
 H  1.30  0.90  3.58
