35
#
 C -0.31  0.12  0.19
 C  0.01 -0.01  1.67
 O  1.16  0.04  2.09
 H -0.43  1.18 -0.06
 H -1.22 -0.41 -0.12
 H  0.55 -0.26 -0.37
 N -1.04 -0.18  2.55
 C -2.48 -0.06  2.33
 C -3.07 -1.22  1.48
 O -4.11 -1.08  0.83
 H -0.72 -0.14  3.52
 H -2.93 -0.20  3.33
 C -2.98  1.30  1.81
 C -2.47  2.48  2.63
 C -3.03  3.84  2.17
 N -4.46  4.06  2.39
 C -5.48  3.44  1.68
 N -5.31  3.37  0.30
 N -6.53  3.06  2.33
 H -4.07  1.25  1.82
 H -2.69  1.42  0.75
 H -1.37  2.54  2.59
 H -2.74  2.34  3.69
 H -2.80  4.00  1.10
 H -2.50  4.65  2.69
 H -4.72  4.10  3.37
 H -5.77  2.59 -0.15
 H -4.37  3.53 -0.06
 H -7.28  2.77  1.70
 N -2.39 -2.39  1.56
 C -2.80 -3.60  0.88
 H -1.51 -2.38  2.08
 H -2.93 -4.43  1.58
 H -2.07 -3.89  0.11
 H -3.76 -3.39  0.39
