35
#
 C  1.50  0.37  2.39
 C  0.55  0.55  3.55
 O  0.97  0.83  4.67
 H  1.99  1.34  2.19
 H  1.06 -0.04  1.49
 H  2.29 -0.32  2.73
 N -0.82  0.41  3.38
 C -1.74  0.18  2.27
 C -1.53 -1.19  1.57
 O -0.47 -1.80  1.59
 H -1.28  0.56  4.28
 H -2.71  0.09  2.78
 C -1.94  1.38  1.31
 C -0.83  1.83  0.36
 C -0.46  0.86 -0.79
 N -1.59  0.31 -1.54
 C -2.57  1.08 -2.13
 N -2.10  2.24 -2.74
 N -3.81  0.70 -2.06
 H -2.18  2.24  1.96
 H -2.85  1.20  0.72
 H  0.09  2.07  0.91
 H -1.17  2.78 -0.09
 H  0.09 -0.00 -0.41
 H  0.23  1.38 -1.47
 H -2.01 -0.51 -1.10
 H -1.17  2.18 -3.16
 H -2.76  2.71 -3.34
 H -4.41  1.26 -2.66
 N -2.62 -1.71  0.92
 C -4.01 -1.25  0.87
 H -2.42 -2.62  0.51
 H -4.66 -2.13  0.74
 H -4.20 -0.56  0.04
 H -4.30 -0.77  1.82
