35
#
 C -0.12 -1.25 -0.32
 C  0.28 -0.56  0.97
 O  1.45 -0.51  1.32
 H -0.08 -2.34 -0.15
 H  0.64 -1.01 -1.08
 H -1.11 -1.00 -0.71
 N -0.71 -0.06  1.80
 C -2.10  0.32  1.53
 C -2.96 -0.83  0.96
 O -3.85 -0.63  0.14
 H -0.29  0.39  2.61
 H -2.53  0.49  2.53
 C -2.28  1.65  0.78
 C -1.70  1.76 -0.63
 C -1.87  3.15 -1.24
 N -1.08  4.14 -0.52
 C -1.26  5.50 -0.74
 N -0.30  6.27 -0.08
 N -2.16  6.09 -1.45
 H -1.85  2.45  1.41
 H -3.36  1.85  0.73
 H -2.19  1.03 -1.29
 H -0.62  1.51 -0.63
 H -2.93  3.45 -1.17
 H -1.62  3.12 -2.31
 H -0.11  3.87 -0.37
 H -0.52  7.26 -0.14
 H -0.11  5.99  0.88
 H -2.70  5.42 -2.00
 N -2.70 -2.05  1.51
 C -3.39 -3.25  1.11
 H -1.90 -2.11  2.12
 H -3.75 -3.81  1.99
 H -2.75 -3.92  0.51
 H -4.25 -2.96  0.50
