35
#
 C -0.39  0.24 -0.09
 C -0.27 -0.11  1.38
 O  0.82 -0.31  1.90
 H  0.41 -0.27 -0.65
 H -0.24  1.32 -0.19
 H -1.36 -0.02 -0.53
 N -1.48 -0.20  2.04
 C -1.66 -0.13  3.49
 C -1.05  1.22  4.00
 O -0.51  1.99  3.22
 H -2.27  0.13  1.50
 H -2.75  0.01  3.62
 C -1.37 -1.47  4.21
 C  0.03 -2.11  4.23
 C  1.06 -1.50  5.19
 N  1.48 -0.17  4.80
 C  1.82  0.85  5.65
 N  1.90  0.48  7.01
 N  1.98  2.10  5.36
 H -2.04 -2.19  3.72
 H -1.73 -1.39  5.24
 H  0.45 -2.14  3.22
 H -0.11 -3.15  4.54
 H  1.92 -2.20  5.24
 H  0.64 -1.45  6.20
 H  1.44  0.04  3.80
 H  2.29  1.26  7.54
 H  2.42 -0.38  7.18
 H  1.76  2.27  4.37
 N -1.23  1.58  5.31
 C -1.81  0.86  6.42
 H -0.66  2.39  5.54
 H -2.08  1.59  7.20
 H -1.11  0.14  6.87
 H -2.73  0.34  6.13
