35
#
 C -0.21 -0.78 -0.33
 C -0.19  0.06  0.93
 O  0.29  1.20  0.96
 H  0.82 -0.89 -0.69
 H -0.77 -0.24 -1.10
 H -0.65 -1.77 -0.19
 N -0.75 -0.52  2.03
 C -0.75  0.13  3.33
 C -0.82 -0.99  4.38
 O -1.30 -2.10  4.11
 H -1.06 -1.49  2.03
 H  0.19  0.69  3.43
 C -1.92  1.14  3.48
 C -3.32  0.52  3.48
 C -3.85  0.22  4.89
 N -5.05 -0.60  4.91
 C -5.16 -1.88  5.43
 N -3.95 -2.53  5.67
 N -6.26 -2.49  5.73
 H -1.81  1.84  2.64
 H -1.76  1.74  4.39
 H -3.33 -0.41  2.90
 H -4.03  1.19  2.98
 H -4.05  1.17  5.42
 H -3.10 -0.30  5.50
 H -5.94 -0.13  4.78
 H -3.21 -2.44  4.97
 H -4.12 -3.49  5.93
 H -7.07 -1.87  5.64
 N -0.37 -0.67  5.61
 C -0.47 -1.59  6.74
 H  0.02  0.25  5.76
 H -1.52 -1.76  7.02
 H  0.07 -1.16  7.59
 H -0.02 -2.55  6.48
