35
#
 C  0.11  0.86  0.07
 C  0.21  0.19  1.43
 O  1.28 -0.02  1.98
 H  1.11  1.19 -0.22
 H -0.58  1.72  0.08
 H -0.26  0.16 -0.69
 N -0.98 -0.17  2.03
 C -2.33 -0.11  1.49
 C -3.09  1.19  1.81
 O -4.20  1.39  1.32
 H -0.84 -0.68  2.90
 H -2.27 -0.14  0.39
 C -3.15 -1.32  1.95
 C -2.66 -2.65  1.36
 C -3.44 -3.85  1.90
 N -2.94 -5.09  1.33
 C -3.68 -6.25  1.44
 N -3.06 -7.37  0.87
 N -4.87 -6.22  1.95
 H -4.19 -1.14  1.65
 H -3.14 -1.36  3.05
 H -1.59 -2.78  1.58
 H -2.75 -2.62  0.26
 H -4.51 -3.78  1.63
 H -3.41 -3.86  3.00
 H -1.93 -5.20  1.37
 H -3.31 -8.25  1.29
 H -2.07 -7.29  0.65
 H -5.33 -7.12  1.84
 N -2.45  2.06  2.64
 C -3.02  3.33  3.04
 H -1.53  1.79  2.96
 H -4.01  3.42  2.57
 H -2.39  4.17  2.71
 H -3.14  3.39  4.13
