35
#
 C  0.34  1.77  1.47
 C  0.02  0.29  1.52
 O  0.88 -0.58  1.62
 H  1.41  1.87  1.32
 H  0.06  2.25  2.42
 H -0.21  2.29  0.68
 N -1.31 -0.07  1.46
 C -2.48  0.79  1.38
 C -2.67  1.75  2.58
 O -2.94  2.94  2.35
 H -1.46 -1.08  1.49
 H -2.38  1.48  0.53
 C -3.72 -0.09  1.13
 C -5.02  0.62  0.71
 C -5.76  1.43  1.79
 N -6.03  0.66  2.98
 C -5.91  1.12  4.28
 N -6.29  0.16  5.23
 N -5.45  2.25  4.70
 H -3.91 -0.71  2.02
 H -3.44 -0.78  0.32
 H -5.70 -0.15  0.32
 H -4.82  1.29 -0.13
 H -6.70  1.82  1.34
 H -5.16  2.31  2.07
 H -6.42 -0.27  2.86
 H -6.32  0.58  6.15
 H -7.16 -0.33  5.02
 H -5.12  2.84  3.93
 N -2.53  1.30  3.86
 C -2.48 -0.06  4.37
 H -2.83  2.01  4.53
 H -3.47 -0.55  4.34
 H -2.15 -0.03  5.41
 H -1.76 -0.66  3.81
