35
#
 C  0.28  1.30 -0.05
 C -0.11  0.57  1.22
 O  0.61  0.54  2.21
 H -0.49  1.28 -0.83
 H  1.20  0.85 -0.44
 H  0.51  2.34  0.20
 N -1.34 -0.05  1.18
 C -1.78 -0.95  2.22
 C -2.37 -2.18  1.52
 O -2.78 -2.10  0.36
 H -1.81 -0.18  0.29
 H -0.88 -1.22  2.81
 C -2.83 -0.32  3.16
 C -2.32  0.91  3.90
 C -3.34  1.55  4.85
 N -4.55  2.05  4.22
 C -5.73  1.33  4.13
 N -6.68  1.97  3.34
 N -6.03  0.19  4.66
 H -3.16 -1.08  3.88
 H -3.72 -0.07  2.55
 H -1.99  1.67  3.17
 H -1.42  0.65  4.48
 H -2.85  2.39  5.37
 H -3.64  0.85  5.63
 H -4.41  2.72  3.47
 H -7.58  1.49  3.39
 H -6.78  2.97  3.51
 H -5.21 -0.25  5.10
 N -2.46 -3.35  2.22
 C -2.05 -3.62  3.59
 H -2.94 -4.08  1.71
 H -1.74 -4.67  3.67
 H -2.85 -3.43  4.31
 H -1.18 -3.00  3.86
