35
#
 C  0.03 -0.39  0.71
 C -0.44 -0.51  2.15
 O  0.25 -1.07  3.00
 H -0.54 -1.06  0.05
 H  1.08 -0.69  0.68
 H -0.07  0.63  0.32
 N -1.64  0.06  2.47
 C -2.69  0.44  1.55
 C -3.65  1.40  2.28
 O -3.79  1.36  3.50
 H -1.92 -0.03  3.45
 H -2.23  0.98  0.70
 C -3.47 -0.78  0.94
 C -4.56 -1.45  1.78
 C -4.22 -1.95  3.19
 N -2.97 -2.68  3.25
 C -2.38 -2.99  4.47
 N -1.12 -3.57  4.31
 N -2.86 -2.79  5.65
 H -2.71 -1.52  0.65
 H -3.93 -0.44  0.00
 H -4.94 -2.30  1.18
 H -5.42 -0.77  1.89
 H -5.08 -2.55  3.55
 H -4.13 -1.09  3.87
 H -2.76 -3.32  2.50
 H -0.71 -3.75  5.22
 H -0.49 -2.98  3.75
 H -3.84 -2.50  5.61
 N -4.35  2.23  1.46
 C -5.36  3.15  1.95
 H -4.14  2.22  0.47
 H -6.33  2.96  1.49
 H -5.07  4.19  1.76
 H -5.44  3.01  3.03
