35
#
 C -1.43  2.21  1.19
 C -0.67  1.01  1.72
 O  0.55  1.00  1.87
 H -0.73  3.04  1.10
 H -2.27  2.49  1.85
 H -1.84  1.97  0.20
 N -1.42 -0.10  2.09
 C -2.72 -0.47  1.54
 C -3.93  0.16  2.26
 O -5.04  0.16  1.74
 H -0.81 -0.86  2.36
 H -2.79 -0.14  0.50
 C -2.91 -2.01  1.62
 C -1.81 -2.90  1.03
 C -1.73 -3.01 -0.50
 N -1.55 -1.78 -1.27
 C -0.55 -0.85 -1.10
 N  0.67 -1.32 -0.64
 N -0.80  0.38 -1.44
 H -3.88 -2.23  1.15
 H -3.03 -2.27  2.69
 H -1.97 -3.92  1.41
 H -0.83 -2.61  1.43
 H -2.66 -3.47 -0.88
 H -0.93 -3.73 -0.76
 H -2.39 -1.35 -1.65
 H  1.19 -0.66 -0.06
 H  0.71 -2.27 -0.28
 H  0.05  0.94 -1.40
 N -3.66  0.66  3.50
 C -4.68  1.28  4.33
 H -2.69  0.64  3.80
 H -4.44  2.34  4.53
 H -4.77  0.75  5.29
 H -5.63  1.22  3.80
