35
#
 C  1.27 -2.28  2.64
 C  0.62 -0.92  2.47
 O  1.12 -0.06  1.75
 H  2.17 -2.15  3.25
 H  1.59 -2.62  1.65
 H  0.64 -3.04  3.10
 N -0.51 -0.60  3.21
 C -1.49 -1.45  3.89
 C -0.87 -2.37  4.98
 O -1.35 -3.47  5.23
 H -0.84  0.34  2.97
 H -2.10 -0.74  4.49
 C -2.50 -2.18  2.98
 C -1.93 -3.11  1.91
 C -3.03 -3.74  1.04
 N -3.87 -4.73  1.69
 C -3.46 -6.04  1.89
 N -4.37 -6.77  2.66
 N -2.39 -6.62  1.46
 H -3.11 -1.41  2.49
 H -3.16 -2.75  3.65
 H -1.34 -3.92  2.38
 H -1.26 -2.56  1.24
 H -2.58 -4.23  0.16
 H -3.69 -2.95  0.64
 H -4.50 -4.38  2.42
 H -4.10 -7.75  2.69
 H -5.34 -6.65  2.40
 H -1.74 -5.95  1.03
 N  0.16 -1.81  5.67
 C  0.87 -2.51  6.72
 H  0.51 -0.92  5.33
 H  0.93 -1.89  7.62
 H  1.88 -2.79  6.41
 H  0.31 -3.42  6.95
