35
#
 C -0.43 -0.03  0.34
 C -0.38  0.41  1.78
 O  0.64  0.86  2.30
 H -0.57 -1.11  0.26
 H  0.53  0.24 -0.11
 H -1.24  0.44 -0.25
 N -1.51  0.26  2.57
 C -2.89 -0.08  2.21
 C -2.96 -1.41  1.42
 O -3.45 -1.49  0.29
 H -1.36  0.61  3.51
 H -3.40 -0.28  3.17
 C -3.62  1.07  1.50
 C -5.12  0.84  1.26
 C -5.58  1.39 -0.10
 N -4.78  0.85 -1.20
 C -3.95  1.66 -1.95
 N -4.53  2.88 -2.33
 N -2.74  1.27 -2.22
 H -3.11  1.25  0.55
 H -3.46  1.97  2.11
 H -5.72  1.31  2.06
 H -5.35 -0.23  1.29
 H -5.50  2.49 -0.11
 H -6.65  1.15 -0.24
 H -4.30 -0.02 -0.96
 H -3.98  3.42 -2.99
 H -5.51  2.84 -2.58
 H -2.30  1.88 -2.91
 N -2.47 -2.52  2.03
 C -1.85 -2.66  3.34
 H -2.52 -3.35  1.45
 H -1.87 -3.71  3.63
 H -2.40 -2.09  4.10
 H -0.81 -2.31  3.34
