35
#
 C -0.25  0.39 -0.24
 C -0.35  0.49  1.27
 O  0.53  1.01  1.95
 H  0.56 -0.30 -0.49
 H  0.02  1.37 -0.65
 H -1.17  0.04 -0.72
 N -1.49 -0.02  1.82
 C -1.71 -0.17  3.26
 C -1.22  1.05  4.07
 O -0.46  0.93  5.03
 H -2.14 -0.49  1.21
 H -2.81 -0.20  3.39
 C -1.11 -1.48  3.80
 C -1.70 -1.91  5.15
 C -0.93 -3.07  5.81
 N  0.53 -2.89  5.89
 C  1.15 -2.16  6.91
 N  0.54 -0.96  7.21
 N  2.22 -2.52  7.55
 H -0.03 -1.35  3.89
 H -1.29 -2.26  3.05
 H -2.74 -2.23  5.03
 H -1.72 -1.06  5.84
 H -1.09 -3.98  5.21
 H -1.36 -3.25  6.81
 H  1.03 -3.75  5.70
 H  1.08 -0.43  7.89
 H  0.23 -0.38  6.42
 H  2.47 -3.49  7.33
 N -1.77  2.27  3.78
 C -2.62  2.65  2.67
 H -1.35  3.02  4.33
 H -3.13  3.59  2.94
 H -3.39  1.90  2.49
 H -2.06  2.82  1.74
