35
#
 C -0.35  0.91 -0.36
 C -0.49  0.15  0.95
 O  0.06 -0.93  1.14
 H -0.67  0.26 -1.18
 H  0.71  1.14 -0.51
 H -0.92  1.85 -0.39
 N -1.26  0.77  1.90
 C -1.53  0.17  3.20
 C -2.99 -0.31  3.21
 O -3.91  0.50  3.28
 H -1.78  1.60  1.65
 H -0.83 -0.68  3.27
 C -1.28  1.15  4.35
 C  0.16  1.65  4.41
 C  0.39  2.65  5.56
 N  1.71  3.25  5.60
 C  2.07  4.28  4.73
 N  3.44  4.57  4.81
 N  1.32  4.94  3.92
 H -1.55  0.64  5.29
 H -1.98  1.99  4.25
 H  0.44  2.13  3.46
 H  0.85  0.80  4.53
 H  0.21  2.15  6.53
 H -0.35  3.46  5.50
 H  2.47  2.61  5.83
 H  3.65  5.41  4.27
 H  3.81  4.61  5.75
 H  0.38  4.55  3.87
 N -3.22 -1.65  3.12
 C -2.25 -2.73  3.00
 H -4.21 -1.89  3.14
 H -1.85 -3.04  3.97
 H -1.43 -2.46  2.33
 H -2.76 -3.60  2.56
