35
#
 C -0.67 -1.18  0.27
 C -0.61 -0.71  1.71
 O  0.45 -0.64  2.33
 H -1.65 -1.08 -0.19
 H -0.38 -2.24  0.25
 H  0.07 -0.63 -0.31
 N -1.81 -0.40  2.28
 C -1.98 -0.01  3.68
 C -1.17  1.26  4.06
 O -0.48  1.30  5.07
 H -2.64 -0.53  1.72
 H -3.05  0.27  3.76
 C -1.69 -1.13  4.70
 C -2.36 -2.49  4.38
 C -1.37 -3.66  4.29
 N -0.40 -3.43  3.24
 C  0.33 -4.43  2.64
 N  1.26 -3.93  1.71
 N  0.21 -5.71  2.76
 H -2.01 -0.76  5.68
 H -0.60 -1.23  4.78
 H -2.90 -2.44  3.42
 H -3.11 -2.73  5.15
 H -1.93 -4.58  4.06
 H -0.89 -3.81  5.28
 H  0.02 -2.50  3.22
 H  1.95 -4.63  1.46
 H  1.66 -3.02  1.93
 H -0.53 -5.95  3.43
 N -1.29  2.35  3.24
 C -2.11  2.56  2.07
 H -0.70  3.12  3.55
 H -2.25  3.64  1.94
 H -3.11  2.12  2.19
 H -1.66  2.16  1.15
