35
#
 C  0.40 -1.01  0.90
 C  0.19  0.12  1.91
 O  1.14  0.71  2.42
 H  1.46 -1.02  0.65
 H -0.19 -0.87 -0.02
 H  0.13 -1.98  1.33
 N -1.10  0.45  2.24
 C -2.35 -0.05  1.71
 C -3.25  1.15  1.37
 O -3.20  2.18  2.04
 H -1.19  1.28  2.83
 H -2.13 -0.62  0.80
 C -3.11 -0.95  2.72
 C -2.38 -2.25  3.05
 C -2.44 -3.27  1.92
 N -1.51 -4.36  2.14
 C -1.29 -5.33  1.16
 N -0.44 -6.35  1.61
 N -1.77 -5.37 -0.03
 H -4.12 -1.16  2.33
 H -3.25 -0.35  3.64
 H -2.83 -2.69  3.96
 H -1.33 -2.03  3.30
 H -2.17 -2.79  0.96
 H -3.48 -3.64  1.80
 H -1.46 -4.70  3.09
 H -0.20 -6.97  0.84
 H  0.37 -6.03  2.12
 H -2.49 -4.65 -0.18
 N -4.13  1.00  0.34
 C -4.24 -0.13 -0.58
 H -4.72  1.81  0.18
 H -3.33 -0.27 -1.18
 H -5.07  0.07 -1.27
 H -4.47 -1.07 -0.06
