35
#
 C  0.05 -0.00  0.03
 C  0.08 -0.13  1.54
 O  1.12 -0.33  2.15
 H  1.03 -0.29 -0.35
 H -0.14  1.04 -0.26
 H -0.72 -0.65 -0.42
 N -1.09  0.04  2.26
 C -2.50  0.07  1.90
 C -3.02 -1.31  1.44
 O -2.35 -2.06  0.74
 H -0.90 -0.11  3.25
 H -3.01  0.35  2.83
 C -2.89  1.14  0.85
 C -2.45  2.55  1.21
 C -2.93  3.58  0.17
 N -2.45  4.93  0.37
 C -1.16  5.31 -0.02
 N -0.84  6.60  0.44
 N -0.30  4.65 -0.70
 H -3.99  1.10  0.74
 H -2.49  0.85 -0.13
 H -1.36  2.60  1.29
 H -2.85  2.83  2.20
 H -4.03  3.62  0.16
 H -2.63  3.26 -0.84
 H -2.78  5.40  1.21
 H  0.04  6.90  0.04
 H -1.57  7.29  0.31
 H -0.59  3.68 -0.86
 N -4.30 -1.64  1.81
 C -5.20 -0.91  2.69
 H -4.60 -2.54  1.46
 H -6.14 -1.47  2.76
 H -5.44  0.09  2.31
 H -4.80 -0.81  3.71
