35
#
 C -0.37 -1.08 -0.66
 C  0.17  0.07  0.19
 O  1.14  0.73 -0.17
 H  0.26 -1.16 -1.55
 H -1.41 -0.89 -0.97
 H -0.35 -2.03 -0.12
 N -0.49  0.34  1.36
 C -1.64 -0.33  1.94
 C -2.35  0.69  2.84
 O -1.68  1.57  3.40
 H -0.17  1.16  1.88
 H -2.31 -0.66  1.13
 C -1.26 -1.58  2.79
 C -0.30 -1.33  3.97
 C -0.92 -1.41  5.37
 N -1.87 -0.34  5.65
 C -3.10 -0.48  6.22
 N -3.27 -1.63  6.99
 N -4.03  0.40  5.97
 H -0.81 -2.30  2.10
 H -2.19 -2.05  3.15
 H  0.22 -0.37  3.85
 H  0.50 -2.09  3.94
 H -0.09 -1.40  6.11
 H -1.44 -2.37  5.49
 H -1.73  0.54  5.15
 H -4.14 -1.66  7.51
 H -2.47 -1.90  7.56
 H -4.84  0.28  6.57
 N -3.66  0.52  3.11
 C -4.53 -0.54  2.63
 H -3.94  0.92  4.03
 H -5.57 -0.21  2.72
 H -4.42 -1.48  3.20
 H -4.34 -0.76  1.57
