35
#
 C -1.16 -0.60  0.26
 C -1.29 -0.62  1.77
 O -0.87 -1.57  2.43
 H -1.70  0.20 -0.24
 H -1.50 -1.57 -0.11
 H -0.10 -0.51 -0.00
 N -1.94  0.41  2.43
 C -2.30  1.77  2.01
 C -3.24  1.83  0.79
 O -3.21  2.77 -0.01
 H -1.90  0.26  3.44
 H -2.95  2.14  2.82
 C -1.12  2.78  1.98
 C  0.12  2.43  1.15
 C -0.03  2.66 -0.35
 N  1.08  2.06 -1.07
 C  1.13  1.93 -2.45
 N -0.11  1.87 -3.09
 N  2.29  1.78 -3.01
 H -0.81  2.92  3.02
 H -1.54  3.75  1.65
 H  0.42  1.39  1.34
 H  0.96  3.05  1.52
 H -0.13  3.75 -0.54
 H -0.96  2.21 -0.69
 H  2.01  2.21 -0.69
 H -0.05  2.01 -4.09
 H -0.87  2.39 -2.67
 H  2.20  1.61 -4.01
 N -4.15  0.82  0.74
 C -5.13  0.70 -0.32
 H -4.03  0.06  1.40
 H -6.12  0.48  0.09
 H -4.86 -0.10 -1.03
 H -5.17  1.65 -0.86
