35
#
 C -0.79  1.42  0.90
 C -0.86  0.64  2.20
 O -1.14  1.17  3.27
 H -0.14  2.29  1.04
 H -1.80  1.80  0.67
 H -0.43  0.83  0.05
 N -0.59 -0.69  2.09
 C -0.56 -1.57  3.24
 C  0.32 -2.77  2.86
 O  0.62 -3.01  1.69
 H -0.26 -1.11  1.22
 H -0.09 -1.02  4.08
 C -1.97 -2.01  3.70
 C -2.74 -2.82  2.65
 C -4.18 -3.09  3.09
 N -4.96 -3.77  2.06
 C -5.58 -3.08  1.03
 N -6.35 -3.92  0.22
 N -5.52 -1.82  0.77
 H -2.52 -1.09  3.95
 H -1.88 -2.58  4.64
 H -2.24 -3.78  2.45
 H -2.75 -2.27  1.70
 H -4.67 -2.15  3.38
 H -4.19 -3.73  3.98
 H -5.46 -4.61  2.36
 H -5.90 -4.79 -0.04
 H -6.69 -3.41 -0.60
 H -5.04 -1.30  1.51
 N  0.72 -3.55  3.91
 C  1.51 -4.75  3.74
 H  0.47 -3.25  4.84
 H  1.66 -4.90  2.67
 H  1.00 -5.62  4.16
 H  2.49 -4.65  4.23
