35
#
 C  0.65 -0.44  0.49
 C  0.76 -0.32  2.01
 O  1.83 -0.49  2.59
 H  1.64 -0.70  0.11
 H  0.33  0.52  0.04
 H -0.07 -1.20  0.19
 N -0.38 -0.01  2.70
 C -1.72  0.22  2.18
 C -2.42  1.17  3.16
 O -2.08  1.19  4.35
 H -0.28  0.13  3.70
 H -1.64  0.70  1.19
 C -2.54 -1.09  2.02
 C -2.85 -1.83  3.34
 C -4.35 -2.02  3.61
 N -5.15 -0.81  3.46
 C -5.52  0.03  4.50
 N -4.65  0.04  5.59
 N -6.64  0.68  4.38
 H -1.98 -1.74  1.33
 H -3.48 -0.84  1.51
 H -2.39 -1.30  4.18
 H -2.37 -2.82  3.34
 H -4.49 -2.45  4.61
 H -4.75 -2.75  2.89
 H -5.91 -0.86  2.79
 H -4.92  0.71  6.30
 H -3.66  0.14  5.35
 H -6.76  1.34  5.15
 N -3.42  1.96  2.71
 C -4.09  1.94  1.42
 H -3.91  2.44  3.46
 H -4.48  2.94  1.20
 H -4.93  1.23  1.41
 H -3.39  1.67  0.63
