35
#
 C -0.51  1.36 -0.08
 C -0.09  0.43  1.05
 O  0.99 -0.15  1.04
 H  0.32  1.43 -0.79
 H -0.74  2.37  0.30
 H -1.40  0.99 -0.61
 N -0.97  0.25  2.08
 C -2.27  0.86  2.29
 C -2.48  0.93  3.81
 O -1.83  0.21  4.57
 H -0.63 -0.30  2.87
 H -2.25  1.89  1.90
 C -3.42  0.12  1.56
 C -3.65 -1.35  1.93
 C -4.40 -1.58  3.25
 N -4.87 -2.94  3.43
 C -6.00 -3.39  2.77
 N -6.20 -4.77  2.93
 N -6.72 -2.58  2.08
 H -3.20  0.18  0.48
 H -4.36  0.68  1.69
 H -2.68 -1.88  1.95
 H -4.25 -1.81  1.13
 H -5.29 -0.93  3.28
 H -3.77 -1.33  4.12
 H -4.15 -3.64  3.57
 H -7.10 -5.09  2.61
 H -5.98 -5.13  3.86
 H -7.58 -3.03  1.76
 N -3.43  1.78  4.29
 C -4.30  2.69  3.57
 H -3.55  1.71  5.29
 H -5.24  2.21  3.26
 H -3.81  3.08  2.67
 H -4.55  3.54  4.21
