35
#
 C -1.89  0.98  0.41
 C -0.68  0.73  1.30
 O  0.35  1.39  1.18
 H -1.74  1.95 -0.07
 H -2.84  0.97  0.95
 H -1.94  0.21 -0.37
 N -0.75 -0.27  2.24
 C -1.80 -1.23  2.60
 C -2.11 -2.18  1.40
 O -1.28 -3.04  1.10
 H  0.15 -0.41  2.69
 H -1.31 -1.92  3.30
 C -2.96 -0.57  3.36
 C -3.90 -1.57  4.09
 C -5.27 -1.79  3.44
 N -6.08 -0.57  3.34
 C -6.22  0.13  2.18
 N -7.20  1.13  2.25
 N -5.53 -0.16  1.12
 H -3.55  0.09  2.71
 H -2.49  0.08  4.10
 H -3.41 -2.55  4.18
 H -4.06 -1.22  5.12
 H -5.84 -2.52  4.04
 H -5.17 -2.21  2.44
 H -6.80 -0.44  4.04
 H -7.15  1.82  1.50
 H -7.32  1.57  3.15
 H -5.73  0.48  0.35
 N -3.28 -2.01  0.75
 C -3.62 -2.85 -0.39
 H -3.96 -1.27  0.98
 H -4.66 -2.67 -0.65
 H -3.48 -3.91 -0.15
 H -2.98 -2.63 -1.26
