35
#
 C -0.96  0.65  2.48
 C -2.04  0.01  3.32
 O -2.03  0.08  4.55
 H -1.21  1.72  2.39
 H -0.85  0.24  1.47
 H -0.01  0.57  3.02
 N -3.06 -0.67  2.69
 C -3.40 -0.71  1.26
 C -2.38 -1.53  0.42
 O -2.26 -1.36 -0.79
 H -3.83 -0.86  3.33
 H -4.30 -1.34  1.21
 C -3.74  0.64  0.60
 C -5.24  0.91  0.43
 C -6.07  1.09  1.71
 N -5.64  2.23  2.54
 C -4.72  2.07  3.57
 N -5.01  1.02  4.44
 N -3.69  2.86  3.62
 H -3.28  0.64 -0.39
 H -3.29  1.46  1.18
 H -5.70  0.09 -0.16
 H -5.37  1.81 -0.19
 H -6.03  0.19  2.34
 H -7.13  1.23  1.43
 H -5.39  3.05  1.99
 H -4.34  0.89  5.18
 H -5.98  0.97  4.74
 H -3.18  2.74  4.50
 N -1.70 -2.47  1.12
 C -0.74 -3.37  0.51
 H -1.84 -2.49  2.12
 H  0.28 -3.18  0.88
 H -0.76 -3.19 -0.57
 H -0.99 -4.42  0.70
