35
#
 C -0.98 -1.70  0.68
 C -0.62 -0.73  1.78
 O  0.53 -0.29  1.93
 H -1.20 -1.14 -0.24
 H -1.86 -2.30  0.94
 H -0.13 -2.35  0.48
 N -1.66 -0.35  2.58
 C -1.45  0.53  3.73
 C -0.99 -0.30  4.95
 O -1.72 -0.58  5.92
 H -2.48 -0.96  2.58
 H -0.58  1.14  3.45
 C -2.61  1.51  4.00
 C -4.08  1.09  3.75
 C -4.75  0.16  4.77
 N -4.26 -1.22  4.78
 C -4.32 -2.03  3.66
 N -5.41 -1.82  2.82
 N -3.44 -2.92  3.30
 H -2.43  2.38  3.36
 H -2.50  1.86  5.04
 H -4.19  0.67  2.74
 H -4.66  2.03  3.74
 H -5.84  0.17  4.60
 H -4.60  0.54  5.79
 H -3.38 -1.30  5.29
 H -5.52 -2.57  2.16
 H -6.28 -1.56  3.28
 H -2.65 -2.92  3.95
 N  0.29 -0.72  4.85
 C  0.90 -1.61  5.82
 H  0.78 -0.51  3.98
 H  1.76 -2.10  5.37
 H  0.18 -2.37  6.14
 H  1.23 -1.06  6.72
