35
#
 C  0.11 -1.71  0.53
 C  0.32 -0.38  1.24
 O  1.45  0.05  1.49
 H -0.40 -2.43  1.18
 H  1.10 -2.10  0.27
 H -0.49 -1.60 -0.38
 N -0.79  0.34  1.58
 C -2.19  0.01  1.36
 C -2.96  1.35  1.37
 O -2.52  2.34  1.93
 H -0.63  1.27  1.97
 H -2.31 -0.46  0.37
 C -2.80 -0.96  2.42
 C -3.05 -0.39  3.82
 C -1.79 -0.00  4.62
 N -2.05  0.24  6.03
 C -2.28 -0.79  6.93
 N -2.70 -0.31  8.18
 N -2.15 -2.06  6.75
 H -2.13 -1.83  2.48
 H -3.75 -1.34  2.01
 H -3.60 -1.16  4.39
 H -3.72  0.48  3.76
 H -1.34  0.91  4.21
 H -1.03 -0.79  4.54
 H -2.54  1.11  6.24
 H -2.71 -1.07  8.86
 H -2.18  0.49  8.52
 H -1.95 -2.28  5.77
 N -4.17  1.31  0.75
 C -5.08  2.44  0.73
 H -4.45  0.46  0.29
 H -5.29  2.76 -0.31
 H -4.59  3.27  1.26
 H -6.03  2.20  1.23
