35
#
 C -0.61  0.20  0.15
 C -0.41  0.13  1.66
 O  0.68  0.35  2.18
 H  0.23 -0.30 -0.34
 H -0.59  1.26 -0.15
 H -1.56 -0.24 -0.19
 N -1.53 -0.17  2.38
 C -1.56 -0.09  3.85
 C -0.95  1.28  4.28
 O -1.54  2.29  3.89
 H -2.41 -0.19  1.90
 H -2.62  0.10  4.08
 C -1.21 -1.41  4.56
 C -0.09 -2.27  3.96
 C  0.22 -3.50  4.82
 N  0.79 -3.17  6.12
 C  0.09 -3.37  7.30
 N  0.89 -3.16  8.43
 N -1.14 -3.75  7.28
 H -2.12 -2.03  4.57
 H -1.01 -1.20  5.62
 H  0.83 -1.69  3.81
 H -0.39 -2.62  2.96
 H  0.92 -4.16  4.29
 H -0.70 -4.08  5.01
 H  1.80 -3.27  6.20
 H  1.54 -2.38  8.35
 H  0.36 -3.11  9.30
 H -1.54 -3.78  8.22
 N  0.07  1.38  5.18
 C  1.21  0.50  5.40
 H  0.26  2.37  5.35
 H  1.92  1.03  6.04
 H  1.70  0.24  4.45
 H  0.92 -0.43  5.92
