35
#
 C -0.45 -1.75 -0.36
 C -0.36 -1.80  1.15
 O  0.25 -2.68  1.75
 H  0.03 -2.65 -0.76
 H  0.08 -0.87 -0.76
 H -1.48 -1.72 -0.72
 N -1.03 -0.81  1.84
 C -1.65  0.37  1.28
 C -0.59  1.39  0.79
 O  0.51  1.50  1.33
 H -0.83 -0.83  2.84
 H -2.26  0.05  0.42
 C -2.61  1.04  2.29
 C -2.01  1.97  3.36
 C -1.07  1.28  4.37
 N -0.67  2.15  5.47
 C -1.54  2.43  6.50
 N -1.01  3.37  7.40
 N -2.70  1.87  6.56
 H -3.19  0.24  2.77
 H -3.34  1.63  1.71
 H -2.84  2.40  3.93
 H -1.47  2.80  2.88
 H -0.15  0.95  3.87
 H -1.57  0.41  4.81
 H -0.00  2.88  5.24
 H -1.55  3.47  8.25
 H -0.02  3.25  7.61
 H -3.17  2.08  7.44
 N -0.95  2.19 -0.26
 C -2.16  2.13 -1.07
 H -0.23  2.85 -0.53
 H -3.07  2.31 -0.48
 H -2.26  1.16 -1.59
 H -2.10  2.91 -1.84
