35
#
 C -1.02 -0.50 -0.03
 C -1.15  0.31  1.25
 O -1.13  1.54  1.24
 H -0.01 -0.36 -0.44
 H -1.73 -0.10 -0.77
 H -1.22 -1.57  0.10
 N -1.29 -0.42  2.39
 C -1.39  0.17  3.72
 C -2.63  1.11  3.78
 O -3.74  0.59  3.67
 H -1.21 -1.43  2.33
 H -1.73 -0.65  4.36
 C -0.03  0.63  4.29
 C  0.94 -0.55  4.47
 C  1.84 -0.82  3.25
 N  2.43 -2.16  3.23
 C  1.65 -3.29  3.02
 N  0.64 -3.12  2.06
 N  1.78 -4.45  3.58
 H -0.23  1.10  5.27
 H  0.42  1.40  3.66
 H  0.37 -1.46  4.70
 H  1.58 -0.37  5.35
 H  2.66 -0.09  3.21
 H  1.27 -0.68  2.33
 H  3.12 -2.31  3.97
 H  0.25 -4.03  1.83
 H  0.95 -2.63  1.22
 H  2.46 -4.42  4.35
 N -2.52  2.45  4.05
 C -1.41  3.37  3.84
 H -3.45  2.87  4.10
 H -1.83  4.38  3.74
 H -0.71  3.39  4.68
 H -0.88  3.13  2.91
