35
#
 C -0.54  1.91  3.61
 C -0.17  0.74  2.73
 O  0.61 -0.14  3.10
 H  0.04  1.84  4.54
 H -1.61  1.90  3.86
 H -0.33  2.88  3.13
 N -0.74  0.69  1.48
 C -1.75  1.58  0.94
 C -3.19  1.48  1.52
 O -3.91  2.48  1.43
 H -0.48 -0.13  0.95
 H -1.48  2.62  1.17
 C -1.80  1.48 -0.60
 C -2.28  0.13 -1.16
 C -2.28  0.11 -2.69
 N -2.69 -1.17 -3.27
 C -1.97 -2.34 -3.04
 N -0.58 -2.17 -3.10
 N -2.61 -3.43 -2.77
 H -0.80  1.71 -0.98
 H -2.47  2.28 -0.95
 H -1.63 -0.69 -0.81
 H -3.29 -0.09 -0.80
 H -1.28  0.37 -3.07
 H -2.96  0.88 -3.08
 H -3.68 -1.38 -3.15
 H -0.07 -3.04 -3.12
 H -0.25 -1.52 -3.81
 H -1.99 -4.24 -2.77
 N -3.65  0.34  2.12
 C -3.07 -0.99  2.26
 H -4.60  0.47  2.45
 H -3.87 -1.66  2.60
 H -2.26 -1.02  3.00
 H -2.70 -1.39  1.31
