35
#
 C -0.01 -0.37 -0.24
 C  0.25 -0.19  1.23
 O  1.36  0.01  1.71
 H  0.95 -0.30 -0.77
 H -0.69  0.40 -0.63
 H -0.47 -1.35 -0.43
 N -0.84 -0.33  2.08
 C -2.25 -0.22  1.71
 C -2.69  1.14  1.11
 O -3.51  1.15  0.19
 H -0.60 -0.12  3.04
 H -2.45 -0.93  0.89
 C -3.16 -0.58  2.90
 C -3.49 -2.07  3.11
 C -2.33 -3.03  3.44
 N -1.44 -3.36  2.33
 C -1.91 -3.95  1.17
 N -2.82 -4.98  1.38
 N -1.51 -3.50  0.03
 H -4.12 -0.06  2.76
 H -2.72 -0.16  3.83
 H -4.01 -2.45  2.22
 H -4.22 -2.13  3.94
 H -2.75 -3.95  3.86
 H -1.70 -2.60  4.24
 H -0.81 -2.59  2.09
 H -3.04 -5.53  0.56
 H -2.65 -5.56  2.20
 H -1.80 -4.11 -0.74
 N -2.19  2.31  1.61
 C -1.32  2.56  2.75
 H -2.56  3.11  1.12
 H -1.38  3.63  2.99
 H -0.27  2.31  2.55
 H -1.65  2.02  3.65
