35
#
 C  0.02  0.09 -0.11
 C  0.14  0.09  1.40
 O  1.24  0.09  1.96
 H -0.58  0.94 -0.47
 H -0.45 -0.84 -0.47
 H  1.03  0.17 -0.53
 N -1.01  0.07  2.15
 C -2.41  0.02  1.74
 C -2.69 -1.28  0.92
 O -2.43 -2.35  1.46
 H -0.82 -0.06  3.14
 H -2.96 -0.21  2.67
 C -2.95  1.38  1.27
 C -2.83  2.46  2.35
 C -3.29  3.83  1.86
 N -3.15  4.89  2.86
 C -2.13  5.84  2.87
 N -0.97  5.43  2.21
 N -2.18  7.01  3.40
 H -4.01  1.27  0.99
 H -2.42  1.73  0.37
 H -1.78  2.52  2.68
 H -3.41  2.17  3.24
 H -4.35  3.78  1.57
 H -2.73  4.12  0.96
 H -4.00  5.21  3.31
 H -0.24  6.12  2.34
 H -0.66  4.49  2.41
 H -3.12  7.25  3.71
 N -3.26 -1.27 -0.33
 C -3.54 -0.22 -1.29
 H -3.41 -2.23 -0.64
 H -2.68  0.43 -1.46
 H -4.40  0.40 -1.01
 H -3.77 -0.70 -2.25
