35
#
 C -0.09  0.10  0.02
 C  0.01  0.10  1.53
 O  1.09  0.22  2.11
 H  0.86 -0.25 -0.38
 H -0.25  1.13 -0.33
 H -0.91 -0.51 -0.37
 N -1.15 -0.06  2.27
 C -2.55 -0.02  1.84
 C -3.02 -1.30  1.10
 O -4.04 -1.30  0.42
 H -0.97  0.04  3.26
 H -3.12 -0.06  2.79
 C -2.99  1.24  1.08
 C -2.55  2.56  1.72
 C -3.11  2.80  3.14
 N -2.84  4.11  3.69
 C -3.57  5.23  3.30
 N -3.02  6.42  3.80
 N -4.65  5.28  2.59
 H -4.09  1.20  1.00
 H -2.62  1.20  0.05
 H -2.88  3.39  1.08
 H -1.45  2.63  1.76
 H -2.69  2.06  3.84
 H -4.20  2.64  3.15
 H -1.86  4.31  3.88
 H -3.65  7.20  3.63
 H -2.72  6.38  4.77
 H -4.88  4.38  2.18
 N -2.24 -2.40  1.30
 C -2.55 -3.69  0.72
 H -1.40 -2.28  1.85
 H -2.69 -4.45  1.50
 H -1.75 -4.03  0.04
 H -3.48 -3.59  0.15
