35
#
 C  0.28  0.50  1.75
 C  0.24 -0.70  0.84
 O  1.25 -1.35  0.56
 H  1.28  0.58  2.18
 H -0.46  0.43  2.56
 H  0.06  1.42  1.19
 N -0.98 -1.07  0.30
 C -2.31 -0.62  0.74
 C -3.39 -1.59  0.22
 O -4.39 -1.85  0.89
 H -0.92 -2.01 -0.09
 H -2.37 -0.67  1.83
 C -2.67  0.83  0.26
 C -3.09  1.82  1.35
 C -4.44  1.55  2.04
 N -4.52  0.33  2.83
 C -3.79  0.21  3.99
 N -3.76 -1.11  4.47
 N -3.18  1.22  4.52
 H -1.78  1.22 -0.27
 H -3.46  0.77 -0.51
 H -3.15  2.82  0.88
 H -2.32  1.89  2.13
 H -5.25  1.50  1.29
 H -4.65  2.40  2.70
 H -4.64 -0.53  2.29
 H -3.51 -1.19  5.44
 H -4.57 -1.68  4.23
 H -2.76  0.97  5.41
 N -3.18 -2.08 -1.03
 C -4.16 -2.92 -1.71
 H -2.40 -1.72 -1.56
 H -3.65 -3.74 -2.23
 H -4.76 -2.34 -2.43
 H -4.83 -3.34 -0.95
