35
#
 C -2.21  1.70  4.36
 C -1.37  0.44  4.26
 O -0.17  0.44  4.55
 H -3.25  1.56  4.04
 H -1.75  2.49  3.76
 H -2.21  2.04  5.41
 N -2.02 -0.68  3.84
 C -1.43 -2.01  3.81
 C -0.52 -2.27  2.57
 O -0.62 -3.28  1.87
 H -2.99 -0.59  3.58
 H -0.74 -2.06  4.67
 C -2.51 -3.10  3.99
 C -3.85 -2.92  3.27
 C -3.85 -2.80  1.74
 N -3.30 -3.98  1.10
 C -3.73 -4.39 -0.16
 N -2.93 -5.41 -0.68
 N -4.73 -3.97 -0.86
 H -2.72 -3.18  5.07
 H -2.05 -4.05  3.69
 H -4.39 -2.05  3.67
 H -4.48 -3.79  3.54
 H -3.32 -1.89  1.41
 H -4.89 -2.69  1.41
 H -2.29 -4.06  1.24
 H -2.60 -6.09  0.00
 H -3.35 -5.84 -1.49
 H -5.16 -3.14 -0.45
 N  0.42 -1.32  2.38
 C  1.40 -1.42  1.31
 H  0.51 -0.60  3.10
 H  0.94 -1.87  0.43
 H  2.26 -2.04  1.60
 H  1.76 -0.41  1.06
