35
#
 C -0.03 -0.23 -0.02
 C  0.10 -0.09  1.49
 O  1.20 -0.14  2.04
 H  0.97 -0.17 -0.45
 H -0.67  0.54 -0.47
 H -0.47 -1.21 -0.28
 N -1.04  0.09  2.23
 C -2.44  0.03  1.81
 C -3.14  1.23  2.49
 O -3.66  1.13  3.60
 H -0.87  0.13  3.23
 H -2.46  0.16  0.72
 C -3.16 -1.27  2.17
 C -2.57 -2.55  1.57
 C -1.45 -3.19  2.41
 N -0.93 -4.44  1.86
 C -1.65 -5.61  1.96
 N -1.02 -6.67  1.27
 N -2.77 -5.66  2.59
 H -4.21 -1.16  1.84
 H -3.22 -1.35  3.27
 H -2.21 -2.37  0.54
 H -3.37 -3.30  1.49
 H -1.84 -3.42  3.41
 H -0.60 -2.51  2.53
 H -0.33 -4.36  1.05
 H -1.44 -7.58  1.46
 H -0.01 -6.71  1.39
 H -3.11 -6.62  2.68
 N -3.13  2.43  1.82
 C -2.42  2.76  0.59
 H -3.53  3.19  2.36
 H -1.33  2.68  0.71
 H -2.66  3.80  0.33
 H -2.74  2.13 -0.25
