35
#
 C  1.36 -3.93  1.31
 C  0.07 -3.18  1.03
 O -0.42 -3.12 -0.09
 H  1.24 -4.98  1.02
 H  1.68 -3.88  2.36
 H  2.16 -3.50  0.68
 N -0.51 -2.60  2.12
 C -1.68 -1.75  2.00
 C -1.66 -0.80  3.21
 O -0.86 -0.95  4.13
 H -0.03 -2.51  3.01
 H -1.59 -1.16  1.08
 C -2.99 -2.57  1.86
 C -3.33 -3.53  3.02
 C -3.85 -2.84  4.28
 N -4.31 -3.83  5.24
 C -4.74 -3.44  6.51
 N -5.31 -4.50  7.22
 N -4.67 -2.27  7.04
 H -2.88 -3.15  0.94
 H -3.83 -1.88  1.69
 H -2.45 -4.14  3.26
 H -4.10 -4.23  2.65
 H -4.65 -2.12  4.01
 H -3.04 -2.27  4.76
 H -4.85 -4.60  4.84
 H -5.49 -4.22  8.18
 H -4.80 -5.37  7.17
 H -4.35 -1.57  6.37
 N -2.60  0.18  3.19
 C -2.82  1.09  4.30
 H -3.23  0.22  2.40
 H -2.00  0.94  5.02
 H -3.77  0.88  4.81
 H -2.81  2.13  3.96
