35
#
 C  1.12 -0.08  0.53
 C  0.52  0.17  1.90
 O  1.02  0.96  2.70
 H  1.08  0.86 -0.04
 H  0.61 -0.86 -0.05
 H  2.18 -0.34  0.65
 N -0.64 -0.52  2.16
 C -1.25 -0.54  3.50
 C -2.28 -1.67  3.65
 O -2.37 -2.24  4.73
 H -0.83 -1.32  1.57
 H -0.48 -0.81  4.23
 C -1.82  0.82  3.99
 C -2.95  1.50  3.22
 C -2.51  2.20  1.92
 N -3.57  2.96  1.27
 C -3.95  4.20  1.75
 N -5.08  4.70  1.08
 N -3.31  4.76  2.72
 H -0.97  1.51  4.08
 H -2.16  0.62  5.02
 H -3.38  2.28  3.87
 H -3.77  0.80  3.01
 H -2.11  1.49  1.19
 H -1.70  2.91  2.16
 H -4.33  2.41  0.89
 H -5.28  5.67  1.31
 H -5.07  4.55  0.07
 H -3.63  5.72  2.88
 N -3.05 -2.09  2.59
 C -3.48 -1.40  1.38
 H -3.64 -2.87  2.88
 H -4.51 -1.03  1.47
 H -3.44 -2.08  0.52
 H -2.83 -0.55  1.17
