35
#
 C -2.62 -0.07 -0.08
 C -1.57  0.26  0.96
 O -0.45  0.66  0.63
 H -2.25 -0.89 -0.71
 H -2.76  0.80 -0.72
 H -3.59 -0.37  0.34
 N -1.95  0.08  2.26
 C -1.10  0.19  3.46
 C -0.65  1.63  3.82
 O -0.76  2.02  4.99
 H -2.90 -0.22  2.42
 H -1.76 -0.07  4.30
 C  0.07 -0.82  3.45
 C  0.93 -0.78  4.72
 C  2.16  0.15  4.61
 N  2.85  0.35  5.87
 C  2.90  1.54  6.59
 N  2.01  2.52  6.19
 N  3.73  1.79  7.56
 H  0.69 -0.65  2.55
 H -0.38 -1.81  3.32
 H  1.29 -1.80  4.95
 H  0.33 -0.46  5.58
 H  1.87  1.13  4.22
 H  2.86 -0.27  3.87
 H  3.53 -0.34  6.14
 H  2.03  3.30  6.84
 H  1.06  2.25  5.94
 H  4.42  1.04  7.66
 N -0.10  2.36  2.83
 C  0.41  3.70  3.05
 H -0.01  1.91  1.91
 H  0.56  4.18  2.08
 H  1.36  3.69  3.61
 H -0.31  4.29  3.63
