35
#
 C -0.84 -1.86  0.51
 C -0.78 -0.80  1.60
 O -0.14  0.24  1.45
 H -1.18 -1.38 -0.42
 H -1.49 -2.71  0.74
 H  0.18 -2.23  0.33
 N -1.49 -1.11  2.73
 C -1.63 -0.40  4.01
 C -3.00  0.28  4.23
 O -3.62  0.01  5.26
 H -1.99 -1.99  2.70
 H -1.67 -1.19  4.77
 C -0.47  0.54  4.39
 C  0.88 -0.16  4.59
 C  0.91 -1.19  5.73
 N  0.56 -0.67  7.06
 C  1.30  0.34  7.67
 N  2.68  0.20  7.52
 N  0.67  1.29  8.27
 H -0.77  1.03  5.33
 H -0.35  1.33  3.64
 H  1.64  0.61  4.80
 H  1.20 -0.65  3.66
 H  1.91 -1.64  5.77
 H  0.22 -2.03  5.53
 H -0.43 -0.48  7.18
 H  3.03 -0.75  7.54
 H  3.22  0.82  8.12
 H  1.32  1.88  8.81
 N -3.50  1.17  3.32
 C -2.95  1.63  2.06
 H -4.41  1.52  3.59
 H -1.86  1.55  2.03
 H -3.21  2.69  1.92
 H -3.36  1.07  1.20
