35
#
 C -0.56 -1.03  1.50
 C -0.38  0.32  2.16
 O  0.69  0.67  2.66
 H -1.06 -0.96  0.52
 H -1.17 -1.69  2.13
 H  0.43 -1.48  1.38
 N -1.46  1.18  2.21
 C -2.79  1.07  1.62
 C -3.51 -0.24  2.01
 O -3.94 -1.03  1.16
 H -1.22  2.05  2.66
 H -3.37  1.88  2.10
 C -2.86  1.31  0.10
 C -2.17  2.60 -0.38
 C -0.70  2.39 -0.79
 N -0.06  3.59 -1.32
 C -0.32  4.03 -2.60
 N  0.30  5.27 -2.87
 N -1.08  3.36 -3.39
 H -3.93  1.33 -0.17
 H -2.46  0.44 -0.43
 H -2.23  3.38  0.40
 H -2.70  2.99 -1.25
 H -0.66  1.63 -1.59
 H -0.09  2.03  0.04
 H  0.17  4.31 -0.65
 H  0.26  5.53 -3.85
 H  1.25  5.35 -2.51
 H -1.08  3.76 -4.34
 N -3.67 -0.49  3.34
 C -3.28  0.33  4.48
 H -4.14 -1.37  3.53
 H -2.21  0.24  4.72
 H -3.86 -0.00  5.36
 H -3.52  1.39  4.32
