35
#
 C -0.33 -0.35  0.05
 C -0.25 -0.17  1.55
 O  0.84 -0.15  2.13
 H  0.08 -1.34 -0.20
 H  0.30  0.40 -0.43
 H -1.35 -0.29 -0.36
 N -1.45 -0.02  2.19
 C -1.76  0.07  3.63
 C -1.23  1.30  4.40
 O -1.92  1.75  5.32
 H -2.26 -0.01  1.58
 H -2.85  0.22  3.64
 C -1.49 -1.25  4.40
 C -0.06 -1.47  4.90
 C  0.33 -2.96  4.91
 N  1.75 -3.19  5.19
 C  2.73 -3.35  4.22
 N  2.38 -2.88  2.95
 N  3.88 -3.90  4.39
 H -1.79 -2.07  3.73
 H -2.19 -1.27  5.25
 H  0.07 -1.05  5.91
 H  0.65 -0.94  4.26
 H  0.09 -3.40  3.93
 H -0.26 -3.51  5.66
 H  1.98 -3.58  6.09
 H  3.18 -2.94  2.33
 H  1.91 -1.98  2.89
 H  3.96 -4.33  5.32
 N -0.02  1.79  4.04
 C  0.61  2.88  4.75
 H  0.53  1.23  3.37
 H  1.12  3.54  4.05
 H  1.34  2.52  5.49
 H -0.17  3.44  5.28
