35
#
 C  0.17  0.79  0.46
 C  0.15  0.48  1.95
 O  0.89  1.08  2.73
 H  1.17  0.59  0.07
 H -0.03  1.86  0.32
 H -0.56  0.21 -0.13
 N -0.74 -0.49  2.33
 C -0.94 -1.14  3.63
 C -2.20 -0.71  4.41
 O -2.78 -1.56  5.09
 H -1.29 -0.88  1.57
 H -1.22 -2.17  3.35
 C  0.31 -1.31  4.53
 C  0.69 -0.25  5.57
 C -0.25 -0.10  6.79
 N -0.76 -1.34  7.36
 C  0.06 -2.17  8.09
 N -0.56 -3.40  8.39
 N  1.26 -1.82  8.40
 H  1.16 -1.46  3.85
 H  0.17 -2.26  5.05
 H  1.67 -0.54  5.96
 H  0.81  0.73  5.09
 H -1.13  0.51  6.54
 H  0.29  0.43  7.58
 H -1.52 -1.77  6.84
 H -0.09 -3.92  9.12
 H -1.56 -3.34  8.55
 H  1.69 -2.51  9.01
 N -2.70  0.56  4.32
 C -2.09  1.78  3.82
 H -3.55  0.66  4.87
 H -2.38  1.99  2.78
 H -1.00  1.74  3.87
 H -2.42  2.62  4.45
