35
#
 C -0.07  0.90 -0.40
 C  0.15  0.39  1.01
 O  1.27  0.33  1.52
 H  0.90  1.00 -0.88
 H -0.56  1.89 -0.38
 H -0.71  0.24 -0.99
 N -0.96  0.00  1.72
 C -2.36  0.12  1.33
 C -2.86  1.57  1.13
 O -3.57  1.83  0.16
 H -0.75 -0.32  2.66
 H -2.51 -0.33  0.34
 C -3.22 -0.65  2.35
 C -4.71 -0.71  1.98
 C -5.57 -1.42  3.03
 N -5.23 -2.82  3.27
 C -4.41 -3.21  4.31
 N -4.15 -4.59  4.29
 N -3.95 -2.35  5.16
 H -3.11 -0.21  3.35
 H -2.81 -1.66  2.42
 H -4.83 -1.21  1.00
 H -5.11  0.30  1.84
 H -6.62 -1.37  2.72
 H -5.48 -0.92  4.00
 H -5.23 -3.43  2.46
 H -3.68 -4.92  5.12
 H -4.94 -5.17  4.04
 H -3.47 -2.81  5.93
 N -2.53  2.54  2.04
 C -1.73  2.47  3.25
 H -2.92  3.44  1.78
 H -2.03  1.64  3.90
 H -1.91  3.40  3.82
 H -0.66  2.40  3.05
