35
#
 C  0.99 -1.01  0.70
 C  0.60 -0.70  2.13
 O  1.41 -0.76  3.05
 H  1.79 -0.32  0.39
 H  0.16 -0.93 -0.02
 H  1.40 -2.03  0.66
 N -0.71 -0.36  2.32
 C -1.22  0.01  3.64
 C -2.51 -0.72  4.05
 O -2.57 -1.27  5.15
 H -1.29 -0.22  1.50
 H -0.47 -0.38  4.33
 C -1.31  1.54  3.84
 C -1.49  1.96  5.30
 C -0.25  1.72  6.17
 N  0.90  2.50  5.70
 C  2.22  2.05  5.78
 N  2.39  0.69  5.53
 N  3.25  2.78  6.06
 H -2.12  1.96  3.23
 H -0.37  1.97  3.46
 H -1.75  3.03  5.33
 H -2.34  1.43  5.76
 H  0.03  0.67  6.17
 H -0.49  1.97  7.22
 H  0.84  3.49  5.91
 H  3.38  0.45  5.52
 H  1.89  0.29  4.74
 H  2.96  3.71  6.38
 N -3.61 -0.70  3.23
 C -3.77 -0.15  1.89
 H -4.38 -1.23  3.62
 H -3.27  0.81  1.79
 H -4.84  0.03  1.72
 H -3.42 -0.84  1.10
