35
#
 C -0.22 -1.35  0.20
 C -0.53 -0.06  0.93
 O  0.07  0.98  0.68
 H  0.86 -1.37  0.01
 H -0.73 -1.34 -0.77
 H -0.51 -2.26  0.74
 N -1.51 -0.07  1.91
 C -2.64 -1.00  2.03
 C -2.27 -2.37  2.64
 O -2.97 -3.37  2.45
 H -1.70  0.88  2.24
 H -3.28 -0.54  2.79
 C -3.49 -1.17  0.74
 C -3.71  0.14 -0.03
 C -4.43  1.24  0.77
 N -4.31  2.57  0.18
 C -3.47  3.56  0.71
 N -2.29  3.07  1.27
 N -3.70  4.83  0.73
 H -4.45 -1.61  1.04
 H -3.02 -1.91  0.08
 H -4.27 -0.07 -0.95
 H -2.74  0.54 -0.37
 H -4.04  1.29  1.79
 H -5.50  0.99  0.85
 H -5.16  2.95 -0.21
 H -1.73  3.85  1.60
 H -1.72  2.47  0.67
 H -4.66  5.04  0.44
 N -1.17 -2.36  3.43
 C -0.69 -3.53  4.14
 H -0.65 -1.49  3.48
 H -1.39 -4.35  3.93
 H -0.66 -3.36  5.22
 H  0.31 -3.82  3.80
