35
#
 C  1.73  0.57  0.93
 C  0.92  0.43  2.20
 O  1.37  0.73  3.30
 H  2.78  0.32  1.14
 H  1.69  1.62  0.61
 H  1.37 -0.06  0.10
 N -0.35 -0.06  2.03
 C -1.38  0.01  3.06
 C -1.41  1.44  3.67
 O -1.38  2.42  2.92
 H -0.68 -0.11  1.07
 H -2.33 -0.03  2.51
 C -1.40 -1.19  4.02
 C -0.15 -1.44  4.87
 C -0.44 -2.36  6.07
 N  0.22 -1.97  7.31
 C -0.19 -0.84  7.98
 N  0.59 -0.55  9.10
 N -1.20 -0.14  7.55
 H -1.63 -2.08  3.43
 H -2.26 -1.05  4.70
 H  0.25 -0.48  5.23
 H  0.65 -1.86  4.24
 H -0.16 -3.40  5.86
 H -1.52 -2.35  6.28
 H  1.22 -2.16  7.37
 H  0.24  0.20  9.68
 H  0.88 -1.36  9.64
 H -1.47  0.57  8.23
 N -1.60  1.55  5.01
 C -1.66  2.85  5.64
 H -1.48  0.75  5.65
 H -2.13  2.75  6.63
 H -2.26  3.53  5.02
 H -0.66  3.30  5.76
