35
#
 C  0.25 -0.74  0.56
 C -0.39 -0.87  1.93
 O -0.16 -1.83  2.67
 H  1.33 -0.62  0.70
 H -0.13  0.11 -0.02
 H  0.08 -1.66  0.01
 N -1.22  0.15  2.29
 C -1.86  0.26  3.59
 C -2.69  1.55  3.52
 O -2.46  2.41  2.67
 H -1.31  0.99  1.72
 H -2.52 -0.61  3.73
 C -0.87  0.28  4.79
 C  0.38  1.14  4.57
 C  1.39  1.03  5.71
 N  1.72 -0.34  6.15
 C  2.68 -1.13  5.49
 N  2.52 -1.20  4.11
 N  3.66 -1.76  6.05
 H -0.56 -0.75  4.99
 H -1.41  0.63  5.68
 H  0.11  2.20  4.45
 H  0.87  0.84  3.63
 H  0.98  1.53  6.60
 H  2.30  1.59  5.43
 H  1.87 -0.39  7.15
 H  3.19 -1.85  3.71
 H  1.57 -1.40  3.78
 H  3.76 -1.48  7.03
 N -3.69  1.71  4.43
 C -4.13  0.81  5.48
 H -4.15  2.61  4.35
 H -5.21  0.94  5.63
 H -3.63  1.00  6.44
 H -3.96 -0.23  5.20
