35
#
 C  0.11 -3.30 -0.73
 C -0.24 -3.29  0.75
 O -0.39 -4.33  1.39
 H  0.45 -2.32 -1.11
 H -0.77 -3.62 -1.30
 H  0.90 -4.04 -0.90
 N -0.37 -2.04  1.31
 C -0.90 -1.75  2.64
 C -0.21 -2.56  3.77
 O -0.82 -2.91  4.78
 H -0.31 -1.25  0.67
 H -0.60 -0.71  2.84
 C -2.43 -1.79  2.76
 C -3.10 -3.17  2.60
 C -4.32 -3.32  3.52
 N -3.89 -3.28  4.92
 C -4.55 -2.58  5.91
 N -5.92 -2.42  5.70
 N -4.03 -2.07  6.98
 H -2.84 -1.08  2.03
 H -2.67 -1.38  3.75
 H -2.39 -3.97  2.83
 H -3.42 -3.33  1.56
 H -4.83 -4.27  3.29
 H -5.05 -2.51  3.34
 H -2.88 -3.30  5.05
 H -6.37 -2.04  6.53
 H -6.40 -3.25  5.35
 H -3.00 -2.13  6.94
 N  1.13 -2.74  3.62
 C  1.90 -3.55  4.54
 H  1.51 -2.56  2.70
 H  2.94 -3.19  4.57
 H  1.90 -4.61  4.25
 H  1.46 -3.46  5.54
