35
#
 C -1.07  1.57 -0.55
 C -1.37  0.26  0.15
 O -0.92 -0.81 -0.25
 H -1.11  2.45  0.09
 H -1.80  1.71 -1.36
 H -0.07  1.48 -1.00
 N -2.25  0.28  1.23
 C -2.67  1.42  2.05
 C -3.54  2.42  1.25
 O -3.54  3.63  1.50
 H -2.32 -0.64  1.66
 H -3.37  0.98  2.79
 C -1.53  2.10  2.83
 C -2.01  2.78  4.12
 C -0.96  3.74  4.71
 N -0.41  4.72  3.76
 C -1.04  5.94  3.48
 N -2.41  5.84  3.26
 N -0.32  7.00  3.48
 H -1.04  2.85  2.20
 H -0.78  1.34  3.07
 H -2.24  2.03  4.89
 H -2.94  3.33  3.94
 H -0.10  3.16  5.07
 H -1.40  4.24  5.59
 H  0.57  4.91  3.92
 H -2.84  6.71  2.97
 H -2.73  5.04  2.70
 H -0.84  7.80  3.12
 N -4.33  1.86  0.30
 C -5.22  2.62 -0.54
 H -4.18  0.87  0.13
 H -6.23  2.19 -0.52
 H -4.87  2.64 -1.58
 H -5.26  3.64 -0.16
