35
#
 C -0.32  1.10 -0.06
 C  0.04 -0.12  0.75
 O  1.22 -0.39  1.04
 H  0.60  1.58 -0.42
 H -0.88  1.82  0.55
 H -0.96  0.85 -0.92
 N -0.97 -0.93  1.17
 C -2.40 -0.75  1.06
 C -2.99  0.42  1.88
 O -4.02  0.98  1.51
 H -0.66 -1.74  1.72
 H -2.68 -0.52  0.02
 C -3.12 -2.07  1.44
 C -3.03 -2.54  2.91
 C -1.87 -3.46  3.32
 N -0.52 -2.92  3.15
 C  0.00 -1.98  4.04
 N  1.33 -1.68  3.75
 N -0.75 -1.49  4.97
 H -2.76 -2.86  0.76
 H -4.18 -1.91  1.20
 H -3.94 -3.11  3.13
 H -3.06 -1.68  3.60
 H -1.91 -4.38  2.71
 H -2.03 -3.75  4.37
 H  0.18 -3.60  2.85
 H  1.71 -0.95  4.34
 H  1.50 -1.46  2.75
 H -0.25 -0.76  5.49
 N -2.31  0.75  3.02
 C -2.82  1.72  3.97
 H -1.56  0.13  3.32
 H -3.72  2.17  3.55
 H -2.08  2.51  4.16
 H -3.06  1.23  4.93
