35
#
 C -0.99  1.51  1.28
 C -0.07  1.06  2.40
 O  0.78  1.79  2.90
 H -0.96  0.83  0.42
 H -0.68  2.51  0.97
 H -2.04  1.55  1.62
 N -0.22 -0.24  2.84
 C -1.25 -1.20  2.45
 C -2.70 -0.84  2.86
 O -3.61 -1.10  2.07
 H  0.42 -0.49  3.59
 H -1.30 -1.24  1.36
 C -0.89 -2.60  2.96
 C  0.40 -3.17  2.37
 C  0.72 -4.56  2.92
 N  2.03 -5.06  2.55
 C  3.16 -4.60  3.19
 N  4.36 -5.15  2.72
 N  3.05 -3.79  4.20
 H -1.74 -3.26  2.73
 H -0.81 -2.58  4.06
 H  1.25 -2.51  2.60
 H  0.31 -3.21  1.27
 H -0.03 -5.29  2.59
 H  0.70 -4.53  4.02
 H  2.15 -5.34  1.58
 H  5.17 -4.56  2.82
 H  4.33 -5.63  1.82
 H  3.95 -3.64  4.65
 N -2.95 -0.27  4.07
 C -2.06  0.05  5.18
 H -3.94 -0.09  4.20
 H -1.40 -0.79  5.43
 H -2.68  0.24  6.06
 H -1.44  0.94  4.99
