35
#
 C -0.05  0.03  0.18
 C -0.01  0.01  1.69
 O  1.07 -0.04  2.29
 H  0.31  1.00 -0.17
 H -1.04 -0.19 -0.24
 H  0.66 -0.73 -0.17
 N -1.17  0.06  2.43
 C -2.53  0.43  2.07
 C -3.28 -0.69  1.30
 O -2.70 -1.55  0.65
 H -0.97  0.04  3.42
 H -3.05  0.54  3.03
 C -2.64  1.80  1.34
 C -2.73  3.03  2.26
 C -1.70  3.14  3.39
 N -0.34  3.16  2.90
 C  0.70  3.32  3.81
 N  1.90  2.78  3.35
 N  0.49  3.97  4.91
 H -3.52  1.80  0.68
 H -1.79  1.89  0.65
 H -3.73  3.04  2.74
 H -2.68  3.93  1.64
 H -1.85  2.32  4.13
 H -1.87  4.06  3.95
 H -0.13  2.51  2.16
 H  2.65  2.82  4.03
 H  1.83  1.84  2.94
 H  1.33  3.99  5.49
 N -4.64 -0.67  1.40
 C -5.49  0.23  2.17
 H -5.09 -1.40  0.86
 H -5.17  0.30  3.21
 H -6.51 -0.18  2.17
 H -5.54  1.24  1.74
