35
#
 C -0.79  2.28  0.94
 C -0.98  0.98  1.68
 O -0.03  0.20  1.89
 H -0.78  2.05 -0.13
 H  0.18  2.71  1.21
 H -1.58  3.01  1.14
 N -2.25  0.71  2.07
 C -2.78 -0.56  2.60
 C -2.37 -0.91  4.05
 O -3.23 -1.29  4.85
 H -2.94  1.43  1.89
 H -3.87 -0.41  2.68
 C -2.52 -1.74  1.65
 C -3.28 -1.65  0.32
 C -2.64 -2.46 -0.83
 N -1.72 -1.71 -1.69
 C -0.55 -1.10 -1.24
 N  0.29 -1.90 -0.48
 N -0.30  0.11 -1.61
 H -2.79 -2.67  2.18
 H -1.44 -1.79  1.47
 H -3.34 -0.60 -0.01
 H -4.31 -1.99  0.47
 H -3.43 -2.84 -1.50
 H -2.13 -3.35 -0.44
 H -2.19 -1.05 -2.31
 H  0.75 -1.41  0.29
 H -0.06 -2.81 -0.21
 H  0.66  0.36 -1.36
 N -1.05 -0.82  4.32
 C -0.50 -1.15  5.62
 H -0.43 -0.53  3.56
 H  0.07 -0.30  6.04
 H  0.17 -2.02  5.57
 H -1.33 -1.39  6.30
