35
#
 C -0.34 -0.40  0.14
 C -0.38 -0.40  1.65
 O  0.59 -0.77  2.30
 H  0.66 -0.07 -0.17
 H -1.10  0.21 -0.36
 H -0.48 -1.44 -0.20
 N -1.53 -0.02  2.31
 C -2.80  0.55  1.87
 C -3.42 -0.23  0.67
 O -3.21 -1.43  0.53
 H -1.42 -0.14  3.31
 H -3.51  0.30  2.68
 C -2.79  2.09  1.79
 C -1.82  2.72  0.77
 C -2.20  4.16  0.40
 N -3.41  4.21 -0.44
 C -4.68  4.18  0.11
 N -4.91  5.15  1.08
 N -5.52  3.27 -0.28
 H -2.54  2.46  2.79
 H -3.81  2.42  1.60
 H -1.81  2.13 -0.16
 H -0.79  2.69  1.16
 H -1.38  4.62 -0.17
 H -2.36  4.77  1.29
 H -3.37  3.54 -1.20
 H -5.86  5.22  1.43
 H -4.44  6.04  0.95
 H -6.47  3.45  0.05
 N -4.23  0.47 -0.16
 C -4.94 -0.22 -1.23
 H -4.52  1.44  0.00
 H -4.24 -0.71 -1.91
 H -5.52  0.53 -1.78
 H -5.62 -0.99 -0.84
