35
#
 C -0.75 -0.79 -0.03
 C -0.75 -0.12  1.34
 O  0.28  0.34  1.83
 H -0.11 -1.68  0.02
 H -0.29 -0.10 -0.75
 H -1.74 -1.08 -0.40
 N -1.98 -0.08  1.95
 C -2.35  0.38  3.29
 C -3.16  1.71  3.28
 O -4.28  1.72  3.79
 H -2.74 -0.48  1.41
 H -3.11 -0.33  3.64
 C -1.22  0.37  4.33
 C -1.76  0.58  5.75
 C -0.64  0.59  6.79
 N -1.19  0.79  8.12
 C -0.49  0.65  9.31
 N  0.78  0.10  9.17
 N -0.93  0.91 10.49
 H -0.46  1.12  4.10
 H -0.71 -0.60  4.27
 H -2.49 -0.20  6.00
 H -2.31  1.54  5.80
 H  0.10  1.36  6.52
 H -0.12 -0.38  6.77
 H -2.00  1.39  8.18
 H  1.27  0.11 10.06
 H  1.35  0.44  8.40
 H -1.92  1.18 10.47
 N -2.62  2.85  2.76
 C -1.37  3.06  2.03
 H -3.27  3.62  2.80
 H -1.53  3.02  0.94
 H -0.62  2.31  2.29
 H -0.97  4.05  2.29
