35
#
 C -2.23 -2.18  0.17
 C -2.44 -2.53  1.63
 O -2.46 -3.71  2.02
 H -1.21 -2.49 -0.12
 H -2.35 -1.12 -0.05
 H -2.93 -2.76 -0.44
 N -2.59 -1.48  2.46
 C -2.72 -1.58  3.91
 C -2.88 -0.14  4.40
 O -2.53  0.82  3.70
 H -2.47 -0.52  2.14
 H -3.63 -2.15  4.13
 C -1.53 -2.31  4.60
 C -0.15 -1.93  4.07
 C  0.98 -2.77  4.68
 N  0.75 -4.22  4.70
 C  1.02 -5.04  3.59
 N  0.45 -4.61  2.40
 N  1.78 -6.07  3.78
 H -1.68 -3.39  4.49
 H -1.58 -2.10  5.68
 H  0.07 -0.87  4.25
 H -0.13 -2.06  2.98
 H  1.10 -2.48  5.73
 H  1.92 -2.52  4.17
 H  1.18 -4.67  5.51
 H  0.59 -5.27  1.64
 H -0.53 -4.31  2.45
 H  1.77 -6.68  2.95
 N -3.39  0.06  5.65
 C -3.87 -0.92  6.61
 H -3.40  1.04  5.92
 H -4.69 -0.48  7.19
 H -3.08 -1.25  7.31
 H -4.26 -1.81  6.10
