35
#
 C -0.91 -1.65  0.34
 C -0.68 -0.74  1.54
 O  0.34 -0.07  1.68
 H  0.03 -2.16  0.11
 H -1.17 -1.03 -0.53
 H -1.70 -2.39  0.50
 N -1.72 -0.70  2.43
 C -1.65 -0.03  3.72
 C -1.10  1.42  3.66
 O -0.26  1.81  4.46
 H -2.48 -1.37  2.31
 H -2.70  0.08  4.04
 C -0.87 -0.84  4.78
 C -1.23 -2.32  4.80
 C -2.69 -2.63  5.21
 N -3.22 -3.88  4.64
 C -3.49 -4.01  3.28
 N -4.03 -2.85  2.69
 N -3.32 -5.04  2.54
 H -1.04 -0.37  5.76
 H  0.20 -0.72  4.57
 H -0.54 -2.85  5.47
 H -1.06 -2.75  3.80
 H -3.36 -1.82  4.91
 H -2.78 -2.70  6.30
 H -2.77 -4.72  5.01
 H -4.40 -3.10  1.77
 H -4.76 -2.41  3.26
 H -2.80 -5.78  3.02
 N -1.66  2.29  2.76
 C -2.63  2.05  1.71
 H -1.20  3.19  2.77
 H -3.09  3.01  1.44
 H -3.43  1.39  2.05
 H -2.18  1.62  0.80
