35
#
 C -0.07  0.22 -0.16
 C -0.27 -0.06  1.31
 O  0.67 -0.34  2.06
 H  0.64  1.05 -0.27
 H -1.00  0.47 -0.70
 H  0.38 -0.66 -0.63
 N -1.56  0.02  1.75
 C -1.95 -0.22  3.14
 C -2.93 -1.42  3.14
 O -4.15 -1.23  3.05
 H -2.30  0.21  1.09
 H -1.02 -0.46  3.66
 C -2.59  1.03  3.76
 C -2.65  1.10  5.29
 C -3.44  0.00  6.01
 N -2.64 -1.21  6.16
 C -3.17 -2.48  6.35
 N -2.25 -3.36  6.94
 N -4.31 -2.93  5.97
 H -3.61  1.13  3.34
 H -2.00  1.89  3.40
 H -3.11  2.07  5.55
 H -1.63  1.15  5.70
 H -4.34 -0.24  5.45
 H -3.76  0.38  7.00
 H -1.71 -1.07  6.53
 H -2.69 -4.26  7.10
 H -1.80 -3.01  7.78
 H -4.83 -2.25  5.40
 N -2.40 -2.67  3.17
 C -1.03 -3.07  3.45
 H -3.12 -3.39  3.26
 H -0.84 -4.03  2.96
 H -0.85 -3.19  4.53
 H -0.32 -2.34  3.05
