35
#
 C -0.76  0.64  0.41
 C -0.92  1.03  1.87
 O -0.11  1.76  2.44
 H  0.09  1.21  0.01
 H -1.65  0.88 -0.18
 H -0.54 -0.43  0.30
 N -1.99  0.50  2.55
 C -3.07 -0.30  2.02
 C -4.33  0.56  1.82
 O -4.63  1.44  2.63
 H -2.15  0.94  3.46
 H -2.74 -0.71  1.07
 C -3.43 -1.46  2.98
 C -2.25 -2.34  3.38
 C -1.60 -3.10  2.22
 N -0.38 -3.81  2.59
 C  0.90 -3.37  2.31
 N  1.00 -1.99  2.10
 N  1.97 -4.09  2.22
 H -4.22 -2.07  2.50
 H -3.89 -1.03  3.88
 H -2.57 -3.06  4.15
 H -1.48 -1.72  3.87
 H -1.35 -2.41  1.40
 H -2.32 -3.83  1.81
 H -0.46 -4.82  2.71
 H  1.97 -1.71  2.01
 H  0.50 -1.40  2.76
 H  1.74 -5.09  2.24
 N -5.11  0.28  0.74
 C -4.87 -0.69 -0.31
 H -5.95  0.86  0.67
 H -5.71 -0.66 -1.01
 H -4.81 -1.72  0.08
 H -3.95 -0.48 -0.88
