35
#
 C  0.08  1.24  0.89
 C  0.10  0.08  1.87
 O  1.05 -0.12  2.63
 H -0.68  1.99  1.19
 H -0.18  0.92 -0.12
 H  1.06  1.71  0.89
 N -0.99 -0.75  1.88
 C -2.25 -0.59  1.18
 C -3.08  0.66  1.59
 O -3.56  1.37  0.71
 H -0.92 -1.50  2.57
 H -2.06 -0.40  0.11
 C -3.06 -1.89  1.29
 C -4.47 -1.82  0.70
 C -5.19 -3.17  0.77
 N -6.59 -3.12  0.40
 C -7.53 -2.68  1.32
 N -8.84 -2.65  0.81
 N -7.19 -2.42  2.53
 H -3.14 -2.19  2.35
 H -2.48 -2.68  0.79
 H -4.43 -1.46 -0.34
 H -5.07 -1.09  1.26
 H -5.15 -3.56  1.80
 H -4.69 -3.91  0.12
 H -6.79 -2.94 -0.57
 H -9.44 -1.96  1.25
 H -8.95 -2.69 -0.19
 H -8.01 -2.23  3.11
 N -3.26  0.95  2.91
 C -2.83  0.23  4.11
 H -3.81  1.78  3.05
 H -1.75  0.31  4.28
 H -3.11 -0.83  4.07
 H -3.35  0.67  4.97
