35
#
 C -2.52 -0.34  0.75
 C -1.48 -0.50  1.84
 O -0.46 -1.17  1.69
 H -2.02  0.01 -0.17
 H -3.32  0.36  1.01
 H -2.95 -1.32  0.52
 N -1.78  0.15  3.01
 C -0.91  0.06  4.15
 C -1.65 -0.54  5.35
 O -2.86 -0.38  5.55
 H -2.66  0.66  3.10
 H -0.12 -0.63  3.84
 C -0.22  1.42  4.49
 C -1.09  2.67  4.34
 C -2.19  2.85  5.41
 N -3.36  3.60  4.98
 C -4.28  3.12  4.05
 N -4.30  1.73  3.89
 N -5.10  3.83  3.35
 H  0.64  1.52  3.81
 H  0.21  1.37  5.51
 H -1.58  2.64  3.35
 H -0.45  3.56  4.32
 H -1.77  3.37  6.29
 H -2.52  1.87  5.78
 H -3.24  4.61  4.93
 H -5.15  1.45  3.42
 H -4.07  1.15  4.70
 H -4.94  4.83  3.49
 N -0.89 -1.26  6.23
 C  0.50 -1.66  6.09
 H -1.42 -1.63  7.01
 H  0.75 -2.31  6.94
 H  1.18 -0.80  6.13
 H  0.69 -2.22  5.16
