35
#
 C  0.37 -0.47  0.50
 C -0.06 -0.25  1.94
 O  0.74 -0.38  2.88
 H  1.46 -0.36  0.46
 H -0.10  0.24 -0.19
 H  0.12 -1.49  0.17
 N -1.36  0.11  2.18
 C -2.49 -0.32  1.36
 C -3.75  0.53  1.64
 O -4.88  0.11  1.40
 H -1.57  0.26  3.19
 H -2.24 -0.09  0.30
 C -2.80 -1.83  1.41
 C -3.23 -2.47  2.74
 C -2.12 -2.89  3.74
 N -1.52 -1.83  4.55
 C -2.33 -0.90  5.19
 N -3.28 -1.44  6.04
 N -2.12  0.36  4.99
 H -1.93 -2.37  1.00
 H -3.62 -1.98  0.69
 H -3.78 -3.38  2.49
 H -3.96 -1.82  3.25
 H -2.54 -3.66  4.40
 H -1.30 -3.38  3.20
 H -0.70 -1.37  4.13
 H -4.14 -0.92  6.17
 H -3.38 -2.45  6.07
 H -2.65  0.95  5.64
 N -3.49  1.78  2.11
 C -4.54  2.72  2.46
 H -2.53  2.00  2.35
 H -5.49  2.29  2.13
 H -4.58  2.88  3.55
 H -4.38  3.69  1.97
