35
#
 C -0.28  0.06 -0.53
 C  0.03  0.28  0.94
 O  1.18  0.41  1.35
 H -1.16  0.61 -0.88
 H -0.48 -1.01 -0.71
 H  0.60  0.35 -1.11
 N -1.01  0.30  1.84
 C -2.46  0.24  1.62
 C -2.89 -0.96  0.74
 O -3.56 -0.81 -0.28
 H -0.69  0.45  2.79
 H -2.88  0.03  2.62
 C -3.09  1.55  1.11
 C -2.72  2.79  1.93
 C -3.26  2.77  3.37
 N -2.94  4.03  4.04
 C -3.25  4.25  5.38
 N -4.47  3.71  5.78
 N -2.40  4.89  6.11
 H -4.18  1.41  1.08
 H -2.78  1.70  0.07
 H -3.13  3.68  1.43
 H -1.63  2.91  1.95
 H -2.84  1.90  3.93
 H -4.35  2.62  3.34
 H -2.00  4.36  3.86
 H -4.79  4.04  6.68
 H -5.21  3.72  5.08
 H -2.79  5.11  7.03
 N -2.51 -2.20  1.16
 C -1.76 -2.59  2.34
 H -2.81 -2.94  0.52
 H -2.10 -2.04  3.23
 H -0.68 -2.43  2.23
 H -1.94 -3.66  2.53
