35
#
 C -1.53  0.54 -0.48
 C -0.85 -0.16  0.68
 O  0.26 -0.69  0.57
 H -0.84  0.56 -1.32
 H -1.83  1.57 -0.22
 H -2.44  0.00 -0.79
 N -1.52 -0.18  1.88
 C -2.87  0.29  2.16
 C -2.98  1.79  2.53
 O -4.09  2.32  2.59
 H -1.06 -0.75  2.59
 H -3.47  0.20  1.25
 C -3.53 -0.56  3.27
 C -4.30 -1.78  2.76
 C -5.46 -1.42  1.80
 N -6.21 -0.22  2.11
 C -6.83 -0.04  3.35
 N -6.95  1.29  3.70
 N -7.33 -0.96  4.11
 H -4.21  0.08  3.84
 H -2.75 -0.88  3.98
 H -4.70 -2.31  3.64
 H -3.63 -2.49  2.25
 H -6.15 -2.28  1.73
 H -5.08 -1.29  0.77
 H -5.81  0.64  1.74
 H -7.33  1.41  4.63
 H -6.14  1.88  3.49
 H -7.29 -1.88  3.66
 N -1.81  2.43  2.76
 C -1.73  3.83  3.11
 H -0.96  1.88  2.65
 H -1.27  3.97  4.10
 H -2.75  4.24  3.13
 H -1.14  4.39  2.37
