35
#
 C  0.28 -0.52  0.88
 C -0.29  0.60  1.73
 O  0.07  1.77  1.62
 H  1.12 -0.11  0.31
 H -0.47 -0.92  0.19
 H  0.63 -1.36  1.50
 N -1.26  0.26  2.65
 C -1.93 -1.02  2.80
 C -2.79 -1.48  1.60
 O -2.75 -2.66  1.26
 H -1.62  1.05  3.17
 H -1.18 -1.82  2.87
 C -2.72 -1.02  4.13
 C -3.50 -2.31  4.42
 C -4.96 -2.25  3.94
 N -5.60 -3.54  4.07
 C -6.97 -3.68  3.89
 N -7.37 -5.02  3.90
 N -7.85 -2.75  3.73
 H -3.40 -0.15  4.16
 H -1.98 -0.85  4.93
 H -3.50 -2.51  5.50
 H -3.00 -3.16  3.94
 H -5.01 -1.87  2.90
 H -5.51 -1.53  4.57
 H -5.06 -4.31  3.68
 H -8.39 -5.09  3.90
 H -6.94 -5.59  4.62
 H -7.41 -1.84  3.60
 N -3.56 -0.58  0.92
 C -3.84  0.82  1.20
 H -4.06 -1.01  0.14
 H -4.72  1.11  0.61
 H -3.01  1.48  0.92
 H -4.09  0.99  2.25
