35
#
 C  0.07  0.35 -0.39
 C  0.22  0.00  1.08
 O  1.29 -0.40  1.53
 H -0.92  0.73 -0.67
 H  0.28 -0.55 -0.99
 H  0.83  1.10 -0.65
 N -0.91  0.18  1.83
 C -1.17 -0.09  3.25
 C -1.29  1.18  4.13
 O -2.29  1.31  4.83
 H -1.72  0.54  1.32
 H -2.20 -0.48  3.28
 C -0.29 -1.16  3.92
 C -0.42 -2.55  3.29
 C  0.42 -3.58  4.04
 N  0.30 -4.89  3.42
 C  0.88 -6.01  3.99
 N  0.77 -7.14  3.17
 N  1.47 -6.11  5.13
 H -0.62 -1.19  4.97
 H  0.77 -0.85  3.92
 H -0.09 -2.51  2.24
 H -1.47 -2.87  3.30
 H  0.07 -3.66  5.08
 H  1.48 -3.24  4.07
 H  0.34 -4.88  2.40
 H  1.08 -7.97  3.67
 H -0.15 -7.27  2.75
 H  1.61 -5.19  5.56
 N -0.29  2.11  4.14
 C  0.96  2.17  3.41
 H -0.52  2.89  4.75
 H  1.32  1.17  3.15
 H  1.72  2.65  4.04
 H  0.87  2.75  2.48
