35
#
 C -0.53 -0.46  0.49
 C -0.17  0.29  1.77
 O  1.00  0.53  2.08
 H -0.04 -1.45  0.51
 H -0.12  0.09 -0.37
 H -1.60 -0.60  0.35
 N -1.24  0.66  2.53
 C -1.14  1.41  3.78
 C -0.38  2.76  3.62
 O  0.54  3.08  4.35
 H -2.17  0.45  2.19
 H -2.17  1.68  4.03
 C -0.53  0.62  4.95
 C -1.07 -0.79  5.20
 C -2.57 -0.94  5.50
 N -3.40 -1.01  4.30
 C -4.15  0.03  3.80
 N -4.43 -0.11  2.42
 N -4.56  1.11  4.38
 H -0.66  1.24  5.85
 H  0.56  0.56  4.79
 H -0.52 -1.20  6.06
 H -0.81 -1.45  4.35
 H -2.93 -0.12  6.12
 H -2.74 -1.86  6.08
 H -3.01 -1.62  3.58
 H -5.15  0.55  2.15
 H -4.68 -1.06  2.15
 H -4.24  1.16  5.35
 N -0.84  3.60  2.64
 C -2.01  3.48  1.79
 H -0.29  4.46  2.58
 H -2.33  4.48  1.48
 H -2.85  3.02  2.32
 H -1.80  2.89  0.87
