35
#
 C  0.38  0.35  0.66
 C -0.20 -0.29  1.91
 O  0.54 -0.80  2.75
 H  0.05 -0.16 -0.25
 H  1.46  0.26  0.74
 H  0.10  1.40  0.58
 N -1.56 -0.31  2.14
 C -2.79  0.09  1.44
 C -3.73 -1.13  1.22
 O -4.85 -1.11  1.74
 H -1.75 -0.76  3.03
 H -3.37  0.70  2.15
 C -2.62  0.93  0.16
 C -3.96  1.25 -0.50
 C -3.80  2.10 -1.78
 N -2.86  1.57 -2.77
 C -2.91  0.27 -3.26
 N -4.20 -0.23 -3.42
 N -1.90 -0.49 -3.55
 H -1.99  0.40 -0.56
 H -2.10  1.86  0.43
 H -4.62  1.79  0.19
 H -4.48  0.32 -0.76
 H -3.45  3.11 -1.53
 H -4.79  2.24 -2.24
 H -1.90  1.88 -2.63
 H -4.20 -1.10 -3.95
 H -4.90  0.43 -3.74
 H -1.02 -0.05 -3.27
 N -3.32 -2.19  0.48
 C -2.09 -2.41 -0.27
 H -4.04 -2.91  0.42
 H -1.21 -2.22  0.34
 H -2.05 -1.80 -1.19
 H -2.06 -3.46 -0.58
