35
#
 C  0.60  0.78 -0.40
 C  0.96  0.72  1.07
 O  2.12  0.88  1.46
 H -0.22  1.47 -0.61
 H  0.29 -0.21 -0.77
 H  1.49  1.09 -0.95
 N -0.04  0.41  1.97
 C -1.48  0.56  1.79
 C -2.07 -0.39  0.72
 O -2.77  0.01 -0.21
 H  0.26  0.45  2.95
 H -1.90  0.20  2.74
 C -1.95  2.02  1.56
 C -2.99  2.55  2.55
 C -2.57  2.57  4.04
 N -1.26  3.16  4.29
 C -0.11  2.39  4.41
 N  1.04  3.04  4.00
 N -0.03  1.18  4.87
 H -2.36  2.09  0.55
 H -1.06  2.66  1.60
 H -3.92  1.97  2.47
 H -3.26  3.57  2.25
 H -2.55  1.55  4.44
 H -3.33  3.11  4.62
 H -1.13  4.11  3.97
 H  1.85  2.42  4.01
 H  0.98  3.56  3.13
 H -0.90  0.89  5.31
 N -1.79 -1.72  0.86
 C -1.04 -2.40  1.91
 H -2.20 -2.29  0.12
 H -1.33 -3.46  1.90
 H -1.27 -2.00  2.90
 H  0.05 -2.33  1.76
