35
#
 C -0.25 -0.33 -0.50
 C -0.14 -0.36  1.02
 O  0.95 -0.46  1.57
 H -1.24 -0.63 -0.87
 H  0.52 -0.97 -0.93
 H -0.06  0.70 -0.83
 N -1.34 -0.30  1.67
 C -1.58  0.05  3.07
 C -1.51  1.59  3.24
 O -0.92  2.30  2.42
 H -2.13 -0.12  1.07
 H -2.61 -0.28  3.28
 C -0.64 -0.65  4.07
 C -0.66 -2.18  3.98
 C  0.60 -2.83  4.59
 N  1.81 -2.41  3.90
 C  2.64 -1.45  4.46
 N  3.41 -0.80  3.50
 N  2.69 -1.29  5.75
 H -0.92 -0.34  5.09
 H  0.38 -0.28  3.90
 H -0.73 -2.49  2.92
 H -1.55 -2.59  4.48
 H  0.50 -3.92  4.55
 H  0.73 -2.55  5.64
 H  1.73 -2.34  2.89
 H  3.94 -0.01  3.87
 H  2.90 -0.54  2.66
 H  3.34 -0.54  5.99
 N -2.13  2.14  4.32
 C -2.84  1.49  5.41
 H -1.98  3.14  4.40
 H -3.60  2.17  5.80
 H -2.18  1.19  6.24
 H -3.37  0.59  5.05
