35
#
 C -1.48 -1.50  0.22
 C -1.99 -2.93  0.22
 O -1.42 -3.79 -0.44
 H -1.16 -1.19  1.23
 H -0.63 -1.46 -0.45
 H -2.24 -0.78 -0.12
 N -3.09 -3.30  0.97
 C -4.12 -2.65  1.79
 C -5.53 -2.84  1.20
 O -6.43 -3.27  1.94
 H -3.25 -4.30  0.85
 H -4.18 -3.24  2.72
 C -3.85 -1.20  2.24
 C -4.87 -0.67  3.26
 C -6.10  0.02  2.63
 N -7.10  0.48  3.57
 C -7.94 -0.35  4.30
 N -8.27 -1.56  3.70
 N -8.42  0.11  5.41
 H -3.81 -0.51  1.38
 H -2.85 -1.18  2.69
 H -5.21 -1.48  3.92
 H -4.37  0.07  3.91
 H -5.76  0.90  2.06
 H -6.59 -0.63  1.89
 H -6.86  1.29  4.13
 H -7.61 -2.02  3.07
 H -8.72 -2.22  4.32
 H -9.10 -0.54  5.82
 N -5.79 -2.54 -0.10
 C -4.93 -1.97 -1.12
 H -6.75 -2.74 -0.35
 H -5.56 -1.66 -1.96
 H -4.19 -2.70 -1.49
 H -4.40 -1.08 -0.76
