35
#
 C -0.89 -1.51  0.52
 C -2.07 -2.19  1.18
 O -1.95 -3.28  1.73
 H -1.16 -0.83 -0.30
 H -0.22 -2.28  0.15
 H -0.34 -0.92  1.27
 N -3.30 -1.57  1.15
 C -3.67 -0.20  0.75
 C -3.72  0.00 -0.77
 O -3.84  1.13 -1.27
 H -3.99 -2.08  1.70
 H -4.72 -0.08  1.06
 C -2.88  0.90  1.51
 C -3.50  2.30  1.57
 C -4.83  2.44  2.33
 N -5.97  1.67  1.80
 C -6.81  2.19  0.81
 N -6.14  2.77 -0.26
 N -8.08  2.10  0.99
 H -1.87  0.99  1.08
 H -2.75  0.52  2.54
 H -3.59  2.71  0.56
 H -2.78  2.95  2.09
 H -5.08  3.51  2.39
 H -4.68  2.09  3.36
 H -6.58  1.33  2.55
 H -6.75  3.05 -1.02
 H -5.29  2.30 -0.59
 H -8.60  2.37  0.15
 N -3.70 -1.13 -1.52
 C -3.82 -1.13 -2.96
 H -3.62 -2.00 -1.01
 H -4.73 -1.66 -3.28
 H -2.95 -1.61 -3.43
 H -3.88 -0.09 -3.29
