35
#
 C -4.55  0.82  0.30
 C -3.16  0.57  0.86
 O -2.18  0.38  0.13
 H -5.29  1.08  1.07
 H -4.88 -0.09 -0.22
 H -4.49  1.62 -0.44
 N -3.06  0.60  2.22
 C -1.86  0.19  2.92
 C -2.29 -0.74  4.06
 O -3.40 -0.65  4.58
 H -3.90  0.57  2.80
 H -1.22 -0.33  2.19
 C -1.07  1.40  3.50
 C -0.57  2.36  2.42
 C  0.15  3.59  2.97
 N  1.40  3.23  3.63
 C  2.22  4.17  4.25
 N  2.27  5.40  3.60
 N  2.83  3.84  5.34
 H -0.23  0.99  4.09
 H -1.72  1.93  4.21
 H -1.43  2.71  1.83
 H  0.10  1.83  1.72
 H -0.53  4.14  3.66
 H  0.36  4.27  2.13
 H  1.33  2.42  4.25
 H  3.03  6.00  3.91
 H  2.18  5.38  2.59
 H  3.50  4.55  5.62
 N -1.34 -1.63  4.47
 C -1.52 -2.53  5.59
 H -0.46 -1.66  3.96
 H -0.78 -2.35  6.37
 H -1.46 -3.58  5.27
 H -2.52 -2.35  6.00
