35
#
 C -1.52  0.99 -0.31
 C -0.96  0.20  0.87
 O -0.02 -0.58  0.73
 H -1.88  0.27 -1.06
 H -0.70  1.55 -0.77
 H -2.33  1.68 -0.05
 N -1.58  0.46  2.06
 C -1.39 -0.15  3.38
 C -0.67  0.78  4.40
 O -1.21  0.93  5.51
 H -2.31  1.16  2.03
 H -2.39 -0.20  3.83
 C -0.84 -1.59  3.37
 C -0.83 -2.23  4.78
 C  0.58 -2.59  5.28
 N  1.55 -1.51  5.18
 C  1.92 -0.66  6.20
 N  0.95 -0.47  7.19
 N  3.11 -0.15  6.17
 H  0.16 -1.61  2.93
 H -1.48 -2.17  2.69
 H -1.43 -3.16  4.77
 H -1.33 -1.57  5.50
 H  0.97 -3.43  4.69
 H  0.51 -2.94  6.33
 H  2.33 -1.66  4.55
 H  1.24  0.20  7.89
 H  0.02 -0.22  6.82
 H  3.23  0.56  6.90
 N  0.48  1.41  4.10
 C  1.44  1.16  3.03
 H  0.83  1.95  4.89
 H  1.11  0.34  2.39
 H  2.41  0.89  3.47
 H  1.57  2.06  2.40
