35
#
 C  1.28  0.80  0.72
 C  0.81  0.22  2.04
 O  1.40 -0.74  2.56
 H  2.37  0.91  0.76
 H  0.82  1.76  0.49
 H  1.05  0.09 -0.08
 N -0.27  0.81  2.59
 C -0.81  0.37  3.88
 C -1.78 -0.84  3.72
 O -2.97 -0.80  4.02
 H -0.81  1.47  2.01
 H  0.05 -0.03  4.43
 C -1.43  1.52  4.70
 C -2.12  2.64  3.92
 C -3.30  2.20  3.04
 N -3.65  3.23  2.05
 C -2.91  3.33  0.89
 N -3.48  4.20 -0.05
 N -1.82  2.65  0.73
 H -0.63  1.97  5.30
 H -2.14  1.06  5.40
 H -1.38  3.14  3.28
 H -2.47  3.40  4.63
 H -4.19  2.02  3.66
 H -3.08  1.26  2.53
 H -4.63  3.45  1.97
 H -2.86  4.46 -0.80
 H -3.97  5.00  0.34
 H -1.37  2.89 -0.15
 N -1.15 -1.95  3.25
 C -1.84 -3.19  2.97
 H -0.15 -1.85  3.03
 H -1.36 -4.03  3.49
 H -1.86 -3.41  1.89
 H -2.87 -3.09  3.33
