35
#
 C -1.18 -1.64 -0.24
 C -0.72 -0.97  1.04
 O -0.11  0.10  1.04
 H -1.89 -0.98 -0.74
 H -1.65 -2.62 -0.08
 H -0.31 -1.76 -0.90
 N -1.00 -1.65  2.20
 C -0.76 -1.09  3.52
 C  0.08 -2.05  4.38
 O -0.31 -2.49  5.47
 H -1.56 -2.49  2.13
 H -0.13 -0.21  3.32
 C -2.05 -0.58  4.21
 C -3.34 -1.37  3.98
 C -3.39 -2.82  4.50
 N -3.12 -2.96  5.92
 C -4.08 -2.64  6.85
 N -3.58 -2.62  8.16
 N -5.29 -2.35  6.50
 H -2.22  0.44  3.85
 H -1.84 -0.51  5.29
 H -3.59 -1.39  2.90
 H -4.16 -0.82  4.46
 H -2.67 -3.46  3.98
 H -4.39 -3.22  4.31
 H -2.15 -2.79  6.17
 H -2.84 -3.30  8.34
 H -4.30 -2.65  8.88
 H -5.90 -2.23  7.31
 N  1.31 -2.39  3.92
 C  2.01 -1.95  2.72
 H  1.80 -3.04  4.53
 H  3.08 -1.93  2.92
 H  1.70 -0.94  2.42
 H  1.83 -2.62  1.86
