35
#
 C -0.29  1.84  0.09
 C  0.02  0.74  1.09
 O  1.16  0.32  1.27
 H  0.65  2.14 -0.37
 H -0.73  2.72  0.59
 H -0.99  1.50 -0.69
 N -1.04  0.20  1.78
 C -2.43  0.63  1.79
 C -2.75  1.27  3.16
 O -2.60  0.65  4.21
 H -0.77 -0.46  2.50
 H -2.55  1.37  0.99
 C -3.39 -0.56  1.56
 C -3.29 -1.15  0.15
 C -4.07 -0.33 -0.90
 N -3.87 -0.83 -2.26
 C -2.88 -0.31 -3.06
 N -2.91 -0.83 -4.36
 N -2.07  0.59 -2.60
 H -4.42 -0.22  1.76
 H -3.17 -1.32  2.31
 H -3.68 -2.18  0.15
 H -2.24 -1.21 -0.16
 H -3.76  0.72 -0.87
 H -5.14 -0.37 -0.68
 H -4.70 -1.16 -2.74
 H -2.10 -0.60 -4.92
 H -3.13 -1.82 -4.41
 H -1.33  0.80 -3.29
 N -3.19  2.56  3.09
 C -3.52  3.34  4.28
 H -3.24  3.01  2.19
 H -2.85  4.20  4.39
 H -3.41  2.68  5.14
 H -4.56  3.69  4.24
