35
#
 C  0.85 -0.17 -0.15
 C  0.32  0.03  1.26
 O  0.78 -0.61  2.21
 H  1.93  0.03 -0.15
 H  0.36  0.47 -0.89
 H  0.70 -1.22 -0.43
 N -0.67  0.95  1.39
 C -1.39  1.16  2.63
 C -2.87  1.39  2.27
 O -3.21  1.84  1.18
 H -1.11  1.36  0.57
 H -1.32  0.24  3.22
 C -0.83  2.35  3.46
 C  0.31  1.95  4.40
 C -0.16  1.42  5.76
 N -1.26  0.44  5.71
 C -1.03 -0.95  5.71
 N  0.09 -1.36  5.02
 N -1.87 -1.68  6.38
 H -1.65  2.80  4.04
 H -0.50  3.12  2.75
 H  0.94  2.83  4.61
 H  0.97  1.22  3.90
 H -0.55  2.27  6.35
 H  0.70  1.01  6.32
 H -1.99  0.62  6.40
 H  0.18 -2.37  4.95
 H  0.33 -0.90  4.13
 H -1.70 -2.67  6.22
 N -3.72  1.07  3.28
 C -5.16  1.26  3.19
 H -3.31  0.68  4.13
 H -5.50  2.01  3.92
 H -5.69  0.31  3.38
 H -5.39  1.61  2.18
