35
#
 C -0.33  0.21 -0.40
 C -0.81 -0.23  0.97
 O -0.93 -1.42  1.27
 H  0.65 -0.25 -0.59
 H -0.25  1.30 -0.51
 H -1.03 -0.18 -1.15
 N -1.09  0.78  1.85
 C -1.64  0.53  3.18
 C -3.14  0.89  3.15
 O -3.50  2.07  3.03
 H -1.12  1.74  1.51
 H -1.49 -0.54  3.36
 C -0.93  1.35  4.26
 C  0.55  1.02  4.40
 C  1.25  1.87  5.46
 N  2.67  1.54  5.52
 C  3.53  2.10  6.46
 N  3.24  3.43  6.78
 N  4.46  1.37  6.96
 H -1.45  1.17  5.22
 H -1.08  2.42  4.05
 H  1.06  1.16  3.43
 H  0.67 -0.05  4.65
 H  0.75  1.73  6.44
 H  1.13  2.93  5.19
 H  2.87  0.54  5.44
 H  3.98  3.90  7.28
 H  2.86  4.00  6.02
 H  5.10  1.92  7.54
 N -4.03 -0.13  3.23
 C -3.77 -1.56  3.31
 H -5.00  0.18  3.20
 H -3.52 -1.88  4.34
 H -2.96 -1.86  2.64
 H -4.68 -2.10  3.01
