35
#
 C  0.11 -0.49 -0.01
 C -0.09 -0.54  1.50
 O  0.71 -1.09  2.24
 H  0.16 -1.51 -0.39
 H  1.08 -0.01 -0.21
 H -0.68  0.06 -0.54
 N -1.22  0.08  1.95
 C -1.59  0.13  3.37
 C -2.95 -0.60  3.51
 O -4.00  0.02  3.37
 H -1.87  0.48  1.29
 H -0.79 -0.39  3.89
 C -1.68  1.59  3.86
 C -1.53  1.82  5.37
 C -2.49  1.09  6.30
 N -2.04 -0.28  6.54
 C -2.88 -1.20  7.14
 N -2.22 -2.40  7.48
 N -4.14 -0.97  7.25
 H -2.65  1.99  3.52
 H -0.89  2.15  3.34
 H -1.65  2.90  5.54
 H -0.49  1.60  5.67
 H -3.51  1.03  5.88
 H -2.58  1.64  7.25
 H -1.05 -0.37  6.74
 H -2.72 -2.95  8.18
 H -1.24 -2.31  7.74
 H -4.63 -1.78  7.64
 N -2.93 -1.94  3.71
 C -1.80 -2.83  3.95
 H -3.86 -2.33  3.83
 H -1.98 -3.79  3.45
 H -1.64 -3.01  5.02
 H -0.88 -2.41  3.52
