35
#
 C -0.68  0.68 -0.63
 C -0.41  0.34  0.82
 O  0.67  0.56  1.36
 H -0.50  1.76 -0.78
 H -1.69  0.44 -0.97
 H  0.05  0.14 -1.26
 N -1.47 -0.20  1.49
 C -1.36 -0.67  2.86
 C -2.45 -1.74  3.05
 O -3.41 -1.78  2.28
 H -2.33 -0.48  1.03
 H -0.36 -1.11  2.98
 C -1.46  0.49  3.89
 C -2.69  1.40  3.80
 C -4.03  0.82  4.28
 N -3.98  0.35  5.65
 C -4.42 -0.89  6.09
 N -4.05 -1.14  7.43
 N -5.05 -1.80  5.44
 H -0.56  1.11  3.73
 H -1.37  0.07  4.91
 H -2.83  1.74  2.76
 H -2.48  2.31  4.38
 H -4.33 -0.02  3.64
 H -4.81  1.59  4.17
 H -3.37  0.86  6.28
 H -4.55 -1.96  7.77
 H -4.18 -0.35  8.06
 H -5.20 -1.55  4.46
 N -2.33 -2.60  4.09
 C -1.33 -2.64  5.14
 H -3.20 -3.11  4.27
 H -1.63 -2.04  6.01
 H -0.37 -2.27  4.76
 H -1.19 -3.68  5.46
