35
#
 C  0.14 -0.57  0.04
 C -0.00 -0.83  1.52
 O  0.62 -1.71  2.10
 H  1.16 -0.21 -0.16
 H -0.57  0.17 -0.36
 H  0.02 -1.51 -0.50
 N -0.90 -0.01  2.18
 C -1.02  0.00  3.63
 C -2.42 -0.43  4.14
 O -2.75 -0.22  5.31
 H -1.28  0.78  1.66
 H -0.33 -0.78  3.97
 C -0.61  1.35  4.24
 C -1.42  2.55  3.74
 C -1.09  3.83  4.51
 N -1.77  5.03  4.01
 C -1.51  5.55  2.75
 N -0.16  5.52  2.38
 N -2.50  5.99  2.05
 H  0.46  1.50  4.04
 H -0.73  1.25  5.33
 H -2.50  2.34  3.85
 H -1.23  2.73  2.67
 H  0.00  4.00  4.49
 H -1.35  3.72  5.57
 H -2.77  5.03  4.18
 H  0.04  6.09  1.56
 H  0.50  5.68  3.13
 H -2.17  6.49  1.21
 N -3.20 -1.08  3.24
 C -4.48 -1.65  3.58
 H -2.80 -1.24  2.32
 H -4.45 -2.75  3.55
 H -5.27 -1.30  2.90
 H -4.73 -1.34  4.60
