35
#
 C  0.63  1.81  0.99
 C  0.04  2.09  2.36
 O  0.31  3.09  3.01
 H  1.46  2.50  0.84
 H -0.12  1.99  0.21
 H  0.97  0.78  0.88
 N -0.85  1.15  2.86
 C -1.33 -0.08  2.25
 C -2.09  0.15  0.92
 O -1.79 -0.54 -0.07
 H -1.19  1.39  3.79
 H -0.47 -0.69  1.93
 C -2.13 -0.86  3.30
 C -2.41 -2.35  3.03
 C -3.28 -2.69  1.81
 N -4.47 -1.84  1.76
 C -5.21 -1.57  0.61
 N -4.52 -1.72 -0.59
 N -6.45 -1.18  0.59
 H -3.08 -0.34  3.51
 H -1.54 -0.81  4.23
 H -2.88 -2.76  3.94
 H -1.46 -2.90  2.92
 H -3.54 -3.76  1.85
 H -2.71 -2.53  0.90
 H -5.07 -1.91  2.58
 H -3.54 -1.44 -0.61
 H -5.07 -1.37 -1.37
 H -6.87 -1.24  1.52
 N -3.05  1.10  0.83
 C -3.78  1.79  1.88
 H -3.50  1.10 -0.09
 H -4.31  2.64  1.44
 H -3.10  2.18  2.64
 H -4.52  1.13  2.36
