35
#
 C  1.06  0.92  0.42
 C  0.18  0.47  1.58
 O  0.07  1.12  2.62
 H  2.07  1.11  0.81
 H  0.68  1.87  0.03
 H  1.12  0.19 -0.40
 N -0.47 -0.72  1.39
 C -1.45 -1.22  2.34
 C -0.94 -1.78  3.68
 O -1.77 -1.89  4.59
 H -0.38 -1.19  0.50
 H -2.06 -0.36  2.67
 C -2.41 -2.22  1.66
 C -1.79 -3.53  1.15
 C -1.61 -4.63  2.20
 N -2.89 -5.05  2.77
 C -3.04 -5.48  4.09
 N -2.26 -4.81  5.02
 N -3.84 -6.42  4.49
 H -2.89 -1.69  0.83
 H -3.20 -2.46  2.38
 H -0.81 -3.36  0.66
 H -2.44 -3.92  0.35
 H -0.98 -4.30  3.03
 H -1.08 -5.49  1.74
 H -3.46 -5.61  2.13
 H -2.51 -5.08  5.96
 H -2.19 -3.79  4.91
 H -4.24 -6.93  3.69
 N  0.35 -2.17  3.88
 C  1.51 -2.22  3.00
 H  0.49 -2.48  4.84
 H  2.27 -2.83  3.49
 H  1.93 -1.22  2.82
 H  1.27 -2.68  2.04
