35
#
 C -0.34 -0.32 -0.19
 C -0.17 -0.28  1.31
 O  0.69 -0.94  1.90
 H  0.62 -0.09 -0.66
 H -1.10  0.37 -0.58
 H -0.61 -1.34 -0.49
 N -1.03  0.56  1.98
 C -1.12  0.56  3.44
 C -2.44  1.12  3.96
 O -3.04  0.50  4.85
 H -1.82  0.91  1.46
 H -1.10 -0.48  3.78
 C  0.08  1.28  4.12
 C  0.16  1.08  5.65
 C -0.24  2.29  6.52
 N -1.66  2.60  6.45
 C -2.21  3.85  6.38
 N -1.36  4.89  6.79
 N -3.40  4.00  5.89
 H  0.07  2.35  3.87
 H  0.98  0.86  3.65
 H  1.20  0.84  5.92
 H -0.43  0.21  5.95
 H  0.33  3.17  6.19
 H  0.07  2.07  7.56
 H -2.30  1.85  6.22
 H -0.78  4.70  7.60
 H -1.83  5.79  6.87
 H -3.74  4.96  6.02
 N -2.92  2.32  3.51
 C -2.21  3.35  2.76
 H -3.62  2.70  4.16
 H -2.91  3.84  2.07
 H -1.39  2.93  2.18
 H -1.81  4.12  3.44
