35
#
 C -1.77  0.30  0.44
 C -1.04  0.41  1.76
 O  0.03 -0.16  1.97
 H -1.98 -0.76  0.24
 H -1.12  0.65 -0.36
 H -2.72  0.86  0.41
 N -1.64  1.20  2.70
 C -1.11  1.33  4.04
 C -2.31  1.62  4.96
 O -3.38  2.03  4.49
 H -2.58  1.56  2.57
 H -0.68  0.35  4.32
 C  0.04  2.36  4.14
 C -0.20  3.75  3.54
 C -1.33  4.58  4.15
 N -1.26  4.58  5.61
 C -2.32  4.95  6.44
 N -3.58  4.68  5.94
 N -2.02  5.50  7.57
 H  0.89  1.90  3.61
 H  0.35  2.46  5.19
 H -0.39  3.66  2.46
 H  0.75  4.30  3.62
 H -2.30  4.17  3.85
 H -1.29  5.60  3.74
 H -0.40  4.95  6.00
 H -3.70  3.85  5.35
 H -4.33  4.80  6.62
 H -2.86  5.63  8.15
 N -2.17  1.41  6.29
 C -0.98  1.09  7.05
 H -2.98  1.72  6.82
 H -0.42  2.00  7.33
 H -0.32  0.43  6.48
 H -1.26  0.57  7.97
