35
#
 C -0.21  0.18 -0.37
 C  0.04 -0.20  1.06
 O  1.12 -0.66  1.44
 H -0.00  1.26 -0.53
 H -1.23 -0.05 -0.70
 H  0.51 -0.38 -0.99
 N -0.95 -0.02  2.01
 C -2.30  0.53  1.97
 C -3.32 -0.42  1.28
 O -3.02 -1.15  0.35
 H -0.64 -0.35  2.92
 H -2.59  0.61  3.03
 C -2.39  1.95  1.37
 C -1.59  2.97  2.18
 C -1.56  4.38  1.55
 N -0.90  4.48  0.26
 C  0.42  4.10  0.04
 N  1.32  4.48  1.03
 N  0.72  3.52 -1.07
 H -3.45  2.25  1.33
 H -2.05  1.92  0.33
 H -0.56  2.61  2.30
 H -2.02  3.06  3.19
 H -1.09  5.08  2.26
 H -2.58  4.76  1.41
 H -1.46  4.19 -0.54
 H  2.16  3.92  1.10
 H  0.95  4.78  1.93
 H  1.73  3.42 -1.19
 N -4.60 -0.36  1.76
 C -5.11  0.34  2.93
 H -5.23 -0.99  1.28
 H -4.65 -0.02  3.87
 H -6.19  0.16  3.00
 H -4.97  1.43  2.86
