35
#
 C -0.29  1.04  0.66
 C -0.26  0.46  2.06
 O  0.76  0.47  2.74
 H -0.61  2.09  0.71
 H -0.96  0.50 -0.03
 H  0.73  1.02  0.27
 N -1.43 -0.08  2.58
 C -2.80 -0.14  2.07
 C -3.05 -1.26  1.03
 O -4.12 -1.34  0.44
 H -1.29 -0.34  3.55
 H -3.40 -0.44  2.94
 C -3.38  1.19  1.56
 C -3.20  2.36  2.52
 C -3.62  3.69  1.87
 N -3.06  4.87  2.52
 C -1.73  5.19  2.33
 N -1.31  6.24  3.15
 N -1.00  4.52  1.49
 H -4.44  1.00  1.34
 H -2.93  1.44  0.59
 H -2.14  2.45  2.80
 H -3.76  2.19  3.45
 H -4.71  3.79  1.86
 H -3.26  3.71  0.83
 H -3.41  5.08  3.45
 H -0.38  6.59  2.92
 H -1.98  7.00  3.26
 H -0.08  4.95  1.38
 N -2.02 -2.14  0.86
 C -2.09 -3.27 -0.05
 H -1.18 -1.98  1.41
 H -1.99 -4.22  0.49
 H -1.31 -3.21 -0.81
 H -3.07 -3.24 -0.54
