35
#
 C -0.87 -0.61 -0.16
 C -0.39 -0.94  1.25
 O  0.59 -1.66  1.44
 H -1.18 -1.55 -0.65
 H -0.02 -0.21 -0.73
 H -1.70  0.10 -0.20
 N -1.13 -0.36  2.24
 C -1.09 -0.59  3.69
 C -0.47  0.57  4.52
 O -1.11  1.02  5.48
 H -1.94  0.17  1.94
 H -2.15 -0.52  3.99
 C -0.56 -1.97  4.13
 C -0.87 -2.31  5.60
 C -2.22 -3.03  5.85
 N -3.43 -2.41  5.31
 C -3.80 -1.09  5.53
 N -3.55 -0.59  6.81
 N -4.36 -0.44  4.56
 H  0.53 -2.03  3.97
 H -0.99 -2.73  3.46
 H -0.81 -1.40  6.22
 H -0.09 -2.99  5.98
 H -2.33 -3.20  6.93
 H -2.18 -4.03  5.41
 H -3.69 -2.69  4.38
 H -3.13  0.34  6.78
 H -3.02 -1.19  7.43
 H -4.70  0.46  4.90
 N  0.76  1.07  4.22
 C  1.69  0.73  3.15
 H  1.01  1.84  4.83
 H  2.71  0.85  3.52
 H  1.56  1.38  2.27
 H  1.56 -0.30  2.82
