35
#
 C -0.13  0.41  1.57
 C -0.94 -0.56  2.42
 O -0.41 -1.29  3.25
 H -0.23  1.43  1.97
 H -0.43  0.42  0.52
 H  0.92  0.11  1.64
 N -2.31 -0.57  2.26
 C -3.13  0.09  1.26
 C -2.79 -0.42 -0.18
 O -2.45 -1.58 -0.36
 H -2.74 -1.33  2.77
 H -4.14 -0.30  1.43
 C -3.21  1.63  1.43
 C -3.39  2.11  2.87
 C -4.68  1.60  3.55
 N -4.96  2.21  4.84
 C -5.49  3.50  4.94
 N -5.49  3.96  6.26
 N -5.94  4.26  4.00
 H -4.06  2.00  0.83
 H -2.30  2.11  1.02
 H -3.40  3.21  2.88
 H -2.53  1.80  3.48
 H -4.63  0.52  3.71
 H -5.55  1.78  2.89
 H -4.33  1.95  5.59
 H -6.01  4.83  6.33
 H -5.80  3.28  6.95
 H -5.76  3.87  3.07
 N -2.95  0.49 -1.19
 C -2.74  0.14 -2.58
 H -3.20  1.44 -0.96
 H -1.91  0.71 -3.02
 H -3.65  0.32 -3.17
 H -2.50 -0.93 -2.62
