35
#
 C -0.93 -0.75 -0.83
 C -0.51 -0.14  0.50
 O  0.59  0.37  0.64
 H -0.46 -0.17 -1.62
 H -2.01 -0.80 -0.99
 H -0.53 -1.77 -0.88
 N -1.36 -0.23  1.58
 C -2.76 -0.63  1.71
 C -3.13 -1.92  0.94
 O -4.11 -1.98  0.19
 H -0.95  0.22  2.40
 H -2.86 -0.95  2.77
 C -3.77  0.53  1.55
 C -3.71  1.42  0.30
 C -4.36  0.89 -0.99
 N -5.70  0.33 -0.82
 C -6.78  1.06 -0.35
 N -6.77  2.41 -0.70
 N -7.76  0.61  0.37
 H -3.60  1.18  2.42
 H -4.78  0.13  1.67
 H -2.66  1.70  0.08
 H -4.21  2.36  0.56
 H -3.77  0.09 -1.44
 H -4.38  1.70 -1.73
 H -5.66 -0.62 -0.47
 H -7.67  2.84 -0.48
 H -6.47  2.61 -1.65
 H -7.59 -0.36  0.66
 N -2.38 -3.03  1.17
 C -1.25 -3.21  2.08
 H -2.69 -3.83  0.64
 H -1.16 -4.28  2.29
 H -1.42 -2.70  3.03
 H -0.30 -2.85  1.66
