35
#
 C  1.24  1.17  0.41
 C  0.94  1.02  1.89
 O  1.81  1.12  2.75
 H  1.55  2.21  0.22
 H  0.39  0.93 -0.24
 H  2.09  0.53  0.15
 N -0.36  0.75  2.21
 C -0.83  0.68  3.58
 C -0.14 -0.37  4.48
 O  0.05 -0.10  5.67
 H -1.05  0.69  1.46
 H -0.57  1.62  4.09
 C -2.36  0.49  3.58
 C -3.01  0.42  4.96
 C -2.92  1.73  5.77
 N -3.47  1.65  7.11
 C -2.79  1.14  8.22
 N -1.42  1.02  8.09
 N -3.35  0.86  9.36
 H -2.60 -0.44  3.03
 H -2.79  1.32  3.01
 H -2.58 -0.40  5.56
 H -4.08  0.17  4.83
 H -3.45  2.53  5.23
 H -1.88  2.06  5.86
 H -4.47  1.55  7.17
 H -1.01  0.59  8.90
 H -1.01  0.71  7.21
 H -4.34  1.11  9.35
 N  0.16 -1.61  4.01
 C  0.08 -2.17  2.67
 H  0.63 -2.18  4.71
 H  0.15 -3.26  2.75
 H  0.89 -1.82  2.01
 H -0.88 -1.94  2.19
