35
#
 C -0.51 -1.46  0.23
 C -0.36 -0.14  0.97
 O  0.44  0.72  0.61
 H  0.18 -1.44 -0.62
 H -1.53 -1.61 -0.15
 H -0.27 -2.32  0.87
 N -1.16  0.05  2.07
 C -2.06 -0.91  2.70
 C -3.25 -0.10  3.25
 O -3.29  0.28  4.42
 H -0.97  0.91  2.57
 H -2.42 -1.59  1.92
 C -1.37 -1.74  3.81
 C -2.01 -3.09  4.14
 C -3.42 -3.06  4.73
 N -4.41 -2.72  3.70
 C -5.68 -2.21  3.98
 N -5.73 -1.36  5.08
 N -6.65 -2.57  3.21
 H -1.31 -1.11  4.71
 H -0.34 -1.92  3.47
 H -1.36 -3.60  4.87
 H -2.01 -3.74  3.25
 H -3.48 -2.32  5.53
 H -3.65 -4.04  5.18
 H -4.50 -3.41  2.97
 H -6.62 -0.88  5.18
 H -4.93 -0.73  5.19
 H -7.50 -2.05  3.42
 N -4.21  0.26  2.36
 C -4.41 -0.26  1.01
 H -4.98  0.78  2.78
 H -5.22  0.30  0.54
 H -4.68 -1.32  1.02
 H -3.51 -0.11  0.40
