35
#
 C -0.59  0.12 -0.08
 C -0.52  0.37  1.42
 O  0.37  1.04  1.93
 H  0.28 -0.48 -0.37
 H -0.51  1.08 -0.60
 H -1.50 -0.39 -0.40
 N -1.53 -0.18  2.15
 C -1.60 -0.16  3.61
 C -1.28  1.24  4.21
 O -0.46  1.37  5.11
 H -2.21 -0.76  1.67
 H -2.65 -0.36  3.86
 C -0.71 -1.24  4.26
 C -1.14 -1.65  5.67
 C -2.37 -2.56  5.69
 N -2.76 -2.85  7.07
 C -3.89 -3.59  7.38
 N -4.15 -4.65  6.50
 N -4.60 -3.25  8.40
 H  0.32 -0.86  4.28
 H -0.72 -2.12  3.60
 H -1.32 -0.75  6.28
 H -0.30 -2.18  6.16
 H -2.12 -3.50  5.17
 H -3.20 -2.10  5.13
 H -2.70 -2.05  7.70
 H -4.83 -5.31  6.84
 H -3.32 -5.11  6.12
 H -5.32 -3.94  8.61
 N -2.03  2.30  3.79
 C -3.03  2.37  2.74
 H -1.73  3.18  4.20
 H -3.66  3.25  2.91
 H -3.68  1.49  2.75
 H -2.59  2.46  1.73
