35
#
 C  1.26  2.62  0.75
 C  0.73  2.26  2.13
 O  1.44  2.41  3.13
 H  2.01  1.87  0.47
 H  1.77  3.59  0.81
 H  0.49  2.65 -0.03
 N -0.55  1.78  2.15
 C -1.33  1.13  3.22
 C -1.52  1.86  4.57
 O -2.57  1.65  5.19
 H -0.99  1.73  1.24
 H -2.36  1.13  2.82
 C -0.95 -0.35  3.43
 C  0.46 -0.62  3.95
 C  0.73 -2.11  4.21
 N  0.51 -3.01  3.08
 C  1.37 -3.03  2.00
 N  0.91 -3.88  0.98
 N  2.43 -2.30  1.98
 H -1.09 -0.86  2.47
 H -1.71 -0.76  4.12
 H  0.63 -0.09  4.90
 H  1.21 -0.26  3.24
 H  0.08 -2.48  5.03
 H  1.77 -2.24  4.53
 H -0.45 -3.25  2.87
 H  1.60 -4.03  0.25
 H  0.52 -4.76  1.31
 H  3.02 -2.52  1.17
 N -0.52  2.65  5.02
 C -0.61  3.31  6.30
 H  0.35  2.66  4.48
 H  0.15  4.10  6.35
 H -0.46  2.62  7.14
 H -1.60  3.76  6.43
