35
#
 C  0.89 -0.16  1.59
 C  0.41  0.50  2.87
 O  1.19  0.76  3.79
 H  1.97 -0.31  1.68
 H  0.71  0.48  0.71
 H  0.41 -1.12  1.41
 N -0.92  0.79  2.98
 C -1.97  0.67  1.98
 C -2.76  2.00  1.97
 O -2.78  2.72  2.96
 H -1.17  1.37  3.78
 H -1.50  0.50  1.00
 C -2.96 -0.47  2.28
 C -2.34 -1.87  2.25
 C -3.38 -3.00  2.35
 N -4.23 -3.14  1.16
 C -5.31 -2.31  0.88
 N -6.08 -1.97  1.98
 N -5.65 -1.84 -0.28
 H -3.78 -0.42  1.55
 H -3.42 -0.29  3.26
 H -1.62 -1.98  3.07
 H -1.77 -2.01  1.31
 H -4.02 -2.84  3.22
 H -2.87 -3.96  2.50
 H -3.70 -3.36  0.32
 H -6.94 -1.50  1.71
 H -6.24 -2.72  2.66
 H -4.93 -2.05 -0.98
 N -3.46  2.30  0.84
 C -3.62  1.52 -0.38
 H -4.03  3.14  0.94
 H -3.89  2.20 -1.20
 H -4.40  0.75 -0.30
 H -2.68  1.04 -0.66
