35
#
 C -2.67  0.38  0.43
 C -1.78  0.40  1.67
 O -0.57  0.59  1.60
 H -2.33 -0.42 -0.23
 H -2.53  1.33 -0.11
 H -3.73  0.24  0.65
 N -2.44  0.22  2.86
 C -1.77  0.08  4.15
 C -0.65  1.13  4.37
 O  0.48  0.80  4.71
 H -3.43  0.00  2.83
 H -2.55  0.31  4.91
 C -1.25 -1.34  4.41
 C -1.11 -1.67  5.89
 C -0.49 -3.06  6.16
 N -1.16 -4.19  5.52
 C -2.38 -4.65  5.98
 N -2.90 -5.66  5.15
 N -2.94 -4.14  7.03
 H -0.28 -1.45  3.89
 H -1.96 -2.04  3.94
 H -2.09 -1.63  6.38
 H -0.46 -0.93  6.38
 H -0.48 -3.25  7.24
 H  0.55 -3.07  5.81
 H -0.99 -4.31  4.53
 H -3.71 -6.12  5.55
 H -2.21 -6.33  4.82
 H -3.76 -4.68  7.29
 N -0.99  2.45  4.27
 C -2.23  3.06  3.85
 H -0.18  3.06  4.37
 H -2.27  4.09  4.23
 H -3.10  2.53  4.27
 H -2.35  3.09  2.75
