35
#
 C -0.00 -0.21 -0.19
 C  0.06 -0.03  1.31
 O  1.14  0.01  1.91
 H  0.88  0.27 -0.63
 H -0.91  0.19 -0.66
 H  0.05 -1.29 -0.41
 N -1.11  0.07  2.00
 C -2.46 -0.22  1.56
 C -3.38  0.24  2.70
 O -2.98  0.29  3.86
 H -1.02  0.17  3.01
 H -2.69  0.35  0.65
 C -2.73 -1.72  1.25
 C -2.50 -2.73  2.38
 C -1.04 -3.04  2.76
 N -0.27 -3.44  1.58
 C  1.09 -3.74  1.67
 N  1.83 -2.86  2.45
 N  1.51 -4.80  1.06
 H -2.10 -2.00  0.39
 H -3.77 -1.81  0.90
 H -2.98 -3.67  2.08
 H -3.03 -2.41  3.30
 H -1.05 -3.83  3.53
 H -0.57 -2.16  3.22
 H -0.71 -4.21  1.07
 H  1.59 -1.86  2.39
 H  2.83 -3.01  2.40
 H  2.53 -4.85  1.07
 N -4.67  0.55  2.39
 C -5.28  0.67  1.07
 H -5.23  0.81  3.19
 H -6.28  1.08  1.19
 H -5.37 -0.29  0.55
 H -4.71  1.36  0.42
