35
#
 C  0.48  0.50  0.84
 C -0.00 -0.71  1.60
 O  0.75 -1.64  1.90
 H  1.54  0.36  0.60
 H  0.37  1.42  1.43
 H -0.08  0.65 -0.10
 N -1.33 -0.74  1.95
 C -2.33  0.30  1.75
 C -2.25  1.57  2.63
 O -2.84  2.57  2.23
 H -1.59 -1.57  2.48
 H -2.20  0.71  0.74
 C -3.75 -0.31  1.79
 C -4.25 -0.76  3.17
 C -5.17  0.28  3.85
 N -5.62 -0.09  5.18
 C -4.81  0.10  6.30
 N -5.32 -0.55  7.43
 N -3.71  0.76  6.38
 H -3.75 -1.15  1.09
 H -4.43  0.44  1.37
 H -3.42 -0.99  3.85
 H -4.82 -1.70  3.07
 H -6.06  0.43  3.22
 H -4.68  1.26  3.90
 H -6.21 -0.91  5.22
 H -4.80 -0.27  8.26
 H -6.32 -0.46  7.56
 H -3.40  1.09  5.47
 N -1.58  1.59  3.82
 C -0.80  0.59  4.54
 H -1.61  2.52  4.23
 H  0.18  0.40  4.09
 H -1.34 -0.36  4.63
 H -0.65  0.96  5.56
