35
#
 C -0.57  2.65  1.21
 C -0.39  1.39  2.03
 O  0.58  0.63  1.91
 H -0.32  3.53  1.82
 H -1.61  2.77  0.87
 H  0.10  2.61  0.35
 N -1.37  1.17  2.95
 C -1.27  0.07  3.88
 C -2.66 -0.25  4.44
 O -3.53  0.61  4.62
 H -2.13  1.85  3.06
 H -0.91 -0.79  3.31
 C -0.23  0.27  5.05
 C  0.12  1.71  5.47
 C -0.93  2.50  6.27
 N -2.10  2.95  5.53
 C -1.99  3.90  4.53
 N -3.05  3.82  3.60
 N -1.06  4.77  4.32
 H  0.70 -0.20  4.71
 H -0.57 -0.30  5.93
 H  0.41  2.29  4.58
 H  1.02  1.64  6.09
 H -0.45  3.38  6.72
 H -1.30  1.90  7.11
 H -2.77  2.20  5.31
 H -3.10  4.67  3.04
 H -3.95  3.56  4.00
 H -0.30  4.68  4.99
 N -2.90 -1.55  4.77
 C -2.03 -2.70  4.58
 H -3.81 -1.70  5.18
 H -1.11 -2.63  5.18
 H -1.76 -2.84  3.53
 H -2.57 -3.60  4.91
