35
#
 C -0.82 -0.15 -0.49
 C -0.52 -0.28  0.99
 O  0.56 -0.71  1.40
 H -0.07  0.50 -0.96
 H -1.82  0.26 -0.71
 H -0.73 -1.14 -0.96
 N -1.52  0.13  1.82
 C -1.41  0.00  3.26
 C -2.85  0.03  3.81
 O -3.78  0.44  3.11
 H -2.44  0.41  1.49
 H -0.93 -0.96  3.49
 C -0.55  1.12  3.90
 C -1.03  2.54  3.61
 C -0.49  3.59  4.60
 N -0.99  3.43  5.96
 C -0.45  2.59  6.94
 N  0.91  2.35  6.85
 N -1.10  2.12  7.96
 H  0.48  0.97  3.55
 H -0.54  0.94  4.99
 H -2.13  2.58  3.64
 H -0.74  2.83  2.59
 H -0.78  4.59  4.26
 H  0.61  3.59  4.62
 H -2.00  3.50  6.04
 H  1.20  1.64  7.52
 H  1.32  2.25  5.93
 H -2.06  2.45  7.98
 N -3.05 -0.36  5.09
 C -2.11 -0.90  6.07
 H -4.02 -0.25  5.39
 H -2.62 -1.66  6.67
 H -1.72 -0.13  6.74
 H -1.27 -1.39  5.56
