35
#
 C -1.58  1.48  2.66
 C -1.70  0.59  3.87
 O -1.23  0.90  4.98
 H -0.59  1.94  2.66
 H -2.33  2.28  2.75
 H -1.74  0.95  1.72
 N -2.44 -0.55  3.69
 C -2.57 -1.58  4.70
 C -1.93 -2.86  4.15
 O -2.06 -3.17  2.96
 H -2.64 -0.85  2.74
 H -2.03 -1.22  5.59
 C -4.05 -1.89  5.06
 C -4.80 -0.89  5.96
 C -5.11  0.50  5.38
 N -4.10  1.47  5.73
 C -4.10  2.75  5.19
 N -2.93  3.46  5.47
 N -5.05  3.32  4.53
 H -4.06 -2.86  5.58
 H -4.60 -2.04  4.12
 H -4.28 -0.77  6.92
 H -5.76 -1.37  6.21
 H -6.08  0.84  5.79
 H -5.24  0.43  4.28
 H -3.18  1.11  5.99
 H -2.07  2.92  5.45
 H -2.89  4.32  4.95
 H -5.88  2.72  4.47
 N -1.27 -3.62  5.06
 C -0.65 -4.89  4.73
 H -1.16 -3.25  6.00
 H -1.06 -5.70  5.35
 H  0.44 -4.85  4.88
 H -0.86 -5.10  3.68
