35
#
 C  0.08  0.59  0.13
 C  0.04  0.25  1.61
 O  1.06  0.05  2.27
 H  0.65  1.52  0.01
 H -0.91  0.72 -0.32
 H  0.63 -0.20 -0.40
 N -1.21  0.17  2.16
 C -1.43 -0.11  3.58
 C -1.40 -1.64  3.85
 O -2.42 -2.28  4.09
 H -2.02  0.24  1.56
 H -0.57  0.34  4.11
 C -2.73  0.51  4.07
 C -2.74  2.04  4.00
 C -4.02  2.68  4.54
 N -5.19  2.32  3.75
 C -6.38  3.04  3.70
 N -6.34  4.29  4.32
 N -7.45  2.69  3.07
 H -2.89  0.18  5.11
 H -3.56  0.07  3.49
 H -2.59  2.39  2.96
 H -1.89  2.44  4.58
 H -3.91  3.78  4.50
 H -4.14  2.41  5.61
 H -5.31  1.34  3.57
 H -7.26  4.71  4.30
 H -5.92  4.32  5.25
 H -7.30  1.83  2.54
 N -0.15 -2.17  3.77
 C  0.10 -3.60  3.88
 H  0.59 -1.55  3.45
 H  0.32 -4.05  2.90
 H -0.80 -4.07  4.29
 H  0.95 -3.78  4.55
