35
#
 C -0.43 -3.01  1.30
 C -0.75 -1.69  1.98
 O -0.15 -0.65  1.69
 H  0.63 -3.24  1.45
 H -0.60 -2.91  0.22
 H -1.03 -3.85  1.68
 N -1.73 -1.74  2.92
 C -2.15 -0.56  3.67
 C -2.46 -1.02  5.10
 O -3.25 -1.95  5.30
 H -2.20 -2.61  3.15
 H -1.30  0.14  3.64
 C -3.37  0.11  3.01
 C -3.88  1.39  3.71
 C -5.27  1.26  4.35
 N -5.38  0.40  5.52
 C -5.11  0.86  6.80
 N -5.28 -0.13  7.77
 N -4.73  2.04  7.17
 H -4.18 -0.64  2.96
 H -3.08  0.33  1.98
 H -3.93  2.21  2.98
 H -3.16  1.73  4.48
 H -5.97  0.88  3.60
 H -5.65  2.25  4.64
 H -5.18 -0.59  5.38
 H -5.26  0.27  8.70
 H -6.08 -0.74  7.61
 H -4.51  2.64  6.38
 N -1.81 -0.35  6.07
 C -1.97 -0.61  7.49
 H -1.16  0.38  5.79
 H -2.76 -1.36  7.61
 H -2.29  0.31  8.01
 H -1.04 -0.98  7.93
