35
#
 C  1.11 -2.23  1.16
 C  1.05 -0.93  1.94
 O  2.08 -0.30  2.21
 H  1.19 -3.08  1.86
 H  2.01 -2.22  0.55
 H  0.23 -2.40  0.52
 N -0.17 -0.45  2.31
 C -1.43 -1.17  2.34
 C -2.52 -0.11  2.59
 O -2.26  0.94  3.17
 H -0.17  0.43  2.82
 H -1.61 -1.65  1.37
 C -1.49 -2.26  3.44
 C -1.24 -1.75  4.88
 C -0.06 -2.44  5.57
 N  1.21 -2.17  4.92
 C  2.10 -3.12  4.45
 N  3.27 -2.55  3.96
 N  1.96 -4.41  4.43
 H -0.73 -3.01  3.18
 H -2.45 -2.78  3.38
 H -2.14 -1.91  5.49
 H -1.07 -0.67  4.88
 H -0.21 -3.53  5.58
 H -0.02 -2.13  6.63
 H  1.57 -1.23  5.00
 H  3.85 -3.25  3.51
 H  3.15 -1.70  3.40
 H  1.12 -4.71  4.93
 N -3.79 -0.40  2.18
 C -4.23 -1.52  1.37
 H -4.46  0.32  2.40
 H -5.30 -1.39  1.16
 H -4.11 -2.49  1.88
 H -3.71 -1.57  0.40
