35
#
 C -0.03 -0.67  1.25
 C -0.56 -0.64  2.67
 O  0.16 -0.85  3.64
 H -0.37  0.18  0.65
 H -0.37 -1.58  0.74
 H  1.06 -0.68  1.30
 N -1.90 -0.38  2.86
 C -2.96 -0.02  1.92
 C -3.07 -1.02  0.74
 O -2.98 -0.65 -0.43
 H -2.15 -0.39  3.85
 H -3.89 -0.13  2.50
 C -2.91  1.43  1.41
 C -2.79  2.50  2.51
 C -1.34  2.87  2.87
 N -1.21  3.99  3.78
 C -1.38  5.31  3.38
 N -1.38  6.20  4.46
 N -1.53  5.77  2.19
 H -3.83  1.59  0.83
 H -2.09  1.54  0.68
 H -3.32  2.18  3.42
 H -3.30  3.41  2.17
 H -0.78  3.12  1.95
 H -0.81  2.02  3.32
 H -1.46  3.80  4.75
 H -1.37  7.16  4.13
 H -0.65  6.03  5.15
 H -1.64  5.02  1.50
 N -3.29 -2.33  1.05
 C -3.47 -2.94  2.36
 H -3.34 -2.93  0.24
 H -3.96 -3.91  2.22
 H -4.12 -2.34  3.00
 H -2.52 -3.10  2.89
