35
#
 C  0.31 -0.94  0.55
 C  0.05 -0.69  2.02
 O  0.96 -0.73  2.86
 H  0.74 -1.94  0.43
 H  1.06 -0.21  0.20
 H -0.58 -0.85 -0.08
 N -1.24 -0.40  2.36
 C -1.66 -0.11  3.73
 C -1.93 -1.43  4.50
 O -3.07 -1.82  4.77
 H -1.96 -0.47  1.65
 H -0.80  0.39  4.20
 C -2.87  0.82  3.68
 C -3.46  1.29  5.02
 C -2.47  1.88  6.03
 N -1.77  0.84  6.77
 C -0.41  0.77  7.03
 N  0.31  1.92  6.70
 N  0.23 -0.26  7.48
 H -3.67  0.32  3.12
 H -2.57  1.71  3.10
 H -4.00  0.45  5.49
 H -4.22  2.05  4.80
 H -3.02  2.54  6.72
 H -1.73  2.50  5.51
 H -2.29  0.01  6.99
 H  1.27  1.82  7.00
 H -0.10  2.80  7.02
 H -0.39 -1.07  7.55
 N -0.79 -2.08  4.83
 C -0.78 -3.36  5.52
 H  0.09 -1.67  4.52
 H -0.50 -4.18  4.84
 H -1.79 -3.55  5.90
 H -0.06 -3.33  6.35
