35
#
 C -0.82 -0.87 -0.44
 C -0.56 -0.57  1.02
 O  0.53 -0.76  1.56
 H  0.06 -1.39 -0.84
 H -0.97  0.06 -1.01
 H -1.72 -1.49 -0.61
 N -1.61 -0.06  1.74
 C -2.92  0.34  1.25
 C -3.01  1.62  0.40
 O -3.92  1.69 -0.44
 H -1.37  0.14  2.71
 H -3.25 -0.43  0.55
 C -3.94  0.41  2.42
 C -4.83 -0.84  2.55
 C -6.03 -0.86  1.59
 N -5.73 -0.81  0.16
 C -5.02 -1.82 -0.49
 N -5.20 -3.10  0.03
 N -4.22 -1.66 -1.49
 H -4.59  1.29  2.28
 H -3.39  0.58  3.35
 H -5.23 -0.89  3.57
 H -4.22 -1.75  2.41
 H -6.68  0.01  1.80
 H -6.65 -1.74  1.80
 H -5.43  0.11 -0.17
 H -4.82 -3.80 -0.60
 H -6.15 -3.32  0.33
 H -4.10 -0.66 -1.70
 N -2.14  2.65  0.56
 C -1.12  2.87  1.58
 H -2.34  3.42 -0.07
 H -1.49  2.67  2.59
 H -0.83  3.93  1.54
 H -0.22  2.26  1.41
