35
#
 C  0.18  0.27  2.18
 C -0.94  0.55  3.16
 O -0.74  1.16  4.21
 H -0.12  0.21  1.13
 H  0.65 -0.69  2.45
 H  0.94  1.06  2.30
 N -2.20  0.07  2.89
 C -2.80 -0.53  1.70
 C -1.91 -1.58  1.00
 O -1.62 -1.51 -0.19
 H -2.85  0.33  3.63
 H -3.66 -1.12  2.08
 C -3.40  0.49  0.72
 C -2.45  1.55  0.15
 C -3.17  2.61 -0.68
 N -4.04  3.43  0.15
 C -4.97  4.30 -0.42
 N -5.59  5.10  0.55
 N -5.29  4.43 -1.66
 H -4.22  1.00  1.24
 H -3.85 -0.07 -0.11
 H -1.69  1.06 -0.48
 H -1.90  2.05  0.97
 H -3.79  2.11 -1.44
 H -2.42  3.22 -1.22
 H -3.60  3.79  0.99
 H -6.35  5.64  0.13
 H -5.88  4.61  1.39
 H -4.67  3.90 -2.27
 N -1.48 -2.63  1.76
 C -1.74 -2.93  3.16
 H -0.89 -3.28  1.24
 H -1.58 -4.01  3.32
 H -2.79 -2.72  3.42
 H -1.09 -2.37  3.85
