35
#
 C -0.81  0.36 -0.61
 C -0.51  0.25  0.87
 O  0.63  0.15  1.31
 H -0.47 -0.56 -1.11
 H -0.23  1.19 -1.03
 H -1.87  0.51 -0.85
 N -1.61  0.27  1.69
 C -1.50  0.01  3.13
 C -2.84 -0.48  3.70
 O -2.92 -1.53  4.33
 H -2.53  0.19  1.27
 H -0.79 -0.82  3.27
 C -0.97  1.25  3.90
 C -1.01  1.12  5.42
 C -0.17 -0.04  5.99
 N -0.19 -0.13  7.44
 C -1.28 -0.65  8.13
 N -1.19 -0.39  9.51
 N -2.30 -1.29  7.68
 H -1.56  2.13  3.59
 H  0.06  1.43  3.55
 H -2.05  1.01  5.77
 H -0.64  2.06  5.86
 H  0.87  0.05  5.67
 H -0.53 -1.01  5.60
 H  0.26  0.65  7.92
 H -1.91 -0.91 10.01
 H -0.27 -0.56  9.91
 H -2.33 -1.34  6.66
 N -3.91  0.33  3.47
 C -5.21  0.05  4.06
 H -3.74  1.27  3.12
 H -5.99  0.59  3.51
 H -5.25  0.34  5.12
 H -5.40 -1.03  4.00
