35
#
 C  0.35  0.33  1.74
 C  0.10  0.77  3.17
 O  1.03  1.03  3.93
 H  1.26 -0.28  1.72
 H  0.53  1.22  1.12
 H -0.48 -0.24  1.28
 N -1.20  0.86  3.61
 C -2.46  0.79  2.86
 C -2.78 -0.63  2.34
 O -3.54 -0.82  1.39
 H -1.26  1.26  4.55
 H -3.23  0.97  3.64
 C -2.60  1.91  1.81
 C -4.00  2.18  1.22
 C -5.16  2.31  2.21
 N -5.66  1.02  2.69
 C -5.61  0.66  4.01
 N -6.03 -0.66  4.23
 N -5.15  1.47  4.92
 H -1.91  1.73  0.98
 H -2.25  2.83  2.32
 H -4.24  1.40  0.48
 H -3.93  3.13  0.66
 H -5.99  2.84  1.71
 H -4.88  2.89  3.10
 H -5.52  0.25  2.04
 H -6.22 -0.88  5.20
 H -6.77 -0.98  3.61
 H -5.28  1.09  5.86
 N -2.22 -1.64  3.06
 C -2.49 -3.04  2.80
 H -1.60 -1.37  3.82
 H -1.55 -3.60  2.68
 H -3.07 -3.10  1.87
 H -3.08 -3.49  3.61
