35
#
 C -2.34  0.09 -1.13
 C -1.33 -0.31 -0.08
 O -0.18 -0.66 -0.34
 H -1.82  0.16 -2.09
 H -2.82  1.05 -0.91
 H -3.12 -0.69 -1.20
 N -1.74 -0.25  1.24
 C -3.08 -0.01  1.75
 C -3.30  1.40  2.34
 O -4.38  1.71  2.85
 H -1.06 -0.64  1.89
 H -3.78 -0.07  0.91
 C -3.49 -1.08  2.78
 C -3.72 -2.47  2.16
 C -5.05 -2.57  1.41
 N -5.17 -3.81  0.66
 C -4.68 -3.90 -0.63
 N -4.99 -5.13 -1.24
 N -4.05 -2.91 -1.17
 H -4.39 -0.73  3.30
 H -2.70 -1.14  3.55
 H -3.70 -3.23  2.95
 H -2.90 -2.71  1.47
 H -5.15 -1.72  0.71
 H -5.88 -2.52  2.11
 H -6.00 -4.37  0.85
 H -4.51 -5.29 -2.11
 H -4.93 -5.94 -0.62
 H -3.67 -3.17 -2.08
 N -2.24  2.24  2.24
 C -2.27  3.61  2.70
 H -1.41  1.87  1.79
 H -1.49  3.80  3.45
 H -3.25  3.79  3.15
 H -2.13  4.32  1.87
