35
#
 C -2.33 -1.76  1.97
 C -1.16 -0.94  1.48
 O -1.04 -0.60  0.30
 H -3.26 -1.23  1.73
 H -2.30 -1.98  3.04
 H -2.35 -2.71  1.41
 N -0.25 -0.58  2.44
 C  0.98  0.10  2.12
 C  1.96 -0.21  3.27
 O  1.59 -0.79  4.29
 H -0.28 -0.98  3.38
 H  1.37 -0.31  1.18
 C  0.78  1.63  1.93
 C  0.39  2.37  3.21
 C  0.17  3.87  2.97
 N  0.02  4.62  4.20
 C  1.12  5.03  4.94
 N  0.75  5.80  6.05
 N  2.37  4.79  4.71
 H  0.02  1.75  1.15
 H  1.71  2.06  1.52
 H  1.17  2.24  3.97
 H -0.53  1.94  3.63
 H -0.74  4.02  2.37
 H  1.01  4.27  2.36
 H -0.78  5.24  4.25
 H  1.56  5.99  6.64
 H -0.03  5.44  6.58
 H  2.50  4.34  3.80
 N  3.23  0.22  3.07
 C  4.27  0.12  4.08
 H  3.45  0.70  2.21
 H  3.88 -0.49  4.91
 H  4.55  1.11  4.47
 H  5.17 -0.37  3.68
