35
#
 C  0.34 -0.09  0.66
 C  0.22 -0.12  2.17
 O  1.19 -0.30  2.91
 H  1.37  0.21  0.41
 H -0.37  0.60  0.18
 H  0.17 -1.09  0.25
 N -1.03  0.08  2.71
 C -2.33  0.02  2.05
 C -3.45  0.50  3.00
 O -4.34  1.24  2.58
 H -1.02  0.08  3.73
 H -2.36  0.77  1.25
 C -2.69 -1.36  1.41
 C -2.08 -2.65  1.99
 C -2.49 -3.10  3.40
 N -1.72 -2.43  4.44
 C -1.88 -2.70  5.81
 N -3.13 -3.20  6.16
 N -1.04 -2.39  6.74
 H -2.39 -1.32  0.36
 H -3.79 -1.44  1.40
 H -0.98 -2.61  1.95
 H -2.37 -3.45  1.30
 H -2.36 -4.20  3.45
 H -3.56 -2.89  3.56
 H -0.73 -2.31  4.20
 H -3.16 -3.46  7.14
 H -3.53 -3.90  5.55
 H -0.21 -1.93  6.37
 N -3.40  0.03  4.27
 C -4.44  0.36  5.24
 H -2.75 -0.72  4.49
 H -4.23 -0.20  6.16
 H -5.44  0.08  4.87
 H -4.45  1.43  5.46
