35
#
 C  2.16 -1.62  1.47
 C  1.25 -1.28  2.63
 O  1.53 -1.63  3.79
 H  1.84 -1.19  0.51
 H  2.20 -2.71  1.37
 H  3.17 -1.27  1.70
 N  0.11 -0.61  2.32
 C -1.00 -0.26  3.23
 C -0.68  0.87  4.24
 O -1.45  1.84  4.32
 H -0.00 -0.32  1.36
 H -1.76  0.18  2.58
 C -1.64 -1.47  3.95
 C -2.21 -2.55  3.01
 C -1.27 -3.74  2.75
 N -1.01 -4.50  3.97
 C  0.15 -5.25  4.17
 N  1.32 -4.65  3.70
 N  0.22 -6.39  4.76
 H -2.45 -1.04  4.56
 H -0.93 -1.93  4.65
 H -2.50 -2.11  2.05
 H -3.14 -2.94  3.45
 H -0.31 -3.40  2.35
 H -1.72 -4.38  1.97
 H -1.83 -4.99  4.32
 H  2.13 -5.18  3.99
 H  1.42 -3.65  3.88
 H -0.71 -6.78  4.93
 N  0.42  0.69  5.01
 C  0.83  1.64  6.02
 H  0.96 -0.17  4.86
 H  0.78  1.19  7.03
 H  0.14  2.49  5.98
 H  1.85  1.99  5.84
