35
#
 C  0.43  0.94 -0.23
 C  0.32  0.15  1.06
 O  1.33 -0.14  1.71
 H  0.60  0.23 -1.04
 H  1.30  1.61 -0.14
 H -0.46  1.51 -0.48
 N -0.91 -0.25  1.53
 C -2.27 -0.10  1.03
 C -2.52 -0.92 -0.25
 O -1.61 -1.21 -1.02
 H -0.82 -0.82  2.36
 H -2.89 -0.53  1.83
 C -2.76  1.36  0.84
 C -2.26  2.40  1.86
 C -2.39  2.02  3.35
 N -3.71  1.52  3.74
 C -3.99  0.20  4.00
 N -2.95 -0.52  4.59
 N -5.15 -0.28  3.65
 H -3.86  1.34  0.85
 H -2.49  1.72 -0.17
 H -2.81  3.33  1.67
 H -1.20  2.63  1.68
 H -2.14  2.91  3.95
 H -1.65  1.26  3.59
 H -4.51  1.99  3.33
 H -3.22 -1.44  4.93
 H -2.38 -0.01  5.26
 H -5.30 -1.21  4.05
 N -3.81 -1.30 -0.51
 C -5.04 -1.03  0.22
 H -3.89 -1.78 -1.40
 H -5.69 -1.91  0.16
 H -5.58 -0.17 -0.19
 H -4.86 -0.84  1.28
