35
#
 C -2.03  0.44 -0.46
 C -1.31  0.37  0.87
 O -0.09  0.56  0.96
 H -1.87  1.43 -0.90
 H -3.11  0.25 -0.39
 H -1.58 -0.29 -1.15
 N -2.08  0.10  1.96
 C -1.54  0.06  3.32
 C -0.93 -1.35  3.56
 O -1.52 -2.24  4.18
 H -3.06 -0.12  1.83
 H -0.73  0.80  3.34
 C -2.62  0.44  4.33
 C -2.10  0.98  5.67
 C -1.32 -0.01  6.55
 N -2.03 -1.23  6.88
 C -3.06 -1.26  7.81
 N -3.78 -2.46  7.77
 N -3.41 -0.36  8.66
 H -3.27 -0.43  4.51
 H -3.25  1.22  3.87
 H -2.97  1.35  6.24
 H -1.46  1.86  5.49
 H -1.03  0.49  7.49
 H -0.38 -0.30  6.06
 H -2.10 -1.88  6.10
 H -4.38 -2.55  8.58
 H -3.22 -3.29  7.60
 H -2.89  0.51  8.52
 N  0.30 -1.49  3.00
 C  1.01 -2.76  2.99
 H  0.59 -0.75  2.36
 H  2.08 -2.59  3.12
 H  0.84 -3.31  2.05
 H  0.63 -3.37  3.82
