35
#
 C  1.34  0.64  0.84
 C  0.82 -0.15  2.01
 O  1.56 -0.83  2.74
 H  0.59  0.79  0.05
 H  2.22  0.14  0.42
 H  1.65  1.63  1.21
 N -0.51 -0.04  2.25
 C -1.17 -0.59  3.43
 C -1.61 -2.06  3.20
 O -2.78 -2.40  3.10
 H -1.08  0.49  1.60
 H -0.41 -0.60  4.22
 C -2.35  0.29  3.85
 C -1.97  1.73  4.23
 C -1.16  1.88  5.54
 N  0.12  2.58  5.40
 C  1.21  1.98  4.77
 N  1.63  0.78  5.32
 N  1.78  2.59  3.78
 H -2.86 -0.21  4.69
 H -3.09  0.30  3.04
 H -1.39  2.19  3.42
 H -2.90  2.32  4.31
 H -0.96  0.89  5.98
 H -1.75  2.42  6.29
 H  0.01  3.52  5.01
 H  1.94  0.08  4.66
 H  1.11  0.42  6.11
 H  2.67  2.14  3.56
 N -0.55 -2.91  3.12
 C -0.69 -4.31  2.81
 H  0.38 -2.48  3.13
 H -0.12 -4.93  3.51
 H -0.35 -4.54  1.79
 H -1.75 -4.57  2.88
