35
#
 C -0.06  0.65  0.32
 C  0.12 -0.29  1.49
 O  1.22 -0.52  1.98
 H  0.93  0.99 -0.01
 H -0.66  1.53  0.60
 H -0.58  0.17 -0.52
 N -1.01 -0.88  2.00
 C -2.39 -0.63  1.63
 C -3.02  0.73  2.04
 O -3.97  1.14  1.38
 H -0.82 -1.47  2.80
 H -2.45 -0.59  0.53
 C -3.31 -1.78  2.07
 C -3.42 -1.99  3.58
 C -4.45 -3.08  3.93
 N -4.62 -3.33  5.35
 C -5.34 -2.46  6.17
 N -5.21 -2.79  7.53
 N -6.05 -1.44  5.83
 H -2.95 -2.70  1.59
 H -4.30 -1.56  1.66
 H -3.72 -1.05  4.07
 H -2.45 -2.28  4.02
 H -4.16 -4.03  3.46
 H -5.43 -2.82  3.51
 H -3.85 -3.79  5.81
 H -5.30 -3.78  7.73
 H -5.85 -2.23  8.09
 H -5.97 -1.22  4.84
 N -2.53  1.46  3.09
 C -1.51  1.17  4.10
 H -3.06  2.31  3.21
 H -1.66  0.19  4.56
 H -1.61  1.92  4.89
 H -0.49  1.22  3.70
