35
#
 C  0.09  0.24  0.56
 C -0.14 -0.02  2.03
 O  0.79 -0.18  2.82
 H -0.08 -0.69 -0.01
 H  1.13  0.54  0.43
 H -0.58  1.00  0.13
 N -1.44 -0.12  2.49
 C -2.71  0.10  1.81
 C -2.84 -0.70  0.49
 O -3.09 -0.14 -0.58
 H -1.47 -0.28  3.49
 H -3.47 -0.32  2.49
 C -3.07  1.58  1.59
 C -3.07  2.42  2.86
 C -3.51  3.87  2.60
 N -4.90  3.97  2.15
 C -5.30  4.57  0.96
 N -4.40  4.38 -0.11
 N -6.40  5.23  0.94
 H -4.07  1.60  1.13
 H -2.38  2.01  0.85
 H -2.06  2.44  3.30
 H -3.74  1.97  3.61
 H -2.87  4.33  1.84
 H -3.38  4.46  3.52
 H -5.58  4.19  2.87
 H -4.76  4.70 -1.00
 H -3.98  3.46 -0.18
 H -6.66  5.49 -0.02
 N -2.69 -2.05  0.57
 C -2.44 -2.89  1.73
 H -2.77 -2.51 -0.34
 H -2.72 -3.92  1.48
 H -3.06 -2.57  2.58
 H -1.39 -2.87  2.04
