35
#
 C  0.10 -0.11  0.90
 C -0.19  0.45  2.28
 O  0.70  0.89  3.00
 H -0.38  0.49  0.11
 H -0.24 -1.15  0.79
 H  1.18 -0.07  0.75
 N -1.49  0.45  2.71
 C -2.69  0.06  1.99
 C -3.73  1.19  2.14
 O -3.78  1.85  3.17
 H -1.66  0.96  3.58
 H -2.43 -0.08  0.93
 C -3.31 -1.25  2.54
 C -2.41 -2.47  2.38
 C -2.97 -3.71  3.08
 N -2.13 -4.90  2.95
 C -1.28 -5.38  3.94
 N -0.89 -4.43  4.88
 N -0.87 -6.60  4.07
 H -4.28 -1.43  2.04
 H -3.54 -1.08  3.60
 H -1.41 -2.25  2.80
 H -2.25 -2.70  1.32
 H -3.97 -3.95  2.67
 H -3.12 -3.50  4.15
 H -2.44 -5.61  2.31
 H -0.20 -4.81  5.51
 H -0.62 -3.52  4.52
 H -1.34 -7.23  3.42
 N -4.61  1.37  1.12
 C -4.63  0.70 -0.17
 H -5.29  2.10  1.30
 H -5.48  1.09 -0.75
 H -4.76 -0.39 -0.08
 H -3.72  0.90 -0.76
