35
#
 C -0.08  0.79  0.31
 C  0.12  0.06  1.62
 O  1.18  0.08  2.24
 H  0.87  1.24  0.03
 H -0.84  1.58  0.41
 H -0.42  0.11 -0.49
 N -0.96 -0.65  2.11
 C -2.31 -0.69  1.58
 C -3.18  0.58  1.72
 O -4.11  0.72  0.92
 H -0.77 -1.10  3.01
 H -2.24 -0.82  0.49
 C -3.07 -1.92  2.12
 C -3.40 -1.87  3.61
 C -4.11 -3.15  4.09
 N -4.46 -3.16  5.51
 C -3.48 -3.08  6.51
 N -2.30 -3.75  6.21
 N -3.59 -2.47  7.64
 H -2.47 -2.81  1.89
 H -4.00 -1.99  1.54
 H -4.05 -1.01  3.83
 H -2.49 -1.75  4.22
 H -3.49 -4.02  3.86
 H -5.05 -3.30  3.53
 H -5.27 -2.60  5.74
 H -2.41 -4.66  5.76
 H -1.70 -3.80  7.02
 H -4.44 -1.90  7.68
 N -2.94  1.51  2.68
 C -2.02  1.55  3.81
 H -3.60  2.28  2.61
 H -2.05  0.63  4.41
 H -2.32  2.37  4.46
 H -0.98  1.72  3.50
