35
#
 C -0.20  1.65  0.47
 C -0.05  0.74  1.68
 O  0.99  0.64  2.31
 H  0.73  2.20  0.34
 H -1.03  2.35  0.59
 H -0.40  1.06 -0.44
 N -1.17  0.02  2.06
 C -2.45 -0.07  1.37
 C -3.33  1.19  1.53
 O -4.16  1.49  0.67
 H -0.98 -0.65  2.80
 H -2.30 -0.16  0.28
 C -3.17 -1.35  1.85
 C -4.55 -1.64  1.25
 C -5.72 -1.05  2.07
 N -7.04 -1.36  1.55
 C -7.59 -0.65  0.48
 N -8.79 -1.24  0.04
 N -7.15  0.40 -0.11
 H -3.24 -1.31  2.95
 H -2.49 -2.18  1.62
 H -4.69 -2.73  1.21
 H -4.61 -1.27  0.22
 H -5.64  0.04  2.14
 H -5.67 -1.43  3.10
 H -7.29 -2.34  1.57
 H -9.24 -0.64 -0.64
 H -9.43 -1.50  0.79
 H -6.21  0.68  0.18
 N -3.16  1.87  2.69
 C -3.91  3.06  3.03
 H -2.38  1.58  3.28
 H -3.26  3.95  3.06
 H -4.41  2.95  4.00
 H -4.67  3.20  2.25
