35
#
 C -0.11 -0.03  0.28
 C -0.13 -0.16  1.79
 O  0.91 -0.30  2.43
 H -1.06  0.24 -0.18
 H  0.65  0.72  0.02
 H  0.22 -0.99 -0.13
 N -1.34 -0.19  2.47
 C -2.70  0.17  2.05
 C -3.20 -0.60  0.80
 O -3.98 -0.09 -0.00
 H -1.19 -0.24  3.47
 H -3.34 -0.23  2.86
 C -3.01  1.68  1.99
 C -2.22  2.53  1.00
 C -2.69  3.99  0.97
 N -2.56  4.73  2.22
 C -1.33  5.20  2.68
 N -1.42  5.73  3.97
 N -0.19  5.20  2.07
 H -2.86  2.07  3.01
 H -4.09  1.76  1.77
 H -2.34  2.13 -0.01
 H -1.15  2.50  1.24
 H -3.75  4.03  0.69
 H -2.15  4.54  0.19
 H -3.23  4.51  2.94
 H -0.55  6.18  4.23
 H -2.22  6.35  4.12
 H -0.22  4.67  1.20
 N -2.77 -1.89  0.73
 C -3.13 -2.78 -0.36
 H -2.08 -2.18  1.41
 H -3.50 -3.73  0.02
 H -2.27 -2.97 -1.02
 H -3.91 -2.29 -0.94
