35
#
 C  0.75  0.04  0.78
 C  0.07 -0.54  2.01
 O  0.52 -1.54  2.58
 H  0.93 -0.77  0.06
 H  1.74  0.43  1.08
 H  0.19  0.84  0.30
 N -1.06  0.12  2.41
 C -1.82 -0.14  3.64
 C -1.07  0.46  4.86
 O -1.30  1.63  5.19
 H -1.25  1.00  1.95
 H -2.71  0.50  3.56
 C -2.27 -1.60  3.76
 C -3.19 -1.85  4.96
 C -3.10 -3.27  5.52
 N -1.79 -3.57  6.14
 C -0.67 -3.91  5.39
 N -0.90 -4.89  4.44
 N  0.44 -3.28  5.61
 H -1.38 -2.24  3.81
 H -2.78 -1.88  2.83
 H -4.24 -1.64  4.70
 H -2.95 -1.15  5.78
 H -3.27 -4.01  4.73
 H -3.87 -3.43  6.28
 H -1.52 -2.87  6.83
 H -0.08 -5.21  3.94
 H -1.54 -5.64  4.70
 H  1.22 -3.70  5.10
 N -0.19 -0.33  5.50
 C  0.58  0.15  6.63
 H  0.01 -1.30  5.20
 H  1.06 -0.71  7.10
 H -0.07  0.66  7.35
 H  1.35  0.87  6.32
