35
#
 C -0.01  0.42  0.58
 C -0.70 -0.37  1.68
 O -0.76 -1.60  1.62
 H -0.33  0.03 -0.39
 H  1.07  0.26  0.67
 H -0.21  1.50  0.62
 N -1.20  0.37  2.70
 C -1.66 -0.10  4.02
 C -0.84 -1.34  4.47
 O  0.38 -1.24  4.53
 H -1.02  1.37  2.64
 H -1.26  0.66  4.71
 C -3.19  0.01  4.22
 C -4.24 -1.03  3.76
 C -4.23 -1.52  2.30
 N -3.32 -2.62  2.03
 C -3.59 -3.89  2.48
 N -2.52 -4.78  2.27
 N -4.70 -4.17  3.09
 H -3.47  0.98  3.78
 H -3.34  0.13  5.31
 H -5.22 -0.55  3.94
 H -4.27 -1.91  4.41
 H -3.98 -0.71  1.61
 H -5.24 -1.87  2.06
 H -2.34 -2.37  1.87
 H -2.79 -5.75  2.27
 H -1.91 -4.54  1.49
 H -4.76 -5.17  3.30
 N -1.54 -2.42  4.86
 C -0.90 -3.65  5.29
 H -2.53 -2.47  4.64
 H -1.34 -4.02  6.22
 H  0.16 -3.43  5.45
 H -0.99 -4.43  4.52
