35
#
 C -0.64  0.44  0.08
 C -0.41  0.72  1.55
 O  0.62  1.25  1.96
 H -0.54  1.38 -0.48
 H -1.62 -0.00 -0.14
 H  0.15 -0.24 -0.28
 N -1.43  0.36  2.38
 C -1.33  0.46  3.83
 C -0.96 -0.92  4.40
 O -1.76 -1.86  4.33
 H -2.18 -0.23  2.02
 H -0.53  1.19  4.01
 C -2.64  0.96  4.46
 C -3.01  2.38  4.05
 C -4.38  2.83  4.57
 N -4.55  2.81  6.02
 C -3.96  3.76  6.82
 N -4.12  3.48  8.19
 N -3.32  4.76  6.30
 H -2.51  0.90  5.56
 H -3.44  0.24  4.21
 H -3.02  2.45  2.95
 H -2.25  3.09  4.40
 H -5.17  2.20  4.14
 H -4.56  3.87  4.24
 H -4.64  1.89  6.44
 H -3.84  4.25  8.79
 H -5.04  3.13  8.44
 H -3.05  5.44  7.02
 N  0.27 -1.07  4.97
 C  1.34 -0.08  5.07
 H  0.44 -2.00  5.33
 H  2.27 -0.61  5.27
 H  1.17  0.63  5.89
 H  1.46  0.47  4.13
