35
#
 C -1.45  0.21 -0.33
 C -0.74  0.32  1.00
 O  0.49  0.26  1.09
 H -0.94 -0.52 -0.96
 H -1.38  1.19 -0.83
 H -2.51 -0.05 -0.25
 N -1.56  0.45  2.09
 C -1.12  0.83  3.42
 C -0.71  2.33  3.43
 O -0.58  2.95  2.37
 H -2.54  0.65  1.87
 H -2.04  0.79  4.03
 C -0.14 -0.24  4.04
 C  1.23  0.13  4.61
 C  2.37  0.42  3.62
 N  2.30  1.69  2.93
 C  2.58  2.90  3.53
 N  2.24  4.00  2.74
 N  3.13  3.11  4.69
 H  0.00 -1.00  3.26
 H -0.70 -0.74  4.84
 H  1.55 -0.74  5.21
 H  1.17  0.97  5.33
 H  2.39 -0.35  2.84
 H  3.33  0.35  4.15
 H  1.80  1.69  2.05
 H  2.37  4.87  3.24
 H  1.32  3.93  2.28
 H  3.44  2.23  5.11
 N -0.56  2.95  4.63
 C -0.79  2.46  5.97
 H -0.22  3.90  4.54
 H  0.14  2.46  6.56
 H -1.19  1.44  5.96
 H -1.53  3.10  6.49
