35
#
 C  0.51 -1.26  0.20
 C  0.24 -1.27  1.69
 O  0.87 -1.97  2.47
 H  0.37 -2.28 -0.19
 H  1.56 -0.98  0.03
 H -0.14 -0.57 -0.36
 N -0.75 -0.42  2.11
 C -1.20 -0.39  3.49
 C -2.66  0.09  3.47
 O -3.16  0.62  2.47
 H -1.36  0.06  1.45
 H -1.16 -1.42  3.88
 C -0.32  0.50  4.39
 C -0.28  1.97  3.97
 C  0.57  2.84  4.90
 N -0.03  2.94  6.22
 C  0.65  3.54  7.28
 N -0.17  3.68  8.41
 N  1.86  3.96  7.31
 H  0.70  0.07  4.36
 H -0.66  0.41  5.43
 H -1.30  2.38  3.92
 H  0.13  2.05  2.96
 H  0.72  3.84  4.44
 H  1.57  2.39  5.02
 H -1.03  3.14  6.21
 H  0.38  4.01  9.20
 H -0.71  2.85  8.65
 H  2.30  3.94  6.39
 N -3.34 -0.09  4.63
 C -4.72  0.33  4.82
 H -2.88 -0.58  5.39
 H -4.81  1.01  5.68
 H -5.38 -0.53  4.97
 H -5.03  0.86  3.91
