35
#
 C -1.98 -1.20  1.00
 C -1.48 -0.18  2.00
 O -0.54  0.57  1.72
 H -1.14 -1.85  0.72
 H -2.31 -0.68  0.09
 H -2.80 -1.82  1.38
 N -2.14 -0.16  3.18
 C -1.76  0.58  4.39
 C -1.91  2.13  4.34
 O -2.41  2.71  5.30
 H -2.84 -0.90  3.34
 H -2.52  0.32  5.13
 C -0.36  0.21  4.93
 C -0.06 -1.28  5.12
 C -0.86 -2.02  6.20
 N -2.27 -2.29  5.88
 C -2.65 -3.07  4.81
 N -1.94 -4.25  4.66
 N -3.59 -2.64  4.02
 H -0.24  0.75  5.89
 H  0.40  0.63  4.24
 H  1.00 -1.37  5.38
 H -0.18 -1.82  4.16
 H -0.86 -1.44  7.14
 H -0.36 -2.97  6.44
 H -2.88 -1.49  5.96
 H -2.29 -4.89  3.96
 H -1.63 -4.71  5.52
 H -3.92 -3.37  3.39
 N -1.41  2.74  3.24
 C -1.44  4.18  3.07
 H -0.96  2.13  2.54
 H -0.42  4.60  3.09
 H -2.01  4.61  3.90
 H -1.91  4.45  2.12
