35
#
 C -0.03  0.12 -0.12
 C -0.09  0.25  1.39
 O  0.79  0.82  2.03
 H  0.93 -0.33 -0.39
 H -0.05  1.13 -0.55
 H -0.84 -0.47 -0.55
 N -1.19 -0.34  1.97
 C -1.57 -0.30  3.39
 C -2.40  0.98  3.69
 O -3.62  0.92  3.48
 H -1.91 -0.67  1.34
 H -2.36 -1.07  3.47
 C -0.45 -0.72  4.35
 C -0.93 -0.81  5.80
 C  0.17 -1.31  6.75
 N -0.15 -1.21  8.16
 C -0.08  0.00  8.84
 N -0.64 -0.07 10.11
 N  0.42  1.12  8.43
 H  0.41 -0.06  4.27
 H -0.10 -1.71  4.02
 H -1.81 -1.48  5.88
 H -1.28  0.18  6.15
 H  1.10 -0.75  6.57
 H  0.41 -2.36  6.53
 H -0.90 -1.82  8.48
 H -0.45  0.78 10.64
 H -0.40 -0.90 10.64
 H  0.69  1.08  7.44
 N -1.83  2.14  4.12
 C -0.45  2.49  4.44
 H -2.53  2.85  4.28
 H -0.34  3.57  4.32
 H  0.24  2.00  3.75
 H -0.19  2.24  5.48
