35
#
 C -0.25 -0.10  1.38
 C -0.46  0.55  2.73
 O  0.00  1.66  2.99
 H  0.63  0.37  0.93
 H -1.11  0.10  0.72
 H -0.09 -1.18  1.46
 N -1.29 -0.05  3.67
 C -1.77 -1.42  3.81
 C -0.61 -2.43  4.03
 O  0.52 -2.26  3.60
 H -1.25  0.49  4.54
 H -2.35 -1.41  4.75
 C -2.73 -1.88  2.69
 C -4.20 -1.47  2.90
 C -4.49  0.04  2.98
 N -3.97  0.84  1.87
 C -4.26  0.56  0.54
 N -5.60  0.21  0.31
 N -3.32  0.61 -0.33
 H -2.70 -2.98  2.63
 H -2.37 -1.52  1.73
 H -4.59 -1.93  3.82
 H -4.79 -1.89  2.07
 H -4.06  0.47  3.89
 H -5.58  0.18  3.07
 H -2.99  1.09  1.97
 H -5.85  0.17 -0.67
 H -6.28  0.71  0.88
 H -3.68  0.53 -1.29
 N -0.99 -3.54  4.73
 C -0.09 -4.66  4.98
 H -1.94 -3.61  5.06
 H -0.42 -5.57  4.47
 H -0.00 -4.86  6.06
 H  0.90 -4.37  4.59
