35
#
 C -1.18  0.07 -0.01
 C -1.37 -0.45  1.40
 O -1.05 -1.59  1.70
 H -1.27  1.16 -0.13
 H -1.94 -0.40 -0.65
 H -0.20 -0.26 -0.37
 N -1.99  0.35  2.34
 C -2.20  1.80  2.39
 C -3.04  2.34  1.21
 O -2.90  3.49  0.77
 H -2.02 -0.12  3.24
 H -2.89  1.95  3.24
 C -0.95  2.64  2.76
 C  0.34  2.45  1.95
 C  0.46  3.32  0.69
 N  0.57  4.73  1.03
 C  0.10  5.77  0.22
 N -1.04  5.47 -0.50
 N  0.63  6.95  0.12
 H -0.74  2.40  3.81
 H -1.24  3.70  2.73
 H  0.49  1.39  1.68
 H  1.18  2.70  2.61
 H -0.41  3.19  0.03
 H  1.34  2.98  0.10
 H  1.44  4.98  1.48
 H -1.43  6.30 -0.94
 H -1.74  4.89 -0.04
 H  1.53  6.99  0.60
 N -4.00  1.49  0.77
 C -4.92  1.82 -0.31
 H -4.00  0.56  1.16
 H -5.95  1.62 -0.01
 H -4.69  1.24 -1.22
 H -4.81  2.88 -0.53
