35
#
 C -2.41  1.47 -0.79
 C -1.74  1.59  0.57
 O -0.94  2.49  0.82
 H -3.49  1.28 -0.74
 H -1.96  0.63 -1.35
 H -2.22  2.39 -1.34
 N -2.05  0.65  1.52
 C -2.90 -0.53  1.38
 C -3.56 -0.75  2.76
 O -2.98 -1.38  3.65
 H -1.51  0.73  2.38
 H -3.67 -0.31  0.64
 C -2.11 -1.79  0.97
 C -3.01 -3.00  0.66
 C -3.45 -3.15 -0.81
 N -4.04 -1.98 -1.45
 C -5.29 -1.49 -1.13
 N -5.57 -0.27 -1.76
 N -6.17 -2.00 -0.33
 H -1.43 -2.03  1.79
 H -1.49 -1.54  0.09
 H -3.89 -2.98  1.32
 H -2.48 -3.93  0.93
 H -4.15 -3.99 -0.90
 H -2.57 -3.42 -1.42
 H -3.40 -1.31 -1.84
 H -6.56 -0.04 -1.65
 H -5.28 -0.22 -2.73
 H -5.82 -2.82  0.16
 N -4.77 -0.18  2.96
 C -5.56  0.62  2.03
 H -5.14 -0.31  3.90
 H -5.98 -0.00  1.22
 H -4.97  1.44  1.60
 H -6.39  1.07  2.58
