35
#
 C  2.35  1.10  1.14
 C  1.60  0.57  2.34
 O  2.16  0.45  3.44
 H  3.16  0.40  0.90
 H  2.81  2.06  1.40
 H  1.72  1.23  0.24
 N  0.29  0.25  2.13
 C -0.68 -0.43  3.00
 C -1.06  0.24  4.34
 O -2.21  0.06  4.77
 H -0.05  0.43  1.19
 H -1.62 -0.37  2.43
 C -0.40 -1.94  3.19
 C  0.65 -2.36  4.26
 C  0.08 -3.33  5.30
 N -1.02 -2.78  6.07
 C -0.82 -2.00  7.19
 N -1.97 -1.27  7.54
 N  0.31 -2.04  7.82
 H -0.13 -2.35  2.21
 H -1.37 -2.39  3.44
 H  1.04 -1.48  4.79
 H  1.52 -2.82  3.77
 H  0.86 -3.60  6.02
 H -0.27 -4.26  4.82
 H -1.91 -2.64  5.60
 H -1.81 -0.64  8.32
 H -2.39 -0.78  6.74
 H  0.30 -1.40  8.62
 N -0.10  0.94  4.96
 C -0.29  1.56  6.26
 H  0.86  0.86  4.58
 H  0.23  2.53  6.29
 H  0.11  0.93  7.07
 H -1.36  1.72  6.43
