35
#
 C -1.70 -1.19  0.45
 C -1.14 -0.25  1.50
 O -0.30  0.61  1.23
 H -0.88 -1.75 -0.01
 H -2.16 -0.58 -0.35
 H -2.45 -1.88  0.84
 N -1.61 -0.45  2.77
 C -1.35  0.50  3.84
 C -0.19  0.14  4.78
 O  0.05  0.82  5.78
 H -2.42 -1.06  2.90
 H -1.03  1.43  3.35
 C -2.64  0.79  4.64
 C -3.05 -0.21  5.73
 C -3.13 -1.71  5.38
 N -3.76 -2.07  4.09
 C -5.15 -2.08  3.88
 N -5.84 -1.05  4.50
 N -5.81 -2.95  3.19
 H -3.45  0.93  3.90
 H -2.51  1.76  5.14
 H -4.02  0.11  6.15
 H -2.34 -0.14  6.56
 H -3.62 -2.24  6.21
 H -2.10 -2.10  5.31
 H -3.38 -2.95  3.74
 H -5.38 -0.14  4.52
 H -6.81 -1.01  4.19
 H -5.21 -3.73  2.91
 N  0.53 -0.96  4.43
 C  1.73 -1.37  5.12
 H  0.28 -1.40  3.55
 H  2.63 -1.19  4.52
 H  1.69 -2.44  5.38
 H  1.80 -0.78  6.04
