35
#
 C  0.33 -0.13 -0.01
 C  0.41 -0.35  1.49
 O  1.48 -0.52  2.07
 H  1.34 -0.19 -0.41
 H -0.09  0.86 -0.26
 H -0.30 -0.89 -0.51
 N -0.77 -0.33  2.19
 C -2.13 -0.24  1.66
 C -2.93  0.65  2.63
 O -3.52  0.18  3.60
 H -0.67 -0.55  3.18
 H -2.06  0.25  0.68
 C -2.79 -1.62  1.49
 C -4.20 -1.59  0.88
 C -4.26 -0.94 -0.50
 N -5.60 -1.07 -1.06
 C -5.90 -0.52 -2.31
 N -7.26 -0.58 -2.60
 N -5.08  0.02 -3.15
 H -2.84 -2.09  2.48
 H -2.12 -2.23  0.87
 H -4.88 -1.06  1.57
 H -4.57 -2.62  0.80
 H -3.55 -1.44 -1.18
 H -3.96  0.12 -0.45
 H -6.35 -1.00 -0.39
 H -7.44 -0.30 -3.56
 H -7.71 -1.46 -2.37
 H -4.15  0.12 -2.76
 N -2.94  1.99  2.37
 C -2.17  2.71  1.36
 H -3.41  2.54  3.08
 H -1.09  2.58  1.49
 H -2.40  3.77  1.44
 H -2.45  2.40  0.34
