35
#
 C -0.89  0.48  0.35
 C -0.19  0.47  1.70
 O  0.78  1.18  1.94
 H -0.55 -0.37 -0.26
 H -0.59  1.41 -0.16
 H -1.98  0.44  0.43
 N -0.66 -0.39  2.68
 C -1.91 -1.17  2.72
 C -2.17 -1.72  4.13
 O -3.32 -1.90  4.52
 H -0.25 -0.16  3.58
 H -2.77 -0.51  2.53
 C -2.00 -2.33  1.70
 C -1.05 -3.52  1.88
 C  0.43 -3.23  1.62
 N  1.22 -4.44  1.74
 C  2.61 -4.39  1.80
 N  3.18 -5.67  1.78
 N  3.37 -3.36  1.87
 H -1.91 -1.93  0.69
 H -3.04 -2.70  1.78
 H -1.38 -4.31  1.18
 H -1.16 -3.96  2.89
 H  0.81 -2.50  2.35
 H  0.55 -2.74  0.63
 H  0.85 -5.24  1.24
 H  4.18 -5.62  1.94
 H  2.72 -6.35  2.38
 H  2.85 -2.48  1.73
 N -1.07 -2.02  4.88
 C -1.18 -2.64  6.19
 H -0.16 -2.02  4.43
 H -0.34 -2.34  6.82
 H -1.20 -3.74  6.12
 H -2.12 -2.31  6.65
