35
#
 C  0.53 -0.15 -0.19
 C  0.31  0.38  1.22
 O  1.15  1.11  1.75
 H -0.30 -0.74 -0.59
 H  1.45 -0.76 -0.20
 H  0.71  0.71 -0.86
 N -0.86 -0.01  1.79
 C -1.39  0.19  3.15
 C -2.53  1.22  3.29
 O -3.42  0.98  4.11
 H -1.45 -0.60  1.21
 H -1.91 -0.75  3.37
 C -0.35  0.35  4.29
 C  0.12  1.76  4.63
 C  1.17  1.78  5.75
 N  2.32  0.88  5.53
 C  3.48  1.29  4.87
 N  3.25  2.05  3.73
 N  4.62  0.96  5.38
 H  0.52 -0.28  4.06
 H -0.82 -0.09  5.18
 H -0.73  2.37  4.98
 H  0.52  2.26  3.75
 H  0.70  1.44  6.69
 H  1.51  2.81  5.91
 H  2.60  0.37  6.36
 H  4.09  2.26  3.21
 H  2.49  1.74  3.12
 H  5.38  1.18  4.74
 N -2.57  2.36  2.54
 C -1.61  2.94  1.62
 H -3.40  2.91  2.75
 H -0.58  2.72  1.92
 H -1.73  4.03  1.62
 H -1.75  2.58  0.59
