35
#
 C  1.41 -1.97  0.57
 C -0.06 -2.21  0.88
 O -0.81 -2.79  0.10
 H  1.48 -1.41 -0.36
 H  1.89 -2.94  0.41
 H  1.94 -1.43  1.36
 N -0.49 -1.74  2.09
 C -1.88 -1.77  2.49
 C -2.03 -0.67  3.57
 O -1.05 -0.09  4.03
 H  0.10 -1.12  2.66
 H -2.50 -1.50  1.63
 C -2.32 -3.19  2.94
 C -1.57 -3.77  4.15
 C -2.28 -3.62  5.50
 N -3.57 -4.31  5.54
 C -4.79 -3.67  5.41
 N -5.82 -4.53  5.00
 N -5.06 -2.42  5.60
 H -2.17 -3.82  2.06
 H -3.41 -3.19  3.12
 H -0.57 -3.32  4.22
 H -1.40 -4.84  3.98
 H -2.45 -2.56  5.74
 H -1.64 -4.01  6.30
 H -3.54 -5.24  5.13
 H -5.77 -5.48  5.36
 H -6.73 -4.11  5.15
 H -4.22 -1.91  5.87
 N -3.30 -0.38  3.94
 C -3.57  0.61  4.97
 H -4.06 -0.99  3.66
 H -4.64  0.59  5.19
 H -3.29  1.62  4.62
 H -3.00  0.41  5.89
