35
#
 C -0.64  3.01  1.63
 C -0.38  1.58  2.07
 O  0.58  1.28  2.78
 H  0.16  3.64  2.04
 H -1.60  3.38  2.01
 H -0.65  3.12  0.54
 N -1.27  0.62  1.65
 C -2.46  0.78  0.84
 C -3.44 -0.33  1.26
 O -3.03 -1.40  1.73
 H -1.12 -0.31  2.02
 H -2.92  1.76  1.06
 C -2.18  0.74 -0.69
 C -1.59 -0.58 -1.22
 C -2.64 -1.63 -1.63
 N -2.10 -2.91 -2.04
 C -1.48 -3.82 -1.19
 N -1.95 -3.83  0.12
 N -0.61 -4.62 -1.70
 H -1.49  1.56 -0.90
 H -3.11  0.98 -1.23
 H -0.91 -1.01 -0.47
 H -0.96 -0.36 -2.09
 H -3.23 -1.24 -2.47
 H -3.36 -1.80 -0.82
 H -1.64 -2.93 -2.95
 H -1.35 -4.33  0.77
 H -2.35 -2.98  0.53
 H -0.29 -5.31 -1.01
 N -4.75 -0.06  1.04
 C -5.80 -1.04  1.26
 H -5.00  0.85  0.66
 H -6.58 -0.63  1.91
 H -5.36 -1.91  1.73
 H -6.26 -1.34  0.31
