35
#
 C  0.43 -0.35  2.69
 C -0.62  0.50  3.37
 O -0.36  1.59  3.85
 H  0.65  0.07  1.70
 H  0.16 -1.41  2.57
 H  1.35 -0.28  3.29
 N -1.91 -0.00  3.49
 C -2.56 -1.06  2.71
 C -2.13 -2.50  3.10
 O -2.31 -3.45  2.34
 H -2.53  0.69  3.91
 H -3.62 -1.03  3.01
 C -2.51 -0.84  1.19
 C -3.35  0.37  0.75
 C -3.00  0.90 -0.66
 N -1.73  1.63 -0.72
 C -0.48  1.03 -0.85
 N -0.46 -0.10 -1.66
 N  0.62  1.43 -0.30
 H -2.87 -1.75  0.70
 H -1.47 -0.72  0.87
 H -3.22  1.21  1.46
 H -4.42  0.11  0.77
 H -3.79  1.58 -1.00
 H -2.97  0.07 -1.38
 H -1.70  2.43 -0.10
 H  0.49 -0.40 -1.84
 H -1.03 -0.06 -2.50
 H  0.45  2.18  0.38
 N -1.61 -2.61  4.35
 C -1.18 -3.88  4.91
 H -1.47 -1.75  4.87
 H -1.68 -4.08  5.86
 H -0.09 -3.89  5.07
 H -1.44 -4.66  4.19
