35
#
 C  0.04 -0.76  0.24
 C  0.09 -0.63  1.75
 O  1.08 -0.97  2.39
 H  0.24 -1.81 -0.03
 H  0.86 -0.16 -0.19
 H -0.91 -0.45 -0.21
 N -1.02 -0.07  2.32
 C -1.32 -0.02  3.76
 C -2.64  0.74  4.00
 O -3.36  0.46  4.95
 H -1.84 -0.02  1.72
 H -1.51 -1.04  4.13
 C -0.23  0.58  4.68
 C  0.20  2.04  4.46
 C  1.13  2.31  3.27
 N  2.38  1.55  3.33
 C  3.64  2.10  3.34
 N  3.71  3.42  3.83
 N  4.74  1.53  2.95
 H  0.65 -0.07  4.63
 H -0.64  0.48  5.69
 H  0.73  2.36  5.38
 H -0.68  2.70  4.38
 H  1.38  3.38  3.23
 H  0.61  2.08  2.32
 H  2.32  0.60  2.98
 H  4.68  3.70  3.92
 H  3.19  3.58  4.69
 H  4.54  0.64  2.49
 N -2.94  1.72  3.09
 C -4.09  2.60  3.27
 H -2.21  2.01  2.45
 H -4.52  2.86  2.30
 H -3.83  3.52  3.81
 H -4.84  2.06  3.86
