35
#
 C -0.01  0.22  0.04
 C -0.03  0.07  1.54
 O  1.01 -0.09  2.19
 H  0.62  1.08 -0.23
 H -1.01  0.37 -0.40
 H  0.45 -0.67 -0.41
 N -1.25  0.13  2.14
 C -1.42  0.03  3.59
 C -1.47 -1.46  4.01
 O -2.53 -2.05  4.25
 H -2.08  0.18  1.56
 H -0.51  0.47  4.02
 C -2.66  0.81  4.03
 C -2.83  0.92  5.55
 C -1.66  1.60  6.30
 N -1.27  2.92  5.82
 C -2.04  4.05  6.07
 N -1.56  5.17  5.36
 N -3.07  4.18  6.82
 H -3.55  0.31  3.63
 H -2.61  1.81  3.59
 H -2.98 -0.08  5.99
 H -3.75  1.49  5.74
 H -0.76  0.97  6.25
 H -1.91  1.68  7.37
 H -0.73  2.95  4.97
 H -2.05  6.01  5.67
 H -0.55  5.29  5.40
 H -3.39  3.28  7.18
 N -0.24 -2.03  4.06
 C -0.05 -3.45  4.31
 H  0.53 -1.48  3.68
 H  0.79 -3.61  4.99
 H  0.14 -4.01  3.38
 H -0.97 -3.84  4.76
