35
#
 C -0.03  0.60  0.54
 C -0.01  0.22  2.01
 O  1.02  0.26  2.67
 H -0.96  1.07  0.22
 H  0.13 -0.31 -0.06
 H  0.81  1.28  0.36
 N -1.19 -0.20  2.57
 C -2.48 -0.43  1.96
 C -3.45 -0.76  3.11
 O -3.05 -1.26  4.16
 H -1.12 -0.54  3.53
 H -2.82  0.49  1.46
 C -2.51 -1.58  0.90
 C -1.70 -2.82  1.30
 C -1.59 -3.82  0.14
 N -0.38 -4.62  0.17
 C  0.82 -4.03 -0.19
 N  1.94 -4.86 -0.03
 N  0.83 -2.84 -0.70
 H -2.09 -1.19 -0.04
 H -3.55 -1.84  0.69
 H -2.13 -3.29  2.20
 H -0.69 -2.50  1.57
 H -1.58 -3.28 -0.81
 H -2.45 -4.51  0.12
 H -0.32 -5.33  0.90
 H  2.81 -4.36  0.13
 H  1.83 -5.67  0.56
 H  1.77 -2.59 -1.02
 N -4.77 -0.53  2.89
 C -5.39  0.19  1.79
 H -5.36 -0.78  3.69
 H -5.23 -0.32  0.83
 H -5.03  1.22  1.71
 H -6.47  0.22  1.97
