35
#
 C -0.72  0.02  4.65
 C -1.21 -0.77  3.46
 O -1.09 -1.99  3.37
 H  0.10  0.69  4.37
 H -0.35 -0.69  5.40
 H -1.51  0.64  5.10
 N -1.83 -0.06  2.45
 C -2.01  1.38  2.35
 C -3.29  1.93  3.02
 O -3.49  3.14  3.08
 H -2.08 -0.64  1.65
 H -1.18  1.88  2.87
 C -1.97  1.85  0.88
 C -3.11  1.33  0.01
 C -3.05  1.90 -1.41
 N -4.16  1.41 -2.21
 C -4.24  1.47 -3.60
 N -3.07  1.89 -4.23
 N -5.24  1.11 -4.32
 H -0.99  1.56  0.45
 H -1.99  2.95  0.90
 H -4.07  1.61  0.47
 H -3.10  0.23 -0.07
 H -2.11  1.59 -1.89
 H -3.04  3.01 -1.35
 H -5.06  1.37 -1.75
 H -3.23  1.99 -5.23
 H -2.60  2.70 -3.83
 H -5.98  0.68 -3.75
 N -4.15  0.99  3.51
 C -5.39  1.33  4.18
 H -3.87  0.02  3.41
 H -5.39  0.97  5.22
 H -6.25  0.90  3.65
 H -5.48  2.42  4.18
