35
#
 C  0.06  0.20  0.41
 C  0.05  0.04  1.92
 O  1.09  0.03  2.58
 H  1.10  0.25  0.09
 H -0.45  1.12  0.10
 H -0.43 -0.65 -0.10
 N -1.17 -0.06  2.54
 C -2.49 -0.02  1.94
 C -3.43  0.56  3.01
 O -3.14  0.50  4.21
 H -1.17 -0.05  3.56
 H -2.48  0.67  1.07
 C -2.97 -1.41  1.43
 C -3.20 -2.47  2.52
 C -4.64 -2.50  3.04
 N -4.78 -3.45  4.13
 C -6.05 -3.86  4.52
 N -6.02 -4.62  5.69
 N -7.09 -3.51  3.84
 H -2.20 -1.76  0.74
 H -3.88 -1.29  0.83
 H -2.50 -2.29  3.35
 H -2.96 -3.46  2.12
 H -5.33 -2.81  2.24
 H -4.97 -1.49  3.35
 H -4.14 -3.31  4.90
 H -6.90 -5.08  5.90
 H -5.23 -5.26  5.76
 H -7.93 -3.98  4.19
 N -4.60  1.13  2.60
 C -5.17  1.19  1.27
 H -5.20  1.41  3.38
 H -5.84  2.06  1.21
 H -5.75  0.29  1.02
 H -4.39  1.33  0.51
