35
#
 C -0.18 -0.52  0.60
 C -0.09  0.54  1.68
 O  1.00  0.93  2.09
 H -1.08 -0.49 -0.01
 H -0.13 -1.51  1.08
 H  0.71 -0.42 -0.03
 N -1.24  1.04  2.25
 C -2.60  1.12  1.70
 C -3.15 -0.26  1.25
 O -3.79 -0.41  0.22
 H -1.02  1.81  2.90
 H -3.23  1.37  2.57
 C -2.86  2.24  0.68
 C -1.90  2.43 -0.50
 C -0.61  3.24 -0.23
 N -0.86  4.53  0.40
 C -0.81  4.70  1.78
 N -1.61  5.77  2.22
 N -0.17  4.01  2.66
 H -2.94  3.18  1.23
 H -3.87  2.03  0.27
 H -2.46  2.96 -1.29
 H -1.62  1.46 -0.95
 H -0.10  3.41 -1.19
 H  0.10  2.69  0.40
 H -1.58  5.08 -0.06
 H -1.35  6.04  3.17
 H -1.65  6.57  1.60
 H  0.39  3.26  2.25
 N -2.91 -1.26  2.14
 C -3.30 -2.64  1.90
 H -2.29 -1.05  2.92
 H -3.77 -3.07  2.79
 H -2.44 -3.26  1.61
 H -4.02 -2.64  1.07
