35
#
 C  0.18  0.28 -0.38
 C -0.15 -0.49  0.88
 O  0.46 -1.51  1.21
 H  1.22  0.62 -0.33
 H -0.47  1.14 -0.56
 H  0.11 -0.41 -1.24
 N -1.14  0.05  1.65
 C -1.66 -0.66  2.80
 C -3.05 -0.05  3.09
 O -3.64  0.61  2.23
 H -1.79  0.73  1.26
 H -1.81 -1.72  2.52
 C -0.70 -0.63  4.02
 C -0.71 -1.95  4.83
 C -0.61 -1.75  6.34
 N -1.79 -1.09  6.90
 C -1.76  0.22  7.40
 N -2.93  0.54  8.09
 N -0.83  1.10  7.29
 H -0.95  0.23  4.65
 H  0.31 -0.46  3.64
 H  0.11 -2.59  4.48
 H -1.63 -2.51  4.63
 H  0.29 -1.18  6.60
 H -0.50 -2.73  6.83
 H -2.37 -1.70  7.47
 H -3.79  0.21  7.67
 H -2.96  1.53  8.32
 H  0.02  0.72  6.87
 N -3.58 -0.33  4.31
 C -4.87  0.21  4.72
 H -2.99 -0.72  5.03
 H -4.77  1.18  5.23
 H -5.37 -0.50  5.39
 H -5.49  0.36  3.83
