35
#
 C  1.68 -1.55  2.22
 C  0.74 -2.56  2.85
 O  1.13 -3.56  3.45
 H  2.70 -1.85  2.47
 H  1.49 -0.54  2.59
 H  1.56 -1.54  1.13
 N -0.61 -2.31  2.74
 C -1.27 -1.22  2.03
 C -1.35  0.12  2.81
 O -1.66  1.15  2.22
 H -1.20 -3.05  3.12
 H -0.69 -0.97  1.13
 C -2.68 -1.63  1.57
 C -3.64 -2.02  2.69
 C -5.05 -2.30  2.15
 N -6.01 -2.77  3.14
 C -6.57 -1.88  4.05
 N -7.37 -2.54  5.00
 N -6.32 -0.62  3.98
 H -2.58 -2.45  0.84
 H -3.09 -0.77  1.02
 H -3.71 -1.22  3.44
 H -3.29 -2.93  3.22
 H -5.01 -3.06  1.35
 H -5.46 -1.38  1.72
 H -5.85 -3.71  3.50
 H -7.91 -1.91  5.58
 H -7.94 -3.29  4.63
 H -6.90 -0.09  4.62
 N -1.07  0.04  4.14
 C -1.15  1.19  5.02
 H -0.82 -0.87  4.51
 H -0.20  1.35  5.54
 H -1.39  2.06  4.41
 H -1.94  1.05  5.77
