35
#
 C -3.30  2.82 -0.31
 C -2.28  1.97  0.43
 O -1.41  1.32 -0.15
 H -4.01  3.34  0.35
 H -3.85  2.18 -1.01
 H -2.76  3.57 -0.91
 N -2.40  1.97  1.79
 C -1.53  1.17  2.64
 C -2.35  0.78  3.87
 O -3.15  1.57  4.39
 H -3.14  2.48  2.27
 H -1.24  0.29  2.05
 C -0.27  1.97  3.04
 C  0.76  1.22  3.89
 C  1.40  0.02  3.17
 N  2.32 -0.67  4.05
 C  2.84 -1.91  3.72
 N  3.80 -2.35  4.64
 N  2.55 -2.65  2.70
 H -0.60  2.87  3.58
 H  0.20  2.31  2.10
 H  0.31  0.87  4.83
 H  1.55  1.93  4.17
 H  1.88  0.36  2.23
 H  0.63 -0.70  2.87
 H  2.96 -0.07  4.56
 H  4.08 -3.31  4.44
 H  3.54 -2.22  5.62
 H  1.97 -2.16  2.02
 N -2.11 -0.47  4.36
 C -2.73 -0.99  5.56
 H -1.47 -1.06  3.85
 H -1.98 -1.26  6.31
 H -3.35 -1.87  5.34
 H -3.37 -0.20  5.97
