35
#
 C -0.91 -0.38 -0.23
 C -0.43 -0.31  1.21
 O  0.71 -0.65  1.54
 H -0.26  0.25 -0.84
 H -1.95 -0.07 -0.36
 H -0.80 -1.41 -0.59
 N -1.34  0.15  2.11
 C -1.06  0.21  3.53
 C -2.41  0.19  4.25
 O -3.43  0.62  3.68
 H -2.30  0.35  1.85
 H -0.45 -0.66  3.79
 C -0.25  1.48  3.92
 C -0.85  2.83  3.48
 C -1.48  3.69  4.59
 N -2.63  3.10  5.25
 C -2.65  2.72  6.58
 N -3.86  2.08  6.93
 N -1.75  2.84  7.50
 H  0.74  1.35  3.45
 H -0.08  1.47  5.01
 H -1.59  2.67  2.69
 H -0.07  3.44  3.02
 H -1.77  4.66  4.16
 H -0.72  3.92  5.35
 H -3.27  2.60  4.65
 H -3.95  2.05  7.94
 H -4.69  2.48  6.50
 H -0.88  3.23  7.12
 N -2.46 -0.26  5.53
 C -1.35 -0.66  6.39
 H -3.32  0.01  6.00
 H -1.70 -1.44  7.08
 H -0.98  0.19  6.99
 H -0.53 -1.08  5.80
