35
#
 C  0.17 -0.10 -0.26
 C -0.02 -0.39  1.22
 O  0.70 -1.20  1.81
 H  1.22  0.14 -0.44
 H -0.46  0.71 -0.64
 H -0.06 -1.02 -0.82
 N -1.03  0.31  1.81
 C -1.61  0.19  3.16
 C -1.26  1.36  4.11
 O -2.18  1.91  4.74
 H -1.54  0.95  1.20
 H -2.69  0.32  3.02
 C -1.42 -1.18  3.84
 C -2.33 -1.36  5.07
 C -3.76 -1.84  4.78
 N -4.51 -1.06  3.78
 C -5.41 -0.04  4.13
 N -4.95  0.78  5.15
 N -6.57  0.17  3.60
 H -0.37 -1.32  4.13
 H -1.64 -1.96  3.10
 H -2.36 -0.43  5.67
 H -1.88 -2.11  5.73
 H -4.32 -1.88  5.72
 H -3.70 -2.86  4.39
 H -4.91 -1.65  3.05
 H -5.60  1.54  5.32
 H -3.98  1.11  5.06
 H -6.83 -0.61  2.99
 N  0.02  1.77  4.29
 C  1.26  1.28  3.71
 H  0.08  2.55  4.93
 H  2.06  1.39  4.45
 H  1.54  1.86  2.81
 H  1.19  0.23  3.43
