35
#
 C  0.34 -0.15  0.19
 C -0.02  0.01  1.65
 O  0.79  0.42  2.49
 H  0.81  0.78 -0.16
 H -0.51 -0.38 -0.46
 H  1.09 -0.95  0.09
 N -1.32 -0.32  1.97
 C -1.79 -0.42  3.35
 C -3.14 -1.16  3.47
 O -3.33 -1.86  4.46
 H -1.84 -0.82  1.26
 H -1.10 -1.08  3.90
 C -1.81  0.90  4.16
 C -2.68  2.06  3.64
 C -2.02  2.89  2.52
 N -2.92  3.90  1.96
 C -3.79  3.63  0.91
 N -3.23  2.82 -0.09
 N -5.00  4.04  0.76
 H -0.77  1.23  4.26
 H -2.15  0.62  5.16
 H -2.90  2.73  4.48
 H -3.65  1.69  3.29
 H -1.69  2.24  1.71
 H -1.12  3.39  2.91
 H -3.36  4.49  2.66
 H -3.84  2.80 -0.90
 H -2.27  3.06 -0.34
 H -5.34  4.49  1.61
 N -4.09 -1.08  2.48
 C -4.34 -0.10  1.42
 H -4.89 -1.66  2.73
 H -3.47  0.53  1.24
 H -5.18  0.56  1.68
 H -4.59 -0.62  0.48
