35
#
 C  1.27  0.42  0.19
 C  0.86  0.49  1.65
 O  1.69  0.61  2.55
 H  1.72  1.38 -0.09
 H  0.44  0.20 -0.49
 H  2.05 -0.35  0.08
 N -0.49  0.45  1.88
 C -1.03  0.55  3.22
 C -1.45 -0.86  3.71
 O -2.43 -1.42  3.21
 H -1.12  0.25  1.12
 H -0.19  0.93  3.83
 C -2.22  1.52  3.30
 C -2.53  1.95  4.74
 C -1.53  2.95  5.34
 N -1.52  4.25  4.69
 C -0.63  4.63  3.69
 N -0.99  5.87  3.13
 N  0.41  4.03  3.23
 H -3.09  1.02  2.86
 H -1.98  2.40  2.68
 H -2.58  1.06  5.39
 H -3.53  2.40  4.77
 H -0.50  2.56  5.31
 H -1.76  3.09  6.40
 H -2.42  4.71  4.65
 H -0.26  6.19  2.51
 H -1.24  6.58  3.82
 H  0.53  3.08  3.61
 N -0.70 -1.44  4.68
 C  0.48 -0.91  5.35
 H -1.04 -2.36  4.96
 H  1.01 -1.74  5.83
 H  0.22 -0.18  6.14
 H  1.17 -0.44  4.64
