35
#
 C -0.60 -1.33 -0.89
 C  0.05 -0.35  0.06
 O  1.25 -0.07 -0.02
 H  0.17 -2.03 -1.23
 H -0.96 -0.77 -1.77
 H -1.45 -1.88 -0.48
 N -0.73  0.27  1.01
 C -2.14  0.09  1.36
 C -2.49 -1.38  1.71
 O -3.39 -1.99  1.13
 H -0.20  0.95  1.55
 H -2.27  0.67  2.29
 C -3.13  0.66  0.33
 C -2.94  2.16  0.09
 C -3.90  2.71 -0.97
 N -3.80  4.15 -1.20
 C -4.16  5.08 -0.24
 N -5.30  4.73  0.50
 N -3.43  6.13 -0.09
 H -4.14  0.46  0.69
 H -3.03  0.11 -0.61
 H -1.90  2.37 -0.22
 H -3.10  2.72  1.03
 H -4.93  2.45 -0.70
 H -3.71  2.21 -1.94
 H -2.93  4.44 -1.64
 H -5.67  5.50  1.05
 H -6.03  4.25 -0.02
 H -3.88  6.81  0.54
 N -1.75 -1.97  2.70
 C -0.69 -1.42  3.52
 H -2.01 -2.94  2.85
 H  0.27 -1.38  3.00
 H -0.58 -2.05  4.41
 H -0.94 -0.41  3.87
