35
#
 C  1.12 -0.41  0.47
 C  0.70  0.22  1.79
 O  1.36  1.10  2.33
 H  2.18 -0.68  0.53
 H  1.02  0.35 -0.32
 H  0.53 -1.29  0.19
 N -0.49 -0.25  2.29
 C -1.03  0.11  3.61
 C -2.35 -0.62  3.88
 O -2.69 -0.90  5.03
 H -0.82 -1.13  1.91
 H -0.34 -0.24  4.39
 C -1.23  1.63  3.85
 C -2.30  2.36  3.04
 C -2.03  2.48  1.54
 N -2.99  3.36  0.91
 C -3.02  3.50 -0.48
 N -4.13  4.23 -0.92
 N -2.17  3.05 -1.33
 H -0.25  2.11  3.71
 H -1.48  1.72  4.91
 H -2.38  3.38  3.44
 H -3.29  1.90  3.20
 H -2.04  1.48  1.06
 H -1.01  2.88  1.38
 H -3.91  3.37  1.34
 H -4.04  4.44 -1.91
 H -4.33  5.06 -0.37
 H -1.48  2.44 -0.89
 N -3.12 -0.92  2.79
 C -4.44 -1.50  2.92
 H -2.87 -0.48  1.90
 H -4.67 -2.11  2.04
 H -5.22 -0.73  3.02
 H -4.46 -2.12  3.82
