35
#
 C -0.69  1.59 -0.07
 C -0.54  1.17  1.38
 O  0.45  1.50  2.05
 H  0.25  1.41 -0.59
 H -0.88  2.67 -0.10
 H -1.51  1.07 -0.59
 N -1.57  0.46  1.89
 C -1.73  0.09  3.29
 C -3.16 -0.51  3.39
 O -3.97 -0.39  2.47
 H -2.42  0.31  1.34
 H -1.01 -0.71  3.54
 C -1.50  1.25  4.28
 C -2.19  2.56  3.90
 C -1.49  3.79  4.51
 N -1.72  5.04  3.80
 C -1.10  5.37  2.59
 N  0.06  4.67  2.30
 N -1.47  6.32  1.80
 H -0.41  1.42  4.32
 H -1.80  0.92  5.29
 H -3.26  2.55  4.18
 H -2.17  2.68  2.81
 H -0.41  3.62  4.55
 H -1.81  3.94  5.56
 H -2.65  5.43  3.88
 H  0.43  4.94  1.40
 H  0.12  3.67  2.47
 H -2.26  6.84  2.19
 N -3.43 -1.14  4.56
 C -4.72 -1.73  4.85
 H -2.70 -1.21  5.25
 H -5.19 -1.25  5.72
 H -4.63 -2.81  5.06
 H -5.36 -1.59  3.97
