35
#
 C -0.16 -0.09 -0.11
 C -0.01 -0.28  1.38
 O  0.97 -0.82  1.89
 H  0.62  0.60 -0.46
 H -1.14  0.30 -0.42
 H  0.01 -1.05 -0.61
 N -1.05  0.18  2.14
 C -1.03  0.17  3.60
 C -0.76 -1.20  4.26
 O -0.06 -1.25  5.27
 H -1.83  0.64  1.69
 H -0.17  0.77  3.95
 C -2.32  0.83  4.12
 C -2.40  1.01  5.64
 C -3.03 -0.17  6.39
 N -3.04 -0.02  7.85
 C -3.77  0.97  8.50
 N -5.00  1.26  7.90
 N -3.44  1.60  9.57
 H -3.20  0.25  3.77
 H -2.39  1.81  3.64
 H -3.01  1.91  5.86
 H -1.40  1.20  6.05
 H -2.48 -1.10  6.18
 H -4.06 -0.33  6.04
 H -2.12 -0.16  8.27
 H -5.56  1.86  8.50
 H -5.52  0.45  7.57
 H -2.47  1.41  9.83
 N -1.38 -2.33  3.79
 C -2.20 -2.55  2.61
 H -1.07 -3.16  4.29
 H -2.74 -3.49  2.74
 H -1.61 -2.61  1.69
 H -2.95 -1.76  2.49
