35
#
 C  0.49  0.36  0.23
 C  0.29  0.25  1.74
 O  1.23  0.21  2.52
 H  1.41 -0.16 -0.04
 H  0.61  1.42 -0.02
 H -0.35 -0.05 -0.35
 N -1.03  0.19  2.13
 C -1.48  0.47  3.49
 C -0.94  1.85  3.97
 O -0.62  2.71  3.14
 H -1.70  0.41  1.41
 H -2.57  0.64  3.39
 C -1.35 -0.72  4.47
 C  0.06 -1.18  4.87
 C  0.10 -1.84  6.25
 N -0.13 -0.86  7.33
 C -1.40 -0.57  7.80
 N -2.16 -1.68  8.14
 N -1.78  0.67  7.86
 H -1.90 -1.56  4.03
 H -1.93 -0.44  5.37
 H  0.75 -0.33  4.86
 H  0.46 -1.87  4.12
 H  1.09 -2.29  6.42
 H -0.64 -2.64  6.34
 H  0.37  0.01  7.18
 H -3.05 -1.48  8.60
 H -1.66 -2.46  8.54
 H -2.66  0.79  8.38
 N -0.93  2.09  5.30
 C -0.55  3.40  5.81
 H -1.31  1.44  6.00
 H -0.59  3.35  6.90
 H -1.22  4.19  5.45
 H  0.47  3.66  5.49
