35
#
 C  0.61  0.25  0.04
 C  0.20  0.38  1.50
 O  0.84  1.08  2.28
 H  1.66 -0.06  0.00
 H  0.54  1.24 -0.43
 H  0.01 -0.46 -0.54
 N -0.91 -0.35  1.85
 C -1.60 -0.38  3.14
 C -2.73  0.69  3.18
 O -3.85  0.35  2.78
 H -1.40 -0.80  1.09
 H -2.20 -1.30  3.10
 C -0.67 -0.51  4.35
 C -1.45 -0.69  5.66
 C -0.54 -0.74  6.90
 N  0.26  0.45  7.14
 C -0.29  1.62  7.64
 N  0.61  2.69  7.60
 N -1.48  1.82  8.09
 H  0.01  0.34  4.42
 H -0.03 -1.40  4.18
 H -2.05 -1.61  5.63
 H -2.17  0.14  5.78
 H  0.16 -1.59  6.80
 H -1.14 -0.94  7.79
 H  1.05  0.58  6.52
 H  0.24  3.49  8.11
 H  1.56  2.46  7.88
 H -2.08  1.01  7.96
 N -2.50  1.97  3.59
 C -1.32  2.63  4.11
 H -3.36  2.52  3.56
 H -0.41  2.25  3.64
 H -1.24  2.54  5.21
 H -1.39  3.70  3.87
