35
#
 C -0.65 -0.61  0.81
 C -0.93 -0.25  2.26
 O -0.07 -0.32  3.12
 H -0.26  0.27  0.29
 H -1.52 -0.98  0.26
 H  0.14 -1.37  0.81
 N -2.21  0.15  2.59
 C -3.34  0.51  1.72
 C -3.99 -0.71  1.01
 O -4.65 -0.57 -0.01
 H -2.26  0.47  3.55
 H -4.12  0.86  2.42
 C -3.08  1.66  0.73
 C -2.58  2.93  1.41
 C -2.43  4.11  0.43
 N -3.67  4.55 -0.21
 C -4.75  5.04  0.53
 N -4.39  5.83  1.62
 N -6.00  4.84  0.29
 H -4.04  1.84  0.23
 H -2.39  1.33 -0.05
 H -1.60  2.75  1.88
 H -3.26  3.23  2.22
 H -1.73  3.85 -0.38
 H -1.97  4.96  0.96
 H -3.98  3.95 -0.96
 H -5.20  6.30  2.01
 H -3.61  6.47  1.45
 H -6.13  4.13 -0.44
 N -3.81 -1.90  1.65
 C -4.38 -3.14  1.16
 H -3.21 -1.90  2.46
 H -4.98 -2.91  0.28
 H -5.02 -3.61  1.92
 H -3.59 -3.86  0.88
