35
#
 C -0.94 -1.00 -0.47
 C -1.03 -0.96  1.04
 O -0.12 -1.41  1.75
 H -1.17 -2.02 -0.80
 H  0.08 -0.77 -0.78
 H -1.64 -0.31 -0.98
 N -2.19 -0.42  1.53
 C -2.72 -0.36  2.90
 C -2.68  1.06  3.53
 O -3.73  1.51  3.99
 H -2.83 -0.07  0.83
 H -3.80 -0.51  2.79
 C -2.23 -1.43  3.90
 C -2.84 -2.83  3.73
 C -2.43 -3.58  2.47
 N -2.94 -4.95  2.51
 C -2.83 -5.82  1.43
 N -1.77 -5.54  0.57
 N -3.61 -6.82  1.16
 H -2.52 -1.06  4.89
 H -1.13 -1.49  3.89
 H -3.94 -2.74  3.76
 H -2.55 -3.43  4.60
 H -1.33 -3.60  2.42
 H -2.78 -3.06  1.57
 H -3.82 -5.06  3.01
 H -1.61 -6.31 -0.07
 H -0.92 -5.20  1.00
 H -4.41 -6.85  1.79
 N -1.52  1.76  3.61
 C -0.18  1.43  3.16
 H -1.66  2.67  4.03
 H -0.03  0.35  3.09
 H  0.55  1.84  3.87
 H  0.04  1.86  2.16
