35
#
 C -0.77  1.89 -0.27
 C -0.77  1.68  1.24
 O -0.01  2.29  1.98
 H -0.98  2.95 -0.48
 H -1.50  1.27 -0.80
 H  0.23  1.67 -0.65
 N -1.71  0.79  1.71
 C -1.72  0.36  3.10
 C -2.59 -0.90  3.28
 O -2.29 -1.77  4.09
 H -2.12  0.16  1.03
 H -0.70  0.07  3.39
 C -2.19  1.48  4.06
 C -1.70  1.31  5.51
 C -2.81  1.20  6.56
 N -3.59 -0.02  6.43
 C -4.92 -0.12  6.07
 N -5.67  1.06  6.19
 N -5.51 -1.19  5.64
 H -3.29  1.54  4.03
 H -1.81  2.42  3.66
 H -1.05  2.15  5.79
 H -1.06  0.41  5.59
 H -2.36  1.25  7.57
 H -3.49  2.06  6.46
 H -3.05 -0.85  6.17
 H -6.65  0.85  6.09
 H -5.49  1.60  7.03
 H -4.84 -1.94  5.51
 N -3.70 -0.95  2.49
 C -4.68 -2.03  2.56
 H -3.99 -0.09  2.03
 H -5.50 -1.78  3.25
 H -4.17 -2.92  2.94
 H -5.07 -2.23  1.56
