35
#
 C -0.94  2.57  1.92
 C -1.48  1.59  2.94
 O -2.40  1.90  3.71
 H -0.55  3.44  2.45
 H -1.77  2.92  1.29
 H -0.16  2.15  1.28
 N -0.91  0.35  2.93
 C -1.23 -0.64  3.94
 C  0.08 -1.23  4.48
 O  1.02 -1.50  3.72
 H -0.09  0.16  2.36
 H -1.72 -0.10  4.75
 C -2.16 -1.76  3.42
 C -3.56 -1.27  3.01
 C -4.56 -1.07  4.17
 N -4.10 -0.19  5.25
 C -3.43 -0.66  6.36
 N -3.75 -1.95  6.78
 N -2.51 -0.02  7.02
 H -2.24 -2.53  4.20
 H -1.67 -2.23  2.56
 H -4.01 -2.00  2.32
 H -3.47 -0.34  2.44
 H -4.81 -2.05  4.60
 H -5.50 -0.66  3.76
 H -3.72  0.69  4.90
 H -3.38 -2.12  7.71
 H -4.72 -2.21  6.69
 H -2.31  0.89  6.58
 N  0.08 -1.43  5.82
 C  1.19 -2.02  6.53
 H -0.73 -1.08  6.35
 H  1.60 -1.33  7.27
 H  1.97 -2.26  5.79
 H  0.89 -2.94  7.04
