35
#
 C  1.08  0.82  0.49
 C  0.82  0.03  1.77
 O  1.72 -0.60  2.32
 H  1.48  0.12 -0.27
 H  1.87  1.56  0.69
 H  0.20  1.33  0.08
 N -0.47  0.12  2.23
 C -1.11 -0.51  3.38
 C -1.45  0.47  4.54
 O -2.59  0.43  5.01
 H -1.08  0.71  1.68
 H -2.11 -0.80  3.04
 C -0.43 -1.79  3.90
 C -1.25 -2.51  5.00
 C -0.56 -2.57  6.38
 N -0.27 -1.30  7.01
 C -1.14 -0.47  7.68
 N -2.37 -1.03  8.02
 N -0.74  0.72  7.99
 H  0.58 -1.58  4.25
 H -0.30 -2.46  3.04
 H -1.45 -3.55  4.69
 H -2.23 -2.03  5.11
 H  0.41 -3.09  6.27
 H -1.15 -3.19  7.06
 H  0.63 -0.86  6.84
 H -3.09 -0.33  8.14
 H -2.70 -1.77  7.40
 H -1.45  1.21  8.54
 N -0.50  1.29  5.06
 C  0.92  1.38  4.76
 H -0.77  1.62  5.99
 H  1.45  1.59  5.69
 H  1.13  2.19  4.05
 H  1.32  0.45  4.33
