35
#
 C -0.58 -0.69  1.19
 C -0.97 -0.34  2.61
 O -0.19 -0.47  3.54
 H  0.32 -1.30  1.23
 H -0.35  0.23  0.62
 H -1.36 -1.24  0.65
 N -2.23  0.18  2.83
 C -3.36  0.29  1.92
 C -3.83 -1.12  1.44
 O -3.78 -2.08  2.20
 H -2.43  0.26  3.82
 H -4.20  0.61  2.56
 C -3.18  1.35  0.82
 C -2.62  2.70  1.31
 C -3.50  3.42  2.35
 N -4.89  3.62  1.98
 C -5.29  4.53  1.01
 N -6.65  4.40  0.69
 N -4.58  5.41  0.39
 H -4.15  1.54  0.34
 H -2.51  0.98  0.03
 H -2.49  3.34  0.43
 H -1.63  2.55  1.75
 H -3.06  4.40  2.57
 H -3.49  2.87  3.30
 H -5.51  2.83  2.11
 H -6.94  5.16  0.08
 H -7.27  4.32  1.50
 H -3.59  5.33  0.62
 N -4.33 -1.19  0.17
 C -4.86 -2.42 -0.39
 H -4.30 -0.36 -0.41
 H -4.25 -2.76 -1.24
 H -4.84 -3.18  0.39
 H -5.89 -2.28 -0.73
