35
#
 C  0.28  0.33 -0.20
 C  0.09  1.37  0.90
 O  1.00  2.12  1.24
 H  0.18 -0.69  0.20
 H  1.29  0.46 -0.60
 H -0.44  0.46 -1.01
 N -1.14  1.44  1.51
 C -2.37  0.70  1.25
 C -2.18 -0.83  1.48
 O -1.82 -1.18  2.60
 H -1.19  2.12  2.26
 H -2.99  0.95  2.13
 C -3.15  1.23  0.02
 C -4.67  0.95  0.08
 C -5.50  2.06  0.74
 N -5.19  2.36  2.14
 C -4.15  3.19  2.55
 N -3.90  4.27  1.71
 N -3.42  3.04  3.61
 H -2.73  0.85 -0.91
 H -2.99  2.32  0.00
 H -4.86 -0.00  0.60
 H -5.06  0.82 -0.94
 H -6.57  1.79  0.69
 H -5.39  2.99  0.16
 H -5.34  1.59  2.78
 H -3.23  4.91  2.13
 H -4.72  4.75  1.35
 H -3.60  2.15  4.08
 N -2.45 -1.78  0.53
 C -2.71 -1.73 -0.90
 H -2.29 -2.71  0.93
 H -2.72 -2.76 -1.27
 H -1.92 -1.19 -1.45
 H -3.68 -1.28 -1.14
