35
#
 C -0.93  0.44  0.18
 C -0.12  0.61  1.45
 O  1.10  0.59  1.46
 H -0.80 -0.58 -0.19
 H -0.54  1.12 -0.59
 H -2.01  0.63  0.31
 N -0.86  0.80  2.59
 C -0.29  0.82  3.94
 C  1.03  1.62  4.04
 O  2.04  1.13  4.55
 H -1.87  0.72  2.52
 H -1.03  1.36  4.56
 C -0.14 -0.61  4.49
 C  0.09 -0.74  6.00
 C -0.97 -0.06  6.90
 N -2.37 -0.25  6.48
 C -3.16 -1.34  6.82
 N -2.46 -2.50  7.13
 N -4.45 -1.36  6.89
 H  0.70 -1.09  3.96
 H -1.06 -1.15  4.22
 H  1.07 -0.32  6.27
 H  0.16 -1.81  6.24
 H -0.80  1.02  6.90
 H -0.83 -0.40  7.94
 H -2.91  0.61  6.43
 H -3.08 -3.29  7.22
 H -1.63 -2.69  6.57
 H -4.84 -0.42  6.78
 N  1.00  2.94  3.67
 C -0.04  3.68  2.99
 H  1.92  3.36  3.73
 H  0.14  4.75  3.15
 H -1.03  3.44  3.39
 H -0.05  3.50  1.90
