35
#
 C  1.15 -2.06  0.66
 C  0.31 -0.87  1.08
 O  0.21  0.15  0.39
 H  2.19 -1.72  0.50
 H  0.78 -2.44 -0.30
 H  1.16 -2.88  1.39
 N -0.34 -1.00  2.28
 C -1.10  0.08  2.86
 C -1.13 -0.17  4.38
 O -0.83 -1.28  4.85
 H -0.15 -1.78  2.91
 H -0.58  1.02  2.65
 C -2.52  0.20  2.24
 C -3.48 -0.99  2.40
 C -4.37 -1.01  3.65
 N -3.79 -1.72  4.77
 C -4.35 -1.63  6.03
 N -3.57 -2.23  7.02
 N -5.45 -1.05  6.38
 H -2.34  0.39  1.17
 H -3.00  1.12  2.63
 H -2.93 -1.94  2.31
 H -4.15 -0.97  1.53
 H -5.33 -1.48  3.39
 H -4.61  0.04  3.93
 H -2.78 -1.86  4.75
 H -3.08 -3.07  6.74
 H -4.10 -2.35  7.88
 H -5.88 -0.56  5.59
 N -1.55  0.88  5.13
 C -1.80  0.79  6.56
 H -1.76  1.74  4.65
 H -1.18  1.51  7.11
 H -1.55 -0.22  6.89
 H -2.86  0.98  6.78
