35
#
 C  1.84  0.49  1.07
 C  1.00  0.62  2.32
 O  1.41  1.22  3.32
 H  2.14  1.49  0.74
 H  2.76 -0.07  1.32
 H  1.32 -0.02  0.24
 N -0.23  0.02  2.29
 C -1.17 -0.04  3.41
 C -1.21  1.25  4.26
 O -1.12  1.21  5.48
 H -0.48 -0.48  1.44
 H -2.17 -0.11  2.94
 C -1.01 -1.29  4.31
 C  0.39 -1.51  4.89
 C  1.32 -2.33  3.98
 N  2.67 -1.76  3.95
 C  3.65 -2.27  3.11
 N  3.69 -3.66  3.06
 N  4.39 -1.45  2.43
 H -1.32 -2.17  3.73
 H -1.74 -1.17  5.12
 H  0.29 -2.01  5.86
 H  0.84 -0.54  5.11
 H  0.90 -2.38  2.96
 H  1.37 -3.37  4.33
 H  2.67 -0.74  3.92
 H  4.52 -4.04  2.62
 H  3.47 -4.14  3.93
 H  5.16 -1.95  1.97
 N -1.49  2.43  3.62
 C -1.59  2.72  2.20
 H -1.44  3.22  4.25
 H -2.14  1.92  1.68
 H -2.16  3.64  2.08
 H -0.61  2.84  1.72
