35
#
 C  0.67 -0.06  0.81
 C  0.67  0.33  2.27
 O  1.61  0.07  3.03
 H  1.64 -0.50  0.57
 H  0.50  0.81  0.15
 H -0.12 -0.79  0.60
 N -0.44  1.01  2.74
 C -1.67  1.29  2.02
 C -1.55  2.46  1.02
 O -2.33  2.57  0.07
 H -0.44  1.12  3.75
 H -1.97  0.42  1.41
 C -2.79  1.57  3.04
 C -4.20  1.61  2.44
 C -5.28  1.97  3.48
 N -5.35  1.10  4.66
 C -5.53 -0.28  4.55
 N -6.49 -0.65  3.61
 N -4.80 -1.06  5.28
 H -2.57  2.52  3.55
 H -2.74  0.77  3.80
 H -4.44  0.63  2.01
 H -4.25  2.33  1.62
 H -6.26  1.98  2.98
 H -5.12  2.99  3.85
 H -4.62  1.28  5.35
 H -6.76 -1.63  3.66
 H -7.29 -0.03  3.52
 H -5.12 -2.03  5.23
 N -0.56  3.36  1.30
 C -0.31  4.53  0.48
 H  0.06  3.12  2.06
 H -0.38  5.45  1.07
 H -1.06  4.55 -0.31
 H  0.69  4.48  0.02
