35
#
 C  0.28  0.55  0.53
 C -0.05  0.34  1.99
 O  0.74  0.68  2.89
 H  0.39  1.62  0.34
 H -0.47  0.14 -0.16
 H  1.25  0.08  0.32
 N -1.26 -0.21  2.25
 C -1.76 -0.50  3.58
 C -2.91 -1.49  3.38
 O -3.44 -1.65  2.27
 H -1.89 -0.51  1.50
 H -0.95 -0.97  4.15
 C -2.23  0.78  4.35
 C -1.26  1.24  5.43
 C -1.40  2.73  5.77
 N -1.28  3.63  4.62
 C -0.07  4.20  4.24
 N  1.01  3.33  4.26
 N -0.07  5.46  3.93
 H -3.23  0.62  4.77
 H -2.34  1.58  3.60
 H -1.40  0.66  6.36
 H -0.23  1.04  5.10
 H -0.66  2.99  6.55
 H -2.39  2.91  6.21
 H -2.00  4.35  4.59
 H  1.87  3.75  3.92
 H  0.86  2.40  3.88
 H  0.83  5.74  3.52
 N -3.33 -2.19  4.47
 C -2.85 -2.11  5.84
 H -4.14 -2.78  4.28
 H -3.06 -3.06  6.34
 H -3.32 -1.30  6.41
 H -1.76 -1.97  5.86
