35
#
 C  0.33  0.24  0.29
 C -0.10  0.79  1.64
 O  0.44  1.76  2.17
 H  1.34 -0.17  0.39
 H  0.39  1.07 -0.42
 H -0.33 -0.53 -0.11
 N -1.15  0.13  2.23
 C -1.64  0.39  3.58
 C -1.73  1.91  3.92
 O -1.21  2.36  4.93
 H -1.51 -0.70  1.76
 H -2.68  0.01  3.60
 C -0.82 -0.35  4.65
 C -1.56 -0.52  5.98
 C -0.67 -1.02  7.11
 N  0.37 -0.03  7.42
 C  1.22 -0.15  8.50
 N  1.55 -1.48  8.82
 N  1.61  0.91  9.12
 H  0.12  0.20  4.80
 H -0.56 -1.34  4.25
 H -2.39 -1.23  5.86
 H -2.00  0.44  6.28
 H -0.20 -1.97  6.81
 H -1.29 -1.24  8.00
 H  0.09  0.94  7.29
 H  2.34 -1.55  9.46
 H  1.64 -2.11  8.03
 H  2.33  0.69  9.82
 N -2.51  2.69  3.11
 C -3.15  2.37  1.85
 H -2.46  3.67  3.38
 H -3.95  3.10  1.67
 H -3.61  1.38  1.88
 H -2.45  2.40  1.00
