35
#
 C -0.10  1.61  0.62
 C  0.10  0.68  1.80
 O  1.17  0.60  2.41
 H -0.26  1.03 -0.31
 H  0.80  2.21  0.51
 H -0.97  2.26  0.75
 N -0.98 -0.08  2.19
 C -2.28 -0.18  1.54
 C -3.30  0.91  1.95
 O -4.37  1.01  1.34
 H -0.76 -0.74  2.93
 H -2.15 -0.05  0.46
 C -2.91 -1.57  1.75
 C -3.33 -1.87  3.20
 C -3.90 -3.28  3.38
 N -2.98 -4.38  3.13
 C -1.96 -4.70  4.01
 N -1.06 -5.63  3.47
 N -1.75 -4.24  5.20
 H -2.18 -2.32  1.40
 H -3.79 -1.63  1.10
 H -4.09 -1.14  3.51
 H -2.48 -1.74  3.89
 H -4.76 -3.42  2.71
 H -4.30 -3.39  4.40
 H -2.78 -4.57  2.15
 H -0.41 -5.95  4.18
 H -1.51 -6.41  2.99
 H -2.39 -3.48  5.43
 N -2.93  1.69  2.99
 C -3.77  2.75  3.52
 H -2.02  1.51  3.40
 H -3.27  3.73  3.44
 H -4.03  2.57  4.57
 H -4.69  2.78  2.92
