35
#
 C  0.07 -0.75  0.12
 C  0.27 -0.82  1.62
 O  1.20 -1.45  2.13
 H -0.49  0.14 -0.20
 H -0.48 -1.64 -0.21
 H  1.05 -0.76 -0.37
 N -0.64 -0.13  2.36
 C -0.81 -0.15  3.82
 C  0.52 -0.26  4.61
 O  0.68 -1.11  5.47
 H -1.40  0.30  1.84
 H -1.18  0.86  4.06
 C -1.92 -1.11  4.29
 C -1.67 -2.62  4.53
 C -0.93 -3.42  3.47
 N -1.59 -3.35  2.16
 C -1.10 -3.97  1.02
 N  0.26 -4.22  1.03
 N -1.80 -4.30 -0.02
 H -2.75 -0.99  3.57
 H -2.30 -0.71  5.24
 H -2.66 -3.07  4.71
 H -1.10 -2.73  5.46
 H -0.84 -4.46  3.81
 H  0.09 -3.03  3.37
 H -2.61 -3.38  2.21
 H  0.59 -4.51  0.11
 H  0.85 -3.51  1.47
 H -2.80 -4.18  0.15
 N  1.45  0.72  4.41
 C  1.50  1.77  3.41
 H  2.30  0.54  4.94
 H  2.17  2.56  3.76
 H  0.51  2.22  3.27
 H  1.86  1.41  2.43
