35
#
 C -0.68  1.04  0.23
 C -0.77  0.39  1.60
 O -0.07  0.74  2.54
 H  0.30  0.81 -0.21
 H -0.73  2.13  0.35
 H -1.46  0.72 -0.47
 N -1.70 -0.60  1.71
 C -1.86 -1.44  2.90
 C -1.88 -0.62  4.22
 O -1.15 -0.92  5.17
 H -2.20 -0.89  0.88
 H -2.86 -1.91  2.81
 C -0.81 -2.56  2.97
 C -1.20 -3.75  3.84
 C -0.17 -4.88  3.82
 N  0.04 -5.47  2.50
 C  1.23 -5.45  1.77
 N  2.13 -4.46  2.14
 N  1.55 -6.27  0.82
 H  0.13 -2.12  3.34
 H -0.64 -2.91  1.94
 H -2.17 -4.15  3.50
 H -1.34 -3.42  4.88
 H -0.48 -5.67  4.52
 H  0.80 -4.51  4.19
 H -0.57 -6.23  2.24
 H  2.91 -4.43  1.49
 H  1.75 -3.54  2.34
 H  0.87 -7.03  0.74
 N -2.80  0.37  4.34
 C -3.73  0.90  3.35
 H -2.71  0.88  5.21
 H -3.25  1.62  2.66
 H -4.54  1.42  3.88
 H -4.18  0.10  2.76
