35
#
 C -0.37  1.21 -0.06
 C -0.26  0.14  1.02
 O  0.81 -0.35  1.36
 H  0.14  2.12  0.30
 H -1.40  1.46 -0.34
 H  0.18  0.87 -0.95
 N -1.45 -0.25  1.57
 C -1.53 -1.18  2.69
 C -0.92 -2.58  2.47
 O -0.41 -3.15  3.44
 H -2.31  0.19  1.26
 H -0.93 -0.78  3.52
 C -3.00 -1.29  3.14
 C -3.29 -2.20  4.34
 C -2.87 -1.67  5.71
 N -1.43 -1.57  5.86
 C -0.83 -1.25  7.07
 N -1.59 -0.39  7.87
 N  0.31 -1.76  7.36
 H -3.60 -1.65  2.28
 H -3.36 -0.27  3.37
 H -2.84 -3.20  4.18
 H -4.38 -2.36  4.38
 H -3.31 -2.34  6.48
 H -3.34 -0.68  5.86
 H -0.88 -2.26  5.34
 H -2.13  0.31  7.38
 H -1.07  0.01  8.64
 H  0.69 -1.35  8.22
 N -1.04 -3.22  1.28
 C -1.56 -2.78 -0.01
 H -0.56 -4.12  1.30
 H -1.72 -3.67 -0.63
 H -0.86 -2.11 -0.53
 H -2.52 -2.27  0.10
