35
#
 C -0.28 -0.60 -0.28
 C  0.03 -0.51  1.20
 O  1.15 -0.72  1.65
 H  0.64 -0.91 -0.79
 H -0.59  0.37 -0.69
 H -1.08 -1.32 -0.50
 N -1.00 -0.17  2.04
 C -2.41  0.04  1.72
 C -2.96  1.21  2.57
 O -3.87  1.06  3.38
 H -0.74 -0.18  3.02
 H -2.46  0.37  0.67
 C -3.28 -1.22  1.84
 C -3.13 -2.00  3.15
 C -4.06 -3.21  3.19
 N -3.90 -3.94  4.45
 C -4.37 -5.23  4.56
 N -4.29 -5.71  5.88
 N -4.84 -5.86  3.53
 H -3.02 -1.89  1.00
 H -4.33 -0.93  1.70
 H -3.36 -1.33  3.99
 H -2.09 -2.35  3.27
 H -3.83 -3.92  2.38
 H -5.11 -2.89  3.04
 H -4.02 -3.38  5.29
 H -4.46 -6.71  5.96
 H -3.44 -5.44  6.37
 H -5.04 -6.84  3.76
 N -2.38  2.43  2.38
 C -1.34  2.82  1.44
 H -2.76  3.15  2.99
 H -0.34  2.49  1.76
 H -1.33  3.91  1.36
 H -1.53  2.42  0.44
