35
#
 C -0.56 -1.53  0.34
 C -0.48 -0.63  1.55
 O  0.44 -0.75  2.37
 H  0.39 -1.48 -0.20
 H -1.38 -1.28 -0.35
 H -0.69 -2.57  0.68
 N -1.48  0.29  1.66
 C -1.82  1.20  2.78
 C -0.76  2.22  3.26
 O -1.17  3.22  3.86
 H -2.15  0.29  0.91
 H -2.61  1.84  2.36
 C -2.44  0.49  4.01
 C -1.44 -0.10  5.01
 C -2.06 -0.30  6.40
 N -2.75  0.87  6.96
 C -2.06  1.91  7.61
 N -1.00  2.45  6.89
 N -2.45  2.24  8.80
 H -3.14 -0.27  3.65
 H -3.03  1.25  4.53
 H -0.57  0.56  5.12
 H -1.05 -1.06  4.66
 H -1.27 -0.67  7.09
 H -2.82 -1.09  6.35
 H -3.52  0.61  7.57
 H -0.58  3.25  7.34
 H -1.18  2.65  5.90
 H -1.99  3.10  9.11
 N  0.54  1.94  3.04
 C  1.58  2.80  3.59
 H  0.76  0.97  2.78
 H  1.34  3.85  3.39
 H  2.53  2.54  3.11
 H  1.68  2.67  4.68
