35
#
 C  1.54  1.02  0.56
 C  0.74  0.50  1.73
 O  1.23  0.49  2.88
 H  2.46  0.42  0.47
 H  1.85  2.05  0.76
 H  1.01  0.98 -0.40
 N -0.51  0.08  1.46
 C -1.48 -0.54  2.38
 C -2.15  0.46  3.36
 O -3.38  0.51  3.44
 H -0.83  0.19  0.50
 H -2.31 -0.87  1.74
 C -0.92 -1.76  3.14
 C -0.38 -2.87  2.24
 C  0.66 -3.76  2.95
 N  1.85 -3.03  3.32
 C  2.12 -2.60  4.62
 N  2.91 -1.45  4.65
 N  1.77 -3.17  5.73
 H -1.74 -2.14  3.77
 H -0.14 -1.42  3.83
 H  0.10 -2.43  1.35
 H -1.20 -3.50  1.86
 H  0.92 -4.60  2.30
 H  0.22 -4.19  3.86
 H  2.26 -2.45  2.60
 H  3.09 -1.16  5.60
 H  2.57 -0.69  4.06
 H  1.34 -4.08  5.56
 N -1.30  1.19  4.11
 C -1.75  2.13  5.12
 H -0.29  1.04  3.97
 H -1.45  1.81  6.12
 H -2.84  2.18  5.07
 H -1.34  3.14  4.93
