35
#
 C -1.14 -0.65 -0.42
 C -0.79 -1.08  0.99
 O -0.08 -2.05  1.23
 H -0.73  0.34 -0.65
 H -2.23 -0.60 -0.58
 H -0.72 -1.38 -1.11
 N -1.31 -0.32  2.01
 C -2.05  0.92  1.91
 C -1.28  2.19  1.46
 O -1.94  3.10  0.95
 H -1.02 -0.64  2.93
 H -2.80  0.81  1.11
 C -2.83  1.21  3.21
 C -1.98  1.54  4.44
 C -2.85  1.86  5.66
 N -2.12  2.14  6.88
 C -1.53  1.13  7.64
 N -0.70  1.64  8.64
 N -1.67 -0.15  7.52
 H -3.48  0.34  3.41
 H -3.50  2.06  2.99
 H -1.34  2.40  4.23
 H -1.31  0.70  4.70
 H -3.54  1.03  5.87
 H -3.49  2.73  5.44
 H -1.60  3.02  6.88
 H -0.41  0.89  9.27
 H -1.09  2.43  9.15
 H -2.20 -0.40  6.68
 N  0.07  2.30  1.62
 C  1.05  1.45  2.28
 H  0.40  3.19  1.26
 H  1.29  0.55  1.71
 H  0.74  1.16  3.29
 H  1.98  2.04  2.38
