35
#
 C  0.87 -2.37  0.11
 C  1.27 -1.25  1.04
 O  2.43 -1.14  1.47
 H -0.18 -2.33 -0.20
 H  1.07 -3.33  0.60
 H  1.50 -2.32 -0.79
 N  0.29 -0.36  1.38
 C  0.54  0.78  2.25
 C  0.44  0.32  3.74
 O -0.57  0.50  4.42
 H -0.66 -0.55  1.09
 H  1.57  1.09  2.05
 C -0.43  1.93  1.93
 C  0.07  3.32  2.33
 C  0.27  3.55  3.83
 N  0.62  4.94  4.08
 C  0.72  5.49  5.35
 N  0.11  4.76  6.36
 N  1.24  6.64  5.65
 H -1.39  1.72  2.43
 H -0.61  1.92  0.85
 H -0.66  4.07  1.96
 H  1.01  3.53  1.80
 H  1.04  2.85  4.21
 H -0.67  3.31  4.35
 H  1.27  5.35  3.42
 H  0.31  5.15  7.28
 H  0.19  3.75  6.32
 H  1.54  7.13  4.80
 N  1.57 -0.30  4.17
 C  1.66 -0.94  5.47
 H  2.26 -0.53  3.45
 H  2.62 -0.70  5.94
 H  1.56 -2.03  5.40
 H  0.85 -0.55  6.09
