35
#
 C -1.43  0.03 -0.80
 C -2.02  0.12  0.60
 O -2.13 -0.87  1.31
 H -1.68 -0.94 -1.24
 H -0.33  0.09 -0.71
 H -1.76  0.84 -1.47
 N -2.44  1.38  0.95
 C -2.62  1.88  2.31
 C -1.22  2.17  2.93
 O -0.21  1.61  2.53
 H -2.18  2.10  0.29
 H -3.14  2.84  2.20
 C -3.46  1.00  3.26
 C -4.96  0.93  2.94
 C -5.37 -0.03  1.80
 N -4.95 -1.42  2.01
 C -5.40 -2.19  3.08
 N -6.72 -1.94  3.46
 N -4.72 -3.08  3.72
 H -3.35  1.43  4.27
 H -3.02  0.00  3.31
 H -5.35  1.94  2.70
 H -5.49  0.61  3.85
 H -4.94  0.29  0.85
 H -6.46  0.01  1.68
 H -3.96 -1.56  1.81
 H -7.03 -2.65  4.12
 H -7.37 -1.82  2.69
 H -3.74 -3.06  3.44
 N -1.17  3.09  3.95
 C -2.22  3.97  4.43
 H -0.24  3.22  4.32
 H -1.79  4.65  5.16
 H -3.04  3.43  4.92
 H -2.65  4.59  3.62
