35
#
 C -0.21 -0.14 -0.13
 C  0.10  0.00  1.35
 O  1.25  0.01  1.78
 H -0.89  0.63 -0.50
 H -0.66 -1.13 -0.33
 H  0.74 -0.07 -0.67
 N -0.96  0.12  2.23
 C -2.40  0.07  1.97
 C -2.78 -1.29  1.30
 O -2.44 -2.32  1.88
 H -0.66  0.08  3.19
 H -2.84 -0.08  2.97
 C -2.97  1.40  1.46
 C -2.75  2.54  2.45
 C -3.24  3.91  1.95
 N -4.65  3.98  1.58
 C -5.67  3.98  2.52
 N -6.93  3.86  1.93
 N -5.57  4.07  3.81
 H -4.05  1.28  1.29
 H -2.52  1.67  0.49
 H -1.68  2.63  2.68
 H -3.25  2.29  3.40
 H -2.66  4.20  1.06
 H -3.04  4.68  2.71
 H -4.90  3.57  0.69
 H -7.66  3.99  2.63
 H -7.08  4.45  1.12
 H -4.60  4.04  4.12
 N -3.52 -1.37  0.15
 C -3.92 -0.39 -0.85
 H -3.71 -2.34 -0.07
 H -4.75  0.24 -0.51
 H -4.27 -0.94 -1.73
 H -3.09  0.25 -1.17
