35
#
 C -0.67 -0.37 -0.88
 C -0.12 -0.19  0.51
 O  1.09 -0.16  0.72
 H -1.74 -0.22 -1.00
 H -0.43 -1.39 -1.21
 H -0.14  0.31 -1.56
 N -0.98 -0.15  1.60
 C -2.42  0.15  1.69
 C -3.32 -0.82  0.89
 O -4.41 -0.47  0.44
 H -0.46 -0.01  2.46
 H -2.68 -0.09  2.73
 C -2.78  1.65  1.54
 C -2.38  2.38  0.25
 C -3.40  2.26 -0.90
 N -2.91  2.82 -2.15
 C -2.32  2.05 -3.16
 N -2.90  0.79 -3.32
 N -1.34  2.39 -3.93
 H -2.30  2.16  2.39
 H -3.87  1.74  1.70
 H -1.40  2.04 -0.10
 H -2.25  3.45  0.49
 H -4.33  2.77 -0.61
 H -3.67  1.22 -1.06
 H -2.46  3.73 -2.07
 H -2.55  0.35 -4.17
 H -3.91  0.76 -3.25
 H -0.91  3.27 -3.61
 N -2.85 -2.09  0.83
 C -3.55 -3.15  0.13
 H -1.91 -2.25  1.18
 H -3.60 -4.06  0.76
 H -3.06 -3.40 -0.82
 H -4.57 -2.81 -0.08
