35
#
 C -0.32 -0.56 -0.56
 C -0.01 -0.00  0.82
 O  1.13  0.30  1.16
 H  0.63 -0.65 -1.09
 H -0.98  0.12 -1.12
 H -0.81 -1.54 -0.52
 N -1.06  0.15  1.70
 C -2.48 -0.08  1.48
 C -3.24  1.16  1.99
 O -2.87  1.77  2.99
 H -0.83  0.63  2.57
 H -2.65 -0.21  0.40
 C -3.00 -1.33  2.23
 C -2.38 -2.64  1.75
 C -2.90 -3.84  2.55
 N -2.39 -5.13  2.09
 C -2.91 -5.72  0.95
 N -2.20 -6.88  0.59
 N -3.91 -5.20  0.33
 H -4.10 -1.37  2.10
 H -2.82 -1.18  3.30
 H -1.28 -2.58  1.85
 H -2.61 -2.80  0.69
 H -4.00 -3.89  2.46
 H -2.65 -3.74  3.61
 H -1.40 -5.29  2.24
 H -2.65 -7.42 -0.14
 H -1.91 -7.46  1.37
 H -4.25 -5.82 -0.41
 N -4.36  1.48  1.28
 C -5.26  2.55  1.67
 H -4.59  0.92  0.46
 H -4.83  3.04  2.55
 H -6.25  2.17  1.92
 H -5.35  3.30  0.86
