35
#
 C  1.75 -0.34  0.15
 C  1.28 -0.63  1.57
 O  2.09 -0.78  2.48
 H  2.32 -1.21 -0.21
 H  2.44  0.51  0.17
 H  0.94 -0.13 -0.56
 N -0.07 -0.68  1.71
 C -0.89 -1.10  2.86
 C -1.63  0.05  3.58
 O -2.84 -0.06  3.77
 H -0.61 -0.57  0.86
 H -1.71 -1.67  2.41
 C -0.19 -2.06  3.84
 C -1.17 -2.73  4.82
 C -2.21 -3.66  4.16
 N -1.61 -4.78  3.45
 C -1.56 -4.85  2.08
 N -1.11 -6.10  1.61
 N -1.94 -3.85  1.34
 H  0.59 -1.55  4.41
 H  0.32 -2.83  3.25
 H -1.72 -1.97  5.39
 H -0.58 -3.31  5.54
 H -2.84 -3.11  3.46
 H -2.87 -4.06  4.94
 H -1.62 -5.68  3.93
 H -0.87 -6.10  0.63
 H -0.37 -6.52  2.17
 H -1.78 -4.05  0.35
 N -0.95  1.14  4.04
 C  0.45  1.50  3.93
 H -1.58  1.82  4.47
 H  0.75  2.05  4.83
 H  0.64  2.15  3.06
 H  1.09  0.62  3.84
