35
#
 C  0.45  1.09  0.59
 C -0.11  0.67  1.93
 O  0.62  0.55  2.91
 H -0.26  1.59 -0.08
 H  0.81  0.19  0.07
 H  1.30  1.75  0.78
 N -1.45  0.38  2.05
 C -2.57  0.52  1.12
 C -2.24 -0.05 -0.28
 O -1.58 -1.08 -0.41
 H -1.68  0.04  2.98
 H -3.32 -0.21  1.48
 C -3.25  1.90  1.22
 C -2.39  3.13  0.91
 C -3.13  4.46  1.14
 N -3.53  4.71  2.52
 C -4.71  4.24  3.09
 N -5.80  4.21  2.21
 N -4.88  3.85  4.31
 H -3.62  1.98  2.25
 H -4.17  1.91  0.61
 H -2.03  3.12 -0.13
 H -1.49  3.12  1.55
 H -4.02  4.51  0.51
 H -2.47  5.29  0.82
 H -2.76  4.70  3.18
 H -6.65  4.00  2.72
 H -5.90  5.04  1.63
 H -3.99  3.78  4.80
 N -2.79  0.62 -1.34
 C -2.66  0.15 -2.70
 H -3.34  1.44 -1.16
 H -2.21  0.91 -3.35
 H -3.64 -0.14 -3.12
 H -2.02 -0.74 -2.69
