35
#
 C  0.30  0.15 -0.03
 C -0.19  0.40  1.39
 O  0.03  1.46  1.98
 H -0.18  0.89 -0.69
 H  0.08 -0.85 -0.40
 H  1.38  0.33 -0.07
 N -0.86 -0.64  1.97
 C -1.50 -0.52  3.28
 C -0.59 -0.48  4.53
 O -1.07 -0.04  5.57
 H -1.04 -1.47  1.42
 H -1.99  0.46  3.32
 C -2.57 -1.61  3.46
 C -2.03 -3.05  3.54
 C -3.14 -4.07  3.86
 N -3.76 -3.82  5.15
 C -5.06 -3.37  5.26
 N -5.47 -3.27  6.61
 N -5.77 -3.12  4.22
 H -3.31 -1.52  2.65
 H -3.09 -1.38  4.40
 H -1.24 -3.11  4.30
 H -1.57 -3.36  2.58
 H -2.72 -5.08  3.85
 H -3.94 -4.02  3.11
 H -3.39 -4.31  5.96
 H -6.35 -2.79  6.72
 H -4.76 -2.88  7.23
 H -6.67 -2.72  4.46
 N  0.69 -0.97  4.52
 C  1.52 -1.54  3.47
 H  1.14 -0.81  5.42
 H  2.40 -1.99  3.95
 H  1.87 -0.78  2.75
 H  1.00 -2.33  2.93
