35
#
 C  0.01 -0.40  0.66
 C -0.58  0.52  1.71
 O -0.25  1.71  1.77
 H  0.60  0.21 -0.03
 H -0.75 -0.96  0.11
 H  0.67 -1.14  1.13
 N -1.44  0.00  2.64
 C -2.34 -1.14  2.50
 C -1.61 -2.47  2.20
 O -1.88 -3.16  1.21
 H -1.87  0.73  3.23
 H -2.78 -1.27  3.50
 C -3.49 -0.89  1.51
 C -4.53  0.15  1.95
 C -4.08  1.61  2.15
 N -3.50  1.83  3.49
 C -3.04  3.13  3.84
 N -2.14  3.66  2.94
 N -3.51  3.65  4.92
 H -3.99 -1.84  1.33
 H -3.06 -0.60  0.54
 H -5.03 -0.19  2.87
 H -5.31  0.16  1.18
 H -4.94  2.28  2.00
 H -3.33  1.89  1.39
 H -4.17  1.57  4.22
 H -1.72  4.53  3.23
 H -1.47  3.01  2.50
 H -3.03  4.52  5.15
 N -0.65 -2.86  3.09
 C -0.22 -2.21  4.32
 H -0.20 -3.73  2.83
 H  0.26 -2.96  4.96
 H -1.07 -1.80  4.88
 H  0.49 -1.39  4.14
