35
#
 C  0.24  1.63  0.75
 C  0.32  0.44  1.69
 O  1.30  0.21  2.38
 H  1.16  2.20  0.85
 H -0.62  2.27  0.98
 H  0.13  1.30 -0.29
 N -0.79 -0.38  1.74
 C -1.99 -0.32  0.93
 C -2.93  0.85  1.29
 O -3.64  1.38  0.43
 H -0.64 -1.21  2.32
 H -1.74 -0.15 -0.13
 C -2.73 -1.67  1.05
 C -4.04 -1.77  0.28
 C -4.60 -3.20  0.32
 N -5.93 -3.35 -0.26
 C -7.05 -3.00  0.47
 N -8.22 -3.04 -0.30
 N -6.95 -2.68  1.71
 H -2.92 -1.87  2.11
 H -2.03 -2.45  0.70
 H -3.90 -1.46 -0.77
 H -4.79 -1.09  0.71
 H -4.69 -3.53  1.37
 H -3.92 -3.89 -0.19
 H -5.99 -3.13 -1.25
 H -9.07 -2.96  0.24
 H -8.27 -3.82 -0.96
 H -7.87 -2.57  2.14
 N -2.94  1.20  2.61
 C -3.78  2.25  3.14
 H -2.25  0.75  3.20
 H -4.45  1.85  3.92
 H -4.38  2.65  2.32
 H -3.18  3.06  3.57
