35
#
 C -1.83  0.87 -1.61
 C -0.83  0.40 -0.58
 O  0.38  0.38 -0.78
 H -1.28  1.14 -2.52
 H -2.38  1.75 -1.25
 H -2.59  0.11 -1.86
 N -1.33  0.01  0.65
 C -2.72 -0.21  1.00
 C -3.45  1.01  1.61
 O -4.67  0.96  1.83
 H -0.62 -0.36  1.28
 H -3.28 -0.41  0.08
 C -2.89 -1.40  1.96
 C -2.63 -2.79  1.34
 C -3.37 -3.05  0.01
 N -4.75 -2.60  0.02
 C -5.21 -1.60 -0.84
 N -6.22 -0.83 -0.28
 N -4.79 -1.37 -2.04
 H -3.91 -1.35  2.35
 H -2.22 -1.26  2.83
 H -2.91 -3.54  2.08
 H -1.56 -2.94  1.15
 H -3.30 -4.12 -0.23
 H -2.87 -2.52 -0.81
 H -5.28 -2.70  0.88
 H -6.56 -0.14 -0.95
 H -5.97 -0.38  0.61
 H -4.20 -2.14 -2.38
 N -2.68  2.09  1.86
 C -3.20  3.34  2.40
 H -1.70  2.02  1.61
 H -3.06  4.16  1.69
 H -2.70  3.59  3.34
 H -4.27  3.20  2.58
