35
#
 C -1.25 -2.53 -0.15
 C -0.29 -1.60  0.58
 O  0.92 -1.81  0.59
 H -0.68 -3.40 -0.49
 H -1.68 -2.03 -1.03
 H -2.07 -2.87  0.49
 N -0.82 -0.53  1.25
 C -2.19 -0.03  1.19
 C -2.26  1.07  0.11
 O -1.48  2.03  0.16
 H -0.12  0.12  1.60
 H -2.84 -0.87  0.93
 C -2.61  0.52  2.57
 C -4.08  0.92  2.71
 C -4.45  2.32  2.18
 N -3.72  3.37  2.89
 C -3.38  4.59  2.30
 N -2.94  4.50  0.98
 N -3.53  5.66  3.01
 H -2.38 -0.28  3.29
 H -1.97  1.38  2.82
 H -4.34  0.89  3.78
 H -4.74  0.18  2.23
 H -4.22  2.42  1.11
 H -5.54  2.46  2.28
 H -4.06  3.55  3.83
 H -2.35  3.69  0.75
 H -2.57  5.37  0.62
 H -3.11  6.47  2.55
 N -3.17  0.95 -0.89
 C -4.25 -0.01 -1.03
 H -3.16  1.74 -1.53
 H -3.89 -1.04 -0.93
 H -4.68  0.09 -2.03
 H -5.06  0.15 -0.30
