35
#
 C -0.65  1.52 -0.96
 C -0.49  0.43  0.08
 O  0.48 -0.32  0.14
 H -0.80  2.51 -0.51
 H -1.53  1.31 -1.59
 H  0.25  1.53 -1.57
 N -1.54  0.27  0.98
 C -2.62  1.21  1.25
 C -2.18  2.56  1.88
 O -2.71  3.60  1.49
 H -1.33 -0.43  1.69
 H -3.06  1.52  0.30
 C -3.73  0.56  2.10
 C -4.82 -0.22  1.34
 C -4.41 -1.54  0.67
 N -3.58 -1.44 -0.52
 C -4.10 -1.00 -1.73
 N -3.08 -0.68 -2.65
 N -5.33 -0.84 -2.08
 H -4.24  1.38  2.65
 H -3.28 -0.08  2.88
 H -5.27  0.45  0.59
 H -5.62 -0.45  2.06
 H -5.31 -2.10  0.41
 H -3.86 -2.17  1.39
 H -2.63 -1.13 -0.33
 H -3.48 -0.54 -3.57
 H -2.31 -1.34 -2.67
 H -5.97 -0.99 -1.30
 N -1.23  2.58  2.86
 C -0.54  1.49  3.54
 H -1.03  3.53  3.18
 H  0.26  1.04  2.93
 H -1.23  0.71  3.87
 H -0.08  1.90  4.45
