35
#
 C -0.13 -1.71  1.04
 C -0.03 -0.64  2.11
 O  1.07 -0.19  2.45
 H  0.60 -1.49  0.25
 H -1.13 -1.81  0.60
 H  0.16 -2.66  1.51
 N -1.22 -0.27  2.65
 C -1.56  0.48  3.89
 C -0.94  1.88  4.14
 O -1.59  2.66  4.84
 H -2.03 -0.74  2.26
 H -2.62  0.72  3.78
 C -1.43 -0.41  5.15
 C -0.00 -0.81  5.52
 C  0.08 -2.10  6.37
 N -0.62 -3.26  5.83
 C -0.31 -3.86  4.62
 N -1.28 -4.80  4.23
 N  0.71 -3.66  3.86
 H -2.03 -1.31  4.95
 H -1.92  0.12  5.98
 H  0.48 -0.00  6.09
 H  0.59 -0.94  4.61
 H -0.34 -1.92  7.37
 H  1.14 -2.36  6.52
 H -1.60 -3.33  6.10
 H -0.93 -5.34  3.44
 H -1.61 -5.40  4.98
 H  1.28 -2.88  4.18
 N  0.27  2.15  3.61
 C  0.92  3.43  3.85
 H  0.77  1.38  3.15
 H  1.73  3.55  3.12
 H  1.35  3.49  4.87
 H  0.20  4.24  3.74
