35
#
 C -0.09  1.11 -0.40
 C  0.06  0.30  0.88
 O  1.17  0.03  1.33
 H -0.01  2.18 -0.16
 H -1.03  0.91 -0.93
 H  0.76  0.86 -1.05
 N -1.06 -0.11  1.56
 C -2.47  0.25  1.44
 C -3.18 -0.41  0.24
 O -2.63 -0.68 -0.82
 H -0.83 -0.49  2.48
 H -2.90 -0.20  2.35
 C -2.79  1.77  1.53
 C -2.78  2.29  2.98
 C -1.38  2.36  3.64
 N -1.38  2.05  5.06
 C -1.45  0.74  5.49
 N -1.53  0.64  6.89
 N -1.47 -0.25  4.65
 H -3.78  1.95  1.10
 H -2.08  2.33  0.90
 H -3.42  1.63  3.58
 H -3.25  3.29  3.00
 H -0.96  3.37  3.52
 H -0.69  1.67  3.16
 H -1.78  2.73  5.69
 H -0.94  1.29  7.40
 H -1.43 -0.31  7.24
 H -1.39 -1.14  5.14
 N -4.51 -0.66  0.42
 C -5.32 -0.51  1.61
 H -4.95 -1.07 -0.41
 H -4.89 -1.03  2.48
 H -6.31 -0.95  1.42
 H -5.48  0.54  1.89
