35
#
 C -1.40  0.47  0.11
 C -1.93  0.54  1.53
 O -2.57  1.51  1.93
 H -0.73  1.32 -0.06
 H -2.24  0.58 -0.58
 H -0.86 -0.46 -0.13
 N -1.65 -0.56  2.30
 C -1.89 -0.82  3.73
 C -3.03 -1.83  4.05
 O -2.86 -2.58  5.01
 H -1.12 -1.29  1.83
 H -1.01 -1.39  4.05
 C -1.95  0.41  4.66
 C -3.32  1.06  4.90
 C -3.21  2.23  5.87
 N -4.51  2.85  6.07
 C -4.68  3.87  7.00
 N -5.96  4.43  6.94
 N -3.83  4.32  7.86
 H -1.24  1.16  4.28
 H -1.56  0.06  5.63
 H -4.02  0.32  5.31
 H -3.72  1.42  3.94
 H -2.46  2.96  5.50
 H -2.85  1.87  6.85
 H -5.05  2.97  5.22
 H -6.72  3.75  6.87
 H -6.11  5.07  7.71
 H -2.90  3.93  7.70
 N -4.17 -1.88  3.31
 C -4.65 -1.04  2.23
 H -4.79 -2.61  3.64
 H -5.75 -1.04  2.25
 H -4.33 -1.40  1.24
 H -4.32 -0.00  2.34
