35
#
 C -1.27 -0.13 -0.94
 C -0.52  0.24  0.32
 O  0.55  0.84  0.27
 H -1.12  0.67 -1.67
 H -2.34 -0.31 -0.80
 H -0.83 -1.05 -1.34
 N -1.03 -0.14  1.55
 C -2.27 -0.78  1.96
 C -2.63 -2.00  1.07
 O -1.76 -2.78  0.69
 H -0.39  0.11  2.29
 H -2.01 -1.30  2.90
 C -3.36  0.24  2.36
 C -3.81  1.31  1.35
 C -4.75  0.89  0.23
 N -5.92  0.18  0.76
 C -6.96 -0.26 -0.06
 N -6.57 -0.75 -1.30
 N -8.15 -0.27  0.44
 H -2.95  0.78  3.23
 H -4.24 -0.31  2.76
 H -2.92  1.78  0.90
 H -4.30  2.11  1.92
 H -4.22  0.21 -0.46
 H -5.04  1.78 -0.35
 H -6.33  0.61  1.58
 H -7.32 -0.84 -1.98
 H -5.70 -0.41 -1.70
 H -8.83 -0.70 -0.20
 N -3.95 -2.20  0.82
 C -4.42 -3.37  0.09
 H -4.65 -1.51  1.11
 H -5.39 -3.15 -0.35
 H -4.51 -4.25  0.75
 H -3.70 -3.62 -0.69
