35
#
 C -0.23  0.79 -0.12
 C -0.28  0.08  1.22
 O  0.69 -0.54  1.64
 H -0.39  1.87 -0.02
 H -0.97  0.41 -0.83
 H  0.77  0.62 -0.53
 N -1.42  0.13  2.01
 C -2.79  0.63  1.91
 C -3.84 -0.50  2.02
 O -4.78 -0.37  2.81
 H -1.24 -0.37  2.88
 H -2.97  1.20  2.84
 C -3.12  1.58  0.74
 C -4.55  2.13  0.78
 C -4.85  3.07  1.96
 N -6.22  3.53  2.03
 C -7.27  2.81  2.62
 N -6.90  1.77  3.44
 N -8.52  3.13  2.52
 H -2.97  1.07 -0.22
 H -2.41  2.42  0.77
 H -5.28  1.30  0.79
 H -4.73  2.68 -0.16
 H -4.20  3.96  1.89
 H -4.61  2.59  2.92
 H -6.53  4.16  1.30
 H -7.71  1.26  3.78
 H -6.13  1.15  3.17
 H -8.65  3.99  1.99
 N -3.74 -1.61  1.24
 C -2.76 -1.98  0.23
 H -4.49 -2.28  1.43
 H -2.61 -1.17 -0.50
 H -3.14 -2.84 -0.32
 H -1.79 -2.25  0.67
