35
#
 C  0.04  1.26  0.43
 C  0.08  0.18  1.49
 O  1.11 -0.13  2.09
 H  1.03  1.72  0.38
 H -0.71  2.03  0.65
 H -0.21  0.84 -0.55
 N -1.11 -0.46  1.77
 C -2.39 -0.31  1.08
 C -3.15  0.99  1.44
 O -3.97  1.47  0.66
 H -1.01 -1.24  2.41
 H -2.23 -0.25 -0.01
 C -3.25 -1.55  1.39
 C -4.55 -1.65  0.60
 C -5.34 -2.93  0.93
 N -4.64 -4.16  0.57
 C -4.08 -4.98  1.53
 N -3.65 -6.21  1.01
 N -4.03 -4.61  2.77
 H -3.46 -1.59  2.47
 H -2.63 -2.44  1.17
 H -4.34 -1.62 -0.48
 H -5.20 -0.79  0.81
 H -6.30 -2.91  0.39
 H -5.55 -2.97  2.00
 H -4.98 -4.64 -0.25
 H -3.06 -6.73  1.64
 H -3.24 -6.15  0.08
 H -3.53 -5.29  3.34
 N -2.87  1.50  2.67
 C -3.50  2.69  3.19
 H -2.12  1.05  3.19
 H -4.22  3.04  2.45
 H -2.77  3.48  3.38
 H -4.03  2.47  4.13
