35
#
 C -0.43 -0.54  0.16
 C -0.50 -0.71  1.66
 O  0.42 -1.25  2.27
 H  0.63 -0.45 -0.12
 H -0.98  0.33 -0.24
 H -0.85 -1.44 -0.31
 N -1.62 -0.31  2.35
 C -2.69  0.63  2.02
 C -3.30  0.32  0.63
 O -3.63 -0.83  0.34
 H -1.54 -0.55  3.33
 H -3.52  0.36  2.69
 C -2.32  2.10  2.35
 C -1.03  2.65  1.72
 C  0.22  2.42  2.59
 N  1.44  2.52  1.78
 C  2.66  2.02  2.23
 N  2.60  0.81  2.90
 N  3.72  2.72  1.98
 H -2.24  2.17  3.45
 H -3.19  2.73  2.10
 H -1.15  3.73  1.55
 H -0.84  2.21  0.74
 H  0.19  1.43  3.04
 H  0.22  3.14  3.43
 H  1.60  3.44  1.38
 H  1.89  0.13  2.63
 H  3.50  0.39  3.09
 H  4.57  2.21  2.21
 N -3.50  1.38 -0.20
 C -4.11  1.25 -1.51
 H -3.16  2.29  0.08
 H -4.96  1.93 -1.62
 H -4.45  0.21 -1.61
 H -3.38  1.46 -2.31
