35
#
 C  0.21  1.30  1.86
 C -0.44  0.53  3.00
 O  0.21  0.03  3.91
 H -0.22  2.30  1.74
 H  0.09  0.77  0.90
 H  1.28  1.39  2.08
 N -1.81  0.42  2.97
 C -2.74  0.86  1.94
 C -3.31  2.29  2.16
 O -4.11  2.76  1.36
 H -2.18 -0.16  3.72
 H -2.18  0.95  0.99
 C -3.86 -0.16  1.69
 C -4.71 -0.59  2.90
 C -5.53  0.53  3.54
 N -6.45 -0.02  4.53
 C -7.13  0.78  5.44
 N -7.43  2.05  4.96
 N -7.40  0.30  6.61
 H -3.40 -1.06  1.26
 H -4.51  0.27  0.92
 H -4.09 -1.07  3.67
 H -5.41 -1.37  2.55
 H -6.09  1.05  2.75
 H -4.86  1.28  4.00
 H -6.13 -0.87  5.00
 H -8.13  2.55  5.51
 H -7.59  2.14  3.96
 H -8.00  0.93  7.14
 N -2.86  2.94  3.26
 C -3.35  4.25  3.65
 H -2.25  2.43  3.88
 H -2.52  4.88  3.99
 H -4.10  4.18  4.45
 H -3.81  4.71  2.77
