35
#
 C  1.54 -0.56  0.69
 C  0.73 -1.29  1.74
 O  1.16 -2.28  2.33
 H  2.48 -0.21  1.14
 H  1.02  0.30  0.24
 H  1.80 -1.27 -0.11
 N -0.50 -0.75  2.01
 C -1.43 -1.39  2.91
 C -2.84 -0.99  2.45
 O -3.03 -0.05  1.67
 H -0.90 -0.02  1.43
 H -1.30 -2.48  2.82
 C -1.18 -1.01  4.39
 C -1.37  0.48  4.70
 C -1.09  0.80  6.17
 N -1.25  2.22  6.41
 C -0.93  2.74  7.66
 N -1.29  4.10  7.77
 N -0.40  2.00  8.57
 H -0.15 -1.33  4.63
 H -1.84 -1.61  5.03
 H -2.39  0.78  4.44
 H -0.69  1.07  4.07
 H -0.07  0.52  6.44
 H -1.75  0.20  6.82
 H -2.06  2.65  5.98
 H -0.92  4.54  8.60
 H -1.11  4.65  6.94
 H -0.12  2.55  9.38
 N -3.85 -1.72  3.00
 C -5.25 -1.45  2.72
 H -3.61 -2.49  3.61
 H -5.73 -2.31  2.22
 H -5.31 -0.58  2.06
 H -5.80 -1.23  3.65
