35
#
 C  0.26 -0.30  2.57
 C -0.56  0.92  2.18
 O -0.25  2.04  2.60
 H  1.18  0.05  3.04
 H  0.50 -0.94  1.71
 H -0.28 -0.92  3.30
 N -1.61  0.75  1.33
 C -2.37 -0.49  1.17
 C -3.04 -0.48 -0.21
 O -3.66  0.49 -0.63
 H -2.20  1.59  1.22
 H -1.67 -1.33  1.22
 C -3.42 -0.69  2.30
 C -4.55  0.34  2.44
 C -4.18  1.77  2.86
 N -3.74  2.60  1.71
 C -3.40  3.96  1.92
 N -2.44  4.13  2.90
 N -3.87  4.96  1.27
 H -2.86 -0.75  3.25
 H -3.88 -1.68  2.15
 H -5.22 -0.05  3.22
 H -5.15  0.38  1.52
 H -3.37  1.76  3.61
 H -5.05  2.24  3.35
 H -4.36  2.49  0.91
 H -2.14  5.09  2.96
 H -1.67  3.46  2.89
 H -4.66  4.68  0.68
 N -2.94 -1.66 -0.90
 C -3.55 -1.87 -2.19
 H -2.37 -2.40 -0.50
 H -4.24 -2.72 -2.17
 H -2.79 -2.04 -2.97
 H -4.11 -0.96 -2.44
