35
#
 C -0.00  1.35  1.19
 C -0.52  0.17  2.00
 O  0.22 -0.54  2.68
 H  0.61  0.96  0.37
 H  0.65  1.95  1.83
 H -0.79  1.98  0.78
 N -1.89 -0.02  1.94
 C -2.52 -1.25  2.45
 C -4.02 -1.26  2.14
 O -4.63 -2.32  1.97
 H -2.35  0.41  1.14
 H -2.09 -2.11  1.92
 C -2.33 -1.43  3.99
 C -1.53 -2.67  4.41
 C -2.25 -4.02  4.25
 N -2.67 -4.39  2.91
 C -1.79 -4.72  1.88
 N -0.54 -5.18  2.28
 N -2.08 -4.71  0.62
 H -3.32 -1.47  4.47
 H -1.83 -0.53  4.37
 H -1.26 -2.56  5.47
 H -0.58 -2.66  3.85
 H -3.17 -4.01  4.87
 H -1.63 -4.82  4.67
 H -3.50 -3.90  2.57
 H  0.07 -5.27  1.48
 H -0.10 -4.69  3.05
 H -3.06 -4.46  0.47
 N -4.63 -0.04  2.13
 C -6.07  0.10  1.98
 H -4.08  0.76  2.43
 H -6.30  0.96  1.33
 H -6.56  0.25  2.95
 H -6.46 -0.81  1.53
