35
#
 C -0.67  0.90 -0.09
 C -0.47  0.65  1.39
 O  0.60  0.84  1.96
 H  0.09  0.33 -0.65
 H -0.49  1.96 -0.30
 H -1.66  0.62 -0.46
 N -1.58  0.22  2.06
 C -1.55 -0.11  3.47
 C -2.71 -1.08  3.72
 O -3.65 -1.16  2.93
 H -2.44 -0.04  1.58
 H -0.58 -0.59  3.67
 C -1.63  1.13  4.39
 C -2.99  1.83  4.51
 C -3.50  2.50  3.23
 N -4.65  3.34  3.53
 C -5.23  4.12  2.53
 N -6.42  4.73  2.95
 N -4.80  4.32  1.33
 H -0.87  1.84  4.03
 H -1.31  0.83  5.40
 H -2.90  2.61  5.29
 H -3.75  1.12  4.88
 H -3.74  1.74  2.47
 H -2.71  3.14  2.81
 H -5.33  2.92  4.16
 H -6.74  5.39  2.26
 H -6.37  5.14  3.88
 H -4.01  3.71  1.11
 N -2.68 -1.84  4.85
 C -1.65 -1.91  5.88
 H -3.51 -2.41  4.97
 H -1.64 -2.92  6.30
 H -1.81 -1.19  6.69
 H -0.66 -1.73  5.44
