35
#
 C  0.93  0.94  0.17
 C  0.55 -0.13  1.17
 O  1.29 -1.05  1.47
 H  1.96  0.76 -0.15
 H  0.85  1.95  0.59
 H  0.28  0.91 -0.72
 N -0.70 -0.01  1.76
 C -1.74  0.97  1.45
 C -1.66  2.28  2.28
 O -2.35  3.25  1.97
 H -0.93 -0.79  2.37
 H -1.63  1.31  0.41
 C -3.13  0.34  1.61
 C -3.45 -0.77  0.59
 C -3.50 -0.33 -0.89
 N -4.52  0.67 -1.21
 C -4.37  2.01 -0.85
 N -3.11  2.53 -1.18
 N -5.33  2.62 -0.25
 H -3.87  1.14  1.54
 H -3.22 -0.08  2.63
 H -4.42 -1.21  0.85
 H -2.71 -1.59  0.67
 H -3.69 -1.21 -1.51
 H -2.52  0.07 -1.21
 H -5.46  0.38 -0.95
 H -2.97  3.49 -0.90
 H -2.80  2.34 -2.13
 H -5.15  3.62 -0.17
 N -0.79  2.26  3.32
 C -0.59  3.40  4.20
 H -0.24  1.41  3.45
 H -0.80  3.14  5.24
 H -1.28  4.18  3.88
 H  0.44  3.77  4.12
