35
#
 C  0.21  0.49  0.99
 C -0.78 -0.54  1.49
 O -0.74 -1.72  1.12
 H -0.24  1.10  0.20
 H  1.06 -0.05  0.55
 H  0.56  1.16  1.78
 N -1.72 -0.13  2.40
 C -2.14  1.23  2.67
 C -3.07  1.14  3.90
 O -3.66  0.10  4.19
 H -2.36 -0.84  2.74
 H -1.27  1.84  2.94
 C -2.89  1.94  1.48
 C -3.43  1.02  0.39
 C -4.57  0.08  0.81
 N -4.88 -0.90 -0.22
 C -4.77 -2.27 -0.04
 N -3.72 -2.67  0.80
 N -5.64 -3.04 -0.61
 H -2.18  2.65  1.02
 H -3.71  2.55  1.89
 H -2.62  0.40 -0.03
 H -3.78  1.65 -0.45
 H -5.47  0.67  1.05
 H -4.31 -0.46  1.73
 H -5.69 -0.70 -0.80
 H -3.63 -3.67  0.87
 H -2.81 -2.22  0.69
 H -5.37 -4.02 -0.54
 N -3.23  2.28  4.63
 C -2.53  3.55  4.49
 H -3.87  2.17  5.41
 H -2.89  4.23  5.27
 H -2.71  4.02  3.52
 H -1.44  3.43  4.63
