35
#
 C -2.12 -1.41  2.92
 C -1.02 -0.48  2.43
 O -1.17  0.26  1.46
 H -2.39 -2.09  2.10
 H -3.01 -0.81  3.15
 H -1.84 -1.99  3.80
 N  0.14 -0.52  3.16
 C  1.34  0.17  2.74
 C  2.52 -0.80  2.94
 O  2.48 -1.68  3.80
 H  0.30 -1.26  3.84
 H  1.21  0.42  1.68
 C  1.60  1.47  3.54
 C  0.48  2.50  3.39
 C  0.79  3.80  4.14
 N -0.31  4.74  4.01
 C -0.27  5.98  4.65
 N -1.34  6.80  4.28
 N  0.61  6.41  5.49
 H  2.55  1.90  3.20
 H  1.73  1.20  4.60
 H -0.47  2.09  3.76
 H  0.32  2.72  2.32
 H  1.75  4.22  3.78
 H  0.93  3.58  5.21
 H -0.75  4.75  3.10
 H -1.36  7.63  4.85
 H -2.24  6.33  4.24
 H  1.40  5.77  5.57
 N  3.59 -0.58  2.13
 C  4.82 -1.34  2.22
 H  3.51  0.14  1.42
 H  4.70 -2.07  3.03
 H  5.67 -0.69  2.44
 H  5.02 -1.89  1.28
