35
#
 C -0.20 -0.71  2.64
 C -0.29 -0.19  1.21
 O  0.46 -0.59  0.32
 H  0.62 -1.43  2.68
 H -1.14 -1.20  2.95
 H -0.01  0.10  3.35
 N -1.26  0.74  0.95
 C -2.28  1.26  1.85
 C -3.53  0.40  2.14
 O -4.28  0.79  3.04
 H -1.28  1.03 -0.02
 H -1.83  1.34  2.85
 C -2.68  2.70  1.47
 C -3.10  3.00  0.02
 C -4.22  2.17 -0.60
 N -5.40  2.10  0.23
 C -6.23  0.99  0.27
 N -6.97  0.92  1.45
 N -6.36  0.08 -0.64
 H -1.83  3.35  1.71
 H -3.48  2.98  2.17
 H -2.23  2.93 -0.66
 H -3.38  4.07 -0.02
 H -3.88  1.14 -0.80
 H -4.45  2.59 -1.60
 H -5.48  2.74  1.01
 H -6.40  0.98  2.30
 H -7.57  0.10  1.45
 H -5.89  0.35 -1.51
 N -3.80 -0.76  1.49
 C -3.22 -1.41  0.32
 H -4.68 -1.16  1.81
 H -2.31 -1.98  0.57
 H -2.98 -0.71 -0.48
 H -3.97 -2.10 -0.08
