35
#
 C -0.77 -0.03 -0.53
 C -0.10 -0.13  0.82
 O  1.11 -0.29  0.94
 H  0.02 -0.04 -1.29
 H -1.35  0.89 -0.64
 H -1.44 -0.89 -0.70
 N -0.89 -0.04  1.95
 C -2.34  0.03  2.13
 C -3.01 -1.31  1.67
 O -2.73 -2.32  2.31
 H -0.35 -0.25  2.79
 H -2.47 -0.06  3.22
 C -2.95  1.39  1.75
 C -4.32  1.62  2.39
 C -4.98  2.90  1.90
 N -6.28  3.09  2.52
 C -7.13  4.11  2.10
 N -8.27  4.21  2.91
 N -6.98  4.92  1.12
 H -3.01  1.52  0.66
 H -2.24  2.15  2.10
 H -4.20  1.66  3.49
 H -5.00  0.77  2.20
 H -5.13  2.84  0.81
 H -4.31  3.76  2.08
 H -6.31  2.91  3.52
 H -8.93  4.88  2.53
 H -8.70  3.33  3.15
 H -6.05  4.84  0.70
 N -3.86 -1.41  0.60
 C -4.38 -0.45 -0.37
 H -4.18 -2.37  0.50
 H -4.94 -1.02 -1.13
 H -3.59  0.09 -0.89
 H -5.08  0.27  0.07
