35
#
 C -0.14  0.25  0.09
 C -0.06  0.14  1.60
 O  1.02  0.22  2.18
 H  0.38 -0.62 -0.34
 H  0.42  1.14 -0.22
 H -1.15  0.29 -0.33
 N -1.21 -0.11  2.33
 C -2.63 -0.02  1.99
 C -3.04 -0.89  0.78
 O -3.95 -0.55  0.02
 H -0.99 -0.12  3.33
 H -3.14 -0.50  2.84
 C -3.21  1.41  1.93
 C -2.65  2.36  0.87
 C -3.39  3.71  0.90
 N -2.91  4.68 -0.07
 C -1.74  5.42  0.14
 N -1.38  6.16 -0.99
 N -1.01  5.48  1.20
 H -3.07  1.86  2.93
 H -4.29  1.30  1.78
 H -2.77  1.92 -0.13
 H -1.58  2.54  1.03
 H -3.32  4.16  1.90
 H -4.46  3.55  0.70
 H -3.09  4.46 -1.04
 H -0.61  6.79 -0.77
 H -2.15  6.65 -1.44
 H -1.29  4.80  1.90
 N -2.39 -2.08  0.70
 C -2.63 -3.04 -0.36
 H -1.61 -2.22  1.33
 H -1.80 -3.09 -1.07
 H -3.54 -2.72 -0.89
 H -2.80 -4.04  0.06
