35
#
 C -3.80  3.29  1.95
 C -2.77  2.19  2.09
 O -2.07  1.83  1.13
 H -4.33  3.18  1.00
 H -3.27  4.26  1.94
 H -4.52  3.31  2.78
 N -2.66  1.63  3.32
 C -1.55  0.74  3.67
 C -1.95 -0.74  3.42
 O -2.18 -1.54  4.32
 H -3.24  1.98  4.07
 H -0.75  0.98  2.97
 C -1.11  1.00  5.11
 C  0.28  0.47  5.47
 C  1.44  0.96  4.58
 N  1.47  2.41  4.36
 C  0.83  3.01  3.27
 N  1.08  2.36  2.06
 N  0.08  4.04  3.46
 H -1.84  0.54  5.80
 H -1.14  2.09  5.27
 H  0.29 -0.63  5.46
 H  0.49  0.76  6.52
 H  1.38  0.48  3.59
 H  2.39  0.64  5.02
 H  1.29  2.97  5.19
 H  0.59  2.72  1.26
 H  2.03  2.05  1.89
 H -0.17  4.47  2.57
 N -2.00 -1.04  2.09
 C -2.45 -2.32  1.59
 H -1.87 -0.25  1.45
 H -1.74 -2.72  0.85
 H -3.44 -2.25  1.12
 H -2.51 -3.01  2.43
