35
#
 C -0.71 -1.68 -0.18
 C -1.05 -0.52  0.74
 O -1.21  0.62  0.28
 H -1.47 -1.74 -0.96
 H -0.63 -2.65  0.33
 H  0.25 -1.46 -0.67
 N -1.15 -0.83  2.06
 C -1.39  0.02  3.24
 C -2.66  0.92  3.27
 O -3.22  1.09  4.36
 H -1.03 -1.81  2.28
 H -1.62 -0.70  4.03
 C -0.16  0.81  3.74
 C  0.37  2.00  2.92
 C  1.48  1.64  1.92
 N  2.15  2.79  1.32
 C  1.59  3.49  0.26
 N  2.29  4.69  0.01
 N  0.58  3.19 -0.48
 H  0.65  0.09  3.91
 H -0.45  1.17  4.74
 H  0.79  2.73  3.63
 H -0.45  2.52  2.40
 H  1.09  1.02  1.11
 H  2.25  1.04  2.43
 H  2.65  3.38  1.98
 H  1.96  5.11 -0.86
 H  3.30  4.59  0.02
 H  0.07  2.37 -0.14
 N -3.06  1.50  2.12
 C -4.20  2.40  2.08
 H -2.47  1.37  1.29
 H -4.48  2.57  1.04
 H -3.96  3.37  2.55
 H -5.05  1.96  2.62
