35
#
 C -2.45  1.69  2.06
 C -1.90  0.79  3.13
 O -1.74  1.16  4.29
 H -3.53  1.81  2.25
 H -2.31  1.30  1.04
 H -1.98  2.68  2.14
 N -1.59 -0.49  2.74
 C -1.26 -1.55  3.68
 C  0.23 -1.98  3.65
 O  0.60 -2.95  4.30
 H -1.87 -0.77  1.80
 H -1.38 -1.09  4.68
 C -2.17 -2.77  3.54
 C -3.67 -2.53  3.76
 C -4.06 -2.00  5.16
 N -4.17 -0.55  5.29
 C -5.13  0.21  4.64
 N -6.26 -0.49  4.21
 N -5.06  1.48  4.38
 H -1.79 -3.53  4.24
 H -2.02 -3.20  2.53
 H -4.18 -3.50  3.60
 H -4.08 -1.85  3.00
 H -3.32 -2.33  5.91
 H -5.01 -2.46  5.47
 H -3.29 -0.04  5.40
 H -7.00  0.15  3.96
 H -6.58 -1.23  4.84
 H -4.15  1.85  4.67
 N  1.05 -1.21  2.89
 C  2.48 -1.42  2.83
 H  0.64 -0.40  2.45
 H  2.70 -2.36  3.34
 H  3.02 -0.61  3.33
 H  2.83 -1.49  1.79
