35
#
 C  0.10  0.24  0.19
 C  0.01  0.19  1.71
 O  0.95  0.48  2.43
 H  1.10 -0.09 -0.11
 H -0.01  1.29 -0.12
 H -0.66 -0.36 -0.32
 N -1.21 -0.20  2.20
 C -1.58 -0.03  3.61
 C -1.18  1.39  4.08
 O -1.46  2.37  3.39
 H -1.97 -0.25  1.53
 H -2.68  0.02  3.61
 C -1.23 -1.24  4.49
 C  0.24 -1.69  4.53
 C  0.52 -2.79  5.56
 N -0.20 -4.03  5.36
 C -1.36 -4.33  6.05
 N -1.96 -5.52  5.60
 N -1.82 -3.54  6.97
 H -1.84 -2.09  4.14
 H -1.59 -1.05  5.51
 H  0.91 -0.85  4.73
 H  0.54 -2.05  3.53
 H  0.25 -2.44  6.57
 H  1.60 -3.01  5.56
 H -0.13 -4.45  4.44
 H -2.71 -5.84  6.20
 H -1.30 -6.27  5.40
 H -2.61 -3.96  7.45
 N -0.62  1.48  5.32
 C -0.18  2.75  5.87
 H -0.31  0.63  5.77
 H -0.35  2.77  6.95
 H -0.77  3.54  5.40
 H  0.88  2.94  5.67
