35
#
 C  0.15  0.49 -0.14
 C  0.08  0.06  1.32
 O  0.87 -0.73  1.81
 H -0.01 -0.39 -0.77
 H  1.16  0.86 -0.34
 H -0.57  1.27 -0.41
 N -0.94  0.65  2.05
 C -1.28  0.19  3.40
 C -2.64  0.75  3.82
 O -3.48  0.06  4.40
 H -1.68  1.09  1.52
 H -1.38 -0.90  3.41
 C -0.19  0.60  4.43
 C -0.48  0.25  5.90
 C -0.48 -1.23  6.27
 N -1.63 -1.93  5.71
 C -1.83 -3.28  5.93
 N -3.07 -3.72  5.47
 N -1.03 -4.12  6.50
 H -0.02  1.68  4.34
 H  0.74  0.11  4.11
 H -1.43  0.71  6.22
 H  0.30  0.73  6.50
 H -0.46 -1.32  7.37
 H  0.44 -1.70  5.89
 H -2.46 -1.37  5.52
 H -3.11 -4.74  5.43
 H -3.39 -3.29  4.61
 H -0.21 -3.66  6.89
 N -2.85  2.07  3.53
 C -4.05  2.78  3.94
 H -2.07  2.60  3.17
 H -4.42  3.41  3.12
 H -3.86  3.41  4.82
 H -4.81  2.04  4.20
