35
#
 C -0.69 -1.19  1.40
 C -0.75 -0.06  2.40
 O -0.05 -0.03  3.41
 H -0.64 -0.83  0.36
 H -1.58 -1.83  1.47
 H  0.19 -1.79  1.62
 N -1.64  0.96  2.14
 C -2.75  0.94  1.19
 C -2.45  1.56 -0.19
 O -3.27  1.46 -1.10
 H -1.69  1.64  2.90
 H -3.01 -0.11  0.97
 C -4.00  1.62  1.79
 C -4.41  1.10  3.18
 C -4.65 -0.41  3.26
 N -4.96 -0.90  4.60
 C -4.07 -0.80  5.66
 N -2.75 -1.09  5.36
 N -4.55 -0.56  6.84
 H -4.81  1.49  1.06
 H -3.82  2.70  1.85
 H -5.33  1.62  3.48
 H -3.66  1.37  3.93
 H -3.78 -0.97  2.88
 H -5.49 -0.70  2.60
 H -5.90 -0.67  4.93
 H -2.05 -0.72  6.00
 H -2.44 -1.06  4.40
 H -3.84 -0.65  7.56
 N -1.26  2.20 -0.29
 C -0.81  2.85 -1.50
 H -0.66  2.19  0.53
 H -1.59  2.71 -2.26
 H  0.12  2.41 -1.87
 H -0.66  3.93 -1.34
