35
#
 C -2.40  1.61  1.57
 C -0.99  1.40  2.09
 O -0.26  2.34  2.40
 H -2.58  2.69  1.51
 H -3.15  1.16  2.24
 H -2.54  1.17  0.58
 N -0.55  0.10  2.21
 C -1.23 -1.12  1.78
 C -0.92 -2.18  2.86
 O  0.09 -2.90  2.79
 H  0.42  0.02  2.51
 H -2.31 -0.93  1.78
 C -0.78 -1.55  0.37
 C -1.70 -2.51 -0.40
 C -1.80 -3.95  0.11
 N -2.62 -4.05  1.32
 C -2.53 -5.12  2.21
 N -1.24 -5.57  2.44
 N -3.63 -5.57  2.72
 H  0.23 -1.99  0.46
 H -0.68 -0.63 -0.21
 H -1.33 -2.55 -1.44
 H -2.72 -2.08 -0.46
 H -0.79 -4.33  0.34
 H -2.20 -4.59 -0.69
 H -3.61 -3.85  1.16
 H -0.53 -4.83  2.50
 H -1.17 -6.24  3.19
 H -3.44 -6.26  3.45
 N -1.77 -2.19  3.91
 C -1.65 -3.10  5.04
 H -2.61 -1.63  3.84
 H -0.65 -3.54  5.01
 H -2.40 -3.90  4.99
 H -1.77 -2.55  5.98
