35
#
 C -1.52 -0.65  0.13
 C -0.66 -0.92  1.36
 O  0.11 -1.87  1.41
 H -1.23  0.29 -0.36
 H -2.59 -0.59  0.37
 H -1.36 -1.47 -0.57
 N -0.77 -0.05  2.42
 C -1.53  1.18  2.51
 C -0.59  2.28  3.03
 O  0.32  2.01  3.80
 H -0.08 -0.18  3.16
 H -1.90  1.44  1.50
 C -2.72  1.07  3.49
 C -3.78  0.05  3.07
 C -4.86 -0.17  4.12
 N -4.31 -0.77  5.33
 C -5.04 -0.83  6.51
 N -4.37 -1.55  7.50
 N -6.20 -0.34  6.75
 H -3.20  2.06  3.59
 H -2.32  0.82  4.48
 H -3.29 -0.91  2.84
 H -4.27  0.37  2.13
 H -5.67 -0.79  3.69
 H -5.31  0.79  4.40
 H -3.70 -1.57  5.17
 H -4.86 -1.49  8.39
 H -3.38 -1.34  7.59
 H -6.65  0.03  5.91
 N -0.84  3.57  2.63
 C -1.83  4.03  1.67
 H -0.21  4.25  3.04
 H -1.75  5.12  1.59
 H -2.86  3.80  1.99
 H -1.67  3.61  0.67
