35
#
 C  0.09 -0.05  0.13
 C  0.14  0.03  1.65
 O  1.20  0.13  2.26
 H  1.12 -0.04 -0.23
 H -0.44  0.82 -0.29
 H -0.41 -0.95 -0.23
 N -1.06 -0.02  2.33
 C -2.41 -0.06  1.80
 C -3.23  1.03  2.52
 O -3.09  1.24  3.72
 H -0.99  0.14  3.33
 H -2.37  0.15  0.72
 C -3.09 -1.43  2.03
 C -2.41 -2.59  1.30
 C -3.05 -3.94  1.64
 N -2.51 -5.07  0.90
 C -2.87 -5.31 -0.43
 N -2.08 -6.31 -1.01
 N -3.79 -4.74 -1.13
 H -4.15 -1.35  1.71
 H -3.11 -1.61  3.12
 H -1.35 -2.62  1.57
 H -2.46 -2.43  0.21
 H -4.14 -3.91  1.46
 H -2.93 -4.16  2.71
 H -1.56 -5.32  1.13
 H -2.45 -6.57 -1.92
 H -1.92 -7.12 -0.42
 H -4.20 -3.95 -0.63
 N -4.13  1.68  1.73
 C -5.05  2.69  2.25
 H -4.16  1.46  0.74
 H -4.88  3.66  1.77
 H -4.85  2.78  3.32
 H -6.09  2.39  2.10
