35
#
 C -0.18 -0.70  0.03
 C -0.25 -0.77  1.54
 O  0.78 -0.92  2.22
 H  0.67 -1.30 -0.31
 H -0.01  0.35 -0.27
 H -1.10 -1.05 -0.47
 N -1.47 -0.69  2.14
 C -2.72 -0.20  1.59
 C -2.58  1.14  0.85
 O -1.72  1.97  1.14
 H -1.44 -0.74  3.17
 H -3.14 -0.95  0.90
 C -3.72 -0.04  2.76
 C -3.48  1.12  3.74
 C -2.10  1.22  4.42
 N -1.71 -0.07  5.03
 C -0.49 -0.15  5.73
 N  0.62  0.21  4.98
 N -0.54 -0.51  6.97
 H -4.73  0.07  2.34
 H -3.73 -1.00  3.31
 H -4.26  1.05  4.52
 H -3.65  2.08  3.23
 H -1.35  1.50  3.68
 H -2.14  2.02  5.17
 H -2.42 -0.40  5.68
 H  0.65 -0.12  4.00
 H  1.50  0.08  5.46
 H  0.40 -0.67  7.35
 N -3.49  1.39 -0.14
 C -4.51  0.50 -0.68
 H -3.37  2.30 -0.57
 H -4.08 -0.41 -1.12
 H -5.04  1.04 -1.47
 H -5.26  0.21  0.08
