35
#
 C  0.37  0.20 -0.22
 C  0.34 -0.22  1.24
 O  1.28 -0.83  1.75
 H  0.48 -0.70 -0.84
 H  1.25  0.83 -0.38
 H -0.52  0.75 -0.55
 N -0.79  0.15  1.92
 C -1.22 -0.15  3.30
 C -1.16  1.03  4.30
 O -2.06  1.11  5.14
 H -1.47  0.66  1.38
 H -2.31 -0.29  3.21
 C -0.68 -1.45  3.94
 C  0.63 -1.37  4.72
 C  1.00 -2.72  5.32
 N  2.29 -2.63  6.00
 C  2.82 -3.60  6.84
 N  1.93 -4.61  7.20
 N  4.00 -3.59  7.36
 H -0.61 -2.21  3.14
 H -1.48 -1.78  4.62
 H  0.54 -0.63  5.53
 H  1.43 -1.04  4.04
 H  1.02 -3.48  4.51
 H  0.24 -3.03  6.05
 H  2.98 -2.06  5.54
 H  2.41 -5.33  7.73
 H  1.36 -5.00  6.46
 H  4.50 -2.73  7.13
 N -0.16  1.96  4.26
 C  1.06  2.02  3.46
 H -0.28  2.67  4.97
 H  1.83  2.54  4.04
 H  0.91  2.56  2.52
 H  1.45  1.02  3.23
