35
#
 C -0.88  0.15 -0.51
 C -0.60 -0.53  0.82
 O  0.21 -1.43  0.94
 H  0.07  0.49 -0.94
 H -1.57  1.00 -0.44
 H -1.30 -0.60 -1.20
 N -1.32 -0.03  1.89
 C -1.30 -0.71  3.19
 C -2.57 -0.40  3.99
 O -3.22 -1.33  4.48
 H -2.11  0.56  1.68
 H -1.35 -1.80  3.00
 C  0.01 -0.47  3.98
 C  0.03 -1.18  5.34
 C -0.50 -0.32  6.50
 N -0.77 -1.08  7.71
 C -2.00 -1.14  8.35
 N -3.10 -0.92  7.52
 N -2.02 -1.36  9.62
 H  0.19  0.61  4.11
 H  0.82 -0.84  3.34
 H -0.56 -2.11  5.30
 H  1.06 -1.49  5.58
 H -1.43  0.18  6.22
 H  0.22  0.49  6.72
 H -0.02 -1.18  8.38
 H -3.99 -1.13  7.97
 H -3.07 -1.28  6.56
 H -2.97 -1.51  9.96
 N -2.97  0.89  4.16
 C -2.21  2.13  4.01
 H -3.80  0.95  4.75
 H -1.74  2.43  4.96
 H -2.88  2.93  3.69
 H -1.43  2.01  3.26
