35
#
 C -0.46  0.15 -0.77
 C -0.39  0.51  0.70
 O  0.47  1.29  1.14
 H  0.50 -0.29 -1.07
 H -0.59  1.07 -1.35
 H -1.27 -0.55 -1.01
 N -1.32 -0.07  1.50
 C -1.40  0.19  2.93
 C -2.00 -1.06  3.59
 O -3.05 -1.56  3.16
 H -2.05 -0.67  1.11
 H -0.37  0.31  3.27
 C -2.20  1.48  3.19
 C -2.47  1.91  4.64
 C -1.27  1.93  5.62
 N  0.03  2.22  5.03
 C  1.00  1.24  4.88
 N  1.86  1.47  3.83
 N  1.15  0.19  5.63
 H -3.18  1.36  2.69
 H -1.67  2.28  2.65
 H -3.24  1.26  5.09
 H -2.91  2.91  4.59
 H -1.18  0.95  6.10
 H -1.48  2.64  6.43
 H  0.11  3.01  4.41
 H  2.58  0.76  3.78
 H  1.43  1.66  2.92
 H  0.61  0.28  6.50
 N -1.30 -1.52  4.65
 C -1.72 -2.68  5.42
 H -0.40 -1.07  4.89
 H -1.02 -3.52  5.28
 H -2.71 -2.98  5.07
 H -1.77 -2.44  6.49
