35
#
 C  0.41  0.35  0.12
 C  0.28  0.14  1.61
 O  1.27  0.02  2.35
 H  0.99 -0.48 -0.30
 H  0.99  1.27 -0.05
 H -0.55  0.43 -0.41
 N -0.99  0.10  2.10
 C -1.30 -0.01  3.52
 C -1.25 -1.50  3.96
 O -2.27 -2.16  4.18
 H -1.77  0.17  1.45
 H -0.50  0.52  4.05
 C -2.65  0.63  3.82
 C -2.91  0.81  5.32
 C -4.28  1.43  5.64
 N -4.47  2.79  5.14
 C -4.88  3.11  3.85
 N -5.78  2.21  3.28
 N -4.51  4.14  3.16
 H -3.45  0.01  3.39
 H -2.68  1.61  3.32
 H -2.12  1.44  5.77
 H -2.86 -0.17  5.82
 H -4.43  1.44  6.73
 H -5.07  0.79  5.22
 H -3.79  3.46  5.50
 H -6.49  1.86  3.91
 H -6.16  2.59  2.42
 H -3.75  4.65  3.62
 N  0.01 -1.98  4.07
 C  0.30 -3.38  4.35
 H  0.76 -1.37  3.72
 H -0.61 -3.83  4.76
 H  1.11 -3.46  5.08
 H  0.58 -3.92  3.44
