35
#
 C  0.40  0.07 -0.48
 C  0.46  0.01  1.04
 O  1.51 -0.18  1.65
 H  0.98  0.95 -0.81
 H -0.61  0.15 -0.88
 H  0.89 -0.82 -0.89
 N -0.73  0.16  1.69
 C -0.84  0.20  3.14
 C -0.36 -1.06  3.89
 O  0.22 -0.91  4.97
 H -1.57  0.32  1.14
 H -0.16  0.97  3.52
 C -2.30  0.56  3.51
 C -2.62  0.58  5.01
 C -1.81  1.62  5.82
 N -2.19  1.71  7.22
 C -1.76  0.76  8.15
 N -2.41  0.92  9.38
 N -0.89 -0.17  8.01
 H -2.98 -0.16  3.02
 H -2.51  1.55  3.07
 H -2.46 -0.41  5.45
 H -3.69  0.81  5.12
 H -1.94  2.62  5.37
 H -0.74  1.39  5.77
 H -3.13  2.04  7.39
 H -1.98  0.32 10.08
 H -2.46  1.89  9.70
 H -0.55 -0.29  7.05
 N -0.65 -2.31  3.42
 C -1.28 -2.74  2.19
 H -0.25 -3.03  4.01
 H -1.58 -3.79  2.31
 H -0.62 -2.67  1.32
 H -2.20 -2.17  1.98
