35
#
 C -0.00  0.34  0.13
 C  0.02  0.09  1.62
 O  1.07 -0.16  2.22
 H  0.43 -0.53 -0.39
 H  0.64  1.20 -0.09
 H -1.01  0.54 -0.28
 N -1.19  0.16  2.25
 C -1.33  0.01  3.70
 C -1.38 -1.49  4.09
 O -2.43 -2.06  4.39
 H -2.02  0.31  1.71
 H -0.42  0.45  4.14
 C -2.56  0.77  4.19
 C -2.59  0.94  5.71
 C -3.88  1.59  6.23
 N -4.20  2.90  5.65
 C -3.33  3.98  5.73
 N -2.71  4.12  6.97
 N -3.16  4.72  4.68
 H -3.46  0.22  3.87
 H -2.57  1.76  3.71
 H -1.73  1.54  6.03
 H -2.49 -0.05  6.20
 H -3.83  1.68  7.32
 H -4.74  0.94  6.01
 H -4.58  2.86  4.71
 H -3.26  3.86  7.78
 H -2.23  5.01  7.10
 H -2.62  5.56  4.90
 N -0.17 -2.09  4.04
 C  0.01 -3.52  4.24
 H  0.59 -1.54  3.62
 H -0.89 -3.91  4.73
 H  0.88 -3.71  4.88
 H  0.15 -4.05  3.28
