35
#
 C  1.02 -1.82  0.84
 C  0.29 -1.43  2.11
 O  0.57 -1.93  3.20
 H  1.23 -2.89  0.86
 H  1.98 -1.28  0.80
 H  0.46 -1.58 -0.08
 N -0.65 -0.44  1.95
 C -1.56  0.05  2.99
 C -2.42  1.21  2.46
 O -3.54  1.42  2.91
 H -0.96 -0.28  0.99
 H -2.28 -0.74  3.25
 C -0.89  0.48  4.32
 C  0.04  1.71  4.30
 C  1.36  1.52  3.56
 N  2.23  2.67  3.77
 C  3.37  2.91  3.01
 N  3.93  1.75  2.46
 N  3.92  4.05  2.76
 H -0.35 -0.39  4.72
 H -1.72  0.69  5.00
 H  0.27  1.95  5.35
 H -0.49  2.59  3.89
 H  1.19  1.36  2.48
 H  1.84  0.60  3.93
 H  1.75  3.52  4.03
 H  4.86  1.95  2.08
 H  3.92  0.93  3.06
 H  3.34  4.82  3.12
 N -1.84  1.99  1.49
 C -2.49  3.19  0.99
 H -0.85  1.86  1.31
 H -2.26  3.33 -0.07
 H -2.17  4.09  1.55
 H -3.57  3.08  1.12
