35
#
 C  1.85 -1.80  1.57
 C  1.16 -1.10  2.73
 O  1.64 -1.13  3.87
 H  1.88 -2.88  1.78
 H  2.88 -1.45  1.50
 H  1.35 -1.65  0.60
 N  0.01 -0.45  2.42
 C -0.93  0.21  3.35
 C -0.42  1.54  3.97
 O -1.14  2.53  3.94
 H -0.27 -0.45  1.44
 H -1.77  0.53  2.73
 C -1.47 -0.73  4.44
 C -2.22 -1.94  3.89
 C -2.90 -2.77  4.98
 N -3.95 -2.01  5.65
 C -4.31 -2.31  6.96
 N -5.42 -1.56  7.37
 N -3.67 -3.20  7.63
 H -2.15 -0.13  5.07
 H -0.65 -1.07  5.09
 H -1.53 -2.60  3.34
 H -2.98 -1.61  3.15
 H -2.19 -3.07  5.75
 H -3.30 -3.71  4.55
 H -4.72 -1.71  5.06
 H -5.61 -1.64  8.37
 H -5.42 -0.59  7.07
 H -3.98 -3.21  8.61
 N  0.80  1.48  4.56
 C  1.39  2.62  5.23
 H  1.28  0.58  4.55
 H  2.39  2.84  4.82
 H  1.49  2.45  6.31
 H  0.74  3.49  5.07
