35
#
 C -3.01  1.01  1.44
 C -1.56  0.91  1.86
 O -0.67  1.54  1.27
 H -3.10  0.60  0.43
 H -3.29  2.07  1.39
 H -3.70  0.49  2.11
 N -1.30  0.09  2.92
 C  0.01 -0.34  3.43
 C  0.89  0.74  4.10
 O  1.56  0.43  5.10
 H -2.10 -0.35  3.35
 H -0.25 -1.01  4.26
 C  0.84 -1.14  2.39
 C  0.85 -2.66  2.62
 C  1.79 -3.13  3.75
 N  1.52 -2.56  5.06
 C  0.46 -3.01  5.81
 N  0.05 -2.09  6.79
 N -0.11 -4.14  5.54
 H  1.87 -0.76  2.38
 H  0.44 -0.91  1.39
 H  1.17 -3.16  1.70
 H -0.17 -3.02  2.83
 H  2.83 -2.87  3.49
 H  1.73 -4.22  3.84
 H  1.74 -1.56  5.17
 H -0.38 -2.51  7.60
 H  0.72 -1.37  7.03
 H -0.87 -4.33  6.21
 N  0.93  1.95  3.52
 C  1.80  3.00  4.01
 H  0.46  2.04  2.61
 H  1.42  3.97  3.65
 H  2.83  2.88  3.66
 H  1.81  3.00  5.10
