35
#
 C -0.19  0.98 -0.28
 C -0.26  1.02  1.23
 O  0.63  1.54  1.89
 H  0.30  1.90 -0.62
 H -1.16  0.88 -0.79
 H  0.43  0.12 -0.57
 N -1.33  0.44  1.88
 C -2.54 -0.21  1.39
 C -2.24 -1.22  0.25
 O -1.25 -1.94  0.29
 H -1.21  0.47  2.88
 H -2.85 -0.88  2.20
 C -3.72  0.78  1.21
 C -3.54  1.93  0.22
 C -4.75  2.86  0.21
 N -4.56  3.94 -0.76
 C -5.48  4.97 -0.91
 N -5.96  5.48  0.30
 N -5.81  5.35 -2.10
 H -3.90  1.22  2.21
 H -4.64  0.21  0.99
 H -3.38  1.55 -0.80
 H -2.65  2.52  0.48
 H -4.89  3.30  1.21
 H -5.68  2.29 -0.00
 H -4.31  3.60 -1.69
 H -6.48  6.35  0.20
 H -5.28  5.52  1.06
 H -6.37  6.20 -2.08
 N -3.18 -1.29 -0.75
 C -3.08 -2.25 -1.83
 H -3.97 -0.66 -0.72
 H -3.03 -1.74 -2.80
 H -3.94 -2.94 -1.83
 H -2.16 -2.83 -1.68
