35
#
 C  0.49  0.17  0.56
 C  0.14  1.64  0.67
 O  1.01  2.52  0.63
 H  1.54  0.08  0.29
 H -0.13 -0.35 -0.19
 H  0.33 -0.33  1.52
 N -1.18  1.97  0.80
 C -2.32  1.11  1.08
 C -3.02  0.54 -0.18
 O -3.90 -0.30 -0.08
 H -1.34  2.98  1.00
 H -1.99  0.22  1.64
 C -3.35  1.86  1.95
 C -3.91  3.17  1.35
 C -3.33  4.46  1.95
 N -1.89  4.61  1.73
 C -1.01  4.70  2.82
 N  0.30  4.89  2.40
 N -1.46  4.60  4.02
 H -2.89  2.06  2.93
 H -4.17  1.15  2.12
 H -5.00  3.20  1.53
 H -3.80  3.17  0.26
 H -3.48  4.49  3.03
 H -3.85  5.33  1.52
 H -1.62  5.24  0.97
 H  0.98  4.88  3.16
 H  0.60  4.27  1.63
 H -0.70  4.56  4.70
 N -2.58  1.05 -1.37
 C -3.12  0.64 -2.65
 H -1.84  1.74 -1.32
 H -2.34  0.20 -3.29
 H -3.58  1.48 -3.18
 H -3.89 -0.12 -2.45
