35
#
 C -0.46  2.17  0.08
 C -0.04  1.13  1.09
 O  1.10  1.06  1.55
 H  0.43  2.73 -0.23
 H -1.19  2.87  0.50
 H -0.93  1.72 -0.81
 N -1.00  0.22  1.49
 C -2.42  0.24  1.19
 C -3.21  1.45  1.76
 O -4.05  2.00  1.05
 H -0.66 -0.44  2.18
 H -2.55  0.35  0.11
 C -3.05 -1.10  1.63
 C -4.56 -1.22  1.43
 C -5.01 -1.12 -0.04
 N -6.42 -1.39 -0.25
 C -6.94 -2.68 -0.23
 N -8.34 -2.70 -0.26
 N -6.30 -3.80 -0.19
 H -2.81 -1.27  2.69
 H -2.53 -1.89  1.07
 H -5.08 -0.46  2.01
 H -4.88 -2.20  1.83
 H -4.43 -1.81 -0.67
 H -4.82 -0.11 -0.42
 H -7.06 -0.67  0.07
 H -8.68 -3.64 -0.40
 H -8.75 -2.05 -0.93
 H -5.30 -3.66 -0.05
 N -2.98  1.88  3.03
 C -2.07  1.39  4.06
 H -3.56  2.68  3.27
 H -2.15  0.30  4.19
 H -2.35  1.85  5.01
 H -1.02  1.64  3.85
