35
#
 C -0.23 -0.51 -0.02
 C -0.15 -0.41  1.49
 O  0.92 -0.47  2.10
 H  0.34 -1.39 -0.35
 H  0.25  0.37 -0.46
 H -1.26 -0.58 -0.41
 N -1.34 -0.23  2.12
 C -1.44 -0.16  3.57
 C -2.82 -0.70  3.95
 O -3.74 -0.76  3.13
 H -2.23 -0.31  1.63
 H -0.64 -0.80  3.97
 C -1.21  1.27  4.10
 C -2.25  2.29  3.64
 C -1.91  3.71  4.14
 N -2.85  4.74  3.71
 C -2.75  5.27  2.43
 N -3.83  6.13  2.14
 N -1.77  4.96  1.66
 H -0.21  1.57  3.76
 H -1.16  1.24  5.20
 H -3.25  2.01  4.00
 H -2.29  2.32  2.54
 H -0.92  4.00  3.77
 H -1.88  3.73  5.24
 H -3.80  4.63  4.05
 H -3.71  6.66  1.28
 H -4.12  6.72  2.91
 H -1.78  5.53  0.81
 N -3.02 -1.09  5.24
 C -2.07 -1.14  6.34
 H -3.98 -1.37  5.43
 H -1.05 -1.32  5.96
 H -2.33 -1.98  7.00
 H -2.06 -0.22  6.94
