35
#
 C -1.47 -1.14  0.40
 C -0.75 -0.94  1.72
 O -0.09 -1.85  2.24
 H -0.98 -1.97 -0.12
 H -1.46 -0.25 -0.24
 H -2.52 -1.42  0.57
 N -0.86  0.28  2.33
 C -1.96  1.22  2.14
 C -1.59  2.52  1.40
 O -2.35  2.95  0.53
 H -0.35  0.33  3.22
 H -2.69  0.76  1.47
 C -2.66  1.53  3.48
 C -3.57  0.43  4.07
 C -3.00 -0.98  4.34
 N -1.64 -1.09  4.88
 C -1.07 -0.15  5.71
 N -1.87  0.21  6.80
 N  0.09  0.35  5.41
 H -3.29  2.42  3.31
 H -1.91  1.83  4.22
 H -4.44  0.30  3.42
 H -3.96  0.84  5.02
 H -2.98 -1.56  3.41
 H -3.72 -1.50  4.99
 H -0.95 -1.42  4.20
 H -2.43 -0.53  7.20
 H -1.43  0.81  7.49
 H  0.49  0.89  6.18
 N -0.45  3.20  1.74
 C  0.60  2.87  2.69
 H -0.31  4.01  1.15
 H  1.13  3.79  2.95
 H  1.33  2.15  2.29
 H  0.20  2.45  3.62
