35
#
 C -0.80  1.68  0.60
 C -0.43  0.82  1.79
 O  0.63  0.96  2.41
 H  0.08  2.27  0.32
 H -1.62  2.36  0.85
 H -1.13  1.08 -0.26
 N -1.33 -0.14  2.17
 C -2.69 -0.35  1.67
 C -3.67  0.82  1.90
 O -4.47  1.10  1.00
 H -1.04 -0.66  3.00
 H -2.66 -0.45  0.58
 C -3.23 -1.68  2.25
 C -4.56 -2.20  1.67
 C -5.80 -2.00  2.55
 N -6.27 -0.62  2.61
 C -6.49  0.14  3.73
 N -6.40 -0.52  4.96
 N -6.72  1.42  3.74
 H -3.31 -1.60  3.34
 H -2.44 -2.43  2.05
 H -4.47 -3.28  1.50
 H -4.75 -1.75  0.68
 H -5.57 -2.34  3.57
 H -6.60 -2.66  2.18
 H -6.14 -0.08  1.76
 H -6.75  0.09  5.70
 H -6.83 -1.44  5.00
 H -6.71  1.79  2.78
 N -3.66  1.49  3.08
 C -2.97  1.20  4.33
 H -4.48  2.10  3.17
 H -3.11  0.16  4.65
 H -3.42  1.84  5.10
 H -1.90  1.42  4.27
