35
#
 C -1.09 -3.34  3.44
 C -0.92 -1.86  3.19
 O -0.20 -1.41  2.28
 H -1.95 -3.71  2.85
 H -1.30 -3.57  4.49
 H -0.19 -3.86  3.11
 N -1.63 -1.04  4.01
 C -1.66  0.42  3.85
 C -0.44  1.08  4.56
 O -0.56  1.79  5.55
 H -2.18 -1.45  4.75
 H -1.55  0.62  2.78
 C -2.98  1.01  4.37
 C -4.13  1.03  3.35
 C -4.53 -0.31  2.73
 N -4.95 -1.26  3.74
 C -4.72 -2.62  3.60
 N -4.81 -3.32  4.81
 N -4.40 -3.27  2.53
 H -2.78  2.03  4.71
 H -3.28  0.47  5.29
 H -3.86  1.71  2.52
 H -5.02  1.49  3.83
 H -3.67 -0.72  2.17
 H -5.33 -0.14  1.99
 H -4.92 -0.92  4.69
 H -5.58 -3.03  5.41
 H -4.83 -4.32  4.64
 H -4.28 -2.64  1.73
 N  0.74  0.77  3.96
 C  2.02  1.20  4.48
 H  0.69  0.11  3.17
 H  2.63  1.66  3.69
 H  2.58  0.35  4.91
 H  1.84  1.94  5.27
