35
#
 C  0.21 -0.15  2.85
 C  0.10  0.23  1.39
 O  0.97 -0.07  0.56
 H -0.60 -0.83  3.15
 H  0.15  0.74  3.50
 H  1.17 -0.65  3.01
 N -1.02  0.91  1.00
 C -2.17  1.28  1.80
 C -3.19  0.16  2.16
 O -4.01  0.40  3.04
 H -1.03  1.13  0.01
 H -1.82  1.58  2.79
 C -2.89  2.51  1.21
 C -3.61  2.34 -0.13
 C -4.95  1.57 -0.07
 N -5.90  2.04  0.94
 C -6.40  3.34  0.93
 N -6.72  3.81 -0.35
 N -6.49  3.99  2.04
 H -2.12  3.29  1.11
 H -3.60  2.88  1.96
 H -2.97  1.86 -0.89
 H -3.82  3.35 -0.52
 H -4.79  0.51  0.13
 H -5.42  1.62 -1.07
 H -5.65  1.77  1.89
 H -7.14  3.12 -0.97
 H -7.25  4.68 -0.34
 H -7.01  4.87  1.92
 N -3.16 -1.06  1.55
 C -2.50 -1.54  0.33
 H -3.88 -1.67  1.94
 H -3.00 -2.47  0.03
 H -1.44 -1.75  0.48
 H -2.61 -0.83 -0.50
