35
#
 C  0.69 -0.52  0.36
 C  0.43 -0.29  1.84
 O  1.33 -0.36  2.68
 H  1.38  0.26  0.00
 H -0.21 -0.51 -0.26
 H  1.20 -1.49  0.24
 N -0.86  0.03  2.16
 C -1.29  0.32  3.52
 C -2.11 -0.87  4.04
 O -3.23 -1.12  3.60
 H -1.57 -0.01  1.43
 H -0.36  0.44  4.08
 C -2.11  1.62  3.58
 C -2.31  2.15  5.01
 C -1.15  2.99  5.56
 N  0.10  2.27  5.75
 C  1.11  2.34  4.80
 N  2.27  1.66  5.20
 N  0.94  2.99  3.70
 H -3.09  1.41  3.13
 H -1.60  2.37  2.98
 H -2.53  1.32  5.70
 H -3.20  2.79  5.02
 H -1.45  3.41  6.54
 H -0.96  3.84  4.89
 H  0.43  2.18  6.70
 H  2.87  1.44  4.41
 H  2.08  0.81  5.72
 H  1.73  2.86  3.07
 N -1.52 -1.65  5.00
 C -0.20 -1.52  5.59
 H -2.11 -2.43  5.30
 H  0.04 -2.45  6.11
 H -0.16 -0.70  6.32
 H  0.56 -1.35  4.81
