35
#
 C  0.15  0.75 -0.08
 C  0.22  1.51  1.23
 O  1.15  2.30  1.45
 H  0.68 -0.21  0.03
 H  0.69  1.34 -0.83
 H -0.86  0.53 -0.43
 N -0.71  1.28  2.22
 C -2.10  0.80  2.11
 C -2.23 -0.51  1.31
 O -3.11 -0.69  0.47
 H -0.60  1.98  2.96
 H -2.36  0.51  3.14
 C -3.14  1.87  1.71
 C -2.87  2.74  0.47
 C -1.94  3.95  0.66
 N -2.34  4.87  1.72
 C -1.95  4.83  3.05
 N -0.76  4.15  3.32
 N -2.58  5.36  4.05
 H -3.30  2.53  2.58
 H -4.08  1.32  1.56
 H -3.85  3.12  0.13
 H -2.50  2.13 -0.37
 H -1.91  4.51 -0.28
 H -0.91  3.64  0.85
 H -3.24  5.32  1.59
 H -0.43  4.38  4.25
 H -0.02  4.21  2.62
 H -3.49  5.74  3.76
 N -1.34 -1.47  1.69
 C -1.27 -2.77  1.05
 H -0.61 -1.20  2.34
 H -1.19 -3.57  1.80
 H -0.41 -2.84  0.37
 H -2.19 -2.91  0.47
