35
#
 C -0.55  0.50  0.06
 C -0.51  0.60  1.57
 O  0.28  1.35  2.14
 H  0.48  0.45 -0.30
 H -0.98  1.44 -0.32
 H -1.13 -0.34 -0.34
 N -1.38 -0.15  2.32
 C -2.65 -0.78  1.92
 C -2.41 -2.00  0.98
 O -2.94 -2.08 -0.12
 H -1.26  0.04  3.31
 H -3.05 -1.21  2.86
 C -3.69  0.19  1.34
 C -4.38  1.12  2.35
 C -3.52  2.17  3.09
 N -2.53  2.88  2.31
 C -2.83  3.71  1.25
 N -1.71  4.01  0.46
 N -3.98  4.19  0.91
 H -4.45 -0.42  0.85
 H -3.23  0.78  0.54
 H -4.90  0.52  3.11
 H -5.17  1.64  1.79
 H -2.97  1.69  3.92
 H -4.20  2.89  3.58
 H -1.57  2.55  2.38
 H -0.82  4.07  0.95
 H -1.88  4.82 -0.13
 H -4.72  3.85  1.52
 N -1.59 -2.99  1.44
 C -0.92 -3.11  2.73
 H -1.46 -3.73  0.77
 H -0.64 -4.15  2.87
 H -1.58 -2.82  3.56
 H -0.01 -2.49  2.78
