35
#
 C  0.25  0.68 -0.04
 C -0.35  0.98  1.32
 O -0.60  2.14  1.68
 H -0.40  1.10 -0.82
 H  0.38 -0.39 -0.23
 H  1.22  1.19 -0.12
 N -0.61 -0.11  2.10
 C -1.04  0.01  3.47
 C -0.73 -1.36  4.13
 O -0.12 -2.23  3.51
 H -0.23 -1.02  1.87
 H -0.43  0.78  3.97
 C -2.52  0.44  3.61
 C -3.52 -0.60  3.10
 C -4.96 -0.36  3.60
 N -5.09 -0.21  5.06
 C -4.49 -1.09  5.96
 N -4.57 -2.42  5.58
 N -3.88 -0.78  7.06
 H -2.63  1.39  3.08
 H -2.70  0.66  4.67
 H -3.21 -1.61  3.42
 H -3.54 -0.61  2.00
 H -5.61 -1.18  3.25
 H -5.37  0.56  3.17
 H -4.99  0.75  5.37
 H -4.30 -3.05  6.34
 H -5.40 -2.71  5.08
 H -3.82  0.23  7.17
 N -1.15 -1.52  5.41
 C -0.99 -2.80  6.09
 H -1.80 -0.87  5.83
 H  0.07 -3.04  6.23
 H -1.45 -3.61  5.52
 H -1.48 -2.71  7.07
