35
#
 C -0.40 -0.82 -0.31
 C -0.32  0.05  0.93
 O  0.14  1.20  0.90
 H  0.61 -0.92 -0.73
 H -1.03 -0.32 -1.05
 H -0.81 -1.82 -0.11
 N -0.80 -0.51  2.08
 C -0.74  0.18  3.35
 C -0.72 -0.90  4.44
 O -1.20 -2.02  4.24
 H -1.10 -1.48  2.12
 H  0.20  0.77  3.37
 C -1.91  1.18  3.54
 C -3.31  0.54  3.63
 C -3.76  0.23  5.08
 N -5.01 -0.49  5.18
 C -5.17 -1.87  5.20
 N -4.00 -2.60  5.38
 N -6.30 -2.50  5.15
 H -1.86  1.86  2.69
 H -1.72  1.79  4.44
 H -3.34 -0.39  3.04
 H -4.05  1.21  3.18
 H -3.85  1.18  5.63
 H -3.00 -0.35  5.62
 H -5.84  0.01  4.89
 H -3.16 -2.34  4.87
 H -4.20 -3.60  5.31
 H -7.09 -1.84  5.15
 N -0.20 -0.51  5.63
 C -0.22 -1.35  6.82
 H  0.20  0.41  5.70
 H -0.81 -2.25  6.58
 H -0.70 -0.83  7.66
 H  0.79 -1.65  7.11
