35
#
 C  0.33  0.92  0.11
 C  0.10  0.71  1.59
 O  0.72  1.37  2.44
 H  0.07  1.96 -0.14
 H -0.26  0.25 -0.53
 H  1.39  0.78 -0.11
 N -0.81 -0.24  1.93
 C -1.28 -0.49  3.29
 C -0.32 -1.38  4.13
 O -0.71 -2.38  4.73
 H -1.27 -0.75  1.18
 H -1.28  0.49  3.80
 C -2.72 -1.02  3.28
 C -3.10 -2.09  2.24
 C -2.34 -3.43  2.31
 N -2.87 -4.45  1.42
 C -4.03 -5.15  1.72
 N -4.48 -5.92  0.64
 N -4.70 -5.17  2.82
 H -3.40 -0.17  3.14
 H -2.92 -1.42  4.29
 H -3.01 -1.69  1.21
 H -4.17 -2.30  2.36
 H -2.34 -3.82  3.34
 H -1.27 -3.30  2.06
 H -2.74 -4.28  0.43
 H -5.23 -6.53  0.93
 H -3.74 -6.44  0.16
 H -4.34 -4.49  3.50
 N  0.95 -0.91  4.17
 C  2.01 -1.56  4.93
 H  1.13 -0.01  3.71
 H  2.89 -1.72  4.30
 H  1.63 -2.53  5.28
 H  2.29 -0.96  5.81
