35
#
 C  0.83 -2.31  0.40
 C  0.50 -1.77  1.78
 O  0.85 -2.36  2.81
 H  0.22 -3.21  0.22
 H  1.89 -2.62  0.39
 H  0.65 -1.61 -0.41
 N -0.22 -0.61  1.79
 C -0.74  0.11  2.97
 C  0.33  0.80  3.85
 O  0.18  1.98  4.16
 H -0.37 -0.16  0.90
 H -1.30  0.95  2.55
 C -1.72 -0.71  3.84
 C -2.94 -1.25  3.08
 C -2.82 -2.73  2.68
 N -3.84 -3.21  1.76
 C -3.78 -2.92  0.40
 N -4.91 -3.35 -0.29
 N -2.83 -2.32 -0.24
 H -2.04 -0.03  4.64
 H -1.18 -1.54  4.33
 H -3.12 -0.65  2.17
 H -3.85 -1.13  3.70
 H -2.86 -3.36  3.58
 H -1.84 -2.94  2.23
 H -4.78 -3.29  2.14
 H -4.78 -3.24 -1.29
 H -5.24 -4.28 -0.04
 H -2.14 -1.93  0.42
 N  1.35  0.01  4.27
 C  2.41  0.50  5.13
 H  1.34 -0.97  3.96
 H  2.25  1.57  5.29
 H  3.39  0.35  4.66
 H  2.40 -0.02  6.10
