35
#
 C -0.12  0.82  0.12
 C -0.07  0.76  1.64
 O  0.92  1.14  2.26
 H  0.71  0.24 -0.28
 H  0.02  1.86 -0.19
 H -1.06  0.45 -0.32
 N -1.21  0.29  2.23
 C -1.50 -0.01  3.64
 C -2.52  0.94  4.32
 O -3.34  0.43  5.09
 H -1.95  0.03  1.60
 H -2.08 -0.94  3.60
 C -0.29 -0.33  4.55
 C  0.42  0.81  5.31
 C -0.26  1.21  6.62
 N  0.48  2.21  7.37
 C  0.19  3.55  7.30
 N  1.12  4.33  8.01
 N -0.82  4.00  6.62
 H  0.44 -0.86  3.93
 H -0.66 -1.05  5.29
 H  0.56  1.69  4.67
 H  1.44  0.46  5.54
 H -0.39  0.32  7.26
 H -1.26  1.63  6.45
 H  1.45  2.00  7.56
 H  1.41  3.94  8.90
 H  0.84  5.30  8.11
 H -0.95  5.00  6.79
 N -2.51  2.28  4.09
 C -1.53  3.13  3.43
 H -3.19  2.76  4.68
 H -1.25  3.93  4.13
 H -1.94  3.57  2.51
 H -0.62  2.59  3.19
