35
#
 C -3.17  2.05  0.08
 C -2.23  1.22  0.93
 O -1.13  0.86  0.53
 H -3.33  1.53 -0.87
 H -2.69  3.01 -0.15
 H -4.14  2.24  0.55
 N -2.68  0.94  2.19
 C -1.99  0.03  3.08
 C -3.07 -0.86  3.72
 O -4.22 -0.45  3.89
 H -3.65  1.11  2.44
 H -1.31 -0.57  2.46
 C -1.17  0.73  4.19
 C  0.06  1.52  3.71
 C -0.24  2.95  3.23
 N  0.95  3.70  2.83
 C  1.96  4.05  3.72
 N  1.49  4.41  4.99
 N  3.19  4.00  3.34
 H -0.83 -0.06  4.89
 H -1.84  1.38  4.77
 H  0.56  0.97  2.89
 H  0.78  1.58  4.53
 H -0.76  3.50  4.03
 H -0.91  2.94  2.37
 H  1.37  3.37  1.96
 H  0.61  4.91  5.01
 H  2.20  4.87  5.57
 H  3.81  4.42  4.03
 N -2.64 -2.09  4.12
 C -3.50 -3.04  4.81
 H -1.69 -2.36  3.91
 H -3.10 -3.27  5.81
 H -3.60 -3.97  4.24
 H -4.48 -2.58  4.92
