35
#
 C  0.38  2.58  1.89
 C -0.18  1.42  2.70
 O  0.54  0.80  3.49
 H  1.23  2.22  1.30
 H  0.75  3.34  2.57
 H -0.36  3.03  1.21
 N -1.48  1.13  2.50
 C -2.18  0.08  3.22
 C -3.42 -0.23  2.36
 O -4.01  0.69  1.80
 H -2.07  1.69  1.88
 H -1.51 -0.78  3.31
 C -2.60  0.57  4.63
 C -3.00 -0.49  5.66
 C -1.83 -1.27  6.28
 N -1.30 -2.32  5.41
 C  0.08 -2.61  5.33
 N  0.90 -1.50  5.27
 N  0.42 -3.86  5.33
 H -3.42  1.29  4.49
 H -1.75  1.14  5.02
 H -3.74 -1.19  5.25
 H -3.51  0.03  6.48
 H -2.15 -1.70  7.24
 H -1.01 -0.57  6.51
 H -1.78 -3.21  5.53
 H  1.87 -1.72  5.12
 H  0.59 -0.69  4.72
 H  1.41 -3.97  5.12
 N -3.88 -1.51  2.29
 C -3.23 -2.75  2.66
 H -4.72 -1.58  1.71
 H -3.95 -3.43  3.14
 H -2.42 -2.57  3.37
 H -2.81 -3.27  1.78
