35
#
 C  0.17 -0.45  0.59
 C  0.07 -0.74  2.08
 O  1.03 -1.12  2.74
 H  1.22 -0.59  0.31
 H -0.13  0.58  0.34
 H -0.45 -1.13  0.00
 N -1.16 -0.56  2.69
 C -2.45 -0.20  2.10
 C -3.05  0.89  3.01
 O -3.74  0.60  3.99
 H -1.16 -0.81  3.67
 H -2.25  0.21  1.10
 C -3.41 -1.39  1.98
 C -2.89 -2.52  1.10
 C -3.81 -3.75  1.07
 N -3.98 -4.39  2.36
 C -5.14 -4.29  3.12
 N -5.08 -5.10  4.26
 N -6.20 -3.60  2.90
 H -4.37 -1.01  1.59
 H -3.63 -1.75  2.99
 H -1.90 -2.84  1.45
 H -2.76 -2.17  0.06
 H -3.40 -4.49  0.37
 H -4.80 -3.47  0.67
 H -3.44 -5.23  2.51
 H -5.87 -4.92  4.87
 H -4.20 -5.05  4.77
 H -6.17 -3.14  1.99
 N -2.76  2.19  2.71
 C -1.82  2.70  1.72
 H -3.11  2.85  3.40
 H -1.87  3.79  1.73
 H -2.08  2.37  0.71
 H -0.78  2.40  1.94
