35
#
 C -1.52 -0.78 -0.08
 C -1.06 -0.29  1.27
 O -0.21  0.59  1.40
 H -0.66 -1.14 -0.65
 H -1.95  0.06 -0.64
 H -2.27 -1.58 -0.03
 N -1.63 -0.92  2.35
 C -1.35 -0.52  3.73
 C -0.95 -1.75  4.58
 O -1.59 -2.09  5.57
 H -2.34 -1.63  2.18
 H -0.47  0.13  3.64
 C -2.48  0.31  4.37
 C -3.92 -0.05  3.99
 C -4.41 -1.42  4.45
 N -5.77 -1.65  3.98
 C -6.36 -2.91  4.11
 N -7.71 -2.89  3.73
 N -5.83 -4.00  4.52
 H -2.31  1.36  4.07
 H -2.35  0.26  5.46
 H -4.05  0.03  2.90
 H -4.58  0.72  4.43
 H -4.32 -1.51  5.55
 H -3.78 -2.22  4.03
 H -6.41 -0.88  4.12
 H -8.08 -3.84  3.71
 H -7.90 -2.39  2.87
 H -4.90 -3.85  4.91
 N  0.16 -2.44  4.19
 C  1.08 -2.17  3.09
 H  0.35 -3.24  4.78
 H  2.08 -2.52  3.38
 H  1.15 -1.10  2.88
 H  0.78 -2.68  2.17
