35
#
 C  0.47  1.39  0.74
 C  0.63 -0.10  0.94
 O  1.69 -0.61  1.31
 H  1.44  1.87  0.89
 H -0.25  1.81  1.45
 H  0.09  1.62 -0.27
 N -0.46 -0.88  0.68
 C -1.79 -0.44  0.29
 C -2.65  0.17  1.42
 O -3.35  1.16  1.18
 H -0.29 -1.88  0.81
 H -1.68  0.37 -0.44
 C -2.53 -1.58 -0.43
 C -3.90 -1.20 -1.01
 C -3.87 -0.12 -2.11
 N -3.14 -0.50 -3.31
 C -1.84 -0.11 -3.56
 N -1.35 -0.67 -4.75
 N -1.19  0.64 -2.74
 H -2.67 -2.43  0.26
 H -1.87 -1.93 -1.23
 H -4.56 -0.83 -0.21
 H -4.37 -2.11 -1.41
 H -3.41  0.80 -1.74
 H -4.90  0.12 -2.39
 H -3.44 -1.34 -3.79
 H -0.45 -0.29 -5.03
 H -2.00 -0.67 -5.53
 H -0.29  0.92 -3.13
 N -2.64 -0.38  2.67
 C -1.94 -1.54  3.19
 H -3.23  0.14  3.32
 H -2.38 -1.79  4.16
 H -0.87 -1.37  3.33
 H -2.07 -2.42  2.54
