35
#
 C -1.56 -0.15  0.17
 C -1.16 -0.42  1.61
 O -0.48 -1.40  1.93
 H -0.65 -0.10 -0.44
 H -2.13  0.77  0.04
 H -2.15 -1.00 -0.19
 N -1.59  0.50  2.52
 C -1.34  0.38  3.95
 C -2.58 -0.24  4.63
 O -3.62  0.41  4.77
 H -2.23  1.23  2.22
 H -0.47 -0.28  4.04
 C -1.03  1.75  4.56
 C -0.72  1.70  6.06
 C -1.26  2.92  6.83
 N -2.71  3.01  6.78
 C -3.38  3.84  5.88
 N -4.59  3.29  5.46
 N -3.02  5.01  5.46
 H -1.90  2.40  4.39
 H -0.19  2.20  4.01
 H  0.36  1.61  6.23
 H -1.17  0.80  6.52
 H -0.84  3.85  6.41
 H -0.92  2.87  7.88
 H -3.19  2.14  6.96
 H -5.06  3.90  4.80
 H -4.53  2.32  5.17
 H -2.19  5.34  5.97
 N -2.49 -1.53  5.05
 C -1.36 -2.45  4.96
 H -3.35 -1.86  5.48
 H -0.63 -2.27  5.76
 H -0.87 -2.37  3.98
 H -1.75 -3.47  5.07
