35
#
 C  0.01  0.23  0.13
 C  0.01  0.18  1.64
 O  1.04  0.32  2.29
 H -0.60 -0.56 -0.32
 H  1.05  0.13 -0.20
 H -0.37  1.19 -0.22
 N -1.18 -0.05  2.31
 C -2.59 -0.13  1.89
 C -3.03 -1.51  1.39
 O -4.21 -1.72  1.10
 H -1.03 -0.01  3.32
 H -3.14 -0.04  2.84
 C -3.10  1.05  1.01
 C -3.23  0.86 -0.52
 C -4.67  0.58 -1.02
 N -5.66  1.48 -0.46
 C -6.80  1.10  0.22
 N -6.78 -0.18  0.77
 N -7.78  1.95  0.28
 H -2.45  1.90  1.23
 H -4.09  1.34  1.38
 H -2.59  0.06 -0.90
 H -2.87  1.79 -1.00
 H -4.95 -0.45 -0.78
 H -4.67  0.65 -2.12
 H -5.80  2.37 -0.92
 H -7.53 -0.38  1.41
 H -5.89 -0.63  0.98
 H -8.53  1.61  0.88
 N -2.07 -2.46  1.32
 C -2.33 -3.83  0.94
 H -1.15 -2.21  1.68
 H -1.64 -4.16  0.15
 H -3.36 -3.88  0.55
 H -2.25 -4.52  1.79
