35
#
 C  0.43  0.67  0.14
 C  0.23  0.71  1.65
 O  0.89  1.44  2.37
 H  1.50  0.58 -0.08
 H  0.08  1.63 -0.28
 H -0.12 -0.14 -0.36
 N -0.72 -0.16  2.14
 C -1.17 -0.11  3.52
 C -0.90 -1.42  4.29
 O -1.55 -1.72  5.30
 H -1.30 -0.65  1.47
 H -0.53  0.65  3.99
 C -2.64  0.33  3.66
 C -3.65 -0.64  3.04
 C -5.10 -0.37  3.47
 N -5.30 -0.23  4.92
 C -5.46 -1.34  5.77
 N -4.53 -2.35  5.57
 N -6.37 -1.46  6.68
 H -2.74  1.33  3.22
 H -2.86  0.42  4.73
 H -3.39 -1.67  3.30
 H -3.63 -0.58  1.94
 H -5.74 -1.16  3.05
 H -5.43  0.58  3.03
 H -5.97  0.49  5.15
 H -4.65 -3.08  6.27
 H -3.56 -2.05  5.48
 H -7.08 -0.73  6.61
 N  0.11 -2.18  3.80
 C  0.58 -3.39  4.45
 H  0.59 -1.83  2.98
 H -0.11 -3.61  5.28
 H  1.59 -3.25  4.86
 H  0.59 -4.23  3.75
