35
#
 C -0.66 -1.38 -1.07
 C -0.61 -0.15 -0.20
 O -0.07  0.89 -0.57
 H -0.43 -1.08 -2.10
 H -1.62 -1.91 -1.04
 H  0.11 -2.10 -0.75
 N -1.15 -0.22  1.07
 C -1.90 -1.29  1.74
 C -1.17 -2.65  1.69
 O -1.71 -3.66  1.22
 H -1.05  0.66  1.57
 H -1.91 -1.00  2.80
 C -3.36 -1.42  1.27
 C -4.14 -0.11  1.27
 C -4.34  0.49  2.66
 N -5.12  1.71  2.59
 C -5.33  2.49  3.72
 N -6.20  3.56  3.47
 N -4.84  2.34  4.90
 H -3.85 -2.17  1.90
 H -3.37 -1.85  0.25
 H -5.13 -0.31  0.83
 H -3.66  0.63  0.62
 H -3.36  0.75  3.11
 H -4.80 -0.26  3.34
 H -5.90  1.69  1.94
 H -6.25  4.19  4.27
 H -6.02  4.06  2.60
 H -4.35  1.44  4.99
 N  0.09 -2.70  2.21
 C  0.87 -1.65  2.83
 H  0.51 -3.62  2.13
 H  1.33 -0.97  2.10
 H  1.67 -2.11  3.43
 H  0.26 -1.05  3.52
