35
#
 C  0.18 -1.12  1.98
 C -0.73 -0.40  2.94
 O -1.02 -0.87  4.05
 H  1.18 -1.16  2.43
 H  0.26 -0.64  0.99
 H -0.17 -2.15  1.86
 N -1.17  0.83  2.54
 C -2.14  1.61  3.31
 C -3.23  2.20  2.39
 O -4.41  1.93  2.58
 H -0.98  1.10  1.58
 H -2.68  0.89  3.93
 C -1.55  2.68  4.26
 C -0.73  2.13  5.43
 C  0.76  1.91  5.11
 N  1.50  1.38  6.24
 C  2.18  0.17  6.27
 N  1.71 -0.79  5.38
 N  3.18  0.06  7.08
 H -2.42  3.23  4.66
 H -0.96  3.42  3.70
 H -0.79  2.83  6.28
 H -1.16  1.18  5.79
 H  1.21  2.87  4.80
 H  0.88  1.23  4.27
 H  1.94  2.05  6.87
 H  2.10 -1.71  5.55
 H  0.70 -0.83  5.19
 H  3.53 -0.91  7.11
 N -2.86  2.99  1.32
 C -1.62  3.71  1.07
 H -3.68  3.32  0.81
 H -1.46  3.80 -0.01
 H -0.76  3.18  1.49
 H -1.63  4.72  1.50
