35
#
 C  0.12 -1.82  1.05
 C -0.30 -0.62  1.89
 O  0.37 -0.23  2.84
 H -0.48 -1.95  0.14
 H  0.03 -2.72  1.66
 H  1.17 -1.71  0.78
 N -1.46 -0.01  1.51
 C -2.12  1.04  2.29
 C -1.11  2.09  2.81
 O -1.07  2.42  4.00
 H -2.00 -0.44  0.77
 H -2.77  1.58  1.57
 C -3.02  0.47  3.41
 C -4.34  1.21  3.64
 C -4.25  2.63  4.24
 N -3.54  2.71  5.52
 C -4.00  2.05  6.66
 N -5.39  2.02  6.79
 N -3.27  1.50  7.57
 H -2.43  0.42  4.34
 H -3.26 -0.57  3.13
 H -4.96  0.60  4.32
 H -4.90  1.28  2.69
 H -5.26  3.03  4.34
 H -3.72  3.31  3.56
 H -2.53  2.63  5.39
 H -5.86  2.88  6.55
 H -5.64  1.69  7.72
 H -2.29  1.48  7.29
 N -0.35  2.75  1.90
 C -0.19  2.51  0.47
 H  0.32  3.38  2.34
 H  0.49  1.68  0.25
 H  0.20  3.42  0.01
 H -1.16  2.30  0.00
