35
#
 C  0.37  0.33 -0.01
 C  0.28  0.30  1.50
 O  1.30  0.40  2.19
 H  1.01 -0.49 -0.34
 H  0.85  1.26 -0.32
 H -0.60  0.24 -0.52
 N -0.98  0.17  2.01
 C -1.45  0.02  3.40
 C -1.11  1.15  4.41
 O -1.94  1.40  5.29
 H -1.72  0.13  1.32
 H -2.54  0.11  3.31
 C -1.19 -1.37  4.01
 C  0.25 -1.68  4.45
 C  0.37 -3.09  5.02
 N  1.73 -3.36  5.44
 C  2.08 -4.57  6.02
 N  3.46 -4.69  6.21
 N  1.30 -5.53  6.39
 H -1.53 -2.12  3.28
 H -1.86 -1.46  4.88
 H  0.57 -0.96  5.21
 H  0.94 -1.57  3.60
 H  0.01 -3.83  4.28
 H -0.29 -3.19  5.90
 H  2.45 -2.97  4.83
 H  3.68 -5.52  6.76
 H  3.91 -3.86  6.58
 H  0.34 -5.37  6.07
 N  0.09  1.76  4.29
 C  0.51  2.77  5.24
 H  0.75  1.37  3.61
 H  1.31  3.37  4.79
 H  0.88  2.33  6.18
 H -0.33  3.43  5.49
