35
#
 C -1.82  0.59 -0.07
 C -1.00  0.54  1.20
 O  0.24  0.61  1.16
 H -1.61  1.53 -0.60
 H -2.90  0.50  0.09
 H -1.50 -0.23 -0.73
 N -1.70  0.42  2.35
 C -1.15  0.30  3.72
 C -0.56  1.62  4.28
 O -0.93  2.05  5.38
 H -2.71  0.45  2.28
 H -2.03  0.11  4.35
 C -0.16 -0.89  3.86
 C -0.21 -1.64  5.19
 C  0.07 -0.83  6.48
 N  1.19  0.11  6.44
 C  2.48 -0.19  6.04
 N  2.87 -1.51  6.29
 N  3.19  0.73  5.47
 H  0.86 -0.54  3.66
 H -0.40 -1.61  3.06
 H  0.52 -2.46  5.12
 H -1.20 -2.11  5.32
 H  0.20 -1.55  7.31
 H -0.80 -0.22  6.74
 H  0.93  1.06  6.23
 H  3.87 -1.66  6.20
 H  2.49 -1.93  7.14
 H  4.16  0.42  5.35
 N  0.40  2.19  3.52
 C  1.19  3.32  3.99
 H  0.67  1.70  2.66
 H  1.46  3.95  3.13
 H  2.11  2.97  4.49
 H  0.59  3.90  4.69
