35
#
 C  0.47 -0.61  0.54
 C -0.18 -0.90  1.88
 O  0.47 -1.01  2.91
 H  1.45 -0.17  0.74
 H -0.11  0.05 -0.11
 H  0.62 -1.55 -0.01
 N -1.55 -1.08  1.91
 C -2.57 -0.97  0.87
 C -2.21 -1.78 -0.40
 O -2.06 -1.24 -1.50
 H -1.88 -1.29  2.85
 H -3.44 -1.48  1.30
 C -2.96  0.49  0.57
 C -4.17  0.71 -0.35
 C -5.43 -0.11 -0.04
 N -5.88 -0.03  1.35
 C -5.77 -1.08  2.25
 N -5.84 -0.66  3.58
 N -5.58 -2.33  2.01
 H -2.10  1.01  0.14
 H -3.14  0.95  1.55
 H -3.88  0.49 -1.39
 H -4.42  1.78 -0.31
 H -5.26 -1.17 -0.28
 H -6.24  0.21 -0.71
 H -5.81  0.89  1.76
 H -6.00 -1.45  4.20
 H -6.48  0.11  3.77
 H -5.51 -2.52  1.01
 N -2.11 -3.13 -0.25
 C -2.26 -3.92  0.97
 H -1.84 -3.61 -1.10
 H -3.12 -3.59  1.56
 H -1.36 -3.89  1.60
 H -2.44 -4.96  0.68
