35
#
 C  0.17 -1.05 -0.47
 C  0.85 -0.16  0.55
 O  1.49  0.84  0.24
 H -0.49 -0.43 -1.09
 H -0.41 -1.87 -0.04
 H  0.94 -1.47 -1.13
 N  0.68 -0.54  1.86
 C  1.36  0.16  2.95
 C  1.68 -0.84  4.07
 O  2.82 -1.27  4.25
 H  0.21 -1.41  2.07
 H  2.33  0.49  2.56
 C  0.58  1.41  3.41
 C  1.33  2.23  4.46
 C  0.62  3.51  4.88
 N  0.48  4.42  3.74
 C -0.14  5.67  3.85
 N -1.18  5.72  4.78
 N  0.15  6.73  3.18
 H -0.42  1.12  3.79
 H  0.39  2.02  2.52
 H  2.33  2.48  4.07
 H  1.51  1.62  5.36
 H  1.16  3.98  5.72
 H -0.38  3.25  5.26
 H  1.30  4.46  3.15
 H -1.70  6.59  4.68
 H -1.79  4.91  4.80
 H  1.01  6.61  2.64
 N  0.60 -1.25  4.81
 C  0.72 -2.17  5.92
 H -0.27 -0.75  4.69
 H  0.67 -1.66  6.89
 H  1.70 -2.66  5.84
 H -0.07 -2.93  5.88
