35
#
 C -0.43  1.11 -0.75
 C -0.00  0.44  0.55
 O  1.17  0.31  0.86
 H -1.15  1.92 -0.57
 H -0.91  0.39 -1.42
 H  0.46  1.50 -1.24
 N -1.01 -0.01  1.38
 C -2.45  0.00  1.15
 C -3.18  1.27  1.64
 O -4.38  1.42  1.42
 H -0.66 -0.52  2.19
 H -2.63 -0.02  0.06
 C -3.10 -1.25  1.76
 C -2.70 -2.55  1.08
 C -3.35 -3.78  1.73
 N -2.97 -5.06  1.14
 C -1.65 -5.52  1.17
 N -1.00 -5.29  2.39
 N -1.16 -6.07  0.11
 H -4.19 -1.10  1.70
 H -2.85 -1.28  2.84
 H -1.61 -2.68  1.09
 H -2.99 -2.52  0.01
 H -4.45 -3.71  1.67
 H -3.11 -3.79  2.81
 H -3.34 -5.21  0.21
 H -0.11 -5.77  2.47
 H -1.57 -5.40  3.22
 H -0.25 -6.49  0.30
 N -2.41  2.16  2.33
 C -2.93  3.40  2.86
 H -1.43  1.93  2.43
 H -2.80  3.45  3.95
 H -3.99  3.45  2.62
 H -2.42  4.27  2.41
