35
#
 C  0.41  0.36 -0.35
 C  0.12  0.51  1.14
 O  0.97  0.26  1.99
 H  0.65 -0.69 -0.56
 H  1.30  0.96 -0.59
 H -0.42  0.67 -0.99
 N -1.15  0.91  1.45
 C -1.62  1.04  2.83
 C -3.11  0.63  2.86
 O -3.44 -0.49  3.27
 H -1.81  1.10  0.70
 H -1.09  0.27  3.41
 C -1.26  2.42  3.41
 C -1.76  2.66  4.85
 C -3.05  3.48  4.96
 N -2.91  4.85  4.46
 C -3.37  5.28  3.25
 N -3.30  6.66  3.08
 N -3.87  4.45  2.38
 H -1.62  3.22  2.74
 H -0.16  2.48  3.39
 H -0.98  3.17  5.43
 H -1.92  1.70  5.36
 H -3.36  3.54  6.01
 H -3.87  3.01  4.41
 H -2.71  5.56  5.15
 H -3.38  6.97  2.12
 H -2.53  7.13  3.56
 H -4.14  4.94  1.52
 N -3.99  1.52  2.34
 C -5.41  1.22  2.34
 H -3.75  2.53  2.26
 H -5.95  2.11  2.00
 H -5.76  0.94  3.34
 H -5.64  0.39  1.66
