35
#
 C  0.62  1.05  0.55
 C  0.19  0.26  1.77
 O  0.62 -0.88  2.00
 H  1.72  1.01  0.47
 H  0.29  2.09  0.58
 H  0.22  0.56 -0.35
 N -0.69  0.90  2.58
 C -1.17  0.33  3.83
 C -2.61 -0.20  3.63
 O -3.57  0.57  3.63
 H -0.96  1.88  2.37
 H -0.48 -0.50  4.07
 C -1.16  1.35  4.98
 C  0.20  1.99  5.28
 C  0.63  3.18  4.40
 N -0.31  4.29  4.39
 C -1.23  4.49  3.39
 N -2.09  5.56  3.66
 N -1.27  3.73  2.34
 H -1.51  0.82  5.88
 H -1.92  2.12  4.77
 H  1.00  1.23  5.23
 H  0.19  2.34  6.33
 H  0.77  2.88  3.36
 H  1.60  3.55  4.77
 H -0.57  4.67  5.30
 H -1.67  6.37  4.10
 H -2.70  5.81  2.89
 H -1.95  4.08  1.66
 N -2.77 -1.54  3.44
 C -1.78 -2.60  3.43
 H -3.75 -1.80  3.32
 H -2.16 -3.43  2.82
 H -1.57 -2.98  4.44
 H -0.84 -2.25  2.97
