35
#
 C -0.33 -0.01  0.02
 C -0.23  0.27  1.51
 O  0.77  0.77  2.02
 H  0.39 -0.80 -0.23
 H -0.03  0.89 -0.53
 H -1.33 -0.33 -0.31
 N -1.34 -0.06  2.24
 C -1.42 -0.01  3.70
 C -0.77  1.27  4.30
 O  0.08  1.20  5.19
 H -2.10 -0.53  1.76
 H -2.49  0.05  3.95
 C -0.85 -1.28  4.36
 C -1.37 -1.53  5.77
 C -0.76 -2.80  6.38
 N -1.25 -3.12  7.71
 C -2.47 -3.74  7.89
 N -2.83 -3.82  9.25
 N -3.17 -4.14  6.88
 H  0.25 -1.21  4.35
 H -1.12 -2.13  3.72
 H -2.46 -1.64  5.76
 H -1.12 -0.67  6.41
 H  0.33 -2.71  6.43
 H -1.00 -3.67  5.74
 H -0.99 -2.46  8.44
 H -3.64 -4.41  9.41
 H -2.07 -4.05  9.87
 H -3.98 -4.67  7.18
 N -1.26  2.48  3.89
 C -2.20  2.78  2.83
 H -0.74  3.25  4.30
 H -2.62  3.78  3.01
 H -3.03  2.07  2.83
 H -1.73  2.78  1.83
