35
#
 C  0.16 -1.19  0.36
 C  0.17 -0.18  1.49
 O  1.20  0.40  1.84
 H -0.59 -0.94 -0.41
 H -0.06 -2.20  0.73
 H  1.15 -1.18 -0.09
 N -1.01  0.05  2.17
 C -2.34 -0.41  1.83
 C -3.24  0.82  1.62
 O -3.09  1.83  2.31
 H -0.97  0.83  2.82
 H -2.28 -1.00  0.91
 C -2.99 -1.29  2.93
 C -2.43 -2.71  3.06
 C -1.06 -2.82  3.76
 N -0.61 -4.19  3.96
 C -0.10 -4.93  2.91
 N  0.19 -6.25  3.29
 N  0.03 -4.42  1.73
 H -4.07 -1.36  2.71
 H -2.92 -0.74  3.88
 H -2.36 -3.18  2.07
 H -3.15 -3.31  3.64
 H -1.10 -2.33  4.74
 H -0.29 -2.30  3.18
 H -1.10 -4.72  4.66
 H  0.70 -6.77  2.58
 H  0.62 -6.34  4.20
 H  0.55 -5.05  1.11
 N -4.23  0.73  0.69
 C -4.49 -0.38 -0.22
 H -4.81  1.56  0.62
 H -5.37 -0.12 -0.83
 H -4.71 -1.31  0.31
 H -3.65 -0.55 -0.91
