35
#
 C  0.67  1.65  1.64
 C  0.45  0.75  2.83
 O  1.36  0.43  3.61
 H  1.69  1.51  1.26
 H  0.55  2.69  1.96
 H -0.05  1.46  0.83
 N -0.83  0.33  3.03
 C -1.26 -0.42  4.21
 C -1.07 -1.95  3.99
 O -2.01 -2.73  3.91
 H -1.54  0.58  2.35
 H -0.57 -0.12  5.01
 C -2.70 -0.07  4.59
 C -2.89  1.10  5.57
 C -2.35  2.47  5.13
 N -0.92  2.57  5.29
 C -0.13  3.47  4.59
 N  1.22  3.35  4.90
 N -0.52  4.34  3.71
 H -3.15 -0.97  5.03
 H -3.28  0.11  3.68
 H -2.45  0.84  6.55
 H -3.97  1.21  5.76
 H -2.88  3.27  5.70
 H -2.59  2.64  4.07
 H -0.53  2.27  6.18
 H  1.77  3.99  4.34
 H  1.57  2.39  4.84
 H -1.54  4.44  3.70
 N  0.24 -2.30  3.90
 C  0.67 -3.65  3.61
 H  0.93 -1.54  3.93
 H  1.41 -3.99  4.35
 H  1.12 -3.73  2.61
 H -0.21 -4.30  3.65
