35
#
 C -0.02  0.37 -0.02
 C -0.04  0.02  1.46
 O  0.98 -0.17  2.10
 H -0.97  0.14 -0.54
 H  0.79 -0.18 -0.50
 H  0.18  1.44 -0.12
 N -1.30 -0.05  2.02
 C -1.51 -0.04  3.47
 C -0.65  1.08  4.12
 O -0.64  2.20  3.60
 H -2.06  0.32  1.45
 H -2.54  0.35  3.59
 C -1.52 -1.44  4.10
 C -0.25 -2.29  3.94
 C -0.23 -3.54  4.84
 N -0.63 -3.36  6.23
 C -0.05 -2.42  7.06
 N -0.81 -2.15  8.21
 N  1.05 -1.77  6.88
 H -2.38 -1.99  3.68
 H -1.75 -1.31  5.17
 H  0.64 -1.67  4.11
 H -0.15 -2.63  2.90
 H  0.78 -3.98  4.82
 H -0.90 -4.31  4.43
 H -1.62 -3.51  6.41
 H -0.26 -1.62  8.88
 H -1.25 -2.96  8.63
 H  1.49 -2.01  5.98
 N -0.03  0.81  5.29
 C  0.78  1.81  5.96
 H  0.05 -0.14  5.65
 H  1.56  2.20  5.29
 H  1.25  1.34  6.83
 H  0.17  2.66  6.28
