35
#
 C  0.00 -0.32  0.17
 C -0.15  0.13  1.61
 O  0.58  0.97  2.11
 H -0.80 -0.98 -0.19
 H  0.96 -0.84  0.07
 H  0.05  0.57 -0.48
 N -1.18 -0.46  2.29
 C -1.46 -0.31  3.72
 C -1.18  1.12  4.27
 O -0.49  1.29  5.27
 H -1.70 -1.19  1.81
 H -2.55 -0.44  3.83
 C -0.79 -1.40  4.57
 C  0.73 -1.49  4.48
 C  1.30 -2.63  5.32
 N  0.95 -3.96  4.82
 C  0.08 -4.79  5.51
 N  0.05 -6.09  4.98
 N -0.57 -4.36  6.53
 H -1.24 -2.37  4.28
 H -1.08 -1.24  5.62
 H  1.17 -0.55  4.82
 H  1.04 -1.63  3.43
 H  0.94 -2.57  6.35
 H  2.40 -2.56  5.34
 H  1.67 -4.45  4.30
 H -0.72 -6.65  5.33
 H  0.11 -6.14  3.96
 H -1.22 -5.08  6.88
 N -1.86  2.16  3.70
 C -2.67  2.18  2.49
 H -1.58  3.05  4.09
 H -3.32  3.06  2.53
 H -3.32  1.30  2.43
 H -2.06  2.24  1.57
