35
#
 C -1.98 -0.73  3.95
 C -0.68 -0.72  3.19
 O -0.41 -1.58  2.34
 H -2.06 -1.68  4.50
 H -2.81 -0.70  3.24
 H -2.09  0.10  4.66
 N  0.19  0.29  3.49
 C  1.47  0.48  2.82
 C  2.57 -0.41  3.47
 O  3.48  0.06  4.14
 H -0.04  0.91  4.26
 H  1.33  0.13  1.78
 C  1.86  1.95  2.83
 C  0.96  2.83  1.96
 C  1.16  4.33  2.22
 N  0.78  4.75  3.56
 C -0.44  5.30  3.92
 N -1.46  5.12  2.98
 N -0.70  5.97  5.00
 H  2.91  2.03  2.51
 H  1.84  2.31  3.87
 H -0.09  2.57  2.12
 H  1.16  2.63  0.89
 H  0.58  4.92  1.49
 H  2.21  4.60  2.07
 H  1.53  4.96  4.21
 H -2.35  5.43  3.36
 H -1.52  4.20  2.55
 H  0.15  6.16  5.53
 N  2.40 -1.73  3.20
 C  3.25 -2.76  3.77
 H  1.55 -2.00  2.70
 H  2.71 -3.35  4.54
 H  4.10 -2.27  4.24
 H  3.60 -3.45  3.00
