35
#
 C  0.99 -0.52  0.04
 C  0.69 -0.14  1.48
 O  1.36  0.70  2.07
 H  0.38 -1.35 -0.34
 H  2.05 -0.79 -0.04
 H  0.82  0.36 -0.60
 N -0.37 -0.81  2.04
 C -0.96 -0.56  3.36
 C -1.95  0.64  3.27
 O -3.09  0.39  2.84
 H -0.94 -1.36  1.41
 H -1.67 -1.39  3.50
 C  0.04 -0.63  4.52
 C -0.65 -0.54  5.88
 C  0.36 -0.41  7.03
 N -0.24 -0.15  8.33
 C -0.67  1.13  8.65
 N -1.24  1.22  9.92
 N -0.47  2.11  7.84
 H  0.81  0.15  4.43
 H  0.58 -1.59  4.42
 H -1.29 -1.42  6.04
 H -1.31  0.34  5.91
 H  1.04  0.42  6.82
 H  0.97 -1.32  7.12
 H -0.73 -0.92  8.76
 H -1.94  1.95 10.02
 H -1.50  0.36 10.39
 H -0.73  3.00  8.28
 N -1.61  1.91  3.61
 C -0.37  2.49  4.13
 H -2.39  2.54  3.49
 H -0.27  2.36  5.22
 H -0.39  3.57  3.91
 H  0.50  2.07  3.61
