35
#
 C -0.59 -1.40  0.13
 C -0.69 -0.14  0.98
 O  0.21  0.68  1.04
 H -0.31 -1.11 -0.89
 H -1.51 -1.99  0.10
 H  0.22 -2.02  0.53
 N -1.88  0.01  1.66
 C -2.03  1.05  2.69
 C -3.19  0.73  3.64
 O -3.03  0.83  4.86
 H -2.47 -0.81  1.74
 H -1.13  1.04  3.32
 C -2.17  2.47  2.08
 C -2.31  3.61  3.11
 C -1.06  3.92  3.95
 N -0.77  2.87  4.92
 C  0.22  2.96  5.88
 N  1.24  3.87  5.58
 N  0.27  2.31  7.00
 H -3.03  2.49  1.40
 H -1.27  2.63  1.47
 H -3.16  3.43  3.78
 H -2.55  4.52  2.55
 H -1.21  4.89  4.45
 H -0.21  4.05  3.26
 H -1.56  2.28  5.18
 H  2.01  3.75  6.23
 H  1.55  3.88  4.62
 H -0.60  1.78  7.15
 N -4.41  0.34  3.14
 C -4.96  0.50  1.80
 H -5.08  0.19  3.89
 H -5.53  1.44  1.71
 H -5.63 -0.34  1.58
 H -4.17  0.51  1.05
