35
#
 C -1.07  1.22  0.09
 C -0.71  1.07  1.56
 O -0.04  1.91  2.16
 H -0.21  1.63 -0.45
 H -1.89  1.94  0.01
 H -1.38  0.28 -0.38
 N -1.20 -0.06  2.16
 C -1.18 -0.24  3.61
 C -1.71  1.05  4.30
 O -2.71  1.61  3.86
 H -1.87 -0.61  1.64
 H -2.00 -0.95  3.81
 C  0.10 -0.94  4.12
 C  1.48 -0.43  3.67
 C  1.97  0.87  4.32
 N  3.28  1.31  3.83
 C  4.44  0.55  4.00
 N  4.52 -0.09  5.24
 N  5.29  0.50  3.04
 H  0.02 -1.99  3.79
 H  0.05 -1.01  5.23
 H  1.48 -0.30  2.58
 H  2.21 -1.22  3.89
 H  2.01  0.75  5.41
 H  1.28  1.68  4.09
 H  3.26  1.70  2.90
 H  5.44 -0.47  5.44
 H  4.15  0.44  6.03
 H  6.16  0.04  3.34
 N -1.11  1.41  5.47
 C -1.51  2.60  6.20
 H -0.22  0.99  5.70
 H -1.46  2.42  7.28
 H -2.54  2.84  5.91
 H -0.87  3.46  5.95
