35
#
 C  0.41  0.27  1.52
 C -0.12 -0.27  2.83
 O  0.58 -0.91  3.61
 H -0.18 -0.08  0.66
 H  1.44 -0.08  1.40
 H  0.39  1.37  1.50
 N -1.43 -0.01  3.13
 C -2.36  0.82  2.39
 C -2.14  2.36  2.41
 O -2.60  3.02  1.48
 H -1.72 -0.38  4.03
 H -2.26  0.59  1.32
 C -3.82  0.50  2.77
 C -4.23  0.86  4.20
 C -5.69  0.53  4.47
 N -6.05  0.86  5.84
 C -7.29  0.51  6.36
 N -7.50  1.04  7.63
 N -8.21 -0.22  5.81
 H -3.99 -0.57  2.59
 H -4.46  1.05  2.06
 H -4.06  1.94  4.37
 H -3.61  0.33  4.94
 H -5.85 -0.55  4.34
 H -6.33  1.04  3.73
 H -5.73  1.78  6.15
 H -6.71  0.96  8.26
 H -8.36  0.67  8.04
 H -8.00 -0.42  4.83
 N -1.44  2.97  3.42
 C -0.88  2.46  4.67
 H -1.38  3.97  3.26
 H -1.60  1.86  5.24
 H -0.62  3.33  5.29
 H  0.03  1.87  4.52
