35
#
 C -0.11 -0.18  0.29
 C -0.13 -0.23  1.81
 O  0.90 -0.37  2.46
 H -0.42  0.81 -0.07
 H -0.77 -0.93 -0.15
 H  0.92 -0.37 -0.04
 N -1.34 -0.11  2.45
 C -2.70 -0.01  1.90
 C -3.07 -1.33  1.17
 O -2.99 -2.37  1.81
 H -1.26 -0.30  3.44
 H -3.34 -0.09  2.79
 C -3.03  1.36  1.28
 C -2.81  2.55  2.24
 C -1.38  3.12  2.23
 N -1.23  4.38  2.94
 C -1.67  5.59  2.42
 N -1.58  6.63  3.35
 N -2.13  5.83  1.24
 H -4.09  1.34  0.99
 H -2.46  1.54  0.36
 H -3.07  2.26  3.27
 H -3.50  3.35  1.97
 H -1.06  3.29  1.18
 H -0.66  2.41  2.65
 H -1.24  4.32  3.95
 H -1.78  7.52  2.90
 H -0.72  6.65  3.88
 H -2.26  4.98  0.70
 N -3.52 -1.38 -0.13
 C -3.63 -0.38 -1.19
 H -3.75 -2.33 -0.39
 H -2.69  0.16 -1.35
 H -4.43  0.35 -1.00
 H -3.87 -0.91 -2.11
