35
#
 C -0.70  0.37  0.32
 C -0.62 -0.23  1.72
 O -0.08 -1.32  1.94
 H -1.26  1.31  0.29
 H -1.17 -0.36 -0.35
 H  0.32  0.53 -0.04
 N -1.16  0.53  2.70
 C -1.08  0.16  4.12
 C -2.23 -0.81  4.49
 O -3.19 -0.46  5.18
 H -1.62  1.41  2.44
 H -0.13 -0.38  4.24
 C -1.10  1.41  5.01
 C  0.09  2.35  4.76
 C -0.27  3.84  4.85
 N -1.35  4.26  3.94
 C -1.33  3.91  2.59
 N -0.10  4.07  1.98
 N -2.31  3.43  1.89
 H -1.13  1.08  6.05
 H -2.06  1.92  4.84
 H  0.52  2.17  3.76
 H  0.90  2.15  5.48
 H  0.63  4.45  4.66
 H -0.61  4.11  5.86
 H -2.28  4.11  4.33
 H  0.47  4.84  2.30
 H -0.15  3.98  0.97
 H -3.13  3.27  2.49
 N -2.06 -2.05  3.97
 C -3.06 -3.09  4.08
 H -1.28 -2.16  3.31
 H -3.79 -2.78  4.84
 H -2.60 -4.04  4.40
 H -3.59 -3.26  3.13
