35
#
 C -1.30 -0.83  0.23
 C -0.61 -0.75  1.58
 O  0.29 -1.52  1.90
 H -2.26 -1.36  0.34
 H -0.66 -1.42 -0.43
 H -1.52  0.14 -0.22
 N -1.05  0.19  2.49
 C -2.01  1.29  2.33
 C -3.38  0.83  1.78
 O -3.87  1.33  0.77
 H -0.53  0.16  3.35
 H -2.21  1.64  3.36
 C -1.47  2.49  1.54
 C -0.20  3.08  2.15
 C  0.37  4.23  1.31
 N  1.60  4.81  1.84
 C  2.87  4.54  1.37
 N  2.99  3.33  0.68
 N  3.92  5.29  1.50
 H -2.26  3.25  1.49
 H -1.29  2.19  0.50
 H  0.57  2.30  2.25
 H -0.39  3.45  3.17
 H -0.38  5.03  1.23
 H  0.56  3.88  0.28
 H  1.51  5.71  2.30
 H  3.96  3.14  0.47
 H  2.52  2.53  1.11
 H  3.67  6.21  1.88
 N -4.03 -0.16  2.47
 C -3.64 -0.84  3.69
 H -4.91 -0.42  2.04
 H -4.53 -1.29  4.14
 H -3.23 -0.13  4.43
 H -2.90 -1.63  3.52
