35
#
 C  0.26  0.13  1.10
 C -0.12  0.10  2.56
 O  0.71  0.33  3.44
 H  1.12  0.81  0.99
 H  0.59 -0.87  0.79
 H -0.54  0.45  0.42
 N -1.40 -0.27  2.92
 C -2.63 -0.42  2.14
 C -2.44 -1.19  0.81
 O -2.80 -0.72 -0.27
 H -1.51 -0.25  3.93
 H -3.26 -1.10  2.75
 C -3.44  0.88  1.99
 C -2.74  2.05  1.30
 C -3.56  3.35  1.33
 N -3.75  3.91  2.66
 C -4.92  3.75  3.38
 N -4.82  4.28  4.67
 N -5.93  3.12  2.87
 H -3.75  1.18  3.00
 H -4.37  0.64  1.45
 H -2.54  1.80  0.25
 H -1.76  2.24  1.78
 H -4.56  3.18  0.92
 H -3.06  4.10  0.70
 H -2.91  4.05  3.22
 H -5.71  4.33  5.15
 H -4.32  5.17  4.73
 H -6.74  3.19  3.49
 N -1.91 -2.44  0.89
 C -1.47 -3.19  2.06
 H -1.81 -2.88 -0.02
 H -2.17 -3.06  2.90
 H -0.47 -2.90  2.40
 H -1.46 -4.26  1.80
