35
#
 C -1.91  0.74  0.51
 C -1.37 -0.45  1.29
 O -0.28 -0.95  1.02
 H -1.56  0.68 -0.52
 H -1.49  1.66  0.96
 H -3.01  0.82  0.53
 N -2.22 -0.90  2.27
 C -1.91 -1.77  3.41
 C -1.01 -1.02  4.43
 O -0.28 -0.08  4.09
 H -3.03 -0.31  2.43
 H -2.88 -1.90  3.91
 C -1.47 -3.22  3.07
 C -0.12 -3.55  2.41
 C  1.13 -3.00  3.08
 N  1.18 -3.36  4.50
 C  1.90 -2.69  5.48
 N  2.29 -1.39  5.17
 N  2.21 -3.17  6.65
 H -2.27 -3.62  2.42
 H -1.55 -3.79  4.00
 H -0.11 -3.20  1.37
 H -0.06 -4.65  2.37
 H  1.14 -1.91  2.98
 H  2.02 -3.37  2.54
 H  1.11 -4.35  4.69
 H  2.67 -0.92  5.98
 H  1.64 -0.82  4.63
 H  1.98 -4.17  6.70
 N -1.11 -1.37  5.74
 C -1.73 -2.54  6.33
 H -0.43 -0.89  6.32
 H -1.91 -2.34  7.40
 H -1.09 -3.43  6.25
 H -2.70 -2.75  5.87
