35
#
 C -0.73  0.19  0.90
 C -0.49 -0.02  2.38
 O  0.38 -0.80  2.79
 H -1.22 -0.71  0.49
 H  0.23  0.30  0.39
 H -1.36  1.06  0.69
 N -1.32  0.68  3.21
 C -1.15  0.65  4.65
 C -2.45  0.26  5.37
 O -2.99  0.99  6.21
 H -1.99  1.36  2.79
 H -0.42 -0.16  4.83
 C -0.53  1.96  5.21
 C -0.92  3.25  4.47
 C -2.41  3.63  4.57
 N -2.86  4.52  3.51
 C -3.19  4.02  2.27
 N -3.57  5.02  1.37
 N -3.12  2.75  2.01
 H  0.56  1.86  5.15
 H -0.79  2.03  6.27
 H -0.66  3.14  3.41
 H -0.30  4.07  4.86
 H -2.61  4.12  5.53
 H -3.05  2.75  4.55
 H -2.54  5.48  3.53
 H -3.94  4.67  0.49
 H -4.15  5.77  1.76
 H -3.55  2.54  1.11
 N -2.99 -0.96  5.06
 C -2.50 -1.98  4.15
 H -3.86 -1.13  5.55
 H -1.41 -1.96  4.07
 H -2.92 -1.86  3.13
 H -2.80 -2.96  4.53
