35
#
 C -3.13  0.67  2.18
 C -1.88  0.38  2.99
 O -0.76  0.73  2.62
 H -3.02  0.21  1.19
 H -3.21  1.75  2.03
 H -4.05  0.31  2.64
 N -2.09 -0.30  4.16
 C -1.03 -0.72  5.07
 C -0.12  0.45  5.53
 O  1.10  0.39  5.48
 H -3.03 -0.60  4.40
 H -1.55 -1.07  5.97
 C -0.15 -1.88  4.55
 C -0.78 -2.89  3.58
 C -2.16 -3.49  3.94
 N -2.35 -3.84  5.34
 C -3.07 -3.08  6.24
 N -4.16 -2.38  5.68
 N -2.70 -3.04  7.48
 H  0.24 -2.40  5.44
 H  0.73 -1.45  4.06
 H -0.06 -3.71  3.46
 H -0.88 -2.43  2.59
 H -2.32 -4.39  3.32
 H -2.95 -2.79  3.66
 H -1.57 -4.30  5.81
 H -4.78 -2.01  6.40
 H -4.69 -2.91  4.99
 H -3.40 -2.58  8.07
 N -0.75  1.54  6.07
 C -2.16  1.76  6.33
 H -0.10  2.28  6.33
 H -2.71  2.12  5.45
 H -2.25  2.52  7.13
 H -2.64  0.85  6.70
