35
#
 C  0.80 -0.09  0.33
 C  0.86 -0.04  1.85
 O  1.88 -0.42  2.45
 H  0.88 -1.13  0.01
 H  1.66  0.45 -0.07
 H -0.12  0.34 -0.08
 N -0.24  0.44  2.47
 C -0.55  0.47  3.91
 C  0.30  1.43  4.77
 O -0.25  2.10  5.65
 H -1.00  0.76  1.88
 H -1.55  0.91  3.95
 C -0.58 -0.96  4.52
 C -0.81 -1.02  6.04
 C -2.24 -0.74  6.53
 N -2.79  0.53  6.08
 C -3.78  0.61  5.12
 N -4.80 -0.35  5.27
 N -3.69  1.48  4.17
 H  0.37 -1.45  4.28
 H -1.38 -1.52  4.00
 H -0.11 -0.34  6.55
 H -0.54 -2.03  6.39
 H -2.24 -0.78  7.64
 H -2.90 -1.54  6.18
 H -2.10  1.29  5.98
 H -5.59 -0.21  4.65
 H -5.09 -0.53  6.23
 H -4.57  1.54  3.64
 N  1.64  1.43  4.55
 C  2.56  2.24  5.31
 H  1.99  0.76  3.85
 H  3.19  2.85  4.65
 H  3.21  1.62  5.94
 H  1.97  2.90  5.96
