35
#
 C  0.11 -2.74 -0.53
 C -0.23 -1.89  0.68
 O  0.17 -0.73  0.81
 H -0.43 -2.34 -1.40
 H -0.14 -3.80 -0.41
 H  1.18 -2.64 -0.75
 N -1.01 -2.51  1.63
 C -1.60 -1.77  2.74
 C -1.10 -2.25  4.12
 O -1.74 -2.02  5.15
 H -1.39 -3.42  1.41
 H -1.22 -0.74  2.62
 C -3.13 -1.75  2.69
 C -3.80 -3.13  2.84
 C -5.05 -3.09  3.72
 N -4.69 -2.75  5.08
 C -5.57 -2.17  5.96
 N -4.95 -1.67  7.11
 N -6.86 -2.11  5.86
 H -3.43 -1.27  1.75
 H -3.47 -1.09  3.50
 H -3.10 -3.86  3.28
 H -4.08 -3.54  1.85
 H -5.56 -4.07  3.68
 H -5.77 -2.35  3.32
 H -3.69 -2.59  5.25
 H -4.05 -1.22  6.96
 H -5.60 -1.10  7.66
 H -7.20 -2.61  5.04
 N  0.10 -2.88  4.12
 C  0.78 -3.30  5.33
 H  0.56 -2.99  3.22
 H  1.07 -4.36  5.27
 H  0.08 -3.18  6.17
 H  1.67 -2.69  5.53
