35
#
 C -0.96 -3.35  0.37
 C -0.60 -2.06  1.08
 O  0.48 -1.90  1.63
 H -0.37 -4.16  0.83
 H -0.66 -3.28 -0.68
 H -2.02 -3.60  0.41
 N -1.55 -1.05  1.12
 C -2.80 -0.91  0.38
 C -3.95 -1.81  0.91
 O -4.94 -2.05  0.22
 H -1.17 -0.21  1.54
 H -3.14  0.11  0.61
 C -2.69 -1.01 -1.16
 C -1.54 -0.20 -1.77
 C -1.64  1.31 -1.53
 N -0.61  2.09 -2.21
 C -0.74  2.39 -3.55
 N  0.41  2.99 -4.08
 N -1.82  2.09 -4.19
 H -3.65 -0.69 -1.58
 H -2.59 -2.07 -1.45
 H -1.55 -0.37 -2.86
 H -0.57 -0.57 -1.40
 H -1.57  1.55 -0.46
 H -2.61  1.68 -1.89
 H  0.34  1.91 -1.91
 H  0.29  3.37 -5.01
 H  0.86  3.66 -3.46
 H -1.81  2.48 -5.14
 N -3.79 -2.25  2.18
 C -4.78 -3.07  2.86
 H -2.92 -2.02  2.65
 H -5.13 -2.57  3.78
 H -4.37 -4.05  3.13
 H -5.62 -3.20  2.18
