35
#
 C -0.56  2.69  2.25
 C -0.68  1.41  3.05
 O  0.02  1.20  4.05
 H -0.71  3.54  2.93
 H -1.26  2.76  1.42
 H  0.47  2.77  1.87
 N -1.61  0.53  2.60
 C -1.75 -0.82  3.13
 C -1.97 -1.78  1.95
 O -2.46 -1.38  0.89
 H -2.06  0.67  1.69
 H -0.79 -1.06  3.59
 C -2.90 -0.94  4.15
 C -2.66 -0.26  5.50
 C -1.69 -0.97  6.46
 N -0.33 -1.13  5.98
 C  0.08 -2.25  5.28
 N  1.26 -2.06  4.59
 N -0.52 -3.40  5.14
 H -3.11 -2.01  4.31
 H -3.80 -0.52  3.68
 H -3.63 -0.18  6.03
 H -2.32  0.77  5.34
 H -2.09 -1.97  6.73
 H -1.65 -0.41  7.41
 H  0.05 -0.26  5.58
 H  1.72 -2.92  4.31
 H  1.89 -1.34  4.92
 H -1.41 -3.42  5.65
 N -1.61 -3.05  2.21
 C -1.80 -4.13  1.26
 H -1.19 -3.27  3.13
 H -2.45 -4.91  1.68
 H -0.84 -4.58  0.98
 H -2.27 -3.72  0.36
