35
#
 C -0.41  1.59 -0.96
 C -0.18  0.43 -0.01
 O  0.90 -0.15  0.08
 H -0.61  2.52 -0.41
 H -1.27  1.42 -1.62
 H  0.49  1.72 -1.56
 N -1.26  0.03  0.75
 C -2.53  0.71  0.91
 C -2.49  2.09  1.60
 O -3.23  2.99  1.19
 H -1.04 -0.74  1.38
 H -2.94  0.95 -0.09
 C -3.55 -0.19  1.62
 C -3.90 -1.46  0.84
 C -4.91 -2.37  1.58
 N -4.53 -2.78  2.92
 C -3.48 -3.66  3.17
 N -3.15 -3.72  4.53
 N -2.82 -4.38  2.32
 H -4.45  0.41  1.80
 H -3.15 -0.47  2.62
 H -2.99 -2.03  0.62
 H -4.34 -1.19 -0.13
 H -5.10 -3.27  0.98
 H -5.87 -1.85  1.67
 H -4.68 -2.09  3.65
 H -2.49 -4.47  4.69
 H -3.94 -3.78  5.16
 H -3.08 -4.17  1.36
 N -1.65  2.31  2.66
 C -0.76  1.40  3.37
 H -1.73  3.26  3.01
 H  0.15  1.18  2.80
 H -1.26  0.45  3.63
 H -0.47  1.88  4.31
