35
#
 C  0.16  0.64  0.75
 C  0.15 -0.49  1.77
 O  1.19 -1.08  2.07
 H -0.27  0.30 -0.20
 H  1.20  0.93  0.58
 H -0.42  1.51  1.08
 N -1.04 -0.81  2.36
 C -2.37 -0.60  1.79
 C -3.43 -0.33  2.88
 O -4.63 -0.37  2.60
 H -0.99 -1.69  2.92
 H -2.34  0.33  1.19
 C -2.80 -1.74  0.85
 C -2.96 -3.15  1.46
 C -1.70 -3.87  1.95
 N -1.33 -3.48  3.32
 C -0.16 -4.05  3.91
 N  0.99 -3.83  3.18
 N -0.32 -4.69  5.02
 H -2.08 -1.79  0.02
 H -3.77 -1.45  0.42
 H -3.41 -3.78  0.68
 H -3.71 -3.12  2.27
 H -0.85 -3.66  1.28
 H -1.87 -4.96  1.91
 H -2.09 -3.67  3.97
 H  1.84 -4.14  3.63
 H  1.09 -2.90  2.74
 H  0.59 -4.94  5.43
 N -2.95 -0.04  4.11
 C -3.80  0.27  5.24
 H -1.94 -0.02  4.21
 H -3.65  1.31  5.58
 H -3.60 -0.41  6.08
 H -4.84  0.15  4.91
