35
#
 C  0.58  1.40  1.06
 C  0.09  0.11  1.69
 O  0.85 -0.80  2.03
 H  1.22  1.15  0.20
 H  1.21  1.93  1.79
 H -0.22  2.07  0.73
 N -1.27  0.01  1.84
 C -1.91 -1.12  2.51
 C -1.60 -2.52  1.93
 O -1.48 -3.46  2.71
 H -1.85  0.79  1.57
 H -1.52 -1.19  3.54
 C -3.42 -0.86  2.56
 C -4.20 -1.86  3.43
 C -5.70 -1.55  3.54
 N -6.02 -0.27  4.16
 C -6.24  0.90  3.45
 N -6.35  2.02  4.29
 N -6.32  1.08  2.17
 H -3.83 -0.86  1.54
 H -3.57  0.16  2.96
 H -3.76 -1.88  4.44
 H -4.08 -2.88  3.03
 H -6.18 -2.34  4.12
 H -6.17 -1.57  2.55
 H -5.68 -0.14  5.10
 H -6.65  2.83  3.77
 H -6.92  1.86  5.12
 H -6.11  0.22  1.66
 N -1.58 -2.72  0.58
 C -1.63 -1.78 -0.53
 H -1.34 -3.68  0.36
 H -1.86 -2.34 -1.44
 H -0.68 -1.25 -0.68
 H -2.43 -1.04 -0.39
