35
#
 C -1.96  2.10  2.73
 C -1.42  1.01  3.62
 O -0.28  0.54  3.48
 H -1.48  3.05  2.99
 H -3.05  2.22  2.82
 H -1.70  1.87  1.69
 N -2.26  0.59  4.61
 C -1.88 -0.47  5.54
 C -2.09 -1.86  4.88
 O -3.06 -2.60  5.11
 H -3.23  0.91  4.55
 H -0.79 -0.35  5.65
 C -2.47 -0.28  6.95
 C -3.92 -0.64  7.30
 C -5.04  0.00  6.47
 N -5.17 -0.65  5.17
 C -5.23  0.06  3.99
 N -4.96 -0.72  2.87
 N -5.43  1.33  3.82
 H -2.29  0.77  7.21
 H -1.83 -0.87  7.63
 H -4.08 -0.34  8.35
 H -4.05 -1.73  7.28
 H -4.83  1.08  6.33
 H -5.99 -0.06  7.02
 H -4.66 -1.54  5.11
 H -5.30 -0.30  2.01
 H -5.15 -1.71  2.95
 H -5.62  1.80  4.70
 N -1.11 -2.17  4.01
 C -1.17 -3.35  3.16
 H -0.47 -1.41  3.77
 H -1.66 -4.16  3.71
 H -0.16 -3.65  2.89
 H -1.75 -3.16  2.24
