35
#
 C -0.66  0.98 -0.32
 C -0.31  0.54  1.10
 O  0.75  0.86  1.63
 H -1.55  1.63 -0.33
 H -0.85  0.13 -0.98
 H  0.19  1.55 -0.70
 N -1.23 -0.23  1.76
 C -2.51 -0.69  1.27
 C -3.47 -0.76  2.47
 O -3.07 -0.95  3.62
 H -0.97 -0.51  2.70
 H -2.90  0.09  0.59
 C -2.46 -2.02  0.45
 C -2.91 -3.35  1.08
 C -2.20 -3.81  2.36
 N -0.75 -3.63  2.31
 C  0.04 -3.36  3.43
 N -0.61 -2.71  4.47
 N  1.29 -3.67  3.56
 H -1.41 -2.12  0.12
 H -3.06 -1.88 -0.47
 H -2.78 -4.12  0.30
 H -3.99 -3.33  1.29
 H -2.47 -4.87  2.55
 H -2.58 -3.25  3.22
 H -0.27 -4.24  1.65
 H  0.05 -2.37  5.16
 H -1.37 -2.07  4.26
 H  1.61 -4.24  2.77
 N -4.79 -0.64  2.15
 C -5.86 -0.77  3.13
 H -5.03 -0.47  1.18
 H -6.45  0.15  3.18
 H -5.40 -0.95  4.10
 H -6.52 -1.61  2.88
