35
#
 C -1.42  0.87  3.51
 C -0.93  2.05  2.70
 O -0.30  2.97  3.24
 H -1.68 -0.01  2.91
 H -2.30  1.19  4.09
 H -0.63  0.61  4.23
 N -1.20  2.08  1.36
 C -2.23  1.37  0.64
 C -2.03  1.72 -0.85
 O -1.41  2.74 -1.17
 H -0.82  2.88  0.85
 H -2.09  0.28  0.77
 C -3.68  1.72  1.09
 C -4.25  3.09  0.71
 C -3.53  4.34  1.26
 N -3.10  4.27  2.65
 C -3.95  4.09  3.70
 N -3.29  3.75  4.90
 N -5.23  4.16  3.53
 H -3.72  1.60  2.18
 H -4.35  0.94  0.69
 H -5.28  3.11  1.07
 H -4.29  3.19 -0.39
 H -4.22  5.19  1.14
 H -2.64  4.56  0.67
 H -2.11  4.13  2.82
 H -3.79  4.03  5.73
 H -2.30  3.98  4.94
 H -5.72  3.99  4.41
 N -2.58  0.90 -1.79
 C -3.35 -0.31 -1.61
 H -2.46  1.26 -2.73
 H -3.22 -0.95 -2.49
 H -4.42 -0.12 -1.48
 H -2.99 -0.88 -0.74
