35
#
 C  0.45 -1.50  1.29
 C  0.17 -1.15  2.74
 O  0.86 -1.55  3.68
 H -0.28 -2.23  0.93
 H  1.45 -1.95  1.23
 H  0.40 -0.61  0.65
 N -0.93 -0.36  2.93
 C -1.31  0.09  4.25
 C -2.82  0.37  4.26
 O -3.43  0.73  3.24
 H -1.45 -0.01  2.14
 H -1.08 -0.74  4.94
 C -0.49  1.32  4.77
 C -1.01  2.75  4.56
 C -1.35  3.22  3.13
 N -0.40  2.79  2.12
 C -0.69  2.18  0.91
 N -2.01  1.84  0.70
 N  0.17  1.91 -0.02
 H  0.51  1.21  4.32
 H -0.34  1.19  5.85
 H -0.24  3.42  4.98
 H -1.91  2.92  5.17
 H -1.43  4.33  3.15
 H -2.34  2.86  2.85
 H  0.56  3.08  2.22
 H -2.13  1.31 -0.16
 H -2.61  1.56  1.48
 H  1.10  2.30  0.20
 N -3.42  0.23  5.47
 C -4.82  0.52  5.70
 H -2.85 -0.13  6.23
 H -5.24  0.91  4.77
 H -4.94  1.27  6.50
 H -5.37 -0.39  5.99
