35
#
 C -1.67  0.40 -0.43
 C -1.26  0.98  0.91
 O -0.32  1.77  1.03
 H -2.49 -0.32 -0.36
 H -0.79 -0.09 -0.88
 H -1.96  1.22 -1.09
 N -2.03  0.56  1.96
 C -1.84  1.07  3.32
 C -1.25 -0.07  4.18
 O -1.98 -0.96  4.63
 H -2.80 -0.08  1.78
 H -1.14  1.90  3.22
 C -3.16  1.54  3.95
 C -3.93  2.57  3.09
 C -5.44  2.30  3.03
 N -5.80  0.95  2.57
 C -5.28  0.41  1.39
 N -5.22  1.30  0.33
 N -4.83 -0.80  1.23
 H -2.93  1.95  4.94
 H -3.76  0.64  4.13
 H -3.54  2.57  2.07
 H -3.77  3.59  3.48
 H -5.92  3.05  2.38
 H -5.90  2.42  4.02
 H -5.79  0.26  3.31
 H -5.97  1.98  0.27
 H -5.01  0.84 -0.55
 H -4.82 -1.31  2.12
 N  0.10 -0.07  4.39
 C  1.10  0.89  3.95
 H  0.41 -0.85  4.97
 H  0.85  1.29  2.96
 H  2.06  0.37  3.85
 H  1.23  1.72  4.66
