35
#
 C -0.36  0.53 -0.97
 C -0.54  0.02  0.45
 O -0.20 -1.11  0.79
 H  0.71  0.48 -1.23
 H -0.72  1.55 -1.12
 H -0.89 -0.15 -1.65
 N -1.10  0.91  1.32
 C -1.36  0.56  2.71
 C -2.56  1.41  3.15
 O -2.71  2.56  2.74
 H -1.40  1.83  1.03
 H -1.59 -0.51  2.74
 C -0.12  0.82  3.60
 C -0.23  0.26  5.02
 C  1.07  0.42  5.81
 N  1.01 -0.15  7.15
 C  1.64 -1.32  7.54
 N  1.87 -2.22  6.50
 N  1.98 -1.46  8.78
 H  0.08  1.90  3.62
 H  0.73  0.34  3.09
 H -0.50 -0.81  4.98
 H -1.04  0.76  5.58
 H  1.32  1.49  5.90
 H  1.90 -0.04  5.26
 H  0.95  0.50  7.93
 H  1.16 -2.28  5.78
 H  2.18 -3.14  6.81
 H  2.32 -2.40  8.97
 N -3.40  0.80  4.03
 C -4.54  1.47  4.62
 H -3.21 -0.16  4.29
 H -5.48  0.95  4.38
 H -4.58  2.49  4.21
 H -4.45  1.53  5.72
