35
#
 C  0.58 -0.51  0.14
 C  0.24 -0.09  1.55
 O  0.93  0.71  2.18
 H  0.79  0.40 -0.45
 H -0.22 -1.08 -0.35
 H  1.49 -1.12  0.16
 N -0.84 -0.71  2.11
 C -1.39 -0.35  3.42
 C -1.60  1.20  3.47
 O -2.41  1.66  2.67
 H -1.45 -1.24  1.49
 H -2.43 -0.67  3.38
 C -0.76 -1.11  4.62
 C  0.75 -1.37  4.60
 C  1.16 -2.59  3.75
 N  2.37 -2.30  2.98
 C  2.82 -3.15  1.98
 N  2.72 -4.51  2.30
 N  3.26 -2.65  0.87
 H -1.27 -2.08  4.68
 H -1.05 -0.58  5.54
 H  1.11 -1.51  5.63
 H  1.27 -0.49  4.22
 H  0.33 -2.87  3.08
 H  1.34 -3.46  4.41
 H  2.41 -1.33  2.65
 H  3.22 -5.12  1.68
 H  2.85 -4.75  3.28
 H  3.69 -3.37  0.28
 N -1.05  2.00  4.43
 C  0.22  1.89  5.13
 H -1.38  2.96  4.29
 H  0.43  2.86  5.59
 H  1.04  1.64  4.44
 H  0.18  1.14  5.94
