35
#
 C  0.75  0.37  0.80
 C  0.02 -0.68  1.62
 O  0.23 -1.88  1.49
 H  0.78  1.35  1.30
 H  0.25  0.49 -0.17
 H  1.77  0.02  0.62
 N -0.94 -0.18  2.46
 C -1.57 -1.01  3.48
 C -2.16 -2.36  3.02
 O -2.05 -3.32  3.77
 H -0.86  0.81  2.70
 H -0.81 -1.33  4.21
 C -2.67 -0.21  4.22
 C -2.55 -0.27  5.75
 C -1.40  0.56  6.34
 N -1.50  1.99  6.07
 C -0.95  2.59  4.95
 N -1.55  3.81  4.62
 N  0.01  2.16  4.20
 H -3.66 -0.59  3.93
 H -2.65  0.84  3.89
 H -2.44 -1.31  6.07
 H -3.50  0.09  6.20
 H -0.43  0.21  5.96
 H -1.36  0.42  7.43
 H -2.38  2.41  6.37
 H -0.97  4.35  3.98
 H -1.87  4.37  5.40
 H  0.36  1.25  4.52
 N -2.93 -2.43  1.90
 C -3.13 -1.46  0.84
 H -3.24 -3.38  1.72
 H -3.27 -0.45  1.24
 H -4.04 -1.73  0.29
 H -2.29 -1.43  0.13
