35
#
 C  0.29  0.65  0.46
 C  0.02 -0.26  1.65
 O  0.80 -1.14  2.00
 H  1.21  0.31 -0.02
 H  0.40  1.70  0.77
 H -0.53  0.62 -0.27
 N -1.15 -0.04  2.34
 C -2.12  1.01  2.13
 C -1.71  2.46  2.53
 O -2.29  3.39  1.97
 H -1.27 -0.67  3.13
 H -2.32  1.11  1.06
 C -3.47  0.66  2.79
 C -3.47  0.58  4.32
 C -4.85  0.22  4.86
 N -4.85  0.16  6.32
 C -5.80 -0.60  6.98
 N -5.75 -0.39  8.37
 N -6.61 -1.37  6.33
 H -3.81 -0.30  2.36
 H -4.20  1.42  2.46
 H -3.16  1.55  4.73
 H -2.76 -0.17  4.69
 H -5.17 -0.78  4.51
 H -5.61  0.93  4.49
 H -4.63  1.04  6.78
 H -6.32 -1.05  8.90
 H -4.82 -0.31  8.76
 H -7.16 -1.95  6.97
 N -0.73  2.70  3.45
 C  0.04  1.81  4.32
 H -0.58  3.70  3.57
 H -0.60  1.10  4.86
 H  0.53  2.44  5.07
 H  0.81  1.25  3.78
