35
#
 C  0.11  0.06  0.16
 C  0.03  0.00  1.67
 O  1.04 -0.06  2.38
 H  0.72  0.93 -0.13
 H -0.86  0.12 -0.33
 H  0.64 -0.84 -0.20
 N -1.23  0.04  2.20
 C -1.48  0.01  3.64
 C -1.45 -1.47  4.12
 O -2.48 -2.14  4.25
 H -2.03 -0.02  1.58
 H -0.63  0.54  4.11
 C -2.80  0.70  3.98
 C -2.85  1.28  5.41
 C -2.74  0.24  6.54
 N -2.82  0.83  7.87
 C -1.71  1.44  8.42
 N -2.00  2.08  9.64
 N -0.56  1.42  7.82
 H -3.62 -0.02  3.83
 H -2.94  1.53  3.28
 H -3.80  1.82  5.52
 H -2.04  2.01  5.54
 H -1.78 -0.28  6.49
 H -3.54 -0.51  6.45
 H -3.70  1.26  8.12
 H -1.18  2.39 10.14
 H -2.63  1.56 10.24
 H  0.17  1.80  8.42
 N -0.20 -1.94  4.33
 C  0.08 -3.32  4.67
 H  0.57 -1.34  4.02
 H  0.80 -3.38  5.49
 H  0.48 -3.88  3.81
 H -0.86 -3.79  4.98
