35
#
 C  0.64  1.08 -0.24
 C  0.18  1.21  1.20
 O  0.32  2.24  1.84
 H  1.74  1.16 -0.27
 H  0.25  1.92 -0.82
 H  0.35  0.14 -0.73
 N -0.42  0.09  1.72
 C -0.83 -0.03  3.12
 C -1.61  1.22  3.62
 O -1.30  1.80  4.66
 H -0.45 -0.74  1.15
 H -1.55 -0.86  3.14
 C  0.35 -0.38  4.06
 C  0.00 -1.35  5.19
 C -0.94 -0.82  6.26
 N -1.16 -1.83  7.29
 C -2.11 -1.72  8.30
 N -3.05 -0.70  8.11
 N -2.24 -2.51  9.31
 H  0.75  0.56  4.46
 H  1.13 -0.83  3.44
 H  0.95 -1.65  5.67
 H -0.43 -2.28  4.77
 H -1.91 -0.57  5.82
 H -0.53  0.13  6.67
 H -0.35 -2.37  7.56
 H -3.64 -0.61  8.93
 H -2.70  0.19  7.76
 H -1.57 -3.28  9.26
 N -2.72  1.59  2.92
 C -3.27  1.07  1.68
 H -3.14  2.44  3.29
 H -4.33  1.34  1.62
 H -3.21 -0.03  1.66
 H -2.76  1.46  0.79
