35
#
 C -0.47  1.57  0.65
 C -0.30  0.75  1.91
 O  0.45  1.10  2.82
 H -1.11  2.43  0.88
 H -0.93  1.01 -0.18
 H  0.50  1.96  0.33
 N -1.03 -0.40  1.97
 C -1.17 -1.18  3.21
 C -1.55 -0.20  4.36
 O -2.61  0.41  4.23
 H -1.75 -0.53  1.27
 H -2.12 -1.71  3.10
 C -0.09 -2.28  3.37
 C  1.32 -1.98  2.87
 C  2.30 -3.14  3.07
 N  2.68 -3.41  4.46
 C  1.96 -4.18  5.35
 N  1.25 -5.24  4.78
 N  1.88 -4.00  6.63
 H -0.46 -3.16  2.81
 H -0.08 -2.60  4.42
 H  1.73 -1.08  3.34
 H  1.28 -1.75  1.79
 H  3.23 -2.94  2.50
 H  1.88 -4.07  2.64
 H  3.15 -2.62  4.91
 H  0.89 -5.85  5.50
 H  1.76 -5.75  4.06
 H  2.33 -3.13  6.92
 N -0.86 -0.13  5.54
 C  0.56 -0.35  5.80
 H -1.33  0.52  6.17
 H  0.80  0.14  6.75
 H  1.18  0.10  5.02
 H  0.80 -1.41  5.92
