35
#
 C  0.88  0.60  0.32
 C -0.04  0.14  1.44
 O -0.16  0.76  2.49
 H  1.88  0.78  0.74
 H  0.50  1.56 -0.06
 H  0.95 -0.10 -0.51
 N -0.71 -1.03  1.21
 C -1.68 -1.58  2.14
 C -1.15 -1.93  3.55
 O -1.88 -1.73  4.52
 H -0.58 -1.51  0.32
 H -2.43 -0.80  2.36
 C -2.36 -2.80  1.49
 C -3.40 -3.53  2.35
 C -4.60 -2.66  2.75
 N -5.62 -3.38  3.52
 C -6.35 -4.45  3.00
 N -6.64 -4.34  1.64
 N -6.77 -5.49  3.65
 H -1.59 -3.52  1.19
 H -2.84 -2.45  0.56
 H -2.93 -3.92  3.26
 H -3.77 -4.40  1.79
 H -5.07 -2.22  1.86
 H -4.28 -1.82  3.38
 H -5.37 -3.52  4.50
 H -7.31 -5.05  1.37
 H -6.91 -3.41  1.34
 H -6.38 -5.52  4.59
 N  0.07 -2.53  3.71
 C  1.11 -2.84  2.75
 H  0.29 -2.66  4.69
 H  1.80 -3.56  3.21
 H  1.69 -1.96  2.44
 H  0.70 -3.32  1.85
