35
#
 C -1.11 -0.30  0.32
 C -0.60 -0.00  1.73
 O  0.56  0.31  1.95
 H -2.17 -0.55  0.27
 H -0.53 -1.13 -0.09
 H -0.92  0.58 -0.31
 N -1.55 -0.11  2.71
 C -1.27  0.09  4.13
 C -0.64  1.48  4.44
 O  0.36  1.59  5.13
 H -2.49 -0.41  2.48
 H -2.27  0.11  4.60
 C -0.44 -1.02  4.80
 C -0.55 -2.44  4.23
 C -1.96 -3.03  3.98
 N -2.96 -2.72  5.01
 C -3.93 -1.75  4.89
 N -4.36 -1.50  3.56
 N -4.47 -1.05  5.83
 H -0.70 -1.02  5.87
 H  0.62 -0.72  4.76
 H -0.01 -3.10  4.92
 H -0.01 -2.51  3.28
 H -1.87 -4.12  3.88
 H -2.35 -2.65  3.03
 H -2.65 -2.86  5.97
 H -5.19 -0.91  3.60
 H -4.54 -2.35  3.03
 H -3.99 -1.19  6.72
 N -1.30  2.58  3.96
 C -2.57  2.66  3.25
 H -0.82  3.44  4.18
 H -2.99  3.66  3.41
 H -3.29  1.94  3.65
 H -2.46  2.50  2.17
